# Generated by pormake.
# Topology bcs, (6)-cn, num edge types: 1
# Building blocks:
#     Node 0, Type 0, BuildingBlock: UKALOJ_clean_sbu_0, # of connection points: 6
#     Node 1, Type 0, BuildingBlock: UKALOJ_clean_sbu_0, # of connection points: 6
#     Node 2, Type 0, BuildingBlock: UKALOJ_clean_sbu_0, # of connection points: 6
#     Node 3, Type 0, BuildingBlock: UKALOJ_clean_sbu_0, # of connection points: 6
#     Node 4, Type 0, BuildingBlock: UKALOJ_clean_sbu_0, # of connection points: 6
#     Node 5, Type 0, BuildingBlock: UKALOJ_clean_sbu_0, # of connection points: 6
#     Node 6, Type 0, BuildingBlock: UKALOJ_clean_sbu_0, # of connection points: 6
#     Node 7, Type 0, BuildingBlock: UKALOJ_clean_sbu_0, # of connection points: 6
#     Node 8, Type 0, BuildingBlock: UKALOJ_clean_sbu_0, # of connection points: 6
#     Node 9, Type 0, BuildingBlock: UKALOJ_clean_sbu_0, # of connection points: 6
#     Node 10, Type 0, BuildingBlock: UKALOJ_clean_sbu_0, # of connection points: 6
#     Node 11, Type 0, BuildingBlock: UKALOJ_clean_sbu_0, # of connection points: 6
#     Node 12, Type 0, BuildingBlock: UKALOJ_clean_sbu_0, # of connection points: 6
#     Node 13, Type 0, BuildingBlock: UKALOJ_clean_sbu_0, # of connection points: 6
#     Node 14, Type 0, BuildingBlock: UKALOJ_clean_sbu_0, # of connection points: 6
#     Node 15, Type 0, BuildingBlock: UKALOJ_clean_sbu_0, # of connection points: 6
#     Edge 16, Type (0, 0), BuildingBlock: ZUJKAS_clean_linker_0, # of connection points: 2
#     Edge 17, Type (0, 0), BuildingBlock: ZUJKAS_clean_linker_0, # of connection points: 2
#     Edge 18, Type (0, 0), BuildingBlock: ZUJKAS_clean_linker_0, # of connection points: 2
#     Edge 19, Type (0, 0), BuildingBlock: ZUJKAS_clean_linker_0, # of connection points: 2
#     Edge 20, Type (0, 0), BuildingBlock: ZUJKAS_clean_linker_0, # of connection points: 2
#     Edge 21, Type (0, 0), BuildingBlock: ZUJKAS_clean_linker_0, # of connection points: 2
#     Edge 22, Type (0, 0), BuildingBlock: ZUJKAS_clean_linker_0, # of connection points: 2
#     Edge 23, Type (0, 0), BuildingBlock: ZUJKAS_clean_linker_0, # of connection points: 2
#     Edge 24, Type (0, 0), BuildingBlock: ZUJKAS_clean_linker_0, # of connection points: 2
#     Edge 25, Type (0, 0), BuildingBlock: ZUJKAS_clean_linker_0, # of connection points: 2
#     Edge 26, Type (0, 0), BuildingBlock: ZUJKAS_clean_linker_0, # of connection points: 2
#     Edge 27, Type (0, 0), BuildingBlock: ZUJKAS_clean_linker_0, # of connection points: 2
#     Edge 28, Type (0, 0), BuildingBlock: ZUJKAS_clean_linker_0, # of connection points: 2
#     Edge 29, Type (0, 0), BuildingBlock: ZUJKAS_clean_linker_0, # of connection points: 2
#     Edge 30, Type (0, 0), BuildingBlock: ZUJKAS_clean_linker_0, # of connection points: 2
#     Edge 31, Type (0, 0), BuildingBlock: ZUJKAS_clean_linker_0, # of connection points: 2
#     Edge 32, Type (0, 0), BuildingBlock: ZUJKAS_clean_linker_0, # of connection points: 2
#     Edge 33, Type (0, 0), BuildingBlock: ZUJKAS_clean_linker_0, # of connection points: 2
#     Edge 34, Type (0, 0), BuildingBlock: ZUJKAS_clean_linker_0, # of connection points: 2
#     Edge 35, Type (0, 0), BuildingBlock: ZUJKAS_clean_linker_0, # of connection points: 2
#     Edge 36, Type (0, 0), BuildingBlock: ZUJKAS_clean_linker_0, # of connection points: 2
#     Edge 37, Type (0, 0), BuildingBlock: ZUJKAS_clean_linker_0, # of connection points: 2
#     Edge 38, Type (0, 0), BuildingBlock: ZUJKAS_clean_linker_0, # of connection points: 2
#     Edge 39, Type (0, 0), BuildingBlock: ZUJKAS_clean_linker_0, # of connection points: 2
#     Edge 40, Type (0, 0), BuildingBlock: ZUJKAS_clean_linker_0, # of connection points: 2
#     Edge 41, Type (0, 0), BuildingBlock: ZUJKAS_clean_linker_0, # of connection points: 2
#     Edge 42, Type (0, 0), BuildingBlock: ZUJKAS_clean_linker_0, # of connection points: 2
#     Edge 43, Type (0, 0), BuildingBlock: ZUJKAS_clean_linker_0, # of connection points: 2
#     Edge 44, Type (0, 0), BuildingBlock: ZUJKAS_clean_linker_0, # of connection points: 2
#     Edge 45, Type (0, 0), BuildingBlock: ZUJKAS_clean_linker_0, # of connection points: 2
#     Edge 46, Type (0, 0), BuildingBlock: ZUJKAS_clean_linker_0, # of connection points: 2
#     Edge 47, Type (0, 0), BuildingBlock: ZUJKAS_clean_linker_0, # of connection points: 2
#     Edge 48, Type (0, 0), BuildingBlock: ZUJKAS_clean_linker_0, # of connection points: 2
#     Edge 49, Type (0, 0), BuildingBlock: ZUJKAS_clean_linker_0, # of connection points: 2
#     Edge 50, Type (0, 0), BuildingBlock: ZUJKAS_clean_linker_0, # of connection points: 2
#     Edge 51, Type (0, 0), BuildingBlock: ZUJKAS_clean_linker_0, # of connection points: 2
#     Edge 52, Type (0, 0), BuildingBlock: ZUJKAS_clean_linker_0, # of connection points: 2
#     Edge 53, Type (0, 0), BuildingBlock: ZUJKAS_clean_linker_0, # of connection points: 2
#     Edge 54, Type (0, 0), BuildingBlock: ZUJKAS_clean_linker_0, # of connection points: 2
#     Edge 55, Type (0, 0), BuildingBlock: ZUJKAS_clean_linker_0, # of connection points: 2
#     Edge 56, Type (0, 0), BuildingBlock: ZUJKAS_clean_linker_0, # of connection points: 2
#     Edge 57, Type (0, 0), BuildingBlock: ZUJKAS_clean_linker_0, # of connection points: 2
#     Edge 58, Type (0, 0), BuildingBlock: ZUJKAS_clean_linker_0, # of connection points: 2
#     Edge 59, Type (0, 0), BuildingBlock: ZUJKAS_clean_linker_0, # of connection points: 2
#     Edge 60, Type (0, 0), BuildingBlock: ZUJKAS_clean_linker_0, # of connection points: 2
#     Edge 61, Type (0, 0), BuildingBlock: ZUJKAS_clean_linker_0, # of connection points: 2
#     Edge 62, Type (0, 0), BuildingBlock: ZUJKAS_clean_linker_0, # of connection points: 2
#     Edge 63, Type (0, 0), BuildingBlock: ZUJKAS_clean_linker_0, # of connection points: 2
# Relax obj value: 0.432
# Max RMSD: 0.286
# Mean RMSD: 0.262
data_MOF--net-bcs--node1-UKALOJ_clean_sbu_0--edge1-ZUJKAS_clean_linker_0
_symmetry_space_group_name_H-M    P1
_symmetry_Int_Tables_number       1
_symmetry_cell_setting            triclinic
loop_
_symmetry_equiv_pos_as_xyz
'x, y, z'
_cell_length_a     46.363553
_cell_length_b     45.818337
_cell_length_c     49.205488
_cell_angle_alpha  88.633968
_cell_angle_beta   91.485088
_cell_angle_gamma 80.955701
loop_
_atom_site_label
_atom_site_type_symbol
_atom_site_fract_x
_atom_site_fract_y
_atom_site_fract_z
_atom_type_partial_charge
Zn0 Zn 0.0012 0.02514 0.00435 0.0
O1 O 0.0304 0.01495 0.03805 0.0
C2 C 0.0241 0.96758 0.97905 0.0
Zn3 Zn 0.97627 0.9894 0.01584 0.0
C4 C 0.02725 0.99339 0.05381 0.0
O5 O 0.00634 0.97908 0.0492 0.0
C6 C 0.95057 0.02101 0.96615 0.0
O7 O 0.94975 0.01974 0.04002 0.0
O8 O 0.97348 0.05563 0.02823 0.0
N9 N 0.95506 0.95603 0.02808 0.0
C10 C 0.92657 0.95401 0.03081 0.0
C11 C 0.95132 0.9134 0.04581 0.0
N12 N 0.97035 0.93067 0.03717 0.0
N13 N 0.92368 0.92743 0.04189 0.0
C14 C 0.05034 0.05807 0.98369 0.0
C15 C 0.02647 0.10055 0.97294 0.0
N16 N 0.02255 0.05822 0.99117 0.0
N17 N 0.00782 0.08471 0.98467 0.0
N18 N 0.05331 0.08433 0.97183 0.0
H19 H 0.07071 0.01995 0.00773 0.0
H20 H 0.09587 0.0409 0.99192 0.0
H21 H 0.07616 0.01763 0.97197 0.0
C22 C 0.07469 0.03276 0.98927 0.0
C23 C 0.90171 0.97848 0.02408 0.0
H24 H 0.8864 0.98118 0.04114 0.0
H25 H 0.88953 0.97264 0.00583 0.0
H26 H 0.90926 -0.00031 0.01955 0.0
O27 O 0.9466 3e-05 0.98226 0.0
O28 O 0.97176 0.0349 0.97075 0.0
C29 C 0.95309 0.04667 0.04135 0.0
O30 O 0.02819 0.99428 0.98052 0.0
O31 O 0.00332 0.95922 0.99193 0.0
Zn32 Zn 0.2286 0.75609 0.26451 0.0
O33 O 0.24995 0.71527 0.28154 0.0
C34 C 0.26585 0.78759 0.29843 0.0
Zn35 Zn 0.26907 0.76184 0.24327 0.0
C36 C 0.27654 0.70598 0.2767 0.0
O37 O 0.28998 0.72103 0.26075 0.0
C38 C 0.2209 0.8121 0.23162 0.0
O39 O 0.25628 0.73997 0.20905 0.0
O40 O 0.21619 0.73419 0.22987 0.0
N41 N 0.30726 0.76739 0.22587 0.0
C42 C 0.31288 0.78143 0.20271 0.0
C43 C 0.35376 0.76647 0.22326 0.0
N44 N 0.3327 0.75794 0.23852 0.0
N45 N 0.34186 0.78134 0.20072 0.0
C46 C 0.18394 0.74304 0.30755 0.0
C47 C 0.14445 0.74852 0.2835 0.0
N48 N 0.19044 0.75081 0.28209 0.0
N49 N 0.16585 0.75441 0.26726 0.0
N50 N 0.15512 0.74153 0.30896 0.0
H51 H 0.20191 0.71573 0.34208 0.0
H52 H 0.20397 0.75448 0.34459 0.0
H53 H 0.22859 0.73214 0.32346 0.0
C54 C 0.20598 0.73573 0.33056 0.0
C55 C 0.29021 0.79396 0.1815 0.0
H56 H 0.27149 0.78166 0.18145 0.0
H57 H 0.29972 0.79323 0.16102 0.0
H58 H 0.28202 0.81733 0.18596 0.0
O59 O 0.24749 0.80309 0.2264 0.0
O60 O 0.2077 0.7965 0.24722 0.0
C61 C 0.23193 0.73061 0.20907 0.0
O62 O 0.24137 0.7785 0.29868 0.0
O63 O 0.2816 0.78342 0.27772 0.0
Zn64 Zn 0.52239 0.01269 0.51132 0.0
O65 O 0.50592 0.04742 0.48392 0.0
C66 C 0.4747 0.03199 0.5479 0.0
Zn67 Zn 0.48449 0.99033 0.50168 0.0
C68 C 0.48199 0.04725 0.47084 0.0
O69 O 0.46816 0.02561 0.47418 0.0
C70 C 0.52498 0.95615 0.54249 0.0
O71 O 0.50617 0.96641 0.46998 0.0
O72 O 0.54349 0.98896 0.47919 0.0
N73 N 0.4482 0.97128 0.49619 0.0
C74 C 0.43511 0.96171 0.47414 0.0
C75 C 0.4106 0.95255 0.50855 0.0
N76 N 0.4329 0.96565 0.51752 0.0
N77 N 0.41153 0.94972 0.48141 0.0
C78 C 0.56332 0.05716 0.5277 0.0
C79 C 0.60536 0.03226 0.52138 0.0
N80 N 0.55915 0.03071 0.51836 0.0
N81 N 0.58527 0.01533 0.51431 0.0
N82 N 0.59214 0.05859 0.52992 0.0
H83 H 0.5198 0.08113 0.51998 0.0
H84 H 0.54657 0.10369 0.53027 0.0
H85 H 0.53271 0.07994 0.55473 0.0
C86 C 0.53921 0.08197 0.53333 0.0
C87 C 0.44462 0.96554 0.44557 0.0
H88 H 0.45557 0.98524 0.44348 0.0
H89 H 0.42567 0.96774 0.43101 0.0
H90 H 0.46045 0.94587 0.44034 0.0
O91 O 0.50112 0.9555 0.52944 0.0
O92 O 0.53858 0.9778 0.53863 0.0
C93 C 0.53194 0.97076 0.46505 0.0
O94 O 0.50071 0.036 0.54363 0.0
O95 O 0.46327 0.01421 0.53325 0.0
Zn96 Zn 0.26773 0.25275 0.7672 0.0
O97 O 0.24042 0.28476 0.78851 0.0
C98 C 0.22834 0.2115 0.78394 0.0
Zn99 Zn 0.23156 0.25277 0.73667 0.0
C100 C 0.21519 0.2961 0.77937 0.0
O101 O 0.20579 0.28771 0.75684 0.0
C102 C 0.28445 0.20907 0.72519 0.0
O103 O 0.24831 0.28376 0.71191 0.0
O104 O 0.28291 0.28576 0.74284 0.0
N105 N 0.19764 0.25139 0.70957 0.0
C106 C 0.1967 0.24355 0.68335 0.0
C107 C 0.15282 0.25194 0.69647 0.0
N108 N 0.17033 0.25679 0.7176 0.0
N109 N 0.16879 0.24349 0.67472 0.0
C110 C 0.30883 0.2746 0.81036 0.0
C111 C 0.33833 0.23514 0.82085 0.0
N112 N 0.30099 0.25293 0.79513 0.0
N113 N 0.31936 0.22844 0.80166 0.0
N114 N 0.33204 0.26392 0.8268 0.0
H115 H 0.28549 0.31204 0.78726 0.0
H116 H 0.31092 0.32122 0.81284 0.0
H117 H 0.27689 0.31036 0.8226 0.0
C118 C 0.29483 0.30641 0.80799 0.0
C119 C 0.22291 0.23753 0.66594 0.0
H120 H 0.24001 0.25039 0.67262 0.0
H121 H 0.21677 0.24317 0.64428 0.0
H122 H 0.23213 0.21373 0.66772 0.0
O123 O 0.25813 0.21758 0.71711 0.0
O124 O 0.29433 0.22056 0.74595 0.0
C125 C 0.27075 0.29427 0.71991 0.0
O126 O 0.25234 0.21971 0.7908 0.0
O127 O 0.21495 0.222 0.76214 0.0
Zn128 Zn 0.03731 0.99683 0.48573 0.0
O129 O 0.02164 0.9567 0.47968 0.0
C130 C 0.98486 0.02865 0.45528 0.0
Zn131 Zn -7e-05 0.01215 0.51195 0.0
C132 C 0.99791 0.95216 0.49013 0.0
O133 O 0.9845 0.97148 0.5054 0.0
C134 C 0.03846 0.05736 0.50712 0.0
O135 O 0.02674 0.99449 0.54513 0.0
O136 O 0.06313 0.97795 0.5191 0.0
N137 N 0.96639 0.02552 0.53706 0.0
C138 C 0.95914 0.01345 0.56062 0.0
C139 C 0.92911 0.05331 0.55321 0.0
N140 N 0.9477 0.05029 0.53245 0.0
N141 N 0.93618 0.03063 0.57125 0.0
C142 C 0.07205 0.97603 0.43478 0.0
C143 C 0.11265 0.99027 0.4438 0.0
N144 N 0.07123 0.98551 0.46054 0.0
N145 N 0.09668 0.99385 0.46623 0.0
N146 N 0.09768 0.9794 0.42352 0.0
H147 H 0.04272 0.94416 0.43574 0.0
H148 H 0.05672 0.94989 0.40291 0.0
H149 H 0.02911 0.97752 0.4167 0.0
C150 C 0.04886 0.96116 0.42165 0.0
C151 C 0.97343 0.98413 0.57259 0.0
H152 H 0.98326 0.9694 0.55668 0.0
H153 H 0.95734 0.97306 0.58355 0.0
H154 H 0.99084 0.98774 0.58744 0.0
O155 O 0.0148 0.05259 0.51749 0.0
O156 O 0.05262 0.03771 0.49267 0.0
C157 C 0.05269 0.98139 0.54261 0.0
O158 O 0.01099 0.01619 0.45224 0.0
O159 O 0.97439 0.03019 0.47884 0.0
Zn160 Zn 0.26632 0.77237 0.774 0.0
O161 O 0.24265 0.80774 0.75084 0.0
C162 C 0.2182 0.77917 0.81294 0.0
Zn163 Zn 0.2325 0.74532 0.76239 0.0
C164 C 0.21869 0.80526 0.73871 0.0
O165 O 0.20912 0.78079 0.73987 0.0
C166 C 0.28006 0.71208 0.79721 0.0
O167 O 0.25612 0.73112 0.7274 0.0
O168 O 0.29052 0.75635 0.73994 0.0
N169 N 0.20112 0.72006 0.75419 0.0
C170 C 0.20297 0.69236 0.74506 0.0
C171 C 0.15886 0.70622 0.75624 0.0
N172 N 0.17373 0.72865 0.76109 0.0
N173 N 0.1768 0.68311 0.74646 0.0
C174 C 0.30659 0.82046 0.77229 0.0
C175 C 0.32774 0.81421 0.81141 0.0
N176 N 0.29723 0.79726 0.78465 0.0
N177 N 0.31056 0.79328 0.80887 0.0
N178 N 0.32561 0.83163 0.78877 0.0
H179 H 0.29408 0.81242 0.731 0.0
H180 H 0.31612 0.84147 0.73463 0.0
H181 H 0.27834 0.8477 0.74361 0.0
C182 C 0.29843 0.83102 0.74365 0.0
C183 C 0.22954 0.67592 0.7322 0.0
H184 H 0.23242 0.68678 0.71229 0.0
H185 H 0.22768 0.6526 0.72835 0.0
H186 H 0.24933 0.67682 0.74501 0.0
O187 O 0.2563 0.70966 0.7848 0.0
O188 O 0.28911 0.73681 0.79704 0.0
C189 C 0.28094 0.73877 0.7236 0.0
O190 O 0.24232 0.78784 0.80816 0.0
O191 O 0.20923 0.76051 0.79741 0.0
Zn192 Zn 0.53012 0.01315 0.03 0.0
O193 O 0.50517 0.04548 0.05406 0.0
C194 C 0.4876 0.97226 0.04056 0.0
Zn195 Zn 0.49363 0.01859 -0.0008 0.0
C196 C 0.48017 0.05852 0.0456 0.0
O197 O 0.4699 0.05167 0.02283 0.0
C198 C 0.54337 0.97319 0.98354 0.0
O199 O 0.51297 0.05143 0.97944 0.0
O200 O 0.5483 0.04734 0.01053 0.0
N201 N 0.46033 0.02398 0.97066 0.0
C202 C 0.46067 0.02118 0.94346 0.0
C203 C 0.41606 0.02946 0.95451 0.0
N204 N 0.43259 0.0294 0.97747 0.0
N205 N 0.43317 0.0243 0.93288 0.0
C206 C 0.56542 0.00707 0.08509 0.0
C207 C 0.60918 0.00068 0.07152 0.0
N208 N 0.56411 0.00683 0.05771 0.0
N209 N 0.59132 0.00247 0.04935 0.0
N210 N 0.59352 0.00319 0.09427 0.0
H211 H 0.53637 0.03763 0.10757 0.0
H212 H 0.54224 0.00076 0.12179 0.0
H213 H 0.51928 0.00912 0.09191 0.0
C214 C 0.53928 0.0139 0.10251 0.0
C215 C 0.48779 0.01654 0.92708 0.0
H216 H 0.50543 0.02672 0.93669 0.0
H217 H 0.48316 0.02603 0.90616 0.0
H218 H 0.49569 0.99255 0.92564 0.0
O219 O 0.51771 0.98513 0.97607 0.0
O220 O 0.5545 0.98128 0.00541 0.0
C221 C 0.53597 0.05973 0.98895 0.0
O222 O 0.51161 0.97926 0.0491 0.0
O223 O 0.47452 0.98575 0.01976 0.0
Zn224 Zn 0.26595 0.28404 0.26017 0.0
O225 O 0.29823 0.27163 0.29124 0.0
C226 C 0.29623 0.24064 0.22488 0.0
Zn227 Zn 0.2478 0.24242 0.26627 0.0
C228 C 0.29858 0.24691 0.30361 0.0
O229 O 0.2798 0.23067 0.29713 0.0
C230 C 0.2151 0.27924 0.22281 0.0
O231 O 0.21739 0.259 0.29594 0.0
O232 O 0.23521 0.30011 0.28958 0.0
N233 N 0.23709 0.20109 0.26863 0.0
C234 C 0.21202 0.19067 0.27323 0.0
C235 C 0.24418 0.15377 0.26426 0.0
N236 N 0.257 0.17813 0.26306 0.0
N237 N 0.21595 0.16107 0.27052 0.0
C238 C 0.30106 0.33614 0.2513 0.0
C239 C 0.26813 0.37302 0.25819 0.0
N240 N 0.27647 0.32544 0.25727 0.0
N241 N 0.25611 0.34839 0.26166 0.0
N242 N 0.29636 0.36601 0.25169 0.0
H243 H 0.33205 0.29643 0.25901 0.0
H244 H 0.34823 0.3291 0.25173 0.0
H245 H 0.3309 0.31132 0.22487 0.0
C246 C 0.32982 0.31721 0.2466 0.0
C247 C 0.18353 0.20961 0.27887 0.0
H248 H 0.18165 0.23123 0.26787 0.0
H249 H 0.18254 0.21369 0.30099 0.0
H250 H 0.16482 0.19853 0.27279 0.0
O251 O 0.21575 0.25462 0.23536 0.0
O252 O 0.23371 0.29576 0.22911 0.0
C253 C 0.21734 0.286 0.30133 0.0
O254 O 0.29621 0.26757 0.23045 0.0
O255 O 0.27855 0.22639 0.23674 0.0
Zn256 Zn 0.48384 0.50701 0.01409 0.0
O257 O 0.50459 0.4842 0.04857 0.0
C258 C 0.52546 0.5488 0.0175 0.0
Zn259 Zn 0.52302 0.49091 0.99023 0.0
C260 C 0.53042 0.47027 0.04732 0.0
O261 O 0.54334 0.46897 0.02486 0.0
C262 C 0.47682 0.52775 0.95683 0.0
O263 O 0.50625 0.45259 0.97952 0.0
O264 O 0.46709 0.46859 0.00228 0.0
N265 N 0.55992 0.47915 0.9689 0.0
C266 C 0.56355 0.47092 0.94293 0.0
C267 C 0.6033 0.48375 0.95705 0.0
N268 N 0.58484 0.48659 0.97779 0.0
N269 N 0.59048 0.47427 0.93469 0.0
C270 C 0.44099 0.5249 0.06081 0.0
C271 C 0.39984 0.52847 0.03981 0.0
N272 N 0.44633 0.52057 0.03431 0.0
N273 N 0.4207 0.52336 0.02123 0.0
N274 N 0.41193 0.52973 0.06489 0.0
H275 H 0.46812 0.49855 0.09073 0.0
H276 H 0.45763 0.53626 0.1 0.0
H277 H 0.48475 0.52773 0.07495 0.0
C278 C 0.46423 0.52177 0.08286 0.0
C279 C 0.5418 0.4569 0.92674 0.0
H280 H 0.53474 0.43896 0.93906 0.0
H281 H 0.55144 0.44691 0.90807 0.0
H282 H 0.5223 0.4734 0.92129 0.0
O283 O 0.50227 0.51309 0.95525 0.0
O284 O 0.46433 0.52928 0.97948 0.0
C285 C 0.48109 0.44921 0.98744 0.0
O286 O 0.50048 0.54501 0.02551 0.0
O287 O 0.53941 0.52993 0.00213 0.0
Zn288 Zn 0.76805 0.2748 0.26645 0.0
O289 O 0.74069 0.308 0.24395 0.0
C290 C 0.72997 0.28737 0.31332 0.0
Zn291 Zn 0.73299 0.24679 0.26588 0.0
C292 C 0.71477 0.3045 0.23761 0.0
O293 O 0.70599 0.28043 0.24391 0.0
C294 C 0.78621 0.21676 0.29428 0.0
O295 O 0.74814 0.22721 0.22904 0.0
O296 O 0.78314 0.25428 0.23014 0.0
N297 N 0.69943 0.22288 0.26729 0.0
C298 C 0.6985 0.19372 0.26576 0.0
C299 C 0.65491 0.21535 0.27108 0.0
N300 N 0.67235 0.23625 0.27075 0.0
N301 N 0.67086 0.18842 0.26839 0.0
C302 C 0.80268 0.32778 0.26609 0.0
C303 C 0.84632 0.30585 0.26159 0.0
N304 N 0.80168 0.29859 0.2651 0.0
N305 N 0.8288 0.28504 0.26219 0.0
N306 N 0.8304 0.33289 0.26362 0.0
H307 H 0.75848 0.34156 0.27934 0.0
H308 H 0.76963 0.36282 0.2515 0.0
H309 H 0.78327 0.36755 0.2853 0.0
C310 C 0.77696 0.35109 0.27102 0.0
C311 C 0.72425 0.17066 0.26021 0.0
H312 H 0.74232 0.18045 0.25141 0.0
H313 H 0.7178 0.15413 0.24608 0.0
H314 H 0.73231 0.15898 0.2796 0.0
O315 O 0.7604 0.21338 0.28755 0.0
O316 O 0.79502 0.24108 0.28895 0.0
C317 C 0.771 0.23451 0.21884 0.0
O318 O 0.75257 0.29489 0.30282 0.0
O319 O 0.71818 0.26706 0.3025 0.0
Zn320 Zn 0.01115 0.51004 0.51988 0.0
O321 O 0.98687 0.54207 0.54454 0.0
C322 C 0.96697 0.47061 0.5271 0.0
Zn323 Zn 0.97627 0.51787 0.48753 0.0
C324 C 0.9628 0.55651 0.53537 0.0
O325 O 0.95336 0.55093 0.51192 0.0
C326 C 0.0249 0.47142 0.4723 0.0
O327 O 0.99752 0.55 0.46916 0.0
O328 O 0.03127 0.54389 0.50185 0.0
N329 N 0.94276 0.52668 0.45934 0.0
C330 C 0.94135 0.52459 0.43209 0.0
C331 C 0.89785 0.53708 0.44525 0.0
N332 N 0.91575 0.53485 0.46741 0.0
N333 N 0.91335 0.53104 0.42272 0.0
C334 C 0.04426 0.50236 0.57579 0.0
C335 C 0.0887 0.49407 0.56426 0.0
N336 N 0.04427 0.50197 0.54844 0.0
N337 N 0.0719 0.4965 0.54131 0.0
N338 N 0.07187 0.49768 0.58621 0.0
H339 H 0.01031 0.53019 0.59553 0.0
H340 H 0.02177 0.49497 0.61254 0.0
H341 H -0.00084 0.49773 0.58181 0.0
C342 C 0.0173 0.50633 0.59235 0.0
C343 C 0.96706 0.51361 0.41521 0.0
H344 H 0.98726 0.52002 0.42413 0.0
H345 H 0.96412 0.52252 0.39408 0.0
H346 H 0.96958 0.48916 0.4146 0.0
O347 O 1e-05 0.48448 0.46361 0.0
O348 O 0.03492 0.47829 0.49512 0.0
C349 C 0.02053 0.55706 0.47998 0.0
O350 O 0.99088 0.47651 0.53702 0.0
O351 O 0.95517 0.48523 0.50633 0.0
Zn352 Zn 0.73729 0.74733 0.24458 0.0
O353 O 0.74041 0.77913 0.21365 0.0
C354 C 0.79367 0.71303 0.22924 0.0
Zn355 Zn 0.77452 0.76119 0.26783 0.0
C356 C 0.76007 0.79544 0.21553 0.0
O357 O 0.77742 0.79252 0.23621 0.0
C358 C 0.75096 0.71358 0.29714 0.0
O359 O 0.74557 0.79304 0.28803 0.0
O360 O 0.70874 0.77904 0.26568 0.0
N361 N 0.80997 0.77377 0.28726 0.0
C362 C 0.81474 0.78299 0.3126 0.0
C363 C 0.8543 0.78223 0.29134 0.0
N364 N 0.83459 0.77334 0.27413 0.0
N365 N 0.84244 0.78852 0.31563 0.0
C366 C 0.69791 0.72521 0.19962 0.0
C367 C 0.65815 0.72507 0.22039 0.0
N368 N 0.70206 0.73463 0.22498 0.0
N369 N 0.67732 0.73456 0.2378 0.0
N370 N 0.67052 0.71893 0.19628 0.0
H371 H 0.73543 0.73949 0.1813 0.0
H372 H 0.70924 0.72832 0.15751 0.0
H373 H 0.73297 0.70111 0.17809 0.0
C374 C 0.72011 0.72366 0.17785 0.0
C375 C 0.79276 0.78507 0.33458 0.0
H376 H 0.77672 0.76998 0.33105 0.0
H377 H 0.78067 0.80796 0.33467 0.0
H378 H 0.80376 0.77976 0.35478 0.0
O379 O 0.77078 0.72973 0.29921 0.0
O380 O 0.73437 0.71604 0.27597 0.0
C381 C 0.71824 0.79546 0.28316 0.0
O382 O 0.76636 0.71568 0.22414 0.0
O383 O 0.80308 0.72922 0.24696 0.0
Zn384 Zn 0.7338 0.25587 0.763 0.0
O385 O 0.75244 0.21357 0.77915 0.0
C386 C 0.77664 0.28367 0.79484 0.0
Zn387 Zn 0.7745 0.25723 0.74057 0.0
C388 C 0.77826 0.20194 0.77367 0.0
O389 O 0.79292 0.21558 0.75765 0.0
C390 C 0.73017 0.31128 0.73016 0.0
O391 O 0.75712 0.23639 0.70761 0.0
O392 O 0.7166 0.23568 0.72955 0.0
N393 N 0.81212 0.25882 0.72061 0.0
C394 C 0.81718 0.26888 0.6955 0.0
C395 C 0.85843 0.25786 0.71643 0.0
N396 N 0.8378 0.25167 0.73347 0.0
N397 N 0.84606 0.26839 0.69237 0.0
C398 C 0.69189 0.24183 0.80753 0.0
C399 C 0.65009 0.26101 0.79091 0.0
N400 N 0.69631 0.25451 0.78336 0.0
N401 N 0.67033 0.26661 0.77312 0.0
N402 N 0.66319 0.24551 0.81263 0.0
H403 H 0.73603 0.23579 0.82448 0.0
H404 H 0.71981 0.20269 0.82211 0.0
H405 H 0.7086 0.2286 0.84802 0.0
C406 C 0.71554 0.22653 0.82664 0.0
C407 C 0.7939 0.2819 0.67498 0.0
H408 H 0.77194 0.27811 0.68085 0.0
H409 H 0.79846 0.27195 0.65493 0.0
H410 H 0.79412 0.30601 0.67258 0.0
O411 O 0.75579 0.2995 0.72418 0.0
O412 O 0.7157 0.29763 0.74635 0.0
C413 C 0.73146 0.23002 0.70843 0.0
O414 O 0.75125 0.2767 0.79604 0.0
O415 O 0.79141 0.27786 0.77372 0.0
Zn416 Zn 0.76481 0.78431 0.75902 0.0
O417 O 0.80095 0.77 0.78576 0.0
C418 C 0.78925 0.74182 0.71947 0.0
Zn419 Zn 0.74656 0.74287 0.76547 0.0
C420 C 0.80177 0.74506 0.79785 0.0
O421 O 0.78166 0.72981 0.79308 0.0
C422 C 0.70906 0.78197 0.7272 0.0
O423 O 0.72005 0.75925 0.79812 0.0
O424 O 0.73941 0.79958 0.79246 0.0
N425 N 0.73564 0.70171 0.76868 0.0
C426 C 0.71183 0.69107 0.77711 0.0
C427 C 0.74174 0.65453 0.76339 0.0
N428 N 0.75413 0.67897 0.76014 0.0
N429 N 0.71516 0.66158 0.77391 0.0
C430 C 0.80016 0.83492 0.74584 0.0
C431 C 0.76997 0.87288 0.75603 0.0
N432 N 0.77613 0.82528 0.75501 0.0
N433 N 0.75747 0.84887 0.76145 0.0
N434 N 0.79675 0.86473 0.74615 0.0
H435 H 0.83028 0.79403 0.75002 0.0
H436 H 0.84686 0.82599 0.74112 0.0
H437 H 0.82547 0.80988 0.71616 0.0
C438 C 0.82735 0.81507 0.73798 0.0
C439 C 0.68493 0.70972 0.78709 0.0
H440 H 0.6882 0.71378 0.80901 0.0
H441 H 0.66558 0.69843 0.78455 0.0
H442 H 0.68087 0.73135 0.77592 0.0
O443 O 0.71144 0.75622 0.73795 0.0
O444 O 0.72831 0.79808 0.73263 0.0
C445 C 0.72217 0.78541 0.80506 0.0
O446 O 0.79002 0.76855 0.72527 0.0
O447 O 0.77323 0.72721 0.73307 0.0
Zn448 Zn 0.52041 0.53984 0.50794 0.0
O449 O 0.54936 0.52712 0.54155 0.0
C450 C 0.54265 0.48365 0.47995 0.0
Zn451 Zn 0.49531 0.50375 0.51824 0.0
C452 C 0.54639 0.50458 0.5561 0.0
O453 O 0.52551 0.49051 0.55068 0.0
C454 C 0.46925 0.53913 0.47001 0.0
O455 O 0.46989 0.53277 0.54456 0.0
O456 O 0.49295 0.56918 0.53271 0.0
N457 N 0.47349 0.46997 0.52866 0.0
C458 C 0.44637 0.46951 0.53772 0.0
C459 C 0.46836 0.425 0.53848 0.0
N460 N 0.48704 0.44227 0.529 0.0
N461 N 0.44271 0.44156 0.5442 0.0
C462 C 0.5711 0.57301 0.4918 0.0
C463 C 0.54946 0.61745 0.48642 0.0
N464 N 0.54286 0.57325 0.49777 0.0
N465 N 0.52949 0.60092 0.49461 0.0
N466 N 0.57573 0.6004 0.48448 0.0
H467 H 0.58912 0.53006 0.50943 0.0
H468 H 0.61581 0.55296 0.49993 0.0
H469 H 0.59669 0.53568 0.47429 0.0
C470 C 0.59447 0.54637 0.49421 0.0
C471 C 0.4231 0.49614 0.53878 0.0
H472 H 0.4249 0.50687 0.55859 0.0
H473 H 0.40105 0.48973 0.53678 0.0
H474 H 0.42575 0.51233 0.52229 0.0
O475 O 0.46522 0.51751 0.48538 0.0
O476 O 0.49107 0.55215 0.47471 0.0
C477 C 0.47324 0.55966 0.54628 0.0
O478 O 0.5472 0.51007 0.48284 0.0
O479 O 0.52161 0.47498 0.49221 0.0
Zn480 Zn 0.02671 0.51708 0.01007 0.0
O481 O 0.00955 0.55181 0.98309 0.0
C482 C 0.9795 0.53617 0.04779 0.0
Zn483 Zn 0.98872 0.49434 0.00187 0.0
C484 C 0.9856 0.55115 0.97024 0.0
O485 O 0.97209 0.52935 0.97402 0.0
C486 C 0.03005 0.46042 0.04175 0.0
O487 O 0.01061 0.47006 0.97049 0.0
O488 O 0.04731 0.49424 0.97719 0.0
N489 N 0.95276 0.47472 0.99607 0.0
C490 C 0.94098 0.46442 0.97367 0.0
C491 C 0.91564 0.45447 0.00724 0.0
N492 N 0.93694 0.46863 0.01689 0.0
N493 N 0.91782 0.4514 0.98019 0.0
C494 C 0.06748 0.56204 0.02543 0.0
C495 C 0.10952 0.53717 0.019 0.0
N496 N 0.06334 0.53537 0.01664 0.0
N497 N 0.08946 0.52 0.01253 0.0
N498 N 0.0963 0.56364 0.02722 0.0
H499 H 0.02362 0.58547 0.01819 0.0
H500 H 0.05037 0.60857 0.02714 0.0
H501 H 0.03732 0.5853 0.05257 0.0
C502 C 0.04331 0.58683 0.03097 0.0
C503 C 0.95129 0.46849 0.94538 0.0
H504 H 0.96109 0.48892 0.94345 0.0
H505 H 0.93295 0.46957 0.93025 0.0
H506 H 0.96823 0.44948 0.94073 0.0
O507 O 0.00563 0.4599 0.02967 0.0
O508 O 0.04373 0.48187 0.03709 0.0
C509 C 0.03566 0.47534 0.9641 0.0
O510 O 0.00547 0.53989 0.04288 0.0
O511 O 0.96744 0.5185 0.03348 0.0
H512 H 0.17106 0.20521 0.78465 0.0
H513 H 0.14705 0.17865 0.81858 0.0
H514 H 0.23047 0.14695 0.85851 0.0
H515 H 0.25454 0.17487 0.82525 0.0
H516 H 0.14978 0.12345 0.83315 0.0
H517 H 0.18662 0.18338 0.92103 0.0
H518 H 0.19226 0.19412 0.88635 0.0
H519 H 0.21607 0.16356 0.90271 0.0
C520 C 0.18435 0.19241 0.80053 0.0
C521 C 0.21464 0.19231 0.80246 0.0
C522 C 0.17059 0.17725 0.81995 0.0
C523 C 0.18685 0.16135 0.84149 0.0
C524 C 0.21735 0.15985 0.8426 0.0
H525 H 0.09225 0.04957 0.94095 0.0
H526 H 0.12913 0.06559 0.91254 0.0
C527 C 0.23111 0.17555 0.82345 0.0
C528 C 0.17146 0.14693 0.8628 0.0
H529 H 0.15909 0.14547 0.93089 0.0
C530 C 0.15188 0.12819 0.85455 0.0
C531 C 0.17396 0.15346 0.89067 0.0
C532 C 0.19313 0.17494 0.90074 0.0
C533 C 0.13411 0.11646 0.87318 0.0
C534 C 0.13701 0.12249 0.90115 0.0
C535 C 0.15711 0.14064 0.90951 0.0
C536 C 0.11795 0.11188 0.92172 0.0
C537 C 0.11143 0.09902 0.86239 0.0
C538 C 0.10079 0.13223 0.93789 0.0
C539 C 0.08064 0.12281 0.95539 0.0
C540 C 0.07716 0.09291 0.95698 0.0
C541 C 0.09504 0.07249 0.94132 0.0
C542 C 0.11569 0.08179 0.92436 0.0
H543 H 0.10646 0.10378 0.84037 0.0
H544 H 0.11984 0.07504 0.86495 0.0
H545 H 0.09074 0.10397 0.87345 0.0
H546 H 0.10219 0.15558 0.93627 0.0
H547 H 0.06703 0.13905 0.96705 0.0
H548 H 0.08005 0.01149 0.0635 0.0
H549 H 0.1177 0.99102 0.09769 0.0
H550 H 0.06083 0.9329 0.12862 0.0
H551 H 0.02317 0.95301 0.09458 0.0
H552 H 0.09575 0.96545 0.16944 0.0
H553 H 0.15932 0.90113 0.08982 0.0
H554 H 0.14652 0.93998 0.08366 0.0
H555 H 0.12075 0.91468 0.08505 0.0
C556 C 0.07539 0.99466 0.07784 0.0
C557 C 0.04872 0.98368 0.07622 0.0
C558 C 0.09692 0.98301 0.0973 0.0
C559 C 0.09198 0.96042 0.11548 0.0
C560 C 0.06494 0.95039 0.11472 0.0
H561 H 0.16247 0.83209 0.23282 0.0
H562 H 0.13466 0.87347 0.20693 0.0
C563 C 0.04352 0.96183 0.0952 0.0
C564 C 0.11556 0.94538 0.13395 0.0
H565 H 0.17473 0.89077 0.13515 0.0
C566 C 0.11335 0.94945 0.16201 0.0
C567 C 0.13855 0.9248 0.12407 0.0
C568 C 0.14161 0.91963 0.09403 0.0
C569 C 0.13303 0.93255 0.18061 0.0
C570 C 0.15486 0.9105 0.17081 0.0
C571 C 0.15798 0.90764 0.14265 0.0
C572 C 0.17243 0.88793 0.18912 0.0
C573 C 0.12993 0.93818 0.21055 0.0
C574 C 0.20298 0.88199 0.18756 0.0
C575 C 0.21902 0.85796 0.20214 0.0
C576 C 0.20471 0.83935 0.21838 0.0
C577 C 0.17423 0.84601 0.22059 0.0
C578 C 0.15826 0.8699 0.20597 0.0
H579 H 0.12059 0.96161 0.21398 0.0
H580 H 0.11473 0.92417 0.21911 0.0
H581 H 0.15126 0.93289 0.2218 0.0
H582 H 0.21434 0.89552 0.17453 0.0
H583 H 0.24248 0.85361 0.20021 0.0
H584 H 0.42687 0.91051 0.44216 0.0
H585 H 0.39444 0.88361 0.41627 0.0
H586 H 0.32094 0.92569 0.46063 0.0
H587 H 0.35338 0.95369 0.48587 0.0
H588 H 0.35965 0.84446 0.43786 0.0
H589 H 0.29274 0.9391 0.38067 0.0
H590 H 0.32713 0.94229 0.39748 0.0
H591 H 0.2951 0.9416 0.41705 0.0
C592 C 0.40369 0.91477 0.44574 0.0
C593 C 0.39239 0.93488 0.46531 0.0
C594 C 0.38526 0.89907 0.43128 0.0
C595 C 0.35528 0.90301 0.43632 0.0
C596 C 0.34393 0.92281 0.4561 0.0
H597 H 0.23453 0.81023 0.34175 0.0
H598 H 0.25227 0.83724 0.3797 0.0
C599 C 0.3624 0.93863 0.47052 0.0
C600 C 0.33636 0.88565 0.42113 0.0
H601 H 0.28348 0.89142 0.37091 0.0
C602 C 0.34268 0.85471 0.42351 0.0
C603 C 0.31411 0.89919 0.40264 0.0
C604 C 0.30686 0.93236 0.39905 0.0
C605 C 0.32833 0.83689 0.40683 0.0
C606 C 0.3073 0.85044 0.38733 0.0
C607 C 0.29963 0.88128 0.38606 0.0
C608 C 0.29643 0.83327 0.36551 0.0
C609 C 0.33654 0.80373 0.40933 0.0
C610 C 0.31547 0.82246 0.34516 0.0
C611 C 0.30547 0.80745 0.32349 0.0
C612 C 0.27622 0.80288 0.32188 0.0
C613 C 0.2572 0.81342 0.34253 0.0
C614 C 0.26722 0.8288 0.36415 0.0
H615 H 0.34749 0.79663 0.42928 0.0
H616 H 0.31693 0.7928 0.40678 0.0
H617 H 0.35185 0.79605 0.39307 0.0
H618 H 0.33803 0.82604 0.34586 0.0
H619 H 0.32068 0.79951 0.30797 0.0
H620 H 0.34364 0.19558 0.73115 0.0
H621 H 0.37702 0.16406 0.70267 0.0
H622 H 0.30377 0.14217 0.65593 0.0
H623 H 0.27011 0.17411 0.68412 0.0
H624 H 0.38333 0.1051 0.6915 0.0
H625 H 0.35238 0.17424 0.59794 0.0
H626 H 0.34158 0.18642 0.6313 0.0
H627 H 0.32204 0.16131 0.61362 0.0
C628 C 0.33456 0.18393 0.71492 0.0
C629 C 0.30422 0.18769 0.70959 0.0
C630 C 0.3537 0.16594 0.69868 0.0
C631 C 0.34288 0.15134 0.67686 0.0
C632 C 0.31256 0.15392 0.67225 0.0
H633 H 0.41728 0.03162 0.55758 0.0
H634 H 0.38712 0.06039 0.5904 0.0
C635 C 0.29336 0.17208 0.6884 0.0
C636 C 0.36343 0.13394 0.65867 0.0
H637 H 0.38342 0.12841 0.5925 0.0
C638 C 0.38349 0.11027 0.66988 0.0
C639 C 0.36376 0.14102 0.63054 0.0
C640 C 0.344 0.16731 0.61764 0.0
C641 C 0.40338 0.09297 0.65349 0.0
C642 C 0.40311 0.09963 0.62534 0.0
C643 C 0.38338 0.12346 0.61417 0.0
C644 C 0.42219 0.08127 0.6068 0.0
C645 C 0.42412 0.06727 0.66609 0.0
C646 C 0.45192 0.08359 0.60534 0.0
C647 C 0.46933 0.06725 0.58645 0.0
C648 C 0.45714 0.04841 0.56886 0.0
C649 C 0.4274 0.0459 0.57082 0.0
C650 C 0.41008 0.0623 0.58954 0.0
H651 H 0.41992 0.06353 0.68793 0.0
H652 H 0.42224 0.0468 0.655 0.0
H653 H 0.44692 0.07154 0.66429 0.0
H654 H 0.46148 0.09836 0.61849 0.0
H655 H 0.49215 0.0696 0.58546 0.0
H656 H 0.04357 -0.00053 0.59437 0.0
H657 H 0.07371 0.98308 0.635 0.0
H658 H 0.13234 0.92451 0.58647 0.0
H659 H 0.1029 0.94154 0.54568 0.0
H660 H 0.08284 0.93032 0.65693 0.0
H661 H 0.19002 0.95931 0.63211 0.0
H662 H 0.15708 0.97443 0.61294 0.0
H663 H 0.17745 0.939 0.60477 0.0
C664 C 0.06302 0.98324 0.59237 0.0
C665 C 0.07089 0.97158 0.56696 0.0
C666 C 0.0803 0.97411 0.61553 0.0
C667 C 0.10559 0.95312 0.61364 0.0
C668 C 0.11348 0.94153 0.58824 0.0
H669 H 0.17337 0.80469 0.70278 0.0
H670 H 0.14517 0.84673 0.67796 0.0
C671 C 0.09644 0.95094 0.56501 0.0
C672 C 0.12189 0.94056 0.63842 0.0
H673 H 0.19117 0.91532 0.66211 0.0
C674 C 0.10649 0.92776 0.65847 0.0
C675 C 0.15264 0.93795 0.64093 0.0
C676 C 0.17014 0.95377 0.62165 0.0
C677 C 0.12128 0.90982 0.6794 0.0
C678 C 0.15211 0.90399 0.67968 0.0
C679 C 0.16747 0.91928 0.66141 0.0
C680 C 0.16851 0.87923 0.69599 0.0
C681 C 0.10372 0.89621 0.70026 0.0
C682 C 0.19158 0.88354 0.71362 0.0
C683 C 0.20806 0.85943 0.72757 0.0
C684 C 0.20172 0.83074 0.72388 0.0
C685 C 0.17863 0.82656 0.70616 0.0
C686 C 0.16232 0.85059 0.69218 0.0
H687 H 0.08277 0.91091 0.70373 0.0
H688 H 0.09834 0.87505 0.69263 0.0
H689 H 0.11602 0.89173 0.71997 0.0
H690 H 0.19682 0.9055 0.71654 0.0
H691 H 0.22556 0.8633 0.74135 0.0
H692 H 0.37907 0.84064 0.80479 0.0
H693 H 0.3945 0.88862 0.81179 0.0
H694 H 0.31305 0.93256 0.77544 0.0
H695 H 0.2971 0.88467 0.76949 0.0
H696 H 0.3994 0.94165 0.78079 0.0
H697 H 0.30955 0.95694 0.85508 0.0
H698 H 0.32084 0.92185 0.83967 0.0
H699 H 0.30012 0.9519 0.82004 0.0
C700 C 0.36488 0.86054 0.7976 0.0
C701 C 0.33704 0.85893 0.78649 0.0
C702 C 0.37371 0.88789 0.80146 0.0
C703 C 0.35474 0.9141 0.79441 0.0
C704 C 0.32789 0.91255 0.78117 0.0
H705 H 0.38734 0.05354 0.90332 0.0
H706 H 0.36645 0.0371 0.8609 0.0
C707 C 0.31897 0.88512 0.77744 0.0
C708 C 0.36142 0.9422 0.80519 0.0
H709 H 0.34588 0.98615 0.85949 0.0
C710 C 0.38728 0.95203 0.79749 0.0
C711 C 0.34535 0.95596 0.82677 0.0
C712 C 0.31748 0.94619 0.83608 0.0
C713 C 0.39883 0.97346 0.8124 0.0
C714 C 0.38441 0.98476 0.83579 0.0
C715 C 0.35698 0.97732 0.84163 0.0
C716 C 0.39976 -0.00134 0.85752 0.0
C717 C 0.42722 0.98251 0.80388 0.0
C718 C 0.42531 0.98257 0.8696 0.0
C719 C 0.43695 0.99174 0.8937 0.0
C720 C 0.42345 0.01734 0.90619 0.0
C721 C 0.39833 0.03398 0.89377 0.0
C722 C 0.38654 0.02471 0.86956 0.0
H723 H 0.42883 0.98243 0.78139 0.0
H724 H 0.42953 0.00484 0.81109 0.0
H725 H 0.44571 0.96633 0.81253 0.0
H726 H 0.43517 0.96171 0.86145 0.0
H727 H 0.45538 0.97764 0.90345 0.0
H728 H 0.43363 0.09974 0.02885 0.0
H729 H 0.40444 0.13646 0.05631 0.0
H730 H 0.45765 0.10442 0.12731 0.0
H731 H 0.48758 0.06846 0.09975 0.0
H732 H 0.37117 0.12829 0.09638 0.0
H733 H 0.45511 0.19116 0.13529 0.0
H734 H 0.46204 0.1653 0.10824 0.0
H735 H 0.46504 0.15245 0.14326 0.0
C736 C 0.43932 0.10075 0.05026 0.0
C737 C 0.46301 0.08126 0.06211 0.0
C738 C 0.42263 0.12178 0.06594 0.0
C739 C 0.42911 0.12366 0.09383 0.0
C740 C 0.45273 0.10413 0.1057 0.0
H741 H 0.30794 0.18161 0.21652 0.0
H742 H 0.34014 0.15591 0.18352 0.0
C743 C 0.46971 0.08337 0.08995 0.0
C744 C 0.40985 0.14444 0.11083 0.0
H745 H 0.41025 0.19614 0.15974 0.0
C746 C 0.37974 0.14339 0.10995 0.0
C747 C 0.4208 0.16463 0.12822 0.0
C748 C 0.45247 0.16871 0.12859 0.0
C749 C 0.36052 0.16098 0.1267 0.0
C750 C 0.37179 0.17949 0.14554 0.0
C751 C 0.40168 0.18159 0.14561 0.0
C752 C 0.3531 0.19555 0.16619 0.0
C753 C 0.32827 0.1595 0.12397 0.0
C754 C 0.35064 0.22638 0.16833 0.0
C755 C 0.33245 0.24124 0.18762 0.0
C756 C 0.31644 0.22545 0.20501 0.0
C757 C 0.31959 0.19453 0.20318 0.0
C758 C 0.33789 0.17977 0.18418 0.0
H759 H 0.32229 0.15279 0.10328 0.0
H760 H 0.32272 0.1427 0.13872 0.0
H761 H 0.31483 0.18112 0.12812 0.0
H762 H 0.36244 0.23897 0.15483 0.0
H763 H 0.33059 0.26505 0.18863 0.0
H764 H 0.05988 0.99471 0.38002 0.0
H765 H 0.07251 0.01169 0.33576 0.0
H766 H 0.16385 0.9941 0.36018 0.0
H767 H 0.15138 0.97306 0.40317 0.0
H768 H 0.08936 0.0584 0.33186 0.0
H769 H 0.17552 0.98479 0.28316 0.0
H770 H 0.15456 0.97101 0.30962 0.0
H771 H 0.18775 0.98556 0.31783 0.0
C772 C 0.08275 0.99203 0.37538 0.0
C773 C 0.10468 0.98187 0.39525 0.0
C774 C 0.08999 0.00248 0.34998 0.0
C775 C 0.11917 0.00446 0.34434 0.0
C776 C 0.1412 0.99222 0.36335 0.0
H777 H 0.18382 0.15699 0.31459 0.0
H778 H 0.15486 0.11829 0.32505 0.0
C779 C 0.13403 0.98053 0.38826 0.0
C780 C 0.12599 0.02507 0.32243 0.0
H781 H 0.18244 0.03837 0.28344 0.0
C782 C 0.10922 0.05349 0.32055 0.0
C783 C 0.15123 0.01904 0.30667 0.0
C784 C 0.16796 0.98826 0.30425 0.0
C785 C 0.11882 0.07662 0.30609 0.0
C786 C 0.14659 0.07164 0.29438 0.0
C787 C 0.16163 0.04258 0.29335 0.0
C788 C 0.16195 0.09649 0.28657 0.0
C789 C 0.09952 0.10642 0.30456 0.0
C790 C 0.17637 0.09674 0.26184 0.0
C791 C 0.1935 0.11856 0.25622 0.0
C792 C 0.19608 0.14061 0.27504 0.0
C793 C 0.18131 0.1407 0.29949 0.0
C794 C 0.16467 0.11865 0.30534 0.0
H795 H 0.07612 0.10378 0.30307 0.0
H796 H 0.10265 0.11841 0.32348 0.0
H797 H 0.10449 0.12005 0.28683 0.0
H798 H 0.17491 0.07972 0.24719 0.0
H799 H 0.20509 0.11806 0.23737 0.0
H800 H 0.7574 0.18422 0.19594 0.0
H801 H 0.78561 0.15349 0.16274 0.0
H802 H 0.84562 0.2162 0.15733 0.0
H803 H 0.81759 0.24711 0.19036 0.0
H804 H 0.82888 0.19256 0.10571 0.0
H805 H 0.86736 0.10579 0.18517 0.0
H806 H 0.82845 0.11693 0.18179 0.0
H807 H 0.85105 0.14283 0.19337 0.0
C808 C 0.77631 0.19174 0.18736 0.0
C809 C 0.78533 0.21805 0.19595 0.0
C810 C 0.79251 0.17405 0.16853 0.0
C811 C 0.81795 0.18237 0.15793 0.0
C812 C 0.82614 0.20933 0.16537 0.0
H813 H 0.95619 0.10451 0.05268 0.0
H814 H 0.92293 0.13788 0.08008 0.0
C815 C 0.81006 0.22695 0.18427 0.0
C816 C 0.83691 0.16234 0.1402 0.0
H817 H 0.88223 0.09594 0.14044 0.0
C818 C 0.84054 0.17141 0.11323 0.0
C819 C 0.85214 0.13483 0.15014 0.0
C820 C 0.84985 0.12448 0.17925 0.0
C821 C 0.85869 0.15343 0.09576 0.0
C822 C 0.87414 0.12598 0.10578 0.0
C823 C 0.8704 0.11696 0.13276 0.0
C824 C 0.89417 0.10609 0.08868 0.0
C825 C 0.86063 0.16372 0.0666 0.0
C826 C 0.88958 0.07688 0.08499 0.0
C827 C 0.90874 0.05767 0.06966 0.0
C828 C 0.933 0.06723 0.0577 0.0
C829 C 0.93764 0.09649 0.06148 0.0
C830 C 0.9185 0.11568 0.07696 0.0
H831 H 0.84159 0.1806 0.06024 0.0
H832 H 0.88066 0.17391 0.06444 0.0
H833 H 0.86185 0.14493 0.05261 0.0
H834 H 0.87106 0.06893 0.09393 0.0
H835 H 0.90444 0.03531 0.06716 0.0
H836 H 0.00964 0.58127 0.42902 0.0
H837 H 0.0329 0.61948 0.40726 0.0
H838 H 0.08521 0.62503 0.48021 0.0
H839 H 0.06259 0.58598 0.50196 0.0
H840 H 0.03458 0.67652 0.42074 0.0
H841 H 0.14675 0.61144 0.42311 0.0
H842 H 0.11499 0.59491 0.43084 0.0
H843 H 0.13018 0.61693 0.45556 0.0
C844 C 0.02613 0.59055 0.44046 0.0
C845 C 0.03448 0.58046 0.46712 0.0
C846 C 0.03933 0.61247 0.42802 0.0
C847 C 0.06101 0.62484 0.44201 0.0
C848 C 0.06896 0.61532 0.46887 0.0
H849 H 0.15862 0.75258 0.36309 0.0
H850 H 0.13538 0.72829 0.3997 0.0
C851 C 0.05597 0.59309 0.48127 0.0
C852 C 0.0754 0.64726 0.42792 0.0
H853 H 0.1403 0.65833 0.4015 0.0
C854 C 0.05777 0.67274 0.41685 0.0
C855 C 0.10569 0.64229 0.42294 0.0
C856 C 0.12554 0.61484 0.43352 0.0
C857 C 0.06942 0.69268 0.39991 0.0
C858 C 0.09934 0.68699 0.39406 0.0
C859 C 0.11733 0.66253 0.40629 0.0
C860 C 0.11156 0.70369 0.37246 0.0
C861 C 0.04955 0.7191 0.38746 0.0
C862 C 0.10559 0.6979 0.34525 0.0
C863 C 0.11939 0.71101 0.32448 0.0
C864 C 0.13945 0.73008 0.33058 0.0
C865 C 0.14429 0.73699 0.35786 0.0
C866 C 0.13072 0.72352 0.37873 0.0
H867 H 0.02849 0.72363 0.39803 0.0
H868 H 0.06036 0.73906 0.38807 0.0
H869 H 0.0448 0.71486 0.3658 0.0
H870 H 0.09094 0.68248 0.34014 0.0
H871 H 0.11516 0.70545 0.30364 0.0
H872 H 0.57329 0.95343 0.57548 0.0
H873 H 0.59322 0.91423 0.60818 0.0
H874 H 0.52393 0.86546 0.58709 0.0
H875 H 0.50351 0.90486 0.55404 0.0
H876 H 0.5559 0.88954 0.65357 0.0
H877 H 0.60953 0.81029 0.57892 0.0
H878 H 0.60326 0.84944 0.57073 0.0
H879 H 0.57286 0.82978 0.57278 0.0
C880 C 0.56221 0.93442 0.5777 0.0
C881 C 0.53684 0.93222 0.56215 0.0
C882 C 0.5736 0.91211 0.59643 0.0
C883 C 0.55997 0.88715 0.59989 0.0
C884 C 0.53466 0.88467 0.58453 0.0
H885 H 0.66653 0.75226 0.70711 0.0
H886 H 0.62397 0.7727 0.67796 0.0
C887 C 0.5231 0.90715 0.56574 0.0
C888 C 0.57295 0.864 0.61974 0.0
H889 H 0.62631 0.80367 0.62469 0.0
C890 C 0.57062 0.87018 0.64742 0.0
C891 C 0.59188 0.83879 0.61149 0.0
C892 C 0.59469 0.83142 0.58188 0.0
C893 C 0.5887 0.85309 0.66697 0.0
C894 C 0.60977 0.82969 0.65841 0.0
C895 C 0.61015 0.82177 0.63106 0.0
C896 C 0.63463 0.81697 0.67646 0.0
C897 C 0.58647 0.86135 0.69641 0.0
C898 C 0.65478 0.83508 0.68464 0.0
C899 C 0.67908 0.82356 0.7009 0.0
C900 C 0.68366 0.79365 0.70932 0.0
C901 C 0.6635 0.77542 0.70096 0.0
C902 C 0.63921 0.787 0.68442 0.0
H903 H 0.56427 0.87301 0.70076 0.0
H904 H 0.59166 0.84148 0.71011 0.0
H905 H 0.60233 0.87646 0.70107 0.0
H906 H 0.6518 0.85818 0.67821 0.0
H907 H 0.69416 0.83819 0.70698 0.0
H908 H 0.50487 0.40355 0.95604 0.0
H909 H 0.47912 0.36777 0.9335 0.0
H910 H 0.40004 0.40299 0.9735 0.0
H911 H 0.4254 0.43919 0.99584 0.0
H912 H 0.44449 0.32408 0.9533 0.0
H913 H 0.3805 0.41574 0.89056 0.0
H914 H 0.41309 0.42012 0.90987 0.0
H915 H 0.3792 0.42007 0.92673 0.0
C916 C 0.48208 0.40353 0.96028 0.0
C917 C 0.46704 0.4246 0.97733 0.0
C918 C 0.46747 0.38297 0.94748 0.0
C919 C 0.43763 0.38317 0.95151 0.0
C920 C 0.423 0.40286 0.96985 0.0
H921 H 0.30784 0.30057 0.86504 0.0
H922 H 0.33367 0.32768 0.89759 0.0
C923 C 0.43757 0.42344 0.98265 0.0
C924 C 0.42132 0.36442 0.93494 0.0
H925 H 0.36922 0.368 0.88425 0.0
C926 C 0.42796 0.33358 0.93824 0.0
C927 C 0.39993 0.37702 0.91526 0.0
C928 C 0.39283 0.41003 0.91013 0.0
C929 C 0.4134 0.31492 0.9225 0.0
C930 C 0.39212 0.32756 0.90269 0.0
C931 C 0.38545 0.35841 0.89954 0.0
C932 C 0.37682 0.30939 0.88447 0.0
C933 C 0.42062 0.28193 0.92746 0.0
C934 C 0.39253 0.29013 0.86637 0.0
C935 C 0.37777 0.27481 0.84773 0.0
C936 C 0.34712 0.27896 0.84658 0.0
C937 C 0.33146 0.29772 0.86506 0.0
C938 C 0.34618 0.31294 0.88377 0.0
H939 H 0.43084 0.27633 0.94798 0.0
H940 H 0.40075 0.27131 0.92544 0.0
H941 H 0.43637 0.27242 0.9122 0.0
H942 H 0.41615 0.28754 0.86619 0.0
H943 H 0.39019 0.26034 0.83366 0.0
H944 H 0.89846 0.77109 0.33165 0.0
H945 H 0.92577 0.79239 0.36744 0.0
H946 H 0.84784 0.85185 0.38665 0.0
H947 H 0.82071 0.83131 0.35036 0.0
H948 H 0.92799 0.85687 0.36666 0.0
H949 H 0.88539 0.81514 0.46234 0.0
H950 H 0.88436 0.79613 0.43063 0.0
H951 H 0.85906 0.82923 0.43578 0.0
C952 C 0.8871 0.7884 0.34381 0.0
C953 C 0.8573 0.79906 0.3386 0.0
C954 C 0.90265 0.80044 0.36425 0.0
C955 C 0.88866 0.82329 0.37995 0.0
C956 C 0.85881 0.8337 0.37518 0.0
H957 H 0.94058 0.94573 0.49402 0.0
H958 H 0.91536 0.91101 0.46937 0.0
C959 C 0.84327 0.82179 0.35457 0.0
C960 C 0.90598 0.83835 0.39923 0.0
H961 H 0.91652 0.85127 0.46654 0.0
C962 C 0.92573 0.85547 0.38852 0.0
C963 C 0.90262 0.83665 0.42764 0.0
C964 C 0.88186 0.81818 0.43997 0.0
C965 C 0.94179 0.87162 0.40543 0.0
C966 C 0.93874 0.86977 0.43398 0.0
C967 C 0.91907 0.85242 0.44472 0.0
C968 C 0.95463 0.8871 0.45267 0.0
C969 C 0.96095 0.89146 0.39239 0.0
C970 C 0.98524 0.88414 0.45269 0.0
C971 C -0.00031 0.90419 0.46648 0.0
C972 C 0.98381 0.92717 0.48094 0.0
C973 C 0.95345 0.92832 0.48301 0.0
C974 C 0.93897 0.90851 0.46889 0.0
H975 H 0.95488 0.89628 0.37056 0.0
H976 H 0.95951 0.91277 0.40295 0.0
H977 H 0.98401 0.88032 0.39363 0.0
H978 H 0.99783 0.8672 0.44096 0.0
H979 H 0.02314 0.90249 0.46479 0.0
H980 H 0.45391 0.61855 0.53762 0.0
H981 H 0.42005 0.6511 0.56509 0.0
H982 H 0.41647 0.57867 0.62205 0.0
H983 H 0.44852 0.54566 0.59344 0.0
H984 H 0.36558 0.6063 0.61542 0.0
H985 H 0.43554 0.69189 0.63158 0.0
H986 H 0.42784 0.68811 0.59611 0.0
H987 H 0.44871 0.65766 0.61549 0.0
C988 C 0.44597 0.6097 0.55611 0.0
C989 C 0.45396 0.57968 0.56355 0.0
C990 C 0.4268 0.62838 0.57196 0.0
C991 C 0.41618 0.6177 0.59616 0.0
C992 C 0.42433 0.58762 0.60357 0.0
H993 H 0.34025 0.72774 0.72464 0.0
H994 H 0.37178 0.69885 0.69283 0.0
C995 C 0.44274 0.56875 0.58728 0.0
C996 C 0.39588 0.6374 0.61338 0.0
H997 H 0.38599 0.70411 0.64423 0.0
C998 C 0.37022 0.6276 0.62188 0.0
C999 C 0.40191 0.66512 0.62219 0.0
C1000 C 0.43015 0.67614 0.61611 0.0
C1001 C 0.35072 0.64437 0.63904 0.0
C1002 C 0.35605 0.6727 0.64679 0.0
C1003 C 0.38157 0.68264 0.63808 0.0
C1004 C 0.33653 0.69162 0.66525 0.0
C1005 C 0.32536 0.63081 0.64953 0.0
C1006 C 0.30615 0.69798 0.6602 0.0
C1007 C 0.28796 0.71381 0.67888 0.0
C1008 C 0.29993 0.72466 0.70237 0.0
C1009 C 0.3304 0.71983 0.7066 0.0
C1010 C 0.34847 0.70325 0.68839 0.0
H1011 H 0.32971 0.60628 0.64889 0.0
H1012 H 0.32058 0.63708 0.67079 0.0
H1013 H 0.30564 0.63854 0.63647 0.0
H1014 H 0.29639 0.69035 0.64202 0.0
H1015 H 0.26454 0.71745 0.67502 0.0
H1016 H 0.57306 0.09465 0.01024 0.0
H1017 H 0.59195 0.13535 0.98714 0.0
H1018 H 0.54554 0.11893 0.91328 0.0
H1019 H 0.52562 0.07934 0.93652 0.0
H1020 H 0.62642 0.13433 0.94711 0.0
H1021 H 0.52434 0.20615 0.91438 0.0
H1022 H 0.52485 0.17594 0.93869 0.0
H1023 H 0.52344 0.16962 0.90264 0.0
C1024 C 0.56673 0.09995 0.98913 0.0
C1025 C 0.54782 0.08394 0.97516 0.0
C1026 C 0.57741 0.12326 0.97601 0.0
C1027 C 0.56957 0.13072 0.94866 0.0
C1028 C 0.55101 0.1144 0.93465 0.0
H1029 H 0.66896 0.18758 0.82421 0.0
H1030 H 0.64619 0.16363 0.86103 0.0
C1031 C 0.53993 0.0915 0.94786 0.0
C1032 C 0.58271 0.15369 0.93392 0.0
H1033 H 0.56661 0.20982 0.8865 0.0
C1034 C 0.61327 0.15125 0.93433 0.0
C1035 C 0.56566 0.1764 0.91781 0.0
C1036 C 0.53275 0.18237 0.91864 0.0
C1037 C 0.62725 0.16934 0.91747 0.0
C1038 C 0.61024 0.18961 0.89901 0.0
C1039 C 0.57968 0.19374 0.90017 0.0
C1040 C 0.62371 0.20454 0.87679 0.0
C1041 C 0.66016 0.16609 0.91928 0.0
C1042 C 0.61742 0.23536 0.87252 0.0
C1043 C 0.63003 0.24894 0.85107 0.0
C1044 C 0.64916 0.23185 0.83392 0.0
C1045 C 0.6548 0.20108 0.83775 0.0
C1046 C 0.64198 0.1875 0.85884 0.0
H1047 H 0.66854 0.15911 0.94018 0.0
H1048 H 0.66962 0.14868 0.90534 0.0
H1049 H 0.66796 0.18705 0.9136 0.0
H1050 H 0.60301 0.24885 0.88589 0.0
H1051 H 0.62538 0.27273 0.84813 0.0
H1052 H 0.01414 0.40562 0.0477 0.0
H1053 H 0.03721 0.36478 0.0781 0.0
H1054 H 0.09716 0.41988 0.10901 0.0
H1055 H 0.07471 0.46053 0.07863 0.0
H1056 H 0.1072 0.34481 0.07923 0.0
H1057 H 0.05441 0.37921 0.17607 0.0
H1058 H 0.0367 0.38834 0.14308 0.0
H1059 H 0.06477 0.40822 0.15489 0.0
C1060 C 0.0321 0.40906 0.06113 0.0
C1061 C 0.04272 0.4362 0.06077 0.0
C1062 C 0.04518 0.38577 0.0784 0.0
C1063 C 0.06862 0.3896 0.09575 0.0
C1064 C 0.0789 0.41676 0.09579 0.0
H1065 H 0.21595 0.32171 0.18352 0.0
H1066 H 0.17685 0.34115 0.1507 0.0
C1067 C 0.06614 0.43986 0.07838 0.0
C1068 C 0.08388 0.36503 0.11298 0.0
H1069 H 0.09955 0.34576 0.17964 0.0
C1070 C 0.10505 0.34436 0.10113 0.0
C1071 C 0.08078 0.36461 0.14143 0.0
C1072 C 0.0578 0.38613 0.15474 0.0
C1073 C 0.12489 0.3247 0.11737 0.0
C1074 C 0.12333 0.32598 0.14593 0.0
C1075 C 0.10061 0.34495 0.15766 0.0
C1076 C 0.14757 0.31157 0.16385 0.0
C1077 C 0.14843 0.30387 0.10402 0.0
C1078 C 0.14388 0.28849 0.18196 0.0
C1079 C 0.16632 0.27712 0.20063 0.0
C1080 C 0.19239 0.28922 0.2017 0.0
C1081 C 0.19607 0.31204 0.1832 0.0
C1082 C 0.17387 0.32303 0.16436 0.0
H1083 H 0.14243 0.30021 0.0825 0.0
H1084 H 0.16895 0.31351 0.10434 0.0
H1085 H 0.15276 0.28223 0.11523 0.0
H1086 H 0.12352 0.27967 0.18194 0.0
H1087 H 0.16289 0.25961 0.21479 0.0
H1088 H 0.64617 0.46944 0.91918 0.0
H1089 H 0.66253 0.49423 0.87936 0.0
H1090 H 0.57375 0.51324 0.84779 0.0
H1091 H 0.55691 0.49243 0.88885 0.0
H1092 H 0.66258 0.49739 0.82606 0.0
H1093 H 0.58732 0.59441 0.86251 0.0
H1094 H 0.59334 0.55946 0.88079 0.0
H1095 H 0.56928 0.56492 0.85111 0.0
C1096 C 0.63021 0.47828 0.90343 0.0
C1097 C 0.60024 0.47889 0.90755 0.0
C1098 C 0.63959 0.49234 0.88058 0.0
C1099 C 0.61916 0.50662 0.86111 0.0
C1100 C 0.58976 0.5033 0.86307 0.0
H1101 H 0.69681 0.61952 0.74381 0.0
H1102 H 0.6694 0.58095 0.75983 0.0
C1103 C 0.5802 0.49047 0.88648 0.0
C1104 C 0.62803 0.52874 0.84189 0.0
H1105 H 0.61724 0.60287 0.82697 0.0
C1106 C 0.65252 0.52043 0.82599 0.0
C1107 C 0.61499 0.55891 0.8421 0.0
C1108 C 0.58998 0.57007 0.86019 0.0
C1109 C 0.66537 0.54161 0.81154 0.0
C1110 C 0.65255 0.57175 0.81219 0.0
C1111 C 0.62696 0.57974 0.82657 0.0
C1112 C 0.66714 0.59587 0.80128 0.0
C1113 C 0.69353 0.53168 0.7973 0.0
C1114 C 0.67365 0.61783 0.81888 0.0
C1115 C 0.68834 0.64019 0.80954 0.0
C1116 C 0.69701 0.64082 0.78253 0.0
C1117 C 0.69014 0.61926 0.76473 0.0
C1118 C 0.67486 0.59716 0.77393 0.0
H1119 H 0.70376 0.50897 0.80392 0.0
H1120 H 0.68898 0.53164 0.77506 0.0
H1121 H 0.70949 0.54692 0.80117 0.0
H1122 H 0.66798 0.61726 0.84009 0.0
H1123 H 0.69401 0.65632 0.82363 0.0
H1124 H 0.71944 0.36308 0.23513 0.0
H1125 H 0.68501 0.40316 0.21316 0.0
H1126 H 0.63059 0.34001 0.18746 0.0
H1127 H 0.66427 0.3002 0.21006 0.0
H1128 H 0.67181 0.4105 0.1616 0.0
H1129 H 0.56978 0.40352 0.21391 0.0
H1130 H 0.60484 0.38558 0.22753 0.0
H1131 H 0.58457 0.36733 0.20313 0.0
C1132 C 0.70003 0.35785 0.22492 0.0
C1133 C 0.69451 0.3286 0.22415 0.0
C1134 C 0.6803 0.38076 0.21263 0.0
C1135 C 0.6549 0.37463 0.19935 0.0
C1136 C 0.64949 0.34538 0.19851 0.0
H1137 H 0.57705 0.42634 0.05113 0.0
H1138 H 0.60689 0.40961 0.09177 0.0
C1139 C 0.66895 0.32259 0.21107 0.0
C1140 C 0.6357 0.39787 0.18342 0.0
H1141 H 0.56399 0.4189 0.16527 0.0
C1142 C 0.64822 0.41305 0.16289 0.0
C1143 C 0.605 0.40199 0.18562 0.0
C1144 C 0.59038 0.38896 0.20901 0.0
C1145 C 0.63074 0.4296 0.14267 0.0
C1146 C 0.6002 0.43002 0.14268 0.0
C1147 C 0.58753 0.41771 0.16488 0.0
C1148 C 0.58161 0.43999 0.11853 0.0
C1149 C 0.64526 0.44536 0.12088 0.0
C1150 C 0.55666 0.46135 0.12054 0.0
C1151 C 0.53919 0.4704 0.09746 0.0
C1152 C 0.54654 0.45821 0.07215 0.0
C1153 C 0.57105 0.4362 0.07039 0.0
C1154 C 0.58827 0.42693 0.09348 0.0
H1155 H 0.66555 0.45248 0.12903 0.0
H1156 H 0.65154 0.42997 0.10419 0.0
H1157 H 0.63048 0.46505 0.11234 0.0
H1158 H 0.55104 0.47137 0.13981 0.0
H1159 H 0.52067 0.4877 0.09929 0.0
H1160 H 0.92395 0.55178 0.37238 0.0
H1161 H 0.90779 0.5332 0.32883 0.0
H1162 H 0.85899 0.47549 0.3727 0.0
H1163 H 0.87551 0.49347 0.41568 0.0
H1164 H 0.92077 0.47526 0.31402 0.0
H1165 H 0.80147 0.50762 0.31187 0.0
H1166 H 0.82542 0.52595 0.33276 0.0
H1167 H 0.81332 0.49258 0.34496 0.0
C1168 C 0.90968 0.53522 0.37247 0.0
C1169 C 0.90136 0.52349 0.39717 0.0
C1170 C 0.90024 0.52491 0.34773 0.0
C1171 C 0.88184 0.50332 0.34754 0.0
C1172 C 0.87253 0.49272 0.37229 0.0
H1173 H 0.87537 0.34181 0.29586 0.0
H1174 H 0.8904 0.3892 0.30587 0.0
C1175 C 0.88208 0.50282 0.39683 0.0
C1176 C 0.8752 0.4885 0.3223 0.0
H1177 H 0.81946 0.45817 0.29411 0.0
C1178 C 0.89855 0.47226 0.30888 0.0
C1179 C 0.84626 0.48523 0.31493 0.0
C1180 C 0.82023 0.50411 0.32673 0.0
C1181 C 0.89382 0.44998 0.29102 0.0
C1182 C 0.86518 0.44353 0.28711 0.0
C1183 C 0.84157 0.46252 0.29759 0.0
C1184 C 0.85966 0.41467 0.27699 0.0
C1185 C 0.91976 0.43244 0.27784 0.0
C1186 C 0.83731 0.41309 0.25752 0.0
C1187 C 0.82844 0.38595 0.25217 0.0
C1188 C 0.84162 0.36015 0.26638 0.0
C1189 C 0.865 0.36148 0.28467 0.0
C1190 C 0.87375 0.38853 0.29014 0.0
H1191 H 0.93614 0.44686 0.27278 0.0
H1192 H 0.93053 0.41491 0.29235 0.0
H1193 H 0.91325 0.42196 0.259 0.0
H1194 H 0.82605 0.43297 0.24723 0.0
H1195 H 0.81085 0.38521 0.23745 0.0
H1196 H 0.60029 0.64807 0.49685 0.0
H1197 H 0.64041 0.66606 0.47304 0.0
H1198 H 0.64661 0.59153 0.42035 0.0
H1199 H 0.6069 0.57371 0.44406 0.0
H1200 H 0.70146 0.60568 0.43589 0.0
H1201 H 0.62359 0.70392 0.39712 0.0
H1202 H 0.62742 0.69935 0.43345 0.0
H1203 H 0.61152 0.67286 0.41405 0.0
C1204 C 0.61069 0.63542 0.48047 0.0
C1205 C 0.60098 0.60932 0.47253 0.0
C1206 C 0.63346 0.64565 0.4669 0.0
C1207 C 0.64633 0.63017 0.44486 0.0
C1208 C 0.6372 0.60361 0.4375 0.0
H1209 H 0.71596 0.67115 0.29695 0.0
H1210 H 0.69629 0.64886 0.33654 0.0
C1211 C 0.61464 0.59334 0.45114 0.0
C1212 C 0.66726 0.6427 0.42761 0.0
H1213 H 0.67104 0.69794 0.38073 0.0
C1214 C 0.69505 0.62611 0.42415 0.0
C1215 C 0.65862 0.66921 0.41212 0.0
C1216 C 0.62861 0.68733 0.41411 0.0
C1217 C 0.71409 0.63495 0.40495 0.0
C1218 C 0.705 0.6609 0.38904 0.0
C1219 C 0.6778 0.67808 0.39322 0.0
C1220 C 0.72176 0.66924 0.36588 0.0
C1221 C 0.7432 0.61603 0.40079 0.0
C1222 C 0.74328 0.68723 0.36948 0.0
C1223 C 0.75469 0.69997 0.34685 0.0
C1224 C 0.74435 0.69512 0.32045 0.0
C1225 C 0.72423 0.67544 0.31701 0.0
C1226 C 0.71301 0.66264 0.33957 0.0
H1227 H 0.74763 0.59708 0.41562 0.0
H1228 H 0.74371 0.6074 0.37989 0.0
H1229 H 0.76093 0.62964 0.40275 0.0
H1230 H 0.75003 0.69267 0.38973 0.0
H1231 H 0.77012 0.7151 0.35014 0.0
H1232 H 0.83118 0.29832 0.79967 0.0
H1233 H 0.84993 0.32748 0.83491 0.0
H1234 H 0.76776 0.33496 0.87535 0.0
H1235 H 0.74883 0.30528 0.8403 0.0
H1236 H 0.82547 0.38556 0.84683 0.0
H1237 H 0.82895 0.30924 0.9371 0.0
H1238 H 0.8261 0.29683 0.90271 0.0
H1239 H 0.79476 0.3171 0.91821 0.0
C1240 C 0.81714 0.30588 0.81619 0.0
C1241 C 0.7885 0.29956 0.81719 0.0
C1242 C 0.82789 0.32255 0.83627 0.0
C1243 C 0.81026 0.33318 0.85774 0.0
C1244 C 0.78182 0.32655 0.85913 0.0
H1245 H 0.8595 0.45361 0.98147 0.0
H1246 H 0.82942 0.42603 0.9528 0.0
C1247 C 0.77103 0.30971 0.83905 0.0
C1248 C 0.82149 0.35243 0.87772 0.0
H1249 H 0.84415 0.35537 0.94402 0.0
C1250 C 0.82931 0.3791 0.86813 0.0
C1251 C 0.82629 0.3439 0.90548 0.0
C1252 C 0.81881 0.31513 0.91659 0.0
C1253 C 0.84268 0.3971 0.88544 0.0
C1254 C 0.84838 0.38809 0.91291 0.0
C1255 C 0.83956 0.36207 0.92286 0.0
C1256 C 0.86601 0.40407 0.93079 0.0
C1257 C 0.85143 0.42526 0.8742 0.0
C1258 C 0.89634 0.4003 0.92795 0.0
C1259 C 0.91337 0.41578 0.94423 0.0
C1260 C 0.90026 0.43557 0.96332 0.0
C1261 C 0.86992 0.43876 0.96658 0.0
C1262 C 0.85284 0.42309 0.95035 0.0
H1263 H 0.84124 0.43157 0.85379 0.0
H1264 H 0.84513 0.44369 0.8882 0.0
H1265 H 0.87553 0.42217 0.87245 0.0
H1266 H 0.9068 0.38531 0.91316 0.0
H1267 H 0.93682 0.41195 0.94217 0.0
H1268 H 0.79546 0.83753 0.21567 0.0
H1269 H 0.80679 0.8677 0.17722 0.0
H1270 H 0.74533 0.83092 0.12616 0.0
H1271 H 0.73394 0.80027 0.16471 0.0
H1272 H 0.79999 0.82512 0.10549 0.0
H1273 H 0.76682 0.94057 0.13489 0.0
H1274 H 0.78687 0.91953 0.16237 0.0
H1275 H 0.75236 0.91015 0.15075 0.0
C1276 C 0.7839 0.83624 0.19643 0.0
C1277 C 0.76396 0.81639 0.19318 0.0
C1278 C 0.79014 0.85378 0.17451 0.0
C1279 C 0.77651 0.85193 0.14895 0.0
C1280 C 0.75579 0.83291 0.14583 0.0
H1281 H 0.87051 0.92905 0.01667 0.0
H1282 H 0.827 0.91344 0.03669 0.0
C1283 C 0.74938 0.81541 0.16785 0.0
C1284 C 0.78743 0.86659 0.12511 0.0
H1285 H 0.81044 0.93117 0.10685 0.0
C1286 C 0.80132 0.84855 0.1051 0.0
C1287 C 0.78893 0.89718 0.12447 0.0
C1288 C 0.77263 0.91798 0.14415 0.0
C1289 C 0.81941 0.85972 0.08641 0.0
C1290 C 0.82355 0.88948 0.08791 0.0
C1291 C 0.80731 0.90824 0.10598 0.0
C1292 C 0.84879 0.89955 0.0753 0.0
C1293 C 0.83619 0.83911 0.06686 0.0
C1294 C 0.87511 0.89667 0.09046 0.0
C1295 C 0.89964 0.90562 0.07925 0.0
C1296 C 0.89821 0.91783 0.05275 0.0
C1297 C 0.87187 0.92045 0.0374 0.0
C1298 C 0.84718 0.9114 0.04868 0.0
H1299 H 0.82781 0.81773 0.06575 0.0
H1300 H 0.83496 0.84962 0.0462 0.0
H1301 H 0.85956 0.8346 0.07354 0.0
H1302 H 0.87665 0.88742 0.11102 0.0
H1303 H 0.9197 0.90343 0.09141 0.0
H1304 H 0.75143 0.16151 0.80115 0.0
H1305 H 0.775 0.11958 0.82976 0.0
H1306 H 0.85962 0.13847 0.8073 0.0
H1307 H 0.8363 0.17981 0.77822 0.0
H1308 H 0.8584 0.07899 0.81102 0.0
H1309 H 0.81109 0.13495 0.9027 0.0
H1310 H 0.78508 0.12699 0.87737 0.0
H1311 H 0.80887 0.15333 0.86975 0.0
C1312 C 0.77505 0.15652 0.80213 0.0
C1313 C 0.79203 0.17426 0.78784 0.0
C1314 C 0.78847 0.13261 0.81852 0.0
C1315 C 0.81905 0.12639 0.82118 0.0
C1316 C 0.83598 0.14298 0.80565 0.0
H1317 H 0.96022 0.05454 0.92201 0.0
H1318 H 0.92565 0.07353 0.88516 0.0
C1319 C 0.82261 0.16664 0.78905 0.0
C1320 C 0.83373 0.10418 0.84148 0.0
H1321 H 0.84425 0.09123 0.90993 0.0
C1322 C 0.855 0.08139 0.83263 0.0
C1323 C 0.82923 0.10733 0.8697 0.0
C1324 C 0.80752 0.13206 0.88058 0.0
C1325 C 0.87275 0.06248 0.85129 0.0
C1326 C 0.86914 0.06659 0.87942 0.0
C1327 C 0.84678 0.08816 0.88828 0.0
C1328 C 0.89073 0.05173 0.89992 0.0
C1329 C 0.89585 0.03887 0.84083 0.0
C1330 C 0.88246 0.03321 0.92044 0.0
C1331 C 0.90228 0.02217 0.94157 0.0
C1332 C 0.93039 0.03006 0.94268 0.0
C1333 C 0.9387 0.04814 0.92176 0.0
C1334 C 0.91906 0.05881 0.90056 0.0
H1335 H 0.89054 0.03301 0.8197 0.0
H1336 H 0.91708 0.04719 0.84077 0.0
H1337 H 0.89847 0.0186 0.85408 0.0
H1338 H 0.86052 0.02784 0.92041 0.0
H1339 H 0.89526 0.00839 0.9575 0.0
H1340 H 0.75722 0.21477 0.66028 0.0
H1341 H 0.7361 0.19177 0.62167 0.0
H1342 H 0.65647 0.19153 0.66503 0.0
H1343 H 0.67715 0.21463 0.7035 0.0
H1344 H 0.71631 0.13728 0.62296 0.0
H1345 H 0.62706 0.22704 0.59033 0.0
H1346 H 0.65751 0.23323 0.61192 0.0
H1347 H 0.62711 0.21876 0.62616 0.0
C1348 C 0.73514 0.20999 0.66151 0.0
C1349 C 0.71884 0.21648 0.68494 0.0
C1350 C 0.72312 0.19695 0.63942 0.0
C1351 C 0.69458 0.19052 0.64036 0.0
C1352 C 0.67829 0.19702 0.66368 0.0
H1353 H 0.57839 0.08751 0.5761 0.0
H1354 H 0.60522 0.12278 0.59791 0.0
C1355 C 0.69025 0.20997 0.68574 0.0
C1356 C 0.68231 0.17499 0.61796 0.0
H1357 H 0.62155 0.17783 0.57682 0.0
C1358 C 0.69595 0.14632 0.61235 0.0
C1359 C 0.65585 0.18702 0.60413 0.0
C1360 C 0.64119 0.21833 0.60823 0.0
C1361 C 0.68265 0.12848 0.59471 0.0
C1362 C 0.65528 0.13991 0.58221 0.0
C1363 C 0.6425 0.16918 0.58658 0.0
C1364 C 0.63804 0.12076 0.56724 0.0
C1365 C 0.69702 0.09698 0.59093 0.0
C1366 C 0.64744 0.10837 0.54259 0.0
C1367 C 0.63189 0.08841 0.52995 0.0
C1368 C 0.60663 0.08093 0.54165 0.0
C1369 C 0.59711 0.09375 0.56612 0.0
C1370 C 0.61257 0.11366 0.57871 0.0
H1371 H 0.71623 0.09042 0.60497 0.0
H1372 H 0.68116 0.08154 0.59431 0.0
H1373 H 0.70449 0.09448 0.56975 0.0
H1374 H 0.667 0.11376 0.53341 0.0
H1375 H 0.63968 0.07855 0.51119 0.0
H1376 H 0.58849 0.97266 0.45237 0.0
H1377 H 0.61744 0.94395 0.41862 0.0
H1378 H 0.54324 0.90284 0.39574 0.0
H1379 H 0.51391 0.93151 0.42959 0.0
H1380 H 0.62626 0.87887 0.4183 0.0
H1381 H 0.57541 0.93323 0.32243 0.0
H1382 H 0.57262 0.95139 0.35468 0.0
H1383 H 0.55131 0.92282 0.34778 0.0
C1384 C 0.57817 0.95771 0.44004 0.0
C1385 C 0.54887 0.95435 0.44368 0.0
C1386 C 0.59477 0.94135 0.42078 0.0
C1387 C 0.58235 0.92155 0.40463 0.0
C1388 C 0.55303 0.91835 0.40784 0.0
H1389 H 0.65869 0.80043 0.28302 0.0
H1390 H 0.62505 0.83125 0.31203 0.0
C1391 C 0.53638 0.93464 0.42725 0.0
C1392 C 0.60075 0.90309 0.38555 0.0
H1393 H 0.61291 0.89245 0.31816 0.0
C1394 C 0.62338 0.88178 0.3964 0.0
C1395 C 0.59665 0.90692 0.35708 0.0
C1396 C 0.57282 0.92992 0.34462 0.0
C1397 C 0.64218 0.86407 0.37945 0.0
C1398 C 0.63864 0.86839 0.35092 0.0
C1399 C 0.61565 0.88938 0.34005 0.0
C1400 C 0.65874 0.85132 0.33214 0.0
C1401 C 0.66539 0.8406 0.39225 0.0
C1402 C 0.68868 0.85309 0.33334 0.0
C1403 C 0.70797 0.83545 0.31693 0.0
C1404 C 0.69759 0.81594 0.29882 0.0
C1405 C 0.66739 0.81517 0.29683 0.0
C1406 C 0.64813 0.83275 0.31336 0.0
H1407 H 0.66009 0.83473 0.41338 0.0
H1408 H 0.66818 0.82023 0.38018 0.0
H1409 H 0.68655 0.84905 0.39305 0.0
H1410 H 0.69718 0.86783 0.34728 0.0
H1411 H 0.73104 0.83682 0.31871 0.0
H1412 H 0.78756 0.15916 0.28249 0.0
H1413 H 0.82399 0.11726 0.29811 0.0
H1414 H 0.86748 0.17581 0.34634 0.0
H1415 H 0.83193 0.21799 0.32957 0.0
H1416 H 0.90574 0.13731 0.31987 0.0
H1417 H 0.82563 0.07751 0.37136 0.0
H1418 H 0.81968 0.08434 0.33544 0.0
H1419 H 0.81574 0.11483 0.35812 0.0
C1420 C 0.80472 0.16294 0.2967 0.0
C1421 C 0.80678 0.19156 0.30535 0.0
C1422 C 0.82551 0.13905 0.30551 0.0
C1423 C 0.84809 0.1434 0.32368 0.0
C1424 C 0.85018 0.17204 0.33225 0.0
H1425 H 0.9332 0.06533 0.45654 0.0
H1426 H 0.90219 0.08636 0.41823 0.0
C1427 C 0.82982 0.19603 0.32291 0.0
C1428 C 0.86932 0.11831 0.33467 0.0
H1429 H 0.87505 0.05888 0.37846 0.0
C1430 C 0.89916 0.11981 0.33237 0.0
C1431 C 0.86045 0.09533 0.35053 0.0
C1432 C 0.82867 0.09288 0.35424 0.0
C1433 C 0.92031 0.10081 0.34779 0.0
C1434 C 0.91121 0.07925 0.36518 0.0
C1435 C 0.88173 0.07565 0.36513 0.0
C1436 C 0.93027 0.06495 0.38763 0.0
C1437 C 0.95175 0.10568 0.34718 0.0
C1438 C 0.95642 0.04605 0.38304 0.0
C1439 C 0.9746 0.03438 0.40504 0.0
C1440 C 0.96646 0.04111 0.43179 0.0
C1441 C 0.94003 0.05967 0.43618 0.0
C1442 C 0.92221 0.07158 0.41432 0.0
H1443 H 0.95442 0.12569 0.33491 0.0
H1444 H 0.96044 0.10799 0.36813 0.0
H1445 H 0.96519 0.0863 0.33821 0.0
H1446 H 0.96277 0.04042 0.36256 0.0
H1447 H 0.99482 0.02002 0.40111 0.0
H1448 H 0.62523 0.18107 0.23629 0.0
H1449 H 0.6109 0.13421 0.22348 0.0
H1450 H 0.67663 0.0875 0.27929 0.0
H1451 H 0.69106 0.1348 0.29199 0.0
H1452 H 0.68372 0.06702 0.2304 0.0
H1453 H 0.56758 0.07178 0.25153 0.0
H1454 H 0.57187 0.10587 0.2348 0.0
H1455 H 0.58956 0.09613 0.26762 0.0
C1456 C 0.63599 0.16085 0.24636 0.0
C1457 C 0.65962 0.16131 0.26458 0.0
C1458 C 0.62764 0.13406 0.23927 0.0
C1459 C 0.64243 0.10727 0.25068 0.0
C1460 C 0.66484 0.10789 0.27031 0.0
H1461 H 0.58454 0.97662 0.14262 0.0
H1462 H 0.5994 0.99187 0.18791 0.0
C1463 C 0.67327 0.13479 0.27733 0.0
C1464 C 0.63785 0.07917 0.23825 0.0
H1465 H 0.58346 0.04842 0.20784 0.0
C1466 C 0.66187 0.06222 0.22631 0.0
C1467 C 0.60956 0.07213 0.23344 0.0
C1468 C 0.5833 0.08732 0.24786 0.0
C1469 C 0.65784 0.04133 0.20683 0.0
C1470 C 0.62913 0.03784 0.19885 0.0
C1471 C 0.60548 0.05168 0.2135 0.0
C1472 C 0.6229 0.02557 0.17222 0.0
C1473 C 0.68423 0.02485 0.19347 0.0
C1474 C 0.63119 0.03949 0.14861 0.0
C1475 C 0.62226 0.03131 0.12308 0.0
C1476 C 0.60464 0.00926 0.12065 0.0
C1477 C 0.59731 0.99438 0.14416 0.0
C1478 C 0.6061 0.00276 0.16989 0.0
H1479 H 0.70327 0.02072 0.208 0.0
H1480 H 0.67986 0.00339 0.18563 0.0
H1481 H 0.69023 0.0385 0.1762 0.0
H1482 H 0.64353 0.05764 0.14994 0.0
H1483 H 0.62808 0.04306 0.10519 0.0
H1484 H 0.67733 0.76573 0.83214 0.0
H1485 H 0.64435 0.79345 0.86415 0.0
H1486 H 0.69252 0.8664 0.858 0.0
H1487 H 0.72526 0.83923 0.82616 0.0
H1488 H 0.65634 0.82082 0.91543 0.0
H1489 H 0.60709 0.90216 0.83542 0.0
H1490 H 0.62816 0.8669 0.82767 0.0
H1491 H 0.64631 0.89713 0.83741 0.0
C1492 C 0.68104 0.78755 0.83783 0.0
C1493 C 0.70376 0.80036 0.82639 0.0
C1494 C 0.66218 0.80335 0.85607 0.0
C1495 C 0.66574 0.83215 0.86301 0.0
C1496 C 0.6891 0.84441 0.8525 0.0
H1497 H 0.60119 0.94935 0.98927 0.0
H1498 H 0.62902 0.91263 0.96082 0.0
C1499 C 0.70786 0.82876 0.83435 0.0
C1500 C 0.64476 0.85002 0.88061 0.0
H1501 H 0.59747 0.91507 0.88129 0.0
C1502 C 0.6432 0.84128 0.90797 0.0
C1503 C 0.62736 0.87646 0.87068 0.0
C1504 C 0.62702 0.88615 0.84112 0.0
C1505 C 0.62552 0.85897 0.92598 0.0
C1506 C 0.60937 0.88624 0.91636 0.0
C1507 C 0.61008 0.89432 0.88873 0.0
C1508 C 0.59214 0.90719 0.9346 0.0
C1509 C 0.62428 0.84828 0.9551 0.0
C1510 C 0.56227 0.9168 0.92902 0.0
C1511 C 0.54636 0.93801 0.94507 0.0
C1512 C 0.56006 0.95019 0.96694 0.0
C1513 C 0.58994 0.94033 0.97265 0.0
C1514 C 0.60585 0.91916 0.95653 0.0
H1515 H 0.63046 0.82388 0.95716 0.0
H1516 H 0.63994 0.85844 0.96781 0.0
H1517 H 0.60209 0.85466 0.96317 0.0
H1518 H 0.55128 0.90795 0.91212 0.0
H1519 H 0.52333 0.94484 0.9403 0.0
H1520 H 0.87995 0.02456 0.5758 0.0
H1521 H 0.858 0.0056 0.61601 0.0
H1522 H 0.93843 0.00608 0.66218 0.0
H1523 H 0.96049 0.02406 0.62151 0.0
H1524 H 0.92356 0.95396 0.66462 0.0
H1525 H 0.82572 0.03366 0.68683 0.0
H1526 H 0.82497 0.02472 0.65161 0.0
H1527 H 0.8537 0.04318 0.66492 0.0
C1528 C 0.89244 0.02142 0.59484 0.0
C1529 C 0.92176 0.02542 0.59583 0.0
C1530 C 0.87993 0.01082 0.61784 0.0
C1531 C 0.89646 0.00472 0.64226 0.0
C1532 C 0.92524 0.01071 0.64362 0.0
H1533 H 0.80823 0.91481 0.76861 0.0
H1534 H 0.83613 0.95092 0.74845 0.0
C1535 C 0.93783 0.0209 0.62051 0.0
C1536 C 0.88539 0.9877 0.66458 0.0
H1537 H 0.82407 0.98202 0.69986 0.0
C1538 C 0.90209 0.9605 0.67283 0.0
C1539 C 0.85763 0.99632 0.67572 0.0
C1540 C 0.83968 0.02625 0.6695 0.0
C1541 C 0.89086 0.94076 0.69025 0.0
C1542 C 0.86194 0.9481 0.69906 0.0
C1543 C 0.84609 0.97622 0.69263 0.0
C1544 C 0.84679 0.92582 0.71237 0.0
C1545 C 0.90976 0.9118 0.69832 0.0
C1546 C 0.84338 0.90005 0.69861 0.0
C1547 C 0.82764 0.87959 0.71005 0.0
C1548 C 0.81502 0.88452 0.73546 0.0
C1549 C 0.81823 0.91042 0.74917 0.0
C1550 C 0.83405 0.93096 0.73771 0.0
H1551 H 0.93333 0.91384 0.69815 0.0
H1552 H 0.90456 0.90396 0.71888 0.0
H1553 H 0.90599 0.89484 0.68347 0.0
H1554 H 0.85217 0.89618 0.6786 0.0
H1555 H 0.82436 0.86052 0.69851 0.0
H1556 H 0.23136 0.81845 0.8506 0.0
H1557 H 0.19796 0.84648 0.88171 0.0
H1558 H 0.12882 0.80023 0.85467 0.0
H1559 H 0.16201 0.77208 0.82343 0.0
H1560 H 0.11504 0.86316 0.85157 0.0
H1561 H 0.1612 0.82231 0.95324 0.0
H1562 H 0.18726 0.8329 0.92999 0.0
H1563 H 0.16925 0.80191 0.92264 0.0
C1564 C 0.20921 0.81381 0.85162 0.0
C1565 C 0.19935 0.79304 0.83449 0.0
C1566 C 0.19018 0.82979 0.8695 0.0
C1567 C 0.16099 0.82528 0.8706 0.0
C1568 C 0.15132 0.80393 0.85418 0.0
H1569 H 0.02863 0.90733 0.97981 0.0
H1570 H 0.06127 0.8722 0.95343 0.0
C1571 C 0.17036 0.78781 0.8364 0.0
C1572 C 0.13999 0.84459 0.88712 0.0
H1573 H 0.12523 0.86562 0.95208 0.0
C1574 C 0.11714 0.86357 0.87356 0.0
C1575 C 0.14272 0.84494 0.91579 0.0
C1576 C 0.16627 0.82427 0.93138 0.0
C1577 C 0.09732 0.88342 0.88788 0.0
C1578 C 0.10058 0.88442 0.91646 0.0
C1579 C 0.12297 0.86494 0.93012 0.0
C1580 C 0.08099 0.90573 0.93247 0.0
C1581 C 0.07296 0.90314 0.87235 0.0
C1582 C 0.08146 0.93618 0.92951 0.0
C1583 C 0.06293 0.95631 0.94457 0.0
C1584 C 0.04356 0.94632 0.96287 0.0
C1585 C 0.04319 0.91576 0.9658 0.0
C1586 C 0.06188 0.89564 0.95084 0.0
H1587 H 0.06965 0.89527 0.85149 0.0
H1588 H 0.05212 0.90439 0.88323 0.0
H1589 H 0.07843 0.92582 0.87062 0.0
H1590 H 0.09627 0.94436 0.9156 0.0
H1591 H 0.06364 0.97967 0.94171 0.0
H1592 H 0.98785 0.43468 0.57043 0.0
H1593 H 0.96575 0.39505 0.59116 0.0
H1594 H 0.89377 0.4121 0.53268 0.0
H1595 H 0.91569 0.45215 0.51175 0.0
H1596 H 0.87699 0.40897 0.58665 0.0
H1597 H 0.95955 0.31244 0.56344 0.0
H1598 H 0.97544 0.34174 0.57845 0.0
H1599 H 0.95713 0.34773 0.54563 0.0
C1600 C 0.96741 0.42994 0.56181 0.0
C1601 C 0.95351 0.44654 0.53943 0.0
C1602 C 0.95496 0.40708 0.57354 0.0
C1603 C 0.92849 0.4003 0.56306 0.0
C1604 C 0.91443 0.41684 0.5408 0.0
H1605 H 0.8463 0.25846 0.63844 0.0
H1606 H 0.86516 0.2888 0.60304 0.0
C1607 C 0.92692 0.43973 0.52896 0.0
C1608 C 0.91459 0.37743 0.5769 0.0
H1609 H 0.92798 0.30582 0.60063 0.0
C1610 C 0.88782 0.38627 0.58925 0.0
C1611 C 0.92867 0.34778 0.58003 0.0
C1612 C 0.95665 0.33675 0.56595 0.0
C1613 C 0.8757 0.36665 0.60613 0.0
C1614 C 0.89086 0.33767 0.61078 0.0
C1615 C 0.91666 0.32822 0.59714 0.0
C1616 C 0.88141 0.31794 0.63162 0.0
C1617 C 0.84729 0.37728 0.61968 0.0
C1618 C 0.88514 0.324 0.65916 0.0
C1619 C 0.87446 0.30686 0.67914 0.0
C1620 C 0.85977 0.28358 0.67184 0.0
C1621 C 0.85709 0.27673 0.64433 0.0
C1622 C 0.86793 0.29384 0.62425 0.0
H1623 H 0.83537 0.39785 0.60971 0.0
H1624 H 0.83295 0.36001 0.61936 0.0
H1625 H 0.8519 0.38192 0.64127 0.0
H1626 H 0.89573 0.34242 0.66511 0.0
H1627 H 0.87665 0.31243 0.70029 0.0
H1628 H 0.50119 0.1005 0.46562 0.0
H1629 H 0.4786 0.14376 0.43807 0.0
H1630 H 0.4128 0.09476 0.4082 0.0
H1631 H 0.43501 0.05147 0.43565 0.0
H1632 H 0.44543 0.13221 0.36793 0.0
H1633 H 0.39147 0.18902 0.45664 0.0
H1634 H 0.42929 0.17193 0.45928 0.0
H1635 H 0.40122 0.14927 0.45684 0.0
C1636 C 0.48206 0.09884 0.45298 0.0
C1637 C 0.46975 0.07263 0.45287 0.0
C1638 C 0.46924 0.12356 0.43735 0.0
C1639 C 0.44411 0.12228 0.42132 0.0
C1640 C 0.43226 0.09598 0.42053 0.0
H1641 H 0.29686 0.20424 0.34233 0.0
H1642 H 0.33679 0.18094 0.37257 0.0
C1643 C 0.44491 0.07135 0.43625 0.0
C1644 C 0.42905 0.14856 0.40609 0.0
H1645 H 0.37559 0.2079 0.41298 0.0
C1646 C 0.43074 0.14932 0.37771 0.0
C1647 C 0.41001 0.17062 0.41914 0.0
C1648 C 0.40767 0.17042 0.44966 0.0
C1649 C 0.41236 0.17069 0.3618 0.0
C1650 C 0.39191 0.19158 0.37478 0.0
C1651 C 0.39154 0.19193 0.40324 0.0
C1652 C 0.36733 0.20903 0.35917 0.0
C1653 C 0.41327 0.16947 0.33121 0.0
C1654 C 0.37124 0.23306 0.34224 0.0
C1655 C 0.34831 0.24661 0.32496 0.0
C1656 C 0.32146 0.23594 0.32431 0.0
C1657 C 0.31738 0.21275 0.34224 0.0
C1658 C 0.34009 0.19951 0.3596 0.0
H1659 H 0.43002 0.15129 0.32434 0.0
H1660 H 0.39158 0.1663 0.32272 0.0
H1661 H 0.41821 0.19073 0.32273 0.0
H1662 H 0.39221 0.24063 0.34176 0.0
H1663 H 0.35201 0.26444 0.31128 0.0
H1664 H 0.58338 0.55407 0.01786 0.0
H1665 H 0.60723 0.58902 0.04371 0.0
H1666 H 0.5231 0.6334 0.0677 0.0
H1667 H 0.49914 0.59797 0.04268 0.0
H1668 H 0.60498 0.6494 0.045 0.0
H1669 H 0.56294 0.60653 0.14019 0.0
H1670 H 0.5602 0.58891 0.10806 0.0
H1671 H 0.5347 0.62127 0.11576 0.0
C1672 C 0.56992 0.57157 0.02826 0.0
C1673 C 0.53941 0.57301 0.02861 0.0
C1674 C 0.58359 0.59152 0.04303 0.0
C1675 C 0.56697 0.61329 0.0582 0.0
C1676 C 0.53637 0.61622 0.05676 0.0
H1677 H 0.61468 0.7343 0.17878 0.0
H1678 H 0.58934 0.71125 0.14268 0.0
C1679 C 0.52271 0.59608 0.04232 0.0
C1680 C 0.58168 0.6314 0.07706 0.0
H1681 H 0.58855 0.64695 0.14423 0.0
C1682 C 0.60138 0.64892 0.06668 0.0
C1683 C 0.57718 0.63046 0.10541 0.0
C1684 C 0.55785 0.61057 0.1181 0.0
C1685 C 0.61644 0.66579 0.08394 0.0
C1686 C 0.61165 0.66499 0.11216 0.0
C1687 C 0.59188 0.64766 0.12249 0.0
C1688 C 0.62766 0.68105 0.13167 0.0
C1689 C 0.63724 0.68446 0.07198 0.0
C1690 C 0.65749 0.67156 0.13741 0.0
C1691 C 0.67187 0.68445 0.15817 0.0
C1692 C 0.65669 0.70727 0.17332 0.0
C1693 C 0.6269 0.71696 0.16722 0.0
C1694 C 0.61248 0.70392 0.14661 0.0
H1695 H 0.63446 0.68699 0.04951 0.0
H1696 H 0.63402 0.70672 0.08092 0.0
H1697 H 0.66003 0.67385 0.07692 0.0
H1698 H 0.66935 0.65337 0.12657 0.0
H1699 H 0.69445 0.67562 0.16312 0.0
H1700 H 0.11891 0.26583 0.64736 0.0
H1701 H 0.09538 0.24244 0.6102 0.0
H1702 H 0.16893 0.17204 0.61039 0.0
H1703 H 0.19199 0.1947 0.64785 0.0
H1704 H 0.13894 0.199 0.55414 0.0
H1705 H 0.06905 0.15855 0.63282 0.0
H1706 H 0.07318 0.197 0.63225 0.0
H1707 H 0.10388 0.16933 0.64153 0.0
C1708 C 0.13029 0.24574 0.63897 0.0
C1709 C 0.15755 0.23245 0.65012 0.0
C1710 C 0.11692 0.2325 0.61778 0.0
C1711 C 0.13059 0.20569 0.60753 0.0
C1712 C 0.15832 0.19301 0.61778 0.0
H1713 H 0.09542 0.06581 0.5059 0.0
H1714 H 0.11647 0.10611 0.52623 0.0
C1715 C 0.17162 0.20615 0.63904 0.0
C1716 C 0.11454 0.18884 0.58879 0.0
H1717 H 0.06371 0.14266 0.58848 0.0
C1718 C 0.12225 0.18688 0.56145 0.0
C1719 C 0.09282 0.1732 0.59851 0.0
C1720 C 0.08417 0.17436 0.62789 0.0
C1721 C 0.10881 0.16933 0.5435 0.0
C1722 C 0.08777 0.15279 0.55348 0.0
C1723 C 0.07972 0.15541 0.58075 0.0
C1724 C 0.07489 0.1312 0.53684 0.0
C1725 C 0.11718 0.16883 0.51408 0.0
C1726 C 0.0445 0.13184 0.53587 0.0
C1727 C 0.03249 0.10848 0.52484 0.0
C1728 C 0.05064 0.08416 0.5143 0.0
C1729 C 0.08088 0.0844 0.51367 0.0
C1730 C 0.09294 0.10756 0.52513 0.0
H1731 H 0.12493 0.18965 0.5078 0.0
H1732 H 0.13536 0.15036 0.51135 0.0
H1733 H 0.09856 0.1656 0.50044 0.0
H1734 H 0.03013 0.1498 0.5448 0.0
H1735 H 0.00908 0.10897 0.52548 0.0
H1736 H 0.68353 0.27514 0.34233 0.0
H1737 H 0.65418 0.30771 0.37339 0.0
H1738 H 0.71266 0.37156 0.36505 0.0
H1739 H 0.74227 0.33916 0.33401 0.0
H1740 H 0.67106 0.33729 0.42428 0.0
H1741 H 0.62857 0.41385 0.33776 0.0
H1742 H 0.64536 0.3761 0.33289 0.0
H1743 H 0.6676 0.40353 0.34116 0.0
C1744 C 0.69049 0.29587 0.34747 0.0
C1745 C 0.71518 0.30461 0.33555 0.0
C1746 C 0.67367 0.31444 0.36521 0.0
C1747 C 0.68106 0.34216 0.37117 0.0
C1748 C 0.70647 0.35034 0.36045 0.0
H1749 H 0.58781 0.49563 0.44891 0.0
H1750 H 0.62197 0.46089 0.42391 0.0
C1751 C 0.72344 0.33171 0.34284 0.0
C1752 C 0.66119 0.36319 0.38723 0.0
H1753 H 0.61275 0.42751 0.3814 0.0
C1754 C 0.65829 0.35705 0.41499 0.0
C1755 C 0.64462 0.3889 0.37497 0.0
C1756 C 0.6464 0.39606 0.34502 0.0
C1757 C 0.63951 0.37625 0.43098 0.0
C1758 C 0.62261 0.40183 0.41864 0.0
C1759 C 0.62564 0.40792 0.39085 0.0
C1760 C 0.6018 0.42273 0.43415 0.0
C1761 C 0.6385 0.36928 0.46103 0.0
C1762 C 0.57868 0.41302 0.44784 0.0
C1763 C 0.55925 0.43285 0.46244 0.0
C1764 C 0.56236 0.46287 0.46341 0.0
C1765 C 0.58503 0.47264 0.44902 0.0
C1766 C 0.60454 0.45279 0.43458 0.0
H1767 H 0.65845 0.35426 0.46852 0.0
H1768 H 0.6362 0.38974 0.47297 0.0
H1769 H 0.61942 0.35804 0.46491 0.0
H1770 H 0.57557 0.39012 0.44716 0.0
H1771 H 0.54192 0.42457 0.4731 0.0
H1772 H 0.51158 0.93757 0.08376 0.0
H1773 H 0.4901 0.89995 0.1086 0.0
H1774 H 0.41354 0.91674 0.05539 0.0
H1775 H 0.43508 0.95406 0.03004 0.0
H1776 H 0.43961 0.90962 0.13617 0.0
H1777 H 0.43218 0.82675 0.05707 0.0
H1778 H 0.45447 0.85553 0.05363 0.0
H1779 H 0.41575 0.8635 0.04646 0.0
C1780 C 0.4903 0.93307 0.07713 0.0
C1781 C 0.47501 0.9488 0.05493 0.0
C1782 C 0.4781 0.91153 0.09133 0.0
C1783 C 0.45046 0.90528 0.08357 0.0
C1784 C 0.43521 0.92075 0.06129 0.0
H1785 H 0.32609 0.83779 0.18265 0.0
H1786 H 0.35369 0.86594 0.15296 0.0
C1787 C 0.44745 0.94224 0.04698 0.0
C1788 C 0.43661 0.88431 0.10014 0.0
H1789 H 0.40443 0.82233 0.09698 0.0
C1790 C 0.43218 0.89037 0.12766 0.0
C1791 C 0.42727 0.85905 0.08905 0.0
C1792 C 0.4329 0.8506 0.05999 0.0
C1793 C 0.41777 0.87238 0.14421 0.0
C1794 C 0.40709 0.84803 0.13277 0.0
C1795 C 0.41239 0.84128 0.10552 0.0
C1796 C 0.38949 0.83003 0.14871 0.0
C1797 C 0.41398 0.87965 0.17379 0.0
C1798 C 0.40015 0.8003 0.1554 0.0
C1799 C 0.38413 0.78404 0.17205 0.0
C1800 C 0.3571 0.7972 0.18179 0.0
C1801 C 0.34632 0.82682 0.17462 0.0
C1802 C 0.36228 0.84303 0.15804 0.0
H1803 H 0.42979 0.89388 0.18095 0.0
H1804 H 0.3916 0.89176 0.17649 0.0
H1805 H 0.41678 0.8592 0.18681 0.0
H1806 H 0.42116 0.78997 0.14834 0.0
H1807 H 0.3929 0.7613 0.1776 0.0
H1808 H 0.00495 0.60407 0.96294 0.0
H1809 H 0.98313 0.64584 0.93321 0.0
H1810 H 0.91703 0.59593 0.90573 0.0
H1811 H 0.93851 0.55411 0.93532 0.0
H1812 H 0.94961 0.62928 0.86357 0.0
H1813 H 0.89773 0.69459 0.94874 0.0
H1814 H 0.93547 0.67739 0.95188 0.0
H1815 H 0.90719 0.65485 0.95175 0.0
C1816 C 0.98587 0.60191 0.95043 0.0
C1817 C 0.97332 0.57586 0.95154 0.0
C1818 C 0.97349 0.62578 0.93353 0.0
C1819 C 0.94855 0.62381 0.91747 0.0
C1820 C 0.93637 0.59768 0.91805 0.0
H1821 H 0.80251 0.70056 0.8352 0.0
H1822 H 0.84334 0.67771 0.86455 0.0
C1823 C 0.94858 0.5739 0.93501 0.0
C1824 C 0.93409 0.6492 0.9007 0.0
H1825 H 0.8821 0.71038 0.90422 0.0
C1826 C 0.93548 0.64756 0.87235 0.0
C1827 C 0.91577 0.67284 0.91244 0.0
C1828 C 0.91373 0.67526 0.94287 0.0
C1829 C 0.91743 0.66806 0.85532 0.0
C1830 C 0.89759 0.69043 0.8671 0.0
C1831 C 0.89762 0.69325 0.8954 0.0
C1832 C 0.87288 0.70674 0.85089 0.0
C1833 C 0.9179 0.66437 0.82495 0.0
C1834 C 0.87607 0.73093 0.83388 0.0
C1835 C 0.85261 0.74424 0.81705 0.0
C1836 C 0.82596 0.73317 0.81697 0.0
C1837 C 0.82283 0.70943 0.83464 0.0
C1838 C 0.84605 0.69643 0.85151 0.0
H1839 H 0.93546 0.64651 0.81895 0.0
H1840 H 0.89653 0.65909 0.81754 0.0
H1841 H 0.92117 0.68539 0.81469 0.0
H1842 H 0.89677 0.73904 0.83323 0.0
H1843 H 0.85558 0.7625 0.80358 0.0
H1844 H 0.41215 0.55994 0.1118 0.0
H1845 H 0.3946 0.54434 0.15596 0.0
H1846 H 0.36123 0.47258 0.11714 0.0
H1847 H 0.37963 0.48727 0.07368 0.0
H1848 H 0.32364 0.51296 0.15963 0.0
H1849 H 0.43557 0.45677 0.19068 0.0
H1850 H 0.4294 0.49361 0.17552 0.0
H1851 H 0.42567 0.46254 0.15502 0.0
C1852 C 0.40106 0.54087 0.1129 0.0
C1853 C 0.39776 0.52431 0.08966 0.0
C1854 C 0.39089 0.53219 0.13792 0.0
C1855 C 0.3769 0.50723 0.13963 0.0
C1856 C 0.372 0.49191 0.1161 0.0
H1857 H 0.33179 0.36217 0.20869 0.0
H1858 H 0.35533 0.40164 0.18958 0.0
C1859 C 0.38237 0.50035 0.09133 0.0
C1860 C 0.36907 0.49502 0.16587 0.0
H1861 H 0.39586 0.44004 0.21192 0.0
C1862 C 0.33943 0.49784 0.17187 0.0
C1863 C 0.38989 0.47524 0.18145 0.0
C1864 C 0.42199 0.47171 0.17555 0.0
C1865 C 0.32971 0.4794 0.19164 0.0
C1866 C 0.35032 0.45779 0.20561 0.0
C1867 C 0.38021 0.45673 0.20118 0.0
C1868 C 0.34081 0.43287 0.22059 0.0
C1869 C 0.29731 0.48128 0.19564 0.0
C1870 C 0.32573 0.43712 0.24484 0.0
C1871 C 0.31255 0.41435 0.256 0.0
C1872 C 0.31445 0.38705 0.24315 0.0
C1873 C 0.33082 0.38249 0.21961 0.0
C1874 C 0.34404 0.40516 0.20853 0.0
H1875 H 0.28414 0.498 0.18173 0.0
H1876 H 0.2905 0.45945 0.19218 0.0
H1877 H 0.29223 0.48731 0.21689 0.0
H1878 H 0.3231 0.45837 0.25443 0.0
H1879 H 0.29986 0.41839 0.27408 0.0
H1880 H 0.48751 0.51509 0.90348 0.0
H1881 H 0.45618 0.53362 0.86379 0.0
H1882 H 0.39888 0.58908 0.9159 0.0
H1883 H 0.42933 0.5703 0.95537 0.0
H1884 H 0.37057 0.55329 0.88025 0.0
H1885 H 0.44654 0.61735 0.82737 0.0
H1886 H 0.45817 0.57888 0.83638 0.0
H1887 H 0.4531 0.60562 0.86255 0.0
C1888 C 0.46838 0.53145 0.90633 0.0
C1889 C 0.46068 0.54118 0.93246 0.0
C1890 C 0.45055 0.54191 0.88371 0.0
C1891 C 0.42522 0.56245 0.8871 0.0
C1892 C 0.41819 0.57288 0.91303 0.0
H1893 H 0.32489 0.7103 0.83405 0.0
H1894 H 0.35986 0.6671 0.84893 0.0
C1895 C 0.43568 0.56228 0.93551 0.0
C1896 C 0.4054 0.57385 0.86417 0.0
H1897 H 0.39657 0.6299 0.81668 0.0
C1898 C 0.3762 0.56945 0.86565 0.0
C1899 C 0.41321 0.59446 0.84509 0.0
C1900 C 0.44441 0.59956 0.84258 0.0
C1901 C 0.35394 0.58803 0.85115 0.0
C1902 C 0.36149 0.61083 0.83424 0.0
C1903 C 0.39102 0.61258 0.83005 0.0
C1904 C 0.33962 0.63622 0.82511 0.0
C1905 C 0.32254 0.58508 0.85625 0.0
C1906 C 0.31632 0.63291 0.80737 0.0
C1907 C 0.29585 0.6575 0.79942 0.0
C1908 C 0.29888 0.68571 0.80867 0.0
C1909 C 0.32204 0.68882 0.82667 0.0
C1910 C 0.34214 0.66423 0.83494 0.0
H1911 H 0.32059 0.5685 0.87267 0.0
H1912 H 0.31002 0.60666 0.86191 0.0
H1913 H 0.31227 0.57805 0.83739 0.0
H1914 H 0.31423 0.61151 0.79935 0.0
H1915 H 0.27835 0.65456 0.78525 0.0
H1916 H 0.11781 0.46584 0.61371 0.0
H1917 H 0.14026 0.47935 0.65656 0.0
H1918 H 0.07263 0.55529 0.66084 0.0
H1919 H 0.05095 0.54228 0.6185 0.0
H1920 H 0.16204 0.5294 0.66014 0.0
H1921 H 0.08111 0.53061 0.7397 0.0
H1922 H 0.07917 0.50967 0.70919 0.0
H1923 H 0.06314 0.54821 0.7096 0.0
C1924 C 0.10737 0.48482 0.62445 0.0
C1925 C 0.08215 0.5025 0.61326 0.0
C1926 C 0.12006 0.49244 0.64887 0.0
C1927 C 0.10763 0.51784 0.66237 0.0
C1928 C 0.08191 0.53486 0.65156 0.0
H1929 H 0.13076 0.6742 0.71563 0.0
H1930 H 0.11773 0.6264 0.70285 0.0
C1931 C 0.06939 0.52734 0.62726 0.0
C1932 C 0.12385 0.53032 0.68437 0.0
H1933 H 0.10978 0.57245 0.74009 0.0
C1934 C 0.15126 0.53777 0.67832 0.0
C1935 C 0.10997 0.54098 0.70824 0.0
C1936 C 0.08185 0.5316 0.71714 0.0
C1937 C 0.16319 0.55873 0.69347 0.0
C1938 C 0.14726 0.57229 0.71511 0.0
C1939 C 0.12166 0.56227 0.72315 0.0
C1940 C 0.15375 0.60041 0.7257 0.0
C1941 C 0.19115 0.56852 0.68456 0.0
C1942 C 0.17794 0.60136 0.74314 0.0
C1943 C 0.18529 0.62863 0.75041 0.0
C1944 C 0.16883 0.65508 0.73993 0.0
C1945 C 0.14393 0.654 0.7235 0.0
C1946 C 0.13648 0.62683 0.71636 0.0
H1947 H 0.20093 0.55561 0.66732 0.0
H1948 H 0.18686 0.59229 0.6783 0.0
H1949 H 0.20731 0.56596 0.70183 0.0
H1950 H 0.19131 0.58112 0.75068 0.0
H1951 H 0.20397 0.62914 0.76397 0.0
H1952 H 0.2528 0.31315 0.6682 0.0
H1953 H 0.27792 0.34168 0.63645 0.0
H1954 H 0.34331 0.34953 0.69861 0.0
H1955 H 0.31856 0.32079 0.73049 0.0
H1956 H 0.29511 0.39903 0.63882 0.0
H1957 H 0.38942 0.30805 0.6356 0.0
H1958 H 0.35489 0.30297 0.6496 0.0
H1959 H 0.38037 0.32035 0.66917 0.0
C1960 C 0.27235 0.32122 0.67524 0.0
C1961 C 0.28388 0.31443 0.70178 0.0
C1962 C 0.28662 0.33754 0.65707 0.0
C1963 C 0.31267 0.34723 0.6651 0.0
C1964 C 0.32347 0.34176 0.69194 0.0
H1965 H 0.41397 0.46565 0.58739 0.0
H1966 H 0.37874 0.44399 0.61435 0.0
C1967 C 0.30924 0.32543 0.71013 0.0
C1968 C 0.32937 0.36172 0.64504 0.0
H1969 H 0.39463 0.35331 0.61344 0.0
C1970 C 0.31683 0.38906 0.63314 0.0
C1971 C 0.35743 0.3483 0.63735 0.0
C1972 C 0.37129 0.31817 0.64837 0.0
C1973 C 0.33205 0.40379 0.61422 0.0
C1974 C 0.3606 0.39089 0.60738 0.0
C1975 C 0.37277 0.36321 0.61881 0.0
C1976 C 0.37879 0.40595 0.58908 0.0
C1977 C 0.31736 0.43283 0.60158 0.0
C1978 C 0.39061 0.39171 0.56599 0.0
C1979 C 0.41073 0.40411 0.55059 0.0
C1980 C 0.41923 0.43099 0.55791 0.0
C1981 C 0.40693 0.44552 0.58068 0.0
C1982 C 0.38687 0.43309 0.59615 0.0
H1983 H 0.2932 0.43531 0.60271 0.0
H1984 H 0.32469 0.45123 0.61275 0.0
H1985 H 0.32319 0.43495 0.57995 0.0
H1986 H 0.38486 0.3706 0.56035 0.0
H1987 H 0.42024 0.3924 0.5333 0.0
H1988 H 0.18111 0.70839 0.20291 0.0
H1989 H 0.16322 0.6858 0.16277 0.0
H1990 H 0.24057 0.69868 0.12016 0.0
H1991 H 0.25893 0.72126 0.16046 0.0
H1992 H 0.15368 0.71228 0.10812 0.0
H1993 H 0.23533 0.60876 0.11418 0.0
H1994 H 0.22857 0.63235 0.14294 0.0
H1995 H 0.24843 0.64371 0.11483 0.0
C1996 C 0.19443 0.70637 0.18508 0.0
C1997 C 0.22151 0.71645 0.1849 0.0
C1998 C 0.18411 0.69357 0.16214 0.0
C1999 C 0.20067 0.69053 0.13867 0.0
C2000 C 0.22766 0.70064 0.13826 0.0
H2001 H 0.14448 0.58203 0.0081 0.0
H2002 H 0.17213 0.61764 0.02924 0.0
C2003 C 0.23806 0.7135 0.16126 0.0
C2004 C 0.18935 0.6764 0.11493 0.0
H2005 H 0.19602 0.61061 0.08295 0.0
C2006 C 0.16321 0.69028 0.10218 0.0
C2007 C 0.20208 0.64788 0.10714 0.0
C2008 C 0.23009 0.63208 0.12046 0.0
C2009 C 0.14846 0.67559 0.08293 0.0
C2010 C 0.16002 0.64622 0.0767 0.0
C2011 C 0.18726 0.63316 0.0879 0.0
C2012 C 0.14229 0.62724 0.06209 0.0
C2013 C 0.12005 0.69116 0.07024 0.0
C2014 C 0.11671 0.62074 0.07381 0.0
C2015 C 0.10122 0.6004 0.06201 0.0
C2016 C 0.11086 0.58639 0.03811 0.0
C2017 C 0.13645 0.59296 0.02631 0.0
C2018 C 0.15213 0.61324 0.03826 0.0
H2019 H 0.11913 0.71554 0.06994 0.0
H2020 H 0.11689 0.68394 0.04912 0.0
H2021 H 0.10166 0.68582 0.08243 0.0
H2022 H 0.10937 0.63054 0.09275 0.0
H2023 H 0.08246 0.59469 0.07228 0.0
H2024 H 0.75514 0.34737 0.69577 0.0
H2025 H 0.7307 0.39153 0.67065 0.0
H2026 H 0.64985 0.38255 0.70911 0.0
H2027 H 0.67414 0.33912 0.73471 0.0
H2028 H 0.68793 0.39144 0.63422 0.0
H2029 H 0.64736 0.47001 0.71288 0.0
H2030 H 0.6749 0.43812 0.72034 0.0
H2031 H 0.63665 0.43476 0.71992 0.0
C2032 C 0.7323 0.3552 0.69929 0.0
C2033 C 0.71654 0.33969 0.71716 0.0
C2034 C 0.71839 0.38046 0.68497 0.0
C2035 C 0.68855 0.39066 0.68832 0.0
C2036 C 0.67306 0.37568 0.70676 0.0
H2037 H 0.54194 0.46271 0.59534 0.0
H2038 H 0.57965 0.4406 0.62856 0.0
C2039 C 0.68695 0.3506 0.72119 0.0
C2040 C 0.67255 0.41434 0.67012 0.0
H2041 H 0.61935 0.47508 0.66971 0.0
C2042 C 0.67357 0.41022 0.64195 0.0
C2043 C 0.65387 0.43891 0.68019 0.0
C2044 C 0.65339 0.44586 0.70999 0.0
C2045 C 0.65487 0.42872 0.62378 0.0
C2046 C 0.63468 0.4518 0.63409 0.0
C2047 C 0.63479 0.45713 0.66201 0.0
C2048 C 0.61117 0.46811 0.61639 0.0
C2049 C 0.65544 0.42246 0.59381 0.0
C2050 C 0.61643 0.49126 0.59902 0.0
C2051 C 0.59488 0.50406 0.58003 0.0
C2052 C 0.56794 0.49362 0.57807 0.0
C2053 C 0.5625 0.47113 0.59625 0.0
C2054 C 0.58393 0.45856 0.6153 0.0
H2055 H 0.67265 0.4037 0.58904 0.0
H2056 H 0.6339 0.41725 0.58683 0.0
H2057 H 0.65939 0.44241 0.58214 0.0
H2058 H 0.63746 0.49875 0.59961 0.0
H2059 H 0.59972 0.52133 0.56626 0.0
H2060 H 0.85324 0.70796 0.22964 0.0
H2061 H 0.88703 0.67718 0.20071 0.0
H2062 H 0.81503 0.64088 0.1649 0.0
H2063 H 0.78104 0.67179 0.19344 0.0
H2064 H 0.89901 0.61589 0.1945 0.0
H2065 H 0.85281 0.67393 0.0991 0.0
H2066 H 0.84455 0.68843 0.13228 0.0
H2067 H 0.8261 0.65976 0.11923 0.0
C2068 C 0.84459 0.69329 0.21573 0.0
C2069 C 0.81439 0.69258 0.21358 0.0
C2070 C 0.86395 0.67575 0.19923 0.0
C2071 C 0.85342 0.65726 0.18032 0.0
C2072 C 0.82347 0.65556 0.17893 0.0
H2073 H 0.92252 0.53602 0.05987 0.0
H2074 H 0.89395 0.56525 0.09351 0.0
C2075 C 0.8041 0.67316 0.19533 0.0
C2076 C 0.87364 0.64014 0.16163 0.0
H2077 H 0.88637 0.62955 0.09431 0.0
C2078 C 0.89644 0.61899 0.17259 0.0
C2079 C 0.87032 0.64448 0.13309 0.0
C2080 C 0.84731 0.66807 0.12018 0.0
C2081 C 0.91542 0.60128 0.15566 0.0
C2082 C 0.91153 0.6051 0.12716 0.0
C2083 C 0.88912 0.62663 0.11622 0.0
C2084 C 0.92973 0.58631 0.10814 0.0
C2085 C 0.93894 0.57804 0.16825 0.0
C2086 C 0.95936 0.5885 0.10533 0.0
C2087 C 0.97582 0.57185 0.08601 0.0
C2088 C 0.96284 0.55282 0.06922 0.0
C2089 C 0.93324 0.55044 0.07247 0.0
C2090 C 0.91684 0.56712 0.09166 0.0
H2091 H 0.936 0.57462 0.19038 0.0
H2092 H 0.93912 0.55665 0.15806 0.0
H2093 H 0.96057 0.58498 0.16545 0.0
H2094 H 0.96955 0.60351 0.11769 0.0
H2095 H -0.00143 0.57414 0.08404 0.0
H2096 H 0.96861 0.56528 0.58992 0.0
H2097 H 0.93919 0.60193 0.61712 0.0
H2098 H 0.88977 0.63735 0.54501 0.0
H2099 H 0.91855 0.60002 0.5178 0.0
H2100 H 0.93007 0.66143 0.61627 0.0
H2101 H 0.82556 0.62082 0.59355 0.0
H2102 H 0.86041 0.60073 0.58446 0.0
H2103 H 0.84327 0.63203 0.56395 0.0
C2104 C 0.95155 0.58085 0.57982 0.0
C2105 C 0.94578 0.5795 0.55174 0.0
C2106 C 0.93475 0.60187 0.5954 0.0
C2107 C 0.91192 0.62211 0.58321 0.0
C2108 C 0.90675 0.6215 0.555 0.0
H2109 H 0.82099 0.76661 0.68102 0.0
H2110 H 0.85058 0.74079 0.64556 0.0
C2111 C 0.92331 0.60021 0.53946 0.0
C2112 C 0.89325 0.64324 0.60029 0.0
H2113 H 0.8231 0.66299 0.62033 0.0
C2114 C 0.90664 0.6619 0.61709 0.0
C2115 C 0.86271 0.64367 0.60146 0.0
C2116 C 0.84712 0.62307 0.58511 0.0
C2117 C 0.89048 0.68043 0.63552 0.0
C2118 C 0.85996 0.68083 0.63666 0.0
C2119 C 0.84647 0.66281 0.61929 0.0
C2120 C 0.84196 0.69726 0.65757 0.0
C2121 C 0.90645 0.69832 0.65443 0.0
C2122 C 0.82673 0.68155 0.67561 0.0
C2123 C 0.80957 0.69621 0.69543 0.0
C2124 C 0.80728 0.727 0.69785 0.0
C2125 C 0.82246 0.74286 0.67976 0.0
C2126 C 0.83951 0.72811 0.65961 0.0
H2127 H 0.93041 0.69056 0.65507 0.0
H2128 H 0.90259 0.72179 0.64727 0.0
H2129 H 0.89835 0.69725 0.67542 0.0
H2130 H 0.8283 0.65776 0.67448 0.0
H2131 H 0.7983 0.68323 0.70906 0.0
H2132 H 0.41982 0.51725 0.45395 0.0
H2133 H 0.38362 0.53799 0.4185 0.0
H2134 H 0.43474 0.60645 0.40024 0.0
H2135 H 0.47094 0.58604 0.43532 0.0
H2136 H 0.37133 0.62406 0.41346 0.0
H2137 H 0.39302 0.5421 0.33161 0.0
H2138 H 0.39125 0.52897 0.36629 0.0
H2139 H 0.42088 0.54741 0.35657 0.0
C2140 C 0.42351 0.53652 0.44217 0.0
C2141 C 0.44823 0.55004 0.44751 0.0
C2142 C 0.40287 0.54824 0.42191 0.0
C2143 C 0.40669 0.5736 0.40677 0.0
C2144 C 0.43154 0.58678 0.4117 0.0
H2145 H 0.33368 0.68098 0.272 0.0
H2146 H 0.36233 0.64431 0.30292 0.0
C2147 C 0.45218 0.57507 0.43178 0.0
C2148 C 0.384 0.58789 0.387 0.0
H2149 H 0.35705 0.58382 0.32219 0.0
C2150 C 0.36787 0.61514 0.39363 0.0
C2151 C 0.37985 0.57612 0.36118 0.0
C2152 C 0.39715 0.54708 0.35322 0.0
C2153 C 0.34809 0.63141 0.3748 0.0
C2154 C 0.3442 0.61992 0.34876 0.0
C2155 C 0.35994 0.59236 0.34228 0.0
C2156 C 0.32575 0.63767 0.32746 0.0
C2157 C 0.33245 0.66138 0.3825 0.0
C2158 C 0.29551 0.64512 0.33043 0.0
C2159 C 0.27905 0.66612 0.31283 0.0
C2160 C 0.29263 0.67998 0.29198 0.0
C2161 C 0.32258 0.67087 0.28794 0.0
C2162 C 0.33899 0.64985 0.30553 0.0
H2163 H 0.34159 0.66909 0.40165 0.0
H2164 H 0.3338 0.67809 0.36604 0.0
H2165 H 0.30902 0.66015 0.38542 0.0
H2166 H 0.2849 0.63569 0.34712 0.0
H2167 H 0.25599 0.67251 0.31642 0.0
H2168 H 0.21809 0.30085 0.83411 0.0
H2169 H 0.18537 0.33322 0.86233 0.0
H2170 H 0.13803 0.37255 0.79038 0.0
H2171 H 0.16978 0.33866 0.76206 0.0
H2172 H 0.17563 0.38892 0.86722 0.0
H2173 H 0.07134 0.35497 0.83298 0.0
H2174 H 0.10632 0.33577 0.82322 0.0
H2175 H 0.09007 0.36953 0.80561 0.0
C2176 C 0.20067 0.31637 0.82429 0.0
C2177 C 0.19633 0.31718 0.79592 0.0
C2178 C 0.18195 0.33488 0.84045 0.0
C2179 C 0.15882 0.355 0.82858 0.0
C2180 C 0.15507 0.35657 0.80011 0.0
H2181 H 0.07446 0.4953 0.93067 0.0
H2182 H 0.10266 0.46805 0.89546 0.0
C2183 C 0.17339 0.33744 0.78392 0.0
C2184 C 0.13921 0.37449 0.84629 0.0
H2185 H 0.06782 0.39598 0.86191 0.0
C2186 C 0.15205 0.39036 0.86609 0.0
C2187 C 0.10844 0.3761 0.84509 0.0
C2188 C 0.09324 0.35795 0.82578 0.0
C2189 C 0.13517 0.40732 0.885 0.0
C2190 C 0.10433 0.40986 0.88316 0.0
C2191 C 0.09142 0.39431 0.86314 0.0
C2192 C 0.08519 0.42745 0.90255 0.0
C2193 C 0.15081 0.42117 0.90742 0.0
C2194 C 0.06454 0.41439 0.91701 0.0
C2195 C 0.04763 0.43031 0.93644 0.0
C2196 C 0.05153 0.45934 0.94206 0.0
C2197 C 0.07148 0.47272 0.92703 0.0
C2198 C 0.08775 0.45709 0.90708 0.0
H2199 H 0.17353 0.40951 0.91097 0.0
H2200 H 0.15209 0.44444 0.9015 0.0
H2201 H 0.13919 0.42092 0.92684 0.0
H2202 H 0.06199 0.39162 0.91376 0.0
H2203 H 0.0323 0.41956 0.94773 0.0
H2204 H 0.18141 0.26261 0.33684 0.0
H2205 H 0.14727 0.28982 0.3682 0.0
H2206 H 0.17113 0.37202 0.33893 0.0
H2207 H 0.20565 0.3452 0.30853 0.0
H2208 H 0.17078 0.37007 0.39261 0.0
H2209 H 0.06787 0.33799 0.3516 0.0
H2210 H 0.0952 0.30742 0.36248 0.0
H2211 H 0.10186 0.33065 0.3341 0.0
C2212 C 0.17929 0.28648 0.33713 0.0
C2213 C 0.19631 0.30171 0.32025 0.0
C2214 C 0.15962 0.30203 0.35489 0.0
C2215 C 0.15633 0.33304 0.35568 0.0
C2216 C 0.17326 0.34813 0.33874 0.0
H2217 H 0.02014 0.46261 0.41758 0.0
H2218 H 0.05165 0.42709 0.39066 0.0
C2219 C 0.19304 0.3327 0.32133 0.0
C2220 C 0.13606 0.35019 0.37455 0.0
H2221 H 0.06422 0.36752 0.39054 0.0
C2222 C 0.14748 0.36942 0.39221 0.0
C2223 C 0.10561 0.3496 0.37379 0.0
C2224 C 0.09179 0.33053 0.35432 0.0
C2225 C 0.12936 0.38847 0.40873 0.0
C2226 C 0.09896 0.38755 0.40835 0.0
C2227 C 0.08753 0.36803 0.39097 0.0
C2228 C 0.07863 0.40759 0.42502 0.0
C2229 C 0.1429 0.41021 0.42555 0.0
C2230 C 0.08282 0.40798 0.45336 0.0
C2231 C 0.06514 0.42855 0.46869 0.0
C2232 C 0.04245 0.4487 0.45608 0.0
C2233 C 0.0374 0.44738 0.42789 0.0
C2234 C 0.05539 0.42706 0.41248 0.0
H2235 H 0.16438 0.41379 0.41773 0.0
H2236 H 0.1284 0.43193 0.42583 0.0
H2237 H 0.14657 0.40142 0.44677 0.0
H2238 H 0.10004 0.39262 0.46361 0.0
H2239 H 0.06932 0.42871 0.49044 0.0
loop_
_geom_bond_atom_site_label_1
_geom_bond_atom_site_label_2
_geom_bond_distance
_geom_bond_site_symmetry_2
_ccdc_geom_bond_type
Zn0 O1 2.055 . S
Zn0 O8 2.046 . S
Zn0 N16 2.036 1_554 S
Zn0 O28 2.053 1_454 S
Zn0 O30 2.066 1_554 S
O1 Zn0 2.055 . S
O1 C4 1.259 1_545 S
C2 O30 1.256 1_565 S
C2 O31 1.244 . S
Zn3 O5 2.046 1_655 S
Zn3 O7 2.055 1_565 S
Zn3 N9 2.036 . S
Zn3 O27 2.066 1_564 S
Zn3 O31 2.053 1_654 S
C4 O1 1.259 1_565 S
C4 O5 1.254 . S
O5 Zn3 2.046 1_455 S
O5 C4 1.254 . S
C6 O27 1.256 . S
C6 O28 1.244 . S
O7 Zn3 2.055 1_545 S
O7 C29 1.259 . S
O8 Zn0 2.046 . S
O8 C29 1.254 1_455 S
N9 Zn3 2.036 . S
N9 C10 1.298 . S
N9 N12 1.398 . S
C10 N9 1.298 . S
C10 N13 1.367 . S
C10 C23 1.481 . S
C11 N12 1.299 . S
C11 N13 1.379 . S
N12 N9 1.398 . S
N12 C11 1.299 . S
N13 C10 1.367 . S
N13 C11 1.379 . S
C14 N16 1.298 . S
C14 N18 1.367 . S
C14 C22 1.481 . S
C15 N17 1.299 . S
C15 N18 1.379 . S
N16 Zn0 2.036 1_556 S
N16 C14 1.298 . S
N16 N17 1.398 . S
N17 C15 1.299 . S
N17 N16 1.398 . S
N18 C14 1.367 . S
N18 C15 1.379 . S
H19 C22 0.980 1_554 S
H20 C22 0.981 1_554 S
H21 C22 0.981 . S
C22 C14 1.481 . S
C22 H19 0.980 1_556 S
C22 H20 0.981 1_556 S
C22 H21 0.981 . S
C23 C10 1.481 . S
C23 H24 0.980 1_565 S
C23 H25 0.981 . S
C23 H26 0.981 1_565 S
H24 C23 0.980 1_545 S
H25 C23 0.981 . S
H26 C23 0.981 1_545 S
O27 Zn3 2.066 1_546 S
O27 C6 1.256 . S
O28 Zn0 2.053 1_656 S
O28 C6 1.244 . S
C29 O7 1.259 . S
C29 O8 1.254 1_655 S
O30 Zn0 2.066 1_556 S
O30 C2 1.256 1_545 S
O31 C2 1.244 . S
O31 Zn3 2.053 1_456 S
Zn32 O33 2.055 . S
Zn32 O40 2.046 . S
Zn32 N48 2.036 . S
Zn32 O60 2.053 . S
Zn32 O62 2.066 . S
O33 Zn32 2.055 . S
O33 C36 1.259 . S
C34 O62 1.256 . S
C34 O63 1.244 . S
Zn35 O37 2.046 . S
Zn35 O39 2.055 . S
Zn35 N41 2.036 . S
Zn35 O59 2.066 . S
Zn35 O63 2.053 . S
C36 O33 1.259 . S
C36 O37 1.254 . S
O37 Zn35 2.046 . S
O37 C36 1.254 . S
C38 O59 1.256 . S
C38 O60 1.244 . S
O39 Zn35 2.055 . S
O39 C61 1.259 . S
O40 Zn32 2.046 . S
O40 C61 1.254 . S
N41 Zn35 2.036 . S
N41 C42 1.298 . S
N41 N44 1.398 . S
C42 N41 1.298 . S
C42 N45 1.367 . S
C42 C55 1.481 . S
C43 N44 1.299 . S
C43 N45 1.379 . S
N44 N41 1.398 . S
N44 C43 1.299 . S
N45 C42 1.367 . S
N45 C43 1.379 . S
C46 N48 1.298 . S
C46 N50 1.367 . S
C46 C54 1.481 . S
C47 N49 1.299 . S
C47 N50 1.379 . S
N48 Zn32 2.036 . S
N48 C46 1.298 . S
N48 N49 1.398 . S
N49 C47 1.299 . S
N49 N48 1.398 . S
N50 C46 1.367 . S
N50 C47 1.379 . S
H51 C54 0.980 . S
H52 C54 0.981 . S
H53 C54 0.981 . S
C54 C46 1.481 . S
C54 H51 0.980 . S
C54 H52 0.981 . S
C54 H53 0.981 . S
C55 C42 1.481 . S
C55 H56 0.980 . S
C55 H57 0.981 . S
C55 H58 0.981 . S
H56 C55 0.980 . S
H57 C55 0.981 . S
H58 C55 0.981 . S
O59 Zn35 2.066 . S
O59 C38 1.256 . S
O60 Zn32 2.053 . S
O60 C38 1.244 . S
C61 O39 1.259 . S
C61 O40 1.254 . S
O62 Zn32 2.066 . S
O62 C34 1.256 . S
O63 C34 1.244 . S
O63 Zn35 2.053 . S
Zn64 O65 2.055 . S
Zn64 O72 2.046 . S
Zn64 N80 2.036 . S
Zn64 O92 2.053 1_545 S
Zn64 O94 2.066 . S
O65 Zn64 2.055 . S
O65 C68 1.259 . S
C66 O94 1.256 . S
C66 O95 1.244 . S
Zn67 O69 2.046 1_565 S
Zn67 O71 2.055 . S
Zn67 N73 2.036 . S
Zn67 O91 2.066 . S
Zn67 O95 2.053 1_565 S
C68 O65 1.259 . S
C68 O69 1.254 . S
O69 Zn67 2.046 1_545 S
O69 C68 1.254 . S
C70 O91 1.256 . S
C70 O92 1.244 . S
O71 Zn67 2.055 . S
O71 C93 1.259 . S
O72 Zn64 2.046 . S
O72 C93 1.254 1_545 S
N73 Zn67 2.036 . S
N73 C74 1.298 . S
N73 N76 1.398 . S
C74 N73 1.298 . S
C74 N77 1.367 . S
C74 C87 1.481 . S
C75 N76 1.299 . S
C75 N77 1.379 . S
N76 N73 1.398 . S
N76 C75 1.299 . S
N77 C74 1.367 . S
N77 C75 1.379 . S
C78 N80 1.298 . S
C78 N82 1.367 . S
C78 C86 1.481 . S
C79 N81 1.299 . S
C79 N82 1.379 . S
N80 Zn64 2.036 . S
N80 C78 1.298 . S
N80 N81 1.398 . S
N81 C79 1.299 . S
N81 N80 1.398 . S
N82 C78 1.367 . S
N82 C79 1.379 . S
H83 C86 0.980 . S
H84 C86 0.981 . S
H85 C86 0.981 . S
C86 C78 1.481 . S
C86 H83 0.980 . S
C86 H84 0.981 . S
C86 H85 0.981 . S
C87 C74 1.481 . S
C87 H88 0.980 . S
C87 H89 0.981 . S
C87 H90 0.981 . S
H88 C87 0.980 . S
H89 C87 0.981 . S
H90 C87 0.981 . S
O91 Zn67 2.066 . S
O91 C70 1.256 . S
O92 Zn64 2.053 1_565 S
O92 C70 1.244 . S
C93 O71 1.259 . S
C93 O72 1.254 1_565 S
O94 Zn64 2.066 . S
O94 C66 1.256 . S
O95 C66 1.244 . S
O95 Zn67 2.053 1_545 S
Zn96 O97 2.055 . S
Zn96 O104 2.046 . S
Zn96 N112 2.036 . S
Zn96 O124 2.053 . S
Zn96 O126 2.066 . S
O97 Zn96 2.055 . S
O97 C100 1.259 . S
C98 O126 1.256 . S
C98 O127 1.244 . S
Zn99 O101 2.046 . S
Zn99 O103 2.055 . S
Zn99 N105 2.036 . S
Zn99 O123 2.066 . S
Zn99 O127 2.053 . S
C100 O97 1.259 . S
C100 O101 1.254 . S
O101 Zn99 2.046 . S
O101 C100 1.254 . S
C102 O123 1.256 . S
C102 O124 1.244 . S
O103 Zn99 2.055 . S
O103 C125 1.259 . S
O104 Zn96 2.046 . S
O104 C125 1.254 . S
N105 Zn99 2.036 . S
N105 C106 1.298 . S
N105 N108 1.398 . S
C106 N105 1.298 . S
C106 N109 1.367 . S
C106 C119 1.481 . S
C107 N108 1.299 . S
C107 N109 1.379 . S
N108 N105 1.398 . S
N108 C107 1.299 . S
N109 C106 1.367 . S
N109 C107 1.379 . S
C110 N112 1.298 . S
C110 N114 1.367 . S
C110 C118 1.481 . S
C111 N113 1.299 . S
C111 N114 1.379 . S
N112 Zn96 2.036 . S
N112 C110 1.298 . S
N112 N113 1.398 . S
N113 C111 1.299 . S
N113 N112 1.398 . S
N114 C110 1.367 . S
N114 C111 1.379 . S
H115 C118 0.980 . S
H116 C118 0.981 . S
H117 C118 0.981 . S
C118 C110 1.481 . S
C118 H115 0.980 . S
C118 H116 0.981 . S
C118 H117 0.981 . S
C119 C106 1.481 . S
C119 H120 0.980 . S
C119 H121 0.981 . S
C119 H122 0.981 . S
H120 C119 0.980 . S
H121 C119 0.981 . S
H122 C119 0.981 . S
O123 Zn99 2.066 . S
O123 C102 1.256 . S
O124 Zn96 2.053 . S
O124 C102 1.244 . S
C125 O103 1.259 . S
C125 O104 1.254 . S
O126 Zn96 2.066 . S
O126 C98 1.256 . S
O127 C98 1.244 . S
O127 Zn99 2.053 . S
Zn128 O129 2.055 1_545 S
Zn128 O136 2.046 1_545 S
Zn128 N144 2.036 . S
Zn128 O156 2.053 . S
Zn128 O158 2.066 1_455 S
O129 Zn128 2.055 1_565 S
O129 C132 1.259 1_455 S
C130 O158 1.256 . S
C130 O159 1.244 . S
Zn131 O133 2.046 . S
Zn131 O135 2.055 1_655 S
Zn131 N137 2.036 . S
Zn131 O155 2.073 1_565 S
Zn131 O159 2.053 1_565 S
C132 O129 1.259 1_655 S
C132 O133 1.254 . S
O133 Zn131 2.046 . S
O133 C132 1.254 . S
C134 O155 1.242 1_455 S
C134 O156 1.244 . S
O135 Zn131 2.055 1_455 S
O135 C157 1.259 . S
O136 Zn128 2.046 1_565 S
O136 C157 1.254 . S
N137 Zn131 2.036 . S
N137 C138 1.298 . S
N137 N140 1.398 . S
C138 N137 1.298 . S
C138 N141 1.367 . S
C138 C151 1.481 . S
C139 N140 1.299 . S
C139 N141 1.379 . S
N140 N137 1.398 . S
N140 C139 1.299 . S
N141 C138 1.367 . S
N141 C139 1.379 . S
C142 N144 1.298 . S
C142 N146 1.367 . S
C142 C150 1.481 . S
C143 N145 1.299 . S
C143 N146 1.379 . S
N144 Zn128 2.036 . S
N144 C142 1.298 . S
N144 N145 1.398 . S
N145 C143 1.299 . S
N145 N144 1.398 . S
N146 C142 1.367 . S
N146 C143 1.379 . S
H147 C150 0.978 . S
H148 C150 0.981 . S
H149 C150 0.981 . S
C150 C142 1.481 . S
C150 H147 0.978 . S
C150 H148 0.981 . S
C150 H149 0.981 . S
C151 C138 1.481 . S
C151 H152 0.980 . S
C151 H153 0.981 . S
C151 H154 0.981 . S
H152 C151 0.980 . S
H153 C151 0.981 . S
H154 C151 0.981 . S
O155 Zn131 2.073 1_545 S
O155 C134 1.242 1_655 S
O156 Zn128 2.053 . S
O156 C134 1.244 . S
C157 O135 1.259 . S
C157 O136 1.254 . S
O158 Zn128 2.066 1_655 S
O158 C130 1.256 . S
O159 C130 1.244 . S
O159 Zn131 2.053 1_545 S
Zn160 O161 2.055 . S
Zn160 O168 2.046 . S
Zn160 N176 2.036 . S
Zn160 O188 2.053 . S
Zn160 O190 2.066 . S
O161 Zn160 2.055 . S
O161 C164 1.259 . S
C162 O190 1.256 . S
C162 O191 1.244 . S
Zn163 O165 2.046 . S
Zn163 O167 2.055 . S
Zn163 N169 2.036 . S
Zn163 O187 2.066 . S
Zn163 O191 2.053 . S
C164 O161 1.259 . S
C164 O165 1.254 . S
O165 Zn163 2.046 . S
O165 C164 1.254 . S
C166 O187 1.256 . S
C166 O188 1.244 . S
O167 Zn163 2.055 . S
O167 C189 1.259 . S
O168 Zn160 2.046 . S
O168 C189 1.254 . S
N169 Zn163 2.036 . S
N169 C170 1.298 . S
N169 N172 1.398 . S
C170 N169 1.298 . S
C170 N173 1.367 . S
C170 C183 1.481 . S
C171 N172 1.299 . S
C171 N173 1.379 . S
N172 N169 1.398 . S
N172 C171 1.299 . S
N173 C170 1.367 . S
N173 C171 1.379 . S
C174 N176 1.298 . S
C174 N178 1.367 . S
C174 C182 1.481 . S
C175 N177 1.299 . S
C175 N178 1.379 . S
N176 Zn160 2.036 . S
N176 C174 1.298 . S
N176 N177 1.398 . S
N177 C175 1.299 . S
N177 N176 1.398 . S
N178 C174 1.367 . S
N178 C175 1.379 . S
H179 C182 0.980 . S
H180 C182 0.981 . S
H181 C182 0.981 . S
C182 C174 1.481 . S
C182 H179 0.980 . S
C182 H180 0.981 . S
C182 H181 0.981 . S
C183 C170 1.481 . S
C183 H184 0.980 . S
C183 H185 0.981 . S
C183 H186 0.981 . S
H184 C183 0.980 . S
H185 C183 0.981 . S
H186 C183 0.981 . S
O187 Zn163 2.066 . S
O187 C166 1.256 . S
O188 Zn160 2.053 . S
O188 C166 1.244 . S
C189 O167 1.259 . S
C189 O168 1.254 . S
O190 Zn160 2.066 . S
O190 C162 1.256 . S
O191 C162 1.244 . S
O191 Zn163 2.053 . S
Zn192 O193 2.055 . S
Zn192 O200 2.046 . S
Zn192 N208 2.036 . S
Zn192 O220 2.053 1_545 S
Zn192 O222 2.066 1_545 S
O193 Zn192 2.055 . S
O193 C196 1.259 . S
C194 O222 1.256 . S
C194 O223 1.244 . S
Zn195 O197 2.046 1_556 S
Zn195 O199 2.055 . S
Zn195 N201 2.036 1_545 S
Zn195 O219 2.066 1_545 S
Zn195 O223 2.053 1_546 S
C196 O193 1.259 . S
C196 O197 1.254 . S
O197 Zn195 2.046 1_554 S
O197 C196 1.254 . S
C198 O219 1.256 . S
C198 O220 1.244 1_556 S
O199 Zn195 2.055 . S
O199 C221 1.259 . S
O200 Zn192 2.046 . S
O200 C221 1.254 1_554 S
N201 Zn195 2.036 1_565 S
N201 C202 1.298 . S
N201 N204 1.398 . S
C202 N201 1.298 . S
C202 N205 1.367 . S
C202 C215 1.481 1_565 S
C203 N204 1.299 . S
C203 N205 1.379 . S
N204 N201 1.398 . S
N204 C203 1.299 . S
N205 C202 1.367 . S
N205 C203 1.379 . S
C206 N208 1.298 . S
C206 N210 1.367 . S
C206 C214 1.481 . S
C207 N209 1.299 . S
C207 N210 1.379 . S
N208 Zn192 2.036 . S
N208 C206 1.298 . S
N208 N209 1.398 . S
N209 C207 1.299 . S
N209 N208 1.398 . S
N210 C206 1.367 . S
N210 C207 1.379 . S
H211 C214 0.980 . S
H212 C214 0.981 . S
H213 C214 0.981 . S
C214 C206 1.481 . S
C214 H211 0.980 . S
C214 H212 0.981 . S
C214 H213 0.981 . S
C215 C202 1.481 1_545 S
C215 H216 0.980 . S
C215 H217 0.981 . S
C215 H218 0.981 1_545 S
H216 C215 0.980 . S
H217 C215 0.981 . S
H218 C215 0.981 1_565 S
O219 Zn195 2.066 1_565 S
O219 C198 1.256 . S
O220 Zn192 2.053 1_565 S
O220 C198 1.244 1_554 S
C221 O199 1.259 . S
C221 O200 1.254 1_556 S
O222 Zn192 2.066 1_565 S
O222 C194 1.256 . S
O223 C194 1.244 . S
O223 Zn195 2.053 1_564 S
Zn224 O225 2.055 . S
Zn224 O232 2.046 . S
Zn224 N240 2.036 . S
Zn224 O252 2.053 . S
Zn224 O254 2.066 . S
O225 Zn224 2.055 . S
O225 C228 1.259 . S
C226 O254 1.256 . S
C226 O255 1.244 . S
Zn227 O229 2.046 . S
Zn227 O231 2.055 . S
Zn227 N233 2.036 . S
Zn227 O251 2.066 . S
Zn227 O255 2.053 . S
C228 O225 1.259 . S
C228 O229 1.254 . S
O229 Zn227 2.046 . S
O229 C228 1.254 . S
C230 O251 1.256 . S
C230 O252 1.244 . S
O231 Zn227 2.055 . S
O231 C253 1.259 . S
O232 Zn224 2.046 . S
O232 C253 1.254 . S
N233 Zn227 2.036 . S
N233 C234 1.298 . S
N233 N236 1.398 . S
C234 N233 1.298 . S
C234 N237 1.367 . S
C234 C247 1.481 . S
C235 N236 1.299 . S
C235 N237 1.379 . S
N236 N233 1.398 . S
N236 C235 1.299 . S
N237 C234 1.367 . S
N237 C235 1.379 . S
C238 N240 1.298 . S
C238 N242 1.367 . S
C238 C246 1.481 . S
C239 N241 1.299 . S
C239 N242 1.379 . S
N240 Zn224 2.036 . S
N240 C238 1.298 . S
N240 N241 1.398 . S
N241 C239 1.299 . S
N241 N240 1.398 . S
N242 C238 1.367 . S
N242 C239 1.379 . S
H243 C246 0.980 . S
H244 C246 0.981 . S
H245 C246 0.981 . S
C246 C238 1.481 . S
C246 H243 0.980 . S
C246 H244 0.981 . S
C246 H245 0.981 . S
C247 C234 1.481 . S
C247 H248 0.980 . S
C247 H249 0.981 . S
C247 H250 0.981 . S
H248 C247 0.980 . S
H249 C247 0.981 . S
H250 C247 0.981 . S
O251 Zn227 2.066 . S
O251 C230 1.256 . S
O252 Zn224 2.053 . S
O252 C230 1.244 . S
C253 O231 1.259 . S
C253 O232 1.254 . S
O254 Zn224 2.066 . S
O254 C226 1.256 . S
O255 C226 1.244 . S
O255 Zn227 2.053 . S
Zn256 O257 2.055 . S
Zn256 O264 2.046 1_554 S
Zn256 N272 2.036 . S
Zn256 O284 2.053 1_554 S
Zn256 O286 2.066 . S
O257 Zn256 2.055 . S
O257 C260 1.259 . S
C258 O286 1.256 . S
C258 O287 1.244 . S
Zn259 O261 2.031 1_556 S
Zn259 O263 2.055 . S
Zn259 N265 2.036 . S
Zn259 O283 2.066 . S
Zn259 O287 2.053 1_556 S
C260 O257 1.259 . S
C260 O261 1.282 . S
O261 Zn259 2.031 1_554 S
O261 C260 1.282 . S
C262 O283 1.256 . S
C262 O284 1.244 . S
O263 Zn259 2.055 . S
O263 C285 1.259 . S
O264 Zn256 2.046 1_556 S
O264 C285 1.254 . S
N265 Zn259 2.036 . S
N265 C266 1.298 . S
N265 N268 1.398 . S
C266 N265 1.298 . S
C266 N269 1.367 . S
C266 C279 1.481 . S
C267 N268 1.299 . S
C267 N269 1.379 . S
N268 N265 1.398 . S
N268 C267 1.299 . S
N269 C266 1.367 . S
N269 C267 1.379 . S
C270 N272 1.298 . S
C270 N274 1.367 . S
C270 C278 1.481 . S
C271 N273 1.299 . S
C271 N274 1.379 . S
N272 Zn256 2.036 . S
N272 C270 1.298 . S
N272 N273 1.398 . S
N273 C271 1.299 . S
N273 N272 1.398 . S
N274 C270 1.367 . S
N274 C271 1.379 . S
H275 C278 0.980 . S
H276 C278 0.981 . S
H277 C278 0.981 . S
C278 C270 1.481 . S
C278 H275 0.980 . S
C278 H276 0.981 . S
C278 H277 0.981 . S
C279 C266 1.481 . S
C279 H280 0.980 . S
C279 H281 0.981 . S
C279 H282 0.981 . S
H280 C279 0.980 . S
H281 C279 0.981 . S
H282 C279 0.981 . S
O283 Zn259 2.066 . S
O283 C262 1.256 . S
O284 Zn256 2.053 1_556 S
O284 C262 1.244 . S
C285 O263 1.259 . S
C285 O264 1.254 . S
O286 Zn256 2.066 . S
O286 C258 1.256 . S
O287 C258 1.244 . S
O287 Zn259 2.053 1_554 S
Zn288 O289 2.055 . S
Zn288 O296 2.046 . S
Zn288 N304 2.036 . S
Zn288 O316 2.053 . S
Zn288 O318 2.066 . S
O289 Zn288 2.055 . S
O289 C292 1.259 . S
C290 O318 1.256 . S
C290 O319 1.244 . S
Zn291 O293 2.046 . S
Zn291 O295 2.055 . S
Zn291 N297 2.036 . S
Zn291 O315 2.066 . S
Zn291 O319 2.053 . S
C292 O289 1.259 . S
C292 O293 1.254 . S
O293 Zn291 2.046 . S
O293 C292 1.254 . S
C294 O315 1.256 . S
C294 O316 1.244 . S
O295 Zn291 2.055 . S
O295 C317 1.259 . S
O296 Zn288 2.046 . S
O296 C317 1.254 . S
N297 Zn291 2.036 . S
N297 C298 1.298 . S
N297 N300 1.398 . S
C298 N297 1.298 . S
C298 N301 1.367 . S
C298 C311 1.481 . S
C299 N300 1.299 . S
C299 N301 1.379 . S
N300 N297 1.398 . S
N300 C299 1.299 . S
N301 C298 1.367 . S
N301 C299 1.379 . S
C302 N304 1.298 . S
C302 N306 1.367 . S
C302 C310 1.481 . S
C303 N305 1.299 . S
C303 N306 1.379 . S
N304 Zn288 2.036 . S
N304 C302 1.298 . S
N304 N305 1.398 . S
N305 C303 1.299 . S
N305 N304 1.398 . S
N306 C302 1.367 . S
N306 C303 1.379 . S
H307 C310 0.980 . S
H308 C310 0.981 . S
H309 C310 0.981 . S
C310 C302 1.481 . S
C310 H307 0.980 . S
C310 H308 0.981 . S
C310 H309 0.981 . S
C311 C298 1.481 . S
C311 H312 0.980 . S
C311 H313 0.981 . S
C311 H314 0.981 . S
H312 C311 0.980 . S
H313 C311 0.981 . S
H314 C311 0.981 . S
O315 Zn291 2.066 . S
O315 C294 1.256 . S
O316 Zn288 2.053 . S
O316 C294 1.244 . S
C317 O295 1.259 . S
C317 O296 1.254 . S
O318 Zn288 2.066 . S
O318 C290 1.256 . S
O319 C290 1.244 . S
O319 Zn291 2.053 . S
Zn320 O321 2.055 1_455 S
Zn320 O328 2.046 . S
Zn320 N336 2.036 . S
Zn320 O348 2.053 . S
Zn320 O350 2.066 . S
O321 Zn320 2.055 1_655 S
O321 C324 1.259 . S
C322 O350 1.256 1_655 S
C322 O351 1.244 . S
Zn323 O325 2.046 . S
Zn323 O327 2.040 1_655 S
Zn323 N329 2.036 . S
Zn323 O347 2.066 1_655 S
Zn323 O351 2.053 . S
C324 O321 1.259 . S
C324 O325 1.254 . S
O325 Zn323 2.046 . S
O325 C324 1.254 . S
C326 O347 1.256 . S
C326 O348 1.244 . S
O327 Zn323 2.040 1_455 S
O327 C349 1.281 . S
O328 Zn320 2.046 . S
O328 C349 1.254 . S
N329 Zn323 2.036 . S
N329 C330 1.298 . S
N329 N332 1.398 . S
C330 N329 1.298 . S
C330 N333 1.367 . S
C330 C343 1.481 . S
C331 N332 1.299 . S
C331 N333 1.379 . S
N332 N329 1.398 . S
N332 C331 1.299 . S
N333 C330 1.367 . S
N333 C331 1.379 . S
C334 N336 1.298 . S
C334 N338 1.367 . S
C334 C342 1.481 . S
C335 N337 1.299 . S
C335 N338 1.379 . S
N336 Zn320 2.036 . S
N336 C334 1.298 . S
N336 N337 1.398 . S
N337 C335 1.299 . S
N337 N336 1.398 . S
N338 C334 1.367 . S
N338 C335 1.379 . S
H339 C342 0.980 . S
H340 C342 0.981 . S
H341 C342 0.981 . S
C342 C334 1.481 . S
C342 H339 0.980 . S
C342 H340 0.981 . S
C342 H341 0.981 . S
C343 C330 1.481 . S
C343 H344 0.980 . S
C343 H345 0.981 . S
C343 H346 0.981 . S
H344 C343 0.980 . S
H345 C343 0.981 . S
H346 C343 0.981 . S
O347 Zn323 2.066 1_455 S
O347 C326 1.256 . S
O348 Zn320 2.053 . S
O348 C326 1.244 . S
C349 O327 1.281 . S
C349 O328 1.254 . S
O350 Zn320 2.066 . S
O350 C322 1.256 1_455 S
O351 C322 1.244 . S
O351 Zn323 2.053 . S
Zn352 O353 2.055 . S
Zn352 O360 2.046 . S
Zn352 N368 2.036 . S
Zn352 O380 2.053 . S
Zn352 O382 2.066 . S
O353 Zn352 2.055 . S
O353 C356 1.259 . S
C354 O382 1.256 . S
C354 O383 1.244 . S
Zn355 O357 2.046 . S
Zn355 O359 2.055 . S
Zn355 N361 2.036 . S
Zn355 O379 2.066 . S
Zn355 O383 2.053 . S
C356 O353 1.259 . S
C356 O357 1.254 . S
O357 Zn355 2.046 . S
O357 C356 1.254 . S
C358 O379 1.256 . S
C358 O380 1.244 . S
O359 Zn355 2.055 . S
O359 C381 1.259 . S
O360 Zn352 2.046 . S
O360 C381 1.254 . S
N361 Zn355 2.036 . S
N361 C362 1.298 . S
N361 N364 1.398 . S
C362 N361 1.298 . S
C362 N365 1.367 . S
C362 C375 1.481 . S
C363 N364 1.299 . S
C363 N365 1.379 . S
N364 N361 1.398 . S
N364 C363 1.299 . S
N365 C362 1.367 . S
N365 C363 1.379 . S
C366 N368 1.298 . S
C366 N370 1.367 . S
C366 C374 1.481 . S
C367 N369 1.299 . S
C367 N370 1.379 . S
N368 Zn352 2.036 . S
N368 C366 1.298 . S
N368 N369 1.398 . S
N369 C367 1.299 . S
N369 N368 1.398 . S
N370 C366 1.367 . S
N370 C367 1.379 . S
H371 C374 0.980 . S
H372 C374 0.981 . S
H373 C374 0.981 . S
C374 C366 1.481 . S
C374 H371 0.980 . S
C374 H372 0.981 . S
C374 H373 0.981 . S
C375 C362 1.481 . S
C375 H376 0.980 . S
C375 H377 0.981 . S
C375 H378 0.981 . S
H376 C375 0.980 . S
H377 C375 0.981 . S
H378 C375 0.981 . S
O379 Zn355 2.066 . S
O379 C358 1.256 . S
O380 Zn352 2.053 . S
O380 C358 1.244 . S
C381 O359 1.259 . S
C381 O360 1.254 . S
O382 Zn352 2.066 . S
O382 C354 1.256 . S
O383 C354 1.244 . S
O383 Zn355 2.053 . S
Zn384 O385 2.055 . S
Zn384 O392 2.046 . S
Zn384 N400 2.036 . S
Zn384 O412 2.053 . S
Zn384 O414 2.066 . S
O385 Zn384 2.055 . S
O385 C388 1.259 . S
C386 O414 1.256 . S
C386 O415 1.244 . S
Zn387 O389 2.046 . S
Zn387 O391 2.055 . S
Zn387 N393 2.036 . S
Zn387 O411 2.066 . S
Zn387 O415 2.053 . S
C388 O385 1.259 . S
C388 O389 1.254 . S
O389 Zn387 2.046 . S
O389 C388 1.254 . S
C390 O411 1.256 . S
C390 O412 1.244 . S
O391 Zn387 2.055 . S
O391 C413 1.259 . S
O392 Zn384 2.046 . S
O392 C413 1.254 . S
N393 Zn387 2.036 . S
N393 C394 1.298 . S
N393 N396 1.398 . S
C394 N393 1.298 . S
C394 N397 1.367 . S
C394 C407 1.481 . S
C395 N396 1.299 . S
C395 N397 1.379 . S
N396 N393 1.398 . S
N396 C395 1.299 . S
N397 C394 1.367 . S
N397 C395 1.379 . S
C398 N400 1.298 . S
C398 N402 1.367 . S
C398 C406 1.481 . S
C399 N401 1.299 . S
C399 N402 1.379 . S
N400 Zn384 2.036 . S
N400 C398 1.298 . S
N400 N401 1.398 . S
N401 C399 1.299 . S
N401 N400 1.398 . S
N402 C398 1.367 . S
N402 C399 1.379 . S
H403 C406 0.980 . S
H404 C406 0.981 . S
H405 C406 0.981 . S
C406 C398 1.481 . S
C406 H403 0.980 . S
C406 H404 0.981 . S
C406 H405 0.981 . S
C407 C394 1.481 . S
C407 H408 0.980 . S
C407 H409 0.981 . S
C407 H410 0.981 . S
H408 C407 0.980 . S
H409 C407 0.981 . S
H410 C407 0.981 . S
O411 Zn387 2.066 . S
O411 C390 1.256 . S
O412 Zn384 2.053 . S
O412 C390 1.244 . S
C413 O391 1.259 . S
C413 O392 1.254 . S
O414 Zn384 2.066 . S
O414 C386 1.256 . S
O415 C386 1.244 . S
O415 Zn387 2.053 . S
Zn416 O417 2.055 . S
Zn416 O424 2.046 . S
Zn416 N432 2.036 . S
Zn416 O444 2.053 . S
Zn416 O446 2.066 . S
O417 Zn416 2.055 . S
O417 C420 1.259 . S
C418 O446 1.256 . S
C418 O447 1.244 . S
Zn419 O421 2.046 . S
Zn419 O423 2.055 . S
Zn419 N425 2.036 . S
Zn419 O443 2.066 . S
Zn419 O447 2.053 . S
C420 O417 1.259 . S
C420 O421 1.254 . S
O421 Zn419 2.046 . S
O421 C420 1.254 . S
C422 O443 1.256 . S
C422 O444 1.244 . S
O423 Zn419 2.055 . S
O423 C445 1.259 . S
O424 Zn416 2.046 . S
O424 C445 1.254 . S
N425 Zn419 2.036 . S
N425 C426 1.298 . S
N425 N428 1.398 . S
C426 N425 1.298 . S
C426 N429 1.367 . S
C426 C439 1.481 . S
C427 N428 1.299 . S
C427 N429 1.379 . S
N428 N425 1.398 . S
N428 C427 1.299 . S
N429 C426 1.367 . S
N429 C427 1.379 . S
C430 N432 1.298 . S
C430 N434 1.367 . S
C430 C438 1.481 . S
C431 N433 1.299 . S
C431 N434 1.379 . S
N432 Zn416 2.036 . S
N432 C430 1.298 . S
N432 N433 1.398 . S
N433 C431 1.299 . S
N433 N432 1.398 . S
N434 C430 1.367 . S
N434 C431 1.379 . S
H435 C438 0.980 . S
H436 C438 0.981 . S
H437 C438 0.981 . S
C438 C430 1.481 . S
C438 H435 0.980 . S
C438 H436 0.981 . S
C438 H437 0.981 . S
C439 C426 1.481 . S
C439 H440 0.980 . S
C439 H441 0.981 . S
C439 H442 0.981 . S
H440 C439 0.980 . S
H441 C439 0.981 . S
H442 C439 0.981 . S
O443 Zn419 2.066 . S
O443 C422 1.256 . S
O444 Zn416 2.053 . S
O444 C422 1.244 . S
C445 O423 1.259 . S
C445 O424 1.254 . S
O446 Zn416 2.066 . S
O446 C418 1.256 . S
O447 C418 1.244 . S
O447 Zn419 2.053 . S
Zn448 O449 2.055 . S
Zn448 O456 2.046 . S
Zn448 N464 2.036 . S
Zn448 O476 2.053 . S
Zn448 O478 2.066 . S
O449 Zn448 2.055 . S
O449 C452 1.259 . S
C450 O478 1.256 . S
C450 O479 1.244 . S
Zn451 O453 2.046 . S
Zn451 O455 2.055 . S
Zn451 N457 2.036 . S
Zn451 O475 2.066 . S
Zn451 O479 2.053 . S
C452 O449 1.259 . S
C452 O453 1.254 . S
O453 Zn451 2.046 . S
O453 C452 1.254 . S
C454 O475 1.256 . S
C454 O476 1.244 . S
O455 Zn451 2.055 . S
O455 C477 1.259 . S
O456 Zn448 2.046 . S
O456 C477 1.254 . S
N457 Zn451 2.036 . S
N457 C458 1.298 . S
N457 N460 1.398 . S
C458 N457 1.298 . S
C458 N461 1.367 . S
C458 C471 1.481 . S
C459 N460 1.299 . S
C459 N461 1.379 . S
N460 N457 1.398 . S
N460 C459 1.299 . S
N461 C458 1.367 . S
N461 C459 1.379 . S
C462 N464 1.298 . S
C462 N466 1.367 . S
C462 C470 1.481 . S
C463 N465 1.299 . S
C463 N466 1.379 . S
N464 Zn448 2.036 . S
N464 C462 1.298 . S
N464 N465 1.398 . S
N465 C463 1.299 . S
N465 N464 1.398 . S
N466 C462 1.367 . S
N466 C463 1.379 . S
H467 C470 0.980 . S
H468 C470 0.981 . S
H469 C470 0.981 . S
C470 C462 1.481 . S
C470 H467 0.980 . S
C470 H468 0.981 . S
C470 H469 0.981 . S
C471 C458 1.481 . S
C471 H472 0.980 . S
C471 H473 0.981 . S
C471 H474 0.981 . S
H472 C471 0.980 . S
H473 C471 0.981 . S
H474 C471 0.981 . S
O475 Zn451 2.066 . S
O475 C454 1.256 . S
O476 Zn448 2.053 . S
O476 C454 1.244 . S
C477 O455 1.259 . S
C477 O456 1.254 . S
O478 Zn448 2.066 . S
O478 C450 1.256 . S
O479 C450 1.244 . S
O479 Zn451 2.053 . S
Zn480 O481 2.055 1_454 S
Zn480 O488 2.046 1_554 S
Zn480 N496 2.036 . S
Zn480 O508 2.053 . S
Zn480 O510 2.066 1_455 S
O481 Zn480 2.055 1_656 S
O481 C484 1.259 . S
C482 O510 1.256 . S
C482 O511 1.244 . S
Zn483 O485 2.040 1_554 S
Zn483 O487 2.050 1_654 S
Zn483 N489 2.034 1_554 S
Zn483 O507 2.073 . S
Zn483 O511 2.060 . S
C484 O481 1.259 . S
C484 O485 1.254 . S
O485 Zn483 2.040 1_556 S
O485 C484 1.254 . S
C486 O507 1.255 1_455 S
C486 O508 1.244 . S
O487 Zn483 2.050 1_456 S
O487 C509 1.259 . S
O488 Zn480 2.046 1_556 S
O488 C509 1.254 . S
N489 Zn483 2.034 1_556 S
N489 C490 1.298 . S
N489 N492 1.398 . S
C490 N489 1.298 . S
C490 N493 1.367 . S
C490 C503 1.481 . S
C491 N492 1.299 . S
C491 N493 1.379 . S
N492 N489 1.398 . S
N492 C491 1.299 . S
N493 C490 1.367 . S
N493 C491 1.379 . S
C494 N496 1.298 . S
C494 N498 1.367 . S
C494 C502 1.481 . S
C495 N497 1.299 . S
C495 N498 1.379 . S
N496 Zn480 2.036 . S
N496 C494 1.298 . S
N496 N497 1.398 . S
N497 C495 1.299 . S
N497 N496 1.398 . S
N498 C494 1.367 . S
N498 C495 1.379 . S
H499 C502 0.980 . S
H500 C502 0.981 . S
H501 C502 0.981 . S
C502 C494 1.481 . S
C502 H499 0.980 . S
C502 H500 0.981 . S
C502 H501 0.981 . S
C503 C490 1.481 . S
C503 H504 0.980 . S
C503 H505 0.981 . S
C503 H506 0.981 . S
H504 C503 0.980 . S
H505 C503 0.981 . S
H506 C503 0.981 . S
O507 Zn483 2.073 . S
O507 C486 1.255 1_655 S
O508 Zn480 2.053 . S
O508 C486 1.244 . S
C509 O487 1.259 . S
C509 O488 1.254 . S
O510 Zn480 2.066 1_655 S
O510 C482 1.256 . S
O511 C482 1.244 . S
O511 Zn483 2.060 . S
H512 C520 0.929 . S
H513 C522 0.930 . S
H514 C524 0.930 . S
H515 C527 0.929 . S
H516 C530 0.930 . S
H517 C532 0.960 . S
H518 C532 0.960 . S
H519 C532 0.960 . S
C520 H512 0.929 . S
C520 C521 1.377 . S
C520 C522 1.384 . S
C521 C520 1.377 . S
C521 C527 1.390 . S
C522 H513 0.930 . S
C522 C520 1.384 . S
C522 C523 1.372 . S
C523 C522 1.372 . S
C523 C524 1.400 . S
C523 C528 1.490 . S
C524 H514 0.930 . S
C524 C523 1.400 . S
C524 C527 1.386 . S
H525 C541 0.930 . S
H526 C542 0.931 . S
C527 H515 0.929 . S
C527 C521 1.390 . S
C527 C524 1.386 . S
C528 C523 1.490 . S
C528 C530 1.395 . S
C528 C531 1.403 . S
H529 C535 0.930 . S
C530 H516 0.930 . S
C530 C528 1.395 . S
C530 C533 1.403 . S
C531 C528 1.403 . S
C531 C532 1.524 . S
C531 C535 1.400 . S
C532 H517 0.960 . S
C532 H518 0.960 . S
C532 H519 0.960 . S
C532 C531 1.524 . S
C533 C530 1.403 . S
C533 C534 1.392 . S
C533 C537 1.495 . S
C534 C533 1.392 . S
C534 C535 1.385 . S
C534 C536 1.478 . S
C535 H529 0.930 . S
C535 C531 1.400 . S
C535 C534 1.385 . S
C536 C534 1.478 . S
C536 C538 1.381 . S
C536 C542 1.383 . S
C537 C533 1.495 . S
C537 H543 0.959 . S
C537 H544 0.961 . S
C537 H545 0.960 . S
C538 C536 1.381 . S
C538 C539 1.394 . S
C538 H546 0.930 . S
C539 C538 1.394 . S
C539 C540 1.383 . S
C539 H547 0.929 . S
C540 C539 1.383 . S
C540 C541 1.377 . S
C541 H525 0.930 . S
C541 C540 1.377 . S
C541 C542 1.379 . S
C542 H526 0.931 . S
C542 C536 1.383 . S
C542 C541 1.379 . S
H543 C537 0.959 . S
H544 C537 0.961 . S
H545 C537 0.960 . S
H546 C538 0.930 . S
H547 C539 0.929 . S
H548 C556 0.929 . S
H549 C558 0.930 . S
H550 C560 0.930 . S
H551 C563 0.929 . S
H552 C566 0.930 . S
H553 C568 0.960 . S
H554 C568 0.960 . S
H555 C568 0.960 . S
C556 H548 0.929 . S
C556 C557 1.377 . S
C556 C558 1.384 . S
C557 C556 1.377 . S
C557 C563 1.390 . S
C558 H549 0.930 . S
C558 C556 1.384 . S
C558 C559 1.372 . S
C559 C558 1.372 . S
C559 C560 1.400 . S
C559 C564 1.490 . S
C560 H550 0.930 . S
C560 C559 1.400 . S
C560 C563 1.386 . S
H561 C577 0.930 . S
H562 C578 0.931 . S
C563 H551 0.929 . S
C563 C557 1.390 . S
C563 C560 1.386 . S
C564 C559 1.490 . S
C564 C566 1.395 . S
C564 C567 1.403 . S
H565 C571 0.930 . S
C566 H552 0.930 . S
C566 C564 1.395 . S
C566 C569 1.403 . S
C567 C564 1.403 . S
C567 C568 1.524 . S
C567 C571 1.400 . S
C568 H553 0.960 . S
C568 H554 0.960 . S
C568 H555 0.960 . S
C568 C567 1.524 . S
C569 C566 1.403 . S
C569 C570 1.392 . S
C569 C573 1.495 . S
C570 C569 1.392 . S
C570 C571 1.385 . S
C570 C572 1.478 . S
C571 H565 0.930 . S
C571 C567 1.400 . S
C571 C570 1.385 . S
C572 C570 1.478 . S
C572 C574 1.381 . S
C572 C578 1.383 . S
C573 C569 1.495 . S
C573 H579 0.959 . S
C573 H580 0.961 . S
C573 H581 0.960 . S
C574 C572 1.381 . S
C574 C575 1.394 . S
C574 H582 0.930 . S
C575 C574 1.394 . S
C575 C576 1.383 . S
C575 H583 0.929 . S
C576 C575 1.383 . S
C576 C577 1.377 . S
C577 H561 0.930 . S
C577 C576 1.377 . S
C577 C578 1.379 . S
C578 H562 0.931 . S
C578 C572 1.383 . S
C578 C577 1.379 . S
H579 C573 0.959 . S
H580 C573 0.961 . S
H581 C573 0.960 . S
H582 C574 0.930 . S
H583 C575 0.929 . S
H584 C592 0.929 . S
H585 C594 0.930 . S
H586 C596 0.930 . S
H587 C599 0.929 . S
H588 C602 0.930 . S
H589 C604 0.960 . S
H590 C604 0.960 . S
H591 C604 0.960 . S
C592 H584 0.929 . S
C592 C593 1.377 . S
C592 C594 1.384 . S
C593 C592 1.377 . S
C593 C599 1.390 . S
C594 H585 0.930 . S
C594 C592 1.384 . S
C594 C595 1.372 . S
C595 C594 1.372 . S
C595 C596 1.400 . S
C595 C600 1.490 . S
C596 H586 0.930 . S
C596 C595 1.400 . S
C596 C599 1.386 . S
H597 C613 0.930 . S
H598 C614 0.931 . S
C599 H587 0.929 . S
C599 C593 1.390 . S
C599 C596 1.386 . S
C600 C595 1.490 . S
C600 C602 1.395 . S
C600 C603 1.403 . S
H601 C607 0.930 . S
C602 H588 0.930 . S
C602 C600 1.395 . S
C602 C605 1.403 . S
C603 C600 1.403 . S
C603 C604 1.524 . S
C603 C607 1.400 . S
C604 H589 0.960 . S
C604 H590 0.960 . S
C604 H591 0.960 . S
C604 C603 1.524 . S
C605 C602 1.403 . S
C605 C606 1.392 . S
C605 C609 1.495 . S
C606 C605 1.392 . S
C606 C607 1.385 . S
C606 C608 1.478 . S
C607 H601 0.930 . S
C607 C603 1.400 . S
C607 C606 1.385 . S
C608 C606 1.478 . S
C608 C610 1.381 . S
C608 C614 1.383 . S
C609 C605 1.495 . S
C609 H615 0.959 . S
C609 H616 0.961 . S
C609 H617 0.960 . S
C610 C608 1.381 . S
C610 C611 1.394 . S
C610 H618 0.930 . S
C611 C610 1.394 . S
C611 C612 1.383 . S
C611 H619 0.929 . S
C612 C611 1.383 . S
C612 C613 1.377 . S
C613 H597 0.930 . S
C613 C612 1.377 . S
C613 C614 1.379 . S
C614 H598 0.931 . S
C614 C608 1.383 . S
C614 C613 1.379 . S
H615 C609 0.959 . S
H616 C609 0.961 . S
H617 C609 0.960 . S
H618 C610 0.930 . S
H619 C611 0.929 . S
H620 C628 0.929 . S
H621 C630 0.930 . S
H622 C632 0.930 . S
H623 C635 0.929 . S
H624 C638 0.930 . S
H625 C640 0.960 . S
H626 C640 0.960 . S
H627 C640 0.960 . S
C628 H620 0.929 . S
C628 C629 1.377 . S
C628 C630 1.384 . S
C629 C628 1.377 . S
C629 C635 1.390 . S
C630 H621 0.930 . S
C630 C628 1.384 . S
C630 C631 1.372 . S
C631 C630 1.372 . S
C631 C632 1.400 . S
C631 C636 1.490 . S
C632 H622 0.930 . S
C632 C631 1.400 . S
C632 C635 1.386 . S
H633 C649 0.930 . S
H634 C650 0.931 . S
C635 H623 0.929 . S
C635 C629 1.390 . S
C635 C632 1.386 . S
C636 C631 1.490 . S
C636 C638 1.395 . S
C636 C639 1.403 . S
H637 C643 0.930 . S
C638 H624 0.930 . S
C638 C636 1.395 . S
C638 C641 1.403 . S
C639 C636 1.403 . S
C639 C640 1.524 . S
C639 C643 1.400 . S
C640 H625 0.960 . S
C640 H626 0.960 . S
C640 H627 0.960 . S
C640 C639 1.524 . S
C641 C638 1.403 . S
C641 C642 1.392 . S
C641 C645 1.495 . S
C642 C641 1.392 . S
C642 C643 1.385 . S
C642 C644 1.478 . S
C643 H637 0.930 . S
C643 C639 1.400 . S
C643 C642 1.385 . S
C644 C642 1.478 . S
C644 C646 1.381 . S
C644 C650 1.383 . S
C645 C641 1.495 . S
C645 H651 0.959 . S
C645 H652 0.961 . S
C645 H653 0.960 . S
C646 C644 1.381 . S
C646 C647 1.394 . S
C646 H654 0.930 . S
C647 C646 1.394 . S
C647 C648 1.383 . S
C647 H655 0.929 . S
C648 C647 1.383 . S
C648 C649 1.377 . S
C649 H633 0.930 . S
C649 C648 1.377 . S
C649 C650 1.379 . S
C650 H634 0.931 . S
C650 C644 1.383 . S
C650 C649 1.379 . S
H651 C645 0.959 . S
H652 C645 0.961 . S
H653 C645 0.960 . S
H654 C646 0.930 . S
H655 C647 0.929 . S
H656 C664 0.929 . S
H657 C666 0.930 . S
H658 C668 0.930 . S
H659 C671 0.929 . S
H660 C674 0.930 . S
H661 C676 0.960 . S
H662 C676 0.960 . S
H663 C676 0.960 . S
C664 H656 0.929 . S
C664 C665 1.377 . S
C664 C666 1.384 . S
C665 C664 1.377 . S
C665 C671 1.390 . S
C666 H657 0.930 . S
C666 C664 1.384 . S
C666 C667 1.372 . S
C667 C666 1.372 . S
C667 C668 1.400 . S
C667 C672 1.490 . S
C668 H658 0.930 . S
C668 C667 1.400 . S
C668 C671 1.386 . S
H669 C685 0.930 . S
H670 C686 0.931 . S
C671 H659 0.929 . S
C671 C665 1.390 . S
C671 C668 1.386 . S
C672 C667 1.490 . S
C672 C674 1.395 . S
C672 C675 1.403 . S
H673 C679 0.930 . S
C674 H660 0.930 . S
C674 C672 1.395 . S
C674 C677 1.403 . S
C675 C672 1.403 . S
C675 C676 1.524 . S
C675 C679 1.400 . S
C676 H661 0.960 . S
C676 H662 0.960 . S
C676 H663 0.960 . S
C676 C675 1.524 . S
C677 C674 1.403 . S
C677 C678 1.392 . S
C677 C681 1.495 . S
C678 C677 1.392 . S
C678 C679 1.385 . S
C678 C680 1.478 . S
C679 H673 0.930 . S
C679 C675 1.400 . S
C679 C678 1.385 . S
C680 C678 1.478 . S
C680 C682 1.381 . S
C680 C686 1.383 . S
C681 C677 1.495 . S
C681 H687 0.959 . S
C681 H688 0.961 . S
C681 H689 0.960 . S
C682 C680 1.381 . S
C682 C683 1.394 . S
C682 H690 0.930 . S
C683 C682 1.394 . S
C683 C684 1.383 . S
C683 H691 0.929 . S
C684 C683 1.383 . S
C684 C685 1.377 . S
C685 H669 0.930 . S
C685 C684 1.377 . S
C685 C686 1.379 . S
C686 H670 0.931 . S
C686 C680 1.383 . S
C686 C685 1.379 . S
H687 C681 0.959 . S
H688 C681 0.961 . S
H689 C681 0.960 . S
H690 C682 0.930 . S
H691 C683 0.929 . S
H692 C700 0.929 . S
H693 C702 0.930 . S
H694 C704 0.930 . S
H695 C707 0.929 . S
H696 C710 0.930 . S
H697 C712 0.960 . S
H698 C712 0.960 . S
H699 C712 0.960 . S
C700 H692 0.929 . S
C700 C701 1.377 . S
C700 C702 1.384 . S
C701 C700 1.377 . S
C701 C707 1.390 . S
C702 H693 0.930 . S
C702 C700 1.384 . S
C702 C703 1.372 . S
C703 C702 1.372 . S
C703 C704 1.400 . S
C703 C708 1.490 . S
C704 H694 0.930 . S
C704 C703 1.400 . S
C704 C707 1.386 . S
H705 C721 0.930 1_545 S
H706 C722 0.931 . S
C707 H695 0.929 . S
C707 C701 1.390 . S
C707 C704 1.386 . S
C708 C703 1.490 . S
C708 C710 1.395 . S
C708 C711 1.403 . S
H709 C715 0.930 . S
C710 H696 0.930 . S
C710 C708 1.395 . S
C710 C713 1.403 . S
C711 C708 1.403 . S
C711 C712 1.524 . S
C711 C715 1.400 . S
C712 H697 0.960 . S
C712 H698 0.960 . S
C712 H699 0.960 . S
C712 C711 1.524 . S
C713 C710 1.403 . S
C713 C714 1.392 . S
C713 C717 1.495 . S
C714 C713 1.392 . S
C714 C715 1.385 . S
C714 C716 1.478 . S
C715 H709 0.930 . S
C715 C711 1.400 . S
C715 C714 1.385 . S
C716 C714 1.478 . S
C716 C718 1.381 . S
C716 C722 1.383 . S
C717 C713 1.495 . S
C717 H723 0.959 . S
C717 H724 0.961 . S
C717 H725 0.960 . S
C718 C716 1.381 . S
C718 C719 1.394 . S
C718 H726 0.930 . S
C719 C718 1.394 . S
C719 C720 1.383 . S
C719 H727 0.929 . S
C720 C719 1.383 . S
C720 C721 1.377 . S
C721 H705 0.930 1_565 S
C721 C720 1.377 . S
C721 C722 1.379 . S
C722 H706 0.931 . S
C722 C716 1.383 . S
C722 C721 1.379 . S
H723 C717 0.959 . S
H724 C717 0.961 . S
H725 C717 0.960 . S
H726 C718 0.930 . S
H727 C719 0.929 . S
H728 C736 0.929 . S
H729 C738 0.930 . S
H730 C740 0.930 . S
H731 C743 0.929 . S
H732 C746 0.930 . S
H733 C748 0.960 . S
H734 C748 0.960 . S
H735 C748 0.960 . S
C736 H728 0.929 . S
C736 C737 1.377 . S
C736 C738 1.384 . S
C737 C736 1.377 . S
C737 C743 1.390 . S
C738 H729 0.930 . S
C738 C736 1.384 . S
C738 C739 1.372 . S
C739 C738 1.372 . S
C739 C740 1.400 . S
C739 C744 1.490 . S
C740 H730 0.930 . S
C740 C739 1.400 . S
C740 C743 1.386 . S
H741 C757 0.930 . S
H742 C758 0.931 . S
C743 H731 0.929 . S
C743 C737 1.390 . S
C743 C740 1.386 . S
C744 C739 1.490 . S
C744 C746 1.395 . S
C744 C747 1.403 . S
H745 C751 0.930 . S
C746 H732 0.930 . S
C746 C744 1.395 . S
C746 C749 1.403 . S
C747 C744 1.403 . S
C747 C748 1.524 . S
C747 C751 1.400 . S
C748 H733 0.960 . S
C748 H734 0.960 . S
C748 H735 0.960 . S
C748 C747 1.524 . S
C749 C746 1.403 . S
C749 C750 1.392 . S
C749 C753 1.495 . S
C750 C749 1.392 . S
C750 C751 1.385 . S
C750 C752 1.478 . S
C751 H745 0.930 . S
C751 C747 1.400 . S
C751 C750 1.385 . S
C752 C750 1.478 . S
C752 C754 1.381 . S
C752 C758 1.383 . S
C753 C749 1.495 . S
C753 H759 0.959 . S
C753 H760 0.961 . S
C753 H761 0.960 . S
C754 C752 1.381 . S
C754 C755 1.394 . S
C754 H762 0.930 . S
C755 C754 1.394 . S
C755 C756 1.383 . S
C755 H763 0.929 . S
C756 C755 1.383 . S
C756 C757 1.377 . S
C757 H741 0.930 . S
C757 C756 1.377 . S
C757 C758 1.379 . S
C758 H742 0.931 . S
C758 C752 1.383 . S
C758 C757 1.379 . S
H759 C753 0.959 . S
H760 C753 0.961 . S
H761 C753 0.960 . S
H762 C754 0.930 . S
H763 C755 0.929 . S
H764 C772 0.929 . S
H765 C774 0.930 . S
H766 C776 0.930 . S
H767 C779 0.929 . S
H768 C782 0.930 . S
H769 C784 0.960 . S
H770 C784 0.960 . S
H771 C784 0.960 . S
C772 H764 0.929 . S
C772 C773 1.377 . S
C772 C774 1.384 . S
C773 C772 1.377 . S
C773 C779 1.390 . S
C774 H765 0.930 . S
C774 C772 1.384 . S
C774 C775 1.372 . S
C775 C774 1.372 . S
C775 C776 1.400 . S
C775 C780 1.490 . S
C776 H766 0.930 . S
C776 C775 1.400 . S
C776 C779 1.386 . S
H777 C793 0.930 . S
H778 C794 0.931 . S
C779 H767 0.929 . S
C779 C773 1.390 . S
C779 C776 1.386 . S
C780 C775 1.490 . S
C780 C782 1.395 . S
C780 C783 1.403 . S
H781 C787 0.930 . S
C782 H768 0.930 . S
C782 C780 1.395 . S
C782 C785 1.403 . S
C783 C780 1.403 . S
C783 C784 1.524 . S
C783 C787 1.400 . S
C784 H769 0.960 . S
C784 H770 0.960 . S
C784 H771 0.960 . S
C784 C783 1.524 . S
C785 C782 1.403 . S
C785 C786 1.392 . S
C785 C789 1.495 . S
C786 C785 1.392 . S
C786 C787 1.385 . S
C786 C788 1.478 . S
C787 H781 0.930 . S
C787 C783 1.400 . S
C787 C786 1.385 . S
C788 C786 1.478 . S
C788 C790 1.381 . S
C788 C794 1.383 . S
C789 C785 1.495 . S
C789 H795 0.959 . S
C789 H796 0.961 . S
C789 H797 0.960 . S
C790 C788 1.381 . S
C790 C791 1.394 . S
C790 H798 0.930 . S
C791 C790 1.394 . S
C791 C792 1.383 . S
C791 H799 0.929 . S
C792 C791 1.383 . S
C792 C793 1.377 . S
C793 H777 0.930 . S
C793 C792 1.377 . S
C793 C794 1.379 . S
C794 H778 0.931 . S
C794 C788 1.383 . S
C794 C793 1.379 . S
H795 C789 0.959 . S
H796 C789 0.961 . S
H797 C789 0.960 . S
H798 C790 0.930 . S
H799 C791 0.929 . S
H800 C808 0.929 . S
H801 C810 0.930 . S
H802 C812 0.930 . S
H803 C815 0.929 . S
H804 C818 0.930 . S
H805 C820 0.960 . S
H806 C820 0.960 . S
H807 C820 0.960 . S
C808 H800 0.929 . S
C808 C809 1.377 . S
C808 C810 1.384 . S
C809 C808 1.377 . S
C809 C815 1.390 . S
C810 H801 0.930 . S
C810 C808 1.384 . S
C810 C811 1.372 . S
C811 C810 1.372 . S
C811 C812 1.400 . S
C811 C816 1.490 . S
C812 H802 0.930 . S
C812 C811 1.400 . S
C812 C815 1.386 . S
H813 C829 0.935 . S
H814 C830 0.931 . S
C815 H803 0.929 . S
C815 C809 1.390 . S
C815 C812 1.386 . S
C816 C811 1.490 . S
C816 C818 1.395 . S
C816 C819 1.403 . S
H817 C823 0.930 . S
C818 H804 0.930 . S
C818 C816 1.395 . S
C818 C821 1.403 . S
C819 C816 1.403 . S
C819 C820 1.524 . S
C819 C823 1.400 . S
C820 H805 0.960 . S
C820 H806 0.960 . S
C820 H807 0.960 . S
C820 C819 1.524 . S
C821 C818 1.403 . S
C821 C822 1.392 . S
C821 C825 1.495 . S
C822 C821 1.392 . S
C822 C823 1.385 . S
C822 C824 1.478 . S
C823 H817 0.930 . S
C823 C819 1.400 . S
C823 C822 1.385 . S
C824 C822 1.478 . S
C824 C826 1.381 . S
C824 C830 1.383 . S
C825 C821 1.495 . S
C825 H831 0.959 . S
C825 H832 0.961 . S
C825 H833 0.960 . S
C826 C824 1.381 . S
C826 C827 1.394 . S
C826 H834 0.930 . S
C827 C826 1.394 . S
C827 C828 1.383 . S
C827 H835 0.929 . S
C828 C827 1.383 . S
C828 C829 1.377 . S
C829 H813 0.935 . S
C829 C828 1.377 . S
C829 C830 1.379 . S
C830 H814 0.931 . S
C830 C824 1.383 . S
C830 C829 1.379 . S
H831 C825 0.959 . S
H832 C825 0.961 . S
H833 C825 0.960 . S
H834 C826 0.930 . S
H835 C827 0.929 . S
H836 C844 0.929 . S
H837 C846 0.930 . S
H838 C848 0.930 . S
H839 C851 0.929 . S
H840 C854 0.930 . S
H841 C856 0.960 . S
H842 C856 0.960 . S
H843 C856 0.960 . S
C844 H836 0.929 . S
C844 C845 1.377 . S
C844 C846 1.384 . S
C845 C844 1.377 . S
C845 C851 1.390 . S
C846 H837 0.930 . S
C846 C844 1.384 . S
C846 C847 1.372 . S
C847 C846 1.372 . S
C847 C848 1.400 . S
C847 C852 1.490 . S
C848 H838 0.930 . S
C848 C847 1.400 . S
C848 C851 1.386 . S
H849 C865 0.930 . S
H850 C866 0.931 . S
C851 H839 0.929 . S
C851 C845 1.390 . S
C851 C848 1.386 . S
C852 C847 1.490 . S
C852 C854 1.395 . S
C852 C855 1.403 . S
H853 C859 0.930 . S
C854 H840 0.930 . S
C854 C852 1.395 . S
C854 C857 1.403 . S
C855 C852 1.403 . S
C855 C856 1.524 . S
C855 C859 1.400 . S
C856 H841 0.960 . S
C856 H842 0.960 . S
C856 H843 0.960 . S
C856 C855 1.524 . S
C857 C854 1.403 . S
C857 C858 1.392 . S
C857 C861 1.495 . S
C858 C857 1.392 . S
C858 C859 1.385 . S
C858 C860 1.478 . S
C859 H853 0.930 . S
C859 C855 1.400 . S
C859 C858 1.385 . S
C860 C858 1.478 . S
C860 C862 1.381 . S
C860 C866 1.383 . S
C861 C857 1.495 . S
C861 H867 0.959 . S
C861 H868 0.961 . S
C861 H869 0.960 . S
C862 C860 1.381 . S
C862 C863 1.394 . S
C862 H870 0.930 . S
C863 C862 1.394 . S
C863 C864 1.383 . S
C863 H871 0.929 . S
C864 C863 1.383 . S
C864 C865 1.377 . S
C865 H849 0.930 . S
C865 C864 1.377 . S
C865 C866 1.379 . S
C866 H850 0.931 . S
C866 C860 1.383 . S
C866 C865 1.379 . S
H867 C861 0.959 . S
H868 C861 0.961 . S
H869 C861 0.960 . S
H870 C862 0.930 . S
H871 C863 0.929 . S
H872 C880 0.929 . S
H873 C882 0.930 . S
H874 C884 0.930 . S
H875 C887 0.929 . S
H876 C890 0.930 . S
H877 C892 0.960 . S
H878 C892 0.960 . S
H879 C892 0.960 . S
C880 H872 0.929 . S
C880 C881 1.377 . S
C880 C882 1.384 . S
C881 C880 1.377 . S
C881 C887 1.390 . S
C882 H873 0.930 . S
C882 C880 1.384 . S
C882 C883 1.372 . S
C883 C882 1.372 . S
C883 C884 1.400 . S
C883 C888 1.490 . S
C884 H874 0.930 . S
C884 C883 1.400 . S
C884 C887 1.386 . S
H885 C901 0.930 . S
H886 C902 0.931 . S
C887 H875 0.929 . S
C887 C881 1.390 . S
C887 C884 1.386 . S
C888 C883 1.490 . S
C888 C890 1.395 . S
C888 C891 1.403 . S
H889 C895 0.930 . S
C890 H876 0.930 . S
C890 C888 1.395 . S
C890 C893 1.403 . S
C891 C888 1.403 . S
C891 C892 1.524 . S
C891 C895 1.400 . S
C892 H877 0.960 . S
C892 H878 0.960 . S
C892 H879 0.960 . S
C892 C891 1.524 . S
C893 C890 1.403 . S
C893 C894 1.392 . S
C893 C897 1.495 . S
C894 C893 1.392 . S
C894 C895 1.385 . S
C894 C896 1.478 . S
C895 H889 0.930 . S
C895 C891 1.400 . S
C895 C894 1.385 . S
C896 C894 1.478 . S
C896 C898 1.381 . S
C896 C902 1.383 . S
C897 C893 1.495 . S
C897 H903 0.959 . S
C897 H904 0.961 . S
C897 H905 0.960 . S
C898 C896 1.381 . S
C898 C899 1.394 . S
C898 H906 0.930 . S
C899 C898 1.394 . S
C899 C900 1.383 . S
C899 H907 0.929 . S
C900 C899 1.383 . S
C900 C901 1.377 . S
C901 H885 0.930 . S
C901 C900 1.377 . S
C901 C902 1.379 . S
C902 H886 0.931 . S
C902 C896 1.383 . S
C902 C901 1.379 . S
H903 C897 0.959 . S
H904 C897 0.961 . S
H905 C897 0.960 . S
H906 C898 0.930 . S
H907 C899 0.929 . S
H908 C916 0.929 . S
H909 C918 0.930 . S
H910 C920 0.930 . S
H911 C923 0.929 . S
H912 C926 0.930 . S
H913 C928 0.960 . S
H914 C928 0.960 . S
H915 C928 0.960 . S
C916 H908 0.929 . S
C916 C917 1.377 . S
C916 C918 1.384 . S
C917 C916 1.377 . S
C917 C923 1.390 . S
C918 H909 0.930 . S
C918 C916 1.384 . S
C918 C919 1.372 . S
C919 C918 1.372 . S
C919 C920 1.400 . S
C919 C924 1.490 . S
C920 H910 0.930 . S
C920 C919 1.400 . S
C920 C923 1.386 . S
H921 C937 0.930 . S
H922 C938 0.931 . S
C923 H911 0.929 . S
C923 C917 1.390 . S
C923 C920 1.386 . S
C924 C919 1.490 . S
C924 C926 1.395 . S
C924 C927 1.403 . S
H925 C931 0.930 . S
C926 H912 0.930 . S
C926 C924 1.395 . S
C926 C929 1.403 . S
C927 C924 1.403 . S
C927 C928 1.524 . S
C927 C931 1.400 . S
C928 H913 0.960 . S
C928 H914 0.960 . S
C928 H915 0.960 . S
C928 C927 1.524 . S
C929 C926 1.403 . S
C929 C930 1.392 . S
C929 C933 1.495 . S
C930 C929 1.392 . S
C930 C931 1.385 . S
C930 C932 1.478 . S
C931 H925 0.930 . S
C931 C927 1.400 . S
C931 C930 1.385 . S
C932 C930 1.478 . S
C932 C934 1.381 . S
C932 C938 1.383 . S
C933 C929 1.495 . S
C933 H939 0.959 . S
C933 H940 0.961 . S
C933 H941 0.960 . S
C934 C932 1.381 . S
C934 C935 1.394 . S
C934 H942 0.930 . S
C935 C934 1.394 . S
C935 C936 1.383 . S
C935 H943 0.929 . S
C936 C935 1.383 . S
C936 C937 1.377 . S
C937 H921 0.930 . S
C937 C936 1.377 . S
C937 C938 1.379 . S
C938 H922 0.931 . S
C938 C932 1.383 . S
C938 C937 1.379 . S
H939 C933 0.959 . S
H940 C933 0.961 . S
H941 C933 0.960 . S
H942 C934 0.930 . S
H943 C935 0.929 . S
H944 C952 0.929 . S
H945 C954 0.930 . S
H946 C956 0.930 . S
H947 C959 0.929 . S
H948 C962 0.930 . S
H949 C964 0.960 . S
H950 C964 0.960 . S
H951 C964 0.960 . S
C952 H944 0.929 . S
C952 C953 1.377 . S
C952 C954 1.384 . S
C953 C952 1.377 . S
C953 C959 1.390 . S
C954 H945 0.930 . S
C954 C952 1.384 . S
C954 C955 1.372 . S
C955 C954 1.372 . S
C955 C956 1.400 . S
C955 C960 1.490 . S
C956 H946 0.930 . S
C956 C955 1.400 . S
C956 C959 1.386 . S
H957 C973 0.930 . S
H958 C974 0.931 . S
C959 H947 0.929 . S
C959 C953 1.390 . S
C959 C956 1.386 . S
C960 C955 1.490 . S
C960 C962 1.395 . S
C960 C963 1.403 . S
H961 C967 0.930 . S
C962 H948 0.930 . S
C962 C960 1.395 . S
C962 C965 1.403 . S
C963 C960 1.403 . S
C963 C964 1.524 . S
C963 C967 1.400 . S
C964 H949 0.960 . S
C964 H950 0.960 . S
C964 H951 0.960 . S
C964 C963 1.524 . S
C965 C962 1.403 . S
C965 C966 1.392 . S
C965 C969 1.495 . S
C966 C965 1.392 . S
C966 C967 1.385 . S
C966 C968 1.478 . S
C967 H961 0.930 . S
C967 C963 1.400 . S
C967 C966 1.385 . S
C968 C966 1.478 . S
C968 C970 1.381 . S
C968 C974 1.383 . S
C969 C965 1.495 . S
C969 H975 0.959 . S
C969 H976 0.961 . S
C969 H977 0.960 . S
C970 C968 1.381 . S
C970 C971 1.394 . S
C970 H978 0.930 . S
C971 C970 1.394 . S
C971 C972 1.383 . S
C971 H979 0.929 1_655 S
C972 C971 1.383 . S
C972 C973 1.377 . S
C973 H957 0.930 . S
C973 C972 1.377 . S
C973 C974 1.379 . S
C974 H958 0.931 . S
C974 C968 1.383 . S
C974 C973 1.379 . S
H975 C969 0.959 . S
H976 C969 0.961 . S
H977 C969 0.960 . S
H978 C970 0.930 . S
H979 C971 0.929 1_455 S
H980 C988 0.929 . S
H981 C990 0.930 . S
H982 C992 0.930 . S
H983 C995 0.929 . S
H984 C998 0.930 . S
H985 C1000 0.960 . S
H986 C1000 0.960 . S
H987 C1000 0.960 . S
C988 H980 0.929 . S
C988 C989 1.377 . S
C988 C990 1.384 . S
C989 C988 1.377 . S
C989 C995 1.390 . S
C990 H981 0.930 . S
C990 C988 1.384 . S
C990 C991 1.372 . S
C991 C990 1.372 . S
C991 C992 1.400 . S
C991 C996 1.490 . S
C992 H982 0.930 . S
C992 C991 1.400 . S
C992 C995 1.386 . S
H993 C1009 0.930 . S
H994 C1010 0.931 . S
C995 H983 0.929 . S
C995 C989 1.390 . S
C995 C992 1.386 . S
C996 C991 1.490 . S
C996 C998 1.395 . S
C996 C999 1.403 . S
H997 C1003 0.930 . S
C998 H984 0.930 . S
C998 C996 1.395 . S
C998 C1001 1.403 . S
C999 C996 1.403 . S
C999 C1000 1.524 . S
C999 C1003 1.400 . S
C1000 H985 0.960 . S
C1000 H986 0.960 . S
C1000 H987 0.960 . S
C1000 C999 1.524 . S
C1001 C998 1.403 . S
C1001 C1002 1.392 . S
C1001 C1005 1.495 . S
C1002 C1001 1.392 . S
C1002 C1003 1.385 . S
C1002 C1004 1.478 . S
C1003 H997 0.930 . S
C1003 C999 1.400 . S
C1003 C1002 1.385 . S
C1004 C1002 1.478 . S
C1004 C1006 1.381 . S
C1004 C1010 1.383 . S
C1005 C1001 1.495 . S
C1005 H1011 0.959 . S
C1005 H1012 0.961 . S
C1005 H1013 0.960 . S
C1006 C1004 1.381 . S
C1006 C1007 1.394 . S
C1006 H1014 0.930 . S
C1007 C1006 1.394 . S
C1007 C1008 1.383 . S
C1007 H1015 0.929 . S
C1008 C1007 1.383 . S
C1008 C1009 1.377 . S
C1009 H993 0.930 . S
C1009 C1008 1.377 . S
C1009 C1010 1.379 . S
C1010 H994 0.931 . S
C1010 C1004 1.383 . S
C1010 C1009 1.379 . S
H1011 C1005 0.959 . S
H1012 C1005 0.961 . S
H1013 C1005 0.960 . S
H1014 C1006 0.930 . S
H1015 C1007 0.929 . S
H1016 C1024 0.929 . S
H1017 C1026 0.930 . S
H1018 C1028 0.930 . S
H1019 C1031 0.929 . S
H1020 C1034 0.930 . S
H1021 C1036 0.960 . S
H1022 C1036 0.960 . S
H1023 C1036 0.960 . S
C1024 H1016 0.929 . S
C1024 C1025 1.377 . S
C1024 C1026 1.384 . S
C1025 C1024 1.377 . S
C1025 C1031 1.390 . S
C1026 H1017 0.930 . S
C1026 C1024 1.384 . S
C1026 C1027 1.372 . S
C1027 C1026 1.372 . S
C1027 C1028 1.400 . S
C1027 C1032 1.490 . S
C1028 H1018 0.930 . S
C1028 C1027 1.400 . S
C1028 C1031 1.386 . S
H1029 C1045 0.930 . S
H1030 C1046 0.931 . S
C1031 H1019 0.929 . S
C1031 C1025 1.390 . S
C1031 C1028 1.386 . S
C1032 C1027 1.490 . S
C1032 C1034 1.395 . S
C1032 C1035 1.403 . S
H1033 C1039 0.930 . S
C1034 H1020 0.930 . S
C1034 C1032 1.395 . S
C1034 C1037 1.403 . S
C1035 C1032 1.403 . S
C1035 C1036 1.524 . S
C1035 C1039 1.400 . S
C1036 H1021 0.960 . S
C1036 H1022 0.960 . S
C1036 H1023 0.960 . S
C1036 C1035 1.524 . S
C1037 C1034 1.403 . S
C1037 C1038 1.392 . S
C1037 C1041 1.495 . S
C1038 C1037 1.392 . S
C1038 C1039 1.385 . S
C1038 C1040 1.478 . S
C1039 H1033 0.930 . S
C1039 C1035 1.400 . S
C1039 C1038 1.385 . S
C1040 C1038 1.478 . S
C1040 C1042 1.381 . S
C1040 C1046 1.383 . S
C1041 C1037 1.495 . S
C1041 H1047 0.959 . S
C1041 H1048 0.961 . S
C1041 H1049 0.960 . S
C1042 C1040 1.381 . S
C1042 C1043 1.394 . S
C1042 H1050 0.930 . S
C1043 C1042 1.394 . S
C1043 C1044 1.383 . S
C1043 H1051 0.929 . S
C1044 C1043 1.383 . S
C1044 C1045 1.377 . S
C1045 H1029 0.930 . S
C1045 C1044 1.377 . S
C1045 C1046 1.379 . S
C1046 H1030 0.931 . S
C1046 C1040 1.383 . S
C1046 C1045 1.379 . S
H1047 C1041 0.959 . S
H1048 C1041 0.961 . S
H1049 C1041 0.960 . S
H1050 C1042 0.930 . S
H1051 C1043 0.929 . S
H1052 C1060 0.929 . S
H1053 C1062 0.930 . S
H1054 C1064 0.930 . S
H1055 C1067 0.929 . S
H1056 C1070 0.930 . S
H1057 C1072 0.960 . S
H1058 C1072 0.960 . S
H1059 C1072 0.960 . S
C1060 H1052 0.929 . S
C1060 C1061 1.377 . S
C1060 C1062 1.384 . S
C1061 C1060 1.377 . S
C1061 C1067 1.390 . S
C1062 H1053 0.930 . S
C1062 C1060 1.384 . S
C1062 C1063 1.372 . S
C1063 C1062 1.372 . S
C1063 C1064 1.400 . S
C1063 C1068 1.490 . S
C1064 H1054 0.930 . S
C1064 C1063 1.400 . S
C1064 C1067 1.386 . S
H1065 C1081 0.930 . S
H1066 C1082 0.931 . S
C1067 H1055 0.929 . S
C1067 C1061 1.390 . S
C1067 C1064 1.386 . S
C1068 C1063 1.490 . S
C1068 C1070 1.395 . S
C1068 C1071 1.403 . S
H1069 C1075 0.930 . S
C1070 H1056 0.930 . S
C1070 C1068 1.395 . S
C1070 C1073 1.403 . S
C1071 C1068 1.403 . S
C1071 C1072 1.524 . S
C1071 C1075 1.400 . S
C1072 H1057 0.960 . S
C1072 H1058 0.960 . S
C1072 H1059 0.960 . S
C1072 C1071 1.524 . S
C1073 C1070 1.403 . S
C1073 C1074 1.392 . S
C1073 C1077 1.495 . S
C1074 C1073 1.392 . S
C1074 C1075 1.385 . S
C1074 C1076 1.478 . S
C1075 H1069 0.930 . S
C1075 C1071 1.400 . S
C1075 C1074 1.385 . S
C1076 C1074 1.478 . S
C1076 C1078 1.381 . S
C1076 C1082 1.383 . S
C1077 C1073 1.495 . S
C1077 H1083 0.959 . S
C1077 H1084 0.961 . S
C1077 H1085 0.960 . S
C1078 C1076 1.381 . S
C1078 C1079 1.394 . S
C1078 H1086 0.930 . S
C1079 C1078 1.394 . S
C1079 C1080 1.383 . S
C1079 H1087 0.929 . S
C1080 C1079 1.383 . S
C1080 C1081 1.377 . S
C1081 H1065 0.930 . S
C1081 C1080 1.377 . S
C1081 C1082 1.379 . S
C1082 H1066 0.931 . S
C1082 C1076 1.383 . S
C1082 C1081 1.379 . S
H1083 C1077 0.959 . S
H1084 C1077 0.961 . S
H1085 C1077 0.960 . S
H1086 C1078 0.930 . S
H1087 C1079 0.929 . S
H1088 C1096 0.929 . S
H1089 C1098 0.930 . S
H1090 C1100 0.930 . S
H1091 C1103 0.929 . S
H1092 C1106 0.930 . S
H1093 C1108 0.960 . S
H1094 C1108 0.960 . S
H1095 C1108 0.960 . S
C1096 H1088 0.929 . S
C1096 C1097 1.377 . S
C1096 C1098 1.384 . S
C1097 C1096 1.377 . S
C1097 C1103 1.390 . S
C1098 H1089 0.930 . S
C1098 C1096 1.384 . S
C1098 C1099 1.372 . S
C1099 C1098 1.372 . S
C1099 C1100 1.400 . S
C1099 C1104 1.490 . S
C1100 H1090 0.930 . S
C1100 C1099 1.400 . S
C1100 C1103 1.386 . S
H1101 C1117 0.930 . S
H1102 C1118 0.931 . S
C1103 H1091 0.929 . S
C1103 C1097 1.390 . S
C1103 C1100 1.386 . S
C1104 C1099 1.490 . S
C1104 C1106 1.395 . S
C1104 C1107 1.403 . S
H1105 C1111 0.930 . S
C1106 H1092 0.930 . S
C1106 C1104 1.395 . S
C1106 C1109 1.403 . S
C1107 C1104 1.403 . S
C1107 C1108 1.524 . S
C1107 C1111 1.400 . S
C1108 H1093 0.960 . S
C1108 H1094 0.960 . S
C1108 H1095 0.960 . S
C1108 C1107 1.524 . S
C1109 C1106 1.403 . S
C1109 C1110 1.392 . S
C1109 C1113 1.495 . S
C1110 C1109 1.392 . S
C1110 C1111 1.385 . S
C1110 C1112 1.478 . S
C1111 H1105 0.930 . S
C1111 C1107 1.400 . S
C1111 C1110 1.385 . S
C1112 C1110 1.478 . S
C1112 C1114 1.381 . S
C1112 C1118 1.383 . S
C1113 C1109 1.495 . S
C1113 H1119 0.959 . S
C1113 H1120 0.961 . S
C1113 H1121 0.960 . S
C1114 C1112 1.381 . S
C1114 C1115 1.394 . S
C1114 H1122 0.930 . S
C1115 C1114 1.394 . S
C1115 C1116 1.383 . S
C1115 H1123 0.929 . S
C1116 C1115 1.383 . S
C1116 C1117 1.377 . S
C1117 H1101 0.930 . S
C1117 C1116 1.377 . S
C1117 C1118 1.379 . S
C1118 H1102 0.931 . S
C1118 C1112 1.383 . S
C1118 C1117 1.379 . S
H1119 C1113 0.959 . S
H1120 C1113 0.961 . S
H1121 C1113 0.960 . S
H1122 C1114 0.930 . S
H1123 C1115 0.929 . S
H1124 C1132 0.929 . S
H1125 C1134 0.930 . S
H1126 C1136 0.930 . S
H1127 C1139 0.929 . S
H1128 C1142 0.930 . S
H1129 C1144 0.960 . S
H1130 C1144 0.960 . S
H1131 C1144 0.960 . S
C1132 H1124 0.929 . S
C1132 C1133 1.377 . S
C1132 C1134 1.384 . S
C1133 C1132 1.377 . S
C1133 C1139 1.390 . S
C1134 H1125 0.930 . S
C1134 C1132 1.384 . S
C1134 C1135 1.372 . S
C1135 C1134 1.372 . S
C1135 C1136 1.400 . S
C1135 C1140 1.490 . S
C1136 H1126 0.930 . S
C1136 C1135 1.400 . S
C1136 C1139 1.386 . S
H1137 C1153 0.930 . S
H1138 C1154 0.931 . S
C1139 H1127 0.929 . S
C1139 C1133 1.390 . S
C1139 C1136 1.386 . S
C1140 C1135 1.490 . S
C1140 C1142 1.395 . S
C1140 C1143 1.403 . S
H1141 C1147 0.930 . S
C1142 H1128 0.930 . S
C1142 C1140 1.395 . S
C1142 C1145 1.403 . S
C1143 C1140 1.403 . S
C1143 C1144 1.524 . S
C1143 C1147 1.400 . S
C1144 H1129 0.960 . S
C1144 H1130 0.960 . S
C1144 H1131 0.960 . S
C1144 C1143 1.524 . S
C1145 C1142 1.403 . S
C1145 C1146 1.392 . S
C1145 C1149 1.495 . S
C1146 C1145 1.392 . S
C1146 C1147 1.385 . S
C1146 C1148 1.478 . S
C1147 H1141 0.930 . S
C1147 C1143 1.400 . S
C1147 C1146 1.385 . S
C1148 C1146 1.478 . S
C1148 C1150 1.381 . S
C1148 C1154 1.383 . S
C1149 C1145 1.495 . S
C1149 H1155 0.959 . S
C1149 H1156 0.961 . S
C1149 H1157 0.960 . S
C1150 C1148 1.381 . S
C1150 C1151 1.394 . S
C1150 H1158 0.930 . S
C1151 C1150 1.394 . S
C1151 C1152 1.383 . S
C1151 H1159 0.929 . S
C1152 C1151 1.383 . S
C1152 C1153 1.377 . S
C1153 H1137 0.930 . S
C1153 C1152 1.377 . S
C1153 C1154 1.379 . S
C1154 H1138 0.931 . S
C1154 C1148 1.383 . S
C1154 C1153 1.379 . S
H1155 C1149 0.959 . S
H1156 C1149 0.961 . S
H1157 C1149 0.960 . S
H1158 C1150 0.930 . S
H1159 C1151 0.929 . S
H1160 C1168 0.929 . S
H1161 C1170 0.930 . S
H1162 C1172 0.930 . S
H1163 C1175 0.929 . S
H1164 C1178 0.930 . S
H1165 C1180 0.960 . S
H1166 C1180 0.960 . S
H1167 C1180 0.960 . S
C1168 H1160 0.929 . S
C1168 C1169 1.377 . S
C1168 C1170 1.384 . S
C1169 C1168 1.377 . S
C1169 C1175 1.390 . S
C1170 H1161 0.930 . S
C1170 C1168 1.384 . S
C1170 C1171 1.372 . S
C1171 C1170 1.372 . S
C1171 C1172 1.400 . S
C1171 C1176 1.490 . S
C1172 H1162 0.930 . S
C1172 C1171 1.400 . S
C1172 C1175 1.386 . S
H1173 C1189 0.930 . S
H1174 C1190 0.931 . S
C1175 H1163 0.929 . S
C1175 C1169 1.390 . S
C1175 C1172 1.386 . S
C1176 C1171 1.490 . S
C1176 C1178 1.395 . S
C1176 C1179 1.403 . S
H1177 C1183 0.930 . S
C1178 H1164 0.930 . S
C1178 C1176 1.395 . S
C1178 C1181 1.403 . S
C1179 C1176 1.403 . S
C1179 C1180 1.524 . S
C1179 C1183 1.400 . S
C1180 H1165 0.960 . S
C1180 H1166 0.960 . S
C1180 H1167 0.960 . S
C1180 C1179 1.524 . S
C1181 C1178 1.403 . S
C1181 C1182 1.392 . S
C1181 C1185 1.495 . S
C1182 C1181 1.392 . S
C1182 C1183 1.385 . S
C1182 C1184 1.478 . S
C1183 H1177 0.930 . S
C1183 C1179 1.400 . S
C1183 C1182 1.385 . S
C1184 C1182 1.478 . S
C1184 C1186 1.381 . S
C1184 C1190 1.383 . S
C1185 C1181 1.495 . S
C1185 H1191 0.959 . S
C1185 H1192 0.961 . S
C1185 H1193 0.960 . S
C1186 C1184 1.381 . S
C1186 C1187 1.394 . S
C1186 H1194 0.930 . S
C1187 C1186 1.394 . S
C1187 C1188 1.383 . S
C1187 H1195 0.929 . S
C1188 C1187 1.383 . S
C1188 C1189 1.377 . S
C1189 H1173 0.930 . S
C1189 C1188 1.377 . S
C1189 C1190 1.379 . S
C1190 H1174 0.931 . S
C1190 C1184 1.383 . S
C1190 C1189 1.379 . S
H1191 C1185 0.959 . S
H1192 C1185 0.961 . S
H1193 C1185 0.960 . S
H1194 C1186 0.930 . S
H1195 C1187 0.929 . S
H1196 C1204 0.929 . S
H1197 C1206 0.930 . S
H1198 C1208 0.930 . S
H1199 C1211 0.929 . S
H1200 C1214 0.930 . S
H1201 C1216 0.960 . S
H1202 C1216 0.960 . S
H1203 C1216 0.960 . S
C1204 H1196 0.929 . S
C1204 C1205 1.377 . S
C1204 C1206 1.384 . S
C1205 C1204 1.377 . S
C1205 C1211 1.390 . S
C1206 H1197 0.930 . S
C1206 C1204 1.384 . S
C1206 C1207 1.372 . S
C1207 C1206 1.372 . S
C1207 C1208 1.400 . S
C1207 C1212 1.490 . S
C1208 H1198 0.930 . S
C1208 C1207 1.400 . S
C1208 C1211 1.386 . S
H1209 C1225 0.930 . S
H1210 C1226 0.931 . S
C1211 H1199 0.929 . S
C1211 C1205 1.390 . S
C1211 C1208 1.386 . S
C1212 C1207 1.490 . S
C1212 C1214 1.395 . S
C1212 C1215 1.403 . S
H1213 C1219 0.930 . S
C1214 H1200 0.930 . S
C1214 C1212 1.395 . S
C1214 C1217 1.403 . S
C1215 C1212 1.403 . S
C1215 C1216 1.524 . S
C1215 C1219 1.400 . S
C1216 H1201 0.960 . S
C1216 H1202 0.960 . S
C1216 H1203 0.960 . S
C1216 C1215 1.524 . S
C1217 C1214 1.403 . S
C1217 C1218 1.392 . S
C1217 C1221 1.495 . S
C1218 C1217 1.392 . S
C1218 C1219 1.385 . S
C1218 C1220 1.478 . S
C1219 H1213 0.930 . S
C1219 C1215 1.400 . S
C1219 C1218 1.385 . S
C1220 C1218 1.478 . S
C1220 C1222 1.381 . S
C1220 C1226 1.383 . S
C1221 C1217 1.495 . S
C1221 H1227 0.959 . S
C1221 H1228 0.961 . S
C1221 H1229 0.960 . S
C1222 C1220 1.381 . S
C1222 C1223 1.394 . S
C1222 H1230 0.930 . S
C1223 C1222 1.394 . S
C1223 C1224 1.383 . S
C1223 H1231 0.929 . S
C1224 C1223 1.383 . S
C1224 C1225 1.377 . S
C1225 H1209 0.930 . S
C1225 C1224 1.377 . S
C1225 C1226 1.379 . S
C1226 H1210 0.931 . S
C1226 C1220 1.383 . S
C1226 C1225 1.379 . S
H1227 C1221 0.959 . S
H1228 C1221 0.961 . S
H1229 C1221 0.960 . S
H1230 C1222 0.930 . S
H1231 C1223 0.929 . S
H1232 C1240 0.929 . S
H1233 C1242 0.930 . S
H1234 C1244 0.930 . S
H1235 C1247 0.929 . S
H1236 C1250 0.930 . S
H1237 C1252 0.960 . S
H1238 C1252 0.960 . S
H1239 C1252 0.960 . S
C1240 H1232 0.929 . S
C1240 C1241 1.377 . S
C1240 C1242 1.384 . S
C1241 C1240 1.377 . S
C1241 C1247 1.390 . S
C1242 H1233 0.930 . S
C1242 C1240 1.384 . S
C1242 C1243 1.372 . S
C1243 C1242 1.372 . S
C1243 C1244 1.400 . S
C1243 C1248 1.490 . S
C1244 H1234 0.930 . S
C1244 C1243 1.400 . S
C1244 C1247 1.386 . S
H1245 C1261 0.930 . S
H1246 C1262 0.931 . S
C1247 H1235 0.929 . S
C1247 C1241 1.390 . S
C1247 C1244 1.386 . S
C1248 C1243 1.490 . S
C1248 C1250 1.395 . S
C1248 C1251 1.403 . S
H1249 C1255 0.930 . S
C1250 H1236 0.930 . S
C1250 C1248 1.395 . S
C1250 C1253 1.403 . S
C1251 C1248 1.403 . S
C1251 C1252 1.524 . S
C1251 C1255 1.400 . S
C1252 H1237 0.960 . S
C1252 H1238 0.960 . S
C1252 H1239 0.960 . S
C1252 C1251 1.524 . S
C1253 C1250 1.403 . S
C1253 C1254 1.392 . S
C1253 C1257 1.495 . S
C1254 C1253 1.392 . S
C1254 C1255 1.385 . S
C1254 C1256 1.478 . S
C1255 H1249 0.930 . S
C1255 C1251 1.400 . S
C1255 C1254 1.385 . S
C1256 C1254 1.478 . S
C1256 C1258 1.381 . S
C1256 C1262 1.383 . S
C1257 C1253 1.495 . S
C1257 H1263 0.959 . S
C1257 H1264 0.961 . S
C1257 H1265 0.960 . S
C1258 C1256 1.381 . S
C1258 C1259 1.394 . S
C1258 H1266 0.930 . S
C1259 C1258 1.394 . S
C1259 C1260 1.383 . S
C1259 H1267 0.929 . S
C1260 C1259 1.383 . S
C1260 C1261 1.377 . S
C1261 H1245 0.930 . S
C1261 C1260 1.377 . S
C1261 C1262 1.379 . S
C1262 H1246 0.931 . S
C1262 C1256 1.383 . S
C1262 C1261 1.379 . S
H1263 C1257 0.959 . S
H1264 C1257 0.961 . S
H1265 C1257 0.960 . S
H1266 C1258 0.930 . S
H1267 C1259 0.929 . S
H1268 C1276 0.929 . S
H1269 C1278 0.930 . S
H1270 C1280 0.930 . S
H1271 C1283 0.929 . S
H1272 C1286 0.930 . S
H1273 C1288 0.960 . S
H1274 C1288 0.960 . S
H1275 C1288 0.960 . S
C1276 H1268 0.929 . S
C1276 C1277 1.377 . S
C1276 C1278 1.384 . S
C1277 C1276 1.377 . S
C1277 C1283 1.390 . S
C1278 H1269 0.930 . S
C1278 C1276 1.384 . S
C1278 C1279 1.372 . S
C1279 C1278 1.372 . S
C1279 C1280 1.400 . S
C1279 C1284 1.490 . S
C1280 H1270 0.930 . S
C1280 C1279 1.400 . S
C1280 C1283 1.386 . S
H1281 C1297 0.930 . S
H1282 C1298 0.931 . S
C1283 H1271 0.929 . S
C1283 C1277 1.390 . S
C1283 C1280 1.386 . S
C1284 C1279 1.490 . S
C1284 C1286 1.395 . S
C1284 C1287 1.403 . S
H1285 C1291 0.930 . S
C1286 H1272 0.930 . S
C1286 C1284 1.395 . S
C1286 C1289 1.403 . S
C1287 C1284 1.403 . S
C1287 C1288 1.524 . S
C1287 C1291 1.400 . S
C1288 H1273 0.960 . S
C1288 H1274 0.960 . S
C1288 H1275 0.960 . S
C1288 C1287 1.524 . S
C1289 C1286 1.403 . S
C1289 C1290 1.392 . S
C1289 C1293 1.495 . S
C1290 C1289 1.392 . S
C1290 C1291 1.385 . S
C1290 C1292 1.478 . S
C1291 H1285 0.930 . S
C1291 C1287 1.400 . S
C1291 C1290 1.385 . S
C1292 C1290 1.478 . S
C1292 C1294 1.381 . S
C1292 C1298 1.383 . S
C1293 C1289 1.495 . S
C1293 H1299 0.959 . S
C1293 H1300 0.961 . S
C1293 H1301 0.960 . S
C1294 C1292 1.381 . S
C1294 C1295 1.394 . S
C1294 H1302 0.930 . S
C1295 C1294 1.394 . S
C1295 C1296 1.383 . S
C1295 H1303 0.929 . S
C1296 C1295 1.383 . S
C1296 C1297 1.377 . S
C1297 H1281 0.930 . S
C1297 C1296 1.377 . S
C1297 C1298 1.379 . S
C1298 H1282 0.931 . S
C1298 C1292 1.383 . S
C1298 C1297 1.379 . S
H1299 C1293 0.959 . S
H1300 C1293 0.961 . S
H1301 C1293 0.960 . S
H1302 C1294 0.930 . S
H1303 C1295 0.929 . S
H1304 C1312 0.929 . S
H1305 C1314 0.930 . S
H1306 C1316 0.930 . S
H1307 C1319 0.929 . S
H1308 C1322 0.930 . S
H1309 C1324 0.960 . S
H1310 C1324 0.960 . S
H1311 C1324 0.960 . S
C1312 H1304 0.929 . S
C1312 C1313 1.377 . S
C1312 C1314 1.384 . S
C1313 C1312 1.377 . S
C1313 C1319 1.390 . S
C1314 H1305 0.930 . S
C1314 C1312 1.384 . S
C1314 C1315 1.372 . S
C1315 C1314 1.372 . S
C1315 C1316 1.400 . S
C1315 C1320 1.490 . S
C1316 H1306 0.930 . S
C1316 C1315 1.400 . S
C1316 C1319 1.386 . S
H1317 C1333 0.930 . S
H1318 C1334 0.931 . S
C1319 H1307 0.929 . S
C1319 C1313 1.390 . S
C1319 C1316 1.386 . S
C1320 C1315 1.490 . S
C1320 C1322 1.395 . S
C1320 C1323 1.403 . S
H1321 C1327 0.930 . S
C1322 H1308 0.930 . S
C1322 C1320 1.395 . S
C1322 C1325 1.403 . S
C1323 C1320 1.403 . S
C1323 C1324 1.524 . S
C1323 C1327 1.400 . S
C1324 H1309 0.960 . S
C1324 H1310 0.960 . S
C1324 H1311 0.960 . S
C1324 C1323 1.524 . S
C1325 C1322 1.403 . S
C1325 C1326 1.392 . S
C1325 C1329 1.495 . S
C1326 C1325 1.392 . S
C1326 C1327 1.385 . S
C1326 C1328 1.478 . S
C1327 H1321 0.930 . S
C1327 C1323 1.400 . S
C1327 C1326 1.385 . S
C1328 C1326 1.478 . S
C1328 C1330 1.381 . S
C1328 C1334 1.383 . S
C1329 C1325 1.495 . S
C1329 H1335 0.959 . S
C1329 H1336 0.961 . S
C1329 H1337 0.960 . S
C1330 C1328 1.381 . S
C1330 C1331 1.394 . S
C1330 H1338 0.930 . S
C1331 C1330 1.394 . S
C1331 C1332 1.383 . S
C1331 H1339 0.929 . S
C1332 C1331 1.383 . S
C1332 C1333 1.377 . S
C1333 H1317 0.930 . S
C1333 C1332 1.377 . S
C1333 C1334 1.379 . S
C1334 H1318 0.931 . S
C1334 C1328 1.383 . S
C1334 C1333 1.379 . S
H1335 C1329 0.959 . S
H1336 C1329 0.961 . S
H1337 C1329 0.960 . S
H1338 C1330 0.930 . S
H1339 C1331 0.929 . S
H1340 C1348 0.929 . S
H1341 C1350 0.930 . S
H1342 C1352 0.930 . S
H1343 C1355 0.929 . S
H1344 C1358 0.930 . S
H1345 C1360 0.960 . S
H1346 C1360 0.960 . S
H1347 C1360 0.960 . S
C1348 H1340 0.929 . S
C1348 C1349 1.377 . S
C1348 C1350 1.384 . S
C1349 C1348 1.377 . S
C1349 C1355 1.390 . S
C1350 H1341 0.930 . S
C1350 C1348 1.384 . S
C1350 C1351 1.372 . S
C1351 C1350 1.372 . S
C1351 C1352 1.400 . S
C1351 C1356 1.490 . S
C1352 H1342 0.930 . S
C1352 C1351 1.400 . S
C1352 C1355 1.386 . S
H1353 C1369 0.930 . S
H1354 C1370 0.931 . S
C1355 H1343 0.929 . S
C1355 C1349 1.390 . S
C1355 C1352 1.386 . S
C1356 C1351 1.490 . S
C1356 C1358 1.395 . S
C1356 C1359 1.403 . S
H1357 C1363 0.930 . S
C1358 H1344 0.930 . S
C1358 C1356 1.395 . S
C1358 C1361 1.403 . S
C1359 C1356 1.403 . S
C1359 C1360 1.524 . S
C1359 C1363 1.400 . S
C1360 H1345 0.960 . S
C1360 H1346 0.960 . S
C1360 H1347 0.960 . S
C1360 C1359 1.524 . S
C1361 C1358 1.403 . S
C1361 C1362 1.392 . S
C1361 C1365 1.495 . S
C1362 C1361 1.392 . S
C1362 C1363 1.385 . S
C1362 C1364 1.478 . S
C1363 H1357 0.930 . S
C1363 C1359 1.400 . S
C1363 C1362 1.385 . S
C1364 C1362 1.478 . S
C1364 C1366 1.381 . S
C1364 C1370 1.383 . S
C1365 C1361 1.495 . S
C1365 H1371 0.959 . S
C1365 H1372 0.961 . S
C1365 H1373 0.960 . S
C1366 C1364 1.381 . S
C1366 C1367 1.394 . S
C1366 H1374 0.930 . S
C1367 C1366 1.394 . S
C1367 C1368 1.383 . S
C1367 H1375 0.929 . S
C1368 C1367 1.383 . S
C1368 C1369 1.377 . S
C1369 H1353 0.930 . S
C1369 C1368 1.377 . S
C1369 C1370 1.379 . S
C1370 H1354 0.931 . S
C1370 C1364 1.383 . S
C1370 C1369 1.379 . S
H1371 C1365 0.959 . S
H1372 C1365 0.961 . S
H1373 C1365 0.960 . S
H1374 C1366 0.930 . S
H1375 C1367 0.929 . S
H1376 C1384 0.929 . S
H1377 C1386 0.930 . S
H1378 C1388 0.930 . S
H1379 C1391 0.929 . S
H1380 C1394 0.930 . S
H1381 C1396 0.960 . S
H1382 C1396 0.960 . S
H1383 C1396 0.960 . S
C1384 H1376 0.929 . S
C1384 C1385 1.377 . S
C1384 C1386 1.384 . S
C1385 C1384 1.377 . S
C1385 C1391 1.390 . S
C1386 H1377 0.930 . S
C1386 C1384 1.384 . S
C1386 C1387 1.372 . S
C1387 C1386 1.372 . S
C1387 C1388 1.400 . S
C1387 C1392 1.490 . S
C1388 H1378 0.930 . S
C1388 C1387 1.400 . S
C1388 C1391 1.386 . S
H1389 C1405 0.930 . S
H1390 C1406 0.931 . S
C1391 H1379 0.929 . S
C1391 C1385 1.390 . S
C1391 C1388 1.386 . S
C1392 C1387 1.490 . S
C1392 C1394 1.395 . S
C1392 C1395 1.403 . S
H1393 C1399 0.930 . S
C1394 H1380 0.930 . S
C1394 C1392 1.395 . S
C1394 C1397 1.403 . S
C1395 C1392 1.403 . S
C1395 C1396 1.524 . S
C1395 C1399 1.400 . S
C1396 H1381 0.960 . S
C1396 H1382 0.960 . S
C1396 H1383 0.960 . S
C1396 C1395 1.524 . S
C1397 C1394 1.403 . S
C1397 C1398 1.392 . S
C1397 C1401 1.495 . S
C1398 C1397 1.392 . S
C1398 C1399 1.385 . S
C1398 C1400 1.478 . S
C1399 H1393 0.930 . S
C1399 C1395 1.400 . S
C1399 C1398 1.385 . S
C1400 C1398 1.478 . S
C1400 C1402 1.381 . S
C1400 C1406 1.383 . S
C1401 C1397 1.495 . S
C1401 H1407 0.959 . S
C1401 H1408 0.961 . S
C1401 H1409 0.960 . S
C1402 C1400 1.381 . S
C1402 C1403 1.394 . S
C1402 H1410 0.930 . S
C1403 C1402 1.394 . S
C1403 C1404 1.383 . S
C1403 H1411 0.929 . S
C1404 C1403 1.383 . S
C1404 C1405 1.377 . S
C1405 H1389 0.930 . S
C1405 C1404 1.377 . S
C1405 C1406 1.379 . S
C1406 H1390 0.931 . S
C1406 C1400 1.383 . S
C1406 C1405 1.379 . S
H1407 C1401 0.959 . S
H1408 C1401 0.961 . S
H1409 C1401 0.960 . S
H1410 C1402 0.930 . S
H1411 C1403 0.929 . S
H1412 C1420 0.929 . S
H1413 C1422 0.930 . S
H1414 C1424 0.930 . S
H1415 C1427 0.929 . S
H1416 C1430 0.930 . S
H1417 C1432 0.960 . S
H1418 C1432 0.960 . S
H1419 C1432 0.960 . S
C1420 H1412 0.929 . S
C1420 C1421 1.377 . S
C1420 C1422 1.384 . S
C1421 C1420 1.377 . S
C1421 C1427 1.390 . S
C1422 H1413 0.930 . S
C1422 C1420 1.384 . S
C1422 C1423 1.372 . S
C1423 C1422 1.372 . S
C1423 C1424 1.400 . S
C1423 C1428 1.490 . S
C1424 H1414 0.930 . S
C1424 C1423 1.400 . S
C1424 C1427 1.386 . S
H1425 C1441 0.930 . S
H1426 C1442 0.931 . S
C1427 H1415 0.929 . S
C1427 C1421 1.390 . S
C1427 C1424 1.386 . S
C1428 C1423 1.490 . S
C1428 C1430 1.395 . S
C1428 C1431 1.403 . S
H1429 C1435 0.930 . S
C1430 H1416 0.930 . S
C1430 C1428 1.395 . S
C1430 C1433 1.403 . S
C1431 C1428 1.403 . S
C1431 C1432 1.524 . S
C1431 C1435 1.400 . S
C1432 H1417 0.960 . S
C1432 H1418 0.960 . S
C1432 H1419 0.960 . S
C1432 C1431 1.524 . S
C1433 C1430 1.403 . S
C1433 C1434 1.392 . S
C1433 C1437 1.495 . S
C1434 C1433 1.392 . S
C1434 C1435 1.385 . S
C1434 C1436 1.478 . S
C1435 H1429 0.930 . S
C1435 C1431 1.400 . S
C1435 C1434 1.385 . S
C1436 C1434 1.478 . S
C1436 C1438 1.381 . S
C1436 C1442 1.383 . S
C1437 C1433 1.495 . S
C1437 H1443 0.959 . S
C1437 H1444 0.961 . S
C1437 H1445 0.960 . S
C1438 C1436 1.381 . S
C1438 C1439 1.394 . S
C1438 H1446 0.930 . S
C1439 C1438 1.394 . S
C1439 C1440 1.383 . S
C1439 H1447 0.929 . S
C1440 C1439 1.383 . S
C1440 C1441 1.377 . S
C1441 H1425 0.930 . S
C1441 C1440 1.377 . S
C1441 C1442 1.379 . S
C1442 H1426 0.931 . S
C1442 C1436 1.383 . S
C1442 C1441 1.379 . S
H1443 C1437 0.959 . S
H1444 C1437 0.961 . S
H1445 C1437 0.960 . S
H1446 C1438 0.930 . S
H1447 C1439 0.929 . S
H1448 C1456 0.929 . S
H1449 C1458 0.930 . S
H1450 C1460 0.930 . S
H1451 C1463 0.929 . S
H1452 C1466 0.930 . S
H1453 C1468 0.960 . S
H1454 C1468 0.960 . S
H1455 C1468 0.960 . S
C1456 H1448 0.929 . S
C1456 C1457 1.377 . S
C1456 C1458 1.384 . S
C1457 C1456 1.377 . S
C1457 C1463 1.390 . S
C1458 H1449 0.930 . S
C1458 C1456 1.384 . S
C1458 C1459 1.372 . S
C1459 C1458 1.372 . S
C1459 C1460 1.400 . S
C1459 C1464 1.490 . S
C1460 H1450 0.930 . S
C1460 C1459 1.400 . S
C1460 C1463 1.386 . S
H1461 C1477 0.930 . S
H1462 C1478 0.931 . S
C1463 H1451 0.929 . S
C1463 C1457 1.390 . S
C1463 C1460 1.386 . S
C1464 C1459 1.490 . S
C1464 C1466 1.395 . S
C1464 C1467 1.403 . S
H1465 C1471 0.930 . S
C1466 H1452 0.930 . S
C1466 C1464 1.395 . S
C1466 C1469 1.403 . S
C1467 C1464 1.403 . S
C1467 C1468 1.524 . S
C1467 C1471 1.400 . S
C1468 H1453 0.960 . S
C1468 H1454 0.960 . S
C1468 H1455 0.960 . S
C1468 C1467 1.524 . S
C1469 C1466 1.403 . S
C1469 C1470 1.392 . S
C1469 C1473 1.495 . S
C1470 C1469 1.392 . S
C1470 C1471 1.385 . S
C1470 C1472 1.478 . S
C1471 H1465 0.930 . S
C1471 C1467 1.400 . S
C1471 C1470 1.385 . S
C1472 C1470 1.478 . S
C1472 C1474 1.381 . S
C1472 C1478 1.383 . S
C1473 C1469 1.495 . S
C1473 H1479 0.959 . S
C1473 H1480 0.961 . S
C1473 H1481 0.960 . S
C1474 C1472 1.381 . S
C1474 C1475 1.394 . S
C1474 H1482 0.930 . S
C1475 C1474 1.394 . S
C1475 C1476 1.383 . S
C1475 H1483 0.929 . S
C1476 C1475 1.383 . S
C1476 C1477 1.377 . S
C1477 H1461 0.930 . S
C1477 C1476 1.377 . S
C1477 C1478 1.379 . S
C1478 H1462 0.931 . S
C1478 C1472 1.383 . S
C1478 C1477 1.379 . S
H1479 C1473 0.959 . S
H1480 C1473 0.961 . S
H1481 C1473 0.960 . S
H1482 C1474 0.930 . S
H1483 C1475 0.929 . S
H1484 C1492 0.929 . S
H1485 C1494 0.930 . S
H1486 C1496 0.930 . S
H1487 C1499 0.929 . S
H1488 C1502 0.930 . S
H1489 C1504 0.960 . S
H1490 C1504 0.960 . S
H1491 C1504 0.960 . S
C1492 H1484 0.929 . S
C1492 C1493 1.377 . S
C1492 C1494 1.384 . S
C1493 C1492 1.377 . S
C1493 C1499 1.390 . S
C1494 H1485 0.930 . S
C1494 C1492 1.384 . S
C1494 C1495 1.372 . S
C1495 C1494 1.372 . S
C1495 C1496 1.400 . S
C1495 C1500 1.490 . S
C1496 H1486 0.930 . S
C1496 C1495 1.400 . S
C1496 C1499 1.386 . S
H1497 C1513 0.930 . S
H1498 C1514 0.931 . S
C1499 H1487 0.929 . S
C1499 C1493 1.390 . S
C1499 C1496 1.386 . S
C1500 C1495 1.490 . S
C1500 C1502 1.395 . S
C1500 C1503 1.403 . S
H1501 C1507 0.930 . S
C1502 H1488 0.930 . S
C1502 C1500 1.395 . S
C1502 C1505 1.403 . S
C1503 C1500 1.403 . S
C1503 C1504 1.524 . S
C1503 C1507 1.400 . S
C1504 H1489 0.960 . S
C1504 H1490 0.960 . S
C1504 H1491 0.960 . S
C1504 C1503 1.524 . S
C1505 C1502 1.403 . S
C1505 C1506 1.392 . S
C1505 C1509 1.495 . S
C1506 C1505 1.392 . S
C1506 C1507 1.385 . S
C1506 C1508 1.478 . S
C1507 H1501 0.930 . S
C1507 C1503 1.400 . S
C1507 C1506 1.385 . S
C1508 C1506 1.478 . S
C1508 C1510 1.381 . S
C1508 C1514 1.383 . S
C1509 C1505 1.495 . S
C1509 H1515 0.959 . S
C1509 H1516 0.961 . S
C1509 H1517 0.960 . S
C1510 C1508 1.381 . S
C1510 C1511 1.394 . S
C1510 H1518 0.930 . S
C1511 C1510 1.394 . S
C1511 C1512 1.383 . S
C1511 H1519 0.929 . S
C1512 C1511 1.383 . S
C1512 C1513 1.377 . S
C1513 H1497 0.930 . S
C1513 C1512 1.377 . S
C1513 C1514 1.379 . S
C1514 H1498 0.931 . S
C1514 C1508 1.383 . S
C1514 C1513 1.379 . S
H1515 C1509 0.959 . S
H1516 C1509 0.961 . S
H1517 C1509 0.960 . S
H1518 C1510 0.930 . S
H1519 C1511 0.929 . S
H1520 C1528 0.929 1_545 S
H1521 C1530 0.930 . S
H1522 C1532 0.930 . S
H1523 C1535 0.929 . S
H1524 C1538 0.930 . S
H1525 C1540 0.960 . S
H1526 C1540 0.960 . S
H1527 C1540 0.960 . S
C1528 H1520 0.929 1_565 S
C1528 C1529 1.377 . S
C1528 C1530 1.384 . S
C1529 C1528 1.377 . S
C1529 C1535 1.390 . S
C1530 H1521 0.930 . S
C1530 C1528 1.384 . S
C1530 C1531 1.372 . S
C1531 C1530 1.372 . S
C1531 C1532 1.400 . S
C1531 C1536 1.490 . S
C1532 H1522 0.930 . S
C1532 C1531 1.400 . S
C1532 C1535 1.386 . S
H1533 C1549 0.930 . S
H1534 C1550 0.931 . S
C1535 H1523 0.929 . S
C1535 C1529 1.390 . S
C1535 C1532 1.386 . S
C1536 C1531 1.490 . S
C1536 C1538 1.395 . S
C1536 C1539 1.403 . S
H1537 C1543 0.930 . S
C1538 H1524 0.930 . S
C1538 C1536 1.395 . S
C1538 C1541 1.403 . S
C1539 C1536 1.403 . S
C1539 C1540 1.524 . S
C1539 C1543 1.400 . S
C1540 H1525 0.960 . S
C1540 H1526 0.960 . S
C1540 H1527 0.960 . S
C1540 C1539 1.524 . S
C1541 C1538 1.403 . S
C1541 C1542 1.392 . S
C1541 C1545 1.495 . S
C1542 C1541 1.392 . S
C1542 C1543 1.385 . S
C1542 C1544 1.478 . S
C1543 H1537 0.930 . S
C1543 C1539 1.400 . S
C1543 C1542 1.385 . S
C1544 C1542 1.478 . S
C1544 C1546 1.381 . S
C1544 C1550 1.383 . S
C1545 C1541 1.495 . S
C1545 H1551 0.959 . S
C1545 H1552 0.961 . S
C1545 H1553 0.960 . S
C1546 C1544 1.381 . S
C1546 C1547 1.394 . S
C1546 H1554 0.930 . S
C1547 C1546 1.394 . S
C1547 C1548 1.383 . S
C1547 H1555 0.929 . S
C1548 C1547 1.383 . S
C1548 C1549 1.377 . S
C1549 H1533 0.930 . S
C1549 C1548 1.377 . S
C1549 C1550 1.379 . S
C1550 H1534 0.931 . S
C1550 C1544 1.383 . S
C1550 C1549 1.379 . S
H1551 C1545 0.959 . S
H1552 C1545 0.961 . S
H1553 C1545 0.960 . S
H1554 C1546 0.930 . S
H1555 C1547 0.929 . S
H1556 C1564 0.929 . S
H1557 C1566 0.930 . S
H1558 C1568 0.930 . S
H1559 C1571 0.929 . S
H1560 C1574 0.930 . S
H1561 C1576 0.960 . S
H1562 C1576 0.960 . S
H1563 C1576 0.960 . S
C1564 H1556 0.929 . S
C1564 C1565 1.377 . S
C1564 C1566 1.384 . S
C1565 C1564 1.377 . S
C1565 C1571 1.390 . S
C1566 H1557 0.930 . S
C1566 C1564 1.384 . S
C1566 C1567 1.372 . S
C1567 C1566 1.372 . S
C1567 C1568 1.400 . S
C1567 C1572 1.490 . S
C1568 H1558 0.930 . S
C1568 C1567 1.400 . S
C1568 C1571 1.386 . S
H1569 C1585 0.930 . S
H1570 C1586 0.931 . S
C1571 H1559 0.929 . S
C1571 C1565 1.390 . S
C1571 C1568 1.386 . S
C1572 C1567 1.490 . S
C1572 C1574 1.395 . S
C1572 C1575 1.403 . S
H1573 C1579 0.930 . S
C1574 H1560 0.930 . S
C1574 C1572 1.395 . S
C1574 C1577 1.403 . S
C1575 C1572 1.403 . S
C1575 C1576 1.524 . S
C1575 C1579 1.400 . S
C1576 H1561 0.960 . S
C1576 H1562 0.960 . S
C1576 H1563 0.960 . S
C1576 C1575 1.524 . S
C1577 C1574 1.403 . S
C1577 C1578 1.392 . S
C1577 C1581 1.495 . S
C1578 C1577 1.392 . S
C1578 C1579 1.385 . S
C1578 C1580 1.478 . S
C1579 H1573 0.930 . S
C1579 C1575 1.400 . S
C1579 C1578 1.385 . S
C1580 C1578 1.478 . S
C1580 C1582 1.381 . S
C1580 C1586 1.383 . S
C1581 C1577 1.495 . S
C1581 H1587 0.959 . S
C1581 H1588 0.961 . S
C1581 H1589 0.960 . S
C1582 C1580 1.381 . S
C1582 C1583 1.394 . S
C1582 H1590 0.930 . S
C1583 C1582 1.394 . S
C1583 C1584 1.383 . S
C1583 H1591 0.929 . S
C1584 C1583 1.383 . S
C1584 C1585 1.377 . S
C1585 H1569 0.930 . S
C1585 C1584 1.377 . S
C1585 C1586 1.379 . S
C1586 H1570 0.931 . S
C1586 C1580 1.383 . S
C1586 C1585 1.379 . S
H1587 C1581 0.959 . S
H1588 C1581 0.961 . S
H1589 C1581 0.960 . S
H1590 C1582 0.930 . S
H1591 C1583 0.929 . S
H1592 C1600 0.929 . S
H1593 C1602 0.930 . S
H1594 C1604 0.930 . S
H1595 C1607 0.929 . S
H1596 C1610 0.930 . S
H1597 C1612 0.960 . S
H1598 C1612 0.960 . S
H1599 C1612 0.960 . S
C1600 H1592 0.929 . S
C1600 C1601 1.377 . S
C1600 C1602 1.384 . S
C1601 C1600 1.377 . S
C1601 C1607 1.390 . S
C1602 H1593 0.930 . S
C1602 C1600 1.384 . S
C1602 C1603 1.372 . S
C1603 C1602 1.372 . S
C1603 C1604 1.400 . S
C1603 C1608 1.490 . S
C1604 H1594 0.930 . S
C1604 C1603 1.400 . S
C1604 C1607 1.386 . S
H1605 C1621 0.930 . S
H1606 C1622 0.931 . S
C1607 H1595 0.929 . S
C1607 C1601 1.390 . S
C1607 C1604 1.386 . S
C1608 C1603 1.490 . S
C1608 C1610 1.395 . S
C1608 C1611 1.403 . S
H1609 C1615 0.930 . S
C1610 H1596 0.930 . S
C1610 C1608 1.395 . S
C1610 C1613 1.403 . S
C1611 C1608 1.403 . S
C1611 C1612 1.524 . S
C1611 C1615 1.400 . S
C1612 H1597 0.960 . S
C1612 H1598 0.960 . S
C1612 H1599 0.960 . S
C1612 C1611 1.524 . S
C1613 C1610 1.403 . S
C1613 C1614 1.392 . S
C1613 C1617 1.495 . S
C1614 C1613 1.392 . S
C1614 C1615 1.385 . S
C1614 C1616 1.478 . S
C1615 H1609 0.930 . S
C1615 C1611 1.400 . S
C1615 C1614 1.385 . S
C1616 C1614 1.478 . S
C1616 C1618 1.381 . S
C1616 C1622 1.383 . S
C1617 C1613 1.495 . S
C1617 H1623 0.959 . S
C1617 H1624 0.961 . S
C1617 H1625 0.960 . S
C1618 C1616 1.381 . S
C1618 C1619 1.394 . S
C1618 H1626 0.930 . S
C1619 C1618 1.394 . S
C1619 C1620 1.383 . S
C1619 H1627 0.929 . S
C1620 C1619 1.383 . S
C1620 C1621 1.377 . S
C1621 H1605 0.930 . S
C1621 C1620 1.377 . S
C1621 C1622 1.379 . S
C1622 H1606 0.931 . S
C1622 C1616 1.383 . S
C1622 C1621 1.379 . S
H1623 C1617 0.959 . S
H1624 C1617 0.961 . S
H1625 C1617 0.960 . S
H1626 C1618 0.930 . S
H1627 C1619 0.929 . S
H1628 C1636 0.929 . S
H1629 C1638 0.930 . S
H1630 C1640 0.930 . S
H1631 C1643 0.929 . S
H1632 C1646 0.930 . S
H1633 C1648 0.960 . S
H1634 C1648 0.960 . S
H1635 C1648 0.960 . S
C1636 H1628 0.929 . S
C1636 C1637 1.377 . S
C1636 C1638 1.384 . S
C1637 C1636 1.377 . S
C1637 C1643 1.390 . S
C1638 H1629 0.930 . S
C1638 C1636 1.384 . S
C1638 C1639 1.372 . S
C1639 C1638 1.372 . S
C1639 C1640 1.400 . S
C1639 C1644 1.490 . S
C1640 H1630 0.930 . S
C1640 C1639 1.400 . S
C1640 C1643 1.386 . S
H1641 C1657 0.930 . S
H1642 C1658 0.931 . S
C1643 H1631 0.929 . S
C1643 C1637 1.390 . S
C1643 C1640 1.386 . S
C1644 C1639 1.490 . S
C1644 C1646 1.395 . S
C1644 C1647 1.403 . S
H1645 C1651 0.930 . S
C1646 H1632 0.930 . S
C1646 C1644 1.395 . S
C1646 C1649 1.403 . S
C1647 C1644 1.403 . S
C1647 C1648 1.524 . S
C1647 C1651 1.400 . S
C1648 H1633 0.960 . S
C1648 H1634 0.960 . S
C1648 H1635 0.960 . S
C1648 C1647 1.524 . S
C1649 C1646 1.403 . S
C1649 C1650 1.392 . S
C1649 C1653 1.495 . S
C1650 C1649 1.392 . S
C1650 C1651 1.385 . S
C1650 C1652 1.478 . S
C1651 H1645 0.930 . S
C1651 C1647 1.400 . S
C1651 C1650 1.385 . S
C1652 C1650 1.478 . S
C1652 C1654 1.381 . S
C1652 C1658 1.383 . S
C1653 C1649 1.495 . S
C1653 H1659 0.959 . S
C1653 H1660 0.961 . S
C1653 H1661 0.960 . S
C1654 C1652 1.381 . S
C1654 C1655 1.394 . S
C1654 H1662 0.930 . S
C1655 C1654 1.394 . S
C1655 C1656 1.383 . S
C1655 H1663 0.929 . S
C1656 C1655 1.383 . S
C1656 C1657 1.377 . S
C1657 H1641 0.930 . S
C1657 C1656 1.377 . S
C1657 C1658 1.379 . S
C1658 H1642 0.931 . S
C1658 C1652 1.383 . S
C1658 C1657 1.379 . S
H1659 C1653 0.959 . S
H1660 C1653 0.961 . S
H1661 C1653 0.960 . S
H1662 C1654 0.930 . S
H1663 C1655 0.929 . S
H1664 C1672 0.929 . S
H1665 C1674 0.930 . S
H1666 C1676 0.930 . S
H1667 C1679 0.929 . S
H1668 C1682 0.930 . S
H1669 C1684 0.960 . S
H1670 C1684 0.960 . S
H1671 C1684 0.960 . S
C1672 H1664 0.929 . S
C1672 C1673 1.377 . S
C1672 C1674 1.384 . S
C1673 C1672 1.377 . S
C1673 C1679 1.390 . S
C1674 H1665 0.930 . S
C1674 C1672 1.384 . S
C1674 C1675 1.372 . S
C1675 C1674 1.372 . S
C1675 C1676 1.400 . S
C1675 C1680 1.490 . S
C1676 H1666 0.930 . S
C1676 C1675 1.400 . S
C1676 C1679 1.386 . S
H1677 C1693 0.930 . S
H1678 C1694 0.931 . S
C1679 H1667 0.929 . S
C1679 C1673 1.390 . S
C1679 C1676 1.386 . S
C1680 C1675 1.490 . S
C1680 C1682 1.395 . S
C1680 C1683 1.403 . S
H1681 C1687 0.930 . S
C1682 H1668 0.930 . S
C1682 C1680 1.395 . S
C1682 C1685 1.403 . S
C1683 C1680 1.403 . S
C1683 C1684 1.524 . S
C1683 C1687 1.400 . S
C1684 H1669 0.960 . S
C1684 H1670 0.960 . S
C1684 H1671 0.960 . S
C1684 C1683 1.524 . S
C1685 C1682 1.403 . S
C1685 C1686 1.392 . S
C1685 C1689 1.495 . S
C1686 C1685 1.392 . S
C1686 C1687 1.385 . S
C1686 C1688 1.478 . S
C1687 H1681 0.930 . S
C1687 C1683 1.400 . S
C1687 C1686 1.385 . S
C1688 C1686 1.478 . S
C1688 C1690 1.381 . S
C1688 C1694 1.383 . S
C1689 C1685 1.495 . S
C1689 H1695 0.959 . S
C1689 H1696 0.961 . S
C1689 H1697 0.960 . S
C1690 C1688 1.381 . S
C1690 C1691 1.394 . S
C1690 H1698 0.930 . S
C1691 C1690 1.394 . S
C1691 C1692 1.383 . S
C1691 H1699 0.929 . S
C1692 C1691 1.383 . S
C1692 C1693 1.377 . S
C1693 H1677 0.930 . S
C1693 C1692 1.377 . S
C1693 C1694 1.379 . S
C1694 H1678 0.931 . S
C1694 C1688 1.383 . S
C1694 C1693 1.379 . S
H1695 C1689 0.959 . S
H1696 C1689 0.961 . S
H1697 C1689 0.960 . S
H1698 C1690 0.930 . S
H1699 C1691 0.929 . S
H1700 C1708 0.929 . S
H1701 C1710 0.930 . S
H1702 C1712 0.930 . S
H1703 C1715 0.929 . S
H1704 C1718 0.930 . S
H1705 C1720 0.960 . S
H1706 C1720 0.960 . S
H1707 C1720 0.960 . S
C1708 H1700 0.929 . S
C1708 C1709 1.377 . S
C1708 C1710 1.384 . S
C1709 C1708 1.377 . S
C1709 C1715 1.390 . S
C1710 H1701 0.930 . S
C1710 C1708 1.384 . S
C1710 C1711 1.372 . S
C1711 C1710 1.372 . S
C1711 C1712 1.400 . S
C1711 C1716 1.490 . S
C1712 H1702 0.930 . S
C1712 C1711 1.400 . S
C1712 C1715 1.386 . S
H1713 C1729 0.930 . S
H1714 C1730 0.931 . S
C1715 H1703 0.929 . S
C1715 C1709 1.390 . S
C1715 C1712 1.386 . S
C1716 C1711 1.490 . S
C1716 C1718 1.395 . S
C1716 C1719 1.403 . S
H1717 C1723 0.930 . S
C1718 H1704 0.930 . S
C1718 C1716 1.395 . S
C1718 C1721 1.403 . S
C1719 C1716 1.403 . S
C1719 C1720 1.524 . S
C1719 C1723 1.400 . S
C1720 H1705 0.960 . S
C1720 H1706 0.960 . S
C1720 H1707 0.960 . S
C1720 C1719 1.524 . S
C1721 C1718 1.403 . S
C1721 C1722 1.392 . S
C1721 C1725 1.495 . S
C1722 C1721 1.392 . S
C1722 C1723 1.385 . S
C1722 C1724 1.478 . S
C1723 H1717 0.930 . S
C1723 C1719 1.400 . S
C1723 C1722 1.385 . S
C1724 C1722 1.478 . S
C1724 C1726 1.381 . S
C1724 C1730 1.383 . S
C1725 C1721 1.495 . S
C1725 H1731 0.959 . S
C1725 H1732 0.961 . S
C1725 H1733 0.960 . S
C1726 C1724 1.381 . S
C1726 C1727 1.394 . S
C1726 H1734 0.930 . S
C1727 C1726 1.394 . S
C1727 C1728 1.383 . S
C1727 H1735 0.929 . S
C1728 C1727 1.383 . S
C1728 C1729 1.377 . S
C1729 H1713 0.930 . S
C1729 C1728 1.377 . S
C1729 C1730 1.379 . S
C1730 H1714 0.931 . S
C1730 C1724 1.383 . S
C1730 C1729 1.379 . S
H1731 C1725 0.959 . S
H1732 C1725 0.961 . S
H1733 C1725 0.960 . S
H1734 C1726 0.930 . S
H1735 C1727 0.929 . S
H1736 C1744 0.929 . S
H1737 C1746 0.930 . S
H1738 C1748 0.930 . S
H1739 C1751 0.929 . S
H1740 C1754 0.930 . S
H1741 C1756 0.960 . S
H1742 C1756 0.960 . S
H1743 C1756 0.960 . S
C1744 H1736 0.929 . S
C1744 C1745 1.377 . S
C1744 C1746 1.384 . S
C1745 C1744 1.377 . S
C1745 C1751 1.390 . S
C1746 H1737 0.930 . S
C1746 C1744 1.384 . S
C1746 C1747 1.372 . S
C1747 C1746 1.372 . S
C1747 C1748 1.400 . S
C1747 C1752 1.490 . S
C1748 H1738 0.930 . S
C1748 C1747 1.400 . S
C1748 C1751 1.386 . S
H1749 C1765 0.930 . S
H1750 C1766 0.931 . S
C1751 H1739 0.929 . S
C1751 C1745 1.390 . S
C1751 C1748 1.386 . S
C1752 C1747 1.490 . S
C1752 C1754 1.395 . S
C1752 C1755 1.403 . S
H1753 C1759 0.930 . S
C1754 H1740 0.930 . S
C1754 C1752 1.395 . S
C1754 C1757 1.403 . S
C1755 C1752 1.403 . S
C1755 C1756 1.524 . S
C1755 C1759 1.400 . S
C1756 H1741 0.960 . S
C1756 H1742 0.960 . S
C1756 H1743 0.960 . S
C1756 C1755 1.524 . S
C1757 C1754 1.403 . S
C1757 C1758 1.392 . S
C1757 C1761 1.495 . S
C1758 C1757 1.392 . S
C1758 C1759 1.385 . S
C1758 C1760 1.478 . S
C1759 H1753 0.930 . S
C1759 C1755 1.400 . S
C1759 C1758 1.385 . S
C1760 C1758 1.478 . S
C1760 C1762 1.381 . S
C1760 C1766 1.383 . S
C1761 C1757 1.495 . S
C1761 H1767 0.959 . S
C1761 H1768 0.961 . S
C1761 H1769 0.960 . S
C1762 C1760 1.381 . S
C1762 C1763 1.394 . S
C1762 H1770 0.930 . S
C1763 C1762 1.394 . S
C1763 C1764 1.383 . S
C1763 H1771 0.929 . S
C1764 C1763 1.383 . S
C1764 C1765 1.377 . S
C1765 H1749 0.930 . S
C1765 C1764 1.377 . S
C1765 C1766 1.379 . S
C1766 H1750 0.931 . S
C1766 C1760 1.383 . S
C1766 C1765 1.379 . S
H1767 C1761 0.959 . S
H1768 C1761 0.961 . S
H1769 C1761 0.960 . S
H1770 C1762 0.930 . S
H1771 C1763 0.929 . S
H1772 C1780 0.929 . S
H1773 C1782 0.930 . S
H1774 C1784 0.930 . S
H1775 C1787 0.929 1_545 S
H1776 C1790 0.930 . S
H1777 C1792 0.960 . S
H1778 C1792 0.960 . S
H1779 C1792 0.960 . S
C1780 H1772 0.929 . S
C1780 C1781 1.377 . S
C1780 C1782 1.384 . S
C1781 C1780 1.377 . S
C1781 C1787 1.390 . S
C1782 H1773 0.930 . S
C1782 C1780 1.384 . S
C1782 C1783 1.372 . S
C1783 C1782 1.372 . S
C1783 C1784 1.400 . S
C1783 C1788 1.490 . S
C1784 H1774 0.930 . S
C1784 C1783 1.400 . S
C1784 C1787 1.386 . S
H1785 C1801 0.930 . S
H1786 C1802 0.931 . S
C1787 H1775 0.929 1_565 S
C1787 C1781 1.390 . S
C1787 C1784 1.386 . S
C1788 C1783 1.490 . S
C1788 C1790 1.395 . S
C1788 C1791 1.403 . S
H1789 C1795 0.930 . S
C1790 H1776 0.930 . S
C1790 C1788 1.395 . S
C1790 C1793 1.403 . S
C1791 C1788 1.403 . S
C1791 C1792 1.524 . S
C1791 C1795 1.400 . S
C1792 H1777 0.960 . S
C1792 H1778 0.960 . S
C1792 H1779 0.960 . S
C1792 C1791 1.524 . S
C1793 C1790 1.403 . S
C1793 C1794 1.392 . S
C1793 C1797 1.495 . S
C1794 C1793 1.392 . S
C1794 C1795 1.385 . S
C1794 C1796 1.478 . S
C1795 H1789 0.930 . S
C1795 C1791 1.400 . S
C1795 C1794 1.385 . S
C1796 C1794 1.478 . S
C1796 C1798 1.381 . S
C1796 C1802 1.383 . S
C1797 C1793 1.495 . S
C1797 H1803 0.959 . S
C1797 H1804 0.961 . S
C1797 H1805 0.960 . S
C1798 C1796 1.381 . S
C1798 C1799 1.394 . S
C1798 H1806 0.930 . S
C1799 C1798 1.394 . S
C1799 C1800 1.383 . S
C1799 H1807 0.929 . S
C1800 C1799 1.383 . S
C1800 C1801 1.377 . S
C1801 H1785 0.930 . S
C1801 C1800 1.377 . S
C1801 C1802 1.379 . S
C1802 H1786 0.931 . S
C1802 C1796 1.383 . S
C1802 C1801 1.379 . S
H1803 C1797 0.959 . S
H1804 C1797 0.961 . S
H1805 C1797 0.960 . S
H1806 C1798 0.930 . S
H1807 C1799 0.929 . S
H1808 C1816 0.929 . S
H1809 C1818 0.930 . S
H1810 C1820 0.930 . S
H1811 C1823 0.929 . S
H1812 C1826 0.930 . S
H1813 C1828 0.960 . S
H1814 C1828 0.960 . S
H1815 C1828 0.960 . S
C1816 H1808 0.929 . S
C1816 C1817 1.377 . S
C1816 C1818 1.384 . S
C1817 C1816 1.377 . S
C1817 C1823 1.390 . S
C1818 H1809 0.930 . S
C1818 C1816 1.384 . S
C1818 C1819 1.372 . S
C1819 C1818 1.372 . S
C1819 C1820 1.400 . S
C1819 C1824 1.490 . S
C1820 H1810 0.930 . S
C1820 C1819 1.400 . S
C1820 C1823 1.386 . S
H1821 C1837 0.930 . S
H1822 C1838 0.931 . S
C1823 H1811 0.929 . S
C1823 C1817 1.390 . S
C1823 C1820 1.386 . S
C1824 C1819 1.490 . S
C1824 C1826 1.395 . S
C1824 C1827 1.403 . S
H1825 C1831 0.930 . S
C1826 H1812 0.930 . S
C1826 C1824 1.395 . S
C1826 C1829 1.403 . S
C1827 C1824 1.403 . S
C1827 C1828 1.524 . S
C1827 C1831 1.400 . S
C1828 H1813 0.960 . S
C1828 H1814 0.960 . S
C1828 H1815 0.960 . S
C1828 C1827 1.524 . S
C1829 C1826 1.403 . S
C1829 C1830 1.392 . S
C1829 C1833 1.495 . S
C1830 C1829 1.392 . S
C1830 C1831 1.385 . S
C1830 C1832 1.478 . S
C1831 H1825 0.930 . S
C1831 C1827 1.400 . S
C1831 C1830 1.385 . S
C1832 C1830 1.478 . S
C1832 C1834 1.381 . S
C1832 C1838 1.383 . S
C1833 C1829 1.495 . S
C1833 H1839 0.959 . S
C1833 H1840 0.961 . S
C1833 H1841 0.960 . S
C1834 C1832 1.381 . S
C1834 C1835 1.394 . S
C1834 H1842 0.930 . S
C1835 C1834 1.394 . S
C1835 C1836 1.383 . S
C1835 H1843 0.929 . S
C1836 C1835 1.383 . S
C1836 C1837 1.377 . S
C1837 H1821 0.930 . S
C1837 C1836 1.377 . S
C1837 C1838 1.379 . S
C1838 H1822 0.931 . S
C1838 C1832 1.383 . S
C1838 C1837 1.379 . S
H1839 C1833 0.959 . S
H1840 C1833 0.961 . S
H1841 C1833 0.960 . S
H1842 C1834 0.930 . S
H1843 C1835 0.929 . S
H1844 C1852 0.929 . S
H1845 C1854 0.930 . S
H1846 C1856 0.930 . S
H1847 C1859 0.929 . S
H1848 C1862 0.930 . S
H1849 C1864 0.960 . S
H1850 C1864 0.960 . S
H1851 C1864 0.960 . S
C1852 H1844 0.929 . S
C1852 C1853 1.377 . S
C1852 C1854 1.384 . S
C1853 C1852 1.377 . S
C1853 C1859 1.390 . S
C1854 H1845 0.930 . S
C1854 C1852 1.384 . S
C1854 C1855 1.372 . S
C1855 C1854 1.372 . S
C1855 C1856 1.400 . S
C1855 C1860 1.490 . S
C1856 H1846 0.930 . S
C1856 C1855 1.400 . S
C1856 C1859 1.386 . S
H1857 C1873 0.930 . S
H1858 C1874 0.931 . S
C1859 H1847 0.929 . S
C1859 C1853 1.390 . S
C1859 C1856 1.386 . S
C1860 C1855 1.490 . S
C1860 C1862 1.395 . S
C1860 C1863 1.403 . S
H1861 C1867 0.930 . S
C1862 H1848 0.930 . S
C1862 C1860 1.395 . S
C1862 C1865 1.403 . S
C1863 C1860 1.403 . S
C1863 C1864 1.524 . S
C1863 C1867 1.400 . S
C1864 H1849 0.960 . S
C1864 H1850 0.960 . S
C1864 H1851 0.960 . S
C1864 C1863 1.524 . S
C1865 C1862 1.403 . S
C1865 C1866 1.392 . S
C1865 C1869 1.495 . S
C1866 C1865 1.392 . S
C1866 C1867 1.385 . S
C1866 C1868 1.478 . S
C1867 H1861 0.930 . S
C1867 C1863 1.400 . S
C1867 C1866 1.385 . S
C1868 C1866 1.478 . S
C1868 C1870 1.381 . S
C1868 C1874 1.383 . S
C1869 C1865 1.495 . S
C1869 H1875 0.959 . S
C1869 H1876 0.961 . S
C1869 H1877 0.960 . S
C1870 C1868 1.381 . S
C1870 C1871 1.394 . S
C1870 H1878 0.930 . S
C1871 C1870 1.394 . S
C1871 C1872 1.383 . S
C1871 H1879 0.929 . S
C1872 C1871 1.383 . S
C1872 C1873 1.377 . S
C1873 H1857 0.930 . S
C1873 C1872 1.377 . S
C1873 C1874 1.379 . S
C1874 H1858 0.931 . S
C1874 C1868 1.383 . S
C1874 C1873 1.379 . S
H1875 C1869 0.959 . S
H1876 C1869 0.961 . S
H1877 C1869 0.960 . S
H1878 C1870 0.930 . S
H1879 C1871 0.929 . S
H1880 C1888 0.929 . S
H1881 C1890 0.930 . S
H1882 C1892 0.930 . S
H1883 C1895 0.929 . S
H1884 C1898 0.930 . S
H1885 C1900 0.960 . S
H1886 C1900 0.960 . S
H1887 C1900 0.960 . S
C1888 H1880 0.929 . S
C1888 C1889 1.377 . S
C1888 C1890 1.384 . S
C1889 C1888 1.377 . S
C1889 C1895 1.390 . S
C1890 H1881 0.930 . S
C1890 C1888 1.384 . S
C1890 C1891 1.372 . S
C1891 C1890 1.372 . S
C1891 C1892 1.400 . S
C1891 C1896 1.490 . S
C1892 H1882 0.930 . S
C1892 C1891 1.400 . S
C1892 C1895 1.386 . S
H1893 C1909 0.930 . S
H1894 C1910 0.931 . S
C1895 H1883 0.929 . S
C1895 C1889 1.390 . S
C1895 C1892 1.386 . S
C1896 C1891 1.490 . S
C1896 C1898 1.395 . S
C1896 C1899 1.403 . S
H1897 C1903 0.930 . S
C1898 H1884 0.930 . S
C1898 C1896 1.395 . S
C1898 C1901 1.403 . S
C1899 C1896 1.403 . S
C1899 C1900 1.524 . S
C1899 C1903 1.400 . S
C1900 H1885 0.960 . S
C1900 H1886 0.960 . S
C1900 H1887 0.960 . S
C1900 C1899 1.524 . S
C1901 C1898 1.403 . S
C1901 C1902 1.392 . S
C1901 C1905 1.495 . S
C1902 C1901 1.392 . S
C1902 C1903 1.385 . S
C1902 C1904 1.478 . S
C1903 H1897 0.930 . S
C1903 C1899 1.400 . S
C1903 C1902 1.385 . S
C1904 C1902 1.478 . S
C1904 C1906 1.381 . S
C1904 C1910 1.383 . S
C1905 C1901 1.495 . S
C1905 H1911 0.959 . S
C1905 H1912 0.961 . S
C1905 H1913 0.960 . S
C1906 C1904 1.381 . S
C1906 C1907 1.394 . S
C1906 H1914 0.930 . S
C1907 C1906 1.394 . S
C1907 C1908 1.383 . S
C1907 H1915 0.929 . S
C1908 C1907 1.383 . S
C1908 C1909 1.377 . S
C1909 H1893 0.930 . S
C1909 C1908 1.377 . S
C1909 C1910 1.379 . S
C1910 H1894 0.931 . S
C1910 C1904 1.383 . S
C1910 C1909 1.379 . S
H1911 C1905 0.959 . S
H1912 C1905 0.961 . S
H1913 C1905 0.960 . S
H1914 C1906 0.930 . S
H1915 C1907 0.929 . S
H1916 C1924 0.929 . S
H1917 C1926 0.930 . S
H1918 C1928 0.930 . S
H1919 C1931 0.929 . S
H1920 C1934 0.930 . S
H1921 C1936 0.960 . S
H1922 C1936 0.960 . S
H1923 C1936 0.960 . S
C1924 H1916 0.929 . S
C1924 C1925 1.377 . S
C1924 C1926 1.384 . S
C1925 C1924 1.377 . S
C1925 C1931 1.390 . S
C1926 H1917 0.930 . S
C1926 C1924 1.384 . S
C1926 C1927 1.372 . S
C1927 C1926 1.372 . S
C1927 C1928 1.400 . S
C1927 C1932 1.490 . S
C1928 H1918 0.930 . S
C1928 C1927 1.400 . S
C1928 C1931 1.386 . S
H1929 C1945 0.930 . S
H1930 C1946 0.931 . S
C1931 H1919 0.929 . S
C1931 C1925 1.390 . S
C1931 C1928 1.386 . S
C1932 C1927 1.490 . S
C1932 C1934 1.395 . S
C1932 C1935 1.403 . S
H1933 C1939 0.930 . S
C1934 H1920 0.930 . S
C1934 C1932 1.395 . S
C1934 C1937 1.403 . S
C1935 C1932 1.403 . S
C1935 C1936 1.524 . S
C1935 C1939 1.400 . S
C1936 H1921 0.960 . S
C1936 H1922 0.960 . S
C1936 H1923 0.960 . S
C1936 C1935 1.524 . S
C1937 C1934 1.403 . S
C1937 C1938 1.392 . S
C1937 C1941 1.495 . S
C1938 C1937 1.392 . S
C1938 C1939 1.385 . S
C1938 C1940 1.478 . S
C1939 H1933 0.930 . S
C1939 C1935 1.400 . S
C1939 C1938 1.385 . S
C1940 C1938 1.478 . S
C1940 C1942 1.381 . S
C1940 C1946 1.383 . S
C1941 C1937 1.495 . S
C1941 H1947 0.959 . S
C1941 H1948 0.961 . S
C1941 H1949 0.960 . S
C1942 C1940 1.381 . S
C1942 C1943 1.394 . S
C1942 H1950 0.930 . S
C1943 C1942 1.394 . S
C1943 C1944 1.383 . S
C1943 H1951 0.929 . S
C1944 C1943 1.383 . S
C1944 C1945 1.377 . S
C1945 H1929 0.930 . S
C1945 C1944 1.377 . S
C1945 C1946 1.379 . S
C1946 H1930 0.931 . S
C1946 C1940 1.383 . S
C1946 C1945 1.379 . S
H1947 C1941 0.959 . S
H1948 C1941 0.961 . S
H1949 C1941 0.960 . S
H1950 C1942 0.930 . S
H1951 C1943 0.929 . S
H1952 C1960 0.929 . S
H1953 C1962 0.930 . S
H1954 C1964 0.930 . S
H1955 C1967 0.929 . S
H1956 C1970 0.930 . S
H1957 C1972 0.960 . S
H1958 C1972 0.960 . S
H1959 C1972 0.960 . S
C1960 H1952 0.929 . S
C1960 C1961 1.377 . S
C1960 C1962 1.384 . S
C1961 C1960 1.377 . S
C1961 C1967 1.390 . S
C1962 H1953 0.930 . S
C1962 C1960 1.384 . S
C1962 C1963 1.372 . S
C1963 C1962 1.372 . S
C1963 C1964 1.400 . S
C1963 C1968 1.490 . S
C1964 H1954 0.930 . S
C1964 C1963 1.400 . S
C1964 C1967 1.386 . S
H1965 C1981 0.930 . S
H1966 C1982 0.931 . S
C1967 H1955 0.929 . S
C1967 C1961 1.390 . S
C1967 C1964 1.386 . S
C1968 C1963 1.490 . S
C1968 C1970 1.395 . S
C1968 C1971 1.403 . S
H1969 C1975 0.930 . S
C1970 H1956 0.930 . S
C1970 C1968 1.395 . S
C1970 C1973 1.403 . S
C1971 C1968 1.403 . S
C1971 C1972 1.524 . S
C1971 C1975 1.400 . S
C1972 H1957 0.960 . S
C1972 H1958 0.960 . S
C1972 H1959 0.960 . S
C1972 C1971 1.524 . S
C1973 C1970 1.403 . S
C1973 C1974 1.392 . S
C1973 C1977 1.495 . S
C1974 C1973 1.392 . S
C1974 C1975 1.385 . S
C1974 C1976 1.478 . S
C1975 H1969 0.930 . S
C1975 C1971 1.400 . S
C1975 C1974 1.385 . S
C1976 C1974 1.478 . S
C1976 C1978 1.381 . S
C1976 C1982 1.383 . S
C1977 C1973 1.495 . S
C1977 H1983 0.959 . S
C1977 H1984 0.961 . S
C1977 H1985 0.960 . S
C1978 C1976 1.381 . S
C1978 C1979 1.394 . S
C1978 H1986 0.930 . S
C1979 C1978 1.394 . S
C1979 C1980 1.383 . S
C1979 H1987 0.929 . S
C1980 C1979 1.383 . S
C1980 C1981 1.377 . S
C1981 H1965 0.930 . S
C1981 C1980 1.377 . S
C1981 C1982 1.379 . S
C1982 H1966 0.931 . S
C1982 C1976 1.383 . S
C1982 C1981 1.379 . S
H1983 C1977 0.959 . S
H1984 C1977 0.961 . S
H1985 C1977 0.960 . S
H1986 C1978 0.930 . S
H1987 C1979 0.929 . S
H1988 C1996 0.929 . S
H1989 C1998 0.930 . S
H1990 C2000 0.930 . S
H1991 C2003 0.929 . S
H1992 C2006 0.930 . S
H1993 C2008 0.960 . S
H1994 C2008 0.960 . S
H1995 C2008 0.960 . S
C1996 H1988 0.929 . S
C1996 C1997 1.377 . S
C1996 C1998 1.384 . S
C1997 C1996 1.377 . S
C1997 C2003 1.390 . S
C1998 H1989 0.930 . S
C1998 C1996 1.384 . S
C1998 C1999 1.372 . S
C1999 C1998 1.372 . S
C1999 C2000 1.400 . S
C1999 C2004 1.490 . S
C2000 H1990 0.930 . S
C2000 C1999 1.400 . S
C2000 C2003 1.386 . S
H2001 C2017 0.930 . S
H2002 C2018 0.931 . S
C2003 H1991 0.929 . S
C2003 C1997 1.390 . S
C2003 C2000 1.386 . S
C2004 C1999 1.490 . S
C2004 C2006 1.395 . S
C2004 C2007 1.403 . S
H2005 C2011 0.930 . S
C2006 H1992 0.930 . S
C2006 C2004 1.395 . S
C2006 C2009 1.403 . S
C2007 C2004 1.403 . S
C2007 C2008 1.524 . S
C2007 C2011 1.400 . S
C2008 H1993 0.960 . S
C2008 H1994 0.960 . S
C2008 H1995 0.960 . S
C2008 C2007 1.524 . S
C2009 C2006 1.403 . S
C2009 C2010 1.392 . S
C2009 C2013 1.495 . S
C2010 C2009 1.392 . S
C2010 C2011 1.385 . S
C2010 C2012 1.478 . S
C2011 H2005 0.930 . S
C2011 C2007 1.400 . S
C2011 C2010 1.385 . S
C2012 C2010 1.478 . S
C2012 C2014 1.381 . S
C2012 C2018 1.383 . S
C2013 C2009 1.495 . S
C2013 H2019 0.959 . S
C2013 H2020 0.961 . S
C2013 H2021 0.960 . S
C2014 C2012 1.381 . S
C2014 C2015 1.394 . S
C2014 H2022 0.930 . S
C2015 C2014 1.394 . S
C2015 C2016 1.383 . S
C2015 H2023 0.929 . S
C2016 C2015 1.383 . S
C2016 C2017 1.377 . S
C2017 H2001 0.930 . S
C2017 C2016 1.377 . S
C2017 C2018 1.379 . S
C2018 H2002 0.931 . S
C2018 C2012 1.383 . S
C2018 C2017 1.379 . S
H2019 C2013 0.959 . S
H2020 C2013 0.961 . S
H2021 C2013 0.960 . S
H2022 C2014 0.930 . S
H2023 C2015 0.929 . S
H2024 C2032 0.929 . S
H2025 C2034 0.930 . S
H2026 C2036 0.930 . S
H2027 C2039 0.929 . S
H2028 C2042 0.930 . S
H2029 C2044 0.960 . S
H2030 C2044 0.960 . S
H2031 C2044 0.960 . S
C2032 H2024 0.929 . S
C2032 C2033 1.377 . S
C2032 C2034 1.384 . S
C2033 C2032 1.377 . S
C2033 C2039 1.390 . S
C2034 H2025 0.930 . S
C2034 C2032 1.384 . S
C2034 C2035 1.372 . S
C2035 C2034 1.372 . S
C2035 C2036 1.400 . S
C2035 C2040 1.490 . S
C2036 H2026 0.930 . S
C2036 C2035 1.400 . S
C2036 C2039 1.386 . S
H2037 C2053 0.930 . S
H2038 C2054 0.931 . S
C2039 H2027 0.929 . S
C2039 C2033 1.390 . S
C2039 C2036 1.386 . S
C2040 C2035 1.490 . S
C2040 C2042 1.395 . S
C2040 C2043 1.403 . S
H2041 C2047 0.930 . S
C2042 H2028 0.930 . S
C2042 C2040 1.395 . S
C2042 C2045 1.403 . S
C2043 C2040 1.403 . S
C2043 C2044 1.524 . S
C2043 C2047 1.400 . S
C2044 H2029 0.960 . S
C2044 H2030 0.960 . S
C2044 H2031 0.960 . S
C2044 C2043 1.524 . S
C2045 C2042 1.403 . S
C2045 C2046 1.392 . S
C2045 C2049 1.495 . S
C2046 C2045 1.392 . S
C2046 C2047 1.385 . S
C2046 C2048 1.478 . S
C2047 H2041 0.930 . S
C2047 C2043 1.400 . S
C2047 C2046 1.385 . S
C2048 C2046 1.478 . S
C2048 C2050 1.381 . S
C2048 C2054 1.383 . S
C2049 C2045 1.495 . S
C2049 H2055 0.959 . S
C2049 H2056 0.961 . S
C2049 H2057 0.960 . S
C2050 C2048 1.381 . S
C2050 C2051 1.394 . S
C2050 H2058 0.930 . S
C2051 C2050 1.394 . S
C2051 C2052 1.383 . S
C2051 H2059 0.929 . S
C2052 C2051 1.383 . S
C2052 C2053 1.377 . S
C2053 H2037 0.930 . S
C2053 C2052 1.377 . S
C2053 C2054 1.379 . S
C2054 H2038 0.931 . S
C2054 C2048 1.383 . S
C2054 C2053 1.379 . S
H2055 C2049 0.959 . S
H2056 C2049 0.961 . S
H2057 C2049 0.960 . S
H2058 C2050 0.930 . S
H2059 C2051 0.929 . S
H2060 C2068 0.929 . S
H2061 C2070 0.930 . S
H2062 C2072 0.930 . S
H2063 C2075 0.929 . S
H2064 C2078 0.930 . S
H2065 C2080 0.960 . S
H2066 C2080 0.960 . S
H2067 C2080 0.960 . S
C2068 H2060 0.929 . S
C2068 C2069 1.377 . S
C2068 C2070 1.384 . S
C2069 C2068 1.377 . S
C2069 C2075 1.390 . S
C2070 H2061 0.930 . S
C2070 C2068 1.384 . S
C2070 C2071 1.372 . S
C2071 C2070 1.372 . S
C2071 C2072 1.400 . S
C2071 C2076 1.490 . S
C2072 H2062 0.930 . S
C2072 C2071 1.400 . S
C2072 C2075 1.386 . S
H2073 C2089 0.930 . S
H2074 C2090 0.931 . S
C2075 H2063 0.929 . S
C2075 C2069 1.390 . S
C2075 C2072 1.386 . S
C2076 C2071 1.490 . S
C2076 C2078 1.395 . S
C2076 C2079 1.403 . S
H2077 C2083 0.930 . S
C2078 H2064 0.930 . S
C2078 C2076 1.395 . S
C2078 C2081 1.403 . S
C2079 C2076 1.403 . S
C2079 C2080 1.524 . S
C2079 C2083 1.400 . S
C2080 H2065 0.960 . S
C2080 H2066 0.960 . S
C2080 H2067 0.960 . S
C2080 C2079 1.524 . S
C2081 C2078 1.403 . S
C2081 C2082 1.392 . S
C2081 C2085 1.495 . S
C2082 C2081 1.392 . S
C2082 C2083 1.385 . S
C2082 C2084 1.478 . S
C2083 H2077 0.930 . S
C2083 C2079 1.400 . S
C2083 C2082 1.385 . S
C2084 C2082 1.478 . S
C2084 C2086 1.381 . S
C2084 C2090 1.383 . S
C2085 C2081 1.495 . S
C2085 H2091 0.959 . S
C2085 H2092 0.961 . S
C2085 H2093 0.960 . S
C2086 C2084 1.381 . S
C2086 C2087 1.394 . S
C2086 H2094 0.930 . S
C2087 C2086 1.394 . S
C2087 C2088 1.383 . S
C2087 H2095 0.929 . S
C2088 C2087 1.383 . S
C2088 C2089 1.377 . S
C2089 H2073 0.930 . S
C2089 C2088 1.377 . S
C2089 C2090 1.379 . S
C2090 H2074 0.931 . S
C2090 C2084 1.383 . S
C2090 C2089 1.379 . S
H2091 C2085 0.959 . S
H2092 C2085 0.961 . S
H2093 C2085 0.960 . S
H2094 C2086 0.930 . S
H2095 C2087 0.929 . S
H2096 C2104 0.929 . S
H2097 C2106 0.930 . S
H2098 C2108 0.930 . S
H2099 C2111 0.929 . S
H2100 C2114 0.930 . S
H2101 C2116 0.960 . S
H2102 C2116 0.960 . S
H2103 C2116 0.960 . S
C2104 H2096 0.929 . S
C2104 C2105 1.377 . S
C2104 C2106 1.384 . S
C2105 C2104 1.377 . S
C2105 C2111 1.390 . S
C2106 H2097 0.930 . S
C2106 C2104 1.384 . S
C2106 C2107 1.372 . S
C2107 C2106 1.372 . S
C2107 C2108 1.400 . S
C2107 C2112 1.490 . S
C2108 H2098 0.930 . S
C2108 C2107 1.400 . S
C2108 C2111 1.386 . S
H2109 C2125 0.930 . S
H2110 C2126 0.931 . S
C2111 H2099 0.929 . S
C2111 C2105 1.390 . S
C2111 C2108 1.386 . S
C2112 C2107 1.490 . S
C2112 C2114 1.395 . S
C2112 C2115 1.403 . S
H2113 C2119 0.930 . S
C2114 H2100 0.930 . S
C2114 C2112 1.395 . S
C2114 C2117 1.403 . S
C2115 C2112 1.403 . S
C2115 C2116 1.524 . S
C2115 C2119 1.400 . S
C2116 H2101 0.960 . S
C2116 H2102 0.960 . S
C2116 H2103 0.960 . S
C2116 C2115 1.524 . S
C2117 C2114 1.403 . S
C2117 C2118 1.392 . S
C2117 C2121 1.495 . S
C2118 C2117 1.392 . S
C2118 C2119 1.385 . S
C2118 C2120 1.478 . S
C2119 H2113 0.930 . S
C2119 C2115 1.400 . S
C2119 C2118 1.385 . S
C2120 C2118 1.478 . S
C2120 C2122 1.381 . S
C2120 C2126 1.383 . S
C2121 C2117 1.495 . S
C2121 H2127 0.959 . S
C2121 H2128 0.961 . S
C2121 H2129 0.960 . S
C2122 C2120 1.381 . S
C2122 C2123 1.394 . S
C2122 H2130 0.930 . S
C2123 C2122 1.394 . S
C2123 C2124 1.383 . S
C2123 H2131 0.929 . S
C2124 C2123 1.383 . S
C2124 C2125 1.377 . S
C2125 H2109 0.930 . S
C2125 C2124 1.377 . S
C2125 C2126 1.379 . S
C2126 H2110 0.931 . S
C2126 C2120 1.383 . S
C2126 C2125 1.379 . S
H2127 C2121 0.959 . S
H2128 C2121 0.961 . S
H2129 C2121 0.960 . S
H2130 C2122 0.930 . S
H2131 C2123 0.929 . S
H2132 C2140 0.929 . S
H2133 C2142 0.930 . S
H2134 C2144 0.930 . S
H2135 C2147 0.929 . S
H2136 C2150 0.930 . S
H2137 C2152 0.960 . S
H2138 C2152 0.960 . S
H2139 C2152 0.960 . S
C2140 H2132 0.929 . S
C2140 C2141 1.377 . S
C2140 C2142 1.384 . S
C2141 C2140 1.377 . S
C2141 C2147 1.390 . S
C2142 H2133 0.930 . S
C2142 C2140 1.384 . S
C2142 C2143 1.372 . S
C2143 C2142 1.372 . S
C2143 C2144 1.400 . S
C2143 C2148 1.490 . S
C2144 H2134 0.930 . S
C2144 C2143 1.400 . S
C2144 C2147 1.386 . S
H2145 C2161 0.930 . S
H2146 C2162 0.931 . S
C2147 H2135 0.929 . S
C2147 C2141 1.390 . S
C2147 C2144 1.386 . S
C2148 C2143 1.490 . S
C2148 C2150 1.395 . S
C2148 C2151 1.403 . S
H2149 C2155 0.930 . S
C2150 H2136 0.930 . S
C2150 C2148 1.395 . S
C2150 C2153 1.403 . S
C2151 C2148 1.403 . S
C2151 C2152 1.524 . S
C2151 C2155 1.400 . S
C2152 H2137 0.960 . S
C2152 H2138 0.960 . S
C2152 H2139 0.960 . S
C2152 C2151 1.524 . S
C2153 C2150 1.403 . S
C2153 C2154 1.392 . S
C2153 C2157 1.495 . S
C2154 C2153 1.392 . S
C2154 C2155 1.385 . S
C2154 C2156 1.478 . S
C2155 H2149 0.930 . S
C2155 C2151 1.400 . S
C2155 C2154 1.385 . S
C2156 C2154 1.478 . S
C2156 C2158 1.381 . S
C2156 C2162 1.383 . S
C2157 C2153 1.495 . S
C2157 H2163 0.959 . S
C2157 H2164 0.961 . S
C2157 H2165 0.960 . S
C2158 C2156 1.381 . S
C2158 C2159 1.394 . S
C2158 H2166 0.930 . S
C2159 C2158 1.394 . S
C2159 C2160 1.383 . S
C2159 H2167 0.929 . S
C2160 C2159 1.383 . S
C2160 C2161 1.377 . S
C2161 H2145 0.930 . S
C2161 C2160 1.377 . S
C2161 C2162 1.379 . S
C2162 H2146 0.931 . S
C2162 C2156 1.383 . S
C2162 C2161 1.379 . S
H2163 C2157 0.959 . S
H2164 C2157 0.961 . S
H2165 C2157 0.960 . S
H2166 C2158 0.930 . S
H2167 C2159 0.929 . S
H2168 C2176 0.929 . S
H2169 C2178 0.930 . S
H2170 C2180 0.930 . S
H2171 C2183 0.929 . S
H2172 C2186 0.930 . S
H2173 C2188 0.960 . S
H2174 C2188 0.960 . S
H2175 C2188 0.960 . S
C2176 H2168 0.929 . S
C2176 C2177 1.377 . S
C2176 C2178 1.384 . S
C2177 C2176 1.377 . S
C2177 C2183 1.390 . S
C2178 H2169 0.930 . S
C2178 C2176 1.384 . S
C2178 C2179 1.372 . S
C2179 C2178 1.372 . S
C2179 C2180 1.400 . S
C2179 C2184 1.490 . S
C2180 H2170 0.930 . S
C2180 C2179 1.400 . S
C2180 C2183 1.386 . S
H2181 C2197 0.930 . S
H2182 C2198 0.931 . S
C2183 H2171 0.929 . S
C2183 C2177 1.390 . S
C2183 C2180 1.386 . S
C2184 C2179 1.490 . S
C2184 C2186 1.395 . S
C2184 C2187 1.403 . S
H2185 C2191 0.930 . S
C2186 H2172 0.930 . S
C2186 C2184 1.395 . S
C2186 C2189 1.403 . S
C2187 C2184 1.403 . S
C2187 C2188 1.524 . S
C2187 C2191 1.400 . S
C2188 H2173 0.960 . S
C2188 H2174 0.960 . S
C2188 H2175 0.960 . S
C2188 C2187 1.524 . S
C2189 C2186 1.403 . S
C2189 C2190 1.392 . S
C2189 C2193 1.495 . S
C2190 C2189 1.392 . S
C2190 C2191 1.385 . S
C2190 C2192 1.478 . S
C2191 H2185 0.930 . S
C2191 C2187 1.400 . S
C2191 C2190 1.385 . S
C2192 C2190 1.478 . S
C2192 C2194 1.381 . S
C2192 C2198 1.383 . S
C2193 C2189 1.495 . S
C2193 H2199 0.959 . S
C2193 H2200 0.961 . S
C2193 H2201 0.960 . S
C2194 C2192 1.381 . S
C2194 C2195 1.394 . S
C2194 H2202 0.930 . S
C2195 C2194 1.394 . S
C2195 C2196 1.383 . S
C2195 H2203 0.929 . S
C2196 C2195 1.383 . S
C2196 C2197 1.377 . S
C2197 H2181 0.930 . S
C2197 C2196 1.377 . S
C2197 C2198 1.379 . S
C2198 H2182 0.931 . S
C2198 C2192 1.383 . S
C2198 C2197 1.379 . S
H2199 C2193 0.959 . S
H2200 C2193 0.961 . S
H2201 C2193 0.960 . S
H2202 C2194 0.930 . S
H2203 C2195 0.929 . S
H2204 C2212 0.929 . S
H2205 C2214 0.930 . S
H2206 C2216 0.930 . S
H2207 C2219 0.929 . S
H2208 C2222 0.930 . S
H2209 C2224 0.960 . S
H2210 C2224 0.960 . S
H2211 C2224 0.960 . S
C2212 H2204 0.929 . S
C2212 C2213 1.377 . S
C2212 C2214 1.384 . S
C2213 C2212 1.377 . S
C2213 C2219 1.390 . S
C2214 H2205 0.930 . S
C2214 C2212 1.384 . S
C2214 C2215 1.372 . S
C2215 C2214 1.372 . S
C2215 C2216 1.400 . S
C2215 C2220 1.490 . S
C2216 H2206 0.930 . S
C2216 C2215 1.400 . S
C2216 C2219 1.386 . S
H2217 C2233 0.930 . S
H2218 C2234 0.931 . S
C2219 H2207 0.929 . S
C2219 C2213 1.390 . S
C2219 C2216 1.386 . S
C2220 C2215 1.490 . S
C2220 C2222 1.395 . S
C2220 C2223 1.403 . S
H2221 C2227 0.930 . S
C2222 H2208 0.930 . S
C2222 C2220 1.395 . S
C2222 C2225 1.403 . S
C2223 C2220 1.403 . S
C2223 C2224 1.524 . S
C2223 C2227 1.400 . S
C2224 H2209 0.960 . S
C2224 H2210 0.960 . S
C2224 H2211 0.960 . S
C2224 C2223 1.524 . S
C2225 C2222 1.403 . S
C2225 C2226 1.392 . S
C2225 C2229 1.495 . S
C2226 C2225 1.392 . S
C2226 C2227 1.385 . S
C2226 C2228 1.478 . S
C2227 H2221 0.930 . S
C2227 C2223 1.400 . S
C2227 C2226 1.385 . S
C2228 C2226 1.478 . S
C2228 C2230 1.381 . S
C2228 C2234 1.383 . S
C2229 C2225 1.495 . S
C2229 H2235 0.959 . S
C2229 H2236 0.961 . S
C2229 H2237 0.960 . S
C2230 C2228 1.381 . S
C2230 C2231 1.394 . S
C2230 H2238 0.930 . S
C2231 C2230 1.394 . S
C2231 C2232 1.383 . S
C2231 H2239 0.929 . S
C2232 C2231 1.383 . S
C2232 C2233 1.377 . S
C2233 H2217 0.930 . S
C2233 C2232 1.377 . S
C2233 C2234 1.379 . S
C2234 H2218 0.931 . S
C2234 C2228 1.383 . S
C2234 C2233 1.379 . S
H2235 C2229 0.959 . S
H2236 C2229 0.961 . S
H2237 C2229 0.960 . S
H2238 C2230 0.930 . S
H2239 C2231 0.929 . S
C521 C98 1.045 . S
C540 N18 0.990 . S
C557 C4 1.266 . S
C576 C38 1.258 . S
C593 N77 1.009 . S
C612 C34 1.069 . S
C629 C102 1.627 . S
C648 C66 1.623 . S
C665 C157 1.296 . S
C684 C164 1.279 . S
C701 N178 0.491 . S
C720 N205 0.586 . S
C737 C196 1.657 . S
C756 C226 1.655 . S
C773 N146 0.492 . S
C792 N237 0.805 . S
C809 C317 1.507 . S
C828 C29 1.510 . S
C845 C349 1.138 . S
C864 N50 1.060 . S
C881 C70 1.274 . S
C900 C422 1.275 . S
C917 C285 1.128 . S
C936 N114 1.061 . S
C953 N365 1.064 . S
C972 C132 1.149 . S
C989 C477 1.507 . S
C1008 C189 1.496 . S
C1025 C221 1.133 . S
C1044 N402 1.106 . S
C1061 C486 1.272 . S
C1080 C230 1.287 . S
C1097 N269 0.462 . S
C1116 N429 0.689 . S
C1133 C292 1.280 . S
C1152 C260 1.304 . S
C1169 N333 0.522 . S
C1188 N306 0.449 . S
C1205 N466 1.007 . S
C1224 C358 1.056 . S
C1241 C386 1.073 . S
C1260 N493 0.991 . S
C1277 C356 1.219 . S
C1296 N13 1.166 . S
C1313 C388 1.317 . S
C1332 C6 1.323 . S
C1349 C413 1.245 . S
C1368 N82 1.166 . S
C1385 C93 1.815 . S
C1404 C381 1.803 . S
C1421 C294 1.318 . S
C1440 C130 1.305 . S
C1457 N301 0.605 . S
C1476 N210 0.674 . S
C1493 C445 1.796 . S
C1512 C198 1.792 . S
C1529 N141 0.618 . S
C1548 N434 0.637 . S
C1565 C162 1.872 . S
C1584 C2 1.865 . S
C1601 C322 1.257 . S
C1620 N397 1.205 . S
C1637 C68 1.301 . S
C1656 C228 1.290 . S
C1673 C258 1.282 . S
C1692 N370 1.257 . S
C1709 N109 1.218 . S
C1728 C134 1.258 . S
C1745 C290 1.873 . S
C1764 C450 1.878 . S
C1781 C194 1.249 . S
C1800 N45 1.165 . S
C1817 C484 1.303 . S
C1836 C420 1.305 . S
C1853 N274 0.621 . S
C1872 N242 0.610 . S
C1889 C262 1.317 . S
C1908 C166 1.325 . S
C1925 N338 0.648 . S
C1944 N173 0.611 . S
C1961 C125 1.222 . S
C1980 N461 1.202 . S
C1997 C61 1.246 . S
C2016 N498 1.212 . S
C2033 C390 1.271 . S
C2052 C452 1.261 . S
C2069 C354 1.627 . S
C2088 C482 1.621 . S
C2105 C324 1.656 . S
C2124 C418 1.639 . S
C2141 C454 1.316 . S
C2160 C36 1.316 . S
C2177 C100 1.819 . S
C2196 C509 1.824 . S
C2213 C253 1.792 . S
C2232 C326 1.796 . S
