# Generated by pormake.
# Topology vcc, (6)-cn, num edge types: 1
# Building blocks:
#     Node 0, Type 0, BuildingBlock: CIFDUS_clean_sbu_1, # of connection points: 6
#     Node 1, Type 0, BuildingBlock: CIFDUS_clean_sbu_1, # of connection points: 6
#     Node 2, Type 0, BuildingBlock: CIFDUS_clean_sbu_1, # of connection points: 6
#     Node 3, Type 0, BuildingBlock: CIFDUS_clean_sbu_1, # of connection points: 6
#     Node 4, Type 0, BuildingBlock: CIFDUS_clean_sbu_1, # of connection points: 6
#     Node 5, Type 0, BuildingBlock: CIFDUS_clean_sbu_1, # of connection points: 6
#     Node 6, Type 0, BuildingBlock: CIFDUS_clean_sbu_1, # of connection points: 6
#     Node 7, Type 0, BuildingBlock: CIFDUS_clean_sbu_1, # of connection points: 6
#     Node 8, Type 0, BuildingBlock: CIFDUS_clean_sbu_1, # of connection points: 6
#     Node 9, Type 0, BuildingBlock: CIFDUS_clean_sbu_1, # of connection points: 6
#     Node 10, Type 0, BuildingBlock: CIFDUS_clean_sbu_1, # of connection points: 6
#     Node 11, Type 0, BuildingBlock: CIFDUS_clean_sbu_1, # of connection points: 6
#     Node 12, Type 0, BuildingBlock: CIFDUS_clean_sbu_1, # of connection points: 6
#     Node 13, Type 0, BuildingBlock: CIFDUS_clean_sbu_1, # of connection points: 6
#     Node 14, Type 0, BuildingBlock: CIFDUS_clean_sbu_1, # of connection points: 6
#     Node 15, Type 0, BuildingBlock: CIFDUS_clean_sbu_1, # of connection points: 6
#     Node 16, Type 0, BuildingBlock: CIFDUS_clean_sbu_1, # of connection points: 6
#     Node 17, Type 0, BuildingBlock: CIFDUS_clean_sbu_1, # of connection points: 6
#     Node 18, Type 0, BuildingBlock: CIFDUS_clean_sbu_1, # of connection points: 6
#     Node 19, Type 0, BuildingBlock: CIFDUS_clean_sbu_1, # of connection points: 6
#     Node 20, Type 0, BuildingBlock: CIFDUS_clean_sbu_1, # of connection points: 6
#     Node 21, Type 0, BuildingBlock: CIFDUS_clean_sbu_1, # of connection points: 6
#     Node 22, Type 0, BuildingBlock: CIFDUS_clean_sbu_1, # of connection points: 6
#     Node 23, Type 0, BuildingBlock: CIFDUS_clean_sbu_1, # of connection points: 6
#     Node 24, Type 0, BuildingBlock: CIFDUS_clean_sbu_1, # of connection points: 6
#     Node 25, Type 0, BuildingBlock: CIFDUS_clean_sbu_1, # of connection points: 6
#     Node 26, Type 0, BuildingBlock: CIFDUS_clean_sbu_1, # of connection points: 6
#     Node 27, Type 0, BuildingBlock: CIFDUS_clean_sbu_1, # of connection points: 6
#     Node 28, Type 0, BuildingBlock: CIFDUS_clean_sbu_1, # of connection points: 6
#     Node 29, Type 0, BuildingBlock: CIFDUS_clean_sbu_1, # of connection points: 6
#     Node 30, Type 0, BuildingBlock: CIFDUS_clean_sbu_1, # of connection points: 6
#     Node 31, Type 0, BuildingBlock: CIFDUS_clean_sbu_1, # of connection points: 6
#     Edge 32, Type (0, 0), None
#     Edge 33, Type (0, 0), None
#     Edge 34, Type (0, 0), None
#     Edge 35, Type (0, 0), None
#     Edge 36, Type (0, 0), None
#     Edge 37, Type (0, 0), None
#     Edge 38, Type (0, 0), None
#     Edge 39, Type (0, 0), None
#     Edge 40, Type (0, 0), None
#     Edge 41, Type (0, 0), None
#     Edge 42, Type (0, 0), None
#     Edge 43, Type (0, 0), None
#     Edge 44, Type (0, 0), None
#     Edge 45, Type (0, 0), None
#     Edge 46, Type (0, 0), None
#     Edge 47, Type (0, 0), None
#     Edge 48, Type (0, 0), None
#     Edge 49, Type (0, 0), None
#     Edge 50, Type (0, 0), None
#     Edge 51, Type (0, 0), None
#     Edge 52, Type (0, 0), None
#     Edge 53, Type (0, 0), None
#     Edge 54, Type (0, 0), None
#     Edge 55, Type (0, 0), None
#     Edge 56, Type (0, 0), None
#     Edge 57, Type (0, 0), None
#     Edge 58, Type (0, 0), None
#     Edge 59, Type (0, 0), None
#     Edge 60, Type (0, 0), None
#     Edge 61, Type (0, 0), None
#     Edge 62, Type (0, 0), None
#     Edge 63, Type (0, 0), None
#     Edge 64, Type (0, 0), None
#     Edge 65, Type (0, 0), None
#     Edge 66, Type (0, 0), None
#     Edge 67, Type (0, 0), None
#     Edge 68, Type (0, 0), None
#     Edge 69, Type (0, 0), None
#     Edge 70, Type (0, 0), None
#     Edge 71, Type (0, 0), None
#     Edge 72, Type (0, 0), None
#     Edge 73, Type (0, 0), None
#     Edge 74, Type (0, 0), None
#     Edge 75, Type (0, 0), None
#     Edge 76, Type (0, 0), None
#     Edge 77, Type (0, 0), None
#     Edge 78, Type (0, 0), None
#     Edge 79, Type (0, 0), None
#     Edge 80, Type (0, 0), None
#     Edge 81, Type (0, 0), None
#     Edge 82, Type (0, 0), None
#     Edge 83, Type (0, 0), None
#     Edge 84, Type (0, 0), None
#     Edge 85, Type (0, 0), None
#     Edge 86, Type (0, 0), None
#     Edge 87, Type (0, 0), None
#     Edge 88, Type (0, 0), None
#     Edge 89, Type (0, 0), None
#     Edge 90, Type (0, 0), None
#     Edge 91, Type (0, 0), None
#     Edge 92, Type (0, 0), None
#     Edge 93, Type (0, 0), None
#     Edge 94, Type (0, 0), None
#     Edge 95, Type (0, 0), None
#     Edge 96, Type (0, 0), None
#     Edge 97, Type (0, 0), None
#     Edge 98, Type (0, 0), None
#     Edge 99, Type (0, 0), None
#     Edge 100, Type (0, 0), None
#     Edge 101, Type (0, 0), None
#     Edge 102, Type (0, 0), None
#     Edge 103, Type (0, 0), None
#     Edge 104, Type (0, 0), None
#     Edge 105, Type (0, 0), None
#     Edge 106, Type (0, 0), None
#     Edge 107, Type (0, 0), None
#     Edge 108, Type (0, 0), None
#     Edge 109, Type (0, 0), None
#     Edge 110, Type (0, 0), None
#     Edge 111, Type (0, 0), None
#     Edge 112, Type (0, 0), None
#     Edge 113, Type (0, 0), None
#     Edge 114, Type (0, 0), None
#     Edge 115, Type (0, 0), None
#     Edge 116, Type (0, 0), None
#     Edge 117, Type (0, 0), None
#     Edge 118, Type (0, 0), None
#     Edge 119, Type (0, 0), None
#     Edge 120, Type (0, 0), None
#     Edge 121, Type (0, 0), None
#     Edge 122, Type (0, 0), None
#     Edge 123, Type (0, 0), None
#     Edge 124, Type (0, 0), None
#     Edge 125, Type (0, 0), None
#     Edge 126, Type (0, 0), None
#     Edge 127, Type (0, 0), None
# Relax obj value: 0.102
# Max RMSD: 0.144
# Mean RMSD: 0.137
data_MOF--net-vcc--node1-CIFDUS_clean_sbu_1--edge1-none
_symmetry_space_group_name_H-M    P1
_symmetry_Int_Tables_number       1
_symmetry_cell_setting            triclinic
loop_
_symmetry_equiv_pos_as_xyz
'x, y, z'
_cell_length_a     24.320482
_cell_length_b     28.634871
_cell_length_c     16.612903
_cell_angle_alpha  90.001203
_cell_angle_beta   90.598508
_cell_angle_gamma 91.276505
loop_
_atom_site_label
_atom_site_type_symbol
_atom_site_fract_x
_atom_site_fract_y
_atom_site_fract_z
_atom_type_partial_charge
O0 O 0.40348 0.03248 0.16456 0.0
Mn1 Mn 0.33208 0.02072 0.10053 0.0
O2 O 0.38541 0.98743 0.27305 0.0
Mn3 Mn 0.32483 0.95349 0.2302 0.0
O4 O 0.26003 1.00921 0.03418 0.0
O5 O 0.32654 0.0911 0.09183 0.0
Mn6 Mn 0.31488 0.10721 0.99242 0.0
O7 O 0.37131 1.0107 0.98786 0.0
O8 O 0.24352 0.07986 0.98034 0.0
O9 O 0.28775 0.03688 0.20038 0.0
O10 O 0.25642 0.9751 0.26162 0.0
O11 O 0.321 0.16139 0.04848 0.0
O12 O 0.38082 0.08354 0.955 0.0
C13 C 0.34622 0.90513 0.14059 0.0
C14 C 0.41478 1.01804 0.23551 0.0
C15 C 0.23054 0.03684 0.99176 0.0
C16 C 0.32503 0.13499 0.10994 0.0
C17 C 0.37751 0.04174 0.93227 0.0
C18 C 0.25417 1.01835 0.24915 0.0
O19 O 0.34097 0.9499 0.12467 0.0
O20 O 0.33039 0.8918 0.2113 0.0
O21 O 0.91939 0.19765 0.12169 0.0
Mn22 Mn 0.90236 0.26723 0.09654 0.0
O23 O 0.83935 0.162 0.08179 0.0
Mn24 Mn 0.79967 0.21007 0.03482 0.0
O25 O 0.87725 0.33654 0.07802 0.0
O26 O 0.95848 0.28742 0.18203 0.0
Mn27 Mn -0.00695 0.33916 0.14905 0.0
O28 O 0.96196 0.27174 1.00996 0.0
O29 O 0.93782 0.38351 0.14244 0.0
O30 O 0.84003 0.26091 0.18207 0.0
O31 O 0.76248 0.24429 0.11139 0.0
O32 O 0.02436 0.32316 0.24784 0.0
O33 O 0.02767 0.32222 0.05399 0.0
C34 C 0.84273 0.2387 0.93176 0.0
C35 C 0.88621 0.16201 0.11829 0.0
C36 C 0.89096 0.37648 0.10848 0.0
C37 C -0.00958 0.28783 0.24496 0.0
C38 C 0.00793 0.29332 1.00212 0.0
C39 C 0.78734 0.25591 0.17676 0.0
O40 O 0.85189 0.24846 1.0064 0.0
O41 O 0.79823 0.21379 0.92228 0.0
O42 O 0.3031 0.1948 0.19556 0.0
Mn43 Mn 0.3268 0.26461 0.20831 0.0
O44 O 0.38111 0.15466 0.21834 0.0
Mn45 Mn 0.42449 0.20237 0.26701 0.0
O46 O 0.35993 0.33261 0.21848 0.0
O47 O 0.27112 0.28584 0.12146 0.0
Mn48 Mn 0.24199 0.33839 0.15663 0.0
O49 O 0.26835 0.27435 0.29746 0.0
O50 O 0.29944 0.38256 0.16623 0.0
O51 O 0.38617 0.25359 0.12036 0.0
O52 O 0.46345 0.23513 0.18842 0.0
O53 O 0.20885 0.32707 0.0581 0.0
O54 O 0.20372 0.32199 0.24904 0.0
C55 C 0.38599 0.23639 0.37037 0.0
C56 C 0.33278 0.15809 0.18775 0.0
C57 C 0.347 0.37355 0.19461 0.0
C58 C 0.23886 0.29037 0.05866 0.0
C59 C 0.22217 0.29471 0.30304 0.0
C60 C 0.4384 0.24731 0.12386 0.0
O61 O 0.37784 0.24505 0.29548 0.0
O62 O 0.42603 0.20803 0.38004 0.0
O63 O 0.92068 0.0911 0.17551 0.0
Mn64 Mn 0.90353 0.02051 0.20034 0.0
O65 O 0.84277 0.12431 0.21974 0.0
Mn66 Mn 0.80339 0.07315 0.25794 0.0
O67 O 0.87704 0.95154 0.21831 0.0
O68 O 0.95857 1.00065 0.11933 0.0
Mn69 Mn -0.00816 0.94919 0.15066 0.0
O70 O 0.96209 1.01724 0.28908 0.0
O71 O 0.93526 0.90369 0.15725 0.0
O72 O 0.84222 0.02673 0.11201 0.0
O73 O 0.76551 0.03979 0.18164 0.0
O74 O 0.02446 0.96945 0.05472 0.0
O75 O 0.02516 0.96615 0.24858 0.0
C76 C 0.83985 0.03923 0.36218 0.0
C77 C 0.88788 0.12581 0.18077 0.0
C78 C 0.88984 0.91108 0.19273 0.0
C79 C -0.00844 1.00408 0.05974 0.0
C80 C 0.00626 0.99504 0.29949 0.0
C81 C 0.78994 0.03174 0.11643 0.0
O82 O 0.85449 0.03556 0.28865 0.0
O83 O 0.79652 0.06367 0.36536 0.0
O84 O 0.66742 0.95052 0.93221 0.0
Mn85 Mn 0.6481 1.01876 0.95757 0.0
O86 O 0.5917 0.91132 0.9777 0.0
Mn87 Mn 0.54941 0.95866 1.02101 0.0
O88 O 0.6176 0.08605 0.97611 0.0
O89 O 0.70099 0.03993 0.86878 0.0
Mn90 Mn 0.73006 0.09227 0.91329 0.0
O91 O 0.70969 0.02299 0.04186 0.0
O92 O 0.67847 0.13801 0.92962 0.0
O93 O 0.58671 1.01012 0.87256 0.0
O94 O 0.51046 0.98863 0.93986 0.0
O95 O 0.76018 0.09072 0.81541 0.0
O96 O 0.77459 0.07231 0.99691 0.0
C97 C 0.58903 0.99284 0.12436 0.0
C98 C 0.63613 0.91391 0.93646 0.0
C99 C 0.63124 0.12797 0.95695 0.0
C100 C 0.73427 0.05077 0.81011 0.0
C101 C 0.75812 0.04051 0.04477 0.0
C102 C 0.53518 1.00092 0.87548 0.0
O103 O 0.59999 0.99925 0.04928 0.0
O104 O 0.54559 0.96666 0.133 0.0
O105 O 0.05728 0.84322 0.93394 0.0
Mn106 Mn 0.07608 0.77389 0.95741 0.0
O107 O 0.13426 0.88182 0.97931 0.0
Mn108 Mn 0.17637 0.83414 1.02163 0.0
O109 O 0.10319 0.70594 0.97641 0.0
O110 O 0.02209 0.75192 0.87043 0.0
Mn111 Mn -0.01177 0.69959 0.90252 0.0
O112 O 0.01482 0.7665 0.04299 0.0
O113 O 0.04337 0.65546 0.91785 0.0
O114 O 0.13886 0.78249 0.87282 0.0
O115 O 0.2155 0.80337 0.94284 0.0
O116 O 0.95912 0.71428 0.80167 0.0
O117 O 0.95002 0.71635 0.99456 0.0
C118 C 0.13423 0.80208 0.12188 0.0
C119 C 0.08779 0.88038 0.94208 0.0
C120 C 0.08904 0.66452 0.95405 0.0
C121 C -0.00847 0.7506 0.80609 0.0
C122 C 0.96862 0.74447 0.04846 0.0
C123 C 0.19115 0.79049 0.87776 0.0
O124 O 0.12595 0.79332 0.04701 0.0
O125 O 0.1776 0.82814 0.1336 0.0
O126 O 0.66858 0.84663 0.86964 0.0
Mn127 Mn 0.64969 0.77737 0.84427 0.0
O128 O 0.58905 0.88106 0.83114 0.0
Mn129 Mn 0.54789 0.83275 0.78312 0.0
O130 O 0.62068 0.70905 0.82482 0.0
O131 O 0.7036 0.75816 0.9302 0.0
Mn132 Mn 0.73454 0.70595 0.89552 0.0
O133 O 0.71064 0.77282 0.75761 0.0
O134 O 0.67823 0.66047 0.88599 0.0
O135 O 0.58908 0.7835 0.93014 0.0
O136 O 0.51104 0.79844 0.86166 0.0
O137 O 0.76618 0.72088 0.99344 0.0
O138 O 0.77302 0.72238 0.80334 0.0
C139 C 0.5904 0.80202 0.68169 0.0
C140 C 0.63521 0.88088 0.86949 0.0
C141 C 0.63262 0.66839 0.85047 0.0
C142 C 0.73498 0.75602 0.99338 0.0
C143 C 0.75614 0.75152 0.75122 0.0
C144 C 0.53686 0.78839 0.92661 0.0
O145 O 0.59911 0.79492 0.75656 0.0
O146 O 0.54732 0.82675 0.67023 0.0
O147 O 0.0617 0.95538 0.89768 0.0
Mn148 Mn 0.07405 0.02393 0.85678 0.0
O149 O 0.1252 0.91386 0.83203 0.0
Mn150 Mn 0.16909 0.96261 0.79455 0.0
O151 O 0.09488 0.09233 0.82084 0.0
O152 O 0.02499 0.04728 0.94344 0.0
Mn153 Mn -0.01069 0.09727 0.91253 0.0
O154 O 0.00533 1.01796 0.7838 0.0
O155 O 0.04651 0.14079 0.89734 0.0
O156 O 0.14142 0.0301 0.93438 0.0
O157 O 0.21071 0.99238 0.87575 0.0
O158 O 0.96254 0.07954 1.01348 0.0
O159 O 0.94899 0.07529 0.82331 0.0
C160 C 0.13088 0.99438 0.68974 0.0
C161 C 0.08542 0.91685 0.88128 0.0
C162 C 0.08809 0.13233 0.85387 0.0
C163 C -0.0052 0.04463 1.00629 0.0
C164 C 0.96019 0.04003 0.77956 0.0
C165 C 0.19118 1.01648 0.93337 0.0
O166 O 0.11983 1.00251 0.76433 0.0
O167 O 0.17399 0.96917 0.6828 0.0
O168 O 0.40348 0.53249 0.66456 0.0
Mn169 Mn 0.33208 0.52073 0.60054 0.0
O170 O 0.38542 0.48744 0.77306 0.0
Mn171 Mn 0.32484 0.4535 0.73022 0.0
O172 O 0.26003 0.5092 0.53418 0.0
O173 O 0.32653 0.59109 0.59184 0.0
Mn174 Mn 0.31486 0.60721 0.49243 0.0
O175 O 0.37131 0.51071 0.48787 0.0
O176 O 0.24351 0.57985 0.48035 0.0
O177 O 0.28775 0.53688 0.70039 0.0
O178 O 0.25642 0.4751 0.76163 0.0
O179 O 0.32097 0.66139 0.54849 0.0
O180 O 0.38081 0.58355 0.45501 0.0
C181 C 0.34623 0.40513 0.6406 0.0
C182 C 0.41478 0.51805 0.73551 0.0
C183 C 0.23054 0.53683 0.49177 0.0
C184 C 0.32501 0.63499 0.60996 0.0
C185 C 0.3775 0.54174 0.43228 0.0
C186 C 0.25417 0.51835 0.74916 0.0
O187 O 0.34098 0.4499 0.62467 0.0
O188 O 0.33041 0.3918 0.71131 0.0
O189 O 0.91938 0.69765 0.6217 0.0
Mn190 Mn 0.90236 0.76723 0.59653 0.0
O191 O 0.83933 0.66201 0.5818 0.0
Mn192 Mn 0.79967 0.71007 0.53481 0.0
O193 O 0.87725 0.83654 0.578 0.0
O194 O 0.95848 0.78742 0.68203 0.0
Mn195 Mn -0.00695 0.83917 0.64905 0.0
O196 O 0.96196 0.77173 0.50996 0.0
O197 O 0.93781 0.88351 0.64245 0.0
O198 O 0.84002 0.76092 0.68206 0.0
O199 O 0.76247 0.74431 0.61136 0.0
O200 O 0.02435 0.82316 0.74784 0.0
O201 O 0.02766 0.82223 0.55399 0.0
C202 C 0.84273 0.7387 0.43175 0.0
C203 C 0.8862 0.66201 0.6183 0.0
C204 C 0.89096 0.87648 0.60847 0.0
C205 C -0.00957 0.78783 0.74495 0.0
C206 C 0.00793 0.79332 0.50212 0.0
C207 C 0.78734 0.75595 0.67672 0.0
O208 O 0.85189 0.74846 0.50639 0.0
O209 O 0.79823 0.71379 0.42228 0.0
O210 O 0.30309 0.6948 0.69557 0.0
Mn211 Mn 0.3268 0.76461 0.70831 0.0
O212 O 0.3811 0.65466 0.71834 0.0
Mn213 Mn 0.42448 0.70236 0.767 0.0
O214 O 0.35994 0.83261 0.71847 0.0
O215 O 0.27113 0.78584 0.62144 0.0
Mn216 Mn 0.24199 0.83839 0.65661 0.0
O217 O 0.26835 0.77435 0.79746 0.0
O218 O 0.29944 0.88256 0.66622 0.0
O219 O 0.38617 0.75358 0.62036 0.0
O220 O 0.46345 0.73512 0.68842 0.0
O221 O 0.20886 0.82708 0.55808 0.0
O222 O 0.20372 0.82199 0.74901 0.0
C223 C 0.38599 0.73639 0.87036 0.0
C224 C 0.33277 0.65809 0.68776 0.0
C225 C 0.347 0.87355 0.6946 0.0
C226 C 0.23887 0.79038 0.55864 0.0
C227 C 0.22216 0.79471 0.80301 0.0
C228 C 0.4384 0.74731 0.62386 0.0
O229 O 0.37784 0.74505 0.79548 0.0
O230 O 0.42603 0.70803 0.88004 0.0
O231 O 0.92067 0.5911 0.67552 0.0
Mn232 Mn 0.90353 0.52051 0.70035 0.0
O233 O 0.84275 0.6243 0.71974 0.0
Mn234 Mn 0.80339 0.57314 0.75794 0.0
O235 O 0.87703 0.45154 0.71831 0.0
O236 O 0.95857 0.50065 0.61934 0.0
Mn237 Mn -0.00817 0.44919 0.65066 0.0
O238 O 0.96209 0.51724 0.78909 0.0
O239 O 0.93525 0.40369 0.65725 0.0
O240 O 0.84222 0.52673 0.61202 0.0
O241 O 0.7655 0.53978 0.68164 0.0
O242 O 0.02445 0.46945 0.55472 0.0
O243 O 0.02515 0.46615 0.74858 0.0
C244 C 0.83985 0.53923 0.86219 0.0
C245 C 0.88787 0.62581 0.68077 0.0
C246 C 0.88984 0.41108 0.69273 0.0
C247 C -0.00845 0.50408 0.55975 0.0
C248 C 0.00626 0.49504 0.79949 0.0
C249 C 0.78994 0.53173 0.61643 0.0
O250 O 0.85448 0.53556 0.78866 0.0
O251 O 0.79651 0.56367 0.86536 0.0
O252 O 0.66742 0.45052 0.43221 0.0
Mn253 Mn 0.6481 0.51876 0.45758 0.0
O254 O 0.5917 0.41131 0.47771 0.0
Mn255 Mn 0.54941 0.45865 0.52101 0.0
O256 O 0.6176 0.58605 0.47611 0.0
O257 O 0.70099 0.53992 0.36878 0.0
Mn258 Mn 0.73006 0.59227 0.41329 0.0
O259 O 0.70969 0.52299 0.54187 0.0
O260 O 0.67847 0.63801 0.42963 0.0
O261 O 0.58671 0.51012 0.37256 0.0
O262 O 0.51046 0.48862 0.43986 0.0
O263 O 0.76018 0.59072 0.31542 0.0
O264 O 0.77458 0.57231 0.49692 0.0
C265 C 0.58903 0.49284 0.62437 0.0
C266 C 0.63613 0.4139 0.43647 0.0
C267 C 0.63123 0.62797 0.45695 0.0
C268 C 0.73427 0.55076 0.31012 0.0
C269 C 0.75812 0.54051 0.54478 0.0
C270 C 0.53518 0.50091 0.37548 0.0
O271 O 0.59998 0.49924 0.54928 0.0
O272 O 0.54559 0.46665 0.63301 0.0
O273 O 0.05728 0.34322 0.43394 0.0
Mn274 Mn 0.07608 0.27389 0.45741 0.0
O275 O 0.13426 0.38182 0.4793 0.0
Mn276 Mn 0.17637 0.33414 0.52163 0.0
O277 O 0.10319 0.20595 0.47641 0.0
O278 O 0.02209 0.25192 0.37044 0.0
Mn279 Mn -0.01177 0.19959 0.40252 0.0
O280 O 0.01482 0.2665 0.543 0.0
O281 O 0.04337 0.15546 0.41786 0.0
O282 O 0.13886 0.28249 0.37282 0.0
O283 O 0.21551 0.30338 0.44285 0.0
O284 O 0.95912 0.21428 0.30167 0.0
O285 O 0.95002 0.21635 0.49456 0.0
C286 C 0.13424 0.30208 0.62189 0.0
C287 C 0.08779 0.38038 0.44208 0.0
C288 C 0.08904 0.16452 0.45406 0.0
C289 C -0.00848 0.2506 0.3061 0.0
C290 C 0.96862 0.24447 0.54846 0.0
C291 C 0.19115 0.29046 0.37779 0.0
O292 O 0.12595 0.29332 0.54701 0.0
O293 O 0.1776 0.32814 0.6336 0.0
O294 O 0.66859 0.34662 0.36964 0.0
Mn295 Mn 0.64969 0.27737 0.34427 0.0
O296 O 0.58906 0.38106 0.33114 0.0
Mn297 Mn 0.54789 0.33275 0.28312 0.0
O298 O 0.62067 0.20905 0.32483 0.0
O299 O 0.70358 0.25816 0.43023 0.0
Mn300 Mn 0.73452 0.20594 0.39555 0.0
O301 O 0.71065 0.27281 0.25762 0.0
O302 O 0.67821 0.16046 0.38601 0.0
O303 O 0.58907 0.2835 0.43014 0.0
O304 O 0.51104 0.29844 0.36165 0.0
O305 O 0.76614 0.22086 0.49349 0.0
O306 O 0.77302 0.22237 0.30339 0.0
C307 C 0.5904 0.30202 0.18169 0.0
C308 C 0.63521 0.38088 0.3695 0.0
C309 C 0.63261 0.16839 0.35047 0.0
C310 C 0.73496 0.25601 0.49341 0.0
C311 C 0.75615 0.25151 0.25127 0.0
C312 C 0.53686 0.28839 0.42661 0.0
O313 O 0.59912 0.29492 0.25656 0.0
O314 O 0.54732 0.32676 0.17023 0.0
O315 O 0.0617 0.45538 0.39767 0.0
Mn316 Mn 0.07406 0.52393 0.35678 0.0
O317 O 0.12519 0.41385 0.33202 0.0
Mn318 Mn 0.16909 0.46261 0.29455 0.0
O319 O 0.0949 0.59233 0.32085 0.0
O320 O 0.025 0.54728 0.44344 0.0
Mn321 Mn -0.01068 0.59727 0.41253 0.0
O322 O 0.00534 0.51796 0.2838 0.0
O323 O 0.04652 0.64079 0.39735 0.0
O324 O 0.14142 0.53009 0.43438 0.0
O325 O 0.21071 0.49237 0.37576 0.0
O326 O 0.96255 0.57954 0.51349 0.0
O327 O 0.949 0.5753 0.32331 0.0
C328 C 0.13088 0.49438 0.18974 0.0
C329 C 0.08542 0.41685 0.38127 0.0
C330 C 0.08811 0.63233 0.35387 0.0
C331 C -0.00519 0.54464 0.50629 0.0
C332 C 0.9602 0.54004 0.27956 0.0
C333 C 0.19117 0.51647 0.43337 0.0
O334 O 0.11984 0.50251 0.26433 0.0
O335 O 0.17399 0.46917 0.1828 0.0
O336 O 0.9035 0.03248 0.66455 0.0
Mn337 Mn 0.8321 0.02074 0.6005 0.0
O338 O 0.88539 0.98743 0.77303 0.0
Mn339 Mn 0.82481 0.9535 0.73016 0.0
O340 O 0.76004 1.00924 0.53413 0.0
O341 O 0.8266 0.0911 0.59174 0.0
Mn342 Mn 0.8149 0.10721 0.49234 0.0
O343 O 0.87133 1.0107 0.48784 0.0
O344 O 0.74353 0.07988 0.4803 0.0
O345 O 0.78776 0.03692 0.70034 0.0
O346 O 0.7564 0.97513 0.76157 0.0
O347 O 0.82107 0.1614 0.5484 0.0
O348 O 0.88082 0.08358 0.4547 0.0
C349 C 0.84618 0.90513 0.64064 0.0
C350 C 0.91478 1.01802 0.7355 0.0
C351 C 0.73054 0.03687 0.49174 0.0
C352 C 0.8251 0.13499 0.60986 0.0
C353 C 0.87758 0.04172 0.43223 0.0
C354 C 0.75418 1.01838 0.74908 0.0
O355 O 0.84099 0.9499 0.62463 0.0
O356 O 0.83032 0.8918 0.71133 0.0
O357 O 0.4194 0.19768 0.62169 0.0
Mn358 Mn 0.40237 0.26725 0.59653 0.0
O359 O 0.33939 0.16201 0.58169 0.0
Mn360 Mn 0.2997 0.21008 0.53476 0.0
O361 O 0.37725 0.33655 0.578 0.0
O362 O 0.45848 0.28746 0.68204 0.0
Mn363 Mn 0.49306 0.3392 0.64908 0.0
O364 O 0.46198 0.27177 0.50997 0.0
O365 O 0.43784 0.38355 0.64242 0.0
O366 O 0.34002 0.26093 0.68205 0.0
O367 O 0.26249 0.24427 0.61136 0.0
O368 O 0.52434 0.32318 0.74787 0.0
O369 O 0.52769 0.32225 0.55403 0.0
C370 C 0.34277 0.23868 0.43177 0.0
C371 C 0.38624 0.16202 0.61823 0.0
C372 C 0.39101 0.3765 0.60838 0.0
C373 C 0.49041 0.28785 0.74497 0.0
C374 C 0.50796 0.29335 0.50216 0.0
C375 C 0.28734 0.25591 0.67673 0.0
O376 O 0.3519 0.24849 0.5064 0.0
O377 O 0.29826 0.2138 0.42222 0.0
O378 O 0.80313 0.19478 0.69552 0.0
Mn379 Mn 0.8268 0.2646 0.7083 0.0
O380 O 0.88115 0.15466 0.71831 0.0
Mn381 Mn 0.9245 0.20236 0.76704 0.0
O382 O 0.85993 0.33261 0.7185 0.0
O383 O 0.77113 0.28583 0.62145 0.0
Mn384 Mn 0.742 0.33839 0.65662 0.0
O385 O 0.76835 0.27432 0.79744 0.0
O386 O 0.79945 0.38255 0.66621 0.0
O387 O 0.88619 0.25359 0.62038 0.0
O388 O 0.96347 0.23514 0.68848 0.0
O389 O 0.70885 0.32706 0.55811 0.0
O390 O 0.70374 0.32199 0.74905 0.0
C391 C 0.88595 0.23631 0.87035 0.0
C392 C 0.83283 0.15809 0.68768 0.0
C393 C 0.847 0.37354 0.69461 0.0
C394 C 0.73885 0.29036 0.55866 0.0
C395 C 0.72217 0.2947 0.80304 0.0
C396 C 0.93843 0.24735 0.62392 0.0
O397 O 0.87783 0.24504 0.79548 0.0
O398 O 0.926 0.20798 0.88009 0.0
O399 O 0.4207 0.0911 0.67547 0.0
Mn400 Mn 0.40354 0.02051 0.70033 0.0
O401 O 0.34276 0.1243 0.71961 0.0
Mn402 Mn 0.30343 0.07315 0.7579 0.0
O403 O 0.37704 0.95154 0.71831 0.0
O404 O 0.45856 1.00063 0.6193 0.0
Mn405 Mn 0.49183 0.94918 0.6506 0.0
O406 O 0.46212 1.01724 0.78904 0.0
O407 O 0.43524 0.90369 0.65721 0.0
O408 O 0.34222 0.02673 0.61202 0.0
O409 O 0.26551 0.03976 0.68167 0.0
O410 O 0.52444 0.96944 0.55467 0.0
O411 O 0.52516 0.96613 0.74851 0.0
C412 C 0.33985 0.03938 0.86215 0.0
C413 C 0.38789 0.12581 0.68069 0.0
C414 C 0.38984 0.91108 0.69273 0.0
C415 C 0.49154 1.00407 0.55971 0.0
C416 C 0.50629 0.99503 0.79942 0.0
C417 C 0.28994 0.03171 0.61645 0.0
O418 O 0.35452 0.03558 0.78866 0.0
O419 O 0.2965 0.06381 0.86534 0.0
O420 O 0.16738 0.95051 0.43223 0.0
Mn421 Mn 0.14808 1.01876 0.4576 0.0
O422 O 0.09165 0.91133 0.47771 0.0
Mn423 Mn 0.04938 0.95867 0.52106 0.0
O424 O 0.1176 0.08605 0.47614 0.0
O425 O 0.20098 0.03991 0.36883 0.0
Mn426 Mn 0.23006 0.09226 0.41332 0.0
O427 O 0.20968 0.02298 0.54189 0.0
O428 O 0.17848 0.138 0.42966 0.0
O429 O 0.08669 1.01013 0.3726 0.0
O430 O 0.01043 0.98866 0.43992 0.0
O431 O 0.26018 0.09071 0.31544 0.0
O432 O 0.27458 0.0723 0.49694 0.0
C433 C 0.08904 0.99279 0.62437 0.0
C434 C 0.13608 0.91391 0.43648 0.0
C435 C 0.13125 0.12797 0.457 0.0
C436 C 0.23427 0.05075 0.31017 0.0
C437 C 0.25811 0.0405 0.5448 0.0
C438 C 0.03515 1.00096 0.37554 0.0
O439 O 0.09998 0.99925 0.5493 0.0
O440 O 0.04558 0.96664 0.63308 0.0
O441 O 0.55728 0.84322 0.43392 0.0
Mn442 Mn 0.57607 0.77388 0.45739 0.0
O443 O 0.63428 0.8818 0.47929 0.0
Mn444 Mn 0.67637 0.83412 0.52164 0.0
O445 O 0.60318 0.70594 0.47639 0.0
O446 O 0.52209 0.75192 0.37041 0.0
Mn447 Mn 0.48822 0.69958 0.40247 0.0
O448 O 0.5148 0.76649 0.54296 0.0
O449 O 0.54336 0.65546 0.4178 0.0
O450 O 0.63886 0.78248 0.37281 0.0
O451 O 0.7155 0.80335 0.44285 0.0
O452 O 0.45912 0.71429 0.30162 0.0
O453 O 0.45 0.71634 0.4945 0.0
C454 C 0.6342 0.80212 0.62184 0.0
C455 C 0.58781 0.88037 0.44206 0.0
C456 C 0.58902 0.66452 0.45403 0.0
C457 C 0.49153 0.75061 0.30607 0.0
C458 C 0.46859 0.74447 0.5484 0.0
C459 C 0.69115 0.79048 0.37776 0.0
O460 O 0.62593 0.79331 0.54699 0.0
O461 O 0.67758 0.82815 0.63363 0.0
O462 O 0.16856 0.84663 0.36965 0.0
Mn463 Mn 0.14969 0.77737 0.34427 0.0
O464 O 0.089 0.88104 0.33117 0.0
Mn465 Mn 0.04787 0.83272 0.2831 0.0
O466 O 0.12069 0.70904 0.32483 0.0
O467 O 0.20361 0.75817 0.4302 0.0
Mn468 Mn 0.23456 0.70596 0.39552 0.0
O469 O 0.21064 0.77282 0.25761 0.0
O470 O 0.17825 0.66047 0.38602 0.0
O471 O 0.08906 0.78348 0.43014 0.0
O472 O 0.01102 0.7984 0.36162 0.0
O473 O 0.26621 0.7209 0.49343 0.0
O474 O 0.27302 0.72238 0.30332 0.0
C475 C 0.09043 0.80207 0.18173 0.0
C476 C 0.13516 0.88087 0.36952 0.0
C477 C 0.13265 0.66839 0.35046 0.0
C478 C 0.235 0.75604 0.49337 0.0
C479 C 0.25614 0.75151 0.25121 0.0
C480 C 0.03684 0.78833 0.42658 0.0
O481 O 0.09911 0.79491 0.25657 0.0
O482 O 0.04733 0.82677 0.1702 0.0
O483 O 0.5617 0.95539 0.39766 0.0
Mn484 Mn 0.57404 0.02394 0.35677 0.0
O485 O 0.62523 0.91387 0.33203 0.0
Mn486 Mn 0.66909 0.96264 0.29452 0.0
O487 O 0.59487 0.09234 0.32084 0.0
O488 O 0.52498 0.04729 0.44343 0.0
Mn489 Mn 0.4893 0.09728 0.41253 0.0
O490 O 0.50532 1.01796 0.2838 0.0
O491 O 0.54648 0.14079 0.39734 0.0
O492 O 0.64141 0.03011 0.43438 0.0
O493 O 0.71071 0.99242 0.37571 0.0
O494 O 0.46252 0.07953 0.51348 0.0
O495 O 0.44898 0.0753 0.3233 0.0
C496 C 0.63086 0.99434 0.18976 0.0
C497 C 0.58545 0.91686 0.38127 0.0
C498 C 0.58806 0.13234 0.35385 0.0
C499 C 0.49479 0.04463 0.50628 0.0
C500 C 0.4602 0.04006 0.27953 0.0
C501 C 0.69118 1.0165 0.43334 0.0
O502 O 0.61982 1.00252 0.26432 0.0
O503 O 0.67399 0.96917 0.18275 0.0
O504 O 0.9035 0.53249 0.16456 0.0
Mn505 Mn 0.8321 0.52074 0.1005 0.0
O506 O 0.8854 0.48743 0.27303 0.0
Mn507 Mn 0.82482 0.45351 0.23017 0.0
O508 O 0.76004 0.50923 0.03414 0.0
O509 O 0.82659 0.5911 0.09175 0.0
Mn510 Mn 0.81489 0.60721 0.99235 0.0
O511 O 0.87133 0.51071 0.98785 0.0
O512 O 0.74352 0.57987 0.9803 0.0
O513 O 0.78776 0.53692 0.20034 0.0
O514 O 0.75641 0.47512 0.26158 0.0
O515 O 0.82104 0.6614 0.04842 0.0
O516 O 0.8808 0.58359 0.95471 0.0
C517 C 0.84618 0.40513 0.14065 0.0
C518 C 0.91478 0.51803 0.2355 0.0
C519 C 0.73054 0.53686 0.99174 0.0
C520 C 0.82508 0.63499 0.10988 0.0
C521 C 0.87757 0.54173 0.93224 0.0
C522 C 0.75418 0.51837 0.24909 0.0
O523 O 0.841 0.4499 0.12463 0.0
O524 O 0.83033 0.3918 0.21135 0.0
O525 O 0.41939 0.69768 0.1217 0.0
Mn526 Mn 0.40237 0.76725 0.09653 0.0
O527 O 0.33938 0.66201 0.0817 0.0
Mn528 Mn 0.29969 0.71008 0.03475 0.0
O529 O 0.37725 0.83655 0.07799 0.0
O530 O 0.45848 0.78746 0.18203 0.0
Mn531 Mn 0.49306 0.8392 0.14907 0.0
O532 O 0.46198 0.77177 1.00997 0.0
O533 O 0.43783 0.88355 0.14242 0.0
O534 O 0.34001 0.76094 0.18204 0.0
O535 O 0.26248 0.74428 0.11134 0.0
O536 O 0.52434 0.82319 0.24787 0.0
O537 O 0.52768 0.82225 0.05403 0.0
C538 C 0.34277 0.73868 0.93177 0.0
C539 C 0.38623 0.66202 0.11823 0.0
C540 C 0.391 0.8765 0.10838 0.0
C541 C 0.49042 0.78785 0.24496 0.0
C542 C 0.50796 0.79334 1.00217 0.0
C543 C 0.28733 0.75595 0.17669 0.0
O544 O 0.3519 0.74849 1.0064 0.0
O545 O 0.29826 0.7138 0.92221 0.0
O546 O 0.80312 0.69478 0.19553 0.0
Mn547 Mn 0.8268 0.7646 0.2083 0.0
O548 O 0.88114 0.65466 0.21831 0.0
Mn549 Mn 0.92449 0.70236 0.26703 0.0
O550 O 0.85994 0.83261 0.21849 0.0
O551 O 0.77113 0.78583 0.12144 0.0
Mn552 Mn 0.742 0.83839 0.1566 0.0
O553 O 0.76835 0.77433 0.29744 0.0
O554 O 0.79945 0.88255 0.1662 0.0
O555 O 0.88619 0.75359 0.12038 0.0
O556 O 0.96347 0.73514 0.18847 0.0
O557 O 0.70886 0.82707 0.05808 0.0
O558 O 0.70374 0.82199 0.24902 0.0
C559 C 0.88595 0.73631 0.37034 0.0
C560 C 0.83282 0.65809 0.18769 0.0
C561 C 0.84701 0.87354 0.19461 0.0
C562 C 0.73886 0.79037 0.05864 0.0
C563 C 0.72217 0.7947 0.30301 0.0
C564 C 0.93843 0.74734 0.12391 0.0
O565 O 0.87783 0.74504 0.29548 0.0
O566 O 0.926 0.70798 0.38009 0.0
O567 O 0.42069 0.59111 0.17548 0.0
Mn568 Mn 0.40353 0.52051 0.20033 0.0
O569 O 0.34275 0.6243 0.21961 0.0
Mn570 Mn 0.30342 0.57315 0.2579 0.0
O571 O 0.37703 0.45154 0.21831 0.0
O572 O 0.45855 0.50064 0.1193 0.0
Mn573 Mn 0.49182 0.44918 0.1506 0.0
O574 O 0.46212 0.51724 0.28905 0.0
O575 O 0.43524 0.40369 0.15721 0.0
O576 O 0.34221 0.52673 0.11202 0.0
O577 O 0.26551 0.53975 0.18167 0.0
O578 O 0.52443 0.46944 0.05467 0.0
O579 O 0.52516 0.46613 0.24851 0.0
C580 C 0.33984 0.53938 0.36216 0.0
C581 C 0.38788 0.62581 0.18069 0.0
C582 C 0.38983 0.41108 0.19273 0.0
C583 C 0.49154 0.50407 0.05971 0.0
C584 C 0.50629 0.49503 0.29942 0.0
C585 C 0.28993 0.53171 0.11645 0.0
O586 O 0.35452 0.53558 0.28867 0.0
O587 O 0.2965 0.56381 0.36534 0.0
O588 O 0.16738 0.45051 0.93224 0.0
Mn589 Mn 0.14808 0.51876 0.95761 0.0
O590 O 0.09165 0.41132 0.97771 0.0
Mn591 Mn 0.04938 0.45866 1.02106 0.0
O592 O 0.1176 0.58605 0.97614 0.0
O593 O 0.20098 0.53991 0.86883 0.0
Mn594 Mn 0.23006 0.59226 0.91332 0.0
O595 O 0.20967 0.52298 0.0419 0.0
O596 O 0.17848 0.638 0.92966 0.0
O597 O 0.08668 0.51012 0.8726 0.0
O598 O 0.01043 0.48865 0.93993 0.0
O599 O 0.26017 0.59071 0.81544 0.0
O600 O 0.27458 0.5723 0.99695 0.0
C601 C 0.08904 0.49279 0.12437 0.0
C602 C 0.13608 0.4139 0.93648 0.0
C603 C 0.13125 0.62797 0.95699 0.0
C604 C 0.23427 0.55075 0.81018 0.0
C605 C 0.2581 0.5405 0.04481 0.0
C606 C 0.03514 0.50095 0.87554 0.0
O607 O 0.09997 0.49924 0.0493 0.0
O608 O 0.04559 0.46663 0.13308 0.0
O609 O 0.55728 0.34322 0.93392 0.0
Mn610 Mn 0.57607 0.27388 0.95739 0.0
O611 O 0.63428 0.38181 0.97929 0.0
Mn612 Mn 0.67637 0.33412 1.02164 0.0
O613 O 0.60318 0.20594 0.97639 0.0
O614 O 0.52209 0.25192 0.87041 0.0
Mn615 Mn 0.48822 0.19958 0.90247 0.0
O616 O 0.5148 0.26649 0.04296 0.0
O617 O 0.54337 0.15546 0.9178 0.0
O618 O 0.63886 0.28248 0.87281 0.0
O619 O 0.7155 0.30336 0.94286 0.0
O620 O 0.45912 0.21429 0.80162 0.0
O621 O 0.45001 0.21634 0.9945 0.0
C622 C 0.63421 0.30212 0.12185 0.0
C623 C 0.58781 0.38037 0.94206 0.0
C624 C 0.58902 0.16452 0.95404 0.0
C625 C 0.49152 0.25061 0.80608 0.0
C626 C 0.46859 0.24447 0.0484 0.0
C627 C 0.69116 0.29045 0.87778 0.0
O628 O 0.62594 0.29331 0.04699 0.0
O629 O 0.67759 0.32815 0.13363 0.0
O630 O 0.16856 0.34662 0.86965 0.0
Mn631 Mn 0.14969 0.27737 0.84428 0.0
O632 O 0.08901 0.38104 0.83117 0.0
Mn633 Mn 0.04787 0.33272 0.7831 0.0
O634 O 0.12069 0.20904 0.82483 0.0
O635 O 0.2036 0.25817 0.93022 0.0
Mn636 Mn 0.23454 0.20595 0.89555 0.0
O637 O 0.21065 0.27281 0.75762 0.0
O638 O 0.17823 0.16046 0.88603 0.0
O639 O 0.08906 0.28348 0.93014 0.0
O640 O 0.01102 0.2984 0.86162 0.0
O641 O 0.26618 0.22088 0.99347 0.0
O642 O 0.27302 0.22237 0.80337 0.0
C643 C 0.09043 0.30208 0.68173 0.0
C644 C 0.13517 0.38087 0.86952 0.0
C645 C 0.13264 0.16838 0.85047 0.0
C646 C 0.23498 0.25603 0.99339 0.0
C647 C 0.25615 0.25151 0.75125 0.0
C648 C 0.03683 0.28833 0.92657 0.0
O649 O 0.09911 0.29491 0.75657 0.0
O650 O 0.04733 0.32677 0.6702 0.0
O651 O 0.5617 0.45538 0.89766 0.0
Mn652 Mn 0.57405 0.52394 0.85677 0.0
O653 O 0.62522 0.41387 0.83203 0.0
Mn654 Mn 0.66909 0.46264 0.79452 0.0
O655 O 0.59488 0.59234 0.82085 0.0
O656 O 0.52499 0.54729 0.94344 0.0
Mn657 Mn 0.48931 0.59728 0.91253 0.0
O658 O 0.50533 0.51797 0.7838 0.0
O659 O 0.5465 0.64079 0.89735 0.0
O660 O 0.64141 0.5301 0.93438 0.0
O661 O 0.71071 0.49241 0.87571 0.0
O662 O 0.46253 0.57954 1.01348 0.0
O663 O 0.44899 0.57531 0.82331 0.0
C664 C 0.63086 0.49434 0.68975 0.0
C665 C 0.58544 0.41686 0.88127 0.0
C666 C 0.58807 0.63234 0.85385 0.0
C667 C 0.49479 0.54464 1.00628 0.0
C668 C 0.4602 0.54007 0.77953 0.0
C669 C 0.69118 0.51649 0.93335 0.0
O670 O 0.61982 0.50252 0.76433 0.0
O671 O 0.67399 0.46917 0.68275 0.0
loop_
_geom_bond_atom_site_label_1
_geom_bond_atom_site_label_2
_geom_bond_distance
_geom_bond_site_symmetry_2
_ccdc_geom_bond_type
O0 Mn1 2.163 . S
O0 C14 1.254 . S
Mn1 O0 2.163 . S
Mn1 O4 2.160 1_545 S
Mn1 O5 2.221 . S
Mn1 O7 2.163 1_544 S
Mn1 O9 2.160 . S
Mn1 O19 2.221 1_545 S
O2 Mn3 2.087 . S
O2 C14 1.236 1_565 S
Mn3 O2 2.087 . S
Mn3 O10 2.089 . S
Mn3 O19 2.290 . S
Mn3 O20 2.251 . S
O4 Mn1 2.160 1_565 S
O4 C15 1.239 1_564 S
O5 Mn1 2.221 . S
O5 Mn6 2.290 1_554 S
O5 C16 1.278 . S
Mn6 O5 2.290 1_556 S
Mn6 O8 2.089 . S
Mn6 O11 2.251 1_556 S
Mn6 O12 2.087 . S
O7 Mn1 2.163 1_566 S
O7 C17 1.244 1_565 S
O8 Mn6 2.089 . S
O8 C15 1.256 . S
O9 Mn1 2.160 . S
O9 C18 1.239 1_545 S
O10 Mn3 2.089 . S
O10 C18 1.256 . S
O11 Mn6 2.251 1_554 S
O11 C16 1.241 . S
O12 Mn6 2.087 . S
O12 C17 1.256 . S
C13 O19 1.278 . S
C13 O20 1.241 . S
C14 O0 1.254 . S
C14 O2 1.236 1_545 S
C15 O4 1.239 1_546 S
C15 O8 1.256 . S
C16 O5 1.278 . S
C16 O11 1.241 . S
C17 O7 1.244 1_545 S
C17 O12 1.256 . S
C18 O9 1.239 1_565 S
C18 O10 1.256 . S
O19 Mn1 2.221 1_565 S
O19 Mn3 2.290 . S
O19 C13 1.278 . S
O20 Mn3 2.251 . S
O20 C13 1.241 . S
O21 Mn22 2.163 . S
O21 C35 1.244 . S
Mn22 O21 2.163 . S
Mn22 O25 2.160 . S
Mn22 O26 2.221 . S
Mn22 O28 2.163 1_554 S
Mn22 O30 2.160 . S
Mn22 O40 2.221 1_554 S
O23 Mn24 2.087 . S
O23 C35 1.256 . S
Mn24 O23 2.087 . S
Mn24 O31 2.089 . S
Mn24 O40 2.290 1_554 S
Mn24 O41 2.251 1_554 S
O25 Mn22 2.160 . S
O25 C36 1.239 . S
O26 Mn22 2.221 . S
O26 Mn27 2.290 1_655 S
O26 C37 1.278 . S
Mn27 O26 2.290 1_455 S
Mn27 O29 2.089 1_455 S
Mn27 O32 2.251 . S
Mn27 O33 2.087 . S
O28 Mn22 2.163 1_556 S
O28 C38 1.244 1_655 S
O29 Mn27 2.089 1_655 S
O29 C36 1.256 . S
O30 Mn22 2.160 . S
O30 C39 1.239 . S
O31 Mn24 2.089 . S
O31 C39 1.256 . S
O32 Mn27 2.251 . S
O32 C37 1.241 1_455 S
O33 Mn27 2.087 . S
O33 C38 1.256 1_554 S
C34 O40 1.278 . S
C34 O41 1.241 . S
C35 O21 1.244 . S
C35 O23 1.256 . S
C36 O25 1.239 . S
C36 O29 1.256 . S
C37 O26 1.278 . S
C37 O32 1.241 1_655 S
C38 O28 1.244 1_455 S
C38 O33 1.256 1_556 S
C39 O30 1.239 . S
C39 O31 1.256 . S
O40 Mn22 2.221 1_556 S
O40 Mn24 2.290 1_556 S
O40 C34 1.278 . S
O41 Mn24 2.251 1_556 S
O41 C34 1.241 . S
O42 Mn43 2.163 . S
O42 C56 1.244 . S
Mn43 O42 2.163 . S
Mn43 O46 2.160 . S
Mn43 O47 2.221 . S
Mn43 O49 2.163 . S
Mn43 O51 2.160 . S
Mn43 O61 2.221 . S
O44 Mn45 2.087 . S
O44 C56 1.256 . S
Mn45 O44 2.087 . S
Mn45 O52 2.089 . S
Mn45 O61 2.290 . S
Mn45 O62 2.251 . S
O46 Mn43 2.160 . S
O46 C57 1.239 . S
O47 Mn43 2.221 . S
O47 Mn48 2.290 . S
O47 C58 1.278 . S
Mn48 O47 2.290 . S
Mn48 O50 2.089 . S
Mn48 O53 2.251 . S
Mn48 O54 2.087 . S
O49 Mn43 2.163 . S
O49 C59 1.244 . S
O50 Mn48 2.089 . S
O50 C57 1.256 . S
O51 Mn43 2.160 . S
O51 C60 1.239 . S
O52 Mn45 2.089 . S
O52 C60 1.256 . S
O53 Mn48 2.251 . S
O53 C58 1.241 . S
O54 Mn48 2.087 . S
O54 C59 1.256 . S
C55 O61 1.278 . S
C55 O62 1.241 . S
C56 O42 1.244 . S
C56 O44 1.256 . S
C57 O46 1.239 . S
C57 O50 1.256 . S
C58 O47 1.278 . S
C58 O53 1.241 . S
C59 O49 1.244 . S
C59 O54 1.256 . S
C60 O51 1.239 . S
C60 O52 1.256 . S
O61 Mn43 2.221 . S
O61 Mn45 2.290 . S
O61 C55 1.278 . S
O62 Mn45 2.251 . S
O62 C55 1.241 . S
O63 Mn64 2.163 1_545 S
O63 C77 1.244 . S
Mn64 O63 2.163 1_565 S
Mn64 O67 2.160 . S
Mn64 O68 2.221 . S
Mn64 O70 2.163 . S
Mn64 O72 2.160 . S
Mn64 O82 2.221 1_565 S
O65 Mn66 2.087 . S
O65 C77 1.256 . S
Mn66 O65 2.087 . S
Mn66 O73 2.089 . S
Mn66 O82 2.290 . S
Mn66 O83 2.251 . S
O67 Mn64 2.160 . S
O67 C78 1.239 . S
O68 Mn64 2.221 . S
O68 Mn69 2.290 1_655 S
O68 C79 1.278 . S
Mn69 O68 2.290 1_455 S
Mn69 O71 2.089 1_455 S
Mn69 O74 2.251 . S
Mn69 O75 2.087 . S
O70 Mn64 2.163 . S
O70 C80 1.244 1_655 S
O71 Mn69 2.089 1_655 S
O71 C78 1.256 . S
O72 Mn64 2.160 . S
O72 C81 1.239 1_565 S
O73 Mn66 2.089 . S
O73 C81 1.256 . S
O74 Mn69 2.251 . S
O74 C79 1.241 1_455 S
O75 Mn69 2.087 . S
O75 C80 1.256 . S
C76 O82 1.278 . S
C76 O83 1.241 . S
C77 O63 1.244 . S
C77 O65 1.256 . S
C78 O67 1.239 . S
C78 O71 1.256 . S
C79 O68 1.278 . S
C79 O74 1.241 1_655 S
C80 O70 1.244 1_455 S
C80 O75 1.256 . S
C81 O72 1.239 1_545 S
C81 O73 1.256 . S
O82 Mn64 2.221 1_545 S
O82 Mn66 2.290 . S
O82 C76 1.278 . S
O83 Mn66 2.251 . S
O83 C76 1.241 . S
O84 Mn85 2.163 1_565 S
O84 C98 1.244 . S
Mn85 O84 2.163 1_545 S
Mn85 O88 2.160 . S
Mn85 O89 2.221 . S
Mn85 O91 2.163 1_556 S
Mn85 O93 2.160 . S
Mn85 O103 2.221 1_546 S
O86 Mn87 2.087 . S
O86 C98 1.256 . S
Mn87 O86 2.087 . S
Mn87 O94 2.089 . S
Mn87 O103 2.290 1_556 S
Mn87 O104 2.251 1_556 S
O88 Mn85 2.160 . S
O88 C99 1.239 . S
O89 Mn85 2.221 . S
O89 Mn90 2.290 . S
O89 C100 1.278 . S
Mn90 O89 2.290 . S
Mn90 O92 2.089 . S
Mn90 O95 2.251 . S
Mn90 O96 2.087 . S
O91 Mn85 2.163 1_554 S
O91 C101 1.244 . S
O92 Mn90 2.089 . S
O92 C99 1.256 . S
O93 Mn85 2.160 . S
O93 C102 1.239 1_545 S
O94 Mn87 2.089 . S
O94 C102 1.256 . S
O95 Mn90 2.251 . S
O95 C100 1.241 . S
O96 Mn90 2.087 . S
O96 C101 1.256 1_556 S
C97 O103 1.278 . S
C97 O104 1.241 . S
C98 O84 1.244 . S
C98 O86 1.256 . S
C99 O88 1.239 . S
C99 O92 1.256 . S
C100 O89 1.278 . S
C100 O95 1.241 . S
C101 O91 1.244 . S
C101 O96 1.256 1_554 S
C102 O93 1.239 1_565 S
C102 O94 1.256 . S
O103 Mn85 2.221 1_564 S
O103 Mn87 2.290 1_554 S
O103 C97 1.278 . S
O104 Mn87 2.251 1_554 S
O104 C97 1.241 . S
O105 Mn106 2.163 . S
O105 C119 1.244 . S
Mn106 O105 2.163 . S
Mn106 O109 2.160 . S
Mn106 O110 2.221 . S
Mn106 O112 2.163 1_556 S
Mn106 O114 2.160 . S
Mn106 O124 2.221 1_556 S
O107 Mn108 2.087 . S
O107 C119 1.256 . S
Mn108 O107 2.087 . S
Mn108 O115 2.089 . S
Mn108 O124 2.290 1_556 S
Mn108 O125 2.251 1_556 S
O109 Mn106 2.160 . S
O109 C120 1.239 . S
O110 Mn106 2.221 . S
O110 Mn111 2.290 1_455 S
O110 C121 1.278 . S
Mn111 O110 2.290 1_655 S
Mn111 O113 2.089 1_655 S
Mn111 O116 2.251 . S
Mn111 O117 2.087 . S
O112 Mn106 2.163 1_554 S
O112 C122 1.244 1_455 S
O113 Mn111 2.089 1_455 S
O113 C120 1.256 . S
O114 Mn106 2.160 . S
O114 C123 1.239 . S
O115 Mn108 2.089 . S
O115 C123 1.256 . S
O116 Mn111 2.251 . S
O116 C121 1.241 1_655 S
O117 Mn111 2.087 . S
O117 C122 1.256 1_556 S
C118 O124 1.278 . S
C118 O125 1.241 . S
C119 O105 1.244 . S
C119 O107 1.256 . S
C120 O109 1.239 . S
C120 O113 1.256 . S
C121 O110 1.278 . S
C121 O116 1.241 1_455 S
C122 O112 1.244 1_655 S
C122 O117 1.256 1_554 S
C123 O114 1.239 . S
C123 O115 1.256 . S
O124 Mn106 2.221 1_554 S
O124 Mn108 2.290 1_554 S
O124 C118 1.278 . S
O125 Mn108 2.251 1_554 S
O125 C118 1.241 . S
O126 Mn127 2.163 . S
O126 C140 1.244 . S
Mn127 O126 2.163 . S
Mn127 O130 2.160 . S
Mn127 O131 2.221 . S
Mn127 O133 2.163 . S
Mn127 O135 2.160 . S
Mn127 O145 2.221 . S
O128 Mn129 2.087 . S
O128 C140 1.256 . S
Mn129 O128 2.087 . S
Mn129 O136 2.089 . S
Mn129 O145 2.290 . S
Mn129 O146 2.251 . S
O130 Mn127 2.160 . S
O130 C141 1.239 . S
O131 Mn127 2.221 . S
O131 Mn132 2.290 . S
O131 C142 1.278 . S
Mn132 O131 2.290 . S
Mn132 O134 2.089 . S
Mn132 O137 2.251 . S
Mn132 O138 2.087 . S
O133 Mn127 2.163 . S
O133 C143 1.244 . S
O134 Mn132 2.089 . S
O134 C141 1.256 . S
O135 Mn127 2.160 . S
O135 C144 1.239 . S
O136 Mn129 2.089 . S
O136 C144 1.256 . S
O137 Mn132 2.251 . S
O137 C142 1.241 . S
O138 Mn132 2.087 . S
O138 C143 1.256 . S
C139 O145 1.278 . S
C139 O146 1.241 . S
C140 O126 1.244 . S
C140 O128 1.256 . S
C141 O130 1.239 . S
C141 O134 1.256 . S
C142 O131 1.278 . S
C142 O137 1.241 . S
C143 O133 1.244 . S
C143 O138 1.256 . S
C144 O135 1.239 . S
C144 O136 1.256 . S
O145 Mn127 2.221 . S
O145 Mn129 2.290 . S
O145 C139 1.278 . S
O146 Mn129 2.251 . S
O146 C139 1.241 . S
O147 Mn148 2.163 1_565 S
O147 C161 1.244 . S
Mn148 O147 2.163 1_545 S
Mn148 O151 2.160 . S
Mn148 O152 2.221 . S
Mn148 O154 2.163 . S
Mn148 O156 2.160 . S
Mn148 O166 2.221 1_545 S
O149 Mn150 2.087 . S
O149 C161 1.256 . S
Mn150 O149 2.087 . S
Mn150 O157 2.089 . S
Mn150 O166 2.290 . S
Mn150 O167 2.251 . S
O151 Mn148 2.160 . S
O151 C162 1.239 . S
O152 Mn148 2.221 . S
O152 Mn153 2.290 1_455 S
O152 C163 1.279 . S
Mn153 O152 2.290 1_655 S
Mn153 O155 2.089 1_655 S
Mn153 O158 2.251 . S
Mn153 O159 2.087 . S
O154 Mn148 2.163 . S
O154 C164 1.244 1_455 S
O155 Mn153 2.089 1_455 S
O155 C162 1.256 . S
O156 Mn148 2.160 . S
O156 C165 1.239 1_545 S
O157 Mn150 2.089 . S
O157 C165 1.256 . S
O158 Mn153 2.251 . S
O158 C163 1.239 1_655 S
O159 Mn153 2.087 . S
O159 C164 1.256 . S
C160 O166 1.278 . S
C160 O167 1.241 . S
C161 O147 1.244 . S
C161 O149 1.256 . S
C162 O151 1.239 . S
C162 O155 1.256 . S
C163 O152 1.279 . S
C163 O158 1.239 1_455 S
C164 O154 1.244 1_655 S
C164 O159 1.256 . S
C165 O156 1.239 1_565 S
C165 O157 1.256 . S
O166 Mn148 2.221 1_565 S
O166 Mn150 2.290 . S
O166 C160 1.278 . S
O167 Mn150 2.251 . S
O167 C160 1.241 . S
O168 Mn169 2.163 . S
O168 C182 1.244 . S
Mn169 O168 2.163 . S
Mn169 O172 2.160 . S
Mn169 O173 2.221 . S
Mn169 O175 2.163 . S
Mn169 O177 2.160 . S
Mn169 O187 2.221 . S
O170 Mn171 2.087 . S
O170 C182 1.256 . S
Mn171 O170 2.087 . S
Mn171 O178 2.089 . S
Mn171 O187 2.290 . S
Mn171 O188 2.251 . S
O172 Mn169 2.160 . S
O172 C183 1.239 . S
O173 Mn169 2.221 . S
O173 Mn174 2.290 . S
O173 C184 1.278 . S
Mn174 O173 2.290 . S
Mn174 O176 2.089 . S
Mn174 O179 2.251 . S
Mn174 O180 2.087 . S
O175 Mn169 2.163 . S
O175 C185 1.244 . S
O176 Mn174 2.089 . S
O176 C183 1.256 . S
O177 Mn169 2.160 . S
O177 C186 1.239 . S
O178 Mn171 2.089 . S
O178 C186 1.256 . S
O179 Mn174 2.251 . S
O179 C184 1.241 . S
O180 Mn174 2.087 . S
O180 C185 1.256 . S
C181 O187 1.278 . S
C181 O188 1.241 . S
C182 O168 1.244 . S
C182 O170 1.256 . S
C183 O172 1.239 . S
C183 O176 1.256 . S
C184 O173 1.278 . S
C184 O179 1.241 . S
C185 O175 1.244 . S
C185 O180 1.256 . S
C186 O177 1.239 . S
C186 O178 1.256 . S
O187 Mn169 2.221 . S
O187 Mn171 2.290 . S
O187 C181 1.278 . S
O188 Mn171 2.251 . S
O188 C181 1.241 . S
O189 Mn190 2.163 . S
O189 C203 1.244 . S
Mn190 O189 2.163 . S
Mn190 O193 2.160 . S
Mn190 O194 2.221 . S
Mn190 O196 2.163 . S
Mn190 O198 2.160 . S
Mn190 O208 2.221 . S
O191 Mn192 2.087 . S
O191 C203 1.256 . S
Mn192 O191 2.087 . S
Mn192 O199 2.089 . S
Mn192 O208 2.290 . S
Mn192 O209 2.251 . S
O193 Mn190 2.160 . S
O193 C204 1.239 . S
O194 Mn190 2.221 . S
O194 Mn195 2.290 1_655 S
O194 C205 1.278 . S
Mn195 O194 2.290 1_455 S
Mn195 O197 2.089 1_455 S
Mn195 O200 2.251 . S
Mn195 O201 2.087 . S
O196 Mn190 2.163 . S
O196 C206 1.244 1_655 S
O197 Mn195 2.089 1_655 S
O197 C204 1.256 . S
O198 Mn190 2.160 . S
O198 C207 1.239 . S
O199 Mn192 2.089 . S
O199 C207 1.256 . S
O200 Mn195 2.251 . S
O200 C205 1.241 1_455 S
O201 Mn195 2.087 . S
O201 C206 1.256 . S
C202 O208 1.278 . S
C202 O209 1.241 . S
C203 O189 1.244 . S
C203 O191 1.256 . S
C204 O193 1.239 . S
C204 O197 1.256 . S
C205 O194 1.278 . S
C205 O200 1.241 1_655 S
C206 O196 1.244 1_455 S
C206 O201 1.256 . S
C207 O198 1.239 . S
C207 O199 1.256 . S
O208 Mn190 2.221 . S
O208 Mn192 2.290 . S
O208 C202 1.278 . S
O209 Mn192 2.251 . S
O209 C202 1.241 . S
O210 Mn211 2.163 . S
O210 C224 1.244 . S
Mn211 O210 2.163 . S
Mn211 O214 2.160 . S
Mn211 O215 2.221 . S
Mn211 O217 2.163 . S
Mn211 O219 2.160 . S
Mn211 O229 2.221 . S
O212 Mn213 2.087 . S
O212 C224 1.256 . S
Mn213 O212 2.087 . S
Mn213 O220 2.089 . S
Mn213 O229 2.290 . S
Mn213 O230 2.251 . S
O214 Mn211 2.160 . S
O214 C225 1.239 . S
O215 Mn211 2.221 . S
O215 Mn216 2.290 . S
O215 C226 1.278 . S
Mn216 O215 2.290 . S
Mn216 O218 2.089 . S
Mn216 O221 2.251 . S
Mn216 O222 2.087 . S
O217 Mn211 2.163 . S
O217 C227 1.244 . S
O218 Mn216 2.089 . S
O218 C225 1.256 . S
O219 Mn211 2.160 . S
O219 C228 1.239 . S
O220 Mn213 2.089 . S
O220 C228 1.256 . S
O221 Mn216 2.251 . S
O221 C226 1.241 . S
O222 Mn216 2.087 . S
O222 C227 1.256 . S
C223 O229 1.278 . S
C223 O230 1.241 . S
C224 O210 1.244 . S
C224 O212 1.256 . S
C225 O214 1.239 . S
C225 O218 1.256 . S
C226 O215 1.278 . S
C226 O221 1.241 . S
C227 O217 1.244 . S
C227 O222 1.256 . S
C228 O219 1.239 . S
C228 O220 1.256 . S
O229 Mn211 2.221 . S
O229 Mn213 2.290 . S
O229 C223 1.278 . S
O230 Mn213 2.251 . S
O230 C223 1.241 . S
O231 Mn232 2.163 . S
O231 C245 1.244 . S
Mn232 O231 2.163 . S
Mn232 O235 2.160 . S
Mn232 O236 2.221 . S
Mn232 O238 2.163 . S
Mn232 O240 2.160 . S
Mn232 O250 2.221 . S
O233 Mn234 2.087 . S
O233 C245 1.256 . S
Mn234 O233 2.087 . S
Mn234 O241 2.089 . S
Mn234 O250 2.290 . S
Mn234 O251 2.251 . S
O235 Mn232 2.160 . S
O235 C246 1.239 . S
O236 Mn232 2.221 . S
O236 Mn237 2.290 1_655 S
O236 C247 1.278 . S
Mn237 O236 2.290 1_455 S
Mn237 O239 2.089 1_455 S
Mn237 O242 2.251 . S
Mn237 O243 2.087 . S
O238 Mn232 2.163 . S
O238 C248 1.244 1_655 S
O239 Mn237 2.089 1_655 S
O239 C246 1.256 . S
O240 Mn232 2.160 . S
O240 C249 1.239 . S
O241 Mn234 2.089 . S
O241 C249 1.256 . S
O242 Mn237 2.251 . S
O242 C247 1.241 1_455 S
O243 Mn237 2.087 . S
O243 C248 1.256 . S
C244 O250 1.278 . S
C244 O251 1.241 . S
C245 O231 1.244 . S
C245 O233 1.256 . S
C246 O235 1.239 . S
C246 O239 1.256 . S
C247 O236 1.278 . S
C247 O242 1.241 1_655 S
C248 O238 1.244 1_455 S
C248 O243 1.256 . S
C249 O240 1.239 . S
C249 O241 1.256 . S
O250 Mn232 2.221 . S
O250 Mn234 2.290 . S
O250 C244 1.278 . S
O251 Mn234 2.251 . S
O251 C244 1.241 . S
O252 Mn253 2.163 . S
O252 C266 1.244 . S
Mn253 O252 2.163 . S
Mn253 O256 2.160 . S
Mn253 O257 2.221 . S
Mn253 O259 2.163 . S
Mn253 O261 2.160 . S
Mn253 O271 2.221 . S
O254 Mn255 2.087 . S
O254 C266 1.256 . S
Mn255 O254 2.087 . S
Mn255 O262 2.089 . S
Mn255 O271 2.290 . S
Mn255 O272 2.251 . S
O256 Mn253 2.160 . S
O256 C267 1.239 . S
O257 Mn253 2.221 . S
O257 Mn258 2.290 . S
O257 C268 1.278 . S
Mn258 O257 2.290 . S
Mn258 O260 2.089 . S
Mn258 O263 2.251 . S
Mn258 O264 2.087 . S
O259 Mn253 2.163 . S
O259 C269 1.244 . S
O260 Mn258 2.089 . S
O260 C267 1.256 . S
O261 Mn253 2.160 . S
O261 C270 1.239 . S
O262 Mn255 2.089 . S
O262 C270 1.256 . S
O263 Mn258 2.251 . S
O263 C268 1.241 . S
O264 Mn258 2.087 . S
O264 C269 1.256 . S
C265 O271 1.278 . S
C265 O272 1.241 . S
C266 O252 1.244 . S
C266 O254 1.256 . S
C267 O256 1.239 . S
C267 O260 1.256 . S
C268 O257 1.278 . S
C268 O263 1.241 . S
C269 O259 1.244 . S
C269 O264 1.256 . S
C270 O261 1.239 . S
C270 O262 1.256 . S
O271 Mn253 2.221 . S
O271 Mn255 2.290 . S
O271 C265 1.278 . S
O272 Mn255 2.251 . S
O272 C265 1.241 . S
O273 Mn274 2.163 . S
O273 C287 1.244 . S
Mn274 O273 2.163 . S
Mn274 O277 2.160 . S
Mn274 O278 2.221 . S
Mn274 O280 2.163 . S
Mn274 O282 2.160 . S
Mn274 O292 2.221 . S
O275 Mn276 2.087 . S
O275 C287 1.256 . S
Mn276 O275 2.087 . S
Mn276 O283 2.089 . S
Mn276 O292 2.290 . S
Mn276 O293 2.251 . S
O277 Mn274 2.160 . S
O277 C288 1.239 . S
O278 Mn274 2.221 . S
O278 Mn279 2.290 1_455 S
O278 C289 1.278 . S
Mn279 O278 2.290 1_655 S
Mn279 O281 2.089 1_655 S
Mn279 O284 2.251 . S
Mn279 O285 2.087 . S
O280 Mn274 2.163 . S
O280 C290 1.244 1_455 S
O281 Mn279 2.089 1_455 S
O281 C288 1.256 . S
O282 Mn274 2.160 . S
O282 C291 1.239 . S
O283 Mn276 2.089 . S
O283 C291 1.256 . S
O284 Mn279 2.251 . S
O284 C289 1.241 1_655 S
O285 Mn279 2.087 . S
O285 C290 1.256 . S
C286 O292 1.278 . S
C286 O293 1.241 . S
C287 O273 1.244 . S
C287 O275 1.256 . S
C288 O277 1.239 . S
C288 O281 1.256 . S
C289 O278 1.278 . S
C289 O284 1.241 1_455 S
C290 O280 1.244 1_655 S
C290 O285 1.256 . S
C291 O282 1.239 . S
C291 O283 1.256 . S
O292 Mn274 2.221 . S
O292 Mn276 2.290 . S
O292 C286 1.278 . S
O293 Mn276 2.251 . S
O293 C286 1.241 . S
O294 Mn295 2.163 . S
O294 C308 1.244 . S
Mn295 O294 2.163 . S
Mn295 O298 2.160 . S
Mn295 O299 2.221 . S
Mn295 O301 2.163 . S
Mn295 O303 2.160 . S
Mn295 O313 2.221 . S
O296 Mn297 2.087 . S
O296 C308 1.256 . S
Mn297 O296 2.087 . S
Mn297 O304 2.089 . S
Mn297 O313 2.290 . S
Mn297 O314 2.251 . S
O298 Mn295 2.160 . S
O298 C309 1.239 . S
O299 Mn295 2.221 . S
O299 Mn300 2.290 . S
O299 C310 1.278 . S
Mn300 O299 2.290 . S
Mn300 O302 2.089 . S
Mn300 O305 2.251 . S
Mn300 O306 2.087 . S
O301 Mn295 2.163 . S
O301 C311 1.244 . S
O302 Mn300 2.089 . S
O302 C309 1.256 . S
O303 Mn295 2.160 . S
O303 C312 1.239 . S
O304 Mn297 2.089 . S
O304 C312 1.256 . S
O305 Mn300 2.251 . S
O305 C310 1.241 . S
O306 Mn300 2.087 . S
O306 C311 1.256 . S
C307 O313 1.278 . S
C307 O314 1.241 . S
C308 O294 1.244 . S
C308 O296 1.256 . S
C309 O298 1.239 . S
C309 O302 1.256 . S
C310 O299 1.278 . S
C310 O305 1.241 . S
C311 O301 1.244 . S
C311 O306 1.256 . S
C312 O303 1.239 . S
C312 O304 1.256 . S
O313 Mn295 2.221 . S
O313 Mn297 2.290 . S
O313 C307 1.278 . S
O314 Mn297 2.251 . S
O314 C307 1.241 . S
O315 Mn316 2.163 . S
O315 C329 1.244 . S
Mn316 O315 2.163 . S
Mn316 O319 2.160 . S
Mn316 O320 2.221 . S
Mn316 O322 2.163 . S
Mn316 O324 2.160 . S
Mn316 O334 2.221 . S
O317 Mn318 2.087 . S
O317 C329 1.256 . S
Mn318 O317 2.087 . S
Mn318 O325 2.089 . S
Mn318 O334 2.290 . S
Mn318 O335 2.251 . S
O319 Mn316 2.160 . S
O319 C330 1.239 . S
O320 Mn316 2.221 . S
O320 Mn321 2.290 1_455 S
O320 C331 1.279 . S
Mn321 O320 2.290 1_655 S
Mn321 O323 2.089 1_655 S
Mn321 O326 2.251 . S
Mn321 O327 2.087 . S
O322 Mn316 2.163 . S
O322 C332 1.244 1_455 S
O323 Mn321 2.089 1_455 S
O323 C330 1.256 . S
O324 Mn316 2.160 . S
O324 C333 1.239 . S
O325 Mn318 2.089 . S
O325 C333 1.256 . S
O326 Mn321 2.251 . S
O326 C331 1.239 1_655 S
O327 Mn321 2.087 . S
O327 C332 1.256 . S
C328 O334 1.278 . S
C328 O335 1.241 . S
C329 O315 1.244 . S
C329 O317 1.256 . S
C330 O319 1.239 . S
C330 O323 1.256 . S
C331 O320 1.279 . S
C331 O326 1.239 1_455 S
C332 O322 1.244 1_655 S
C332 O327 1.256 . S
C333 O324 1.239 . S
C333 O325 1.256 . S
O334 Mn316 2.221 . S
O334 Mn318 2.290 . S
O334 C328 1.278 . S
O335 Mn318 2.251 . S
O335 C328 1.241 . S
O336 Mn337 2.163 . S
O336 C350 1.254 . S
Mn337 O336 2.163 . S
Mn337 O340 2.160 1_545 S
Mn337 O341 2.221 . S
Mn337 O343 2.163 1_545 S
Mn337 O345 2.160 . S
Mn337 O355 2.221 1_545 S
O338 Mn339 2.087 . S
O338 C350 1.236 1_565 S
Mn339 O338 2.087 . S
Mn339 O346 2.089 . S
Mn339 O355 2.290 . S
Mn339 O356 2.251 . S
O340 Mn337 2.160 1_565 S
O340 C351 1.239 1_565 S
O341 Mn337 2.221 . S
O341 Mn342 2.290 . S
O341 C352 1.278 . S
Mn342 O341 2.290 . S
Mn342 O344 2.089 . S
Mn342 O347 2.251 . S
Mn342 O348 2.087 . S
O343 Mn337 2.163 1_565 S
O343 C353 1.244 1_565 S
O344 Mn342 2.089 . S
O344 C351 1.256 . S
O345 Mn337 2.160 . S
O345 C354 1.239 1_545 S
O346 Mn339 2.089 . S
O346 C354 1.256 . S
O347 Mn342 2.251 . S
O347 C352 1.241 . S
O348 Mn342 2.087 . S
O348 C353 1.256 . S
C349 O355 1.278 . S
C349 O356 1.241 . S
C350 O336 1.254 . S
C350 O338 1.236 1_545 S
C351 O340 1.239 1_545 S
C351 O344 1.256 . S
C352 O341 1.278 . S
C352 O347 1.241 . S
C353 O343 1.244 1_545 S
C353 O348 1.256 . S
C354 O345 1.239 1_565 S
C354 O346 1.256 . S
O355 Mn337 2.221 1_565 S
O355 Mn339 2.290 . S
O355 C349 1.278 . S
O356 Mn339 2.251 . S
O356 C349 1.241 . S
O357 Mn358 2.163 . S
O357 C371 1.244 . S
Mn358 O357 2.163 . S
Mn358 O361 2.160 . S
Mn358 O362 2.221 . S
Mn358 O364 2.163 . S
Mn358 O366 2.160 . S
Mn358 O376 2.221 . S
O359 Mn360 2.087 . S
O359 C371 1.256 . S
Mn360 O359 2.087 . S
Mn360 O367 2.089 . S
Mn360 O376 2.290 . S
Mn360 O377 2.251 . S
O361 Mn358 2.160 . S
O361 C372 1.239 . S
O362 Mn358 2.221 . S
O362 Mn363 2.290 . S
O362 C373 1.278 . S
Mn363 O362 2.290 . S
Mn363 O365 2.089 . S
Mn363 O368 2.251 . S
Mn363 O369 2.087 . S
O364 Mn358 2.163 . S
O364 C374 1.244 . S
O365 Mn363 2.089 . S
O365 C372 1.256 . S
O366 Mn358 2.160 . S
O366 C375 1.239 . S
O367 Mn360 2.089 . S
O367 C375 1.256 . S
O368 Mn363 2.251 . S
O368 C373 1.241 . S
O369 Mn363 2.087 . S
O369 C374 1.256 . S
C370 O376 1.278 . S
C370 O377 1.241 . S
C371 O357 1.244 . S
C371 O359 1.256 . S
C372 O361 1.239 . S
C372 O365 1.256 . S
C373 O362 1.278 . S
C373 O368 1.241 . S
C374 O364 1.244 . S
C374 O369 1.256 . S
C375 O366 1.239 . S
C375 O367 1.256 . S
O376 Mn358 2.221 . S
O376 Mn360 2.290 . S
O376 C370 1.278 . S
O377 Mn360 2.251 . S
O377 C370 1.241 . S
O378 Mn379 2.163 . S
O378 C392 1.244 . S
Mn379 O378 2.163 . S
Mn379 O382 2.160 . S
Mn379 O383 2.221 . S
Mn379 O385 2.163 . S
Mn379 O387 2.160 . S
Mn379 O397 2.221 . S
O380 Mn381 2.087 . S
O380 C392 1.256 . S
Mn381 O380 2.087 . S
Mn381 O388 2.089 . S
Mn381 O397 2.290 . S
Mn381 O398 2.251 . S
O382 Mn379 2.160 . S
O382 C393 1.239 . S
O383 Mn379 2.221 . S
O383 Mn384 2.290 . S
O383 C394 1.278 . S
Mn384 O383 2.290 . S
Mn384 O386 2.089 . S
Mn384 O389 2.251 . S
Mn384 O390 2.087 . S
O385 Mn379 2.163 . S
O385 C395 1.244 . S
O386 Mn384 2.089 . S
O386 C393 1.256 . S
O387 Mn379 2.160 . S
O387 C396 1.239 . S
O388 Mn381 2.089 . S
O388 C396 1.256 . S
O389 Mn384 2.251 . S
O389 C394 1.241 . S
O390 Mn384 2.087 . S
O390 C395 1.256 . S
C391 O397 1.278 . S
C391 O398 1.241 . S
C392 O378 1.244 . S
C392 O380 1.256 . S
C393 O382 1.239 . S
C393 O386 1.256 . S
C394 O383 1.278 . S
C394 O389 1.241 . S
C395 O385 1.244 . S
C395 O390 1.256 . S
C396 O387 1.239 . S
C396 O388 1.256 . S
O397 Mn379 2.221 . S
O397 Mn381 2.290 . S
O397 C391 1.278 . S
O398 Mn381 2.251 . S
O398 C391 1.241 . S
O399 Mn400 2.163 1_545 S
O399 C413 1.244 . S
Mn400 O399 2.163 1_565 S
Mn400 O403 2.160 . S
Mn400 O404 2.221 . S
Mn400 O406 2.163 . S
Mn400 O408 2.160 . S
Mn400 O418 2.221 1_565 S
O401 Mn402 2.087 . S
O401 C413 1.256 . S
Mn402 O401 2.087 . S
Mn402 O409 2.089 . S
Mn402 O418 2.290 . S
Mn402 O419 2.251 . S
O403 Mn400 2.160 . S
O403 C414 1.239 . S
O404 Mn400 2.221 . S
O404 Mn405 2.290 . S
O404 C415 1.278 . S
Mn405 O404 2.290 . S
Mn405 O407 2.089 . S
Mn405 O410 2.251 . S
Mn405 O411 2.087 . S
O406 Mn400 2.163 . S
O406 C416 1.244 . S
O407 Mn405 2.089 . S
O407 C414 1.256 . S
O408 Mn400 2.160 . S
O408 C417 1.239 1_565 S
O409 Mn402 2.089 . S
O409 C417 1.256 . S
O410 Mn405 2.251 . S
O410 C415 1.241 . S
O411 Mn405 2.087 . S
O411 C416 1.256 . S
C412 O418 1.278 . S
C412 O419 1.241 . S
C413 O399 1.244 . S
C413 O401 1.256 . S
C414 O403 1.239 . S
C414 O407 1.256 . S
C415 O404 1.278 . S
C415 O410 1.241 . S
C416 O406 1.244 . S
C416 O411 1.256 . S
C417 O408 1.239 1_545 S
C417 O409 1.256 . S
O418 Mn400 2.221 1_545 S
O418 Mn402 2.290 . S
O418 C412 1.278 . S
O419 Mn402 2.251 . S
O419 C412 1.241 . S
O420 Mn421 2.163 1_565 S
O420 C434 1.244 . S
Mn421 O420 2.163 1_545 S
Mn421 O424 2.160 . S
Mn421 O425 2.221 . S
Mn421 O427 2.163 . S
Mn421 O429 2.160 . S
Mn421 O439 2.221 1_545 S
O422 Mn423 2.087 . S
O422 C434 1.256 . S
Mn423 O422 2.087 . S
Mn423 O430 2.089 . S
Mn423 O439 2.290 . S
Mn423 O440 2.251 . S
O424 Mn421 2.160 . S
O424 C435 1.239 . S
O425 Mn421 2.221 . S
O425 Mn426 2.290 . S
O425 C436 1.278 . S
Mn426 O425 2.290 . S
Mn426 O428 2.089 . S
Mn426 O431 2.251 . S
Mn426 O432 2.087 . S
O427 Mn421 2.163 . S
O427 C437 1.244 . S
O428 Mn426 2.089 . S
O428 C435 1.256 . S
O429 Mn421 2.160 . S
O429 C438 1.239 1_545 S
O430 Mn423 2.089 . S
O430 C438 1.256 . S
O431 Mn426 2.251 . S
O431 C436 1.241 . S
O432 Mn426 2.087 . S
O432 C437 1.256 . S
C433 O439 1.278 . S
C433 O440 1.241 . S
C434 O420 1.244 . S
C434 O422 1.256 . S
C435 O424 1.239 . S
C435 O428 1.256 . S
C436 O425 1.278 . S
C436 O431 1.241 . S
C437 O427 1.244 . S
C437 O432 1.256 . S
C438 O429 1.239 1_565 S
C438 O430 1.256 . S
O439 Mn421 2.221 1_565 S
O439 Mn423 2.290 . S
O439 C433 1.278 . S
O440 Mn423 2.251 . S
O440 C433 1.241 . S
O441 Mn442 2.163 . S
O441 C455 1.244 . S
Mn442 O441 2.163 . S
Mn442 O445 2.160 . S
Mn442 O446 2.221 . S
Mn442 O448 2.163 . S
Mn442 O450 2.160 . S
Mn442 O460 2.221 . S
O443 Mn444 2.087 . S
O443 C455 1.256 . S
Mn444 O443 2.087 . S
Mn444 O451 2.089 . S
Mn444 O460 2.290 . S
Mn444 O461 2.251 . S
O445 Mn442 2.160 . S
O445 C456 1.239 . S
O446 Mn442 2.221 . S
O446 Mn447 2.290 . S
O446 C457 1.278 . S
Mn447 O446 2.290 . S
Mn447 O449 2.089 . S
Mn447 O452 2.251 . S
Mn447 O453 2.087 . S
O448 Mn442 2.163 . S
O448 C458 1.244 . S
O449 Mn447 2.089 . S
O449 C456 1.256 . S
O450 Mn442 2.160 . S
O450 C459 1.239 . S
O451 Mn444 2.089 . S
O451 C459 1.256 . S
O452 Mn447 2.251 . S
O452 C457 1.241 . S
O453 Mn447 2.087 . S
O453 C458 1.256 . S
C454 O460 1.278 . S
C454 O461 1.241 . S
C455 O441 1.244 . S
C455 O443 1.256 . S
C456 O445 1.239 . S
C456 O449 1.256 . S
C457 O446 1.278 . S
C457 O452 1.241 . S
C458 O448 1.244 . S
C458 O453 1.256 . S
C459 O450 1.239 . S
C459 O451 1.256 . S
O460 Mn442 2.221 . S
O460 Mn444 2.290 . S
O460 C454 1.278 . S
O461 Mn444 2.251 . S
O461 C454 1.241 . S
O462 Mn463 2.163 . S
O462 C476 1.244 . S
Mn463 O462 2.163 . S
Mn463 O466 2.160 . S
Mn463 O467 2.221 . S
Mn463 O469 2.163 . S
Mn463 O471 2.160 . S
Mn463 O481 2.221 . S
O464 Mn465 2.087 . S
O464 C476 1.256 . S
Mn465 O464 2.087 . S
Mn465 O472 2.089 . S
Mn465 O481 2.290 . S
Mn465 O482 2.251 . S
O466 Mn463 2.160 . S
O466 C477 1.239 . S
O467 Mn463 2.221 . S
O467 Mn468 2.290 . S
O467 C478 1.278 . S
Mn468 O467 2.290 . S
Mn468 O470 2.089 . S
Mn468 O473 2.251 . S
Mn468 O474 2.087 . S
O469 Mn463 2.163 . S
O469 C479 1.244 . S
O470 Mn468 2.089 . S
O470 C477 1.256 . S
O471 Mn463 2.160 . S
O471 C480 1.239 . S
O472 Mn465 2.089 . S
O472 C480 1.256 . S
O473 Mn468 2.251 . S
O473 C478 1.241 . S
O474 Mn468 2.087 . S
O474 C479 1.256 . S
C475 O481 1.278 . S
C475 O482 1.241 . S
C476 O462 1.244 . S
C476 O464 1.256 . S
C477 O466 1.239 . S
C477 O470 1.256 . S
C478 O467 1.278 . S
C478 O473 1.241 . S
C479 O469 1.244 . S
C479 O474 1.256 . S
C480 O471 1.239 . S
C480 O472 1.256 . S
O481 Mn463 2.221 . S
O481 Mn465 2.290 . S
O481 C475 1.278 . S
O482 Mn465 2.251 . S
O482 C475 1.241 . S
O483 Mn484 2.163 1_565 S
O483 C497 1.244 . S
Mn484 O483 2.163 1_545 S
Mn484 O487 2.160 . S
Mn484 O488 2.221 . S
Mn484 O490 2.163 . S
Mn484 O492 2.160 . S
Mn484 O502 2.221 1_545 S
O485 Mn486 2.087 . S
O485 C497 1.256 . S
Mn486 O485 2.087 . S
Mn486 O493 2.089 . S
Mn486 O502 2.290 . S
Mn486 O503 2.251 . S
O487 Mn484 2.160 . S
O487 C498 1.239 . S
O488 Mn484 2.221 . S
O488 Mn489 2.290 . S
O488 C499 1.278 . S
Mn489 O488 2.290 . S
Mn489 O491 2.089 . S
Mn489 O494 2.251 . S
Mn489 O495 2.087 . S
O490 Mn484 2.163 . S
O490 C500 1.244 . S
O491 Mn489 2.089 . S
O491 C498 1.256 . S
O492 Mn484 2.160 . S
O492 C501 1.239 1_545 S
O493 Mn486 2.089 . S
O493 C501 1.256 . S
O494 Mn489 2.251 . S
O494 C499 1.241 . S
O495 Mn489 2.087 . S
O495 C500 1.256 . S
C496 O502 1.278 . S
C496 O503 1.241 . S
C497 O483 1.244 . S
C497 O485 1.256 . S
C498 O487 1.239 . S
C498 O491 1.256 . S
C499 O488 1.278 . S
C499 O494 1.241 . S
C500 O490 1.244 . S
C500 O495 1.256 . S
C501 O492 1.239 1_565 S
C501 O493 1.256 . S
O502 Mn484 2.221 1_565 S
O502 Mn486 2.290 . S
O502 C496 1.278 . S
O503 Mn486 2.251 . S
O503 C496 1.241 . S
O504 Mn505 2.163 . S
O504 C518 1.244 . S
Mn505 O504 2.163 . S
Mn505 O508 2.160 . S
Mn505 O509 2.221 . S
Mn505 O511 2.163 1_554 S
Mn505 O513 2.160 . S
Mn505 O523 2.221 . S
O506 Mn507 2.087 . S
O506 C518 1.256 . S
Mn507 O506 2.087 . S
Mn507 O514 2.089 . S
Mn507 O523 2.290 . S
Mn507 O524 2.251 . S
O508 Mn505 2.160 . S
O508 C519 1.239 1_554 S
O509 Mn505 2.221 . S
O509 Mn510 2.290 1_554 S
O509 C520 1.278 . S
Mn510 O509 2.290 1_556 S
Mn510 O512 2.089 . S
Mn510 O515 2.251 1_556 S
Mn510 O516 2.087 . S
O511 Mn505 2.163 1_556 S
O511 C521 1.244 . S
O512 Mn510 2.089 . S
O512 C519 1.256 . S
O513 Mn505 2.160 . S
O513 C522 1.239 . S
O514 Mn507 2.089 . S
O514 C522 1.256 . S
O515 Mn510 2.251 1_554 S
O515 C520 1.241 . S
O516 Mn510 2.087 . S
O516 C521 1.256 . S
C517 O523 1.278 . S
C517 O524 1.241 . S
C518 O504 1.244 . S
C518 O506 1.256 . S
C519 O508 1.239 1_556 S
C519 O512 1.256 . S
C520 O509 1.278 . S
C520 O515 1.241 . S
C521 O511 1.244 . S
C521 O516 1.256 . S
C522 O513 1.239 . S
C522 O514 1.256 . S
O523 Mn505 2.221 . S
O523 Mn507 2.290 . S
O523 C517 1.278 . S
O524 Mn507 2.251 . S
O524 C517 1.241 . S
O525 Mn526 2.163 . S
O525 C539 1.244 . S
Mn526 O525 2.163 . S
Mn526 O529 2.160 . S
Mn526 O530 2.221 . S
Mn526 O532 2.163 1_554 S
Mn526 O534 2.160 . S
Mn526 O544 2.221 1_554 S
O527 Mn528 2.087 . S
O527 C539 1.256 . S
Mn528 O527 2.087 . S
Mn528 O535 2.089 . S
Mn528 O544 2.290 1_554 S
Mn528 O545 2.251 1_554 S
O529 Mn526 2.160 . S
O529 C540 1.239 . S
O530 Mn526 2.221 . S
O530 Mn531 2.290 . S
O530 C541 1.278 . S
Mn531 O530 2.290 . S
Mn531 O533 2.089 . S
Mn531 O536 2.251 . S
Mn531 O537 2.087 . S
O532 Mn526 2.163 1_556 S
O532 C542 1.244 . S
O533 Mn531 2.089 . S
O533 C540 1.256 . S
O534 Mn526 2.160 . S
O534 C543 1.239 . S
O535 Mn528 2.089 . S
O535 C543 1.256 . S
O536 Mn531 2.251 . S
O536 C541 1.241 . S
O537 Mn531 2.087 . S
O537 C542 1.256 1_554 S
C538 O544 1.278 . S
C538 O545 1.241 . S
C539 O525 1.244 . S
C539 O527 1.256 . S
C540 O529 1.239 . S
C540 O533 1.256 . S
C541 O530 1.278 . S
C541 O536 1.241 . S
C542 O532 1.244 . S
C542 O537 1.256 1_556 S
C543 O534 1.239 . S
C543 O535 1.256 . S
O544 Mn526 2.221 1_556 S
O544 Mn528 2.290 1_556 S
O544 C538 1.278 . S
O545 Mn528 2.251 1_556 S
O545 C538 1.241 . S
O546 Mn547 2.163 . S
O546 C560 1.244 . S
Mn547 O546 2.163 . S
Mn547 O550 2.160 . S
Mn547 O551 2.221 . S
Mn547 O553 2.163 . S
Mn547 O555 2.160 . S
Mn547 O565 2.221 . S
O548 Mn549 2.087 . S
O548 C560 1.256 . S
Mn549 O548 2.087 . S
Mn549 O556 2.089 . S
Mn549 O565 2.290 . S
Mn549 O566 2.251 . S
O550 Mn547 2.160 . S
O550 C561 1.239 . S
O551 Mn547 2.221 . S
O551 Mn552 2.290 . S
O551 C562 1.278 . S
Mn552 O551 2.290 . S
Mn552 O554 2.089 . S
Mn552 O557 2.251 . S
Mn552 O558 2.087 . S
O553 Mn547 2.163 . S
O553 C563 1.244 . S
O554 Mn552 2.089 . S
O554 C561 1.256 . S
O555 Mn547 2.160 . S
O555 C564 1.239 . S
O556 Mn549 2.089 . S
O556 C564 1.256 . S
O557 Mn552 2.251 . S
O557 C562 1.241 . S
O558 Mn552 2.087 . S
O558 C563 1.256 . S
C559 O565 1.278 . S
C559 O566 1.241 . S
C560 O546 1.244 . S
C560 O548 1.256 . S
C561 O550 1.239 . S
C561 O554 1.256 . S
C562 O551 1.278 . S
C562 O557 1.241 . S
C563 O553 1.244 . S
C563 O558 1.256 . S
C564 O555 1.239 . S
C564 O556 1.256 . S
O565 Mn547 2.221 . S
O565 Mn549 2.290 . S
O565 C559 1.278 . S
O566 Mn549 2.251 . S
O566 C559 1.241 . S
O567 Mn568 2.163 . S
O567 C581 1.244 . S
Mn568 O567 2.163 . S
Mn568 O571 2.160 . S
Mn568 O572 2.221 . S
Mn568 O574 2.163 . S
Mn568 O576 2.160 . S
Mn568 O586 2.221 . S
O569 Mn570 2.087 . S
O569 C581 1.256 . S
Mn570 O569 2.087 . S
Mn570 O577 2.089 . S
Mn570 O586 2.290 . S
Mn570 O587 2.251 . S
O571 Mn568 2.160 . S
O571 C582 1.239 . S
O572 Mn568 2.221 . S
O572 Mn573 2.290 . S
O572 C583 1.278 . S
Mn573 O572 2.290 . S
Mn573 O575 2.089 . S
Mn573 O578 2.251 . S
Mn573 O579 2.087 . S
O574 Mn568 2.163 . S
O574 C584 1.244 . S
O575 Mn573 2.089 . S
O575 C582 1.256 . S
O576 Mn568 2.160 . S
O576 C585 1.239 . S
O577 Mn570 2.089 . S
O577 C585 1.256 . S
O578 Mn573 2.251 . S
O578 C583 1.241 . S
O579 Mn573 2.087 . S
O579 C584 1.256 . S
C580 O586 1.278 . S
C580 O587 1.241 . S
C581 O567 1.244 . S
C581 O569 1.256 . S
C582 O571 1.239 . S
C582 O575 1.256 . S
C583 O572 1.278 . S
C583 O578 1.241 . S
C584 O574 1.244 . S
C584 O579 1.256 . S
C585 O576 1.239 . S
C585 O577 1.256 . S
O586 Mn568 2.221 . S
O586 Mn570 2.290 . S
O586 C580 1.278 . S
O587 Mn570 2.251 . S
O587 C580 1.241 . S
O588 Mn589 2.163 . S
O588 C602 1.244 . S
Mn589 O588 2.163 . S
Mn589 O592 2.160 . S
Mn589 O593 2.221 . S
Mn589 O595 2.163 1_556 S
Mn589 O597 2.160 . S
Mn589 O607 2.221 1_556 S
O590 Mn591 2.087 . S
O590 C602 1.256 . S
Mn591 O590 2.087 . S
Mn591 O598 2.089 . S
Mn591 O607 2.290 1_556 S
Mn591 O608 2.251 1_556 S
O592 Mn589 2.160 . S
O592 C603 1.239 . S
O593 Mn589 2.221 . S
O593 Mn594 2.290 . S
O593 C604 1.278 . S
Mn594 O593 2.290 . S
Mn594 O596 2.089 . S
Mn594 O599 2.251 . S
Mn594 O600 2.087 . S
O595 Mn589 2.163 1_554 S
O595 C605 1.244 . S
O596 Mn594 2.089 . S
O596 C603 1.256 . S
O597 Mn589 2.160 . S
O597 C606 1.239 . S
O598 Mn591 2.089 . S
O598 C606 1.256 . S
O599 Mn594 2.251 . S
O599 C604 1.241 . S
O600 Mn594 2.087 . S
O600 C605 1.256 1_556 S
C601 O607 1.278 . S
C601 O608 1.241 . S
C602 O588 1.244 . S
C602 O590 1.256 . S
C603 O592 1.239 . S
C603 O596 1.256 . S
C604 O593 1.278 . S
C604 O599 1.241 . S
C605 O595 1.244 . S
C605 O600 1.256 1_554 S
C606 O597 1.239 . S
C606 O598 1.256 . S
O607 Mn589 2.221 1_554 S
O607 Mn591 2.290 1_554 S
O607 C601 1.278 . S
O608 Mn591 2.251 1_554 S
O608 C601 1.241 . S
O609 Mn610 2.163 . S
O609 C623 1.244 . S
Mn610 O609 2.163 . S
Mn610 O613 2.160 . S
Mn610 O614 2.221 . S
Mn610 O616 2.163 1_556 S
Mn610 O618 2.160 . S
Mn610 O628 2.221 1_556 S
O611 Mn612 2.087 . S
O611 C623 1.256 . S
Mn612 O611 2.087 . S
Mn612 O619 2.089 . S
Mn612 O628 2.290 1_556 S
Mn612 O629 2.251 1_556 S
O613 Mn610 2.160 . S
O613 C624 1.239 . S
O614 Mn610 2.221 . S
O614 Mn615 2.290 . S
O614 C625 1.278 . S
Mn615 O614 2.290 . S
Mn615 O617 2.089 . S
Mn615 O620 2.251 . S
Mn615 O621 2.087 . S
O616 Mn610 2.163 1_554 S
O616 C626 1.244 . S
O617 Mn615 2.089 . S
O617 C624 1.256 . S
O618 Mn610 2.160 . S
O618 C627 1.239 . S
O619 Mn612 2.089 . S
O619 C627 1.256 . S
O620 Mn615 2.251 . S
O620 C625 1.241 . S
O621 Mn615 2.087 . S
O621 C626 1.256 1_556 S
C622 O628 1.278 . S
C622 O629 1.241 . S
C623 O609 1.244 . S
C623 O611 1.256 . S
C624 O613 1.239 . S
C624 O617 1.256 . S
C625 O614 1.278 . S
C625 O620 1.241 . S
C626 O616 1.244 . S
C626 O621 1.256 1_554 S
C627 O618 1.239 . S
C627 O619 1.256 . S
O628 Mn610 2.221 1_554 S
O628 Mn612 2.290 1_554 S
O628 C622 1.278 . S
O629 Mn612 2.251 1_554 S
O629 C622 1.241 . S
O630 Mn631 2.163 . S
O630 C644 1.244 . S
Mn631 O630 2.163 . S
Mn631 O634 2.160 . S
Mn631 O635 2.221 . S
Mn631 O637 2.163 . S
Mn631 O639 2.160 . S
Mn631 O649 2.221 . S
O632 Mn633 2.087 . S
O632 C644 1.256 . S
Mn633 O632 2.087 . S
Mn633 O640 2.089 . S
Mn633 O649 2.290 . S
Mn633 O650 2.251 . S
O634 Mn631 2.160 . S
O634 C645 1.239 . S
O635 Mn631 2.221 . S
O635 Mn636 2.290 . S
O635 C646 1.278 . S
Mn636 O635 2.290 . S
Mn636 O638 2.089 . S
Mn636 O641 2.251 . S
Mn636 O642 2.087 . S
O637 Mn631 2.163 . S
O637 C647 1.244 . S
O638 Mn636 2.089 . S
O638 C645 1.256 . S
O639 Mn631 2.160 . S
O639 C648 1.239 . S
O640 Mn633 2.089 . S
O640 C648 1.256 . S
O641 Mn636 2.251 . S
O641 C646 1.241 . S
O642 Mn636 2.087 . S
O642 C647 1.256 . S
C643 O649 1.278 . S
C643 O650 1.241 . S
C644 O630 1.244 . S
C644 O632 1.256 . S
C645 O634 1.239 . S
C645 O638 1.256 . S
C646 O635 1.278 . S
C646 O641 1.241 . S
C647 O637 1.244 . S
C647 O642 1.256 . S
C648 O639 1.239 . S
C648 O640 1.256 . S
O649 Mn631 2.221 . S
O649 Mn633 2.290 . S
O649 C643 1.278 . S
O650 Mn633 2.251 . S
O650 C643 1.241 . S
O651 Mn652 2.163 . S
O651 C665 1.244 . S
Mn652 O651 2.163 . S
Mn652 O655 2.160 . S
Mn652 O656 2.221 . S
Mn652 O658 2.163 . S
Mn652 O660 2.160 . S
Mn652 O670 2.221 . S
O653 Mn654 2.087 . S
O653 C665 1.256 . S
Mn654 O653 2.087 . S
Mn654 O661 2.089 . S
Mn654 O670 2.290 . S
Mn654 O671 2.251 . S
O655 Mn652 2.160 . S
O655 C666 1.239 . S
O656 Mn652 2.221 . S
O656 Mn657 2.290 . S
O656 C667 1.278 . S
Mn657 O656 2.290 . S
Mn657 O659 2.089 . S
Mn657 O662 2.251 . S
Mn657 O663 2.087 . S
O658 Mn652 2.163 . S
O658 C668 1.244 . S
O659 Mn657 2.089 . S
O659 C666 1.256 . S
O660 Mn652 2.160 . S
O660 C669 1.239 . S
O661 Mn654 2.089 . S
O661 C669 1.256 . S
O662 Mn657 2.251 . S
O662 C667 1.241 . S
O663 Mn657 2.087 . S
O663 C668 1.256 . S
C664 O670 1.278 . S
C664 O671 1.241 . S
C665 O651 1.244 . S
C665 O653 1.256 . S
C666 O655 1.239 . S
C666 O659 1.256 . S
C667 O656 1.278 . S
C667 O662 1.241 . S
C668 O658 1.244 . S
C668 O663 1.256 . S
C669 O660 1.239 . S
C669 O661 1.256 . S
O670 Mn652 2.221 . S
O670 Mn654 2.290 . S
O670 C664 1.278 . S
O671 Mn654 2.251 . S
O671 C664 1.241 . S
C540 C13 1.600 . S
C517 C36 1.600 . S
C582 C57 2.231 . S
C561 C78 2.231 . S
C99 C624 2.224 . S
C120 C603 2.224 . S
C141 C666 2.351 . S
C645 C162 2.352 . S
C372 C181 1.600 . S
C349 C204 1.600 . S
C414 C225 2.231 . S
C393 C246 2.231 . S
C267 C456 2.224 . S
C435 C288 2.224 . S
C309 C498 2.352 . S
C477 C330 2.351 . S
C18 C436 1.392 1_565 S
C289 C37 1.230 1_455 S
C646 C58 1.190 1_556 S
C79 C163 1.223 1_664 S
C100 C354 1.392 1_545 S
C121 C205 1.230 1_455 S
C142 C562 1.190 1_556 S
C604 C186 1.392 . S
C478 C226 1.190 . S
C331 C247 1.223 1_455 S
C522 C268 1.392 . S
C310 C394 1.190 . S
C625 C373 1.230 . S
C415 C499 1.223 1_565 S
C541 C457 1.230 . S
C583 C667 1.223 1_554 S
C17 C412 1.729 . S
C34 C391 2.034 . S
C55 C370 2.034 . S
C76 C353 1.729 . S
C97 C496 1.884 . S
C118 C475 2.026 . S
C139 C454 2.026 . S
C160 C433 1.884 . S
C185 C580 1.729 . S
C202 C559 2.034 . S
C223 C538 2.034 . S
C244 C521 1.729 . S
C664 C265 1.884 . S
C643 C286 2.026 . S
C622 C307 2.026 . S
C601 C328 1.884 . S
C56 C16 1.875 . S
C77 C35 1.765 . S
C140 C98 1.695 . S
C119 C161 1.698 . S
C224 C184 1.875 . S
C203 C245 1.765 . S
C308 C266 1.695 . S
C287 C329 1.698 . S
C352 C392 1.875 . S
C371 C413 1.765 . S
C476 C434 1.695 . S
C455 C497 1.698 . S
C520 C560 1.875 . S
C581 C539 1.765 . S
C602 C644 1.695 . S
C623 C665 1.698 . S
C15 C165 1.169 1_545 S
C648 C38 1.341 . S
C59 C291 1.401 . S
C80 C438 1.393 . S
C81 C101 1.265 . S
C122 C564 1.335 . S
C207 C143 1.372 . S
C350 C164 1.307 . S
C183 C333 1.169 . S
C480 C206 1.341 . S
C227 C123 1.401 . S
C606 C248 1.393 . S
C269 C249 1.265 . S
C290 C396 1.335 . S
C311 C39 1.372 . S
C518 C332 1.298 . S
C351 C501 1.169 1_545 S
C374 C312 1.341 . S
C395 C627 1.401 . S
C416 C102 1.393 . S
C437 C417 1.265 . S
C228 C458 1.335 . S
C543 C479 1.372 . S
C500 C14 1.307 . S
C669 C519 1.169 . S
C144 C542 1.341 . S
C459 C563 1.401 . S
C584 C270 1.393 . S
C585 C605 1.265 . S
C60 C626 1.335 . S
C375 C647 1.372 . S
C668 C182 1.298 . S
