# Generated by pormake.
# Topology whw, (6)-cn, num edge types: 1
# Building blocks:
#     Node 0, Type 0, BuildingBlock: GEDQOX_clean_sbu_0, # of connection points: 6
#     Node 1, Type 0, BuildingBlock: GEDQOX_clean_sbu_0, # of connection points: 6
#     Node 2, Type 0, BuildingBlock: GEDQOX_clean_sbu_0, # of connection points: 6
#     Node 3, Type 0, BuildingBlock: GEDQOX_clean_sbu_0, # of connection points: 6
#     Node 4, Type 0, BuildingBlock: GEDQOX_clean_sbu_0, # of connection points: 6
#     Node 5, Type 0, BuildingBlock: GEDQOX_clean_sbu_0, # of connection points: 6
#     Node 6, Type 0, BuildingBlock: GEDQOX_clean_sbu_0, # of connection points: 6
#     Node 7, Type 0, BuildingBlock: GEDQOX_clean_sbu_0, # of connection points: 6
#     Node 8, Type 0, BuildingBlock: GEDQOX_clean_sbu_0, # of connection points: 6
#     Node 9, Type 0, BuildingBlock: GEDQOX_clean_sbu_0, # of connection points: 6
#     Node 10, Type 0, BuildingBlock: GEDQOX_clean_sbu_0, # of connection points: 6
#     Node 11, Type 0, BuildingBlock: GEDQOX_clean_sbu_0, # of connection points: 6
#     Node 12, Type 0, BuildingBlock: GEDQOX_clean_sbu_0, # of connection points: 6
#     Node 13, Type 0, BuildingBlock: GEDQOX_clean_sbu_0, # of connection points: 6
#     Node 14, Type 0, BuildingBlock: GEDQOX_clean_sbu_0, # of connection points: 6
#     Node 15, Type 0, BuildingBlock: GEDQOX_clean_sbu_0, # of connection points: 6
#     Edge 16, Type (0, 0), BuildingBlock: UVAHIK_clean_linker_0, # of connection points: 2
#     Edge 17, Type (0, 0), BuildingBlock: UVAHIK_clean_linker_0, # of connection points: 2
#     Edge 18, Type (0, 0), BuildingBlock: UVAHIK_clean_linker_0, # of connection points: 2
#     Edge 19, Type (0, 0), BuildingBlock: UVAHIK_clean_linker_0, # of connection points: 2
#     Edge 20, Type (0, 0), BuildingBlock: UVAHIK_clean_linker_0, # of connection points: 2
#     Edge 21, Type (0, 0), BuildingBlock: UVAHIK_clean_linker_0, # of connection points: 2
#     Edge 22, Type (0, 0), BuildingBlock: UVAHIK_clean_linker_0, # of connection points: 2
#     Edge 23, Type (0, 0), BuildingBlock: UVAHIK_clean_linker_0, # of connection points: 2
#     Edge 24, Type (0, 0), BuildingBlock: UVAHIK_clean_linker_0, # of connection points: 2
#     Edge 25, Type (0, 0), BuildingBlock: UVAHIK_clean_linker_0, # of connection points: 2
#     Edge 26, Type (0, 0), BuildingBlock: UVAHIK_clean_linker_0, # of connection points: 2
#     Edge 27, Type (0, 0), BuildingBlock: UVAHIK_clean_linker_0, # of connection points: 2
#     Edge 28, Type (0, 0), BuildingBlock: UVAHIK_clean_linker_0, # of connection points: 2
#     Edge 29, Type (0, 0), BuildingBlock: UVAHIK_clean_linker_0, # of connection points: 2
#     Edge 30, Type (0, 0), BuildingBlock: UVAHIK_clean_linker_0, # of connection points: 2
#     Edge 31, Type (0, 0), BuildingBlock: UVAHIK_clean_linker_0, # of connection points: 2
#     Edge 32, Type (0, 0), BuildingBlock: UVAHIK_clean_linker_0, # of connection points: 2
#     Edge 33, Type (0, 0), BuildingBlock: UVAHIK_clean_linker_0, # of connection points: 2
#     Edge 34, Type (0, 0), BuildingBlock: UVAHIK_clean_linker_0, # of connection points: 2
#     Edge 35, Type (0, 0), BuildingBlock: UVAHIK_clean_linker_0, # of connection points: 2
#     Edge 36, Type (0, 0), BuildingBlock: UVAHIK_clean_linker_0, # of connection points: 2
#     Edge 37, Type (0, 0), BuildingBlock: UVAHIK_clean_linker_0, # of connection points: 2
#     Edge 38, Type (0, 0), BuildingBlock: UVAHIK_clean_linker_0, # of connection points: 2
#     Edge 39, Type (0, 0), BuildingBlock: UVAHIK_clean_linker_0, # of connection points: 2
#     Edge 40, Type (0, 0), BuildingBlock: UVAHIK_clean_linker_0, # of connection points: 2
#     Edge 41, Type (0, 0), BuildingBlock: UVAHIK_clean_linker_0, # of connection points: 2
#     Edge 42, Type (0, 0), BuildingBlock: UVAHIK_clean_linker_0, # of connection points: 2
#     Edge 43, Type (0, 0), BuildingBlock: UVAHIK_clean_linker_0, # of connection points: 2
#     Edge 44, Type (0, 0), BuildingBlock: UVAHIK_clean_linker_0, # of connection points: 2
#     Edge 45, Type (0, 0), BuildingBlock: UVAHIK_clean_linker_0, # of connection points: 2
#     Edge 46, Type (0, 0), BuildingBlock: UVAHIK_clean_linker_0, # of connection points: 2
#     Edge 47, Type (0, 0), BuildingBlock: UVAHIK_clean_linker_0, # of connection points: 2
#     Edge 48, Type (0, 0), BuildingBlock: UVAHIK_clean_linker_0, # of connection points: 2
#     Edge 49, Type (0, 0), BuildingBlock: UVAHIK_clean_linker_0, # of connection points: 2
#     Edge 50, Type (0, 0), BuildingBlock: UVAHIK_clean_linker_0, # of connection points: 2
#     Edge 51, Type (0, 0), BuildingBlock: UVAHIK_clean_linker_0, # of connection points: 2
#     Edge 52, Type (0, 0), BuildingBlock: UVAHIK_clean_linker_0, # of connection points: 2
#     Edge 53, Type (0, 0), BuildingBlock: UVAHIK_clean_linker_0, # of connection points: 2
#     Edge 54, Type (0, 0), BuildingBlock: UVAHIK_clean_linker_0, # of connection points: 2
#     Edge 55, Type (0, 0), BuildingBlock: UVAHIK_clean_linker_0, # of connection points: 2
#     Edge 56, Type (0, 0), BuildingBlock: UVAHIK_clean_linker_0, # of connection points: 2
#     Edge 57, Type (0, 0), BuildingBlock: UVAHIK_clean_linker_0, # of connection points: 2
#     Edge 58, Type (0, 0), BuildingBlock: UVAHIK_clean_linker_0, # of connection points: 2
#     Edge 59, Type (0, 0), BuildingBlock: UVAHIK_clean_linker_0, # of connection points: 2
#     Edge 60, Type (0, 0), BuildingBlock: UVAHIK_clean_linker_0, # of connection points: 2
#     Edge 61, Type (0, 0), BuildingBlock: UVAHIK_clean_linker_0, # of connection points: 2
#     Edge 62, Type (0, 0), BuildingBlock: UVAHIK_clean_linker_0, # of connection points: 2
#     Edge 63, Type (0, 0), BuildingBlock: UVAHIK_clean_linker_0, # of connection points: 2
# Relax obj value: 0.236
# Max RMSD: 0.186
# Mean RMSD: 0.186
data_MOF--net-whw--node1-GEDQOX_clean_sbu_0--edge1-UVAHIK_clean_linker_0
_symmetry_space_group_name_H-M    P1
_symmetry_Int_Tables_number       1
_symmetry_cell_setting            triclinic
loop_
_symmetry_equiv_pos_as_xyz
'x, y, z'
_cell_length_a     60.023357
_cell_length_b     59.957473
_cell_length_c     43.382135
_cell_angle_alpha  89.990472
_cell_angle_beta   89.911497
_cell_angle_gamma 89.944465
loop_
_atom_site_label
_atom_site_type_symbol
_atom_site_fract_x
_atom_site_fract_y
_atom_site_fract_z
_atom_type_partial_charge
Nd0 Nd 0.99334 0.10245 0.13064 0.0
Nd1 Nd 0.04024 0.10578 0.16276 0.0
C2 C 0.96127 0.09534 0.08995 0.0
C3 C 0.95831 0.10213 0.05744 0.0
C4 C 0.94304 0.09103 0.03842 0.0
C5 C 0.93989 0.09791 1.0078 0.0
C6 C 0.95197 0.11605 0.99563 0.0
C7 C 0.96756 0.12681 0.01474 0.0
C8 C 0.97065 0.11996 0.04526 0.0
C9 C 0.00125 0.1406 0.16244 0.0
C10 C 0.03851 0.11905 0.09098 0.0
C11 C 0.07384 0.11411 0.20046 0.0
C12 C 0.07785 0.12165 0.23236 0.0
C13 C 0.06359 0.13695 0.24701 0.0
C14 C 0.06849 0.14478 0.27668 0.0
C15 C 0.08769 0.13738 0.29235 0.0
C16 C 0.10155 0.12162 0.27776 0.0
C17 C 0.09669 0.1139 0.2481 0.0
C18 C 0.03154 0.06703 0.13168 0.0
C19 C -0.00569 0.09464 0.20336 0.0
O20 O 0.97717 0.08091 0.09542 0.0
O21 O 0.9608 0.11153 0.11017 0.0
O22 O 0.98153 0.13189 0.15997 0.0
O23 O 0.01529 0.13052 0.1459 0.0
O24 O 0.01778 0.11152 0.09128 0.0
O25 O 0.05057 0.12059 0.11635 0.0
O26 O 0.06562 0.12885 0.18129 0.0
O27 O 0.06529 0.09419 0.19693 0.0
O28 O 0.05116 0.07619 0.13252 0.0
O29 O 0.01797 0.07758 0.14835 0.0
O30 O 0.01455 0.10343 0.20221 0.0
O31 O 0.9833 0.08884 0.1781 0.0
H32 H 0.93337 0.07721 0.04735 0.0
H33 H 0.92763 0.08933 0.99389 0.0
H34 H 0.97747 0.14054 1.00608 0.0
H35 H 0.98259 0.12874 0.05945 0.0
H36 H 0.04885 0.1431 0.23535 0.0
H37 H 0.05751 0.15704 0.28698 0.0
H38 H 0.1162 0.11517 0.28927 0.0
H39 H 0.10783 0.102 0.23728 0.0
Nd40 Nd 0.12886 0.73706 0.36081 0.0
Nd41 Nd 0.12297 0.78331 0.39483 0.0
C42 C 0.13959 0.70577 0.32027 0.0
C43 C 0.1348 0.70114 0.28744 0.0
C44 C 0.15054 0.68985 0.26926 0.0
C45 C 0.14577 0.68444 0.23852 0.0
C46 C 0.12508 0.69009 0.22542 0.0
C47 C 0.10958 0.70192 0.24352 0.0
C48 C 0.11442 0.70748 0.27414 0.0
C49 C 0.09061 0.74182 0.39381 0.0
C50 C 0.10929 0.78179 0.32285 0.0
C51 C 0.11399 0.81687 0.43263 0.0
C52 C 0.10836 0.8225 0.46487 0.0
C53 C 0.09487 0.80868 0.48322 0.0
C54 C 0.08854 0.81545 0.51296 0.0
C55 C 0.09567 0.83612 0.52493 0.0
C56 C 0.10978 0.84946 0.50669 0.0
C57 C 0.11597 0.84275 0.47703 0.0
C58 C 0.162 0.77689 0.3634 0.0
C59 C 0.13678 0.73747 0.43398 0.0
O60 O 0.15235 0.72294 0.32615 0.0
O61 O 0.12277 0.70414 0.33938 0.0
O62 O 0.10019 0.72265 0.38918 0.0
O63 O 0.09974 0.75691 0.37789 0.0
O64 O 0.11775 0.76136 0.32223 0.0
O65 O 0.10743 0.79335 0.3487 0.0
O66 O 0.09883 0.80662 0.4162 0.0
O67 O 0.13425 0.80981 0.42704 0.0
O68 O 0.15175 0.79597 0.36433 0.0
O69 O 0.1522 0.76261 0.37974 0.0
O70 O 0.12728 0.75745 0.43372 0.0
O71 O 0.14289 0.72719 0.4082 0.0
H72 H 0.1664 0.68489 0.279 0.0
H73 H 0.15803 0.67523 0.22529 0.0
H74 H 0.09363 0.70682 0.23402 0.0
H75 H 0.10212 0.71649 0.28755 0.0
H76 H 0.08896 0.79287 0.47442 0.0
H77 H 0.07757 0.80477 0.52619 0.0
H78 H 0.11604 0.86521 0.51529 0.0
H79 H 0.12651 0.85359 0.46335 0.0
Nd80 Nd 0.50515 0.88593 0.63151 0.0
Nd81 Nd 0.45764 0.88143 0.66184 0.0
C82 C 0.53874 0.89383 0.59342 0.0
C83 C 0.54403 0.88816 0.56095 0.0
C84 C 0.52914 0.89279 0.53676 0.0
C85 C 0.5338 0.88559 0.50666 0.0
C86 C 0.5534 0.87354 0.50016 0.0
C87 C 0.5685 0.86947 0.52431 0.0
C88 C 0.56387 0.87672 0.5543 0.0
C89 C 0.49711 0.84725 0.66217 0.0
C90 C 0.46127 0.86923 0.58965 0.0
C91 C 0.42365 0.87209 0.69857 0.0
C92 C 0.41951 0.86408 0.73032 0.0
C93 C 0.43173 0.84631 0.74303 0.0
C94 C 0.42665 0.83826 0.77253 0.0
C95 C 0.40943 0.84797 0.79008 0.0
C96 C 0.39765 0.86612 0.77756 0.0
C97 C 0.40259 0.87401 0.74796 0.0
C98 C 0.46599 0.9206 0.63162 0.0
C99 C 0.5025 0.89276 0.70427 0.0
O100 O 0.52268 0.90819 0.5985 0.0
O101 O 0.53833 0.87703 0.61263 0.0
O102 O 0.51668 0.85639 0.66091 0.0
O103 O 0.48334 0.85733 0.64529 0.0
O104 O 0.48188 0.8771 0.59085 0.0
O105 O 0.44872 0.86708 0.61457 0.0
O106 O 0.43221 0.85779 0.679 0.0
O107 O 0.43188 0.8922 0.69562 0.0
O108 O 0.44653 0.9111 0.63209 0.0
O109 O 0.47959 0.91023 0.64848 0.0
O110 O 0.48245 0.88367 0.70225 0.0
O111 O 0.51387 0.89911 0.67957 0.0
H112 H 0.51367 0.90156 0.54116 0.0
H113 H 0.52175 0.88889 0.48867 0.0
H114 H 0.58391 0.86058 0.52006 0.0
H115 H 0.57566 0.87301 0.57249 0.0
H116 H 0.44506 0.8385 0.73009 0.0
H117 H 0.43625 0.82445 0.78166 0.0
H118 H 0.38419 0.87385 0.79034 0.0
H119 H 0.39296 0.88773 0.73864 0.0
Nd120 Nd 0.37321 0.24888 0.86309 0.0
Nd121 Nd 0.37769 0.20178 0.89493 0.0
C122 C 0.36443 0.28196 0.82451 0.0
C123 C 0.36751 0.28628 0.79124 0.0
C124 C 0.36626 0.26899 0.76946 0.0
C125 C 0.37113 0.27308 0.73836 0.0
C126 C 0.37722 0.29459 0.72838 0.0
C127 C 0.37793 0.31193 0.75023 0.0
C128 C 0.37319 0.30779 0.78131 0.0
C129 C 0.41015 0.24297 0.89839 0.0
C130 C 0.39231 0.20477 0.82347 0.0
C131 C 0.38602 0.16775 0.9321 0.0
C132 C 0.392 0.16305 0.96443 0.0
C133 C 0.4038 0.17851 0.98239 0.0
C134 C 0.4104 0.17302 1.01244 0.0
C135 C 0.40511 0.15204 0.02522 0.0
C136 C 0.39266 0.13696 1.00731 0.0
C137 C 0.38627 0.14239 0.97724 0.0
C138 C 0.33945 0.20934 0.86237 0.0
C139 C 0.36316 0.24672 0.93563 0.0
O140 O 0.3497 0.26685 0.83239 0.0
O141 O 0.38273 0.28074 0.84075 0.0
O142 O 0.40057 0.26222 0.89463 0.0
O143 O 0.40168 0.22841 0.88095 0.0
O144 O 0.38378 0.22517 0.82353 0.0
O145 O 0.39393 0.19269 0.84887 0.0
O146 O 0.40123 0.17738 0.915 0.0
O147 O 0.36592 0.17536 0.92698 0.0
O148 O 0.34932 0.19004 0.86304 0.0
O149 O 0.3491 0.22313 0.8796 0.0
O150 O 0.37232 0.22659 0.93488 0.0
O151 O 0.35826 0.25794 0.91016 0.0
H152 H 0.36182 0.25226 0.77657 0.0
H153 H 0.37017 0.25939 0.72214 0.0
H154 H 0.38283 0.32862 0.74351 0.0
H155 H 0.3744 0.32133 0.79775 0.0
H156 H 0.40817 0.19467 0.97304 0.0
H157 H 0.4201 0.18504 0.02534 0.0
H158 H 0.38782 0.12088 0.01648 0.0
H159 H 0.377 0.13031 0.96384 0.0
Nd160 Nd 0.9634 0.87665 0.86272 0.0
Nd161 Nd 0.00904 0.8885 0.89427 0.0
C162 C 0.93057 0.8622 0.82722 0.0
C163 C 0.92545 0.85426 0.79585 0.0
C164 C 0.90731 0.83991 0.79165 0.0
C165 C 0.90142 0.83266 0.76215 0.0
C166 C 0.91358 0.83961 0.73611 0.0
C167 C 0.93196 0.85388 0.74044 0.0
C168 C 0.93788 0.86109 0.77008 0.0
C169 C 0.96539 0.91684 0.89264 0.0
C170 C 0.00621 0.89528 0.82117 0.0
C171 C 0.03986 0.9014 0.93401 0.0
C172 C 0.04519 0.89539 0.96639 0.0
C173 C 0.02932 0.8973 0.99017 0.0
C174 C 0.03411 0.88952 0.01995 0.0
C175 C 0.05482 0.87959 0.02659 0.0
C176 C 0.07085 0.87831 1.00294 0.0
C177 C 0.0661 0.88615 0.97327 0.0
C178 C 0.00855 0.84963 0.86252 0.0
C179 C 0.96769 0.86512 0.93507 0.0
O180 O 0.94252 0.84902 0.84471 0.0
O181 O 0.93562 0.88332 0.83047 0.0
O182 O 0.94774 0.90432 0.89251 0.0
O183 O 0.98053 0.90854 0.87614 0.0
O184 O 0.98765 0.88336 0.82255 0.0
O185 O 0.01626 0.90299 0.84626 0.0
O186 O 0.02156 0.91274 0.92891 0.0
O187 O 0.04309 0.88563 0.91365 0.0
O188 O 0.02626 0.86183 0.86563 0.0
O189 O 0.99266 0.8567 0.879 0.0
O190 O 0.98711 0.87554 0.93422 0.0
O191 O 0.95578 0.86152 0.90997 0.0
H192 H 0.89747 0.8345 0.81123 0.0
H193 H 0.88701 0.82194 0.7597 0.0
H194 H 0.94184 0.85935 0.72096 0.0
H195 H 0.95204 0.87208 0.77287 0.0
H196 H 0.013 0.90428 0.98565 0.0
H197 H 0.02131 0.89064 0.03752 0.0
H198 H 0.0871 0.87112 1.00732 0.0
H199 H 0.07867 0.88454 0.95544 0.0
Nd200 Nd 0.3785 0.70757 0.12684 0.0
Nd201 Nd 0.3813 0.75394 0.15893 0.0
C202 C 0.38761 0.66981 0.09793 0.0
C203 C 0.39328 0.66288 0.0663 0.0
C204 C 0.40241 0.64169 0.06116 0.0
C205 C 0.4082 0.63492 0.03133 0.0
C206 C 0.40492 0.64924 1.00601 0.0
C207 C 0.39569 0.6705 1.01129 0.0
C208 C 0.39001 0.67729 0.04119 0.0
C209 C 0.3414 0.72009 0.15909 0.0
C210 C 0.36374 0.75135 0.08673 0.0
C211 C 0.37484 0.79159 0.18938 0.0
C212 C 0.3771 0.79819 0.22197 0.0
C213 C 0.37603 0.78223 0.24564 0.0
C214 C 0.38048 0.78828 0.2762 0.0
C215 C 0.38632 0.81036 0.28362 0.0
C216 C 0.38693 0.82636 0.25987 0.0
C217 C 0.38236 0.82032 0.22937 0.0
C218 C 0.4182 0.74199 0.12516 0.0
C219 C 0.39816 0.71097 0.19855 0.0
O220 O 0.4027 0.68164 0.11235 0.0
O221 O 0.36729 0.67717 0.10238 0.0
O222 O 0.34031 0.70821 0.13406 0.0
O223 O 0.36125 0.72315 0.16703 0.0
O224 O 0.37121 0.73058 0.08593 0.0
O225 O 0.36337 0.76294 0.11287 0.0
O226 O 0.35866 0.77776 0.18259 0.0
O227 O 0.39354 0.78664 0.17545 0.0
O228 O 0.41922 0.75301 0.15094 0.0
O229 O 0.39827 0.73845 0.1182 0.0
O230 O 0.39165 0.732 0.19948 0.0
O231 O 0.3964 0.69885 0.17303 0.0
H232 H 0.40508 0.63035 0.08025 0.0
H233 H 0.41504 0.61837 0.02806 0.0
H234 H 0.3932 0.68203 0.99238 0.0
H235 H 0.38315 0.69382 0.04474 0.0
H236 H 0.37233 0.76497 0.2404 0.0
H237 H 0.38012 0.7755 0.29384 0.0
H238 H 0.39112 0.84355 0.26484 0.0
H239 H 0.38343 0.83284 0.21142 0.0
Nd240 Nd 0.54621 0.10798 0.36257 0.0
Nd241 Nd 0.49851 0.10293 0.39253 0.0
C242 C 0.58051 0.11837 0.32689 0.0
C243 C 0.5854 0.12696 0.29564 0.0
C244 C 0.60222 0.14294 0.29189 0.0
C245 C 0.60767 0.15102 0.26258 0.0
C246 C 0.59637 0.1433 0.23624 0.0
C247 C 0.57933 0.1274 0.24012 0.0
C248 C 0.57388 0.11932 0.26952 0.0
C249 C 0.53806 0.0685 0.39203 0.0
C250 C 0.50146 0.09671 0.31969 0.0
C251 C 0.46508 0.09435 0.43057 0.0
C252 C 0.45967 0.10026 0.46291 0.0
C253 C 0.47533 0.09774 0.48678 0.0
C254 C 0.47035 0.10498 0.51676 0.0
C255 C 0.44969 0.11502 0.52346 0.0
C256 C 0.43395 0.11712 0.49961 0.0
C257 C 0.43889 0.1098 0.46973 0.0
C258 C 0.50652 0.14183 0.36234 0.0
C259 C 0.54194 0.12018 0.43488 0.0
O260 O 0.57142 0.13241 0.34634 0.0
O261 O 0.57238 0.09815 0.32915 0.0
O262 O 0.55749 0.07807 0.39168 0.0
O263 O 0.52436 0.07894 0.37542 0.0
O264 O 0.52145 0.10596 0.32201 0.0
O265 O 0.49026 0.08979 0.34427 0.0
O266 O 0.48163 0.08048 0.42588 0.0
O267 O 0.46492 0.11089 0.4109 0.0
O268 O 0.48694 0.13266 0.36342 0.0
O269 O 0.52018 0.13164 0.37926 0.0
O270 O 0.52121 0.11269 0.43334 0.0
O271 O 0.55491 0.1217 0.41029 0.0
H272 H 0.61136 0.14903 0.3117 0.0
H273 H 0.62106 0.16301 0.26052 0.0
H274 H 0.57007 0.12129 0.22045 0.0
H275 H 0.56078 0.10703 0.2718 0.0
H276 H 0.49158 0.09059 0.4822 0.0
H277 H 0.48293 0.10328 0.53448 0.0
H278 H 0.41777 0.12448 0.50403 0.0
H279 H 0.42655 0.11192 0.45176 0.0
Nd280 Nd 0.1222 0.28022 0.63078 0.0
Nd281 Nd 0.12869 0.23262 0.66034 0.0
C282 C 0.1111 0.31495 0.5963 0.0
C283 C 0.10273 0.32002 0.56522 0.0
C284 C 0.10051 0.30332 0.54276 0.0
C285 C 0.09307 0.30874 0.51306 0.0
C286 C 0.08741 0.33089 0.5056 0.0
C287 C 0.08927 0.34741 0.52845 0.0
C288 C 0.09694 0.34202 0.55793 0.0
C289 C 0.16189 0.2729 0.65987 0.0
C290 C 0.13629 0.23653 0.58747 0.0
C291 C 0.13906 0.19877 0.69674 0.0
C292 C 0.13466 0.19261 0.72919 0.0
C293 C 0.13665 0.20821 0.75322 0.0
C294 C 0.13057 0.20246 0.78341 0.0
C295 C 0.12231 0.18104 0.79012 0.0
C296 C 0.12087 0.16534 0.76608 0.0
C297 C 0.12698 0.17108 0.73599 0.0
C298 C 0.09015 0.23889 0.62832 0.0
C299 C 0.11043 0.27543 0.70324 0.0
O300 O 0.09722 0.30496 0.61503 0.0
O301 O 0.13145 0.30716 0.59819 0.0
O302 O 0.15169 0.29203 0.6604 0.0
O303 O 0.1518 0.2591 0.64312 0.0
O304 O 0.12632 0.25623 0.58957 0.0
O305 O 0.14279 0.22528 0.61221 0.0
O306 O 0.15251 0.21559 0.6916 0.0
O307 O 0.12165 0.19884 0.67863 0.0
O308 O 0.10004 0.21967 0.63052 0.0
O309 O 0.0993 0.253 0.64576 0.0
O310 O 0.11886 0.25501 0.70174 0.0
O311 O 0.10798 0.28808 0.6785 0.0
H312 H 0.10457 0.28617 0.54818 0.0
H313 H 0.09155 0.29562 0.49603 0.0
H314 H 0.0852 0.36462 0.52334 0.0
H315 H 0.09848 0.3551 0.57502 0.0
H316 H 0.14248 0.22497 0.7486 0.0
H317 H 0.13173 0.21501 0.80129 0.0
H318 H 0.11491 0.1486 0.7705 0.0
H319 H 0.12532 0.15878 0.71784 0.0
Nd320 Nd 0.87793 0.20797 0.62692 0.0
Nd321 Nd 0.87912 0.25308 0.66316 0.0
C322 C 0.88823 0.17218 0.59415 0.0
C323 C 0.89422 0.16634 0.56193 0.0
C324 C 0.91313 0.17543 0.54745 0.0
C325 C 0.9188 0.16926 0.51731 0.0
C326 C 0.90578 0.15377 0.5009 0.0
C327 C 0.88682 0.14476 0.51542 0.0
C328 C 0.88114 0.15098 0.54556 0.0
C329 C 0.84138 0.21686 0.66261 0.0
C330 C 0.86013 0.25278 0.59144 0.0
C331 C 0.87042 0.28853 0.69738 0.0
C332 C 0.87174 0.29342 0.73064 0.0
C333 C 0.8737 0.2761 0.75225 0.0
C334 C 0.87689 0.2809 0.78352 0.0
C335 C 0.87831 0.30314 0.79381 0.0
C336 C 0.87594 0.32041 0.77202 0.0
C337 C 0.87271 0.31558 0.74077 0.0
C338 C 0.91569 0.24481 0.62692 0.0
C339 C 0.89966 0.20936 0.69763 0.0
O340 O 0.90284 0.18357 0.61017 0.0
O341 O 0.86764 0.17851 0.59927 0.0
O342 O 0.84002 0.20603 0.63672 0.0
O343 O 0.86129 0.22076 0.66938 0.0
O344 O 0.86824 0.23234 0.58852 0.0
O345 O 0.86022 0.26334 0.61839 0.0
O346 O 0.85505 0.27434 0.68865 0.0
O347 O 0.88958 0.28519 0.68371 0.0
O348 O 0.91672 0.25512 0.65327 0.0
O349 O 0.89585 0.24032 0.62047 0.0
O350 O 0.89213 0.22994 0.70082 0.0
O351 O 0.89756 0.1982 0.67133 0.0
H352 H 0.92375 0.18712 0.55946 0.0
H353 H 0.9337 0.1763 0.50711 0.0
H354 H 0.87627 0.13299 0.50343 0.0
H355 H 0.86651 0.14366 0.55618 0.0
H356 H 0.87317 0.25885 0.74489 0.0
H357 H 0.87836 0.26717 0.79961 0.0
H358 H 0.87728 0.33771 0.77892 0.0
H359 H 0.87148 0.32917 0.72439 0.0
Nd360 Nd 0.62232 0.78149 0.13005 0.0
Nd361 Nd 0.62378 0.73418 0.1633 0.0
C362 C 0.61389 0.81498 0.09207 0.0
C363 C 0.60537 0.81935 0.06069 0.0
C364 C 0.6127 0.80711 0.03496 0.0
C365 C 0.60487 0.81233 1.00538 0.0
C366 C 0.58944 0.82975 1.00103 0.0
C367 C 0.58189 0.84165 0.02697 0.0
C368 C 0.58981 0.83652 0.05642 0.0
C369 C 0.6587 0.77422 0.16617 0.0
C370 C 0.63696 0.73558 0.09141 0.0
C371 C 0.62854 0.69978 0.20109 0.0
C372 C 0.62763 0.69554 0.23456 0.0
C373 C 0.62794 0.71318 0.25581 0.0
C374 C 0.62443 0.70914 0.28724 0.0
C375 C 0.62048 0.68734 0.29806 0.0
C376 C 0.62085 0.66965 0.2767 0.0
C377 C 0.62434 0.67374 0.24529 0.0
C378 C 0.589 0.74154 0.12414 0.0
C379 C 0.60663 0.77954 0.20144 0.0
O380 O 0.59946 0.80757 0.11228 0.0
O381 O 0.63358 0.80567 0.09467 0.0
O382 O 0.65077 0.79403 0.16097 0.0
O383 O 0.64925 0.75968 0.14981 0.0
O384 O 0.62882 0.75615 0.09104 0.0
O385 O 0.64002 0.7243 0.11736 0.0
O386 O 0.64543 0.71135 0.1905 0.0
O387 O 0.60958 0.70544 0.18848 0.0
O388 O 0.59771 0.72198 0.12859 0.0
O389 O 0.59721 0.75561 0.14246 0.0
O390 O 0.6143 0.75882 0.20215 0.0
O391 O 0.60576 0.79133 0.17569 0.0
H392 H 0.62456 0.79364 0.03766 0.0
H393 H 0.6108 0.80266 0.98593 0.0
H394 H 0.57021 0.8553 0.02445 0.0
H395 H 0.58393 0.84619 0.07592 0.0
H396 H 0.63034 0.73012 0.24803 0.0
H397 H 0.62454 0.72314 0.30301 0.0
H398 H 0.61757 0.65271 0.28405 0.0
H399 H 0.62381 0.65992 0.22922 0.0
Nd400 Nd 0.6222 0.23658 0.86717 0.0
Nd401 Nd 0.6241 0.28254 0.90063 0.0
C402 C 0.62936 0.19998 0.83471 0.0
C403 C 0.6242 0.19412 0.80246 0.0
C404 C 0.63647 0.17764 0.78699 0.0
C405 C 0.63121 0.17193 0.7565 0.0
C406 C 0.61352 0.18255 0.74105 0.0
C407 C 0.60153 0.19932 0.75658 0.0
C408 C 0.60686 0.20508 0.78689 0.0
C409 C 0.58503 0.2472 0.90091 0.0
C410 C 0.60336 0.27958 0.82935 0.0
C411 C 0.61432 0.31974 0.93051 0.0
C412 C 0.60815 0.32642 0.9621 0.0
C413 C 0.59783 0.34708 0.96702 0.0
C414 C 0.59155 0.35364 0.99675 0.0
C415 C 0.59553 0.33965 0.02222 0.0
C416 C 0.60595 0.31891 0.01717 0.0
C417 C 0.61212 0.31231 0.98735 0.0
C418 C 0.66114 0.27134 0.86722 0.0
C419 C 0.64003 0.23847 0.93911 0.0
O420 O 0.64462 0.2153 0.83874 0.0
O421 O 0.61209 0.20269 0.8528 0.0
O422 O 0.58435 0.23652 0.87482 0.0
O423 O 0.60482 0.25116 0.90833 0.0
O424 O 0.6096 0.25849 0.82793 0.0
O425 O 0.60604 0.29171 0.85471 0.0
O426 O 0.5995 0.30801 0.91542 0.0
O427 O 0.63474 0.31257 0.9264 0.0
O428 O 0.6623 0.2827 0.8927 0.0
O429 O 0.64125 0.26805 0.85971 0.0
O430 O 0.63183 0.25893 0.94077 0.0
O431 O 0.64092 0.2275 0.91251 0.0
H432 H 0.64998 0.16907 0.79856 0.0
H433 H 0.64069 0.15888 0.74524 0.0
H434 H 0.58807 0.2081 0.74522 0.0
H435 H 0.5973 0.21801 0.79827 0.0
H436 H 0.5946 0.35818 0.94782 0.0
H437 H 0.58379 0.3698 0.99983 0.0
H438 H 0.60901 0.30763 0.0362 0.0
H439 H 0.61989 0.29617 0.98398 0.0
Nd440 Nd 0.87887 0.7557 0.36628 0.0
Nd441 Nd 0.87778 0.70892 0.39807 0.0
C442 C 0.87229 0.79278 0.33478 0.0
C443 C 0.87848 0.79919 0.30293 0.0
C444 C 0.86293 0.80964 0.28356 0.0
C445 C 0.86866 0.81521 0.25314 0.0
C446 C 0.89011 0.81055 0.24162 0.0
C447 C 0.90555 0.79992 0.26104 0.0
C448 C 0.89978 0.7942 0.29124 0.0
C449 C 0.91631 0.74446 0.39901 0.0
C450 C 0.89745 0.71351 0.32638 0.0
C451 C 0.88826 0.67153 0.42697 0.0
C452 C 0.89448 0.66497 0.45853 0.0
C453 C 0.90305 0.64359 0.46401 0.0
C454 C 0.90937 0.63721 0.49377 0.0
C455 C 0.90722 0.6521 0.51869 0.0
C456 C 0.89853 0.67355 0.51306 0.0
C457 C 0.89227 0.67994 0.48323 0.0
C458 C 0.84001 0.72045 0.36684 0.0
C459 C 0.86146 0.75227 0.43809 0.0
O460 O 0.85699 0.77734 0.33756 0.0
O461 O 0.88878 0.79013 0.35416 0.0
O462 O 0.91689 0.75576 0.37343 0.0
O463 O 0.89658 0.74033 0.40642 0.0
O464 O 0.89084 0.7345 0.32598 0.0
O465 O 0.89554 0.7009 0.35144 0.0
O466 O 0.90284 0.68371 0.41204 0.0
O467 O 0.8677 0.67831 0.42302 0.0
O468 O 0.83959 0.7083 0.39166 0.0
O469 O 0.85969 0.72424 0.35846 0.0
O470 O 0.87016 0.73196 0.43895 0.0
O471 O 0.85999 0.76362 0.41186 0.0
H472 H 0.84635 0.81345 0.29194 0.0
H473 H 0.85641 0.82345 0.23879 0.0
H474 H 0.92206 0.79573 0.25275 0.0
H475 H 0.91202 0.78575 0.30539 0.0
H476 H 0.90487 0.63182 0.44522 0.0
H477 H 0.91573 0.6205 0.49731 0.0
H478 H 0.8969 0.68553 0.53161 0.0
H479 H 0.88581 0.69659 0.47942 0.0
Nd480 Nd 0.49087 0.60532 0.63029 0.0
Nd481 Nd 0.53578 0.6069 0.66735 0.0
C482 C 0.45666 0.59686 0.59397 0.0
C483 C 0.45211 0.60316 0.56147 0.0
C484 C 0.46873 0.60107 0.53874 0.0
C485 C 0.4649 0.6083 0.50853 0.0
C486 C 0.44437 0.61792 0.50018 0.0
C487 C 0.42764 0.61972 0.5229 0.0
C488 C 0.43149 0.61243 0.55319 0.0
C489 C 0.50337 0.64664 0.6516 0.0
C490 C 0.53602 0.62132 0.59554 0.0
C491 C 0.56879 0.61345 0.70666 0.0
C492 C 0.57323 0.62162 0.7383 0.0
C493 C 0.56584 0.64268 0.74822 0.0
C494 C 0.57154 0.65069 0.77746 0.0
C495 C 0.5849 0.63792 0.79746 0.0
C496 C 0.59192 0.61665 0.78767 0.0
C497 C 0.58616 0.60863 0.75842 0.0
C498 C 0.52881 0.5696 0.63202 0.0
C499 C 0.48815 0.59718 0.70465 0.0
O500 O 0.47301 0.58272 0.59848 0.0
O501 O 0.45655 0.61315 0.61411 0.0
O502 O 0.4936 0.64353 0.62524 0.0
O503 O 0.50556 0.62844 0.66539 0.0
O504 O 0.51756 0.60953 0.59303 0.0
O505 O 0.54473 0.62601 0.62282 0.0
O506 O 0.56254 0.62821 0.68606 0.0
O507 O 0.55852 0.59425 0.70386 0.0
O508 O 0.54823 0.5788 0.63509 0.0
O509 O 0.51455 0.57953 0.64813 0.0
O510 O 0.50985 0.60131 0.70582 0.0
O511 O 0.47693 0.59657 0.67831 0.0
H512 H 0.48485 0.59404 0.54434 0.0
H513 H 0.47808 0.60627 0.49168 0.0
H514 H 0.41172 0.62727 0.51752 0.0
H515 H 0.41847 0.61439 0.5703 0.0
H516 H 0.55596 0.65318 0.73326 0.0
H517 H 0.56551 0.66698 0.78435 0.0
H518 H 0.60243 0.60644 0.80224 0.0
H519 H 0.59222 0.59241 0.75124 0.0
Nd520 Nd 0.00284 0.37976 0.13083 0.0
Nd521 Nd 0.95757 0.37919 0.16701 0.0
C522 C 0.03838 0.38717 0.09638 0.0
C523 C 0.0447 0.38001 0.06482 0.0
C524 C 0.02925 0.38083 0.04048 0.0
C525 C 0.03503 0.37313 1.01106 0.0
C526 C 0.05633 0.36421 1.00529 0.0
C527 C 0.07178 0.36345 0.02968 0.0
C528 C 0.06603 0.37132 0.05909 0.0
C529 C 0.98897 0.33863 0.15139 0.0
C530 C 0.95763 0.36571 0.0949 0.0
C531 C 0.92404 0.37333 0.20579 0.0
C532 C 0.91929 0.3653 0.23747 0.0
C533 C 0.92472 0.34349 0.24676 0.0
C534 C 0.9187 0.33577 0.27606 0.0
C535 C 0.90704 0.3496 0.29678 0.0
C536 C 0.90203 0.37156 0.28764 0.0
C537 C 0.90804 0.37928 0.2583 0.0
C538 C 0.96572 0.4163 0.13173 0.0
C539 C 0.00483 0.38761 0.20527 0.0
O540 O 0.02174 0.40126 0.09859 0.0
O541 O 0.03765 0.37147 0.11735 0.0
O542 O -0.00105 0.3417 0.12513 0.0
O543 O 0.98717 0.35679 0.16539 0.0
O544 O 0.97658 0.37678 0.09291 0.0
O545 O 0.94864 0.36072 0.12195 0.0
O546 O 0.93014 0.35845 0.18524 0.0
O547 O 0.93466 0.39235 0.20301 0.0
O548 O 0.9461 0.40747 0.13455 0.0
O549 O 0.97962 0.40616 0.14819 0.0
O550 O 0.98306 0.38397 0.2061 0.0
O551 O 0.01629 0.38819 0.17911 0.0
H552 H 0.01256 0.38717 0.04422 0.0
H553 H 0.02262 0.37369 0.99299 0.0
H554 H 0.08838 0.35688 0.02599 0.0
H555 H 0.0782 0.37042 0.07747 0.0
H556 H 0.93332 0.33224 0.2313 0.0
H557 H 0.92315 0.31888 0.28246 0.0
H558 H 0.89288 0.38261 0.30283 0.0
H559 H 0.9035 0.3961 0.25165 0.0
Nd560 Nd 0.46258 0.3767 0.36055 0.0
Nd561 Nd 0.50764 0.38051 0.39727 0.0
C562 C 0.42981 0.36884 0.32131 0.0
C563 C 0.42564 0.36089 0.2895 0.0
C564 C 0.4349 0.34088 0.2785 0.0
C565 C 0.42952 0.33293 0.24911 0.0
C566 C 0.41461 0.34471 0.23006 0.0
C567 C 0.4057 0.36497 0.24094 0.0
C568 C 0.41116 0.37294 0.27033 0.0
C569 C 0.46774 0.41407 0.39628 0.0
C570 C 0.5094 0.3894 0.32297 0.0
C571 C 0.54146 0.39101 0.43332 0.0
C572 C 0.54816 0.38387 0.46491 0.0
C573 C 0.54264 0.39706 0.49066 0.0
C574 C 0.54733 0.38971 0.52063 0.0
C575 C 0.55779 0.36901 0.52572 0.0
C576 C 0.5639 0.35614 0.49988 0.0
C577 C 0.55917 0.36346 0.46991 0.0
C578 C 0.49752 0.33879 0.37498 0.0
C579 C 0.46355 0.36124 0.43196 0.0
O580 O 0.437 0.35415 0.34142 0.0
O581 O 0.43902 0.38853 0.32452 0.0
O582 O 0.44882 0.40387 0.39328 0.0
O583 O 0.48247 0.40503 0.37997 0.0
O584 O 0.48804 0.38374 0.32191 0.0
O585 O 0.5206 0.39082 0.34926 0.0
O586 O 0.52326 0.40304 0.43144 0.0
O587 O 0.54302 0.37622 0.41111 0.0
O588 O 0.50756 0.34206 0.40113 0.0
O589 O 0.49408 0.35707 0.36197 0.0
O590 O 0.48154 0.37375 0.43469 0.0
O591 O 0.45483 0.35665 0.40467 0.0
H592 H 0.44602 0.33112 0.29274 0.0
H593 H 0.43701 0.31747 0.24138 0.0
H594 H 0.39398 0.37437 0.22713 0.0
H595 H 0.40367 0.38833 0.27836 0.0
H596 H 0.53424 0.41292 0.48769 0.0
H597 H 0.54218 0.40003 0.53985 0.0
H598 H 0.57238 0.34033 0.50277 0.0
H599 H 0.56387 0.35292 0.4507 0.0
Nd600 Nd 0.04317 0.60268 0.85556 0.0
Nd601 Nd -0.00095 0.61271 0.89296 0.0
C602 C 0.07646 0.60395 0.81556 0.0
C603 C 0.08071 0.61195 0.78388 0.0
C604 C 0.06657 0.62758 0.76982 0.0
C605 C 0.07147 0.63592 0.7404 0.0
C606 C 0.09059 0.62871 0.72429 0.0
C607 C 0.10442 0.61266 0.73833 0.0
C608 C 0.09954 0.60443 0.7678 0.0
C609 C 0.03014 0.56907 0.89403 0.0
C610 C -0.00545 0.60137 0.81906 0.0
C611 C 0.96173 0.61478 0.92555 0.0
C612 C 0.95655 0.61989 0.95815 0.0
C613 C 0.97157 0.61446 0.98185 0.0
C614 C 0.96689 0.62026 1.01248 0.0
C615 C 0.94722 0.63184 0.02004 0.0
C616 C 0.93219 0.63713 0.99623 0.0
C617 C 0.9368 0.63118 0.96564 0.0
C618 C 0.02142 0.6484 0.86818 0.0
C619 C 0.04606 0.61771 0.92802 0.0
O620 O 0.07297 0.61939 0.83647 0.0
O621 O 0.06323 0.58667 0.81856 0.0
O622 O 0.05076 0.57237 0.88629 0.0
O623 O 0.01716 0.58147 0.87888 0.0
O624 O 0.01654 0.59962 0.81765 0.0
O625 O 0.98383 0.60558 0.84518 0.0
O626 O 0.97239 0.59615 0.92009 0.0
O627 O 0.96918 0.6314 0.90897 0.0
O628 O 0.0122 0.64906 0.8953 0.0
O629 O 0.01814 0.6299 0.85583 0.0
O630 O 0.02522 0.61102 0.93071 0.0
O631 O 0.05584 0.61961 0.90062 0.0
H632 H 0.05191 0.63356 0.7818 0.0
H633 H 0.06053 0.64842 0.73062 0.0
H634 H 0.11904 0.60638 0.72653 0.0
H635 H 0.11062 0.59229 0.77818 0.0
H636 H 0.98707 0.606 0.97665 0.0
H637 H 0.97896 0.61617 0.03014 0.0
H638 H 0.91678 0.64583 1.00126 0.0
H639 H 0.92502 0.6356 0.94775 0.0
C640 C 0.06897 0.13668 0.05909 0.0
C641 C 0.04824 0.12583 0.06087 0.0
C642 C 0.07789 0.14293 0.03046 0.0
C643 C 0.07437 0.12967 0.94734 0.0
H644 H 0.10098 0.18793 0.93541 0.0
C645 C 0.0949 0.16283 0.826 0.0
C646 C 0.11458 0.17516 0.82179 0.0
C647 C 0.0876 0.15705 0.85555 0.0
C648 C 0.09389 0.17147 0.93841 0.0
H649 H 0.02072 0.11299 0.03369 0.0
H650 H 0.03617 0.12392 0.98417 0.0
H651 H 0.08711 0.1773 0.98632 0.0
H652 H 0.14201 0.19113 0.84556 0.0
H653 H 0.12939 0.18086 0.89724 0.0
H654 H 0.08116 0.12369 0.89966 0.0
C655 C 0.04564 0.12748 1.00482 0.0
C656 C 0.08591 0.1654 0.96762 0.0
C657 C 0.03669 0.12137 0.03334 0.0
C658 C 0.12668 0.18177 0.84799 0.0
C659 C 0.11941 0.17591 0.87763 0.0
C660 C 0.08241 0.13568 0.91824 0.0
C661 C 0.06638 0.13828 1.00296 0.0
C662 C 0.07583 0.1445 0.97235 0.0
C663 C 0.09981 0.16336 0.8818 0.0
C664 C 0.09207 0.15676 0.91325 0.0
H665 H 0.07831 0.1404 0.0798 0.0
H666 H 0.09398 0.15109 0.02981 0.0
H667 H 0.06709 0.11328 0.95029 0.0
H668 H 0.08492 0.15785 0.8064 0.0
H669 H 0.07217 0.14784 0.85781 0.0
C670 C 0.09245 0.8134 0.29217 0.0
C671 C 0.1022 0.79205 0.29313 0.0
C672 C 0.08663 0.82321 0.26392 0.0
C673 C 0.1 0.82074 0.18066 0.0
H674 H 0.04432 0.85261 0.17006 0.0
C675 C 0.07054 0.84933 0.06041 0.0
C676 C 0.05957 0.86998 0.05768 0.0
C677 C 0.07526 0.84025 0.0894 0.0
C678 C 0.06009 0.84404 0.17268 0.0
H679 H 0.11312 0.76421 0.26483 0.0
H680 H 0.103 0.78126 0.21595 0.0
H681 H 0.05333 0.83617 0.22005 0.0
H682 H 0.04493 0.89722 0.08357 0.0
H683 H 0.05343 0.88155 0.13422 0.0
H684 H 0.10698 0.82872 0.13359 0.0
C685 C 0.10004 0.79054 0.23698 0.0
C686 C 0.06523 0.83456 0.20139 0.0
C687 C 0.10573 0.7807 0.26514 0.0
C688 C 0.05325 0.8812 0.0848 0.0
C689 C 0.05809 0.87216 0.11388 0.0
C690 C 0.09494 0.8303 0.15208 0.0
C691 C 0.09057 0.81199 0.23593 0.0
C692 C 0.08518 0.82263 0.20568 0.0
C693 C 0.06927 0.85158 0.11661 0.0
C694 C 0.07482 0.84194 0.14753 0.0
H695 H 0.08948 0.82266 0.31321 0.0
H696 H 0.0795 0.83981 0.26397 0.0
H697 H 0.11572 0.81205 0.18326 0.0
H698 H 0.07525 0.83998 0.04006 0.0
H699 H 0.0834 0.82414 0.09041 0.0
C700 C 0.38049 0.80855 0.34118 0.0
C701 C 0.39264 0.81653 0.31573 0.0
C702 C 0.38667 0.81429 0.3713 0.0
C703 C 0.42059 0.85557 0.41514 0.0
H704 H 0.41667 0.81195 0.48093 0.0
C705 C 0.46416 0.86813 0.53202 0.0
C706 C 0.45224 0.86284 0.559 0.0
C707 C 0.45583 0.86252 0.503 0.0
C708 C 0.41763 0.82439 0.46287 0.0
H709 H 0.4212 0.83634 0.30212 0.0
H710 H 0.43216 0.84607 0.35436 0.0
H711 H 0.40428 0.80206 0.42909 0.0
H712 H 0.42217 0.84722 0.57641 0.0
H713 H 0.40764 0.83726 0.52551 0.0
H714 H 0.43436 0.87773 0.44877 0.0
C715 C 0.41747 0.83587 0.35119 0.0
C716 C 0.41049 0.81875 0.43312 0.0
C717 C 0.4112 0.83025 0.32114 0.0
C718 C 0.43178 0.85159 0.55615 0.0
C719 C 0.42351 0.84578 0.527 0.0
C720 C 0.42786 0.86114 0.44476 0.0
C721 C 0.40526 0.82805 0.37673 0.0
C722 C 0.41205 0.83421 0.40876 0.0
C723 C 0.43539 0.85132 0.50008 0.0
C724 C 0.42665 0.84557 0.46894 0.0
H725 H 0.36599 0.7981 0.3378 0.0
H726 H 0.37668 0.80818 0.3903 0.0
H727 H 0.42159 0.86812 0.39724 0.0
H728 H 0.47996 0.87677 0.53319 0.0
H729 H 0.46556 0.86677 0.48278 0.0
C730 C 0.39729 0.20749 0.76606 0.0
C731 C 0.39968 0.19514 0.79346 0.0
C732 C 0.40321 0.19832 0.73756 0.0
C733 C 0.43723 0.15447 0.70049 0.0
H734 H 0.39687 0.16358 0.63195 0.0
C735 C 0.45031 0.11155 0.58149 0.0
C736 C 0.44466 0.12377 0.55494 0.0
C737 C 0.44516 0.11973 0.61095 0.0
C738 C 0.40853 0.1611 0.65065 0.0
H739 H 0.41076 0.16345 0.81214 0.0
H740 H 0.42124 0.14749 0.76227 0.0
H741 H 0.38764 0.17881 0.68235 0.0
H742 H 0.42985 0.15459 0.53873 0.0
H743 H 0.42122 0.16899 0.58979 0.0
H744 H 0.4583 0.13701 0.66867 0.0
C745 C 0.41474 0.16433 0.76299 0.0
C746 C 0.40318 0.16982 0.67965 0.0
C747 C 0.40864 0.17347 0.79158 0.0
C748 C 0.43405 0.14452 0.55862 0.0
C749 C 0.42905 0.15276 0.58801 0.0
C750 C 0.44268 0.14585 0.67137 0.0
C751 C 0.41186 0.17657 0.73558 0.0
C752 C 0.41749 0.16673 0.70493 0.0
C753 C 0.43435 0.14043 0.61464 0.0
C754 C 0.42846 0.14916 0.64596 0.0
H755 H 0.39068 0.22427 0.76647 0.0
H756 H 0.40111 0.20837 0.71702 0.0
H757 H 0.44873 0.15196 0.71939 0.0
H758 H 0.45832 0.09541 0.57949 0.0
H759 H 0.44928 0.1096 0.6308 0.0
C760 C 0.88215 0.81281 0.18461 0.0
C761 C 0.89657 0.81676 0.20955 0.0
C762 C 0.88869 0.81803 0.15442 0.0
C763 C 0.92868 0.85277 0.11032 0.0
H764 H 0.91736 0.81106 0.04387 0.0
C765 C 0.97165 0.86173 0.99242 0.0
C766 C 0.95894 0.85808 0.96567 0.0
C767 C 0.96318 0.85648 0.02153 0.0
C768 C 0.92041 0.82302 0.06208 0.0
H769 H 0.92895 0.82978 0.22232 0.0
H770 H 0.94037 0.83873 0.16986 0.0
H771 H 0.90387 0.80276 0.09582 0.0
H772 H 0.92737 0.8455 0.94876 0.0
H773 H 0.91253 0.83632 0.99975 0.0
H774 H 0.94527 0.87298 0.07678 0.0
C775 C 0.92398 0.83167 0.17354 0.0
C776 C 0.91267 0.81827 0.09188 0.0
C777 C 0.91752 0.82632 0.20362 0.0
C778 C 0.93765 0.84854 0.96881 0.0
C779 C 0.92916 0.84321 0.99806 0.0
C780 C 0.93639 0.85751 0.08061 0.0
C781 C 0.9097 0.82753 0.1485 0.0
C782 C 0.91692 0.83298 0.11645 0.0
C783 C 0.94173 0.84738 0.02482 0.0
C784 C 0.93259 0.8426 0.05615 0.0
H785 H 0.86597 0.8053 0.18837 0.0
H786 H 0.87721 0.81478 0.13572 0.0
H787 H 0.93187 0.8647 0.12853 0.0
H788 H 0.98818 0.86886 0.99101 0.0
H789 H 0.97353 0.85952 0.04152 0.0
C790 C 0.91142 0.17486 0.72696 0.0
C791 C 0.90877 0.19815 0.72553 0.0
C792 C 0.91803 0.16449 0.75452 0.0
C793 C 0.94458 0.17602 0.83034 0.0
H794 H 0.91201 0.12401 0.85836 0.0
C795 C 0.94775 0.14711 0.95696 0.0
C796 C 0.94806 0.12412 0.96346 0.0
C797 C 0.94425 0.15485 0.92693 0.0
C798 C 0.92152 0.13832 0.85074 0.0
H799 H 0.91164 0.2288 0.75192 0.0
H800 H 0.92313 0.21085 0.79945 0.0
H801 H 0.90441 0.13954 0.80737 0.0
H802 H 0.94497 0.09125 0.94305 0.0
H803 H 0.93887 0.10478 0.89058 0.0
H804 H 0.96156 0.175 0.87365 0.0
C805 C 0.92023 0.20052 0.77937 0.0
C806 C 0.91716 0.14723 0.82144 0.0
C807 C 0.9135 0.21082 0.75204 0.0
C808 C 0.9446 0.10907 0.93901 0.0
C809 C 0.94111 0.11684 0.90888 0.0
C810 C 0.94896 0.16711 0.85953 0.0
C811 C 0.92237 0.1772 0.78115 0.0
C812 C 0.92838 0.16642 0.81107 0.0
C813 C 0.94096 0.13986 0.90241 0.0
C814 C 0.93724 0.14836 0.87039 0.0
H815 H 0.90785 0.16458 0.70705 0.0
H816 H 0.91969 0.1465 0.75502 0.0
H817 H 0.95384 0.19056 0.82291 0.0
H818 H 0.94988 0.15923 0.97523 0.0
H819 H 0.94376 0.17269 0.92306 0.0
C820 C 0.58469 0.17366 0.70101 0.0
C821 C 0.60723 0.17606 0.70907 0.0
C822 C 0.57858 0.168 0.67093 0.0
C823 C 0.6005 0.14386 0.59791 0.0
H824 H 0.54721 0.17068 0.56363 0.0
C825 C 0.57319 0.13191 0.47014 0.0
C826 C 0.55047 0.12733 0.46547 0.0
C827 C 0.58098 0.13832 0.49929 0.0
C828 C 0.56206 0.16292 0.57292 0.0
H829 H 0.64106 0.17438 0.69171 0.0
H830 H 0.63042 0.16479 0.639 0.0
H831 H 0.55924 0.18094 0.61526 0.0
H832 H 0.51812 0.12612 0.48793 0.0
H833 H 0.53167 0.13725 0.53837 0.0
H834 H 0.60329 0.12596 0.55524 0.0
C835 C 0.61743 0.16692 0.6561 0.0
C836 C 0.56894 0.16875 0.60262 0.0
C837 C 0.62355 0.17245 0.68632 0.0
C838 C 0.53574 0.12944 0.49058 0.0
C839 C 0.54348 0.136 0.51955 0.0
C840 C 0.59367 0.13813 0.56806 0.0
C841 C 0.59484 0.16472 0.64795 0.0
C842 C 0.58811 0.15911 0.61572 0.0
C843 C 0.56619 0.14052 0.52431 0.0
C844 C 0.57422 0.14741 0.55536 0.0
H845 H 0.5717 0.17591 0.7181 0.0
H846 H 0.56105 0.16596 0.66581 0.0
H847 H 0.6152 0.13588 0.60729 0.0
H848 H 0.585 0.13042 0.45135 0.0
H849 H 0.59856 0.14183 0.50217 0.0
C850 C 0.56649 0.843 0.46478 0.0
C851 C 0.55793 0.86466 0.46861 0.0
C852 C 0.57113 0.8346 0.43538 0.0
C853 C 0.55954 0.84332 0.35188 0.0
H854 H 0.61163 0.80568 0.34209 0.0
C855 C 0.59241 0.81229 0.23249 0.0
C856 C 0.59952 0.78993 0.23108 0.0
C857 C 0.58675 0.82211 0.26083 0.0
C858 C 0.59691 0.816 0.34445 0.0
H859 H 0.54747 0.89445 0.4443 0.0
H860 H 0.55585 0.87992 0.39292 0.0
H861 H 0.60312 0.82157 0.39232 0.0
H862 H 0.60553 0.76029 0.2586 0.0
H863 H 0.59587 0.77733 0.30756 0.0
H864 H 0.55357 0.83779 0.3037 0.0
C865 C 0.55866 0.86926 0.41268 0.0
C866 C 0.59197 0.82511 0.37334 0.0
C867 C 0.55388 0.87763 0.44217 0.0
C868 C 0.60043 0.77759 0.25865 0.0
C869 C 0.59494 0.78741 0.28687 0.0
C870 C 0.56458 0.83428 0.32285 0.0
C871 C 0.56749 0.84765 0.40889 0.0
C872 C 0.57308 0.83869 0.37761 0.0
C873 C 0.58824 0.80984 0.28842 0.0
C874 C 0.5832 0.82031 0.31887 0.0
H875 H 0.56937 0.83236 0.48456 0.0
H876 H 0.57738 0.81771 0.43347 0.0
H877 H 0.54473 0.85349 0.35427 0.0
H878 H 0.59148 0.82233 0.21178 0.0
H879 H 0.58174 0.83947 0.26122 0.0
C880 C 0.62267 0.66403 0.34643 0.0
C881 C 0.61478 0.68315 0.33108 0.0
C882 C 0.61597 0.65932 0.37668 0.0
C883 C 0.56989 0.6707 0.43079 0.0
H884 H 0.60915 0.6438 0.49126 0.0
C885 C 0.53592 0.62624 0.53825 0.0
C886 C 0.54663 0.62957 0.56671 0.0
C887 C 0.54526 0.63417 0.51089 0.0
C888 C 0.59802 0.6515 0.47475 0.0
H889 H 0.59389 0.71249 0.33598 0.0
H890 H 0.58255 0.70448 0.38877 0.0
H891 H 0.62412 0.65568 0.44139 0.0
H892 H 0.57584 0.6438 0.58848 0.0
H893 H 0.59229 0.65766 0.54037 0.0
H894 H 0.54381 0.66654 0.46396 0.0
C895 C 0.59376 0.69299 0.3773 0.0
C896 C 0.60655 0.6581 0.44604 0.0
C897 C 0.60049 0.69772 0.3471 0.0
C898 C 0.56713 0.64093 0.567 0.0
C899 C 0.5766 0.64879 0.53943 0.0
C900 C 0.56138 0.66403 0.45935 0.0
C901 C 0.60115 0.67356 0.39235 0.0
C902 C 0.59253 0.6676 0.42359 0.0
C903 C 0.56566 0.64563 0.51107 0.0
C904 C 0.57525 0.65409 0.48157 0.0
H905 H 0.6339 0.65257 0.33496 0.0
H906 H 0.62188 0.64412 0.38743 0.0
H907 H 0.55853 0.67774 0.41402 0.0
H908 H 0.52014 0.61756 0.53696 0.0
H909 H 0.53654 0.63109 0.48947 0.0
C910 C 0.59569 0.31336 0.79612 0.0
C911 C 0.59525 0.29011 0.80037 0.0
C912 C 0.59066 0.32273 0.76724 0.0
C913 C 0.58869 0.30704 0.68418 0.0
H914 H 0.55764 0.36328 0.67423 0.0
C915 C 0.55917 0.33789 0.56488 0.0
C916 C 0.56187 0.36064 0.55776 0.0
C917 C 0.56291 0.32996 0.59479 0.0
C918 C 0.56653 0.34765 0.67662 0.0
H919 H 0.58791 0.25862 0.77794 0.0
H920 H 0.57866 0.27483 0.72834 0.0
H921 H 0.56404 0.34841 0.72596 0.0
H922 H 0.57079 0.39282 0.57699 0.0
H923 H 0.57716 0.37898 0.62919 0.0
H924 H 0.5911 0.30617 0.63497 0.0
C925 C 0.58356 0.2859 0.74685 0.0
C926 C 0.57022 0.33912 0.70632 0.0
C927 C 0.58871 0.27658 0.7755 0.0
C928 C 0.56826 0.37525 0.58159 0.0
C929 C 0.57192 0.36731 0.61158 0.0
C930 C 0.58493 0.31551 0.65458 0.0
C931 C 0.58497 0.30906 0.74201 0.0
C932 C 0.58122 0.31859 0.71052 0.0
C933 C 0.5694 0.34453 0.61856 0.0
C934 C 0.57369 0.33586 0.65033 0.0
H935 H 0.60077 0.32427 0.81471 0.0
H936 H 0.59204 0.34062 0.76443 0.0
H937 H 0.59772 0.29148 0.68636 0.0
H938 H 0.55381 0.32617 0.54742 0.0
H939 H 0.5604 0.31239 0.59939 0.0
C940 C 0.92874 0.34385 0.06529 0.0
C941 C 0.94651 0.35912 0.06572 0.0
C942 C 0.919 0.33742 0.03725 0.0
C943 C 0.91272 0.3555 0.956 0.0
H944 H 0.90154 0.29303 0.93907 0.0
C945 C 0.87303 0.32675 0.84143 0.0
C946 C 0.88308 0.30835 0.82683 0.0
C947 C 0.87849 0.33236 0.87183 0.0
C948 C 0.90459 0.31054 0.94343 0.0
H949 H 0.9677 0.37983 0.03688 0.0
H950 H 0.95083 0.36868 0.98852 0.0
H951 H 0.91532 0.30425 0.98979 0.0
H952 H 0.9067 0.28131 0.8332 0.0
H953 H 0.91607 0.291 0.88616 0.0
H954 H 0.90259 0.36182 0.90955 0.0
C955 C 0.94429 0.36173 1.00972 0.0
C956 C 0.91226 0.31699 0.97261 0.0
C957 C 0.95409 0.36799 0.03755 0.0
C958 C 0.89835 0.29539 0.84376 0.0
C959 C 0.90375 0.30096 0.87419 0.0
C960 C 0.90494 0.34909 0.92696 0.0
C961 C 0.92666 0.34633 1.00913 0.0
C962 C 0.91675 0.33953 0.97908 0.0
C963 C 0.8941 0.31968 0.8885 0.0
C964 C 0.90103 0.3265 0.92014 0.0
H965 H 0.92252 0.33668 0.08654 0.0
H966 H 0.90536 0.32561 0.03759 0.0
H967 H 0.91577 0.37303 0.96031 0.0
H968 H 0.8609 0.33688 0.82937 0.0
H969 H 0.87047 0.34667 0.88229 0.0
C970 C 0.90573 0.71708 0.26998 0.0
C971 C 0.90517 0.70368 0.29665 0.0
C972 C 0.91084 0.70793 0.24124 0.0
C973 C 0.93776 0.66106 0.20125 0.0
H974 H 0.8989 0.67855 0.1341 0.0
C975 C 0.94666 0.62439 0.07737 0.0
C976 C 0.94261 0.63887 0.05246 0.0
C977 C 0.94216 0.63108 0.10775 0.0
C978 C 0.91015 0.67368 0.1524 0.0
H979 H 0.91047 0.67013 0.31383 0.0
H980 H 0.91974 0.65414 0.26328 0.0
H981 H 0.89163 0.69227 0.18588 0.0
H982 H 0.93129 0.67202 0.0402 0.0
H983 H 0.92383 0.68383 0.09284 0.0
H984 H 0.9566 0.64285 0.16757 0.0
C985 C 0.91605 0.67179 0.2649 0.0
C986 C 0.9059 0.68151 0.18219 0.0
C987 C 0.91071 0.68094 0.29384 0.0
C988 C 0.9342 0.66028 0.05874 0.0
C989 C 0.92987 0.66703 0.08904 0.0
C990 C 0.94216 0.65336 0.17127 0.0
C991 C 0.91572 0.68513 0.23818 0.0
C992 C 0.91978 0.67554 0.20694 0.0
C993 C 0.93362 0.6525 0.11403 0.0
C994 C 0.92855 0.65978 0.14633 0.0
H995 H 0.90175 0.73469 0.27106 0.0
H996 H 0.91085 0.71877 0.22126 0.0
H997 H 0.94883 0.65625 0.21979 0.0
H998 H 0.95295 0.6077 0.07335 0.0
H999 H 0.94502 0.6193 0.12624 0.0
C1000 C 0.46441 0.35466 0.48898 0.0
C1001 C 0.45328 0.35227 0.46064 0.0
C1002 C 0.4551 0.34646 0.51624 0.0
C1003 C 0.40189 0.33087 0.55255 0.0
H1004 H 0.44032 0.30232 0.61258 0.0
C1005 C 0.37693 0.31863 0.68066 0.0
C1006 C 0.38356 0.29888 0.69561 0.0
C1007 C 0.38401 0.32328 0.65056 0.0
C1008 C 0.42927 0.31003 0.59599 0.0
H1009 H 0.42347 0.33929 0.43895 0.0
H1010 H 0.40708 0.32501 0.48684 0.0
H1011 H 0.45542 0.31338 0.5627 0.0
H1012 H 0.40263 0.26838 0.69021 0.0
H1013 H 0.41478 0.2764 0.63765 0.0
H1014 H 0.37575 0.3276 0.58601 0.0
C1015 C 0.42307 0.33333 0.48779 0.0
C1016 C 0.438 0.31659 0.56747 0.0
C1017 C 0.43251 0.34142 0.46033 0.0
C1018 C 0.39706 0.28367 0.67938 0.0
C1019 C 0.40423 0.28838 0.64933 0.0
C1020 C 0.39317 0.32442 0.5812 0.0
C1021 C 0.43432 0.3357 0.51607 0.0
C1022 C 0.4245 0.32734 0.54551 0.0
C1023 C 0.39799 0.30836 0.63463 0.0
C1024 C 0.40681 0.3141 0.60341 0.0
H1025 H 0.48045 0.36289 0.49023 0.0
H1026 H 0.46409 0.34888 0.53761 0.0
H1027 H 0.39106 0.33921 0.53625 0.0
H1028 H 0.36635 0.3306 0.69231 0.0
H1029 H 0.37902 0.33891 0.6401 0.0
C1030 C 0.41988 0.62402 0.45346 0.0
C1031 C 0.44066 0.62641 0.4681 0.0
C1032 C 0.41646 0.63218 0.42353 0.0
C1033 C 0.43943 0.67271 0.36689 0.0
H1034 H 0.40218 0.6407 0.30894 0.0
C1035 C 0.40747 0.71349 0.25481 0.0
C1036 C 0.40568 0.70048 0.22791 0.0
C1037 C 0.41299 0.70377 0.28309 0.0
C1038 C 0.41284 0.64976 0.32468 0.0
H1039 H 0.47409 0.63957 0.46239 0.0
H1040 H 0.46831 0.65322 0.4102 0.0
H1041 H 0.40936 0.62483 0.35979 0.0
H1042 H 0.40873 0.6669 0.20986 0.0
H1043 H 0.41866 0.64991 0.2593 0.0
H1044 H 0.44319 0.69748 0.33174 0.0
C1045 C 0.45452 0.64525 0.42195 0.0
C1046 C 0.41671 0.64078 0.35406 0.0
C1047 C 0.45793 0.63713 0.45185 0.0
C1048 C 0.40997 0.67745 0.23004 0.0
C1049 C 0.41549 0.66768 0.25847 0.0
C1050 C 0.43556 0.68167 0.33757 0.0
C1051 C 0.43372 0.64298 0.40735 0.0
C1052 C 0.42996 0.6522 0.37568 0.0
C1053 C 0.41694 0.68071 0.28544 0.0
C1054 C 0.42205 0.67044 0.3161 0.0
H1055 H 0.40624 0.61568 0.46504 0.0
H1056 H 0.40014 0.63031 0.41327 0.0
H1057 H 0.44953 0.68215 0.3829 0.0
H1058 H 0.40424 0.73126 0.25426 0.0
H1059 H 0.41359 0.71434 0.30331 0.0
C1060 C 0.13468 0.68481 0.16912 0.0
C1061 C 0.11928 0.68287 0.19349 0.0
C1062 C 0.12919 0.67749 0.13934 0.0
C1063 C 0.09199 0.63839 0.09897 0.0
H1064 H 0.10196 0.675 0.02656 0.0
C1065 C 0.04718 0.62017 0.9855 0.0
C1066 C 0.05787 0.62379 0.95703 0.0
C1067 C 0.05709 0.62661 0.01313 0.0
C1068 C 0.09942 0.66438 0.04644 0.0
H1069 H 0.08612 0.67155 0.2056 0.0
H1070 H 0.07663 0.65875 0.15392 0.0
H1071 H 0.11459 0.68803 0.07713 0.0
H1072 H 0.08772 0.63697 0.93561 0.0
H1073 H 0.10537 0.64804 0.98435 0.0
H1074 H 0.07694 0.61471 0.06871 0.0
C1075 C 0.09293 0.66594 0.15777 0.0
C1076 C 0.10659 0.67189 0.07545 0.0
C1077 C 0.0983 0.67349 0.18735 0.0
C1078 C 0.07903 0.63386 0.95708 0.0
C1079 C 0.08906 0.64035 0.98501 0.0
C1080 C 0.08503 0.63081 0.07009 0.0
C1081 C 0.10832 0.66775 0.1334 0.0
C1082 C 0.10249 0.65919 0.10214 0.0
C1083 C 0.07816 0.63679 0.01343 0.0
C1084 C 0.08811 0.64391 0.04348 0.0
H1085 H 0.15093 0.69209 0.17304 0.0
H1086 H 0.14143 0.67906 0.1211 0.0
H1087 H 0.08902 0.62796 0.11896 0.0
H1088 H 0.03085 0.61253 0.98663 0.0
H1089 H 0.04789 0.624 0.03431 0.0
C1090 C 0.09406 0.30564 0.73688 0.0
C1091 C 0.10401 0.28448 0.734 0.0
C1092 C 0.08865 0.3143 0.76598 0.0
C1093 C 0.10303 0.30908 0.84862 0.0
H1094 H 0.04695 0.33967 0.86213 0.0
C1095 C 0.074 0.33528 0.97083 0.0
C1096 C 0.06222 0.35544 0.97409 0.0
C1097 C 0.07906 0.32677 0.94156 0.0
C1098 C 0.06284 0.33147 0.85874 0.0
H1099 H 0.11579 0.25579 0.75982 0.0
H1100 H 0.10644 0.27088 0.8103 0.0
H1101 H 0.05567 0.32475 0.81123 0.0
H1102 H 0.04698 0.38268 0.9489 0.0
H1103 H 0.05609 0.36811 0.89796 0.0
H1104 H 0.1104 0.31599 0.89591 0.0
C1105 C 0.10299 0.28088 0.79007 0.0
C1106 C 0.06781 0.32285 0.82948 0.0
C1107 C 0.10824 0.27217 0.76101 0.0
C1108 C 0.05581 0.36695 0.94727 0.0
C1109 C 0.06099 0.35853 0.91799 0.0
C1110 C 0.09814 0.31782 0.87781 0.0
C1111 C 0.0932 0.3021 0.79298 0.0
C1112 C 0.08794 0.31148 0.82406 0.0
C1113 C 0.07262 0.33825 0.91467 0.0
C1114 C 0.07794 0.3291 0.88336 0.0
H1115 H 0.09055 0.31564 0.71666 0.0
H1116 H 0.0813 0.33077 0.76736 0.0
H1117 H 0.11885 0.30073 0.84517 0.0
H1118 H 0.07891 0.32579 0.99096 0.0
H1119 H 0.08767 0.31094 0.94007 0.0
C1120 C 0.00512 0.30087 0.15914 0.0
C1121 C 0.99071 0.31783 0.16895 0.0
C1122 C 0.00988 0.28304 0.17865 0.0
C1123 C 0.98556 0.24796 0.2336 0.0
H1124 H 0.04576 0.22465 0.23753 0.0
C1125 C -0.00631 0.15908 0.21256 0.0
C1126 C 0.00712 0.15678 0.18628 0.0
C1127 C -0.00292 0.17684 0.23275 0.0
C1128 C 0.02885 0.23095 0.23721 0.0
H1129 H 0.96964 0.32947 0.20626 0.0
H1130 H 0.97698 0.29736 0.23977 0.0
H1131 H 0.03973 0.26414 0.22687 0.0
H1132 H 0.03641 0.1688 0.16252 0.0
H1133 H 0.04146 0.20068 0.19596 0.0
H1134 H 0.97434 0.21476 0.23961 0.0
C1135 C 0.98503 0.2983 0.21744 0.0
C1136 C 0.02544 0.25356 0.23123 0.0
C1137 C 0.98058 0.31636 0.19812 0.0
C1138 C 0.02552 0.17074 0.18228 0.0
C1139 C 0.02858 0.18882 0.20195 0.0
C1140 C 0.98894 0.22532 0.23891 0.0
C1141 C 7e-05 0.28176 0.20804 0.0
C1142 C 0.00376 0.26167 0.22677 0.0
C1143 C 0.01336 0.19301 0.22612 0.0
C1144 C 0.0106 0.21624 0.23745 0.0
H1145 H 0.01333 0.30174 0.13692 0.0
H1146 H 0.02103 0.27006 0.17059 0.0
H1147 H 0.96867 0.25401 0.23071 0.0
H1148 H 0.97991 0.1478 0.21673 0.0
H1149 H 0.98563 0.17902 0.25183 0.0
C1150 C 0.93153 0.7338 0.45029 0.0
C1151 C 0.93367 0.74593 0.42267 0.0
C1152 C 0.94707 0.73645 0.47395 0.0
C1153 C -0.00515 0.77151 0.49837 0.0
H1154 H 0.02735 0.71597 0.49279 0.0
C1155 C 0.06425 0.76544 0.42358 0.0
C1156 C 0.07749 0.74633 0.42167 0.0
C1157 C 0.05055 0.76877 0.44913 0.0
C1158 C 0.01874 0.73167 0.49603 0.0
H1159 H 0.95308 0.77082 0.39842 0.0
H1160 H 0.98036 0.77521 0.43927 0.0
H1161 H 0.98738 0.71546 0.49106 0.0
H1162 H 0.08912 0.71704 0.44626 0.0
H1163 H 0.06561 0.7231 0.49129 0.0
H1164 H 0.02645 0.78785 0.49998 0.0
C1165 C 0.9665 0.76397 0.44304 0.0
C1166 C -0.00444 0.73131 0.49504 0.0
C1167 C 0.95122 0.76108 0.4193 0.0
C1168 C 0.07847 0.73163 0.44685 0.0
C1169 C 0.0652 0.73522 0.47279 0.0
C1170 C 0.01808 0.77185 0.49978 0.0
C1171 C 0.9647 0.75158 0.47051 0.0
C1172 C 0.98386 0.7514 0.49176 0.0
C1173 C 0.05005 0.7531 0.47345 0.0
C1174 C 0.03006 0.75217 0.49366 0.0
H1175 H 0.91794 0.72215 0.45348 0.0
H1176 H 0.94563 0.72636 0.49458 0.0
H1177 H 0.98596 0.78722 0.49721 0.0
H1178 H 0.06353 0.77715 0.40459 0.0
H1179 H 0.03906 0.78268 0.44839 0.0
C1180 C 0.51102 0.66867 0.69875 0.0
C1181 C 0.50156 0.66743 0.66918 0.0
C1182 C 0.50694 0.68705 0.71762 0.0
C1183 C 0.46854 0.73377 0.72933 0.0
H1184 H 0.52123 0.77039 0.73779 0.0
C1185 C 0.4725 0.81671 0.67992 0.0
C1186 C 0.49092 0.83043 0.68502 0.0
C1187 C 0.46878 0.7984 0.69896 0.0
C1188 C 0.5062 0.76045 0.73707 0.0
H1189 H 0.48036 0.68417 0.63606 0.0
H1190 H 0.47323 0.71641 0.66902 0.0
H1191 H 0.52525 0.73079 0.72986 0.0
H1192 H 0.51777 0.83844 0.71647 0.0
H1193 H 0.511 0.80667 0.75036 0.0
H1194 H 0.44948 0.76363 0.7346 0.0
C1195 C 0.48361 0.70302 0.67769 0.0
C1196 C 0.50861 0.73761 0.73232 0.0
C1197 C 0.48803 0.68485 0.65862 0.0
C1198 C 0.50393 0.82741 0.71152 0.0
C1199 C 0.49993 0.80936 0.73102 0.0
C1200 C 0.46609 0.75656 0.73476 0.0
C1201 C 0.49289 0.70416 0.70738 0.0
C1202 C 0.4899 0.72464 0.72552 0.0
C1203 C 0.48336 0.7937 0.72361 0.0
C1204 C 0.48497 0.77043 0.73511 0.0
H1205 H 0.52121 0.65518 0.70748 0.0
H1206 H 0.51456 0.68785 0.74022 0.0
H1207 H 0.45386 0.72378 0.72491 0.0
H1208 H 0.46197 0.81914 0.65992 0.0
H1209 H 0.45581 0.78685 0.69229 0.0
C1210 C 0.55062 0.22916 0.92046 0.0
C1211 C 0.56778 0.24465 0.92465 0.0
C1212 C 0.53548 0.22506 0.94407 0.0
C1213 C 0.50521 0.25468 0.99786 0.0
H1214 H 0.47723 0.19653 1.00068 0.0
C1215 C 0.42181 0.25163 0.95208 0.0
C1216 C 0.42312 0.23769 0.92611 0.0
C1217 C 0.43548 0.24786 0.9775 0.0
C1218 C 0.48478 0.21294 1.00104 0.0
H1219 H 0.58291 0.26786 0.95675 0.0
H1220 H 0.55528 0.26161 0.9977 0.0
H1221 H 0.51762 0.1993 0.99738 0.0
H1222 H 0.43783 0.20775 0.90729 0.0
H1223 H 0.46298 0.202 0.95024 0.0
H1224 H 0.47268 0.26843 0.99676 0.0
C1225 C 0.55413 0.25216 0.97649 0.0
C1226 C 0.50795 0.2145 0.99938 0.0
C1227 C 0.56961 0.25597 0.95294 0.0
C1228 C 0.43691 0.21893 0.92687 0.0
C1229 C 0.45101 0.21545 0.95193 0.0
C1230 C 0.48207 0.25311 0.99914 0.0
C1231 C 0.53697 0.23659 0.97224 0.0
C1232 C 0.5179 0.2353 0.99363 0.0
C1233 C 0.45136 0.23063 0.97684 0.0
C1234 C 0.47175 0.23212 0.99615 0.0
H1235 H 0.54898 0.22003 0.89904 0.0
H1236 H 0.52196 0.21353 0.93971 0.0
H1237 H 0.51257 0.271 0.99447 0.0
H1238 H 0.41074 0.2659 0.95238 0.0
H1239 H 0.43488 0.25952 0.99655 0.0
C1240 C 0.99107 0.81539 0.84094 0.0
C1241 C 0.00679 0.83251 0.83864 0.0
C1242 C 0.99288 0.79677 0.82181 0.0
C1243 C 0.04017 0.76683 0.79659 0.0
H1244 H -0.00482 0.72139 0.78474 0.0
C1245 C 0.0249 0.66734 0.81767 0.0
C1246 C 0.02719 0.66809 0.84994 0.0
C1247 C 0.02702 0.68671 0.80019 0.0
C1248 C 0.00811 0.73388 0.78694 0.0
H1249 H 0.03422 0.84578 0.81164 0.0
H1250 H 0.03735 0.81326 0.77829 0.0
H1251 H 0.98536 0.76058 0.77772 0.0
H1252 H 0.03497 0.68894 0.88912 0.0
H1253 H 0.03911 0.72296 0.85844 0.0
H1254 H 0.06215 0.74029 0.80937 0.0
C1255 C 0.02402 0.81386 0.79514 0.0
C1256 C 0.00246 0.75627 0.78303 0.0
C1257 C 0.02237 0.8323 0.81446 0.0
C1258 C 0.03312 0.68807 0.86431 0.0
C1259 C 0.03568 0.70737 0.84674 0.0
C1260 C 0.04571 0.74451 0.80084 0.0
C1261 C 0.01037 0.79525 0.80017 0.0
C1262 C 0.01799 0.77295 0.79027 0.0
C1263 C 0.03193 0.70691 0.81473 0.0
C1264 C 0.02925 0.72812 0.79826 0.0
H1265 H 0.97868 0.81551 0.85912 0.0
H1266 H 0.9821 0.78267 0.82631 0.0
H1267 H 0.05259 0.77925 0.8023 0.0
H1268 H 0.02009 0.65208 0.80609 0.0
H1269 H 0.02383 0.68612 0.77562 0.0
C1270 C 0.57841 0.73331 0.06983 0.0
C1271 C 0.57733 0.74747 0.09557 0.0
C1272 C 0.56546 0.73764 0.04384 0.0
C1273 C 0.5171 0.77412 0.02037 0.0
H1274 H 0.48826 0.71669 0.02844 0.0
C1275 C 0.45266 0.7593 0.10438 0.0
C1276 C 0.43518 0.74409 0.10094 0.0
C1277 C 0.46741 0.76309 0.08017 0.0
C1278 C 0.49587 0.73286 0.02475 0.0
H1279 H 0.56415 0.77848 0.11322 0.0
H1280 H 0.5404 0.7854 0.06931 0.0
H1281 H 0.52804 0.71837 0.02375 0.0
H1282 H 0.41907 0.72103 0.06953 0.0
H1283 H 0.44592 0.72675 0.02752 0.0
H1284 H 0.48471 0.78848 0.02615 0.0
C1285 C 0.55152 0.77121 0.06819 0.0
C1286 C 0.51897 0.73392 0.02204 0.0
C1287 C 0.56486 0.76711 0.09384 0.0
C1288 C 0.43263 0.7327 0.07279 0.0
C1289 C 0.44767 0.73622 0.04864 0.0
C1290 C 0.49397 0.77307 0.02357 0.0
C1291 C 0.55045 0.75567 0.04374 0.0
C1292 C 0.52985 0.75467 0.02469 0.0
C1293 C 0.46516 0.75153 0.05211 0.0
C1294 C 0.48375 0.75249 0.02986 0.0
H1295 H 0.58859 0.71839 0.07022 0.0
H1296 H 0.56572 0.72575 0.02505 0.0
H1297 H 0.52499 0.79036 0.02019 0.0
H1298 H 0.45485 0.76848 0.12567 0.0
H1299 H 0.48119 0.77442 0.08392 0.0
C1300 C 0.53161 0.17172 0.3438 0.0
C1301 C 0.51299 0.15822 0.33904 0.0
C1302 C 0.53567 0.18966 0.32421 0.0
C1303 C 0.49848 0.22729 0.28486 0.0
H1304 H 0.55034 0.26415 0.29946 0.0
C1305 C 0.49119 0.31761 0.32676 0.0
C1306 C 0.50047 0.31856 0.35646 0.0
C1307 C 0.49614 0.29991 0.30708 0.0
C1308 C 0.5358 0.25412 0.29437 0.0
H1309 H 0.4862 0.15003 0.30757 0.0
H1310 H 0.49362 0.18103 0.27266 0.0
H1311 H 0.55515 0.22446 0.28899 0.0
H1312 H 0.52237 0.30204 0.38891 0.0
H1313 H 0.53093 0.27088 0.35461 0.0
H1314 H 0.4791 0.2567 0.29209 0.0
C1315 C 0.50454 0.17857 0.29222 0.0
C1316 C 0.53849 0.23141 0.2885 0.0
C1317 C 0.50016 0.16094 0.3123 0.0
C1318 C 0.51481 0.30155 0.36627 0.0
C1319 C 0.52005 0.28403 0.34642 0.0
C1320 C 0.49583 0.25004 0.29002 0.0
C1321 C 0.52122 0.1942 0.29934 0.0
C1322 C 0.51971 0.2174 0.28748 0.0
C1323 C 0.51083 0.28314 0.31666 0.0
C1324 C 0.51433 0.26304 0.29785 0.0
H1325 H 0.54201 0.1695 0.36397 0.0
H1326 H 0.54877 0.20111 0.33068 0.0
H1327 H 0.48351 0.2173 0.28345 0.0
H1328 H 0.48043 0.33083 0.31857 0.0
H1329 H 0.48857 0.29932 0.28444 0.0
C1330 C 0.06397 0.26441 0.60142 0.0
C1331 C 0.07682 0.24498 0.60125 0.0
C1332 C 0.05016 0.26932 0.57653 0.0
C1333 C 0.01683 0.23523 0.52743 0.0
H1334 H 0.98545 0.29153 0.53126 0.0
C1335 C 0.92952 0.2377 0.57356 0.0
C1336 C 0.93245 0.24773 0.60258 0.0
C1337 C 0.94502 0.24121 0.54997 0.0
C1338 C -0.00605 0.27569 0.52864 0.0
H1339 H 0.08762 0.21677 0.57366 0.0
H1340 H 0.0636 0.22539 0.53002 0.0
H1341 H 0.02595 0.29128 0.52819 0.0
H1342 H 0.95309 0.27013 0.62933 0.0
H1343 H 0.9801 0.27623 0.58849 0.0
H1344 H 0.98504 0.21964 0.5312 0.0
C1345 C 0.0637 0.23662 0.54956 0.0
C1346 C 0.01718 0.27551 0.52711 0.0
C1347 C 0.07724 0.23154 0.57472 0.0
C1348 C 0.95058 0.26197 0.60733 0.0
C1349 C 0.96576 0.26585 0.58367 0.0
C1350 C -0.00637 0.23541 0.5285 0.0
C1351 C 0.04897 0.25483 0.55093 0.0
C1352 C 0.02869 0.2553 0.53132 0.0
C1353 C 0.96331 0.2553 0.55489 0.0
C1354 C 0.98243 0.25561 0.53349 0.0
H1355 H 0.06362 0.27513 0.62151 0.0
H1356 H 0.03901 0.28342 0.57884 0.0
H1357 H 0.02505 0.21921 0.52927 0.0
H1358 H 0.91538 0.22694 0.56925 0.0
H1359 H 0.94306 0.23254 0.52824 0.0
C1360 C 0.03811 0.04659 0.08256 0.0
C1361 C 0.02478 0.05044 0.10861 0.0
C1362 C 0.03066 0.03254 0.0591 0.0
C1363 C 0.99175 0.98705 0.04206 0.0
H1364 H -0.00235 0.00774 0.95771 0.0
C1365 C 0.95513 0.93753 0.94046 0.0
C1366 C 0.96928 0.93486 0.91495 0.0
C1367 C 0.9604 0.95286 0.96357 0.0
C1368 C -0.00396 0.00165 0.98112 0.0
H1369 H -0.00628 0.04216 0.13135 0.0
H1370 H 0.98071 0.01739 0.09037 0.0
H1371 H 0.01064 0.03121 0.99993 0.0
H1372 H -0.00072 0.94673 0.89256 0.0
H1373 H 0.00868 0.97331 0.93301 0.0
H1374 H 0.97751 0.95733 0.0233 0.0
C1375 C -0.00314 0.02525 0.08804 0.0
C1376 C 0.0035 0.01507 1.00526 0.0
C1377 C 0.00426 0.03943 0.11141 0.0
C1378 C 0.98817 0.94846 0.91213 0.0
C1379 C -0.00654 0.96374 0.93521 0.0
C1380 C 0.98438 0.97357 0.01791 0.0
C1381 C 0.00985 0.02195 0.06145 0.0
C1382 C 0.00156 0.00783 0.03595 0.0
C1383 C 0.97986 0.96582 0.96147 0.0
C1384 C 0.98657 0.98067 0.98715 0.0
H1385 H 0.05399 0.05493 0.07987 0.0
H1386 H 0.04114 0.03003 0.03905 0.0
H1387 H 0.99024 0.98098 0.06549 0.0
H1388 H 0.94041 0.92726 0.9431 0.0
H1389 H 0.9494 0.95434 0.98327 0.0
C1390 C 0.18672 0.78652 0.31912 0.0
C1391 C 0.18068 0.77168 0.34269 0.0
C1392 C 0.20375 0.78096 0.29851 0.0
C1393 C 0.25279 0.74458 0.29047 0.0
H1394 H 0.24615 0.75673 0.20312 0.0
C1395 C 0.30037 0.72216 0.16925 0.0
C1396 C 0.32233 0.72653 0.17846 0.0
C1397 C 0.28254 0.72786 0.18852 0.0
C1398 C 0.24814 0.75309 0.22741 0.0
H1399 H 0.18778 0.73971 0.36379 0.0
H1400 H 0.21736 0.72986 0.32768 0.0
H1401 H 0.2159 0.76612 0.23863 0.0
H1402 H 0.34298 0.74043 0.21465 0.0
H1403 H 0.31203 0.75072 0.24786 0.0
H1404 H 0.2848 0.73123 0.27934 0.0
C1405 C 0.20911 0.74583 0.32515 0.0
C1406 C 0.23096 0.75869 0.24777 0.0
C1407 C 0.19213 0.7514 0.34572 0.0
C1408 C 0.3262 0.7369 0.20694 0.0
C1409 C 0.30848 0.74262 0.2261 0.0
C1410 C 0.26992 0.73901 0.27018 0.0
C1411 C 0.21506 0.76051 0.30126 0.0
C1412 C 0.23315 0.75454 0.27952 0.0
C1413 C 0.28647 0.73796 0.21728 0.0
C1414 C 0.26785 0.74332 0.23847 0.0
H1415 H 0.17812 0.80228 0.31635 0.0
H1416 H 0.20818 0.79273 0.28059 0.0
H1417 H 0.25505 0.74135 0.31483 0.0
H1418 H 0.297 0.71416 0.14736 0.0
H1419 H 0.26575 0.72394 0.18124 0.0
C1420 C 0.54573 0.04625 0.4393 0.0
C1421 C 0.53168 0.05122 0.4144 0.0
C1422 C 0.53876 0.03157 0.46233 0.0
C1423 C 0.48776 0.00934 0.49747 0.0
H1424 H 0.52788 0.96637 0.53469 0.0
C1425 C 0.45858 0.94205 0.5836 0.0
C1426 C 0.47253 0.93747 0.60874 0.0
C1427 C 0.46562 0.9564 0.56021 0.0
C1428 C 0.51658 0.97848 0.52476 0.0
H1429 H 0.49993 0.04399 0.393 0.0
H1430 H 0.48772 0.01816 0.43322 0.0
H1431 H 0.54087 0.9894 0.49191 0.0
H1432 H 0.50423 0.94495 0.63012 0.0
H1433 H 0.51659 0.97019 0.58923 0.0
H1434 H 0.46347 -0.00157 0.53032 0.0
C1435 C 0.50393 0.02593 0.43527 0.0
C1436 C 0.52399 0.99161 0.50024 0.0
C1437 C 0.51094 0.04059 0.4122 0.0
C1438 C 0.49329 0.94808 0.61074 0.0
C1439 C 0.50038 0.96239 0.58731 0.0
C1440 C 0.48035 -0.0038 0.52198 0.0
C1441 C 0.51764 0.02154 0.46082 0.0
C1442 C 0.50966 0.00718 0.48634 0.0
C1443 C 0.48674 0.96645 0.5616 0.0
C1444 C 0.49469 0.98066 0.53591 0.0
H1445 H 0.56181 0.05428 0.44155 0.0
H1446 H 0.54962 0.02867 0.48185 0.0
H1447 H 0.47646 0.02147 0.48759 0.0
H1448 H 0.4425 0.93401 0.58147 0.0
H1449 H 0.45482 0.95906 0.54057 0.0
C1450 C 0.31416 0.20069 0.81842 0.0
C1451 C 0.32066 0.21509 0.84223 0.0
C1452 C 0.29697 0.20679 0.79844 0.0
C1453 C 0.2486 0.24438 0.7918 0.0
H1454 H 0.25611 0.2349 0.70395 0.0
C1455 C 0.1881 0.28154 0.7027 0.0
C1456 C 0.18119 0.26717 0.67908 0.0
C1457 C 0.20555 0.27537 0.72218 0.0
C1458 C 0.2537 0.23747 0.72845 0.0
H1459 H 0.31413 0.24678 0.86452 0.0
H1460 H 0.28429 0.25756 0.82949 0.0
H1461 H 0.28538 0.22312 0.73941 0.0
H1462 H 0.18734 0.23552 0.65648 0.0
H1463 H 0.21771 0.22463 0.69066 0.0
H1464 H 0.21695 0.25872 0.78087 0.0
C1465 C 0.2923 0.24153 0.82629 0.0
C1466 C 0.27042 0.23069 0.74873 0.0
C1467 C 0.30947 0.23544 0.84619 0.0
C1468 C 0.19233 0.24683 0.67467 0.0
C1469 C 0.20978 0.24068 0.69409 0.0
C1470 C 0.2319 0.25116 0.77152 0.0
C1471 C 0.28595 0.22733 0.8021 0.0
C1472 C 0.26805 0.23411 0.78061 0.0
C1473 C 0.21642 0.25478 0.71824 0.0
C1474 C 0.2343 0.2478 0.73965 0.0
H1475 H 0.32256 0.18489 0.81496 0.0
H1476 H 0.29224 0.19539 0.78022 0.0
H1477 H 0.24617 0.24694 0.81629 0.0
H1478 H 0.17977 0.29734 0.7065 0.0
H1479 H 0.21053 0.28671 0.74034 0.0
C1480 C 0.7021 0.26905 0.85669 0.0
C1481 C 0.68007 0.26553 0.84718 0.0
C1482 C 0.71982 0.2635 0.83714 0.0
C1483 C 0.73375 0.22875 0.76946 0.0
H1484 H 0.78323 0.26971 0.75997 0.0
C1485 C 0.80056 0.21828 0.6744 0.0
C1486 C 0.82267 0.22211 0.68332 0.0
C1487 C 0.78305 0.22351 0.69448 0.0
C1488 C 0.76963 0.25799 0.7626 0.0
H1489 H 0.65914 0.25382 0.8098 0.0
H1490 H 0.68991 0.24421 0.77583 0.0
H1491 H 0.7532 0.27866 0.79584 0.0
H1492 H 0.84396 0.234 0.72016 0.0
H1493 H 0.81357 0.24301 0.75509 0.0
H1494 H 0.75016 0.2081 0.7362 0.0
C1495 C 0.69362 0.25088 0.79845 0.0
C1496 C 0.75247 0.26311 0.78319 0.0
C1497 C 0.676 0.25646 0.81789 0.0
C1498 C 0.82703 0.23111 0.71257 0.0
C1499 C 0.80962 0.23635 0.73255 0.0
C1500 C 0.75091 0.22364 0.74888 0.0
C1501 C 0.71573 0.25431 0.80783 0.0
C1502 C 0.73432 0.24857 0.78677 0.0
C1503 C 0.78743 0.23265 0.72374 0.0
C1504 C 0.76902 0.23821 0.74522 0.0
H1505 H 0.70563 0.27602 0.87919 0.0
H1506 H 0.73671 0.26617 0.84506 0.0
H1507 H 0.72012 0.21707 0.77204 0.0
H1508 H 0.79681 0.21139 0.65193 0.0
H1509 H 0.7661 0.22066 0.68696 0.0
C1510 C 0.82325 0.73784 0.3203 0.0
C1511 C 0.8204 0.72663 0.34844 0.0
C1512 C 0.80484 0.74394 0.30269 0.0
C1513 C 0.74835 0.7281 0.28498 0.0
H1514 H 0.74254 0.78847 0.25383 0.0
C1515 C 0.67265 0.75494 0.21274 0.0
C1516 C 0.67651 0.76952 0.18818 0.0
C1517 C 0.68944 0.75044 0.23402 0.0
C1518 C 0.74405 0.77146 0.26198 0.0
H1519 H 0.79623 0.71251 0.38004 0.0
H1520 H 0.76382 0.72269 0.34858 0.0
H1521 H 0.77337 0.77906 0.28802 0.0
H1522 H 0.7004 0.79145 0.16648 0.0
H1523 H 0.73033 0.78302 0.20287 0.0
H1524 H 0.71969 0.72011 0.25808 0.0
C1525 C 0.78036 0.72702 0.34053 0.0
C1526 C 0.76161 0.76616 0.28171 0.0
C1527 C 0.79882 0.72124 0.35846 0.0
C1528 C 0.69723 0.77999 0.18529 0.0
C1529 C 0.71423 0.77527 0.20628 0.0
C1530 C 0.73097 0.7333 0.26488 0.0
C1531 C 0.78326 0.73852 0.3126 0.0
C1532 C 0.76395 0.74442 0.29322 0.0
C1533 C 0.71055 0.76038 0.23089 0.0
C1534 C 0.72867 0.75502 0.25298 0.0
H1535 H 0.83973 0.74175 0.31169 0.0
H1536 H 0.80749 0.75248 0.28098 0.0
H1537 H 0.75 0.71114 0.29331 0.0
H1538 H 0.65647 0.74749 0.2159 0.0
H1539 H 0.68575 0.7394 0.25311 0.0
C1540 C 0.50261 0.54157 0.61061 0.0
C1541 C 0.52326 0.55245 0.60914 0.0
C1542 C 0.49643 0.52651 0.58769 0.0
C1543 C 0.50768 0.5125 0.50691 0.0
H1544 H 0.47808 0.45689 0.52711 0.0
C1545 C 0.49273 0.44314 0.41771 0.0
C1546 C 0.47247 0.43156 0.41905 0.0
C1547 C 0.49826 0.4585 0.44056 0.0
C1548 C 0.48605 0.4725 0.5211 0.0
H1549 H 0.55397 0.55584 0.58329 0.0
H1550 H 0.54329 0.52923 0.5432 0.0
H1551 H 0.48987 0.48182 0.56841 0.0
H1552 H 0.4417 0.4273 0.44451 0.0
H1553 H 0.4512 0.45451 0.48445 0.0
H1554 H 0.50388 0.5032 0.45961 0.0
C1555 C 0.53175 0.53258 0.56185 0.0
C1556 C 0.49286 0.48673 0.54474 0.0
C1557 C 0.53794 0.54762 0.58487 0.0
C1558 C 0.45745 0.43604 0.44305 0.0
C1559 C 0.46298 0.45143 0.46599 0.0
C1560 C 0.50086 0.49829 0.48328 0.0
C1561 C 0.51083 0.52205 0.56289 0.0
C1562 C 0.5038 0.50683 0.53787 0.0
C1563 C 0.48355 0.46263 0.46512 0.0
C1564 C 0.49003 0.47811 0.49014 0.0
H1565 H 0.49105 0.54498 0.62924 0.0
H1566 H 0.48015 0.5188 0.58897 0.0
H1567 H 0.51573 0.52808 0.50092 0.0
H1568 H 0.50455 0.44001 0.3993 0.0
H1569 H 0.51432 0.46668 0.43942 0.0
C1570 C 0.00878 0.5589 0.94102 0.0
C1571 C 0.02309 0.5526 0.91706 0.0
C1572 C 0.00284 0.54369 0.96386 0.0
C1573 C -0.00233 0.48439 0.98069 0.0
H1574 H 0.00101 0.50359 0.066 0.0
C1575 C 0.95821 0.43561 0.08195 0.0
C1576 C 0.97194 0.43239 0.10771 0.0
C1577 C 0.96489 0.44985 0.0582 0.0
C1578 C 9e-05 0.49799 0.04229 0.0
H1579 H 0.04297 0.52574 0.89819 0.0
H1580 H 0.03229 0.49869 0.93813 0.0
H1581 H 0.01223 0.5291 0.02494 0.0
H1582 H 0.00312 0.44153 0.12933 0.0
H1583 H 0.01466 0.46679 0.08803 0.0
H1584 H 0.98535 0.4533 0.99816 0.0
C1585 C 0.02548 0.51541 0.93901 0.0
C1586 C 0.00636 0.5126 0.01884 0.0
C1587 C 0.03162 0.53082 0.91632 0.0
C1588 C 0.99225 0.44384 0.10967 0.0
C1589 C -0.00119 0.45827 0.08613 0.0
C1590 C 0.99115 0.46984 1.00418 0.0
C1591 C 0.01114 0.52181 0.9631 0.0
C1592 C 0.00513 0.50597 0.98784 0.0
C1593 C 0.98526 0.4613 0.06011 0.0
C1594 C 0.99228 0.47655 0.03517 0.0
H1595 H 0.00288 0.57579 0.94289 0.0
H1596 H 0.9918 0.54907 0.9822 0.0
H1597 H -0.00351 0.47895 0.95694 0.0
H1598 H 0.94254 0.42679 0.07986 0.0
H1599 H 0.95408 0.45206 0.03847 0.0
C1600 C 0.07695 0.15094 0.34549 0.0
C1601 C 0.09356 0.14637 0.32344 0.0
C1602 C 0.08254 0.15967 0.37441 0.0
C1603 C 0.1296 0.16644 0.42903 0.0
H1604 H 0.09356 0.21454 0.46204 0.0
C1605 C 0.13922 0.20254 0.55347 0.0
C1606 C 0.13675 0.22576 0.55663 0.0
C1607 C 0.13544 0.19217 0.52494 0.0
C1608 C 0.10389 0.2012 0.45308 0.0
H1609 H 0.12916 0.14778 0.31471 0.0
H1610 H 0.13885 0.16276 0.3651 0.0
H1611 H 0.08357 0.19767 0.41287 0.0
H1612 H 0.12983 0.25637 0.53168 0.0
H1613 H 0.12337 0.2384 0.48234 0.0
H1614 H 0.15007 0.17022 0.46923 0.0
C1615 C 0.12151 0.15929 0.36017 0.0
C1616 C 0.098 0.19135 0.42504 0.0
C1617 C 0.11592 0.15066 0.33123 0.0
C1618 C 0.13161 0.23843 0.53027 0.0
C1619 C 0.12776 0.22811 0.50194 0.0
C1620 C 0.13542 0.17622 0.45724 0.0
C1621 C 0.1049 0.16401 0.3821 0.0
C1622 C 0.11084 0.17393 0.41253 0.0
C1623 C 0.12904 0.20481 0.49906 0.0
C1624 C 0.12275 0.19387 0.46946 0.0
H1625 H 0.0596 0.14754 0.34057 0.0
H1626 H 0.06935 0.16284 0.39089 0.0
H1627 H 0.13973 0.15291 0.4202 0.0
H1628 H 0.14298 0.19224 0.57331 0.0
H1629 H 0.13654 0.17417 0.5235 0.0
C1630 C 0.08577 0.82944 0.58092 0.0
C1631 C 0.08802 0.84417 0.55583 0.0
C1632 C 0.07854 0.83719 0.60976 0.0
C1633 C 0.0479 0.88421 0.64617 0.0
H1634 H 0.07221 0.86016 0.72197 0.0
C1635 C 0.00436 0.89454 0.76378 0.0
C1636 C 0.01726 0.89668 0.79063 0.0
C1637 C 0.01442 0.89097 0.73515 0.0
C1638 C 0.06544 0.86729 0.70104 0.0
H1639 H 0.08404 0.87866 0.54166 0.0
H1640 H 0.07205 0.89216 0.59181 0.0
H1641 H 0.08713 0.84776 0.67244 0.0
H1642 H 0.05099 0.89759 0.80825 0.0
H1643 H 0.06872 0.89165 0.75795 0.0
H1644 H 0.02632 0.90381 0.67467 0.0
C1645 C 0.07566 0.87456 0.58922 0.0
C1646 C 0.07378 0.85993 0.67259 0.0
C1647 C 0.08284 0.86683 0.56044 0.0
C1648 C 0.04059 0.8963 0.78794 0.0
C1649 C 0.05072 0.89255 0.75919 0.0
C1650 C 0.03958 0.89154 0.67456 0.0
C1651 C 0.07331 0.85987 0.61428 0.0
C1652 C 0.06499 0.86814 0.64473 0.0
C1653 C 0.03772 0.88934 0.73253 0.0
C1654 C 0.04804 0.88302 0.7024 0.0
H1655 H 0.08977 0.81192 0.57837 0.0
H1656 H 0.0767 0.82532 0.6284 0.0
H1657 H 0.04053 0.89078 0.62529 0.0
H1658 H 0.98634 0.89473 0.76506 0.0
H1659 H 0.00381 0.88838 0.7153 0.0
C1660 C 0.36262 0.7862 0.05419 0.0
C1661 C 0.36089 0.76286 0.05664 0.0
C1662 C 0.36522 0.79636 0.02523 0.0
C1663 C 0.38815 0.78275 0.94899 0.0
H1664 H 0.36097 0.83799 0.92183 0.0
C1665 C 0.40162 0.8157 0.82549 0.0
C1666 C 0.40335 0.83884 0.82094 0.0
C1667 C 0.39539 0.80706 0.8542 0.0
C1668 C 0.36895 0.8227 0.9292 0.0
H1669 H 0.35866 0.73215 0.03033 0.0
H1670 H 0.36297 0.74982 0.98025 0.0
H1671 H 0.35073 0.82218 0.97188 0.0
H1672 H 0.40019 0.87104 0.84322 0.0
H1673 H 0.38982 0.85598 0.89352 0.0
H1674 H 0.40675 0.78333 0.90699 0.0
C1675 C 0.36282 0.76025 1.00063 0.0
C1676 C 0.36299 0.81361 0.95786 0.0
C1677 C 0.36017 0.75014 0.0294 0.0
C1678 C 0.39879 0.85313 0.84588 0.0
C1679 C 0.39274 0.84447 0.87472 0.0
C1680 C 0.39424 0.79188 0.92056 0.0
C1681 C 0.3662 0.78337 0.99823 0.0
C1682 C 0.37238 0.7934 0.96795 0.0
C1683 C 0.39094 0.82129 0.87931 0.0
C1684 C 0.38462 0.8119 0.91008 0.0
H1685 H 0.36337 0.79649 0.07467 0.0
H1686 H 0.36776 0.81423 0.02415 0.0
H1687 H 0.3961 0.76743 0.95636 0.0
H1688 H 0.40464 0.80425 0.80664 0.0
H1689 H 0.39376 0.78915 0.85652 0.0
C1690 C 0.5024 0.10589 0.2635 0.0
C1691 C 0.49041 0.09775 0.28904 0.0
C1692 C 0.4917 0.11063 0.23574 0.0
C1693 C 0.44172 0.10035 0.18902 0.0
H1694 H 0.45763 0.157 0.15175 0.0
C1695 C 0.41981 0.12362 0.06296 0.0
C1696 C 0.41292 0.14563 0.05673 0.0
C1697 C 0.4274 0.11755 0.09227 0.0
C1698 C 0.45282 0.14122 0.16195 0.0
H1699 H 0.45773 0.08728 0.30469 0.0
H1700 H 0.43899 0.09529 0.25569 0.0
H1701 H 0.47423 0.14614 0.20075 0.0
H1702 H 0.40831 0.17838 0.07707 0.0
H1703 H 0.42194 0.16785 0.12803 0.0
H1704 H 0.42037 0.09543 0.14998 0.0
C1705 C 0.45677 0.09805 0.25746 0.0
C1706 C 0.46252 0.13488 0.18989 0.0
C1707 C 0.46752 0.09341 0.2855 0.0
C1708 C 0.41379 0.16138 0.08076 0.0
C1709 C 0.42154 0.15532 0.11005 0.0
C1710 C 0.43213 0.10662 0.16085 0.0
C1711 C 0.46868 0.10729 0.23255 0.0
C1712 C 0.4573 0.11427 0.20361 0.0
C1713 C 0.4285 0.13334 0.11614 0.0
C1714 C 0.43771 0.12707 0.14686 0.0
H1715 H 0.52004 0.10941 0.26514 0.0
H1716 H 0.50146 0.11728 0.21683 0.0
H1717 H 0.43738 0.08436 0.19898 0.0
H1718 H 0.41983 0.1111 0.04498 0.0
H1719 H 0.43299 0.10058 0.09598 0.0
C1720 C 0.85732 0.75139 0.49539 0.0
C1721 C 0.85849 0.7639 0.46801 0.0
C1722 C 0.85974 0.76168 0.52408 0.0
C1723 C 0.88714 0.81021 0.55877 0.0
H1724 H 0.85638 0.79094 0.63274 0.0
C1725 C 0.90667 0.84714 0.67969 0.0
C1726 C 0.90677 0.83218 0.70468 0.0
C1727 C 0.89922 0.84033 0.65056 0.0
C1728 C 0.86529 0.79638 0.61236 0.0
H1729 H 0.86191 0.79732 0.4495 0.0
H1730 H 0.86598 0.81537 0.49976 0.0
H1731 H 0.84441 0.777 0.58264 0.0
H1732 H 0.89985 0.79806 0.71819 0.0
H1733 H 0.88709 0.78617 0.66757 0.0
H1734 H 0.90836 0.82917 0.58851 0.0
C1735 C 0.86339 0.7975 0.49891 0.0
C1736 C 0.85834 0.78844 0.5836 0.0
C1737 C 0.86076 0.78719 0.47012 0.0
C1738 C 0.89961 0.81015 0.69964 0.0
C1739 C 0.89222 0.80334 0.67057 0.0
C1740 C 0.89413 0.8181 0.58756 0.0
C1741 C 0.86355 0.78477 0.52618 0.0
C1742 C 0.86937 0.79501 0.55646 0.0
C1743 C 0.89172 0.81837 0.64567 0.0
C1744 C 0.88351 0.81103 0.6148 0.0
H1745 H 0.85564 0.7334 0.49461 0.0
H1746 H 0.85991 0.75131 0.54453 0.0
H1747 H 0.89624 0.81536 0.5384 0.0
H1748 H 0.91181 0.8643 0.68281 0.0
H1749 H 0.89889 0.85244 0.63204 0.0
C1750 C 0.91041 0.12437 0.45972 0.0
C1751 C 0.91223 0.14679 0.46905 0.0
C1752 C 0.91742 0.11767 0.4303 0.0
C1753 C 0.95529 0.13493 0.36743 0.0
H1754 H 0.9242 0.09 0.3197 0.0
C1755 C -0.00391 0.09646 0.26072 0.0
C1756 C 0.9831 0.09464 0.23389 0.0
C1757 C 0.98623 0.10096 0.2892 0.0
C1758 C 0.933 0.10265 0.33268 0.0
H1759 H 0.92203 0.17986 0.45403 0.0
H1760 H 0.93424 0.16822 0.40291 0.0
H1761 H 0.90869 0.10254 0.36901 0.0
H1762 H 0.94933 0.09508 0.21632 0.0
H1763 H 0.93197 0.10298 0.26636 0.0
H1764 H 0.97942 0.13536 0.33116 0.0
C1765 C 0.92778 0.1557 0.41854 0.0
C1766 C 0.92423 0.1097 0.36107 0.0
C1767 C 0.92078 0.16239 0.44791 0.0
C1768 C 0.95979 0.09617 0.23658 0.0
C1769 C 0.94986 0.10077 0.26525 0.0
C1770 C 0.96406 0.12786 0.33921 0.0
C1771 C 0.92646 0.13321 0.40945 0.0
C1772 C 0.93531 0.12591 0.37885 0.0
C1773 C 0.96307 0.10392 0.29173 0.0
C1774 C 0.95316 0.11151 0.32154 0.0
H1775 H 0.90416 0.11183 0.47546 0.0
H1776 H 0.91639 0.10018 0.42427 0.0
H1777 H 0.96445 0.14724 0.38055 0.0
H1778 H 0.01408 0.09521 0.25959 0.0
H1779 H -0.00313 0.10269 0.30919 0.0
C1780 C 0.64186 0.20301 0.97013 0.0
C1781 C 0.64342 0.22639 0.96865 0.0
C1782 C 0.64006 0.19215 0.99869 0.0
C1783 C 0.6463 0.2003 0.08359 0.0
H1784 H 0.59903 0.15644 0.08913 0.0
C1785 C 0.60815 0.17422 0.20037 0.0
C1786 C 0.60263 0.15165 0.20495 0.0
C1787 C 0.61473 0.18196 0.17132 0.0
C1788 C 0.61251 0.16841 0.08798 0.0
H1789 H 0.64579 0.25651 0.99616 0.0
H1790 H 0.64281 0.2377 0.04558 0.0
H1791 H 0.60934 0.17174 0.03901 0.0
H1792 H 0.59981 0.11956 0.18225 0.0
H1793 H 0.61121 0.13308 0.13155 0.0
H1794 H 0.64923 0.19726 0.13259 0.0
C1795 C 0.64296 0.22765 0.02484 0.0
C1796 C 0.61848 0.17716 0.05917 0.0
C1797 C 0.64462 0.23848 0.99639 0.0
C1798 C 0.60364 0.13709 0.17953 0.0
C1799 C 0.61022 0.14485 0.15043 0.0
C1800 C 0.64034 0.19156 0.11237 0.0
C1801 C 0.63999 0.20442 0.02639 0.0
C1802 C 0.63524 0.19346 0.05663 0.0
C1803 C 0.61599 0.16737 0.14596 0.0
C1804 C 0.62314 0.17574 0.11504 0.0
H1805 H 0.64075 0.19318 0.94924 0.0
H1806 H 0.63813 0.1742 0.99905 0.0
H1807 H 0.65951 0.21257 0.08248 0.0
H1808 H 0.60718 0.18601 0.21923 0.0
H1809 H 0.61856 0.1995 0.16866 0.0
C1810 C 0.49993 0.89053 0.76153 0.0
C1811 C 0.51329 0.89216 0.73499 0.0
C1812 C 0.50929 0.88523 0.79004 0.0
C1813 C 0.56231 0.88014 0.83371 0.0
H1814 H 0.528 0.83737 0.88116 0.0
C1815 C 0.5963 0.83736 0.94463 0.0
C1816 C 0.58141 0.83586 0.96963 0.0
C1817 C 0.58884 0.84424 0.91552 0.0
C1818 C 0.53772 0.84947 0.86839 0.0
H1819 H 0.54718 0.89048 0.7179 0.0
H1820 H 0.56364 0.88109 0.76789 0.0
H1821 H 0.51383 0.85059 0.83197 0.0
H1822 H 0.54689 0.83986 0.98334 0.0
H1823 H 0.53394 0.85195 0.93282 0.0
H1824 H 0.58629 0.87881 0.87031 0.0
C1825 C 0.54588 0.88413 0.76664 0.0
C1826 C 0.52956 0.85713 0.84015 0.0
C1827 C 0.53647 0.88961 0.73798 0.0
C1828 C 0.55884 0.84103 0.96468 0.0
C1829 C 0.55138 0.84777 0.93561 0.0
C1830 C 0.57053 0.87241 0.86203 0.0
C1831 C 0.53228 0.88119 0.79283 0.0
C1832 C 0.54157 0.87278 0.82257 0.0
C1833 C 0.56629 0.8496 0.91067 0.0
C1834 C 0.5582 0.85715 0.87987 0.0
H1835 H 0.48202 0.89252 0.76008 0.0
H1836 H 0.49836 0.88373 0.80982 0.0
H1837 H 0.57197 0.89225 0.82089 0.0
H1838 H 0.61382 0.83367 0.94771 0.0
H1839 H 0.60073 0.84525 0.89676 0.0
C1840 C 0.59319 0.6333 0.85422 0.0
C1841 C 0.59199 0.64704 0.82794 0.0
C1842 C 0.5999 0.642 0.88272 0.0
C1843 C 0.60435 0.69533 0.92515 0.0
H1844 H 0.64404 0.66254 0.97917 0.0
C1845 C 0.63912 0.73653 0.03393 0.0
C1846 C 0.63871 0.72397 0.06129 0.0
C1847 C 0.63575 0.72633 1.00539 0.0
C1848 C 0.6328 0.67183 0.96448 0.0
H1849 H 0.59764 0.68065 0.81112 0.0
H1850 H 0.60913 0.69577 0.86065 0.0
H1851 H 0.63287 0.64629 0.92983 0.0
H1852 H 0.63564 0.69055 0.07985 0.0
H1853 H 0.62968 0.67267 0.0299 0.0
H1854 H 0.60396 0.72073 0.95968 0.0
C1855 C 0.60451 0.67834 0.85937 0.0
C1856 C 0.62638 0.6625 0.93619 0.0
C1857 C 0.59786 0.66965 0.83092 0.0
C1858 C 0.63628 0.70069 0.05921 0.0
C1859 C 0.63277 0.69045 0.03054 0.0
C1860 C 0.61069 0.7046 0.95334 0.0
C1861 C 0.60554 0.66467 0.88569 0.0
C1862 C 0.61217 0.67422 0.91609 0.0
C1863 C 0.63173 0.70327 1.00337 0.0
C1864 C 0.62514 0.69308 0.97332 0.0
H1865 H 0.58856 0.61588 0.85291 0.0
H1866 H 0.60025 0.63106 0.90258 0.0
H1867 H 0.59301 0.70463 0.91059 0.0
H1868 H 0.64114 0.75447 0.03464 0.0
H1869 H 0.63568 0.73667 0.98491 0.0
C1870 C 0.50947 0.394 0.26565 0.0
C1871 C 0.52147 0.39086 0.29314 0.0
C1872 C 0.51987 0.39152 0.237 0.0
C1873 C 0.56578 0.3611 0.20063 0.0
H1874 H 0.55211 0.39828 0.13002 0.0
C1875 C 0.60272 0.34327 0.07927 0.0
C1876 C 0.58864 0.34668 0.05381 0.0
C1877 C 0.5963 0.35023 0.10883 0.0
C1878 C 0.55594 0.38756 0.1494 0.0
H1879 H 0.55408 0.38346 0.31199 0.0
H1880 H 0.57227 0.37906 0.26179 0.0
H1881 H 0.53826 0.40871 0.18088 0.0
H1882 H 0.5565 0.35962 0.0397 0.0
H1883 H 0.54515 0.37139 0.09107 0.0
H1884 H 0.58286 0.33954 0.16912 0.0
C1885 C 0.55476 0.3834 0.26252 0.0
C1886 C 0.54807 0.39363 0.17861 0.0
C1887 C 0.54439 0.38616 0.29128 0.0
C1888 C 0.56792 0.35706 0.05869 0.0
C1889 C 0.56144 0.36389 0.08821 0.0
C1890 C 0.57353 0.35492 0.17136 0.0
C1891 C 0.54249 0.3856 0.23506 0.0
C1892 C 0.55266 0.38034 0.20453 0.0
C1893 C 0.57556 0.36067 0.11372 0.0
C1894 C 0.56846 0.3679 0.14524 0.0
H1895 H 0.49179 0.39761 0.26623 0.0
H1896 H 0.50988 0.39317 0.21636 0.0
H1897 H 0.56936 0.35031 0.22003 0.0
H1898 H 0.61891 0.33556 0.07627 0.0
H1899 H 0.60776 0.3477 0.12776 0.0
C1900 C 0.89115 0.31912 0.33006 0.0
C1901 C 0.89961 0.3409 0.32737 0.0
C1902 C 0.88424 0.3108 0.35863 0.0
C1903 C 0.8674 0.32763 0.43781 0.0
H1904 H 0.88301 0.26648 0.45719 0.0
C1905 C 0.86094 0.28827 0.56066 0.0
C1906 C 0.85618 0.26535 0.56251 0.0
C1907 C 0.86312 0.29874 0.53187 0.0
C1908 C 0.87814 0.28348 0.45204 0.0
H1909 H 0.90735 0.37101 0.35288 0.0
H1910 H 0.89539 0.35642 0.40283 0.0
H1911 H 0.89364 0.28211 0.4077 0.0
H1912 H 0.84797 0.23596 0.53579 0.0
H1913 H 0.85102 0.25427 0.4859 0.0
H1914 H 0.85211 0.32895 0.48256 0.0
C1915 C 0.89383 0.34588 0.38268 0.0
C1916 C 0.88431 0.29247 0.42358 0.0
C1917 C 0.90073 0.35424 0.35403 0.0
C1918 C 0.85182 0.25361 0.53515 0.0
C1919 C 0.85382 0.26406 0.5065 0.0
C1920 C 0.8612 0.31859 0.46642 0.0
C1921 C 0.88562 0.32398 0.38539 0.0
C1922 C 0.87898 0.31464 0.41598 0.0
C1923 C 0.86046 0.28651 0.5044 0.0
C1924 C 0.86641 0.29634 0.47384 0.0
H1925 H 0.88957 0.30854 0.30996 0.0
H1926 H 0.87761 0.29402 0.35968 0.0
H1927 H 0.86284 0.3447 0.43264 0.0
H1928 H 0.86462 0.29774 0.58129 0.0
H1929 H 0.86826 0.31604 0.53117 0.0
C1930 C 0.99285 0.59564 0.76185 0.0
C1931 C 0.98206 0.60156 0.78949 0.0
C1932 C 0.9824 0.59881 0.7334 0.0
C1933 C 0.94007 0.63404 0.69643 0.0
H1934 H 0.947 0.59273 0.62836 0.0
C1935 C 0.90128 0.65098 0.57623 0.0
C1936 C 0.9142 0.6453 0.55031 0.0
C1937 C 0.90785 0.64443 0.60587 0.0
C1938 C 0.94508 0.60457 0.64702 0.0
H1939 H 0.95137 0.61472 0.80875 0.0
H1940 H 0.9331 0.62016 0.759 0.0
H1941 H 0.96095 0.58264 0.67925 0.0
H1942 H 0.94445 0.62866 0.53543 0.0
H1943 H 0.956 0.61748 0.58694 0.0
H1944 H 0.92469 0.6562 0.66412 0.0
C1945 C 0.94977 0.61323 0.75943 0.0
C1946 C 0.95302 0.59873 0.67625 0.0
C1947 C 0.96018 0.60991 0.78798 0.0
C1948 C 0.93389 0.633 0.5548 0.0
C1949 C 0.94049 0.62654 0.5844 0.0
C1950 C 0.93221 0.63993 0.66716 0.0
C1951 C 0.96092 0.60809 0.73177 0.0
C1952 C 0.95085 0.6135 0.70126 0.0
C1953 C 0.92756 0.63212 0.61037 0.0
C1954 C 0.93485 0.62538 0.64195 0.0
H1955 H 0.00971 0.58919 0.76205 0.0
H1956 H 0.99157 0.59484 0.71259 0.0
H1957 H 0.9384 0.64595 0.71506 0.0
H1958 H 0.88587 0.66019 0.57358 0.0
H1959 H 0.89729 0.64879 0.62522 0.0
C1960 C 0.40475 0.3496 0.17382 0.0
C1961 C 0.40789 0.33553 0.19944 0.0
C1962 C 0.39834 0.34085 0.14521 0.0
C1963 C 0.39838 0.28824 0.10068 0.0
H1964 H 0.35388 0.31757 0.05011 0.0
C1965 C 0.36405 0.2451 0.99312 0.0
C1966 C 0.36199 0.25791 0.96612 0.0
C1967 C 0.36762 0.2553 0.0216 0.0
C1968 C 0.36648 0.30928 0.06382 0.0
H1969 H 0.40606 0.30118 0.21499 0.0
H1970 H 0.39514 0.28598 0.16528 0.0
H1971 H 0.36476 0.33407 0.09944 0.0
H1972 H 0.36104 0.29165 0.94822 0.0
H1973 H 0.36737 0.30954 0.99812 0.0
H1974 H 0.40037 0.26362 0.06519 0.0
C1975 C 0.39798 0.30376 0.16714 0.0
C1976 C 0.37273 0.31875 0.09209 0.0
C1977 C 0.40431 0.3125 0.19569 0.0
C1978 C 0.36232 0.28129 0.9686 0.0
C1979 C 0.36603 0.29155 0.99722 0.0
C1980 C 0.3922 0.27885 0.07249 0.0
C1981 C 0.39498 0.31779 0.14148 0.0
C1982 C 0.38863 0.30823 0.11099 0.0
C1983 C 0.36942 0.27862 0.02393 0.0
C1984 C 0.37601 0.28909 0.05378 0.0
H1985 H 0.4076 0.36738 0.17571 0.0
H1986 H 0.39643 0.3521 0.12586 0.0
H1987 H 0.41102 0.27993 0.11428 0.0
H1988 H 0.36375 0.22704 0.99213 0.0
H1989 H 0.36954 0.24481 0.04176 0.0
C1990 C 0.4314 0.63052 0.9692 0.0
C1991 C 0.4113 0.642 0.97432 0.0
C1992 C 0.43742 0.62357 0.93956 0.0
C1993 C 0.42581 0.63397 0.85668 0.0
H1994 H 0.45786 0.5783 0.84614 0.0
C1995 C 0.45335 0.60234 0.73625 0.0
C1996 C 0.47596 0.59631 0.73441 0.0
C1997 C 0.44308 0.60542 0.76501 0.0
C1998 C 0.44894 0.5939 0.8487 0.0
H1999 H 0.38164 0.65495 0.95217 0.0
H2000 H 0.392 0.64261 0.90046 0.0
H2001 H 0.4446 0.58901 0.89719 0.0
H2002 H 0.50512 0.58757 0.76132 0.0
H2003 H 0.48719 0.59259 0.81118 0.0
H2004 H 0.43031 0.63885 0.80812 0.0
C2005 C 0.40333 0.6393 0.91931 0.0
C2006 C 0.44142 0.60012 0.87801 0.0
C2007 C 0.39737 0.64638 0.94898 0.0
C2008 C 0.48768 0.59222 0.76188 0.0
C2009 C 0.47737 0.59503 0.79052 0.0
C2010 C 0.43322 0.62766 0.82731 0.0
C2011 C 0.42345 0.62777 0.91418 0.0
C2012 C 0.43009 0.62044 0.88254 0.0
C2013 C 0.45512 0.60222 0.79248 0.0
C2014 C 0.4452 0.60773 0.82306 0.0
H2015 H 0.4427 0.6272 0.9881 0.0
H2016 H 0.45327 0.6152 0.93651 0.0
H2017 H 0.4174 0.64985 0.85923 0.0
H2018 H 0.44389 0.60578 0.71555 0.0
H2019 H 0.42585 0.61076 0.76576 0.0
C2020 C 0.13169 0.737 0.49123 0.0
C2021 C 0.13726 0.72546 0.46403 0.0
C2022 C 0.12808 0.72558 0.51884 0.0
C2023 C 0.137 0.6723 0.56013 0.0
H2024 H 0.08525 0.69162 0.60672 0.0
C2025 C 0.11863 0.64248 0.68515 0.0
C2026 C 0.09632 0.63818 0.69332 0.0
C2027 C 0.12399 0.65185 0.65648 0.0
C2028 C 0.09965 0.68585 0.59393 0.0
H2029 H 0.14434 0.69274 0.44511 0.0
H2030 H 0.13825 0.67273 0.49367 0.0
H2031 H 0.09457 0.7101 0.55842 0.0
H2032 H 0.06222 0.63993 0.67693 0.0
H2033 H 0.07155 0.65644 0.6272 0.0
H2034 H 0.14193 0.64791 0.59569 0.0
C2035 C 0.13669 0.69072 0.49345 0.0
C2036 C 0.10517 0.69665 0.56636 0.0
C2037 C 0.14026 0.70221 0.46562 0.0
C2038 C 0.07955 0.64334 0.6718 0.0
C2039 C 0.0849 0.65279 0.64319 0.0
C2040 C 0.13154 0.66155 0.58788 0.0
C2041 C 0.12997 0.70224 0.52021 0.0
C2042 C 0.12401 0.69015 0.54918 0.0
C2043 C 0.10719 0.65729 0.63519 0.0
C2044 C 0.11282 0.66824 0.60521 0.0
H2045 H 0.12932 0.75492 0.49107 0.0
H2046 H 0.12343 0.73507 0.53911 0.0
H2047 H 0.15164 0.6669 0.54755 0.0
H2048 H 0.13201 0.63912 0.70121 0.0
H2049 H 0.14129 0.65537 0.65134 0.0
C2050 C 0.0053 0.3924 0.26253 0.0
C2051 C 0.01684 0.38759 0.2351 0.0
C2052 C 0.01519 0.38855 0.29121 0.0
C2053 C 0.05537 0.35156 0.32774 0.0
H2054 H 0.05011 0.3918 0.39728 0.0
C2055 C 0.09169 0.32969 0.44794 0.0
C2056 C 0.0799 0.33701 0.47405 0.0
C2057 C 0.08539 0.33665 0.41838 0.0
C2058 C 0.05147 0.38019 0.37826 0.0
H2059 H 0.04815 0.37565 0.21629 0.0
H2060 H 0.06536 0.36871 0.26654 0.0
H2061 H 0.0373 0.40369 0.34657 0.0
H2062 H 0.05175 0.35666 0.48959 0.0
H2063 H 0.04027 0.36821 0.43819 0.0
H2064 H 0.06872 0.32771 0.35941 0.0
C2065 C 0.04866 0.37553 0.26573 0.0
C2066 C 0.04427 0.38712 0.34912 0.0
C2067 C 0.03888 0.37973 0.23699 0.0
C2068 C 0.06135 0.35099 0.46992 0.0
C2069 C 0.05488 0.35773 0.4404 0.0
C2070 C 0.06233 0.34451 0.35695 0.0
C2071 C 0.03673 0.37948 0.29314 0.0
C2072 C 0.04598 0.37283 0.32358 0.0
C2073 C 0.06696 0.3509 0.41418 0.0
C2074 C 0.0603 0.35865 0.38273 0.0
H2075 H 0.98828 0.39841 0.26187 0.0
H2076 H 0.00552 0.39165 0.31188 0.0
H2077 H 0.05662 0.34005 0.30857 0.0
H2078 H 0.1062 0.31908 0.45045 0.0
H2079 H 0.0953 0.33123 0.39891 0.0
loop_
_geom_bond_atom_site_label_1
_geom_bond_atom_site_label_2
_geom_bond_distance
_geom_bond_site_symmetry_2
_ccdc_geom_bond_type
Nd0 C2 2.836 . S
Nd0 O20 2.500 . S
Nd0 O21 2.492 . S
Nd0 O22 2.487 . S
Nd0 O23 2.682 1_655 S
Nd0 O24 2.410 1_655 S
Nd0 O29 2.447 . S
Nd0 O31 2.424 . S
Nd1 C11 2.836 . S
Nd1 O23 2.414 . S
Nd1 O25 2.424 . S
Nd1 O26 2.500 . S
Nd1 O27 2.492 . S
Nd1 O28 2.487 . S
Nd1 O29 2.645 1_455 S
Nd1 O30 2.398 1_455 S
C2 Nd0 2.836 . S
C2 C3 1.498 . S
C2 O20 1.258 . S
C2 O21 1.239 . S
C3 C2 1.498 . S
C3 C4 1.366 1_554 S
C3 C8 1.407 1_554 S
C4 C3 1.366 1_556 S
C4 C5 1.392 . S
C4 H32 0.930 . S
C5 C4 1.392 . S
C5 C6 1.398 . S
C5 H33 0.929 . S
C6 C5 1.398 . S
C6 C7 1.352 . S
C7 C6 1.352 . S
C7 C8 1.384 . S
C7 H34 0.930 . S
C8 C3 1.407 1_556 S
C8 C7 1.384 . S
C8 H35 0.929 1_556 S
C9 O22 1.241 . S
C9 O23 1.273 1_655 S
C10 O24 1.251 . S
C10 O25 1.268 . S
C11 Nd1 2.836 . S
C11 C12 1.498 . S
C11 O26 1.258 . S
C11 O27 1.239 . S
C12 C11 1.498 . S
C12 C13 1.366 . S
C12 C17 1.407 . S
C13 C12 1.366 . S
C13 C14 1.392 . S
C13 H36 0.930 . S
C14 C13 1.392 . S
C14 C15 1.398 . S
C14 H37 0.929 . S
C15 C14 1.398 . S
C15 C16 1.352 . S
C16 C15 1.352 . S
C16 C17 1.384 . S
C16 H38 0.930 . S
C17 C12 1.407 . S
C17 C16 1.384 . S
C17 H39 0.929 . S
C18 O28 1.241 . S
C18 O29 1.254 1_455 S
C19 O30 1.264 . S
C19 O31 1.268 . S
O20 Nd0 2.500 . S
O20 C2 1.258 . S
O21 Nd0 2.492 . S
O21 C2 1.239 . S
O22 Nd0 2.487 . S
O22 C9 1.241 . S
O23 Nd0 2.682 1_455 S
O23 Nd1 2.414 . S
O23 C9 1.273 1_455 S
O24 Nd0 2.410 1_455 S
O24 C10 1.251 . S
O25 Nd1 2.424 . S
O25 C10 1.268 . S
O26 Nd1 2.500 . S
O26 C11 1.258 . S
O27 Nd1 2.492 . S
O27 C11 1.239 . S
O28 Nd1 2.487 . S
O28 C18 1.241 . S
O29 Nd0 2.447 . S
O29 Nd1 2.645 1_655 S
O29 C18 1.254 1_655 S
O30 Nd1 2.398 1_655 S
O30 C19 1.264 . S
O31 Nd0 2.424 . S
O31 C19 1.268 . S
H32 C4 0.930 . S
H33 C5 0.929 . S
H34 C7 0.930 . S
H35 C8 0.929 1_554 S
H36 C13 0.930 . S
H37 C14 0.929 . S
H38 C16 0.930 . S
H39 C17 0.929 . S
Nd40 C42 2.836 . S
Nd40 O60 2.500 . S
Nd40 O61 2.492 . S
Nd40 O62 2.487 . S
Nd40 O63 2.682 . S
Nd40 O64 2.410 . S
Nd40 O69 2.414 . S
Nd40 O71 2.424 . S
Nd41 C51 2.836 . S
Nd41 O63 2.414 . S
Nd41 O65 2.424 . S
Nd41 O66 2.500 . S
Nd41 O67 2.492 . S
Nd41 O68 2.487 . S
Nd41 O69 2.682 . S
Nd41 O70 2.410 . S
C42 Nd40 2.836 . S
C42 C43 1.498 . S
C42 O60 1.258 . S
C42 O61 1.239 . S
C43 C42 1.498 . S
C43 C44 1.366 . S
C43 C48 1.407 . S
C44 C43 1.366 . S
C44 C45 1.392 . S
C44 H72 0.930 . S
C45 C44 1.392 . S
C45 C46 1.398 . S
C45 H73 0.929 . S
C46 C45 1.398 . S
C46 C47 1.352 . S
C47 C46 1.352 . S
C47 C48 1.384 . S
C47 H74 0.930 . S
C48 C43 1.407 . S
C48 C47 1.384 . S
C48 H75 0.929 . S
C49 O62 1.241 . S
C49 O63 1.273 . S
C50 O64 1.251 . S
C50 O65 1.268 . S
C51 Nd41 2.836 . S
C51 C52 1.498 . S
C51 O66 1.258 . S
C51 O67 1.239 . S
C52 C51 1.498 . S
C52 C53 1.366 . S
C52 C57 1.407 . S
C53 C52 1.366 . S
C53 C54 1.392 . S
C53 H76 0.930 . S
C54 C53 1.392 . S
C54 C55 1.398 . S
C54 H77 0.929 . S
C55 C54 1.398 . S
C55 C56 1.352 . S
C56 C55 1.352 . S
C56 C57 1.384 . S
C56 H78 0.930 . S
C57 C52 1.407 . S
C57 C56 1.384 . S
C57 H79 0.929 . S
C58 O68 1.241 . S
C58 O69 1.273 . S
C59 O70 1.251 . S
C59 O71 1.268 . S
O60 Nd40 2.500 . S
O60 C42 1.258 . S
O61 Nd40 2.492 . S
O61 C42 1.239 . S
O62 Nd40 2.487 . S
O62 C49 1.241 . S
O63 Nd40 2.682 . S
O63 Nd41 2.414 . S
O63 C49 1.273 . S
O64 Nd40 2.410 . S
O64 C50 1.251 . S
O65 Nd41 2.424 . S
O65 C50 1.268 . S
O66 Nd41 2.500 . S
O66 C51 1.258 . S
O67 Nd41 2.492 . S
O67 C51 1.239 . S
O68 Nd41 2.487 . S
O68 C58 1.241 . S
O69 Nd40 2.414 . S
O69 Nd41 2.682 . S
O69 C58 1.273 . S
O70 Nd41 2.410 . S
O70 C59 1.251 . S
O71 Nd40 2.424 . S
O71 C59 1.268 . S
H72 C44 0.930 . S
H73 C45 0.929 . S
H74 C47 0.930 . S
H75 C48 0.929 . S
H76 C53 0.930 . S
H77 C54 0.929 . S
H78 C56 0.930 . S
H79 C57 0.929 . S
Nd80 C82 2.836 . S
Nd80 O100 2.500 . S
Nd80 O101 2.492 . S
Nd80 O102 2.487 . S
Nd80 O103 2.682 . S
Nd80 O104 2.410 . S
Nd80 O109 2.414 . S
Nd80 O111 2.424 . S
Nd81 C91 2.836 . S
Nd81 O103 2.414 . S
Nd81 O105 2.424 . S
Nd81 O106 2.500 . S
Nd81 O107 2.492 . S
Nd81 O108 2.487 . S
Nd81 O109 2.682 . S
Nd81 O110 2.410 . S
C82 Nd80 2.836 . S
C82 C83 1.498 . S
C82 O100 1.258 . S
C82 O101 1.239 . S
C83 C82 1.498 . S
C83 C84 1.366 . S
C83 C88 1.407 . S
C84 C83 1.366 . S
C84 C85 1.392 . S
C84 H112 0.930 . S
C85 C84 1.392 . S
C85 C86 1.398 . S
C85 H113 0.929 . S
C86 C85 1.398 . S
C86 C87 1.352 . S
C87 C86 1.352 . S
C87 C88 1.384 . S
C87 H114 0.930 . S
C88 C83 1.407 . S
C88 C87 1.384 . S
C88 H115 0.929 . S
C89 O102 1.241 . S
C89 O103 1.273 . S
C90 O104 1.251 . S
C90 O105 1.268 . S
C91 Nd81 2.836 . S
C91 C92 1.498 . S
C91 O106 1.258 . S
C91 O107 1.239 . S
C92 C91 1.498 . S
C92 C93 1.366 . S
C92 C97 1.407 . S
C93 C92 1.366 . S
C93 C94 1.392 . S
C93 H116 0.930 . S
C94 C93 1.392 . S
C94 C95 1.398 . S
C94 H117 0.929 . S
C95 C94 1.398 . S
C95 C96 1.352 . S
C96 C95 1.352 . S
C96 C97 1.384 . S
C96 H118 0.930 . S
C97 C92 1.407 . S
C97 C96 1.384 . S
C97 H119 0.929 . S
C98 O108 1.241 . S
C98 O109 1.273 . S
C99 O110 1.251 . S
C99 O111 1.268 . S
O100 Nd80 2.500 . S
O100 C82 1.258 . S
O101 Nd80 2.492 . S
O101 C82 1.239 . S
O102 Nd80 2.487 . S
O102 C89 1.241 . S
O103 Nd80 2.682 . S
O103 Nd81 2.414 . S
O103 C89 1.273 . S
O104 Nd80 2.410 . S
O104 C90 1.251 . S
O105 Nd81 2.424 . S
O105 C90 1.268 . S
O106 Nd81 2.500 . S
O106 C91 1.258 . S
O107 Nd81 2.492 . S
O107 C91 1.239 . S
O108 Nd81 2.487 . S
O108 C98 1.241 . S
O109 Nd80 2.414 . S
O109 Nd81 2.682 . S
O109 C98 1.273 . S
O110 Nd81 2.410 . S
O110 C99 1.251 . S
O111 Nd80 2.424 . S
O111 C99 1.268 . S
H112 C84 0.930 . S
H113 C85 0.929 . S
H114 C87 0.930 . S
H115 C88 0.929 . S
H116 C93 0.930 . S
H117 C94 0.929 . S
H118 C96 0.930 . S
H119 C97 0.929 . S
Nd120 C122 2.836 . S
Nd120 O140 2.500 . S
Nd120 O141 2.492 . S
Nd120 O142 2.487 . S
Nd120 O143 2.682 . S
Nd120 O144 2.410 . S
Nd120 O149 2.414 . S
Nd120 O151 2.424 . S
Nd121 C131 2.836 . S
Nd121 O143 2.414 . S
Nd121 O145 2.424 . S
Nd121 O146 2.500 . S
Nd121 O147 2.492 . S
Nd121 O148 2.487 . S
Nd121 O149 2.682 . S
Nd121 O150 2.410 . S
C122 Nd120 2.836 . S
C122 C123 1.498 . S
C122 O140 1.258 . S
C122 O141 1.239 . S
C123 C122 1.498 . S
C123 C124 1.366 . S
C123 C128 1.407 . S
C124 C123 1.366 . S
C124 C125 1.392 . S
C124 H152 0.930 . S
C125 C124 1.392 . S
C125 C126 1.398 . S
C125 H153 0.929 . S
C126 C125 1.398 . S
C126 C127 1.352 . S
C127 C126 1.352 . S
C127 C128 1.384 . S
C127 H154 0.930 . S
C128 C123 1.407 . S
C128 C127 1.384 . S
C128 H155 0.929 . S
C129 O142 1.241 . S
C129 O143 1.273 . S
C130 O144 1.251 . S
C130 O145 1.268 . S
C131 Nd121 2.836 . S
C131 C132 1.498 . S
C131 O146 1.258 . S
C131 O147 1.239 . S
C132 C131 1.498 . S
C132 C133 1.366 . S
C132 C137 1.407 . S
C133 C132 1.366 . S
C133 C134 1.392 1_556 S
C133 H156 0.930 . S
C134 C133 1.392 1_554 S
C134 C135 1.398 . S
C134 H157 0.929 . S
C135 C134 1.398 . S
C135 C136 1.352 . S
C136 C135 1.352 . S
C136 C137 1.384 1_554 S
C136 H158 0.930 . S
C137 C132 1.407 . S
C137 C136 1.384 1_556 S
C137 H159 0.929 . S
C138 O148 1.241 . S
C138 O149 1.273 . S
C139 O150 1.251 . S
C139 O151 1.268 . S
O140 Nd120 2.500 . S
O140 C122 1.258 . S
O141 Nd120 2.492 . S
O141 C122 1.239 . S
O142 Nd120 2.487 . S
O142 C129 1.241 . S
O143 Nd120 2.682 . S
O143 Nd121 2.414 . S
O143 C129 1.273 . S
O144 Nd120 2.410 . S
O144 C130 1.251 . S
O145 Nd121 2.424 . S
O145 C130 1.268 . S
O146 Nd121 2.500 . S
O146 C131 1.258 . S
O147 Nd121 2.492 . S
O147 C131 1.239 . S
O148 Nd121 2.487 . S
O148 C138 1.241 . S
O149 Nd120 2.414 . S
O149 Nd121 2.682 . S
O149 C138 1.273 . S
O150 Nd121 2.410 . S
O150 C139 1.251 . S
O151 Nd120 2.424 . S
O151 C139 1.268 . S
H152 C124 0.930 . S
H153 C125 0.929 . S
H154 C127 0.930 . S
H155 C128 0.929 . S
H156 C133 0.930 . S
H157 C134 0.929 . S
H158 C136 0.930 . S
H159 C137 0.929 . S
Nd160 C162 2.836 . S
Nd160 O180 2.500 . S
Nd160 O181 2.492 . S
Nd160 O182 2.487 . S
Nd160 O183 2.682 1_655 S
Nd160 O184 2.410 1_655 S
Nd160 O189 2.414 1_655 S
Nd160 O191 2.424 . S
Nd161 C171 2.836 . S
Nd161 O183 2.414 . S
Nd161 O185 2.424 . S
Nd161 O186 2.500 . S
Nd161 O187 2.492 . S
Nd161 O188 2.487 . S
Nd161 O189 2.682 . S
Nd161 O190 2.410 . S
C162 Nd160 2.836 . S
C162 C163 1.498 . S
C162 O180 1.258 . S
C162 O181 1.239 . S
C163 C162 1.498 . S
C163 C164 1.366 . S
C163 C168 1.407 . S
C164 C163 1.366 . S
C164 C165 1.392 . S
C164 H192 0.930 . S
C165 C164 1.392 . S
C165 C166 1.398 . S
C165 H193 0.929 . S
C166 C165 1.398 . S
C166 C167 1.352 . S
C167 C166 1.352 . S
C167 C168 1.384 . S
C167 H194 0.930 . S
C168 C163 1.407 . S
C168 C167 1.384 . S
C168 H195 0.929 . S
C169 O182 1.241 1_455 S
C169 O183 1.273 . S
C170 O184 1.251 . S
C170 O185 1.268 . S
C171 Nd161 2.836 . S
C171 C172 1.498 . S
C171 O186 1.258 . S
C171 O187 1.239 . S
C172 C171 1.498 . S
C172 C173 1.366 1_556 S
C172 C177 1.407 1_556 S
C173 C172 1.366 1_554 S
C173 C174 1.392 . S
C173 H196 0.930 . S
C174 C173 1.392 . S
C174 C175 1.398 . S
C174 H197 0.929 . S
C175 C174 1.398 . S
C175 C176 1.352 . S
C176 C175 1.352 . S
C176 C177 1.384 . S
C176 H198 0.930 . S
C177 C172 1.407 1_554 S
C177 C176 1.384 . S
C177 H199 0.929 1_554 S
C178 O188 1.241 . S
C178 O189 1.273 . S
C179 O190 1.251 1_655 S
C179 O191 1.268 . S
O180 Nd160 2.500 . S
O180 C162 1.258 . S
O181 Nd160 2.492 . S
O181 C162 1.239 . S
O182 Nd160 2.487 . S
O182 C169 1.241 1_655 S
O183 Nd160 2.682 1_455 S
O183 Nd161 2.414 . S
O183 C169 1.273 . S
O184 Nd160 2.410 1_455 S
O184 C170 1.251 . S
O185 Nd161 2.424 . S
O185 C170 1.268 . S
O186 Nd161 2.500 . S
O186 C171 1.258 . S
O187 Nd161 2.492 . S
O187 C171 1.239 . S
O188 Nd161 2.487 . S
O188 C178 1.241 . S
O189 Nd160 2.414 1_455 S
O189 Nd161 2.682 . S
O189 C178 1.273 . S
O190 Nd161 2.410 . S
O190 C179 1.251 1_455 S
O191 Nd160 2.424 . S
O191 C179 1.268 . S
H192 C164 0.930 . S
H193 C165 0.929 . S
H194 C167 0.930 . S
H195 C168 0.929 . S
H196 C173 0.930 . S
H197 C174 0.929 . S
H198 C176 0.930 . S
H199 C177 0.929 1_556 S
Nd200 C202 2.836 . S
Nd200 O220 2.500 . S
Nd200 O221 2.492 . S
Nd200 O222 2.487 . S
Nd200 O223 2.682 . S
Nd200 O224 2.410 . S
Nd200 O229 2.414 . S
Nd200 O231 2.424 . S
Nd201 C211 2.836 . S
Nd201 O223 2.414 . S
Nd201 O225 2.424 . S
Nd201 O226 2.500 . S
Nd201 O227 2.492 . S
Nd201 O228 2.487 . S
Nd201 O229 2.682 . S
Nd201 O230 2.410 . S
C202 Nd200 2.836 . S
C202 C203 1.498 . S
C202 O220 1.258 . S
C202 O221 1.239 . S
C203 C202 1.498 . S
C203 C204 1.366 . S
C203 C208 1.407 . S
C204 C203 1.366 . S
C204 C205 1.392 1_554 S
C204 H232 0.930 . S
C205 C204 1.392 1_556 S
C205 C206 1.398 . S
C205 H233 0.929 . S
C206 C205 1.398 . S
C206 C207 1.352 . S
C207 C206 1.352 . S
C207 C208 1.384 1_556 S
C207 H234 0.930 . S
C208 C203 1.407 . S
C208 C207 1.384 1_554 S
C208 H235 0.929 . S
C209 O222 1.241 . S
C209 O223 1.273 . S
C210 O224 1.251 . S
C210 O225 1.268 . S
C211 Nd201 2.836 . S
C211 C212 1.498 . S
C211 O226 1.258 . S
C211 O227 1.239 . S
C212 C211 1.498 . S
C212 C213 1.366 . S
C212 C217 1.407 . S
C213 C212 1.366 . S
C213 C214 1.392 . S
C213 H236 0.930 . S
C214 C213 1.392 . S
C214 C215 1.398 . S
C214 H237 0.929 . S
C215 C214 1.398 . S
C215 C216 1.352 . S
C216 C215 1.352 . S
C216 C217 1.384 . S
C216 H238 0.930 . S
C217 C212 1.407 . S
C217 C216 1.384 . S
C217 H239 0.929 . S
C218 O228 1.241 . S
C218 O229 1.273 . S
C219 O230 1.251 . S
C219 O231 1.268 . S
O220 Nd200 2.500 . S
O220 C202 1.258 . S
O221 Nd200 2.492 . S
O221 C202 1.239 . S
O222 Nd200 2.487 . S
O222 C209 1.241 . S
O223 Nd200 2.682 . S
O223 Nd201 2.414 . S
O223 C209 1.273 . S
O224 Nd200 2.410 . S
O224 C210 1.251 . S
O225 Nd201 2.424 . S
O225 C210 1.268 . S
O226 Nd201 2.500 . S
O226 C211 1.258 . S
O227 Nd201 2.492 . S
O227 C211 1.239 . S
O228 Nd201 2.487 . S
O228 C218 1.241 . S
O229 Nd200 2.414 . S
O229 Nd201 2.682 . S
O229 C218 1.273 . S
O230 Nd201 2.410 . S
O230 C219 1.251 . S
O231 Nd200 2.424 . S
O231 C219 1.268 . S
H232 C204 0.930 . S
H233 C205 0.929 . S
H234 C207 0.930 . S
H235 C208 0.929 . S
H236 C213 0.930 . S
H237 C214 0.929 . S
H238 C216 0.930 . S
H239 C217 0.929 . S
Nd240 C242 2.836 . S
Nd240 O260 2.500 . S
Nd240 O261 2.492 . S
Nd240 O262 2.487 . S
Nd240 O263 2.682 . S
Nd240 O264 2.410 . S
Nd240 O269 2.414 . S
Nd240 O271 2.424 . S
Nd241 C251 2.836 . S
Nd241 O263 2.414 . S
Nd241 O265 2.424 . S
Nd241 O266 2.500 . S
Nd241 O267 2.492 . S
Nd241 O268 2.487 . S
Nd241 O269 2.682 . S
Nd241 O270 2.410 . S
C242 Nd240 2.836 . S
C242 C243 1.498 . S
C242 O260 1.258 . S
C242 O261 1.239 . S
C243 C242 1.498 . S
C243 C244 1.366 . S
C243 C248 1.407 . S
C244 C243 1.366 . S
C244 C245 1.392 . S
C244 H272 0.930 . S
C245 C244 1.392 . S
C245 C246 1.398 . S
C245 H273 0.929 . S
C246 C245 1.398 . S
C246 C247 1.352 . S
C247 C246 1.352 . S
C247 C248 1.384 . S
C247 H274 0.930 . S
C248 C243 1.407 . S
C248 C247 1.384 . S
C248 H275 0.929 . S
C249 O262 1.241 . S
C249 O263 1.273 . S
C250 O264 1.251 . S
C250 O265 1.268 . S
C251 Nd241 2.836 . S
C251 C252 1.498 . S
C251 O266 1.258 . S
C251 O267 1.239 . S
C252 C251 1.498 . S
C252 C253 1.366 . S
C252 C257 1.407 . S
C253 C252 1.366 . S
C253 C254 1.392 . S
C253 H276 0.930 . S
C254 C253 1.392 . S
C254 C255 1.398 . S
C254 H277 0.929 . S
C255 C254 1.398 . S
C255 C256 1.352 . S
C256 C255 1.352 . S
C256 C257 1.384 . S
C256 H278 0.930 . S
C257 C252 1.407 . S
C257 C256 1.384 . S
C257 H279 0.929 . S
C258 O268 1.241 . S
C258 O269 1.273 . S
C259 O270 1.251 . S
C259 O271 1.268 . S
O260 Nd240 2.500 . S
O260 C242 1.258 . S
O261 Nd240 2.492 . S
O261 C242 1.239 . S
O262 Nd240 2.487 . S
O262 C249 1.241 . S
O263 Nd240 2.682 . S
O263 Nd241 2.414 . S
O263 C249 1.273 . S
O264 Nd240 2.410 . S
O264 C250 1.251 . S
O265 Nd241 2.424 . S
O265 C250 1.268 . S
O266 Nd241 2.500 . S
O266 C251 1.258 . S
O267 Nd241 2.492 . S
O267 C251 1.239 . S
O268 Nd241 2.487 . S
O268 C258 1.241 . S
O269 Nd240 2.414 . S
O269 Nd241 2.682 . S
O269 C258 1.273 . S
O270 Nd241 2.410 . S
O270 C259 1.251 . S
O271 Nd240 2.424 . S
O271 C259 1.268 . S
H272 C244 0.930 . S
H273 C245 0.929 . S
H274 C247 0.930 . S
H275 C248 0.929 . S
H276 C253 0.930 . S
H277 C254 0.929 . S
H278 C256 0.930 . S
H279 C257 0.929 . S
Nd280 C282 2.836 . S
Nd280 O300 2.500 . S
Nd280 O301 2.492 . S
Nd280 O302 2.487 . S
Nd280 O303 2.682 . S
Nd280 O304 2.410 . S
Nd280 O309 2.414 . S
Nd280 O311 2.424 . S
Nd281 C291 2.836 . S
Nd281 O303 2.414 . S
Nd281 O305 2.424 . S
Nd281 O306 2.500 . S
Nd281 O307 2.492 . S
Nd281 O308 2.487 . S
Nd281 O309 2.682 . S
Nd281 O310 2.410 . S
C282 Nd280 2.836 . S
C282 C283 1.498 . S
C282 O300 1.258 . S
C282 O301 1.239 . S
C283 C282 1.498 . S
C283 C284 1.366 . S
C283 C288 1.407 . S
C284 C283 1.366 . S
C284 C285 1.392 . S
C284 H312 0.930 . S
C285 C284 1.392 . S
C285 C286 1.398 . S
C285 H313 0.929 . S
C286 C285 1.398 . S
C286 C287 1.352 . S
C287 C286 1.352 . S
C287 C288 1.384 . S
C287 H314 0.930 . S
C288 C283 1.407 . S
C288 C287 1.384 . S
C288 H315 0.929 . S
C289 O302 1.241 . S
C289 O303 1.273 . S
C290 O304 1.251 . S
C290 O305 1.268 . S
C291 Nd281 2.836 . S
C291 C292 1.498 . S
C291 O306 1.258 . S
C291 O307 1.239 . S
C292 C291 1.498 . S
C292 C293 1.366 . S
C292 C297 1.407 . S
C293 C292 1.366 . S
C293 C294 1.392 . S
C293 H316 0.930 . S
C294 C293 1.392 . S
C294 C295 1.398 . S
C294 H317 0.929 . S
C295 C294 1.398 . S
C295 C296 1.352 . S
C296 C295 1.352 . S
C296 C297 1.384 . S
C296 H318 0.930 . S
C297 C292 1.407 . S
C297 C296 1.384 . S
C297 H319 0.929 . S
C298 O308 1.241 . S
C298 O309 1.273 . S
C299 O310 1.251 . S
C299 O311 1.268 . S
O300 Nd280 2.500 . S
O300 C282 1.258 . S
O301 Nd280 2.492 . S
O301 C282 1.239 . S
O302 Nd280 2.487 . S
O302 C289 1.241 . S
O303 Nd280 2.682 . S
O303 Nd281 2.414 . S
O303 C289 1.273 . S
O304 Nd280 2.410 . S
O304 C290 1.251 . S
O305 Nd281 2.424 . S
O305 C290 1.268 . S
O306 Nd281 2.500 . S
O306 C291 1.258 . S
O307 Nd281 2.492 . S
O307 C291 1.239 . S
O308 Nd281 2.487 . S
O308 C298 1.241 . S
O309 Nd280 2.414 . S
O309 Nd281 2.682 . S
O309 C298 1.273 . S
O310 Nd281 2.410 . S
O310 C299 1.251 . S
O311 Nd280 2.424 . S
O311 C299 1.268 . S
H312 C284 0.930 . S
H313 C285 0.929 . S
H314 C287 0.930 . S
H315 C288 0.929 . S
H316 C293 0.930 . S
H317 C294 0.929 . S
H318 C296 0.930 . S
H319 C297 0.929 . S
Nd320 C322 2.836 . S
Nd320 O340 2.500 . S
Nd320 O341 2.492 . S
Nd320 O342 2.487 . S
Nd320 O343 2.682 . S
Nd320 O344 2.410 . S
Nd320 O349 2.414 . S
Nd320 O351 2.424 . S
Nd321 C331 2.836 . S
Nd321 O343 2.414 . S
Nd321 O345 2.424 . S
Nd321 O346 2.500 . S
Nd321 O347 2.492 . S
Nd321 O348 2.487 . S
Nd321 O349 2.682 . S
Nd321 O350 2.410 . S
C322 Nd320 2.836 . S
C322 C323 1.498 . S
C322 O340 1.258 . S
C322 O341 1.239 . S
C323 C322 1.498 . S
C323 C324 1.366 . S
C323 C328 1.407 . S
C324 C323 1.366 . S
C324 C325 1.392 . S
C324 H352 0.930 . S
C325 C324 1.392 . S
C325 C326 1.398 . S
C325 H353 0.929 . S
C326 C325 1.398 . S
C326 C327 1.352 . S
C327 C326 1.352 . S
C327 C328 1.384 . S
C327 H354 0.930 . S
C328 C323 1.407 . S
C328 C327 1.384 . S
C328 H355 0.929 . S
C329 O342 1.241 . S
C329 O343 1.273 . S
C330 O344 1.251 . S
C330 O345 1.268 . S
C331 Nd321 2.836 . S
C331 C332 1.498 . S
C331 O346 1.258 . S
C331 O347 1.239 . S
C332 C331 1.498 . S
C332 C333 1.366 . S
C332 C337 1.407 . S
C333 C332 1.366 . S
C333 C334 1.392 . S
C333 H356 0.930 . S
C334 C333 1.392 . S
C334 C335 1.398 . S
C334 H357 0.929 . S
C335 C334 1.398 . S
C335 C336 1.352 . S
C336 C335 1.352 . S
C336 C337 1.384 . S
C336 H358 0.930 . S
C337 C332 1.407 . S
C337 C336 1.384 . S
C337 H359 0.929 . S
C338 O348 1.241 . S
C338 O349 1.273 . S
C339 O350 1.251 . S
C339 O351 1.268 . S
O340 Nd320 2.500 . S
O340 C322 1.258 . S
O341 Nd320 2.492 . S
O341 C322 1.239 . S
O342 Nd320 2.487 . S
O342 C329 1.241 . S
O343 Nd320 2.682 . S
O343 Nd321 2.414 . S
O343 C329 1.273 . S
O344 Nd320 2.410 . S
O344 C330 1.251 . S
O345 Nd321 2.424 . S
O345 C330 1.268 . S
O346 Nd321 2.500 . S
O346 C331 1.258 . S
O347 Nd321 2.492 . S
O347 C331 1.239 . S
O348 Nd321 2.487 . S
O348 C338 1.241 . S
O349 Nd320 2.414 . S
O349 Nd321 2.682 . S
O349 C338 1.273 . S
O350 Nd321 2.410 . S
O350 C339 1.251 . S
O351 Nd320 2.424 . S
O351 C339 1.268 . S
H352 C324 0.930 . S
H353 C325 0.929 . S
H354 C327 0.930 . S
H355 C328 0.929 . S
H356 C333 0.930 . S
H357 C334 0.929 . S
H358 C336 0.930 . S
H359 C337 0.929 . S
Nd360 C362 2.836 . S
Nd360 O380 2.500 . S
Nd360 O381 2.492 . S
Nd360 O382 2.487 . S
Nd360 O383 2.682 . S
Nd360 O384 2.410 . S
Nd360 O389 2.414 . S
Nd360 O391 2.424 . S
Nd361 C371 2.836 . S
Nd361 O383 2.414 . S
Nd361 O385 2.424 . S
Nd361 O386 2.500 . S
Nd361 O387 2.492 . S
Nd361 O388 2.487 . S
Nd361 O389 2.682 . S
Nd361 O390 2.410 . S
C362 Nd360 2.836 . S
C362 C363 1.498 . S
C362 O380 1.258 . S
C362 O381 1.239 . S
C363 C362 1.498 . S
C363 C364 1.366 . S
C363 C368 1.407 . S
C364 C363 1.366 . S
C364 C365 1.392 1_554 S
C364 H392 0.930 . S
C365 C364 1.392 1_556 S
C365 C366 1.398 . S
C365 H393 0.929 . S
C366 C365 1.398 . S
C366 C367 1.352 . S
C367 C366 1.352 . S
C367 C368 1.384 1_556 S
C367 H394 0.930 . S
C368 C363 1.407 . S
C368 C367 1.384 1_554 S
C368 H395 0.929 . S
C369 O382 1.241 . S
C369 O383 1.273 . S
C370 O384 1.251 . S
C370 O385 1.268 . S
C371 Nd361 2.836 . S
C371 C372 1.498 . S
C371 O386 1.258 . S
C371 O387 1.239 . S
C372 C371 1.498 . S
C372 C373 1.366 . S
C372 C377 1.407 . S
C373 C372 1.366 . S
C373 C374 1.392 . S
C373 H396 0.930 . S
C374 C373 1.392 . S
C374 C375 1.398 . S
C374 H397 0.929 . S
C375 C374 1.398 . S
C375 C376 1.352 . S
C376 C375 1.352 . S
C376 C377 1.384 . S
C376 H398 0.930 . S
C377 C372 1.407 . S
C377 C376 1.384 . S
C377 H399 0.929 . S
C378 O388 1.241 . S
C378 O389 1.273 . S
C379 O390 1.251 . S
C379 O391 1.268 . S
O380 Nd360 2.500 . S
O380 C362 1.258 . S
O381 Nd360 2.492 . S
O381 C362 1.239 . S
O382 Nd360 2.487 . S
O382 C369 1.241 . S
O383 Nd360 2.682 . S
O383 Nd361 2.414 . S
O383 C369 1.273 . S
O384 Nd360 2.410 . S
O384 C370 1.251 . S
O385 Nd361 2.424 . S
O385 C370 1.268 . S
O386 Nd361 2.500 . S
O386 C371 1.258 . S
O387 Nd361 2.492 . S
O387 C371 1.239 . S
O388 Nd361 2.487 . S
O388 C378 1.241 . S
O389 Nd360 2.414 . S
O389 Nd361 2.682 . S
O389 C378 1.273 . S
O390 Nd361 2.410 . S
O390 C379 1.251 . S
O391 Nd360 2.424 . S
O391 C379 1.268 . S
H392 C364 0.930 . S
H393 C365 0.929 . S
H394 C367 0.930 . S
H395 C368 0.929 . S
H396 C373 0.930 . S
H397 C374 0.929 . S
H398 C376 0.930 . S
H399 C377 0.929 . S
Nd400 C402 2.836 . S
Nd400 O420 2.500 . S
Nd400 O421 2.492 . S
Nd400 O422 2.487 . S
Nd400 O423 2.682 . S
Nd400 O424 2.410 . S
Nd400 O429 2.414 . S
Nd400 O431 2.424 . S
Nd401 C411 2.836 . S
Nd401 O423 2.414 . S
Nd401 O425 2.424 . S
Nd401 O426 2.500 . S
Nd401 O427 2.492 . S
Nd401 O428 2.487 . S
Nd401 O429 2.682 . S
Nd401 O430 2.410 . S
C402 Nd400 2.836 . S
C402 C403 1.498 . S
C402 O420 1.258 . S
C402 O421 1.239 . S
C403 C402 1.498 . S
C403 C404 1.366 . S
C403 C408 1.407 . S
C404 C403 1.366 . S
C404 C405 1.392 . S
C404 H432 0.930 . S
C405 C404 1.392 . S
C405 C406 1.398 . S
C405 H433 0.929 . S
C406 C405 1.398 . S
C406 C407 1.352 . S
C407 C406 1.352 . S
C407 C408 1.384 . S
C407 H434 0.930 . S
C408 C403 1.407 . S
C408 C407 1.384 . S
C408 H435 0.929 . S
C409 O422 1.241 . S
C409 O423 1.273 . S
C410 O424 1.251 . S
C410 O425 1.268 . S
C411 Nd401 2.836 . S
C411 C412 1.498 . S
C411 O426 1.258 . S
C411 O427 1.239 . S
C412 C411 1.498 . S
C412 C413 1.366 . S
C412 C417 1.407 . S
C413 C412 1.366 . S
C413 C414 1.392 1_556 S
C413 H436 0.930 . S
C414 C413 1.392 1_554 S
C414 C415 1.398 . S
C414 H437 0.929 . S
C415 C414 1.398 . S
C415 C416 1.352 . S
C416 C415 1.352 . S
C416 C417 1.384 1_554 S
C416 H438 0.930 . S
C417 C412 1.407 . S
C417 C416 1.384 1_556 S
C417 H439 0.929 . S
C418 O428 1.241 . S
C418 O429 1.273 . S
C419 O430 1.251 . S
C419 O431 1.268 . S
O420 Nd400 2.500 . S
O420 C402 1.258 . S
O421 Nd400 2.492 . S
O421 C402 1.239 . S
O422 Nd400 2.487 . S
O422 C409 1.241 . S
O423 Nd400 2.682 . S
O423 Nd401 2.414 . S
O423 C409 1.273 . S
O424 Nd400 2.410 . S
O424 C410 1.251 . S
O425 Nd401 2.424 . S
O425 C410 1.268 . S
O426 Nd401 2.500 . S
O426 C411 1.258 . S
O427 Nd401 2.492 . S
O427 C411 1.239 . S
O428 Nd401 2.487 . S
O428 C418 1.241 . S
O429 Nd400 2.414 . S
O429 Nd401 2.682 . S
O429 C418 1.273 . S
O430 Nd401 2.410 . S
O430 C419 1.251 . S
O431 Nd400 2.424 . S
O431 C419 1.268 . S
H432 C404 0.930 . S
H433 C405 0.929 . S
H434 C407 0.930 . S
H435 C408 0.929 . S
H436 C413 0.930 . S
H437 C414 0.929 . S
H438 C416 0.930 . S
H439 C417 0.929 . S
Nd440 C442 2.836 . S
Nd440 O460 2.500 . S
Nd440 O461 2.492 . S
Nd440 O462 2.487 . S
Nd440 O463 2.682 . S
Nd440 O464 2.410 . S
Nd440 O469 2.414 . S
Nd440 O471 2.424 . S
Nd441 C451 2.836 . S
Nd441 O463 2.414 . S
Nd441 O465 2.424 . S
Nd441 O466 2.500 . S
Nd441 O467 2.492 . S
Nd441 O468 2.487 . S
Nd441 O469 2.682 . S
Nd441 O470 2.410 . S
C442 Nd440 2.836 . S
C442 C443 1.498 . S
C442 O460 1.258 . S
C442 O461 1.239 . S
C443 C442 1.498 . S
C443 C444 1.366 . S
C443 C448 1.407 . S
C444 C443 1.366 . S
C444 C445 1.392 . S
C444 H472 0.930 . S
C445 C444 1.392 . S
C445 C446 1.398 . S
C445 H473 0.929 . S
C446 C445 1.398 . S
C446 C447 1.352 . S
C447 C446 1.352 . S
C447 C448 1.384 . S
C447 H474 0.930 . S
C448 C443 1.407 . S
C448 C447 1.384 . S
C448 H475 0.929 . S
C449 O462 1.241 . S
C449 O463 1.273 . S
C450 O464 1.251 . S
C450 O465 1.268 . S
C451 Nd441 2.836 . S
C451 C452 1.498 . S
C451 O466 1.258 . S
C451 O467 1.239 . S
C452 C451 1.498 . S
C452 C453 1.366 . S
C452 C457 1.407 . S
C453 C452 1.366 . S
C453 C454 1.392 . S
C453 H476 0.930 . S
C454 C453 1.392 . S
C454 C455 1.398 . S
C454 H477 0.929 . S
C455 C454 1.398 . S
C455 C456 1.352 . S
C456 C455 1.352 . S
C456 C457 1.384 . S
C456 H478 0.930 . S
C457 C452 1.407 . S
C457 C456 1.384 . S
C457 H479 0.929 . S
C458 O468 1.241 . S
C458 O469 1.273 . S
C459 O470 1.251 . S
C459 O471 1.268 . S
O460 Nd440 2.500 . S
O460 C442 1.258 . S
O461 Nd440 2.492 . S
O461 C442 1.239 . S
O462 Nd440 2.487 . S
O462 C449 1.241 . S
O463 Nd440 2.682 . S
O463 Nd441 2.414 . S
O463 C449 1.273 . S
O464 Nd440 2.410 . S
O464 C450 1.251 . S
O465 Nd441 2.424 . S
O465 C450 1.268 . S
O466 Nd441 2.500 . S
O466 C451 1.258 . S
O467 Nd441 2.492 . S
O467 C451 1.239 . S
O468 Nd441 2.487 . S
O468 C458 1.241 . S
O469 Nd440 2.414 . S
O469 Nd441 2.682 . S
O469 C458 1.273 . S
O470 Nd441 2.410 . S
O470 C459 1.251 . S
O471 Nd440 2.424 . S
O471 C459 1.268 . S
H472 C444 0.930 . S
H473 C445 0.929 . S
H474 C447 0.930 . S
H475 C448 0.929 . S
H476 C453 0.930 . S
H477 C454 0.929 . S
H478 C456 0.930 . S
H479 C457 0.929 . S
Nd480 C482 2.836 . S
Nd480 O500 2.500 . S
Nd480 O501 2.492 . S
Nd480 O502 2.487 . S
Nd480 O503 2.682 . S
Nd480 O504 2.410 . S
Nd480 O509 2.414 . S
Nd480 O511 2.424 . S
Nd481 C491 2.836 . S
Nd481 O503 2.414 . S
Nd481 O505 2.424 . S
Nd481 O506 2.500 . S
Nd481 O507 2.492 . S
Nd481 O508 2.487 . S
Nd481 O509 2.682 . S
Nd481 O510 2.410 . S
C482 Nd480 2.836 . S
C482 C483 1.498 . S
C482 O500 1.258 . S
C482 O501 1.239 . S
C483 C482 1.498 . S
C483 C484 1.366 . S
C483 C488 1.407 . S
C484 C483 1.366 . S
C484 C485 1.392 . S
C484 H512 0.930 . S
C485 C484 1.392 . S
C485 C486 1.398 . S
C485 H513 0.929 . S
C486 C485 1.398 . S
C486 C487 1.352 . S
C487 C486 1.352 . S
C487 C488 1.384 . S
C487 H514 0.930 . S
C488 C483 1.407 . S
C488 C487 1.384 . S
C488 H515 0.929 . S
C489 O502 1.241 . S
C489 O503 1.273 . S
C490 O504 1.251 . S
C490 O505 1.268 . S
C491 Nd481 2.836 . S
C491 C492 1.498 . S
C491 O506 1.258 . S
C491 O507 1.239 . S
C492 C491 1.498 . S
C492 C493 1.366 . S
C492 C497 1.407 . S
C493 C492 1.366 . S
C493 C494 1.392 . S
C493 H516 0.930 . S
C494 C493 1.392 . S
C494 C495 1.398 . S
C494 H517 0.929 . S
C495 C494 1.398 . S
C495 C496 1.352 . S
C496 C495 1.352 . S
C496 C497 1.384 . S
C496 H518 0.930 . S
C497 C492 1.407 . S
C497 C496 1.384 . S
C497 H519 0.929 . S
C498 O508 1.241 . S
C498 O509 1.273 . S
C499 O510 1.251 . S
C499 O511 1.268 . S
O500 Nd480 2.500 . S
O500 C482 1.258 . S
O501 Nd480 2.492 . S
O501 C482 1.239 . S
O502 Nd480 2.487 . S
O502 C489 1.241 . S
O503 Nd480 2.682 . S
O503 Nd481 2.414 . S
O503 C489 1.273 . S
O504 Nd480 2.410 . S
O504 C490 1.251 . S
O505 Nd481 2.424 . S
O505 C490 1.268 . S
O506 Nd481 2.500 . S
O506 C491 1.258 . S
O507 Nd481 2.492 . S
O507 C491 1.239 . S
O508 Nd481 2.487 . S
O508 C498 1.241 . S
O509 Nd480 2.414 . S
O509 Nd481 2.682 . S
O509 C498 1.273 . S
O510 Nd481 2.410 . S
O510 C499 1.251 . S
O511 Nd480 2.424 . S
O511 C499 1.268 . S
H512 C484 0.930 . S
H513 C485 0.929 . S
H514 C487 0.930 . S
H515 C488 0.929 . S
H516 C493 0.930 . S
H517 C494 0.929 . S
H518 C496 0.930 . S
H519 C497 0.929 . S
Nd520 C522 2.836 . S
Nd520 O540 2.500 . S
Nd520 O541 2.492 . S
Nd520 O542 2.487 . S
Nd520 O543 2.682 . S
Nd520 O544 2.410 . S
Nd520 O549 2.414 . S
Nd520 O551 2.424 . S
Nd521 C531 2.836 . S
Nd521 O543 2.414 1_655 S
Nd521 O545 2.424 . S
Nd521 O546 2.500 . S
Nd521 O547 2.492 . S
Nd521 O548 2.487 . S
Nd521 O549 2.682 1_655 S
Nd521 O550 2.410 1_655 S
C522 Nd520 2.836 . S
C522 C523 1.498 . S
C522 O540 1.258 . S
C522 O541 1.239 . S
C523 C522 1.498 . S
C523 C524 1.366 1_554 S
C523 C528 1.407 1_554 S
C524 C523 1.366 1_556 S
C524 C525 1.392 . S
C524 H552 0.930 . S
C525 C524 1.392 . S
C525 C526 1.398 . S
C525 H553 0.929 . S
C526 C525 1.398 . S
C526 C527 1.352 . S
C527 C526 1.352 . S
C527 C528 1.384 . S
C527 H554 0.930 . S
C528 C523 1.407 1_556 S
C528 C527 1.384 . S
C528 H555 0.929 1_556 S
C529 O542 1.241 . S
C529 O543 1.273 . S
C530 O544 1.251 1_655 S
C530 O545 1.268 . S
C531 Nd521 2.836 . S
C531 C532 1.498 . S
C531 O546 1.258 . S
C531 O547 1.239 . S
C532 C531 1.498 . S
C532 C533 1.366 . S
C532 C537 1.407 . S
C533 C532 1.366 . S
C533 C534 1.392 . S
C533 H556 0.930 . S
C534 C533 1.392 . S
C534 C535 1.398 . S
C534 H557 0.929 . S
C535 C534 1.398 . S
C535 C536 1.352 . S
C536 C535 1.352 . S
C536 C537 1.384 . S
C536 H558 0.930 . S
C537 C532 1.407 . S
C537 C536 1.384 . S
C537 H559 0.929 . S
C538 O548 1.241 1_455 S
C538 O549 1.273 . S
C539 O550 1.251 . S
C539 O551 1.268 . S
O540 Nd520 2.500 . S
O540 C522 1.258 . S
O541 Nd520 2.492 . S
O541 C522 1.239 . S
O542 Nd520 2.487 . S
O542 C529 1.241 . S
O543 Nd520 2.682 . S
O543 Nd521 2.414 1_455 S
O543 C529 1.273 . S
O544 Nd520 2.410 . S
O544 C530 1.251 1_455 S
O545 Nd521 2.424 . S
O545 C530 1.268 . S
O546 Nd521 2.500 . S
O546 C531 1.258 . S
O547 Nd521 2.492 . S
O547 C531 1.239 . S
O548 Nd521 2.487 . S
O548 C538 1.241 1_655 S
O549 Nd520 2.414 . S
O549 Nd521 2.682 1_455 S
O549 C538 1.273 . S
O550 Nd521 2.410 1_455 S
O550 C539 1.251 . S
O551 Nd520 2.424 . S
O551 C539 1.268 . S
H552 C524 0.930 . S
H553 C525 0.929 . S
H554 C527 0.930 . S
H555 C528 0.929 1_554 S
H556 C533 0.930 . S
H557 C534 0.929 . S
H558 C536 0.930 . S
H559 C537 0.929 . S
Nd560 C562 2.836 . S
Nd560 O580 2.500 . S
Nd560 O581 2.492 . S
Nd560 O582 2.487 . S
Nd560 O583 2.682 . S
Nd560 O584 2.410 . S
Nd560 O589 2.414 . S
Nd560 O591 2.424 . S
Nd561 C571 2.836 . S
Nd561 O583 2.414 . S
Nd561 O585 2.424 . S
Nd561 O586 2.500 . S
Nd561 O587 2.492 . S
Nd561 O588 2.487 . S
Nd561 O589 2.682 . S
Nd561 O590 2.410 . S
C562 Nd560 2.836 . S
C562 C563 1.498 . S
C562 O580 1.258 . S
C562 O581 1.239 . S
C563 C562 1.498 . S
C563 C564 1.366 . S
C563 C568 1.407 . S
C564 C563 1.366 . S
C564 C565 1.392 . S
C564 H592 0.930 . S
C565 C564 1.392 . S
C565 C566 1.398 . S
C565 H593 0.929 . S
C566 C565 1.398 . S
C566 C567 1.352 . S
C567 C566 1.352 . S
C567 C568 1.384 . S
C567 H594 0.930 . S
C568 C563 1.407 . S
C568 C567 1.384 . S
C568 H595 0.929 . S
C569 O582 1.241 . S
C569 O583 1.273 . S
C570 O584 1.251 . S
C570 O585 1.268 . S
C571 Nd561 2.836 . S
C571 C572 1.498 . S
C571 O586 1.258 . S
C571 O587 1.239 . S
C572 C571 1.498 . S
C572 C573 1.366 . S
C572 C577 1.407 . S
C573 C572 1.366 . S
C573 C574 1.392 . S
C573 H596 0.930 . S
C574 C573 1.392 . S
C574 C575 1.398 . S
C574 H597 0.929 . S
C575 C574 1.398 . S
C575 C576 1.352 . S
C576 C575 1.352 . S
C576 C577 1.384 . S
C576 H598 0.930 . S
C577 C572 1.407 . S
C577 C576 1.384 . S
C577 H599 0.929 . S
C578 O588 1.241 . S
C578 O589 1.273 . S
C579 O590 1.251 . S
C579 O591 1.268 . S
O580 Nd560 2.500 . S
O580 C562 1.258 . S
O581 Nd560 2.492 . S
O581 C562 1.239 . S
O582 Nd560 2.487 . S
O582 C569 1.241 . S
O583 Nd560 2.682 . S
O583 Nd561 2.414 . S
O583 C569 1.273 . S
O584 Nd560 2.410 . S
O584 C570 1.251 . S
O585 Nd561 2.424 . S
O585 C570 1.268 . S
O586 Nd561 2.500 . S
O586 C571 1.258 . S
O587 Nd561 2.492 . S
O587 C571 1.239 . S
O588 Nd561 2.487 . S
O588 C578 1.241 . S
O589 Nd560 2.414 . S
O589 Nd561 2.682 . S
O589 C578 1.273 . S
O590 Nd561 2.410 . S
O590 C579 1.251 . S
O591 Nd560 2.424 . S
O591 C579 1.268 . S
H592 C564 0.930 . S
H593 C565 0.929 . S
H594 C567 0.930 . S
H595 C568 0.929 . S
H596 C573 0.930 . S
H597 C574 0.929 . S
H598 C576 0.930 . S
H599 C577 0.929 . S
Nd600 C602 2.836 . S
Nd600 O620 2.500 . S
Nd600 O621 2.492 . S
Nd600 O622 2.487 . S
Nd600 O623 2.645 1_455 S
Nd600 O624 2.398 1_455 S
Nd600 O629 2.414 . S
Nd600 O631 2.424 . S
Nd601 C611 2.836 . S
Nd601 O623 2.447 . S
Nd601 O625 2.424 . S
Nd601 O626 2.500 . S
Nd601 O627 2.492 . S
Nd601 O628 2.487 . S
Nd601 O629 2.682 1_655 S
Nd601 O630 2.410 1_655 S
C602 Nd600 2.836 . S
C602 C603 1.498 . S
C602 O620 1.258 . S
C602 O621 1.239 . S
C603 C602 1.498 . S
C603 C604 1.366 . S
C603 C608 1.407 . S
C604 C603 1.366 . S
C604 C605 1.392 . S
C604 H632 0.930 . S
C605 C604 1.392 . S
C605 C606 1.398 . S
C605 H633 0.929 . S
C606 C605 1.398 . S
C606 C607 1.352 . S
C607 C606 1.352 . S
C607 C608 1.384 . S
C607 H634 0.930 . S
C608 C603 1.407 . S
C608 C607 1.384 . S
C608 H635 0.929 . S
C609 O622 1.241 . S
C609 O623 1.254 1_455 S
C610 O624 1.264 . S
C610 O625 1.268 . S
C611 Nd601 2.836 . S
C611 C612 1.498 . S
C611 O626 1.258 . S
C611 O627 1.239 . S
C612 C611 1.498 . S
C612 C613 1.366 1_556 S
C612 C617 1.407 1_556 S
C613 C612 1.366 1_554 S
C613 C614 1.392 . S
C613 H636 0.930 . S
C614 C613 1.392 . S
C614 C615 1.398 . S
C614 H637 0.929 . S
C615 C614 1.398 . S
C615 C616 1.352 . S
C616 C615 1.352 . S
C616 C617 1.384 . S
C616 H638 0.930 . S
C617 C612 1.407 1_554 S
C617 C616 1.384 . S
C617 H639 0.929 1_554 S
C618 O628 1.241 . S
C618 O629 1.273 1_655 S
C619 O630 1.251 . S
C619 O631 1.268 . S
O620 Nd600 2.500 . S
O620 C602 1.258 . S
O621 Nd600 2.492 . S
O621 C602 1.239 . S
O622 Nd600 2.487 . S
O622 C609 1.241 . S
O623 Nd600 2.645 1_655 S
O623 Nd601 2.447 . S
O623 C609 1.254 1_655 S
O624 Nd600 2.398 1_655 S
O624 C610 1.264 . S
O625 Nd601 2.424 . S
O625 C610 1.268 . S
O626 Nd601 2.500 . S
O626 C611 1.258 . S
O627 Nd601 2.492 . S
O627 C611 1.239 . S
O628 Nd601 2.487 . S
O628 C618 1.241 . S
O629 Nd600 2.414 . S
O629 Nd601 2.682 1_455 S
O629 C618 1.273 1_455 S
O630 Nd601 2.410 1_455 S
O630 C619 1.251 . S
O631 Nd600 2.424 . S
O631 C619 1.268 . S
H632 C604 0.930 . S
H633 C605 0.929 . S
H634 C607 0.930 . S
H635 C608 0.929 . S
H636 C613 0.930 . S
H637 C614 0.929 . S
H638 C616 0.930 . S
H639 C617 0.929 1_556 S
C640 C641 1.349 . S
C640 C642 1.327 . S
C640 H665 0.950 . S
C641 C640 1.349 . S
C641 C657 1.349 . S
C642 C640 1.327 . S
C642 C661 1.429 1_554 S
C642 H666 0.950 . S
C643 C660 1.574 . S
C643 C662 1.368 . S
C643 H667 0.949 . S
H644 C648 0.949 . S
C645 C646 1.349 . S
C645 C647 1.327 . S
C645 H668 0.950 . S
C646 C645 1.349 . S
C646 C658 1.349 . S
C647 C645 1.327 . S
C647 C663 1.429 . S
C647 H669 0.950 . S
C648 H644 0.949 . S
C648 C656 1.574 . S
C648 C664 1.368 . S
H649 C657 0.950 . S
H650 C655 0.950 . S
H651 C656 0.949 . S
H652 C658 0.950 . S
H653 C659 0.950 . S
H654 C660 0.949 . S
C655 H650 0.950 . S
C655 C657 1.327 1_556 S
C655 C661 1.429 . S
C656 C648 1.574 . S
C656 H651 0.949 . S
C656 C662 1.368 . S
C657 C641 1.349 . S
C657 H649 0.950 . S
C657 C655 1.327 1_554 S
C658 C646 1.349 . S
C658 H652 0.950 . S
C658 C659 1.327 . S
C659 H653 0.950 . S
C659 C658 1.327 . S
C659 C663 1.429 . S
C660 C643 1.574 . S
C660 H654 0.949 . S
C660 C664 1.368 . S
C661 C642 1.429 1_556 S
C661 C655 1.429 . S
C661 C662 1.523 . S
C662 C643 1.368 . S
C662 C656 1.368 . S
C662 C661 1.523 . S
C663 C647 1.429 . S
C663 C659 1.429 . S
C663 C664 1.523 . S
C664 C648 1.368 . S
C664 C660 1.368 . S
C664 C663 1.523 . S
H665 C640 0.950 . S
H666 C642 0.950 . S
H667 C643 0.949 . S
H668 C645 0.950 . S
H669 C647 0.950 . S
C670 C671 1.349 . S
C670 C672 1.327 . S
C670 H695 0.950 . S
C671 C670 1.349 . S
C671 C687 1.349 . S
C672 C670 1.327 . S
C672 C691 1.429 . S
C672 H696 0.950 . S
C673 C690 1.574 . S
C673 C692 1.368 . S
C673 H697 0.949 . S
H674 C678 0.949 . S
C675 C676 1.349 . S
C675 C677 1.327 . S
C675 H698 0.950 . S
C676 C675 1.349 . S
C676 C688 1.349 . S
C677 C675 1.327 . S
C677 C693 1.429 . S
C677 H699 0.950 . S
C678 H674 0.949 . S
C678 C686 1.574 . S
C678 C694 1.368 . S
H679 C687 0.950 . S
H680 C685 0.950 . S
H681 C686 0.949 . S
H682 C688 0.950 . S
H683 C689 0.950 . S
H684 C690 0.949 . S
C685 H680 0.950 . S
C685 C687 1.327 . S
C685 C691 1.429 . S
C686 C678 1.574 . S
C686 H681 0.949 . S
C686 C692 1.368 . S
C687 C671 1.349 . S
C687 H679 0.950 . S
C687 C685 1.327 . S
C688 C676 1.349 . S
C688 H682 0.950 . S
C688 C689 1.327 . S
C689 H683 0.950 . S
C689 C688 1.327 . S
C689 C693 1.429 . S
C690 C673 1.574 . S
C690 H684 0.949 . S
C690 C694 1.368 . S
C691 C672 1.429 . S
C691 C685 1.429 . S
C691 C692 1.523 . S
C692 C673 1.368 . S
C692 C686 1.368 . S
C692 C691 1.523 . S
C693 C677 1.429 . S
C693 C689 1.429 . S
C693 C694 1.523 . S
C694 C678 1.368 . S
C694 C690 1.368 . S
C694 C693 1.523 . S
H695 C670 0.950 . S
H696 C672 0.950 . S
H697 C673 0.949 . S
H698 C675 0.950 . S
H699 C677 0.950 . S
C700 C701 1.349 . S
C700 C702 1.327 . S
C700 H725 0.950 . S
C701 C700 1.349 . S
C701 C717 1.349 . S
C702 C700 1.327 . S
C702 C721 1.429 . S
C702 H726 0.950 . S
C703 C720 1.574 . S
C703 C722 1.368 . S
C703 H727 0.949 . S
H704 C708 0.949 . S
C705 C706 1.349 . S
C705 C707 1.327 . S
C705 H728 0.950 . S
C706 C705 1.349 . S
C706 C718 1.349 . S
C707 C705 1.327 . S
C707 C723 1.429 . S
C707 H729 0.950 . S
C708 H704 0.949 . S
C708 C716 1.574 . S
C708 C724 1.368 . S
H709 C717 0.950 . S
H710 C715 0.950 . S
H711 C716 0.949 . S
H712 C718 0.950 . S
H713 C719 0.950 . S
H714 C720 0.949 . S
C715 H710 0.950 . S
C715 C717 1.327 . S
C715 C721 1.429 . S
C716 C708 1.574 . S
C716 H711 0.949 . S
C716 C722 1.368 . S
C717 C701 1.349 . S
C717 H709 0.950 . S
C717 C715 1.327 . S
C718 C706 1.349 . S
C718 H712 0.950 . S
C718 C719 1.327 . S
C719 H713 0.950 . S
C719 C718 1.327 . S
C719 C723 1.429 . S
C720 C703 1.574 . S
C720 H714 0.949 . S
C720 C724 1.368 . S
C721 C702 1.429 . S
C721 C715 1.429 . S
C721 C722 1.523 . S
C722 C703 1.368 . S
C722 C716 1.368 . S
C722 C721 1.523 . S
C723 C707 1.429 . S
C723 C719 1.429 . S
C723 C724 1.523 . S
C724 C708 1.368 . S
C724 C720 1.368 . S
C724 C723 1.523 . S
H725 C700 0.950 . S
H726 C702 0.950 . S
H727 C703 0.949 . S
H728 C705 0.950 . S
H729 C707 0.950 . S
C730 C731 1.349 . S
C730 C732 1.327 . S
C730 H755 0.950 . S
C731 C730 1.349 . S
C731 C747 1.349 . S
C732 C730 1.327 . S
C732 C751 1.429 . S
C732 H756 0.950 . S
C733 C750 1.574 . S
C733 C752 1.368 . S
C733 H757 0.949 . S
H734 C738 0.949 . S
C735 C736 1.349 . S
C735 C737 1.327 . S
C735 H758 0.950 . S
C736 C735 1.349 . S
C736 C748 1.349 . S
C737 C735 1.327 . S
C737 C753 1.429 . S
C737 H759 0.950 . S
C738 H734 0.949 . S
C738 C746 1.574 . S
C738 C754 1.368 . S
H739 C747 0.950 . S
H740 C745 0.950 . S
H741 C746 0.949 . S
H742 C748 0.950 . S
H743 C749 0.950 . S
H744 C750 0.949 . S
C745 H740 0.950 . S
C745 C747 1.327 . S
C745 C751 1.429 . S
C746 C738 1.574 . S
C746 H741 0.949 . S
C746 C752 1.368 . S
C747 C731 1.349 . S
C747 H739 0.950 . S
C747 C745 1.327 . S
C748 C736 1.349 . S
C748 H742 0.950 . S
C748 C749 1.327 . S
C749 H743 0.950 . S
C749 C748 1.327 . S
C749 C753 1.429 . S
C750 C733 1.574 . S
C750 H744 0.949 . S
C750 C754 1.368 . S
C751 C732 1.429 . S
C751 C745 1.429 . S
C751 C752 1.523 . S
C752 C733 1.368 . S
C752 C746 1.368 . S
C752 C751 1.523 . S
C753 C737 1.429 . S
C753 C749 1.429 . S
C753 C754 1.523 . S
C754 C738 1.368 . S
C754 C750 1.368 . S
C754 C753 1.523 . S
H755 C730 0.950 . S
H756 C732 0.950 . S
H757 C733 0.949 . S
H758 C735 0.950 . S
H759 C737 0.950 . S
C760 C761 1.349 . S
C760 C762 1.327 . S
C760 H785 0.950 . S
C761 C760 1.349 . S
C761 C777 1.349 . S
C762 C760 1.327 . S
C762 C781 1.429 . S
C762 H786 0.950 . S
C763 C780 1.574 . S
C763 C782 1.368 . S
C763 H787 0.949 . S
H764 C768 0.949 . S
C765 C766 1.349 . S
C765 C767 1.327 1_556 S
C765 H788 0.950 . S
C766 C765 1.349 . S
C766 C778 1.349 . S
C767 C765 1.327 1_554 S
C767 C783 1.429 . S
C767 H789 0.950 . S
C768 H764 0.949 . S
C768 C776 1.574 . S
C768 C784 1.368 . S
H769 C777 0.950 . S
H770 C775 0.950 . S
H771 C776 0.949 . S
H772 C778 0.950 . S
H773 C779 0.950 . S
H774 C780 0.949 . S
C775 H770 0.950 . S
C775 C777 1.327 . S
C775 C781 1.429 . S
C776 C768 1.574 . S
C776 H771 0.949 . S
C776 C782 1.368 . S
C777 C761 1.349 . S
C777 H769 0.950 . S
C777 C775 1.327 . S
C778 C766 1.349 . S
C778 H772 0.950 . S
C778 C779 1.327 . S
C779 H773 0.950 . S
C779 C778 1.327 . S
C779 C783 1.429 1_556 S
C780 C763 1.574 . S
C780 H774 0.949 . S
C780 C784 1.368 . S
C781 C762 1.429 . S
C781 C775 1.429 . S
C781 C782 1.523 . S
C782 C763 1.368 . S
C782 C776 1.368 . S
C782 C781 1.523 . S
C783 C767 1.429 . S
C783 C779 1.429 1_554 S
C783 C784 1.523 . S
C784 C768 1.368 . S
C784 C780 1.368 . S
C784 C783 1.523 . S
H785 C760 0.950 . S
H786 C762 0.950 . S
H787 C763 0.949 . S
H788 C765 0.950 . S
H789 C767 0.950 . S
C790 C791 1.349 . S
C790 C792 1.327 . S
C790 H815 0.950 . S
C791 C790 1.349 . S
C791 C807 1.349 . S
C792 C790 1.327 . S
C792 C811 1.429 . S
C792 H816 0.950 . S
C793 C810 1.574 . S
C793 C812 1.368 . S
C793 H817 0.949 . S
H794 C798 0.949 . S
C795 C796 1.349 . S
C795 C797 1.327 . S
C795 H818 0.950 . S
C796 C795 1.349 . S
C796 C808 1.349 . S
C797 C795 1.327 . S
C797 C813 1.429 . S
C797 H819 0.950 . S
C798 H794 0.949 . S
C798 C806 1.574 . S
C798 C814 1.368 . S
H799 C807 0.950 . S
H800 C805 0.950 . S
H801 C806 0.949 . S
H802 C808 0.950 . S
H803 C809 0.950 . S
H804 C810 0.949 . S
C805 H800 0.950 . S
C805 C807 1.327 . S
C805 C811 1.429 . S
C806 C798 1.574 . S
C806 H801 0.949 . S
C806 C812 1.368 . S
C807 C791 1.349 . S
C807 H799 0.950 . S
C807 C805 1.327 . S
C808 C796 1.349 . S
C808 H802 0.950 . S
C808 C809 1.327 . S
C809 H803 0.950 . S
C809 C808 1.327 . S
C809 C813 1.429 . S
C810 C793 1.574 . S
C810 H804 0.949 . S
C810 C814 1.368 . S
C811 C792 1.429 . S
C811 C805 1.429 . S
C811 C812 1.523 . S
C812 C793 1.368 . S
C812 C806 1.368 . S
C812 C811 1.523 . S
C813 C797 1.429 . S
C813 C809 1.429 . S
C813 C814 1.523 . S
C814 C798 1.368 . S
C814 C810 1.368 . S
C814 C813 1.523 . S
H815 C790 0.950 . S
H816 C792 0.950 . S
H817 C793 0.949 . S
H818 C795 0.950 . S
H819 C797 0.950 . S
C820 C821 1.349 . S
C820 C822 1.327 . S
C820 H845 0.950 . S
C821 C820 1.349 . S
C821 C837 1.349 . S
C822 C820 1.327 . S
C822 C841 1.429 . S
C822 H846 0.950 . S
C823 C840 1.574 . S
C823 C842 1.368 . S
C823 H847 0.949 . S
H824 C828 0.949 . S
C825 C826 1.349 . S
C825 C827 1.327 . S
C825 H848 0.950 . S
C826 C825 1.349 . S
C826 C838 1.349 . S
C827 C825 1.327 . S
C827 C843 1.429 . S
C827 H849 0.950 . S
C828 H824 0.949 . S
C828 C836 1.574 . S
C828 C844 1.368 . S
H829 C837 0.950 . S
H830 C835 0.950 . S
H831 C836 0.949 . S
H832 C838 0.950 . S
H833 C839 0.950 . S
H834 C840 0.949 . S
C835 H830 0.950 . S
C835 C837 1.327 . S
C835 C841 1.429 . S
C836 C828 1.574 . S
C836 H831 0.949 . S
C836 C842 1.368 . S
C837 C821 1.349 . S
C837 H829 0.950 . S
C837 C835 1.327 . S
C838 C826 1.349 . S
C838 H832 0.950 . S
C838 C839 1.327 . S
C839 H833 0.950 . S
C839 C838 1.327 . S
C839 C843 1.429 . S
C840 C823 1.574 . S
C840 H834 0.949 . S
C840 C844 1.368 . S
C841 C822 1.429 . S
C841 C835 1.429 . S
C841 C842 1.523 . S
C842 C823 1.368 . S
C842 C836 1.368 . S
C842 C841 1.523 . S
C843 C827 1.429 . S
C843 C839 1.429 . S
C843 C844 1.523 . S
C844 C828 1.368 . S
C844 C840 1.368 . S
C844 C843 1.523 . S
H845 C820 0.950 . S
H846 C822 0.950 . S
H847 C823 0.949 . S
H848 C825 0.950 . S
H849 C827 0.950 . S
C850 C851 1.349 . S
C850 C852 1.327 . S
C850 H875 0.950 . S
C851 C850 1.349 . S
C851 C867 1.349 . S
C852 C850 1.327 . S
C852 C871 1.429 . S
C852 H876 0.950 . S
C853 C870 1.574 . S
C853 C872 1.368 . S
C853 H877 0.949 . S
H854 C858 0.949 . S
C855 C856 1.349 . S
C855 C857 1.327 . S
C855 H878 0.950 . S
C856 C855 1.349 . S
C856 C868 1.349 . S
C857 C855 1.327 . S
C857 C873 1.429 . S
C857 H879 0.950 . S
C858 H854 0.949 . S
C858 C866 1.574 . S
C858 C874 1.368 . S
H859 C867 0.950 . S
H860 C865 0.950 . S
H861 C866 0.949 . S
H862 C868 0.950 . S
H863 C869 0.950 . S
H864 C870 0.949 . S
C865 H860 0.950 . S
C865 C867 1.327 . S
C865 C871 1.429 . S
C866 C858 1.574 . S
C866 H861 0.949 . S
C866 C872 1.368 . S
C867 C851 1.349 . S
C867 H859 0.950 . S
C867 C865 1.327 . S
C868 C856 1.349 . S
C868 H862 0.950 . S
C868 C869 1.327 . S
C869 H863 0.950 . S
C869 C868 1.327 . S
C869 C873 1.429 . S
C870 C853 1.574 . S
C870 H864 0.949 . S
C870 C874 1.368 . S
C871 C852 1.429 . S
C871 C865 1.429 . S
C871 C872 1.523 . S
C872 C853 1.368 . S
C872 C866 1.368 . S
C872 C871 1.523 . S
C873 C857 1.429 . S
C873 C869 1.429 . S
C873 C874 1.523 . S
C874 C858 1.368 . S
C874 C870 1.368 . S
C874 C873 1.523 . S
H875 C850 0.950 . S
H876 C852 0.950 . S
H877 C853 0.949 . S
H878 C855 0.950 . S
H879 C857 0.950 . S
C880 C881 1.349 . S
C880 C882 1.327 . S
C880 H905 0.950 . S
C881 C880 1.349 . S
C881 C897 1.349 . S
C882 C880 1.327 . S
C882 C901 1.429 . S
C882 H906 0.950 . S
C883 C900 1.574 . S
C883 C902 1.368 . S
C883 H907 0.949 . S
H884 C888 0.949 . S
C885 C886 1.349 . S
C885 C887 1.327 . S
C885 H908 0.950 . S
C886 C885 1.349 . S
C886 C898 1.349 . S
C887 C885 1.327 . S
C887 C903 1.429 . S
C887 H909 0.950 . S
C888 H884 0.949 . S
C888 C896 1.574 . S
C888 C904 1.368 . S
H889 C897 0.950 . S
H890 C895 0.950 . S
H891 C896 0.949 . S
H892 C898 0.950 . S
H893 C899 0.950 . S
H894 C900 0.949 . S
C895 H890 0.950 . S
C895 C897 1.327 . S
C895 C901 1.429 . S
C896 C888 1.574 . S
C896 H891 0.949 . S
C896 C902 1.368 . S
C897 C881 1.349 . S
C897 H889 0.950 . S
C897 C895 1.327 . S
C898 C886 1.349 . S
C898 H892 0.950 . S
C898 C899 1.327 . S
C899 H893 0.950 . S
C899 C898 1.327 . S
C899 C903 1.429 . S
C900 C883 1.574 . S
C900 H894 0.949 . S
C900 C904 1.368 . S
C901 C882 1.429 . S
C901 C895 1.429 . S
C901 C902 1.523 . S
C902 C883 1.368 . S
C902 C896 1.368 . S
C902 C901 1.523 . S
C903 C887 1.429 . S
C903 C899 1.429 . S
C903 C904 1.523 . S
C904 C888 1.368 . S
C904 C900 1.368 . S
C904 C903 1.523 . S
H905 C880 0.950 . S
H906 C882 0.950 . S
H907 C883 0.949 . S
H908 C885 0.950 . S
H909 C887 0.950 . S
C910 C911 1.349 . S
C910 C912 1.327 . S
C910 H935 0.950 . S
C911 C910 1.349 . S
C911 C927 1.349 . S
C912 C910 1.327 . S
C912 C931 1.429 . S
C912 H936 0.950 . S
C913 C930 1.574 . S
C913 C932 1.368 . S
C913 H937 0.949 . S
H914 C918 0.949 . S
C915 C916 1.349 . S
C915 C917 1.327 . S
C915 H938 0.950 . S
C916 C915 1.349 . S
C916 C928 1.349 . S
C917 C915 1.327 . S
C917 C933 1.429 . S
C917 H939 0.950 . S
C918 H914 0.949 . S
C918 C926 1.574 . S
C918 C934 1.368 . S
H919 C927 0.950 . S
H920 C925 0.950 . S
H921 C926 0.949 . S
H922 C928 0.950 . S
H923 C929 0.950 . S
H924 C930 0.949 . S
C925 H920 0.950 . S
C925 C927 1.327 . S
C925 C931 1.429 . S
C926 C918 1.574 . S
C926 H921 0.949 . S
C926 C932 1.368 . S
C927 C911 1.349 . S
C927 H919 0.950 . S
C927 C925 1.327 . S
C928 C916 1.349 . S
C928 H922 0.950 . S
C928 C929 1.327 . S
C929 H923 0.950 . S
C929 C928 1.327 . S
C929 C933 1.429 . S
C930 C913 1.574 . S
C930 H924 0.949 . S
C930 C934 1.368 . S
C931 C912 1.429 . S
C931 C925 1.429 . S
C931 C932 1.523 . S
C932 C913 1.368 . S
C932 C926 1.368 . S
C932 C931 1.523 . S
C933 C917 1.429 . S
C933 C929 1.429 . S
C933 C934 1.523 . S
C934 C918 1.368 . S
C934 C930 1.368 . S
C934 C933 1.523 . S
H935 C910 0.950 . S
H936 C912 0.950 . S
H937 C913 0.949 . S
H938 C915 0.950 . S
H939 C917 0.950 . S
C940 C941 1.349 . S
C940 C942 1.327 . S
C940 H965 0.950 . S
C941 C940 1.349 . S
C941 C957 1.349 . S
C942 C940 1.327 . S
C942 C961 1.429 1_554 S
C942 H966 0.950 . S
C943 C960 1.574 . S
C943 C962 1.368 . S
C943 H967 0.949 . S
H944 C948 0.949 . S
C945 C946 1.349 . S
C945 C947 1.327 . S
C945 H968 0.950 . S
C946 C945 1.349 . S
C946 C958 1.349 . S
C947 C945 1.327 . S
C947 C963 1.429 . S
C947 H969 0.950 . S
C948 H944 0.949 . S
C948 C956 1.574 . S
C948 C964 1.368 . S
H949 C957 0.950 . S
H950 C955 0.950 . S
H951 C956 0.949 . S
H952 C958 0.950 . S
H953 C959 0.950 . S
H954 C960 0.949 . S
C955 H950 0.950 . S
C955 C957 1.327 1_556 S
C955 C961 1.429 . S
C956 C948 1.574 . S
C956 H951 0.949 . S
C956 C962 1.368 . S
C957 C941 1.349 . S
C957 H949 0.950 . S
C957 C955 1.327 1_554 S
C958 C946 1.349 . S
C958 H952 0.950 . S
C958 C959 1.327 . S
C959 H953 0.950 . S
C959 C958 1.327 . S
C959 C963 1.429 . S
C960 C943 1.574 . S
C960 H954 0.949 . S
C960 C964 1.368 . S
C961 C942 1.429 1_556 S
C961 C955 1.429 . S
C961 C962 1.523 . S
C962 C943 1.368 . S
C962 C956 1.368 . S
C962 C961 1.523 . S
C963 C947 1.429 . S
C963 C959 1.429 . S
C963 C964 1.523 . S
C964 C948 1.368 . S
C964 C960 1.368 . S
C964 C963 1.523 . S
H965 C940 0.950 . S
H966 C942 0.950 . S
H967 C943 0.949 . S
H968 C945 0.950 . S
H969 C947 0.950 . S
C970 C971 1.349 . S
C970 C972 1.327 . S
C970 H995 0.950 . S
C971 C970 1.349 . S
C971 C987 1.349 . S
C972 C970 1.327 . S
C972 C991 1.429 . S
C972 H996 0.950 . S
C973 C990 1.574 . S
C973 C992 1.368 . S
C973 H997 0.949 . S
H974 C978 0.949 . S
C975 C976 1.349 . S
C975 C977 1.327 . S
C975 H998 0.950 . S
C976 C975 1.349 . S
C976 C988 1.349 . S
C977 C975 1.327 . S
C977 C993 1.429 . S
C977 H999 0.950 . S
C978 H974 0.949 . S
C978 C986 1.574 . S
C978 C994 1.368 . S
H979 C987 0.950 . S
H980 C985 0.950 . S
H981 C986 0.949 . S
H982 C988 0.950 . S
H983 C989 0.950 . S
H984 C990 0.949 . S
C985 H980 0.950 . S
C985 C987 1.327 . S
C985 C991 1.429 . S
C986 C978 1.574 . S
C986 H981 0.949 . S
C986 C992 1.368 . S
C987 C971 1.349 . S
C987 H979 0.950 . S
C987 C985 1.327 . S
C988 C976 1.349 . S
C988 H982 0.950 . S
C988 C989 1.327 . S
C989 H983 0.950 . S
C989 C988 1.327 . S
C989 C993 1.429 . S
C990 C973 1.574 . S
C990 H984 0.949 . S
C990 C994 1.368 . S
C991 C972 1.429 . S
C991 C985 1.429 . S
C991 C992 1.523 . S
C992 C973 1.368 . S
C992 C986 1.368 . S
C992 C991 1.523 . S
C993 C977 1.429 . S
C993 C989 1.429 . S
C993 C994 1.523 . S
C994 C978 1.368 . S
C994 C990 1.368 . S
C994 C993 1.523 . S
H995 C970 0.950 . S
H996 C972 0.950 . S
H997 C973 0.949 . S
H998 C975 0.950 . S
H999 C977 0.950 . S
C1000 C1001 1.349 . S
C1000 C1002 1.327 . S
C1000 H1025 0.950 . S
C1001 C1000 1.349 . S
C1001 C1017 1.349 . S
C1002 C1000 1.327 . S
C1002 C1021 1.429 . S
C1002 H1026 0.950 . S
C1003 C1020 1.574 . S
C1003 C1022 1.368 . S
C1003 H1027 0.949 . S
H1004 C1008 0.949 . S
C1005 C1006 1.349 . S
C1005 C1007 1.327 . S
C1005 H1028 0.950 . S
C1006 C1005 1.349 . S
C1006 C1018 1.349 . S
C1007 C1005 1.327 . S
C1007 C1023 1.429 . S
C1007 H1029 0.950 . S
C1008 H1004 0.949 . S
C1008 C1016 1.574 . S
C1008 C1024 1.368 . S
H1009 C1017 0.950 . S
H1010 C1015 0.950 . S
H1011 C1016 0.949 . S
H1012 C1018 0.950 . S
H1013 C1019 0.950 . S
H1014 C1020 0.949 . S
C1015 H1010 0.950 . S
C1015 C1017 1.327 . S
C1015 C1021 1.429 . S
C1016 C1008 1.574 . S
C1016 H1011 0.949 . S
C1016 C1022 1.368 . S
C1017 C1001 1.349 . S
C1017 H1009 0.950 . S
C1017 C1015 1.327 . S
C1018 C1006 1.349 . S
C1018 H1012 0.950 . S
C1018 C1019 1.327 . S
C1019 H1013 0.950 . S
C1019 C1018 1.327 . S
C1019 C1023 1.429 . S
C1020 C1003 1.574 . S
C1020 H1014 0.949 . S
C1020 C1024 1.368 . S
C1021 C1002 1.429 . S
C1021 C1015 1.429 . S
C1021 C1022 1.523 . S
C1022 C1003 1.368 . S
C1022 C1016 1.368 . S
C1022 C1021 1.523 . S
C1023 C1007 1.429 . S
C1023 C1019 1.429 . S
C1023 C1024 1.523 . S
C1024 C1008 1.368 . S
C1024 C1020 1.368 . S
C1024 C1023 1.523 . S
H1025 C1000 0.950 . S
H1026 C1002 0.950 . S
H1027 C1003 0.949 . S
H1028 C1005 0.950 . S
H1029 C1007 0.950 . S
C1030 C1031 1.349 . S
C1030 C1032 1.327 . S
C1030 H1055 0.950 . S
C1031 C1030 1.349 . S
C1031 C1047 1.349 . S
C1032 C1030 1.327 . S
C1032 C1051 1.429 . S
C1032 H1056 0.950 . S
C1033 C1050 1.574 . S
C1033 C1052 1.368 . S
C1033 H1057 0.949 . S
H1034 C1038 0.949 . S
C1035 C1036 1.349 . S
C1035 C1037 1.327 . S
C1035 H1058 0.950 . S
C1036 C1035 1.349 . S
C1036 C1048 1.349 . S
C1037 C1035 1.327 . S
C1037 C1053 1.429 . S
C1037 H1059 0.950 . S
C1038 H1034 0.949 . S
C1038 C1046 1.574 . S
C1038 C1054 1.368 . S
H1039 C1047 0.950 . S
H1040 C1045 0.950 . S
H1041 C1046 0.949 . S
H1042 C1048 0.950 . S
H1043 C1049 0.950 . S
H1044 C1050 0.949 . S
C1045 H1040 0.950 . S
C1045 C1047 1.327 . S
C1045 C1051 1.429 . S
C1046 C1038 1.574 . S
C1046 H1041 0.949 . S
C1046 C1052 1.368 . S
C1047 C1031 1.349 . S
C1047 H1039 0.950 . S
C1047 C1045 1.327 . S
C1048 C1036 1.349 . S
C1048 H1042 0.950 . S
C1048 C1049 1.327 . S
C1049 H1043 0.950 . S
C1049 C1048 1.327 . S
C1049 C1053 1.429 . S
C1050 C1033 1.574 . S
C1050 H1044 0.949 . S
C1050 C1054 1.368 . S
C1051 C1032 1.429 . S
C1051 C1045 1.429 . S
C1051 C1052 1.523 . S
C1052 C1033 1.368 . S
C1052 C1046 1.368 . S
C1052 C1051 1.523 . S
C1053 C1037 1.429 . S
C1053 C1049 1.429 . S
C1053 C1054 1.523 . S
C1054 C1038 1.368 . S
C1054 C1050 1.368 . S
C1054 C1053 1.523 . S
H1055 C1030 0.950 . S
H1056 C1032 0.950 . S
H1057 C1033 0.949 . S
H1058 C1035 0.950 . S
H1059 C1037 0.950 . S
C1060 C1061 1.349 . S
C1060 C1062 1.327 . S
C1060 H1085 0.950 . S
C1061 C1060 1.349 . S
C1061 C1077 1.349 . S
C1062 C1060 1.327 . S
C1062 C1081 1.429 . S
C1062 H1086 0.950 . S
C1063 C1080 1.574 . S
C1063 C1082 1.368 . S
C1063 H1087 0.949 . S
H1064 C1068 0.949 . S
C1065 C1066 1.349 . S
C1065 C1067 1.327 1_556 S
C1065 H1088 0.950 . S
C1066 C1065 1.349 . S
C1066 C1078 1.349 . S
C1067 C1065 1.327 1_554 S
C1067 C1083 1.429 . S
C1067 H1089 0.950 . S
C1068 H1064 0.949 . S
C1068 C1076 1.574 . S
C1068 C1084 1.368 . S
H1069 C1077 0.950 . S
H1070 C1075 0.950 . S
H1071 C1076 0.949 . S
H1072 C1078 0.950 . S
H1073 C1079 0.950 . S
H1074 C1080 0.949 . S
C1075 H1070 0.950 . S
C1075 C1077 1.327 . S
C1075 C1081 1.429 . S
C1076 C1068 1.574 . S
C1076 H1071 0.949 . S
C1076 C1082 1.368 . S
C1077 C1061 1.349 . S
C1077 H1069 0.950 . S
C1077 C1075 1.327 . S
C1078 C1066 1.349 . S
C1078 H1072 0.950 . S
C1078 C1079 1.327 . S
C1079 H1073 0.950 . S
C1079 C1078 1.327 . S
C1079 C1083 1.429 1_556 S
C1080 C1063 1.574 . S
C1080 H1074 0.949 . S
C1080 C1084 1.368 . S
C1081 C1062 1.429 . S
C1081 C1075 1.429 . S
C1081 C1082 1.523 . S
C1082 C1063 1.368 . S
C1082 C1076 1.368 . S
C1082 C1081 1.523 . S
C1083 C1067 1.429 . S
C1083 C1079 1.429 1_554 S
C1083 C1084 1.523 . S
C1084 C1068 1.368 . S
C1084 C1080 1.368 . S
C1084 C1083 1.523 . S
H1085 C1060 0.950 . S
H1086 C1062 0.950 . S
H1087 C1063 0.949 . S
H1088 C1065 0.950 . S
H1089 C1067 0.950 . S
C1090 C1091 1.349 . S
C1090 C1092 1.327 . S
C1090 H1115 0.950 . S
C1091 C1090 1.349 . S
C1091 C1107 1.349 . S
C1092 C1090 1.327 . S
C1092 C1111 1.429 . S
C1092 H1116 0.950 . S
C1093 C1110 1.574 . S
C1093 C1112 1.368 . S
C1093 H1117 0.949 . S
H1094 C1098 0.949 . S
C1095 C1096 1.349 . S
C1095 C1097 1.327 . S
C1095 H1118 0.950 . S
C1096 C1095 1.349 . S
C1096 C1108 1.349 . S
C1097 C1095 1.327 . S
C1097 C1113 1.429 . S
C1097 H1119 0.950 . S
C1098 H1094 0.949 . S
C1098 C1106 1.574 . S
C1098 C1114 1.368 . S
H1099 C1107 0.950 . S
H1100 C1105 0.950 . S
H1101 C1106 0.949 . S
H1102 C1108 0.950 . S
H1103 C1109 0.950 . S
H1104 C1110 0.949 . S
C1105 H1100 0.950 . S
C1105 C1107 1.327 . S
C1105 C1111 1.429 . S
C1106 C1098 1.574 . S
C1106 H1101 0.949 . S
C1106 C1112 1.368 . S
C1107 C1091 1.349 . S
C1107 H1099 0.950 . S
C1107 C1105 1.327 . S
C1108 C1096 1.349 . S
C1108 H1102 0.950 . S
C1108 C1109 1.327 . S
C1109 H1103 0.950 . S
C1109 C1108 1.327 . S
C1109 C1113 1.429 . S
C1110 C1093 1.574 . S
C1110 H1104 0.949 . S
C1110 C1114 1.368 . S
C1111 C1092 1.429 . S
C1111 C1105 1.429 . S
C1111 C1112 1.523 . S
C1112 C1093 1.368 . S
C1112 C1106 1.368 . S
C1112 C1111 1.523 . S
C1113 C1097 1.429 . S
C1113 C1109 1.429 . S
C1113 C1114 1.523 . S
C1114 C1098 1.368 . S
C1114 C1110 1.368 . S
C1114 C1113 1.523 . S
H1115 C1090 0.950 . S
H1116 C1092 0.950 . S
H1117 C1093 0.949 . S
H1118 C1095 0.950 . S
H1119 C1097 0.950 . S
C1120 C1121 1.349 . S
C1120 C1122 1.327 . S
C1120 H1145 0.950 . S
C1121 C1120 1.349 . S
C1121 C1137 1.349 . S
C1122 C1120 1.327 . S
C1122 C1141 1.429 . S
C1122 H1146 0.950 . S
C1123 C1140 1.574 . S
C1123 C1142 1.368 1_655 S
C1123 H1147 0.949 . S
H1124 C1128 0.949 . S
C1125 C1126 1.349 1_655 S
C1125 C1127 1.327 . S
C1125 H1148 0.950 . S
C1126 C1125 1.349 1_455 S
C1126 C1138 1.349 . S
C1127 C1125 1.327 . S
C1127 C1143 1.429 1_655 S
C1127 H1149 0.950 . S
C1128 H1124 0.949 . S
C1128 C1136 1.574 . S
C1128 C1144 1.368 . S
H1129 C1137 0.950 1_655 S
H1130 C1135 0.948 1_655 S
H1131 C1136 0.949 . S
H1132 C1138 0.950 . S
H1133 C1139 0.950 . S
H1134 C1140 0.949 . S
C1135 H1130 0.948 1_455 S
C1135 C1137 1.327 . S
C1135 C1141 1.429 . S
C1136 C1128 1.574 . S
C1136 H1131 0.949 . S
C1136 C1142 1.368 . S
C1137 C1121 1.349 . S
C1137 H1129 0.950 1_455 S
C1137 C1135 1.327 . S
C1138 C1126 1.349 . S
C1138 H1132 0.950 . S
C1138 C1139 1.327 . S
C1139 H1133 0.950 . S
C1139 C1138 1.327 . S
C1139 C1143 1.429 . S
C1140 C1123 1.574 . S
C1140 H1134 0.949 . S
C1140 C1144 1.368 1_655 S
C1141 C1122 1.429 . S
C1141 C1135 1.429 . S
C1141 C1142 1.523 . S
C1142 C1123 1.368 1_455 S
C1142 C1136 1.368 . S
C1142 C1141 1.523 . S
C1143 C1127 1.429 1_455 S
C1143 C1139 1.429 . S
C1143 C1144 1.523 . S
C1144 C1128 1.368 . S
C1144 C1140 1.368 1_455 S
C1144 C1143 1.523 . S
H1145 C1120 0.950 . S
H1146 C1122 0.950 . S
H1147 C1123 0.949 . S
H1148 C1125 0.950 . S
H1149 C1127 0.950 . S
C1150 C1151 1.349 . S
C1150 C1152 1.327 . S
C1150 H1175 0.950 . S
C1151 C1150 1.349 . S
C1151 C1167 1.349 . S
C1152 C1150 1.327 . S
C1152 C1171 1.429 . S
C1152 H1176 0.950 . S
C1153 C1170 1.574 1_655 S
C1153 C1172 1.368 . S
C1153 H1177 0.949 . S
H1154 C1158 0.949 . S
C1155 C1156 1.349 . S
C1155 C1157 1.327 . S
C1155 H1178 0.950 . S
C1156 C1155 1.349 . S
C1156 C1168 1.349 . S
C1157 C1155 1.327 . S
C1157 C1173 1.429 . S
C1157 H1179 0.950 . S
C1158 H1154 0.949 . S
C1158 C1166 1.574 1_455 S
C1158 C1174 1.368 . S
H1159 C1167 0.950 . S
H1160 C1165 0.950 . S
H1161 C1166 0.949 . S
H1162 C1168 0.950 . S
H1163 C1169 0.950 . S
H1164 C1170 0.949 . S
C1165 H1160 0.950 . S
C1165 C1167 1.327 . S
C1165 C1171 1.429 . S
C1166 C1158 1.574 1_655 S
C1166 H1161 0.949 . S
C1166 C1172 1.368 . S
C1167 C1151 1.349 . S
C1167 H1159 0.950 . S
C1167 C1165 1.327 . S
C1168 C1156 1.349 . S
C1168 H1162 0.950 . S
C1168 C1169 1.327 . S
C1169 H1163 0.950 . S
C1169 C1168 1.327 . S
C1169 C1173 1.429 . S
C1170 C1153 1.574 1_455 S
C1170 H1164 0.949 . S
C1170 C1174 1.368 . S
C1171 C1152 1.429 . S
C1171 C1165 1.429 . S
C1171 C1172 1.523 . S
C1172 C1153 1.368 . S
C1172 C1166 1.368 . S
C1172 C1171 1.523 . S
C1173 C1157 1.429 . S
C1173 C1169 1.429 . S
C1173 C1174 1.523 . S
C1174 C1158 1.368 . S
C1174 C1170 1.368 . S
C1174 C1173 1.523 . S
H1175 C1150 0.950 . S
H1176 C1152 0.950 . S
H1177 C1153 0.949 . S
H1178 C1155 0.950 . S
H1179 C1157 0.950 . S
C1180 C1181 1.349 . S
C1180 C1182 1.327 . S
C1180 H1205 0.950 . S
C1181 C1180 1.349 . S
C1181 C1197 1.349 . S
C1182 C1180 1.327 . S
C1182 C1201 1.429 . S
C1182 H1206 0.950 . S
C1183 C1200 1.574 . S
C1183 C1202 1.368 . S
C1183 H1207 0.949 . S
H1184 C1188 0.949 . S
C1185 C1186 1.349 . S
C1185 C1187 1.327 . S
C1185 H1208 0.950 . S
C1186 C1185 1.349 . S
C1186 C1198 1.349 . S
C1187 C1185 1.327 . S
C1187 C1203 1.429 . S
C1187 H1209 0.950 . S
C1188 H1184 0.949 . S
C1188 C1196 1.574 . S
C1188 C1204 1.368 . S
H1189 C1197 0.950 . S
H1190 C1195 0.950 . S
H1191 C1196 0.949 . S
H1192 C1198 0.950 . S
H1193 C1199 0.950 . S
H1194 C1200 0.949 . S
C1195 H1190 0.950 . S
C1195 C1197 1.327 . S
C1195 C1201 1.429 . S
C1196 C1188 1.574 . S
C1196 H1191 0.949 . S
C1196 C1202 1.368 . S
C1197 C1181 1.349 . S
C1197 H1189 0.950 . S
C1197 C1195 1.327 . S
C1198 C1186 1.349 . S
C1198 H1192 0.950 . S
C1198 C1199 1.327 . S
C1199 H1193 0.950 . S
C1199 C1198 1.327 . S
C1199 C1203 1.429 . S
C1200 C1183 1.574 . S
C1200 H1194 0.949 . S
C1200 C1204 1.368 . S
C1201 C1182 1.429 . S
C1201 C1195 1.429 . S
C1201 C1202 1.523 . S
C1202 C1183 1.368 . S
C1202 C1196 1.368 . S
C1202 C1201 1.523 . S
C1203 C1187 1.429 . S
C1203 C1199 1.429 . S
C1203 C1204 1.523 . S
C1204 C1188 1.368 . S
C1204 C1200 1.368 . S
C1204 C1203 1.523 . S
H1205 C1180 0.950 . S
H1206 C1182 0.950 . S
H1207 C1183 0.949 . S
H1208 C1185 0.950 . S
H1209 C1187 0.950 . S
C1210 C1211 1.349 . S
C1210 C1212 1.327 . S
C1210 H1235 0.950 . S
C1211 C1210 1.349 . S
C1211 C1227 1.349 . S
C1212 C1210 1.327 . S
C1212 C1231 1.429 . S
C1212 H1236 0.950 . S
C1213 C1230 1.574 . S
C1213 C1232 1.368 . S
C1213 H1237 0.949 . S
H1214 C1218 0.949 . S
C1215 C1216 1.349 . S
C1215 C1217 1.327 . S
C1215 H1238 0.950 . S
C1216 C1215 1.349 . S
C1216 C1228 1.349 . S
C1217 C1215 1.327 . S
C1217 C1233 1.429 . S
C1217 H1239 0.950 . S
C1218 H1214 0.949 . S
C1218 C1226 1.574 . S
C1218 C1234 1.368 . S
H1219 C1227 0.950 . S
H1220 C1225 0.950 . S
H1221 C1226 0.949 . S
H1222 C1228 0.950 . S
H1223 C1229 0.950 . S
H1224 C1230 0.949 . S
C1225 H1220 0.950 . S
C1225 C1227 1.327 . S
C1225 C1231 1.429 . S
C1226 C1218 1.574 . S
C1226 H1221 0.949 . S
C1226 C1232 1.368 . S
C1227 C1211 1.349 . S
C1227 H1219 0.950 . S
C1227 C1225 1.327 . S
C1228 C1216 1.349 . S
C1228 H1222 0.950 . S
C1228 C1229 1.327 . S
C1229 H1223 0.950 . S
C1229 C1228 1.327 . S
C1229 C1233 1.429 . S
C1230 C1213 1.574 . S
C1230 H1224 0.949 . S
C1230 C1234 1.368 . S
C1231 C1212 1.429 . S
C1231 C1225 1.429 . S
C1231 C1232 1.523 . S
C1232 C1213 1.368 . S
C1232 C1226 1.368 . S
C1232 C1231 1.523 . S
C1233 C1217 1.429 . S
C1233 C1229 1.429 . S
C1233 C1234 1.523 . S
C1234 C1218 1.368 . S
C1234 C1230 1.368 . S
C1234 C1233 1.523 . S
H1235 C1210 0.950 . S
H1236 C1212 0.950 . S
H1237 C1213 0.949 . S
H1238 C1215 0.950 . S
H1239 C1217 0.950 . S
C1240 C1241 1.349 . S
C1240 C1242 1.327 . S
C1240 H1265 0.950 1_455 S
C1241 C1240 1.349 . S
C1241 C1257 1.349 . S
C1242 C1240 1.327 . S
C1242 C1261 1.429 . S
C1242 H1266 0.948 1_455 S
C1243 C1260 1.574 . S
C1243 C1262 1.368 . S
C1243 H1267 0.949 . S
H1244 C1248 0.949 . S
C1245 C1246 1.349 . S
C1245 C1247 1.327 . S
C1245 H1268 0.950 . S
C1246 C1245 1.349 . S
C1246 C1258 1.349 1_455 S
C1247 C1245 1.327 . S
C1247 C1263 1.429 . S
C1247 H1269 0.950 . S
C1248 H1244 0.949 . S
C1248 C1256 1.574 . S
C1248 C1264 1.368 1_655 S
H1249 C1257 0.950 . S
H1250 C1255 0.950 . S
H1251 C1256 0.949 . S
H1252 C1258 0.950 . S
H1253 C1259 0.950 . S
H1254 C1260 0.949 . S
C1255 H1250 0.950 . S
C1255 C1257 1.327 . S
C1255 C1261 1.429 . S
C1256 C1248 1.574 . S
C1256 H1251 0.949 . S
C1256 C1262 1.368 1_655 S
C1257 C1241 1.349 . S
C1257 H1249 0.950 . S
C1257 C1255 1.327 . S
C1258 C1246 1.349 1_655 S
C1258 H1252 0.950 . S
C1258 C1259 1.327 . S
C1259 H1253 0.950 . S
C1259 C1258 1.327 . S
C1259 C1263 1.429 1_655 S
C1260 C1243 1.574 . S
C1260 H1254 0.949 . S
C1260 C1264 1.368 . S
C1261 C1242 1.429 . S
C1261 C1255 1.429 . S
C1261 C1262 1.523 . S
C1262 C1243 1.368 . S
C1262 C1256 1.368 1_455 S
C1262 C1261 1.523 . S
C1263 C1247 1.429 . S
C1263 C1259 1.429 1_455 S
C1263 C1264 1.523 . S
C1264 C1248 1.368 1_455 S
C1264 C1260 1.368 . S
C1264 C1263 1.523 . S
H1265 C1240 0.950 1_655 S
H1266 C1242 0.948 1_655 S
H1267 C1243 0.949 . S
H1268 C1245 0.950 . S
H1269 C1247 0.950 . S
C1270 C1271 1.349 . S
C1270 C1272 1.327 . S
C1270 H1295 0.950 . S
C1271 C1270 1.349 . S
C1271 C1287 1.349 . S
C1272 C1270 1.327 . S
C1272 C1291 1.429 . S
C1272 H1296 0.950 . S
C1273 C1290 1.574 . S
C1273 C1292 1.368 . S
C1273 H1297 0.949 . S
H1274 C1278 0.949 . S
C1275 C1276 1.349 . S
C1275 C1277 1.327 . S
C1275 H1298 0.950 . S
C1276 C1275 1.349 . S
C1276 C1288 1.349 . S
C1277 C1275 1.327 . S
C1277 C1293 1.429 . S
C1277 H1299 0.950 . S
C1278 H1274 0.949 . S
C1278 C1286 1.574 . S
C1278 C1294 1.368 . S
H1279 C1287 0.950 . S
H1280 C1285 0.950 . S
H1281 C1286 0.949 . S
H1282 C1288 0.950 . S
H1283 C1289 0.950 . S
H1284 C1290 0.949 . S
C1285 H1280 0.950 . S
C1285 C1287 1.327 . S
C1285 C1291 1.429 . S
C1286 C1278 1.574 . S
C1286 H1281 0.949 . S
C1286 C1292 1.368 . S
C1287 C1271 1.349 . S
C1287 H1279 0.950 . S
C1287 C1285 1.327 . S
C1288 C1276 1.349 . S
C1288 H1282 0.950 . S
C1288 C1289 1.327 . S
C1289 H1283 0.950 . S
C1289 C1288 1.327 . S
C1289 C1293 1.429 . S
C1290 C1273 1.574 . S
C1290 H1284 0.949 . S
C1290 C1294 1.368 . S
C1291 C1272 1.429 . S
C1291 C1285 1.429 . S
C1291 C1292 1.523 . S
C1292 C1273 1.368 . S
C1292 C1286 1.368 . S
C1292 C1291 1.523 . S
C1293 C1277 1.429 . S
C1293 C1289 1.429 . S
C1293 C1294 1.523 . S
C1294 C1278 1.368 . S
C1294 C1290 1.368 . S
C1294 C1293 1.523 . S
H1295 C1270 0.950 . S
H1296 C1272 0.950 . S
H1297 C1273 0.949 . S
H1298 C1275 0.950 . S
H1299 C1277 0.950 . S
C1300 C1301 1.349 . S
C1300 C1302 1.327 . S
C1300 H1325 0.950 . S
C1301 C1300 1.349 . S
C1301 C1317 1.349 . S
C1302 C1300 1.327 . S
C1302 C1321 1.429 . S
C1302 H1326 0.950 . S
C1303 C1320 1.574 . S
C1303 C1322 1.368 . S
C1303 H1327 0.949 . S
H1304 C1308 0.949 . S
C1305 C1306 1.349 . S
C1305 C1307 1.327 . S
C1305 H1328 0.950 . S
C1306 C1305 1.349 . S
C1306 C1318 1.349 . S
C1307 C1305 1.327 . S
C1307 C1323 1.429 . S
C1307 H1329 0.950 . S
C1308 H1304 0.949 . S
C1308 C1316 1.574 . S
C1308 C1324 1.368 . S
H1309 C1317 0.950 . S
H1310 C1315 0.950 . S
H1311 C1316 0.949 . S
H1312 C1318 0.950 . S
H1313 C1319 0.950 . S
H1314 C1320 0.949 . S
C1315 H1310 0.950 . S
C1315 C1317 1.327 . S
C1315 C1321 1.429 . S
C1316 C1308 1.574 . S
C1316 H1311 0.949 . S
C1316 C1322 1.368 . S
C1317 C1301 1.349 . S
C1317 H1309 0.950 . S
C1317 C1315 1.327 . S
C1318 C1306 1.349 . S
C1318 H1312 0.950 . S
C1318 C1319 1.327 . S
C1319 H1313 0.950 . S
C1319 C1318 1.327 . S
C1319 C1323 1.429 . S
C1320 C1303 1.574 . S
C1320 H1314 0.949 . S
C1320 C1324 1.368 . S
C1321 C1302 1.429 . S
C1321 C1315 1.429 . S
C1321 C1322 1.523 . S
C1322 C1303 1.368 . S
C1322 C1316 1.368 . S
C1322 C1321 1.523 . S
C1323 C1307 1.429 . S
C1323 C1319 1.429 . S
C1323 C1324 1.523 . S
C1324 C1308 1.368 . S
C1324 C1320 1.368 . S
C1324 C1323 1.523 . S
H1325 C1300 0.950 . S
H1326 C1302 0.950 . S
H1327 C1303 0.949 . S
H1328 C1305 0.950 . S
H1329 C1307 0.950 . S
C1330 C1331 1.349 . S
C1330 C1332 1.327 . S
C1330 H1355 0.950 . S
C1331 C1330 1.349 . S
C1331 C1347 1.349 . S
C1332 C1330 1.327 . S
C1332 C1351 1.429 . S
C1332 H1356 0.950 . S
C1333 C1350 1.574 1_455 S
C1333 C1352 1.368 . S
C1333 H1357 0.949 . S
H1334 C1338 0.949 . S
C1335 C1336 1.349 . S
C1335 C1337 1.327 . S
C1335 H1358 0.950 . S
C1336 C1335 1.349 . S
C1336 C1348 1.349 . S
C1337 C1335 1.327 . S
C1337 C1353 1.429 . S
C1337 H1359 0.950 . S
C1338 H1334 0.949 . S
C1338 C1346 1.574 1_655 S
C1338 C1354 1.368 . S
H1339 C1347 0.950 . S
H1340 C1345 0.950 . S
H1341 C1346 0.949 . S
H1342 C1348 0.950 . S
H1343 C1349 0.950 . S
H1344 C1350 0.949 . S
C1345 H1340 0.950 . S
C1345 C1347 1.327 . S
C1345 C1351 1.429 . S
C1346 C1338 1.574 1_455 S
C1346 H1341 0.949 . S
C1346 C1352 1.368 . S
C1347 C1331 1.349 . S
C1347 H1339 0.950 . S
C1347 C1345 1.327 . S
C1348 C1336 1.349 . S
C1348 H1342 0.950 . S
C1348 C1349 1.327 . S
C1349 H1343 0.950 . S
C1349 C1348 1.327 . S
C1349 C1353 1.429 . S
C1350 C1333 1.574 1_655 S
C1350 H1344 0.949 . S
C1350 C1354 1.368 . S
C1351 C1332 1.429 . S
C1351 C1345 1.429 . S
C1351 C1352 1.523 . S
C1352 C1333 1.368 . S
C1352 C1346 1.368 . S
C1352 C1351 1.523 . S
C1353 C1337 1.429 . S
C1353 C1349 1.429 . S
C1353 C1354 1.523 . S
C1354 C1338 1.368 . S
C1354 C1350 1.368 . S
C1354 C1353 1.523 . S
H1355 C1330 0.950 . S
H1356 C1332 0.950 . S
H1357 C1333 0.949 . S
H1358 C1335 0.950 . S
H1359 C1337 0.950 . S
C1360 C1361 1.349 . S
C1360 C1362 1.327 . S
C1360 H1385 0.950 . S
C1361 C1360 1.349 . S
C1361 C1377 1.349 1_455 S
C1362 C1360 1.327 . S
C1362 C1381 1.429 . S
C1362 H1386 0.950 . S
C1363 C1380 1.574 . S
C1363 C1382 1.368 1_665 S
C1363 H1387 0.949 . S
H1364 C1368 0.949 . S
C1365 C1366 1.349 . S
C1365 C1367 1.328 . S
C1365 H1388 0.950 1_455 S
C1366 C1365 1.349 . S
C1366 C1378 1.349 . S
C1367 C1365 1.328 . S
C1367 C1383 1.433 . S
C1367 H1389 0.944 1_455 S
C1368 H1364 0.949 . S
C1368 C1376 1.574 . S
C1368 C1384 1.368 1_545 S
H1369 C1377 0.950 . S
H1370 C1375 0.950 . S
H1371 C1376 0.949 . S
H1372 C1378 0.950 . S
H1373 C1379 0.950 . S
H1374 C1380 0.949 . S
C1375 H1370 0.950 . S
C1375 C1377 1.327 . S
C1375 C1381 1.429 1_655 S
C1376 C1368 1.574 . S
C1376 H1371 0.949 . S
C1376 C1382 1.368 1_556 S
C1377 C1361 1.349 1_655 S
C1377 H1369 0.950 . S
C1377 C1375 1.327 . S
C1378 C1366 1.349 . S
C1378 H1372 0.950 . S
C1378 C1379 1.327 . S
C1379 H1373 0.950 . S
C1379 C1378 1.327 . S
C1379 C1383 1.429 . S
C1380 C1363 1.574 . S
C1380 H1374 0.949 . S
C1380 C1384 1.368 1_654 S
C1381 C1362 1.429 . S
C1381 C1375 1.429 1_455 S
C1381 C1382 1.523 . S
C1382 C1363 1.368 1_445 S
C1382 C1376 1.368 1_554 S
C1382 C1381 1.523 . S
C1383 C1367 1.433 . S
C1383 C1379 1.429 . S
C1383 C1384 1.523 . S
C1384 C1368 1.368 1_565 S
C1384 C1380 1.368 1_456 S
C1384 C1383 1.523 . S
H1385 C1360 0.950 . S
H1386 C1362 0.950 . S
H1387 C1363 0.949 . S
H1388 C1365 0.950 1_655 S
H1389 C1367 0.944 1_655 S
C1390 C1391 1.349 . S
C1390 C1392 1.327 . S
C1390 H1415 0.950 . S
C1391 C1390 1.349 . S
C1391 C1407 1.349 . S
C1392 C1390 1.327 . S
C1392 C1411 1.429 . S
C1392 H1416 0.950 . S
C1393 C1410 1.574 . S
C1393 C1412 1.368 . S
C1393 H1417 0.949 . S
H1394 C1398 0.949 . S
C1395 C1396 1.349 . S
C1395 C1397 1.327 . S
C1395 H1418 0.950 . S
C1396 C1395 1.349 . S
C1396 C1408 1.349 . S
C1397 C1395 1.327 . S
C1397 C1413 1.429 . S
C1397 H1419 0.950 . S
C1398 H1394 0.949 . S
C1398 C1406 1.574 . S
C1398 C1414 1.368 . S
H1399 C1407 0.950 . S
H1400 C1405 0.950 . S
H1401 C1406 0.949 . S
H1402 C1408 0.950 . S
H1403 C1409 0.950 . S
H1404 C1410 0.949 . S
C1405 H1400 0.950 . S
C1405 C1407 1.327 . S
C1405 C1411 1.429 . S
C1406 C1398 1.574 . S
C1406 H1401 0.949 . S
C1406 C1412 1.368 . S
C1407 C1391 1.349 . S
C1407 H1399 0.950 . S
C1407 C1405 1.327 . S
C1408 C1396 1.349 . S
C1408 H1402 0.950 . S
C1408 C1409 1.327 . S
C1409 H1403 0.950 . S
C1409 C1408 1.327 . S
C1409 C1413 1.429 . S
C1410 C1393 1.574 . S
C1410 H1404 0.949 . S
C1410 C1414 1.368 . S
C1411 C1392 1.429 . S
C1411 C1405 1.429 . S
C1411 C1412 1.523 . S
C1412 C1393 1.368 . S
C1412 C1406 1.368 . S
C1412 C1411 1.523 . S
C1413 C1397 1.429 . S
C1413 C1409 1.429 . S
C1413 C1414 1.523 . S
C1414 C1398 1.368 . S
C1414 C1410 1.368 . S
C1414 C1413 1.523 . S
H1415 C1390 0.950 . S
H1416 C1392 0.950 . S
H1417 C1393 0.949 . S
H1418 C1395 0.950 . S
H1419 C1397 0.950 . S
C1420 C1421 1.349 . S
C1420 C1422 1.327 . S
C1420 H1445 0.950 . S
C1421 C1420 1.349 . S
C1421 C1437 1.349 . S
C1422 C1420 1.327 . S
C1422 C1441 1.429 . S
C1422 H1446 0.950 . S
C1423 C1440 1.574 1_545 S
C1423 C1442 1.368 . S
C1423 H1447 0.949 . S
H1424 C1428 0.949 . S
C1425 C1426 1.349 . S
C1425 C1427 1.327 . S
C1425 H1448 0.950 . S
C1426 C1425 1.349 . S
C1426 C1438 1.349 . S
C1427 C1425 1.327 . S
C1427 C1443 1.429 . S
C1427 H1449 0.950 . S
C1428 H1424 0.949 . S
C1428 C1436 1.574 1_565 S
C1428 C1444 1.368 . S
H1429 C1437 0.950 . S
H1430 C1435 0.950 . S
H1431 C1436 0.949 . S
H1432 C1438 0.950 . S
H1433 C1439 0.950 . S
H1434 C1440 0.949 . S
C1435 H1430 0.950 . S
C1435 C1437 1.327 . S
C1435 C1441 1.429 . S
C1436 C1428 1.574 1_545 S
C1436 H1431 0.949 . S
C1436 C1442 1.368 . S
C1437 C1421 1.349 . S
C1437 H1429 0.950 . S
C1437 C1435 1.327 . S
C1438 C1426 1.349 . S
C1438 H1432 0.950 . S
C1438 C1439 1.327 . S
C1439 H1433 0.950 . S
C1439 C1438 1.327 . S
C1439 C1443 1.429 . S
C1440 C1423 1.574 1_565 S
C1440 H1434 0.949 . S
C1440 C1444 1.368 . S
C1441 C1422 1.429 . S
C1441 C1435 1.429 . S
C1441 C1442 1.523 . S
C1442 C1423 1.368 . S
C1442 C1436 1.368 . S
C1442 C1441 1.523 . S
C1443 C1427 1.429 . S
C1443 C1439 1.429 . S
C1443 C1444 1.523 . S
C1444 C1428 1.368 . S
C1444 C1440 1.368 . S
C1444 C1443 1.523 . S
H1445 C1420 0.950 . S
H1446 C1422 0.950 . S
H1447 C1423 0.949 . S
H1448 C1425 0.950 . S
H1449 C1427 0.950 . S
C1450 C1451 1.349 . S
C1450 C1452 1.327 . S
C1450 H1475 0.950 . S
C1451 C1450 1.349 . S
C1451 C1467 1.349 . S
C1452 C1450 1.327 . S
C1452 C1471 1.429 . S
C1452 H1476 0.950 . S
C1453 C1470 1.574 . S
C1453 C1472 1.368 . S
C1453 H1477 0.949 . S
H1454 C1458 0.949 . S
C1455 C1456 1.349 . S
C1455 C1457 1.327 . S
C1455 H1478 0.950 . S
C1456 C1455 1.349 . S
C1456 C1468 1.349 . S
C1457 C1455 1.327 . S
C1457 C1473 1.429 . S
C1457 H1479 0.950 . S
C1458 H1454 0.949 . S
C1458 C1466 1.574 . S
C1458 C1474 1.368 . S
H1459 C1467 0.950 . S
H1460 C1465 0.950 . S
H1461 C1466 0.949 . S
H1462 C1468 0.950 . S
H1463 C1469 0.950 . S
H1464 C1470 0.949 . S
C1465 H1460 0.950 . S
C1465 C1467 1.327 . S
C1465 C1471 1.429 . S
C1466 C1458 1.574 . S
C1466 H1461 0.949 . S
C1466 C1472 1.368 . S
C1467 C1451 1.349 . S
C1467 H1459 0.950 . S
C1467 C1465 1.327 . S
C1468 C1456 1.349 . S
C1468 H1462 0.950 . S
C1468 C1469 1.327 . S
C1469 H1463 0.950 . S
C1469 C1468 1.327 . S
C1469 C1473 1.429 . S
C1470 C1453 1.574 . S
C1470 H1464 0.949 . S
C1470 C1474 1.368 . S
C1471 C1452 1.429 . S
C1471 C1465 1.429 . S
C1471 C1472 1.523 . S
C1472 C1453 1.368 . S
C1472 C1466 1.368 . S
C1472 C1471 1.523 . S
C1473 C1457 1.429 . S
C1473 C1469 1.429 . S
C1473 C1474 1.523 . S
C1474 C1458 1.368 . S
C1474 C1470 1.368 . S
C1474 C1473 1.523 . S
H1475 C1450 0.950 . S
H1476 C1452 0.950 . S
H1477 C1453 0.949 . S
H1478 C1455 0.950 . S
H1479 C1457 0.950 . S
C1480 C1481 1.349 . S
C1480 C1482 1.327 . S
C1480 H1505 0.950 . S
C1481 C1480 1.349 . S
C1481 C1497 1.349 . S
C1482 C1480 1.327 . S
C1482 C1501 1.429 . S
C1482 H1506 0.950 . S
C1483 C1500 1.574 . S
C1483 C1502 1.368 . S
C1483 H1507 0.949 . S
H1484 C1488 0.949 . S
C1485 C1486 1.349 . S
C1485 C1487 1.327 . S
C1485 H1508 0.950 . S
C1486 C1485 1.349 . S
C1486 C1498 1.349 . S
C1487 C1485 1.327 . S
C1487 C1503 1.429 . S
C1487 H1509 0.950 . S
C1488 H1484 0.949 . S
C1488 C1496 1.574 . S
C1488 C1504 1.368 . S
H1489 C1497 0.950 . S
H1490 C1495 0.950 . S
H1491 C1496 0.949 . S
H1492 C1498 0.950 . S
H1493 C1499 0.950 . S
H1494 C1500 0.949 . S
C1495 H1490 0.950 . S
C1495 C1497 1.327 . S
C1495 C1501 1.429 . S
C1496 C1488 1.574 . S
C1496 H1491 0.949 . S
C1496 C1502 1.368 . S
C1497 C1481 1.349 . S
C1497 H1489 0.950 . S
C1497 C1495 1.327 . S
C1498 C1486 1.349 . S
C1498 H1492 0.950 . S
C1498 C1499 1.327 . S
C1499 H1493 0.950 . S
C1499 C1498 1.327 . S
C1499 C1503 1.429 . S
C1500 C1483 1.574 . S
C1500 H1494 0.949 . S
C1500 C1504 1.368 . S
C1501 C1482 1.429 . S
C1501 C1495 1.429 . S
C1501 C1502 1.523 . S
C1502 C1483 1.368 . S
C1502 C1496 1.368 . S
C1502 C1501 1.523 . S
C1503 C1487 1.429 . S
C1503 C1499 1.429 . S
C1503 C1504 1.523 . S
C1504 C1488 1.368 . S
C1504 C1500 1.368 . S
C1504 C1503 1.523 . S
H1505 C1480 0.950 . S
H1506 C1482 0.950 . S
H1507 C1483 0.949 . S
H1508 C1485 0.950 . S
H1509 C1487 0.950 . S
C1510 C1511 1.349 . S
C1510 C1512 1.327 . S
C1510 H1535 0.950 . S
C1511 C1510 1.349 . S
C1511 C1527 1.349 . S
C1512 C1510 1.327 . S
C1512 C1531 1.429 . S
C1512 H1536 0.950 . S
C1513 C1530 1.574 . S
C1513 C1532 1.368 . S
C1513 H1537 0.949 . S
H1514 C1518 0.949 . S
C1515 C1516 1.349 . S
C1515 C1517 1.327 . S
C1515 H1538 0.950 . S
C1516 C1515 1.349 . S
C1516 C1528 1.349 . S
C1517 C1515 1.327 . S
C1517 C1533 1.429 . S
C1517 H1539 0.950 . S
C1518 H1514 0.949 . S
C1518 C1526 1.574 . S
C1518 C1534 1.368 . S
H1519 C1527 0.950 . S
H1520 C1525 0.950 . S
H1521 C1526 0.949 . S
H1522 C1528 0.950 . S
H1523 C1529 0.950 . S
H1524 C1530 0.949 . S
C1525 H1520 0.950 . S
C1525 C1527 1.327 . S
C1525 C1531 1.429 . S
C1526 C1518 1.574 . S
C1526 H1521 0.949 . S
C1526 C1532 1.368 . S
C1527 C1511 1.349 . S
C1527 H1519 0.950 . S
C1527 C1525 1.327 . S
C1528 C1516 1.349 . S
C1528 H1522 0.950 . S
C1528 C1529 1.327 . S
C1529 H1523 0.950 . S
C1529 C1528 1.327 . S
C1529 C1533 1.429 . S
C1530 C1513 1.574 . S
C1530 H1524 0.949 . S
C1530 C1534 1.368 . S
C1531 C1512 1.429 . S
C1531 C1525 1.429 . S
C1531 C1532 1.523 . S
C1532 C1513 1.368 . S
C1532 C1526 1.368 . S
C1532 C1531 1.523 . S
C1533 C1517 1.429 . S
C1533 C1529 1.429 . S
C1533 C1534 1.523 . S
C1534 C1518 1.368 . S
C1534 C1530 1.368 . S
C1534 C1533 1.523 . S
H1535 C1510 0.950 . S
H1536 C1512 0.950 . S
H1537 C1513 0.949 . S
H1538 C1515 0.950 . S
H1539 C1517 0.950 . S
C1540 C1541 1.349 . S
C1540 C1542 1.327 . S
C1540 H1565 0.950 . S
C1541 C1540 1.349 . S
C1541 C1557 1.349 . S
C1542 C1540 1.327 . S
C1542 C1561 1.429 . S
C1542 H1566 0.950 . S
C1543 C1560 1.574 . S
C1543 C1562 1.368 . S
C1543 H1567 0.949 . S
H1544 C1548 0.949 . S
C1545 C1546 1.349 . S
C1545 C1547 1.327 . S
C1545 H1568 0.950 . S
C1546 C1545 1.349 . S
C1546 C1558 1.349 . S
C1547 C1545 1.327 . S
C1547 C1563 1.429 . S
C1547 H1569 0.950 . S
C1548 H1544 0.949 . S
C1548 C1556 1.574 . S
C1548 C1564 1.368 . S
H1549 C1557 0.950 . S
H1550 C1555 0.950 . S
H1551 C1556 0.949 . S
H1552 C1558 0.950 . S
H1553 C1559 0.950 . S
H1554 C1560 0.949 . S
C1555 H1550 0.950 . S
C1555 C1557 1.327 . S
C1555 C1561 1.429 . S
C1556 C1548 1.574 . S
C1556 H1551 0.949 . S
C1556 C1562 1.368 . S
C1557 C1541 1.349 . S
C1557 H1549 0.950 . S
C1557 C1555 1.327 . S
C1558 C1546 1.349 . S
C1558 H1552 0.950 . S
C1558 C1559 1.327 . S
C1559 H1553 0.950 . S
C1559 C1558 1.327 . S
C1559 C1563 1.429 . S
C1560 C1543 1.574 . S
C1560 H1554 0.949 . S
C1560 C1564 1.368 . S
C1561 C1542 1.429 . S
C1561 C1555 1.429 . S
C1561 C1562 1.523 . S
C1562 C1543 1.368 . S
C1562 C1556 1.368 . S
C1562 C1561 1.523 . S
C1563 C1547 1.429 . S
C1563 C1559 1.429 . S
C1563 C1564 1.523 . S
C1564 C1548 1.368 . S
C1564 C1560 1.368 . S
C1564 C1563 1.523 . S
H1565 C1540 0.950 . S
H1566 C1542 0.950 . S
H1567 C1543 0.949 . S
H1568 C1545 0.950 . S
H1569 C1547 0.950 . S
C1570 C1571 1.349 . S
C1570 C1572 1.327 . S
C1570 H1595 0.950 . S
C1571 C1570 1.349 . S
C1571 C1587 1.349 1_455 S
C1572 C1570 1.327 . S
C1572 C1591 1.429 . S
C1572 H1596 0.950 . S
C1573 C1590 1.576 . S
C1573 C1592 1.378 . S
C1573 H1597 0.939 1_455 S
H1574 C1578 0.949 . S
C1575 C1576 1.349 . S
C1575 C1577 1.327 . S
C1575 H1598 0.950 . S
C1576 C1575 1.349 . S
C1576 C1588 1.349 . S
C1577 C1575 1.327 . S
C1577 C1593 1.429 . S
C1577 H1599 0.955 . S
C1578 H1574 0.949 . S
C1578 C1586 1.574 . S
C1578 C1594 1.368 . S
H1579 C1587 0.950 . S
H1580 C1585 0.950 . S
H1581 C1586 0.949 . S
H1582 C1588 0.950 . S
H1583 C1589 0.950 . S
H1584 C1590 0.949 1_655 S
C1585 H1580 0.950 . S
C1585 C1587 1.327 . S
C1585 C1591 1.429 1_655 S
C1586 C1578 1.574 . S
C1586 H1581 0.949 . S
C1586 C1592 1.368 1_554 S
C1587 C1571 1.349 1_655 S
C1587 H1579 0.950 . S
C1587 C1585 1.327 . S
C1588 C1576 1.349 . S
C1588 H1582 0.950 . S
C1588 C1589 1.327 . S
C1589 H1583 0.950 . S
C1589 C1588 1.327 . S
C1589 C1593 1.429 . S
C1590 C1573 1.576 . S
C1590 H1584 0.949 1_455 S
C1590 C1594 1.368 1_556 S
C1591 C1572 1.429 . S
C1591 C1585 1.429 1_455 S
C1591 C1592 1.523 . S
C1592 C1573 1.378 . S
C1592 C1586 1.368 1_556 S
C1592 C1591 1.523 . S
C1593 C1577 1.429 . S
C1593 C1589 1.429 . S
C1593 C1594 1.523 . S
C1594 C1578 1.368 . S
C1594 C1590 1.368 1_554 S
C1594 C1593 1.523 . S
H1595 C1570 0.950 . S
H1596 C1572 0.950 . S
H1597 C1573 0.939 1_655 S
H1598 C1575 0.950 . S
H1599 C1577 0.955 . S
C1600 C1601 1.349 . S
C1600 C1602 1.327 . S
C1600 H1625 0.950 . S
C1601 C1600 1.349 . S
C1601 C1617 1.349 . S
C1602 C1600 1.327 . S
C1602 C1621 1.429 . S
C1602 H1626 0.950 . S
C1603 C1620 1.574 . S
C1603 C1622 1.368 . S
C1603 H1627 0.949 . S
H1604 C1608 0.949 . S
C1605 C1606 1.349 . S
C1605 C1607 1.327 . S
C1605 H1628 0.950 . S
C1606 C1605 1.349 . S
C1606 C1618 1.349 . S
C1607 C1605 1.327 . S
C1607 C1623 1.429 . S
C1607 H1629 0.950 . S
C1608 H1604 0.949 . S
C1608 C1616 1.574 . S
C1608 C1624 1.368 . S
H1609 C1617 0.950 . S
H1610 C1615 0.950 . S
H1611 C1616 0.949 . S
H1612 C1618 0.950 . S
H1613 C1619 0.950 . S
H1614 C1620 0.949 . S
C1615 H1610 0.950 . S
C1615 C1617 1.327 . S
C1615 C1621 1.429 . S
C1616 C1608 1.574 . S
C1616 H1611 0.949 . S
C1616 C1622 1.368 . S
C1617 C1601 1.349 . S
C1617 H1609 0.950 . S
C1617 C1615 1.327 . S
C1618 C1606 1.349 . S
C1618 H1612 0.950 . S
C1618 C1619 1.327 . S
C1619 H1613 0.950 . S
C1619 C1618 1.327 . S
C1619 C1623 1.429 . S
C1620 C1603 1.574 . S
C1620 H1614 0.949 . S
C1620 C1624 1.368 . S
C1621 C1602 1.429 . S
C1621 C1615 1.429 . S
C1621 C1622 1.523 . S
C1622 C1603 1.368 . S
C1622 C1616 1.368 . S
C1622 C1621 1.523 . S
C1623 C1607 1.429 . S
C1623 C1619 1.429 . S
C1623 C1624 1.523 . S
C1624 C1608 1.368 . S
C1624 C1620 1.368 . S
C1624 C1623 1.523 . S
H1625 C1600 0.950 . S
H1626 C1602 0.950 . S
H1627 C1603 0.949 . S
H1628 C1605 0.950 . S
H1629 C1607 0.950 . S
C1630 C1631 1.349 . S
C1630 C1632 1.327 . S
C1630 H1655 0.950 . S
C1631 C1630 1.349 . S
C1631 C1647 1.349 . S
C1632 C1630 1.327 . S
C1632 C1651 1.429 . S
C1632 H1656 0.950 . S
C1633 C1650 1.574 . S
C1633 C1652 1.368 . S
C1633 H1657 0.949 . S
H1634 C1638 0.949 . S
C1635 C1636 1.349 . S
C1635 C1637 1.327 . S
C1635 H1658 0.950 . S
C1636 C1635 1.349 . S
C1636 C1648 1.349 . S
C1637 C1635 1.327 . S
C1637 C1653 1.429 . S
C1637 H1659 0.950 . S
C1638 H1634 0.949 . S
C1638 C1646 1.574 . S
C1638 C1654 1.368 . S
H1639 C1647 0.950 . S
H1640 C1645 0.950 . S
H1641 C1646 0.949 . S
H1642 C1648 0.950 . S
H1643 C1649 0.950 . S
H1644 C1650 0.949 . S
C1645 H1640 0.950 . S
C1645 C1647 1.327 . S
C1645 C1651 1.429 . S
C1646 C1638 1.574 . S
C1646 H1641 0.949 . S
C1646 C1652 1.368 . S
C1647 C1631 1.349 . S
C1647 H1639 0.950 . S
C1647 C1645 1.327 . S
C1648 C1636 1.349 . S
C1648 H1642 0.950 . S
C1648 C1649 1.327 . S
C1649 H1643 0.950 . S
C1649 C1648 1.327 . S
C1649 C1653 1.429 . S
C1650 C1633 1.574 . S
C1650 H1644 0.949 . S
C1650 C1654 1.368 . S
C1651 C1632 1.429 . S
C1651 C1645 1.429 . S
C1651 C1652 1.523 . S
C1652 C1633 1.368 . S
C1652 C1646 1.368 . S
C1652 C1651 1.523 . S
C1653 C1637 1.429 . S
C1653 C1649 1.429 . S
C1653 C1654 1.523 . S
C1654 C1638 1.368 . S
C1654 C1650 1.368 . S
C1654 C1653 1.523 . S
H1655 C1630 0.950 . S
H1656 C1632 0.950 . S
H1657 C1633 0.949 . S
H1658 C1635 0.950 . S
H1659 C1637 0.950 . S
C1660 C1661 1.349 . S
C1660 C1662 1.327 . S
C1660 H1685 0.950 . S
C1661 C1660 1.349 . S
C1661 C1677 1.349 . S
C1662 C1660 1.327 . S
C1662 C1681 1.429 1_554 S
C1662 H1686 0.950 . S
C1663 C1680 1.574 . S
C1663 C1682 1.368 . S
C1663 H1687 0.949 . S
H1664 C1668 0.949 . S
C1665 C1666 1.349 . S
C1665 C1667 1.327 . S
C1665 H1688 0.950 . S
C1666 C1665 1.349 . S
C1666 C1678 1.349 . S
C1667 C1665 1.327 . S
C1667 C1683 1.429 . S
C1667 H1689 0.950 . S
C1668 H1664 0.949 . S
C1668 C1676 1.574 . S
C1668 C1684 1.368 . S
H1669 C1677 0.950 . S
H1670 C1675 0.950 . S
H1671 C1676 0.949 . S
H1672 C1678 0.950 . S
H1673 C1679 0.950 . S
H1674 C1680 0.949 . S
C1675 H1670 0.950 . S
C1675 C1677 1.327 1_556 S
C1675 C1681 1.429 . S
C1676 C1668 1.574 . S
C1676 H1671 0.949 . S
C1676 C1682 1.368 . S
C1677 C1661 1.349 . S
C1677 H1669 0.950 . S
C1677 C1675 1.327 1_554 S
C1678 C1666 1.349 . S
C1678 H1672 0.950 . S
C1678 C1679 1.327 . S
C1679 H1673 0.950 . S
C1679 C1678 1.327 . S
C1679 C1683 1.429 . S
C1680 C1663 1.574 . S
C1680 H1674 0.949 . S
C1680 C1684 1.368 . S
C1681 C1662 1.429 1_556 S
C1681 C1675 1.429 . S
C1681 C1682 1.523 . S
C1682 C1663 1.368 . S
C1682 C1676 1.368 . S
C1682 C1681 1.523 . S
C1683 C1667 1.429 . S
C1683 C1679 1.429 . S
C1683 C1684 1.523 . S
C1684 C1668 1.368 . S
C1684 C1680 1.368 . S
C1684 C1683 1.523 . S
H1685 C1660 0.950 . S
H1686 C1662 0.950 . S
H1687 C1663 0.949 . S
H1688 C1665 0.950 . S
H1689 C1667 0.950 . S
C1690 C1691 1.349 . S
C1690 C1692 1.327 . S
C1690 H1715 0.950 . S
C1691 C1690 1.349 . S
C1691 C1707 1.349 . S
C1692 C1690 1.327 . S
C1692 C1711 1.429 . S
C1692 H1716 0.950 . S
C1693 C1710 1.574 . S
C1693 C1712 1.368 . S
C1693 H1717 0.949 . S
H1694 C1698 0.949 . S
C1695 C1696 1.349 . S
C1695 C1697 1.327 . S
C1695 H1718 0.950 . S
C1696 C1695 1.349 . S
C1696 C1708 1.349 . S
C1697 C1695 1.327 . S
C1697 C1713 1.429 . S
C1697 H1719 0.950 . S
C1698 H1694 0.949 . S
C1698 C1706 1.574 . S
C1698 C1714 1.368 . S
H1699 C1707 0.950 . S
H1700 C1705 0.950 . S
H1701 C1706 0.949 . S
H1702 C1708 0.950 . S
H1703 C1709 0.950 . S
H1704 C1710 0.949 . S
C1705 H1700 0.950 . S
C1705 C1707 1.327 . S
C1705 C1711 1.429 . S
C1706 C1698 1.574 . S
C1706 H1701 0.949 . S
C1706 C1712 1.368 . S
C1707 C1691 1.349 . S
C1707 H1699 0.950 . S
C1707 C1705 1.327 . S
C1708 C1696 1.349 . S
C1708 H1702 0.950 . S
C1708 C1709 1.327 . S
C1709 H1703 0.950 . S
C1709 C1708 1.327 . S
C1709 C1713 1.429 . S
C1710 C1693 1.574 . S
C1710 H1704 0.949 . S
C1710 C1714 1.368 . S
C1711 C1692 1.429 . S
C1711 C1705 1.429 . S
C1711 C1712 1.523 . S
C1712 C1693 1.368 . S
C1712 C1706 1.368 . S
C1712 C1711 1.523 . S
C1713 C1697 1.429 . S
C1713 C1709 1.429 . S
C1713 C1714 1.523 . S
C1714 C1698 1.368 . S
C1714 C1710 1.368 . S
C1714 C1713 1.523 . S
H1715 C1690 0.950 . S
H1716 C1692 0.950 . S
H1717 C1693 0.949 . S
H1718 C1695 0.950 . S
H1719 C1697 0.950 . S
C1720 C1721 1.349 . S
C1720 C1722 1.327 . S
C1720 H1745 0.950 . S
C1721 C1720 1.349 . S
C1721 C1737 1.349 . S
C1722 C1720 1.327 . S
C1722 C1741 1.429 . S
C1722 H1746 0.950 . S
C1723 C1740 1.574 . S
C1723 C1742 1.368 . S
C1723 H1747 0.949 . S
H1724 C1728 0.949 . S
C1725 C1726 1.349 . S
C1725 C1727 1.327 . S
C1725 H1748 0.950 . S
C1726 C1725 1.349 . S
C1726 C1738 1.349 . S
C1727 C1725 1.327 . S
C1727 C1743 1.429 . S
C1727 H1749 0.950 . S
C1728 H1724 0.949 . S
C1728 C1736 1.574 . S
C1728 C1744 1.368 . S
H1729 C1737 0.950 . S
H1730 C1735 0.950 . S
H1731 C1736 0.949 . S
H1732 C1738 0.950 . S
H1733 C1739 0.950 . S
H1734 C1740 0.949 . S
C1735 H1730 0.950 . S
C1735 C1737 1.327 . S
C1735 C1741 1.429 . S
C1736 C1728 1.574 . S
C1736 H1731 0.949 . S
C1736 C1742 1.368 . S
C1737 C1721 1.349 . S
C1737 H1729 0.950 . S
C1737 C1735 1.327 . S
C1738 C1726 1.349 . S
C1738 H1732 0.950 . S
C1738 C1739 1.327 . S
C1739 H1733 0.950 . S
C1739 C1738 1.327 . S
C1739 C1743 1.429 . S
C1740 C1723 1.574 . S
C1740 H1734 0.949 . S
C1740 C1744 1.368 . S
C1741 C1722 1.429 . S
C1741 C1735 1.429 . S
C1741 C1742 1.523 . S
C1742 C1723 1.368 . S
C1742 C1736 1.368 . S
C1742 C1741 1.523 . S
C1743 C1727 1.429 . S
C1743 C1739 1.429 . S
C1743 C1744 1.523 . S
C1744 C1728 1.368 . S
C1744 C1740 1.368 . S
C1744 C1743 1.523 . S
H1745 C1720 0.950 . S
H1746 C1722 0.950 . S
H1747 C1723 0.949 . S
H1748 C1725 0.950 . S
H1749 C1727 0.950 . S
C1750 C1751 1.349 . S
C1750 C1752 1.327 . S
C1750 H1775 0.950 . S
C1751 C1750 1.349 . S
C1751 C1767 1.349 . S
C1752 C1750 1.327 . S
C1752 C1771 1.429 . S
C1752 H1776 0.950 . S
C1753 C1770 1.574 . S
C1753 C1772 1.368 . S
C1753 H1777 0.949 . S
H1754 C1758 0.949 . S
C1755 C1756 1.349 . S
C1755 C1757 1.327 . S
C1755 H1778 0.950 . S
C1756 C1755 1.349 . S
C1756 C1768 1.349 . S
C1757 C1755 1.327 . S
C1757 C1773 1.429 . S
C1757 H1779 0.950 . S
C1758 H1754 0.949 . S
C1758 C1766 1.574 . S
C1758 C1774 1.368 . S
H1759 C1767 0.950 . S
H1760 C1765 0.950 . S
H1761 C1766 0.949 . S
H1762 C1768 0.950 . S
H1763 C1769 0.950 . S
H1764 C1770 0.949 . S
C1765 H1760 0.950 . S
C1765 C1767 1.327 . S
C1765 C1771 1.429 . S
C1766 C1758 1.574 . S
C1766 H1761 0.949 . S
C1766 C1772 1.368 . S
C1767 C1751 1.349 . S
C1767 H1759 0.950 . S
C1767 C1765 1.327 . S
C1768 C1756 1.349 . S
C1768 H1762 0.950 . S
C1768 C1769 1.327 . S
C1769 H1763 0.950 . S
C1769 C1768 1.327 . S
C1769 C1773 1.429 . S
C1770 C1753 1.574 . S
C1770 H1764 0.949 . S
C1770 C1774 1.368 . S
C1771 C1752 1.429 . S
C1771 C1765 1.429 . S
C1771 C1772 1.523 . S
C1772 C1753 1.368 . S
C1772 C1766 1.368 . S
C1772 C1771 1.523 . S
C1773 C1757 1.429 . S
C1773 C1769 1.429 . S
C1773 C1774 1.523 . S
C1774 C1758 1.368 . S
C1774 C1770 1.368 . S
C1774 C1773 1.523 . S
H1775 C1750 0.950 . S
H1776 C1752 0.950 . S
H1777 C1753 0.949 . S
H1778 C1755 0.950 . S
H1779 C1757 0.950 . S
C1780 C1781 1.349 . S
C1780 C1782 1.327 . S
C1780 H1805 0.950 . S
C1781 C1780 1.349 . S
C1781 C1797 1.349 . S
C1782 C1780 1.327 . S
C1782 C1801 1.429 1_556 S
C1782 H1806 0.950 . S
C1783 C1800 1.574 . S
C1783 C1802 1.368 . S
C1783 H1807 0.949 . S
H1784 C1788 0.949 . S
C1785 C1786 1.349 . S
C1785 C1787 1.327 . S
C1785 H1808 0.950 . S
C1786 C1785 1.349 . S
C1786 C1798 1.349 . S
C1787 C1785 1.327 . S
C1787 C1803 1.429 . S
C1787 H1809 0.950 . S
C1788 H1784 0.949 . S
C1788 C1796 1.574 . S
C1788 C1804 1.368 . S
H1789 C1797 0.950 . S
H1790 C1795 0.950 . S
H1791 C1796 0.949 . S
H1792 C1798 0.950 . S
H1793 C1799 0.950 . S
H1794 C1800 0.949 . S
C1795 H1790 0.950 . S
C1795 C1797 1.327 1_554 S
C1795 C1801 1.429 . S
C1796 C1788 1.574 . S
C1796 H1791 0.949 . S
C1796 C1802 1.368 . S
C1797 C1781 1.349 . S
C1797 H1789 0.950 . S
C1797 C1795 1.327 1_556 S
C1798 C1786 1.349 . S
C1798 H1792 0.950 . S
C1798 C1799 1.327 . S
C1799 H1793 0.950 . S
C1799 C1798 1.327 . S
C1799 C1803 1.429 . S
C1800 C1783 1.574 . S
C1800 H1794 0.949 . S
C1800 C1804 1.368 . S
C1801 C1782 1.429 1_554 S
C1801 C1795 1.429 . S
C1801 C1802 1.523 . S
C1802 C1783 1.368 . S
C1802 C1796 1.368 . S
C1802 C1801 1.523 . S
C1803 C1787 1.429 . S
C1803 C1799 1.429 . S
C1803 C1804 1.523 . S
C1804 C1788 1.368 . S
C1804 C1800 1.368 . S
C1804 C1803 1.523 . S
H1805 C1780 0.950 . S
H1806 C1782 0.950 . S
H1807 C1783 0.949 . S
H1808 C1785 0.950 . S
H1809 C1787 0.950 . S
C1810 C1811 1.349 . S
C1810 C1812 1.327 . S
C1810 H1835 0.950 . S
C1811 C1810 1.349 . S
C1811 C1827 1.349 . S
C1812 C1810 1.327 . S
C1812 C1831 1.429 . S
C1812 H1836 0.950 . S
C1813 C1830 1.574 . S
C1813 C1832 1.368 . S
C1813 H1837 0.949 . S
H1814 C1818 0.949 . S
C1815 C1816 1.349 . S
C1815 C1817 1.327 . S
C1815 H1838 0.950 . S
C1816 C1815 1.349 . S
C1816 C1828 1.349 . S
C1817 C1815 1.327 . S
C1817 C1833 1.429 . S
C1817 H1839 0.950 . S
C1818 H1814 0.949 . S
C1818 C1826 1.574 . S
C1818 C1834 1.368 . S
H1819 C1827 0.950 . S
H1820 C1825 0.950 . S
H1821 C1826 0.949 . S
H1822 C1828 0.950 . S
H1823 C1829 0.950 . S
H1824 C1830 0.949 . S
C1825 H1820 0.950 . S
C1825 C1827 1.327 . S
C1825 C1831 1.429 . S
C1826 C1818 1.574 . S
C1826 H1821 0.949 . S
C1826 C1832 1.368 . S
C1827 C1811 1.349 . S
C1827 H1819 0.950 . S
C1827 C1825 1.327 . S
C1828 C1816 1.349 . S
C1828 H1822 0.950 . S
C1828 C1829 1.327 . S
C1829 H1823 0.950 . S
C1829 C1828 1.327 . S
C1829 C1833 1.429 . S
C1830 C1813 1.574 . S
C1830 H1824 0.949 . S
C1830 C1834 1.368 . S
C1831 C1812 1.429 . S
C1831 C1825 1.429 . S
C1831 C1832 1.523 . S
C1832 C1813 1.368 . S
C1832 C1826 1.368 . S
C1832 C1831 1.523 . S
C1833 C1817 1.429 . S
C1833 C1829 1.429 . S
C1833 C1834 1.523 . S
C1834 C1818 1.368 . S
C1834 C1830 1.368 . S
C1834 C1833 1.523 . S
H1835 C1810 0.950 . S
H1836 C1812 0.950 . S
H1837 C1813 0.949 . S
H1838 C1815 0.950 . S
H1839 C1817 0.950 . S
C1840 C1841 1.349 . S
C1840 C1842 1.327 . S
C1840 H1865 0.950 . S
C1841 C1840 1.349 . S
C1841 C1857 1.349 . S
C1842 C1840 1.327 . S
C1842 C1861 1.429 . S
C1842 H1866 0.950 . S
C1843 C1860 1.574 . S
C1843 C1862 1.368 . S
C1843 H1867 0.949 . S
H1844 C1848 0.949 . S
C1845 C1846 1.349 . S
C1845 C1847 1.327 1_554 S
C1845 H1868 0.950 . S
C1846 C1845 1.349 . S
C1846 C1858 1.349 . S
C1847 C1845 1.327 1_556 S
C1847 C1863 1.429 . S
C1847 H1869 0.950 . S
C1848 H1844 0.949 . S
C1848 C1856 1.574 . S
C1848 C1864 1.368 . S
H1849 C1857 0.950 . S
H1850 C1855 0.950 . S
H1851 C1856 0.949 . S
H1852 C1858 0.950 . S
H1853 C1859 0.950 . S
H1854 C1860 0.949 . S
C1855 H1850 0.950 . S
C1855 C1857 1.327 . S
C1855 C1861 1.429 . S
C1856 C1848 1.574 . S
C1856 H1851 0.949 . S
C1856 C1862 1.368 . S
C1857 C1841 1.349 . S
C1857 H1849 0.950 . S
C1857 C1855 1.327 . S
C1858 C1846 1.349 . S
C1858 H1852 0.950 . S
C1858 C1859 1.327 . S
C1859 H1853 0.950 . S
C1859 C1858 1.327 . S
C1859 C1863 1.429 1_554 S
C1860 C1843 1.574 . S
C1860 H1854 0.949 . S
C1860 C1864 1.368 . S
C1861 C1842 1.429 . S
C1861 C1855 1.429 . S
C1861 C1862 1.523 . S
C1862 C1843 1.368 . S
C1862 C1856 1.368 . S
C1862 C1861 1.523 . S
C1863 C1847 1.429 . S
C1863 C1859 1.429 1_556 S
C1863 C1864 1.523 . S
C1864 C1848 1.368 . S
C1864 C1860 1.368 . S
C1864 C1863 1.523 . S
H1865 C1840 0.950 . S
H1866 C1842 0.950 . S
H1867 C1843 0.949 . S
H1868 C1845 0.950 . S
H1869 C1847 0.950 . S
C1870 C1871 1.349 . S
C1870 C1872 1.327 . S
C1870 H1895 0.950 . S
C1871 C1870 1.349 . S
C1871 C1887 1.349 . S
C1872 C1870 1.327 . S
C1872 C1891 1.429 . S
C1872 H1896 0.950 . S
C1873 C1890 1.574 . S
C1873 C1892 1.368 . S
C1873 H1897 0.949 . S
H1874 C1878 0.949 . S
C1875 C1876 1.349 . S
C1875 C1877 1.327 . S
C1875 H1898 0.950 . S
C1876 C1875 1.349 . S
C1876 C1888 1.349 . S
C1877 C1875 1.327 . S
C1877 C1893 1.429 . S
C1877 H1899 0.950 . S
C1878 H1874 0.949 . S
C1878 C1886 1.574 . S
C1878 C1894 1.368 . S
H1879 C1887 0.950 . S
H1880 C1885 0.950 . S
H1881 C1886 0.949 . S
H1882 C1888 0.950 . S
H1883 C1889 0.950 . S
H1884 C1890 0.949 . S
C1885 H1880 0.950 . S
C1885 C1887 1.327 . S
C1885 C1891 1.429 . S
C1886 C1878 1.574 . S
C1886 H1881 0.949 . S
C1886 C1892 1.368 . S
C1887 C1871 1.349 . S
C1887 H1879 0.950 . S
C1887 C1885 1.327 . S
C1888 C1876 1.349 . S
C1888 H1882 0.950 . S
C1888 C1889 1.327 . S
C1889 H1883 0.950 . S
C1889 C1888 1.327 . S
C1889 C1893 1.429 . S
C1890 C1873 1.574 . S
C1890 H1884 0.949 . S
C1890 C1894 1.368 . S
C1891 C1872 1.429 . S
C1891 C1885 1.429 . S
C1891 C1892 1.523 . S
C1892 C1873 1.368 . S
C1892 C1886 1.368 . S
C1892 C1891 1.523 . S
C1893 C1877 1.429 . S
C1893 C1889 1.429 . S
C1893 C1894 1.523 . S
C1894 C1878 1.368 . S
C1894 C1890 1.368 . S
C1894 C1893 1.523 . S
H1895 C1870 0.950 . S
H1896 C1872 0.950 . S
H1897 C1873 0.949 . S
H1898 C1875 0.950 . S
H1899 C1877 0.950 . S
C1900 C1901 1.349 . S
C1900 C1902 1.327 . S
C1900 H1925 0.950 . S
C1901 C1900 1.349 . S
C1901 C1917 1.349 . S
C1902 C1900 1.327 . S
C1902 C1921 1.429 . S
C1902 H1926 0.950 . S
C1903 C1920 1.574 . S
C1903 C1922 1.368 . S
C1903 H1927 0.949 . S
H1904 C1908 0.949 . S
C1905 C1906 1.349 . S
C1905 C1907 1.327 . S
C1905 H1928 0.950 . S
C1906 C1905 1.349 . S
C1906 C1918 1.349 . S
C1907 C1905 1.327 . S
C1907 C1923 1.429 . S
C1907 H1929 0.950 . S
C1908 H1904 0.949 . S
C1908 C1916 1.574 . S
C1908 C1924 1.368 . S
H1909 C1917 0.950 . S
H1910 C1915 0.950 . S
H1911 C1916 0.949 . S
H1912 C1918 0.950 . S
H1913 C1919 0.950 . S
H1914 C1920 0.949 . S
C1915 H1910 0.950 . S
C1915 C1917 1.327 . S
C1915 C1921 1.429 . S
C1916 C1908 1.574 . S
C1916 H1911 0.949 . S
C1916 C1922 1.368 . S
C1917 C1901 1.349 . S
C1917 H1909 0.950 . S
C1917 C1915 1.327 . S
C1918 C1906 1.349 . S
C1918 H1912 0.950 . S
C1918 C1919 1.327 . S
C1919 H1913 0.950 . S
C1919 C1918 1.327 . S
C1919 C1923 1.429 . S
C1920 C1903 1.574 . S
C1920 H1914 0.949 . S
C1920 C1924 1.368 . S
C1921 C1902 1.429 . S
C1921 C1915 1.429 . S
C1921 C1922 1.523 . S
C1922 C1903 1.368 . S
C1922 C1916 1.368 . S
C1922 C1921 1.523 . S
C1923 C1907 1.429 . S
C1923 C1919 1.429 . S
C1923 C1924 1.523 . S
C1924 C1908 1.368 . S
C1924 C1920 1.368 . S
C1924 C1923 1.523 . S
H1925 C1900 0.950 . S
H1926 C1902 0.950 . S
H1927 C1903 0.949 . S
H1928 C1905 0.950 . S
H1929 C1907 0.950 . S
C1930 C1931 1.349 . S
C1930 C1932 1.327 . S
C1930 H1955 0.950 . S
C1931 C1930 1.349 . S
C1931 C1947 1.349 . S
C1932 C1930 1.327 . S
C1932 C1951 1.429 . S
C1932 H1956 0.950 . S
C1933 C1950 1.574 . S
C1933 C1952 1.368 . S
C1933 H1957 0.949 . S
H1934 C1938 0.949 . S
C1935 C1936 1.349 . S
C1935 C1937 1.327 . S
C1935 H1958 0.950 . S
C1936 C1935 1.349 . S
C1936 C1948 1.349 . S
C1937 C1935 1.327 . S
C1937 C1953 1.429 . S
C1937 H1959 0.950 . S
C1938 H1934 0.949 . S
C1938 C1946 1.574 . S
C1938 C1954 1.368 . S
H1939 C1947 0.950 . S
H1940 C1945 0.950 . S
H1941 C1946 0.949 . S
H1942 C1948 0.950 . S
H1943 C1949 0.950 . S
H1944 C1950 0.949 . S
C1945 H1940 0.950 . S
C1945 C1947 1.327 . S
C1945 C1951 1.429 . S
C1946 C1938 1.574 . S
C1946 H1941 0.949 . S
C1946 C1952 1.368 . S
C1947 C1931 1.349 . S
C1947 H1939 0.950 . S
C1947 C1945 1.327 . S
C1948 C1936 1.349 . S
C1948 H1942 0.950 . S
C1948 C1949 1.327 . S
C1949 H1943 0.950 . S
C1949 C1948 1.327 . S
C1949 C1953 1.429 . S
C1950 C1933 1.574 . S
C1950 H1944 0.949 . S
C1950 C1954 1.368 . S
C1951 C1932 1.429 . S
C1951 C1945 1.429 . S
C1951 C1952 1.523 . S
C1952 C1933 1.368 . S
C1952 C1946 1.368 . S
C1952 C1951 1.523 . S
C1953 C1937 1.429 . S
C1953 C1949 1.429 . S
C1953 C1954 1.523 . S
C1954 C1938 1.368 . S
C1954 C1950 1.368 . S
C1954 C1953 1.523 . S
H1955 C1930 0.950 . S
H1956 C1932 0.950 . S
H1957 C1933 0.949 . S
H1958 C1935 0.950 . S
H1959 C1937 0.950 . S
C1960 C1961 1.349 . S
C1960 C1962 1.327 . S
C1960 H1985 0.950 . S
C1961 C1960 1.349 . S
C1961 C1977 1.349 . S
C1962 C1960 1.327 . S
C1962 C1981 1.429 . S
C1962 H1986 0.950 . S
C1963 C1980 1.574 . S
C1963 C1982 1.368 . S
C1963 H1987 0.949 . S
H1964 C1968 0.949 . S
C1965 C1966 1.349 . S
C1965 C1967 1.327 1_556 S
C1965 H1988 0.950 . S
C1966 C1965 1.349 . S
C1966 C1978 1.349 . S
C1967 C1965 1.327 1_554 S
C1967 C1983 1.429 . S
C1967 H1989 0.950 . S
C1968 H1964 0.949 . S
C1968 C1976 1.574 . S
C1968 C1984 1.368 . S
H1969 C1977 0.950 . S
H1970 C1975 0.950 . S
H1971 C1976 0.949 . S
H1972 C1978 0.950 . S
H1973 C1979 0.950 . S
H1974 C1980 0.949 . S
C1975 H1970 0.950 . S
C1975 C1977 1.327 . S
C1975 C1981 1.429 . S
C1976 C1968 1.574 . S
C1976 H1971 0.949 . S
C1976 C1982 1.368 . S
C1977 C1961 1.349 . S
C1977 H1969 0.950 . S
C1977 C1975 1.327 . S
C1978 C1966 1.349 . S
C1978 H1972 0.950 . S
C1978 C1979 1.327 . S
C1979 H1973 0.950 . S
C1979 C1978 1.327 . S
C1979 C1983 1.429 1_556 S
C1980 C1963 1.574 . S
C1980 H1974 0.949 . S
C1980 C1984 1.368 . S
C1981 C1962 1.429 . S
C1981 C1975 1.429 . S
C1981 C1982 1.523 . S
C1982 C1963 1.368 . S
C1982 C1976 1.368 . S
C1982 C1981 1.523 . S
C1983 C1967 1.429 . S
C1983 C1979 1.429 1_554 S
C1983 C1984 1.523 . S
C1984 C1968 1.368 . S
C1984 C1980 1.368 . S
C1984 C1983 1.523 . S
H1985 C1960 0.950 . S
H1986 C1962 0.950 . S
H1987 C1963 0.949 . S
H1988 C1965 0.950 . S
H1989 C1967 0.950 . S
C1990 C1991 1.349 . S
C1990 C1992 1.327 . S
C1990 H2015 0.950 . S
C1991 C1990 1.349 . S
C1991 C2007 1.349 . S
C1992 C1990 1.327 . S
C1992 C2011 1.429 . S
C1992 H2016 0.950 . S
C1993 C2010 1.574 . S
C1993 C2012 1.368 . S
C1993 H2017 0.949 . S
H1994 C1998 0.949 . S
C1995 C1996 1.349 . S
C1995 C1997 1.327 . S
C1995 H2018 0.950 . S
C1996 C1995 1.349 . S
C1996 C2008 1.349 . S
C1997 C1995 1.327 . S
C1997 C2013 1.429 . S
C1997 H2019 0.950 . S
C1998 H1994 0.949 . S
C1998 C2006 1.574 . S
C1998 C2014 1.368 . S
H1999 C2007 0.950 . S
H2000 C2005 0.950 . S
H2001 C2006 0.949 . S
H2002 C2008 0.950 . S
H2003 C2009 0.950 . S
H2004 C2010 0.949 . S
C2005 H2000 0.950 . S
C2005 C2007 1.327 . S
C2005 C2011 1.429 . S
C2006 C1998 1.574 . S
C2006 H2001 0.949 . S
C2006 C2012 1.368 . S
C2007 C1991 1.349 . S
C2007 H1999 0.950 . S
C2007 C2005 1.327 . S
C2008 C1996 1.349 . S
C2008 H2002 0.950 . S
C2008 C2009 1.327 . S
C2009 H2003 0.950 . S
C2009 C2008 1.327 . S
C2009 C2013 1.429 . S
C2010 C1993 1.574 . S
C2010 H2004 0.949 . S
C2010 C2014 1.368 . S
C2011 C1992 1.429 . S
C2011 C2005 1.429 . S
C2011 C2012 1.523 . S
C2012 C1993 1.368 . S
C2012 C2006 1.368 . S
C2012 C2011 1.523 . S
C2013 C1997 1.429 . S
C2013 C2009 1.429 . S
C2013 C2014 1.523 . S
C2014 C1998 1.368 . S
C2014 C2010 1.368 . S
C2014 C2013 1.523 . S
H2015 C1990 0.950 . S
H2016 C1992 0.950 . S
H2017 C1993 0.949 . S
H2018 C1995 0.950 . S
H2019 C1997 0.950 . S
C2020 C2021 1.349 . S
C2020 C2022 1.327 . S
C2020 H2045 0.950 . S
C2021 C2020 1.349 . S
C2021 C2037 1.349 . S
C2022 C2020 1.327 . S
C2022 C2041 1.429 . S
C2022 H2046 0.950 . S
C2023 C2040 1.574 . S
C2023 C2042 1.368 . S
C2023 H2047 0.949 . S
H2024 C2028 0.949 . S
C2025 C2026 1.349 . S
C2025 C2027 1.327 . S
C2025 H2048 0.950 . S
C2026 C2025 1.349 . S
C2026 C2038 1.349 . S
C2027 C2025 1.327 . S
C2027 C2043 1.429 . S
C2027 H2049 0.950 . S
C2028 H2024 0.949 . S
C2028 C2036 1.574 . S
C2028 C2044 1.368 . S
H2029 C2037 0.950 . S
H2030 C2035 0.950 . S
H2031 C2036 0.949 . S
H2032 C2038 0.950 . S
H2033 C2039 0.950 . S
H2034 C2040 0.949 . S
C2035 H2030 0.950 . S
C2035 C2037 1.327 . S
C2035 C2041 1.429 . S
C2036 C2028 1.574 . S
C2036 H2031 0.949 . S
C2036 C2042 1.368 . S
C2037 C2021 1.349 . S
C2037 H2029 0.950 . S
C2037 C2035 1.327 . S
C2038 C2026 1.349 . S
C2038 H2032 0.950 . S
C2038 C2039 1.327 . S
C2039 H2033 0.950 . S
C2039 C2038 1.327 . S
C2039 C2043 1.429 . S
C2040 C2023 1.574 . S
C2040 H2034 0.949 . S
C2040 C2044 1.368 . S
C2041 C2022 1.429 . S
C2041 C2035 1.429 . S
C2041 C2042 1.523 . S
C2042 C2023 1.368 . S
C2042 C2036 1.368 . S
C2042 C2041 1.523 . S
C2043 C2027 1.429 . S
C2043 C2039 1.429 . S
C2043 C2044 1.523 . S
C2044 C2028 1.368 . S
C2044 C2040 1.368 . S
C2044 C2043 1.523 . S
H2045 C2020 0.950 . S
H2046 C2022 0.950 . S
H2047 C2023 0.949 . S
H2048 C2025 0.950 . S
H2049 C2027 0.950 . S
C2050 C2051 1.349 . S
C2050 C2052 1.327 . S
C2050 H2075 0.950 . S
C2051 C2050 1.349 . S
C2051 C2067 1.349 . S
C2052 C2050 1.327 . S
C2052 C2071 1.429 . S
C2052 H2076 0.950 . S
C2053 C2070 1.574 . S
C2053 C2072 1.368 . S
C2053 H2077 0.949 . S
H2054 C2058 0.949 . S
C2055 C2056 1.349 . S
C2055 C2057 1.327 . S
C2055 H2078 0.950 . S
C2056 C2055 1.349 . S
C2056 C2068 1.349 . S
C2057 C2055 1.327 . S
C2057 C2073 1.429 . S
C2057 H2079 0.950 . S
C2058 H2054 0.949 . S
C2058 C2066 1.574 . S
C2058 C2074 1.368 . S
H2059 C2067 0.950 . S
H2060 C2065 0.950 . S
H2061 C2066 0.949 . S
H2062 C2068 0.950 . S
H2063 C2069 0.950 . S
H2064 C2070 0.949 . S
C2065 H2060 0.950 . S
C2065 C2067 1.327 . S
C2065 C2071 1.429 . S
C2066 C2058 1.574 . S
C2066 H2061 0.949 . S
C2066 C2072 1.368 . S
C2067 C2051 1.349 . S
C2067 H2059 0.950 . S
C2067 C2065 1.327 . S
C2068 C2056 1.349 . S
C2068 H2062 0.950 . S
C2068 C2069 1.327 . S
C2069 H2063 0.950 . S
C2069 C2068 1.327 . S
C2069 C2073 1.429 . S
C2070 C2053 1.574 . S
C2070 H2064 0.949 . S
C2070 C2074 1.368 . S
C2071 C2052 1.429 . S
C2071 C2065 1.429 . S
C2071 C2072 1.523 . S
C2072 C2053 1.368 . S
C2072 C2066 1.368 . S
C2072 C2071 1.523 . S
C2073 C2057 1.429 . S
C2073 C2069 1.429 . S
C2073 C2074 1.523 . S
C2074 C2058 1.368 . S
C2074 C2070 1.368 . S
C2074 C2073 1.523 . S
H2075 C2050 0.950 . S
H2076 C2052 0.950 . S
H2077 C2053 0.949 . S
H2078 C2055 0.950 . S
H2079 C2057 0.950 . S
C641 C10 0.936 . S
C646 C295 0.932 . S
C671 C50 0.936 . S
C676 C175 0.932 . S
C701 C215 0.932 . S
C706 C90 0.936 . S
C731 C130 0.936 . S
C736 C255 0.932 . S
C761 C446 0.932 . S
C766 C179 0.936 . S
C791 C339 0.936 . S
C796 C6 0.931 . S
C821 C406 0.932 . S
C826 C259 0.936 . S
C851 C86 0.931 . S
C856 C379 0.936 . S
C881 C375 0.932 . S
C886 C490 0.936 . S
C911 C410 0.936 . S
C916 C575 0.931 . S
C941 C530 0.936 . S
C946 C335 0.932 . S
C971 C450 0.936 . S
C976 C615 0.931 . S
C1001 C579 0.936 . S
C1006 C126 0.932 . S
C1031 C486 0.932 . S
C1036 C219 0.936 . S
C1061 C46 0.932 . S
C1066 C619 0.936 . S
C1091 C299 0.936 . S
C1096 C526 0.932 . S
C1121 C529 0.966 . S
C1126 C9 0.966 1_455 S
C1151 C449 0.965 . S
C1156 C49 0.965 . S
C1181 C489 0.966 . S
C1186 C89 0.966 . S
C1211 C409 0.965 . S
C1216 C129 0.965 . S
C1241 C178 0.966 . S
C1246 C618 0.966 1_455 S
C1271 C378 0.965 . S
C1276 C218 0.965 . S
C1301 C258 0.966 . S
C1306 C578 0.966 . S
C1331 C298 0.965 . S
C1336 C338 0.965 . S
C1361 C18 1.327 . S
C1366 C169 1.327 . S
C1391 C58 1.327 . S
C1396 C209 1.327 . S
C1421 C249 1.327 . S
C1426 C98 1.327 . S
C1451 C138 1.327 . S
C1456 C289 1.327 . S
C1481 C418 1.327 . S
C1486 C329 1.327 . S
C1511 C458 1.327 . S
C1516 C369 1.327 . S
C1541 C498 1.327 . S
C1546 C569 1.327 . S
C1571 C609 1.327 . S
C1576 C538 1.327 . S
C1601 C15 1.857 . S
C1606 C290 1.908 . S
C1631 C55 1.857 . S
C1636 C170 1.908 . S
C1661 C210 1.908 . S
C1666 C95 1.857 . S
C1691 C250 1.908 . S
C1696 C135 1.857 . S
C1721 C459 1.908 . S
C1726 C166 1.857 . S
C1751 C326 1.857 . S
C1756 C19 1.908 . S
C1781 C419 1.908 . S
C1786 C246 1.857 . S
C1811 C99 1.908 . S
C1816 C366 1.857 . S
C1841 C495 1.857 . S
C1846 C370 1.908 . S
C1871 C570 1.908 . S
C1876 C415 1.857 . S
C1901 C535 1.857 . S
C1906 C330 1.908 . S
C1931 C610 1.908 . S
C1936 C455 1.857 . S
C1961 C566 1.857 . S
C1966 C139 1.908 . S
C1991 C206 1.857 . S
C1996 C499 1.908 . S
C2021 C59 1.908 . S
C2026 C606 1.857 . S
C2051 C539 1.908 . S
C2056 C286 1.857 . S
