# Generated by pormake.
# Topology lcv-a, (4)-cn, num edge types: 1
# Building blocks:
#     Node 0, Type 0, BuildingBlock: QUQFOY_clean_sbu_1, # of connection points: 4
#     Node 1, Type 0, BuildingBlock: QUQFOY_clean_sbu_1, # of connection points: 4
#     Node 2, Type 0, BuildingBlock: QUQFOY_clean_sbu_1, # of connection points: 4
#     Node 3, Type 0, BuildingBlock: QUQFOY_clean_sbu_1, # of connection points: 4
#     Node 4, Type 0, BuildingBlock: QUQFOY_clean_sbu_1, # of connection points: 4
#     Node 5, Type 0, BuildingBlock: QUQFOY_clean_sbu_1, # of connection points: 4
#     Node 6, Type 0, BuildingBlock: QUQFOY_clean_sbu_1, # of connection points: 4
#     Node 7, Type 0, BuildingBlock: QUQFOY_clean_sbu_1, # of connection points: 4
#     Node 8, Type 0, BuildingBlock: QUQFOY_clean_sbu_1, # of connection points: 4
#     Node 9, Type 0, BuildingBlock: QUQFOY_clean_sbu_1, # of connection points: 4
#     Node 10, Type 0, BuildingBlock: QUQFOY_clean_sbu_1, # of connection points: 4
#     Node 11, Type 0, BuildingBlock: QUQFOY_clean_sbu_1, # of connection points: 4
#     Node 12, Type 0, BuildingBlock: QUQFOY_clean_sbu_1, # of connection points: 4
#     Node 13, Type 0, BuildingBlock: QUQFOY_clean_sbu_1, # of connection points: 4
#     Node 14, Type 0, BuildingBlock: QUQFOY_clean_sbu_1, # of connection points: 4
#     Node 15, Type 0, BuildingBlock: QUQFOY_clean_sbu_1, # of connection points: 4
#     Node 16, Type 0, BuildingBlock: QUQFOY_clean_sbu_1, # of connection points: 4
#     Node 17, Type 0, BuildingBlock: QUQFOY_clean_sbu_1, # of connection points: 4
#     Node 18, Type 0, BuildingBlock: QUQFOY_clean_sbu_1, # of connection points: 4
#     Node 19, Type 0, BuildingBlock: QUQFOY_clean_sbu_1, # of connection points: 4
#     Node 20, Type 0, BuildingBlock: QUQFOY_clean_sbu_1, # of connection points: 4
#     Node 21, Type 0, BuildingBlock: QUQFOY_clean_sbu_1, # of connection points: 4
#     Node 22, Type 0, BuildingBlock: QUQFOY_clean_sbu_1, # of connection points: 4
#     Node 23, Type 0, BuildingBlock: QUQFOY_clean_sbu_1, # of connection points: 4
#     Node 24, Type 0, BuildingBlock: QUQFOY_clean_sbu_1, # of connection points: 4
#     Node 25, Type 0, BuildingBlock: QUQFOY_clean_sbu_1, # of connection points: 4
#     Node 26, Type 0, BuildingBlock: QUQFOY_clean_sbu_1, # of connection points: 4
#     Node 27, Type 0, BuildingBlock: QUQFOY_clean_sbu_1, # of connection points: 4
#     Node 28, Type 0, BuildingBlock: QUQFOY_clean_sbu_1, # of connection points: 4
#     Node 29, Type 0, BuildingBlock: QUQFOY_clean_sbu_1, # of connection points: 4
#     Node 30, Type 0, BuildingBlock: QUQFOY_clean_sbu_1, # of connection points: 4
#     Node 31, Type 0, BuildingBlock: QUQFOY_clean_sbu_1, # of connection points: 4
#     Node 32, Type 0, BuildingBlock: QUQFOY_clean_sbu_1, # of connection points: 4
#     Node 33, Type 0, BuildingBlock: QUQFOY_clean_sbu_1, # of connection points: 4
#     Node 34, Type 0, BuildingBlock: QUQFOY_clean_sbu_1, # of connection points: 4
#     Node 35, Type 0, BuildingBlock: QUQFOY_clean_sbu_1, # of connection points: 4
#     Node 36, Type 0, BuildingBlock: QUQFOY_clean_sbu_1, # of connection points: 4
#     Node 37, Type 0, BuildingBlock: QUQFOY_clean_sbu_1, # of connection points: 4
#     Node 38, Type 0, BuildingBlock: QUQFOY_clean_sbu_1, # of connection points: 4
#     Node 39, Type 0, BuildingBlock: QUQFOY_clean_sbu_1, # of connection points: 4
#     Node 40, Type 0, BuildingBlock: QUQFOY_clean_sbu_1, # of connection points: 4
#     Node 41, Type 0, BuildingBlock: QUQFOY_clean_sbu_1, # of connection points: 4
#     Node 42, Type 0, BuildingBlock: QUQFOY_clean_sbu_1, # of connection points: 4
#     Node 43, Type 0, BuildingBlock: QUQFOY_clean_sbu_1, # of connection points: 4
#     Node 44, Type 0, BuildingBlock: QUQFOY_clean_sbu_1, # of connection points: 4
#     Node 45, Type 0, BuildingBlock: QUQFOY_clean_sbu_1, # of connection points: 4
#     Node 46, Type 0, BuildingBlock: QUQFOY_clean_sbu_1, # of connection points: 4
#     Node 47, Type 0, BuildingBlock: QUQFOY_clean_sbu_1, # of connection points: 4
#     Edge 48, Type (0, 0), BuildingBlock: XUDNAN_clean_linker_2, # of connection points: 2
#     Edge 49, Type (0, 0), BuildingBlock: XUDNAN_clean_linker_2, # of connection points: 2
#     Edge 50, Type (0, 0), BuildingBlock: XUDNAN_clean_linker_2, # of connection points: 2
#     Edge 51, Type (0, 0), BuildingBlock: XUDNAN_clean_linker_2, # of connection points: 2
#     Edge 52, Type (0, 0), BuildingBlock: XUDNAN_clean_linker_2, # of connection points: 2
#     Edge 53, Type (0, 0), BuildingBlock: XUDNAN_clean_linker_2, # of connection points: 2
#     Edge 54, Type (0, 0), BuildingBlock: XUDNAN_clean_linker_2, # of connection points: 2
#     Edge 55, Type (0, 0), BuildingBlock: XUDNAN_clean_linker_2, # of connection points: 2
#     Edge 56, Type (0, 0), BuildingBlock: XUDNAN_clean_linker_2, # of connection points: 2
#     Edge 57, Type (0, 0), BuildingBlock: XUDNAN_clean_linker_2, # of connection points: 2
#     Edge 58, Type (0, 0), BuildingBlock: XUDNAN_clean_linker_2, # of connection points: 2
#     Edge 59, Type (0, 0), BuildingBlock: XUDNAN_clean_linker_2, # of connection points: 2
#     Edge 60, Type (0, 0), BuildingBlock: XUDNAN_clean_linker_2, # of connection points: 2
#     Edge 61, Type (0, 0), BuildingBlock: XUDNAN_clean_linker_2, # of connection points: 2
#     Edge 62, Type (0, 0), BuildingBlock: XUDNAN_clean_linker_2, # of connection points: 2
#     Edge 63, Type (0, 0), BuildingBlock: XUDNAN_clean_linker_2, # of connection points: 2
#     Edge 64, Type (0, 0), BuildingBlock: XUDNAN_clean_linker_2, # of connection points: 2
#     Edge 65, Type (0, 0), BuildingBlock: XUDNAN_clean_linker_2, # of connection points: 2
#     Edge 66, Type (0, 0), BuildingBlock: XUDNAN_clean_linker_2, # of connection points: 2
#     Edge 67, Type (0, 0), BuildingBlock: XUDNAN_clean_linker_2, # of connection points: 2
#     Edge 68, Type (0, 0), BuildingBlock: XUDNAN_clean_linker_2, # of connection points: 2
#     Edge 69, Type (0, 0), BuildingBlock: XUDNAN_clean_linker_2, # of connection points: 2
#     Edge 70, Type (0, 0), BuildingBlock: XUDNAN_clean_linker_2, # of connection points: 2
#     Edge 71, Type (0, 0), BuildingBlock: XUDNAN_clean_linker_2, # of connection points: 2
#     Edge 72, Type (0, 0), BuildingBlock: XUDNAN_clean_linker_2, # of connection points: 2
#     Edge 73, Type (0, 0), BuildingBlock: XUDNAN_clean_linker_2, # of connection points: 2
#     Edge 74, Type (0, 0), BuildingBlock: XUDNAN_clean_linker_2, # of connection points: 2
#     Edge 75, Type (0, 0), BuildingBlock: XUDNAN_clean_linker_2, # of connection points: 2
#     Edge 76, Type (0, 0), BuildingBlock: XUDNAN_clean_linker_2, # of connection points: 2
#     Edge 77, Type (0, 0), BuildingBlock: XUDNAN_clean_linker_2, # of connection points: 2
#     Edge 78, Type (0, 0), BuildingBlock: XUDNAN_clean_linker_2, # of connection points: 2
#     Edge 79, Type (0, 0), BuildingBlock: XUDNAN_clean_linker_2, # of connection points: 2
#     Edge 80, Type (0, 0), BuildingBlock: XUDNAN_clean_linker_2, # of connection points: 2
#     Edge 81, Type (0, 0), BuildingBlock: XUDNAN_clean_linker_2, # of connection points: 2
#     Edge 82, Type (0, 0), BuildingBlock: XUDNAN_clean_linker_2, # of connection points: 2
#     Edge 83, Type (0, 0), BuildingBlock: XUDNAN_clean_linker_2, # of connection points: 2
#     Edge 84, Type (0, 0), BuildingBlock: XUDNAN_clean_linker_2, # of connection points: 2
#     Edge 85, Type (0, 0), BuildingBlock: XUDNAN_clean_linker_2, # of connection points: 2
#     Edge 86, Type (0, 0), BuildingBlock: XUDNAN_clean_linker_2, # of connection points: 2
#     Edge 87, Type (0, 0), BuildingBlock: XUDNAN_clean_linker_2, # of connection points: 2
#     Edge 88, Type (0, 0), BuildingBlock: XUDNAN_clean_linker_2, # of connection points: 2
#     Edge 89, Type (0, 0), BuildingBlock: XUDNAN_clean_linker_2, # of connection points: 2
#     Edge 90, Type (0, 0), BuildingBlock: XUDNAN_clean_linker_2, # of connection points: 2
#     Edge 91, Type (0, 0), BuildingBlock: XUDNAN_clean_linker_2, # of connection points: 2
#     Edge 92, Type (0, 0), BuildingBlock: XUDNAN_clean_linker_2, # of connection points: 2
#     Edge 93, Type (0, 0), BuildingBlock: XUDNAN_clean_linker_2, # of connection points: 2
#     Edge 94, Type (0, 0), BuildingBlock: XUDNAN_clean_linker_2, # of connection points: 2
#     Edge 95, Type (0, 0), BuildingBlock: XUDNAN_clean_linker_2, # of connection points: 2
#     Edge 96, Type (0, 0), BuildingBlock: XUDNAN_clean_linker_2, # of connection points: 2
#     Edge 97, Type (0, 0), BuildingBlock: XUDNAN_clean_linker_2, # of connection points: 2
#     Edge 98, Type (0, 0), BuildingBlock: XUDNAN_clean_linker_2, # of connection points: 2
#     Edge 99, Type (0, 0), BuildingBlock: XUDNAN_clean_linker_2, # of connection points: 2
#     Edge 100, Type (0, 0), BuildingBlock: XUDNAN_clean_linker_2, # of connection points: 2
#     Edge 101, Type (0, 0), BuildingBlock: XUDNAN_clean_linker_2, # of connection points: 2
#     Edge 102, Type (0, 0), BuildingBlock: XUDNAN_clean_linker_2, # of connection points: 2
#     Edge 103, Type (0, 0), BuildingBlock: XUDNAN_clean_linker_2, # of connection points: 2
#     Edge 104, Type (0, 0), BuildingBlock: XUDNAN_clean_linker_2, # of connection points: 2
#     Edge 105, Type (0, 0), BuildingBlock: XUDNAN_clean_linker_2, # of connection points: 2
#     Edge 106, Type (0, 0), BuildingBlock: XUDNAN_clean_linker_2, # of connection points: 2
#     Edge 107, Type (0, 0), BuildingBlock: XUDNAN_clean_linker_2, # of connection points: 2
#     Edge 108, Type (0, 0), BuildingBlock: XUDNAN_clean_linker_2, # of connection points: 2
#     Edge 109, Type (0, 0), BuildingBlock: XUDNAN_clean_linker_2, # of connection points: 2
#     Edge 110, Type (0, 0), BuildingBlock: XUDNAN_clean_linker_2, # of connection points: 2
#     Edge 111, Type (0, 0), BuildingBlock: XUDNAN_clean_linker_2, # of connection points: 2
#     Edge 112, Type (0, 0), BuildingBlock: XUDNAN_clean_linker_2, # of connection points: 2
#     Edge 113, Type (0, 0), BuildingBlock: XUDNAN_clean_linker_2, # of connection points: 2
#     Edge 114, Type (0, 0), BuildingBlock: XUDNAN_clean_linker_2, # of connection points: 2
#     Edge 115, Type (0, 0), BuildingBlock: XUDNAN_clean_linker_2, # of connection points: 2
#     Edge 116, Type (0, 0), BuildingBlock: XUDNAN_clean_linker_2, # of connection points: 2
#     Edge 117, Type (0, 0), BuildingBlock: XUDNAN_clean_linker_2, # of connection points: 2
#     Edge 118, Type (0, 0), BuildingBlock: XUDNAN_clean_linker_2, # of connection points: 2
#     Edge 119, Type (0, 0), BuildingBlock: XUDNAN_clean_linker_2, # of connection points: 2
#     Edge 120, Type (0, 0), BuildingBlock: XUDNAN_clean_linker_2, # of connection points: 2
#     Edge 121, Type (0, 0), BuildingBlock: XUDNAN_clean_linker_2, # of connection points: 2
#     Edge 122, Type (0, 0), BuildingBlock: XUDNAN_clean_linker_2, # of connection points: 2
#     Edge 123, Type (0, 0), BuildingBlock: XUDNAN_clean_linker_2, # of connection points: 2
#     Edge 124, Type (0, 0), BuildingBlock: XUDNAN_clean_linker_2, # of connection points: 2
#     Edge 125, Type (0, 0), BuildingBlock: XUDNAN_clean_linker_2, # of connection points: 2
#     Edge 126, Type (0, 0), BuildingBlock: XUDNAN_clean_linker_2, # of connection points: 2
#     Edge 127, Type (0, 0), BuildingBlock: XUDNAN_clean_linker_2, # of connection points: 2
#     Edge 128, Type (0, 0), BuildingBlock: XUDNAN_clean_linker_2, # of connection points: 2
#     Edge 129, Type (0, 0), BuildingBlock: XUDNAN_clean_linker_2, # of connection points: 2
#     Edge 130, Type (0, 0), BuildingBlock: XUDNAN_clean_linker_2, # of connection points: 2
#     Edge 131, Type (0, 0), BuildingBlock: XUDNAN_clean_linker_2, # of connection points: 2
#     Edge 132, Type (0, 0), BuildingBlock: XUDNAN_clean_linker_2, # of connection points: 2
#     Edge 133, Type (0, 0), BuildingBlock: XUDNAN_clean_linker_2, # of connection points: 2
#     Edge 134, Type (0, 0), BuildingBlock: XUDNAN_clean_linker_2, # of connection points: 2
#     Edge 135, Type (0, 0), BuildingBlock: XUDNAN_clean_linker_2, # of connection points: 2
#     Edge 136, Type (0, 0), BuildingBlock: XUDNAN_clean_linker_2, # of connection points: 2
#     Edge 137, Type (0, 0), BuildingBlock: XUDNAN_clean_linker_2, # of connection points: 2
#     Edge 138, Type (0, 0), BuildingBlock: XUDNAN_clean_linker_2, # of connection points: 2
#     Edge 139, Type (0, 0), BuildingBlock: XUDNAN_clean_linker_2, # of connection points: 2
#     Edge 140, Type (0, 0), BuildingBlock: XUDNAN_clean_linker_2, # of connection points: 2
#     Edge 141, Type (0, 0), BuildingBlock: XUDNAN_clean_linker_2, # of connection points: 2
#     Edge 142, Type (0, 0), BuildingBlock: XUDNAN_clean_linker_2, # of connection points: 2
#     Edge 143, Type (0, 0), BuildingBlock: XUDNAN_clean_linker_2, # of connection points: 2
# Relax obj value: 0.767
# Max RMSD: 0.378
# Mean RMSD: 0.347
data_MOF--net-lcv-a--node1-QUQFOY_clean_sbu_1--edge1-XUDNAN_clean_linker_2
_symmetry_space_group_name_H-M    P1
_symmetry_Int_Tables_number       1
_symmetry_cell_setting            triclinic
loop_
_symmetry_equiv_pos_as_xyz
'x, y, z'
_cell_length_a     91.921688
_cell_length_b     91.915124
_cell_length_c     91.874467
_cell_angle_alpha  89.384807
_cell_angle_beta   89.539752
_cell_angle_gamma 89.4899
loop_
_atom_site_label
_atom_site_type_symbol
_atom_site_fract_x
_atom_site_fract_y
_atom_site_fract_z
_atom_type_partial_charge
O0 O 0.98819 0.35199 0.21619 0.0
Cd1 Cd 0.00738 0.35304 0.22662 0.0
Cd2 Cd 0.99482 0.32958 0.23806 0.0
O3 O 0.97533 0.33638 0.22903 0.0
O4 O 0.01358 0.37288 0.2196 0.0
O5 O 0.0064 0.36884 0.24219 0.0
C6 C 0.00947 0.37812 0.23197 0.0
C7 C 0.00774 0.32754 0.25906 0.0
C8 C 0.9765 0.34501 0.21815 0.0
C9 C 0.01803 0.32233 0.2179 0.0
O10 O 0.00621 0.31789 0.2234 0.0
O11 O 0.02183 0.33573 0.21928 0.0
O12 O 0.99735 0.31847 0.2565 0.0
O13 O 0.00837 0.33938 0.25131 0.0
O14 O 0.99877 0.73763 0.47515 0.0
Cd15 Cd 0.99213 0.75771 0.46967 0.0
Cd16 Cd 0.02479 0.73613 0.47554 0.0
O17 O 0.01128 0.71895 0.46916 0.0
O18 O 0.97118 0.75523 0.46363 0.0
O19 O 0.9771 0.76623 0.48391 0.0
C20 C 0.96707 0.76073 0.47584 0.0
C21 C 0.03301 0.74645 0.49651 0.0
C22 C 0.99981 0.72642 0.46727 0.0
C23 C 0.02241 0.76243 0.45304 0.0
O24 O 0.02809 0.75127 0.4592 0.0
O25 O 0.00931 0.7671 0.45593 0.0
O26 O 0.04095 0.73686 0.4898 0.0
O27 O 0.01953 0.74792 0.49276 0.0
O28 O 0.59277 0.72894 0.70814 0.0
Cd29 Cd 0.57653 0.73346 0.72194 0.0
Cd30 Cd 0.59534 0.75148 0.73095 0.0
O31 O 0.61016 0.73576 0.72299 0.0
O32 O 0.56525 0.7147 0.72409 0.0
O33 O 0.58159 0.72182 0.74005 0.0
C34 C 0.57332 0.71167 0.73526 0.0
C35 C 0.58361 0.76043 0.75132 0.0
C36 C 0.60605 0.72885 0.71175 0.0
C37 C 0.57475 0.76448 0.71143 0.0
O38 O 0.58815 0.76417 0.71448 0.0
O39 O 0.56658 0.75385 0.71548 0.0
O40 O 0.59653 0.76502 0.74791 0.0
O41 O 0.5789 0.74904 0.74482 0.0
O42 O 0.59819 0.36015 0.97381 0.0
Cd43 Cd 0.6032 0.33918 0.96849 0.0
Cd44 Cd 0.57173 0.35773 0.97077 0.0
O45 O 0.58343 0.37694 0.96753 0.0
O46 O 0.62469 0.33424 0.96635 0.0
O47 O 0.61279 0.33172 0.98713 0.0
C48 C 0.62506 0.33187 0.98017 0.0
C49 C 0.56344 0.34389 0.99031 0.0
C50 C 0.59611 0.37162 0.96629 0.0
C51 C 0.57421 0.33254 0.95144 0.0
O52 O 0.57021 0.34581 0.95215 0.0
O53 O 0.58538 0.32764 0.95853 0.0
O54 O 0.55522 0.35387 0.9845 0.0
O55 O 0.57698 0.34333 0.98638 0.0
O56 O 0.99083 0.74142 0.3803 0.0
Cd57 Cd 0.0102 0.74648 0.37123 0.0
Cd58 Cd 0.99172 0.76793 0.36261 0.0
O59 O 0.97539 0.75266 0.36566 0.0
O60 O 0.0209 0.72702 0.37128 0.0
O61 O 0.01171 0.73723 0.35145 0.0
C62 C 0.01739 0.72593 0.35771 0.0
C63 C 0.0067 0.77686 0.3442 0.0
C64 C 0.978 0.74319 0.37556 0.0
C65 C 0.01146 0.77693 0.38405 0.0
O66 O 0.99794 0.77731 0.38152 0.0
O67 O 0.01939 0.76656 0.37881 0.0
O68 O 0.99424 0.78311 0.34666 0.0
O69 O 0.00918 0.76452 0.35045 0.0
O70 O 0.58538 0.73178 0.61058 0.0
Cd71 Cd 0.59316 0.75169 0.61472 0.0
Cd72 Cd 0.55944 0.73161 0.60956 0.0
O73 O 0.57224 0.71344 0.61594 0.0
O74 O 0.61302 0.749 0.62286 0.0
O75 O 0.61001 0.75705 0.6005 0.0
C76 C 0.6187 0.75201 0.61039 0.0
C77 C 0.55325 0.74258 0.58734 0.0
C78 C 0.58401 0.72016 0.61802 0.0
C79 C 0.56436 0.75771 0.63248 0.0
O80 O 0.55807 0.74696 0.62643 0.0
O81 O 0.5773 0.76199 0.62881 0.0
O82 O 0.54385 0.73474 0.59436 0.0
O83 O 0.56656 0.74185 0.59167 0.0
O84 O 0.6103 0.34367 0.89126 0.0
Cd85 Cd 0.59091 0.34318 0.8814 0.0
Cd86 Cd 0.60509 0.32441 0.86774 0.0
O87 O 0.62047 0.34127 0.86981 0.0
O88 O 0.58208 0.36342 0.8831 0.0
O89 O 0.5922 0.35532 0.8628 0.0
C90 C 0.58681 0.3661 0.87003 0.0
C91 C 0.58996 0.31736 0.84901 0.0
C92 C 0.62096 0.34599 0.88279 0.0
C93 C 0.58763 0.31326 0.89183 0.0
O94 O 0.6002 0.31205 0.88607 0.0
O95 O 0.57987 0.32463 0.88913 0.0
O96 O 0.60294 0.31187 0.8501 0.0
O97 O 0.5865 0.32808 0.85734 0.0
O98 O 0.98996 0.36396 0.11645 0.0
Cd99 Cd 0.97717 0.34813 0.1254 0.0
Cd100 Cd 0.01449 0.34902 0.11375 0.0
O101 O 0.01181 0.37094 0.11875 0.0
O102 O 0.95696 0.35541 0.12981 0.0
O103 O 0.9626 0.34204 0.11057 0.0
C104 C 0.9531 0.34973 0.11765 0.0
C105 C 0.02588 0.33598 0.09552 0.0
C106 C 0.999 0.37089 0.12399 0.0
C107 C 1.00178 0.33013 0.14007 0.0
O108 O 0.01109 0.33574 0.13141 0.0
O109 O 0.98806 0.3328 0.13906 0.0
O110 O 0.0334 0.34256 0.10527 0.0
O111 O 0.012 0.33861 0.09501 0.0
O112 O 0.22573 0.98007 0.34916 0.0
Cd113 Cd 0.21056 0.99442 0.35658 0.0
Cd114 Cd 0.22558 0.98276 0.32246 0.0
O115 O 0.22552 0.96284 0.33378 0.0
O116 O 0.20526 0.98998 0.37745 0.0
O117 O 0.22004 0.00785 0.3712 0.0
C118 C 0.21458 0.99961 0.38135 0.0
C119 C 0.24371 0.99841 0.31509 0.0
C120 C 0.22307 0.96682 0.34672 0.0
C121 C 0.19491 0.99835 0.32597 0.0
O122 O 0.20531 0.99197 0.31925 0.0
O123 O 0.19499 1.00043 0.3399 0.0
O124 O 0.23923 0.98832 0.30649 0.0
O125 O 0.23913 0.99831 0.32845 0.0
O126 O 0.35075 0.97374 0.59645 0.0
Cd127 Cd 0.32927 0.97809 0.5967 0.0
Cd128 Cd 0.35472 0.97233 0.57038 0.0
O129 O 0.36663 0.96045 0.58625 0.0
O130 O 0.32288 0.97775 0.61789 0.0
O131 O 0.32732 0.99797 0.60531 0.0
C132 C 0.32521 0.99166 0.61784 0.0
C133 C 0.34767 0.99521 0.5624 0.0
C134 C 0.35756 0.96177 0.59659 0.0
C135 C 0.32391 0.96207 0.56649 0.0
O136 O 0.33752 0.96014 0.56453 0.0
O137 O 0.31863 0.96985 0.57707 0.0
O138 O 0.35696 0.98768 0.55481 0.0
O139 O 0.34525 0.99113 0.57566 0.0
O140 O 0.36951 0.1175 0.83174 0.0
Cd141 Cd 0.37351 0.09603 0.83624 0.0
Cd142 Cd 0.37183 0.11315 0.80415 0.0
O143 O 0.38113 0.13002 0.81627 0.0
O144 O 0.38001 0.09549 0.85721 0.0
O145 O 0.35801 0.0891 0.85044 0.0
C146 C 0.36681 0.09229 0.86085 0.0
C147 C 0.34904 0.10338 0.80052 0.0
C148 C 0.38016 0.1258 0.82938 0.0
C149 C 0.39 0.08611 0.8061 0.0
O150 O 0.38664 0.09751 0.79885 0.0
O151 O 0.38552 0.08402 0.8194 0.0
O152 O 0.3544 0.11263 0.79122 0.0
O153 O 0.35559 0.10166 0.8128 0.0
O154 O 0.23611 0.13275 0.10032 0.0
Cd155 Cd 0.25712 0.12748 0.09721 0.0
Cd156 Cd 0.24439 0.11624 0.07369 0.0
O157 O 0.22474 0.11864 0.08504 0.0
O158 O 0.26408 0.12907 0.11798 0.0
O159 O 0.26185 0.10815 0.10663 0.0
C160 C 0.26355 0.11502 0.1187 0.0
C161 C 0.25766 0.09616 0.0661 0.0
C162 C 0.22438 0.12752 0.0956 0.0
C163 C 0.26167 0.14289 0.06796 0.0
O164 O 0.25172 0.13469 0.06335 0.0
O165 O 0.26676 0.1411 0.08087 0.0
O166 O 0.24606 0.10023 0.05921 0.0
O167 O 0.26052 0.10244 0.07825 0.0
O168 O 0.2044 0.10376 0.23443 0.0
Cd169 Cd 0.21702 0.08597 0.23763 0.0
Cd170 Cd 0.22462 0.10307 0.25854 0.0
O171 O 0.21959 0.11965 0.24371 0.0
O172 O 0.21906 0.07572 0.21822 0.0
O173 O 0.23586 0.09029 0.22691 0.0
C174 C 0.23099 0.08288 0.21617 0.0
C175 C 0.24448 0.08953 0.26652 0.0
C176 C 0.2088 0.11676 0.23564 0.0
C177 C 0.2056 0.08087 0.26785 0.0
O178 O 0.20665 0.09459 0.26851 0.0
O179 O 0.21167 0.07408 0.25722 0.0
O180 O 0.24097 0.1015 0.27308 0.0
O181 O 0.2384 0.08697 0.25427 0.0
O182 O 0.22508 0.98334 0.51082 0.0
Cd183 Cd 0.24434 0.97256 0.50629 0.0
Cd184 Cd 0.23398 0.98436 0.53797 0.0
O185 O 0.21314 0.9789 0.52999 0.0
O186 O 0.24244 0.9654 0.48555 0.0
O187 O 0.25483 0.98496 0.4911 0.0
C188 C 0.24892 0.97707 0.48119 0.0
C189 C 0.25113 1.00253 0.53489 0.0
C190 C 0.21462 0.97644 0.51652 0.0
C191 C 0.2529 0.95793 0.5382 0.0
O192 O 0.24491 0.96658 0.54554 0.0
O193 O 0.25408 0.95913 0.52411 0.0
O194 O 0.24266 1.00244 0.54624 0.0
O195 O 0.24817 0.99381 0.52444 0.0
O196 O 0.37442 0.99495 0.73565 0.0
Cd197 Cd 0.3657 0.01459 0.73938 0.0
Cd198 Cd 0.35603 0.99707 0.76273 0.0
O199 O 0.36372 0.97933 0.75056 0.0
O200 O 0.36855 0.02447 0.71959 0.0
O201 O 0.34739 0.01595 0.72707 0.0
C202 C 0.35534 0.02092 0.71654 0.0
C203 C 0.33556 0.01139 0.76621 0.0
C204 C 0.37259 0.982 0.74012 0.0
C205 C 0.37847 0.01803 0.77075 0.0
O206 O 0.37254 0.00602 0.77392 0.0
O207 O 0.37615 0.02421 0.75825 0.0
O208 O 0.33793 1.00037 0.77483 0.0
O209 O 0.34345 0.01255 0.75463 0.0
O210 O 0.36283 0.10984 0.99025 0.0
Cd211 Cd 0.34289 0.11859 0.98685 0.0
Cd212 Cd 0.36156 0.10825 0.01724 0.0
O213 O 0.37956 0.11555 1.00467 0.0
O214 O 0.34385 0.12899 0.96751 0.0
O215 O 0.33376 0.10738 0.97035 0.0
C216 C 0.33848 0.11753 0.96169 0.0
C217 C 0.34798 0.08762 0.02113 0.0
C218 C 0.37406 0.11736 0.99221 0.0
C219 C 0.33762 0.13144 0.01905 0.0
O220 O 0.34872 0.12493 0.02428 0.0
O221 O 0.33346 0.12973 0.00572 0.0
O222 O 0.3582 0.09096 0.03013 0.0
O223 O 0.34747 0.09445 0.00878 0.0
O224 O 0.35697 0.20707 0.98488 0.0
Cd225 Cd 0.35439 0.21572 1.00462 0.0
Cd226 Cd 0.33145 0.22705 0.98915 0.0
O227 O 0.34421 0.22185 0.97075 0.0
O228 O 0.37424 0.21364 0.01407 0.0
O229 O 0.36657 0.23403 1.00355 0.0
C230 C 0.37715 0.22653 0.00905 0.0
C231 C 0.32791 0.24555 0.00639 0.0
C232 C 0.3534 0.21141 0.97225 0.0
C233 C 0.32259 0.20494 0.00903 0.0
O234 O 0.32054 0.20912 0.99604 0.0
O235 O 0.33433 0.20866 0.01566 0.0
O236 O 0.3191 0.24462 0.9955 0.0
O237 O 0.33935 0.23747 0.00617 0.0
O238 O 0.82895 0.36549 0.11211 0.0
Cd239 Cd 0.83011 0.37727 0.09314 0.0
Cd240 Cd 0.80083 0.36671 0.11104 0.0
O241 O 0.81418 0.3721 0.1286 0.0
O242 O 0.84876 0.38834 0.09275 0.0
O243 O 0.84579 0.36726 0.08164 0.0
C244 C 0.85442 0.37724 0.08624 0.0
C245 C 0.80002 0.34707 0.09504 0.0
C246 C 0.82707 0.37241 0.12371 0.0
C247 C 0.79733 0.38953 0.08854 0.0
O248 O 0.79233 0.38434 0.10045 0.0
O249 O 0.81043 0.38679 0.08403 0.0
O250 O 0.7908 0.34793 0.10573 0.0
O251 O 0.81051 0.3562 0.09469 0.0
O252 O 0.98084 0.60283 0.35265 0.0
Cd253 Cd 0.98157 0.60571 0.33075 0.0
Cd254 Cd 0.979 0.57666 0.35401 0.0
O255 O 0.97035 0.59103 0.36971 0.0
O256 O 0.97837 0.62689 0.32552 0.0
O257 O 1.00016 0.61638 0.3259 0.0
C258 C 0.99233 0.62814 0.32507 0.0
C259 C 1.00062 0.56866 0.34365 0.0
C260 C 0.97044 0.60237 0.36176 0.0
C261 C 0.96376 0.57726 0.32479 0.0
O262 O 0.9639 0.57378 0.33825 0.0
O263 O 0.97124 0.58799 0.31947 0.0
O264 O 0.9935 0.56023 0.35254 0.0
O265 O 0.99691 0.58222 0.34304 0.0
O266 O 0.74718 0.73028 0.60089 0.0
Cd267 Cd 0.74355 0.72063 0.58146 0.0
Cd268 Cd 0.77448 0.73051 0.59816 0.0
O269 O 0.76253 0.72462 0.61704 0.0
O270 O 0.72506 0.71023 0.58529 0.0
O271 O 0.72531 0.73041 0.57232 0.0
C272 C 0.71785 0.72077 0.57944 0.0
C273 C 0.77562 0.75009 0.58204 0.0
C274 C 0.74969 0.72322 0.61248 0.0
C275 C 0.77555 0.70539 0.57713 0.0
O276 O 0.78153 0.71276 0.58707 0.0
O277 O 0.76209 0.70748 0.5733 0.0
O278 O 0.7853 0.74858 0.59214 0.0
O279 O 0.76435 0.74188 0.58267 0.0
O280 O 0.14841 0.99751 0.3559 0.0
Cd281 Cd 0.13411 0.99873 0.33951 0.0
Cd282 Cd 0.12324 0.01724 0.35753 0.0
O283 O 0.12958 0.99882 0.37057 0.0
O284 O 0.13358 0.97927 0.32893 0.0
O285 O 0.11699 0.98569 0.34515 0.0
C286 C 0.12243 0.97575 0.33689 0.0
C287 C 0.10185 0.02192 0.34388 0.0
C288 C 0.14235 0.99384 0.36777 0.0
C289 C 0.14225 0.02944 0.33584 0.0
O290 O 0.14046 0.02951 0.34956 0.0
O291 O 0.13651 0.01921 0.32863 0.0
O292 O 0.10392 0.02874 0.3559 0.0
O293 O 0.11102 0.01197 0.34049 0.0
O294 O 0.2313 0.895 0.48736 0.0
Cd295 Cd 0.23474 0.88151 0.50412 0.0
Cd296 Cd 0.25819 0.87447 0.48876 0.0
O297 O 0.24551 0.88356 0.47172 0.0
O298 O 0.21426 0.87648 0.51139 0.0
O299 O 0.22762 0.86211 0.49742 0.0
C300 C 0.21509 0.86513 0.50314 0.0
C301 C 0.26523 0.85301 0.50034 0.0
C302 C 0.23606 0.89353 0.47447 0.0
C303 C 0.26521 0.89426 0.5113 0.0
O304 O 0.26896 0.89037 0.49865 0.0
O305 O 0.25273 0.89039 0.51661 0.0
O306 O 0.27169 0.85703 0.48836 0.0
O307 O 0.25366 0.86003 0.50425 0.0
O308 O 0.97557 0.50498 0.22776 0.0
Cd309 Cd 0.96166 0.50046 0.24457 0.0
Cd310 Cd 0.97496 0.53233 0.23328 0.0
O311 O 0.97461 0.52233 0.21266 0.0
O312 O 0.95486 0.48041 0.2406 0.0
O313 O 0.9716 0.48476 0.25699 0.0
C314 C 0.96504 0.47543 0.24893 0.0
C315 C 0.99378 0.53558 0.24955 0.0
C316 C 0.97093 0.50937 0.21555 0.0
C317 C 0.94514 0.53159 0.24869 0.0
O318 O 0.95506 0.53873 0.24203 0.0
O319 O 0.94616 0.51761 0.25064 0.0
O320 O 0.99113 0.54514 0.23943 0.0
O321 O 0.98668 0.52349 0.24939 0.0
O322 O 0.60508 0.58422 0.73226 0.0
Cd323 Cd 0.61194 0.58767 0.75289 0.0
Cd324 Cd 0.6082 0.55762 0.73235 0.0
O325 O 0.61235 0.57155 0.71447 0.0
O326 O 0.61687 0.60903 0.75458 0.0
O327 O 0.59627 0.59946 0.76264 0.0
C328 C 0.60376 0.61097 0.75948 0.0
C329 C 0.58866 0.55097 0.74715 0.0
C330 C 0.61302 0.58355 0.72101 0.0
C331 C 0.62924 0.55751 0.75704 0.0
O332 O 0.62652 0.55362 0.74408 0.0
O333 O 0.62347 0.56906 0.7628 0.0
O334 O 0.59329 0.5423 0.73704 0.0
O335 O 0.5936 0.56404 0.74721 0.0
O336 O 0.47375 0.83789 0.72499 0.0
Cd337 Cd 0.4941 0.84032 0.71606 0.0
Cd338 Cd 0.47944 0.81031 0.72847 0.0
O339 O 0.46008 0.82016 0.72082 0.0
O340 O 0.49556 0.86043 0.7071 0.0
O341 O 0.50426 0.85478 0.72887 0.0
C342 C 0.50102 0.86467 0.71927 0.0
C343 C 0.49399 0.80942 0.7487 0.0
C344 C 0.46364 0.833 0.71727 0.0
C345 C 0.50176 0.8076 0.70475 0.0
O346 O 0.49187 0.80156 0.71241 0.0
O347 O 0.50425 0.82146 0.7054 0.0
O348 O 0.48399 0.79974 0.74691 0.0
O349 O 0.49365 0.82099 0.74053 0.0
O350 O 0.49853 0.2266 0.95257 0.0
Cd351 Cd 0.49777 0.24694 0.9606 0.0
Cd352 Cd 0.51737 0.23412 0.97657 0.0
O353 O 0.49959 0.21937 0.97516 0.0
O354 O 0.47665 0.25495 0.96079 0.0
O355 O 0.48773 0.24653 0.9803 0.0
C356 C 0.47592 0.25129 0.97444 0.0
C357 C 0.52245 0.25175 0.99421 0.0
C358 C 0.4951 0.21733 0.96223 0.0
C359 C 0.52891 0.25009 0.95236 0.0
O360 O 0.53027 0.23762 0.95835 0.0
O361 O 0.51724 0.25754 0.9546 0.0
O362 O 0.52851 0.23902 0.99504 0.0
O363 O 0.51304 0.25399 0.98419 0.0
O364 O 0.10539 0.23461 0.20952 0.0
Cd365 Cd 0.08597 0.23481 0.22079 0.0
Cd366 Cd 0.09793 0.26132 0.22682 0.0
O367 O 0.11747 0.2516 0.22078 0.0
O368 O 0.07918 0.21435 0.21657 0.0
O369 O 0.08601 0.22067 0.23843 0.0
C370 C 0.08239 0.21042 0.22969 0.0
C371 C 0.09062 0.27275 0.24799 0.0
C372 C 0.11724 0.2412 0.21174 0.0
C373 C 0.07312 0.26361 0.20774 0.0
O374 O 0.08536 0.26928 0.21012 0.0
O375 O 0.07042 0.2507 0.21265 0.0
O376 O 0.10034 0.27848 0.23951 0.0
O377 O 0.08665 0.25953 0.24545 0.0
O378 O 0.09077 0.86436 0.47479 0.0
Cd379 Cd 0.09359 0.84471 0.46445 0.0
Cd380 Cd 0.06306 0.85835 0.47524 0.0
O381 O 0.07316 0.87822 0.46951 0.0
O382 O 0.11425 0.84407 0.45707 0.0
O383 O 0.10747 0.83315 0.47749 0.0
C384 C 0.11786 0.83753 0.46898 0.0
C385 C 0.064 0.84184 0.49459 0.0
C386 C 0.08651 0.8753 0.46754 0.0
C387 C 0.0622 0.83985 0.44863 0.0
O388 O 0.05538 0.84809 0.45743 0.0
O389 O 0.07603 0.83714 0.45001 0.0
O390 O 0.05335 0.85113 0.49362 0.0
O391 O 0.07485 0.84332 0.48574 0.0
O392 O 0.4813 0.24311 0.87437 0.0
Cd393 Cd 0.50199 0.24034 0.88172 0.0
Cd394 Cd 0.48571 0.27073 0.87277 0.0
O395 O 0.46682 0.26033 0.88021 0.0
O396 O 0.5044 0.21913 0.8861 0.0
O397 O 0.51261 0.22905 0.86572 0.0
C398 C 0.50928 0.2174 0.87302 0.0
C399 C 0.49924 0.27353 0.8518 0.0
C400 C 0.47042 0.2471 0.88186 0.0
C401 C 0.50763 0.271 0.89716 0.0
O402 O 0.49803 0.27753 0.88956 0.0
O403 O 0.5107 0.25733 0.8955 0.0
O404 O 0.48945 0.28315 0.85532 0.0
O405 O 0.49946 0.26129 0.8589 0.0
O406 O 0.10576 0.22632 0.11212 0.0
Cd407 Cd 0.10994 0.24663 0.12004 0.0
Cd408 Cd 0.07821 0.23163 0.11179 0.0
O409 O 0.08893 0.21218 0.11844 0.0
O410 O 0.13073 0.2454 0.12665 0.0
O411 O 0.12388 0.25738 0.10677 0.0
C412 C 0.13429 0.25212 0.11472 0.0
C413 C 0.07243 0.24457 0.09124 0.0
C414 C 0.10193 0.21605 0.12058 0.0
C415 C 0.07942 0.25462 0.13539 0.0
O416 O 0.07255 0.24487 0.12858 0.0
O417 O 0.09306 0.25725 0.13302 0.0
O418 O 0.06382 0.23444 0.09601 0.0
O419 O 0.08546 0.24515 0.0965 0.0
O420 O 0.11728 0.85528 0.3911 0.0
Cd421 Cd 0.09729 0.8544 0.38178 0.0
Cd422 Cd 0.11055 0.82926 0.37454 0.0
O423 O 0.13007 0.83938 0.37861 0.0
O424 O 0.09049 0.87566 0.38162 0.0
O425 O 0.09781 0.86415 0.36191 0.0
C426 C 0.09427 0.87628 0.36802 0.0
C427 C 0.0967 0.82371 0.35439 0.0
C428 C 0.1294 0.84897 0.38852 0.0
C429 C 0.08853 0.82474 0.39599 0.0
O430 O 0.10135 0.82068 0.39287 0.0
O431 O 0.08361 0.83687 0.39061 0.0
O432 O 0.10715 0.81505 0.35845 0.0
O433 O 0.09556 0.83617 0.36062 0.0
O434 O 0.49196 0.85922 0.61988 0.0
Cd435 Cd 0.488 0.84066 0.63145 0.0
Cd436 Cd 0.51778 0.85322 0.61385 0.0
O437 O 0.50969 0.87357 0.62065 0.0
O438 O 0.46723 0.84197 0.63839 0.0
O439 O 0.4743 0.82921 0.61921 0.0
C440 C 0.4638 0.83498 0.62675 0.0
C441 C 0.52046 0.8416 0.59164 0.0
C442 C 0.49746 0.87008 0.62599 0.0
C443 C 0.52026 0.83216 0.64097 0.0
O444 O 0.5255 0.84001 0.63068 0.0
O445 O 0.50638 0.83059 0.64276 0.0
O446 O 0.53012 0.85064 0.59618 0.0
O447 O 0.50823 0.84096 0.5987 0.0
O448 O 0.72807 0.47192 0.83605 0.0
Cd449 Cd 0.71893 0.49216 0.83923 0.0
Cd450 Cd 0.72733 0.47736 0.80808 0.0
O451 O 0.72102 0.45816 0.8194 0.0
O452 O 0.71395 0.49322 0.86086 0.0
O453 O 0.73381 0.50274 0.85121 0.0
C454 C 0.72666 0.49874 0.86277 0.0
C455 C 0.74737 0.49249 0.8066 0.0
C456 C 0.71996 0.46149 0.83271 0.0
C457 C 0.70235 0.49837 0.8079 0.0
O458 O 0.70989 0.48906 0.80092 0.0
O459 O 0.70463 0.50087 0.82162 0.0
O460 O 0.74519 0.48286 0.79666 0.0
O461 O 0.73948 0.49187 0.81828 0.0
O462 O 0.85803 0.47502 0.09344 0.0
Cd463 Cd 0.83708 0.47349 0.09961 0.0
Cd464 Cd 0.85723 0.47508 0.06742 0.0
O465 O 0.87445 0.46607 0.07978 0.0
O466 O 0.83797 0.46337 0.119 0.0
O467 O 0.83362 0.48693 0.11708 0.0
C468 C 0.83704 0.47586 0.12524 0.0
C469 C 0.84594 0.49623 0.06003 0.0
C470 C 0.86732 0.46492 0.09157 0.0
C471 C 0.82865 0.45903 0.06947 0.0
O472 O 0.84169 0.45991 0.06479 0.0
O473 O 0.82419 0.46491 0.08155 0.0
O474 O 0.85498 0.48962 0.05135 0.0
O475 O 0.84586 0.49248 0.07365 0.0
O476 O 0.88106 0.60553 0.34761 0.0
Cd477 Cd 0.86787 0.58853 0.34473 0.0
Cd478 Cd 0.86133 0.60534 0.3228 0.0
O479 O 0.8666 0.62184 0.33721 0.0
O480 O 0.86311 0.58053 0.36506 0.0
O481 O 0.84855 0.59533 0.35274 0.0
C482 C 0.85172 0.58896 0.3649 0.0
C483 C 0.8422 0.59202 0.31362 0.0
C484 C 0.87719 0.6187 0.34566 0.0
C485 C 0.87998 0.58284 0.31466 0.0
O486 O 0.87955 0.59659 0.31386 0.0
O487 O 0.8735 0.57635 0.32536 0.0
O488 O 0.84614 0.60395 0.30708 0.0
O489 O 0.8472 0.5895 0.32643 0.0
O490 O 0.73357 0.6328 0.5991 0.0
Cd491 Cd 0.75262 0.62269 0.59398 0.0
Cd492 Cd 0.7347 0.61705 0.57194 0.0
O493 O 0.71734 0.62198 0.58567 0.0
O494 O 0.76381 0.62386 0.61279 0.0
O495 O 0.75321 0.60372 0.60561 0.0
C496 C 0.7595 0.61081 0.61585 0.0
C497 C 0.7475 0.59684 0.56391 0.0
C498 C 0.72035 0.63079 0.5958 0.0
C499 C 0.75687 0.63677 0.56328 0.0
O500 O 0.74331 0.635 0.5619 0.0
O501 O 0.76349 0.63076 0.57419 0.0
O502 O 0.73572 0.60096 0.55732 0.0
O503 O 0.7503 0.60261 0.5763 0.0
O504 O 0.70623 0.59649 0.73523 0.0
Cd505 Cd 0.72029 0.57966 0.73767 0.0
Cd506 Cd 0.72545 0.59722 0.76004 0.0
O507 O 0.71741 0.61391 0.747 0.0
O508 O 0.72301 0.57159 0.71708 0.0
O509 O 0.7393 0.5851 0.72793 0.0
C510 C 0.73489 0.57905 0.71616 0.0
C511 C 0.74668 0.58603 0.76777 0.0
C512 C 0.70745 0.60983 0.73839 0.0
C513 C 0.70893 0.5727 0.76829 0.0
O514 O 0.70884 0.58639 0.76958 0.0
O515 O 0.71537 0.56686 0.75723 0.0
O516 O 0.74157 0.59717 0.77479 0.0
O517 O 0.74117 0.58326 0.75527 0.0
O518 O 0.72999 0.46043 0.98556 0.0
Cd519 Cd 0.75044 0.46682 0.9877 0.0
Cd520 Cd 0.73749 0.48135 0.00839 0.0
O521 O 0.71863 0.47878 0.99599 0.0
O522 O 0.75899 0.46203 0.96785 0.0
O523 O 0.75251 0.48432 0.97419 0.0
C524 C 0.75629 0.47538 0.96403 0.0
C525 C 0.75414 0.4991 0.01397 0.0
C526 C 0.71836 0.46747 0.98806 0.0
C527 C 0.75212 0.45523 0.01897 0.0
O528 O 0.74151 0.46377 0.02141 0.0
O529 O 0.75896 0.45581 0.00667 0.0
O530 O 0.74155 0.49881 0.02042 0.0
O531 O 0.75618 0.49077 1.00286 0.0
O532 O 0.87795 0.47737 0.24965 0.0
Cd533 Cd 0.8838 0.49873 0.246 0.0
Cd534 Cd 0.87756 0.48435 0.27771 0.0
O535 O 0.88623 0.46543 0.26741 0.0
O536 O 0.89149 0.49833 0.22561 0.0
O537 O 0.86963 0.50693 0.23063 0.0
C538 C 0.87885 0.50227 0.22098 0.0
C539 C 0.85618 0.4981 0.27762 0.0
C540 C 0.88735 0.46817 0.25388 0.0
C541 C 0.8995 0.50782 0.27696 0.0
O542 O 0.89342 0.49795 0.28459 0.0
O543 O 0.89673 0.50944 0.26316 0.0
O544 O 0.85881 0.48909 0.28824 0.0
O545 O 0.86443 0.49741 0.26623 0.0
O546 O 0.85469 0.63469 0.4815 0.0
Cd547 Cd 0.8347 0.62753 0.48658 0.0
Cd548 Cd 0.85218 0.61659 0.50774 0.0
O549 O 0.86934 0.61941 0.49306 0.0
O550 O 0.8237 0.63229 0.4682 0.0
O551 O 0.83078 0.60997 0.4741 0.0
C552 C 0.8258 0.61892 0.46437 0.0
C553 C 0.83673 0.59745 0.51369 0.0
C554 C 0.86726 0.62922 0.48337 0.0
C555 C 0.83344 0.63959 0.51762 0.0
O556 O 0.8464 0.63499 0.51899 0.0
O557 O 0.8259 0.63555 0.50666 0.0
O558 O 0.84856 0.59929 0.52099 0.0
O559 O 0.83482 0.60526 0.50215 0.0
O560 O 0.83836 0.72429 0.47509 0.0
Cd561 Cd 0.84337 0.71941 0.49577 0.0
Cd562 Cd 0.81202 0.7238 0.47473 0.0
O563 O 0.82572 0.71693 0.45739 0.0
O564 O 0.86502 0.71555 0.49512 0.0
O565 O 0.85569 0.73523 0.50513 0.0
C566 C 0.86711 0.72819 0.50059 0.0
C567 C 0.80581 0.74547 0.48596 0.0
C568 C 0.83755 0.71591 0.46429 0.0
C569 C 0.81417 0.70065 0.49983 0.0
O570 O 0.80801 0.70701 0.48908 0.0
O571 O 0.82713 0.70401 0.50422 0.0
O572 O 0.79695 0.73957 0.4769 0.0
O573 O 0.8188 0.74018 0.48693 0.0
O574 O 0.33511 0.85824 0.61558 0.0
Cd575 Cd 0.34096 0.86949 0.59745 0.0
Cd576 Cd 0.30872 0.85661 0.60954 0.0
O577 O 0.31731 0.85895 0.63029 0.0
O578 O 0.36133 0.87587 0.60059 0.0
O579 O 0.35598 0.8573 0.58661 0.0
C580 C 0.36571 0.86461 0.59348 0.0
C581 C 0.30552 0.83874 0.5927 0.0
C582 C 0.32933 0.86442 0.62643 0.0
C583 C 0.31032 0.88431 0.59075 0.0
O584 O 0.30374 0.87588 0.59962 0.0
O585 O 0.32401 0.88286 0.58763 0.0
O586 O 0.29547 0.84146 0.60231 0.0
O587 O 0.31824 0.84441 0.59443 0.0
O588 O 0.45631 0.10123 0.85915 0.0
Cd589 Cd 0.46662 0.09937 0.83971 0.0
Cd590 Cd 0.47467 0.07624 0.85409 0.0
O591 O 0.46982 0.08722 0.87312 0.0
O592 O 0.46585 0.12028 0.8325 0.0
O593 O 0.48617 0.10955 0.83987 0.0
C594 C 0.47937 0.12136 0.83611 0.0
C595 C 0.49434 0.06793 0.84054 0.0
C596 C 0.45928 0.09624 0.87173 0.0
C597 C 0.45265 0.07004 0.83344 0.0
O598 O 0.4565 0.06698 0.8463 0.0
O599 O 0.4575 0.08167 0.82713 0.0
O600 O 0.49043 0.06117 0.85238 0.0
O601 O 0.48853 0.08053 0.83784 0.0
O602 O 0.25789 0.21818 0.11073 0.0
Cd603 Cd 0.25703 0.21782 0.0886 0.0
Cd604 Cd 0.28464 0.21394 0.11177 0.0
O605 O 0.26895 0.20534 0.12647 0.0
O606 O 0.23629 0.21322 0.08374 0.0
O607 O 0.24528 0.2354 0.08177 0.0
C608 C 0.23401 0.22702 0.08223 0.0
C609 C 0.29195 0.23599 0.10084 0.0
C610 C 0.25748 0.20723 0.11916 0.0
C611 C 0.28631 0.19853 0.0837 0.0
O612 O 0.28966 0.19837 0.09711 0.0
O613 O 0.27577 0.20656 0.07859 0.0
O614 O 0.29979 0.22993 0.11092 0.0
O615 O 0.27915 0.23089 0.09889 0.0
O616 O 0.64203 0.48286 0.86077 0.0
Cd617 Cd 0.63279 0.48534 0.84123 0.0
Cd618 Cd 0.62269 0.51019 0.85373 0.0
O619 O 0.62941 0.49928 0.87288 0.0
O620 O 0.63185 0.46424 0.834 0.0
O621 O 0.61279 0.47639 0.84223 0.0
C622 C 0.6184 0.46411 0.83834 0.0
C623 C 0.60171 0.51401 0.84024 0.0
C624 C 0.63914 0.48922 0.87262 0.0
C625 C 0.6459 0.51651 0.83351 0.0
O626 O 0.6391 0.52159 0.8444 0.0
O627 O 0.64391 0.50315 0.82964 0.0
O628 O 0.60407 0.52178 0.85167 0.0
O629 O 0.61034 0.50318 0.83779 0.0
O630 O 0.74388 0.37019 0.98882 0.0
Cd631 Cd 0.74266 0.37173 0.01067 0.0
Cd632 Cd 0.77092 0.36995 0.98713 0.0
O633 O 0.75641 0.38057 0.97233 0.0
O634 O 0.7213 0.37478 0.01513 0.0
O635 O 0.73273 0.35363 0.01802 0.0
C636 C 0.72056 0.36083 0.01705 0.0
C637 C 0.77509 0.34745 0.99848 0.0
C638 C 0.74472 0.38049 0.9797 0.0
C639 C 0.77258 0.38941 0.01371 0.0
O640 O 0.77744 0.38511 1.00147 0.0
O641 O 0.76025 0.38509 0.01915 0.0
O642 O 0.78426 0.35237 0.98888 0.0
O643 O 0.76283 0.35413 0.99982 0.0
O644 O 0.46154 0.98637 0.73176 0.0
Cd645 Cd 0.47162 0.98781 0.75102 0.0
Cd646 Cd 0.47988 0.01186 0.73643 0.0
O647 O 0.47422 1.00095 0.71747 0.0
O648 O 0.47177 0.96667 0.75799 0.0
O649 O 0.49092 0.97772 0.7484 0.0
C650 C 0.48466 0.96571 0.75223 0.0
C651 C 0.49912 0.0182 0.75106 0.0
C652 C 0.46441 0.9913 0.71912 0.0
C653 C 0.45875 0.01809 0.75828 0.0
O654 O 0.46222 0.02146 0.74534 0.0
O655 O 0.46318 0.00589 0.7639 0.0
O656 O 0.49585 0.02621 0.73981 0.0
O657 O 0.4932 0.00555 0.75223 0.0
O658 O 0.12294 0.0882 0.24192 0.0
Cd659 Cd 0.11844 0.088 0.26306 0.0
Cd660 Cd 0.11489 0.06307 0.23809 0.0
O661 O 0.12187 0.07742 0.22135 0.0
O662 O 0.12 0.1091 0.26939 0.0
O663 O 0.09926 0.09852 0.26371 0.0
C664 C 0.10642 0.11041 0.26579 0.0
C665 C 0.09359 0.05872 0.25077 0.0
C666 C 0.12582 0.08838 0.22855 0.0
C667 C 0.13044 0.05622 0.26574 0.0
O668 O 0.13095 0.05549 0.25186 0.0
O669 O 0.12419 0.06702 0.27235 0.0
O670 O 0.0976 0.05 0.24046 0.0
O671 O 0.09995 0.07111 0.25148 0.0
H672 H 0.01407 0.3 0.2687 0.0
H673 H 0.03191 0.3434 0.26548 0.0
H674 H 0.05651 0.3333 0.26899 0.0
H675 H 0.04443 0.28437 0.29457 0.0
H676 H 0.04367 0.26717 0.2854 0.0
H677 H 0.02733 0.27794 0.28778 0.0
H678 H 0.0229 0.2776 0.25976 0.0
H679 H 0.0389 0.2665 0.25787 0.0
H680 H 0.03743 0.28325 0.24771 0.0
H681 H 0.07887 0.31853 0.26543 0.0
H682 H 0.09654 0.30069 0.25587 0.0
H683 H 0.06473 0.26652 0.26144 0.0
C684 C 0.02304 0.30746 0.26962 0.0
C685 C 0.02098 0.32252 0.2669 0.0
C686 C 0.03312 0.33187 0.26772 0.0
C687 C 0.0472 0.32619 0.26969 0.0
C688 C 0.049 0.31115 0.27112 0.0
C689 C 0.03719 0.30191 0.27148 0.0
C690 C 0.04212 0.28611 0.27086 0.0
C691 C 0.03922 0.27844 0.28553 0.0
C692 C 0.0349 0.27793 0.2583 0.0
C693 C 0.05832 0.28799 0.2683 0.0
C694 C 0.06216 0.30247 0.26912 0.0
C695 C 0.07609 0.30712 0.26523 0.0
C696 C 0.08609 0.29687 0.25978 0.0
C697 C 0.08208 0.28215 0.25802 0.0
C698 C 0.06825 0.27759 0.26302 0.0
H699 H 0.03904 0.82935 0.50468 0.0
H700 H 0.0857 0.82275 0.50211 0.0
H701 H 0.08261 0.79697 0.50901 0.0
H702 H 0.03119 0.80022 0.53432 0.0
H703 H 0.01472 0.79529 0.52515 0.0
H704 H 0.0208 0.81389 0.52464 0.0
H705 H 0.02019 0.81363 0.49642 0.0
H706 H 0.01422 0.79513 0.49685 0.0
H707 H 0.03045 0.79989 0.48681 0.0
H708 H 0.07433 0.77132 0.50992 0.0
H709 H 0.0617 0.74856 0.50422 0.0
H710 H 0.02028 0.77141 0.50639 0.0
C711 C 0.04865 0.82269 0.50643 0.0
C712 C 0.06262 0.82815 0.50313 0.0
C713 C 0.0749 0.81889 0.50484 0.0
C714 C 0.07325 0.80419 0.50877 0.0
C715 C 0.05923 0.7989 0.51108 0.0
C716 C 0.04713 0.80793 0.51016 0.0
C717 C 0.03322 0.7992 0.51055 0.0
C718 C 0.02447 0.80234 0.5245 0.0
C719 C 0.024 0.80213 0.49685 0.0
C720 C 0.03937 0.78385 0.51081 0.0
C721 C 0.05439 0.78388 0.51153 0.0
C722 C 0.06256 0.77112 0.50983 0.0
C723 C 0.05527 0.75818 0.50663 0.0
C724 C 0.03997 0.75811 0.50499 0.0
C725 C 0.03194 0.77098 0.50792 0.0
H726 H 0.55632 0.75316 0.76047 0.0
H727 H 0.58619 0.78932 0.75808 0.0
H728 H 0.56581 0.80635 0.76271 0.0
H729 H 0.53055 0.76834 0.74029 0.0
H730 H 0.51501 0.76111 0.74992 0.0
H731 H 0.53213 0.75164 0.75067 0.0
H732 H 0.53164 0.75264 0.77886 0.0
H733 H 0.51436 0.76207 0.77823 0.0
H734 H 0.5294 0.76992 0.78776 0.0
H735 H 0.54171 0.81956 0.76142 0.0
H736 H 0.51673 0.82737 0.75521 0.0
H737 H 0.50244 0.78265 0.75884 0.0
C738 C 0.55872 0.76459 0.76169 0.0
C739 C 0.57293 0.76985 0.7591 0.0
C740 C 0.5755 0.78495 0.76034 0.0
C741 C 0.56392 0.79475 0.76289 0.0
C742 C 0.54986 0.78926 0.76444 0.0
C743 C 0.54728 0.77447 0.76416 0.0
C744 C 0.53111 0.77138 0.76397 0.0
C745 C 0.52697 0.76262 0.75041 0.0
C746 C 0.52635 0.76354 0.77804 0.0
C747 C 0.52496 0.78672 0.7633 0.0
C748 C 0.53591 0.79692 0.76385 0.0
C749 C 0.53302 0.81169 0.76147 0.0
C750 C 0.51874 0.81605 0.75798 0.0
C751 C 0.50749 0.80568 0.75681 0.0
C752 C 0.51063 0.79093 0.76012 0.0
H753 H 0.55026 0.26057 0.99813 0.0
H754 H 0.5054 0.2721 0.0071 0.0
H755 H 0.51276 0.29701 0.0132 0.0
H756 H 0.56794 0.28805 0.02507 0.0
H757 H 0.58223 0.29146 0.01195 0.0
H758 H 0.57434 0.27361 0.01348 0.0
H759 H 0.56909 0.27453 0.98617 0.0
H760 H 0.57581 0.2927 0.98414 0.0
H761 H 0.5574 0.28862 0.97899 0.0
H762 H 0.52352 0.32145 0.01203 0.0
H763 H 0.53674 0.34327 1.00369 0.0
H764 H 0.57488 0.31664 0.99487 0.0
C765 C 0.5422 0.26809 1.0024 0.0
C766 C 0.52735 0.26433 1.00266 0.0
C767 C 0.51688 0.27469 0.00728 0.0
C768 C 0.52098 0.28888 0.01074 0.0
C769 C 0.53562 0.2926 0.00952 0.0
C770 C 0.54615 0.28242 0.0057 0.0
C771 C 0.56058 0.28977 1.00247 0.0
C772 C 0.57194 0.28547 0.01393 0.0
C773 C 0.56605 0.28621 0.98703 0.0
C774 C 0.55619 0.30568 1.00386 0.0
C775 C 0.54189 0.30703 0.00844 0.0
C776 C 0.53486 0.32055 0.00887 0.0
C777 C 0.54245 0.33292 1.0041 0.0
C778 C 0.55692 0.33174 0.99885 0.0
C779 C 0.56399 0.31798 0.99925 0.0
H780 H 0.03492 0.76774 0.34288 0.0
H781 H 0.00692 0.80453 0.33237 0.0
H782 H 0.02865 0.81981 0.32858 0.0
H783 H 0.05666 0.78645 0.36478 0.0
H784 H 0.07331 0.77687 0.36057 0.0
H785 H 0.05616 0.76799 0.35841 0.0
H786 H 0.0625 0.76289 0.33134 0.0
H787 H 0.07975 0.77179 0.33346 0.0
H788 H 0.06744 0.77776 0.31939 0.0
H789 H 0.05267 0.83213 0.3312 0.0
H790 H 0.07643 0.84035 0.34015 0.0
H791 H 0.08876 0.79564 0.34957 0.0
C792 C 0.03331 0.77882 0.33907 0.0
C793 C 0.01915 0.78486 0.33768 0.0
C794 C 0.01761 0.79957 0.33322 0.0
C795 C 0.02993 0.80834 0.33108 0.0
C796 C 0.04371 0.80223 0.33339 0.0
C797 C 0.04545 0.78773 0.33717 0.0
C798 C 0.06103 0.78431 0.34142 0.0
C799 C 0.06183 0.77856 0.35722 0.0
C800 C 0.0681 0.77355 0.33076 0.0
C801 C 0.06772 0.79924 0.33995 0.0
C802 C 0.05763 0.8094 0.33507 0.0
C803 C 0.06077 0.82421 0.33462 0.0
C804 C 0.07432 0.82879 0.33971 0.0
C805 C 0.08459 0.81861 0.34526 0.0
C806 C 0.08139 0.80362 0.34487 0.0
H807 H 0.55762 0.76703 0.60025 0.0
H808 H 0.5367 0.74991 0.56225 0.0
H809 H 0.52778 0.77508 0.55585 0.0
H810 H 0.52382 0.78785 0.60387 0.0
H811 H 0.53231 0.80022 0.61562 0.0
H812 H 0.53796 0.78117 0.61527 0.0
H813 H 0.56476 0.78977 0.6105 0.0
H814 H 0.56021 0.80875 0.60926 0.0
H815 H 0.56879 0.79994 0.59408 0.0
H816 H 0.51817 0.8036 0.55736 0.0
H817 H 0.5108 0.82844 0.56585 0.0
H818 H 0.54014 0.82395 0.60205 0.0
C819 C 0.55183 0.7686 0.5901 0.0
C820 C 0.54849 0.75678 0.58137 0.0
C821 C 0.53972 0.75904 0.5689 0.0
C822 C 0.53465 0.77329 0.56522 0.0
C823 C 0.53823 0.78487 0.57436 0.0
C824 C 0.54647 0.78227 0.58663 0.0
C825 C 0.54574 0.79462 0.59691 0.0
C826 C 0.53445 0.79074 0.60875 0.0
C827 C 0.56074 0.79849 0.60305 0.0
C828 C 0.5394 0.80616 0.5873 0.0
C829 C 0.53353 0.80028 0.57485 0.0
C830 C 0.52335 0.80833 0.56671 0.0
C831 C 0.51922 0.82243 0.57156 0.0
C832 C 0.52569 0.82841 0.5841 0.0
C833 C 0.53598 0.82015 0.59176 0.0
H834 H 0.56256 0.32742 0.84347 0.0
H835 H 0.59078 0.28987 0.83773 0.0
H836 H 0.56947 0.27501 0.83174 0.0
H837 H 0.53707 0.31081 0.86251 0.0
H838 H 0.5215 0.32032 0.85517 0.0
H839 H 0.53898 0.32879 0.85473 0.0
H840 H 0.53709 0.33221 0.82672 0.0
H841 H 0.51947 0.32371 0.8271 0.0
H842 H 0.53369 0.31669 0.81545 0.0
H843 H 0.54513 0.2631 0.83297 0.0
H844 H 0.52043 0.25565 0.84045 0.0
H845 H 0.50778 0.30096 0.84452 0.0
C846 C 0.56435 0.31626 0.84022 0.0
C847 C 0.57836 0.30986 0.84094 0.0
C848 C 0.5802 0.2951 0.837 0.0
C849 C 0.56811 0.28655 0.83362 0.0
C850 C 0.55429 0.29297 0.83392 0.0
C851 C 0.5524 0.30761 0.83682 0.0
C852 C 0.53643 0.31148 0.83862 0.0
C853 C 0.53333 0.31823 0.85364 0.0
C854 C 0.53137 0.32163 0.82623 0.0
C855 C 0.52968 0.29658 0.83735 0.0
C856 C 0.54011 0.28607 0.83432 0.0
C857 C 0.5368 0.27128 0.83482 0.0
C858 C 0.52269 0.26713 0.83906 0.0
C859 C 0.51205 0.27772 0.84281 0.0
C860 C 0.51548 0.29262 0.84124 0.0
H861 H 0.05435 0.32683 0.09539 0.0
H862 H 0.01199 0.31669 0.07792 0.0
H863 H 0.02144 0.29294 0.06974 0.0
H864 H 0.0769 0.30612 0.06725 0.0
H865 H 0.08965 0.30031 0.08098 0.0
H866 H 0.08059 0.31773 0.08245 0.0
H867 H 0.07059 0.31055 0.10836 0.0
H868 H 0.08038 0.29365 0.10676 0.0
H869 H 0.06111 0.29351 0.11029 0.0
H870 H 0.0335 0.2684 0.06914 0.0
H871 H 0.04742 0.24603 0.07512 0.0
H872 H 0.08253 0.27228 0.09139 0.0
C873 C 0.04723 0.31991 0.08925 0.0
C874 C 0.03245 0.32375 0.08719 0.0
C875 C 0.0234 0.31415 0.07946 0.0
C876 C 0.02869 0.30058 0.07478 0.0
C877 C 0.04314 0.29682 0.07762 0.0
C878 C 0.05237 0.30635 0.08444 0.0
C879 C 0.06685 0.29909 0.08784 0.0
C880 C 0.07923 0.30624 0.0791 0.0
C881 C 0.06992 0.29924 0.10429 0.0
C882 C 0.06405 0.28376 0.08265 0.0
C883 C 0.05036 0.28269 0.07663 0.0
C884 C 0.04444 0.26919 0.07331 0.0
C885 C 0.05244 0.25651 0.07672 0.0
C886 C 0.06624 0.25737 0.08336 0.0
C887 C 0.07231 0.27123 0.08574 0.0
H888 H 0.24635 0.06138 0.25785 0.0
H889 H 0.25809 0.08986 0.29314 0.0
H890 H 0.26426 0.0683 0.3083 0.0
H891 H 0.22738 0.03665 0.27926 0.0
H892 H 0.23257 0.0215 0.26814 0.0
H893 H 0.23198 0.03947 0.26031 0.0
H894 H 0.25913 0.03479 0.25211 0.0
H895 H 0.2593 0.01737 0.26133 0.0
H896 H 0.27265 0.03085 0.26574 0.0
H897 H 0.26409 0.04405 0.32111 0.0
H898 H 0.25755 0.01962 0.33033 0.0
H899 H 0.2458 0.007 0.28668 0.0
C900 C 0.25085 0.06317 0.26854 0.0
C901 C 0.252 0.07738 0.27421 0.0
C902 C 0.25741 0.07913 0.28845 0.0
C903 C 0.26088 0.06692 0.29715 0.0
C904 C 0.25889 0.05305 0.29145 0.0
C905 C 0.25405 0.05114 0.27741 0.0
C906 C 0.25081 0.03529 0.27448 0.0
C907 C 0.23475 0.03315 0.2703 0.0
C908 C 0.26109 0.02922 0.26272 0.0
C909 C 0.25403 0.02863 0.28925 0.0
C910 C 0.25888 0.03899 0.29885 0.0
C911 C 0.26069 0.03578 0.3136 0.0
C912 C 0.25696 0.02185 0.31875 0.0
C913 C 0.25141 0.0113 0.30919 0.0
C914 C 0.25049 0.01463 0.29418 0.0
H915 H 0.32438 0.00877 0.57511 0.0
H916 H 0.34508 1.00156 0.53321 0.0
H917 H 0.32236 0.00892 0.52098 0.0
H918 H 0.29396 0.99214 0.56835 0.0
H919 H 0.28159 1.00401 0.5779 0.0
H920 H 0.30031 1.003 0.58317 0.0
H921 H 0.30261 0.03086 0.57956 0.0
H922 H 0.28376 0.03192 0.5743 0.0
H923 H 0.29768 0.03913 0.5624 0.0
H924 H 0.29633 0.01063 0.51366 0.0
H925 H 0.26991 0.00676 0.51202 0.0
H926 H 0.26569 0.0124 0.55864 0.0
C927 C 0.32442 0.00951 0.56334 0.0
C928 C 0.33664 1.0047 0.55515 0.0
C929 C 0.33602 0.00543 0.53976 0.0
C930 C 0.32308 0.00955 0.5327 0.0
C931 C 0.31089 0.01312 0.54115 0.0
C932 C 0.31154 0.01341 0.55618 0.0
C933 C 0.29649 0.01531 0.56287 0.0
C934 C 0.29289 1.00287 0.57368 0.0
C935 C 0.29505 0.03019 0.57022 0.0
C936 C 0.28715 0.01475 0.54936 0.0
C937 C 0.29568 0.01399 0.5369 0.0
C938 C 0.28956 0.01166 0.52329 0.0
C939 C 0.27448 0.0095 0.52245 0.0
C940 C 0.26565 0.0095 0.53517 0.0
C941 C 0.27204 0.0128 0.54867 0.0
H942 H 0.33353 0.02165 0.79371 0.0
H943 H 0.32153 0.03142 0.74922 0.0
H944 H 0.31726 0.05707 0.75566 0.0
H945 H 0.31 0.05156 0.81245 0.0
H946 H 0.32454 0.05488 0.825 0.0
H947 H 0.32159 0.03676 0.81837 0.0
H948 H 0.34846 0.03554 0.80932 0.0
H949 H 0.35135 0.05353 0.81596 0.0
H950 H 0.35497 0.04959 0.7971 0.0
H951 H 0.32131 0.08197 0.76469 0.0
H952 H 0.33279 0.1034 0.77555 0.0
H953 H 0.34211 0.07804 0.81447 0.0
C954 C 0.32898 0.02899 0.78561 0.0
C955 C 0.32745 0.02446 0.77107 0.0
C956 C 0.32237 0.03457 0.76051 0.0
C957 C 0.31998 0.04921 0.76408 0.0
C958 C 0.32266 0.05361 0.77829 0.0
C959 C 0.32683 0.04372 0.78899 0.0
C960 C 0.33178 0.05149 0.80255 0.0
C961 C 0.32135 0.0485 0.81535 0.0
C962 C 0.34757 0.04728 0.80645 0.0
C963 C 0.33067 0.06722 0.79748 0.0
C964 C 0.32507 0.06825 0.78358 0.0
C965 C 0.32522 0.08137 0.77576 0.0
C966 C 0.33177 0.09354 0.78203 0.0
C967 C 0.33817 0.09251 0.79596 0.0
C968 C 0.33693 0.07935 0.80399 0.0
H969 H 0.28465 0.08892 0.07623 0.0
H970 H 0.25624 0.0834 0.0393 0.0
H971 H 0.27698 0.07413 0.02486 0.0
H972 H 0.31172 0.10407 0.05809 0.0
H973 H 0.32656 0.09589 0.06804 0.0
H974 H 0.30909 0.09783 0.0766 0.0
H975 H 0.30865 0.07006 0.08205 0.0
H976 H 0.32624 0.06805 0.07341 0.0
H977 H 0.31112 0.0574 0.06737 0.0
H978 H 0.30122 0.07161 0.01284 0.0
H979 H 0.32634 0.07622 1.00455 0.0
H980 H 0.33933 0.08288 0.0492 0.0
C981 C 0.28263 0.08508 0.06534 0.0
C982 C 0.26877 0.08677 0.05896 0.0
C983 C 0.2667 0.08203 0.04452 0.0
C984 C 0.27845 0.07673 0.03621 0.0
C985 C 0.29219 0.07601 0.04256 0.0
C986 C 0.29428 0.07984 0.0569 0.0
C987 C 0.31033 0.08031 0.0605 0.0
C988 C 0.31466 0.09542 0.06612 0.0
C989 C 0.31432 0.06823 0.07149 0.0
C990 C 0.31698 0.07726 0.04568 0.0
C991 C 0.30635 0.0744 0.03556 0.0
C992 C 0.30967 0.07334 0.02076 0.0
C993 C 0.32402 0.07593 0.01613 0.0
C994 C 0.3349 0.07965 0.02624 0.0
C995 C 0.33142 0.07955 0.04126 0.0
H996 H 0.27923 0.24549 0.07567 0.0
H997 H 0.31958 0.24724 0.09964 0.0
H998 H 0.33206 0.25663 0.07765 0.0
H999 H 0.29271 0.23022 0.04816 0.0
H1000 H 0.28285 0.23846 0.03321 0.0
H1001 H 0.2749 0.23796 0.05112 0.0
H1002 H 0.27208 0.26561 0.05243 0.0
H1003 H 0.27881 0.26694 0.03397 0.0
H1004 H 0.28732 0.27715 0.04817 0.0
H1005 H 0.34127 0.25994 0.0524 0.0
H1006 H 0.34665 0.25569 0.0265 0.0
H1007 H 0.3007 0.25046 0.01816 0.0
C1008 C 0.29051 0.24865 0.07656 0.0
C1009 C 0.29837 0.2458 0.08952 0.0
C1010 C 0.31325 0.24953 0.08998 0.0
C1011 C 0.32043 0.2549 0.07748 0.0
C1012 C 0.31258 0.25666 0.0646 0.0
C1013 C 0.29784 0.25388 0.06412 0.0
C1014 C 0.29249 0.25382 0.04849 0.0
C1015 C 0.28529 0.23926 0.045 0.0
C1016 C 0.28206 0.26665 0.0456 0.0
C1017 C 0.30671 0.25578 0.04019 0.0
C1018 C 0.31805 0.25802 0.04972 0.0
C1019 C 0.33243 0.25858 0.04484 0.0
C1020 C 0.33538 0.25618 0.03005 0.0
C1021 C 0.32407 0.25302 0.02021 0.0
C1022 C 0.3095 0.25341 0.02528 0.0
H1023 H 0.80155 0.34606 0.0112 0.0
H1024 H 0.75801 0.32872 0.01398 0.0
H1025 H 0.76249 0.32074 0.03926 0.0
H1026 H 0.81998 0.31967 0.03878 0.0
H1027 H 0.83043 0.3345 0.0458 0.0
H1028 H 0.8258 0.33416 0.02676 0.0
H1029 H 0.81402 0.35985 0.02906 0.0
H1030 H 0.81853 0.36016 0.04798 0.0
H1031 H 0.7999 0.36272 0.04249 0.0
H1032 H 0.76884 0.32112 0.06551 0.0
H1033 H 0.77671 0.32933 0.0897 0.0
H1034 H 0.81631 0.34624 0.07025 0.0
C1035 C 0.79338 0.33963 0.01679 0.0
C1036 C 0.7796 0.33761 0.01049 0.0
C1037 C 0.76879 0.32999 0.01846 0.0
C1038 C 0.77123 0.32549 0.03289 0.0
C1039 C 0.78457 0.32864 0.03921 0.0
C1040 C 0.79558 0.33535 0.03132 0.0
C1041 C 0.80773 0.34009 0.04123 0.0
C1042 C 0.82182 0.33159 0.03795 0.0
C1043 C 0.81017 0.35667 0.04012 0.0
C1044 C 0.80147 0.33577 0.05594 0.0
C1045 C 0.78824 0.32892 0.05458 0.0
C1046 C 0.77943 0.326 0.06672 0.0
C1047 C 0.78399 0.33068 0.08046 0.0
C1048 C 0.79721 0.33827 0.08194 0.0
C1049 C 0.80631 0.34016 0.06958 0.0
H1050 H 0.99545 0.52133 0.27582 0.0
H1051 H 0.01162 0.55905 0.25228 0.0
H1052 H 0.02169 0.56853 0.27501 0.0
H1053 H 0.98206 0.5382 0.30443 0.0
H1054 H 0.98696 0.52495 0.31811 0.0
H1055 H 0.98493 0.51944 0.29959 0.0
H1056 H 0.01131 0.50892 0.30029 0.0
H1057 H 0.01327 0.51501 0.31877 0.0
H1058 H 0.02616 0.5206 0.30497 0.0
H1059 H 0.02472 0.57668 0.30025 0.0
H1060 H 0.0189 0.58349 0.32543 0.0
H1061 H 1.00057 0.54083 0.33332 0.0
C1062 C 1.00174 0.53122 0.27534 0.0
C1063 C 1.00289 0.53936 0.26222 0.0
C1064 C 0.01075 0.55253 0.26213 0.0
C1065 C 0.01658 0.55798 0.27502 0.0
C1066 C 0.01465 0.55007 0.28793 0.0
C1067 C 0.00756 0.53685 0.28817 0.0
C1068 C 0.00494 0.53163 0.30371 0.0
C1069 C 0.98876 0.52836 0.30661 0.0
C1070 C 0.01449 0.51825 0.30714 0.0
C1071 C 0.01003 0.54476 0.31211 0.0
C1072 C 0.01629 0.55493 0.30282 0.0
C1073 C 0.02022 0.56866 0.30767 0.0
C1074 C 0.01689 0.57243 0.32207 0.0
C1075 C 0.00938 0.56266 0.33143 0.0
C1076 C 0.0067 0.54837 0.32659 0.0
H1077 H 0.77895 0.74564 0.49828 0.0
H1078 H 0.82141 0.76535 0.50106 0.0
H1079 H 0.81527 0.77435 0.52557 0.0
H1080 H 0.7577 0.77213 0.52277 0.0
H1081 H 0.74777 0.75715 0.53071 0.0
H1082 H 0.75351 0.75651 0.51191 0.0
H1083 H 0.76662 0.73189 0.517 0.0
H1084 H 0.7611 0.73254 0.53573 0.0
H1085 H 0.78012 0.73082 0.5311 0.0
H1086 H 0.80744 0.77529 0.55153 0.0
H1087 H 0.79845 0.76844 0.57605 0.0
H1088 H 0.76087 0.74837 0.55663 0.0
C1089 C 0.78655 0.75269 0.50365 0.0
C1090 C 0.80049 0.75516 0.49762 0.0
C1091 C 0.81053 0.76367 0.50535 0.0
C1092 C 0.80714 0.76878 0.51932 0.0
C1093 C 0.79365 0.7653 0.52542 0.0
C1094 C 0.78342 0.75758 0.51774 0.0
C1095 C 0.771 0.75278 0.52756 0.0
C1096 C 0.75664 0.76009 0.52296 0.0
C1097 C 0.76965 0.73604 0.52786 0.0
C1098 C 0.77611 0.75847 0.54204 0.0
C1099 C 0.78909 0.76584 0.5406 0.0
C1100 C 0.79702 0.77001 0.55276 0.0
C1101 C 0.79182 0.76611 0.56668 0.0
C1102 C 0.77884 0.75809 0.56832 0.0
C1103 C 0.77061 0.75489 0.55583 0.0
H1104 H 0.09078 0.07178 0.27724 0.0
H1105 H 0.08003 0.03241 0.25422 0.0
H1106 H 0.07459 0.02024 0.27764 0.0
H1107 H 0.11067 0.05716 0.30393 0.0
H1108 H 0.10422 0.06887 0.3181 0.0
H1109 H 0.10339 0.07491 0.29951 0.0
H1110 H 0.07564 0.0798 0.30381 0.0
H1111 H 0.07693 0.07272 0.32215 0.0
H1112 H 0.0641 0.06508 0.3097 0.0
H1113 H 0.07655 0.01062 0.30269 0.0
H1114 H 0.08604 1.0043 0.32694 0.0
H1115 H 0.09583 0.04956 0.33439 0.0
C1116 C 0.08654 0.06084 0.27705 0.0
C1117 C 0.08565 0.05312 0.2638 0.0
C1118 C 0.08054 0.03865 0.26413 0.0
C1119 C 0.07745 0.03163 0.27744 0.0
C1120 C 0.07937 0.03925 0.29035 0.0
C1121 C 0.0836 0.05364 0.29027 0.0
C1122 C 0.08683 0.05875 0.3056 0.0
C1123 C 0.10217 0.06528 0.3068 0.0
C1124 C 0.07518 0.06974 0.31061 0.0
C1125 C 0.08545 0.04453 0.31404 0.0
C1126 C 0.08047 0.0336 0.30514 0.0
C1127 C 0.07997 0.01916 0.30988 0.0
C1128 C 0.08532 0.01567 0.32373 0.0
C1129 C 0.09124 0.02651 0.3327 0.0
C1130 C 0.09071 0.0412 0.32804 0.0
H1131 H 0.27832 0.83512 0.58188 0.0
H1132 H 0.32397 0.83016 0.57068 0.0
H1133 H 0.31747 0.82759 0.54483 0.0
H1134 H 0.2627 0.81182 0.55168 0.0
H1135 H 0.24783 0.82454 0.54936 0.0
H1136 H 0.25564 0.82165 0.56712 0.0
H1137 H 0.26023 0.84934 0.56907 0.0
H1138 H 0.25262 0.85232 0.55137 0.0
H1139 H 0.27079 0.85839 0.55511 0.0
H1140 H 0.30664 0.83123 0.52 0.0
H1141 H 0.29276 0.84104 0.49911 0.0
H1142 H 0.25418 0.84383 0.52644 0.0
C1143 C 0.2869 0.83267 0.57412 0.0
C1144 C 0.30164 0.83257 0.57839 0.0
C1145 C 0.31258 0.83001 0.56775 0.0
C1146 C 0.30898 0.82856 0.55299 0.0
C1147 C 0.29438 0.82962 0.54902 0.0
C1148 C 0.28349 0.83146 0.55935 0.0
C1149 C 0.269 0.83476 0.55226 0.0
C1150 C 0.25815 0.82246 0.55528 0.0
C1151 C 0.26282 0.84958 0.55724 0.0
C1152 C 0.27352 0.8352 0.53637 0.0
C1153 C 0.28813 0.8319 0.53465 0.0
C1154 C 0.29511 0.83342 0.52116 0.0
C1155 C 0.28711 0.83895 0.5093 0.0
C1156 C 0.27232 0.84307 0.51104 0.0
C1157 C 0.26538 0.84051 0.52462 0.0
H1158 H 0.5886 0.52311 0.75761 0.0
H1159 H 0.57361 0.56676 0.76733 0.0
H1160 H 0.56951 0.55953 0.7929 0.0
H1161 H 0.56503 0.50322 0.78706 0.0
H1162 H 0.57986 0.49074 0.79056 0.0
H1163 H 0.57699 0.4978 0.77241 0.0
H1164 H 0.60357 0.50704 0.77164 0.0
H1165 H 0.60642 0.50008 0.7897 0.0
H1166 H 0.60959 0.51902 0.78574 0.0
H1167 H 0.57343 0.5499 0.81791 0.0
H1168 H 0.58452 0.53862 0.83969 0.0
H1169 H 0.59686 0.50099 0.81418 0.0
C1170 C 0.58356 0.53086 0.76492 0.0
C1171 C 0.58118 0.54542 0.7604 0.0
C1172 C 0.57526 0.55547 0.77047 0.0
C1173 C 0.57291 0.55145 0.78506 0.0
C1174 C 0.57637 0.53728 0.78945 0.0
C1175 C 0.5813 0.52702 0.77959 0.0
C1176 C 0.58654 0.51334 0.78738 0.0
C1177 C 0.5765 0.50051 0.78416 0.0
C1178 C 0.60247 0.50967 0.78337 0.0
C1179 C 0.58502 0.518 0.80311 0.0
C1180 C 0.5787 0.53165 0.80411 0.0
C1181 C 0.57795 0.53901 0.81732 0.0
C1182 C 0.58429 0.53251 0.82968 0.0
C1183 C 0.59145 0.51886 0.82872 0.0
C1184 C 0.5912 0.5113 0.81538 0.0
H1185 H 0.75535 0.50327 0.77995 0.0
H1186 H 0.75684 0.51259 0.82603 0.0
H1187 H 0.76319 0.53803 0.82034 0.0
H1188 H 0.78404 0.53156 0.7674 0.0
H1189 H 0.77347 0.53555 0.75139 0.0
H1190 H 0.77377 0.51737 0.75897 0.0
H1191 H 0.74579 0.51791 0.76028 0.0
H1192 H 0.7451 0.5362 0.75334 0.0
H1193 H 0.73665 0.53184 0.7706 0.0
H1194 H 0.76303 0.56322 0.81 0.0
H1195 H 0.75631 0.58534 0.79605 0.0
H1196 H 0.75524 0.55997 0.75656 0.0
C1197 C 0.75789 0.51043 0.78884 0.0
C1198 C 0.75584 0.50584 0.80344 0.0
C1199 C 0.75858 0.51577 0.81477 0.0
C1200 C 0.7622 0.53028 0.81162 0.0
C1201 C 0.76319 0.53473 0.79709 0.0
C1202 C 0.76136 0.52501 0.78585 0.0
C1203 C 0.7605 0.5329 0.77129 0.0
C1204 C 0.77374 0.52912 0.7617 0.0
C1205 C 0.74616 0.52953 0.76344 0.0
C1206 C 0.76104 0.54858 0.7762 0.0
C1207 C 0.76301 0.54944 0.79106 0.0
C1208 C 0.76195 0.56271 0.79829 0.0
C1209 C 0.75818 0.57529 0.79026 0.0
C1210 C 0.75539 0.57449 0.77517 0.0
C1211 C 0.75761 0.56106 0.76802 0.0
H1212 H 0.78241 0.49946 1.00429 0.0
H1213 H 0.75467 0.51359 0.03993 0.0
H1214 H 0.77641 0.51925 0.0543 0.0
H1215 H 0.80636 0.48069 0.02444 0.0
H1216 H 0.82249 0.48519 0.01413 0.0
H1217 H 0.80507 0.48564 0.00545 0.0
H1218 H 0.8092 0.5125 0.99762 0.0
H1219 H 0.82673 0.51213 0.00631 0.0
H1220 H 0.81344 0.52581 0.01117 0.0
H1221 H 0.8008 0.51855 0.06651 0.0
H1222 H 0.82523 0.51162 0.07523 0.0
H1223 H 0.83729 0.49825 0.03162 0.0
C1224 C 0.78088 0.50438 0.01486 0.0
C1225 C 0.76677 0.50624 0.02087 0.0
C1226 C 0.76531 0.51229 0.03494 0.0
C1227 C 0.77764 0.51552 0.04323 0.0
C1228 C 0.79141 0.51288 0.03723 0.0
C1229 C 0.79308 0.50765 0.02326 0.0
C1230 C 0.80889 0.50403 0.01997 0.0
C1231 C 0.8108 0.48794 0.01576 0.0
C1232 C 0.81492 0.51422 0.00806 0.0
C1233 C 0.81574 0.50715 0.03456 0.0
C1234 C 0.80554 0.51256 0.04428 0.0
C1235 C 0.80896 0.51472 0.05887 0.0
C1236 C 0.82293 0.51079 0.06372 0.0
C1237 C 0.83336 0.50462 0.05408 0.0
C1238 C 0.8298 0.50336 0.03919 0.0
H1239 H 0.8355 0.56519 0.32452 0.0
H1240 H 0.83649 0.59036 0.28434 0.0
H1241 H 0.83451 0.56768 0.27037 0.0
H1242 H 0.85883 0.53873 0.31425 0.0
H1243 H 0.84975 0.52422 0.32376 0.0
H1244 H 0.84757 0.54256 0.32993 0.0
H1245 H 0.81948 0.53917 0.32791 0.0
H1246 H 0.8222 0.52104 0.32101 0.0
H1247 H 0.81178 0.5342 0.3107 0.0
H1248 H 0.83826 0.54253 0.26089 0.0
H1249 H 0.84738 0.51763 0.25675 0.0
H1250 H 0.84457 0.50856 0.30309 0.0
C1251 C 0.83457 0.56603 0.3128 0.0
C1252 C 0.83597 0.57964 0.30555 0.0
C1253 C 0.83513 0.58016 0.29018 0.0
C1254 C 0.83409 0.56727 0.28215 0.0
C1255 C 0.83373 0.55396 0.28963 0.0
C1256 C 0.83375 0.55327 0.30466 0.0
C1257 C 0.83536 0.53768 0.3101 0.0
C1258 C 0.84866 0.53573 0.32008 0.0
C1259 C 0.82137 0.53273 0.31789 0.0
C1260 C 0.83744 0.52981 0.29581 0.0
C1261 C 0.83599 0.53932 0.28411 0.0
C1262 C 0.83903 0.53493 0.26993 0.0
C1263 C 0.8442 0.5207 0.26768 0.0
C1264 C 0.84651 0.51101 0.27957 0.0
C1265 C 0.8425 0.51551 0.29373 0.0
H1266 H 0.82942 0.59373 0.54223 0.0
H1267 H 0.81513 0.58444 0.49855 0.0
H1268 H 0.79095 0.57765 0.50816 0.0
H1269 H 0.80561 0.56599 0.56254 0.0
H1270 H 0.80228 0.57876 0.57698 0.0
H1271 H 0.81945 0.57883 0.56732 0.0
H1272 H 0.79869 0.60618 0.57069 0.0
H1273 H 0.79939 0.61192 0.55191 0.0
H1274 H 0.81577 0.60623 0.56108 0.0
H1275 H 0.76718 0.57739 0.52146 0.0
H1276 H 0.7462 0.58386 0.53712 0.0
H1277 H 0.7757 0.59324 0.57234 0.0
C1278 C 0.82147 0.5894 0.53483 0.0
C1279 C 0.82427 0.58919 0.5197 0.0
C1280 C 0.81332 0.58433 0.51021 0.0
C1281 C 0.79953 0.58047 0.51559 0.0
C1282 C 0.79683 0.58153 0.53051 0.0
C1283 C 0.80757 0.58574 0.54003 0.0
C1284 C 0.80131 0.58835 0.55511 0.0
C1285 C 0.80753 0.57732 0.56614 0.0
C1286 C 0.80395 0.60409 0.55998 0.0
C1287 C 0.7853 0.58566 0.55241 0.0
C1288 C 0.78295 0.58146 0.53824 0.0
C1289 C 0.76891 0.58024 0.53271 0.0
C1290 C 0.75701 0.58391 0.5417 0.0
C1291 C 0.75922 0.58883 0.55606 0.0
C1292 C 0.77356 0.5891 0.56158 0.0
H1293 H 0.49823 0.07658 0.8122 0.0
H1294 H 0.50788 0.04123 0.8423 0.0
H1295 H 0.51544 0.02584 0.82169 0.0
H1296 H 0.48121 0.057 0.78919 0.0
H1297 H 0.48675 0.06503 0.772 0.0
H1298 H 0.48689 0.07565 0.78829 0.0
H1299 H 0.51396 0.08148 0.78601 0.0
H1300 H 0.51442 0.07208 0.76888 0.0
H1301 H 0.52702 0.06705 0.78304 0.0
H1302 H 0.51696 0.01283 0.79797 0.0
H1303 H 0.51191 1.00334 0.77353 0.0
H1304 H 0.50084 0.04688 0.75857 0.0
C1305 C 0.50268 0.06587 0.81455 0.0
C1306 C 0.50268 0.06022 0.82895 0.0
C1307 C 0.50799 0.04591 0.83144 0.0
C1308 C 0.51233 0.03707 0.81975 0.0
C1309 C 0.51146 0.04272 0.80561 0.0
C1310 C 0.50698 0.0569 0.80299 0.0
C1311 C 0.5047 0.05963 0.78683 0.0
C1312 C 0.48895 0.06462 0.78387 0.0
C1313 C 0.51568 0.07072 0.78084 0.0
C1314 C 0.50779 0.04458 0.78084 0.0
C1315 C 0.51205 0.03508 0.79181 0.0
C1316 C 0.51405 0.02026 0.78924 0.0
C1317 C 0.5112 0.01496 0.77527 0.0
C1318 C 0.50631 0.0244 0.76399 0.0
C1319 C 0.50509 0.03948 0.76676 0.0
H1320 H 0.95647 0.36031 0.20012 0.0
H1321 H 0.98304 0.32129 0.20291 0.0
H1322 H 0.99643 0.3289 0.18089 0.0
H1323 H 0.95346 0.35331 0.15867 0.0
H1324 H 0.95111 0.37243 0.15444 0.0
H1325 H 0.9441 0.36502 0.17129 0.0
H1326 H 0.95846 0.38395 0.18559 0.0
H1327 H 0.96603 0.3914 0.16899 0.0
H1328 H 0.97791 0.38503 0.18325 0.0
H1329 H 0.01293 0.34939 0.16738 0.0
H1330 H 0.01914 0.36104 0.14375 0.0
H1331 H 0.9752 0.37856 0.14127 0.0
C1332 C 0.96439 0.3528 0.19558 0.0
C1333 C 0.97012 0.34117 0.20413 0.0
C1334 C 0.97929 0.3309 0.19706 0.0
C1335 C 0.98742 0.3354 0.18487 0.0
C1336 C 0.98379 0.34869 0.17841 0.0
C1337 C 0.97119 0.356 0.18215 0.0
C1338 C 0.96772 0.36769 0.1708 0.0
C1339 C 0.95325 0.36442 0.16333 0.0
C1340 C 0.96751 0.38292 0.17757 0.0
C1341 C 0.98069 0.36592 0.16051 0.0
C1342 C 0.99048 0.35605 0.16623 0.0
C1343 C 0.00482 0.3555 0.16139 0.0
C1344 C 0.0083 0.36253 0.14823 0.0
C1345 C 0.99723 0.3695 0.14002 0.0
C1346 C 0.98357 0.37232 0.14682 0.0
H1347 H 0.96571 0.759 0.39574 0.0
H1348 H 0.9677 0.71545 0.37902 0.0
H1349 H 0.96829 0.70548 0.40402 0.0
H1350 H 0.99566 0.75189 0.41245 0.0
H1351 H 0.99306 0.76423 0.42742 0.0
H1352 H 0.9841 0.76774 0.41055 0.0
H1353 H 0.95783 0.76711 0.42294 0.0
H1354 H 0.9683 0.76674 0.43925 0.0
H1355 H 0.95448 0.75318 0.43649 0.0
H1356 H 0.97611 0.7007 0.43044 0.0
H1357 H 0.9899 0.70178 0.45365 0.0
H1358 H 0.99288 0.74826 0.44793 0.0
C1359 C 0.96492 0.74734 0.39747 0.0
C1360 C 0.96668 0.73802 0.38557 0.0
C1361 C 0.96615 0.7228 0.38805 0.0
C1362 C 0.96686 0.71707 0.4023 0.0
C1363 C 0.9683 0.72676 0.4138 0.0
C1364 C 0.96754 0.74169 0.41138 0.0
C1365 C 0.97446 0.74994 0.42359 0.0
C1366 C 0.98759 0.75894 0.41816 0.0
C1367 C 0.96309 0.75976 0.43106 0.0
C1368 C 0.97929 0.73739 0.43325 0.0
C1369 C 0.97511 0.72413 0.42788 0.0
C1370 C 0.97912 0.71109 0.43488 0.0
C1371 C 0.98713 0.71176 0.44792 0.0
C1372 C 0.99161 0.72533 0.4534 0.0
C1373 C 0.9883 0.73801 0.44531 0.0
H1374 H 0.61778 0.74534 0.69131 0.0
H1375 H 0.61373 0.70083 0.70581 0.0
H1376 H 0.61319 0.69271 0.68033 0.0
H1377 H 0.59015 0.7435 0.67081 0.0
H1378 H 0.59591 0.75592 0.65661 0.0
H1379 H 0.60357 0.75737 0.67432 0.0
H1380 H 0.63007 0.75346 0.66465 0.0
H1381 H 0.62206 0.75436 0.64704 0.0
H1382 H 0.63354 0.73903 0.65201 0.0
H1383 H 0.60512 0.69034 0.65414 0.0
H1384 H 0.59172 0.69396 0.63093 0.0
H1385 H 0.59336 0.74022 0.63719 0.0
C1386 C 0.6181 0.7338 0.68902 0.0
C1387 C 0.61609 0.72372 0.70044 0.0
C1388 C 0.61574 0.70871 0.69719 0.0
C1389 C 0.61512 0.70404 0.68267 0.0
C1390 C 0.61477 0.71456 0.67158 0.0
C1391 C 0.61631 0.72919 0.67469 0.0
C1392 C 0.61178 0.7387 0.66199 0.0
C1393 C 0.59962 0.74949 0.66621 0.0
C1394 C 0.62513 0.74681 0.65598 0.0
C1395 C 0.60626 0.72727 0.65169 0.0
C1396 C 0.60882 0.71336 0.65696 0.0
C1397 C 0.60347 0.70119 0.64974 0.0
C1398 C 0.59564 0.70332 0.63673 0.0
C1399 C 0.59256 0.71754 0.6315 0.0
C1400 C 0.59728 0.72945 0.63965 0.0
H1401 H 0.62059 0.35766 0.95695 0.0
H1402 H 0.59098 0.39237 0.94495 0.0
H1403 H 0.60349 0.39473 0.92112 0.0
H1404 H 0.65327 0.36705 0.93541 0.0
H1405 H 0.65615 0.3485 0.92981 0.0
H1406 H 0.64783 0.35224 0.94723 0.0
H1407 H 0.62477 0.33687 0.94034 0.0
H1408 H 0.6341 0.33244 0.92391 0.0
H1409 H 0.61616 0.34054 0.92329 0.0
H1410 H 0.61537 0.38971 0.89707 0.0
H1411 H 0.62034 0.37474 0.87561 0.0
H1412 H 0.64235 0.34289 0.90226 0.0
C1413 C 0.61681 0.36575 0.94938 0.0
C1414 C 0.60471 0.37458 0.9528 0.0
C1415 C 0.60027 0.38542 0.94264 0.0
C1416 C 0.60741 0.38691 0.9291 0.0
C1417 C 0.61895 0.37745 0.92582 0.0
C1418 C 0.62341 0.36689 0.93566 0.0
C1419 C 0.63352 0.3559 0.92861 0.0
C1420 C 0.64859 0.35593 0.93569 0.0
C1421 C 0.62675 0.34057 0.92906 0.0
C1422 C 0.63408 0.3618 0.91318 0.0
C1423 C 0.6258 0.37443 0.91181 0.0
C1424 C 0.62206 0.38001 0.89813 0.0
C1425 C 0.62523 0.37155 0.88584 0.0
C1426 C 0.63092 0.3573 0.88762 0.0
C1427 C 0.63779 0.35372 0.90081 0.0
H1428 H 0.14373 0.96792 0.35572 0.0
H1429 H 0.15686 0.99132 0.39368 0.0
H1430 H 0.17774 0.97461 0.39663 0.0
H1431 H 0.16711 0.93105 0.36253 0.0
H1432 H 0.17177 0.93131 0.34344 0.0
H1433 H 0.15378 0.9368 0.34934 0.0
H1434 H 0.15679 0.96151 0.33568 0.0
H1435 H 0.17435 0.95563 0.32973 0.0
H1436 H 0.17259 0.97236 0.33963 0.0
H1437 H 0.20046 0.96157 0.39116 0.0
H1438 H 0.22277 0.96379 0.37609 0.0
H1439 H 0.19809 0.95384 0.33775 0.0
C1440 C 0.15043 0.9687 0.36526 0.0
C1441 C 0.14851 0.98063 0.37466 0.0
C1442 C 0.15779 0.98194 0.38668 0.0
C1443 C 0.1698 0.97247 0.3883 0.0
C1444 C 0.17264 0.96206 0.37754 0.0
C1445 C 0.16313 0.96026 0.36607 0.0
C1446 C 0.17068 0.95286 0.35329 0.0
C1447 C 0.16553 0.93706 0.35209 0.0
C1448 C 0.16844 0.96112 0.33875 0.0
C1449 C 0.18634 0.95333 0.35827 0.0
C1450 C 0.18694 0.95681 0.37289 0.0
C1451 C 0.20017 0.95915 0.37969 0.0
C1452 C 0.21277 0.96037 0.37105 0.0
C1453 C 0.21193 0.9594 0.35577 0.0
C1454 C 0.19889 0.9546 0.34945 0.0
H1455 H 0.35466 0.88029 0.62764 0.0
H1456 H 0.30764 0.88487 0.62691 0.0
H1457 H 0.31005 0.91094 0.6214 0.0
H1458 H 0.35909 0.91872 0.64426 0.0
H1459 H 0.37615 0.92157 0.6349 0.0
H1460 H 0.37115 0.90352 0.6409 0.0
H1461 H 0.37504 0.89465 0.61475 0.0
H1462 H 0.37955 0.91258 0.60865 0.0
H1463 H 0.36499 0.9032 0.59994 0.0
H1464 H 0.31721 0.93369 0.60938 0.0
H1465 H 0.32854 0.95441 0.59761 0.0
H1466 H 0.37127 0.9382 0.60932 0.0
C1467 C 0.34492 0.88691 0.62657 0.0
C1468 C 0.33094 0.88045 0.62719 0.0
C1469 C 0.31843 0.88947 0.62626 0.0
C1470 C 0.31969 0.90431 0.62306 0.0
C1471 C 0.33355 0.91013 0.62146 0.0
C1472 C 0.34601 0.90195 0.62377 0.0
C1473 C 0.35951 0.91134 0.62162 0.0
C1474 C 0.36691 0.91395 0.63629 0.0
C1475 C 0.37036 0.905 0.61055 0.0
C1476 C 0.35266 0.92529 0.61584 0.0
C1477 C 0.33767 0.92435 0.61616 0.0
C1478 C 0.32889 0.93493 0.6098 0.0
C1479 C 0.33553 0.94693 0.60322 0.0
C1480 C 0.35084 0.9486 0.60324 0.0
C1481 C 0.35952 0.93748 0.60952 0.0
H1482 H 0.39252 0.13687 0.85484 0.0
H1483 H 0.40065 0.10671 0.82033 0.0
H1484 H 0.41471 0.09059 0.83698 0.0
H1485 H 0.43264 0.13427 0.85994 0.0
H1486 H 0.43158 0.13973 0.87872 0.0
H1487 H 0.41808 0.14606 0.86602 0.0
H1488 H 0.39819 0.13559 0.88336 0.0
H1489 H 0.41181 0.12844 0.89559 0.0
H1490 H 0.39849 0.11648 0.88798 0.0
H1491 H 0.42233 0.07586 0.86075 0.0
H1492 H 0.4438 0.07192 0.87607 0.0
H1493 H 0.44325 0.11735 0.88745 0.0
C1494 C 0.39731 0.12688 0.85082 0.0
C1495 C 0.39377 0.12156 0.8369 0.0
C1496 C 0.40151 0.10944 0.83157 0.0
C1497 C 0.40955 0.10043 0.84094 0.0
C1498 C 0.41123 0.10486 0.85525 0.0
C1499 C 0.40714 0.11872 0.85941 0.0
C1500 C 0.41567 0.12324 0.87272 0.0
C1501 C 0.42506 0.13661 0.86914 0.0
C1502 C 0.40542 0.12611 0.88568 0.0
C1503 C 0.42489 0.10959 0.87533 0.0
C1504 C 0.42067 0.09866 0.86616 0.0
C1505 C 0.42639 0.08461 0.86732 0.0
C1506 C 0.4384 0.08244 0.87643 0.0
C1507 C 0.44619 0.09481 0.88093 0.0
C1508 C 0.43807 0.10789 0.88295 0.0
H1509 H 0.21287 0.1351 0.12246 0.0
H1510 H 0.20664 0.1414 0.07643 0.0
H1511 H 0.21298 0.16706 0.07866 0.0
H1512 H 0.20202 0.1781 0.13182 0.0
H1513 H 0.21473 0.17706 0.14664 0.0
H1514 H 0.20339 0.1617 0.14268 0.0
H1515 H 0.22663 0.14577 0.14114 0.0
H1516 H 0.23817 0.16109 0.14398 0.0
H1517 H 0.24053 0.15026 0.12789 0.0
H1518 H 0.23598 0.18002 0.08342 0.0
H1519 H 0.25623 0.19409 0.09261 0.0
H1520 H 0.24096 0.18826 0.13666 0.0
C1521 C 0.21127 0.14227 0.11317 0.0
C1522 C 0.21131 0.13628 0.09896 0.0
C1523 C 0.20798 0.14574 0.08725 0.0
C1524 C 0.21188 0.16036 0.08837 0.0
C1525 C 0.21631 0.16534 0.10192 0.0
C1526 C 0.21451 0.15717 0.11451 0.0
C1527 C 0.22146 0.16483 0.12739 0.0
C1528 C 0.20969 0.17078 0.13775 0.0
C1529 C 0.23233 0.15488 0.13556 0.0
C1530 C 0.22928 0.17717 0.11959 0.0
C1531 C 0.22663 0.17666 0.10479 0.0
C1532 C 0.23657 0.18242 0.09491 0.0
C1533 C 0.24803 0.1906 0.10021 0.0
C1534 C 0.24862 0.19449 0.11499 0.0
C1535 C 0.23973 0.18684 0.12506 0.0
H1536 H 0.13384 0.11182 0.24353 0.0
H1537 H 0.13891 0.09177 0.20133 0.0
H1538 H 0.15901 0.1087 0.19562 0.0
H1539 H 0.1504 0.14922 0.23638 0.0
H1540 H 0.15983 0.14782 0.25348 0.0
H1541 H 0.14212 0.1398 0.2516 0.0
H1542 H 0.15247 0.1148 0.26015 0.0
H1543 H 0.16986 0.12286 0.26232 0.0
H1544 H 0.16805 0.10722 0.2508 0.0
H1545 H 0.18203 0.12193 0.19712 0.0
H1546 H 0.20662 0.12342 0.20704 0.0
H1547 H 0.1889 0.13301 0.24944 0.0
C1548 C 0.13874 0.11134 0.2328 0.0
C1549 C 0.13477 0.10049 0.22284 0.0
C1550 C 0.14162 0.10012 0.20905 0.0
C1551 C 0.15303 0.10977 0.20575 0.0
C1552 C 0.15754 0.11953 0.21642 0.0
C1553 C 0.15062 0.12018 0.22981 0.0
C1554 C 0.1598 0.12768 0.24106 0.0
C1555 C 0.15261 0.14199 0.2459 0.0
C1556 C 0.16272 0.11753 0.25431 0.0
C1557 C 0.17347 0.13044 0.2322 0.0
C1558 C 0.17164 0.12644 0.21778 0.0
C1559 C 0.18346 0.12537 0.20823 0.0
C1560 C 0.1975 0.12654 0.21391 0.0
C1561 C 0.19946 0.12795 0.22907 0.0
C1562 C 0.18751 0.13207 0.23779 0.0
H1563 H 0.19769 0.96351 0.49417 0.0
H1564 H 0.22768 0.95293 0.52843 0.0
H1565 H 0.24132 0.93668 0.51151 0.0
H1566 H 0.19725 0.92008 0.49106 0.0
H1567 H 0.19044 0.92122 0.47272 0.0
H1568 H 0.1851 0.9347 0.48586 0.0
H1569 H 0.1937 0.95398 0.46757 0.0
H1570 H 0.20138 0.94111 0.45489 0.0
H1571 H 0.21265 0.95497 0.46281 0.0
H1572 H 0.25546 0.9317 0.48519 0.0
H1573 H 0.25904 0.91073 0.46906 0.0
H1574 H 0.21272 0.90967 0.46146 0.0
C1575 C 0.20675 0.95726 0.49846 0.0
C1576 C 0.21353 0.96112 0.51174 0.0
C1577 C 0.2241 0.9516 0.51743 0.0
C1578 C 0.2317 0.9423 0.50808 0.0
C1579 C 0.22651 0.94063 0.49412 0.0
C1580 C 0.21285 0.94555 0.49053 0.0
C1581 C 0.20734 0.93706 0.47754 0.0
C1582 C 0.19426 0.9277 0.48206 0.0
C1583 C 0.20353 0.94738 0.46491 0.0
C1584 C 0.22073 0.92765 0.47401 0.0
C1585 C 0.23209 0.93149 0.48275 0.0
C1586 C 0.24628 0.92692 0.4798 0.0
C1587 C 0.24823 0.91546 0.47002 0.0
C1588 C 0.23591 0.9073 0.46612 0.0
C1589 C 0.2223 0.91491 0.46565 0.0
H1590 H 0.39723 0.98612 0.75242 0.0
H1591 H 0.37707 0.96022 0.71947 0.0
H1592 H 0.40059 0.95925 0.70584 0.0
H1593 H 0.40455 0.01003 0.72352 0.0
H1594 H 0.41914 0.0182 0.73346 0.0
H1595 H 0.40412 0.00997 0.74296 0.0
H1596 H 0.42436 0.99286 0.75688 0.0
H1597 H 0.43812 1.00183 0.74618 0.0
H1598 H 0.43645 0.98239 0.74579 0.0
H1599 H 0.43161 0.96101 0.70026 0.0
H1600 H 0.4568 0.97043 0.69882 0.0
H1601 H 0.44295 0.00928 0.72096 0.0
C1602 C 0.39806 0.97934 0.74285 0.0
C1603 C 0.38549 0.97283 0.73733 0.0
C1604 C 0.38669 0.96484 0.72426 0.0
C1605 C 0.39995 0.96461 0.71626 0.0
C1606 C 0.4113 0.97349 0.72088 0.0
C1607 C 0.40973 0.9815 0.73341 0.0
C1608 C 0.41975 0.99434 0.73344 0.0
C1609 C 0.41142 0.00897 0.73339 0.0
C1610 C 0.43025 0.99281 0.74634 0.0
C1611 C 0.42759 0.99227 0.71914 0.0
C1612 C 0.42378 0.97929 0.71277 0.0
C1613 C 0.43393 0.97183 0.70411 0.0
C1614 C 0.44821 0.97742 0.70296 0.0
C1615 C 0.45174 0.99083 0.7095 0.0
C1616 C 0.44036 0.99938 0.71521 0.0
H1617 H 0.35618 0.14004 0.99738 0.0
H1618 H 0.39321 0.12775 0.97107 0.0
H1619 H 0.39083 0.15114 0.9571 0.0
H1620 H 0.33206 0.15448 0.96936 0.0
H1621 H 0.3259 0.16776 0.98224 0.0
H1622 H 0.33272 0.15049 0.98849 0.0
H1623 H 0.35469 0.16729 1.00417 0.0
H1624 H 0.34289 0.18164 0.99723 0.0
H1625 H 0.36216 0.18124 0.9934 0.0
H1626 H 0.3859 0.18046 0.9522 0.0
H1627 H 0.37648 0.20581 0.95322 0.0
H1628 H 0.33569 0.19018 0.97022 0.0
C1629 C 0.36353 0.14202 0.98846 0.0
C1630 C 0.37464 0.13199 0.98521 0.0
C1631 C 0.38462 0.13538 0.97385 0.0
C1632 C 0.38322 0.14855 0.96576 0.0
C1633 C 0.37133 0.15774 0.9687 0.0
C1634 C 0.36148 0.15423 0.97955 0.0
C1635 C 0.34963 0.1655 0.98078 0.0
C1636 C 0.33421 0.15915 0.98022 0.0
C1637 C 0.35231 0.17442 0.99469 0.0
C1638 C 0.35275 0.17469 0.9675 0.0
C1639 C 0.36642 0.17144 0.96189 0.0
C1640 C 0.37471 0.18249 0.95536 0.0
C1641 C 0.36915 0.19692 0.9556 0.0
C1642 C 0.35506 0.19991 0.96133 0.0
C1643 C 0.34607 0.18811 0.96486 0.0
H1644 H 0.81724 0.39928 0.11678 0.0
H1645 H 0.8557 0.37563 0.13051 0.0
H1646 H 0.87078 0.39738 0.12529 0.0
H1647 H 0.83348 0.41447 0.08627 0.0
H1648 H 0.82297 0.43113 0.08736 0.0
H1649 H 0.81579 0.41467 0.09492 0.0
H1650 H 0.81251 0.42764 0.11984 0.0
H1651 H 0.81943 0.44388 0.11138 0.0
H1652 H 0.82782 0.43669 0.12771 0.0
H1653 H 0.88187 0.42191 0.11604 0.0
H1654 H 0.88721 0.44578 0.10402 0.0
H1655 H 0.84183 0.45007 0.09323 0.0
C1656 C 0.8287 0.39898 0.11946 0.0
C1657 C 0.83523 0.38609 0.12472 0.0
C1658 C 0.85044 0.38568 0.1271 0.0
C1659 C 0.85909 0.39794 0.12404 0.0
C1660 C 0.85236 0.4104 0.11829 0.0
C1661 C 0.83747 0.41088 0.116 0.0
C1662 C 0.83298 0.4245 0.10788 0.0
C1663 C 0.82593 0.42093 0.09322 0.0
C1664 C 0.82261 0.43374 0.11728 0.0
C1665 C 0.84765 0.4316 0.10578 0.0
C1666 C 0.85873 0.42357 0.11203 0.0
C1667 C 0.87318 0.42832 0.11125 0.0
C1668 C 0.87615 0.4418 0.10431 0.0
C1669 C 0.86478 0.4502 0.09805 0.0
C1670 C 0.85061 0.44451 0.09836 0.0
H1671 H 0.9478 0.60772 0.38112 0.0
H1672 H 0.95968 0.61319 0.3361 0.0
H1673 H 0.93962 0.62968 0.33202 0.0
H1674 H 0.91379 0.59915 0.37034 0.0
H1675 H 0.90428 0.60603 0.38612 0.0
H1676 H 0.92298 0.60061 0.38752 0.0
H1677 H 0.92883 0.62628 0.39737 0.0
H1678 H 0.91007 0.63185 0.3953 0.0
H1679 H 0.92434 0.6422 0.38662 0.0
H1680 H 0.91674 0.64207 0.3309 0.0
H1681 H 0.89046 0.63872 0.32861 0.0
H1682 H 0.88865 0.62113 0.37238 0.0
C1683 C 0.94643 0.61298 0.37061 0.0
C1684 C 0.95683 0.61093 0.35939 0.0
C1685 C 0.95375 0.61667 0.34544 0.0
C1686 C 0.94186 0.6258 0.34295 0.0
C1687 C 0.93215 0.62828 0.3543 0.0
C1688 C 0.93382 0.62131 0.36765 0.0
C1689 C 0.91959 0.6215 0.3761 0.0
C1690 C 0.91488 0.60591 0.38023 0.0
C1691 C 0.92078 0.63103 0.38965 0.0
C1692 C 0.90955 0.62856 0.3649 0.0
C1693 C 0.91734 0.63346 0.35291 0.0
C1694 C 0.91048 0.63849 0.34028 0.0
C1695 C 0.89543 0.6368 0.33912 0.0
C1696 C 0.88769 0.62957 0.35029 0.0
C1697 C 0.89446 0.62695 0.36386 0.0
H1698 H 0.72137 0.65229 0.5782 0.0
H1699 H 0.70289 0.6392 0.61944 0.0
H1700 H 0.70515 0.66453 0.62834 0.0
H1701 H 0.74631 0.65794 0.60481 0.0
H1702 H 0.7585 0.67005 0.59603 0.0
H1703 H 0.74939 0.65639 0.58552 0.0
H1704 H 0.73615 0.67159 0.56818 0.0
H1705 H 0.74479 0.68791 0.57381 0.0
H1706 H 0.72522 0.68673 0.5734 0.0
H1707 H 0.71268 0.69357 0.63155 0.0
H1708 H 0.72807 0.71579 0.6322 0.0
H1709 H 0.75434 0.69878 0.59708 0.0
C1710 C 0.71656 0.65511 0.58864 0.0
C1711 C 0.71148 0.64397 0.59784 0.0
C1712 C 0.7064 0.64767 0.61196 0.0
C1713 C 0.70804 0.66201 0.61721 0.0
C1714 C 0.71598 0.67192 0.60867 0.0
C1715 C 0.72118 0.6678 0.59514 0.0
C1716 C 0.73544 0.67498 0.5917 0.0
C1717 C 0.74814 0.66422 0.59455 0.0
C1718 C 0.73545 0.68075 0.57592 0.0
C1719 C 0.73554 0.68649 0.60321 0.0
C1720 C 0.72432 0.68461 0.61312 0.0
C1721 C 0.72179 0.69476 0.62412 0.0
C1722 C 0.73066 0.70727 0.62452 0.0
C1723 C 0.74238 0.70901 0.61456 0.0
C1724 C 0.74533 0.69791 0.60454 0.0
H1725 H 0.95914 0.48242 0.20653 0.0
H1726 H 0.94777 0.52721 0.21668 0.0
H1727 H 0.92432 0.51902 0.22606 0.0
H1728 H 0.91382 0.47927 0.19711 0.0
H1729 H 0.91389 0.45992 0.20043 0.0
H1730 H 0.9289 0.46831 0.19082 0.0
H1731 H 0.94777 0.45812 0.20994 0.0
H1732 H 0.93235 0.44862 0.21746 0.0
H1733 H 0.9431 0.45963 0.22899 0.0
H1734 H 0.92199 0.50144 0.25015 0.0
H1735 H 0.90826 0.48403 0.26594 0.0
H1736 H 0.90328 0.45614 0.22913 0.0
C1737 C 0.95133 0.4906 0.20989 0.0
C1738 C 0.95574 0.50535 0.21216 0.0
C1739 C 0.94507 0.51582 0.2158 0.0
C1740 C 0.9318 0.51128 0.22137 0.0
C1741 C 0.92901 0.4965 0.22171 0.0
C1742 C 0.9369 0.48663 0.21381 0.0
C1743 C 0.92872 0.47197 0.2143 0.0
C1744 C 0.92086 0.46973 0.19981 0.0
C1745 C 0.93863 0.45888 0.21788 0.0
C1746 C 0.91766 0.47484 0.22656 0.0
C1747 C 0.91957 0.48874 0.23134 0.0
C1748 C 0.9174 0.49184 0.24584 0.0
C1749 C 0.90976 0.482 0.25454 0.0
C1750 C 0.90228 0.47065 0.248 0.0
C1751 C 0.90733 0.46595 0.23401 0.0
H1752 H 0.68578 0.6088 0.75684 0.0
H1753 H 0.69858 0.62624 0.71493 0.0
H1754 H 0.67314 0.6247 0.70653 0.0
H1755 H 0.67096 0.58101 0.73984 0.0
H1756 H 0.65728 0.57705 0.75343 0.0
H1757 H 0.67378 0.5858 0.75855 0.0
H1758 H 0.65914 0.60731 0.76958 0.0
H1759 H 0.64259 0.59824 0.76488 0.0
H1760 H 0.6457 0.61669 0.75872 0.0
H1761 H 0.64713 0.61603 0.70116 0.0
H1762 H 0.62447 0.60142 0.69959 0.0
H1763 H 0.63361 0.58289 0.74193 0.0
C1764 C 0.68292 0.61349 0.74635 0.0
C1765 C 0.69394 0.61815 0.73671 0.0
C1766 C 0.69014 0.6232 0.72265 0.0
C1767 C 0.67574 0.62204 0.71771 0.0
C1768 C 0.66552 0.61533 0.72684 0.0
C1769 C 0.6691 0.61094 0.74086 0.0
C1770 C 0.65832 0.60013 0.74697 0.0
C1771 C 0.66552 0.58513 0.74985 0.0
C1772 C 0.65098 0.60596 0.76084 0.0
C1773 C 0.64787 0.59945 0.73444 0.0
C1774 C 0.65188 0.60846 0.72302 0.0
C1775 C 0.64383 0.60908 0.71015 0.0
C1776 C 0.63112 0.60063 0.70925 0.0
C1777 C 0.62698 0.59141 0.72094 0.0
C1778 C 0.63588 0.59047 0.73329 0.0
H1779 H 0.47362 0.87937 0.64302 0.0
H1780 H 0.51741 0.86176 0.64583 0.0
H1781 H 0.5103 0.84813 0.668 0.0
H1782 H 0.47648 0.88393 0.68638 0.0
H1783 H 0.45701 0.88319 0.68862 0.0
H1784 H 0.46479 0.89166 0.6726 0.0
H1785 H 0.44982 0.87417 0.65614 0.0
H1786 H 0.44211 0.8663 0.67249 0.0
H1787 H 0.45124 0.85483 0.65953 0.0
H1788 H 0.49139 0.82689 0.67695 0.0
H1789 H 0.47592 0.81615 0.69649 0.0
H1790 H 0.45316 0.8571 0.70087 0.0
C1791 C 0.48193 0.87316 0.64866 0.0
C1792 C 0.4957 0.87032 0.64199 0.0
C1793 C 0.50649 0.86299 0.65013 0.0
C1794 C 0.50256 0.8551 0.66258 0.0
C1795 C 0.48827 0.85603 0.66741 0.0
C1796 C 0.47891 0.86659 0.66232 0.0
C1797 C 0.46583 0.86789 0.67267 0.0
C1798 C 0.46604 0.88254 0.68054 0.0
C1799 C 0.4514 0.86569 0.6647 0.0
C1800 C 0.4689 0.85527 0.68318 0.0
C1801 C 0.4812 0.84789 0.67876 0.0
C1802 C 0.48335 0.83339 0.68253 0.0
C1803 C 0.47452 0.8274 0.69345 0.0
C1804 C 0.46511 0.83641 0.70154 0.0
C1805 C 0.46129 0.85029 0.69566 0.0
H1806 H 0.49186 0.19479 0.94374 0.0
H1807 H 0.46742 0.2223 0.97245 0.0
H1808 H 0.45233 0.23097 0.95199 0.0
H1809 H 0.49862 0.2147 0.91769 0.0
H1810 H 0.49534 0.20202 0.90318 0.0
H1811 H 0.49894 0.19521 0.92069 0.0
H1812 H 0.47453 0.18099 0.91765 0.0
H1813 H 0.47105 0.18999 0.90048 0.0
H1814 H 0.45779 0.19099 0.91497 0.0
H1815 H 0.44959 0.24465 0.92849 0.0
H1816 H 0.45344 0.2567 0.90468 0.0
H1817 H 0.4779 0.2191 0.88986 0.0
C1818 C 0.48247 0.20166 0.9458 0.0
C1819 C 0.48172 0.20931 0.95899 0.0
C1820 C 0.4689 0.21736 0.96192 0.0
C1821 C 0.46034 0.22246 0.95028 0.0
C1822 C 0.46375 0.21764 0.93629 0.0
C1823 C 0.4738 0.20652 0.93412 0.0
C1824 C 0.47698 0.20465 0.91801 0.0
C1825 C 0.49344 0.20425 0.91478 0.0
C1826 C 0.46964 0.19084 0.91246 0.0
C1827 C 0.46954 0.21818 0.91182 0.0
C1828 C 0.46141 0.22516 0.92244 0.0
C1829 C 0.45535 0.23894 0.91992 0.0
C1830 C 0.4577 0.24579 0.90635 0.0
C1831 C 0.4662 0.23897 0.89541 0.0
C1832 C 0.47164 0.22472 0.89807 0.0
H1833 H 0.12492 0.20262 0.13775 0.0
H1834 H 0.08744 0.22937 0.14226 0.0
H1835 H 0.10084 0.24624 0.15854 0.0
H1836 H 0.11437 0.2035 0.17653 0.0
H1837 H 0.13143 0.19673 0.18357 0.0
H1838 H 0.12578 0.19177 0.16562 0.0
H1839 H 0.15022 0.20165 0.15546 0.0
H1840 H 0.15554 0.20724 0.17341 0.0
H1841 H 0.15505 0.2203 0.15864 0.0
H1842 H 0.12141 0.26191 0.16923 0.0
H1843 H 0.12325 0.26428 0.19552 0.0
H1844 H 0.1324 0.21801 0.19911 0.0
C1845 C 0.11973 0.21236 0.14189 0.0
C1846 C 0.10646 0.21768 0.13597 0.0
C1847 C 0.09887 0.22813 0.14392 0.0
C1848 C 0.10632 0.2373 0.15323 0.0
C1849 C 0.12057 0.23382 0.15677 0.0
C1850 C 0.12564 0.21997 0.15383 0.0
C1851 C 0.13363 0.21416 0.16722 0.0
C1852 C 0.12583 0.20075 0.17363 0.0
C1853 C 0.14956 0.21062 0.16345 0.0
C1854 C 0.13255 0.22734 0.17733 0.0
C1855 C 0.12738 0.23915 0.1696 0.0
C1856 C 0.12532 0.25279 0.17571 0.0
C1857 C 0.12645 0.254 0.19072 0.0
C1858 C 0.1275 0.24127 0.19936 0.0
C1859 C 0.13179 0.22794 0.1927 0.0
H1860 H 0.1123 0.88782 0.45649 0.0
H1861 H 0.07394 0.86478 0.44339 0.0
H1862 H 0.08945 0.84944 0.42698 0.0
H1863 H 0.12114 0.88968 0.41415 0.0
H1864 H 0.14032 0.89169 0.41751 0.0
H1865 H 0.12715 0.89935 0.42995 0.0
H1866 H 0.13979 0.88496 0.45088 0.0
H1867 H 0.15233 0.8765 0.4383 0.0
H1868 H 0.14103 0.8654 0.44997 0.0
H1869 H 0.11202 0.83094 0.423 0.0
H1870 H 0.13079 0.82435 0.40484 0.0
H1871 H 0.1475 0.86795 0.40579 0.0
C1872 C 0.10687 0.88013 0.44959 0.0
C1873 C 0.09227 0.87588 0.45247 0.0
C1874 C 0.08544 0.86673 0.44246 0.0
C1875 C 0.09395 0.85813 0.43318 0.0
C1876 C 0.1087 0.86076 0.43242 0.0
C1877 C 0.11456 0.87304 0.43832 0.0
C1878 C 0.12957 0.87569 0.43167 0.0
C1879 C 0.12955 0.88995 0.42278 0.0
C1880 C 0.14138 0.87564 0.44342 0.0
C1881 C 0.13112 0.86239 0.42193 0.0
C1882 C 0.11968 0.85312 0.42435 0.0
C1883 C 0.12016 0.83875 0.41965 0.0
C1884 C 0.13119 0.83507 0.40963 0.0
C1885 C 0.13791 0.84667 0.40192 0.0
C1886 C 0.14056 0.85946 0.41011 0.0
H1887 H 0.70822 0.44873 0.85872 0.0
H1888 H 0.69617 0.47447 0.82129 0.0
H1889 H 0.68066 0.49006 0.83713 0.0
H1890 H 0.66663 0.44906 0.86362 0.0
H1891 H 0.66745 0.44481 0.88281 0.0
H1892 H 0.68143 0.43816 0.87069 0.0
H1893 H 0.70068 0.45032 0.88705 0.0
H1894 H 0.6866 0.45763 0.89873 0.0
H1895 H 0.69958 0.46964 0.89017 0.0
H1896 H 0.67669 0.50812 0.86122 0.0
H1897 H 0.65531 0.51301 0.87663 0.0
H1898 H 0.6545 0.46775 0.88973 0.0
C1899 C 0.70221 0.45764 0.85377 0.0
C1900 C 0.70519 0.4623 0.83923 0.0
C1901 C 0.69568 0.47249 0.83284 0.0
C1902 C 0.6871 0.48145 0.84168 0.0
C1903 C 0.68663 0.47859 0.8565 0.0
C1904 C 0.69154 0.46541 0.8618 0.0
C1905 C 0.68295 0.46138 0.87551 0.0
C1906 C 0.67408 0.44753 0.87301 0.0
C1907 C 0.69306 0.45963 0.88864 0.0
C1908 C 0.67315 0.47484 0.87709 0.0
C1909 C 0.67728 0.48528 0.86712 0.0
C1910 C 0.67213 0.49955 0.86791 0.0
C1911 C 0.66026 0.50227 0.87718 0.0
C1912 C 0.65201 0.49023 0.88206 0.0
C1913 C 0.65984 0.47696 0.88463 0.0
H1914 H 0.73345 0.39976 0.95899 0.0
H1915 H 0.73819 0.39435 0.00539 0.0
H1916 H 0.71939 0.41229 0.00991 0.0
H1917 H 0.73612 0.4373 0.96375 0.0
H1918 H 0.725 0.44223 0.94835 0.0
H1919 H 0.73452 0.42513 0.9486 0.0
H1920 H 0.70991 0.41222 0.94437 0.0
H1921 H 0.70029 0.42941 0.94489 0.0
H1922 H 0.69512 0.41483 0.9571 0.0
H1923 H 0.70139 0.43177 0.01021 0.0
H1924 H 0.69874 0.45822 0.00827 0.0
H1925 H 0.70867 0.45639 0.96242 0.0
C1926 C 0.73018 0.40214 0.97007 0.0
C1927 C 0.73591 0.394 0.98187 0.0
C1928 C 0.73242 0.3985 0.99616 0.0
C1929 C 0.72181 0.40906 0.99885 0.0
C1930 C 0.71539 0.41606 0.98707 0.0
C1931 C 0.72022 0.41355 0.97299 0.0
C1932 C 0.71529 0.42581 0.96294 0.0
C1933 C 0.72851 0.43306 0.95549 0.0
C1934 C 0.70451 0.42023 0.95165 0.0
C1935 C 0.70769 0.43587 0.97377 0.0
C1936 C 0.7069 0.42937 0.98739 0.0
C1937 C 0.70206 0.437 0.99962 0.0
C1938 C 0.70018 0.4521 0.99833 0.0
C1939 C 0.70503 0.45919 0.98552 0.0
C1940 C 0.70559 0.45101 0.97251 0.0
H1941 H 0.84724 0.69811 0.48645 0.0
H1942 H 0.84725 0.70167 0.43966 0.0
H1943 H 0.86337 0.67975 0.43866 0.0
H1944 H 0.88669 0.69096 0.48943 0.0
H1945 H 0.88617 0.67725 0.50359 0.0
H1946 H 0.87364 0.69212 0.50424 0.0
H1947 H 0.85003 0.67867 0.50317 0.0
H1948 H 0.86076 0.66274 0.50671 0.0
H1949 H 0.84845 0.66314 0.49153 0.0
H1950 H 0.87445 0.65449 0.44409 0.0
H1951 H 0.87797 0.63025 0.45528 0.0
H1952 H 0.88084 0.64954 0.4976 0.0
C1953 C 0.85173 0.69554 0.47604 0.0
C1954 C 0.84683 0.70257 0.46326 0.0
C1955 C 0.85115 0.69677 0.44968 0.0
C1956 C 0.8605 0.6845 0.44903 0.0
C1957 C 0.86603 0.67868 0.46205 0.0
C1958 C 0.86207 0.68441 0.47533 0.0
C1959 C 0.86843 0.67577 0.48793 0.0
C1960 C 0.87936 0.68461 0.49674 0.0
C1961 C 0.85621 0.66971 0.49788 0.0
C1962 C 0.87625 0.66387 0.47974 0.0
C1963 C 0.87442 0.66541 0.46481 0.0
C1964 C 0.87658 0.65355 0.45563 0.0
C1965 C 0.87903 0.63976 0.46204 0.0
C1966 C 0.87905 0.63812 0.4774 0.0
C1967 C 0.8808 0.65061 0.48583 0.0
H1968 H 0.02013 0.31938 0.18928 0.0
H1969 H 0.03348 0.3 0.22923 0.0
H1970 H 0.04548 0.28022 0.21755 0.0
H1971 H 0.02534 0.27859 0.14776 0.0
H1972 H 0.03729 0.28283 0.13404 0.0
H1973 H 0.0252 0.29661 0.13953 0.0
H1974 H 0.04664 0.31219 0.14028 0.0
H1975 H 0.05488 0.29788 0.1337 0.0
H1976 H 0.06462 0.30393 0.14753 0.0
H1977 H 0.06419 0.25048 0.18221 0.0
H1978 H 0.07684 0.24287 0.16226 0.0
H1979 H 0.06132 0.27642 0.13509 0.0
C1980 C 0.02652 0.31106 0.19472 0.0
C1981 C 0.02693 0.31143 0.20987 0.0
C1982 C 0.03391 0.30008 0.21746 0.0
C1983 C 0.04109 0.28853 0.21035 0.0
C1984 C 0.04261 0.28814 0.19463 0.0
C1985 C 0.03576 0.30099 0.18694 0.0
C1986 C 0.04396 0.29372 0.15589 0.0
C1987 C 0.03226 0.28773 0.1439 0.0
C1988 C 0.05309 0.30285 0.14442 0.0
C1989 C 0.05389 0.27807 0.15769 0.0
C1990 C 0.05492 0.27185 0.17355 0.0
C1991 C 0.06314 0.25804 0.17318 0.0
C1992 C 0.07118 0.25318 0.1612 0.0
C1993 C 0.07168 0.26081 0.14807 0.0
C1994 C 0.06213 0.27224 0.14604 0.0
H1995 H 0.08673 0.81431 0.42473 0.0
H1996 H 0.07012 0.80778 0.38132 0.0
H1997 H 0.05467 0.7878 0.39074 0.0
H1998 H 0.0828 0.7724 0.43197 0.0
H1999 H 0.07991 0.77466 0.45122 0.0
H2000 H 0.09177 0.78688 0.44134 0.0
H2001 H 0.05672 0.80821 0.4487 0.0
H2002 H 0.07637 0.80951 0.4497 0.0
H2003 H 0.06665 0.79652 0.46066 0.0
H2004 H 0.0365 0.77319 0.40517 0.0
H2005 H 0.0194 0.76302 0.42351 0.0
H2006 H 0.0482 0.77644 0.45783 0.0
C2007 C 0.07947 0.80894 0.41733 0.0
C2008 C 0.07882 0.81334 0.40241 0.0
C2009 C 0.07011 0.80525 0.39287 0.0
C2010 C 0.06131 0.79389 0.3981 0.0
C2011 C 0.06101 0.79081 0.41296 0.0
C2012 C 0.07025 0.79764 0.42246 0.0
C2013 C 0.06855 0.79084 0.43766 0.0
C2014 C 0.08152 0.78059 0.44073 0.0
C2015 C 0.06698 0.80203 0.44983 0.0
C2016 C 0.05471 0.78205 0.43575 0.0
C2017 C 0.05118 0.7814 0.42121 0.0
C2018 C 0.03876 0.77421 0.41661 0.0
C2019 C 0.02906 0.76852 0.4271 0.0
C2020 C 0.03199 0.7697 0.44211 0.0
C2021 C 0.0454 0.7759 0.44642 0.0
H2022 H 0.55999 0.7909 0.7146 0.0
H2023 H 0.58048 0.7626 0.68346 0.0
H2024 H 0.57732 0.78095 0.66401 0.0
H2025 H 0.53609 0.80191 0.70622 0.0
H2026 H 0.5319 0.82104 0.70279 0.0
H2027 H 0.54517 0.81542 0.71596 0.0
H2028 H 0.56764 0.82543 0.70676 0.0
H2029 H 0.5559 0.83682 0.69576 0.0
H2030 H 0.57106 0.82732 0.68758 0.0
H2031 H 0.56767 0.80024 0.64284 0.0
H2032 H 0.54501 0.8151 0.62819 0.0
H2033 H 0.52499 0.8306 0.67534 0.0
C2034 C 0.56373 0.78881 0.70361 0.0
C2035 C 0.5703 0.77526 0.70021 0.0
C2036 C 0.57552 0.77289 0.68602 0.0
C2037 C 0.57405 0.78341 0.67507 0.0
C2038 C 0.56694 0.79639 0.67831 0.0
C2039 C 0.56181 0.79942 0.69244 0.0
C2040 C 0.55235 0.81343 0.69326 0.0
C2041 C 0.54056 0.81291 0.70513 0.0
C2042 C 0.56231 0.82651 0.69598 0.0
C2043 C 0.54678 0.81456 0.67773 0.0
C2044 C 0.5593 0.80539 0.66786 0.0
C2045 C 0.55895 0.80542 0.64891 0.0
C2046 C 0.54474 0.81422 0.63986 0.0
C2047 C 0.53119 0.82376 0.64976 0.0
C2048 C 0.53223 0.82389 0.66895 0.0
H2049 H 0.5606 0.33359 0.92456 0.0
H2050 H 0.56163 0.31029 0.96571 0.0
H2051 H 0.54116 0.29507 0.95779 0.0
H2052 H 0.51903 0.32951 0.92227 0.0
H2053 H 0.51928 0.3288 0.90268 0.0
H2054 H 0.5325 0.33955 0.91207 0.0
H2055 H 0.55379 0.32545 0.89951 0.0
H2056 H 0.54004 0.31612 0.88952 0.0
H2057 H 0.5532 0.3058 0.89957 0.0
H2058 H 0.52368 0.28043 0.9444 0.0
H2059 H 0.51136 0.26489 0.92606 0.0
H2060 H 0.51957 0.29817 0.89335 0.0
C2061 C 0.55671 0.32499 0.93169 0.0
C2062 C 0.56323 0.32249 0.94551 0.0
C2063 C 0.55735 0.31175 0.95486 0.0
C2064 C 0.54562 0.30322 0.95049 0.0
C2065 C 0.54 0.30532 0.93657 0.0
C2066 C 0.54514 0.31607 0.92732 0.0
C2067 C 0.53663 0.31607 0.9131 0.0
C2068 C 0.52624 0.32927 0.9125 0.0
C2069 C 0.54657 0.31585 0.89964 0.0
C2070 C 0.52807 0.30204 0.91487 0.0
C2071 C 0.52951 0.29665 0.92882 0.0
C2072 C 0.52297 0.28377 0.93319 0.0
C2073 C 0.51602 0.2752 0.92278 0.0
C2074 C 0.51508 0.28 0.90818 0.0
C2075 C 0.52044 0.29404 0.9044 0.0
H2076 H 0.03512 0.82733 0.44859 0.0
H2077 H 0.06912 0.84225 0.41945 0.0
H2078 H 0.05559 0.83316 0.39856 0.0
H2079 H 0.02909 0.79826 0.43889 0.0
H2080 H 0.01005 0.79457 0.43585 0.0
H2081 H 0.01549 0.80851 0.44821 0.0
H2082 H 1.00408 0.82997 0.43605 0.0
H2083 H 0.99484 0.81721 0.42462 0.0
H2084 H 0.00483 0.83208 0.41656 0.0
H2085 H 0.04253 0.81664 0.38183 0.0
H2086 H 0.03118 0.79484 0.37142 0.0
H2087 H 0.00522 0.78942 0.41061 0.0
C2088 C 0.03965 0.82877 0.43776 0.0
C2089 C 0.05375 0.83473 0.43583 0.0
C2090 C 0.05897 0.83691 0.42148 0.0
C2091 C 0.05118 0.83198 0.40944 0.0
C2092 C 0.03816 0.82473 0.41182 0.0
C2093 C 0.03205 0.82365 0.42557 0.0
C2094 C 0.01848 0.81429 0.42519 0.0
C2095 C 0.0182 0.80316 0.43773 0.0
C2096 C 0.00475 0.82396 0.42563 0.0
C2097 C 0.02018 0.80754 0.41018 0.0
C2098 C 0.03068 0.81485 0.40218 0.0
C2099 C 0.03435 0.81079 0.38801 0.0
C2100 C 0.02803 0.79828 0.38225 0.0
C2101 C 0.01792 0.7901 0.39049 0.0
C2102 C 0.01334 0.79525 0.40432 0.0
H2103 H 0.55041 0.78401 0.63464 0.0
H2104 H 0.55935 0.74466 0.65855 0.0
H2105 H 0.54475 0.75379 0.67918 0.0
H2106 H 0.56662 0.8278 0.65872 0.0
H2107 H 0.55307 0.83724 0.66619 0.0
H2108 H 0.55408 0.83579 0.64817 0.0
H2109 H 0.52413 0.79771 0.63734 0.0
H2110 H 0.51236 0.80466 0.65134 0.0
H2111 H 0.517 0.7864 0.65067 0.0
H2112 H 0.5287 0.76518 0.69625 0.0
H2113 H 0.51142 0.77988 0.71077 0.0
H2114 H 0.50995 0.81173 0.67662 0.0
C2115 C 0.54973 0.7779 0.64466 0.0
C2116 C 0.5566 0.7641 0.64529 0.0
C2117 C 0.55471 0.75553 0.65794 0.0
C2118 C 0.54651 0.76072 0.66975 0.0
C2119 C 0.54089 0.77492 0.66922 0.0
C2120 C 0.54295 0.7841 0.6573 0.0
C2121 C 0.53584 0.8004 0.65949 0.0
C2122 C 0.55435 0.82824 0.65797 0.0
C2123 C 0.52183 0.79743 0.64908 0.0
C2124 C 0.52724 0.79542 0.67429 0.0
C2125 C 0.53143 0.78186 0.67962 0.0
C2126 C 0.52541 0.77586 0.69236 0.0
C2127 C 0.51527 0.78407 0.70038 0.0
C2128 C 0.51066 0.79788 0.69526 0.0
C2129 C 0.51538 0.80251 0.68144 0.0
H2130 H 0.53878 0.24944 0.92363 0.0
H2131 H 0.54862 0.26612 0.96629 0.0
H2132 H 0.56865 0.2807 0.95562 0.0
H2133 H 0.58033 0.25119 0.91237 0.0
H2134 H 0.576 0.25476 0.89358 0.0
H2135 H 0.56447 0.2431 0.9045 0.0
H2136 H 0.54129 0.25997 0.89938 0.0
H2137 H 0.55358 0.26898 0.88698 0.0
H2138 H 0.54423 0.27935 0.90046 0.0
H2139 H 0.5821 0.29843 0.94013 0.0
H2140 H 0.59054 0.31554 0.92095 0.0
H2141 H 0.57466 0.28662 0.88787 0.0
C2142 C 0.54534 0.25605 0.93067 0.0
C2143 C 0.54199 0.25701 0.94575 0.0
C2144 C 0.55091 0.26545 0.95473 0.0
C2145 C 0.56229 0.27373 0.94877 0.0
C2146 C 0.56462 0.27353 0.93378 0.0
C2147 C 0.55683 0.26448 0.92484 0.0
C2148 C 0.56199 0.26631 0.90909 0.0
C2149 C 0.57125 0.25306 0.90462 0.0
C2150 C 0.54946 0.26875 0.89839 0.0
C2151 C 0.57146 0.27975 0.91033 0.0
C2152 C 0.57342 0.28322 0.92478 0.0
C2153 C 0.58065 0.29582 0.92879 0.0
C2154 C 0.58536 0.3055 0.91785 0.0
C2155 C 0.58305 0.30247 0.90302 0.0
C2156 C 0.57654 0.28914 0.89918 0.0
H2157 H 0.02779 0.33326 0.15344 0.0
H2158 H 0.98891 0.30678 0.15235 0.0
H2159 H 1.00028 0.28662 0.16575 0.0
H2160 H 0.0708 0.32232 0.15987 0.0
H2161 H 0.06022 0.33753 0.16479 0.0
H2162 H 0.05436 0.32933 0.15058 0.0
H2163 H 0.04415 0.33329 0.18656 0.0
H2164 H 0.06341 0.32951 0.18652 0.0
H2165 H 0.05316 0.3181 0.19592 0.0
H2166 H 0.02154 0.26138 0.1856 0.0
H2167 H 0.04392 0.25295 0.20288 0.0
H2168 H 0.0776 0.29298 0.1922 0.0
C2169 C 0.02219 0.32347 0.15679 0.0
C2170 C 0.00782 0.32062 0.15171 0.0
C2171 C 0.99994 0.30815 0.15613 0.0
C2172 C 0.00627 0.29654 0.16381 0.0
C2173 C 0.02082 0.29727 0.16738 0.0
C2174 C 0.02982 0.31328 0.16508 0.0
C2175 C 0.05005 0.31521 0.1711 0.0
C2176 C 0.05933 0.32608 0.16096 0.0
C2177 C 0.05245 0.32446 0.18565 0.0
C2178 C 0.0565 0.2961 0.17621 0.0
C2179 C 0.03257 0.28197 0.17353 0.0
C2180 C 0.03167 0.26722 0.1847 0.0
C2181 C 0.04568 0.26257 0.19622 0.0
C2182 C 0.06237 0.2716 0.19836 0.0
C2183 C 0.06764 0.2877 0.18913 0.0
H2184 H 0.15727 0.04348 0.26198 0.0
H2185 H 0.11774 0.04021 0.28758 0.0
H2186 H 0.12879 0.02036 0.30221 0.0
H2187 H 0.16844 1.00132 0.26861 0.0
H2188 H 0.1873 0.00652 0.26841 0.0
H2189 H 0.17449 0.01567 0.25658 0.0
H2190 H 0.18392 0.03874 0.26648 0.0
H2191 H 0.19449 0.03166 0.28139 0.0
H2192 H 0.17924 0.0439 0.28452 0.0
H2193 H 0.14551 1.00039 0.31414 0.0
H2194 H 0.16574 0.99408 0.33074 0.0
H2195 H 0.19608 0.01198 0.29915 0.0
C2196 C 0.15087 0.03828 0.27046 0.0
C2197 C 0.13681 0.0437 0.27402 0.0
C2198 C 0.12877 0.03675 0.28521 0.0
C2199 C 0.13489 0.0252 0.29333 0.0
C2200 C 0.14912 0.02066 0.29017 0.0
C2201 C 0.15702 0.02697 0.27893 0.0
C2202 C 0.17287 0.02198 0.27948 0.0
C2203 C 0.17595 0.01071 0.26757 0.0
C2204 C 0.18333 0.0348 0.27794 0.0
C2205 C 0.17317 0.0146 0.2944 0.0
C2206 C 0.15916 0.01227 0.29927 0.0
C2207 C 0.15642 1.0038 0.31161 0.0
C2208 C 0.16805 0.99981 0.32069 0.0
C2209 C 0.18249 1.00324 0.31673 0.0
C2210 C 0.18509 0.01001 0.30293 0.0
H2211 H 0.32757 0.93498 0.55525 0.0
H2212 H 0.29956 0.97305 0.55257 0.0
H2213 H 0.28472 0.96076 0.53404 0.0
H2214 H 0.32013 0.9232 0.51427 0.0
H2215 H 0.32168 0.90438 0.51979 0.0
H2216 H 0.33288 0.91792 0.52817 0.0
H2217 H 0.32426 0.908 0.55191 0.0
H2218 H 0.31001 0.8964 0.54562 0.0
H2219 H 0.30607 0.91135 0.55776 0.0
H2220 H 0.27355 0.94359 0.51499 0.0
H2221 H 0.25964 0.92208 0.50721 0.0
H2222 H 0.29176 0.89357 0.52622 0.0
C2223 C 0.31846 0.94084 0.55052 0.0
C2224 C 0.31458 0.95494 0.55551 0.0
C2225 C 0.30252 0.96217 0.54922 0.0
C2226 C 0.29422 0.95534 0.53847 0.0
C2227 C 0.29797 0.94119 0.53427 0.0
C2228 C 0.30981 0.93398 0.54015 0.0
C2229 C 0.31014 0.9181 0.53551 0.0
C2230 C 0.3219 0.91577 0.52374 0.0
C2231 C 0.31271 0.90777 0.54844 0.0
C2232 C 0.29509 0.91683 0.52882 0.0
C2233 C 0.28936 0.93061 0.52648 0.0
C2234 C 0.27709 0.93277 0.518 0.0
C2235 C 0.26927 0.92058 0.51361 0.0
C2236 C 0.27365 0.90637 0.51753 0.0
C2237 C 0.28733 0.90439 0.52442 0.0
H2238 H 0.38817 0.06065 0.79131 0.0
H2239 H 0.41869 0.09225 0.80606 0.0
H2240 H 0.43893 0.07791 0.7957 0.0
H2241 H 0.40783 0.00608 0.80896 0.0
H2242 H 0.39645 1.00152 0.7958 0.0
H2243 H 0.39093 0.01267 0.80877 0.0
H2244 H 0.39217 0.04667 0.7682 0.0
H2245 H 0.40434 0.03433 0.75859 0.0
H2246 H 0.4091 0.05237 0.76173 0.0
H2247 H 0.45587 0.06122 0.78441 0.0
H2248 H 0.46966 0.04149 0.77197 0.0
H2249 H 0.42945 0.02136 0.7608 0.0
C2250 C 0.39934 0.06369 0.79299 0.0
C2251 C 0.40198 0.07703 0.79993 0.0
C2252 C 0.4164 0.08194 0.80101 0.0
C2253 C 0.42797 0.07374 0.79531 0.0
C2254 C 0.42512 0.06017 0.78931 0.0
C2255 C 0.41121 0.05442 0.78885 0.0
C2256 C 0.41085 0.03788 0.78258 0.0
C2257 C 0.40045 0.01185 0.80095 0.0
C2258 C 0.40365 0.04286 0.76707 0.0
C2259 C 0.42758 0.03901 0.7765 0.0
C2260 C 0.43514 0.05063 0.78195 0.0
C2261 C 0.45018 0.05203 0.78001 0.0
C2262 C 0.45793 0.04089 0.77292 0.0
C2263 C 0.45052 0.02921 0.76666 0.0
C2264 C 0.43519 0.02947 0.76684 0.0
H2265 H 0.30979 0.17791 0.00526 0.0
H2266 H 0.30542 0.21821 0.02883 0.0
H2267 H 0.28411 0.20808 0.04229 0.0
H2268 H 0.2667 0.17214 0.00836 0.0
H2269 H 0.26877 0.15264 0.00849 0.0
H2270 H 0.28092 0.16374 0.99766 0.0
H2271 H 0.3038 0.15261 0.01106 0.0
H2272 H 0.29075 0.14082 0.01969 0.0
H2273 H 0.30255 0.15122 0.03072 0.0
H2274 H 0.26915 0.19216 0.05796 0.0
H2275 H 0.26128 0.17178 0.074 0.0
H2276 H 0.27217 0.14148 0.03976 0.0
C2277 C 0.30436 0.18452 0.01336 0.0
C2278 C 0.3098 0.19853 0.01679 0.0
C2279 C 0.30188 0.20725 0.02666 0.0
C2280 C 0.28971 0.2017 0.03417 0.0
C2281 C 0.28562 0.18739 0.03182 0.0
C2282 C 0.29227 0.17901 0.02125 0.0
C2283 C 0.28526 0.16397 0.02104 0.0
C2284 C 0.27479 0.16307 0.00812 0.0
C2285 C 0.29633 0.15145 0.02055 0.0
C2286 C 0.27676 0.16421 0.03536 0.0
C2287 C 0.27621 0.17816 0.04072 0.0
C2288 C 0.26997 0.18113 0.05424 0.0
C2289 C 0.26549 0.16951 0.06321 0.0
C2290 C 0.26654 0.15505 0.05831 0.0
C2291 C 0.27146 0.15247 0.04385 0.0
H2292 H 0.1788 0.08566 0.28014 0.0
H2293 H 0.21792 0.05959 0.28458 0.0
H2294 H 0.20725 0.04712 0.30619 0.0
H2295 H 0.16945 0.08506 0.32265 0.0
H2296 H 0.15036 0.08489 0.31834 0.0
H2297 H 0.1629 0.09489 0.30692 0.0
H2298 H 0.15237 0.08162 0.28598 0.0
H2299 H 0.14177 0.06849 0.296 0.0
H2300 H 0.15622 0.06271 0.28379 0.0
H2301 H 0.19135 0.03592 0.32565 0.0
H2302 H 0.17087 0.02419 0.33868 0.0
H2303 H 0.14064 0.05453 0.31863 0.0
C2304 C 0.18518 0.07752 0.28591 0.0
C2305 C 0.19901 0.0732 0.28053 0.0
C2306 C 0.20711 0.06259 0.28827 0.0
C2307 C 0.20132 0.05586 0.30084 0.0
C2308 C 0.18739 0.05995 0.30562 0.0
C2309 C 0.17945 0.07066 0.29844 0.0
C2310 C 0.16387 0.07125 0.30419 0.0
C2311 C 0.16151 0.08483 0.31358 0.0
C2312 C 0.15284 0.07096 0.29179 0.0
C2313 C 0.1636 0.0576 0.31371 0.0
C2314 C 0.17756 0.05209 0.31537 0.0
C2315 C 0.18039 0.04011 0.32434 0.0
C2316 C 0.16868 0.03341 0.33157 0.0
C2317 C 0.1542 0.03808 0.32917 0.0
C2318 C 0.15162 0.05053 0.32033 0.0
H2319 H 0.26929 0.95675 0.56357 0.0
H2320 H 0.24674 0.9295 0.53328 0.0
H2321 H 0.25746 0.90764 0.54464 0.0
H2322 H 0.30277 0.93757 0.57441 0.0
H2323 H 0.29806 0.9417 0.59266 0.0
H2324 H 0.29086 0.95295 0.5783 0.0
H2325 H 0.2665 0.94488 0.59386 0.0
H2326 H 0.27621 0.9308 0.6037 0.0
H2327 H 0.26091 0.92619 0.59262 0.0
H2328 H 0.2758 0.88983 0.55459 0.0
H2329 H 0.29482 0.87599 0.56779 0.0
H2330 H 0.30245 0.91318 0.59521 0.0
C2331 C 0.2669 0.94615 0.5592 0.0
C2332 C 0.25866 0.94488 0.54622 0.0
C2333 C 0.25437 0.93085 0.54195 0.0
C2334 C 0.26019 0.91832 0.54859 0.0
C2335 C 0.26956 0.91992 0.56024 0.0
C2336 C 0.2722 0.93337 0.56617 0.0
C2337 C 0.28078 0.93144 0.58025 0.0
C2338 C 0.29384 0.94161 0.58137 0.0
C2339 C 0.27049 0.93345 0.59338 0.0
C2340 C 0.28549 0.91555 0.57903 0.0
C2341 C 0.27814 0.90895 0.56783 0.0
C2342 C 0.28136 0.89475 0.56361 0.0
C2343 C 0.29245 0.88711 0.5709 0.0
C2344 C 0.30051 0.89374 0.58205 0.0
C2345 C 0.29672 0.90802 0.58644 0.0
H2346 H 0.42397 0.06306 0.8367 0.0
H2347 H 0.46353 0.05008 0.81469 0.0
H2348 H 0.45079 0.02943 0.80362 0.0
H2349 H 0.40859 0.01921 0.83187 0.0
H2350 H 0.39033 0.02638 0.83327 0.0
H2351 H 0.40441 0.03274 0.84514 0.0
H2352 H 0.39333 0.05519 0.83822 0.0
H2353 H 0.38606 0.05497 0.82019 0.0
H2354 H 0.40255 0.06485 0.82456 0.0
H2355 H 0.41609 0.01301 0.78186 0.0
H2356 H 0.40651 0.00578 0.76661 0.0
H2357 H 0.3785 0.03818 0.7982 0.0
C2358 C 0.42969 0.0558 0.82939 0.0
C2359 C 0.44444 0.05857 0.82579 0.0
C2360 C 0.45208 0.04852 0.81703 0.0
C2361 C 0.44502 0.03646 0.81112 0.0
C2362 C 0.43016 0.0346 0.81374 0.0
C2363 C 0.42236 0.044 0.82301 0.0
C2364 C 0.40569 0.04148 0.82282 0.0
C2365 C 0.40204 0.02923 0.83386 0.0
C2366 C 0.39633 0.05487 0.82648 0.0
C2367 C 0.40383 0.03559 0.80753 0.0
C2368 C 0.42005 0.02742 0.80409 0.0
C2369 C 0.4227 0.01557 0.78967 0.0
C2370 C 0.40774 0.01327 0.7768 0.0
C2371 C 0.39085 0.02219 0.78018 0.0
C2372 C 0.38904 0.03368 0.79541 0.0
H2373 H 0.29383 0.16928 0.08423 0.0
H2374 H 0.30361 0.21031 0.06293 0.0
H2375 H 0.32138 0.19775 0.0469 0.0
H2376 H 0.3344 0.15699 0.07873 0.0
H2377 H 0.32963 0.13805 0.0778 0.0
H2378 H 0.31932 0.15017 0.08936 0.0
H2379 H 0.29502 0.14369 0.07606 0.0
H2380 H 0.30601 0.13062 0.06645 0.0
H2381 H 0.29539 0.14353 0.05638 0.0
H2382 H 0.33011 0.18032 0.02806 0.0
H2383 H 0.33417 0.15959 0.01177 0.0
H2384 H 0.32646 0.12963 0.04729 0.0
C2385 C 0.29952 0.1755 0.07593 0.0
C2386 C 0.29653 0.19061 0.07394 0.0
C2387 C 0.30496 0.19861 0.06385 0.0
C2388 C 0.31512 0.1916 0.05479 0.0
C2389 C 0.31675 0.17656 0.05596 0.0
C2390 C 0.30979 0.16861 0.06671 0.0
C2391 C 0.31474 0.15269 0.06613 0.0
C2392 C 0.32514 0.14927 0.07876 0.0
C2393 C 0.30198 0.14205 0.06628 0.0
C2394 C 0.32293 0.15258 0.05165 0.0
C2395 C 0.32437 0.16663 0.04632 0.0
C2396 C 0.3292 0.16935 0.03219 0.0
C2397 C 0.33192 0.15756 0.02303 0.0
C2398 C 0.33142 0.14316 0.02827 0.0
C2399 C 0.32716 0.14061 0.04298 0.0
H2400 H 0.76346 0.45728 0.0468 0.0
H2401 H 0.74473 0.42702 0.01659 0.0
H2402 H 0.75008 0.40667 0.03363 0.0
H2403 H 0.79218 0.43862 0.06524 0.0
H2404 H 0.78573 0.44483 0.08237 0.0
H2405 H 0.78099 0.45499 0.06623 0.0
H2406 H 0.75421 0.4505 0.07784 0.0
H2407 H 0.76123 0.43769 0.09111 0.0
H2408 H 0.74753 0.43213 0.07849 0.0
H2409 H 0.76655 0.38972 0.04854 0.0
H2410 H 0.78356 0.37771 0.06569 0.0
H2411 H 0.78744 0.41794 0.08936 0.0
C2412 C 0.76075 0.44629 0.04376 0.0
C2413 C 0.75487 0.44344 0.02982 0.0
C2414 C 0.75012 0.42924 0.02676 0.0
C2415 C 0.75306 0.41763 0.03641 0.0
C2416 C 0.76048 0.42046 0.04923 0.0
C2417 C 0.76332 0.43452 0.05348 0.0
C2418 C 0.76938 0.43437 0.06891 0.0
C2419 C 0.78284 0.44386 0.0707 0.0
C2420 C 0.75737 0.43894 0.07973 0.0
C2421 C 0.77302 0.41828 0.07079 0.0
C2422 C 0.76719 0.41036 0.05955 0.0
C2423 C 0.7707 0.39569 0.05768 0.0
C2424 C 0.78052 0.38899 0.06735 0.0
C2425 C 0.78671 0.3969 0.07882 0.0
C2426 C 0.78262 0.41163 0.08079 0.0
H2427 H 0.89897 0.52478 0.30197 0.0
H2428 H 0.9287 0.50572 0.27103 0.0
H2429 H 0.94827 0.52169 0.27912 0.0
H2430 H 0.91056 0.55957 0.3091 0.0
H2431 H 0.91122 0.55769 0.32846 0.0
H2432 H 0.89949 0.54609 0.31818 0.0
H2433 H 0.93272 0.52247 0.32808 0.0
H2434 H 0.91336 0.5243 0.33083 0.0
H2435 H 0.9256 0.53668 0.33953 0.0
H2436 H 0.96095 0.54604 0.28503 0.0
H2437 H 0.97206 0.56664 0.29808 0.0
H2438 H 0.93798 0.56386 0.33089 0.0
C2439 C 0.90952 0.52427 0.29668 0.0
C2440 C 0.91166 0.51586 0.28394 0.0
C2441 C 0.92608 0.51396 0.27877 0.0
C2442 C 0.93743 0.52265 0.2837 0.0
C2443 C 0.93451 0.53232 0.29483 0.0
C2444 C 0.92142 0.53205 0.30229 0.0
C2445 C 0.92269 0.54077 0.31621 0.0
C2446 C 0.91016 0.55165 0.31812 0.0
C2447 C 0.92365 0.53044 0.32944 0.0
C2448 C 0.93717 0.54832 0.31352 0.0
C2449 C 0.94393 0.54308 0.30117 0.0
C2450 C 0.95621 0.54981 0.29516 0.0
C2451 C 0.96222 0.56176 0.30239 0.0
C2452 C 0.95589 0.5669 0.31545 0.0
C2453 C 0.94316 0.56006 0.32099 0.0
H2454 H 0.83684 0.66791 0.52788 0.0
H2455 H 0.81506 0.62718 0.53677 0.0
H2456 H 0.80114 0.63876 0.55679 0.0
H2457 H 0.83451 0.67699 0.56993 0.0
H2458 H 0.83373 0.6963 0.56649 0.0
H2459 H 0.84442 0.68469 0.55474 0.0
H2460 H 0.80992 0.6953 0.53403 0.0
H2461 H 0.82935 0.69315 0.53115 0.0
H2462 H 0.82225 0.70611 0.54397 0.0
H2463 H 0.78372 0.65605 0.56855 0.0
H2464 H 0.76826 0.6769 0.57564 0.0
H2465 H 0.8031 0.70637 0.5648 0.0
C2466 C 0.82907 0.66152 0.53407 0.0
C2467 C 0.82639 0.6468 0.53034 0.0
C2468 C 0.81678 0.63856 0.5391 0.0
C2469 C 0.80885 0.64504 0.55045 0.0
C2470 C 0.81049 0.65986 0.55287 0.0
C2471 C 0.82089 0.66791 0.54552 0.0
C2472 C 0.82093 0.68345 0.55136 0.0
C2473 C 0.83418 0.68548 0.56121 0.0
C2474 C 0.82064 0.69513 0.53933 0.0
C2475 C 0.80692 0.68351 0.56038 0.0
C2476 C 0.8015 0.66959 0.56159 0.0
C2477 C 0.78785 0.66697 0.5677 0.0
C2478 C 0.77918 0.67884 0.57198 0.0
C2479 C 0.78447 0.69317 0.57121 0.0
C2480 C 0.79879 0.69547 0.56571 0.0
H2481 H 0.94395 0.55921 0.26106 0.0
H2482 H 0.91622 0.5241 0.24761 0.0
H2483 H 0.89534 0.5358 0.2597 0.0
H2484 H 0.93135 0.56963 0.29472 0.0
H2485 H 0.93043 0.58868 0.29094 0.0
H2486 H 0.94252 0.57735 0.28041 0.0
H2487 H 0.92883 0.58847 0.25773 0.0
H2488 H 0.91613 0.59797 0.26941 0.0
H2489 H 0.90956 0.58551 0.25602 0.0
H2490 H 0.88135 0.54441 0.28171 0.0
H2491 H 0.87046 0.55773 0.30244 0.0
H2492 H 0.90388 0.59047 0.2982 0.0
C2493 C 0.93349 0.55392 0.26071 0.0
C2494 C 0.93211 0.53997 0.25422 0.0
C2495 C 0.91801 0.53407 0.25321 0.0
C2496 C 0.90601 0.54059 0.26013 0.0
C2497 C 0.90812 0.55317 0.26795 0.0
C2498 C 0.92114 0.56049 0.26736 0.0
C2499 C 0.91944 0.575 0.27515 0.0
C2500 C 0.93172 0.5778 0.28591 0.0
C2501 C 0.91843 0.58748 0.26391 0.0
C2502 C 0.90479 0.57286 0.28281 0.0
C2503 C 0.89829 0.56028 0.27813 0.0
C2504 C 0.88594 0.55463 0.28506 0.0
C2505 C 0.88001 0.56204 0.29706 0.0
C2506 C 0.8864 0.57495 0.30207 0.0
C2507 C 0.89866 0.58069 0.29447 0.0
H2508 H 0.70045 0.51372 0.78157 0.0
H2509 H 0.674 0.49303 0.81472 0.0
H2510 H 0.65193 0.50382 0.8038 0.0
H2511 H 0.68276 0.54606 0.77159 0.0
H2512 H 0.68357 0.54282 0.7525 0.0
H2513 H 0.69661 0.53401 0.76426 0.0
H2514 H 0.68691 0.50986 0.75225 0.0
H2515 H 0.67286 0.51984 0.74271 0.0
H2516 H 0.66808 0.50512 0.75489 0.0
H2517 H 0.63516 0.52481 0.79585 0.0
H2518 H 0.62165 0.54425 0.78261 0.0
H2519 H 0.65623 0.54624 0.75034 0.0
C2520 C 0.69002 0.51183 0.78675 0.0
C2521 C 0.68913 0.50417 0.80029 0.0
C2522 C 0.67518 0.50036 0.80559 0.0
C2523 C 0.66254 0.50629 0.79937 0.0
C2524 C 0.66388 0.51543 0.78735 0.0
C2525 C 0.67705 0.51714 0.78025 0.0
C2526 C 0.67461 0.52513 0.76581 0.0
C2527 C 0.68512 0.53773 0.7634 0.0
C2528 C 0.67568 0.51435 0.75316 0.0
C2529 C 0.65896 0.53049 0.76783 0.0
C2530 C 0.65287 0.52437 0.78022 0.0
C2531 C 0.6395 0.52923 0.78576 0.0
C2532 C 0.63205 0.54052 0.7784 0.0
C2533 C 0.638 0.54691 0.76564 0.0
C2534 C 0.65145 0.54152 0.7601 0.0
H2535 H 0.83072 0.4305 0.06244 0.0
H2536 H 0.80656 0.47004 0.05281 0.0
H2537 H 0.79266 0.45694 0.03397 0.0
H2538 H 0.82761 0.41559 0.02227 0.0
H2539 H 0.8271 0.39729 0.02948 0.0
H2540 H 0.83797 0.41087 0.03821 0.0
H2541 H 0.82557 0.40324 0.06099 0.0
H2542 H 0.81094 0.39251 0.05404 0.0
H2543 H 0.80729 0.40893 0.0643 0.0
H2544 H 0.78218 0.43888 0.01562 0.0
H2545 H 0.76937 0.41742 0.00606 0.0
H2546 H 0.79634 0.38893 0.03223 0.0
C2547 C 0.82233 0.43632 0.05649 0.0
C2548 C 0.81896 0.451 0.05972 0.0
C2549 C 0.80871 0.45858 0.05103 0.0
C2550 C 0.80112 0.45134 0.04001 0.0
C2551 C 0.80416 0.43659 0.03765 0.0
C2552 C 0.81464 0.4292 0.04557 0.0
C2553 C 0.81452 0.41303 0.04224 0.0
C2554 C 0.82757 0.40896 0.03247 0.0
C2555 C 0.81452 0.40379 0.05618 0.0
C2556 C 0.80049 0.41211 0.03366 0.0
C2557 C 0.79585 0.42594 0.0297 0.0
C2558 C 0.78495 0.42807 0.01949 0.0
C2559 C 0.77767 0.41586 0.01425 0.0
C2560 C 0.78057 0.40179 0.01995 0.0
C2561 C 0.79282 0.39976 0.02903 0.0
H2562 H 0.75372 0.66469 0.55147 0.0
H2563 H 0.77679 0.62392 0.54566 0.0
H2564 H 0.79043 0.63469 0.52492 0.0
H2565 H 0.75616 0.6722 0.5093 0.0
H2566 H 0.75645 0.69163 0.51152 0.0
H2567 H 0.74601 0.68046 0.52396 0.0
H2568 H 0.76113 0.68982 0.54733 0.0
H2569 H 0.76713 0.70241 0.53346 0.0
H2570 H 0.78036 0.69248 0.54354 0.0
H2571 H 0.80561 0.65137 0.50945 0.0
H2572 H 0.8209 0.67166 0.5 0.0
H2573 H 0.78729 0.70213 0.51338 0.0
C2574 C 0.76181 0.65816 0.54595 0.0
C2575 C 0.76488 0.64367 0.55079 0.0
C2576 C 0.77488 0.6352 0.5427 0.0
C2577 C 0.78257 0.64123 0.53082 0.0
C2578 C 0.78044 0.6559 0.52728 0.0
C2579 C 0.76994 0.6642 0.53422 0.0
C2580 C 0.76952 0.67952 0.52749 0.0
C2581 C 0.75625 0.68104 0.51747 0.0
C2582 C 0.76946 0.69171 0.53872 0.0
C2583 C 0.78355 0.67937 0.51852 0.0
C2584 C 0.78902 0.66539 0.51776 0.0
C2585 C 0.80208 0.66244 0.5106 0.0
C2586 C 0.81059 0.67403 0.50528 0.0
C2587 C 0.80567 0.68854 0.50659 0.0
C2588 C 0.79157 0.69114 0.51263 0.0
H2589 H 0.64416 0.54312 0.81811 0.0
H2590 H 0.67465 0.5126 0.83695 0.0
H2591 H 0.69507 0.5256 0.82508 0.0
H2592 H 0.65861 0.55469 0.78471 0.0
H2593 H 0.65662 0.57368 0.78805 0.0
H2594 H 0.64519 0.56101 0.79778 0.0
H2595 H 0.65553 0.57371 0.82117 0.0
H2596 H 0.66803 0.58433 0.81026 0.0
H2597 H 0.6748 0.57263 0.82457 0.0
H2598 H 0.70964 0.53459 0.80262 0.0
H2599 H 0.72037 0.54859 0.78202 0.0
H2600 H 0.68319 0.57788 0.78269 0.0
C2601 C 0.65514 0.53896 0.81937 0.0
C2602 C 0.65778 0.52563 0.82701 0.0
C2603 C 0.67233 0.52167 0.82989 0.0
C2604 C 0.68398 0.529 0.82322 0.0
C2605 C 0.68096 0.5407 0.81405 0.0
C2606 C 0.66712 0.54657 0.81318 0.0
C2607 C 0.6678 0.56114 0.80505 0.0
C2608 C 0.65627 0.5627 0.79323 0.0
C2609 C 0.66646 0.5737 0.81591 0.0
C2610 C 0.68316 0.5604 0.79862 0.0
C2611 C 0.6907 0.54863 0.8043 0.0
C2612 C 0.70414 0.54422 0.7985 0.0
C2613 C 0.71003 0.55202 0.78659 0.0
C2614 C 0.70257 0.56416 0.78061 0.0
C2615 C 0.6892 0.56868 0.78711 0.0
H2616 H 0.99813 0.39331 0.25586 0.0
H2617 H 0.01198 0.399 0.21086 0.0
H2618 H 1.00227 0.42398 0.21091 0.0
H2619 H 0.9651 0.41329 0.25357 0.0
H2620 H 0.96638 0.42196 0.27102 0.0
H2621 H 0.97512 0.4046 0.2681 0.0
H2622 H 0.99981 0.41522 0.27586 0.0
H2623 H 0.99112 0.43259 0.27896 0.0
H2624 H 0.00658 0.43133 0.26683 0.0
H2625 H 0.98882 0.44714 0.21452 0.0
H2626 H 0.97551 0.46894 0.22263 0.0
H2627 H 0.97143 0.45041 0.26606 0.0
C2628 C 0.99945 0.39994 0.24614 0.0
C2629 C 0.00596 0.39403 0.23335 0.0
C2630 C 0.00721 0.40312 0.22083 0.0
C2631 C 1.00162 0.41738 0.22071 0.0
C2632 C 0.99494 0.42268 0.23327 0.0
C2633 C 0.99409 0.41444 0.24589 0.0
C2634 C 0.9863 0.42305 0.25783 0.0
C2635 C 0.9724 0.41525 0.26293 0.0
C2636 C 0.99657 0.4257 0.27063 0.0
C2637 C 0.98266 0.43725 0.24982 0.0
C2638 C 0.98766 0.4366 0.2356 0.0
C2639 C 0.98505 0.44784 0.22568 0.0
C2640 C 0.97735 0.46017 0.23038 0.0
C2641 C 0.97237 0.46144 0.24494 0.0
C2642 C 0.97515 0.44981 0.25487 0.0
H2643 H 0.94723 0.74041 0.4673 0.0
H2644 H 0.95221 0.7766 0.49666 0.0
H2645 H 0.92729 0.77236 0.50632 0.0
H2646 H 0.90884 0.74518 0.45961 0.0
H2647 H 0.90529 0.72593 0.45967 0.0
H2648 H 0.92303 0.7325 0.45455 0.0
H2649 H 0.93465 0.71593 0.4743 0.0
H2650 H 0.91694 0.70941 0.47957 0.0
H2651 H 0.92858 0.7174 0.49294 0.0
H2652 H 0.90116 0.76406 0.51257 0.0
H2653 H 0.87724 0.75202 0.51543 0.0
H2654 H 0.89037 0.72006 0.48342 0.0
C2655 C 0.94302 0.74761 0.47561 0.0
C2656 C 0.95167 0.75905 0.48104 0.0
C2657 C 0.9458 0.7679 0.4922 0.0
C2658 C 0.93164 0.76554 0.49778 0.0
C2659 C 0.92348 0.75407 0.49231 0.0
C2660 C 0.92905 0.74518 0.48153 0.0
C2661 C 0.91843 0.73315 0.47798 0.0
C2662 C 0.91361 0.73426 0.462 0.0
C2663 C 0.92505 0.71809 0.4814 0.0
C2664 C 0.90594 0.73669 0.48834 0.0
C2665 C 0.90897 0.74886 0.49644 0.0
C2666 C 0.89879 0.75444 0.50636 0.0
C2667 C 0.88521 0.7475 0.50796 0.0
C2668 C 0.88191 0.73492 0.49989 0.0
C2669 C 0.89257 0.72946 0.49003 0.0
H2670 H 0.61655 0.63831 0.75705 0.0
H2671 H 0.57468 0.61699 0.75989 0.0
H2672 H 0.56233 0.64041 0.75497 0.0
H2673 H 0.60399 0.67244 0.77486 0.0
H2674 H 0.61535 0.68381 0.7635 0.0
H2675 H 0.621 0.66545 0.76784 0.0
H2676 H 0.62355 0.65994 0.74038 0.0
H2677 H 0.61783 0.67823 0.73595 0.0
H2678 H 0.60822 0.66301 0.72859 0.0
H2679 H 0.5545 0.66561 0.74664 0.0
H2680 H 0.55178 0.69138 0.73879 0.0
H2681 H 0.59817 0.69733 0.74379 0.0
C2682 C 0.60477 0.63864 0.75698 0.0
C2683 C 0.59663 0.6257 0.759 0.0
C2684 C 0.58122 0.62667 0.75861 0.0
C2685 C 0.57407 0.63996 0.7557 0.0
C2686 C 0.58237 0.65241 0.7535 0.0
C2687 C 0.59738 0.65197 0.75443 0.0
C2688 C 0.60367 0.66704 0.75168 0.0
C2689 C 0.61146 0.67251 0.76528 0.0
C2690 C 0.61392 0.66704 0.73836 0.0
C2691 C 0.58989 0.67588 0.7487 0.0
C2692 C 0.57773 0.66719 0.74966 0.0
C2693 C 0.5639 0.6726 0.74623 0.0
C2694 C 0.56243 0.68726 0.74177 0.0
C2695 C 0.57464 0.6965 0.74109 0.0
C2696 C 0.58853 0.69068 0.7447 0.0
H2697 H 0.69282 0.37269 0.01472 0.0
H2698 H 0.71631 0.33155 0.01386 0.0
H2699 H 0.6941 0.31927 0.00568 0.0
H2700 H 0.65747 0.35713 0.02738 0.0
H2701 H 0.64702 0.36973 0.01641 0.0
H2702 H 0.66442 0.37503 0.02344 0.0
H2703 H 0.67315 0.3814 0.9973 0.0
H2704 H 0.65585 0.37601 0.99019 0.0
H2705 H 0.67237 0.36776 0.98337 0.0
H2706 H 0.66992 0.31191 0.99451 0.0
H2707 H 0.64533 0.30997 0.98367 0.0
H2708 H 0.63709 0.35536 0.99298 0.0
C2709 C 0.6932 0.36102 0.01324 0.0
C2710 C 0.7064 0.35311 0.01516 0.0
C2711 C 0.70638 0.33788 0.01276 0.0
C2712 C 0.69379 0.33079 0.00799 0.0
C2713 C 0.6811 0.33896 0.00583 0.0
C2714 C 0.68064 0.35371 0.00865 0.0
C2715 C 0.66573 0.36006 0.00509 0.0
C2716 C 0.65822 0.36583 0.0189 0.0
C2717 C 0.66685 0.37201 0.99328 0.0
C2718 C 0.65803 0.34669 0.99944 0.0
C2719 C 0.66707 0.33461 0.99994 0.0
C2720 C 0.66265 0.32123 0.99441 0.0
C2721 C 0.64867 0.32018 0.9883 0.0
C2722 C 0.63918 0.33236 0.98791 0.0
C2723 C 0.64397 0.34575 0.99358 0.0
H2724 H 0.99988 0.64123 0.35018 0.0
H2725 H 0.99833 0.64817 0.30355 0.0
H2726 H 0.00687 0.67351 0.30676 0.0
H2727 H 0.98604 0.67613 0.35955 0.0
H2728 H 0.99707 0.67797 0.37554 0.0
H2729 H 0.99212 0.66017 0.36941 0.0
H2730 H 0.01932 0.65268 0.3683 0.0
H2731 H 0.02436 0.6705 0.3744 0.0
H2732 H 0.03186 0.66348 0.35767 0.0
H2733 H 0.01392 0.6986 0.31535 0.0
H2734 H 0.01828 0.72151 0.32838 0.0
H2735 H 0.0154 0.69834 0.36963 0.0
C2736 C 1.00172 0.64802 0.34064 0.0
C2737 C 0.99887 0.6427 0.32655 0.0
C2738 C 1.0008 0.65199 0.31436 0.0
C2739 C 0.0056 0.66638 0.31612 0.0
C2740 C 0.00831 0.67134 0.33018 0.0
C2741 C 0.0064 0.66243 0.34225 0.0
C2742 C 0.00912 0.67067 0.35622 0.0
C2743 C 0.99526 0.67127 0.36573 0.0
C2744 C 0.02193 0.66393 0.36464 0.0
C2745 C 0.01291 0.68563 0.35016 0.0
C2746 C 0.01237 0.68576 0.33512 0.0
C2747 C 0.01458 0.69854 0.3271 0.0
C2748 C 0.01712 0.71151 0.33461 0.0
C2749 C 0.01756 0.71172 0.35002 0.0
C2750 C 0.01565 0.69849 0.35785 0.0
H2751 H 0.69624 0.73994 0.56818 0.0
H2752 H 0.70406 0.70675 0.60134 0.0
H2753 H 0.68063 0.71227 0.61264 0.0
H2754 H 0.67693 0.76568 0.58967 0.0
H2755 H 0.66299 0.77009 0.57661 0.0
H2756 H 0.6806 0.76383 0.57046 0.0
H2757 H 0.66858 0.74298 0.55631 0.0
H2758 H 0.65091 0.7493 0.56228 0.0
H2759 H 0.65645 0.73074 0.56577 0.0
H2760 H 0.65812 0.72244 0.62212 0.0
H2761 H 0.63433 0.73335 0.62687 0.0
H2762 H 0.6376 0.75869 0.58677 0.0
C2763 C 0.69287 0.73368 0.57765 0.0
C2764 C 0.70228 0.72296 0.5839 0.0
C2765 C 0.69731 0.71502 0.59627 0.0
C2766 C 0.68395 0.71813 0.6029 0.0
C2767 C 0.67519 0.72893 0.59682 0.0
C2768 C 0.67907 0.73628 0.58421 0.0
C2769 C 0.66681 0.74674 0.57976 0.0
C2770 C 0.67216 0.76252 0.57909 0.0
C2771 C 0.6603 0.74217 0.56516 0.0
C2772 C 0.65588 0.74451 0.59222 0.0
C2773 C 0.66121 0.73423 0.60192 0.0
C2774 C 0.65372 0.7304 0.61454 0.0
C2775 C 0.6402 0.73688 0.61723 0.0
C2776 C 0.63399 0.74711 0.60736 0.0
C2777 C 0.64202 0.751 0.59461 0.0
H2778 H 0.60757 0.37781 0.85163 0.0
H2779 H 0.56857 0.38911 0.87596 0.0
H2780 H 0.57131 0.41485 0.86826 0.0
H2781 H 0.62719 0.40895 0.8625 0.0
H2782 H 0.63696 0.4112 0.84555 0.0
H2783 H 0.63089 0.39342 0.8512 0.0
H2784 H 0.6171 0.39074 0.82695 0.0
H2785 H 0.62311 0.40852 0.82119 0.0
H2786 H 0.60397 0.40443 0.82162 0.0
H2787 H 0.57863 0.4395 0.85842 0.0
H2788 H 0.59111 0.46156 0.84988 0.0
H2789 H 0.62707 0.43515 0.83381 0.0
C2790 C 0.59941 0.38566 0.85506 0.0
C2791 C 0.58762 0.38133 0.86417 0.0
C2792 C 0.57752 0.39207 0.86883 0.0
C2793 C 0.57902 0.40673 0.86448 0.0
C2794 C 0.59087 0.41066 0.8557 0.0
C2795 C 0.60102 0.40046 0.85119 0.0
C2796 C 0.61355 0.40781 0.84307 0.0
C2797 C 0.628 0.40519 0.85106 0.0
C2798 C 0.61448 0.40256 0.82727 0.0
C2799 C 0.60887 0.42375 0.84371 0.0
C2800 C 0.59561 0.42504 0.85081 0.0
C2801 C 0.58901 0.43857 0.85286 0.0
C2802 C 0.59623 0.45111 0.84787 0.0
C2803 C 0.61013 0.45027 0.84105 0.0
C2804 C 0.61641 0.43627 0.8388 0.0
H2805 H 0.92465 0.34207 0.12417 0.0
H2806 H 0.95104 0.36861 0.09525 0.0
H2807 H 0.92881 0.37854 0.08365 0.0
H2808 H 0.89767 0.33304 0.09683 0.0
H2809 H 0.88259 0.33342 0.1095 0.0
H2810 H 0.90055 0.32864 0.11577 0.0
H2811 H 0.89904 0.34911 0.13491 0.0
H2812 H 0.88108 0.35394 0.1287 0.0
H2813 H 0.8951 0.3675 0.12906 0.0
H2814 H 0.9035 0.38693 0.07635 0.0
H2815 H 0.87705 0.39114 0.07232 0.0
H2816 H 0.86715 0.3575 0.10412 0.0
C2817 C 0.92567 0.34989 0.11533 0.0
C2818 C 0.9395 0.35458 0.11051 0.0
C2819 C 0.9405 0.36483 0.09896 0.0
C2820 C 0.92794 0.37057 0.09236 0.0
C2821 C 0.91441 0.36576 0.09728 0.0
C2822 C 0.91318 0.35549 0.10835 0.0
C2823 C 0.89733 0.3519 0.11126 0.0
C2824 C 0.89436 0.33579 0.10815 0.0
C2825 C 0.89288 0.35585 0.12691 0.0
C2826 C 0.88989 0.36181 0.10021 0.0
C2827 C 0.89991 0.36988 0.09238 0.0
C2828 C 0.89555 0.38044 0.08219 0.0
C2829 C 0.88056 0.38276 0.07992 0.0
C2830 C 0.87019 0.37429 0.08753 0.0
C2831 C 0.87494 0.36374 0.09779 0.0
H2832 H 0.23889 0.96231 0.45699 0.0
H2833 H 0.25431 1.00449 0.47058 0.0
H2834 H 0.24739 0.015 0.44675 0.0
H2835 H 0.25155 0.96755 0.41802 0.0
H2836 H 0.2365 0.95733 0.41111 0.0
H2837 H 0.24386 0.95297 0.42876 0.0
H2838 H 0.21836 0.95521 0.43852 0.0
H2839 H 0.21023 0.96206 0.42218 0.0
H2840 H 0.20892 0.97259 0.43861 0.0
H2841 H 0.23714 0.02146 0.42143 0.0
H2842 H 0.22599 0.02248 0.39686 0.0
H2843 H 0.21753 0.97633 0.39991 0.0
C2844 C 0.24109 0.97369 0.45486 0.0
C2845 C 0.24724 0.98253 0.4658 0.0
C2846 C 0.24981 0.9974 0.46245 0.0
C2847 C 0.2458 1.00353 0.44892 0.0
C2848 C 0.2394 0.99466 0.43857 0.0
C2849 C 0.23736 0.97996 0.44126 0.0
C2850 C 0.23047 0.97281 0.42815 0.0
C2851 C 0.24124 0.96203 0.42109 0.0
C2852 C 0.21612 0.96528 0.43215 0.0
C2853 C 0.22793 0.98591 0.41825 0.0
C2854 C 0.23347 0.99838 0.42423 0.0
C2855 C 0.23274 0.01171 0.41672 0.0
C2856 C 0.22632 0.01223 0.40278 0.0
C2857 C 0.2204 0.99957 0.39655 0.0
C2858 C 0.22133 0.98631 0.40451 0.0
H2859 H 0.32067 0.98258 0.64665 0.0
H2860 H 0.33713 0.01861 0.62063 0.0
H2861 H 0.34576 0.03041 0.64287 0.0
H2862 H 0.30836 0.00518 0.67772 0.0
H2863 H 0.31339 0.99159 0.69109 0.0
H2864 H 0.30792 0.98616 0.67317 0.0
H2865 H 0.33211 0.97186 0.67007 0.0
H2866 H 0.33768 0.9773 0.68794 0.0
H2867 H 0.34913 0.98113 0.67237 0.0
H2868 H 0.35529 0.03709 0.66783 0.0
H2869 H 0.3622 0.03936 0.69375 0.0
H2870 H 0.33774 1.00049 0.7042 0.0
C2871 C 0.32577 0.99312 0.64565 0.0
C2872 C 0.32803 0.99966 0.63173 0.0
C2873 C 0.33501 0.01338 0.63104 0.0
C2874 C 0.34008 0.02017 0.64367 0.0
C2875 C 0.33793 0.01333 0.65713 0.0
C2876 C 0.33068 1.00024 0.65825 0.0
C2877 C 0.32983 0.99524 0.67411 0.0
C2878 C 0.31393 0.9945 0.67933 0.0
C2879 C 0.33765 0.98051 0.67624 0.0
C2880 C 0.33792 0.00742 0.68164 0.0
C2881 C 0.34265 0.01767 0.67161 0.0
C2882 C 0.35132 0.02931 0.67581 0.0
C2883 C 0.3552 0.03055 0.69057 0.0
C2884 C 0.35017 0.02041 0.70113 0.0
C2885 C 0.34134 0.00874 0.69651 0.0
H2886 H 0.34622 0.09275 0.94674 0.0
H2887 H 0.33467 0.1382 0.94054 0.0
H2888 H 0.33974 0.13606 0.91416 0.0
H2889 H 0.37648 0.09371 0.92197 0.0
H2890 H 0.37406 0.07552 0.91533 0.0
H2891 H 0.36813 0.08008 0.93346 0.0
H2892 H 0.34216 0.07131 0.92764 0.0
H2893 H 0.34802 0.06665 0.9095 0.0
H2894 H 0.33277 0.07885 0.9121 0.0
H2895 H 0.34676 0.12934 0.88868 0.0
H2896 H 0.35599 0.11883 0.86574 0.0
H2897 H 0.36474 0.07789 0.88796 0.0
C2898 C 0.34434 0.10211 0.93972 0.0
C2899 C 0.33956 0.11556 0.94564 0.0
C2900 C 0.33795 0.12774 0.93622 0.0
C2901 C 0.34088 0.12662 0.92122 0.0
C2902 C 0.34574 0.1133 0.91576 0.0
C2903 C 0.34758 0.10127 0.92471 0.0
C2904 C 0.35402 0.08857 0.91616 0.0
C2905 C 0.36907 0.08422 0.92208 0.0
C2906 C 0.34362 0.07558 0.91636 0.0
C2907 C 0.3553 0.09527 0.90096 0.0
C2908 C 0.3504 0.10955 0.90106 0.0
C2909 C 0.35055 0.11816 0.88849 0.0
C2910 C 0.35578 0.11208 0.87549 0.0
C2911 C 0.3609 0.09753 0.87501 0.0
C2912 C 0.36073 0.089 0.88796 0.0
H2913 H 0.24141 0.10754 0.2031 0.0
H2914 H 0.23506 0.06157 0.1957 0.0
H2915 H 0.24509 0.06448 0.17067 0.0
H2916 H 0.2294 0.11857 0.16767 0.0
H2917 H 0.24172 0.13366 0.16612 0.0
H2918 H 0.23553 0.12762 0.18379 0.0
H2919 H 0.26226 0.12426 0.19196 0.0
H2920 H 0.26852 0.13022 0.17426 0.0
H2921 H 0.2744 0.11285 0.1815 0.0
H2922 H 0.2553 0.07267 0.14612 0.0
H2923 H 0.26228 0.08557 0.12346 0.0
H2924 H 0.26048 0.12666 0.14625 0.0
C2925 C 0.24246 0.09802 0.1963 0.0
C2926 C 0.23784 0.08421 0.20147 0.0
C2927 C 0.23876 0.07216 0.19205 0.0
C2928 C 0.24446 0.07374 0.17783 0.0
C2929 C 0.24889 0.08752 0.17304 0.0
C2930 C 0.24773 0.0995 0.18195 0.0
C2931 C 0.25191 0.11333 0.17374 0.0
C2932 C 0.23886 0.12392 0.17277 0.0
C2933 C 0.26506 0.12059 0.18079 0.0
C2934 C 0.25585 0.10726 0.15888 0.0
C2935 C 0.25414 0.09233 0.15875 0.0
C2936 C 0.25672 0.08435 0.14615 0.0
C2937 C 0.26078 0.09179 0.13331 0.0
C2938 C 0.26217 0.10716 0.13299 0.0
C2939 C 0.25986 0.1149 0.14611 0.0
H2940 H 0.38954 0.24086 0.98579 0.0
H2941 H 0.39958 0.2229 0.02837 0.0
H2942 H 0.42542 0.22974 0.02485 0.0
H2943 H 0.42173 0.22697 0.96866 0.0
H2944 H 0.424 0.24226 0.95644 0.0
H2945 H 0.40611 0.23751 0.96294 0.0
H2946 H 0.4025 0.26365 0.97268 0.0
H2947 H 0.42043 0.26842 0.96626 0.0
H2948 H 0.41557 0.27094 0.98512 0.0
H2949 H 0.45025 0.23792 0.01644 0.0
H2950 H 0.47265 0.24416 1.00311 0.0
H2951 H 0.44729 0.25534 0.96487 0.0
C2952 C 0.39713 0.23871 0.99452 0.0
C2953 C 0.39245 0.23171 0.00759 0.0
C2954 C 0.40284 0.22848 0.01845 0.0
C2955 C 0.41754 0.23235 0.01651 0.0
C2956 C 0.42181 0.23916 1.00349 0.0
C2957 C 0.41195 0.24213 0.99258 0.0
C2958 C 0.41965 0.24825 0.9791 0.0
C2959 C 0.41775 0.23814 0.96601 0.0
C2960 C 0.41421 0.26374 0.97559 0.0
C2961 C 0.43538 0.24831 0.98414 0.0
C2962 C 0.43629 0.2432 0.99832 0.0
C2963 C 0.44962 0.24195 0.00535 0.0
C2964 C 0.46234 0.24561 0.99764 0.0
C2965 C 0.46189 0.25034 0.98287 0.0
C2966 C 0.4481 0.25196 0.97616 0.0
H2967 H 0.09222 0.90454 0.37864 0.0
H2968 H 0.10227 0.88025 0.33953 0.0
H2969 H 0.10963 0.90294 0.32708 0.0
H2970 H 0.07793 0.93737 0.36002 0.0
H2971 H 0.08576 0.9496 0.37295 0.0
H2972 H 0.08053 0.93155 0.37863 0.0
H2973 H 0.10664 0.92664 0.38801 0.0
H2974 H 0.11194 0.94465 0.38231 0.0
H2975 H 0.12189 0.92902 0.37577 0.0
H2976 H 0.11827 0.9281 0.31945 0.0
H2977 H 0.12538 0.95394 0.31676 0.0
H2978 H 0.10858 0.96245 0.3601 0.0
C2979 C 0.09563 0.90403 0.36735 0.0
C2980 C 0.09649 0.89047 0.36008 0.0
C2981 C 0.10135 0.89039 0.34538 0.0
C2982 C 0.10563 0.90327 0.33819 0.0
C2983 C 0.10496 0.91635 0.34572 0.0
C2984 C 0.0999 0.91687 0.35993 0.0
C2985 C 0.10058 0.93236 0.36562 0.0
C2986 C 0.08529 0.93805 0.36953 0.0
C2987 C 0.11087 0.93321 0.3787 0.0
C2988 C 0.10682 0.94041 0.35243 0.0
C2989 C 0.10941 0.93094 0.34111 0.0
C2990 C 0.11601 0.93565 0.32815 0.0
C2991 C 0.12002 0.95037 0.3267 0.0
C2992 C 0.11722 0.96038 0.33802 0.0
C2993 C 0.11047 0.95522 0.35103 0.0
H2994 H 0.12949 0.84862 0.49386 0.0
H2995 H 0.14129 0.82768 0.45341 0.0
H2996 H 0.16739 0.83045 0.45926 0.0
H2997 H 0.15657 0.87568 0.49083 0.0
H2998 H 0.16016 0.8767 0.51005 0.0
H2999 H 0.14253 0.87118 0.50389 0.0
H3000 H 0.14474 0.84734 0.51901 0.0
H3001 H 0.16239 0.85281 0.52524 0.0
H3002 H 0.16031 0.83557 0.51636 0.0
H3003 H 0.19214 0.83581 0.4693 0.0
H3004 H 0.21373 0.84617 0.48068 0.0
H3005 H 0.18633 0.86649 0.51354 0.0
C3006 C 0.13761 0.84415 0.48652 0.0
C3007 C 0.13338 0.83728 0.47348 0.0
C3008 C 0.14429 0.83244 0.46369 0.0
C3009 C 0.15913 0.83404 0.46692 0.0
C3010 C 0.16296 0.84089 0.47983 0.0
C3011 C 0.15252 0.84609 0.48939 0.0
C3012 C 0.15958 0.8545 0.50165 0.0
C3013 C 0.1544 0.87046 0.50159 0.0
C3014 C 0.15657 0.84711 0.51644 0.0
C3015 C 0.17561 0.85326 0.49749 0.0
C3016 C 0.17726 0.84507 0.48503 0.0
C3017 C 0.19094 0.84225 0.47904 0.0
C3018 C 0.20321 0.84817 0.4857 0.0
C3019 C 0.2019 0.85716 0.49813 0.0
C3020 C 0.18781 0.85959 0.50415 0.0
H3021 H 0.49294 0.87839 0.7446 0.0
H3022 H 0.5098 0.8868 0.70118 0.0
H3023 H 0.50929 0.91328 0.70601 0.0
H3024 H 0.46746 0.90786 0.74401 0.0
H3025 H 0.46916 0.91215 0.76302 0.0
H3026 H 0.47256 0.89387 0.75694 0.0
H3027 H 0.49815 0.89434 0.76847 0.0
H3028 H 0.49482 0.91266 0.77457 0.0
H3029 H 0.51056 0.90864 0.76344 0.0
H3030 H 0.50727 0.93881 0.71568 0.0
H3031 H 0.50041 0.96173 0.7276 0.0
H3032 H 0.48159 0.93747 0.76378 0.0
C3033 C 0.49687 0.88582 0.73626 0.0
C3034 C 0.50191 0.88049 0.72265 0.0
C3035 C 0.50627 0.89059 0.71177 0.0
C3036 C 0.506 0.90565 0.71444 0.0
C3037 C 0.50096 0.91056 0.72794 0.0
C3038 C 0.49622 0.90096 0.73859 0.0
C3039 C 0.48996 0.90921 0.75158 0.0
C3040 C 0.47382 0.90555 0.75402 0.0
C3041 C 0.49891 0.90602 0.76533 0.0
C3042 C 0.49183 0.92493 0.74654 0.0
C3043 C 0.49858 0.92538 0.73303 0.0
C3044 C 0.50194 0.93855 0.72622 0.0
C3045 C 0.49808 0.95157 0.73319 0.0
C3046 C 0.49055 0.95152 0.74674 0.0
C3047 C 0.48741 0.93793 0.7535 0.0
H3048 H 0.1061 0.1389 0.27719 0.0
H3049 H 0.09452 0.11374 0.2394 0.0
H3050 H 0.08674 0.13615 0.22666 0.0
H3051 H 0.07446 0.16443 0.27336 0.0
H3052 H 0.08436 0.17993 0.27969 0.0
H3053 H 0.08903 0.16191 0.28617 0.0
H3054 H 0.11564 0.16562 0.27759 0.0
H3055 H 0.11107 0.18362 0.27107 0.0
H3056 H 0.11928 0.17061 0.25889 0.0
H3057 H 0.08093 0.16115 0.21739 0.0
H3058 H 0.07693 0.18721 0.21234 0.0
H3059 H 0.09093 0.19733 0.25608 0.0
C3060 C 0.10174 0.13814 0.26632 0.0
C3061 C 0.10071 0.12442 0.25941 0.0
C3062 C 0.09509 0.12399 0.2451 0.0
C3063 C 0.09072 0.13671 0.23769 0.0
C3064 C 0.09168 0.15 0.24476 0.0
C3065 C 0.09685 0.15086 0.25882 0.0
C3066 C 0.09629 0.16665 0.26386 0.0
C3067 C 0.0854 0.16833 0.27653 0.0
C3068 C 0.11148 0.17193 0.2681 0.0
C3069 C 0.09073 0.17452 0.25022 0.0
C3070 C 0.088 0.16458 0.23944 0.0
C3071 C 0.08291 0.16901 0.22582 0.0
C3072 C 0.08061 0.18393 0.22307 0.0
C3073 C 0.08342 0.19452 0.2338 0.0
C3074 C 0.08848 0.18962 0.24764 0.0
H3075 H 0.47278 0.14006 0.85798 0.0
H3076 H 0.50133 0.13503 0.82066 0.0
H3077 H 0.51275 0.1588 0.8261 0.0
H3078 H 0.46718 0.17864 0.85557 0.0
H3079 H 0.46763 0.18137 0.87494 0.0
H3080 H 0.46167 0.16426 0.86786 0.0
H3081 H 0.48107 0.15068 0.88318 0.0
H3082 H 0.48721 0.16771 0.89034 0.0
H3083 H 0.49992 0.15569 0.88138 0.0
H3084 H 0.52046 0.18418 0.83567 0.0
H3085 H 0.52414 0.20741 0.84867 0.0
H3086 H 0.49132 0.19471 0.88029 0.0
C3087 C 0.48135 0.14406 0.85088 0.0
C3088 C 0.48599 0.13586 0.83871 0.0
C3089 C 0.49748 0.14123 0.8299 0.0
C3090 C 0.50405 0.15471 0.83296 0.0
C3091 C 0.49924 0.16256 0.8451 0.0
C3092 C 0.48821 0.1573 0.85398 0.0
C3093 C 0.48525 0.16749 0.8666 0.0
C3094 C 0.4695 0.17328 0.86621 0.0
C3095 C 0.48856 0.15994 0.88124 0.0
C3096 C 0.49611 0.17948 0.86333 0.0
C3097 C 0.5041 0.17651 0.8509 0.0
C3098 C 0.51438 0.18642 0.84554 0.0
C3099 C 0.51646 0.19961 0.85303 0.0
C3100 C 0.50847 0.20279 0.86589 0.0
C3101 C 0.49818 0.19246 0.87098 0.0
H3102 H 0.21128 0.21469 0.09704 0.0
H3103 H 0.22304 0.25341 0.07245 0.0
H3104 H 0.19884 0.26426 0.0781 0.0
H3105 H 0.17274 0.21409 0.08824 0.0
H3106 H 0.16741 0.2083 0.1063 0.0
H3107 H 0.18503 0.20325 0.09916 0.0
H3108 H 0.1972 0.21469 0.12154 0.0
H3109 H 0.17964 0.21995 0.12867 0.0
H3110 H 0.19349 0.23347 0.12582 0.0
H3111 H 0.17275 0.27065 0.0864 0.0
H3112 H 0.14809 0.27245 0.09746 0.0
H3113 H 0.15475 0.23066 0.11877 0.0
C3114 C 0.20866 0.22532 0.09253 0.0
C3115 C 0.21897 0.23306 0.08394 0.0
C3116 C 0.21526 0.24717 0.07879 0.0
C3117 C 0.20154 0.25343 0.08201 0.0
C3118 C 0.19174 0.24559 0.0907 0.0
C3119 C 0.19521 0.23187 0.09597 0.0
C3120 C 0.18318 0.22603 0.10581 0.0
C3121 C 0.17671 0.2121 0.09949 0.0
C3122 C 0.18872 0.22338 0.12138 0.0
C3123 C 0.17235 0.23859 0.10525 0.0
C3124 C 0.17736 0.2497 0.09632 0.0
C3125 C 0.16885 0.26208 0.09355 0.0
C3126 C 0.15487 0.26306 0.09992 0.0
C3127 C 0.14961 0.2519 0.10927 0.0
C3128 C 0.1586 0.23959 0.11203 0.0
H3129 H 0.38508 0.87117 0.615 0.0
H3130 H 0.38046 0.84454 0.57667 0.0
H3131 H 0.40456 0.83325 0.58155 0.0
H3132 H 0.42396 0.87743 0.61187 0.0
H3133 H 0.42672 0.87631 0.63126 0.0
H3134 H 0.40951 0.88256 0.62423 0.0
H3135 H 0.39644 0.86264 0.63943 0.0
H3136 H 0.41366 0.85618 0.6463 0.0
H3137 H 0.40168 0.84384 0.63722 0.0
H3138 H 0.42935 0.82461 0.59104 0.0
H3139 H 0.4528 0.82029 0.60343 0.0
H3140 H 0.44081 0.85229 0.63583 0.0
C3141 C 0.38927 0.86327 0.60736 0.0
C3142 C 0.38094 0.85902 0.59521 0.0
C3143 C 0.38667 0.84815 0.58591 0.0
C3144 C 0.40034 0.84162 0.58865 0.0
C3145 C 0.40813 0.84593 0.60086 0.0
C3146 C 0.4028 0.85656 0.61003 0.0
C3147 C 0.4131 0.85902 0.62262 0.0
C3148 C 0.41865 0.87476 0.62248 0.0
C3149 C 0.40578 0.85519 0.63726 0.0
C3150 C 0.42519 0.84825 0.61903 0.0
C3151 C 0.4221 0.84074 0.60648 0.0
C3152 C 0.43181 0.83041 0.6009 0.0
C3153 C 0.44511 0.82795 0.60809 0.0
C3154 C 0.44868 0.83574 0.62081 0.0
C3155 C 0.43839 0.84587 0.62638 0.0
H3156 H 0.73445 0.49072 0.95027 0.0
H3157 H 0.77552 0.46876 0.942 0.0
H3158 H 0.77309 0.47426 0.91564 0.0
H3159 H 0.71655 0.47643 0.91926 0.0
H3160 H 0.70588 0.49256 0.91554 0.0
H3161 H 0.71163 0.48853 0.93385 0.0
H3162 H 0.72381 0.51377 0.93523 0.0
H3163 H 0.7181 0.51787 0.91689 0.0
H3164 H 0.73705 0.51893 0.92159 0.0
H3165 H 0.76634 0.48268 0.89007 0.0
H3166 H 0.75435 0.4896 0.86705 0.0
H3167 H 0.71583 0.50307 0.89105 0.0
C3168 C 0.7431 0.48739 0.94292 0.0
C3169 C 0.75547 0.47972 0.94829 0.0
C3170 C 0.76617 0.47494 0.93823 0.0
C3171 C 0.76485 0.47802 0.92322 0.0
C3172 C 0.75253 0.48558 0.91827 0.0
C3173 C 0.74169 0.48997 0.9278 0.0
C3174 C 0.72894 0.4967 0.91948 0.0
C3175 C 0.71492 0.48804 0.92219 0.0
C3176 C 0.72685 0.51277 0.92354 0.0
C3177 C 0.73421 0.49529 0.90378 0.0
C3178 C 0.74805 0.48924 0.90341 0.0
C3179 C 0.7555 0.48735 0.89028 0.0
C3180 C 0.74862 0.49146 0.87722 0.0
C3181 C 0.73419 0.49704 0.87714 0.0
C3182 C 0.7269 0.49895 0.8907 0.0
H3183 H 0.85894 0.51506 0.20111 0.0
H3184 H 0.88778 0.47793 0.20762 0.0
H3185 H 0.87911 0.46716 0.18504 0.0
H3186 H 0.8291 0.49616 0.18478 0.0
H3187 H 0.82522 0.50981 0.17109 0.0
H3188 H 0.83328 0.51497 0.18808 0.0
H3189 H 0.85469 0.52698 0.17416 0.0
H3190 H 0.84661 0.52201 0.15713 0.0
H3191 H 0.86501 0.51647 0.16117 0.0
H3192 H 0.86614 0.45905 0.1632 0.0
H3193 H 0.85323 0.4561 0.14021 0.0
H3194 H 0.83434 0.49936 0.14465 0.0
C3195 C 0.8635 0.50475 0.19766 0.0
C3196 C 0.87416 0.49742 0.20623 0.0
C3197 C 0.87983 0.48394 0.20125 0.0
C3198 C 0.87484 0.4776 0.18846 0.0
C3199 C 0.8643 0.48493 0.18036 0.0
C3200 C 0.85895 0.49839 0.18445 0.0
C3201 C 0.8483 0.50413 0.17299 0.0
C3202 C 0.83307 0.50641 0.17964 0.0
C3203 C 0.85399 0.51824 0.16594 0.0
C3204 C 0.84837 0.49166 0.16209 0.0
C3205 C 0.8575 0.48063 0.16686 0.0
C3206 C 0.8591 0.4677 0.15924 0.0
C3207 C 0.85156 0.4661 0.14617 0.0
C3208 C 0.84266 0.47745 0.14044 0.0
C3209 C 0.84099 0.49043 0.14866 0.0
H3210 H 0.85424 0.57755 0.39307 0.0
H3211 H 0.83172 0.61081 0.36777 0.0
H3212 H 0.82116 0.62085 0.39021 0.0
H3213 H 0.82416 0.57286 0.42043 0.0
H3214 H 0.83662 0.56987 0.43523 0.0
H3215 H 0.84165 0.56449 0.41704 0.0
H3216 H 0.86494 0.58004 0.41847 0.0
H3217 H 0.85999 0.58548 0.43662 0.0
H3218 H 0.86336 0.5991 0.42276 0.0
H3219 H 0.81502 0.62909 0.41558 0.0
H3220 H 0.81288 0.63396 0.44191 0.0
H3221 H 0.83801 0.59483 0.45121 0.0
C3222 C 0.8468 0.58671 0.39223 0.0
C3223 C 0.84376 0.59324 0.37851 0.0
C3224 C 0.83413 0.6054 0.37801 0.0
C3225 C 0.82808 0.61128 0.39076 0.0
C3226 C 0.83146 0.60477 0.40408 0.0
C3227 C 0.84041 0.59262 0.40492 0.0
C3228 C 0.84248 0.58796 0.42072 0.0
C3229 C 0.83583 0.5729 0.42352 0.0
C3230 C 0.85865 0.58817 0.42488 0.0
C3231 C 0.83383 0.59974 0.42859 0.0
C3232 C 0.82748 0.60927 0.41876 0.0
C3233 C 0.81969 0.62151 0.42338 0.0
C3234 C 0.81849 0.62419 0.4384 0.0
C3235 C 0.82497 0.61465 0.44874 0.0
C3236 C 0.83255 0.60214 0.44367 0.0
H3237 H 0.74131 0.5907 0.6291 0.0
H3238 H 0.77783 0.61882 0.63763 0.0
H3239 H 0.7766 0.61198 0.6637 0.0
H3240 H 0.72139 0.59989 0.6609 0.0
H3241 H 0.71415 0.58198 0.66416 0.0
H3242 H 0.71884 0.58768 0.64592 0.0
H3243 H 0.73581 0.56523 0.64327 0.0
H3244 H 0.73116 0.55945 0.66152 0.0
H3245 H 0.74995 0.56204 0.65645 0.0
H3246 H 0.77075 0.60313 0.68906 0.0
H3247 H 0.76003 0.59413 0.71202 0.0
H3248 H 0.72631 0.57237 0.68787 0.0
C3249 C 0.74933 0.59508 0.63638 0.0
C3250 C 0.75995 0.60506 0.63116 0.0
C3251 C 0.7698 0.61098 0.64124 0.0
C3252 C 0.76916 0.60716 0.65611 0.0
C3253 C 0.75848 0.59748 0.66091 0.0
C3254 C 0.74868 0.59155 0.65138 0.0
C3255 C 0.73758 0.58227 0.65962 0.0
C3256 C 0.72207 0.58832 0.65753 0.0
C3257 C 0.73869 0.5663 0.65493 0.0
C3258 C 0.74259 0.58404 0.67528 0.0
C3259 C 0.75478 0.59273 0.67569 0.0
C3260 C 0.76127 0.59625 0.68883 0.0
C3261 C 0.75508 0.591 0.70188 0.0
C3262 C 0.74235 0.58236 0.70192 0.0
C3263 C 0.73616 0.57872 0.68831 0.0
loop_
_geom_bond_atom_site_label_1
_geom_bond_atom_site_label_2
_geom_bond_distance
_geom_bond_site_symmetry_2
_ccdc_geom_bond_type
O0 Cd1 2.223 1_655 S
O0 C8 1.315 . S
Cd1 O0 2.223 1_455 S
Cd1 O4 2.297 1_455 S
Cd1 O5 2.439 1_455 S
Cd1 O11 2.240 . S
Cd2 O3 2.240 . S
Cd2 O10 2.223 1_655 S
Cd2 O12 2.297 1_655 S
Cd2 O13 2.439 1_655 S
O3 Cd2 2.240 . S
O3 C8 1.279 . S
O4 Cd1 2.297 1_655 S
O4 C6 1.247 . S
O5 Cd1 2.439 1_655 S
O5 C6 1.208 . S
C6 O4 1.247 . S
C6 O5 1.208 . S
C7 O12 1.247 . S
C7 O13 1.208 . S
C8 O0 1.315 . S
C8 O3 1.279 . S
C9 O10 1.315 . S
C9 O11 1.279 . S
O10 Cd2 2.223 1_455 S
O10 C9 1.315 . S
O11 Cd1 2.240 . S
O11 C9 1.279 . S
O12 Cd2 2.297 1_455 S
O12 C7 1.247 . S
O13 Cd2 2.439 1_455 S
O13 C7 1.208 . S
O14 Cd15 2.223 . S
O14 C22 1.315 . S
Cd15 O14 2.223 . S
Cd15 O18 2.297 . S
Cd15 O19 2.439 . S
Cd15 O25 2.240 1_655 S
Cd16 O17 2.246 1_455 S
Cd16 O24 2.223 . S
Cd16 O26 2.297 . S
Cd16 O27 2.439 . S
O17 Cd16 2.246 1_655 S
O17 C22 1.278 . S
O18 Cd15 2.297 . S
O18 C20 1.247 . S
O19 Cd15 2.439 . S
O19 C20 1.208 . S
C20 O18 1.247 . S
C20 O19 1.208 . S
C21 O26 1.247 . S
C21 O27 1.208 . S
C22 O14 1.315 . S
C22 O17 1.278 . S
C23 O24 1.315 . S
C23 O25 1.279 . S
O24 Cd16 2.223 . S
O24 C23 1.315 . S
O25 Cd15 2.240 1_455 S
O25 C23 1.279 . S
O26 Cd16 2.297 . S
O26 C21 1.247 . S
O27 Cd16 2.439 . S
O27 C21 1.208 . S
O28 Cd29 2.223 . S
O28 C36 1.315 . S
Cd29 O28 2.223 . S
Cd29 O32 2.297 . S
Cd29 O33 2.439 . S
Cd29 O39 2.240 . S
Cd30 O31 2.240 . S
Cd30 O38 2.223 . S
Cd30 O40 2.297 . S
Cd30 O41 2.439 . S
O31 Cd30 2.240 . S
O31 C36 1.279 . S
O32 Cd29 2.297 . S
O32 C34 1.247 . S
O33 Cd29 2.439 . S
O33 C34 1.208 . S
C34 O32 1.247 . S
C34 O33 1.208 . S
C35 O40 1.247 . S
C35 O41 1.208 . S
C36 O28 1.315 . S
C36 O31 1.279 . S
C37 O38 1.315 . S
C37 O39 1.279 . S
O38 Cd30 2.223 . S
O38 C37 1.315 . S
O39 Cd29 2.240 . S
O39 C37 1.279 . S
O40 Cd30 2.297 . S
O40 C35 1.247 . S
O41 Cd30 2.439 . S
O41 C35 1.208 . S
O42 Cd43 2.223 . S
O42 C50 1.315 . S
Cd43 O42 2.223 . S
Cd43 O46 2.297 . S
Cd43 O47 2.439 . S
Cd43 O53 2.240 . S
Cd44 O45 2.240 . S
Cd44 O52 2.223 . S
Cd44 O54 2.297 . S
Cd44 O55 2.439 . S
O45 Cd44 2.240 . S
O45 C50 1.279 . S
O46 Cd43 2.297 . S
O46 C48 1.247 . S
O47 Cd43 2.439 . S
O47 C48 1.208 . S
C48 O46 1.247 . S
C48 O47 1.208 . S
C49 O54 1.253 1_554 S
C49 O55 1.209 1_554 S
C50 O42 1.315 . S
C50 O45 1.279 . S
C51 O52 1.315 . S
C51 O53 1.279 . S
O52 Cd44 2.223 . S
O52 C51 1.315 . S
O53 Cd43 2.240 . S
O53 C51 1.279 . S
O54 Cd44 2.297 . S
O54 C49 1.253 1_556 S
O55 Cd44 2.439 . S
O55 C49 1.209 1_556 S
O56 Cd57 2.223 1_655 S
O56 C64 1.315 . S
Cd57 O56 2.223 1_455 S
Cd57 O60 2.297 1_455 S
Cd57 O61 2.439 1_455 S
Cd57 O67 2.240 . S
Cd58 O59 2.240 . S
Cd58 O66 2.223 1_655 S
Cd58 O68 2.297 1_655 S
Cd58 O69 2.439 1_655 S
O59 Cd58 2.240 . S
O59 C64 1.279 . S
O60 Cd57 2.297 1_655 S
O60 C62 1.247 . S
O61 Cd57 2.439 1_655 S
O61 C62 1.208 . S
C62 O60 1.247 . S
C62 O61 1.208 . S
C63 O68 1.247 . S
C63 O69 1.208 . S
C64 O56 1.315 . S
C64 O59 1.279 . S
C65 O66 1.315 . S
C65 O67 1.279 . S
O66 Cd58 2.223 1_455 S
O66 C65 1.315 . S
O67 Cd57 2.240 . S
O67 C65 1.279 . S
O68 Cd58 2.297 1_455 S
O68 C63 1.247 . S
O69 Cd58 2.439 1_455 S
O69 C63 1.208 . S
O70 Cd71 2.223 . S
O70 C78 1.315 . S
Cd71 O70 2.223 . S
Cd71 O74 2.297 . S
Cd71 O75 2.439 . S
Cd71 O81 2.240 . S
Cd72 O73 2.240 . S
Cd72 O80 2.223 . S
Cd72 O82 2.297 . S
Cd72 O83 2.439 . S
O73 Cd72 2.240 . S
O73 C78 1.279 . S
O74 Cd71 2.297 . S
O74 C76 1.247 . S
O75 Cd71 2.439 . S
O75 C76 1.208 . S
C76 O74 1.247 . S
C76 O75 1.208 . S
C77 O82 1.247 . S
C77 O83 1.208 . S
C78 O70 1.315 . S
C78 O73 1.279 . S
C79 O80 1.315 . S
C79 O81 1.279 . S
O80 Cd72 2.223 . S
O80 C79 1.315 . S
O81 Cd71 2.240 . S
O81 C79 1.279 . S
O82 Cd72 2.297 . S
O82 C77 1.247 . S
O83 Cd72 2.439 . S
O83 C77 1.208 . S
O84 Cd85 2.223 . S
O84 C92 1.315 . S
Cd85 O84 2.223 . S
Cd85 O88 2.297 . S
Cd85 O89 2.439 . S
Cd85 O95 2.240 . S
Cd86 O87 2.240 . S
Cd86 O94 2.223 . S
Cd86 O96 2.297 . S
Cd86 O97 2.439 . S
O87 Cd86 2.240 . S
O87 C92 1.279 . S
O88 Cd85 2.297 . S
O88 C90 1.247 . S
O89 Cd85 2.439 . S
O89 C90 1.208 . S
C90 O88 1.247 . S
C90 O89 1.208 . S
C91 O96 1.247 . S
C91 O97 1.208 . S
C92 O84 1.315 . S
C92 O87 1.279 . S
C93 O94 1.315 . S
C93 O95 1.279 . S
O94 Cd86 2.223 . S
O94 C93 1.315 . S
O95 Cd85 2.240 . S
O95 C93 1.279 . S
O96 Cd86 2.297 . S
O96 C91 1.247 . S
O97 Cd86 2.439 . S
O97 C91 1.208 . S
O98 Cd99 2.223 . S
O98 C106 1.315 . S
Cd99 O98 2.223 . S
Cd99 O102 2.297 . S
Cd99 O103 2.439 . S
Cd99 O109 2.240 1_655 S
Cd100 O101 2.248 . S
Cd100 O108 2.223 . S
Cd100 O110 2.297 . S
Cd100 O111 2.439 . S
O101 Cd100 2.248 . S
O101 C106 1.277 1_455 S
O102 Cd99 2.297 . S
O102 C104 1.247 . S
O103 Cd99 2.439 . S
O103 C104 1.208 . S
C104 O102 1.247 . S
C104 O103 1.208 . S
C105 O110 1.247 . S
C105 O111 1.208 . S
C106 O98 1.315 . S
C106 O101 1.277 1_655 S
C107 O108 1.315 . S
C107 O109 1.279 . S
O108 Cd100 2.223 . S
O108 C107 1.315 . S
O109 Cd99 2.240 1_455 S
O109 C107 1.279 . S
O110 Cd100 2.297 . S
O110 C105 1.247 . S
O111 Cd100 2.439 . S
O111 C105 1.208 . S
O112 Cd113 2.223 1_565 S
O112 C120 1.315 . S
Cd113 O112 2.223 1_545 S
Cd113 O116 2.297 1_545 S
Cd113 O117 2.439 1_545 S
Cd113 O123 2.240 . S
Cd114 O115 2.240 . S
Cd114 O122 2.223 1_565 S
Cd114 O124 2.297 1_565 S
Cd114 O125 2.439 1_565 S
O115 Cd114 2.240 . S
O115 C120 1.279 . S
O116 Cd113 2.297 1_565 S
O116 C118 1.247 . S
O117 Cd113 2.439 1_565 S
O117 C118 1.208 . S
C118 O116 1.247 . S
C118 O117 1.208 . S
C119 O124 1.247 . S
C119 O125 1.208 . S
C120 O112 1.315 . S
C120 O115 1.279 . S
C121 O122 1.315 . S
C121 O123 1.279 . S
O122 Cd114 2.223 1_545 S
O122 C121 1.315 . S
O123 Cd113 2.240 . S
O123 C121 1.279 . S
O124 Cd114 2.297 1_545 S
O124 C119 1.247 . S
O125 Cd114 2.439 1_545 S
O125 C119 1.208 . S
O126 Cd127 2.223 . S
O126 C134 1.315 . S
Cd127 O126 2.223 . S
Cd127 O130 2.297 . S
Cd127 O131 2.439 . S
Cd127 O137 2.240 . S
Cd128 O129 2.240 . S
Cd128 O136 2.223 . S
Cd128 O138 2.297 . S
Cd128 O139 2.439 . S
O129 Cd128 2.240 . S
O129 C134 1.279 . S
O130 Cd127 2.297 . S
O130 C132 1.247 . S
O131 Cd127 2.439 . S
O131 C132 1.208 . S
C132 O130 1.247 . S
C132 O131 1.208 . S
C133 O138 1.253 1_545 S
C133 O139 1.209 1_545 S
C134 O126 1.315 . S
C134 O129 1.279 . S
C135 O136 1.315 . S
C135 O137 1.279 . S
O136 Cd128 2.223 . S
O136 C135 1.315 . S
O137 Cd127 2.240 . S
O137 C135 1.279 . S
O138 Cd128 2.297 . S
O138 C133 1.253 1_565 S
O139 Cd128 2.439 . S
O139 C133 1.209 1_565 S
O140 Cd141 2.223 . S
O140 C148 1.315 . S
Cd141 O140 2.223 . S
Cd141 O144 2.297 . S
Cd141 O145 2.439 . S
Cd141 O151 2.240 . S
Cd142 O143 2.240 . S
Cd142 O150 2.223 . S
Cd142 O152 2.297 . S
Cd142 O153 2.439 . S
O143 Cd142 2.240 . S
O143 C148 1.279 . S
O144 Cd141 2.297 . S
O144 C146 1.247 . S
O145 Cd141 2.439 . S
O145 C146 1.208 . S
C146 O144 1.247 . S
C146 O145 1.208 . S
C147 O152 1.247 . S
C147 O153 1.208 . S
C148 O140 1.315 . S
C148 O143 1.279 . S
C149 O150 1.315 . S
C149 O151 1.279 . S
O150 Cd142 2.223 . S
O150 C149 1.315 . S
O151 Cd141 2.240 . S
O151 C149 1.279 . S
O152 Cd142 2.297 . S
O152 C147 1.247 . S
O153 Cd142 2.439 . S
O153 C147 1.208 . S
O154 Cd155 2.223 . S
O154 C162 1.315 . S
Cd155 O154 2.223 . S
Cd155 O158 2.297 . S
Cd155 O159 2.439 . S
Cd155 O165 2.240 . S
Cd156 O157 2.240 . S
Cd156 O164 2.223 . S
Cd156 O166 2.297 . S
Cd156 O167 2.439 . S
O157 Cd156 2.240 . S
O157 C162 1.279 . S
O158 Cd155 2.297 . S
O158 C160 1.247 . S
O159 Cd155 2.439 . S
O159 C160 1.208 . S
C160 O158 1.247 . S
C160 O159 1.208 . S
C161 O166 1.247 . S
C161 O167 1.208 . S
C162 O154 1.315 . S
C162 O157 1.279 . S
C163 O164 1.315 . S
C163 O165 1.279 . S
O164 Cd156 2.223 . S
O164 C163 1.315 . S
O165 Cd155 2.240 . S
O165 C163 1.279 . S
O166 Cd156 2.297 . S
O166 C161 1.247 . S
O167 Cd156 2.439 . S
O167 C161 1.208 . S
O168 Cd169 2.223 . S
O168 C176 1.315 . S
Cd169 O168 2.223 . S
Cd169 O172 2.297 . S
Cd169 O173 2.439 . S
Cd169 O179 2.240 . S
Cd170 O171 2.240 . S
Cd170 O178 2.223 . S
Cd170 O180 2.297 . S
Cd170 O181 2.439 . S
O171 Cd170 2.240 . S
O171 C176 1.279 . S
O172 Cd169 2.297 . S
O172 C174 1.247 . S
O173 Cd169 2.439 . S
O173 C174 1.208 . S
C174 O172 1.247 . S
C174 O173 1.208 . S
C175 O180 1.247 . S
C175 O181 1.208 . S
C176 O168 1.315 . S
C176 O171 1.279 . S
C177 O178 1.315 . S
C177 O179 1.279 . S
O178 Cd170 2.223 . S
O178 C177 1.315 . S
O179 Cd169 2.240 . S
O179 C177 1.279 . S
O180 Cd170 2.297 . S
O180 C175 1.247 . S
O181 Cd170 2.439 . S
O181 C175 1.208 . S
O182 Cd183 2.223 . S
O182 C190 1.315 . S
Cd183 O182 2.223 . S
Cd183 O186 2.297 . S
Cd183 O187 2.439 . S
Cd183 O193 2.240 . S
Cd184 O185 2.240 . S
Cd184 O192 2.223 . S
Cd184 O194 2.297 . S
Cd184 O195 2.478 . S
O185 Cd184 2.240 . S
O185 C190 1.279 . S
O186 Cd183 2.297 . S
O186 C188 1.247 . S
O187 Cd183 2.439 . S
O187 C188 1.208 . S
C188 O186 1.247 . S
C188 O187 1.208 . S
C189 O194 1.247 1_545 S
C189 O195 1.202 1_545 S
C190 O182 1.315 . S
C190 O185 1.279 . S
C191 O192 1.315 . S
C191 O193 1.279 . S
O192 Cd184 2.223 . S
O192 C191 1.315 . S
O193 Cd183 2.240 . S
O193 C191 1.279 . S
O194 Cd184 2.297 . S
O194 C189 1.247 1_565 S
O195 Cd184 2.478 . S
O195 C189 1.202 1_565 S
O196 Cd197 2.223 1_565 S
O196 C204 1.315 . S
Cd197 O196 2.223 1_545 S
Cd197 O200 2.297 1_545 S
Cd197 O201 2.439 1_545 S
Cd197 O207 2.240 . S
Cd198 O199 2.240 . S
Cd198 O206 2.223 1_565 S
Cd198 O208 2.297 1_565 S
Cd198 O209 2.439 1_565 S
O199 Cd198 2.240 . S
O199 C204 1.279 . S
O200 Cd197 2.297 1_565 S
O200 C202 1.247 . S
O201 Cd197 2.439 1_565 S
O201 C202 1.208 . S
C202 O200 1.247 . S
C202 O201 1.208 . S
C203 O208 1.247 . S
C203 O209 1.208 . S
C204 O196 1.315 . S
C204 O199 1.279 . S
C205 O206 1.315 . S
C205 O207 1.279 . S
O206 Cd198 2.223 1_545 S
O206 C205 1.315 . S
O207 Cd197 2.240 . S
O207 C205 1.279 . S
O208 Cd198 2.297 1_545 S
O208 C203 1.247 . S
O209 Cd198 2.439 1_545 S
O209 C203 1.208 . S
O210 Cd211 2.223 . S
O210 C218 1.315 . S
Cd211 O210 2.223 . S
Cd211 O214 2.297 . S
Cd211 O215 2.439 . S
Cd211 O221 2.240 1_556 S
Cd212 O213 2.248 . S
Cd212 O220 2.223 . S
Cd212 O222 2.297 . S
Cd212 O223 2.439 . S
O213 Cd212 2.248 . S
O213 C218 1.277 1_554 S
O214 Cd211 2.297 . S
O214 C216 1.247 . S
O215 Cd211 2.439 . S
O215 C216 1.208 . S
C216 O214 1.247 . S
C216 O215 1.208 . S
C217 O222 1.247 . S
C217 O223 1.208 . S
C218 O210 1.315 . S
C218 O213 1.277 1_556 S
C219 O220 1.315 . S
C219 O221 1.279 . S
O220 Cd212 2.223 . S
O220 C219 1.315 . S
O221 Cd211 2.240 1_554 S
O221 C219 1.279 . S
O222 Cd212 2.297 . S
O222 C217 1.247 . S
O223 Cd212 2.439 . S
O223 C217 1.208 . S
O224 Cd225 2.223 1_556 S
O224 C232 1.315 . S
Cd225 O224 2.223 1_554 S
Cd225 O228 2.297 1_554 S
Cd225 O229 2.439 1_554 S
Cd225 O235 2.240 . S
Cd226 O227 2.240 . S
Cd226 O234 2.223 1_556 S
Cd226 O236 2.297 1_556 S
Cd226 O237 2.439 1_556 S
O227 Cd226 2.240 . S
O227 C232 1.279 . S
O228 Cd225 2.297 1_556 S
O228 C230 1.247 . S
O229 Cd225 2.439 1_556 S
O229 C230 1.208 . S
C230 O228 1.247 . S
C230 O229 1.208 . S
C231 O236 1.247 . S
C231 O237 1.208 . S
C232 O224 1.315 . S
C232 O227 1.279 . S
C233 O234 1.315 . S
C233 O235 1.279 . S
O234 Cd226 2.223 1_554 S
O234 C233 1.315 . S
O235 Cd225 2.240 . S
O235 C233 1.279 . S
O236 Cd226 2.297 1_554 S
O236 C231 1.247 . S
O237 Cd226 2.439 1_554 S
O237 C231 1.208 . S
O238 Cd239 2.223 . S
O238 C246 1.315 . S
Cd239 O238 2.223 . S
Cd239 O242 2.297 . S
Cd239 O243 2.439 . S
Cd239 O249 2.240 . S
Cd240 O241 2.240 . S
Cd240 O248 2.223 . S
Cd240 O250 2.297 . S
Cd240 O251 2.439 . S
O241 Cd240 2.240 . S
O241 C246 1.279 . S
O242 Cd239 2.297 . S
O242 C244 1.247 . S
O243 Cd239 2.439 . S
O243 C244 1.208 . S
C244 O242 1.247 . S
C244 O243 1.208 . S
C245 O250 1.247 . S
C245 O251 1.208 . S
C246 O238 1.315 . S
C246 O241 1.279 . S
C247 O248 1.315 . S
C247 O249 1.279 . S
O248 Cd240 2.223 . S
O248 C247 1.315 . S
O249 Cd239 2.240 . S
O249 C247 1.279 . S
O250 Cd240 2.297 . S
O250 C245 1.247 . S
O251 Cd240 2.439 . S
O251 C245 1.208 . S
O252 Cd253 2.223 . S
O252 C260 1.315 . S
Cd253 O252 2.223 . S
Cd253 O256 2.297 . S
Cd253 O257 2.439 . S
Cd253 O263 2.240 . S
Cd254 O255 2.240 . S
Cd254 O262 2.223 . S
Cd254 O264 2.297 . S
Cd254 O265 2.439 . S
O255 Cd254 2.240 . S
O255 C260 1.279 . S
O256 Cd253 2.297 . S
O256 C258 1.247 . S
O257 Cd253 2.439 . S
O257 C258 1.208 . S
C258 O256 1.247 . S
C258 O257 1.208 . S
C259 O264 1.253 1_455 S
C259 O265 1.209 1_455 S
C260 O252 1.315 . S
C260 O255 1.279 . S
C261 O262 1.315 . S
C261 O263 1.279 . S
O262 Cd254 2.223 . S
O262 C261 1.315 . S
O263 Cd253 2.240 . S
O263 C261 1.279 . S
O264 Cd254 2.297 . S
O264 C259 1.253 1_655 S
O265 Cd254 2.439 . S
O265 C259 1.209 1_655 S
O266 Cd267 2.223 . S
O266 C274 1.315 . S
Cd267 O266 2.223 . S
Cd267 O270 2.297 . S
Cd267 O271 2.439 . S
Cd267 O277 2.240 . S
Cd268 O269 2.240 . S
Cd268 O276 2.223 . S
Cd268 O278 2.297 . S
Cd268 O279 2.439 . S
O269 Cd268 2.240 . S
O269 C274 1.279 . S
O270 Cd267 2.297 . S
O270 C272 1.247 . S
O271 Cd267 2.439 . S
O271 C272 1.208 . S
C272 O270 1.247 . S
C272 O271 1.208 . S
C273 O278 1.247 . S
C273 O279 1.208 . S
C274 O266 1.315 . S
C274 O269 1.279 . S
C275 O276 1.315 . S
C275 O277 1.279 . S
O276 Cd268 2.223 . S
O276 C275 1.315 . S
O277 Cd267 2.240 . S
O277 C275 1.279 . S
O278 Cd268 2.297 . S
O278 C273 1.247 . S
O279 Cd268 2.439 . S
O279 C273 1.208 . S
O280 Cd281 2.223 . S
O280 C288 1.315 . S
Cd281 O280 2.223 . S
Cd281 O284 2.297 . S
Cd281 O285 2.439 . S
Cd281 O291 2.240 1_565 S
Cd282 O283 2.248 . S
Cd282 O290 2.223 . S
Cd282 O292 2.297 . S
Cd282 O293 2.439 . S
O283 Cd282 2.248 . S
O283 C288 1.277 1_545 S
O284 Cd281 2.297 . S
O284 C286 1.247 . S
O285 Cd281 2.439 . S
O285 C286 1.208 . S
C286 O284 1.247 . S
C286 O285 1.208 . S
C287 O292 1.247 . S
C287 O293 1.208 . S
C288 O280 1.315 . S
C288 O283 1.277 1_565 S
C289 O290 1.315 . S
C289 O291 1.279 . S
O290 Cd282 2.223 . S
O290 C289 1.315 . S
O291 Cd281 2.240 1_545 S
O291 C289 1.279 . S
O292 Cd282 2.297 . S
O292 C287 1.247 . S
O293 Cd282 2.439 . S
O293 C287 1.208 . S
O294 Cd295 2.223 . S
O294 C302 1.315 . S
Cd295 O294 2.223 . S
Cd295 O298 2.297 . S
Cd295 O299 2.439 . S
Cd295 O305 2.240 . S
Cd296 O297 2.240 . S
Cd296 O304 2.223 . S
Cd296 O306 2.297 . S
Cd296 O307 2.439 . S
O297 Cd296 2.240 . S
O297 C302 1.279 . S
O298 Cd295 2.297 . S
O298 C300 1.247 . S
O299 Cd295 2.439 . S
O299 C300 1.208 . S
C300 O298 1.247 . S
C300 O299 1.208 . S
C301 O306 1.247 . S
C301 O307 1.208 . S
C302 O294 1.315 . S
C302 O297 1.279 . S
C303 O304 1.315 . S
C303 O305 1.279 . S
O304 Cd296 2.223 . S
O304 C303 1.315 . S
O305 Cd295 2.240 . S
O305 C303 1.279 . S
O306 Cd296 2.297 . S
O306 C301 1.247 . S
O307 Cd296 2.439 . S
O307 C301 1.208 . S
O308 Cd309 2.223 . S
O308 C316 1.315 . S
Cd309 O308 2.223 . S
Cd309 O312 2.297 . S
Cd309 O313 2.439 . S
Cd309 O319 2.240 . S
Cd310 O311 2.240 . S
Cd310 O318 2.223 . S
Cd310 O320 2.297 . S
Cd310 O321 2.478 . S
O311 Cd310 2.240 . S
O311 C316 1.279 . S
O312 Cd309 2.297 . S
O312 C314 1.247 . S
O313 Cd309 2.439 . S
O313 C314 1.208 . S
C314 O312 1.247 . S
C314 O313 1.208 . S
C315 O320 1.247 1_455 S
C315 O321 1.202 1_455 S
C316 O308 1.315 . S
C316 O311 1.279 . S
C317 O318 1.315 . S
C317 O319 1.279 . S
O318 Cd310 2.223 . S
O318 C317 1.315 . S
O319 Cd309 2.240 . S
O319 C317 1.279 . S
O320 Cd310 2.297 . S
O320 C315 1.247 1_655 S
O321 Cd310 2.478 . S
O321 C315 1.202 1_655 S
O322 Cd323 2.223 . S
O322 C330 1.315 . S
Cd323 O322 2.223 . S
Cd323 O326 2.297 . S
Cd323 O327 2.439 . S
Cd323 O333 2.240 . S
Cd324 O325 2.240 . S
Cd324 O332 2.223 . S
Cd324 O334 2.297 . S
Cd324 O335 2.439 . S
O325 Cd324 2.240 . S
O325 C330 1.279 . S
O326 Cd323 2.297 . S
O326 C328 1.247 . S
O327 Cd323 2.439 . S
O327 C328 1.208 . S
C328 O326 1.247 . S
C328 O327 1.208 . S
C329 O334 1.247 . S
C329 O335 1.208 . S
C330 O322 1.315 . S
C330 O325 1.279 . S
C331 O332 1.315 . S
C331 O333 1.279 . S
O332 Cd324 2.223 . S
O332 C331 1.315 . S
O333 Cd323 2.240 . S
O333 C331 1.279 . S
O334 Cd324 2.297 . S
O334 C329 1.247 . S
O335 Cd324 2.439 . S
O335 C329 1.208 . S
O336 Cd337 2.223 . S
O336 C344 1.315 . S
Cd337 O336 2.223 . S
Cd337 O340 2.297 . S
Cd337 O341 2.439 . S
Cd337 O347 2.240 . S
Cd338 O339 2.240 . S
Cd338 O346 2.223 . S
Cd338 O348 2.297 . S
Cd338 O349 2.439 . S
O339 Cd338 2.240 . S
O339 C344 1.279 . S
O340 Cd337 2.297 . S
O340 C342 1.247 . S
O341 Cd337 2.439 . S
O341 C342 1.208 . S
C342 O340 1.247 . S
C342 O341 1.208 . S
C343 O348 1.247 . S
C343 O349 1.208 . S
C344 O336 1.315 . S
C344 O339 1.279 . S
C345 O346 1.315 . S
C345 O347 1.279 . S
O346 Cd338 2.223 . S
O346 C345 1.315 . S
O347 Cd337 2.240 . S
O347 C345 1.279 . S
O348 Cd338 2.297 . S
O348 C343 1.247 . S
O349 Cd338 2.439 . S
O349 C343 1.208 . S
O350 Cd351 2.223 . S
O350 C358 1.315 . S
Cd351 O350 2.223 . S
Cd351 O354 2.297 . S
Cd351 O355 2.439 . S
Cd351 O361 2.240 . S
Cd352 O353 2.240 . S
Cd352 O360 2.223 . S
Cd352 O362 2.297 . S
Cd352 O363 2.478 . S
O353 Cd352 2.240 . S
O353 C358 1.279 . S
O354 Cd351 2.297 . S
O354 C356 1.247 . S
O355 Cd351 2.439 . S
O355 C356 1.208 . S
C356 O354 1.247 . S
C356 O355 1.208 . S
C357 O362 1.247 1_554 S
C357 O363 1.202 1_554 S
C358 O350 1.315 . S
C358 O353 1.279 . S
C359 O360 1.315 . S
C359 O361 1.279 . S
O360 Cd352 2.223 . S
O360 C359 1.315 . S
O361 Cd351 2.240 . S
O361 C359 1.279 . S
O362 Cd352 2.297 . S
O362 C357 1.247 1_556 S
O363 Cd352 2.478 . S
O363 C357 1.202 1_556 S
O364 Cd365 2.223 . S
O364 C372 1.315 . S
Cd365 O364 2.223 . S
Cd365 O368 2.297 . S
Cd365 O369 2.439 . S
Cd365 O375 2.240 . S
Cd366 O367 2.240 . S
Cd366 O374 2.223 . S
Cd366 O376 2.297 . S
Cd366 O377 2.439 . S
O367 Cd366 2.240 . S
O367 C372 1.279 . S
O368 Cd365 2.297 . S
O368 C370 1.247 . S
O369 Cd365 2.439 . S
O369 C370 1.208 . S
C370 O368 1.247 . S
C370 O369 1.208 . S
C371 O376 1.247 . S
C371 O377 1.208 . S
C372 O364 1.315 . S
C372 O367 1.279 . S
C373 O374 1.315 . S
C373 O375 1.279 . S
O374 Cd366 2.223 . S
O374 C373 1.315 . S
O375 Cd365 2.240 . S
O375 C373 1.279 . S
O376 Cd366 2.297 . S
O376 C371 1.247 . S
O377 Cd366 2.439 . S
O377 C371 1.208 . S
O378 Cd379 2.223 . S
O378 C386 1.315 . S
Cd379 O378 2.223 . S
Cd379 O382 2.297 . S
Cd379 O383 2.439 . S
Cd379 O389 2.240 . S
Cd380 O381 2.240 . S
Cd380 O388 2.223 . S
Cd380 O390 2.297 . S
Cd380 O391 2.439 . S
O381 Cd380 2.240 . S
O381 C386 1.279 . S
O382 Cd379 2.297 . S
O382 C384 1.247 . S
O383 Cd379 2.439 . S
O383 C384 1.208 . S
C384 O382 1.247 . S
C384 O383 1.208 . S
C385 O390 1.247 . S
C385 O391 1.208 . S
C386 O378 1.315 . S
C386 O381 1.279 . S
C387 O388 1.315 . S
C387 O389 1.279 . S
O388 Cd380 2.223 . S
O388 C387 1.315 . S
O389 Cd379 2.240 . S
O389 C387 1.279 . S
O390 Cd380 2.297 . S
O390 C385 1.247 . S
O391 Cd380 2.439 . S
O391 C385 1.208 . S
O392 Cd393 2.223 . S
O392 C400 1.315 . S
Cd393 O392 2.223 . S
Cd393 O396 2.297 . S
Cd393 O397 2.439 . S
Cd393 O403 2.240 . S
Cd394 O395 2.240 . S
Cd394 O402 2.223 . S
Cd394 O404 2.297 . S
Cd394 O405 2.439 . S
O395 Cd394 2.240 . S
O395 C400 1.279 . S
O396 Cd393 2.297 . S
O396 C398 1.247 . S
O397 Cd393 2.439 . S
O397 C398 1.208 . S
C398 O396 1.247 . S
C398 O397 1.208 . S
C399 O404 1.247 . S
C399 O405 1.208 . S
C400 O392 1.315 . S
C400 O395 1.279 . S
C401 O402 1.315 . S
C401 O403 1.279 . S
O402 Cd394 2.223 . S
O402 C401 1.315 . S
O403 Cd393 2.240 . S
O403 C401 1.279 . S
O404 Cd394 2.297 . S
O404 C399 1.247 . S
O405 Cd394 2.439 . S
O405 C399 1.208 . S
O406 Cd407 2.223 . S
O406 C414 1.315 . S
Cd407 O406 2.223 . S
Cd407 O410 2.297 . S
Cd407 O411 2.439 . S
Cd407 O417 2.240 . S
Cd408 O409 2.240 . S
Cd408 O416 2.223 . S
Cd408 O418 2.297 . S
Cd408 O419 2.439 . S
O409 Cd408 2.240 . S
O409 C414 1.279 . S
O410 Cd407 2.297 . S
O410 C412 1.247 . S
O411 Cd407 2.439 . S
O411 C412 1.208 . S
C412 O410 1.247 . S
C412 O411 1.208 . S
C413 O418 1.247 . S
C413 O419 1.208 . S
C414 O406 1.315 . S
C414 O409 1.279 . S
C415 O416 1.315 . S
C415 O417 1.279 . S
O416 Cd408 2.223 . S
O416 C415 1.315 . S
O417 Cd407 2.240 . S
O417 C415 1.279 . S
O418 Cd408 2.297 . S
O418 C413 1.247 . S
O419 Cd408 2.439 . S
O419 C413 1.208 . S
O420 Cd421 2.223 . S
O420 C428 1.315 . S
Cd421 O420 2.223 . S
Cd421 O424 2.297 . S
Cd421 O425 2.439 . S
Cd421 O431 2.240 . S
Cd422 O423 2.240 . S
Cd422 O430 2.223 . S
Cd422 O432 2.297 . S
Cd422 O433 2.439 . S
O423 Cd422 2.240 . S
O423 C428 1.279 . S
O424 Cd421 2.297 . S
O424 C426 1.247 . S
O425 Cd421 2.439 . S
O425 C426 1.208 . S
C426 O424 1.247 . S
C426 O425 1.208 . S
C427 O432 1.247 . S
C427 O433 1.208 . S
C428 O420 1.315 . S
C428 O423 1.279 . S
C429 O430 1.315 . S
C429 O431 1.279 . S
O430 Cd422 2.223 . S
O430 C429 1.315 . S
O431 Cd421 2.240 . S
O431 C429 1.279 . S
O432 Cd422 2.297 . S
O432 C427 1.247 . S
O433 Cd422 2.439 . S
O433 C427 1.208 . S
O434 Cd435 2.223 . S
O434 C442 1.315 . S
Cd435 O434 2.223 . S
Cd435 O438 2.297 . S
Cd435 O439 2.439 . S
Cd435 O445 2.240 . S
Cd436 O437 2.240 . S
Cd436 O444 2.223 . S
Cd436 O446 2.297 . S
Cd436 O447 2.439 . S
O437 Cd436 2.240 . S
O437 C442 1.279 . S
O438 Cd435 2.297 . S
O438 C440 1.247 . S
O439 Cd435 2.439 . S
O439 C440 1.208 . S
C440 O438 1.247 . S
C440 O439 1.208 . S
C441 O446 1.247 . S
C441 O447 1.208 . S
C442 O434 1.315 . S
C442 O437 1.279 . S
C443 O444 1.315 . S
C443 O445 1.279 . S
O444 Cd436 2.223 . S
O444 C443 1.315 . S
O445 Cd435 2.240 . S
O445 C443 1.279 . S
O446 Cd436 2.297 . S
O446 C441 1.247 . S
O447 Cd436 2.439 . S
O447 C441 1.208 . S
O448 Cd449 2.223 . S
O448 C456 1.315 . S
Cd449 O448 2.223 . S
Cd449 O452 2.297 . S
Cd449 O453 2.439 . S
Cd449 O459 2.240 . S
Cd450 O451 2.240 . S
Cd450 O458 2.223 . S
Cd450 O460 2.297 . S
Cd450 O461 2.439 . S
O451 Cd450 2.240 . S
O451 C456 1.279 . S
O452 Cd449 2.297 . S
O452 C454 1.247 . S
O453 Cd449 2.439 . S
O453 C454 1.208 . S
C454 O452 1.247 . S
C454 O453 1.208 . S
C455 O460 1.247 . S
C455 O461 1.208 . S
C456 O448 1.315 . S
C456 O451 1.279 . S
C457 O458 1.315 . S
C457 O459 1.279 . S
O458 Cd450 2.223 . S
O458 C457 1.315 . S
O459 Cd449 2.240 . S
O459 C457 1.279 . S
O460 Cd450 2.297 . S
O460 C455 1.247 . S
O461 Cd450 2.439 . S
O461 C455 1.208 . S
O462 Cd463 2.223 . S
O462 C470 1.315 . S
Cd463 O462 2.223 . S
Cd463 O466 2.297 . S
Cd463 O467 2.439 . S
Cd463 O473 2.240 . S
Cd464 O465 2.240 . S
Cd464 O472 2.223 . S
Cd464 O474 2.297 . S
Cd464 O475 2.439 . S
O465 Cd464 2.240 . S
O465 C470 1.279 . S
O466 Cd463 2.297 . S
O466 C468 1.247 . S
O467 Cd463 2.439 . S
O467 C468 1.208 . S
C468 O466 1.247 . S
C468 O467 1.208 . S
C469 O474 1.247 . S
C469 O475 1.208 . S
C470 O462 1.315 . S
C470 O465 1.279 . S
C471 O472 1.315 . S
C471 O473 1.279 . S
O472 Cd464 2.223 . S
O472 C471 1.315 . S
O473 Cd463 2.240 . S
O473 C471 1.279 . S
O474 Cd464 2.297 . S
O474 C469 1.247 . S
O475 Cd464 2.439 . S
O475 C469 1.208 . S
O476 Cd477 2.223 . S
O476 C484 1.315 . S
Cd477 O476 2.223 . S
Cd477 O480 2.297 . S
Cd477 O481 2.439 . S
Cd477 O487 2.240 . S
Cd478 O479 2.240 . S
Cd478 O486 2.223 . S
Cd478 O488 2.297 . S
Cd478 O489 2.439 . S
O479 Cd478 2.240 . S
O479 C484 1.279 . S
O480 Cd477 2.297 . S
O480 C482 1.247 . S
O481 Cd477 2.439 . S
O481 C482 1.208 . S
C482 O480 1.247 . S
C482 O481 1.208 . S
C483 O488 1.247 . S
C483 O489 1.208 . S
C484 O476 1.315 . S
C484 O479 1.279 . S
C485 O486 1.315 . S
C485 O487 1.279 . S
O486 Cd478 2.223 . S
O486 C485 1.315 . S
O487 Cd477 2.240 . S
O487 C485 1.279 . S
O488 Cd478 2.297 . S
O488 C483 1.247 . S
O489 Cd478 2.439 . S
O489 C483 1.208 . S
O490 Cd491 2.223 . S
O490 C498 1.315 . S
Cd491 O490 2.223 . S
Cd491 O494 2.297 . S
Cd491 O495 2.439 . S
Cd491 O501 2.240 . S
Cd492 O493 2.240 . S
Cd492 O500 2.223 . S
Cd492 O502 2.297 . S
Cd492 O503 2.439 . S
O493 Cd492 2.240 . S
O493 C498 1.279 . S
O494 Cd491 2.297 . S
O494 C496 1.247 . S
O495 Cd491 2.439 . S
O495 C496 1.208 . S
C496 O494 1.247 . S
C496 O495 1.208 . S
C497 O502 1.247 . S
C497 O503 1.208 . S
C498 O490 1.315 . S
C498 O493 1.279 . S
C499 O500 1.315 . S
C499 O501 1.279 . S
O500 Cd492 2.223 . S
O500 C499 1.315 . S
O501 Cd491 2.240 . S
O501 C499 1.279 . S
O502 Cd492 2.297 . S
O502 C497 1.247 . S
O503 Cd492 2.439 . S
O503 C497 1.208 . S
O504 Cd505 2.223 . S
O504 C512 1.315 . S
Cd505 O504 2.223 . S
Cd505 O508 2.297 . S
Cd505 O509 2.439 . S
Cd505 O515 2.240 . S
Cd506 O507 2.240 . S
Cd506 O514 2.223 . S
Cd506 O516 2.297 . S
Cd506 O517 2.439 . S
O507 Cd506 2.240 . S
O507 C512 1.279 . S
O508 Cd505 2.297 . S
O508 C510 1.247 . S
O509 Cd505 2.439 . S
O509 C510 1.208 . S
C510 O508 1.247 . S
C510 O509 1.208 . S
C511 O516 1.247 . S
C511 O517 1.208 . S
C512 O504 1.315 . S
C512 O507 1.279 . S
C513 O514 1.315 . S
C513 O515 1.279 . S
O514 Cd506 2.223 . S
O514 C513 1.315 . S
O515 Cd505 2.240 . S
O515 C513 1.279 . S
O516 Cd506 2.297 . S
O516 C511 1.247 . S
O517 Cd506 2.439 . S
O517 C511 1.208 . S
O518 Cd519 2.223 . S
O518 C526 1.315 . S
Cd519 O518 2.223 . S
Cd519 O522 2.297 . S
Cd519 O523 2.439 . S
Cd519 O529 2.240 1_556 S
Cd520 O521 2.246 1_554 S
Cd520 O528 2.223 . S
Cd520 O530 2.297 . S
Cd520 O531 2.439 . S
O521 Cd520 2.246 1_556 S
O521 C526 1.278 . S
O522 Cd519 2.297 . S
O522 C524 1.247 . S
O523 Cd519 2.439 . S
O523 C524 1.208 . S
C524 O522 1.247 . S
C524 O523 1.208 . S
C525 O530 1.247 . S
C525 O531 1.208 . S
C526 O518 1.315 . S
C526 O521 1.278 . S
C527 O528 1.315 . S
C527 O529 1.279 . S
O528 Cd520 2.223 . S
O528 C527 1.315 . S
O529 Cd519 2.240 1_554 S
O529 C527 1.279 . S
O530 Cd520 2.297 . S
O530 C525 1.247 . S
O531 Cd520 2.439 . S
O531 C525 1.208 . S
O532 Cd533 2.223 . S
O532 C540 1.315 . S
Cd533 O532 2.223 . S
Cd533 O536 2.297 . S
Cd533 O537 2.439 . S
Cd533 O543 2.240 . S
Cd534 O535 2.240 . S
Cd534 O542 2.223 . S
Cd534 O544 2.297 . S
Cd534 O545 2.439 . S
O535 Cd534 2.240 . S
O535 C540 1.279 . S
O536 Cd533 2.297 . S
O536 C538 1.247 . S
O537 Cd533 2.439 . S
O537 C538 1.208 . S
C538 O536 1.247 . S
C538 O537 1.208 . S
C539 O544 1.247 . S
C539 O545 1.208 . S
C540 O532 1.315 . S
C540 O535 1.279 . S
C541 O542 1.315 . S
C541 O543 1.279 . S
O542 Cd534 2.223 . S
O542 C541 1.315 . S
O543 Cd533 2.240 . S
O543 C541 1.279 . S
O544 Cd534 2.297 . S
O544 C539 1.247 . S
O545 Cd534 2.439 . S
O545 C539 1.208 . S
O546 Cd547 2.223 . S
O546 C554 1.315 . S
Cd547 O546 2.223 . S
Cd547 O550 2.297 . S
Cd547 O551 2.439 . S
Cd547 O557 2.240 . S
Cd548 O549 2.240 . S
Cd548 O556 2.223 . S
Cd548 O558 2.297 . S
Cd548 O559 2.439 . S
O549 Cd548 2.240 . S
O549 C554 1.279 . S
O550 Cd547 2.297 . S
O550 C552 1.247 . S
O551 Cd547 2.439 . S
O551 C552 1.208 . S
C552 O550 1.247 . S
C552 O551 1.208 . S
C553 O558 1.247 . S
C553 O559 1.208 . S
C554 O546 1.315 . S
C554 O549 1.279 . S
C555 O556 1.315 . S
C555 O557 1.279 . S
O556 Cd548 2.223 . S
O556 C555 1.315 . S
O557 Cd547 2.240 . S
O557 C555 1.279 . S
O558 Cd548 2.297 . S
O558 C553 1.247 . S
O559 Cd548 2.439 . S
O559 C553 1.208 . S
O560 Cd561 2.223 . S
O560 C568 1.315 . S
Cd561 O560 2.223 . S
Cd561 O564 2.297 . S
Cd561 O565 2.439 . S
Cd561 O571 2.240 . S
Cd562 O563 2.240 . S
Cd562 O570 2.223 . S
Cd562 O572 2.297 . S
Cd562 O573 2.439 . S
O563 Cd562 2.240 . S
O563 C568 1.279 . S
O564 Cd561 2.297 . S
O564 C566 1.247 . S
O565 Cd561 2.439 . S
O565 C566 1.208 . S
C566 O564 1.247 . S
C566 O565 1.208 . S
C567 O572 1.247 . S
C567 O573 1.208 . S
C568 O560 1.315 . S
C568 O563 1.279 . S
C569 O570 1.315 . S
C569 O571 1.279 . S
O570 Cd562 2.223 . S
O570 C569 1.315 . S
O571 Cd561 2.240 . S
O571 C569 1.279 . S
O572 Cd562 2.297 . S
O572 C567 1.247 . S
O573 Cd562 2.439 . S
O573 C567 1.208 . S
O574 Cd575 2.223 . S
O574 C582 1.315 . S
Cd575 O574 2.223 . S
Cd575 O578 2.297 . S
Cd575 O579 2.439 . S
Cd575 O585 2.240 . S
Cd576 O577 2.240 . S
Cd576 O584 2.223 . S
Cd576 O586 2.297 . S
Cd576 O587 2.439 . S
O577 Cd576 2.240 . S
O577 C582 1.279 . S
O578 Cd575 2.297 . S
O578 C580 1.247 . S
O579 Cd575 2.439 . S
O579 C580 1.208 . S
C580 O578 1.247 . S
C580 O579 1.208 . S
C581 O586 1.247 . S
C581 O587 1.208 . S
C582 O574 1.315 . S
C582 O577 1.279 . S
C583 O584 1.315 . S
C583 O585 1.279 . S
O584 Cd576 2.223 . S
O584 C583 1.315 . S
O585 Cd575 2.240 . S
O585 C583 1.279 . S
O586 Cd576 2.297 . S
O586 C581 1.247 . S
O587 Cd576 2.439 . S
O587 C581 1.208 . S
O588 Cd589 2.223 . S
O588 C596 1.315 . S
Cd589 O588 2.223 . S
Cd589 O592 2.297 . S
Cd589 O593 2.439 . S
Cd589 O599 2.240 . S
Cd590 O591 2.240 . S
Cd590 O598 2.223 . S
Cd590 O600 2.297 . S
Cd590 O601 2.439 . S
O591 Cd590 2.240 . S
O591 C596 1.279 . S
O592 Cd589 2.297 . S
O592 C594 1.247 . S
O593 Cd589 2.439 . S
O593 C594 1.208 . S
C594 O592 1.247 . S
C594 O593 1.208 . S
C595 O600 1.247 . S
C595 O601 1.208 . S
C596 O588 1.315 . S
C596 O591 1.279 . S
C597 O598 1.315 . S
C597 O599 1.279 . S
O598 Cd590 2.223 . S
O598 C597 1.315 . S
O599 Cd589 2.240 . S
O599 C597 1.279 . S
O600 Cd590 2.297 . S
O600 C595 1.247 . S
O601 Cd590 2.439 . S
O601 C595 1.208 . S
O602 Cd603 2.223 . S
O602 C610 1.315 . S
Cd603 O602 2.223 . S
Cd603 O606 2.297 . S
Cd603 O607 2.439 . S
Cd603 O613 2.240 . S
Cd604 O605 2.240 . S
Cd604 O612 2.223 . S
Cd604 O614 2.297 . S
Cd604 O615 2.439 . S
O605 Cd604 2.240 . S
O605 C610 1.279 . S
O606 Cd603 2.297 . S
O606 C608 1.247 . S
O607 Cd603 2.439 . S
O607 C608 1.208 . S
C608 O606 1.247 . S
C608 O607 1.208 . S
C609 O614 1.247 . S
C609 O615 1.208 . S
C610 O602 1.315 . S
C610 O605 1.279 . S
C611 O612 1.315 . S
C611 O613 1.279 . S
O612 Cd604 2.223 . S
O612 C611 1.315 . S
O613 Cd603 2.240 . S
O613 C611 1.279 . S
O614 Cd604 2.297 . S
O614 C609 1.247 . S
O615 Cd604 2.439 . S
O615 C609 1.208 . S
O616 Cd617 2.223 . S
O616 C624 1.315 . S
Cd617 O616 2.223 . S
Cd617 O620 2.297 . S
Cd617 O621 2.439 . S
Cd617 O627 2.240 . S
Cd618 O619 2.240 . S
Cd618 O626 2.223 . S
Cd618 O628 2.297 . S
Cd618 O629 2.439 . S
O619 Cd618 2.240 . S
O619 C624 1.279 . S
O620 Cd617 2.297 . S
O620 C622 1.247 . S
O621 Cd617 2.439 . S
O621 C622 1.208 . S
C622 O620 1.247 . S
C622 O621 1.208 . S
C623 O628 1.247 . S
C623 O629 1.208 . S
C624 O616 1.315 . S
C624 O619 1.279 . S
C625 O626 1.315 . S
C625 O627 1.279 . S
O626 Cd618 2.223 . S
O626 C625 1.315 . S
O627 Cd617 2.240 . S
O627 C625 1.279 . S
O628 Cd618 2.297 . S
O628 C623 1.247 . S
O629 Cd618 2.439 . S
O629 C623 1.208 . S
O630 Cd631 2.223 1_556 S
O630 C638 1.315 . S
Cd631 O630 2.223 1_554 S
Cd631 O634 2.297 1_554 S
Cd631 O635 2.439 1_554 S
Cd631 O641 2.240 . S
Cd632 O633 2.240 . S
Cd632 O640 2.223 1_556 S
Cd632 O642 2.297 1_556 S
Cd632 O643 2.439 1_556 S
O633 Cd632 2.240 . S
O633 C638 1.279 . S
O634 Cd631 2.297 1_556 S
O634 C636 1.247 . S
O635 Cd631 2.439 1_556 S
O635 C636 1.208 . S
C636 O634 1.247 . S
C636 O635 1.208 . S
C637 O642 1.247 . S
C637 O643 1.208 . S
C638 O630 1.315 . S
C638 O633 1.279 . S
C639 O640 1.315 . S
C639 O641 1.279 . S
O640 Cd632 2.223 1_554 S
O640 C639 1.315 . S
O641 Cd631 2.240 . S
O641 C639 1.279 . S
O642 Cd632 2.297 1_554 S
O642 C637 1.247 . S
O643 Cd632 2.439 1_554 S
O643 C637 1.208 . S
O644 Cd645 2.223 . S
O644 C652 1.315 . S
Cd645 O644 2.223 . S
Cd645 O648 2.297 . S
Cd645 O649 2.439 . S
Cd645 O655 2.240 1_565 S
Cd646 O647 2.246 1_545 S
Cd646 O654 2.223 . S
Cd646 O656 2.297 . S
Cd646 O657 2.439 . S
O647 Cd646 2.246 1_565 S
O647 C652 1.278 . S
O648 Cd645 2.297 . S
O648 C650 1.247 . S
O649 Cd645 2.439 . S
O649 C650 1.208 . S
C650 O648 1.247 . S
C650 O649 1.208 . S
C651 O656 1.247 . S
C651 O657 1.208 . S
C652 O644 1.315 . S
C652 O647 1.278 . S
C653 O654 1.315 . S
C653 O655 1.279 . S
O654 Cd646 2.223 . S
O654 C653 1.315 . S
O655 Cd645 2.240 1_545 S
O655 C653 1.279 . S
O656 Cd646 2.297 . S
O656 C651 1.247 . S
O657 Cd646 2.439 . S
O657 C651 1.208 . S
O658 Cd659 2.223 . S
O658 C666 1.315 . S
Cd659 O658 2.223 . S
Cd659 O662 2.297 . S
Cd659 O663 2.439 . S
Cd659 O669 2.240 . S
Cd660 O661 2.240 . S
Cd660 O668 2.223 . S
Cd660 O670 2.297 . S
Cd660 O671 2.439 . S
O661 Cd660 2.240 . S
O661 C666 1.279 . S
O662 Cd659 2.297 . S
O662 C664 1.247 . S
O663 Cd659 2.439 . S
O663 C664 1.208 . S
C664 O662 1.247 . S
C664 O663 1.208 . S
C665 O670 1.247 . S
C665 O671 1.208 . S
C666 O658 1.315 . S
C666 O661 1.279 . S
C667 O668 1.315 . S
C667 O669 1.279 . S
O668 Cd660 2.223 . S
O668 C667 1.315 . S
O669 Cd659 2.240 . S
O669 C667 1.279 . S
O670 Cd660 2.297 . S
O670 C665 1.247 . S
O671 Cd660 2.439 . S
O671 C665 1.208 . S
H672 C684 0.930 . S
H673 C686 0.930 . S
H674 C687 0.930 . S
H675 C691 0.959 . S
H676 C691 0.959 . S
H677 C691 0.961 . S
H678 C692 0.960 . S
H679 C692 0.961 . S
H680 C692 0.959 . S
H681 C695 0.929 . S
H682 C696 0.931 . S
H683 C698 0.930 . S
C684 H672 0.930 . S
C684 C685 1.399 . S
C684 C689 1.399 . S
C685 C684 1.399 . S
C685 C686 1.376 . S
C686 H673 0.930 . S
C686 C685 1.376 . S
C686 C687 1.388 . S
C687 H674 0.930 . S
C687 C686 1.388 . S
C687 C688 1.390 . S
C688 C687 1.390 . S
C688 C689 1.394 . S
C688 C694 1.465 . S
C689 C684 1.399 . S
C689 C688 1.394 . S
C689 C690 1.516 . S
C690 C689 1.516 . S
C690 C691 1.502 . S
C690 C692 1.561 . S
C690 C693 1.526 . S
C691 H675 0.959 . S
C691 H676 0.959 . S
C691 H677 0.961 . S
C691 C690 1.502 . S
C692 H678 0.960 . S
C692 H679 0.961 . S
C692 H680 0.959 . S
C692 C690 1.561 . S
C693 C690 1.526 . S
C693 C694 1.396 . S
C693 C698 1.390 . S
C694 C688 1.465 . S
C694 C693 1.396 . S
C694 C695 1.399 . S
C695 H681 0.929 . S
C695 C694 1.399 . S
C695 C696 1.385 . S
C696 H682 0.931 . S
C696 C695 1.385 . S
C696 C697 1.389 . S
C697 C696 1.389 . S
C697 C698 1.387 . S
C698 H683 0.930 . S
C698 C693 1.390 . S
C698 C697 1.387 . S
H699 C711 0.930 . S
H700 C713 0.930 . S
H701 C714 0.930 . S
H702 C718 0.959 . S
H703 C718 0.959 . S
H704 C718 0.961 . S
H705 C719 0.960 . S
H706 C719 0.961 . S
H707 C719 0.959 . S
H708 C722 0.929 . S
H709 C723 0.931 . S
H710 C725 0.930 . S
C711 H699 0.930 . S
C711 C712 1.399 . S
C711 C716 1.399 . S
C712 C711 1.399 . S
C712 C713 1.376 . S
C713 H700 0.930 . S
C713 C712 1.376 . S
C713 C714 1.388 . S
C714 H701 0.930 . S
C714 C713 1.388 . S
C714 C715 1.390 . S
C715 C714 1.390 . S
C715 C716 1.394 . S
C715 C721 1.465 . S
C716 C711 1.399 . S
C716 C715 1.394 . S
C716 C717 1.516 . S
C717 C716 1.516 . S
C717 C718 1.502 . S
C717 C719 1.561 . S
C717 C720 1.526 . S
C718 H702 0.959 . S
C718 H703 0.959 . S
C718 H704 0.961 . S
C718 C717 1.502 . S
C719 H705 0.960 . S
C719 H706 0.961 . S
C719 H707 0.959 . S
C719 C717 1.561 . S
C720 C717 1.526 . S
C720 C721 1.396 . S
C720 C725 1.390 . S
C721 C715 1.465 . S
C721 C720 1.396 . S
C721 C722 1.399 . S
C722 H708 0.929 . S
C722 C721 1.399 . S
C722 C723 1.385 . S
C723 H709 0.931 . S
C723 C722 1.385 . S
C723 C724 1.389 . S
C724 C723 1.389 . S
C724 C725 1.387 . S
C725 H710 0.930 . S
C725 C720 1.390 . S
C725 C724 1.387 . S
H726 C738 0.930 . S
H727 C740 0.930 . S
H728 C741 0.930 . S
H729 C745 0.959 . S
H730 C745 0.959 . S
H731 C745 0.961 . S
H732 C746 0.960 . S
H733 C746 0.961 . S
H734 C746 0.959 . S
H735 C749 0.929 . S
H736 C750 0.931 . S
H737 C752 0.930 . S
C738 H726 0.930 . S
C738 C739 1.399 . S
C738 C743 1.399 . S
C739 C738 1.399 . S
C739 C740 1.376 . S
C740 H727 0.930 . S
C740 C739 1.376 . S
C740 C741 1.388 . S
C741 H728 0.930 . S
C741 C740 1.388 . S
C741 C742 1.390 . S
C742 C741 1.390 . S
C742 C743 1.394 . S
C742 C748 1.465 . S
C743 C738 1.399 . S
C743 C742 1.394 . S
C743 C744 1.516 . S
C744 C743 1.516 . S
C744 C745 1.502 . S
C744 C746 1.561 . S
C744 C747 1.526 . S
C745 H729 0.959 . S
C745 H730 0.959 . S
C745 H731 0.961 . S
C745 C744 1.502 . S
C746 H732 0.960 . S
C746 H733 0.961 . S
C746 H734 0.959 . S
C746 C744 1.561 . S
C747 C744 1.526 . S
C747 C748 1.396 . S
C747 C752 1.390 . S
C748 C742 1.465 . S
C748 C747 1.396 . S
C748 C749 1.399 . S
C749 H735 0.929 . S
C749 C748 1.399 . S
C749 C750 1.385 . S
C750 H736 0.931 . S
C750 C749 1.385 . S
C750 C751 1.389 . S
C751 C750 1.389 . S
C751 C752 1.387 . S
C752 H737 0.930 . S
C752 C747 1.390 . S
C752 C751 1.387 . S
H753 C765 0.930 . S
H754 C767 0.930 . S
H755 C768 0.930 . S
H756 C772 0.959 . S
H757 C772 0.959 . S
H758 C772 0.961 . S
H759 C773 0.960 . S
H760 C773 0.961 . S
H761 C773 0.959 . S
H762 C776 0.929 . S
H763 C777 0.931 . S
H764 C779 0.930 . S
C765 H753 0.930 . S
C765 C766 1.399 1_556 S
C765 C770 1.390 1_556 S
C766 C765 1.399 1_554 S
C766 C767 1.376 . S
C767 H754 0.930 . S
C767 C766 1.376 . S
C767 C768 1.388 . S
C768 H755 0.930 . S
C768 C767 1.388 . S
C768 C769 1.390 . S
C769 C768 1.390 . S
C769 C770 1.450 . S
C769 C775 1.465 . S
C770 C765 1.390 1_554 S
C770 C769 1.450 . S
C770 C771 1.478 1_554 S
C771 C770 1.478 1_556 S
C771 C772 1.502 . S
C771 C773 1.561 . S
C771 C774 1.500 1_556 S
C772 H756 0.959 . S
C772 H757 0.959 . S
C772 H758 0.961 . S
C772 C771 1.502 . S
C773 H759 0.960 . S
C773 H760 0.961 . S
C773 H761 0.959 . S
C773 C771 1.561 . S
C774 C771 1.500 1_554 S
C774 C775 1.434 . S
C774 C779 1.383 1_554 S
C775 C769 1.465 . S
C775 C774 1.434 . S
C775 C776 1.399 . S
C776 H762 0.929 . S
C776 C775 1.399 . S
C776 C777 1.385 . S
C777 H763 0.931 . S
C777 C776 1.385 . S
C777 C778 1.389 . S
C778 C777 1.389 . S
C778 C779 1.387 1_554 S
C779 H764 0.930 . S
C779 C774 1.383 1_556 S
C779 C778 1.387 1_556 S
H780 C792 0.930 . S
H781 C794 0.930 . S
H782 C795 0.930 . S
H783 C799 0.959 . S
H784 C799 0.959 . S
H785 C799 0.961 . S
H786 C800 0.960 . S
H787 C800 0.961 . S
H788 C800 0.959 . S
H789 C803 0.929 . S
H790 C804 0.931 . S
H791 C806 0.930 . S
C792 H780 0.930 . S
C792 C793 1.399 . S
C792 C797 1.399 . S
C793 C792 1.399 . S
C793 C794 1.376 . S
C794 H781 0.930 . S
C794 C793 1.376 . S
C794 C795 1.388 . S
C795 H782 0.930 . S
C795 C794 1.388 . S
C795 C796 1.390 . S
C796 C795 1.390 . S
C796 C797 1.394 . S
C796 C802 1.465 . S
C797 C792 1.399 . S
C797 C796 1.394 . S
C797 C798 1.516 . S
C798 C797 1.516 . S
C798 C799 1.502 . S
C798 C800 1.561 . S
C798 C801 1.526 . S
C799 H783 0.959 . S
C799 H784 0.959 . S
C799 H785 0.961 . S
C799 C798 1.502 . S
C800 H786 0.960 . S
C800 H787 0.961 . S
C800 H788 0.959 . S
C800 C798 1.561 . S
C801 C798 1.526 . S
C801 C802 1.396 . S
C801 C806 1.390 . S
C802 C796 1.465 . S
C802 C801 1.396 . S
C802 C803 1.399 . S
C803 H789 0.929 . S
C803 C802 1.399 . S
C803 C804 1.385 . S
C804 H790 0.931 . S
C804 C803 1.385 . S
C804 C805 1.389 . S
C805 C804 1.389 . S
C805 C806 1.387 . S
C806 H791 0.930 . S
C806 C801 1.390 . S
C806 C805 1.387 . S
H807 C819 0.930 . S
H808 C821 0.930 . S
H809 C822 0.930 . S
H810 C826 0.959 . S
H811 C826 0.959 . S
H812 C826 0.961 . S
H813 C827 0.960 . S
H814 C827 0.961 . S
H815 C827 0.959 . S
H816 C830 0.929 . S
H817 C831 0.931 . S
H818 C833 0.930 . S
C819 H807 0.930 . S
C819 C820 1.399 . S
C819 C824 1.399 . S
C820 C819 1.399 . S
C820 C821 1.376 . S
C821 H808 0.930 . S
C821 C820 1.376 . S
C821 C822 1.388 . S
C822 H809 0.930 . S
C822 C821 1.388 . S
C822 C823 1.390 . S
C823 C822 1.390 . S
C823 C824 1.394 . S
C823 C829 1.465 . S
C824 C819 1.399 . S
C824 C823 1.394 . S
C824 C825 1.516 . S
C825 C824 1.516 . S
C825 C826 1.502 . S
C825 C827 1.561 . S
C825 C828 1.526 . S
C826 H810 0.959 . S
C826 H811 0.959 . S
C826 H812 0.961 . S
C826 C825 1.502 . S
C827 H813 0.960 . S
C827 H814 0.961 . S
C827 H815 0.959 . S
C827 C825 1.561 . S
C828 C825 1.526 . S
C828 C829 1.396 . S
C828 C833 1.390 . S
C829 C823 1.465 . S
C829 C828 1.396 . S
C829 C830 1.399 . S
C830 H816 0.929 . S
C830 C829 1.399 . S
C830 C831 1.385 . S
C831 H817 0.931 . S
C831 C830 1.385 . S
C831 C832 1.389 . S
C832 C831 1.389 . S
C832 C833 1.387 . S
C833 H818 0.930 . S
C833 C828 1.390 . S
C833 C832 1.387 . S
H834 C846 0.930 . S
H835 C848 0.930 . S
H836 C849 0.930 . S
H837 C853 0.959 . S
H838 C853 0.959 . S
H839 C853 0.961 . S
H840 C854 0.960 . S
H841 C854 0.961 . S
H842 C854 0.959 . S
H843 C857 0.929 . S
H844 C858 0.931 . S
H845 C860 0.930 . S
C846 H834 0.930 . S
C846 C847 1.399 . S
C846 C851 1.399 . S
C847 C846 1.399 . S
C847 C848 1.376 . S
C848 H835 0.930 . S
C848 C847 1.376 . S
C848 C849 1.388 . S
C849 H836 0.930 . S
C849 C848 1.388 . S
C849 C850 1.390 . S
C850 C849 1.390 . S
C850 C851 1.394 . S
C850 C856 1.465 . S
C851 C846 1.399 . S
C851 C850 1.394 . S
C851 C852 1.516 . S
C852 C851 1.516 . S
C852 C853 1.502 . S
C852 C854 1.561 . S
C852 C855 1.526 . S
C853 H837 0.959 . S
C853 H838 0.959 . S
C853 H839 0.961 . S
C853 C852 1.502 . S
C854 H840 0.960 . S
C854 H841 0.961 . S
C854 H842 0.959 . S
C854 C852 1.561 . S
C855 C852 1.526 . S
C855 C856 1.396 . S
C855 C860 1.390 . S
C856 C850 1.465 . S
C856 C855 1.396 . S
C856 C857 1.399 . S
C857 H843 0.929 . S
C857 C856 1.399 . S
C857 C858 1.385 . S
C858 H844 0.931 . S
C858 C857 1.385 . S
C858 C859 1.389 . S
C859 C858 1.389 . S
C859 C860 1.387 . S
C860 H845 0.930 . S
C860 C855 1.390 . S
C860 C859 1.387 . S
H861 C873 0.930 . S
H862 C875 0.930 . S
H863 C876 0.930 . S
H864 C880 0.959 . S
H865 C880 0.959 . S
H866 C880 0.961 . S
H867 C881 0.960 . S
H868 C881 0.961 . S
H869 C881 0.959 . S
H870 C884 0.929 . S
H871 C885 0.931 . S
H872 C887 0.930 . S
C873 H861 0.930 . S
C873 C874 1.399 . S
C873 C878 1.399 . S
C874 C873 1.399 . S
C874 C875 1.376 . S
C875 H862 0.930 . S
C875 C874 1.376 . S
C875 C876 1.388 . S
C876 H863 0.930 . S
C876 C875 1.388 . S
C876 C877 1.390 . S
C877 C876 1.390 . S
C877 C878 1.394 . S
C877 C883 1.465 . S
C878 C873 1.399 . S
C878 C877 1.394 . S
C878 C879 1.516 . S
C879 C878 1.516 . S
C879 C880 1.502 . S
C879 C881 1.561 . S
C879 C882 1.526 . S
C880 H864 0.959 . S
C880 H865 0.959 . S
C880 H866 0.961 . S
C880 C879 1.502 . S
C881 H867 0.960 . S
C881 H868 0.961 . S
C881 H869 0.959 . S
C881 C879 1.561 . S
C882 C879 1.526 . S
C882 C883 1.396 . S
C882 C887 1.390 . S
C883 C877 1.465 . S
C883 C882 1.396 . S
C883 C884 1.399 . S
C884 H870 0.929 . S
C884 C883 1.399 . S
C884 C885 1.385 . S
C885 H871 0.931 . S
C885 C884 1.385 . S
C885 C886 1.389 . S
C886 C885 1.389 . S
C886 C887 1.387 . S
C887 H872 0.930 . S
C887 C882 1.390 . S
C887 C886 1.387 . S
H888 C900 0.930 . S
H889 C902 0.930 . S
H890 C903 0.930 . S
H891 C907 0.959 . S
H892 C907 0.959 . S
H893 C907 0.961 . S
H894 C908 0.960 . S
H895 C908 0.961 . S
H896 C908 0.959 . S
H897 C911 0.929 . S
H898 C912 0.931 . S
H899 C914 0.930 . S
C900 H888 0.930 . S
C900 C901 1.399 . S
C900 C905 1.399 . S
C901 C900 1.399 . S
C901 C902 1.376 . S
C902 H889 0.930 . S
C902 C901 1.376 . S
C902 C903 1.388 . S
C903 H890 0.930 . S
C903 C902 1.388 . S
C903 C904 1.390 . S
C904 C903 1.390 . S
C904 C905 1.394 . S
C904 C910 1.465 . S
C905 C900 1.399 . S
C905 C904 1.394 . S
C905 C906 1.516 . S
C906 C905 1.516 . S
C906 C907 1.502 . S
C906 C908 1.561 . S
C906 C909 1.526 . S
C907 H891 0.959 . S
C907 H892 0.959 . S
C907 H893 0.961 . S
C907 C906 1.502 . S
C908 H894 0.960 . S
C908 H895 0.961 . S
C908 H896 0.959 . S
C908 C906 1.561 . S
C909 C906 1.526 . S
C909 C910 1.396 . S
C909 C914 1.390 . S
C910 C904 1.465 . S
C910 C909 1.396 . S
C910 C911 1.399 . S
C911 H897 0.929 . S
C911 C910 1.399 . S
C911 C912 1.385 . S
C912 H898 0.931 . S
C912 C911 1.385 . S
C912 C913 1.389 . S
C913 C912 1.389 . S
C913 C914 1.387 . S
C914 H899 0.930 . S
C914 C909 1.390 . S
C914 C913 1.387 . S
H915 C927 0.930 . S
H916 C929 0.930 . S
H917 C930 0.930 . S
H918 C934 0.959 . S
H919 C934 0.959 . S
H920 C934 0.961 . S
H921 C935 0.960 . S
H922 C935 0.961 . S
H923 C935 0.959 . S
H924 C938 0.929 . S
H925 C939 0.931 . S
H926 C941 0.930 . S
C927 H915 0.930 . S
C927 C928 1.399 . S
C927 C932 1.399 . S
C928 C927 1.399 . S
C928 C929 1.376 1_545 S
C929 H916 0.930 . S
C929 C928 1.376 1_565 S
C929 C930 1.388 . S
C930 H917 0.930 . S
C930 C929 1.388 . S
C930 C931 1.390 1_565 S
C931 C930 1.390 1_545 S
C931 C932 1.394 . S
C931 C937 1.465 . S
C932 C927 1.399 . S
C932 C931 1.394 . S
C932 C933 1.516 . S
C933 C932 1.516 . S
C933 C934 1.502 . S
C933 C935 1.561 . S
C933 C936 1.526 . S
C934 H918 0.959 . S
C934 H919 0.959 . S
C934 H920 0.961 . S
C934 C933 1.502 . S
C935 H921 0.960 . S
C935 H922 0.961 . S
C935 H923 0.959 . S
C935 C933 1.561 . S
C936 C933 1.526 . S
C936 C937 1.396 . S
C936 C941 1.390 . S
C937 C931 1.465 . S
C937 C936 1.396 . S
C937 C938 1.399 1_545 S
C938 H924 0.929 . S
C938 C937 1.399 1_565 S
C938 C939 1.385 . S
C939 H925 0.931 . S
C939 C938 1.385 . S
C939 C940 1.389 1_565 S
C940 C939 1.389 1_545 S
C940 C941 1.387 . S
C941 H926 0.930 . S
C941 C936 1.390 . S
C941 C940 1.387 . S
H942 C954 0.930 . S
H943 C956 0.930 . S
H944 C957 0.930 . S
H945 C961 0.959 . S
H946 C961 0.959 . S
H947 C961 0.961 . S
H948 C962 0.960 . S
H949 C962 0.961 . S
H950 C962 0.959 . S
H951 C965 0.929 . S
H952 C966 0.931 . S
H953 C968 0.930 . S
C954 H942 0.930 . S
C954 C955 1.399 . S
C954 C959 1.399 . S
C955 C954 1.399 . S
C955 C956 1.376 . S
C956 H943 0.930 . S
C956 C955 1.376 . S
C956 C957 1.388 . S
C957 H944 0.930 . S
C957 C956 1.388 . S
C957 C958 1.390 . S
C958 C957 1.390 . S
C958 C959 1.394 . S
C958 C964 1.465 . S
C959 C954 1.399 . S
C959 C958 1.394 . S
C959 C960 1.516 . S
C960 C959 1.516 . S
C960 C961 1.502 . S
C960 C962 1.561 . S
C960 C963 1.526 . S
C961 H945 0.959 . S
C961 H946 0.959 . S
C961 H947 0.961 . S
C961 C960 1.502 . S
C962 H948 0.960 . S
C962 H949 0.961 . S
C962 H950 0.959 . S
C962 C960 1.561 . S
C963 C960 1.526 . S
C963 C964 1.396 . S
C963 C968 1.390 . S
C964 C958 1.465 . S
C964 C963 1.396 . S
C964 C965 1.399 . S
C965 H951 0.929 . S
C965 C964 1.399 . S
C965 C966 1.385 . S
C966 H952 0.931 . S
C966 C965 1.385 . S
C966 C967 1.389 . S
C967 C966 1.389 . S
C967 C968 1.387 . S
C968 H953 0.930 . S
C968 C963 1.390 . S
C968 C967 1.387 . S
H969 C981 0.930 . S
H970 C983 0.930 . S
H971 C984 0.930 . S
H972 C988 0.959 . S
H973 C988 0.959 . S
H974 C988 0.961 . S
H975 C989 0.960 . S
H976 C989 0.961 . S
H977 C989 0.959 . S
H978 C992 0.929 . S
H979 C993 0.931 . S
H980 C995 0.930 . S
C981 H969 0.930 . S
C981 C982 1.399 . S
C981 C986 1.399 . S
C982 C981 1.399 . S
C982 C983 1.376 . S
C983 H970 0.930 . S
C983 C982 1.376 . S
C983 C984 1.388 . S
C984 H971 0.930 . S
C984 C983 1.388 . S
C984 C985 1.390 . S
C985 C984 1.390 . S
C985 C986 1.394 . S
C985 C991 1.465 . S
C986 C981 1.399 . S
C986 C985 1.394 . S
C986 C987 1.516 . S
C987 C986 1.516 . S
C987 C988 1.502 . S
C987 C989 1.561 . S
C987 C990 1.526 . S
C988 H972 0.959 . S
C988 H973 0.959 . S
C988 H974 0.961 . S
C988 C987 1.502 . S
C989 H975 0.960 . S
C989 H976 0.961 . S
C989 H977 0.959 . S
C989 C987 1.561 . S
C990 C987 1.526 . S
C990 C991 1.396 . S
C990 C995 1.390 . S
C991 C985 1.465 . S
C991 C990 1.396 . S
C991 C992 1.399 . S
C992 H978 0.929 . S
C992 C991 1.399 . S
C992 C993 1.385 . S
C993 H979 0.931 . S
C993 C992 1.385 . S
C993 C994 1.389 . S
C994 C993 1.389 . S
C994 C995 1.387 . S
C995 H980 0.930 . S
C995 C990 1.390 . S
C995 C994 1.387 . S
H996 C1008 0.930 . S
H997 C1010 0.930 . S
H998 C1011 0.930 . S
H999 C1015 0.959 . S
H1000 C1015 0.959 . S
H1001 C1015 0.961 . S
H1002 C1016 0.960 . S
H1003 C1016 0.961 . S
H1004 C1016 0.959 . S
H1005 C1019 0.929 . S
H1006 C1020 0.931 . S
H1007 C1022 0.930 . S
C1008 H996 0.930 . S
C1008 C1009 1.399 . S
C1008 C1013 1.399 . S
C1009 C1008 1.399 . S
C1009 C1010 1.376 . S
C1010 H997 0.930 . S
C1010 C1009 1.376 . S
C1010 C1011 1.388 . S
C1011 H998 0.930 . S
C1011 C1010 1.388 . S
C1011 C1012 1.390 . S
C1012 C1011 1.390 . S
C1012 C1013 1.394 . S
C1012 C1018 1.465 . S
C1013 C1008 1.399 . S
C1013 C1012 1.394 . S
C1013 C1014 1.516 . S
C1014 C1013 1.516 . S
C1014 C1015 1.502 . S
C1014 C1016 1.561 . S
C1014 C1017 1.526 . S
C1015 H999 0.959 . S
C1015 H1000 0.959 . S
C1015 H1001 0.961 . S
C1015 C1014 1.502 . S
C1016 H1002 0.960 . S
C1016 H1003 0.961 . S
C1016 H1004 0.959 . S
C1016 C1014 1.561 . S
C1017 C1014 1.526 . S
C1017 C1018 1.396 . S
C1017 C1022 1.390 . S
C1018 C1012 1.465 . S
C1018 C1017 1.396 . S
C1018 C1019 1.399 . S
C1019 H1005 0.929 . S
C1019 C1018 1.399 . S
C1019 C1020 1.385 . S
C1020 H1006 0.931 . S
C1020 C1019 1.385 . S
C1020 C1021 1.389 . S
C1021 C1020 1.389 . S
C1021 C1022 1.387 . S
C1022 H1007 0.930 . S
C1022 C1017 1.390 . S
C1022 C1021 1.387 . S
H1023 C1035 0.930 . S
H1024 C1037 0.930 . S
H1025 C1038 0.930 . S
H1026 C1042 0.959 . S
H1027 C1042 0.959 . S
H1028 C1042 0.961 . S
H1029 C1043 0.960 . S
H1030 C1043 0.961 . S
H1031 C1043 0.959 . S
H1032 C1046 0.929 . S
H1033 C1047 0.931 . S
H1034 C1049 0.930 . S
C1035 H1023 0.930 . S
C1035 C1036 1.399 . S
C1035 C1040 1.399 . S
C1036 C1035 1.399 . S
C1036 C1037 1.376 . S
C1037 H1024 0.930 . S
C1037 C1036 1.376 . S
C1037 C1038 1.388 . S
C1038 H1025 0.930 . S
C1038 C1037 1.388 . S
C1038 C1039 1.390 . S
C1039 C1038 1.390 . S
C1039 C1040 1.394 . S
C1039 C1045 1.465 . S
C1040 C1035 1.399 . S
C1040 C1039 1.394 . S
C1040 C1041 1.516 . S
C1041 C1040 1.516 . S
C1041 C1042 1.502 . S
C1041 C1043 1.561 . S
C1041 C1044 1.526 . S
C1042 H1026 0.959 . S
C1042 H1027 0.959 . S
C1042 H1028 0.961 . S
C1042 C1041 1.502 . S
C1043 H1029 0.960 . S
C1043 H1030 0.961 . S
C1043 H1031 0.959 . S
C1043 C1041 1.561 . S
C1044 C1041 1.526 . S
C1044 C1045 1.396 . S
C1044 C1049 1.390 . S
C1045 C1039 1.465 . S
C1045 C1044 1.396 . S
C1045 C1046 1.399 . S
C1046 H1032 0.929 . S
C1046 C1045 1.399 . S
C1046 C1047 1.385 . S
C1047 H1033 0.931 . S
C1047 C1046 1.385 . S
C1047 C1048 1.389 . S
C1048 C1047 1.389 . S
C1048 C1049 1.387 . S
C1049 H1034 0.930 . S
C1049 C1044 1.390 . S
C1049 C1048 1.387 . S
H1050 C1062 0.930 . S
H1051 C1064 0.930 . S
H1052 C1065 0.930 . S
H1053 C1069 0.959 1_655 S
H1054 C1069 0.959 . S
H1055 C1069 0.961 . S
H1056 C1070 0.960 . S
H1057 C1070 0.961 . S
H1058 C1070 0.959 . S
H1059 C1073 0.929 . S
H1060 C1074 0.931 . S
H1061 C1076 0.930 . S
C1062 H1050 0.930 . S
C1062 C1063 1.399 . S
C1062 C1067 1.399 . S
C1063 C1062 1.399 . S
C1063 C1064 1.376 . S
C1064 H1051 0.930 . S
C1064 C1063 1.376 . S
C1064 C1065 1.388 . S
C1065 H1052 0.930 . S
C1065 C1064 1.388 . S
C1065 C1066 1.390 . S
C1066 C1065 1.390 . S
C1066 C1067 1.394 . S
C1066 C1072 1.465 . S
C1067 C1062 1.399 . S
C1067 C1066 1.394 . S
C1067 C1068 1.516 . S
C1068 C1067 1.516 . S
C1068 C1069 1.502 . S
C1068 C1070 1.561 . S
C1068 C1071 1.526 . S
C1069 H1053 0.959 1_455 S
C1069 H1054 0.959 . S
C1069 H1055 0.961 . S
C1069 C1068 1.502 . S
C1070 H1056 0.960 . S
C1070 H1057 0.961 . S
C1070 H1058 0.959 . S
C1070 C1068 1.561 . S
C1071 C1068 1.526 . S
C1071 C1072 1.396 . S
C1071 C1076 1.390 . S
C1072 C1066 1.465 . S
C1072 C1071 1.396 . S
C1072 C1073 1.399 . S
C1073 H1059 0.929 . S
C1073 C1072 1.399 . S
C1073 C1074 1.385 . S
C1074 H1060 0.931 . S
C1074 C1073 1.385 . S
C1074 C1075 1.389 . S
C1075 C1074 1.389 . S
C1075 C1076 1.387 . S
C1076 H1061 0.930 . S
C1076 C1071 1.390 . S
C1076 C1075 1.387 . S
H1077 C1089 0.930 . S
H1078 C1091 0.930 . S
H1079 C1092 0.930 . S
H1080 C1096 0.959 . S
H1081 C1096 0.959 . S
H1082 C1096 0.961 . S
H1083 C1097 0.960 . S
H1084 C1097 0.961 . S
H1085 C1097 0.959 . S
H1086 C1100 0.929 . S
H1087 C1101 0.931 . S
H1088 C1103 0.930 . S
C1089 H1077 0.930 . S
C1089 C1090 1.399 . S
C1089 C1094 1.399 . S
C1090 C1089 1.399 . S
C1090 C1091 1.376 . S
C1091 H1078 0.930 . S
C1091 C1090 1.376 . S
C1091 C1092 1.388 . S
C1092 H1079 0.930 . S
C1092 C1091 1.388 . S
C1092 C1093 1.390 . S
C1093 C1092 1.390 . S
C1093 C1094 1.394 . S
C1093 C1099 1.465 . S
C1094 C1089 1.399 . S
C1094 C1093 1.394 . S
C1094 C1095 1.516 . S
C1095 C1094 1.516 . S
C1095 C1096 1.502 . S
C1095 C1097 1.561 . S
C1095 C1098 1.526 . S
C1096 H1080 0.959 . S
C1096 H1081 0.959 . S
C1096 H1082 0.961 . S
C1096 C1095 1.502 . S
C1097 H1083 0.960 . S
C1097 H1084 0.961 . S
C1097 H1085 0.959 . S
C1097 C1095 1.561 . S
C1098 C1095 1.526 . S
C1098 C1099 1.396 . S
C1098 C1103 1.390 . S
C1099 C1093 1.465 . S
C1099 C1098 1.396 . S
C1099 C1100 1.399 . S
C1100 H1086 0.929 . S
C1100 C1099 1.399 . S
C1100 C1101 1.385 . S
C1101 H1087 0.931 . S
C1101 C1100 1.385 . S
C1101 C1102 1.389 . S
C1102 C1101 1.389 . S
C1102 C1103 1.387 . S
C1103 H1088 0.930 . S
C1103 C1098 1.390 . S
C1103 C1102 1.387 . S
H1104 C1116 0.930 . S
H1105 C1118 0.930 . S
H1106 C1119 0.930 . S
H1107 C1123 0.959 . S
H1108 C1123 0.959 . S
H1109 C1123 0.961 . S
H1110 C1124 0.960 . S
H1111 C1124 0.961 . S
H1112 C1124 0.959 . S
H1113 C1127 0.929 . S
H1114 C1128 0.931 . S
H1115 C1130 0.930 . S
C1116 H1104 0.930 . S
C1116 C1117 1.399 . S
C1116 C1121 1.399 . S
C1117 C1116 1.399 . S
C1117 C1118 1.376 . S
C1118 H1105 0.930 . S
C1118 C1117 1.376 . S
C1118 C1119 1.388 . S
C1119 H1106 0.930 . S
C1119 C1118 1.388 . S
C1119 C1120 1.390 . S
C1120 C1119 1.390 . S
C1120 C1121 1.394 . S
C1120 C1126 1.465 . S
C1121 C1116 1.399 . S
C1121 C1120 1.394 . S
C1121 C1122 1.516 . S
C1122 C1121 1.516 . S
C1122 C1123 1.502 . S
C1122 C1124 1.561 . S
C1122 C1125 1.526 . S
C1123 H1107 0.959 . S
C1123 H1108 0.959 . S
C1123 H1109 0.961 . S
C1123 C1122 1.502 . S
C1124 H1110 0.960 . S
C1124 H1111 0.961 . S
C1124 H1112 0.959 . S
C1124 C1122 1.561 . S
C1125 C1122 1.526 . S
C1125 C1126 1.396 . S
C1125 C1130 1.390 . S
C1126 C1120 1.465 . S
C1126 C1125 1.396 . S
C1126 C1127 1.399 . S
C1127 H1113 0.929 . S
C1127 C1126 1.399 . S
C1127 C1128 1.385 . S
C1128 H1114 0.931 . S
C1128 C1127 1.385 . S
C1128 C1129 1.389 . S
C1129 C1128 1.389 . S
C1129 C1130 1.387 . S
C1130 H1115 0.930 . S
C1130 C1125 1.390 . S
C1130 C1129 1.387 . S
H1131 C1143 0.930 . S
H1132 C1145 0.930 . S
H1133 C1146 0.930 . S
H1134 C1150 0.959 . S
H1135 C1150 0.959 . S
H1136 C1150 0.961 . S
H1137 C1151 0.960 . S
H1138 C1151 0.961 . S
H1139 C1151 0.959 . S
H1140 C1154 0.929 . S
H1141 C1155 0.931 . S
H1142 C1157 0.930 . S
C1143 H1131 0.930 . S
C1143 C1144 1.399 . S
C1143 C1148 1.399 . S
C1144 C1143 1.399 . S
C1144 C1145 1.376 . S
C1145 H1132 0.930 . S
C1145 C1144 1.376 . S
C1145 C1146 1.388 . S
C1146 H1133 0.930 . S
C1146 C1145 1.388 . S
C1146 C1147 1.390 . S
C1147 C1146 1.390 . S
C1147 C1148 1.394 . S
C1147 C1153 1.465 . S
C1148 C1143 1.399 . S
C1148 C1147 1.394 . S
C1148 C1149 1.516 . S
C1149 C1148 1.516 . S
C1149 C1150 1.502 . S
C1149 C1151 1.561 . S
C1149 C1152 1.526 . S
C1150 H1134 0.959 . S
C1150 H1135 0.959 . S
C1150 H1136 0.961 . S
C1150 C1149 1.502 . S
C1151 H1137 0.960 . S
C1151 H1138 0.961 . S
C1151 H1139 0.959 . S
C1151 C1149 1.561 . S
C1152 C1149 1.526 . S
C1152 C1153 1.396 . S
C1152 C1157 1.390 . S
C1153 C1147 1.465 . S
C1153 C1152 1.396 . S
C1153 C1154 1.399 . S
C1154 H1140 0.929 . S
C1154 C1153 1.399 . S
C1154 C1155 1.385 . S
C1155 H1141 0.931 . S
C1155 C1154 1.385 . S
C1155 C1156 1.389 . S
C1156 C1155 1.389 . S
C1156 C1157 1.387 . S
C1157 H1142 0.930 . S
C1157 C1152 1.390 . S
C1157 C1156 1.387 . S
H1158 C1170 0.930 . S
H1159 C1172 0.930 . S
H1160 C1173 0.930 . S
H1161 C1177 0.959 . S
H1162 C1177 0.959 . S
H1163 C1177 0.961 . S
H1164 C1178 0.960 . S
H1165 C1178 0.961 . S
H1166 C1178 0.959 . S
H1167 C1181 0.929 . S
H1168 C1182 0.931 . S
H1169 C1184 0.930 . S
C1170 H1158 0.930 . S
C1170 C1171 1.399 . S
C1170 C1175 1.399 . S
C1171 C1170 1.399 . S
C1171 C1172 1.376 . S
C1172 H1159 0.930 . S
C1172 C1171 1.376 . S
C1172 C1173 1.388 . S
C1173 H1160 0.930 . S
C1173 C1172 1.388 . S
C1173 C1174 1.390 . S
C1174 C1173 1.390 . S
C1174 C1175 1.394 . S
C1174 C1180 1.465 . S
C1175 C1170 1.399 . S
C1175 C1174 1.394 . S
C1175 C1176 1.516 . S
C1176 C1175 1.516 . S
C1176 C1177 1.502 . S
C1176 C1178 1.561 . S
C1176 C1179 1.526 . S
C1177 H1161 0.959 . S
C1177 H1162 0.959 . S
C1177 H1163 0.961 . S
C1177 C1176 1.502 . S
C1178 H1164 0.960 . S
C1178 H1165 0.961 . S
C1178 H1166 0.959 . S
C1178 C1176 1.561 . S
C1179 C1176 1.526 . S
C1179 C1180 1.396 . S
C1179 C1184 1.390 . S
C1180 C1174 1.465 . S
C1180 C1179 1.396 . S
C1180 C1181 1.399 . S
C1181 H1167 0.929 . S
C1181 C1180 1.399 . S
C1181 C1182 1.385 . S
C1182 H1168 0.931 . S
C1182 C1181 1.385 . S
C1182 C1183 1.389 . S
C1183 C1182 1.389 . S
C1183 C1184 1.387 . S
C1184 H1169 0.930 . S
C1184 C1179 1.390 . S
C1184 C1183 1.387 . S
H1185 C1197 0.930 . S
H1186 C1199 0.930 . S
H1187 C1200 0.930 . S
H1188 C1204 0.959 . S
H1189 C1204 0.959 . S
H1190 C1204 0.961 . S
H1191 C1205 0.960 . S
H1192 C1205 0.961 . S
H1193 C1205 0.959 . S
H1194 C1208 0.929 . S
H1195 C1209 0.931 . S
H1196 C1211 0.930 . S
C1197 H1185 0.930 . S
C1197 C1198 1.399 . S
C1197 C1202 1.399 . S
C1198 C1197 1.399 . S
C1198 C1199 1.376 . S
C1199 H1186 0.930 . S
C1199 C1198 1.376 . S
C1199 C1200 1.388 . S
C1200 H1187 0.930 . S
C1200 C1199 1.388 . S
C1200 C1201 1.390 . S
C1201 C1200 1.390 . S
C1201 C1202 1.394 . S
C1201 C1207 1.465 . S
C1202 C1197 1.399 . S
C1202 C1201 1.394 . S
C1202 C1203 1.516 . S
C1203 C1202 1.516 . S
C1203 C1204 1.502 . S
C1203 C1205 1.561 . S
C1203 C1206 1.526 . S
C1204 H1188 0.959 . S
C1204 H1189 0.959 . S
C1204 H1190 0.961 . S
C1204 C1203 1.502 . S
C1205 H1191 0.960 . S
C1205 H1192 0.961 . S
C1205 H1193 0.959 . S
C1205 C1203 1.561 . S
C1206 C1203 1.526 . S
C1206 C1207 1.396 . S
C1206 C1211 1.390 . S
C1207 C1201 1.465 . S
C1207 C1206 1.396 . S
C1207 C1208 1.399 . S
C1208 H1194 0.929 . S
C1208 C1207 1.399 . S
C1208 C1209 1.385 . S
C1209 H1195 0.931 . S
C1209 C1208 1.385 . S
C1209 C1210 1.389 . S
C1210 C1209 1.389 . S
C1210 C1211 1.387 . S
C1211 H1196 0.930 . S
C1211 C1206 1.390 . S
C1211 C1210 1.387 . S
H1212 C1224 0.930 . S
H1213 C1226 0.930 . S
H1214 C1227 0.930 . S
H1215 C1231 0.959 . S
H1216 C1231 0.959 . S
H1217 C1231 0.961 . S
H1218 C1232 0.960 . S
H1219 C1232 0.961 . S
H1220 C1232 0.959 . S
H1221 C1235 0.929 . S
H1222 C1236 0.931 . S
H1223 C1238 0.930 . S
C1224 H1212 0.930 . S
C1224 C1225 1.399 . S
C1224 C1229 1.399 . S
C1225 C1224 1.399 . S
C1225 C1226 1.376 . S
C1226 H1213 0.930 . S
C1226 C1225 1.376 . S
C1226 C1227 1.388 . S
C1227 H1214 0.930 . S
C1227 C1226 1.388 . S
C1227 C1228 1.390 . S
C1228 C1227 1.390 . S
C1228 C1229 1.394 . S
C1228 C1234 1.465 . S
C1229 C1224 1.399 . S
C1229 C1228 1.394 . S
C1229 C1230 1.516 . S
C1230 C1229 1.516 . S
C1230 C1231 1.502 . S
C1230 C1232 1.561 . S
C1230 C1233 1.526 . S
C1231 H1215 0.959 . S
C1231 H1216 0.959 . S
C1231 H1217 0.961 . S
C1231 C1230 1.502 . S
C1232 H1218 0.960 . S
C1232 H1219 0.961 . S
C1232 H1220 0.959 . S
C1232 C1230 1.561 . S
C1233 C1230 1.526 . S
C1233 C1234 1.396 . S
C1233 C1238 1.390 . S
C1234 C1228 1.465 . S
C1234 C1233 1.396 . S
C1234 C1235 1.399 . S
C1235 H1221 0.929 . S
C1235 C1234 1.399 . S
C1235 C1236 1.385 . S
C1236 H1222 0.931 . S
C1236 C1235 1.385 . S
C1236 C1237 1.389 . S
C1237 C1236 1.389 . S
C1237 C1238 1.387 . S
C1238 H1223 0.930 . S
C1238 C1233 1.390 . S
C1238 C1237 1.387 . S
H1239 C1251 0.930 . S
H1240 C1253 0.930 . S
H1241 C1254 0.930 . S
H1242 C1258 0.959 . S
H1243 C1258 0.959 . S
H1244 C1258 0.961 . S
H1245 C1259 0.960 . S
H1246 C1259 0.961 . S
H1247 C1259 0.959 . S
H1248 C1262 0.929 . S
H1249 C1263 0.931 . S
H1250 C1265 0.930 . S
C1251 H1239 0.930 . S
C1251 C1252 1.399 . S
C1251 C1256 1.399 . S
C1252 C1251 1.399 . S
C1252 C1253 1.376 . S
C1253 H1240 0.930 . S
C1253 C1252 1.376 . S
C1253 C1254 1.388 . S
C1254 H1241 0.930 . S
C1254 C1253 1.388 . S
C1254 C1255 1.390 . S
C1255 C1254 1.390 . S
C1255 C1256 1.394 . S
C1255 C1261 1.465 . S
C1256 C1251 1.399 . S
C1256 C1255 1.394 . S
C1256 C1257 1.516 . S
C1257 C1256 1.516 . S
C1257 C1258 1.502 . S
C1257 C1259 1.561 . S
C1257 C1260 1.526 . S
C1258 H1242 0.959 . S
C1258 H1243 0.959 . S
C1258 H1244 0.961 . S
C1258 C1257 1.502 . S
C1259 H1245 0.960 . S
C1259 H1246 0.961 . S
C1259 H1247 0.959 . S
C1259 C1257 1.561 . S
C1260 C1257 1.526 . S
C1260 C1261 1.396 . S
C1260 C1265 1.390 . S
C1261 C1255 1.465 . S
C1261 C1260 1.396 . S
C1261 C1262 1.399 . S
C1262 H1248 0.929 . S
C1262 C1261 1.399 . S
C1262 C1263 1.385 . S
C1263 H1249 0.931 . S
C1263 C1262 1.385 . S
C1263 C1264 1.389 . S
C1264 C1263 1.389 . S
C1264 C1265 1.387 . S
C1265 H1250 0.930 . S
C1265 C1260 1.390 . S
C1265 C1264 1.387 . S
H1266 C1278 0.930 . S
H1267 C1280 0.930 . S
H1268 C1281 0.930 . S
H1269 C1285 0.959 . S
H1270 C1285 0.959 . S
H1271 C1285 0.961 . S
H1272 C1286 0.960 . S
H1273 C1286 0.961 . S
H1274 C1286 0.959 . S
H1275 C1289 0.929 . S
H1276 C1290 0.931 . S
H1277 C1292 0.930 . S
C1278 H1266 0.930 . S
C1278 C1279 1.399 . S
C1278 C1283 1.399 . S
C1279 C1278 1.399 . S
C1279 C1280 1.376 . S
C1280 H1267 0.930 . S
C1280 C1279 1.376 . S
C1280 C1281 1.388 . S
C1281 H1268 0.930 . S
C1281 C1280 1.388 . S
C1281 C1282 1.390 . S
C1282 C1281 1.390 . S
C1282 C1283 1.394 . S
C1282 C1288 1.465 . S
C1283 C1278 1.399 . S
C1283 C1282 1.394 . S
C1283 C1284 1.516 . S
C1284 C1283 1.516 . S
C1284 C1285 1.502 . S
C1284 C1286 1.561 . S
C1284 C1287 1.526 . S
C1285 H1269 0.959 . S
C1285 H1270 0.959 . S
C1285 H1271 0.961 . S
C1285 C1284 1.502 . S
C1286 H1272 0.960 . S
C1286 H1273 0.961 . S
C1286 H1274 0.959 . S
C1286 C1284 1.561 . S
C1287 C1284 1.526 . S
C1287 C1288 1.396 . S
C1287 C1292 1.390 . S
C1288 C1282 1.465 . S
C1288 C1287 1.396 . S
C1288 C1289 1.399 . S
C1289 H1275 0.929 . S
C1289 C1288 1.399 . S
C1289 C1290 1.385 . S
C1290 H1276 0.931 . S
C1290 C1289 1.385 . S
C1290 C1291 1.389 . S
C1291 C1290 1.389 . S
C1291 C1292 1.387 . S
C1292 H1277 0.930 . S
C1292 C1287 1.390 . S
C1292 C1291 1.387 . S
H1293 C1305 0.930 . S
H1294 C1307 0.930 . S
H1295 C1308 0.930 . S
H1296 C1312 0.959 . S
H1297 C1312 0.959 . S
H1298 C1312 0.961 . S
H1299 C1313 0.960 . S
H1300 C1313 0.961 . S
H1301 C1313 0.959 . S
H1302 C1316 0.929 . S
H1303 C1317 0.931 . S
H1304 C1319 0.930 . S
C1305 H1293 0.930 . S
C1305 C1306 1.399 . S
C1305 C1310 1.399 . S
C1306 C1305 1.399 . S
C1306 C1307 1.376 . S
C1307 H1294 0.930 . S
C1307 C1306 1.376 . S
C1307 C1308 1.388 . S
C1308 H1295 0.930 . S
C1308 C1307 1.388 . S
C1308 C1309 1.390 . S
C1309 C1308 1.390 . S
C1309 C1310 1.394 . S
C1309 C1315 1.465 . S
C1310 C1305 1.399 . S
C1310 C1309 1.394 . S
C1310 C1311 1.516 . S
C1311 C1310 1.516 . S
C1311 C1312 1.502 . S
C1311 C1313 1.561 . S
C1311 C1314 1.526 . S
C1312 H1296 0.959 . S
C1312 H1297 0.959 . S
C1312 H1298 0.961 . S
C1312 C1311 1.502 . S
C1313 H1299 0.960 . S
C1313 H1300 0.961 . S
C1313 H1301 0.959 . S
C1313 C1311 1.561 . S
C1314 C1311 1.526 . S
C1314 C1315 1.396 . S
C1314 C1319 1.390 . S
C1315 C1309 1.465 . S
C1315 C1314 1.396 . S
C1315 C1316 1.399 . S
C1316 H1302 0.929 . S
C1316 C1315 1.399 . S
C1316 C1317 1.385 . S
C1317 H1303 0.931 . S
C1317 C1316 1.385 . S
C1317 C1318 1.389 . S
C1318 C1317 1.389 . S
C1318 C1319 1.387 . S
C1319 H1304 0.930 . S
C1319 C1314 1.390 . S
C1319 C1318 1.387 . S
H1320 C1332 0.930 . S
H1321 C1334 0.930 . S
H1322 C1335 0.930 . S
H1323 C1339 0.959 . S
H1324 C1339 0.959 . S
H1325 C1339 0.961 . S
H1326 C1340 0.980 . S
H1327 C1340 0.950 1_455 S
H1328 C1340 0.904 1_455 S
H1329 C1343 0.929 . S
H1330 C1344 0.931 . S
H1331 C1346 0.930 . S
C1332 H1320 0.930 . S
C1332 C1333 1.399 . S
C1332 C1337 1.399 . S
C1333 C1332 1.399 . S
C1333 C1334 1.376 . S
C1334 H1321 0.930 . S
C1334 C1333 1.376 . S
C1334 C1335 1.388 . S
C1335 H1322 0.930 . S
C1335 C1334 1.388 . S
C1335 C1336 1.390 . S
C1336 C1335 1.390 . S
C1336 C1337 1.394 . S
C1336 C1342 1.465 . S
C1337 C1332 1.399 . S
C1337 C1336 1.394 . S
C1337 C1338 1.516 . S
C1338 C1337 1.516 . S
C1338 C1339 1.502 . S
C1338 C1340 1.614 . S
C1338 C1341 1.526 . S
C1339 H1323 0.959 . S
C1339 H1324 0.959 . S
C1339 H1325 0.961 . S
C1339 C1338 1.502 . S
C1340 H1326 0.980 . S
C1340 H1327 0.950 1_655 S
C1340 H1328 0.904 1_655 S
C1340 C1338 1.614 . S
C1341 C1338 1.526 . S
C1341 C1342 1.396 . S
C1341 C1346 1.390 . S
C1342 C1336 1.465 . S
C1342 C1341 1.396 . S
C1342 C1343 1.399 . S
C1343 H1329 0.929 . S
C1343 C1342 1.399 . S
C1343 C1344 1.385 1_655 S
C1344 H1330 0.931 . S
C1344 C1343 1.385 1_455 S
C1344 C1345 1.391 . S
C1345 C1344 1.391 . S
C1345 C1346 1.380 1_455 S
C1346 H1331 0.930 . S
C1346 C1341 1.390 . S
C1346 C1345 1.380 1_655 S
H1347 C1359 0.930 . S
H1348 C1361 0.930 . S
H1349 C1362 0.930 . S
H1350 C1366 0.959 . S
H1351 C1366 0.959 . S
H1352 C1366 0.961 . S
H1353 C1367 0.960 . S
H1354 C1367 0.961 . S
H1355 C1367 0.959 . S
H1356 C1370 0.929 . S
H1357 C1371 0.931 . S
H1358 C1373 0.929 1_455 S
C1359 H1347 0.930 . S
C1359 C1360 1.399 . S
C1359 C1364 1.399 . S
C1360 C1359 1.399 . S
C1360 C1361 1.376 . S
C1361 H1348 0.930 . S
C1361 C1360 1.376 . S
C1361 C1362 1.388 . S
C1362 H1349 0.930 . S
C1362 C1361 1.388 . S
C1362 C1363 1.390 . S
C1363 C1362 1.390 . S
C1363 C1364 1.394 . S
C1363 C1369 1.465 . S
C1364 C1359 1.399 . S
C1364 C1363 1.394 . S
C1364 C1365 1.516 . S
C1365 C1364 1.516 . S
C1365 C1366 1.502 1_655 S
C1365 C1367 1.561 . S
C1365 C1368 1.526 . S
C1366 H1350 0.959 . S
C1366 H1351 0.959 . S
C1366 H1352 0.961 . S
C1366 C1365 1.502 1_455 S
C1367 H1353 0.960 . S
C1367 H1354 0.961 . S
C1367 H1355 0.959 . S
C1367 C1365 1.561 . S
C1368 C1365 1.526 . S
C1368 C1369 1.396 . S
C1368 C1373 1.390 . S
C1369 C1363 1.465 . S
C1369 C1368 1.396 . S
C1369 C1370 1.399 . S
C1370 H1356 0.929 . S
C1370 C1369 1.399 . S
C1370 C1371 1.385 . S
C1371 H1357 0.931 . S
C1371 C1370 1.385 . S
C1371 C1372 1.389 . S
C1372 C1371 1.389 . S
C1372 C1373 1.387 . S
C1373 H1358 0.929 1_655 S
C1373 C1368 1.390 . S
C1373 C1372 1.387 . S
H1374 C1386 0.930 . S
H1375 C1388 0.930 . S
H1376 C1389 0.930 . S
H1377 C1393 0.959 . S
H1378 C1393 0.959 . S
H1379 C1393 0.961 . S
H1380 C1394 0.960 . S
H1381 C1394 0.961 . S
H1382 C1394 0.959 . S
H1383 C1397 0.929 . S
H1384 C1398 0.931 . S
H1385 C1400 0.930 . S
C1386 H1374 0.930 . S
C1386 C1387 1.399 . S
C1386 C1391 1.399 . S
C1387 C1386 1.399 . S
C1387 C1388 1.376 . S
C1388 H1375 0.930 . S
C1388 C1387 1.376 . S
C1388 C1389 1.388 . S
C1389 H1376 0.930 . S
C1389 C1388 1.388 . S
C1389 C1390 1.390 . S
C1390 C1389 1.390 . S
C1390 C1391 1.394 . S
C1390 C1396 1.465 . S
C1391 C1386 1.399 . S
C1391 C1390 1.394 . S
C1391 C1392 1.516 . S
C1392 C1391 1.516 . S
C1392 C1393 1.502 . S
C1392 C1394 1.561 . S
C1392 C1395 1.526 . S
C1393 H1377 0.959 . S
C1393 H1378 0.959 . S
C1393 H1379 0.961 . S
C1393 C1392 1.502 . S
C1394 H1380 0.960 . S
C1394 H1381 0.961 . S
C1394 H1382 0.959 . S
C1394 C1392 1.561 . S
C1395 C1392 1.526 . S
C1395 C1396 1.396 . S
C1395 C1400 1.390 . S
C1396 C1390 1.465 . S
C1396 C1395 1.396 . S
C1396 C1397 1.399 . S
C1397 H1383 0.929 . S
C1397 C1396 1.399 . S
C1397 C1398 1.385 . S
C1398 H1384 0.931 . S
C1398 C1397 1.385 . S
C1398 C1399 1.389 . S
C1399 C1398 1.389 . S
C1399 C1400 1.387 . S
C1400 H1385 0.930 . S
C1400 C1395 1.390 . S
C1400 C1399 1.387 . S
H1401 C1413 0.930 . S
H1402 C1415 0.930 . S
H1403 C1416 0.930 . S
H1404 C1420 0.959 . S
H1405 C1420 0.959 . S
H1406 C1420 0.961 . S
H1407 C1421 0.960 . S
H1408 C1421 0.961 . S
H1409 C1421 0.959 . S
H1410 C1424 0.929 . S
H1411 C1425 0.931 . S
H1412 C1427 0.930 . S
C1413 H1401 0.930 . S
C1413 C1414 1.399 . S
C1413 C1418 1.399 . S
C1414 C1413 1.399 . S
C1414 C1415 1.376 . S
C1415 H1402 0.930 . S
C1415 C1414 1.376 . S
C1415 C1416 1.388 . S
C1416 H1403 0.930 . S
C1416 C1415 1.388 . S
C1416 C1417 1.390 . S
C1417 C1416 1.390 . S
C1417 C1418 1.394 . S
C1417 C1423 1.465 . S
C1418 C1413 1.399 . S
C1418 C1417 1.394 . S
C1418 C1419 1.516 . S
C1419 C1418 1.516 . S
C1419 C1420 1.502 . S
C1419 C1421 1.561 . S
C1419 C1422 1.526 . S
C1420 H1404 0.959 . S
C1420 H1405 0.959 . S
C1420 H1406 0.961 . S
C1420 C1419 1.502 . S
C1421 H1407 0.960 . S
C1421 H1408 0.961 . S
C1421 H1409 0.959 . S
C1421 C1419 1.561 . S
C1422 C1419 1.526 . S
C1422 C1423 1.396 . S
C1422 C1427 1.390 . S
C1423 C1417 1.465 . S
C1423 C1422 1.396 . S
C1423 C1424 1.399 . S
C1424 H1410 0.929 . S
C1424 C1423 1.399 . S
C1424 C1425 1.385 . S
C1425 H1411 0.931 . S
C1425 C1424 1.385 . S
C1425 C1426 1.389 . S
C1426 C1425 1.389 . S
C1426 C1427 1.387 . S
C1427 H1412 0.930 . S
C1427 C1422 1.390 . S
C1427 C1426 1.387 . S
H1428 C1440 0.930 . S
H1429 C1442 0.930 . S
H1430 C1443 0.930 . S
H1431 C1447 0.959 . S
H1432 C1447 0.959 . S
H1433 C1447 0.961 . S
H1434 C1448 0.960 . S
H1435 C1448 0.961 . S
H1436 C1448 0.959 . S
H1437 C1451 0.929 1_545 S
H1438 C1452 0.931 . S
H1439 C1454 0.930 . S
C1440 H1428 0.930 . S
C1440 C1441 1.399 1_565 S
C1440 C1445 1.399 . S
C1441 C1440 1.399 1_545 S
C1441 C1442 1.376 . S
C1442 H1429 0.930 . S
C1442 C1441 1.376 . S
C1442 C1443 1.388 . S
C1443 H1430 0.930 . S
C1443 C1442 1.388 . S
C1443 C1444 1.390 1_545 S
C1444 C1443 1.390 1_565 S
C1444 C1445 1.394 . S
C1444 C1450 1.465 . S
C1445 C1440 1.399 . S
C1445 C1444 1.394 . S
C1445 C1446 1.516 . S
C1446 C1445 1.516 . S
C1446 C1447 1.502 . S
C1446 C1448 1.561 . S
C1446 C1449 1.526 . S
C1447 H1431 0.959 . S
C1447 H1432 0.959 . S
C1447 H1433 0.961 . S
C1447 C1446 1.502 . S
C1448 H1434 0.960 . S
C1448 H1435 0.961 . S
C1448 H1436 0.959 . S
C1448 C1446 1.561 . S
C1449 C1446 1.526 . S
C1449 C1450 1.396 . S
C1449 C1454 1.390 . S
C1450 C1444 1.465 . S
C1450 C1449 1.396 . S
C1450 C1451 1.399 . S
C1451 H1437 0.929 1_565 S
C1451 C1450 1.399 . S
C1451 C1452 1.385 . S
C1452 H1438 0.931 . S
C1452 C1451 1.385 . S
C1452 C1453 1.389 . S
C1453 C1452 1.389 . S
C1453 C1454 1.387 . S
C1454 H1439 0.930 . S
C1454 C1449 1.390 . S
C1454 C1453 1.387 . S
H1455 C1467 0.930 . S
H1456 C1469 0.930 . S
H1457 C1470 0.930 . S
H1458 C1474 0.959 . S
H1459 C1474 0.959 . S
H1460 C1474 0.961 . S
H1461 C1475 0.960 . S
H1462 C1475 0.961 . S
H1463 C1475 0.959 . S
H1464 C1478 0.929 . S
H1465 C1479 0.931 . S
H1466 C1481 0.930 . S
C1467 H1455 0.930 . S
C1467 C1468 1.399 . S
C1467 C1472 1.399 . S
C1468 C1467 1.399 . S
C1468 C1469 1.376 . S
C1469 H1456 0.930 . S
C1469 C1468 1.376 . S
C1469 C1470 1.388 . S
C1470 H1457 0.930 . S
C1470 C1469 1.388 . S
C1470 C1471 1.390 . S
C1471 C1470 1.390 . S
C1471 C1472 1.394 . S
C1471 C1477 1.465 . S
C1472 C1467 1.399 . S
C1472 C1471 1.394 . S
C1472 C1473 1.516 . S
C1473 C1472 1.516 . S
C1473 C1474 1.502 . S
C1473 C1475 1.561 . S
C1473 C1476 1.526 . S
C1474 H1458 0.959 . S
C1474 H1459 0.959 . S
C1474 H1460 0.961 . S
C1474 C1473 1.502 . S
C1475 H1461 0.960 . S
C1475 H1462 0.961 . S
C1475 H1463 0.959 . S
C1475 C1473 1.561 . S
C1476 C1473 1.526 . S
C1476 C1477 1.396 . S
C1476 C1481 1.390 . S
C1477 C1471 1.465 . S
C1477 C1476 1.396 . S
C1477 C1478 1.399 . S
C1478 H1464 0.929 . S
C1478 C1477 1.399 . S
C1478 C1479 1.385 . S
C1479 H1465 0.931 . S
C1479 C1478 1.385 . S
C1479 C1480 1.389 . S
C1480 C1479 1.389 . S
C1480 C1481 1.387 . S
C1481 H1466 0.930 . S
C1481 C1476 1.390 . S
C1481 C1480 1.387 . S
H1482 C1494 0.930 . S
H1483 C1496 0.930 . S
H1484 C1497 0.930 . S
H1485 C1501 0.959 . S
H1486 C1501 0.959 . S
H1487 C1501 0.961 . S
H1488 C1502 0.960 . S
H1489 C1502 0.961 . S
H1490 C1502 0.959 . S
H1491 C1505 0.929 . S
H1492 C1506 0.931 . S
H1493 C1508 0.930 . S
C1494 H1482 0.930 . S
C1494 C1495 1.399 . S
C1494 C1499 1.399 . S
C1495 C1494 1.399 . S
C1495 C1496 1.376 . S
C1496 H1483 0.930 . S
C1496 C1495 1.376 . S
C1496 C1497 1.388 . S
C1497 H1484 0.930 . S
C1497 C1496 1.388 . S
C1497 C1498 1.390 . S
C1498 C1497 1.390 . S
C1498 C1499 1.394 . S
C1498 C1504 1.465 . S
C1499 C1494 1.399 . S
C1499 C1498 1.394 . S
C1499 C1500 1.516 . S
C1500 C1499 1.516 . S
C1500 C1501 1.502 . S
C1500 C1502 1.561 . S
C1500 C1503 1.526 . S
C1501 H1485 0.959 . S
C1501 H1486 0.959 . S
C1501 H1487 0.961 . S
C1501 C1500 1.502 . S
C1502 H1488 0.960 . S
C1502 H1489 0.961 . S
C1502 H1490 0.959 . S
C1502 C1500 1.561 . S
C1503 C1500 1.526 . S
C1503 C1504 1.396 . S
C1503 C1508 1.390 . S
C1504 C1498 1.465 . S
C1504 C1503 1.396 . S
C1504 C1505 1.399 . S
C1505 H1491 0.929 . S
C1505 C1504 1.399 . S
C1505 C1506 1.385 . S
C1506 H1492 0.931 . S
C1506 C1505 1.385 . S
C1506 C1507 1.389 . S
C1507 C1506 1.389 . S
C1507 C1508 1.387 . S
C1508 H1493 0.930 . S
C1508 C1503 1.390 . S
C1508 C1507 1.387 . S
H1509 C1521 0.930 . S
H1510 C1523 0.930 . S
H1511 C1524 0.930 . S
H1512 C1528 0.959 . S
H1513 C1528 0.959 . S
H1514 C1528 0.961 . S
H1515 C1529 0.960 . S
H1516 C1529 0.961 . S
H1517 C1529 0.959 . S
H1518 C1532 0.929 . S
H1519 C1533 0.931 . S
H1520 C1535 0.930 . S
C1521 H1509 0.930 . S
C1521 C1522 1.399 . S
C1521 C1526 1.399 . S
C1522 C1521 1.399 . S
C1522 C1523 1.376 . S
C1523 H1510 0.930 . S
C1523 C1522 1.376 . S
C1523 C1524 1.388 . S
C1524 H1511 0.930 . S
C1524 C1523 1.388 . S
C1524 C1525 1.390 . S
C1525 C1524 1.390 . S
C1525 C1526 1.394 . S
C1525 C1531 1.465 . S
C1526 C1521 1.399 . S
C1526 C1525 1.394 . S
C1526 C1527 1.516 . S
C1527 C1526 1.516 . S
C1527 C1528 1.502 . S
C1527 C1529 1.561 . S
C1527 C1530 1.526 . S
C1528 H1512 0.959 . S
C1528 H1513 0.959 . S
C1528 H1514 0.961 . S
C1528 C1527 1.502 . S
C1529 H1515 0.960 . S
C1529 H1516 0.961 . S
C1529 H1517 0.959 . S
C1529 C1527 1.561 . S
C1530 C1527 1.526 . S
C1530 C1531 1.396 . S
C1530 C1535 1.390 . S
C1531 C1525 1.465 . S
C1531 C1530 1.396 . S
C1531 C1532 1.399 . S
C1532 H1518 0.929 . S
C1532 C1531 1.399 . S
C1532 C1533 1.385 . S
C1533 H1519 0.931 . S
C1533 C1532 1.385 . S
C1533 C1534 1.389 . S
C1534 C1533 1.389 . S
C1534 C1535 1.387 . S
C1535 H1520 0.930 . S
C1535 C1530 1.390 . S
C1535 C1534 1.387 . S
H1536 C1548 0.930 . S
H1537 C1550 0.930 . S
H1538 C1551 0.930 . S
H1539 C1555 0.959 . S
H1540 C1555 0.959 . S
H1541 C1555 0.961 . S
H1542 C1556 0.960 . S
H1543 C1556 0.961 . S
H1544 C1556 0.959 . S
H1545 C1559 0.929 . S
H1546 C1560 0.931 . S
H1547 C1562 0.930 . S
C1548 H1536 0.930 . S
C1548 C1549 1.399 . S
C1548 C1553 1.399 . S
C1549 C1548 1.399 . S
C1549 C1550 1.376 . S
C1550 H1537 0.930 . S
C1550 C1549 1.376 . S
C1550 C1551 1.388 . S
C1551 H1538 0.930 . S
C1551 C1550 1.388 . S
C1551 C1552 1.390 . S
C1552 C1551 1.390 . S
C1552 C1553 1.394 . S
C1552 C1558 1.465 . S
C1553 C1548 1.399 . S
C1553 C1552 1.394 . S
C1553 C1554 1.516 . S
C1554 C1553 1.516 . S
C1554 C1555 1.502 . S
C1554 C1556 1.561 . S
C1554 C1557 1.526 . S
C1555 H1539 0.959 . S
C1555 H1540 0.959 . S
C1555 H1541 0.961 . S
C1555 C1554 1.502 . S
C1556 H1542 0.960 . S
C1556 H1543 0.961 . S
C1556 H1544 0.959 . S
C1556 C1554 1.561 . S
C1557 C1554 1.526 . S
C1557 C1558 1.396 . S
C1557 C1562 1.390 . S
C1558 C1552 1.465 . S
C1558 C1557 1.396 . S
C1558 C1559 1.399 . S
C1559 H1545 0.929 . S
C1559 C1558 1.399 . S
C1559 C1560 1.385 . S
C1560 H1546 0.931 . S
C1560 C1559 1.385 . S
C1560 C1561 1.389 . S
C1561 C1560 1.389 . S
C1561 C1562 1.387 . S
C1562 H1547 0.930 . S
C1562 C1557 1.390 . S
C1562 C1561 1.387 . S
H1563 C1575 0.930 . S
H1564 C1577 0.930 . S
H1565 C1578 0.930 . S
H1566 C1582 0.959 . S
H1567 C1582 0.959 . S
H1568 C1582 0.961 . S
H1569 C1583 0.960 . S
H1570 C1583 0.961 . S
H1571 C1583 0.959 . S
H1572 C1586 0.929 . S
H1573 C1587 0.931 . S
H1574 C1589 0.930 . S
C1575 H1563 0.930 . S
C1575 C1576 1.399 . S
C1575 C1580 1.399 . S
C1576 C1575 1.399 . S
C1576 C1577 1.376 . S
C1577 H1564 0.930 . S
C1577 C1576 1.376 . S
C1577 C1578 1.388 . S
C1578 H1565 0.930 . S
C1578 C1577 1.388 . S
C1578 C1579 1.390 . S
C1579 C1578 1.390 . S
C1579 C1580 1.394 . S
C1579 C1585 1.465 . S
C1580 C1575 1.399 . S
C1580 C1579 1.394 . S
C1580 C1581 1.516 . S
C1581 C1580 1.516 . S
C1581 C1582 1.502 . S
C1581 C1583 1.561 . S
C1581 C1584 1.526 . S
C1582 H1566 0.959 . S
C1582 H1567 0.959 . S
C1582 H1568 0.961 . S
C1582 C1581 1.502 . S
C1583 H1569 0.960 . S
C1583 H1570 0.961 . S
C1583 H1571 0.959 . S
C1583 C1581 1.561 . S
C1584 C1581 1.526 . S
C1584 C1585 1.396 . S
C1584 C1589 1.390 . S
C1585 C1579 1.465 . S
C1585 C1584 1.396 . S
C1585 C1586 1.399 . S
C1586 H1572 0.929 . S
C1586 C1585 1.399 . S
C1586 C1587 1.385 . S
C1587 H1573 0.931 . S
C1587 C1586 1.385 . S
C1587 C1588 1.389 . S
C1588 C1587 1.389 . S
C1588 C1589 1.387 . S
C1589 H1574 0.930 . S
C1589 C1584 1.390 . S
C1589 C1588 1.387 . S
H1590 C1602 0.930 . S
H1591 C1604 0.930 . S
H1592 C1605 0.930 . S
H1593 C1609 0.959 . S
H1594 C1609 0.959 . S
H1595 C1609 0.961 . S
H1596 C1610 0.960 . S
H1597 C1610 0.961 1_545 S
H1598 C1610 0.959 . S
H1599 C1613 0.929 . S
H1600 C1614 0.931 . S
H1601 C1616 0.930 . S
C1602 H1590 0.930 . S
C1602 C1603 1.399 . S
C1602 C1607 1.399 . S
C1603 C1602 1.399 . S
C1603 C1604 1.376 . S
C1604 H1591 0.930 . S
C1604 C1603 1.376 . S
C1604 C1605 1.388 . S
C1605 H1592 0.930 . S
C1605 C1604 1.388 . S
C1605 C1606 1.390 . S
C1606 C1605 1.390 . S
C1606 C1607 1.394 . S
C1606 C1612 1.465 . S
C1607 C1602 1.399 . S
C1607 C1606 1.394 . S
C1607 C1608 1.548 . S
C1608 C1607 1.548 . S
C1608 C1609 1.461 1_565 S
C1608 C1610 1.567 . S
C1608 C1611 1.536 . S
C1609 H1593 0.959 . S
C1609 H1594 0.959 . S
C1609 H1595 0.961 . S
C1609 C1608 1.461 1_545 S
C1610 H1596 0.960 . S
C1610 H1597 0.961 1_565 S
C1610 H1598 0.959 . S
C1610 C1608 1.567 . S
C1611 C1608 1.536 . S
C1611 C1612 1.396 . S
C1611 C1616 1.390 1_565 S
C1612 C1606 1.465 . S
C1612 C1611 1.396 . S
C1612 C1613 1.399 . S
C1613 H1599 0.929 . S
C1613 C1612 1.399 . S
C1613 C1614 1.385 . S
C1614 H1600 0.931 . S
C1614 C1613 1.385 . S
C1614 C1615 1.389 . S
C1615 C1614 1.389 . S
C1615 C1616 1.387 1_565 S
C1616 H1601 0.930 . S
C1616 C1611 1.390 1_545 S
C1616 C1615 1.387 1_545 S
H1617 C1629 0.916 1_554 S
H1618 C1631 0.930 . S
H1619 C1632 0.930 . S
H1620 C1636 0.959 . S
H1621 C1636 0.959 . S
H1622 C1636 0.961 . S
H1623 C1637 0.960 . S
H1624 C1637 0.961 . S
H1625 C1637 0.959 . S
H1626 C1640 0.929 . S
H1627 C1641 0.931 . S
H1628 C1643 0.930 . S
C1629 H1617 0.916 1_556 S
C1629 C1630 1.397 . S
C1629 C1634 1.419 . S
C1630 C1629 1.397 . S
C1630 C1631 1.375 . S
C1631 H1618 0.930 . S
C1631 C1630 1.375 . S
C1631 C1632 1.388 . S
C1632 H1619 0.930 . S
C1632 C1631 1.388 . S
C1632 C1633 1.390 . S
C1633 C1632 1.390 . S
C1633 C1634 1.394 . S
C1633 C1639 1.465 . S
C1634 C1629 1.419 . S
C1634 C1633 1.394 . S
C1634 C1635 1.516 . S
C1635 C1634 1.516 . S
C1635 C1636 1.502 . S
C1635 C1637 1.561 1_556 S
C1635 C1638 1.526 . S
C1636 H1620 0.959 . S
C1636 H1621 0.959 . S
C1636 H1622 0.961 . S
C1636 C1635 1.502 . S
C1637 H1623 0.960 . S
C1637 H1624 0.961 . S
C1637 H1625 0.959 . S
C1637 C1635 1.561 1_554 S
C1638 C1635 1.526 . S
C1638 C1639 1.396 . S
C1638 C1643 1.390 . S
C1639 C1633 1.465 . S
C1639 C1638 1.396 . S
C1639 C1640 1.399 . S
C1640 H1626 0.929 . S
C1640 C1639 1.399 . S
C1640 C1641 1.385 . S
C1641 H1627 0.931 . S
C1641 C1640 1.385 . S
C1641 C1642 1.389 . S
C1642 C1641 1.389 . S
C1642 C1643 1.387 . S
C1643 H1628 0.930 . S
C1643 C1638 1.390 . S
C1643 C1642 1.387 . S
H1644 C1656 0.930 . S
H1645 C1658 0.930 . S
H1646 C1659 0.930 . S
H1647 C1663 0.959 . S
H1648 C1663 0.959 . S
H1649 C1663 0.961 . S
H1650 C1664 0.960 . S
H1651 C1664 0.961 . S
H1652 C1664 0.959 . S
H1653 C1667 0.929 . S
H1654 C1668 0.931 . S
H1655 C1670 0.930 . S
C1656 H1644 0.930 . S
C1656 C1657 1.399 . S
C1656 C1661 1.399 . S
C1657 C1656 1.399 . S
C1657 C1658 1.376 . S
C1658 H1645 0.930 . S
C1658 C1657 1.376 . S
C1658 C1659 1.388 . S
C1659 H1646 0.930 . S
C1659 C1658 1.388 . S
C1659 C1660 1.390 . S
C1660 C1659 1.390 . S
C1660 C1661 1.394 . S
C1660 C1666 1.465 . S
C1661 C1656 1.399 . S
C1661 C1660 1.394 . S
C1661 C1662 1.516 . S
C1662 C1661 1.516 . S
C1662 C1663 1.502 . S
C1662 C1664 1.561 . S
C1662 C1665 1.526 . S
C1663 H1647 0.959 . S
C1663 H1648 0.959 . S
C1663 H1649 0.961 . S
C1663 C1662 1.502 . S
C1664 H1650 0.960 . S
C1664 H1651 0.961 . S
C1664 H1652 0.959 . S
C1664 C1662 1.561 . S
C1665 C1662 1.526 . S
C1665 C1666 1.396 . S
C1665 C1670 1.390 . S
C1666 C1660 1.465 . S
C1666 C1665 1.396 . S
C1666 C1667 1.399 . S
C1667 H1653 0.929 . S
C1667 C1666 1.399 . S
C1667 C1668 1.385 . S
C1668 H1654 0.931 . S
C1668 C1667 1.385 . S
C1668 C1669 1.389 . S
C1669 C1668 1.389 . S
C1669 C1670 1.387 . S
C1670 H1655 0.930 . S
C1670 C1665 1.390 . S
C1670 C1669 1.387 . S
H1671 C1683 0.930 . S
H1672 C1685 0.930 . S
H1673 C1686 0.930 . S
H1674 C1690 0.959 . S
H1675 C1690 0.959 . S
H1676 C1690 0.961 . S
H1677 C1691 0.960 . S
H1678 C1691 0.961 . S
H1679 C1691 0.959 . S
H1680 C1694 0.929 . S
H1681 C1695 0.931 . S
H1682 C1697 0.930 . S
C1683 H1671 0.930 . S
C1683 C1684 1.399 . S
C1683 C1688 1.399 . S
C1684 C1683 1.399 . S
C1684 C1685 1.376 . S
C1685 H1672 0.930 . S
C1685 C1684 1.376 . S
C1685 C1686 1.388 . S
C1686 H1673 0.930 . S
C1686 C1685 1.388 . S
C1686 C1687 1.390 . S
C1687 C1686 1.390 . S
C1687 C1688 1.394 . S
C1687 C1693 1.465 . S
C1688 C1683 1.399 . S
C1688 C1687 1.394 . S
C1688 C1689 1.516 . S
C1689 C1688 1.516 . S
C1689 C1690 1.502 . S
C1689 C1691 1.561 . S
C1689 C1692 1.526 . S
C1690 H1674 0.959 . S
C1690 H1675 0.959 . S
C1690 H1676 0.961 . S
C1690 C1689 1.502 . S
C1691 H1677 0.960 . S
C1691 H1678 0.961 . S
C1691 H1679 0.959 . S
C1691 C1689 1.561 . S
C1692 C1689 1.526 . S
C1692 C1693 1.396 . S
C1692 C1697 1.390 . S
C1693 C1687 1.465 . S
C1693 C1692 1.396 . S
C1693 C1694 1.399 . S
C1694 H1680 0.929 . S
C1694 C1693 1.399 . S
C1694 C1695 1.385 . S
C1695 H1681 0.931 . S
C1695 C1694 1.385 . S
C1695 C1696 1.389 . S
C1696 C1695 1.389 . S
C1696 C1697 1.387 . S
C1697 H1682 0.930 . S
C1697 C1692 1.390 . S
C1697 C1696 1.387 . S
H1698 C1710 0.930 . S
H1699 C1712 0.930 . S
H1700 C1713 0.930 . S
H1701 C1717 0.959 . S
H1702 C1717 0.959 . S
H1703 C1717 0.961 . S
H1704 C1718 0.960 . S
H1705 C1718 0.961 . S
H1706 C1718 0.959 . S
H1707 C1721 0.929 . S
H1708 C1722 0.931 . S
H1709 C1724 0.930 . S
C1710 H1698 0.930 . S
C1710 C1711 1.399 . S
C1710 C1715 1.399 . S
C1711 C1710 1.399 . S
C1711 C1712 1.376 . S
C1712 H1699 0.930 . S
C1712 C1711 1.376 . S
C1712 C1713 1.388 . S
C1713 H1700 0.930 . S
C1713 C1712 1.388 . S
C1713 C1714 1.390 . S
C1714 C1713 1.390 . S
C1714 C1715 1.394 . S
C1714 C1720 1.465 . S
C1715 C1710 1.399 . S
C1715 C1714 1.394 . S
C1715 C1716 1.516 . S
C1716 C1715 1.516 . S
C1716 C1717 1.502 . S
C1716 C1718 1.561 . S
C1716 C1719 1.526 . S
C1717 H1701 0.959 . S
C1717 H1702 0.959 . S
C1717 H1703 0.961 . S
C1717 C1716 1.502 . S
C1718 H1704 0.960 . S
C1718 H1705 0.961 . S
C1718 H1706 0.959 . S
C1718 C1716 1.561 . S
C1719 C1716 1.526 . S
C1719 C1720 1.396 . S
C1719 C1724 1.390 . S
C1720 C1714 1.465 . S
C1720 C1719 1.396 . S
C1720 C1721 1.399 . S
C1721 H1707 0.929 . S
C1721 C1720 1.399 . S
C1721 C1722 1.385 . S
C1722 H1708 0.931 . S
C1722 C1721 1.385 . S
C1722 C1723 1.389 . S
C1723 C1722 1.389 . S
C1723 C1724 1.387 . S
C1724 H1709 0.930 . S
C1724 C1719 1.390 . S
C1724 C1723 1.387 . S
H1725 C1737 0.930 . S
H1726 C1739 0.930 . S
H1727 C1740 0.930 . S
H1728 C1744 0.959 . S
H1729 C1744 0.959 . S
H1730 C1744 0.961 . S
H1731 C1745 0.960 . S
H1732 C1745 0.961 . S
H1733 C1745 0.959 . S
H1734 C1748 0.929 . S
H1735 C1749 0.931 . S
H1736 C1751 0.930 . S
C1737 H1725 0.930 . S
C1737 C1738 1.399 . S
C1737 C1742 1.399 . S
C1738 C1737 1.399 . S
C1738 C1739 1.376 . S
C1739 H1726 0.930 . S
C1739 C1738 1.376 . S
C1739 C1740 1.388 . S
C1740 H1727 0.930 . S
C1740 C1739 1.388 . S
C1740 C1741 1.390 . S
C1741 C1740 1.390 . S
C1741 C1742 1.394 . S
C1741 C1747 1.465 . S
C1742 C1737 1.399 . S
C1742 C1741 1.394 . S
C1742 C1743 1.516 . S
C1743 C1742 1.516 . S
C1743 C1744 1.502 . S
C1743 C1745 1.561 . S
C1743 C1746 1.526 . S
C1744 H1728 0.959 . S
C1744 H1729 0.959 . S
C1744 H1730 0.961 . S
C1744 C1743 1.502 . S
C1745 H1731 0.960 . S
C1745 H1732 0.961 . S
C1745 H1733 0.959 . S
C1745 C1743 1.561 . S
C1746 C1743 1.526 . S
C1746 C1747 1.396 . S
C1746 C1751 1.390 . S
C1747 C1741 1.465 . S
C1747 C1746 1.396 . S
C1747 C1748 1.399 . S
C1748 H1734 0.929 . S
C1748 C1747 1.399 . S
C1748 C1749 1.385 . S
C1749 H1735 0.931 . S
C1749 C1748 1.385 . S
C1749 C1750 1.389 . S
C1750 C1749 1.389 . S
C1750 C1751 1.387 . S
C1751 H1736 0.930 . S
C1751 C1746 1.390 . S
C1751 C1750 1.387 . S
H1752 C1764 0.930 . S
H1753 C1766 0.930 . S
H1754 C1767 0.930 . S
H1755 C1771 0.959 . S
H1756 C1771 0.959 . S
H1757 C1771 0.961 . S
H1758 C1772 0.960 . S
H1759 C1772 0.961 . S
H1760 C1772 0.959 . S
H1761 C1775 0.929 . S
H1762 C1776 0.931 . S
H1763 C1778 0.930 . S
C1764 H1752 0.930 . S
C1764 C1765 1.399 . S
C1764 C1769 1.399 . S
C1765 C1764 1.399 . S
C1765 C1766 1.376 . S
C1766 H1753 0.930 . S
C1766 C1765 1.376 . S
C1766 C1767 1.388 . S
C1767 H1754 0.930 . S
C1767 C1766 1.388 . S
C1767 C1768 1.390 . S
C1768 C1767 1.390 . S
C1768 C1769 1.394 . S
C1768 C1774 1.465 . S
C1769 C1764 1.399 . S
C1769 C1768 1.394 . S
C1769 C1770 1.516 . S
C1770 C1769 1.516 . S
C1770 C1771 1.502 . S
C1770 C1772 1.561 . S
C1770 C1773 1.526 . S
C1771 H1755 0.959 . S
C1771 H1756 0.959 . S
C1771 H1757 0.961 . S
C1771 C1770 1.502 . S
C1772 H1758 0.960 . S
C1772 H1759 0.961 . S
C1772 H1760 0.959 . S
C1772 C1770 1.561 . S
C1773 C1770 1.526 . S
C1773 C1774 1.396 . S
C1773 C1778 1.390 . S
C1774 C1768 1.465 . S
C1774 C1773 1.396 . S
C1774 C1775 1.399 . S
C1775 H1761 0.929 . S
C1775 C1774 1.399 . S
C1775 C1776 1.385 . S
C1776 H1762 0.931 . S
C1776 C1775 1.385 . S
C1776 C1777 1.389 . S
C1777 C1776 1.389 . S
C1777 C1778 1.387 . S
C1778 H1763 0.930 . S
C1778 C1773 1.390 . S
C1778 C1777 1.387 . S
H1779 C1791 0.930 . S
H1780 C1793 0.930 . S
H1781 C1794 0.930 . S
H1782 C1798 0.959 . S
H1783 C1798 0.959 . S
H1784 C1798 0.961 . S
H1785 C1799 0.960 . S
H1786 C1799 0.961 . S
H1787 C1799 0.959 . S
H1788 C1802 0.929 . S
H1789 C1803 0.931 . S
H1790 C1805 0.930 . S
C1791 H1779 0.930 . S
C1791 C1792 1.399 . S
C1791 C1796 1.399 . S
C1792 C1791 1.399 . S
C1792 C1793 1.376 . S
C1793 H1780 0.930 . S
C1793 C1792 1.376 . S
C1793 C1794 1.388 . S
C1794 H1781 0.930 . S
C1794 C1793 1.388 . S
C1794 C1795 1.390 . S
C1795 C1794 1.390 . S
C1795 C1796 1.394 . S
C1795 C1801 1.465 . S
C1796 C1791 1.399 . S
C1796 C1795 1.394 . S
C1796 C1797 1.516 . S
C1797 C1796 1.516 . S
C1797 C1798 1.502 . S
C1797 C1799 1.561 . S
C1797 C1800 1.526 . S
C1798 H1782 0.959 . S
C1798 H1783 0.959 . S
C1798 H1784 0.961 . S
C1798 C1797 1.502 . S
C1799 H1785 0.960 . S
C1799 H1786 0.961 . S
C1799 H1787 0.959 . S
C1799 C1797 1.561 . S
C1800 C1797 1.526 . S
C1800 C1801 1.396 . S
C1800 C1805 1.390 . S
C1801 C1795 1.465 . S
C1801 C1800 1.396 . S
C1801 C1802 1.399 . S
C1802 H1788 0.929 . S
C1802 C1801 1.399 . S
C1802 C1803 1.385 . S
C1803 H1789 0.931 . S
C1803 C1802 1.385 . S
C1803 C1804 1.389 . S
C1804 C1803 1.389 . S
C1804 C1805 1.387 . S
C1805 H1790 0.930 . S
C1805 C1800 1.390 . S
C1805 C1804 1.387 . S
H1806 C1818 0.930 . S
H1807 C1820 0.930 . S
H1808 C1821 0.930 . S
H1809 C1825 0.959 . S
H1810 C1825 0.959 . S
H1811 C1825 0.961 . S
H1812 C1826 0.960 . S
H1813 C1826 0.961 . S
H1814 C1826 0.959 . S
H1815 C1829 0.929 . S
H1816 C1830 0.931 . S
H1817 C1832 0.930 . S
C1818 H1806 0.930 . S
C1818 C1819 1.399 . S
C1818 C1823 1.399 . S
C1819 C1818 1.399 . S
C1819 C1820 1.376 . S
C1820 H1807 0.930 . S
C1820 C1819 1.376 . S
C1820 C1821 1.388 . S
C1821 H1808 0.930 . S
C1821 C1820 1.388 . S
C1821 C1822 1.390 . S
C1822 C1821 1.390 . S
C1822 C1823 1.394 . S
C1822 C1828 1.465 . S
C1823 C1818 1.399 . S
C1823 C1822 1.394 . S
C1823 C1824 1.516 . S
C1824 C1823 1.516 . S
C1824 C1825 1.502 . S
C1824 C1826 1.561 . S
C1824 C1827 1.526 . S
C1825 H1809 0.959 . S
C1825 H1810 0.959 . S
C1825 H1811 0.961 . S
C1825 C1824 1.502 . S
C1826 H1812 0.960 . S
C1826 H1813 0.961 . S
C1826 H1814 0.959 . S
C1826 C1824 1.561 . S
C1827 C1824 1.526 . S
C1827 C1828 1.396 . S
C1827 C1832 1.390 . S
C1828 C1822 1.465 . S
C1828 C1827 1.396 . S
C1828 C1829 1.399 . S
C1829 H1815 0.929 . S
C1829 C1828 1.399 . S
C1829 C1830 1.385 . S
C1830 H1816 0.931 . S
C1830 C1829 1.385 . S
C1830 C1831 1.389 . S
C1831 C1830 1.389 . S
C1831 C1832 1.387 . S
C1832 H1817 0.930 . S
C1832 C1827 1.390 . S
C1832 C1831 1.387 . S
H1833 C1845 0.930 . S
H1834 C1847 0.930 . S
H1835 C1848 0.930 . S
H1836 C1852 0.959 . S
H1837 C1852 0.959 . S
H1838 C1852 0.961 . S
H1839 C1853 0.960 . S
H1840 C1853 0.961 . S
H1841 C1853 0.959 . S
H1842 C1856 0.929 . S
H1843 C1857 0.931 . S
H1844 C1859 0.930 . S
C1845 H1833 0.930 . S
C1845 C1846 1.399 . S
C1845 C1850 1.399 . S
C1846 C1845 1.399 . S
C1846 C1847 1.376 . S
C1847 H1834 0.930 . S
C1847 C1846 1.376 . S
C1847 C1848 1.388 . S
C1848 H1835 0.930 . S
C1848 C1847 1.388 . S
C1848 C1849 1.390 . S
C1849 C1848 1.390 . S
C1849 C1850 1.394 . S
C1849 C1855 1.465 . S
C1850 C1845 1.399 . S
C1850 C1849 1.394 . S
C1850 C1851 1.516 . S
C1851 C1850 1.516 . S
C1851 C1852 1.502 . S
C1851 C1853 1.561 . S
C1851 C1854 1.526 . S
C1852 H1836 0.959 . S
C1852 H1837 0.959 . S
C1852 H1838 0.961 . S
C1852 C1851 1.502 . S
C1853 H1839 0.960 . S
C1853 H1840 0.961 . S
C1853 H1841 0.959 . S
C1853 C1851 1.561 . S
C1854 C1851 1.526 . S
C1854 C1855 1.396 . S
C1854 C1859 1.390 . S
C1855 C1849 1.465 . S
C1855 C1854 1.396 . S
C1855 C1856 1.399 . S
C1856 H1842 0.929 . S
C1856 C1855 1.399 . S
C1856 C1857 1.385 . S
C1857 H1843 0.931 . S
C1857 C1856 1.385 . S
C1857 C1858 1.389 . S
C1858 C1857 1.389 . S
C1858 C1859 1.387 . S
C1859 H1844 0.930 . S
C1859 C1854 1.390 . S
C1859 C1858 1.387 . S
H1860 C1872 0.930 . S
H1861 C1874 0.930 . S
H1862 C1875 0.930 . S
H1863 C1879 0.959 . S
H1864 C1879 0.959 . S
H1865 C1879 0.961 . S
H1866 C1880 0.960 . S
H1867 C1880 0.961 . S
H1868 C1880 0.959 . S
H1869 C1883 0.929 . S
H1870 C1884 0.931 . S
H1871 C1886 0.930 . S
C1872 H1860 0.930 . S
C1872 C1873 1.399 . S
C1872 C1877 1.399 . S
C1873 C1872 1.399 . S
C1873 C1874 1.376 . S
C1874 H1861 0.930 . S
C1874 C1873 1.376 . S
C1874 C1875 1.388 . S
C1875 H1862 0.930 . S
C1875 C1874 1.388 . S
C1875 C1876 1.390 . S
C1876 C1875 1.390 . S
C1876 C1877 1.394 . S
C1876 C1882 1.465 . S
C1877 C1872 1.399 . S
C1877 C1876 1.394 . S
C1877 C1878 1.516 . S
C1878 C1877 1.516 . S
C1878 C1879 1.502 . S
C1878 C1880 1.561 . S
C1878 C1881 1.526 . S
C1879 H1863 0.959 . S
C1879 H1864 0.959 . S
C1879 H1865 0.961 . S
C1879 C1878 1.502 . S
C1880 H1866 0.960 . S
C1880 H1867 0.961 . S
C1880 H1868 0.959 . S
C1880 C1878 1.561 . S
C1881 C1878 1.526 . S
C1881 C1882 1.396 . S
C1881 C1886 1.390 . S
C1882 C1876 1.465 . S
C1882 C1881 1.396 . S
C1882 C1883 1.399 . S
C1883 H1869 0.929 . S
C1883 C1882 1.399 . S
C1883 C1884 1.385 . S
C1884 H1870 0.931 . S
C1884 C1883 1.385 . S
C1884 C1885 1.389 . S
C1885 C1884 1.389 . S
C1885 C1886 1.387 . S
C1886 H1871 0.930 . S
C1886 C1881 1.390 . S
C1886 C1885 1.387 . S
H1887 C1899 0.930 . S
H1888 C1901 0.930 . S
H1889 C1902 0.930 . S
H1890 C1906 0.959 . S
H1891 C1906 0.959 . S
H1892 C1906 0.961 . S
H1893 C1907 0.960 . S
H1894 C1907 0.961 . S
H1895 C1907 0.959 . S
H1896 C1910 0.929 . S
H1897 C1911 0.931 . S
H1898 C1913 0.930 . S
C1899 H1887 0.930 . S
C1899 C1900 1.399 . S
C1899 C1904 1.399 . S
C1900 C1899 1.399 . S
C1900 C1901 1.376 . S
C1901 H1888 0.930 . S
C1901 C1900 1.376 . S
C1901 C1902 1.388 . S
C1902 H1889 0.930 . S
C1902 C1901 1.388 . S
C1902 C1903 1.390 . S
C1903 C1902 1.390 . S
C1903 C1904 1.394 . S
C1903 C1909 1.465 . S
C1904 C1899 1.399 . S
C1904 C1903 1.394 . S
C1904 C1905 1.516 . S
C1905 C1904 1.516 . S
C1905 C1906 1.502 . S
C1905 C1907 1.561 . S
C1905 C1908 1.526 . S
C1906 H1890 0.959 . S
C1906 H1891 0.959 . S
C1906 H1892 0.961 . S
C1906 C1905 1.502 . S
C1907 H1893 0.960 . S
C1907 H1894 0.961 . S
C1907 H1895 0.959 . S
C1907 C1905 1.561 . S
C1908 C1905 1.526 . S
C1908 C1909 1.396 . S
C1908 C1913 1.390 . S
C1909 C1903 1.465 . S
C1909 C1908 1.396 . S
C1909 C1910 1.399 . S
C1910 H1896 0.929 . S
C1910 C1909 1.399 . S
C1910 C1911 1.385 . S
C1911 H1897 0.931 . S
C1911 C1910 1.385 . S
C1911 C1912 1.389 . S
C1912 C1911 1.389 . S
C1912 C1913 1.387 . S
C1913 H1898 0.930 . S
C1913 C1908 1.390 . S
C1913 C1912 1.387 . S
H1914 C1926 0.930 . S
H1915 C1928 0.930 . S
H1916 C1929 0.848 1_554 S
H1917 C1933 0.959 . S
H1918 C1933 0.959 . S
H1919 C1933 0.961 . S
H1920 C1934 0.960 . S
H1921 C1934 0.961 . S
H1922 C1934 0.959 . S
H1923 C1937 0.929 . S
H1924 C1938 0.931 . S
H1925 C1940 0.930 . S
C1926 H1914 0.930 . S
C1926 C1927 1.399 . S
C1926 C1931 1.399 . S
C1927 C1926 1.399 . S
C1927 C1928 1.376 . S
C1928 H1915 0.930 . S
C1928 C1927 1.376 . S
C1928 C1929 1.433 . S
C1929 H1916 0.848 1_556 S
C1929 C1928 1.433 . S
C1929 C1930 1.432 . S
C1930 C1929 1.432 . S
C1930 C1931 1.394 . S
C1930 C1936 1.465 . S
C1931 C1926 1.399 . S
C1931 C1930 1.394 . S
C1931 C1932 1.516 . S
C1932 C1931 1.516 . S
C1932 C1933 1.502 . S
C1932 C1934 1.561 . S
C1932 C1935 1.526 . S
C1933 H1917 0.959 . S
C1933 H1918 0.959 . S
C1933 H1919 0.961 . S
C1933 C1932 1.502 . S
C1934 H1920 0.960 . S
C1934 H1921 0.961 . S
C1934 H1922 0.959 . S
C1934 C1932 1.561 . S
C1935 C1932 1.526 . S
C1935 C1936 1.396 . S
C1935 C1940 1.390 . S
C1936 C1930 1.465 . S
C1936 C1935 1.396 . S
C1936 C1937 1.399 1_556 S
C1937 H1923 0.929 . S
C1937 C1936 1.399 1_554 S
C1937 C1938 1.385 . S
C1938 H1924 0.931 . S
C1938 C1937 1.385 . S
C1938 C1939 1.448 . S
C1939 C1938 1.448 . S
C1939 C1940 1.318 1_554 S
C1940 H1925 0.930 . S
C1940 C1935 1.390 . S
C1940 C1939 1.318 1_556 S
H1941 C1953 0.930 . S
H1942 C1955 0.930 . S
H1943 C1956 0.930 . S
H1944 C1960 0.959 . S
H1945 C1960 0.959 . S
H1946 C1960 0.961 . S
H1947 C1961 0.960 . S
H1948 C1961 0.961 . S
H1949 C1961 0.959 . S
H1950 C1964 0.929 . S
H1951 C1965 0.931 . S
H1952 C1967 0.930 . S
C1953 H1941 0.930 . S
C1953 C1954 1.399 . S
C1953 C1958 1.399 . S
C1954 C1953 1.399 . S
C1954 C1955 1.376 . S
C1955 H1942 0.930 . S
C1955 C1954 1.376 . S
C1955 C1956 1.388 . S
C1956 H1943 0.930 . S
C1956 C1955 1.388 . S
C1956 C1957 1.390 . S
C1957 C1956 1.390 . S
C1957 C1958 1.394 . S
C1957 C1963 1.465 . S
C1958 C1953 1.399 . S
C1958 C1957 1.394 . S
C1958 C1959 1.516 . S
C1959 C1958 1.516 . S
C1959 C1960 1.502 . S
C1959 C1961 1.561 . S
C1959 C1962 1.526 . S
C1960 H1944 0.959 . S
C1960 H1945 0.959 . S
C1960 H1946 0.961 . S
C1960 C1959 1.502 . S
C1961 H1947 0.960 . S
C1961 H1948 0.961 . S
C1961 H1949 0.959 . S
C1961 C1959 1.561 . S
C1962 C1959 1.526 . S
C1962 C1963 1.396 . S
C1962 C1967 1.390 . S
C1963 C1957 1.465 . S
C1963 C1962 1.396 . S
C1963 C1964 1.399 . S
C1964 H1950 0.929 . S
C1964 C1963 1.399 . S
C1964 C1965 1.385 . S
C1965 H1951 0.931 . S
C1965 C1964 1.385 . S
C1965 C1966 1.389 . S
C1966 C1965 1.389 . S
C1966 C1967 1.387 . S
C1967 H1952 0.930 . S
C1967 C1962 1.390 . S
C1967 C1966 1.387 . S
H1968 C1980 0.930 . S
H1969 C1982 0.930 . S
H1970 C1983 0.930 . S
H1971 C1987 0.959 . S
H1972 C1987 0.959 . S
H1973 C1987 0.961 . S
H1974 C1988 0.960 . S
H1975 C1988 0.961 . S
H1976 C1988 0.959 . S
H1977 C1991 0.929 . S
H1978 C1992 0.931 . S
H1979 C1994 0.930 . S
C1980 H1968 0.930 . S
C1980 C1981 1.399 . S
C1980 C1985 1.399 . S
C1981 C1980 1.399 . S
C1981 C1982 1.376 . S
C1982 H1969 0.930 . S
C1982 C1981 1.376 . S
C1982 C1983 1.388 . S
C1983 H1970 0.930 . S
C1983 C1982 1.388 . S
C1983 C1984 1.390 . S
C1984 C1983 1.390 . S
C1984 C1985 1.394 . S
C1984 C1990 1.465 . S
C1985 C1980 1.399 . S
C1985 C1984 1.394 . S
C1985 C1986 1.516 . S
C1986 C1985 1.516 . S
C1986 C1987 1.502 . S
C1986 C1988 1.561 . S
C1986 C1989 1.526 . S
C1987 H1971 0.959 . S
C1987 H1972 0.959 . S
C1987 H1973 0.961 . S
C1987 C1986 1.502 . S
C1988 H1974 0.960 . S
C1988 H1975 0.961 . S
C1988 H1976 0.959 . S
C1988 C1986 1.561 . S
C1989 C1986 1.526 . S
C1989 C1990 1.396 . S
C1989 C1994 1.390 . S
C1990 C1984 1.465 . S
C1990 C1989 1.396 . S
C1990 C1991 1.399 . S
C1991 H1977 0.929 . S
C1991 C1990 1.399 . S
C1991 C1992 1.385 . S
C1992 H1978 0.931 . S
C1992 C1991 1.385 . S
C1992 C1993 1.389 . S
C1993 C1992 1.389 . S
C1993 C1994 1.387 . S
C1994 H1979 0.930 . S
C1994 C1989 1.390 . S
C1994 C1993 1.387 . S
H1995 C2007 0.930 . S
H1996 C2009 0.930 . S
H1997 C2010 0.930 . S
H1998 C2014 0.959 . S
H1999 C2014 0.959 . S
H2000 C2014 0.961 . S
H2001 C2015 0.960 . S
H2002 C2015 0.961 . S
H2003 C2015 0.959 . S
H2004 C2018 0.929 . S
H2005 C2019 0.931 . S
H2006 C2021 0.930 . S
C2007 H1995 0.930 . S
C2007 C2008 1.399 . S
C2007 C2012 1.399 . S
C2008 C2007 1.399 . S
C2008 C2009 1.376 . S
C2009 H1996 0.930 . S
C2009 C2008 1.376 . S
C2009 C2010 1.388 . S
C2010 H1997 0.930 . S
C2010 C2009 1.388 . S
C2010 C2011 1.390 . S
C2011 C2010 1.390 . S
C2011 C2012 1.394 . S
C2011 C2017 1.465 . S
C2012 C2007 1.399 . S
C2012 C2011 1.394 . S
C2012 C2013 1.516 . S
C2013 C2012 1.516 . S
C2013 C2014 1.502 . S
C2013 C2015 1.561 . S
C2013 C2016 1.526 . S
C2014 H1998 0.959 . S
C2014 H1999 0.959 . S
C2014 H2000 0.961 . S
C2014 C2013 1.502 . S
C2015 H2001 0.960 . S
C2015 H2002 0.961 . S
C2015 H2003 0.959 . S
C2015 C2013 1.561 . S
C2016 C2013 1.526 . S
C2016 C2017 1.396 . S
C2016 C2021 1.390 . S
C2017 C2011 1.465 . S
C2017 C2016 1.396 . S
C2017 C2018 1.399 . S
C2018 H2004 0.929 . S
C2018 C2017 1.399 . S
C2018 C2019 1.385 . S
C2019 H2005 0.931 . S
C2019 C2018 1.385 . S
C2019 C2020 1.389 . S
C2020 C2019 1.389 . S
C2020 C2021 1.387 . S
C2021 H2006 0.930 . S
C2021 C2016 1.390 . S
C2021 C2020 1.387 . S
H2022 C2034 0.930 . S
H2023 C2036 0.930 . S
H2024 C2037 0.930 . S
H2025 C2041 0.959 . S
H2026 C2041 0.959 . S
H2027 C2041 0.961 . S
H2028 C2042 0.960 . S
H2029 C2042 0.961 . S
H2030 C2042 0.959 . S
H2031 C2045 0.929 . S
H2032 C2046 0.931 . S
H2033 C2048 0.930 . S
C2034 H2022 0.930 . S
C2034 C2035 1.399 . S
C2034 C2039 1.399 . S
C2035 C2034 1.399 . S
C2035 C2036 1.376 . S
C2036 H2023 0.930 . S
C2036 C2035 1.376 . S
C2036 C2037 1.388 . S
C2037 H2024 0.930 . S
C2037 C2036 1.388 . S
C2037 C2038 1.390 . S
C2038 C2037 1.390 . S
C2038 C2039 1.394 . S
C2038 C2044 1.465 . S
C2039 C2034 1.399 . S
C2039 C2038 1.394 . S
C2039 C2040 1.516 . S
C2040 C2039 1.516 . S
C2040 C2041 1.502 . S
C2040 C2042 1.561 . S
C2040 C2043 1.526 . S
C2041 H2025 0.959 . S
C2041 H2026 0.959 . S
C2041 H2027 0.961 . S
C2041 C2040 1.502 . S
C2042 H2028 0.960 . S
C2042 H2029 0.961 . S
C2042 H2030 0.959 . S
C2042 C2040 1.561 . S
C2043 C2040 1.526 . S
C2043 C2044 1.396 . S
C2043 C2048 1.390 . S
C2044 C2038 1.465 . S
C2044 C2043 1.396 . S
C2044 C2045 1.399 . S
C2045 H2031 0.929 . S
C2045 C2044 1.399 . S
C2045 C2046 1.385 . S
C2046 H2032 0.931 . S
C2046 C2045 1.385 . S
C2046 C2047 1.389 . S
C2047 C2046 1.389 . S
C2047 C2048 1.387 . S
C2048 H2033 0.930 . S
C2048 C2043 1.390 . S
C2048 C2047 1.387 . S
H2049 C2061 0.930 . S
H2050 C2063 0.930 . S
H2051 C2064 0.930 . S
H2052 C2068 0.959 . S
H2053 C2068 0.959 . S
H2054 C2068 0.961 . S
H2055 C2069 0.960 . S
H2056 C2069 0.961 . S
H2057 C2069 0.959 . S
H2058 C2072 0.929 . S
H2059 C2073 0.931 . S
H2060 C2075 0.930 . S
C2061 H2049 0.930 . S
C2061 C2062 1.399 . S
C2061 C2066 1.399 . S
C2062 C2061 1.399 . S
C2062 C2063 1.376 . S
C2063 H2050 0.930 . S
C2063 C2062 1.376 . S
C2063 C2064 1.388 . S
C2064 H2051 0.930 . S
C2064 C2063 1.388 . S
C2064 C2065 1.390 . S
C2065 C2064 1.390 . S
C2065 C2066 1.394 . S
C2065 C2071 1.465 . S
C2066 C2061 1.399 . S
C2066 C2065 1.394 . S
C2066 C2067 1.516 . S
C2067 C2066 1.516 . S
C2067 C2068 1.502 . S
C2067 C2069 1.561 . S
C2067 C2070 1.526 . S
C2068 H2052 0.959 . S
C2068 H2053 0.959 . S
C2068 H2054 0.961 . S
C2068 C2067 1.502 . S
C2069 H2055 0.960 . S
C2069 H2056 0.961 . S
C2069 H2057 0.959 . S
C2069 C2067 1.561 . S
C2070 C2067 1.526 . S
C2070 C2071 1.396 . S
C2070 C2075 1.390 . S
C2071 C2065 1.465 . S
C2071 C2070 1.396 . S
C2071 C2072 1.399 . S
C2072 H2058 0.929 . S
C2072 C2071 1.399 . S
C2072 C2073 1.385 . S
C2073 H2059 0.931 . S
C2073 C2072 1.385 . S
C2073 C2074 1.389 . S
C2074 C2073 1.389 . S
C2074 C2075 1.387 . S
C2075 H2060 0.930 . S
C2075 C2070 1.390 . S
C2075 C2074 1.387 . S
H2076 C2088 0.930 . S
H2077 C2090 0.930 . S
H2078 C2091 0.930 . S
H2079 C2095 0.959 . S
H2080 C2095 0.959 . S
H2081 C2095 0.961 . S
H2082 C2096 0.960 . S
H2083 C2096 0.961 . S
H2084 C2096 0.959 . S
H2085 C2099 0.929 . S
H2086 C2100 0.931 . S
H2087 C2102 0.930 . S
C2088 H2076 0.930 . S
C2088 C2089 1.399 . S
C2088 C2093 1.399 . S
C2089 C2088 1.399 . S
C2089 C2090 1.376 . S
C2090 H2077 0.930 . S
C2090 C2089 1.376 . S
C2090 C2091 1.388 . S
C2091 H2078 0.930 . S
C2091 C2090 1.388 . S
C2091 C2092 1.390 . S
C2092 C2091 1.390 . S
C2092 C2093 1.394 . S
C2092 C2098 1.465 . S
C2093 C2088 1.399 . S
C2093 C2092 1.394 . S
C2093 C2094 1.516 . S
C2094 C2093 1.516 . S
C2094 C2095 1.502 . S
C2094 C2096 1.561 . S
C2094 C2097 1.526 . S
C2095 H2079 0.959 . S
C2095 H2080 0.959 . S
C2095 H2081 0.961 . S
C2095 C2094 1.502 . S
C2096 H2082 0.960 . S
C2096 H2083 0.961 . S
C2096 H2084 0.959 . S
C2096 C2094 1.561 . S
C2097 C2094 1.526 . S
C2097 C2098 1.396 . S
C2097 C2102 1.390 . S
C2098 C2092 1.465 . S
C2098 C2097 1.396 . S
C2098 C2099 1.399 . S
C2099 H2085 0.929 . S
C2099 C2098 1.399 . S
C2099 C2100 1.385 . S
C2100 H2086 0.931 . S
C2100 C2099 1.385 . S
C2100 C2101 1.389 . S
C2101 C2100 1.389 . S
C2101 C2102 1.387 . S
C2102 H2087 0.930 . S
C2102 C2097 1.390 . S
C2102 C2101 1.387 . S
H2103 C2115 0.930 . S
H2104 C2117 0.930 . S
H2105 C2118 0.930 . S
H2106 C2122 0.959 . S
H2107 C2122 0.959 . S
H2108 C2122 0.961 . S
H2109 C2123 0.960 . S
H2110 C2123 0.961 . S
H2111 C2123 0.959 . S
H2112 C2126 0.929 . S
H2113 C2127 0.931 . S
H2114 C2129 0.930 . S
C2115 H2103 0.930 . S
C2115 C2116 1.399 . S
C2115 C2120 1.399 . S
C2116 C2115 1.399 . S
C2116 C2117 1.376 . S
C2117 H2104 0.930 . S
C2117 C2116 1.376 . S
C2117 C2118 1.388 . S
C2118 H2105 0.930 . S
C2118 C2117 1.388 . S
C2118 C2119 1.390 . S
C2119 C2118 1.390 . S
C2119 C2120 1.394 . S
C2119 C2125 1.465 . S
C2120 C2115 1.399 . S
C2120 C2119 1.394 . S
C2120 C2121 1.516 . S
C2121 C2120 1.516 . S
C2121 C2122 1.502 . S
C2121 C2123 1.561 . S
C2121 C2124 1.526 . S
C2122 H2106 0.959 . S
C2122 H2107 0.959 . S
C2122 H2108 0.961 . S
C2122 C2121 1.502 . S
C2123 H2109 0.960 . S
C2123 H2110 0.961 . S
C2123 H2111 0.959 . S
C2123 C2121 1.561 . S
C2124 C2121 1.526 . S
C2124 C2125 1.396 . S
C2124 C2129 1.390 . S
C2125 C2119 1.465 . S
C2125 C2124 1.396 . S
C2125 C2126 1.399 . S
C2126 H2112 0.929 . S
C2126 C2125 1.399 . S
C2126 C2127 1.385 . S
C2127 H2113 0.931 . S
C2127 C2126 1.385 . S
C2127 C2128 1.389 . S
C2128 C2127 1.389 . S
C2128 C2129 1.387 . S
C2129 H2114 0.930 . S
C2129 C2124 1.390 . S
C2129 C2128 1.387 . S
H2130 C2142 0.930 . S
H2131 C2144 0.930 . S
H2132 C2145 0.930 . S
H2133 C2149 0.959 . S
H2134 C2149 0.959 . S
H2135 C2149 0.961 . S
H2136 C2150 0.960 . S
H2137 C2150 0.961 . S
H2138 C2150 0.959 . S
H2139 C2153 0.929 . S
H2140 C2154 0.931 . S
H2141 C2156 0.930 . S
C2142 H2130 0.930 . S
C2142 C2143 1.399 . S
C2142 C2147 1.399 . S
C2143 C2142 1.399 . S
C2143 C2144 1.376 . S
C2144 H2131 0.930 . S
C2144 C2143 1.376 . S
C2144 C2145 1.388 . S
C2145 H2132 0.930 . S
C2145 C2144 1.388 . S
C2145 C2146 1.390 . S
C2146 C2145 1.390 . S
C2146 C2147 1.394 . S
C2146 C2152 1.465 . S
C2147 C2142 1.399 . S
C2147 C2146 1.394 . S
C2147 C2148 1.516 . S
C2148 C2147 1.516 . S
C2148 C2149 1.502 . S
C2148 C2150 1.561 . S
C2148 C2151 1.526 . S
C2149 H2133 0.959 . S
C2149 H2134 0.959 . S
C2149 H2135 0.961 . S
C2149 C2148 1.502 . S
C2150 H2136 0.960 . S
C2150 H2137 0.961 . S
C2150 H2138 0.959 . S
C2150 C2148 1.561 . S
C2151 C2148 1.526 . S
C2151 C2152 1.396 . S
C2151 C2156 1.390 . S
C2152 C2146 1.465 . S
C2152 C2151 1.396 . S
C2152 C2153 1.399 . S
C2153 H2139 0.929 . S
C2153 C2152 1.399 . S
C2153 C2154 1.385 . S
C2154 H2140 0.931 . S
C2154 C2153 1.385 . S
C2154 C2155 1.389 . S
C2155 C2154 1.389 . S
C2155 C2156 1.387 . S
C2156 H2141 0.930 . S
C2156 C2151 1.390 . S
C2156 C2155 1.387 . S
H2157 C2169 0.930 . S
H2158 C2171 0.930 . S
H2159 C2172 0.930 . S
H2160 C2176 0.959 . S
H2161 C2176 0.959 . S
H2162 C2176 0.961 . S
H2163 C2177 0.960 . S
H2164 C2177 0.961 . S
H2165 C2177 0.959 . S
H2166 C2180 0.929 . S
H2167 C2181 0.931 . S
H2168 C2183 0.930 . S
C2169 H2157 0.930 . S
C2169 C2170 1.399 . S
C2169 C2174 1.399 . S
C2170 C2169 1.399 . S
C2170 C2171 1.376 . S
C2171 H2158 0.930 . S
C2171 C2170 1.376 . S
C2171 C2172 1.388 . S
C2172 H2159 0.930 . S
C2172 C2171 1.388 . S
C2172 C2173 1.390 . S
C2173 C2172 1.390 . S
C2173 C2174 1.394 . S
C2173 C2179 1.465 . S
C2174 C2169 1.399 . S
C2174 C2173 1.394 . S
C2174 C2175 1.516 . S
C2175 C2174 1.516 . S
C2175 C2176 1.502 . S
C2175 C2177 1.561 . S
C2175 C2178 1.526 . S
C2176 H2160 0.959 . S
C2176 H2161 0.959 . S
C2176 H2162 0.961 . S
C2176 C2175 1.502 . S
C2177 H2163 0.960 . S
C2177 H2164 0.961 . S
C2177 H2165 0.959 . S
C2177 C2175 1.561 . S
C2178 C2175 1.526 . S
C2178 C2179 1.396 . S
C2178 C2183 1.390 . S
C2179 C2173 1.465 . S
C2179 C2178 1.396 . S
C2179 C2180 1.399 . S
C2180 H2166 0.929 . S
C2180 C2179 1.399 . S
C2180 C2181 1.385 . S
C2181 H2167 0.931 . S
C2181 C2180 1.385 . S
C2181 C2182 1.389 . S
C2182 C2181 1.389 . S
C2182 C2183 1.387 . S
C2183 H2168 0.930 . S
C2183 C2178 1.390 . S
C2183 C2182 1.387 . S
H2184 C2196 0.930 . S
H2185 C2198 0.930 . S
H2186 C2199 0.930 . S
H2187 C2203 0.959 . S
H2188 C2203 0.959 . S
H2189 C2203 0.961 . S
H2190 C2204 0.960 . S
H2191 C2204 0.961 . S
H2192 C2204 0.959 . S
H2193 C2207 0.929 . S
H2194 C2208 0.931 . S
H2195 C2210 0.930 . S
C2196 H2184 0.930 . S
C2196 C2197 1.399 . S
C2196 C2201 1.399 . S
C2197 C2196 1.399 . S
C2197 C2198 1.376 . S
C2198 H2185 0.930 . S
C2198 C2197 1.376 . S
C2198 C2199 1.388 . S
C2199 H2186 0.930 . S
C2199 C2198 1.388 . S
C2199 C2200 1.390 . S
C2200 C2199 1.390 . S
C2200 C2201 1.394 . S
C2200 C2206 1.465 . S
C2201 C2196 1.399 . S
C2201 C2200 1.394 . S
C2201 C2202 1.516 . S
C2202 C2201 1.516 . S
C2202 C2203 1.502 . S
C2202 C2204 1.561 . S
C2202 C2205 1.526 . S
C2203 H2187 0.959 . S
C2203 H2188 0.959 . S
C2203 H2189 0.961 . S
C2203 C2202 1.502 . S
C2204 H2190 0.960 . S
C2204 H2191 0.961 . S
C2204 H2192 0.959 . S
C2204 C2202 1.561 . S
C2205 C2202 1.526 . S
C2205 C2206 1.396 . S
C2205 C2210 1.390 . S
C2206 C2200 1.465 . S
C2206 C2205 1.396 . S
C2206 C2207 1.399 . S
C2207 H2193 0.929 . S
C2207 C2206 1.399 . S
C2207 C2208 1.385 . S
C2208 H2194 0.931 . S
C2208 C2207 1.385 . S
C2208 C2209 1.389 . S
C2209 C2208 1.389 . S
C2209 C2210 1.387 . S
C2210 H2195 0.930 . S
C2210 C2205 1.390 . S
C2210 C2209 1.387 . S
H2211 C2223 0.930 . S
H2212 C2225 0.930 . S
H2213 C2226 0.930 . S
H2214 C2230 0.959 . S
H2215 C2230 0.959 . S
H2216 C2230 0.961 . S
H2217 C2231 0.960 . S
H2218 C2231 0.961 . S
H2219 C2231 0.959 . S
H2220 C2234 0.929 . S
H2221 C2235 0.931 . S
H2222 C2237 0.930 . S
C2223 H2211 0.930 . S
C2223 C2224 1.399 . S
C2223 C2228 1.399 . S
C2224 C2223 1.399 . S
C2224 C2225 1.376 . S
C2225 H2212 0.930 . S
C2225 C2224 1.376 . S
C2225 C2226 1.388 . S
C2226 H2213 0.930 . S
C2226 C2225 1.388 . S
C2226 C2227 1.390 . S
C2227 C2226 1.390 . S
C2227 C2228 1.394 . S
C2227 C2233 1.465 . S
C2228 C2223 1.399 . S
C2228 C2227 1.394 . S
C2228 C2229 1.516 . S
C2229 C2228 1.516 . S
C2229 C2230 1.502 . S
C2229 C2231 1.561 . S
C2229 C2232 1.526 . S
C2230 H2214 0.959 . S
C2230 H2215 0.959 . S
C2230 H2216 0.961 . S
C2230 C2229 1.502 . S
C2231 H2217 0.960 . S
C2231 H2218 0.961 . S
C2231 H2219 0.959 . S
C2231 C2229 1.561 . S
C2232 C2229 1.526 . S
C2232 C2233 1.396 . S
C2232 C2237 1.390 . S
C2233 C2227 1.465 . S
C2233 C2232 1.396 . S
C2233 C2234 1.399 . S
C2234 H2220 0.929 . S
C2234 C2233 1.399 . S
C2234 C2235 1.385 . S
C2235 H2221 0.931 . S
C2235 C2234 1.385 . S
C2235 C2236 1.389 . S
C2236 C2235 1.389 . S
C2236 C2237 1.387 . S
C2237 H2222 0.930 . S
C2237 C2232 1.390 . S
C2237 C2236 1.387 . S
H2238 C2250 0.930 . S
H2239 C2252 0.930 . S
H2240 C2253 0.930 . S
H2241 C2257 0.959 . S
H2242 C2257 0.959 . S
H2243 C2257 0.961 . S
H2244 C2258 0.960 . S
H2245 C2258 0.961 . S
H2246 C2258 0.959 . S
H2247 C2261 0.929 . S
H2248 C2262 0.931 . S
H2249 C2264 0.930 . S
C2250 H2238 0.930 . S
C2250 C2251 1.399 . S
C2250 C2255 1.399 . S
C2251 C2250 1.399 . S
C2251 C2252 1.376 . S
C2252 H2239 0.930 . S
C2252 C2251 1.376 . S
C2252 C2253 1.388 . S
C2253 H2240 0.930 . S
C2253 C2252 1.388 . S
C2253 C2254 1.390 . S
C2254 C2253 1.390 . S
C2254 C2255 1.394 . S
C2254 C2260 1.465 . S
C2255 C2250 1.399 . S
C2255 C2254 1.394 . S
C2255 C2256 1.516 . S
C2256 C2255 1.516 . S
C2256 C2257 1.502 . S
C2256 C2258 1.561 . S
C2256 C2259 1.526 . S
C2257 H2241 0.959 . S
C2257 H2242 0.959 . S
C2257 H2243 0.961 . S
C2257 C2256 1.502 . S
C2258 H2244 0.960 . S
C2258 H2245 0.961 . S
C2258 H2246 0.959 . S
C2258 C2256 1.561 . S
C2259 C2256 1.526 . S
C2259 C2260 1.396 . S
C2259 C2264 1.390 . S
C2260 C2254 1.465 . S
C2260 C2259 1.396 . S
C2260 C2261 1.399 . S
C2261 H2247 0.929 . S
C2261 C2260 1.399 . S
C2261 C2262 1.385 . S
C2262 H2248 0.931 . S
C2262 C2261 1.385 . S
C2262 C2263 1.389 . S
C2263 C2262 1.389 . S
C2263 C2264 1.387 . S
C2264 H2249 0.930 . S
C2264 C2259 1.390 . S
C2264 C2263 1.387 . S
H2265 C2277 0.930 . S
H2266 C2279 0.930 . S
H2267 C2280 0.930 . S
H2268 C2284 0.959 . S
H2269 C2284 0.959 . S
H2270 C2284 0.961 . S
H2271 C2285 0.960 . S
H2272 C2285 0.961 . S
H2273 C2285 0.959 . S
H2274 C2288 0.929 . S
H2275 C2289 0.931 . S
H2276 C2291 0.930 . S
C2277 H2265 0.930 . S
C2277 C2278 1.399 . S
C2277 C2282 1.399 . S
C2278 C2277 1.399 . S
C2278 C2279 1.376 . S
C2279 H2266 0.930 . S
C2279 C2278 1.376 . S
C2279 C2280 1.388 . S
C2280 H2267 0.930 . S
C2280 C2279 1.388 . S
C2280 C2281 1.390 . S
C2281 C2280 1.390 . S
C2281 C2282 1.394 . S
C2281 C2287 1.465 . S
C2282 C2277 1.399 . S
C2282 C2281 1.394 . S
C2282 C2283 1.516 . S
C2283 C2282 1.516 . S
C2283 C2284 1.502 . S
C2283 C2285 1.561 . S
C2283 C2286 1.526 . S
C2284 H2268 0.959 . S
C2284 H2269 0.959 . S
C2284 H2270 0.961 . S
C2284 C2283 1.502 . S
C2285 H2271 0.960 . S
C2285 H2272 0.961 . S
C2285 H2273 0.959 . S
C2285 C2283 1.561 . S
C2286 C2283 1.526 . S
C2286 C2287 1.396 . S
C2286 C2291 1.390 . S
C2287 C2281 1.465 . S
C2287 C2286 1.396 . S
C2287 C2288 1.399 . S
C2288 H2274 0.929 . S
C2288 C2287 1.399 . S
C2288 C2289 1.385 . S
C2289 H2275 0.931 . S
C2289 C2288 1.385 . S
C2289 C2290 1.389 . S
C2290 C2289 1.389 . S
C2290 C2291 1.387 . S
C2291 H2276 0.930 . S
C2291 C2286 1.390 . S
C2291 C2290 1.387 . S
H2292 C2304 0.930 . S
H2293 C2306 0.930 . S
H2294 C2307 0.930 . S
H2295 C2311 0.959 . S
H2296 C2311 0.959 . S
H2297 C2311 0.961 . S
H2298 C2312 0.960 . S
H2299 C2312 0.961 . S
H2300 C2312 0.959 . S
H2301 C2315 0.929 . S
H2302 C2316 0.931 . S
H2303 C2318 0.930 . S
C2304 H2292 0.930 . S
C2304 C2305 1.399 . S
C2304 C2309 1.399 . S
C2305 C2304 1.399 . S
C2305 C2306 1.376 . S
C2306 H2293 0.930 . S
C2306 C2305 1.376 . S
C2306 C2307 1.388 . S
C2307 H2294 0.930 . S
C2307 C2306 1.388 . S
C2307 C2308 1.390 . S
C2308 C2307 1.390 . S
C2308 C2309 1.394 . S
C2308 C2314 1.465 . S
C2309 C2304 1.399 . S
C2309 C2308 1.394 . S
C2309 C2310 1.516 . S
C2310 C2309 1.516 . S
C2310 C2311 1.502 . S
C2310 C2312 1.561 . S
C2310 C2313 1.526 . S
C2311 H2295 0.959 . S
C2311 H2296 0.959 . S
C2311 H2297 0.961 . S
C2311 C2310 1.502 . S
C2312 H2298 0.960 . S
C2312 H2299 0.961 . S
C2312 H2300 0.959 . S
C2312 C2310 1.561 . S
C2313 C2310 1.526 . S
C2313 C2314 1.396 . S
C2313 C2318 1.390 . S
C2314 C2308 1.465 . S
C2314 C2313 1.396 . S
C2314 C2315 1.399 . S
C2315 H2301 0.929 . S
C2315 C2314 1.399 . S
C2315 C2316 1.385 . S
C2316 H2302 0.931 . S
C2316 C2315 1.385 . S
C2316 C2317 1.389 . S
C2317 C2316 1.389 . S
C2317 C2318 1.387 . S
C2318 H2303 0.930 . S
C2318 C2313 1.390 . S
C2318 C2317 1.387 . S
H2319 C2331 0.930 . S
H2320 C2333 0.930 . S
H2321 C2334 0.930 . S
H2322 C2338 0.959 . S
H2323 C2338 0.959 . S
H2324 C2338 0.961 . S
H2325 C2339 0.960 . S
H2326 C2339 0.961 . S
H2327 C2339 0.959 . S
H2328 C2342 0.929 . S
H2329 C2343 0.931 . S
H2330 C2345 0.930 . S
C2331 H2319 0.930 . S
C2331 C2332 1.399 . S
C2331 C2336 1.399 . S
C2332 C2331 1.399 . S
C2332 C2333 1.376 . S
C2333 H2320 0.930 . S
C2333 C2332 1.376 . S
C2333 C2334 1.388 . S
C2334 H2321 0.930 . S
C2334 C2333 1.388 . S
C2334 C2335 1.390 . S
C2335 C2334 1.390 . S
C2335 C2336 1.394 . S
C2335 C2341 1.465 . S
C2336 C2331 1.399 . S
C2336 C2335 1.394 . S
C2336 C2337 1.516 . S
C2337 C2336 1.516 . S
C2337 C2338 1.502 . S
C2337 C2339 1.561 . S
C2337 C2340 1.526 . S
C2338 H2322 0.959 . S
C2338 H2323 0.959 . S
C2338 H2324 0.961 . S
C2338 C2337 1.502 . S
C2339 H2325 0.960 . S
C2339 H2326 0.961 . S
C2339 H2327 0.959 . S
C2339 C2337 1.561 . S
C2340 C2337 1.526 . S
C2340 C2341 1.396 . S
C2340 C2345 1.390 . S
C2341 C2335 1.465 . S
C2341 C2340 1.396 . S
C2341 C2342 1.399 . S
C2342 H2328 0.929 . S
C2342 C2341 1.399 . S
C2342 C2343 1.385 . S
C2343 H2329 0.931 . S
C2343 C2342 1.385 . S
C2343 C2344 1.389 . S
C2344 C2343 1.389 . S
C2344 C2345 1.387 . S
C2345 H2330 0.930 . S
C2345 C2340 1.390 . S
C2345 C2344 1.387 . S
H2346 C2358 0.930 . S
H2347 C2360 0.930 . S
H2348 C2361 0.930 . S
H2349 C2365 0.959 . S
H2350 C2365 0.959 . S
H2351 C2365 0.961 . S
H2352 C2366 0.960 . S
H2353 C2366 0.961 . S
H2354 C2366 0.959 . S
H2355 C2369 0.929 . S
H2356 C2370 0.931 . S
H2357 C2372 0.930 . S
C2358 H2346 0.930 . S
C2358 C2359 1.399 . S
C2358 C2363 1.399 . S
C2359 C2358 1.399 . S
C2359 C2360 1.376 . S
C2360 H2347 0.930 . S
C2360 C2359 1.376 . S
C2360 C2361 1.388 . S
C2361 H2348 0.930 . S
C2361 C2360 1.388 . S
C2361 C2362 1.390 . S
C2362 C2361 1.390 . S
C2362 C2363 1.394 . S
C2362 C2368 1.465 . S
C2363 C2358 1.399 . S
C2363 C2362 1.394 . S
C2363 C2364 1.516 . S
C2364 C2363 1.516 . S
C2364 C2365 1.502 . S
C2364 C2366 1.561 . S
C2364 C2367 1.526 . S
C2365 H2349 0.959 . S
C2365 H2350 0.959 . S
C2365 H2351 0.961 . S
C2365 C2364 1.502 . S
C2366 H2352 0.960 . S
C2366 H2353 0.961 . S
C2366 H2354 0.959 . S
C2366 C2364 1.561 . S
C2367 C2364 1.526 . S
C2367 C2368 1.396 . S
C2367 C2372 1.390 . S
C2368 C2362 1.465 . S
C2368 C2367 1.396 . S
C2368 C2369 1.399 . S
C2369 H2355 0.929 . S
C2369 C2368 1.399 . S
C2369 C2370 1.385 . S
C2370 H2356 0.931 . S
C2370 C2369 1.385 . S
C2370 C2371 1.389 . S
C2371 C2370 1.389 . S
C2371 C2372 1.387 . S
C2372 H2357 0.930 . S
C2372 C2367 1.390 . S
C2372 C2371 1.387 . S
H2373 C2385 0.930 . S
H2374 C2387 0.930 . S
H2375 C2388 0.930 . S
H2376 C2392 0.959 . S
H2377 C2392 0.959 . S
H2378 C2392 0.961 . S
H2379 C2393 0.960 . S
H2380 C2393 0.961 . S
H2381 C2393 0.959 . S
H2382 C2396 0.929 . S
H2383 C2397 0.931 . S
H2384 C2399 0.930 . S
C2385 H2373 0.930 . S
C2385 C2386 1.399 . S
C2385 C2390 1.399 . S
C2386 C2385 1.399 . S
C2386 C2387 1.376 . S
C2387 H2374 0.930 . S
C2387 C2386 1.376 . S
C2387 C2388 1.388 . S
C2388 H2375 0.930 . S
C2388 C2387 1.388 . S
C2388 C2389 1.390 . S
C2389 C2388 1.390 . S
C2389 C2390 1.394 . S
C2389 C2395 1.465 . S
C2390 C2385 1.399 . S
C2390 C2389 1.394 . S
C2390 C2391 1.516 . S
C2391 C2390 1.516 . S
C2391 C2392 1.502 . S
C2391 C2393 1.561 . S
C2391 C2394 1.526 . S
C2392 H2376 0.959 . S
C2392 H2377 0.959 . S
C2392 H2378 0.961 . S
C2392 C2391 1.502 . S
C2393 H2379 0.960 . S
C2393 H2380 0.961 . S
C2393 H2381 0.959 . S
C2393 C2391 1.561 . S
C2394 C2391 1.526 . S
C2394 C2395 1.396 . S
C2394 C2399 1.390 . S
C2395 C2389 1.465 . S
C2395 C2394 1.396 . S
C2395 C2396 1.399 . S
C2396 H2382 0.929 . S
C2396 C2395 1.399 . S
C2396 C2397 1.385 . S
C2397 H2383 0.931 . S
C2397 C2396 1.385 . S
C2397 C2398 1.389 . S
C2398 C2397 1.389 . S
C2398 C2399 1.387 . S
C2399 H2384 0.930 . S
C2399 C2394 1.390 . S
C2399 C2398 1.387 . S
H2400 C2412 0.930 . S
H2401 C2414 0.930 . S
H2402 C2415 0.930 . S
H2403 C2419 0.959 . S
H2404 C2419 0.959 . S
H2405 C2419 0.961 . S
H2406 C2420 0.960 . S
H2407 C2420 0.961 . S
H2408 C2420 0.959 . S
H2409 C2423 0.929 . S
H2410 C2424 0.931 . S
H2411 C2426 0.930 . S
C2412 H2400 0.930 . S
C2412 C2413 1.399 . S
C2412 C2417 1.399 . S
C2413 C2412 1.399 . S
C2413 C2414 1.376 . S
C2414 H2401 0.930 . S
C2414 C2413 1.376 . S
C2414 C2415 1.388 . S
C2415 H2402 0.930 . S
C2415 C2414 1.388 . S
C2415 C2416 1.390 . S
C2416 C2415 1.390 . S
C2416 C2417 1.394 . S
C2416 C2422 1.465 . S
C2417 C2412 1.399 . S
C2417 C2416 1.394 . S
C2417 C2418 1.516 . S
C2418 C2417 1.516 . S
C2418 C2419 1.502 . S
C2418 C2420 1.561 . S
C2418 C2421 1.526 . S
C2419 H2403 0.959 . S
C2419 H2404 0.959 . S
C2419 H2405 0.961 . S
C2419 C2418 1.502 . S
C2420 H2406 0.960 . S
C2420 H2407 0.961 . S
C2420 H2408 0.959 . S
C2420 C2418 1.561 . S
C2421 C2418 1.526 . S
C2421 C2422 1.396 . S
C2421 C2426 1.390 . S
C2422 C2416 1.465 . S
C2422 C2421 1.396 . S
C2422 C2423 1.399 . S
C2423 H2409 0.929 . S
C2423 C2422 1.399 . S
C2423 C2424 1.385 . S
C2424 H2410 0.931 . S
C2424 C2423 1.385 . S
C2424 C2425 1.389 . S
C2425 C2424 1.389 . S
C2425 C2426 1.387 . S
C2426 H2411 0.930 . S
C2426 C2421 1.390 . S
C2426 C2425 1.387 . S
H2427 C2439 0.930 . S
H2428 C2441 0.930 . S
H2429 C2442 0.930 . S
H2430 C2446 0.959 . S
H2431 C2446 0.959 . S
H2432 C2446 0.961 . S
H2433 C2447 0.960 . S
H2434 C2447 0.961 . S
H2435 C2447 0.959 . S
H2436 C2450 0.929 . S
H2437 C2451 0.931 . S
H2438 C2453 0.930 . S
C2439 H2427 0.930 . S
C2439 C2440 1.399 . S
C2439 C2444 1.399 . S
C2440 C2439 1.399 . S
C2440 C2441 1.376 . S
C2441 H2428 0.930 . S
C2441 C2440 1.376 . S
C2441 C2442 1.388 . S
C2442 H2429 0.930 . S
C2442 C2441 1.388 . S
C2442 C2443 1.390 . S
C2443 C2442 1.390 . S
C2443 C2444 1.394 . S
C2443 C2449 1.465 . S
C2444 C2439 1.399 . S
C2444 C2443 1.394 . S
C2444 C2445 1.516 . S
C2445 C2444 1.516 . S
C2445 C2446 1.502 . S
C2445 C2447 1.561 . S
C2445 C2448 1.526 . S
C2446 H2430 0.959 . S
C2446 H2431 0.959 . S
C2446 H2432 0.961 . S
C2446 C2445 1.502 . S
C2447 H2433 0.960 . S
C2447 H2434 0.961 . S
C2447 H2435 0.959 . S
C2447 C2445 1.561 . S
C2448 C2445 1.526 . S
C2448 C2449 1.396 . S
C2448 C2453 1.390 . S
C2449 C2443 1.465 . S
C2449 C2448 1.396 . S
C2449 C2450 1.399 . S
C2450 H2436 0.929 . S
C2450 C2449 1.399 . S
C2450 C2451 1.385 . S
C2451 H2437 0.931 . S
C2451 C2450 1.385 . S
C2451 C2452 1.389 . S
C2452 C2451 1.389 . S
C2452 C2453 1.387 . S
C2453 H2438 0.930 . S
C2453 C2448 1.390 . S
C2453 C2452 1.387 . S
H2454 C2466 0.930 . S
H2455 C2468 0.930 . S
H2456 C2469 0.930 . S
H2457 C2473 0.959 . S
H2458 C2473 0.959 . S
H2459 C2473 0.961 . S
H2460 C2474 0.960 . S
H2461 C2474 0.961 . S
H2462 C2474 0.959 . S
H2463 C2477 0.929 . S
H2464 C2478 0.931 . S
H2465 C2480 0.930 . S
C2466 H2454 0.930 . S
C2466 C2467 1.399 . S
C2466 C2471 1.399 . S
C2467 C2466 1.399 . S
C2467 C2468 1.376 . S
C2468 H2455 0.930 . S
C2468 C2467 1.376 . S
C2468 C2469 1.388 . S
C2469 H2456 0.930 . S
C2469 C2468 1.388 . S
C2469 C2470 1.390 . S
C2470 C2469 1.390 . S
C2470 C2471 1.394 . S
C2470 C2476 1.465 . S
C2471 C2466 1.399 . S
C2471 C2470 1.394 . S
C2471 C2472 1.516 . S
C2472 C2471 1.516 . S
C2472 C2473 1.502 . S
C2472 C2474 1.561 . S
C2472 C2475 1.526 . S
C2473 H2457 0.959 . S
C2473 H2458 0.959 . S
C2473 H2459 0.961 . S
C2473 C2472 1.502 . S
C2474 H2460 0.960 . S
C2474 H2461 0.961 . S
C2474 H2462 0.959 . S
C2474 C2472 1.561 . S
C2475 C2472 1.526 . S
C2475 C2476 1.396 . S
C2475 C2480 1.390 . S
C2476 C2470 1.465 . S
C2476 C2475 1.396 . S
C2476 C2477 1.399 . S
C2477 H2463 0.929 . S
C2477 C2476 1.399 . S
C2477 C2478 1.385 . S
C2478 H2464 0.931 . S
C2478 C2477 1.385 . S
C2478 C2479 1.389 . S
C2479 C2478 1.389 . S
C2479 C2480 1.387 . S
C2480 H2465 0.930 . S
C2480 C2475 1.390 . S
C2480 C2479 1.387 . S
H2481 C2493 0.930 . S
H2482 C2495 0.930 . S
H2483 C2496 0.930 . S
H2484 C2500 0.959 . S
H2485 C2500 0.959 . S
H2486 C2500 0.961 . S
H2487 C2501 0.960 . S
H2488 C2501 0.961 . S
H2489 C2501 0.959 . S
H2490 C2504 0.929 . S
H2491 C2505 0.931 . S
H2492 C2507 0.930 . S
C2493 H2481 0.930 . S
C2493 C2494 1.399 . S
C2493 C2498 1.399 . S
C2494 C2493 1.399 . S
C2494 C2495 1.376 . S
C2495 H2482 0.930 . S
C2495 C2494 1.376 . S
C2495 C2496 1.388 . S
C2496 H2483 0.930 . S
C2496 C2495 1.388 . S
C2496 C2497 1.390 . S
C2497 C2496 1.390 . S
C2497 C2498 1.394 . S
C2497 C2503 1.465 . S
C2498 C2493 1.399 . S
C2498 C2497 1.394 . S
C2498 C2499 1.516 . S
C2499 C2498 1.516 . S
C2499 C2500 1.502 . S
C2499 C2501 1.561 . S
C2499 C2502 1.526 . S
C2500 H2484 0.959 . S
C2500 H2485 0.959 . S
C2500 H2486 0.961 . S
C2500 C2499 1.502 . S
C2501 H2487 0.960 . S
C2501 H2488 0.961 . S
C2501 H2489 0.959 . S
C2501 C2499 1.561 . S
C2502 C2499 1.526 . S
C2502 C2503 1.396 . S
C2502 C2507 1.390 . S
C2503 C2497 1.465 . S
C2503 C2502 1.396 . S
C2503 C2504 1.399 . S
C2504 H2490 0.929 . S
C2504 C2503 1.399 . S
C2504 C2505 1.385 . S
C2505 H2491 0.931 . S
C2505 C2504 1.385 . S
C2505 C2506 1.389 . S
C2506 C2505 1.389 . S
C2506 C2507 1.387 . S
C2507 H2492 0.930 . S
C2507 C2502 1.390 . S
C2507 C2506 1.387 . S
H2508 C2520 0.930 . S
H2509 C2522 0.930 . S
H2510 C2523 0.930 . S
H2511 C2527 0.959 . S
H2512 C2527 0.959 . S
H2513 C2527 0.961 . S
H2514 C2528 0.960 . S
H2515 C2528 0.961 . S
H2516 C2528 0.959 . S
H2517 C2531 0.929 . S
H2518 C2532 0.931 . S
H2519 C2534 0.930 . S
C2520 H2508 0.930 . S
C2520 C2521 1.399 . S
C2520 C2525 1.399 . S
C2521 C2520 1.399 . S
C2521 C2522 1.376 . S
C2522 H2509 0.930 . S
C2522 C2521 1.376 . S
C2522 C2523 1.388 . S
C2523 H2510 0.930 . S
C2523 C2522 1.388 . S
C2523 C2524 1.390 . S
C2524 C2523 1.390 . S
C2524 C2525 1.394 . S
C2524 C2530 1.465 . S
C2525 C2520 1.399 . S
C2525 C2524 1.394 . S
C2525 C2526 1.516 . S
C2526 C2525 1.516 . S
C2526 C2527 1.502 . S
C2526 C2528 1.561 . S
C2526 C2529 1.526 . S
C2527 H2511 0.959 . S
C2527 H2512 0.959 . S
C2527 H2513 0.961 . S
C2527 C2526 1.502 . S
C2528 H2514 0.960 . S
C2528 H2515 0.961 . S
C2528 H2516 0.959 . S
C2528 C2526 1.561 . S
C2529 C2526 1.526 . S
C2529 C2530 1.396 . S
C2529 C2534 1.390 . S
C2530 C2524 1.465 . S
C2530 C2529 1.396 . S
C2530 C2531 1.399 . S
C2531 H2517 0.929 . S
C2531 C2530 1.399 . S
C2531 C2532 1.385 . S
C2532 H2518 0.931 . S
C2532 C2531 1.385 . S
C2532 C2533 1.389 . S
C2533 C2532 1.389 . S
C2533 C2534 1.387 . S
C2534 H2519 0.930 . S
C2534 C2529 1.390 . S
C2534 C2533 1.387 . S
H2535 C2547 0.930 . S
H2536 C2549 0.930 . S
H2537 C2550 0.930 . S
H2538 C2554 0.959 . S
H2539 C2554 0.959 . S
H2540 C2554 0.961 . S
H2541 C2555 0.960 . S
H2542 C2555 0.961 . S
H2543 C2555 0.959 . S
H2544 C2558 0.929 . S
H2545 C2559 0.931 . S
H2546 C2561 0.930 . S
C2547 H2535 0.930 . S
C2547 C2548 1.399 . S
C2547 C2552 1.399 . S
C2548 C2547 1.399 . S
C2548 C2549 1.376 . S
C2549 H2536 0.930 . S
C2549 C2548 1.376 . S
C2549 C2550 1.388 . S
C2550 H2537 0.930 . S
C2550 C2549 1.388 . S
C2550 C2551 1.390 . S
C2551 C2550 1.390 . S
C2551 C2552 1.394 . S
C2551 C2557 1.465 . S
C2552 C2547 1.399 . S
C2552 C2551 1.394 . S
C2552 C2553 1.516 . S
C2553 C2552 1.516 . S
C2553 C2554 1.502 . S
C2553 C2555 1.561 . S
C2553 C2556 1.526 . S
C2554 H2538 0.959 . S
C2554 H2539 0.959 . S
C2554 H2540 0.961 . S
C2554 C2553 1.502 . S
C2555 H2541 0.960 . S
C2555 H2542 0.961 . S
C2555 H2543 0.959 . S
C2555 C2553 1.561 . S
C2556 C2553 1.526 . S
C2556 C2557 1.396 . S
C2556 C2561 1.390 . S
C2557 C2551 1.465 . S
C2557 C2556 1.396 . S
C2557 C2558 1.399 . S
C2558 H2544 0.929 . S
C2558 C2557 1.399 . S
C2558 C2559 1.385 . S
C2559 H2545 0.931 . S
C2559 C2558 1.385 . S
C2559 C2560 1.389 . S
C2560 C2559 1.389 . S
C2560 C2561 1.387 . S
C2561 H2546 0.930 . S
C2561 C2556 1.390 . S
C2561 C2560 1.387 . S
H2562 C2574 0.930 . S
H2563 C2576 0.930 . S
H2564 C2577 0.930 . S
H2565 C2581 0.959 . S
H2566 C2581 0.959 . S
H2567 C2581 0.961 . S
H2568 C2582 0.960 . S
H2569 C2582 0.961 . S
H2570 C2582 0.959 . S
H2571 C2585 0.929 . S
H2572 C2586 0.931 . S
H2573 C2588 0.930 . S
C2574 H2562 0.930 . S
C2574 C2575 1.399 . S
C2574 C2579 1.399 . S
C2575 C2574 1.399 . S
C2575 C2576 1.376 . S
C2576 H2563 0.930 . S
C2576 C2575 1.376 . S
C2576 C2577 1.388 . S
C2577 H2564 0.930 . S
C2577 C2576 1.388 . S
C2577 C2578 1.390 . S
C2578 C2577 1.390 . S
C2578 C2579 1.394 . S
C2578 C2584 1.465 . S
C2579 C2574 1.399 . S
C2579 C2578 1.394 . S
C2579 C2580 1.516 . S
C2580 C2579 1.516 . S
C2580 C2581 1.502 . S
C2580 C2582 1.561 . S
C2580 C2583 1.526 . S
C2581 H2565 0.959 . S
C2581 H2566 0.959 . S
C2581 H2567 0.961 . S
C2581 C2580 1.502 . S
C2582 H2568 0.960 . S
C2582 H2569 0.961 . S
C2582 H2570 0.959 . S
C2582 C2580 1.561 . S
C2583 C2580 1.526 . S
C2583 C2584 1.396 . S
C2583 C2588 1.390 . S
C2584 C2578 1.465 . S
C2584 C2583 1.396 . S
C2584 C2585 1.399 . S
C2585 H2571 0.929 . S
C2585 C2584 1.399 . S
C2585 C2586 1.385 . S
C2586 H2572 0.931 . S
C2586 C2585 1.385 . S
C2586 C2587 1.389 . S
C2587 C2586 1.389 . S
C2587 C2588 1.387 . S
C2588 H2573 0.930 . S
C2588 C2583 1.390 . S
C2588 C2587 1.387 . S
H2589 C2601 0.930 . S
H2590 C2603 0.930 . S
H2591 C2604 0.930 . S
H2592 C2608 0.959 . S
H2593 C2608 0.959 . S
H2594 C2608 0.961 . S
H2595 C2609 0.960 . S
H2596 C2609 0.961 . S
H2597 C2609 0.959 . S
H2598 C2612 0.929 . S
H2599 C2613 0.931 . S
H2600 C2615 0.930 . S
C2601 H2589 0.930 . S
C2601 C2602 1.399 . S
C2601 C2606 1.399 . S
C2602 C2601 1.399 . S
C2602 C2603 1.376 . S
C2603 H2590 0.930 . S
C2603 C2602 1.376 . S
C2603 C2604 1.388 . S
C2604 H2591 0.930 . S
C2604 C2603 1.388 . S
C2604 C2605 1.390 . S
C2605 C2604 1.390 . S
C2605 C2606 1.394 . S
C2605 C2611 1.465 . S
C2606 C2601 1.399 . S
C2606 C2605 1.394 . S
C2606 C2607 1.516 . S
C2607 C2606 1.516 . S
C2607 C2608 1.502 . S
C2607 C2609 1.561 . S
C2607 C2610 1.526 . S
C2608 H2592 0.959 . S
C2608 H2593 0.959 . S
C2608 H2594 0.961 . S
C2608 C2607 1.502 . S
C2609 H2595 0.960 . S
C2609 H2596 0.961 . S
C2609 H2597 0.959 . S
C2609 C2607 1.561 . S
C2610 C2607 1.526 . S
C2610 C2611 1.396 . S
C2610 C2615 1.390 . S
C2611 C2605 1.465 . S
C2611 C2610 1.396 . S
C2611 C2612 1.399 . S
C2612 H2598 0.929 . S
C2612 C2611 1.399 . S
C2612 C2613 1.385 . S
C2613 H2599 0.931 . S
C2613 C2612 1.385 . S
C2613 C2614 1.389 . S
C2614 C2613 1.389 . S
C2614 C2615 1.387 . S
C2615 H2600 0.930 . S
C2615 C2610 1.390 . S
C2615 C2614 1.387 . S
H2616 C2628 0.930 . S
H2617 C2630 0.930 1_455 S
H2618 C2631 0.913 1_455 S
H2619 C2635 0.959 . S
H2620 C2635 0.959 . S
H2621 C2635 0.961 . S
H2622 C2636 0.960 . S
H2623 C2636 0.955 1_655 S
H2624 C2636 0.959 . S
H2625 C2639 0.924 1_455 S
H2626 C2640 0.931 . S
H2627 C2642 0.930 . S
C2628 H2616 0.930 . S
C2628 C2629 1.399 . S
C2628 C2633 1.399 . S
C2629 C2628 1.399 . S
C2629 C2630 1.376 . S
C2630 H2617 0.930 1_655 S
C2630 C2629 1.376 . S
C2630 C2631 1.394 . S
C2631 H2618 0.913 1_655 S
C2631 C2630 1.394 . S
C2631 C2632 1.408 . S
C2632 C2631 1.408 . S
C2632 C2633 1.394 . S
C2632 C2638 1.465 . S
C2633 C2628 1.399 . S
C2633 C2632 1.394 . S
C2633 C2634 1.516 . S
C2634 C2633 1.516 . S
C2634 C2635 1.502 . S
C2634 C2636 1.561 1_655 S
C2634 C2637 1.526 . S
C2635 H2619 0.959 . S
C2635 H2620 0.959 . S
C2635 H2621 0.961 . S
C2635 C2634 1.502 . S
C2636 H2622 0.960 . S
C2636 H2623 0.955 1_455 S
C2636 H2624 0.959 . S
C2636 C2634 1.561 1_455 S
C2637 C2634 1.526 . S
C2637 C2638 1.396 . S
C2637 C2642 1.390 . S
C2638 C2632 1.465 . S
C2638 C2637 1.396 . S
C2638 C2639 1.399 . S
C2639 H2625 0.924 1_655 S
C2639 C2638 1.399 . S
C2639 C2640 1.385 . S
C2640 H2626 0.931 . S
C2640 C2639 1.385 . S
C2640 C2641 1.389 . S
C2641 C2640 1.389 . S
C2641 C2642 1.387 . S
C2642 H2627 0.930 . S
C2642 C2637 1.390 . S
C2642 C2641 1.387 . S
H2643 C2655 0.930 . S
H2644 C2657 0.930 . S
H2645 C2658 0.930 . S
H2646 C2662 0.959 . S
H2647 C2662 0.959 . S
H2648 C2662 0.961 . S
H2649 C2663 0.960 . S
H2650 C2663 0.961 . S
H2651 C2663 0.959 . S
H2652 C2666 0.929 . S
H2653 C2667 0.931 . S
H2654 C2669 0.930 . S
C2655 H2643 0.930 . S
C2655 C2656 1.399 . S
C2655 C2660 1.399 . S
C2656 C2655 1.399 . S
C2656 C2657 1.376 . S
C2657 H2644 0.930 . S
C2657 C2656 1.376 . S
C2657 C2658 1.388 . S
C2658 H2645 0.930 . S
C2658 C2657 1.388 . S
C2658 C2659 1.390 . S
C2659 C2658 1.390 . S
C2659 C2660 1.394 . S
C2659 C2665 1.465 . S
C2660 C2655 1.399 . S
C2660 C2659 1.394 . S
C2660 C2661 1.516 . S
C2661 C2660 1.516 . S
C2661 C2662 1.502 . S
C2661 C2663 1.561 . S
C2661 C2664 1.526 . S
C2662 H2646 0.959 . S
C2662 H2647 0.959 . S
C2662 H2648 0.961 . S
C2662 C2661 1.502 . S
C2663 H2649 0.960 . S
C2663 H2650 0.961 . S
C2663 H2651 0.959 . S
C2663 C2661 1.561 . S
C2664 C2661 1.526 . S
C2664 C2665 1.396 . S
C2664 C2669 1.390 . S
C2665 C2659 1.465 . S
C2665 C2664 1.396 . S
C2665 C2666 1.399 . S
C2666 H2652 0.929 . S
C2666 C2665 1.399 . S
C2666 C2667 1.385 . S
C2667 H2653 0.931 . S
C2667 C2666 1.385 . S
C2667 C2668 1.389 . S
C2668 C2667 1.389 . S
C2668 C2669 1.387 . S
C2669 H2654 0.930 . S
C2669 C2664 1.390 . S
C2669 C2668 1.387 . S
H2670 C2682 0.930 . S
H2671 C2684 0.930 . S
H2672 C2685 0.930 . S
H2673 C2689 0.959 . S
H2674 C2689 0.959 . S
H2675 C2689 0.961 . S
H2676 C2690 0.960 . S
H2677 C2690 0.961 . S
H2678 C2690 0.959 . S
H2679 C2693 0.929 . S
H2680 C2694 0.931 . S
H2681 C2696 0.930 . S
C2682 H2670 0.930 . S
C2682 C2683 1.399 . S
C2682 C2687 1.399 . S
C2683 C2682 1.399 . S
C2683 C2684 1.376 . S
C2684 H2671 0.930 . S
C2684 C2683 1.376 . S
C2684 C2685 1.388 . S
C2685 H2672 0.930 . S
C2685 C2684 1.388 . S
C2685 C2686 1.390 . S
C2686 C2685 1.390 . S
C2686 C2687 1.394 . S
C2686 C2692 1.465 . S
C2687 C2682 1.399 . S
C2687 C2686 1.394 . S
C2687 C2688 1.516 . S
C2688 C2687 1.516 . S
C2688 C2689 1.502 . S
C2688 C2690 1.561 . S
C2688 C2691 1.526 . S
C2689 H2673 0.959 . S
C2689 H2674 0.959 . S
C2689 H2675 0.961 . S
C2689 C2688 1.502 . S
C2690 H2676 0.960 . S
C2690 H2677 0.961 . S
C2690 H2678 0.959 . S
C2690 C2688 1.561 . S
C2691 C2688 1.526 . S
C2691 C2692 1.396 . S
C2691 C2696 1.390 . S
C2692 C2686 1.465 . S
C2692 C2691 1.396 . S
C2692 C2693 1.399 . S
C2693 H2679 0.929 . S
C2693 C2692 1.399 . S
C2693 C2694 1.385 . S
C2694 H2680 0.931 . S
C2694 C2693 1.385 . S
C2694 C2695 1.389 . S
C2695 C2694 1.389 . S
C2695 C2696 1.387 . S
C2696 H2681 0.930 . S
C2696 C2691 1.390 . S
C2696 C2695 1.387 . S
H2697 C2709 0.891 1_554 S
H2698 C2711 0.930 . S
H2699 C2712 0.930 . S
H2700 C2716 0.959 . S
H2701 C2716 0.959 . S
H2702 C2716 0.961 . S
H2703 C2717 0.939 1_554 S
H2704 C2717 0.961 1_554 S
H2705 C2717 0.959 . S
H2706 C2720 0.929 . S
H2707 C2721 0.931 . S
H2708 C2723 0.930 1_554 S
C2709 H2697 0.891 1_556 S
C2709 C2710 1.428 . S
C2709 C2714 1.412 . S
C2710 C2709 1.428 . S
C2710 C2711 1.376 . S
C2711 H2698 0.930 . S
C2711 C2710 1.376 . S
C2711 C2712 1.388 . S
C2712 H2699 0.930 . S
C2712 C2711 1.388 . S
C2712 C2713 1.390 . S
C2713 C2712 1.390 . S
C2713 C2714 1.394 . S
C2713 C2719 1.465 . S
C2714 C2709 1.412 . S
C2714 C2713 1.394 . S
C2714 C2715 1.516 1_556 S
C2715 C2714 1.516 1_554 S
C2715 C2716 1.502 . S
C2715 C2717 1.561 1_554 S
C2715 C2718 1.526 1_554 S
C2716 H2700 0.959 . S
C2716 H2701 0.959 . S
C2716 H2702 0.961 . S
C2716 C2715 1.502 . S
C2717 H2703 0.939 1_556 S
C2717 H2704 0.961 1_556 S
C2717 H2705 0.959 . S
C2717 C2715 1.561 1_556 S
C2718 C2715 1.526 1_556 S
C2718 C2719 1.396 . S
C2718 C2723 1.390 . S
C2719 C2713 1.465 . S
C2719 C2718 1.396 . S
C2719 C2720 1.399 . S
C2720 H2706 0.929 . S
C2720 C2719 1.399 . S
C2720 C2721 1.385 . S
C2721 H2707 0.931 . S
C2721 C2720 1.385 . S
C2721 C2722 1.389 . S
C2722 C2721 1.389 . S
C2722 C2723 1.387 . S
C2723 H2708 0.930 1_556 S
C2723 C2718 1.390 . S
C2723 C2722 1.387 . S
H2724 C2736 0.930 . S
H2725 C2738 0.930 . S
H2726 C2739 0.930 . S
H2727 C2743 0.959 . S
H2728 C2743 0.959 . S
H2729 C2743 0.961 . S
H2730 C2744 0.960 . S
H2731 C2744 0.961 . S
H2732 C2744 0.959 . S
H2733 C2747 0.929 . S
H2734 C2748 0.931 . S
H2735 C2750 0.930 . S
C2736 H2724 0.930 . S
C2736 C2737 1.399 . S
C2736 C2741 1.399 . S
C2737 C2736 1.399 . S
C2737 C2738 1.376 . S
C2738 H2725 0.930 . S
C2738 C2737 1.376 . S
C2738 C2739 1.388 . S
C2739 H2726 0.930 . S
C2739 C2738 1.388 . S
C2739 C2740 1.390 . S
C2740 C2739 1.390 . S
C2740 C2741 1.394 . S
C2740 C2746 1.465 . S
C2741 C2736 1.399 . S
C2741 C2740 1.394 . S
C2741 C2742 1.516 . S
C2742 C2741 1.516 . S
C2742 C2743 1.502 . S
C2742 C2744 1.561 1_655 S
C2742 C2745 1.526 . S
C2743 H2727 0.959 . S
C2743 H2728 0.959 . S
C2743 H2729 0.961 . S
C2743 C2742 1.502 . S
C2744 H2730 0.960 . S
C2744 H2731 0.961 . S
C2744 H2732 0.959 . S
C2744 C2742 1.561 1_455 S
C2745 C2742 1.526 . S
C2745 C2746 1.396 . S
C2745 C2750 1.390 . S
C2746 C2740 1.465 . S
C2746 C2745 1.396 . S
C2746 C2747 1.399 . S
C2747 H2733 0.929 . S
C2747 C2746 1.399 . S
C2747 C2748 1.385 . S
C2748 H2734 0.931 . S
C2748 C2747 1.385 . S
C2748 C2749 1.389 . S
C2749 C2748 1.389 . S
C2749 C2750 1.387 . S
C2750 H2735 0.930 . S
C2750 C2745 1.390 . S
C2750 C2749 1.387 . S
H2751 C2763 0.930 . S
H2752 C2765 0.930 . S
H2753 C2766 0.930 . S
H2754 C2770 0.959 . S
H2755 C2770 0.959 . S
H2756 C2770 0.961 . S
H2757 C2771 0.960 . S
H2758 C2771 0.961 . S
H2759 C2771 0.959 . S
H2760 C2774 0.929 . S
H2761 C2775 0.931 . S
H2762 C2777 0.930 . S
C2763 H2751 0.930 . S
C2763 C2764 1.399 . S
C2763 C2768 1.399 . S
C2764 C2763 1.399 . S
C2764 C2765 1.376 . S
C2765 H2752 0.930 . S
C2765 C2764 1.376 . S
C2765 C2766 1.388 . S
C2766 H2753 0.930 . S
C2766 C2765 1.388 . S
C2766 C2767 1.390 . S
C2767 C2766 1.390 . S
C2767 C2768 1.394 . S
C2767 C2773 1.465 . S
C2768 C2763 1.399 . S
C2768 C2767 1.394 . S
C2768 C2769 1.516 . S
C2769 C2768 1.516 . S
C2769 C2770 1.502 . S
C2769 C2771 1.561 . S
C2769 C2772 1.526 . S
C2770 H2754 0.959 . S
C2770 H2755 0.959 . S
C2770 H2756 0.961 . S
C2770 C2769 1.502 . S
C2771 H2757 0.960 . S
C2771 H2758 0.961 . S
C2771 H2759 0.959 . S
C2771 C2769 1.561 . S
C2772 C2769 1.526 . S
C2772 C2773 1.396 . S
C2772 C2777 1.390 . S
C2773 C2767 1.465 . S
C2773 C2772 1.396 . S
C2773 C2774 1.399 . S
C2774 H2760 0.929 . S
C2774 C2773 1.399 . S
C2774 C2775 1.385 . S
C2775 H2761 0.931 . S
C2775 C2774 1.385 . S
C2775 C2776 1.389 . S
C2776 C2775 1.389 . S
C2776 C2777 1.387 . S
C2777 H2762 0.930 . S
C2777 C2772 1.390 . S
C2777 C2776 1.387 . S
H2778 C2790 0.930 . S
H2779 C2792 0.930 . S
H2780 C2793 0.930 . S
H2781 C2797 0.959 . S
H2782 C2797 0.959 . S
H2783 C2797 0.961 . S
H2784 C2798 0.960 . S
H2785 C2798 0.961 . S
H2786 C2798 0.959 . S
H2787 C2801 0.929 . S
H2788 C2802 0.931 . S
H2789 C2804 0.930 . S
C2790 H2778 0.930 . S
C2790 C2791 1.399 . S
C2790 C2795 1.399 . S
C2791 C2790 1.399 . S
C2791 C2792 1.376 . S
C2792 H2779 0.930 . S
C2792 C2791 1.376 . S
C2792 C2793 1.388 . S
C2793 H2780 0.930 . S
C2793 C2792 1.388 . S
C2793 C2794 1.390 . S
C2794 C2793 1.390 . S
C2794 C2795 1.394 . S
C2794 C2800 1.465 . S
C2795 C2790 1.399 . S
C2795 C2794 1.394 . S
C2795 C2796 1.516 . S
C2796 C2795 1.516 . S
C2796 C2797 1.502 . S
C2796 C2798 1.561 . S
C2796 C2799 1.526 . S
C2797 H2781 0.959 . S
C2797 H2782 0.959 . S
C2797 H2783 0.961 . S
C2797 C2796 1.502 . S
C2798 H2784 0.960 . S
C2798 H2785 0.961 . S
C2798 H2786 0.959 . S
C2798 C2796 1.561 . S
C2799 C2796 1.526 . S
C2799 C2800 1.396 . S
C2799 C2804 1.390 . S
C2800 C2794 1.465 . S
C2800 C2799 1.396 . S
C2800 C2801 1.399 . S
C2801 H2787 0.929 . S
C2801 C2800 1.399 . S
C2801 C2802 1.385 . S
C2802 H2788 0.931 . S
C2802 C2801 1.385 . S
C2802 C2803 1.389 . S
C2803 C2802 1.389 . S
C2803 C2804 1.387 . S
C2804 H2789 0.930 . S
C2804 C2799 1.390 . S
C2804 C2803 1.387 . S
H2805 C2817 0.930 . S
H2806 C2819 0.930 . S
H2807 C2820 0.930 . S
H2808 C2824 0.959 . S
H2809 C2824 0.959 . S
H2810 C2824 0.961 . S
H2811 C2825 0.960 . S
H2812 C2825 0.961 . S
H2813 C2825 0.959 . S
H2814 C2828 0.929 . S
H2815 C2829 0.931 . S
H2816 C2831 0.930 . S
C2817 H2805 0.930 . S
C2817 C2818 1.399 . S
C2817 C2822 1.399 . S
C2818 C2817 1.399 . S
C2818 C2819 1.376 . S
C2819 H2806 0.930 . S
C2819 C2818 1.376 . S
C2819 C2820 1.388 . S
C2820 H2807 0.930 . S
C2820 C2819 1.388 . S
C2820 C2821 1.390 . S
C2821 C2820 1.390 . S
C2821 C2822 1.394 . S
C2821 C2827 1.465 . S
C2822 C2817 1.399 . S
C2822 C2821 1.394 . S
C2822 C2823 1.516 . S
C2823 C2822 1.516 . S
C2823 C2824 1.502 . S
C2823 C2825 1.561 . S
C2823 C2826 1.526 . S
C2824 H2808 0.959 . S
C2824 H2809 0.959 . S
C2824 H2810 0.961 . S
C2824 C2823 1.502 . S
C2825 H2811 0.960 . S
C2825 H2812 0.961 . S
C2825 H2813 0.959 . S
C2825 C2823 1.561 . S
C2826 C2823 1.526 . S
C2826 C2827 1.396 . S
C2826 C2831 1.390 . S
C2827 C2821 1.465 . S
C2827 C2826 1.396 . S
C2827 C2828 1.399 . S
C2828 H2814 0.929 . S
C2828 C2827 1.399 . S
C2828 C2829 1.385 . S
C2829 H2815 0.931 . S
C2829 C2828 1.385 . S
C2829 C2830 1.389 . S
C2830 C2829 1.389 . S
C2830 C2831 1.387 . S
C2831 H2816 0.930 . S
C2831 C2826 1.390 . S
C2831 C2830 1.387 . S
H2832 C2844 0.930 . S
H2833 C2846 0.930 . S
H2834 C2847 0.930 . S
H2835 C2851 0.959 . S
H2836 C2851 0.959 . S
H2837 C2851 0.961 . S
H2838 C2852 0.960 . S
H2839 C2852 0.961 . S
H2840 C2852 0.959 . S
H2841 C2855 0.929 . S
H2842 C2856 0.931 . S
H2843 C2858 0.930 . S
C2844 H2832 0.930 . S
C2844 C2845 1.399 . S
C2844 C2849 1.399 . S
C2845 C2844 1.399 . S
C2845 C2846 1.376 1_565 S
C2846 H2833 0.930 . S
C2846 C2845 1.376 1_545 S
C2846 C2847 1.388 . S
C2847 H2834 0.930 . S
C2847 C2846 1.388 . S
C2847 C2848 1.390 1_545 S
C2848 C2847 1.390 1_565 S
C2848 C2849 1.394 . S
C2848 C2854 1.465 . S
C2849 C2844 1.399 . S
C2849 C2848 1.394 . S
C2849 C2850 1.516 . S
C2850 C2849 1.516 . S
C2850 C2851 1.502 . S
C2850 C2852 1.561 . S
C2850 C2853 1.526 . S
C2851 H2835 0.959 . S
C2851 H2836 0.959 . S
C2851 H2837 0.961 . S
C2851 C2850 1.502 . S
C2852 H2838 0.960 . S
C2852 H2839 0.961 . S
C2852 H2840 0.959 . S
C2852 C2850 1.561 . S
C2853 C2850 1.526 . S
C2853 C2854 1.396 . S
C2853 C2858 1.390 . S
C2854 C2848 1.465 . S
C2854 C2853 1.396 . S
C2854 C2855 1.399 1_565 S
C2855 H2841 0.929 . S
C2855 C2854 1.399 1_545 S
C2855 C2856 1.385 . S
C2856 H2842 0.931 . S
C2856 C2855 1.385 . S
C2856 C2857 1.389 1_545 S
C2857 C2856 1.389 1_565 S
C2857 C2858 1.387 . S
C2858 H2843 0.930 . S
C2858 C2853 1.390 . S
C2858 C2857 1.387 . S
H2859 C2871 0.930 . S
H2860 C2873 0.930 . S
H2861 C2874 0.930 1_545 S
H2862 C2878 0.959 . S
H2863 C2878 0.959 . S
H2864 C2878 0.961 . S
H2865 C2879 0.960 . S
H2866 C2879 0.961 . S
H2867 C2879 0.959 . S
H2868 C2882 0.923 1_545 S
H2869 C2883 0.915 1_545 S
H2870 C2885 0.930 . S
C2871 H2859 0.930 . S
C2871 C2872 1.399 . S
C2871 C2876 1.399 . S
C2872 C2871 1.399 . S
C2872 C2873 1.376 . S
C2873 H2860 0.930 . S
C2873 C2872 1.376 . S
C2873 C2874 1.388 . S
C2874 H2861 0.930 1_565 S
C2874 C2873 1.388 . S
C2874 C2875 1.390 . S
C2875 C2874 1.390 . S
C2875 C2876 1.394 . S
C2875 C2881 1.465 . S
C2876 C2871 1.399 . S
C2876 C2875 1.394 . S
C2876 C2877 1.516 . S
C2877 C2876 1.516 . S
C2877 C2878 1.502 . S
C2877 C2879 1.561 . S
C2877 C2880 1.526 . S
C2878 H2862 0.959 . S
C2878 H2863 0.959 . S
C2878 H2864 0.961 . S
C2878 C2877 1.502 . S
C2879 H2865 0.960 . S
C2879 H2866 0.961 . S
C2879 H2867 0.959 . S
C2879 C2877 1.561 . S
C2880 C2877 1.526 . S
C2880 C2881 1.396 . S
C2880 C2885 1.390 . S
C2881 C2875 1.465 . S
C2881 C2880 1.396 . S
C2881 C2882 1.405 . S
C2882 H2868 0.923 1_565 S
C2882 C2881 1.405 . S
C2882 C2883 1.385 . S
C2883 H2869 0.915 1_565 S
C2883 C2882 1.385 . S
C2883 C2884 1.406 . S
C2884 C2883 1.406 . S
C2884 C2885 1.387 . S
C2885 H2870 0.930 . S
C2885 C2880 1.390 . S
C2885 C2884 1.387 . S
H2886 C2898 0.930 . S
H2887 C2900 0.930 . S
H2888 C2901 0.930 . S
H2889 C2905 0.959 . S
H2890 C2905 0.959 . S
H2891 C2905 0.961 . S
H2892 C2906 0.960 . S
H2893 C2906 0.961 . S
H2894 C2906 0.959 . S
H2895 C2909 0.929 . S
H2896 C2910 0.931 . S
H2897 C2912 0.930 . S
C2898 H2886 0.930 . S
C2898 C2899 1.399 . S
C2898 C2903 1.399 . S
C2899 C2898 1.399 . S
C2899 C2900 1.376 . S
C2900 H2887 0.930 . S
C2900 C2899 1.376 . S
C2900 C2901 1.388 . S
C2901 H2888 0.930 . S
C2901 C2900 1.388 . S
C2901 C2902 1.390 . S
C2902 C2901 1.390 . S
C2902 C2903 1.394 . S
C2902 C2908 1.465 . S
C2903 C2898 1.399 . S
C2903 C2902 1.394 . S
C2903 C2904 1.516 . S
C2904 C2903 1.516 . S
C2904 C2905 1.502 . S
C2904 C2906 1.561 . S
C2904 C2907 1.526 . S
C2905 H2889 0.959 . S
C2905 H2890 0.959 . S
C2905 H2891 0.961 . S
C2905 C2904 1.502 . S
C2906 H2892 0.960 . S
C2906 H2893 0.961 . S
C2906 H2894 0.959 . S
C2906 C2904 1.561 . S
C2907 C2904 1.526 . S
C2907 C2908 1.396 . S
C2907 C2912 1.390 . S
C2908 C2902 1.465 . S
C2908 C2907 1.396 . S
C2908 C2909 1.399 . S
C2909 H2895 0.929 . S
C2909 C2908 1.399 . S
C2909 C2910 1.385 . S
C2910 H2896 0.931 . S
C2910 C2909 1.385 . S
C2910 C2911 1.389 . S
C2911 C2910 1.389 . S
C2911 C2912 1.387 . S
C2912 H2897 0.930 . S
C2912 C2907 1.390 . S
C2912 C2911 1.387 . S
H2913 C2925 0.930 . S
H2914 C2927 0.930 . S
H2915 C2928 0.930 . S
H2916 C2932 0.959 . S
H2917 C2932 0.959 . S
H2918 C2932 0.961 . S
H2919 C2933 0.960 . S
H2920 C2933 0.961 . S
H2921 C2933 0.959 . S
H2922 C2936 0.929 . S
H2923 C2937 0.931 . S
H2924 C2939 0.930 . S
C2925 H2913 0.930 . S
C2925 C2926 1.399 . S
C2925 C2930 1.399 . S
C2926 C2925 1.399 . S
C2926 C2927 1.376 . S
C2927 H2914 0.930 . S
C2927 C2926 1.376 . S
C2927 C2928 1.388 . S
C2928 H2915 0.930 . S
C2928 C2927 1.388 . S
C2928 C2929 1.390 . S
C2929 C2928 1.390 . S
C2929 C2930 1.394 . S
C2929 C2935 1.465 . S
C2930 C2925 1.399 . S
C2930 C2929 1.394 . S
C2930 C2931 1.516 . S
C2931 C2930 1.516 . S
C2931 C2932 1.502 . S
C2931 C2933 1.561 . S
C2931 C2934 1.526 . S
C2932 H2916 0.959 . S
C2932 H2917 0.959 . S
C2932 H2918 0.961 . S
C2932 C2931 1.502 . S
C2933 H2919 0.960 . S
C2933 H2920 0.961 . S
C2933 H2921 0.959 . S
C2933 C2931 1.561 . S
C2934 C2931 1.526 . S
C2934 C2935 1.396 . S
C2934 C2939 1.390 . S
C2935 C2929 1.465 . S
C2935 C2934 1.396 . S
C2935 C2936 1.399 . S
C2936 H2922 0.929 . S
C2936 C2935 1.399 . S
C2936 C2937 1.385 . S
C2937 H2923 0.931 . S
C2937 C2936 1.385 . S
C2937 C2938 1.389 . S
C2938 C2937 1.389 . S
C2938 C2939 1.387 . S
C2939 H2924 0.930 . S
C2939 C2934 1.390 . S
C2939 C2938 1.387 . S
H2940 C2952 0.930 . S
H2941 C2954 0.930 . S
H2942 C2955 0.930 . S
H2943 C2959 0.959 . S
H2944 C2959 0.959 . S
H2945 C2959 0.961 . S
H2946 C2960 0.960 . S
H2947 C2960 0.961 . S
H2948 C2960 0.959 . S
H2949 C2963 0.929 . S
H2950 C2964 0.931 . S
H2951 C2966 0.930 . S
C2952 H2940 0.930 . S
C2952 C2953 1.399 . S
C2952 C2957 1.399 . S
C2953 C2952 1.399 . S
C2953 C2954 1.376 1_556 S
C2954 H2941 0.930 . S
C2954 C2953 1.376 1_554 S
C2954 C2955 1.388 . S
C2955 H2942 0.930 . S
C2955 C2954 1.388 . S
C2955 C2956 1.361 1_554 S
C2956 C2955 1.361 1_556 S
C2956 C2957 1.430 . S
C2956 C2962 1.467 . S
C2957 C2952 1.399 . S
C2957 C2956 1.430 . S
C2957 C2958 1.516 . S
C2958 C2957 1.516 . S
C2958 C2959 1.502 . S
C2958 C2960 1.561 . S
C2958 C2961 1.526 . S
C2959 H2943 0.959 . S
C2959 H2944 0.959 . S
C2959 H2945 0.961 . S
C2959 C2958 1.502 . S
C2960 H2946 0.960 . S
C2960 H2947 0.961 . S
C2960 H2948 0.959 . S
C2960 C2958 1.561 . S
C2961 C2958 1.526 . S
C2961 C2962 1.396 . S
C2961 C2966 1.390 . S
C2962 C2956 1.467 . S
C2962 C2961 1.396 . S
C2962 C2963 1.399 1_556 S
C2963 H2949 0.929 . S
C2963 C2962 1.399 1_554 S
C2963 C2964 1.385 . S
C2964 H2950 0.931 . S
C2964 C2963 1.385 . S
C2964 C2965 1.389 1_554 S
C2965 C2964 1.389 1_556 S
C2965 C2966 1.387 . S
C2966 H2951 0.930 . S
C2966 C2961 1.390 . S
C2966 C2965 1.387 . S
H2967 C2979 0.930 . S
H2968 C2981 0.930 . S
H2969 C2982 0.930 . S
H2970 C2986 0.959 . S
H2971 C2986 0.959 . S
H2972 C2986 0.961 . S
H2973 C2987 0.960 . S
H2974 C2987 0.961 . S
H2975 C2987 0.959 . S
H2976 C2990 0.929 . S
H2977 C2991 0.931 . S
H2978 C2993 0.930 . S
C2979 H2967 0.930 . S
C2979 C2980 1.399 . S
C2979 C2984 1.399 . S
C2980 C2979 1.399 . S
C2980 C2981 1.376 . S
C2981 H2968 0.930 . S
C2981 C2980 1.376 . S
C2981 C2982 1.388 . S
C2982 H2969 0.930 . S
C2982 C2981 1.388 . S
C2982 C2983 1.390 . S
C2983 C2982 1.390 . S
C2983 C2984 1.394 . S
C2983 C2989 1.465 . S
C2984 C2979 1.399 . S
C2984 C2983 1.394 . S
C2984 C2985 1.516 . S
C2985 C2984 1.516 . S
C2985 C2986 1.502 . S
C2985 C2987 1.561 . S
C2985 C2988 1.526 . S
C2986 H2970 0.959 . S
C2986 H2971 0.959 . S
C2986 H2972 0.961 . S
C2986 C2985 1.502 . S
C2987 H2973 0.960 . S
C2987 H2974 0.961 . S
C2987 H2975 0.959 . S
C2987 C2985 1.561 . S
C2988 C2985 1.526 . S
C2988 C2989 1.396 . S
C2988 C2993 1.390 . S
C2989 C2983 1.465 . S
C2989 C2988 1.396 . S
C2989 C2990 1.399 . S
C2990 H2976 0.929 . S
C2990 C2989 1.399 . S
C2990 C2991 1.385 . S
C2991 H2977 0.931 . S
C2991 C2990 1.385 . S
C2991 C2992 1.389 . S
C2992 C2991 1.389 . S
C2992 C2993 1.387 . S
C2993 H2978 0.930 . S
C2993 C2988 1.390 . S
C2993 C2992 1.387 . S
H2994 C3006 0.930 . S
H2995 C3008 0.930 . S
H2996 C3009 0.930 . S
H2997 C3013 0.959 . S
H2998 C3013 0.959 . S
H2999 C3013 0.961 . S
H3000 C3014 0.960 . S
H3001 C3014 0.961 . S
H3002 C3014 0.959 . S
H3003 C3017 0.929 . S
H3004 C3018 0.931 . S
H3005 C3020 0.930 . S
C3006 H2994 0.930 . S
C3006 C3007 1.399 . S
C3006 C3011 1.399 . S
C3007 C3006 1.399 . S
C3007 C3008 1.376 . S
C3008 H2995 0.930 . S
C3008 C3007 1.376 . S
C3008 C3009 1.388 . S
C3009 H2996 0.930 . S
C3009 C3008 1.388 . S
C3009 C3010 1.390 . S
C3010 C3009 1.390 . S
C3010 C3011 1.394 . S
C3010 C3016 1.465 . S
C3011 C3006 1.399 . S
C3011 C3010 1.394 . S
C3011 C3012 1.516 . S
C3012 C3011 1.516 . S
C3012 C3013 1.502 . S
C3012 C3014 1.561 . S
C3012 C3015 1.526 . S
C3013 H2997 0.959 . S
C3013 H2998 0.959 . S
C3013 H2999 0.961 . S
C3013 C3012 1.502 . S
C3014 H3000 0.960 . S
C3014 H3001 0.961 . S
C3014 H3002 0.959 . S
C3014 C3012 1.561 . S
C3015 C3012 1.526 . S
C3015 C3016 1.396 . S
C3015 C3020 1.390 . S
C3016 C3010 1.465 . S
C3016 C3015 1.396 . S
C3016 C3017 1.399 . S
C3017 H3003 0.929 . S
C3017 C3016 1.399 . S
C3017 C3018 1.385 . S
C3018 H3004 0.931 . S
C3018 C3017 1.385 . S
C3018 C3019 1.389 . S
C3019 C3018 1.389 . S
C3019 C3020 1.387 . S
C3020 H3005 0.930 . S
C3020 C3015 1.390 . S
C3020 C3019 1.387 . S
H3021 C3033 0.930 . S
H3022 C3035 0.930 . S
H3023 C3036 0.930 . S
H3024 C3040 0.959 . S
H3025 C3040 0.959 . S
H3026 C3040 0.961 . S
H3027 C3041 0.960 . S
H3028 C3041 0.961 . S
H3029 C3041 0.959 . S
H3030 C3044 0.929 . S
H3031 C3045 0.931 . S
H3032 C3047 0.930 . S
C3033 H3021 0.930 . S
C3033 C3034 1.399 . S
C3033 C3038 1.399 . S
C3034 C3033 1.399 . S
C3034 C3035 1.376 . S
C3035 H3022 0.930 . S
C3035 C3034 1.376 . S
C3035 C3036 1.388 . S
C3036 H3023 0.930 . S
C3036 C3035 1.388 . S
C3036 C3037 1.390 . S
C3037 C3036 1.390 . S
C3037 C3038 1.394 . S
C3037 C3043 1.465 . S
C3038 C3033 1.399 . S
C3038 C3037 1.394 . S
C3038 C3039 1.516 . S
C3039 C3038 1.516 . S
C3039 C3040 1.502 . S
C3039 C3041 1.561 . S
C3039 C3042 1.526 . S
C3040 H3024 0.959 . S
C3040 H3025 0.959 . S
C3040 H3026 0.961 . S
C3040 C3039 1.502 . S
C3041 H3027 0.960 . S
C3041 H3028 0.961 . S
C3041 H3029 0.959 . S
C3041 C3039 1.561 . S
C3042 C3039 1.526 . S
C3042 C3043 1.396 . S
C3042 C3047 1.390 . S
C3043 C3037 1.465 . S
C3043 C3042 1.396 . S
C3043 C3044 1.399 . S
C3044 H3030 0.929 . S
C3044 C3043 1.399 . S
C3044 C3045 1.385 . S
C3045 H3031 0.931 . S
C3045 C3044 1.385 . S
C3045 C3046 1.389 . S
C3046 C3045 1.389 . S
C3046 C3047 1.387 . S
C3047 H3032 0.930 . S
C3047 C3042 1.390 . S
C3047 C3046 1.387 . S
H3048 C3060 0.930 . S
H3049 C3062 0.930 . S
H3050 C3063 0.930 . S
H3051 C3067 0.959 . S
H3052 C3067 0.959 . S
H3053 C3067 0.961 . S
H3054 C3068 0.960 . S
H3055 C3068 0.961 . S
H3056 C3068 0.959 . S
H3057 C3071 0.929 . S
H3058 C3072 0.931 . S
H3059 C3074 0.930 . S
C3060 H3048 0.930 . S
C3060 C3061 1.399 . S
C3060 C3065 1.399 . S
C3061 C3060 1.399 . S
C3061 C3062 1.376 . S
C3062 H3049 0.930 . S
C3062 C3061 1.376 . S
C3062 C3063 1.388 . S
C3063 H3050 0.930 . S
C3063 C3062 1.388 . S
C3063 C3064 1.390 . S
C3064 C3063 1.390 . S
C3064 C3065 1.394 . S
C3064 C3070 1.465 . S
C3065 C3060 1.399 . S
C3065 C3064 1.394 . S
C3065 C3066 1.516 . S
C3066 C3065 1.516 . S
C3066 C3067 1.502 . S
C3066 C3068 1.561 . S
C3066 C3069 1.526 . S
C3067 H3051 0.959 . S
C3067 H3052 0.959 . S
C3067 H3053 0.961 . S
C3067 C3066 1.502 . S
C3068 H3054 0.960 . S
C3068 H3055 0.961 . S
C3068 H3056 0.959 . S
C3068 C3066 1.561 . S
C3069 C3066 1.526 . S
C3069 C3070 1.396 . S
C3069 C3074 1.390 . S
C3070 C3064 1.465 . S
C3070 C3069 1.396 . S
C3070 C3071 1.399 . S
C3071 H3057 0.929 . S
C3071 C3070 1.399 . S
C3071 C3072 1.385 . S
C3072 H3058 0.931 . S
C3072 C3071 1.385 . S
C3072 C3073 1.389 . S
C3073 C3072 1.389 . S
C3073 C3074 1.387 . S
C3074 H3059 0.930 . S
C3074 C3069 1.390 . S
C3074 C3073 1.387 . S
H3075 C3087 0.930 . S
H3076 C3089 0.930 . S
H3077 C3090 0.930 . S
H3078 C3094 0.959 . S
H3079 C3094 0.959 . S
H3080 C3094 0.961 . S
H3081 C3095 0.960 . S
H3082 C3095 0.961 . S
H3083 C3095 0.959 . S
H3084 C3098 0.929 . S
H3085 C3099 0.931 . S
H3086 C3101 0.930 . S
C3087 H3075 0.930 . S
C3087 C3088 1.399 . S
C3087 C3092 1.399 . S
C3088 C3087 1.399 . S
C3088 C3089 1.376 . S
C3089 H3076 0.930 . S
C3089 C3088 1.376 . S
C3089 C3090 1.388 . S
C3090 H3077 0.930 . S
C3090 C3089 1.388 . S
C3090 C3091 1.390 . S
C3091 C3090 1.390 . S
C3091 C3092 1.394 . S
C3091 C3097 1.465 . S
C3092 C3087 1.399 . S
C3092 C3091 1.394 . S
C3092 C3093 1.516 . S
C3093 C3092 1.516 . S
C3093 C3094 1.502 . S
C3093 C3095 1.561 . S
C3093 C3096 1.526 . S
C3094 H3078 0.959 . S
C3094 H3079 0.959 . S
C3094 H3080 0.961 . S
C3094 C3093 1.502 . S
C3095 H3081 0.960 . S
C3095 H3082 0.961 . S
C3095 H3083 0.959 . S
C3095 C3093 1.561 . S
C3096 C3093 1.526 . S
C3096 C3097 1.396 . S
C3096 C3101 1.390 . S
C3097 C3091 1.465 . S
C3097 C3096 1.396 . S
C3097 C3098 1.399 . S
C3098 H3084 0.929 . S
C3098 C3097 1.399 . S
C3098 C3099 1.385 . S
C3099 H3085 0.931 . S
C3099 C3098 1.385 . S
C3099 C3100 1.389 . S
C3100 C3099 1.389 . S
C3100 C3101 1.387 . S
C3101 H3086 0.930 . S
C3101 C3096 1.390 . S
C3101 C3100 1.387 . S
H3102 C3114 0.930 . S
H3103 C3116 0.930 . S
H3104 C3117 0.930 . S
H3105 C3121 0.959 . S
H3106 C3121 0.959 . S
H3107 C3121 0.961 . S
H3108 C3122 0.960 . S
H3109 C3122 0.961 . S
H3110 C3122 0.959 . S
H3111 C3125 0.929 . S
H3112 C3126 0.931 . S
H3113 C3128 0.930 . S
C3114 H3102 0.930 . S
C3114 C3115 1.399 . S
C3114 C3119 1.399 . S
C3115 C3114 1.399 . S
C3115 C3116 1.376 . S
C3116 H3103 0.930 . S
C3116 C3115 1.376 . S
C3116 C3117 1.388 . S
C3117 H3104 0.930 . S
C3117 C3116 1.388 . S
C3117 C3118 1.390 . S
C3118 C3117 1.390 . S
C3118 C3119 1.394 . S
C3118 C3124 1.465 . S
C3119 C3114 1.399 . S
C3119 C3118 1.394 . S
C3119 C3120 1.516 . S
C3120 C3119 1.516 . S
C3120 C3121 1.502 . S
C3120 C3122 1.561 . S
C3120 C3123 1.526 . S
C3121 H3105 0.959 . S
C3121 H3106 0.959 . S
C3121 H3107 0.961 . S
C3121 C3120 1.502 . S
C3122 H3108 0.960 . S
C3122 H3109 0.961 . S
C3122 H3110 0.959 . S
C3122 C3120 1.561 . S
C3123 C3120 1.526 . S
C3123 C3124 1.396 . S
C3123 C3128 1.390 . S
C3124 C3118 1.465 . S
C3124 C3123 1.396 . S
C3124 C3125 1.399 . S
C3125 H3111 0.929 . S
C3125 C3124 1.399 . S
C3125 C3126 1.385 . S
C3126 H3112 0.931 . S
C3126 C3125 1.385 . S
C3126 C3127 1.389 . S
C3127 C3126 1.389 . S
C3127 C3128 1.387 . S
C3128 H3113 0.930 . S
C3128 C3123 1.390 . S
C3128 C3127 1.387 . S
H3129 C3141 0.930 . S
H3130 C3143 0.930 . S
H3131 C3144 0.930 . S
H3132 C3148 0.959 . S
H3133 C3148 0.959 . S
H3134 C3148 0.961 . S
H3135 C3149 0.960 . S
H3136 C3149 0.961 . S
H3137 C3149 0.959 . S
H3138 C3152 0.929 . S
H3139 C3153 0.931 . S
H3140 C3155 0.930 . S
C3141 H3129 0.930 . S
C3141 C3142 1.399 . S
C3141 C3146 1.399 . S
C3142 C3141 1.399 . S
C3142 C3143 1.376 . S
C3143 H3130 0.930 . S
C3143 C3142 1.376 . S
C3143 C3144 1.388 . S
C3144 H3131 0.930 . S
C3144 C3143 1.388 . S
C3144 C3145 1.390 . S
C3145 C3144 1.390 . S
C3145 C3146 1.394 . S
C3145 C3151 1.465 . S
C3146 C3141 1.399 . S
C3146 C3145 1.394 . S
C3146 C3147 1.516 . S
C3147 C3146 1.516 . S
C3147 C3148 1.502 . S
C3147 C3149 1.561 . S
C3147 C3150 1.526 . S
C3148 H3132 0.959 . S
C3148 H3133 0.959 . S
C3148 H3134 0.961 . S
C3148 C3147 1.502 . S
C3149 H3135 0.960 . S
C3149 H3136 0.961 . S
C3149 H3137 0.959 . S
C3149 C3147 1.561 . S
C3150 C3147 1.526 . S
C3150 C3151 1.396 . S
C3150 C3155 1.390 . S
C3151 C3145 1.465 . S
C3151 C3150 1.396 . S
C3151 C3152 1.399 . S
C3152 H3138 0.929 . S
C3152 C3151 1.399 . S
C3152 C3153 1.385 . S
C3153 H3139 0.931 . S
C3153 C3152 1.385 . S
C3153 C3154 1.389 . S
C3154 C3153 1.389 . S
C3154 C3155 1.387 . S
C3155 H3140 0.930 . S
C3155 C3150 1.390 . S
C3155 C3154 1.387 . S
H3156 C3168 0.930 . S
H3157 C3170 0.930 . S
H3158 C3171 0.930 . S
H3159 C3175 0.959 . S
H3160 C3175 0.959 . S
H3161 C3175 0.961 . S
H3162 C3176 0.960 . S
H3163 C3176 0.961 . S
H3164 C3176 0.959 . S
H3165 C3179 0.929 . S
H3166 C3180 0.931 . S
H3167 C3182 0.930 . S
C3168 H3156 0.930 . S
C3168 C3169 1.399 . S
C3168 C3173 1.399 . S
C3169 C3168 1.399 . S
C3169 C3170 1.376 . S
C3170 H3157 0.930 . S
C3170 C3169 1.376 . S
C3170 C3171 1.388 . S
C3171 H3158 0.930 . S
C3171 C3170 1.388 . S
C3171 C3172 1.390 . S
C3172 C3171 1.390 . S
C3172 C3173 1.394 . S
C3172 C3178 1.465 . S
C3173 C3168 1.399 . S
C3173 C3172 1.394 . S
C3173 C3174 1.516 . S
C3174 C3173 1.516 . S
C3174 C3175 1.502 . S
C3174 C3176 1.561 . S
C3174 C3177 1.526 . S
C3175 H3159 0.959 . S
C3175 H3160 0.959 . S
C3175 H3161 0.961 . S
C3175 C3174 1.502 . S
C3176 H3162 0.960 . S
C3176 H3163 0.961 . S
C3176 H3164 0.959 . S
C3176 C3174 1.561 . S
C3177 C3174 1.526 . S
C3177 C3178 1.396 . S
C3177 C3182 1.390 . S
C3178 C3172 1.465 . S
C3178 C3177 1.396 . S
C3178 C3179 1.399 . S
C3179 H3165 0.929 . S
C3179 C3178 1.399 . S
C3179 C3180 1.385 . S
C3180 H3166 0.931 . S
C3180 C3179 1.385 . S
C3180 C3181 1.389 . S
C3181 C3180 1.389 . S
C3181 C3182 1.387 . S
C3182 H3167 0.930 . S
C3182 C3177 1.390 . S
C3182 C3181 1.387 . S
H3183 C3195 0.930 . S
H3184 C3197 0.930 . S
H3185 C3198 0.930 . S
H3186 C3202 0.959 . S
H3187 C3202 0.959 . S
H3188 C3202 0.961 . S
H3189 C3203 0.960 . S
H3190 C3203 0.961 . S
H3191 C3203 0.959 . S
H3192 C3206 0.929 . S
H3193 C3207 0.931 . S
H3194 C3209 0.930 . S
C3195 H3183 0.930 . S
C3195 C3196 1.399 . S
C3195 C3200 1.399 . S
C3196 C3195 1.399 . S
C3196 C3197 1.376 . S
C3197 H3184 0.930 . S
C3197 C3196 1.376 . S
C3197 C3198 1.388 . S
C3198 H3185 0.930 . S
C3198 C3197 1.388 . S
C3198 C3199 1.390 . S
C3199 C3198 1.390 . S
C3199 C3200 1.394 . S
C3199 C3205 1.465 . S
C3200 C3195 1.399 . S
C3200 C3199 1.394 . S
C3200 C3201 1.516 . S
C3201 C3200 1.516 . S
C3201 C3202 1.502 . S
C3201 C3203 1.561 . S
C3201 C3204 1.526 . S
C3202 H3186 0.959 . S
C3202 H3187 0.959 . S
C3202 H3188 0.961 . S
C3202 C3201 1.502 . S
C3203 H3189 0.960 . S
C3203 H3190 0.961 . S
C3203 H3191 0.959 . S
C3203 C3201 1.561 . S
C3204 C3201 1.526 . S
C3204 C3205 1.396 . S
C3204 C3209 1.390 . S
C3205 C3199 1.465 . S
C3205 C3204 1.396 . S
C3205 C3206 1.399 . S
C3206 H3192 0.929 . S
C3206 C3205 1.399 . S
C3206 C3207 1.385 . S
C3207 H3193 0.931 . S
C3207 C3206 1.385 . S
C3207 C3208 1.389 . S
C3208 C3207 1.389 . S
C3208 C3209 1.387 . S
C3209 H3194 0.930 . S
C3209 C3204 1.390 . S
C3209 C3208 1.387 . S
H3210 C3222 0.930 . S
H3211 C3224 0.930 . S
H3212 C3225 0.930 . S
H3213 C3229 0.959 . S
H3214 C3229 0.959 . S
H3215 C3229 0.961 . S
H3216 C3230 0.960 . S
H3217 C3230 0.961 . S
H3218 C3230 0.959 . S
H3219 C3233 0.929 . S
H3220 C3234 0.931 . S
H3221 C3236 0.930 . S
C3222 H3210 0.930 . S
C3222 C3223 1.399 . S
C3222 C3227 1.399 . S
C3223 C3222 1.399 . S
C3223 C3224 1.376 . S
C3224 H3211 0.930 . S
C3224 C3223 1.376 . S
C3224 C3225 1.388 . S
C3225 H3212 0.930 . S
C3225 C3224 1.388 . S
C3225 C3226 1.390 . S
C3226 C3225 1.390 . S
C3226 C3227 1.394 . S
C3226 C3232 1.465 . S
C3227 C3222 1.399 . S
C3227 C3226 1.394 . S
C3227 C3228 1.516 . S
C3228 C3227 1.516 . S
C3228 C3229 1.502 . S
C3228 C3230 1.561 . S
C3228 C3231 1.526 . S
C3229 H3213 0.959 . S
C3229 H3214 0.959 . S
C3229 H3215 0.961 . S
C3229 C3228 1.502 . S
C3230 H3216 0.960 . S
C3230 H3217 0.961 . S
C3230 H3218 0.959 . S
C3230 C3228 1.561 . S
C3231 C3228 1.526 . S
C3231 C3232 1.396 . S
C3231 C3236 1.390 . S
C3232 C3226 1.465 . S
C3232 C3231 1.396 . S
C3232 C3233 1.399 . S
C3233 H3219 0.929 . S
C3233 C3232 1.399 . S
C3233 C3234 1.385 . S
C3234 H3220 0.931 . S
C3234 C3233 1.385 . S
C3234 C3235 1.389 . S
C3235 C3234 1.389 . S
C3235 C3236 1.387 . S
C3236 H3221 0.930 . S
C3236 C3231 1.390 . S
C3236 C3235 1.387 . S
H3237 C3249 0.930 . S
H3238 C3251 0.930 . S
H3239 C3252 0.930 . S
H3240 C3256 0.959 . S
H3241 C3256 0.959 . S
H3242 C3256 0.961 . S
H3243 C3257 0.960 . S
H3244 C3257 0.961 . S
H3245 C3257 0.959 . S
H3246 C3260 0.929 . S
H3247 C3261 0.931 . S
H3248 C3263 0.930 . S
C3249 H3237 0.930 . S
C3249 C3250 1.399 . S
C3249 C3254 1.399 . S
C3250 C3249 1.399 . S
C3250 C3251 1.376 . S
C3251 H3238 0.930 . S
C3251 C3250 1.376 . S
C3251 C3252 1.388 . S
C3252 H3239 0.930 . S
C3252 C3251 1.388 . S
C3252 C3253 1.390 . S
C3253 C3252 1.390 . S
C3253 C3254 1.394 . S
C3253 C3259 1.465 . S
C3254 C3249 1.399 . S
C3254 C3253 1.394 . S
C3254 C3255 1.516 . S
C3255 C3254 1.516 . S
C3255 C3256 1.502 . S
C3255 C3257 1.561 . S
C3255 C3258 1.526 . S
C3256 H3240 0.959 . S
C3256 H3241 0.959 . S
C3256 H3242 0.961 . S
C3256 C3255 1.502 . S
C3257 H3243 0.960 . S
C3257 H3244 0.961 . S
C3257 H3245 0.959 . S
C3257 C3255 1.561 . S
C3258 C3255 1.526 . S
C3258 C3259 1.396 . S
C3258 C3263 1.390 . S
C3259 C3253 1.465 . S
C3259 C3258 1.396 . S
C3259 C3260 1.399 . S
C3260 H3246 0.929 . S
C3260 C3259 1.399 . S
C3260 C3261 1.385 . S
C3261 H3247 0.931 . S
C3261 C3260 1.385 . S
C3261 C3262 1.389 . S
C3262 C3261 1.389 . S
C3262 C3263 1.387 . S
C3263 H3248 0.930 . S
C3263 C3258 1.390 . S
C3263 C3262 1.387 . S
C685 C7 0.605 . S
C697 C371 0.580 . S
C712 C385 0.783 . S
C724 C21 0.781 . S
C739 C35 0.897 . S
C751 C343 0.846 . S
C766 C357 1.051 . S
C778 C49 1.096 . S
C793 C63 0.889 . S
C805 C427 0.792 . S
C820 C77 0.996 . S
C832 C441 1.030 . S
C847 C91 1.046 . S
C859 C399 0.953 . S
C874 C105 0.811 . S
C886 C413 0.879 . S
C901 C175 0.836 . S
C913 C119 0.840 . S
C928 C133 0.965 . S
C940 C189 0.914 . S
C955 C203 0.679 . S
C967 C147 0.747 . S
C982 C161 0.761 . S
C994 C217 0.682 . S
C1009 C609 0.837 . S
C1021 C231 0.768 . S
C1036 C637 0.817 . S
C1048 C245 0.897 . S
C1063 C315 1.059 . S
C1075 C259 0.962 . S
C1090 C567 0.999 . S
C1102 C273 1.044 . S
C1117 C665 0.891 . S
C1129 C287 0.843 . S
C1144 C581 0.916 . S
C1156 C301 0.963 . S
C1171 C329 0.831 . S
C1183 C623 0.902 . S
C1198 C455 0.862 . S
C1210 C511 0.939 . S
C1225 C525 0.825 . S
C1237 C469 0.773 . S
C1252 C483 1.105 . S
C1264 C539 1.035 . S
C1279 C553 0.985 . S
C1291 C497 1.030 . S
C1306 C595 0.945 . S
C1318 C651 0.866 . S
C1333 C8 0.748 . S
C1345 C106 0.642 1_455 S
C1360 C64 0.834 . S
C1372 C22 0.860 . S
C1387 C36 0.848 . S
C1399 C78 0.877 . S
C1414 C50 0.937 . S
C1426 C92 0.707 . S
C1441 C288 0.833 1_545 S
C1453 C120 0.620 . S
C1468 C582 0.891 . S
C1480 C134 0.695 . S
C1495 C148 0.627 . S
C1507 C596 0.817 . S
C1522 C162 0.826 . S
C1534 C610 0.607 . S
C1549 C666 0.893 . S
C1561 C176 0.714 . S
C1576 C190 0.698 . S
C1588 C302 0.931 . S
C1603 C204 0.883 . S
C1615 C652 0.803 . S
C1630 C218 0.891 . S
C1642 C232 0.722 . S
C1657 C246 0.751 . S
C1669 C470 0.899 . S
C1684 C260 0.696 . S
C1696 C484 0.919 . S
C1711 C498 0.877 . S
C1723 C274 0.849 . S
C1738 C316 0.751 . S
C1750 C540 0.800 . S
C1765 C512 0.919 . S
C1777 C330 0.777 . S
C1792 C442 0.749 . S
C1804 C344 0.709 . S
C1819 C358 0.748 . S
C1831 C400 0.964 . S
C1846 C414 0.618 . S
C1858 C372 0.785 . S
C1873 C386 0.628 . S
C1885 C428 0.821 . S
C1900 C456 0.649 . S
C1912 C624 0.835 . S
C1927 C638 0.629 . S
C1939 C526 0.823 1_554 S
C1954 C568 0.913 . S
C1966 C554 0.684 . S
C1981 C9 1.607 . S
C1993 C415 1.628 . S
C2008 C429 1.677 . S
C2020 C23 1.676 . S
C2035 C37 1.661 . S
C2047 C443 1.652 . S
C2062 C51 1.677 . S
C2074 C401 1.676 . S
C2089 C387 1.665 . S
C2101 C65 1.647 . S
C2116 C79 1.645 . S
C2128 C345 1.644 . S
C2143 C359 1.668 . S
C2155 C93 1.672 . S
C2170 C107 1.665 . S
C2182 C373 1.677 . S
C2197 C667 1.651 . S
C2209 C121 1.627 . S
C2224 C135 1.655 . S
C2236 C303 1.660 . S
C2251 C149 1.672 . S
C2263 C653 1.644 . S
C2278 C233 1.647 . S
C2290 C163 1.657 . S
C2305 C177 1.621 . S
C2317 C289 1.625 . S
C2332 C191 1.651 . S
C2344 C583 1.635 . S
C2359 C597 1.672 . S
C2371 C205 1.665 . S
C2386 C611 1.670 . S
C2398 C219 1.668 . S
C2413 C527 1.669 . S
C2425 C247 1.680 . S
C2440 C541 1.615 . S
C2452 C261 1.627 . S
C2467 C555 1.654 . S
C2479 C275 1.663 . S
C2494 C317 1.673 . S
C2506 C485 1.673 . S
C2521 C457 1.677 . S
C2533 C331 1.660 . S
C2548 C471 1.671 . S
C2560 C639 1.665 . S
C2575 C499 1.692 . S
C2587 C569 1.696 . S
C2602 C625 1.662 . S
C2614 C513 1.652 . S
C2629 C6 1.524 . S
C2641 C314 1.620 . S
C2656 C20 1.639 . S
C2668 C566 1.616 . S
C2683 C328 1.673 . S
C2695 C34 1.591 . S
C2710 C636 1.592 . S
C2722 C48 1.517 . S
C2737 C258 1.557 . S
C2749 C62 1.604 . S
C2764 C272 1.623 . S
C2776 C76 1.610 . S
C2791 C90 1.584 . S
C2803 C622 1.661 . S
C2818 C104 1.580 . S
C2830 C244 1.490 . S
C2845 C188 1.625 . S
C2857 C118 1.535 . S
C2872 C132 1.586 . S
C2884 C202 1.515 . S
C2899 C216 1.509 . S
C2911 C146 1.582 . S
C2926 C174 1.624 . S
C2938 C160 1.633 . S
C2953 C230 1.560 . S
C2965 C356 1.627 . S
C2980 C426 1.597 . S
C2992 C286 1.509 . S
C3007 C384 1.573 . S
C3019 C300 1.672 . S
C3034 C342 1.555 . S
C3046 C650 1.634 . S
C3061 C664 1.585 . S
C3073 C370 1.591 . S
C3088 C594 1.647 . S
C3100 C398 1.658 . S
C3115 C608 1.657 . S
C3127 C412 1.590 . S
C3142 C580 1.623 . S
C3154 C440 1.650 . S
C3169 C524 1.577 . S
C3181 C454 1.638 . S
C3196 C538 1.618 . S
C3208 C468 1.602 . S
C3223 C482 1.603 . S
C3235 C552 1.593 . S
C3250 C496 1.594 . S
C3262 C510 1.675 . S
