# Generated by pormake.
# Topology bcg, (8)-cn, num edge types: 1
# Building blocks:
#     Node 0, Type 0, BuildingBlock: EYACOX_clean_sbu_0, # of connection points: 8
#     Node 1, Type 0, BuildingBlock: EYACOX_clean_sbu_0, # of connection points: 8
#     Node 2, Type 0, BuildingBlock: EYACOX_clean_sbu_0, # of connection points: 8
#     Node 3, Type 0, BuildingBlock: EYACOX_clean_sbu_0, # of connection points: 8
#     Edge 4, Type (0, 0), BuildingBlock: OJICUG_clean_linker_0, # of connection points: 2
#     Edge 5, Type (0, 0), BuildingBlock: OJICUG_clean_linker_0, # of connection points: 2
#     Edge 6, Type (0, 0), BuildingBlock: OJICUG_clean_linker_0, # of connection points: 2
#     Edge 7, Type (0, 0), BuildingBlock: OJICUG_clean_linker_0, # of connection points: 2
#     Edge 8, Type (0, 0), BuildingBlock: OJICUG_clean_linker_0, # of connection points: 2
#     Edge 9, Type (0, 0), BuildingBlock: OJICUG_clean_linker_0, # of connection points: 2
#     Edge 10, Type (0, 0), BuildingBlock: OJICUG_clean_linker_0, # of connection points: 2
#     Edge 11, Type (0, 0), BuildingBlock: OJICUG_clean_linker_0, # of connection points: 2
#     Edge 12, Type (0, 0), BuildingBlock: OJICUG_clean_linker_0, # of connection points: 2
#     Edge 13, Type (0, 0), BuildingBlock: OJICUG_clean_linker_0, # of connection points: 2
#     Edge 14, Type (0, 0), BuildingBlock: OJICUG_clean_linker_0, # of connection points: 2
#     Edge 15, Type (0, 0), BuildingBlock: OJICUG_clean_linker_0, # of connection points: 2
#     Edge 16, Type (0, 0), BuildingBlock: OJICUG_clean_linker_0, # of connection points: 2
#     Edge 17, Type (0, 0), BuildingBlock: OJICUG_clean_linker_0, # of connection points: 2
#     Edge 18, Type (0, 0), BuildingBlock: OJICUG_clean_linker_0, # of connection points: 2
#     Edge 19, Type (0, 0), BuildingBlock: OJICUG_clean_linker_0, # of connection points: 2
# Relax obj value: 0.147
# Max RMSD: 0.286
# Mean RMSD: 0.286
data_MOF--net-bcg--node1-EYACOX_clean_sbu_0--edge1-OJICUG_clean_linker_0
_symmetry_space_group_name_H-M    P1
_symmetry_Int_Tables_number       1
_symmetry_cell_setting            triclinic
loop_
_symmetry_equiv_pos_as_xyz
'x, y, z'
_cell_length_a     17.298017
_cell_length_b     14.10238
_cell_length_c     25.781761
_cell_angle_alpha  89.3895
_cell_angle_beta   121.40284
_cell_angle_gamma 89.98534
loop_
_atom_site_label
_atom_site_type_symbol
_atom_site_fract_x
_atom_site_fract_y
_atom_site_fract_z
_atom_type_partial_charge
Eu0 Eu 0.35331 0.00491 0.95627 0.0
Eu1 Eu 0.25288 0.16963 -0.00888 0.0
O2 O 0.3627 -0.06503 0.8843 0.0
O3 O 0.45845 -0.09994 -0.02186 0.0
O4 O 0.16353 0.04452 0.96447 0.0
O5 O 0.26513 -0.07584 -0.01709 0.0
O6 O 0.44965 0.04831 0.05418 0.0
O7 O 0.33564 0.07266 0.07121 0.0
C8 C 0.51194 -0.09716 0.90966 0.0
C9 C 0.64723 -0.06941 0.88262 0.0
C10 C 0.65201 -0.02288 0.93115 0.0
C11 C 0.58443 -0.03529 0.94495 0.0
C12 C 0.57741 -0.13189 0.84708 0.0
C13 C 0.50882 -0.14569 0.86076 0.0
C14 C 0.43799 -0.10878 0.92204 0.0
C15 C 0.1869 -0.04496 0.97412 0.0
O16 O 0.25834 0.24833 0.06599 0.0
O17 O 0.14557 0.26783 0.97449 0.0
C18 C 0.42187 0.05939 0.09244 0.0
O19 O 0.37618 0.23931 0.00086 0.0
O20 O 0.38744 0.14611 0.93313 0.0
O21 O 0.18743 0.17639 0.88788 0.0
O22 O 0.21407 0.02137 0.87495 0.0
C23 C 0.11337 0.25947 0.05335 0.0
C24 C 0.06219 0.28248 0.125 0.0
C25 C 0.12283 0.30412 0.10534 0.0
C26 C 0.99653 0.21373 0.09419 0.0
C27 C 0.98426 0.17238 0.04211 0.0
C28 C 1.04237 0.19427 0.0213 0.0
C29 C 0.17619 0.28102 0.03201 0.0
C30 C 0.41114 0.22101 0.96751 0.0
C31 C 0.17123 0.10181 0.853 0.0
H32 H 0.69862 -0.05321 0.87186 0.0
H33 H 0.58843 0.0025 -0.01734 0.0
H34 H 0.45298 0.80711 0.83347 0.0
H35 H 0.17584 0.35575 0.12952 0.0
H36 H 0.95209 0.19226 0.11011 0.0
H37 H 1.03156 0.16162 -0.0198 0.0
Eu38 Eu 0.86663 0.4954 0.97065 0.0
Eu39 Eu 0.76576 0.66012 0.00513 0.0
O40 O 0.86037 0.41568 0.89582 0.0
O41 O 0.9749 0.39915 -0.01309 0.0
O42 O 0.73092 0.51924 0.02814 0.0
O43 O 0.7439 0.42495 0.96143 0.0
O44 O 0.93123 0.48743 0.07371 0.0
O45 O 0.90417 0.64205 0.08732 0.0
C46 C 1.00453 0.40646 0.90689 0.0
C47 C 0.11791 0.45368 0.8635 0.0
C48 C 0.13111 0.49558 0.91567 0.0
C49 C 0.07471 0.47293 0.93773 0.0
C50 C 1.0539 0.38282 0.83438 0.0
C51 C 0.99474 0.3606 0.85515 0.0
C52 C 0.94319 0.38456 0.9294 0.0
C53 C 0.70835 0.44364 -0.00561 0.0
O54 O 0.75516 0.73012 0.07657 0.0
O55 O 0.66096 0.76593 -0.01744 0.0
C56 C 0.94691 0.56141 0.10895 0.0
O57 O 0.8545 0.7406 -0.0211 0.0
O58 O 0.95638 0.62028 -0.00185 0.0
O59 O 0.66948 0.6149 0.90756 0.0
O60 O 0.78382 0.59251 0.89077 0.0
C61 C 0.60548 0.76262 0.04998 0.0
C62 C 0.5392 0.79572 0.11229 0.0
C63 C 0.60859 0.80947 0.09938 0.0
C64 C 0.46807 0.73567 0.07509 0.0
C65 C 0.46359 0.69031 0.02629 0.0
C66 C 0.53234 0.70211 0.01354 0.0
C67 C 0.6803 0.77424 0.03847 0.0
C68 C 0.93302 0.70972 -0.01176 0.0
C69 C 0.69736 0.60392 0.86935 0.0
H70 H 0.16107 0.47546 0.84659 0.0
H71 H 0.08631 0.50595 -0.02107 0.0
H72 H 0.94283 0.3075 0.83214 0.0
H73 H 0.66519 -0.14481 0.12772 0.0
H74 H 0.41575 0.71969 0.085 0.0
H75 H 0.52865 0.66506 -0.0243 0.0
Eu76 Eu 0.26693 0.49816 0.50593 0.0
Eu77 Eu 0.36647 0.66402 0.47007 0.0
O78 O 0.25642 0.42633 0.5777 0.0
O79 O 0.16277 0.39272 0.48386 0.0
O80 O 0.45688 0.53832 0.4983 0.0
O81 O 0.35571 0.41844 0.47997 0.0
O82 O 0.1705 0.54473 0.40788 0.0
O83 O 0.28432 0.56895 0.39058 0.0
C84 C 0.10663 0.39454 0.55087 0.0
C85 C 0.9681 0.42077 0.57486 0.0
C86 C 0.96353 0.46654 0.52561 0.0
C87 C 1.03286 0.45524 0.51345 0.0
C88 C 1.04033 0.3614 0.61343 0.0
C89 C 0.11013 0.3477 0.60096 0.0
C90 C 0.18185 0.38314 0.53976 0.0
C91 C 0.43386 0.44912 0.48885 0.0
O92 O 0.36024 0.74611 0.39508 0.0
O93 O 0.4743 0.76039 0.48625 0.0
C94 C 0.19817 0.55626 0.36948 0.0
O95 O 0.24305 0.73411 0.46033 0.0
O96 O 0.23133 0.6384 0.52802 0.0
O97 O 0.43032 0.67022 0.57296 0.0
O98 O 0.40526 0.51506 0.58802 0.0
C99 C 0.50462 0.75549 0.40654 0.0
C100 C 0.55342 0.77996 0.33356 0.0
C101 C 0.49419 0.80194 0.35419 0.0
C102 C 0.61837 0.70909 0.36359 0.0
C103 C 0.63194 0.66638 0.41615 0.0
C104 C 0.57541 0.68857 0.43804 0.0
C105 C 0.44282 0.77654 0.42869 0.0
C106 C 0.20815 0.71476 0.49376 0.0
C107 C 0.44691 0.59561 0.6089 0.0
H108 H 0.9153 0.43663 0.58427 0.0
H109 H 1.02914 0.49282 0.47531 0.0
H110 H 0.16749 0.30236 0.63031 0.0
H111 H 0.4415 -0.14501 0.33043 0.0
H112 H 0.66164 0.68747 0.34685 0.0
H113 H 0.58723 0.65469 0.47949 0.0
Eu114 Eu 0.75364 -0.01069 0.49165 0.0
Eu115 Eu 0.85309 0.1554 0.45592 0.0
O116 O 0.75933 -0.09232 0.56659 0.0
O117 O 0.64649 -0.10844 0.47514 0.0
O118 O 0.88838 0.01513 0.43368 0.0
O119 O 0.8778 -0.07991 0.50201 0.0
O120 O 0.68932 -0.01594 0.38862 0.0
O121 O 0.71454 0.13939 0.37409 0.0
C122 C 0.61437 -0.10277 0.55403 0.0
C123 C 0.4983 -0.05689 0.5952 0.0
C124 C 0.48554 -0.01456 0.54275 0.0
C125 C 0.5432 -0.03652 0.52173 0.0
C126 C 0.56413 -0.12655 0.62633 0.0
C127 C 0.62441 -0.14835 0.60653 0.0
C128 C 0.67719 -0.12372 0.53269 0.0
C129 C 0.91245 -0.06069 0.46843 0.0
O130 O 0.86274 0.2286 0.38416 0.0
O131 O 0.95835 0.25935 0.47811 0.0
C132 C 0.67269 0.05905 0.35295 0.0
O133 O 0.76441 0.23508 0.482 0.0
O134 O 0.66335 0.11508 0.46384 0.0
O135 O 0.94901 0.1102 0.55427 0.0
O136 O 0.83505 0.08443 0.57133 0.0
C137 C 1.01239 0.25889 0.40997 0.0
C138 C 0.07725 0.29322 0.3467 0.0
C139 C 1.00849 0.30708 0.36014 0.0
C140 C 0.1485 0.23174 0.38375 0.0
C141 C 0.15375 0.18511 0.43295 0.0
C142 C 0.08572 0.19706 0.44631 0.0
C143 C 0.93819 0.27042 0.42208 0.0
C144 C 0.68636 0.20431 0.47326 0.0
C145 C 0.92104 0.09869 0.59251 0.0
H146 H 0.45413 -0.03536 0.61123 0.0
H147 H 0.53202 -0.00294 0.48036 0.0
H148 H 0.67773 0.7995 0.6311 0.0
H149 H 0.95173 0.35376 0.3318 0.0
H150 H 0.20027 0.21565 0.3734 0.0
H151 H 0.09006 0.15897 0.48449 0.0
C152 C 0.80951 -0.00713 0.01486 0.0
C153 C 0.73212 0.03554 0.96622 0.0
H154 H 0.95331 0.00079 0.07498 0.0
C155 C 0.74059 0.1179 0.93856 0.0
H156 H 0.8047 -0.07335 0.03467 0.0
C157 C 0.82539 0.15779 0.95972 0.0
C158 C 0.90276 0.11517 0.00838 0.0
H159 H 0.68192 0.14863 0.89884 0.0
H160 H 0.83026 0.22354 0.93951 0.0
C161 C 0.89437 0.03264 0.03597 0.0
C162 C 0.221 0.63542 0.92154 0.0
C163 C 0.21298 0.5524 0.94888 0.0
H164 H 0.31035 0.74216 0.92317 0.0
C165 C 0.29067 0.5091 -0.00313 0.0
H166 H 0.16177 0.66776 0.88299 0.0
C167 C 0.37539 0.54891 0.01773 0.0
C168 C 0.38349 0.63212 -0.00937 0.0
H169 H 0.28605 0.44293 0.01681 0.0
H170 H 0.43429 0.51763 0.05702 0.0
C171 C 0.3058 0.67537 0.94254 0.0
C172 C 0.79239 0.65103 0.49569 0.0
C173 C 0.71377 0.60828 0.44944 0.0
H174 H 0.93641 0.64069 0.55395 0.0
C175 C 0.72045 0.52463 0.42294 0.0
H176 H 0.78869 0.71771 0.51483 0.0
C177 C 0.80486 0.4834 0.4432 0.0
C178 C 0.88348 0.52602 0.48962 0.0
H179 H 0.66044 0.49279 0.38559 0.0
H180 H 0.80848 0.41608 0.42468 0.0
C181 C 0.87671 0.60996 0.51577 0.0
C182 C 0.31213 0.16754 0.51559 0.0
C183 C 0.23395 0.12557 0.46836 0.0
H184 H 0.45633 0.15794 0.57403 0.0
C185 C 0.24135 0.04279 0.44146 0.0
H186 H 0.30805 0.23405 0.53472 0.0
C187 C 0.32587 0.00194 0.46185 0.0
C188 C 0.40402 0.0439 0.50905 0.0
H189 H 0.182 0.01265 0.4027 0.0
H190 H 0.32999 -0.06407 0.44227 0.0
C191 C 0.39671 0.1267 0.53601 0.0
C192 C 0.59797 0.31192 0.94601 0.0
C193 C 0.63489 0.38402 -0.01073 0.0
H194 H 0.49738 0.20468 0.90446 0.0
C195 C 0.59606 0.40383 0.02422 0.0
H196 H 0.62534 0.29626 0.91766 0.0
C197 C 0.52193 0.35229 0.01614 0.0
C198 C 0.48493 0.28027 0.97282 0.0
H199 H 0.62247 0.45953 0.05767 0.0
H200 H 0.49454 0.36801 0.04447 0.0
C201 C 0.52381 0.26038 0.93791 0.0
C202 C 0.64747 0.35951 0.49975 0.0
C203 C 0.6216 0.26869 0.47576 0.0
H204 H 0.60889 0.48681 0.52412 0.0
C205 C 0.53366 0.23644 0.45706 0.0
H206 H 0.7149 0.38564 0.51521 0.0
C207 C 0.47279 0.2939 0.46242 0.0
C208 C 0.49865 0.38471 0.48641 0.0
H209 H 0.51138 0.16658 0.43807 0.0
H210 H 0.40534 0.26779 0.44692 0.0
C211 C 0.5866 0.41695 0.50513 0.0
C212 C 0.14735 0.79854 -6e-05 0.0
C213 C 0.12191 -0.10947 -0.02367 0.0
H214 H 0.10811 0.67019 0.02369 0.0
C215 C 1.03393 -0.07628 0.9575 0.0
H216 H 0.21473 0.77157 0.0154 0.0
C217 C 0.97266 -0.13388 0.96243 0.0
C218 C 0.9981 0.77415 -0.01393 0.0
H219 H 1.01188 -0.00553 0.93871 0.0
H220 H 0.90527 -0.10691 0.94692 0.0
C221 C 0.08608 0.74095 0.0049 0.0
C222 C 1.023 -0.10052 0.43729 0.0
C223 C 0.986 -0.12028 0.47352 0.0
H224 H 0.12258 -0.13714 0.4155 0.0
C225 C 1.02448 0.80733 0.51769 0.0
H226 H 0.99536 -0.04455 0.40312 0.0
C227 C 0.09817 0.75519 0.52526 0.0
C228 C 0.13506 0.77482 0.48895 0.0
H229 H 0.99862 0.79182 0.54707 0.0
H230 H 0.12579 0.69921 0.55942 0.0
C231 C 0.09672 -0.15265 0.44488 0.0
C232 C 0.51485 0.05518 0.26276 0.0
C233 C 0.60847 0.05512 0.28677 0.0
H234 H 0.38246 0.0577 0.18251 0.0
C235 C 0.64085 0.06161 0.24692 0.0
H236 H 0.48848 0.05307 0.29274 0.0
C237 C 0.58061 0.06271 0.1838 0.0
C238 C 0.48659 0.06004 0.15934 0.0
H239 H 0.71302 0.06435 0.26471 0.0
H240 H 0.60771 0.0654 0.15425 0.0
C241 C 0.45445 0.0586 0.19966 0.0
C242 C 0.62657 -0.16623 0.22315 0.0
C243 C 0.5434 -0.16997 0.16821 0.0
H244 H 0.69449 -0.16896 0.31968 0.0
C245 C 0.463 -0.16081 0.16974 0.0
H246 H 0.69003 0.82919 0.22449 0.0
C247 C 0.46528 -0.16778 0.22457 0.0
C248 C 0.54841 0.82266 0.27903 0.0
H249 H 0.3973 -0.15599 0.12822 0.0
H250 H 0.40216 0.82714 0.22371 0.0
C251 C 0.62885 -0.16681 0.27794 0.0
C252 C 0.47859 0.59498 0.71494 0.0
C253 C 0.511 0.60046 0.67507 0.0
H254 H 0.51162 0.59447 0.8076 0.0
C255 C 0.60461 0.60165 0.69913 0.0
H256 H 0.40645 0.59146 0.69715 0.0
C257 C 0.66494 0.60063 0.76223 0.0
C258 C 0.63271 0.60046 0.8025 0.0
H259 H 0.63104 0.60316 0.66917 0.0
H260 H 0.73692 0.60255 0.7794 0.0
C261 C 0.53874 0.59629 0.77806 0.0
C262 C 0.65456 0.8212 0.7909 0.0
C263 C 0.57387 -0.1694 0.79206 0.0
H264 H 0.71566 -0.16917 0.73702 0.0
C265 C 0.49093 0.82409 0.73719 0.0
H266 H 0.72019 0.81858 0.83259 0.0
C267 C 0.48895 0.82208 0.68251 0.0
C268 C 0.56939 -0.16735 0.6814 0.0
H269 H 0.42734 0.82866 0.73568 0.0
H270 H 0.42339 0.8223 0.6407 0.0
C271 C 0.65249 0.82559 0.73609 0.0
C272 C 1.03932 0.56129 0.27815 0.0
C273 C 0.13335 0.55833 0.30257 0.0
H274 H 0.90683 0.56447 0.19729 0.0
C275 C 0.1654 0.55793 0.26219 0.0
H276 H 1.01228 0.56319 0.30773 0.0
C277 C 0.10491 0.55585 0.19912 0.0
C278 C 1.01131 0.55604 0.17517 0.0
H279 H 0.23738 0.55684 0.2793 0.0
H280 H 0.13122 0.55456 0.1691 0.0
C281 C 0.979 0.56152 0.21504 0.0
C282 C 0.98894 0.33309 0.23552 0.0
C283 C 0.07228 0.32875 0.29039 0.0
H284 H 0.92063 0.33206 0.13902 0.0
C285 C 0.15242 0.33808 0.28857 0.0
H286 H 0.92568 0.32843 0.23444 0.0
C287 C 0.14996 0.33194 0.23376 0.0
C288 C 0.06682 0.32307 0.17945 0.0
H289 H 0.21815 0.34226 0.33 0.0
H290 H 0.21309 0.3271 0.23461 0.0
C291 C 0.98639 0.33331 0.18064 0.0
C292 C 1.01332 0.10502 0.76267 0.0
C293 C 0.10696 0.10623 0.78677 0.0
H294 H 0.88108 0.10064 0.68236 0.0
C295 C 0.13962 0.0998 0.74713 0.0
H296 H 0.9868 0.1068 0.79256 0.0
C297 C 0.07957 0.09764 0.68405 0.0
C298 C 0.98548 0.09911 0.65944 0.0
H299 H 0.21186 0.09769 0.76505 0.0
H300 H 0.10689 0.09497 0.65465 0.0
C301 C 0.95312 0.10061 0.69963 0.0
C302 C 0.96519 0.31954 0.6721 0.0
C303 C 1.04538 0.32873 0.67031 0.0
H304 H 0.90395 0.33295 0.72562 0.0
C305 C 0.1286 0.32708 0.72535 0.0
H306 H 0.89965 0.31328 0.63073 0.0
C307 C 0.1308 0.32947 0.78008 0.0
C308 C 1.05006 0.33968 0.78084 0.0
H309 H 0.19194 0.33183 0.72654 0.0
H310 H 0.19638 0.3329 0.82173 0.0
C311 C 0.96723 0.32821 0.72667 0.0
loop_
_geom_bond_atom_site_label_1
_geom_bond_atom_site_label_2
_geom_bond_distance
_geom_bond_site_symmetry_2
_ccdc_geom_bond_type
Eu0 O2 2.448 1_554 S
Eu0 O3 2.494 . S
Eu0 O5 2.354 . S
Eu0 O6 2.408 . S
Eu0 C14 2.815 1_554 S
Eu0 O20 2.394 . S
Eu0 O22 2.319 1_554 S
Eu1 O4 2.396 1_554 S
Eu1 O7 2.323 . S
Eu1 O16 2.472 . S
Eu1 O17 2.507 1_554 S
Eu1 O19 2.336 1_554 S
Eu1 O21 2.389 1_554 S
Eu1 C29 2.835 . S
O2 Eu0 2.448 1_556 S
O2 C14 1.258 . S
O3 Eu0 2.494 . S
O3 C14 1.246 1_554 S
O4 Eu1 2.396 1_556 S
O4 C15 1.216 1_556 S
O5 Eu0 2.354 . S
O5 C15 1.279 . S
O6 Eu0 2.408 . S
O6 C18 1.239 . S
O7 Eu1 2.323 . S
O7 C18 1.249 . S
C8 C11 1.390 . S
C8 C13 1.370 . S
C8 C14 1.489 . S
C9 C10 1.344 . S
C9 C12 1.413 . S
C9 H32 0.931 . S
C10 C9 1.344 . S
C10 C11 1.423 . S
C11 C8 1.390 . S
C11 C10 1.423 . S
C11 H33 0.930 1_556 S
C12 C9 1.413 . S
C12 C13 1.397 . S
C13 C8 1.370 . S
C13 C12 1.397 . S
C13 H34 0.932 . S
C14 Eu0 2.815 1_556 S
C14 O2 1.258 . S
C14 O3 1.246 1_556 S
C14 C8 1.489 . S
C15 O4 1.216 1_554 S
C15 O5 1.279 . S
O16 Eu1 2.472 . S
O16 C29 1.258 . S
O17 Eu1 2.507 1_556 S
O17 C29 1.246 1_556 S
C18 O6 1.239 . S
C18 O7 1.249 . S
O19 Eu1 2.336 1_556 S
O19 C30 1.279 1_556 S
O20 Eu0 2.394 . S
O20 C30 1.216 . S
O21 Eu1 2.389 1_556 S
O21 C31 1.239 . S
O22 Eu0 2.319 1_556 S
O22 C31 1.249 . S
C23 C25 1.370 . S
C23 C28 1.390 1_455 S
C23 C29 1.489 . S
C24 C25 1.397 . S
C24 C26 1.413 1_455 S
C25 C23 1.370 . S
C25 C24 1.397 . S
C25 H35 0.932 . S
C26 C24 1.413 1_655 S
C26 C27 1.344 . S
C26 H36 0.931 . S
C27 C26 1.344 . S
C27 C28 1.423 . S
C28 C23 1.390 1_655 S
C28 C27 1.423 . S
C28 H37 0.930 1_554 S
C29 Eu1 2.835 . S
C29 O16 1.258 . S
C29 O17 1.246 1_554 S
C29 C23 1.489 . S
C30 O19 1.279 1_554 S
C30 O20 1.216 . S
C31 O21 1.239 . S
C31 O22 1.249 . S
H32 C9 0.931 . S
H33 C11 0.930 1_554 S
H34 C13 0.932 . S
H35 C25 0.932 . S
H36 C26 0.931 . S
H37 C28 0.930 1_556 S
Eu38 O40 2.448 1_554 S
Eu38 O41 2.494 . S
Eu38 O43 2.354 . S
Eu38 O44 2.408 . S
Eu38 C52 2.815 1_554 S
Eu38 O58 2.394 . S
Eu38 O60 2.319 1_554 S
Eu39 O42 2.396 1_554 S
Eu39 O45 2.323 . S
Eu39 O54 2.472 . S
Eu39 O55 2.507 1_554 S
Eu39 O57 2.336 1_554 S
Eu39 O59 2.389 1_554 S
Eu39 C67 2.835 . S
O40 Eu38 2.448 1_556 S
O40 C52 1.258 . S
O41 Eu38 2.494 . S
O41 C52 1.246 1_554 S
O42 Eu39 2.396 1_556 S
O42 C53 1.216 1_556 S
O43 Eu38 2.354 . S
O43 C53 1.279 . S
O44 Eu38 2.408 . S
O44 C56 1.239 . S
O45 Eu39 2.323 . S
O45 C56 1.249 . S
C46 C49 1.390 1_655 S
C46 C51 1.370 . S
C46 C52 1.489 . S
C47 C48 1.344 . S
C47 C50 1.413 1_455 S
C47 H70 0.931 . S
C48 C47 1.344 . S
C48 C49 1.423 . S
C49 C46 1.390 1_455 S
C49 C48 1.423 . S
C49 H71 0.930 1_556 S
C50 C47 1.413 1_655 S
C50 C51 1.397 . S
C51 C46 1.370 . S
C51 C50 1.397 . S
C51 H72 0.932 . S
C52 Eu38 2.815 1_556 S
C52 O40 1.258 . S
C52 O41 1.246 1_556 S
C52 C46 1.489 . S
C53 O42 1.216 1_554 S
C53 O43 1.279 . S
O54 Eu39 2.472 . S
O54 C67 1.258 . S
O55 Eu39 2.507 1_556 S
O55 C67 1.246 1_556 S
C56 O44 1.239 . S
C56 O45 1.249 . S
O57 Eu39 2.336 1_556 S
O57 C68 1.279 1_556 S
O58 Eu38 2.394 . S
O58 C68 1.216 . S
O59 Eu39 2.389 1_556 S
O59 C69 1.239 . S
O60 Eu38 2.319 1_556 S
O60 C69 1.249 . S
C61 C63 1.370 . S
C61 C66 1.390 . S
C61 C67 1.489 . S
C62 C63 1.397 . S
C62 C64 1.413 . S
C63 C61 1.370 . S
C63 C62 1.397 . S
C63 H73 0.932 . S
C64 C62 1.413 . S
C64 C65 1.344 . S
C64 H74 0.931 . S
C65 C64 1.344 . S
C65 C66 1.423 . S
C66 C61 1.390 . S
C66 C65 1.423 . S
C66 H75 0.930 1_554 S
C67 Eu39 2.835 . S
C67 O54 1.258 . S
C67 O55 1.246 1_554 S
C67 C61 1.489 . S
C68 O57 1.279 1_554 S
C68 O58 1.216 . S
C69 O59 1.239 . S
C69 O60 1.249 . S
H70 C47 0.931 . S
H71 C49 0.930 1_554 S
H72 C51 0.932 . S
H73 C63 0.932 . S
H74 C64 0.931 . S
H75 C66 0.930 1_556 S
Eu76 O78 2.472 . S
Eu76 O79 2.507 . S
Eu76 O81 2.336 . S
Eu76 O82 2.389 . S
Eu76 C90 2.835 . S
Eu76 O96 2.396 . S
Eu76 O98 2.323 . S
Eu77 O80 2.396 . S
Eu77 O83 2.323 . S
Eu77 O92 2.472 . S
Eu77 O93 2.507 . S
Eu77 O95 2.336 . S
Eu77 O97 2.389 . S
Eu77 C105 2.835 . S
O78 Eu76 2.472 . S
O78 C90 1.258 . S
O79 Eu76 2.507 . S
O79 C90 1.246 . S
O80 Eu77 2.396 . S
O80 C91 1.216 . S
O81 Eu76 2.336 . S
O81 C91 1.279 . S
O82 Eu76 2.389 . S
O82 C94 1.239 . S
O83 Eu77 2.323 . S
O83 C94 1.249 . S
C84 C87 1.390 1_455 S
C84 C89 1.370 . S
C84 C90 1.489 . S
C85 C86 1.344 . S
C85 C88 1.413 1_655 S
C85 H108 0.931 . S
C86 C85 1.344 . S
C86 C87 1.423 . S
C87 C84 1.390 1_655 S
C87 C86 1.423 . S
C87 H109 0.930 . S
C88 C85 1.413 1_455 S
C88 C89 1.397 . S
C89 C84 1.370 . S
C89 C88 1.397 . S
C89 H110 0.932 . S
C90 Eu76 2.835 . S
C90 O78 1.258 . S
C90 O79 1.246 . S
C90 C84 1.489 . S
C91 O80 1.216 . S
C91 O81 1.279 . S
O92 Eu77 2.472 . S
O92 C105 1.258 . S
O93 Eu77 2.507 . S
O93 C105 1.246 . S
C94 O82 1.239 . S
C94 O83 1.249 . S
O95 Eu77 2.336 . S
O95 C106 1.279 . S
O96 Eu76 2.396 . S
O96 C106 1.216 . S
O97 Eu77 2.389 . S
O97 C107 1.239 . S
O98 Eu76 2.323 . S
O98 C107 1.249 . S
C99 C101 1.370 . S
C99 C104 1.390 . S
C99 C105 1.489 . S
C100 C101 1.397 . S
C100 C102 1.413 . S
C101 C99 1.370 . S
C101 C100 1.397 . S
C101 H111 0.932 . S
C102 C100 1.413 . S
C102 C103 1.344 . S
C102 H112 0.931 . S
C103 C102 1.344 . S
C103 C104 1.423 . S
C104 C99 1.390 . S
C104 C103 1.423 . S
C104 H113 0.930 . S
C105 Eu77 2.835 . S
C105 O92 1.258 . S
C105 O93 1.246 . S
C105 C99 1.489 . S
C106 O95 1.279 . S
C106 O96 1.216 . S
C107 O97 1.239 . S
C107 O98 1.249 . S
H108 C85 0.931 . S
H109 C87 0.930 . S
H110 C89 0.932 . S
H111 C101 0.932 . S
H112 C102 0.931 . S
H113 C104 0.930 . S
Eu114 O116 2.472 . S
Eu114 O117 2.507 . S
Eu114 O119 2.336 . S
Eu114 O120 2.389 . S
Eu114 C128 2.835 . S
Eu114 O134 2.396 . S
Eu114 O136 2.323 . S
Eu115 O118 2.396 . S
Eu115 O121 2.323 . S
Eu115 O130 2.472 . S
Eu115 O131 2.507 . S
Eu115 O133 2.336 . S
Eu115 O135 2.389 . S
Eu115 C143 2.835 . S
O116 Eu114 2.472 . S
O116 C128 1.258 . S
O117 Eu114 2.507 . S
O117 C128 1.246 . S
O118 Eu115 2.396 . S
O118 C129 1.216 . S
O119 Eu114 2.336 . S
O119 C129 1.279 . S
O120 Eu114 2.389 . S
O120 C132 1.239 . S
O121 Eu115 2.323 . S
O121 C132 1.249 . S
C122 C125 1.390 . S
C122 C127 1.370 . S
C122 C128 1.489 . S
C123 C124 1.344 . S
C123 C126 1.413 . S
C123 H146 0.931 . S
C124 C123 1.344 . S
C124 C125 1.423 . S
C125 C122 1.390 . S
C125 C124 1.423 . S
C125 H147 0.930 . S
C126 C123 1.413 . S
C126 C127 1.397 . S
C127 C122 1.370 . S
C127 C126 1.397 . S
C127 H148 0.932 . S
C128 Eu114 2.835 . S
C128 O116 1.258 . S
C128 O117 1.246 . S
C128 C122 1.489 . S
C129 O118 1.216 . S
C129 O119 1.279 . S
O130 Eu115 2.472 . S
O130 C143 1.258 . S
O131 Eu115 2.507 . S
O131 C143 1.246 . S
C132 O120 1.239 . S
C132 O121 1.249 . S
O133 Eu115 2.336 . S
O133 C144 1.279 . S
O134 Eu114 2.396 . S
O134 C144 1.216 . S
O135 Eu115 2.389 . S
O135 C145 1.239 . S
O136 Eu114 2.323 . S
O136 C145 1.249 . S
C137 C139 1.370 . S
C137 C142 1.390 1_655 S
C137 C143 1.489 . S
C138 C139 1.397 . S
C138 C140 1.413 1_655 S
C139 C137 1.370 . S
C139 C138 1.397 . S
C139 H149 0.932 . S
C140 C138 1.413 1_455 S
C140 C141 1.344 . S
C140 H150 0.931 . S
C141 C140 1.344 . S
C141 C142 1.423 . S
C142 C137 1.390 1_455 S
C142 C141 1.423 . S
C142 H151 0.930 . S
C143 Eu115 2.835 . S
C143 O130 1.258 . S
C143 O131 1.246 . S
C143 C137 1.489 . S
C144 O133 1.279 . S
C144 O134 1.216 . S
C145 O135 1.239 . S
C145 O136 1.249 . S
H146 C123 0.931 . S
H147 C125 0.930 . S
H148 C127 0.932 . S
H149 C139 0.932 . S
H150 C140 0.931 . S
H151 C142 0.930 . S
C152 C153 1.387 1_554 S
C152 H156 0.950 . S
C152 C161 1.390 . S
C153 C152 1.387 1_556 S
C153 C155 1.387 . S
H154 C161 0.950 . S
C155 C153 1.387 . S
C155 C157 1.390 . S
C155 H159 0.950 . S
H156 C152 0.950 . S
C157 C155 1.390 . S
C157 C158 1.387 1_556 S
C157 H160 0.950 . S
C158 C157 1.387 1_554 S
C158 C161 1.387 . S
H159 C155 0.950 . S
H160 C157 0.950 . S
C161 C152 1.390 . S
C161 H154 0.950 . S
C161 C158 1.387 . S
C162 C163 1.387 . S
C162 H166 0.950 . S
C162 C171 1.390 . S
C163 C162 1.387 . S
C163 C165 1.387 1_556 S
H164 C171 0.950 . S
C165 C163 1.387 1_554 S
C165 C167 1.390 . S
C165 H169 0.950 . S
H166 C162 0.950 . S
C167 C165 1.390 . S
C167 C168 1.387 . S
C167 H170 0.950 . S
C168 C167 1.387 . S
C168 C171 1.387 1_554 S
H169 C165 0.950 . S
H170 C167 0.950 . S
C171 C162 1.390 . S
C171 H164 0.950 . S
C171 C168 1.387 1_556 S
C172 C173 1.387 . S
C172 H176 0.950 . S
C172 C181 1.390 . S
C173 C172 1.387 . S
C173 C175 1.387 . S
H174 C181 0.950 . S
C175 C173 1.387 . S
C175 C177 1.390 . S
C175 H179 0.950 . S
H176 C172 0.950 . S
C177 C175 1.390 . S
C177 C178 1.387 . S
C177 H180 0.950 . S
C178 C177 1.387 . S
C178 C181 1.387 . S
H179 C175 0.950 . S
H180 C177 0.950 . S
C181 C172 1.390 . S
C181 H174 0.950 . S
C181 C178 1.387 . S
C182 C183 1.387 . S
C182 H186 0.950 . S
C182 C191 1.390 . S
C183 C182 1.387 . S
C183 C185 1.387 . S
H184 C191 0.950 . S
C185 C183 1.387 . S
C185 C187 1.390 . S
C185 H189 0.950 . S
H186 C182 0.950 . S
C187 C185 1.390 . S
C187 C188 1.387 . S
C187 H190 0.950 . S
C188 C187 1.387 . S
C188 C191 1.387 . S
H189 C185 0.950 . S
H190 C187 0.950 . S
C191 C182 1.390 . S
C191 H184 0.950 . S
C191 C188 1.387 . S
C192 C193 1.385 . S
C192 H196 0.950 . S
C192 C201 1.390 1_556 S
C193 C192 1.385 . S
C193 C195 1.383 1_556 S
H194 C201 0.950 . S
C195 C193 1.383 1_554 S
C195 C197 1.390 . S
C195 H199 0.950 . S
H196 C192 0.950 . S
C197 C195 1.390 . S
C197 C198 1.387 . S
C197 H200 0.950 . S
C198 C197 1.387 . S
C198 C201 1.387 . S
H199 C195 0.950 . S
H200 C197 0.950 . S
C201 C192 1.390 1_554 S
C201 H194 0.950 . S
C201 C198 1.387 . S
C202 C203 1.387 . S
C202 H206 0.950 . S
C202 C211 1.390 . S
C203 C202 1.387 . S
C203 C205 1.387 . S
H204 C211 0.950 . S
C205 C203 1.387 . S
C205 C207 1.390 . S
C205 H209 0.950 . S
H206 C202 0.950 . S
C207 C205 1.390 . S
C207 C208 1.387 . S
C207 H210 0.950 . S
C208 C207 1.387 . S
C208 C211 1.387 . S
H209 C205 0.950 . S
H210 C207 0.950 . S
C211 C202 1.390 . S
C211 H204 0.950 . S
C211 C208 1.387 . S
C212 C213 1.371 1_554 S
C212 H216 0.950 . S
C212 C221 1.390 1_455 S
C213 C212 1.371 1_556 S
C213 C215 1.387 1_565 S
H214 C221 0.950 . S
C215 C213 1.387 1_545 S
C215 C217 1.390 1_455 S
C215 H219 0.950 . S
H216 C212 0.950 . S
C217 C215 1.390 1_655 S
C217 C218 1.387 1_556 S
C217 H220 0.950 . S
C218 C217 1.387 1_554 S
C218 C221 1.387 1_545 S
H219 C215 0.950 . S
H220 C217 0.950 . S
C221 C212 1.390 1_655 S
C221 H214 0.950 . S
C221 C218 1.387 1_565 S
C222 C223 1.387 . S
C222 H226 0.950 . S
C222 C231 1.390 . S
C223 C222 1.387 . S
C223 C225 1.387 1_665 S
H224 C231 0.950 . S
C225 C223 1.387 1_445 S
C225 C227 1.390 . S
C225 H229 0.950 . S
H226 C222 0.950 . S
C227 C225 1.390 . S
C227 C228 1.387 . S
C227 H230 0.950 . S
C228 C227 1.387 . S
C228 C231 1.387 1_445 S
H229 C225 0.950 . S
H230 C227 0.950 . S
C231 C222 1.390 . S
C231 H224 0.950 . S
C231 C228 1.387 1_665 S
C232 C233 1.387 . S
C232 H236 0.950 . S
C232 C241 1.390 . S
C233 C232 1.387 . S
C233 C235 1.387 . S
H234 C241 0.950 . S
C235 C233 1.387 . S
C235 C237 1.390 . S
C235 H239 0.950 . S
H236 C232 0.950 . S
C237 C235 1.390 . S
C237 C238 1.387 . S
C237 H240 0.950 . S
C238 C237 1.387 . S
C238 C241 1.387 . S
H239 C235 0.950 . S
H240 C237 0.950 . S
C241 C232 1.390 . S
C241 H234 0.950 . S
C241 C238 1.387 . S
C242 C243 1.387 . S
C242 H246 0.950 . S
C242 C251 1.390 . S
C243 C242 1.387 . S
C243 C245 1.387 1_565 S
H244 C251 0.950 . S
C245 C243 1.387 1_545 S
C245 C247 1.390 . S
C245 H249 0.950 . S
H246 C242 0.950 . S
C247 C245 1.390 . S
C247 C248 1.387 1_545 S
C247 H250 0.950 . S
C248 C247 1.387 1_565 S
C248 C251 1.387 . S
H249 C245 0.950 . S
H250 C247 0.950 . S
C251 C242 1.390 . S
C251 H244 0.950 . S
C251 C248 1.387 . S
C252 C253 1.387 . S
C252 H256 0.950 . S
C252 C261 1.390 . S
C253 C252 1.387 . S
C253 C255 1.387 . S
H254 C261 0.950 . S
C255 C253 1.387 . S
C255 C257 1.390 . S
C255 H259 0.950 . S
H256 C252 0.950 . S
C257 C255 1.390 . S
C257 C258 1.387 . S
C257 H260 0.950 . S
C258 C257 1.387 . S
C258 C261 1.387 . S
H259 C255 0.950 . S
H260 C257 0.950 . S
C261 C252 1.390 . S
C261 H254 0.950 . S
C261 C258 1.387 . S
C262 C263 1.387 . S
C262 H266 0.950 . S
C262 C271 1.390 . S
C263 C262 1.387 . S
C263 C265 1.387 1_545 S
H264 C271 0.950 . S
C265 C263 1.387 1_565 S
C265 C267 1.390 . S
C265 H269 0.950 . S
H266 C262 0.950 . S
C267 C265 1.390 . S
C267 C268 1.387 1_565 S
C267 H270 0.950 . S
C268 C267 1.387 1_545 S
C268 C271 1.387 . S
H269 C265 0.950 . S
H270 C267 0.950 . S
C271 C262 1.390 . S
C271 H264 0.950 . S
C271 C268 1.387 . S
C272 C273 1.387 . S
C272 H276 0.950 . S
C272 C281 1.390 1_455 S
C273 C272 1.387 . S
C273 C275 1.387 . S
H274 C281 0.950 . S
C275 C273 1.387 . S
C275 C277 1.390 1_455 S
C275 H279 0.950 . S
H276 C272 0.950 . S
C277 C275 1.390 1_655 S
C277 C278 1.387 . S
C277 H280 0.950 . S
C278 C277 1.387 . S
C278 C281 1.387 . S
H279 C275 0.950 . S
H280 C277 0.950 . S
C281 C272 1.390 1_655 S
C281 H274 0.950 . S
C281 C278 1.387 . S
C282 C283 1.387 . S
C282 H286 0.950 . S
C282 C291 1.390 1_655 S
C283 C282 1.387 . S
C283 C285 1.387 . S
H284 C291 0.950 . S
C285 C283 1.387 . S
C285 C287 1.390 1_655 S
C285 H289 0.950 . S
H286 C282 0.950 . S
C287 C285 1.390 1_455 S
C287 C288 1.387 . S
C287 H290 0.950 . S
C288 C287 1.387 . S
C288 C291 1.387 . S
H289 C285 0.950 . S
H290 C287 0.950 . S
C291 C282 1.390 1_455 S
C291 H284 0.950 . S
C291 C288 1.387 . S
C292 C293 1.387 . S
C292 H296 0.950 . S
C292 C301 1.390 1_455 S
C293 C292 1.387 . S
C293 C295 1.387 . S
H294 C301 0.950 . S
C295 C293 1.387 . S
C295 C297 1.390 1_455 S
C295 H299 0.950 . S
H296 C292 0.950 . S
C297 C295 1.390 1_655 S
C297 C298 1.387 . S
C297 H300 0.950 . S
C298 C297 1.387 . S
C298 C301 1.387 . S
H299 C295 0.950 . S
H300 C297 0.950 . S
C301 C292 1.390 1_655 S
C301 H294 0.950 . S
C301 C298 1.387 . S
C302 C303 1.387 . S
C302 H306 0.950 . S
C302 C311 1.390 1_455 S
C303 C302 1.387 . S
C303 C305 1.387 . S
H304 C311 0.950 . S
C305 C303 1.387 . S
C305 C307 1.390 1_455 S
C305 H309 0.950 . S
H306 C302 0.950 . S
C307 C305 1.390 1_655 S
C307 C308 1.387 . S
C307 H310 0.950 . S
C308 C307 1.387 . S
C308 C311 1.387 . S
H309 C305 0.950 . S
H310 C307 0.950 . S
C311 C302 1.390 1_655 S
C311 H304 0.950 . S
C311 C308 1.387 . S
C153 C10 1.771 . S
C158 C27 1.771 . S
C163 C48 1.776 . S
C168 C65 1.776 . S
C173 C103 1.776 . S
C178 C86 1.776 . S
C183 C141 1.776 . S
C188 C124 1.776 . S
C193 C53 1.958 1_556 S
C198 C30 1.953 . S
C203 C144 1.954 . S
C208 C91 1.954 . S
C213 C15 1.970 1_566 S
C218 C68 1.955 1_545 S
C223 C129 1.956 1_565 S
C228 C106 1.956 1_545 S
C233 C132 1.309 . S
C238 C18 1.309 . S
C243 C62 1.662 . S
C248 C100 1.662 . S
C253 C107 1.308 . S
C258 C69 1.308 . S
C263 C12 1.666 . S
C268 C126 1.666 . S
C273 C94 1.309 . S
C278 C56 1.309 . S
C283 C138 1.662 . S
C288 C24 1.662 . S
C293 C31 1.308 . S
C298 C145 1.308 . S
C303 C88 1.666 . S
C308 C50 1.666 . S
