# Generated by pormake.
# Topology unl, (4)-cn, num edge types: 1
# Building blocks:
#     Node 0, Type 0, BuildingBlock: CEKHIL_clean_sbu_0, # of connection points: 4
#     Node 1, Type 0, BuildingBlock: CEKHIL_clean_sbu_0, # of connection points: 4
#     Node 2, Type 0, BuildingBlock: CEKHIL_clean_sbu_0, # of connection points: 4
#     Node 3, Type 0, BuildingBlock: CEKHIL_clean_sbu_0, # of connection points: 4
#     Node 4, Type 0, BuildingBlock: CEKHIL_clean_sbu_0, # of connection points: 4
#     Node 5, Type 0, BuildingBlock: CEKHIL_clean_sbu_0, # of connection points: 4
#     Node 6, Type 0, BuildingBlock: CEKHIL_clean_sbu_0, # of connection points: 4
#     Node 7, Type 0, BuildingBlock: CEKHIL_clean_sbu_0, # of connection points: 4
#     Node 8, Type 0, BuildingBlock: CEKHIL_clean_sbu_0, # of connection points: 4
#     Node 9, Type 0, BuildingBlock: CEKHIL_clean_sbu_0, # of connection points: 4
#     Node 10, Type 0, BuildingBlock: CEKHIL_clean_sbu_0, # of connection points: 4
#     Node 11, Type 0, BuildingBlock: CEKHIL_clean_sbu_0, # of connection points: 4
#     Node 12, Type 0, BuildingBlock: CEKHIL_clean_sbu_0, # of connection points: 4
#     Node 13, Type 0, BuildingBlock: CEKHIL_clean_sbu_0, # of connection points: 4
#     Node 14, Type 0, BuildingBlock: CEKHIL_clean_sbu_0, # of connection points: 4
#     Node 15, Type 0, BuildingBlock: CEKHIL_clean_sbu_0, # of connection points: 4
#     Node 16, Type 0, BuildingBlock: CEKHIL_clean_sbu_0, # of connection points: 4
#     Node 17, Type 0, BuildingBlock: CEKHIL_clean_sbu_0, # of connection points: 4
#     Node 18, Type 0, BuildingBlock: CEKHIL_clean_sbu_0, # of connection points: 4
#     Node 19, Type 0, BuildingBlock: CEKHIL_clean_sbu_0, # of connection points: 4
#     Node 20, Type 0, BuildingBlock: CEKHIL_clean_sbu_0, # of connection points: 4
#     Node 21, Type 0, BuildingBlock: CEKHIL_clean_sbu_0, # of connection points: 4
#     Node 22, Type 0, BuildingBlock: CEKHIL_clean_sbu_0, # of connection points: 4
#     Node 23, Type 0, BuildingBlock: CEKHIL_clean_sbu_0, # of connection points: 4
#     Node 24, Type 0, BuildingBlock: CEKHIL_clean_sbu_0, # of connection points: 4
#     Node 25, Type 0, BuildingBlock: CEKHIL_clean_sbu_0, # of connection points: 4
#     Node 26, Type 0, BuildingBlock: CEKHIL_clean_sbu_0, # of connection points: 4
#     Node 27, Type 0, BuildingBlock: CEKHIL_clean_sbu_0, # of connection points: 4
#     Node 28, Type 0, BuildingBlock: CEKHIL_clean_sbu_0, # of connection points: 4
#     Node 29, Type 0, BuildingBlock: CEKHIL_clean_sbu_0, # of connection points: 4
#     Node 30, Type 0, BuildingBlock: CEKHIL_clean_sbu_0, # of connection points: 4
#     Node 31, Type 0, BuildingBlock: CEKHIL_clean_sbu_0, # of connection points: 4
#     Node 32, Type 0, BuildingBlock: CEKHIL_clean_sbu_0, # of connection points: 4
#     Node 33, Type 0, BuildingBlock: CEKHIL_clean_sbu_0, # of connection points: 4
#     Node 34, Type 0, BuildingBlock: CEKHIL_clean_sbu_0, # of connection points: 4
#     Node 35, Type 0, BuildingBlock: CEKHIL_clean_sbu_0, # of connection points: 4
#     Edge 36, Type (0, 0), BuildingBlock: TEMPAE_clean_linker_10, # of connection points: 2
#     Edge 37, Type (0, 0), BuildingBlock: TEMPAE_clean_linker_10, # of connection points: 2
#     Edge 38, Type (0, 0), BuildingBlock: TEMPAE_clean_linker_10, # of connection points: 2
#     Edge 39, Type (0, 0), BuildingBlock: TEMPAE_clean_linker_10, # of connection points: 2
#     Edge 40, Type (0, 0), BuildingBlock: TEMPAE_clean_linker_10, # of connection points: 2
#     Edge 41, Type (0, 0), BuildingBlock: TEMPAE_clean_linker_10, # of connection points: 2
#     Edge 42, Type (0, 0), BuildingBlock: TEMPAE_clean_linker_10, # of connection points: 2
#     Edge 43, Type (0, 0), BuildingBlock: TEMPAE_clean_linker_10, # of connection points: 2
#     Edge 44, Type (0, 0), BuildingBlock: TEMPAE_clean_linker_10, # of connection points: 2
#     Edge 45, Type (0, 0), BuildingBlock: TEMPAE_clean_linker_10, # of connection points: 2
#     Edge 46, Type (0, 0), BuildingBlock: TEMPAE_clean_linker_10, # of connection points: 2
#     Edge 47, Type (0, 0), BuildingBlock: TEMPAE_clean_linker_10, # of connection points: 2
#     Edge 48, Type (0, 0), BuildingBlock: TEMPAE_clean_linker_10, # of connection points: 2
#     Edge 49, Type (0, 0), BuildingBlock: TEMPAE_clean_linker_10, # of connection points: 2
#     Edge 50, Type (0, 0), BuildingBlock: TEMPAE_clean_linker_10, # of connection points: 2
#     Edge 51, Type (0, 0), BuildingBlock: TEMPAE_clean_linker_10, # of connection points: 2
#     Edge 52, Type (0, 0), BuildingBlock: TEMPAE_clean_linker_10, # of connection points: 2
#     Edge 53, Type (0, 0), BuildingBlock: TEMPAE_clean_linker_10, # of connection points: 2
#     Edge 54, Type (0, 0), BuildingBlock: TEMPAE_clean_linker_10, # of connection points: 2
#     Edge 55, Type (0, 0), BuildingBlock: TEMPAE_clean_linker_10, # of connection points: 2
#     Edge 56, Type (0, 0), BuildingBlock: TEMPAE_clean_linker_10, # of connection points: 2
#     Edge 57, Type (0, 0), BuildingBlock: TEMPAE_clean_linker_10, # of connection points: 2
#     Edge 58, Type (0, 0), BuildingBlock: TEMPAE_clean_linker_10, # of connection points: 2
#     Edge 59, Type (0, 0), BuildingBlock: TEMPAE_clean_linker_10, # of connection points: 2
#     Edge 60, Type (0, 0), BuildingBlock: TEMPAE_clean_linker_10, # of connection points: 2
#     Edge 61, Type (0, 0), BuildingBlock: TEMPAE_clean_linker_10, # of connection points: 2
#     Edge 62, Type (0, 0), BuildingBlock: TEMPAE_clean_linker_10, # of connection points: 2
#     Edge 63, Type (0, 0), BuildingBlock: TEMPAE_clean_linker_10, # of connection points: 2
#     Edge 64, Type (0, 0), BuildingBlock: TEMPAE_clean_linker_10, # of connection points: 2
#     Edge 65, Type (0, 0), BuildingBlock: TEMPAE_clean_linker_10, # of connection points: 2
#     Edge 66, Type (0, 0), BuildingBlock: TEMPAE_clean_linker_10, # of connection points: 2
#     Edge 67, Type (0, 0), BuildingBlock: TEMPAE_clean_linker_10, # of connection points: 2
#     Edge 68, Type (0, 0), BuildingBlock: TEMPAE_clean_linker_10, # of connection points: 2
#     Edge 69, Type (0, 0), BuildingBlock: TEMPAE_clean_linker_10, # of connection points: 2
#     Edge 70, Type (0, 0), BuildingBlock: TEMPAE_clean_linker_10, # of connection points: 2
#     Edge 71, Type (0, 0), BuildingBlock: TEMPAE_clean_linker_10, # of connection points: 2
#     Edge 72, Type (0, 0), BuildingBlock: TEMPAE_clean_linker_10, # of connection points: 2
#     Edge 73, Type (0, 0), BuildingBlock: TEMPAE_clean_linker_10, # of connection points: 2
#     Edge 74, Type (0, 0), BuildingBlock: TEMPAE_clean_linker_10, # of connection points: 2
#     Edge 75, Type (0, 0), BuildingBlock: TEMPAE_clean_linker_10, # of connection points: 2
#     Edge 76, Type (0, 0), BuildingBlock: TEMPAE_clean_linker_10, # of connection points: 2
#     Edge 77, Type (0, 0), BuildingBlock: TEMPAE_clean_linker_10, # of connection points: 2
#     Edge 78, Type (0, 0), BuildingBlock: TEMPAE_clean_linker_10, # of connection points: 2
#     Edge 79, Type (0, 0), BuildingBlock: TEMPAE_clean_linker_10, # of connection points: 2
#     Edge 80, Type (0, 0), BuildingBlock: TEMPAE_clean_linker_10, # of connection points: 2
#     Edge 81, Type (0, 0), BuildingBlock: TEMPAE_clean_linker_10, # of connection points: 2
#     Edge 82, Type (0, 0), BuildingBlock: TEMPAE_clean_linker_10, # of connection points: 2
#     Edge 83, Type (0, 0), BuildingBlock: TEMPAE_clean_linker_10, # of connection points: 2
#     Edge 84, Type (0, 0), BuildingBlock: TEMPAE_clean_linker_10, # of connection points: 2
#     Edge 85, Type (0, 0), BuildingBlock: TEMPAE_clean_linker_10, # of connection points: 2
#     Edge 86, Type (0, 0), BuildingBlock: TEMPAE_clean_linker_10, # of connection points: 2
#     Edge 87, Type (0, 0), BuildingBlock: TEMPAE_clean_linker_10, # of connection points: 2
#     Edge 88, Type (0, 0), BuildingBlock: TEMPAE_clean_linker_10, # of connection points: 2
#     Edge 89, Type (0, 0), BuildingBlock: TEMPAE_clean_linker_10, # of connection points: 2
#     Edge 90, Type (0, 0), BuildingBlock: TEMPAE_clean_linker_10, # of connection points: 2
#     Edge 91, Type (0, 0), BuildingBlock: TEMPAE_clean_linker_10, # of connection points: 2
#     Edge 92, Type (0, 0), BuildingBlock: TEMPAE_clean_linker_10, # of connection points: 2
#     Edge 93, Type (0, 0), BuildingBlock: TEMPAE_clean_linker_10, # of connection points: 2
#     Edge 94, Type (0, 0), BuildingBlock: TEMPAE_clean_linker_10, # of connection points: 2
#     Edge 95, Type (0, 0), BuildingBlock: TEMPAE_clean_linker_10, # of connection points: 2
#     Edge 96, Type (0, 0), BuildingBlock: TEMPAE_clean_linker_10, # of connection points: 2
#     Edge 97, Type (0, 0), BuildingBlock: TEMPAE_clean_linker_10, # of connection points: 2
#     Edge 98, Type (0, 0), BuildingBlock: TEMPAE_clean_linker_10, # of connection points: 2
#     Edge 99, Type (0, 0), BuildingBlock: TEMPAE_clean_linker_10, # of connection points: 2
#     Edge 100, Type (0, 0), BuildingBlock: TEMPAE_clean_linker_10, # of connection points: 2
#     Edge 101, Type (0, 0), BuildingBlock: TEMPAE_clean_linker_10, # of connection points: 2
#     Edge 102, Type (0, 0), BuildingBlock: TEMPAE_clean_linker_10, # of connection points: 2
#     Edge 103, Type (0, 0), BuildingBlock: TEMPAE_clean_linker_10, # of connection points: 2
#     Edge 104, Type (0, 0), BuildingBlock: TEMPAE_clean_linker_10, # of connection points: 2
#     Edge 105, Type (0, 0), BuildingBlock: TEMPAE_clean_linker_10, # of connection points: 2
#     Edge 106, Type (0, 0), BuildingBlock: TEMPAE_clean_linker_10, # of connection points: 2
#     Edge 107, Type (0, 0), BuildingBlock: TEMPAE_clean_linker_10, # of connection points: 2
# Relax obj value: 0.039
# Max RMSD: 0.122
# Mean RMSD: 0.122
data_MOF--net-unl--node1-CEKHIL_clean_sbu_0--edge1-TEMPAE_clean_linker_10
_symmetry_space_group_name_H-M    P1
_symmetry_Int_Tables_number       1
_symmetry_cell_setting            triclinic
loop_
_symmetry_equiv_pos_as_xyz
'x, y, z'
_cell_length_a     65.082049
_cell_length_b     65.071726
_cell_length_c     41.334617
_cell_angle_alpha  89.998514
_cell_angle_beta   89.994566
_cell_angle_gamma 120.01161
loop_
_atom_site_label
_atom_site_type_symbol
_atom_site_fract_x
_atom_site_fract_y
_atom_site_fract_z
_atom_type_partial_charge
Co0 Co 0.21424 0.11594 0.11332 0.0
O1 O 0.23574 0.11364 0.14329 0.0
O2 O 0.24444 0.14537 0.11389 0.0
C3 C 0.20226 0.08075 0.08821 0.0
O4 O 0.19698 0.12458 0.07918 0.0
Co5 Co 0.16016 0.0789 0.11521 0.0
O6 O 0.15911 0.09488 0.07508 0.0
C7 C 0.18015 0.11955 0.16085 0.0
C8 C 0.25135 0.13502 0.13463 0.0
C9 C 0.17624 0.11486 0.06598 0.0
O10 O 0.20113 0.12769 0.14893 0.0
O11 O 0.16213 0.10004 0.15172 0.0
O12 O 0.22201 0.0995 0.08014 0.0
O13 O 0.19169 0.08325 0.11309 0.0
Co14 Co 0.88815 0.09916 0.109 0.0
O15 O 0.89129 0.12542 0.13431 0.0
O16 O 0.85856 0.09974 0.10857 0.0
C17 C 0.92283 0.12009 0.08194 0.0
O18 O 0.87897 0.07082 0.07915 0.0
Co19 Co 0.92478 0.08219 0.11736 0.0
O20 O 0.9084 0.06215 0.07915 0.0
C21 C 0.8868 0.06821 0.16564 0.0
C22 C 0.86961 0.11877 0.12626 0.0
C23 C 0.88858 0.05893 0.0686 0.0
O24 O 0.87705 0.07733 0.14802 0.0
O25 O 0.90702 0.07035 0.15921 0.0
O26 O 0.90398 0.12047 0.07256 0.0
O27 O 0.92071 0.10914 0.10887 0.0
Co28 Co 0.9055 0.79233 0.11377 0.0
O29 O 0.88029 0.77078 0.14189 0.0
O30 O 0.90519 0.76233 0.11683 0.0
C31 C 0.88299 0.80363 0.08545 0.0
O32 O 0.93275 0.80968 0.08145 0.0
Co33 Co 0.92175 0.84619 0.11371 0.0
O34 O 0.93882 0.84656 0.0739 0.0
C35 C 0.94092 0.82707 0.16304 0.0
C36 C 0.88664 0.75529 0.13529 0.0
C37 C 0.94296 0.82992 0.06676 0.0
O38 O 0.92874 0.80595 0.15123 0.0
O39 O 0.93947 0.84482 0.1525 0.0
O40 O 0.88275 0.78409 0.07833 0.0
O41 O 0.89499 0.81446 0.11094 0.0
Co42 Co 0.11736 0.21376 0.38671 0.0
O43 O 0.11316 0.23513 0.35894 0.0
O44 O 0.14678 0.244 0.38359 0.0
C45 C 0.08366 0.20198 0.41521 0.0
O46 O 0.12777 0.19659 0.41861 0.0
Co47 Co 0.08024 0.15967 0.38597 0.0
O48 O 0.09853 0.15853 0.4234 0.0
C49 C 0.11847 0.17963 0.33667 0.0
C50 C 0.13496 0.25082 0.36539 0.0
C51 C 0.11876 0.17575 0.43142 0.0
O52 O 0.12719 0.20061 0.34889 0.0
O53 O 0.09936 0.16165 0.34693 0.0
O54 O 0.10278 0.22162 0.42247 0.0
O55 O 0.08481 0.19123 0.38966 0.0
Co56 Co 0.79114 0.90581 0.38333 0.0
O57 O 0.76846 0.88082 0.35582 0.0
O58 O 0.76095 0.90505 0.3845 0.0
C59 C 0.80436 0.88392 0.4091 0.0
O60 O 0.80993 0.93312 0.41484 0.0
Co61 Co 0.84478 0.92273 0.37549 0.0
O62 O 0.84843 0.94313 0.41325 0.0
C63 C 0.82138 0.93811 0.3282 0.0
C64 C 0.75329 0.88706 0.36486 0.0
C65 C 0.83158 0.94563 0.42461 0.0
O66 O 0.80251 0.92901 0.34581 0.0
O67 O 0.83916 0.93533 0.3341 0.0
O68 O 0.78495 0.88323 0.41826 0.0
O69 O 0.81364 0.89564 0.38277 0.0
Co70 Co 0.10034 0.89031 0.38638 0.0
O71 O 0.12515 0.89386 0.35753 0.0
O72 O 0.10104 0.86082 0.38387 0.0
C73 C 0.12302 0.92473 0.41343 0.0
O74 O 0.07363 0.88058 0.41958 0.0
Co75 Co 0.08319 0.92718 0.38633 0.0
O76 O 0.06755 0.91135 0.42727 0.0
C77 C 0.06324 0.88778 0.33868 0.0
C78 C 0.11916 0.87218 0.36467 0.0
C79 C 0.06367 0.8907 0.43467 0.0
O80 O 0.07638 0.87971 0.34974 0.0
O81 O 0.06417 0.90674 0.34917 0.0
O82 O 0.12372 0.90571 0.42089 0.0
O83 O 0.11042 0.92291 0.38832 0.0
Co84 Co 0.79369 0.88852 0.88415 0.0
O85 O 0.77182 0.89117 0.85526 0.0
O86 O 0.76376 0.85887 0.88296 0.0
C87 C 0.80537 0.92285 0.91137 0.0
O88 O 0.81135 0.87937 0.9169 0.0
Co89 Co 0.84756 0.92602 0.8824 0.0
O90 O 0.84902 0.90933 0.92157 0.0
C91 C 0.8276 0.88724 0.83391 0.0
C92 C 0.75653 0.86952 0.86322 0.0
C93 C 0.8321 0.88904 0.93007 0.0
O94 O 0.80689 0.87807 0.84709 0.0
O95 O 0.84538 0.90686 0.84327 0.0
O96 O 0.78576 0.90374 0.91885 0.0
O97 O 0.81591 0.92128 0.88579 0.0
Co98 Co 0.11596 0.90564 0.8887 0.0
O99 O 0.11362 0.88161 0.85916 0.0
O100 O 0.1457 0.90553 0.88746 0.0
C101 C 0.08143 0.8823 0.91502 0.0
O102 O 0.12478 0.93198 0.92218 0.0
Co103 Co 0.0783 0.92174 0.88763 0.0
O104 O 0.09488 0.93978 0.92691 0.0
C105 C 0.11772 0.94192 0.8401 0.0
C106 C 0.13525 0.88796 0.86718 0.0
C107 C 0.1151 0.94301 0.93547 0.0
O108 O 0.12658 0.9298 0.8523 0.0
O109 O 0.09822 0.94018 0.84976 0.0
O110 O 0.10059 0.88199 0.92279 0.0
O111 O 0.08312 0.89482 0.88986 0.0
Co112 Co 0.0998 0.21016 0.88659 0.0
O113 O 0.12328 0.23211 0.85661 0.0
O114 O 0.09958 0.23985 0.88615 0.0
C115 C 0.12383 0.19925 0.91168 0.0
O116 O 0.07399 0.19238 0.92069 0.0
Co117 Co 0.08414 0.15646 0.88532 0.0
O118 O 0.06731 0.15511 0.92581 0.0
C119 C 0.06306 0.17543 0.83869 0.0
C120 C 0.1169 0.24722 0.86543 0.0
C121 C 0.06367 0.17182 0.93447 0.0
O122 O 0.0751 0.19643 0.85089 0.0
O123 O 0.06522 0.15782 0.84799 0.0
O124 O 0.12412 0.21866 0.91977 0.0
O125 O 0.11083 0.18833 0.88689 0.0
Co126 Co 0.88759 0.791 0.60625 0.0
O127 O 0.88926 0.7688 0.63553 0.0
O128 O 0.85795 0.76096 0.60567 0.0
C129 C 0.92287 0.80285 0.58175 0.0
O130 O 0.87964 0.80917 0.5726 0.0
Co131 Co 0.92489 0.84475 0.60973 0.0
O132 O 0.91034 0.84647 0.56858 0.0
C133 C 0.88396 0.82446 0.65484 0.0
C134 C 0.86793 0.75355 0.62627 0.0
C135 C 0.89013 0.82989 0.55923 0.0
O136 O 0.8758 0.80364 0.64238 0.0
O137 O 0.90347 0.84261 0.64601 0.0
O138 O 0.90399 0.78354 0.57277 0.0
O139 O 0.92042 0.81316 0.60698 0.0
Co140 Co 0.21229 0.09911 0.61419 0.0
O141 O 0.23379 0.12288 0.64416 0.0
O142 O 0.24208 0.09914 0.61563 0.0
C143 C 0.20136 0.12272 0.58796 0.0
O144 O 0.19497 0.07303 0.58031 0.0
Co145 Co 0.1585 0.08303 0.6148 0.0
O146 O 0.15734 0.06537 0.57528 0.0
C147 C 0.17744 0.06247 0.6622 0.0
C148 C 0.24911 0.1166 0.63607 0.0
C149 C 0.17433 0.06212 0.56682 0.0
O150 O 0.19846 0.07464 0.65016 0.0
O151 O 0.15974 0.06433 0.65253 0.0
O152 O 0.22095 0.12314 0.58059 0.0
O153 O 0.19028 0.10991 0.61283 0.0
Co154 Co 0.90643 0.11445 0.6126 0.0
O155 O 0.88095 0.10854 0.64184 0.0
O156 O 0.90452 0.14306 0.6183 0.0
C157 C 0.88503 0.08113 0.58282 0.0
O158 O 0.93362 0.12699 0.57982 0.0
Co159 Co 0.92621 0.07997 0.60647 0.0
O160 O 0.93909 0.09683 0.56498 0.0
C161 C 0.94377 0.11615 0.65888 0.0
C162 C 0.88634 0.13035 0.63686 0.0
C163 C 0.94281 0.11784 0.56118 0.0
O164 O 0.93002 0.12395 0.64946 0.0
O165 O 0.94403 0.09844 0.64573 0.0
O166 O 0.88349 0.09997 0.57736 0.0
O167 O 0.89786 0.08241 0.6074 0.0
Co168 Co 0.87934 0.44796 0.44465 0.0
O169 O 0.90096 0.44435 0.47266 0.0
O170 O 0.90946 0.47754 0.44702 0.0
C171 C 0.86751 0.41378 0.417 0.0
O172 O 0.86193 0.45779 0.41238 0.0
Co173 Co 0.82535 0.4107 0.44555 0.0
O174 O 0.82453 0.42758 0.40622 0.0
C175 C 0.84511 0.44989 0.49355 0.0
C176 C 0.91649 0.46611 0.46564 0.0
C177 C 0.84141 0.44812 0.39854 0.0
O178 O 0.86622 0.45821 0.48201 0.0
O179 O 0.82709 0.43083 0.48326 0.0
O180 O 0.88708 0.43292 0.4094 0.0
O181 O 0.85694 0.41533 0.44253 0.0
Co182 Co 0.5558 0.43329 0.44949 0.0
O183 O 0.55928 0.45958 0.47503 0.0
O184 O 0.52623 0.43389 0.44994 0.0
C185 C 0.59012 0.4542 0.42157 0.0
O186 O 0.54624 0.40489 0.41966 0.0
Co187 Co 0.59259 0.41642 0.45666 0.0
O188 O 0.57573 0.39632 0.41869 0.0
C189 C 0.55484 0.40197 0.50545 0.0
C190 C 0.53751 0.45296 0.46751 0.0
C191 C 0.55572 0.39297 0.40876 0.0
O192 O 0.54514 0.41144 0.48847 0.0
O193 O 0.57495 0.404 0.4985 0.0
O194 O 0.57113 0.45455 0.41285 0.0
O195 O 0.58839 0.44331 0.44844 0.0
Co196 Co 0.5733 0.12287 0.44737 0.0
O197 O 0.5469 0.1003 0.47291 0.0
O198 O 0.57244 0.09256 0.44811 0.0
C199 C 0.55264 0.13634 0.41915 0.0
O200 O 0.60173 0.14151 0.41743 0.0
Co201 Co 0.59047 0.17658 0.45443 0.0
O202 O 0.61038 0.17961 0.41633 0.0
C203 C 0.60407 0.15302 0.50385 0.0
C204 C 0.55334 0.08498 0.46557 0.0
C205 C 0.61358 0.16287 0.40634 0.0
O206 O 0.59496 0.134 0.48655 0.0
O207 O 0.6021 0.17112 0.49679 0.0
O208 O 0.55217 0.11691 0.41063 0.0
O209 O 0.56347 0.14556 0.44604 0.0
Co210 Co 0.78243 0.54582 0.71725 0.0
O211 O 0.77901 0.56756 0.68927 0.0
O212 O 0.81223 0.57576 0.71453 0.0
C213 C 0.74851 0.53455 0.74526 0.0
O214 O 0.79202 0.52814 0.74947 0.0
Co215 Co 0.74451 0.49202 0.71647 0.0
O216 O 0.76143 0.49091 0.75558 0.0
C217 C 0.78331 0.51123 0.66792 0.0
C218 C 0.80085 0.58293 0.69604 0.0
C219 C 0.78208 0.50758 0.76326 0.0
O220 O 0.79218 0.53232 0.67978 0.0
O221 O 0.764 0.49347 0.67814 0.0
O222 O 0.76786 0.55397 0.75268 0.0
O223 O 0.74973 0.52382 0.71969 0.0
Co224 Co 0.45777 0.23924 0.72229 0.0
O225 O 0.43473 0.21323 0.69663 0.0
O226 O 0.42773 0.23894 0.72242 0.0
C227 C 0.47091 0.21789 0.74949 0.0
O228 O 0.47692 0.26733 0.75249 0.0
Co229 Co 0.51128 0.25563 0.71453 0.0
O230 O 0.51489 0.27554 0.75288 0.0
C231 C 0.48805 0.27052 0.66628 0.0
C232 C 0.41974 0.21993 0.70467 0.0
C233 C 0.49837 0.27894 0.76329 0.0
O234 O 0.46901 0.26134 0.68356 0.0
O235 O 0.50596 0.26811 0.67283 0.0
O236 O 0.45173 0.21771 0.75858 0.0
O237 O 0.48007 0.22889 0.72268 0.0
Co238 Co 0.7651 0.21738 0.72379 0.0
O239 O 0.78906 0.21796 0.69575 0.0
O240 O 0.76472 0.18741 0.7263 0.0
C241 C 0.7884 0.25297 0.74762 0.0
O242 O 0.7388 0.21065 0.75627 0.0
Co243 Co 0.74962 0.25517 0.71532 0.0
O244 O 0.73091 0.24061 0.75519 0.0
C245 C 0.73249 0.21538 0.66928 0.0
C246 C 0.78232 0.19667 0.70594 0.0
C247 C 0.72774 0.22109 0.76692 0.0
O248 O 0.74115 0.20531 0.68714 0.0
O249 O 0.73611 0.23632 0.67458 0.0
O250 O 0.78863 0.23417 0.75757 0.0
O251 O 0.77621 0.25019 0.72167 0.0
Co252 Co 0.45933 0.22181 0.22541 0.0
O253 O 0.43674 0.22506 0.19899 0.0
O254 O 0.42964 0.19178 0.22317 0.0
C255 C 0.47093 0.25541 0.25438 0.0
O256 O 0.47792 0.2123 0.25606 0.0
Co257 Co 0.51296 0.26009 0.22294 0.0
O258 O 0.515 0.24323 0.26155 0.0
C259 C 0.49301 0.22175 0.17378 0.0
C260 C 0.42184 0.20303 0.20559 0.0
C261 C 0.49867 0.22243 0.26928 0.0
O262 O 0.4722 0.21262 0.18663 0.0
O263 O 0.51091 0.24104 0.18378 0.0
O264 O 0.45173 0.23591 0.26201 0.0
O265 O 0.48114 0.25456 0.22804 0.0
Co266 Co 0.78158 0.23822 0.21821 0.0
O267 O 0.77903 0.21391 0.18899 0.0
O268 O 0.81143 0.23839 0.21633 0.0
C269 C 0.74756 0.21518 0.24586 0.0
O270 O 0.79067 0.26489 0.25118 0.0
Co271 Co 0.74363 0.25399 0.21756 0.0
O272 O 0.76038 0.272 0.25679 0.0
C273 C 0.78234 0.27372 0.16897 0.0
C274 C 0.80082 0.22056 0.19652 0.0
C275 C 0.78085 0.27566 0.26481 0.0
O276 O 0.79152 0.26195 0.18134 0.0
O277 O 0.76284 0.27188 0.1789 0.0
O278 O 0.76686 0.21492 0.25286 0.0
O279 O 0.74875 0.22729 0.22044 0.0
Co280 Co 0.76592 0.54693 0.22368 0.0
O281 O 0.7897 0.5693 0.19439 0.0
O282 O 0.76574 0.57665 0.22397 0.0
C283 C 0.78968 0.53564 0.24865 0.0
O284 O 0.7398 0.52858 0.2572 0.0
Co285 Co 0.75038 0.49329 0.22075 0.0
O286 O 0.7332 0.49126 0.26117 0.0
C287 C 0.72973 0.51297 0.17458 0.0
C288 C 0.78325 0.5843 0.20352 0.0
C289 C 0.72944 0.50779 0.27036 0.0
O290 O 0.7416 0.53376 0.18744 0.0
O291 O 0.73182 0.49523 0.18338 0.0
O292 O 0.78986 0.5549 0.25727 0.0
O293 O 0.77701 0.52514 0.22345 0.0
Co294 Co 0.55554 0.12713 0.9475 0.0
O295 O 0.55746 0.10529 0.97727 0.0
O296 O 0.52593 0.09711 0.94768 0.0
C297 C 0.59061 0.13886 0.92232 0.0
O298 O 0.54728 0.14479 0.91352 0.0
Co299 Co 0.59289 0.18104 0.94964 0.0
O300 O 0.57795 0.18202 0.90845 0.0
C301 C 0.55227 0.16123 0.99533 0.0
C302 C 0.53608 0.08991 0.96834 0.0
C303 C 0.55767 0.1653 0.89959 0.0
O304 O 0.54399 0.14026 0.98329 0.0
O305 O 0.5718 0.17921 0.98619 0.0
O306 O 0.57174 0.11924 0.91419 0.0
O307 O 0.58832 0.14942 0.94738 0.0
Co308 Co 0.87765 0.4305 0.94213 0.0
O309 O 0.8991 0.45425 0.97219 0.0
O310 O 0.90762 0.43085 0.94329 0.0
C311 C 0.86642 0.45402 0.91635 0.0
O312 O 0.8604 0.40452 0.90805 0.0
Co313 Co 0.82381 0.41401 0.94276 0.0
O314 O 0.82314 0.39767 0.9021 0.0
C315 C 0.84296 0.39339 0.98977 0.0
C316 C 0.91455 0.44819 0.9639 0.0
C317 C 0.84001 0.39418 0.89382 0.0
O318 O 0.86403 0.4059 0.97799 0.0
O319 O 0.82513 0.39498 0.98001 0.0
O320 O 0.88603 0.45459 0.90868 0.0
O321 O 0.85546 0.4411 0.94119 0.0
Co322 Co 0.57434 0.44994 0.94626 0.0
O323 O 0.55006 0.44733 0.97556 0.0
O324 O 0.57377 0.47944 0.94712 0.0
C325 C 0.55159 0.4153 0.91984 0.0
O326 O 0.60081 0.45896 0.91296 0.0
Co327 Co 0.59125 0.41289 0.94806 0.0
O328 O 0.60816 0.42881 0.90782 0.0
C329 C 0.61087 0.4526 0.99515 0.0
C330 C 0.55614 0.46886 0.96727 0.0
C331 C 0.61151 0.44909 0.89929 0.0
O332 O 0.59842 0.46102 0.98276 0.0
O333 O 0.60957 0.43324 0.9857 0.0
O334 O 0.55082 0.43423 0.91217 0.0
O335 O 0.56407 0.41722 0.94518 0.0
Co336 Co 0.5474 0.78373 0.77825 0.0
O337 O 0.57031 0.78067 0.80411 0.0
O338 O 0.57759 0.81337 0.77812 0.0
C339 C 0.53399 0.74916 0.75107 0.0
O340 O 0.52833 0.79264 0.7478 0.0
Co341 Co 0.49378 0.7467 0.78629 0.0
O342 O 0.49045 0.76263 0.74731 0.0
C343 C 0.51719 0.78504 0.83422 0.0
C344 C 0.58546 0.80231 0.79602 0.0
C345 C 0.50691 0.78254 0.73677 0.0
O346 O 0.5362 0.79479 0.81686 0.0
O347 O 0.49923 0.76472 0.82782 0.0
O348 O 0.55335 0.76804 0.74212 0.0
O349 O 0.52493 0.75114 0.77789 0.0
Co350 Co 0.22021 0.76497 0.77732 0.0
O351 O 0.22391 0.79132 0.8029 0.0
O352 O 0.19074 0.76578 0.7779 0.0
C353 C 0.25443 0.78556 0.74919 0.0
O354 O 0.21052 0.73659 0.74738 0.0
Co355 Co 0.25682 0.74783 0.78465 0.0
O356 O 0.24 0.72796 0.7465 0.0
C357 C 0.21921 0.73376 0.83349 0.0
C358 C 0.20216 0.78484 0.79547 0.0
C359 C 0.22007 0.72474 0.73642 0.0
O360 O 0.20949 0.74312 0.81632 0.0
O361 O 0.23932 0.73576 0.82664 0.0
O362 O 0.23554 0.78617 0.74065 0.0
O363 O 0.2527 0.77474 0.77613 0.0
Co364 Co 0.2385 0.45641 0.77976 0.0
O365 O 0.21273 0.43356 0.80596 0.0
O366 O 0.23816 0.42633 0.77993 0.0
C367 C 0.21688 0.46931 0.75265 0.0
O368 O 0.26632 0.47538 0.74901 0.0
Co369 Co 0.25484 0.50998 0.78691 0.0
O370 O 0.27427 0.51327 0.74814 0.0
C371 C 0.27017 0.48715 0.83522 0.0
C372 C 0.2193 0.41846 0.79797 0.0
C373 C 0.2777 0.49675 0.73783 0.0
O374 O 0.26093 0.468 0.81816 0.0
O375 O 0.26765 0.50498 0.82854 0.0
O376 O 0.21662 0.45005 0.7438 0.0
O377 O 0.22812 0.47868 0.77924 0.0
Co378 Co 0.45056 0.88047 0.05208 0.0
O379 O 0.44729 0.90354 0.02686 0.0
O380 O 0.48022 0.91064 0.05203 0.0
C381 C 0.41623 0.86698 0.07995 0.0
O382 O 0.45974 0.8612 0.08175 0.0
Co383 Co 0.41343 0.82693 0.04381 0.0
O384 O 0.42974 0.82333 0.08215 0.0
C385 C 0.45149 0.85047 0.99552 0.0
C386 C 0.46902 0.91862 0.03464 0.0
C387 C 0.44977 0.83971 0.09247 0.0
O388 O 0.46127 0.86946 0.01292 0.0
O389 O 0.43124 0.83245 0.00207 0.0
O390 O 0.43523 0.88627 0.08882 0.0
O391 O 0.41794 0.85803 0.05288 0.0
Co392 Co 0.12266 0.57244 0.05244 0.0
O393 O 0.09998 0.5463 0.02661 0.0
O394 O 0.09239 0.57172 0.05201 0.0
C395 C 0.13596 0.55136 0.08007 0.0
O396 O 0.14148 0.60064 0.0827 0.0
Co397 Co 0.17633 0.58922 0.04518 0.0
O398 O 0.17952 0.60906 0.08343 0.0
C399 C 0.15305 0.6037 0.99646 0.0
C400 C 0.08472 0.55273 0.03429 0.0
C401 C 0.1629 0.61237 0.09363 0.0
O402 O 0.13397 0.59451 0.01365 0.0
O403 O 0.171 0.60142 0.00324 0.0
O404 O 0.1166 0.55095 0.08883 0.0
O405 O 0.14518 0.56241 0.05331 0.0
Co406 Co 0.43175 0.55294 0.05378 0.0
O407 O 0.45814 0.55666 0.0283 0.0
O408 O 0.43228 0.52332 0.05269 0.0
C409 C 0.45247 0.5868 0.08262 0.0
O410 O 0.40327 0.54325 0.08351 0.0
Co411 Co 0.41525 0.59008 0.04699 0.0
O412 O 0.39526 0.57313 0.085 0.0
C413 C 0.40087 0.55275 0.99765 0.0
C414 C 0.45149 0.53482 0.03543 0.0
C415 C 0.39167 0.55298 0.0947 0.0
O416 O 0.4101 0.54279 0.01458 0.0
O417 O 0.40302 0.57287 0.00483 0.0
O418 O 0.4528 0.56769 0.09073 0.0
O419 O 0.44188 0.58553 0.05563 0.0
Co420 Co 0.12438 0.55296 0.55547 0.0
O421 O 0.10225 0.55485 0.52628 0.0
O422 O 0.09455 0.52316 0.55524 0.0
C423 C 0.13592 0.58774 0.5813 0.0
O424 O 0.14246 0.5447 0.58879 0.0
Co425 Co 0.17814 0.59071 0.55277 0.0
O426 O 0.17975 0.57539 0.59324 0.0
C427 C 0.1583 0.55054 0.50643 0.0
C428 C 0.08711 0.53332 0.53498 0.0
C429 C 0.16316 0.55505 0.60217 0.0
O430 O 0.13746 0.54193 0.51899 0.0
O431 O 0.17626 0.57009 0.51557 0.0
O432 O 0.11645 0.56869 0.58939 0.0
O433 O 0.14641 0.58579 0.55591 0.0
Co434 Co 0.44876 0.57282 0.55491 0.0
O435 O 0.44687 0.54842 0.52651 0.0
O436 O 0.4786 0.57288 0.55507 0.0
C437 C 0.41409 0.55014 0.58125 0.0
O438 O 0.45686 0.59953 0.58728 0.0
Co439 Co 0.41106 0.58867 0.54914 0.0
O440 O 0.42702 0.6076 0.58834 0.0
C441 C 0.44951 0.6054 0.50105 0.0
C442 C 0.46845 0.55504 0.53516 0.0
C443 C 0.44686 0.61079 0.59877 0.0
O444 O 0.45978 0.59644 0.51791 0.0
O445 O 0.42886 0.60214 0.50764 0.0
O446 O 0.4331 0.5497 0.58948 0.0
O447 O 0.41597 0.56201 0.55525 0.0
Co448 Co 0.43068 0.87663 0.55232 0.0
O449 O 0.45544 0.89907 0.52434 0.0
O450 O 0.43093 0.90656 0.5524 0.0
C451 C 0.45288 0.8643 0.57911 0.0
O452 O 0.4036 0.85803 0.58424 0.0
Co453 Co 0.41443 0.82304 0.54615 0.0
O454 O 0.39532 0.82005 0.58516 0.0
C455 C 0.39853 0.8453 0.49775 0.0
C456 C 0.44894 0.91415 0.5328 0.0
C457 C 0.39217 0.83672 0.59559 0.0
O458 O 0.40747 0.8644 0.51486 0.0
O459 O 0.40147 0.82771 0.50439 0.0
O460 O 0.45338 0.88379 0.5873 0.0
O461 O 0.44125 0.85445 0.5529 0.0
Co462 Co 0.22001 0.4586 0.27622 0.0
O463 O 0.22195 0.43635 0.3051 0.0
O464 O 0.19006 0.42892 0.27686 0.0
C465 C 0.25446 0.46975 0.2497 0.0
O466 O 0.21171 0.47689 0.24332 0.0
Co467 Co 0.25827 0.51221 0.27869 0.0
O468 O 0.2425 0.51413 0.23883 0.0
C469 C 0.2188 0.49268 0.32616 0.0
C470 C 0.20031 0.42134 0.29677 0.0
C471 C 0.22206 0.49764 0.23009 0.0
O472 O 0.2096 0.47193 0.3131 0.0
O473 O 0.23856 0.51037 0.31701 0.0
O474 O 0.2352 0.45042 0.24179 0.0
O475 O 0.25289 0.48033 0.27524 0.0
Co476 Co 0.54446 0.76422 0.27857 0.0
O477 O 0.56709 0.79067 0.30401 0.0
O478 O 0.57449 0.76453 0.28036 0.0
C479 C 0.53172 0.78497 0.24905 0.0
O480 O 0.5257 0.73559 0.24901 0.0
Co481 Co 0.49087 0.74803 0.28455 0.0
O482 O 0.48786 0.72772 0.24695 0.0
C483 C 0.51341 0.73396 0.33486 0.0
C484 C 0.5822 0.78381 0.29745 0.0
C485 C 0.5044 0.72399 0.23764 0.0
O486 O 0.53263 0.74284 0.31801 0.0
O487 O 0.49557 0.73621 0.32725 0.0
O488 O 0.55111 0.78509 0.24131 0.0
O489 O 0.52218 0.77453 0.27604 0.0
Co490 Co 0.23928 0.78408 0.27551 0.0
O491 O 0.21477 0.7824 0.30349 0.0
O492 O 0.23965 0.81409 0.27517 0.0
C493 C 0.21652 0.74949 0.24901 0.0
O494 O 0.26622 0.79197 0.24356 0.0
Co495 Co 0.2545 0.74592 0.28177 0.0
O496 O 0.27381 0.7618 0.2428 0.0
C497 C 0.27095 0.78415 0.33017 0.0
C498 C 0.22165 0.80404 0.29483 0.0
C499 C 0.27735 0.78175 0.2323 0.0
O500 O 0.26254 0.79477 0.31296 0.0
O501 O 0.26744 0.7634 0.3236 0.0
O502 O 0.2164 0.76864 0.2406 0.0
O503 O 0.22815 0.75124 0.27519 0.0
C504 C 0.17092 0.03847 0.07873 0.0
C505 C 0.19125 0.05904 0.06801 0.0
C506 C 0.15948 0.01825 0.05895 0.0
C507 C 0.16836 0.01873 0.0275 0.0
C508 C 0.18926 0.03923 0.01691 0.0
C509 C 0.20053 0.05908 0.03738 0.0
C510 C 0.13741 0.99665 0.0713 0.0
C511 C 0.19912 0.04064 0.9834 0.0
C512 C 0.14644 0.9617 0.97871 0.0
C513 C 0.12852 0.96173 0.9599 0.0
C514 C 0.15932 0.97989 0.00133 0.0
C515 C 0.15454 0.99879 0.00457 0.0
C516 C 0.13658 0.99894 0.98545 0.0
C517 C 0.12367 0.98034 0.96368 0.0
C518 C 0.17802 0.9789 0.02176 0.0
C519 C 0.13122 0.01897 0.98758 0.0
H520 H 0.16375 0.03828 0.10248 0.0
H521 H 0.21624 0.07492 0.02893 0.0
H522 H 0.12176 0.99421 0.0574 0.0
H523 H 0.13878 0.98048 0.06768 0.0
H524 H 0.13423 0.99816 0.09737 0.0
H525 H 0.2164 0.05715 0.97968 0.0
H526 H 0.20153 0.02517 0.97888 0.0
H527 H 0.18635 0.04004 0.96511 0.0
H528 H 0.15022 0.94735 0.97596 0.0
H529 H 0.11008 0.98071 0.94896 0.0
H530 H 0.17414 0.97943 0.04779 0.0
H531 H 0.19563 0.99465 0.01683 0.0
H532 H 0.17909 0.96265 0.0171 0.0
H533 H 0.12577 0.02031 0.01256 0.0
H534 H 0.1169 0.01657 0.9707 0.0
H535 H 0.14741 0.03609 0.98193 0.0
C536 C 0.94414 0.13551 0.02944 0.0
C537 C 0.94471 0.13024 0.06219 0.0
C538 C 0.96447 0.14401 0.00996 0.0
C539 C 0.98603 0.14779 0.02372 0.0
C540 C 0.9869 0.14331 0.05709 0.0
C541 C 0.96616 0.13433 0.07584 0.0
C542 C 0.96264 0.14808 0.97436 0.0
C543 C 0.00961 0.14749 0.07281 0.0
C544 C 0.02911 0.14246 0.96729 0.0
C545 C 0.04509 0.16626 0.95936 0.0
C546 C 0.01006 0.13633 0.98842 0.0
C547 C 0.00702 0.15441 0.0026 0.0
C548 C 0.02348 0.17852 0.99565 0.0
C549 C 0.04221 0.18416 0.97385 0.0
C550 C 0.99274 0.11039 0.99475 0.0
C551 C 0.02108 0.1983 0.01084 0.0
H552 H 0.92758 0.13233 0.01876 0.0
H553 H 0.96672 0.13047 0.10123 0.0
H554 H 0.97631 0.16637 0.96749 0.0
H555 H 0.96602 0.1357 0.95991 0.0
H556 H 0.9449 0.14535 0.96772 0.0
H557 H 0.00791 0.14536 0.09951 0.0
H558 H 0.01466 0.13476 0.06302 0.0
H559 H 0.02429 0.16562 0.06713 0.0
H560 H 0.03098 0.12841 0.95615 0.0
H561 H 0.05448 0.20258 0.968 0.0
H562 H 0.97473 0.10597 0.98662 0.0
H563 H 0.99165 0.10665 0.02106 0.0
H564 H 0.99777 0.0985 0.98209 0.0
H565 H 0.00445 0.19738 0.00243 0.0
H566 H 0.03623 0.2161 0.00476 0.0
H567 H 0.01987 0.19627 0.03755 0.0
C568 C 0.81927 0.85619 0.97109 0.0
C569 C 0.83742 0.87563 0.95454 0.0
C570 C 0.82457 0.84325 0.9936 0.0
C571 C 0.84853 0.84965 0.99916 0.0
C572 C 0.86687 0.86918 0.98241 0.0
C573 C 0.86112 0.882 0.9606 0.0
C574 C 0.80458 0.82277 0.01143 0.0
C575 C 0.89264 0.87639 0.98721 0.0
C576 C 0.86965 0.83298 0.07515 0.0
C577 C 0.8723 0.81406 0.06418 0.0
C578 C 0.86073 0.84394 0.05472 0.0
C579 C 0.85475 0.83606 0.02234 0.0
C580 C 0.85685 0.81656 0.01138 0.0
C581 C 0.86543 0.80567 0.03253 0.0
C582 C 0.85846 0.86445 0.06747 0.0
C583 C 0.85105 0.80788 0.97691 0.0
H584 H 0.80093 0.85118 0.96662 0.0
H585 H 0.87531 0.89682 0.94772 0.0
H586 H 0.80459 0.8061 0.00588 0.0
H587 H 0.80721 0.82568 0.03792 0.0
H588 H 0.78696 0.82041 0.00497 0.0
H589 H 0.90474 0.89177 0.9719 0.0
H590 H 0.89771 0.88111 0.01291 0.0
H591 H 0.89537 0.86128 0.98135 0.0
H592 H 0.87476 0.83941 0.09969 0.0
H593 H 0.86748 0.79106 0.02392 0.0
H594 H 0.84056 0.86172 0.06204 0.0
H595 H 0.87157 0.88109 0.05527 0.0
H596 H 0.86149 0.86682 0.09399 0.0
H597 H 0.83298 0.80421 0.97044 0.0
H598 H 0.85205 0.79153 0.9728 0.0
H599 H 0.86368 0.82189 0.96024 0.0
C600 C 0.9623 0.12282 0.50762 0.0
C601 C 0.96067 0.13283 0.53683 0.0
C602 C 0.98137 0.13556 0.48638 0.0
C603 C 0.99961 0.15861 0.49504 0.0
C604 C 0.99755 0.16916 0.52394 0.0
C605 C 0.97791 0.15622 0.54434 0.0
C606 C 0.98255 0.12389 0.45541 0.0
C607 C 0.01679 0.19353 0.53429 0.0
C608 C 0.06088 0.17696 0.46183 0.0
C609 C 0.06263 0.19169 0.43614 0.0
C610 C 0.04055 0.16633 0.48146 0.0
C611 C 0.02166 0.17072 0.47521 0.0
C612 C 0.02363 0.186 0.44948 0.0
C613 C 0.04415 0.19627 0.43012 0.0
C614 C 0.03917 0.15014 0.50858 0.0
C615 C 0.00395 0.19117 0.44211 0.0
H616 H 0.94889 0.10475 0.50175 0.0
H617 H 0.97682 0.16388 0.56713 0.0
H618 H 0.9863 0.13602 0.43459 0.0
H619 H 0.99727 0.11997 0.45691 0.0
H620 H 0.9658 0.10704 0.45057 0.0
H621 H 0.01158 0.20006 0.55586 0.0
H622 H 0.03313 0.19297 0.54019 0.0
H623 H 0.02124 0.20645 0.51429 0.0
H624 H 0.07533 0.17358 0.46638 0.0
H625 H 0.04571 0.20778 0.41015 0.0
H626 H 0.02412 0.13196 0.5043 0.0
H627 H 0.03579 0.15638 0.53189 0.0
H628 H 0.05569 0.1492 0.51087 0.0
H629 H 0.9876 0.17449 0.43544 0.0
H630 H 0.00862 0.20411 0.42203 0.0
H631 H 0.99976 0.19833 0.46392 0.0
C632 C 0.80935 0.86769 0.46138 0.0
C633 C 0.81583 0.87349 0.42888 0.0
C634 C 0.82078 0.85887 0.48107 0.0
C635 C 0.8388 0.85527 0.46776 0.0
C636 C 0.84481 0.8603 0.43462 0.0
C637 C 0.83345 0.86963 0.41566 0.0
C638 C 0.81419 0.85428 0.51643 0.0
C639 C 0.8636 0.8563 0.41938 0.0
C640 C 0.88578 0.85969 0.52623 0.0
C641 C 0.87768 0.83579 0.53385 0.0
C642 C 0.87348 0.86614 0.50445 0.0
C643 C 0.8527 0.84829 0.48927 0.0
C644 C 0.8448 0.82409 0.49592 0.0
C645 C 0.85725 0.81811 0.51839 0.0
C646 C 0.88234 0.89218 0.49854 0.0
C647 C 0.82297 0.80454 0.47972 0.0
H648 H 0.79579 0.87071 0.47176 0.0
H649 H 0.83837 0.87391 0.39047 0.0
H650 H 0.80935 0.83586 0.52291 0.0
H651 H 0.82969 0.86638 0.53151 0.0
H652 H 0.79912 0.857 0.5227 0.0
H653 H 0.86455 0.85883 0.39273 0.0
H654 H 0.8812 0.86886 0.42985 0.0
H655 H 0.86002 0.83809 0.42473 0.0
H656 H 0.90144 0.87357 0.53809 0.0
H657 H 0.8509 0.79961 0.52398 0.0
H658 H 0.86866 0.89659 0.50625 0.0
H659 H 0.88551 0.89623 0.47235 0.0
H660 H 0.89903 0.90386 0.51182 0.0
H661 H 0.80707 0.80531 0.48763 0.0
H662 H 0.82021 0.78666 0.48548 0.0
H663 H 0.82436 0.80701 0.45309 0.0
C664 C 0.14227 0.94556 0.46505 0.0
C665 C 0.13392 0.94622 0.43402 0.0
C666 C 0.15106 0.96533 0.4857 0.0
C667 C 0.15183 0.98636 0.47487 0.0
C668 C 0.14438 0.98743 0.44303 0.0
C669 C 0.13533 0.96728 0.42309 0.0
C670 C 0.15848 0.96331 0.51962 0.0
C671 C 0.14518 0.00959 0.43041 0.0
C672 C 0.14549 0.02534 0.5376 0.0
C673 C 0.16907 0.04343 0.54232 0.0
C674 C 0.13978 0.0067 0.51591 0.0
C675 C 0.15802 0.00627 0.49786 0.0
C676 C 0.18186 0.02464 0.50205 0.0
C677 C 0.18715 0.04289 0.52454 0.0
C678 C 0.11418 0.98726 0.51269 0.0
C679 C 0.20172 0.02498 0.48275 0.0
H680 H 0.14123 0.92932 0.47363 0.0
H681 H 0.12908 0.96795 0.39902 0.0
H682 H 0.17646 0.97836 0.52491 0.0
H683 H 0.1461 0.96421 0.53728 0.0
H684 H 0.15853 0.94644 0.52351 0.0
H685 H 0.14122 0.00844 0.40411 0.0
H686 H 0.132 0.01254 0.44353 0.0
H687 H 0.16292 0.02532 0.4348 0.0
H688 H 0.13139 0.02538 0.55151 0.0
H689 H 0.20539 0.05682 0.52803 0.0
H690 H 0.11249 0.96982 0.51848 0.0
H691 H 0.1081 0.98633 0.48739 0.0
H692 H 0.10217 0.99002 0.52891 0.0
H693 H 0.20278 0.00883 0.48803 0.0
H694 H 0.21919 0.04084 0.48815 0.0
H695 H 0.19807 0.02478 0.45649 0.0
C696 C 0.85723 0.03889 0.02569 0.0
C697 C 0.87586 0.03997 0.04411 0.0
C698 C 0.84509 0.02074 0.00278 0.0
C699 C 0.85149 0.00304 0.99858 0.0
C700 C 0.87022 0.00402 0.01715 0.0
C701 C 0.88225 0.02251 0.03944 0.0
C702 C 0.82543 0.02047 0.9831 0.0
C703 C 0.87738 0.98533 0.0138 0.0
C704 C 0.80732 0.94257 0.96413 0.0
C705 C 0.81624 0.94391 0.93283 0.0
C706 C 0.81828 0.96188 0.98552 0.0
C707 C 0.83845 0.98319 0.97522 0.0
C708 C 0.84706 0.98489 0.94327 0.0
C709 C 0.83597 0.96516 0.92254 0.0
C710 C 0.80876 0.95918 0.01951 0.0
C711 C 0.86833 0.00738 0.93123 0.0
H712 H 0.85223 0.05234 0.02901 0.0
H713 H 0.89648 0.02301 0.05368 0.0
H714 H 0.82925 0.02061 0.95691 0.0
H715 H 0.80846 0.00393 0.98798 0.0
H716 H 0.82308 0.03589 0.98853 0.0
H717 H 0.89226 0.98858 0.03016 0.0
H718 H 0.86203 0.96756 0.01933 0.0
H719 H 0.88282 0.9848 0.98853 0.0
H720 H 0.79211 0.92617 0.97227 0.0
H721 H 0.84285 0.96633 0.89832 0.0
H722 H 0.80495 0.97362 0.02505 0.0
H723 H 0.82233 0.96067 0.03708 0.0
H724 H 0.7923 0.94186 0.02329 0.0
H725 H 0.86577 0.0228 0.93546 0.0
H726 H 0.87164 0.0065 0.90504 0.0
H727 H 0.88437 0.01067 0.94489 0.0
C728 C 0.96565 0.81728 0.03003 0.0
C729 C 0.96159 0.83511 0.04208 0.0
C730 C 0.98413 0.82269 0.00788 0.0
C731 C 0.99911 0.84652 0.99799 0.0
C732 C 0.99492 0.8645 0.0098 0.0
C733 C 0.97618 0.85857 0.03141 0.0
C734 C 0.98781 0.80299 0.99533 0.0
C735 C 0.01062 0.89019 0.00025 0.0
C736 C 0.06201 0.86807 0.96881 0.0
C737 C 0.06004 0.87133 0.93569 0.0
C738 C 0.04216 0.85934 0.98926 0.0
C739 C 0.01968 0.85308 0.97608 0.0
C740 C 0.01743 0.85531 0.94235 0.0
C741 C 0.03773 0.86479 0.92262 0.0
C742 C 0.04547 0.85789 0.02518 0.0
C743 C 0.99371 0.8483 0.92723 0.0
H744 H 0.95446 0.79911 0.03799 0.0
H745 H 0.97337 0.87258 0.04055 0.0
H746 H 0.98799 0.80312 0.96848 0.0
H747 H 0.00529 0.80584 0.00347 0.0
H748 H 0.9738 0.78524 0.00378 0.0
H749 H 0.00497 0.90204 0.01161 0.0
H750 H 0.02923 0.89631 0.00747 0.0
H751 H 0.01045 0.89209 0.9736 0.0
H752 H 0.07929 0.87326 0.97899 0.0
H753 H 0.03616 0.86711 0.89694 0.0
H754 H 0.0329 0.83984 0.03431 0.0
H755 H 0.04154 0.87047 0.03811 0.0
H756 H 0.06382 0.86222 0.03137 0.0
H757 H 0.98015 0.83028 0.93534 0.0
H758 H 0.99447 0.84851 0.90038 0.0
H759 H 0.98772 0.86074 0.93517 0.0
C760 C 0.13569 0.16863 0.92139 0.0
C761 C 0.13525 0.18892 0.93176 0.0
C762 C 0.14498 0.1577 0.94124 0.0
C763 C 0.15375 0.16711 0.97237 0.0
C764 C 0.1541 0.18809 0.98247 0.0
C765 C 0.14497 0.19881 0.96197 0.0
C766 C 0.14452 0.13552 0.92942 0.0
C767 C 0.16299 0.19854 0.01561 0.0
C768 C 0.14756 0.12328 0.03737 0.0
C769 C 0.17098 0.12803 0.0411 0.0
C770 C 0.14187 0.13595 0.01523 0.0
C771 C 0.15993 0.15357 0.99569 0.0
C772 C 0.18359 0.15827 0.99887 0.0
C773 C 0.18891 0.14562 0.02187 0.0
C774 C 0.1165 0.1307 0.01316 0.0
C775 C 0.20322 0.17662 0.97799 0.0
H776 H 0.12837 0.16101 0.89796 0.0
H777 H 0.14474 0.21453 0.97011 0.0
H778 H 0.16206 0.13694 0.93315 0.0
H779 H 0.13132 0.12002 0.94356 0.0
H780 H 0.13977 0.13208 0.90338 0.0
H781 H 0.16402 0.21599 0.01872 0.0
H782 H 0.1509 0.1862 0.03435 0.0
H783 H 0.18082 0.20082 0.02003 0.0
H784 H 0.13362 0.10996 0.05243 0.0
H785 H 0.20702 0.14934 0.0246 0.0
H786 H 0.10956 0.12491 0.98832 0.0
H787 H 0.11571 0.14702 0.01834 0.0
H788 H 0.10462 0.11666 0.03041 0.0
H789 H 0.19867 0.17237 0.95206 0.0
H790 H 0.22052 0.17768 0.98273 0.0
H791 H 0.20519 0.19434 0.98239 0.0
C792 C 0.94348 0.81028 0.52862 0.0
C793 C 0.94477 0.81377 0.56216 0.0
C794 C 0.96389 0.82184 0.50924 0.0
C795 C 0.98622 0.83665 0.52392 0.0
C796 C 0.98772 0.83933 0.558 0.0
C797 C 0.96689 0.8282 0.57668 0.0
C798 C 0.96136 0.81907 0.47294 0.0
C799 C 0.01125 0.85441 0.57465 0.0
C800 C 0.04033 0.8548 0.47026 0.0
C801 C 0.04538 0.87739 0.45982 0.0
C802 C 0.02165 0.8416 0.49209 0.0
C803 C 0.00749 0.85105 0.5033 0.0
C804 C 0.01288 0.87403 0.49348 0.0
C805 C 0.03181 0.88694 0.47218 0.0
C806 C 0.01673 0.81733 0.50258 0.0
C807 C 0.9981 0.8847 0.50451 0.0
H808 H 0.92635 0.79925 0.51734 0.0
H809 H 0.96789 0.83072 0.60268 0.0
H810 H 0.96659 0.8365 0.46168 0.0
H811 H 0.97339 0.8131 0.46325 0.0
H812 H 0.94291 0.80618 0.46543 0.0
H813 H 0.00976 0.85243 0.60138 0.0
H814 H 0.02444 0.84959 0.56602 0.0
H815 H 0.01822 0.87336 0.56859 0.0
H816 H 0.05074 0.84728 0.46104 0.0
H817 H 0.03545 0.90436 0.46444 0.0
H818 H 0.99939 0.80357 0.49274 0.0
H819 H 0.01553 0.81587 0.52934 0.0
H820 H 0.03064 0.81344 0.49417 0.0
H821 H 0.97951 0.87345 0.4962 0.0
H822 H 0.0049 0.90298 0.49511 0.0
H823 H 0.99774 0.88529 0.53131 0.0
C824 C 0.12911 0.14757 0.45721 0.0
C825 C 0.13266 0.17066 0.45522 0.0
C826 C 0.14158 0.14177 0.47955 0.0
C827 C 0.15776 0.15937 0.50101 0.0
C828 C 0.16151 0.18276 0.4992 0.0
C829 C 0.14909 0.18823 0.47601 0.0
C830 C 0.13741 0.11674 0.48012 0.0
C831 C 0.17837 0.20188 0.52203 0.0
C832 C 0.17012 0.13336 0.57582 0.0
C833 C 0.19132 0.13411 0.56723 0.0
C834 C 0.15965 0.14273 0.55525 0.0
C835 C 0.17053 0.15289 0.52525 0.0
C836 C 0.19239 0.15445 0.51702 0.0
C837 C 0.20255 0.14511 0.53815 0.0
C838 C 0.13643 0.14089 0.56503 0.0
C839 C 0.20447 0.16492 0.48516 0.0
H840 H 0.11668 0.13397 0.44091 0.0
H841 H 0.15182 0.20606 0.47462 0.0
H842 H 0.15443 0.11699 0.47648 0.0
H843 H 0.13035 0.10852 0.50406 0.0
H844 H 0.12472 0.10534 0.46115 0.0
H845 H 0.17944 0.21921 0.51737 0.0
H846 H 0.17252 0.19651 0.54737 0.0
H847 H 0.1964 0.20421 0.51976 0.0
H848 H 0.16143 0.12504 0.59837 0.0
H849 H 0.219 0.14584 0.53141 0.0
H850 H 0.12203 0.12804 0.54903 0.0
H851 H 0.13737 0.15829 0.56211 0.0
H852 H 0.13161 0.13491 0.59048 0.0
H853 H 0.1935 0.15333 0.46505 0.0
H854 H 0.22238 0.16682 0.48369 0.0
H855 H 0.2062 0.1826 0.48142 0.0
C856 C 0.87549 0.0399 0.569 0.0
C857 C 0.87473 0.06041 0.56075 0.0
C858 C 0.86675 0.02042 0.54787 0.0
C859 C 0.8572 0.02155 0.51757 0.0
C860 C 0.85594 0.04204 0.50937 0.0
C861 C 0.86463 0.06119 0.53114 0.0
C862 C 0.86828 0.99886 0.55764 0.0
C863 C 0.84614 0.04404 0.47717 0.0
C864 C 0.86112 0.98389 0.45036 0.0
C865 C 0.83776 0.96476 0.44874 0.0
C866 C 0.8675 0.00259 0.47225 0.0
C867 C 0.85022 0.00204 0.49358 0.0
C868 C 0.82662 0.98276 0.49226 0.0
C869 C 0.8206 0.96444 0.46961 0.0
C870 C 0.89277 0.023 0.47246 0.0
C871 C 0.80781 0.98138 0.51496 0.0
H872 H 0.88315 0.03912 0.59193 0.0
H873 H 0.86398 0.07699 0.52462 0.0
H874 H 0.85068 0.98259 0.55511 0.0
H875 H 0.88074 0.99689 0.54136 0.0
H876 H 0.8745 1.00004 0.58296 0.0
H877 H 0.84511 0.06054 0.47524 0.0
H878 H 0.85759 0.04393 0.45736 0.0
H879 H 0.82815 0.02857 0.47337 0.0
H880 H 0.87446 0.98449 0.43406 0.0
H881 H 0.80254 0.94972 0.46854 0.0
H882 H 0.90096 0.02421 0.49644 0.0
H883 H 0.89303 0.03998 0.46839 0.0
H884 H 0.90388 0.02109 0.45362 0.0
H885 H 0.81324 0.98132 0.54039 0.0
H886 H 0.79028 0.96525 0.51084 0.0
H887 H 0.80585 0.99726 0.51193 0.0
C888 C 0.81416 0.29622 0.30506 0.0
C889 C 0.79433 0.29451 0.28911 0.0
C890 C 0.82725 0.31468 0.32721 0.0
C891 C 0.82061 0.33204 0.333 0.0
C892 C 0.80064 0.33038 0.31693 0.0
C893 C 0.78767 0.31158 0.29549 0.0
C894 C 0.84818 0.31565 0.34437 0.0
C895 C 0.79315 0.34871 0.32198 0.0
C896 C 0.83834 0.37084 0.40807 0.0
C897 C 0.85687 0.39238 0.39627 0.0
C898 C 0.82721 0.35066 0.3882 0.0
C899 C 0.83447 0.3522 0.35556 0.0
C900 C 0.85356 0.37377 0.34376 0.0
C901 C 0.86467 0.39356 0.36436 0.0
C902 C 0.80718 0.3279 0.40186 0.0
C903 C 0.86155 0.37629 0.30897 0.0
H904 H 0.81938 0.28308 0.30034 0.0
H905 H 0.77255 0.31063 0.28308 0.0
H906 H 0.86464 0.33232 0.33802 0.0
H907 H 0.84584 0.31579 0.37095 0.0
H908 H 0.85057 0.30038 0.33804 0.0
H909 H 0.77738 0.34502 0.30729 0.0
H910 H 0.78894 0.34929 0.34785 0.0
H911 H 0.80794 0.36659 0.31548 0.0
H912 H 0.83239 0.3698 0.43282 0.0
H913 H 0.87897 0.41018 0.35512 0.0
H914 H 0.81004 0.31282 0.3964 0.0
H915 H 0.79021 0.32399 0.39032 0.0
H916 H 0.80537 0.32888 0.42846 0.0
H917 H 0.86537 0.362 0.30251 0.0
H918 H 0.87763 0.39372 0.30415 0.0
H919 H 0.8471 0.37443 0.29281 0.0
C920 C 0.61082 0.47052 0.36891 0.0
C921 C 0.61172 0.46441 0.4012 0.0
C922 C 0.63087 0.47924 0.34882 0.0
C923 C 0.65247 0.48233 0.36147 0.0
C924 C 0.65367 0.47694 0.39437 0.0
C925 C 0.63321 0.46781 0.41376 0.0
C926 C 0.62868 0.48433 0.31373 0.0
C927 C 0.67643 0.4803 0.40891 0.0
C928 C 0.69454 0.47787 0.3021 0.0
C929 C 0.71082 0.5018 0.29533 0.0
C930 C 0.67568 0.4714 0.32371 0.0
C931 C 0.67313 0.48927 0.33956 0.0
C932 C 0.68983 0.51348 0.33362 0.0
C933 C 0.70836 0.51947 0.31132 0.0
C934 C 0.65809 0.44538 0.32889 0.0
C935 C 0.68793 0.53301 0.35053 0.0
H936 H 0.59424 0.46789 0.35905 0.0
H937 H 0.63404 0.46328 0.43878 0.0
H938 H 0.64248 0.50271 0.30747 0.0
H939 H 0.63162 0.47219 0.29806 0.0
H940 H 0.61098 0.48206 0.30803 0.0
H941 H 0.67503 0.47737 0.43549 0.0
H942 H 0.6811 0.4677 0.39765 0.0
H943 H 0.69123 0.49849 0.40386 0.0
H944 H 0.69608 0.464 0.28976 0.0
H945 H 0.72086 0.53799 0.30635 0.0
H946 H 0.64009 0.44149 0.32157 0.0
H947 H 0.65724 0.44084 0.3549 0.0
H948 H 0.66269 0.43367 0.31487 0.0
H949 H 0.67124 0.53245 0.3433 0.0
H950 H 0.70308 0.55088 0.34478 0.0
H951 H 0.68718 0.53034 0.37712 0.0
C952 C 0.53918 0.1659 0.41093 0.0
C953 C 0.54245 0.14766 0.39863 0.0
C954 C 0.53001 0.1771 0.39139 0.0
C955 C 0.52442 0.17019 0.3586 0.0
C956 C 0.52739 0.15155 0.34622 0.0
C957 C 0.53618 0.14038 0.36646 0.0
C958 C 0.5268 0.19668 0.40562 0.0
C959 C 0.52209 0.14396 0.31126 0.0
C960 C 0.48713 0.189 0.30901 0.0
C961 C 0.50476 0.20916 0.29301 0.0
C962 C 0.4932 0.17634 0.33098 0.0
C963 C 0.51742 0.18377 0.33653 0.0
C964 C 0.53524 0.20406 0.32041 0.0
C965 C 0.52871 0.21657 0.29913 0.0
C966 C 0.47373 0.155 0.34815 0.0
C967 C 0.56126 0.21237 0.32519 0.0
H968 H 0.54383 0.17146 0.43586 0.0
H969 H 0.53871 0.12631 0.35681 0.0
H970 H 0.53934 0.21382 0.39401 0.0
H971 H 0.50859 0.19327 0.40073 0.0
H972 H 0.52992 0.19847 0.43215 0.0
H973 H 0.52423 0.12842 0.30581 0.0
H974 H 0.50371 0.13941 0.3051 0.0
H975 H 0.53421 0.15887 0.29532 0.0
H976 H 0.46861 0.18321 0.30453 0.0
H977 H 0.54251 0.23197 0.28671 0.0
H978 H 0.47635 0.15726 0.37472 0.0
H979 H 0.47445 0.13887 0.34145 0.0
H980 H 0.45582 0.15207 0.34217 0.0
H981 H 0.56606 0.21642 0.35108 0.0
H982 H 0.57292 0.22845 0.31071 0.0
H983 H 0.56496 0.19807 0.3182 0.0
C984 C 0.64621 0.45484 0.86641 0.0
C985 C 0.62996 0.4623 0.87437 0.0
C986 C 0.66481 0.46766 0.84463 0.0
C987 C 0.66714 0.48832 0.82986 0.0
C988 C 0.65055 0.49574 0.83712 0.0
C989 C 0.63226 0.48275 0.85954 0.0
C990 C 0.68228 0.45929 0.83793 0.0
C991 C 0.65225 0.51746 0.82137 0.0
C992 C 0.72896 0.53138 0.79853 0.0
C993 C 0.72726 0.5242 0.76621 0.0
C994 C 0.70927 0.52041 0.8193 0.0
C995 C 0.68726 0.50217 0.80725 0.0
C996 C 0.68522 0.49563 0.77423 0.0
C997 C 0.70532 0.50654 0.75419 0.0
C998 C 0.71233 0.52757 0.8545 0.0
C999 C 0.66199 0.47657 0.76031 0.0
H1000 H 0.6448 0.4392 0.87785 0.0
H1001 H 0.61978 0.48862 0.86545 0.0
H1002 H 0.68243 0.45567 0.81174 0.0
H1003 H 0.70047 0.4734 0.84454 0.0
H1004 H 0.67806 0.44294 0.8516 0.0
H1005 H 0.63737 0.52027 0.82847 0.0
H1006 H 0.66921 0.53342 0.8282 0.0
H1007 H 0.65226 0.5158 0.79465 0.0
H1008 H 0.74591 0.545 0.80792 0.0
H1009 H 0.7039 0.5011 0.72912 0.0
H1010 H 0.70997 0.51249 0.86971 0.0
H1011 H 0.69859 0.53195 0.86195 0.0
H1012 H 0.73011 0.5431 0.85957 0.0
H1013 H 0.6575 0.4591 0.77073 0.0
H1014 H 0.66267 0.47543 0.73355 0.0
H1015 H 0.64743 0.48001 0.76681 0.0
C1016 C 0.47673 0.2031 0.80247 0.0
C1017 C 0.48226 0.20752 0.76952 0.0
C1018 C 0.48822 0.19441 0.82225 0.0
C1019 C 0.50527 0.18951 0.80858 0.0
C1020 C 0.51025 0.19308 0.77503 0.0
C1021 C 0.4989 0.20235 0.75596 0.0
C1022 C 0.48279 0.19138 0.85803 0.0
C1023 C 0.52796 0.18764 0.75942 0.0
C1024 C 0.55351 0.1945 0.86495 0.0
C1025 C 0.54496 0.1708 0.87417 0.0
C1026 C 0.54093 0.20069 0.84331 0.0
C1027 C 0.51937 0.18273 0.82994 0.0
C1028 C 0.51099 0.15866 0.83813 0.0
C1029 C 0.52378 0.15298 0.86039 0.0
C1030 C 0.55036 0.2266 0.83562 0.0
C1031 C 0.48829 0.139 0.82385 0.0
H1032 H 0.46392 0.20715 0.81306 0.0
H1033 H 0.50306 0.20554 0.73042 0.0
H1034 H 0.47761 0.17309 0.86572 0.0
H1035 H 0.49893 0.2037 0.87187 0.0
H1036 H 0.46831 0.19495 0.86461 0.0
H1037 H 0.52804 0.18908 0.73264 0.0
H1038 H 0.54604 0.20015 0.76851 0.0
H1039 H 0.52395 0.16946 0.76597 0.0
H1040 H 0.56979 0.20849 0.87545 0.0
H1041 H 0.51706 0.13463 0.86721 0.0
H1042 H 0.53738 0.23191 0.84354 0.0
H1043 H 0.55272 0.22956 0.80914 0.0
H1044 H 0.56761 0.23837 0.84764 0.0
H1045 H 0.47303 0.14068 0.83234 0.0
H1046 H 0.48515 0.12113 0.83064 0.0
H1047 H 0.48878 0.14042 0.79707 0.0
C1048 C 0.81111 0.3599 0.86019 0.0
C1049 C 0.83479 0.37577 0.86879 0.0
C1050 C 0.80524 0.34097 0.83895 0.0
C1051 C 0.82348 0.33794 0.8253 0.0
C1052 C 0.8475 0.35434 0.83284 0.0
C1053 C 0.85287 0.37294 0.85477 0.0
C1054 C 0.77938 0.32371 0.83202 0.0
C1055 C 0.86745 0.35196 0.81822 0.0
C1056 C 0.80443 0.27486 0.79951 0.0
C1057 C 0.79916 0.27519 0.7667 0.0
C1058 C 0.81307 0.29537 0.81864 0.0
C1059 C 0.81706 0.31688 0.80444 0.0
C1060 C 0.81275 0.31753 0.77096 0.0
C1061 C 0.80354 0.29658 0.75257 0.0
C1062 C 0.8169 0.29373 0.85437 0.0
C1063 C 0.81723 0.3402 0.75477 0.0
H1064 H 0.79692 0.36174 0.87092 0.0
H1065 H 0.8712 0.38513 0.86112 0.0
H1066 H 0.776 0.32264 0.80561 0.0
H1067 H 0.77479 0.30568 0.8403 0.0
H1068 H 0.76735 0.32878 0.8442 0.0
H1069 H 0.88516 0.36721 0.82438 0.0
H1070 H 0.86657 0.33544 0.82707 0.0
H1071 H 0.86561 0.35055 0.7915 0.0
H1072 H 0.801 0.25833 0.81058 0.0
H1073 H 0.79967 0.29694 0.72713 0.0
H1074 H 0.80438 0.29714 0.86844 0.0
H1075 H 0.83512 0.30746 0.86141 0.0
H1076 H 0.81415 0.27604 0.86134 0.0
H1077 H 0.80433 0.34527 0.76379 0.0
H1078 H 0.81555 0.33839 0.72803 0.0
H1079 H 0.83525 0.3549 0.76085 0.0
C1080 C 0.54986 0.35711 0.3785 0.0
C1081 C 0.54259 0.37374 0.38475 0.0
C1082 C 0.53738 0.33827 0.35687 0.0
C1083 C 0.51723 0.33605 0.34064 0.0
C1084 C 0.5099 0.35288 0.34644 0.0
C1085 C 0.52257 0.37145 0.3686 0.0
C1086 C 0.54566 0.32057 0.35166 0.0
C1087 C 0.48867 0.35125 0.32926 0.0
C1088 C 0.50005 0.29822 0.26456 0.0
C1089 C 0.48165 0.27642 0.27587 0.0
C1090 C 0.51112 0.31807 0.28503 0.0
C1091 C 0.5039 0.31595 0.31776 0.0
C1092 C 0.48504 0.29406 0.32916 0.0
C1093 C 0.47401 0.27461 0.30799 0.0
C1094 C 0.53093 0.34116 0.27182 0.0
C1095 C 0.47706 0.29096 0.36401 0.0
H1096 H 0.56518 0.35854 0.39094 0.0
H1097 H 0.51683 0.38421 0.37316 0.0
H1098 H 0.53122 0.30247 0.35798 0.0
H1099 H 0.55002 0.32028 0.32578 0.0
H1100 H 0.56154 0.32469 0.36639 0.0
H1101 H 0.48558 0.36603 0.33585 0.0
H1102 H 0.49119 0.35148 0.30268 0.0
H1103 H 0.47253 0.3342 0.33529 0.0
H1104 H 0.50591 0.29974 0.23967 0.0
H1105 H 0.45983 0.25778 0.31688 0.0
H1106 H 0.5479 0.34543 0.2837 0.0
H1107 H 0.52752 0.35588 0.27728 0.0
H1108 H 0.53309 0.34045 0.24525 0.0
H1109 H 0.49175 0.29325 0.38002 0.0
H1110 H 0.46138 0.2732 0.36865 0.0
H1111 H 0.47257 0.30473 0.37083 0.0
C1112 C 0.72849 0.19709 0.2988 0.0
C1113 C 0.72675 0.20479 0.26776 0.0
C1114 C 0.70946 0.18865 0.3207 0.0
C1115 C 0.68804 0.18758 0.31118 0.0
C1116 C 0.68591 0.19456 0.27946 0.0
C1117 C 0.70536 0.20326 0.25821 0.0
C1118 C 0.71262 0.18174 0.35442 0.0
C1119 C 0.66328 0.19341 0.26825 0.0
C1120 C 0.63302 0.1511 0.36312 0.0
C1121 C 0.63237 0.16882 0.38169 0.0
C1122 C 0.65083 0.1569 0.33972 0.0
C1123 C 0.66861 0.18094 0.3352 0.0
C1124 C 0.66811 0.19884 0.35404 0.0
C1125 C 0.64996 0.19259 0.37681 0.0
C1126 C 0.6506 0.13737 0.31977 0.0
C1127 C 0.68693 0.22463 0.3504 0.0
H1128 H 0.74499 0.19826 0.30637 0.0
H1129 H 0.70387 0.20907 0.23419 0.0
H1130 H 0.71162 0.19394 0.37228 0.0
H1131 H 0.69813 0.16356 0.36021 0.0
H1132 H 0.72989 0.18238 0.35748 0.0
H1133 H 0.66374 0.1975 0.24208 0.0
H1134 H 0.64788 0.1755 0.27287 0.0
H1135 H 0.66033 0.20629 0.28215 0.0
H1136 H 0.61946 0.13271 0.3666 0.0
H1137 H 0.64978 0.20643 0.39118 0.0
H1138 H 0.6672 0.13689 0.32387 0.0
H1139 H 0.64992 0.14093 0.29365 0.0
H1140 H 0.63526 0.11965 0.32567 0.0
H1141 H 0.70471 0.22687 0.35518 0.0
H1142 H 0.68412 0.23637 0.36713 0.0
H1143 H 0.68704 0.2306 0.32523 0.0
C1144 C 0.85435 0.4815 0.35832 0.0
C1145 C 0.83617 0.46178 0.37439 0.0
C1146 C 0.84906 0.49466 0.33617 0.0
C1147 C 0.82509 0.48821 0.33053 0.0
C1148 C 0.80673 0.46835 0.34672 0.0
C1149 C 0.81247 0.45531 0.36814 0.0
C1150 C 0.86907 0.51548 0.31888 0.0
C1151 C 0.78094 0.46109 0.34189 0.0
C1152 C 0.80786 0.53269 0.30043 0.0
C1153 C 0.8008 0.52496 0.26858 0.0
C1154 C 0.81667 0.52146 0.32053 0.0
C1155 C 0.81888 0.50232 0.3083 0.0
C1156 C 0.81281 0.49518 0.27567 0.0
C1157 C 0.8036 0.50643 0.2563 0.0
C1158 C 0.8225 0.52933 0.35533 0.0
C1159 C 0.81526 0.47511 0.26156 0.0
H1160 H 0.87268 0.48657 0.36293 0.0
H1161 H 0.79825 0.44026 0.38064 0.0
H1162 H 0.86639 0.51321 0.29233 0.0
H1163 H 0.86919 0.53206 0.32547 0.0
H1164 H 0.88667 0.51759 0.32489 0.0
H1165 H 0.76881 0.4453 0.35654 0.0
H1166 H 0.77805 0.47596 0.34863 0.0
H1167 H 0.77605 0.457 0.31604 0.0
H1168 H 0.8057 0.54698 0.31006 0.0
H1169 H 0.79835 0.50053 0.2316 0.0
H1170 H 0.84058 0.5329 0.36145 0.0
H1171 H 0.8099 0.51491 0.37153 0.0
H1172 H 0.82144 0.54553 0.36045 0.0
H1173 H 0.83313 0.47774 0.26682 0.0
H1174 H 0.8124 0.47353 0.23497 0.0
H1175 H 0.80208 0.45811 0.27293 0.0
C1176 C 0.61131 0.1415 0.87027 0.0
C1177 C 0.61212 0.14988 0.90176 0.0
C1178 C 0.63103 0.15269 0.84962 0.0
C1179 C 0.65225 0.17251 0.86092 0.0
C1180 C 0.65343 0.18054 0.89309 0.0
C1181 C 0.63326 0.16927 0.91304 0.0
C1182 C 0.62888 0.14382 0.81533 0.0
C1183 C 0.67582 0.20136 0.9062 0.0
C1184 C 0.708 0.19065 0.81098 0.0
C1185 C 0.70941 0.20942 0.7925 0.0
C1186 C 0.68989 0.17887 0.83405 0.0
C1187 C 0.67257 0.18575 0.83832 0.0
C1188 C 0.67407 0.20483 0.82002 0.0
C1189 C 0.69253 0.21652 0.7976 0.0
C1190 C 0.6891 0.15886 0.85351 0.0
C1191 C 0.65577 0.21252 0.82346 0.0
H1192 H 0.59499 0.12657 0.86137 0.0
H1193 H 0.63401 0.17573 0.93743 0.0
H1194 H 0.63104 0.15787 0.79815 0.0
H1195 H 0.64318 0.13973 0.81011 0.0
H1196 H 0.61148 0.12765 0.81068 0.0
H1197 H 0.6745 0.20414 0.93246 0.0
H1198 H 0.69116 0.19865 0.90218 0.0
H1199 H 0.67957 0.21776 0.89311 0.0
H1200 H 0.72101 0.18511 0.80737 0.0
H1201 H 0.69331 0.23089 0.78336 0.0
H1202 H 0.67275 0.14198 0.84757 0.0
H1203 H 0.68843 0.16213 0.87974 0.0
H1204 H 0.70469 0.15665 0.8488 0.0
H1205 H 0.63797 0.19759 0.81701 0.0
H1206 H 0.65969 0.22793 0.80781 0.0
H1207 H 0.65489 0.21735 0.84895 0.0
C1208 C 0.83712 0.46767 0.9072 0.0
C1209 C 0.85606 0.4652 0.89587 0.0
C1210 C 0.82634 0.4771 0.8873 0.0
C1211 C 0.83439 0.48374 0.85509 0.0
C1212 C 0.85391 0.4818 0.84381 0.0
C1213 C 0.86464 0.47276 0.86444 0.0
C1214 C 0.80583 0.47923 0.90041 0.0
C1215 C 0.86275 0.48821 0.80946 0.0
C1216 C 0.78895 0.47825 0.79313 0.0
C1217 C 0.79545 0.50203 0.78749 0.0
C1218 C 0.80152 0.47219 0.81496 0.0
C1219 C 0.8209 0.49029 0.8322 0.0
C1220 C 0.82742 0.51435 0.82707 0.0
C1221 C 0.81476 0.51997 0.80448 0.0
C1222 C 0.79422 0.44634 0.81918 0.0
C1223 C 0.84773 0.53409 0.84546 0.0
H1224 H 0.83055 0.46203 0.93158 0.0
H1225 H 0.87926 0.47085 0.85552 0.0
H1226 H 0.80857 0.49719 0.89547 0.0
H1227 H 0.7892 0.46626 0.88806 0.0
H1228 H 0.80346 0.47586 0.92687 0.0
H1229 H 0.8791 0.48726 0.80513 0.0
H1230 H 0.8488 0.47588 0.79248 0.0
H1231 H 0.86647 0.50639 0.80364 0.0
H1232 H 0.77424 0.46423 0.77988 0.0
H1233 H 0.81984 0.53836 0.80034 0.0
H1234 H 0.78935 0.44095 0.84476 0.0
H1235 H 0.80933 0.44364 0.81322 0.0
H1236 H 0.77892 0.43444 0.80362 0.0
H1237 H 0.84466 0.53103 0.87187 0.0
H1238 H 0.85007 0.55179 0.83953 0.0
H1239 H 0.86447 0.53424 0.83984 0.0
C1240 C 0.5333 0.3951 0.86759 0.0
C1241 C 0.54134 0.39409 0.8987 0.0
C1242 C 0.52489 0.37568 0.84641 0.0
C1243 C 0.52417 0.35458 0.85676 0.0
C1244 C 0.53153 0.35318 0.88854 0.0
C1245 C 0.54022 0.37303 0.90905 0.0
C1246 C 0.51757 0.37804 0.81257 0.0
C1247 C 0.53074 0.33091 0.90061 0.0
C1248 C 0.48718 0.29868 0.80673 0.0
C1249 C 0.50468 0.29782 0.78789 0.0
C1250 C 0.49326 0.31678 0.82973 0.0
C1251 C 0.51732 0.33465 0.83354 0.0
C1252 C 0.53501 0.33388 0.81455 0.0
C1253 C 0.52851 0.31541 0.79221 0.0
C1254 C 0.47395 0.31683 0.8499 0.0
C1255 C 0.56083 0.35279 0.81743 0.0
H1256 H 0.53417 0.41135 0.8594 0.0
H1257 H 0.5463 0.37211 0.93314 0.0
H1258 H 0.52954 0.37661 0.79474 0.0
H1259 H 0.49932 0.36343 0.80746 0.0
H1260 H 0.51817 0.39524 0.80876 0.0
H1261 H 0.53523 0.33199 0.92672 0.0
H1262 H 0.51283 0.31532 0.89672 0.0
H1263 H 0.54349 0.32775 0.88672 0.0
H1264 H 0.46875 0.2851 0.80369 0.0
H1265 H 0.54217 0.31506 0.77761 0.0
H1266 H 0.47316 0.33319 0.84504 0.0
H1267 H 0.478 0.31692 0.876 0.0
H1268 H 0.45623 0.3012 0.84489 0.0
H1269 H 0.56298 0.37044 0.81187 0.0
H1270 H 0.57241 0.34962 0.80086 0.0
H1271 H 0.56707 0.3535 0.8426 0.0
C1272 C 0.47896 0.6312 0.64063 0.0
C1273 C 0.45939 0.62939 0.62377 0.0
C1274 C 0.49148 0.64958 0.6631 0.0
C1275 C 0.48451 0.66674 0.66842 0.0
C1276 C 0.46464 0.66483 0.65177 0.0
C1277 C 0.45225 0.64614 0.6299 0.0
C1278 C 0.51236 0.65082 0.68081 0.0
C1279 C 0.4568 0.68293 0.65639 0.0
C1280 C 0.50338 0.70645 0.74285 0.0
C1281 C 0.52215 0.72765 0.73059 0.0
C1282 C 0.49155 0.68616 0.72324 0.0
C1283 C 0.49838 0.68726 0.69046 0.0
C1284 C 0.51755 0.70855 0.67813 0.0
C1285 C 0.52931 0.72842 0.69842 0.0
C1286 C 0.47143 0.66371 0.73741 0.0
C1287 C 0.52514 0.71059 0.6432 0.0
H1288 H 0.48455 0.61832 0.6362 0.0
H1289 H 0.43727 0.64505 0.61693 0.0
H1290 H 0.52886 0.66728 0.67393 0.0
H1291 H 0.51006 0.6516 0.7073 0.0
H1292 H 0.51465 0.63537 0.6754 0.0
H1293 H 0.44077 0.67871 0.64195 0.0
H1294 H 0.4529 0.68393 0.68227 0.0
H1295 H 0.47132 0.70076 0.64919 0.0
H1296 H 0.49788 0.70573 0.76777 0.0
H1297 H 0.54378 0.74478 0.68879 0.0
H1298 H 0.47428 0.64852 0.73279 0.0
H1299 H 0.45451 0.65959 0.72553 0.0
H1300 H 0.46954 0.66518 0.76389 0.0
H1301 H 0.5293 0.69645 0.6372 0.0
H1302 H 0.54094 0.72809 0.6377 0.0
H1303 H 0.51038 0.70808 0.62717 0.0
C1304 C 0.37165 0.84839 0.63732 0.0
C1305 C 0.37351 0.83065 0.6205 0.0
C1306 C 0.35331 0.84251 0.65987 0.0
C1307 C 0.33623 0.81836 0.66532 0.0
C1308 C 0.33816 0.80041 0.64864 0.0
C1309 C 0.35681 0.80675 0.62668 0.0
C1310 C 0.35204 0.86213 0.67758 0.0
C1311 C 0.32016 0.77446 0.65339 0.0
C1312 C 0.29705 0.79761 0.74027 0.0
C1313 C 0.27574 0.79509 0.72834 0.0
C1314 C 0.31719 0.80605 0.72038 0.0
C1315 C 0.31584 0.81167 0.68762 0.0
C1316 C 0.29442 0.8094 0.67559 0.0
C1317 C 0.2747 0.80132 0.69616 0.0
C1318 C 0.33978 0.80852 0.73424 0.0
C1319 C 0.2921 0.81481 0.64069 0.0
H1320 H 0.38449 0.86688 0.63285 0.0
H1321 H 0.35792 0.79285 0.61374 0.0
H1322 H 0.33546 0.862 0.67097 0.0
H1323 H 0.35151 0.85917 0.70408 0.0
H1324 H 0.36736 0.87992 0.67194 0.0
H1325 H 0.32434 0.76266 0.63884 0.0
H1326 H 0.31934 0.76959 0.67927 0.0
H1327 H 0.30226 0.77106 0.64645 0.0
H1328 H 0.29798 0.79295 0.76519 0.0
H1329 H 0.25825 0.79935 0.68677 0.0
H1330 H 0.35487 0.8266 0.7295 0.0
H1331 H 0.34391 0.79577 0.72222 0.0
H1332 H 0.33849 0.80518 0.76072 0.0
H1333 H 0.30613 0.83313 0.63452 0.0
H1334 H 0.27453 0.81299 0.63542 0.0
H1335 H 0.29459 0.80257 0.62462 0.0
C1336 C 0.19289 0.54989 0.63398 0.0
C1337 C 0.169 0.54231 0.62711 0.0
C1338 C 0.19924 0.53742 0.6556 0.0
C1339 C 0.18129 0.51701 0.67135 0.0
C1340 C 0.15711 0.50957 0.66532 0.0
C1341 C 0.15123 0.52218 0.643 0.0
C1342 C 0.22523 0.54576 0.66088 0.0
C1343 C 0.1375 0.48814 0.68216 0.0
C1344 C 0.20009 0.47346 0.70033 0.0
C1345 C 0.20635 0.48051 0.73257 0.0
C1346 C 0.19122 0.48471 0.6804 0.0
C1347 C 0.18811 0.50318 0.69318 0.0
C1348 C 0.19357 0.50976 0.72608 0.0
C1349 C 0.20287 0.49851 0.7453 0.0
C1350 C 0.18607 0.47747 0.6453 0.0
C1351 C 0.19018 0.5291 0.74075 0.0
H1352 H 0.20682 0.56529 0.62171 0.0
H1353 H 0.13275 0.51624 0.63795 0.0
H1354 H 0.22971 0.54941 0.68691 0.0
H1355 H 0.22907 0.53162 0.65356 0.0
H1356 H 0.23701 0.56209 0.64692 0.0
H1357 H 0.11967 0.48553 0.6764 0.0
H1358 H 0.13797 0.47199 0.67485 0.0
H1359 H 0.14013 0.48999 0.70875 0.0
H1360 H 0.20278 0.45958 0.69035 0.0
H1361 H 0.2075 0.50388 0.7703 0.0
H1362 H 0.19827 0.49254 0.62965 0.0
H1363 H 0.16772 0.473 0.63907 0.0
H1364 H 0.18822 0.46198 0.63955 0.0
H1365 H 0.20287 0.54643 0.72971 0.0
H1366 H 0.19298 0.53047 0.76736 0.0
H1367 H 0.17203 0.52578 0.7356 0.0
C1368 C 0.39575 0.86247 0.1328 0.0
C1369 C 0.39478 0.85531 0.10058 0.0
C1370 C 0.37587 0.85099 0.15315 0.0
C1371 C 0.35436 0.83213 0.14084 0.0
C1372 C 0.3531 0.82525 0.10805 0.0
C1373 C 0.3734 0.83679 0.08838 0.0
C1374 C 0.3781 0.85861 0.18809 0.0
C1375 C 0.33043 0.80544 0.0939 0.0
C1376 C 0.31252 0.78645 0.20138 0.0
C1377 C 0.29615 0.79409 0.20746 0.0
C1378 C 0.33132 0.79853 0.17956 0.0
C1379 C 0.33375 0.81862 0.1629 0.0
C1380 C 0.31699 0.82613 0.16821 0.0
C1381 C 0.29849 0.81389 0.19063 0.0
C1382 C 0.34897 0.79011 0.17497 0.0
C1383 C 0.3188 0.84725 0.15051 0.0
H1384 H 0.41225 0.87674 0.1424 0.0
H1385 H 0.37252 0.83128 0.06343 0.0
H1386 H 0.3643 0.86324 0.1941 0.0
H1387 H 0.37519 0.8437 0.2041 0.0
H1388 H 0.3958 0.87412 0.1936 0.0
H1389 H 0.33185 0.80342 0.06744 0.0
H1390 H 0.3259 0.78842 0.10587 0.0
H1391 H 0.31553 0.80876 0.09844 0.0
H1392 H 0.31104 0.77128 0.21433 0.0
H1393 H 0.28591 0.81988 0.19501 0.0
H1394 H 0.36694 0.80436 0.18215 0.0
H1395 H 0.34986 0.78612 0.14909 0.0
H1396 H 0.34438 0.77398 0.18942 0.0
H1397 H 0.33549 0.86352 0.15735 0.0
H1398 H 0.30364 0.85003 0.15596 0.0
H1399 H 0.31945 0.84489 0.12402 0.0
C1400 C 0.16543 0.53774 0.08765 0.0
C1401 C 0.14732 0.54108 0.1003 0.0
C1402 C 0.17676 0.52857 0.10693 0.0
C1403 C 0.17014 0.52307 0.13981 0.0
C1404 C 0.1516 0.52609 0.15255 0.0
C1405 C 0.14028 0.53486 0.13255 0.0
C1406 C 0.19619 0.5253 0.09233 0.0
C1407 C 0.14432 0.52089 0.18762 0.0
C1408 C 0.18908 0.48595 0.18954 0.0
C1409 C 0.20923 0.50364 0.20549 0.0
C1410 C 0.17646 0.49195 0.16741 0.0
C1411 C 0.1839 0.51615 0.16163 0.0
C1412 C 0.20429 0.53403 0.17749 0.0
C1413 C 0.21678 0.52757 0.19893 0.0
C1414 C 0.15504 0.47241 0.15046 0.0
C1415 C 0.21264 0.56005 0.17247 0.0
H1416 H 0.1708 0.54236 0.06265 0.0
H1417 H 0.12632 0.53744 0.14247 0.0
H1418 H 0.21345 0.53792 0.10359 0.0
H1419 H 0.19285 0.50712 0.09729 0.0
H1420 H 0.19771 0.52827 0.06576 0.0
H1421 H 0.12883 0.52307 0.19337 0.0
H1422 H 0.1398 0.50252 0.1938 0.0
H1423 H 0.15937 0.53304 0.20333 0.0
H1424 H 0.18317 0.46744 0.19436 0.0
H1425 H 0.23218 0.54143 0.21126 0.0
H1426 H 0.15698 0.4751 0.12389 0.0
H1427 H 0.1389 0.47296 0.15768 0.0
H1428 H 0.15233 0.45454 0.1562 0.0
H1429 H 0.21635 0.56467 0.14649 0.0
H1430 H 0.22891 0.57176 0.18655 0.0
H1431 H 0.19846 0.56384 0.17981 0.0
C1432 C 0.47436 0.68779 0.20808 0.0
C1433 C 0.49826 0.70479 0.21358 0.0
C1434 C 0.46793 0.66914 0.1861 0.0
C1435 C 0.48578 0.66752 0.1687 0.0
C1436 C 0.50994 0.68474 0.17374 0.0
C1437 C 0.51592 0.70308 0.19632 0.0
C1438 C 0.44198 0.65097 0.18184 0.0
C1439 C 0.52945 0.68375 0.1553 0.0
C1440 C 0.46869 0.60645 0.13587 0.0
C1441 C 0.4621 0.60786 0.104 0.0
C1442 C 0.47693 0.62591 0.15696 0.0
C1443 C 0.47897 0.64743 0.14579 0.0
C1444 C 0.47298 0.64915 0.11334 0.0
C1445 C 0.46442 0.62928 0.0929 0.0
C1446 C 0.48277 0.62319 0.1915 0.0
C1447 C 0.47516 0.67186 0.10041 0.0
H1448 H 0.46055 0.68879 0.22142 0.0
H1449 H 0.53441 0.71617 0.20027 0.0
H1450 H 0.4367 0.65047 0.15621 0.0
H1451 H 0.4389 0.63304 0.18798 0.0
H1452 H 0.43028 0.65475 0.19726 0.0
H1453 H 0.54729 0.69889 0.16121 0.0
H1454 H 0.52924 0.66698 0.1609 0.0
H1455 H 0.52642 0.68385 0.12889 0.0
H1456 H 0.46689 0.58992 0.14461 0.0
H1457 H 0.45949 0.6305 0.06823 0.0
H1458 H 0.47059 0.6253 0.20819 0.0
H1459 H 0.50108 0.63727 0.19754 0.0
H1460 H 0.48118 0.60563 0.19602 0.0
H1461 H 0.46248 0.67574 0.11317 0.0
H1462 H 0.47151 0.67088 0.07403 0.0
H1463 H 0.49325 0.68696 0.10503 0.0
C1464 C 0.13792 0.60821 0.63333 0.0
C1465 C 0.14678 0.60912 0.60211 0.0
C1466 C 0.14897 0.62778 0.65427 0.0
C1467 C 0.16918 0.6489 0.64358 0.0
C1468 C 0.17768 0.6502 0.61165 0.0
C1469 C 0.16649 0.63022 0.59138 0.0
C1470 C 0.13957 0.62551 0.68827 0.0
C1471 C 0.19898 0.6725 0.59921 0.0
C1472 C 0.18863 0.70491 0.6936 0.0
C1473 C 0.20717 0.70579 0.71201 0.0
C1474 C 0.17635 0.68676 0.67074 0.0
C1475 C 0.18248 0.66887 0.66665 0.0
C1476 C 0.20114 0.66967 0.6852 0.0
C1477 C 0.21333 0.68817 0.70741 0.0
C1478 C 0.15679 0.68667 0.65103 0.0
C1479 C 0.20802 0.65076 0.68198 0.0
H1480 H 0.12272 0.59194 0.6418 0.0
H1481 H 0.17332 0.63106 0.5672 0.0
H1482 H 0.15309 0.62691 0.70586 0.0
H1483 H 0.13605 0.64018 0.69354 0.0
H1484 H 0.12297 0.60835 0.69228 0.0
H1485 H 0.20204 0.67138 0.57299 0.0
H1486 H 0.19666 0.68807 0.60337 0.0
H1487 H 0.21507 0.6757 0.61265 0.0
H1488 H 0.18383 0.7185 0.69686 0.0
H1489 H 0.22749 0.68853 0.72166 0.0
H1490 H 0.13969 0.67032 0.65614 0.0
H1491 H 0.16048 0.68656 0.62484 0.0
H1492 H 0.15473 0.7023 0.65624 0.0
H1493 H 0.19257 0.63311 0.68773 0.0
H1494 H 0.22292 0.65394 0.69825 0.0
H1495 H 0.21331 0.65002 0.65669 0.0
C1496 C 0.29742 0.4855 0.69437 0.0
C1497 C 0.2964 0.50303 0.71292 0.0
C1498 C 0.31541 0.49158 0.67117 0.0
C1499 C 0.33302 0.51571 0.66687 0.0
C1500 C 0.33203 0.53343 0.6855 0.0
C1501 C 0.31368 0.52691 0.70803 0.0
C1502 C 0.31568 0.47222 0.65141 0.0
C1503 C 0.35065 0.55932 0.6821 0.0
C1504 C 0.39376 0.53218 0.63352 0.0
C1505 C 0.39276 0.53991 0.60219 0.0
C1506 C 0.37424 0.52369 0.65452 0.0
C1507 C 0.35303 0.52256 0.64379 0.0
C1508 C 0.35166 0.52962 0.6118 0.0
C1509 C 0.37162 0.5384 0.59145 0.0
C1510 C 0.3766 0.51672 0.68858 0.0
C1511 C 0.32927 0.52839 0.59932 0.0
H1512 H 0.28408 0.46703 0.69783 0.0
H1513 H 0.31321 0.54062 0.72237 0.0
H1514 H 0.31585 0.47608 0.62523 0.0
H1515 H 0.33208 0.47159 0.65659 0.0
H1516 H 0.30012 0.45448 0.65653 0.0
H1517 H 0.34724 0.57094 0.69825 0.0
H1518 H 0.36841 0.56182 0.68792 0.0
H1519 H 0.35131 0.56522 0.65676 0.0
H1520 H 0.41007 0.53333 0.64201 0.0
H1521 H 0.37071 0.54423 0.5672 0.0
H1522 H 0.36214 0.49843 0.69386 0.0
H1523 H 0.37491 0.52872 0.7061 0.0
H1524 H 0.3939 0.51761 0.6927 0.0
H1525 H 0.31382 0.51042 0.60344 0.0
H1526 H 0.33038 0.5326 0.57311 0.0
H1527 H 0.32588 0.54115 0.61278 0.0
C1528 C 0.51794 0.81315 0.69285 0.0
C1529 C 0.50051 0.79473 0.71169 0.0
C1530 C 0.51171 0.82479 0.66941 0.0
C1531 C 0.48755 0.81812 0.66514 0.0
C1532 C 0.46993 0.79952 0.68404 0.0
C1533 C 0.47659 0.78797 0.70682 0.0
C1534 C 0.53097 0.84431 0.64937 0.0
C1535 C 0.44401 0.79211 0.68069 0.0
C1536 C 0.47083 0.86208 0.63143 0.0
C1537 C 0.46305 0.85321 0.60017 0.0
C1538 C 0.4794 0.85118 0.65251 0.0
C1539 C 0.48056 0.83109 0.64194 0.0
C1540 C 0.47343 0.82249 0.61003 0.0
C1541 C 0.46456 0.83354 0.58959 0.0
C1542 C 0.48646 0.8607 0.68648 0.0
C1543 C 0.47468 0.8013 0.59775 0.0
H1544 H 0.53644 0.81839 0.69628 0.0
H1545 H 0.46296 0.77389 0.72137 0.0
H1546 H 0.527 0.84044 0.62324 0.0
H1547 H 0.53159 0.86136 0.65436 0.0
H1548 H 0.54874 0.84655 0.65442 0.0
H1549 H 0.43247 0.77713 0.69696 0.0
H1550 H 0.44143 0.80734 0.68636 0.0
H1551 H 0.43807 0.78673 0.65539 0.0
H1552 H 0.46967 0.87726 0.6398 0.0
H1553 H 0.45869 0.82669 0.56539 0.0
H1554 H 0.5048 0.86467 0.69166 0.0
H1555 H 0.47458 0.84707 0.70414 0.0
H1556 H 0.48548 0.87708 0.69048 0.0
H1557 H 0.49269 0.80391 0.60177 0.0
H1558 H 0.47036 0.79803 0.57158 0.0
H1559 H 0.46202 0.78521 0.61141 0.0
C1560 C 0.2743 0.47199 0.19702 0.0
C1561 C 0.27571 0.48035 0.22867 0.0
C1562 C 0.29383 0.48284 0.17599 0.0
C1563 C 0.31541 0.5023 0.18704 0.0
C1564 C 0.31718 0.51026 0.21937 0.0
C1565 C 0.29723 0.49932 0.23971 0.0
C1566 C 0.29106 0.47408 0.14155 0.0
C1567 C 0.33997 0.53072 0.2322 0.0
C1568 C 0.37091 0.52077 0.13632 0.0
C1569 C 0.37259 0.54009 0.11896 0.0
C1570 C 0.35263 0.50849 0.159 0.0
C1571 C 0.33544 0.51547 0.16403 0.0
C1572 C 0.33705 0.53491 0.14655 0.0
C1573 C 0.35565 0.54705 0.12446 0.0
C1574 C 0.35165 0.48804 0.17755 0.0
C1575 C 0.31892 0.54273 0.15081 0.0
H1576 H 0.25769 0.45736 0.18832 0.0
H1577 H 0.29844 0.50575 0.26423 0.0
H1578 H 0.29301 0.48822 0.1247 0.0
H1579 H 0.30519 0.46991 0.13553 0.0
H1580 H 0.27353 0.458 0.13723 0.0
H1581 H 0.33911 0.53336 0.25861 0.0
H1582 H 0.35503 0.5277 0.22737 0.0
H1583 H 0.34383 0.54731 0.21953 0.0
H1584 H 0.38396 0.51533 0.13235 0.0
H1585 H 0.35663 0.56182 0.11105 0.0
H1586 H 0.33487 0.47145 0.17203 0.0
H1587 H 0.35178 0.49123 0.20394 0.0
H1588 H 0.36678 0.48532 0.17165 0.0
H1589 H 0.30096 0.52787 0.14484 0.0
H1590 H 0.32266 0.55815 0.13527 0.0
H1591 H 0.31852 0.54764 0.1764 0.0
C1592 C 0.50178 0.7976 0.23828 0.0
C1593 C 0.5207 0.79489 0.22744 0.0
C1594 C 0.49089 0.80653 0.21767 0.0
C1595 C 0.49888 0.81251 0.18531 0.0
C1596 C 0.51817 0.81005 0.1744 0.0
C1597 C 0.52894 0.80143 0.19566 0.0
C1598 C 0.47056 0.80915 0.23033 0.0
C1599 C 0.52698 0.81586 0.13996 0.0
C1600 C 0.45482 0.80908 0.12234 0.0
C1601 C 0.46225 0.83312 0.1169 0.0
C1602 C 0.46655 0.80223 0.14456 0.0
C1603 C 0.48607 0.81978 0.16223 0.0
C1604 C 0.49352 0.84407 0.15728 0.0
C1605 C 0.48163 0.85047 0.13449 0.0
C1606 C 0.45823 0.77615 0.14874 0.0
C1607 C 0.51409 0.86327 0.17599 0.0
H1608 H 0.49543 0.7927 0.26288 0.0
H1609 H 0.54353 0.79933 0.18711 0.0
H1610 H 0.47398 0.8274 0.22578 0.0
H1611 H 0.45401 0.79677 0.21732 0.0
H1612 H 0.46763 0.8054 0.25666 0.0
H1613 H 0.54275 0.81388 0.13563 0.0
H1614 H 0.51269 0.80394 0.12309 0.0
H1615 H 0.53167 0.83431 0.13397 0.0
H1616 H 0.43999 0.79548 0.10878 0.0
H1617 H 0.48744 0.86906 0.13058 0.0
H1618 H 0.45323 0.77085 0.17432 0.0
H1619 H 0.47285 0.7727 0.14276 0.0
H1620 H 0.44274 0.76471 0.13316 0.0
H1621 H 0.51076 0.86016 0.20235 0.0
H1622 H 0.51718 0.88127 0.17015 0.0
H1623 H 0.53051 0.86274 0.17056 0.0
C1624 C 0.19806 0.72896 0.19701 0.0
C1625 C 0.20614 0.72811 0.22816 0.0
C1626 C 0.18944 0.70937 0.1761 0.0
C1627 C 0.18859 0.68827 0.18672 0.0
C1628 C 0.19599 0.68704 0.21855 0.0
C1629 C 0.20485 0.70704 0.23882 0.0
C1630 C 0.18206 0.71157 0.14222 0.0
C1631 C 0.19512 0.66478 0.2309 0.0
C1632 C 0.1516 0.63221 0.13688 0.0
C1633 C 0.16911 0.63131 0.11813 0.0
C1634 C 0.15767 0.65037 0.15982 0.0
C1635 C 0.18174 0.66824 0.16366 0.0
C1636 C 0.19944 0.66742 0.14475 0.0
C1637 C 0.19294 0.64893 0.12248 0.0
C1638 C 0.13835 0.65047 0.17989 0.0
C1639 C 0.22526 0.68633 0.14764 0.0
H1640 H 0.19903 0.7452 0.18858 0.0
H1641 H 0.21095 0.70623 0.26294 0.0
H1642 H 0.19402 0.71008 0.12443 0.0
H1643 H 0.16382 0.69692 0.1372 0.0
H1644 H 0.18264 0.72874 0.13825 0.0
H1645 H 0.19956 0.66597 0.25704 0.0
H1646 H 0.17719 0.64921 0.22704 0.0
H1647 H 0.20787 0.66153 0.21717 0.0
H1648 H 0.13318 0.61864 0.13381 0.0
H1649 H 0.20663 0.64856 0.10796 0.0
H1650 H 0.13757 0.66682 0.17489 0.0
H1651 H 0.14237 0.65063 0.206 0.0
H1652 H 0.12063 0.63484 0.1749 0.0
H1653 H 0.22743 0.70397 0.1419 0.0
H1654 H 0.23685 0.68309 0.13119 0.0
H1655 H 0.23146 0.68713 0.17285 0.0
C1656 C 0.12989 0.15264 0.30975 0.0
C1657 C 0.13178 0.17507 0.3112 0.0
C1658 C 0.14142 0.14704 0.28568 0.0
C1659 C 0.15494 0.16413 0.26185 0.0
C1660 C 0.15765 0.18714 0.2637 0.0
C1661 C 0.1462 0.19244 0.28863 0.0
C1662 C 0.13832 0.12242 0.28508 0.0
C1663 C 0.17171 0.20576 0.23858 0.0
C1664 C 0.19197 0.14664 0.20935 0.0
C1665 C 0.17566 0.13376 0.18485 0.0
C1666 C 0.18611 0.15791 0.23388 0.0
C1667 C 0.16369 0.15663 0.23334 0.0
C1668 C 0.14797 0.14504 0.2073 0.0
C1669 C 0.15403 0.13358 0.18366 0.0
C1670 C 0.20328 0.16991 0.26135 0.0
C1671 C 0.12407 0.14355 0.20531 0.0
H1672 H 0.11924 0.13927 0.32756 0.0
H1673 H 0.14787 0.20986 0.28978 0.0
H1674 H 0.1276 0.1126 0.26368 0.0
H1675 H 0.1558 0.12345 0.28289 0.0
H1676 H 0.12928 0.11206 0.30712 0.0
H1677 H 0.17463 0.22351 0.24557 0.0
H1678 H 0.18918 0.20706 0.23457 0.0
H1679 H 0.16204 0.2006 0.21521 0.0
H1680 H 0.20875 0.14692 0.21023 0.0
H1681 H 0.14157 0.12408 0.16434 0.0
H1682 H 0.19642 0.15884 0.28345 0.0
H1683 H 0.205 0.18739 0.26684 0.0
H1684 H 0.22115 0.17251 0.25589 0.0
H1685 H 0.1123 0.13162 0.22462 0.0
H1686 H 0.11529 0.13659 0.18159 0.0
H1687 H 0.12596 0.16128 0.20924 0.0
C1688 C 0.8179 0.97229 0.30737 0.0
C1689 C 0.82426 0.9549 0.30209 0.0
C1690 C 0.82506 0.99141 0.28577 0.0
C1691 C 0.83834 0.99276 0.25787 0.0
C1692 C 0.84322 0.97425 0.25132 0.0
C1693 C 0.83648 0.95577 0.27377 0.0
C1694 C 0.81989 0.01096 0.29405 0.0
C1695 C 0.85669 0.97456 0.22139 0.0
C1696 C 0.84898 0.03512 0.18797 0.0
C1697 C 0.87304 0.05193 0.19233 0.0
C1698 C 0.837 0.0162 0.20986 0.0
C1699 C 0.84924 0.01447 0.23713 0.0
C1700 C 0.87301 0.03249 0.24286 0.0
C1701 C 0.88472 0.05076 0.22012 0.0
C1702 C 0.81185 0.99718 0.20247 0.0
C1703 C 0.88653 0.03178 0.27212 0.0
H1704 H 0.80873 0.97183 0.3295 0.0
H1705 H 0.84137 0.94232 0.26963 0.0
H1706 H 0.83661 0.02703 0.30139 0.0
H1707 H 0.81292 0.01581 0.27267 0.0
H1708 H 0.80692 0.00588 0.31417 0.0
H1709 H 0.85645 0.95752 0.21783 0.0
H1710 H 0.84903 0.97818 0.19961 0.0
H1711 H 0.87543 0.989 0.22337 0.0
H1712 H 0.83998 0.03579 0.16626 0.0
H1713 H 0.90331 0.06378 0.22357 0.0
H1714 H 0.80055 0.99268 0.22436 0.0
H1715 H 0.81175 0.9808 0.19471 0.0
H1716 H 0.80384 0.0026 0.18291 0.0
H1717 H 0.87577 0.02846 0.29436 0.0
H1718 H 0.90366 0.04856 0.27523 0.0
H1719 H 0.89028 0.01699 0.26958 0.0
C1720 C 0.95676 0.81468 0.21048 0.0
C1721 C 0.95896 0.83207 0.18845 0.0
C1722 C 0.9737 0.82027 0.23522 0.0
C1723 C 0.99343 0.84361 0.23747 0.0
C1724 C 0.99623 0.86081 0.21426 0.0
C1725 C 0.97894 0.8549 0.19034 0.0
C1726 C 0.96996 0.80152 0.25971 0.0
C1727 C 0.01712 0.88581 0.21533 0.0
C1728 C 0.02296 0.87339 0.31612 0.0
C1729 C 0.04474 0.87393 0.31426 0.0
C1730 C 0.00543 0.86197 0.29247 0.0
C1731 C 0.0099 0.85119 0.26573 0.0
C1732 C 0.03146 0.85072 0.2644 0.0
C1733 C 0.04858 0.86189 0.28897 0.0
C1734 C 0.98258 0.86255 0.29531 0.0
C1735 C 0.03702 0.83965 0.23615 0.0
H1736 H 0.94147 0.79697 0.20902 0.0
H1737 H 0.9811 0.86833 0.17298 0.0
H1738 H 0.98647 0.80075 0.26298 0.0
H1739 H 0.96547 0.80617 0.2835 0.0
H1740 H 0.9554 0.78365 0.25257 0.0
H1741 H 0.01789 0.89636 0.19375 0.0
H1742 H 0.01589 0.89501 0.23722 0.0
H1743 H 0.03398 0.88551 0.21691 0.0
H1744 H 0.01969 0.88222 0.33605 0.0
H1745 H 0.06534 0.86215 0.28759 0.0
H1746 H 0.96709 0.84463 0.29109 0.0
H1747 H 0.98216 0.87455 0.27657 0.0
H1748 H 0.98061 0.86894 0.31941 0.0
H1749 H 0.02166 0.82193 0.23052 0.0
H1750 H 0.05281 0.83777 0.24079 0.0
H1751 H 0.04054 0.85093 0.2144 0.0
C1752 C 0.86742 0.84875 0.67629 0.0
C1753 C 0.8698 0.82858 0.67923 0.0
C1754 C 0.85655 0.85501 0.70057 0.0
C1755 C 0.84839 0.84112 0.72905 0.0
C1756 C 0.84964 0.82001 0.73146 0.0
C1757 C 0.86011 0.81381 0.70624 0.0
C1758 C 0.85516 0.87736 0.69656 0.0
C1759 C 0.84143 0.80488 0.76155 0.0
C1760 C 0.85521 0.87856 0.80281 0.0
C1761 C 0.83201 0.87414 0.80787 0.0
C1762 C 0.86041 0.86702 0.77827 0.0
C1763 C 0.84205 0.8508 0.75771 0.0
C1764 C 0.81844 0.84575 0.76307 0.0
C1765 C 0.81364 0.85734 0.78832 0.0
C1766 C 0.88579 0.87277 0.77382 0.0
C1767 C 0.79844 0.82878 0.74144 0.0
H1768 H 0.87459 0.85999 0.65512 0.0
H1769 H 0.86194 0.7982 0.70849 0.0
H1770 H 0.83725 0.87408 0.70318 0.0
H1771 H 0.86811 0.89131 0.713 0.0
H1772 H 0.85916 0.88424 0.67138 0.0
H1773 H 0.84034 0.78744 0.75786 0.0
H1774 H 0.85411 0.81429 0.78151 0.0
H1775 H 0.82382 0.80182 0.76936 0.0
H1776 H 0.86948 0.89114 0.81816 0.0
H1777 H 0.79567 0.85374 0.79217 0.0
H1778 H 0.89274 0.88212 0.75046 0.0
H1779 H 0.88671 0.8562 0.77297 0.0
H1780 H 0.89759 0.88419 0.79351 0.0
H1781 H 0.801 0.83649 0.71682 0.0
H1782 H 0.78084 0.82497 0.75061 0.0
H1783 H 0.79848 0.81182 0.73913 0.0
C1784 C 0.18964 0.04727 0.71038 0.0
C1785 C 0.17263 0.04425 0.68718 0.0
C1786 C 0.18402 0.03051 0.73535 0.0
C1787 C 0.16107 0.0101 0.7366 0.0
C1788 C 0.14439 0.00639 0.71206 0.0
C1789 C 0.15028 0.02358 0.68796 0.0
C1790 C 0.20218 0.03525 0.76127 0.0
C1791 C 0.11988 0.98472 0.71201 0.0
C1792 C 0.14418 0.95651 0.79093 0.0
C1793 C 0.1311 0.96005 0.81503 0.0
C1794 C 0.15504 0.97317 0.76576 0.0
C1795 C 0.15318 0.99399 0.76527 0.0
C1796 C 0.14119 0.99819 0.79071 0.0
C1797 C 0.13012 0.9811 0.81499 0.0
C1798 C 0.16739 0.9679 0.73887 0.0
C1799 C 0.13911 0.02029 0.79159 0.0
H1800 H 0.20697 0.06316 0.70977 0.0
H1801 H 0.13721 0.02089 0.66968 0.0
H1802 H 0.19646 0.03966 0.78427 0.0
H1803 H 0.2036 0.0192 0.76573 0.0
H1804 H 0.22 0.05022 0.7548 0.0
H1805 H 0.11001 0.98318 0.68936 0.0
H1806 H 0.12102 0.96838 0.71497 0.0
H1807 H 0.10951 0.98563 0.73271 0.0
H1808 H 0.14504 0.9403 0.79098 0.0
H1809 H 0.12044 0.98415 0.83396 0.0
H1810 H 0.18494 0.98365 0.73367 0.0
H1811 H 0.15665 0.96365 0.71644 0.0
H1812 H 0.16992 0.95265 0.74476 0.0
H1813 H 0.15676 0.03633 0.78799 0.0
H1814 H 0.13157 0.02214 0.8148 0.0
H1815 H 0.12746 0.01972 0.7716 0.0
C1816 C 0.95709 0.14102 0.70962 0.0
C1817 C 0.96131 0.12879 0.68496 0.0
C1818 C 0.97344 0.15176 0.73514 0.0
C1819 C 0.99464 0.1506 0.73552 0.0
C1820 C 0.99945 0.13933 0.70973 0.0
C1821 C 0.98269 0.12842 0.68503 0.0
C1822 C 0.96754 0.16337 0.76237 0.0
C1823 C 0.02195 0.13797 0.70879 0.0
C1824 C 0.04736 0.18757 0.79099 0.0
C1825 C 0.04473 0.17049 0.81385 0.0
C1826 C 0.03061 0.18178 0.76598 0.0
C1827 C 0.01061 0.15856 0.76431 0.0
C1828 C 0.00726 0.14179 0.78852 0.0
C1829 C 0.02442 0.14788 0.81271 0.0
C1830 C 0.03494 0.20008 0.74044 0.0
C1831 C 0.98605 0.11698 0.7881 0.0
H1832 H 0.94067 0.14149 0.70959 0.0
H1833 H 0.98634 0.11945 0.66568 0.0
H1834 H 0.96371 0.15251 0.78463 0.0
H1835 H 0.98288 0.18116 0.76774 0.0
H1836 H 0.95187 0.16524 0.75674 0.0
H1837 H 0.02414 0.13076 0.68549 0.0
H1838 H 0.03766 0.15581 0.7126 0.0
H1839 H 0.02168 0.12635 0.72864 0.0
H1840 H 0.06297 0.2051 0.79187 0.0
H1841 H 0.022 0.13474 0.83072 0.0
H1842 H 0.0186 0.20098 0.73601 0.0
H1843 H 0.03974 0.19488 0.71732 0.0
H1844 H 0.04951 0.21802 0.74728 0.0
H1845 H 0.96942 0.1176 0.7852 0.0
H1846 H 0.98471 0.10697 0.81053 0.0
H1847 H 0.98741 0.10705 0.76716 0.0
C1848 C 0.81147 0.5234 0.62044 0.0
C1849 C 0.79665 0.50625 0.64299 0.0
C1850 C 0.82295 0.51771 0.59599 0.0
C1851 C 0.81986 0.49454 0.59462 0.0
C1852 C 0.80595 0.47767 0.61846 0.0
C1853 C 0.7944 0.48365 0.64205 0.0
C1854 C 0.83743 0.53611 0.57083 0.0
C1855 C 0.80241 0.45288 0.61833 0.0
C1856 C 0.81892 0.46368 0.51671 0.0
C1857 C 0.84044 0.46366 0.51808 0.0
C1858 C 0.81288 0.4752 0.54027 0.0
C1859 C 0.82851 0.48664 0.56644 0.0
C1860 C 0.85078 0.48759 0.5673 0.0
C1861 C 0.85663 0.47628 0.54282 0.0
C1862 C 0.78916 0.47406 0.53795 0.0
C1863 C 0.86782 0.4994 0.59495 0.0
H1864 H 0.81343 0.54094 0.62121 0.0
H1865 H 0.78344 0.47045 0.65986 0.0
H1866 H 0.85479 0.53707 0.56726 0.0
H1867 H 0.82795 0.53095 0.54731 0.0
H1868 H 0.8406 0.554 0.57748 0.0
H1869 H 0.79318 0.44274 0.64044 0.0
H1870 H 0.79169 0.44303 0.59695 0.0
H1871 H 0.81975 0.45357 0.61644 0.0
H1872 H 0.80657 0.45442 0.49719 0.0
H1873 H 0.87335 0.47643 0.54381 0.0
H1874 H 0.79131 0.49193 0.54154 0.0
H1875 H 0.77724 0.46237 0.55733 0.0
H1876 H 0.78038 0.46702 0.51425 0.0
H1877 H 0.86994 0.51708 0.60012 0.0
H1878 H 0.88555 0.50153 0.58991 0.0
H1879 H 0.86058 0.48848 0.61712 0.0
C1880 C 0.50337 0.28815 0.61187 0.0
C1881 C 0.49105 0.28729 0.64009 0.0
C1882 C 0.51041 0.30676 0.58955 0.0
C1883 C 0.50579 0.32545 0.5962 0.0
C1884 C 0.49243 0.32411 0.62401 0.0
C1885 C 0.48492 0.30484 0.64541 0.0
C1886 C 0.52389 0.30703 0.55967 0.0
C1887 C 0.48758 0.34386 0.63243 0.0
C1888 C 0.55265 0.38365 0.55932 0.0
C1889 C 0.54104 0.38531 0.53176 0.0
C1890 C 0.5408 0.3651 0.58165 0.0
C1891 C 0.51699 0.34727 0.57569 0.0
C1892 C 0.50487 0.34942 0.54858 0.0
C1893 C 0.51697 0.36862 0.52715 0.0
C1894 C 0.55419 0.36396 0.61079 0.0
C1895 C 0.47971 0.33058 0.54088 0.0
H1896 H 0.50811 0.27459 0.60773 0.0
H1897 H 0.47572 0.30441 0.66749 0.0
H1898 H 0.51649 0.31098 0.53791 0.0
H1899 H 0.54272 0.32124 0.56189 0.0
H1900 H 0.52336 0.28986 0.55593 0.0
H1901 H 0.47463 0.33888 0.65256 0.0
H1902 H 0.50441 0.35979 0.63981 0.0
H1903 H 0.48072 0.34889 0.61111 0.0
H1904 H 0.57126 0.39654 0.56294 0.0
H1905 H 0.50804 0.36964 0.50558 0.0
H1906 H 0.5577 0.34904 0.60796 0.0
H1907 H 0.54342 0.36058 0.63305 0.0
H1908 H 0.57143 0.38059 0.6141 0.0
H1909 H 0.47949 0.31416 0.53302 0.0
H1910 H 0.47188 0.33621 0.52132 0.0
H1911 H 0.4683 0.32606 0.56267 0.0
C1912 C 0.62138 0.16908 0.55821 0.0
C1913 C 0.61998 0.15555 0.53105 0.0
C1914 C 0.63921 0.17525 0.58156 0.0
C1915 C 0.65654 0.1684 0.57712 0.0
C1916 C 0.65456 0.1538 0.55049 0.0
C1917 C 0.63608 0.14728 0.52797 0.0
C1918 C 0.64019 0.19021 0.6101 0.0
C1919 C 0.67288 0.14649 0.54446 0.0
C1920 C 0.71559 0.21293 0.61439 0.0
C1921 C 0.71554 0.20163 0.64325 0.0
C1922 C 0.69725 0.20159 0.59167 0.0
C1923 C 0.67792 0.17867 0.59847 0.0
C1924 C 0.67827 0.16677 0.62701 0.0
C1925 C 0.69728 0.1783 0.6489 0.0
C1926 C 0.69799 0.21467 0.56111 0.0
C1927 C 0.65784 0.14258 0.63555 0.0
H1928 H 0.6089 0.17541 0.56072 0.0
H1929 H 0.63523 0.13706 0.50679 0.0
H1930 H 0.64271 0.18272 0.63289 0.0
H1931 H 0.65557 0.20841 0.60742 0.0
H1932 H 0.62384 0.19146 0.61226 0.0
H1933 H 0.66726 0.13281 0.52521 0.0
H1934 H 0.6898 0.16226 0.53694 0.0
H1935 H 0.67649 0.13949 0.5669 0.0
H1936 H 0.72973 0.23096 0.60997 0.0
H1937 H 0.69704 0.16966 0.67144 0.0
H1938 H 0.68411 0.21979 0.56215 0.0
H1939 H 0.69422 0.20302 0.53971 0.0
H1940 H 0.71547 0.231 0.55761 0.0
H1941 H 0.64213 0.14417 0.64188 0.0
H1942 H 0.66206 0.13455 0.65639 0.0
H1943 H 0.65284 0.13037 0.61457 0.0
C1944 C 0.53853 0.18737 0.01895 0.0
C1945 C 0.53823 0.16568 0.01968 0.0
C1946 C 0.52722 0.19335 0.04293 0.0
C1947 C 0.5157 0.17748 0.06885 0.0
C1948 C 0.51433 0.15501 0.06896 0.0
C1949 C 0.52543 0.14925 0.04409 0.0
C1950 C 0.52877 0.21729 0.0414 0.0
C1951 C 0.50244 0.13769 0.09632 0.0
C1952 C 0.51998 0.21073 0.14596 0.0
C1953 C 0.49752 0.20872 0.14786 0.0
C1954 C 0.52551 0.19942 0.12148 0.0
C1955 C 0.50833 0.18606 0.09767 0.0
C1956 C 0.48531 0.18328 0.09993 0.0
C1957 C 0.48007 0.19446 0.12529 0.0
C1958 C 0.55013 0.20256 0.12046 0.0
C1959 C 0.46661 0.16942 0.07482 0.0
H1960 H 0.54799 0.19995 0.99972 0.0
H1961 H 0.52508 0.13242 0.04462 0.0
H1962 H 0.51109 0.21543 0.04565 0.0
H1963 H 0.54082 0.22894 0.06069 0.0
H1964 H 0.53562 0.2262 0.01772 0.0
H1965 H 0.49981 0.11985 0.09059 0.0
H1966 H 0.5136 0.14443 0.11836 0.0
H1967 H 0.485 0.13595 0.10207 0.0
H1968 H 0.53341 0.22126 0.16376 0.0
H1969 H 0.46264 0.19273 0.12678 0.0
H1970 H 0.55986 0.21343 0.09912 0.0
H1971 H 0.54911 0.1851 0.1179 0.0
H1972 H 0.56059 0.21144 0.14251 0.0
H1973 H 0.47173 0.17924 0.05156 0.0
H1974 H 0.4489 0.16651 0.08202 0.0
H1975 H 0.46525 0.15196 0.07049 0.0
C1976 C 0.85452 0.37898 0.03937 0.0
C1977 C 0.83825 0.37514 0.01463 0.0
C1978 C 0.84861 0.36231 0.06454 0.0
C1979 C 0.82619 0.34116 0.0644 0.0
C1980 C 0.81044 0.33663 0.03825 0.0
C1981 C 0.81654 0.35375 0.01398 0.0
C1982 C 0.86577 0.36795 0.09216 0.0
C1983 C 0.78657 0.31416 0.03667 0.0
C1984 C 0.8098 0.28865 0.12075 0.0
C1985 C 0.79533 0.29153 0.14331 0.0
C1986 C 0.82081 0.30514 0.09543 0.0
C1987 C 0.81766 0.32515 0.09316 0.0
C1988 C 0.80406 0.32866 0.11693 0.0
C1989 C 0.79292 0.31175 0.1414 0.0
C1990 C 0.8349 0.30058 0.07034 0.0
C1991 C 0.80052 0.34991 0.11588 0.0
H1992 H 0.87135 0.39547 0.03986 0.0
H1993 H 0.80409 0.35049 0.99453 0.0
H1994 H 0.85866 0.37203 0.11413 0.0
H1995 H 0.86784 0.35243 0.09789 0.0
H1996 H 0.88351 0.38343 0.08674 0.0
H1997 H 0.77769 0.31204 0.01295 0.0
H1998 H 0.78854 0.2984 0.04098 0.0
H1999 H 0.77484 0.31448 0.05591 0.0
H2000 H 0.8118 0.27311 0.12221 0.0
H2001 H 0.78217 0.31437 0.15915 0.0
H2002 H 0.85231 0.31679 0.06624 0.0
H2003 H 0.8252 0.29597 0.04698 0.0
H2004 H 0.83792 0.28583 0.07741 0.0
H2005 H 0.81785 0.36651 0.11334 0.0
H2006 H 0.7915 0.35129 0.1379 0.0
H2007 H 0.78961 0.34858 0.09451 0.0
C2008 C 0.62477 0.47922 0.04415 0.0
C2009 C 0.62878 0.46632 0.02029 0.0
C2010 C 0.64119 0.49037 0.06948 0.0
C2011 C 0.66226 0.48897 0.07041 0.0
C2012 C 0.66696 0.47722 0.04515 0.0
C2013 C 0.65009 0.46585 0.0207 0.0
C2014 C 0.63539 0.50249 0.09613 0.0
C2015 C 0.68934 0.47563 0.04472 0.0
C2016 C 0.71472 0.52552 0.12652 0.0
C2017 C 0.71161 0.50838 0.14957 0.0
C2018 C 0.69821 0.51993 0.10121 0.0
C2019 C 0.67797 0.49687 0.09947 0.0
C2020 C 0.67413 0.48009 0.12391 0.0
C2021 C 0.69106 0.48596 0.14837 0.0
C2022 C 0.70307 0.53823 0.07545 0.0
C2023 C 0.65265 0.45544 0.12344 0.0
H2024 H 0.60836 0.47971 0.04381 0.0
H2025 H 0.65351 0.45631 0.00191 0.0
H2026 H 0.63093 0.49165 0.1185 0.0
H2027 H 0.65096 0.52009 0.10167 0.0
H2028 H 0.62011 0.50485 0.08978 0.0
H2029 H 0.69162 0.46833 0.02155 0.0
H2030 H 0.70513 0.49339 0.04865 0.0
H2031 H 0.68877 0.46396 0.06469 0.0
H2032 H 0.73054 0.5429 0.12745 0.0
H2033 H 0.6883 0.47279 0.16652 0.0
H2034 H 0.6869 0.53928 0.07035 0.0
H2035 H 0.70816 0.53292 0.05265 0.0
H2036 H 0.71764 0.55612 0.08247 0.0
H2037 H 0.63623 0.45637 0.12006 0.0
H2038 H 0.65093 0.44546 0.14605 0.0
H2039 H 0.654 0.44529 0.10277 0.0
C2040 C 0.48923 0.85458 0.97396 0.0
C2041 C 0.4653 0.84769 0.96914 0.0
C2042 C 0.50119 0.84739 0.95242 0.0
C2043 C 0.48909 0.83354 0.92498 0.0
C2044 C 0.46547 0.82812 0.91881 0.0
C2045 C 0.45374 0.83489 0.94124 0.0
C2046 C 0.52615 0.85313 0.96033 0.0
C2047 C 0.45212 0.81405 0.88936 0.0
C2048 C 0.52098 0.82276 0.85538 0.0
C2049 C 0.51432 0.79891 0.86044 0.0
C2050 C 0.5137 0.8347 0.87684 0.0
C2051 C 0.50001 0.82266 0.90442 0.0
C2052 C 0.49482 0.79913 0.9108 0.0
C2053 C 0.50168 0.78742 0.88846 0.0
C2054 C 0.5192 0.85955 0.86871 0.0
C2055 C 0.48094 0.78586 0.94042 0.0
H2056 H 0.49811 0.86417 0.99577 0.0
H2057 H 0.43525 0.82956 0.93746 0.0
H2058 H 0.52592 0.83667 0.968 0.0
H2059 H 0.53771 0.85999 0.93869 0.0
H2060 H 0.53408 0.86641 0.9801 0.0
H2061 H 0.43512 0.81393 0.88592 0.0
H2062 H 0.46311 0.82148 0.86729 0.0
H2063 H 0.44813 0.79544 0.89189 0.0
H2064 H 0.53045 0.83157 0.83347 0.0
H2065 H 0.49653 0.76899 0.89243 0.0
H2066 H 0.52608 0.87124 0.89022 0.0
H2067 H 0.50263 0.85913 0.86113 0.0
H2068 H 0.53236 0.86746 0.8488 0.0
H2069 H 0.4884 0.79698 0.96237 0.0
H2070 H 0.48096 0.76895 0.94396 0.0
H2071 H 0.46227 0.78173 0.93801 0.0
C2072 C 0.21711 0.71605 0.8878 0.0
C2073 C 0.20547 0.7173 0.86002 0.0
C2074 C 0.20534 0.69771 0.91045 0.0
C2075 C 0.18159 0.67968 0.9046 0.0
C2076 C 0.16944 0.68143 0.87724 0.0
C2077 C 0.18145 0.70043 0.85549 0.0
C2078 C 0.21876 0.69699 0.93983 0.0
C2079 C 0.14434 0.66237 0.86965 0.0
C2080 C 0.16843 0.62103 0.94194 0.0
C2081 C 0.156 0.62027 0.96999 0.0
C2082 C 0.17538 0.63944 0.91931 0.0
C2083 C 0.17054 0.65804 0.92547 0.0
C2084 C 0.15708 0.6568 0.95311 0.0
C2085 C 0.14968 0.63772 0.97484 0.0
C2086 C 0.18899 0.6396 0.88964 0.0
C2087 C 0.15198 0.67646 0.96101 0.0
H2088 H 0.23568 0.72908 0.89136 0.0
H2089 H 0.1725 0.70116 0.83375 0.0
H2090 H 0.20793 0.69373 0.962 0.0
H2091 H 0.22247 0.68217 0.93744 0.0
H2092 H 0.23591 0.71376 0.94298 0.0
H2093 H 0.13645 0.66771 0.84983 0.0
H2094 H 0.14429 0.64596 0.86221 0.0
H2095 H 0.1329 0.65797 0.89138 0.0
H2096 H 0.17333 0.60754 0.93816 0.0
H2097 H 0.14038 0.63737 0.99679 0.0
H2098 H 0.20775 0.65396 0.89179 0.0
H2099 H 0.18153 0.64325 0.86767 0.0
H2100 H 0.18866 0.6225 0.8863 0.0
H2101 H 0.16872 0.69254 0.96829 0.0
H2102 H 0.13897 0.67154 0.98105 0.0
H2103 H 0.14509 0.68123 0.93947 0.0
C2104 C 0.36729 0.51524 0.97549 0.0
C2105 C 0.38433 0.53923 0.97108 0.0
C2106 C 0.34824 0.50345 0.95375 0.0
C2107 C 0.34662 0.51578 0.92649 0.0
C2108 C 0.3648 0.53949 0.92075 0.0
C2109 C 0.38318 0.55105 0.94341 0.0
C2110 C 0.32901 0.47841 0.96124 0.0
C2111 C 0.36424 0.55307 0.89147 0.0
C2112 C 0.30439 0.48394 0.85644 0.0
C2113 C 0.28699 0.49031 0.86144 0.0
C2114 C 0.32358 0.49138 0.87798 0.0
C2115 C 0.32498 0.50491 0.90561 0.0
C2116 C 0.30648 0.50988 0.91189 0.0
C2117 C 0.28796 0.50289 0.88944 0.0
C2118 C 0.34314 0.48617 0.86994 0.0
C2119 C 0.30682 0.52358 0.94156 0.0
H2120 H 0.36792 0.50616 0.99714 0.0
H2121 H 0.39634 0.56959 0.93996 0.0
H2122 H 0.31265 0.4785 0.96858 0.0
H2123 H 0.32459 0.46699 0.93949 0.0
H2124 H 0.33418 0.47039 0.9811 0.0
H2125 H 0.3811 0.57013 0.88837 0.0
H2126 H 0.36086 0.54227 0.86925 0.0
H2127 H 0.34955 0.55696 0.89396 0.0
H2128 H 0.30389 0.47454 0.83453 0.0
H2129 H 0.27451 0.50783 0.89334 0.0
H2130 H 0.34781 0.47909 0.89138 0.0
H2131 H 0.35929 0.50289 0.86281 0.0
H2132 H 0.33818 0.47325 0.84977 0.0
H2133 H 0.31039 0.51606 0.96351 0.0
H2134 H 0.28981 0.52343 0.94494 0.0
H2135 H 0.3213 0.54229 0.93937 0.0
C2136 C 0.14657 0.52524 0.45623 0.0
C2137 C 0.16265 0.53684 0.48147 0.0
C2138 C 0.15235 0.51458 0.43079 0.0
C2139 C 0.17442 0.51511 0.43119 0.0
C2140 C 0.18988 0.5254 0.45787 0.0
C2141 C 0.18394 0.53638 0.48239 0.0
C2142 C 0.13552 0.50407 0.4026 0.0
C2143 C 0.21334 0.52597 0.45974 0.0
C2144 C 0.19047 0.47948 0.37344 0.0
C2145 C 0.20561 0.49724 0.3518 0.0
C2146 C 0.17931 0.48467 0.39886 0.0
C2147 C 0.18305 0.508 0.40217 0.0
C2148 C 0.19734 0.52558 0.37929 0.0
C2149 C 0.20857 0.52005 0.35469 0.0
C2150 C 0.16445 0.46553 0.42297 0.0
C2151 C 0.20154 0.55058 0.38147 0.0
H2152 H 0.13007 0.52553 0.45555 0.0
H2153 H 0.19622 0.54496 0.50223 0.0
H2154 H 0.14314 0.5158 0.3812 0.0
H2155 H 0.13312 0.48648 0.39602 0.0
H2156 H 0.11788 0.50208 0.40788 0.0
H2157 H 0.22186 0.5319 0.48384 0.0
H2158 H 0.21089 0.50815 0.45461 0.0
H2159 H 0.22562 0.53834 0.44118 0.0
H2160 H 0.18803 0.46179 0.37123 0.0
H2161 H 0.21985 0.53376 0.33765 0.0
H2162 H 0.14723 0.46477 0.42695 0.0
H2163 H 0.17379 0.46973 0.44659 0.0
H2164 H 0.161 0.44777 0.41502 0.0
H2165 H 0.18442 0.55029 0.38385 0.0
H2166 H 0.21109 0.56143 0.35999 0.0
H2167 H 0.21222 0.55942 0.40334 0.0
C2168 C 0.48648 0.64023 0.47977 0.0
C2169 C 0.46287 0.62237 0.47484 0.0
C2170 C 0.49796 0.65918 0.45778 0.0
C2171 C 0.48573 0.65984 0.42979 0.0
C2172 C 0.46242 0.64095 0.42372 0.0
C2173 C 0.45114 0.62269 0.4466 0.0
C2174 C 0.52255 0.6792 0.4656 0.0
C2175 C 0.44899 0.64051 0.39371 0.0
C2176 C 0.49711 0.717 0.38932 0.0
C2177 C 0.51028 0.71782 0.36204 0.0
C2178 C 0.49042 0.6991 0.4127 0.0
C2179 C 0.4963 0.68106 0.4081 0.0
C2180 C 0.51041 0.68234 0.38122 0.0
C2181 C 0.51752 0.70093 0.35873 0.0
C2182 C 0.47607 0.69888 0.44154 0.0
C2183 C 0.51658 0.66322 0.37494 0.0
H2184 H 0.49546 0.6402 0.50184 0.0
H2185 H 0.43289 0.60887 0.44275 0.0
H2186 H 0.53443 0.68352 0.44437 0.0
H2187 H 0.52166 0.69536 0.4716 0.0
H2188 H 0.53054 0.67492 0.48642 0.0
H2189 H 0.43224 0.62332 0.39073 0.0
H2190 H 0.44454 0.65487 0.39504 0.0
H2191 H 0.46014 0.64378 0.37188 0.0
H2192 H 0.49152 0.73006 0.39194 0.0
H2193 H 0.52741 0.70131 0.33741 0.0
H2194 H 0.48353 0.69609 0.46417 0.0
H2195 H 0.45759 0.68395 0.43925 0.0
H2196 H 0.47558 0.71564 0.44373 0.0
H2197 H 0.52376 0.65948 0.39709 0.0
H2198 H 0.52975 0.6681 0.35512 0.0
H2199 H 0.50025 0.64654 0.36815 0.0
C2200 C 0.38117 0.82931 0.44339 0.0
C2201 C 0.38205 0.84218 0.47104 0.0
C2202 C 0.36334 0.82305 0.42002 0.0
C2203 C 0.34546 0.82909 0.42494 0.0
C2204 C 0.34677 0.84285 0.45227 0.0
C2205 C 0.36527 0.84952 0.47479 0.0
C2206 C 0.36308 0.80903 0.39075 0.0
C2207 C 0.32781 0.84921 0.45885 0.0
C2208 C 0.30555 0.82076 0.35275 0.0
C2209 C 0.28753 0.79712 0.35694 0.0
C2210 C 0.3242 0.83181 0.37525 0.0
C2211 C 0.32442 0.81911 0.40298 0.0
C2212 C 0.30532 0.79579 0.40833 0.0
C2213 C 0.28735 0.78495 0.38498 0.0
C2214 C 0.34443 0.85646 0.36822 0.0
C2215 C 0.30442 0.78183 0.43802 0.0
H2216 H 0.39418 0.82369 0.44038 0.0
H2217 H 0.36573 0.85922 0.49636 0.0
H2218 H 0.34791 0.79063 0.39247 0.0
H2219 H 0.36068 0.817 0.36836 0.0
H2220 H 0.37968 0.80823 0.38853 0.0
H2221 H 0.33267 0.86202 0.47914 0.0
H2222 H 0.3244 0.85691 0.43698 0.0
H2223 H 0.31097 0.83288 0.46509 0.0
H2224 H 0.3059 0.83009 0.33084 0.0
H2225 H 0.2734 0.76669 0.38828 0.0
H2226 H 0.36053 0.85549 0.36211 0.0
H2227 H 0.3487 0.86798 0.38984 0.0
H2228 H 0.3404 0.86491 0.3477 0.0
H2229 H 0.31861 0.77715 0.43661 0.0
H2230 H 0.28709 0.76518 0.44051 0.0
H2231 H 0.30764 0.7927 0.46013 0.0
C2232 C 0.28137 0.1385 0.17532 0.0
C2233 C 0.27619 0.14609 0.14625 0.0
C2234 C 0.30492 0.14758 0.18571 0.0
C2235 C 0.32383 0.16414 0.16609 0.0
C2236 C 0.31868 0.17184 0.13666 0.0
C2237 C 0.29492 0.16299 0.12733 0.0
C2238 C 0.30954 0.13948 0.21774 0.0
C2239 C 0.3383 0.18906 0.11468 0.0
C2240 C 0.3846 0.20465 0.20291 0.0
C2241 C 0.39669 0.19239 0.1961 0.0
C2242 C 0.36075 0.19535 0.19403 0.0
C2243 C 0.34897 0.17373 0.17664 0.0
C2244 C 0.36126 0.1614 0.16936 0.0
C2245 C 0.38488 0.17065 0.1798 0.0
C2246 C 0.34813 0.20862 0.20345 0.0
C2247 C 0.34961 0.13871 0.14997 0.0
H2248 H 0.26694 0.12547 0.19006 0.0
H2249 H 0.29101 0.16868 0.10465 0.0
H2250 H 0.31976 0.13024 0.21388 0.0
H2251 H 0.32044 0.15506 0.23342 0.0
H2252 H 0.29287 0.12727 0.23074 0.0
H2253 H 0.33136 0.1927 0.09215 0.0
H2254 H 0.34944 0.20609 0.12745 0.0
H2255 H 0.34999 0.18185 0.10804 0.0
H2256 H 0.39376 0.2214 0.21577 0.0
H2257 H 0.39436 0.16132 0.17434 0.0
H2258 H 0.33175 0.19674 0.2172 0.0
H2259 H 0.34267 0.21442 0.18146 0.0
H2260 H 0.35943 0.22449 0.21849 0.0
H2261 H 0.33369 0.12498 0.16285 0.0
H2262 H 0.36179 0.13167 0.14548 0.0
H2263 H 0.34356 0.14185 0.12633 0.0
C2264 C 0.8073 0.19725 0.15379 0.0
C2265 C 0.81215 0.2071 0.18491 0.0
C2266 C 0.81667 0.18308 0.14314 0.0
C2267 C 0.83034 0.17779 0.16465 0.0
C2268 C 0.83509 0.18757 0.19626 0.0
C2269 C 0.82633 0.2025 0.20578 0.0
C2270 C 0.812 0.17386 0.10885 0.0
C2271 C 0.84893 0.18179 0.22031 0.0
C2272 C 0.83556 0.12304 0.14638 0.0
C2273 C 0.85895 0.1334 0.13518 0.0
C2274 C 0.82607 0.13727 0.15649 0.0
C2275 C 0.84 0.16234 0.15398 0.0
C2276 C 0.86338 0.17274 0.1416 0.0
C2277 C 0.87272 0.15816 0.13303 0.0
C2278 C 0.80138 0.12551 0.1706 0.0
C2279 C 0.87853 0.19927 0.13727 0.0
H2280 H 0.79632 0.20083 0.13765 0.0
H2281 H 0.82975 0.20981 0.23004 0.0
H2282 H 0.82904 0.1791 0.09642 0.0
H2283 H 0.80156 0.1542 0.10892 0.0
H2284 H 0.80215 0.18066 0.09466 0.0
H2285 H 0.85023 0.19001 0.24433 0.0
H2286 H 0.84033 0.16227 0.22342 0.0
H2287 H 0.86714 0.18809 0.21114 0.0
H2288 H 0.825 0.10388 0.14824 0.0
H2289 H 0.89077 0.16615 0.12406 0.0
H2290 H 0.78986 0.12994 0.15592 0.0
H2291 H 0.80199 0.13233 0.19541 0.0
H2292 H 0.79311 0.1059 0.17171 0.0
H2293 H 0.8689 0.20601 0.12253 0.0
H2294 H 0.89572 0.20439 0.1253 0.0
H2295 H 0.88223 0.20823 0.16112 0.0
C2296 C 0.80507 0.61501 0.16121 0.0
C2297 C 0.79673 0.60935 0.19305 0.0
C2298 C 0.81948 0.63874 0.15149 0.0
C2299 C 0.82662 0.6572 0.17456 0.0
C2300 C 0.81837 0.65149 0.20688 0.0
C2301 C 0.80312 0.62765 0.21557 0.0
C2302 C 0.82701 0.64406 0.11652 0.0
C2303 C 0.82616 0.6705 0.23248 0.0
C2304 C 0.88181 0.71638 0.15414 0.0
C2305 C 0.87179 0.73033 0.14577 0.0
C2306 C 0.86737 0.69269 0.16431 0.0
C2307 C 0.84233 0.68249 0.16474 0.0
C2308 C 0.8322 0.69646 0.15557 0.0
C2309 C 0.84707 0.7203 0.14684 0.0
C2310 C 0.87892 0.67866 0.17496 0.0
C2311 C 0.80563 0.68614 0.15442 0.0
H2312 H 0.80015 0.60081 0.14383 0.0
H2313 H 0.79701 0.62323 0.24035 0.0
H2314 H 0.82198 0.65679 0.10661 0.0
H2315 H 0.84657 0.65253 0.11463 0.0
H2316 H 0.81882 0.62782 0.10127 0.0
H2317 H 0.81892 0.66304 0.25674 0.0
H2318 H 0.84582 0.68059 0.23394 0.0
H2319 H 0.82031 0.6833 0.22594 0.0
H2320 H 0.90093 0.72416 0.15343 0.0
H2321 H 0.83926 0.73099 0.13996 0.0
H2322 H 0.87345 0.6632 0.15875 0.0
H2323 H 0.87292 0.67162 0.19974 0.0
H2324 H 0.89859 0.6895 0.17485 0.0
H2325 H 0.7975 0.67031 0.13844 0.0
H2326 H 0.80059 0.69909 0.14541 0.0
H2327 H 0.79794 0.68019 0.17889 0.0
C2328 C 0.19301 0.3909 0.33878 0.0
C2329 C 0.18891 0.39636 0.30751 0.0
C2330 C 0.18395 0.36723 0.34859 0.0
C2331 C 0.17138 0.34861 0.32612 0.0
C2332 C 0.16732 0.3541 0.29439 0.0
C2333 C 0.17574 0.3779 0.28568 0.0
C2334 C 0.18783 0.36216 0.383 0.0
C2335 C 0.15469 0.33489 0.26938 0.0
C2336 C 0.16817 0.28953 0.34457 0.0
C2337 C 0.14468 0.27574 0.35508 0.0
C2338 C 0.17697 0.31313 0.33428 0.0
C2339 C 0.16221 0.32339 0.33595 0.0
C2340 C 0.13862 0.30958 0.34732 0.0
C2341 C 0.13003 0.28581 0.35608 0.0
C2342 C 0.20194 0.32697 0.32124 0.0
C2343 C 0.12257 0.32 0.35076 0.0
H2344 H 0.20323 0.4052 0.35565 0.0
H2345 H 0.17293 0.38216 0.26131 0.0
H2346 H 0.17058 0.34955 0.39436 0.0
H2347 H 0.19893 0.35364 0.38329 0.0
H2348 H 0.19668 0.37851 0.39798 0.0
H2349 H 0.15364 0.34216 0.24551 0.0
H2350 H 0.16408 0.32473 0.26628 0.0
H2351 H 0.13642 0.32219 0.27761 0.0
H2352 H 0.17945 0.28169 0.34364 0.0
H2353 H 0.11191 0.27521 0.36459 0.0
H2354 H 0.2128 0.34257 0.33686 0.0
H2355 H 0.20172 0.33378 0.29669 0.0
H2356 H 0.21067 0.31606 0.31988 0.0
H2357 H 0.13111 0.33597 0.36647 0.0
H2358 H 0.10505 0.30718 0.3613 0.0
H2359 H 0.11961 0.32576 0.32682 0.0
C2360 C 0.62061 0.78839 0.31784 0.0
C2361 C 0.60733 0.79859 0.30705 0.0
C2362 C 0.6443 0.80277 0.32803 0.0
C2363 C 0.65515 0.82785 0.32605 0.0
C2364 C 0.64187 0.8381 0.31432 0.0
C2365 C 0.61802 0.82336 0.30561 0.0
C2366 C 0.65758 0.79116 0.34141 0.0
C2367 C 0.65293 0.86464 0.31055 0.0
C2368 C 0.70986 0.86838 0.37624 0.0
C2369 C 0.72824 0.87327 0.35446 0.0
C2370 C 0.68601 0.85319 0.36758 0.0
C2371 C 0.68041 0.84344 0.33596 0.0
C2372 C 0.69897 0.849 0.31359 0.0
C2373 C 0.72267 0.86344 0.32334 0.0
C2374 C 0.66684 0.84713 0.39247 0.0
C2375 C 0.6938 0.83981 0.27928 0.0
H2376 H 0.61228 0.76923 0.31915 0.0
H2377 H 0.60779 0.83125 0.29694 0.0
H2378 H 0.67324 0.79559 0.32608 0.0
H2379 H 0.66426 0.79807 0.36604 0.0
H2380 H 0.64632 0.77154 0.34271 0.0
H2381 H 0.6405 0.86971 0.29962 0.0
H2382 H 0.65867 0.87343 0.33446 0.0
H2383 H 0.66898 0.87164 0.29507 0.0
H2384 H 0.7142 0.87568 0.40048 0.0
H2385 H 0.73691 0.86725 0.30648 0.0
H2386 H 0.65619 0.82759 0.39559 0.0
H2387 H 0.65456 0.8532 0.38412 0.0
H2388 H 0.67419 0.85537 0.41636 0.0
H2389 H 0.68469 0.82015 0.27927 0.0
H2390 H 0.71017 0.84672 0.26444 0.0
H2391 H 0.68167 0.84494 0.26759 0.0
C2392 C 0.20029 0.81333 0.33727 0.0
C2393 C 0.20833 0.81576 0.30531 0.0
C2394 C 0.18608 0.82283 0.34714 0.0
C2395 C 0.17882 0.83406 0.3241 0.0
C2396 C 0.18677 0.83634 0.29165 0.0
C2397 C 0.20185 0.82759 0.28281 0.0
C2398 C 0.17889 0.8209 0.38223 0.0
C2399 C 0.17881 0.84743 0.26609 0.0
C2400 C 0.12385 0.83809 0.3456 0.0
C2401 C 0.13393 0.86209 0.35381 0.0
C2402 C 0.13818 0.82882 0.33505 0.0
C2403 C 0.16321 0.84371 0.33408 0.0
C2404 C 0.17341 0.86786 0.34304 0.0
C2405 C 0.15863 0.87684 0.35214 0.0
C2406 C 0.12654 0.80319 0.32462 0.0
C2407 C 0.19999 0.88414 0.34365 0.0
H2408 H 0.2053 0.80412 0.35464 0.0
H2409 H 0.20775 0.82908 0.25794 0.0
H2410 H 0.184 0.83874 0.39193 0.0
H2411 H 0.15935 0.8098 0.38448 0.0
H2412 H 0.18723 0.81299 0.39743 0.0
H2413 H 0.18588 0.84709 0.24176 0.0
H2414 H 0.15913 0.83784 0.26488 0.0
H2415 H 0.1847 0.86612 0.27249 0.0
H2416 H 0.10474 0.82671 0.34675 0.0
H2417 H 0.16648 0.89536 0.35887 0.0
H2418 H 0.13208 0.79326 0.34083 0.0
H2419 H 0.13237 0.80201 0.29979 0.0
H2420 H 0.10686 0.79437 0.32497 0.0
H2421 H 0.20829 0.8766 0.35959 0.0
H2422 H 0.20512 0.90222 0.35242 0.0
H2423 H 0.20744 0.88568 0.31907 0.0
C2424 C 0.72636 0.86245 0.82081 0.0
C2425 C 0.73162 0.85845 0.85225 0.0
C2426 C 0.70274 0.85335 0.8107 0.0
C2427 C 0.68398 0.84087 0.83303 0.0
C2428 C 0.6893 0.83703 0.86496 0.0
C2429 C 0.71304 0.84545 0.87398 0.0
C2430 C 0.69785 0.85696 0.77608 0.0
C2431 C 0.66995 0.82451 0.88984 0.0
C2432 C 0.62439 0.83649 0.81445 0.0
C2433 C 0.61076 0.81277 0.80481 0.0
C2434 C 0.64819 0.84584 0.82416 0.0
C2435 C 0.65879 0.83137 0.82284 0.0
C2436 C 0.64518 0.8076 0.81207 0.0
C2437 C 0.62124 0.79848 0.80385 0.0
C2438 C 0.66182 0.87101 0.83654 0.0
C2439 C 0.65594 0.7918 0.80902 0.0
H2440 H 0.74077 0.87254 0.80402 0.0
H2441 H 0.71714 0.8427 0.89847 0.0
H2442 H 0.68556 0.83959 0.76478 0.0
H2443 H 0.68903 0.86777 0.77532 0.0
H2444 H 0.71432 0.86598 0.76134 0.0
H2445 H 0.67712 0.82396 0.91402 0.0
H2446 H 0.65947 0.83364 0.89214 0.0
H2447 H 0.65757 0.80605 0.88199 0.0
H2448 H 0.61623 0.84749 0.81537 0.0
H2449 H 0.61075 0.78017 0.79605 0.0
H2450 H 0.67761 0.8817 0.82116 0.0
H2451 H 0.66832 0.87116 0.86141 0.0
H2452 H 0.65085 0.87971 0.83695 0.0
H2453 H 0.67211 0.80055 0.79373 0.0
H2454 H 0.64339 0.77427 0.79827 0.0
H2455 H 0.66141 0.78884 0.83318 0.0
C2456 C 0.2059 0.82446 0.80266 0.0
C2457 C 0.19187 0.79971 0.80481 0.0
C2458 C 0.19692 0.83928 0.81154 0.0
C2459 C 0.17365 0.82916 0.82423 0.0
C2460 C 0.15947 0.8041 0.82679 0.0
C2461 C 0.1686 0.78963 0.81637 0.0
C2462 C 0.21231 0.86578 0.80715 0.0
C2463 C 0.13488 0.79263 0.84118 0.0
C2464 C 0.16067 0.86975 0.87622 0.0
C2465 C 0.14652 0.87448 0.85547 0.0
C2466 C 0.16925 0.85468 0.86659 0.0
C2467 C 0.1643 0.84485 0.835 0.0
C2468 C 0.15069 0.8503 0.81359 0.0
C2469 C 0.14155 0.86464 0.82433 0.0
C2470 C 0.18306 0.84877 0.8905 0.0
C2471 C 0.14581 0.84103 0.77933 0.0
H2472 H 0.22385 0.83224 0.7934 0.0
H2473 H 0.15784 0.77049 0.81824 0.0
H2474 H 0.20279 0.87267 0.79244 0.0
H2475 H 0.21615 0.87478 0.83097 0.0
H2476 H 0.22942 0.8707 0.7951 0.0
H2477 H 0.12643 0.773 0.84243 0.0
H2478 H 0.13572 0.79958 0.86597 0.0
H2479 H 0.12339 0.79716 0.8266 0.0
H2480 H 0.16421 0.87706 0.90049 0.0
H2481 H 0.1306 0.86831 0.80827 0.0
H2482 H 0.20116 0.85478 0.8811 0.0
H2483 H 0.17425 0.82925 0.89379 0.0
H2484 H 0.18464 0.85715 0.91448 0.0
H2485 H 0.16275 0.84603 0.76678 0.0
H2486 H 0.13607 0.84799 0.7652 0.0
H2487 H 0.13516 0.82137 0.77947 0.0
C2488 C 0.21481 0.37954 0.81597 0.0
C2489 C 0.20458 0.39317 0.80696 0.0
C2490 C 0.2005 0.35573 0.82571 0.0
C2491 C 0.17541 0.34512 0.82507 0.0
C2492 C 0.16509 0.35874 0.81499 0.0
C2493 C 0.1798 0.38269 0.80672 0.0
C2494 C 0.2122 0.34208 0.83734 0.0
C2495 C 0.1385 0.34797 0.8127 0.0
C2496 C 0.13906 0.27755 0.82277 0.0
C2497 C 0.1303 0.27216 0.85445 0.0
C2498 C 0.15333 0.30122 0.81267 0.0
C2499 C 0.15986 0.31989 0.83522 0.0
C2500 C 0.15118 0.31445 0.86737 0.0
C2501 C 0.1361 0.29067 0.87641 0.0
C2502 C 0.16133 0.30624 0.77785 0.0
C2503 C 0.1583 0.33372 0.89246 0.0
H2504 H 0.23397 0.3877 0.81633 0.0
H2505 H 0.17187 0.39318 0.79938 0.0
H2506 H 0.20614 0.33545 0.86225 0.0
H2507 H 0.20695 0.32637 0.82172 0.0
H2508 H 0.23187 0.35308 0.83735 0.0
H2509 H 0.13336 0.36056 0.80251 0.0
H2510 H 0.13088 0.33188 0.79723 0.0
H2511 H 0.1304 0.34236 0.83701 0.0
H2512 H 0.13457 0.26321 0.8058 0.0
H2513 H 0.12966 0.28647 0.90108 0.0
H2514 H 0.18094 0.31503 0.77653 0.0
H2515 H 0.15612 0.3186 0.76709 0.0
H2516 H 0.15363 0.28983 0.76297 0.0
H2517 H 0.17793 0.34417 0.89437 0.0
H2518 H 0.15084 0.32647 0.91671 0.0
H2519 H 0.15217 0.34615 0.88507 0.0
C2520 C 0.84332 0.71003 0.61539 0.0
C2521 C 0.85658 0.72856 0.63709 0.0
C2522 C 0.83478 0.68623 0.62432 0.0
C2523 C 0.83885 0.68083 0.65609 0.0
C2524 C 0.85159 0.69953 0.67839 0.0
C2525 C 0.86072 0.72318 0.66839 0.0
C2526 C 0.82194 0.66692 0.5995 0.0
C2527 C 0.85551 0.69458 0.71284 0.0
C2528 C 0.79677 0.61841 0.6867 0.0
C2529 C 0.81105 0.60793 0.68576 0.0
C2530 C 0.80574 0.6422 0.67774 0.0
C2531 C 0.82933 0.65562 0.66625 0.0
C2532 C 0.84374 0.64496 0.66472 0.0
C2533 C 0.83457 0.62134 0.67519 0.0
C2534 C 0.79006 0.65306 0.68106 0.0
C2535 C 0.86871 0.65838 0.65159 0.0
H2536 H 0.84045 0.7142 0.591 0.0
H2537 H 0.871 0.73753 0.68517 0.0
H2538 H 0.83104 0.65646 0.59668 0.0
H2539 H 0.80359 0.65451 0.60776 0.0
H2540 H 0.82106 0.67412 0.5755 0.0
H2541 H 0.86471 0.71102 0.72759 0.0
H2542 H 0.83824 0.68232 0.72441 0.0
H2543 H 0.86628 0.68571 0.71318 0.0
H2544 H 0.77863 0.60811 0.69525 0.0
H2545 H 0.84555 0.61317 0.67432 0.0
H2546 H 0.78711 0.65871 0.65702 0.0
H2547 H 0.7989 0.66915 0.69649 0.0
H2548 H 0.77252 0.64054 0.69182 0.0
H2549 H 0.86856 0.665 0.62689 0.0
H2550 H 0.87719 0.64723 0.65054 0.0
H2551 H 0.87976 0.67408 0.66694 0.0
C2552 C 0.29266 0.13458 0.62682 0.0
C2553 C 0.2739 0.13019 0.6476 0.0
C2554 C 0.31636 0.14976 0.63614 0.0
C2555 C 0.3214 0.16005 0.66744 0.0
C2556 C 0.30245 0.15496 0.6889 0.0
C2557 C 0.27892 0.14048 0.67846 0.0
C2558 C 0.33596 0.15525 0.61218 0.0
C2559 C 0.30703 0.16476 0.72289 0.0
C2560 C 0.3835 0.18045 0.69913 0.0
C2561 C 0.39443 0.20516 0.69609 0.0
C2562 C 0.35958 0.16566 0.69086 0.0
C2563 C 0.3465 0.17576 0.67789 0.0
C2564 C 0.35755 0.20078 0.67453 0.0
C2565 C 0.38131 0.21525 0.68434 0.0
C2566 C 0.34829 0.13922 0.6961 0.0
C2567 C 0.34447 0.21219 0.65981 0.0
H2568 H 0.28878 0.12693 0.60276 0.0
H2569 H 0.26438 0.13708 0.69454 0.0
H2570 H 0.34677 0.17472 0.60845 0.0
H2571 H 0.34799 0.14924 0.62181 0.0
H2572 H 0.32903 0.14659 0.58839 0.0
H2573 H 0.29041 0.15812 0.73709 0.0
H2574 H 0.31893 0.15983 0.7357 0.0
H2575 H 0.31617 0.18441 0.72219 0.0
H2576 H 0.39364 0.17268 0.70855 0.0
H2577 H 0.38986 0.23437 0.68181 0.0
H2578 H 0.34301 0.12984 0.67254 0.0
H2579 H 0.33194 0.13268 0.71085 0.0
H2580 H 0.36044 0.13438 0.70847 0.0
H2581 H 0.33829 0.205 0.63514 0.0
H2582 H 0.35573 0.2318 0.6582 0.0
H2583 H 0.32851 0.20787 0.67439 0.0
C2584 C 0.88052 0.16327 0.65781 0.0
C2585 C 0.87103 0.13939 0.64927 0.0
C2586 C 0.86573 0.17189 0.66868 0.0
C2587 C 0.84079 0.15647 0.66965 0.0
C2588 C 0.83117 0.13235 0.6608 0.0
C2589 C 0.84644 0.12403 0.65134 0.0
C2590 C 0.87678 0.1975 0.67899 0.0
C2591 C 0.8047 0.11552 0.66026 0.0
C2592 C 0.80167 0.17288 0.71931 0.0
C2593 C 0.79536 0.1845 0.69622 0.0
C2594 C 0.81666 0.16387 0.71114 0.0
C2595 C 0.82471 0.16572 0.67881 0.0
C2596 C 0.81751 0.17661 0.65516 0.0
C2597 C 0.80337 0.18634 0.66433 0.0
C2598 C 0.82456 0.15316 0.7373 0.0
C2599 C 0.82485 0.17812 0.6202 0.0
H2600 H 0.89954 0.17513 0.65636 0.0
H2601 H 0.83904 0.10559 0.64435 0.0
H2602 H 0.87137 0.2072 0.66215 0.0
H2603 H 0.87036 0.19862 0.70345 0.0
H2604 H 0.89647 0.20659 0.67944 0.0
H2605 H 0.80006 0.09734 0.65261 0.0
H2606 H 0.79703 0.11448 0.68457 0.0
H2607 H 0.79618 0.12227 0.64337 0.0
H2608 H 0.79578 0.17182 0.74411 0.0
H2609 H 0.79847 0.19535 0.6465 0.0
H2610 H 0.8442 0.16327 0.73928 0.0
H2611 H 0.81938 0.13462 0.73101 0.0
H2612 H 0.81685 0.15319 0.76127 0.0
H2613 H 0.84436 0.18958 0.61802 0.0
H2614 H 0.81625 0.18545 0.60442 0.0
H2615 H 0.82021 0.16025 0.61114 0.0
C2616 C 0.05675 0.52545 0.49257 0.0
C2617 C 0.06215 0.52192 0.52416 0.0
C2618 C 0.03309 0.51619 0.48256 0.0
C2619 C 0.01444 0.50404 0.50514 0.0
C2620 C 0.01989 0.50064 0.53721 0.0
C2621 C 0.04367 0.50921 0.54615 0.0
C2622 C 0.02807 0.51934 0.44781 0.0
C2623 C 1.00065 0.4885 0.56232 0.0
C2624 C 0.95516 0.49997 0.48541 0.0
C2625 C 0.94147 0.47622 0.47591 0.0
C2626 C 0.97881 0.50917 0.49569 0.0
C2627 C 0.98923 0.49452 0.49505 0.0
C2628 C 0.97553 0.47067 0.48466 0.0
C2629 C 0.95171 0.4617 0.47588 0.0
C2630 C 0.99254 0.53444 0.50767 0.0
C2631 C 0.98611 0.45469 0.48232 0.0
H2632 H 0.07108 0.53531 0.47558 0.0
H2633 H 0.04789 0.50685 0.57076 0.0
H2634 H 0.0156 0.50184 0.43698 0.0
H2635 H 0.01941 0.53029 0.44669 0.0
H2636 H 0.04445 0.52801 0.43288 0.0
H2637 H 0.0079 0.48811 0.5865 0.0
H2638 H 0.99033 0.4978 0.56446 0.0
H2639 H 0.98809 0.47 0.55481 0.0
H2640 H 0.9472 0.51115 0.48556 0.0
H2641 H 0.94119 0.44338 0.46813 0.0
H2642 H 0.00816 0.545 0.49194 0.0
H2643 H 0.9993 0.53483 0.53245 0.0
H2644 H 0.98156 0.54312 0.50813 0.0
H2645 H 0.00212 0.46303 0.46669 0.0
H2646 H 0.9734 0.43695 0.47228 0.0
H2647 H 0.99182 0.45223 0.50659 0.0
C2648 C 0.47603 0.53215 0.49307 0.0
C2649 C 0.48004 0.54165 0.52437 0.0
C2650 C 0.48553 0.51797 0.48307 0.0
C2651 C 0.49848 0.5123 0.50538 0.0
C2652 C 0.5024 0.52174 0.53716 0.0
C2653 C 0.49352 0.5367 0.54607 0.0
C2654 C 0.48176 0.50912 0.4486 0.0
C2655 C 0.51544 0.51554 0.562 0.0
C2656 C 0.50344 0.45741 0.48706 0.0
C2657 C 0.52703 0.46769 0.47674 0.0
C2658 C 0.494 0.4717 0.49706 0.0
C2659 C 0.50822 0.49679 0.49533 0.0
C2660 C 0.53186 0.50713 0.48398 0.0
C2661 C 0.5411 0.49247 0.47549 0.0
C2662 C 0.46898 0.45999 0.51005 0.0
C2663 C 0.54734 0.53369 0.48048 0.0
H2664 H 0.46559 0.536 0.47629 0.0
H2665 H 0.49629 0.54373 0.57045 0.0
H2666 H 0.4991 0.51431 0.43711 0.0
H2667 H 0.47116 0.48947 0.44823 0.0
H2668 H 0.47246 0.51623 0.43381 0.0
H2669 H 0.51621 0.52359 0.58599 0.0
H2670 H 0.50655 0.49598 0.56486 0.0
H2671 H 0.53382 0.52169 0.55374 0.0
H2672 H 0.49263 0.43824 0.48822 0.0
H2673 H 0.55931 0.50041 0.46717 0.0
H2674 H 0.4579 0.46459 0.49467 0.0
H2675 H 0.46902 0.46668 0.53476 0.0
H2676 H 0.46059 0.44036 0.51103 0.0
H2677 H 0.53833 0.54077 0.46507 0.0
H2678 H 0.56488 0.53883 0.46961 0.0
H2679 H 0.55031 0.54234 0.50448 0.0
C2680 C 0.51356 0.04949 0.47357 0.0
C2681 C 0.5383 0.05981 0.47479 0.0
C2682 C 0.49858 0.02565 0.48208 0.0
C2683 C 0.50856 0.01201 0.49338 0.0
C2684 C 0.5336 0.02248 0.49507 0.0
C2685 C 0.54822 0.04617 0.48507 0.0
C2686 C 0.47206 0.01499 0.47864 0.0
C2687 C 0.54493 0.0088 0.50799 0.0
C2688 C 0.46791 0.95759 0.54392 0.0
C2689 C 0.46263 0.93912 0.52212 0.0
C2690 C 0.48324 0.98138 0.53511 0.0
C2691 C 0.49271 0.98682 0.50334 0.0
C2692 C 0.4867 0.96818 0.48093 0.0
C2693 C 0.47215 0.94453 0.49083 0.0
C2694 C 0.48979 1.00063 0.56005 0.0
C2695 C 0.49558 0.97321 0.44647 0.0
H2696 H 0.5059 0.06001 0.46528 0.0
H2697 H 0.56736 0.05424 0.4862 0.0
H2698 H 0.46473 0.99891 0.46317 0.0
H2699 H 0.46341 0.00938 0.50265 0.0
H2700 H 0.46722 0.02764 0.46787 0.0
H2701 H 0.56459 0.01976 0.50895 0.0
H2702 H 0.53818 0.00219 0.5327 0.0
H2703 H 0.54006 0.99307 0.49257 0.0
H2704 H 0.46086 0.95335 0.5683 0.0
H2705 H 0.46804 0.93021 0.47398 0.0
H2706 H 0.48397 0.01315 0.55188 0.0
H2707 H 0.50936 0.01099 0.56292 0.0
H2708 H 0.48165 0.99338 0.58401 0.0
H2709 H 0.49069 0.98561 0.43505 0.0
H2710 H 0.48822 0.95682 0.43161 0.0
H2711 H 0.51521 0.98196 0.44611 0.0
C2712 C 0.51115 0.04639 0.95785 0.0
C2713 C 0.52487 0.06495 0.97928 0.0
C2714 C 0.50265 0.0226 0.96673 0.0
C2715 C 0.50723 0.01722 0.99823 0.0
C2716 C 0.52043 0.03595 0.02031 0.0
C2717 C 0.52951 0.0596 0.01033 0.0
C2718 C 0.48928 0.00327 0.94212 0.0
C2719 C 0.52491 0.03101 0.05449 0.0
C2720 C 0.46534 0.9546 0.02836 0.0
C2721 C 0.47943 0.94396 0.02608 0.0
C2722 C 0.47438 0.97856 0.02026 0.0
C2723 C 0.49783 0.992 0.00824 0.0
C2724 C 0.51209 0.98123 0.00558 0.0
C2725 C 0.50286 0.95742 0.0152 0.0
C2726 C 0.45887 0.9895 0.02474 0.0
C2727 C 0.53689 0.99468 0.99188 0.0
H2728 H 0.50788 0.05053 0.93365 0.0
H2729 H 0.54013 0.07396 0.02692 0.0
H2730 H 0.49822 0.9927 0.93874 0.0
H2731 H 0.47106 0.99096 0.95093 0.0
H2732 H 0.48803 0.01045 0.91829 0.0
H2733 H 0.53442 0.04747 0.06915 0.0
H2734 H 0.50783 0.01881 0.06655 0.0
H2735 H 0.53562 0.02207 0.05423 0.0
H2736 H 0.44726 0.94423 0.0371 0.0
H2737 H 0.51369 0.94912 0.01325 0.0
H2738 H 0.45531 0.99504 0.001 0.0
H2739 H 0.46814 0.00567 0.03997 0.0
H2740 H 0.44161 0.97706 0.03627 0.0
H2741 H 0.53637 1.00116 0.96723 0.0
H2742 H 0.54542 0.98358 0.99053 0.0
H2743 H 0.5481 0.01047 0.007 0.0
C2744 C 0.95819 0.46741 0.95428 0.0
C2745 C 0.93933 0.46191 0.97546 0.0
C2746 C 0.98181 0.48277 0.96378 0.0
C2747 C 0.9867 0.49211 0.99564 0.0
C2748 C 0.96767 0.48589 0.01744 0.0
C2749 C 0.94419 0.47129 0.00685 0.0
C2750 C 1.00147 0.4895 0.93946 0.0
C2751 C 0.97211 0.49461 0.05198 0.0
C2752 C 0.04911 0.51298 0.02662 0.0
C2753 C 0.0595 0.53773 0.02521 0.0
C2754 C 0.02529 0.498 0.01797 0.0
C2755 C 0.01174 0.50798 0.0063 0.0
C2756 C 0.02225 0.53304 0.00456 0.0
C2757 C 0.04591 0.54766 0.01471 0.0
C2758 C 0.0146 0.47148 0.02147 0.0
C2759 C 0.00868 0.54437 0.99127 0.0
H2760 H 0.9544 0.46048 0.92981 0.0
H2761 H 0.92958 0.46704 0.02323 0.0
H2762 H 0.01186 0.50909 0.93683 0.0
H2763 H 0.01386 0.48365 0.94808 0.0
H2764 H 0.99464 0.48152 0.9153 0.0
H2765 H 0.95547 0.48714 0.06633 0.0
H2766 H 0.98435 0.48972 0.06388 0.0
H2767 H 0.98079 0.51424 0.05247 0.0
H2768 H 0.05957 0.5053 0.03509 0.0
H2769 H 0.05402 0.5668 0.01344 0.0
H2770 H 0.00945 0.46287 0.99739 0.0
H2771 H 0.99825 0.46409 0.03637 0.0
H2772 H 0.02707 0.46666 0.03287 0.0
H2773 H 0.00253 0.53785 0.96634 0.0
H2774 H 0.01956 0.56404 0.99069 0.0
H2775 H 0.99266 0.53926 0.00617 0.0
C2776 C 0.53718 0.49343 0.95705 0.0
C2777 C 0.54224 0.47982 0.97838 0.0
C2778 C 0.5218 0.50175 0.96612 0.0
C2779 C 0.512 0.49713 0.99772 0.0
C2780 C 0.51774 0.48403 0.01968 0.0
C2781 C 0.53239 0.47511 0.0095 0.0
C2782 C 0.51558 0.515 0.94164 0.0
C2783 C 0.50851 0.47953 0.05397 0.0
C2784 C 0.49121 0.5388 0.02835 0.0
C2785 C 0.46647 0.52459 0.02637 0.0
C2786 C 0.50615 0.52987 0.01996 0.0
C2787 C 0.49616 0.50642 0.00798 0.0
C2788 C 0.47112 0.49204 0.00559 0.0
C2789 C 0.45652 0.50115 0.01549 0.0
C2790 C 0.53263 0.5455 0.02413 0.0
C2791 C 0.4598 0.46723 0.99193 0.0
H2792 H 0.54449 0.49675 0.9328 0.0
H2793 H 0.53631 0.46457 0.026 0.0
H2794 H 0.49603 0.50597 0.93852 0.0
H2795 H 0.52148 0.53322 0.9504 0.0
H2796 H 0.52386 0.51623 0.91768 0.0
H2797 H 0.51559 0.47009 0.06849 0.0
H2798 H 0.5134 0.49662 0.06605 0.0
H2799 H 0.48886 0.46877 0.05391 0.0
H2800 H 0.49889 0.55687 0.03712 0.0
H2801 H 0.43739 0.49024 0.01379 0.0
H2802 H 0.54158 0.54904 0.00028 0.0
H2803 H 0.53969 0.53633 0.03925 0.0
H2804 H 0.53745 0.56277 0.03563 0.0
H2805 H 0.46669 0.46775 0.9672 0.0
H2806 H 0.44015 0.45861 0.99077 0.0
H2807 H 0.46451 0.45608 0.00696 0.0
loop_
_geom_bond_atom_site_label_1
_geom_bond_atom_site_label_2
_geom_bond_distance
_geom_bond_site_symmetry_2
_ccdc_geom_bond_type
Co0 O1 2.216 . S
Co0 O2 2.091 . S
Co0 O4 2.004 . S
Co0 O10 2.021 . S
Co0 O12 2.137 . S
Co0 O13 2.244 . S
O1 Co0 2.216 . S
O1 C8 1.247 . S
O2 Co0 2.091 . S
O2 C8 1.261 . S
C3 O12 1.247 . S
C3 O13 1.272 . S
O4 Co0 2.004 . S
O4 C9 1.259 . S
Co5 O6 2.061 . S
Co5 O11 2.052 . S
Co5 O13 2.135 . S
O6 Co5 2.061 . S
O6 C9 1.235 . S
C7 O10 1.238 . S
C7 O11 1.241 . S
C8 O1 1.247 . S
C8 O2 1.261 . S
C9 O4 1.259 . S
C9 O6 1.235 . S
O10 Co0 2.021 . S
O10 C7 1.238 . S
O11 Co5 2.052 . S
O11 C7 1.241 . S
O12 Co0 2.137 . S
O12 C3 1.247 . S
O13 Co0 2.244 . S
O13 C3 1.272 . S
O13 Co5 2.135 . S
Co14 O15 2.216 . S
Co14 O16 2.091 . S
Co14 O18 2.004 . S
Co14 O24 2.021 . S
Co14 O26 2.137 . S
Co14 O27 2.244 . S
O15 Co14 2.216 . S
O15 C22 1.247 . S
O16 Co14 2.091 . S
O16 C22 1.261 . S
C17 O26 1.247 . S
C17 O27 1.272 . S
O18 Co14 2.004 . S
O18 C23 1.259 . S
Co19 O20 2.061 . S
Co19 O25 2.052 . S
Co19 O27 2.135 . S
O20 Co19 2.061 . S
O20 C23 1.235 . S
C21 O24 1.238 . S
C21 O25 1.241 . S
C22 O15 1.247 . S
C22 O16 1.261 . S
C23 O18 1.259 . S
C23 O20 1.235 . S
O24 Co14 2.021 . S
O24 C21 1.238 . S
O25 Co19 2.052 . S
O25 C21 1.241 . S
O26 Co14 2.137 . S
O26 C17 1.247 . S
O27 Co14 2.244 . S
O27 C17 1.272 . S
O27 Co19 2.135 . S
Co28 O29 2.216 . S
Co28 O30 2.091 . S
Co28 O32 2.004 . S
Co28 O38 2.021 . S
Co28 O40 2.137 . S
Co28 O41 2.244 . S
O29 Co28 2.216 . S
O29 C36 1.247 . S
O30 Co28 2.091 . S
O30 C36 1.261 . S
C31 O40 1.247 . S
C31 O41 1.272 . S
O32 Co28 2.004 . S
O32 C37 1.259 . S
Co33 O34 2.061 . S
Co33 O39 2.052 . S
Co33 O41 2.135 . S
O34 Co33 2.061 . S
O34 C37 1.235 . S
C35 O38 1.238 . S
C35 O39 1.241 . S
C36 O29 1.247 . S
C36 O30 1.261 . S
C37 O32 1.259 . S
C37 O34 1.235 . S
O38 Co28 2.021 . S
O38 C35 1.238 . S
O39 Co33 2.052 . S
O39 C35 1.241 . S
O40 Co28 2.137 . S
O40 C31 1.247 . S
O41 Co28 2.244 . S
O41 C31 1.272 . S
O41 Co33 2.135 . S
Co42 O43 2.216 . S
Co42 O44 2.091 . S
Co42 O46 2.004 . S
Co42 O52 2.021 . S
Co42 O54 2.137 . S
Co42 O55 2.244 . S
O43 Co42 2.216 . S
O43 C50 1.247 . S
O44 Co42 2.091 . S
O44 C50 1.261 . S
C45 O54 1.247 . S
C45 O55 1.272 . S
O46 Co42 2.004 . S
O46 C51 1.259 . S
Co47 O48 2.061 . S
Co47 O53 2.052 . S
Co47 O55 2.135 . S
O48 Co47 2.061 . S
O48 C51 1.235 . S
C49 O52 1.238 . S
C49 O53 1.241 . S
C50 O43 1.247 . S
C50 O44 1.261 . S
C51 O46 1.259 . S
C51 O48 1.235 . S
O52 Co42 2.021 . S
O52 C49 1.238 . S
O53 Co47 2.052 . S
O53 C49 1.241 . S
O54 Co42 2.137 . S
O54 C45 1.247 . S
O55 Co42 2.244 . S
O55 C45 1.272 . S
O55 Co47 2.135 . S
Co56 O57 2.216 . S
Co56 O58 2.091 . S
Co56 O60 2.004 . S
Co56 O66 2.021 . S
Co56 O68 2.137 . S
Co56 O69 2.244 . S
O57 Co56 2.216 . S
O57 C64 1.247 . S
O58 Co56 2.091 . S
O58 C64 1.261 . S
C59 O68 1.247 . S
C59 O69 1.272 . S
O60 Co56 2.004 . S
O60 C65 1.259 . S
Co61 O62 2.061 . S
Co61 O67 2.052 . S
Co61 O69 2.135 . S
O62 Co61 2.061 . S
O62 C65 1.235 . S
C63 O66 1.238 . S
C63 O67 1.241 . S
C64 O57 1.247 . S
C64 O58 1.261 . S
C65 O60 1.259 . S
C65 O62 1.235 . S
O66 Co56 2.021 . S
O66 C63 1.238 . S
O67 Co61 2.052 . S
O67 C63 1.241 . S
O68 Co56 2.137 . S
O68 C59 1.247 . S
O69 Co56 2.244 . S
O69 C59 1.272 . S
O69 Co61 2.135 . S
Co70 O71 2.216 . S
Co70 O72 2.091 . S
Co70 O74 2.004 . S
Co70 O80 2.021 . S
Co70 O82 2.137 . S
Co70 O83 2.244 . S
O71 Co70 2.216 . S
O71 C78 1.247 . S
O72 Co70 2.091 . S
O72 C78 1.261 . S
C73 O82 1.247 . S
C73 O83 1.272 . S
O74 Co70 2.004 . S
O74 C79 1.259 . S
Co75 O76 2.061 . S
Co75 O81 2.052 . S
Co75 O83 2.135 . S
O76 Co75 2.061 . S
O76 C79 1.235 . S
C77 O80 1.238 . S
C77 O81 1.241 . S
C78 O71 1.247 . S
C78 O72 1.261 . S
C79 O74 1.259 . S
C79 O76 1.235 . S
O80 Co70 2.021 . S
O80 C77 1.238 . S
O81 Co75 2.052 . S
O81 C77 1.241 . S
O82 Co70 2.137 . S
O82 C73 1.247 . S
O83 Co70 2.244 . S
O83 C73 1.272 . S
O83 Co75 2.135 . S
Co84 O85 2.216 . S
Co84 O86 2.091 . S
Co84 O88 2.004 . S
Co84 O94 2.021 . S
Co84 O96 2.137 . S
Co84 O97 2.244 . S
O85 Co84 2.216 . S
O85 C92 1.247 . S
O86 Co84 2.091 . S
O86 C92 1.261 . S
C87 O96 1.247 . S
C87 O97 1.272 . S
O88 Co84 2.004 . S
O88 C93 1.259 . S
Co89 O90 2.061 . S
Co89 O95 2.052 . S
Co89 O97 2.135 . S
O90 Co89 2.061 . S
O90 C93 1.235 . S
C91 O94 1.238 . S
C91 O95 1.241 . S
C92 O85 1.247 . S
C92 O86 1.261 . S
C93 O88 1.259 . S
C93 O90 1.235 . S
O94 Co84 2.021 . S
O94 C91 1.238 . S
O95 Co89 2.052 . S
O95 C91 1.241 . S
O96 Co84 2.137 . S
O96 C87 1.247 . S
O97 Co84 2.244 . S
O97 C87 1.272 . S
O97 Co89 2.135 . S
Co98 O99 2.216 . S
Co98 O100 2.091 . S
Co98 O102 2.004 . S
Co98 O108 2.021 . S
Co98 O110 2.137 . S
Co98 O111 2.244 . S
O99 Co98 2.216 . S
O99 C106 1.247 . S
O100 Co98 2.091 . S
O100 C106 1.261 . S
C101 O110 1.247 . S
C101 O111 1.272 . S
O102 Co98 2.004 . S
O102 C107 1.259 . S
Co103 O104 2.061 . S
Co103 O109 2.052 . S
Co103 O111 2.135 . S
O104 Co103 2.061 . S
O104 C107 1.235 . S
C105 O108 1.238 . S
C105 O109 1.241 . S
C106 O99 1.247 . S
C106 O100 1.261 . S
C107 O102 1.259 . S
C107 O104 1.235 . S
O108 Co98 2.021 . S
O108 C105 1.238 . S
O109 Co103 2.052 . S
O109 C105 1.241 . S
O110 Co98 2.137 . S
O110 C101 1.247 . S
O111 Co98 2.244 . S
O111 C101 1.272 . S
O111 Co103 2.135 . S
Co112 O113 2.216 . S
Co112 O114 2.091 . S
Co112 O116 2.004 . S
Co112 O122 2.021 . S
Co112 O124 2.137 . S
Co112 O125 2.244 . S
O113 Co112 2.216 . S
O113 C120 1.247 . S
O114 Co112 2.091 . S
O114 C120 1.261 . S
C115 O124 1.247 . S
C115 O125 1.272 . S
O116 Co112 2.004 . S
O116 C121 1.259 . S
Co117 O118 2.061 . S
Co117 O123 2.052 . S
Co117 O125 2.135 . S
O118 Co117 2.061 . S
O118 C121 1.235 . S
C119 O122 1.238 . S
C119 O123 1.241 . S
C120 O113 1.247 . S
C120 O114 1.261 . S
C121 O116 1.259 . S
C121 O118 1.235 . S
O122 Co112 2.021 . S
O122 C119 1.238 . S
O123 Co117 2.052 . S
O123 C119 1.241 . S
O124 Co112 2.137 . S
O124 C115 1.247 . S
O125 Co112 2.244 . S
O125 C115 1.272 . S
O125 Co117 2.135 . S
Co126 O127 2.216 . S
Co126 O128 2.091 . S
Co126 O130 2.004 . S
Co126 O136 2.021 . S
Co126 O138 2.137 . S
Co126 O139 2.244 . S
O127 Co126 2.216 . S
O127 C134 1.247 . S
O128 Co126 2.091 . S
O128 C134 1.261 . S
C129 O138 1.247 . S
C129 O139 1.272 . S
O130 Co126 2.004 . S
O130 C135 1.259 . S
Co131 O132 2.061 . S
Co131 O137 2.052 . S
Co131 O139 2.135 . S
O132 Co131 2.061 . S
O132 C135 1.235 . S
C133 O136 1.238 . S
C133 O137 1.241 . S
C134 O127 1.247 . S
C134 O128 1.261 . S
C135 O130 1.259 . S
C135 O132 1.235 . S
O136 Co126 2.021 . S
O136 C133 1.238 . S
O137 Co131 2.052 . S
O137 C133 1.241 . S
O138 Co126 2.137 . S
O138 C129 1.247 . S
O139 Co126 2.244 . S
O139 C129 1.272 . S
O139 Co131 2.135 . S
Co140 O141 2.216 . S
Co140 O142 2.091 . S
Co140 O144 2.004 . S
Co140 O150 2.021 . S
Co140 O152 2.137 . S
Co140 O153 2.244 . S
O141 Co140 2.216 . S
O141 C148 1.247 . S
O142 Co140 2.091 . S
O142 C148 1.261 . S
C143 O152 1.247 . S
C143 O153 1.272 . S
O144 Co140 2.004 . S
O144 C149 1.259 . S
Co145 O146 2.061 . S
Co145 O151 2.052 . S
Co145 O153 2.135 . S
O146 Co145 2.061 . S
O146 C149 1.235 . S
C147 O150 1.238 . S
C147 O151 1.241 . S
C148 O141 1.247 . S
C148 O142 1.261 . S
C149 O144 1.259 . S
C149 O146 1.235 . S
O150 Co140 2.021 . S
O150 C147 1.238 . S
O151 Co145 2.052 . S
O151 C147 1.241 . S
O152 Co140 2.137 . S
O152 C143 1.247 . S
O153 Co140 2.244 . S
O153 C143 1.272 . S
O153 Co145 2.135 . S
Co154 O155 2.216 . S
Co154 O156 2.091 . S
Co154 O158 2.004 . S
Co154 O164 2.021 . S
Co154 O166 2.137 . S
Co154 O167 2.244 . S
O155 Co154 2.216 . S
O155 C162 1.247 . S
O156 Co154 2.091 . S
O156 C162 1.261 . S
C157 O166 1.247 . S
C157 O167 1.272 . S
O158 Co154 2.004 . S
O158 C163 1.259 . S
Co159 O160 2.061 . S
Co159 O165 2.052 . S
Co159 O167 2.135 . S
O160 Co159 2.061 . S
O160 C163 1.235 . S
C161 O164 1.238 . S
C161 O165 1.241 . S
C162 O155 1.247 . S
C162 O156 1.261 . S
C163 O158 1.259 . S
C163 O160 1.235 . S
O164 Co154 2.021 . S
O164 C161 1.238 . S
O165 Co159 2.052 . S
O165 C161 1.241 . S
O166 Co154 2.137 . S
O166 C157 1.247 . S
O167 Co154 2.244 . S
O167 C157 1.272 . S
O167 Co159 2.135 . S
Co168 O169 2.216 . S
Co168 O170 2.091 . S
Co168 O172 2.004 . S
Co168 O178 2.021 . S
Co168 O180 2.137 . S
Co168 O181 2.244 . S
O169 Co168 2.216 . S
O169 C176 1.247 . S
O170 Co168 2.091 . S
O170 C176 1.261 . S
C171 O180 1.247 . S
C171 O181 1.272 . S
O172 Co168 2.004 . S
O172 C177 1.259 . S
Co173 O174 2.061 . S
Co173 O179 2.052 . S
Co173 O181 2.135 . S
O174 Co173 2.061 . S
O174 C177 1.235 . S
C175 O178 1.238 . S
C175 O179 1.241 . S
C176 O169 1.247 . S
C176 O170 1.261 . S
C177 O172 1.259 . S
C177 O174 1.235 . S
O178 Co168 2.021 . S
O178 C175 1.238 . S
O179 Co173 2.052 . S
O179 C175 1.241 . S
O180 Co168 2.137 . S
O180 C171 1.247 . S
O181 Co168 2.244 . S
O181 C171 1.272 . S
O181 Co173 2.135 . S
Co182 O183 2.216 . S
Co182 O184 2.091 . S
Co182 O186 2.004 . S
Co182 O192 2.021 . S
Co182 O194 2.137 . S
Co182 O195 2.244 . S
O183 Co182 2.216 . S
O183 C190 1.247 . S
O184 Co182 2.091 . S
O184 C190 1.261 . S
C185 O194 1.247 . S
C185 O195 1.272 . S
O186 Co182 2.004 . S
O186 C191 1.259 . S
Co187 O188 2.061 . S
Co187 O193 2.052 . S
Co187 O195 2.135 . S
O188 Co187 2.061 . S
O188 C191 1.235 . S
C189 O192 1.238 . S
C189 O193 1.241 . S
C190 O183 1.247 . S
C190 O184 1.261 . S
C191 O186 1.259 . S
C191 O188 1.235 . S
O192 Co182 2.021 . S
O192 C189 1.238 . S
O193 Co187 2.052 . S
O193 C189 1.241 . S
O194 Co182 2.137 . S
O194 C185 1.247 . S
O195 Co182 2.244 . S
O195 C185 1.272 . S
O195 Co187 2.135 . S
Co196 O197 2.216 . S
Co196 O198 2.091 . S
Co196 O200 2.004 . S
Co196 O206 2.021 . S
Co196 O208 2.137 . S
Co196 O209 2.244 . S
O197 Co196 2.216 . S
O197 C204 1.247 . S
O198 Co196 2.091 . S
O198 C204 1.261 . S
C199 O208 1.247 . S
C199 O209 1.272 . S
O200 Co196 2.004 . S
O200 C205 1.259 . S
Co201 O202 2.061 . S
Co201 O207 2.052 . S
Co201 O209 2.135 . S
O202 Co201 2.061 . S
O202 C205 1.235 . S
C203 O206 1.238 . S
C203 O207 1.241 . S
C204 O197 1.247 . S
C204 O198 1.261 . S
C205 O200 1.259 . S
C205 O202 1.235 . S
O206 Co196 2.021 . S
O206 C203 1.238 . S
O207 Co201 2.052 . S
O207 C203 1.241 . S
O208 Co196 2.137 . S
O208 C199 1.247 . S
O209 Co196 2.244 . S
O209 C199 1.272 . S
O209 Co201 2.135 . S
Co210 O211 2.216 . S
Co210 O212 2.091 . S
Co210 O214 2.004 . S
Co210 O220 2.021 . S
Co210 O222 2.137 . S
Co210 O223 2.244 . S
O211 Co210 2.216 . S
O211 C218 1.247 . S
O212 Co210 2.091 . S
O212 C218 1.261 . S
C213 O222 1.247 . S
C213 O223 1.272 . S
O214 Co210 2.004 . S
O214 C219 1.259 . S
Co215 O216 2.061 . S
Co215 O221 2.052 . S
Co215 O223 2.135 . S
O216 Co215 2.061 . S
O216 C219 1.235 . S
C217 O220 1.238 . S
C217 O221 1.241 . S
C218 O211 1.247 . S
C218 O212 1.261 . S
C219 O214 1.259 . S
C219 O216 1.235 . S
O220 Co210 2.021 . S
O220 C217 1.238 . S
O221 Co215 2.052 . S
O221 C217 1.241 . S
O222 Co210 2.137 . S
O222 C213 1.247 . S
O223 Co210 2.244 . S
O223 C213 1.272 . S
O223 Co215 2.135 . S
Co224 O225 2.216 . S
Co224 O226 2.091 . S
Co224 O228 2.004 . S
Co224 O234 2.021 . S
Co224 O236 2.137 . S
Co224 O237 2.244 . S
O225 Co224 2.216 . S
O225 C232 1.247 . S
O226 Co224 2.091 . S
O226 C232 1.261 . S
C227 O236 1.247 . S
C227 O237 1.272 . S
O228 Co224 2.004 . S
O228 C233 1.259 . S
Co229 O230 2.061 . S
Co229 O235 2.052 . S
Co229 O237 2.135 . S
O230 Co229 2.061 . S
O230 C233 1.235 . S
C231 O234 1.238 . S
C231 O235 1.241 . S
C232 O225 1.247 . S
C232 O226 1.261 . S
C233 O228 1.259 . S
C233 O230 1.235 . S
O234 Co224 2.021 . S
O234 C231 1.238 . S
O235 Co229 2.052 . S
O235 C231 1.241 . S
O236 Co224 2.137 . S
O236 C227 1.247 . S
O237 Co224 2.244 . S
O237 C227 1.272 . S
O237 Co229 2.135 . S
Co238 O239 2.216 . S
Co238 O240 2.091 . S
Co238 O242 2.004 . S
Co238 O248 2.021 . S
Co238 O250 2.137 . S
Co238 O251 2.244 . S
O239 Co238 2.216 . S
O239 C246 1.247 . S
O240 Co238 2.091 . S
O240 C246 1.261 . S
C241 O250 1.247 . S
C241 O251 1.272 . S
O242 Co238 2.004 . S
O242 C247 1.259 . S
Co243 O244 2.061 . S
Co243 O249 2.052 . S
Co243 O251 2.135 . S
O244 Co243 2.061 . S
O244 C247 1.235 . S
C245 O248 1.238 . S
C245 O249 1.241 . S
C246 O239 1.247 . S
C246 O240 1.261 . S
C247 O242 1.259 . S
C247 O244 1.235 . S
O248 Co238 2.021 . S
O248 C245 1.238 . S
O249 Co243 2.052 . S
O249 C245 1.241 . S
O250 Co238 2.137 . S
O250 C241 1.247 . S
O251 Co238 2.244 . S
O251 C241 1.272 . S
O251 Co243 2.135 . S
Co252 O253 2.216 . S
Co252 O254 2.091 . S
Co252 O256 2.004 . S
Co252 O262 2.021 . S
Co252 O264 2.137 . S
Co252 O265 2.244 . S
O253 Co252 2.216 . S
O253 C260 1.247 . S
O254 Co252 2.091 . S
O254 C260 1.261 . S
C255 O264 1.247 . S
C255 O265 1.272 . S
O256 Co252 2.004 . S
O256 C261 1.259 . S
Co257 O258 2.061 . S
Co257 O263 2.052 . S
Co257 O265 2.135 . S
O258 Co257 2.061 . S
O258 C261 1.235 . S
C259 O262 1.238 . S
C259 O263 1.241 . S
C260 O253 1.247 . S
C260 O254 1.261 . S
C261 O256 1.259 . S
C261 O258 1.235 . S
O262 Co252 2.021 . S
O262 C259 1.238 . S
O263 Co257 2.052 . S
O263 C259 1.241 . S
O264 Co252 2.137 . S
O264 C255 1.247 . S
O265 Co252 2.244 . S
O265 C255 1.272 . S
O265 Co257 2.135 . S
Co266 O267 2.216 . S
Co266 O268 2.091 . S
Co266 O270 2.004 . S
Co266 O276 2.021 . S
Co266 O278 2.137 . S
Co266 O279 2.244 . S
O267 Co266 2.216 . S
O267 C274 1.247 . S
O268 Co266 2.091 . S
O268 C274 1.261 . S
C269 O278 1.247 . S
C269 O279 1.272 . S
O270 Co266 2.004 . S
O270 C275 1.259 . S
Co271 O272 2.061 . S
Co271 O277 2.052 . S
Co271 O279 2.135 . S
O272 Co271 2.061 . S
O272 C275 1.235 . S
C273 O276 1.238 . S
C273 O277 1.241 . S
C274 O267 1.247 . S
C274 O268 1.261 . S
C275 O270 1.259 . S
C275 O272 1.235 . S
O276 Co266 2.021 . S
O276 C273 1.238 . S
O277 Co271 2.052 . S
O277 C273 1.241 . S
O278 Co266 2.137 . S
O278 C269 1.247 . S
O279 Co266 2.244 . S
O279 C269 1.272 . S
O279 Co271 2.135 . S
Co280 O281 2.216 . S
Co280 O282 2.091 . S
Co280 O284 2.004 . S
Co280 O290 2.021 . S
Co280 O292 2.137 . S
Co280 O293 2.244 . S
O281 Co280 2.216 . S
O281 C288 1.247 . S
O282 Co280 2.091 . S
O282 C288 1.261 . S
C283 O292 1.247 . S
C283 O293 1.272 . S
O284 Co280 2.004 . S
O284 C289 1.259 . S
Co285 O286 2.061 . S
Co285 O291 2.052 . S
Co285 O293 2.135 . S
O286 Co285 2.061 . S
O286 C289 1.235 . S
C287 O290 1.238 . S
C287 O291 1.241 . S
C288 O281 1.247 . S
C288 O282 1.261 . S
C289 O284 1.259 . S
C289 O286 1.235 . S
O290 Co280 2.021 . S
O290 C287 1.238 . S
O291 Co285 2.052 . S
O291 C287 1.241 . S
O292 Co280 2.137 . S
O292 C283 1.247 . S
O293 Co280 2.244 . S
O293 C283 1.272 . S
O293 Co285 2.135 . S
Co294 O295 2.216 . S
Co294 O296 2.091 . S
Co294 O298 2.004 . S
Co294 O304 2.021 . S
Co294 O306 2.137 . S
Co294 O307 2.244 . S
O295 Co294 2.216 . S
O295 C302 1.247 . S
O296 Co294 2.091 . S
O296 C302 1.261 . S
C297 O306 1.247 . S
C297 O307 1.272 . S
O298 Co294 2.004 . S
O298 C303 1.259 . S
Co299 O300 2.061 . S
Co299 O305 2.052 . S
Co299 O307 2.135 . S
O300 Co299 2.061 . S
O300 C303 1.235 . S
C301 O304 1.238 . S
C301 O305 1.241 . S
C302 O295 1.247 . S
C302 O296 1.261 . S
C303 O298 1.259 . S
C303 O300 1.235 . S
O304 Co294 2.021 . S
O304 C301 1.238 . S
O305 Co299 2.052 . S
O305 C301 1.241 . S
O306 Co294 2.137 . S
O306 C297 1.247 . S
O307 Co294 2.244 . S
O307 C297 1.272 . S
O307 Co299 2.135 . S
Co308 O309 2.216 . S
Co308 O310 2.091 . S
Co308 O312 2.004 . S
Co308 O318 2.021 . S
Co308 O320 2.137 . S
Co308 O321 2.244 . S
O309 Co308 2.216 . S
O309 C316 1.247 . S
O310 Co308 2.091 . S
O310 C316 1.261 . S
C311 O320 1.247 . S
C311 O321 1.272 . S
O312 Co308 2.004 . S
O312 C317 1.259 . S
Co313 O314 2.061 . S
Co313 O319 2.052 . S
Co313 O321 2.135 . S
O314 Co313 2.061 . S
O314 C317 1.235 . S
C315 O318 1.238 . S
C315 O319 1.241 . S
C316 O309 1.247 . S
C316 O310 1.261 . S
C317 O312 1.259 . S
C317 O314 1.235 . S
O318 Co308 2.021 . S
O318 C315 1.238 . S
O319 Co313 2.052 . S
O319 C315 1.241 . S
O320 Co308 2.137 . S
O320 C311 1.247 . S
O321 Co308 2.244 . S
O321 C311 1.272 . S
O321 Co313 2.135 . S
Co322 O323 2.216 . S
Co322 O324 2.091 . S
Co322 O326 2.004 . S
Co322 O332 2.021 . S
Co322 O334 2.137 . S
Co322 O335 2.244 . S
O323 Co322 2.216 . S
O323 C330 1.247 . S
O324 Co322 2.091 . S
O324 C330 1.261 . S
C325 O334 1.247 . S
C325 O335 1.272 . S
O326 Co322 2.004 . S
O326 C331 1.259 . S
Co327 O328 2.061 . S
Co327 O333 2.052 . S
Co327 O335 2.135 . S
O328 Co327 2.061 . S
O328 C331 1.235 . S
C329 O332 1.238 . S
C329 O333 1.241 . S
C330 O323 1.247 . S
C330 O324 1.261 . S
C331 O326 1.259 . S
C331 O328 1.235 . S
O332 Co322 2.021 . S
O332 C329 1.238 . S
O333 Co327 2.052 . S
O333 C329 1.241 . S
O334 Co322 2.137 . S
O334 C325 1.247 . S
O335 Co322 2.244 . S
O335 C325 1.272 . S
O335 Co327 2.135 . S
Co336 O337 2.216 . S
Co336 O338 2.091 . S
Co336 O340 2.004 . S
Co336 O346 2.021 . S
Co336 O348 2.137 . S
Co336 O349 2.244 . S
O337 Co336 2.216 . S
O337 C344 1.247 . S
O338 Co336 2.091 . S
O338 C344 1.261 . S
C339 O348 1.247 . S
C339 O349 1.272 . S
O340 Co336 2.004 . S
O340 C345 1.259 . S
Co341 O342 2.061 . S
Co341 O347 2.052 . S
Co341 O349 2.135 . S
O342 Co341 2.061 . S
O342 C345 1.235 . S
C343 O346 1.238 . S
C343 O347 1.241 . S
C344 O337 1.247 . S
C344 O338 1.261 . S
C345 O340 1.259 . S
C345 O342 1.235 . S
O346 Co336 2.021 . S
O346 C343 1.238 . S
O347 Co341 2.052 . S
O347 C343 1.241 . S
O348 Co336 2.137 . S
O348 C339 1.247 . S
O349 Co336 2.244 . S
O349 C339 1.272 . S
O349 Co341 2.135 . S
Co350 O351 2.216 . S
Co350 O352 2.091 . S
Co350 O354 2.004 . S
Co350 O360 2.021 . S
Co350 O362 2.137 . S
Co350 O363 2.244 . S
O351 Co350 2.216 . S
O351 C358 1.247 . S
O352 Co350 2.091 . S
O352 C358 1.261 . S
C353 O362 1.247 . S
C353 O363 1.272 . S
O354 Co350 2.004 . S
O354 C359 1.259 . S
Co355 O356 2.061 . S
Co355 O361 2.052 . S
Co355 O363 2.135 . S
O356 Co355 2.061 . S
O356 C359 1.235 . S
C357 O360 1.238 . S
C357 O361 1.241 . S
C358 O351 1.247 . S
C358 O352 1.261 . S
C359 O354 1.259 . S
C359 O356 1.235 . S
O360 Co350 2.021 . S
O360 C357 1.238 . S
O361 Co355 2.052 . S
O361 C357 1.241 . S
O362 Co350 2.137 . S
O362 C353 1.247 . S
O363 Co350 2.244 . S
O363 C353 1.272 . S
O363 Co355 2.135 . S
Co364 O365 2.216 . S
Co364 O366 2.091 . S
Co364 O368 2.004 . S
Co364 O374 2.021 . S
Co364 O376 2.137 . S
Co364 O377 2.244 . S
O365 Co364 2.216 . S
O365 C372 1.247 . S
O366 Co364 2.091 . S
O366 C372 1.261 . S
C367 O376 1.247 . S
C367 O377 1.272 . S
O368 Co364 2.004 . S
O368 C373 1.259 . S
Co369 O370 2.061 . S
Co369 O375 2.052 . S
Co369 O377 2.135 . S
O370 Co369 2.061 . S
O370 C373 1.235 . S
C371 O374 1.238 . S
C371 O375 1.241 . S
C372 O365 1.247 . S
C372 O366 1.261 . S
C373 O368 1.259 . S
C373 O370 1.235 . S
O374 Co364 2.021 . S
O374 C371 1.238 . S
O375 Co369 2.052 . S
O375 C371 1.241 . S
O376 Co364 2.137 . S
O376 C367 1.247 . S
O377 Co364 2.244 . S
O377 C367 1.272 . S
O377 Co369 2.135 . S
Co378 O379 2.216 . S
Co378 O380 2.091 . S
Co378 O382 2.004 . S
Co378 O388 2.021 . S
Co378 O390 2.137 . S
Co378 O391 2.244 . S
O379 Co378 2.216 . S
O379 C386 1.247 . S
O380 Co378 2.091 . S
O380 C386 1.261 . S
C381 O390 1.247 . S
C381 O391 1.272 . S
O382 Co378 2.004 . S
O382 C387 1.259 . S
Co383 O384 2.061 . S
Co383 O389 2.052 . S
Co383 O391 2.135 . S
O384 Co383 2.061 . S
O384 C387 1.235 . S
C385 O388 1.238 . S
C385 O389 1.241 . S
C386 O379 1.247 . S
C386 O380 1.261 . S
C387 O382 1.259 . S
C387 O384 1.235 . S
O388 Co378 2.021 . S
O388 C385 1.238 . S
O389 Co383 2.052 . S
O389 C385 1.241 . S
O390 Co378 2.137 . S
O390 C381 1.247 . S
O391 Co378 2.244 . S
O391 C381 1.272 . S
O391 Co383 2.135 . S
Co392 O393 2.216 . S
Co392 O394 2.091 . S
Co392 O396 2.004 . S
Co392 O402 2.021 . S
Co392 O404 2.137 . S
Co392 O405 2.244 . S
O393 Co392 2.216 . S
O393 C400 1.247 . S
O394 Co392 2.091 . S
O394 C400 1.261 . S
C395 O404 1.247 . S
C395 O405 1.272 . S
O396 Co392 2.004 . S
O396 C401 1.259 . S
Co397 O398 2.061 . S
Co397 O403 2.052 . S
Co397 O405 2.135 . S
O398 Co397 2.061 . S
O398 C401 1.235 . S
C399 O402 1.238 . S
C399 O403 1.241 . S
C400 O393 1.247 . S
C400 O394 1.261 . S
C401 O396 1.259 . S
C401 O398 1.235 . S
O402 Co392 2.021 . S
O402 C399 1.238 . S
O403 Co397 2.052 . S
O403 C399 1.241 . S
O404 Co392 2.137 . S
O404 C395 1.247 . S
O405 Co392 2.244 . S
O405 C395 1.272 . S
O405 Co397 2.135 . S
Co406 O407 2.216 . S
Co406 O408 2.091 . S
Co406 O410 2.004 . S
Co406 O416 2.021 . S
Co406 O418 2.137 . S
Co406 O419 2.244 . S
O407 Co406 2.216 . S
O407 C414 1.247 . S
O408 Co406 2.091 . S
O408 C414 1.261 . S
C409 O418 1.247 . S
C409 O419 1.272 . S
O410 Co406 2.004 . S
O410 C415 1.259 . S
Co411 O412 2.061 . S
Co411 O417 2.052 . S
Co411 O419 2.135 . S
O412 Co411 2.061 . S
O412 C415 1.235 . S
C413 O416 1.238 . S
C413 O417 1.241 . S
C414 O407 1.247 . S
C414 O408 1.261 . S
C415 O410 1.259 . S
C415 O412 1.235 . S
O416 Co406 2.021 . S
O416 C413 1.238 . S
O417 Co411 2.052 . S
O417 C413 1.241 . S
O418 Co406 2.137 . S
O418 C409 1.247 . S
O419 Co406 2.244 . S
O419 C409 1.272 . S
O419 Co411 2.135 . S
Co420 O421 2.216 . S
Co420 O422 2.091 . S
Co420 O424 2.004 . S
Co420 O430 2.021 . S
Co420 O432 2.137 . S
Co420 O433 2.244 . S
O421 Co420 2.216 . S
O421 C428 1.247 . S
O422 Co420 2.091 . S
O422 C428 1.261 . S
C423 O432 1.247 . S
C423 O433 1.272 . S
O424 Co420 2.004 . S
O424 C429 1.259 . S
Co425 O426 2.061 . S
Co425 O431 2.052 . S
Co425 O433 2.135 . S
O426 Co425 2.061 . S
O426 C429 1.235 . S
C427 O430 1.238 . S
C427 O431 1.241 . S
C428 O421 1.247 . S
C428 O422 1.261 . S
C429 O424 1.259 . S
C429 O426 1.235 . S
O430 Co420 2.021 . S
O430 C427 1.238 . S
O431 Co425 2.052 . S
O431 C427 1.241 . S
O432 Co420 2.137 . S
O432 C423 1.247 . S
O433 Co420 2.244 . S
O433 C423 1.272 . S
O433 Co425 2.135 . S
Co434 O435 2.216 . S
Co434 O436 2.091 . S
Co434 O438 2.004 . S
Co434 O444 2.021 . S
Co434 O446 2.137 . S
Co434 O447 2.244 . S
O435 Co434 2.216 . S
O435 C442 1.247 . S
O436 Co434 2.091 . S
O436 C442 1.261 . S
C437 O446 1.247 . S
C437 O447 1.272 . S
O438 Co434 2.004 . S
O438 C443 1.259 . S
Co439 O440 2.061 . S
Co439 O445 2.052 . S
Co439 O447 2.135 . S
O440 Co439 2.061 . S
O440 C443 1.235 . S
C441 O444 1.238 . S
C441 O445 1.241 . S
C442 O435 1.247 . S
C442 O436 1.261 . S
C443 O438 1.259 . S
C443 O440 1.235 . S
O444 Co434 2.021 . S
O444 C441 1.238 . S
O445 Co439 2.052 . S
O445 C441 1.241 . S
O446 Co434 2.137 . S
O446 C437 1.247 . S
O447 Co434 2.244 . S
O447 C437 1.272 . S
O447 Co439 2.135 . S
Co448 O449 2.216 . S
Co448 O450 2.091 . S
Co448 O452 2.004 . S
Co448 O458 2.021 . S
Co448 O460 2.137 . S
Co448 O461 2.244 . S
O449 Co448 2.216 . S
O449 C456 1.247 . S
O450 Co448 2.091 . S
O450 C456 1.261 . S
C451 O460 1.247 . S
C451 O461 1.272 . S
O452 Co448 2.004 . S
O452 C457 1.259 . S
Co453 O454 2.061 . S
Co453 O459 2.052 . S
Co453 O461 2.135 . S
O454 Co453 2.061 . S
O454 C457 1.235 . S
C455 O458 1.238 . S
C455 O459 1.241 . S
C456 O449 1.247 . S
C456 O450 1.261 . S
C457 O452 1.259 . S
C457 O454 1.235 . S
O458 Co448 2.021 . S
O458 C455 1.238 . S
O459 Co453 2.052 . S
O459 C455 1.241 . S
O460 Co448 2.137 . S
O460 C451 1.247 . S
O461 Co448 2.244 . S
O461 C451 1.272 . S
O461 Co453 2.135 . S
Co462 O463 2.216 . S
Co462 O464 2.091 . S
Co462 O466 2.004 . S
Co462 O472 2.021 . S
Co462 O474 2.137 . S
Co462 O475 2.244 . S
O463 Co462 2.216 . S
O463 C470 1.247 . S
O464 Co462 2.091 . S
O464 C470 1.261 . S
C465 O474 1.247 . S
C465 O475 1.272 . S
O466 Co462 2.004 . S
O466 C471 1.259 . S
Co467 O468 2.061 . S
Co467 O473 2.052 . S
Co467 O475 2.135 . S
O468 Co467 2.061 . S
O468 C471 1.235 . S
C469 O472 1.238 . S
C469 O473 1.241 . S
C470 O463 1.247 . S
C470 O464 1.261 . S
C471 O466 1.259 . S
C471 O468 1.235 . S
O472 Co462 2.021 . S
O472 C469 1.238 . S
O473 Co467 2.052 . S
O473 C469 1.241 . S
O474 Co462 2.137 . S
O474 C465 1.247 . S
O475 Co462 2.244 . S
O475 C465 1.272 . S
O475 Co467 2.135 . S
Co476 O477 2.216 . S
Co476 O478 2.091 . S
Co476 O480 2.004 . S
Co476 O486 2.021 . S
Co476 O488 2.137 . S
Co476 O489 2.244 . S
O477 Co476 2.216 . S
O477 C484 1.247 . S
O478 Co476 2.091 . S
O478 C484 1.261 . S
C479 O488 1.247 . S
C479 O489 1.272 . S
O480 Co476 2.004 . S
O480 C485 1.259 . S
Co481 O482 2.061 . S
Co481 O487 2.052 . S
Co481 O489 2.135 . S
O482 Co481 2.061 . S
O482 C485 1.235 . S
C483 O486 1.238 . S
C483 O487 1.241 . S
C484 O477 1.247 . S
C484 O478 1.261 . S
C485 O480 1.259 . S
C485 O482 1.235 . S
O486 Co476 2.021 . S
O486 C483 1.238 . S
O487 Co481 2.052 . S
O487 C483 1.241 . S
O488 Co476 2.137 . S
O488 C479 1.247 . S
O489 Co476 2.244 . S
O489 C479 1.272 . S
O489 Co481 2.135 . S
Co490 O491 2.216 . S
Co490 O492 2.091 . S
Co490 O494 2.004 . S
Co490 O500 2.021 . S
Co490 O502 2.137 . S
Co490 O503 2.244 . S
O491 Co490 2.216 . S
O491 C498 1.247 . S
O492 Co490 2.091 . S
O492 C498 1.261 . S
C493 O502 1.247 . S
C493 O503 1.272 . S
O494 Co490 2.004 . S
O494 C499 1.259 . S
Co495 O496 2.061 . S
Co495 O501 2.052 . S
Co495 O503 2.135 . S
O496 Co495 2.061 . S
O496 C499 1.235 . S
C497 O500 1.238 . S
C497 O501 1.241 . S
C498 O491 1.247 . S
C498 O492 1.261 . S
C499 O494 1.259 . S
C499 O496 1.235 . S
O500 Co490 2.021 . S
O500 C497 1.238 . S
O501 Co495 2.052 . S
O501 C497 1.241 . S
O502 Co490 2.137 . S
O502 C493 1.247 . S
O503 Co490 2.244 . S
O503 C493 1.272 . S
O503 Co495 2.135 . S
C504 C505 1.391 . S
C504 C506 1.394 . S
C504 H520 0.931 . S
C505 C504 1.391 . S
C505 C509 1.376 . S
C506 C504 1.394 . S
C506 C507 1.369 . S
C506 C510 1.531 1_554 S
C507 C506 1.369 . S
C507 C508 1.410 . S
C507 C515 1.503 1_554 S
C508 C507 1.410 . S
C508 C509 1.392 . S
C508 C511 1.511 . S
C509 C505 1.376 . S
C509 C508 1.392 . S
C509 H521 0.929 . S
C510 C506 1.531 1_556 S
C510 H522 0.960 . S
C510 H523 0.962 1_556 S
C510 H524 0.960 . S
C511 C508 1.511 . S
C511 H525 0.961 . S
C511 H526 0.961 . S
C511 H527 0.961 . S
C512 C513 1.370 . S
C512 C514 1.363 1_566 S
C512 H528 0.931 . S
C513 C512 1.370 . S
C513 C517 1.408 1_565 S
C514 C512 1.363 1_544 S
C514 C515 1.370 1_554 S
C514 C518 1.525 1_545 S
C515 C507 1.503 1_556 S
C515 C514 1.370 1_556 S
C515 C516 1.403 . S
C516 C515 1.403 . S
C516 C517 1.404 . S
C516 C519 1.539 . S
C517 C513 1.408 1_545 S
C517 C516 1.404 . S
C517 H529 0.930 . S
C518 C514 1.525 1_565 S
C518 H530 0.952 1_565 S
C518 H531 0.960 1_565 S
C518 H532 0.965 . S
C519 C516 1.539 . S
C519 H533 0.958 . S
C519 H534 0.961 . S
C519 H535 0.960 . S
H520 C504 0.931 . S
H521 C509 0.929 . S
H522 C510 0.960 . S
H523 C510 0.962 1_554 S
H524 C510 0.960 . S
H525 C511 0.961 . S
H526 C511 0.961 . S
H527 C511 0.961 . S
H528 C512 0.931 . S
H529 C517 0.930 . S
H530 C518 0.952 1_545 S
H531 C518 0.960 1_545 S
H532 C518 0.965 . S
H533 C519 0.958 . S
H534 C519 0.961 . S
H535 C519 0.960 . S
C536 C537 1.391 . S
C536 C538 1.394 . S
C536 H552 0.931 . S
C537 C536 1.391 . S
C537 C541 1.376 . S
C538 C536 1.394 . S
C538 C539 1.369 . S
C538 C542 1.531 1_554 S
C539 C538 1.369 . S
C539 C540 1.410 . S
C539 C547 1.503 1_554 S
C540 C539 1.410 . S
C540 C541 1.392 . S
C540 C543 1.511 . S
C541 C537 1.376 . S
C541 C540 1.392 . S
C541 H553 0.929 . S
C542 C538 1.531 1_556 S
C542 H554 0.960 . S
C542 H555 0.962 . S
C542 H556 0.960 . S
C543 C540 1.511 . S
C543 H557 0.961 . S
C543 H558 0.961 . S
C543 H559 0.961 . S
C544 C545 1.370 . S
C544 C546 1.363 1_455 S
C544 H560 0.931 . S
C545 C544 1.370 . S
C545 C549 1.408 . S
C546 C544 1.363 1_655 S
C546 C547 1.370 . S
C546 C550 1.524 . S
C547 C539 1.503 1_556 S
C547 C546 1.370 . S
C547 C548 1.403 . S
C548 C547 1.403 . S
C548 C549 1.404 1_655 S
C548 C551 1.543 . S
C549 C545 1.408 . S
C549 C548 1.404 1_455 S
C549 H561 0.930 . S
C550 C546 1.524 . S
C550 H562 0.956 . S
C550 H563 0.961 1_556 S
C550 H564 0.961 . S
C551 C548 1.543 . S
C551 H565 0.965 . S
C551 H566 0.960 1_556 S
C551 H567 0.950 1_556 S
H552 C536 0.931 . S
H553 C541 0.929 . S
H554 C542 0.960 . S
H555 C542 0.962 . S
H556 C542 0.960 . S
H557 C543 0.961 . S
H558 C543 0.961 . S
H559 C543 0.961 . S
H560 C544 0.931 . S
H561 C549 0.930 . S
H562 C550 0.956 . S
H563 C550 0.961 1_554 S
H564 C550 0.961 . S
H565 C551 0.965 . S
H566 C551 0.960 1_554 S
H567 C551 0.950 1_554 S
C568 C569 1.391 . S
C568 C570 1.394 1_556 S
C568 H584 0.931 . S
C569 C568 1.391 . S
C569 C573 1.376 . S
C570 C568 1.394 1_554 S
C570 C571 1.369 1_554 S
C570 C574 1.531 . S
C571 C570 1.369 1_556 S
C571 C572 1.410 . S
C571 C579 1.503 1_556 S
C572 C571 1.410 . S
C572 C573 1.392 . S
C572 C575 1.511 . S
C573 C569 1.376 . S
C573 C572 1.392 . S
C573 H585 0.929 . S
C574 C570 1.531 . S
C574 H586 0.960 . S
C574 H587 0.962 . S
C574 H588 0.960 . S
C575 C572 1.511 . S
C575 H589 0.961 . S
C575 H590 0.961 . S
C575 H591 0.961 . S
C576 C577 1.370 . S
C576 C578 1.363 . S
C576 H592 0.931 . S
C577 C576 1.370 . S
C577 C581 1.408 . S
C578 C576 1.363 . S
C578 C579 1.370 . S
C578 C582 1.524 . S
C579 C571 1.503 1_554 S
C579 C578 1.370 . S
C579 C580 1.403 . S
C580 C579 1.403 . S
C580 C581 1.404 . S
C580 C583 1.539 1_554 S
C581 C577 1.408 . S
C581 C580 1.404 . S
C581 H593 0.930 . S
C582 C578 1.524 . S
C582 H594 0.956 . S
C582 H595 0.961 . S
C582 H596 0.961 . S
C583 C580 1.539 1_556 S
C583 H597 0.958 1_556 S
C583 H598 0.961 . S
C583 H599 0.960 . S
H584 C568 0.931 . S
H585 C573 0.929 . S
H586 C574 0.960 . S
H587 C574 0.962 . S
H588 C574 0.960 . S
H589 C575 0.961 . S
H590 C575 0.961 . S
H591 C575 0.961 . S
H592 C576 0.931 . S
H593 C581 0.930 . S
H594 C582 0.956 . S
H595 C582 0.961 . S
H596 C582 0.961 . S
H597 C583 0.958 1_554 S
H598 C583 0.961 . S
H599 C583 0.960 . S
C600 C601 1.391 . S
C600 C602 1.394 . S
C600 H616 0.931 . S
C601 C600 1.391 . S
C601 C605 1.376 1_655 S
C602 C600 1.394 . S
C602 C603 1.369 1_655 S
C602 C606 1.531 . S
C603 C602 1.369 1_455 S
C603 C604 1.410 . S
C603 C611 1.503 . S
C604 C603 1.410 . S
C604 C605 1.392 . S
C604 C607 1.511 . S
C605 C601 1.376 1_455 S
C605 C604 1.392 . S
C605 H617 0.929 . S
C606 C602 1.531 . S
C606 H618 0.960 1_655 S
C606 H619 0.962 . S
C606 H620 0.960 . S
C607 C604 1.511 . S
C607 H621 0.961 . S
C607 H622 0.961 . S
C607 H623 0.961 . S
C608 C609 1.370 . S
C608 C610 1.363 . S
C608 H624 0.931 . S
C609 C608 1.370 . S
C609 C613 1.408 . S
C610 C608 1.363 . S
C610 C611 1.370 . S
C610 C614 1.524 . S
C611 C603 1.503 . S
C611 C610 1.370 . S
C611 C612 1.403 . S
C612 C611 1.403 . S
C612 C613 1.404 . S
C612 C615 1.539 . S
C613 C609 1.408 . S
C613 C612 1.404 . S
C613 H625 0.930 . S
C614 C610 1.524 . S
C614 H626 0.956 . S
C614 H627 0.961 . S
C614 H628 0.961 . S
C615 C612 1.539 . S
C615 H629 0.958 . S
C615 H630 0.961 . S
C615 H631 0.960 . S
H616 C600 0.931 . S
H617 C605 0.929 . S
H618 C606 0.960 1_455 S
H619 C606 0.962 . S
H620 C606 0.960 . S
H621 C607 0.961 . S
H622 C607 0.961 . S
H623 C607 0.961 . S
H624 C608 0.931 . S
H625 C613 0.930 . S
H626 C614 0.956 . S
H627 C614 0.961 . S
H628 C614 0.961 . S
H629 C615 0.958 . S
H630 C615 0.961 . S
H631 C615 0.960 . S
C632 C633 1.391 . S
C632 C634 1.394 . S
C632 H648 0.931 . S
C633 C632 1.391 . S
C633 C637 1.376 . S
C634 C632 1.394 . S
C634 C635 1.369 . S
C634 C638 1.531 . S
C635 C634 1.369 . S
C635 C636 1.410 . S
C635 C643 1.503 . S
C636 C635 1.410 . S
C636 C637 1.392 . S
C636 C639 1.511 . S
C637 C633 1.376 . S
C637 C636 1.392 . S
C637 H649 0.929 . S
C638 C634 1.531 . S
C638 H650 0.960 . S
C638 H651 0.962 . S
C638 H652 0.960 . S
C639 C636 1.511 . S
C639 H653 0.961 . S
C639 H654 0.961 . S
C639 H655 0.961 . S
C640 C641 1.370 . S
C640 C642 1.363 . S
C640 H656 0.931 . S
C641 C640 1.370 . S
C641 C645 1.408 . S
C642 C640 1.363 . S
C642 C643 1.370 . S
C642 C646 1.524 . S
C643 C635 1.503 . S
C643 C642 1.370 . S
C643 C644 1.403 . S
C644 C643 1.403 . S
C644 C645 1.404 . S
C644 C647 1.539 . S
C645 C641 1.408 . S
C645 C644 1.404 . S
C645 H657 0.930 . S
C646 C642 1.524 . S
C646 H658 0.956 . S
C646 H659 0.961 . S
C646 H660 0.961 . S
C647 C644 1.539 . S
C647 H661 0.958 . S
C647 H662 0.961 . S
C647 H663 0.960 . S
H648 C632 0.931 . S
H649 C637 0.929 . S
H650 C638 0.960 . S
H651 C638 0.962 . S
H652 C638 0.960 . S
H653 C639 0.961 . S
H654 C639 0.961 . S
H655 C639 0.961 . S
H656 C640 0.931 . S
H657 C645 0.930 . S
H658 C646 0.956 . S
H659 C646 0.961 . S
H660 C646 0.961 . S
H661 C647 0.958 . S
H662 C647 0.961 . S
H663 C647 0.960 . S
C664 C665 1.391 . S
C664 C666 1.394 . S
C664 H680 0.931 . S
C665 C664 1.391 . S
C665 C669 1.376 . S
C666 C664 1.394 . S
C666 C667 1.369 . S
C666 C670 1.531 . S
C667 C666 1.369 . S
C667 C668 1.410 . S
C667 C675 1.503 . S
C668 C667 1.410 . S
C668 C669 1.392 . S
C668 C671 1.511 . S
C669 C665 1.376 . S
C669 C668 1.392 . S
C669 H681 0.929 . S
C670 C666 1.531 . S
C670 H682 0.960 . S
C670 H683 0.962 . S
C670 H684 0.960 . S
C671 C668 1.511 . S
C671 H685 0.961 . S
C671 H686 0.961 . S
C671 H687 0.961 . S
C672 C673 1.370 1_565 S
C672 C674 1.363 . S
C672 H688 0.931 . S
C673 C672 1.370 1_545 S
C673 C677 1.408 . S
C674 C672 1.363 . S
C674 C675 1.370 . S
C674 C678 1.524 . S
C675 C667 1.503 . S
C675 C674 1.370 . S
C675 C676 1.403 1_565 S
C676 C675 1.403 1_545 S
C676 C677 1.404 . S
C676 C679 1.539 . S
C677 C673 1.408 . S
C677 C676 1.404 . S
C677 H689 0.930 . S
C678 C674 1.524 . S
C678 H690 0.956 . S
C678 H691 0.961 . S
C678 H692 0.961 . S
C679 C676 1.539 . S
C679 H693 0.958 . S
C679 H694 0.961 . S
C679 H695 0.960 1_545 S
H680 C664 0.931 . S
H681 C669 0.929 . S
H682 C670 0.960 . S
H683 C670 0.962 . S
H684 C670 0.960 . S
H685 C671 0.961 . S
H686 C671 0.961 . S
H687 C671 0.961 . S
H688 C672 0.931 . S
H689 C677 0.930 . S
H690 C678 0.956 . S
H691 C678 0.961 . S
H692 C678 0.961 . S
H693 C679 0.958 . S
H694 C679 0.961 . S
H695 C679 0.960 1_565 S
C696 C697 1.391 . S
C696 C698 1.394 1_544 S
C696 H712 0.931 . S
C697 C696 1.391 . S
C697 C701 1.376 . S
C698 C696 1.394 1_566 S
C698 C699 1.369 . S
C698 C702 1.531 . S
C699 C698 1.369 . S
C699 C700 1.410 1_556 S
C699 C707 1.503 . S
C700 C699 1.410 1_554 S
C700 C701 1.392 1_565 S
C700 C703 1.511 . S
C701 C697 1.376 . S
C701 C700 1.392 1_545 S
C701 H713 0.929 . S
C702 C698 1.531 . S
C702 H714 0.960 . S
C702 H715 0.962 . S
C702 H716 0.960 1_565 S
C703 C700 1.511 . S
C703 H717 0.961 . S
C703 H718 0.961 . S
C703 H719 0.961 . S
C704 C705 1.370 . S
C704 C706 1.363 . S
C704 H720 0.931 . S
C705 C704 1.370 . S
C705 C709 1.408 . S
C706 C704 1.363 . S
C706 C707 1.370 . S
C706 C710 1.524 1_556 S
C707 C699 1.503 . S
C707 C706 1.370 . S
C707 C708 1.403 . S
C708 C707 1.403 . S
C708 C709 1.404 . S
C708 C711 1.539 . S
C709 C705 1.408 . S
C709 C708 1.404 . S
C709 H721 0.930 . S
C710 C706 1.524 1_554 S
C710 H722 0.956 . S
C710 H723 0.961 . S
C710 H724 0.961 . S
C711 C708 1.539 . S
C711 H725 0.958 . S
C711 H726 0.961 . S
C711 H727 0.960 . S
H712 C696 0.931 . S
H713 C701 0.929 . S
H714 C702 0.960 . S
H715 C702 0.962 . S
H716 C702 0.960 1_545 S
H717 C703 0.961 . S
H718 C703 0.961 . S
H719 C703 0.961 . S
H720 C704 0.931 . S
H721 C709 0.930 . S
H722 C710 0.956 . S
H723 C710 0.961 . S
H724 C710 0.961 . S
H725 C711 0.958 . S
H726 C711 0.961 . S
H727 C711 0.960 . S
C728 C729 1.391 1_455 S
C728 C730 1.394 . S
C728 H744 0.931 . S
C729 C728 1.391 1_655 S
C729 C733 1.376 . S
C730 C728 1.394 . S
C730 C731 1.345 1_554 S
C730 C734 1.531 . S
C731 C730 1.345 1_556 S
C731 C732 1.417 1_455 S
C731 C739 1.519 . S
C732 C731 1.417 1_655 S
C732 C733 1.392 1_556 S
C732 C735 1.511 . S
C733 C729 1.376 . S
C733 C732 1.392 1_554 S
C733 H745 0.929 . S
C734 C730 1.531 . S
C734 H746 0.960 . S
C734 H747 0.962 . S
C734 H748 0.960 . S
C735 C732 1.511 . S
C735 H749 0.961 . S
C735 H750 0.961 1_655 S
C735 H751 0.961 . S
C736 C737 1.370 . S
C736 C738 1.363 . S
C736 H752 0.931 . S
C737 C736 1.370 . S
C737 C741 1.408 . S
C738 C736 1.363 . S
C738 C739 1.370 . S
C738 C742 1.524 1_556 S
C739 C731 1.519 . S
C739 C738 1.370 . S
C739 C740 1.403 . S
C740 C739 1.403 . S
C740 C741 1.404 . S
C740 C743 1.539 . S
C741 C737 1.408 . S
C741 C740 1.404 . S
C741 H753 0.930 . S
C742 C738 1.524 1_554 S
C742 H754 0.956 . S
C742 H755 0.961 . S
C742 H756 0.961 . S
C743 C740 1.539 . S
C743 H757 0.958 . S
C743 H758 0.961 . S
C743 H759 0.960 . S
H744 C728 0.931 . S
H745 C733 0.929 . S
H746 C734 0.960 . S
H747 C734 0.962 . S
H748 C734 0.960 . S
H749 C735 0.961 . S
H750 C735 0.961 1_455 S
H751 C735 0.961 . S
H752 C736 0.931 . S
H753 C741 0.930 . S
H754 C742 0.956 . S
H755 C742 0.961 . S
H756 C742 0.961 . S
H757 C743 0.958 . S
H758 C743 0.961 . S
H759 C743 0.960 . S
C760 C761 1.391 . S
C760 C762 1.394 . S
C760 H776 0.931 . S
C761 C760 1.391 . S
C761 C765 1.376 . S
C762 C760 1.394 . S
C762 C763 1.369 . S
C762 C766 1.531 . S
C763 C762 1.369 . S
C763 C764 1.410 . S
C763 C771 1.503 . S
C764 C763 1.410 . S
C764 C765 1.392 . S
C764 C767 1.511 . S
C765 C761 1.376 . S
C765 C764 1.392 . S
C765 H777 0.929 . S
C766 C762 1.531 . S
C766 H778 0.960 . S
C766 H779 0.962 1_556 S
C766 H780 0.960 . S
C767 C764 1.511 . S
C767 H781 0.961 . S
C767 H782 0.961 . S
C767 H783 0.961 . S
C768 C769 1.370 . S
C768 C770 1.363 . S
C768 H784 0.931 . S
C769 C768 1.370 . S
C769 C773 1.408 . S
C770 C768 1.363 . S
C770 C771 1.370 1_554 S
C770 C774 1.524 . S
C771 C763 1.503 . S
C771 C770 1.370 1_556 S
C771 C772 1.403 . S
C772 C771 1.403 . S
C772 C773 1.404 1_556 S
C772 C775 1.539 . S
C773 C769 1.408 . S
C773 C772 1.404 1_554 S
C773 H785 0.930 . S
C774 C770 1.524 . S
C774 H786 0.956 . S
C774 H787 0.961 . S
C774 H788 0.961 . S
C775 C772 1.539 . S
C775 H789 0.958 . S
C775 H790 0.961 . S
C775 H791 0.960 . S
H776 C760 0.931 . S
H777 C765 0.929 . S
H778 C766 0.960 . S
H779 C766 0.962 1_554 S
H780 C766 0.960 . S
H781 C767 0.961 . S
H782 C767 0.961 . S
H783 C767 0.961 . S
H784 C768 0.931 . S
H785 C773 0.930 . S
H786 C774 0.956 . S
H787 C774 0.961 . S
H788 C774 0.961 . S
H789 C775 0.958 . S
H790 C775 0.961 . S
H791 C775 0.960 . S
C792 C793 1.391 . S
C792 C794 1.394 . S
C792 H808 0.931 . S
C793 C792 1.391 . S
C793 C797 1.376 . S
C794 C792 1.394 . S
C794 C795 1.369 . S
C794 C798 1.531 . S
C795 C794 1.369 . S
C795 C796 1.410 . S
C795 C803 1.503 . S
C796 C795 1.410 . S
C796 C797 1.392 . S
C796 C799 1.511 . S
C797 C793 1.376 . S
C797 C796 1.392 . S
C797 H809 0.929 . S
C798 C794 1.531 . S
C798 H810 0.960 . S
C798 H811 0.962 . S
C798 H812 0.960 . S
C799 C796 1.511 . S
C799 H813 0.961 . S
C799 H814 0.961 . S
C799 H815 0.961 . S
C800 C801 1.370 1_655 S
C800 C802 1.363 . S
C800 H816 0.931 . S
C801 C800 1.370 1_455 S
C801 C805 1.408 . S
C802 C800 1.363 . S
C802 C803 1.370 . S
C802 C806 1.524 . S
C803 C795 1.503 . S
C803 C802 1.370 . S
C803 C804 1.403 1_655 S
C804 C803 1.403 1_455 S
C804 C805 1.404 . S
C804 C807 1.539 . S
C805 C801 1.408 . S
C805 C804 1.404 . S
C805 H817 0.930 . S
C806 C802 1.524 . S
C806 H818 0.956 . S
C806 H819 0.961 . S
C806 H820 0.961 . S
C807 C804 1.539 . S
C807 H821 0.958 . S
C807 H822 0.961 . S
C807 H823 0.960 1_455 S
H808 C792 0.931 . S
H809 C797 0.929 . S
H810 C798 0.960 . S
H811 C798 0.962 . S
H812 C798 0.960 . S
H813 C799 0.961 . S
H814 C799 0.961 . S
H815 C799 0.961 . S
H816 C800 0.931 . S
H817 C805 0.930 . S
H818 C806 0.956 . S
H819 C806 0.961 . S
H820 C806 0.961 . S
H821 C807 0.958 . S
H822 C807 0.961 . S
H823 C807 0.960 1_655 S
C824 C825 1.391 . S
C824 C826 1.394 . S
C824 H840 0.931 . S
C825 C824 1.391 . S
C825 C829 1.376 . S
C826 C824 1.394 . S
C826 C827 1.369 . S
C826 C830 1.531 . S
C827 C826 1.369 . S
C827 C828 1.410 . S
C827 C835 1.503 . S
C828 C827 1.410 . S
C828 C829 1.392 . S
C828 C831 1.511 . S
C829 C825 1.376 . S
C829 C828 1.392 . S
C829 H841 0.929 . S
C830 C826 1.531 . S
C830 H842 0.960 . S
C830 H843 0.962 . S
C830 H844 0.960 . S
C831 C828 1.511 . S
C831 H845 0.961 . S
C831 H846 0.961 . S
C831 H847 0.961 . S
C832 C833 1.370 . S
C832 C834 1.363 . S
C832 H848 0.931 . S
C833 C832 1.370 . S
C833 C837 1.408 . S
C834 C832 1.363 . S
C834 C835 1.370 . S
C834 C838 1.524 . S
C835 C827 1.503 . S
C835 C834 1.370 . S
C835 C836 1.403 . S
C836 C835 1.403 . S
C836 C837 1.404 . S
C836 C839 1.539 . S
C837 C833 1.408 . S
C837 C836 1.404 . S
C837 H849 0.930 . S
C838 C834 1.524 . S
C838 H850 0.956 . S
C838 H851 0.961 . S
C838 H852 0.961 . S
C839 C836 1.539 . S
C839 H853 0.958 . S
C839 H854 0.961 . S
C839 H855 0.960 . S
H840 C824 0.931 . S
H841 C829 0.929 . S
H842 C830 0.960 . S
H843 C830 0.962 . S
H844 C830 0.960 . S
H845 C831 0.961 . S
H846 C831 0.961 . S
H847 C831 0.961 . S
H848 C832 0.931 . S
H849 C837 0.930 . S
H850 C838 0.956 . S
H851 C838 0.961 . S
H852 C838 0.961 . S
H853 C839 0.958 . S
H854 C839 0.961 . S
H855 C839 0.960 . S
C856 C857 1.391 . S
C856 C858 1.394 . S
C856 H872 0.931 . S
C857 C856 1.391 . S
C857 C861 1.376 . S
C858 C856 1.394 . S
C858 C859 1.369 . S
C858 C862 1.531 . S
C859 C858 1.369 . S
C859 C860 1.410 . S
C859 C867 1.503 . S
C860 C859 1.410 . S
C860 C861 1.392 . S
C860 C863 1.511 . S
C861 C857 1.376 . S
C861 C860 1.392 . S
C861 H873 0.929 . S
C862 C858 1.531 . S
C862 H874 0.960 . S
C862 H875 0.962 . S
C862 H876 0.960 . S
C863 C860 1.511 . S
C863 H877 0.961 . S
C863 H878 0.961 . S
C863 H879 0.961 . S
C864 C865 1.370 1_545 S
C864 C866 1.363 . S
C864 H880 0.931 . S
C865 C864 1.370 1_565 S
C865 C869 1.408 . S
C866 C864 1.363 . S
C866 C867 1.370 . S
C866 C870 1.524 . S
C867 C859 1.503 . S
C867 C866 1.370 . S
C867 C868 1.403 1_545 S
C868 C867 1.403 1_565 S
C868 C869 1.404 . S
C868 C871 1.539 . S
C869 C865 1.408 . S
C869 C868 1.404 . S
C869 H881 0.930 . S
C870 C866 1.524 . S
C870 H882 0.956 . S
C870 H883 0.961 . S
C870 H884 0.961 . S
C871 C868 1.539 . S
C871 H885 0.958 . S
C871 H886 0.961 . S
C871 H887 0.960 1_565 S
H872 C856 0.931 . S
H873 C861 0.929 . S
H874 C862 0.960 . S
H875 C862 0.962 . S
H876 C862 0.960 . S
H877 C863 0.961 . S
H878 C863 0.961 . S
H879 C863 0.961 . S
H880 C864 0.931 . S
H881 C869 0.930 . S
H882 C870 0.956 . S
H883 C870 0.961 . S
H884 C870 0.961 . S
H885 C871 0.958 . S
H886 C871 0.961 . S
H887 C871 0.960 1_545 S
C888 C889 1.391 . S
C888 C890 1.394 . S
C888 H904 0.931 . S
C889 C888 1.391 . S
C889 C893 1.376 . S
C890 C888 1.394 . S
C890 C891 1.369 . S
C890 C894 1.531 . S
C891 C890 1.369 . S
C891 C892 1.410 . S
C891 C899 1.503 . S
C892 C891 1.410 . S
C892 C893 1.392 . S
C892 C895 1.511 . S
C893 C889 1.376 . S
C893 C892 1.392 . S
C893 H905 0.929 . S
C894 C890 1.531 . S
C894 H906 0.960 . S
C894 H907 0.962 . S
C894 H908 0.960 . S
C895 C892 1.511 . S
C895 H909 0.961 . S
C895 H910 0.961 . S
C895 H911 0.961 . S
C896 C897 1.370 . S
C896 C898 1.363 . S
C896 H912 0.931 . S
C897 C896 1.370 . S
C897 C901 1.408 . S
C898 C896 1.363 . S
C898 C899 1.370 . S
C898 C902 1.524 . S
C899 C891 1.503 . S
C899 C898 1.370 . S
C899 C900 1.403 . S
C900 C899 1.403 . S
C900 C901 1.404 . S
C900 C903 1.539 . S
C901 C897 1.408 . S
C901 C900 1.404 . S
C901 H913 0.930 . S
C902 C898 1.524 . S
C902 H914 0.956 . S
C902 H915 0.961 . S
C902 H916 0.961 . S
C903 C900 1.539 . S
C903 H917 0.958 . S
C903 H918 0.961 . S
C903 H919 0.960 . S
H904 C888 0.931 . S
H905 C893 0.929 . S
H906 C894 0.960 . S
H907 C894 0.962 . S
H908 C894 0.960 . S
H909 C895 0.961 . S
H910 C895 0.961 . S
H911 C895 0.961 . S
H912 C896 0.931 . S
H913 C901 0.930 . S
H914 C902 0.956 . S
H915 C902 0.961 . S
H916 C902 0.961 . S
H917 C903 0.958 . S
H918 C903 0.961 . S
H919 C903 0.960 . S
C920 C921 1.391 . S
C920 C922 1.394 . S
C920 H936 0.931 . S
C921 C920 1.391 . S
C921 C925 1.376 . S
C922 C920 1.394 . S
C922 C923 1.369 . S
C922 C926 1.531 . S
C923 C922 1.369 . S
C923 C924 1.410 . S
C923 C931 1.503 . S
C924 C923 1.410 . S
C924 C925 1.392 . S
C924 C927 1.511 . S
C925 C921 1.376 . S
C925 C924 1.392 . S
C925 H937 0.929 . S
C926 C922 1.531 . S
C926 H938 0.960 . S
C926 H939 0.962 . S
C926 H940 0.960 . S
C927 C924 1.511 . S
C927 H941 0.961 . S
C927 H942 0.961 . S
C927 H943 0.961 . S
C928 C929 1.370 . S
C928 C930 1.363 . S
C928 H944 0.931 . S
C929 C928 1.370 . S
C929 C933 1.408 . S
C930 C928 1.363 . S
C930 C931 1.370 . S
C930 C934 1.524 . S
C931 C923 1.503 . S
C931 C930 1.370 . S
C931 C932 1.403 . S
C932 C931 1.403 . S
C932 C933 1.404 . S
C932 C935 1.539 . S
C933 C929 1.408 . S
C933 C932 1.404 . S
C933 H945 0.930 . S
C934 C930 1.524 . S
C934 H946 0.956 . S
C934 H947 0.961 . S
C934 H948 0.961 . S
C935 C932 1.539 . S
C935 H949 0.958 . S
C935 H950 0.961 . S
C935 H951 0.960 . S
H936 C920 0.931 . S
H937 C925 0.929 . S
H938 C926 0.960 . S
H939 C926 0.962 . S
H940 C926 0.960 . S
H941 C927 0.961 . S
H942 C927 0.961 . S
H943 C927 0.961 . S
H944 C928 0.931 . S
H945 C933 0.930 . S
H946 C934 0.956 . S
H947 C934 0.961 . S
H948 C934 0.961 . S
H949 C935 0.958 . S
H950 C935 0.961 . S
H951 C935 0.960 . S
C952 C953 1.391 . S
C952 C954 1.394 . S
C952 H968 0.931 . S
C953 C952 1.391 . S
C953 C957 1.376 . S
C954 C952 1.394 . S
C954 C955 1.369 . S
C954 C958 1.531 . S
C955 C954 1.369 . S
C955 C956 1.410 . S
C955 C963 1.503 . S
C956 C955 1.410 . S
C956 C957 1.392 . S
C956 C959 1.511 . S
C957 C953 1.376 . S
C957 C956 1.392 . S
C957 H969 0.929 . S
C958 C954 1.531 . S
C958 H970 0.960 . S
C958 H971 0.962 . S
C958 H972 0.960 . S
C959 C956 1.511 . S
C959 H973 0.961 . S
C959 H974 0.961 . S
C959 H975 0.961 . S
C960 C961 1.370 . S
C960 C962 1.363 . S
C960 H976 0.931 . S
C961 C960 1.370 . S
C961 C965 1.408 . S
C962 C960 1.363 . S
C962 C963 1.370 . S
C962 C966 1.524 . S
C963 C955 1.503 . S
C963 C962 1.370 . S
C963 C964 1.403 . S
C964 C963 1.403 . S
C964 C965 1.404 . S
C964 C967 1.539 . S
C965 C961 1.408 . S
C965 C964 1.404 . S
C965 H977 0.930 . S
C966 C962 1.524 . S
C966 H978 0.956 . S
C966 H979 0.961 . S
C966 H980 0.961 . S
C967 C964 1.539 . S
C967 H981 0.958 . S
C967 H982 0.961 . S
C967 H983 0.960 . S
H968 C952 0.931 . S
H969 C957 0.929 . S
H970 C958 0.960 . S
H971 C958 0.962 . S
H972 C958 0.960 . S
H973 C959 0.961 . S
H974 C959 0.961 . S
H975 C959 0.961 . S
H976 C960 0.931 . S
H977 C965 0.930 . S
H978 C966 0.956 . S
H979 C966 0.961 . S
H980 C966 0.961 . S
H981 C967 0.958 . S
H982 C967 0.961 . S
H983 C967 0.960 . S
C984 C985 1.391 . S
C984 C986 1.394 . S
C984 H1000 0.931 . S
C985 C984 1.391 . S
C985 C989 1.376 . S
C986 C984 1.394 . S
C986 C987 1.369 . S
C986 C990 1.531 . S
C987 C986 1.369 . S
C987 C988 1.410 . S
C987 C995 1.503 . S
C988 C987 1.410 . S
C988 C989 1.392 . S
C988 C991 1.511 . S
C989 C985 1.376 . S
C989 C988 1.392 . S
C989 H1001 0.929 . S
C990 C986 1.531 . S
C990 H1002 0.960 . S
C990 H1003 0.962 . S
C990 H1004 0.960 . S
C991 C988 1.511 . S
C991 H1005 0.961 . S
C991 H1006 0.961 . S
C991 H1007 0.961 . S
C992 C993 1.370 . S
C992 C994 1.363 . S
C992 H1008 0.931 . S
C993 C992 1.370 . S
C993 C997 1.408 . S
C994 C992 1.363 . S
C994 C995 1.370 . S
C994 C998 1.524 . S
C995 C987 1.503 . S
C995 C994 1.370 . S
C995 C996 1.403 . S
C996 C995 1.403 . S
C996 C997 1.404 . S
C996 C999 1.539 . S
C997 C993 1.408 . S
C997 C996 1.404 . S
C997 H1009 0.930 . S
C998 C994 1.524 . S
C998 H1010 0.956 . S
C998 H1011 0.961 . S
C998 H1012 0.961 . S
C999 C996 1.539 . S
C999 H1013 0.958 . S
C999 H1014 0.961 . S
C999 H1015 0.960 . S
H1000 C984 0.931 . S
H1001 C989 0.929 . S
H1002 C990 0.960 . S
H1003 C990 0.962 . S
H1004 C990 0.960 . S
H1005 C991 0.961 . S
H1006 C991 0.961 . S
H1007 C991 0.961 . S
H1008 C992 0.931 . S
H1009 C997 0.930 . S
H1010 C998 0.956 . S
H1011 C998 0.961 . S
H1012 C998 0.961 . S
H1013 C999 0.958 . S
H1014 C999 0.961 . S
H1015 C999 0.960 . S
C1016 C1017 1.391 . S
C1016 C1018 1.394 . S
C1016 H1032 0.931 . S
C1017 C1016 1.391 . S
C1017 C1021 1.376 . S
C1018 C1016 1.394 . S
C1018 C1019 1.369 . S
C1018 C1022 1.531 . S
C1019 C1018 1.369 . S
C1019 C1020 1.410 . S
C1019 C1027 1.503 . S
C1020 C1019 1.410 . S
C1020 C1021 1.392 . S
C1020 C1023 1.511 . S
C1021 C1017 1.376 . S
C1021 C1020 1.392 . S
C1021 H1033 0.929 . S
C1022 C1018 1.531 . S
C1022 H1034 0.960 . S
C1022 H1035 0.962 . S
C1022 H1036 0.960 . S
C1023 C1020 1.511 . S
C1023 H1037 0.961 . S
C1023 H1038 0.961 . S
C1023 H1039 0.961 . S
C1024 C1025 1.370 . S
C1024 C1026 1.363 . S
C1024 H1040 0.931 . S
C1025 C1024 1.370 . S
C1025 C1029 1.408 . S
C1026 C1024 1.363 . S
C1026 C1027 1.370 . S
C1026 C1030 1.524 . S
C1027 C1019 1.503 . S
C1027 C1026 1.370 . S
C1027 C1028 1.403 . S
C1028 C1027 1.403 . S
C1028 C1029 1.404 . S
C1028 C1031 1.539 . S
C1029 C1025 1.408 . S
C1029 C1028 1.404 . S
C1029 H1041 0.930 . S
C1030 C1026 1.524 . S
C1030 H1042 0.956 . S
C1030 H1043 0.961 . S
C1030 H1044 0.961 . S
C1031 C1028 1.539 . S
C1031 H1045 0.958 . S
C1031 H1046 0.961 . S
C1031 H1047 0.960 . S
H1032 C1016 0.931 . S
H1033 C1021 0.929 . S
H1034 C1022 0.960 . S
H1035 C1022 0.962 . S
H1036 C1022 0.960 . S
H1037 C1023 0.961 . S
H1038 C1023 0.961 . S
H1039 C1023 0.961 . S
H1040 C1024 0.931 . S
H1041 C1029 0.930 . S
H1042 C1030 0.956 . S
H1043 C1030 0.961 . S
H1044 C1030 0.961 . S
H1045 C1031 0.958 . S
H1046 C1031 0.961 . S
H1047 C1031 0.960 . S
C1048 C1049 1.391 . S
C1048 C1050 1.394 . S
C1048 H1064 0.931 . S
C1049 C1048 1.391 . S
C1049 C1053 1.376 . S
C1050 C1048 1.394 . S
C1050 C1051 1.369 . S
C1050 C1054 1.531 . S
C1051 C1050 1.369 . S
C1051 C1052 1.410 . S
C1051 C1059 1.503 . S
C1052 C1051 1.410 . S
C1052 C1053 1.392 . S
C1052 C1055 1.511 . S
C1053 C1049 1.376 . S
C1053 C1052 1.392 . S
C1053 H1065 0.929 . S
C1054 C1050 1.531 . S
C1054 H1066 0.960 . S
C1054 H1067 0.962 . S
C1054 H1068 0.960 . S
C1055 C1052 1.511 . S
C1055 H1069 0.961 . S
C1055 H1070 0.961 . S
C1055 H1071 0.961 . S
C1056 C1057 1.370 . S
C1056 C1058 1.363 . S
C1056 H1072 0.931 . S
C1057 C1056 1.370 . S
C1057 C1061 1.408 . S
C1058 C1056 1.363 . S
C1058 C1059 1.370 . S
C1058 C1062 1.524 . S
C1059 C1051 1.503 . S
C1059 C1058 1.370 . S
C1059 C1060 1.403 . S
C1060 C1059 1.403 . S
C1060 C1061 1.404 . S
C1060 C1063 1.539 . S
C1061 C1057 1.408 . S
C1061 C1060 1.404 . S
C1061 H1073 0.930 . S
C1062 C1058 1.524 . S
C1062 H1074 0.956 . S
C1062 H1075 0.961 . S
C1062 H1076 0.961 . S
C1063 C1060 1.539 . S
C1063 H1077 0.958 . S
C1063 H1078 0.961 . S
C1063 H1079 0.960 . S
H1064 C1048 0.931 . S
H1065 C1053 0.929 . S
H1066 C1054 0.960 . S
H1067 C1054 0.962 . S
H1068 C1054 0.960 . S
H1069 C1055 0.961 . S
H1070 C1055 0.961 . S
H1071 C1055 0.961 . S
H1072 C1056 0.931 . S
H1073 C1061 0.930 . S
H1074 C1062 0.956 . S
H1075 C1062 0.961 . S
H1076 C1062 0.961 . S
H1077 C1063 0.958 . S
H1078 C1063 0.961 . S
H1079 C1063 0.960 . S
C1080 C1081 1.391 . S
C1080 C1082 1.394 . S
C1080 H1096 0.931 . S
C1081 C1080 1.391 . S
C1081 C1085 1.376 . S
C1082 C1080 1.394 . S
C1082 C1083 1.369 . S
C1082 C1086 1.531 . S
C1083 C1082 1.369 . S
C1083 C1084 1.410 . S
C1083 C1091 1.503 . S
C1084 C1083 1.410 . S
C1084 C1085 1.392 . S
C1084 C1087 1.511 . S
C1085 C1081 1.376 . S
C1085 C1084 1.392 . S
C1085 H1097 0.929 . S
C1086 C1082 1.531 . S
C1086 H1098 0.960 . S
C1086 H1099 0.962 . S
C1086 H1100 0.960 . S
C1087 C1084 1.511 . S
C1087 H1101 0.961 . S
C1087 H1102 0.961 . S
C1087 H1103 0.961 . S
C1088 C1089 1.370 . S
C1088 C1090 1.363 . S
C1088 H1104 0.931 . S
C1089 C1088 1.370 . S
C1089 C1093 1.408 . S
C1090 C1088 1.363 . S
C1090 C1091 1.370 . S
C1090 C1094 1.524 . S
C1091 C1083 1.503 . S
C1091 C1090 1.370 . S
C1091 C1092 1.403 . S
C1092 C1091 1.403 . S
C1092 C1093 1.404 . S
C1092 C1095 1.539 . S
C1093 C1089 1.408 . S
C1093 C1092 1.404 . S
C1093 H1105 0.930 . S
C1094 C1090 1.524 . S
C1094 H1106 0.956 . S
C1094 H1107 0.961 . S
C1094 H1108 0.961 . S
C1095 C1092 1.539 . S
C1095 H1109 0.958 . S
C1095 H1110 0.961 . S
C1095 H1111 0.960 . S
H1096 C1080 0.931 . S
H1097 C1085 0.929 . S
H1098 C1086 0.960 . S
H1099 C1086 0.962 . S
H1100 C1086 0.960 . S
H1101 C1087 0.961 . S
H1102 C1087 0.961 . S
H1103 C1087 0.961 . S
H1104 C1088 0.931 . S
H1105 C1093 0.930 . S
H1106 C1094 0.956 . S
H1107 C1094 0.961 . S
H1108 C1094 0.961 . S
H1109 C1095 0.958 . S
H1110 C1095 0.961 . S
H1111 C1095 0.960 . S
C1112 C1113 1.391 . S
C1112 C1114 1.394 . S
C1112 H1128 0.931 . S
C1113 C1112 1.391 . S
C1113 C1117 1.376 . S
C1114 C1112 1.394 . S
C1114 C1115 1.369 . S
C1114 C1118 1.531 . S
C1115 C1114 1.369 . S
C1115 C1116 1.410 . S
C1115 C1123 1.503 . S
C1116 C1115 1.410 . S
C1116 C1117 1.392 . S
C1116 C1119 1.511 . S
C1117 C1113 1.376 . S
C1117 C1116 1.392 . S
C1117 H1129 0.929 . S
C1118 C1114 1.531 . S
C1118 H1130 0.960 . S
C1118 H1131 0.962 . S
C1118 H1132 0.960 . S
C1119 C1116 1.511 . S
C1119 H1133 0.961 . S
C1119 H1134 0.961 . S
C1119 H1135 0.961 . S
C1120 C1121 1.370 . S
C1120 C1122 1.363 . S
C1120 H1136 0.931 . S
C1121 C1120 1.370 . S
C1121 C1125 1.408 . S
C1122 C1120 1.363 . S
C1122 C1123 1.370 . S
C1122 C1126 1.524 . S
C1123 C1115 1.503 . S
C1123 C1122 1.370 . S
C1123 C1124 1.403 . S
C1124 C1123 1.403 . S
C1124 C1125 1.404 . S
C1124 C1127 1.539 . S
C1125 C1121 1.408 . S
C1125 C1124 1.404 . S
C1125 H1137 0.930 . S
C1126 C1122 1.524 . S
C1126 H1138 0.956 . S
C1126 H1139 0.961 . S
C1126 H1140 0.961 . S
C1127 C1124 1.539 . S
C1127 H1141 0.958 . S
C1127 H1142 0.961 . S
C1127 H1143 0.960 . S
H1128 C1112 0.931 . S
H1129 C1117 0.929 . S
H1130 C1118 0.960 . S
H1131 C1118 0.962 . S
H1132 C1118 0.960 . S
H1133 C1119 0.961 . S
H1134 C1119 0.961 . S
H1135 C1119 0.961 . S
H1136 C1120 0.931 . S
H1137 C1125 0.930 . S
H1138 C1126 0.956 . S
H1139 C1126 0.961 . S
H1140 C1126 0.961 . S
H1141 C1127 0.958 . S
H1142 C1127 0.961 . S
H1143 C1127 0.960 . S
C1144 C1145 1.391 . S
C1144 C1146 1.394 . S
C1144 H1160 0.931 . S
C1145 C1144 1.391 . S
C1145 C1149 1.376 . S
C1146 C1144 1.394 . S
C1146 C1147 1.369 . S
C1146 C1150 1.531 . S
C1147 C1146 1.369 . S
C1147 C1148 1.410 . S
C1147 C1155 1.503 . S
C1148 C1147 1.410 . S
C1148 C1149 1.392 . S
C1148 C1151 1.511 . S
C1149 C1145 1.376 . S
C1149 C1148 1.392 . S
C1149 H1161 0.929 . S
C1150 C1146 1.531 . S
C1150 H1162 0.960 . S
C1150 H1163 0.962 . S
C1150 H1164 0.960 . S
C1151 C1148 1.511 . S
C1151 H1165 0.961 . S
C1151 H1166 0.961 . S
C1151 H1167 0.961 . S
C1152 C1153 1.370 . S
C1152 C1154 1.363 . S
C1152 H1168 0.931 . S
C1153 C1152 1.370 . S
C1153 C1157 1.408 . S
C1154 C1152 1.363 . S
C1154 C1155 1.370 . S
C1154 C1158 1.524 . S
C1155 C1147 1.503 . S
C1155 C1154 1.370 . S
C1155 C1156 1.403 . S
C1156 C1155 1.403 . S
C1156 C1157 1.404 . S
C1156 C1159 1.539 . S
C1157 C1153 1.408 . S
C1157 C1156 1.404 . S
C1157 H1169 0.930 . S
C1158 C1154 1.524 . S
C1158 H1170 0.956 . S
C1158 H1171 0.961 . S
C1158 H1172 0.961 . S
C1159 C1156 1.539 . S
C1159 H1173 0.958 . S
C1159 H1174 0.961 . S
C1159 H1175 0.960 . S
H1160 C1144 0.931 . S
H1161 C1149 0.929 . S
H1162 C1150 0.960 . S
H1163 C1150 0.962 . S
H1164 C1150 0.960 . S
H1165 C1151 0.961 . S
H1166 C1151 0.961 . S
H1167 C1151 0.961 . S
H1168 C1152 0.931 . S
H1169 C1157 0.930 . S
H1170 C1158 0.956 . S
H1171 C1158 0.961 . S
H1172 C1158 0.961 . S
H1173 C1159 0.958 . S
H1174 C1159 0.961 . S
H1175 C1159 0.960 . S
C1176 C1177 1.391 . S
C1176 C1178 1.394 . S
C1176 H1192 0.931 . S
C1177 C1176 1.391 . S
C1177 C1181 1.376 . S
C1178 C1176 1.394 . S
C1178 C1179 1.369 . S
C1178 C1182 1.531 . S
C1179 C1178 1.369 . S
C1179 C1180 1.410 . S
C1179 C1187 1.503 . S
C1180 C1179 1.410 . S
C1180 C1181 1.392 . S
C1180 C1183 1.511 . S
C1181 C1177 1.376 . S
C1181 C1180 1.392 . S
C1181 H1193 0.929 . S
C1182 C1178 1.531 . S
C1182 H1194 0.960 . S
C1182 H1195 0.962 . S
C1182 H1196 0.960 . S
C1183 C1180 1.511 . S
C1183 H1197 0.961 . S
C1183 H1198 0.961 . S
C1183 H1199 0.961 . S
C1184 C1185 1.370 . S
C1184 C1186 1.363 . S
C1184 H1200 0.931 . S
C1185 C1184 1.370 . S
C1185 C1189 1.408 . S
C1186 C1184 1.363 . S
C1186 C1187 1.370 . S
C1186 C1190 1.524 . S
C1187 C1179 1.503 . S
C1187 C1186 1.370 . S
C1187 C1188 1.403 . S
C1188 C1187 1.403 . S
C1188 C1189 1.404 . S
C1188 C1191 1.539 . S
C1189 C1185 1.408 . S
C1189 C1188 1.404 . S
C1189 H1201 0.930 . S
C1190 C1186 1.524 . S
C1190 H1202 0.956 . S
C1190 H1203 0.961 . S
C1190 H1204 0.961 . S
C1191 C1188 1.539 . S
C1191 H1205 0.958 . S
C1191 H1206 0.961 . S
C1191 H1207 0.960 . S
H1192 C1176 0.931 . S
H1193 C1181 0.929 . S
H1194 C1182 0.960 . S
H1195 C1182 0.962 . S
H1196 C1182 0.960 . S
H1197 C1183 0.961 . S
H1198 C1183 0.961 . S
H1199 C1183 0.961 . S
H1200 C1184 0.931 . S
H1201 C1189 0.930 . S
H1202 C1190 0.956 . S
H1203 C1190 0.961 . S
H1204 C1190 0.961 . S
H1205 C1191 0.958 . S
H1206 C1191 0.961 . S
H1207 C1191 0.960 . S
C1208 C1209 1.391 . S
C1208 C1210 1.394 . S
C1208 H1224 0.931 . S
C1209 C1208 1.391 . S
C1209 C1213 1.376 . S
C1210 C1208 1.394 . S
C1210 C1211 1.369 . S
C1210 C1214 1.531 . S
C1211 C1210 1.369 . S
C1211 C1212 1.410 . S
C1211 C1219 1.503 . S
C1212 C1211 1.410 . S
C1212 C1213 1.392 . S
C1212 C1215 1.511 . S
C1213 C1209 1.376 . S
C1213 C1212 1.392 . S
C1213 H1225 0.929 . S
C1214 C1210 1.531 . S
C1214 H1226 0.960 . S
C1214 H1227 0.962 . S
C1214 H1228 0.960 . S
C1215 C1212 1.511 . S
C1215 H1229 0.961 . S
C1215 H1230 0.961 . S
C1215 H1231 0.961 . S
C1216 C1217 1.370 . S
C1216 C1218 1.363 . S
C1216 H1232 0.931 . S
C1217 C1216 1.370 . S
C1217 C1221 1.408 . S
C1218 C1216 1.363 . S
C1218 C1219 1.370 . S
C1218 C1222 1.524 . S
C1219 C1211 1.503 . S
C1219 C1218 1.370 . S
C1219 C1220 1.403 . S
C1220 C1219 1.403 . S
C1220 C1221 1.404 . S
C1220 C1223 1.539 . S
C1221 C1217 1.408 . S
C1221 C1220 1.404 . S
C1221 H1233 0.930 . S
C1222 C1218 1.524 . S
C1222 H1234 0.956 . S
C1222 H1235 0.961 . S
C1222 H1236 0.961 . S
C1223 C1220 1.539 . S
C1223 H1237 0.958 . S
C1223 H1238 0.961 . S
C1223 H1239 0.960 . S
H1224 C1208 0.931 . S
H1225 C1213 0.929 . S
H1226 C1214 0.960 . S
H1227 C1214 0.962 . S
H1228 C1214 0.960 . S
H1229 C1215 0.961 . S
H1230 C1215 0.961 . S
H1231 C1215 0.961 . S
H1232 C1216 0.931 . S
H1233 C1221 0.930 . S
H1234 C1222 0.956 . S
H1235 C1222 0.961 . S
H1236 C1222 0.961 . S
H1237 C1223 0.958 . S
H1238 C1223 0.961 . S
H1239 C1223 0.960 . S
C1240 C1241 1.391 . S
C1240 C1242 1.394 . S
C1240 H1256 0.931 . S
C1241 C1240 1.391 . S
C1241 C1245 1.376 . S
C1242 C1240 1.394 . S
C1242 C1243 1.369 . S
C1242 C1246 1.531 . S
C1243 C1242 1.369 . S
C1243 C1244 1.410 . S
C1243 C1251 1.503 . S
C1244 C1243 1.410 . S
C1244 C1245 1.392 . S
C1244 C1247 1.511 . S
C1245 C1241 1.376 . S
C1245 C1244 1.392 . S
C1245 H1257 0.929 . S
C1246 C1242 1.531 . S
C1246 H1258 0.960 . S
C1246 H1259 0.962 . S
C1246 H1260 0.960 . S
C1247 C1244 1.511 . S
C1247 H1261 0.961 . S
C1247 H1262 0.961 . S
C1247 H1263 0.961 . S
C1248 C1249 1.370 . S
C1248 C1250 1.363 . S
C1248 H1264 0.931 . S
C1249 C1248 1.370 . S
C1249 C1253 1.408 . S
C1250 C1248 1.363 . S
C1250 C1251 1.370 . S
C1250 C1254 1.524 . S
C1251 C1243 1.503 . S
C1251 C1250 1.370 . S
C1251 C1252 1.403 . S
C1252 C1251 1.403 . S
C1252 C1253 1.404 . S
C1252 C1255 1.539 . S
C1253 C1249 1.408 . S
C1253 C1252 1.404 . S
C1253 H1265 0.930 . S
C1254 C1250 1.524 . S
C1254 H1266 0.956 . S
C1254 H1267 0.961 . S
C1254 H1268 0.961 . S
C1255 C1252 1.539 . S
C1255 H1269 0.958 . S
C1255 H1270 0.961 . S
C1255 H1271 0.960 . S
H1256 C1240 0.931 . S
H1257 C1245 0.929 . S
H1258 C1246 0.960 . S
H1259 C1246 0.962 . S
H1260 C1246 0.960 . S
H1261 C1247 0.961 . S
H1262 C1247 0.961 . S
H1263 C1247 0.961 . S
H1264 C1248 0.931 . S
H1265 C1253 0.930 . S
H1266 C1254 0.956 . S
H1267 C1254 0.961 . S
H1268 C1254 0.961 . S
H1269 C1255 0.958 . S
H1270 C1255 0.961 . S
H1271 C1255 0.960 . S
C1272 C1273 1.391 . S
C1272 C1274 1.394 . S
C1272 H1288 0.931 . S
C1273 C1272 1.391 . S
C1273 C1277 1.376 . S
C1274 C1272 1.394 . S
C1274 C1275 1.369 . S
C1274 C1278 1.531 . S
C1275 C1274 1.369 . S
C1275 C1276 1.410 . S
C1275 C1283 1.503 . S
C1276 C1275 1.410 . S
C1276 C1277 1.392 . S
C1276 C1279 1.511 . S
C1277 C1273 1.376 . S
C1277 C1276 1.392 . S
C1277 H1289 0.929 . S
C1278 C1274 1.531 . S
C1278 H1290 0.960 . S
C1278 H1291 0.962 . S
C1278 H1292 0.960 . S
C1279 C1276 1.511 . S
C1279 H1293 0.961 . S
C1279 H1294 0.961 . S
C1279 H1295 0.961 . S
C1280 C1281 1.370 . S
C1280 C1282 1.363 . S
C1280 H1296 0.931 . S
C1281 C1280 1.370 . S
C1281 C1285 1.408 . S
C1282 C1280 1.363 . S
C1282 C1283 1.370 . S
C1282 C1286 1.524 . S
C1283 C1275 1.503 . S
C1283 C1282 1.370 . S
C1283 C1284 1.403 . S
C1284 C1283 1.403 . S
C1284 C1285 1.404 . S
C1284 C1287 1.539 . S
C1285 C1281 1.408 . S
C1285 C1284 1.404 . S
C1285 H1297 0.930 . S
C1286 C1282 1.524 . S
C1286 H1298 0.956 . S
C1286 H1299 0.961 . S
C1286 H1300 0.961 . S
C1287 C1284 1.539 . S
C1287 H1301 0.958 . S
C1287 H1302 0.961 . S
C1287 H1303 0.960 . S
H1288 C1272 0.931 . S
H1289 C1277 0.929 . S
H1290 C1278 0.960 . S
H1291 C1278 0.962 . S
H1292 C1278 0.960 . S
H1293 C1279 0.961 . S
H1294 C1279 0.961 . S
H1295 C1279 0.961 . S
H1296 C1280 0.931 . S
H1297 C1285 0.930 . S
H1298 C1286 0.956 . S
H1299 C1286 0.961 . S
H1300 C1286 0.961 . S
H1301 C1287 0.958 . S
H1302 C1287 0.961 . S
H1303 C1287 0.960 . S
C1304 C1305 1.391 . S
C1304 C1306 1.394 . S
C1304 H1320 0.931 . S
C1305 C1304 1.391 . S
C1305 C1309 1.376 . S
C1306 C1304 1.394 . S
C1306 C1307 1.369 . S
C1306 C1310 1.531 . S
C1307 C1306 1.369 . S
C1307 C1308 1.410 . S
C1307 C1315 1.503 . S
C1308 C1307 1.410 . S
C1308 C1309 1.392 . S
C1308 C1311 1.511 . S
C1309 C1305 1.376 . S
C1309 C1308 1.392 . S
C1309 H1321 0.929 . S
C1310 C1306 1.531 . S
C1310 H1322 0.960 . S
C1310 H1323 0.962 . S
C1310 H1324 0.960 . S
C1311 C1308 1.511 . S
C1311 H1325 0.961 . S
C1311 H1326 0.961 . S
C1311 H1327 0.961 . S
C1312 C1313 1.370 . S
C1312 C1314 1.363 . S
C1312 H1328 0.931 . S
C1313 C1312 1.370 . S
C1313 C1317 1.408 . S
C1314 C1312 1.363 . S
C1314 C1315 1.370 . S
C1314 C1318 1.524 . S
C1315 C1307 1.503 . S
C1315 C1314 1.370 . S
C1315 C1316 1.403 . S
C1316 C1315 1.403 . S
C1316 C1317 1.404 . S
C1316 C1319 1.539 . S
C1317 C1313 1.408 . S
C1317 C1316 1.404 . S
C1317 H1329 0.930 . S
C1318 C1314 1.524 . S
C1318 H1330 0.956 . S
C1318 H1331 0.961 . S
C1318 H1332 0.961 . S
C1319 C1316 1.539 . S
C1319 H1333 0.958 . S
C1319 H1334 0.961 . S
C1319 H1335 0.960 . S
H1320 C1304 0.931 . S
H1321 C1309 0.929 . S
H1322 C1310 0.960 . S
H1323 C1310 0.962 . S
H1324 C1310 0.960 . S
H1325 C1311 0.961 . S
H1326 C1311 0.961 . S
H1327 C1311 0.961 . S
H1328 C1312 0.931 . S
H1329 C1317 0.930 . S
H1330 C1318 0.956 . S
H1331 C1318 0.961 . S
H1332 C1318 0.961 . S
H1333 C1319 0.958 . S
H1334 C1319 0.961 . S
H1335 C1319 0.960 . S
C1336 C1337 1.391 . S
C1336 C1338 1.394 . S
C1336 H1352 0.931 . S
C1337 C1336 1.391 . S
C1337 C1341 1.376 . S
C1338 C1336 1.394 . S
C1338 C1339 1.369 . S
C1338 C1342 1.531 . S
C1339 C1338 1.369 . S
C1339 C1340 1.410 . S
C1339 C1347 1.503 . S
C1340 C1339 1.410 . S
C1340 C1341 1.392 . S
C1340 C1343 1.511 . S
C1341 C1337 1.376 . S
C1341 C1340 1.392 . S
C1341 H1353 0.929 . S
C1342 C1338 1.531 . S
C1342 H1354 0.960 . S
C1342 H1355 0.962 . S
C1342 H1356 0.960 . S
C1343 C1340 1.511 . S
C1343 H1357 0.961 . S
C1343 H1358 0.961 . S
C1343 H1359 0.961 . S
C1344 C1345 1.370 . S
C1344 C1346 1.363 . S
C1344 H1360 0.931 . S
C1345 C1344 1.370 . S
C1345 C1349 1.408 . S
C1346 C1344 1.363 . S
C1346 C1347 1.370 . S
C1346 C1350 1.524 . S
C1347 C1339 1.503 . S
C1347 C1346 1.370 . S
C1347 C1348 1.403 . S
C1348 C1347 1.403 . S
C1348 C1349 1.404 . S
C1348 C1351 1.539 . S
C1349 C1345 1.408 . S
C1349 C1348 1.404 . S
C1349 H1361 0.930 . S
C1350 C1346 1.524 . S
C1350 H1362 0.956 . S
C1350 H1363 0.961 . S
C1350 H1364 0.961 . S
C1351 C1348 1.539 . S
C1351 H1365 0.958 . S
C1351 H1366 0.961 . S
C1351 H1367 0.960 . S
H1352 C1336 0.931 . S
H1353 C1341 0.929 . S
H1354 C1342 0.960 . S
H1355 C1342 0.962 . S
H1356 C1342 0.960 . S
H1357 C1343 0.961 . S
H1358 C1343 0.961 . S
H1359 C1343 0.961 . S
H1360 C1344 0.931 . S
H1361 C1349 0.930 . S
H1362 C1350 0.956 . S
H1363 C1350 0.961 . S
H1364 C1350 0.961 . S
H1365 C1351 0.958 . S
H1366 C1351 0.961 . S
H1367 C1351 0.960 . S
C1368 C1369 1.391 . S
C1368 C1370 1.394 . S
C1368 H1384 0.931 . S
C1369 C1368 1.391 . S
C1369 C1373 1.376 . S
C1370 C1368 1.394 . S
C1370 C1371 1.369 . S
C1370 C1374 1.531 . S
C1371 C1370 1.369 . S
C1371 C1372 1.410 . S
C1371 C1379 1.503 . S
C1372 C1371 1.410 . S
C1372 C1373 1.392 . S
C1372 C1375 1.511 . S
C1373 C1369 1.376 . S
C1373 C1372 1.392 . S
C1373 H1385 0.929 . S
C1374 C1370 1.531 . S
C1374 H1386 0.960 . S
C1374 H1387 0.962 . S
C1374 H1388 0.960 . S
C1375 C1372 1.511 . S
C1375 H1389 0.961 . S
C1375 H1390 0.961 . S
C1375 H1391 0.961 . S
C1376 C1377 1.370 . S
C1376 C1378 1.363 . S
C1376 H1392 0.931 . S
C1377 C1376 1.370 . S
C1377 C1381 1.408 . S
C1378 C1376 1.363 . S
C1378 C1379 1.370 . S
C1378 C1382 1.524 . S
C1379 C1371 1.503 . S
C1379 C1378 1.370 . S
C1379 C1380 1.403 . S
C1380 C1379 1.403 . S
C1380 C1381 1.404 . S
C1380 C1383 1.539 . S
C1381 C1377 1.408 . S
C1381 C1380 1.404 . S
C1381 H1393 0.930 . S
C1382 C1378 1.524 . S
C1382 H1394 0.956 . S
C1382 H1395 0.961 . S
C1382 H1396 0.961 . S
C1383 C1380 1.539 . S
C1383 H1397 0.958 . S
C1383 H1398 0.961 . S
C1383 H1399 0.960 . S
H1384 C1368 0.931 . S
H1385 C1373 0.929 . S
H1386 C1374 0.960 . S
H1387 C1374 0.962 . S
H1388 C1374 0.960 . S
H1389 C1375 0.961 . S
H1390 C1375 0.961 . S
H1391 C1375 0.961 . S
H1392 C1376 0.931 . S
H1393 C1381 0.930 . S
H1394 C1382 0.956 . S
H1395 C1382 0.961 . S
H1396 C1382 0.961 . S
H1397 C1383 0.958 . S
H1398 C1383 0.961 . S
H1399 C1383 0.960 . S
C1400 C1401 1.391 . S
C1400 C1402 1.394 . S
C1400 H1416 0.931 . S
C1401 C1400 1.391 . S
C1401 C1405 1.376 . S
C1402 C1400 1.394 . S
C1402 C1403 1.369 . S
C1402 C1406 1.531 . S
C1403 C1402 1.369 . S
C1403 C1404 1.410 . S
C1403 C1411 1.503 . S
C1404 C1403 1.410 . S
C1404 C1405 1.392 . S
C1404 C1407 1.511 . S
C1405 C1401 1.376 . S
C1405 C1404 1.392 . S
C1405 H1417 0.929 . S
C1406 C1402 1.531 . S
C1406 H1418 0.960 . S
C1406 H1419 0.962 . S
C1406 H1420 0.960 . S
C1407 C1404 1.511 . S
C1407 H1421 0.961 . S
C1407 H1422 0.961 . S
C1407 H1423 0.961 . S
C1408 C1409 1.370 . S
C1408 C1410 1.363 . S
C1408 H1424 0.931 . S
C1409 C1408 1.370 . S
C1409 C1413 1.408 . S
C1410 C1408 1.363 . S
C1410 C1411 1.370 . S
C1410 C1414 1.524 . S
C1411 C1403 1.503 . S
C1411 C1410 1.370 . S
C1411 C1412 1.403 . S
C1412 C1411 1.403 . S
C1412 C1413 1.404 . S
C1412 C1415 1.539 . S
C1413 C1409 1.408 . S
C1413 C1412 1.404 . S
C1413 H1425 0.930 . S
C1414 C1410 1.524 . S
C1414 H1426 0.956 . S
C1414 H1427 0.961 . S
C1414 H1428 0.961 . S
C1415 C1412 1.539 . S
C1415 H1429 0.958 . S
C1415 H1430 0.961 . S
C1415 H1431 0.960 . S
H1416 C1400 0.931 . S
H1417 C1405 0.929 . S
H1418 C1406 0.960 . S
H1419 C1406 0.962 . S
H1420 C1406 0.960 . S
H1421 C1407 0.961 . S
H1422 C1407 0.961 . S
H1423 C1407 0.961 . S
H1424 C1408 0.931 . S
H1425 C1413 0.930 . S
H1426 C1414 0.956 . S
H1427 C1414 0.961 . S
H1428 C1414 0.961 . S
H1429 C1415 0.958 . S
H1430 C1415 0.961 . S
H1431 C1415 0.960 . S
C1432 C1433 1.391 . S
C1432 C1434 1.394 . S
C1432 H1448 0.931 . S
C1433 C1432 1.391 . S
C1433 C1437 1.376 . S
C1434 C1432 1.394 . S
C1434 C1435 1.369 . S
C1434 C1438 1.531 . S
C1435 C1434 1.369 . S
C1435 C1436 1.410 . S
C1435 C1443 1.503 . S
C1436 C1435 1.410 . S
C1436 C1437 1.392 . S
C1436 C1439 1.511 . S
C1437 C1433 1.376 . S
C1437 C1436 1.392 . S
C1437 H1449 0.929 . S
C1438 C1434 1.531 . S
C1438 H1450 0.960 . S
C1438 H1451 0.962 . S
C1438 H1452 0.960 . S
C1439 C1436 1.511 . S
C1439 H1453 0.961 . S
C1439 H1454 0.961 . S
C1439 H1455 0.961 . S
C1440 C1441 1.370 . S
C1440 C1442 1.363 . S
C1440 H1456 0.931 . S
C1441 C1440 1.370 . S
C1441 C1445 1.408 . S
C1442 C1440 1.363 . S
C1442 C1443 1.370 . S
C1442 C1446 1.524 . S
C1443 C1435 1.503 . S
C1443 C1442 1.370 . S
C1443 C1444 1.403 . S
C1444 C1443 1.403 . S
C1444 C1445 1.404 . S
C1444 C1447 1.539 . S
C1445 C1441 1.408 . S
C1445 C1444 1.404 . S
C1445 H1457 0.930 . S
C1446 C1442 1.524 . S
C1446 H1458 0.956 . S
C1446 H1459 0.961 . S
C1446 H1460 0.961 . S
C1447 C1444 1.539 . S
C1447 H1461 0.958 . S
C1447 H1462 0.961 . S
C1447 H1463 0.960 . S
H1448 C1432 0.931 . S
H1449 C1437 0.929 . S
H1450 C1438 0.960 . S
H1451 C1438 0.962 . S
H1452 C1438 0.960 . S
H1453 C1439 0.961 . S
H1454 C1439 0.961 . S
H1455 C1439 0.961 . S
H1456 C1440 0.931 . S
H1457 C1445 0.930 . S
H1458 C1446 0.956 . S
H1459 C1446 0.961 . S
H1460 C1446 0.961 . S
H1461 C1447 0.958 . S
H1462 C1447 0.961 . S
H1463 C1447 0.960 . S
C1464 C1465 1.391 . S
C1464 C1466 1.394 . S
C1464 H1480 0.931 . S
C1465 C1464 1.391 . S
C1465 C1469 1.376 . S
C1466 C1464 1.394 . S
C1466 C1467 1.369 . S
C1466 C1470 1.531 . S
C1467 C1466 1.369 . S
C1467 C1468 1.410 . S
C1467 C1475 1.503 . S
C1468 C1467 1.410 . S
C1468 C1469 1.392 . S
C1468 C1471 1.511 . S
C1469 C1465 1.376 . S
C1469 C1468 1.392 . S
C1469 H1481 0.929 . S
C1470 C1466 1.531 . S
C1470 H1482 0.960 . S
C1470 H1483 0.962 . S
C1470 H1484 0.960 . S
C1471 C1468 1.511 . S
C1471 H1485 0.961 . S
C1471 H1486 0.961 . S
C1471 H1487 0.961 . S
C1472 C1473 1.370 . S
C1472 C1474 1.363 . S
C1472 H1488 0.931 . S
C1473 C1472 1.370 . S
C1473 C1477 1.408 . S
C1474 C1472 1.363 . S
C1474 C1475 1.370 . S
C1474 C1478 1.524 . S
C1475 C1467 1.503 . S
C1475 C1474 1.370 . S
C1475 C1476 1.403 . S
C1476 C1475 1.403 . S
C1476 C1477 1.404 . S
C1476 C1479 1.539 . S
C1477 C1473 1.408 . S
C1477 C1476 1.404 . S
C1477 H1489 0.930 . S
C1478 C1474 1.524 . S
C1478 H1490 0.956 . S
C1478 H1491 0.961 . S
C1478 H1492 0.961 . S
C1479 C1476 1.539 . S
C1479 H1493 0.958 . S
C1479 H1494 0.961 . S
C1479 H1495 0.960 . S
H1480 C1464 0.931 . S
H1481 C1469 0.929 . S
H1482 C1470 0.960 . S
H1483 C1470 0.962 . S
H1484 C1470 0.960 . S
H1485 C1471 0.961 . S
H1486 C1471 0.961 . S
H1487 C1471 0.961 . S
H1488 C1472 0.931 . S
H1489 C1477 0.930 . S
H1490 C1478 0.956 . S
H1491 C1478 0.961 . S
H1492 C1478 0.961 . S
H1493 C1479 0.958 . S
H1494 C1479 0.961 . S
H1495 C1479 0.960 . S
C1496 C1497 1.391 . S
C1496 C1498 1.394 . S
C1496 H1512 0.931 . S
C1497 C1496 1.391 . S
C1497 C1501 1.376 . S
C1498 C1496 1.394 . S
C1498 C1499 1.369 . S
C1498 C1502 1.531 . S
C1499 C1498 1.369 . S
C1499 C1500 1.410 . S
C1499 C1507 1.503 . S
C1500 C1499 1.410 . S
C1500 C1501 1.392 . S
C1500 C1503 1.511 . S
C1501 C1497 1.376 . S
C1501 C1500 1.392 . S
C1501 H1513 0.929 . S
C1502 C1498 1.531 . S
C1502 H1514 0.960 . S
C1502 H1515 0.962 . S
C1502 H1516 0.960 . S
C1503 C1500 1.511 . S
C1503 H1517 0.961 . S
C1503 H1518 0.961 . S
C1503 H1519 0.961 . S
C1504 C1505 1.370 . S
C1504 C1506 1.363 . S
C1504 H1520 0.931 . S
C1505 C1504 1.370 . S
C1505 C1509 1.408 . S
C1506 C1504 1.363 . S
C1506 C1507 1.370 . S
C1506 C1510 1.524 . S
C1507 C1499 1.503 . S
C1507 C1506 1.370 . S
C1507 C1508 1.403 . S
C1508 C1507 1.403 . S
C1508 C1509 1.404 . S
C1508 C1511 1.539 . S
C1509 C1505 1.408 . S
C1509 C1508 1.404 . S
C1509 H1521 0.930 . S
C1510 C1506 1.524 . S
C1510 H1522 0.956 . S
C1510 H1523 0.961 . S
C1510 H1524 0.961 . S
C1511 C1508 1.539 . S
C1511 H1525 0.958 . S
C1511 H1526 0.961 . S
C1511 H1527 0.960 . S
H1512 C1496 0.931 . S
H1513 C1501 0.929 . S
H1514 C1502 0.960 . S
H1515 C1502 0.962 . S
H1516 C1502 0.960 . S
H1517 C1503 0.961 . S
H1518 C1503 0.961 . S
H1519 C1503 0.961 . S
H1520 C1504 0.931 . S
H1521 C1509 0.930 . S
H1522 C1510 0.956 . S
H1523 C1510 0.961 . S
H1524 C1510 0.961 . S
H1525 C1511 0.958 . S
H1526 C1511 0.961 . S
H1527 C1511 0.960 . S
C1528 C1529 1.391 . S
C1528 C1530 1.394 . S
C1528 H1544 0.931 . S
C1529 C1528 1.391 . S
C1529 C1533 1.376 . S
C1530 C1528 1.394 . S
C1530 C1531 1.369 . S
C1530 C1534 1.531 . S
C1531 C1530 1.369 . S
C1531 C1532 1.410 . S
C1531 C1539 1.503 . S
C1532 C1531 1.410 . S
C1532 C1533 1.392 . S
C1532 C1535 1.511 . S
C1533 C1529 1.376 . S
C1533 C1532 1.392 . S
C1533 H1545 0.929 . S
C1534 C1530 1.531 . S
C1534 H1546 0.960 . S
C1534 H1547 0.962 . S
C1534 H1548 0.960 . S
C1535 C1532 1.511 . S
C1535 H1549 0.961 . S
C1535 H1550 0.961 . S
C1535 H1551 0.961 . S
C1536 C1537 1.370 . S
C1536 C1538 1.363 . S
C1536 H1552 0.931 . S
C1537 C1536 1.370 . S
C1537 C1541 1.408 . S
C1538 C1536 1.363 . S
C1538 C1539 1.370 . S
C1538 C1542 1.524 . S
C1539 C1531 1.503 . S
C1539 C1538 1.370 . S
C1539 C1540 1.403 . S
C1540 C1539 1.403 . S
C1540 C1541 1.404 . S
C1540 C1543 1.539 . S
C1541 C1537 1.408 . S
C1541 C1540 1.404 . S
C1541 H1553 0.930 . S
C1542 C1538 1.524 . S
C1542 H1554 0.956 . S
C1542 H1555 0.961 . S
C1542 H1556 0.961 . S
C1543 C1540 1.539 . S
C1543 H1557 0.958 . S
C1543 H1558 0.961 . S
C1543 H1559 0.960 . S
H1544 C1528 0.931 . S
H1545 C1533 0.929 . S
H1546 C1534 0.960 . S
H1547 C1534 0.962 . S
H1548 C1534 0.960 . S
H1549 C1535 0.961 . S
H1550 C1535 0.961 . S
H1551 C1535 0.961 . S
H1552 C1536 0.931 . S
H1553 C1541 0.930 . S
H1554 C1542 0.956 . S
H1555 C1542 0.961 . S
H1556 C1542 0.961 . S
H1557 C1543 0.958 . S
H1558 C1543 0.961 . S
H1559 C1543 0.960 . S
C1560 C1561 1.391 . S
C1560 C1562 1.394 . S
C1560 H1576 0.931 . S
C1561 C1560 1.391 . S
C1561 C1565 1.376 . S
C1562 C1560 1.394 . S
C1562 C1563 1.369 . S
C1562 C1566 1.531 . S
C1563 C1562 1.369 . S
C1563 C1564 1.410 . S
C1563 C1571 1.503 . S
C1564 C1563 1.410 . S
C1564 C1565 1.392 . S
C1564 C1567 1.511 . S
C1565 C1561 1.376 . S
C1565 C1564 1.392 . S
C1565 H1577 0.929 . S
C1566 C1562 1.531 . S
C1566 H1578 0.960 . S
C1566 H1579 0.962 . S
C1566 H1580 0.960 . S
C1567 C1564 1.511 . S
C1567 H1581 0.961 . S
C1567 H1582 0.961 . S
C1567 H1583 0.961 . S
C1568 C1569 1.370 . S
C1568 C1570 1.363 . S
C1568 H1584 0.931 . S
C1569 C1568 1.370 . S
C1569 C1573 1.408 . S
C1570 C1568 1.363 . S
C1570 C1571 1.370 . S
C1570 C1574 1.524 . S
C1571 C1563 1.503 . S
C1571 C1570 1.370 . S
C1571 C1572 1.403 . S
C1572 C1571 1.403 . S
C1572 C1573 1.404 . S
C1572 C1575 1.539 . S
C1573 C1569 1.408 . S
C1573 C1572 1.404 . S
C1573 H1585 0.930 . S
C1574 C1570 1.524 . S
C1574 H1586 0.956 . S
C1574 H1587 0.961 . S
C1574 H1588 0.961 . S
C1575 C1572 1.539 . S
C1575 H1589 0.958 . S
C1575 H1590 0.961 . S
C1575 H1591 0.960 . S
H1576 C1560 0.931 . S
H1577 C1565 0.929 . S
H1578 C1566 0.960 . S
H1579 C1566 0.962 . S
H1580 C1566 0.960 . S
H1581 C1567 0.961 . S
H1582 C1567 0.961 . S
H1583 C1567 0.961 . S
H1584 C1568 0.931 . S
H1585 C1573 0.930 . S
H1586 C1574 0.956 . S
H1587 C1574 0.961 . S
H1588 C1574 0.961 . S
H1589 C1575 0.958 . S
H1590 C1575 0.961 . S
H1591 C1575 0.960 . S
C1592 C1593 1.391 . S
C1592 C1594 1.394 . S
C1592 H1608 0.931 . S
C1593 C1592 1.391 . S
C1593 C1597 1.376 . S
C1594 C1592 1.394 . S
C1594 C1595 1.369 . S
C1594 C1598 1.531 . S
C1595 C1594 1.369 . S
C1595 C1596 1.410 . S
C1595 C1603 1.503 . S
C1596 C1595 1.410 . S
C1596 C1597 1.392 . S
C1596 C1599 1.511 . S
C1597 C1593 1.376 . S
C1597 C1596 1.392 . S
C1597 H1609 0.929 . S
C1598 C1594 1.531 . S
C1598 H1610 0.960 . S
C1598 H1611 0.962 . S
C1598 H1612 0.960 . S
C1599 C1596 1.511 . S
C1599 H1613 0.961 . S
C1599 H1614 0.961 . S
C1599 H1615 0.961 . S
C1600 C1601 1.370 . S
C1600 C1602 1.363 . S
C1600 H1616 0.931 . S
C1601 C1600 1.370 . S
C1601 C1605 1.408 . S
C1602 C1600 1.363 . S
C1602 C1603 1.370 . S
C1602 C1606 1.524 . S
C1603 C1595 1.503 . S
C1603 C1602 1.370 . S
C1603 C1604 1.403 . S
C1604 C1603 1.403 . S
C1604 C1605 1.404 . S
C1604 C1607 1.539 . S
C1605 C1601 1.408 . S
C1605 C1604 1.404 . S
C1605 H1617 0.930 . S
C1606 C1602 1.524 . S
C1606 H1618 0.956 . S
C1606 H1619 0.961 . S
C1606 H1620 0.961 . S
C1607 C1604 1.539 . S
C1607 H1621 0.958 . S
C1607 H1622 0.961 . S
C1607 H1623 0.960 . S
H1608 C1592 0.931 . S
H1609 C1597 0.929 . S
H1610 C1598 0.960 . S
H1611 C1598 0.962 . S
H1612 C1598 0.960 . S
H1613 C1599 0.961 . S
H1614 C1599 0.961 . S
H1615 C1599 0.961 . S
H1616 C1600 0.931 . S
H1617 C1605 0.930 . S
H1618 C1606 0.956 . S
H1619 C1606 0.961 . S
H1620 C1606 0.961 . S
H1621 C1607 0.958 . S
H1622 C1607 0.961 . S
H1623 C1607 0.960 . S
C1624 C1625 1.391 . S
C1624 C1626 1.394 . S
C1624 H1640 0.931 . S
C1625 C1624 1.391 . S
C1625 C1629 1.376 . S
C1626 C1624 1.394 . S
C1626 C1627 1.369 . S
C1626 C1630 1.531 . S
C1627 C1626 1.369 . S
C1627 C1628 1.410 . S
C1627 C1635 1.503 . S
C1628 C1627 1.410 . S
C1628 C1629 1.392 . S
C1628 C1631 1.511 . S
C1629 C1625 1.376 . S
C1629 C1628 1.392 . S
C1629 H1641 0.929 . S
C1630 C1626 1.531 . S
C1630 H1642 0.960 . S
C1630 H1643 0.962 . S
C1630 H1644 0.960 . S
C1631 C1628 1.511 . S
C1631 H1645 0.961 . S
C1631 H1646 0.961 . S
C1631 H1647 0.961 . S
C1632 C1633 1.370 . S
C1632 C1634 1.363 . S
C1632 H1648 0.931 . S
C1633 C1632 1.370 . S
C1633 C1637 1.408 . S
C1634 C1632 1.363 . S
C1634 C1635 1.370 . S
C1634 C1638 1.524 . S
C1635 C1627 1.503 . S
C1635 C1634 1.370 . S
C1635 C1636 1.403 . S
C1636 C1635 1.403 . S
C1636 C1637 1.404 . S
C1636 C1639 1.539 . S
C1637 C1633 1.408 . S
C1637 C1636 1.404 . S
C1637 H1649 0.930 . S
C1638 C1634 1.524 . S
C1638 H1650 0.956 . S
C1638 H1651 0.961 . S
C1638 H1652 0.961 . S
C1639 C1636 1.539 . S
C1639 H1653 0.958 . S
C1639 H1654 0.961 . S
C1639 H1655 0.960 . S
H1640 C1624 0.931 . S
H1641 C1629 0.929 . S
H1642 C1630 0.960 . S
H1643 C1630 0.962 . S
H1644 C1630 0.960 . S
H1645 C1631 0.961 . S
H1646 C1631 0.961 . S
H1647 C1631 0.961 . S
H1648 C1632 0.931 . S
H1649 C1637 0.930 . S
H1650 C1638 0.956 . S
H1651 C1638 0.961 . S
H1652 C1638 0.961 . S
H1653 C1639 0.958 . S
H1654 C1639 0.961 . S
H1655 C1639 0.960 . S
C1656 C1657 1.391 . S
C1656 C1658 1.394 . S
C1656 H1672 0.931 . S
C1657 C1656 1.391 . S
C1657 C1661 1.376 . S
C1658 C1656 1.394 . S
C1658 C1659 1.369 . S
C1658 C1662 1.531 . S
C1659 C1658 1.369 . S
C1659 C1660 1.410 . S
C1659 C1667 1.503 . S
C1660 C1659 1.410 . S
C1660 C1661 1.392 . S
C1660 C1663 1.511 . S
C1661 C1657 1.376 . S
C1661 C1660 1.392 . S
C1661 H1673 0.929 . S
C1662 C1658 1.531 . S
C1662 H1674 0.960 . S
C1662 H1675 0.962 . S
C1662 H1676 0.960 . S
C1663 C1660 1.511 . S
C1663 H1677 0.961 . S
C1663 H1678 0.961 . S
C1663 H1679 0.961 . S
C1664 C1665 1.370 . S
C1664 C1666 1.363 . S
C1664 H1680 0.931 . S
C1665 C1664 1.370 . S
C1665 C1669 1.408 . S
C1666 C1664 1.363 . S
C1666 C1667 1.370 . S
C1666 C1670 1.524 . S
C1667 C1659 1.503 . S
C1667 C1666 1.370 . S
C1667 C1668 1.403 . S
C1668 C1667 1.403 . S
C1668 C1669 1.404 . S
C1668 C1671 1.539 . S
C1669 C1665 1.408 . S
C1669 C1668 1.404 . S
C1669 H1681 0.930 . S
C1670 C1666 1.524 . S
C1670 H1682 0.956 . S
C1670 H1683 0.961 . S
C1670 H1684 0.961 . S
C1671 C1668 1.539 . S
C1671 H1685 0.958 . S
C1671 H1686 0.961 . S
C1671 H1687 0.960 . S
H1672 C1656 0.931 . S
H1673 C1661 0.929 . S
H1674 C1662 0.960 . S
H1675 C1662 0.962 . S
H1676 C1662 0.960 . S
H1677 C1663 0.961 . S
H1678 C1663 0.961 . S
H1679 C1663 0.961 . S
H1680 C1664 0.931 . S
H1681 C1669 0.930 . S
H1682 C1670 0.956 . S
H1683 C1670 0.961 . S
H1684 C1670 0.961 . S
H1685 C1671 0.958 . S
H1686 C1671 0.961 . S
H1687 C1671 0.960 . S
C1688 C1689 1.391 . S
C1688 C1690 1.413 . S
C1688 H1704 0.931 . S
C1689 C1688 1.391 . S
C1689 C1693 1.376 . S
C1690 C1688 1.413 . S
C1690 C1691 1.386 . S
C1690 C1694 1.494 1_565 S
C1691 C1690 1.386 . S
C1691 C1692 1.410 . S
C1691 C1699 1.503 1_565 S
C1692 C1691 1.410 . S
C1692 C1693 1.392 . S
C1692 C1695 1.511 . S
C1693 C1689 1.376 . S
C1693 C1692 1.392 . S
C1693 H1705 0.929 . S
C1694 C1690 1.494 1_545 S
C1694 H1706 0.960 . S
C1694 H1707 0.962 . S
C1694 H1708 0.960 . S
C1695 C1692 1.511 . S
C1695 H1709 0.961 . S
C1695 H1710 0.961 . S
C1695 H1711 0.961 . S
C1696 C1697 1.370 . S
C1696 C1698 1.363 . S
C1696 H1712 0.931 . S
C1697 C1696 1.370 . S
C1697 C1701 1.408 . S
C1698 C1696 1.363 . S
C1698 C1699 1.370 . S
C1698 C1702 1.524 1_545 S
C1699 C1691 1.503 1_545 S
C1699 C1698 1.370 . S
C1699 C1700 1.403 . S
C1700 C1699 1.403 . S
C1700 C1701 1.404 . S
C1700 C1703 1.539 . S
C1701 C1697 1.408 . S
C1701 C1700 1.404 . S
C1701 H1713 0.930 . S
C1702 C1698 1.524 1_565 S
C1702 H1714 0.956 . S
C1702 H1715 0.961 . S
C1702 H1716 0.961 . S
C1703 C1700 1.539 . S
C1703 H1717 0.958 . S
C1703 H1718 0.961 . S
C1703 H1719 0.960 . S
H1704 C1688 0.931 . S
H1705 C1693 0.929 . S
H1706 C1694 0.960 . S
H1707 C1694 0.962 . S
H1708 C1694 0.960 . S
H1709 C1695 0.961 . S
H1710 C1695 0.961 . S
H1711 C1695 0.961 . S
H1712 C1696 0.931 . S
H1713 C1701 0.930 . S
H1714 C1702 0.956 . S
H1715 C1702 0.961 . S
H1716 C1702 0.961 . S
H1717 C1703 0.958 . S
H1718 C1703 0.961 . S
H1719 C1703 0.960 . S
C1720 C1721 1.391 . S
C1720 C1722 1.394 . S
C1720 H1736 0.931 . S
C1721 C1720 1.391 . S
C1721 C1725 1.376 . S
C1722 C1720 1.394 . S
C1722 C1723 1.369 . S
C1722 C1726 1.486 1_655 S
C1723 C1722 1.369 . S
C1723 C1724 1.410 . S
C1723 C1731 1.503 1_655 S
C1724 C1723 1.410 . S
C1724 C1725 1.392 . S
C1724 C1727 1.511 . S
C1725 C1721 1.376 . S
C1725 C1724 1.392 . S
C1725 H1737 0.929 . S
C1726 C1722 1.486 1_455 S
C1726 H1738 1.002 . S
C1726 H1739 0.946 1_455 S
C1726 H1740 0.983 . S
C1727 C1724 1.511 . S
C1727 H1741 0.961 . S
C1727 H1742 0.961 . S
C1727 H1743 0.961 1_655 S
C1728 C1729 1.370 . S
C1728 C1730 1.390 . S
C1728 H1744 0.931 . S
C1729 C1728 1.370 . S
C1729 C1733 1.408 . S
C1730 C1728 1.390 . S
C1730 C1731 1.388 . S
C1730 C1734 1.482 1_455 S
C1731 C1723 1.503 1_455 S
C1731 C1730 1.388 . S
C1731 C1732 1.403 . S
C1732 C1731 1.403 . S
C1732 C1733 1.404 . S
C1732 C1735 1.539 . S
C1733 C1729 1.408 . S
C1733 C1732 1.404 . S
C1733 H1745 0.930 . S
C1734 C1730 1.482 1_655 S
C1734 H1746 0.956 . S
C1734 H1747 0.961 . S
C1734 H1748 0.961 . S
C1735 C1732 1.539 . S
C1735 H1749 0.958 . S
C1735 H1750 0.961 . S
C1735 H1751 0.960 . S
H1736 C1720 0.931 . S
H1737 C1725 0.929 . S
H1738 C1726 1.002 . S
H1739 C1726 0.946 1_655 S
H1740 C1726 0.983 . S
H1741 C1727 0.961 . S
H1742 C1727 0.961 . S
H1743 C1727 0.961 1_455 S
H1744 C1728 0.931 . S
H1745 C1733 0.930 . S
H1746 C1734 0.956 . S
H1747 C1734 0.961 . S
H1748 C1734 0.961 . S
H1749 C1735 0.958 . S
H1750 C1735 0.961 . S
H1751 C1735 0.960 . S
C1752 C1753 1.391 . S
C1752 C1754 1.394 . S
C1752 H1768 0.931 . S
C1753 C1752 1.391 . S
C1753 C1757 1.376 . S
C1754 C1752 1.394 . S
C1754 C1755 1.369 . S
C1754 C1758 1.531 . S
C1755 C1754 1.369 . S
C1755 C1756 1.410 . S
C1755 C1763 1.503 . S
C1756 C1755 1.410 . S
C1756 C1757 1.392 . S
C1756 C1759 1.511 . S
C1757 C1753 1.376 . S
C1757 C1756 1.392 . S
C1757 H1769 0.929 . S
C1758 C1754 1.531 . S
C1758 H1770 0.960 . S
C1758 H1771 0.962 . S
C1758 H1772 0.960 . S
C1759 C1756 1.511 . S
C1759 H1773 0.961 . S
C1759 H1774 0.961 . S
C1759 H1775 0.961 . S
C1760 C1761 1.370 . S
C1760 C1762 1.363 . S
C1760 H1776 0.931 . S
C1761 C1760 1.370 . S
C1761 C1765 1.408 . S
C1762 C1760 1.363 . S
C1762 C1763 1.370 . S
C1762 C1766 1.524 . S
C1763 C1755 1.503 . S
C1763 C1762 1.370 . S
C1763 C1764 1.403 . S
C1764 C1763 1.403 . S
C1764 C1765 1.404 . S
C1764 C1767 1.539 . S
C1765 C1761 1.408 . S
C1765 C1764 1.404 . S
C1765 H1777 0.930 . S
C1766 C1762 1.524 . S
C1766 H1778 0.956 . S
C1766 H1779 0.961 . S
C1766 H1780 0.961 . S
C1767 C1764 1.539 . S
C1767 H1781 0.958 . S
C1767 H1782 0.961 . S
C1767 H1783 0.960 . S
H1768 C1752 0.931 . S
H1769 C1757 0.929 . S
H1770 C1758 0.960 . S
H1771 C1758 0.962 . S
H1772 C1758 0.960 . S
H1773 C1759 0.961 . S
H1774 C1759 0.961 . S
H1775 C1759 0.961 . S
H1776 C1760 0.931 . S
H1777 C1765 0.930 . S
H1778 C1766 0.956 . S
H1779 C1766 0.961 . S
H1780 C1766 0.961 . S
H1781 C1767 0.958 . S
H1782 C1767 0.961 . S
H1783 C1767 0.960 . S
C1784 C1785 1.391 . S
C1784 C1786 1.394 . S
C1784 H1800 0.931 . S
C1785 C1784 1.391 . S
C1785 C1789 1.376 . S
C1786 C1784 1.394 . S
C1786 C1787 1.369 . S
C1786 C1790 1.531 . S
C1787 C1786 1.369 . S
C1787 C1788 1.410 . S
C1787 C1795 1.503 1_545 S
C1788 C1787 1.410 . S
C1788 C1789 1.392 . S
C1788 C1791 1.511 1_545 S
C1789 C1785 1.376 . S
C1789 C1788 1.392 . S
C1789 H1801 0.929 . S
C1790 C1786 1.531 . S
C1790 H1802 0.960 . S
C1790 H1803 0.962 . S
C1790 H1804 0.960 . S
C1791 C1788 1.511 1_565 S
C1791 H1805 0.961 . S
C1791 H1806 0.961 . S
C1791 H1807 0.961 . S
C1792 C1793 1.370 . S
C1792 C1794 1.363 . S
C1792 H1808 0.931 . S
C1793 C1792 1.370 . S
C1793 C1797 1.408 . S
C1794 C1792 1.363 . S
C1794 C1795 1.370 . S
C1794 C1798 1.524 . S
C1795 C1787 1.503 1_565 S
C1795 C1794 1.370 . S
C1795 C1796 1.403 . S
C1796 C1795 1.403 . S
C1796 C1797 1.404 . S
C1796 C1799 1.539 1_565 S
C1797 C1793 1.408 . S
C1797 C1796 1.404 . S
C1797 H1809 0.930 . S
C1798 C1794 1.524 . S
C1798 H1810 0.956 . S
C1798 H1811 0.961 . S
C1798 H1812 0.961 . S
C1799 C1796 1.539 1_545 S
C1799 H1813 0.958 . S
C1799 H1814 0.961 . S
C1799 H1815 0.960 . S
H1800 C1784 0.931 . S
H1801 C1789 0.929 . S
H1802 C1790 0.960 . S
H1803 C1790 0.962 . S
H1804 C1790 0.960 . S
H1805 C1791 0.961 . S
H1806 C1791 0.961 . S
H1807 C1791 0.961 . S
H1808 C1792 0.931 . S
H1809 C1797 0.930 . S
H1810 C1798 0.956 . S
H1811 C1798 0.961 . S
H1812 C1798 0.961 . S
H1813 C1799 0.958 . S
H1814 C1799 0.961 . S
H1815 C1799 0.960 . S
C1816 C1817 1.391 . S
C1816 C1818 1.394 . S
C1816 H1832 0.931 . S
C1817 C1816 1.391 . S
C1817 C1821 1.376 . S
C1818 C1816 1.394 . S
C1818 C1819 1.369 . S
C1818 C1822 1.531 . S
C1819 C1818 1.369 . S
C1819 C1820 1.410 . S
C1819 C1827 1.503 1_655 S
C1820 C1819 1.410 . S
C1820 C1821 1.392 . S
C1820 C1823 1.511 1_655 S
C1821 C1817 1.376 . S
C1821 C1820 1.392 . S
C1821 H1833 0.929 . S
C1822 C1818 1.531 . S
C1822 H1834 0.960 . S
C1822 H1835 0.962 . S
C1822 H1836 0.960 . S
C1823 C1820 1.511 1_455 S
C1823 H1837 0.961 . S
C1823 H1838 0.961 . S
C1823 H1839 0.961 . S
C1824 C1825 1.370 . S
C1824 C1826 1.363 . S
C1824 H1840 0.931 . S
C1825 C1824 1.370 . S
C1825 C1829 1.408 . S
C1826 C1824 1.363 . S
C1826 C1827 1.370 . S
C1826 C1830 1.524 . S
C1827 C1819 1.503 1_455 S
C1827 C1826 1.370 . S
C1827 C1828 1.403 . S
C1828 C1827 1.403 . S
C1828 C1829 1.404 . S
C1828 C1831 1.539 1_455 S
C1829 C1825 1.408 . S
C1829 C1828 1.404 . S
C1829 H1841 0.930 . S
C1830 C1826 1.524 . S
C1830 H1842 0.956 . S
C1830 H1843 0.961 . S
C1830 H1844 0.961 . S
C1831 C1828 1.539 1_655 S
C1831 H1845 0.958 . S
C1831 H1846 0.961 . S
C1831 H1847 0.960 . S
H1832 C1816 0.931 . S
H1833 C1821 0.929 . S
H1834 C1822 0.960 . S
H1835 C1822 0.962 . S
H1836 C1822 0.960 . S
H1837 C1823 0.961 . S
H1838 C1823 0.961 . S
H1839 C1823 0.961 . S
H1840 C1824 0.931 . S
H1841 C1829 0.930 . S
H1842 C1830 0.956 . S
H1843 C1830 0.961 . S
H1844 C1830 0.961 . S
H1845 C1831 0.958 . S
H1846 C1831 0.961 . S
H1847 C1831 0.960 . S
C1848 C1849 1.391 . S
C1848 C1850 1.394 . S
C1848 H1864 0.931 . S
C1849 C1848 1.391 . S
C1849 C1853 1.376 . S
C1850 C1848 1.394 . S
C1850 C1851 1.369 . S
C1850 C1854 1.531 . S
C1851 C1850 1.369 . S
C1851 C1852 1.410 . S
C1851 C1859 1.503 . S
C1852 C1851 1.410 . S
C1852 C1853 1.392 . S
C1852 C1855 1.511 . S
C1853 C1849 1.376 . S
C1853 C1852 1.392 . S
C1853 H1865 0.929 . S
C1854 C1850 1.531 . S
C1854 H1866 0.960 . S
C1854 H1867 0.962 . S
C1854 H1868 0.960 . S
C1855 C1852 1.511 . S
C1855 H1869 0.961 . S
C1855 H1870 0.961 . S
C1855 H1871 0.961 . S
C1856 C1857 1.370 . S
C1856 C1858 1.363 . S
C1856 H1872 0.931 . S
C1857 C1856 1.370 . S
C1857 C1861 1.408 . S
C1858 C1856 1.363 . S
C1858 C1859 1.370 . S
C1858 C1862 1.524 . S
C1859 C1851 1.503 . S
C1859 C1858 1.370 . S
C1859 C1860 1.403 . S
C1860 C1859 1.403 . S
C1860 C1861 1.404 . S
C1860 C1863 1.539 . S
C1861 C1857 1.408 . S
C1861 C1860 1.404 . S
C1861 H1873 0.930 . S
C1862 C1858 1.524 . S
C1862 H1874 0.956 . S
C1862 H1875 0.961 . S
C1862 H1876 0.961 . S
C1863 C1860 1.539 . S
C1863 H1877 0.958 . S
C1863 H1878 0.961 . S
C1863 H1879 0.960 . S
H1864 C1848 0.931 . S
H1865 C1853 0.929 . S
H1866 C1854 0.960 . S
H1867 C1854 0.962 . S
H1868 C1854 0.960 . S
H1869 C1855 0.961 . S
H1870 C1855 0.961 . S
H1871 C1855 0.961 . S
H1872 C1856 0.931 . S
H1873 C1861 0.930 . S
H1874 C1862 0.956 . S
H1875 C1862 0.961 . S
H1876 C1862 0.961 . S
H1877 C1863 0.958 . S
H1878 C1863 0.961 . S
H1879 C1863 0.960 . S
C1880 C1881 1.391 . S
C1880 C1882 1.394 . S
C1880 H1896 0.931 . S
C1881 C1880 1.391 . S
C1881 C1885 1.376 . S
C1882 C1880 1.394 . S
C1882 C1883 1.369 . S
C1882 C1886 1.531 . S
C1883 C1882 1.369 . S
C1883 C1884 1.410 . S
C1883 C1891 1.503 . S
C1884 C1883 1.410 . S
C1884 C1885 1.392 . S
C1884 C1887 1.511 . S
C1885 C1881 1.376 . S
C1885 C1884 1.392 . S
C1885 H1897 0.929 . S
C1886 C1882 1.531 . S
C1886 H1898 0.960 . S
C1886 H1899 0.962 . S
C1886 H1900 0.960 . S
C1887 C1884 1.511 . S
C1887 H1901 0.961 . S
C1887 H1902 0.961 . S
C1887 H1903 0.961 . S
C1888 C1889 1.370 . S
C1888 C1890 1.363 . S
C1888 H1904 0.931 . S
C1889 C1888 1.370 . S
C1889 C1893 1.408 . S
C1890 C1888 1.363 . S
C1890 C1891 1.370 . S
C1890 C1894 1.524 . S
C1891 C1883 1.503 . S
C1891 C1890 1.370 . S
C1891 C1892 1.403 . S
C1892 C1891 1.403 . S
C1892 C1893 1.404 . S
C1892 C1895 1.539 . S
C1893 C1889 1.408 . S
C1893 C1892 1.404 . S
C1893 H1905 0.930 . S
C1894 C1890 1.524 . S
C1894 H1906 0.956 . S
C1894 H1907 0.961 . S
C1894 H1908 0.961 . S
C1895 C1892 1.539 . S
C1895 H1909 0.958 . S
C1895 H1910 0.961 . S
C1895 H1911 0.960 . S
H1896 C1880 0.931 . S
H1897 C1885 0.929 . S
H1898 C1886 0.960 . S
H1899 C1886 0.962 . S
H1900 C1886 0.960 . S
H1901 C1887 0.961 . S
H1902 C1887 0.961 . S
H1903 C1887 0.961 . S
H1904 C1888 0.931 . S
H1905 C1893 0.930 . S
H1906 C1894 0.956 . S
H1907 C1894 0.961 . S
H1908 C1894 0.961 . S
H1909 C1895 0.958 . S
H1910 C1895 0.961 . S
H1911 C1895 0.960 . S
C1912 C1913 1.391 . S
C1912 C1914 1.394 . S
C1912 H1928 0.931 . S
C1913 C1912 1.391 . S
C1913 C1917 1.376 . S
C1914 C1912 1.394 . S
C1914 C1915 1.369 . S
C1914 C1918 1.531 . S
C1915 C1914 1.369 . S
C1915 C1916 1.410 . S
C1915 C1923 1.503 . S
C1916 C1915 1.410 . S
C1916 C1917 1.392 . S
C1916 C1919 1.511 . S
C1917 C1913 1.376 . S
C1917 C1916 1.392 . S
C1917 H1929 0.929 . S
C1918 C1914 1.531 . S
C1918 H1930 0.960 . S
C1918 H1931 0.962 . S
C1918 H1932 0.960 . S
C1919 C1916 1.511 . S
C1919 H1933 0.961 . S
C1919 H1934 0.961 . S
C1919 H1935 0.961 . S
C1920 C1921 1.370 . S
C1920 C1922 1.363 . S
C1920 H1936 0.931 . S
C1921 C1920 1.370 . S
C1921 C1925 1.408 . S
C1922 C1920 1.363 . S
C1922 C1923 1.370 . S
C1922 C1926 1.524 . S
C1923 C1915 1.503 . S
C1923 C1922 1.370 . S
C1923 C1924 1.403 . S
C1924 C1923 1.403 . S
C1924 C1925 1.404 . S
C1924 C1927 1.539 . S
C1925 C1921 1.408 . S
C1925 C1924 1.404 . S
C1925 H1937 0.930 . S
C1926 C1922 1.524 . S
C1926 H1938 0.956 . S
C1926 H1939 0.961 . S
C1926 H1940 0.961 . S
C1927 C1924 1.539 . S
C1927 H1941 0.958 . S
C1927 H1942 0.961 . S
C1927 H1943 0.960 . S
H1928 C1912 0.931 . S
H1929 C1917 0.929 . S
H1930 C1918 0.960 . S
H1931 C1918 0.962 . S
H1932 C1918 0.960 . S
H1933 C1919 0.961 . S
H1934 C1919 0.961 . S
H1935 C1919 0.961 . S
H1936 C1920 0.931 . S
H1937 C1925 0.930 . S
H1938 C1926 0.956 . S
H1939 C1926 0.961 . S
H1940 C1926 0.961 . S
H1941 C1927 0.958 . S
H1942 C1927 0.961 . S
H1943 C1927 0.960 . S
C1944 C1945 1.391 . S
C1944 C1946 1.394 . S
C1944 H1960 0.931 . S
C1945 C1944 1.391 . S
C1945 C1949 1.376 . S
C1946 C1944 1.394 . S
C1946 C1947 1.369 . S
C1946 C1950 1.531 . S
C1947 C1946 1.369 . S
C1947 C1948 1.410 . S
C1947 C1955 1.503 . S
C1948 C1947 1.410 . S
C1948 C1949 1.392 . S
C1948 C1951 1.511 . S
C1949 C1945 1.376 . S
C1949 C1948 1.392 . S
C1949 H1961 0.929 . S
C1950 C1946 1.531 . S
C1950 H1962 0.960 . S
C1950 H1963 0.962 . S
C1950 H1964 0.960 . S
C1951 C1948 1.511 . S
C1951 H1965 0.961 . S
C1951 H1966 0.961 . S
C1951 H1967 0.961 . S
C1952 C1953 1.370 . S
C1952 C1954 1.363 . S
C1952 H1968 0.931 . S
C1953 C1952 1.370 . S
C1953 C1957 1.408 . S
C1954 C1952 1.363 . S
C1954 C1955 1.370 . S
C1954 C1958 1.524 . S
C1955 C1947 1.503 . S
C1955 C1954 1.370 . S
C1955 C1956 1.403 . S
C1956 C1955 1.403 . S
C1956 C1957 1.404 . S
C1956 C1959 1.539 . S
C1957 C1953 1.408 . S
C1957 C1956 1.404 . S
C1957 H1969 0.930 . S
C1958 C1954 1.524 . S
C1958 H1970 0.956 . S
C1958 H1971 0.961 . S
C1958 H1972 0.961 . S
C1959 C1956 1.539 . S
C1959 H1973 0.958 . S
C1959 H1974 0.961 . S
C1959 H1975 0.960 . S
H1960 C1944 0.931 . S
H1961 C1949 0.929 . S
H1962 C1950 0.960 . S
H1963 C1950 0.962 . S
H1964 C1950 0.960 . S
H1965 C1951 0.961 . S
H1966 C1951 0.961 . S
H1967 C1951 0.961 . S
H1968 C1952 0.931 . S
H1969 C1957 0.930 . S
H1970 C1958 0.956 . S
H1971 C1958 0.961 . S
H1972 C1958 0.961 . S
H1973 C1959 0.958 . S
H1974 C1959 0.961 . S
H1975 C1959 0.960 . S
C1976 C1977 1.391 . S
C1976 C1978 1.394 . S
C1976 H1992 0.931 . S
C1977 C1976 1.391 . S
C1977 C1981 1.376 . S
C1978 C1976 1.394 . S
C1978 C1979 1.369 . S
C1978 C1982 1.531 . S
C1979 C1978 1.369 . S
C1979 C1980 1.410 . S
C1979 C1987 1.503 . S
C1980 C1979 1.410 . S
C1980 C1981 1.392 . S
C1980 C1983 1.511 . S
C1981 C1977 1.376 . S
C1981 C1980 1.392 . S
C1981 H1993 0.929 1_554 S
C1982 C1978 1.531 . S
C1982 H1994 0.960 . S
C1982 H1995 0.962 . S
C1982 H1996 0.960 . S
C1983 C1980 1.511 . S
C1983 H1997 0.961 . S
C1983 H1998 0.961 . S
C1983 H1999 0.961 . S
C1984 C1985 1.370 . S
C1984 C1986 1.363 . S
C1984 H2000 0.931 . S
C1985 C1984 1.370 . S
C1985 C1989 1.408 . S
C1986 C1984 1.363 . S
C1986 C1987 1.370 . S
C1986 C1990 1.524 . S
C1987 C1979 1.503 . S
C1987 C1986 1.370 . S
C1987 C1988 1.403 . S
C1988 C1987 1.403 . S
C1988 C1989 1.404 . S
C1988 C1991 1.539 . S
C1989 C1985 1.408 . S
C1989 C1988 1.404 . S
C1989 H2001 0.930 . S
C1990 C1986 1.524 . S
C1990 H2002 0.956 . S
C1990 H2003 0.961 . S
C1990 H2004 0.961 . S
C1991 C1988 1.539 . S
C1991 H2005 0.958 . S
C1991 H2006 0.961 . S
C1991 H2007 0.960 . S
H1992 C1976 0.931 . S
H1993 C1981 0.929 1_556 S
H1994 C1982 0.960 . S
H1995 C1982 0.962 . S
H1996 C1982 0.960 . S
H1997 C1983 0.961 . S
H1998 C1983 0.961 . S
H1999 C1983 0.961 . S
H2000 C1984 0.931 . S
H2001 C1989 0.930 . S
H2002 C1990 0.956 . S
H2003 C1990 0.961 . S
H2004 C1990 0.961 . S
H2005 C1991 0.958 . S
H2006 C1991 0.961 . S
H2007 C1991 0.960 . S
C2008 C2009 1.391 . S
C2008 C2010 1.394 . S
C2008 H2024 0.931 . S
C2009 C2008 1.391 . S
C2009 C2013 1.376 . S
C2010 C2008 1.394 . S
C2010 C2011 1.369 . S
C2010 C2014 1.531 . S
C2011 C2010 1.369 . S
C2011 C2012 1.410 . S
C2011 C2019 1.503 . S
C2012 C2011 1.410 . S
C2012 C2013 1.392 . S
C2012 C2015 1.511 . S
C2013 C2009 1.376 . S
C2013 C2012 1.392 . S
C2013 H2025 0.929 1_554 S
C2014 C2010 1.531 . S
C2014 H2026 0.960 . S
C2014 H2027 0.962 . S
C2014 H2028 0.960 . S
C2015 C2012 1.511 . S
C2015 H2029 0.961 . S
C2015 H2030 0.961 . S
C2015 H2031 0.961 . S
C2016 C2017 1.370 . S
C2016 C2018 1.363 . S
C2016 H2032 0.931 . S
C2017 C2016 1.370 . S
C2017 C2021 1.408 . S
C2018 C2016 1.363 . S
C2018 C2019 1.370 . S
C2018 C2022 1.524 . S
C2019 C2011 1.503 . S
C2019 C2018 1.370 . S
C2019 C2020 1.403 . S
C2020 C2019 1.403 . S
C2020 C2021 1.404 . S
C2020 C2023 1.539 . S
C2021 C2017 1.408 . S
C2021 C2020 1.404 . S
C2021 H2033 0.930 . S
C2022 C2018 1.524 . S
C2022 H2034 0.956 . S
C2022 H2035 0.961 . S
C2022 H2036 0.961 . S
C2023 C2020 1.539 . S
C2023 H2037 0.958 . S
C2023 H2038 0.961 . S
C2023 H2039 0.960 . S
H2024 C2008 0.931 . S
H2025 C2013 0.929 1_556 S
H2026 C2014 0.960 . S
H2027 C2014 0.962 . S
H2028 C2014 0.960 . S
H2029 C2015 0.961 . S
H2030 C2015 0.961 . S
H2031 C2015 0.961 . S
H2032 C2016 0.931 . S
H2033 C2021 0.930 . S
H2034 C2022 0.956 . S
H2035 C2022 0.961 . S
H2036 C2022 0.961 . S
H2037 C2023 0.958 . S
H2038 C2023 0.961 . S
H2039 C2023 0.960 . S
C2040 C2041 1.391 . S
C2040 C2042 1.394 . S
C2040 H2056 0.931 1_556 S
C2041 C2040 1.391 . S
C2041 C2045 1.376 . S
C2042 C2040 1.394 . S
C2042 C2043 1.369 . S
C2042 C2046 1.531 . S
C2043 C2042 1.369 . S
C2043 C2044 1.410 . S
C2043 C2051 1.503 . S
C2044 C2043 1.410 . S
C2044 C2045 1.392 . S
C2044 C2047 1.511 . S
C2045 C2041 1.376 . S
C2045 C2044 1.392 . S
C2045 H2057 0.929 . S
C2046 C2042 1.531 . S
C2046 H2058 0.960 . S
C2046 H2059 0.962 . S
C2046 H2060 0.960 . S
C2047 C2044 1.511 . S
C2047 H2061 0.961 . S
C2047 H2062 0.961 . S
C2047 H2063 0.961 . S
C2048 C2049 1.370 . S
C2048 C2050 1.363 . S
C2048 H2064 0.931 . S
C2049 C2048 1.370 . S
C2049 C2053 1.408 . S
C2050 C2048 1.363 . S
C2050 C2051 1.370 . S
C2050 C2054 1.524 . S
C2051 C2043 1.503 . S
C2051 C2050 1.370 . S
C2051 C2052 1.403 . S
C2052 C2051 1.403 . S
C2052 C2053 1.404 . S
C2052 C2055 1.539 . S
C2053 C2049 1.408 . S
C2053 C2052 1.404 . S
C2053 H2065 0.930 . S
C2054 C2050 1.524 . S
C2054 H2066 0.956 . S
C2054 H2067 0.961 . S
C2054 H2068 0.961 . S
C2055 C2052 1.539 . S
C2055 H2069 0.958 . S
C2055 H2070 0.961 . S
C2055 H2071 0.960 . S
H2056 C2040 0.931 1_554 S
H2057 C2045 0.929 . S
H2058 C2046 0.960 . S
H2059 C2046 0.962 . S
H2060 C2046 0.960 . S
H2061 C2047 0.961 . S
H2062 C2047 0.961 . S
H2063 C2047 0.961 . S
H2064 C2048 0.931 . S
H2065 C2053 0.930 . S
H2066 C2054 0.956 . S
H2067 C2054 0.961 . S
H2068 C2054 0.961 . S
H2069 C2055 0.958 . S
H2070 C2055 0.961 . S
H2071 C2055 0.960 . S
C2072 C2073 1.391 . S
C2072 C2074 1.394 . S
C2072 H2088 0.931 . S
C2073 C2072 1.391 . S
C2073 C2077 1.376 . S
C2074 C2072 1.394 . S
C2074 C2075 1.369 . S
C2074 C2078 1.531 . S
C2075 C2074 1.369 . S
C2075 C2076 1.410 . S
C2075 C2083 1.503 . S
C2076 C2075 1.410 . S
C2076 C2077 1.392 . S
C2076 C2079 1.511 . S
C2077 C2073 1.376 . S
C2077 C2076 1.392 . S
C2077 H2089 0.929 . S
C2078 C2074 1.531 . S
C2078 H2090 0.960 . S
C2078 H2091 0.962 . S
C2078 H2092 0.960 . S
C2079 C2076 1.511 . S
C2079 H2093 0.961 . S
C2079 H2094 0.961 . S
C2079 H2095 0.961 . S
C2080 C2081 1.370 . S
C2080 C2082 1.363 . S
C2080 H2096 0.931 . S
C2081 C2080 1.370 . S
C2081 C2085 1.408 . S
C2082 C2080 1.363 . S
C2082 C2083 1.370 . S
C2082 C2086 1.524 . S
C2083 C2075 1.503 . S
C2083 C2082 1.370 . S
C2083 C2084 1.403 . S
C2084 C2083 1.403 . S
C2084 C2085 1.404 . S
C2084 C2087 1.539 . S
C2085 C2081 1.408 . S
C2085 C2084 1.404 . S
C2085 H2097 0.930 1_556 S
C2086 C2082 1.524 . S
C2086 H2098 0.956 . S
C2086 H2099 0.961 . S
C2086 H2100 0.961 . S
C2087 C2084 1.539 . S
C2087 H2101 0.958 . S
C2087 H2102 0.961 . S
C2087 H2103 0.960 . S
H2088 C2072 0.931 . S
H2089 C2077 0.929 . S
H2090 C2078 0.960 . S
H2091 C2078 0.962 . S
H2092 C2078 0.960 . S
H2093 C2079 0.961 . S
H2094 C2079 0.961 . S
H2095 C2079 0.961 . S
H2096 C2080 0.931 . S
H2097 C2085 0.930 1_554 S
H2098 C2086 0.956 . S
H2099 C2086 0.961 . S
H2100 C2086 0.961 . S
H2101 C2087 0.958 . S
H2102 C2087 0.961 . S
H2103 C2087 0.960 . S
C2104 C2105 1.391 . S
C2104 C2106 1.394 . S
C2104 H2120 0.931 1_556 S
C2105 C2104 1.391 . S
C2105 C2109 1.376 . S
C2106 C2104 1.394 . S
C2106 C2107 1.369 . S
C2106 C2110 1.531 . S
C2107 C2106 1.369 . S
C2107 C2108 1.410 . S
C2107 C2115 1.503 . S
C2108 C2107 1.410 . S
C2108 C2109 1.392 . S
C2108 C2111 1.511 . S
C2109 C2105 1.376 . S
C2109 C2108 1.392 . S
C2109 H2121 0.929 . S
C2110 C2106 1.531 . S
C2110 H2122 0.960 . S
C2110 H2123 0.962 . S
C2110 H2124 0.960 . S
C2111 C2108 1.511 . S
C2111 H2125 0.961 . S
C2111 H2126 0.961 . S
C2111 H2127 0.961 . S
C2112 C2113 1.370 . S
C2112 C2114 1.363 . S
C2112 H2128 0.931 . S
C2113 C2112 1.370 . S
C2113 C2117 1.408 . S
C2114 C2112 1.363 . S
C2114 C2115 1.370 . S
C2114 C2118 1.524 . S
C2115 C2107 1.503 . S
C2115 C2114 1.370 . S
C2115 C2116 1.403 . S
C2116 C2115 1.403 . S
C2116 C2117 1.404 . S
C2116 C2119 1.539 . S
C2117 C2113 1.408 . S
C2117 C2116 1.404 . S
C2117 H2129 0.930 . S
C2118 C2114 1.524 . S
C2118 H2130 0.956 . S
C2118 H2131 0.961 . S
C2118 H2132 0.961 . S
C2119 C2116 1.539 . S
C2119 H2133 0.958 . S
C2119 H2134 0.961 . S
C2119 H2135 0.960 . S
H2120 C2104 0.931 1_554 S
H2121 C2109 0.929 . S
H2122 C2110 0.960 . S
H2123 C2110 0.962 . S
H2124 C2110 0.960 . S
H2125 C2111 0.961 . S
H2126 C2111 0.961 . S
H2127 C2111 0.961 . S
H2128 C2112 0.931 . S
H2129 C2117 0.930 . S
H2130 C2118 0.956 . S
H2131 C2118 0.961 . S
H2132 C2118 0.961 . S
H2133 C2119 0.958 . S
H2134 C2119 0.961 . S
H2135 C2119 0.960 . S
C2136 C2137 1.391 . S
C2136 C2138 1.394 . S
C2136 H2152 0.931 . S
C2137 C2136 1.391 . S
C2137 C2141 1.376 . S
C2138 C2136 1.394 . S
C2138 C2139 1.369 . S
C2138 C2142 1.531 . S
C2139 C2138 1.369 . S
C2139 C2140 1.410 . S
C2139 C2147 1.503 . S
C2140 C2139 1.410 . S
C2140 C2141 1.392 . S
C2140 C2143 1.511 . S
C2141 C2137 1.376 . S
C2141 C2140 1.392 . S
C2141 H2153 0.929 . S
C2142 C2138 1.531 . S
C2142 H2154 0.960 . S
C2142 H2155 0.962 . S
C2142 H2156 0.960 . S
C2143 C2140 1.511 . S
C2143 H2157 0.961 . S
C2143 H2158 0.961 . S
C2143 H2159 0.961 . S
C2144 C2145 1.370 . S
C2144 C2146 1.363 . S
C2144 H2160 0.931 . S
C2145 C2144 1.370 . S
C2145 C2149 1.408 . S
C2146 C2144 1.363 . S
C2146 C2147 1.370 . S
C2146 C2150 1.524 . S
C2147 C2139 1.503 . S
C2147 C2146 1.370 . S
C2147 C2148 1.403 . S
C2148 C2147 1.403 . S
C2148 C2149 1.404 . S
C2148 C2151 1.539 . S
C2149 C2145 1.408 . S
C2149 C2148 1.404 . S
C2149 H2161 0.930 . S
C2150 C2146 1.524 . S
C2150 H2162 0.956 . S
C2150 H2163 0.961 . S
C2150 H2164 0.961 . S
C2151 C2148 1.539 . S
C2151 H2165 0.958 . S
C2151 H2166 0.961 . S
C2151 H2167 0.960 . S
H2152 C2136 0.931 . S
H2153 C2141 0.929 . S
H2154 C2142 0.960 . S
H2155 C2142 0.962 . S
H2156 C2142 0.960 . S
H2157 C2143 0.961 . S
H2158 C2143 0.961 . S
H2159 C2143 0.961 . S
H2160 C2144 0.931 . S
H2161 C2149 0.930 . S
H2162 C2150 0.956 . S
H2163 C2150 0.961 . S
H2164 C2150 0.961 . S
H2165 C2151 0.958 . S
H2166 C2151 0.961 . S
H2167 C2151 0.960 . S
C2168 C2169 1.391 . S
C2168 C2170 1.394 . S
C2168 H2184 0.931 . S
C2169 C2168 1.391 . S
C2169 C2173 1.376 . S
C2170 C2168 1.394 . S
C2170 C2171 1.369 . S
C2170 C2174 1.531 . S
C2171 C2170 1.369 . S
C2171 C2172 1.410 . S
C2171 C2179 1.503 . S
C2172 C2171 1.410 . S
C2172 C2173 1.392 . S
C2172 C2175 1.511 . S
C2173 C2169 1.376 . S
C2173 C2172 1.392 . S
C2173 H2185 0.929 . S
C2174 C2170 1.531 . S
C2174 H2186 0.960 . S
C2174 H2187 0.962 . S
C2174 H2188 0.960 . S
C2175 C2172 1.511 . S
C2175 H2189 0.961 . S
C2175 H2190 0.961 . S
C2175 H2191 0.961 . S
C2176 C2177 1.370 . S
C2176 C2178 1.363 . S
C2176 H2192 0.931 . S
C2177 C2176 1.370 . S
C2177 C2181 1.408 . S
C2178 C2176 1.363 . S
C2178 C2179 1.370 . S
C2178 C2182 1.524 . S
C2179 C2171 1.503 . S
C2179 C2178 1.370 . S
C2179 C2180 1.403 . S
C2180 C2179 1.403 . S
C2180 C2181 1.404 . S
C2180 C2183 1.539 . S
C2181 C2177 1.408 . S
C2181 C2180 1.404 . S
C2181 H2193 0.930 . S
C2182 C2178 1.524 . S
C2182 H2194 0.956 . S
C2182 H2195 0.961 . S
C2182 H2196 0.961 . S
C2183 C2180 1.539 . S
C2183 H2197 0.958 . S
C2183 H2198 0.961 . S
C2183 H2199 0.960 . S
H2184 C2168 0.931 . S
H2185 C2173 0.929 . S
H2186 C2174 0.960 . S
H2187 C2174 0.962 . S
H2188 C2174 0.960 . S
H2189 C2175 0.961 . S
H2190 C2175 0.961 . S
H2191 C2175 0.961 . S
H2192 C2176 0.931 . S
H2193 C2181 0.930 . S
H2194 C2182 0.956 . S
H2195 C2182 0.961 . S
H2196 C2182 0.961 . S
H2197 C2183 0.958 . S
H2198 C2183 0.961 . S
H2199 C2183 0.960 . S
C2200 C2201 1.391 . S
C2200 C2202 1.394 . S
C2200 H2216 0.931 . S
C2201 C2200 1.391 . S
C2201 C2205 1.376 . S
C2202 C2200 1.394 . S
C2202 C2203 1.369 . S
C2202 C2206 1.531 . S
C2203 C2202 1.369 . S
C2203 C2204 1.410 . S
C2203 C2211 1.503 . S
C2204 C2203 1.410 . S
C2204 C2205 1.392 . S
C2204 C2207 1.511 . S
C2205 C2201 1.376 . S
C2205 C2204 1.392 . S
C2205 H2217 0.929 . S
C2206 C2202 1.531 . S
C2206 H2218 0.960 . S
C2206 H2219 0.962 . S
C2206 H2220 0.960 . S
C2207 C2204 1.511 . S
C2207 H2221 0.961 . S
C2207 H2222 0.961 . S
C2207 H2223 0.961 . S
C2208 C2209 1.370 . S
C2208 C2210 1.363 . S
C2208 H2224 0.931 . S
C2209 C2208 1.370 . S
C2209 C2213 1.408 . S
C2210 C2208 1.363 . S
C2210 C2211 1.370 . S
C2210 C2214 1.524 . S
C2211 C2203 1.503 . S
C2211 C2210 1.370 . S
C2211 C2212 1.403 . S
C2212 C2211 1.403 . S
C2212 C2213 1.404 . S
C2212 C2215 1.539 . S
C2213 C2209 1.408 . S
C2213 C2212 1.404 . S
C2213 H2225 0.930 . S
C2214 C2210 1.524 . S
C2214 H2226 0.956 . S
C2214 H2227 0.961 . S
C2214 H2228 0.961 . S
C2215 C2212 1.539 . S
C2215 H2229 0.958 . S
C2215 H2230 0.961 . S
C2215 H2231 0.960 . S
H2216 C2200 0.931 . S
H2217 C2205 0.929 . S
H2218 C2206 0.960 . S
H2219 C2206 0.962 . S
H2220 C2206 0.960 . S
H2221 C2207 0.961 . S
H2222 C2207 0.961 . S
H2223 C2207 0.961 . S
H2224 C2208 0.931 . S
H2225 C2213 0.930 . S
H2226 C2214 0.956 . S
H2227 C2214 0.961 . S
H2228 C2214 0.961 . S
H2229 C2215 0.958 . S
H2230 C2215 0.961 . S
H2231 C2215 0.960 . S
C2232 C2233 1.391 . S
C2232 C2234 1.394 . S
C2232 H2248 0.931 . S
C2233 C2232 1.391 . S
C2233 C2237 1.376 . S
C2234 C2232 1.394 . S
C2234 C2235 1.369 . S
C2234 C2238 1.531 . S
C2235 C2234 1.369 . S
C2235 C2236 1.410 . S
C2235 C2243 1.503 . S
C2236 C2235 1.410 . S
C2236 C2237 1.392 . S
C2236 C2239 1.511 . S
C2237 C2233 1.376 . S
C2237 C2236 1.392 . S
C2237 H2249 0.929 . S
C2238 C2234 1.531 . S
C2238 H2250 0.960 . S
C2238 H2251 0.962 . S
C2238 H2252 0.960 . S
C2239 C2236 1.511 . S
C2239 H2253 0.961 . S
C2239 H2254 0.961 . S
C2239 H2255 0.961 . S
C2240 C2241 1.370 . S
C2240 C2242 1.363 . S
C2240 H2256 0.931 . S
C2241 C2240 1.370 . S
C2241 C2245 1.408 . S
C2242 C2240 1.363 . S
C2242 C2243 1.370 . S
C2242 C2246 1.524 . S
C2243 C2235 1.503 . S
C2243 C2242 1.370 . S
C2243 C2244 1.403 . S
C2244 C2243 1.403 . S
C2244 C2245 1.404 . S
C2244 C2247 1.539 . S
C2245 C2241 1.408 . S
C2245 C2244 1.404 . S
C2245 H2257 0.930 . S
C2246 C2242 1.524 . S
C2246 H2258 0.956 . S
C2246 H2259 0.961 . S
C2246 H2260 0.961 . S
C2247 C2244 1.539 . S
C2247 H2261 0.958 . S
C2247 H2262 0.961 . S
C2247 H2263 0.960 . S
H2248 C2232 0.931 . S
H2249 C2237 0.929 . S
H2250 C2238 0.960 . S
H2251 C2238 0.962 . S
H2252 C2238 0.960 . S
H2253 C2239 0.961 . S
H2254 C2239 0.961 . S
H2255 C2239 0.961 . S
H2256 C2240 0.931 . S
H2257 C2245 0.930 . S
H2258 C2246 0.956 . S
H2259 C2246 0.961 . S
H2260 C2246 0.961 . S
H2261 C2247 0.958 . S
H2262 C2247 0.961 . S
H2263 C2247 0.960 . S
C2264 C2265 1.391 . S
C2264 C2266 1.394 . S
C2264 H2280 0.931 . S
C2265 C2264 1.391 . S
C2265 C2269 1.376 . S
C2266 C2264 1.394 . S
C2266 C2267 1.369 . S
C2266 C2270 1.531 . S
C2267 C2266 1.369 . S
C2267 C2268 1.410 . S
C2267 C2275 1.503 . S
C2268 C2267 1.410 . S
C2268 C2269 1.392 . S
C2268 C2271 1.511 . S
C2269 C2265 1.376 . S
C2269 C2268 1.392 . S
C2269 H2281 0.929 . S
C2270 C2266 1.531 . S
C2270 H2282 0.960 . S
C2270 H2283 0.962 . S
C2270 H2284 0.960 . S
C2271 C2268 1.511 . S
C2271 H2285 0.961 . S
C2271 H2286 0.961 . S
C2271 H2287 0.961 . S
C2272 C2273 1.370 . S
C2272 C2274 1.363 . S
C2272 H2288 0.931 . S
C2273 C2272 1.370 . S
C2273 C2277 1.408 . S
C2274 C2272 1.363 . S
C2274 C2275 1.370 . S
C2274 C2278 1.524 . S
C2275 C2267 1.503 . S
C2275 C2274 1.370 . S
C2275 C2276 1.403 . S
C2276 C2275 1.403 . S
C2276 C2277 1.404 . S
C2276 C2279 1.539 . S
C2277 C2273 1.408 . S
C2277 C2276 1.404 . S
C2277 H2289 0.930 . S
C2278 C2274 1.524 . S
C2278 H2290 0.956 . S
C2278 H2291 0.961 . S
C2278 H2292 0.961 . S
C2279 C2276 1.539 . S
C2279 H2293 0.958 . S
C2279 H2294 0.961 . S
C2279 H2295 0.960 . S
H2280 C2264 0.931 . S
H2281 C2269 0.929 . S
H2282 C2270 0.960 . S
H2283 C2270 0.962 . S
H2284 C2270 0.960 . S
H2285 C2271 0.961 . S
H2286 C2271 0.961 . S
H2287 C2271 0.961 . S
H2288 C2272 0.931 . S
H2289 C2277 0.930 . S
H2290 C2278 0.956 . S
H2291 C2278 0.961 . S
H2292 C2278 0.961 . S
H2293 C2279 0.958 . S
H2294 C2279 0.961 . S
H2295 C2279 0.960 . S
C2296 C2297 1.391 . S
C2296 C2298 1.394 . S
C2296 H2312 0.931 . S
C2297 C2296 1.391 . S
C2297 C2301 1.376 . S
C2298 C2296 1.394 . S
C2298 C2299 1.369 . S
C2298 C2302 1.531 . S
C2299 C2298 1.369 . S
C2299 C2300 1.410 . S
C2299 C2307 1.503 . S
C2300 C2299 1.410 . S
C2300 C2301 1.392 . S
C2300 C2303 1.511 . S
C2301 C2297 1.376 . S
C2301 C2300 1.392 . S
C2301 H2313 0.929 . S
C2302 C2298 1.531 . S
C2302 H2314 0.960 . S
C2302 H2315 0.962 . S
C2302 H2316 0.960 . S
C2303 C2300 1.511 . S
C2303 H2317 0.961 . S
C2303 H2318 0.961 . S
C2303 H2319 0.961 . S
C2304 C2305 1.370 . S
C2304 C2306 1.363 . S
C2304 H2320 0.931 . S
C2305 C2304 1.370 . S
C2305 C2309 1.408 . S
C2306 C2304 1.363 . S
C2306 C2307 1.370 . S
C2306 C2310 1.524 . S
C2307 C2299 1.503 . S
C2307 C2306 1.370 . S
C2307 C2308 1.403 . S
C2308 C2307 1.403 . S
C2308 C2309 1.404 . S
C2308 C2311 1.539 . S
C2309 C2305 1.408 . S
C2309 C2308 1.404 . S
C2309 H2321 0.930 . S
C2310 C2306 1.524 . S
C2310 H2322 0.956 . S
C2310 H2323 0.961 . S
C2310 H2324 0.961 . S
C2311 C2308 1.539 . S
C2311 H2325 0.958 . S
C2311 H2326 0.961 . S
C2311 H2327 0.960 . S
H2312 C2296 0.931 . S
H2313 C2301 0.929 . S
H2314 C2302 0.960 . S
H2315 C2302 0.962 . S
H2316 C2302 0.960 . S
H2317 C2303 0.961 . S
H2318 C2303 0.961 . S
H2319 C2303 0.961 . S
H2320 C2304 0.931 . S
H2321 C2309 0.930 . S
H2322 C2310 0.956 . S
H2323 C2310 0.961 . S
H2324 C2310 0.961 . S
H2325 C2311 0.958 . S
H2326 C2311 0.961 . S
H2327 C2311 0.960 . S
C2328 C2329 1.391 . S
C2328 C2330 1.394 . S
C2328 H2344 0.931 . S
C2329 C2328 1.391 . S
C2329 C2333 1.376 . S
C2330 C2328 1.394 . S
C2330 C2331 1.369 . S
C2330 C2334 1.531 . S
C2331 C2330 1.369 . S
C2331 C2332 1.410 . S
C2331 C2339 1.503 . S
C2332 C2331 1.410 . S
C2332 C2333 1.392 . S
C2332 C2335 1.511 . S
C2333 C2329 1.376 . S
C2333 C2332 1.392 . S
C2333 H2345 0.929 . S
C2334 C2330 1.531 . S
C2334 H2346 0.960 . S
C2334 H2347 0.962 . S
C2334 H2348 0.960 . S
C2335 C2332 1.511 . S
C2335 H2349 0.961 . S
C2335 H2350 0.961 . S
C2335 H2351 0.961 . S
C2336 C2337 1.370 . S
C2336 C2338 1.363 . S
C2336 H2352 0.931 . S
C2337 C2336 1.370 . S
C2337 C2341 1.408 . S
C2338 C2336 1.363 . S
C2338 C2339 1.370 . S
C2338 C2342 1.524 . S
C2339 C2331 1.503 . S
C2339 C2338 1.370 . S
C2339 C2340 1.403 . S
C2340 C2339 1.403 . S
C2340 C2341 1.404 . S
C2340 C2343 1.539 . S
C2341 C2337 1.408 . S
C2341 C2340 1.404 . S
C2341 H2353 0.930 . S
C2342 C2338 1.524 . S
C2342 H2354 0.956 . S
C2342 H2355 0.961 . S
C2342 H2356 0.961 . S
C2343 C2340 1.539 . S
C2343 H2357 0.958 . S
C2343 H2358 0.961 . S
C2343 H2359 0.960 . S
H2344 C2328 0.931 . S
H2345 C2333 0.929 . S
H2346 C2334 0.960 . S
H2347 C2334 0.962 . S
H2348 C2334 0.960 . S
H2349 C2335 0.961 . S
H2350 C2335 0.961 . S
H2351 C2335 0.961 . S
H2352 C2336 0.931 . S
H2353 C2341 0.930 . S
H2354 C2342 0.956 . S
H2355 C2342 0.961 . S
H2356 C2342 0.961 . S
H2357 C2343 0.958 . S
H2358 C2343 0.961 . S
H2359 C2343 0.960 . S
C2360 C2361 1.391 . S
C2360 C2362 1.394 . S
C2360 H2376 0.931 . S
C2361 C2360 1.391 . S
C2361 C2365 1.376 . S
C2362 C2360 1.394 . S
C2362 C2363 1.369 . S
C2362 C2366 1.531 . S
C2363 C2362 1.369 . S
C2363 C2364 1.410 . S
C2363 C2371 1.503 . S
C2364 C2363 1.410 . S
C2364 C2365 1.392 . S
C2364 C2367 1.511 . S
C2365 C2361 1.376 . S
C2365 C2364 1.392 . S
C2365 H2377 0.929 . S
C2366 C2362 1.531 . S
C2366 H2378 0.960 . S
C2366 H2379 0.962 . S
C2366 H2380 0.960 . S
C2367 C2364 1.511 . S
C2367 H2381 0.961 . S
C2367 H2382 0.961 . S
C2367 H2383 0.961 . S
C2368 C2369 1.370 . S
C2368 C2370 1.363 . S
C2368 H2384 0.931 . S
C2369 C2368 1.370 . S
C2369 C2373 1.408 . S
C2370 C2368 1.363 . S
C2370 C2371 1.370 . S
C2370 C2374 1.524 . S
C2371 C2363 1.503 . S
C2371 C2370 1.370 . S
C2371 C2372 1.403 . S
C2372 C2371 1.403 . S
C2372 C2373 1.404 . S
C2372 C2375 1.539 . S
C2373 C2369 1.408 . S
C2373 C2372 1.404 . S
C2373 H2385 0.930 . S
C2374 C2370 1.524 . S
C2374 H2386 0.956 . S
C2374 H2387 0.961 . S
C2374 H2388 0.961 . S
C2375 C2372 1.539 . S
C2375 H2389 0.958 . S
C2375 H2390 0.961 . S
C2375 H2391 0.960 . S
H2376 C2360 0.931 . S
H2377 C2365 0.929 . S
H2378 C2366 0.960 . S
H2379 C2366 0.962 . S
H2380 C2366 0.960 . S
H2381 C2367 0.961 . S
H2382 C2367 0.961 . S
H2383 C2367 0.961 . S
H2384 C2368 0.931 . S
H2385 C2373 0.930 . S
H2386 C2374 0.956 . S
H2387 C2374 0.961 . S
H2388 C2374 0.961 . S
H2389 C2375 0.958 . S
H2390 C2375 0.961 . S
H2391 C2375 0.960 . S
C2392 C2393 1.391 . S
C2392 C2394 1.394 . S
C2392 H2408 0.931 . S
C2393 C2392 1.391 . S
C2393 C2397 1.376 . S
C2394 C2392 1.394 . S
C2394 C2395 1.369 . S
C2394 C2398 1.531 . S
C2395 C2394 1.369 . S
C2395 C2396 1.410 . S
C2395 C2403 1.503 . S
C2396 C2395 1.410 . S
C2396 C2397 1.392 . S
C2396 C2399 1.511 . S
C2397 C2393 1.376 . S
C2397 C2396 1.392 . S
C2397 H2409 0.929 . S
C2398 C2394 1.531 . S
C2398 H2410 0.960 . S
C2398 H2411 0.962 . S
C2398 H2412 0.960 . S
C2399 C2396 1.511 . S
C2399 H2413 0.961 . S
C2399 H2414 0.961 . S
C2399 H2415 0.961 . S
C2400 C2401 1.370 . S
C2400 C2402 1.363 . S
C2400 H2416 0.931 . S
C2401 C2400 1.370 . S
C2401 C2405 1.408 . S
C2402 C2400 1.363 . S
C2402 C2403 1.370 . S
C2402 C2406 1.524 . S
C2403 C2395 1.503 . S
C2403 C2402 1.370 . S
C2403 C2404 1.403 . S
C2404 C2403 1.403 . S
C2404 C2405 1.404 . S
C2404 C2407 1.539 . S
C2405 C2401 1.408 . S
C2405 C2404 1.404 . S
C2405 H2417 0.930 . S
C2406 C2402 1.524 . S
C2406 H2418 0.956 . S
C2406 H2419 0.961 . S
C2406 H2420 0.961 . S
C2407 C2404 1.539 . S
C2407 H2421 0.958 . S
C2407 H2422 0.961 . S
C2407 H2423 0.960 . S
H2408 C2392 0.931 . S
H2409 C2397 0.929 . S
H2410 C2398 0.960 . S
H2411 C2398 0.962 . S
H2412 C2398 0.960 . S
H2413 C2399 0.961 . S
H2414 C2399 0.961 . S
H2415 C2399 0.961 . S
H2416 C2400 0.931 . S
H2417 C2405 0.930 . S
H2418 C2406 0.956 . S
H2419 C2406 0.961 . S
H2420 C2406 0.961 . S
H2421 C2407 0.958 . S
H2422 C2407 0.961 . S
H2423 C2407 0.960 . S
C2424 C2425 1.391 . S
C2424 C2426 1.394 . S
C2424 H2440 0.931 . S
C2425 C2424 1.391 . S
C2425 C2429 1.376 . S
C2426 C2424 1.394 . S
C2426 C2427 1.369 . S
C2426 C2430 1.531 . S
C2427 C2426 1.369 . S
C2427 C2428 1.410 . S
C2427 C2435 1.503 . S
C2428 C2427 1.410 . S
C2428 C2429 1.392 . S
C2428 C2431 1.511 . S
C2429 C2425 1.376 . S
C2429 C2428 1.392 . S
C2429 H2441 0.929 . S
C2430 C2426 1.531 . S
C2430 H2442 0.960 . S
C2430 H2443 0.962 . S
C2430 H2444 0.960 . S
C2431 C2428 1.511 . S
C2431 H2445 0.961 . S
C2431 H2446 0.961 . S
C2431 H2447 0.961 . S
C2432 C2433 1.370 . S
C2432 C2434 1.363 . S
C2432 H2448 0.931 . S
C2433 C2432 1.370 . S
C2433 C2437 1.408 . S
C2434 C2432 1.363 . S
C2434 C2435 1.370 . S
C2434 C2438 1.524 . S
C2435 C2427 1.503 . S
C2435 C2434 1.370 . S
C2435 C2436 1.403 . S
C2436 C2435 1.403 . S
C2436 C2437 1.404 . S
C2436 C2439 1.539 . S
C2437 C2433 1.408 . S
C2437 C2436 1.404 . S
C2437 H2449 0.930 . S
C2438 C2434 1.524 . S
C2438 H2450 0.956 . S
C2438 H2451 0.961 . S
C2438 H2452 0.961 . S
C2439 C2436 1.539 . S
C2439 H2453 0.958 . S
C2439 H2454 0.961 . S
C2439 H2455 0.960 . S
H2440 C2424 0.931 . S
H2441 C2429 0.929 . S
H2442 C2430 0.960 . S
H2443 C2430 0.962 . S
H2444 C2430 0.960 . S
H2445 C2431 0.961 . S
H2446 C2431 0.961 . S
H2447 C2431 0.961 . S
H2448 C2432 0.931 . S
H2449 C2437 0.930 . S
H2450 C2438 0.956 . S
H2451 C2438 0.961 . S
H2452 C2438 0.961 . S
H2453 C2439 0.958 . S
H2454 C2439 0.961 . S
H2455 C2439 0.960 . S
C2456 C2457 1.391 . S
C2456 C2458 1.394 . S
C2456 H2472 0.931 . S
C2457 C2456 1.391 . S
C2457 C2461 1.376 . S
C2458 C2456 1.394 . S
C2458 C2459 1.369 . S
C2458 C2462 1.531 . S
C2459 C2458 1.369 . S
C2459 C2460 1.410 . S
C2459 C2467 1.503 . S
C2460 C2459 1.410 . S
C2460 C2461 1.392 . S
C2460 C2463 1.511 . S
C2461 C2457 1.376 . S
C2461 C2460 1.392 . S
C2461 H2473 0.929 . S
C2462 C2458 1.531 . S
C2462 H2474 0.960 . S
C2462 H2475 0.962 . S
C2462 H2476 0.960 . S
C2463 C2460 1.511 . S
C2463 H2477 0.961 . S
C2463 H2478 0.961 . S
C2463 H2479 0.961 . S
C2464 C2465 1.370 . S
C2464 C2466 1.363 . S
C2464 H2480 0.931 . S
C2465 C2464 1.370 . S
C2465 C2469 1.408 . S
C2466 C2464 1.363 . S
C2466 C2467 1.370 . S
C2466 C2470 1.524 . S
C2467 C2459 1.503 . S
C2467 C2466 1.370 . S
C2467 C2468 1.403 . S
C2468 C2467 1.403 . S
C2468 C2469 1.404 . S
C2468 C2471 1.539 . S
C2469 C2465 1.408 . S
C2469 C2468 1.404 . S
C2469 H2481 0.930 . S
C2470 C2466 1.524 . S
C2470 H2482 0.956 . S
C2470 H2483 0.961 . S
C2470 H2484 0.961 . S
C2471 C2468 1.539 . S
C2471 H2485 0.958 . S
C2471 H2486 0.961 . S
C2471 H2487 0.960 . S
H2472 C2456 0.931 . S
H2473 C2461 0.929 . S
H2474 C2462 0.960 . S
H2475 C2462 0.962 . S
H2476 C2462 0.960 . S
H2477 C2463 0.961 . S
H2478 C2463 0.961 . S
H2479 C2463 0.961 . S
H2480 C2464 0.931 . S
H2481 C2469 0.930 . S
H2482 C2470 0.956 . S
H2483 C2470 0.961 . S
H2484 C2470 0.961 . S
H2485 C2471 0.958 . S
H2486 C2471 0.961 . S
H2487 C2471 0.960 . S
C2488 C2489 1.391 . S
C2488 C2490 1.394 . S
C2488 H2504 0.931 . S
C2489 C2488 1.391 . S
C2489 C2493 1.376 . S
C2490 C2488 1.394 . S
C2490 C2491 1.369 . S
C2490 C2494 1.531 . S
C2491 C2490 1.369 . S
C2491 C2492 1.410 . S
C2491 C2499 1.503 . S
C2492 C2491 1.410 . S
C2492 C2493 1.392 . S
C2492 C2495 1.511 . S
C2493 C2489 1.376 . S
C2493 C2492 1.392 . S
C2493 H2505 0.929 . S
C2494 C2490 1.531 . S
C2494 H2506 0.960 . S
C2494 H2507 0.962 . S
C2494 H2508 0.960 . S
C2495 C2492 1.511 . S
C2495 H2509 0.961 . S
C2495 H2510 0.961 . S
C2495 H2511 0.961 . S
C2496 C2497 1.370 . S
C2496 C2498 1.363 . S
C2496 H2512 0.931 . S
C2497 C2496 1.370 . S
C2497 C2501 1.408 . S
C2498 C2496 1.363 . S
C2498 C2499 1.370 . S
C2498 C2502 1.524 . S
C2499 C2491 1.503 . S
C2499 C2498 1.370 . S
C2499 C2500 1.403 . S
C2500 C2499 1.403 . S
C2500 C2501 1.404 . S
C2500 C2503 1.539 . S
C2501 C2497 1.408 . S
C2501 C2500 1.404 . S
C2501 H2513 0.930 . S
C2502 C2498 1.524 . S
C2502 H2514 0.956 . S
C2502 H2515 0.961 . S
C2502 H2516 0.961 . S
C2503 C2500 1.539 . S
C2503 H2517 0.958 . S
C2503 H2518 0.961 . S
C2503 H2519 0.960 . S
H2504 C2488 0.931 . S
H2505 C2493 0.929 . S
H2506 C2494 0.960 . S
H2507 C2494 0.962 . S
H2508 C2494 0.960 . S
H2509 C2495 0.961 . S
H2510 C2495 0.961 . S
H2511 C2495 0.961 . S
H2512 C2496 0.931 . S
H2513 C2501 0.930 . S
H2514 C2502 0.956 . S
H2515 C2502 0.961 . S
H2516 C2502 0.961 . S
H2517 C2503 0.958 . S
H2518 C2503 0.961 . S
H2519 C2503 0.960 . S
C2520 C2521 1.391 . S
C2520 C2522 1.394 . S
C2520 H2536 0.931 . S
C2521 C2520 1.391 . S
C2521 C2525 1.376 . S
C2522 C2520 1.394 . S
C2522 C2523 1.369 . S
C2522 C2526 1.531 . S
C2523 C2522 1.369 . S
C2523 C2524 1.410 . S
C2523 C2531 1.503 . S
C2524 C2523 1.410 . S
C2524 C2525 1.392 . S
C2524 C2527 1.511 . S
C2525 C2521 1.376 . S
C2525 C2524 1.392 . S
C2525 H2537 0.929 . S
C2526 C2522 1.531 . S
C2526 H2538 0.960 . S
C2526 H2539 0.962 . S
C2526 H2540 0.960 . S
C2527 C2524 1.511 . S
C2527 H2541 0.961 . S
C2527 H2542 0.961 . S
C2527 H2543 0.961 . S
C2528 C2529 1.370 . S
C2528 C2530 1.363 . S
C2528 H2544 0.931 . S
C2529 C2528 1.370 . S
C2529 C2533 1.408 . S
C2530 C2528 1.363 . S
C2530 C2531 1.370 . S
C2530 C2534 1.524 . S
C2531 C2523 1.503 . S
C2531 C2530 1.370 . S
C2531 C2532 1.403 . S
C2532 C2531 1.403 . S
C2532 C2533 1.404 . S
C2532 C2535 1.539 . S
C2533 C2529 1.408 . S
C2533 C2532 1.404 . S
C2533 H2545 0.930 . S
C2534 C2530 1.524 . S
C2534 H2546 0.956 . S
C2534 H2547 0.961 . S
C2534 H2548 0.961 . S
C2535 C2532 1.539 . S
C2535 H2549 0.958 . S
C2535 H2550 0.961 . S
C2535 H2551 0.960 . S
H2536 C2520 0.931 . S
H2537 C2525 0.929 . S
H2538 C2526 0.960 . S
H2539 C2526 0.962 . S
H2540 C2526 0.960 . S
H2541 C2527 0.961 . S
H2542 C2527 0.961 . S
H2543 C2527 0.961 . S
H2544 C2528 0.931 . S
H2545 C2533 0.930 . S
H2546 C2534 0.956 . S
H2547 C2534 0.961 . S
H2548 C2534 0.961 . S
H2549 C2535 0.958 . S
H2550 C2535 0.961 . S
H2551 C2535 0.960 . S
C2552 C2553 1.391 . S
C2552 C2554 1.394 . S
C2552 H2568 0.931 . S
C2553 C2552 1.391 . S
C2553 C2557 1.376 . S
C2554 C2552 1.394 . S
C2554 C2555 1.369 . S
C2554 C2558 1.531 . S
C2555 C2554 1.369 . S
C2555 C2556 1.410 . S
C2555 C2563 1.503 . S
C2556 C2555 1.410 . S
C2556 C2557 1.392 . S
C2556 C2559 1.511 . S
C2557 C2553 1.376 . S
C2557 C2556 1.392 . S
C2557 H2569 0.929 . S
C2558 C2554 1.531 . S
C2558 H2570 0.960 . S
C2558 H2571 0.962 . S
C2558 H2572 0.960 . S
C2559 C2556 1.511 . S
C2559 H2573 0.961 . S
C2559 H2574 0.961 . S
C2559 H2575 0.961 . S
C2560 C2561 1.370 . S
C2560 C2562 1.363 . S
C2560 H2576 0.931 . S
C2561 C2560 1.370 . S
C2561 C2565 1.408 . S
C2562 C2560 1.363 . S
C2562 C2563 1.370 . S
C2562 C2566 1.524 . S
C2563 C2555 1.503 . S
C2563 C2562 1.370 . S
C2563 C2564 1.403 . S
C2564 C2563 1.403 . S
C2564 C2565 1.404 . S
C2564 C2567 1.539 . S
C2565 C2561 1.408 . S
C2565 C2564 1.404 . S
C2565 H2577 0.930 . S
C2566 C2562 1.524 . S
C2566 H2578 0.956 . S
C2566 H2579 0.961 . S
C2566 H2580 0.961 . S
C2567 C2564 1.539 . S
C2567 H2581 0.958 . S
C2567 H2582 0.961 . S
C2567 H2583 0.960 . S
H2568 C2552 0.931 . S
H2569 C2557 0.929 . S
H2570 C2558 0.960 . S
H2571 C2558 0.962 . S
H2572 C2558 0.960 . S
H2573 C2559 0.961 . S
H2574 C2559 0.961 . S
H2575 C2559 0.961 . S
H2576 C2560 0.931 . S
H2577 C2565 0.930 . S
H2578 C2566 0.956 . S
H2579 C2566 0.961 . S
H2580 C2566 0.961 . S
H2581 C2567 0.958 . S
H2582 C2567 0.961 . S
H2583 C2567 0.960 . S
C2584 C2585 1.391 . S
C2584 C2586 1.394 . S
C2584 H2600 0.931 . S
C2585 C2584 1.391 . S
C2585 C2589 1.376 . S
C2586 C2584 1.394 . S
C2586 C2587 1.369 . S
C2586 C2590 1.531 . S
C2587 C2586 1.369 . S
C2587 C2588 1.410 . S
C2587 C2595 1.503 . S
C2588 C2587 1.410 . S
C2588 C2589 1.392 . S
C2588 C2591 1.511 . S
C2589 C2585 1.376 . S
C2589 C2588 1.392 . S
C2589 H2601 0.929 . S
C2590 C2586 1.531 . S
C2590 H2602 0.960 . S
C2590 H2603 0.962 . S
C2590 H2604 0.960 . S
C2591 C2588 1.511 . S
C2591 H2605 0.961 . S
C2591 H2606 0.961 . S
C2591 H2607 0.961 . S
C2592 C2593 1.370 . S
C2592 C2594 1.363 . S
C2592 H2608 0.931 . S
C2593 C2592 1.370 . S
C2593 C2597 1.408 . S
C2594 C2592 1.363 . S
C2594 C2595 1.370 . S
C2594 C2598 1.524 . S
C2595 C2587 1.503 . S
C2595 C2594 1.370 . S
C2595 C2596 1.403 . S
C2596 C2595 1.403 . S
C2596 C2597 1.404 . S
C2596 C2599 1.539 . S
C2597 C2593 1.408 . S
C2597 C2596 1.404 . S
C2597 H2609 0.930 . S
C2598 C2594 1.524 . S
C2598 H2610 0.956 . S
C2598 H2611 0.961 . S
C2598 H2612 0.961 . S
C2599 C2596 1.539 . S
C2599 H2613 0.958 . S
C2599 H2614 0.961 . S
C2599 H2615 0.960 . S
H2600 C2584 0.931 . S
H2601 C2589 0.929 . S
H2602 C2590 0.960 . S
H2603 C2590 0.962 . S
H2604 C2590 0.960 . S
H2605 C2591 0.961 . S
H2606 C2591 0.961 . S
H2607 C2591 0.961 . S
H2608 C2592 0.931 . S
H2609 C2597 0.930 . S
H2610 C2598 0.956 . S
H2611 C2598 0.961 . S
H2612 C2598 0.961 . S
H2613 C2599 0.958 . S
H2614 C2599 0.961 . S
H2615 C2599 0.960 . S
C2616 C2617 1.391 . S
C2616 C2618 1.394 . S
C2616 H2632 0.931 . S
C2617 C2616 1.391 . S
C2617 C2621 1.376 . S
C2618 C2616 1.394 . S
C2618 C2619 1.369 . S
C2618 C2622 1.531 . S
C2619 C2618 1.369 . S
C2619 C2620 1.410 . S
C2619 C2627 1.503 1_455 S
C2620 C2619 1.410 . S
C2620 C2621 1.392 . S
C2620 C2623 1.511 1_455 S
C2621 C2617 1.376 . S
C2621 C2620 1.392 . S
C2621 H2633 0.929 . S
C2622 C2618 1.531 . S
C2622 H2634 0.960 . S
C2622 H2635 0.962 . S
C2622 H2636 0.960 . S
C2623 C2620 1.511 1_655 S
C2623 H2637 0.961 . S
C2623 H2638 0.961 . S
C2623 H2639 0.961 . S
C2624 C2625 1.370 . S
C2624 C2626 1.363 . S
C2624 H2640 0.931 . S
C2625 C2624 1.370 . S
C2625 C2629 1.408 . S
C2626 C2624 1.363 . S
C2626 C2627 1.370 . S
C2626 C2630 1.524 1_655 S
C2627 C2619 1.503 1_655 S
C2627 C2626 1.370 . S
C2627 C2628 1.403 . S
C2628 C2627 1.403 . S
C2628 C2629 1.404 . S
C2628 C2631 1.539 . S
C2629 C2625 1.408 . S
C2629 C2628 1.404 . S
C2629 H2641 0.930 . S
C2630 C2626 1.524 1_455 S
C2630 H2642 0.956 . S
C2630 H2643 0.961 . S
C2630 H2644 0.961 1_455 S
C2631 C2628 1.539 . S
C2631 H2645 0.958 . S
C2631 H2646 0.961 . S
C2631 H2647 0.960 . S
H2632 C2616 0.931 . S
H2633 C2621 0.929 . S
H2634 C2622 0.960 . S
H2635 C2622 0.962 . S
H2636 C2622 0.960 . S
H2637 C2623 0.961 . S
H2638 C2623 0.961 . S
H2639 C2623 0.961 . S
H2640 C2624 0.931 . S
H2641 C2629 0.930 . S
H2642 C2630 0.956 . S
H2643 C2630 0.961 . S
H2644 C2630 0.961 1_655 S
H2645 C2631 0.958 . S
H2646 C2631 0.961 . S
H2647 C2631 0.960 . S
C2648 C2649 1.391 . S
C2648 C2650 1.394 . S
C2648 H2664 0.931 . S
C2649 C2648 1.391 . S
C2649 C2653 1.376 . S
C2650 C2648 1.394 . S
C2650 C2651 1.369 . S
C2650 C2654 1.531 . S
C2651 C2650 1.369 . S
C2651 C2652 1.410 . S
C2651 C2659 1.503 . S
C2652 C2651 1.410 . S
C2652 C2653 1.392 . S
C2652 C2655 1.511 . S
C2653 C2649 1.376 . S
C2653 C2652 1.392 . S
C2653 H2665 0.929 . S
C2654 C2650 1.531 . S
C2654 H2666 0.960 . S
C2654 H2667 0.962 . S
C2654 H2668 0.960 . S
C2655 C2652 1.511 . S
C2655 H2669 0.961 . S
C2655 H2670 0.961 . S
C2655 H2671 0.961 . S
C2656 C2657 1.370 . S
C2656 C2658 1.363 . S
C2656 H2672 0.931 . S
C2657 C2656 1.370 . S
C2657 C2661 1.408 . S
C2658 C2656 1.363 . S
C2658 C2659 1.370 . S
C2658 C2662 1.524 . S
C2659 C2651 1.503 . S
C2659 C2658 1.370 . S
C2659 C2660 1.403 . S
C2660 C2659 1.403 . S
C2660 C2661 1.404 . S
C2660 C2663 1.539 . S
C2661 C2657 1.408 . S
C2661 C2660 1.404 . S
C2661 H2673 0.930 . S
C2662 C2658 1.524 . S
C2662 H2674 0.956 . S
C2662 H2675 0.961 . S
C2662 H2676 0.961 . S
C2663 C2660 1.539 . S
C2663 H2677 0.958 . S
C2663 H2678 0.961 . S
C2663 H2679 0.960 . S
H2664 C2648 0.931 . S
H2665 C2653 0.929 . S
H2666 C2654 0.960 . S
H2667 C2654 0.962 . S
H2668 C2654 0.960 . S
H2669 C2655 0.961 . S
H2670 C2655 0.961 . S
H2671 C2655 0.961 . S
H2672 C2656 0.931 . S
H2673 C2661 0.930 . S
H2674 C2662 0.956 . S
H2675 C2662 0.961 . S
H2676 C2662 0.961 . S
H2677 C2663 0.958 . S
H2678 C2663 0.961 . S
H2679 C2663 0.960 . S
C2680 C2681 1.391 . S
C2680 C2682 1.394 . S
C2680 H2696 0.931 . S
C2681 C2680 1.391 . S
C2681 C2685 1.376 . S
C2682 C2680 1.394 . S
C2682 C2683 1.369 . S
C2682 C2686 1.531 . S
C2683 C2682 1.369 . S
C2683 C2684 1.410 . S
C2683 C2691 1.503 1_545 S
C2684 C2683 1.410 . S
C2684 C2685 1.392 . S
C2684 C2687 1.511 1_545 S
C2685 C2681 1.376 . S
C2685 C2684 1.392 . S
C2685 H2697 0.929 . S
C2686 C2682 1.531 . S
C2686 H2698 0.960 . S
C2686 H2699 0.962 . S
C2686 H2700 0.960 . S
C2687 C2684 1.511 1_565 S
C2687 H2701 0.957 . S
C2687 H2702 0.961 . S
C2687 H2703 0.961 . S
C2688 C2689 1.370 . S
C2688 C2690 1.363 . S
C2688 H2704 0.931 . S
C2689 C2688 1.370 . S
C2689 C2693 1.408 . S
C2690 C2688 1.363 . S
C2690 C2691 1.370 . S
C2690 C2694 1.524 1_565 S
C2691 C2683 1.503 1_565 S
C2691 C2690 1.370 . S
C2691 C2692 1.403 . S
C2692 C2691 1.403 . S
C2692 C2693 1.404 . S
C2692 C2695 1.539 . S
C2693 C2689 1.408 . S
C2693 C2692 1.404 . S
C2693 H2705 0.930 . S
C2694 C2690 1.524 1_545 S
C2694 H2706 0.956 . S
C2694 H2707 0.961 . S
C2694 H2708 0.961 . S
C2695 C2692 1.539 . S
C2695 H2709 0.958 . S
C2695 H2710 0.961 . S
C2695 H2711 0.960 . S
H2696 C2680 0.931 . S
H2697 C2685 0.929 . S
H2698 C2686 0.960 . S
H2699 C2686 0.962 . S
H2700 C2686 0.960 . S
H2701 C2687 0.957 . S
H2702 C2687 0.961 . S
H2703 C2687 0.961 . S
H2704 C2688 0.931 . S
H2705 C2693 0.930 . S
H2706 C2694 0.956 . S
H2707 C2694 0.961 . S
H2708 C2694 0.961 . S
H2709 C2695 0.958 . S
H2710 C2695 0.961 . S
H2711 C2695 0.960 . S
C2712 C2713 1.391 . S
C2712 C2714 1.394 . S
C2712 H2728 0.931 . S
C2713 C2712 1.391 . S
C2713 C2717 1.376 . S
C2714 C2712 1.394 . S
C2714 C2715 1.369 . S
C2714 C2718 1.531 1_545 S
C2715 C2714 1.369 . S
C2715 C2716 1.399 1_556 S
C2715 C2723 1.503 1_546 S
C2716 C2715 1.399 1_554 S
C2716 C2717 1.382 1_554 S
C2716 C2719 1.531 . S
C2717 C2713 1.376 . S
C2717 C2716 1.382 1_556 S
C2717 H2729 0.929 . S
C2718 C2714 1.531 1_565 S
C2718 H2730 0.960 . S
C2718 H2731 0.962 . S
C2718 H2732 0.960 . S
C2719 C2716 1.531 . S
C2719 H2733 0.961 . S
C2719 H2734 0.961 . S
C2719 H2735 0.961 . S
C2720 C2721 1.370 . S
C2720 C2722 1.363 . S
C2720 H2736 0.931 . S
C2721 C2720 1.370 . S
C2721 C2725 1.408 . S
C2722 C2720 1.363 . S
C2722 C2723 1.370 . S
C2722 C2726 1.524 . S
C2723 C2715 1.503 1_564 S
C2723 C2722 1.370 . S
C2723 C2724 1.403 1_554 S
C2724 C2723 1.403 1_556 S
C2724 C2725 1.404 1_556 S
C2724 C2727 1.539 . S
C2725 C2721 1.408 . S
C2725 C2724 1.404 1_554 S
C2725 H2737 0.930 . S
C2726 C2722 1.524 . S
C2726 H2738 0.956 . S
C2726 H2739 0.961 1_565 S
C2726 H2740 0.961 . S
C2727 C2724 1.539 . S
C2727 H2741 0.958 . S
C2727 H2742 0.961 . S
C2727 H2743 0.960 1_565 S
H2728 C2712 0.931 . S
H2729 C2717 0.929 . S
H2730 C2718 0.960 . S
H2731 C2718 0.962 . S
H2732 C2718 0.960 . S
H2733 C2719 0.961 . S
H2734 C2719 0.961 . S
H2735 C2719 0.961 . S
H2736 C2720 0.931 . S
H2737 C2725 0.930 . S
H2738 C2726 0.956 . S
H2739 C2726 0.961 1_545 S
H2740 C2726 0.961 . S
H2741 C2727 0.958 . S
H2742 C2727 0.961 . S
H2743 C2727 0.960 1_545 S
C2744 C2745 1.391 . S
C2744 C2746 1.394 . S
C2744 H2760 0.931 . S
C2745 C2744 1.391 . S
C2745 C2749 1.376 . S
C2746 C2744 1.394 . S
C2746 C2747 1.369 . S
C2746 C2750 1.531 1_655 S
C2747 C2746 1.369 . S
C2747 C2748 1.410 1_556 S
C2747 C2755 1.503 1_656 S
C2748 C2747 1.410 1_554 S
C2748 C2749 1.392 1_554 S
C2748 C2751 1.511 . S
C2749 C2745 1.376 . S
C2749 C2748 1.392 1_556 S
C2749 H2761 0.929 1_556 S
C2750 C2746 1.531 1_455 S
C2750 H2762 0.960 . S
C2750 H2763 0.962 . S
C2750 H2764 0.960 . S
C2751 C2748 1.511 . S
C2751 H2765 0.961 . S
C2751 H2766 0.961 . S
C2751 H2767 0.961 . S
C2752 C2753 1.370 . S
C2752 C2754 1.363 . S
C2752 H2768 0.931 . S
C2753 C2752 1.370 . S
C2753 C2757 1.408 . S
C2754 C2752 1.363 . S
C2754 C2755 1.370 . S
C2754 C2758 1.524 . S
C2755 C2747 1.503 1_454 S
C2755 C2754 1.370 . S
C2755 C2756 1.403 . S
C2756 C2755 1.403 . S
C2756 C2757 1.404 . S
C2756 C2759 1.509 1_454 S
C2757 C2753 1.408 . S
C2757 C2756 1.404 . S
C2757 H2769 0.930 . S
C2758 C2754 1.524 . S
C2758 H2770 0.956 1_554 S
C2758 H2771 0.961 . S
C2758 H2772 0.961 . S
C2759 C2756 1.509 1_656 S
C2759 H2773 0.957 1_655 S
C2759 H2774 0.972 1_656 S
C2759 H2775 0.982 . S
H2760 C2744 0.931 . S
H2761 C2749 0.929 1_554 S
H2762 C2750 0.960 . S
H2763 C2750 0.962 . S
H2764 C2750 0.960 . S
H2765 C2751 0.961 . S
H2766 C2751 0.961 . S
H2767 C2751 0.961 . S
H2768 C2752 0.931 . S
H2769 C2757 0.930 . S
H2770 C2758 0.956 1_556 S
H2771 C2758 0.961 . S
H2772 C2758 0.961 . S
H2773 C2759 0.957 1_455 S
H2774 C2759 0.972 1_454 S
H2775 C2759 0.982 . S
C2776 C2777 1.391 . S
C2776 C2778 1.394 . S
C2776 H2792 0.931 . S
C2777 C2776 1.391 . S
C2777 C2781 1.376 . S
C2778 C2776 1.394 . S
C2778 C2779 1.369 . S
C2778 C2782 1.531 . S
C2779 C2778 1.369 . S
C2779 C2780 1.410 1_556 S
C2779 C2787 1.503 1_556 S
C2780 C2779 1.410 1_554 S
C2780 C2781 1.392 1_554 S
C2780 C2783 1.511 . S
C2781 C2777 1.376 . S
C2781 C2780 1.392 1_556 S
C2781 H2793 0.929 1_556 S
C2782 C2778 1.531 . S
C2782 H2794 0.960 . S
C2782 H2795 0.962 . S
C2782 H2796 0.960 . S
C2783 C2780 1.511 . S
C2783 H2797 0.961 . S
C2783 H2798 0.961 . S
C2783 H2799 0.961 . S
C2784 C2785 1.370 . S
C2784 C2786 1.363 . S
C2784 H2800 0.931 . S
C2785 C2784 1.370 . S
C2785 C2789 1.408 . S
C2786 C2784 1.363 . S
C2786 C2787 1.370 . S
C2786 C2790 1.524 . S
C2787 C2779 1.503 1_554 S
C2787 C2786 1.370 . S
C2787 C2788 1.403 . S
C2788 C2787 1.403 . S
C2788 C2789 1.404 . S
C2788 C2791 1.539 1_554 S
C2789 C2785 1.408 . S
C2789 C2788 1.404 . S
C2789 H2801 0.930 . S
C2790 C2786 1.524 . S
C2790 H2802 0.956 . S
C2790 H2803 0.961 . S
C2790 H2804 0.961 . S
C2791 C2788 1.539 1_556 S
C2791 H2805 0.958 . S
C2791 H2806 0.961 . S
C2791 H2807 0.960 . S
H2792 C2776 0.931 . S
H2793 C2781 0.929 1_554 S
H2794 C2782 0.960 . S
H2795 C2782 0.962 . S
H2796 C2782 0.960 . S
H2797 C2783 0.961 . S
H2798 C2783 0.961 . S
H2799 C2783 0.961 . S
H2800 C2784 0.931 . S
H2801 C2789 0.930 . S
H2802 C2790 0.956 . S
H2803 C2790 0.961 . S
H2804 C2790 0.961 . S
H2805 C2791 0.958 . S
H2806 C2791 0.961 . S
H2807 C2791 0.960 . S
C505 C3 1.291 . S
C513 C107 1.287 . S
C537 C17 1.298 . S
C545 C121 1.297 . S
C569 C93 1.305 . S
C577 C31 1.304 . S
C601 C163 1.311 . S
C609 C45 1.309 . S
C633 C59 1.291 . S
C641 C135 1.294 . S
C665 C73 1.324 . S
C673 C149 1.282 . S
C697 C23 1.263 . S
C705 C87 1.317 . S
C729 C37 1.311 . S
C737 C101 1.312 . S
C761 C115 1.324 . S
C769 C9 1.285 . S
C793 C129 1.324 . S
C801 C79 1.282 . S
C825 C51 1.312 . S
C833 C143 1.311 . S
C857 C157 1.324 . S
C865 C65 1.283 . S
C889 C275 1.295 . S
C897 C171 1.303 . S
C921 C185 1.313 . S
C929 C289 1.293 . S
C953 C199 1.312 . S
C961 C261 1.271 . S
C985 C331 1.308 . S
C993 C213 1.311 . S
C1017 C227 1.290 . S
C1025 C303 1.289 . S
C1049 C317 1.311 . S
C1057 C241 1.310 . S
C1081 C191 1.249 . S
C1089 C255 1.310 . S
C1113 C269 1.306 . S
C1121 C205 1.271 . S
C1145 C177 1.266 . S
C1153 C283 1.317 . S
C1177 C297 1.323 . S
C1185 C247 1.278 . S
C1209 C311 1.301 . S
C1217 C219 1.297 . S
C1241 C325 1.295 . S
C1249 C233 1.276 . S
C1273 C443 1.271 . S
C1281 C339 1.306 . S
C1305 C457 1.264 . S
C1313 C353 1.307 . S
C1337 C429 1.268 . S
C1345 C367 1.318 . S
C1369 C381 1.294 . S
C1377 C499 1.296 . S
C1401 C395 1.305 . S
C1409 C471 1.273 . S
C1433 C485 1.292 . S
C1441 C409 1.316 . S
C1465 C423 1.298 . S
C1473 C359 1.273 . S
C1497 C373 1.249 . S
C1505 C437 1.314 . S
C1529 C345 1.249 . S
C1537 C451 1.313 . S
C1561 C465 1.324 . S
C1569 C415 1.280 . S
C1593 C479 1.292 . S
C1601 C387 1.292 . S
C1625 C493 1.291 . S
C1633 C401 1.283 . S
C1657 C49 1.334 . S
C1665 C7 1.324 . S
C1689 C63 1.305 . S
C1697 C21 1.335 . S
C1721 C35 1.308 . S
C1729 C77 1.343 . S
C1753 C133 1.348 . S
C1761 C91 1.340 . S
C1785 C147 1.339 . S
C1793 C105 1.325 . S
C1817 C161 1.333 . S
C1825 C119 1.326 . S
C1849 C217 1.316 . S
C1857 C175 1.346 . S
C1881 C231 1.349 . S
C1889 C189 1.343 . S
C1913 C203 1.356 . S
C1921 C245 1.329 . S
C1945 C301 1.317 1_554 S
C1953 C259 1.347 . S
C1977 C315 1.334 1_554 S
C1985 C273 1.325 . S
C2009 C329 1.321 1_554 S
C2017 C287 1.329 . S
C2041 C385 1.306 1_556 S
C2049 C343 1.335 . S
C2073 C357 1.359 . S
C2081 C399 1.335 1_556 S
C2105 C413 1.313 1_556 S
C2113 C371 1.329 . S
C2137 C427 1.322 . S
C2145 C469 1.328 . S
C2169 C441 1.359 . S
C2177 C483 1.328 . S
C2201 C455 1.309 . S
C2209 C497 1.335 . S
C2233 C8 1.427 . S
C2241 C260 1.429 . S
C2265 C274 1.430 . S
C2273 C22 1.428 . S
C2297 C288 1.435 . S
C2305 C36 1.426 . S
C2329 C470 1.425 . S
C2337 C50 1.430 . S
C2361 C484 1.433 . S
C2369 C64 1.428 . S
C2393 C498 1.434 . S
C2401 C78 1.426 . S
C2425 C92 1.435 . S
C2433 C344 1.426 . S
C2457 C358 1.434 . S
C2465 C106 1.426 . S
C2489 C372 1.423 . S
C2497 C120 1.432 . S
C2521 C134 1.425 . S
C2529 C218 1.431 . S
C2553 C148 1.424 . S
C2561 C232 1.432 . S
C2585 C162 1.432 . S
C2593 C246 1.428 . S
C2617 C428 1.433 . S
C2625 C176 1.427 . S
C2649 C442 1.427 . S
C2657 C190 1.429 . S
C2681 C204 1.432 . S
C2689 C456 1.427 . S
C2713 C302 1.424 . S
C2721 C386 1.431 . S
C2745 C316 1.420 . S
C2753 C400 1.433 . S
C2777 C330 1.421 . S
C2785 C414 1.432 . S
