# Generated by pormake.
# Topology tfs, (6)-cn, num edge types: 1
# Building blocks:
#     Node 0, Type 0, BuildingBlock: BETFEN_clean_sbu_0, # of connection points: 6
#     Node 1, Type 0, BuildingBlock: BETFEN_clean_sbu_0, # of connection points: 6
#     Node 2, Type 0, BuildingBlock: BETFEN_clean_sbu_0, # of connection points: 6
#     Node 3, Type 0, BuildingBlock: BETFEN_clean_sbu_0, # of connection points: 6
#     Node 4, Type 0, BuildingBlock: BETFEN_clean_sbu_0, # of connection points: 6
#     Node 5, Type 0, BuildingBlock: BETFEN_clean_sbu_0, # of connection points: 6
#     Edge 6, Type (0, 0), BuildingBlock: AJUNOK_clean_linker_0, # of connection points: 2
#     Edge 7, Type (0, 0), BuildingBlock: AJUNOK_clean_linker_0, # of connection points: 2
#     Edge 8, Type (0, 0), BuildingBlock: AJUNOK_clean_linker_0, # of connection points: 2
#     Edge 9, Type (0, 0), BuildingBlock: AJUNOK_clean_linker_0, # of connection points: 2
#     Edge 10, Type (0, 0), BuildingBlock: AJUNOK_clean_linker_0, # of connection points: 2
#     Edge 11, Type (0, 0), BuildingBlock: AJUNOK_clean_linker_0, # of connection points: 2
#     Edge 12, Type (0, 0), BuildingBlock: AJUNOK_clean_linker_0, # of connection points: 2
#     Edge 13, Type (0, 0), BuildingBlock: AJUNOK_clean_linker_0, # of connection points: 2
#     Edge 14, Type (0, 0), BuildingBlock: AJUNOK_clean_linker_0, # of connection points: 2
#     Edge 15, Type (0, 0), BuildingBlock: AJUNOK_clean_linker_0, # of connection points: 2
#     Edge 16, Type (0, 0), BuildingBlock: AJUNOK_clean_linker_0, # of connection points: 2
#     Edge 17, Type (0, 0), BuildingBlock: AJUNOK_clean_linker_0, # of connection points: 2
#     Edge 18, Type (0, 0), BuildingBlock: AJUNOK_clean_linker_0, # of connection points: 2
#     Edge 19, Type (0, 0), BuildingBlock: AJUNOK_clean_linker_0, # of connection points: 2
#     Edge 20, Type (0, 0), BuildingBlock: AJUNOK_clean_linker_0, # of connection points: 2
#     Edge 21, Type (0, 0), BuildingBlock: AJUNOK_clean_linker_0, # of connection points: 2
#     Edge 22, Type (0, 0), BuildingBlock: AJUNOK_clean_linker_0, # of connection points: 2
#     Edge 23, Type (0, 0), BuildingBlock: AJUNOK_clean_linker_0, # of connection points: 2
# Relax obj value: 0.606
# Max RMSD: 0.475
# Mean RMSD: 0.365
data_MOF--net-tfs--node1-BETFEN_clean_sbu_0--edge1-AJUNOK_clean_linker_0
_symmetry_space_group_name_H-M    P1
_symmetry_Int_Tables_number       1
_symmetry_cell_setting            triclinic
loop_
_symmetry_equiv_pos_as_xyz
'x, y, z'
_cell_length_a     41.964566
_cell_length_b     36.992753
_cell_length_c     10.002145
_cell_angle_alpha  99.045489
_cell_angle_beta   82.60962
_cell_angle_gamma 111.048
loop_
_atom_site_label
_atom_site_type_symbol
_atom_site_fract_x
_atom_site_fract_y
_atom_site_fract_z
_atom_type_partial_charge
Pr0 Pr 0.23333 0.37946 0.39 0.0
Pr1 Pr 0.22042 0.45398 0.35455 0.0
C2 C 0.23414 0.3137 0.47176 0.0
C3 C 0.23785 0.29711 0.59062 0.0
C4 C 0.21774 0.25837 0.60807 0.0
C5 C 0.22399 0.24019 0.70935 0.0
C6 C 0.2505 0.26054 0.7947 0.0
C7 C 0.2693 0.30011 0.78139 0.0
C8 C 0.26292 0.31826 0.68079 0.0
C9 C 0.22435 0.38599 0.12469 0.0
C10 C 0.15369 0.38397 0.45095 0.0
C11 C 0.21807 0.51574 0.2536 0.0
C12 C 0.24079 0.54405 0.16386 0.0
C13 C 0.27021 0.57384 0.21086 0.0
C14 C 0.28918 0.60309 0.1306 0.0
C15 C 0.2792 0.60307 0.0016 0.0
C16 C 0.2515 0.57144 0.95013 0.0
C17 C 0.23234 0.54225 0.03091 0.0
C18 C 0.226 0.44488 0.6208 0.0
C19 C 0.30061 0.45537 0.32483 0.0
O20 O 0.26128 0.34012 0.42194 0.0
O21 O 0.20603 0.32104 0.47031 0.0
O22 O 0.20755 0.39417 0.23017 0.0
O23 O 0.24631 0.37147 0.15234 0.0
O24 O 0.16384 0.41445 0.38337 0.0
O25 O 0.17601 0.36954 0.48357 0.0
O26 O 0.20471 0.47996 0.19619 0.0
O27 O 0.2273 0.51799 0.37588 0.0
O28 O 0.24469 0.43821 0.5187 0.0
O29 O 0.20429 0.45945 0.58941 0.0
O30 O 0.28967 0.42497 0.39457 0.0
O31 O 0.27839 0.4668 0.27636 0.0
H32 H 0.19818 0.24163 0.53945 0.0
H33 H 0.20926 0.20969 0.71659 0.0
H34 H 0.29063 0.31644 0.84222 0.0
H35 H 0.27874 0.34822 0.66933 0.0
H36 H 0.27768 0.57577 0.31217 0.0
H37 H 0.30987 0.62744 0.17486 0.0
H38 H 0.24322 0.57077 0.85124 0.0
H39 H 0.21001 0.51923 -0.00842 0.0
Pr40 Pr 0.83557 0.22609 0.50036 0.0
Pr41 Pr 0.75599 0.20696 0.45658 0.0
C42 C 0.89735 0.24442 0.59689 0.0
C43 C 0.9338 0.26956 0.58318 0.0
C44 C 0.95049 0.2788 0.45552 0.0
C45 C 0.98592 0.29843 0.44176 0.0
C46 C 1.00549 0.30934 0.55524 0.0
C47 C 0.98848 0.30124 0.68369 0.0
C48 C 0.95302 0.2814 0.69729 0.0
C49 C 0.82151 0.22488 0.23935 0.0
C50 C 0.78459 0.13298 0.42582 0.0
C51 C 0.69209 0.19168 0.38888 0.0
C52 C 0.66694 0.21122 0.4337 0.0
C53 C 0.67382 0.24217 0.53933 0.0
C54 C 0.64862 0.25805 0.59312 0.0
C55 C 0.61622 0.24347 0.54135 0.0
C56 C 0.60989 0.2135 0.43185 0.0
C57 C 0.63509 0.19744 0.37858 0.0
C58 C 0.77317 0.21107 0.7176 0.0
C59 C 0.8036 0.30016 0.52608 0.0
O60 O 0.8747 0.26012 0.65456 0.0
O61 O 0.88616 0.21765 0.4948 0.0
O62 O 0.80727 0.2376 0.34401 0.0
O63 O 0.84699 0.21563 0.26559 0.0
O64 O 0.76344 0.14642 0.37806 0.0
O65 O 0.81122 0.15721 0.49119 0.0
O66 O 0.71941 0.2109 0.31575 0.0
O67 O 0.699 0.17511 0.48248 0.0
O68 O 0.78484 0.19587 0.61198 0.0
O69 O 0.74962 0.22386 0.69343 0.0
O70 O 0.82998 0.28954 0.54228 0.0
O71 O 0.77382 0.27465 0.48986 0.0
H72 H 0.93629 0.26993 0.36573 0.0
H73 H 0.99816 0.30417 0.34136 0.0
H74 H 1.00258 0.3101 0.77366 0.0
H75 H 0.94068 0.27452 0.79672 0.0
H76 H 0.69833 0.25318 0.58316 0.0
H77 H 0.65412 0.28106 0.67755 0.0
H78 H 0.58494 0.20122 0.39171 0.0
H79 H 0.62932 0.17344 0.29751 0.0
Pr80 Pr 0.66291 0.77044 0.37341 0.0
Pr81 Pr 0.60459 0.68858 0.28354 0.0
C82 C 0.70867 0.83857 0.47768 0.0
C83 C 0.7197 0.88114 0.46276 0.0
C84 C 0.75407 0.90181 0.42301 0.0
C85 C 0.76521 0.94193 0.41091 0.0
C86 C 0.74238 0.96281 0.43944 0.0
C87 C 0.70781 0.94192 0.47707 0.0
C88 C 0.69663 0.90173 0.4888 0.0
C89 C 0.65708 0.75144 0.09619 0.0
C90 C 0.67794 0.68578 0.34765 0.0
C91 C 0.5521 0.62748 0.17769 0.0
C92 C 0.51525 0.60464 0.20873 0.0
C93 C 0.50291 0.58995 0.33409 0.0
C94 C 0.4686 0.56574 0.35624 0.0
C95 C 0.44585 0.55495 0.25281 0.0
C96 C 0.45831 0.57037 0.1284 0.0
C97 C 0.49235 0.59516 0.10737 0.0
C98 C 0.60719 0.70985 0.56195 0.0
C99 C 0.5926 0.7727 0.26785 0.0
O100 O 0.67829 0.82196 0.53774 0.0
O101 O 0.71667 0.81579 0.37512 0.0
O102 O 0.65412 0.72708 0.17685 0.0
O103 O 0.66698 0.78689 0.15608 0.0
O104 O 0.65257 0.66975 0.26666 0.0
O105 O 0.68447 0.72168 0.41302 0.0
O106 O 0.55985 0.6631 0.14934 0.0
O107 O 0.5746 0.62375 0.2486 0.0
O108 O 0.61198 0.73309 0.47572 0.0
O109 O 0.59686 0.67402 0.50645 0.0
O110 O 0.61868 0.79254 0.34232 0.0
O111 O 0.58421 0.73491 0.23009 0.0
H112 H 0.77247 0.88689 0.40141 0.0
H113 H 0.79179 0.95654 0.37822 0.0
H114 H 0.68943 0.95685 0.50003 0.0
H115 H 0.66992 0.88687 0.5191 0.0
H116 H 0.51981 0.59698 0.4149 0.0
H117 H 0.45992 0.55582 0.45511 0.0
H118 H 0.44189 0.56273 0.0457 0.0
H119 H 0.50116 0.60583 0.0095 0.0
Pr120 Pr 0.80763 0.54175 0.44262 0.0
Pr121 Pr 0.73357 0.49658 0.54253 0.0
C122 C 0.86576 0.5854 0.31339 0.0
C123 C 0.90337 0.59891 0.30654 0.0
C124 C 0.92121 0.61379 0.42407 0.0
C125 C 0.95686 0.63114 0.41344 0.0
C126 C 0.97521 0.63387 0.28531 0.0
C127 C 0.95741 0.61706 0.16837 0.0
C128 C 0.92176 0.59988 0.17899 0.0
C129 C 0.79542 0.54247 0.72327 0.0
C130 C 0.74568 0.5817 0.46643 0.0
C131 C 0.67783 0.46083 0.69878 0.0
C132 C 0.65548 0.47581 0.8008 0.0
C133 C 0.63083 0.48825 0.75966 0.0
C134 C 0.60981 0.50239 0.85564 0.0
C135 C 0.61294 0.50476 -0.00436 0.0
C136 C 0.63867 0.49397 0.03697 0.0
C137 C 0.65944 0.47911 0.94032 0.0
C138 C 0.74613 0.49414 0.26054 0.0
C139 C 0.79232 0.452 0.50898 0.0
O140 O 0.85009 0.59913 0.41979 0.0
O141 O 0.84946 0.54884 0.27021 0.0
O142 O 0.77608 0.54678 0.6451 0.0
O143 O 0.8238 0.5409 0.65752 0.0
O144 O 0.7282 0.55717 0.55385 0.0
O145 O 0.77403 0.57852 0.39783 0.0
O146 O 0.6766 0.4645 0.57141 0.0
O147 O 0.70893 0.46848 0.73198 0.0
O148 O 0.76533 0.49101 0.34147 0.0
O149 O 0.71737 0.49535 0.32391 0.0
O150 O 0.81527 0.4817 0.45146 0.0
O151 O 0.76129 0.45227 0.55246 0.0
H152 H 0.90757 0.61318 0.52377 0.0
H153 H 0.96994 0.64384 0.50522 0.0
H154 H 0.971 0.61797 0.06857 0.0
H155 H 0.90844 0.58837 0.08721 0.0
H156 H 0.62712 0.48628 0.6532 0.0
H157 H 0.58974 0.50943 0.8194 0.0
H158 H 0.64189 0.49563 0.14371 0.0
H159 H 0.67826 0.46965 -0.02519 0.0
Pr160 Pr 0.28448 0.82641 0.17503 0.0
Pr161 Pr 0.36257 0.85527 0.07101 0.0
C162 C 0.22237 0.8082 0.31203 0.0
C163 C 0.1873 0.78074 0.29951 0.0
C164 C 0.17575 0.76201 0.17252 0.0
C165 C 0.14205 0.73618 0.1632 0.0
C166 C 0.11961 0.72871 0.28079 0.0
C167 C 0.13158 0.74697 0.40781 0.0
C168 C 0.16517 0.77284 0.41696 0.0
C169 C 0.29825 0.84099 0.90514 0.0
C170 C 0.33372 0.91746 0.25675 0.0
C171 C 0.42671 0.87281 0.95126 0.0
C172 C 0.45736 0.86879 -0.0051 0.0
C173 C 0.45946 0.86693 0.13254 0.0
C174 C 0.48564 0.85708 0.17279 0.0
C175 C 0.51019 0.84876 0.07607 0.0
C176 C 0.50932 0.85308 0.93924 0.0
C177 C 0.48293 0.86275 0.89885 0.0
C178 C 0.3497 0.83879 0.33934 0.0
C179 C 0.31319 0.76184 -0.00208 0.0
O180 O 0.23361 0.83517 0.22962 0.0
O181 O 0.24518 0.7932 0.32958 0.0
O182 O 0.31533 0.86181 0.00188 0.0
O183 O 0.27132 0.81341 0.94822 0.0
O184 O 0.35445 0.91444 0.14783 0.0
O185 O 0.30876 0.88684 0.2972 0.0
O186 O 0.4021 0.83999 0.91875 0.0
O187 O 0.41547 0.89877 0.0255 0.0
O188 O 0.33189 0.81955 0.24285 0.0
O189 O 0.37753 0.86438 0.29427 0.0
O190 O 0.2892 0.76707 0.0894 0.0
O191 O 0.34134 0.79062 0.96426 0.0
H192 H 0.19272 0.76745 0.08093 0.0
H193 H 0.13355 0.722 0.06435 0.0
H194 H 0.11474 0.7418 0.49981 0.0
H195 H 0.17382 0.78691 0.51579 0.0
H196 H 0.44004 0.87146 0.20855 0.0
H197 H 0.48554 0.85385 0.27866 0.0
H198 H 0.52832 0.84754 0.86282 0.0
H199 H 0.48178 0.86409 0.79222 0.0
Pr200 Pr 0.42285 0.21002 0.9185 0.0
Pr201 Pr 0.42498 0.29173 0.8801 0.0
C202 C 0.41578 0.13954 -0.02129 0.0
C203 C 0.39668 0.10217 0.90446 0.0
C204 C 0.3688 0.09981 0.83521 0.0
C205 C 0.35639 0.06931 0.73337 0.0
C206 C 0.37166 0.0407 0.69903 0.0
C207 C 0.3984 0.04193 0.77305 0.0
C208 C 0.41084 0.07254 0.87543 0.0
C209 C 0.4149 0.21909 0.65328 0.0
C210 C 0.35095 0.22796 0.95604 0.0
C211 C 0.42892 0.36151 0.81905 0.0
C212 C 0.43992 0.40048 0.89611 0.0
C213 C 0.43393 0.40503 0.03829 0.0
C214 C 0.45418 0.43831 0.1152 0.0
C215 C 0.4812 0.4667 0.05088 0.0
C216 C 0.48301 0.46478 0.90812 0.0
C217 C 0.46257 0.43175 0.83136 0.0
C218 C 0.43131 0.28197 0.14577 0.0
C219 C 0.49462 0.26905 0.81426 0.0
O220 O 0.39764 0.15998 0.04514 0.0
O221 O 0.44252 0.16029 0.90738 0.0
O222 O 0.40178 0.23219 0.76014 0.0
O223 O 0.43147 0.1978 0.67953 0.0
O224 O 0.36726 0.25632 0.88129 0.0
O225 O 0.36695 0.20808 0.00173 0.0
O226 O 0.45325 0.34679 0.78166 0.0
O227 O 0.40059 0.33629 0.86615 0.0
O228 O 0.44557 0.26947 0.04062 0.0
O229 O 0.41537 0.30356 0.11716 0.0
O230 O 0.48102 0.2459 0.90967 0.0
O231 O 0.47625 0.28604 0.76694 0.0
H232 H 0.35812 0.12299 0.85304 0.0
H233 H 0.33616 0.06939 0.67624 0.0
H234 H 0.41048 1.02005 0.74826 0.0
H235 H 0.43287 0.07441 0.92566 0.0
H236 H 0.41608 0.38139 0.09072 0.0
H237 H 0.45144 0.43937 0.22453 0.0
H238 H 0.50322 0.48613 0.85389 0.0
H239 H 0.46721 0.42892 0.72171 0.0
C240 C 0.29579 0.19551 0.86227 0.0
C241 C 0.31384 0.21783 -0.02661 0.0
C242 C 0.27091 0.20626 0.8143 0.0
C243 C 0.26333 0.23938 0.87751 0.0
H244 H 0.30482 0.17397 0.79898 0.0
H245 H 0.26122 0.19181 0.71737 0.0
S246 S 0.29614 0.29878 0.19703 0.0
N247 N 0.31685 0.26763 0.16392 0.0
N248 N 0.26947 0.28763 0.07678 0.0
C249 C 0.27659 0.25693 0.00323 0.0
C250 C 0.30185 0.24585 0.05141 0.0
C251 C 0.09286 0.37731 0.43123 0.0
C252 C 0.11623 0.36544 0.48676 0.0
C253 C 0.05738 0.35951 0.456 0.0
C254 C 0.04346 0.32904 0.5379 0.0
H255 H 0.1019 0.40026 0.36575 0.0
H256 H 0.04066 0.3697 0.40997 0.0
S257 S 0.09313 0.28744 0.71153 0.0
N258 N 0.12265 0.32181 0.63145 0.0
N259 N 0.05591 0.28795 0.67638 0.0
C260 C 0.06642 0.31727 0.59657 0.0
C261 C 0.10273 0.33546 0.57121 0.0
C262 C 0.74593 0.06307 0.36322 0.0
C263 C 0.77584 0.08952 0.42115 0.0
C264 C 0.73551 1.02248 0.36853 0.0
C265 C 0.75452 1.00617 0.4315 0.0
H266 H 0.72996 0.07377 0.31496 0.0
H267 H 0.71227 1.00368 0.32265 0.0
S268 S 0.83458 0.06206 0.60098 0.0
N269 N 0.82441 0.09567 0.54375 0.0
N270 N 0.80458 1.02012 0.55529 0.0
C271 C 0.78464 0.03216 0.48867 0.0
C272 C 0.79531 0.07347 0.48316 0.0
C273 C 0.69456 0.59632 0.42087 0.0
C274 C 0.73011 0.60946 0.4332 0.0
C275 C 0.67841 0.62111 0.39083 0.0
C276 C 0.69681 0.66061 0.37558 0.0
H277 H 0.67901 0.56631 0.43307 0.0
H278 H 0.65099 0.60931 0.38215 0.0
S279 S 0.79045 0.70986 0.39805 0.0
N280 N 0.78342 0.66455 0.42493 0.0
N281 N 0.75279 0.71171 0.37478 0.0
C282 C 0.73236 0.67435 0.38859 0.0
C283 C 0.74906 0.64864 0.41532 0.0
C284 C 0.06907 0.67295 0.35639 0.0
C285 C 0.08342 0.7028 0.27204 0.0
C286 C 0.03424 0.65002 0.35742 0.0
C287 C 1.01251 0.6562 0.2743 0.0
H288 H 0.08484 0.66753 0.42305 0.0
H289 H 1.02416 0.62756 0.42476 0.0
S290 S 0.03732 0.7318 0.03928 0.0
N291 N 0.07324 0.73782 0.10526 0.0
N292 N 1.00772 0.69497 0.10771 0.0
C293 C 1.02666 0.68571 0.18841 0.0
C294 C 0.06212 0.70895 0.18715 0.0
C295 C 0.37655 0.97711 0.36634 0.0
C296 C 0.34216 0.95333 0.35333 0.0
C297 C 0.38588 1.00551 0.47847 0.0
C298 C 0.36112 1.01114 0.58046 0.0
H299 H 0.39658 0.97237 0.29375 0.0
H300 H 0.41272 1.0228 0.48649 0.0
S301 S 0.26744 0.95828 0.58886 0.0
N302 N 0.28303 0.93901 0.44714 0.0
N303 N 0.3008 0.99191 0.65879 0.0
C304 C 0.32656 0.98871 0.56567 0.0
C305 C 0.31703 0.95996 0.45168 0.0
C306 C 0.27552 0.69573 0.91815 0.0
C307 C 0.30878 0.72144 0.94168 0.0
C308 C 0.26709 0.65563 0.91679 0.0
C309 C 0.29165 0.64013 0.94072 0.0
H310 H 0.25511 0.70696 0.91443 0.0
H311 H 0.24031 0.63752 0.91399 0.0
S312 S 0.38438 0.69442 0.96778 0.0
N313 N 0.36796 0.72838 0.95921 0.0
N314 N 0.35209 0.65245 0.9564 0.0
C315 C 0.32606 0.66498 0.94315 0.0
C316 C 0.33468 0.70596 0.94378 0.0
C317 C 0.55091 0.26092 0.81802 0.0
C318 C 0.52853 0.2702 0.74726 0.0
C319 C 0.58016 0.25433 0.75158 0.0
C320 C 0.58796 0.25627 0.61131 0.0
H321 H 0.54514 0.25727 0.92487 0.0
H322 H 0.59583 0.24571 0.8093 0.0
S323 S 0.53963 0.2831 0.38142 0.0
N324 N 0.51773 0.28403 0.5307 0.0
N325 N 0.5726 0.27112 0.40561 0.0
C326 C 0.5668 0.26738 0.54041 0.0
C327 C 0.53718 0.27462 0.60854 0.0
C328 C 0.38295 0.5366 0.22201 0.0
C329 C 0.40909 0.52861 0.27383 0.0
C330 C 0.34842 0.51254 0.23765 0.0
C331 C 0.33803 0.4791 0.30616 0.0
H332 H 0.38906 0.56214 0.17021 0.0
H333 H 0.32969 0.52068 0.19622 0.0
S334 S 0.39609 0.44422 0.45972 0.0
N335 N 0.4219 0.48404 0.39554 0.0
N336 N 0.35714 0.43908 0.42544 0.0
C337 C 0.36382 0.47054 0.35835 0.0
C338 C 0.39916 0.49519 0.34249 0.0
C339 C 0.7757 0.38817 0.60311 0.0
C340 C 0.79978 0.41613 0.52534 0.0
C341 C 0.77877 0.35201 0.61004 0.0
C342 C 0.80638 0.34194 0.54185 0.0
H343 H 0.75334 0.39349 0.65624 0.0
H344 H 0.75848 0.33102 0.66555 0.0
S345 S 0.87823 0.40503 0.33308 0.0
N346 N 0.85368 0.43168 0.38489 0.0
N347 N 0.8595 0.36358 0.39966 0.0
C348 C 0.83183 0.37018 0.47007 0.0
C349 C 0.82855 0.40724 0.46157 0.0
C350 C 0.5523 0.84785 0.23271 0.0
C351 C 0.53385 0.83136 0.11669 0.0
C352 C 0.5719 0.82931 0.28015 0.0
C353 C 0.57313 0.79322 0.21479 0.0
H354 H 0.55125 0.87508 0.28806 0.0
H355 H 0.58541 0.84284 0.37043 0.0
S356 S 0.53036 0.73857 0.90342 0.0
N357 N 0.51884 0.77745 0.93583 0.0
N358 N 0.55541 0.74272 0.02334 0.0
C359 C 0.55535 0.77693 0.09675 0.0
C360 C 0.53581 0.79597 0.04807 0.0
C361 C 0.56934 0.53637 0.06353 0.0
C362 C 0.58475 0.51067 0.09208 0.0
C363 C 0.53367 0.52559 0.07482 0.0
C364 C 0.51282 0.48989 0.1206 0.0
H365 H 0.58414 0.56079 0.00812 0.0
H366 H 0.52262 0.54155 0.02455 0.0
S367 S 0.54267 0.42461 0.27897 0.0
N368 N 0.57799 0.45678 0.21743 0.0
N369 N 0.51107 0.43769 0.24636 0.0
C370 C 0.52866 0.47025 0.18512 0.0
C371 C 0.56496 0.48061 0.16978 0.0
C372 C 0.25153 0.40418 0.89712 0.0
C373 C 0.22325 0.39842 -0.00676 0.0
C374 C 0.25225 0.41974 0.77749 0.0
C375 C 0.22478 0.43016 0.75042 0.0
H376 H 0.27354 0.39743 0.91561 0.0
H377 H 0.27464 0.42388 0.70611 0.0
S378 S 0.14322 0.41668 0.96329 0.0
N379 N 0.16592 0.40119 0.04892 0.0
N380 N 0.1676 0.43109 0.82478 0.0
C381 C 0.19599 0.4236 0.84409 0.0
C382 C 0.19512 0.40744 0.96529 0.0
C383 C 0.78657 0.23918 0.08854 0.0
C384 C 0.81086 0.22239 0.1048 0.0
C385 C 0.7744 0.23546 0.96217 0.0
C386 C 0.78631 0.21504 0.84913 0.0
H387 H 0.77683 0.25517 0.17384 0.0
H388 H 0.75555 0.24858 0.95326 0.0
S389 S 0.85076 0.16682 0.83963 0.0
N390 N 0.84701 0.18559 -0.00088 0.0
N391 N 0.82426 0.17841 0.7607 0.0
C392 C 0.81108 0.19867 0.86404 0.0
C393 C 0.8234 0.20251 -0.00745 0.0
C394 C 0.6369 0.70336 0.89458 0.0
C395 C 0.64394 0.74136 0.96099 0.0
C396 C 0.62439 0.69334 0.76595 0.0
C397 C 0.61833 0.72096 0.70019 0.0
H398 H 0.64147 0.68135 0.94147 0.0
H399 H 0.62 0.66388 0.71684 0.0
S400 S 0.62822 0.82292 0.8388 0.0
N401 N 0.64146 0.80605 0.95626 0.0
N402 N 0.61707 0.78655 0.71549 0.0
C403 C 0.62405 0.75862 0.76735 0.0
C404 C 0.63711 0.76901 0.89772 0.0
C405 C 0.74257 0.52533 0.06075 0.0
C406 C 0.75828 0.505 0.1219 0.0
C407 C 0.75496 0.53776 0.93235 0.0
C408 C 0.78374 0.53067 0.86122 0.0
H409 H 0.72076 0.5321 0.11304 0.0
H410 H 0.74193 0.55308 0.8886 0.0
S411 S 0.83318 0.47716 -0.02483 0.0
N412 N 0.80333 0.47718 0.09999 0.0
N413 N 0.82702 0.50105 0.86037 0.0
C414 C 0.79963 0.51031 0.92141 0.0
C415 C 0.78681 0.49737 0.05134 0.0
C416 C 0.30794 0.8096 0.52779 0.0
C417 C 0.33722 0.83962 0.484 0.0
C418 C 0.29504 0.81071 0.66409 0.0
C419 C 0.3111 0.84185 0.7611 0.0
H420 H 0.29506 0.78493 0.45656 0.0
H421 H 0.27263 0.78669 0.69382 0.0
S422 S 0.38787 0.92841 0.69727 0.0
N423 N 0.38149 0.90194 0.5477 0.0
N424 N 0.35726 0.90383 0.80365 0.0
C425 C 0.34024 0.8722 0.71843 0.0
C426 C 0.35336 0.8711 0.57987 0.0
C427 C 0.44081 0.2269 0.41678 0.0
C428 C 0.41725 0.2334 0.52212 0.0
C429 C 0.4455 0.24324 0.29562 0.0
C430 C 0.42682 0.26662 0.27626 0.0
H431 H 0.4562 0.20973 0.4288 0.0
H432 H 0.46401 0.23762 0.21684 0.0
S433 S 0.36014 0.29009 0.51761 0.0
N434 N 0.3736 0.26294 0.59657 0.0
N435 N 0.38283 0.29408 0.36965 0.0
C436 C 0.40276 0.2728 0.37987 0.0
C437 C 0.39781 0.25597 0.50267 0.0
loop_
_geom_bond_atom_site_label_1
_geom_bond_atom_site_label_2
_geom_bond_distance
_geom_bond_site_symmetry_2
_ccdc_geom_bond_type
Pr0 C2 2.880 1_556 S
Pr0 O20 2.562 1_556 S
Pr0 O21 2.490 . S
Pr0 O22 2.695 . S
Pr0 O23 2.512 . S
Pr0 O25 2.437 . S
Pr0 O28 2.436 1_556 S
Pr0 O30 2.438 . S
Pr1 C11 2.880 1_554 S
Pr1 O22 2.436 1_554 S
Pr1 O24 2.438 . S
Pr1 O26 2.562 1_554 S
Pr1 O27 2.490 . S
Pr1 O28 2.695 . S
Pr1 O29 2.512 . S
Pr1 O31 2.437 . S
C2 Pr0 2.880 1_554 S
C2 C3 1.491 . S
C2 O20 1.254 . S
C2 O21 1.225 1_554 S
C3 C2 1.491 . S
C3 C4 1.392 1_554 S
C3 C8 1.356 . S
C4 C3 1.392 1_556 S
C4 C5 1.368 . S
C4 H32 0.929 . S
C5 C4 1.368 . S
C5 C6 1.386 1_556 S
C5 H33 0.929 . S
C6 C5 1.386 1_554 S
C6 C7 1.373 . S
C7 C6 1.373 . S
C7 C8 1.409 . S
C7 H34 0.931 . S
C8 C3 1.356 . S
C8 C7 1.409 . S
C8 H35 0.930 . S
C9 O22 1.270 . S
C9 O23 1.248 . S
C10 O24 1.267 . S
C10 O25 1.278 1_554 S
C11 Pr1 2.880 1_556 S
C11 C12 1.491 . S
C11 O26 1.254 . S
C11 O27 1.225 1_556 S
C12 C11 1.491 . S
C12 C13 1.392 1_556 S
C12 C17 1.356 . S
C13 C12 1.392 1_554 S
C13 C14 1.368 . S
C13 H36 0.929 . S
C14 C13 1.368 . S
C14 C15 1.386 1_554 S
C14 H37 0.929 . S
C15 C14 1.386 1_556 S
C15 C16 1.373 . S
C16 C15 1.373 . S
C16 C17 1.409 . S
C16 H38 0.931 . S
C17 C12 1.356 . S
C17 C16 1.409 . S
C17 H39 0.930 . S
C18 O28 1.270 . S
C18 O29 1.248 . S
C19 O30 1.267 . S
C19 O31 1.278 1_556 S
O20 Pr0 2.562 1_554 S
O20 C2 1.254 . S
O21 Pr0 2.490 . S
O21 C2 1.225 1_556 S
O22 Pr0 2.695 . S
O22 Pr1 2.436 1_556 S
O22 C9 1.270 . S
O23 Pr0 2.512 . S
O23 C9 1.248 . S
O24 Pr1 2.438 . S
O24 C10 1.267 . S
O25 Pr0 2.437 . S
O25 C10 1.278 1_556 S
O26 Pr1 2.562 1_556 S
O26 C11 1.254 . S
O27 Pr1 2.490 . S
O27 C11 1.225 1_554 S
O28 Pr0 2.436 1_554 S
O28 Pr1 2.695 . S
O28 C18 1.270 . S
O29 Pr1 2.512 . S
O29 C18 1.248 . S
O30 Pr0 2.438 . S
O30 C19 1.267 . S
O31 Pr1 2.437 . S
O31 C19 1.278 1_554 S
H32 C4 0.929 . S
H33 C5 0.929 . S
H34 C7 0.931 . S
H35 C8 0.930 . S
H36 C13 0.929 . S
H37 C14 0.929 . S
H38 C16 0.931 . S
H39 C17 0.930 . S
Pr40 C42 2.880 . S
Pr40 O60 2.562 . S
Pr40 O61 2.490 . S
Pr40 O62 2.695 . S
Pr40 O63 2.512 . S
Pr40 O65 2.437 . S
Pr40 O68 2.436 1_556 S
Pr40 O70 2.438 . S
Pr41 C51 2.880 1_556 S
Pr41 O62 2.436 . S
Pr41 O64 2.438 . S
Pr41 O66 2.562 . S
Pr41 O67 2.490 1_556 S
Pr41 O68 2.695 1_556 S
Pr41 O69 2.512 1_556 S
Pr41 O71 2.437 1_556 S
C42 Pr40 2.880 . S
C42 C43 1.491 . S
C42 O60 1.254 . S
C42 O61 1.225 . S
C43 C42 1.491 . S
C43 C44 1.392 . S
C43 C48 1.356 . S
C44 C43 1.392 . S
C44 C45 1.368 . S
C44 H72 0.929 . S
C45 C44 1.368 . S
C45 C46 1.386 . S
C45 H73 0.929 . S
C46 C45 1.386 . S
C46 C47 1.373 . S
C47 C46 1.373 . S
C47 C48 1.409 . S
C47 H74 0.931 . S
C48 C43 1.356 . S
C48 C47 1.409 . S
C48 H75 0.930 1_556 S
C49 O62 1.270 . S
C49 O63 1.248 . S
C50 O64 1.267 . S
C50 O65 1.278 . S
C51 Pr41 2.880 1_554 S
C51 C52 1.491 . S
C51 O66 1.254 1_554 S
C51 O67 1.225 . S
C52 C51 1.491 . S
C52 C53 1.392 . S
C52 C57 1.356 1_554 S
C53 C52 1.392 . S
C53 C54 1.368 . S
C53 H76 0.929 . S
C54 C53 1.368 . S
C54 C55 1.386 . S
C54 H77 0.929 . S
C55 C54 1.386 . S
C55 C56 1.373 1_554 S
C56 C55 1.373 1_556 S
C56 C57 1.409 . S
C56 H78 0.931 . S
C57 C52 1.356 1_556 S
C57 C56 1.409 . S
C57 H79 0.930 . S
C58 O68 1.270 . S
C58 O69 1.248 . S
C59 O70 1.267 1_554 S
C59 O71 1.278 . S
O60 Pr40 2.562 . S
O60 C42 1.254 . S
O61 Pr40 2.490 . S
O61 C42 1.225 . S
O62 Pr40 2.695 . S
O62 Pr41 2.436 . S
O62 C49 1.270 . S
O63 Pr40 2.512 . S
O63 C49 1.248 . S
O64 Pr41 2.438 . S
O64 C50 1.267 . S
O65 Pr40 2.437 . S
O65 C50 1.278 . S
O66 Pr41 2.562 . S
O66 C51 1.254 1_556 S
O67 Pr41 2.490 1_554 S
O67 C51 1.225 . S
O68 Pr40 2.436 1_554 S
O68 Pr41 2.695 1_554 S
O68 C58 1.270 . S
O69 Pr41 2.512 1_554 S
O69 C58 1.248 . S
O70 Pr40 2.438 . S
O70 C59 1.267 1_556 S
O71 Pr41 2.437 1_554 S
O71 C59 1.278 . S
H72 C44 0.929 . S
H73 C45 0.929 . S
H74 C47 0.931 . S
H75 C48 0.930 1_554 S
H76 C53 0.929 . S
H77 C54 0.929 . S
H78 C56 0.931 . S
H79 C57 0.930 . S
Pr80 C82 2.880 . S
Pr80 O100 2.562 . S
Pr80 O101 2.490 . S
Pr80 O102 2.695 1_554 S
Pr80 O103 2.512 1_554 S
Pr80 O105 2.437 . S
Pr80 O108 2.436 . S
Pr80 O110 2.438 . S
Pr81 C91 2.880 1_554 S
Pr81 O102 2.436 1_554 S
Pr81 O104 2.438 . S
Pr81 O106 2.562 1_554 S
Pr81 O107 2.490 . S
Pr81 O108 2.695 . S
Pr81 O109 2.512 . S
Pr81 O111 2.437 . S
C82 Pr80 2.880 . S
C82 C83 1.491 . S
C82 O100 1.254 . S
C82 O101 1.225 . S
C83 C82 1.491 . S
C83 C84 1.392 . S
C83 C88 1.356 . S
C84 C83 1.392 . S
C84 C85 1.368 . S
C84 H112 0.929 . S
C85 C84 1.368 . S
C85 C86 1.386 . S
C85 H113 0.929 . S
C86 C85 1.386 . S
C86 C87 1.373 . S
C87 C86 1.373 . S
C87 C88 1.409 . S
C87 H114 0.931 . S
C88 C83 1.356 . S
C88 C87 1.409 . S
C88 H115 0.930 . S
C89 O102 1.270 . S
C89 O103 1.248 . S
C90 O104 1.267 . S
C90 O105 1.278 . S
C91 Pr81 2.880 1_556 S
C91 C92 1.491 . S
C91 O106 1.254 . S
C91 O107 1.225 1_556 S
C92 C91 1.491 . S
C92 C93 1.392 . S
C92 C97 1.356 . S
C93 C92 1.392 . S
C93 C94 1.368 . S
C93 H116 0.929 1_556 S
C94 C93 1.368 . S
C94 C95 1.386 . S
C94 H117 0.929 1_556 S
C95 C94 1.386 . S
C95 C96 1.373 . S
C96 C95 1.373 . S
C96 C97 1.409 . S
C96 H118 0.931 . S
C97 C92 1.356 . S
C97 C96 1.409 . S
C97 H119 0.930 . S
C98 O108 1.270 . S
C98 O109 1.248 . S
C99 O110 1.267 . S
C99 O111 1.278 . S
O100 Pr80 2.562 . S
O100 C82 1.254 . S
O101 Pr80 2.490 . S
O101 C82 1.225 . S
O102 Pr80 2.695 1_556 S
O102 Pr81 2.436 1_556 S
O102 C89 1.270 . S
O103 Pr80 2.512 1_556 S
O103 C89 1.248 . S
O104 Pr81 2.438 . S
O104 C90 1.267 . S
O105 Pr80 2.437 . S
O105 C90 1.278 . S
O106 Pr81 2.562 1_556 S
O106 C91 1.254 . S
O107 Pr81 2.490 . S
O107 C91 1.225 1_554 S
O108 Pr80 2.436 . S
O108 Pr81 2.695 . S
O108 C98 1.270 . S
O109 Pr81 2.512 . S
O109 C98 1.248 . S
O110 Pr80 2.438 . S
O110 C99 1.267 . S
O111 Pr81 2.437 . S
O111 C99 1.278 . S
H112 C84 0.929 . S
H113 C85 0.929 . S
H114 C87 0.931 . S
H115 C88 0.930 . S
H116 C93 0.929 1_554 S
H117 C94 0.929 1_554 S
H118 C96 0.931 . S
H119 C97 0.930 . S
Pr120 C122 2.880 . S
Pr120 O140 2.562 . S
Pr120 O141 2.490 1_556 S
Pr120 O142 2.695 1_556 S
Pr120 O143 2.512 1_556 S
Pr120 O145 2.437 1_556 S
Pr120 O148 2.436 . S
Pr120 O150 2.438 1_556 S
Pr121 C131 2.880 . S
Pr121 O142 2.436 . S
Pr121 O144 2.438 1_554 S
Pr121 O146 2.562 . S
Pr121 O147 2.490 1_554 S
Pr121 O148 2.695 1_554 S
Pr121 O149 2.512 1_554 S
Pr121 O151 2.437 1_554 S
C122 Pr120 2.880 . S
C122 C123 1.491 . S
C122 O140 1.254 . S
C122 O141 1.225 1_556 S
C123 C122 1.491 . S
C123 C124 1.392 . S
C123 C128 1.356 . S
C124 C123 1.392 . S
C124 C125 1.368 . S
C124 H152 0.929 1_556 S
C125 C124 1.368 . S
C125 C126 1.386 . S
C125 H153 0.929 . S
C126 C125 1.386 . S
C126 C127 1.373 . S
C127 C126 1.373 . S
C127 C128 1.409 . S
C127 H154 0.931 . S
C128 C123 1.356 . S
C128 C127 1.409 . S
C128 H155 0.930 . S
C129 O142 1.270 . S
C129 O143 1.248 . S
C130 O144 1.267 . S
C130 O145 1.278 1_556 S
C131 Pr121 2.880 . S
C131 C132 1.491 . S
C131 O146 1.254 . S
C131 O147 1.225 1_554 S
C132 C131 1.491 . S
C132 C133 1.392 . S
C132 C137 1.356 . S
C133 C132 1.392 . S
C133 C134 1.368 . S
C133 H156 0.929 1_554 S
C134 C133 1.368 . S
C134 C135 1.386 . S
C134 H157 0.929 . S
C135 C134 1.386 . S
C135 C136 1.373 . S
C136 C135 1.373 . S
C136 C137 1.409 . S
C136 H158 0.931 . S
C137 C132 1.356 . S
C137 C136 1.409 . S
C137 H159 0.930 . S
C138 O148 1.270 . S
C138 O149 1.248 . S
C139 O150 1.267 . S
C139 O151 1.278 1_554 S
O140 Pr120 2.562 . S
O140 C122 1.254 . S
O141 Pr120 2.490 1_554 S
O141 C122 1.225 1_554 S
O142 Pr120 2.695 1_554 S
O142 Pr121 2.436 . S
O142 C129 1.270 . S
O143 Pr120 2.512 1_554 S
O143 C129 1.248 . S
O144 Pr121 2.438 1_556 S
O144 C130 1.267 . S
O145 Pr120 2.437 1_554 S
O145 C130 1.278 1_554 S
O146 Pr121 2.562 . S
O146 C131 1.254 . S
O147 Pr121 2.490 1_556 S
O147 C131 1.225 1_556 S
O148 Pr120 2.436 . S
O148 Pr121 2.695 1_556 S
O148 C138 1.270 . S
O149 Pr121 2.512 1_556 S
O149 C138 1.248 . S
O150 Pr120 2.438 1_554 S
O150 C139 1.267 . S
O151 Pr121 2.437 1_556 S
O151 C139 1.278 1_556 S
H152 C124 0.929 1_554 S
H153 C125 0.929 . S
H154 C127 0.931 . S
H155 C128 0.930 . S
H156 C133 0.929 1_556 S
H157 C134 0.929 . S
H158 C136 0.931 . S
H159 C137 0.930 . S
Pr160 C162 2.880 . S
Pr160 O180 2.562 . S
Pr160 O181 2.490 1_554 S
Pr160 O182 2.695 1_554 S
Pr160 O183 2.512 1_554 S
Pr160 O185 2.437 . S
Pr160 O188 2.436 . S
Pr160 O190 2.438 1_554 S
Pr161 C171 2.880 . S
Pr161 O182 2.436 . S
Pr161 O184 2.438 1_556 S
Pr161 O186 2.562 . S
Pr161 O187 2.490 1_556 S
Pr161 O188 2.695 1_556 S
Pr161 O189 2.512 1_556 S
Pr161 O191 2.437 . S
C162 Pr160 2.880 . S
C162 C163 1.491 . S
C162 O180 1.254 . S
C162 O181 1.225 1_554 S
C163 C162 1.491 . S
C163 C164 1.392 . S
C163 C168 1.356 . S
C164 C163 1.392 . S
C164 C165 1.368 . S
C164 H192 0.929 1_554 S
C165 C164 1.368 . S
C165 C166 1.386 . S
C165 H193 0.929 . S
C166 C165 1.386 . S
C166 C167 1.373 . S
C167 C166 1.373 . S
C167 C168 1.409 . S
C167 H194 0.931 . S
C168 C163 1.356 . S
C168 C167 1.409 . S
C168 H195 0.930 . S
C169 O182 1.270 . S
C169 O183 1.248 . S
C170 O184 1.267 . S
C170 O185 1.278 . S
C171 Pr161 2.880 . S
C171 C172 1.491 . S
C171 O186 1.254 . S
C171 O187 1.225 1_556 S
C172 C171 1.491 . S
C172 C173 1.392 . S
C172 C177 1.356 . S
C173 C172 1.392 . S
C173 C174 1.368 . S
C173 H196 0.929 1_556 S
C174 C173 1.368 . S
C174 C175 1.386 . S
C174 H197 0.929 . S
C175 C174 1.386 . S
C175 C176 1.373 . S
C176 C175 1.373 . S
C176 C177 1.409 . S
C176 H198 0.931 . S
C177 C172 1.356 . S
C177 C176 1.409 . S
C177 H199 0.930 . S
C178 O188 1.270 . S
C178 O189 1.248 . S
C179 O190 1.267 . S
C179 O191 1.278 . S
O180 Pr160 2.562 . S
O180 C162 1.254 . S
O181 Pr160 2.490 1_556 S
O181 C162 1.225 1_556 S
O182 Pr160 2.695 1_556 S
O182 Pr161 2.436 . S
O182 C169 1.270 . S
O183 Pr160 2.512 1_556 S
O183 C169 1.248 . S
O184 Pr161 2.438 1_554 S
O184 C170 1.267 . S
O185 Pr160 2.437 . S
O185 C170 1.278 . S
O186 Pr161 2.562 . S
O186 C171 1.254 . S
O187 Pr161 2.490 1_554 S
O187 C171 1.225 1_554 S
O188 Pr160 2.436 . S
O188 Pr161 2.695 1_554 S
O188 C178 1.270 . S
O189 Pr161 2.512 1_554 S
O189 C178 1.248 . S
O190 Pr160 2.438 1_556 S
O190 C179 1.267 . S
O191 Pr161 2.437 . S
O191 C179 1.278 . S
H192 C164 0.929 1_556 S
H193 C165 0.929 . S
H194 C167 0.931 . S
H195 C168 0.930 . S
H196 C173 0.929 1_554 S
H197 C174 0.929 . S
H198 C176 0.931 . S
H199 C177 0.930 . S
Pr200 C202 2.880 . S
Pr200 O220 2.562 1_556 S
Pr200 O221 2.490 . S
Pr200 O222 2.695 . S
Pr200 O223 2.512 . S
Pr200 O225 2.437 . S
Pr200 O228 2.436 1_556 S
Pr200 O230 2.438 . S
Pr201 C211 2.880 . S
Pr201 O222 2.436 1_554 S
Pr201 O224 2.438 . S
Pr201 O226 2.562 1_554 S
Pr201 O227 2.490 . S
Pr201 O228 2.695 . S
Pr201 O229 2.512 . S
Pr201 O231 2.437 . S
C202 Pr200 2.880 . S
C202 C203 1.491 . S
C202 O220 1.254 1_556 S
C202 O221 1.225 . S
C203 C202 1.491 . S
C203 C204 1.392 1_545 S
C203 C208 1.356 . S
C204 C203 1.392 1_565 S
C204 C205 1.368 . S
C204 H232 0.929 . S
C205 C204 1.368 . S
C205 C206 1.386 . S
C205 H233 0.929 . S
C206 C205 1.386 . S
C206 C207 1.373 . S
C207 C206 1.373 . S
C207 C208 1.409 1_565 S
C207 H234 0.931 1_556 S
C208 C203 1.356 . S
C208 C207 1.409 1_545 S
C208 H235 0.930 1_556 S
C209 O222 1.270 . S
C209 O223 1.248 . S
C210 O224 1.267 1_556 S
C210 O225 1.278 . S
C211 Pr201 2.880 . S
C211 C212 1.491 . S
C211 O226 1.254 1_554 S
C211 O227 1.225 . S
C212 C211 1.491 . S
C212 C213 1.392 . S
C212 C217 1.356 . S
C213 C212 1.392 . S
C213 C214 1.368 . S
C213 H236 0.929 . S
C214 C213 1.368 . S
C214 C215 1.386 . S
C214 H237 0.929 . S
C215 C214 1.386 . S
C215 C216 1.373 . S
C216 C215 1.373 . S
C216 C217 1.409 . S
C216 H238 0.931 1_554 S
C217 C212 1.356 . S
C217 C216 1.409 . S
C217 H239 0.930 1_554 S
C218 O228 1.270 . S
C218 O229 1.248 . S
C219 O230 1.267 1_554 S
C219 O231 1.278 . S
O220 Pr200 2.562 1_554 S
O220 C202 1.254 1_554 S
O221 Pr200 2.490 . S
O221 C202 1.225 . S
O222 Pr200 2.695 . S
O222 Pr201 2.436 1_556 S
O222 C209 1.270 . S
O223 Pr200 2.512 . S
O223 C209 1.248 . S
O224 Pr201 2.438 . S
O224 C210 1.267 1_554 S
O225 Pr200 2.437 . S
O225 C210 1.278 . S
O226 Pr201 2.562 1_556 S
O226 C211 1.254 1_556 S
O227 Pr201 2.490 . S
O227 C211 1.225 . S
O228 Pr200 2.436 1_554 S
O228 Pr201 2.695 . S
O228 C218 1.270 . S
O229 Pr201 2.512 . S
O229 C218 1.248 . S
O230 Pr200 2.438 . S
O230 C219 1.267 1_556 S
O231 Pr201 2.437 . S
O231 C219 1.278 . S
H232 C204 0.929 . S
H233 C205 0.929 . S
H234 C207 0.931 1_554 S
H235 C208 0.930 1_554 S
H236 C213 0.929 . S
H237 C214 0.929 . S
H238 C216 0.931 1_556 S
H239 C217 0.930 1_556 S
C240 C241 1.369 . S
C240 C242 1.419 . S
C240 H244 0.930 . S
C241 C240 1.369 . S
C241 C250 1.429 . S
C242 C240 1.419 . S
C242 C243 1.363 . S
C242 H245 0.929 . S
C243 C242 1.363 . S
C243 C249 1.428 . S
H244 C240 0.930 . S
H245 C242 0.929 . S
S246 N247 1.613 . S
S246 N248 1.610 . S
N247 S246 1.613 . S
N247 C250 1.350 . S
N248 S246 1.610 . S
N248 C249 1.351 . S
C249 C243 1.428 . S
C249 N248 1.351 . S
C249 C250 1.434 . S
C250 C241 1.429 . S
C250 N247 1.350 . S
C250 C249 1.434 . S
C251 C252 1.369 . S
C251 C253 1.419 . S
C251 H255 0.930 . S
C252 C251 1.369 . S
C252 C261 1.429 . S
C253 C251 1.419 . S
C253 C254 1.363 . S
C253 H256 0.929 . S
C254 C253 1.363 . S
C254 C260 1.428 . S
H255 C251 0.930 . S
H256 C253 0.929 . S
S257 N258 1.613 . S
S257 N259 1.610 . S
N258 S257 1.613 . S
N258 C261 1.350 . S
N259 S257 1.610 . S
N259 C260 1.351 . S
C260 C254 1.428 . S
C260 N259 1.351 . S
C260 C261 1.434 . S
C261 C252 1.429 . S
C261 N258 1.350 . S
C261 C260 1.434 . S
C262 C263 1.369 . S
C262 C264 1.419 . S
C262 H266 0.930 . S
C263 C262 1.369 . S
C263 C272 1.429 . S
C264 C262 1.419 . S
C264 C265 1.363 . S
C264 H267 0.936 . S
C265 C264 1.363 . S
C265 C271 1.428 . S
H266 C262 0.930 . S
H267 C264 0.936 . S
S268 N269 1.613 . S
S268 N270 1.610 . S
N269 S268 1.613 . S
N269 C272 1.350 . S
N270 S268 1.610 . S
N270 C271 1.351 . S
C271 C265 1.428 . S
C271 N270 1.351 . S
C271 C272 1.434 . S
C272 C263 1.429 . S
C272 N269 1.350 . S
C272 C271 1.434 . S
C273 C274 1.369 . S
C273 C275 1.419 . S
C273 H277 0.930 . S
C274 C273 1.369 . S
C274 C283 1.429 . S
C275 C273 1.419 . S
C275 C276 1.363 . S
C275 H278 0.929 . S
C276 C275 1.363 . S
C276 C282 1.428 . S
H277 C273 0.930 . S
H278 C275 0.929 . S
S279 N280 1.613 . S
S279 N281 1.610 . S
N280 S279 1.613 . S
N280 C283 1.350 . S
N281 S279 1.610 . S
N281 C282 1.351 . S
C282 C276 1.428 . S
C282 N281 1.351 . S
C282 C283 1.434 . S
C283 C274 1.429 . S
C283 N280 1.350 . S
C283 C282 1.434 . S
C284 C285 1.369 . S
C284 C286 1.419 . S
C284 H288 0.930 . S
C285 C284 1.369 . S
C285 C294 1.429 . S
C286 C284 1.419 . S
C286 C287 1.363 1_455 S
C286 H289 0.929 . S
C287 C286 1.363 1_655 S
C287 C293 1.428 . S
H288 C284 0.930 . S
H289 C286 0.929 . S
S290 N291 1.613 1_655 S
S290 N292 1.610 . S
N291 S290 1.613 1_455 S
N291 C294 1.350 . S
N292 S290 1.610 . S
N292 C293 1.351 . S
C293 C287 1.428 . S
C293 N292 1.351 . S
C293 C294 1.434 1_655 S
C294 C285 1.429 . S
C294 N291 1.350 . S
C294 C293 1.434 1_455 S
C295 C296 1.369 . S
C295 C297 1.419 . S
C295 H299 0.930 . S
C296 C295 1.369 . S
C296 C305 1.429 . S
C297 C295 1.419 . S
C297 C298 1.363 . S
C297 H300 0.929 . S
C298 C297 1.363 . S
C298 C304 1.428 . S
H299 C295 0.930 . S
H300 C297 0.929 . S
S301 N302 1.613 . S
S301 N303 1.610 . S
N302 S301 1.613 . S
N302 C305 1.350 . S
N303 S301 1.610 . S
N303 C304 1.351 . S
C304 C298 1.428 . S
C304 N303 1.351 . S
C304 C305 1.434 . S
C305 C296 1.429 . S
C305 N302 1.350 . S
C305 C304 1.434 . S
C306 C307 1.369 . S
C306 C308 1.419 . S
C306 H310 0.930 . S
C307 C306 1.369 . S
C307 C316 1.429 . S
C308 C306 1.419 . S
C308 C309 1.363 . S
C308 H311 0.929 . S
C309 C308 1.363 . S
C309 C315 1.428 . S
H310 C306 0.930 . S
H311 C308 0.929 . S
S312 N313 1.613 . S
S312 N314 1.610 . S
N313 S312 1.613 . S
N313 C316 1.350 1_554 S
N314 S312 1.610 . S
N314 C315 1.351 1_554 S
C315 C309 1.428 . S
C315 N314 1.351 1_556 S
C315 C316 1.434 . S
C316 C307 1.429 . S
C316 N313 1.350 1_556 S
C316 C315 1.434 . S
C317 C318 1.369 . S
C317 C319 1.419 . S
C317 H321 0.930 . S
C318 C317 1.369 . S
C318 C327 1.429 . S
C319 C317 1.419 . S
C319 C320 1.363 . S
C319 H322 0.929 . S
C320 C319 1.363 . S
C320 C326 1.428 . S
H321 C317 0.930 . S
H322 C319 0.929 . S
S323 N324 1.613 . S
S323 N325 1.610 . S
N324 S323 1.613 . S
N324 C327 1.350 1_556 S
N325 S323 1.610 . S
N325 C326 1.351 1_556 S
C326 C320 1.428 . S
C326 N325 1.351 1_554 S
C326 C327 1.434 . S
C327 C318 1.429 . S
C327 N324 1.350 1_554 S
C327 C326 1.434 . S
C328 C329 1.369 . S
C328 C330 1.419 . S
C328 H332 0.930 . S
C329 C328 1.369 . S
C329 C338 1.429 . S
C330 C328 1.419 . S
C330 C331 1.363 . S
C330 H333 0.929 . S
C331 C330 1.363 . S
C331 C337 1.428 . S
H332 C328 0.930 . S
H333 C330 0.929 . S
S334 N335 1.613 . S
S334 N336 1.610 . S
N335 S334 1.613 . S
N335 C338 1.350 1_554 S
N336 S334 1.610 . S
N336 C337 1.351 1_554 S
C337 C331 1.428 . S
C337 N336 1.351 1_556 S
C337 C338 1.434 . S
C338 C329 1.429 . S
C338 N335 1.350 1_556 S
C338 C337 1.434 . S
C339 C340 1.369 . S
C339 C341 1.419 . S
C339 H343 0.930 . S
C340 C339 1.369 . S
C340 C349 1.429 . S
C341 C339 1.419 . S
C341 C342 1.363 . S
C341 H344 0.929 . S
C342 C341 1.363 . S
C342 C348 1.428 . S
H343 C339 0.930 . S
H344 C341 0.929 . S
S345 N346 1.613 . S
S345 N347 1.610 . S
N346 S345 1.613 . S
N346 C349 1.350 1_556 S
N347 S345 1.610 . S
N347 C348 1.351 1_556 S
C348 C342 1.428 . S
C348 N347 1.351 1_554 S
C348 C349 1.434 . S
C349 C340 1.429 . S
C349 N346 1.350 1_554 S
C349 C348 1.434 . S
C350 C351 1.369 . S
C350 C352 1.419 . S
C350 H354 0.930 . S
C351 C350 1.369 . S
C351 C360 1.429 . S
C352 C350 1.419 . S
C352 C353 1.363 . S
C352 H355 0.929 1_556 S
C353 C352 1.363 . S
C353 C359 1.428 . S
H354 C350 0.930 . S
H355 C352 0.929 1_554 S
S356 N357 1.613 . S
S356 N358 1.610 . S
N357 S356 1.613 . S
N357 C360 1.350 . S
N358 S356 1.610 . S
N358 C359 1.351 . S
C359 C353 1.428 . S
C359 N358 1.351 . S
C359 C360 1.434 . S
C360 C351 1.429 . S
C360 N357 1.350 . S
C360 C359 1.434 . S
C361 C362 1.369 . S
C361 C363 1.419 . S
C361 H365 0.930 . S
C362 C361 1.369 . S
C362 C371 1.429 . S
C363 C361 1.419 . S
C363 C364 1.363 . S
C363 H366 0.929 . S
C364 C363 1.363 . S
C364 C370 1.428 . S
H365 C361 0.930 . S
H366 C363 0.929 . S
S367 N368 1.613 . S
S367 N369 1.610 . S
N368 S367 1.613 . S
N368 C371 1.350 . S
N369 S367 1.610 . S
N369 C370 1.351 . S
C370 C364 1.428 . S
C370 N369 1.351 . S
C370 C371 1.434 . S
C371 C362 1.429 . S
C371 N368 1.350 . S
C371 C370 1.434 . S
C372 C373 1.369 . S
C372 C374 1.419 . S
C372 H376 0.930 . S
C373 C372 1.369 . S
C373 C382 1.429 . S
C374 C372 1.419 . S
C374 C375 1.363 . S
C374 H377 0.929 . S
C375 C374 1.363 . S
C375 C381 1.428 . S
H376 C372 0.930 . S
H377 C374 0.929 . S
S378 N379 1.613 . S
S378 N380 1.610 . S
N379 S378 1.613 . S
N379 C382 1.350 . S
N380 S378 1.610 . S
N380 C381 1.351 . S
C381 C375 1.428 . S
C381 N380 1.351 . S
C381 C382 1.434 . S
C382 C373 1.429 . S
C382 N379 1.350 . S
C382 C381 1.434 . S
C383 C384 1.369 . S
C383 C385 1.419 . S
C383 H387 0.930 . S
C384 C383 1.369 . S
C384 C393 1.429 . S
C385 C383 1.419 . S
C385 C386 1.363 . S
C385 H388 0.929 . S
C386 C385 1.363 . S
C386 C392 1.428 . S
H387 C383 0.930 . S
H388 C385 0.929 . S
S389 N390 1.613 . S
S389 N391 1.610 . S
N390 S389 1.613 . S
N390 C393 1.350 . S
N391 S389 1.610 . S
N391 C392 1.351 . S
C392 C386 1.428 . S
C392 N391 1.351 . S
C392 C393 1.434 . S
C393 C384 1.429 . S
C393 N390 1.350 . S
C393 C392 1.434 . S
C394 C395 1.369 . S
C394 C396 1.419 . S
C394 H398 0.930 . S
C395 C394 1.369 . S
C395 C404 1.429 . S
C396 C394 1.419 . S
C396 C397 1.363 . S
C396 H399 0.929 . S
C397 C396 1.363 . S
C397 C403 1.428 . S
H398 C394 0.930 . S
H399 C396 0.929 . S
S400 N401 1.613 . S
S400 N402 1.610 . S
N401 S400 1.613 . S
N401 C404 1.350 . S
N402 S400 1.610 . S
N402 C403 1.351 . S
C403 C397 1.428 . S
C403 N402 1.351 . S
C403 C404 1.434 . S
C404 C395 1.429 . S
C404 N401 1.350 . S
C404 C403 1.434 . S
C405 C406 1.369 . S
C405 C407 1.419 . S
C405 H409 0.930 . S
C406 C405 1.369 . S
C406 C415 1.429 . S
C407 C405 1.419 . S
C407 C408 1.363 . S
C407 H410 0.929 . S
C408 C407 1.363 . S
C408 C414 1.428 . S
H409 C405 0.930 . S
H410 C407 0.929 . S
S411 N412 1.613 . S
S411 N413 1.610 . S
N412 S411 1.613 . S
N412 C415 1.350 . S
N413 S411 1.610 . S
N413 C414 1.351 . S
C414 C408 1.428 . S
C414 N413 1.351 . S
C414 C415 1.434 . S
C415 C406 1.429 . S
C415 N412 1.350 . S
C415 C414 1.434 . S
C416 C417 1.369 . S
C416 C418 1.419 . S
C416 H420 0.930 . S
C417 C416 1.369 . S
C417 C426 1.429 . S
C418 C416 1.419 . S
C418 C419 1.363 . S
C418 H421 0.929 . S
C419 C418 1.363 . S
C419 C425 1.428 . S
H420 C416 0.930 . S
H421 C418 0.929 . S
S422 N423 1.613 . S
S422 N424 1.610 . S
N423 S422 1.613 . S
N423 C426 1.350 . S
N424 S422 1.610 . S
N424 C425 1.351 . S
C425 C419 1.428 . S
C425 N424 1.351 . S
C425 C426 1.434 . S
C426 C417 1.429 . S
C426 N423 1.350 . S
C426 C425 1.434 . S
C427 C428 1.369 . S
C427 C429 1.419 . S
C427 H431 0.930 . S
C428 C427 1.369 . S
C428 C437 1.429 . S
C429 C427 1.419 . S
C429 C430 1.363 . S
C429 H432 0.929 . S
C430 C429 1.363 . S
C430 C436 1.428 . S
H431 C427 0.930 . S
H432 C429 0.929 . S
S433 N434 1.613 . S
S433 N435 1.610 . S
N434 S433 1.613 . S
N434 C437 1.350 . S
N435 S433 1.610 . S
N435 C436 1.351 . S
C436 C430 1.428 . S
C436 N435 1.351 . S
C436 C437 1.434 . S
C437 C428 1.429 . S
C437 N434 1.350 . S
C437 C436 1.434 . S
C241 C210 2.972 . S
C243 C6 2.808 . S
C252 C10 3.697 . S
C254 C46 3.578 1_455 S
C263 C50 3.780 . S
C265 C86 3.467 1_545 S
C274 C130 3.249 . S
C276 C90 3.266 . S
C285 C166 2.365 . S
C287 C126 2.172 . S
C296 C170 3.639 . S
C298 C206 3.071 . S
C307 C179 1.153 . S
C309 C15 1.185 . S
C318 C219 2.593 . S
C320 C55 2.490 . S
C329 C95 3.087 . S
C331 C19 3.121 . S
C340 C139 3.689 . S
C342 C59 3.711 . S
C351 C175 1.916 . S
C353 C99 2.076 1_556 S
C362 C135 0.760 . S
C364 C215 0.759 . S
C373 C9 0.949 . S
C375 C18 0.940 . S
C384 C49 0.831 . S
C386 C58 0.819 . S
C395 C89 0.924 . S
C397 C98 0.930 . S
C406 C138 0.952 . S
C408 C129 0.935 . S
C417 C178 0.764 . S
C419 C169 0.774 . S
C428 C209 0.979 . S
C430 C218 0.999 . S
