# Generated by pormake.
# Topology sth, (5)-cn, num edge types: 1
# Building blocks:
#     Node 0, Type 0, BuildingBlock: XOMCOT_clean_sbu_0, # of connection points: 5
#     Node 1, Type 0, BuildingBlock: XOMCOT_clean_sbu_0, # of connection points: 5
#     Node 2, Type 0, BuildingBlock: XOMCOT_clean_sbu_0, # of connection points: 5
#     Node 3, Type 0, BuildingBlock: XOMCOT_clean_sbu_0, # of connection points: 5
#     Node 4, Type 0, BuildingBlock: XOMCOT_clean_sbu_0, # of connection points: 5
#     Node 5, Type 0, BuildingBlock: XOMCOT_clean_sbu_0, # of connection points: 5
#     Node 6, Type 0, BuildingBlock: XOMCOT_clean_sbu_0, # of connection points: 5
#     Node 7, Type 0, BuildingBlock: XOMCOT_clean_sbu_0, # of connection points: 5
#     Node 8, Type 0, BuildingBlock: XOMCOT_clean_sbu_0, # of connection points: 5
#     Node 9, Type 0, BuildingBlock: XOMCOT_clean_sbu_0, # of connection points: 5
#     Node 10, Type 0, BuildingBlock: XOMCOT_clean_sbu_0, # of connection points: 5
#     Node 11, Type 0, BuildingBlock: XOMCOT_clean_sbu_0, # of connection points: 5
#     Node 12, Type 0, BuildingBlock: XOMCOT_clean_sbu_0, # of connection points: 5
#     Node 13, Type 0, BuildingBlock: XOMCOT_clean_sbu_0, # of connection points: 5
#     Node 14, Type 0, BuildingBlock: XOMCOT_clean_sbu_0, # of connection points: 5
#     Node 15, Type 0, BuildingBlock: XOMCOT_clean_sbu_0, # of connection points: 5
#     Node 16, Type 0, BuildingBlock: XOMCOT_clean_sbu_0, # of connection points: 5
#     Node 17, Type 0, BuildingBlock: XOMCOT_clean_sbu_0, # of connection points: 5
#     Edge 18, Type (0, 0), BuildingBlock: AJUNOK_clean_linker_0, # of connection points: 2
#     Edge 19, Type (0, 0), BuildingBlock: AJUNOK_clean_linker_0, # of connection points: 2
#     Edge 20, Type (0, 0), BuildingBlock: AJUNOK_clean_linker_0, # of connection points: 2
#     Edge 21, Type (0, 0), BuildingBlock: AJUNOK_clean_linker_0, # of connection points: 2
#     Edge 22, Type (0, 0), BuildingBlock: AJUNOK_clean_linker_0, # of connection points: 2
#     Edge 23, Type (0, 0), BuildingBlock: AJUNOK_clean_linker_0, # of connection points: 2
#     Edge 24, Type (0, 0), BuildingBlock: AJUNOK_clean_linker_0, # of connection points: 2
#     Edge 25, Type (0, 0), BuildingBlock: AJUNOK_clean_linker_0, # of connection points: 2
#     Edge 26, Type (0, 0), BuildingBlock: AJUNOK_clean_linker_0, # of connection points: 2
#     Edge 27, Type (0, 0), BuildingBlock: AJUNOK_clean_linker_0, # of connection points: 2
#     Edge 28, Type (0, 0), BuildingBlock: AJUNOK_clean_linker_0, # of connection points: 2
#     Edge 29, Type (0, 0), BuildingBlock: AJUNOK_clean_linker_0, # of connection points: 2
#     Edge 30, Type (0, 0), BuildingBlock: AJUNOK_clean_linker_0, # of connection points: 2
#     Edge 31, Type (0, 0), BuildingBlock: AJUNOK_clean_linker_0, # of connection points: 2
#     Edge 32, Type (0, 0), BuildingBlock: AJUNOK_clean_linker_0, # of connection points: 2
#     Edge 33, Type (0, 0), BuildingBlock: AJUNOK_clean_linker_0, # of connection points: 2
#     Edge 34, Type (0, 0), BuildingBlock: AJUNOK_clean_linker_0, # of connection points: 2
#     Edge 35, Type (0, 0), BuildingBlock: AJUNOK_clean_linker_0, # of connection points: 2
#     Edge 36, Type (0, 0), BuildingBlock: AJUNOK_clean_linker_0, # of connection points: 2
#     Edge 37, Type (0, 0), BuildingBlock: AJUNOK_clean_linker_0, # of connection points: 2
#     Edge 38, Type (0, 0), BuildingBlock: AJUNOK_clean_linker_0, # of connection points: 2
#     Edge 39, Type (0, 0), BuildingBlock: AJUNOK_clean_linker_0, # of connection points: 2
#     Edge 40, Type (0, 0), BuildingBlock: AJUNOK_clean_linker_0, # of connection points: 2
#     Edge 41, Type (0, 0), BuildingBlock: AJUNOK_clean_linker_0, # of connection points: 2
#     Edge 42, Type (0, 0), BuildingBlock: AJUNOK_clean_linker_0, # of connection points: 2
#     Edge 43, Type (0, 0), BuildingBlock: AJUNOK_clean_linker_0, # of connection points: 2
#     Edge 44, Type (0, 0), BuildingBlock: AJUNOK_clean_linker_0, # of connection points: 2
#     Edge 45, Type (0, 0), BuildingBlock: AJUNOK_clean_linker_0, # of connection points: 2
#     Edge 46, Type (0, 0), BuildingBlock: AJUNOK_clean_linker_0, # of connection points: 2
#     Edge 47, Type (0, 0), BuildingBlock: AJUNOK_clean_linker_0, # of connection points: 2
#     Edge 48, Type (0, 0), BuildingBlock: AJUNOK_clean_linker_0, # of connection points: 2
#     Edge 49, Type (0, 0), BuildingBlock: AJUNOK_clean_linker_0, # of connection points: 2
#     Edge 50, Type (0, 0), BuildingBlock: AJUNOK_clean_linker_0, # of connection points: 2
#     Edge 51, Type (0, 0), BuildingBlock: AJUNOK_clean_linker_0, # of connection points: 2
#     Edge 52, Type (0, 0), BuildingBlock: AJUNOK_clean_linker_0, # of connection points: 2
#     Edge 53, Type (0, 0), BuildingBlock: AJUNOK_clean_linker_0, # of connection points: 2
#     Edge 54, Type (0, 0), BuildingBlock: AJUNOK_clean_linker_0, # of connection points: 2
#     Edge 55, Type (0, 0), BuildingBlock: AJUNOK_clean_linker_0, # of connection points: 2
#     Edge 56, Type (0, 0), BuildingBlock: AJUNOK_clean_linker_0, # of connection points: 2
#     Edge 57, Type (0, 0), BuildingBlock: AJUNOK_clean_linker_0, # of connection points: 2
#     Edge 58, Type (0, 0), BuildingBlock: AJUNOK_clean_linker_0, # of connection points: 2
#     Edge 59, Type (0, 0), BuildingBlock: AJUNOK_clean_linker_0, # of connection points: 2
#     Edge 60, Type (0, 0), BuildingBlock: AJUNOK_clean_linker_0, # of connection points: 2
#     Edge 61, Type (0, 0), BuildingBlock: AJUNOK_clean_linker_0, # of connection points: 2
#     Edge 62, Type (0, 0), BuildingBlock: AJUNOK_clean_linker_0, # of connection points: 2
# Relax obj value: 0.196
# Max RMSD: 0.215
# Mean RMSD: 0.215
data_MOF--net-sth--node1-XOMCOT_clean_sbu_0--edge1-AJUNOK_clean_linker_0
_symmetry_space_group_name_H-M    P1
_symmetry_Int_Tables_number       1
_symmetry_cell_setting            triclinic
loop_
_symmetry_equiv_pos_as_xyz
'x, y, z'
_cell_length_a     30.529936
_cell_length_b     30.588498
_cell_length_c     60.447022
_cell_angle_alpha  89.932184
_cell_angle_beta   89.772241
_cell_angle_gamma 120.05621
loop_
_atom_site_label
_atom_site_type_symbol
_atom_site_fract_x
_atom_site_fract_y
_atom_site_fract_z
_atom_type_partial_charge
Co0 Co 0.1524 0.29866 0.2353 0.0
C1 C 0.26153 0.37382 0.22148 0.0
C2 C 0.22074 0.30872 0.20078 0.0
C3 C 0.26885 0.33631 0.19268 0.0
N4 N 0.21563 0.33158 0.21883 0.0
N5 N 0.29488 0.37692 0.20568 0.0
H6 H 0.27069 0.40063 0.23479 0.0
H7 H 0.19122 0.27341 0.19412 0.0
C8 C 0.15319 0.20872 0.25414 0.0
O9 O 0.13553 0.21681 0.27262 0.0
N10 N 0.08636 0.2608 0.24969 0.0
C11 C 0.05671 0.27738 0.25864 0.0
C12 C 1.00744 0.23787 0.25957 0.0
C13 C 0.05384 0.21187 0.2447 0.0
N14 N 1.00573 0.19654 0.25077 0.0
C15 C 0.17281 0.35256 0.27582 0.0
C16 C 0.24258 0.32954 0.2929 0.0
C17 C 0.2235 0.35336 0.30661 0.0
C18 C 0.18947 0.36628 0.29741 0.0
C19 C 0.22458 0.31632 0.27113 0.0
N20 N 0.18725 0.32466 0.26346 0.0
H21 H 0.14747 0.36397 0.26921 0.0
H22 H 0.2395 0.29801 0.26076 0.0
H23 H 0.06795 0.31624 0.26188 0.0
H24 H 0.06461 0.18891 0.23512 0.0
O25 O 0.13959 0.3529 0.22883 0.0
O26 O 0.11558 0.28613 0.20749 0.0
O27 O 0.16083 0.23716 0.2373 0.0
C28 C 0.11533 0.32798 0.21144 0.0
H29 H 0.2838 0.32723 0.17823 0.0
H30 H 0.97492 0.24094 0.26438 0.0
H31 H 0.27076 0.32093 0.29893 0.0
H32 H 0.17442 0.38567 0.30703 0.0
Co33 Co 0.77379 0.89416 0.22615 0.0
C34 C 0.69778 0.92433 0.20958 0.0
C35 C 0.74899 0.92478 0.18511 0.0
C36 C 0.7208 0.94298 0.17554 0.0
N37 N 0.73498 0.91277 0.20649 0.0
N38 N 0.68905 0.94316 0.19091 0.0
H39 H 0.68001 0.92301 0.22521 0.0
H40 H 0.77978 0.92304 0.1771 0.0
C41 C 0.8283 1.00574 0.2289 0.0
O42 O 0.78369 1.00113 0.23223 0.0
N43 N 0.81548 0.87703 0.24375 0.0
C44 C 0.80171 0.83983 0.25881 0.0
C45 C 0.84253 0.83284 0.26235 0.0
C46 C 0.86379 0.89205 0.23842 0.0
N47 N 0.88141 0.8659 0.24949 0.0
C48 C 0.69693 0.87744 0.25743 0.0
C49 C 0.76246 0.93095 0.29131 0.0
C50 C 0.71095 0.89942 0.29616 0.0
C51 C 0.67777 0.87402 0.27872 0.0
C52 C 0.77988 0.93422 0.26969 0.0
N53 N 0.74737 0.90712 0.25306 0.0
H54 H 0.67153 0.85352 0.24469 0.0
H55 H 0.82026 0.95476 0.2668 0.0
H56 H 0.76386 0.81704 0.26543 0.0
H57 H 0.88386 0.91803 0.225 0.0
O58 O 0.72387 0.82372 0.2239 0.0
O59 O 0.7889 0.86356 0.20107 0.0
O60 O 0.83191 0.96658 0.22481 0.0
C61 C 0.74923 0.82123 0.20723 0.0
H62 H 0.72437 0.95659 0.15871 0.0
H63 H 0.84275 0.80392 0.27262 0.0
H64 H 0.78991 0.94957 0.30431 0.0
H65 H 0.63776 0.84894 0.28175 0.0
Co66 Co 0.17772 0.91706 0.22546 0.0
C67 C 0.14941 0.81188 0.20866 0.0
C68 C 0.14086 0.85977 0.18525 0.0
C69 C 0.12348 0.81342 0.17574 0.0
N70 N 0.1572 0.85936 0.20592 0.0
N71 N 0.12873 0.78331 0.1904 0.0
H72 H 0.15564 0.79716 0.2238 0.0
H73 H 0.13959 0.89129 0.17782 0.0
C74 C 0.06514 0.86546 0.22614 0.0
O75 O 0.06491 0.82252 0.22774 0.0
N76 N 0.19666 0.97601 0.24329 0.0
C77 C 0.22314 0.99156 0.26225 0.0
C78 C 0.22557 0.03618 0.26861 0.0
C79 C 0.18444 1.01132 0.23816 0.0
N80 N 0.20155 0.0485 0.25324 0.0
C81 C 0.19253 0.85768 0.25766 0.0
C82 C 0.13047 0.86295 0.28966 0.0
C83 C 0.16362 0.84584 0.29561 0.0
C84 C 0.19371 0.84169 0.27915 0.0
C85 C 0.13067 0.87883 0.26802 0.0
N86 N 0.16183 0.87661 0.25229 0.0
H87 H 0.21921 0.85831 0.24569 0.0
H88 H 0.1095 0.89765 0.26468 0.0
H89 H 0.23892 0.97171 0.27093 0.0
H90 H 0.16252 1.0092 0.22377 0.0
O91 O 0.24779 0.9356 0.223 0.0
O92 O 0.20903 0.9619 0.20026 0.0
O93 O 0.10716 0.90673 0.22392 0.0
C94 C 0.25078 0.96344 0.20624 0.0
H95 H 0.1072 0.80225 0.15941 0.0
H96 H 0.24361 0.05792 0.28329 0.0
H97 H 0.10731 0.86757 0.30201 0.0
H98 H 0.22104 0.83023 0.28319 0.0
Co99 Co 0.30802 0.11294 0.80214 0.0
C100 C 0.35933 0.21517 0.82145 0.0
C101 C 0.39877 0.21151 0.79262 0.0
C102 C 0.42286 0.2606 0.80013 0.0
N103 N 0.35857 0.18329 0.80582 0.0
N104 N 0.39788 0.26272 0.81815 0.0
H105 H 0.33202 0.20396 0.8348 0.0
H106 H 0.40952 0.1975 0.7784 0.0
C107 C 0.21449 0.11994 0.79559 0.0
O108 O 0.20382 0.08947 0.77862 0.0
N109 N 0.25667 0.04125 0.79935 0.0
C110 C 0.26299 1.00333 0.79151 0.0
C111 C 0.21796 0.95836 0.7932 0.0
C112 C 0.20843 1.01761 0.80702 0.0
N113 N 0.18364 0.96758 0.80281 0.0
C114 C 0.32419 0.09859 0.75688 0.0
C115 C 0.30679 0.17132 0.73863 0.0
C116 C 0.31993 0.14307 0.72464 0.0
C117 C 0.32995 0.10734 0.73422 0.0
C118 C 0.30239 0.16197 0.76148 0.0
N119 N 0.30881 0.12424 0.77027 0.0
H120 H 0.33472 0.07277 0.76368 0.0
H121 H 0.29496 0.1859 0.77212 0.0
H122 H 0.2979 1.0072 0.78526 0.0
H123 H 0.19117 0.03616 0.8156 0.0
O124 O 0.36012 0.09511 0.8027 0.0
O125 O 0.3195 0.09874 0.83236 0.0
O126 O 0.25385 0.13201 0.80727 0.0
C127 C 0.35282 0.08857 0.82385 0.0
H128 H 0.45676 0.29213 0.7932 0.0
H129 H 0.21053 0.92206 0.78705 0.0
H130 H 0.30047 0.20062 0.73202 0.0
H131 H 0.34369 0.0871 0.72436 0.0
Co132 Co 0.94065 0.18932 0.80554 0.0
C133 C 0.83882 0.1406 0.82623 0.0
C134 C 0.84508 0.18965 0.79944 0.0
C135 C 0.79713 0.16867 0.80835 0.0
N136 N 0.87095 0.17159 0.81049 0.0
N137 N 0.79333 0.13812 0.82525 0.0
H138 H 0.8486 0.12048 0.83814 0.0
H139 H 0.8602 0.21659 0.78596 0.0
C140 C 0.93191 0.09079 0.79426 0.0
O141 O 0.9608 0.1153 0.77724 0.0
N142 N 1.01193 0.20775 0.80174 0.0
C143 C 0.05132 0.25211 0.79463 0.0
C144 C 0.09525 0.24992 0.79568 0.0
C145 C 1.03383 0.18094 0.80852 0.0
N146 N 0.08404 0.20492 0.8043 0.0
C147 C 0.95657 0.22504 0.76114 0.0
C148 C 0.87736 0.14081 0.7419 0.0
C149 C 0.90834 0.18301 0.72871 0.0
C150 C 0.94757 0.22572 0.73873 0.0
C151 C 0.88756 0.14188 0.76456 0.0
N152 N 0.92822 0.18308 0.77375 0.0
H153 H 0.98492 0.25957 0.76841 0.0
H154 H 0.86236 0.10995 0.77477 0.0
H155 H 0.04939 0.28491 0.78957 0.0
H156 H 1.01389 0.14459 0.81664 0.0
O157 O 0.9604 0.2591 0.80735 0.0
O158 O 0.95689 0.21305 0.83619 0.0
O159 O 0.91994 0.11476 0.80825 0.0
C160 C 0.96786 0.25728 0.82824 0.0
H161 H 0.76773 0.17642 0.80325 0.0
H162 H 0.13228 0.27872 0.78998 0.0
H163 H 0.84557 0.10761 0.73483 0.0
H164 H 0.97043 0.26022 0.72943 0.0
Co165 Co 0.8664 0.74531 0.80156 0.0
C166 C 0.91304 0.69145 0.82301 0.0
C167 C 0.86211 0.64689 0.79719 0.0
C168 C 0.8831 0.62024 0.8063 0.0
N169 N 0.8813 0.69173 0.80753 0.0
N170 N 0.91492 0.64814 0.8226 0.0
H171 H 0.93457 0.72249 0.83419 0.0
H172 H 0.8349 0.63455 0.78389 0.0
C173 C 0.96985 0.83175 0.79285 0.0
O174 O 0.95134 0.83983 0.77471 0.0
N175 N 0.85091 0.80002 0.79685 0.0
C176 C 0.80579 0.79499 0.79099 0.0
C177 C 0.80842 0.84124 0.79196 0.0
C178 C 0.87917 0.84943 0.80253 0.0
N179 N 0.85473 0.87535 0.79906 0.0
C180 C 0.83932 0.73324 0.75583 0.0
C181 C 0.92038 0.72609 0.73973 0.0
C182 C 0.88247 0.72063 0.7251 0.0
C183 C 0.84171 0.72434 0.73342 0.0
C184 C 0.91697 0.73595 0.76217 0.0
N185 N 0.877 0.74016 0.76994 0.0
H186 H 0.80573 0.73216 0.76186 0.0
H187 H 0.94583 0.73897 0.7734 0.0
H188 H 0.77221 0.75996 0.7868 0.0
H189 H 0.91642 0.86652 0.80971 0.0
O190 O 0.79532 0.6969 0.8022 0.0
O191 O 0.83977 0.73835 0.83153 0.0
O192 O 0.9408 0.79629 0.80617 0.0
C193 C 0.79576 0.70639 0.82309 0.0
H194 H 0.87477 0.58269 0.80163 0.0
H195 H 0.77896 0.84939 0.78746 0.0
H196 H 0.95203 0.72251 0.73392 0.0
H197 H 0.81077 0.71851 0.72277 0.0
Co198 Co 0.80394 0.6221 0.55831 0.0
C199 C 0.90723 0.67715 0.53907 0.0
C200 C 0.89846 0.71833 0.56584 0.0
C201 C 0.94741 0.74548 0.55798 0.0
N202 N 0.87354 0.67523 0.55417 0.0
N203 N 0.95285 0.71948 0.54123 0.0
H204 H 0.89858 0.64825 0.52678 0.0
H205 H 0.88213 0.72925 0.57913 0.0
C206 C 0.81592 0.53253 0.56667 0.0
O207 O 0.78473 0.52173 0.58349 0.0
N208 N 0.73266 0.56836 0.5614 0.0
C209 C 0.69321 0.57364 0.5681 0.0
C210 C 0.64876 0.52839 0.56584 0.0
C211 C 0.71044 0.5202 0.55383 0.0
N212 N 0.65961 0.49467 0.5569 0.0
C213 C 0.78786 0.63789 0.60366 0.0
C214 C 0.87244 0.63907 0.62062 0.0
C215 C 0.84477 0.65368 0.63419 0.0
C216 C 0.8012 0.65148 0.62565 0.0
C217 C 0.85769 0.6256 0.59859 0.0
N218 N 0.81583 0.62528 0.59024 0.0
H219 H 0.7571 0.64132 0.59717 0.0
H220 H 0.88203 0.61882 0.58787 0.0
H221 H 0.69558 0.6083 0.57361 0.0
H222 H 0.73059 0.50389 0.54583 0.0
O223 O 0.78282 0.67168 0.55682 0.0
O224 O 0.78948 0.63121 0.52784 0.0
O225 O 0.82677 0.57056 0.55423 0.0
C226 C 0.77793 0.664 0.53565 0.0
H227 H 0.97637 0.78221 0.5637 0.0
H228 H 0.61153 0.52069 0.57093 0.0
H229 H 0.90672 0.64088 0.62658 0.0
H230 H 0.77873 0.6624 0.63564 0.0
Co231 Co 0.4292 0.17433 0.55874 0.0
C232 C 0.37689 0.22474 0.53767 0.0
C233 C 0.33045 0.1442 0.53807 0.0
C234 C 0.30453 0.16377 0.52749 0.0
N235 N 0.37602 0.18225 0.54463 0.0
N236 N 0.33383 0.21436 0.52694 0.0
H237 H 0.40812 0.26238 0.5403 0.0
H238 H 0.31592 0.10443 0.54096 0.0
C239 C 0.52456 0.27857 0.56292 0.0
O240 O 0.54213 0.25923 0.57731 0.0
N241 N 0.48115 0.16346 0.57154 0.0
C242 C 0.48545 0.14913 0.59213 0.0
C243 C 0.53155 0.15109 0.59365 0.0
C244 C 0.52257 0.17011 0.5605 0.0
N245 N 0.55534 0.16547 0.57384 0.0
C246 C 0.35668 0.15134 0.59271 0.0
C247 C 0.41901 0.21512 0.62514 0.0
C248 C 0.36899 0.17909 0.63073 0.0
C249 C 0.33699 0.14936 0.61373 0.0
C250 C 0.43663 0.21765 0.60347 0.0
N251 N 0.40635 0.18403 0.58776 0.0
H252 H 0.33189 0.12472 0.58062 0.0
H253 H 0.47521 0.24477 0.60016 0.0
H254 H 0.45824 0.1399 0.60536 0.0
H255 H 0.52996 0.18173 0.54336 0.0
O256 O 0.38722 0.10208 0.55803 0.0
O257 O 0.43837 0.14794 0.53079 0.0
O258 O 0.48002 0.25102 0.55458 0.0
C259 C 0.40544 0.10336 0.5385 0.0
H260 H 0.26615 0.14228 0.52145 0.0
H261 H 0.5477 0.14565 0.60859 0.0
H262 H 0.44517 0.23958 0.6376 0.0
H263 H 0.2973 0.12297 0.61677 0.0
Co264 Co 0.87021 0.25347 0.56139 0.0
C265 C 0.85129 0.15727 0.53789 0.0
C266 C 0.80746 0.14592 0.56736 0.0
C267 C 0.79254 0.09985 0.55832 0.0
N268 N 0.84496 0.18233 0.555 0.0
N269 N 0.82009 0.10647 0.53991 0.0
H270 H 0.87675 0.17547 0.52408 0.0
H271 H 0.79026 0.15258 0.58167 0.0
C272 C 0.77092 0.25385 0.56911 0.0
O273 O 0.7929 0.29731 0.57935 0.0
N274 N 0.89278 0.32404 0.5675 0.0
C275 C 0.92394 0.35378 0.58354 0.0
C276 C 0.92682 0.40028 0.58238 0.0
C277 C 0.87933 0.35358 0.55617 0.0
N278 N 0.8982 0.3998 0.56531 0.0
C279 C 0.89592 0.21357 0.59773 0.0
C280 C 0.85149 0.23868 0.63142 0.0
C281 C 0.87771 0.21323 0.63654 0.0
C282 C 0.89891 0.19959 0.61926 0.0
C283 C 0.84801 0.2507 0.60936 0.0
N284 N 0.87 0.23797 0.59276 0.0
H285 H 0.91385 0.20371 0.58476 0.0
H286 H 0.82944 0.27171 0.60607 0.0
H287 H 0.94163 0.34194 0.59579 0.0
H288 H 0.85279 0.34004 0.54258 0.0
O289 O 0.93942 0.2722 0.55626 0.0
O290 O 0.88889 0.2728 0.53028 0.0
O291 O 0.79607 0.23407 0.56147 0.0
C292 C 0.93443 0.28357 0.53618 0.0
H293 H 0.76149 0.06423 0.56416 0.0
H294 H 0.94542 0.43069 0.59418 0.0
H295 H 0.83508 0.25047 0.64438 0.0
H296 H 0.91822 0.17861 0.6223 0.0
Co297 Co 0.96705 0.43945 0.14182 0.0
C298 C 1.02344 0.54118 0.16186 0.0
C299 C 0.07214 0.52429 0.14246 0.0
C300 C 0.10065 0.57202 0.15119 0.0
N301 N 1.02375 0.50508 0.14915 0.0
N302 N 0.06998 0.58247 0.16341 0.0
H303 H 0.98983 0.53773 0.16961 0.0
H304 H 0.08552 0.50541 0.13157 0.0
C305 C 0.88459 0.46298 0.13358 0.0
O306 O 0.87591 0.43737 0.11512 0.0
N307 N 0.9096 0.37202 0.13553 0.0
C308 C 0.91091 0.33182 0.12691 0.0
C309 C 0.8627 0.2906 0.12663 0.0
C310 C 0.86064 0.35301 0.1417 0.0
N311 N 0.83136 0.30424 0.1359 0.0
C312 C 0.9857 0.43226 0.09593 0.0
C313 C 0.99834 0.52469 0.08302 0.0
C314 C 1.00847 0.49634 0.06782 0.0
C315 C 1.00121 0.44934 0.07442 0.0
C316 C 0.98291 0.50615 0.10457 0.0
N317 N 0.97618 0.46004 0.11077 0.0
H318 H 0.98467 0.39811 0.10088 0.0
H319 H 0.97851 0.52992 0.11652 0.0
H320 H 0.94446 0.3314 0.12158 0.0
H321 H 0.84611 0.3738 0.15048 0.0
O322 O 1.01143 0.41181 0.14177 0.0
O323 O 0.97058 0.41552 0.17139 0.0
O324 O 0.91909 0.46698 0.14688 0.0
C325 C 1.0015 0.40233 0.16263 0.0
H326 H 0.14037 0.59791 0.14795 0.0
H327 H 0.8513 0.25386 0.11966 0.0
H328 H 1.00459 0.56173 0.07864 0.0
H329 H 1.0092 0.42656 0.0632 0.0
Co330 Co 0.62834 0.55884 0.14229 0.0
C331 C 0.53221 0.51592 0.1672 0.0
C332 C 0.53844 0.57152 0.14375 0.0
C333 C 0.49231 0.5516 0.15445 0.0
N334 N 0.5631 0.54868 0.15162 0.0
N335 N 0.48813 0.51633 0.16914 0.0
H336 H 0.54227 0.49257 0.17688 0.0
H337 H 0.55248 0.59979 0.13079 0.0
C338 C 0.60841 0.45688 0.1303 0.0
O339 O 0.636 0.47921 0.11266 0.0
N340 N 0.69485 0.5685 0.13427 0.0
C341 C 0.73161 0.60315 0.121 0.0
C342 C 0.7726 0.59571 0.12132 0.0
C343 C 0.71547 0.5424 0.14326 0.0
N344 N 0.76211 0.55702 0.13512 0.0
C345 C 0.63025 0.59415 0.09833 0.0
C346 C 0.5485 0.50791 0.08176 0.0
C347 C 0.57626 0.54922 0.0676 0.0
C348 C 0.61608 0.59338 0.07648 0.0
C349 C 0.56343 0.51075 0.10389 0.0
N350 N 0.60632 0.55229 0.11149 0.0
H351 H 0.65972 0.62942 0.1047 0.0
H352 H 0.54049 0.4795 0.11484 0.0
H353 H 0.73013 0.63268 0.11195 0.0
H354 H 0.69649 0.51309 0.1556 0.0
O355 O 0.65664 0.63028 0.14408 0.0
O356 O 0.65469 0.58257 0.17207 0.0
O357 O 0.60124 0.48309 0.14493 0.0
C358 C 0.66847 0.62761 0.16429 0.0
H359 H 0.46328 0.56107 0.15102 0.0
H360 H 0.8071 0.61653 0.11175 0.0
H361 H 0.51606 0.47369 0.07577 0.0
H362 H 0.63628 0.62741 0.06659 0.0
Co363 Co 0.51058 0.10572 0.13729 0.0
C364 C 0.55622 0.05266 0.16004 0.0
C365 C 0.49088 1.00154 0.14125 0.0
C366 C 0.51089 0.97459 0.15087 0.0
N367 N 0.51951 0.05045 0.14695 0.0
N368 N 0.55215 1.00683 0.16253 0.0
H369 H 0.58551 0.08713 0.16741 0.0
H370 H 0.45856 0.98677 0.13037 0.0
C371 C 0.61424 0.18806 0.12667 0.0
O372 O 0.59414 0.19275 0.10827 0.0
N373 N 0.50094 0.16198 0.12862 0.0
C374 C 0.46353 0.16104 0.11639 0.0
C375 C 0.46962 0.20871 0.11572 0.0
C376 C 0.52713 0.2099 0.1364 0.0
N377 N 0.50958 0.23933 0.12831 0.0
C378 C 0.48039 0.07307 0.09271 0.0
C379 C 0.56469 0.06733 0.08045 0.0
C380 C 0.52397 0.05009 0.06584 0.0
C381 C 0.48185 0.05386 0.07206 0.0
C382 C 0.56163 0.08635 0.10112 0.0
N383 N 0.52032 0.09043 0.10687 0.0
H384 H 0.44542 0.07039 0.09774 0.0
H385 H 0.59158 0.09556 0.11286 0.0
H386 H 0.43229 0.12816 0.10914 0.0
H387 H 0.55904 0.22335 0.14746 0.0
O388 O 0.43864 0.06228 0.13861 0.0
O389 O 0.48554 0.10825 0.16668 0.0
O390 O 0.58601 0.15441 0.14089 0.0
C391 C 0.44082 0.07606 0.15899 0.0
H392 H 0.49749 0.93475 0.14866 0.0
H393 H 0.44616 0.22002 0.10682 0.0
H394 H 0.59746 0.06399 0.07636 0.0
H395 H 0.44935 0.04041 0.06129 0.0
Co396 Co 0.47033 0.95469 0.89985 0.0
C397 C 0.57367 1.00839 0.88045 0.0
C398 C 0.56497 0.05092 0.90664 0.0
C399 C 0.61363 0.07805 0.89849 0.0
N400 N 0.54019 1.007 0.89554 0.0
N401 N 0.61907 0.05124 0.8821 0.0
H402 H 0.56494 0.97889 0.86847 0.0
H403 H 0.54861 0.06255 0.91965 0.0
C404 C 0.48015 0.8648 0.91038 0.0
O405 O 0.4504 0.85769 0.92743 0.0
N406 N 0.39888 0.9019 0.90304 0.0
C407 C 0.35934 0.90808 0.90868 0.0
C408 C 0.31502 0.86244 0.90737 0.0
C409 C 0.37685 0.8528 0.8969 0.0
N410 N 0.32627 0.82772 0.90009 0.0
C411 C 0.45102 0.96802 0.94506 0.0
C412 C 0.53484 0.96933 0.96303 0.0
C413 C 0.50242 0.97702 0.97681 0.0
C414 C 0.46011 0.97618 0.96761 0.0
C415 C 0.52373 0.9602 0.94046 0.0
N416 N 0.48168 0.95888 0.93175 0.0
H417 H 0.42062 0.97165 0.93826 0.0
H418 H 0.54979 0.95571 0.92985 0.0
H419 H 0.36171 0.94345 0.91298 0.0
H420 H 0.39674 0.8353 0.88977 0.0
O421 O 0.45025 1.00494 0.89772 0.0
O422 O 0.45611 0.96273 0.86922 0.0
O423 O 0.49151 0.90147 0.8969 0.0
C424 C 0.44492 0.99612 0.87665 0.0
H425 H 0.64232 0.11538 0.90371 0.0
H426 H 0.27763 0.85511 0.91197 0.0
H427 H 0.56858 0.9709 0.96957 0.0
H428 H 0.43531 0.98392 0.97767 0.0
Co429 Co 0.09942 0.51317 0.90102 0.0
C430 C 0.04737 0.56198 0.87874 0.0
C431 C 1.00425 0.51434 0.90595 0.0
C432 C 0.97785 0.53554 0.89697 0.0
N433 N 0.04816 0.53141 0.89478 0.0
N434 N 1.00493 0.56557 0.87994 0.0
H435 H 0.07707 0.58117 0.86654 0.0
H436 H 0.99222 0.48812 0.9197 0.0
C437 C 0.1904 0.61354 0.9094 0.0
O438 O 0.19712 0.59374 0.92748 0.0
N439 N 0.15074 0.49317 0.90656 0.0
C440 C 0.14058 0.44709 0.91376 0.0
C441 C 0.18434 0.44507 0.91456 0.0
C442 C 0.20115 0.5173 0.90168 0.0
N443 N 0.22266 0.48942 0.90733 0.0
C444 C 0.08127 0.4854 0.94681 0.0
C445 C 0.08557 0.57256 0.96219 0.0
C446 C 0.0749 0.53328 0.97707 0.0
C447 C 0.0728 0.48942 0.96912 0.0
C448 C 0.09466 0.56725 0.93986 0.0
N449 N 0.09367 0.52439 0.93248 0.0
H450 H 0.07542 0.44978 0.94103 0.0
H451 H 0.10124 0.59711 0.92839 0.0
H452 H 0.10354 0.41559 0.9175 0.0
H453 H 0.22196 0.55414 0.89405 0.0
O454 O 0.04776 0.44289 0.89997 0.0
O455 O 0.0932 0.48773 0.87117 0.0
O456 O 0.15376 0.58629 0.8964 0.0
C457 C 0.05856 0.44418 0.87912 0.0
H458 H 0.94088 0.52845 0.9022 0.0
H459 H 0.18761 0.41291 0.9197 0.0
H460 H 0.08655 0.6067 0.96771 0.0
H461 H 0.0628 0.45753 0.97998 0.0
Co462 Co 0.53878 0.58314 0.89673 0.0
C463 C 0.48497 0.47956 0.87594 0.0
C464 C 0.55926 0.4998 0.88688 0.0
C465 C 0.53812 0.45301 0.87738 0.0
N466 N 0.5253 0.51601 0.88712 0.0
N467 N 0.49149 0.44026 0.87055 0.0
H468 H 0.45217 0.48203 0.87122 0.0
H469 H 0.59808 0.5212 0.89229 0.0
C470 C 0.42753 0.52483 0.90415 0.0
O471 O 0.43584 0.49261 0.91513 0.0
N472 N 0.55321 0.65032 0.90499 0.0
C473 C 0.59359 0.68475 0.91648 0.0
C474 C 0.59224 0.72909 0.91735 0.0
C475 C 0.52774 0.67405 0.89909 0.0
N476 N 0.55095 0.72223 0.90637 0.0
C477 C 0.556 0.54157 0.93612 0.0
C478 C 0.50738 0.57251 0.96539 0.0
C479 C 0.53469 0.5504 0.97365 0.0
C480 C 0.55694 0.5327 0.95858 0.0
C481 C 0.50574 0.57904 0.94247 0.0
N482 N 0.53041 0.56403 0.92806 0.0
H483 H 0.57886 0.53302 0.92562 0.0
H484 H 0.48638 0.59805 0.93639 0.0
H485 H 0.6221 0.67812 0.92371 0.0
H486 H 0.49326 0.65678 0.88952 0.0
O487 O 0.6103 0.60808 0.89492 0.0
O488 O 0.56365 0.60816 0.86699 0.0
O489 O 0.46422 0.56194 0.89398 0.0
C490 C 0.60821 0.61917 0.87441 0.0
H491 H 0.55647 0.43098 0.87466 0.0
H492 H 0.6188 0.76333 0.92585 0.0
H493 H 0.48969 0.58686 0.97653 0.0
H494 H 0.57772 0.51465 0.96418 0.0
Co495 Co 0.64775 0.79155 0.46357 0.0
C496 C 0.70758 0.893 0.48437 0.0
C497 C 0.74268 0.88583 0.45482 0.0
C498 C 0.77266 0.93365 0.46309 0.0
N499 N 0.70154 0.86061 0.46795 0.0
N500 N 0.75073 0.93792 0.48168 0.0
H501 H 0.68123 0.88392 0.49798 0.0
H502 H 0.75052 0.87037 0.44025 0.0
C503 C 0.55437 0.79699 0.45812 0.0
O504 O 0.54643 0.76837 0.44068 0.0
N505 N 0.59453 0.72093 0.45969 0.0
C506 C 0.59945 0.68439 0.44951 0.0
C507 C 0.55494 0.63938 0.45142 0.0
C508 C 0.54755 0.69618 0.46893 0.0
N509 N 0.52174 0.64675 0.46331 0.0
C510 C 0.66227 0.78423 0.41682 0.0
C511 C 0.64856 0.86348 0.40414 0.0
C512 C 0.66176 0.83918 0.38809 0.0
C513 C 0.66854 0.799 0.39466 0.0
C514 C 0.64366 0.84816 0.42616 0.0
N515 N 0.64853 0.80766 0.43225 0.0
H516 H 0.67141 0.75594 0.42163 0.0
H517 H 0.63734 0.87007 0.43844 0.0
H518 H 0.63356 0.68894 0.44198 0.0
H519 H 0.53232 0.71414 0.47927 0.0
O520 O 0.69785 0.77074 0.46289 0.0
O521 O 0.65823 0.77361 0.49312 0.0
O522 O 0.5943 0.81139 0.46983 0.0
C523 C 0.69041 0.76266 0.48403 0.0
H524 H 0.80851 0.96262 0.45637 0.0
H525 H 0.54794 0.60361 0.44479 0.0
H526 H 0.64287 0.89465 0.39986 0.0
H527 H 0.68052 0.78032 0.3829 0.0
Co528 Co 0.27197 0.85545 0.46158 0.0
C529 C 0.17221 0.80862 0.48468 0.0
C530 C 0.17982 0.86282 0.46008 0.0
C531 C 0.1326 0.84258 0.4696 0.0
N532 N 0.20438 0.8411 0.46931 0.0
N533 N 0.12791 0.80874 0.48509 0.0
H534 H 0.18084 0.78523 0.49516 0.0
H535 H 0.19519 0.89132 0.44722 0.0
C536 C 0.25989 0.75791 0.44756 0.0
O537 O 0.2896 0.78429 0.43105 0.0
N538 N 0.34098 0.87077 0.45502 0.0
C539 C 0.37946 0.91237 0.44548 0.0
C540 C 0.42323 0.91002 0.44708 0.0
C541 C 0.36309 0.84563 0.46349 0.0
N542 N 0.41268 0.8677 0.45822 0.0
C543 C 0.278 0.88954 0.41653 0.0
C544 C 0.19357 0.80315 0.40151 0.0
C545 C 0.22072 0.84321 0.3868 0.0
C546 C 0.26312 0.88702 0.39457 0.0
C547 C 0.20968 0.80734 0.42335 0.0
N548 N 0.25282 0.84929 0.43045 0.0
H549 H 0.30827 0.92478 0.42248 0.0
H550 H 0.18665 0.77707 0.43473 0.0
H551 H 0.37742 0.94404 0.43891 0.0
H552 H 0.3435 0.81246 0.47388 0.0
O553 O 0.29629 0.92632 0.46493 0.0
O554 O 0.29373 0.87579 0.49185 0.0
O555 O 0.24912 0.7804 0.46278 0.0
C556 C 0.30627 0.92135 0.48531 0.0
H557 H 0.10413 0.85262 0.46576 0.0
H558 H 0.46004 0.93741 0.44057 0.0
H559 H 0.15924 0.76959 0.3964 0.0
H560 H 0.28414 0.91946 0.38385 0.0
Co561 Co 0.20444 0.42874 0.47253 0.0
C562 C 0.23485 0.35212 0.48721 0.0
C563 C 0.22074 0.39021 0.51359 0.0
C564 C 0.23865 0.3613 0.52257 0.0
N565 N 0.21828 0.38506 0.49137 0.0
N566 N 0.24852 0.33803 0.50606 0.0
H567 H 0.24178 0.34271 0.47085 0.0
H568 H 0.21315 0.41588 0.52286 0.0
C569 C 0.3165 0.48498 0.47725 0.0
O570 O 0.31374 0.44169 0.47304 0.0
N571 N 0.19087 0.47389 0.4556 0.0
C572 C 0.16088 0.46393 0.43785 0.0
C573 C 0.16064 0.50753 0.43211 0.0
C574 C 0.20784 0.52265 0.4606 0.0
N575 N 0.19038 0.54435 0.44644 0.0
C576 C 0.19941 0.36338 0.43725 0.0
C577 C 0.27162 0.43872 0.41059 0.0
C578 C 0.24243 0.39023 0.40165 0.0
C579 C 0.20636 0.35208 0.41549 0.0
C580 C 0.26228 0.44875 0.43207 0.0
N581 N 0.22708 0.41127 0.44535 0.0
H582 H 0.16979 0.33411 0.44724 0.0
H583 H 0.28131 0.48758 0.43741 0.0
H584 H 0.14035 0.42756 0.42984 0.0
H585 H 0.2328 0.54199 0.47431 0.0
O586 O 0.13358 0.377 0.47109 0.0
O587 O 0.16622 0.43555 0.49687 0.0
O588 O 0.27578 0.48734 0.47855 0.0
C589 C 0.12638 0.39605 0.48893 0.0
H590 H 0.24607 0.35937 0.53994 0.0
H591 H 0.13952 0.51147 0.41869 0.0
H592 H 0.29967 0.46965 0.40065 0.0
H593 H 0.18131 0.3145 0.40926 0.0
C594 C 0.40908 0.49896 0.18873 0.0
C595 C 0.44346 0.48312 0.18216 0.0
C596 C 0.36187 0.46517 0.19843 0.0
C597 C 0.34732 0.4143 0.20196 0.0
H598 H 0.4179 0.53738 0.18561 0.0
H599 H 0.3353 0.47802 0.20182 0.0
S600 S 0.42429 0.3541 0.19006 0.0
N601 N 0.45981 0.41293 0.18145 0.0
N602 N 0.37241 0.35068 0.20023 0.0
C603 C 0.38257 0.39886 0.19697 0.0
C604 C 0.43027 0.43287 0.18695 0.0
C605 C 0.60358 0.93269 0.19112 0.0
C606 C 0.65589 0.96325 0.18769 0.0
C607 C 0.56985 0.94813 0.18366 0.0
C608 C 0.58746 0.99488 0.17282 0.0
H609 H 0.58863 0.89554 0.19844 0.0
H610 H 0.52961 0.92271 0.18578 0.0
S611 S 0.72182 0.09018 0.16167 0.0
N612 N 0.72418 0.04352 0.17431 0.0
N613 N 0.66118 0.07249 0.16015 0.0
C614 C 0.64001 0.02684 0.17044 0.0
C615 C 0.67412 1.01098 0.17791 0.0
C616 C 0.05031 0.65027 0.17017 0.0
C617 C 0.08277 0.63055 0.17301 0.0
C618 C 0.06476 0.69951 0.17684 0.0
C619 C 0.11182 0.73065 0.18693 0.0
H620 H 1.01454 0.62836 0.16175 0.0
H621 H 0.03951 0.71398 0.17355 0.0
S622 S 0.20832 0.69523 0.20016 0.0
N623 N 0.16251 0.64458 0.18806 0.0
N624 N 0.1894 0.73725 0.20074 0.0
C625 C 0.14345 0.71053 0.19098 0.0
C626 C 0.12905 0.66051 0.18392 0.0
C627 C 0.44661 0.34777 0.86743 0.0
C628 C 0.45873 0.39504 0.8585 0.0
C629 C 0.4235 0.30382 0.85452 0.0
C630 C 0.41305 0.30603 0.83207 0.0
H631 H 0.45702 0.34529 0.8843 0.0
H632 H 0.41657 0.26845 0.8617 0.0
S633 S 0.43439 0.41982 0.80122 0.0
N634 N 0.45564 0.44087 0.82634 0.0
N635 N 0.41341 0.35843 0.80182 0.0
C636 C 0.42305 0.35264 0.8232 0.0
C637 C 0.44557 0.39716 0.83649 0.0
C638 C 0.70082 0.08679 0.83104 0.0
C639 C 0.75015 0.11148 0.83977 0.0
C640 C 0.65799 0.0649 0.84494 0.0
C641 C 0.663 0.0679 0.86808 0.0
H642 H 0.6954 0.08515 0.8133 0.0
H643 H 0.62075 0.04747 0.83758 0.0
S644 S 0.78344 0.1264 0.89926 0.0
N645 N 0.80128 0.13581 0.87303 0.0
N646 N 0.72092 0.09523 0.89911 0.0
C647 C 0.71202 0.09123 0.877 0.0
C648 C 0.75557 0.11281 0.86287 0.0
C649 C 0.98813 0.5862 0.84242 0.0
C650 C 0.98879 0.59241 0.86547 0.0
C651 C 0.96509 0.60565 0.82844 0.0
C652 C 0.94275 0.63287 0.83697 0.0
H653 H 1.00339 0.56414 0.83528 0.0
H654 H 0.96394 0.59864 0.81084 0.0
S655 S 0.93802 0.66253 0.8961 0.0
N656 N 0.96767 0.62981 0.8961 0.0
N657 N 0.92497 0.6667 0.86995 0.0
C658 C 0.94532 0.64123 0.85991 0.0
C659 C 0.9681 0.62086 0.87412 0.0
C660 C 0.74794 0.68599 0.85905 0.0
C661 C 0.74754 0.68448 0.83584 0.0
C662 C 0.70262 0.66518 0.87124 0.0
C663 C 0.65505 0.6427 0.86074 0.0
H664 H 0.78346 0.70281 0.8679 0.0
H665 H 0.70501 0.66681 0.88913 0.0
S666 S 0.63301 0.63066 0.80027 0.0
N667 N 0.69514 0.65938 0.80273 0.0
N668 N 0.61045 0.6211 0.82576 0.0
C669 C 0.65407 0.64177 0.83756 0.0
C670 C 0.70015 0.66236 0.8251 0.0
C671 C 0.40001 0.04531 0.87271 0.0
C672 C 0.42361 1.0208 0.86259 0.0
C673 C 0.37757 0.06745 0.86015 0.0
C674 C 0.3784 0.06666 0.83694 0.0
H675 H 0.39797 0.04672 0.89057 0.0
H676 H 0.35937 0.0852 0.86873 0.0
S677 S 0.43615 1.00808 0.80227 0.0
N678 N 0.44673 0.9975 0.82794 0.0
N679 N 0.40537 0.03949 0.80425 0.0
C680 C 0.40252 0.04286 0.82657 0.0
C681 C 0.42486 1.01982 0.83941 0.0
C682 C 1.00904 0.34957 0.87647 0.0
C683 C 1.03496 0.39713 0.86583 0.0
C684 C 0.98781 0.30425 0.8644 0.0
C685 C 0.9911 0.30484 0.84123 0.0
H686 H 1.00558 0.3472 0.89433 0.0
H687 H 0.96833 0.26865 0.87326 0.0
S688 S 0.05547 0.41948 0.80544 0.0
N689 N 0.06305 0.4418 0.83082 0.0
N690 N 1.02318 0.35746 0.80809 0.0
C691 C 1.01696 0.35228 0.83042 0.0
C692 C 0.03888 0.39818 0.84271 0.0
C693 C 0.69865 0.72676 0.20795 0.0
C694 C 0.734 0.77166 0.19696 0.0
C695 C 0.68027 0.67915 0.19814 0.0
C696 C 0.69627 0.67493 0.17691 0.0
H697 H 0.684 0.72837 0.22409 0.0
H698 H 0.65129 0.64594 0.20665 0.0
S699 S 0.79198 0.77958 0.14206 0.0
N700 N 0.78734 0.80786 0.16446 0.0
N701 N 0.75239 0.71867 0.14589 0.0
C702 C 0.73348 0.71909 0.16624 0.0
C703 C 0.75251 0.76742 0.17629 0.0
C704 C 0.30119 1.00969 0.17284 0.0
C705 C 0.29984 0.99628 0.19514 0.0
C706 C 0.34737 0.03741 0.16158 0.0
C707 C 0.39389 0.05373 0.17233 0.0
H708 H 0.26634 0.9971 0.16379 0.0
H709 H 0.34659 0.04526 0.14415 0.0
S710 S 0.41107 0.03269 0.23122 0.0
N711 N 0.34909 1.00421 0.22804 0.0
N712 N 0.43586 0.05716 0.20683 0.0
C713 C 0.39319 0.04288 0.1949 0.0
C714 C 0.34613 1.01383 0.2063 0.0
C715 C 0.06855 0.37553 0.20895 0.0
C716 C 0.08452 0.34436 0.1987 0.0
C717 C 0.03957 0.39225 0.19757 0.0
C718 C 1.02628 0.37926 0.17537 0.0
H719 H 0.07848 0.38718 0.22598 0.0
H720 H 1.02907 0.41693 0.206 0.0
S721 S 0.05632 0.2966 0.14123 0.0
N722 N 0.08261 0.29927 0.16539 0.0
N723 N 1.02942 0.33163 0.14376 0.0
C724 C 0.04113 0.34733 0.16505 0.0
C725 C 0.06986 0.32958 0.17677 0.0
C726 C 1.03538 0.75791 0.49043 0.0
C727 C 0.08451 0.78072 0.4993 0.0
C728 C 0.99233 0.73562 0.50417 0.0
C729 C 0.99694 0.73643 0.52731 0.0
H730 H 1.03035 0.75827 0.47272 0.0
H731 H 0.95527 0.71973 0.49672 0.0
S732 S 0.11674 0.78923 0.55875 0.0
N733 N 0.13507 0.80063 0.5326 0.0
N734 N 0.05424 0.75958 0.55846 0.0
C735 C 0.04574 0.75779 0.53636 0.0
C736 C 0.08952 0.77965 0.52235 0.0
C737 C 0.31119 0.32386 0.52561 0.0
C738 C 0.27501 0.31037 0.50868 0.0
C739 C 0.33256 0.29391 0.53068 0.0
C740 C 0.31868 0.24926 0.51899 0.0
H741 H 0.32216 0.35725 0.53548 0.0
H742 H 0.35811 0.30445 0.54458 0.0
S743 S 0.23226 0.2016 0.47076 0.0
N744 N 0.23043 0.25228 0.47874 0.0
N745 N 0.27195 0.19672 0.48769 0.0
C746 C 0.28557 0.23739 0.50091 0.0
C747 C 0.26352 0.26783 0.49584 0.0
C748 C 0.78761 0.02964 0.48779 0.0
C749 C 0.77149 0.98086 0.49616 0.0
C750 C 0.80663 0.07172 0.50194 0.0
C751 C 0.81078 0.06625 0.52482 0.0
H752 H 0.7838 0.03485 0.47033 0.0
H753 H 0.81585 0.10813 0.49515 0.0
S754 S 0.78226 0.94787 0.55399 0.0
N755 N 0.76619 0.93045 0.52806 0.0
N756 N 0.80343 1.00924 0.55456 0.0
C757 C 0.79798 1.01808 0.53299 0.0
C758 C 0.77784 0.97542 0.51871 0.0
C759 C 0.38523 0.05891 0.50211 0.0
C760 C 0.38506 0.05652 0.52529 0.0
C761 C 0.35981 1.01483 0.48944 0.0
C762 C 0.33379 0.96662 0.49943 0.0
H763 H 0.40349 0.09512 0.4937 0.0
H764 H 0.36032 1.01873 0.47161 0.0
S765 S 0.32526 0.9397 0.55957 0.0
N766 N 0.35888 1.0019 0.55779 0.0
N767 N 0.31172 0.91916 0.53387 0.0
C768 C 0.335 0.9636 0.52255 0.0
C769 C 0.36043 1.00852 0.5355 0.0
C770 C 1.03297 0.33195 0.48977 0.0
C771 C 0.07602 0.37143 0.50022 0.0
C772 C 0.98604 0.3048 0.50089 0.0
C773 C 0.98084 0.31568 0.52297 0.0
H774 H 1.03575 0.32114 0.47299 0.0
H775 H 0.95444 0.27387 0.49251 0.0
S776 S 0.07991 0.41779 0.55728 0.0
N777 N 0.10854 0.42189 0.53351 0.0
N778 N 1.02138 0.37074 0.55437 0.0
C779 C 1.02293 0.35617 0.53328 0.0
C780 C 0.07023 0.3841 0.52193 0.0
C781 C 0.73493 0.71503 0.53221 0.0
C782 C 0.75753 0.68991 0.52183 0.0
C783 C 0.71378 0.73877 0.51992 0.0
C784 C 0.71486 0.73897 0.49668 0.0
H785 H 0.73277 0.71583 0.55009 0.0
H786 H 0.69637 0.75701 0.52873 0.0
S787 S 0.77034 0.67939 0.46133 0.0
N788 N 0.78008 0.66713 0.48686 0.0
N789 N 0.74095 0.71212 0.46367 0.0
C790 C 0.73796 0.71457 0.48603 0.0
C791 C 0.75906 0.68992 0.4986 0.0
C792 C 0.24587 0.41056 0.33938 0.0
C793 C 0.23706 0.36437 0.33047 0.0
C794 C 0.24925 0.41892 0.36222 0.0
C795 C 0.24485 0.38181 0.37736 0.0
H796 H 0.24825 0.44003 0.32861 0.0
H797 H 0.25302 0.45413 0.36801 0.0
S798 S 0.22808 0.25654 0.36251 0.0
N799 N 0.22751 0.28212 0.33851 0.0
N800 N 0.23665 0.29887 0.38149 0.0
C801 C 0.23931 0.33659 0.36863 0.0
C802 C 0.23509 0.32776 0.34523 0.0
C803 C 0.66278 0.83534 0.32548 0.0
C804 C 0.69357 0.88644 0.31946 0.0
C805 C 0.65139 0.82075 0.34763 0.0
C806 C 0.67062 0.85655 0.36472 0.0
H807 H 0.64903 0.80597 0.31307 0.0
H808 H 0.6282 0.78089 0.35144 0.0
S809 S 0.75058 0.99552 0.35778 0.0
N810 N 0.74008 0.9733 0.33229 0.0
N811 N 0.72084 0.9457 0.37412 0.0
C812 C 0.70014 0.90798 0.35896 0.0
C813 C 0.71119 0.92292 0.33631 0.0
C814 C 0.18311 0.88107 0.33371 0.0
C815 C 0.17331 0.8412 0.31925 0.0
C816 C 0.19779 0.88098 0.35557 0.0
C817 C 0.20314 0.84098 0.36384 0.0
H818 H 0.18105 0.91351 0.3279 0.0
H819 H 0.20538 0.91271 0.36604 0.0
S820 S 0.18023 0.72667 0.33305 0.0
N821 N 0.16828 0.75979 0.31494 0.0
N822 N 0.19652 0.75988 0.35614 0.0
C823 C 0.19236 0.80026 0.34977 0.0
C824 C 0.17747 0.8004 0.32742 0.0
C825 C 0.36674 0.21005 0.66917 0.0
C826 C 0.35163 0.16962 0.65427 0.0
C827 C 0.35441 0.20145 0.69178 0.0
C828 C 0.32629 0.15208 0.70034 0.0
H829 H 0.38907 0.24868 0.6634 0.0
H830 H 0.36873 0.23365 0.70275 0.0
S831 S 0.27441 0.03303 0.66836 0.0
N832 N 0.30606 0.07806 0.64998 0.0
N833 N 0.27986 0.06241 0.69192 0.0
C834 C 0.30876 0.11146 0.68548 0.0
C835 C 0.32215 0.12006 0.66263 0.0
C836 C 0.85146 0.17359 0.69707 0.0
C837 C 0.89936 0.18476 0.70477 0.0
C838 C 0.84449 0.18254 0.67493 0.0
C839 C 0.88519 0.20287 0.6598 0.0
H840 H 0.81963 0.1596 0.7084 0.0
H841 H 0.80712 0.17385 0.66966 0.0
S842 S 1.0178 0.23684 0.67177 0.0
N843 N 0.98735 0.21446 0.69539 0.0
N844 N 0.97508 0.23374 0.65422 0.0
C845 C 0.93304 0.21321 0.66729 0.0
C846 C 0.93988 0.20347 0.68965 0.0
C847 C 0.88047 0.66315 0.69501 0.0
C848 C 0.88278 0.70852 0.70138 0.0
C849 C 0.87053 0.64645 0.67294 0.0
C850 C 0.86246 0.67458 0.65666 0.0
H851 H 0.8836 0.63917 0.70735 0.0
H852 H 0.86663 0.61021 0.66882 0.0
S853 S 0.87275 0.7997 0.66435 0.0
N854 N 0.88199 0.7838 0.68928 0.0
N855 N 0.86378 0.75283 0.64793 0.0
C856 C 0.86816 0.72157 0.66262 0.0
C857 C 0.87818 0.73842 0.68496 0.0
C858 C 0.07378 0.51565 0.03879 0.0
C859 C 1.02984 0.51603 0.04556 0.0
C860 C 0.09028 0.52514 0.01679 0.0
C861 C 0.06357 0.53555 1.00073 0.0
H862 H 0.09434 0.50574 0.05043 0.0
H863 H 0.1228 0.52189 1.01206 0.0
S864 S 0.94871 0.54518 1.01028 0.0
N865 N 0.96192 0.53114 0.03486 0.0
N866 N 0.9931 0.5491 0.99329 0.0
C867 C 1.02154 0.53939 1.00751 0.0
C868 C 1.00462 0.52962 0.03002 0.0
C869 C 0.51546 0.53026 0.03606 0.0
C870 C 0.56501 0.54725 0.04361 0.0
C871 C 0.50561 0.53185 1.01343 0.0
C872 C 0.54496 0.55018 0.99765 0.0
H873 H 0.48433 0.51657 0.04775 0.0
H874 H 0.46702 0.5183 1.00822 0.0
S875 S 0.68119 0.59885 1.00898 0.0
N876 N 0.65338 0.58141 0.03341 0.0
N877 N 0.6355 0.587 0.99134 0.0
C878 C 0.59459 0.56736 1.00509 0.0
C879 C 0.60442 0.56514 0.02792 0.0
C880 C 0.56152 0.05314 0.02852 0.0
C881 C 0.5236 0.02635 0.04445 0.0
C882 C 0.55648 0.03498 1.00679 0.0
C883 C 0.51343 0.98956 1.00047 0.0
H884 H 0.59363 0.0897 0.0325 0.0
H885 H 0.58471 0.05811 0.99455 0.0
S886 S 0.40821 0.90139 0.03698 0.0
N887 N 0.44527 0.94907 0.05321 0.0
N888 N 0.43562 0.91544 1.01236 0.0
C889 C 0.47738 0.96074 0.01668 0.0
C890 C 0.48252 0.97901 0.0387 0.0
C891 C 0.17766 0.10409 0.27294 0.0
C892 C 0.19244 0.09035 0.25335 0.0
C893 C 0.16478 0.14214 0.27296 0.0
C894 C 0.16664 0.16827 0.25341 0.0
H895 H 0.1748 0.08436 0.28824 0.0
H896 H 0.15322 0.151 0.28849 0.0
S897 S 0.20645 0.14832 0.19796 0.0
N898 N 0.21067 0.10707 0.21413 0.0
N899 N 0.18647 0.17846 0.21401 0.0
C900 C 0.18244 0.15542 0.23376 0.0
C901 C 0.1953 0.11651 0.23377 0.0
C902 C 0.91806 0.07369 0.22183 0.0
C903 C 0.87382 0.05412 0.23469 0.0
C904 C 0.96085 0.12024 0.22709 0.0
C905 C 0.96138 0.14845 0.24571 0.0
H906 H 0.91922 0.05345 0.20735 0.0
H907 H 0.99336 0.13444 0.2162 0.0
S908 S 0.85675 0.10948 0.28635 0.0
N909 N 0.83393 0.06424 0.26765 0.0
N910 N 0.91479 0.15029 0.27806 0.0
C911 C 0.91774 0.12808 0.2591 0.0
C912 C 0.87394 0.08127 0.25349 0.0
C913 C 0.92859 0.82127 0.24229 0.0
C914 C 0.928 0.86664 0.24466 0.0
C915 C 0.97273 0.8213 0.23572 0.0
C916 C 1.01812 0.86675 0.23136 0.0
H917 H 0.89438 0.78542 0.24504 0.0
H918 H 0.97114 0.78527 0.23416 0.0
S919 S 1.03648 0.9961 0.23627 0.0
N920 N 0.97652 0.95819 0.24294 0.0
N921 N 0.0594 0.95867 0.23047 0.0
C922 C 1.01791 0.9125 0.23385 0.0
C923 C 0.97293 0.91233 0.24054 0.0
C924 C 0.09758 0.1331 0.79769 0.0
C925 C 0.11637 0.18308 0.80482 0.0
C926 C 0.12941 0.11267 0.79531 0.0
C927 C 0.18117 0.14105 0.80047 0.0
H928 H 0.05834 0.11033 0.793 0.0
H929 H 0.11341 0.07455 0.78905 0.0
S930 S 0.2485 0.27247 0.82154 0.0
N931 N 0.18954 0.25966 0.81816 0.0
N932 N 0.24939 0.22096 0.81413 0.0
C933 C 0.20011 0.19034 0.8086 0.0
C934 C 0.16776 0.21148 0.81062 0.0
C935 C 0.87233 1.00449 0.8103 0.0
C936 C 0.91425 0.03593 0.79678 0.0
C937 C 0.85319 0.95192 0.81129 0.0
C938 C 0.87612 0.92933 0.79925 0.0
H939 H 0.85328 1.02031 0.81967 0.0
H940 H 0.82015 0.92868 0.82141 0.0
S941 S 0.98585 0.99367 0.76127 0.0
N942 N 0.97747 0.03941 0.77089 0.0
N943 N 0.94176 0.94148 0.77326 0.0
C944 C 0.91825 0.96017 0.78603 0.0
C945 C 0.93725 1.01323 0.78468 0.0
C946 C 0.09779 0.95094 0.79484 0.0
C947 C 0.12967 0.93414 0.80324 0.0
C948 C 0.04594 0.91762 0.79215 0.0
C949 C 1.02366 0.86644 0.79818 0.0
H950 H 0.11348 0.98964 0.78933 0.0
H951 H 1.02326 0.93193 0.78493 0.0
S952 S 0.08994 0.8044 0.8226 0.0
N953 N 0.13512 0.86359 0.81859 0.0
N954 N 1.03695 0.80101 0.81407 0.0
C955 C 0.0546 0.84956 0.80759 0.0
C956 C 0.10781 0.88338 0.80992 0.0
C957 C 0.80672 0.44772 0.56157 0.0
C958 C 0.83842 0.50031 0.56266 0.0
C959 C 0.82678 0.41537 0.56095 0.0
C960 C 0.87927 0.43421 0.56222 0.0
H961 H 0.766 0.43137 0.56168 0.0
H962 H 0.80078 0.3752 0.5606 0.0
S963 S 0.97861 0.56932 0.56389 0.0
N964 N 0.92496 0.57027 0.56338 0.0
N965 N 0.96268 0.50909 0.56332 0.0
C966 C 0.91148 0.48687 0.5626 0.0
C967 C 0.89105 0.52 0.56253 0.0
C968 C 0.64299 0.40784 0.56158 0.0
C969 C 0.62585 0.44072 0.55517 0.0
C970 C 0.60993 0.35577 0.56312 0.0
C971 C 0.55802 0.33351 0.55796 0.0
H972 H 0.68185 0.42272 0.56664 0.0
H973 H 0.62534 0.333 0.56921 0.0
S974 S 0.4947 0.40282 0.53835 0.0
N975 N 0.55412 0.44746 0.54221 0.0
N976 N 0.49182 0.34897 0.54488 0.0
C977 C 0.54066 0.3657 0.55048 0.0
C978 C 0.57452 0.41935 0.54919 0.0
C979 C 0.68578 0.18247 0.57936 0.0
C980 C 0.71559 0.22692 0.56719 0.0
C981 C 0.63302 0.16131 0.58069 0.0
C982 C 0.6084 0.18356 0.56968 0.0
H983 H 0.70356 0.16541 0.58874 0.0
H984 H 0.61142 0.12808 0.59089 0.0
S985 S 0.67095 0.29818 0.53383 0.0
N986 N 0.71774 0.29068 0.54279 0.0
N987 N 0.61902 0.25143 0.54491 0.0
C988 C 0.63818 0.22676 0.55647 0.0
C989 C 0.69175 0.24838 0.55538 0.0
C990 C 0.8757 0.53929 0.13864 0.0
C991 C 0.85349 0.48646 0.13846 0.0
C992 C 0.84559 0.56222 0.13838 0.0
C993 C 0.79228 0.53311 0.13826 0.0
H994 H 0.91649 0.56298 0.13774 0.0
H995 H 0.86411 0.60302 0.13769 0.0
S996 S 0.71616 0.393 0.13959 0.0
N997 N 0.7755 0.40567 0.13949 0.0
N998 N 0.71899 0.44832 0.13916 0.0
C999 C 0.76986 0.48017 0.13923 0.0
C1000 C 0.80048 0.45698 0.13923 0.0
C1001 C 0.53928 0.32171 0.11049 0.0
C1002 C 0.53276 0.29343 0.12978 0.0
C1003 C 0.5633 0.37442 0.11107 0.0
C1004 C 0.58093 0.40105 0.13105 0.0
H1005 H 0.52671 0.30288 0.0947 0.0
H1006 H 0.56805 0.39451 0.09566 0.0
S1007 S 0.57153 0.34467 0.18637 0.0
N1008 N 0.54505 0.29563 0.16954 0.0
N1009 N 0.58934 0.39525 0.17072 0.0
C1010 C 0.57368 0.37332 0.1506 0.0
C1011 C 0.54999 0.31938 0.14993 0.0
C1012 C 0.69489 0.20671 0.14586 0.0
C1013 C 0.66975 0.22 0.13 0.0
C1014 C 0.74791 0.23456 0.14795 0.0
C1015 C 0.7772 0.27697 0.13453 0.0
H1016 H 0.67367 0.17394 0.15636 0.0
H1017 H 0.7662 0.22283 0.15998 0.0
S1018 S 0.73118 0.32814 0.09067 0.0
N1019 N 0.67939 0.27942 0.10081 0.0
N1020 N 0.77847 0.33084 0.10493 0.0
C1021 C 0.75284 0.29105 0.11891 0.0
C1022 C 0.69923 0.26285 0.11662 0.0
C1023 C 0.46607 0.77726 0.91263 0.0
C1024 C 0.49787 0.8283 0.90673 0.0
C1025 C 0.48296 0.74231 0.91147 0.0
C1026 C 0.53274 0.7574 0.90497 0.0
H1027 H 0.42798 0.76428 0.91852 0.0
H1028 H 0.45765 0.70365 0.91658 0.0
S1029 S 0.6306 0.88594 0.88714 0.0
N1030 N 0.58085 0.89161 0.8932 0.0
N1031 N 0.61319 0.82611 0.89176 0.0
C1032 C 0.56469 0.808 0.89862 0.0
C1033 C 0.54707 0.8434 0.89927 0.0
C1034 C 0.30882 0.74242 0.90989 0.0
C1035 C 0.29311 0.77378 0.89995 0.0
C1036 C 0.27561 0.69045 0.91233 0.0
C1037 C 0.22556 0.66763 0.90458 0.0
H1038 H 0.34645 0.75864 0.91672 0.0
H1039 H 0.28908 0.66809 0.92067 0.0
S1040 S 0.16674 0.73276 0.87606 0.0
N1041 N 0.22496 0.77827 0.88149 0.0
N1042 N 0.16246 0.68017 0.8857 0.0
C1043 C 0.20987 0.69823 0.89381 0.0
C1044 C 0.2436 0.75144 0.89165 0.0
C1045 C 0.35674 0.53501 0.88785 0.0
C1046 C 0.37646 0.51973 0.90539 0.0
C1047 C 0.30689 0.52682 0.88872 0.0
C1048 C 0.27546 0.5034 0.90722 0.0
H1049 H 0.37932 0.55187 0.87311 0.0
H1050 H 0.29226 0.53718 0.87461 0.0
S1051 S 0.31226 0.46524 0.95901 0.0
N1052 N 0.36243 0.48589 0.94281 0.0
N1053 N 0.26999 0.47136 0.94447 0.0
C1054 C 0.29597 0.49094 0.92529 0.0
C1055 C 0.34611 0.49886 0.92437 0.0
C1056 C 0.53326 0.86441 0.46647 0.0
C1057 C 0.51729 0.81323 0.46292 0.0
C1058 C 0.49846 0.88178 0.46584 0.0
C1059 C 0.44659 0.84842 0.46196 0.0
H1060 H 0.57314 0.89159 0.46836 0.0
H1061 H 0.51242 0.92181 0.46772 0.0
S1062 S 0.38554 0.70975 0.45395 0.0
N1063 N 0.44615 0.72876 0.45718 0.0
N1064 N 0.38096 0.76113 0.45597 0.0
C1065 C 0.42998 0.79664 0.45976 0.0
C1066 C 0.46534 0.77915 0.46023 0.0
C1067 C 0.21004 0.6225 0.46659 0.0
C1068 C 0.20326 0.59662 0.44646 0.0
C1069 C 0.22648 0.67443 0.46698 0.0
C1070 C 0.23746 0.70235 0.44724 0.0
H1071 H 0.203 0.60249 0.48216 0.0
H1072 H 0.23225 0.69308 0.4828 0.0
S1073 S 0.22376 0.65211 0.39018 0.0
N1074 N 0.20748 0.60277 0.40637 0.0
N1075 N 0.2377 0.69977 0.40697 0.0
C1076 C 0.22945 0.67659 0.42701 0.0
C1077 C 0.21247 0.62387 0.42664 0.0
C1078 C 0.44385 0.5706 0.45138 0.0
C1079 C 0.46878 0.60975 0.46684 0.0
C1080 C 0.39406 0.53191 0.45471 0.0
C1081 C 0.36618 0.53082 0.47344 0.0
H1082 H 0.46308 0.56933 0.43654 0.0
H1083 H 0.37742 0.50197 0.44256 0.0
S1084 S 0.41108 0.62539 0.51836 0.0
N1085 N 0.4602 0.6458 0.50145 0.0
N1086 N 0.36534 0.57324 0.50715 0.0
C1087 C 0.38907 0.57074 0.48856 0.0
C1088 C 0.44062 0.6102 0.48538 0.0
loop_
_geom_bond_atom_site_label_1
_geom_bond_atom_site_label_2
_geom_bond_distance
_geom_bond_site_symmetry_2
_ccdc_geom_bond_type
Co0 N4 2.148 . S
Co0 N10 2.128 . S
Co0 N20 2.194 . S
Co0 O25 2.351 . S
Co0 O26 2.155 . S
Co0 O27 2.096 . S
C1 N4 1.301 . S
C1 N5 1.328 . S
C1 H6 0.930 . S
C2 C3 1.333 . S
C2 N4 1.317 . S
C2 H7 0.930 . S
C3 C2 1.333 . S
C3 N5 1.350 . S
C3 H29 0.931 . S
N4 Co0 2.148 . S
N4 C1 1.301 . S
N4 C2 1.317 . S
N5 C1 1.328 . S
N5 C3 1.350 . S
H6 C1 0.930 . S
H7 C2 0.930 . S
C8 O9 1.224 . S
C8 O27 1.247 . S
O9 C8 1.224 . S
N10 Co0 2.128 . S
N10 C11 1.355 . S
N10 C13 1.311 . S
C11 N10 1.355 . S
C11 C12 1.363 1_455 S
C11 H23 0.929 . S
C12 C11 1.363 1_655 S
C12 N14 1.375 . S
C12 H30 0.931 . S
C13 N10 1.311 . S
C13 N14 1.347 1_455 S
C13 H24 0.929 . S
N14 C12 1.375 . S
N14 C13 1.347 1_655 S
C15 C18 1.365 . S
C15 N20 1.328 . S
C15 H21 0.929 . S
C16 C17 1.362 . S
C16 C19 1.378 . S
C16 H31 0.929 . S
C17 C16 1.362 . S
C17 C18 1.366 . S
C18 C15 1.365 . S
C18 C17 1.366 . S
C18 H32 0.930 . S
C19 C16 1.378 . S
C19 N20 1.315 . S
C19 H22 0.930 . S
N20 Co0 2.194 . S
N20 C15 1.328 . S
N20 C19 1.315 . S
H21 C15 0.929 . S
H22 C19 0.930 . S
H23 C11 0.929 . S
H24 C13 0.929 . S
O25 Co0 2.351 . S
O25 C28 1.244 . S
O26 Co0 2.155 . S
O26 C28 1.240 . S
O27 Co0 2.096 . S
O27 C8 1.247 . S
C28 O25 1.244 . S
C28 O26 1.240 . S
H29 C3 0.931 . S
H30 C12 0.931 . S
H31 C16 0.929 . S
H32 C18 0.930 . S
Co33 N37 2.148 . S
Co33 N43 2.128 . S
Co33 N53 2.194 . S
Co33 O58 2.351 . S
Co33 O59 2.155 . S
Co33 O60 2.096 . S
C34 N37 1.301 . S
C34 N38 1.328 . S
C34 H39 0.930 . S
C35 C36 1.333 . S
C35 N37 1.317 . S
C35 H40 0.930 . S
C36 C35 1.333 . S
C36 N38 1.350 . S
C36 H62 0.931 . S
N37 Co33 2.148 . S
N37 C34 1.301 . S
N37 C35 1.317 . S
N38 C34 1.328 . S
N38 C36 1.350 . S
H39 C34 0.930 . S
H40 C35 0.930 . S
C41 O42 1.224 . S
C41 O60 1.247 . S
O42 C41 1.224 . S
N43 Co33 2.128 . S
N43 C44 1.355 . S
N43 C46 1.311 . S
C44 N43 1.355 . S
C44 C45 1.363 . S
C44 H56 0.929 . S
C45 C44 1.363 . S
C45 N47 1.375 . S
C45 H63 0.931 . S
C46 N43 1.311 . S
C46 N47 1.347 . S
C46 H57 0.929 . S
N47 C45 1.375 . S
N47 C46 1.347 . S
C48 C51 1.365 . S
C48 N53 1.328 . S
C48 H54 0.929 . S
C49 C50 1.362 . S
C49 C52 1.378 . S
C49 H64 0.929 . S
C50 C49 1.362 . S
C50 C51 1.366 . S
C51 C48 1.365 . S
C51 C50 1.366 . S
C51 H65 0.930 . S
C52 C49 1.378 . S
C52 N53 1.315 . S
C52 H55 0.930 . S
N53 Co33 2.194 . S
N53 C48 1.328 . S
N53 C52 1.315 . S
H54 C48 0.929 . S
H55 C52 0.930 . S
H56 C44 0.929 . S
H57 C46 0.929 . S
O58 Co33 2.351 . S
O58 C61 1.244 . S
O59 Co33 2.155 . S
O59 C61 1.240 . S
O60 Co33 2.096 . S
O60 C41 1.247 . S
C61 O58 1.244 . S
C61 O59 1.240 . S
H62 C36 0.931 . S
H63 C45 0.931 . S
H64 C49 0.929 . S
H65 C51 0.930 . S
Co66 N70 2.148 . S
Co66 N76 2.128 . S
Co66 N86 2.194 . S
Co66 O91 2.351 . S
Co66 O92 2.155 . S
Co66 O93 2.096 . S
C67 N70 1.301 . S
C67 N71 1.328 . S
C67 H72 0.930 . S
C68 C69 1.333 . S
C68 N70 1.317 . S
C68 H73 0.930 . S
C69 C68 1.333 . S
C69 N71 1.350 . S
C69 H95 0.931 . S
N70 Co66 2.148 . S
N70 C67 1.301 . S
N70 C68 1.317 . S
N71 C67 1.328 . S
N71 C69 1.350 . S
H72 C67 0.930 . S
H73 C68 0.930 . S
C74 O75 1.224 . S
C74 O93 1.247 . S
O75 C74 1.224 . S
N76 Co66 2.128 . S
N76 C77 1.355 . S
N76 C79 1.311 . S
C77 N76 1.355 . S
C77 C78 1.363 1_565 S
C77 H89 0.929 . S
C78 C77 1.363 1_545 S
C78 N80 1.375 . S
C78 H96 0.931 . S
C79 N76 1.311 . S
C79 N80 1.347 1_565 S
C79 H90 0.929 . S
N80 C78 1.375 . S
N80 C79 1.347 1_545 S
C81 C84 1.365 . S
C81 N86 1.328 . S
C81 H87 0.929 . S
C82 C83 1.362 . S
C82 C85 1.378 . S
C82 H97 0.929 . S
C83 C82 1.362 . S
C83 C84 1.366 . S
C84 C81 1.365 . S
C84 C83 1.366 . S
C84 H98 0.930 . S
C85 C82 1.378 . S
C85 N86 1.315 . S
C85 H88 0.930 . S
N86 Co66 2.194 . S
N86 C81 1.328 . S
N86 C85 1.315 . S
H87 C81 0.929 . S
H88 C85 0.930 . S
H89 C77 0.929 . S
H90 C79 0.929 . S
O91 Co66 2.351 . S
O91 C94 1.244 . S
O92 Co66 2.155 . S
O92 C94 1.240 . S
O93 Co66 2.096 . S
O93 C74 1.247 . S
C94 O91 1.244 . S
C94 O92 1.240 . S
H95 C69 0.931 . S
H96 C78 0.931 . S
H97 C82 0.929 . S
H98 C84 0.930 . S
Co99 N103 2.148 . S
Co99 N109 2.128 . S
Co99 N119 2.194 . S
Co99 O124 2.351 . S
Co99 O125 2.155 . S
Co99 O126 2.096 . S
C100 N103 1.301 . S
C100 N104 1.328 . S
C100 H105 0.930 . S
C101 C102 1.333 . S
C101 N103 1.317 . S
C101 H106 0.930 . S
C102 C101 1.333 . S
C102 N104 1.350 . S
C102 H128 0.931 . S
N103 Co99 2.148 . S
N103 C100 1.301 . S
N103 C101 1.317 . S
N104 C100 1.328 . S
N104 C102 1.350 . S
H105 C100 0.930 . S
H106 C101 0.930 . S
C107 O108 1.224 . S
C107 O126 1.247 . S
O108 C107 1.224 . S
N109 Co99 2.128 . S
N109 C110 1.355 . S
N109 C112 1.311 . S
C110 N109 1.355 . S
C110 C111 1.363 1_545 S
C110 H122 0.929 . S
C111 C110 1.363 1_565 S
C111 N113 1.375 . S
C111 H129 0.931 . S
C112 N109 1.311 . S
C112 N113 1.347 1_545 S
C112 H123 0.929 . S
N113 C111 1.375 . S
N113 C112 1.347 1_565 S
C114 C117 1.365 . S
C114 N119 1.328 . S
C114 H120 0.929 . S
C115 C116 1.362 . S
C115 C118 1.378 . S
C115 H130 0.929 . S
C116 C115 1.362 . S
C116 C117 1.366 . S
C117 C114 1.365 . S
C117 C116 1.366 . S
C117 H131 0.930 . S
C118 C115 1.378 . S
C118 N119 1.315 . S
C118 H121 0.930 . S
N119 Co99 2.194 . S
N119 C114 1.328 . S
N119 C118 1.315 . S
H120 C114 0.929 . S
H121 C118 0.930 . S
H122 C110 0.929 . S
H123 C112 0.929 . S
O124 Co99 2.351 . S
O124 C127 1.244 . S
O125 Co99 2.155 . S
O125 C127 1.240 . S
O126 Co99 2.096 . S
O126 C107 1.247 . S
C127 O124 1.244 . S
C127 O125 1.240 . S
H128 C102 0.931 . S
H129 C111 0.931 . S
H130 C115 0.929 . S
H131 C117 0.930 . S
Co132 N136 2.148 . S
Co132 N142 2.128 . S
Co132 N152 2.194 . S
Co132 O157 2.351 . S
Co132 O158 2.155 . S
Co132 O159 2.096 . S
C133 N136 1.301 . S
C133 N137 1.328 . S
C133 H138 0.930 . S
C134 C135 1.333 . S
C134 N136 1.317 . S
C134 H139 0.930 . S
C135 C134 1.333 . S
C135 N137 1.350 . S
C135 H161 0.931 . S
N136 Co132 2.148 . S
N136 C133 1.301 . S
N136 C134 1.317 . S
N137 C133 1.328 . S
N137 C135 1.350 . S
H138 C133 0.930 . S
H139 C134 0.930 . S
C140 O141 1.224 . S
C140 O159 1.247 . S
O141 C140 1.224 . S
N142 Co132 2.128 . S
N142 C143 1.355 . S
N142 C145 1.311 . S
C143 N142 1.355 . S
C143 C144 1.363 1_655 S
C143 H155 0.929 . S
C144 C143 1.363 1_455 S
C144 N146 1.375 . S
C144 H162 0.931 . S
C145 N142 1.311 . S
C145 N146 1.347 1_655 S
C145 H156 0.929 . S
N146 C144 1.375 . S
N146 C145 1.347 1_455 S
C147 C150 1.365 . S
C147 N152 1.328 . S
C147 H153 0.929 . S
C148 C149 1.362 . S
C148 C151 1.378 . S
C148 H163 0.929 . S
C149 C148 1.362 . S
C149 C150 1.366 . S
C150 C147 1.365 . S
C150 C149 1.366 . S
C150 H164 0.930 . S
C151 C148 1.378 . S
C151 N152 1.315 . S
C151 H154 0.930 . S
N152 Co132 2.194 . S
N152 C147 1.328 . S
N152 C151 1.315 . S
H153 C147 0.929 . S
H154 C151 0.930 . S
H155 C143 0.929 . S
H156 C145 0.929 . S
O157 Co132 2.351 . S
O157 C160 1.244 . S
O158 Co132 2.155 . S
O158 C160 1.240 . S
O159 Co132 2.096 . S
O159 C140 1.247 . S
C160 O157 1.244 . S
C160 O158 1.240 . S
H161 C135 0.931 . S
H162 C144 0.931 . S
H163 C148 0.929 . S
H164 C150 0.930 . S
Co165 N169 2.148 . S
Co165 N175 2.128 . S
Co165 N185 2.194 . S
Co165 O190 2.351 . S
Co165 O191 2.155 . S
Co165 O192 2.096 . S
C166 N169 1.301 . S
C166 N170 1.328 . S
C166 H171 0.930 . S
C167 C168 1.333 . S
C167 N169 1.317 . S
C167 H172 0.930 . S
C168 C167 1.333 . S
C168 N170 1.350 . S
C168 H194 0.931 . S
N169 Co165 2.148 . S
N169 C166 1.301 . S
N169 C167 1.317 . S
N170 C166 1.328 . S
N170 C168 1.350 . S
H171 C166 0.930 . S
H172 C167 0.930 . S
C173 O174 1.224 . S
C173 O192 1.247 . S
O174 C173 1.224 . S
N175 Co165 2.128 . S
N175 C176 1.355 . S
N175 C178 1.311 . S
C176 N175 1.355 . S
C176 C177 1.363 . S
C176 H188 0.929 . S
C177 C176 1.363 . S
C177 N179 1.375 . S
C177 H195 0.931 . S
C178 N175 1.311 . S
C178 N179 1.347 . S
C178 H189 0.929 . S
N179 C177 1.375 . S
N179 C178 1.347 . S
C180 C183 1.365 . S
C180 N185 1.328 . S
C180 H186 0.929 . S
C181 C182 1.362 . S
C181 C184 1.378 . S
C181 H196 0.929 . S
C182 C181 1.362 . S
C182 C183 1.366 . S
C183 C180 1.365 . S
C183 C182 1.366 . S
C183 H197 0.930 . S
C184 C181 1.378 . S
C184 N185 1.315 . S
C184 H187 0.930 . S
N185 Co165 2.194 . S
N185 C180 1.328 . S
N185 C184 1.315 . S
H186 C180 0.929 . S
H187 C184 0.930 . S
H188 C176 0.929 . S
H189 C178 0.929 . S
O190 Co165 2.351 . S
O190 C193 1.244 . S
O191 Co165 2.155 . S
O191 C193 1.240 . S
O192 Co165 2.096 . S
O192 C173 1.247 . S
C193 O190 1.244 . S
C193 O191 1.240 . S
H194 C168 0.931 . S
H195 C177 0.931 . S
H196 C181 0.929 . S
H197 C183 0.930 . S
Co198 N202 2.148 . S
Co198 N208 2.128 . S
Co198 N218 2.194 . S
Co198 O223 2.351 . S
Co198 O224 2.155 . S
Co198 O225 2.096 . S
C199 N202 1.301 . S
C199 N203 1.328 . S
C199 H204 0.930 . S
C200 C201 1.333 . S
C200 N202 1.317 . S
C200 H205 0.930 . S
C201 C200 1.333 . S
C201 N203 1.350 . S
C201 H227 0.931 . S
N202 Co198 2.148 . S
N202 C199 1.301 . S
N202 C200 1.317 . S
N203 C199 1.328 . S
N203 C201 1.350 . S
H204 C199 0.930 . S
H205 C200 0.930 . S
C206 O207 1.224 . S
C206 O225 1.247 . S
O207 C206 1.224 . S
N208 Co198 2.128 . S
N208 C209 1.355 . S
N208 C211 1.311 . S
C209 N208 1.355 . S
C209 C210 1.363 . S
C209 H221 0.929 . S
C210 C209 1.363 . S
C210 N212 1.375 . S
C210 H228 0.931 . S
C211 N208 1.311 . S
C211 N212 1.347 . S
C211 H222 0.929 . S
N212 C210 1.375 . S
N212 C211 1.347 . S
C213 C216 1.365 . S
C213 N218 1.328 . S
C213 H219 0.929 . S
C214 C215 1.362 . S
C214 C217 1.378 . S
C214 H229 0.929 . S
C215 C214 1.362 . S
C215 C216 1.366 . S
C216 C213 1.365 . S
C216 C215 1.366 . S
C216 H230 0.930 . S
C217 C214 1.378 . S
C217 N218 1.315 . S
C217 H220 0.930 . S
N218 Co198 2.194 . S
N218 C213 1.328 . S
N218 C217 1.315 . S
H219 C213 0.929 . S
H220 C217 0.930 . S
H221 C209 0.929 . S
H222 C211 0.929 . S
O223 Co198 2.351 . S
O223 C226 1.244 . S
O224 Co198 2.155 . S
O224 C226 1.240 . S
O225 Co198 2.096 . S
O225 C206 1.247 . S
C226 O223 1.244 . S
C226 O224 1.240 . S
H227 C201 0.931 . S
H228 C210 0.931 . S
H229 C214 0.929 . S
H230 C216 0.930 . S
Co231 N235 2.148 . S
Co231 N241 2.128 . S
Co231 N251 2.194 . S
Co231 O256 2.351 . S
Co231 O257 2.155 . S
Co231 O258 2.096 . S
C232 N235 1.301 . S
C232 N236 1.328 . S
C232 H237 0.930 . S
C233 C234 1.333 . S
C233 N235 1.317 . S
C233 H238 0.930 . S
C234 C233 1.333 . S
C234 N236 1.350 . S
C234 H260 0.931 . S
N235 Co231 2.148 . S
N235 C232 1.301 . S
N235 C233 1.317 . S
N236 C232 1.328 . S
N236 C234 1.350 . S
H237 C232 0.930 . S
H238 C233 0.930 . S
C239 O240 1.224 . S
C239 O258 1.247 . S
O240 C239 1.224 . S
N241 Co231 2.128 . S
N241 C242 1.355 . S
N241 C244 1.311 . S
C242 N241 1.355 . S
C242 C243 1.363 . S
C242 H254 0.929 . S
C243 C242 1.363 . S
C243 N245 1.375 . S
C243 H261 0.931 . S
C244 N241 1.311 . S
C244 N245 1.347 . S
C244 H255 0.929 . S
N245 C243 1.375 . S
N245 C244 1.347 . S
C246 C249 1.365 . S
C246 N251 1.328 . S
C246 H252 0.929 . S
C247 C248 1.362 . S
C247 C250 1.378 . S
C247 H262 0.929 . S
C248 C247 1.362 . S
C248 C249 1.366 . S
C249 C246 1.365 . S
C249 C248 1.366 . S
C249 H263 0.930 . S
C250 C247 1.378 . S
C250 N251 1.315 . S
C250 H253 0.930 . S
N251 Co231 2.194 . S
N251 C246 1.328 . S
N251 C250 1.315 . S
H252 C246 0.929 . S
H253 C250 0.930 . S
H254 C242 0.929 . S
H255 C244 0.929 . S
O256 Co231 2.351 . S
O256 C259 1.244 . S
O257 Co231 2.155 . S
O257 C259 1.240 . S
O258 Co231 2.096 . S
O258 C239 1.247 . S
C259 O256 1.244 . S
C259 O257 1.240 . S
H260 C234 0.931 . S
H261 C243 0.931 . S
H262 C247 0.929 . S
H263 C249 0.930 . S
Co264 N268 2.148 . S
Co264 N274 2.128 . S
Co264 N284 2.194 . S
Co264 O289 2.351 . S
Co264 O290 2.155 . S
Co264 O291 2.096 . S
C265 N268 1.301 . S
C265 N269 1.328 . S
C265 H270 0.930 . S
C266 C267 1.333 . S
C266 N268 1.317 . S
C266 H271 0.930 . S
C267 C266 1.333 . S
C267 N269 1.350 . S
C267 H293 0.931 . S
N268 Co264 2.148 . S
N268 C265 1.301 . S
N268 C266 1.317 . S
N269 C265 1.328 . S
N269 C267 1.350 . S
H270 C265 0.930 . S
H271 C266 0.930 . S
C272 O273 1.224 . S
C272 O291 1.247 . S
O273 C272 1.224 . S
N274 Co264 2.128 . S
N274 C275 1.355 . S
N274 C277 1.311 . S
C275 N274 1.355 . S
C275 C276 1.363 . S
C275 H287 0.929 . S
C276 C275 1.363 . S
C276 N278 1.375 . S
C276 H294 0.931 . S
C277 N274 1.311 . S
C277 N278 1.347 . S
C277 H288 0.929 . S
N278 C276 1.375 . S
N278 C277 1.347 . S
C279 C282 1.365 . S
C279 N284 1.328 . S
C279 H285 0.929 . S
C280 C281 1.362 . S
C280 C283 1.378 . S
C280 H295 0.929 . S
C281 C280 1.362 . S
C281 C282 1.366 . S
C282 C279 1.365 . S
C282 C281 1.366 . S
C282 H296 0.930 . S
C283 C280 1.378 . S
C283 N284 1.315 . S
C283 H286 0.930 . S
N284 Co264 2.194 . S
N284 C279 1.328 . S
N284 C283 1.315 . S
H285 C279 0.929 . S
H286 C283 0.930 . S
H287 C275 0.929 . S
H288 C277 0.929 . S
O289 Co264 2.351 . S
O289 C292 1.244 . S
O290 Co264 2.155 . S
O290 C292 1.240 . S
O291 Co264 2.096 . S
O291 C272 1.247 . S
C292 O289 1.244 . S
C292 O290 1.240 . S
H293 C267 0.931 . S
H294 C276 0.931 . S
H295 C280 0.929 . S
H296 C282 0.930 . S
Co297 N301 2.148 . S
Co297 N307 2.128 . S
Co297 N317 2.194 . S
Co297 O322 2.351 . S
Co297 O323 2.155 . S
Co297 O324 2.096 . S
C298 N301 1.301 1_455 S
C298 N302 1.328 . S
C298 H303 0.930 . S
C299 C300 1.333 . S
C299 N301 1.317 . S
C299 H304 0.930 . S
C300 C299 1.333 . S
C300 N302 1.350 1_655 S
C300 H326 0.931 . S
N301 Co297 2.148 . S
N301 C298 1.301 1_655 S
N301 C299 1.317 . S
N302 C298 1.328 . S
N302 C300 1.350 1_455 S
H303 C298 0.930 . S
H304 C299 0.930 . S
C305 O306 1.224 . S
C305 O324 1.247 . S
O306 C305 1.224 . S
N307 Co297 2.128 . S
N307 C308 1.355 . S
N307 C310 1.311 . S
C308 N307 1.355 . S
C308 C309 1.363 . S
C308 H320 0.929 . S
C309 C308 1.363 . S
C309 N311 1.375 . S
C309 H327 0.931 . S
C310 N307 1.311 . S
C310 N311 1.347 . S
C310 H321 0.929 . S
N311 C309 1.375 . S
N311 C310 1.347 . S
C312 C315 1.365 1_655 S
C312 N317 1.328 . S
C312 H318 0.929 1_655 S
C313 C314 1.362 . S
C313 C316 1.378 . S
C313 H328 0.929 . S
C314 C313 1.362 . S
C314 C315 1.366 1_655 S
C315 C312 1.365 1_455 S
C315 C314 1.366 1_455 S
C315 H329 0.930 . S
C316 C313 1.378 . S
C316 N317 1.315 . S
C316 H319 0.930 . S
N317 Co297 2.194 . S
N317 C312 1.328 . S
N317 C316 1.315 . S
H318 C312 0.929 1_455 S
H319 C316 0.930 . S
H320 C308 0.929 . S
H321 C310 0.929 . S
O322 Co297 2.351 . S
O322 C325 1.244 . S
O323 Co297 2.155 . S
O323 C325 1.240 . S
O324 Co297 2.096 . S
O324 C305 1.247 . S
C325 O322 1.244 . S
C325 O323 1.240 . S
H326 C300 0.931 . S
H327 C309 0.931 . S
H328 C313 0.929 . S
H329 C315 0.930 . S
Co330 N334 2.148 . S
Co330 N340 2.128 . S
Co330 N350 2.194 . S
Co330 O355 2.351 . S
Co330 O356 2.155 . S
Co330 O357 2.096 . S
C331 N334 1.301 . S
C331 N335 1.328 . S
C331 H336 0.930 . S
C332 C333 1.333 . S
C332 N334 1.317 . S
C332 H337 0.930 . S
C333 C332 1.333 . S
C333 N335 1.350 . S
C333 H359 0.931 . S
N334 Co330 2.148 . S
N334 C331 1.301 . S
N334 C332 1.317 . S
N335 C331 1.328 . S
N335 C333 1.350 . S
H336 C331 0.930 . S
H337 C332 0.930 . S
C338 O339 1.224 . S
C338 O357 1.247 . S
O339 C338 1.224 . S
N340 Co330 2.128 . S
N340 C341 1.355 . S
N340 C343 1.311 . S
C341 N340 1.355 . S
C341 C342 1.363 . S
C341 H353 0.929 . S
C342 C341 1.363 . S
C342 N344 1.375 . S
C342 H360 0.931 . S
C343 N340 1.311 . S
C343 N344 1.347 . S
C343 H354 0.929 . S
N344 C342 1.375 . S
N344 C343 1.347 . S
C345 C348 1.365 . S
C345 N350 1.328 . S
C345 H351 0.929 . S
C346 C347 1.362 . S
C346 C349 1.378 . S
C346 H361 0.929 . S
C347 C346 1.362 . S
C347 C348 1.366 . S
C348 C345 1.365 . S
C348 C347 1.366 . S
C348 H362 0.930 . S
C349 C346 1.378 . S
C349 N350 1.315 . S
C349 H352 0.930 . S
N350 Co330 2.194 . S
N350 C345 1.328 . S
N350 C349 1.315 . S
H351 C345 0.929 . S
H352 C349 0.930 . S
H353 C341 0.929 . S
H354 C343 0.929 . S
O355 Co330 2.351 . S
O355 C358 1.244 . S
O356 Co330 2.155 . S
O356 C358 1.240 . S
O357 Co330 2.096 . S
O357 C338 1.247 . S
C358 O355 1.244 . S
C358 O356 1.240 . S
H359 C333 0.931 . S
H360 C342 0.931 . S
H361 C346 0.929 . S
H362 C348 0.930 . S
Co363 N367 2.148 . S
Co363 N373 2.128 . S
Co363 N383 2.194 . S
Co363 O388 2.351 . S
Co363 O389 2.155 . S
Co363 O390 2.096 . S
C364 N367 1.301 1_565 S
C364 N368 1.328 . S
C364 H369 0.930 . S
C365 C366 1.333 . S
C365 N367 1.317 . S
C365 H370 0.930 . S
C366 C365 1.333 . S
C366 N368 1.350 1_545 S
C366 H392 0.931 . S
N367 Co363 2.148 . S
N367 C364 1.301 1_545 S
N367 C365 1.317 . S
N368 C364 1.328 . S
N368 C366 1.350 1_565 S
H369 C364 0.930 . S
H370 C365 0.930 . S
C371 O372 1.224 . S
C371 O390 1.247 . S
O372 C371 1.224 . S
N373 Co363 2.128 . S
N373 C374 1.355 . S
N373 C376 1.311 . S
C374 N373 1.355 . S
C374 C375 1.363 . S
C374 H386 0.929 . S
C375 C374 1.363 . S
C375 N377 1.375 . S
C375 H393 0.931 . S
C376 N373 1.311 . S
C376 N377 1.347 . S
C376 H387 0.929 . S
N377 C375 1.375 . S
N377 C376 1.347 . S
C378 C381 1.365 1_545 S
C378 N383 1.328 . S
C378 H384 0.929 1_545 S
C379 C380 1.362 . S
C379 C382 1.378 . S
C379 H394 0.929 . S
C380 C379 1.362 . S
C380 C381 1.366 1_545 S
C381 C378 1.365 1_565 S
C381 C380 1.366 1_565 S
C381 H395 0.930 . S
C382 C379 1.378 . S
C382 N383 1.315 . S
C382 H385 0.930 . S
N383 Co363 2.194 . S
N383 C378 1.328 . S
N383 C382 1.315 . S
H384 C378 0.929 1_565 S
H385 C382 0.930 . S
H386 C374 0.929 . S
H387 C376 0.929 . S
O388 Co363 2.351 . S
O388 C391 1.244 . S
O389 Co363 2.155 . S
O389 C391 1.240 . S
O390 Co363 2.096 . S
O390 C371 1.247 . S
C391 O388 1.244 . S
C391 O389 1.240 . S
H392 C366 0.931 . S
H393 C375 0.931 . S
H394 C379 0.929 . S
H395 C381 0.930 . S
Co396 N400 2.148 . S
Co396 N406 2.128 . S
Co396 N416 2.194 . S
Co396 O421 2.351 . S
Co396 O422 2.155 . S
Co396 O423 2.096 . S
C397 N400 1.301 1_545 S
C397 N401 1.328 . S
C397 H402 0.930 . S
C398 C399 1.333 . S
C398 N400 1.317 . S
C398 H403 0.930 . S
C399 C398 1.333 . S
C399 N401 1.350 1_565 S
C399 H425 0.931 . S
N400 Co396 2.148 . S
N400 C397 1.301 1_565 S
N400 C398 1.317 . S
N401 C397 1.328 . S
N401 C399 1.350 1_545 S
H402 C397 0.930 . S
H403 C398 0.930 . S
C404 O405 1.224 . S
C404 O423 1.247 . S
O405 C404 1.224 . S
N406 Co396 2.128 . S
N406 C407 1.355 . S
N406 C409 1.311 . S
C407 N406 1.355 . S
C407 C408 1.363 . S
C407 H419 0.929 . S
C408 C407 1.363 . S
C408 N410 1.375 . S
C408 H426 0.931 . S
C409 N406 1.311 . S
C409 N410 1.347 . S
C409 H420 0.929 . S
N410 C408 1.375 . S
N410 C409 1.347 . S
C411 C414 1.365 1_565 S
C411 N416 1.328 . S
C411 H417 0.929 1_565 S
C412 C413 1.362 . S
C412 C415 1.378 . S
C412 H427 0.929 . S
C413 C412 1.362 . S
C413 C414 1.366 1_565 S
C414 C411 1.365 1_545 S
C414 C413 1.366 1_545 S
C414 H428 0.930 . S
C415 C412 1.378 . S
C415 N416 1.315 . S
C415 H418 0.930 . S
N416 Co396 2.194 . S
N416 C411 1.328 . S
N416 C415 1.315 . S
H417 C411 0.929 1_545 S
H418 C415 0.930 . S
H419 C407 0.929 . S
H420 C409 0.929 . S
O421 Co396 2.351 . S
O421 C424 1.244 . S
O422 Co396 2.155 . S
O422 C424 1.240 . S
O423 Co396 2.096 . S
O423 C404 1.247 . S
C424 O421 1.244 . S
C424 O422 1.240 . S
H425 C399 0.931 . S
H426 C408 0.931 . S
H427 C412 0.929 . S
H428 C414 0.930 . S
Co429 N433 2.148 . S
Co429 N439 2.128 . S
Co429 N449 2.194 . S
Co429 O454 2.351 . S
Co429 O455 2.155 . S
Co429 O456 2.096 . S
C430 N433 1.301 1_655 S
C430 N434 1.328 . S
C430 H435 0.930 . S
C431 C432 1.333 . S
C431 N433 1.317 . S
C431 H436 0.930 . S
C432 C431 1.333 . S
C432 N434 1.350 1_455 S
C432 H458 0.931 . S
N433 Co429 2.148 . S
N433 C430 1.301 1_455 S
N433 C431 1.317 . S
N434 C430 1.328 . S
N434 C432 1.350 1_655 S
H435 C430 0.930 . S
H436 C431 0.930 . S
C437 O438 1.224 . S
C437 O456 1.247 . S
O438 C437 1.224 . S
N439 Co429 2.128 . S
N439 C440 1.355 . S
N439 C442 1.311 . S
C440 N439 1.355 . S
C440 C441 1.363 . S
C440 H452 0.929 . S
C441 C440 1.363 . S
C441 N443 1.375 . S
C441 H459 0.931 . S
C442 N439 1.311 . S
C442 N443 1.347 . S
C442 H453 0.929 . S
N443 C441 1.375 . S
N443 C442 1.347 . S
C444 C447 1.365 1_455 S
C444 N449 1.328 . S
C444 H450 0.929 1_455 S
C445 C446 1.362 . S
C445 C448 1.378 . S
C445 H460 0.929 . S
C446 C445 1.362 . S
C446 C447 1.366 1_455 S
C447 C444 1.365 1_655 S
C447 C446 1.366 1_655 S
C447 H461 0.930 . S
C448 C445 1.378 . S
C448 N449 1.315 . S
C448 H451 0.930 . S
N449 Co429 2.194 . S
N449 C444 1.328 . S
N449 C448 1.315 . S
H450 C444 0.929 1_655 S
H451 C448 0.930 . S
H452 C440 0.929 . S
H453 C442 0.929 . S
O454 Co429 2.351 . S
O454 C457 1.244 . S
O455 Co429 2.155 . S
O455 C457 1.240 . S
O456 Co429 2.096 . S
O456 C437 1.247 . S
C457 O454 1.244 . S
C457 O455 1.240 . S
H458 C432 0.931 . S
H459 C441 0.931 . S
H460 C445 0.929 . S
H461 C447 0.930 . S
Co462 N466 2.148 . S
Co462 N472 2.128 . S
Co462 N482 2.194 . S
Co462 O487 2.351 . S
Co462 O488 2.155 . S
Co462 O489 2.096 . S
C463 N466 1.301 . S
C463 N467 1.328 . S
C463 H468 0.930 . S
C464 C465 1.333 . S
C464 N466 1.317 . S
C464 H469 0.930 . S
C465 C464 1.333 . S
C465 N467 1.350 . S
C465 H491 0.931 . S
N466 Co462 2.148 . S
N466 C463 1.301 . S
N466 C464 1.317 . S
N467 C463 1.328 . S
N467 C465 1.350 . S
H468 C463 0.930 . S
H469 C464 0.930 . S
C470 O471 1.224 . S
C470 O489 1.247 . S
O471 C470 1.224 . S
N472 Co462 2.128 . S
N472 C473 1.355 . S
N472 C475 1.311 . S
C473 N472 1.355 . S
C473 C474 1.363 . S
C473 H485 0.929 . S
C474 C473 1.363 . S
C474 N476 1.375 . S
C474 H492 0.931 . S
C475 N472 1.311 . S
C475 N476 1.347 . S
C475 H486 0.929 . S
N476 C474 1.375 . S
N476 C475 1.347 . S
C477 C480 1.365 . S
C477 N482 1.328 . S
C477 H483 0.929 . S
C478 C479 1.362 . S
C478 C481 1.378 . S
C478 H493 0.929 . S
C479 C478 1.362 . S
C479 C480 1.366 . S
C480 C477 1.365 . S
C480 C479 1.366 . S
C480 H494 0.930 . S
C481 C478 1.378 . S
C481 N482 1.315 . S
C481 H484 0.930 . S
N482 Co462 2.194 . S
N482 C477 1.328 . S
N482 C481 1.315 . S
H483 C477 0.929 . S
H484 C481 0.930 . S
H485 C473 0.929 . S
H486 C475 0.929 . S
O487 Co462 2.351 . S
O487 C490 1.244 . S
O488 Co462 2.155 . S
O488 C490 1.240 . S
O489 Co462 2.096 . S
O489 C470 1.247 . S
C490 O487 1.244 . S
C490 O488 1.240 . S
H491 C465 0.931 . S
H492 C474 0.931 . S
H493 C478 0.929 . S
H494 C480 0.930 . S
Co495 N499 2.148 . S
Co495 N505 2.128 . S
Co495 N515 2.194 . S
Co495 O520 2.351 . S
Co495 O521 2.155 . S
Co495 O522 2.096 . S
C496 N499 1.301 . S
C496 N500 1.328 . S
C496 H501 0.930 . S
C497 C498 1.333 . S
C497 N499 1.317 . S
C497 H502 0.930 . S
C498 C497 1.333 . S
C498 N500 1.350 . S
C498 H524 0.931 . S
N499 Co495 2.148 . S
N499 C496 1.301 . S
N499 C497 1.317 . S
N500 C496 1.328 . S
N500 C498 1.350 . S
H501 C496 0.930 . S
H502 C497 0.930 . S
C503 O504 1.224 . S
C503 O522 1.247 . S
O504 C503 1.224 . S
N505 Co495 2.128 . S
N505 C506 1.355 . S
N505 C508 1.311 . S
C506 N505 1.355 . S
C506 C507 1.363 . S
C506 H518 0.929 . S
C507 C506 1.363 . S
C507 N509 1.375 . S
C507 H525 0.931 . S
C508 N505 1.311 . S
C508 N509 1.347 . S
C508 H519 0.929 . S
N509 C507 1.375 . S
N509 C508 1.347 . S
C510 C513 1.365 . S
C510 N515 1.328 . S
C510 H516 0.929 . S
C511 C512 1.362 . S
C511 C514 1.378 . S
C511 H526 0.929 . S
C512 C511 1.362 . S
C512 C513 1.366 . S
C513 C510 1.365 . S
C513 C512 1.366 . S
C513 H527 0.930 . S
C514 C511 1.378 . S
C514 N515 1.315 . S
C514 H517 0.930 . S
N515 Co495 2.194 . S
N515 C510 1.328 . S
N515 C514 1.315 . S
H516 C510 0.929 . S
H517 C514 0.930 . S
H518 C506 0.929 . S
H519 C508 0.929 . S
O520 Co495 2.351 . S
O520 C523 1.244 . S
O521 Co495 2.155 . S
O521 C523 1.240 . S
O522 Co495 2.096 . S
O522 C503 1.247 . S
C523 O520 1.244 . S
C523 O521 1.240 . S
H524 C498 0.931 . S
H525 C507 0.931 . S
H526 C511 0.929 . S
H527 C513 0.930 . S
Co528 N532 2.148 . S
Co528 N538 2.128 . S
Co528 N548 2.194 . S
Co528 O553 2.351 . S
Co528 O554 2.155 . S
Co528 O555 2.096 . S
C529 N532 1.301 . S
C529 N533 1.328 . S
C529 H534 0.930 . S
C530 C531 1.333 . S
C530 N532 1.317 . S
C530 H535 0.930 . S
C531 C530 1.333 . S
C531 N533 1.350 . S
C531 H557 0.931 . S
N532 Co528 2.148 . S
N532 C529 1.301 . S
N532 C530 1.317 . S
N533 C529 1.328 . S
N533 C531 1.350 . S
H534 C529 0.930 . S
H535 C530 0.930 . S
C536 O537 1.224 . S
C536 O555 1.247 . S
O537 C536 1.224 . S
N538 Co528 2.128 . S
N538 C539 1.355 . S
N538 C541 1.311 . S
C539 N538 1.355 . S
C539 C540 1.363 . S
C539 H551 0.929 . S
C540 C539 1.363 . S
C540 N542 1.375 . S
C540 H558 0.931 . S
C541 N538 1.311 . S
C541 N542 1.347 . S
C541 H552 0.929 . S
N542 C540 1.375 . S
N542 C541 1.347 . S
C543 C546 1.365 . S
C543 N548 1.328 . S
C543 H549 0.929 . S
C544 C545 1.362 . S
C544 C547 1.378 . S
C544 H559 0.929 . S
C545 C544 1.362 . S
C545 C546 1.366 . S
C546 C543 1.365 . S
C546 C545 1.366 . S
C546 H560 0.930 . S
C547 C544 1.378 . S
C547 N548 1.315 . S
C547 H550 0.930 . S
N548 Co528 2.194 . S
N548 C543 1.328 . S
N548 C547 1.315 . S
H549 C543 0.929 . S
H550 C547 0.930 . S
H551 C539 0.929 . S
H552 C541 0.929 . S
O553 Co528 2.351 . S
O553 C556 1.244 . S
O554 Co528 2.155 . S
O554 C556 1.240 . S
O555 Co528 2.096 . S
O555 C536 1.247 . S
C556 O553 1.244 . S
C556 O554 1.240 . S
H557 C531 0.931 . S
H558 C540 0.931 . S
H559 C544 0.929 . S
H560 C546 0.930 . S
Co561 N565 2.148 . S
Co561 N571 2.128 . S
Co561 N581 2.194 . S
Co561 O586 2.351 . S
Co561 O587 2.155 . S
Co561 O588 2.096 . S
C562 N565 1.301 . S
C562 N566 1.328 . S
C562 H567 0.930 . S
C563 C564 1.333 . S
C563 N565 1.317 . S
C563 H568 0.930 . S
C564 C563 1.333 . S
C564 N566 1.350 . S
C564 H590 0.931 . S
N565 Co561 2.148 . S
N565 C562 1.301 . S
N565 C563 1.317 . S
N566 C562 1.328 . S
N566 C564 1.350 . S
H567 C562 0.930 . S
H568 C563 0.930 . S
C569 O570 1.224 . S
C569 O588 1.247 . S
O570 C569 1.224 . S
N571 Co561 2.128 . S
N571 C572 1.355 . S
N571 C574 1.311 . S
C572 N571 1.355 . S
C572 C573 1.363 . S
C572 H584 0.929 . S
C573 C572 1.363 . S
C573 N575 1.375 . S
C573 H591 0.931 . S
C574 N571 1.311 . S
C574 N575 1.347 . S
C574 H585 0.929 . S
N575 C573 1.375 . S
N575 C574 1.347 . S
C576 C579 1.365 . S
C576 N581 1.328 . S
C576 H582 0.929 . S
C577 C578 1.362 . S
C577 C580 1.378 . S
C577 H592 0.929 . S
C578 C577 1.362 . S
C578 C579 1.366 . S
C579 C576 1.365 . S
C579 C578 1.366 . S
C579 H593 0.930 . S
C580 C577 1.378 . S
C580 N581 1.315 . S
C580 H583 0.930 . S
N581 Co561 2.194 . S
N581 C576 1.328 . S
N581 C580 1.315 . S
H582 C576 0.929 . S
H583 C580 0.930 . S
H584 C572 0.929 . S
H585 C574 0.929 . S
O586 Co561 2.351 . S
O586 C589 1.244 . S
O587 Co561 2.155 . S
O587 C589 1.240 . S
O588 Co561 2.096 . S
O588 C569 1.247 . S
C589 O586 1.244 . S
C589 O587 1.240 . S
H590 C564 0.931 . S
H591 C573 0.931 . S
H592 C577 0.929 . S
H593 C579 0.930 . S
C594 C595 1.369 . S
C594 C596 1.419 . S
C594 H598 0.930 . S
C595 C594 1.369 . S
C595 C604 1.429 . S
C596 C594 1.419 . S
C596 C597 1.363 . S
C596 H599 0.929 . S
C597 C596 1.363 . S
C597 C603 1.428 . S
H598 C594 0.930 . S
H599 C596 0.929 . S
S600 N601 1.613 . S
S600 N602 1.610 . S
N601 S600 1.613 . S
N601 C604 1.350 . S
N602 S600 1.610 . S
N602 C603 1.351 . S
C603 C597 1.428 . S
C603 N602 1.351 . S
C603 C604 1.434 . S
C604 C595 1.429 . S
C604 N601 1.350 . S
C604 C603 1.434 . S
C605 C606 1.369 . S
C605 C607 1.419 . S
C605 H609 0.930 . S
C606 C605 1.369 . S
C606 C615 1.429 . S
C607 C605 1.419 . S
C607 C608 1.363 . S
C607 H610 0.929 . S
C608 C607 1.363 . S
C608 C614 1.428 . S
H609 C605 0.930 . S
H610 C607 0.929 . S
S611 N612 1.613 1_545 S
S611 N613 1.610 . S
N612 S611 1.613 1_565 S
N612 C615 1.350 . S
N613 S611 1.610 . S
N613 C614 1.351 1_545 S
C614 C608 1.428 . S
C614 N613 1.351 1_565 S
C614 C615 1.434 . S
C615 C606 1.429 . S
C615 N612 1.350 . S
C615 C614 1.434 . S
C616 C617 1.369 . S
C616 C618 1.419 . S
C616 H620 0.930 . S
C617 C616 1.369 . S
C617 C626 1.429 . S
C618 C616 1.419 . S
C618 C619 1.363 . S
C618 H621 0.929 . S
C619 C618 1.363 . S
C619 C625 1.428 . S
H620 C616 0.930 . S
H621 C618 0.929 . S
S622 N623 1.613 . S
S622 N624 1.610 . S
N623 S622 1.613 . S
N623 C626 1.350 . S
N624 S622 1.610 . S
N624 C625 1.351 . S
C625 C619 1.428 . S
C625 N624 1.351 . S
C625 C626 1.434 . S
C626 C617 1.429 . S
C626 N623 1.350 . S
C626 C625 1.434 . S
C627 C628 1.369 . S
C627 C629 1.419 . S
C627 H631 0.930 . S
C628 C627 1.369 . S
C628 C637 1.429 . S
C629 C627 1.419 . S
C629 C630 1.363 . S
C629 H632 0.929 . S
C630 C629 1.363 . S
C630 C636 1.428 . S
H631 C627 0.930 . S
H632 C629 0.929 . S
S633 N634 1.613 . S
S633 N635 1.610 . S
N634 S633 1.613 . S
N634 C637 1.350 . S
N635 S633 1.610 . S
N635 C636 1.351 . S
C636 C630 1.428 . S
C636 N635 1.351 . S
C636 C637 1.434 . S
C637 C628 1.429 . S
C637 N634 1.350 . S
C637 C636 1.434 . S
C638 C639 1.369 . S
C638 C640 1.419 . S
C638 H642 0.930 . S
C639 C638 1.369 . S
C639 C648 1.429 . S
C640 C638 1.419 . S
C640 C641 1.363 . S
C640 H643 0.929 . S
C641 C640 1.363 . S
C641 C647 1.428 . S
H642 C638 0.930 . S
H643 C640 0.929 . S
S644 N645 1.613 . S
S644 N646 1.610 . S
N645 S644 1.613 . S
N645 C648 1.350 . S
N646 S644 1.610 . S
N646 C647 1.351 . S
C647 C641 1.428 . S
C647 N646 1.351 . S
C647 C648 1.434 . S
C648 C639 1.429 . S
C648 N645 1.350 . S
C648 C647 1.434 . S
C649 C650 1.369 . S
C649 C651 1.419 . S
C649 H653 0.930 . S
C650 C649 1.369 . S
C650 C659 1.429 . S
C651 C649 1.419 . S
C651 C652 1.363 . S
C651 H654 0.929 . S
C652 C651 1.363 . S
C652 C658 1.428 . S
H653 C649 0.930 . S
H654 C651 0.929 . S
S655 N656 1.613 . S
S655 N657 1.610 . S
N656 S655 1.613 . S
N656 C659 1.350 . S
N657 S655 1.610 . S
N657 C658 1.351 . S
C658 C652 1.428 . S
C658 N657 1.351 . S
C658 C659 1.434 . S
C659 C650 1.429 . S
C659 N656 1.350 . S
C659 C658 1.434 . S
C660 C661 1.369 . S
C660 C662 1.419 . S
C660 H664 0.930 . S
C661 C660 1.369 . S
C661 C670 1.429 . S
C662 C660 1.419 . S
C662 C663 1.363 . S
C662 H665 0.929 . S
C663 C662 1.363 . S
C663 C669 1.428 . S
H664 C660 0.930 . S
H665 C662 0.929 . S
S666 N667 1.613 . S
S666 N668 1.610 . S
N667 S666 1.613 . S
N667 C670 1.350 . S
N668 S666 1.610 . S
N668 C669 1.351 . S
C669 C663 1.428 . S
C669 N668 1.351 . S
C669 C670 1.434 . S
C670 C661 1.429 . S
C670 N667 1.350 . S
C670 C669 1.434 . S
C671 C672 1.369 1_545 S
C671 C673 1.419 . S
C671 H675 0.924 1_545 S
C672 C671 1.369 1_565 S
C672 C681 1.429 1_565 S
C673 C671 1.419 . S
C673 C674 1.363 . S
C673 H676 0.929 . S
C674 C673 1.363 . S
C674 C680 1.428 . S
H675 C671 0.924 1_565 S
H676 C673 0.929 . S
S677 N678 1.613 . S
S677 N679 1.610 . S
N678 S677 1.613 . S
N678 C681 1.350 . S
N679 S677 1.610 . S
N679 C680 1.351 . S
C680 C674 1.428 . S
C680 N679 1.351 . S
C680 C681 1.434 . S
C681 C672 1.429 1_545 S
C681 N678 1.350 . S
C681 C680 1.434 . S
C682 C683 1.369 1_655 S
C682 C684 1.419 . S
C682 H686 0.930 . S
C683 C682 1.369 1_455 S
C683 C692 1.429 1_455 S
C684 C682 1.419 . S
C684 C685 1.363 . S
C684 H687 0.929 . S
C685 C684 1.363 . S
C685 C691 1.428 . S
H686 C682 0.930 . S
H687 C684 0.929 . S
S688 N689 1.613 1_655 S
S688 N690 1.610 . S
N689 S688 1.613 1_455 S
N689 C692 1.350 1_455 S
N690 S688 1.610 . S
N690 C691 1.351 . S
C691 C685 1.428 . S
C691 N690 1.351 . S
C691 C692 1.434 . S
C692 C683 1.429 1_655 S
C692 N689 1.350 1_655 S
C692 C691 1.434 . S
C693 C694 1.369 . S
C693 C695 1.419 . S
C693 H697 0.930 . S
C694 C693 1.369 . S
C694 C703 1.429 . S
C695 C693 1.419 . S
C695 C696 1.363 . S
C695 H698 0.929 . S
C696 C695 1.363 . S
C696 C702 1.428 . S
H697 C693 0.930 . S
H698 C695 0.929 . S
S699 N700 1.613 . S
S699 N701 1.610 . S
N700 S699 1.613 . S
N700 C703 1.350 . S
N701 S699 1.610 . S
N701 C702 1.351 . S
C702 C696 1.428 . S
C702 N701 1.351 . S
C702 C703 1.434 . S
C703 C694 1.429 . S
C703 N700 1.350 . S
C703 C702 1.434 . S
C704 C705 1.369 . S
C704 C706 1.419 . S
C704 H708 0.930 . S
C705 C704 1.369 . S
C705 C714 1.429 . S
C706 C704 1.419 . S
C706 C707 1.365 1_565 S
C706 H709 0.929 1_565 S
C707 C706 1.365 1_545 S
C707 C713 1.427 1_545 S
H708 C704 0.930 . S
H709 C706 0.929 1_545 S
S710 N711 1.613 . S
S710 N712 1.610 . S
N711 S710 1.613 . S
N711 C714 1.350 . S
N712 S710 1.610 . S
N712 C713 1.351 . S
C713 C707 1.427 1_565 S
C713 N712 1.351 . S
C713 C714 1.434 . S
C714 C705 1.429 . S
C714 N711 1.350 . S
C714 C713 1.434 . S
C715 C716 1.369 . S
C715 C717 1.419 . S
C715 H719 0.930 . S
C716 C715 1.369 . S
C716 C725 1.429 . S
C717 C715 1.419 . S
C717 C718 1.363 1_455 S
C717 H720 0.929 1_455 S
C718 C717 1.363 1_655 S
C718 C724 1.428 1_655 S
H719 C715 0.930 . S
H720 C717 0.929 1_655 S
S721 N722 1.613 . S
S721 N723 1.610 . S
N722 S721 1.613 . S
N722 C725 1.350 . S
N723 S721 1.610 . S
N723 C724 1.351 . S
C724 C718 1.428 1_455 S
C724 N723 1.351 . S
C724 C725 1.434 . S
C725 C716 1.429 . S
C725 N722 1.350 . S
C725 C724 1.434 . S
C726 C727 1.369 . S
C726 C728 1.419 1_455 S
C726 H730 0.930 . S
C727 C726 1.369 . S
C727 C736 1.429 1_455 S
C728 C726 1.419 1_655 S
C728 C729 1.363 . S
C728 H731 0.926 1_655 S
C729 C728 1.363 . S
C729 C735 1.428 . S
H730 C726 0.930 . S
H731 C728 0.926 1_455 S
S732 N733 1.613 . S
S732 N734 1.610 . S
N733 S732 1.613 . S
N733 C736 1.350 . S
N734 S732 1.610 . S
N734 C735 1.351 . S
C735 C729 1.428 . S
C735 N734 1.351 . S
C735 C736 1.434 . S
C736 C727 1.429 1_655 S
C736 N733 1.350 . S
C736 C735 1.434 . S
C737 C738 1.369 . S
C737 C739 1.419 . S
C737 H741 0.930 . S
C738 C737 1.369 . S
C738 C747 1.429 . S
C739 C737 1.419 . S
C739 C740 1.363 . S
C739 H742 0.929 . S
C740 C739 1.363 . S
C740 C746 1.428 . S
H741 C737 0.930 . S
H742 C739 0.929 . S
S743 N744 1.613 . S
S743 N745 1.610 . S
N744 S743 1.613 . S
N744 C747 1.350 . S
N745 S743 1.610 . S
N745 C746 1.351 . S
C746 C740 1.428 . S
C746 N745 1.351 . S
C746 C747 1.434 . S
C747 C738 1.429 . S
C747 N744 1.350 . S
C747 C746 1.434 . S
C748 C749 1.369 1_545 S
C748 C750 1.419 . S
C748 H752 0.930 . S
C749 C748 1.369 1_565 S
C749 C758 1.429 . S
C750 C748 1.419 . S
C750 C751 1.363 . S
C750 H753 0.929 . S
C751 C750 1.363 . S
C751 C757 1.428 1_545 S
H752 C748 0.930 . S
H753 C750 0.929 . S
S754 N755 1.613 . S
S754 N756 1.610 . S
N755 S754 1.613 . S
N755 C758 1.350 . S
N756 S754 1.610 . S
N756 C757 1.351 . S
C757 C751 1.428 1_565 S
C757 N756 1.351 . S
C757 C758 1.434 . S
C758 C749 1.429 . S
C758 N755 1.350 . S
C758 C757 1.434 . S
C759 C760 1.369 . S
C759 C761 1.419 1_545 S
C759 H763 0.930 . S
C760 C759 1.369 . S
C760 C769 1.429 . S
C761 C759 1.419 1_565 S
C761 C762 1.363 . S
C761 H764 0.929 . S
C762 C761 1.363 . S
C762 C768 1.428 . S
H763 C759 0.930 . S
H764 C761 0.929 . S
S765 N766 1.613 1_565 S
S765 N767 1.610 . S
N766 S765 1.613 1_545 S
N766 C769 1.350 . S
N767 S765 1.610 . S
N767 C768 1.351 . S
C768 C762 1.428 . S
C768 N767 1.351 . S
C768 C769 1.434 1_565 S
C769 C760 1.429 . S
C769 N766 1.350 . S
C769 C768 1.434 1_545 S
C770 C771 1.369 . S
C770 C772 1.419 1_455 S
C770 H774 0.930 . S
C771 C770 1.369 . S
C771 C780 1.429 . S
C772 C770 1.419 1_655 S
C772 C773 1.363 . S
C772 H775 0.929 . S
C773 C772 1.363 . S
C773 C779 1.428 . S
H774 C770 0.930 . S
H775 C772 0.929 . S
S776 N777 1.613 . S
S776 N778 1.610 1_455 S
N777 S776 1.613 . S
N777 C780 1.350 . S
N778 S776 1.610 1_655 S
N778 C779 1.351 . S
C779 C773 1.428 . S
C779 N778 1.351 . S
C779 C780 1.434 1_655 S
C780 C771 1.429 . S
C780 N777 1.350 . S
C780 C779 1.434 1_455 S
C781 C782 1.369 . S
C781 C783 1.419 . S
C781 H785 0.930 . S
C782 C781 1.369 . S
C782 C791 1.429 . S
C783 C781 1.419 . S
C783 C784 1.363 . S
C783 H786 0.929 . S
C784 C783 1.363 . S
C784 C790 1.428 . S
H785 C781 0.930 . S
H786 C783 0.929 . S
S787 N788 1.613 . S
S787 N789 1.610 . S
N788 S787 1.613 . S
N788 C791 1.350 . S
N789 S787 1.610 . S
N789 C790 1.351 . S
C790 C784 1.428 . S
C790 N789 1.351 . S
C790 C791 1.434 . S
C791 C782 1.429 . S
C791 N788 1.350 . S
C791 C790 1.434 . S
C792 C793 1.369 . S
C792 C794 1.419 . S
C792 H796 0.930 . S
C793 C792 1.369 . S
C793 C802 1.429 . S
C794 C792 1.419 . S
C794 C795 1.363 . S
C794 H797 0.929 . S
C795 C794 1.363 . S
C795 C801 1.428 . S
H796 C792 0.930 . S
H797 C794 0.929 . S
S798 N799 1.613 . S
S798 N800 1.610 . S
N799 S798 1.613 . S
N799 C802 1.350 . S
N800 S798 1.610 . S
N800 C801 1.351 . S
C801 C795 1.428 . S
C801 N800 1.351 . S
C801 C802 1.434 . S
C802 C793 1.429 . S
C802 N799 1.350 . S
C802 C801 1.434 . S
C803 C804 1.369 . S
C803 C805 1.419 . S
C803 H807 0.930 . S
C804 C803 1.369 . S
C804 C813 1.429 . S
C805 C803 1.419 . S
C805 C806 1.363 . S
C805 H808 0.929 . S
C806 C805 1.363 . S
C806 C812 1.428 . S
H807 C803 0.930 . S
H808 C805 0.929 . S
S809 N810 1.613 . S
S809 N811 1.610 . S
N810 S809 1.613 . S
N810 C813 1.350 . S
N811 S809 1.610 . S
N811 C812 1.351 . S
C812 C806 1.428 . S
C812 N811 1.351 . S
C812 C813 1.434 . S
C813 C804 1.429 . S
C813 N810 1.350 . S
C813 C812 1.434 . S
C814 C815 1.369 . S
C814 C816 1.419 . S
C814 H818 0.930 . S
C815 C814 1.369 . S
C815 C824 1.429 . S
C816 C814 1.419 . S
C816 C817 1.363 . S
C816 H819 0.929 . S
C817 C816 1.363 . S
C817 C823 1.428 . S
H818 C814 0.930 . S
H819 C816 0.929 . S
S820 N821 1.613 . S
S820 N822 1.610 . S
N821 S820 1.613 . S
N821 C824 1.350 . S
N822 S820 1.610 . S
N822 C823 1.351 . S
C823 C817 1.428 . S
C823 N822 1.351 . S
C823 C824 1.434 . S
C824 C815 1.429 . S
C824 N821 1.350 . S
C824 C823 1.434 . S
C825 C826 1.369 . S
C825 C827 1.419 . S
C825 H829 0.930 . S
C826 C825 1.369 . S
C826 C835 1.429 . S
C827 C825 1.419 . S
C827 C828 1.363 . S
C827 H830 0.929 . S
C828 C827 1.363 . S
C828 C834 1.428 . S
H829 C825 0.930 . S
H830 C827 0.929 . S
S831 N832 1.613 . S
S831 N833 1.610 . S
N832 S831 1.613 . S
N832 C835 1.350 . S
N833 S831 1.610 . S
N833 C834 1.351 . S
C834 C828 1.428 . S
C834 N833 1.351 . S
C834 C835 1.434 . S
C835 C826 1.429 . S
C835 N832 1.350 . S
C835 C834 1.434 . S
C836 C837 1.369 . S
C836 C838 1.419 . S
C836 H840 0.930 . S
C837 C836 1.369 . S
C837 C846 1.429 . S
C838 C836 1.419 . S
C838 C839 1.363 . S
C838 H841 0.929 . S
C839 C838 1.363 . S
C839 C845 1.428 . S
H840 C836 0.930 . S
H841 C838 0.929 . S
S842 N843 1.613 . S
S842 N844 1.610 . S
N843 S842 1.613 . S
N843 C846 1.350 . S
N844 S842 1.610 . S
N844 C845 1.351 . S
C845 C839 1.428 . S
C845 N844 1.351 . S
C845 C846 1.434 . S
C846 C837 1.429 . S
C846 N843 1.350 . S
C846 C845 1.434 . S
C847 C848 1.369 . S
C847 C849 1.419 . S
C847 H851 0.930 . S
C848 C847 1.369 . S
C848 C857 1.429 . S
C849 C847 1.419 . S
C849 C850 1.363 . S
C849 H852 0.929 . S
C850 C849 1.363 . S
C850 C856 1.428 . S
H851 C847 0.930 . S
H852 C849 0.929 . S
S853 N854 1.613 . S
S853 N855 1.610 . S
N854 S853 1.613 . S
N854 C857 1.350 . S
N855 S853 1.610 . S
N855 C856 1.351 . S
C856 C850 1.428 . S
C856 N855 1.351 . S
C856 C857 1.434 . S
C857 C848 1.429 . S
C857 N854 1.350 . S
C857 C856 1.434 . S
C858 C859 1.369 1_455 S
C858 C860 1.419 1_554 S
C858 H862 0.930 . S
C859 C858 1.369 1_655 S
C859 C868 1.429 . S
C860 C858 1.419 1_556 S
C860 C861 1.363 1_455 S
C860 H863 0.929 . S
C861 C860 1.363 1_655 S
C861 C867 1.428 . S
H862 C858 0.930 . S
H863 C860 0.929 . S
S864 N865 1.597 1_556 S
S864 N866 1.626 . S
N865 S864 1.597 1_554 S
N865 C868 1.350 . S
N866 S864 1.626 . S
N866 C867 1.351 . S
C867 C861 1.428 . S
C867 N866 1.351 . S
C867 C868 1.434 1_556 S
C868 C859 1.429 . S
C868 N865 1.350 . S
C868 C867 1.434 1_554 S
C869 C870 1.369 . S
C869 C871 1.419 1_554 S
C869 H873 0.930 . S
C870 C869 1.369 . S
C870 C879 1.429 . S
C871 C869 1.419 1_556 S
C871 C872 1.363 . S
C871 H874 0.929 . S
C872 C871 1.363 . S
C872 C878 1.428 . S
H873 C869 0.930 . S
H874 C871 0.929 . S
S875 N876 1.600 1_556 S
S875 N877 1.623 . S
N876 S875 1.600 1_554 S
N876 C879 1.350 . S
N877 S875 1.623 . S
N877 C878 1.351 . S
C878 C872 1.428 . S
C878 N877 1.351 . S
C878 C879 1.434 1_556 S
C879 C870 1.429 . S
C879 N876 1.350 . S
C879 C878 1.434 1_554 S
C880 C881 1.369 1_545 S
C880 C882 1.419 1_554 S
C880 H884 0.930 . S
C881 C880 1.369 1_565 S
C881 C890 1.429 . S
C882 C880 1.419 1_556 S
C882 C883 1.363 1_545 S
C882 H885 0.929 . S
C883 C882 1.363 1_565 S
C883 C889 1.428 . S
H884 C880 0.930 . S
H885 C882 0.929 . S
S886 N887 1.626 . S
S886 N888 1.597 1_554 S
N887 S886 1.626 . S
N887 C890 1.350 . S
N888 S886 1.597 1_556 S
N888 C889 1.351 . S
C889 C883 1.428 . S
C889 N888 1.351 . S
C889 C890 1.434 1_556 S
C890 C881 1.429 . S
C890 N887 1.350 . S
C890 C889 1.434 1_554 S
C891 C892 1.369 . S
C891 C893 1.419 . S
C891 H895 0.930 . S
C892 C891 1.369 . S
C892 C901 1.429 . S
C893 C891 1.419 . S
C893 C894 1.363 . S
C893 H896 0.929 . S
C894 C893 1.363 . S
C894 C900 1.428 . S
H895 C891 0.930 . S
H896 C893 0.929 . S
S897 N898 1.613 . S
S897 N899 1.610 . S
N898 S897 1.613 . S
N898 C901 1.350 . S
N899 S897 1.610 . S
N899 C900 1.351 . S
C900 C894 1.428 . S
C900 N899 1.351 . S
C900 C901 1.434 . S
C901 C892 1.429 . S
C901 N898 1.350 . S
C901 C900 1.434 . S
C902 C903 1.369 1_545 S
C902 C904 1.419 . S
C902 H906 0.930 . S
C903 C902 1.369 1_565 S
C903 C912 1.429 1_565 S
C904 C902 1.419 . S
C904 C905 1.363 . S
C904 H907 0.929 . S
C905 C904 1.363 . S
C905 C911 1.428 . S
H906 C902 0.930 . S
H907 C904 0.929 . S
S908 N909 1.613 . S
S908 N910 1.610 1_565 S
N909 S908 1.613 . S
N909 C912 1.351 1_565 S
N910 S908 1.610 1_545 S
N910 C911 1.351 . S
C911 C905 1.428 . S
C911 N910 1.351 . S
C911 C912 1.433 . S
C912 C903 1.429 1_545 S
C912 N909 1.351 1_545 S
C912 C911 1.433 . S
C913 C914 1.369 . S
C913 C915 1.419 . S
C913 H917 0.930 . S
C914 C913 1.369 . S
C914 C923 1.429 . S
C915 C913 1.419 . S
C915 C916 1.363 1_655 S
C915 H918 0.929 1_655 S
C916 C915 1.363 1_455 S
C916 C922 1.428 1_455 S
H917 C913 0.930 . S
H918 C915 0.929 1_455 S
S919 N920 1.613 . S
S919 N921 1.610 . S
N920 S919 1.613 . S
N920 C923 1.350 . S
N921 S919 1.610 . S
N921 C922 1.351 . S
C922 C916 1.428 1_655 S
C922 N921 1.351 . S
C922 C923 1.434 . S
C923 C914 1.429 . S
C923 N920 1.350 . S
C923 C922 1.434 . S
C924 C925 1.369 . S
C924 C926 1.419 . S
C924 H928 0.930 . S
C925 C924 1.369 . S
C925 C934 1.429 . S
C926 C924 1.419 . S
C926 C927 1.363 . S
C926 H929 0.929 . S
C927 C926 1.363 . S
C927 C933 1.428 . S
H928 C924 0.930 . S
H929 C926 0.929 . S
S930 N931 1.613 . S
S930 N932 1.610 . S
N931 S930 1.613 . S
N931 C934 1.350 . S
N932 S930 1.610 . S
N932 C933 1.351 . S
C933 C927 1.428 . S
C933 N932 1.351 . S
C933 C934 1.434 . S
C934 C925 1.429 . S
C934 N931 1.350 . S
C934 C933 1.434 . S
C935 C936 1.369 1_565 S
C935 C937 1.419 . S
C935 H939 0.930 . S
C936 C935 1.369 1_545 S
C936 C945 1.429 1_545 S
C937 C935 1.419 . S
C937 C938 1.363 . S
C937 H940 0.929 . S
C938 C937 1.363 . S
C938 C944 1.428 . S
H939 C935 0.930 . S
H940 C937 0.929 . S
S941 N942 1.613 1_565 S
S941 N943 1.610 . S
N942 S941 1.613 1_545 S
N942 C945 1.350 1_545 S
N943 S941 1.610 . S
N943 C944 1.351 . S
C944 C938 1.428 . S
C944 N943 1.351 . S
C944 C945 1.434 . S
C945 C936 1.429 1_565 S
C945 N942 1.350 1_565 S
C945 C944 1.434 . S
C946 C947 1.369 . S
C946 C948 1.419 . S
C946 H950 0.930 . S
C947 C946 1.369 . S
C947 C956 1.429 . S
C948 C946 1.419 . S
C948 C949 1.363 1_455 S
C948 H951 0.929 1_455 S
C949 C948 1.363 1_655 S
C949 C955 1.428 1_655 S
H950 C946 0.930 . S
H951 C948 0.929 1_655 S
S952 N953 1.613 . S
S952 N954 1.610 . S
N953 S952 1.613 . S
N953 C956 1.350 . S
N954 S952 1.610 . S
N954 C955 1.351 . S
C955 C949 1.428 1_455 S
C955 N954 1.351 . S
C955 C956 1.434 . S
C956 C947 1.429 . S
C956 N953 1.350 . S
C956 C955 1.434 . S
C957 C958 1.369 . S
C957 C959 1.419 . S
C957 H961 0.930 . S
C958 C957 1.369 . S
C958 C967 1.429 . S
C959 C957 1.419 . S
C959 C960 1.363 . S
C959 H962 0.929 . S
C960 C959 1.363 . S
C960 C966 1.428 . S
H961 C957 0.930 . S
H962 C959 0.929 . S
S963 N964 1.613 . S
S963 N965 1.610 . S
N964 S963 1.613 . S
N964 C967 1.350 . S
N965 S963 1.610 . S
N965 C966 1.351 . S
C966 C960 1.428 . S
C966 N965 1.351 . S
C966 C967 1.434 . S
C967 C958 1.429 . S
C967 N964 1.350 . S
C967 C966 1.434 . S
C968 C969 1.369 . S
C968 C970 1.419 . S
C968 H972 0.930 . S
C969 C968 1.369 . S
C969 C978 1.429 . S
C970 C968 1.419 . S
C970 C971 1.363 . S
C970 H973 0.929 . S
C971 C970 1.363 . S
C971 C977 1.428 . S
H972 C968 0.930 . S
H973 C970 0.929 . S
S974 N975 1.613 . S
S974 N976 1.610 . S
N975 S974 1.613 . S
N975 C978 1.350 . S
N976 S974 1.610 . S
N976 C977 1.351 . S
C977 C971 1.428 . S
C977 N976 1.351 . S
C977 C978 1.434 . S
C978 C969 1.429 . S
C978 N975 1.350 . S
C978 C977 1.434 . S
C979 C980 1.369 . S
C979 C981 1.419 . S
C979 H983 0.930 . S
C980 C979 1.369 . S
C980 C989 1.429 . S
C981 C979 1.419 . S
C981 C982 1.363 . S
C981 H984 0.929 . S
C982 C981 1.363 . S
C982 C988 1.428 . S
H983 C979 0.930 . S
H984 C981 0.929 . S
S985 N986 1.613 . S
S985 N987 1.610 . S
N986 S985 1.613 . S
N986 C989 1.350 . S
N987 S985 1.610 . S
N987 C988 1.351 . S
C988 C982 1.428 . S
C988 N987 1.351 . S
C988 C989 1.434 . S
C989 C980 1.429 . S
C989 N986 1.350 . S
C989 C988 1.434 . S
C990 C991 1.369 . S
C990 C992 1.419 . S
C990 H994 0.930 . S
C991 C990 1.369 . S
C991 C1000 1.429 . S
C992 C990 1.419 . S
C992 C993 1.363 . S
C992 H995 0.929 . S
C993 C992 1.363 . S
C993 C999 1.428 . S
H994 C990 0.930 . S
H995 C992 0.929 . S
S996 N997 1.613 . S
S996 N998 1.610 . S
N997 S996 1.613 . S
N997 C1000 1.350 . S
N998 S996 1.610 . S
N998 C999 1.351 . S
C999 C993 1.428 . S
C999 N998 1.351 . S
C999 C1000 1.434 . S
C1000 C991 1.429 . S
C1000 N997 1.350 . S
C1000 C999 1.434 . S
C1001 C1002 1.369 . S
C1001 C1003 1.419 . S
C1001 H1005 0.930 . S
C1002 C1001 1.369 . S
C1002 C1011 1.429 . S
C1003 C1001 1.419 . S
C1003 C1004 1.363 . S
C1003 H1006 0.929 . S
C1004 C1003 1.363 . S
C1004 C1010 1.428 . S
H1005 C1001 0.930 . S
H1006 C1003 0.929 . S
S1007 N1008 1.613 . S
S1007 N1009 1.610 . S
N1008 S1007 1.613 . S
N1008 C1011 1.350 . S
N1009 S1007 1.610 . S
N1009 C1010 1.351 . S
C1010 C1004 1.428 . S
C1010 N1009 1.351 . S
C1010 C1011 1.434 . S
C1011 C1002 1.429 . S
C1011 N1008 1.350 . S
C1011 C1010 1.434 . S
C1012 C1013 1.369 . S
C1012 C1014 1.419 . S
C1012 H1016 0.930 . S
C1013 C1012 1.369 . S
C1013 C1022 1.429 . S
C1014 C1012 1.419 . S
C1014 C1015 1.363 . S
C1014 H1017 0.929 . S
C1015 C1014 1.363 . S
C1015 C1021 1.428 . S
H1016 C1012 0.930 . S
H1017 C1014 0.929 . S
S1018 N1019 1.613 . S
S1018 N1020 1.610 . S
N1019 S1018 1.613 . S
N1019 C1022 1.350 . S
N1020 S1018 1.610 . S
N1020 C1021 1.351 . S
C1021 C1015 1.428 . S
C1021 N1020 1.351 . S
C1021 C1022 1.434 . S
C1022 C1013 1.429 . S
C1022 N1019 1.350 . S
C1022 C1021 1.434 . S
C1023 C1024 1.369 . S
C1023 C1025 1.419 . S
C1023 H1027 0.930 . S
C1024 C1023 1.369 . S
C1024 C1033 1.429 . S
C1025 C1023 1.419 . S
C1025 C1026 1.363 . S
C1025 H1028 0.929 . S
C1026 C1025 1.363 . S
C1026 C1032 1.428 . S
H1027 C1023 0.930 . S
H1028 C1025 0.929 . S
S1029 N1030 1.613 . S
S1029 N1031 1.610 . S
N1030 S1029 1.613 . S
N1030 C1033 1.350 . S
N1031 S1029 1.610 . S
N1031 C1032 1.351 . S
C1032 C1026 1.428 . S
C1032 N1031 1.351 . S
C1032 C1033 1.434 . S
C1033 C1024 1.429 . S
C1033 N1030 1.350 . S
C1033 C1032 1.434 . S
C1034 C1035 1.369 . S
C1034 C1036 1.419 . S
C1034 H1038 0.930 . S
C1035 C1034 1.369 . S
C1035 C1044 1.429 . S
C1036 C1034 1.419 . S
C1036 C1037 1.363 . S
C1036 H1039 0.929 . S
C1037 C1036 1.363 . S
C1037 C1043 1.428 . S
H1038 C1034 0.930 . S
H1039 C1036 0.929 . S
S1040 N1041 1.613 . S
S1040 N1042 1.610 . S
N1041 S1040 1.613 . S
N1041 C1044 1.350 . S
N1042 S1040 1.610 . S
N1042 C1043 1.351 . S
C1043 C1037 1.428 . S
C1043 N1042 1.351 . S
C1043 C1044 1.434 . S
C1044 C1035 1.429 . S
C1044 N1041 1.350 . S
C1044 C1043 1.434 . S
C1045 C1046 1.369 . S
C1045 C1047 1.419 . S
C1045 H1049 0.930 . S
C1046 C1045 1.369 . S
C1046 C1055 1.429 . S
C1047 C1045 1.419 . S
C1047 C1048 1.363 . S
C1047 H1050 0.929 . S
C1048 C1047 1.363 . S
C1048 C1054 1.428 . S
H1049 C1045 0.930 . S
H1050 C1047 0.929 . S
S1051 N1052 1.613 . S
S1051 N1053 1.610 . S
N1052 S1051 1.613 . S
N1052 C1055 1.350 . S
N1053 S1051 1.610 . S
N1053 C1054 1.351 . S
C1054 C1048 1.428 . S
C1054 N1053 1.351 . S
C1054 C1055 1.434 . S
C1055 C1046 1.429 . S
C1055 N1052 1.350 . S
C1055 C1054 1.434 . S
C1056 C1057 1.369 . S
C1056 C1058 1.419 . S
C1056 H1060 0.930 . S
C1057 C1056 1.369 . S
C1057 C1066 1.429 . S
C1058 C1056 1.419 . S
C1058 C1059 1.363 . S
C1058 H1061 0.929 . S
C1059 C1058 1.363 . S
C1059 C1065 1.428 . S
H1060 C1056 0.930 . S
H1061 C1058 0.929 . S
S1062 N1063 1.613 . S
S1062 N1064 1.610 . S
N1063 S1062 1.613 . S
N1063 C1066 1.350 . S
N1064 S1062 1.610 . S
N1064 C1065 1.351 . S
C1065 C1059 1.428 . S
C1065 N1064 1.351 . S
C1065 C1066 1.434 . S
C1066 C1057 1.429 . S
C1066 N1063 1.350 . S
C1066 C1065 1.434 . S
C1067 C1068 1.369 . S
C1067 C1069 1.419 . S
C1067 H1071 0.930 . S
C1068 C1067 1.369 . S
C1068 C1077 1.429 . S
C1069 C1067 1.419 . S
C1069 C1070 1.363 . S
C1069 H1072 0.929 . S
C1070 C1069 1.363 . S
C1070 C1076 1.428 . S
H1071 C1067 0.930 . S
H1072 C1069 0.929 . S
S1073 N1074 1.613 . S
S1073 N1075 1.610 . S
N1074 S1073 1.613 . S
N1074 C1077 1.350 . S
N1075 S1073 1.610 . S
N1075 C1076 1.351 . S
C1076 C1070 1.428 . S
C1076 N1075 1.351 . S
C1076 C1077 1.434 . S
C1077 C1068 1.429 . S
C1077 N1074 1.350 . S
C1077 C1076 1.434 . S
C1078 C1079 1.369 . S
C1078 C1080 1.419 . S
C1078 H1082 0.930 . S
C1079 C1078 1.369 . S
C1079 C1088 1.429 . S
C1080 C1078 1.419 . S
C1080 C1081 1.363 . S
C1080 H1083 0.929 . S
C1081 C1080 1.363 . S
C1081 C1087 1.428 . S
H1082 C1078 0.930 . S
H1083 C1080 0.929 . S
S1084 N1085 1.613 . S
S1084 N1086 1.610 . S
N1085 S1084 1.613 . S
N1085 C1088 1.350 . S
N1086 S1084 1.610 . S
N1086 C1087 1.351 . S
C1087 C1081 1.428 . S
C1087 N1086 1.351 . S
C1087 C1088 1.434 . S
C1088 C1079 1.429 . S
C1088 N1085 1.350 . S
C1088 C1087 1.434 . S
C595 N335 1.718 . S
C597 N5 1.719 . S
C606 N38 1.721 . S
C608 N368 1.719 . S
C617 N302 1.727 . S
C619 N71 1.722 . S
C628 N467 1.719 . S
C630 N104 1.719 . S
C639 N137 1.729 . S
C641 N401 1.724 . S
C650 N434 1.728 . S
C652 N170 1.723 . S
C661 C193 1.814 . S
C663 C490 1.814 . S
C672 C424 1.818 . S
C674 C127 1.813 . S
C683 C457 1.818 . S
C685 C160 1.813 . S
C694 C61 1.817 . S
C696 C358 1.814 . S
C705 C94 1.812 . S
C707 C391 1.818 . S
C716 C28 1.818 . S
C718 C325 1.813 . S
C727 N533 1.729 . S
C729 N203 1.726 . S
C738 N566 1.724 . S
C740 N236 1.727 . S
C749 N500 1.721 . S
C751 N269 1.725 . S
C760 C259 1.812 . S
C762 C556 1.816 . S
C771 C589 1.816 . S
C773 C292 1.815 . S
C782 C226 1.816 . S
C784 C523 1.815 . S
C793 C17 1.405 . S
C795 C578 1.410 . S
C804 C50 1.405 . S
C806 C512 1.409 . S
C815 C83 1.410 . S
C817 C545 1.406 . S
C826 C248 1.411 . S
C828 C116 1.407 . S
C837 C149 1.410 . S
C839 C281 1.407 . S
C848 C182 1.406 . S
C850 C215 1.410 . S
C859 C314 1.406 . S
C861 C446 1.410 1_655 S
C870 C347 1.407 . S
C872 C479 1.410 . S
C881 C380 1.411 1_565 S
C883 C413 1.406 . S
C892 N80 1.630 . S
C894 C8 1.603 . S
C903 C41 1.596 . S
C905 N14 1.636 . S
C914 N47 1.631 . S
C916 C74 1.603 . S
C925 N146 1.632 . S
C927 C107 1.602 . S
C936 C140 1.598 . S
C938 N179 1.635 . S
C947 N113 1.636 . S
C949 C173 1.597 . S
C958 C206 1.597 . S
C960 N278 1.635 . S
C969 N212 1.632 . S
C971 C239 1.601 . S
C980 C272 1.604 . S
C982 N245 1.631 . S
C991 C305 1.602 . S
C993 N344 1.633 . S
C1002 N377 1.630 . S
C1004 C338 1.604 . S
C1013 C371 1.600 . S
C1015 N311 1.633 . S
C1024 C404 1.600 . S
C1026 N476 1.633 . S
C1035 N410 1.632 . S
C1037 C437 1.601 . S
C1046 C470 1.595 . S
C1048 N443 1.636 . S
C1057 C503 1.601 . S
C1059 N542 1.633 . S
C1068 N575 1.631 . S
C1070 C536 1.603 . S
C1079 N509 1.631 . S
C1081 C569 1.602 . S
