# Generated by pormake.
# Topology vbm, (6)-cn, num edge types: 1
# Building blocks:
#     Node 0, Type 0, BuildingBlock: BETDEL_clean_sbu_0, # of connection points: 6
#     Node 1, Type 0, BuildingBlock: BETDEL_clean_sbu_0, # of connection points: 6
#     Node 2, Type 0, BuildingBlock: BETDEL_clean_sbu_0, # of connection points: 6
#     Node 3, Type 0, BuildingBlock: BETDEL_clean_sbu_0, # of connection points: 6
#     Node 4, Type 0, BuildingBlock: BETDEL_clean_sbu_0, # of connection points: 6
#     Node 5, Type 0, BuildingBlock: BETDEL_clean_sbu_0, # of connection points: 6
#     Node 6, Type 0, BuildingBlock: BETDEL_clean_sbu_0, # of connection points: 6
#     Node 7, Type 0, BuildingBlock: BETDEL_clean_sbu_0, # of connection points: 6
#     Node 8, Type 0, BuildingBlock: BETDEL_clean_sbu_0, # of connection points: 6
#     Node 9, Type 0, BuildingBlock: BETDEL_clean_sbu_0, # of connection points: 6
#     Node 10, Type 0, BuildingBlock: BETDEL_clean_sbu_0, # of connection points: 6
#     Node 11, Type 0, BuildingBlock: BETDEL_clean_sbu_0, # of connection points: 6
#     Node 12, Type 0, BuildingBlock: BETDEL_clean_sbu_0, # of connection points: 6
#     Node 13, Type 0, BuildingBlock: BETDEL_clean_sbu_0, # of connection points: 6
#     Node 14, Type 0, BuildingBlock: BETDEL_clean_sbu_0, # of connection points: 6
#     Node 15, Type 0, BuildingBlock: BETDEL_clean_sbu_0, # of connection points: 6
#     Edge 16, Type (0, 0), None
#     Edge 17, Type (0, 0), None
#     Edge 18, Type (0, 0), None
#     Edge 19, Type (0, 0), None
#     Edge 20, Type (0, 0), None
#     Edge 21, Type (0, 0), None
#     Edge 22, Type (0, 0), None
#     Edge 23, Type (0, 0), None
#     Edge 24, Type (0, 0), None
#     Edge 25, Type (0, 0), None
#     Edge 26, Type (0, 0), None
#     Edge 27, Type (0, 0), None
#     Edge 28, Type (0, 0), None
#     Edge 29, Type (0, 0), None
#     Edge 30, Type (0, 0), None
#     Edge 31, Type (0, 0), None
#     Edge 32, Type (0, 0), None
#     Edge 33, Type (0, 0), None
#     Edge 34, Type (0, 0), None
#     Edge 35, Type (0, 0), None
#     Edge 36, Type (0, 0), None
#     Edge 37, Type (0, 0), None
#     Edge 38, Type (0, 0), None
#     Edge 39, Type (0, 0), None
#     Edge 40, Type (0, 0), None
#     Edge 41, Type (0, 0), None
#     Edge 42, Type (0, 0), None
#     Edge 43, Type (0, 0), None
#     Edge 44, Type (0, 0), None
#     Edge 45, Type (0, 0), None
#     Edge 46, Type (0, 0), None
#     Edge 47, Type (0, 0), None
#     Edge 48, Type (0, 0), None
#     Edge 49, Type (0, 0), None
#     Edge 50, Type (0, 0), None
#     Edge 51, Type (0, 0), None
#     Edge 52, Type (0, 0), None
#     Edge 53, Type (0, 0), None
#     Edge 54, Type (0, 0), None
#     Edge 55, Type (0, 0), None
#     Edge 56, Type (0, 0), None
#     Edge 57, Type (0, 0), None
#     Edge 58, Type (0, 0), None
#     Edge 59, Type (0, 0), None
#     Edge 60, Type (0, 0), None
#     Edge 61, Type (0, 0), None
#     Edge 62, Type (0, 0), None
#     Edge 63, Type (0, 0), None
# Relax obj value: 0.058
# Max RMSD: 0.122
# Mean RMSD: 0.122
data_MOF--net-vbm--node1-BETDEL_clean_sbu_0--edge1-none
_symmetry_space_group_name_H-M    P1
_symmetry_Int_Tables_number       1
_symmetry_cell_setting            triclinic
loop_
_symmetry_equiv_pos_as_xyz
'x, y, z'
_cell_length_a     26.886694
_cell_length_b     9.1546506
_cell_length_c     24.239391
_cell_angle_alpha  89.994397
_cell_angle_beta   89.997831
_cell_angle_gamma 90.002131
loop_
_atom_site_label
_atom_site_type_symbol
_atom_site_fract_x
_atom_site_fract_y
_atom_site_fract_z
_atom_type_partial_charge
Dy0 Dy 0.11275 1.02974 0.14372 0.0
C1 C 0.08515 0.59953 0.15255 0.0
C2 C 0.09986 0.73771 0.15222 0.0
Dy3 Dy 0.07415 0.30708 0.15966 0.0
O4 O 0.12324 0.80105 0.11169 0.0
O5 O 0.09076 0.82965 0.19127 0.0
O6 O 0.15699 0.09446 0.07271 0.0
O7 O 0.08415 0.18217 0.08101 0.0
C8 C 0.123 0.17651 0.05046 0.0
C9 C 0.07051 0.12623 0.24891 0.0
O10 O 0.00064 0.23733 0.12895 0.0
O11 O 0.02921 1.00118 0.133 0.0
O12 O 0.06249 0.53412 0.19336 0.0
O13 O 0.09505 0.50861 0.11322 0.0
O14 O 0.03377 0.21055 0.2346 0.0
O15 O 0.10675 0.15011 0.21778 0.0
O16 O 0.18601 0.13678 0.17024 0.0
O17 O 0.15374 0.36831 0.16736 0.0
C18 C -0.0075 0.09555 0.12623 0.0
C19 C 0.19191 0.28204 0.17218 0.0
Dy20 Dy 0.82091 0.10533 0.14372 0.0
C21 C 0.84852 0.53553 0.15255 0.0
C22 C 0.8338 0.39735 0.15223 0.0
Dy23 Dy 0.85952 0.82797 0.15967 0.0
O24 O 0.81044 0.33403 0.11168 0.0
O25 O 0.84289 0.30539 0.19128 0.0
O26 O 0.77668 1.04063 0.07272 0.0
O27 O 0.84951 0.95289 0.08102 0.0
C28 C 0.81067 0.95856 0.05048 0.0
C29 C 0.86316 1.0088 0.24892 0.0
O30 O 0.93303 0.89774 0.12896 0.0
O31 O 0.90446 0.13389 0.13299 0.0
O32 O 0.87117 0.60092 0.19337 0.0
O33 O 0.83863 0.62647 0.11323 0.0
O34 O 0.89989 0.92448 0.23461 0.0
O35 O 0.82691 0.98493 0.21779 0.0
O36 O 0.74766 0.99828 0.17024 0.0
O37 O 0.77993 0.76674 0.16738 0.0
C38 C 0.94116 1.03951 0.12622 0.0
C39 C 0.74176 0.85301 0.17219 0.0
Dy40 Dy 0.11276 0.1053 0.39674 0.0
C41 C 0.08515 0.5355 0.38791 0.0
C42 C 0.09986 0.39732 0.38824 0.0
Dy43 Dy 0.07415 0.82794 0.38079 0.0
O44 O 0.12324 0.33399 0.42877 0.0
O45 O 0.09077 0.30539 0.34919 0.0
O46 O 0.15699 1.04055 0.46774 0.0
O47 O 0.08415 0.95285 0.45944 0.0
C48 C 0.12299 0.9585 0.48999 0.0
C49 C 0.0705 1.00885 0.29156 0.0
O50 O 0.00064 0.89771 0.4115 0.0
O51 O 0.02921 0.13386 0.40746 0.0
O52 O 0.06249 0.6009 0.3471 0.0
O53 O 0.09505 0.62643 0.42723 0.0
O54 O 0.03378 0.92445 0.30584 0.0
O55 O 0.10675 0.98494 0.32268 0.0
O56 O 0.18601 0.99826 0.37021 0.0
O57 O 0.15373 0.76673 0.37307 0.0
C58 C -0.0075 1.03948 0.41422 0.0
C59 C 0.19191 0.853 0.36826 0.0
Dy60 Dy 0.82091 1.0297 0.39675 0.0
C61 C 0.84852 0.59951 0.38791 0.0
C62 C 0.8338 0.73769 0.38824 0.0
Dy63 Dy 0.85952 0.30708 0.38078 0.0
O64 O 0.81042 0.80099 0.42878 0.0
O65 O 0.8429 0.82965 0.34919 0.0
O66 O 0.77667 0.09443 0.46775 0.0
O67 O 0.84951 0.18216 0.45944 0.0
C68 C 0.81067 0.17651 0.48998 0.0
C69 C 0.86316 0.12618 0.29155 0.0
O70 O 0.93303 0.2373 0.41148 0.0
O71 O 0.90446 1.00114 0.40748 0.0
O72 O 0.87118 0.53414 0.34709 0.0
O73 O 0.83861 0.50855 0.42722 0.0
O74 O 0.89989 0.21058 0.30583 0.0
O75 O 0.82692 0.15008 0.32268 0.0
O76 O 0.74765 0.13676 0.37023 0.0
O77 O 0.77993 0.36829 0.37305 0.0
C78 C 0.94116 0.09553 0.41423 0.0
C79 C 0.74176 0.28202 0.36826 0.0
Dy80 Dy 0.8596 0.82776 0.88065 0.0
C81 C 0.83362 0.3978 0.88824 0.0
C82 C 0.84855 0.53568 0.88783 0.0
Dy83 Dy 0.82072 0.10614 0.89666 0.0
O84 O 0.87062 0.60103 0.84662 0.0
O85 O 0.8394 0.62636 0.92746 0.0
O86 O 0.89991 0.92375 0.80559 0.0
O87 O 0.82707 0.98546 0.8228 0.0
C88 C 0.86328 1.00875 0.79153 0.0
C89 C 0.8106 0.9584 0.98959 0.0
O90 O 0.74756 0.99844 0.87015 0.0
O91 O 0.77995 0.76692 0.87309 0.0
O92 O 0.8109 0.33439 0.9292 0.0
O93 O 0.84189 0.30629 0.84881 0.0
O94 O 0.77643 1.04008 0.96747 0.0
O95 O 0.84946 0.95362 0.95904 0.0
O96 O 0.93307 0.8977 0.91126 0.0
O97 O 0.9044 0.1339 0.90718 0.0
C98 C 0.74174 0.85311 0.86824 0.0
C99 C 0.94115 1.03949 0.91391 0.0
Dy100 Dy 0.07405 0.30727 0.88064 0.0
C101 C 0.10003 0.73721 0.88823 0.0
C102 C 0.0851 0.59934 0.88782 0.0
Dy103 Dy 0.11293 1.02887 0.89666 0.0
O104 O 0.06305 0.53402 0.8466 0.0
O105 O 0.09423 0.50864 0.92746 0.0
O106 O 0.03374 0.2113 0.80559 0.0
O107 O 0.10658 0.14957 0.82279 0.0
C108 C 0.07037 0.12629 0.79153 0.0
C109 C 0.12305 0.17661 0.98958 0.0
O110 O 0.1861 0.13658 0.87015 0.0
O111 O 0.15371 0.3681 0.87307 0.0
O112 O 0.12273 0.80061 0.92921 0.0
O113 O 0.09179 0.82874 0.8488 0.0
O114 O 0.15722 0.0949 0.96747 0.0
O115 O 0.08419 0.18139 0.95903 0.0
O116 O 0.00058 0.23732 0.91125 0.0
O117 O 0.02925 1.00111 0.90718 0.0
C118 C 0.19191 0.28191 0.86823 0.0
C119 C -0.00749 0.09552 0.91392 0.0
Dy120 Dy 0.8596 0.30729 0.65981 0.0
C121 C 0.83362 0.73724 0.65221 0.0
C122 C 0.84855 0.59937 0.65262 0.0
Dy123 Dy 0.82071 1.0289 0.64379 0.0
O124 O 0.87062 0.53404 0.69383 0.0
O125 O 0.83939 0.50868 0.61299 0.0
O126 O 0.89991 0.21133 0.73488 0.0
O127 O 0.82707 0.14956 0.71765 0.0
C128 C 0.86328 0.12625 0.74891 0.0
C129 C 0.8106 0.17667 0.55087 0.0
O130 O 0.74755 0.1366 0.67031 0.0
O131 O 0.77995 0.36812 0.66739 0.0
O132 O 0.8109 0.80064 0.61125 0.0
O133 O 0.84188 0.82876 0.69164 0.0
O134 O 0.77643 0.09498 0.57299 0.0
O135 O 0.84946 0.18144 0.58142 0.0
O136 O 0.93307 0.23735 0.62921 0.0
O137 O 0.9044 1.00115 0.63327 0.0
C138 C 0.74174 0.28193 0.67223 0.0
C139 C 0.94115 0.09555 0.62654 0.0
Dy140 Dy 0.07405 0.82777 0.65982 0.0
C141 C 0.10003 0.39783 0.65221 0.0
C142 C 0.0851 0.5357 0.65263 0.0
Dy143 Dy 0.11294 0.10618 0.64379 0.0
O144 O 0.06302 0.601 0.69383 0.0
O145 O 0.09426 0.62642 0.613 0.0
O146 O 0.03374 0.92372 0.73489 0.0
O147 O 0.10657 0.9855 0.71766 0.0
C148 C 0.07037 1.0088 0.74892 0.0
C149 C 0.12305 0.9584 0.55087 0.0
O150 O 0.1861 0.99846 0.6703 0.0
O151 O 0.1537 0.76694 0.66741 0.0
O152 O 0.12276 0.33445 0.61125 0.0
O153 O 0.09176 0.30628 0.69164 0.0
O154 O 0.15722 1.04012 0.57298 0.0
O155 O 0.08419 0.95363 0.58142 0.0
O156 O 0.00058 0.89772 0.62922 0.0
O157 O 0.02925 0.13393 0.63325 0.0
C158 C 0.19191 0.85313 0.67223 0.0
C159 C -0.00749 1.03952 0.62654 0.0
Dy160 Dy 0.61275 0.52974 0.14372 0.0
C161 C 0.58515 0.09953 0.15255 0.0
C162 C 0.59986 0.23771 0.15222 0.0
Dy163 Dy 0.57415 0.80708 0.15966 0.0
O164 O 0.62324 0.30105 0.11169 0.0
O165 O 0.59076 0.32965 0.19127 0.0
O166 O 0.65699 0.59446 0.07271 0.0
O167 O 0.58415 0.68217 0.08101 0.0
C168 C 0.623 0.67652 0.05047 0.0
C169 C 0.57051 0.62623 0.24891 0.0
O170 O 0.50064 0.73733 0.12895 0.0
O171 O 0.52921 0.50118 0.133 0.0
O172 O 0.56249 1.03412 0.19336 0.0
O173 O 0.59505 1.00861 0.11323 0.0
O174 O 0.53377 0.71055 0.2346 0.0
O175 O 0.60675 0.65011 0.21778 0.0
O176 O 0.68601 0.63678 0.17024 0.0
O177 O 0.65374 0.86831 0.16737 0.0
C178 C 0.4925 0.59555 0.12623 0.0
C179 C 0.69191 0.78204 0.17219 0.0
Dy180 Dy 0.32091 0.60533 0.14372 0.0
C181 C 0.34852 1.03553 0.15255 0.0
C182 C 0.3338 0.89735 0.15222 0.0
Dy183 Dy 0.35952 0.32796 0.15967 0.0
O184 O 0.31045 0.83403 0.11168 0.0
O185 O 0.34288 0.8054 0.19128 0.0
O186 O 0.27668 0.54063 0.07272 0.0
O187 O 0.34951 0.45289 0.08102 0.0
C188 C 0.31067 0.45855 0.05048 0.0
C189 C 0.36316 0.5088 0.24891 0.0
O190 O 0.43303 0.39774 0.12896 0.0
O191 O 0.40446 0.63389 0.13299 0.0
O192 O 0.37116 0.10092 0.19338 0.0
O193 O 0.33864 0.12646 0.11322 0.0
O194 O 0.39989 0.42448 0.23461 0.0
O195 O 0.32692 0.48493 0.21779 0.0
O196 O 0.24765 0.49828 0.17024 0.0
O197 O 0.27993 0.26674 0.16738 0.0
C198 C 0.44116 0.53951 0.12622 0.0
C199 C 0.24176 0.35301 0.17219 0.0
Dy200 Dy 0.61276 0.6053 0.39674 0.0
C201 C 0.58515 1.0355 0.38791 0.0
C202 C 0.59986 0.89732 0.38824 0.0
Dy203 Dy 0.57415 0.32794 0.38079 0.0
O204 O 0.62323 0.83399 0.42878 0.0
O205 O 0.59078 0.80539 0.34919 0.0
O206 O 0.65699 0.54055 0.46774 0.0
O207 O 0.58415 0.45284 0.45944 0.0
C208 C 0.62299 0.45849 0.48999 0.0
C209 C 0.5705 0.50885 0.29156 0.0
O210 O 0.50063 0.3977 0.4115 0.0
O211 O 0.52921 0.63385 0.40746 0.0
O212 O 0.56249 0.1009 0.3471 0.0
O213 O 0.59504 0.12643 0.42723 0.0
O214 O 0.53378 0.42445 0.30584 0.0
O215 O 0.60675 0.48494 0.32268 0.0
O216 O 0.68601 0.49826 0.37021 0.0
O217 O 0.65373 0.26672 0.37307 0.0
C218 C 0.4925 0.53948 0.41422 0.0
C219 C 0.69191 0.353 0.36826 0.0
Dy220 Dy 0.32091 0.5297 0.39674 0.0
C221 C 0.34852 0.09951 0.38791 0.0
C222 C 0.3338 0.23769 0.38824 0.0
Dy223 Dy 0.35952 0.80708 0.38078 0.0
O224 O 0.31042 0.301 0.42878 0.0
O225 O 0.3429 0.32965 0.34919 0.0
O226 O 0.27667 0.59443 0.46775 0.0
O227 O 0.34951 0.68217 0.45943 0.0
C228 C 0.31067 0.67652 0.48998 0.0
C229 C 0.36317 0.62618 0.29155 0.0
O230 O 0.43303 0.7373 0.41148 0.0
O231 O 0.40445 0.50114 0.40748 0.0
O232 O 0.37118 1.03415 0.34709 0.0
O233 O 0.33862 1.00855 0.42722 0.0
O234 O 0.39989 0.71058 0.30582 0.0
O235 O 0.32692 0.65008 0.32268 0.0
O236 O 0.24765 0.63676 0.37023 0.0
O237 O 0.27993 0.8683 0.37304 0.0
C238 C 0.44116 0.59553 0.41423 0.0
C239 C 0.24176 0.78202 0.36826 0.0
Dy240 Dy 0.3596 0.32776 0.88065 0.0
C241 C 0.33363 0.8978 0.88824 0.0
C242 C 0.34855 1.03568 0.88783 0.0
Dy243 Dy 0.32072 0.60614 0.89666 0.0
O244 O 0.37063 0.10102 0.84662 0.0
O245 O 0.33939 0.12636 0.92746 0.0
O246 O 0.39991 0.42375 0.80559 0.0
O247 O 0.32707 0.48546 0.8228 0.0
C248 C 0.36328 0.50875 0.79153 0.0
C249 C 0.3106 0.4584 0.98959 0.0
O250 O 0.24756 0.49844 0.87015 0.0
O251 O 0.27995 0.26692 0.87308 0.0
O252 O 0.3109 0.83439 0.9292 0.0
O253 O 0.34189 0.80629 0.84881 0.0
O254 O 0.27643 0.54008 0.96747 0.0
O255 O 0.34946 0.45362 0.95904 0.0
O256 O 0.43307 0.3977 0.91126 0.0
O257 O 0.4044 0.6339 0.90718 0.0
C258 C 0.24175 0.35312 0.86823 0.0
C259 C 0.44115 0.53949 0.91392 0.0
Dy260 Dy 0.57405 0.80727 0.88064 0.0
C261 C 0.60003 0.23721 0.88824 0.0
C262 C 0.5851 0.09934 0.88783 0.0
Dy263 Dy 0.61293 0.52887 0.89666 0.0
O264 O 0.56305 1.03402 0.84661 0.0
O265 O 0.59423 1.00864 0.92746 0.0
O266 O 0.53374 0.7113 0.80559 0.0
O267 O 0.60658 0.64957 0.82279 0.0
C268 C 0.57037 0.62629 0.79153 0.0
C269 C 0.62305 0.67661 0.98958 0.0
O270 O 0.6861 0.63658 0.87016 0.0
O271 O 0.6537 0.8681 0.87307 0.0
O272 O 0.62273 0.30061 0.92921 0.0
O273 O 0.59179 0.32874 0.8488 0.0
O274 O 0.65722 0.5949 0.96747 0.0
O275 O 0.58419 0.68139 0.95903 0.0
O276 O 0.50058 0.73732 0.91125 0.0
O277 O 0.52925 0.50111 0.90719 0.0
C278 C 0.69191 0.78191 0.86823 0.0
C279 C 0.49251 0.59552 0.91392 0.0
Dy280 Dy 0.3596 0.80729 0.65981 0.0
C281 C 0.33362 0.23724 0.65221 0.0
C282 C 0.34855 0.09937 0.65262 0.0
Dy283 Dy 0.32071 0.5289 0.64379 0.0
O284 O 0.37062 1.03404 0.69383 0.0
O285 O 0.33939 1.00867 0.61299 0.0
O286 O 0.39991 0.71133 0.73487 0.0
O287 O 0.32708 0.64956 0.71765 0.0
C288 C 0.36328 0.62625 0.74891 0.0
C289 C 0.3106 0.67667 0.55086 0.0
O290 O 0.24755 0.6366 0.67031 0.0
O291 O 0.27995 0.86812 0.66739 0.0
O292 O 0.3109 0.30064 0.61125 0.0
O293 O 0.34189 0.32876 0.69164 0.0
O294 O 0.27643 0.59498 0.57299 0.0
O295 O 0.34946 0.68144 0.58142 0.0
O296 O 0.43307 0.73735 0.6292 0.0
O297 O 0.4044 0.50115 0.63327 0.0
C298 C 0.24174 0.78193 0.67223 0.0
C299 C 0.44115 0.59555 0.62654 0.0
Dy300 Dy 0.57405 0.32777 0.65983 0.0
C301 C 0.60003 0.89783 0.65222 0.0
C302 C 0.5851 1.0357 0.65263 0.0
Dy303 Dy 0.61294 0.60618 0.64379 0.0
O304 O 0.56302 0.101 0.69383 0.0
O305 O 0.59426 0.12643 0.613 0.0
O306 O 0.53374 0.42372 0.73489 0.0
O307 O 0.60657 0.4855 0.71766 0.0
C308 C 0.57037 0.50881 0.74892 0.0
C309 C 0.62305 0.4584 0.55087 0.0
O310 O 0.6861 0.49847 0.67029 0.0
O311 O 0.6537 0.26694 0.66742 0.0
O312 O 0.62276 0.83445 0.61125 0.0
O313 O 0.59176 0.80628 0.69164 0.0
O314 O 0.65722 0.54012 0.57298 0.0
O315 O 0.58419 0.45363 0.58142 0.0
O316 O 0.50058 0.39772 0.62922 0.0
O317 O 0.52925 0.63393 0.63325 0.0
C318 C 0.69191 0.35314 0.67224 0.0
C319 C 0.49251 0.53952 0.62653 0.0
loop_
_geom_bond_atom_site_label_1
_geom_bond_atom_site_label_2
_geom_bond_distance
_geom_bond_site_symmetry_2
_ccdc_geom_bond_type
Dy0 O4 2.398 . S
Dy0 O5 2.491 . S
Dy0 O6 2.403 . S
Dy0 O7 2.664 1_565 S
Dy0 O11 2.326 . S
Dy0 O15 2.310 1_565 S
Dy0 O16 2.351 1_565 S
C1 O12 1.185 . S
C1 O13 1.355 . S
C2 O4 1.185 . S
C2 O5 1.355 . S
Dy3 O7 2.310 . S
Dy3 O10 2.351 . S
Dy3 O12 2.398 . S
Dy3 O13 2.491 . S
Dy3 O14 2.403 . S
Dy3 O15 2.664 . S
Dy3 O17 2.326 . S
O4 Dy0 2.398 . S
O4 C2 1.185 . S
O5 Dy0 2.491 . S
O5 C2 1.355 . S
O6 Dy0 2.403 . S
O6 C8 1.254 1_565 S
O7 Dy0 2.664 1_545 S
O7 Dy3 2.310 . S
O7 C8 1.268 . S
C8 O6 1.254 1_545 S
C8 O7 1.268 . S
C9 O14 1.254 . S
C9 O15 1.268 . S
O10 Dy3 2.351 . S
O10 C18 1.249 1_545 S
O11 Dy0 2.326 . S
O11 C18 1.267 . S
O12 C1 1.185 . S
O12 Dy3 2.398 . S
O13 C1 1.355 . S
O13 Dy3 2.491 . S
O14 Dy3 2.403 . S
O14 C9 1.254 . S
O15 Dy0 2.310 1_545 S
O15 Dy3 2.664 . S
O15 C9 1.268 . S
O16 Dy0 2.351 1_545 S
O16 C19 1.249 . S
O17 Dy3 2.326 . S
O17 C19 1.267 . S
C18 O10 1.249 1_565 S
C18 O11 1.267 . S
C19 O16 1.249 . S
C19 O17 1.267 . S
Dy20 O24 2.398 . S
Dy20 O25 2.491 . S
Dy20 O26 2.403 . S
Dy20 O27 2.664 1_545 S
Dy20 O31 2.326 . S
Dy20 O35 2.310 1_545 S
Dy20 O36 2.351 1_545 S
C21 O32 1.185 . S
C21 O33 1.355 . S
C22 O24 1.185 . S
C22 O25 1.355 . S
Dy23 O27 2.310 . S
Dy23 O30 2.351 . S
Dy23 O32 2.398 . S
Dy23 O33 2.491 . S
Dy23 O34 2.403 . S
Dy23 O35 2.664 . S
Dy23 O37 2.326 . S
O24 Dy20 2.398 . S
O24 C22 1.185 . S
O25 Dy20 2.491 . S
O25 C22 1.355 . S
O26 Dy20 2.403 . S
O26 C28 1.254 1_545 S
O27 Dy20 2.664 1_565 S
O27 Dy23 2.310 . S
O27 C28 1.268 . S
C28 O26 1.254 1_565 S
C28 O27 1.268 . S
C29 O34 1.254 . S
C29 O35 1.268 . S
O30 Dy23 2.351 . S
O30 C38 1.249 1_565 S
O31 Dy20 2.326 . S
O31 C38 1.267 . S
O32 C21 1.185 . S
O32 Dy23 2.398 . S
O33 C21 1.355 . S
O33 Dy23 2.491 . S
O34 Dy23 2.403 . S
O34 C29 1.254 . S
O35 Dy20 2.310 1_565 S
O35 Dy23 2.664 . S
O35 C29 1.268 . S
O36 Dy20 2.351 1_565 S
O36 C39 1.249 . S
O37 Dy23 2.326 . S
O37 C39 1.267 . S
C38 O30 1.249 1_545 S
C38 O31 1.267 . S
C39 O36 1.249 . S
C39 O37 1.267 . S
Dy40 O44 2.398 . S
Dy40 O45 2.491 . S
Dy40 O46 2.403 . S
Dy40 O47 2.664 1_545 S
Dy40 O51 2.326 . S
Dy40 O55 2.310 1_545 S
Dy40 O56 2.351 1_545 S
C41 O52 1.185 . S
C41 O53 1.355 . S
C42 O44 1.185 . S
C42 O45 1.355 . S
Dy43 O47 2.310 . S
Dy43 O50 2.351 . S
Dy43 O52 2.398 . S
Dy43 O53 2.491 . S
Dy43 O54 2.403 . S
Dy43 O55 2.664 . S
Dy43 O57 2.326 . S
O44 Dy40 2.398 . S
O44 C42 1.185 . S
O45 Dy40 2.491 . S
O45 C42 1.355 . S
O46 Dy40 2.403 . S
O46 C48 1.254 1_545 S
O47 Dy40 2.664 1_565 S
O47 Dy43 2.310 . S
O47 C48 1.268 . S
C48 O46 1.254 1_565 S
C48 O47 1.268 . S
C49 O54 1.254 . S
C49 O55 1.268 . S
O50 Dy43 2.351 . S
O50 C58 1.249 1_565 S
O51 Dy40 2.326 . S
O51 C58 1.267 . S
O52 C41 1.185 . S
O52 Dy43 2.398 . S
O53 C41 1.355 . S
O53 Dy43 2.491 . S
O54 Dy43 2.403 . S
O54 C49 1.254 . S
O55 Dy40 2.310 1_565 S
O55 Dy43 2.664 . S
O55 C49 1.268 . S
O56 Dy40 2.351 1_565 S
O56 C59 1.249 . S
O57 Dy43 2.326 . S
O57 C59 1.267 . S
C58 O50 1.249 1_545 S
C58 O51 1.267 . S
C59 O56 1.249 . S
C59 O57 1.267 . S
Dy60 O64 2.398 . S
Dy60 O65 2.491 . S
Dy60 O66 2.403 . S
Dy60 O67 2.664 1_565 S
Dy60 O71 2.326 . S
Dy60 O75 2.310 1_565 S
Dy60 O76 2.351 1_565 S
C61 O72 1.185 . S
C61 O73 1.355 . S
C62 O64 1.185 . S
C62 O65 1.355 . S
Dy63 O67 2.310 . S
Dy63 O70 2.351 . S
Dy63 O72 2.398 . S
Dy63 O73 2.491 . S
Dy63 O74 2.403 . S
Dy63 O75 2.664 . S
Dy63 O77 2.326 . S
O64 Dy60 2.398 . S
O64 C62 1.185 . S
O65 Dy60 2.491 . S
O65 C62 1.355 . S
O66 Dy60 2.403 . S
O66 C68 1.254 1_565 S
O67 Dy60 2.664 1_545 S
O67 Dy63 2.310 . S
O67 C68 1.268 . S
C68 O66 1.254 1_545 S
C68 O67 1.268 . S
C69 O74 1.254 . S
C69 O75 1.268 . S
O70 Dy63 2.351 . S
O70 C78 1.249 1_545 S
O71 Dy60 2.326 . S
O71 C78 1.267 . S
O72 C61 1.185 . S
O72 Dy63 2.398 . S
O73 C61 1.355 . S
O73 Dy63 2.491 . S
O74 Dy63 2.403 . S
O74 C69 1.254 . S
O75 Dy60 2.310 1_545 S
O75 Dy63 2.664 . S
O75 C69 1.268 . S
O76 Dy60 2.351 1_545 S
O76 C79 1.249 . S
O77 Dy63 2.326 . S
O77 C79 1.267 . S
C78 O70 1.249 1_565 S
C78 O71 1.267 . S
C79 O76 1.249 . S
C79 O77 1.267 . S
Dy80 O84 2.398 . S
Dy80 O85 2.491 . S
Dy80 O86 2.403 . S
Dy80 O87 2.664 . S
Dy80 O91 2.326 . S
Dy80 O95 2.310 . S
Dy80 O96 2.351 . S
C81 O92 1.185 . S
C81 O93 1.355 . S
C82 O84 1.185 . S
C82 O85 1.355 . S
Dy83 O87 2.310 1_545 S
Dy83 O90 2.351 1_545 S
Dy83 O92 2.398 . S
Dy83 O93 2.491 . S
Dy83 O94 2.403 . S
Dy83 O95 2.664 1_545 S
Dy83 O97 2.326 . S
O84 Dy80 2.398 . S
O84 C82 1.185 . S
O85 Dy80 2.491 . S
O85 C82 1.355 . S
O86 Dy80 2.403 . S
O86 C88 1.254 . S
O87 Dy80 2.664 . S
O87 Dy83 2.310 1_565 S
O87 C88 1.268 . S
C88 O86 1.254 . S
C88 O87 1.268 . S
C89 O94 1.254 1_565 S
C89 O95 1.268 . S
O90 Dy83 2.351 1_565 S
O90 C98 1.249 . S
O91 Dy80 2.326 . S
O91 C98 1.267 . S
O92 C81 1.185 . S
O92 Dy83 2.398 . S
O93 C81 1.355 . S
O93 Dy83 2.491 . S
O94 Dy83 2.403 . S
O94 C89 1.254 1_545 S
O95 Dy80 2.310 . S
O95 Dy83 2.664 1_565 S
O95 C89 1.268 . S
O96 Dy80 2.351 . S
O96 C99 1.249 1_565 S
O97 Dy83 2.326 . S
O97 C99 1.267 . S
C98 O90 1.249 . S
C98 O91 1.267 . S
C99 O96 1.249 1_545 S
C99 O97 1.267 . S
Dy100 O104 2.398 . S
Dy100 O105 2.491 . S
Dy100 O106 2.403 . S
Dy100 O107 2.664 . S
Dy100 O111 2.326 . S
Dy100 O115 2.310 . S
Dy100 O116 2.351 . S
C101 O112 1.185 . S
C101 O113 1.355 . S
C102 O104 1.185 . S
C102 O105 1.355 . S
Dy103 O107 2.310 1_565 S
Dy103 O110 2.351 1_565 S
Dy103 O112 2.398 . S
Dy103 O113 2.491 . S
Dy103 O114 2.403 . S
Dy103 O115 2.664 1_565 S
Dy103 O117 2.326 . S
O104 Dy100 2.398 . S
O104 C102 1.185 . S
O105 Dy100 2.491 . S
O105 C102 1.355 . S
O106 Dy100 2.403 . S
O106 C108 1.254 . S
O107 Dy100 2.664 . S
O107 Dy103 2.310 1_545 S
O107 C108 1.268 . S
C108 O106 1.254 . S
C108 O107 1.268 . S
C109 O114 1.254 1_545 S
C109 O115 1.268 . S
O110 Dy103 2.351 1_545 S
O110 C118 1.249 . S
O111 Dy100 2.326 . S
O111 C118 1.267 . S
O112 C101 1.185 . S
O112 Dy103 2.398 . S
O113 C101 1.355 . S
O113 Dy103 2.491 . S
O114 Dy103 2.403 . S
O114 C109 1.254 1_565 S
O115 Dy100 2.310 . S
O115 Dy103 2.664 1_545 S
O115 C109 1.268 . S
O116 Dy100 2.351 . S
O116 C119 1.249 1_545 S
O117 Dy103 2.326 . S
O117 C119 1.267 . S
C118 O110 1.249 . S
C118 O111 1.267 . S
C119 O116 1.249 1_565 S
C119 O117 1.267 . S
Dy120 O124 2.398 . S
Dy120 O125 2.491 . S
Dy120 O126 2.403 . S
Dy120 O127 2.664 . S
Dy120 O131 2.326 . S
Dy120 O135 2.310 . S
Dy120 O136 2.351 . S
C121 O132 1.185 . S
C121 O133 1.355 . S
C122 O124 1.185 . S
C122 O125 1.355 . S
Dy123 O127 2.310 1_565 S
Dy123 O130 2.351 1_565 S
Dy123 O132 2.398 . S
Dy123 O133 2.491 . S
Dy123 O134 2.403 . S
Dy123 O135 2.664 1_565 S
Dy123 O137 2.326 . S
O124 Dy120 2.398 . S
O124 C122 1.185 . S
O125 Dy120 2.491 . S
O125 C122 1.355 . S
O126 Dy120 2.403 . S
O126 C128 1.254 . S
O127 Dy120 2.664 . S
O127 Dy123 2.310 1_545 S
O127 C128 1.268 . S
C128 O126 1.254 . S
C128 O127 1.268 . S
C129 O134 1.254 1_545 S
C129 O135 1.268 . S
O130 Dy123 2.351 1_545 S
O130 C138 1.249 . S
O131 Dy120 2.326 . S
O131 C138 1.267 . S
O132 C121 1.185 . S
O132 Dy123 2.398 . S
O133 C121 1.355 . S
O133 Dy123 2.491 . S
O134 Dy123 2.403 . S
O134 C129 1.254 1_565 S
O135 Dy120 2.310 . S
O135 Dy123 2.664 1_545 S
O135 C129 1.268 . S
O136 Dy120 2.351 . S
O136 C139 1.249 1_545 S
O137 Dy123 2.326 . S
O137 C139 1.267 . S
C138 O130 1.249 . S
C138 O131 1.267 . S
C139 O136 1.249 1_565 S
C139 O137 1.267 . S
Dy140 O144 2.398 . S
Dy140 O145 2.491 . S
Dy140 O146 2.403 . S
Dy140 O147 2.664 . S
Dy140 O151 2.326 . S
Dy140 O155 2.310 . S
Dy140 O156 2.351 . S
C141 O152 1.185 . S
C141 O153 1.355 . S
C142 O144 1.185 . S
C142 O145 1.355 . S
Dy143 O147 2.310 1_545 S
Dy143 O150 2.351 1_545 S
Dy143 O152 2.398 . S
Dy143 O153 2.491 . S
Dy143 O154 2.403 . S
Dy143 O155 2.664 1_545 S
Dy143 O157 2.326 . S
O144 Dy140 2.398 . S
O144 C142 1.185 . S
O145 Dy140 2.491 . S
O145 C142 1.355 . S
O146 Dy140 2.403 . S
O146 C148 1.254 . S
O147 Dy140 2.664 . S
O147 Dy143 2.310 1_565 S
O147 C148 1.268 . S
C148 O146 1.254 . S
C148 O147 1.268 . S
C149 O154 1.254 1_565 S
C149 O155 1.268 . S
O150 Dy143 2.351 1_565 S
O150 C158 1.249 . S
O151 Dy140 2.326 . S
O151 C158 1.267 . S
O152 C141 1.185 . S
O152 Dy143 2.398 . S
O153 C141 1.355 . S
O153 Dy143 2.491 . S
O154 Dy143 2.403 . S
O154 C149 1.254 1_545 S
O155 Dy140 2.310 . S
O155 Dy143 2.664 1_565 S
O155 C149 1.268 . S
O156 Dy140 2.351 . S
O156 C159 1.249 1_565 S
O157 Dy143 2.326 . S
O157 C159 1.267 . S
C158 O150 1.249 . S
C158 O151 1.267 . S
C159 O156 1.249 1_545 S
C159 O157 1.267 . S
Dy160 O164 2.398 . S
Dy160 O165 2.491 . S
Dy160 O166 2.403 . S
Dy160 O167 2.664 . S
Dy160 O171 2.326 . S
Dy160 O175 2.310 . S
Dy160 O176 2.351 . S
C161 O172 1.185 1_545 S
C161 O173 1.355 1_545 S
C162 O164 1.185 . S
C162 O165 1.355 . S
Dy163 O167 2.310 . S
Dy163 O170 2.351 . S
Dy163 O172 2.398 . S
Dy163 O173 2.491 . S
Dy163 O174 2.403 . S
Dy163 O175 2.664 . S
Dy163 O177 2.326 . S
O164 Dy160 2.398 . S
O164 C162 1.185 . S
O165 Dy160 2.491 . S
O165 C162 1.355 . S
O166 Dy160 2.403 . S
O166 C168 1.254 . S
O167 Dy160 2.664 . S
O167 Dy163 2.310 . S
O167 C168 1.268 . S
C168 O166 1.254 . S
C168 O167 1.268 . S
C169 O174 1.254 . S
C169 O175 1.268 . S
O170 Dy163 2.351 . S
O170 C178 1.249 . S
O171 Dy160 2.326 . S
O171 C178 1.267 . S
O172 C161 1.185 1_565 S
O172 Dy163 2.398 . S
O173 C161 1.355 1_565 S
O173 Dy163 2.491 . S
O174 Dy163 2.403 . S
O174 C169 1.254 . S
O175 Dy160 2.310 . S
O175 Dy163 2.664 . S
O175 C169 1.268 . S
O176 Dy160 2.351 . S
O176 C179 1.249 . S
O177 Dy163 2.326 . S
O177 C179 1.267 . S
C178 O170 1.249 . S
C178 O171 1.267 . S
C179 O176 1.249 . S
C179 O177 1.267 . S
Dy180 O184 2.398 . S
Dy180 O185 2.491 . S
Dy180 O186 2.403 . S
Dy180 O187 2.664 . S
Dy180 O191 2.326 . S
Dy180 O195 2.310 . S
Dy180 O196 2.351 . S
C181 O192 1.185 1_565 S
C181 O193 1.355 1_565 S
C182 O184 1.185 . S
C182 O185 1.355 . S
Dy183 O187 2.310 . S
Dy183 O190 2.351 . S
Dy183 O192 2.398 . S
Dy183 O193 2.491 . S
Dy183 O194 2.403 . S
Dy183 O195 2.664 . S
Dy183 O197 2.326 . S
O184 Dy180 2.398 . S
O184 C182 1.185 . S
O185 Dy180 2.491 . S
O185 C182 1.355 . S
O186 Dy180 2.403 . S
O186 C188 1.254 . S
O187 Dy180 2.664 . S
O187 Dy183 2.310 . S
O187 C188 1.268 . S
C188 O186 1.254 . S
C188 O187 1.268 . S
C189 O194 1.254 . S
C189 O195 1.268 . S
O190 Dy183 2.351 . S
O190 C198 1.249 . S
O191 Dy180 2.326 . S
O191 C198 1.267 . S
O192 C181 1.185 1_545 S
O192 Dy183 2.398 . S
O193 C181 1.355 1_545 S
O193 Dy183 2.491 . S
O194 Dy183 2.403 . S
O194 C189 1.254 . S
O195 Dy180 2.310 . S
O195 Dy183 2.664 . S
O195 C189 1.268 . S
O196 Dy180 2.351 . S
O196 C199 1.249 . S
O197 Dy183 2.326 . S
O197 C199 1.267 . S
C198 O190 1.249 . S
C198 O191 1.267 . S
C199 O196 1.249 . S
C199 O197 1.267 . S
Dy200 O204 2.398 . S
Dy200 O205 2.491 . S
Dy200 O206 2.403 . S
Dy200 O207 2.664 . S
Dy200 O211 2.326 . S
Dy200 O215 2.310 . S
Dy200 O216 2.351 . S
C201 O212 1.185 1_565 S
C201 O213 1.355 1_565 S
C202 O204 1.185 . S
C202 O205 1.355 . S
Dy203 O207 2.310 . S
Dy203 O210 2.351 . S
Dy203 O212 2.398 . S
Dy203 O213 2.491 . S
Dy203 O214 2.403 . S
Dy203 O215 2.664 . S
Dy203 O217 2.326 . S
O204 Dy200 2.398 . S
O204 C202 1.185 . S
O205 Dy200 2.491 . S
O205 C202 1.355 . S
O206 Dy200 2.403 . S
O206 C208 1.254 . S
O207 Dy200 2.664 . S
O207 Dy203 2.310 . S
O207 C208 1.268 . S
C208 O206 1.254 . S
C208 O207 1.268 . S
C209 O214 1.254 . S
C209 O215 1.268 . S
O210 Dy203 2.351 . S
O210 C218 1.249 . S
O211 Dy200 2.326 . S
O211 C218 1.267 . S
O212 C201 1.185 1_545 S
O212 Dy203 2.398 . S
O213 C201 1.355 1_545 S
O213 Dy203 2.491 . S
O214 Dy203 2.403 . S
O214 C209 1.254 . S
O215 Dy200 2.310 . S
O215 Dy203 2.664 . S
O215 C209 1.268 . S
O216 Dy200 2.351 . S
O216 C219 1.249 . S
O217 Dy203 2.326 . S
O217 C219 1.267 . S
C218 O210 1.249 . S
C218 O211 1.267 . S
C219 O216 1.249 . S
C219 O217 1.267 . S
Dy220 O224 2.398 . S
Dy220 O225 2.491 . S
Dy220 O226 2.403 . S
Dy220 O227 2.664 . S
Dy220 O231 2.326 . S
Dy220 O235 2.310 . S
Dy220 O236 2.351 . S
C221 O232 1.185 1_545 S
C221 O233 1.355 1_545 S
C222 O224 1.185 . S
C222 O225 1.355 . S
Dy223 O227 2.310 . S
Dy223 O230 2.351 . S
Dy223 O232 2.398 . S
Dy223 O233 2.491 . S
Dy223 O234 2.403 . S
Dy223 O235 2.664 . S
Dy223 O237 2.326 . S
O224 Dy220 2.398 . S
O224 C222 1.185 . S
O225 Dy220 2.491 . S
O225 C222 1.355 . S
O226 Dy220 2.403 . S
O226 C228 1.254 . S
O227 Dy220 2.664 . S
O227 Dy223 2.310 . S
O227 C228 1.268 . S
C228 O226 1.254 . S
C228 O227 1.268 . S
C229 O234 1.254 . S
C229 O235 1.268 . S
O230 Dy223 2.351 . S
O230 C238 1.249 . S
O231 Dy220 2.326 . S
O231 C238 1.267 . S
O232 C221 1.185 1_565 S
O232 Dy223 2.398 . S
O233 C221 1.355 1_565 S
O233 Dy223 2.491 . S
O234 Dy223 2.403 . S
O234 C229 1.254 . S
O235 Dy220 2.310 . S
O235 Dy223 2.664 . S
O235 C229 1.268 . S
O236 Dy220 2.351 . S
O236 C239 1.249 . S
O237 Dy223 2.326 . S
O237 C239 1.267 . S
C238 O230 1.249 . S
C238 O231 1.267 . S
C239 O236 1.249 . S
C239 O237 1.267 . S
Dy240 O244 2.398 . S
Dy240 O245 2.491 . S
Dy240 O246 2.403 . S
Dy240 O247 2.664 . S
Dy240 O251 2.326 . S
Dy240 O255 2.310 . S
Dy240 O256 2.351 . S
C241 O252 1.185 . S
C241 O253 1.355 . S
C242 O244 1.185 1_565 S
C242 O245 1.355 1_565 S
Dy243 O247 2.310 . S
Dy243 O250 2.351 . S
Dy243 O252 2.398 . S
Dy243 O253 2.491 . S
Dy243 O254 2.403 . S
Dy243 O255 2.664 . S
Dy243 O257 2.326 . S
O244 Dy240 2.398 . S
O244 C242 1.185 1_545 S
O245 Dy240 2.491 . S
O245 C242 1.355 1_545 S
O246 Dy240 2.403 . S
O246 C248 1.254 . S
O247 Dy240 2.664 . S
O247 Dy243 2.310 . S
O247 C248 1.268 . S
C248 O246 1.254 . S
C248 O247 1.268 . S
C249 O254 1.254 . S
C249 O255 1.268 . S
O250 Dy243 2.351 . S
O250 C258 1.249 . S
O251 Dy240 2.326 . S
O251 C258 1.267 . S
O252 C241 1.185 . S
O252 Dy243 2.398 . S
O253 C241 1.355 . S
O253 Dy243 2.491 . S
O254 Dy243 2.403 . S
O254 C249 1.254 . S
O255 Dy240 2.310 . S
O255 Dy243 2.664 . S
O255 C249 1.268 . S
O256 Dy240 2.351 . S
O256 C259 1.249 . S
O257 Dy243 2.326 . S
O257 C259 1.267 . S
C258 O250 1.249 . S
C258 O251 1.267 . S
C259 O256 1.249 . S
C259 O257 1.267 . S
Dy260 O264 2.398 . S
Dy260 O265 2.491 . S
Dy260 O266 2.403 . S
Dy260 O267 2.664 . S
Dy260 O271 2.326 . S
Dy260 O275 2.310 . S
Dy260 O276 2.351 . S
C261 O272 1.185 . S
C261 O273 1.355 . S
C262 O264 1.185 1_545 S
C262 O265 1.355 1_545 S
Dy263 O267 2.310 . S
Dy263 O270 2.351 . S
Dy263 O272 2.398 . S
Dy263 O273 2.491 . S
Dy263 O274 2.403 . S
Dy263 O275 2.664 . S
Dy263 O277 2.326 . S
O264 Dy260 2.398 . S
O264 C262 1.185 1_565 S
O265 Dy260 2.491 . S
O265 C262 1.355 1_565 S
O266 Dy260 2.403 . S
O266 C268 1.254 . S
O267 Dy260 2.664 . S
O267 Dy263 2.310 . S
O267 C268 1.268 . S
C268 O266 1.254 . S
C268 O267 1.268 . S
C269 O274 1.254 . S
C269 O275 1.268 . S
O270 Dy263 2.351 . S
O270 C278 1.249 . S
O271 Dy260 2.326 . S
O271 C278 1.267 . S
O272 C261 1.185 . S
O272 Dy263 2.398 . S
O273 C261 1.355 . S
O273 Dy263 2.491 . S
O274 Dy263 2.403 . S
O274 C269 1.254 . S
O275 Dy260 2.310 . S
O275 Dy263 2.664 . S
O275 C269 1.268 . S
O276 Dy260 2.351 . S
O276 C279 1.249 . S
O277 Dy263 2.326 . S
O277 C279 1.267 . S
C278 O270 1.249 . S
C278 O271 1.267 . S
C279 O276 1.249 . S
C279 O277 1.267 . S
Dy280 O284 2.398 . S
Dy280 O285 2.491 . S
Dy280 O286 2.403 . S
Dy280 O287 2.664 . S
Dy280 O291 2.326 . S
Dy280 O295 2.310 . S
Dy280 O296 2.351 . S
C281 O292 1.185 . S
C281 O293 1.355 . S
C282 O284 1.185 1_545 S
C282 O285 1.355 1_545 S
Dy283 O287 2.310 . S
Dy283 O290 2.351 . S
Dy283 O292 2.398 . S
Dy283 O293 2.491 . S
Dy283 O294 2.403 . S
Dy283 O295 2.664 . S
Dy283 O297 2.326 . S
O284 Dy280 2.398 . S
O284 C282 1.185 1_565 S
O285 Dy280 2.491 . S
O285 C282 1.355 1_565 S
O286 Dy280 2.403 . S
O286 C288 1.254 . S
O287 Dy280 2.664 . S
O287 Dy283 2.310 . S
O287 C288 1.268 . S
C288 O286 1.254 . S
C288 O287 1.268 . S
C289 O294 1.254 . S
C289 O295 1.268 . S
O290 Dy283 2.351 . S
O290 C298 1.249 . S
O291 Dy280 2.326 . S
O291 C298 1.267 . S
O292 C281 1.185 . S
O292 Dy283 2.398 . S
O293 C281 1.355 . S
O293 Dy283 2.491 . S
O294 Dy283 2.403 . S
O294 C289 1.254 . S
O295 Dy280 2.310 . S
O295 Dy283 2.664 . S
O295 C289 1.268 . S
O296 Dy280 2.351 . S
O296 C299 1.249 . S
O297 Dy283 2.326 . S
O297 C299 1.267 . S
C298 O290 1.249 . S
C298 O291 1.267 . S
C299 O296 1.249 . S
C299 O297 1.267 . S
Dy300 O304 2.398 . S
Dy300 O305 2.491 . S
Dy300 O306 2.403 . S
Dy300 O307 2.664 . S
Dy300 O311 2.326 . S
Dy300 O315 2.310 . S
Dy300 O316 2.351 . S
C301 O312 1.185 . S
C301 O313 1.355 . S
C302 O304 1.185 1_565 S
C302 O305 1.355 1_565 S
Dy303 O307 2.310 . S
Dy303 O310 2.351 . S
Dy303 O312 2.398 . S
Dy303 O313 2.491 . S
Dy303 O314 2.403 . S
Dy303 O315 2.664 . S
Dy303 O317 2.326 . S
O304 Dy300 2.398 . S
O304 C302 1.185 1_545 S
O305 Dy300 2.491 . S
O305 C302 1.355 1_545 S
O306 Dy300 2.403 . S
O306 C308 1.254 . S
O307 Dy300 2.664 . S
O307 Dy303 2.310 . S
O307 C308 1.268 . S
C308 O306 1.254 . S
C308 O307 1.268 . S
C309 O314 1.254 . S
C309 O315 1.268 . S
O310 Dy303 2.351 . S
O310 C318 1.249 . S
O311 Dy300 2.326 . S
O311 C318 1.267 . S
O312 C301 1.185 . S
O312 Dy303 2.398 . S
O313 C301 1.355 . S
O313 Dy303 2.491 . S
O314 Dy303 2.403 . S
O314 C309 1.254 . S
O315 Dy300 2.310 . S
O315 Dy303 2.664 . S
O315 C309 1.268 . S
O316 Dy300 2.351 . S
O316 C319 1.249 . S
O317 Dy303 2.326 . S
O317 C319 1.267 . S
C318 O310 1.249 . S
C318 O311 1.267 . S
C319 O316 1.249 . S
C319 O317 1.267 . S
C19 C199 1.561 . S
C39 C179 1.561 . S
C239 C59 1.561 . S
C79 C219 1.561 . S
C278 C98 1.561 . S
C258 C118 1.561 . S
C318 C138 1.561 . S
C158 C298 1.561 . S
C49 C9 2.187 1_565 S
C69 C29 2.187 1_545 S
C128 C88 2.187 1_545 S
C108 C148 2.187 1_545 S
C209 C169 2.187 . S
C229 C189 2.187 . S
C248 C288 2.187 . S
C268 C308 2.187 . S
C109 C8 1.342 1_556 S
C89 C28 1.342 1_556 S
C48 C149 1.342 . S
C129 C68 1.342 . S
C168 C269 1.342 1_554 S
C249 C188 1.342 1_556 S
C208 C309 1.342 . S
C289 C228 1.342 . S
C38 C18 1.756 1_645 S
C78 C58 1.756 1_665 S
C119 C99 1.756 1_465 S
C139 C159 1.756 1_665 S
C198 C178 1.756 . S
C238 C218 1.756 . S
C259 C279 1.756 . S
C299 C319 1.756 . S
C2 C1 1.519 . S
C22 C21 1.519 . S
C42 C41 1.519 . S
C61 C62 1.519 . S
C81 C82 1.519 . S
C102 C101 1.519 . S
C121 C122 1.519 . S
C141 C142 1.519 . S
C161 C162 1.519 . S
C182 C181 1.519 . S
C201 C202 1.519 . S
C221 C222 1.519 . S
C241 C242 1.519 . S
C261 C262 1.519 . S
C282 C281 1.519 . S
C301 C302 1.519 . S
