# Generated by pormake.
# Topology sma, (6)-cn, num edge types: 1
# Building blocks:
#     Node 0, Type 0, BuildingBlock: BETDAH_clean_sbu_0, # of connection points: 6
#     Node 1, Type 0, BuildingBlock: BETDAH_clean_sbu_0, # of connection points: 6
#     Node 2, Type 0, BuildingBlock: BETDAH_clean_sbu_0, # of connection points: 6
#     Edge 3, Type (0, 0), BuildingBlock: MIFKUJ_clean_linker_0, # of connection points: 2
#     Edge 4, Type (0, 0), BuildingBlock: MIFKUJ_clean_linker_0, # of connection points: 2
#     Edge 5, Type (0, 0), BuildingBlock: MIFKUJ_clean_linker_0, # of connection points: 2
#     Edge 6, Type (0, 0), BuildingBlock: MIFKUJ_clean_linker_0, # of connection points: 2
#     Edge 7, Type (0, 0), BuildingBlock: MIFKUJ_clean_linker_0, # of connection points: 2
#     Edge 8, Type (0, 0), BuildingBlock: MIFKUJ_clean_linker_0, # of connection points: 2
#     Edge 9, Type (0, 0), BuildingBlock: MIFKUJ_clean_linker_0, # of connection points: 2
#     Edge 10, Type (0, 0), BuildingBlock: MIFKUJ_clean_linker_0, # of connection points: 2
#     Edge 11, Type (0, 0), BuildingBlock: MIFKUJ_clean_linker_0, # of connection points: 2
# Relax obj value: 0.122
# Max RMSD: 0.249
# Mean RMSD: 0.204
data_MOF--net-sma--node1-BETDAH_clean_sbu_0--edge1-MIFKUJ_clean_linker_0
_symmetry_space_group_name_H-M    P1
_symmetry_Int_Tables_number       1
_symmetry_cell_setting            triclinic
loop_
_symmetry_equiv_pos_as_xyz
'x, y, z'
_cell_length_a     49.050877
_cell_length_b     55.89787
_cell_length_c     17.652979
_cell_angle_alpha  93.946144
_cell_angle_beta   89.656901
_cell_angle_gamma 136.208
loop_
_atom_site_label
_atom_site_type_symbol
_atom_site_fract_x
_atom_site_fract_y
_atom_site_fract_z
_atom_type_partial_charge
Ho0 Ho 0.11131 0.6131 0.18448 0.0
Ho1 Ho 1.06227 0.62957 0.20357 0.0
C2 C 0.15888 0.69231 0.19928 0.0
C3 C 0.14102 0.59127 0.13753 0.0
C4 C 0.17909 0.60304 0.12476 0.0
C5 C 0.19728 0.61568 0.05562 0.0
C6 C 0.23028 0.62241 0.04018 0.0
C7 C 0.24572 0.61639 0.09322 0.0
C8 C 0.22818 0.60472 0.1632 0.0
C9 C 0.19525 0.59802 0.17863 0.0
C10 C 0.11592 0.63842 0.32271 0.0
C11 C 1.01641 0.55124 0.21347 0.0
C12 C 1.03237 0.65281 0.23096 0.0
C13 C 0.99956 0.64647 0.19943 0.0
C14 C 0.98517 0.65679 0.24381 0.0
C15 C 0.95667 0.65402 0.2128 0.0
C16 C 0.94196 0.6409 0.13648 0.0
C17 C 0.95578 0.62972 0.09271 0.0
C18 C 0.98429 0.63249 0.12385 0.0
C19 C 1.06224 0.60801 0.06209 0.0
O20 O 0.15917 0.66999 0.17005 0.0
O21 O 0.12639 0.68204 0.22438 0.0
O22 O 0.13249 0.59115 0.20808 0.0
O23 O 0.12969 0.60071 0.09199 0.0
O24 O 0.14439 0.64341 0.29646 0.0
O25 O 0.08546 0.6174 0.27835 0.0
O26 O 1.01589 0.57431 0.23102 0.0
O27 O 1.04798 0.56004 0.1878 0.0
O28 O 1.06122 0.66671 0.18641 0.0
O29 O 1.02316 0.62829 0.26722 0.0
O30 O 1.03254 0.60099 0.088 0.0
O31 O 0.09049 0.6277 0.11119 0.0
H32 H 0.18533 0.61938 0.0123 0.0
H33 H 0.2427 0.63099 -0.01464 0.0
H34 H 0.23957 0.60027 0.20585 0.0
H35 H 0.18177 0.58796 0.23212 0.0
H36 H 0.99656 0.66766 0.30219 0.0
H37 H 0.94631 0.66235 0.24863 0.0
H38 H 0.9455 0.61983 0.03362 0.0
H39 H 0.99511 0.62451 0.08832 0.0
Ho40 Ho 0.61711 0.12156 0.40887 0.0
Ho41 Ho 0.57023 0.13591 0.35715 0.0
C42 C 0.52191 0.05667 0.36281 0.0
C43 C 0.64515 0.10515 0.48806 0.0
C44 C 0.637 0.075 0.50413 0.0
C45 C 0.66222 0.08004 0.557 0.0
C46 C 0.65685 0.05267 0.5715 0.0
C47 C 0.62643 1.01955 0.53225 0.0
C48 C 0.60066 1.01439 0.47972 0.0
C49 C 0.60591 1.04192 0.4658 0.0
C50 C 0.61317 0.12359 0.25894 0.0
C51 C 0.66645 0.19824 0.36749 0.0
C52 C 0.54328 0.1583 0.30597 0.0
C53 C 0.54599 0.1847 0.34107 0.0
C54 C 0.53696 0.19865 0.2982 0.0
C55 C 0.53949 0.22365 0.33245 0.0
C56 C 0.5505 0.23476 0.41073 0.0
C57 C 0.55939 0.22042 0.4532 0.0
C58 C 0.55753 0.19599 0.41863 0.0
C59 C 0.58308 0.1413 0.50925 0.0
O60 O 0.55311 0.06799 0.40183 0.0
O61 O 0.5236 0.07819 0.32943 0.0
O62 O 0.65502 0.11482 0.41918 0.0
O63 O 0.62135 0.10663 0.5147 0.0
O64 O 0.64166 0.1307 0.29485 0.0
O65 O 0.58592 0.11121 0.30263 0.0
O66 O 0.63301 0.18511 0.33604 0.0
O67 O 0.66716 0.17997 0.41 0.0
O68 O 0.522 0.13011 0.34106 0.0
O69 O 0.57659 0.16979 0.28641 0.0
O70 O 0.55108 0.12918 0.4774 0.0
O71 O 0.60681 0.15118 0.45948 0.0
H72 H 0.68658 0.10539 0.58654 0.0
H73 H 0.67678 0.0576 0.61349 0.0
H74 H 0.57712 0.98938 0.44793 0.0
H75 H 0.58624 1.03759 0.42427 0.0
H76 H 0.52781 0.19009 0.23837 0.0
H77 H 0.53299 0.23434 0.29733 0.0
H78 H 0.56713 0.2275 0.51371 0.0
H79 H 0.56468 0.18556 0.45284 0.0
Ho80 Ho 0.63087 0.67131 0.86263 0.0
Ho81 Ho 0.56988 0.59225 0.87637 0.0
C82 C 0.5381 0.62538 0.88624 0.0
C83 C 0.66746 0.73165 0.82189 0.0
C84 C 0.65714 0.74926 0.7984 0.0
C85 C 0.6232 0.73192 0.75141 0.0
C86 C 0.61488 0.74975 0.7287 0.0
C87 C 0.64045 0.78531 0.75216 0.0
C88 C 0.67366 0.80207 0.80124 0.0
C89 C 0.68193 0.78428 0.82377 0.0
C90 C 0.62124 0.65297 0.00529 0.0
C91 C 0.66455 0.63971 0.86753 0.0
C92 C 0.5328 0.5306 0.90687 0.0
C93 C 0.53582 0.50691 0.88042 0.0
C94 C 0.57253 0.51856 0.87723 0.0
C95 C 0.57498 0.49674 0.84364 0.0
C96 C 0.54082 0.46294 0.81218 0.0
C97 C 0.50405 0.45104 0.81807 0.0
C98 C 0.50162 0.47278 0.8518 0.0
C99 C 0.57651 0.61156 0.73722 0.0
O100 O 0.57108 0.65208 0.85484 0.0
O101 O 0.5334 0.60088 0.91176 0.0
O102 O 0.66236 0.72458 0.89282 0.0
O103 O 0.65645 0.70644 0.77482 0.0
O104 O 0.65489 0.68051 -0.01878 0.0
O105 O 0.59479 0.6374 0.95274 0.0
O106 O 0.62815 0.60955 0.87776 0.0
O107 O 0.67343 0.66773 0.85522 0.0
O108 O 0.5199 0.53658 0.85481 0.0
O109 O 0.5623 0.5587 0.95052 0.0
O110 O 0.54359 0.58337 0.76094 0.0
O111 O 0.60431 0.62605 0.78576 0.0
H112 H 0.60339 0.70475 0.73151 0.0
H113 H 0.58915 0.73589 0.69064 0.0
H114 H 0.69346 0.82908 0.82242 0.0
H115 H 0.70798 0.79801 0.86084 0.0
H116 H 0.59947 0.54478 0.89875 0.0
H117 H 0.60379 0.50682 0.83985 0.0
H118 H 0.47709 0.42495 0.79577 0.0
H119 H 0.47301 0.46321 0.85369 0.0
H120 H 0.31233 0.66778 0.01861 0.0
H121 H 0.36459 0.67279 -0.01641 0.0
H122 H 0.30571 0.57933 0.08916 0.0
H123 H 0.25349 0.57412 0.12414 0.0
H124 H 0.38368 0.62754 0.12375 0.0
H125 H 0.2994 0.5796 0.89394 0.0
H126 H 0.26478 0.57894 0.79164 0.0
H127 H 0.37542 0.67592 0.7271 0.0
H128 H 0.41066 0.67737 0.82969 0.0
H129 H 0.47064 0.57868 0.96148 0.0
H130 H 0.42414 0.5808 -0.00419 0.0
H131 H 0.4914 0.6742 0.88288 0.0
H132 H 0.53797 0.67205 0.8472 0.0
H133 H 0.41365 0.63121 0.85324 0.0
H134 H 0.49885 0.67851 0.07528 0.0
H135 H 0.53512 0.68114 0.17773 0.0
H136 H 0.42568 0.58845 0.2579 0.0
H137 H 0.3887 0.58497 0.15524 0.0
C138 C 0.31043 0.64822 0.03415 0.0
C139 C 0.27859 0.62052 0.07419 0.0
C140 C 0.34038 0.65114 0.01414 0.0
C141 C 0.33895 0.62623 0.03298 0.0
C142 C 0.30761 0.59895 0.07414 0.0
C143 C 0.27777 0.59607 0.09435 0.0
C144 C 0.36959 0.62805 0.00893 0.0
C145 C 0.38991 0.62797 0.06451 0.0
C146 C 0.37875 0.62974 0.93191 0.0
C147 C 0.35761 0.62876 0.86994 0.0
C148 C 0.31631 0.6009 0.85825 0.0
C149 C 0.29658 0.60036 0.80017 0.0
C150 C 0.31787 0.62742 0.75303 0.0
C151 C 0.35896 0.65501 0.76372 0.0
C152 C 0.37883 0.65569 0.82179 0.0
C153 C 0.47548 0.59957 0.94329 0.0
C154 C 0.50822 0.62527 0.90177 0.0
C155 C 0.44895 0.60087 0.9635 0.0
C156 C 0.4546 0.628 0.94316 0.0
C157 C 0.48652 0.65311 0.89961 0.0
C158 C 0.51315 0.65184 0.8793 0.0
C159 C 0.42722 0.6301 0.96789 0.0
C160 C 0.40757 0.63097 0.91254 0.0
C161 C 0.41891 0.62941 0.04521 0.0
C162 C 0.44099 0.63135 0.10716 0.0
C163 C 0.4825 0.65853 0.1144 0.0
C164 C 0.50319 0.66022 0.17261 0.0
C165 C 0.4827 0.63502 0.22435 0.0
C166 C 0.44149 0.608 0.21785 0.0
C167 C 0.42064 0.60618 0.15971 0.0
H168 H 0.4988 0.63649 0.26953 0.0
H169 H 0.30255 0.62696 0.7081 0.0
H170 H 0.67403 0.24567 0.30297 0.0
H171 H 0.73408 0.3039 0.27408 0.0
H172 H 0.80384 0.29092 0.36486 0.0
H173 H 0.74334 0.23252 0.39662 0.0
H174 H 0.83845 0.35244 0.40913 0.0
H175 H 0.7961 0.29382 0.15771 0.0
H176 H 0.75173 0.25626 0.04341 0.0
H177 H 0.72442 0.31363 0.03119 0.0
H178 H 0.7699 0.35243 0.14378 0.0
H179 H 1.01212 0.50048 0.23406 0.0
H180 H 0.95378 0.44017 0.25913 0.0
H181 H 0.88171 0.45768 0.24429 0.0
H182 H 0.94004 0.51827 0.22091 0.0
H183 H 0.85077 0.39366 0.1584 0.0
H184 H 0.903 0.45642 0.40917 0.0
H185 H 0.95567 0.49574 0.51149 0.0
H186 H 0.9685 0.42761 0.51868 0.0
H187 H 0.91629 0.38815 0.41546 0.0
C188 C 0.70208 0.25506 0.31702 0.0
C189 C 0.70371 0.23424 0.35234 0.0
C190 C 0.73658 0.28843 0.29953 0.0
C191 C 0.77379 0.30184 0.31544 0.0
C192 C 0.7756 0.28127 0.35151 0.0
C193 C 0.74095 0.24785 0.36983 0.0
C194 C 0.81054 0.33774 0.29698 0.0
C195 C 0.84127 0.36114 0.35379 0.0
C196 C 0.81455 0.34967 0.22517 0.0
C197 C 0.78604 0.32574 0.15946 0.0
C198 C 0.7804 0.29825 0.13091 0.0
C199 C 0.75523 0.27687 0.06624 0.0
C200 C 0.73497 0.28233 0.03048 0.0
C201 C 0.74014 0.30943 0.05894 0.0
C202 C 0.76585 0.3313 0.12278 0.0
C203 C 0.98384 0.49149 0.23577 0.0
C204 C 0.98078 0.51425 0.22552 0.0
C205 C 0.95056 0.45703 0.25037 0.0
C206 C 0.91342 0.44446 0.25379 0.0
C207 C 0.91008 0.46685 0.24191 0.0
C208 C 0.94348 0.50151 0.22879 0.0
C209 C 0.87813 0.40805 0.27059 0.0
C210 C 0.8478 0.38471 0.21351 0.0
C211 C 0.87498 0.39602 0.34143 0.0
C212 C 0.90604 0.41953 0.40402 0.0
C213 C 0.91729 0.44998 0.43208 0.0
C214 C 0.94702 0.47226 0.49034 0.0
C215 C 0.9655 0.46423 0.52142 0.0
C216 C 0.9542 0.43383 0.49447 0.0
C217 C 0.92453 0.41148 0.43613 0.0
H218 H 0.98852 0.48152 0.5665 0.0
H219 H 0.71534 0.26562 -0.01935 0.0
H220 H 0.68588 1.0249 0.55557 0.0
H221 H 0.6806 0.97979 0.58366 0.0
H222 H 0.55359 0.90396 0.56263 0.0
H223 H 0.55862 0.94969 0.53847 0.0
H224 H 0.57573 0.89421 0.6824 0.0
H225 H 0.60681 0.90771 0.4223 0.0
H226 H 0.64333 0.93937 0.31072 0.0
H227 H 0.7491 0.97792 0.41597 0.0
H228 H 0.71337 0.94688 0.52864 0.0
H229 H 0.56971 0.76346 0.72077 0.0
H230 H 0.55978 0.79662 0.67088 0.0
H231 H 0.68591 0.88611 0.67139 0.0
H232 H 0.69598 0.85262 0.71557 0.0
H233 H 0.65402 0.88116 0.54806 0.0
H234 H 0.62397 0.87349 0.81477 0.0
H235 H 0.58705 0.84163 0.92601 0.0
H236 H 0.47847 0.79119 0.80596 0.0
H237 H 0.51474 0.82253 0.69376 0.0
C238 C 0.65671 0.99875 0.55761 0.0
C239 C 0.62266 0.99114 0.54522 0.0
C240 C 0.65375 0.97277 0.57263 0.0
C241 C 0.61669 0.93824 0.57411 0.0
C242 C 0.58254 0.93036 0.56141 0.0
C243 C 0.58548 0.95651 0.54691 0.0
C244 C 0.6141 0.91088 0.59115 0.0
C245 C 0.59228 0.89091 0.65206 0.0
C246 C 0.63589 0.90663 0.55218 0.0
C247 C 0.65742 0.92509 0.48413 0.0
C248 C 0.63791 0.92309 0.42184 0.0
C249 C 0.65847 0.94091 0.35837 0.0
C250 C 0.69852 0.96068 0.3563 0.0
C251 C 0.71807 0.9626 0.41763 0.0
C252 C 0.69766 0.94484 0.48127 0.0
C253 C 0.59536 0.79009 0.70958 0.0
C254 C 0.63372 0.80538 0.72348 0.0
C255 C 0.58962 0.80919 0.68181 0.0
C256 C 0.6221 0.84419 0.66856 0.0
C257 C 0.66029 0.85927 0.68145 0.0
C258 C 0.66603 0.84013 0.70803 0.0
C259 C 0.61695 0.86549 0.64118 0.0
C260 C 0.63714 0.88419 0.57792 0.0
C261 C 0.59364 0.86851 0.67793 0.0
C262 C 0.572 0.85008 0.74572 0.0
C263 C 0.5922 0.85548 0.81203 0.0
C264 C 0.5714 0.83754 0.87524 0.0
C265 C 0.53043 0.81433 0.87298 0.0
C266 C 0.51019 0.80914 0.8076 0.0
C267 C 0.53086 0.82701 0.74424 0.0
H268 H 0.51437 0.80043 0.92193 0.0
H269 H 0.71439 0.97448 0.30713 0.0
H270 H 0.66156 0.59022 0.82227 0.0
H271 H 0.71038 0.59051 0.85242 0.0
H272 H 0.78691 0.6935 0.9674 0.0
H273 H 0.73901 0.694 0.93301 0.0
H274 H 0.83036 0.68876 0.90303 0.0
H275 H 0.71886 0.61369 0.06106 0.0
H276 H 0.64768 0.56473 0.07895 0.0
H277 H 0.64544 0.49432 0.95571 0.0
H278 H 0.71648 0.54295 0.93613 0.0
H279 H 0.94172 0.68982 0.15801 0.0
H280 H 0.89543 0.68869 0.10185 0.0
H281 H 0.83171 0.58958 -0.02095 0.0
H282 H 0.87735 0.59 0.03698 0.0
H283 H 0.78138 0.58998 0.039 0.0
H284 H 0.89316 0.66362 0.88863 0.0
H285 H 0.96355 0.71228 0.86475 0.0
H286 H 0.96502 0.78481 0.97006 0.0
H287 H 0.89475 0.73652 -0.00438 0.0
C288 C 0.68915 0.61315 0.85279 0.0
C289 C 0.69643 0.64203 0.8757 0.0
C290 C 0.71694 0.6132 0.87065 0.0
C291 C 0.75194 0.64156 0.91459 0.0
C292 C 0.7601 0.67115 0.93401 0.0
C293 C 0.73274 0.67148 0.91424 0.0
C294 C 0.77903 0.63983 0.9436 0.0
C295 C 0.81963 0.66733 0.93351 0.0
C296 C 0.76515 0.61143 -0.01831 0.0
C297 C 0.72291 0.58198 -0.00329 0.0
C298 C 0.70317 0.58776 0.03781 0.0
C299 C 0.66284 0.56008 0.0481 0.0
C300 C 0.64203 0.52645 0.01831 0.0
C301 C 0.66158 0.52039 -0.02135 0.0
C302 C 0.70188 0.54799 0.96802 0.0
C303 C 0.91764 0.66755 0.11973 0.0
C304 C 0.91336 0.63997 0.10221 0.0
C305 C 0.89138 0.66713 0.08693 0.0
C306 C 0.86028 0.63926 0.03532 0.0
C307 C 0.85554 0.61145 0.0184 0.0
C308 C 0.88187 0.61187 0.05116 0.0
C309 C 0.83273 0.63922 -0.00046 0.0
C310 C 0.79207 0.61137 0.00837 0.0
C311 C 0.84655 0.66728 0.9603 0.0
C312 C 0.88876 0.69641 0.94462 0.0
C313 C 0.90856 0.68992 0.90721 0.0
C314 C 0.94843 0.71744 0.89329 0.0
C315 C 0.96877 0.75161 0.91602 0.0
C316 C 0.94924 0.75833 0.95255 0.0
C317 C 0.90938 0.73089 0.9667 0.0
H318 H 0.99963 0.77288 0.90519 0.0
H319 H 0.61078 0.50509 0.02599 0.0
H320 H 0.44784 1.02514 0.32148 0.0
H321 H 0.38749 0.96299 0.29635 0.0
H322 H 0.45201 0.94004 0.34871 0.0
H323 H 0.51262 1.00237 0.3755 0.0
H324 H 0.40133 0.90441 0.20677 0.0
H325 H 0.39568 0.92433 0.47348 0.0
H326 H 0.39747 0.95434 0.5857 0.0
H327 H 0.29792 0.92831 0.4879 0.0
H328 H 0.29592 0.89857 0.37451 0.0
H329 H 0.2339 0.7217 0.20403 0.0
H330 H 0.29594 0.78279 0.2333 0.0
H331 H 0.23212 0.8091 0.25015 0.0
H332 H 0.16983 0.74775 0.22422 0.0
H333 H 0.28451 0.84352 0.35948 0.0
H334 H 0.2896 0.8262 0.0928 0.0
H335 H 0.28717 0.79809 -0.02486 0.0
H336 H 0.38614 0.8212 0.06368 0.0
H337 H 0.38884 0.84906 0.18236 0.0
C338 C 0.44925 1.00692 0.32803 0.0
C339 C 0.48511 1.01878 0.35062 0.0
C340 C 0.41467 0.97137 0.31371 0.0
C341 C 0.41521 0.94685 0.32066 0.0
C342 C 0.45094 0.95852 0.34294 0.0
C343 C 0.48549 0.99414 0.35863 0.0
C344 C 0.37839 0.90911 0.30401 0.0
C345 C 0.37594 0.89087 0.24076 0.0
C346 C 0.34487 0.8918 0.34688 0.0
C347 C 0.3459 0.90951 0.41518 0.0
C348 C 0.37439 0.92527 0.47559 0.0
C349 C 0.3754 0.94218 0.53948 0.0
C350 C 0.34789 0.94331 0.54385 0.0
C351 C 0.31925 0.92745 0.4844 0.0
C352 C 0.31814 0.91053 0.42034 0.0
C353 C 0.23307 0.74052 0.21318 0.0
C354 C 0.19683 0.72979 0.21127 0.0
C355 C 0.2687 0.77559 0.22975 0.0
C356 C 0.2691 0.80097 0.24294 0.0
C357 C 0.23286 0.79024 0.24035 0.0
C358 C 0.19718 0.75509 0.22512 0.0
C359 C 0.30702 0.83846 0.2615 0.0
C360 C 0.30977 0.85681 0.32524 0.0
C361 C 0.3406 0.85603 0.21816 0.0
C362 C 0.33916 0.8394 0.14678 0.0
C363 C 0.31067 0.82507 0.08741 0.0
C364 C 0.30927 0.80922 0.0205 0.0
C365 C 0.33642 0.80778 0.01203 0.0
C366 C 0.3651 0.82229 0.07038 0.0
C367 C 0.36659 0.83814 0.13745 0.0
H368 H 0.33529 0.79549 0.96019 0.0
H369 H 0.34872 0.95641 0.59336 0.0
H370 H 0.5012 0.42188 0.6786 0.0
H371 H 0.50468 0.38472 0.6105 0.0
H372 H 0.59025 0.4164 0.78199 0.0
H373 H 0.5869 0.45379 0.85072 0.0
H374 H 0.6111 0.41535 0.64039 0.0
H375 H 0.49342 0.33695 0.7777 0.0
H376 H 0.42858 0.30973 0.8184 0.0
H377 H 0.38129 0.27343 0.58645 0.0
H378 H 0.44601 0.30085 0.54424 0.0
H379 H 0.6011 0.28481 0.52934 0.0
H380 H 0.60028 0.32365 0.59692 0.0
H381 H 0.50483 0.28451 0.44325 0.0
H382 H 0.50315 0.24338 0.3792 0.0
H383 H 0.48956 0.28988 0.57762 0.0
H384 H 0.606 0.36802 0.43825 0.0
H385 H 0.67072 0.39598 0.3947 0.0
H386 H 0.7203 0.43362 0.62511 0.0
H387 H 0.65574 0.40551 0.67015 0.0
C388 C 0.52047 0.4207 0.70241 0.0
C389 C 0.54344 0.44055 0.7707 0.0
C390 C 0.5225 0.39947 0.66322 0.0
C391 C 0.54727 0.3973 0.69164 0.0
C392 C 0.57086 0.41758 0.759 0.0
C393 C 0.56895 0.43898 0.7982 0.0
C394 C 0.54838 0.37378 0.65099 0.0
C395 C 0.58462 0.38781 0.6275 0.0
C396 C 0.51369 0.33801 0.63235 0.0
C397 C 0.47465 0.3212 0.65777 0.0
C398 C 0.46926 0.32335 0.73533 0.0
C399 C 0.43252 0.30786 0.75867 0.0
C400 C 0.40086 0.28993 0.70503 0.0
C401 C 0.40585 0.28736 0.62794 0.0
C402 C 0.44254 0.30283 0.60428 0.0
C403 C 0.57951 0.284 0.51017 0.0
C404 C 0.55203 0.26056 0.44859 0.0
C405 C 0.57957 0.30682 0.54832 0.0
C406 C 0.55294 0.3076 0.52469 0.0
C407 C 0.52583 0.2846 0.46266 0.0
C408 C 0.52525 0.2613 0.4253 0.0
C409 C 0.55232 0.3314 0.5662 0.0
C410 C 0.51612 0.31741 0.59015 0.0
C411 C 0.58703 0.36727 0.58466 0.0
C412 C 0.62594 0.38439 0.55762 0.0
C413 C 0.63065 0.38207 0.47967 0.0
C414 C 0.66731 0.39798 0.45472 0.0
C415 C 0.69957 0.4165 0.50712 0.0
C416 C 0.69527 0.41924 0.58458 0.0
C417 C 0.65867 0.40336 0.60985 0.0
H418 H 0.72793 0.42878 0.48769 0.0
H419 H 0.37244 0.27797 0.72321 0.0
H420 H 0.12987 0.63674 0.00028 0.0
H421 H 0.14906 0.65714 0.87435 0.0
H422 H 1.03093 0.60651 0.81592 0.0
H423 H 1.0116 0.58653 0.94327 0.0
H424 H 0.12586 0.62832 0.73363 0.0
H425 H 1.03626 0.65976 0.71767 0.0
H426 H 1.00931 0.67363 0.8063 0.0
H427 H 0.09985 0.71596 -0.02277 0.0
H428 H 0.12777 0.70293 0.88924 0.0
H429 H 1.0571 0.62423 0.39369 0.0
H430 H 1.06137 0.64296 0.5257 0.0
H431 H 0.18785 0.71441 0.53562 0.0
H432 H 0.18365 0.69517 0.40363 0.0
H433 H 0.10323 0.69658 0.65281 0.0
H434 H 0.20419 0.68239 0.63818 0.0
H435 H 0.22578 0.66378 0.54744 0.0
H436 H 0.10818 0.58344 0.4426 0.0
H437 H 0.08599 0.60146 0.53324 0.0
C438 C 0.10764 0.62907 0.95994 0.0
C439 C 0.06945 0.61056 -0.01859 0.0
C440 C 0.11877 0.64101 0.88838 0.0
C441 C 0.09173 0.63432 0.83755 0.0
C442 C 1.05242 0.61278 0.85591 0.0
C443 C 1.04129 0.60099 0.92792 0.0
C444 C 0.10508 0.6506 0.76595 0.0
C445 C 0.12191 0.64404 0.71694 0.0
C446 C 0.09961 0.67092 0.74452 0.0
C447 C 0.08395 0.68013 0.7969 0.0
C448 C 1.05063 0.6723 0.77392 0.0
C449 C 1.03514 0.67996 0.82411 0.0
C450 C 1.05279 0.69558 0.89741 0.0
C451 C 0.08614 0.70378 0.92051 0.0
C452 C 0.10181 0.69626 0.87049 0.0
C453 C 0.08594 0.64494 0.42316 0.0
C454 C 0.11983 0.65702 0.39107 0.0
C455 C 0.08845 0.65612 0.49804 0.0
C456 C 0.12477 0.67911 0.54042 0.0
C457 C 0.15954 0.69622 0.50353 0.0
C458 C 0.15702 0.6847 0.4289 0.0
C459 C 0.1237 0.67404 0.62104 0.0
C460 C 0.10874 0.68221 0.67142 0.0
C461 C 0.13083 0.65514 0.64442 0.0
C462 C 0.14362 0.64341 0.59181 0.0
C463 C 0.183 0.66066 0.59596 0.0
C464 C 0.19532 0.65025 0.54455 0.0
C465 C 0.16839 0.6225 0.48918 0.0
C466 C 0.12901 0.60493 0.48546 0.0
C467 C 0.11655 0.6152 0.53684 0.0
H468 H 0.17802 0.61458 0.44923 0.0
H469 H 1.04065 0.70135 0.93627 0.0
H470 H 0.68272 0.17463 0.19712 0.0
H471 H 0.69373 0.20193 0.08299 0.0
H472 H 0.56898 0.13758 0.05375 0.0
H473 H 0.55803 0.11088 0.17014 0.0
H474 H 0.67071 0.17224 0.95322 0.0
H475 H 0.54935 0.17228 0.94491 0.0
H476 H 0.52711 0.19137 0.03073 0.0
H477 H 0.63384 0.25442 0.17284 0.0
H478 H 0.65717 0.23636 0.08745 0.0
H479 H 0.53562 0.11818 0.62666 0.0
H480 H 0.55625 0.13767 0.76199 0.0
H481 H 0.67841 0.21435 0.70689 0.0
H482 H 0.65792 0.19372 0.57216 0.0
H483 H 0.60041 0.19806 0.85509 0.0
H484 H 0.73088 0.22001 0.84304 0.0
H485 H 0.76143 0.20826 0.7599 0.0
H486 H 0.64653 0.11072 0.67252 0.0
H487 H 0.6154 0.12194 0.75533 0.0
C488 C 0.65768 0.1665 0.16659 0.0
C489 C 0.61935 0.14012 0.19085 0.0
C490 C 0.66413 0.18251 0.10201 0.0
C491 C 0.63235 0.17215 0.06009 0.0
C492 C 0.59414 0.1466 0.08603 0.0
C493 C 0.58774 0.13089 0.15154 0.0
C494 C 0.63785 0.18339 -0.0168 0.0
C495 C 0.65631 0.17896 0.9326 0.0
C496 C 0.61969 0.1927 0.95618 0.0
C497 C 0.60516 0.20297 0.00912 0.0
C498 C 0.5683 0.19042 -0.00594 0.0
C499 C 0.55544 0.20105 0.04281 0.0
C500 C 0.57914 0.22424 0.10692 0.0
C501 C 0.61555 0.23655 0.12299 0.0
C502 C 0.6286 0.22608 0.07439 0.0
C503 C 0.56682 0.13921 0.64373 0.0
C504 C 0.59523 0.15394 0.58983 0.0
C505 C 0.57858 0.15063 0.72067 0.0
C506 C 0.61886 0.1772 0.74436 0.0
C507 C 0.64721 0.19345 0.68982 0.0
C508 C 0.63549 0.1815 0.61312 0.0
C509 C 0.63059 0.18429 0.82616 0.0
C510 C 0.61572 0.19245 0.87727 0.0
C511 C 0.65295 0.17932 0.85452 0.0
C512 C 0.67095 0.17201 0.80449 0.0
C513 C 0.71221 0.19608 0.80597 0.0
C514 C 0.72961 0.18954 0.75894 0.0
C515 C 0.70597 0.15887 0.71067 0.0
C516 C 0.66484 0.13458 0.70955 0.0
C517 C 0.64729 0.14101 0.75648 0.0
H518 H 0.71966 0.154 0.67447 0.0
H519 H 0.56932 0.23274 0.14406 0.0
H520 H 0.63969 0.65985 0.65703 0.0
H521 H 0.6407 0.68315 0.54428 0.0
H522 H 0.51941 0.62707 0.56984 0.0
H523 H 0.51828 0.60322 0.68246 0.0
H524 H 0.5262 0.60436 0.4465 0.0
H525 H 0.58581 0.71946 0.51097 0.0
H526 H 0.63017 0.77805 0.57796 0.0
H527 H 0.73052 0.79768 0.53004 0.0
H528 H 0.68679 0.73986 0.4584 0.0
H529 H 0.55205 0.62601 0.05533 0.0
H530 H 0.53843 0.63117 0.18394 0.0
H531 H 0.65563 0.68472 0.26329 0.0
H532 H 0.67036 0.68125 0.13226 0.0
H533 H 0.63525 0.71417 0.33154 0.0
H534 H 0.57167 0.59532 0.27265 0.0
H535 H 0.52581 0.53834 0.19713 0.0
H536 H 0.42916 0.52453 0.24175 0.0
H537 H 0.47454 0.58153 0.31711 0.0
C538 C 0.61367 0.65334 0.63959 0.0
C539 C 0.57864 0.62915 0.67632 0.0
C540 C 0.61445 0.66723 0.57616 0.0
C541 C 0.58014 0.65703 0.54885 0.0
C542 C 0.54621 0.6354 0.59027 0.0
C543 C 0.54537 0.62129 0.65343 0.0
C544 C 0.57673 0.65991 0.46797 0.0
C545 C 0.54911 0.62863 0.42124 0.0
C546 C 0.60664 0.69129 0.43483 0.0
C547 C 0.63307 0.7253 0.48035 0.0
C548 C 0.61732 0.73621 0.51521 0.0
C549 C 0.64238 0.76938 0.55346 0.0
C550 C 0.6831 0.79139 0.55958 0.0
C551 C 0.69895 0.78054 0.52574 0.0
C552 C 0.6741 0.74776 0.48539 0.0
C553 C 0.57493 0.63866 0.1 0.0
C554 C 0.61215 0.65279 0.08433 0.0
C555 C 0.56712 0.64183 0.17346 0.0
C556 C 0.59588 0.65807 0.23296 0.0
C557 C 0.63313 0.67223 0.21769 0.0
C558 C 0.64135 0.66982 0.14347 0.0
C559 C 0.58641 0.65844 0.31184 0.0
C560 C 0.61141 0.69021 0.35694 0.0
C561 C 0.55387 0.62738 0.34364 0.0
C562 C 0.52655 0.59287 0.29945 0.0
C563 C 0.54067 0.58019 0.26595 0.0
C564 C 0.51476 0.54788 0.22328 0.0
C565 C 0.47462 0.52789 0.21438 0.0
C566 C 0.46027 0.54008 0.24848 0.0
C567 C 0.48606 0.57237 0.2912 0.0
H568 H 0.45461 0.5029 0.18127 0.0
H569 H 0.70236 0.81691 0.59002 0.0
loop_
_geom_bond_atom_site_label_1
_geom_bond_atom_site_label_2
_geom_bond_distance
_geom_bond_site_symmetry_2
_ccdc_geom_bond_type
Ho0 C3 2.811 . S
Ho0 O20 2.322 . S
Ho0 O22 2.378 . S
Ho0 O23 2.524 . S
Ho0 O24 2.381 . S
Ho0 O25 2.669 . S
Ho0 O27 2.346 1_455 S
Ho0 O31 2.305 . S
Ho1 C12 2.811 1_455 S
Ho1 O21 2.346 . S
Ho1 O25 2.305 . S
Ho1 O26 2.322 1_455 S
Ho1 O28 2.378 1_455 S
Ho1 O29 2.524 1_455 S
Ho1 O30 2.381 . S
Ho1 O31 2.669 . S
C2 O20 1.259 . S
C2 O21 1.268 . S
C3 Ho0 2.811 . S
C3 C4 1.488 . S
C3 O22 1.215 . S
C3 O23 1.289 . S
C4 C3 1.488 . S
C4 C5 1.348 . S
C4 C9 1.413 . S
C5 C4 1.348 . S
C5 C6 1.442 . S
C5 H32 0.930 . S
C6 C5 1.442 . S
C6 C7 1.381 . S
C6 H33 0.931 . S
C7 C6 1.381 . S
C7 C8 1.321 . S
C8 C7 1.321 . S
C8 C9 1.403 . S
C8 H34 0.934 . S
C9 C4 1.413 . S
C9 C8 1.403 . S
C9 H35 0.930 . S
C10 O24 1.275 . S
C10 O25 1.256 . S
C11 O26 1.259 . S
C11 O27 1.268 . S
C12 Ho1 2.811 1_655 S
C12 C13 1.488 . S
C12 O28 1.215 . S
C12 O29 1.289 . S
C13 C12 1.488 . S
C13 C14 1.348 . S
C13 C18 1.413 . S
C14 C13 1.348 . S
C14 C15 1.442 . S
C14 H36 0.930 . S
C15 C14 1.442 . S
C15 C16 1.381 . S
C15 H37 0.931 . S
C16 C15 1.381 . S
C16 C17 1.321 . S
C17 C16 1.321 . S
C17 C18 1.403 . S
C17 H38 0.934 . S
C18 C13 1.413 . S
C18 C17 1.403 . S
C18 H39 0.930 . S
C19 O30 1.275 . S
C19 O31 1.256 . S
O20 Ho0 2.322 . S
O20 C2 1.259 . S
O21 Ho1 2.346 . S
O21 C2 1.268 . S
O22 Ho0 2.378 . S
O22 C3 1.215 . S
O23 Ho0 2.524 . S
O23 C3 1.289 . S
O24 Ho0 2.381 . S
O24 C10 1.275 . S
O25 Ho0 2.669 . S
O25 Ho1 2.305 . S
O25 C10 1.256 . S
O26 Ho1 2.322 1_655 S
O26 C11 1.259 . S
O27 Ho0 2.346 1_655 S
O27 C11 1.268 . S
O28 Ho1 2.378 1_655 S
O28 C12 1.215 . S
O29 Ho1 2.524 1_655 S
O29 C12 1.289 . S
O30 Ho1 2.381 . S
O30 C19 1.275 . S
O31 Ho0 2.305 . S
O31 Ho1 2.669 . S
O31 C19 1.256 . S
H32 C5 0.930 . S
H33 C6 0.931 . S
H34 C8 0.934 . S
H35 C9 0.930 . S
H36 C14 0.930 . S
H37 C15 0.931 . S
H38 C17 0.934 . S
H39 C18 0.930 . S
Ho40 C43 2.811 . S
Ho40 O60 2.322 . S
Ho40 O62 2.378 . S
Ho40 O63 2.524 . S
Ho40 O64 2.381 . S
Ho40 O65 2.669 . S
Ho40 O67 2.346 . S
Ho40 O71 2.305 . S
Ho41 C52 2.811 . S
Ho41 O61 2.346 . S
Ho41 O65 2.305 . S
Ho41 O66 2.322 . S
Ho41 O68 2.378 . S
Ho41 O69 2.524 . S
Ho41 O70 2.381 . S
Ho41 O71 2.669 . S
C42 O60 1.259 . S
C42 O61 1.268 . S
C43 Ho40 2.811 . S
C43 C44 1.488 1_545 S
C43 O62 1.215 . S
C43 O63 1.289 . S
C44 C43 1.488 1_565 S
C44 C45 1.348 . S
C44 C49 1.413 . S
C45 C44 1.348 . S
C45 C46 1.442 . S
C45 H72 0.930 . S
C46 C45 1.442 . S
C46 C47 1.381 . S
C46 H73 0.931 . S
C47 C46 1.381 . S
C47 C48 1.321 . S
C48 C47 1.321 . S
C48 C49 1.403 . S
C48 H74 0.934 . S
C49 C44 1.413 . S
C49 C48 1.403 . S
C49 H75 0.930 . S
C50 O64 1.275 . S
C50 O65 1.256 . S
C51 O66 1.259 . S
C51 O67 1.268 . S
C52 Ho41 2.811 . S
C52 C53 1.488 . S
C52 O68 1.215 . S
C52 O69 1.289 . S
C53 C52 1.488 . S
C53 C54 1.348 . S
C53 C58 1.413 . S
C54 C53 1.348 . S
C54 C55 1.442 . S
C54 H76 0.930 . S
C55 C54 1.442 . S
C55 C56 1.381 . S
C55 H77 0.931 . S
C56 C55 1.381 . S
C56 C57 1.321 . S
C57 C56 1.321 . S
C57 C58 1.403 . S
C57 H78 0.934 . S
C58 C53 1.413 . S
C58 C57 1.403 . S
C58 H79 0.930 . S
C59 O70 1.275 . S
C59 O71 1.256 . S
O60 Ho40 2.322 . S
O60 C42 1.259 . S
O61 Ho41 2.346 . S
O61 C42 1.268 . S
O62 Ho40 2.378 . S
O62 C43 1.215 . S
O63 Ho40 2.524 . S
O63 C43 1.289 . S
O64 Ho40 2.381 . S
O64 C50 1.275 . S
O65 Ho40 2.669 . S
O65 Ho41 2.305 . S
O65 C50 1.256 . S
O66 Ho41 2.322 . S
O66 C51 1.259 . S
O67 Ho40 2.346 . S
O67 C51 1.268 . S
O68 Ho41 2.378 . S
O68 C52 1.215 . S
O69 Ho41 2.524 . S
O69 C52 1.289 . S
O70 Ho41 2.381 . S
O70 C59 1.275 . S
O71 Ho40 2.305 . S
O71 Ho41 2.669 . S
O71 C59 1.256 . S
H72 C45 0.930 . S
H73 C46 0.931 . S
H74 C48 0.934 . S
H75 C49 0.930 . S
H76 C54 0.930 . S
H77 C55 0.931 . S
H78 C57 0.934 . S
H79 C58 0.930 . S
Ho80 C83 2.811 . S
Ho80 O100 2.322 . S
Ho80 O102 2.378 . S
Ho80 O103 2.524 . S
Ho80 O104 2.381 1_556 S
Ho80 O105 2.669 . S
Ho80 O107 2.346 . S
Ho80 O111 2.305 . S
Ho81 C92 2.811 . S
Ho81 O101 2.346 . S
Ho81 O105 2.305 . S
Ho81 O106 2.322 . S
Ho81 O108 2.378 . S
Ho81 O109 2.524 . S
Ho81 O110 2.381 . S
Ho81 O111 2.669 . S
C82 O100 1.259 . S
C82 O101 1.268 . S
C83 Ho80 2.811 . S
C83 C84 1.488 . S
C83 O102 1.215 . S
C83 O103 1.289 . S
C84 C83 1.488 . S
C84 C85 1.348 . S
C84 C89 1.413 . S
C85 C84 1.348 . S
C85 C86 1.442 . S
C85 H112 0.930 . S
C86 C85 1.442 . S
C86 C87 1.381 . S
C86 H113 0.931 . S
C87 C86 1.381 . S
C87 C88 1.321 . S
C88 C87 1.321 . S
C88 C89 1.403 . S
C88 H114 0.934 . S
C89 C84 1.413 . S
C89 C88 1.403 . S
C89 H115 0.930 . S
C90 O104 1.275 . S
C90 O105 1.256 1_554 S
C91 O106 1.259 . S
C91 O107 1.268 . S
C92 Ho81 2.811 . S
C92 C93 1.488 . S
C92 O108 1.215 . S
C92 O109 1.289 . S
C93 C92 1.488 . S
C93 C94 1.348 . S
C93 C98 1.413 . S
C94 C93 1.348 . S
C94 C95 1.442 . S
C94 H116 0.930 . S
C95 C94 1.442 . S
C95 C96 1.381 . S
C95 H117 0.931 . S
C96 C95 1.381 . S
C96 C97 1.321 . S
C97 C96 1.321 . S
C97 C98 1.403 . S
C97 H118 0.934 . S
C98 C93 1.413 . S
C98 C97 1.403 . S
C98 H119 0.930 . S
C99 O110 1.275 . S
C99 O111 1.256 . S
O100 Ho80 2.322 . S
O100 C82 1.259 . S
O101 Ho81 2.346 . S
O101 C82 1.268 . S
O102 Ho80 2.378 . S
O102 C83 1.215 . S
O103 Ho80 2.524 . S
O103 C83 1.289 . S
O104 Ho80 2.381 1_554 S
O104 C90 1.275 . S
O105 Ho80 2.669 . S
O105 Ho81 2.305 . S
O105 C90 1.256 1_556 S
O106 Ho81 2.322 . S
O106 C91 1.259 . S
O107 Ho80 2.346 . S
O107 C91 1.268 . S
O108 Ho81 2.378 . S
O108 C92 1.215 . S
O109 Ho81 2.524 . S
O109 C92 1.289 . S
O110 Ho81 2.381 . S
O110 C99 1.275 . S
O111 Ho80 2.305 . S
O111 Ho81 2.669 . S
O111 C99 1.256 . S
H112 C85 0.930 . S
H113 C86 0.931 . S
H114 C88 0.934 . S
H115 C89 0.930 . S
H116 C94 0.930 . S
H117 C95 0.931 . S
H118 C97 0.934 . S
H119 C98 0.930 . S
H120 C138 0.951 . S
H121 C140 0.951 . S
H122 C142 0.950 . S
H123 C143 0.950 . S
H124 C145 0.950 . S
H125 C148 0.950 . S
H126 C149 0.950 . S
H127 C151 0.950 . S
H128 C152 0.950 . S
H129 C153 0.951 . S
H130 C155 0.951 . S
H131 C157 0.950 . S
H132 C158 0.950 . S
H133 C160 0.950 . S
H134 C163 0.950 . S
H135 C164 0.950 . S
H136 C166 0.950 . S
H137 C167 0.950 . S
C138 H120 0.951 . S
C138 C139 1.366 . S
C138 C140 1.388 . S
C139 C138 1.366 . S
C139 C143 1.385 . S
C140 H121 0.951 . S
C140 C138 1.388 . S
C140 C141 1.366 . S
C141 C140 1.366 . S
C141 C142 1.414 . S
C141 C144 1.499 . S
C142 H122 0.950 . S
C142 C141 1.414 . S
C142 C143 1.374 . S
C143 H123 0.950 . S
C143 C139 1.385 . S
C143 C142 1.374 . S
C144 C141 1.499 . S
C144 C145 1.373 . S
C144 C146 1.389 1_554 S
C145 H124 0.950 . S
C145 C144 1.373 . S
C145 C161 1.377 . S
C146 C144 1.389 1_556 S
C146 C147 1.524 . S
C146 C160 1.377 . S
C147 C146 1.524 . S
C147 C148 1.397 . S
C147 C152 1.363 . S
C148 H125 0.950 . S
C148 C147 1.397 . S
C148 C149 1.334 . S
C149 H126 0.950 . S
C149 C148 1.334 . S
C149 C150 1.287 . S
C150 C149 1.287 . S
C150 C151 1.524 . S
C150 H169 0.913 . S
C151 H127 0.950 . S
C151 C150 1.524 . S
C151 C152 1.415 . S
C152 H128 0.950 . S
C152 C147 1.363 . S
C152 C151 1.415 . S
C153 H129 0.951 . S
C153 C154 1.366 . S
C153 C155 1.388 . S
C154 C153 1.366 . S
C154 C158 1.385 . S
C155 H130 0.951 . S
C155 C153 1.388 . S
C155 C156 1.366 . S
C156 C155 1.366 . S
C156 C157 1.414 . S
C156 C159 1.499 . S
C157 H131 0.950 . S
C157 C156 1.414 . S
C157 C158 1.374 . S
C158 H132 0.950 . S
C158 C154 1.385 . S
C158 C157 1.374 . S
C159 C156 1.499 . S
C159 C160 1.373 . S
C159 C161 1.389 1_556 S
C160 H133 0.950 . S
C160 C146 1.377 . S
C160 C159 1.373 . S
C161 C145 1.377 . S
C161 C159 1.389 1_554 S
C161 C162 1.524 . S
C162 C161 1.524 . S
C162 C163 1.397 . S
C162 C167 1.363 . S
C163 H134 0.950 . S
C163 C162 1.397 . S
C163 C164 1.334 . S
C164 H135 0.950 . S
C164 C163 1.334 . S
C164 C165 1.287 . S
C165 C164 1.287 . S
C165 C166 1.524 . S
C165 H168 0.999 . S
C166 H136 0.950 . S
C166 C165 1.524 . S
C166 C167 1.415 . S
C167 H137 0.950 . S
C167 C162 1.363 . S
C167 C166 1.415 . S
H168 C165 0.999 . S
H169 C150 0.913 . S
H170 C188 0.951 . S
H171 C190 0.951 . S
H172 C192 0.950 . S
H173 C193 0.950 . S
H174 C195 0.950 . S
H175 C198 0.950 . S
H176 C199 0.950 . S
H177 C201 0.950 . S
H178 C202 0.950 . S
H179 C203 0.951 . S
H180 C205 0.951 . S
H181 C207 0.950 . S
H182 C208 0.950 . S
H183 C210 0.950 . S
H184 C213 0.950 . S
H185 C214 0.950 . S
H186 C216 0.950 . S
H187 C217 0.950 . S
C188 H170 0.951 . S
C188 C189 1.366 . S
C188 C190 1.388 . S
C189 C188 1.366 . S
C189 C193 1.385 . S
C190 H171 0.951 . S
C190 C188 1.388 . S
C190 C191 1.366 . S
C191 C190 1.366 . S
C191 C192 1.414 . S
C191 C194 1.499 . S
C192 H172 0.950 . S
C192 C191 1.414 . S
C192 C193 1.374 . S
C193 H173 0.950 . S
C193 C189 1.385 . S
C193 C192 1.374 . S
C194 C191 1.499 . S
C194 C195 1.373 . S
C194 C196 1.389 . S
C195 H174 0.950 . S
C195 C194 1.373 . S
C195 C211 1.377 . S
C196 C194 1.389 . S
C196 C197 1.524 . S
C196 C210 1.377 . S
C197 C196 1.524 . S
C197 C198 1.397 . S
C197 C202 1.363 . S
C198 H175 0.950 . S
C198 C197 1.397 . S
C198 C199 1.334 . S
C199 H176 0.950 . S
C199 C198 1.334 . S
C199 C200 1.287 . S
C200 C199 1.287 . S
C200 C201 1.524 . S
C200 H219 0.913 . S
C201 H177 0.950 . S
C201 C200 1.524 . S
C201 C202 1.415 . S
C202 H178 0.950 . S
C202 C197 1.363 . S
C202 C201 1.415 . S
C203 H179 0.951 . S
C203 C204 1.366 . S
C203 C205 1.388 . S
C204 C203 1.366 . S
C204 C208 1.385 . S
C205 H180 0.951 . S
C205 C203 1.388 . S
C205 C206 1.366 . S
C206 C205 1.366 . S
C206 C207 1.414 . S
C206 C209 1.499 . S
C207 H181 0.950 . S
C207 C206 1.414 . S
C207 C208 1.374 . S
C208 H182 0.950 . S
C208 C204 1.385 . S
C208 C207 1.374 . S
C209 C206 1.499 . S
C209 C210 1.373 . S
C209 C211 1.389 . S
C210 H183 0.950 . S
C210 C196 1.377 . S
C210 C209 1.373 . S
C211 C195 1.377 . S
C211 C209 1.389 . S
C211 C212 1.524 . S
C212 C211 1.524 . S
C212 C213 1.397 . S
C212 C217 1.363 . S
C213 H184 0.950 . S
C213 C212 1.397 . S
C213 C214 1.334 . S
C214 H185 0.950 . S
C214 C213 1.334 . S
C214 C215 1.287 . S
C215 C214 1.287 . S
C215 C216 1.524 . S
C215 H218 0.999 . S
C216 H186 0.950 . S
C216 C215 1.524 . S
C216 C217 1.415 . S
C217 H187 0.950 . S
C217 C212 1.363 . S
C217 C216 1.415 . S
H218 C215 0.999 . S
H219 C200 0.913 . S
H220 C238 0.951 . S
H221 C240 0.951 . S
H222 C242 0.950 . S
H223 C243 0.950 . S
H224 C245 0.950 . S
H225 C248 0.950 . S
H226 C249 0.950 . S
H227 C251 0.950 . S
H228 C252 0.950 . S
H229 C253 0.951 . S
H230 C255 0.951 . S
H231 C257 0.950 . S
H232 C258 0.950 . S
H233 C260 0.950 . S
H234 C263 0.950 . S
H235 C264 0.950 . S
H236 C266 0.950 . S
H237 C267 0.950 . S
C238 H220 0.951 . S
C238 C239 1.366 . S
C238 C240 1.388 . S
C239 C238 1.366 . S
C239 C243 1.385 . S
C240 H221 0.951 . S
C240 C238 1.388 . S
C240 C241 1.366 . S
C241 C240 1.366 . S
C241 C242 1.414 . S
C241 C244 1.499 . S
C242 H222 0.950 . S
C242 C241 1.414 . S
C242 C243 1.374 . S
C243 H223 0.950 . S
C243 C239 1.385 . S
C243 C242 1.374 . S
C244 C241 1.499 . S
C244 C245 1.373 . S
C244 C246 1.389 . S
C245 H224 0.950 . S
C245 C244 1.373 . S
C245 C261 1.377 . S
C246 C244 1.389 . S
C246 C247 1.524 . S
C246 C260 1.377 . S
C247 C246 1.524 . S
C247 C248 1.397 . S
C247 C252 1.363 . S
C248 H225 0.950 . S
C248 C247 1.397 . S
C248 C249 1.334 . S
C249 H226 0.950 . S
C249 C248 1.334 . S
C249 C250 1.287 . S
C250 C249 1.287 . S
C250 C251 1.524 . S
C250 H269 0.913 . S
C251 H227 0.950 . S
C251 C250 1.524 . S
C251 C252 1.415 . S
C252 H228 0.950 . S
C252 C247 1.363 . S
C252 C251 1.415 . S
C253 H229 0.951 . S
C253 C254 1.366 . S
C253 C255 1.388 . S
C254 C253 1.366 . S
C254 C258 1.385 . S
C255 H230 0.951 . S
C255 C253 1.388 . S
C255 C256 1.366 . S
C256 C255 1.366 . S
C256 C257 1.414 . S
C256 C259 1.499 . S
C257 H231 0.950 . S
C257 C256 1.414 . S
C257 C258 1.374 . S
C258 H232 0.950 . S
C258 C254 1.385 . S
C258 C257 1.374 . S
C259 C256 1.499 . S
C259 C260 1.373 . S
C259 C261 1.389 . S
C260 H233 0.950 . S
C260 C246 1.377 . S
C260 C259 1.373 . S
C261 C245 1.377 . S
C261 C259 1.389 . S
C261 C262 1.524 . S
C262 C261 1.524 . S
C262 C263 1.397 . S
C262 C267 1.363 . S
C263 H234 0.950 . S
C263 C262 1.397 . S
C263 C264 1.334 . S
C264 H235 0.950 . S
C264 C263 1.334 . S
C264 C265 1.287 . S
C265 C264 1.287 . S
C265 C266 1.524 . S
C265 H268 0.999 . S
C266 H236 0.950 . S
C266 C265 1.524 . S
C266 C267 1.415 . S
C267 H237 0.950 . S
C267 C262 1.363 . S
C267 C266 1.415 . S
H268 C265 0.999 . S
H269 C250 0.913 . S
H270 C288 0.951 . S
H271 C290 0.951 . S
H272 C292 0.950 . S
H273 C293 0.950 . S
H274 C295 0.950 . S
H275 C298 0.950 . S
H276 C299 0.950 . S
H277 C301 0.950 . S
H278 C302 0.950 . S
H279 C303 0.951 . S
H280 C305 0.951 . S
H281 C307 0.950 . S
H282 C308 0.950 . S
H283 C310 0.950 . S
H284 C313 0.950 1_556 S
H285 C314 0.947 1_556 S
H286 C316 0.950 . S
H287 C317 0.950 . S
C288 H270 0.951 . S
C288 C289 1.366 . S
C288 C290 1.388 . S
C289 C288 1.366 . S
C289 C293 1.385 . S
C290 H271 0.951 . S
C290 C288 1.388 . S
C290 C291 1.366 . S
C291 C290 1.366 . S
C291 C292 1.414 1_556 S
C291 C294 1.499 1_556 S
C292 H272 0.950 . S
C292 C291 1.414 1_554 S
C292 C293 1.374 1_554 S
C293 H273 0.950 . S
C293 C289 1.385 . S
C293 C292 1.374 1_556 S
C294 C291 1.499 1_554 S
C294 C295 1.373 . S
C294 C296 1.389 . S
C295 H274 0.950 . S
C295 C294 1.373 . S
C295 C311 1.377 . S
C296 C294 1.389 . S
C296 C297 1.524 1_554 S
C296 C310 1.377 . S
C297 C296 1.524 1_556 S
C297 C298 1.397 1_556 S
C297 C302 1.363 . S
C298 H275 0.950 . S
C298 C297 1.397 1_554 S
C298 C299 1.334 . S
C299 H276 0.950 . S
C299 C298 1.334 . S
C299 C300 1.287 1_554 S
C300 C299 1.287 1_556 S
C300 C301 1.524 . S
C300 H319 0.913 . S
C301 H277 0.950 . S
C301 C300 1.524 . S
C301 C302 1.415 . S
C302 H278 0.950 . S
C302 C297 1.363 . S
C302 C301 1.415 . S
C303 H279 0.951 . S
C303 C304 1.366 . S
C303 C305 1.388 . S
C304 C303 1.366 . S
C304 C308 1.385 . S
C305 H280 0.951 . S
C305 C303 1.388 . S
C305 C306 1.366 . S
C306 C305 1.366 . S
C306 C307 1.414 . S
C306 C309 1.499 . S
C307 H281 0.950 . S
C307 C306 1.414 . S
C307 C308 1.374 . S
C308 H282 0.950 . S
C308 C304 1.385 . S
C308 C307 1.374 . S
C309 C306 1.499 . S
C309 C310 1.373 . S
C309 C311 1.389 . S
C310 H283 0.950 . S
C310 C296 1.377 . S
C310 C309 1.373 . S
C311 C295 1.377 . S
C311 C309 1.389 . S
C311 C312 1.524 . S
C312 C311 1.524 . S
C312 C313 1.397 . S
C312 C317 1.363 . S
C313 H284 0.950 1_554 S
C313 C312 1.397 . S
C313 C314 1.334 . S
C314 H285 0.947 1_554 S
C314 C313 1.334 . S
C314 C315 1.287 . S
C315 C314 1.287 . S
C315 C316 1.524 . S
C315 H318 0.999 . S
C316 H286 0.950 . S
C316 C315 1.524 . S
C316 C317 1.415 . S
C317 H287 0.950 . S
C317 C312 1.363 . S
C317 C316 1.415 . S
H318 C315 0.999 . S
H319 C300 0.913 . S
H320 C338 0.951 . S
H321 C340 0.951 . S
H322 C342 0.950 . S
H323 C343 0.950 . S
H324 C345 0.950 . S
H325 C348 0.950 . S
H326 C349 0.950 . S
H327 C351 0.950 . S
H328 C352 0.950 . S
H329 C353 0.951 . S
H330 C355 0.951 . S
H331 C357 0.950 . S
H332 C358 0.950 . S
H333 C360 0.950 . S
H334 C363 0.950 . S
H335 C364 0.950 . S
H336 C366 0.950 1_556 S
H337 C367 0.950 . S
C338 H320 0.951 . S
C338 C339 1.366 . S
C338 C340 1.388 . S
C339 C338 1.366 . S
C339 C343 1.385 . S
C340 H321 0.951 . S
C340 C338 1.388 . S
C340 C341 1.366 . S
C341 C340 1.366 . S
C341 C342 1.414 . S
C341 C344 1.499 . S
C342 H322 0.950 . S
C342 C341 1.414 . S
C342 C343 1.374 . S
C343 H323 0.950 . S
C343 C339 1.385 . S
C343 C342 1.374 . S
C344 C341 1.499 . S
C344 C345 1.373 . S
C344 C346 1.389 . S
C345 H324 0.950 . S
C345 C344 1.373 . S
C345 C361 1.377 . S
C346 C344 1.389 . S
C346 C347 1.524 . S
C346 C360 1.377 . S
C347 C346 1.524 . S
C347 C348 1.397 . S
C347 C352 1.363 . S
C348 H325 0.950 . S
C348 C347 1.397 . S
C348 C349 1.334 . S
C349 H326 0.950 . S
C349 C348 1.334 . S
C349 C350 1.287 . S
C350 C349 1.287 . S
C350 C351 1.524 . S
C350 H369 0.913 . S
C351 H327 0.950 . S
C351 C350 1.524 . S
C351 C352 1.415 . S
C352 H328 0.950 . S
C352 C347 1.363 . S
C352 C351 1.415 . S
C353 H329 0.951 . S
C353 C354 1.366 . S
C353 C355 1.388 . S
C354 C353 1.366 . S
C354 C358 1.385 . S
C355 H330 0.951 . S
C355 C353 1.388 . S
C355 C356 1.366 . S
C356 C355 1.366 . S
C356 C357 1.414 . S
C356 C359 1.499 . S
C357 H331 0.950 . S
C357 C356 1.414 . S
C357 C358 1.374 . S
C358 H332 0.950 . S
C358 C354 1.385 . S
C358 C357 1.374 . S
C359 C356 1.499 . S
C359 C360 1.373 . S
C359 C361 1.389 . S
C360 H333 0.950 . S
C360 C346 1.377 . S
C360 C359 1.373 . S
C361 C345 1.377 . S
C361 C359 1.389 . S
C361 C362 1.524 . S
C362 C361 1.524 . S
C362 C363 1.397 . S
C362 C367 1.363 . S
C363 H334 0.950 . S
C363 C362 1.397 . S
C363 C364 1.334 . S
C364 H335 0.950 . S
C364 C363 1.334 . S
C364 C365 1.287 . S
C365 C364 1.287 . S
C365 C366 1.524 . S
C365 H368 0.999 1_554 S
C366 H336 0.950 1_554 S
C366 C365 1.524 . S
C366 C367 1.415 . S
C367 H337 0.950 . S
C367 C362 1.363 . S
C367 C366 1.415 . S
H368 C365 0.999 1_556 S
H369 C350 0.913 . S
H370 C388 0.951 . S
H371 C390 0.951 . S
H372 C392 0.950 . S
H373 C393 0.950 . S
H374 C395 0.950 . S
H375 C398 0.950 . S
H376 C399 0.950 . S
H377 C401 0.950 . S
H378 C402 0.950 . S
H379 C403 0.951 . S
H380 C405 0.951 . S
H381 C407 0.950 . S
H382 C408 0.950 . S
H383 C410 0.950 . S
H384 C413 0.950 . S
H385 C414 0.950 . S
H386 C416 0.950 . S
H387 C417 0.950 . S
C388 H370 0.951 . S
C388 C389 1.366 . S
C388 C390 1.388 . S
C389 C388 1.366 . S
C389 C393 1.385 . S
C390 H371 0.951 . S
C390 C388 1.388 . S
C390 C391 1.366 . S
C391 C390 1.366 . S
C391 C392 1.414 . S
C391 C394 1.499 . S
C392 H372 0.950 . S
C392 C391 1.414 . S
C392 C393 1.374 . S
C393 H373 0.950 . S
C393 C389 1.385 . S
C393 C392 1.374 . S
C394 C391 1.499 . S
C394 C395 1.373 . S
C394 C396 1.389 . S
C395 H374 0.950 . S
C395 C394 1.373 . S
C395 C411 1.377 . S
C396 C394 1.389 . S
C396 C397 1.524 . S
C396 C410 1.377 . S
C397 C396 1.524 . S
C397 C398 1.397 . S
C397 C402 1.363 . S
C398 H375 0.950 . S
C398 C397 1.397 . S
C398 C399 1.334 . S
C399 H376 0.950 . S
C399 C398 1.334 . S
C399 C400 1.287 . S
C400 C399 1.287 . S
C400 C401 1.524 . S
C400 H419 0.913 . S
C401 H377 0.950 . S
C401 C400 1.524 . S
C401 C402 1.415 . S
C402 H378 0.950 . S
C402 C397 1.363 . S
C402 C401 1.415 . S
C403 H379 0.951 . S
C403 C404 1.366 . S
C403 C405 1.388 . S
C404 C403 1.366 . S
C404 C408 1.385 . S
C405 H380 0.951 . S
C405 C403 1.388 . S
C405 C406 1.366 . S
C406 C405 1.366 . S
C406 C407 1.414 . S
C406 C409 1.499 . S
C407 H381 0.950 . S
C407 C406 1.414 . S
C407 C408 1.374 . S
C408 H382 0.950 . S
C408 C404 1.385 . S
C408 C407 1.374 . S
C409 C406 1.499 . S
C409 C410 1.373 . S
C409 C411 1.389 . S
C410 H383 0.950 . S
C410 C396 1.377 . S
C410 C409 1.373 . S
C411 C395 1.377 . S
C411 C409 1.389 . S
C411 C412 1.524 . S
C412 C411 1.524 . S
C412 C413 1.397 . S
C412 C417 1.363 . S
C413 H384 0.950 . S
C413 C412 1.397 . S
C413 C414 1.334 . S
C414 H385 0.950 . S
C414 C413 1.334 . S
C414 C415 1.287 . S
C415 C414 1.287 . S
C415 C416 1.524 . S
C415 H418 0.999 . S
C416 H386 0.950 . S
C416 C415 1.524 . S
C416 C417 1.415 . S
C417 H387 0.950 . S
C417 C412 1.363 . S
C417 C416 1.415 . S
H418 C415 0.999 . S
H419 C400 0.913 . S
H420 C438 0.951 1_554 S
H421 C440 0.951 . S
H422 C442 0.950 . S
H423 C443 0.950 . S
H424 C445 0.950 . S
H425 C448 0.950 . S
H426 C449 0.950 . S
H427 C451 0.950 . S
H428 C452 0.950 . S
H429 C453 0.951 . S
H430 C455 0.951 . S
H431 C457 0.950 . S
H432 C458 0.950 . S
H433 C460 0.950 . S
H434 C463 0.950 . S
H435 C464 0.950 . S
H436 C466 0.950 . S
H437 C467 0.950 . S
C438 H420 0.951 1_556 S
C438 C439 1.366 1_556 S
C438 C440 1.388 . S
C439 C438 1.366 1_554 S
C439 C443 1.385 1_554 S
C440 H421 0.951 . S
C440 C438 1.388 . S
C440 C441 1.366 . S
C441 C440 1.366 . S
C441 C442 1.414 . S
C441 C444 1.499 . S
C442 H422 0.950 . S
C442 C441 1.414 . S
C442 C443 1.374 . S
C443 H423 0.950 . S
C443 C439 1.385 1_556 S
C443 C442 1.374 . S
C444 C441 1.499 . S
C444 C445 1.373 . S
C444 C446 1.389 1_455 S
C445 H424 0.950 . S
C445 C444 1.373 . S
C445 C461 1.377 . S
C446 C444 1.389 1_655 S
C446 C447 1.524 . S
C446 C460 1.377 . S
C447 C446 1.524 . S
C447 C448 1.397 . S
C447 C452 1.363 . S
C448 H425 0.950 . S
C448 C447 1.397 . S
C448 C449 1.334 . S
C449 H426 0.950 . S
C449 C448 1.334 . S
C449 C450 1.287 . S
C450 C449 1.287 . S
C450 C451 1.524 . S
C450 H469 0.913 . S
C451 H427 0.950 . S
C451 C450 1.524 . S
C451 C452 1.415 . S
C452 H428 0.950 . S
C452 C447 1.363 . S
C452 C451 1.415 . S
C453 H429 0.951 . S
C453 C454 1.366 . S
C453 C455 1.388 . S
C454 C453 1.366 . S
C454 C458 1.385 . S
C455 H430 0.951 . S
C455 C453 1.388 . S
C455 C456 1.366 . S
C456 C455 1.366 . S
C456 C457 1.414 . S
C456 C459 1.499 . S
C457 H431 0.950 . S
C457 C456 1.414 . S
C457 C458 1.374 . S
C458 H432 0.950 . S
C458 C454 1.385 . S
C458 C457 1.374 . S
C459 C456 1.499 . S
C459 C460 1.373 1_455 S
C459 C461 1.389 . S
C460 H433 0.950 . S
C460 C446 1.377 . S
C460 C459 1.373 1_655 S
C461 C445 1.377 . S
C461 C459 1.389 . S
C461 C462 1.524 . S
C462 C461 1.524 . S
C462 C463 1.397 . S
C462 C467 1.363 . S
C463 H434 0.950 . S
C463 C462 1.397 . S
C463 C464 1.334 . S
C464 H435 0.950 . S
C464 C463 1.334 . S
C464 C465 1.287 . S
C465 C464 1.287 . S
C465 C466 1.524 . S
C465 H468 0.999 . S
C466 H436 0.950 . S
C466 C465 1.524 . S
C466 C467 1.415 . S
C467 H437 0.950 . S
C467 C462 1.363 . S
C467 C466 1.415 . S
H468 C465 0.999 . S
H469 C450 0.913 . S
H470 C488 0.951 . S
H471 C490 0.951 . S
H472 C492 0.950 . S
H473 C493 0.950 . S
H474 C495 0.950 . S
H475 C498 0.950 . S
H476 C499 0.950 . S
H477 C501 0.950 . S
H478 C502 0.950 . S
H479 C503 0.951 . S
H480 C505 0.951 . S
H481 C507 0.950 . S
H482 C508 0.950 . S
H483 C510 0.950 . S
H484 C513 0.950 . S
H485 C514 0.950 . S
H486 C516 0.950 . S
H487 C517 0.950 . S
C488 H470 0.951 . S
C488 C489 1.366 . S
C488 C490 1.388 . S
C489 C488 1.366 . S
C489 C493 1.385 . S
C490 H471 0.951 . S
C490 C488 1.388 . S
C490 C491 1.366 . S
C491 C490 1.366 . S
C491 C492 1.414 . S
C491 C494 1.499 . S
C492 H472 0.950 . S
C492 C491 1.414 . S
C492 C493 1.374 . S
C493 H473 0.950 . S
C493 C489 1.385 . S
C493 C492 1.374 . S
C494 C491 1.499 . S
C494 C495 1.373 . S
C494 C496 1.389 . S
C495 H474 0.950 . S
C495 C494 1.373 . S
C495 C511 1.377 1_554 S
C496 C494 1.389 . S
C496 C497 1.524 . S
C496 C510 1.377 1_554 S
C497 C496 1.524 . S
C497 C498 1.397 . S
C497 C502 1.363 . S
C498 H475 0.950 . S
C498 C497 1.397 . S
C498 C499 1.334 . S
C499 H476 0.950 . S
C499 C498 1.334 . S
C499 C500 1.287 . S
C500 C499 1.287 . S
C500 C501 1.524 . S
C500 H519 0.913 . S
C501 H477 0.950 . S
C501 C500 1.524 . S
C501 C502 1.415 . S
C502 H478 0.950 . S
C502 C497 1.363 . S
C502 C501 1.415 . S
C503 H479 0.951 . S
C503 C504 1.366 . S
C503 C505 1.388 . S
C504 C503 1.366 . S
C504 C508 1.385 . S
C505 H480 0.951 . S
C505 C503 1.388 . S
C505 C506 1.366 . S
C506 C505 1.366 . S
C506 C507 1.414 . S
C506 C509 1.499 . S
C507 H481 0.950 . S
C507 C506 1.414 . S
C507 C508 1.374 . S
C508 H482 0.950 . S
C508 C504 1.385 . S
C508 C507 1.374 . S
C509 C506 1.499 . S
C509 C510 1.373 . S
C509 C511 1.389 . S
C510 H483 0.950 . S
C510 C496 1.377 1_556 S
C510 C509 1.373 . S
C511 C495 1.377 1_556 S
C511 C509 1.389 . S
C511 C512 1.524 . S
C512 C511 1.524 . S
C512 C513 1.397 . S
C512 C517 1.363 . S
C513 H484 0.950 . S
C513 C512 1.397 . S
C513 C514 1.334 . S
C514 H485 0.950 . S
C514 C513 1.334 . S
C514 C515 1.285 . S
C515 C514 1.285 . S
C515 C516 1.523 1_545 S
C515 H518 1.001 1_545 S
C516 H486 0.950 . S
C516 C515 1.523 1_565 S
C516 C517 1.415 1_565 S
C517 H487 0.950 . S
C517 C512 1.363 . S
C517 C516 1.415 1_545 S
H518 C515 1.001 1_565 S
H519 C500 0.913 . S
H520 C538 0.951 . S
H521 C540 0.951 . S
H522 C542 0.950 . S
H523 C543 0.950 . S
H524 C545 0.950 . S
H525 C548 0.950 . S
H526 C549 0.950 . S
H527 C551 0.950 . S
H528 C552 0.950 . S
H529 C553 0.951 . S
H530 C555 0.951 . S
H531 C557 0.950 . S
H532 C558 0.950 . S
H533 C560 0.950 . S
H534 C563 0.950 . S
H535 C564 0.950 . S
H536 C566 0.950 . S
H537 C567 0.950 . S
C538 H520 0.951 . S
C538 C539 1.366 . S
C538 C540 1.388 . S
C539 C538 1.366 . S
C539 C543 1.385 . S
C540 H521 0.951 . S
C540 C538 1.388 . S
C540 C541 1.366 . S
C541 C540 1.366 . S
C541 C542 1.414 . S
C541 C544 1.499 . S
C542 H522 0.950 . S
C542 C541 1.414 . S
C542 C543 1.374 . S
C543 H523 0.950 . S
C543 C539 1.385 . S
C543 C542 1.374 . S
C544 C541 1.499 . S
C544 C545 1.373 . S
C544 C546 1.389 . S
C545 H524 0.950 . S
C545 C544 1.373 . S
C545 C561 1.377 . S
C546 C544 1.389 . S
C546 C547 1.524 . S
C546 C560 1.377 . S
C547 C546 1.524 . S
C547 C548 1.397 . S
C547 C552 1.363 . S
C548 H525 0.950 . S
C548 C547 1.397 . S
C548 C549 1.334 . S
C549 H526 0.950 . S
C549 C548 1.334 . S
C549 C550 1.287 . S
C550 C549 1.287 . S
C550 C551 1.524 . S
C550 H569 0.913 . S
C551 H527 0.950 . S
C551 C550 1.524 . S
C551 C552 1.415 . S
C552 H528 0.950 . S
C552 C547 1.363 . S
C552 C551 1.415 . S
C553 H529 0.951 . S
C553 C554 1.366 . S
C553 C555 1.388 . S
C554 C553 1.366 . S
C554 C558 1.385 . S
C555 H530 0.951 . S
C555 C553 1.388 . S
C555 C556 1.366 . S
C556 C555 1.366 . S
C556 C557 1.414 . S
C556 C559 1.499 . S
C557 H531 0.950 . S
C557 C556 1.414 . S
C557 C558 1.374 . S
C558 H532 0.950 . S
C558 C554 1.385 . S
C558 C557 1.374 . S
C559 C556 1.499 . S
C559 C560 1.373 . S
C559 C561 1.389 . S
C560 H533 0.950 . S
C560 C546 1.377 . S
C560 C559 1.373 . S
C561 C545 1.377 . S
C561 C559 1.389 . S
C561 C562 1.524 . S
C562 C561 1.524 . S
C562 C563 1.397 . S
C562 C567 1.363 . S
C563 H534 0.950 . S
C563 C562 1.397 . S
C563 C564 1.334 . S
C564 H535 0.950 . S
C564 C563 1.334 . S
C564 C565 1.287 . S
C565 C564 1.287 . S
C565 C566 1.524 . S
C565 H568 0.999 . S
C566 H536 0.950 . S
C566 C565 1.524 . S
C566 C567 1.415 . S
C567 H537 0.950 . S
C567 C562 1.363 . S
C567 C566 1.415 . S
H568 C565 0.999 . S
H569 C550 0.913 . S
C139 C7 2.212 . S
C154 C82 2.180 . S
C189 C51 3.101 . S
C204 C11 3.069 . S
C239 C47 1.602 . S
C254 C87 1.603 . S
C289 C91 2.540 . S
C304 C16 2.439 . S
C339 C42 2.726 1_565 S
C354 C2 2.704 . S
C389 C96 1.475 . S
C404 C56 1.468 . S
C439 C19 0.396 . S
C454 C10 0.396 . S
C489 C50 0.361 . S
C504 C59 0.361 . S
C539 C99 0.357 . S
C554 C90 0.357 . S
