# Generated by pormake.
# Topology sof, (5)-cn, num edge types: 1
# Building blocks:
#     Node 0, Type 0, BuildingBlock: XOMCOT_clean_sbu_1, # of connection points: 5
#     Node 1, Type 0, BuildingBlock: XOMCOT_clean_sbu_1, # of connection points: 5
#     Node 2, Type 0, BuildingBlock: XOMCOT_clean_sbu_1, # of connection points: 5
#     Node 3, Type 0, BuildingBlock: XOMCOT_clean_sbu_1, # of connection points: 5
#     Node 4, Type 0, BuildingBlock: XOMCOT_clean_sbu_1, # of connection points: 5
#     Node 5, Type 0, BuildingBlock: XOMCOT_clean_sbu_1, # of connection points: 5
#     Node 6, Type 0, BuildingBlock: XOMCOT_clean_sbu_1, # of connection points: 5
#     Node 7, Type 0, BuildingBlock: XOMCOT_clean_sbu_1, # of connection points: 5
#     Edge 8, Type (0, 0), BuildingBlock: TEMPAE_clean_linker_10, # of connection points: 2
#     Edge 9, Type (0, 0), BuildingBlock: TEMPAE_clean_linker_10, # of connection points: 2
#     Edge 10, Type (0, 0), BuildingBlock: TEMPAE_clean_linker_10, # of connection points: 2
#     Edge 11, Type (0, 0), BuildingBlock: TEMPAE_clean_linker_10, # of connection points: 2
#     Edge 12, Type (0, 0), BuildingBlock: TEMPAE_clean_linker_10, # of connection points: 2
#     Edge 13, Type (0, 0), BuildingBlock: TEMPAE_clean_linker_10, # of connection points: 2
#     Edge 14, Type (0, 0), BuildingBlock: TEMPAE_clean_linker_10, # of connection points: 2
#     Edge 15, Type (0, 0), BuildingBlock: TEMPAE_clean_linker_10, # of connection points: 2
#     Edge 16, Type (0, 0), BuildingBlock: TEMPAE_clean_linker_10, # of connection points: 2
#     Edge 17, Type (0, 0), BuildingBlock: TEMPAE_clean_linker_10, # of connection points: 2
#     Edge 18, Type (0, 0), BuildingBlock: TEMPAE_clean_linker_10, # of connection points: 2
#     Edge 19, Type (0, 0), BuildingBlock: TEMPAE_clean_linker_10, # of connection points: 2
#     Edge 20, Type (0, 0), BuildingBlock: TEMPAE_clean_linker_10, # of connection points: 2
#     Edge 21, Type (0, 0), BuildingBlock: TEMPAE_clean_linker_10, # of connection points: 2
#     Edge 22, Type (0, 0), BuildingBlock: TEMPAE_clean_linker_10, # of connection points: 2
#     Edge 23, Type (0, 0), BuildingBlock: TEMPAE_clean_linker_10, # of connection points: 2
#     Edge 24, Type (0, 0), BuildingBlock: TEMPAE_clean_linker_10, # of connection points: 2
#     Edge 25, Type (0, 0), BuildingBlock: TEMPAE_clean_linker_10, # of connection points: 2
#     Edge 26, Type (0, 0), BuildingBlock: TEMPAE_clean_linker_10, # of connection points: 2
#     Edge 27, Type (0, 0), BuildingBlock: TEMPAE_clean_linker_10, # of connection points: 2
# Relax obj value: 0.150
# Max RMSD: 0.158
# Mean RMSD: 0.158
data_MOF--net-sof--node1-XOMCOT_clean_sbu_1--edge1-TEMPAE_clean_linker_10
_symmetry_space_group_name_H-M    P1
_symmetry_Int_Tables_number       1
_symmetry_cell_setting            triclinic
loop_
_symmetry_equiv_pos_as_xyz
'x, y, z'
_cell_length_a     57.522248
_cell_length_b     17.690421
_cell_length_c     49.329913
_cell_angle_alpha  90.009094
_cell_angle_beta   89.957509
_cell_angle_gamma 89.98912
loop_
_atom_site_label
_atom_site_type_symbol
_atom_site_fract_x
_atom_site_fract_y
_atom_site_fract_z
_atom_type_partial_charge
C0 C 0.11215 0.15991 0.09308 0.0
C1 C 0.11402 0.23728 0.09097 0.0
N2 N 0.09834 0.26885 0.10784 0.0
N3 N 0.09536 0.14291 0.11114 0.0
C4 C 0.0872 0.21042 0.1197 0.0
H5 H 0.12244 0.1186 0.08224 0.0
Co6 Co 0.086 0.04635 0.12133 0.0
C7 C 0.0741 0.0623 0.17961 0.0
O8 O 0.08388 0.99631 0.18409 0.0
N9 N 0.07584 0.94844 0.13111 0.0
C10 C 0.05085 0.85735 0.14242 0.0
C11 C 0.05406 0.93399 0.14006 0.0
C12 C 0.08539 0.879 0.12788 0.0
N13 N 0.07061 0.82286 0.13473 0.0
O14 O 0.05717 0.06032 0.10234 0.0
H15 H 0.04103 0.97672 0.14398 0.0
H16 H 0.10233 0.86851 0.11935 0.0
O17 O 0.07311 0.08796 0.15536 0.0
C18 C 0.06048 0.04707 0.07718 0.0
O19 O 0.08159 0.03027 0.06896 0.0
N20 N 0.11557 0.0317 0.13684 0.0
C21 C 0.16308 0.01874 0.14809 0.0
C22 C 0.14878 0.06581 0.16383 0.0
C23 C 0.12515 0.0728 0.15751 0.0
C24 C 0.12946 0.98832 0.12079 0.0
C25 C 0.15298 0.97909 0.12649 0.0
H26 H 0.11511 0.11491 0.16816 0.0
H27 H 0.12247 0.96375 0.10247 0.0
H28 H 0.07312 0.21685 0.13406 0.0
H29 H 0.1262 0.26788 0.07835 0.0
H30 H 0.03509 0.8292 0.14888 0.0
H31 H 0.15601 0.10023 0.17991 0.0
H32 H 0.16328 0.94298 0.11345 0.0
C33 C 0.38548 0.84461 0.09426 0.0
C34 C 0.38358 0.76724 0.09217 0.0
N35 N 0.39979 0.73561 0.10829 0.0
N36 N 0.40284 0.86153 0.11157 0.0
C37 C 0.41128 0.794 0.11969 0.0
H38 H 0.37485 0.88599 0.08393 0.0
Co39 Co 0.41249 0.95801 0.12137 0.0
C40 C 0.42606 0.94208 0.17905 0.0
O41 O 0.4165 0.00828 0.18379 0.0
N42 N 0.42296 0.05596 0.13067 0.0
C43 C 0.4483 0.14706 0.14085 0.0
C44 C 0.44499 0.0704 0.13874 0.0
C45 C 0.41338 0.12543 0.12768 0.0
N46 N 0.42837 0.18156 0.13388 0.0
O47 O 0.44068 0.94414 0.10102 0.0
H48 H 0.4581 0.02765 0.14219 0.0
H49 H 0.39626 0.13597 0.11972 0.0
O50 O 0.4265 0.91632 0.15478 0.0
C51 C 0.43671 0.95836 0.07607 0.0
O52 O 0.41541 0.97609 0.06883 0.0
N53 N 0.38346 0.97241 0.13843 0.0
C54 C 0.33694 0.98803 0.1538 0.0
C55 C 0.35167 0.9382 0.16771 0.0
C56 C 0.3748 0.93014 0.15938 0.0
C57 C 0.36888 0.01711 0.12374 0.0
C58 C 0.34582 0.02762 0.13151 0.0
H59 H 0.38518 0.8868 0.16886 0.0
H60 H 0.37486 0.04171 0.10495 0.0
H61 H 0.42582 0.78755 0.13339 0.0
H62 H 0.37101 0.73668 0.08007 0.0
H63 H 0.46425 0.17521 0.14664 0.0
H64 H 0.34519 0.90414 0.18431 0.0
H65 H 0.33468 0.06319 0.11923 0.0
C66 C 0.11677 0.34411 0.41404 0.0
C67 C 0.11871 0.26671 0.41575 0.0
N68 N 0.09995 0.23584 0.40378 0.0
N69 N 0.09707 0.36174 0.40063 0.0
C70 C 0.08702 0.29453 0.39499 0.0
H71 H 0.12921 0.38495 0.42149 0.0
Co72 Co 0.08741 0.45824 0.39048 0.0
C73 C 0.07523 0.43827 0.33243 0.0
O74 O 0.08562 0.50294 0.32736 0.0
N75 N 0.07694 0.55623 0.38088 0.0
C76 C 0.05351 0.64831 0.36628 0.0
C77 C 0.05654 0.57142 0.36834 0.0
C78 C 0.08524 0.62542 0.38764 0.0
N79 N 0.07158 0.68198 0.37854 0.0
O80 O 0.05906 0.44505 0.41051 0.0
H81 H 0.04425 0.52916 0.36163 0.0
H82 H 0.10055 0.6353 0.39966 0.0
O83 O 0.07374 0.41484 0.35697 0.0
C84 C 0.06306 0.4571 0.4356 0.0
O85 O 0.0845 0.47189 0.44312 0.0
N86 N 0.11663 0.47261 0.37348 0.0
C87 C 0.16305 0.4888 0.35761 0.0
C88 C 0.1486 0.43598 0.34479 0.0
C89 C 0.12556 0.42764 0.3534 0.0
C90 C 0.13098 0.5204 0.3872 0.0
C91 C 0.15397 0.53112 0.37914 0.0
H92 H 0.11546 0.38208 0.34489 0.0
H93 H 0.12516 0.54617 0.40579 0.0
H94 H 0.07091 0.28854 0.38386 0.0
H95 H 0.13284 0.23546 0.42494 0.0
H96 H 0.03877 0.67724 0.35744 0.0
H97 H 0.15524 0.39979 0.32885 0.0
H98 H 0.16494 0.56884 0.39077 0.0
C99 C 0.38735 0.66602 0.41889 0.0
C100 C 0.38548 0.7434 0.42097 0.0
N101 N 0.40123 0.77493 0.4042 0.0
N102 N 0.40421 0.64897 0.40092 0.0
C103 C 0.41241 0.71645 0.39241 0.0
H104 H 0.37703 0.62473 0.42969 0.0
Co105 Co 0.41365 0.55241 0.39082 0.0
C106 C 0.42568 0.5682 0.3326 0.0
O107 O 0.4159 0.50223 0.32811 0.0
N108 N 0.42389 0.4545 0.38113 0.0
C109 C 0.44896 0.3634 0.37002 0.0
C110 C 0.44572 0.44005 0.37233 0.0
C111 C 0.41432 0.38505 0.38428 0.0
N112 N 0.42916 0.32892 0.37755 0.0
O113 O 0.44236 0.5666 0.41001 0.0
H114 H 0.45876 0.48279 0.36851 0.0
H115 H 0.39734 0.37455 0.39266 0.0
O116 O 0.42665 0.59393 0.35685 0.0
C117 C 0.43879 0.55192 0.43501 0.0
O118 O 0.41766 0.53348 0.44267 0.0
N119 N 0.38415 0.53759 0.37516 0.0
C120 C 0.33672 0.52399 0.36365 0.0
C121 C 0.35102 0.57099 0.34791 0.0
C122 C 0.37461 0.57839 0.35438 0.0
C123 C 0.37024 0.4943 0.39121 0.0
C124 C 0.34675 0.48482 0.3854 0.0
H125 H 0.38463 0.62052 0.34375 0.0
H126 H 0.37719 0.46997 0.40959 0.0
H127 H 0.42658 0.72281 0.37816 0.0
H128 H 0.37324 0.77401 0.43353 0.0
H129 H 0.46476 0.33523 0.3637 0.0
H130 H 0.34381 0.60502 0.33172 0.0
H131 H 0.3364 0.44889 0.39846 0.0
C132 C 0.88541 0.85309 0.91857 0.0
C133 C 0.8835 0.77575 0.92084 0.0
N134 N 0.90093 0.74404 0.90659 0.0
N135 N 0.90371 0.86984 0.90256 0.0
C136 C 0.91305 0.80218 0.89592 0.0
H137 H 0.87375 0.89445 0.9273 0.0
Co138 Co 0.91193 0.96575 0.89036 0.0
C139 C 0.9218 0.94039 0.83193 0.0
O140 O 0.91035 1.00297 0.82657 0.0
N141 N 0.92092 0.06392 0.8786 0.0
C142 C 0.94274 0.15723 0.86172 0.0
C143 C 0.94038 0.08019 0.86429 0.0
C144 C 0.91256 0.13277 0.88575 0.0
N145 N 0.92525 0.19003 0.87537 0.0
O146 O 0.94111 0.95755 0.90898 0.0
H147 H 0.95267 0.0387 0.85694 0.0
H148 H 0.89807 0.14188 0.89921 0.0
O149 O 0.92459 0.91998 0.85666 0.0
C150 C 0.9384 0.99135 0.93165 0.0
O151 O 0.91793 0.02071 0.93712 0.0
N152 N 0.8819 0.97541 0.87517 0.0
C153 C 0.83445 0.98547 0.86333 0.0
C154 C 0.84873 0.93454 0.84926 0.0
C155 C 0.8723 0.92882 0.85603 0.0
C156 C 0.86792 0.02236 0.88977 0.0
C157 C 0.84439 0.02983 0.88378 0.0
H158 H 0.88234 0.88396 0.84694 0.0
H159 H 0.87463 0.05026 0.90753 0.0
H160 H 0.92788 0.79534 0.88264 0.0
H161 H 0.87021 0.7451 0.93183 0.0
H162 H 0.95683 0.18692 0.85178 0.0
H163 H 0.84151 0.89653 0.83426 0.0
H164 H 0.83391 0.06824 0.89575 0.0
C165 C 0.61086 0.14741 0.91499 0.0
C166 C 0.61279 0.22475 0.91737 0.0
N167 N 0.59521 0.25671 0.90346 0.0
N168 N 0.59239 0.13089 0.89926 0.0
C169 C 0.58298 0.19866 0.8929 0.0
H170 H 0.62264 0.1059 0.92336 0.0
Co171 Co 0.58411 0.03517 0.88687 0.0
C172 C 0.57383 0.06307 0.82872 0.0
O173 O 0.58538 1.00107 0.8228 0.0
N174 N 0.57506 0.93702 0.87496 0.0
C175 C 0.5536 0.84348 0.85761 0.0
C176 C 0.55593 0.92056 0.8601 0.0
C177 C 0.58315 0.86821 0.88259 0.0
N178 N 0.57072 0.8108 0.8719 0.0
O179 O 0.55512 0.04278 0.90599 0.0
H180 H 0.5438 0.96189 0.85233 0.0
H181 H 0.59718 0.85929 0.89668 0.0
O182 O 0.57101 0.08184 0.85361 0.0
C183 C 0.55747 0.00751 0.92842 0.0
O184 O 0.57765 0.97603 0.93378 0.0
N185 N 0.61396 0.02633 0.87092 0.0
C186 C 0.66076 0.0146 0.85603 0.0
C187 C 0.64634 0.06907 0.84403 0.0
C188 C 0.62313 0.07524 0.85224 0.0
C189 C 0.62824 0.97699 0.88401 0.0
C190 C 0.65143 0.96867 0.87644 0.0
H191 H 0.61297 0.12163 0.84442 0.0
H192 H 0.62215 0.94764 0.90175 0.0
H193 H 0.56802 0.20566 0.87984 0.0
H194 H 0.62622 0.2552 0.92817 0.0
H195 H 0.53976 0.8137 0.84726 0.0
H196 H 0.65308 0.1079 0.82898 0.0
H197 H 0.66229 0.92947 0.88758 0.0
C198 C 0.89172 0.64774 0.59009 0.0
C199 C 0.88969 0.72497 0.58734 0.0
N200 N 0.90272 0.75812 0.60668 0.0
N201 N 0.90597 0.63238 0.61104 0.0
C202 C 0.91249 0.70069 0.62063 0.0
H203 H 0.88325 0.60534 0.57777 0.0
Co204 Co 0.91403 0.53649 0.62305 0.0
C205 C 0.92481 0.55731 0.68144 0.0
O206 O 0.91422 0.49288 0.68633 0.0
N207 N 0.9229 0.43841 0.6346 0.0
C208 C 0.94672 0.34572 0.64749 0.0
C209 C 0.94404 0.42257 0.64514 0.0
C210 C 0.91325 0.36955 0.6303 0.0
N211 N 0.92734 0.31239 0.63806 0.0
O212 O 0.9433 0.54504 0.60442 0.0
H213 H 0.95714 0.46439 0.64984 0.0
H214 H 0.89699 0.36031 0.62001 0.0
O215 O 0.92671 0.58047 0.65691 0.0
C216 C 0.94126 0.50922 0.58205 0.0
O217 O 0.92123 0.47687 0.57659 0.0
N218 N 0.88403 0.52708 0.63802 0.0
C219 C 0.83636 0.51864 0.64897 0.0
C220 C 0.85083 0.56638 0.6642 0.0
C221 C 0.87455 0.57116 0.65797 0.0
C222 C 0.86996 0.48328 0.62235 0.0
C223 C 0.84633 0.47643 0.62791 0.0
H224 H 0.88478 0.61357 0.66817 0.0
H225 H 0.87691 0.45644 0.60443 0.0
H226 H 0.92444 0.7085 0.6373 0.0
H227 H 0.87913 0.75433 0.57255 0.0
H228 H 0.96201 0.31665 0.6549 0.0
H229 H 0.8437 0.60272 0.67979 0.0
H230 H 0.83585 0.43994 0.61521 0.0
C231 C 0.60919 0.36698 0.59189 0.0
C232 C 0.61132 0.28977 0.5891 0.0
N233 N 0.598 0.25639 0.60814 0.0
N234 N 0.59458 0.38207 0.61255 0.0
C235 C 0.58798 0.31364 0.62195 0.0
H236 H 0.61778 0.40953 0.57975 0.0
Co237 Co 0.58609 0.47791 0.62425 0.0
C238 C 0.57305 0.4564 0.68204 0.0
O239 O 0.58339 0.52078 0.68766 0.0
N240 N 0.57681 0.57598 0.63539 0.0
C241 C 0.55268 0.6689 0.64735 0.0
C242 C 0.55541 0.59201 0.64521 0.0
C243 C 0.58653 0.64479 0.63121 0.0
N244 N 0.57228 0.7021 0.63844 0.0
O245 O 0.55752 0.46936 0.60429 0.0
H246 H 0.54219 0.55027 0.64956 0.0
H247 H 0.60299 0.65383 0.62131 0.0
O248 O 0.57213 0.43376 0.65737 0.0
C249 C 0.55998 0.50546 0.58205 0.0
O250 O 0.57999 0.53875 0.57725 0.0
N251 N 0.61548 0.48721 0.64077 0.0
C252 C 0.66228 0.49822 0.65542 0.0
C253 C 0.64737 0.44844 0.66911 0.0
C254 C 0.62408 0.44269 0.66113 0.0
C255 C 0.6302 0.5318 0.62622 0.0
C256 C 0.65342 0.53992 0.63363 0.0
H257 H 0.61347 0.39966 0.67046 0.0
H258 H 0.62418 0.55824 0.60779 0.0
H259 H 0.57575 0.30555 0.63835 0.0
H260 H 0.6221 0.26057 0.57446 0.0
H261 H 0.53723 0.69805 0.65426 0.0
H262 H 0.65378 0.41284 0.68533 0.0
H263 H 0.66465 0.57554 0.62146 0.0
C264 C 0.19805 0.01408 0.17882 0.0
C265 C 0.18867 0.01546 0.15256 0.0
C266 C 0.22223 0.01047 0.18293 0.0
C267 C 0.23731 0.00767 0.16025 0.0
C268 C 0.22794 0.00952 0.13375 0.0
C269 C 0.20382 0.01403 0.13025 0.0
C270 C 0.23164 0.00939 0.21148 0.0
C271 C 0.2434 0.00666 0.10898 0.0
C272 C 0.30083 0.06391 0.16135 0.0
C273 C 0.31182 0.99323 0.16029 0.0
C274 C 0.27656 0.06955 0.16329 0.0
C275 C 0.26296 1.00286 0.1638 0.0
C276 C 0.27406 0.93137 0.16427 0.0
C277 C 0.2984 0.92743 0.16263 0.0
C278 C 0.26543 0.14685 0.16315 0.0
C279 C 0.26019 0.85894 0.16456 0.0
H280 H 0.18648 0.01485 0.19617 0.0
H281 H 0.19685 0.01719 0.10988 0.0
H282 H 0.24142 0.95626 0.21501 0.0
H283 H 0.244 0.05683 0.21439 0.0
H284 H 0.21765 0.0139 0.22693 0.0
H285 H 0.23331 0.0071 0.08978 0.0
H286 H 0.25538 0.05578 0.10892 0.0
H287 H 0.25425 0.9548 0.10944 0.0
H288 H 0.31123 0.11486 0.1598 0.0
H289 H 0.30682 0.87268 0.16157 0.0
H290 H 0.25186 0.15075 0.17909 0.0
H291 H 0.2568 0.15651 0.14335 0.0
H292 H 0.27835 0.19262 0.16643 0.0
H293 H 0.24659 0.86096 0.18049 0.0
H294 H 0.27134 0.8086 0.16808 0.0
H295 H 0.25123 0.85196 0.14479 0.0
C296 C 0.30193 0.51708 0.33273 0.0
C297 C 0.31117 0.52031 0.35904 0.0
C298 C 0.27778 0.51266 0.3285 0.0
C299 C 0.2626 0.51113 0.35111 0.0
C300 C 0.27184 0.51509 0.37765 0.0
C301 C 0.29593 0.52017 0.38126 0.0
C302 C 0.26851 0.50917 0.29992 0.0
C303 C 0.25627 0.51377 0.40234 0.0
C304 C 0.19892 0.56517 0.34914 0.0
C305 C 0.18816 0.49426 0.35103 0.0
C306 C 0.22318 0.57145 0.34719 0.0
C307 C 0.23699 0.5052 0.34745 0.0
C308 C 0.22613 0.43335 0.34774 0.0
C309 C 0.20181 0.42874 0.34943 0.0
C310 C 0.23406 0.64909 0.34657 0.0
C311 C 0.24023 0.36138 0.34822 0.0
H312 H 0.31359 0.51691 0.31547 0.0
H313 H 0.30282 0.52469 0.40164 0.0
H314 H 0.25897 0.45537 0.29681 0.0
H315 H 0.25597 0.55584 0.2965 0.0
H316 H 0.28256 0.51317 0.28452 0.0
H317 H 0.26626 0.51632 0.42159 0.0
H318 H 0.24409 0.56236 0.40177 0.0
H319 H 0.24563 0.46144 0.40239 0.0
H320 H 0.18837 0.6159 0.35008 0.0
H321 H 0.19358 0.37381 0.35113 0.0
H322 H 0.24769 0.65211 0.33068 0.0
H323 H 0.24257 0.66069 0.36631 0.0
H324 H 0.22101 0.69413 0.34273 0.0
H325 H 0.25389 0.36266 0.33235 0.0
H326 H 0.22926 0.31044 0.34512 0.0
H327 H 0.24912 0.35617 0.3681 0.0
C328 C 0.79987 0.9892 0.83219 0.0
C329 C 0.80898 0.98795 0.85856 0.0
C330 C 0.77575 0.99329 0.82779 0.0
C331 C 0.76047 0.99578 0.8503 0.0
C332 C 0.7696 0.99344 0.87693 0.0
C333 C 0.79368 0.98942 0.88071 0.0
C334 C 0.76661 0.99567 0.79913 0.0
C335 C 0.75391 0.99532 0.90151 0.0
C336 C 0.69943 0.07616 0.84822 0.0
C337 C 0.68597 0.01019 0.84969 0.0
C338 C 0.72377 0.07233 0.84659 0.0
C339 C 0.73487 1.00085 0.84646 0.0
C340 C 0.72129 0.93415 0.84614 0.0
C341 C 0.697 0.93965 0.84778 0.0
C342 C 0.73764 0.14476 0.84691 0.0
C343 C 0.73243 0.85687 0.84584 0.0
H344 H 0.81165 0.98829 0.81502 0.0
H345 H 0.80058 0.98677 0.90113 0.0
H346 H 0.7542 0.94857 0.79579 0.0
H347 H 0.75694 0.04911 0.79578 0.0
H348 H 0.78074 0.99161 0.78384 0.0
H349 H 0.76381 0.99301 0.92082 0.0
H350 H 0.74333 0.04776 0.90138 0.0
H351 H 0.74169 0.94684 0.90096 0.0
H352 H 0.69106 0.13086 0.8499 0.0
H353 H 0.68663 0.88851 0.8485 0.0
H354 H 0.75143 0.14335 0.83119 0.0
H355 H 0.74635 0.15099 0.86686 0.0
H356 H 0.72653 0.19521 0.84346 0.0
H357 H 0.74609 0.85378 0.83 0.0
H358 H 0.71954 0.81123 0.84216 0.0
H359 H 0.74095 0.84624 0.86565 0.0
C360 C 0.69889 0.57174 0.66263 0.0
C361 C 0.68749 0.50175 0.66165 0.0
C362 C 0.72321 0.57592 0.66434 0.0
C363 C 0.73643 0.50843 0.6648 0.0
C364 C 0.72493 0.43764 0.66539 0.0
C365 C 0.70056 0.43515 0.66389 0.0
C366 C 0.73477 0.65253 0.664 0.0
C367 C 0.73839 0.36439 0.66572 0.0
C368 C 0.79564 0.51558 0.63114 0.0
C369 C 0.81077 0.51699 0.65344 0.0
C370 C 0.7715 0.51248 0.63467 0.0
C371 C 0.7621 0.51172 0.6612 0.0
C372 C 0.77718 0.51433 0.68386 0.0
C373 C 0.80137 0.51684 0.67972 0.0
C374 C 0.75604 0.51 0.60993 0.0
C375 C 0.76775 0.51413 0.71242 0.0
H376 H 0.68879 0.62334 0.66121 0.0
H377 H 0.69184 0.3809 0.66291 0.0
H378 H 0.74832 0.65594 0.67994 0.0
H379 H 0.74349 0.66124 0.64418 0.0
H380 H 0.72211 0.69917 0.66714 0.0
H381 H 0.72697 0.31476 0.66935 0.0
H382 H 0.74728 0.35666 0.64593 0.0
H383 H 0.75202 0.36579 0.6816 0.0
H384 H 0.80268 0.51763 0.61077 0.0
H385 H 0.81295 0.5176 0.69704 0.0
H386 H 0.74423 0.55958 0.60983 0.0
H387 H 0.74501 0.45857 0.61047 0.0
H388 H 0.76614 0.50987 0.59072 0.0
H389 H 0.75564 0.5623 0.71527 0.0
H390 H 0.78176 0.51803 0.72785 0.0
H391 H 0.75769 0.4616 0.71604 0.0
C392 C 0.046 0.07151 0.03064 0.0
C393 C 0.04145 0.04647 0.05708 0.0
C394 C 0.02946 0.06347 0.00995 0.0
C395 C 0.00805 0.02738 0.01562 0.0
C396 C 0.00326 1.0025 0.04241 0.0
C397 C 0.01994 0.01328 0.06296 0.0
C398 C 0.03501 0.0931 0.98197 0.0
C399 C 0.98079 0.96269 0.04917 0.0
C400 C 0.95689 0.06438 0.96882 0.0
C401 C 0.95735 1.00111 0.95165 0.0
C402 C 0.97335 0.07376 0.98949 0.0
C403 C 0.99051 0.01765 0.99358 0.0
C404 C 0.99119 0.95366 0.9762 0.0
C405 C 0.97473 0.94656 0.95517 0.0
C406 C 0.97235 0.14387 0.00694 0.0
C407 C 0.00903 0.89213 0.98016 0.0
H408 H 0.06268 0.09715 0.02609 0.0
H409 H 0.0166 0.99268 0.0833 0.0
H410 H 0.03524 0.04583 0.96721 0.0
H411 H 0.02133 0.13326 0.97534 0.0
H412 H 0.05209 0.12234 0.98118 0.0
H413 H 0.97985 0.94582 0.07083 0.0
H414 H 0.9658 0.99994 0.04454 0.0
H415 H 0.97898 0.91135 0.03641 0.0
H416 H 0.94357 0.10706 0.96604 0.0
H417 H 0.97497 0.89728 0.94211 0.0
H418 H 0.98917 0.17446 1.0059 0.0
H419 H 0.9695 0.12793 0.02843 0.0
H420 H 0.95826 0.18306 1.00066 0.0
H421 H 0.02679 0.91578 0.97797 0.0
H422 H 0.00691 0.8452 0.96539 0.0
H423 H 0.00764 0.86885 1.00098 0.0
C424 C 0.44944 0.9402 0.02837 0.0
C425 C 0.45518 0.95882 0.05518 0.0
C426 C 0.4657 0.94731 0.00731 0.0
C427 C 0.48816 0.97569 0.01303 0.0
C428 C 0.49416 0.9941 0.04015 0.0
C429 C 0.47765 0.98452 0.06101 0.0
C430 C 0.45877 0.92475 0.97891 0.0
C431 C 0.51781 0.02558 0.04701 0.0
C432 C 0.53733 0.93258 0.9639 0.0
C433 C 0.53839 0.99881 0.94831 0.0
C434 C 0.52093 0.92408 0.98471 0.0
C435 C 0.50549 0.98412 0.99064 0.0
C436 C 0.50634 0.05112 0.97482 0.0
C437 C 0.52262 0.05731 0.95354 0.0
C438 C 0.52019 0.85081 1.00042 0.0
C439 C 0.49041 0.11684 0.98078 0.0
H440 H 0.43206 0.92013 0.02381 0.0
H441 H 0.48201 1.00003 0.08166 0.0
H442 H 0.45973 0.97444 0.96525 0.0
H443 H 0.47104 0.88174 0.97093 0.0
H444 H 0.44087 0.90128 0.97803 0.0
H445 H 0.51963 0.0384 0.06896 0.0
H446 H 0.53154 0.98469 0.04115 0.0
H447 H 0.52093 0.07817 0.0353 0.0
H448 H 0.54945 0.88702 0.95978 0.0
H449 H 0.52361 0.10888 0.94173 0.0
H450 H 0.50251 0.8259 0.99935 0.0
H451 H 0.52402 0.86165 0.02211 0.0
H452 H 0.53288 0.80869 0.99265 0.0
H453 H 0.47201 0.09897 0.97879 0.0
H454 H 0.49352 0.16543 0.96698 0.0
H455 H 0.49294 0.13595 1.002 0.0
C456 C 0.04992 0.43895 0.48318 0.0
C457 C 0.04447 0.45855 0.45637 0.0
C458 C 0.03358 0.44678 0.50412 0.0
C459 C 0.01133 0.47681 0.4983 0.0
C460 C 0.00564 0.49628 0.47118 0.0
C461 C 0.02221 0.48603 0.45043 0.0
C462 C 0.04017 0.42307 0.53251 0.0
C463 C 0.98222 0.52942 0.46421 0.0
C464 C 0.96152 0.43452 0.54659 0.0
C465 C 0.96053 0.50038 0.56241 0.0
C466 C 0.9781 0.4259 0.52597 0.0
C467 C 0.99385 0.48538 0.52051 0.0
C468 C 0.99312 0.55193 0.5366 0.0
C469 C 0.97661 0.5583 0.55764 0.0
C470 C 0.97867 0.35313 0.50995 0.0
C471 C 0.00943 0.617 0.53117 0.0
H472 H 0.06713 0.41751 0.48782 0.0
H473 H 0.01808 0.50227 0.4298 0.0
H474 H 0.03928 0.47237 0.54636 0.0
H475 H 0.02766 0.38033 0.54016 0.0
H476 H 0.05797 0.39883 0.53351 0.0
H477 H 0.98067 0.54322 0.44231 0.0
H478 H 0.96823 0.48908 0.46969 0.0
H479 H 0.97928 0.58171 0.47616 0.0
H480 H 0.94919 0.38934 0.55034 0.0
H481 H 0.97571 0.60955 0.56964 0.0
H482 H 0.99622 0.32729 0.51116 0.0
H483 H 0.97512 0.36487 0.48826 0.0
H484 H 0.96571 0.31138 0.51736 0.0
H485 H 0.02772 0.59804 0.53325 0.0
H486 H 0.00645 0.66518 0.54519 0.0
H487 H 0.00716 0.6371 0.51002 0.0
C488 C 0.4799 0.52616 0.44948 0.0
C489 C 0.4575 0.55215 0.45556 0.0
C490 C 0.49658 0.51686 0.47014 0.0
C491 C 0.49082 0.53581 0.49729 0.0
C492 C 0.46844 0.56458 0.50324 0.0
C493 C 0.452 0.57143 0.48239 0.0
C494 C 0.52014 0.48498 0.46305 0.0
C495 C 0.46176 0.58771 0.53168 0.0
C496 C 0.52534 0.45492 0.55677 0.0
C497 C 0.54112 0.51347 0.56186 0.0
C498 C 0.50909 0.46075 0.53548 0.0
C499 C 0.50828 0.52745 0.51949 0.0
C500 C 0.52377 0.58744 0.5252 0.0
C501 C 0.54014 0.57931 0.54605 0.0
C502 C 0.49308 0.3951 0.52976 0.0
C503 C 0.52307 0.6604 0.50931 0.0
H504 H 0.48404 0.51014 0.42882 0.0
H505 H 0.43468 0.59171 0.48713 0.0
H506 H 0.53397 0.52566 0.46876 0.0
H507 H 0.52325 0.43237 0.47475 0.0
H508 H 0.5218 0.47207 0.44109 0.0
H509 H 0.44391 0.61158 0.53272 0.0
H510 H 0.46271 0.53819 0.54542 0.0
H511 H 0.47417 0.63057 0.53944 0.0
H512 H 0.52625 0.40368 0.56877 0.0
H513 H 0.55225 0.62495 0.55006 0.0
H514 H 0.49541 0.37592 0.50851 0.0
H515 H 0.47471 0.4131 0.532 0.0
H516 H 0.49629 0.34653 0.54353 0.0
H517 H 0.52663 0.64904 0.48759 0.0
H518 H 0.53594 0.70233 0.51677 0.0
H519 H 0.50547 0.68583 0.5106 0.0
C520 C 0.08394 0.3919 0.28582 0.0
C521 C 0.07063 0.38578 0.30957 0.0
C522 C 0.08197 0.33877 0.26483 0.0
C523 C 0.06574 0.27892 0.26717 0.0
C524 C 0.05147 0.27429 0.29058 0.0
C525 C 0.05441 0.32695 0.31178 0.0
C526 C 0.09823 0.34446 0.24084 0.0
C527 C 0.03345 0.21287 0.29351 0.0
C528 C 0.05498 0.17673 0.20024 0.0
C529 C 0.06942 0.11328 0.20293 0.0
C530 C 0.05241 0.22882 0.22166 0.0
C531 C 0.0652 0.21855 0.24596 0.0
C532 C 0.0794 0.15366 0.24892 0.0
C533 C 0.08104 0.10141 0.22758 0.0
C534 C 0.03656 0.29601 0.218 0.0
C535 C 0.09394 0.14145 0.27405 0.0
H536 H 0.09679 0.43646 0.2841 0.0
H537 H 0.04408 0.32199 0.33008 0.0
H538 H 0.11042 0.2958 0.24105 0.0
H539 H 0.08841 0.34171 0.22155 0.0
H540 H 0.10857 0.3975 0.24105 0.0
H541 H 0.02153 0.22353 0.31083 0.0
H542 H 0.02301 0.208 0.27467 0.0
H543 H 0.04216 0.15772 0.29681 0.0
H544 H 0.04589 0.18611 0.18129 0.0
H545 H 0.09243 0.05298 0.22978 0.0
H546 H 0.04699 0.34867 0.21714 0.0
H547 H 0.02462 0.30103 0.23559 0.0
H548 H 0.02608 0.29192 0.19915 0.0
H549 H 0.1067 0.18814 0.27611 0.0
H550 H 0.10356 0.08701 0.27352 0.0
H551 H 0.08282 0.14223 0.2924 0.0
C552 C 0.44566 0.68025 0.31149 0.0
C553 C 0.4302 0.6193 0.30932 0.0
C554 C 0.44834 0.73221 0.29006 0.0
C555 C 0.4346 0.72456 0.26634 0.0
C556 C 0.41921 0.66243 0.26398 0.0
C557 C 0.41747 0.61012 0.28528 0.0
C558 C 0.46535 0.79655 0.2931 0.0
C559 C 0.40344 0.65354 0.2397 0.0
C560 C 0.41811 0.90033 0.22645 0.0
C561 C 0.43056 0.89056 0.20222 0.0
C562 C 0.4197 0.84771 0.24765 0.0
C563 C 0.43466 0.78455 0.245 0.0
C564 C 0.44813 0.77617 0.22108 0.0
C565 C 0.4456 0.82855 0.19975 0.0
C566 C 0.4042 0.85744 0.27216 0.0
C567 C 0.46473 0.71079 0.21775 0.0
H568 H 0.45553 0.68762 0.33001 0.0
H569 H 0.40519 0.56388 0.28359 0.0
H570 H 0.47653 0.80074 0.27481 0.0
H571 H 0.45577 0.85071 0.29501 0.0
H572 H 0.47662 0.78969 0.31122 0.0
H573 H 0.39452 0.59786 0.23945 0.0
H574 H 0.39003 0.69865 0.24008 0.0
H575 H 0.41332 0.65998 0.22055 0.0
H576 H 0.40613 0.94735 0.22839 0.0
H577 H 0.45524 0.82069 0.18107 0.0
H578 H 0.41417 0.84978 0.29117 0.0
H579 H 0.39044 0.81349 0.27183 0.0
H580 H 0.39572 0.91385 0.27266 0.0
H581 H 0.47633 0.70681 0.23566 0.0
H582 H 0.47557 0.71627 0.19921 0.0
H583 H 0.45486 0.65705 0.21652 0.0
C584 C 0.91234 0.8882 0.78635 0.0
C585 C 0.92651 0.88661 0.80948 0.0
C586 C 0.91472 0.83416 0.76572 0.0
C587 C 0.93219 0.77805 0.76775 0.0
C588 C 0.94722 0.77793 0.79055 0.0
C589 C 0.94391 0.83136 0.81143 0.0
C590 C 0.89762 0.83483 0.74246 0.0
C591 C 0.9665 0.72056 0.79313 0.0
C592 C 0.91899 0.5964 0.72968 0.0
C593 C 0.92957 0.6095 0.70443 0.0
C594 C 0.92046 0.64945 0.75077 0.0
C595 C 0.93335 0.71678 0.74691 0.0
C596 C 0.9452 0.72843 0.72202 0.0
C597 C 0.94292 0.67515 0.70094 0.0
C598 C 0.90702 0.63534 0.77662 0.0
C599 C 0.95961 0.79851 0.71735 0.0
H600 H 0.89859 0.92991 0.78486 0.0
H601 H 0.95491 0.82994 0.82926 0.0
H602 H 0.90681 0.83121 0.72275 0.0
H603 H 0.88614 0.7846 0.74398 0.0
H604 H 0.88658 0.88636 0.74243 0.0
H605 H 0.97859 0.73442 0.80997 0.0
H606 H 0.95901 0.66382 0.79698 0.0
H607 H 0.97655 0.71713 0.77395 0.0
H608 H 0.90852 0.54613 0.73261 0.0
H609 H 0.95126 0.68555 0.68159 0.0
H610 H 0.89325 0.67885 0.77889 0.0
H611 H 0.91862 0.6401 0.79447 0.0
H612 H 0.89871 0.57866 0.77693 0.0
H613 H 0.94816 0.84892 0.71676 0.0
H614 H 0.96953 0.79579 0.69804 0.0
H615 H 0.97198 0.80661 0.73436 0.0
C616 C 0.58447 0.12123 0.78449 0.0
C617 C 0.56941 0.11877 0.80685 0.0
C618 C 0.58233 0.17719 0.76452 0.0
C619 C 0.56419 0.23109 0.76639 0.0
C620 C 0.54833 0.22725 0.7884 0.0
C621 C 0.55142 0.17201 0.8087 0.0
C622 C 0.60033 0.1809 0.74222 0.0
C623 C 0.52836 0.28217 0.79073 0.0
C624 C 0.57692 0.41635 0.73044 0.0
C625 C 0.56756 0.4034 0.70456 0.0
C626 C 0.57505 0.36217 0.75113 0.0
C627 C 0.56302 0.29378 0.74612 0.0
C628 C 0.55224 0.28236 0.72059 0.0
C629 C 0.55487 0.33688 0.7 0.0
C630 C 0.5873 0.37624 0.77775 0.0
C631 C 0.53878 0.21105 0.71467 0.0
H632 H 0.59871 0.08119 0.78318 0.0
H633 H 0.53976 0.17033 0.82597 0.0
H634 H 0.59195 0.18697 0.72212 0.0
H635 H 0.61144 0.23144 0.74532 0.0
H636 H 0.61166 0.13006 0.74182 0.0
H637 H 0.5159 0.26559 0.80688 0.0
H638 H 0.53509 0.3394 0.79546 0.0
H639 H 0.51891 0.286 0.77117 0.0
H640 H 0.58683 0.46737 0.73423 0.0
H641 H 0.54743 0.32661 0.68016 0.0
H642 H 0.60165 0.33487 0.78021 0.0
H643 H 0.57517 0.36804 0.79498 0.0
H644 H 0.59468 0.43416 0.77905 0.0
H645 H 0.55078 0.16198 0.71431 0.0
H646 H 0.52959 0.21381 0.6949 0.0
H647 H 0.52585 0.20058 0.73096 0.0
C648 C 0.09671 0.71225 0.13646 0.0
C649 C 0.07452 0.7427 0.13216 0.0
C650 C 0.10085 0.63444 0.13351 0.0
C651 C 0.08239 0.58611 0.12573 0.0
C652 C 0.05992 0.6165 0.1215 0.0
C653 C 0.05623 0.69435 0.1249 0.0
C654 C 0.12499 0.60401 0.13852 0.0
C655 C 0.03985 0.56698 0.11291 0.0
C656 C 0.09765 0.40041 0.09134 0.0
C657 C 0.0944 0.34829 0.1124 0.0
C658 C 0.09377 0.47792 0.09541 0.0
C659 C 0.0867 0.50406 0.12127 0.0
C660 C 0.08351 0.45176 0.14268 0.0
C661 C 0.08731 0.37445 0.13795 0.0
C662 C 0.09704 0.53176 0.07195 0.0
C663 C 0.07625 0.47749 0.17062 0.0
H664 H 0.1108 0.74936 0.14239 0.0
H665 H 0.03913 0.71775 0.1212 0.0
H666 H 0.12439 0.55894 0.15415 0.0
H667 H 0.13192 0.57816 0.11969 0.0
H668 H 0.13724 0.64868 0.14534 0.0
H669 H 0.02337 0.59923 0.11087 0.0
H670 H 0.04385 0.53987 0.09317 0.0
H671 H 0.03719 0.52104 0.1279 0.0
H672 H 0.10283 0.38033 0.07149 0.0
H673 H 0.08511 0.33449 0.1544 0.0
H674 H 0.11033 0.5748 0.07714 0.0
H675 H 0.08055 0.56231 0.06789 0.0
H676 H 0.10253 0.50232 0.05311 0.0
H677 H 0.0897 0.51564 0.17915 0.0
H678 H 0.0737 0.4294 0.18477 0.0
H679 H 0.05982 0.51015 0.16947 0.0
C680 C 0.44245 0.30993 0.12327 0.0
C681 C 0.4244 0.2617 0.1314 0.0
C682 C 0.43868 0.38778 0.11998 0.0
C683 C 0.41637 0.41829 0.12524 0.0
C684 C 0.39817 0.37007 0.13389 0.0
C685 C 0.40237 0.29225 0.13669 0.0
C686 C 0.45847 0.4372 0.11048 0.0
C687 C 0.37423 0.40062 0.14003 0.0
C688 C 0.41186 0.62993 0.13778 0.0
C689 C 0.40391 0.65615 0.1126 0.0
C690 C 0.41588 0.55263 0.14226 0.0
C691 C 0.41196 0.50037 0.121 0.0
C692 C 0.40401 0.52659 0.09551 0.0
C693 C 0.39998 0.6041 0.09168 0.0
C694 C 0.42407 0.52687 0.16983 0.0
C695 C 0.39997 0.47281 0.07221 0.0
H696 H 0.45942 0.28644 0.11882 0.0
H697 H 0.38848 0.25522 0.14329 0.0
H698 H 0.45381 0.46459 0.09099 0.0
H699 H 0.46169 0.48295 0.1254 0.0
H700 H 0.47484 0.40483 0.10758 0.0
H701 H 0.36217 0.35598 0.14733 0.0
H702 H 0.37537 0.44552 0.15568 0.0
H703 H 0.36671 0.42673 0.12157 0.0
H704 H 0.41459 0.66981 0.15414 0.0
H705 H 0.39412 0.62424 0.07211 0.0
H706 H 0.43988 0.49137 0.16789 0.0
H707 H 0.41043 0.49155 0.17945 0.0
H708 H 0.42804 0.57509 0.18348 0.0
H709 H 0.41629 0.44221 0.06737 0.0
H710 H 0.39387 0.50232 0.05365 0.0
H711 H 0.38683 0.42981 0.07799 0.0
C712 C 0.11349 0.10771 0.39245 0.0
C713 C 0.09541 0.15667 0.39981 0.0
C714 C 0.10937 0.03034 0.38835 0.0
C715 C 0.08673 1.00097 0.3924 0.0
C716 C 0.06842 0.05025 0.39999 0.0
C717 C 0.07294 0.12779 0.40324 0.0
C718 C 0.12923 0.98014 0.37954 0.0
C719 C 0.04417 0.02089 0.40509 0.0
C720 C 0.07096 0.81185 0.36065 0.0
C721 C 0.07507 0.76186 0.38214 0.0
C722 C 0.0748 0.88983 0.36362 0.0
C723 C 0.08232 0.91854 0.38895 0.0
C724 C 0.08605 0.86826 0.41088 0.0
C725 C 0.08268 0.79036 0.40708 0.0
C726 C 0.07122 0.94127 0.33955 0.0
C727 C 0.09353 0.89678 0.43838 0.0
H728 H 0.13079 0.13041 0.38944 0.0
H729 H 0.05903 0.16578 0.4091 0.0
H730 H 0.13247 0.93613 0.3951 0.0
H731 H 0.12464 0.95057 0.36044 0.0
H732 H 0.14557 0.01235 0.37627 0.0
H733 H 0.03197 0.06644 0.41126 0.0
H734 H 0.03731 0.99337 0.38655 0.0
H735 H 0.04458 0.97732 0.42127 0.0
H736 H 0.06527 0.78946 0.34131 0.0
H737 H 0.08557 0.75162 0.42376 0.0
H738 H 0.08763 0.9715 0.33482 0.0
H739 H 0.05796 0.98477 0.34437 0.0
H740 H 0.06555 0.90988 0.3212 0.0
H741 H 0.11077 0.92451 0.43681 0.0
H742 H 0.09468 0.85068 0.45361 0.0
H743 H 0.08105 0.93993 0.4458 0.0
C744 C 0.41266 0.88045 0.37425 0.0
C745 C 0.40523 0.85437 0.39969 0.0
C746 C 0.41658 0.95772 0.36959 0.0
C747 C 0.41305 0.01013 0.39091 0.0
C748 C 0.40563 0.98408 0.41664 0.0
C749 C 0.40171 0.90659 0.42067 0.0
C750 C 0.42421 0.98327 0.34177 0.0
C751 C 0.40203 0.03801 0.44001 0.0
C752 C 0.44346 0.20054 0.38772 0.0
C753 C 0.42525 0.24877 0.38011 0.0
C754 C 0.43977 0.1227 0.39111 0.0
C755 C 0.41737 0.09218 0.38649 0.0
C756 C 0.399 0.14039 0.37835 0.0
C757 C 0.40313 0.21822 0.37543 0.0
C758 C 0.45976 0.07328 0.40004 0.0
C759 C 0.37496 0.10981 0.37287 0.0
H760 H 0.41505 0.84047 0.35785 0.0
H761 H 0.39627 0.8866 0.44043 0.0
H762 H 0.41021 0.01745 0.33234 0.0
H763 H 0.43983 0.0198 0.34322 0.0
H764 H 0.42826 0.93494 0.3282 0.0
H765 H 0.3963 0.00864 0.45876 0.0
H766 H 0.41844 0.06863 0.44436 0.0
H767 H 0.38879 0.08099 0.43456 0.0
H768 H 0.46051 0.22404 0.39168 0.0
H769 H 0.38911 0.25525 0.36924 0.0
H770 H 0.46268 0.02752 0.38503 0.0
H771 H 0.45549 0.04591 0.41966 0.0
H772 H 0.47618 0.10565 0.40246 0.0
H773 H 0.37581 0.06488 0.3572 0.0
H774 H 0.36276 0.15443 0.36588 0.0
H775 H 0.3678 0.08374 0.39154 0.0
C776 C 0.88583 0.61684 0.89661 0.0
C777 C 0.90469 0.66468 0.90192 0.0
C778 C 0.88919 0.53945 0.89163 0.0
C779 C 0.91193 0.5088 0.89273 0.0
C780 C 0.93103 0.55692 0.89831 0.0
C781 C 0.9272 0.63456 0.90245 0.0
C782 C 0.86844 0.4906 0.885 0.0
C783 C 0.95546 0.52622 0.90028 0.0
C784 C 0.9165 0.29723 0.90559 0.0
C785 C 0.92191 0.26972 0.87972 0.0
C786 C 0.91365 0.37504 0.91022 0.0
C787 C 0.91563 0.42631 0.88826 0.0
C788 C 0.92085 0.39856 0.862 0.0
C789 C 0.92427 0.32062 0.85815 0.0
C790 C 0.90869 0.40243 0.93863 0.0
C791 C 0.92251 0.45104 0.83792 0.0
H792 H 0.86847 0.64049 0.89583 0.0
H793 H 0.94173 0.67168 0.90671 0.0
H794 H 0.87117 0.46187 0.86525 0.0
H795 H 0.86639 0.4459 0.90058 0.0
H796 H 0.85204 0.52369 0.88395 0.0
H797 H 0.96833 0.57085 0.90534 0.0
H798 H 0.95624 0.48163 0.91608 0.0
H799 H 0.96057 0.49966 0.88081 0.0
H800 H 0.915 0.25779 0.92231 0.0
H801 H 0.92831 0.299 0.83814 0.0
H802 H 0.89154 0.43107 0.93928 0.0
H803 H 0.92195 0.44457 0.9448 0.0
H804 H 0.90861 0.35558 0.95363 0.0
H805 H 0.90594 0.48247 0.83547 0.0
H806 H 0.92628 0.4203 0.81878 0.0
H807 H 0.93639 0.4935 0.8413 0.0
C808 C 0.57215 0.68008 0.85475 0.0
C809 C 0.574 0.7311 0.87637 0.0
C810 C 0.57561 0.60219 0.8587 0.0
C811 C 0.58037 0.57455 0.88508 0.0
C812 C 0.58184 0.62592 0.90707 0.0
C813 C 0.57895 0.7037 0.90237 0.0
C814 C 0.5745 0.54963 0.83459 0.0
C815 C 0.58632 0.59867 0.9356 0.0
C816 C 0.56887 0.36603 0.89899 0.0
C817 C 0.59143 0.33617 0.89889 0.0
C818 C 0.56501 0.44364 0.8948 0.0
C819 C 0.58413 0.49208 0.88965 0.0
C820 C 0.60692 0.46177 0.88904 0.0
C821 C 0.61031 0.38436 0.89401 0.0
C822 C 0.5405 0.47394 0.89621 0.0
C823 C 0.62772 0.51097 0.88291 0.0
H824 H 0.56848 0.70158 0.83463 0.0
H825 H 0.58007 0.74318 0.91911 0.0
H826 H 0.59117 0.51854 0.83254 0.0
H827 H 0.56064 0.50688 0.83765 0.0
H828 H 0.57102 0.58026 0.81536 0.0
H829 H 0.58603 0.64554 0.95059 0.0
H830 H 0.573 0.55631 0.94147 0.0
H831 H 0.60349 0.57033 0.93666 0.0
H832 H 0.55432 0.32873 0.90292 0.0
H833 H 0.62772 0.36101 0.89353 0.0
H834 H 0.5357 0.50028 0.8766 0.0
H835 H 0.53937 0.51862 0.91195 0.0
H836 H 0.52761 0.42912 0.901 0.0
H837 H 0.62533 0.53948 0.86307 0.0
H838 H 0.64419 0.47819 0.88232 0.0
H839 H 0.62936 0.55584 0.89849 0.0
C840 C 0.91007 0.86477 0.63788 0.0
C841 C 0.9056 0.83798 0.61161 0.0
C842 C 0.91315 0.94225 0.64293 0.0
C843 C 0.91183 0.99427 0.62118 0.0
C844 C 0.90722 0.96767 0.59465 0.0
C845 C 0.90409 0.88992 0.59021 0.0
C846 C 0.91788 0.96842 0.67154 0.0
C847 C 0.90592 0.02126 0.57087 0.0
C848 C 0.90092 0.2025 0.63584 0.0
C849 C 0.92345 0.23251 0.63435 0.0
C850 C 0.89688 0.12494 0.63188 0.0
C851 C 0.91582 0.07636 0.62604 0.0
C852 C 0.9386 0.10635 0.62454 0.0
C853 C 0.94214 0.18393 0.6288 0.0
C854 C 0.87237 0.09499 0.6339 0.0
C855 C 0.95922 0.05659 0.61812 0.0
H856 H 0.9109 0.82517 0.6546 0.0
H857 H 0.90091 0.86956 0.56984 0.0
H858 H 0.93481 0.99831 0.67244 0.0
H859 H 0.90429 0.00917 0.67801 0.0
H860 H 0.91826 0.92082 0.68619 0.0
H861 H 0.90187 0.99167 0.55158 0.0
H862 H 0.89238 0.06473 0.57456 0.0
H863 H 0.92273 0.05132 0.5685 0.0
H864 H 0.88648 0.23969 0.64039 0.0
H865 H 0.95953 0.20689 0.62719 0.0
H866 H 0.87145 0.05028 0.64963 0.0
H867 H 0.8672 0.06877 0.61438 0.0
H868 H 0.85962 0.13998 0.63902 0.0
H869 H 0.96062 0.01065 0.63334 0.0
H870 H 0.97583 0.08863 0.61786 0.0
H871 H 0.95679 0.02948 0.59804 0.0
C872 C 0.59889 0.81158 0.63643 0.0
C873 C 0.57632 0.78195 0.63477 0.0
C874 C 0.6031 0.88906 0.63252 0.0
C875 C 0.58429 0.93803 0.62662 0.0
C876 C 0.56146 0.90848 0.62495 0.0
C877 C 0.55776 0.83092 0.62911 0.0
C878 C 0.62765 0.91854 0.63471 0.0
C879 C 0.54096 0.95869 0.61849 0.0
C880 C 0.59032 0.1493 0.63902 0.0
C881 C 0.59501 0.17649 0.61285 0.0
C882 C 0.58711 0.07177 0.64386 0.0
C883 C 0.58844 0.02014 0.62198 0.0
C884 C 0.59326 0.04716 0.59554 0.0
C885 C 0.59658 0.12494 0.59133 0.0
C886 C 0.58217 0.04512 0.67237 0.0
C887 C 0.59459 0.99401 0.57163 0.0
H888 H 0.61325 0.77417 0.6411 0.0
H889 H 0.54033 0.80834 0.62736 0.0
H890 H 0.63294 0.94508 0.61529 0.0
H891 H 0.62859 0.9629 0.65057 0.0
H892 H 0.64031 0.87323 0.63975 0.0
H893 H 0.5243 0.92695 0.61805 0.0
H894 H 0.53955 1.00443 0.63378 0.0
H895 H 0.54356 0.98605 0.59847 0.0
H896 H 0.58941 0.18864 0.65582 0.0
H897 H 0.59992 0.14564 0.57104 0.0
H898 H 0.5951 1.00186 0.6785 0.0
H899 H 0.56478 0.01813 0.67323 0.0
H900 H 0.58261 0.09207 0.68727 0.0
H901 H 0.60803 0.9502 0.5753 0.0
H902 H 0.5988 0.02388 0.55244 0.0
H903 H 0.57774 0.96432 0.5691 0.0
loop_
_geom_bond_atom_site_label_1
_geom_bond_atom_site_label_2
_geom_bond_distance
_geom_bond_site_symmetry_2
_ccdc_geom_bond_type
C0 C1 1.351 . S
C0 N3 1.368 . S
C0 H5 0.931 . S
C1 C0 1.351 . S
C1 N2 1.373 . S
C1 H29 0.930 . S
N2 C1 1.373 . S
N2 C4 1.340 . S
N3 C0 1.368 . S
N3 C4 1.321 . S
N3 Co6 2.135 . S
C4 N2 1.340 . S
C4 N3 1.321 . S
C4 H28 0.930 . S
H5 C0 0.931 . S
Co6 N3 2.135 . S
Co6 N9 2.121 1_545 S
Co6 O14 2.055 . S
Co6 O17 2.039 . S
Co6 N20 2.140 . S
C7 O8 1.227 . S
C7 O17 1.265 . S
O8 C7 1.227 . S
N9 Co6 2.121 1_565 S
N9 C11 1.375 . S
N9 C12 1.313 . S
C10 C11 1.338 . S
C10 N13 1.377 . S
C10 H30 0.930 . S
C11 N9 1.375 . S
C11 C10 1.338 . S
C11 H15 0.931 . S
C12 N9 1.313 . S
C12 N13 1.344 . S
C12 H16 0.930 . S
N13 C10 1.377 . S
N13 C12 1.344 . S
O14 Co6 2.055 . S
O14 C18 1.253 . S
H15 C11 0.931 . S
H16 C12 0.930 . S
O17 Co6 2.039 . S
O17 C7 1.265 . S
C18 O14 1.253 . S
C18 O19 1.227 . S
O19 C18 1.227 . S
N20 Co6 2.140 . S
N20 C23 1.346 . S
N20 C24 1.345 . S
C21 C22 1.387 . S
C21 C25 1.391 . S
C22 C21 1.387 . S
C22 C23 1.369 . S
C22 H31 0.929 . S
C23 N20 1.346 . S
C23 C22 1.369 . S
C23 H26 0.928 . S
C24 N20 1.345 . S
C24 C25 1.371 . S
C24 H27 0.931 1_545 S
C25 C21 1.391 . S
C25 C24 1.371 . S
C25 H32 0.930 1_545 S
H26 C23 0.928 . S
H27 C24 0.931 1_565 S
H28 C4 0.930 . S
H29 C1 0.930 . S
H30 C10 0.930 . S
H31 C22 0.929 . S
H32 C25 0.930 1_565 S
C33 C34 1.351 . S
C33 N36 1.368 . S
C33 H38 0.931 . S
C34 C33 1.351 . S
C34 N35 1.373 . S
C34 H62 0.930 . S
N35 C34 1.373 . S
N35 C37 1.340 . S
N36 C33 1.368 . S
N36 C37 1.321 . S
N36 Co39 2.135 . S
C37 N35 1.340 . S
C37 N36 1.321 . S
C37 H61 0.930 . S
H38 C33 0.931 . S
Co39 N36 2.135 . S
Co39 N42 2.121 1_565 S
Co39 O47 2.055 . S
Co39 O50 2.039 . S
Co39 N53 2.140 . S
C40 O41 1.227 . S
C40 O50 1.265 . S
O41 C40 1.227 . S
N42 Co39 2.121 1_545 S
N42 C44 1.375 . S
N42 C45 1.313 . S
C43 C44 1.338 . S
C43 N46 1.377 . S
C43 H63 0.930 . S
C44 N42 1.375 . S
C44 C43 1.338 . S
C44 H48 0.931 . S
C45 N42 1.313 . S
C45 N46 1.344 . S
C45 H49 0.930 . S
N46 C43 1.377 . S
N46 C45 1.344 . S
O47 Co39 2.055 . S
O47 C51 1.253 . S
H48 C44 0.931 . S
H49 C45 0.930 . S
O50 Co39 2.039 . S
O50 C40 1.265 . S
C51 O47 1.253 . S
C51 O52 1.227 . S
O52 C51 1.227 . S
N53 Co39 2.140 . S
N53 C56 1.346 . S
N53 C57 1.345 . S
C54 C55 1.387 . S
C54 C58 1.391 . S
C55 C54 1.387 . S
C55 C56 1.369 . S
C55 H64 0.929 . S
C56 N53 1.346 . S
C56 C55 1.369 . S
C56 H59 0.928 . S
C57 N53 1.345 . S
C57 C58 1.371 . S
C57 H60 0.931 1_565 S
C58 C54 1.391 . S
C58 C57 1.371 . S
C58 H65 0.930 1_565 S
H59 C56 0.928 . S
H60 C57 0.931 1_545 S
H61 C37 0.930 . S
H62 C34 0.930 . S
H63 C43 0.930 . S
H64 C55 0.929 . S
H65 C58 0.930 1_545 S
C66 C67 1.351 . S
C66 N69 1.368 . S
C66 H71 0.931 . S
C67 C66 1.351 . S
C67 N68 1.373 . S
C67 H95 0.930 . S
N68 C67 1.373 . S
N68 C70 1.340 . S
N69 C66 1.368 . S
N69 C70 1.321 . S
N69 Co72 2.135 . S
C70 N68 1.340 . S
C70 N69 1.321 . S
C70 H94 0.930 . S
H71 C66 0.931 . S
Co72 N69 2.135 . S
Co72 N75 2.121 . S
Co72 O80 2.055 . S
Co72 O83 2.039 . S
Co72 N86 2.140 . S
C73 O74 1.227 . S
C73 O83 1.265 . S
O74 C73 1.227 . S
N75 Co72 2.121 . S
N75 C77 1.375 . S
N75 C78 1.313 . S
C76 C77 1.338 . S
C76 N79 1.377 . S
C76 H96 0.930 . S
C77 N75 1.375 . S
C77 C76 1.338 . S
C77 H81 0.931 . S
C78 N75 1.313 . S
C78 N79 1.344 . S
C78 H82 0.930 . S
N79 C76 1.377 . S
N79 C78 1.344 . S
O80 Co72 2.055 . S
O80 C84 1.253 . S
H81 C77 0.931 . S
H82 C78 0.930 . S
O83 Co72 2.039 . S
O83 C73 1.265 . S
C84 O80 1.253 . S
C84 O85 1.227 . S
O85 C84 1.227 . S
N86 Co72 2.140 . S
N86 C89 1.346 . S
N86 C90 1.345 . S
C87 C88 1.387 . S
C87 C91 1.391 . S
C88 C87 1.387 . S
C88 C89 1.369 . S
C88 H97 0.929 . S
C89 N86 1.346 . S
C89 C88 1.369 . S
C89 H92 0.928 . S
C90 N86 1.345 . S
C90 C91 1.371 . S
C90 H93 0.931 . S
C91 C87 1.391 . S
C91 C90 1.371 . S
C91 H98 0.930 . S
H92 C89 0.928 . S
H93 C90 0.931 . S
H94 C70 0.930 . S
H95 C67 0.930 . S
H96 C76 0.930 . S
H97 C88 0.929 . S
H98 C91 0.930 . S
C99 C100 1.351 . S
C99 N102 1.368 . S
C99 H104 0.931 . S
C100 C99 1.351 . S
C100 N101 1.373 . S
C100 H128 0.930 . S
N101 C100 1.373 . S
N101 C103 1.340 . S
N102 C99 1.368 . S
N102 C103 1.321 . S
N102 Co105 2.135 . S
C103 N101 1.340 . S
C103 N102 1.321 . S
C103 H127 0.930 . S
H104 C99 0.931 . S
Co105 N102 2.135 . S
Co105 N108 2.121 . S
Co105 O113 2.055 . S
Co105 O116 2.039 . S
Co105 N119 2.140 . S
C106 O107 1.227 . S
C106 O116 1.265 . S
O107 C106 1.227 . S
N108 Co105 2.121 . S
N108 C110 1.375 . S
N108 C111 1.313 . S
C109 C110 1.338 . S
C109 N112 1.377 . S
C109 H129 0.930 . S
C110 N108 1.375 . S
C110 C109 1.338 . S
C110 H114 0.931 . S
C111 N108 1.313 . S
C111 N112 1.344 . S
C111 H115 0.930 . S
N112 C109 1.377 . S
N112 C111 1.344 . S
O113 Co105 2.055 . S
O113 C117 1.253 . S
H114 C110 0.931 . S
H115 C111 0.930 . S
O116 Co105 2.039 . S
O116 C106 1.265 . S
C117 O113 1.253 . S
C117 O118 1.227 . S
O118 C117 1.227 . S
N119 Co105 2.140 . S
N119 C122 1.346 . S
N119 C123 1.345 . S
C120 C121 1.387 . S
C120 C124 1.391 . S
C121 C120 1.387 . S
C121 C122 1.369 . S
C121 H130 0.929 . S
C122 N119 1.346 . S
C122 C121 1.369 . S
C122 H125 0.928 . S
C123 N119 1.345 . S
C123 C124 1.371 . S
C123 H126 0.931 . S
C124 C120 1.391 . S
C124 C123 1.371 . S
C124 H131 0.930 . S
H125 C122 0.928 . S
H126 C123 0.931 . S
H127 C103 0.930 . S
H128 C100 0.930 . S
H129 C109 0.930 . S
H130 C121 0.929 . S
H131 C124 0.930 . S
C132 C133 1.351 . S
C132 N135 1.368 . S
C132 H137 0.931 . S
C133 C132 1.351 . S
C133 N134 1.373 . S
C133 H161 0.930 . S
N134 C133 1.373 . S
N134 C136 1.340 . S
N135 C132 1.368 . S
N135 C136 1.321 . S
N135 Co138 2.135 . S
C136 N134 1.340 . S
C136 N135 1.321 . S
C136 H160 0.930 . S
H137 C132 0.931 . S
Co138 N135 2.135 . S
Co138 N141 2.121 1_565 S
Co138 O146 2.055 . S
Co138 O149 2.039 . S
Co138 N152 2.140 . S
C139 O140 1.227 . S
C139 O149 1.265 . S
O140 C139 1.227 . S
N141 Co138 2.121 1_545 S
N141 C143 1.375 . S
N141 C144 1.313 . S
C142 C143 1.338 . S
C142 N145 1.377 . S
C142 H162 0.930 . S
C143 N141 1.375 . S
C143 C142 1.338 . S
C143 H147 0.931 . S
C144 N141 1.313 . S
C144 N145 1.344 . S
C144 H148 0.930 . S
N145 C142 1.377 . S
N145 C144 1.344 . S
O146 Co138 2.055 . S
O146 C150 1.253 . S
H147 C143 0.931 . S
H148 C144 0.930 . S
O149 Co138 2.039 . S
O149 C139 1.265 . S
C150 O146 1.253 . S
C150 O151 1.227 . S
O151 C150 1.227 . S
N152 Co138 2.140 . S
N152 C155 1.346 . S
N152 C156 1.345 . S
C153 C154 1.387 . S
C153 C157 1.391 . S
C154 C153 1.387 . S
C154 C155 1.369 . S
C154 H163 0.929 . S
C155 N152 1.346 . S
C155 C154 1.369 . S
C155 H158 0.928 . S
C156 N152 1.345 . S
C156 C157 1.371 . S
C156 H159 0.931 1_565 S
C157 C153 1.391 . S
C157 C156 1.371 . S
C157 H164 0.930 1_565 S
H158 C155 0.928 . S
H159 C156 0.931 1_545 S
H160 C136 0.930 . S
H161 C133 0.930 . S
H162 C142 0.930 . S
H163 C154 0.929 . S
H164 C157 0.930 1_545 S
C165 C166 1.351 . S
C165 N168 1.368 . S
C165 H170 0.931 . S
C166 C165 1.351 . S
C166 N167 1.373 . S
C166 H194 0.930 . S
N167 C166 1.373 . S
N167 C169 1.340 . S
N168 C165 1.368 . S
N168 C169 1.321 . S
N168 Co171 2.135 . S
C169 N167 1.340 . S
C169 N168 1.321 . S
C169 H193 0.930 . S
H170 C165 0.931 . S
Co171 N168 2.135 . S
Co171 N174 2.121 1_545 S
Co171 O179 2.055 . S
Co171 O182 2.039 . S
Co171 N185 2.140 . S
C172 O173 1.227 . S
C172 O182 1.265 . S
O173 C172 1.227 . S
N174 Co171 2.121 1_565 S
N174 C176 1.375 . S
N174 C177 1.313 . S
C175 C176 1.338 . S
C175 N178 1.377 . S
C175 H195 0.930 . S
C176 N174 1.375 . S
C176 C175 1.338 . S
C176 H180 0.931 . S
C177 N174 1.313 . S
C177 N178 1.344 . S
C177 H181 0.930 . S
N178 C175 1.377 . S
N178 C177 1.344 . S
O179 Co171 2.055 . S
O179 C183 1.253 . S
H180 C176 0.931 . S
H181 C177 0.930 . S
O182 Co171 2.039 . S
O182 C172 1.265 . S
C183 O179 1.253 . S
C183 O184 1.227 . S
O184 C183 1.227 . S
N185 Co171 2.140 . S
N185 C188 1.346 . S
N185 C189 1.345 . S
C186 C187 1.387 . S
C186 C190 1.391 . S
C187 C186 1.387 . S
C187 C188 1.369 . S
C187 H196 0.929 . S
C188 N185 1.346 . S
C188 C187 1.369 . S
C188 H191 0.928 . S
C189 N185 1.345 . S
C189 C190 1.371 . S
C189 H192 0.931 1_545 S
C190 C186 1.391 . S
C190 C189 1.371 . S
C190 H197 0.930 1_545 S
H191 C188 0.928 . S
H192 C189 0.931 1_565 S
H193 C169 0.930 . S
H194 C166 0.930 . S
H195 C175 0.930 . S
H196 C187 0.929 . S
H197 C190 0.930 1_565 S
C198 C199 1.351 . S
C198 N201 1.368 . S
C198 H203 0.931 . S
C199 C198 1.351 . S
C199 N200 1.373 . S
C199 H227 0.930 . S
N200 C199 1.373 . S
N200 C202 1.340 . S
N201 C198 1.368 . S
N201 C202 1.321 . S
N201 Co204 2.135 . S
C202 N200 1.340 . S
C202 N201 1.321 . S
C202 H226 0.930 . S
H203 C198 0.931 . S
Co204 N201 2.135 . S
Co204 N207 2.121 . S
Co204 O212 2.055 . S
Co204 O215 2.039 . S
Co204 N218 2.140 . S
C205 O206 1.227 . S
C205 O215 1.265 . S
O206 C205 1.227 . S
N207 Co204 2.121 . S
N207 C209 1.375 . S
N207 C210 1.313 . S
C208 C209 1.338 . S
C208 N211 1.377 . S
C208 H228 0.930 . S
C209 N207 1.375 . S
C209 C208 1.338 . S
C209 H213 0.931 . S
C210 N207 1.313 . S
C210 N211 1.344 . S
C210 H214 0.930 . S
N211 C208 1.377 . S
N211 C210 1.344 . S
O212 Co204 2.055 . S
O212 C216 1.253 . S
H213 C209 0.931 . S
H214 C210 0.930 . S
O215 Co204 2.039 . S
O215 C205 1.265 . S
C216 O212 1.253 . S
C216 O217 1.227 . S
O217 C216 1.227 . S
N218 Co204 2.140 . S
N218 C221 1.346 . S
N218 C222 1.345 . S
C219 C220 1.387 . S
C219 C223 1.391 . S
C220 C219 1.387 . S
C220 C221 1.369 . S
C220 H229 0.929 . S
C221 N218 1.346 . S
C221 C220 1.369 . S
C221 H224 0.928 . S
C222 N218 1.345 . S
C222 C223 1.371 . S
C222 H225 0.931 . S
C223 C219 1.391 . S
C223 C222 1.371 . S
C223 H230 0.930 . S
H224 C221 0.928 . S
H225 C222 0.931 . S
H226 C202 0.930 . S
H227 C199 0.930 . S
H228 C208 0.930 . S
H229 C220 0.929 . S
H230 C223 0.930 . S
C231 C232 1.351 . S
C231 N234 1.368 . S
C231 H236 0.931 . S
C232 C231 1.351 . S
C232 N233 1.373 . S
C232 H260 0.930 . S
N233 C232 1.373 . S
N233 C235 1.340 . S
N234 C231 1.368 . S
N234 C235 1.321 . S
N234 Co237 2.135 . S
C235 N233 1.340 . S
C235 N234 1.321 . S
C235 H259 0.930 . S
H236 C231 0.931 . S
Co237 N234 2.135 . S
Co237 N240 2.121 . S
Co237 O245 2.055 . S
Co237 O248 2.039 . S
Co237 N251 2.140 . S
C238 O239 1.227 . S
C238 O248 1.265 . S
O239 C238 1.227 . S
N240 Co237 2.121 . S
N240 C242 1.375 . S
N240 C243 1.313 . S
C241 C242 1.338 . S
C241 N244 1.377 . S
C241 H261 0.930 . S
C242 N240 1.375 . S
C242 C241 1.338 . S
C242 H246 0.931 . S
C243 N240 1.313 . S
C243 N244 1.344 . S
C243 H247 0.930 . S
N244 C241 1.377 . S
N244 C243 1.344 . S
O245 Co237 2.055 . S
O245 C249 1.253 . S
H246 C242 0.931 . S
H247 C243 0.930 . S
O248 Co237 2.039 . S
O248 C238 1.265 . S
C249 O245 1.253 . S
C249 O250 1.227 . S
O250 C249 1.227 . S
N251 Co237 2.140 . S
N251 C254 1.346 . S
N251 C255 1.345 . S
C252 C253 1.387 . S
C252 C256 1.391 . S
C253 C252 1.387 . S
C253 C254 1.369 . S
C253 H262 0.929 . S
C254 N251 1.346 . S
C254 C253 1.369 . S
C254 H257 0.928 . S
C255 N251 1.345 . S
C255 C256 1.371 . S
C255 H258 0.931 . S
C256 C252 1.391 . S
C256 C255 1.371 . S
C256 H263 0.930 . S
H257 C254 0.928 . S
H258 C255 0.931 . S
H259 C235 0.930 . S
H260 C232 0.930 . S
H261 C241 0.930 . S
H262 C253 0.929 . S
H263 C256 0.930 . S
C264 C265 1.391 . S
C264 C266 1.389 1_545 S
C264 H280 0.931 . S
C265 C264 1.391 . S
C265 C269 1.376 . S
C266 C264 1.389 1_565 S
C266 C267 1.370 . S
C266 C270 1.535 . S
C267 C266 1.370 . S
C267 C268 1.410 1_565 S
C267 C275 1.503 . S
C268 C267 1.410 1_545 S
C268 C269 1.392 . S
C268 C271 1.511 . S
C269 C265 1.376 . S
C269 C268 1.392 . S
C269 H281 0.929 . S
C270 C266 1.535 . S
C270 H282 0.960 . S
C270 H283 0.962 1_565 S
C270 H284 0.960 . S
C271 C268 1.511 . S
C271 H285 0.961 . S
C271 H286 0.961 . S
C271 H287 0.961 1_545 S
C272 C273 1.370 1_545 S
C272 C274 1.363 . S
C272 H288 0.931 . S
C273 C272 1.370 1_565 S
C273 C277 1.408 . S
C274 C272 1.363 . S
C274 C275 1.370 1_545 S
C274 C278 1.524 . S
C275 C267 1.503 . S
C275 C274 1.370 1_565 S
C275 C276 1.403 . S
C276 C275 1.403 . S
C276 C277 1.404 . S
C276 C279 1.539 . S
C277 C273 1.408 . S
C277 C276 1.404 . S
C277 H289 0.930 . S
C278 C274 1.524 . S
C278 H290 0.956 . S
C278 H291 0.961 . S
C278 H292 0.961 . S
C279 C276 1.539 . S
C279 H293 0.958 . S
C279 H294 0.961 . S
C279 H295 0.960 . S
H280 C264 0.931 . S
H281 C269 0.929 . S
H282 C270 0.960 . S
H283 C270 0.962 1_545 S
H284 C270 0.960 . S
H285 C271 0.961 . S
H286 C271 0.961 . S
H287 C271 0.961 1_565 S
H288 C272 0.931 . S
H289 C277 0.930 . S
H290 C278 0.956 . S
H291 C278 0.961 . S
H292 C278 0.961 . S
H293 C279 0.958 . S
H294 C279 0.961 . S
H295 C279 0.960 . S
C296 C297 1.391 . S
C296 C298 1.394 . S
C296 H312 0.931 . S
C297 C296 1.391 . S
C297 C301 1.376 . S
C298 C296 1.394 . S
C298 C299 1.369 . S
C298 C302 1.531 . S
C299 C298 1.369 . S
C299 C300 1.410 . S
C299 C307 1.503 . S
C300 C299 1.410 . S
C300 C301 1.392 . S
C300 C303 1.511 . S
C301 C297 1.376 . S
C301 C300 1.392 . S
C301 H313 0.929 . S
C302 C298 1.531 . S
C302 H314 0.960 . S
C302 H315 0.962 . S
C302 H316 0.960 . S
C303 C300 1.511 . S
C303 H317 0.961 . S
C303 H318 0.961 . S
C303 H319 0.961 . S
C304 C305 1.370 . S
C304 C306 1.363 . S
C304 H320 0.931 . S
C305 C304 1.370 . S
C305 C309 1.408 . S
C306 C304 1.363 . S
C306 C307 1.370 . S
C306 C310 1.524 . S
C307 C299 1.503 . S
C307 C306 1.370 . S
C307 C308 1.403 . S
C308 C307 1.403 . S
C308 C309 1.404 . S
C308 C311 1.539 . S
C309 C305 1.408 . S
C309 C308 1.404 . S
C309 H321 0.930 . S
C310 C306 1.524 . S
C310 H322 0.956 . S
C310 H323 0.961 . S
C310 H324 0.961 . S
C311 C308 1.539 . S
C311 H325 0.958 . S
C311 H326 0.961 . S
C311 H327 0.960 . S
H312 C296 0.931 . S
H313 C301 0.929 . S
H314 C302 0.960 . S
H315 C302 0.962 . S
H316 C302 0.960 . S
H317 C303 0.961 . S
H318 C303 0.961 . S
H319 C303 0.961 . S
H320 C304 0.931 . S
H321 C309 0.930 . S
H322 C310 0.956 . S
H323 C310 0.961 . S
H324 C310 0.961 . S
H325 C311 0.958 . S
H326 C311 0.961 . S
H327 C311 0.960 . S
C328 C329 1.391 . S
C328 C330 1.394 1_565 S
C328 H344 0.931 1_565 S
C329 C328 1.391 . S
C329 C333 1.376 . S
C330 C328 1.394 1_545 S
C330 C331 1.369 1_545 S
C330 C334 1.531 . S
C331 C330 1.369 1_565 S
C331 C332 1.410 . S
C331 C339 1.503 1_565 S
C332 C331 1.410 . S
C332 C333 1.392 . S
C332 C335 1.511 . S
C333 C329 1.376 . S
C333 C332 1.392 . S
C333 H345 0.929 . S
C334 C330 1.531 . S
C334 H346 0.960 . S
C334 H347 0.962 . S
C334 H348 0.960 . S
C335 C332 1.511 . S
C335 H349 0.961 . S
C335 H350 0.961 . S
C335 H351 0.961 . S
C336 C337 1.370 . S
C336 C338 1.363 . S
C336 H352 0.931 . S
C337 C336 1.370 . S
C337 C341 1.408 1_545 S
C338 C336 1.363 . S
C338 C339 1.370 . S
C338 C342 1.524 . S
C339 C331 1.503 1_545 S
C339 C338 1.370 . S
C339 C340 1.403 1_545 S
C340 C339 1.403 1_565 S
C340 C341 1.404 . S
C340 C343 1.539 . S
C341 C337 1.408 1_565 S
C341 C340 1.404 . S
C341 H353 0.930 . S
C342 C338 1.524 . S
C342 H354 0.956 . S
C342 H355 0.961 . S
C342 H356 0.961 . S
C343 C340 1.539 . S
C343 H357 0.958 . S
C343 H358 0.961 . S
C343 H359 0.960 . S
H344 C328 0.931 1_545 S
H345 C333 0.929 . S
H346 C334 0.960 . S
H347 C334 0.962 . S
H348 C334 0.960 . S
H349 C335 0.961 . S
H350 C335 0.961 . S
H351 C335 0.961 . S
H352 C336 0.931 . S
H353 C341 0.930 . S
H354 C342 0.956 . S
H355 C342 0.961 . S
H356 C342 0.961 . S
H357 C343 0.958 . S
H358 C343 0.961 . S
H359 C343 0.960 . S
C360 C361 1.391 . S
C360 C362 1.394 . S
C360 H376 0.931 . S
C361 C360 1.391 . S
C361 C365 1.376 . S
C362 C360 1.394 . S
C362 C363 1.369 . S
C362 C366 1.531 . S
C363 C362 1.369 . S
C363 C364 1.410 . S
C363 C371 1.503 . S
C364 C363 1.410 . S
C364 C365 1.392 . S
C364 C367 1.511 . S
C365 C361 1.376 . S
C365 C364 1.392 . S
C365 H377 0.929 . S
C366 C362 1.531 . S
C366 H378 0.960 . S
C366 H379 0.962 . S
C366 H380 0.960 . S
C367 C364 1.511 . S
C367 H381 0.961 . S
C367 H382 0.961 . S
C367 H383 0.961 . S
C368 C369 1.370 . S
C368 C370 1.363 . S
C368 H384 0.931 . S
C369 C368 1.370 . S
C369 C373 1.408 . S
C370 C368 1.363 . S
C370 C371 1.370 . S
C370 C374 1.524 . S
C371 C363 1.503 . S
C371 C370 1.370 . S
C371 C372 1.403 . S
C372 C371 1.403 . S
C372 C373 1.404 . S
C372 C375 1.539 . S
C373 C369 1.408 . S
C373 C372 1.404 . S
C373 H385 0.930 . S
C374 C370 1.524 . S
C374 H386 0.956 . S
C374 H387 0.961 . S
C374 H388 0.961 . S
C375 C372 1.539 . S
C375 H389 0.958 . S
C375 H390 0.961 . S
C375 H391 0.960 . S
H376 C360 0.931 . S
H377 C365 0.929 . S
H378 C366 0.960 . S
H379 C366 0.962 . S
H380 C366 0.960 . S
H381 C367 0.961 . S
H382 C367 0.961 . S
H383 C367 0.961 . S
H384 C368 0.931 . S
H385 C373 0.930 . S
H386 C374 0.956 . S
H387 C374 0.961 . S
H388 C374 0.961 . S
H389 C375 0.958 . S
H390 C375 0.961 . S
H391 C375 0.960 . S
C392 C393 1.391 . S
C392 C394 1.394 . S
C392 H408 0.931 . S
C393 C392 1.391 . S
C393 C397 1.376 1_545 S
C394 C392 1.394 . S
C394 C395 1.369 . S
C394 C398 1.531 1_554 S
C395 C394 1.369 . S
C395 C396 1.410 1_545 S
C395 C403 1.503 1_444 S
C396 C395 1.410 1_565 S
C396 C397 1.392 . S
C396 C399 1.511 . S
C397 C393 1.376 1_565 S
C397 C396 1.392 . S
C397 H409 0.929 . S
C398 C394 1.531 1_556 S
C398 H410 0.960 . S
C398 H411 0.962 . S
C398 H412 0.960 . S
C399 C396 1.511 . S
C399 H413 0.961 . S
C399 H414 0.961 1_455 S
C399 H415 0.961 . S
C400 C401 1.370 . S
C400 C402 1.363 1_565 S
C400 H416 0.928 1_565 S
C401 C400 1.370 . S
C401 C405 1.408 . S
C402 C400 1.363 1_545 S
C402 C403 1.370 1_545 S
C402 C406 1.524 1_556 S
C403 C395 1.503 1_666 S
C403 C402 1.370 1_565 S
C403 C404 1.403 . S
C404 C403 1.403 . S
C404 C405 1.404 . S
C404 C407 1.539 1_655 S
C405 C401 1.408 . S
C405 C404 1.404 . S
C405 H417 0.930 . S
C406 C402 1.524 1_554 S
C406 H418 0.956 . S
C406 H419 0.961 . S
C406 H420 0.961 . S
C407 C404 1.539 1_455 S
C407 H421 0.958 . S
C407 H422 0.961 . S
C407 H423 0.960 . S
H408 C392 0.931 . S
H409 C397 0.929 . S
H410 C398 0.960 . S
H411 C398 0.962 . S
H412 C398 0.960 . S
H413 C399 0.961 . S
H414 C399 0.961 1_655 S
H415 C399 0.961 . S
H416 C400 0.928 1_545 S
H417 C405 0.930 . S
H418 C406 0.956 . S
H419 C406 0.961 . S
H420 C406 0.961 . S
H421 C407 0.958 . S
H422 C407 0.961 . S
H423 C407 0.960 . S
C424 C425 1.391 . S
C424 C426 1.394 . S
C424 H440 0.931 . S
C425 C424 1.391 . S
C425 C429 1.376 . S
C426 C424 1.394 . S
C426 C427 1.369 1_565 S
C426 C430 1.531 1_564 S
C427 C426 1.369 1_545 S
C427 C428 1.410 1_545 S
C427 C435 1.503 1_554 S
C428 C427 1.410 1_565 S
C428 C429 1.392 . S
C428 C431 1.511 1_565 S
C429 C425 1.376 . S
C429 C428 1.392 . S
C429 H441 0.929 . S
C430 C426 1.531 1_546 S
C430 H442 0.960 . S
C430 H443 0.962 1_545 S
C430 H444 0.960 . S
C431 C428 1.511 1_545 S
C431 H445 0.961 1_545 S
C431 H446 0.961 1_545 S
C431 H447 0.961 . S
C432 C433 1.370 1_565 S
C432 C434 1.363 . S
C432 H448 0.931 . S
C433 C432 1.370 1_545 S
C433 C437 1.408 . S
C434 C432 1.363 . S
C434 C435 1.370 1_565 S
C434 C438 1.524 . S
C435 C427 1.503 1_556 S
C435 C434 1.370 1_545 S
C435 C436 1.403 . S
C436 C435 1.403 . S
C436 C437 1.404 . S
C436 C439 1.548 . S
C437 C433 1.408 . S
C437 C436 1.404 . S
C437 H449 0.930 . S
C438 C434 1.524 . S
C438 H450 0.956 . S
C438 H451 0.961 1_556 S
C438 H452 0.961 . S
C439 C436 1.548 . S
C439 H453 0.967 . S
C439 H454 0.960 1_556 S
C439 H455 0.944 1_556 S
H440 C424 0.931 . S
H441 C429 0.929 . S
H442 C430 0.960 . S
H443 C430 0.962 1_565 S
H444 C430 0.960 . S
H445 C431 0.961 1_565 S
H446 C431 0.961 1_565 S
H447 C431 0.961 . S
H448 C432 0.931 . S
H449 C437 0.930 . S
H450 C438 0.956 . S
H451 C438 0.961 1_554 S
H452 C438 0.961 . S
H453 C439 0.967 . S
H454 C439 0.960 1_554 S
H455 C439 0.944 1_554 S
C456 C457 1.391 . S
C456 C458 1.394 . S
C456 H472 0.931 . S
C457 C456 1.391 . S
C457 C461 1.376 . S
C458 C456 1.394 . S
C458 C459 1.369 . S
C458 C462 1.531 . S
C459 C458 1.369 . S
C459 C460 1.410 . S
C459 C467 1.503 1_455 S
C460 C459 1.410 . S
C460 C461 1.392 . S
C460 C463 1.511 . S
C461 C457 1.376 . S
C461 C460 1.392 . S
C461 H473 0.929 . S
C462 C458 1.531 . S
C462 H474 0.960 . S
C462 H475 0.962 . S
C462 H476 0.960 . S
C463 C460 1.511 . S
C463 H477 0.963 . S
C463 H478 0.961 1_455 S
C463 H479 0.961 . S
C464 C465 1.370 . S
C464 C466 1.363 . S
C464 H480 0.931 . S
C465 C464 1.370 . S
C465 C469 1.408 . S
C466 C464 1.363 . S
C466 C467 1.370 . S
C466 C470 1.524 . S
C467 C459 1.503 1_655 S
C467 C466 1.370 . S
C467 C468 1.403 . S
C468 C467 1.403 . S
C468 C469 1.404 . S
C468 C471 1.539 1_655 S
C469 C465 1.408 . S
C469 C468 1.404 . S
C469 H481 0.930 . S
C470 C466 1.524 . S
C470 H482 0.956 . S
C470 H483 0.961 . S
C470 H484 0.961 . S
C471 C468 1.539 1_455 S
C471 H485 0.958 . S
C471 H486 0.961 . S
C471 H487 0.960 . S
H472 C456 0.931 . S
H473 C461 0.929 . S
H474 C462 0.960 . S
H475 C462 0.962 . S
H476 C462 0.960 . S
H477 C463 0.963 . S
H478 C463 0.961 1_655 S
H479 C463 0.961 . S
H480 C464 0.931 . S
H481 C469 0.930 . S
H482 C470 0.956 . S
H483 C470 0.961 . S
H484 C470 0.961 . S
H485 C471 0.958 . S
H486 C471 0.961 . S
H487 C471 0.960 . S
C488 C489 1.391 . S
C488 C490 1.394 . S
C488 H504 0.931 . S
C489 C488 1.391 . S
C489 C493 1.376 . S
C490 C488 1.394 . S
C490 C491 1.369 . S
C490 C494 1.531 . S
C491 C490 1.369 . S
C491 C492 1.410 . S
C491 C499 1.503 . S
C492 C491 1.410 . S
C492 C493 1.392 . S
C492 C495 1.511 . S
C493 C489 1.376 . S
C493 C492 1.392 . S
C493 H505 0.929 . S
C494 C490 1.531 . S
C494 H506 0.960 . S
C494 H507 0.962 . S
C494 H508 0.960 . S
C495 C492 1.511 . S
C495 H509 0.961 . S
C495 H510 0.961 . S
C495 H511 0.961 . S
C496 C497 1.370 . S
C496 C498 1.363 . S
C496 H512 0.931 . S
C497 C496 1.370 . S
C497 C501 1.408 . S
C498 C496 1.363 . S
C498 C499 1.370 . S
C498 C502 1.524 . S
C499 C491 1.503 . S
C499 C498 1.370 . S
C499 C500 1.403 . S
C500 C499 1.403 . S
C500 C501 1.404 . S
C500 C503 1.539 . S
C501 C497 1.408 . S
C501 C500 1.404 . S
C501 H513 0.930 . S
C502 C498 1.524 . S
C502 H514 0.956 . S
C502 H515 0.961 . S
C502 H516 0.961 . S
C503 C500 1.539 . S
C503 H517 0.958 . S
C503 H518 0.961 . S
C503 H519 0.960 . S
H504 C488 0.931 . S
H505 C493 0.929 . S
H506 C494 0.960 . S
H507 C494 0.962 . S
H508 C494 0.960 . S
H509 C495 0.961 . S
H510 C495 0.961 . S
H511 C495 0.961 . S
H512 C496 0.931 . S
H513 C501 0.930 . S
H514 C502 0.956 . S
H515 C502 0.961 . S
H516 C502 0.961 . S
H517 C503 0.958 . S
H518 C503 0.961 . S
H519 C503 0.960 . S
C520 C521 1.391 . S
C520 C522 1.394 . S
C520 H536 0.931 . S
C521 C520 1.391 . S
C521 C525 1.376 . S
C522 C520 1.394 . S
C522 C523 1.369 . S
C522 C526 1.531 . S
C523 C522 1.369 . S
C523 C524 1.410 . S
C523 C531 1.503 . S
C524 C523 1.410 . S
C524 C525 1.392 . S
C524 C527 1.511 . S
C525 C521 1.376 . S
C525 C524 1.392 . S
C525 H537 0.929 . S
C526 C522 1.531 . S
C526 H538 0.960 . S
C526 H539 0.962 . S
C526 H540 0.960 . S
C527 C524 1.511 . S
C527 H541 0.961 . S
C527 H542 0.961 . S
C527 H543 0.961 . S
C528 C529 1.370 . S
C528 C530 1.363 . S
C528 H544 0.931 . S
C529 C528 1.370 . S
C529 C533 1.408 . S
C530 C528 1.363 . S
C530 C531 1.370 . S
C530 C534 1.524 . S
C531 C523 1.503 . S
C531 C530 1.370 . S
C531 C532 1.403 . S
C532 C531 1.403 . S
C532 C533 1.404 . S
C532 C535 1.539 . S
C533 C529 1.408 . S
C533 C532 1.404 . S
C533 H545 0.930 . S
C534 C530 1.524 . S
C534 H546 0.956 . S
C534 H547 0.961 . S
C534 H548 0.961 . S
C535 C532 1.539 . S
C535 H549 0.958 . S
C535 H550 0.961 . S
C535 H551 0.960 . S
H536 C520 0.931 . S
H537 C525 0.929 . S
H538 C526 0.960 . S
H539 C526 0.962 . S
H540 C526 0.960 . S
H541 C527 0.961 . S
H542 C527 0.961 . S
H543 C527 0.961 . S
H544 C528 0.931 . S
H545 C533 0.930 . S
H546 C534 0.956 . S
H547 C534 0.961 . S
H548 C534 0.961 . S
H549 C535 0.958 . S
H550 C535 0.961 . S
H551 C535 0.960 . S
C552 C553 1.391 . S
C552 C554 1.394 . S
C552 H568 0.931 . S
C553 C552 1.391 . S
C553 C557 1.376 . S
C554 C552 1.394 . S
C554 C555 1.369 . S
C554 C558 1.531 . S
C555 C554 1.369 . S
C555 C556 1.410 . S
C555 C563 1.503 . S
C556 C555 1.410 . S
C556 C557 1.392 . S
C556 C559 1.511 . S
C557 C553 1.376 . S
C557 C556 1.392 . S
C557 H569 0.929 . S
C558 C554 1.531 . S
C558 H570 0.960 . S
C558 H571 0.962 . S
C558 H572 0.960 . S
C559 C556 1.511 . S
C559 H573 0.961 . S
C559 H574 0.961 . S
C559 H575 0.961 . S
C560 C561 1.370 . S
C560 C562 1.363 . S
C560 H576 0.931 . S
C561 C560 1.370 . S
C561 C565 1.408 . S
C562 C560 1.363 . S
C562 C563 1.370 . S
C562 C566 1.524 . S
C563 C555 1.503 . S
C563 C562 1.370 . S
C563 C564 1.403 . S
C564 C563 1.403 . S
C564 C565 1.404 . S
C564 C567 1.539 . S
C565 C561 1.408 . S
C565 C564 1.404 . S
C565 H577 0.930 . S
C566 C562 1.524 . S
C566 H578 0.956 . S
C566 H579 0.961 . S
C566 H580 0.961 . S
C567 C564 1.539 . S
C567 H581 0.958 . S
C567 H582 0.961 . S
C567 H583 0.960 . S
H568 C552 0.931 . S
H569 C557 0.929 . S
H570 C558 0.960 . S
H571 C558 0.962 . S
H572 C558 0.960 . S
H573 C559 0.961 . S
H574 C559 0.961 . S
H575 C559 0.961 . S
H576 C560 0.931 . S
H577 C565 0.930 . S
H578 C566 0.956 . S
H579 C566 0.961 . S
H580 C566 0.961 . S
H581 C567 0.958 . S
H582 C567 0.961 . S
H583 C567 0.960 . S
C584 C585 1.391 . S
C584 C586 1.394 . S
C584 H600 0.931 . S
C585 C584 1.391 . S
C585 C589 1.376 . S
C586 C584 1.394 . S
C586 C587 1.369 . S
C586 C590 1.531 . S
C587 C586 1.369 . S
C587 C588 1.410 . S
C587 C595 1.503 . S
C588 C587 1.410 . S
C588 C589 1.392 . S
C588 C591 1.511 . S
C589 C585 1.376 . S
C589 C588 1.392 . S
C589 H601 0.929 . S
C590 C586 1.531 . S
C590 H602 0.960 . S
C590 H603 0.962 . S
C590 H604 0.960 . S
C591 C588 1.511 . S
C591 H605 0.961 . S
C591 H606 0.961 . S
C591 H607 0.961 . S
C592 C593 1.370 . S
C592 C594 1.363 . S
C592 H608 0.931 . S
C593 C592 1.370 . S
C593 C597 1.408 . S
C594 C592 1.363 . S
C594 C595 1.370 . S
C594 C598 1.524 . S
C595 C587 1.503 . S
C595 C594 1.370 . S
C595 C596 1.403 . S
C596 C595 1.403 . S
C596 C597 1.404 . S
C596 C599 1.539 . S
C597 C593 1.408 . S
C597 C596 1.404 . S
C597 H609 0.930 . S
C598 C594 1.524 . S
C598 H610 0.956 . S
C598 H611 0.961 . S
C598 H612 0.961 . S
C599 C596 1.539 . S
C599 H613 0.958 . S
C599 H614 0.961 . S
C599 H615 0.960 . S
H600 C584 0.931 . S
H601 C589 0.929 . S
H602 C590 0.960 . S
H603 C590 0.962 . S
H604 C590 0.960 . S
H605 C591 0.961 . S
H606 C591 0.961 . S
H607 C591 0.961 . S
H608 C592 0.931 . S
H609 C597 0.930 . S
H610 C598 0.956 . S
H611 C598 0.961 . S
H612 C598 0.961 . S
H613 C599 0.958 . S
H614 C599 0.961 . S
H615 C599 0.960 . S
C616 C617 1.391 . S
C616 C618 1.394 . S
C616 H632 0.931 . S
C617 C616 1.391 . S
C617 C621 1.376 . S
C618 C616 1.394 . S
C618 C619 1.369 . S
C618 C622 1.531 . S
C619 C618 1.369 . S
C619 C620 1.410 . S
C619 C627 1.503 . S
C620 C619 1.410 . S
C620 C621 1.392 . S
C620 C623 1.511 . S
C621 C617 1.376 . S
C621 C620 1.392 . S
C621 H633 0.929 . S
C622 C618 1.531 . S
C622 H634 0.960 . S
C622 H635 0.962 . S
C622 H636 0.960 . S
C623 C620 1.511 . S
C623 H637 0.961 . S
C623 H638 0.961 . S
C623 H639 0.961 . S
C624 C625 1.370 . S
C624 C626 1.363 . S
C624 H640 0.931 . S
C625 C624 1.370 . S
C625 C629 1.408 . S
C626 C624 1.363 . S
C626 C627 1.370 . S
C626 C630 1.524 . S
C627 C619 1.503 . S
C627 C626 1.370 . S
C627 C628 1.403 . S
C628 C627 1.403 . S
C628 C629 1.404 . S
C628 C631 1.539 . S
C629 C625 1.408 . S
C629 C628 1.404 . S
C629 H641 0.930 . S
C630 C626 1.524 . S
C630 H642 0.956 . S
C630 H643 0.961 . S
C630 H644 0.961 . S
C631 C628 1.539 . S
C631 H645 0.958 . S
C631 H646 0.961 . S
C631 H647 0.960 . S
H632 C616 0.931 . S
H633 C621 0.929 . S
H634 C622 0.960 . S
H635 C622 0.962 . S
H636 C622 0.960 . S
H637 C623 0.961 . S
H638 C623 0.961 . S
H639 C623 0.961 . S
H640 C624 0.931 . S
H641 C629 0.930 . S
H642 C630 0.956 . S
H643 C630 0.961 . S
H644 C630 0.961 . S
H645 C631 0.958 . S
H646 C631 0.961 . S
H647 C631 0.960 . S
C648 C649 1.391 . S
C648 C650 1.394 . S
C648 H664 0.931 . S
C649 C648 1.391 . S
C649 C653 1.376 . S
C650 C648 1.394 . S
C650 C651 1.369 . S
C650 C654 1.531 . S
C651 C650 1.369 . S
C651 C652 1.410 . S
C651 C659 1.503 . S
C652 C651 1.410 . S
C652 C653 1.392 . S
C652 C655 1.511 . S
C653 C649 1.376 . S
C653 C652 1.392 . S
C653 H665 0.929 . S
C654 C650 1.531 . S
C654 H666 0.960 . S
C654 H667 0.962 . S
C654 H668 0.960 . S
C655 C652 1.511 . S
C655 H669 0.961 . S
C655 H670 0.961 . S
C655 H671 0.961 . S
C656 C657 1.370 . S
C656 C658 1.363 . S
C656 H672 0.931 . S
C657 C656 1.370 . S
C657 C661 1.408 . S
C658 C656 1.363 . S
C658 C659 1.370 . S
C658 C662 1.524 . S
C659 C651 1.503 . S
C659 C658 1.370 . S
C659 C660 1.403 . S
C660 C659 1.403 . S
C660 C661 1.404 . S
C660 C663 1.539 . S
C661 C657 1.408 . S
C661 C660 1.404 . S
C661 H673 0.930 . S
C662 C658 1.524 . S
C662 H674 0.956 . S
C662 H675 0.961 . S
C662 H676 0.961 . S
C663 C660 1.539 . S
C663 H677 0.958 . S
C663 H678 0.961 . S
C663 H679 0.960 . S
H664 C648 0.931 . S
H665 C653 0.929 . S
H666 C654 0.960 . S
H667 C654 0.962 . S
H668 C654 0.960 . S
H669 C655 0.961 . S
H670 C655 0.961 . S
H671 C655 0.961 . S
H672 C656 0.931 . S
H673 C661 0.930 . S
H674 C662 0.956 . S
H675 C662 0.961 . S
H676 C662 0.961 . S
H677 C663 0.958 . S
H678 C663 0.961 . S
H679 C663 0.960 . S
C680 C681 1.391 . S
C680 C682 1.394 . S
C680 H696 0.931 . S
C681 C680 1.391 . S
C681 C685 1.376 . S
C682 C680 1.394 . S
C682 C683 1.369 . S
C682 C686 1.531 . S
C683 C682 1.369 . S
C683 C684 1.410 . S
C683 C691 1.503 . S
C684 C683 1.410 . S
C684 C685 1.392 . S
C684 C687 1.511 . S
C685 C681 1.376 . S
C685 C684 1.392 . S
C685 H697 0.929 . S
C686 C682 1.531 . S
C686 H698 0.960 . S
C686 H699 0.962 . S
C686 H700 0.960 . S
C687 C684 1.511 . S
C687 H701 0.961 . S
C687 H702 0.961 . S
C687 H703 0.961 . S
C688 C689 1.370 . S
C688 C690 1.363 . S
C688 H704 0.931 . S
C689 C688 1.370 . S
C689 C693 1.408 . S
C690 C688 1.363 . S
C690 C691 1.370 . S
C690 C694 1.524 . S
C691 C683 1.503 . S
C691 C690 1.370 . S
C691 C692 1.403 . S
C692 C691 1.403 . S
C692 C693 1.404 . S
C692 C695 1.539 . S
C693 C689 1.408 . S
C693 C692 1.404 . S
C693 H705 0.930 . S
C694 C690 1.524 . S
C694 H706 0.956 . S
C694 H707 0.961 . S
C694 H708 0.961 . S
C695 C692 1.539 . S
C695 H709 0.958 . S
C695 H710 0.961 . S
C695 H711 0.960 . S
H696 C680 0.931 . S
H697 C685 0.929 . S
H698 C686 0.960 . S
H699 C686 0.962 . S
H700 C686 0.960 . S
H701 C687 0.961 . S
H702 C687 0.961 . S
H703 C687 0.961 . S
H704 C688 0.931 . S
H705 C693 0.930 . S
H706 C694 0.956 . S
H707 C694 0.961 . S
H708 C694 0.961 . S
H709 C695 0.958 . S
H710 C695 0.961 . S
H711 C695 0.960 . S
C712 C713 1.391 . S
C712 C714 1.394 1_545 S
C712 H728 0.931 . S
C713 C712 1.391 . S
C713 C717 1.376 . S
C714 C712 1.394 1_565 S
C714 C715 1.369 . S
C714 C718 1.531 . S
C715 C714 1.369 . S
C715 C716 1.410 . S
C715 C723 1.503 . S
C716 C715 1.410 . S
C716 C717 1.392 1_565 S
C716 C719 1.511 . S
C717 C713 1.376 . S
C717 C716 1.392 1_545 S
C717 H729 0.929 . S
C718 C714 1.531 . S
C718 H730 0.960 . S
C718 H731 0.962 . S
C718 H732 0.960 . S
C719 C716 1.511 . S
C719 H733 0.961 . S
C719 H734 0.961 . S
C719 H735 0.961 . S
C720 C721 1.370 . S
C720 C722 1.363 . S
C720 H736 0.931 . S
C721 C720 1.370 . S
C721 C725 1.408 . S
C722 C720 1.363 . S
C722 C723 1.370 . S
C722 C726 1.524 . S
C723 C715 1.503 . S
C723 C722 1.370 . S
C723 C724 1.403 . S
C724 C723 1.403 . S
C724 C725 1.404 . S
C724 C727 1.539 . S
C725 C721 1.408 . S
C725 C724 1.404 . S
C725 H737 0.930 . S
C726 C722 1.524 . S
C726 H738 0.956 . S
C726 H739 0.961 . S
C726 H740 0.961 . S
C727 C724 1.539 . S
C727 H741 0.958 . S
C727 H742 0.961 . S
C727 H743 0.960 . S
H728 C712 0.931 . S
H729 C717 0.929 . S
H730 C718 0.960 . S
H731 C718 0.962 . S
H732 C718 0.960 . S
H733 C719 0.961 . S
H734 C719 0.961 . S
H735 C719 0.961 . S
H736 C720 0.931 . S
H737 C725 0.930 . S
H738 C726 0.956 . S
H739 C726 0.961 . S
H740 C726 0.961 . S
H741 C727 0.958 . S
H742 C727 0.961 . S
H743 C727 0.960 . S
C744 C745 1.391 . S
C744 C746 1.394 1_565 S
C744 H760 0.931 . S
C745 C744 1.391 . S
C745 C749 1.376 . S
C746 C744 1.394 1_545 S
C746 C747 1.369 . S
C746 C750 1.531 . S
C747 C746 1.369 . S
C747 C748 1.410 . S
C747 C755 1.503 . S
C748 C747 1.410 . S
C748 C749 1.392 1_545 S
C748 C751 1.511 . S
C749 C745 1.376 . S
C749 C748 1.392 1_565 S
C749 H761 0.929 . S
C750 C746 1.531 . S
C750 H762 0.960 . S
C750 H763 0.962 . S
C750 H764 0.961 . S
C751 C748 1.511 . S
C751 H765 0.961 . S
C751 H766 0.961 . S
C751 H767 0.961 . S
C752 C753 1.370 . S
C752 C754 1.363 . S
C752 H768 0.931 . S
C753 C752 1.370 . S
C753 C757 1.408 . S
C754 C752 1.363 . S
C754 C755 1.370 . S
C754 C758 1.524 . S
C755 C747 1.503 . S
C755 C754 1.370 . S
C755 C756 1.403 . S
C756 C755 1.403 . S
C756 C757 1.404 . S
C756 C759 1.539 . S
C757 C753 1.408 . S
C757 C756 1.404 . S
C757 H769 0.930 . S
C758 C754 1.524 . S
C758 H770 0.956 . S
C758 H771 0.961 . S
C758 H772 0.961 . S
C759 C756 1.539 . S
C759 H773 0.958 . S
C759 H774 0.961 . S
C759 H775 0.960 . S
H760 C744 0.931 . S
H761 C749 0.929 . S
H762 C750 0.960 . S
H763 C750 0.962 . S
H764 C750 0.961 . S
H765 C751 0.961 . S
H766 C751 0.961 . S
H767 C751 0.961 . S
H768 C752 0.931 . S
H769 C757 0.930 . S
H770 C758 0.956 . S
H771 C758 0.961 . S
H772 C758 0.961 . S
H773 C759 0.958 . S
H774 C759 0.961 . S
H775 C759 0.960 . S
C776 C777 1.391 . S
C776 C778 1.394 . S
C776 H792 0.931 . S
C777 C776 1.391 . S
C777 C781 1.376 . S
C778 C776 1.394 . S
C778 C779 1.369 . S
C778 C782 1.531 . S
C779 C778 1.369 . S
C779 C780 1.410 . S
C779 C787 1.503 . S
C780 C779 1.410 . S
C780 C781 1.392 . S
C780 C783 1.511 . S
C781 C777 1.376 . S
C781 C780 1.392 . S
C781 H793 0.929 . S
C782 C778 1.531 . S
C782 H794 0.960 . S
C782 H795 0.962 . S
C782 H796 0.960 . S
C783 C780 1.511 . S
C783 H797 0.961 . S
C783 H798 0.961 . S
C783 H799 0.961 . S
C784 C785 1.370 . S
C784 C786 1.363 . S
C784 H800 0.931 . S
C785 C784 1.370 . S
C785 C789 1.408 . S
C786 C784 1.363 . S
C786 C787 1.370 . S
C786 C790 1.524 . S
C787 C779 1.503 . S
C787 C786 1.370 . S
C787 C788 1.403 . S
C788 C787 1.403 . S
C788 C789 1.404 . S
C788 C791 1.539 . S
C789 C785 1.408 . S
C789 C788 1.404 . S
C789 H801 0.930 . S
C790 C786 1.524 . S
C790 H802 0.956 . S
C790 H803 0.961 . S
C790 H804 0.961 . S
C791 C788 1.539 . S
C791 H805 0.958 . S
C791 H806 0.961 . S
C791 H807 0.960 . S
H792 C776 0.931 . S
H793 C781 0.929 . S
H794 C782 0.960 . S
H795 C782 0.962 . S
H796 C782 0.960 . S
H797 C783 0.961 . S
H798 C783 0.961 . S
H799 C783 0.961 . S
H800 C784 0.931 . S
H801 C789 0.930 . S
H802 C790 0.956 . S
H803 C790 0.961 . S
H804 C790 0.961 . S
H805 C791 0.958 . S
H806 C791 0.961 . S
H807 C791 0.960 . S
C808 C809 1.391 . S
C808 C810 1.394 . S
C808 H824 0.931 . S
C809 C808 1.391 . S
C809 C813 1.376 . S
C810 C808 1.394 . S
C810 C811 1.369 . S
C810 C814 1.531 . S
C811 C810 1.369 . S
C811 C812 1.410 . S
C811 C819 1.503 . S
C812 C811 1.410 . S
C812 C813 1.392 . S
C812 C815 1.511 . S
C813 C809 1.376 . S
C813 C812 1.392 . S
C813 H825 0.929 . S
C814 C810 1.531 . S
C814 H826 0.960 . S
C814 H827 0.962 . S
C814 H828 0.960 . S
C815 C812 1.511 . S
C815 H829 0.961 . S
C815 H830 0.961 . S
C815 H831 0.961 . S
C816 C817 1.370 . S
C816 C818 1.363 . S
C816 H832 0.931 . S
C817 C816 1.370 . S
C817 C821 1.408 . S
C818 C816 1.363 . S
C818 C819 1.370 . S
C818 C822 1.524 . S
C819 C811 1.503 . S
C819 C818 1.370 . S
C819 C820 1.403 . S
C820 C819 1.403 . S
C820 C821 1.404 . S
C820 C823 1.539 . S
C821 C817 1.408 . S
C821 C820 1.404 . S
C821 H833 0.930 . S
C822 C818 1.524 . S
C822 H834 0.956 . S
C822 H835 0.961 . S
C822 H836 0.961 . S
C823 C820 1.539 . S
C823 H837 0.958 . S
C823 H838 0.961 . S
C823 H839 0.960 . S
H824 C808 0.931 . S
H825 C813 0.929 . S
H826 C814 0.960 . S
H827 C814 0.962 . S
H828 C814 0.960 . S
H829 C815 0.961 . S
H830 C815 0.961 . S
H831 C815 0.961 . S
H832 C816 0.931 . S
H833 C821 0.930 . S
H834 C822 0.956 . S
H835 C822 0.961 . S
H836 C822 0.961 . S
H837 C823 0.958 . S
H838 C823 0.961 . S
H839 C823 0.960 . S
C840 C841 1.391 . S
C840 C842 1.394 1_565 S
C840 H856 0.931 . S
C841 C840 1.391 . S
C841 C845 1.376 . S
C842 C840 1.394 1_545 S
C842 C843 1.369 . S
C842 C846 1.531 . S
C843 C842 1.369 . S
C843 C844 1.410 . S
C843 C851 1.503 . S
C844 C843 1.410 . S
C844 C845 1.392 1_545 S
C844 C847 1.511 . S
C845 C841 1.376 . S
C845 C844 1.392 1_565 S
C845 H857 0.929 . S
C846 C842 1.531 . S
C846 H858 0.960 . S
C846 H859 0.962 . S
C846 H860 0.960 . S
C847 C844 1.511 . S
C847 H861 0.961 . S
C847 H862 0.961 . S
C847 H863 0.961 . S
C848 C849 1.370 . S
C848 C850 1.363 . S
C848 H864 0.931 . S
C849 C848 1.370 . S
C849 C853 1.408 . S
C850 C848 1.363 . S
C850 C851 1.370 . S
C850 C854 1.524 . S
C851 C843 1.503 . S
C851 C850 1.370 . S
C851 C852 1.403 . S
C852 C851 1.403 . S
C852 C853 1.404 . S
C852 C855 1.539 . S
C853 C849 1.408 . S
C853 C852 1.404 . S
C853 H865 0.930 . S
C854 C850 1.524 . S
C854 H866 0.956 . S
C854 H867 0.961 . S
C854 H868 0.961 . S
C855 C852 1.539 . S
C855 H869 0.958 . S
C855 H870 0.961 . S
C855 H871 0.960 . S
H856 C840 0.931 . S
H857 C845 0.929 . S
H858 C846 0.960 . S
H859 C846 0.962 . S
H860 C846 0.960 . S
H861 C847 0.961 . S
H862 C847 0.961 . S
H863 C847 0.961 . S
H864 C848 0.931 . S
H865 C853 0.930 . S
H866 C854 0.956 . S
H867 C854 0.961 . S
H868 C854 0.961 . S
H869 C855 0.958 . S
H870 C855 0.961 . S
H871 C855 0.960 . S
C872 C873 1.391 . S
C872 C874 1.394 . S
C872 H888 0.931 . S
C873 C872 1.391 . S
C873 C877 1.376 . S
C874 C872 1.394 . S
C874 C875 1.369 . S
C874 C878 1.531 . S
C875 C874 1.369 . S
C875 C876 1.410 . S
C875 C883 1.503 . S
C876 C875 1.410 . S
C876 C877 1.392 . S
C876 C879 1.511 . S
C877 C873 1.376 . S
C877 C876 1.392 . S
C877 H889 0.929 . S
C878 C874 1.531 . S
C878 H890 0.960 . S
C878 H891 0.962 . S
C878 H892 0.960 . S
C879 C876 1.511 . S
C879 H893 0.961 . S
C879 H894 0.961 . S
C879 H895 0.961 . S
C880 C881 1.370 . S
C880 C882 1.363 1_545 S
C880 H896 0.931 . S
C881 C880 1.370 . S
C881 C885 1.408 . S
C882 C880 1.363 1_565 S
C882 C883 1.370 . S
C882 C886 1.524 . S
C883 C875 1.503 . S
C883 C882 1.370 . S
C883 C884 1.403 . S
C884 C883 1.403 . S
C884 C885 1.404 1_565 S
C884 C887 1.539 . S
C885 C881 1.408 . S
C885 C884 1.404 1_545 S
C885 H897 0.930 . S
C886 C882 1.524 . S
C886 H898 0.956 . S
C886 H899 0.961 . S
C886 H900 0.961 . S
C887 C884 1.539 . S
C887 H901 0.958 . S
C887 H902 0.961 . S
C887 H903 0.960 . S
H888 C872 0.931 . S
H889 C877 0.929 . S
H890 C878 0.960 . S
H891 C878 0.962 . S
H892 C878 0.960 . S
H893 C879 0.961 . S
H894 C879 0.961 . S
H895 C879 0.961 . S
H896 C880 0.931 . S
H897 C885 0.930 . S
H898 C886 0.956 . S
H899 C886 0.961 . S
H900 C886 0.961 . S
H901 C887 0.958 . S
H902 C887 0.961 . S
H903 C887 0.960 . S
C265 C21 1.511 . S
C273 C54 1.531 . S
C297 C120 1.506 . S
C305 C87 1.529 . S
C329 C153 1.523 . S
C337 C186 1.518 . S
C361 C252 1.509 . S
C369 C219 1.519 . S
C393 C18 1.146 . S
C401 C150 1.150 . S
C425 C51 1.139 . S
C433 C183 1.154 . S
C457 C84 1.144 . S
C465 C216 1.151 . S
C489 C117 1.155 . S
C497 C249 1.146 . S
C521 C73 1.391 . S
C529 C7 1.416 . S
C553 C106 1.445 . S
C561 C40 1.414 . S
C585 C139 1.445 . S
C593 C205 1.420 . S
C617 C172 1.442 . S
C625 C238 1.414 . S
C649 N13 1.279 . S
C657 N2 1.280 . S
C681 N46 1.282 . S
C689 N35 1.282 . S
C713 N68 1.270 . S
C721 N79 1.288 . S
C745 N101 1.305 . S
C753 N112 1.273 . S
C777 N134 1.283 . S
C785 N145 1.283 . S
C809 N178 1.253 . S
C817 N167 1.292 . S
C841 N200 1.261 . S
C849 N211 1.291 . S
C873 N244 1.306 . S
C881 N233 1.270 . S
