# Generated by pormake.
# Topology uos, (4)-cn, num edge types: 1
# Building blocks:
#     Node 0, Type 0, BuildingBlock: QUQFOY_clean_sbu_1, # of connection points: 4
#     Node 1, Type 0, BuildingBlock: QUQFOY_clean_sbu_1, # of connection points: 4
#     Node 2, Type 0, BuildingBlock: QUQFOY_clean_sbu_1, # of connection points: 4
#     Node 3, Type 0, BuildingBlock: QUQFOY_clean_sbu_1, # of connection points: 4
#     Node 4, Type 0, BuildingBlock: QUQFOY_clean_sbu_1, # of connection points: 4
#     Node 5, Type 0, BuildingBlock: QUQFOY_clean_sbu_1, # of connection points: 4
#     Node 6, Type 0, BuildingBlock: QUQFOY_clean_sbu_1, # of connection points: 4
#     Node 7, Type 0, BuildingBlock: QUQFOY_clean_sbu_1, # of connection points: 4
#     Node 8, Type 0, BuildingBlock: QUQFOY_clean_sbu_1, # of connection points: 4
#     Node 9, Type 0, BuildingBlock: QUQFOY_clean_sbu_1, # of connection points: 4
#     Node 10, Type 0, BuildingBlock: QUQFOY_clean_sbu_1, # of connection points: 4
#     Node 11, Type 0, BuildingBlock: QUQFOY_clean_sbu_1, # of connection points: 4
#     Node 12, Type 0, BuildingBlock: QUQFOY_clean_sbu_1, # of connection points: 4
#     Node 13, Type 0, BuildingBlock: QUQFOY_clean_sbu_1, # of connection points: 4
#     Node 14, Type 0, BuildingBlock: QUQFOY_clean_sbu_1, # of connection points: 4
#     Node 15, Type 0, BuildingBlock: QUQFOY_clean_sbu_1, # of connection points: 4
#     Node 16, Type 0, BuildingBlock: QUQFOY_clean_sbu_1, # of connection points: 4
#     Node 17, Type 0, BuildingBlock: QUQFOY_clean_sbu_1, # of connection points: 4
#     Node 18, Type 0, BuildingBlock: QUQFOY_clean_sbu_1, # of connection points: 4
#     Node 19, Type 0, BuildingBlock: QUQFOY_clean_sbu_1, # of connection points: 4
#     Node 20, Type 0, BuildingBlock: QUQFOY_clean_sbu_1, # of connection points: 4
#     Node 21, Type 0, BuildingBlock: QUQFOY_clean_sbu_1, # of connection points: 4
#     Node 22, Type 0, BuildingBlock: QUQFOY_clean_sbu_1, # of connection points: 4
#     Node 23, Type 0, BuildingBlock: QUQFOY_clean_sbu_1, # of connection points: 4
#     Node 24, Type 0, BuildingBlock: QUQFOY_clean_sbu_1, # of connection points: 4
#     Node 25, Type 0, BuildingBlock: QUQFOY_clean_sbu_1, # of connection points: 4
#     Node 26, Type 0, BuildingBlock: QUQFOY_clean_sbu_1, # of connection points: 4
#     Node 27, Type 0, BuildingBlock: QUQFOY_clean_sbu_1, # of connection points: 4
#     Node 28, Type 0, BuildingBlock: QUQFOY_clean_sbu_1, # of connection points: 4
#     Node 29, Type 0, BuildingBlock: QUQFOY_clean_sbu_1, # of connection points: 4
#     Node 30, Type 0, BuildingBlock: QUQFOY_clean_sbu_1, # of connection points: 4
#     Node 31, Type 0, BuildingBlock: QUQFOY_clean_sbu_1, # of connection points: 4
#     Edge 32, Type (0, 0), BuildingBlock: EZIPEK_clean_linker_0, # of connection points: 2
#     Edge 33, Type (0, 0), BuildingBlock: EZIPEK_clean_linker_0, # of connection points: 2
#     Edge 34, Type (0, 0), BuildingBlock: EZIPEK_clean_linker_0, # of connection points: 2
#     Edge 35, Type (0, 0), BuildingBlock: EZIPEK_clean_linker_0, # of connection points: 2
#     Edge 36, Type (0, 0), BuildingBlock: EZIPEK_clean_linker_0, # of connection points: 2
#     Edge 37, Type (0, 0), BuildingBlock: EZIPEK_clean_linker_0, # of connection points: 2
#     Edge 38, Type (0, 0), BuildingBlock: EZIPEK_clean_linker_0, # of connection points: 2
#     Edge 39, Type (0, 0), BuildingBlock: EZIPEK_clean_linker_0, # of connection points: 2
#     Edge 40, Type (0, 0), BuildingBlock: EZIPEK_clean_linker_0, # of connection points: 2
#     Edge 41, Type (0, 0), BuildingBlock: EZIPEK_clean_linker_0, # of connection points: 2
#     Edge 42, Type (0, 0), BuildingBlock: EZIPEK_clean_linker_0, # of connection points: 2
#     Edge 43, Type (0, 0), BuildingBlock: EZIPEK_clean_linker_0, # of connection points: 2
#     Edge 44, Type (0, 0), BuildingBlock: EZIPEK_clean_linker_0, # of connection points: 2
#     Edge 45, Type (0, 0), BuildingBlock: EZIPEK_clean_linker_0, # of connection points: 2
#     Edge 46, Type (0, 0), BuildingBlock: EZIPEK_clean_linker_0, # of connection points: 2
#     Edge 47, Type (0, 0), BuildingBlock: EZIPEK_clean_linker_0, # of connection points: 2
#     Edge 48, Type (0, 0), BuildingBlock: EZIPEK_clean_linker_0, # of connection points: 2
#     Edge 49, Type (0, 0), BuildingBlock: EZIPEK_clean_linker_0, # of connection points: 2
#     Edge 50, Type (0, 0), BuildingBlock: EZIPEK_clean_linker_0, # of connection points: 2
#     Edge 51, Type (0, 0), BuildingBlock: EZIPEK_clean_linker_0, # of connection points: 2
#     Edge 52, Type (0, 0), BuildingBlock: EZIPEK_clean_linker_0, # of connection points: 2
#     Edge 53, Type (0, 0), BuildingBlock: EZIPEK_clean_linker_0, # of connection points: 2
#     Edge 54, Type (0, 0), BuildingBlock: EZIPEK_clean_linker_0, # of connection points: 2
#     Edge 55, Type (0, 0), BuildingBlock: EZIPEK_clean_linker_0, # of connection points: 2
#     Edge 56, Type (0, 0), BuildingBlock: EZIPEK_clean_linker_0, # of connection points: 2
#     Edge 57, Type (0, 0), BuildingBlock: EZIPEK_clean_linker_0, # of connection points: 2
#     Edge 58, Type (0, 0), BuildingBlock: EZIPEK_clean_linker_0, # of connection points: 2
#     Edge 59, Type (0, 0), BuildingBlock: EZIPEK_clean_linker_0, # of connection points: 2
#     Edge 60, Type (0, 0), BuildingBlock: EZIPEK_clean_linker_0, # of connection points: 2
#     Edge 61, Type (0, 0), BuildingBlock: EZIPEK_clean_linker_0, # of connection points: 2
#     Edge 62, Type (0, 0), BuildingBlock: EZIPEK_clean_linker_0, # of connection points: 2
#     Edge 63, Type (0, 0), BuildingBlock: EZIPEK_clean_linker_0, # of connection points: 2
#     Edge 64, Type (0, 0), BuildingBlock: EZIPEK_clean_linker_0, # of connection points: 2
#     Edge 65, Type (0, 0), BuildingBlock: EZIPEK_clean_linker_0, # of connection points: 2
#     Edge 66, Type (0, 0), BuildingBlock: EZIPEK_clean_linker_0, # of connection points: 2
#     Edge 67, Type (0, 0), BuildingBlock: EZIPEK_clean_linker_0, # of connection points: 2
#     Edge 68, Type (0, 0), BuildingBlock: EZIPEK_clean_linker_0, # of connection points: 2
#     Edge 69, Type (0, 0), BuildingBlock: EZIPEK_clean_linker_0, # of connection points: 2
#     Edge 70, Type (0, 0), BuildingBlock: EZIPEK_clean_linker_0, # of connection points: 2
#     Edge 71, Type (0, 0), BuildingBlock: EZIPEK_clean_linker_0, # of connection points: 2
#     Edge 72, Type (0, 0), BuildingBlock: EZIPEK_clean_linker_0, # of connection points: 2
#     Edge 73, Type (0, 0), BuildingBlock: EZIPEK_clean_linker_0, # of connection points: 2
#     Edge 74, Type (0, 0), BuildingBlock: EZIPEK_clean_linker_0, # of connection points: 2
#     Edge 75, Type (0, 0), BuildingBlock: EZIPEK_clean_linker_0, # of connection points: 2
#     Edge 76, Type (0, 0), BuildingBlock: EZIPEK_clean_linker_0, # of connection points: 2
#     Edge 77, Type (0, 0), BuildingBlock: EZIPEK_clean_linker_0, # of connection points: 2
#     Edge 78, Type (0, 0), BuildingBlock: EZIPEK_clean_linker_0, # of connection points: 2
#     Edge 79, Type (0, 0), BuildingBlock: EZIPEK_clean_linker_0, # of connection points: 2
#     Edge 80, Type (0, 0), BuildingBlock: EZIPEK_clean_linker_0, # of connection points: 2
#     Edge 81, Type (0, 0), BuildingBlock: EZIPEK_clean_linker_0, # of connection points: 2
#     Edge 82, Type (0, 0), BuildingBlock: EZIPEK_clean_linker_0, # of connection points: 2
#     Edge 83, Type (0, 0), BuildingBlock: EZIPEK_clean_linker_0, # of connection points: 2
#     Edge 84, Type (0, 0), BuildingBlock: EZIPEK_clean_linker_0, # of connection points: 2
#     Edge 85, Type (0, 0), BuildingBlock: EZIPEK_clean_linker_0, # of connection points: 2
#     Edge 86, Type (0, 0), BuildingBlock: EZIPEK_clean_linker_0, # of connection points: 2
#     Edge 87, Type (0, 0), BuildingBlock: EZIPEK_clean_linker_0, # of connection points: 2
#     Edge 88, Type (0, 0), BuildingBlock: EZIPEK_clean_linker_0, # of connection points: 2
#     Edge 89, Type (0, 0), BuildingBlock: EZIPEK_clean_linker_0, # of connection points: 2
#     Edge 90, Type (0, 0), BuildingBlock: EZIPEK_clean_linker_0, # of connection points: 2
#     Edge 91, Type (0, 0), BuildingBlock: EZIPEK_clean_linker_0, # of connection points: 2
#     Edge 92, Type (0, 0), BuildingBlock: EZIPEK_clean_linker_0, # of connection points: 2
#     Edge 93, Type (0, 0), BuildingBlock: EZIPEK_clean_linker_0, # of connection points: 2
#     Edge 94, Type (0, 0), BuildingBlock: EZIPEK_clean_linker_0, # of connection points: 2
#     Edge 95, Type (0, 0), BuildingBlock: EZIPEK_clean_linker_0, # of connection points: 2
# Relax obj value: 0.058
# Max RMSD: 0.127
# Mean RMSD: 0.127
data_MOF--net-uos--node1-QUQFOY_clean_sbu_1--edge1-EZIPEK_clean_linker_0
_symmetry_space_group_name_H-M    P1
_symmetry_Int_Tables_number       1
_symmetry_cell_setting            triclinic
loop_
_symmetry_equiv_pos_as_xyz
'x, y, z'
_cell_length_a     67.147533
_cell_length_b     67.213766
_cell_length_c     17.972159
_cell_angle_alpha  89.985521
_cell_angle_beta   89.994661
_cell_angle_gamma 90.009286
loop_
_atom_site_label
_atom_site_type_symbol
_atom_site_fract_x
_atom_site_fract_y
_atom_site_fract_z
_atom_type_partial_charge
O0 O 0.15499 0.13141 0.21958 0.0
Cd1 Cd 0.17314 0.13671 0.12871 0.0
Cd2 Cd 0.1695 0.17452 0.18808 0.0
O3 O 0.14706 0.16227 0.24983 0.0
O4 O 0.16897 0.11257 0.06493 0.0
O5 O 0.16127 0.14292 0.02796 0.0
C6 C 0.16137 0.12401 0.01479 0.0
C7 C 0.16558 0.20723 0.14709 0.0
C8 C 0.14528 0.14367 0.25935 0.0
C9 C 0.20949 0.15355 0.19833 0.0
O10 O 0.19784 0.16708 0.2216 0.0
O11 O 0.20329 0.14055 0.15216 0.0
O12 O 0.16813 0.20309 0.21625 0.0
O13 O 0.16479 0.19275 0.10003 0.0
O14 O 0.11699 0.90564 0.4594 0.0
Cd15 Cd 0.11185 0.9238 0.36843 0.0
Cd16 Cd 0.07392 0.9211 0.43027 0.0
O17 O 0.08605 0.89865 0.49224 0.0
O18 O 0.13605 0.91926 0.30511 0.0
O19 O 0.10562 0.91204 0.26747 0.0
C20 C 0.12457 0.91187 0.25467 0.0
C21 C 0.04095 0.91733 0.39121 0.0
C22 C 0.10467 0.89639 0.50045 0.0
C23 C 0.09603 0.9606 0.43813 0.0
O24 O 0.0822 0.94937 0.46203 0.0
O25 O 0.10874 0.954 0.39162 0.0
O26 O 0.04536 0.92027 0.45992 0.0
O27 O 0.05527 0.91626 0.34346 0.0
O28 O 0.34519 0.86814 0.70569 0.0
Cd29 Cd 0.32658 0.8616 0.61771 0.0
Cd30 Cd 0.32907 0.82531 0.69099 0.0
O31 O 0.34985 0.83867 0.757 0.0
O32 O 0.33045 0.88581 0.55449 0.0
O33 O 0.3385 0.8556 0.51697 0.0
C34 C 0.33839 0.87455 0.50466 0.0
C35 C 0.33482 0.7929 0.65108 0.0
C36 C 0.35325 0.8572 0.75488 0.0
C37 C 0.28917 0.84631 0.6882 0.0
O38 O 0.30016 0.83275 0.71537 0.0
O39 O 0.29626 0.85872 0.64146 0.0
O40 O 0.33063 0.79682 0.71937 0.0
O41 O 0.33611 0.80746 0.60444 0.0
O42 O 0.38263 0.09665 0.96214 0.0
Cd43 Cd 0.3886 0.0782 0.87411 0.0
Cd44 Cd 0.4256 0.07852 0.94671 0.0
O45 O 0.41183 0.09781 0.01865 0.0
O46 O 0.36451 0.08235 0.81039 0.0
O47 O 0.39493 0.09056 0.77433 0.0
C48 C 0.37599 0.09043 0.7616 0.0
C49 C 0.45842 0.08472 0.91074 0.0
C50 C 0.3936 0.10267 0.0151 0.0
C51 C 0.4028 0.03973 0.94069 0.0
O52 O 0.41794 0.04931 0.96316 0.0
O53 O 0.38957 0.04804 0.90043 0.0
O54 O 0.45405 0.07921 0.97734 0.0
O55 O 0.44406 0.08724 0.86387 0.0
O56 O 0.15362 0.86916 0.78322 0.0
Cd57 Cd 0.17164 0.86368 0.87435 0.0
Cd58 Cd 0.16841 0.82585 0.81216 0.0
O59 O 0.14593 0.83836 0.75135 0.0
O60 O 0.16745 0.88785 0.938 0.0
O61 O 0.15961 0.85753 0.97495 0.0
C62 C 0.15977 0.87644 0.98808 0.0
C63 C 0.16447 0.79279 0.84962 0.0
C64 C 0.14403 0.85698 0.74275 0.0
C65 C 0.20829 0.84723 0.80511 0.0
O66 O 0.19681 0.83375 0.78025 0.0
O67 O 0.20184 0.85995 0.85188 0.0
O68 O 0.16703 0.79747 0.78094 0.0
O69 O 0.16379 0.80691 0.89823 0.0
O70 O 0.38415 0.90265 0.04709 0.0
Cd71 Cd 0.38951 0.92215 0.13244 0.0
Cd72 Cd 0.42661 0.92194 0.05879 0.0
O73 O 0.41305 0.90206 0.98842 0.0
O74 O 0.36494 0.91764 0.19338 0.0
O75 O 0.39518 0.91201 0.23637 0.0
C76 C 0.37614 0.91113 0.24621 0.0
C77 C 0.45944 0.91636 0.09565 0.0
C78 C 0.39499 0.89672 0.99366 0.0
C79 C 0.40305 0.96034 0.06118 0.0
O80 O 0.41849 0.95096 0.04025 0.0
O81 O 0.38984 0.95201 0.1015 0.0
O82 O 0.45508 0.92114 0.02828 0.0
O83 O 0.44511 0.91431 0.14297 0.0
O84 O 0.34456 0.1324 0.30406 0.0
Cd85 Cd 0.32674 0.14016 0.39273 0.0
Cd86 Cd 0.32982 0.17591 0.31683 0.0
O87 O 0.35046 0.16167 0.25277 0.0
O88 O 0.32959 0.11643 0.45913 0.0
O89 O 0.3403 0.14646 0.49022 0.0
C90 C 0.33892 0.12771 0.50542 0.0
C91 C 0.33575 0.20866 0.35296 0.0
C92 C 0.35305 0.143 0.25483 0.0
C93 C 0.28965 0.15561 0.32116 0.0
O94 O 0.3009 0.16864 0.292 0.0
O95 O 0.29643 0.14373 0.37031 0.0
O96 O 0.33175 0.20415 0.28502 0.0
O97 O 0.33685 0.19449 0.40131 0.0
O98 O 0.1185 0.09506 0.54321 0.0
Cd99 Cd 0.11328 0.07693 0.63424 0.0
Cd100 Cd 0.07537 0.08016 0.57333 0.0
O101 O 0.08759 0.10263 0.51189 0.0
O102 O 0.1375 0.08125 0.69764 0.0
O103 O 0.10713 0.08877 0.7351 0.0
C104 C 0.12607 0.08877 0.74799 0.0
C105 C 0.0424 0.08388 0.61219 0.0
C106 C 0.10621 0.10459 0.50294 0.0
C107 C 0.09691 0.0404 0.56454 0.0
O108 O 0.0833 0.05188 0.54065 0.0
O109 O 0.10972 0.04676 0.61117 0.0
O110 O 0.04685 0.08119 0.54339 0.0
O111 O 0.05668 0.08481 0.66013 0.0
O112 O 0.84412 0.86902 0.79025 0.0
Cd113 Cd 0.82688 0.86276 0.88269 0.0
Cd114 Cd 0.83048 0.82531 0.82049 0.0
O115 O 0.85247 0.83836 0.75862 0.0
O116 O 0.83037 0.88652 0.94903 0.0
O117 O 0.84057 0.85631 0.97995 0.0
C118 C 0.83938 0.87504 0.99564 0.0
C119 C 0.83517 0.7925 0.85945 0.0
C120 C 0.85386 0.85702 0.74952 0.0
C121 C 0.79032 0.84579 0.81441 0.0
O122 O 0.80193 0.83253 0.78875 0.0
O123 O 0.79665 0.85837 0.86193 0.0
O124 O 0.83247 0.79687 0.79056 0.0
O125 O 0.83558 0.80679 0.9074 0.0
O126 O 0.88249 0.09412 0.55245 0.0
Cd127 Cd 0.88949 0.07619 0.64182 0.0
Cd128 Cd 0.92571 0.07863 0.56837 0.0
O129 O 0.91208 0.0993 0.50242 0.0
O130 O 0.86566 0.07971 0.70769 0.0
O131 O 0.89592 0.08958 0.73962 0.0
C132 C 0.87711 0.08871 0.75435 0.0
C133 C 0.95832 0.08358 0.60849 0.0
C134 C 0.89342 0.1022 0.50322 0.0
C135 C 0.9047 0.03889 0.57085 0.0
O136 O 0.9181 0.04994 0.54296 0.0
O137 O 0.89261 0.04581 0.61907 0.0
O138 O 0.95428 0.08002 0.5398 0.0
O139 O 0.94378 0.08484 0.6553 0.0
O140 O 0.6565 0.13267 0.29705 0.0
Cd141 Cd 0.67433 0.14022 0.38593 0.0
Cd142 Cd 0.67063 0.17603 0.31319 0.0
O143 O 0.64967 0.16216 0.2493 0.0
O144 O 0.67166 0.11638 0.45193 0.0
O145 O 0.66082 0.1463 0.48371 0.0
C146 C 0.66231 0.12754 0.49856 0.0
C147 C 0.66545 0.2084 0.35487 0.0
C148 C 0.64758 0.14342 0.24934 0.0
C149 C 0.71091 0.15619 0.31303 0.0
O150 O 0.69933 0.16905 0.28472 0.0
O151 O 0.70455 0.14419 0.36259 0.0
O152 O 0.66857 0.20458 0.2857 0.0
O153 O 0.66462 0.19373 0.40123 0.0
O154 O 0.62032 0.90439 0.03194 0.0
Cd155 Cd 0.61574 0.92244 0.12265 0.0
Cd156 Cd 0.57688 0.92148 0.06341 0.0
O157 O 0.58917 0.90036 0.99481 0.0
O158 O 0.6396 0.91773 0.18738 0.0
O159 O 0.60887 0.91016 0.22204 0.0
C160 C 0.62775 0.91007 0.23606 0.0
C161 C 0.54373 0.91656 0.09922 0.0
C162 C 0.60763 0.8968 0.98793 0.0
C163 C 0.60025 0.96034 0.05862 0.0
O164 O 0.58495 0.9504 0.03983 0.0
O165 O 0.61405 0.95252 0.09746 0.0
O166 O 0.54844 0.92118 0.03209 0.0
O167 O 0.55788 0.91444 0.14718 0.0
O168 O 0.84596 0.13273 0.21166 0.0
Cd169 Cd 0.82833 0.1401 0.12181 0.0
Cd170 Cd 0.83136 0.17625 0.19662 0.0
O171 O 0.85142 0.16202 0.26345 0.0
O172 O 0.8312 0.11601 0.05691 0.0
O173 O 0.84193 0.14584 0.02369 0.0
C174 C 0.8405 0.12704 0.00968 0.0
C175 C 0.83706 0.20882 0.15756 0.0
C176 C 0.85402 0.14334 0.26189 0.0
C177 C 0.79116 0.15613 0.19172 0.0
O178 O 0.8024 0.16927 0.22019 0.0
O179 O 0.79798 0.14391 0.1438 0.0
O180 O 0.83312 0.20472 0.22593 0.0
O181 O 0.8385 0.19433 0.11072 0.0
O182 O 0.61866 0.0968 0.95523 0.0
Cd183 Cd 0.61268 0.0781 0.86787 0.0
Cd184 Cd 0.57565 0.0783 0.94187 0.0
O185 O 0.58956 0.09782 0.01248 0.0
O186 O 0.63681 0.08212 0.80408 0.0
O187 O 0.60642 0.09026 0.76763 0.0
C188 C 0.62536 0.09013 0.75502 0.0
C189 C 0.54268 0.08446 0.90804 0.0
C190 C 0.60774 0.10282 0.00834 0.0
C191 C 0.5986 0.03963 0.93601 0.0
O192 O 0.58346 0.04915 0.95888 0.0
O193 O 0.6117 0.04795 0.89517 0.0
O194 O 0.54737 0.07931 0.97469 0.0
O195 O 0.55675 0.08651 0.85968 0.0
O196 O 0.65725 0.86967 0.70636 0.0
Cd197 Cd 0.67478 0.86304 0.61519 0.0
Cd198 Cd 0.67032 0.82591 0.67672 0.0
O199 O 0.64754 0.83914 0.73381 0.0
O200 O 0.67174 0.88655 0.54751 0.0
O201 O 0.66121 0.85632 0.51814 0.0
C202 C 0.66263 0.87498 0.50147 0.0
C203 C 0.6659 0.79288 0.64032 0.0
C204 C 0.64662 0.85776 0.74435 0.0
C205 C 0.71062 0.84597 0.68668 0.0
O206 O 0.6986 0.8331 0.71247 0.0
O207 O 0.70483 0.85832 0.63743 0.0
O208 O 0.66788 0.79773 0.70908 0.0
O209 O 0.66608 0.80682 0.59093 0.0
O210 O 0.88051 0.90584 0.46442 0.0
Cd211 Cd 0.88666 0.92331 0.37253 0.0
Cd212 Cd 0.92394 0.91934 0.43354 0.0
O213 O 0.9112 0.89673 0.49311 0.0
O214 O 0.863 0.91975 0.30561 0.0
O215 O 0.89337 0.90981 0.2752 0.0
C216 C 0.87463 0.91086 0.25917 0.0
C217 C 0.95679 0.91577 0.39282 0.0
C218 C 0.89254 0.89563 0.50345 0.0
C219 C 0.90338 0.95932 0.44375 0.0
O220 O 0.91641 0.94743 0.46916 0.0
O221 O 0.891 0.95345 0.39465 0.0
O222 O 0.95254 0.9176 0.46221 0.0
O223 O 0.94237 0.91549 0.34536 0.0
O224 O 0.65581 0.63376 0.70764 0.0
Cd225 Cd 0.6744 0.64049 0.61994 0.0
Cd226 Cd 0.67116 0.67666 0.69287 0.0
O227 O 0.65016 0.66319 0.75794 0.0
O228 O 0.6711 0.61601 0.55762 0.0
O229 O 0.6627 0.64597 0.51835 0.0
C230 C 0.66316 0.62699 0.5069 0.0
C231 C 0.66598 0.70896 0.65027 0.0
C232 C 0.64735 0.64455 0.75636 0.0
C233 C 0.71118 0.65597 0.69349 0.0
O234 O 0.6999 0.66935 0.72009 0.0
O235 O 0.70456 0.64365 0.64554 0.0
O236 O 0.66945 0.7053 0.71935 0.0
O237 O 0.66488 0.69418 0.60454 0.0
O238 O 0.62021 0.4035 0.96655 0.0
Cd239 Cd 0.6162 0.42174 0.87594 0.0
Cd240 Cd 0.57741 0.42179 0.93574 0.0
O241 O 0.58892 0.39988 0.00278 0.0
O242 O 0.63996 0.41647 0.81137 0.0
O243 O 0.60907 0.40976 0.77632 0.0
C244 C 0.62796 0.40921 0.76242 0.0
C245 C 0.54416 0.41862 0.89897 0.0
C246 C 0.60732 0.39598 0.00994 0.0
C247 C 0.602 0.45989 0.94135 0.0
O248 O 0.58658 0.45028 0.96101 0.0
O249 O 0.61539 0.45184 0.90122 0.0
O250 O 0.54893 0.42251 0.96666 0.0
O251 O 0.55825 0.4163 0.85093 0.0
O252 O 0.84366 0.37033 0.21113 0.0
Cd253 Cd 0.82679 0.36339 0.11848 0.0
Cd254 Cd 0.83086 0.32611 0.18351 0.0
O255 O 0.85245 0.33994 0.24484 0.0
O256 O 0.83006 0.38704 0.05137 0.0
O257 O 0.84093 0.35694 0.02212 0.0
C258 C 0.83946 0.37561 0.0057 0.0
C259 C 0.83623 0.29301 0.14938 0.0
C260 C 0.85353 0.35866 0.25276 0.0
C261 C 0.79031 0.34599 0.186 0.0
O262 O 0.80204 0.33304 0.213 0.0
O263 O 0.79659 0.35851 0.13815 0.0
O264 O 0.8332 0.29801 0.21745 0.0
O265 O 0.83661 0.30683 0.09952 0.0
O266 O 0.88187 0.59492 0.46586 0.0
Cd267 Cd 0.8885 0.57787 0.37343 0.0
Cd268 Cd 0.92582 0.5814 0.4384 0.0
O269 O 0.91242 0.60339 0.49898 0.0
O270 O 0.86483 0.58139 0.30658 0.0
O271 O 0.89511 0.59173 0.27669 0.0
C272 C 0.87639 0.59051 0.26052 0.0
C273 C 0.95905 0.58595 0.40372 0.0
C274 C 0.89371 0.60471 0.50712 0.0
C275 C 0.90517 0.54128 0.44195 0.0
O276 O 0.91826 0.55285 0.46901 0.0
O277 O 0.89284 0.54766 0.39356 0.0
O278 O 0.95402 0.58324 0.47197 0.0
O279 O 0.94519 0.58649 0.35401 0.0
O280 O 0.65665 0.36867 0.29105 0.0
Cd281 Cd 0.67428 0.36218 0.38211 0.0
Cd282 Cd 0.67009 0.32509 0.3212 0.0
O283 O 0.64722 0.33806 0.26369 0.0
O284 O 0.67119 0.38569 0.44967 0.0
O285 O 0.66085 0.35542 0.4794 0.0
C286 C 0.66221 0.37409 0.49598 0.0
C287 C 0.66577 0.29227 0.3602 0.0
C288 C 0.64613 0.35667 0.25306 0.0
C289 C 0.71027 0.34531 0.31079 0.0
O290 O 0.69836 0.33231 0.28517 0.0
O291 O 0.70435 0.35768 0.35974 0.0
O292 O 0.66773 0.29673 0.29104 0.0
O293 O 0.66594 0.30648 0.40849 0.0
O294 O 0.88089 0.40753 0.53861 0.0
Cd295 Cd 0.88755 0.42446 0.63132 0.0
Cd296 Cd 0.9249 0.42071 0.56684 0.0
O297 O 0.91139 0.39897 0.50519 0.0
O298 O 0.86386 0.42094 0.69812 0.0
O299 O 0.89409 0.41044 0.72783 0.0
C300 C 0.87537 0.4117 0.74399 0.0
C301 C 0.95795 0.41585 0.60299 0.0
C302 C 0.89267 0.39776 0.49706 0.0
C303 C 0.90461 0.46101 0.56364 0.0
O304 O 0.91767 0.44937 0.53681 0.0
O305 O 0.89212 0.45468 0.61155 0.0
O306 O 0.9532 0.41878 0.53459 0.0
O307 O 0.94392 0.4153 0.65203 0.0
O308 O 0.8448 0.63177 0.79254 0.0
Cd309 Cd 0.82773 0.63818 0.88525 0.0
Cd310 Cd 0.83144 0.67541 0.82221 0.0
O311 O 0.85342 0.66234 0.76053 0.0
O312 O 0.83139 0.61455 0.95203 0.0
O313 O 0.84165 0.64483 0.98178 0.0
C314 C 0.84051 0.62613 0.99798 0.0
C315 C 0.8358 0.70835 0.86034 0.0
C316 C 0.85464 0.64366 0.75166 0.0
C317 C 0.79123 0.65498 0.81725 0.0
O318 O 0.80293 0.66803 0.79076 0.0
O319 O 0.79748 0.64255 0.86545 0.0
O320 O 0.83301 0.70383 0.79163 0.0
O321 O 0.83665 0.69411 0.90846 0.0
O322 O 0.61897 0.59723 0.04901 0.0
Cd323 Cd 0.61409 0.57755 0.13441 0.0
Cd324 Cd 0.57696 0.57702 0.06164 0.0
O325 O 0.59002 0.59708 0.99077 0.0
O326 O 0.63842 0.58266 0.19601 0.0
O327 O 0.60795 0.58768 0.2379 0.0
C328 C 0.62695 0.58901 0.24831 0.0
C329 C 0.54413 0.58249 0.09834 0.0
C330 C 0.60792 0.60293 0.99581 0.0
C331 C 0.60108 0.53897 0.06456 0.0
O332 O 0.58547 0.54808 0.04376 0.0
O333 O 0.61427 0.5476 0.10412 0.0
O334 O 0.5485 0.57745 0.03127 0.0
O335 O 0.55844 0.58472 0.14561 0.0
O336 O 0.3467 0.3687 0.29409 0.0
Cd337 Cd 0.32872 0.36099 0.38244 0.0
Cd338 Cd 0.33267 0.32525 0.30868 0.0
O339 O 0.35393 0.33927 0.24671 0.0
O340 O 0.33109 0.38483 0.44859 0.0
O341 O 0.34212 0.35499 0.48053 0.0
C342 C 0.34047 0.37373 0.49539 0.0
C343 C 0.33776 0.29266 0.34823 0.0
C344 C 0.3559 0.35802 0.2469 0.0
C345 C 0.29232 0.34501 0.30806 0.0
O346 O 0.30404 0.33235 0.27922 0.0
O347 O 0.29854 0.35682 0.35848 0.0
O348 O 0.33501 0.29687 0.27916 0.0
O349 O 0.33821 0.30706 0.3958 0.0
O350 O 0.3854 0.59883 0.04921 0.0
Cd351 Cd 0.38976 0.57885 0.13391 0.0
Cd352 Cd 0.42705 0.578 0.06185 0.0
O353 O 0.41423 0.59797 0.99018 0.0
O354 O 0.36523 0.58402 0.1944 0.0
O355 O 0.39556 0.5885 0.23834 0.0
C356 C 0.37654 0.59001 0.24771 0.0
C357 C 0.45997 0.58309 0.09852 0.0
C358 C 0.39645 0.60416 0.9955 0.0
C359 C 0.40237 0.54034 0.0625 0.0
O360 O 0.41827 0.54921 0.04348 0.0
O361 O 0.38913 0.54906 0.10151 0.0
O362 O 0.45553 0.57787 0.0317 0.0
O363 O 0.44566 0.58581 0.14543 0.0
O364 O 0.15766 0.63205 0.79961 0.0
Cd365 Cd 0.17521 0.6395 0.88956 0.0
Cd366 Cd 0.17226 0.67576 0.81431 0.0
O367 O 0.15233 0.66135 0.74762 0.0
O368 O 0.17214 0.61557 0.95517 0.0
O369 O 0.16145 0.64552 0.9871 0.0
C370 C 0.16278 0.62674 1.00174 0.0
C371 C 0.16621 0.70856 0.8501 0.0
C372 C 0.14965 0.64268 0.74932 0.0
C373 C 0.21249 0.65559 0.82043 0.0
O374 O 0.2013 0.66876 0.79191 0.0
O375 O 0.2056 0.64332 0.86808 0.0
O376 O 0.17048 0.70404 0.78241 0.0
O377 O 0.16478 0.69436 0.89825 0.0
O378 O 0.11775 0.40325 0.54275 0.0
Cd379 Cd 0.1114 0.42182 0.63099 0.0
Cd380 Cd 0.07486 0.41922 0.55637 0.0
O381 O 0.08837 0.39849 0.49047 0.0
O382 O 0.13597 0.41803 0.6929 0.0
O383 O 0.10594 0.4102 0.73292 0.0
C384 C 0.12495 0.41029 0.74398 0.0
C385 C 0.04216 0.41461 0.59614 0.0
C386 C 0.10697 0.39532 0.49274 0.0
C387 C 0.09627 0.45892 0.55798 0.0
O388 O 0.08272 0.44786 0.53113 0.0
O389 O 0.10856 0.45207 0.60564 0.0
O390 O 0.04628 0.41817 0.52752 0.0
O391 O 0.05666 0.41305 0.64298 0.0
O392 O 0.34774 0.63376 0.70727 0.0
Cd393 Cd 0.32886 0.64052 0.62058 0.0
Cd394 Cd 0.33256 0.67665 0.69275 0.0
O395 O 0.35413 0.66331 0.75514 0.0
O396 O 0.33199 0.61622 0.55722 0.0
O397 O 0.34036 0.64629 0.51896 0.0
C398 C 0.33991 0.62734 0.50685 0.0
C399 C 0.33718 0.70918 0.65207 0.0
C400 C 0.35669 0.64464 0.75444 0.0
C401 C 0.29255 0.65597 0.69709 0.0
O402 O 0.30409 0.66919 0.72334 0.0
O403 O 0.2988 0.64379 0.64796 0.0
O404 O 0.33448 0.70511 0.72127 0.0
O405 O 0.33777 0.6947 0.60492 0.0
O406 O 0.11997 0.59414 0.45865 0.0
Cd407 Cd 0.11256 0.57655 0.36876 0.0
Cd408 Cd 0.07632 0.57942 0.44408 0.0
O409 O 0.09062 0.59951 0.51036 0.0
O410 O 0.13647 0.57971 0.30303 0.0
O411 O 0.10643 0.59026 0.27123 0.0
C412 C 0.12523 0.58901 0.2565 0.0
C413 C 0.04348 0.58517 0.40757 0.0
C414 C 0.1093 0.60219 0.50875 0.0
C415 C 0.09666 0.53931 0.43837 0.0
O416 O 0.08353 0.5505 0.46713 0.0
O417 O 0.10883 0.54618 0.3903 0.0
O418 O 0.04795 0.58105 0.47546 0.0
O419 O 0.05774 0.58664 0.35967 0.0
O420 O 0.15599 0.36639 0.20294 0.0
Cd421 Cd 0.1747 0.3601 0.11493 0.0
Cd422 Cd 0.17225 0.32354 0.18812 0.0
O423 O 0.15166 0.33695 0.25496 0.0
O424 O 0.1707 0.38444 0.05211 0.0
O425 O 0.16302 0.35426 0.01344 0.0
C426 C 0.16295 0.37323 1.00165 0.0
C427 C 0.16692 0.29106 0.14786 0.0
C428 C 0.14821 0.35548 0.25286 0.0
C429 C 0.21203 0.34478 0.18652 0.0
O430 O 0.20107 0.33105 0.21264 0.0
O431 O 0.20501 0.35732 0.14011 0.0
O432 O 0.17079 0.295 0.21638 0.0
O433 O 0.16566 0.30562 0.10122 0.0
O434 O 0.38458 0.4043 0.9524 0.0
Cd435 Cd 0.38969 0.42335 0.86532 0.0
Cd436 Cd 0.42681 0.42403 0.93845 0.0
O437 O 0.41372 0.40401 0.0095 0.0
O438 O 0.36546 0.41873 0.80258 0.0
O439 O 0.39595 0.41167 0.76423 0.0
C440 C 0.37697 0.41125 0.75257 0.0
C441 C 0.4598 0.41946 0.90152 0.0
C442 C 0.39566 0.39856 0.00549 0.0
C443 C 0.40254 0.46195 0.93502 0.0
O444 O 0.418 0.45279 0.95688 0.0
O445 O 0.38963 0.45342 0.89397 0.0
O446 O 0.45533 0.42447 0.96854 0.0
O447 O 0.44552 0.4166 0.85462 0.0
C448 C 0.25801 0.17223 0.28076 0.0
C449 C 0.26862 0.15435 0.29471 0.0
C450 C 0.23954 0.1354 0.25161 0.0
C451 C 0.23036 0.15331 0.22696 0.0
N452 N 0.23421 0.18842 0.20055 0.0
N453 N 0.27081 0.11874 0.27477 0.0
C454 C 0.24059 0.17164 0.23636 0.0
C455 C 0.25979 0.13583 0.27504 0.0
N456 N 0.26415 0.18976 0.31173 0.0
N457 N 0.22887 0.11814 0.25623 0.0
H458 H 0.28594 0.11833 0.2873 0.0
H459 H 0.26537 0.10533 0.25391 0.0
H460 H 0.21375 0.11721 0.2438 0.0
H461 H 0.23457 0.10525 0.28053 0.0
H462 H 0.25588 0.20285 0.30785 0.0
H463 H 0.27611 0.19067 0.34862 0.0
H464 H 0.24222 0.20171 0.2012 0.0
H465 H 0.22239 0.1884 0.16292 0.0
C466 C 0.11537 0.99018 0.48949 0.0
C467 C 0.09703 0.98144 0.46687 0.0
C468 C 0.07923 0.00929 0.52418 0.0
C469 C 0.09747 0.01954 0.53593 0.0
N470 N 0.13291 0.02105 0.51071 0.0
N471 N 0.0618 0.98625 0.44466 0.0
C472 C 0.1156 0.0104 0.51327 0.0
C473 C 0.07903 0.99207 0.47877 0.0
N474 N 0.13244 0.97915 0.49209 0.0
N475 N 0.06215 0.01547 0.55846 0.0
H476 H 0.06123 0.97462 0.4063 0.0
H477 H 0.04871 0.99456 0.44743 0.0
H478 H 0.06186 0.0271 0.59685 0.0
H479 H 0.04888 0.00744 0.55582 0.0
H480 H 0.14565 0.98457 0.51484 0.0
H481 H 0.13293 0.96402 0.47981 0.0
H482 H 0.146 0.01535 0.48791 0.0
H483 H 0.13374 0.03616 0.52314 0.0
C484 C 0.23963 0.82952 0.76705 0.0
C485 C 0.2293 0.84774 0.77786 0.0
C486 C 0.25903 0.86567 0.7346 0.0
C487 C 0.268 0.84735 0.71335 0.0
N488 N 0.26351 0.81215 0.69078 0.0
N489 N 0.22795 0.88315 0.75265 0.0
C490 C 0.25728 0.82936 0.72389 0.0
C491 C 0.23862 0.86587 0.75621 0.0
N492 N 0.23314 0.81243 0.80041 0.0
N493 N 0.27002 0.88275 0.73802 0.0
H494 H 0.21274 0.88394 0.76357 0.0
H495 H 0.2338 0.89625 0.73054 0.0
H496 H 0.28523 0.88328 0.72695 0.0
H497 H 0.26442 0.89597 0.76003 0.0
H498 H 0.24119 0.79918 0.79864 0.0
H499 H 0.22116 0.8121 0.83735 0.0
H500 H 0.25519 0.79905 0.69231 0.0
H501 H 0.27559 0.8116 0.65436 0.0
C502 C 0.40015 0.00269 0.92203 0.0
C503 C 0.39969 0.01936 0.97012 0.0
C504 C 0.39966 0.99732 0.07929 0.0
C505 C 0.39983 0.98064 0.0312 0.0
N506 N 0.39516 0.96716 0.90798 0.0
N507 N 0.39384 0.03273 0.09281 0.0
C508 C 0.39849 0.98326 0.95282 0.0
C509 C 0.39781 0.01671 0.04833 0.0
N510 N 0.40315 0.00535 0.84746 0.0
N511 N 0.40227 0.99475 0.15412 0.0
H512 H 0.39218 0.04712 0.07199 0.0
H513 H 0.39032 0.03152 0.14906 0.0
H514 H 0.40349 0.98078 0.17892 0.0
H515 H 0.40467 0.00646 0.19098 0.0
H516 H 0.40602 0.99371 0.81074 0.0
H517 H 0.4042 0.01936 0.82285 0.0
H518 H 0.39205 0.96829 0.85138 0.0
H519 H 0.39363 0.95274 0.92867 0.0
C520 C 0.76062 0.86469 0.76251 0.0
C521 C 0.76945 0.84649 0.78591 0.0
C522 C 0.74154 0.82833 0.73012 0.0
C523 C 0.73135 0.8465 0.7167 0.0
N524 N 0.7297 0.882 0.73942 0.0
N525 N 0.76511 0.81131 0.80908 0.0
C526 C 0.74043 0.86474 0.73831 0.0
C527 C 0.75894 0.82839 0.77486 0.0
N528 N 0.77158 0.8818 0.75949 0.0
N529 N 0.73514 0.81106 0.69788 0.0
H530 H 0.77703 0.81092 0.84626 0.0
H531 H 0.75691 0.79814 0.80748 0.0
H532 H 0.72326 0.81052 0.66054 0.0
H533 H 0.74313 0.79779 0.70121 0.0
H534 H 0.76615 0.8949 0.73597 0.0
H535 H 0.78668 0.88243 0.77242 0.0
H536 H 0.7353 0.89521 0.76153 0.0
H537 H 0.7146 0.88272 0.72646 0.0
C538 C 0.92123 0.99002 0.48705 0.0
C539 C 0.90293 0.98005 0.47357 0.0
C540 C 0.88509 0.00934 0.5211 0.0
C541 C 0.90346 0.0179 0.54422 0.0
N542 N 0.9386 0.01303 0.56702 0.0
N543 N 0.86739 0.97872 0.49652 0.0
C544 C 0.92141 0.00719 0.53269 0.0
C545 C 0.88479 0.98924 0.49586 0.0
N546 N 0.9384 0.98365 0.45388 0.0
N547 N 0.86807 0.02046 0.51936 0.0
H548 H 0.86649 0.96371 0.48244 0.0
H549 H 0.85425 0.98436 0.51909 0.0
H550 H 0.8676 0.03546 0.53375 0.0
H551 H 0.85485 0.01529 0.49589 0.0
H552 H 0.95176 0.99149 0.45746 0.0
H553 H 0.93873 0.97202 0.41551 0.0
H554 H 0.95168 0.0047 0.5649 0.0
H555 H 0.93911 0.02481 0.60476 0.0
C556 C 0.74215 0.17354 0.2725 0.0
C557 C 0.73186 0.15541 0.28553 0.0
C558 C 0.76111 0.1371 0.2403 0.0
C559 C 0.77006 0.1553 0.21746 0.0
N560 N 0.76593 0.19049 0.1943 0.0
N561 N 0.73009 0.1199 0.26323 0.0
C562 C 0.7596 0.17342 0.22822 0.0
C563 C 0.74089 0.13713 0.26425 0.0
N564 N 0.73574 0.19082 0.30459 0.0
N565 N 0.77198 0.11994 0.24297 0.0
H566 H 0.71501 0.11923 0.27655 0.0
H567 H 0.73563 0.10666 0.24119 0.0
H568 H 0.78705 0.11922 0.22958 0.0
H569 H 0.76649 0.10683 0.26626 0.0
H570 H 0.74378 0.20407 0.30154 0.0
H571 H 0.72376 0.19138 0.34153 0.0
H572 H 0.75779 0.20369 0.19569 0.0
H573 H 0.77797 0.19083 0.1576 0.0
C574 C 0.60141 0.00254 0.91816 0.0
C575 C 0.60192 0.01931 0.96581 0.0
C576 C 0.60272 0.99745 0.07545 0.0
C577 C 0.60263 0.98067 0.02778 0.0
N578 N 0.60694 0.96707 0.90458 0.0
N579 N 0.60813 0.03295 0.08783 0.0
C580 C 0.60353 0.98318 0.94925 0.0
C581 C 0.60415 0.01681 0.04395 0.0
N582 N 0.59801 0.00503 0.84376 0.0
N583 N 0.60049 0.99496 0.15048 0.0
H584 H 0.60954 0.04733 0.06662 0.0
H585 H 0.61191 0.03188 0.14388 0.0
H586 H 0.59956 0.98101 0.17565 0.0
H587 H 0.59806 0.00669 0.18722 0.0
H588 H 0.59513 0.99329 0.80751 0.0
H589 H 0.59663 0.019 0.81895 0.0
H590 H 0.60968 0.96815 0.84769 0.0
H591 H 0.60898 0.95273 0.92552 0.0
C592 C 0.74279 0.67292 0.73239 0.0
C593 C 0.73211 0.65494 0.72107 0.0
C594 C 0.76102 0.63635 0.76772 0.0
C595 C 0.7703 0.65449 0.78939 0.0
N596 N 0.76669 0.68989 0.8099 0.0
N597 N 0.72967 0.61962 0.74665 0.0
C598 C 0.76018 0.67275 0.77697 0.0
C599 C 0.74079 0.63662 0.74391 0.0
N600 N 0.73678 0.69012 0.69856 0.0
N601 N 0.77158 0.61899 0.76609 0.0
H602 H 0.71456 0.61916 0.73375 0.0
H603 H 0.73499 0.60642 0.76977 0.0
H604 H 0.78667 0.6181 0.77891 0.0
H605 H 0.76582 0.60587 0.74388 0.0
H606 H 0.7451 0.7032 0.70048 0.0
H607 H 0.72486 0.69068 0.66135 0.0
H608 H 0.75877 0.70321 0.80713 0.0
H609 H 0.77857 0.69023 0.8473 0.0
C610 C 0.60483 0.49698 0.92456 0.0
C611 C 0.60493 0.48016 0.97208 0.0
C612 C 0.60447 0.50193 0.08199 0.0
C613 C 0.60462 0.51874 0.03444 0.0
N614 N 0.61004 0.53252 0.91216 0.0
N615 N 0.60991 0.46641 0.09467 0.0
C616 C 0.60642 0.51631 0.95614 0.0
C617 C 0.60634 0.48259 0.05051 0.0
N618 N 0.6022 0.49455 0.84967 0.0
N619 N 0.60161 0.50437 0.15673 0.0
H620 H 0.6117 0.45208 0.07335 0.0
H621 H 0.613 0.46739 0.15133 0.0
H622 H 0.60049 0.51832 0.1818 0.0
H623 H 0.59897 0.49262 0.19318 0.0
H624 H 0.5996 0.50631 0.81321 0.0
H625 H 0.60117 0.48062 0.82442 0.0
H626 H 0.61349 0.53154 0.85579 0.0
H627 H 0.6115 0.54688 0.9335 0.0
C628 C 0.74148 0.32796 0.2683 0.0
C629 C 0.73101 0.34602 0.28092 0.0
C630 C 0.76014 0.36455 0.23575 0.0
C631 C 0.76932 0.34643 0.21338 0.0
N632 N 0.7656 0.31115 0.19107 0.0
N633 N 0.7289 0.38144 0.25701 0.0
C634 C 0.75904 0.3282 0.22443 0.0
C635 C 0.73988 0.36434 0.25909 0.0
N636 N 0.73519 0.31065 0.3006 0.0
N637 N 0.77082 0.38183 0.23862 0.0
H638 H 0.71375 0.38194 0.2693 0.0
H639 H 0.73436 0.39468 0.23475 0.0
H640 H 0.78595 0.38266 0.22624 0.0
H641 H 0.76513 0.3949 0.26146 0.0
H642 H 0.74337 0.29749 0.29796 0.0
H643 H 0.72319 0.30999 0.33733 0.0
H644 H 0.7576 0.29786 0.19257 0.0
H645 H 0.77769 0.31086 0.15463 0.0
C646 C 0.9223 0.4923 0.52524 0.0
C647 C 0.90408 0.48198 0.5363 0.0
C648 C 0.88605 0.51138 0.49105 0.0
C649 C 0.90437 0.52035 0.46961 0.0
N650 N 0.93974 0.51623 0.44922 0.0
N651 N 0.86866 0.48037 0.51101 0.0
C652 C 0.92246 0.50988 0.48162 0.0
C653 C 0.88592 0.49111 0.51402 0.0
N654 N 0.93939 0.4858 0.55854 0.0
N655 N 0.86889 0.52228 0.49328 0.0
H656 H 0.86789 0.46524 0.52323 0.0
H657 H 0.85555 0.48602 0.48824 0.0
H658 H 0.8683 0.53742 0.48114 0.0
H659 H 0.85565 0.51673 0.51538 0.0
H660 H 0.95267 0.49383 0.55695 0.0
H661 H 0.93971 0.47375 0.59509 0.0
H662 H 0.95294 0.50807 0.45152 0.0
H663 H 0.94033 0.52828 0.4127 0.0
C664 C 0.26131 0.32755 0.26578 0.0
C665 C 0.27136 0.34571 0.28052 0.0
C666 C 0.2418 0.36392 0.2373 0.0
C667 C 0.23311 0.34577 0.21263 0.0
N668 N 0.23788 0.31085 0.18544 0.0
N669 N 0.27258 0.3814 0.26174 0.0
C670 C 0.24388 0.32774 0.22141 0.0
C671 C 0.26205 0.36401 0.26112 0.0
N672 N 0.26791 0.31013 0.29633 0.0
N673 N 0.23068 0.38089 0.24177 0.0
H674 H 0.28767 0.38218 0.27493 0.0
H675 H 0.26683 0.39471 0.24112 0.0
H676 H 0.21559 0.38146 0.22859 0.0
H677 H 0.23598 0.3939 0.26632 0.0
H678 H 0.26003 0.29682 0.29192 0.0
H679 H 0.27983 0.30948 0.33347 0.0
H680 H 0.24625 0.29778 0.18554 0.0
H681 H 0.22594 0.31063 0.14834 0.0
C682 C 0.39735 0.51824 0.95226 0.0
C683 C 0.39864 0.52031 0.03087 0.0
C684 C 0.39673 0.48413 0.04449 0.0
C685 C 0.39876 0.48204 0.96609 0.0
N686 N 0.40204 0.49691 0.84476 0.0
N687 N 0.40058 0.50542 0.15255 0.0
C688 C 0.39907 0.49904 0.91959 0.0
C689 C 0.39833 0.50331 0.07737 0.0
N690 N 0.39413 0.53468 0.90903 0.0
N691 N 0.39292 0.46774 0.08729 0.0
H692 H 0.40147 0.51925 0.17864 0.0
H693 H 0.40291 0.49351 0.18858 0.0
H694 H 0.39152 0.45349 0.06497 0.0
H695 H 0.38931 0.46847 0.14357 0.0
H696 H 0.39109 0.534 0.85229 0.0
H697 H 0.39264 0.54894 0.93122 0.0
H698 H 0.40482 0.50879 0.80908 0.0
H699 H 0.40306 0.48307 0.81882 0.0
C700 C 0.26291 0.63678 0.74824 0.0
C701 C 0.27174 0.65509 0.72603 0.0
C702 C 0.24398 0.67296 0.78376 0.0
C703 C 0.23363 0.6548 0.795 0.0
N704 N 0.23198 0.61936 0.77049 0.0
N705 N 0.26744 0.69042 0.70587 0.0
C706 C 0.24271 0.63662 0.77256 0.0
C707 C 0.26132 0.67315 0.73887 0.0
N708 N 0.27386 0.61966 0.74967 0.0
N709 N 0.23763 0.69003 0.81761 0.0
H710 H 0.27923 0.69102 0.66814 0.0
H711 H 0.25928 0.70359 0.70893 0.0
H712 H 0.22569 0.69031 0.85476 0.0
H713 H 0.2457 0.70328 0.81573 0.0
H714 H 0.26846 0.60642 0.77225 0.0
H715 H 0.28894 0.61911 0.73624 0.0
H716 H 0.23756 0.60626 0.74749 0.0
H717 H 0.21693 0.61853 0.78408 0.0
C718 C 0.11557 0.48875 0.50862 0.0
C719 C 0.09728 0.47993 0.5314 0.0
C720 C 0.07929 0.50791 0.47589 0.0
C721 C 0.09747 0.51818 0.46372 0.0
N722 N 0.13303 0.51964 0.48643 0.0
N723 N 0.06208 0.48445 0.55443 0.0
C724 C 0.11571 0.50899 0.48497 0.0
C725 C 0.07923 0.49052 0.52035 0.0
N726 N 0.13266 0.47775 0.5059 0.0
N727 N 0.06209 0.51434 0.44311 0.0
H728 H 0.06162 0.47258 0.59184 0.0
H729 H 0.04893 0.49269 0.55258 0.0
H730 H 0.06168 0.52627 0.40599 0.0
H731 H 0.0488 0.50634 0.44577 0.0
H732 H 0.14584 0.48316 0.48278 0.0
H733 H 0.13323 0.46267 0.51898 0.0
H734 H 0.14621 0.51396 0.50852 0.0
H735 H 0.13385 0.53471 0.47333 0.0
C736 C 0.16173 0.09905 0.90927 0.0
C737 C 0.15246 0.11543 0.94539 0.0
C738 C 0.12722 0.11591 0.84637 0.0
C739 C 0.1347 0.09769 0.81732 0.0
N740 N 0.15637 0.06937 0.83623 0.0
N741 N 0.12274 0.13564 0.9573 0.0
C742 C 0.15119 0.0885 0.85313 0.0
C743 C 0.13415 0.12281 0.91661 0.0
N744 N 0.18092 0.09397 0.9259 0.0
N745 N 0.11428 0.12727 0.80594 0.0
H746 H 0.1263 0.14002 0.01128 0.0
H747 H 0.10849 0.13995 0.94078 0.0
H748 H 0.10988 0.12373 0.75197 0.0
H749 H 0.1099 0.14147 0.82265 0.0
H750 H 0.18878 0.0832 0.89628 0.0
H751 H 0.18975 0.10212 0.96262 0.0
H752 H 0.16723 0.06156 0.86564 0.0
H753 H 0.14823 0.06053 0.79954 0.0
C754 C 0.13249 0.8778 0.08603 0.0
C755 C 0.15086 0.88507 0.05741 0.0
C756 C 0.14971 0.91201 0.14967 0.0
C757 C 0.13314 0.90292 0.18533 0.0
N758 N 0.11249 0.87348 0.19647 0.0
N759 N 0.17945 0.90635 0.07712 0.0
C760 C 0.12555 0.88475 0.15619 0.0
C761 C 0.16022 0.90139 0.0936 0.0
N762 N 0.12103 0.86503 0.04524 0.0
N763 N 0.15501 0.9311 0.16663 0.0
H764 H 0.18825 0.89815 0.04047 0.0
H765 H 0.18737 0.91708 0.1068 0.0
H766 H 0.14691 0.93998 0.20328 0.0
H767 H 0.16595 0.93884 0.13734 0.0
H768 H 0.10674 0.86081 0.0616 0.0
H769 H 0.12462 0.86061 0.99133 0.0
H770 H 0.10803 0.85931 0.17973 0.0
H771 H 0.10806 0.87706 0.25037 0.0
C772 C 0.37468 0.88397 0.34409 0.0
C773 C 0.3671 0.90205 0.31422 0.0
C774 C 0.33882 0.89975 0.40034 0.0
C775 C 0.34796 0.88344 0.43729 0.0
N776 N 0.37795 0.86391 0.45476 0.0
N777 N 0.34437 0.92968 0.32881 0.0
C778 C 0.36686 0.87661 0.41226 0.0
C779 C 0.34986 0.9107 0.34669 0.0
N780 N 0.38858 0.87314 0.30615 0.0
N781 N 0.31934 0.90437 0.41386 0.0
H782 H 0.35274 0.93873 0.29354 0.0
H783 H 0.33289 0.93718 0.356 0.0
H784 H 0.31028 0.89596 0.44896 0.0
H785 H 0.3116 0.91506 0.38336 0.0
H786 H 0.39308 0.85899 0.32311 0.0
H787 H 0.39383 0.87703 0.25359 0.0
H788 H 0.39255 0.86006 0.44129 0.0
H789 H 0.37364 0.85915 0.50752 0.0
C790 C 0.35397 0.11675 0.70622 0.0
C791 C 0.36733 0.10057 0.6956 0.0
C792 C 0.36419 0.10443 0.56039 0.0
C793 C 0.34904 0.11893 0.57123 0.0
N794 N 0.32755 0.13708 0.6544 0.0
N795 N 0.3832 0.07718 0.61313 0.0
C796 C 0.34344 0.12467 0.64417 0.0
C797 C 0.37199 0.09395 0.62278 0.0
N798 N 0.3519 0.12505 0.77525 0.0
N799 N 0.37169 0.10119 0.49068 0.0
H800 H 0.38916 0.0691 0.6574 0.0
H801 H 0.3852 0.07031 0.56172 0.0
H802 H 0.3667 0.10882 0.4437 0.0
H803 H 0.38415 0.09239 0.48036 0.0
H804 H 0.34404 0.13815 0.785 0.0
H805 H 0.35963 0.11997 0.82188 0.0
H806 H 0.32132 0.14001 0.70633 0.0
H807 H 0.31947 0.14318 0.61039 0.0
C808 C 0.8646 0.89765 0.05547 0.0
C809 C 0.84901 0.88349 0.06336 0.0
C810 C 0.85239 0.88534 0.19933 0.0
C811 C 0.86634 0.90112 0.19143 0.0
N812 N 0.88388 0.92416 0.11226 0.0
N813 N 0.82615 0.86569 0.14253 0.0
C814 C 0.87202 0.90774 0.11953 0.0
C815 C 0.84243 0.87776 0.13527 0.0
N816 N 0.87286 0.90094 0.98699 0.0
N817 N 0.84918 0.87707 0.26784 0.0
H818 H 0.81848 0.85984 0.09707 0.0
H819 H 0.81924 0.86282 0.19327 0.0
H820 H 0.85635 0.882 0.31592 0.0
H821 H 0.84087 0.86418 0.27609 0.0
H822 H 0.88563 0.90944 0.97876 0.0
H823 H 0.86806 0.89367 0.93894 0.0
H824 H 0.88669 0.93108 0.0615 0.0
H825 H 0.88962 0.93191 0.15773 0.0
C826 C 0.86583 0.1037 0.95514 0.0
C827 C 0.85045 0.11795 0.94399 0.0
C828 C 0.85476 0.11492 0.80884 0.0
C829 C 0.86846 0.09907 0.82002 0.0
N830 N 0.88519 0.07653 0.90346 0.0
N831 N 0.82836 0.13531 0.86066 0.0
C832 C 0.87357 0.093 0.89313 0.0
C833 C 0.84444 0.12314 0.87091 0.0
N834 N 0.87359 0.10093 0.02473 0.0
N835 N 0.85215 0.12266 0.73912 0.0
H836 H 0.82046 0.14163 0.90467 0.0
H837 H 0.82182 0.13782 0.80896 0.0
H838 H 0.85964 0.1173 0.69238 0.0
H839 H 0.84403 0.13555 0.72857 0.0
H840 H 0.8862 0.09237 0.03518 0.0
H841 H 0.86859 0.10869 0.0714 0.0
H842 H 0.88756 0.07 0.95525 0.0
H843 H 0.89117 0.06836 0.85948 0.0
C844 C 0.64738 0.11645 0.69946 0.0
C845 C 0.63406 0.10023 0.68894 0.0
C846 C 0.63721 0.10404 0.55368 0.0
C847 C 0.65229 0.11863 0.56443 0.0
N848 N 0.67374 0.13686 0.64753 0.0
N849 N 0.6183 0.07673 0.60659 0.0
C850 C 0.65788 0.1244 0.63735 0.0
C851 C 0.62945 0.09355 0.61615 0.0
N852 N 0.64941 0.1248 0.76844 0.0
N853 N 0.62972 0.10075 0.48399 0.0
H854 H 0.61237 0.06865 0.65091 0.0
H855 H 0.61634 0.06983 0.55523 0.0
H856 H 0.63469 0.10837 0.43696 0.0
H857 H 0.61731 0.09187 0.47373 0.0
H858 H 0.65723 0.13793 0.7781 0.0
H859 H 0.64171 0.11971 0.81511 0.0
H860 H 0.67996 0.13982 0.69945 0.0
H861 H 0.6818 0.14297 0.60349 0.0
C862 C 0.63804 0.89803 0.44047 0.0
C863 C 0.6531 0.88328 0.43335 0.0
C864 C 0.64917 0.88414 0.29751 0.0
C865 C 0.63589 0.90052 0.30437 0.0
N866 N 0.61972 0.92491 0.38193 0.0
N867 N 0.67504 0.86416 0.35489 0.0
C868 C 0.6308 0.90793 0.37578 0.0
C869 C 0.65917 0.87677 0.36178 0.0
N870 N 0.63007 0.90206 0.50887 0.0
N871 N 0.65168 0.87513 0.22993 0.0
H872 H 0.68279 0.85849 0.4005 0.0
H873 H 0.6816 0.86066 0.30404 0.0
H874 H 0.64436 0.87983 0.18182 0.0
H875 H 0.65947 0.86188 0.22284 0.0
H876 H 0.61762 0.91106 0.51662 0.0
H877 H 0.63469 0.89492 0.55743 0.0
H878 H 0.61744 0.93231 0.43211 0.0
H879 H 0.61419 0.93261 0.33598 0.0
C880 C 0.63504 0.62413 0.41338 0.0
C881 C 0.65399 0.61774 0.43948 0.0
C882 C 0.65292 0.59022 0.34981 0.0
C883 C 0.6356 0.59844 0.31632 0.0
N884 N 0.61356 0.62688 0.30627 0.0
N885 N 0.68308 0.59731 0.41816 0.0
C886 C 0.62757 0.61644 0.34519 0.0
C887 C 0.66356 0.60152 0.40356 0.0
N888 N 0.62358 0.63674 0.45488 0.0
N889 N 0.65885 0.57132 0.33277 0.0
H890 H 0.69185 0.60597 0.45341 0.0
H891 H 0.69113 0.5867 0.38842 0.0
H892 H 0.65079 0.56203 0.29739 0.0
H893 H 0.67039 0.56412 0.3607 0.0
H894 H 0.60894 0.64026 0.44068 0.0
H895 H 0.62765 0.64174 0.50758 0.0
H896 H 0.60873 0.64097 0.32248 0.0
H897 H 0.60855 0.62274 0.25368 0.0
C898 C 0.64899 0.38309 0.70025 0.0
C899 C 0.63589 0.39961 0.69385 0.0
C900 C 0.63783 0.39723 0.55769 0.0
C901 C 0.65279 0.38235 0.56436 0.0
N902 N 0.67467 0.36299 0.64229 0.0
N903 N 0.61994 0.42428 0.61679 0.0
C904 C 0.65888 0.37571 0.63576 0.0
C905 C 0.6308 0.40715 0.6226 0.0
N906 N 0.65142 0.37393 0.7676 0.0
N907 N 0.62978 0.40136 0.48953 0.0
H908 H 0.61459 0.43204 0.6629 0.0
H909 H 0.61768 0.43174 0.56669 0.0
H910 H 0.63422 0.39417 0.44084 0.0
H911 H 0.6174 0.41048 0.48216 0.0
H912 H 0.65909 0.36058 0.7743 0.0
H913 H 0.64416 0.37859 0.81585 0.0
H914 H 0.68123 0.35939 0.69304 0.0
H915 H 0.68236 0.35734 0.59653 0.0
C916 C 0.853 0.38608 0.80262 0.0
C917 C 0.86695 0.40184 0.81126 0.0
C918 C 0.86483 0.39826 0.9471 0.0
C919 C 0.84928 0.38408 0.93844 0.0
N920 N 0.82672 0.36625 0.85831 0.0
N921 N 0.88435 0.42475 0.89129 0.0
C922 C 0.84292 0.37839 0.86624 0.0
C923 C 0.87246 0.40837 0.88344 0.0
N924 N 0.84992 0.37797 0.7338 0.0
N925 N 0.87283 0.40154 0.016 0.0
H926 H 0.89027 0.43249 0.84611 0.0
H927 H 0.88705 0.43164 0.94219 0.0
H928 H 0.86784 0.3943 0.06382 0.0
H929 H 0.88558 0.41004 0.02492 0.0
H930 H 0.84162 0.3651 0.72494 0.0
H931 H 0.85714 0.38302 0.68601 0.0
H932 H 0.81993 0.36339 0.80734 0.0
H933 H 0.819 0.36028 0.90347 0.0
C934 C 0.87365 0.59374 0.12099 0.0
C935 C 0.86801 0.60028 0.19302 0.0
C936 C 0.84386 0.62349 0.13748 0.0
C937 C 0.85035 0.6178 0.06544 0.0
N938 N 0.87417 0.60054 0.98843 0.0
N939 N 0.85077 0.62413 0.26995 0.0
C940 C 0.86604 0.60377 0.05714 0.0
C941 C 0.85396 0.61595 0.2013 0.0
N942 N 0.88565 0.57744 0.11344 0.0
N943 N 0.82753 0.63546 0.14511 0.0
H944 H 0.85803 0.61922 0.31786 0.0
H945 H 0.84237 0.63695 0.27849 0.0
H946 H 0.81977 0.6413 0.09981 0.0
H947 H 0.82067 0.6383 0.19599 0.0
H948 H 0.88845 0.57055 0.06262 0.0
H949 H 0.89155 0.56975 0.15876 0.0
H950 H 0.887 0.59215 0.97983 0.0
H951 H 0.86921 0.60775 0.94049 0.0
C952 C 0.36516 0.39758 0.55097 0.0
C953 C 0.35034 0.38271 0.56144 0.0
C954 C 0.35533 0.38468 0.69647 0.0
C955 C 0.36834 0.40116 0.6863 0.0
N956 N 0.38352 0.42518 0.60439 0.0
N957 N 0.32924 0.36399 0.6443 0.0
C958 C 0.37275 0.4081 0.61364 0.0
C959 C 0.3449 0.37671 0.63427 0.0
N960 N 0.3726 0.40112 0.48136 0.0
N961 N 0.35354 0.3761 0.76516 0.0
H962 H 0.3212 0.35788 0.6002 0.0
H963 H 0.32312 0.36083 0.69623 0.0
H964 H 0.36124 0.38117 0.81186 0.0
H965 H 0.34596 0.36281 0.77446 0.0
H966 H 0.38486 0.41022 0.47133 0.0
H967 H 0.3678 0.39346 0.43417 0.0
H968 H 0.38529 0.43221 0.55317 0.0
H969 H 0.38928 0.43332 0.64885 0.0
C970 C 0.36819 0.62467 0.41394 0.0
C971 C 0.34915 0.61827 0.43921 0.0
C972 C 0.35026 0.59106 0.3482 0.0
C973 C 0.36772 0.59929 0.31574 0.0
N974 N 0.38996 0.62762 0.30772 0.0
N975 N 0.32003 0.59802 0.41638 0.0
C976 C 0.37578 0.61715 0.34568 0.0
C977 C 0.33958 0.60221 0.4023 0.0
N978 N 0.3796 0.6371 0.45633 0.0
N979 N 0.34423 0.57228 0.32988 0.0
H980 H 0.31126 0.60656 0.45205 0.0
H981 H 0.31196 0.58756 0.38595 0.0
H982 H 0.35228 0.56309 0.2941 0.0
H983 H 0.33259 0.56503 0.35705 0.0
H984 H 0.39429 0.6406 0.44277 0.0
H985 H 0.37543 0.64197 0.5091 0.0
H986 H 0.39483 0.64164 0.32466 0.0
H987 H 0.3951 0.6236 0.25516 0.0
C988 C 0.15856 0.62296 0.14045 0.0
C989 C 0.15258 0.61782 0.06727 0.0
C990 C 0.129 0.59324 0.11779 0.0
C991 C 0.1341 0.59925 0.19096 0.0
N992 N 0.15069 0.62257 0.27213 0.0
N993 N 0.12935 0.60109 0.98608 0.0
C994 C 0.14804 0.61489 0.20236 0.0
C995 C 0.13701 0.60379 0.05587 0.0
N996 N 0.17477 0.63493 0.15093 0.0
N997 N 0.11711 0.57697 0.10732 0.0
H998 H 0.13458 0.60872 0.93946 0.0
H999 H 0.11663 0.59271 0.97535 0.0
H1000 H 0.11091 0.56892 0.15124 0.0
H1001 H 0.1147 0.57045 0.05554 0.0
H1002 H 0.18128 0.63738 0.20273 0.0
H1003 H 0.1828 0.64116 0.10703 0.0
H1004 H 0.15899 0.63533 0.28284 0.0
H1005 H 0.14308 0.6173 0.31876 0.0
C1006 C 0.12713 0.38242 0.83912 0.0
C1007 C 0.13418 0.40096 0.81136 0.0
C1008 C 0.16219 0.39897 0.89895 0.0
C1009 C 0.1534 0.3822 0.93421 0.0
N1010 N 0.12389 0.36172 0.94811 0.0
N1011 N 0.15591 0.42922 0.83023 0.0
C1012 C 0.13483 0.37495 0.90734 0.0
C1013 C 0.151 0.40994 0.84573 0.0
N1014 N 0.11387 0.3713 0.79921 0.0
N1015 N 0.18148 0.40407 0.91363 0.0
H1016 H 0.14735 0.43829 0.79569 0.0
H1017 H 0.16705 0.43686 0.85883 0.0
H1018 H 0.1907 0.39567 0.94819 0.0
H1019 H 0.18898 0.41518 0.88439 0.0
H1020 H 0.10979 0.35692 0.81478 0.0
H1021 H 0.10887 0.37526 0.74638 0.0
H1022 H 0.10949 0.3575 0.93317 0.0
H1023 H 0.12801 0.35688 1.00097 0.0
C1024 C 0.18177 0.2594 0.10054 0.0
C1025 C 0.16474 0.2701 0.12452 0.0
C1026 C 0.14637 0.23902 0.14287 0.0
C1027 C 0.16384 0.22828 0.12411 0.0
N1028 N 0.19641 0.22744 0.06829 0.0
N1029 N 0.12965 0.27109 0.1501 0.0
C1030 C 0.18093 0.23826 0.09662 0.0
C1031 C 0.14657 0.26017 0.13928 0.0
N1032 N 0.19903 0.26946 0.08572 0.0
N1033 N 0.1299 0.22891 0.16688 0.0
H1034 H 0.12957 0.2866 0.14739 0.0
H1035 H 0.11551 0.26495 0.1558 0.0
H1036 H 0.12903 0.21341 0.16602 0.0
H1037 H 0.11738 0.2357 0.18962 0.0
H1038 H 0.21271 0.26262 0.07665 0.0
H1039 H 0.19983 0.28497 0.08522 0.0
H1040 H 0.2087 0.23369 0.04189 0.0
H1041 H 0.19626 0.21193 0.06608 0.0
C1042 C 0.9885 0.89677 0.38102 0.0
C1043 C 0.97791 0.91474 0.36976 0.0
C1044 C 0.00923 0.9324 0.34562 0.0
C1045 C 0.01981 0.9153 0.36944 0.0
N1046 N 0.02032 0.88087 0.40596 0.0
N1047 N 0.97741 0.94955 0.33833 0.0
C1048 C 0.00966 0.89726 0.38483 0.0
C1049 C 0.98804 0.93246 0.34957 0.0
N1050 N 0.97818 0.87934 0.38804 0.0
N1051 N 0.01953 0.9486 0.32041 0.0
H1052 H 0.96188 0.94982 0.33771 0.0
H1053 H 0.9838 0.96355 0.33242 0.0
H1054 H 0.03506 0.94897 0.31802 0.0
H1055 H 0.01286 0.96104 0.29661 0.0
H1056 H 0.98484 0.86539 0.39073 0.0
H1057 H 0.96266 0.87874 0.385 0.0
H1058 H 0.01393 0.86786 0.42632 0.0
H1059 H 0.03586 0.88054 0.40541 0.0
C1060 C 0.35539 0.76201 0.6545 0.0
C1061 C 0.33811 0.772 0.62875 0.0
C1062 C 0.32232 0.74018 0.59827 0.0
C1063 C 0.33903 0.7302 0.62893 0.0
N1064 N 0.37328 0.73074 0.66743 0.0
N1065 N 0.30748 0.77149 0.55928 0.0
C1066 C 0.35623 0.74091 0.65061 0.0
C1067 C 0.32242 0.76133 0.59425 0.0
N1068 N 0.37059 0.77277 0.68522 0.0
N1069 N 0.30588 0.72948 0.57777 0.0
H1070 H 0.30703 0.78699 0.55697 0.0
H1071 H 0.29644 0.76471 0.52754 0.0
H1072 H 0.30556 0.71397 0.57802 0.0
H1073 H 0.29228 0.73585 0.56365 0.0
H1074 H 0.38261 0.76646 0.71315 0.0
H1075 H 0.37084 0.7883 0.68475 0.0
H1076 H 0.38689 0.73752 0.67838 0.0
H1077 H 0.37416 0.71525 0.66423 0.0
C1078 C 0.48966 0.07392 0.84598 0.0
C1079 C 0.47955 0.08809 0.89066 0.0
C1080 C 0.51136 0.1039 0.9224 0.0
C1081 C 0.52147 0.0877 0.88912 0.0
N1082 N 0.52095 0.05742 0.8175 0.0
N1083 N 0.48005 0.11746 0.96726 0.0
C1084 C 0.51085 0.07298 0.84878 0.0
C1085 C 0.49021 0.10353 0.92681 0.0
N1086 N 0.47899 0.06113 0.80232 0.0
N1087 N 0.5221 0.11961 0.94926 0.0
H1088 H 0.46453 0.11834 0.96732 0.0
H1089 H 0.48682 0.12771 0.00248 0.0
H1090 H 0.53761 0.12021 0.94578 0.0
H1091 H 0.51578 0.1327 0.96911 0.0
H1092 H 0.48539 0.05167 0.76324 0.0
H1093 H 0.46347 0.06106 0.80078 0.0
H1094 H 0.51409 0.04487 0.79532 0.0
H1095 H 0.53645 0.05657 0.81682 0.0
C1096 C 0.1455 0.76097 0.84687 0.0
C1097 C 0.16261 0.77157 0.87042 0.0
C1098 C 0.17881 0.74026 0.90583 0.0
C1099 C 0.16319 0.72969 0.87031 0.0
N1100 N 0.13117 0.72927 0.81016 0.0
N1101 N 0.19556 0.77197 0.9233 0.0
C1102 C 0.14623 0.73985 0.84268 0.0
C1103 C 0.17912 0.76143 0.90185 0.0
N1104 N 0.12859 0.77123 0.82895 0.0
N1105 N 0.19351 0.73001 0.94188 0.0
H1106 H 0.19606 0.78748 0.92298 0.0
H1107 H 0.20907 0.76547 0.93799 0.0
H1108 H 0.19395 0.71451 0.94398 0.0
H1109 H 0.20438 0.73673 0.97462 0.0
H1110 H 0.115 0.76452 0.81697 0.0
H1111 H 0.12773 0.78672 0.83232 0.0
H1112 H 0.11949 0.73572 0.78076 0.0
H1113 H 0.13076 0.71374 0.8104 0.0
C1114 C 0.49095 0.89696 0.08728 0.0
C1115 C 0.48057 0.91353 0.1166 0.0
C1116 C 0.51207 0.92812 0.15926 0.0
C1117 C 0.5225 0.91339 0.11831 0.0
N1118 N 0.52257 0.88296 0.0477 0.0
N1119 N 0.48051 0.9447 0.18258 0.0
C1120 C 0.51211 0.89738 0.08449 0.0
C1121 C 0.49089 0.92885 0.15482 0.0
N1122 N 0.48042 0.88084 0.06256 0.0
N1123 N 0.52246 0.94159 0.20096 0.0
H1124 H 0.465 0.9454 0.18211 0.0
H1125 H 0.48715 0.95758 0.20301 0.0
H1126 H 0.53797 0.94173 0.20363 0.0
H1127 H 0.51583 0.95162 0.23743 0.0
H1128 H 0.48691 0.86753 0.04572 0.0
H1129 H 0.4649 0.88022 0.06481 0.0
H1130 H 0.51606 0.87217 0.01407 0.0
H1131 H 0.53809 0.88216 0.04906 0.0
C1132 C 0.35598 0.23976 0.34472 0.0
C1133 C 0.33899 0.22976 0.37302 0.0
C1134 C 0.32326 0.26164 0.40348 0.0
C1135 C 0.33972 0.27161 0.37088 0.0
N1136 N 0.37366 0.27105 0.32866 0.0
N1137 N 0.30885 0.23042 0.44564 0.0
C1138 C 0.35677 0.26088 0.34763 0.0
C1139 C 0.3235 0.24049 0.40858 0.0
N1140 N 0.37099 0.22898 0.31278 0.0
N1141 N 0.30687 0.2723 0.42478 0.0
H1142 H 0.30838 0.21494 0.44857 0.0
H1143 H 0.2981 0.2373 0.47845 0.0
H1144 H 0.30641 0.2878 0.42364 0.0
H1145 H 0.29339 0.26588 0.4402 0.0
H1146 H 0.3827 0.23526 0.28301 0.0
H1147 H 0.37136 0.21346 0.31406 0.0
H1148 H 0.38721 0.26427 0.31661 0.0
H1149 H 0.37454 0.28654 0.33114 0.0
C1150 C 0.98981 0.06749 0.6515 0.0
C1151 C 0.97935 0.08507 0.63206 0.0
C1152 C 0.01073 0.10334 0.61952 0.0
C1153 C 0.02122 0.08543 0.63396 0.0
N1154 N 0.02156 0.05189 0.68064 0.0
N1155 N 0.97885 0.12054 0.61573 0.0
C1156 C 0.01097 0.06799 0.65621 0.0
C1157 C 0.98955 0.10333 0.62241 0.0
N1158 N 0.97951 0.05015 0.66157 0.0
N1159 N 0.0211 0.12006 0.60012 0.0
H1160 H 0.96331 0.12075 0.61784 0.0
H1161 H 0.98518 0.13465 0.61405 0.0
H1162 H 0.03663 0.12069 0.60135 0.0
H1163 H 0.01451 0.13306 0.58067 0.0
H1164 H 0.98616 0.03624 0.66693 0.0
H1165 H 0.96398 0.04957 0.66191 0.0
H1166 H 0.01512 0.03917 0.70319 0.0
H1167 H 0.03708 0.05186 0.68367 0.0
C1168 C 0.85507 0.74015 0.85814 0.0
C1169 C 0.83792 0.72952 0.88155 0.0
C1170 C 0.82065 0.76082 0.9091 0.0
C1171 C 0.83736 0.7714 0.88133 0.0
N1172 N 0.87198 0.77204 0.84762 0.0
N1173 N 0.80639 0.729 0.94536 0.0
C1174 C 0.85512 0.76129 0.86202 0.0
C1175 C 0.82143 0.73966 0.9131 0.0
N1176 N 0.87097 0.72996 0.8298 0.0
N1177 N 0.80367 0.77096 0.92711 0.0
H1178 H 0.80634 0.7135 0.94738 0.0
H1179 H 0.79474 0.7354 0.97513 0.0
H1180 H 0.80287 0.78646 0.92703 0.0
H1181 H 0.79012 0.76415 0.93897 0.0
H1182 H 0.88301 0.73668 0.80342 0.0
H1183 H 0.87181 0.71445 0.83053 0.0
H1184 H 0.88592 0.76573 0.83876 0.0
H1185 H 0.8723 0.78754 0.85071 0.0
C1186 C 0.6459 0.23998 0.35839 0.0
C1187 C 0.66328 0.22933 0.37885 0.0
C1188 C 0.68065 0.2605 0.40709 0.0
C1189 C 0.66371 0.27115 0.38185 0.0
N1190 N 0.62883 0.27186 0.35245 0.0
N1191 N 0.69523 0.22854 0.43952 0.0
C1192 C 0.64582 0.26109 0.36399 0.0
C1193 C 0.67995 0.23933 0.40957 0.0
N1194 N 0.62982 0.22988 0.33099 0.0
N1195 N 0.69774 0.27059 0.42401 0.0
H1196 H 0.69527 0.21302 0.44055 0.0
H1197 H 0.70709 0.2348 0.46849 0.0
H1198 H 0.6985 0.28609 0.42501 0.0
H1199 H 0.71139 0.26376 0.43391 0.0
H1200 H 0.61752 0.2367 0.30677 0.0
H1201 H 0.6291 0.21436 0.33033 0.0
H1202 H 0.61483 0.26556 0.34471 0.0
H1203 H 0.6285 0.28735 0.35691 0.0
C1204 C 0.85621 0.26184 0.15563 0.0
C1205 C 0.83883 0.27174 0.13059 0.0
C1206 C 0.82365 0.2397 0.09802 0.0
C1207 C 0.83951 0.22987 0.13501 0.0
N1208 N 0.87145 0.23086 0.19565 0.0
N1209 N 0.80599 0.27075 0.07683 0.0
C1210 C 0.85612 0.24075 0.1619 0.0
C1211 C 0.82271 0.26087 0.09977 0.0
N1212 N 0.87275 0.27276 0.17299 0.0
N1213 N 0.80931 0.22876 0.06276 0.0
H1214 H 0.80504 0.28623 0.07546 0.0
H1215 H 0.79272 0.26374 0.06253 0.0
H1216 H 0.80928 0.21325 0.06239 0.0
H1217 H 0.79833 0.23492 0.02901 0.0
H1218 H 0.88651 0.26656 0.18607 0.0
H1219 H 0.87313 0.28823 0.1681 0.0
H1220 H 0.8829 0.23785 0.22456 0.0
H1221 H 0.87234 0.21535 0.19687 0.0
C1222 C 0.64637 0.74051 0.64875 0.0
C1223 C 0.66351 0.72982 0.62581 0.0
C1224 C 0.6804 0.76094 0.59298 0.0
C1225 C 0.66374 0.77164 0.62042 0.0
N1226 N 0.62923 0.77233 0.65555 0.0
N1227 N 0.69466 0.72892 0.55957 0.0
C1228 C 0.64613 0.76159 0.64191 0.0
C1229 C 0.67974 0.73976 0.59166 0.0
N1230 N 0.63069 0.73048 0.67956 0.0
N1231 N 0.69728 0.771 0.57295 0.0
H1232 H 0.69478 0.7134 0.55942 0.0
H1233 H 0.70608 0.73513 0.52803 0.0
H1234 H 0.69803 0.78649 0.57128 0.0
H1235 H 0.71081 0.76414 0.56125 0.0
H1236 H 0.61871 0.73737 0.70569 0.0
H1237 H 0.63 0.71497 0.68114 0.0
H1238 H 0.61537 0.76599 0.66594 0.0
H1239 H 0.62876 0.78779 0.65014 0.0
C1240 C 0.51253 0.43619 0.86726 0.0
C1241 C 0.52288 0.41802 0.87785 0.0
C1242 C 0.49129 0.39985 0.88573 0.0
C1243 C 0.48098 0.41818 0.8795 0.0
N1244 N 0.48088 0.45281 0.84582 0.0
N1245 N 0.52294 0.38226 0.87938 0.0
C1246 C 0.49137 0.43605 0.86382 0.0
C1247 C 0.51247 0.39969 0.88073 0.0
N1248 N 0.52297 0.45364 0.86379 0.0
N1249 N 0.48082 0.38282 0.89994 0.0
H1250 H 0.53845 0.38189 0.87622 0.0
H1251 H 0.51637 0.36828 0.8755 0.0
H1252 H 0.46529 0.38244 0.90094 0.0
H1253 H 0.48739 0.36927 0.91345 0.0
H1254 H 0.51642 0.46766 0.86529 0.0
H1255 H 0.53851 0.45411 0.8623 0.0
H1256 H 0.48742 0.46599 0.82775 0.0
H1257 H 0.46536 0.45302 0.84303 0.0
C1258 C 0.99072 0.60518 0.4094 0.0
C1259 C 0.98038 0.58806 0.38456 0.0
C1260 C 0.01204 0.57229 0.35028 0.0
C1261 C 0.02232 0.58793 0.38683 0.0
N1262 N 0.02216 0.61974 0.44828 0.0
N1263 N 0.98056 0.55524 0.33076 0.0
C1264 C 0.01185 0.60467 0.41466 0.0
C1265 C 0.99084 0.57175 0.35318 0.0
N1266 N 0.9802 0.62192 0.42742 0.0
N1267 N 0.02258 0.5578 0.31427 0.0
H1268 H 0.96504 0.55455 0.33033 0.0
H1269 H 0.98728 0.54185 0.31609 0.0
H1270 H 0.0381 0.55749 0.31306 0.0
H1271 H 0.01608 0.54698 0.28073 0.0
H1272 H 0.98673 0.63553 0.44027 0.0
H1273 H 0.96471 0.62263 0.42327 0.0
H1274 H 0.01546 0.63124 0.47788 0.0
H1275 H 0.03769 0.62035 0.4488 0.0
C1276 C 0.9891 0.39574 0.61055 0.0
C1277 C 0.97921 0.41403 0.62338 0.0
C1278 C 0.01125 0.43059 0.64468 0.0
C1279 C 0.02108 0.41318 0.61946 0.0
N1280 N 0.02019 0.37886 0.58183 0.0
N1281 N 0.98011 0.4488 0.65522 0.0
C1282 C 0.01024 0.39553 0.60454 0.0
C1283 C 0.99007 0.43137 0.64274 0.0
N1284 N 0.97815 0.37869 0.60405 0.0
N1285 N 0.02225 0.44638 0.66939 0.0
H1286 H 0.96461 0.44961 0.65742 0.0
H1287 H 0.98702 0.46258 0.6605 0.0
H1288 H 0.03779 0.44624 0.6704 0.0
H1289 H 0.01615 0.45897 0.69417 0.0
H1290 H 0.98431 0.36453 0.60029 0.0
H1291 H 0.96264 0.3786 0.60857 0.0
H1292 H 0.01322 0.3661 0.56189 0.0
H1293 H 0.03571 0.37805 0.58062 0.0
C1294 C 0.49126 0.57107 0.15937 0.0
C1295 C 0.48113 0.58605 0.11873 0.0
C1296 C 0.51291 0.60231 0.09005 0.0
C1297 C 0.52302 0.58551 0.11891 0.0
N1298 N 0.5226 0.55412 0.18344 0.0
N1299 N 0.48155 0.61672 0.04958 0.0
C1300 C 0.51244 0.57015 0.15589 0.0
C1301 C 0.49175 0.6021 0.08624 0.0
N1302 N 0.48059 0.55755 0.19988 0.0
N1303 N 0.52367 0.6184 0.06661 0.0
H1304 H 0.46602 0.61759 0.04993 0.0
H1305 H 0.48827 0.6276 0.01696 0.0
H1306 H 0.53919 0.61885 0.06957 0.0
H1307 H 0.51737 0.63184 0.05019 0.0
H1308 H 0.48699 0.54727 0.23594 0.0
H1309 H 0.46507 0.55763 0.20197 0.0
H1310 H 0.51579 0.54124 0.20302 0.0
H1311 H 0.53811 0.55334 0.18378 0.0
C1312 C 0.13843 0.14077 0.39616 0.0
C1313 C 0.13316 0.13602 0.32163 0.0
C1314 C 0.1093 0.11124 0.36607 0.0
C1315 C 0.11386 0.11668 0.44058 0.0
N1316 N 0.12904 0.13967 0.52633 0.0
N1317 N 0.11047 0.12045 0.23574 0.0
C1318 C 0.12723 0.13247 0.45551 0.0
C1319 C 0.11755 0.12244 0.30666 0.0
N1320 N 0.15488 0.15214 0.41064 0.0
N1321 N 0.09818 0.09463 0.35169 0.0
H1322 H 0.11613 0.12859 0.19102 0.0
H1323 H 0.09778 0.11225 0.22259 0.0
H1324 H 0.09215 0.08562 0.39318 0.0
H1325 H 0.09637 0.08874 0.29852 0.0
H1326 H 0.16067 0.1541 0.4639 0.0
H1327 H 0.16387 0.15822 0.36921 0.0
H1328 H 0.13706 0.15247 0.53938 0.0
H1329 H 0.1209 0.13396 0.571 0.0
C1330 C 0.10796 0.88963 0.63727 0.0
C1331 C 0.11234 0.88421 0.56257 0.0
C1332 C 0.13696 0.86006 0.60609 0.0
C1333 C 0.13184 0.86475 0.68083 0.0
N1334 N 0.1093 0.88028 0.76742 0.0
N1335 N 0.12721 0.86116 0.47631 0.0
C1336 C 0.11628 0.87835 0.69633 0.0
C1337 C 0.12562 0.86838 0.54717 0.0
N1338 N 0.09696 0.90628 0.65215 0.0
N1339 N 0.15339 0.84874 0.59096 0.0
H1340 H 0.11895 0.86686 0.43197 0.0
H1341 H 0.13517 0.84834 0.46301 0.0
H1342 H 0.16252 0.84269 0.63202 0.0
H1343 H 0.15904 0.8468 0.53748 0.0
H1344 H 0.0953 0.91213 0.70545 0.0
H1345 H 0.09091 0.91537 0.61095 0.0
H1346 H 0.09665 0.88849 0.78091 0.0
H1347 H 0.11499 0.87207 0.8119 0.0
C1348 C 0.39294 0.86846 0.90105 0.0
C1349 C 0.38521 0.88643 0.93083 0.0
C1350 C 0.35569 0.88326 0.85279 0.0
C1351 C 0.36441 0.86677 0.81605 0.0
N1352 N 0.39305 0.84566 0.79649 0.0
N1353 N 0.36219 0.91396 0.91696 0.0
C1354 C 0.38355 0.85986 0.83769 0.0
C1355 C 0.36747 0.89475 0.90135 0.0
N1356 N 0.40872 0.85928 0.93452 0.0
N1357 N 0.33589 0.8875 0.8444 0.0
H1358 H 0.371 0.92352 0.94864 0.0
H1359 H 0.35029 0.92108 0.89092 0.0
H1360 H 0.32618 0.87868 0.81336 0.0
H1361 H 0.32865 0.89838 0.87571 0.0
H1362 H 0.41366 0.84515 0.91952 0.0
H1363 H 0.41573 0.86499 0.98166 0.0
H1364 H 0.4078 0.84151 0.80564 0.0
H1365 H 0.38685 0.83937 0.74879 0.0
C1366 C 0.36628 0.10501 0.10839 0.0
C1367 C 0.38407 0.11306 0.07823 0.0
C1368 C 0.38316 0.13956 0.17171 0.0
C1369 C 0.36393 0.13303 0.19388 0.0
N1370 N 0.33496 0.11283 0.16626 0.0
N1371 N 0.40782 0.14004 0.07328 0.0
C1372 C 0.35482 0.1167 0.15738 0.0
C1373 C 0.39215 0.13092 0.10771 0.0
N1374 N 0.36065 0.0859 0.09296 0.0
N1375 N 0.39312 0.15343 0.21295 0.0
H1376 H 0.41447 0.13444 0.02521 0.0
H1377 H 0.41297 0.15409 0.08835 0.0
H1378 H 0.38727 0.15967 0.26135 0.0
H1379 H 0.40793 0.15727 0.20317 0.0
H1380 H 0.34869 0.07898 0.11944 0.0
H1381 H 0.36922 0.0762 0.06101 0.0
H1382 H 0.32748 0.10207 0.13515 0.0
H1383 H 0.32546 0.12184 0.19741 0.0
C1384 C 0.88958 0.88935 0.64049 0.0
C1385 C 0.88468 0.88387 0.56631 0.0
C1386 C 0.85983 0.8603 0.61235 0.0
C1387 C 0.86554 0.86494 0.68652 0.0
N1388 N 0.88861 0.88045 0.77118 0.0
N1389 N 0.86853 0.86132 0.48147 0.0
C1390 C 0.88133 0.87839 0.70056 0.0
C1391 C 0.87087 0.86841 0.55223 0.0
N1392 N 0.90113 0.90573 0.65388 0.0
N1393 N 0.84317 0.84914 0.59908 0.0
H1394 H 0.87651 0.86691 0.43623 0.0
H1395 H 0.86016 0.84872 0.46879 0.0
H1396 H 0.83431 0.84319 0.6412 0.0
H1397 H 0.83707 0.84723 0.54628 0.0
H1398 H 0.90323 0.91171 0.70676 0.0
H1399 H 0.90725 0.91449 0.61182 0.0
H1400 H 0.90143 0.88852 0.78368 0.0
H1401 H 0.88294 0.87253 0.81642 0.0
C1402 C 0.85547 0.1164 0.35741 0.0
C1403 C 0.86441 0.13333 0.32416 0.0
C1404 C 0.89134 0.13164 0.41594 0.0
C1405 C 0.88382 0.11307 0.44116 0.0
N1406 N 0.86194 0.08508 0.41731 0.0
N1407 N 0.89312 0.15485 0.31309 0.0
C1408 C 0.86682 0.10462 0.40651 0.0
C1409 C 0.88302 0.14039 0.35092 0.0
N1410 N 0.83586 0.11196 0.34524 0.0
N1411 N 0.90583 0.14129 0.45522 0.0
H1412 H 0.88791 0.1611 0.2637 0.0
H1413 H 0.90759 0.15913 0.32664 0.0
H1414 H 0.91176 0.13576 0.50468 0.0
H1415 H 0.91044 0.15572 0.44279 0.0
H1416 H 0.8285 0.10061 0.37371 0.0
H1417 H 0.82634 0.12104 0.31444 0.0
H1418 H 0.85055 0.07808 0.38781 0.0
H1419 H 0.8707 0.07526 0.44805 0.0
C1420 C 0.6465 0.11768 0.14971 0.0
C1421 C 0.63697 0.13358 0.18736 0.0
C1422 C 0.6088 0.13105 0.10118 0.0
C1423 C 0.61725 0.11345 0.07102 0.0
N1424 N 0.64136 0.08685 0.08478 0.0
N1425 N 0.60728 0.15317 0.20749 0.0
C1426 C 0.63528 0.1058 0.1006 0.0
C1427 C 0.61758 0.13971 0.16557 0.0
N1428 N 0.66648 0.11439 0.15778 0.0
N1429 N 0.59294 0.13993 0.06709 0.0
H1430 H 0.61298 0.15939 0.25618 0.0
H1431 H 0.59238 0.15666 0.19791 0.0
H1432 H 0.58647 0.13437 0.01863 0.0
H1433 H 0.58747 0.15381 0.08281 0.0
H1434 H 0.6742 0.10395 0.126 0.0
H1435 H 0.67578 0.12362 0.18889 0.0
H1436 H 0.65357 0.08024 0.11078 0.0
H1437 H 0.63295 0.07692 0.0532 0.0
C1438 C 0.63846 0.85979 0.88032 0.0
C1439 C 0.63441 0.86568 0.80587 0.0
C1440 C 0.61161 0.89141 0.8505 0.0
C1441 C 0.61487 0.88481 0.92467 0.0
N1442 N 0.62738 0.85982 0.00862 0.0
N1443 N 0.61375 0.88359 0.71911 0.0
C1444 C 0.62699 0.86801 0.939 0.0
C1445 C 0.61986 0.88038 0.79067 0.0
N1446 N 0.65409 0.8474 0.89573 0.0
N1447 N 0.60178 0.90887 0.83714 0.0
H1448 H 0.61936 0.87556 0.67407 0.0
H1449 H 0.60179 0.89276 0.70537 0.0
H1450 H 0.59576 0.91774 0.87902 0.0
H1451 H 0.60108 0.91549 0.78479 0.0
H1452 H 0.65903 0.84449 0.94958 0.0
H1453 H 0.66337 0.84143 0.855 0.0
H1454 H 0.63443 0.84639 0.02065 0.0
H1455 H 0.61896 0.86541 0.05272 0.0
C1456 C 0.63533 0.60649 0.9036 0.0
C1457 C 0.61722 0.61386 0.93341 0.0
C1458 C 0.61745 0.64063 0.84069 0.0
C1459 C 0.63684 0.63465 0.81843 0.0
N1460 N 0.66645 0.61546 0.8465 0.0
N1461 N 0.59249 0.63992 0.93828 0.0
C1462 C 0.64646 0.61864 0.85509 0.0
C1463 C 0.6086 0.6315 0.90417 0.0
N1464 N 0.64159 0.58755 0.91867 0.0
N1465 N 0.60722 0.65443 0.80004 0.0
H1466 H 0.58589 0.63387 0.9857 0.0
H1467 H 0.58685 0.65381 0.92358 0.0
H1468 H 0.61308 0.66112 0.75247 0.0
H1469 H 0.59231 0.65787 0.80959 0.0
H1470 H 0.65384 0.58111 0.89238 0.0
H1471 H 0.63329 0.57747 0.95002 0.0
H1472 H 0.67426 0.60496 0.87765 0.0
H1473 H 0.67565 0.62483 0.81552 0.0
C1474 C 0.61931 0.37927 0.20706 0.0
C1475 C 0.63379 0.36451 0.1917 0.0
C1476 C 0.62622 0.36687 0.05868 0.0
C1477 C 0.61428 0.38379 0.07312 0.0
N1478 N 0.60146 0.40794 0.16088 0.0
N1479 N 0.65323 0.34608 0.10151 0.0
C1480 C 0.61112 0.39039 0.14734 0.0
C1481 C 0.6377 0.35857 0.11719 0.0
N1482 N 0.61325 0.38248 0.27866 0.0
N1483 N 0.62648 0.35869 0.98906 0.0
H1484 H 0.66254 0.34006 0.14204 0.0
H1485 H 0.65806 0.34312 0.04756 0.0
H1486 H 0.61805 0.36437 0.9451 0.0
H1487 H 0.6334 0.3452 0.97691 0.0
H1488 H 0.60135 0.39171 0.2925 0.0
H1489 H 0.61882 0.37437 0.32362 0.0
H1490 H 0.60086 0.41453 0.21328 0.0
H1491 H 0.59551 0.41689 0.1191 0.0
C1492 C 0.8889 0.3918 0.36011 0.0
C1493 C 0.88439 0.38619 0.4345 0.0
C1494 C 0.85963 0.36237 0.38965 0.0
C1495 C 0.86509 0.36702 0.31522 0.0
N1496 N 0.8877 0.38285 0.22955 0.0
N1497 N 0.86881 0.36338 0.52001 0.0
C1498 C 0.88062 0.38071 0.30044 0.0
C1499 C 0.87079 0.37058 0.44923 0.0
N1500 N 0.90011 0.40838 0.3462 0.0
N1501 N 0.8431 0.35108 0.4037 0.0
H1502 H 0.87692 0.36898 0.56489 0.0
H1503 H 0.86062 0.35068 0.53293 0.0
H1504 H 0.83414 0.34509 0.36197 0.0
H1505 H 0.83719 0.34913 0.45679 0.0
H1506 H 0.90193 0.4144 0.29322 0.0
H1507 H 0.90618 0.41726 0.388 0.0
H1508 H 0.90036 0.39112 0.21653 0.0
H1509 H 0.88206 0.37481 0.18459 0.0
C1510 C 0.86085 0.64024 0.61469 0.0
C1511 C 0.86633 0.63556 0.68907 0.0
C1512 C 0.8901 0.61078 0.64404 0.0
C1513 C 0.88552 0.61635 0.56966 0.0
N1514 N 0.86991 0.63915 0.4842 0.0
N1515 N 0.88902 0.61979 0.77454 0.0
C1516 C 0.87195 0.63198 0.55501 0.0
C1517 C 0.88189 0.6219 0.70372 0.0
N1518 N 0.84434 0.65157 0.60079 0.0
N1519 N 0.90129 0.59419 0.65795 0.0
H1520 H 0.88342 0.62786 0.8195 0.0
H1521 H 0.90169 0.61153 0.78747 0.0
H1522 H 0.90727 0.58525 0.61616 0.0
H1523 H 0.90315 0.58821 0.71096 0.0
H1524 H 0.8384 0.65352 0.54777 0.0
H1525 H 0.83546 0.65763 0.64258 0.0
H1526 H 0.86174 0.65186 0.47129 0.0
H1527 H 0.87796 0.6335 0.43925 0.0
C1528 C 0.35693 0.3836 0.14673 0.0
C1529 C 0.36657 0.36792 0.18521 0.0
C1530 C 0.39494 0.37063 0.09989 0.0
C1531 C 0.38629 0.38802 0.06871 0.0
N1532 N 0.36178 0.41432 0.08092 0.0
N1533 N 0.39644 0.34874 0.20694 0.0
C1534 C 0.3681 0.3955 0.09757 0.0
C1535 C 0.38609 0.362 0.16427 0.0
N1536 N 0.33688 0.38663 0.15398 0.0
N1537 N 0.41104 0.36194 0.06676 0.0
H1538 H 0.39067 0.34253 0.25555 0.0
H1539 H 0.41141 0.34541 0.19802 0.0
H1540 H 0.41758 0.36752 0.01843 0.0
H1541 H 0.41669 0.34819 0.08316 0.0
H1542 H 0.3291 0.39689 0.12154 0.0
H1543 H 0.32762 0.37736 0.18509 0.0
H1544 H 0.34945 0.42084 0.10644 0.0
H1545 H 0.37009 0.42428 0.04907 0.0
C1546 C 0.39586 0.63208 0.90109 0.0
C1547 C 0.38713 0.61475 0.93242 0.0
C1548 C 0.35771 0.61926 0.85498 0.0
C1549 C 0.36737 0.63492 0.8164 0.0
N1550 N 0.39712 0.65427 0.79473 0.0
N1551 N 0.36252 0.58854 0.92082 0.0
C1552 C 0.3869 0.64085 0.83716 0.0
C1553 C 0.36888 0.60733 0.90396 0.0
N1554 N 0.41218 0.64053 0.9336 0.0
N1555 N 0.33765 0.61626 0.84786 0.0
H1556 H 0.37083 0.57857 0.95262 0.0
H1557 H 0.35013 0.58205 0.89557 0.0
H1558 H 0.32841 0.62555 0.81673 0.0
H1559 H 0.32986 0.60603 0.88036 0.0
H1560 H 0.41794 0.65425 0.9173 0.0
H1561 H 0.41888 0.63472 0.98123 0.0
H1562 H 0.41209 0.65764 0.80328 0.0
H1563 H 0.39118 0.66067 0.74676 0.0
C1564 C 0.14774 0.61577 0.65372 0.0
C1565 C 0.13903 0.63275 0.68743 0.0
C1566 C 0.11192 0.63146 0.59635 0.0
C1567 C 0.11921 0.61286 0.57055 0.0
N1568 N 0.1409 0.58464 0.59295 0.0
N1569 N 0.11052 0.65447 0.6998 0.0
C1570 C 0.1362 0.60419 0.60451 0.0
C1571 C 0.12044 0.64001 0.66134 0.0
N1572 N 0.16731 0.61109 0.66554 0.0
N1573 N 0.09748 0.64133 0.55763 0.0
H1574 H 0.11586 0.66056 0.74928 0.0
H1575 H 0.09606 0.65889 0.68672 0.0
H1576 H 0.09142 0.63596 0.50814 0.0
H1577 H 0.09304 0.65578 0.57051 0.0
H1578 H 0.17452 0.59972 0.63669 0.0
H1579 H 0.17695 0.61999 0.69654 0.0
H1580 H 0.15226 0.57746 0.62198 0.0
H1581 H 0.13202 0.57498 0.56198 0.0
C1582 C 0.14565 0.38223 0.34853 0.0
C1583 C 0.13728 0.3651 0.31468 0.0
C1584 C 0.10982 0.36612 0.40454 0.0
C1585 C 0.11687 0.38479 0.4306 0.0
N1586 N 0.13819 0.41331 0.40847 0.0
N1587 N 0.10927 0.34277 0.30185 0.0
C1588 C 0.13381 0.39367 0.39706 0.0
C1589 C 0.11874 0.35754 0.34022 0.0
N1590 N 0.16519 0.38717 0.33748 0.0
N1591 N 0.09521 0.35625 0.44236 0.0
H1592 H 0.11499 0.33658 0.25316 0.0
H1593 H 0.09485 0.33809 0.31424 0.0
H1594 H 0.08875 0.36176 0.49092 0.0
H1595 H 0.09091 0.34175 0.42963 0.0
H1596 H 0.17215 0.39867 0.36648 0.0
H1597 H 0.17505 0.37838 0.30703 0.0
H1598 H 0.14952 0.42063 0.37973 0.0
H1599 H 0.12907 0.42287 0.43894 0.0
loop_
_geom_bond_atom_site_label_1
_geom_bond_atom_site_label_2
_geom_bond_distance
_geom_bond_site_symmetry_2
_ccdc_geom_bond_type
O0 Cd1 2.223 . S
O0 C8 1.315 . S
Cd1 O0 2.223 . S
Cd1 O4 2.297 . S
Cd1 O5 2.439 . S
Cd1 O11 2.240 . S
Cd2 O3 2.240 . S
Cd2 O10 2.223 . S
Cd2 O12 2.297 . S
Cd2 O13 2.439 . S
O3 Cd2 2.240 . S
O3 C8 1.279 . S
O4 Cd1 2.297 . S
O4 C6 1.247 1_554 S
O5 Cd1 2.439 . S
O5 C6 1.208 1_554 S
C6 O4 1.247 1_556 S
C6 O5 1.208 1_556 S
C7 O12 1.247 . S
C7 O13 1.208 . S
C8 O0 1.315 . S
C8 O3 1.279 . S
C9 O10 1.315 . S
C9 O11 1.279 . S
O10 Cd2 2.223 . S
O10 C9 1.315 . S
O11 Cd1 2.240 . S
O11 C9 1.279 . S
O12 Cd2 2.297 . S
O12 C7 1.247 . S
O13 Cd2 2.439 . S
O13 C7 1.208 . S
O14 Cd15 2.223 . S
O14 C22 1.315 . S
Cd15 O14 2.223 . S
Cd15 O18 2.297 . S
Cd15 O19 2.439 . S
Cd15 O25 2.240 . S
Cd16 O17 2.240 . S
Cd16 O24 2.223 . S
Cd16 O26 2.297 . S
Cd16 O27 2.439 . S
O17 Cd16 2.240 . S
O17 C22 1.279 . S
O18 Cd15 2.297 . S
O18 C20 1.247 . S
O19 Cd15 2.439 . S
O19 C20 1.208 . S
C20 O18 1.247 . S
C20 O19 1.208 . S
C21 O26 1.247 . S
C21 O27 1.208 . S
C22 O14 1.315 . S
C22 O17 1.279 . S
C23 O24 1.315 . S
C23 O25 1.279 . S
O24 Cd16 2.223 . S
O24 C23 1.315 . S
O25 Cd15 2.240 . S
O25 C23 1.279 . S
O26 Cd16 2.297 . S
O26 C21 1.247 . S
O27 Cd16 2.439 . S
O27 C21 1.208 . S
O28 Cd29 2.223 . S
O28 C36 1.315 . S
Cd29 O28 2.223 . S
Cd29 O32 2.297 . S
Cd29 O33 2.439 . S
Cd29 O39 2.240 . S
Cd30 O31 2.240 . S
Cd30 O38 2.223 . S
Cd30 O40 2.297 . S
Cd30 O41 2.439 . S
O31 Cd30 2.240 . S
O31 C36 1.279 . S
O32 Cd29 2.297 . S
O32 C34 1.247 . S
O33 Cd29 2.439 . S
O33 C34 1.208 . S
C34 O32 1.247 . S
C34 O33 1.208 . S
C35 O40 1.247 . S
C35 O41 1.208 . S
C36 O28 1.315 . S
C36 O31 1.279 . S
C37 O38 1.315 . S
C37 O39 1.279 . S
O38 Cd30 2.223 . S
O38 C37 1.315 . S
O39 Cd29 2.240 . S
O39 C37 1.279 . S
O40 Cd30 2.297 . S
O40 C35 1.247 . S
O41 Cd30 2.439 . S
O41 C35 1.208 . S
O42 Cd43 2.223 . S
O42 C50 1.315 . S
Cd43 O42 2.223 . S
Cd43 O46 2.297 . S
Cd43 O47 2.439 . S
Cd43 O53 2.240 . S
Cd44 O45 2.240 . S
Cd44 O52 2.223 1_556 S
Cd44 O54 2.297 . S
Cd44 O55 2.439 . S
O45 Cd44 2.240 . S
O45 C50 1.279 . S
O46 Cd43 2.297 . S
O46 C48 1.247 . S
O47 Cd43 2.439 . S
O47 C48 1.208 . S
C48 O46 1.247 . S
C48 O47 1.208 . S
C49 O54 1.247 . S
C49 O55 1.208 . S
C50 O42 1.315 . S
C50 O45 1.279 . S
C51 O52 1.315 1_556 S
C51 O53 1.279 . S
O52 Cd44 2.223 1_554 S
O52 C51 1.315 1_554 S
O53 Cd43 2.240 . S
O53 C51 1.279 . S
O54 Cd44 2.297 . S
O54 C49 1.247 . S
O55 Cd44 2.439 . S
O55 C49 1.208 . S
O56 Cd57 2.223 . S
O56 C64 1.315 . S
Cd57 O56 2.223 . S
Cd57 O60 2.297 . S
Cd57 O61 2.439 . S
Cd57 O67 2.240 . S
Cd58 O59 2.240 . S
Cd58 O66 2.223 . S
Cd58 O68 2.297 . S
Cd58 O69 2.439 . S
O59 Cd58 2.240 . S
O59 C64 1.279 . S
O60 Cd57 2.297 . S
O60 C62 1.247 1_556 S
O61 Cd57 2.439 . S
O61 C62 1.208 1_556 S
C62 O60 1.247 1_554 S
C62 O61 1.208 1_554 S
C63 O68 1.247 . S
C63 O69 1.208 . S
C64 O56 1.315 . S
C64 O59 1.279 . S
C65 O66 1.315 . S
C65 O67 1.279 . S
O66 Cd58 2.223 . S
O66 C65 1.315 . S
O67 Cd57 2.240 . S
O67 C65 1.279 . S
O68 Cd58 2.297 . S
O68 C63 1.247 . S
O69 Cd58 2.439 . S
O69 C63 1.208 . S
O70 Cd71 2.223 . S
O70 C78 1.315 . S
Cd71 O70 2.223 . S
Cd71 O74 2.297 . S
Cd71 O75 2.439 . S
Cd71 O81 2.240 . S
Cd72 O73 2.240 . S
Cd72 O80 2.223 1_554 S
Cd72 O82 2.297 . S
Cd72 O83 2.439 . S
O73 Cd72 2.240 . S
O73 C78 1.279 . S
O74 Cd71 2.297 . S
O74 C76 1.247 . S
O75 Cd71 2.439 . S
O75 C76 1.208 . S
C76 O74 1.247 . S
C76 O75 1.208 . S
C77 O82 1.247 . S
C77 O83 1.208 . S
C78 O70 1.315 . S
C78 O73 1.279 . S
C79 O80 1.315 1_554 S
C79 O81 1.279 . S
O80 Cd72 2.223 1_556 S
O80 C79 1.315 1_556 S
O81 Cd71 2.240 . S
O81 C79 1.279 . S
O82 Cd72 2.297 . S
O82 C77 1.247 . S
O83 Cd72 2.439 . S
O83 C77 1.208 . S
O84 Cd85 2.223 . S
O84 C92 1.315 . S
Cd85 O84 2.223 . S
Cd85 O88 2.297 . S
Cd85 O89 2.439 . S
Cd85 O95 2.240 . S
Cd86 O87 2.240 . S
Cd86 O94 2.223 . S
Cd86 O96 2.297 . S
Cd86 O97 2.439 . S
O87 Cd86 2.240 . S
O87 C92 1.279 . S
O88 Cd85 2.297 . S
O88 C90 1.247 . S
O89 Cd85 2.439 . S
O89 C90 1.208 . S
C90 O88 1.247 . S
C90 O89 1.208 . S
C91 O96 1.247 . S
C91 O97 1.208 . S
C92 O84 1.315 . S
C92 O87 1.279 . S
C93 O94 1.315 . S
C93 O95 1.279 . S
O94 Cd86 2.223 . S
O94 C93 1.315 . S
O95 Cd85 2.240 . S
O95 C93 1.279 . S
O96 Cd86 2.297 . S
O96 C91 1.247 . S
O97 Cd86 2.439 . S
O97 C91 1.208 . S
O98 Cd99 2.223 . S
O98 C106 1.315 . S
Cd99 O98 2.223 . S
Cd99 O102 2.297 . S
Cd99 O103 2.439 . S
Cd99 O109 2.240 . S
Cd100 O101 2.240 . S
Cd100 O108 2.223 . S
Cd100 O110 2.297 . S
Cd100 O111 2.439 . S
O101 Cd100 2.240 . S
O101 C106 1.279 . S
O102 Cd99 2.297 . S
O102 C104 1.247 . S
O103 Cd99 2.439 . S
O103 C104 1.208 . S
C104 O102 1.247 . S
C104 O103 1.208 . S
C105 O110 1.247 . S
C105 O111 1.208 . S
C106 O98 1.315 . S
C106 O101 1.279 . S
C107 O108 1.315 . S
C107 O109 1.279 . S
O108 Cd100 2.223 . S
O108 C107 1.315 . S
O109 Cd99 2.240 . S
O109 C107 1.279 . S
O110 Cd100 2.297 . S
O110 C105 1.247 . S
O111 Cd100 2.439 . S
O111 C105 1.208 . S
O112 Cd113 2.223 . S
O112 C120 1.315 . S
Cd113 O112 2.223 . S
Cd113 O116 2.297 . S
Cd113 O117 2.439 . S
Cd113 O123 2.240 . S
Cd114 O115 2.240 . S
Cd114 O122 2.223 . S
Cd114 O124 2.297 . S
Cd114 O125 2.439 . S
O115 Cd114 2.240 . S
O115 C120 1.279 . S
O116 Cd113 2.297 . S
O116 C118 1.247 1_556 S
O117 Cd113 2.439 . S
O117 C118 1.208 1_556 S
C118 O116 1.247 1_554 S
C118 O117 1.208 1_554 S
C119 O124 1.247 . S
C119 O125 1.208 . S
C120 O112 1.315 . S
C120 O115 1.279 . S
C121 O122 1.315 . S
C121 O123 1.279 . S
O122 Cd114 2.223 . S
O122 C121 1.315 . S
O123 Cd113 2.240 . S
O123 C121 1.279 . S
O124 Cd114 2.297 . S
O124 C119 1.247 . S
O125 Cd114 2.439 . S
O125 C119 1.208 . S
O126 Cd127 2.223 . S
O126 C134 1.315 . S
Cd127 O126 2.223 . S
Cd127 O130 2.297 . S
Cd127 O131 2.439 . S
Cd127 O137 2.240 . S
Cd128 O129 2.240 . S
Cd128 O136 2.223 . S
Cd128 O138 2.297 . S
Cd128 O139 2.439 . S
O129 Cd128 2.240 . S
O129 C134 1.279 . S
O130 Cd127 2.297 . S
O130 C132 1.247 . S
O131 Cd127 2.439 . S
O131 C132 1.208 . S
C132 O130 1.247 . S
C132 O131 1.208 . S
C133 O138 1.247 . S
C133 O139 1.208 . S
C134 O126 1.315 . S
C134 O129 1.279 . S
C135 O136 1.315 . S
C135 O137 1.279 . S
O136 Cd128 2.223 . S
O136 C135 1.315 . S
O137 Cd127 2.240 . S
O137 C135 1.279 . S
O138 Cd128 2.297 . S
O138 C133 1.247 . S
O139 Cd128 2.439 . S
O139 C133 1.208 . S
O140 Cd141 2.223 . S
O140 C148 1.315 . S
Cd141 O140 2.223 . S
Cd141 O144 2.297 . S
Cd141 O145 2.439 . S
Cd141 O151 2.240 . S
Cd142 O143 2.240 . S
Cd142 O150 2.223 . S
Cd142 O152 2.297 . S
Cd142 O153 2.439 . S
O143 Cd142 2.240 . S
O143 C148 1.279 . S
O144 Cd141 2.297 . S
O144 C146 1.247 . S
O145 Cd141 2.439 . S
O145 C146 1.208 . S
C146 O144 1.247 . S
C146 O145 1.208 . S
C147 O152 1.247 . S
C147 O153 1.208 . S
C148 O140 1.315 . S
C148 O143 1.279 . S
C149 O150 1.315 . S
C149 O151 1.279 . S
O150 Cd142 2.223 . S
O150 C149 1.315 . S
O151 Cd141 2.240 . S
O151 C149 1.279 . S
O152 Cd142 2.297 . S
O152 C147 1.247 . S
O153 Cd142 2.439 . S
O153 C147 1.208 . S
O154 Cd155 2.223 . S
O154 C162 1.315 . S
Cd155 O154 2.223 . S
Cd155 O158 2.297 . S
Cd155 O159 2.439 . S
Cd155 O165 2.240 . S
Cd156 O157 2.240 . S
Cd156 O164 2.223 1_554 S
Cd156 O166 2.297 . S
Cd156 O167 2.439 . S
O157 Cd156 2.240 . S
O157 C162 1.279 . S
O158 Cd155 2.297 . S
O158 C160 1.247 . S
O159 Cd155 2.439 . S
O159 C160 1.208 . S
C160 O158 1.247 . S
C160 O159 1.208 . S
C161 O166 1.247 . S
C161 O167 1.208 . S
C162 O154 1.315 . S
C162 O157 1.279 . S
C163 O164 1.315 1_554 S
C163 O165 1.279 . S
O164 Cd156 2.223 1_556 S
O164 C163 1.315 1_556 S
O165 Cd155 2.240 . S
O165 C163 1.279 . S
O166 Cd156 2.297 . S
O166 C161 1.247 . S
O167 Cd156 2.439 . S
O167 C161 1.208 . S
O168 Cd169 2.223 . S
O168 C176 1.315 . S
Cd169 O168 2.223 . S
Cd169 O172 2.297 . S
Cd169 O173 2.439 . S
Cd169 O179 2.240 . S
Cd170 O171 2.240 . S
Cd170 O178 2.223 . S
Cd170 O180 2.297 . S
Cd170 O181 2.439 . S
O171 Cd170 2.240 . S
O171 C176 1.279 . S
O172 Cd169 2.297 . S
O172 C174 1.247 1_554 S
O173 Cd169 2.439 . S
O173 C174 1.208 1_554 S
C174 O172 1.247 1_556 S
C174 O173 1.208 1_556 S
C175 O180 1.247 . S
C175 O181 1.208 . S
C176 O168 1.315 . S
C176 O171 1.279 . S
C177 O178 1.315 . S
C177 O179 1.279 . S
O178 Cd170 2.223 . S
O178 C177 1.315 . S
O179 Cd169 2.240 . S
O179 C177 1.279 . S
O180 Cd170 2.297 . S
O180 C175 1.247 . S
O181 Cd170 2.439 . S
O181 C175 1.208 . S
O182 Cd183 2.223 . S
O182 C190 1.315 . S
Cd183 O182 2.223 . S
Cd183 O186 2.297 . S
Cd183 O187 2.439 . S
Cd183 O193 2.240 . S
Cd184 O185 2.240 . S
Cd184 O192 2.223 1_556 S
Cd184 O194 2.297 . S
Cd184 O195 2.439 . S
O185 Cd184 2.240 . S
O185 C190 1.279 . S
O186 Cd183 2.297 . S
O186 C188 1.247 . S
O187 Cd183 2.439 . S
O187 C188 1.208 . S
C188 O186 1.247 . S
C188 O187 1.208 . S
C189 O194 1.247 . S
C189 O195 1.208 . S
C190 O182 1.315 . S
C190 O185 1.279 . S
C191 O192 1.315 1_556 S
C191 O193 1.279 . S
O192 Cd184 2.223 1_554 S
O192 C191 1.315 1_554 S
O193 Cd183 2.240 . S
O193 C191 1.279 . S
O194 Cd184 2.297 . S
O194 C189 1.247 . S
O195 Cd184 2.439 . S
O195 C189 1.208 . S
O196 Cd197 2.223 . S
O196 C204 1.315 . S
Cd197 O196 2.223 . S
Cd197 O200 2.297 . S
Cd197 O201 2.439 . S
Cd197 O207 2.240 . S
Cd198 O199 2.240 . S
Cd198 O206 2.223 . S
Cd198 O208 2.297 . S
Cd198 O209 2.439 . S
O199 Cd198 2.240 . S
O199 C204 1.279 . S
O200 Cd197 2.297 . S
O200 C202 1.247 . S
O201 Cd197 2.439 . S
O201 C202 1.208 . S
C202 O200 1.247 . S
C202 O201 1.208 . S
C203 O208 1.247 . S
C203 O209 1.208 . S
C204 O196 1.315 . S
C204 O199 1.279 . S
C205 O206 1.315 . S
C205 O207 1.279 . S
O206 Cd198 2.223 . S
O206 C205 1.315 . S
O207 Cd197 2.240 . S
O207 C205 1.279 . S
O208 Cd198 2.297 . S
O208 C203 1.247 . S
O209 Cd198 2.439 . S
O209 C203 1.208 . S
O210 Cd211 2.223 . S
O210 C218 1.315 . S
Cd211 O210 2.223 . S
Cd211 O214 2.297 . S
Cd211 O215 2.439 . S
Cd211 O221 2.240 . S
Cd212 O213 2.240 . S
Cd212 O220 2.223 . S
Cd212 O222 2.297 . S
Cd212 O223 2.439 . S
O213 Cd212 2.240 . S
O213 C218 1.279 . S
O214 Cd211 2.297 . S
O214 C216 1.247 . S
O215 Cd211 2.439 . S
O215 C216 1.208 . S
C216 O214 1.247 . S
C216 O215 1.208 . S
C217 O222 1.247 . S
C217 O223 1.208 . S
C218 O210 1.315 . S
C218 O213 1.279 . S
C219 O220 1.315 . S
C219 O221 1.279 . S
O220 Cd212 2.223 . S
O220 C219 1.315 . S
O221 Cd211 2.240 . S
O221 C219 1.279 . S
O222 Cd212 2.297 . S
O222 C217 1.247 . S
O223 Cd212 2.439 . S
O223 C217 1.208 . S
O224 Cd225 2.223 . S
O224 C232 1.315 . S
Cd225 O224 2.223 . S
Cd225 O228 2.297 . S
Cd225 O229 2.439 . S
Cd225 O235 2.240 . S
Cd226 O227 2.240 . S
Cd226 O234 2.223 . S
Cd226 O236 2.297 . S
Cd226 O237 2.439 . S
O227 Cd226 2.240 . S
O227 C232 1.279 . S
O228 Cd225 2.297 . S
O228 C230 1.247 . S
O229 Cd225 2.439 . S
O229 C230 1.208 . S
C230 O228 1.247 . S
C230 O229 1.208 . S
C231 O236 1.247 . S
C231 O237 1.208 . S
C232 O224 1.315 . S
C232 O227 1.279 . S
C233 O234 1.315 . S
C233 O235 1.279 . S
O234 Cd226 2.223 . S
O234 C233 1.315 . S
O235 Cd225 2.240 . S
O235 C233 1.279 . S
O236 Cd226 2.297 . S
O236 C231 1.247 . S
O237 Cd226 2.439 . S
O237 C231 1.208 . S
O238 Cd239 2.223 . S
O238 C246 1.315 . S
Cd239 O238 2.223 . S
Cd239 O242 2.297 . S
Cd239 O243 2.439 . S
Cd239 O249 2.240 . S
Cd240 O241 2.240 . S
Cd240 O248 2.223 1_556 S
Cd240 O250 2.297 . S
Cd240 O251 2.439 . S
O241 Cd240 2.240 . S
O241 C246 1.279 . S
O242 Cd239 2.297 . S
O242 C244 1.247 . S
O243 Cd239 2.439 . S
O243 C244 1.208 . S
C244 O242 1.247 . S
C244 O243 1.208 . S
C245 O250 1.247 . S
C245 O251 1.208 . S
C246 O238 1.315 . S
C246 O241 1.279 . S
C247 O248 1.315 1_556 S
C247 O249 1.279 . S
O248 Cd240 2.223 1_554 S
O248 C247 1.315 1_554 S
O249 Cd239 2.240 . S
O249 C247 1.279 . S
O250 Cd240 2.297 . S
O250 C245 1.247 . S
O251 Cd240 2.439 . S
O251 C245 1.208 . S
O252 Cd253 2.223 . S
O252 C260 1.315 . S
Cd253 O252 2.223 . S
Cd253 O256 2.297 . S
Cd253 O257 2.439 . S
Cd253 O263 2.240 . S
Cd254 O255 2.240 . S
Cd254 O262 2.223 . S
Cd254 O264 2.297 . S
Cd254 O265 2.439 . S
O255 Cd254 2.240 . S
O255 C260 1.279 . S
O256 Cd253 2.297 . S
O256 C258 1.247 1_554 S
O257 Cd253 2.439 . S
O257 C258 1.208 1_554 S
C258 O256 1.247 1_556 S
C258 O257 1.208 1_556 S
C259 O264 1.247 . S
C259 O265 1.208 . S
C260 O252 1.315 . S
C260 O255 1.279 . S
C261 O262 1.315 . S
C261 O263 1.279 . S
O262 Cd254 2.223 . S
O262 C261 1.315 . S
O263 Cd253 2.240 . S
O263 C261 1.279 . S
O264 Cd254 2.297 . S
O264 C259 1.247 . S
O265 Cd254 2.439 . S
O265 C259 1.208 . S
O266 Cd267 2.223 . S
O266 C274 1.315 . S
Cd267 O266 2.223 . S
Cd267 O270 2.297 . S
Cd267 O271 2.439 . S
Cd267 O277 2.240 . S
Cd268 O269 2.240 . S
Cd268 O276 2.223 . S
Cd268 O278 2.297 . S
Cd268 O279 2.439 . S
O269 Cd268 2.240 . S
O269 C274 1.279 . S
O270 Cd267 2.297 . S
O270 C272 1.247 . S
O271 Cd267 2.439 . S
O271 C272 1.208 . S
C272 O270 1.247 . S
C272 O271 1.208 . S
C273 O278 1.247 . S
C273 O279 1.208 . S
C274 O266 1.315 . S
C274 O269 1.279 . S
C275 O276 1.315 . S
C275 O277 1.279 . S
O276 Cd268 2.223 . S
O276 C275 1.315 . S
O277 Cd267 2.240 . S
O277 C275 1.279 . S
O278 Cd268 2.297 . S
O278 C273 1.247 . S
O279 Cd268 2.439 . S
O279 C273 1.208 . S
O280 Cd281 2.223 . S
O280 C288 1.315 . S
Cd281 O280 2.223 . S
Cd281 O284 2.297 . S
Cd281 O285 2.439 . S
Cd281 O291 2.240 . S
Cd282 O283 2.240 . S
Cd282 O290 2.223 . S
Cd282 O292 2.297 . S
Cd282 O293 2.439 . S
O283 Cd282 2.240 . S
O283 C288 1.279 . S
O284 Cd281 2.297 . S
O284 C286 1.247 . S
O285 Cd281 2.439 . S
O285 C286 1.208 . S
C286 O284 1.247 . S
C286 O285 1.208 . S
C287 O292 1.247 . S
C287 O293 1.208 . S
C288 O280 1.315 . S
C288 O283 1.279 . S
C289 O290 1.315 . S
C289 O291 1.279 . S
O290 Cd282 2.223 . S
O290 C289 1.315 . S
O291 Cd281 2.240 . S
O291 C289 1.279 . S
O292 Cd282 2.297 . S
O292 C287 1.247 . S
O293 Cd282 2.439 . S
O293 C287 1.208 . S
O294 Cd295 2.223 . S
O294 C302 1.315 . S
Cd295 O294 2.223 . S
Cd295 O298 2.297 . S
Cd295 O299 2.439 . S
Cd295 O305 2.240 . S
Cd296 O297 2.240 . S
Cd296 O304 2.223 . S
Cd296 O306 2.297 . S
Cd296 O307 2.439 . S
O297 Cd296 2.240 . S
O297 C302 1.279 . S
O298 Cd295 2.297 . S
O298 C300 1.247 . S
O299 Cd295 2.439 . S
O299 C300 1.208 . S
C300 O298 1.247 . S
C300 O299 1.208 . S
C301 O306 1.247 . S
C301 O307 1.208 . S
C302 O294 1.315 . S
C302 O297 1.279 . S
C303 O304 1.315 . S
C303 O305 1.279 . S
O304 Cd296 2.223 . S
O304 C303 1.315 . S
O305 Cd295 2.240 . S
O305 C303 1.279 . S
O306 Cd296 2.297 . S
O306 C301 1.247 . S
O307 Cd296 2.439 . S
O307 C301 1.208 . S
O308 Cd309 2.223 . S
O308 C316 1.315 . S
Cd309 O308 2.223 . S
Cd309 O312 2.297 . S
Cd309 O313 2.439 . S
Cd309 O319 2.240 . S
Cd310 O311 2.240 . S
Cd310 O318 2.223 . S
Cd310 O320 2.297 . S
Cd310 O321 2.439 . S
O311 Cd310 2.240 . S
O311 C316 1.279 . S
O312 Cd309 2.297 . S
O312 C314 1.247 1_556 S
O313 Cd309 2.439 . S
O313 C314 1.208 1_556 S
C314 O312 1.247 1_554 S
C314 O313 1.208 1_554 S
C315 O320 1.247 . S
C315 O321 1.208 . S
C316 O308 1.315 . S
C316 O311 1.279 . S
C317 O318 1.315 . S
C317 O319 1.279 . S
O318 Cd310 2.223 . S
O318 C317 1.315 . S
O319 Cd309 2.240 . S
O319 C317 1.279 . S
O320 Cd310 2.297 . S
O320 C315 1.247 . S
O321 Cd310 2.439 . S
O321 C315 1.208 . S
O322 Cd323 2.223 . S
O322 C330 1.315 . S
Cd323 O322 2.223 . S
Cd323 O326 2.297 . S
Cd323 O327 2.439 . S
Cd323 O333 2.240 . S
Cd324 O325 2.240 . S
Cd324 O332 2.223 1_554 S
Cd324 O334 2.297 . S
Cd324 O335 2.439 . S
O325 Cd324 2.240 . S
O325 C330 1.279 . S
O326 Cd323 2.297 . S
O326 C328 1.247 . S
O327 Cd323 2.439 . S
O327 C328 1.208 . S
C328 O326 1.247 . S
C328 O327 1.208 . S
C329 O334 1.247 . S
C329 O335 1.208 . S
C330 O322 1.315 . S
C330 O325 1.279 . S
C331 O332 1.315 1_554 S
C331 O333 1.279 . S
O332 Cd324 2.223 1_556 S
O332 C331 1.315 1_556 S
O333 Cd323 2.240 . S
O333 C331 1.279 . S
O334 Cd324 2.297 . S
O334 C329 1.247 . S
O335 Cd324 2.439 . S
O335 C329 1.208 . S
O336 Cd337 2.223 . S
O336 C344 1.315 . S
Cd337 O336 2.223 . S
Cd337 O340 2.297 . S
Cd337 O341 2.439 . S
Cd337 O347 2.240 . S
Cd338 O339 2.240 . S
Cd338 O346 2.223 . S
Cd338 O348 2.297 . S
Cd338 O349 2.439 . S
O339 Cd338 2.240 . S
O339 C344 1.279 . S
O340 Cd337 2.297 . S
O340 C342 1.247 . S
O341 Cd337 2.439 . S
O341 C342 1.208 . S
C342 O340 1.247 . S
C342 O341 1.208 . S
C343 O348 1.247 . S
C343 O349 1.208 . S
C344 O336 1.315 . S
C344 O339 1.279 . S
C345 O346 1.315 . S
C345 O347 1.279 . S
O346 Cd338 2.223 . S
O346 C345 1.315 . S
O347 Cd337 2.240 . S
O347 C345 1.279 . S
O348 Cd338 2.297 . S
O348 C343 1.247 . S
O349 Cd338 2.439 . S
O349 C343 1.208 . S
O350 Cd351 2.223 . S
O350 C358 1.315 . S
Cd351 O350 2.223 . S
Cd351 O354 2.297 . S
Cd351 O355 2.439 . S
Cd351 O361 2.240 . S
Cd352 O353 2.240 . S
Cd352 O360 2.223 1_554 S
Cd352 O362 2.297 . S
Cd352 O363 2.439 . S
O353 Cd352 2.240 . S
O353 C358 1.279 . S
O354 Cd351 2.297 . S
O354 C356 1.247 . S
O355 Cd351 2.439 . S
O355 C356 1.208 . S
C356 O354 1.247 . S
C356 O355 1.208 . S
C357 O362 1.247 . S
C357 O363 1.208 . S
C358 O350 1.315 . S
C358 O353 1.279 . S
C359 O360 1.315 1_554 S
C359 O361 1.279 . S
O360 Cd352 2.223 1_556 S
O360 C359 1.315 1_556 S
O361 Cd351 2.240 . S
O361 C359 1.279 . S
O362 Cd352 2.297 . S
O362 C357 1.247 . S
O363 Cd352 2.439 . S
O363 C357 1.208 . S
O364 Cd365 2.223 . S
O364 C372 1.315 . S
Cd365 O364 2.223 . S
Cd365 O368 2.297 . S
Cd365 O369 2.439 . S
Cd365 O375 2.240 . S
Cd366 O367 2.240 . S
Cd366 O374 2.223 . S
Cd366 O376 2.297 . S
Cd366 O377 2.439 . S
O367 Cd366 2.240 . S
O367 C372 1.279 . S
O368 Cd365 2.297 . S
O368 C370 1.247 1_556 S
O369 Cd365 2.439 . S
O369 C370 1.208 1_556 S
C370 O368 1.247 1_554 S
C370 O369 1.208 1_554 S
C371 O376 1.247 . S
C371 O377 1.208 . S
C372 O364 1.315 . S
C372 O367 1.279 . S
C373 O374 1.315 . S
C373 O375 1.279 . S
O374 Cd366 2.223 . S
O374 C373 1.315 . S
O375 Cd365 2.240 . S
O375 C373 1.279 . S
O376 Cd366 2.297 . S
O376 C371 1.247 . S
O377 Cd366 2.439 . S
O377 C371 1.208 . S
O378 Cd379 2.223 . S
O378 C386 1.315 . S
Cd379 O378 2.223 . S
Cd379 O382 2.297 . S
Cd379 O383 2.439 . S
Cd379 O389 2.240 . S
Cd380 O381 2.240 . S
Cd380 O388 2.223 . S
Cd380 O390 2.297 . S
Cd380 O391 2.439 . S
O381 Cd380 2.240 . S
O381 C386 1.279 . S
O382 Cd379 2.297 . S
O382 C384 1.247 . S
O383 Cd379 2.439 . S
O383 C384 1.208 . S
C384 O382 1.247 . S
C384 O383 1.208 . S
C385 O390 1.247 . S
C385 O391 1.208 . S
C386 O378 1.315 . S
C386 O381 1.279 . S
C387 O388 1.315 . S
C387 O389 1.279 . S
O388 Cd380 2.223 . S
O388 C387 1.315 . S
O389 Cd379 2.240 . S
O389 C387 1.279 . S
O390 Cd380 2.297 . S
O390 C385 1.247 . S
O391 Cd380 2.439 . S
O391 C385 1.208 . S
O392 Cd393 2.223 . S
O392 C400 1.315 . S
Cd393 O392 2.223 . S
Cd393 O396 2.297 . S
Cd393 O397 2.439 . S
Cd393 O403 2.240 . S
Cd394 O395 2.240 . S
Cd394 O402 2.223 . S
Cd394 O404 2.297 . S
Cd394 O405 2.439 . S
O395 Cd394 2.240 . S
O395 C400 1.279 . S
O396 Cd393 2.297 . S
O396 C398 1.247 . S
O397 Cd393 2.439 . S
O397 C398 1.208 . S
C398 O396 1.247 . S
C398 O397 1.208 . S
C399 O404 1.247 . S
C399 O405 1.208 . S
C400 O392 1.315 . S
C400 O395 1.279 . S
C401 O402 1.315 . S
C401 O403 1.279 . S
O402 Cd394 2.223 . S
O402 C401 1.315 . S
O403 Cd393 2.240 . S
O403 C401 1.279 . S
O404 Cd394 2.297 . S
O404 C399 1.247 . S
O405 Cd394 2.439 . S
O405 C399 1.208 . S
O406 Cd407 2.223 . S
O406 C414 1.315 . S
Cd407 O406 2.223 . S
Cd407 O410 2.297 . S
Cd407 O411 2.439 . S
Cd407 O417 2.240 . S
Cd408 O409 2.240 . S
Cd408 O416 2.223 . S
Cd408 O418 2.297 . S
Cd408 O419 2.439 . S
O409 Cd408 2.240 . S
O409 C414 1.279 . S
O410 Cd407 2.297 . S
O410 C412 1.247 . S
O411 Cd407 2.439 . S
O411 C412 1.208 . S
C412 O410 1.247 . S
C412 O411 1.208 . S
C413 O418 1.247 . S
C413 O419 1.208 . S
C414 O406 1.315 . S
C414 O409 1.279 . S
C415 O416 1.315 . S
C415 O417 1.279 . S
O416 Cd408 2.223 . S
O416 C415 1.315 . S
O417 Cd407 2.240 . S
O417 C415 1.279 . S
O418 Cd408 2.297 . S
O418 C413 1.247 . S
O419 Cd408 2.439 . S
O419 C413 1.208 . S
O420 Cd421 2.223 . S
O420 C428 1.315 . S
Cd421 O420 2.223 . S
Cd421 O424 2.297 . S
Cd421 O425 2.439 . S
Cd421 O431 2.240 . S
Cd422 O423 2.240 . S
Cd422 O430 2.223 . S
Cd422 O432 2.297 . S
Cd422 O433 2.439 . S
O423 Cd422 2.240 . S
O423 C428 1.279 . S
O424 Cd421 2.297 . S
O424 C426 1.247 1_554 S
O425 Cd421 2.439 . S
O425 C426 1.208 1_554 S
C426 O424 1.247 1_556 S
C426 O425 1.208 1_556 S
C427 O432 1.247 . S
C427 O433 1.208 . S
C428 O420 1.315 . S
C428 O423 1.279 . S
C429 O430 1.315 . S
C429 O431 1.279 . S
O430 Cd422 2.223 . S
O430 C429 1.315 . S
O431 Cd421 2.240 . S
O431 C429 1.279 . S
O432 Cd422 2.297 . S
O432 C427 1.247 . S
O433 Cd422 2.439 . S
O433 C427 1.208 . S
O434 Cd435 2.223 . S
O434 C442 1.315 . S
Cd435 O434 2.223 . S
Cd435 O438 2.297 . S
Cd435 O439 2.439 . S
Cd435 O445 2.240 . S
Cd436 O437 2.240 . S
Cd436 O444 2.223 1_556 S
Cd436 O446 2.297 . S
Cd436 O447 2.439 . S
O437 Cd436 2.240 . S
O437 C442 1.279 . S
O438 Cd435 2.297 . S
O438 C440 1.247 . S
O439 Cd435 2.439 . S
O439 C440 1.208 . S
C440 O438 1.247 . S
C440 O439 1.208 . S
C441 O446 1.247 . S
C441 O447 1.208 . S
C442 O434 1.315 . S
C442 O437 1.279 . S
C443 O444 1.315 1_556 S
C443 O445 1.279 . S
O444 Cd436 2.223 1_554 S
O444 C443 1.315 1_554 S
O445 Cd435 2.240 . S
O445 C443 1.279 . S
O446 Cd436 2.297 . S
O446 C441 1.247 . S
O447 Cd436 2.439 . S
O447 C441 1.208 . S
C448 C449 1.363 . S
C448 C454 1.379 . S
C448 N456 1.356 . S
C449 C448 1.363 . S
C449 C455 1.363 . S
C450 C451 1.363 . S
C450 C455 1.379 . S
C450 N457 1.356 . S
C451 C450 1.363 . S
C451 C454 1.363 . S
N452 C454 1.356 . S
N452 H464 0.984 . S
N452 H465 0.985 . S
N453 C455 1.356 . S
N453 H458 0.984 . S
N453 H459 0.985 . S
C454 C448 1.379 . S
C454 C451 1.363 . S
C454 N452 1.356 . S
C455 C449 1.363 . S
C455 C450 1.379 . S
C455 N453 1.356 . S
N456 C448 1.356 . S
N456 H462 0.984 . S
N456 H463 0.984 . S
N457 C450 1.356 . S
N457 H460 0.984 . S
N457 H461 0.985 . S
H458 N453 0.984 . S
H459 N453 0.985 . S
H460 N457 0.984 . S
H461 N457 0.985 . S
H462 N456 0.984 . S
H463 N456 0.984 . S
H464 N452 0.984 . S
H465 N452 0.985 . S
C466 C467 1.363 . S
C466 C472 1.379 1_565 S
C466 N474 1.356 . S
C467 C466 1.363 . S
C467 C473 1.363 . S
C468 C469 1.363 . S
C468 C473 1.379 1_545 S
C468 N475 1.356 . S
C469 C468 1.363 . S
C469 C472 1.363 . S
N470 C472 1.356 . S
N470 H482 0.984 . S
N470 H483 0.985 . S
N471 C473 1.356 . S
N471 H476 0.984 . S
N471 H477 0.985 . S
C472 C466 1.379 1_545 S
C472 C469 1.363 . S
C472 N470 1.356 . S
C473 C467 1.363 . S
C473 C468 1.379 1_565 S
C473 N471 1.356 . S
N474 C466 1.356 . S
N474 H480 0.984 . S
N474 H481 0.984 . S
N475 C468 1.356 . S
N475 H478 0.984 . S
N475 H479 0.985 . S
H476 N471 0.984 . S
H477 N471 0.985 . S
H478 N475 0.984 . S
H479 N475 0.985 . S
H480 N474 0.984 . S
H481 N474 0.984 . S
H482 N470 0.984 . S
H483 N470 0.985 . S
C484 C485 1.363 . S
C484 C490 1.379 . S
C484 N492 1.356 . S
C485 C484 1.363 . S
C485 C491 1.363 . S
C486 C487 1.363 . S
C486 C491 1.379 . S
C486 N493 1.356 . S
C487 C486 1.363 . S
C487 C490 1.363 . S
N488 C490 1.356 . S
N488 H500 0.984 . S
N488 H501 0.985 . S
N489 C491 1.356 . S
N489 H494 0.984 . S
N489 H495 0.985 . S
C490 C484 1.379 . S
C490 C487 1.363 . S
C490 N488 1.356 . S
C491 C485 1.363 . S
C491 C486 1.379 . S
C491 N489 1.356 . S
N492 C484 1.356 . S
N492 H498 0.984 . S
N492 H499 0.984 . S
N493 C486 1.356 . S
N493 H496 0.984 . S
N493 H497 0.985 . S
H494 N489 0.984 . S
H495 N489 0.985 . S
H496 N493 0.984 . S
H497 N493 0.985 . S
H498 N492 0.984 . S
H499 N492 0.984 . S
H500 N488 0.984 . S
H501 N488 0.985 . S
C502 C503 1.363 . S
C502 C508 1.379 1_545 S
C502 N510 1.356 . S
C503 C502 1.363 . S
C503 C509 1.363 1_556 S
C504 C505 1.363 . S
C504 C509 1.379 1_565 S
C504 N511 1.356 . S
C505 C504 1.363 . S
C505 C508 1.363 1_554 S
N506 C508 1.356 . S
N506 H518 0.984 . S
N506 H519 0.985 . S
N507 C509 1.356 . S
N507 H512 0.984 . S
N507 H513 0.985 . S
C508 C502 1.379 1_565 S
C508 C505 1.363 1_556 S
C508 N506 1.356 . S
C509 C503 1.363 1_554 S
C509 C504 1.379 1_545 S
C509 N507 1.356 . S
N510 C502 1.356 . S
N510 H516 0.984 . S
N510 H517 0.984 . S
N511 C504 1.356 . S
N511 H514 0.984 . S
N511 H515 0.985 . S
H512 N507 0.984 . S
H513 N507 0.985 . S
H514 N511 0.984 . S
H515 N511 0.985 . S
H516 N510 0.984 . S
H517 N510 0.984 . S
H518 N506 0.984 . S
H519 N506 0.985 . S
C520 C521 1.363 . S
C520 C526 1.379 . S
C520 N528 1.356 . S
C521 C520 1.363 . S
C521 C527 1.363 . S
C522 C523 1.363 . S
C522 C527 1.379 . S
C522 N529 1.356 . S
C523 C522 1.363 . S
C523 C526 1.363 . S
N524 C526 1.356 . S
N524 H536 0.984 . S
N524 H537 0.985 . S
N525 C527 1.356 . S
N525 H530 0.984 . S
N525 H531 0.985 . S
C526 C520 1.379 . S
C526 C523 1.363 . S
C526 N524 1.356 . S
C527 C521 1.363 . S
C527 C522 1.379 . S
C527 N525 1.356 . S
N528 C520 1.356 . S
N528 H534 0.984 . S
N528 H535 0.984 . S
N529 C522 1.356 . S
N529 H532 0.984 . S
N529 H533 0.985 . S
H530 N525 0.984 . S
H531 N525 0.985 . S
H532 N529 0.984 . S
H533 N529 0.985 . S
H534 N528 0.984 . S
H535 N528 0.984 . S
H536 N524 0.984 . S
H537 N524 0.985 . S
C538 C539 1.363 . S
C538 C544 1.379 1_565 S
C538 N546 1.356 . S
C539 C538 1.363 . S
C539 C545 1.363 . S
C540 C541 1.363 . S
C540 C545 1.379 1_545 S
C540 N547 1.356 . S
C541 C540 1.363 . S
C541 C544 1.363 . S
N542 C544 1.356 . S
N542 H554 0.984 . S
N542 H555 0.985 . S
N543 C545 1.356 . S
N543 H548 0.984 . S
N543 H549 0.985 . S
C544 C538 1.379 1_545 S
C544 C541 1.363 . S
C544 N542 1.356 . S
C545 C539 1.363 . S
C545 C540 1.379 1_565 S
C545 N543 1.356 . S
N546 C538 1.356 . S
N546 H552 0.984 . S
N546 H553 0.984 . S
N547 C540 1.356 . S
N547 H550 0.984 . S
N547 H551 0.985 . S
H548 N543 0.984 . S
H549 N543 0.985 . S
H550 N547 0.984 . S
H551 N547 0.985 . S
H552 N546 0.984 . S
H553 N546 0.984 . S
H554 N542 0.984 . S
H555 N542 0.985 . S
C556 C557 1.363 . S
C556 C562 1.379 . S
C556 N564 1.356 . S
C557 C556 1.363 . S
C557 C563 1.363 . S
C558 C559 1.363 . S
C558 C563 1.379 . S
C558 N565 1.356 . S
C559 C558 1.363 . S
C559 C562 1.363 . S
N560 C562 1.356 . S
N560 H572 0.984 . S
N560 H573 0.985 . S
N561 C563 1.356 . S
N561 H566 0.984 . S
N561 H567 0.985 . S
C562 C556 1.379 . S
C562 C559 1.363 . S
C562 N560 1.356 . S
C563 C557 1.363 . S
C563 C558 1.379 . S
C563 N561 1.356 . S
N564 C556 1.356 . S
N564 H570 0.984 . S
N564 H571 0.984 . S
N565 C558 1.356 . S
N565 H568 0.984 . S
N565 H569 0.985 . S
H566 N561 0.984 . S
H567 N561 0.985 . S
H568 N565 0.984 . S
H569 N565 0.985 . S
H570 N564 0.984 . S
H571 N564 0.984 . S
H572 N560 0.984 . S
H573 N560 0.985 . S
C574 C575 1.363 . S
C574 C580 1.379 1_545 S
C574 N582 1.356 . S
C575 C574 1.363 . S
C575 C581 1.363 1_556 S
C576 C577 1.363 . S
C576 C581 1.379 1_565 S
C576 N583 1.356 . S
C577 C576 1.363 . S
C577 C580 1.363 1_554 S
N578 C580 1.356 . S
N578 H590 0.984 . S
N578 H591 0.985 . S
N579 C581 1.356 . S
N579 H584 0.984 . S
N579 H585 0.985 . S
C580 C574 1.379 1_565 S
C580 C577 1.363 1_556 S
C580 N578 1.356 . S
C581 C575 1.363 1_554 S
C581 C576 1.379 1_545 S
C581 N579 1.356 . S
N582 C574 1.356 . S
N582 H588 0.984 . S
N582 H589 0.984 . S
N583 C576 1.356 . S
N583 H586 0.984 . S
N583 H587 0.985 . S
H584 N579 0.984 . S
H585 N579 0.985 . S
H586 N583 0.984 . S
H587 N583 0.985 . S
H588 N582 0.984 . S
H589 N582 0.984 . S
H590 N578 0.984 . S
H591 N578 0.985 . S
C592 C593 1.363 . S
C592 C598 1.379 . S
C592 N600 1.356 . S
C593 C592 1.363 . S
C593 C599 1.363 . S
C594 C595 1.363 . S
C594 C599 1.379 . S
C594 N601 1.356 . S
C595 C594 1.363 . S
C595 C598 1.363 . S
N596 C598 1.356 . S
N596 H608 0.984 . S
N596 H609 0.985 . S
N597 C599 1.356 . S
N597 H602 0.984 . S
N597 H603 0.985 . S
C598 C592 1.379 . S
C598 C595 1.363 . S
C598 N596 1.356 . S
C599 C593 1.363 . S
C599 C594 1.379 . S
C599 N597 1.356 . S
N600 C592 1.356 . S
N600 H606 0.984 . S
N600 H607 0.984 . S
N601 C594 1.356 . S
N601 H604 0.984 . S
N601 H605 0.985 . S
H602 N597 0.984 . S
H603 N597 0.985 . S
H604 N601 0.984 . S
H605 N601 0.985 . S
H606 N600 0.984 . S
H607 N600 0.984 . S
H608 N596 0.984 . S
H609 N596 0.985 . S
C610 C611 1.363 . S
C610 C616 1.379 . S
C610 N618 1.356 . S
C611 C610 1.363 . S
C611 C617 1.363 1_556 S
C612 C613 1.363 . S
C612 C617 1.379 . S
C612 N619 1.356 . S
C613 C612 1.363 . S
C613 C616 1.363 1_554 S
N614 C616 1.356 . S
N614 H626 0.984 . S
N614 H627 0.985 . S
N615 C617 1.356 . S
N615 H620 0.984 . S
N615 H621 0.985 . S
C616 C610 1.379 . S
C616 C613 1.363 1_556 S
C616 N614 1.356 . S
C617 C611 1.363 1_554 S
C617 C612 1.379 . S
C617 N615 1.356 . S
N618 C610 1.356 . S
N618 H624 0.984 . S
N618 H625 0.984 . S
N619 C612 1.356 . S
N619 H622 0.984 . S
N619 H623 0.985 . S
H620 N615 0.984 . S
H621 N615 0.985 . S
H622 N619 0.984 . S
H623 N619 0.985 . S
H624 N618 0.984 . S
H625 N618 0.984 . S
H626 N614 0.984 . S
H627 N614 0.985 . S
C628 C629 1.363 . S
C628 C634 1.379 . S
C628 N636 1.356 . S
C629 C628 1.363 . S
C629 C635 1.363 . S
C630 C631 1.363 . S
C630 C635 1.379 . S
C630 N637 1.356 . S
C631 C630 1.363 . S
C631 C634 1.363 . S
N632 C634 1.356 . S
N632 H644 0.984 . S
N632 H645 0.985 . S
N633 C635 1.356 . S
N633 H638 0.984 . S
N633 H639 0.985 . S
C634 C628 1.379 . S
C634 C631 1.363 . S
C634 N632 1.356 . S
C635 C629 1.363 . S
C635 C630 1.379 . S
C635 N633 1.356 . S
N636 C628 1.356 . S
N636 H642 0.984 . S
N636 H643 0.984 . S
N637 C630 1.356 . S
N637 H640 0.984 . S
N637 H641 0.985 . S
H638 N633 0.984 . S
H639 N633 0.985 . S
H640 N637 0.984 . S
H641 N637 0.985 . S
H642 N636 0.984 . S
H643 N636 0.984 . S
H644 N632 0.984 . S
H645 N632 0.985 . S
C646 C647 1.363 . S
C646 C652 1.379 . S
C646 N654 1.356 . S
C647 C646 1.363 . S
C647 C653 1.363 . S
C648 C649 1.363 . S
C648 C653 1.379 . S
C648 N655 1.356 . S
C649 C648 1.363 . S
C649 C652 1.363 . S
N650 C652 1.356 . S
N650 H662 0.984 . S
N650 H663 0.985 . S
N651 C653 1.356 . S
N651 H656 0.984 . S
N651 H657 0.985 . S
C652 C646 1.379 . S
C652 C649 1.363 . S
C652 N650 1.356 . S
C653 C647 1.363 . S
C653 C648 1.379 . S
C653 N651 1.356 . S
N654 C646 1.356 . S
N654 H660 0.984 . S
N654 H661 0.984 . S
N655 C648 1.356 . S
N655 H658 0.984 . S
N655 H659 0.985 . S
H656 N651 0.984 . S
H657 N651 0.985 . S
H658 N655 0.984 . S
H659 N655 0.985 . S
H660 N654 0.984 . S
H661 N654 0.984 . S
H662 N650 0.984 . S
H663 N650 0.985 . S
C664 C665 1.363 . S
C664 C670 1.379 . S
C664 N672 1.356 . S
C665 C664 1.363 . S
C665 C671 1.363 . S
C666 C667 1.363 . S
C666 C671 1.379 . S
C666 N673 1.356 . S
C667 C666 1.363 . S
C667 C670 1.363 . S
N668 C670 1.356 . S
N668 H680 0.984 . S
N668 H681 0.985 . S
N669 C671 1.356 . S
N669 H674 0.984 . S
N669 H675 0.985 . S
C670 C664 1.379 . S
C670 C667 1.363 . S
C670 N668 1.356 . S
C671 C665 1.363 . S
C671 C666 1.379 . S
C671 N669 1.356 . S
N672 C664 1.356 . S
N672 H678 0.984 . S
N672 H679 0.984 . S
N673 C666 1.356 . S
N673 H676 0.984 . S
N673 H677 0.985 . S
H674 N669 0.984 . S
H675 N669 0.985 . S
H676 N673 0.984 . S
H677 N673 0.985 . S
H678 N672 0.984 . S
H679 N672 0.984 . S
H680 N668 0.984 . S
H681 N668 0.985 . S
C682 C683 1.363 1_556 S
C682 C688 1.379 . S
C682 N690 1.356 . S
C683 C682 1.363 1_554 S
C683 C689 1.363 . S
C684 C685 1.363 1_554 S
C684 C689 1.379 . S
C684 N691 1.356 . S
C685 C684 1.363 1_556 S
C685 C688 1.363 . S
N686 C688 1.356 . S
N686 H698 0.984 . S
N686 H699 0.985 . S
N687 C689 1.356 . S
N687 H692 0.984 . S
N687 H693 0.985 . S
C688 C682 1.379 . S
C688 C685 1.363 . S
C688 N686 1.356 . S
C689 C683 1.363 . S
C689 C684 1.379 . S
C689 N687 1.356 . S
N690 C682 1.356 . S
N690 H696 0.984 . S
N690 H697 0.984 . S
N691 C684 1.356 . S
N691 H694 0.984 . S
N691 H695 0.985 . S
H692 N687 0.984 . S
H693 N687 0.985 . S
H694 N691 0.984 . S
H695 N691 0.985 . S
H696 N690 0.984 . S
H697 N690 0.984 . S
H698 N686 0.984 . S
H699 N686 0.985 . S
C700 C701 1.363 . S
C700 C706 1.379 . S
C700 N708 1.356 . S
C701 C700 1.363 . S
C701 C707 1.363 . S
C702 C703 1.363 . S
C702 C707 1.379 . S
C702 N709 1.356 . S
C703 C702 1.363 . S
C703 C706 1.363 . S
N704 C706 1.356 . S
N704 H716 0.984 . S
N704 H717 0.985 . S
N705 C707 1.356 . S
N705 H710 0.984 . S
N705 H711 0.985 . S
C706 C700 1.379 . S
C706 C703 1.363 . S
C706 N704 1.356 . S
C707 C701 1.363 . S
C707 C702 1.379 . S
C707 N705 1.356 . S
N708 C700 1.356 . S
N708 H714 0.984 . S
N708 H715 0.984 . S
N709 C702 1.356 . S
N709 H712 0.984 . S
N709 H713 0.985 . S
H710 N705 0.984 . S
H711 N705 0.985 . S
H712 N709 0.984 . S
H713 N709 0.985 . S
H714 N708 0.984 . S
H715 N708 0.984 . S
H716 N704 0.984 . S
H717 N704 0.985 . S
C718 C719 1.363 . S
C718 C724 1.379 . S
C718 N726 1.356 . S
C719 C718 1.363 . S
C719 C725 1.363 . S
C720 C721 1.363 . S
C720 C725 1.379 . S
C720 N727 1.356 . S
C721 C720 1.363 . S
C721 C724 1.363 . S
N722 C724 1.356 . S
N722 H734 0.984 . S
N722 H735 0.985 . S
N723 C725 1.356 . S
N723 H728 0.984 . S
N723 H729 0.985 . S
C724 C718 1.379 . S
C724 C721 1.363 . S
C724 N722 1.356 . S
C725 C719 1.363 . S
C725 C720 1.379 . S
C725 N723 1.356 . S
N726 C718 1.356 . S
N726 H732 0.984 . S
N726 H733 0.984 . S
N727 C720 1.356 . S
N727 H730 0.984 . S
N727 H731 0.985 . S
H728 N723 0.984 . S
H729 N723 0.985 . S
H730 N727 0.984 . S
H731 N727 0.985 . S
H732 N726 0.984 . S
H733 N726 0.984 . S
H734 N722 0.984 . S
H735 N722 0.985 . S
C736 C737 1.363 . S
C736 C742 1.379 . S
C736 N744 1.356 . S
C737 C736 1.363 . S
C737 C743 1.363 . S
C738 C739 1.363 . S
C738 C743 1.379 . S
C738 N745 1.356 . S
C739 C738 1.363 . S
C739 C742 1.363 . S
N740 C742 1.356 . S
N740 H752 0.984 . S
N740 H753 0.985 . S
N741 C743 1.356 . S
N741 H746 0.984 . S
N741 H747 0.985 . S
C742 C736 1.379 . S
C742 C739 1.363 . S
C742 N740 1.356 . S
C743 C737 1.363 . S
C743 C738 1.379 . S
C743 N741 1.356 . S
N744 C736 1.356 . S
N744 H750 0.984 . S
N744 H751 0.984 . S
N745 C738 1.356 . S
N745 H748 0.984 . S
N745 H749 0.985 . S
H746 N741 0.984 . S
H747 N741 0.985 . S
H748 N745 0.984 . S
H749 N745 0.985 . S
H750 N744 0.984 . S
H751 N744 0.984 . S
H752 N740 0.984 . S
H753 N740 0.985 . S
C754 C755 1.363 . S
C754 C760 1.379 . S
C754 N762 1.356 . S
C755 C754 1.363 . S
C755 C761 1.363 . S
C756 C757 1.363 . S
C756 C761 1.379 . S
C756 N763 1.356 . S
C757 C756 1.363 . S
C757 C760 1.363 . S
N758 C760 1.356 . S
N758 H770 0.984 . S
N758 H771 0.985 . S
N759 C761 1.356 . S
N759 H764 0.984 1_554 S
N759 H765 0.985 . S
C760 C754 1.379 . S
C760 C757 1.363 . S
C760 N758 1.356 . S
C761 C755 1.363 . S
C761 C756 1.379 . S
C761 N759 1.356 . S
N762 C754 1.356 . S
N762 H768 0.984 . S
N762 H769 0.984 . S
N763 C756 1.356 . S
N763 H766 0.984 . S
N763 H767 0.985 . S
H764 N759 0.984 1_556 S
H765 N759 0.985 . S
H766 N763 0.984 . S
H767 N763 0.985 . S
H768 N762 0.984 . S
H769 N762 0.984 . S
H770 N758 0.984 . S
H771 N758 0.985 . S
C772 C773 1.363 . S
C772 C778 1.379 . S
C772 N780 1.356 . S
C773 C772 1.363 . S
C773 C779 1.363 . S
C774 C775 1.363 . S
C774 C779 1.379 . S
C774 N781 1.356 . S
C775 C774 1.363 . S
C775 C778 1.363 . S
N776 C778 1.356 . S
N776 H788 0.984 . S
N776 H789 0.985 . S
N777 C779 1.356 . S
N777 H782 0.984 . S
N777 H783 0.985 . S
C778 C772 1.379 . S
C778 C775 1.363 . S
C778 N776 1.356 . S
C779 C773 1.363 . S
C779 C774 1.379 . S
C779 N777 1.356 . S
N780 C772 1.356 . S
N780 H786 0.984 . S
N780 H787 0.984 . S
N781 C774 1.356 . S
N781 H784 0.984 . S
N781 H785 0.985 . S
H782 N777 0.984 . S
H783 N777 0.985 . S
H784 N781 0.984 . S
H785 N781 0.985 . S
H786 N780 0.984 . S
H787 N780 0.984 . S
H788 N776 0.984 . S
H789 N776 0.985 . S
C790 C791 1.363 . S
C790 C796 1.379 . S
C790 N798 1.356 . S
C791 C790 1.363 . S
C791 C797 1.363 . S
C792 C793 1.363 . S
C792 C797 1.379 . S
C792 N799 1.356 . S
C793 C792 1.363 . S
C793 C796 1.363 . S
N794 C796 1.356 . S
N794 H806 0.984 . S
N794 H807 0.985 . S
N795 C797 1.356 . S
N795 H800 0.984 . S
N795 H801 0.985 . S
C796 C790 1.379 . S
C796 C793 1.363 . S
C796 N794 1.356 . S
C797 C791 1.363 . S
C797 C792 1.379 . S
C797 N795 1.356 . S
N798 C790 1.356 . S
N798 H804 0.984 . S
N798 H805 0.984 . S
N799 C792 1.356 . S
N799 H802 0.984 . S
N799 H803 0.985 . S
H800 N795 0.984 . S
H801 N795 0.985 . S
H802 N799 0.984 . S
H803 N799 0.985 . S
H804 N798 0.984 . S
H805 N798 0.984 . S
H806 N794 0.984 . S
H807 N794 0.985 . S
C808 C809 1.363 . S
C808 C814 1.379 . S
C808 N816 1.356 1_554 S
C809 C808 1.363 . S
C809 C815 1.363 . S
C810 C811 1.363 . S
C810 C815 1.379 . S
C810 N817 1.356 . S
C811 C810 1.363 . S
C811 C814 1.363 . S
N812 C814 1.356 . S
N812 H824 0.984 . S
N812 H825 0.985 . S
N813 C815 1.356 . S
N813 H818 0.984 . S
N813 H819 0.985 . S
C814 C808 1.379 . S
C814 C811 1.363 . S
C814 N812 1.356 . S
C815 C809 1.363 . S
C815 C810 1.379 . S
C815 N813 1.356 . S
N816 C808 1.356 1_556 S
N816 H822 0.984 . S
N816 H823 0.984 . S
N817 C810 1.356 . S
N817 H820 0.984 . S
N817 H821 0.985 . S
H818 N813 0.984 . S
H819 N813 0.985 . S
H820 N817 0.984 . S
H821 N817 0.985 . S
H822 N816 0.984 . S
H823 N816 0.984 . S
H824 N812 0.984 . S
H825 N812 0.985 . S
C826 C827 1.363 . S
C826 C832 1.379 . S
C826 N834 1.356 1_556 S
C827 C826 1.363 . S
C827 C833 1.363 . S
C828 C829 1.363 . S
C828 C833 1.379 . S
C828 N835 1.356 . S
C829 C828 1.363 . S
C829 C832 1.363 . S
N830 C832 1.356 . S
N830 H842 0.984 . S
N830 H843 0.985 . S
N831 C833 1.356 . S
N831 H836 0.984 . S
N831 H837 0.985 . S
C832 C826 1.379 . S
C832 C829 1.363 . S
C832 N830 1.356 . S
C833 C827 1.363 . S
C833 C828 1.379 . S
C833 N831 1.356 . S
N834 C826 1.356 1_554 S
N834 H840 0.984 . S
N834 H841 0.984 . S
N835 C828 1.356 . S
N835 H838 0.984 . S
N835 H839 0.985 . S
H836 N831 0.984 . S
H837 N831 0.985 . S
H838 N835 0.984 . S
H839 N835 0.985 . S
H840 N834 0.984 . S
H841 N834 0.984 . S
H842 N830 0.984 . S
H843 N830 0.985 . S
C844 C845 1.363 . S
C844 C850 1.379 . S
C844 N852 1.356 . S
C845 C844 1.363 . S
C845 C851 1.363 . S
C846 C847 1.363 . S
C846 C851 1.379 . S
C846 N853 1.356 . S
C847 C846 1.363 . S
C847 C850 1.363 . S
N848 C850 1.356 . S
N848 H860 0.984 . S
N848 H861 0.985 . S
N849 C851 1.356 . S
N849 H854 0.984 . S
N849 H855 0.985 . S
C850 C844 1.379 . S
C850 C847 1.363 . S
C850 N848 1.356 . S
C851 C845 1.363 . S
C851 C846 1.379 . S
C851 N849 1.356 . S
N852 C844 1.356 . S
N852 H858 0.984 . S
N852 H859 0.984 . S
N853 C846 1.356 . S
N853 H856 0.984 . S
N853 H857 0.985 . S
H854 N849 0.984 . S
H855 N849 0.985 . S
H856 N853 0.984 . S
H857 N853 0.985 . S
H858 N852 0.984 . S
H859 N852 0.984 . S
H860 N848 0.984 . S
H861 N848 0.985 . S
C862 C863 1.363 . S
C862 C868 1.379 . S
C862 N870 1.356 . S
C863 C862 1.363 . S
C863 C869 1.363 . S
C864 C865 1.363 . S
C864 C869 1.379 . S
C864 N871 1.356 . S
C865 C864 1.363 . S
C865 C868 1.363 . S
N866 C868 1.356 . S
N866 H878 0.984 . S
N866 H879 0.985 . S
N867 C869 1.356 . S
N867 H872 0.984 . S
N867 H873 0.985 . S
C868 C862 1.379 . S
C868 C865 1.363 . S
C868 N866 1.356 . S
C869 C863 1.363 . S
C869 C864 1.379 . S
C869 N867 1.356 . S
N870 C862 1.356 . S
N870 H876 0.984 . S
N870 H877 0.984 . S
N871 C864 1.356 . S
N871 H874 0.984 . S
N871 H875 0.985 . S
H872 N867 0.984 . S
H873 N867 0.985 . S
H874 N871 0.984 . S
H875 N871 0.985 . S
H876 N870 0.984 . S
H877 N870 0.984 . S
H878 N866 0.984 . S
H879 N866 0.985 . S
C880 C881 1.363 . S
C880 C886 1.379 . S
C880 N888 1.356 . S
C881 C880 1.363 . S
C881 C887 1.363 . S
C882 C883 1.363 . S
C882 C887 1.379 . S
C882 N889 1.356 . S
C883 C882 1.363 . S
C883 C886 1.363 . S
N884 C886 1.356 . S
N884 H896 0.984 . S
N884 H897 0.985 . S
N885 C887 1.356 . S
N885 H890 0.984 . S
N885 H891 0.985 . S
C886 C880 1.379 . S
C886 C883 1.363 . S
C886 N884 1.356 . S
C887 C881 1.363 . S
C887 C882 1.379 . S
C887 N885 1.356 . S
N888 C880 1.356 . S
N888 H894 0.984 . S
N888 H895 0.984 . S
N889 C882 1.356 . S
N889 H892 0.984 . S
N889 H893 0.985 . S
H890 N885 0.984 . S
H891 N885 0.985 . S
H892 N889 0.984 . S
H893 N889 0.985 . S
H894 N888 0.984 . S
H895 N888 0.984 . S
H896 N884 0.984 . S
H897 N884 0.985 . S
C898 C899 1.363 . S
C898 C904 1.379 . S
C898 N906 1.356 . S
C899 C898 1.363 . S
C899 C905 1.363 . S
C900 C901 1.363 . S
C900 C905 1.379 . S
C900 N907 1.356 . S
C901 C900 1.363 . S
C901 C904 1.363 . S
N902 C904 1.356 . S
N902 H914 0.984 . S
N902 H915 0.985 . S
N903 C905 1.356 . S
N903 H908 0.984 . S
N903 H909 0.985 . S
C904 C898 1.379 . S
C904 C901 1.363 . S
C904 N902 1.356 . S
C905 C899 1.363 . S
C905 C900 1.379 . S
C905 N903 1.356 . S
N906 C898 1.356 . S
N906 H912 0.984 . S
N906 H913 0.984 . S
N907 C900 1.356 . S
N907 H910 0.984 . S
N907 H911 0.985 . S
H908 N903 0.984 . S
H909 N903 0.985 . S
H910 N907 0.984 . S
H911 N907 0.985 . S
H912 N906 0.984 . S
H913 N906 0.984 . S
H914 N902 0.984 . S
H915 N902 0.985 . S
C916 C917 1.363 . S
C916 C922 1.379 . S
C916 N924 1.356 . S
C917 C916 1.363 . S
C917 C923 1.363 . S
C918 C919 1.363 . S
C918 C923 1.379 . S
C918 N925 1.356 . S
C919 C918 1.363 . S
C919 C922 1.363 . S
N920 C922 1.356 . S
N920 H932 0.984 . S
N920 H933 0.985 . S
N921 C923 1.356 . S
N921 H926 0.984 . S
N921 H927 0.985 . S
C922 C916 1.379 . S
C922 C919 1.363 . S
C922 N920 1.356 . S
C923 C917 1.363 . S
C923 C918 1.379 . S
C923 N921 1.356 . S
N924 C916 1.356 . S
N924 H930 0.984 . S
N924 H931 0.984 . S
N925 C918 1.356 . S
N925 H928 0.984 1_556 S
N925 H929 0.985 . S
H926 N921 0.984 . S
H927 N921 0.985 . S
H928 N925 0.984 1_554 S
H929 N925 0.985 . S
H930 N924 0.984 . S
H931 N924 0.984 . S
H932 N920 0.984 . S
H933 N920 0.985 . S
C934 C935 1.363 . S
C934 C940 1.379 . S
C934 N942 1.356 . S
C935 C934 1.363 . S
C935 C941 1.363 . S
C936 C937 1.363 . S
C936 C941 1.379 . S
C936 N943 1.356 . S
C937 C936 1.363 . S
C937 C940 1.363 . S
N938 C940 1.356 . S
N938 H950 0.984 . S
N938 H951 0.985 1_554 S
N939 C941 1.356 . S
N939 H944 0.984 . S
N939 H945 0.985 . S
C940 C934 1.379 . S
C940 C937 1.363 . S
C940 N938 1.356 . S
C941 C935 1.363 . S
C941 C936 1.379 . S
C941 N939 1.356 . S
N942 C934 1.356 . S
N942 H948 0.984 . S
N942 H949 0.984 . S
N943 C936 1.356 . S
N943 H946 0.984 . S
N943 H947 0.985 . S
H944 N939 0.984 . S
H945 N939 0.985 . S
H946 N943 0.984 . S
H947 N943 0.985 . S
H948 N942 0.984 . S
H949 N942 0.984 . S
H950 N938 0.984 . S
H951 N938 0.985 1_556 S
C952 C953 1.363 . S
C952 C958 1.379 . S
C952 N960 1.356 . S
C953 C952 1.363 . S
C953 C959 1.363 . S
C954 C955 1.363 . S
C954 C959 1.379 . S
C954 N961 1.356 . S
C955 C954 1.363 . S
C955 C958 1.363 . S
N956 C958 1.356 . S
N956 H968 0.984 . S
N956 H969 0.985 . S
N957 C959 1.356 . S
N957 H962 0.984 . S
N957 H963 0.985 . S
C958 C952 1.379 . S
C958 C955 1.363 . S
C958 N956 1.356 . S
C959 C953 1.363 . S
C959 C954 1.379 . S
C959 N957 1.356 . S
N960 C952 1.356 . S
N960 H966 0.984 . S
N960 H967 0.984 . S
N961 C954 1.356 . S
N961 H964 0.984 . S
N961 H965 0.985 . S
H962 N957 0.984 . S
H963 N957 0.985 . S
H964 N961 0.984 . S
H965 N961 0.985 . S
H966 N960 0.984 . S
H967 N960 0.984 . S
H968 N956 0.984 . S
H969 N956 0.985 . S
C970 C971 1.363 . S
C970 C976 1.379 . S
C970 N978 1.356 . S
C971 C970 1.363 . S
C971 C977 1.363 . S
C972 C973 1.363 . S
C972 C977 1.379 . S
C972 N979 1.356 . S
C973 C972 1.363 . S
C973 C976 1.363 . S
N974 C976 1.356 . S
N974 H986 0.984 . S
N974 H987 0.985 . S
N975 C977 1.356 . S
N975 H980 0.984 . S
N975 H981 0.985 . S
C976 C970 1.379 . S
C976 C973 1.363 . S
C976 N974 1.356 . S
C977 C971 1.363 . S
C977 C972 1.379 . S
C977 N975 1.356 . S
N978 C970 1.356 . S
N978 H984 0.984 . S
N978 H985 0.984 . S
N979 C972 1.356 . S
N979 H982 0.984 . S
N979 H983 0.985 . S
H980 N975 0.984 . S
H981 N975 0.985 . S
H982 N979 0.984 . S
H983 N979 0.985 . S
H984 N978 0.984 . S
H985 N978 0.984 . S
H986 N974 0.984 . S
H987 N974 0.985 . S
C988 C989 1.363 . S
C988 C994 1.379 . S
C988 N996 1.356 . S
C989 C988 1.363 . S
C989 C995 1.363 . S
C990 C991 1.363 . S
C990 C995 1.379 . S
C990 N997 1.356 . S
C991 C990 1.363 . S
C991 C994 1.363 . S
N992 C994 1.356 . S
N992 H1004 0.984 . S
N992 H1005 0.985 . S
N993 C995 1.356 1_556 S
N993 H998 0.984 . S
N993 H999 0.985 . S
C994 C988 1.379 . S
C994 C991 1.363 . S
C994 N992 1.356 . S
C995 C989 1.363 . S
C995 C990 1.379 . S
C995 N993 1.356 1_554 S
N996 C988 1.356 . S
N996 H1002 0.984 . S
N996 H1003 0.984 . S
N997 C990 1.356 . S
N997 H1000 0.984 . S
N997 H1001 0.985 . S
H998 N993 0.984 . S
H999 N993 0.985 . S
H1000 N997 0.984 . S
H1001 N997 0.985 . S
H1002 N996 0.984 . S
H1003 N996 0.984 . S
H1004 N992 0.984 . S
H1005 N992 0.985 . S
C1006 C1007 1.363 . S
C1006 C1012 1.379 . S
C1006 N1014 1.356 . S
C1007 C1006 1.363 . S
C1007 C1013 1.363 . S
C1008 C1009 1.363 . S
C1008 C1013 1.379 . S
C1008 N1015 1.356 . S
C1009 C1008 1.363 . S
C1009 C1012 1.363 . S
N1010 C1012 1.356 . S
N1010 H1022 0.984 . S
N1010 H1023 0.985 . S
N1011 C1013 1.356 . S
N1011 H1016 0.984 . S
N1011 H1017 0.985 . S
C1012 C1006 1.379 . S
C1012 C1009 1.363 . S
C1012 N1010 1.356 . S
C1013 C1007 1.363 . S
C1013 C1008 1.379 . S
C1013 N1011 1.356 . S
N1014 C1006 1.356 . S
N1014 H1020 0.984 . S
N1014 H1021 0.984 . S
N1015 C1008 1.356 . S
N1015 H1018 0.984 1_556 S
N1015 H1019 0.985 . S
H1016 N1011 0.984 . S
H1017 N1011 0.985 . S
H1018 N1015 0.984 1_554 S
H1019 N1015 0.985 . S
H1020 N1014 0.984 . S
H1021 N1014 0.984 . S
H1022 N1010 0.984 . S
H1023 N1010 0.985 . S
C1024 C1025 1.363 . S
C1024 C1030 1.379 . S
C1024 N1032 1.356 . S
C1025 C1024 1.363 . S
C1025 C1031 1.363 . S
C1026 C1027 1.363 . S
C1026 C1031 1.379 . S
C1026 N1033 1.356 . S
C1027 C1026 1.363 . S
C1027 C1030 1.363 . S
N1028 C1030 1.356 . S
N1028 H1040 0.984 . S
N1028 H1041 0.985 . S
N1029 C1031 1.356 . S
N1029 H1034 0.984 . S
N1029 H1035 0.985 1_554 S
C1030 C1024 1.379 . S
C1030 C1027 1.363 . S
C1030 N1028 1.356 . S
C1031 C1025 1.363 . S
C1031 C1026 1.379 . S
C1031 N1029 1.356 . S
N1032 C1024 1.356 . S
N1032 H1038 0.984 . S
N1032 H1039 0.984 . S
N1033 C1026 1.356 . S
N1033 H1036 0.984 . S
N1033 H1037 0.985 1_554 S
H1034 N1029 0.984 . S
H1035 N1029 0.985 1_556 S
H1036 N1033 0.984 . S
H1037 N1033 0.985 1_556 S
H1038 N1032 0.984 . S
H1039 N1032 0.984 . S
H1040 N1028 0.984 . S
H1041 N1028 0.985 . S
C1042 C1043 1.363 . S
C1042 C1048 1.379 1_655 S
C1042 N1050 1.356 . S
C1043 C1042 1.363 . S
C1043 C1049 1.363 . S
C1044 C1045 1.363 . S
C1044 C1049 1.379 1_455 S
C1044 N1051 1.356 . S
C1045 C1044 1.363 . S
C1045 C1048 1.363 . S
N1046 C1048 1.356 . S
N1046 H1058 0.984 . S
N1046 H1059 0.985 . S
N1047 C1049 1.356 . S
N1047 H1052 0.984 . S
N1047 H1053 0.985 . S
C1048 C1042 1.379 1_455 S
C1048 C1045 1.363 . S
C1048 N1046 1.356 . S
C1049 C1043 1.363 . S
C1049 C1044 1.379 1_655 S
C1049 N1047 1.356 . S
N1050 C1042 1.356 . S
N1050 H1056 0.984 . S
N1050 H1057 0.984 . S
N1051 C1044 1.356 . S
N1051 H1054 0.984 . S
N1051 H1055 0.985 . S
H1052 N1047 0.984 . S
H1053 N1047 0.985 . S
H1054 N1051 0.984 . S
H1055 N1051 0.985 . S
H1056 N1050 0.984 . S
H1057 N1050 0.984 . S
H1058 N1046 0.984 . S
H1059 N1046 0.985 . S
C1060 C1061 1.363 . S
C1060 C1066 1.379 . S
C1060 N1068 1.356 . S
C1061 C1060 1.363 . S
C1061 C1067 1.363 . S
C1062 C1063 1.363 . S
C1062 C1067 1.379 . S
C1062 N1069 1.356 . S
C1063 C1062 1.363 . S
C1063 C1066 1.363 . S
N1064 C1066 1.356 . S
N1064 H1076 0.984 . S
N1064 H1077 0.985 . S
N1065 C1067 1.356 . S
N1065 H1070 0.984 . S
N1065 H1071 0.985 . S
C1066 C1060 1.379 . S
C1066 C1063 1.363 . S
C1066 N1064 1.356 . S
C1067 C1061 1.363 . S
C1067 C1062 1.379 . S
C1067 N1065 1.356 . S
N1068 C1060 1.356 . S
N1068 H1074 0.984 . S
N1068 H1075 0.984 . S
N1069 C1062 1.356 . S
N1069 H1072 0.984 . S
N1069 H1073 0.985 . S
H1070 N1065 0.984 . S
H1071 N1065 0.985 . S
H1072 N1069 0.984 . S
H1073 N1069 0.985 . S
H1074 N1068 0.984 . S
H1075 N1068 0.984 . S
H1076 N1064 0.984 . S
H1077 N1064 0.985 . S
C1078 C1079 1.363 . S
C1078 C1084 1.379 . S
C1078 N1086 1.356 . S
C1079 C1078 1.363 . S
C1079 C1085 1.363 . S
C1080 C1081 1.363 . S
C1080 C1085 1.379 . S
C1080 N1087 1.356 . S
C1081 C1080 1.363 . S
C1081 C1084 1.363 . S
N1082 C1084 1.356 . S
N1082 H1094 0.984 . S
N1082 H1095 0.985 . S
N1083 C1085 1.356 . S
N1083 H1088 0.984 . S
N1083 H1089 0.985 . S
C1084 C1078 1.379 . S
C1084 C1081 1.363 . S
C1084 N1082 1.356 . S
C1085 C1079 1.363 . S
C1085 C1080 1.379 . S
C1085 N1083 1.356 . S
N1086 C1078 1.356 . S
N1086 H1092 0.984 . S
N1086 H1093 0.984 . S
N1087 C1080 1.356 . S
N1087 H1090 0.984 . S
N1087 H1091 0.985 . S
H1088 N1083 0.984 . S
H1089 N1083 0.985 . S
H1090 N1087 0.984 . S
H1091 N1087 0.985 . S
H1092 N1086 0.984 . S
H1093 N1086 0.984 . S
H1094 N1082 0.984 . S
H1095 N1082 0.985 . S
C1096 C1097 1.363 . S
C1096 C1102 1.379 . S
C1096 N1104 1.356 . S
C1097 C1096 1.363 . S
C1097 C1103 1.363 . S
C1098 C1099 1.363 . S
C1098 C1103 1.379 . S
C1098 N1105 1.356 . S
C1099 C1098 1.363 . S
C1099 C1102 1.363 . S
N1100 C1102 1.356 . S
N1100 H1112 0.984 . S
N1100 H1113 0.985 . S
N1101 C1103 1.356 . S
N1101 H1106 0.984 . S
N1101 H1107 0.985 1_556 S
C1102 C1096 1.379 . S
C1102 C1099 1.363 . S
C1102 N1100 1.356 . S
C1103 C1097 1.363 . S
C1103 C1098 1.379 . S
C1103 N1101 1.356 . S
N1104 C1096 1.356 . S
N1104 H1110 0.984 . S
N1104 H1111 0.984 . S
N1105 C1098 1.356 . S
N1105 H1108 0.984 . S
N1105 H1109 0.985 1_556 S
H1106 N1101 0.984 . S
H1107 N1101 0.985 1_554 S
H1108 N1105 0.984 . S
H1109 N1105 0.985 1_554 S
H1110 N1104 0.984 . S
H1111 N1104 0.984 . S
H1112 N1100 0.984 . S
H1113 N1100 0.985 . S
C1114 C1115 1.363 . S
C1114 C1120 1.379 . S
C1114 N1122 1.356 . S
C1115 C1114 1.363 . S
C1115 C1121 1.363 . S
C1116 C1117 1.363 . S
C1116 C1121 1.379 . S
C1116 N1123 1.356 . S
C1117 C1116 1.363 . S
C1117 C1120 1.363 . S
N1118 C1120 1.356 . S
N1118 H1130 0.984 . S
N1118 H1131 0.985 . S
N1119 C1121 1.356 . S
N1119 H1124 0.984 . S
N1119 H1125 0.985 . S
C1120 C1114 1.379 . S
C1120 C1117 1.363 . S
C1120 N1118 1.356 . S
C1121 C1115 1.363 . S
C1121 C1116 1.379 . S
C1121 N1119 1.356 . S
N1122 C1114 1.356 . S
N1122 H1128 0.984 . S
N1122 H1129 0.984 . S
N1123 C1116 1.356 . S
N1123 H1126 0.984 . S
N1123 H1127 0.985 . S
H1124 N1119 0.984 . S
H1125 N1119 0.985 . S
H1126 N1123 0.984 . S
H1127 N1123 0.985 . S
H1128 N1122 0.984 . S
H1129 N1122 0.984 . S
H1130 N1118 0.984 . S
H1131 N1118 0.985 . S
C1132 C1133 1.363 . S
C1132 C1138 1.379 . S
C1132 N1140 1.356 . S
C1133 C1132 1.363 . S
C1133 C1139 1.363 . S
C1134 C1135 1.363 . S
C1134 C1139 1.379 . S
C1134 N1141 1.356 . S
C1135 C1134 1.363 . S
C1135 C1138 1.363 . S
N1136 C1138 1.356 . S
N1136 H1148 0.984 . S
N1136 H1149 0.985 . S
N1137 C1139 1.356 . S
N1137 H1142 0.984 . S
N1137 H1143 0.985 . S
C1138 C1132 1.379 . S
C1138 C1135 1.363 . S
C1138 N1136 1.356 . S
C1139 C1133 1.363 . S
C1139 C1134 1.379 . S
C1139 N1137 1.356 . S
N1140 C1132 1.356 . S
N1140 H1146 0.984 . S
N1140 H1147 0.984 . S
N1141 C1134 1.356 . S
N1141 H1144 0.984 . S
N1141 H1145 0.985 . S
H1142 N1137 0.984 . S
H1143 N1137 0.985 . S
H1144 N1141 0.984 . S
H1145 N1141 0.985 . S
H1146 N1140 0.984 . S
H1147 N1140 0.984 . S
H1148 N1136 0.984 . S
H1149 N1136 0.985 . S
C1150 C1151 1.363 . S
C1150 C1156 1.379 1_655 S
C1150 N1158 1.356 . S
C1151 C1150 1.363 . S
C1151 C1157 1.363 . S
C1152 C1153 1.363 . S
C1152 C1157 1.379 1_455 S
C1152 N1159 1.356 . S
C1153 C1152 1.363 . S
C1153 C1156 1.363 . S
N1154 C1156 1.356 . S
N1154 H1166 0.984 . S
N1154 H1167 0.985 . S
N1155 C1157 1.356 . S
N1155 H1160 0.984 . S
N1155 H1161 0.985 . S
C1156 C1150 1.379 1_455 S
C1156 C1153 1.363 . S
C1156 N1154 1.356 . S
C1157 C1151 1.363 . S
C1157 C1152 1.379 1_655 S
C1157 N1155 1.356 . S
N1158 C1150 1.356 . S
N1158 H1164 0.984 . S
N1158 H1165 0.984 . S
N1159 C1152 1.356 . S
N1159 H1162 0.984 . S
N1159 H1163 0.985 . S
H1160 N1155 0.984 . S
H1161 N1155 0.985 . S
H1162 N1159 0.984 . S
H1163 N1159 0.985 . S
H1164 N1158 0.984 . S
H1165 N1158 0.984 . S
H1166 N1154 0.984 . S
H1167 N1154 0.985 . S
C1168 C1169 1.363 . S
C1168 C1174 1.379 . S
C1168 N1176 1.356 . S
C1169 C1168 1.363 . S
C1169 C1175 1.363 . S
C1170 C1171 1.363 . S
C1170 C1175 1.379 . S
C1170 N1177 1.356 . S
C1171 C1170 1.363 . S
C1171 C1174 1.363 . S
N1172 C1174 1.356 . S
N1172 H1184 0.984 . S
N1172 H1185 0.985 . S
N1173 C1175 1.356 . S
N1173 H1178 0.984 . S
N1173 H1179 0.985 1_556 S
C1174 C1168 1.379 . S
C1174 C1171 1.363 . S
C1174 N1172 1.356 . S
C1175 C1169 1.363 . S
C1175 C1170 1.379 . S
C1175 N1173 1.356 . S
N1176 C1168 1.356 . S
N1176 H1182 0.984 . S
N1176 H1183 0.984 . S
N1177 C1170 1.356 . S
N1177 H1180 0.984 . S
N1177 H1181 0.985 1_556 S
H1178 N1173 0.984 . S
H1179 N1173 0.985 1_554 S
H1180 N1177 0.984 . S
H1181 N1177 0.985 1_554 S
H1182 N1176 0.984 . S
H1183 N1176 0.984 . S
H1184 N1172 0.984 . S
H1185 N1172 0.985 . S
C1186 C1187 1.363 . S
C1186 C1192 1.379 . S
C1186 N1194 1.356 . S
C1187 C1186 1.363 . S
C1187 C1193 1.363 . S
C1188 C1189 1.363 . S
C1188 C1193 1.379 . S
C1188 N1195 1.356 . S
C1189 C1188 1.363 . S
C1189 C1192 1.363 . S
N1190 C1192 1.356 . S
N1190 H1202 0.984 . S
N1190 H1203 0.985 . S
N1191 C1193 1.356 . S
N1191 H1196 0.984 . S
N1191 H1197 0.985 . S
C1192 C1186 1.379 . S
C1192 C1189 1.363 . S
C1192 N1190 1.356 . S
C1193 C1187 1.363 . S
C1193 C1188 1.379 . S
C1193 N1191 1.356 . S
N1194 C1186 1.356 . S
N1194 H1200 0.984 . S
N1194 H1201 0.984 . S
N1195 C1188 1.356 . S
N1195 H1198 0.984 . S
N1195 H1199 0.985 . S
H1196 N1191 0.984 . S
H1197 N1191 0.985 . S
H1198 N1195 0.984 . S
H1199 N1195 0.985 . S
H1200 N1194 0.984 . S
H1201 N1194 0.984 . S
H1202 N1190 0.984 . S
H1203 N1190 0.985 . S
C1204 C1205 1.363 . S
C1204 C1210 1.379 . S
C1204 N1212 1.356 . S
C1205 C1204 1.363 . S
C1205 C1211 1.363 . S
C1206 C1207 1.363 . S
C1206 C1211 1.379 . S
C1206 N1213 1.356 . S
C1207 C1206 1.363 . S
C1207 C1210 1.363 . S
N1208 C1210 1.356 . S
N1208 H1220 0.984 . S
N1208 H1221 0.985 . S
N1209 C1211 1.356 . S
N1209 H1214 0.984 . S
N1209 H1215 0.985 1_554 S
C1210 C1204 1.379 . S
C1210 C1207 1.363 . S
C1210 N1208 1.356 . S
C1211 C1205 1.363 . S
C1211 C1206 1.379 . S
C1211 N1209 1.356 . S
N1212 C1204 1.356 . S
N1212 H1218 0.984 . S
N1212 H1219 0.984 . S
N1213 C1206 1.356 . S
N1213 H1216 0.984 . S
N1213 H1217 0.985 1_554 S
H1214 N1209 0.984 . S
H1215 N1209 0.985 1_556 S
H1216 N1213 0.984 . S
H1217 N1213 0.985 1_556 S
H1218 N1212 0.984 . S
H1219 N1212 0.984 . S
H1220 N1208 0.984 . S
H1221 N1208 0.985 . S
C1222 C1223 1.363 . S
C1222 C1228 1.379 . S
C1222 N1230 1.356 . S
C1223 C1222 1.363 . S
C1223 C1229 1.363 . S
C1224 C1225 1.363 . S
C1224 C1229 1.379 . S
C1224 N1231 1.356 . S
C1225 C1224 1.363 . S
C1225 C1228 1.363 . S
N1226 C1228 1.356 . S
N1226 H1238 0.984 . S
N1226 H1239 0.985 . S
N1227 C1229 1.356 . S
N1227 H1232 0.984 . S
N1227 H1233 0.985 . S
C1228 C1222 1.379 . S
C1228 C1225 1.363 . S
C1228 N1226 1.356 . S
C1229 C1223 1.363 . S
C1229 C1224 1.379 . S
C1229 N1227 1.356 . S
N1230 C1222 1.356 . S
N1230 H1236 0.984 . S
N1230 H1237 0.984 . S
N1231 C1224 1.356 . S
N1231 H1234 0.984 . S
N1231 H1235 0.985 . S
H1232 N1227 0.984 . S
H1233 N1227 0.985 . S
H1234 N1231 0.984 . S
H1235 N1231 0.985 . S
H1236 N1230 0.984 . S
H1237 N1230 0.984 . S
H1238 N1226 0.984 . S
H1239 N1226 0.985 . S
C1240 C1241 1.363 . S
C1240 C1246 1.379 . S
C1240 N1248 1.356 . S
C1241 C1240 1.363 . S
C1241 C1247 1.363 . S
C1242 C1243 1.363 . S
C1242 C1247 1.379 . S
C1242 N1249 1.356 . S
C1243 C1242 1.363 . S
C1243 C1246 1.363 . S
N1244 C1246 1.356 . S
N1244 H1256 0.984 . S
N1244 H1257 0.985 . S
N1245 C1247 1.356 . S
N1245 H1250 0.984 . S
N1245 H1251 0.985 . S
C1246 C1240 1.379 . S
C1246 C1243 1.363 . S
C1246 N1244 1.356 . S
C1247 C1241 1.363 . S
C1247 C1242 1.379 . S
C1247 N1245 1.356 . S
N1248 C1240 1.356 . S
N1248 H1254 0.984 . S
N1248 H1255 0.984 . S
N1249 C1242 1.356 . S
N1249 H1252 0.984 . S
N1249 H1253 0.985 . S
H1250 N1245 0.984 . S
H1251 N1245 0.985 . S
H1252 N1249 0.984 . S
H1253 N1249 0.985 . S
H1254 N1248 0.984 . S
H1255 N1248 0.984 . S
H1256 N1244 0.984 . S
H1257 N1244 0.985 . S
C1258 C1259 1.363 . S
C1258 C1264 1.379 1_655 S
C1258 N1266 1.356 . S
C1259 C1258 1.363 . S
C1259 C1265 1.363 . S
C1260 C1261 1.363 . S
C1260 C1265 1.379 1_455 S
C1260 N1267 1.356 . S
C1261 C1260 1.363 . S
C1261 C1264 1.363 . S
N1262 C1264 1.356 . S
N1262 H1274 0.984 . S
N1262 H1275 0.985 . S
N1263 C1265 1.356 . S
N1263 H1268 0.984 . S
N1263 H1269 0.985 . S
C1264 C1258 1.379 1_455 S
C1264 C1261 1.363 . S
C1264 N1262 1.356 . S
C1265 C1259 1.363 . S
C1265 C1260 1.379 1_655 S
C1265 N1263 1.356 . S
N1266 C1258 1.356 . S
N1266 H1272 0.984 . S
N1266 H1273 0.984 . S
N1267 C1260 1.356 . S
N1267 H1270 0.984 . S
N1267 H1271 0.985 . S
H1268 N1263 0.984 . S
H1269 N1263 0.985 . S
H1270 N1267 0.984 . S
H1271 N1267 0.985 . S
H1272 N1266 0.984 . S
H1273 N1266 0.984 . S
H1274 N1262 0.984 . S
H1275 N1262 0.985 . S
C1276 C1277 1.363 . S
C1276 C1282 1.379 1_655 S
C1276 N1284 1.356 . S
C1277 C1276 1.363 . S
C1277 C1283 1.363 . S
C1278 C1279 1.363 . S
C1278 C1283 1.379 1_455 S
C1278 N1285 1.356 . S
C1279 C1278 1.363 . S
C1279 C1282 1.363 . S
N1280 C1282 1.356 . S
N1280 H1292 0.984 . S
N1280 H1293 0.985 . S
N1281 C1283 1.356 . S
N1281 H1286 0.984 . S
N1281 H1287 0.985 . S
C1282 C1276 1.379 1_455 S
C1282 C1279 1.363 . S
C1282 N1280 1.356 . S
C1283 C1277 1.363 . S
C1283 C1278 1.379 1_655 S
C1283 N1281 1.356 . S
N1284 C1276 1.356 . S
N1284 H1290 0.984 . S
N1284 H1291 0.984 . S
N1285 C1278 1.356 . S
N1285 H1288 0.984 . S
N1285 H1289 0.985 . S
H1286 N1281 0.984 . S
H1287 N1281 0.985 . S
H1288 N1285 0.984 . S
H1289 N1285 0.985 . S
H1290 N1284 0.984 . S
H1291 N1284 0.984 . S
H1292 N1280 0.984 . S
H1293 N1280 0.985 . S
C1294 C1295 1.363 . S
C1294 C1300 1.379 . S
C1294 N1302 1.356 . S
C1295 C1294 1.363 . S
C1295 C1301 1.363 . S
C1296 C1297 1.363 . S
C1296 C1301 1.379 . S
C1296 N1303 1.356 . S
C1297 C1296 1.363 . S
C1297 C1300 1.363 . S
N1298 C1300 1.356 . S
N1298 H1310 0.984 . S
N1298 H1311 0.985 . S
N1299 C1301 1.356 . S
N1299 H1304 0.984 . S
N1299 H1305 0.985 . S
C1300 C1294 1.379 . S
C1300 C1297 1.363 . S
C1300 N1298 1.356 . S
C1301 C1295 1.363 . S
C1301 C1296 1.379 . S
C1301 N1299 1.356 . S
N1302 C1294 1.356 . S
N1302 H1308 0.984 . S
N1302 H1309 0.984 . S
N1303 C1296 1.356 . S
N1303 H1306 0.984 . S
N1303 H1307 0.985 . S
H1304 N1299 0.984 . S
H1305 N1299 0.985 . S
H1306 N1303 0.984 . S
H1307 N1303 0.985 . S
H1308 N1302 0.984 . S
H1309 N1302 0.984 . S
H1310 N1298 0.984 . S
H1311 N1298 0.985 . S
C1312 C1313 1.363 . S
C1312 C1318 1.379 . S
C1312 N1320 1.356 . S
C1313 C1312 1.363 . S
C1313 C1319 1.363 . S
C1314 C1315 1.363 . S
C1314 C1319 1.379 . S
C1314 N1321 1.356 . S
C1315 C1314 1.363 . S
C1315 C1318 1.363 . S
N1316 C1318 1.356 . S
N1316 H1328 0.984 . S
N1316 H1329 0.985 . S
N1317 C1319 1.356 . S
N1317 H1322 0.984 . S
N1317 H1323 0.985 . S
C1318 C1312 1.379 . S
C1318 C1315 1.363 . S
C1318 N1316 1.356 . S
C1319 C1313 1.363 . S
C1319 C1314 1.379 . S
C1319 N1317 1.356 . S
N1320 C1312 1.356 . S
N1320 H1326 0.984 . S
N1320 H1327 0.984 . S
N1321 C1314 1.356 . S
N1321 H1324 0.984 . S
N1321 H1325 0.985 . S
H1322 N1317 0.984 . S
H1323 N1317 0.985 . S
H1324 N1321 0.984 . S
H1325 N1321 0.985 . S
H1326 N1320 0.984 . S
H1327 N1320 0.984 . S
H1328 N1316 0.984 . S
H1329 N1316 0.985 . S
C1330 C1331 1.363 . S
C1330 C1336 1.379 . S
C1330 N1338 1.356 . S
C1331 C1330 1.363 . S
C1331 C1337 1.363 . S
C1332 C1333 1.363 . S
C1332 C1337 1.379 . S
C1332 N1339 1.356 . S
C1333 C1332 1.363 . S
C1333 C1336 1.363 . S
N1334 C1336 1.356 . S
N1334 H1346 0.984 . S
N1334 H1347 0.985 . S
N1335 C1337 1.356 . S
N1335 H1340 0.984 . S
N1335 H1341 0.985 . S
C1336 C1330 1.379 . S
C1336 C1333 1.363 . S
C1336 N1334 1.356 . S
C1337 C1331 1.363 . S
C1337 C1332 1.379 . S
C1337 N1335 1.356 . S
N1338 C1330 1.356 . S
N1338 H1344 0.984 . S
N1338 H1345 0.984 . S
N1339 C1332 1.356 . S
N1339 H1342 0.984 . S
N1339 H1343 0.985 . S
H1340 N1335 0.984 . S
H1341 N1335 0.985 . S
H1342 N1339 0.984 . S
H1343 N1339 0.985 . S
H1344 N1338 0.984 . S
H1345 N1338 0.984 . S
H1346 N1334 0.984 . S
H1347 N1334 0.985 . S
C1348 C1349 1.363 . S
C1348 C1354 1.379 . S
C1348 N1356 1.356 . S
C1349 C1348 1.363 . S
C1349 C1355 1.363 . S
C1350 C1351 1.363 . S
C1350 C1355 1.379 . S
C1350 N1357 1.356 . S
C1351 C1350 1.363 . S
C1351 C1354 1.363 . S
N1352 C1354 1.356 . S
N1352 H1364 0.984 . S
N1352 H1365 0.985 . S
N1353 C1355 1.356 . S
N1353 H1358 0.984 . S
N1353 H1359 0.985 . S
C1354 C1348 1.379 . S
C1354 C1351 1.363 . S
C1354 N1352 1.356 . S
C1355 C1349 1.363 . S
C1355 C1350 1.379 . S
C1355 N1353 1.356 . S
N1356 C1348 1.356 . S
N1356 H1362 0.984 . S
N1356 H1363 0.984 . S
N1357 C1350 1.356 . S
N1357 H1360 0.984 . S
N1357 H1361 0.985 . S
H1358 N1353 0.984 . S
H1359 N1353 0.985 . S
H1360 N1357 0.984 . S
H1361 N1357 0.985 . S
H1362 N1356 0.984 . S
H1363 N1356 0.984 . S
H1364 N1352 0.984 . S
H1365 N1352 0.985 . S
C1366 C1367 1.363 . S
C1366 C1372 1.379 . S
C1366 N1374 1.356 . S
C1367 C1366 1.363 . S
C1367 C1373 1.363 . S
C1368 C1369 1.363 . S
C1368 C1373 1.379 . S
C1368 N1375 1.356 . S
C1369 C1368 1.363 . S
C1369 C1372 1.363 . S
N1370 C1372 1.356 . S
N1370 H1382 0.984 . S
N1370 H1383 0.985 . S
N1371 C1373 1.356 . S
N1371 H1376 0.984 1_554 S
N1371 H1377 0.985 . S
C1372 C1366 1.379 . S
C1372 C1369 1.363 . S
C1372 N1370 1.356 . S
C1373 C1367 1.363 . S
C1373 C1368 1.379 . S
C1373 N1371 1.356 . S
N1374 C1366 1.356 . S
N1374 H1380 0.984 . S
N1374 H1381 0.984 . S
N1375 C1368 1.356 . S
N1375 H1378 0.984 . S
N1375 H1379 0.985 . S
H1376 N1371 0.984 1_556 S
H1377 N1371 0.985 . S
H1378 N1375 0.984 . S
H1379 N1375 0.985 . S
H1380 N1374 0.984 . S
H1381 N1374 0.984 . S
H1382 N1370 0.984 . S
H1383 N1370 0.985 . S
C1384 C1385 1.363 . S
C1384 C1390 1.379 . S
C1384 N1392 1.356 . S
C1385 C1384 1.363 . S
C1385 C1391 1.363 . S
C1386 C1387 1.363 . S
C1386 C1391 1.379 . S
C1386 N1393 1.356 . S
C1387 C1386 1.363 . S
C1387 C1390 1.363 . S
N1388 C1390 1.356 . S
N1388 H1400 0.984 . S
N1388 H1401 0.985 . S
N1389 C1391 1.356 . S
N1389 H1394 0.984 . S
N1389 H1395 0.985 . S
C1390 C1384 1.379 . S
C1390 C1387 1.363 . S
C1390 N1388 1.356 . S
C1391 C1385 1.363 . S
C1391 C1386 1.379 . S
C1391 N1389 1.356 . S
N1392 C1384 1.356 . S
N1392 H1398 0.984 . S
N1392 H1399 0.984 . S
N1393 C1386 1.356 . S
N1393 H1396 0.984 . S
N1393 H1397 0.985 . S
H1394 N1389 0.984 . S
H1395 N1389 0.985 . S
H1396 N1393 0.984 . S
H1397 N1393 0.985 . S
H1398 N1392 0.984 . S
H1399 N1392 0.984 . S
H1400 N1388 0.984 . S
H1401 N1388 0.985 . S
C1402 C1403 1.363 . S
C1402 C1408 1.379 . S
C1402 N1410 1.356 . S
C1403 C1402 1.363 . S
C1403 C1409 1.363 . S
C1404 C1405 1.363 . S
C1404 C1409 1.379 . S
C1404 N1411 1.356 . S
C1405 C1404 1.363 . S
C1405 C1408 1.363 . S
N1406 C1408 1.356 . S
N1406 H1418 0.984 . S
N1406 H1419 0.985 . S
N1407 C1409 1.356 . S
N1407 H1412 0.984 . S
N1407 H1413 0.985 . S
C1408 C1402 1.379 . S
C1408 C1405 1.363 . S
C1408 N1406 1.356 . S
C1409 C1403 1.363 . S
C1409 C1404 1.379 . S
C1409 N1407 1.356 . S
N1410 C1402 1.356 . S
N1410 H1416 0.984 . S
N1410 H1417 0.984 . S
N1411 C1404 1.356 . S
N1411 H1414 0.984 . S
N1411 H1415 0.985 . S
H1412 N1407 0.984 . S
H1413 N1407 0.985 . S
H1414 N1411 0.984 . S
H1415 N1411 0.985 . S
H1416 N1410 0.984 . S
H1417 N1410 0.984 . S
H1418 N1406 0.984 . S
H1419 N1406 0.985 . S
C1420 C1421 1.363 . S
C1420 C1426 1.379 . S
C1420 N1428 1.356 . S
C1421 C1420 1.363 . S
C1421 C1427 1.363 . S
C1422 C1423 1.363 . S
C1422 C1427 1.379 . S
C1422 N1429 1.356 . S
C1423 C1422 1.363 . S
C1423 C1426 1.363 . S
N1424 C1426 1.356 . S
N1424 H1436 0.984 . S
N1424 H1437 0.985 . S
N1425 C1427 1.356 . S
N1425 H1430 0.984 . S
N1425 H1431 0.985 . S
C1426 C1420 1.379 . S
C1426 C1423 1.363 . S
C1426 N1424 1.356 . S
C1427 C1421 1.363 . S
C1427 C1422 1.379 . S
C1427 N1425 1.356 . S
N1428 C1420 1.356 . S
N1428 H1434 0.984 . S
N1428 H1435 0.984 . S
N1429 C1422 1.356 . S
N1429 H1432 0.984 . S
N1429 H1433 0.985 . S
H1430 N1425 0.984 . S
H1431 N1425 0.985 . S
H1432 N1429 0.984 . S
H1433 N1429 0.985 . S
H1434 N1428 0.984 . S
H1435 N1428 0.984 . S
H1436 N1424 0.984 . S
H1437 N1424 0.985 . S
C1438 C1439 1.363 . S
C1438 C1444 1.379 . S
C1438 N1446 1.356 . S
C1439 C1438 1.363 . S
C1439 C1445 1.363 . S
C1440 C1441 1.363 . S
C1440 C1445 1.379 . S
C1440 N1447 1.356 . S
C1441 C1440 1.363 . S
C1441 C1444 1.363 . S
N1442 C1444 1.356 . S
N1442 H1454 0.984 1_556 S
N1442 H1455 0.985 1_556 S
N1443 C1445 1.356 . S
N1443 H1448 0.984 . S
N1443 H1449 0.985 . S
C1444 C1438 1.379 . S
C1444 C1441 1.363 . S
C1444 N1442 1.356 . S
C1445 C1439 1.363 . S
C1445 C1440 1.379 . S
C1445 N1443 1.356 . S
N1446 C1438 1.356 . S
N1446 H1452 0.984 . S
N1446 H1453 0.984 . S
N1447 C1440 1.356 . S
N1447 H1450 0.984 . S
N1447 H1451 0.985 . S
H1448 N1443 0.984 . S
H1449 N1443 0.985 . S
H1450 N1447 0.984 . S
H1451 N1447 0.985 . S
H1452 N1446 0.984 . S
H1453 N1446 0.984 . S
H1454 N1442 0.984 1_554 S
H1455 N1442 0.985 1_554 S
C1456 C1457 1.363 . S
C1456 C1462 1.379 . S
C1456 N1464 1.356 . S
C1457 C1456 1.363 . S
C1457 C1463 1.363 . S
C1458 C1459 1.363 . S
C1458 C1463 1.379 . S
C1458 N1465 1.356 . S
C1459 C1458 1.363 . S
C1459 C1462 1.363 . S
N1460 C1462 1.356 . S
N1460 H1472 0.984 . S
N1460 H1473 0.985 . S
N1461 C1463 1.356 . S
N1461 H1466 0.984 1_556 S
N1461 H1467 0.985 . S
C1462 C1456 1.379 . S
C1462 C1459 1.363 . S
C1462 N1460 1.356 . S
C1463 C1457 1.363 . S
C1463 C1458 1.379 . S
C1463 N1461 1.356 . S
N1464 C1456 1.356 . S
N1464 H1470 0.984 . S
N1464 H1471 0.984 . S
N1465 C1458 1.356 . S
N1465 H1468 0.984 . S
N1465 H1469 0.985 . S
H1466 N1461 0.984 1_554 S
H1467 N1461 0.985 . S
H1468 N1465 0.984 . S
H1469 N1465 0.985 . S
H1470 N1464 0.984 . S
H1471 N1464 0.984 . S
H1472 N1460 0.984 . S
H1473 N1460 0.985 . S
C1474 C1475 1.363 . S
C1474 C1480 1.379 . S
C1474 N1482 1.356 . S
C1475 C1474 1.363 . S
C1475 C1481 1.363 . S
C1476 C1477 1.363 . S
C1476 C1481 1.379 . S
C1476 N1483 1.356 1_554 S
C1477 C1476 1.363 . S
C1477 C1480 1.363 . S
N1478 C1480 1.356 . S
N1478 H1490 0.984 . S
N1478 H1491 0.985 . S
N1479 C1481 1.356 . S
N1479 H1484 0.984 . S
N1479 H1485 0.985 . S
C1480 C1474 1.379 . S
C1480 C1477 1.363 . S
C1480 N1478 1.356 . S
C1481 C1475 1.363 . S
C1481 C1476 1.379 . S
C1481 N1479 1.356 . S
N1482 C1474 1.356 . S
N1482 H1488 0.984 . S
N1482 H1489 0.984 . S
N1483 C1476 1.356 1_556 S
N1483 H1486 0.984 . S
N1483 H1487 0.985 . S
H1484 N1479 0.984 . S
H1485 N1479 0.985 . S
H1486 N1483 0.984 . S
H1487 N1483 0.985 . S
H1488 N1482 0.984 . S
H1489 N1482 0.984 . S
H1490 N1478 0.984 . S
H1491 N1478 0.985 . S
C1492 C1493 1.363 . S
C1492 C1498 1.379 . S
C1492 N1500 1.356 . S
C1493 C1492 1.363 . S
C1493 C1499 1.363 . S
C1494 C1495 1.363 . S
C1494 C1499 1.379 . S
C1494 N1501 1.356 . S
C1495 C1494 1.363 . S
C1495 C1498 1.363 . S
N1496 C1498 1.356 . S
N1496 H1508 0.984 . S
N1496 H1509 0.985 . S
N1497 C1499 1.356 . S
N1497 H1502 0.984 . S
N1497 H1503 0.985 . S
C1498 C1492 1.379 . S
C1498 C1495 1.363 . S
C1498 N1496 1.356 . S
C1499 C1493 1.363 . S
C1499 C1494 1.379 . S
C1499 N1497 1.356 . S
N1500 C1492 1.356 . S
N1500 H1506 0.984 . S
N1500 H1507 0.984 . S
N1501 C1494 1.356 . S
N1501 H1504 0.984 . S
N1501 H1505 0.985 . S
H1502 N1497 0.984 . S
H1503 N1497 0.985 . S
H1504 N1501 0.984 . S
H1505 N1501 0.985 . S
H1506 N1500 0.984 . S
H1507 N1500 0.984 . S
H1508 N1496 0.984 . S
H1509 N1496 0.985 . S
C1510 C1511 1.363 . S
C1510 C1516 1.379 . S
C1510 N1518 1.356 . S
C1511 C1510 1.363 . S
C1511 C1517 1.363 . S
C1512 C1513 1.363 . S
C1512 C1517 1.379 . S
C1512 N1519 1.356 . S
C1513 C1512 1.363 . S
C1513 C1516 1.363 . S
N1514 C1516 1.356 . S
N1514 H1526 0.984 . S
N1514 H1527 0.985 . S
N1515 C1517 1.356 . S
N1515 H1520 0.984 . S
N1515 H1521 0.985 . S
C1516 C1510 1.379 . S
C1516 C1513 1.363 . S
C1516 N1514 1.356 . S
C1517 C1511 1.363 . S
C1517 C1512 1.379 . S
C1517 N1515 1.356 . S
N1518 C1510 1.356 . S
N1518 H1524 0.984 . S
N1518 H1525 0.984 . S
N1519 C1512 1.356 . S
N1519 H1522 0.984 . S
N1519 H1523 0.985 . S
H1520 N1515 0.984 . S
H1521 N1515 0.985 . S
H1522 N1519 0.984 . S
H1523 N1519 0.985 . S
H1524 N1518 0.984 . S
H1525 N1518 0.984 . S
H1526 N1514 0.984 . S
H1527 N1514 0.985 . S
C1528 C1529 1.363 . S
C1528 C1534 1.379 . S
C1528 N1536 1.356 . S
C1529 C1528 1.363 . S
C1529 C1535 1.363 . S
C1530 C1531 1.363 . S
C1530 C1535 1.379 . S
C1530 N1537 1.356 . S
C1531 C1530 1.363 . S
C1531 C1534 1.363 . S
N1532 C1534 1.356 . S
N1532 H1544 0.984 . S
N1532 H1545 0.985 . S
N1533 C1535 1.356 . S
N1533 H1538 0.984 . S
N1533 H1539 0.985 . S
C1534 C1528 1.379 . S
C1534 C1531 1.363 . S
C1534 N1532 1.356 . S
C1535 C1529 1.363 . S
C1535 C1530 1.379 . S
C1535 N1533 1.356 . S
N1536 C1528 1.356 . S
N1536 H1542 0.984 . S
N1536 H1543 0.984 . S
N1537 C1530 1.356 . S
N1537 H1540 0.984 1_554 S
N1537 H1541 0.985 . S
H1538 N1533 0.984 . S
H1539 N1533 0.985 . S
H1540 N1537 0.984 1_556 S
H1541 N1537 0.985 . S
H1542 N1536 0.984 . S
H1543 N1536 0.984 . S
H1544 N1532 0.984 . S
H1545 N1532 0.985 . S
C1546 C1547 1.363 . S
C1546 C1552 1.379 . S
C1546 N1554 1.356 . S
C1547 C1546 1.363 . S
C1547 C1553 1.363 . S
C1548 C1549 1.363 . S
C1548 C1553 1.379 . S
C1548 N1555 1.356 . S
C1549 C1548 1.363 . S
C1549 C1552 1.363 . S
N1550 C1552 1.356 . S
N1550 H1562 0.984 . S
N1550 H1563 0.985 . S
N1551 C1553 1.356 . S
N1551 H1556 0.984 1_556 S
N1551 H1557 0.985 . S
C1552 C1546 1.379 . S
C1552 C1549 1.363 . S
C1552 N1550 1.356 . S
C1553 C1547 1.363 . S
C1553 C1548 1.379 . S
C1553 N1551 1.356 . S
N1554 C1546 1.356 . S
N1554 H1560 0.984 . S
N1554 H1561 0.984 . S
N1555 C1548 1.356 . S
N1555 H1558 0.984 . S
N1555 H1559 0.985 . S
H1556 N1551 0.984 1_554 S
H1557 N1551 0.985 . S
H1558 N1555 0.984 . S
H1559 N1555 0.985 . S
H1560 N1554 0.984 . S
H1561 N1554 0.984 . S
H1562 N1550 0.984 . S
H1563 N1550 0.985 . S
C1564 C1565 1.363 . S
C1564 C1570 1.379 . S
C1564 N1572 1.356 . S
C1565 C1564 1.363 . S
C1565 C1571 1.363 . S
C1566 C1567 1.363 . S
C1566 C1571 1.379 . S
C1566 N1573 1.356 . S
C1567 C1566 1.363 . S
C1567 C1570 1.363 . S
N1568 C1570 1.356 . S
N1568 H1580 0.984 . S
N1568 H1581 0.985 . S
N1569 C1571 1.356 . S
N1569 H1574 0.984 . S
N1569 H1575 0.985 . S
C1570 C1564 1.379 . S
C1570 C1567 1.363 . S
C1570 N1568 1.356 . S
C1571 C1565 1.363 . S
C1571 C1566 1.379 . S
C1571 N1569 1.356 . S
N1572 C1564 1.356 . S
N1572 H1578 0.984 . S
N1572 H1579 0.984 . S
N1573 C1566 1.356 . S
N1573 H1576 0.984 . S
N1573 H1577 0.985 . S
H1574 N1569 0.984 . S
H1575 N1569 0.985 . S
H1576 N1573 0.984 . S
H1577 N1573 0.985 . S
H1578 N1572 0.984 . S
H1579 N1572 0.984 . S
H1580 N1568 0.984 . S
H1581 N1568 0.985 . S
C1582 C1583 1.363 . S
C1582 C1588 1.379 . S
C1582 N1590 1.356 . S
C1583 C1582 1.363 . S
C1583 C1589 1.363 . S
C1584 C1585 1.363 . S
C1584 C1589 1.379 . S
C1584 N1591 1.356 . S
C1585 C1584 1.363 . S
C1585 C1588 1.363 . S
N1586 C1588 1.356 . S
N1586 H1598 0.984 . S
N1586 H1599 0.985 . S
N1587 C1589 1.356 . S
N1587 H1592 0.984 . S
N1587 H1593 0.985 . S
C1588 C1582 1.379 . S
C1588 C1585 1.363 . S
C1588 N1586 1.356 . S
C1589 C1583 1.363 . S
C1589 C1584 1.379 . S
C1589 N1587 1.356 . S
N1590 C1582 1.356 . S
N1590 H1596 0.984 . S
N1590 H1597 0.984 . S
N1591 C1584 1.356 . S
N1591 H1594 0.984 . S
N1591 H1595 0.985 . S
H1592 N1587 0.984 . S
H1593 N1587 0.985 . S
H1594 N1591 0.984 . S
H1595 N1591 0.985 . S
H1596 N1590 0.984 . S
H1597 N1590 0.984 . S
H1598 N1586 0.984 . S
H1599 N1586 0.985 . S
C449 C93 1.386 . S
C451 C9 1.386 . S
C467 C23 1.386 . S
C469 C107 1.386 . S
C485 C65 1.386 . S
C487 C37 1.386 . S
C503 C51 1.386 . S
C505 C79 1.386 . S
C521 C121 1.386 . S
C523 C205 1.386 . S
C539 C219 1.386 . S
C541 C135 1.386 . S
C557 C149 1.386 . S
C559 C177 1.386 . S
C575 C191 1.386 . S
C577 C163 1.386 . S
C593 C233 1.386 . S
C595 C317 1.386 . S
C611 C247 1.386 . S
C613 C331 1.386 . S
C629 C289 1.386 . S
C631 C261 1.386 . S
C647 C303 1.386 . S
C649 C275 1.386 . S
C665 C345 1.386 . S
C667 C429 1.386 . S
C683 C359 1.386 . S
C685 C443 1.386 . S
C701 C401 1.386 . S
C703 C373 1.386 . S
C719 C387 1.386 . S
C721 C415 1.386 . S
C737 C6 1.343 . S
C739 C104 1.343 . S
C755 C62 1.343 . S
C757 C20 1.343 . S
C773 C76 1.343 . S
C775 C34 1.343 . S
C791 C48 1.343 . S
C793 C90 1.343 . S
C809 C118 1.343 . S
C811 C216 1.343 . S
C827 C174 1.343 . S
C829 C132 1.343 . S
C845 C188 1.343 . S
C847 C146 1.343 . S
C863 C202 1.343 . S
C865 C160 1.343 . S
C881 C230 1.343 . S
C883 C328 1.343 . S
C899 C244 1.343 . S
C901 C286 1.343 . S
C917 C300 1.343 . S
C919 C258 1.343 . S
C935 C272 1.343 . S
C937 C314 1.343 . S
C953 C342 1.343 . S
C955 C440 1.343 . S
C971 C398 1.343 . S
C973 C356 1.343 . S
C989 C370 1.343 . S
C991 C412 1.343 . S
C1007 C384 1.343 . S
C1009 C426 1.343 . S
C1025 C427 1.563 . S
C1027 C7 1.563 . S
C1043 C217 1.563 . S
C1045 C21 1.563 . S
C1061 C35 1.563 . S
C1063 C399 1.563 . S
C1079 C49 1.563 . S
C1081 C189 1.563 . S
C1097 C63 1.563 . S
C1099 C371 1.563 . S
C1115 C77 1.563 . S
C1117 C161 1.563 . S
C1133 C91 1.563 . S
C1135 C343 1.563 . S
C1151 C133 1.563 . S
C1153 C105 1.563 . S
C1169 C315 1.563 . S
C1171 C119 1.563 . S
C1187 C147 1.563 . S
C1189 C287 1.563 . S
C1205 C259 1.563 . S
C1207 C175 1.563 . S
C1223 C231 1.563 . S
C1225 C203 1.563 . S
C1241 C245 1.563 . S
C1243 C441 1.563 . S
C1259 C273 1.563 . S
C1261 C413 1.563 . S
C1277 C301 1.563 . S
C1279 C385 1.563 . S
C1295 C357 1.563 . S
C1297 C329 1.563 . S
C1313 C8 1.955 . S
C1315 C106 1.955 . S
C1331 C22 1.955 . S
C1333 C64 1.955 . S
C1349 C78 1.955 1_556 S
C1351 C36 1.955 . S
C1367 C50 1.955 1_554 S
C1369 C92 1.955 . S
C1385 C218 1.955 . S
C1387 C120 1.955 . S
C1403 C176 1.955 . S
C1405 C134 1.955 . S
C1421 C148 1.955 . S
C1423 C190 1.955 1_554 S
C1439 C204 1.955 . S
C1441 C162 1.955 1_556 S
C1457 C330 1.955 1_556 S
C1459 C232 1.955 . S
C1475 C288 1.955 . S
C1477 C246 1.955 1_554 S
C1493 C302 1.955 . S
C1495 C260 1.955 . S
C1511 C316 1.955 . S
C1513 C274 1.955 . S
C1529 C344 1.955 . S
C1531 C442 1.955 1_554 S
C1547 C358 1.955 1_556 S
C1549 C400 1.955 . S
C1565 C372 1.955 . S
C1567 C414 1.955 . S
C1583 C428 1.955 . S
C1585 C386 1.955 . S
