# Generated by pormake.
# Topology lvt-a, (3)-cn, num edge types: 1
# Building blocks:
#     Node 0, Type 0, BuildingBlock: WUSLED_clean_sbu_0, # of connection points: 3
#     Node 1, Type 0, BuildingBlock: WUSLED_clean_sbu_0, # of connection points: 3
#     Node 2, Type 0, BuildingBlock: WUSLED_clean_sbu_0, # of connection points: 3
#     Node 3, Type 0, BuildingBlock: WUSLED_clean_sbu_0, # of connection points: 3
#     Node 4, Type 0, BuildingBlock: WUSLED_clean_sbu_0, # of connection points: 3
#     Node 5, Type 0, BuildingBlock: WUSLED_clean_sbu_0, # of connection points: 3
#     Node 6, Type 0, BuildingBlock: WUSLED_clean_sbu_0, # of connection points: 3
#     Node 7, Type 0, BuildingBlock: WUSLED_clean_sbu_0, # of connection points: 3
#     Node 8, Type 0, BuildingBlock: WUSLED_clean_sbu_0, # of connection points: 3
#     Node 9, Type 0, BuildingBlock: WUSLED_clean_sbu_0, # of connection points: 3
#     Node 10, Type 0, BuildingBlock: WUSLED_clean_sbu_0, # of connection points: 3
#     Node 11, Type 0, BuildingBlock: WUSLED_clean_sbu_0, # of connection points: 3
#     Node 12, Type 0, BuildingBlock: WUSLED_clean_sbu_0, # of connection points: 3
#     Node 13, Type 0, BuildingBlock: WUSLED_clean_sbu_0, # of connection points: 3
#     Node 14, Type 0, BuildingBlock: WUSLED_clean_sbu_0, # of connection points: 3
#     Node 15, Type 0, BuildingBlock: WUSLED_clean_sbu_0, # of connection points: 3
#     Node 16, Type 0, BuildingBlock: WUSLED_clean_sbu_0, # of connection points: 3
#     Node 17, Type 0, BuildingBlock: WUSLED_clean_sbu_0, # of connection points: 3
#     Node 18, Type 0, BuildingBlock: WUSLED_clean_sbu_0, # of connection points: 3
#     Node 19, Type 0, BuildingBlock: WUSLED_clean_sbu_0, # of connection points: 3
#     Node 20, Type 0, BuildingBlock: WUSLED_clean_sbu_0, # of connection points: 3
#     Node 21, Type 0, BuildingBlock: WUSLED_clean_sbu_0, # of connection points: 3
#     Node 22, Type 0, BuildingBlock: WUSLED_clean_sbu_0, # of connection points: 3
#     Node 23, Type 0, BuildingBlock: WUSLED_clean_sbu_0, # of connection points: 3
#     Node 24, Type 0, BuildingBlock: WUSLED_clean_sbu_0, # of connection points: 3
#     Node 25, Type 0, BuildingBlock: WUSLED_clean_sbu_0, # of connection points: 3
#     Node 26, Type 0, BuildingBlock: WUSLED_clean_sbu_0, # of connection points: 3
#     Node 27, Type 0, BuildingBlock: WUSLED_clean_sbu_0, # of connection points: 3
#     Node 28, Type 0, BuildingBlock: WUSLED_clean_sbu_0, # of connection points: 3
#     Node 29, Type 0, BuildingBlock: WUSLED_clean_sbu_0, # of connection points: 3
#     Node 30, Type 0, BuildingBlock: WUSLED_clean_sbu_0, # of connection points: 3
#     Node 31, Type 0, BuildingBlock: WUSLED_clean_sbu_0, # of connection points: 3
#     Edge 32, Type (0, 0), BuildingBlock: OJICUG_clean_linker_0, # of connection points: 2
#     Edge 33, Type (0, 0), BuildingBlock: OJICUG_clean_linker_0, # of connection points: 2
#     Edge 34, Type (0, 0), BuildingBlock: OJICUG_clean_linker_0, # of connection points: 2
#     Edge 35, Type (0, 0), BuildingBlock: OJICUG_clean_linker_0, # of connection points: 2
#     Edge 36, Type (0, 0), BuildingBlock: OJICUG_clean_linker_0, # of connection points: 2
#     Edge 37, Type (0, 0), BuildingBlock: OJICUG_clean_linker_0, # of connection points: 2
#     Edge 38, Type (0, 0), BuildingBlock: OJICUG_clean_linker_0, # of connection points: 2
#     Edge 39, Type (0, 0), BuildingBlock: OJICUG_clean_linker_0, # of connection points: 2
#     Edge 40, Type (0, 0), BuildingBlock: OJICUG_clean_linker_0, # of connection points: 2
#     Edge 41, Type (0, 0), BuildingBlock: OJICUG_clean_linker_0, # of connection points: 2
#     Edge 42, Type (0, 0), BuildingBlock: OJICUG_clean_linker_0, # of connection points: 2
#     Edge 43, Type (0, 0), BuildingBlock: OJICUG_clean_linker_0, # of connection points: 2
#     Edge 44, Type (0, 0), BuildingBlock: OJICUG_clean_linker_0, # of connection points: 2
#     Edge 45, Type (0, 0), BuildingBlock: OJICUG_clean_linker_0, # of connection points: 2
#     Edge 46, Type (0, 0), BuildingBlock: OJICUG_clean_linker_0, # of connection points: 2
#     Edge 47, Type (0, 0), BuildingBlock: OJICUG_clean_linker_0, # of connection points: 2
#     Edge 48, Type (0, 0), BuildingBlock: OJICUG_clean_linker_0, # of connection points: 2
#     Edge 49, Type (0, 0), BuildingBlock: OJICUG_clean_linker_0, # of connection points: 2
#     Edge 50, Type (0, 0), BuildingBlock: OJICUG_clean_linker_0, # of connection points: 2
#     Edge 51, Type (0, 0), BuildingBlock: OJICUG_clean_linker_0, # of connection points: 2
#     Edge 52, Type (0, 0), BuildingBlock: OJICUG_clean_linker_0, # of connection points: 2
#     Edge 53, Type (0, 0), BuildingBlock: OJICUG_clean_linker_0, # of connection points: 2
#     Edge 54, Type (0, 0), BuildingBlock: OJICUG_clean_linker_0, # of connection points: 2
#     Edge 55, Type (0, 0), BuildingBlock: OJICUG_clean_linker_0, # of connection points: 2
#     Edge 56, Type (0, 0), BuildingBlock: OJICUG_clean_linker_0, # of connection points: 2
#     Edge 57, Type (0, 0), BuildingBlock: OJICUG_clean_linker_0, # of connection points: 2
#     Edge 58, Type (0, 0), BuildingBlock: OJICUG_clean_linker_0, # of connection points: 2
#     Edge 59, Type (0, 0), BuildingBlock: OJICUG_clean_linker_0, # of connection points: 2
#     Edge 60, Type (0, 0), BuildingBlock: OJICUG_clean_linker_0, # of connection points: 2
#     Edge 61, Type (0, 0), BuildingBlock: OJICUG_clean_linker_0, # of connection points: 2
#     Edge 62, Type (0, 0), BuildingBlock: OJICUG_clean_linker_0, # of connection points: 2
#     Edge 63, Type (0, 0), BuildingBlock: OJICUG_clean_linker_0, # of connection points: 2
#     Edge 64, Type (0, 0), BuildingBlock: OJICUG_clean_linker_0, # of connection points: 2
#     Edge 65, Type (0, 0), BuildingBlock: OJICUG_clean_linker_0, # of connection points: 2
#     Edge 66, Type (0, 0), BuildingBlock: OJICUG_clean_linker_0, # of connection points: 2
#     Edge 67, Type (0, 0), BuildingBlock: OJICUG_clean_linker_0, # of connection points: 2
#     Edge 68, Type (0, 0), BuildingBlock: OJICUG_clean_linker_0, # of connection points: 2
#     Edge 69, Type (0, 0), BuildingBlock: OJICUG_clean_linker_0, # of connection points: 2
#     Edge 70, Type (0, 0), BuildingBlock: OJICUG_clean_linker_0, # of connection points: 2
#     Edge 71, Type (0, 0), BuildingBlock: OJICUG_clean_linker_0, # of connection points: 2
#     Edge 72, Type (0, 0), BuildingBlock: OJICUG_clean_linker_0, # of connection points: 2
#     Edge 73, Type (0, 0), BuildingBlock: OJICUG_clean_linker_0, # of connection points: 2
#     Edge 74, Type (0, 0), BuildingBlock: OJICUG_clean_linker_0, # of connection points: 2
#     Edge 75, Type (0, 0), BuildingBlock: OJICUG_clean_linker_0, # of connection points: 2
#     Edge 76, Type (0, 0), BuildingBlock: OJICUG_clean_linker_0, # of connection points: 2
#     Edge 77, Type (0, 0), BuildingBlock: OJICUG_clean_linker_0, # of connection points: 2
#     Edge 78, Type (0, 0), BuildingBlock: OJICUG_clean_linker_0, # of connection points: 2
#     Edge 79, Type (0, 0), BuildingBlock: OJICUG_clean_linker_0, # of connection points: 2
# Relax obj value: 0.110
# Max RMSD: 0.101
# Mean RMSD: 0.094
data_MOF--net-lvt-a--node1-WUSLED_clean_sbu_0--edge1-OJICUG_clean_linker_0
_symmetry_space_group_name_H-M    P1
_symmetry_Int_Tables_number       1
_symmetry_cell_setting            triclinic
loop_
_symmetry_equiv_pos_as_xyz
'x, y, z'
_cell_length_a     75.203797
_cell_length_b     78.27944
_cell_length_c     127.81005
_cell_angle_alpha  89.994085
_cell_angle_beta   89.99349
_cell_angle_gamma 90.001901
loop_
_atom_site_label
_atom_site_type_symbol
_atom_site_fract_x
_atom_site_fract_y
_atom_site_fract_z
_atom_type_partial_charge
C0 C 0.15415 0.5127 0.04923 0.0
C1 C 0.14234 0.50123 0.04445 0.0
C2 C 0.15633 0.50615 0.02752 0.0
C3 C 0.14348 0.49791 0.03373 0.0
C4 C 0.16838 0.51741 0.03238 0.0
C5 C 0.16727 0.52066 0.04315 0.0
U6 U 0.12381 0.51569 0.07245 0.0
O7 O 0.12735 0.51025 0.0892 0.0
O8 O 0.11942 0.53594 0.0841 0.0
C9 C 0.12401 0.52611 0.09199 0.0
C10 C 0.15187 0.5173 0.06032 0.0
C11 C 0.13628 0.53374 0.09962 0.0
C12 C 0.16592 0.54202 0.10526 0.0
C13 C 0.15467 0.53444 0.09784 0.0
C14 C 0.14044 0.5482 0.11623 0.0
C15 C 0.15892 0.54902 0.11455 0.0
C16 C 0.12927 0.54062 0.10885 0.0
C17 C 0.07566 0.50134 0.06752 0.0
C18 C 0.04993 0.50948 0.07788 0.0
C19 C 0.0469 0.48849 0.06406 0.0
C20 C 0.06502 0.48995 0.06185 0.0
C21 C 0.03906 0.49846 0.07198 0.0
C22 C 0.06811 0.51088 0.07569 0.0
C23 C 0.09424 0.50386 0.06429 0.0
O24 O 0.14129 0.53039 0.06196 0.0
O25 O 0.1488 0.50445 0.06671 0.0
O26 O 0.10611 0.49402 0.06883 0.0
O27 O 0.09937 0.51984 0.06343 0.0
H28 H 0.132 0.49504 0.04898 0.0
H29 H 0.13417 0.48896 0.03031 0.0
H30 H 0.17831 0.52412 0.02783 0.0
H31 H 0.17639 0.5297 0.04668 0.0
H32 H 0.18008 0.54232 0.10375 0.0
H33 H 0.1603 0.52918 0.09074 0.0
H34 H 0.13452 0.55374 0.12317 0.0
H35 H 0.11508 0.54026 0.11031 0.0
H36 H 0.04433 0.51719 0.0841 0.0
H37 H 0.0389 0.48007 0.05926 0.0
H38 H 0.07063 0.48253 0.0555 0.0
H39 H 0.07617 0.5197 0.08018 0.0
C40 C 0.73569 0.88982 0.29939 0.0
C41 C 0.7481 0.87854 0.29497 0.0
C42 C 0.74367 0.89138 0.27778 0.0
C43 C 0.75212 0.87938 0.2843 0.0
C44 C 0.73142 0.90284 0.28229 0.0
C45 C 0.72747 0.90205 0.293 0.0
U46 U 0.73129 0.86144 0.32293 0.0
O47 O 0.7366 0.8652 0.33969 0.0
O48 O 0.70981 0.85796 0.33445 0.0
C49 C 0.71998 0.86233 0.34238 0.0
C50 C 0.73046 0.88802 0.31046 0.0
C51 C 0.71209 0.87417 0.35003 0.0
C52 C 0.70737 0.90265 0.35713 0.0
C53 C 0.71467 0.89191 0.34947 0.0
C54 C 0.69474 0.87803 0.36588 0.0
C55 C 0.69737 0.89581 0.36548 0.0
C56 C 0.70204 0.86736 0.35826 0.0
C57 C 0.74585 0.81483 0.31852 0.0
C58 C 0.73662 0.79004 0.32861 0.0
C59 C 0.75972 0.78728 0.3155 0.0
C60 C 0.75828 0.80468 0.31324 0.0
C61 C 0.74869 0.77968 0.32307 0.0
C62 C 0.73524 0.80751 0.32637 0.0
C63 C 0.74342 0.83265 0.31518 0.0
O64 O 0.71662 0.87811 0.31205 0.0
O65 O 0.74354 0.88511 0.31706 0.0
O66 O 0.7537 0.84406 0.31969 0.0
O67 O 0.72685 0.83773 0.31417 0.0
H68 H 0.7545 0.86888 0.29973 0.0
H69 H 0.76183 0.87053 0.28117 0.0
H70 H 0.72449 0.91211 0.2775 0.0
H71 H 0.71771 0.91074 0.29625 0.0
H72 H 0.70975 0.91627 0.3566 0.0
H73 H 0.72241 0.89742 0.34317 0.0
H74 H 0.68682 0.87233 0.37204 0.0
H75 H 0.69985 0.8537 0.3588 0.0
H76 H 0.72808 0.78461 0.33456 0.0
H77 H 0.76897 0.77966 0.31098 0.0
H78 H 0.76654 0.81012 0.30714 0.0
H79 H 0.72561 0.81518 0.33057 0.0
C80 C 0.34593 0.48899 0.54914 0.0
C81 C 0.35789 0.50038 0.54441 0.0
C82 C 0.34419 0.49542 0.5274 0.0
C83 C 0.35697 0.50364 0.53368 0.0
C84 C 0.33202 0.48421 0.53221 0.0
C85 C 0.33291 0.48102 0.54299 0.0
U86 U 0.37551 0.48636 0.57272 0.0
O87 O 0.37126 0.4923 0.5894 0.0
O88 O 0.37939 0.46649 0.58463 0.0
C89 C 0.37432 0.47648 0.59235 0.0
C90 C 0.34786 0.48459 0.56029 0.0
C91 C 0.36145 0.46907 0.59974 0.0
C92 C 0.33531 0.45188 0.60351 0.0
C93 C 0.34662 0.45979 0.59627 0.0
C94 C 0.35322 0.46293 0.61773 0.0
C95 C 0.33861 0.4532 0.61433 0.0
C96 C 0.36453 0.47076 0.6105 0.0
C97 C 0.424 0.50075 0.56797 0.0
C98 C 0.45182 0.49042 0.57534 0.0
C99 C 0.45108 0.51733 0.56599 0.0
C100 C 0.43283 0.51535 0.56434 0.0
C101 C 0.4609 0.50466 0.57124 0.0
C102 C 0.43352 0.48849 0.57373 0.0
C103 C 0.40537 0.49795 0.56482 0.0
O104 O 0.35835 0.47151 0.56214 0.0
O105 O 0.35076 0.49756 0.56661 0.0
O106 O 0.39338 0.50795 0.56913 0.0
O107 O 0.40022 0.48196 0.56403 0.0
H108 H 0.36815 0.50658 0.549 0.0
H109 H 0.36636 0.51255 0.5303 0.0
H110 H 0.32215 0.47751 0.52761 0.0
H111 H 0.32368 0.47205 0.54649 0.0
H112 H 0.32404 0.44465 0.60063 0.0
H113 H 0.34396 0.45842 0.58798 0.0
H114 H 0.35629 0.46405 0.62598 0.0
H115 H 0.37594 0.47787 0.61332 0.0
H116 H 0.45897 0.48037 0.57936 0.0
H117 H 0.45758 0.52861 0.56291 0.0
H118 H 0.42572 0.52499 0.55992 0.0
H119 H 0.42697 0.47712 0.57665 0.0
C120 C 0.76485 0.11128 0.79935 0.0
C121 C 0.75244 0.12253 0.7949 0.0
C122 C 0.75692 0.10964 0.77774 0.0
C123 C 0.74844 0.12166 0.78424 0.0
C124 C 0.76917 0.09821 0.78227 0.0
C125 C 0.7731 0.09904 0.79298 0.0
U126 U 0.76915 0.13977 0.82283 0.0
O127 O 0.76389 0.13608 0.8396 0.0
O128 O 0.79064 0.14339 0.83434 0.0
C129 C 0.7805 0.13899 0.84227 0.0
C130 C 0.77007 0.11314 0.81041 0.0
C131 C 0.78845 0.12719 0.84993 0.0
C132 C 0.79279 0.09881 0.85727 0.0
C133 C 0.78545 0.10949 0.84959 0.0
C134 C 0.80632 0.12338 0.86559 0.0
C135 C 0.80324 0.10565 0.86541 0.0
C136 C 0.79898 0.134 0.85795 0.0
C137 C 0.75442 0.18631 0.8183 0.0
C138 C 0.76346 0.21115 0.8284 0.0
C139 C 0.74066 0.21386 0.8151 0.0
C140 C 0.74212 0.19644 0.81291 0.0
C141 C 0.75154 0.2215 0.82274 0.0
C142 C 0.76486 0.19367 0.82621 0.0
C143 C 0.75691 0.16847 0.81503 0.0
O144 O 0.78388 0.1231 0.81199 0.0
O145 O 0.75698 0.11603 0.81701 0.0
O146 O 0.74668 0.15707 0.81957 0.0
O147 O 0.77349 0.16345 0.81402 0.0
H148 H 0.74601 0.1322 0.79965 0.0
H149 H 0.73873 0.13048 0.78109 0.0
H150 H 0.77613 0.08894 0.7775 0.0
H151 H 0.78286 0.09037 0.79625 0.0
H152 H 0.79007 0.08524 0.85692 0.0
H153 H 0.77734 0.10397 0.84345 0.0
H154 H 0.81459 0.12908 0.87159 0.0
H155 H 0.8015 0.14762 0.85832 0.0
H156 H 0.77188 0.21662 0.8344 0.0
H157 H 0.73153 0.22146 0.81049 0.0
H158 H 0.734 0.19097 0.80675 0.0
H159 H 0.77439 0.18601 0.8305 0.0
C160 C 0.15482 0.48956 0.96069 0.0
C161 C 0.14291 0.50098 0.96544 0.0
C162 C 0.15666 0.49594 0.98243 0.0
C163 C 0.14389 0.50421 0.97617 0.0
C164 C 0.16881 0.48475 0.97759 0.0
C165 C 0.16787 0.48158 0.96681 0.0
U166 U 0.12476 0.4869 0.93736 0.0
O167 O 0.12849 0.49252 0.92063 0.0
O168 O 0.12037 0.46683 0.92561 0.0
C169 C 0.12508 0.47672 0.91777 0.0
C170 C 0.1527 0.48507 0.94956 0.0
C171 C 0.13741 0.46912 0.91017 0.0
C172 C 0.1665 0.45813 0.90532 0.0
C173 C 0.15527 0.46592 0.91267 0.0
C174 C 0.14212 0.45687 0.89295 0.0
C175 C 0.16001 0.45341 0.89538 0.0
C176 C 0.13097 0.46464 0.90027 0.0
C177 C 0.07654 0.50157 0.9424 0.0
C178 C 0.04882 0.4914 0.93482 0.0
C179 C 0.04936 0.51793 0.94457 0.0
C180 C 0.06761 0.51597 0.94623 0.0
C181 C 0.03964 0.50543 0.9391 0.0
C182 C 0.06712 0.48949 0.93644 0.0
C183 C 0.09519 0.49878 0.94548 0.0
O184 O 0.1421 0.47203 0.94783 0.0
O185 O 0.14976 0.49798 0.9432 0.0
O186 O 0.10713 0.50864 0.94101 0.0
O187 O 0.10028 0.48278 0.94632 0.0
H188 H 0.13263 0.50718 0.96087 0.0
H189 H 0.13451 0.51311 0.97958 0.0
H190 H 0.17869 0.47802 0.98217 0.0
H191 H 0.17705 0.47259 0.96329 0.0
H192 H 0.18023 0.45581 0.90743 0.0
H193 H 0.16046 0.46933 0.92029 0.0
H194 H 0.13656 0.45315 0.88547 0.0
H195 H 0.11719 0.46696 0.89824 0.0
H196 H 0.04175 0.48148 0.93063 0.0
H197 H 0.04279 0.52906 0.94779 0.0
H198 H 0.07465 0.52547 0.9508 0.0
H199 H 0.07376 0.47829 0.93336 0.0
C200 C 0.76458 0.88997 0.21122 0.0
C201 C 0.75334 0.87783 0.21586 0.0
C202 C 0.75722 0.89128 0.23291 0.0
C203 C 0.74961 0.87853 0.22656 0.0
C204 C 0.76837 0.90354 0.22819 0.0
C205 C 0.77202 0.90287 0.21744 0.0
U206 U 0.76862 0.86234 0.18731 0.0
O207 O 0.76181 0.8665 0.17072 0.0
O208 O 0.7892 0.85999 0.1752 0.0
C209 C 0.77832 0.86442 0.1676 0.0
C210 C 0.76926 0.88858 0.20005 0.0
C211 C 0.7851 0.8769 0.15992 0.0
C212 C 0.80513 0.89989 0.15489 0.0
C213 C 0.79775 0.88935 0.16262 0.0
C214 C 0.78686 0.88609 0.14178 0.0
C215 C 0.79999 0.89819 0.14434 0.0
C216 C 0.77954 0.87556 0.14949 0.0
C217 C 0.75581 0.81513 0.19154 0.0
C218 C 0.76547 0.79046 0.18148 0.0
C219 C 0.74197 0.78749 0.19432 0.0
C220 C 0.74326 0.80487 0.19665 0.0
C221 C 0.75328 0.77999 0.18685 0.0
C222 C 0.7667 0.80791 0.18379 0.0
C223 C 0.75802 0.83294 0.19497 0.0
O224 O 0.78333 0.87917 0.19808 0.0
O225 O 0.75589 0.88539 0.1937 0.0
O226 O 0.74704 0.84417 0.19089 0.0
O227 O 0.77449 0.83847 0.19561 0.0
H228 H 0.74754 0.86768 0.21121 0.0
H229 H 0.74075 0.86905 0.22985 0.0
H230 H 0.77464 0.9134 0.23285 0.0
H231 H 0.78087 0.91225 0.21402 0.0
H232 H 0.81531 0.90897 0.15714 0.0
H233 H 0.80225 0.89064 0.17063 0.0
H234 H 0.78234 0.88463 0.13379 0.0
H235 H 0.76976 0.86607 0.14725 0.0
H236 H 0.77423 0.78511 0.1756 0.0
H237 H 0.73261 0.77979 0.19871 0.0
H238 H 0.73478 0.81021 0.20267 0.0
H239 H 0.77642 0.81566 0.17971 0.0
C240 C 0.34619 0.51244 0.46061 0.0
C241 C 0.3582 0.50112 0.46536 0.0
C242 C 0.34433 0.50597 0.48234 0.0
C243 C 0.35721 0.49784 0.47609 0.0
C244 C 0.33213 0.51711 0.4775 0.0
C245 C 0.33307 0.52032 0.46673 0.0
U246 U 0.37587 0.51526 0.43706 0.0
O247 O 0.37171 0.50933 0.42039 0.0
O248 O 0.37966 0.53518 0.42517 0.0
C249 C 0.37467 0.52517 0.41744 0.0
C250 C 0.34816 0.51686 0.44947 0.0
C251 C 0.36175 0.53251 0.41005 0.0
C252 C 0.33549 0.54953 0.4063 0.0
C253 C 0.34685 0.54168 0.41353 0.0
C254 C 0.35351 0.53865 0.39207 0.0
C255 C 0.33881 0.54827 0.39548 0.0
C256 C 0.36486 0.53087 0.39929 0.0
C257 C 0.42445 0.50115 0.44186 0.0
C258 C 0.45236 0.51173 0.43474 0.0
C259 C 0.45151 0.4845 0.44373 0.0
C260 C 0.43324 0.48642 0.44533 0.0
C261 C 0.46139 0.49735 0.43869 0.0
C262 C 0.43404 0.51361 0.43631 0.0
C263 C 0.40579 0.50385 0.44499 0.0
O264 O 0.35858 0.53 0.44764 0.0
O265 O 0.35118 0.50391 0.44315 0.0
O266 O 0.39388 0.49378 0.44066 0.0
O267 O 0.40053 0.51981 0.44578 0.0
H268 H 0.36853 0.49499 0.4608 0.0
H269 H 0.36664 0.48898 0.47949 0.0
H270 H 0.32217 0.52374 0.48208 0.0
H271 H 0.32381 0.52923 0.46322 0.0
H272 H 0.32417 0.55668 0.40918 0.0
H273 H 0.34417 0.543 0.42182 0.0
H274 H 0.35659 0.53759 0.38382 0.0
H275 H 0.37633 0.52386 0.39647 0.0
H276 H 0.45956 0.52192 0.43088 0.0
H277 H 0.45797 0.47311 0.44668 0.0
H278 H 0.42608 0.47663 0.44959 0.0
H279 H 0.42754 0.52508 0.43351 0.0
C280 C 0.73635 0.111 0.71115 0.0
C281 C 0.7476 0.12312 0.7158 0.0
C282 C 0.7436 0.10968 0.73285 0.0
C283 C 0.75127 0.12241 0.72651 0.0
C284 C 0.73245 0.09744 0.72812 0.0
C285 C 0.72886 0.09812 0.71736 0.0
U286 U 0.73257 0.13872 0.68728 0.0
O287 O 0.73939 0.13462 0.67069 0.0
O288 O 0.71204 0.14127 0.67516 0.0
C289 C 0.7229 0.13682 0.66756 0.0
C290 C 0.73171 0.11242 0.69997 0.0
C291 C 0.71605 0.12439 0.65987 0.0
C292 C 0.69604 0.10138 0.65486 0.0
C293 C 0.70346 0.1119 0.66258 0.0
C294 C 0.71414 0.11532 0.64171 0.0
C295 C 0.70107 0.10316 0.64429 0.0
C296 C 0.7215 0.12582 0.64942 0.0
C297 C 0.74568 0.18584 0.69169 0.0
C298 C 0.73633 0.21063 0.68165 0.0
C299 C 0.75946 0.21343 0.69473 0.0
C300 C 0.7581 0.19602 0.69696 0.0
C301 C 0.74838 0.22102 0.68718 0.0
C302 C 0.73502 0.19316 0.68387 0.0
C303 C 0.74333 0.168 0.69504 0.0
O304 O 0.7177 0.12193 0.698 0.0
O305 O 0.74512 0.11556 0.69364 0.0
O306 O 0.75425 0.15675 0.69093 0.0
O307 O 0.72683 0.16258 0.69564 0.0
H308 H 0.75344 0.13326 0.71116 0.0
H309 H 0.76014 0.13188 0.72982 0.0
H310 H 0.72613 0.08759 0.73276 0.0
H311 H 0.72 0.08876 0.71393 0.0
H312 H 0.68592 0.09226 0.65712 0.0
H313 H 0.69906 0.11053 0.67061 0.0
H314 H 0.71857 0.11685 0.63371 0.0
H315 H 0.73123 0.13535 0.64717 0.0
H316 H 0.72775 0.21606 0.67571 0.0
H317 H 0.7687 0.22106 0.69925 0.0
H318 H 0.76639 0.19059 0.70305 0.0
H319 H 0.7254 0.18547 0.67967 0.0
C320 C 0.84738 0.48849 0.95978 0.0
C321 C 0.85902 0.5003 0.9644 0.0
C322 C 0.84555 0.4953 0.98147 0.0
C323 C 0.85804 0.50374 0.97511 0.0
C324 C 0.83367 0.48369 0.97676 0.0
C325 C 0.83461 0.48031 0.966 0.0
U326 U 0.87748 0.48564 0.93649 0.0
O327 O 0.88201 0.46547 0.92482 0.0
O328 O 0.8738 0.49107 0.91973 0.0
C329 C 0.87729 0.47526 0.91694 0.0
C330 C 0.84953 0.48381 0.94868 0.0
C331 C 0.86501 0.46754 0.90935 0.0
C332 C 0.83607 0.45614 0.90457 0.0
C333 C 0.84725 0.46399 0.91191 0.0
C334 C 0.86028 0.45552 0.89207 0.0
C335 C 0.84249 0.45172 0.89456 0.0
C336 C 0.87139 0.46335 0.89939 0.0
C337 C 0.92557 0.50082 0.94166 0.0
C338 C 0.95361 0.49088 0.93438 0.0
C339 C 0.95249 0.5175 0.94401 0.0
C340 C 0.93423 0.51536 0.9455 0.0
C341 C 0.9625 0.50505 0.93869 0.0
C342 C 0.93529 0.48878 0.93584 0.0
C343 C 0.9069 0.49784 0.94462 0.0
O344 O 0.85238 0.49663 0.94223 0.0
O345 O 0.86022 0.47081 0.94703 0.0
O346 O 0.90197 0.48179 0.94549 0.0
O347 O 0.89491 0.50756 0.94008 0.0
H348 H 0.86909 0.50666 0.95976 0.0
H349 H 0.8672 0.51296 0.97841 0.0
H350 H 0.82403 0.47681 0.98143 0.0
H351 H 0.82565 0.47101 0.96259 0.0
H352 H 0.8224 0.45355 0.90672 0.0
H353 H 0.8421 0.46718 0.91958 0.0
H354 H 0.8658 0.45204 0.88454 0.0
H355 H 0.8851 0.46595 0.8973 0.0
H356 H 0.96091 0.48099 0.9303 0.0
H357 H 0.95885 0.52873 0.94725 0.0
H358 H 0.92695 0.52483 0.94997 0.0
H359 H 0.92887 0.47747 0.93275 0.0
C360 C 0.26445 0.11237 0.71058 0.0
C361 C 0.25261 0.12408 0.71512 0.0
C362 C 0.25668 0.11082 0.73222 0.0
C363 C 0.24868 0.12325 0.72579 0.0
C364 C 0.26842 0.09899 0.7276 0.0
C365 C 0.27227 0.09977 0.71687 0.0
U366 U 0.2687 0.14036 0.68684 0.0
O367 O 0.2896 0.14316 0.67494 0.0
O368 O 0.26244 0.13638 0.67017 0.0
C369 C 0.27898 0.13884 0.6672 0.0
C370 C 0.26938 0.11395 0.69945 0.0
C371 C 0.28621 0.12659 0.65956 0.0
C372 C 0.30277 0.10088 0.65519 0.0
C373 C 0.29491 0.11158 0.66268 0.0
C374 C 0.29284 0.11986 0.64141 0.0
C375 C 0.30202 0.10502 0.64446 0.0
C376 C 0.28504 0.13052 0.64889 0.0
C377 C 0.25517 0.18736 0.69132 0.0
C378 C 0.26464 0.21231 0.68145 0.0
C379 C 0.24119 0.21485 0.69436 0.0
C380 C 0.24259 0.19742 0.69653 0.0
C381 C 0.25241 0.22258 0.68693 0.0
C382 C 0.26599 0.19481 0.68361 0.0
C383 C 0.25753 0.16949 0.69461 0.0
O384 O 0.25614 0.11705 0.69299 0.0
O385 O 0.28338 0.12355 0.69764 0.0
O386 O 0.27405 0.16415 0.69535 0.0
O387 O 0.24681 0.15822 0.69034 0.0
H388 H 0.24651 0.134 0.71042 0.0
H389 H 0.23937 0.1324 0.72901 0.0
H390 H 0.27501 0.08939 0.73231 0.0
H391 H 0.28159 0.09074 0.71354 0.0
H392 H 0.30954 0.08945 0.65781 0.0
H393 H 0.29589 0.1083 0.6709 0.0
H394 H 0.2922 0.12361 0.63327 0.0
H395 H 0.27841 0.14209 0.64634 0.0
H396 H 0.27334 0.21784 0.67561 0.0
H397 H 0.23181 0.22239 0.69883 0.0
H398 H 0.23418 0.19189 0.70253 0.0
H399 H 0.27574 0.18721 0.67946 0.0
C400 C 0.65334 0.51327 0.46147 0.0
C401 C 0.64108 0.50217 0.46621 0.0
C402 C 0.65506 0.50664 0.48319 0.0
C403 C 0.64199 0.49882 0.47693 0.0
C404 C 0.6675 0.51757 0.47837 0.0
C405 C 0.66662 0.52086 0.4676 0.0
U406 U 0.62398 0.51601 0.43779 0.0
O407 O 0.62032 0.5358 0.42581 0.0
O408 O 0.62833 0.5099 0.42114 0.0
C409 C 0.6254 0.52572 0.41814 0.0
C410 C 0.65152 0.51768 0.45032 0.0
C411 C 0.63816 0.53295 0.41058 0.0
C412 C 0.66143 0.55315 0.40591 0.0
C413 C 0.65063 0.54543 0.41349 0.0
C414 C 0.64791 0.53554 0.39251 0.0
C415 C 0.65999 0.54849 0.39529 0.0
C416 C 0.63709 0.5279 0.40008 0.0
C417 C 0.57539 0.50176 0.44238 0.0
C418 C 0.54753 0.51213 0.43509 0.0
C419 C 0.54843 0.4849 0.44407 0.0
C420 C 0.56664 0.48696 0.44579 0.0
C421 C 0.53854 0.49768 0.43897 0.0
C422 C 0.5658 0.51415 0.43677 0.0
C423 C 0.59399 0.50456 0.4456 0.0
O424 O 0.64861 0.50472 0.44399 0.0
O425 O 0.64111 0.5308 0.44843 0.0
O426 O 0.59917 0.52055 0.44636 0.0
O427 O 0.60601 0.4945 0.44137 0.0
H428 H 0.63063 0.49626 0.46163 0.0
H429 H 0.63238 0.49013 0.48031 0.0
H430 H 0.6776 0.52397 0.48296 0.0
H431 H 0.67609 0.52959 0.4641 0.0
H432 H 0.67048 0.56316 0.40833 0.0
H433 H 0.65173 0.54952 0.42156 0.0
H434 H 0.64666 0.53141 0.38446 0.0
H435 H 0.6276 0.51824 0.39768 0.0
H436 H 0.54032 0.52227 0.43118 0.0
H437 H 0.542 0.47346 0.44698 0.0
H438 H 0.57381 0.47722 0.45009 0.0
H439 H 0.57226 0.52566 0.43401 0.0
C440 C 0.23559 0.88896 0.21103 0.0
C441 C 0.2473 0.8771 0.21554 0.0
C442 C 0.2434 0.89031 0.23267 0.0
C443 C 0.25124 0.87782 0.22622 0.0
C444 C 0.23182 0.90231 0.22808 0.0
C445 C 0.22794 0.90162 0.21735 0.0
U446 U 0.23151 0.86103 0.1873 0.0
O447 O 0.21053 0.85797 0.17546 0.0
O448 O 0.23758 0.86499 0.17062 0.0
C449 C 0.22107 0.86225 0.16768 0.0
C450 C 0.2306 0.88743 0.19991 0.0
C451 C 0.21367 0.87426 0.15998 0.0
C452 C 0.20103 0.90177 0.1552 0.0
C453 C 0.20871 0.89096 0.1627 0.0
C454 C 0.20348 0.87936 0.14222 0.0
C455 C 0.1982 0.89605 0.14487 0.0
C456 C 0.21113 0.86861 0.14969 0.0
C457 C 0.24557 0.81422 0.19171 0.0
C458 C 0.23656 0.78945 0.18153 0.0
C459 C 0.25948 0.7867 0.19475 0.0
C460 C 0.25796 0.80408 0.19703 0.0
C461 C 0.24859 0.7791 0.1871 0.0
C462 C 0.23509 0.8069 0.1838 0.0
C463 C 0.24308 0.83203 0.19506 0.0
O464 O 0.24383 0.88449 0.19342 0.0
O465 O 0.2167 0.87769 0.19812 0.0
O466 O 0.22651 0.8372 0.19585 0.0
O467 O 0.25364 0.84342 0.19076 0.0
H468 H 0.25326 0.86712 0.21083 0.0
H469 H 0.26044 0.86855 0.22942 0.0
H470 H 0.22536 0.91196 0.23281 0.0
H471 H 0.21873 0.91077 0.21403 0.0
H472 H 0.19729 0.91459 0.1575 0.0
H473 H 0.21063 0.89554 0.17062 0.0
H474 H 0.20124 0.87438 0.13442 0.0
H475 H 0.21482 0.85573 0.14747 0.0
H476 H 0.22813 0.78402 0.17553 0.0
H477 H 0.2687 0.77908 0.19929 0.0
H478 H 0.26611 0.80951 0.20318 0.0
H479 H 0.2255 0.81457 0.17957 0.0
C480 C 0.84774 0.51296 0.04821 0.0
C481 C 0.86 0.50192 0.04344 0.0
C482 C 0.84588 0.50637 0.02649 0.0
C483 C 0.85902 0.49858 0.03272 0.0
C484 C 0.83344 0.51724 0.03135 0.0
C485 C 0.83439 0.52052 0.04212 0.0
U486 U 0.87724 0.51568 0.07183 0.0
O487 O 0.88099 0.53547 0.0838 0.0
O488 O 0.87299 0.50957 0.08849 0.0
C489 C 0.87594 0.52539 0.09148 0.0
C490 C 0.84963 0.51736 0.05936 0.0
C491 C 0.86322 0.53264 0.09906 0.0
C492 C 0.83995 0.55283 0.10374 0.0
C493 C 0.85071 0.54509 0.09615 0.0
C494 C 0.85359 0.53532 0.11714 0.0
C495 C 0.84147 0.54824 0.11436 0.0
C496 C 0.86436 0.52764 0.10957 0.0
C497 C 0.92569 0.50165 0.06727 0.0
C498 C 0.95136 0.50972 0.07772 0.0
C499 C 0.95442 0.48863 0.06396 0.0
C500 C 0.93634 0.49017 0.06168 0.0
C501 C 0.96224 0.49861 0.07188 0.0
C502 C 0.93321 0.5112 0.07545 0.0
C503 C 0.90719 0.50427 0.06393 0.0
O504 O 0.85258 0.50439 0.06567 0.0
O505 O 0.86005 0.53048 0.06123 0.0
O506 O 0.90203 0.52026 0.06323 0.0
O507 O 0.89522 0.49422 0.0682 0.0
H508 H 0.8705 0.49603 0.04799 0.0
H509 H 0.86864 0.48993 0.0293 0.0
H510 H 0.82328 0.52362 0.02679 0.0
H511 H 0.82492 0.52921 0.04565 0.0
H512 H 0.83088 0.56282 0.10132 0.0
H513 H 0.84956 0.54912 0.08807 0.0
H514 H 0.85489 0.53123 0.1252 0.0
H515 H 0.87388 0.51801 0.11196 0.0
H516 H 0.95694 0.51744 0.08394 0.0
H517 H 0.96243 0.48014 0.05921 0.0
H518 H 0.93076 0.48274 0.05532 0.0
H519 H 0.92515 0.5201 0.07989 0.0
C520 C 0.23528 0.11151 0.79875 0.0
C521 C 0.24698 0.12338 0.79424 0.0
C522 C 0.24284 0.11041 0.77707 0.0
C523 C 0.2508 0.12278 0.78355 0.0
C524 C 0.23123 0.09841 0.78165 0.0
C525 C 0.22749 0.09898 0.79239 0.0
U526 U 0.23143 0.13902 0.82268 0.0
O527 O 0.21083 0.1416 0.83477 0.0
O528 O 0.23813 0.13481 0.83928 0.0
C529 C 0.22163 0.13711 0.84239 0.0
C530 C 0.2305 0.11284 0.80991 0.0
C531 C 0.2147 0.12479 0.85011 0.0
C532 C 0.19467 0.10182 0.85519 0.0
C533 C 0.20214 0.11225 0.84743 0.0
C534 C 0.21263 0.11596 0.86832 0.0
C535 C 0.19961 0.10374 0.86577 0.0
C536 C 0.22004 0.12637 0.86057 0.0
C537 C 0.24526 0.18617 0.81824 0.0
C538 C 0.23403 0.2131 0.82507 0.0
C539 C 0.26296 0.21202 0.81679 0.0
C540 C 0.2609 0.19449 0.81514 0.0
C541 C 0.24934 0.22163 0.8215 0.0
C542 C 0.232 0.19552 0.82346 0.0
C543 C 0.24254 0.16826 0.81503 0.0
O544 O 0.24384 0.11579 0.81632 0.0
O545 O 0.21654 0.12242 0.81187 0.0
O546 O 0.22599 0.16297 0.81436 0.0
O547 O 0.25333 0.15686 0.81912 0.0
H548 H 0.25306 0.13326 0.79898 0.0
H549 H 0.26002 0.13205 0.78036 0.0
H550 H 0.22467 0.08885 0.7769 0.0
H551 H 0.21828 0.08981 0.79571 0.0
H552 H 0.18459 0.09264 0.85295 0.0
H553 H 0.19781 0.11078 0.8394 0.0
H554 H 0.217 0.1176 0.87633 0.0
H555 H 0.22975 0.13594 0.8628 0.0
H556 H 0.22323 0.22013 0.82868 0.0
H557 H 0.27507 0.21812 0.81412 0.0
H558 H 0.27132 0.18752 0.81113 0.0
H559 H 0.2198 0.18939 0.82596 0.0
C560 C 0.65324 0.48852 0.54989 0.0
C561 C 0.64155 0.50027 0.54525 0.0
C562 C 0.65514 0.49541 0.5282 0.0
C563 C 0.64256 0.50375 0.53455 0.0
C564 C 0.66706 0.48385 0.53292 0.0
C565 C 0.66609 0.48043 0.54367 0.0
U566 U 0.62315 0.48545 0.57319 0.0
O567 O 0.61877 0.46521 0.58485 0.0
O568 O 0.62685 0.49085 0.58995 0.0
C569 C 0.62344 0.47501 0.59273 0.0
C570 C 0.65109 0.4838 0.56098 0.0
C571 C 0.63575 0.46733 0.60032 0.0
C572 C 0.66472 0.45601 0.60512 0.0
C573 C 0.65352 0.46383 0.59777 0.0
C574 C 0.64049 0.45531 0.61761 0.0
C575 C 0.6583 0.45156 0.61512 0.0
C576 C 0.62937 0.46312 0.61028 0.0
C577 C 0.57495 0.50035 0.56816 0.0
C578 C 0.54701 0.49015 0.57544 0.0
C579 C 0.54797 0.51704 0.56608 0.0
C580 C 0.56622 0.51498 0.56449 0.0
C581 C 0.53804 0.50442 0.57131 0.0
C582 C 0.56532 0.48814 0.57389 0.0
C583 C 0.59362 0.4975 0.56512 0.0
O584 O 0.64817 0.4966 0.56743 0.0
O585 O 0.64047 0.47074 0.56262 0.0
O586 O 0.59865 0.48149 0.56422 0.0
O587 O 0.60558 0.50728 0.56964 0.0
H588 H 0.63141 0.50656 0.54989 0.0
H589 H 0.63336 0.51293 0.53125 0.0
H590 H 0.67678 0.47705 0.52826 0.0
H591 H 0.6751 0.47118 0.54709 0.0
H592 H 0.67839 0.45345 0.60297 0.0
H593 H 0.65867 0.46704 0.5901 0.0
H594 H 0.63497 0.45182 0.62513 0.0
H595 H 0.61565 0.46568 0.61236 0.0
H596 H 0.53977 0.48014 0.57945 0.0
H597 H 0.54156 0.52835 0.56298 0.0
H598 H 0.57343 0.52458 0.56009 0.0
H599 H 0.57179 0.47676 0.57685 0.0
C600 C 0.26584 0.88868 0.29906 0.0
C601 C 0.25371 0.87713 0.29463 0.0
C602 C 0.25764 0.89023 0.27748 0.0
C603 C 0.24958 0.87796 0.28398 0.0
C604 C 0.26963 0.90195 0.28199 0.0
C605 C 0.27369 0.90116 0.29269 0.0
U606 U 0.27034 0.86046 0.32266 0.0
O607 O 0.29182 0.85706 0.3342 0.0
O608 O 0.26502 0.86431 0.33942 0.0
C609 C 0.28163 0.86143 0.34211 0.0
C610 C 0.27113 0.88696 0.31013 0.0
C611 C 0.2895 0.87323 0.34981 0.0
C612 C 0.29434 0.90168 0.35693 0.0
C613 C 0.28709 0.89099 0.34922 0.0
C614 C 0.30658 0.87697 0.36577 0.0
C615 C 0.30411 0.89477 0.36534 0.0
C616 C 0.29934 0.86635 0.3581 0.0
C617 C 0.25565 0.81382 0.31827 0.0
C618 C 0.26483 0.78888 0.32824 0.0
C619 C 0.24152 0.7864 0.31524 0.0
C620 C 0.24306 0.8038 0.31304 0.0
C621 C 0.2526 0.77865 0.32274 0.0
C622 C 0.26632 0.80635 0.32604 0.0
C623 C 0.25817 0.83165 0.31496 0.0
O624 O 0.25807 0.8841 0.31675 0.0
O625 O 0.28497 0.87706 0.31173 0.0
O626 O 0.27475 0.83668 0.31396 0.0
O627 O 0.24791 0.84308 0.31946 0.0
H628 H 0.24759 0.86729 0.29939 0.0
H629 H 0.24008 0.86891 0.28085 0.0
H630 H 0.27626 0.91143 0.27721 0.0
H631 H 0.28323 0.91007 0.29594 0.0
H632 H 0.29209 0.91531 0.35638 0.0
H633 H 0.27951 0.89655 0.34287 0.0
H634 H 0.31432 0.8712 0.37199 0.0
H635 H 0.30139 0.85267 0.35867 0.0
H636 H 0.27342 0.78334 0.33414 0.0
H637 H 0.23214 0.77888 0.31075 0.0
H638 H 0.23476 0.80935 0.30699 0.0
H639 H 0.27608 0.81393 0.33021 0.0
C640 C 0.6552 0.02104 0.54772 0.0
C641 C 0.6429 0.00915 0.54381 0.0
C642 C 0.65662 0.01058 0.52654 0.0
C643 C 0.64367 0.0039 0.53337 0.0
C644 C 0.66906 0.02235 0.53053 0.0
C645 C 0.66834 0.02753 0.54103 0.0
U646 U 0.62596 0.02943 0.57097 0.0
O647 O 0.62955 0.02534 0.58791 0.0
O648 O 0.62379 0.05104 0.58187 0.0
C649 C 0.62773 0.04166 0.59009 0.0
C650 C 0.65363 0.02735 0.55856 0.0
C651 C 0.64063 0.04895 0.59754 0.0
C652 C 0.66615 0.06684 0.60162 0.0
C653 C 0.65508 0.05895 0.59424 0.0
C654 C 0.64879 0.05439 0.61564 0.0
C655 C 0.66299 0.06483 0.61242 0.0
C656 C 0.63773 0.04657 0.60827 0.0
C657 C 0.57649 0.01745 0.56678 0.0
C658 C 0.54864 0.03036 0.5724 0.0
C659 C 0.54914 0.00095 0.56654 0.0
C660 C 0.56746 0.0021 0.56489 0.0
C661 C 0.53941 0.0152 0.57004 0.0
C662 C 0.56701 0.03148 0.57079 0.0
C663 C 0.59531 0.01885 0.5636 0.0
O664 O 0.64418 0.04137 0.55961 0.0
O665 O 0.64981 0.01569 0.56562 0.0
O666 O 0.60662 0.00868 0.56835 0.0
O667 O 0.60153 0.03435 0.56209 0.0
H668 H 0.63254 0.00406 0.54881 0.0
H669 H 0.63405 0.99461 0.53066 0.0
H670 H 0.67907 0.02793 0.52549 0.0
H671 H 0.67784 0.03685 0.54387 0.0
H672 H 0.67711 0.07462 0.59887 0.0
H673 H 0.65761 0.06089 0.58598 0.0
H674 H 0.64581 0.05273 0.62387 0.0
H675 H 0.62661 0.03895 0.61098 0.0
H676 H 0.54156 0.04161 0.57505 0.0
H677 H 0.54252 0.98898 0.56484 0.0
H678 H 0.5745 0.99111 0.56182 0.0
H679 H 0.57366 0.04349 0.57235 0.0
C680 C 0.23756 0.40712 0.8 0.0
C681 C 0.24989 0.39595 0.79541 0.0
C682 C 0.24483 0.40889 0.77833 0.0
C683 C 0.25357 0.39689 0.78472 0.0
C684 C 0.23271 0.4203 0.783 0.0
C685 C 0.22911 0.4194 0.79375 0.0
U686 U 0.23321 0.37809 0.82321 0.0
O687 O 0.23881 0.38133 0.83999 0.0
O688 O 0.21189 0.37452 0.8348 0.0
C689 C 0.22219 0.37863 0.84272 0.0
C690 C 0.23253 0.40506 0.81108 0.0
C691 C 0.21458 0.39069 0.85031 0.0
C692 C 0.2065 0.4194 0.85578 0.0
C693 C 0.21404 0.40833 0.84839 0.0
C694 C 0.20004 0.39527 0.86703 0.0
C695 C 0.19937 0.41298 0.86519 0.0
C696 C 0.20758 0.38427 0.85967 0.0
C697 C 0.24708 0.33132 0.81819 0.0
C698 C 0.23531 0.30467 0.82513 0.0
C699 C 0.26403 0.30505 0.81656 0.0
C700 C 0.26239 0.32262 0.81493 0.0
C701 C 0.25029 0.29576 0.82142 0.0
C702 C 0.23372 0.3223 0.82354 0.0
C703 C 0.24479 0.34935 0.81514 0.0
O704 O 0.21858 0.39528 0.81264 0.0
O705 O 0.24569 0.40178 0.81755 0.0
O706 O 0.25534 0.36049 0.81968 0.0
O707 O 0.22832 0.35475 0.81418 0.0
H708 H 0.25646 0.38626 0.80007 0.0
H709 H 0.26319 0.3881 0.78144 0.0
H710 H 0.22559 0.42956 0.77832 0.0
H711 H 0.2194 0.42801 0.79713 0.0
H712 H 0.20633 0.43297 0.85414 0.0
H713 H 0.21941 0.41349 0.84118 0.0
H714 H 0.19439 0.38982 0.87407 0.0
H715 H 0.20782 0.37067 0.86125 0.0
H716 H 0.22443 0.29793 0.82883 0.0
H717 H 0.27591 0.29866 0.81379 0.0
H718 H 0.27289 0.32935 0.81084 0.0
H719 H 0.22179 0.32874 0.82618 0.0
C720 C 0.84583 0.98025 0.04767 0.0
C721 C 0.85815 0.99211 0.04375 0.0
C722 C 0.84441 0.99071 0.02649 0.0
C723 C 0.85738 0.99736 0.03331 0.0
C724 C 0.83194 0.97896 0.03049 0.0
C725 C 0.83267 0.97378 0.04099 0.0
U726 U 0.87504 0.9718 0.07093 0.0
O727 O 0.87145 0.97593 0.08786 0.0
O728 O 0.87714 0.95021 0.08184 0.0
C729 C 0.87323 0.95961 0.09005 0.0
C730 C 0.84738 0.97394 0.05851 0.0
C731 C 0.86034 0.95237 0.09752 0.0
C732 C 0.83476 0.93457 0.10163 0.0
C733 C 0.84582 0.94244 0.09424 0.0
C734 C 0.85225 0.9469 0.11563 0.0
C735 C 0.83798 0.93653 0.11243 0.0
C736 C 0.8633 0.95471 0.10825 0.0
C737 C 0.9244 0.98341 0.06691 0.0
C738 C 0.9501 0.97199 0.0761 0.0
C739 C 0.95334 0.99671 0.06486 0.0
C740 C 0.9352 0.99615 0.06258 0.0
C741 C 0.96108 0.98447 0.07151 0.0
C742 C 0.93188 0.97149 0.07384 0.0
C743 C 0.90573 0.98227 0.06354 0.0
O744 O 0.85679 0.9599 0.05957 0.0
O745 O 0.85124 0.9856 0.06557 0.0
O746 O 0.89446 0.99247 0.0683 0.0
O747 O 0.89949 0.96677 0.06208 0.0
H748 H 0.86852 0.99718 0.04875 0.0
H749 H 0.86701 0.00664 0.03059 0.0
H750 H 0.82192 0.9734 0.02546 0.0
H751 H 0.82315 0.96448 0.04383 0.0
H752 H 0.82375 0.92685 0.09889 0.0
H753 H 0.84324 0.94053 0.08598 0.0
H754 H 0.85528 0.94852 0.12385 0.0
H755 H 0.87447 0.96227 0.11095 0.0
H756 H 0.95562 0.96249 0.08134 0.0
H757 H 0.96143 0.00635 0.06107 0.0
H758 H 0.92967 0.00543 0.05719 0.0
H759 H 0.92373 0.96158 0.07732 0.0
C760 C 0.263 0.59446 0.2983 0.0
C761 C 0.2515 0.60626 0.29355 0.0
C762 C 0.25616 0.5928 0.27657 0.0
C763 C 0.24804 0.60538 0.28282 0.0
C764 C 0.26748 0.58082 0.28141 0.0
C765 C 0.27087 0.58167 0.29218 0.0
U766 U 0.26668 0.62266 0.32199 0.0
O767 O 0.26012 0.61862 0.33862 0.0
O768 O 0.28734 0.62549 0.334 0.0
C769 C 0.27667 0.62087 0.34164 0.0
C770 C 0.26757 0.59616 0.30945 0.0
C771 C 0.28375 0.60829 0.34915 0.0
C772 C 0.30424 0.58546 0.35378 0.0
C773 C 0.29657 0.59613 0.34624 0.0
C774 C 0.28589 0.59849 0.36715 0.0
C775 C 0.29921 0.58671 0.36437 0.0
C776 C 0.27829 0.60918 0.35962 0.0
C777 C 0.25373 0.6697 0.31765 0.0
C778 C 0.26342 0.69416 0.32789 0.0
C779 C 0.24041 0.69755 0.31478 0.0
C780 C 0.24151 0.68016 0.31243 0.0
C781 C 0.25158 0.70483 0.32241 0.0
C782 C 0.26445 0.67672 0.32555 0.0
C783 C 0.25584 0.65189 0.31421 0.0
O784 O 0.28155 0.60576 0.31135 0.0
O785 O 0.25415 0.5994 0.31575 0.0
O786 O 0.24496 0.64067 0.3184 0.0
O787 O 0.2723 0.64639 0.31348 0.0
H788 H 0.24537 0.61633 0.29812 0.0
H789 H 0.23903 0.61464 0.27943 0.0
H790 H 0.27413 0.57109 0.27683 0.0
H791 H 0.27992 0.57255 0.29569 0.0
H792 H 0.31455 0.57665 0.35137 0.0
H793 H 0.30097 0.59517 0.33819 0.0
H794 H 0.28144 0.59959 0.37519 0.0
H795 H 0.26837 0.61842 0.36202 0.0
H796 H 0.27206 0.69935 0.33388 0.0
H797 H 0.23132 0.70542 0.31031 0.0
H798 H 0.23316 0.67498 0.30629 0.0
H799 H 0.27392 0.6688 0.32971 0.0
C800 C 0.6546 0.98058 0.46139 0.0
C801 C 0.64246 0.99259 0.46533 0.0
C802 C 0.65634 0.99111 0.48255 0.0
C803 C 0.64339 0.99787 0.47576 0.0
C804 C 0.66864 0.97922 0.47852 0.0
C805 C 0.66776 0.97401 0.46804 0.0
U806 U 0.62479 0.97193 0.43846 0.0
O807 O 0.62783 0.97589 0.42148 0.0
O808 O 0.62236 0.95022 0.42765 0.0
C809 C 0.62585 0.95957 0.41935 0.0
C810 C 0.65279 0.97419 0.45059 0.0
C811 C 0.63837 0.95223 0.41173 0.0
C812 C 0.66603 0.93785 0.40731 0.0
C813 C 0.655 0.94573 0.41472 0.0
C814 C 0.64408 0.94328 0.39384 0.0
C815 C 0.66062 0.93637 0.39678 0.0
C816 C 0.63311 0.95112 0.40124 0.0
C817 C 0.57556 0.98352 0.44291 0.0
C818 C 0.54973 0.97206 0.43387 0.0
C819 C 0.54663 0.99675 0.44516 0.0
C820 C 0.56482 0.99622 0.44732 0.0
C821 C 0.5388 0.98452 0.43854 0.0
C822 C 0.56799 0.97159 0.43602 0.0
C823 C 0.59431 0.98244 0.44612 0.0
O824 O 0.64338 0.96012 0.44965 0.0
O825 O 0.64876 0.98578 0.44352 0.0
O826 O 0.60544 0.99262 0.44122 0.0
O827 O 0.60062 0.96697 0.44758 0.0
H828 H 0.63208 0.99774 0.46037 0.0
H829 H 0.63388 0.00725 0.4785 0.0
H830 H 0.67865 0.97357 0.48353 0.0
H831 H 0.67714 0.9646 0.46518 0.0
H832 H 0.67876 0.93284 0.40982 0.0
H833 H 0.6593 0.94652 0.4228 0.0
H834 H 0.63931 0.94215 0.38588 0.0
H835 H 0.62029 0.95601 0.39879 0.0
H836 H 0.54413 0.96257 0.42866 0.0
H837 H 0.53859 0.00637 0.449 0.0
H838 H 0.57043 0.0055 0.45269 0.0
H839 H 0.5761 0.96172 0.43248 0.0
C840 C 0.26327 0.4068 0.71159 0.0
C841 C 0.25191 0.39491 0.71637 0.0
C842 C 0.25644 0.40854 0.73331 0.0
C843 C 0.24845 0.39583 0.7271 0.0
C844 C 0.26763 0.42059 0.72844 0.0
C845 C 0.27102 0.4197 0.71767 0.0
U846 U 0.26693 0.37858 0.68789 0.0
O847 O 0.2603 0.38262 0.67127 0.0
O848 O 0.28756 0.3758 0.67585 0.0
C849 C 0.27684 0.3804 0.66822 0.0
C850 C 0.26782 0.40508 0.70042 0.0
C851 C 0.28387 0.39299 0.6607 0.0
C852 C 0.30423 0.41592 0.65606 0.0
C853 C 0.2966 0.40522 0.66361 0.0
C854 C 0.28598 0.40274 0.64269 0.0
C855 C 0.29922 0.41461 0.64546 0.0
C856 C 0.27844 0.39203 0.65023 0.0
C857 C 0.25405 0.33151 0.69223 0.0
C858 C 0.26377 0.30704 0.682 0.0
C859 C 0.2406 0.30371 0.69502 0.0
C860 C 0.24174 0.32108 0.6974 0.0
C861 C 0.25182 0.2964 0.68743 0.0
C862 C 0.26484 0.32448 0.68436 0.0
C863 C 0.25616 0.34933 0.69568 0.0
O864 O 0.2818 0.39551 0.69852 0.0
O865 O 0.25437 0.40182 0.69415 0.0
O866 O 0.24525 0.36054 0.69151 0.0
O867 O 0.27262 0.35485 0.69638 0.0
H868 H 0.24588 0.38476 0.71183 0.0
H869 H 0.23954 0.38651 0.73052 0.0
H870 H 0.27418 0.43042 0.73299 0.0
H871 H 0.27995 0.4289 0.71413 0.0
H872 H 0.31448 0.42479 0.65847 0.0
H873 H 0.30098 0.40623 0.67166 0.0
H874 H 0.28156 0.40159 0.63466 0.0
H875 H 0.26858 0.38272 0.64784 0.0
H876 H 0.27245 0.30184 0.67604 0.0
H877 H 0.23143 0.29586 0.69945 0.0
H878 H 0.23335 0.32629 0.70351 0.0
H879 H 0.27438 0.33237 0.68024 0.0
C880 C 0.84628 0.02081 0.96136 0.0
C881 C 0.85844 0.0088 0.96528 0.0
C882 C 0.8446 0.01026 0.98251 0.0
C883 C 0.85754 0.0035 0.97571 0.0
C884 C 0.8323 0.02216 0.9785 0.0
C885 C 0.83315 0.02738 0.96802 0.0
U886 U 0.87598 0.02949 0.93836 0.0
O887 O 0.87285 0.02554 0.92139 0.0
O888 O 0.87833 0.05121 0.92755 0.0
C889 C 0.87478 0.04186 0.91926 0.0
C890 C 0.84805 0.02721 0.95055 0.0
C891 C 0.86219 0.0492 0.91167 0.0
C892 C 0.83477 0.06408 0.90736 0.0
C893 C 0.84582 0.05617 0.91475 0.0
C894 C 0.85617 0.05771 0.89374 0.0
C895 C 0.83991 0.06511 0.89677 0.0
C896 C 0.86716 0.04985 0.90112 0.0
C897 C 0.92526 0.01792 0.94272 0.0
C898 C 0.95114 0.02954 0.9338 0.0
C899 C 0.95414 0.00453 0.94483 0.0
C900 C 0.93595 0.00505 0.947 0.0
C901 C 0.96202 0.01692 0.93834 0.0
C902 C 0.93288 0.03001 0.93595 0.0
C903 C 0.90651 0.01899 0.94596 0.0
O904 O 0.85745 0.04128 0.9496 0.0
O905 O 0.85206 0.01562 0.94347 0.0
O906 O 0.89536 0.00882 0.94108 0.0
O907 O 0.9002 0.03446 0.94743 0.0
H908 H 0.8688 0.00364 0.9603 0.0
H909 H 0.86704 0.99411 0.97843 0.0
H910 H 0.8223 0.0278 0.98353 0.0
H911 H 0.82377 0.0368 0.96517 0.0
H912 H 0.82225 0.06946 0.90994 0.0
H913 H 0.84173 0.05573 0.92288 0.0
H914 H 0.86073 0.05849 0.88572 0.0
H915 H 0.87978 0.04459 0.8986 0.0
H916 H 0.95678 0.03916 0.92869 0.0
H917 H 0.96214 0.99478 0.94857 0.0
H918 H 0.9303 0.99565 0.95226 0.0
H919 H 0.92482 0.04001 0.93251 0.0
C920 C 0.23758 0.59445 0.20985 0.0
C921 C 0.24973 0.60575 0.2145 0.0
C922 C 0.24467 0.59267 0.23155 0.0
C923 C 0.25332 0.6048 0.22521 0.0
C924 C 0.23272 0.58116 0.22681 0.0
C925 C 0.22921 0.58207 0.21606 0.0
U926 U 0.23357 0.62334 0.18655 0.0
O927 O 0.23946 0.61993 0.16981 0.0
O928 O 0.21247 0.62682 0.17483 0.0
C929 C 0.22289 0.62263 0.16698 0.0
C930 C 0.23271 0.59645 0.19875 0.0
C931 C 0.21538 0.61047 0.15942 0.0
C932 C 0.20447 0.58226 0.15475 0.0
C933 C 0.21223 0.59334 0.16206 0.0
C934 C 0.20317 0.60531 0.14213 0.0
C935 C 0.19974 0.58815 0.14471 0.0
C936 C 0.21092 0.61633 0.14941 0.0
C937 C 0.24717 0.67005 0.19138 0.0
C938 C 0.23772 0.69475 0.18128 0.0
C939 C 0.26042 0.69782 0.1946 0.0
C940 C 0.25926 0.68038 0.1968 0.0
C941 C 0.24944 0.70528 0.18695 0.0
C942 C 0.23663 0.67725 0.18346 0.0
C943 C 0.24499 0.65215 0.19462 0.0
O944 O 0.21878 0.60623 0.19709 0.0
O945 O 0.24597 0.59971 0.19234 0.0
O946 O 0.2556 0.64099 0.19015 0.0
O947 O 0.2285 0.64679 0.19546 0.0
H948 H 0.25624 0.61553 0.20988 0.0
H949 H 0.26281 0.61368 0.22852 0.0
H950 H 0.22567 0.57179 0.23146 0.0
H951 H 0.21964 0.57336 0.21263 0.0
H952 H 0.20217 0.56909 0.15697 0.0
H953 H 0.21564 0.58861 0.16977 0.0
H954 H 0.19943 0.6104 0.13456 0.0
H955 H 0.2132 0.62954 0.14727 0.0
H956 H 0.22923 0.70008 0.17526 0.0
H957 H 0.26941 0.70557 0.19921 0.0
H958 H 0.26745 0.67504 0.20296 0.0
H959 H 0.22726 0.66943 0.17915 0.0
C960 C 0.34649 0.97956 0.46179 0.0
C961 C 0.35905 0.99117 0.46572 0.0
C962 C 0.34493 0.99041 0.48289 0.0
C963 C 0.35821 0.99661 0.47612 0.0
C964 C 0.33223 0.9789 0.47887 0.0
C965 C 0.33303 0.97353 0.46842 0.0
U966 U 0.37601 0.97085 0.43875 0.0
O967 O 0.37841 0.9491 0.42796 0.0
O968 O 0.37283 0.97474 0.42178 0.0
C969 C 0.3749 0.95843 0.41965 0.0
C970 C 0.34813 0.97307 0.45099 0.0
C971 C 0.36251 0.95102 0.41198 0.0
C972 C 0.33492 0.93664 0.4074 0.0
C973 C 0.34583 0.94453 0.41488 0.0
C974 C 0.35713 0.94199 0.39407 0.0
C975 C 0.34052 0.93513 0.39691 0.0
C976 C 0.36797 0.94984 0.40153 0.0
C977 C 0.42522 0.98278 0.44306 0.0
C978 C 0.45112 0.97154 0.43399 0.0
C979 C 0.45402 0.9963 0.44524 0.0
C980 C 0.43585 0.99561 0.44744 0.0
C981 C 0.46194 0.98413 0.43862 0.0
C982 C 0.43288 0.9709 0.43617 0.0
C983 C 0.40649 0.98156 0.44631 0.0
O984 O 0.35204 0.98462 0.44387 0.0
O985 O 0.35759 0.95904 0.45004 0.0
O986 O 0.40031 0.96604 0.44779 0.0
O987 O 0.39525 0.99165 0.44143 0.0
H988 H 0.36965 0.99591 0.46077 0.0
H989 H 0.36804 0.00568 0.47886 0.0
H990 H 0.32194 0.97369 0.48387 0.0
H991 H 0.32332 0.96443 0.46555 0.0
H992 H 0.32214 0.93166 0.40984 0.0
H993 H 0.34137 0.94537 0.42293 0.0
H994 H 0.36205 0.94083 0.38614 0.0
H995 H 0.38084 0.95472 0.39916 0.0
H996 H 0.45679 0.96209 0.42878 0.0
H997 H 0.46198 0.00601 0.44905 0.0
H998 H 0.43017 0.00485 0.4528 0.0
H999 H 0.42485 0.96094 0.43266 0.0
C1000 C 0.76472 0.59584 0.21068 0.0
C1001 C 0.75286 0.60748 0.21527 0.0
C1002 C 0.75721 0.59421 0.23233 0.0
C1003 C 0.74906 0.60662 0.22595 0.0
C1004 C 0.76891 0.58241 0.22766 0.0
C1005 C 0.77263 0.58323 0.21693 0.0
U1006 U 0.76897 0.62406 0.18704 0.0
O1007 O 0.78998 0.62698 0.17524 0.0
O1008 O 0.76293 0.62004 0.17034 0.0
C1009 C 0.77953 0.62241 0.16748 0.0
C1010 C 0.76964 0.59755 0.19957 0.0
C1011 C 0.7869 0.6098 0.16011 0.0
C1012 C 0.80433 0.58437 0.15637 0.0
C1013 C 0.79643 0.59547 0.1636 0.0
C1014 C 0.79277 0.6015 0.14213 0.0
C1015 C 0.80276 0.58737 0.14554 0.0
C1016 C 0.78495 0.6126 0.14935 0.0
C1017 C 0.7555 0.67101 0.19137 0.0
C1018 C 0.76523 0.69571 0.18135 0.0
C1019 C 0.74179 0.69868 0.19422 0.0
C1020 C 0.74301 0.68128 0.19651 0.0
C1021 C 0.7531 0.70618 0.18675 0.0
C1022 C 0.76639 0.67824 0.18361 0.0
C1023 C 0.7577 0.65318 0.19475 0.0
O1024 O 0.7564 0.6007 0.19313 0.0
O1025 O 0.78362 0.60722 0.19782 0.0
O1026 O 0.77419 0.6478 0.19561 0.0
O1027 O 0.74703 0.64192 0.19044 0.0
H1028 H 0.7467 0.61741 0.2106 0.0
H1029 H 0.73977 0.61574 0.22922 0.0
H1030 H 0.77559 0.57282 0.23234 0.0
H1031 H 0.78196 0.57424 0.21354 0.0
H1032 H 0.81175 0.57349 0.15926 0.0
H1033 H 0.79799 0.59303 0.1719 0.0
H1034 H 0.79147 0.60432 0.13387 0.0
H1035 H 0.77767 0.62361 0.14652 0.0
H1036 H 0.774 0.70106 0.17547 0.0
H1037 H 0.73247 0.70639 0.19864 0.0
H1038 H 0.73454 0.67592 0.20253 0.0
H1039 H 0.77608 0.67048 0.17952 0.0
C1040 C 0.15393 0.02123 0.96276 0.0
C1041 C 0.14135 0.0096 0.96664 0.0
C1042 C 0.15529 0.01037 0.98387 0.0
C1043 C 0.14209 0.00415 0.97705 0.0
C1044 C 0.168 0.02192 0.9799 0.0
C1045 C 0.1673 0.02729 0.96944 0.0
U1046 U 0.12494 0.03 0.93944 0.0
O1047 O 0.12299 0.05168 0.92859 0.0
O1048 O 0.12863 0.02599 0.9225 0.0
C1049 C 0.12688 0.04232 0.92035 0.0
C1050 C 0.15248 0.02766 0.95194 0.0
C1051 C 0.13973 0.0496 0.91286 0.0
C1052 C 0.16497 0.0678 0.90864 0.0
C1053 C 0.15401 0.05988 0.91608 0.0
C1054 C 0.14783 0.0548 0.89471 0.0
C1055 C 0.16186 0.06553 0.89786 0.0
C1056 C 0.1369 0.04696 0.90214 0.0
C1057 C 0.07552 0.01834 0.9433 0.0
C1058 C 0.04977 0.02986 0.93421 0.0
C1059 C 0.04668 0.00476 0.94515 0.0
C1060 C 0.06481 0.00538 0.94747 0.0
C1061 C 0.03887 0.01714 0.93863 0.0
C1062 C 0.06798 0.03042 0.9365 0.0
C1063 C 0.09417 0.01949 0.94671 0.0
O1064 O 0.14867 0.01609 0.94482 0.0
O1065 O 0.14311 0.04174 0.9509 0.0
O1066 O 0.1004 0.03498 0.94822 0.0
O1067 O 0.10549 0.00932 0.94196 0.0
H1068 H 0.13082 0.00483 0.96165 0.0
H1069 H 0.13226 0.99505 0.97974 0.0
H1070 H 0.17821 0.02715 0.98493 0.0
H1071 H 0.17703 0.0364 0.96661 0.0
H1072 H 0.17579 0.07579 0.91134 0.0
H1073 H 0.15649 0.06205 0.92433 0.0
H1074 H 0.14488 0.05293 0.8865 0.0
H1075 H 0.1259 0.03913 0.89949 0.0
H1076 H 0.04419 0.03947 0.92907 0.0
H1077 H 0.03866 0.99494 0.94881 0.0
H1078 H 0.07039 0.99598 0.95276 0.0
H1079 H 0.07606 0.04049 0.93315 0.0
C1080 C 0.73633 0.40544 0.71075 0.0
C1081 C 0.74829 0.39391 0.71535 0.0
C1082 C 0.74396 0.4073 0.73238 0.0
C1083 C 0.75214 0.39489 0.72603 0.0
C1084 C 0.73221 0.41904 0.72768 0.0
C1085 C 0.72842 0.41809 0.71696 0.0
U1086 U 0.73195 0.3766 0.68744 0.0
O1087 O 0.71055 0.37302 0.6759 0.0
O1088 O 0.73738 0.38006 0.67066 0.0
C1089 C 0.72076 0.37724 0.66797 0.0
C1090 C 0.7312 0.40345 0.69969 0.0
C1091 C 0.71299 0.38921 0.66038 0.0
C1092 C 0.70501 0.41787 0.65474 0.0
C1093 C 0.71265 0.40689 0.66216 0.0
C1094 C 0.69805 0.39355 0.64375 0.0
C1095 C 0.69761 0.41131 0.64544 0.0
C1096 C 0.70568 0.38265 0.65114 0.0
C1097 C 0.74604 0.32999 0.69204 0.0
C1098 C 0.73664 0.30536 0.68187 0.0
C1099 C 0.75958 0.30228 0.69505 0.0
C1100 C 0.7583 0.31968 0.69734 0.0
C1101 C 0.74854 0.29484 0.68741 0.0
C1102 C 0.73544 0.32282 0.68414 0.0
C1103 C 0.74381 0.34784 0.69536 0.0
O1104 O 0.74433 0.4003 0.69316 0.0
O1105 O 0.71731 0.39358 0.69814 0.0
O1106 O 0.7273 0.35308 0.69635 0.0
O1107 O 0.75421 0.35912 0.69083 0.0
H1108 H 0.75445 0.38394 0.71072 0.0
H1109 H 0.76148 0.38582 0.72931 0.0
H1110 H 0.72551 0.42863 0.73234 0.0
H1111 H 0.71902 0.42699 0.71357 0.0
H1112 H 0.70502 0.43148 0.65626 0.0
H1113 H 0.71825 0.41217 0.66927 0.0
H1114 H 0.69218 0.38799 0.63681 0.0
H1115 H 0.70576 0.36901 0.64966 0.0
H1116 H 0.7281 0.30005 0.67587 0.0
H1117 H 0.76871 0.29454 0.69957 0.0
H1118 H 0.76656 0.325 0.70348 0.0
H1119 H 0.72594 0.33062 0.67992 0.0
C1120 C 0.34644 0.02272 0.54764 0.0
C1121 C 0.35823 0.01015 0.54401 0.0
C1122 C 0.34474 0.01122 0.52666 0.0
C1123 C 0.35732 0.00438 0.53367 0.0
C1124 C 0.33276 0.02365 0.53039 0.0
C1125 C 0.33362 0.02935 0.54078 0.0
U1126 U 0.37628 0.03182 0.5705 0.0
O1127 O 0.3795 0.05435 0.58067 0.0
O1128 O 0.37299 0.02937 0.58753 0.0
C1129 C 0.3756 0.04575 0.5892 0.0
C1130 C 0.34835 0.02972 0.5583 0.0
C1131 C 0.3636 0.0542 0.59671 0.0
C1132 C 0.33482 0.05775 0.60516 0.0
C1133 C 0.34544 0.05017 0.59741 0.0
C1134 C 0.36034 0.0736 0.61142 0.0
C1135 C 0.34221 0.06942 0.61234 0.0
C1136 C 0.37088 0.06606 0.60371 0.0
C1137 C 0.42521 0.01815 0.56645 0.0
C1138 C 0.45311 0.03077 0.57222 0.0
C1139 C 0.45241 0.00141 0.56626 0.0
C1140 C 0.43412 0.00274 0.56454 0.0
C1141 C 0.46222 0.01555 0.56985 0.0
C1142 C 0.43476 0.03206 0.57054 0.0
C1143 C 0.40642 0.01971 0.56327 0.0
O1144 O 0.35187 0.01847 0.56567 0.0
O1145 O 0.35827 0.0435 0.55894 0.0
O1146 O 0.40064 0.03522 0.56129 0.0
O1147 O 0.39489 0.01029 0.56842 0.0
H1148 H 0.36835 0.00494 0.54913 0.0
H1149 H 0.36657 0.99461 0.53116 0.0
H1150 H 0.32305 0.02936 0.52521 0.0
H1151 H 0.32453 0.0392 0.5434 0.0
H1152 H 0.32093 0.0542 0.60567 0.0
H1153 H 0.33954 0.04102 0.59208 0.0
H1154 H 0.36641 0.08279 0.61666 0.0
H1155 H 0.38486 0.06936 0.60329 0.0
H1156 H 0.46026 0.04194 0.57493 0.0
H1157 H 0.45893 0.9894 0.56455 0.0
H1158 H 0.427 0.99183 0.56142 0.0
H1159 H 0.42819 0.0441 0.57212 0.0
C1160 C 0.73691 0.59569 0.2989 0.0
C1161 C 0.74882 0.60729 0.29432 0.0
C1162 C 0.74436 0.59413 0.27724 0.0
C1163 C 0.75259 0.60646 0.28363 0.0
C1164 C 0.73261 0.58236 0.2819 0.0
C1165 C 0.72891 0.58315 0.29264 0.0
U1166 U 0.73288 0.62386 0.32256 0.0
O1167 O 0.71191 0.62689 0.33437 0.0
O1168 O 0.73893 0.6198 0.33925 0.0
C1169 C 0.72234 0.62227 0.34213 0.0
C1170 C 0.73202 0.59739 0.31001 0.0
C1171 C 0.71491 0.60972 0.3495 0.0
C1172 C 0.69741 0.58434 0.35327 0.0
C1173 C 0.70538 0.59539 0.34603 0.0
C1174 C 0.70892 0.60155 0.3675 0.0
C1175 C 0.69893 0.58741 0.3641 0.0
C1176 C 0.7168 0.61259 0.36026 0.0
C1177 C 0.7466 0.67074 0.31825 0.0
C1178 C 0.73716 0.69532 0.32846 0.0
C1179 C 0.76016 0.69845 0.31532 0.0
C1180 C 0.7589 0.68106 0.313 0.0
C1181 C 0.74908 0.70587 0.32294 0.0
C1182 C 0.73596 0.67787 0.32615 0.0
C1183 C 0.74431 0.65293 0.31484 0.0
O1184 O 0.74529 0.60044 0.31645 0.0
O1185 O 0.7181 0.60712 0.31178 0.0
O1186 O 0.72779 0.64764 0.31399 0.0
O1187 O 0.75493 0.6416 0.31915 0.0
H1188 H 0.75505 0.61717 0.29899 0.0
H1189 H 0.76192 0.61555 0.28037 0.0
H1190 H 0.72586 0.57284 0.27721 0.0
H1191 H 0.71955 0.57419 0.29601 0.0
H1192 H 0.68999 0.57345 0.3504 0.0
H1193 H 0.70386 0.59291 0.33774 0.0
H1194 H 0.71018 0.60442 0.37575 0.0
H1195 H 0.72409 0.62361 0.36308 0.0
H1196 H 0.72858 0.70061 0.33444 0.0
H1197 H 0.76931 0.70621 0.31082 0.0
H1198 H 0.76717 0.67577 0.30686 0.0
H1199 H 0.72642 0.67006 0.33033 0.0
C1200 C 0.15348 0.97857 0.04872 0.0
C1201 C 0.1416 0.99098 0.04498 0.0
C1202 C 0.1552 0.98974 0.02767 0.0
C1203 C 0.14252 0.99658 0.03461 0.0
C1204 C 0.16726 0.97745 0.0315 0.0
C1205 C 0.16639 0.97192 0.04193 0.0
U1206 U 0.12357 0.96973 0.07156 0.0
O1207 O 0.12052 0.94754 0.08201 0.0
O1208 O 0.12662 0.97282 0.08857 0.0
C1209 C 0.1241 0.95648 0.09046 0.0
C1210 C 0.1516 0.9718 0.05944 0.0
C1211 C 0.13613 0.94849 0.09811 0.0
C1212 C 0.16562 0.94175 0.10477 0.0
C1213 C 0.1547 0.94926 0.09713 0.0
C1214 C 0.13946 0.93265 0.11433 0.0
C1215 C 0.1581 0.93342 0.11349 0.0
C1216 C 0.12864 0.94011 0.10672 0.0
C1217 C 0.07467 0.98261 0.06728 0.0
C1218 C 0.0487 0.97146 0.07634 0.0
C1219 C 0.04591 0.99621 0.06507 0.0
C1220 C 0.06409 0.99546 0.06289 0.0
C1221 C 0.03793 0.98406 0.07169 0.0
C1222 C 0.06695 0.97077 0.07418 0.0
C1223 C 0.09339 0.98128 0.06405 0.0
O1224 O 0.14789 0.98319 0.06669 0.0
O1225 O 0.14184 0.95792 0.06019 0.0
O1226 O 0.09931 0.96574 0.06234 0.0
O1227 O 0.10475 0.99097 0.06913 0.0
H1228 H 0.13141 0.9962 0.05005 0.0
H1229 H 0.13321 0.00625 0.03203 0.0
H1230 H 0.17706 0.97174 0.02637 0.0
H1231 H 0.17556 0.9622 0.04463 0.0
H1232 H 0.17991 0.94266 0.10391 0.0
H1233 H 0.16073 0.95571 0.09052 0.0
H1234 H 0.13319 0.92606 0.1208 0.0
H1235 H 0.11432 0.93935 0.10759 0.0
H1236 H 0.04299 0.96203 0.08155 0.0
H1237 H 0.038 0.00593 0.06124 0.0
H1238 H 0.06981 0.00467 0.05753 0.0
H1239 H 0.07494 0.96079 0.0777 0.0
C1240 C 0.76426 0.40571 0.79894 0.0
C1241 C 0.75218 0.39425 0.79437 0.0
C1242 C 0.75664 0.40746 0.7773 0.0
C1243 C 0.74833 0.39518 0.78369 0.0
C1244 C 0.76852 0.41912 0.78195 0.0
C1245 C 0.7723 0.41823 0.79268 0.0
U1246 U 0.76844 0.37696 0.82229 0.0
O1247 O 0.78983 0.37325 0.83382 0.0
O1248 O 0.76307 0.38051 0.83907 0.0
C1249 C 0.77967 0.37757 0.84175 0.0
C1250 C 0.76939 0.40374 0.81 0.0
C1251 C 0.78756 0.38949 0.84933 0.0
C1252 C 0.79562 0.41812 0.85498 0.0
C1253 C 0.78791 0.40718 0.84757 0.0
C1254 C 0.80265 0.39375 0.86591 0.0
C1255 C 0.8031 0.41152 0.86425 0.0
C1256 C 0.79494 0.38289 0.85853 0.0
C1257 C 0.75397 0.33044 0.81775 0.0
C1258 C 0.76309 0.30585 0.82805 0.0
C1259 C 0.74048 0.30274 0.81468 0.0
C1260 C 0.74182 0.32012 0.81237 0.0
C1261 C 0.75132 0.29532 0.82242 0.0
C1262 C 0.76437 0.3233 0.82575 0.0
C1263 C 0.75633 0.34827 0.81441 0.0
O1264 O 0.75624 0.40073 0.81654 0.0
O1265 O 0.7832 0.39378 0.81156 0.0
O1266 O 0.77288 0.35338 0.8134 0.0
O1267 O 0.74602 0.35963 0.81894 0.0
H1268 H 0.74592 0.38438 0.79904 0.0
H1269 H 0.7389 0.38617 0.78044 0.0
H1270 H 0.77532 0.42861 0.77726 0.0
H1271 H 0.7818 0.42706 0.79604 0.0
H1272 H 0.79562 0.43174 0.85348 0.0
H1273 H 0.78225 0.4125 0.84049 0.0
H1274 H 0.80857 0.38816 0.87283 0.0
H1275 H 0.79485 0.36925 0.85999 0.0
H1276 H 0.77148 0.30056 0.83413 0.0
H1277 H 0.73145 0.29497 0.8101 0.0
H1278 H 0.73373 0.32542 0.80615 0.0
H1279 H 0.77378 0.33111 0.83003 0.0
C1280 C 0.14068 0.49974 0.99953 0.0
C1281 C 0.15679 0.49855 0.99398 0.0
H1282 H 0.12791 0.50334 0.01429 0.0
C1283 C 0.17285 0.4998 0.99958 0.0
H1284 H 0.12805 0.49858 0.99553 0.0
C1285 C 0.17277 0.50226 0.01044 0.0
C1286 C 0.15663 0.50347 0.01597 0.0
H1287 H 0.1855 0.49907 0.99556 0.0
H1288 H 0.18536 0.50303 0.01453 0.0
C1289 C 0.1406 0.50222 0.01035 0.0
C1290 C 0.75285 0.87606 0.25006 0.0
C1291 C 0.75384 0.89147 0.24442 0.0
H1292 H 0.74858 0.86393 0.26482 0.0
C1293 C 0.75155 0.90693 0.24988 0.0
H1294 H 0.7548 0.86391 0.24618 0.0
C1295 C 0.74829 0.90696 0.26067 0.0
C1296 C 0.74725 0.89152 0.26629 0.0
H1297 H 0.75206 0.91904 0.24579 0.0
H1298 H 0.74675 0.9191 0.26463 0.0
C1299 C 0.74954 0.87609 0.26082 0.0
C1300 C 0.36012 0.49945 0.5103 0.0
C1301 C 0.34403 0.49813 0.51585 0.0
H1302 H 0.37283 0.50324 0.49553 0.0
C1303 C 0.32795 0.49937 0.51028 0.0
H1304 H 0.37277 0.49831 0.51428 0.0
C1305 C 0.32798 0.50191 0.49942 0.0
C1306 C 0.3441 0.50324 0.49389 0.0
H1307 H 0.31531 0.49856 0.51431 0.0
H1308 H 0.31537 0.50264 0.49536 0.0
C1309 C 0.36015 0.50202 0.49949 0.0
C1310 C 0.75237 0.09404 0.76064 0.0
C1311 C 0.75339 0.10949 0.76624 0.0
H1312 H 0.74867 0.08194 0.74575 0.0
C1313 C 0.75113 0.12491 0.76076 0.0
H1314 H 0.75389 0.08191 0.76461 0.0
C1315 C 0.74787 0.12492 0.74999 0.0
C1316 C 0.74691 0.10951 0.74436 0.0
H1317 H 0.75207 0.13708 0.76475 0.0
H1318 H 0.74595 0.13707 0.7461 0.0
C1319 C 0.74916 0.09405 0.74983 0.0
C1320 C 0.82946 0.50175 0.00949 0.0
C1321 C 0.8456 0.50354 0.01495 0.0
H1322 H 0.81673 0.49789 0.99466 0.0
C1323 C 0.86161 0.50265 0.0093 0.0
H1324 H 0.81688 0.50222 0.0136 0.0
C1325 C 0.86153 0.49995 0.9985 0.0
C1326 C 0.84543 0.49817 0.99301 0.0
H1327 H 0.87429 0.50422 0.01319 0.0
H1328 H 0.87417 0.49908 0.99447 0.0
C1329 C 0.82938 0.49908 0.99864 0.0
C1330 C 0.24811 0.09495 0.75999 0.0
C1331 C 0.24634 0.11036 0.76557 0.0
H1332 H 0.25255 0.08296 0.74514 0.0
C1333 C 0.24795 0.12585 0.76006 0.0
H1334 H 0.24711 0.08278 0.76397 0.0
C1335 C 0.25135 0.12595 0.74931 0.0
C1336 C 0.2531 0.11057 0.74371 0.0
H1337 H 0.24642 0.13798 0.76403 0.0
H1338 H 0.25279 0.13815 0.74541 0.0
C1339 C 0.25145 0.09505 0.7492 0.0
C1340 C 0.63923 0.50281 0.50035 0.0
C1341 C 0.65528 0.50378 0.49473 0.0
H1342 H 0.62659 0.49913 0.51514 0.0
C1343 C 0.67138 0.50204 0.50023 0.0
H1344 H 0.62657 0.50433 0.49642 0.0
C1345 C 0.6714 0.49934 0.51107 0.0
C1346 C 0.65532 0.49834 0.51667 0.0
H1347 H 0.68399 0.50258 0.49615 0.0
H1348 H 0.68404 0.4982 0.51508 0.0
C1349 C 0.63925 0.50007 0.51114 0.0
C1350 C 0.25237 0.90588 0.26046 0.0
C1351 C 0.25392 0.89042 0.266 0.0
H1352 H 0.24803 0.91804 0.24565 0.0
C1353 C 0.25197 0.87499 0.26047 0.0
H1354 H 0.25364 0.91801 0.26446 0.0
C1355 C 0.24849 0.87501 0.24973 0.0
C1356 C 0.24699 0.89045 0.24416 0.0
H1357 H 0.25332 0.86282 0.26441 0.0
H1358 H 0.24682 0.86286 0.24581 0.0
C1359 C 0.24894 0.9059 0.24968 0.0
C1360 C 0.64063 0.00328 0.50984 0.0
C1361 C 0.65673 0.00559 0.51526 0.0
H1362 H 0.62787 0.99662 0.49548 0.0
C1363 C 0.67279 0.00313 0.50981 0.0
H1364 H 0.62799 0.0053 0.5137 0.0
C1365 C 0.67272 0.99844 0.49923 0.0
C1366 C 0.6566 0.9961 0.49383 0.0
H1367 H 0.68544 0.00464 0.51375 0.0
H1368 H 0.68533 0.99682 0.49525 0.0
C1369 C 0.64057 0.99854 0.4993 0.0
C1370 C 0.25155 0.42432 0.75031 0.0
C1371 C 0.2535 0.40882 0.74485 0.0
H1372 H 0.24747 0.43656 0.76512 0.0
C1373 C 0.25266 0.39344 0.75052 0.0
H1374 H 0.25197 0.4364 0.74619 0.0
C1375 C 0.24983 0.39352 0.76132 0.0
C1376 C 0.24789 0.40899 0.76679 0.0
H1377 H 0.25436 0.38126 0.74663 0.0
H1378 H 0.24898 0.38139 0.76535 0.0
C1379 C 0.24876 0.42441 0.76115 0.0
C1380 C 0.82821 0.9982 0.00978 0.0
C1381 C 0.84428 0.99571 0.01522 0.0
H1382 H 0.81564 0.00455 0.99524 0.0
C1383 C 0.86036 0.99801 0.00978 0.0
H1384 H 0.81556 0.9967 0.01373 0.0
C1385 C 0.86041 0.00277 0.99924 0.0
C1386 C 0.84437 0.00524 0.99378 0.0
H1387 H 0.87301 0.99597 0.01363 0.0
H1388 H 0.8731 0.00469 0.99541 0.0
C1389 C 0.82825 0.00291 0.9992 0.0
C1390 C 0.24942 0.60796 0.24861 0.0
C1391 C 0.24767 0.59251 0.24308 0.0
H1392 H 0.25378 0.62016 0.26333 0.0
C1393 C 0.2487 0.57707 0.24869 0.0
H1394 H 0.24843 0.62012 0.24461 0.0
C1395 C 0.25145 0.5771 0.25953 0.0
C1396 C 0.25322 0.59258 0.26503 0.0
H1397 H 0.24755 0.56493 0.24468 0.0
H1398 H 0.252 0.56499 0.26361 0.0
C1399 C 0.25222 0.60799 0.25941 0.0
C1400 C 0.32858 0.9987 0.49942 0.0
C1401 C 0.34469 0.99562 0.49413 0.0
H1402 H 0.3159 0.00583 0.51379 0.0
C1403 C 0.36072 0.99761 0.49968 0.0
H1404 H 0.31599 0.99745 0.49539 0.0
C1405 C 0.36068 0.00267 0.51016 0.0
C1406 C 0.3446 0.00577 0.51546 0.0
H1407 H 0.37338 0.99512 0.49595 0.0
H1408 H 0.37333 0.00434 0.51407 0.0
C1409 C 0.32854 0.00372 0.50995 0.0
C1410 C 0.74918 0.57852 0.26018 0.0
C1411 C 0.74765 0.59398 0.26573 0.0
H1412 H 0.75321 0.56642 0.24532 0.0
C1413 C 0.74924 0.60942 0.26018 0.0
H1414 H 0.74819 0.56639 0.2642 0.0
C1415 C 0.75238 0.60944 0.24941 0.0
C1416 C 0.75389 0.59402 0.24384 0.0
H1417 H 0.74788 0.62158 0.26414 0.0
H1418 H 0.7538 0.62162 0.24547 0.0
C1419 C 0.75227 0.57854 0.24936 0.0
C1420 C 0.17152 0.00215 1.00044 0.0
C1421 C 0.15545 0.00513 0.9951 0.0
H1422 H 0.18412 0.99516 0.01486 0.0
C1423 C 0.13938 0.00305 1.0006 0.0
H1424 H 0.18415 0.00346 0.99645 0.0
C1425 C 0.13936 0.99803 0.01109 0.0
C1426 C 0.15541 0.99506 0.01645 0.0
H1427 H 0.12674 0.00546 0.99683 0.0
H1428 H 0.12668 0.9963 0.01496 0.0
C1429 C 0.1715 0.99717 0.01098 0.0
C1430 C 0.75177 0.39216 0.76025 0.0
C1431 C 0.75337 0.40761 0.76579 0.0
H1432 H 0.74725 0.37994 0.74555 0.0
C1433 C 0.75191 0.42306 0.76022 0.0
H1434 H 0.75308 0.38 0.76423 0.0
C1435 C 0.74886 0.42302 0.7494 0.0
C1436 C 0.74724 0.40754 0.74389 0.0
H1437 H 0.75293 0.4352 0.76423 0.0
H1438 H 0.74797 0.43513 0.74534 0.0
C1439 C 0.74869 0.39212 0.74948 0.0
C1440 C 0.99132 0.48283 0.07276 0.0
C1441 C 0.98184 0.49828 0.07342 0.0
H1442 H 0.01682 0.47072 0.07202 0.0
C1443 C 0.99137 0.5136 0.07465 0.0
H1444 H 0.98436 0.47078 0.07199 0.0
C1445 C 0.00997 0.51356 0.07468 0.0
C1446 C 0.01945 0.49821 0.07346 0.0
H1447 H 0.98451 0.52574 0.07506 0.0
H1448 H 0.01689 0.52567 0.0751 0.0
C1449 C 0.00991 0.4828 0.07277 0.0
C1450 C 0.73296 0.75161 0.3253 0.0
C1451 C 0.74896 0.76083 0.32456 0.0
H1452 H 0.72045 0.72706 0.3253 0.0
C1453 C 0.7651 0.75177 0.32435 0.0
H1454 H 0.72028 0.75817 0.32535 0.0
C1455 C 0.7652 0.73392 0.32432 0.0
C1456 C 0.74916 0.7247 0.32449 0.0
H1457 H 0.77767 0.7585 0.32397 0.0
H1458 H 0.77784 0.72732 0.32391 0.0
C1459 C 0.73306 0.73375 0.32527 0.0
C1460 C 0.50874 0.5003 0.58062 0.0
C1461 C 0.5183 0.5055 0.5717 0.0
H1462 H 0.48313 0.49624 0.58757 0.0
C1463 C 0.50879 0.51101 0.56285 0.0
H1464 H 0.51566 0.49614 0.5876 0.0
C1465 C 0.49024 0.51107 0.56284 0.0
C1466 C 0.48065 0.50562 0.57167 0.0
H1467 H 0.51566 0.51474 0.55577 0.0
H1468 H 0.48343 0.51485 0.55574 0.0
C1469 C 0.49012 0.50036 0.5806 0.0
C1470 C 0.73515 0.24945 0.82378 0.0
C1471 C 0.75127 0.24036 0.82417 0.0
H1472 H 0.72249 0.27393 0.82316 0.0
C1473 C 0.76727 0.24955 0.82502 0.0
H1474 H 0.72258 0.24275 0.82331 0.0
C1475 C 0.76721 0.26741 0.82494 0.0
C1476 C 0.75116 0.27649 0.824 0.0
H1477 H 0.77993 0.24297 0.82521 0.0
H1478 H 0.77983 0.27408 0.82508 0.0
C1479 C 0.7351 0.26731 0.8237 0.0
C1480 C 0.99163 0.51139 0.94736 0.0
C1481 C 0.98225 0.50616 0.9384 0.0
H1482 H 0.01689 0.51502 0.95463 0.0
C1483 C 0.99192 0.50128 0.92946 0.0
H1484 H 0.98465 0.51487 0.95445 0.0
C1485 C 0.01055 0.50137 0.92956 0.0
C1486 C 0.01989 0.50635 0.9386 0.0
H1487 H 0.9851 0.49734 0.9224 0.0
H1488 H 0.01763 0.49752 0.92257 0.0
C1489 C 0.01018 0.51148 0.94746 0.0
C1490 C 0.73695 0.7342 0.18526 0.0
C1491 C 0.75303 0.72502 0.18525 0.0
H1492 H 0.72439 0.75874 0.18553 0.0
C1493 C 0.76912 0.73413 0.18469 0.0
H1494 H 0.72432 0.72756 0.1855 0.0
C1495 C 0.76916 0.75199 0.18471 0.0
C1496 C 0.75311 0.76116 0.18529 0.0
H1497 H 0.78175 0.72747 0.18478 0.0
H1498 H 0.78182 0.75859 0.18482 0.0
C1499 C 0.737 0.75205 0.18528 0.0
C1500 C 0.49064 0.49064 0.44712 0.0
C1501 C 0.48115 0.4964 0.43833 0.0
H1502 H 0.51597 0.48673 0.45425 0.0
C1503 C 0.49073 0.50201 0.42951 0.0
H1504 H 0.48373 0.48659 0.45413 0.0
C1505 C 0.50936 0.5021 0.42958 0.0
C1506 C 0.5188 0.49657 0.43846 0.0
H1507 H 0.48383 0.50638 0.42257 0.0
H1508 H 0.51637 0.50652 0.42269 0.0
C1509 C 0.50918 0.49072 0.44719 0.0
C1510 C 0.7326 0.26692 0.68506 0.0
C1511 C 0.74867 0.27601 0.68585 0.0
H1512 H 0.7199 0.24246 0.68493 0.0
C1513 C 0.76474 0.26684 0.68602 0.0
H1514 H 0.71998 0.27357 0.68503 0.0
C1515 C 0.7647 0.24899 0.68595 0.0
C1516 C 0.74859 0.23988 0.68572 0.0
H1517 H 0.77736 0.27348 0.68643 0.0
H1518 H 0.7773 0.2423 0.68631 0.0
C1519 C 0.73256 0.24906 0.685 0.0
C1520 C 0.26812 0.25072 0.68497 0.0
C1521 C 0.25213 0.24145 0.68554 0.0
H1522 H 0.28056 0.27531 0.68518 0.0
C1523 C 0.23596 0.25048 0.68568 0.0
H1524 H 0.28081 0.24419 0.68497 0.0
C1525 C 0.23582 0.26833 0.68581 0.0
C1526 C 0.25184 0.27759 0.6858 0.0
H1527 H 0.2234 0.24372 0.68593 0.0
H1528 H 0.22315 0.27489 0.68616 0.0
C1529 C 0.26797 0.26859 0.68509 0.0
C1530 C 0.23307 0.75096 0.1847 0.0
C1531 C 0.249 0.76026 0.18556 0.0
H1532 H 0.22072 0.72634 0.18453 0.0
C1533 C 0.2652 0.75129 0.18584 0.0
H1534 H 0.22036 0.75745 0.18459 0.0
C1535 C 0.2654 0.73344 0.18581 0.0
C1536 C 0.24942 0.72413 0.18549 0.0
H1537 H 0.27772 0.75808 0.18631 0.0
H1538 H 0.27808 0.72691 0.18626 0.0
C1539 C 0.23328 0.7331 0.18466 0.0
C1540 C 0.25716 0.24967 0.81325 0.0
C1541 C 0.25053 0.2406 0.8219 0.0
H1542 H 0.26204 0.27398 0.80626 0.0
C1543 C 0.24436 0.24983 0.83062 0.0
H1544 H 0.26165 0.24301 0.80631 0.0
C1545 C 0.24461 0.26773 0.8306 0.0
C1546 C 0.25101 0.27677 0.82186 0.0
H1547 H 0.23932 0.24323 0.83745 0.0
H1548 H 0.23976 0.27448 0.83743 0.0
C1549 C 0.25739 0.26749 0.81323 0.0
C1550 C 0.26786 0.73258 0.32476 0.0
C1551 C 0.25168 0.72366 0.324 0.0
H1552 H 0.28084 0.7569 0.32487 0.0
C1553 C 0.23571 0.733 0.3239 0.0
H1554 H 0.2804 0.72579 0.32473 0.0
C1555 C 0.23596 0.75085 0.32399 0.0
C1556 C 0.25218 0.75979 0.32417 0.0
H1557 H 0.22301 0.7265 0.32351 0.0
H1558 H 0.22344 0.75768 0.32367 0.0
C1559 C 0.2681 0.75044 0.32484 0.0
C1560 C 0.49148 0.02275 0.57848 0.0
C1561 C 0.48198 0.01476 0.57035 0.0
H1562 H 0.51705 0.02892 0.58489 0.0
C1563 C 0.49156 0.00655 0.56236 0.0
H1564 H 0.48451 0.02906 0.58481 0.0
C1565 C 0.51011 0.00646 0.56241 0.0
C1566 C 0.51964 0.01459 0.57045 0.0
H1567 H 0.48473 0.0006 0.55585 0.0
H1568 H 0.51698 1.00045 0.55594 0.0
C1569 C 0.51011 0.02267 0.57853 0.0
C1570 C 0.00887 0.9994 0.07414 0.0
C1571 C 0.0183 0.98398 0.0731 0.0
H1572 H 0.98342 0.01162 0.0747 0.0
C1573 C 0.00871 0.96859 0.07257 0.0
H1574 H 0.01587 0.01145 0.07477 0.0
C1575 C 0.99011 0.96869 0.07253 0.0
C1576 C 0.98069 0.98418 0.07302 0.0
H1577 H 0.01555 0.9565 0.07165 0.0
H1578 H 0.98314 0.95668 0.07158 0.0
C1579 C 0.99029 0.9995 0.0741 0.0
C1580 C 0.50957 0.99955 0.43606 0.0
C1581 C 0.51918 0.98423 0.43711 0.0
H1582 H 0.48399 0.0115 0.43547 0.0
C1583 C 0.50976 0.96874 0.43764 0.0
H1584 H 0.51644 0.01167 0.43544 0.0
C1585 C 0.49116 0.96864 0.43766 0.0
C1586 C 0.48156 0.98404 0.43715 0.0
H1587 H 0.51673 0.95673 0.43857 0.0
H1588 H 0.48432 0.95656 0.4386 0.0
C1589 C 0.49099 0.99945 0.43608 0.0
C1590 C 0.0097 0.03272 0.93773 0.0
C1591 C 0.01926 0.01732 0.93709 0.0
H1592 H 0.98415 0.04466 0.93871 0.0
C1593 C 0.00981 0.00196 0.93582 0.0
H1594 H 0.01656 0.04475 0.93883 0.0
C1595 C 0.99123 0.0019 0.93575 0.0
C1596 C 0.98165 0.01721 0.93695 0.0
H1597 H 0.01679 0.98991 0.9351 0.0
H1598 H 0.98434 0.98982 0.93499 0.0
C1599 C 0.9911 0.03266 0.93766 0.0
C1600 C 0.19432 0.57789 0.1263 0.0
C1601 C 0.19054 0.5768 0.13707 0.0
H1602 H 0.18731 0.57015 0.11078 0.0
C1603 C 0.17714 0.56551 0.1404 0.0
H1604 H 0.20474 0.58624 0.12347 0.0
C1605 C 0.16732 0.55608 0.13313 0.0
C1606 C 0.17058 0.55772 0.12233 0.0
H1607 H 0.17378 0.56441 0.14861 0.0
H1608 H 0.15694 0.54769 0.13597 0.0
C1609 C 0.18446 0.56849 0.11902 0.0
C1610 C 0.68145 0.92269 0.37095 0.0
C1611 C 0.68939 0.90704 0.37365 0.0
H1612 H 0.66647 0.94437 0.37613 0.0
C1613 C 0.68892 0.9018 0.38418 0.0
H1614 H 0.68148 0.92711 0.36293 0.0
C1615 C 0.68012 0.91158 0.39174 0.0
C1616 C 0.67158 0.9269 0.38897 0.0
H1617 H 0.69517 0.88997 0.38659 0.0
H1618 H 0.67948 0.90679 0.39968 0.0
C1619 C 0.67266 0.9325 0.37852 0.0
C1620 C 0.32224 0.42685 0.62007 0.0
C1621 C 0.32745 0.44379 0.62204 0.0
H1622 H 0.30961 0.40434 0.62592 0.0
C1623 C 0.32268 0.45132 0.63163 0.0
H1624 H 0.32594 0.42057 0.61284 0.0
C1625 C 0.31324 0.44201 0.63916 0.0
C1626 C 0.30837 0.42493 0.63727 0.0
H1627 H 0.32628 0.46442 0.63334 0.0
H1628 H 0.30977 0.4482 0.64645 0.0
C1629 C 0.31285 0.41754 0.62759 0.0
C1630 C 0.82743 0.06876 0.87859 0.0
C1631 C 0.82898 0.07463 0.88896 0.0
H1632 H 0.81827 0.07392 0.86304 0.0
C1633 C 0.82094 0.09024 0.89165 0.0
H1634 H 0.83323 0.05668 0.87627 0.0
C1635 C 0.81216 0.10001 0.88408 0.0
C1636 C 0.81122 0.09448 0.87362 0.0
H1637 H 0.82195 0.09523 0.89953 0.0
H1638 H 0.8063 0.11206 0.88642 0.0
C1639 C 0.81867 0.07857 0.87101 0.0
C1640 C 0.1701 0.44763 0.87692 0.0
C1641 C 0.17149 0.44425 0.88771 0.0
H1642 H 0.17763 0.44042 0.86139 0.0
C1643 C 0.18317 0.43132 0.89104 0.0
H1644 H 0.16145 0.45767 0.87408 0.0
C1645 C 0.19266 0.42159 0.88376 0.0
C1646 C 0.19068 0.42449 0.87295 0.0
H1647 H 0.18452 0.42828 0.89927 0.0
H1648 H 0.20135 0.41159 0.88661 0.0
C1649 C 0.17955 0.43787 0.86964 0.0
C1650 C 0.81333 0.92564 0.13759 0.0
C1651 C 0.80883 0.9084 0.13597 0.0
H1652 H 0.82567 0.94813 0.13138 0.0
C1653 C 0.81333 0.90077 0.12635 0.0
H1654 H 0.80984 0.932 0.14482 0.0
C1655 C 0.82235 0.91001 0.11864 0.0
C1656 C 0.82717 0.92714 0.12034 0.0
H1657 H 0.81036 0.88744 0.12489 0.0
H1658 H 0.82608 0.90354 0.11148 0.0
C1659 C 0.82238 0.93489 0.12987 0.0
C1660 C 0.31282 0.5838 0.38225 0.0
C1661 C 0.3084 0.57641 0.37256 0.0
H1662 H 0.32591 0.58081 0.397 0.0
C1663 C 0.3134 0.55937 0.37066 0.0
H1664 H 0.30949 0.59697 0.38393 0.0
C1665 C 0.32289 0.5501 0.37817 0.0
C1666 C 0.3276 0.55763 0.38778 0.0
H1667 H 0.30998 0.55319 0.36335 0.0
H1668 H 0.32659 0.53703 0.37645 0.0
C1669 C 0.32227 0.57453 0.38977 0.0
C1670 C 0.6787 0.06645 0.62982 0.0
C1671 C 0.67382 0.07423 0.62032 0.0
H1672 H 0.69134 0.06932 0.64475 0.0
C1673 C 0.67856 0.09138 0.61864 0.0
H1674 H 0.67548 0.05319 0.63132 0.0
C1675 C 0.6876 0.10063 0.62634 0.0
C1676 C 0.6922 0.09297 0.63593 0.0
H1677 H 0.67475 0.09788 0.6115 0.0
H1678 H 0.69051 0.11397 0.62488 0.0
C1679 C 0.68777 0.0757 0.63753 0.0
C1680 C 0.82274 0.43649 0.86879 0.0
C1681 C 0.81185 0.4229 0.87206 0.0
H1682 H 0.84065 0.45642 0.8733 0.0
C1683 C 0.81014 0.4197 0.88285 0.0
H1684 H 0.82446 0.43928 0.86056 0.0
C1685 C 0.81963 0.42937 0.89016 0.0
C1686 C 0.83106 0.44254 0.88687 0.0
H1687 H 0.80164 0.40952 0.88566 0.0
H1688 H 0.81848 0.42611 0.89836 0.0
C1689 C 0.83221 0.44619 0.87611 0.0
C1690 C 0.3287 0.08817 0.63861 0.0
C1691 C 0.31159 0.09453 0.63651 0.0
H1692 H 0.3516 0.07509 0.63274 0.0
C1693 C 0.3042 0.09166 0.62654 0.0
H1694 H 0.3349 0.09025 0.64615 0.0
C1695 C 0.3139 0.08313 0.61877 0.0
C1696 C 0.33125 0.07731 0.62078 0.0
H1697 H 0.29096 0.09619 0.62468 0.0
H1698 H 0.30801 0.08158 0.6111 0.0
C1699 C 0.33839 0.07966 0.63086 0.0
C1700 C 0.67187 0.57119 0.36994 0.0
C1701 C 0.68944 0.57646 0.37182 0.0
H1702 H 0.64877 0.55857 0.37587 0.0
C1703 C 0.69752 0.57191 0.38136 0.0
H1704 H 0.66514 0.57471 0.36276 0.0
C1705 C 0.68812 0.56259 0.3889 0.0
C1706 C 0.67042 0.55762 0.38709 0.0
H1707 H 0.71112 0.57558 0.383 0.0
H1708 H 0.69475 0.55928 0.39614 0.0
C1709 C 0.66248 0.56191 0.37748 0.0
C1710 C 0.18461 0.91575 0.11883 0.0
C1711 C 0.16945 0.92519 0.12164 0.0
H1712 H 0.20575 0.89943 0.12393 0.0
C1713 C 0.16464 0.92598 0.13227 0.0
H1714 H 0.18867 0.9148 0.11072 0.0
C1715 C 0.1743 0.917 0.13984 0.0
C1716 C 0.18905 0.907 0.13698 0.0
H1717 H 0.15322 0.93337 0.13475 0.0
H1718 H 0.16978 0.91742 0.14788 0.0
C1719 C 0.19429 0.90678 0.1264 0.0
C1720 C 0.81338 0.56238 0.12079 0.0
C1721 C 0.8311 0.55741 0.12256 0.0
H1722 H 0.79043 0.57541 0.1267 0.0
C1723 C 0.83911 0.56176 0.13215 0.0
H1724 H 0.80671 0.55902 0.11357 0.0
C1725 C 0.82976 0.57109 0.13969 0.0
C1726 C 0.81218 0.57636 0.13782 0.0
H1727 H 0.85282 0.55842 0.13373 0.0
H1728 H 0.83654 0.57465 0.14684 0.0
C1729 C 0.80404 0.57175 0.12832 0.0
C1730 C 0.17708 0.09216 0.89146 0.0
C1731 C 0.17254 0.07493 0.88988 0.0
H1732 H 0.18882 0.11476 0.88508 0.0
C1733 C 0.1775 0.06707 0.88042 0.0
H1734 H 0.17321 0.09873 0.89856 0.0
C1735 C 0.18647 0.07629 0.87265 0.0
C1736 C 0.19073 0.09361 0.87416 0.0
H1737 H 0.17443 0.05375 0.879 0.0
H1738 H 0.19012 0.06983 0.86547 0.0
C1739 C 0.18604 0.10138 0.8837 0.0
C1740 C 0.678 0.4363 0.64089 0.0
C1741 C 0.6889 0.42272 0.63763 0.0
H1742 H 0.66009 0.45623 0.63638 0.0
C1743 C 0.69066 0.41956 0.62684 0.0
H1744 H 0.67624 0.43907 0.64913 0.0
C1745 C 0.68119 0.42925 0.61953 0.0
C1746 C 0.66974 0.44239 0.62281 0.0
H1747 H 0.69918 0.40939 0.62403 0.0
H1748 H 0.68237 0.42601 0.61132 0.0
C1749 C 0.66855 0.44602 0.63358 0.0
C1750 C 0.32013 0.92155 0.37094 0.0
C1751 C 0.31202 0.90595 0.37358 0.0
H1752 H 0.33514 0.94313 0.37621 0.0
C1753 C 0.31225 0.9007 0.38411 0.0
H1754 H 0.32029 0.92597 0.36291 0.0
C1755 C 0.32097 0.91043 0.39173 0.0
C1756 C 0.32967 0.9257 0.38902 0.0
H1757 H 0.30587 0.88891 0.38648 0.0
H1758 H 0.32141 0.90564 0.39967 0.0
C1759 C 0.32883 0.9313 0.37856 0.0
loop_
_geom_bond_atom_site_label_1
_geom_bond_atom_site_label_2
_geom_bond_distance
_geom_bond_site_symmetry_2
_ccdc_geom_bond_type
C0 C1 1.264 . S
C0 C5 1.479 . S
C0 C10 1.465 . S
C1 C0 1.264 . S
C1 C3 1.339 . S
C1 H28 0.931 . S
C2 C3 1.395 . S
C2 C4 1.320 . S
C3 C1 1.339 . S
C3 C2 1.395 . S
C3 H29 0.929 . S
C4 C2 1.320 . S
C4 C5 1.405 . S
C4 H30 0.930 . S
C5 C0 1.479 . S
C5 C4 1.405 . S
C5 H31 0.931 . S
U6 O7 2.454 . S
U6 O8 2.458 . S
U6 C9 2.984 . S
U6 C10 2.847 . S
U6 C23 2.882 . S
U6 O24 2.441 . S
U6 O25 2.420 . S
U6 O26 2.455 . S
U6 O27 2.449 . S
O7 U6 2.454 . S
O7 C9 1.353 . S
O8 U6 2.458 . S
O8 C9 1.286 . S
C9 U6 2.984 . S
C9 O7 1.353 . S
C9 O8 1.286 . S
C9 C11 1.363 . S
C10 C0 1.465 . S
C10 U6 2.847 . S
C10 O24 1.249 . S
C10 O25 1.202 . S
C11 C9 1.363 . S
C11 C13 1.408 . S
C11 C16 1.342 . S
C12 C13 1.310 . S
C12 C15 1.461 . S
C12 H32 0.932 . S
C13 C11 1.408 . S
C13 C12 1.310 . S
C13 H33 0.930 . S
C14 C15 1.474 . S
C14 C16 1.285 . S
C14 H34 0.929 . S
C15 C12 1.461 . S
C15 C14 1.474 . S
C16 C11 1.342 . S
C16 C14 1.285 . S
C16 H35 0.930 . S
C17 C20 1.424 . S
C17 C22 1.245 . S
C17 C23 1.428 . S
C18 C21 1.260 . S
C18 C22 1.477 . S
C18 H36 0.932 . S
C19 C20 1.384 . S
C19 C21 1.479 . S
C19 H37 0.929 . S
C20 C17 1.424 . S
C20 C19 1.384 . S
C20 H38 0.928 . S
C21 C18 1.260 . S
C21 C19 1.479 . S
C22 C17 1.245 . S
C22 C18 1.477 . S
C22 H39 0.932 . S
C23 U6 2.882 . S
C23 C17 1.428 . S
C23 O26 1.301 . S
C23 O27 1.282 . S
O24 U6 2.441 . S
O24 C10 1.249 . S
O25 U6 2.420 . S
O25 C10 1.202 . S
O26 U6 2.455 . S
O26 C23 1.301 . S
O27 U6 2.449 . S
O27 C23 1.282 . S
H28 C1 0.931 . S
H29 C3 0.929 . S
H30 C4 0.930 . S
H31 C5 0.931 . S
H32 C12 0.932 . S
H33 C13 0.930 . S
H34 C14 0.929 . S
H35 C16 0.930 . S
H36 C18 0.932 . S
H37 C19 0.929 . S
H38 C20 0.928 . S
H39 C22 0.932 . S
C40 C41 1.264 . S
C40 C45 1.479 . S
C40 C50 1.465 . S
C41 C40 1.264 . S
C41 C43 1.339 . S
C41 H68 0.931 . S
C42 C43 1.395 . S
C42 C44 1.320 . S
C43 C41 1.339 . S
C43 C42 1.395 . S
C43 H69 0.929 . S
C44 C42 1.320 . S
C44 C45 1.405 . S
C44 H70 0.930 . S
C45 C40 1.479 . S
C45 C44 1.405 . S
C45 H71 0.931 . S
U46 O47 2.454 . S
U46 O48 2.458 . S
U46 C49 2.984 . S
U46 C50 2.847 . S
U46 C63 2.882 . S
U46 O64 2.441 . S
U46 O65 2.420 . S
U46 O66 2.455 . S
U46 O67 2.449 . S
O47 U46 2.454 . S
O47 C49 1.353 . S
O48 U46 2.458 . S
O48 C49 1.286 . S
C49 U46 2.984 . S
C49 O47 1.353 . S
C49 O48 1.286 . S
C49 C51 1.363 . S
C50 C40 1.465 . S
C50 U46 2.847 . S
C50 O64 1.249 . S
C50 O65 1.202 . S
C51 C49 1.363 . S
C51 C53 1.408 . S
C51 C56 1.342 . S
C52 C53 1.310 . S
C52 C55 1.461 . S
C52 H72 0.932 . S
C53 C51 1.408 . S
C53 C52 1.310 . S
C53 H73 0.930 . S
C54 C55 1.474 . S
C54 C56 1.285 . S
C54 H74 0.929 . S
C55 C52 1.461 . S
C55 C54 1.474 . S
C56 C51 1.342 . S
C56 C54 1.285 . S
C56 H75 0.930 . S
C57 C60 1.424 . S
C57 C62 1.245 . S
C57 C63 1.428 . S
C58 C61 1.260 . S
C58 C62 1.477 . S
C58 H76 0.932 . S
C59 C60 1.384 . S
C59 C61 1.479 . S
C59 H77 0.929 . S
C60 C57 1.424 . S
C60 C59 1.384 . S
C60 H78 0.928 . S
C61 C58 1.260 . S
C61 C59 1.479 . S
C62 C57 1.245 . S
C62 C58 1.477 . S
C62 H79 0.932 . S
C63 U46 2.882 . S
C63 C57 1.428 . S
C63 O66 1.301 . S
C63 O67 1.282 . S
O64 U46 2.441 . S
O64 C50 1.249 . S
O65 U46 2.420 . S
O65 C50 1.202 . S
O66 U46 2.455 . S
O66 C63 1.301 . S
O67 U46 2.449 . S
O67 C63 1.282 . S
H68 C41 0.931 . S
H69 C43 0.929 . S
H70 C44 0.930 . S
H71 C45 0.931 . S
H72 C52 0.932 . S
H73 C53 0.930 . S
H74 C54 0.929 . S
H75 C56 0.930 . S
H76 C58 0.932 . S
H77 C59 0.929 . S
H78 C60 0.928 . S
H79 C62 0.932 . S
C80 C81 1.264 . S
C80 C85 1.479 . S
C80 C90 1.465 . S
C81 C80 1.264 . S
C81 C83 1.339 . S
C81 H108 0.931 . S
C82 C83 1.395 . S
C82 C84 1.320 . S
C83 C81 1.339 . S
C83 C82 1.395 . S
C83 H109 0.929 . S
C84 C82 1.320 . S
C84 C85 1.405 . S
C84 H110 0.930 . S
C85 C80 1.479 . S
C85 C84 1.405 . S
C85 H111 0.931 . S
U86 O87 2.454 . S
U86 O88 2.458 . S
U86 C89 2.984 . S
U86 C90 2.847 . S
U86 C103 2.882 . S
U86 O104 2.441 . S
U86 O105 2.420 . S
U86 O106 2.455 . S
U86 O107 2.449 . S
O87 U86 2.454 . S
O87 C89 1.353 . S
O88 U86 2.458 . S
O88 C89 1.286 . S
C89 U86 2.984 . S
C89 O87 1.353 . S
C89 O88 1.286 . S
C89 C91 1.363 . S
C90 C80 1.465 . S
C90 U86 2.847 . S
C90 O104 1.249 . S
C90 O105 1.202 . S
C91 C89 1.363 . S
C91 C93 1.408 . S
C91 C96 1.342 . S
C92 C93 1.310 . S
C92 C95 1.461 . S
C92 H112 0.932 . S
C93 C91 1.408 . S
C93 C92 1.310 . S
C93 H113 0.930 . S
C94 C95 1.474 . S
C94 C96 1.285 . S
C94 H114 0.929 . S
C95 C92 1.461 . S
C95 C94 1.474 . S
C96 C91 1.342 . S
C96 C94 1.285 . S
C96 H115 0.930 . S
C97 C100 1.424 . S
C97 C102 1.245 . S
C97 C103 1.428 . S
C98 C101 1.260 . S
C98 C102 1.477 . S
C98 H116 0.932 . S
C99 C100 1.384 . S
C99 C101 1.479 . S
C99 H117 0.929 . S
C100 C97 1.424 . S
C100 C99 1.384 . S
C100 H118 0.928 . S
C101 C98 1.260 . S
C101 C99 1.479 . S
C102 C97 1.245 . S
C102 C98 1.477 . S
C102 H119 0.932 . S
C103 U86 2.882 . S
C103 C97 1.428 . S
C103 O106 1.301 . S
C103 O107 1.282 . S
O104 U86 2.441 . S
O104 C90 1.249 . S
O105 U86 2.420 . S
O105 C90 1.202 . S
O106 U86 2.455 . S
O106 C103 1.301 . S
O107 U86 2.449 . S
O107 C103 1.282 . S
H108 C81 0.931 . S
H109 C83 0.929 . S
H110 C84 0.930 . S
H111 C85 0.931 . S
H112 C92 0.932 . S
H113 C93 0.930 . S
H114 C94 0.929 . S
H115 C96 0.930 . S
H116 C98 0.932 . S
H117 C99 0.929 . S
H118 C100 0.928 . S
H119 C102 0.932 . S
C120 C121 1.264 . S
C120 C125 1.479 . S
C120 C130 1.465 . S
C121 C120 1.264 . S
C121 C123 1.339 . S
C121 H148 0.931 . S
C122 C123 1.395 . S
C122 C124 1.320 . S
C123 C121 1.339 . S
C123 C122 1.395 . S
C123 H149 0.929 . S
C124 C122 1.320 . S
C124 C125 1.405 . S
C124 H150 0.930 . S
C125 C120 1.479 . S
C125 C124 1.405 . S
C125 H151 0.931 . S
U126 O127 2.454 . S
U126 O128 2.458 . S
U126 C129 2.984 . S
U126 C130 2.847 . S
U126 C143 2.882 . S
U126 O144 2.441 . S
U126 O145 2.420 . S
U126 O146 2.455 . S
U126 O147 2.449 . S
O127 U126 2.454 . S
O127 C129 1.353 . S
O128 U126 2.458 . S
O128 C129 1.286 . S
C129 U126 2.984 . S
C129 O127 1.353 . S
C129 O128 1.286 . S
C129 C131 1.363 . S
C130 C120 1.465 . S
C130 U126 2.847 . S
C130 O144 1.249 . S
C130 O145 1.202 . S
C131 C129 1.363 . S
C131 C133 1.408 . S
C131 C136 1.342 . S
C132 C133 1.310 . S
C132 C135 1.461 . S
C132 H152 0.932 . S
C133 C131 1.408 . S
C133 C132 1.310 . S
C133 H153 0.930 . S
C134 C135 1.474 . S
C134 C136 1.285 . S
C134 H154 0.929 . S
C135 C132 1.461 . S
C135 C134 1.474 . S
C136 C131 1.342 . S
C136 C134 1.285 . S
C136 H155 0.930 . S
C137 C140 1.424 . S
C137 C142 1.245 . S
C137 C143 1.428 . S
C138 C141 1.260 . S
C138 C142 1.477 . S
C138 H156 0.932 . S
C139 C140 1.384 . S
C139 C141 1.479 . S
C139 H157 0.929 . S
C140 C137 1.424 . S
C140 C139 1.384 . S
C140 H158 0.928 . S
C141 C138 1.260 . S
C141 C139 1.479 . S
C142 C137 1.245 . S
C142 C138 1.477 . S
C142 H159 0.932 . S
C143 U126 2.882 . S
C143 C137 1.428 . S
C143 O146 1.301 . S
C143 O147 1.282 . S
O144 U126 2.441 . S
O144 C130 1.249 . S
O145 U126 2.420 . S
O145 C130 1.202 . S
O146 U126 2.455 . S
O146 C143 1.301 . S
O147 U126 2.449 . S
O147 C143 1.282 . S
H148 C121 0.931 . S
H149 C123 0.929 . S
H150 C124 0.930 . S
H151 C125 0.931 . S
H152 C132 0.932 . S
H153 C133 0.930 . S
H154 C134 0.929 . S
H155 C136 0.930 . S
H156 C138 0.932 . S
H157 C139 0.929 . S
H158 C140 0.928 . S
H159 C142 0.932 . S
C160 C161 1.264 . S
C160 C165 1.479 . S
C160 C170 1.465 . S
C161 C160 1.264 . S
C161 C163 1.339 . S
C161 H188 0.931 . S
C162 C163 1.395 . S
C162 C164 1.320 . S
C163 C161 1.339 . S
C163 C162 1.395 . S
C163 H189 0.929 . S
C164 C162 1.320 . S
C164 C165 1.405 . S
C164 H190 0.930 . S
C165 C160 1.479 . S
C165 C164 1.405 . S
C165 H191 0.931 . S
U166 O167 2.454 . S
U166 O168 2.458 . S
U166 C169 2.984 . S
U166 C170 2.847 . S
U166 C183 2.882 . S
U166 O184 2.441 . S
U166 O185 2.420 . S
U166 O186 2.455 . S
U166 O187 2.449 . S
O167 U166 2.454 . S
O167 C169 1.353 . S
O168 U166 2.458 . S
O168 C169 1.286 . S
C169 U166 2.984 . S
C169 O167 1.353 . S
C169 O168 1.286 . S
C169 C171 1.363 . S
C170 C160 1.465 . S
C170 U166 2.847 . S
C170 O184 1.249 . S
C170 O185 1.202 . S
C171 C169 1.363 . S
C171 C173 1.408 . S
C171 C176 1.342 . S
C172 C173 1.310 . S
C172 C175 1.461 . S
C172 H192 0.932 . S
C173 C171 1.408 . S
C173 C172 1.310 . S
C173 H193 0.930 . S
C174 C175 1.474 . S
C174 C176 1.285 . S
C174 H194 0.929 . S
C175 C172 1.461 . S
C175 C174 1.474 . S
C176 C171 1.342 . S
C176 C174 1.285 . S
C176 H195 0.930 . S
C177 C180 1.424 . S
C177 C182 1.245 . S
C177 C183 1.428 . S
C178 C181 1.260 . S
C178 C182 1.477 . S
C178 H196 0.932 . S
C179 C180 1.384 . S
C179 C181 1.479 . S
C179 H197 0.929 . S
C180 C177 1.424 . S
C180 C179 1.384 . S
C180 H198 0.928 . S
C181 C178 1.260 . S
C181 C179 1.479 . S
C182 C177 1.245 . S
C182 C178 1.477 . S
C182 H199 0.932 . S
C183 U166 2.882 . S
C183 C177 1.428 . S
C183 O186 1.301 . S
C183 O187 1.282 . S
O184 U166 2.441 . S
O184 C170 1.249 . S
O185 U166 2.420 . S
O185 C170 1.202 . S
O186 U166 2.455 . S
O186 C183 1.301 . S
O187 U166 2.449 . S
O187 C183 1.282 . S
H188 C161 0.931 . S
H189 C163 0.929 . S
H190 C164 0.930 . S
H191 C165 0.931 . S
H192 C172 0.932 . S
H193 C173 0.930 . S
H194 C174 0.929 . S
H195 C176 0.930 . S
H196 C178 0.932 . S
H197 C179 0.929 . S
H198 C180 0.928 . S
H199 C182 0.932 . S
C200 C201 1.264 . S
C200 C205 1.479 . S
C200 C210 1.465 . S
C201 C200 1.264 . S
C201 C203 1.339 . S
C201 H228 0.931 . S
C202 C203 1.395 . S
C202 C204 1.320 . S
C203 C201 1.339 . S
C203 C202 1.395 . S
C203 H229 0.929 . S
C204 C202 1.320 . S
C204 C205 1.405 . S
C204 H230 0.930 . S
C205 C200 1.479 . S
C205 C204 1.405 . S
C205 H231 0.931 . S
U206 O207 2.454 . S
U206 O208 2.458 . S
U206 C209 2.984 . S
U206 C210 2.847 . S
U206 C223 2.882 . S
U206 O224 2.441 . S
U206 O225 2.420 . S
U206 O226 2.455 . S
U206 O227 2.449 . S
O207 U206 2.454 . S
O207 C209 1.353 . S
O208 U206 2.458 . S
O208 C209 1.286 . S
C209 U206 2.984 . S
C209 O207 1.353 . S
C209 O208 1.286 . S
C209 C211 1.363 . S
C210 C200 1.465 . S
C210 U206 2.847 . S
C210 O224 1.249 . S
C210 O225 1.202 . S
C211 C209 1.363 . S
C211 C213 1.408 . S
C211 C216 1.342 . S
C212 C213 1.310 . S
C212 C215 1.461 . S
C212 H232 0.932 . S
C213 C211 1.408 . S
C213 C212 1.310 . S
C213 H233 0.930 . S
C214 C215 1.474 . S
C214 C216 1.285 . S
C214 H234 0.929 . S
C215 C212 1.461 . S
C215 C214 1.474 . S
C216 C211 1.342 . S
C216 C214 1.285 . S
C216 H235 0.930 . S
C217 C220 1.424 . S
C217 C222 1.245 . S
C217 C223 1.428 . S
C218 C221 1.260 . S
C218 C222 1.477 . S
C218 H236 0.932 . S
C219 C220 1.384 . S
C219 C221 1.479 . S
C219 H237 0.929 . S
C220 C217 1.424 . S
C220 C219 1.384 . S
C220 H238 0.928 . S
C221 C218 1.260 . S
C221 C219 1.479 . S
C222 C217 1.245 . S
C222 C218 1.477 . S
C222 H239 0.932 . S
C223 U206 2.882 . S
C223 C217 1.428 . S
C223 O226 1.301 . S
C223 O227 1.282 . S
O224 U206 2.441 . S
O224 C210 1.249 . S
O225 U206 2.420 . S
O225 C210 1.202 . S
O226 U206 2.455 . S
O226 C223 1.301 . S
O227 U206 2.449 . S
O227 C223 1.282 . S
H228 C201 0.931 . S
H229 C203 0.929 . S
H230 C204 0.930 . S
H231 C205 0.931 . S
H232 C212 0.932 . S
H233 C213 0.930 . S
H234 C214 0.929 . S
H235 C216 0.930 . S
H236 C218 0.932 . S
H237 C219 0.929 . S
H238 C220 0.928 . S
H239 C222 0.932 . S
C240 C241 1.264 . S
C240 C245 1.479 . S
C240 C250 1.465 . S
C241 C240 1.264 . S
C241 C243 1.339 . S
C241 H268 0.931 . S
C242 C243 1.395 . S
C242 C244 1.320 . S
C243 C241 1.339 . S
C243 C242 1.395 . S
C243 H269 0.929 . S
C244 C242 1.320 . S
C244 C245 1.405 . S
C244 H270 0.930 . S
C245 C240 1.479 . S
C245 C244 1.405 . S
C245 H271 0.931 . S
U246 O247 2.454 . S
U246 O248 2.458 . S
U246 C249 2.984 . S
U246 C250 2.847 . S
U246 C263 2.882 . S
U246 O264 2.441 . S
U246 O265 2.420 . S
U246 O266 2.455 . S
U246 O267 2.449 . S
O247 U246 2.454 . S
O247 C249 1.353 . S
O248 U246 2.458 . S
O248 C249 1.286 . S
C249 U246 2.984 . S
C249 O247 1.353 . S
C249 O248 1.286 . S
C249 C251 1.363 . S
C250 C240 1.465 . S
C250 U246 2.847 . S
C250 O264 1.249 . S
C250 O265 1.202 . S
C251 C249 1.363 . S
C251 C253 1.408 . S
C251 C256 1.342 . S
C252 C253 1.310 . S
C252 C255 1.461 . S
C252 H272 0.932 . S
C253 C251 1.408 . S
C253 C252 1.310 . S
C253 H273 0.930 . S
C254 C255 1.474 . S
C254 C256 1.285 . S
C254 H274 0.929 . S
C255 C252 1.461 . S
C255 C254 1.474 . S
C256 C251 1.342 . S
C256 C254 1.285 . S
C256 H275 0.930 . S
C257 C260 1.424 . S
C257 C262 1.245 . S
C257 C263 1.428 . S
C258 C261 1.260 . S
C258 C262 1.477 . S
C258 H276 0.932 . S
C259 C260 1.384 . S
C259 C261 1.479 . S
C259 H277 0.929 . S
C260 C257 1.424 . S
C260 C259 1.384 . S
C260 H278 0.928 . S
C261 C258 1.260 . S
C261 C259 1.479 . S
C262 C257 1.245 . S
C262 C258 1.477 . S
C262 H279 0.932 . S
C263 U246 2.882 . S
C263 C257 1.428 . S
C263 O266 1.301 . S
C263 O267 1.282 . S
O264 U246 2.441 . S
O264 C250 1.249 . S
O265 U246 2.420 . S
O265 C250 1.202 . S
O266 U246 2.455 . S
O266 C263 1.301 . S
O267 U246 2.449 . S
O267 C263 1.282 . S
H268 C241 0.931 . S
H269 C243 0.929 . S
H270 C244 0.930 . S
H271 C245 0.931 . S
H272 C252 0.932 . S
H273 C253 0.930 . S
H274 C254 0.929 . S
H275 C256 0.930 . S
H276 C258 0.932 . S
H277 C259 0.929 . S
H278 C260 0.928 . S
H279 C262 0.932 . S
C280 C281 1.264 . S
C280 C285 1.479 . S
C280 C290 1.465 . S
C281 C280 1.264 . S
C281 C283 1.339 . S
C281 H308 0.931 . S
C282 C283 1.395 . S
C282 C284 1.320 . S
C283 C281 1.339 . S
C283 C282 1.395 . S
C283 H309 0.929 . S
C284 C282 1.320 . S
C284 C285 1.405 . S
C284 H310 0.930 . S
C285 C280 1.479 . S
C285 C284 1.405 . S
C285 H311 0.931 . S
U286 O287 2.454 . S
U286 O288 2.458 . S
U286 C289 2.984 . S
U286 C290 2.847 . S
U286 C303 2.882 . S
U286 O304 2.441 . S
U286 O305 2.420 . S
U286 O306 2.455 . S
U286 O307 2.449 . S
O287 U286 2.454 . S
O287 C289 1.353 . S
O288 U286 2.458 . S
O288 C289 1.286 . S
C289 U286 2.984 . S
C289 O287 1.353 . S
C289 O288 1.286 . S
C289 C291 1.363 . S
C290 C280 1.465 . S
C290 U286 2.847 . S
C290 O304 1.249 . S
C290 O305 1.202 . S
C291 C289 1.363 . S
C291 C293 1.408 . S
C291 C296 1.342 . S
C292 C293 1.310 . S
C292 C295 1.461 . S
C292 H312 0.932 . S
C293 C291 1.408 . S
C293 C292 1.310 . S
C293 H313 0.930 . S
C294 C295 1.474 . S
C294 C296 1.285 . S
C294 H314 0.929 . S
C295 C292 1.461 . S
C295 C294 1.474 . S
C296 C291 1.342 . S
C296 C294 1.285 . S
C296 H315 0.930 . S
C297 C300 1.424 . S
C297 C302 1.245 . S
C297 C303 1.428 . S
C298 C301 1.260 . S
C298 C302 1.477 . S
C298 H316 0.932 . S
C299 C300 1.384 . S
C299 C301 1.479 . S
C299 H317 0.929 . S
C300 C297 1.424 . S
C300 C299 1.384 . S
C300 H318 0.928 . S
C301 C298 1.260 . S
C301 C299 1.479 . S
C302 C297 1.245 . S
C302 C298 1.477 . S
C302 H319 0.932 . S
C303 U286 2.882 . S
C303 C297 1.428 . S
C303 O306 1.301 . S
C303 O307 1.282 . S
O304 U286 2.441 . S
O304 C290 1.249 . S
O305 U286 2.420 . S
O305 C290 1.202 . S
O306 U286 2.455 . S
O306 C303 1.301 . S
O307 U286 2.449 . S
O307 C303 1.282 . S
H308 C281 0.931 . S
H309 C283 0.929 . S
H310 C284 0.930 . S
H311 C285 0.931 . S
H312 C292 0.932 . S
H313 C293 0.930 . S
H314 C294 0.929 . S
H315 C296 0.930 . S
H316 C298 0.932 . S
H317 C299 0.929 . S
H318 C300 0.928 . S
H319 C302 0.932 . S
C320 C321 1.264 . S
C320 C325 1.479 . S
C320 C330 1.465 . S
C321 C320 1.264 . S
C321 C323 1.339 . S
C321 H348 0.931 . S
C322 C323 1.395 . S
C322 C324 1.320 . S
C323 C321 1.339 . S
C323 C322 1.395 . S
C323 H349 0.929 . S
C324 C322 1.320 . S
C324 C325 1.405 . S
C324 H350 0.930 . S
C325 C320 1.479 . S
C325 C324 1.405 . S
C325 H351 0.931 . S
U326 O327 2.454 . S
U326 O328 2.458 . S
U326 C329 2.984 . S
U326 C330 2.847 . S
U326 C343 2.882 . S
U326 O344 2.441 . S
U326 O345 2.420 . S
U326 O346 2.455 . S
U326 O347 2.449 . S
O327 U326 2.454 . S
O327 C329 1.353 . S
O328 U326 2.458 . S
O328 C329 1.286 . S
C329 U326 2.984 . S
C329 O327 1.353 . S
C329 O328 1.286 . S
C329 C331 1.363 . S
C330 C320 1.465 . S
C330 U326 2.847 . S
C330 O344 1.249 . S
C330 O345 1.202 . S
C331 C329 1.363 . S
C331 C333 1.408 . S
C331 C336 1.342 . S
C332 C333 1.310 . S
C332 C335 1.461 . S
C332 H352 0.932 . S
C333 C331 1.408 . S
C333 C332 1.310 . S
C333 H353 0.930 . S
C334 C335 1.474 . S
C334 C336 1.285 . S
C334 H354 0.929 . S
C335 C332 1.461 . S
C335 C334 1.474 . S
C336 C331 1.342 . S
C336 C334 1.285 . S
C336 H355 0.930 . S
C337 C340 1.424 . S
C337 C342 1.245 . S
C337 C343 1.428 . S
C338 C341 1.260 . S
C338 C342 1.477 . S
C338 H356 0.932 . S
C339 C340 1.384 . S
C339 C341 1.479 . S
C339 H357 0.929 . S
C340 C337 1.424 . S
C340 C339 1.384 . S
C340 H358 0.928 . S
C341 C338 1.260 . S
C341 C339 1.479 . S
C342 C337 1.245 . S
C342 C338 1.477 . S
C342 H359 0.932 . S
C343 U326 2.882 . S
C343 C337 1.428 . S
C343 O346 1.301 . S
C343 O347 1.282 . S
O344 U326 2.441 . S
O344 C330 1.249 . S
O345 U326 2.420 . S
O345 C330 1.202 . S
O346 U326 2.455 . S
O346 C343 1.301 . S
O347 U326 2.449 . S
O347 C343 1.282 . S
H348 C321 0.931 . S
H349 C323 0.929 . S
H350 C324 0.930 . S
H351 C325 0.931 . S
H352 C332 0.932 . S
H353 C333 0.930 . S
H354 C334 0.929 . S
H355 C336 0.930 . S
H356 C338 0.932 . S
H357 C339 0.929 . S
H358 C340 0.928 . S
H359 C342 0.932 . S
C360 C361 1.264 . S
C360 C365 1.479 . S
C360 C370 1.465 . S
C361 C360 1.264 . S
C361 C363 1.339 . S
C361 H388 0.931 . S
C362 C363 1.395 . S
C362 C364 1.320 . S
C363 C361 1.339 . S
C363 C362 1.395 . S
C363 H389 0.929 . S
C364 C362 1.320 . S
C364 C365 1.405 . S
C364 H390 0.930 . S
C365 C360 1.479 . S
C365 C364 1.405 . S
C365 H391 0.931 . S
U366 O367 2.454 . S
U366 O368 2.458 . S
U366 C369 2.984 . S
U366 C370 2.847 . S
U366 C383 2.882 . S
U366 O384 2.441 . S
U366 O385 2.420 . S
U366 O386 2.455 . S
U366 O387 2.449 . S
O367 U366 2.454 . S
O367 C369 1.353 . S
O368 U366 2.458 . S
O368 C369 1.286 . S
C369 U366 2.984 . S
C369 O367 1.353 . S
C369 O368 1.286 . S
C369 C371 1.363 . S
C370 C360 1.465 . S
C370 U366 2.847 . S
C370 O384 1.249 . S
C370 O385 1.202 . S
C371 C369 1.363 . S
C371 C373 1.408 . S
C371 C376 1.342 . S
C372 C373 1.310 . S
C372 C375 1.461 . S
C372 H392 0.932 . S
C373 C371 1.408 . S
C373 C372 1.310 . S
C373 H393 0.930 . S
C374 C375 1.474 . S
C374 C376 1.285 . S
C374 H394 0.929 . S
C375 C372 1.461 . S
C375 C374 1.474 . S
C376 C371 1.342 . S
C376 C374 1.285 . S
C376 H395 0.930 . S
C377 C380 1.424 . S
C377 C382 1.245 . S
C377 C383 1.428 . S
C378 C381 1.260 . S
C378 C382 1.477 . S
C378 H396 0.932 . S
C379 C380 1.384 . S
C379 C381 1.479 . S
C379 H397 0.929 . S
C380 C377 1.424 . S
C380 C379 1.384 . S
C380 H398 0.928 . S
C381 C378 1.260 . S
C381 C379 1.479 . S
C382 C377 1.245 . S
C382 C378 1.477 . S
C382 H399 0.932 . S
C383 U366 2.882 . S
C383 C377 1.428 . S
C383 O386 1.301 . S
C383 O387 1.282 . S
O384 U366 2.441 . S
O384 C370 1.249 . S
O385 U366 2.420 . S
O385 C370 1.202 . S
O386 U366 2.455 . S
O386 C383 1.301 . S
O387 U366 2.449 . S
O387 C383 1.282 . S
H388 C361 0.931 . S
H389 C363 0.929 . S
H390 C364 0.930 . S
H391 C365 0.931 . S
H392 C372 0.932 . S
H393 C373 0.930 . S
H394 C374 0.929 . S
H395 C376 0.930 . S
H396 C378 0.932 . S
H397 C379 0.929 . S
H398 C380 0.928 . S
H399 C382 0.932 . S
C400 C401 1.264 . S
C400 C405 1.479 . S
C400 C410 1.465 . S
C401 C400 1.264 . S
C401 C403 1.339 . S
C401 H428 0.931 . S
C402 C403 1.395 . S
C402 C404 1.320 . S
C403 C401 1.339 . S
C403 C402 1.395 . S
C403 H429 0.929 . S
C404 C402 1.320 . S
C404 C405 1.405 . S
C404 H430 0.930 . S
C405 C400 1.479 . S
C405 C404 1.405 . S
C405 H431 0.931 . S
U406 O407 2.454 . S
U406 O408 2.458 . S
U406 C409 2.984 . S
U406 C410 2.847 . S
U406 C423 2.882 . S
U406 O424 2.441 . S
U406 O425 2.420 . S
U406 O426 2.455 . S
U406 O427 2.449 . S
O407 U406 2.454 . S
O407 C409 1.353 . S
O408 U406 2.458 . S
O408 C409 1.286 . S
C409 U406 2.984 . S
C409 O407 1.353 . S
C409 O408 1.286 . S
C409 C411 1.363 . S
C410 C400 1.465 . S
C410 U406 2.847 . S
C410 O424 1.249 . S
C410 O425 1.202 . S
C411 C409 1.363 . S
C411 C413 1.408 . S
C411 C416 1.342 . S
C412 C413 1.310 . S
C412 C415 1.461 . S
C412 H432 0.932 . S
C413 C411 1.408 . S
C413 C412 1.310 . S
C413 H433 0.930 . S
C414 C415 1.474 . S
C414 C416 1.285 . S
C414 H434 0.929 . S
C415 C412 1.461 . S
C415 C414 1.474 . S
C416 C411 1.342 . S
C416 C414 1.285 . S
C416 H435 0.930 . S
C417 C420 1.424 . S
C417 C422 1.245 . S
C417 C423 1.428 . S
C418 C421 1.260 . S
C418 C422 1.477 . S
C418 H436 0.932 . S
C419 C420 1.384 . S
C419 C421 1.479 . S
C419 H437 0.929 . S
C420 C417 1.424 . S
C420 C419 1.384 . S
C420 H438 0.928 . S
C421 C418 1.260 . S
C421 C419 1.479 . S
C422 C417 1.245 . S
C422 C418 1.477 . S
C422 H439 0.932 . S
C423 U406 2.882 . S
C423 C417 1.428 . S
C423 O426 1.301 . S
C423 O427 1.282 . S
O424 U406 2.441 . S
O424 C410 1.249 . S
O425 U406 2.420 . S
O425 C410 1.202 . S
O426 U406 2.455 . S
O426 C423 1.301 . S
O427 U406 2.449 . S
O427 C423 1.282 . S
H428 C401 0.931 . S
H429 C403 0.929 . S
H430 C404 0.930 . S
H431 C405 0.931 . S
H432 C412 0.932 . S
H433 C413 0.930 . S
H434 C414 0.929 . S
H435 C416 0.930 . S
H436 C418 0.932 . S
H437 C419 0.929 . S
H438 C420 0.928 . S
H439 C422 0.932 . S
C440 C441 1.264 . S
C440 C445 1.479 . S
C440 C450 1.465 . S
C441 C440 1.264 . S
C441 C443 1.339 . S
C441 H468 0.931 . S
C442 C443 1.395 . S
C442 C444 1.320 . S
C443 C441 1.339 . S
C443 C442 1.395 . S
C443 H469 0.929 . S
C444 C442 1.320 . S
C444 C445 1.405 . S
C444 H470 0.930 . S
C445 C440 1.479 . S
C445 C444 1.405 . S
C445 H471 0.931 . S
U446 O447 2.454 . S
U446 O448 2.458 . S
U446 C449 2.984 . S
U446 C450 2.847 . S
U446 C463 2.882 . S
U446 O464 2.441 . S
U446 O465 2.420 . S
U446 O466 2.455 . S
U446 O467 2.449 . S
O447 U446 2.454 . S
O447 C449 1.353 . S
O448 U446 2.458 . S
O448 C449 1.286 . S
C449 U446 2.984 . S
C449 O447 1.353 . S
C449 O448 1.286 . S
C449 C451 1.363 . S
C450 C440 1.465 . S
C450 U446 2.847 . S
C450 O464 1.249 . S
C450 O465 1.202 . S
C451 C449 1.363 . S
C451 C453 1.408 . S
C451 C456 1.342 . S
C452 C453 1.310 . S
C452 C455 1.461 . S
C452 H472 0.932 . S
C453 C451 1.408 . S
C453 C452 1.310 . S
C453 H473 0.930 . S
C454 C455 1.474 . S
C454 C456 1.285 . S
C454 H474 0.929 . S
C455 C452 1.461 . S
C455 C454 1.474 . S
C456 C451 1.342 . S
C456 C454 1.285 . S
C456 H475 0.930 . S
C457 C460 1.424 . S
C457 C462 1.245 . S
C457 C463 1.428 . S
C458 C461 1.260 . S
C458 C462 1.477 . S
C458 H476 0.932 . S
C459 C460 1.384 . S
C459 C461 1.479 . S
C459 H477 0.929 . S
C460 C457 1.424 . S
C460 C459 1.384 . S
C460 H478 0.928 . S
C461 C458 1.260 . S
C461 C459 1.479 . S
C462 C457 1.245 . S
C462 C458 1.477 . S
C462 H479 0.932 . S
C463 U446 2.882 . S
C463 C457 1.428 . S
C463 O466 1.301 . S
C463 O467 1.282 . S
O464 U446 2.441 . S
O464 C450 1.249 . S
O465 U446 2.420 . S
O465 C450 1.202 . S
O466 U446 2.455 . S
O466 C463 1.301 . S
O467 U446 2.449 . S
O467 C463 1.282 . S
H468 C441 0.931 . S
H469 C443 0.929 . S
H470 C444 0.930 . S
H471 C445 0.931 . S
H472 C452 0.932 . S
H473 C453 0.930 . S
H474 C454 0.929 . S
H475 C456 0.930 . S
H476 C458 0.932 . S
H477 C459 0.929 . S
H478 C460 0.928 . S
H479 C462 0.932 . S
C480 C481 1.264 . S
C480 C485 1.479 . S
C480 C490 1.465 . S
C481 C480 1.264 . S
C481 C483 1.339 . S
C481 H508 0.931 . S
C482 C483 1.395 . S
C482 C484 1.320 . S
C483 C481 1.339 . S
C483 C482 1.395 . S
C483 H509 0.929 . S
C484 C482 1.320 . S
C484 C485 1.405 . S
C484 H510 0.930 . S
C485 C480 1.479 . S
C485 C484 1.405 . S
C485 H511 0.931 . S
U486 O487 2.454 . S
U486 O488 2.458 . S
U486 C489 2.984 . S
U486 C490 2.847 . S
U486 C503 2.882 . S
U486 O504 2.441 . S
U486 O505 2.420 . S
U486 O506 2.455 . S
U486 O507 2.449 . S
O487 U486 2.454 . S
O487 C489 1.353 . S
O488 U486 2.458 . S
O488 C489 1.286 . S
C489 U486 2.984 . S
C489 O487 1.353 . S
C489 O488 1.286 . S
C489 C491 1.363 . S
C490 C480 1.465 . S
C490 U486 2.847 . S
C490 O504 1.249 . S
C490 O505 1.202 . S
C491 C489 1.363 . S
C491 C493 1.408 . S
C491 C496 1.342 . S
C492 C493 1.310 . S
C492 C495 1.461 . S
C492 H512 0.932 . S
C493 C491 1.408 . S
C493 C492 1.310 . S
C493 H513 0.930 . S
C494 C495 1.474 . S
C494 C496 1.285 . S
C494 H514 0.929 . S
C495 C492 1.461 . S
C495 C494 1.474 . S
C496 C491 1.342 . S
C496 C494 1.285 . S
C496 H515 0.930 . S
C497 C500 1.424 . S
C497 C502 1.245 . S
C497 C503 1.428 . S
C498 C501 1.260 . S
C498 C502 1.477 . S
C498 H516 0.932 . S
C499 C500 1.384 . S
C499 C501 1.479 . S
C499 H517 0.929 . S
C500 C497 1.424 . S
C500 C499 1.384 . S
C500 H518 0.928 . S
C501 C498 1.260 . S
C501 C499 1.479 . S
C502 C497 1.245 . S
C502 C498 1.477 . S
C502 H519 0.932 . S
C503 U486 2.882 . S
C503 C497 1.428 . S
C503 O506 1.301 . S
C503 O507 1.282 . S
O504 U486 2.441 . S
O504 C490 1.249 . S
O505 U486 2.420 . S
O505 C490 1.202 . S
O506 U486 2.455 . S
O506 C503 1.301 . S
O507 U486 2.449 . S
O507 C503 1.282 . S
H508 C481 0.931 . S
H509 C483 0.929 . S
H510 C484 0.930 . S
H511 C485 0.931 . S
H512 C492 0.932 . S
H513 C493 0.930 . S
H514 C494 0.929 . S
H515 C496 0.930 . S
H516 C498 0.932 . S
H517 C499 0.929 . S
H518 C500 0.928 . S
H519 C502 0.932 . S
C520 C521 1.264 . S
C520 C525 1.479 . S
C520 C530 1.465 . S
C521 C520 1.264 . S
C521 C523 1.339 . S
C521 H548 0.931 . S
C522 C523 1.395 . S
C522 C524 1.320 . S
C523 C521 1.339 . S
C523 C522 1.395 . S
C523 H549 0.929 . S
C524 C522 1.320 . S
C524 C525 1.405 . S
C524 H550 0.930 . S
C525 C520 1.479 . S
C525 C524 1.405 . S
C525 H551 0.931 . S
U526 O527 2.454 . S
U526 O528 2.458 . S
U526 C529 2.984 . S
U526 C530 2.847 . S
U526 C543 2.882 . S
U526 O544 2.441 . S
U526 O545 2.420 . S
U526 O546 2.455 . S
U526 O547 2.449 . S
O527 U526 2.454 . S
O527 C529 1.353 . S
O528 U526 2.458 . S
O528 C529 1.286 . S
C529 U526 2.984 . S
C529 O527 1.353 . S
C529 O528 1.286 . S
C529 C531 1.363 . S
C530 C520 1.465 . S
C530 U526 2.847 . S
C530 O544 1.249 . S
C530 O545 1.202 . S
C531 C529 1.363 . S
C531 C533 1.408 . S
C531 C536 1.342 . S
C532 C533 1.310 . S
C532 C535 1.461 . S
C532 H552 0.932 . S
C533 C531 1.408 . S
C533 C532 1.310 . S
C533 H553 0.930 . S
C534 C535 1.474 . S
C534 C536 1.285 . S
C534 H554 0.929 . S
C535 C532 1.461 . S
C535 C534 1.474 . S
C536 C531 1.342 . S
C536 C534 1.285 . S
C536 H555 0.930 . S
C537 C540 1.424 . S
C537 C542 1.245 . S
C537 C543 1.428 . S
C538 C541 1.260 . S
C538 C542 1.477 . S
C538 H556 0.932 . S
C539 C540 1.384 . S
C539 C541 1.479 . S
C539 H557 0.929 . S
C540 C537 1.424 . S
C540 C539 1.384 . S
C540 H558 0.928 . S
C541 C538 1.260 . S
C541 C539 1.479 . S
C542 C537 1.245 . S
C542 C538 1.477 . S
C542 H559 0.932 . S
C543 U526 2.882 . S
C543 C537 1.428 . S
C543 O546 1.301 . S
C543 O547 1.282 . S
O544 U526 2.441 . S
O544 C530 1.249 . S
O545 U526 2.420 . S
O545 C530 1.202 . S
O546 U526 2.455 . S
O546 C543 1.301 . S
O547 U526 2.449 . S
O547 C543 1.282 . S
H548 C521 0.931 . S
H549 C523 0.929 . S
H550 C524 0.930 . S
H551 C525 0.931 . S
H552 C532 0.932 . S
H553 C533 0.930 . S
H554 C534 0.929 . S
H555 C536 0.930 . S
H556 C538 0.932 . S
H557 C539 0.929 . S
H558 C540 0.928 . S
H559 C542 0.932 . S
C560 C561 1.264 . S
C560 C565 1.479 . S
C560 C570 1.465 . S
C561 C560 1.264 . S
C561 C563 1.339 . S
C561 H588 0.931 . S
C562 C563 1.395 . S
C562 C564 1.320 . S
C563 C561 1.339 . S
C563 C562 1.395 . S
C563 H589 0.929 . S
C564 C562 1.320 . S
C564 C565 1.405 . S
C564 H590 0.930 . S
C565 C560 1.479 . S
C565 C564 1.405 . S
C565 H591 0.931 . S
U566 O567 2.454 . S
U566 O568 2.458 . S
U566 C569 2.984 . S
U566 C570 2.847 . S
U566 C583 2.882 . S
U566 O584 2.441 . S
U566 O585 2.420 . S
U566 O586 2.455 . S
U566 O587 2.449 . S
O567 U566 2.454 . S
O567 C569 1.353 . S
O568 U566 2.458 . S
O568 C569 1.286 . S
C569 U566 2.984 . S
C569 O567 1.353 . S
C569 O568 1.286 . S
C569 C571 1.363 . S
C570 C560 1.465 . S
C570 U566 2.847 . S
C570 O584 1.249 . S
C570 O585 1.202 . S
C571 C569 1.363 . S
C571 C573 1.408 . S
C571 C576 1.342 . S
C572 C573 1.310 . S
C572 C575 1.461 . S
C572 H592 0.932 . S
C573 C571 1.408 . S
C573 C572 1.310 . S
C573 H593 0.930 . S
C574 C575 1.474 . S
C574 C576 1.285 . S
C574 H594 0.929 . S
C575 C572 1.461 . S
C575 C574 1.474 . S
C576 C571 1.342 . S
C576 C574 1.285 . S
C576 H595 0.930 . S
C577 C580 1.424 . S
C577 C582 1.245 . S
C577 C583 1.428 . S
C578 C581 1.260 . S
C578 C582 1.477 . S
C578 H596 0.932 . S
C579 C580 1.384 . S
C579 C581 1.479 . S
C579 H597 0.929 . S
C580 C577 1.424 . S
C580 C579 1.384 . S
C580 H598 0.928 . S
C581 C578 1.260 . S
C581 C579 1.479 . S
C582 C577 1.245 . S
C582 C578 1.477 . S
C582 H599 0.932 . S
C583 U566 2.882 . S
C583 C577 1.428 . S
C583 O586 1.301 . S
C583 O587 1.282 . S
O584 U566 2.441 . S
O584 C570 1.249 . S
O585 U566 2.420 . S
O585 C570 1.202 . S
O586 U566 2.455 . S
O586 C583 1.301 . S
O587 U566 2.449 . S
O587 C583 1.282 . S
H588 C561 0.931 . S
H589 C563 0.929 . S
H590 C564 0.930 . S
H591 C565 0.931 . S
H592 C572 0.932 . S
H593 C573 0.930 . S
H594 C574 0.929 . S
H595 C576 0.930 . S
H596 C578 0.932 . S
H597 C579 0.929 . S
H598 C580 0.928 . S
H599 C582 0.932 . S
C600 C601 1.264 . S
C600 C605 1.479 . S
C600 C610 1.465 . S
C601 C600 1.264 . S
C601 C603 1.339 . S
C601 H628 0.931 . S
C602 C603 1.395 . S
C602 C604 1.320 . S
C603 C601 1.339 . S
C603 C602 1.395 . S
C603 H629 0.929 . S
C604 C602 1.320 . S
C604 C605 1.405 . S
C604 H630 0.930 . S
C605 C600 1.479 . S
C605 C604 1.405 . S
C605 H631 0.931 . S
U606 O607 2.454 . S
U606 O608 2.458 . S
U606 C609 2.984 . S
U606 C610 2.847 . S
U606 C623 2.882 . S
U606 O624 2.441 . S
U606 O625 2.420 . S
U606 O626 2.455 . S
U606 O627 2.449 . S
O607 U606 2.454 . S
O607 C609 1.353 . S
O608 U606 2.458 . S
O608 C609 1.286 . S
C609 U606 2.984 . S
C609 O607 1.353 . S
C609 O608 1.286 . S
C609 C611 1.363 . S
C610 C600 1.465 . S
C610 U606 2.847 . S
C610 O624 1.249 . S
C610 O625 1.202 . S
C611 C609 1.363 . S
C611 C613 1.408 . S
C611 C616 1.342 . S
C612 C613 1.310 . S
C612 C615 1.461 . S
C612 H632 0.932 . S
C613 C611 1.408 . S
C613 C612 1.310 . S
C613 H633 0.930 . S
C614 C615 1.474 . S
C614 C616 1.285 . S
C614 H634 0.929 . S
C615 C612 1.461 . S
C615 C614 1.474 . S
C616 C611 1.342 . S
C616 C614 1.285 . S
C616 H635 0.930 . S
C617 C620 1.424 . S
C617 C622 1.245 . S
C617 C623 1.428 . S
C618 C621 1.260 . S
C618 C622 1.477 . S
C618 H636 0.932 . S
C619 C620 1.384 . S
C619 C621 1.479 . S
C619 H637 0.929 . S
C620 C617 1.424 . S
C620 C619 1.384 . S
C620 H638 0.928 . S
C621 C618 1.260 . S
C621 C619 1.479 . S
C622 C617 1.245 . S
C622 C618 1.477 . S
C622 H639 0.932 . S
C623 U606 2.882 . S
C623 C617 1.428 . S
C623 O626 1.301 . S
C623 O627 1.282 . S
O624 U606 2.441 . S
O624 C610 1.249 . S
O625 U606 2.420 . S
O625 C610 1.202 . S
O626 U606 2.455 . S
O626 C623 1.301 . S
O627 U606 2.449 . S
O627 C623 1.282 . S
H628 C601 0.931 . S
H629 C603 0.929 . S
H630 C604 0.930 . S
H631 C605 0.931 . S
H632 C612 0.932 . S
H633 C613 0.930 . S
H634 C614 0.929 . S
H635 C616 0.930 . S
H636 C618 0.932 . S
H637 C619 0.929 . S
H638 C620 0.928 . S
H639 C622 0.932 . S
C640 C641 1.264 . S
C640 C645 1.479 . S
C640 C650 1.465 . S
C641 C640 1.264 . S
C641 C643 1.339 . S
C641 H668 0.931 . S
C642 C643 1.395 . S
C642 C644 1.320 . S
C643 C641 1.339 . S
C643 C642 1.395 . S
C643 H669 0.929 . S
C644 C642 1.320 . S
C644 C645 1.405 . S
C644 H670 0.930 . S
C645 C640 1.479 . S
C645 C644 1.405 . S
C645 H671 0.931 . S
U646 O647 2.454 1_565 S
U646 O648 2.458 1_565 S
U646 C649 2.984 1_565 S
U646 C650 2.847 . S
U646 C663 2.882 . S
U646 O664 2.441 . S
U646 O665 2.420 . S
U646 O666 2.455 . S
U646 O667 2.449 . S
O647 U646 2.454 1_545 S
O647 C649 1.353 . S
O648 U646 2.458 1_545 S
O648 C649 1.286 . S
C649 U646 2.984 1_545 S
C649 O647 1.353 . S
C649 O648 1.286 . S
C649 C651 1.363 . S
C650 C640 1.465 . S
C650 U646 2.847 . S
C650 O664 1.249 . S
C650 O665 1.202 . S
C651 C649 1.363 . S
C651 C653 1.408 . S
C651 C656 1.342 . S
C652 C653 1.310 . S
C652 C655 1.461 . S
C652 H672 0.932 . S
C653 C651 1.408 . S
C653 C652 1.310 . S
C653 H673 0.930 . S
C654 C655 1.474 . S
C654 C656 1.285 . S
C654 H674 0.929 . S
C655 C652 1.461 . S
C655 C654 1.474 . S
C656 C651 1.342 . S
C656 C654 1.285 . S
C656 H675 0.930 . S
C657 C660 1.424 . S
C657 C662 1.245 . S
C657 C663 1.428 . S
C658 C661 1.260 . S
C658 C662 1.477 . S
C658 H676 0.932 . S
C659 C660 1.384 . S
C659 C661 1.479 . S
C659 H677 0.929 . S
C660 C657 1.424 . S
C660 C659 1.384 . S
C660 H678 0.928 . S
C661 C658 1.260 . S
C661 C659 1.479 . S
C662 C657 1.245 . S
C662 C658 1.477 . S
C662 H679 0.932 . S
C663 U646 2.882 . S
C663 C657 1.428 . S
C663 O666 1.301 . S
C663 O667 1.282 . S
O664 U646 2.441 . S
O664 C650 1.249 . S
O665 U646 2.420 . S
O665 C650 1.202 . S
O666 U646 2.455 . S
O666 C663 1.301 . S
O667 U646 2.449 . S
O667 C663 1.282 . S
H668 C641 0.931 . S
H669 C643 0.929 . S
H670 C644 0.930 . S
H671 C645 0.931 . S
H672 C652 0.932 . S
H673 C653 0.930 . S
H674 C654 0.929 . S
H675 C656 0.930 . S
H676 C658 0.932 . S
H677 C659 0.929 . S
H678 C660 0.928 . S
H679 C662 0.932 . S
C680 C681 1.264 . S
C680 C685 1.479 . S
C680 C690 1.465 . S
C681 C680 1.264 . S
C681 C683 1.339 . S
C681 H708 0.931 . S
C682 C683 1.395 . S
C682 C684 1.320 . S
C683 C681 1.339 . S
C683 C682 1.395 . S
C683 H709 0.929 . S
C684 C682 1.320 . S
C684 C685 1.405 . S
C684 H710 0.930 . S
C685 C680 1.479 . S
C685 C684 1.405 . S
C685 H711 0.931 . S
U686 O687 2.454 . S
U686 O688 2.458 . S
U686 C689 2.984 . S
U686 C690 2.847 . S
U686 C703 2.882 . S
U686 O704 2.441 . S
U686 O705 2.420 . S
U686 O706 2.455 . S
U686 O707 2.449 . S
O687 U686 2.454 . S
O687 C689 1.353 . S
O688 U686 2.458 . S
O688 C689 1.286 . S
C689 U686 2.984 . S
C689 O687 1.353 . S
C689 O688 1.286 . S
C689 C691 1.363 . S
C690 C680 1.465 . S
C690 U686 2.847 . S
C690 O704 1.249 . S
C690 O705 1.202 . S
C691 C689 1.363 . S
C691 C693 1.408 . S
C691 C696 1.342 . S
C692 C693 1.310 . S
C692 C695 1.461 . S
C692 H712 0.932 . S
C693 C691 1.408 . S
C693 C692 1.310 . S
C693 H713 0.930 . S
C694 C695 1.474 . S
C694 C696 1.285 . S
C694 H714 0.929 . S
C695 C692 1.461 . S
C695 C694 1.474 . S
C696 C691 1.342 . S
C696 C694 1.285 . S
C696 H715 0.930 . S
C697 C700 1.424 . S
C697 C702 1.245 . S
C697 C703 1.428 . S
C698 C701 1.260 . S
C698 C702 1.477 . S
C698 H716 0.932 . S
C699 C700 1.384 . S
C699 C701 1.479 . S
C699 H717 0.929 . S
C700 C697 1.424 . S
C700 C699 1.384 . S
C700 H718 0.928 . S
C701 C698 1.260 . S
C701 C699 1.479 . S
C702 C697 1.245 . S
C702 C698 1.477 . S
C702 H719 0.932 . S
C703 U686 2.882 . S
C703 C697 1.428 . S
C703 O706 1.301 . S
C703 O707 1.282 . S
O704 U686 2.441 . S
O704 C690 1.249 . S
O705 U686 2.420 . S
O705 C690 1.202 . S
O706 U686 2.455 . S
O706 C703 1.301 . S
O707 U686 2.449 . S
O707 C703 1.282 . S
H708 C681 0.931 . S
H709 C683 0.929 . S
H710 C684 0.930 . S
H711 C685 0.931 . S
H712 C692 0.932 . S
H713 C693 0.930 . S
H714 C694 0.929 . S
H715 C696 0.930 . S
H716 C698 0.932 . S
H717 C699 0.929 . S
H718 C700 0.928 . S
H719 C702 0.932 . S
C720 C721 1.264 . S
C720 C725 1.479 . S
C720 C730 1.465 . S
C721 C720 1.264 . S
C721 C723 1.339 . S
C721 H748 0.931 . S
C722 C723 1.395 . S
C722 C724 1.320 . S
C723 C721 1.339 . S
C723 C722 1.395 . S
C723 H749 0.929 . S
C724 C722 1.320 . S
C724 C725 1.405 . S
C724 H750 0.930 . S
C725 C720 1.479 . S
C725 C724 1.405 . S
C725 H751 0.931 . S
U726 O727 2.454 1_545 S
U726 O728 2.458 1_545 S
U726 C729 2.984 1_545 S
U726 C730 2.847 . S
U726 C743 2.882 . S
U726 O744 2.441 . S
U726 O745 2.420 . S
U726 O746 2.455 . S
U726 O747 2.449 . S
O727 U726 2.454 1_565 S
O727 C729 1.353 . S
O728 U726 2.458 1_565 S
O728 C729 1.286 . S
C729 U726 2.984 1_565 S
C729 O727 1.353 . S
C729 O728 1.286 . S
C729 C731 1.363 . S
C730 C720 1.465 . S
C730 U726 2.847 . S
C730 O744 1.249 . S
C730 O745 1.202 . S
C731 C729 1.363 . S
C731 C733 1.408 . S
C731 C736 1.342 . S
C732 C733 1.310 . S
C732 C735 1.461 . S
C732 H752 0.932 . S
C733 C731 1.408 . S
C733 C732 1.310 . S
C733 H753 0.930 . S
C734 C735 1.474 . S
C734 C736 1.285 . S
C734 H754 0.929 . S
C735 C732 1.461 . S
C735 C734 1.474 . S
C736 C731 1.342 . S
C736 C734 1.285 . S
C736 H755 0.930 . S
C737 C740 1.424 . S
C737 C742 1.245 . S
C737 C743 1.428 . S
C738 C741 1.260 . S
C738 C742 1.477 . S
C738 H756 0.932 . S
C739 C740 1.384 . S
C739 C741 1.479 . S
C739 H757 0.929 . S
C740 C737 1.424 . S
C740 C739 1.384 . S
C740 H758 0.928 . S
C741 C738 1.260 . S
C741 C739 1.479 . S
C742 C737 1.245 . S
C742 C738 1.477 . S
C742 H759 0.932 . S
C743 U726 2.882 . S
C743 C737 1.428 . S
C743 O746 1.301 . S
C743 O747 1.282 . S
O744 U726 2.441 . S
O744 C730 1.249 . S
O745 U726 2.420 . S
O745 C730 1.202 . S
O746 U726 2.455 . S
O746 C743 1.301 . S
O747 U726 2.449 . S
O747 C743 1.282 . S
H748 C721 0.931 . S
H749 C723 0.929 . S
H750 C724 0.930 . S
H751 C725 0.931 . S
H752 C732 0.932 . S
H753 C733 0.930 . S
H754 C734 0.929 . S
H755 C736 0.930 . S
H756 C738 0.932 . S
H757 C739 0.929 . S
H758 C740 0.928 . S
H759 C742 0.932 . S
C760 C761 1.264 . S
C760 C765 1.479 . S
C760 C770 1.465 . S
C761 C760 1.264 . S
C761 C763 1.339 . S
C761 H788 0.931 . S
C762 C763 1.395 . S
C762 C764 1.320 . S
C763 C761 1.339 . S
C763 C762 1.395 . S
C763 H789 0.929 . S
C764 C762 1.320 . S
C764 C765 1.405 . S
C764 H790 0.930 . S
C765 C760 1.479 . S
C765 C764 1.405 . S
C765 H791 0.931 . S
U766 O767 2.454 . S
U766 O768 2.458 . S
U766 C769 2.984 . S
U766 C770 2.847 . S
U766 C783 2.882 . S
U766 O784 2.441 . S
U766 O785 2.420 . S
U766 O786 2.455 . S
U766 O787 2.449 . S
O767 U766 2.454 . S
O767 C769 1.353 . S
O768 U766 2.458 . S
O768 C769 1.286 . S
C769 U766 2.984 . S
C769 O767 1.353 . S
C769 O768 1.286 . S
C769 C771 1.363 . S
C770 C760 1.465 . S
C770 U766 2.847 . S
C770 O784 1.249 . S
C770 O785 1.202 . S
C771 C769 1.363 . S
C771 C773 1.408 . S
C771 C776 1.342 . S
C772 C773 1.310 . S
C772 C775 1.461 . S
C772 H792 0.932 . S
C773 C771 1.408 . S
C773 C772 1.310 . S
C773 H793 0.930 . S
C774 C775 1.474 . S
C774 C776 1.285 . S
C774 H794 0.929 . S
C775 C772 1.461 . S
C775 C774 1.474 . S
C776 C771 1.342 . S
C776 C774 1.285 . S
C776 H795 0.930 . S
C777 C780 1.424 . S
C777 C782 1.245 . S
C777 C783 1.428 . S
C778 C781 1.260 . S
C778 C782 1.477 . S
C778 H796 0.932 . S
C779 C780 1.384 . S
C779 C781 1.479 . S
C779 H797 0.929 . S
C780 C777 1.424 . S
C780 C779 1.384 . S
C780 H798 0.928 . S
C781 C778 1.260 . S
C781 C779 1.479 . S
C782 C777 1.245 . S
C782 C778 1.477 . S
C782 H799 0.932 . S
C783 U766 2.882 . S
C783 C777 1.428 . S
C783 O786 1.301 . S
C783 O787 1.282 . S
O784 U766 2.441 . S
O784 C770 1.249 . S
O785 U766 2.420 . S
O785 C770 1.202 . S
O786 U766 2.455 . S
O786 C783 1.301 . S
O787 U766 2.449 . S
O787 C783 1.282 . S
H788 C761 0.931 . S
H789 C763 0.929 . S
H790 C764 0.930 . S
H791 C765 0.931 . S
H792 C772 0.932 . S
H793 C773 0.930 . S
H794 C774 0.929 . S
H795 C776 0.930 . S
H796 C778 0.932 . S
H797 C779 0.929 . S
H798 C780 0.928 . S
H799 C782 0.932 . S
C800 C801 1.264 . S
C800 C805 1.479 . S
C800 C810 1.465 . S
C801 C800 1.264 . S
C801 C803 1.339 . S
C801 H828 0.931 . S
C802 C803 1.395 . S
C802 C804 1.320 . S
C803 C801 1.339 . S
C803 C802 1.395 . S
C803 H829 0.929 . S
C804 C802 1.320 . S
C804 C805 1.405 . S
C804 H830 0.930 . S
C805 C800 1.479 . S
C805 C804 1.405 . S
C805 H831 0.931 . S
U806 O807 2.454 1_545 S
U806 O808 2.458 1_545 S
U806 C809 2.984 1_545 S
U806 C810 2.847 . S
U806 C823 2.882 . S
U806 O824 2.441 . S
U806 O825 2.420 . S
U806 O826 2.455 . S
U806 O827 2.449 . S
O807 U806 2.454 1_565 S
O807 C809 1.353 . S
O808 U806 2.458 1_565 S
O808 C809 1.286 . S
C809 U806 2.984 1_565 S
C809 O807 1.353 . S
C809 O808 1.286 . S
C809 C811 1.363 . S
C810 C800 1.465 . S
C810 U806 2.847 . S
C810 O824 1.249 . S
C810 O825 1.202 . S
C811 C809 1.363 . S
C811 C813 1.408 . S
C811 C816 1.342 . S
C812 C813 1.310 . S
C812 C815 1.461 . S
C812 H832 0.932 . S
C813 C811 1.408 . S
C813 C812 1.310 . S
C813 H833 0.930 . S
C814 C815 1.474 . S
C814 C816 1.285 . S
C814 H834 0.929 . S
C815 C812 1.461 . S
C815 C814 1.474 . S
C816 C811 1.342 . S
C816 C814 1.285 . S
C816 H835 0.930 . S
C817 C820 1.424 . S
C817 C822 1.245 . S
C817 C823 1.428 . S
C818 C821 1.260 . S
C818 C822 1.477 . S
C818 H836 0.932 . S
C819 C820 1.384 . S
C819 C821 1.479 . S
C819 H837 0.929 . S
C820 C817 1.424 . S
C820 C819 1.384 . S
C820 H838 0.928 . S
C821 C818 1.260 . S
C821 C819 1.479 . S
C822 C817 1.245 . S
C822 C818 1.477 . S
C822 H839 0.932 . S
C823 U806 2.882 . S
C823 C817 1.428 . S
C823 O826 1.301 . S
C823 O827 1.282 . S
O824 U806 2.441 . S
O824 C810 1.249 . S
O825 U806 2.420 . S
O825 C810 1.202 . S
O826 U806 2.455 . S
O826 C823 1.301 . S
O827 U806 2.449 . S
O827 C823 1.282 . S
H828 C801 0.931 . S
H829 C803 0.929 . S
H830 C804 0.930 . S
H831 C805 0.931 . S
H832 C812 0.932 . S
H833 C813 0.930 . S
H834 C814 0.929 . S
H835 C816 0.930 . S
H836 C818 0.932 . S
H837 C819 0.929 . S
H838 C820 0.928 . S
H839 C822 0.932 . S
C840 C841 1.264 . S
C840 C845 1.479 . S
C840 C850 1.465 . S
C841 C840 1.264 . S
C841 C843 1.339 . S
C841 H868 0.931 . S
C842 C843 1.395 . S
C842 C844 1.320 . S
C843 C841 1.339 . S
C843 C842 1.395 . S
C843 H869 0.929 . S
C844 C842 1.320 . S
C844 C845 1.405 . S
C844 H870 0.930 . S
C845 C840 1.479 . S
C845 C844 1.405 . S
C845 H871 0.931 . S
U846 O847 2.454 . S
U846 O848 2.458 . S
U846 C849 2.984 . S
U846 C850 2.847 . S
U846 C863 2.882 . S
U846 O864 2.441 . S
U846 O865 2.420 . S
U846 O866 2.455 . S
U846 O867 2.449 . S
O847 U846 2.454 . S
O847 C849 1.353 . S
O848 U846 2.458 . S
O848 C849 1.286 . S
C849 U846 2.984 . S
C849 O847 1.353 . S
C849 O848 1.286 . S
C849 C851 1.363 . S
C850 C840 1.465 . S
C850 U846 2.847 . S
C850 O864 1.249 . S
C850 O865 1.202 . S
C851 C849 1.363 . S
C851 C853 1.408 . S
C851 C856 1.342 . S
C852 C853 1.310 . S
C852 C855 1.461 . S
C852 H872 0.932 . S
C853 C851 1.408 . S
C853 C852 1.310 . S
C853 H873 0.930 . S
C854 C855 1.474 . S
C854 C856 1.285 . S
C854 H874 0.929 . S
C855 C852 1.461 . S
C855 C854 1.474 . S
C856 C851 1.342 . S
C856 C854 1.285 . S
C856 H875 0.930 . S
C857 C860 1.424 . S
C857 C862 1.245 . S
C857 C863 1.428 . S
C858 C861 1.260 . S
C858 C862 1.477 . S
C858 H876 0.932 . S
C859 C860 1.384 . S
C859 C861 1.479 . S
C859 H877 0.929 . S
C860 C857 1.424 . S
C860 C859 1.384 . S
C860 H878 0.928 . S
C861 C858 1.260 . S
C861 C859 1.479 . S
C862 C857 1.245 . S
C862 C858 1.477 . S
C862 H879 0.932 . S
C863 U846 2.882 . S
C863 C857 1.428 . S
C863 O866 1.301 . S
C863 O867 1.282 . S
O864 U846 2.441 . S
O864 C850 1.249 . S
O865 U846 2.420 . S
O865 C850 1.202 . S
O866 U846 2.455 . S
O866 C863 1.301 . S
O867 U846 2.449 . S
O867 C863 1.282 . S
H868 C841 0.931 . S
H869 C843 0.929 . S
H870 C844 0.930 . S
H871 C845 0.931 . S
H872 C852 0.932 . S
H873 C853 0.930 . S
H874 C854 0.929 . S
H875 C856 0.930 . S
H876 C858 0.932 . S
H877 C859 0.929 . S
H878 C860 0.928 . S
H879 C862 0.932 . S
C880 C881 1.264 . S
C880 C885 1.479 . S
C880 C890 1.465 . S
C881 C880 1.264 . S
C881 C883 1.339 . S
C881 H908 0.931 . S
C882 C883 1.395 . S
C882 C884 1.320 . S
C883 C881 1.339 . S
C883 C882 1.395 . S
C883 H909 0.929 . S
C884 C882 1.320 . S
C884 C885 1.405 . S
C884 H910 0.930 . S
C885 C880 1.479 . S
C885 C884 1.405 . S
C885 H911 0.931 . S
U886 O887 2.454 1_565 S
U886 O888 2.458 1_565 S
U886 C889 2.984 1_565 S
U886 C890 2.847 . S
U886 C903 2.882 . S
U886 O904 2.441 . S
U886 O905 2.420 . S
U886 O906 2.455 . S
U886 O907 2.449 . S
O887 U886 2.454 1_545 S
O887 C889 1.353 . S
O888 U886 2.458 1_545 S
O888 C889 1.286 . S
C889 U886 2.984 1_545 S
C889 O887 1.353 . S
C889 O888 1.286 . S
C889 C891 1.363 . S
C890 C880 1.465 . S
C890 U886 2.847 . S
C890 O904 1.249 . S
C890 O905 1.202 . S
C891 C889 1.363 . S
C891 C893 1.408 . S
C891 C896 1.342 . S
C892 C893 1.310 . S
C892 C895 1.461 . S
C892 H912 0.932 . S
C893 C891 1.408 . S
C893 C892 1.310 . S
C893 H913 0.930 . S
C894 C895 1.474 . S
C894 C896 1.285 . S
C894 H914 0.929 . S
C895 C892 1.461 . S
C895 C894 1.474 . S
C896 C891 1.342 . S
C896 C894 1.285 . S
C896 H915 0.930 . S
C897 C900 1.424 . S
C897 C902 1.245 . S
C897 C903 1.428 . S
C898 C901 1.260 . S
C898 C902 1.477 . S
C898 H916 0.932 . S
C899 C900 1.384 . S
C899 C901 1.479 . S
C899 H917 0.929 . S
C900 C897 1.424 . S
C900 C899 1.384 . S
C900 H918 0.928 . S
C901 C898 1.260 . S
C901 C899 1.479 . S
C902 C897 1.245 . S
C902 C898 1.477 . S
C902 H919 0.932 . S
C903 U886 2.882 . S
C903 C897 1.428 . S
C903 O906 1.301 . S
C903 O907 1.282 . S
O904 U886 2.441 . S
O904 C890 1.249 . S
O905 U886 2.420 . S
O905 C890 1.202 . S
O906 U886 2.455 . S
O906 C903 1.301 . S
O907 U886 2.449 . S
O907 C903 1.282 . S
H908 C881 0.931 . S
H909 C883 0.929 . S
H910 C884 0.930 . S
H911 C885 0.931 . S
H912 C892 0.932 . S
H913 C893 0.930 . S
H914 C894 0.929 . S
H915 C896 0.930 . S
H916 C898 0.932 . S
H917 C899 0.929 . S
H918 C900 0.928 . S
H919 C902 0.932 . S
C920 C921 1.264 . S
C920 C925 1.479 . S
C920 C930 1.465 . S
C921 C920 1.264 . S
C921 C923 1.339 . S
C921 H948 0.931 . S
C922 C923 1.395 . S
C922 C924 1.320 . S
C923 C921 1.339 . S
C923 C922 1.395 . S
C923 H949 0.929 . S
C924 C922 1.320 . S
C924 C925 1.405 . S
C924 H950 0.930 . S
C925 C920 1.479 . S
C925 C924 1.405 . S
C925 H951 0.931 . S
U926 O927 2.454 . S
U926 O928 2.458 . S
U926 C929 2.984 . S
U926 C930 2.847 . S
U926 C943 2.882 . S
U926 O944 2.441 . S
U926 O945 2.420 . S
U926 O946 2.455 . S
U926 O947 2.449 . S
O927 U926 2.454 . S
O927 C929 1.353 . S
O928 U926 2.458 . S
O928 C929 1.286 . S
C929 U926 2.984 . S
C929 O927 1.353 . S
C929 O928 1.286 . S
C929 C931 1.363 . S
C930 C920 1.465 . S
C930 U926 2.847 . S
C930 O944 1.249 . S
C930 O945 1.202 . S
C931 C929 1.363 . S
C931 C933 1.408 . S
C931 C936 1.342 . S
C932 C933 1.310 . S
C932 C935 1.461 . S
C932 H952 0.932 . S
C933 C931 1.408 . S
C933 C932 1.310 . S
C933 H953 0.930 . S
C934 C935 1.474 . S
C934 C936 1.285 . S
C934 H954 0.929 . S
C935 C932 1.461 . S
C935 C934 1.474 . S
C936 C931 1.342 . S
C936 C934 1.285 . S
C936 H955 0.930 . S
C937 C940 1.424 . S
C937 C942 1.245 . S
C937 C943 1.428 . S
C938 C941 1.260 . S
C938 C942 1.477 . S
C938 H956 0.932 . S
C939 C940 1.384 . S
C939 C941 1.479 . S
C939 H957 0.929 . S
C940 C937 1.424 . S
C940 C939 1.384 . S
C940 H958 0.928 . S
C941 C938 1.260 . S
C941 C939 1.479 . S
C942 C937 1.245 . S
C942 C938 1.477 . S
C942 H959 0.932 . S
C943 U926 2.882 . S
C943 C937 1.428 . S
C943 O946 1.301 . S
C943 O947 1.282 . S
O944 U926 2.441 . S
O944 C930 1.249 . S
O945 U926 2.420 . S
O945 C930 1.202 . S
O946 U926 2.455 . S
O946 C943 1.301 . S
O947 U926 2.449 . S
O947 C943 1.282 . S
H948 C921 0.931 . S
H949 C923 0.929 . S
H950 C924 0.930 . S
H951 C925 0.931 . S
H952 C932 0.932 . S
H953 C933 0.930 . S
H954 C934 0.929 . S
H955 C936 0.930 . S
H956 C938 0.932 . S
H957 C939 0.929 . S
H958 C940 0.928 . S
H959 C942 0.932 . S
C960 C961 1.264 . S
C960 C965 1.479 . S
C960 C970 1.465 1_545 S
C961 C960 1.264 . S
C961 C963 1.339 . S
C961 H988 0.931 . S
C962 C963 1.395 . S
C962 C964 1.320 . S
C963 C961 1.339 . S
C963 C962 1.395 . S
C963 H989 0.929 . S
C964 C962 1.320 . S
C964 C965 1.404 . S
C964 H990 0.930 . S
C965 C960 1.479 . S
C965 C964 1.404 . S
C965 H991 0.932 1_545 S
U966 O967 2.454 . S
U966 O968 2.458 . S
U966 C969 2.984 . S
U966 C970 2.847 . S
U966 C983 2.882 . S
U966 O984 2.441 . S
U966 O985 2.420 . S
U966 O986 2.455 . S
U966 O987 2.449 . S
O967 U966 2.454 . S
O967 C969 1.353 . S
O968 U966 2.458 . S
O968 C969 1.286 . S
C969 U966 2.984 . S
C969 O967 1.353 . S
C969 O968 1.286 . S
C969 C971 1.363 . S
C970 C960 1.465 1_565 S
C970 U966 2.847 . S
C970 O984 1.249 . S
C970 O985 1.202 . S
C971 C969 1.363 . S
C971 C973 1.408 . S
C971 C976 1.342 . S
C972 C973 1.310 . S
C972 C975 1.461 . S
C972 H992 0.932 . S
C973 C971 1.408 . S
C973 C972 1.310 . S
C973 H993 0.930 . S
C974 C975 1.474 . S
C974 C976 1.285 . S
C974 H994 0.929 . S
C975 C972 1.461 . S
C975 C974 1.474 . S
C976 C971 1.342 . S
C976 C974 1.285 . S
C976 H995 0.930 . S
C977 C980 1.425 . S
C977 C982 1.245 1_545 S
C977 C983 1.427 1_545 S
C978 C981 1.260 . S
C978 C982 1.473 1_545 S
C978 H996 0.932 . S
C979 C980 1.384 . S
C979 C981 1.479 . S
C979 H997 0.929 . S
C980 C977 1.425 . S
C980 C979 1.384 . S
C980 H998 0.928 . S
C981 C978 1.260 . S
C981 C979 1.479 . S
C982 C977 1.245 1_565 S
C982 C978 1.473 1_565 S
C982 H999 0.936 . S
C983 U966 2.882 . S
C983 C977 1.427 1_565 S
C983 O986 1.301 . S
C983 O987 1.282 . S
O984 U966 2.441 . S
O984 C970 1.249 . S
O985 U966 2.420 . S
O985 C970 1.202 . S
O986 U966 2.455 . S
O986 C983 1.301 . S
O987 U966 2.449 . S
O987 C983 1.282 . S
H988 C961 0.931 . S
H989 C963 0.929 . S
H990 C964 0.930 . S
H991 C965 0.932 1_565 S
H992 C972 0.932 . S
H993 C973 0.930 . S
H994 C974 0.929 . S
H995 C976 0.930 . S
H996 C978 0.932 . S
H997 C979 0.929 . S
H998 C980 0.928 . S
H999 C982 0.936 . S
C1000 C1001 1.264 . S
C1000 C1005 1.479 . S
C1000 C1010 1.465 . S
C1001 C1000 1.264 . S
C1001 C1003 1.339 . S
C1001 H1028 0.931 . S
C1002 C1003 1.395 . S
C1002 C1004 1.320 . S
C1003 C1001 1.339 . S
C1003 C1002 1.395 . S
C1003 H1029 0.929 . S
C1004 C1002 1.320 . S
C1004 C1005 1.405 . S
C1004 H1030 0.930 . S
C1005 C1000 1.479 . S
C1005 C1004 1.405 . S
C1005 H1031 0.931 . S
U1006 O1007 2.454 . S
U1006 O1008 2.458 . S
U1006 C1009 2.984 . S
U1006 C1010 2.847 . S
U1006 C1023 2.882 . S
U1006 O1024 2.441 . S
U1006 O1025 2.420 . S
U1006 O1026 2.455 . S
U1006 O1027 2.449 . S
O1007 U1006 2.454 . S
O1007 C1009 1.353 . S
O1008 U1006 2.458 . S
O1008 C1009 1.286 . S
C1009 U1006 2.984 . S
C1009 O1007 1.353 . S
C1009 O1008 1.286 . S
C1009 C1011 1.363 . S
C1010 C1000 1.465 . S
C1010 U1006 2.847 . S
C1010 O1024 1.249 . S
C1010 O1025 1.202 . S
C1011 C1009 1.363 . S
C1011 C1013 1.408 . S
C1011 C1016 1.342 . S
C1012 C1013 1.310 . S
C1012 C1015 1.461 . S
C1012 H1032 0.932 . S
C1013 C1011 1.408 . S
C1013 C1012 1.310 . S
C1013 H1033 0.930 . S
C1014 C1015 1.474 . S
C1014 C1016 1.285 . S
C1014 H1034 0.929 . S
C1015 C1012 1.461 . S
C1015 C1014 1.474 . S
C1016 C1011 1.342 . S
C1016 C1014 1.285 . S
C1016 H1035 0.930 . S
C1017 C1020 1.424 . S
C1017 C1022 1.245 . S
C1017 C1023 1.428 . S
C1018 C1021 1.260 . S
C1018 C1022 1.477 . S
C1018 H1036 0.932 . S
C1019 C1020 1.384 . S
C1019 C1021 1.479 . S
C1019 H1037 0.929 . S
C1020 C1017 1.424 . S
C1020 C1019 1.384 . S
C1020 H1038 0.928 . S
C1021 C1018 1.260 . S
C1021 C1019 1.479 . S
C1022 C1017 1.245 . S
C1022 C1018 1.477 . S
C1022 H1039 0.932 . S
C1023 U1006 2.882 . S
C1023 C1017 1.428 . S
C1023 O1026 1.301 . S
C1023 O1027 1.282 . S
O1024 U1006 2.441 . S
O1024 C1010 1.249 . S
O1025 U1006 2.420 . S
O1025 C1010 1.202 . S
O1026 U1006 2.455 . S
O1026 C1023 1.301 . S
O1027 U1006 2.449 . S
O1027 C1023 1.282 . S
H1028 C1001 0.931 . S
H1029 C1003 0.929 . S
H1030 C1004 0.930 . S
H1031 C1005 0.931 . S
H1032 C1012 0.932 . S
H1033 C1013 0.930 . S
H1034 C1014 0.929 . S
H1035 C1016 0.930 . S
H1036 C1018 0.932 . S
H1037 C1019 0.929 . S
H1038 C1020 0.928 . S
H1039 C1022 0.932 . S
C1040 C1041 1.264 . S
C1040 C1045 1.479 . S
C1040 C1050 1.465 1_565 S
C1041 C1040 1.264 . S
C1041 C1043 1.339 . S
C1041 H1068 0.931 . S
C1042 C1043 1.395 . S
C1042 C1044 1.320 . S
C1043 C1041 1.339 . S
C1043 C1042 1.395 . S
C1043 H1069 0.929 . S
C1044 C1042 1.320 . S
C1044 C1045 1.404 . S
C1044 H1070 0.930 . S
C1045 C1040 1.479 . S
C1045 C1044 1.404 . S
C1045 H1071 0.932 1_565 S
U1046 O1047 2.454 . S
U1046 O1048 2.458 . S
U1046 C1049 2.984 . S
U1046 C1050 2.847 . S
U1046 C1063 2.882 . S
U1046 O1064 2.441 . S
U1046 O1065 2.420 . S
U1046 O1066 2.455 . S
U1046 O1067 2.449 . S
O1047 U1046 2.454 . S
O1047 C1049 1.353 . S
O1048 U1046 2.458 . S
O1048 C1049 1.286 . S
C1049 U1046 2.984 . S
C1049 O1047 1.353 . S
C1049 O1048 1.286 . S
C1049 C1051 1.363 . S
C1050 C1040 1.465 1_545 S
C1050 U1046 2.847 . S
C1050 O1064 1.249 . S
C1050 O1065 1.202 . S
C1051 C1049 1.363 . S
C1051 C1053 1.408 . S
C1051 C1056 1.342 . S
C1052 C1053 1.310 . S
C1052 C1055 1.461 . S
C1052 H1072 0.932 . S
C1053 C1051 1.408 . S
C1053 C1052 1.310 . S
C1053 H1073 0.930 . S
C1054 C1055 1.474 . S
C1054 C1056 1.285 . S
C1054 H1074 0.929 . S
C1055 C1052 1.461 . S
C1055 C1054 1.474 . S
C1056 C1051 1.342 . S
C1056 C1054 1.285 . S
C1056 H1075 0.930 . S
C1057 C1060 1.425 . S
C1057 C1062 1.245 1_565 S
C1057 C1063 1.427 1_565 S
C1058 C1061 1.260 . S
C1058 C1062 1.473 1_565 S
C1058 H1076 0.932 . S
C1059 C1060 1.384 . S
C1059 C1061 1.479 . S
C1059 H1077 0.929 . S
C1060 C1057 1.425 . S
C1060 C1059 1.384 . S
C1060 H1078 0.928 . S
C1061 C1058 1.260 . S
C1061 C1059 1.479 . S
C1062 C1057 1.245 1_545 S
C1062 C1058 1.473 1_545 S
C1062 H1079 0.936 . S
C1063 U1046 2.882 . S
C1063 C1057 1.427 1_545 S
C1063 O1066 1.301 . S
C1063 O1067 1.282 . S
O1064 U1046 2.441 . S
O1064 C1050 1.249 . S
O1065 U1046 2.420 . S
O1065 C1050 1.202 . S
O1066 U1046 2.455 . S
O1066 C1063 1.301 . S
O1067 U1046 2.449 . S
O1067 C1063 1.282 . S
H1068 C1041 0.931 . S
H1069 C1043 0.929 . S
H1070 C1044 0.930 . S
H1071 C1045 0.932 1_545 S
H1072 C1052 0.932 . S
H1073 C1053 0.930 . S
H1074 C1054 0.929 . S
H1075 C1056 0.930 . S
H1076 C1058 0.932 . S
H1077 C1059 0.929 . S
H1078 C1060 0.928 . S
H1079 C1062 0.936 . S
C1080 C1081 1.264 . S
C1080 C1085 1.479 . S
C1080 C1090 1.465 . S
C1081 C1080 1.264 . S
C1081 C1083 1.339 . S
C1081 H1108 0.931 . S
C1082 C1083 1.395 . S
C1082 C1084 1.320 . S
C1083 C1081 1.339 . S
C1083 C1082 1.395 . S
C1083 H1109 0.929 . S
C1084 C1082 1.320 . S
C1084 C1085 1.405 . S
C1084 H1110 0.930 . S
C1085 C1080 1.479 . S
C1085 C1084 1.405 . S
C1085 H1111 0.931 . S
U1086 O1087 2.454 . S
U1086 O1088 2.458 . S
U1086 C1089 2.984 . S
U1086 C1090 2.847 . S
U1086 C1103 2.882 . S
U1086 O1104 2.441 . S
U1086 O1105 2.420 . S
U1086 O1106 2.455 . S
U1086 O1107 2.449 . S
O1087 U1086 2.454 . S
O1087 C1089 1.353 . S
O1088 U1086 2.458 . S
O1088 C1089 1.286 . S
C1089 U1086 2.984 . S
C1089 O1087 1.353 . S
C1089 O1088 1.286 . S
C1089 C1091 1.363 . S
C1090 C1080 1.465 . S
C1090 U1086 2.847 . S
C1090 O1104 1.249 . S
C1090 O1105 1.202 . S
C1091 C1089 1.363 . S
C1091 C1093 1.408 . S
C1091 C1096 1.342 . S
C1092 C1093 1.310 . S
C1092 C1095 1.461 . S
C1092 H1112 0.932 . S
C1093 C1091 1.408 . S
C1093 C1092 1.310 . S
C1093 H1113 0.930 . S
C1094 C1095 1.474 . S
C1094 C1096 1.285 . S
C1094 H1114 0.929 . S
C1095 C1092 1.461 . S
C1095 C1094 1.474 . S
C1096 C1091 1.342 . S
C1096 C1094 1.285 . S
C1096 H1115 0.930 . S
C1097 C1100 1.424 . S
C1097 C1102 1.245 . S
C1097 C1103 1.428 . S
C1098 C1101 1.260 . S
C1098 C1102 1.477 . S
C1098 H1116 0.932 . S
C1099 C1100 1.384 . S
C1099 C1101 1.479 . S
C1099 H1117 0.929 . S
C1100 C1097 1.424 . S
C1100 C1099 1.384 . S
C1100 H1118 0.928 . S
C1101 C1098 1.260 . S
C1101 C1099 1.479 . S
C1102 C1097 1.245 . S
C1102 C1098 1.477 . S
C1102 H1119 0.932 . S
C1103 U1086 2.882 . S
C1103 C1097 1.428 . S
C1103 O1106 1.301 . S
C1103 O1107 1.282 . S
O1104 U1086 2.441 . S
O1104 C1090 1.249 . S
O1105 U1086 2.420 . S
O1105 C1090 1.202 . S
O1106 U1086 2.455 . S
O1106 C1103 1.301 . S
O1107 U1086 2.449 . S
O1107 C1103 1.282 . S
H1108 C1081 0.931 . S
H1109 C1083 0.929 . S
H1110 C1084 0.930 . S
H1111 C1085 0.931 . S
H1112 C1092 0.932 . S
H1113 C1093 0.930 . S
H1114 C1094 0.929 . S
H1115 C1096 0.930 . S
H1116 C1098 0.932 . S
H1117 C1099 0.929 . S
H1118 C1100 0.928 . S
H1119 C1102 0.932 . S
C1120 C1121 1.264 . S
C1120 C1125 1.479 . S
C1120 C1130 1.465 1_565 S
C1121 C1120 1.264 . S
C1121 C1123 1.339 . S
C1121 H1148 0.931 . S
C1122 C1123 1.395 . S
C1122 C1124 1.320 . S
C1123 C1121 1.339 . S
C1123 C1122 1.395 . S
C1123 H1149 0.929 . S
C1124 C1122 1.320 . S
C1124 C1125 1.404 . S
C1124 H1150 0.930 . S
C1125 C1120 1.479 . S
C1125 C1124 1.404 . S
C1125 H1151 0.932 1_565 S
U1126 O1127 2.454 . S
U1126 O1128 2.458 . S
U1126 C1129 2.984 . S
U1126 C1130 2.847 . S
U1126 C1143 2.882 . S
U1126 O1144 2.441 . S
U1126 O1145 2.420 . S
U1126 O1146 2.455 . S
U1126 O1147 2.449 . S
O1127 U1126 2.454 . S
O1127 C1129 1.353 . S
O1128 U1126 2.458 . S
O1128 C1129 1.286 . S
C1129 U1126 2.984 . S
C1129 O1127 1.353 . S
C1129 O1128 1.286 . S
C1129 C1131 1.363 . S
C1130 C1120 1.465 1_545 S
C1130 U1126 2.847 . S
C1130 O1144 1.249 . S
C1130 O1145 1.202 . S
C1131 C1129 1.363 . S
C1131 C1133 1.408 . S
C1131 C1136 1.342 . S
C1132 C1133 1.310 . S
C1132 C1135 1.461 . S
C1132 H1152 0.932 . S
C1133 C1131 1.408 . S
C1133 C1132 1.310 . S
C1133 H1153 0.930 . S
C1134 C1135 1.474 . S
C1134 C1136 1.285 . S
C1134 H1154 0.929 . S
C1135 C1132 1.461 . S
C1135 C1134 1.474 . S
C1136 C1131 1.342 . S
C1136 C1134 1.285 . S
C1136 H1155 0.930 . S
C1137 C1140 1.425 . S
C1137 C1142 1.245 1_565 S
C1137 C1143 1.427 1_565 S
C1138 C1141 1.260 . S
C1138 C1142 1.473 1_565 S
C1138 H1156 0.932 . S
C1139 C1140 1.384 . S
C1139 C1141 1.479 . S
C1139 H1157 0.929 . S
C1140 C1137 1.425 . S
C1140 C1139 1.384 . S
C1140 H1158 0.928 . S
C1141 C1138 1.260 . S
C1141 C1139 1.479 . S
C1142 C1137 1.245 1_545 S
C1142 C1138 1.473 1_545 S
C1142 H1159 0.936 . S
C1143 U1126 2.882 . S
C1143 C1137 1.427 1_545 S
C1143 O1146 1.301 . S
C1143 O1147 1.282 . S
O1144 U1126 2.441 . S
O1144 C1130 1.249 . S
O1145 U1126 2.420 . S
O1145 C1130 1.202 . S
O1146 U1126 2.455 . S
O1146 C1143 1.301 . S
O1147 U1126 2.449 . S
O1147 C1143 1.282 . S
H1148 C1121 0.931 . S
H1149 C1123 0.929 . S
H1150 C1124 0.930 . S
H1151 C1125 0.932 1_545 S
H1152 C1132 0.932 . S
H1153 C1133 0.930 . S
H1154 C1134 0.929 . S
H1155 C1136 0.930 . S
H1156 C1138 0.932 . S
H1157 C1139 0.929 . S
H1158 C1140 0.928 . S
H1159 C1142 0.936 . S
C1160 C1161 1.264 . S
C1160 C1165 1.479 . S
C1160 C1170 1.465 . S
C1161 C1160 1.264 . S
C1161 C1163 1.339 . S
C1161 H1188 0.931 . S
C1162 C1163 1.395 . S
C1162 C1164 1.320 . S
C1163 C1161 1.339 . S
C1163 C1162 1.395 . S
C1163 H1189 0.929 . S
C1164 C1162 1.320 . S
C1164 C1165 1.405 . S
C1164 H1190 0.930 . S
C1165 C1160 1.479 . S
C1165 C1164 1.405 . S
C1165 H1191 0.931 . S
U1166 O1167 2.454 . S
U1166 O1168 2.458 . S
U1166 C1169 2.984 . S
U1166 C1170 2.847 . S
U1166 C1183 2.882 . S
U1166 O1184 2.441 . S
U1166 O1185 2.420 . S
U1166 O1186 2.455 . S
U1166 O1187 2.449 . S
O1167 U1166 2.454 . S
O1167 C1169 1.353 . S
O1168 U1166 2.458 . S
O1168 C1169 1.286 . S
C1169 U1166 2.984 . S
C1169 O1167 1.353 . S
C1169 O1168 1.286 . S
C1169 C1171 1.363 . S
C1170 C1160 1.465 . S
C1170 U1166 2.847 . S
C1170 O1184 1.249 . S
C1170 O1185 1.202 . S
C1171 C1169 1.363 . S
C1171 C1173 1.408 . S
C1171 C1176 1.342 . S
C1172 C1173 1.310 . S
C1172 C1175 1.461 . S
C1172 H1192 0.932 . S
C1173 C1171 1.408 . S
C1173 C1172 1.310 . S
C1173 H1193 0.930 . S
C1174 C1175 1.474 . S
C1174 C1176 1.285 . S
C1174 H1194 0.929 . S
C1175 C1172 1.461 . S
C1175 C1174 1.474 . S
C1176 C1171 1.342 . S
C1176 C1174 1.285 . S
C1176 H1195 0.930 . S
C1177 C1180 1.424 . S
C1177 C1182 1.245 . S
C1177 C1183 1.428 . S
C1178 C1181 1.260 . S
C1178 C1182 1.477 . S
C1178 H1196 0.932 . S
C1179 C1180 1.384 . S
C1179 C1181 1.479 . S
C1179 H1197 0.929 . S
C1180 C1177 1.424 . S
C1180 C1179 1.384 . S
C1180 H1198 0.928 . S
C1181 C1178 1.260 . S
C1181 C1179 1.479 . S
C1182 C1177 1.245 . S
C1182 C1178 1.477 . S
C1182 H1199 0.932 . S
C1183 U1166 2.882 . S
C1183 C1177 1.428 . S
C1183 O1186 1.301 . S
C1183 O1187 1.282 . S
O1184 U1166 2.441 . S
O1184 C1170 1.249 . S
O1185 U1166 2.420 . S
O1185 C1170 1.202 . S
O1186 U1166 2.455 . S
O1186 C1183 1.301 . S
O1187 U1166 2.449 . S
O1187 C1183 1.282 . S
H1188 C1161 0.931 . S
H1189 C1163 0.929 . S
H1190 C1164 0.930 . S
H1191 C1165 0.931 . S
H1192 C1172 0.932 . S
H1193 C1173 0.930 . S
H1194 C1174 0.929 . S
H1195 C1176 0.930 . S
H1196 C1178 0.932 . S
H1197 C1179 0.929 . S
H1198 C1180 0.928 . S
H1199 C1182 0.932 . S
C1200 C1201 1.264 . S
C1200 C1205 1.479 . S
C1200 C1210 1.465 1_545 S
C1201 C1200 1.264 . S
C1201 C1203 1.339 . S
C1201 H1228 0.931 . S
C1202 C1203 1.395 . S
C1202 C1204 1.320 . S
C1203 C1201 1.339 . S
C1203 C1202 1.395 . S
C1203 H1229 0.929 . S
C1204 C1202 1.320 . S
C1204 C1205 1.404 . S
C1204 H1230 0.930 . S
C1205 C1200 1.479 . S
C1205 C1204 1.404 . S
C1205 H1231 0.932 1_545 S
U1206 O1207 2.454 . S
U1206 O1208 2.458 . S
U1206 C1209 2.984 . S
U1206 C1210 2.847 . S
U1206 C1223 2.882 . S
U1206 O1224 2.441 . S
U1206 O1225 2.420 . S
U1206 O1226 2.455 . S
U1206 O1227 2.449 . S
O1207 U1206 2.454 . S
O1207 C1209 1.353 . S
O1208 U1206 2.458 . S
O1208 C1209 1.286 . S
C1209 U1206 2.984 . S
C1209 O1207 1.353 . S
C1209 O1208 1.286 . S
C1209 C1211 1.363 . S
C1210 C1200 1.465 1_565 S
C1210 U1206 2.847 . S
C1210 O1224 1.249 . S
C1210 O1225 1.202 . S
C1211 C1209 1.363 . S
C1211 C1213 1.408 . S
C1211 C1216 1.342 . S
C1212 C1213 1.310 . S
C1212 C1215 1.461 . S
C1212 H1232 0.932 . S
C1213 C1211 1.408 . S
C1213 C1212 1.310 . S
C1213 H1233 0.930 . S
C1214 C1215 1.474 . S
C1214 C1216 1.285 . S
C1214 H1234 0.929 . S
C1215 C1212 1.461 . S
C1215 C1214 1.474 . S
C1216 C1211 1.342 . S
C1216 C1214 1.285 . S
C1216 H1235 0.930 . S
C1217 C1220 1.425 . S
C1217 C1222 1.245 1_545 S
C1217 C1223 1.427 1_545 S
C1218 C1221 1.260 . S
C1218 C1222 1.473 1_545 S
C1218 H1236 0.932 . S
C1219 C1220 1.384 . S
C1219 C1221 1.479 . S
C1219 H1237 0.929 . S
C1220 C1217 1.425 . S
C1220 C1219 1.384 . S
C1220 H1238 0.928 . S
C1221 C1218 1.260 . S
C1221 C1219 1.479 . S
C1222 C1217 1.245 1_565 S
C1222 C1218 1.473 1_565 S
C1222 H1239 0.936 . S
C1223 U1206 2.882 . S
C1223 C1217 1.427 1_565 S
C1223 O1226 1.301 . S
C1223 O1227 1.282 . S
O1224 U1206 2.441 . S
O1224 C1210 1.249 . S
O1225 U1206 2.420 . S
O1225 C1210 1.202 . S
O1226 U1206 2.455 . S
O1226 C1223 1.301 . S
O1227 U1206 2.449 . S
O1227 C1223 1.282 . S
H1228 C1201 0.931 . S
H1229 C1203 0.929 . S
H1230 C1204 0.930 . S
H1231 C1205 0.932 1_565 S
H1232 C1212 0.932 . S
H1233 C1213 0.930 . S
H1234 C1214 0.929 . S
H1235 C1216 0.930 . S
H1236 C1218 0.932 . S
H1237 C1219 0.929 . S
H1238 C1220 0.928 . S
H1239 C1222 0.936 . S
C1240 C1241 1.264 . S
C1240 C1245 1.479 . S
C1240 C1250 1.465 . S
C1241 C1240 1.264 . S
C1241 C1243 1.339 . S
C1241 H1268 0.931 . S
C1242 C1243 1.395 . S
C1242 C1244 1.320 . S
C1243 C1241 1.339 . S
C1243 C1242 1.395 . S
C1243 H1269 0.929 . S
C1244 C1242 1.320 . S
C1244 C1245 1.405 . S
C1244 H1270 0.930 . S
C1245 C1240 1.479 . S
C1245 C1244 1.405 . S
C1245 H1271 0.931 . S
U1246 O1247 2.454 . S
U1246 O1248 2.458 . S
U1246 C1249 2.984 . S
U1246 C1250 2.847 . S
U1246 C1263 2.882 . S
U1246 O1264 2.441 . S
U1246 O1265 2.420 . S
U1246 O1266 2.455 . S
U1246 O1267 2.449 . S
O1247 U1246 2.454 . S
O1247 C1249 1.353 . S
O1248 U1246 2.458 . S
O1248 C1249 1.286 . S
C1249 U1246 2.984 . S
C1249 O1247 1.353 . S
C1249 O1248 1.286 . S
C1249 C1251 1.363 . S
C1250 C1240 1.465 . S
C1250 U1246 2.847 . S
C1250 O1264 1.249 . S
C1250 O1265 1.202 . S
C1251 C1249 1.363 . S
C1251 C1253 1.408 . S
C1251 C1256 1.342 . S
C1252 C1253 1.310 . S
C1252 C1255 1.461 . S
C1252 H1272 0.932 . S
C1253 C1251 1.408 . S
C1253 C1252 1.310 . S
C1253 H1273 0.930 . S
C1254 C1255 1.474 . S
C1254 C1256 1.285 . S
C1254 H1274 0.929 . S
C1255 C1252 1.461 . S
C1255 C1254 1.474 . S
C1256 C1251 1.342 . S
C1256 C1254 1.285 . S
C1256 H1275 0.930 . S
C1257 C1260 1.424 . S
C1257 C1262 1.245 . S
C1257 C1263 1.428 . S
C1258 C1261 1.260 . S
C1258 C1262 1.477 . S
C1258 H1276 0.932 . S
C1259 C1260 1.384 . S
C1259 C1261 1.479 . S
C1259 H1277 0.929 . S
C1260 C1257 1.424 . S
C1260 C1259 1.384 . S
C1260 H1278 0.928 . S
C1261 C1258 1.260 . S
C1261 C1259 1.479 . S
C1262 C1257 1.245 . S
C1262 C1258 1.477 . S
C1262 H1279 0.932 . S
C1263 U1246 2.882 . S
C1263 C1257 1.428 . S
C1263 O1266 1.301 . S
C1263 O1267 1.282 . S
O1264 U1246 2.441 . S
O1264 C1250 1.249 . S
O1265 U1246 2.420 . S
O1265 C1250 1.202 . S
O1266 U1246 2.455 . S
O1266 C1263 1.301 . S
O1267 U1246 2.449 . S
O1267 C1263 1.282 . S
H1268 C1241 0.931 . S
H1269 C1243 0.929 . S
H1270 C1244 0.930 . S
H1271 C1245 0.931 . S
H1272 C1252 0.932 . S
H1273 C1253 0.930 . S
H1274 C1254 0.929 . S
H1275 C1256 0.930 . S
H1276 C1258 0.932 . S
H1277 C1259 0.929 . S
H1278 C1260 0.928 . S
H1279 C1262 0.932 . S
C1280 C1281 1.387 . S
C1280 H1284 0.950 . S
C1280 C1289 1.390 1_556 S
C1281 C1280 1.387 . S
C1281 C1283 1.387 . S
H1282 C1289 0.950 . S
C1283 C1281 1.387 . S
C1283 C1285 1.390 1_556 S
C1283 H1287 0.950 . S
H1284 C1280 0.950 . S
C1285 C1283 1.390 1_554 S
C1285 C1286 1.387 . S
C1285 H1288 0.950 . S
C1286 C1285 1.387 . S
C1286 C1289 1.387 . S
H1287 C1283 0.950 . S
H1288 C1285 0.950 . S
C1289 C1280 1.390 1_554 S
C1289 H1282 0.950 . S
C1289 C1286 1.387 . S
C1290 C1291 1.387 . S
C1290 H1294 0.950 . S
C1290 C1299 1.390 . S
C1291 C1290 1.387 . S
C1291 C1293 1.387 . S
H1292 C1299 0.950 . S
C1293 C1291 1.387 . S
C1293 C1295 1.390 . S
C1293 H1297 0.950 . S
H1294 C1290 0.950 . S
C1295 C1293 1.390 . S
C1295 C1296 1.387 . S
C1295 H1298 0.950 . S
C1296 C1295 1.387 . S
C1296 C1299 1.387 . S
H1297 C1293 0.950 . S
H1298 C1295 0.950 . S
C1299 C1290 1.390 . S
C1299 H1292 0.950 . S
C1299 C1296 1.387 . S
C1300 C1301 1.387 . S
C1300 H1304 0.950 . S
C1300 C1309 1.390 . S
C1301 C1300 1.387 . S
C1301 C1303 1.387 . S
H1302 C1309 0.950 . S
C1303 C1301 1.387 . S
C1303 C1305 1.390 . S
C1303 H1307 0.950 . S
H1304 C1300 0.950 . S
C1305 C1303 1.390 . S
C1305 C1306 1.387 . S
C1305 H1308 0.950 . S
C1306 C1305 1.387 . S
C1306 C1309 1.387 . S
H1307 C1303 0.950 . S
H1308 C1305 0.950 . S
C1309 C1300 1.390 . S
C1309 H1302 0.950 . S
C1309 C1306 1.387 . S
C1310 C1311 1.387 . S
C1310 H1314 0.950 . S
C1310 C1319 1.390 . S
C1311 C1310 1.387 . S
C1311 C1313 1.387 . S
H1312 C1319 0.950 . S
C1313 C1311 1.387 . S
C1313 C1315 1.390 . S
C1313 H1317 0.950 . S
H1314 C1310 0.950 . S
C1315 C1313 1.390 . S
C1315 C1316 1.387 . S
C1315 H1318 0.950 . S
C1316 C1315 1.387 . S
C1316 C1319 1.387 . S
H1317 C1313 0.950 . S
H1318 C1315 0.950 . S
C1319 C1310 1.390 . S
C1319 H1312 0.950 . S
C1319 C1316 1.387 . S
C1320 C1321 1.387 . S
C1320 H1324 0.950 . S
C1320 C1329 1.390 1_554 S
C1321 C1320 1.387 . S
C1321 C1323 1.387 . S
H1322 C1329 0.950 . S
C1323 C1321 1.387 . S
C1323 C1325 1.390 1_554 S
C1323 H1327 0.950 . S
H1324 C1320 0.950 . S
C1325 C1323 1.390 1_556 S
C1325 C1326 1.387 . S
C1325 H1328 0.950 . S
C1326 C1325 1.387 . S
C1326 C1329 1.387 . S
H1327 C1323 0.950 . S
H1328 C1325 0.950 . S
C1329 C1320 1.390 1_556 S
C1329 H1322 0.950 . S
C1329 C1326 1.387 . S
C1330 C1331 1.387 . S
C1330 H1334 0.950 . S
C1330 C1339 1.390 . S
C1331 C1330 1.387 . S
C1331 C1333 1.387 . S
H1332 C1339 0.950 . S
C1333 C1331 1.387 . S
C1333 C1335 1.390 . S
C1333 H1337 0.950 . S
H1334 C1330 0.950 . S
C1335 C1333 1.390 . S
C1335 C1336 1.387 . S
C1335 H1338 0.950 . S
C1336 C1335 1.387 . S
C1336 C1339 1.387 . S
H1337 C1333 0.950 . S
H1338 C1335 0.950 . S
C1339 C1330 1.390 . S
C1339 H1332 0.950 . S
C1339 C1336 1.387 . S
C1340 C1341 1.387 . S
C1340 H1344 0.950 . S
C1340 C1349 1.390 . S
C1341 C1340 1.387 . S
C1341 C1343 1.387 . S
H1342 C1349 0.950 . S
C1343 C1341 1.387 . S
C1343 C1345 1.390 . S
C1343 H1347 0.950 . S
H1344 C1340 0.950 . S
C1345 C1343 1.390 . S
C1345 C1346 1.387 . S
C1345 H1348 0.950 . S
C1346 C1345 1.387 . S
C1346 C1349 1.387 . S
H1347 C1343 0.950 . S
H1348 C1345 0.950 . S
C1349 C1340 1.390 . S
C1349 H1342 0.950 . S
C1349 C1346 1.387 . S
C1350 C1351 1.387 . S
C1350 H1354 0.950 . S
C1350 C1359 1.390 . S
C1351 C1350 1.387 . S
C1351 C1353 1.387 . S
H1352 C1359 0.950 . S
C1353 C1351 1.387 . S
C1353 C1355 1.390 . S
C1353 H1357 0.950 . S
H1354 C1350 0.950 . S
C1355 C1353 1.390 . S
C1355 C1356 1.387 . S
C1355 H1358 0.950 . S
C1356 C1355 1.387 . S
C1356 C1359 1.387 . S
H1357 C1353 0.950 . S
H1358 C1355 0.950 . S
C1359 C1350 1.390 . S
C1359 H1352 0.950 . S
C1359 C1356 1.387 . S
C1360 C1361 1.387 . S
C1360 H1364 0.950 . S
C1360 C1369 1.390 1_565 S
C1361 C1360 1.387 . S
C1361 C1363 1.387 . S
H1362 C1369 0.950 . S
C1363 C1361 1.387 . S
C1363 C1365 1.390 1_565 S
C1363 H1367 0.950 . S
H1364 C1360 0.950 . S
C1365 C1363 1.390 1_545 S
C1365 C1366 1.387 . S
C1365 H1368 0.950 . S
C1366 C1365 1.387 . S
C1366 C1369 1.387 . S
H1367 C1363 0.950 . S
H1368 C1365 0.950 . S
C1369 C1360 1.390 1_545 S
C1369 H1362 0.950 . S
C1369 C1366 1.387 . S
C1370 C1371 1.387 . S
C1370 H1374 0.950 . S
C1370 C1379 1.390 . S
C1371 C1370 1.387 . S
C1371 C1373 1.387 . S
H1372 C1379 0.950 . S
C1373 C1371 1.387 . S
C1373 C1375 1.390 . S
C1373 H1377 0.950 . S
H1374 C1370 0.950 . S
C1375 C1373 1.390 . S
C1375 C1376 1.387 . S
C1375 H1378 0.950 . S
C1376 C1375 1.387 . S
C1376 C1379 1.387 . S
H1377 C1373 0.950 . S
H1378 C1375 0.950 . S
C1379 C1370 1.390 . S
C1379 H1372 0.950 . S
C1379 C1376 1.387 . S
C1380 C1381 1.387 . S
C1380 H1384 0.950 . S
C1380 C1389 1.390 1_544 S
C1381 C1380 1.387 . S
C1381 C1383 1.387 . S
H1382 C1389 0.950 . S
C1383 C1381 1.387 . S
C1383 C1385 1.390 1_544 S
C1383 H1387 0.950 . S
H1384 C1380 0.950 . S
C1385 C1383 1.390 1_566 S
C1385 C1386 1.387 . S
C1385 H1388 0.950 . S
C1386 C1385 1.387 . S
C1386 C1389 1.387 . S
H1387 C1383 0.950 . S
H1388 C1385 0.950 . S
C1389 C1380 1.390 1_566 S
C1389 H1382 0.950 . S
C1389 C1386 1.387 . S
C1390 C1391 1.387 . S
C1390 H1394 0.950 . S
C1390 C1399 1.390 . S
C1391 C1390 1.387 . S
C1391 C1393 1.387 . S
H1392 C1399 0.950 . S
C1393 C1391 1.387 . S
C1393 C1395 1.390 . S
C1393 H1397 0.950 . S
H1394 C1390 0.950 . S
C1395 C1393 1.390 . S
C1395 C1396 1.387 . S
C1395 H1398 0.950 . S
C1396 C1395 1.387 . S
C1396 C1399 1.387 . S
H1397 C1393 0.950 . S
H1398 C1395 0.950 . S
C1399 C1390 1.390 . S
C1399 H1392 0.950 . S
C1399 C1396 1.387 . S
C1400 C1401 1.387 . S
C1400 H1404 0.950 . S
C1400 C1409 1.390 1_545 S
C1401 C1400 1.387 . S
C1401 C1403 1.387 . S
H1402 C1409 0.950 . S
C1403 C1401 1.387 . S
C1403 C1405 1.390 1_545 S
C1403 H1407 0.950 . S
H1404 C1400 0.950 . S
C1405 C1403 1.390 1_565 S
C1405 C1406 1.387 . S
C1405 H1408 0.950 . S
C1406 C1405 1.387 . S
C1406 C1409 1.387 . S
H1407 C1403 0.950 . S
H1408 C1405 0.950 . S
C1409 C1400 1.390 1_565 S
C1409 H1402 0.950 . S
C1409 C1406 1.387 . S
C1410 C1411 1.387 . S
C1410 H1414 0.950 . S
C1410 C1419 1.390 . S
C1411 C1410 1.387 . S
C1411 C1413 1.387 . S
H1412 C1419 0.950 . S
C1413 C1411 1.387 . S
C1413 C1415 1.390 . S
C1413 H1417 0.950 . S
H1414 C1410 0.950 . S
C1415 C1413 1.390 . S
C1415 C1416 1.387 . S
C1415 H1418 0.950 . S
C1416 C1415 1.387 . S
C1416 C1419 1.387 . S
H1417 C1413 0.950 . S
H1418 C1415 0.950 . S
C1419 C1410 1.390 . S
C1419 H1412 0.950 . S
C1419 C1416 1.387 . S
C1420 C1421 1.387 . S
C1420 H1424 0.950 . S
C1420 C1429 1.390 1_566 S
C1421 C1420 1.387 . S
C1421 C1423 1.387 . S
H1422 C1429 0.950 . S
C1423 C1421 1.387 . S
C1423 C1425 1.390 1_566 S
C1423 H1427 0.950 . S
H1424 C1420 0.950 . S
C1425 C1423 1.390 1_544 S
C1425 C1426 1.387 . S
C1425 H1428 0.950 . S
C1426 C1425 1.387 . S
C1426 C1429 1.387 . S
H1427 C1423 0.950 . S
H1428 C1425 0.950 . S
C1429 C1420 1.390 1_544 S
C1429 H1422 0.950 . S
C1429 C1426 1.387 . S
C1430 C1431 1.387 . S
C1430 H1434 0.950 . S
C1430 C1439 1.390 . S
C1431 C1430 1.387 . S
C1431 C1433 1.387 . S
H1432 C1439 0.950 . S
C1433 C1431 1.387 . S
C1433 C1435 1.390 . S
C1433 H1437 0.950 . S
H1434 C1430 0.950 . S
C1435 C1433 1.390 . S
C1435 C1436 1.387 . S
C1435 H1438 0.950 . S
C1436 C1435 1.387 . S
C1436 C1439 1.387 . S
H1437 C1433 0.950 . S
H1438 C1435 0.950 . S
C1439 C1430 1.390 . S
C1439 H1432 0.950 . S
C1439 C1436 1.387 . S
C1440 C1441 1.387 . S
C1440 H1444 0.950 . S
C1440 C1449 1.390 1_655 S
C1441 C1440 1.387 . S
C1441 C1443 1.387 . S
H1442 C1449 0.950 . S
C1443 C1441 1.387 . S
C1443 C1445 1.390 1_655 S
C1443 H1447 0.950 . S
H1444 C1440 0.950 . S
C1445 C1443 1.390 1_455 S
C1445 C1446 1.387 . S
C1445 H1448 0.950 . S
C1446 C1445 1.387 . S
C1446 C1449 1.387 . S
H1447 C1443 0.950 . S
H1448 C1445 0.950 . S
C1449 C1440 1.390 1_455 S
C1449 H1442 0.950 . S
C1449 C1446 1.387 . S
C1450 C1451 1.387 . S
C1450 H1454 0.950 . S
C1450 C1459 1.390 . S
C1451 C1450 1.387 . S
C1451 C1453 1.387 . S
H1452 C1459 0.950 . S
C1453 C1451 1.387 . S
C1453 C1455 1.390 . S
C1453 H1457 0.950 . S
H1454 C1450 0.950 . S
C1455 C1453 1.390 . S
C1455 C1456 1.387 . S
C1455 H1458 0.950 . S
C1456 C1455 1.387 . S
C1456 C1459 1.387 . S
H1457 C1453 0.950 . S
H1458 C1455 0.950 . S
C1459 C1450 1.390 . S
C1459 H1452 0.950 . S
C1459 C1456 1.387 . S
C1460 C1461 1.387 . S
C1460 H1464 0.950 . S
C1460 C1469 1.390 . S
C1461 C1460 1.387 . S
C1461 C1463 1.387 . S
H1462 C1469 0.950 . S
C1463 C1461 1.387 . S
C1463 C1465 1.390 . S
C1463 H1467 0.950 . S
H1464 C1460 0.950 . S
C1465 C1463 1.390 . S
C1465 C1466 1.387 . S
C1465 H1468 0.950 . S
C1466 C1465 1.387 . S
C1466 C1469 1.387 . S
H1467 C1463 0.950 . S
H1468 C1465 0.950 . S
C1469 C1460 1.390 . S
C1469 H1462 0.950 . S
C1469 C1466 1.387 . S
C1470 C1471 1.387 . S
C1470 H1474 0.950 . S
C1470 C1479 1.390 . S
C1471 C1470 1.387 . S
C1471 C1473 1.387 . S
H1472 C1479 0.950 . S
C1473 C1471 1.387 . S
C1473 C1475 1.390 . S
C1473 H1477 0.950 . S
H1474 C1470 0.950 . S
C1475 C1473 1.390 . S
C1475 C1476 1.387 . S
C1475 H1478 0.950 . S
C1476 C1475 1.387 . S
C1476 C1479 1.387 . S
H1477 C1473 0.950 . S
H1478 C1475 0.950 . S
C1479 C1470 1.390 . S
C1479 H1472 0.950 . S
C1479 C1476 1.387 . S
C1480 C1481 1.387 . S
C1480 H1484 0.950 . S
C1480 C1489 1.390 1_655 S
C1481 C1480 1.387 . S
C1481 C1483 1.387 . S
H1482 C1489 0.950 . S
C1483 C1481 1.387 . S
C1483 C1485 1.390 1_655 S
C1483 H1487 0.950 . S
H1484 C1480 0.950 . S
C1485 C1483 1.390 1_455 S
C1485 C1486 1.387 . S
C1485 H1488 0.950 . S
C1486 C1485 1.387 . S
C1486 C1489 1.387 . S
H1487 C1483 0.950 . S
H1488 C1485 0.950 . S
C1489 C1480 1.390 1_455 S
C1489 H1482 0.950 . S
C1489 C1486 1.387 . S
C1490 C1491 1.387 . S
C1490 H1494 0.950 . S
C1490 C1499 1.390 . S
C1491 C1490 1.387 . S
C1491 C1493 1.387 . S
H1492 C1499 0.950 . S
C1493 C1491 1.387 . S
C1493 C1495 1.390 . S
C1493 H1497 0.950 . S
H1494 C1490 0.950 . S
C1495 C1493 1.390 . S
C1495 C1496 1.387 . S
C1495 H1498 0.950 . S
C1496 C1495 1.387 . S
C1496 C1499 1.387 . S
H1497 C1493 0.950 . S
H1498 C1495 0.950 . S
C1499 C1490 1.390 . S
C1499 H1492 0.950 . S
C1499 C1496 1.387 . S
C1500 C1501 1.387 . S
C1500 H1504 0.950 . S
C1500 C1509 1.390 . S
C1501 C1500 1.387 . S
C1501 C1503 1.387 . S
H1502 C1509 0.950 . S
C1503 C1501 1.387 . S
C1503 C1505 1.390 . S
C1503 H1507 0.950 . S
H1504 C1500 0.950 . S
C1505 C1503 1.390 . S
C1505 C1506 1.387 . S
C1505 H1508 0.950 . S
C1506 C1505 1.387 . S
C1506 C1509 1.387 . S
H1507 C1503 0.950 . S
H1508 C1505 0.950 . S
C1509 C1500 1.390 . S
C1509 H1502 0.950 . S
C1509 C1506 1.387 . S
C1510 C1511 1.387 . S
C1510 H1514 0.950 . S
C1510 C1519 1.390 . S
C1511 C1510 1.387 . S
C1511 C1513 1.387 . S
H1512 C1519 0.950 . S
C1513 C1511 1.387 . S
C1513 C1515 1.390 . S
C1513 H1517 0.950 . S
H1514 C1510 0.950 . S
C1515 C1513 1.390 . S
C1515 C1516 1.387 . S
C1515 H1518 0.950 . S
C1516 C1515 1.387 . S
C1516 C1519 1.387 . S
H1517 C1513 0.950 . S
H1518 C1515 0.950 . S
C1519 C1510 1.390 . S
C1519 H1512 0.950 . S
C1519 C1516 1.387 . S
C1520 C1521 1.387 . S
C1520 H1524 0.950 . S
C1520 C1529 1.390 . S
C1521 C1520 1.387 . S
C1521 C1523 1.387 . S
H1522 C1529 0.950 . S
C1523 C1521 1.387 . S
C1523 C1525 1.390 . S
C1523 H1527 0.950 . S
H1524 C1520 0.950 . S
C1525 C1523 1.390 . S
C1525 C1526 1.387 . S
C1525 H1528 0.950 . S
C1526 C1525 1.387 . S
C1526 C1529 1.387 . S
H1527 C1523 0.950 . S
H1528 C1525 0.950 . S
C1529 C1520 1.390 . S
C1529 H1522 0.950 . S
C1529 C1526 1.387 . S
C1530 C1531 1.387 . S
C1530 H1534 0.950 . S
C1530 C1539 1.390 . S
C1531 C1530 1.387 . S
C1531 C1533 1.387 . S
H1532 C1539 0.950 . S
C1533 C1531 1.387 . S
C1533 C1535 1.390 . S
C1533 H1537 0.950 . S
H1534 C1530 0.950 . S
C1535 C1533 1.390 . S
C1535 C1536 1.387 . S
C1535 H1538 0.950 . S
C1536 C1535 1.387 . S
C1536 C1539 1.387 . S
H1537 C1533 0.950 . S
H1538 C1535 0.950 . S
C1539 C1530 1.390 . S
C1539 H1532 0.950 . S
C1539 C1536 1.387 . S
C1540 C1541 1.387 . S
C1540 H1544 0.950 . S
C1540 C1549 1.390 . S
C1541 C1540 1.387 . S
C1541 C1543 1.387 . S
H1542 C1549 0.950 . S
C1543 C1541 1.387 . S
C1543 C1545 1.390 . S
C1543 H1547 0.950 . S
H1544 C1540 0.950 . S
C1545 C1543 1.390 . S
C1545 C1546 1.387 . S
C1545 H1548 0.950 . S
C1546 C1545 1.387 . S
C1546 C1549 1.387 . S
H1547 C1543 0.950 . S
H1548 C1545 0.950 . S
C1549 C1540 1.390 . S
C1549 H1542 0.950 . S
C1549 C1546 1.387 . S
C1550 C1551 1.387 . S
C1550 H1554 0.950 . S
C1550 C1559 1.390 . S
C1551 C1550 1.387 . S
C1551 C1553 1.387 . S
H1552 C1559 0.950 . S
C1553 C1551 1.387 . S
C1553 C1555 1.390 . S
C1553 H1557 0.950 . S
H1554 C1550 0.950 . S
C1555 C1553 1.390 . S
C1555 C1556 1.387 . S
C1555 H1558 0.950 . S
C1556 C1555 1.387 . S
C1556 C1559 1.387 . S
H1557 C1553 0.950 . S
H1558 C1555 0.950 . S
C1559 C1550 1.390 . S
C1559 H1552 0.950 . S
C1559 C1556 1.387 . S
C1560 C1561 1.387 . S
C1560 H1564 0.950 . S
C1560 C1569 1.390 . S
C1561 C1560 1.387 . S
C1561 C1563 1.387 . S
H1562 C1569 0.950 . S
C1563 C1561 1.387 . S
C1563 C1565 1.390 . S
C1563 H1567 0.950 . S
H1564 C1560 0.950 . S
C1565 C1563 1.390 . S
C1565 C1566 1.387 . S
C1565 H1568 0.950 . S
C1566 C1565 1.387 . S
C1566 C1569 1.387 . S
H1567 C1563 0.950 . S
H1568 C1565 0.950 . S
C1569 C1560 1.390 . S
C1569 H1562 0.950 . S
C1569 C1566 1.387 . S
C1570 C1571 1.387 . S
C1570 H1574 0.950 . S
C1570 C1579 1.390 1_455 S
C1571 C1570 1.387 . S
C1571 C1573 1.387 . S
H1572 C1579 0.950 . S
C1573 C1571 1.387 . S
C1573 C1575 1.390 1_455 S
C1573 H1577 0.950 1_545 S
H1574 C1570 0.950 . S
C1575 C1573 1.390 1_655 S
C1575 C1576 1.387 . S
C1575 H1578 0.950 1_545 S
C1576 C1575 1.387 . S
C1576 C1579 1.387 . S
H1577 C1573 0.950 1_565 S
H1578 C1575 0.950 1_565 S
C1579 C1570 1.390 1_655 S
C1579 H1572 0.950 . S
C1579 C1576 1.387 . S
C1580 C1581 1.387 . S
C1580 H1584 0.950 . S
C1580 C1589 1.390 . S
C1581 C1580 1.387 . S
C1581 C1583 1.387 . S
H1582 C1589 0.950 . S
C1583 C1581 1.387 . S
C1583 C1585 1.390 . S
C1583 H1587 0.950 1_545 S
H1584 C1580 0.950 . S
C1585 C1583 1.390 . S
C1585 C1586 1.387 . S
C1585 H1588 0.950 1_545 S
C1586 C1585 1.387 . S
C1586 C1589 1.387 . S
H1587 C1583 0.950 1_565 S
H1588 C1585 0.950 1_565 S
C1589 C1580 1.390 . S
C1589 H1582 0.950 . S
C1589 C1586 1.387 . S
C1590 C1591 1.387 . S
C1590 H1594 0.950 1_565 S
C1590 C1599 1.390 1_455 S
C1591 C1590 1.387 . S
C1591 C1593 1.387 . S
H1592 C1599 0.950 1_545 S
C1593 C1591 1.387 . S
C1593 C1595 1.390 1_455 S
C1593 H1597 0.950 . S
H1594 C1590 0.950 1_545 S
C1595 C1593 1.390 1_655 S
C1595 C1596 1.387 . S
C1595 H1598 0.950 . S
C1596 C1595 1.387 . S
C1596 C1599 1.387 . S
H1597 C1593 0.950 . S
H1598 C1595 0.950 . S
C1599 C1590 1.390 1_655 S
C1599 H1592 0.950 1_565 S
C1599 C1596 1.387 . S
C1600 C1601 1.387 . S
C1600 H1604 0.950 . S
C1600 C1609 1.390 . S
C1601 C1600 1.387 . S
C1601 C1603 1.387 . S
H1602 C1609 0.950 . S
C1603 C1601 1.387 . S
C1603 C1605 1.390 . S
C1603 H1607 0.950 . S
H1604 C1600 0.950 . S
C1605 C1603 1.390 . S
C1605 C1606 1.387 . S
C1605 H1608 0.950 . S
C1606 C1605 1.387 . S
C1606 C1609 1.387 . S
H1607 C1603 0.950 . S
H1608 C1605 0.950 . S
C1609 C1600 1.390 . S
C1609 H1602 0.950 . S
C1609 C1606 1.387 . S
C1610 C1611 1.387 . S
C1610 H1614 0.950 . S
C1610 C1619 1.390 . S
C1611 C1610 1.387 . S
C1611 C1613 1.387 . S
H1612 C1619 0.950 . S
C1613 C1611 1.387 . S
C1613 C1615 1.390 . S
C1613 H1617 0.950 . S
H1614 C1610 0.950 . S
C1615 C1613 1.390 . S
C1615 C1616 1.387 . S
C1615 H1618 0.950 . S
C1616 C1615 1.387 . S
C1616 C1619 1.387 . S
H1617 C1613 0.950 . S
H1618 C1615 0.950 . S
C1619 C1610 1.390 . S
C1619 H1612 0.950 . S
C1619 C1616 1.387 . S
C1620 C1621 1.387 . S
C1620 H1624 0.950 . S
C1620 C1629 1.390 . S
C1621 C1620 1.387 . S
C1621 C1623 1.387 . S
H1622 C1629 0.950 . S
C1623 C1621 1.387 . S
C1623 C1625 1.390 . S
C1623 H1627 0.950 . S
H1624 C1620 0.950 . S
C1625 C1623 1.390 . S
C1625 C1626 1.387 . S
C1625 H1628 0.950 . S
C1626 C1625 1.387 . S
C1626 C1629 1.387 . S
H1627 C1623 0.950 . S
H1628 C1625 0.950 . S
C1629 C1620 1.390 . S
C1629 H1622 0.950 . S
C1629 C1626 1.387 . S
C1630 C1631 1.387 . S
C1630 H1634 0.950 . S
C1630 C1639 1.390 . S
C1631 C1630 1.387 . S
C1631 C1633 1.387 . S
H1632 C1639 0.950 . S
C1633 C1631 1.387 . S
C1633 C1635 1.390 . S
C1633 H1637 0.950 . S
H1634 C1630 0.950 . S
C1635 C1633 1.390 . S
C1635 C1636 1.387 . S
C1635 H1638 0.950 . S
C1636 C1635 1.387 . S
C1636 C1639 1.387 . S
H1637 C1633 0.950 . S
H1638 C1635 0.950 . S
C1639 C1630 1.390 . S
C1639 H1632 0.950 . S
C1639 C1636 1.387 . S
C1640 C1641 1.387 . S
C1640 H1644 0.950 . S
C1640 C1649 1.390 . S
C1641 C1640 1.387 . S
C1641 C1643 1.387 . S
H1642 C1649 0.950 . S
C1643 C1641 1.387 . S
C1643 C1645 1.390 . S
C1643 H1647 0.950 . S
H1644 C1640 0.950 . S
C1645 C1643 1.390 . S
C1645 C1646 1.387 . S
C1645 H1648 0.950 . S
C1646 C1645 1.387 . S
C1646 C1649 1.387 . S
H1647 C1643 0.950 . S
H1648 C1645 0.950 . S
C1649 C1640 1.390 . S
C1649 H1642 0.950 . S
C1649 C1646 1.387 . S
C1650 C1651 1.387 . S
C1650 H1654 0.950 . S
C1650 C1659 1.390 . S
C1651 C1650 1.387 . S
C1651 C1653 1.387 . S
H1652 C1659 0.950 . S
C1653 C1651 1.387 . S
C1653 C1655 1.390 . S
C1653 H1657 0.950 . S
H1654 C1650 0.950 . S
C1655 C1653 1.390 . S
C1655 C1656 1.387 . S
C1655 H1658 0.950 . S
C1656 C1655 1.387 . S
C1656 C1659 1.387 . S
H1657 C1653 0.950 . S
H1658 C1655 0.950 . S
C1659 C1650 1.390 . S
C1659 H1652 0.950 . S
C1659 C1656 1.387 . S
C1660 C1661 1.387 . S
C1660 H1664 0.950 . S
C1660 C1669 1.390 . S
C1661 C1660 1.387 . S
C1661 C1663 1.387 . S
H1662 C1669 0.950 . S
C1663 C1661 1.387 . S
C1663 C1665 1.390 . S
C1663 H1667 0.950 . S
H1664 C1660 0.950 . S
C1665 C1663 1.390 . S
C1665 C1666 1.387 . S
C1665 H1668 0.950 . S
C1666 C1665 1.387 . S
C1666 C1669 1.387 . S
H1667 C1663 0.950 . S
H1668 C1665 0.950 . S
C1669 C1660 1.390 . S
C1669 H1662 0.950 . S
C1669 C1666 1.387 . S
C1670 C1671 1.387 . S
C1670 H1674 0.950 . S
C1670 C1679 1.390 . S
C1671 C1670 1.387 . S
C1671 C1673 1.387 . S
H1672 C1679 0.950 . S
C1673 C1671 1.387 . S
C1673 C1675 1.390 . S
C1673 H1677 0.950 . S
H1674 C1670 0.950 . S
C1675 C1673 1.390 . S
C1675 C1676 1.387 . S
C1675 H1678 0.950 . S
C1676 C1675 1.387 . S
C1676 C1679 1.387 . S
H1677 C1673 0.950 . S
H1678 C1675 0.950 . S
C1679 C1670 1.390 . S
C1679 H1672 0.950 . S
C1679 C1676 1.387 . S
C1680 C1681 1.387 . S
C1680 H1684 0.950 . S
C1680 C1689 1.390 . S
C1681 C1680 1.387 . S
C1681 C1683 1.387 . S
H1682 C1689 0.950 . S
C1683 C1681 1.387 . S
C1683 C1685 1.390 . S
C1683 H1687 0.950 . S
H1684 C1680 0.950 . S
C1685 C1683 1.390 . S
C1685 C1686 1.387 . S
C1685 H1688 0.950 . S
C1686 C1685 1.387 . S
C1686 C1689 1.387 . S
H1687 C1683 0.950 . S
H1688 C1685 0.950 . S
C1689 C1680 1.390 . S
C1689 H1682 0.950 . S
C1689 C1686 1.387 . S
C1690 C1691 1.387 . S
C1690 H1694 0.950 . S
C1690 C1699 1.390 . S
C1691 C1690 1.387 . S
C1691 C1693 1.387 . S
H1692 C1699 0.950 . S
C1693 C1691 1.387 . S
C1693 C1695 1.390 . S
C1693 H1697 0.950 . S
H1694 C1690 0.950 . S
C1695 C1693 1.390 . S
C1695 C1696 1.387 . S
C1695 H1698 0.950 . S
C1696 C1695 1.387 . S
C1696 C1699 1.387 . S
H1697 C1693 0.950 . S
H1698 C1695 0.950 . S
C1699 C1690 1.390 . S
C1699 H1692 0.950 . S
C1699 C1696 1.387 . S
C1700 C1701 1.387 . S
C1700 H1704 0.950 . S
C1700 C1709 1.390 . S
C1701 C1700 1.387 . S
C1701 C1703 1.387 . S
H1702 C1709 0.950 . S
C1703 C1701 1.387 . S
C1703 C1705 1.390 . S
C1703 H1707 0.950 . S
H1704 C1700 0.950 . S
C1705 C1703 1.390 . S
C1705 C1706 1.387 . S
C1705 H1708 0.950 . S
C1706 C1705 1.387 . S
C1706 C1709 1.387 . S
H1707 C1703 0.950 . S
H1708 C1705 0.950 . S
C1709 C1700 1.390 . S
C1709 H1702 0.950 . S
C1709 C1706 1.387 . S
C1710 C1711 1.387 . S
C1710 H1714 0.950 . S
C1710 C1719 1.390 . S
C1711 C1710 1.387 . S
C1711 C1713 1.387 . S
H1712 C1719 0.950 . S
C1713 C1711 1.387 . S
C1713 C1715 1.390 . S
C1713 H1717 0.950 . S
H1714 C1710 0.950 . S
C1715 C1713 1.390 . S
C1715 C1716 1.387 . S
C1715 H1718 0.950 . S
C1716 C1715 1.387 . S
C1716 C1719 1.387 . S
H1717 C1713 0.950 . S
H1718 C1715 0.950 . S
C1719 C1710 1.390 . S
C1719 H1712 0.950 . S
C1719 C1716 1.387 . S
C1720 C1721 1.387 . S
C1720 H1724 0.950 . S
C1720 C1729 1.390 . S
C1721 C1720 1.387 . S
C1721 C1723 1.387 . S
H1722 C1729 0.950 . S
C1723 C1721 1.387 . S
C1723 C1725 1.390 . S
C1723 H1727 0.950 . S
H1724 C1720 0.950 . S
C1725 C1723 1.390 . S
C1725 C1726 1.387 . S
C1725 H1728 0.950 . S
C1726 C1725 1.387 . S
C1726 C1729 1.387 . S
H1727 C1723 0.950 . S
H1728 C1725 0.950 . S
C1729 C1720 1.390 . S
C1729 H1722 0.950 . S
C1729 C1726 1.387 . S
C1730 C1731 1.387 . S
C1730 H1734 0.950 . S
C1730 C1739 1.390 . S
C1731 C1730 1.387 . S
C1731 C1733 1.387 . S
H1732 C1739 0.950 . S
C1733 C1731 1.387 . S
C1733 C1735 1.390 . S
C1733 H1737 0.950 . S
H1734 C1730 0.950 . S
C1735 C1733 1.390 . S
C1735 C1736 1.387 . S
C1735 H1738 0.950 . S
C1736 C1735 1.387 . S
C1736 C1739 1.387 . S
H1737 C1733 0.950 . S
H1738 C1735 0.950 . S
C1739 C1730 1.390 . S
C1739 H1732 0.950 . S
C1739 C1736 1.387 . S
C1740 C1741 1.387 . S
C1740 H1744 0.950 . S
C1740 C1749 1.390 . S
C1741 C1740 1.387 . S
C1741 C1743 1.387 . S
H1742 C1749 0.950 . S
C1743 C1741 1.387 . S
C1743 C1745 1.390 . S
C1743 H1747 0.950 . S
H1744 C1740 0.950 . S
C1745 C1743 1.390 . S
C1745 C1746 1.387 . S
C1745 H1748 0.950 . S
C1746 C1745 1.387 . S
C1746 C1749 1.387 . S
H1747 C1743 0.950 . S
H1748 C1745 0.950 . S
C1749 C1740 1.390 . S
C1749 H1742 0.950 . S
C1749 C1746 1.387 . S
C1750 C1751 1.387 . S
C1750 H1754 0.950 . S
C1750 C1759 1.390 . S
C1751 C1750 1.387 . S
C1751 C1753 1.387 . S
H1752 C1759 0.950 . S
C1753 C1751 1.387 . S
C1753 C1755 1.390 . S
C1753 H1757 0.950 . S
H1754 C1750 0.950 . S
C1755 C1753 1.390 . S
C1755 C1756 1.387 . S
C1755 H1758 0.950 . S
C1756 C1755 1.387 . S
C1756 C1759 1.387 . S
H1757 C1753 0.950 . S
H1758 C1755 0.950 . S
C1759 C1750 1.390 . S
C1759 H1752 0.950 . S
C1759 C1756 1.387 . S
C1281 C162 2.301 . S
C1286 C2 2.301 . S
C1291 C202 2.354 . S
C1296 C42 2.354 . S
C1301 C82 2.300 . S
C1306 C242 2.300 . S
C1311 C122 2.352 . S
C1316 C282 2.352 . S
C1321 C482 2.116 . S
C1326 C322 2.116 . S
C1331 C522 2.173 . S
C1336 C362 2.173 . S
C1341 C402 2.113 . S
C1346 C562 2.113 . S
C1351 C602 2.172 . S
C1356 C442 2.172 . S
C1361 C642 2.090 . S
C1366 C802 2.086 . S
C1371 C842 2.297 . S
C1376 C682 2.297 . S
C1381 C722 2.089 . S
C1386 C882 2.084 . S
C1391 C922 2.299 . S
C1396 C762 2.299 . S
C1401 C962 1.939 . S
C1406 C1122 1.937 . S
C1411 C1162 2.117 . S
C1416 C1002 2.117 . S
C1421 C1042 1.939 . S
C1426 C1202 1.936 . S
C1431 C1242 2.113 . S
C1436 C1082 2.113 . S
C1441 C501 1.865 . S
C1446 C21 1.930 . S
C1451 C61 1.922 . S
C1456 C1181 1.859 . S
C1461 C581 1.862 . S
C1466 C101 1.931 . S
C1471 C141 1.921 . S
C1476 C1261 1.860 . S
C1481 C341 1.865 . S
C1486 C181 1.931 . S
C1491 C1021 1.861 . S
C1496 C221 1.922 . S
C1501 C261 1.931 . S
C1506 C421 1.864 . S
C1511 C1101 1.859 . S
C1516 C301 1.922 . S
C1521 C381 1.854 . S
C1526 C861 1.926 . S
C1531 C461 1.854 . S
C1536 C941 1.926 . S
C1541 C541 1.856 . S
C1546 C701 1.926 . S
C1551 C781 1.926 . S
C1556 C621 1.854 . S
C1561 C1141 1.746 . S
C1566 C661 1.799 . S
C1571 C1221 1.748 . S
C1576 C741 1.799 . S
C1581 C821 1.799 . S
C1586 C981 1.747 . S
C1591 C1061 1.746 . S
C1596 C901 1.800 . S
C1601 C935 1.881 . S
C1606 C15 1.881 . S
C1611 C55 1.779 . S
C1616 C815 1.797 . S
C1621 C95 1.879 . S
C1626 C855 1.879 . S
C1631 C895 1.801 . S
C1636 C135 1.774 . S
C1641 C175 1.879 . S
C1646 C695 1.881 . S
C1651 C215 1.781 . S
C1656 C735 1.799 . S
C1661 C775 1.880 . S
C1666 C255 1.879 . S
C1671 C655 1.802 . S
C1676 C295 1.775 . S
C1681 C1255 1.872 . S
C1686 C335 1.872 . S
C1691 C375 1.769 . S
C1696 C1135 1.791 . S
C1701 C1175 1.872 . S
C1706 C415 1.872 . S
C1711 C1215 1.794 . S
C1716 C455 1.765 . S
C1721 C495 1.869 . S
C1726 C1015 1.871 . S
C1731 C1055 1.797 . S
C1736 C535 1.766 . S
C1741 C1095 1.871 . S
C1746 C575 1.871 . S
C1751 C615 1.769 . S
C1756 C975 1.791 . S
