# Generated by pormake.
# Topology umx, (4)-cn, num edge types: 1
# Building blocks:
#     Node 0, Type 0, BuildingBlock: MUDLON_clean_sbu_0, # of connection points: 4
#     Node 1, Type 0, BuildingBlock: MUDLON_clean_sbu_0, # of connection points: 4
#     Node 2, Type 0, BuildingBlock: MUDLON_clean_sbu_0, # of connection points: 4
#     Node 3, Type 0, BuildingBlock: MUDLON_clean_sbu_0, # of connection points: 4
#     Node 4, Type 0, BuildingBlock: MUDLON_clean_sbu_0, # of connection points: 4
#     Node 5, Type 0, BuildingBlock: MUDLON_clean_sbu_0, # of connection points: 4
#     Node 6, Type 0, BuildingBlock: MUDLON_clean_sbu_0, # of connection points: 4
#     Node 7, Type 0, BuildingBlock: MUDLON_clean_sbu_0, # of connection points: 4
#     Edge 8, Type (0, 0), BuildingBlock: FUNLAD_clean_linker_1, # of connection points: 2
#     Edge 9, Type (0, 0), BuildingBlock: FUNLAD_clean_linker_1, # of connection points: 2
#     Edge 10, Type (0, 0), BuildingBlock: FUNLAD_clean_linker_1, # of connection points: 2
#     Edge 11, Type (0, 0), BuildingBlock: FUNLAD_clean_linker_1, # of connection points: 2
#     Edge 12, Type (0, 0), BuildingBlock: FUNLAD_clean_linker_1, # of connection points: 2
#     Edge 13, Type (0, 0), BuildingBlock: FUNLAD_clean_linker_1, # of connection points: 2
#     Edge 14, Type (0, 0), BuildingBlock: FUNLAD_clean_linker_1, # of connection points: 2
#     Edge 15, Type (0, 0), BuildingBlock: FUNLAD_clean_linker_1, # of connection points: 2
#     Edge 16, Type (0, 0), BuildingBlock: FUNLAD_clean_linker_1, # of connection points: 2
#     Edge 17, Type (0, 0), BuildingBlock: FUNLAD_clean_linker_1, # of connection points: 2
#     Edge 18, Type (0, 0), BuildingBlock: FUNLAD_clean_linker_1, # of connection points: 2
#     Edge 19, Type (0, 0), BuildingBlock: FUNLAD_clean_linker_1, # of connection points: 2
#     Edge 20, Type (0, 0), BuildingBlock: FUNLAD_clean_linker_1, # of connection points: 2
#     Edge 21, Type (0, 0), BuildingBlock: FUNLAD_clean_linker_1, # of connection points: 2
#     Edge 22, Type (0, 0), BuildingBlock: FUNLAD_clean_linker_1, # of connection points: 2
#     Edge 23, Type (0, 0), BuildingBlock: FUNLAD_clean_linker_1, # of connection points: 2
# Relax obj value: 0.023
# Max RMSD: 0.223
# Mean RMSD: 0.222
data_MOF--net-umx--node1-MUDLON_clean_sbu_0--edge1-FUNLAD_clean_linker_1
_symmetry_space_group_name_H-M    P1
_symmetry_Int_Tables_number       1
_symmetry_cell_setting            triclinic
loop_
_symmetry_equiv_pos_as_xyz
'x, y, z'
_cell_length_a     42.048685
_cell_length_b     42.202368
_cell_length_c     31.177469
_cell_angle_alpha  90.322398
_cell_angle_beta   90.858559
_cell_angle_gamma 89.996975
loop_
_atom_site_label
_atom_site_type_symbol
_atom_site_fract_x
_atom_site_fract_y
_atom_site_fract_z
_atom_type_partial_charge
Mg0 Mg 0.19047 0.45932 1.0223 0.0
C1 C 0.12413 0.44778 0.05846 0.0
O2 O 0.13991 0.4332 0.08915 0.0
C3 C 0.19725 0.38639 1.01584 0.0
O4 O 0.16759 0.38666 1.00215 0.0
C5 C 0.19148 0.50575 0.09711 0.0
O6 O 0.16592 0.51616 0.07701 0.0
O7 O 0.20811 0.48416 0.07969 0.0
O8 O 0.13905 0.45935 0.02706 0.0
O9 O 0.20096 0.4777 0.95821 0.0
C10 C 0.18199 0.46694 0.92933 0.0
O11 O 0.15907 0.44778 0.94069 0.0
O12 O 0.21098 0.41226 0.02598 0.0
Mg13 Mg 0.55437 0.18798 0.5308 0.0
C14 C 0.5382 0.20495 0.44134 0.0
O15 O 0.56627 0.19153 0.43817 0.0
C16 C 0.52035 0.19298 0.617 0.0
O17 O 0.49994 0.17368 0.59813 0.0
C18 C 0.61193 0.22821 0.53202 0.0
O19 O 0.59116 0.24599 0.55205 0.0
O20 O 0.60358 0.20076 0.51924 0.0
O21 O 0.52624 0.20834 0.47835 0.0
O22 O 0.5464 0.13711 0.52809 0.0
C23 C 0.51949 0.12767 0.51383 0.0
O24 O 0.49849 0.14859 0.50064 0.0
O25 O 0.54361 0.20366 0.59589 0.0
Mg26 Mg 0.82271 0.54834 0.03864 0.0
C27 C 0.88731 0.52187 0.04322 0.0
O28 O 0.86908 0.49667 0.04562 0.0
C29 C 0.79263 0.61144 0.06503 0.0
O30 O 0.79908 0.60139 0.104 0.0
C31 C 0.82382 0.53164 0.13134 0.0
O32 O 0.84935 0.5494 0.12838 0.0
O33 O 0.80699 0.52635 0.09783 0.0
O34 O 0.87436 0.54899 0.04013 0.0
O35 O 0.80968 0.52191 0.98079 0.0
C36 C 0.80749 0.53765 0.9462 0.0
O37 O 0.81167 0.5685 0.94762 0.0
O38 O 0.80097 0.59493 0.03294 0.0
Mg39 Mg 0.45921 0.82391 0.53541 0.0
C40 C 0.50171 0.7965 0.4621 0.0
O41 O 0.52324 0.79147 0.49221 0.0
C42 C 0.49057 0.82125 0.62365 0.0
O43 O 0.49246 0.85182 0.61649 0.0
C44 C 0.40216 0.78393 0.52803 0.0
O45 O 0.42479 0.76562 0.51309 0.0
O46 O 0.40908 0.81208 0.53942 0.0
O47 O 0.47474 0.80775 0.47212 0.0
O48 O 0.4676 0.87474 0.53597 0.0
C49 C 0.49543 0.88354 0.52584 0.0
O50 O 0.51679 0.86204 0.51641 0.0
O51 O 0.48002 0.8031 0.5939 0.0
Mg52 Mg 0.20207 0.54947 0.52003 0.0
C53 C 0.2068 0.53623 0.42784 0.0
O54 O 0.18835 0.5613 0.43033 0.0
C55 C 0.20713 0.51246 0.60541 0.0
O56 O 0.18248 0.49685 0.58979 0.0
C57 C 0.22475 0.61629 0.54252 0.0
O58 O 0.21645 0.60811 0.58139 0.0
O59 O 0.22 0.5972 0.51146 0.0
O60 O 0.21746 0.52408 0.46251 0.0
O61 O 0.15033 0.54787 0.51807 0.0
C62 C 0.13267 0.54898 0.55075 0.0
O63 O 0.14535 0.55358 0.58904 0.0
O64 O 0.22058 0.53321 0.58242 0.0
Mg65 Mg 0.4411 0.19341 0.03097 0.0
C66 C 0.45673 0.20787 0.12241 0.0
O67 O 0.42616 0.20156 0.12366 0.0
C68 C 0.47819 0.19238 0.94626 0.0
O69 O 0.49303 0.1682 0.96378 0.0
C70 C 0.39534 0.24523 0.04714 0.0
O71 O 0.42281 0.25928 0.05403 0.0
O72 O 0.39488 0.21594 0.03737 0.0
O73 O 0.47057 0.20728 0.08636 0.0
O74 O 0.43805 0.14201 0.03213 0.0
C75 C 0.46315 0.12713 0.04306 0.0
O76 O 0.48885 0.14328 0.05358 0.0
O77 O 0.45761 0.20751 0.96771 0.0
Mg78 Mg 0.83266 0.44719 0.53829 0.0
C79 C 0.89738 0.47327 0.54312 0.0
O80 O 0.88018 0.49733 0.5296 0.0
C81 C 0.80051 0.38461 0.51383 0.0
O82 O 0.80655 0.39402 0.47469 0.0
C83 C 0.84385 0.45681 0.44541 0.0
O84 O 0.86815 0.43908 0.45683 0.0
O85 O 0.82374 0.4649 0.47355 0.0
O86 O 0.88377 0.44687 0.54963 0.0
O87 O 0.81459 0.47716 0.58935 0.0
C88 C 0.81582 0.46448 0.62624 0.0
O89 O 0.8262 0.43521 0.62963 0.0
O90 O 0.80996 0.40126 0.54561 0.0
Mg91 Mg 0.56056 0.8251 0.04335 0.0
C92 C 0.5437 0.81382 0.1327 0.0
O93 O 0.57159 0.82788 0.13445 0.0
C94 C 0.52384 0.81084 0.95632 0.0
O95 O 0.4974 0.817 0.9767 0.0
C96 C 0.61398 0.77949 0.04538 0.0
O97 O 0.59162 0.76344 0.02489 0.0
O98 O 0.60822 0.80771 0.05733 0.0
O99 O 0.53114 0.80818 0.09597 0.0
O100 O 0.55866 0.87647 0.04567 0.0
C101 C 0.53129 0.88924 0.04572 0.0
O102 O 0.50591 0.87106 0.04496 0.0
O103 O 0.5503 0.81138 0.97659 0.0
H104 H 0.1839 0.53605 0.15388 0.0
C105 C 0.19772 0.51622 0.14185 0.0
H106 H 0.22896 0.47893 0.15846 0.0
H107 H 0.23827 0.58065 0.32457 0.0
H108 H 0.2653 0.61566 0.27555 0.0
H109 H 0.271 0.60118 0.19928 0.0
H110 H 0.24959 0.55162 0.1715 0.0
C111 C 0.21653 0.49999 0.16934 0.0
C112 C 0.21661 0.5073 0.21637 0.0
C113 C 0.22962 0.5361 0.23232 0.0
C114 C 0.22652 0.54432 0.27644 0.0
C115 C 0.23964 0.57336 0.29131 0.0
C116 C 0.25536 0.59361 0.26357 0.0
C117 C 0.25856 0.58546 0.22063 0.0
C118 C 0.24599 0.55704 0.20503 0.0
H119 H 0.23079 0.50251 0.38374 0.0
C120 C 0.2149 0.52277 0.38529 0.0
H121 H 0.18764 0.55612 0.35049 0.0
H122 H 0.19177 0.44885 0.19737 0.0
H123 H 0.16554 0.41342 0.24645 0.0
H124 H 0.15893 0.42818 0.32243 0.0
H125 H 0.17872 0.47827 0.3499 0.0
C126 C 0.20275 0.53527 0.34882 0.0
C127 C 0.21058 0.52369 0.30481 0.0
C128 C 0.1989 0.49414 0.28928 0.0
C129 C 0.20225 0.48582 0.24516 0.0
C130 C 0.18995 0.45639 0.23046 0.0
C131 C 0.17475 0.43582 0.25828 0.0
C132 C 0.17106 0.44412 0.30106 0.0
C133 C 0.18274 0.47296 0.31649 0.0
H134 H 0.54017 0.20933 0.67927 0.0
C135 C 0.51944 0.19857 0.66386 0.0
H136 H 0.47476 0.17729 0.67273 0.0
H137 H 0.49393 0.12596 0.85848 0.0
H138 H 0.48747 0.0779 0.81669 0.0
H139 H 0.48633 0.07942 0.73765 0.0
H140 H 0.49123 0.12906 0.69996 0.0
C141 C 0.49517 0.18867 0.68805 0.0
C142 C 0.49731 0.18829 0.73602 0.0
C143 C 0.4953 0.15887 0.75771 0.0
C144 C 0.497 0.15787 0.80334 0.0
C145 C 0.49369 0.12819 0.82395 0.0
C146 C 0.48983 0.10032 0.80034 0.0
C147 C 0.48912 0.10118 0.75585 0.0
C148 C 0.49182 0.12997 0.73463 0.0
H149 H 0.46407 0.21494 0.88518 0.0
C150 C 0.48137 0.19912 0.9 0.0
H151 H 0.51989 0.16821 0.89008 0.0
H152 H 0.49761 0.24917 0.70575 0.0
H153 H 0.50783 0.29694 0.74719 0.0
H154 H 0.51733 0.29445 0.82536 0.0
H155 H 0.5157 0.24427 0.8627 0.0
C156 C 0.50303 0.18454 0.87541 0.0
C157 C 0.50164 0.1862 0.82745 0.0
C158 C 0.50463 0.21552 0.80572 0.0
C159 C 0.50131 0.21671 0.76016 0.0
C160 C 0.50174 0.24663 0.73986 0.0
C161 C 0.50732 0.27431 0.76333 0.0
C162 C 0.5125 0.27292 0.80737 0.0
C163 C 0.51123 0.24396 0.82847 0.0
H164 H 0.86061 0.46126 0.37938 0.0
C165 C 0.84087 0.46679 0.40029 0.0
H166 H 0.79548 0.48797 0.40432 0.0
H167 H 0.82054 0.5762 0.24355 0.0
H168 H 0.81353 0.61468 0.30072 0.0
H169 H 0.80713 0.59745 0.37557 0.0
H170 H 0.80742 0.54166 0.39368 0.0
C171 C 0.81523 0.48168 0.38388 0.0
C172 C 0.81462 0.49182 0.33803 0.0
C173 C 0.81423 0.52452 0.32799 0.0
C174 C 0.81849 0.53447 0.28492 0.0
C175 C 0.81798 0.56733 0.27581 0.0
C176 C 0.81386 0.58968 0.3083 0.0
C177 C 0.81021 0.57998 0.35043 0.0
C178 C 0.81042 0.54784 0.36037 0.0
H179 H 0.79216 0.50574 0.17532 0.0
C180 C 0.81441 0.51871 0.17326 0.0
H181 H 0.85454 0.53661 0.20678 0.0
H182 H 0.80871 0.4275 0.34464 0.0
H183 H 0.81611 0.3888 0.28776 0.0
H184 H 0.8284 0.40584 0.21428 0.0
H185 H 0.83257 0.46152 0.19699 0.0
C186 C 0.83277 0.52284 0.20858 0.0
C187 C 0.82345 0.51175 0.25196 0.0
C188 C 0.82223 0.47895 0.26165 0.0
C189 C 0.81688 0.46904 0.30453 0.0
C190 C 0.81417 0.43623 0.31302 0.0
C191 C 0.81813 0.41379 0.28063 0.0
C192 C 0.82492 0.42339 0.23923 0.0
C193 C 0.82705 0.45553 0.22968 0.0
H194 H 0.54709 0.80837 0.89344 0.0
C195 C 0.52411 0.80777 0.90895 0.0
H196 H 0.47442 0.80683 0.89979 0.0
H197 H 0.46908 0.87239 0.71981 0.0
H198 H 0.44103 0.90962 0.76478 0.0
H199 H 0.43943 0.90246 0.84314 0.0
H200 H 0.46546 0.85781 0.8769 0.0
C201 C 0.49747 0.8067 0.88451 0.0
C202 C 0.49848 0.81035 0.83671 0.0
C203 C 0.48354 0.83697 0.8174 0.0
C204 C 0.48537 0.84168 0.77229 0.0
C205 C 0.46937 0.86804 0.75397 0.0
C206 C 0.45298 0.88958 0.7794 0.0
C207 C 0.452 0.88551 0.82348 0.0
C208 C 0.46703 0.85961 0.84242 0.0
H209 H 0.48502 0.78596 0.67542 0.0
C210 C 0.49465 0.80915 0.66798 0.0
H211 H 0.51568 0.85098 0.69197 0.0
H212 H 0.52507 0.75405 0.86155 0.0
H213 H 0.55524 0.71792 0.81709 0.0
H214 H 0.5632 0.72901 0.7404 0.0
H215 H 0.54037 0.77582 0.70744 0.0
C216 C 0.50667 0.8276 0.69974 0.0
C217 C 0.5029 0.82029 0.74637 0.0
C218 C 0.51768 0.79353 0.7656 0.0
C219 C 0.51465 0.78808 0.81051 0.0
C220 C 0.52793 0.76014 0.82818 0.0
C221 C 0.5451 0.73907 0.80294 0.0
C222 C 0.54946 0.74525 0.75972 0.0
C223 C 0.53602 0.77213 0.74111 0.0
H224 H 0.80275 0.50811 0.66175 0.0
C225 C 0.80859 0.48315 0.66513 0.0
H226 H 0.81617 0.44523 0.70813 0.0
H227 H 0.85376 0.55979 0.84179 0.0
H228 H 0.89931 0.56784 0.79653 0.0
H229 H 0.90375 0.53971 0.72734 0.0
H230 H 0.8626 0.5035 0.70295 0.0
C231 C 0.81108 0.47032 0.70446 0.0
C232 C 0.80732 0.48931 0.74445 0.0
C233 C 0.83167 0.51049 0.75821 0.0
C234 C 0.82923 0.5265 0.79832 0.0
C235 C 0.85414 0.54717 0.81151 0.0
C236 C 0.88055 0.55195 0.78591 0.0
C237 C 0.88304 0.53612 0.74696 0.0
C238 C 0.85908 0.51549 0.73323 0.0
H239 H 0.80399 0.49541 0.904 0.0
C240 C 0.80345 0.52116 0.90453 0.0
H241 H 0.80142 0.56298 0.86777 0.0
H242 H 0.75638 0.45086 0.72714 0.0
H243 H 0.71024 0.44338 0.77186 0.0
H244 H 0.7054 0.47206 0.84062 0.0
H245 H 0.74676 0.50814 0.8653 0.0
C246 C 0.80113 0.53723 0.86743 0.0
C247 C 0.80268 0.52102 0.82489 0.0
C248 C 0.77799 0.50043 0.81063 0.0
C249 C 0.7805 0.48432 0.77058 0.0
C250 C 0.75569 0.46364 0.7573 0.0
C251 C 0.72903 0.45922 0.78257 0.0
C252 C 0.72632 0.47534 0.82131 0.0
C253 C 0.75036 0.49583 0.83525 0.0
H254 H 0.50314 0.79636 0.17114 0.0
C255 C 0.527 0.8062 0.17298 0.0
H256 H 0.56418 0.82302 0.21326 0.0
H257 H 0.48949 0.86112 0.37555 0.0
H258 H 0.49559 0.91252 0.34244 0.0
H259 H 0.51422 0.91705 0.26807 0.0
H260 H 0.52704 0.87015 0.22644 0.0
C261 C 0.54069 0.81232 0.21157 0.0
C262 C 0.52408 0.80866 0.25327 0.0
C263 C 0.51599 0.83621 0.27701 0.0
C264 C 0.50475 0.83355 0.31969 0.0
C265 C 0.49768 0.86163 0.34284 0.0
C266 C 0.50114 0.89135 0.32425 0.0
C267 C 0.51169 0.8939 0.28242 0.0
C268 C 0.51908 0.86678 0.25894 0.0
H269 H 0.53425 0.78486 0.40912 0.0
C270 C 0.51029 0.79268 0.41638 0.0
H271 H 0.46691 0.81016 0.39107 0.0
H272 H 0.53706 0.75103 0.21694 0.0
H273 H 0.52904 0.69947 0.24906 0.0
H274 H 0.50747 0.69479 0.3219 0.0
H275 H 0.49419 0.74169 0.36337 0.0
C276 C 0.49045 0.80108 0.38402 0.0
C277 C 0.50142 0.80329 0.33872 0.0
C278 C 0.50825 0.77565 0.31439 0.0
C279 C 0.51989 0.77834 0.2718 0.0
C280 C 0.52762 0.75037 0.24898 0.0
C281 C 0.52317 0.72062 0.26708 0.0
C282 C 0.51107 0.71798 0.30813 0.0
C283 C 0.50366 0.74509 0.33166 0.0
H284 H 0.1649 0.46731 0.86257 0.0
C285 C 0.1844 0.47507 0.88342 0.0
H286 H 0.22985 0.49648 0.88521 0.0
H287 H 0.24758 0.45771 0.68776 0.0
H288 H 0.28757 0.42504 0.72294 0.0
H289 H 0.29258 0.42403 0.80186 0.0
H290 H 0.25761 0.45567 0.84618 0.0
C291 C 0.20924 0.48988 0.86573 0.0
C292 C 0.2098 0.49462 0.81816 0.0
C293 C 0.23099 0.4767 0.79261 0.0
C294 C 0.2282 0.47739 0.74696 0.0
C295 C 0.24888 0.45833 0.72243 0.0
C296 C 0.27189 0.43942 0.74222 0.0
C297 C 0.2747 0.43884 0.78668 0.0
C298 C 0.25449 0.45711 0.81174 0.0
H299 H 0.23755 0.52227 0.66262 0.0
C300 C 0.2166 0.50948 0.65121 0.0
H301 H 0.17643 0.48291 0.66887 0.0
H302 H 0.16944 0.53623 0.85706 0.0
H303 H 0.13031 0.56992 0.82189 0.0
H304 H 0.12465 0.57025 0.74302 0.0
H305 H 0.15821 0.53711 0.69878 0.0
C306 C 0.19839 0.4942 0.67959 0.0
C307 C 0.20439 0.49622 0.72689 0.0
C308 C 0.18445 0.51554 0.75239 0.0
C309 C 0.18737 0.51499 0.79795 0.0
C310 C 0.16761 0.5351 0.82243 0.0
C311 C 0.14522 0.55471 0.80264 0.0
C312 C 0.14205 0.55493 0.75823 0.0
C313 C 0.16141 0.53569 0.73323 0.0
H314 H 0.4949 0.22012 0.40551 0.0
C315 C 0.51945 0.21253 0.40218 0.0
H316 H 0.55611 0.20095 0.35911 0.0
H317 H 0.43902 0.16313 0.2294 0.0
H318 H 0.43104 0.11921 0.27764 0.0
H319 H 0.46011 0.11641 0.34679 0.0
H320 H 0.49726 0.15757 0.36814 0.0
C321 C 0.53143 0.20795 0.3628 0.0
C322 C 0.5118 0.21103 0.32283 0.0
C323 C 0.48997 0.1868 0.3109 0.0
C324 C 0.47328 0.18838 0.27089 0.0
C325 C 0.45207 0.16348 0.25955 0.0
C326 C 0.44735 0.13798 0.28688 0.0
C327 C 0.46371 0.1364 0.3258 0.0
C328 C 0.4849 0.16033 0.33774 0.0
H329 H 0.50101 0.21237 0.16144 0.0
C330 C 0.4752 0.21257 0.16273 0.0
H331 H 0.43491 0.21478 0.20212 0.0
H332 H 0.55182 0.26122 0.33602 0.0
H333 H 0.55931 0.30582 0.28836 0.0
H334 H 0.52915 0.30953 0.22009 0.0
H335 H 0.49162 0.26855 0.19878 0.0
C336 C 0.46073 0.21518 0.20087 0.0
C337 C 0.47855 0.21409 0.24264 0.0
C338 C 0.49994 0.23863 0.255 0.0
C339 C 0.51685 0.23686 0.29487 0.0
C340 C 0.53837 0.26143 0.30615 0.0
C341 C 0.54281 0.2872 0.27917 0.0
C342 C 0.52586 0.28927 0.24071 0.0
C343 C 0.50454 0.26543 0.22869 0.0
H344 H 0.93669 0.53989 0.04048 0.0
C345 C 0.92228 0.51865 0.04339 0.0
H346 H 0.92217 0.46872 0.04795 0.0
H347 H 0.0553 0.44572 0.96491 0.0
H348 H 0.01994 0.42852 0.90723 0.0
H349 H 0.96212 0.43776 0.91103 0.0
H350 H 0.93929 0.46413 0.97263 0.0
C351 C 0.93643 0.49015 0.04642 0.0
C352 C 0.97152 0.48628 0.04366 0.0
C353 C 0.98453 0.47103 1.00727 0.0
C354 C 0.01792 0.46612 1.00479 0.0
C355 C 0.03017 0.45046 0.96827 0.0
C356 C 0.01013 0.44038 0.93493 0.0
C357 C 0.97758 0.44554 0.9371 0.0
C358 C 0.96479 0.46066 0.97273 0.0
H359 H 0.07706 0.44031 0.08746 0.0
C360 C 0.08943 0.45225 0.0618 0.0
H361 H 0.08533 0.48335 1.00912 0.0
H362 H 0.95421 0.51395 0.11955 0.0
H363 H 0.98971 0.53322 0.17584 0.0
H364 H 0.04787 0.52813 0.16926 0.0
H365 H 0.07084 0.50317 0.10678 0.0
C366 C 0.07325 0.47165 0.03523 0.0
C367 C 0.0383 0.47656 0.03864 0.0
C368 C 0.02536 0.49241 0.0747 0.0
C369 C 0.99187 0.49666 0.07762 0.0
C370 C 0.97948 0.51107 0.11495 0.0
C371 C 0.99959 0.52213 0.14763 0.0
C372 C 0.03233 0.51916 0.144 0.0
C373 C 0.0452 0.50456 0.10803 0.0
H374 H 0.52857 0.9229 0.51512 0.0
C375 C 0.50441 0.91724 0.52444 0.0
H376 H 0.46035 0.93578 0.54453 0.0
H377 H 0.52161 0.06501 0.6102 0.0
H378 H 0.50746 0.04049 0.67746 0.0
H379 H 0.48771 0.98547 0.67917 0.0
H380 H 0.48181 0.95467 0.61358 0.0
C381 C 0.48426 0.94087 0.53376 0.0
C382 C 0.49499 0.97447 0.53228 0.0
C383 C 0.49842 0.99208 0.57093 0.0
C384 C 0.51016 0.02368 0.57 0.0
C385 C 0.51308 0.04082 0.60906 0.0
C386 C 0.50501 0.02705 0.64792 0.0
C387 C 0.49388 0.99608 0.64888 0.0
C388 C 0.49059 0.97867 0.61096 0.0
H389 H 0.48794 0.08743 0.49875 0.0
C390 C 0.51088 0.09385 0.51284 0.0
H391 H 0.55187 0.07713 0.54554 0.0
H392 H 0.48778 0.9487 0.45176 0.0
H393 H 0.50338 0.97261 0.38476 0.0
H394 H 0.5271 0.02607 0.3837 0.0
H395 H 0.53489 0.05609 0.44958 0.0
C396 C 0.52951 0.07111 0.52959 0.0
C397 C 0.51845 0.0376 0.53042 0.0
C398 C 0.51518 0.01993 0.49175 0.0
C399 C 0.5028 0.98858 0.49258 0.0
C400 C 0.49824 0.9721 0.45324 0.0
C401 C 0.50688 0.98564 0.41448 0.0
C402 C 0.52013 0.01577 0.41386 0.0
C403 C 0.5243 0.03282 0.45192 0.0
H404 H 0.08855 0.54215 0.51281 0.0
C405 C 0.09846 0.5422 0.54523 0.0
H406 H 0.08955 0.53347 0.61063 0.0
H407 H 0.94025 0.54916 0.595 0.0
H408 H 0.95459 0.59361 0.64087 0.0
H409 H 0.01087 0.60718 0.65484 0.0
H410 H 0.05316 0.57616 0.62336 0.0
C411 C 0.08005 0.53351 0.57802 0.0
C412 C 0.04611 0.52436 0.57082 0.0
C413 C 0.02167 0.54287 0.5892 0.0
C414 C 0.98921 0.53542 0.58039 0.0
C415 C 0.96531 0.55407 0.59982 0.0
C416 C 0.97319 0.57962 0.62639 0.0
C417 C 1.00487 0.58722 0.63431 0.0
C418 C 0.02892 0.56917 0.61603 0.0
H419 H 0.94468 0.45802 0.56743 0.0
C420 C 0.93177 0.47718 0.55184 0.0
H421 H 0.93403 0.52337 0.52655 0.0
H422 H 0.08673 0.47995 0.53776 0.0
H423 H 0.07267 0.43655 0.48991 0.0
H424 H 0.01681 0.42721 0.4681 0.0
H425 H 0.97467 0.4606 0.49498 0.0
C426 C 0.94711 0.50396 0.54129 0.0
C427 C 0.98119 0.50974 0.55267 0.0
C428 C 0.00567 0.49094 0.53469 0.0
C429 C 0.03809 0.4976 0.545 0.0
C430 C 0.06189 0.47706 0.52915 0.0
C431 C 0.05413 0.45187 0.50192 0.0
C432 C 0.02267 0.44652 0.48982 0.0
C433 C 0.99865 0.46577 0.50582 0.0
H434 H 0.54979 0.93827 0.04627 0.0
C435 C 0.52822 0.92407 0.04585 0.0
H436 H 0.47795 0.92458 0.04584 0.0
H437 H 0.46787 0.06269 0.12421 0.0
H438 H 0.45188 0.03091 0.18482 0.0
H439 H 0.4562 0.97262 0.18255 0.0
H440 H 0.47657 0.94575 0.11969 0.0
C441 C 0.49969 0.93847 0.04501 0.0
C442 C 0.49673 0.97362 0.04578 0.0
C443 C 0.48439 0.98891 0.08258 0.0
C444 C 0.48184 0.02252 0.0839 0.0
C445 C 0.47006 0.03722 0.12138 0.0
C446 C 0.46086 0.01927 0.15644 0.0
C447 C 0.46329 0.98645 0.15516 0.0
C448 C 0.47496 0.97132 0.11881 0.0
H449 H 0.44166 0.0795 0.03559 0.0
C450 C 0.46361 0.09217 0.04282 0.0
H451 H 0.5129 0.08821 0.05635 0.0
H452 H 0.51782 0.9517 0.96826 0.0
H453 H 0.53353 0.98356 0.90767 0.0
H454 H 0.53046 0.04191 0.91081 0.0
H455 H 0.51141 0.06873 0.97453 0.0
C456 C 0.49057 0.07589 0.05039 0.0
C457 C 0.49148 0.04072 0.04831 0.0
C458 C 0.50332 0.02544 1.01125 0.0
C459 C 0.50563 0.99182 1.00976 0.0
C460 C 0.5164 0.97717 0.97166 0.0
C461 C 0.52531 0.99518 0.9365 0.0
C462 C 0.52355 0.02803 0.93824 0.0
C463 C 0.51264 0.04311 0.97505 0.0
H464 H 0.20315 0.33451 1.00773 0.0
C465 C 0.21507 0.35623 1.01776 0.0
H466 H 0.2576 0.37687 0.04158 0.0
H467 H 0.32292 0.25643 0.1172 0.0
H468 H 0.30198 0.27943 0.18258 0.0
H469 H 0.26362 0.32365 0.17951 0.0
H470 H 0.24587 0.34505 0.11107 0.0
C471 C 0.24579 0.3554 0.03035 0.0
C472 C 0.26474 0.32564 0.03159 0.0
C473 C 0.27477 0.31335 0.07177 0.0
C474 C 0.29709 0.28807 0.07359 0.0
C475 C 0.30651 0.27607 0.11413 0.0
C476 C 0.29453 0.28892 0.15185 0.0
C477 C 0.27292 0.3138 0.15012 0.0
C478 C 0.26303 0.32594 0.11065 0.0
H479 H 0.36836 0.28875 0.05976 0.0
C480 C 0.36601 0.26421 0.04934 0.0
H481 H 0.33452 0.22938 0.02444 0.0
H482 H 0.24965 0.34272 0.94891 0.0
H483 H 0.26924 0.31839 0.88392 0.0
H484 H 0.30709 0.27379 0.88724 0.0
H485 H 0.32575 0.2534 0.95575 0.0
C486 C 0.33728 0.25333 0.0369 0.0
C487 C 0.30962 0.27538 0.0352 0.0
C488 C 0.29792 0.28612 0.99497 0.0
C489 C 0.27569 0.31155 0.99309 0.0
C490 C 0.26591 0.32304 0.95238 0.0
C491 C 0.27709 0.30937 0.91473 0.0
C492 C 0.29844 0.28428 0.9166 0.0
C493 C 0.30894 0.2728 0.95614 0.0
H494 H 0.77108 0.35388 0.55406 0.0
C495 C 0.77863 0.35795 0.52134 0.0
H496 H 0.77198 0.34561 0.45617 0.0
H497 H 0.69567 0.23657 0.57416 0.0
H498 H 0.74796 0.22045 0.59968 0.0
H499 H 0.79608 0.24897 0.57715 0.0
H500 H 0.79211 0.29414 0.52945 0.0
C501 C 0.76534 0.34104 0.48911 0.0
C502 C 0.73739 0.32021 0.49687 0.0
C503 C 0.74022 0.29306 0.52331 0.0
C504 C 0.71255 0.27589 0.53502 0.0
C505 C 0.71592 0.24993 0.56329 0.0
C506 C 0.7458 0.24048 0.5783 0.0
C507 C 0.77289 0.25659 0.56571 0.0
C508 C 0.77028 0.28259 0.53854 0.0
H509 H 0.65931 0.22663 0.50187 0.0
C510 C 0.64365 0.24083 0.52165 0.0
H511 H 0.63662 0.28467 0.55295 0.0
H512 H 0.72365 0.36977 0.44296 0.0
H513 H 0.67183 0.38385 0.41409 0.0
H514 H 0.62424 0.35277 0.43212 0.0
H515 H 0.62822 0.30752 0.47946 0.0
C516 C 0.65267 0.27 0.5344 0.0
C517 C 0.68225 0.28531 0.51907 0.0
C518 C 0.6797 0.31125 0.49052 0.0
C519 C 0.70724 0.32879 0.47952 0.0
C520 C 0.7037 0.35522 0.45199 0.0
C521 C 0.67403 0.36365 0.43519 0.0
C522 C 0.64723 0.34619 0.44539 0.0
C523 C 0.64987 0.32032 0.47273 0.0
H524 H 0.76402 0.64394 0.02515 0.0
C525 C 0.77179 0.63909 0.05789 0.0
H526 H 0.7666 0.65096 0.12322 0.0
H527 H 0.69561 0.76514 1.00496 0.0
H528 H 0.74848 0.77826 0.98067 0.0
H529 H 0.79508 0.74693 1.00406 0.0
H530 H 0.78894 0.70188 0.05136 0.0
C531 C 0.7598 0.65626 0.09027 0.0
C532 C 0.73308 0.67884 0.08242 0.0
C533 C 0.73724 0.70595 0.05638 0.0
C534 C 0.71053 0.72481 0.04431 0.0
C535 C 0.71514 0.7506 1.01624 0.0
C536 C 0.74537 0.75833 1.0019 0.0
C537 C 0.7716 0.74063 1.01496 0.0
C538 C 0.76773 0.71472 0.04188 0.0
H539 H 0.66165 0.77737 0.07648 0.0
C540 C 0.64461 0.76433 0.05665 0.0
H541 H 0.63373 0.72104 0.0256 0.0
H542 H 0.71699 0.62982 0.13544 0.0
H543 H 0.66474 0.61871 0.16324 0.0
H544 H 0.61892 0.65276 0.14481 0.0
H545 H 0.62509 0.69802 0.09813 0.0
C546 C 0.65115 0.73451 0.04425 0.0
C547 C 0.6799 0.71717 0.05969 0.0
C548 C 0.67611 0.69124 0.08787 0.0
C549 C 0.70266 0.67198 0.09913 0.0
C550 C 0.69785 0.64561 0.12626 0.0
C551 C 0.66792 0.63888 0.14244 0.0
C552 C 0.64211 0.65802 0.13202 0.0
C553 C 0.64599 0.68388 0.10505 0.0
H554 H 0.35279 0.78561 0.55197 0.0
C555 C 0.37016 0.7709 0.53577 0.0
H556 H 0.38085 0.72554 0.51112 0.0
H557 H 0.29305 0.64353 0.62333 0.0
H558 H 0.34353 0.63585 0.66013 0.0
H559 H 0.3899 0.66911 0.64339 0.0
H560 H 0.38604 0.71015 0.58944 0.0
C561 C 0.3631 0.74063 0.52589 0.0
C562 C 0.33357 0.72486 0.54051 0.0
C563 C 0.33592 0.70152 0.57294 0.0
C564 C 0.30903 0.68274 0.58309 0.0
C565 C 0.31248 0.65885 0.61462 0.0
C566 C 0.34139 0.65413 0.63603 0.0
C567 C 0.36751 0.67281 0.62657 0.0
C568 C 0.36497 0.69622 0.59541 0.0
H569 H 0.25407 0.64791 0.50353 0.0
C570 C 0.24428 0.64475 0.53531 0.0
H571 H 0.2444 0.66102 0.59939 0.0
H572 H 0.32053 0.76858 0.47811 0.0
H573 H 0.26914 0.77864 0.44442 0.0
H574 H 0.2218 0.74798 0.46485 0.0
H575 H 0.22571 0.70669 0.51869 0.0
C576 C 0.25322 0.66454 0.56719 0.0
C577 C 0.27972 0.68747 0.56092 0.0
C578 C 0.27678 0.71238 0.53073 0.0
C579 C 0.30387 0.7308 0.52002 0.0
C580 C 0.30061 0.7544 0.48818 0.0
C581 C 0.27125 0.76037 0.46853 0.0
C582 C 0.24461 0.74305 0.47995 0.0
C583 C 0.2472 0.7193 0.51067 0.0
loop_
_geom_bond_atom_site_label_1
_geom_bond_atom_site_label_2
_geom_bond_distance
_geom_bond_site_symmetry_2
_ccdc_geom_bond_type
Mg0 O7 2.141 . S
Mg0 O8 2.048 . S
Mg0 O9 2.048 1_554 S
Mg0 O12 2.141 . S
C1 O2 1.313 . S
C1 O8 1.195 . S
O2 C1 1.313 . S
C3 O4 1.245 . S
C3 O12 1.289 . S
O4 C3 1.245 . S
C5 O6 1.245 . S
C5 O7 1.289 . S
O6 C5 1.245 . S
O7 Mg0 2.141 . S
O7 C5 1.289 . S
O8 Mg0 2.048 . S
O8 C1 1.195 . S
O9 Mg0 2.048 1_556 S
O9 C10 1.195 . S
C10 O9 1.195 . S
C10 O11 1.313 . S
O11 C10 1.313 . S
O12 Mg0 2.141 . S
O12 C3 1.289 . S
Mg13 O20 2.141 . S
Mg13 O21 2.048 . S
Mg13 O22 2.048 . S
Mg13 O25 2.141 . S
C14 O15 1.313 . S
C14 O21 1.195 . S
O15 C14 1.313 . S
C16 O17 1.245 . S
C16 O25 1.289 . S
O17 C16 1.245 . S
C18 O19 1.245 . S
C18 O20 1.289 . S
O19 C18 1.245 . S
O20 Mg13 2.141 . S
O20 C18 1.289 . S
O21 Mg13 2.048 . S
O21 C14 1.195 . S
O22 Mg13 2.048 . S
O22 C23 1.195 . S
C23 O22 1.195 . S
C23 O24 1.313 . S
O24 C23 1.313 . S
O25 Mg13 2.141 . S
O25 C16 1.289 . S
Mg26 O33 2.141 . S
Mg26 O34 2.048 . S
Mg26 O35 2.048 1_554 S
Mg26 O38 2.141 . S
C27 O28 1.313 . S
C27 O34 1.195 . S
O28 C27 1.313 . S
C29 O30 1.245 . S
C29 O38 1.289 . S
O30 C29 1.245 . S
C31 O32 1.245 . S
C31 O33 1.289 . S
O32 C31 1.245 . S
O33 Mg26 2.141 . S
O33 C31 1.289 . S
O34 Mg26 2.048 . S
O34 C27 1.195 . S
O35 Mg26 2.048 1_556 S
O35 C36 1.195 . S
C36 O35 1.195 . S
C36 O37 1.313 . S
O37 C36 1.313 . S
O38 Mg26 2.141 . S
O38 C29 1.289 . S
Mg39 O46 2.141 . S
Mg39 O47 2.048 . S
Mg39 O48 2.048 . S
Mg39 O51 2.141 . S
C40 O41 1.313 . S
C40 O47 1.195 . S
O41 C40 1.313 . S
C42 O43 1.245 . S
C42 O51 1.289 . S
O43 C42 1.245 . S
C44 O45 1.245 . S
C44 O46 1.289 . S
O45 C44 1.245 . S
O46 Mg39 2.141 . S
O46 C44 1.289 . S
O47 Mg39 2.048 . S
O47 C40 1.195 . S
O48 Mg39 2.048 . S
O48 C49 1.195 . S
C49 O48 1.195 . S
C49 O50 1.313 . S
O50 C49 1.313 . S
O51 Mg39 2.141 . S
O51 C42 1.289 . S
Mg52 O59 2.141 . S
Mg52 O60 2.048 . S
Mg52 O61 2.048 . S
Mg52 O64 2.141 . S
C53 O54 1.313 . S
C53 O60 1.195 . S
O54 C53 1.313 . S
C55 O56 1.245 . S
C55 O64 1.289 . S
O56 C55 1.245 . S
C57 O58 1.245 . S
C57 O59 1.289 . S
O58 C57 1.245 . S
O59 Mg52 2.141 . S
O59 C57 1.289 . S
O60 Mg52 2.048 . S
O60 C53 1.195 . S
O61 Mg52 2.048 . S
O61 C62 1.195 . S
C62 O61 1.195 . S
C62 O63 1.313 . S
O63 C62 1.313 . S
O64 Mg52 2.141 . S
O64 C55 1.289 . S
Mg65 O72 2.141 . S
Mg65 O73 2.048 . S
Mg65 O74 2.048 . S
Mg65 O77 2.141 1_554 S
C66 O67 1.313 . S
C66 O73 1.195 . S
O67 C66 1.313 . S
C68 O69 1.245 . S
C68 O77 1.289 . S
O69 C68 1.245 . S
C70 O71 1.245 . S
C70 O72 1.289 . S
O71 C70 1.245 . S
O72 Mg65 2.141 . S
O72 C70 1.289 . S
O73 Mg65 2.048 . S
O73 C66 1.195 . S
O74 Mg65 2.048 . S
O74 C75 1.195 . S
C75 O74 1.195 . S
C75 O76 1.313 . S
O76 C75 1.313 . S
O77 Mg65 2.141 1_556 S
O77 C68 1.289 . S
Mg78 O85 2.141 . S
Mg78 O86 2.048 . S
Mg78 O87 2.048 . S
Mg78 O90 2.141 . S
C79 O80 1.313 . S
C79 O86 1.195 . S
O80 C79 1.313 . S
C81 O82 1.245 . S
C81 O90 1.289 . S
O82 C81 1.245 . S
C83 O84 1.245 . S
C83 O85 1.289 . S
O84 C83 1.245 . S
O85 Mg78 2.141 . S
O85 C83 1.289 . S
O86 Mg78 2.048 . S
O86 C79 1.195 . S
O87 Mg78 2.048 . S
O87 C88 1.195 . S
C88 O87 1.195 . S
C88 O89 1.313 . S
O89 C88 1.313 . S
O90 Mg78 2.141 . S
O90 C81 1.289 . S
Mg91 O98 2.141 . S
Mg91 O99 2.048 . S
Mg91 O100 2.048 . S
Mg91 O103 2.141 1_554 S
C92 O93 1.313 . S
C92 O99 1.195 . S
O93 C92 1.313 . S
C94 O95 1.245 . S
C94 O103 1.289 . S
O95 C94 1.245 . S
C96 O97 1.245 . S
C96 O98 1.289 . S
O97 C96 1.245 . S
O98 Mg91 2.141 . S
O98 C96 1.289 . S
O99 Mg91 2.048 . S
O99 C92 1.195 . S
O100 Mg91 2.048 . S
O100 C101 1.195 . S
C101 O100 1.195 . S
C101 O102 1.313 . S
O102 C101 1.313 . S
O103 Mg91 2.141 1_556 S
O103 C94 1.289 . S
H104 C105 0.951 . S
C105 H104 0.951 . S
C105 C111 1.265 . S
H106 C111 0.950 . S
H107 C115 0.949 . S
H108 C116 0.950 . S
H109 C117 0.951 . S
H110 C118 0.951 . S
C111 C105 1.265 . S
C111 H106 0.950 . S
C111 C112 1.478 . S
C112 C111 1.478 . S
C112 C113 1.397 . S
C112 C129 1.394 . S
C113 C112 1.397 . S
C113 C114 1.438 . S
C113 C118 1.429 . S
C114 C113 1.438 . S
C114 C115 1.428 . S
C114 C127 1.394 . S
C115 H107 0.949 . S
C115 C114 1.428 . S
C115 C116 1.345 . S
C116 H108 0.950 . S
C116 C115 1.345 . S
C116 C117 1.424 . S
C117 H109 0.951 . S
C117 C116 1.424 . S
C117 C118 1.347 . S
C118 H110 0.951 . S
C118 C113 1.429 . S
C118 C117 1.347 . S
H119 C120 0.951 . S
C120 H119 0.951 . S
C120 C126 1.265 . S
H121 C126 0.950 . S
H122 C130 0.949 . S
H123 C131 0.950 . S
H124 C132 0.951 . S
H125 C133 0.951 . S
C126 C120 1.265 . S
C126 H121 0.950 . S
C126 C127 1.478 . S
C127 C114 1.394 . S
C127 C126 1.478 . S
C127 C128 1.397 . S
C128 C127 1.397 . S
C128 C129 1.438 . S
C128 C133 1.429 . S
C129 C112 1.394 . S
C129 C128 1.438 . S
C129 C130 1.428 . S
C130 H122 0.949 . S
C130 C129 1.428 . S
C130 C131 1.345 . S
C131 H123 0.950 . S
C131 C130 1.345 . S
C131 C132 1.424 . S
C132 H124 0.951 . S
C132 C131 1.424 . S
C132 C133 1.347 . S
C133 H125 0.951 . S
C133 C128 1.429 . S
C133 C132 1.347 . S
H134 C135 0.951 . S
C135 H134 0.951 . S
C135 C141 1.265 . S
H136 C141 0.950 . S
H137 C145 0.949 . S
H138 C146 0.950 . S
H139 C147 0.951 . S
H140 C148 0.951 . S
C141 C135 1.265 . S
C141 H136 0.950 . S
C141 C142 1.478 . S
C142 C141 1.478 . S
C142 C143 1.397 . S
C142 C159 1.394 . S
C143 C142 1.397 . S
C143 C144 1.438 . S
C143 C148 1.429 . S
C144 C143 1.438 . S
C144 C145 1.428 . S
C144 C157 1.394 . S
C145 H137 0.949 . S
C145 C144 1.428 . S
C145 C146 1.345 . S
C146 H138 0.950 . S
C146 C145 1.345 . S
C146 C147 1.424 . S
C147 H139 0.951 . S
C147 C146 1.424 . S
C147 C148 1.347 . S
C148 H140 0.951 . S
C148 C143 1.429 . S
C148 C147 1.347 . S
H149 C150 0.951 . S
C150 H149 0.951 . S
C150 C156 1.265 . S
H151 C156 0.950 . S
H152 C160 0.949 . S
H153 C161 0.950 . S
H154 C162 0.951 . S
H155 C163 0.951 . S
C156 C150 1.265 . S
C156 H151 0.950 . S
C156 C157 1.478 . S
C157 C144 1.394 . S
C157 C156 1.478 . S
C157 C158 1.397 . S
C158 C157 1.397 . S
C158 C159 1.438 . S
C158 C163 1.429 . S
C159 C142 1.394 . S
C159 C158 1.438 . S
C159 C160 1.428 . S
C160 H152 0.949 . S
C160 C159 1.428 . S
C160 C161 1.345 . S
C161 H153 0.950 . S
C161 C160 1.345 . S
C161 C162 1.424 . S
C162 H154 0.951 . S
C162 C161 1.424 . S
C162 C163 1.347 . S
C163 H155 0.951 . S
C163 C158 1.429 . S
C163 C162 1.347 . S
H164 C165 0.951 . S
C165 H164 0.951 . S
C165 C171 1.265 . S
H166 C171 0.950 . S
H167 C175 0.949 . S
H168 C176 0.950 . S
H169 C177 0.951 . S
H170 C178 0.951 . S
C171 C165 1.265 . S
C171 H166 0.950 . S
C171 C172 1.478 . S
C172 C171 1.478 . S
C172 C173 1.397 . S
C172 C189 1.394 . S
C173 C172 1.397 . S
C173 C174 1.438 . S
C173 C178 1.429 . S
C174 C173 1.438 . S
C174 C175 1.428 . S
C174 C187 1.394 . S
C175 H167 0.949 . S
C175 C174 1.428 . S
C175 C176 1.345 . S
C176 H168 0.950 . S
C176 C175 1.345 . S
C176 C177 1.424 . S
C177 H169 0.951 . S
C177 C176 1.424 . S
C177 C178 1.347 . S
C178 H170 0.951 . S
C178 C173 1.429 . S
C178 C177 1.347 . S
H179 C180 0.951 . S
C180 H179 0.951 . S
C180 C186 1.265 . S
H181 C186 0.950 . S
H182 C190 0.949 . S
H183 C191 0.950 . S
H184 C192 0.951 . S
H185 C193 0.951 . S
C186 C180 1.265 . S
C186 H181 0.950 . S
C186 C187 1.478 . S
C187 C174 1.394 . S
C187 C186 1.478 . S
C187 C188 1.397 . S
C188 C187 1.397 . S
C188 C189 1.438 . S
C188 C193 1.429 . S
C189 C172 1.394 . S
C189 C188 1.438 . S
C189 C190 1.428 . S
C190 H182 0.949 . S
C190 C189 1.428 . S
C190 C191 1.345 . S
C191 H183 0.950 . S
C191 C190 1.345 . S
C191 C192 1.424 . S
C192 H184 0.951 . S
C192 C191 1.424 . S
C192 C193 1.347 . S
C193 H185 0.951 . S
C193 C188 1.429 . S
C193 C192 1.347 . S
H194 C195 0.951 . S
C195 H194 0.951 . S
C195 C201 1.265 . S
H196 C201 0.950 . S
H197 C205 0.949 . S
H198 C206 0.950 . S
H199 C207 0.951 . S
H200 C208 0.951 . S
C201 C195 1.265 . S
C201 H196 0.950 . S
C201 C202 1.478 . S
C202 C201 1.478 . S
C202 C203 1.397 . S
C202 C219 1.394 . S
C203 C202 1.397 . S
C203 C204 1.438 . S
C203 C208 1.429 . S
C204 C203 1.438 . S
C204 C205 1.428 . S
C204 C217 1.394 . S
C205 H197 0.949 . S
C205 C204 1.428 . S
C205 C206 1.345 . S
C206 H198 0.950 . S
C206 C205 1.345 . S
C206 C207 1.424 . S
C207 H199 0.951 . S
C207 C206 1.424 . S
C207 C208 1.347 . S
C208 H200 0.951 . S
C208 C203 1.429 . S
C208 C207 1.347 . S
H209 C210 0.951 . S
C210 H209 0.951 . S
C210 C216 1.265 . S
H211 C216 0.950 . S
H212 C220 0.949 . S
H213 C221 0.950 . S
H214 C222 0.951 . S
H215 C223 0.951 . S
C216 C210 1.265 . S
C216 H211 0.950 . S
C216 C217 1.478 . S
C217 C204 1.394 . S
C217 C216 1.478 . S
C217 C218 1.397 . S
C218 C217 1.397 . S
C218 C219 1.438 . S
C218 C223 1.429 . S
C219 C202 1.394 . S
C219 C218 1.438 . S
C219 C220 1.428 . S
C220 H212 0.949 . S
C220 C219 1.428 . S
C220 C221 1.345 . S
C221 H213 0.950 . S
C221 C220 1.345 . S
C221 C222 1.424 . S
C222 H214 0.951 . S
C222 C221 1.424 . S
C222 C223 1.347 . S
C223 H215 0.951 . S
C223 C218 1.429 . S
C223 C222 1.347 . S
H224 C225 0.951 . S
C225 H224 0.951 . S
C225 C231 1.265 . S
H226 C231 0.950 . S
H227 C235 0.949 . S
H228 C236 0.950 . S
H229 C237 0.951 . S
H230 C238 0.951 . S
C231 C225 1.265 . S
C231 H226 0.950 . S
C231 C232 1.478 . S
C232 C231 1.478 . S
C232 C233 1.397 . S
C232 C249 1.394 . S
C233 C232 1.397 . S
C233 C234 1.438 . S
C233 C238 1.429 . S
C234 C233 1.438 . S
C234 C235 1.428 . S
C234 C247 1.394 . S
C235 H227 0.949 . S
C235 C234 1.428 . S
C235 C236 1.345 . S
C236 H228 0.950 . S
C236 C235 1.345 . S
C236 C237 1.424 . S
C237 H229 0.951 . S
C237 C236 1.424 . S
C237 C238 1.347 . S
C238 H230 0.951 . S
C238 C233 1.429 . S
C238 C237 1.347 . S
H239 C240 0.951 . S
C240 H239 0.951 . S
C240 C246 1.265 . S
H241 C246 0.950 . S
H242 C250 0.949 . S
H243 C251 0.950 . S
H244 C252 0.951 . S
H245 C253 0.951 . S
C246 C240 1.265 . S
C246 H241 0.950 . S
C246 C247 1.478 . S
C247 C234 1.394 . S
C247 C246 1.478 . S
C247 C248 1.397 . S
C248 C247 1.397 . S
C248 C249 1.438 . S
C248 C253 1.429 . S
C249 C232 1.394 . S
C249 C248 1.438 . S
C249 C250 1.428 . S
C250 H242 0.949 . S
C250 C249 1.428 . S
C250 C251 1.345 . S
C251 H243 0.950 . S
C251 C250 1.345 . S
C251 C252 1.424 . S
C252 H244 0.951 . S
C252 C251 1.424 . S
C252 C253 1.347 . S
C253 H245 0.951 . S
C253 C248 1.429 . S
C253 C252 1.347 . S
H254 C255 0.951 . S
C255 H254 0.951 . S
C255 C261 1.265 . S
H256 C261 0.950 . S
H257 C265 0.949 . S
H258 C266 0.950 . S
H259 C267 0.951 . S
H260 C268 0.951 . S
C261 C255 1.265 . S
C261 H256 0.950 . S
C261 C262 1.478 . S
C262 C261 1.478 . S
C262 C263 1.397 . S
C262 C279 1.394 . S
C263 C262 1.397 . S
C263 C264 1.438 . S
C263 C268 1.429 . S
C264 C263 1.438 . S
C264 C265 1.428 . S
C264 C277 1.394 . S
C265 H257 0.949 . S
C265 C264 1.428 . S
C265 C266 1.345 . S
C266 H258 0.950 . S
C266 C265 1.345 . S
C266 C267 1.424 . S
C267 H259 0.951 . S
C267 C266 1.424 . S
C267 C268 1.347 . S
C268 H260 0.951 . S
C268 C263 1.429 . S
C268 C267 1.347 . S
H269 C270 0.951 . S
C270 H269 0.951 . S
C270 C276 1.265 . S
H271 C276 0.950 . S
H272 C280 0.949 . S
H273 C281 0.950 . S
H274 C282 0.951 . S
H275 C283 0.951 . S
C276 C270 1.265 . S
C276 H271 0.950 . S
C276 C277 1.478 . S
C277 C264 1.394 . S
C277 C276 1.478 . S
C277 C278 1.397 . S
C278 C277 1.397 . S
C278 C279 1.438 . S
C278 C283 1.429 . S
C279 C262 1.394 . S
C279 C278 1.438 . S
C279 C280 1.428 . S
C280 H272 0.949 . S
C280 C279 1.428 . S
C280 C281 1.345 . S
C281 H273 0.950 . S
C281 C280 1.345 . S
C281 C282 1.424 . S
C282 H274 0.951 . S
C282 C281 1.424 . S
C282 C283 1.347 . S
C283 H275 0.951 . S
C283 C278 1.429 . S
C283 C282 1.347 . S
H284 C285 0.951 . S
C285 H284 0.951 . S
C285 C291 1.265 . S
H286 C291 0.950 . S
H287 C295 0.949 . S
H288 C296 0.950 . S
H289 C297 0.951 . S
H290 C298 0.951 . S
C291 C285 1.265 . S
C291 H286 0.950 . S
C291 C292 1.478 . S
C292 C291 1.478 . S
C292 C293 1.397 . S
C292 C309 1.394 . S
C293 C292 1.397 . S
C293 C294 1.438 . S
C293 C298 1.429 . S
C294 C293 1.438 . S
C294 C295 1.428 . S
C294 C307 1.394 . S
C295 H287 0.949 . S
C295 C294 1.428 . S
C295 C296 1.345 . S
C296 H288 0.950 . S
C296 C295 1.345 . S
C296 C297 1.424 . S
C297 H289 0.951 . S
C297 C296 1.424 . S
C297 C298 1.347 . S
C298 H290 0.951 . S
C298 C293 1.429 . S
C298 C297 1.347 . S
H299 C300 0.951 . S
C300 H299 0.951 . S
C300 C306 1.265 . S
H301 C306 0.950 . S
H302 C310 0.949 . S
H303 C311 0.950 . S
H304 C312 0.951 . S
H305 C313 0.951 . S
C306 C300 1.265 . S
C306 H301 0.950 . S
C306 C307 1.478 . S
C307 C294 1.394 . S
C307 C306 1.478 . S
C307 C308 1.397 . S
C308 C307 1.397 . S
C308 C309 1.438 . S
C308 C313 1.429 . S
C309 C292 1.394 . S
C309 C308 1.438 . S
C309 C310 1.428 . S
C310 H302 0.949 . S
C310 C309 1.428 . S
C310 C311 1.345 . S
C311 H303 0.950 . S
C311 C310 1.345 . S
C311 C312 1.424 . S
C312 H304 0.951 . S
C312 C311 1.424 . S
C312 C313 1.347 . S
C313 H305 0.951 . S
C313 C308 1.429 . S
C313 C312 1.347 . S
H314 C315 0.951 . S
C315 H314 0.951 . S
C315 C321 1.265 . S
H316 C321 0.950 . S
H317 C325 0.949 . S
H318 C326 0.950 . S
H319 C327 0.951 . S
H320 C328 0.951 . S
C321 C315 1.265 . S
C321 H316 0.950 . S
C321 C322 1.478 . S
C322 C321 1.478 . S
C322 C323 1.397 . S
C322 C339 1.394 . S
C323 C322 1.397 . S
C323 C324 1.438 . S
C323 C328 1.429 . S
C324 C323 1.438 . S
C324 C325 1.428 . S
C324 C337 1.394 . S
C325 H317 0.949 . S
C325 C324 1.428 . S
C325 C326 1.345 . S
C326 H318 0.950 . S
C326 C325 1.345 . S
C326 C327 1.424 . S
C327 H319 0.951 . S
C327 C326 1.424 . S
C327 C328 1.347 . S
C328 H320 0.951 . S
C328 C323 1.429 . S
C328 C327 1.347 . S
H329 C330 0.951 . S
C330 H329 0.951 . S
C330 C336 1.265 . S
H331 C336 0.950 . S
H332 C340 0.949 . S
H333 C341 0.950 . S
H334 C342 0.951 . S
H335 C343 0.951 . S
C336 C330 1.265 . S
C336 H331 0.950 . S
C336 C337 1.478 . S
C337 C324 1.394 . S
C337 C336 1.478 . S
C337 C338 1.397 . S
C338 C337 1.397 . S
C338 C339 1.438 . S
C338 C343 1.429 . S
C339 C322 1.394 . S
C339 C338 1.438 . S
C339 C340 1.428 . S
C340 H332 0.949 . S
C340 C339 1.428 . S
C340 C341 1.345 . S
C341 H333 0.950 . S
C341 C340 1.345 . S
C341 C342 1.424 . S
C342 H334 0.951 . S
C342 C341 1.424 . S
C342 C343 1.347 . S
C343 H335 0.951 . S
C343 C338 1.429 . S
C343 C342 1.347 . S
H344 C345 0.951 . S
C345 H344 0.951 . S
C345 C351 1.265 . S
H346 C351 0.957 . S
H347 C355 0.949 . S
H348 C356 0.950 . S
H349 C357 0.951 . S
H350 C358 0.951 . S
C351 C345 1.265 . S
C351 H346 0.957 . S
C351 C352 1.478 . S
C352 C351 1.478 . S
C352 C353 1.397 1_554 S
C352 C369 1.394 . S
C353 C352 1.397 1_556 S
C353 C354 1.438 1_655 S
C353 C358 1.429 . S
C354 C353 1.438 1_455 S
C354 C355 1.428 . S
C354 C367 1.394 1_556 S
C355 H347 0.949 . S
C355 C354 1.428 . S
C355 C356 1.345 . S
C356 H348 0.950 . S
C356 C355 1.345 . S
C356 C357 1.424 1_455 S
C357 H349 0.951 . S
C357 C356 1.424 1_655 S
C357 C358 1.347 . S
C358 H350 0.951 . S
C358 C353 1.429 . S
C358 C357 1.347 . S
H359 C360 0.951 . S
C360 H359 0.951 . S
C360 C366 1.265 . S
H361 C366 0.950 . S
H362 C370 0.949 . S
H363 C371 0.950 . S
H364 C372 0.951 . S
H365 C373 0.951 . S
C366 C360 1.265 . S
C366 H361 0.950 . S
C366 C367 1.478 . S
C367 C354 1.394 1_554 S
C367 C366 1.478 . S
C367 C368 1.397 . S
C368 C367 1.397 . S
C368 C369 1.438 1_455 S
C368 C373 1.429 . S
C369 C352 1.394 . S
C369 C368 1.438 1_655 S
C369 C370 1.428 . S
C370 H362 0.949 . S
C370 C369 1.428 . S
C370 C371 1.345 . S
C371 H363 0.950 . S
C371 C370 1.345 . S
C371 C372 1.424 1_655 S
C372 H364 0.951 . S
C372 C371 1.424 1_455 S
C372 C373 1.347 . S
C373 H365 0.951 . S
C373 C368 1.429 . S
C373 C372 1.347 . S
H374 C375 0.951 . S
C375 H374 0.951 . S
C375 C381 1.265 . S
H376 C381 0.950 . S
H377 C385 0.949 . S
H378 C386 0.950 . S
H379 C387 0.951 . S
H380 C388 0.951 . S
C381 C375 1.265 . S
C381 H376 0.950 . S
C381 C382 1.478 . S
C382 C381 1.478 . S
C382 C383 1.397 . S
C382 C399 1.394 . S
C383 C382 1.397 . S
C383 C384 1.438 1_565 S
C383 C388 1.429 . S
C384 C383 1.438 1_545 S
C384 C385 1.428 . S
C384 C397 1.394 . S
C385 H377 0.949 . S
C385 C384 1.428 . S
C385 C386 1.345 . S
C386 H378 0.950 . S
C386 C385 1.345 . S
C386 C387 1.424 1_545 S
C387 H379 0.951 . S
C387 C386 1.424 1_565 S
C387 C388 1.347 . S
C388 H380 0.951 . S
C388 C383 1.429 . S
C388 C387 1.347 . S
H389 C390 0.951 . S
C390 H389 0.951 . S
C390 C396 1.265 . S
H391 C396 0.950 . S
H392 C400 0.949 . S
H393 C401 0.950 . S
H394 C402 0.951 . S
H395 C403 0.951 . S
C396 C390 1.265 . S
C396 H391 0.950 . S
C396 C397 1.478 . S
C397 C384 1.394 . S
C397 C396 1.478 . S
C397 C398 1.397 . S
C398 C397 1.397 . S
C398 C399 1.438 1_545 S
C398 C403 1.429 . S
C399 C382 1.394 . S
C399 C398 1.438 1_565 S
C399 C400 1.428 . S
C400 H392 0.949 . S
C400 C399 1.428 . S
C400 C401 1.345 . S
C401 H393 0.950 . S
C401 C400 1.345 . S
C401 C402 1.424 1_565 S
C402 H394 0.951 . S
C402 C401 1.424 1_545 S
C402 C403 1.347 . S
C403 H395 0.951 . S
C403 C398 1.429 . S
C403 C402 1.347 . S
H404 C405 0.951 . S
C405 H404 0.951 . S
C405 C411 1.265 . S
H406 C411 0.950 . S
H407 C415 0.949 . S
H408 C416 0.950 . S
H409 C417 0.951 . S
H410 C418 0.951 . S
C411 C405 1.265 . S
C411 H406 0.950 . S
C411 C412 1.478 . S
C412 C411 1.478 . S
C412 C413 1.397 . S
C412 C429 1.394 . S
C413 C412 1.397 . S
C413 C414 1.438 1_455 S
C413 C418 1.429 . S
C414 C413 1.438 1_655 S
C414 C415 1.428 . S
C414 C427 1.394 . S
C415 H407 0.949 . S
C415 C414 1.428 . S
C415 C416 1.345 . S
C416 H408 0.950 . S
C416 C415 1.345 . S
C416 C417 1.424 1_655 S
C417 H409 0.951 . S
C417 C416 1.424 1_455 S
C417 C418 1.347 . S
C418 H410 0.951 . S
C418 C413 1.429 . S
C418 C417 1.347 . S
H419 C420 0.951 . S
C420 H419 0.951 . S
C420 C426 1.265 . S
H421 C426 0.950 . S
H422 C430 0.949 . S
H423 C431 0.950 . S
H424 C432 0.951 . S
H425 C433 0.951 . S
C426 C420 1.265 . S
C426 H421 0.950 . S
C426 C427 1.478 . S
C427 C414 1.394 . S
C427 C426 1.478 . S
C427 C428 1.397 . S
C428 C427 1.397 . S
C428 C429 1.438 1_655 S
C428 C433 1.429 . S
C429 C412 1.394 . S
C429 C428 1.438 1_455 S
C429 C430 1.428 . S
C430 H422 0.949 . S
C430 C429 1.428 . S
C430 C431 1.345 . S
C431 H423 0.950 . S
C431 C430 1.345 . S
C431 C432 1.424 1_455 S
C432 H424 0.951 . S
C432 C431 1.424 1_655 S
C432 C433 1.347 . S
C433 H425 0.951 . S
C433 C428 1.429 . S
C433 C432 1.347 . S
H434 C435 0.951 . S
C435 H434 0.951 . S
C435 C441 1.265 . S
H436 C441 0.950 . S
H437 C445 0.949 . S
H438 C446 0.950 . S
H439 C447 0.951 . S
H440 C448 0.951 . S
C441 C435 1.265 . S
C441 H436 0.950 . S
C441 C442 1.478 . S
C442 C441 1.478 . S
C442 C443 1.397 . S
C442 C459 1.394 1_554 S
C443 C442 1.397 . S
C443 C444 1.438 1_565 S
C443 C448 1.429 . S
C444 C443 1.438 1_545 S
C444 C445 1.428 . S
C444 C457 1.394 . S
C445 H437 0.949 . S
C445 C444 1.428 . S
C445 C446 1.345 . S
C446 H438 0.950 . S
C446 C445 1.345 . S
C446 C447 1.424 1_545 S
C447 H439 0.951 . S
C447 C446 1.424 1_565 S
C447 C448 1.347 . S
C448 H440 0.951 . S
C448 C443 1.429 . S
C448 C447 1.347 . S
H449 C450 0.951 . S
C450 H449 0.951 . S
C450 C456 1.265 . S
H451 C456 0.950 . S
H452 C460 0.949 . S
H453 C461 0.950 . S
H454 C462 0.951 . S
H455 C463 0.951 . S
C456 C450 1.265 . S
C456 H451 0.950 . S
C456 C457 1.478 . S
C457 C444 1.394 . S
C457 C456 1.478 . S
C457 C458 1.397 1_554 S
C458 C457 1.397 1_556 S
C458 C459 1.438 1_545 S
C458 C463 1.429 . S
C459 C442 1.394 1_556 S
C459 C458 1.438 1_565 S
C459 C460 1.428 . S
C460 H452 0.949 . S
C460 C459 1.428 . S
C460 C461 1.345 . S
C461 H453 0.950 . S
C461 C460 1.345 . S
C461 C462 1.424 1_565 S
C462 H454 0.951 . S
C462 C461 1.424 1_545 S
C462 C463 1.347 . S
C463 H455 0.951 . S
C463 C458 1.429 . S
C463 C462 1.347 . S
H464 C465 0.951 . S
C465 H464 0.951 . S
C465 C471 1.265 . S
H466 C471 0.950 . S
H467 C475 0.949 . S
H468 C476 0.950 . S
H469 C477 0.951 . S
H470 C478 0.951 . S
C471 C465 1.265 . S
C471 H466 0.950 . S
C471 C472 1.478 . S
C472 C471 1.478 . S
C472 C473 1.397 . S
C472 C489 1.394 1_554 S
C473 C472 1.397 . S
C473 C474 1.438 . S
C473 C478 1.429 . S
C474 C473 1.438 . S
C474 C475 1.428 . S
C474 C487 1.394 . S
C475 H467 0.949 . S
C475 C474 1.428 . S
C475 C476 1.345 . S
C476 H468 0.950 . S
C476 C475 1.345 . S
C476 C477 1.424 . S
C477 H469 0.951 . S
C477 C476 1.424 . S
C477 C478 1.347 . S
C478 H470 0.951 . S
C478 C473 1.429 . S
C478 C477 1.347 . S
H479 C480 0.951 . S
C480 H479 0.951 . S
C480 C486 1.265 . S
H481 C486 0.950 . S
H482 C490 0.949 . S
H483 C491 0.950 . S
H484 C492 0.951 . S
H485 C493 0.951 . S
C486 C480 1.265 . S
C486 H481 0.950 . S
C486 C487 1.478 . S
C487 C474 1.394 . S
C487 C486 1.478 . S
C487 C488 1.397 1_554 S
C488 C487 1.397 1_556 S
C488 C489 1.438 . S
C488 C493 1.429 . S
C489 C472 1.394 1_556 S
C489 C488 1.438 . S
C489 C490 1.428 . S
C490 H482 0.949 . S
C490 C489 1.428 . S
C490 C491 1.345 . S
C491 H483 0.950 . S
C491 C490 1.345 . S
C491 C492 1.424 . S
C492 H484 0.951 . S
C492 C491 1.424 . S
C492 C493 1.347 . S
C493 H485 0.951 . S
C493 C488 1.429 . S
C493 C492 1.347 . S
H494 C495 0.951 . S
C495 H494 0.951 . S
C495 C501 1.265 . S
H496 C501 0.950 . S
H497 C505 0.949 . S
H498 C506 0.950 . S
H499 C507 0.951 . S
H500 C508 0.951 . S
C501 C495 1.265 . S
C501 H496 0.950 . S
C501 C502 1.478 . S
C502 C501 1.478 . S
C502 C503 1.397 . S
C502 C519 1.394 . S
C503 C502 1.397 . S
C503 C504 1.438 . S
C503 C508 1.429 . S
C504 C503 1.438 . S
C504 C505 1.428 . S
C504 C517 1.394 . S
C505 H497 0.949 . S
C505 C504 1.428 . S
C505 C506 1.345 . S
C506 H498 0.950 . S
C506 C505 1.345 . S
C506 C507 1.424 . S
C507 H499 0.951 . S
C507 C506 1.424 . S
C507 C508 1.347 . S
C508 H500 0.951 . S
C508 C503 1.429 . S
C508 C507 1.347 . S
H509 C510 0.951 . S
C510 H509 0.951 . S
C510 C516 1.265 . S
H511 C516 0.950 . S
H512 C520 0.949 . S
H513 C521 0.950 . S
H514 C522 0.951 . S
H515 C523 0.951 . S
C516 C510 1.265 . S
C516 H511 0.950 . S
C516 C517 1.478 . S
C517 C504 1.394 . S
C517 C516 1.478 . S
C517 C518 1.397 . S
C518 C517 1.397 . S
C518 C519 1.438 . S
C518 C523 1.429 . S
C519 C502 1.394 . S
C519 C518 1.438 . S
C519 C520 1.428 . S
C520 H512 0.949 . S
C520 C519 1.428 . S
C520 C521 1.345 . S
C521 H513 0.950 . S
C521 C520 1.345 . S
C521 C522 1.424 . S
C522 H514 0.951 . S
C522 C521 1.424 . S
C522 C523 1.347 . S
C523 H515 0.951 . S
C523 C518 1.429 . S
C523 C522 1.347 . S
H524 C525 0.951 . S
C525 H524 0.951 . S
C525 C531 1.265 . S
H526 C531 0.950 . S
H527 C535 0.949 . S
H528 C536 0.950 . S
H529 C537 0.951 . S
H530 C538 0.951 . S
C531 C525 1.265 . S
C531 H526 0.950 . S
C531 C532 1.478 . S
C532 C531 1.478 . S
C532 C533 1.397 1_554 S
C532 C549 1.394 . S
C533 C532 1.397 1_556 S
C533 C534 1.438 . S
C533 C538 1.429 . S
C534 C533 1.438 . S
C534 C535 1.428 . S
C534 C547 1.394 1_556 S
C535 H527 0.949 . S
C535 C534 1.428 . S
C535 C536 1.345 . S
C536 H528 0.950 . S
C536 C535 1.345 . S
C536 C537 1.424 . S
C537 H529 0.951 . S
C537 C536 1.424 . S
C537 C538 1.347 . S
C538 H530 0.951 . S
C538 C533 1.429 . S
C538 C537 1.347 . S
H539 C540 0.951 . S
C540 H539 0.951 . S
C540 C546 1.265 . S
H541 C546 0.950 . S
H542 C550 0.949 . S
H543 C551 0.950 . S
H544 C552 0.951 . S
H545 C553 0.951 . S
C546 C540 1.265 . S
C546 H541 0.950 . S
C546 C547 1.478 . S
C547 C534 1.394 1_554 S
C547 C546 1.478 . S
C547 C548 1.397 . S
C548 C547 1.397 . S
C548 C549 1.438 . S
C548 C553 1.429 . S
C549 C532 1.394 . S
C549 C548 1.438 . S
C549 C550 1.428 . S
C550 H542 0.949 . S
C550 C549 1.428 . S
C550 C551 1.345 . S
C551 H543 0.950 . S
C551 C550 1.345 . S
C551 C552 1.424 . S
C552 H544 0.951 . S
C552 C551 1.424 . S
C552 C553 1.347 . S
C553 H545 0.951 . S
C553 C548 1.429 . S
C553 C552 1.347 . S
H554 C555 0.951 . S
C555 H554 0.951 . S
C555 C561 1.265 . S
H556 C561 0.950 . S
H557 C565 0.949 . S
H558 C566 0.950 . S
H559 C567 0.951 . S
H560 C568 0.951 . S
C561 C555 1.265 . S
C561 H556 0.950 . S
C561 C562 1.478 . S
C562 C561 1.478 . S
C562 C563 1.397 . S
C562 C579 1.394 . S
C563 C562 1.397 . S
C563 C564 1.438 . S
C563 C568 1.429 . S
C564 C563 1.438 . S
C564 C565 1.428 . S
C564 C577 1.394 . S
C565 H557 0.949 . S
C565 C564 1.428 . S
C565 C566 1.345 . S
C566 H558 0.950 . S
C566 C565 1.345 . S
C566 C567 1.424 . S
C567 H559 0.951 . S
C567 C566 1.424 . S
C567 C568 1.347 . S
C568 H560 0.951 . S
C568 C563 1.429 . S
C568 C567 1.347 . S
H569 C570 0.951 . S
C570 H569 0.951 . S
C570 C576 1.265 . S
H571 C576 0.950 . S
H572 C580 0.949 . S
H573 C581 0.950 . S
H574 C582 0.951 . S
H575 C583 0.951 . S
C576 C570 1.265 . S
C576 H571 0.950 . S
C576 C577 1.478 . S
C577 C564 1.394 . S
C577 C576 1.478 . S
C577 C578 1.397 . S
C578 C577 1.397 . S
C578 C579 1.438 . S
C578 C583 1.429 . S
C579 C562 1.394 . S
C579 C578 1.438 . S
C579 C580 1.428 . S
C580 H572 0.949 . S
C580 C579 1.428 . S
C580 C581 1.345 . S
C581 H573 0.950 . S
C581 C580 1.345 . S
C581 C582 1.424 . S
C582 H574 0.951 . S
C582 C581 1.424 . S
C582 C583 1.347 . S
C583 H575 0.951 . S
C583 C578 1.429 . S
C583 C582 1.347 . S
C105 C5 1.508 . S
C120 C53 1.522 . S
C135 C16 1.509 . S
C150 C68 1.508 . S
C165 C83 1.497 . S
C180 C31 1.505 . S
C195 C94 1.506 . S
C210 C42 1.508 . S
C225 C88 1.636 . S
C240 C36 1.614 . S
C255 C92 1.567 . S
C270 C40 1.564 . S
C285 C10 1.606 . S
C300 C55 1.623 . S
C315 C14 1.622 . S
C330 C66 1.623 . S
C345 C27 1.894 . S
C360 C1 1.892 . S
C375 C49 2.058 . S
C390 C23 2.057 . S
C405 C62 1.980 . S
C420 C79 1.981 . S
C435 C101 2.008 . S
C450 C75 2.008 . S
C465 C3 1.819 . S
C480 C70 1.936 . S
C495 C81 1.895 . S
C510 C18 1.924 . S
C525 C29 1.896 . S
C540 C96 1.924 . S
C555 C44 1.923 . S
C570 C57 1.898 . S
