# Generated by pormake.
# Topology uog, (4)-cn, num edge types: 1
# Building blocks:
#     Node 0, Type 0, BuildingBlock: QUQFOY_clean_sbu_1, # of connection points: 4
#     Node 1, Type 0, BuildingBlock: QUQFOY_clean_sbu_1, # of connection points: 4
#     Node 2, Type 0, BuildingBlock: QUQFOY_clean_sbu_1, # of connection points: 4
#     Node 3, Type 0, BuildingBlock: QUQFOY_clean_sbu_1, # of connection points: 4
#     Node 4, Type 0, BuildingBlock: QUQFOY_clean_sbu_1, # of connection points: 4
#     Node 5, Type 0, BuildingBlock: QUQFOY_clean_sbu_1, # of connection points: 4
#     Edge 6, Type (0, 0), BuildingBlock: KIFKEQ_clean_linker_1, # of connection points: 2
#     Edge 7, Type (0, 0), BuildingBlock: KIFKEQ_clean_linker_1, # of connection points: 2
#     Edge 8, Type (0, 0), BuildingBlock: KIFKEQ_clean_linker_1, # of connection points: 2
#     Edge 9, Type (0, 0), BuildingBlock: KIFKEQ_clean_linker_1, # of connection points: 2
#     Edge 10, Type (0, 0), BuildingBlock: KIFKEQ_clean_linker_1, # of connection points: 2
#     Edge 11, Type (0, 0), BuildingBlock: KIFKEQ_clean_linker_1, # of connection points: 2
#     Edge 12, Type (0, 0), BuildingBlock: KIFKEQ_clean_linker_1, # of connection points: 2
#     Edge 13, Type (0, 0), BuildingBlock: KIFKEQ_clean_linker_1, # of connection points: 2
#     Edge 14, Type (0, 0), BuildingBlock: KIFKEQ_clean_linker_1, # of connection points: 2
#     Edge 15, Type (0, 0), BuildingBlock: KIFKEQ_clean_linker_1, # of connection points: 2
#     Edge 16, Type (0, 0), BuildingBlock: KIFKEQ_clean_linker_1, # of connection points: 2
#     Edge 17, Type (0, 0), BuildingBlock: KIFKEQ_clean_linker_1, # of connection points: 2
# Relax obj value: 0.093
# Max RMSD: 0.154
# Mean RMSD: 0.154
data_MOF--net-uog--node1-QUQFOY_clean_sbu_1--edge1-KIFKEQ_clean_linker_1
_symmetry_space_group_name_H-M    P1
_symmetry_Int_Tables_number       1
_symmetry_cell_setting            triclinic
loop_
_symmetry_equiv_pos_as_xyz
'x, y, z'
_cell_length_a     29.510528
_cell_length_b     29.55845
_cell_length_c     44.518517
_cell_angle_alpha  89.668161
_cell_angle_beta   89.83065
_cell_angle_gamma 120.01226
loop_
_atom_site_label
_atom_site_type_symbol
_atom_site_fract_x
_atom_site_fract_y
_atom_site_fract_z
_atom_type_partial_charge
O0 O 0.62273 0.39728 0.18157 0.0
Cd1 Cd 0.65891 0.35407 0.1779 0.0
Cd2 Cd 0.56188 0.28178 0.16494 0.0
O3 O 0.54278 0.33117 0.18861 0.0
O4 O 0.71937 0.3862 0.20671 0.0
O5 O 0.64865 0.30893 0.21362 0.0
C6 C 0.69195 0.34608 0.22392 0.0
C7 C 0.54041 0.19515 0.17561 0.0
C8 C 0.57521 0.38026 0.18876 0.0
C9 C 0.63892 0.32997 0.11429 0.0
O10 O 0.59132 0.30893 0.12264 0.0
O11 O 0.67519 0.34368 0.13367 0.0
O12 O 0.50616 0.20489 0.16379 0.0
O13 O 0.58512 0.23442 0.18244 0.0
O14 O 0.23092 0.60641 0.51507 0.0
Cd15 Cd 0.31066 0.64433 0.51051 0.0
Cd16 Cd 0.28575 0.54802 0.49554 0.0
O17 O 0.21551 0.52543 0.51835 0.0
O18 O 0.33675 0.70413 0.53943 0.0
O19 O 0.34868 0.63653 0.54538 0.0
C20 C 0.35219 0.67852 0.5561 0.0
C21 C 0.34945 0.5244 0.50498 0.0
C22 C 0.19957 0.55829 0.52036 0.0
C23 C 0.31514 0.62913 0.44649 0.0
O24 O 0.28985 0.58119 0.45417 0.0
O25 O 0.33673 0.66451 0.46632 0.0
O26 O 0.30748 0.49343 0.49037 0.0
O27 O 0.35353 0.5668 0.51541 0.0
O28 O 0.63281 0.23003 0.84751 0.0
Cd29 Cd 0.67189 0.30956 0.84417 0.0
Cd30 Cd 0.74937 0.29161 0.83033 0.0
O31 O 0.70049 0.21756 0.84936 0.0
O32 O 0.6362 0.33272 0.87361 0.0
O33 O 0.71694 0.34738 0.87906 0.0
C34 C 0.67734 0.34891 0.89014 0.0
C35 C 0.8368 0.35209 0.84187 0.0
C36 C 0.65122 0.19976 0.8514 0.0
C37 C 0.70005 0.32371 0.78068 0.0
O38 O 0.72682 0.3027 0.78844 0.0
O39 O 0.67802 0.33716 0.80058 0.0
O40 O 0.82533 0.31172 0.82561 0.0
O41 O 0.79867 0.35591 0.85323 0.0
O42 O 0.40728 0.62629 0.18128 0.0
Cd43 Cd 0.36827 0.66655 0.17733 0.0
Cd44 Cd 0.4651 0.74374 0.16491 0.0
O45 O 0.48688 0.69378 0.18612 0.0
O46 O 0.30738 0.63126 0.20601 0.0
O47 O 0.37495 0.71054 0.2126 0.0
C48 C 0.33257 0.67154 0.22304 0.0
C49 C 0.48795 0.82991 0.17713 0.0
C50 C 0.45535 0.64449 0.18711 0.0
C51 C 0.3883 0.69665 0.11383 0.0
O52 O 0.43579 0.72184 0.12223 0.0
O53 O 0.35144 0.67578 0.13324 0.0
O54 O 0.5211 0.82033 0.16365 0.0
O55 O 0.44378 0.79054 0.18516 0.0
O56 O 0.78529 0.39805 0.51496 0.0
Cd57 Cd 0.70564 0.36132 0.51123 0.0
Cd58 Cd 0.73137 0.45873 0.49652 0.0
O59 O 0.80082 0.47894 0.51929 0.0
O60 O 0.67683 0.30215 0.5414 0.0
O61 O 0.67046 0.37317 0.54597 0.0
C62 C 0.66429 0.33047 0.55761 0.0
C63 C 0.66916 0.48464 0.50567 0.0
C64 C 0.81663 0.44586 0.52065 0.0
C65 C 0.7018 0.37897 0.44741 0.0
O66 O 0.72761 0.42661 0.45516 0.0
O67 O 0.67935 0.34298 0.46719 0.0
O68 O 0.71194 0.51517 0.49119 0.0
O69 O 0.66336 0.44135 0.51606 0.0
O70 O 0.4037 0.78373 0.84581 0.0
Cd71 Cd 0.36105 0.70402 0.84334 0.0
Cd72 Cd 0.28751 0.72772 0.82964 0.0
O73 O 0.33758 0.79816 0.8511 0.0
O74 O 0.39127 0.67596 0.87387 0.0
O75 O 0.31417 0.6707 0.87851 0.0
C76 C 0.35049 0.66438 0.89021 0.0
C77 C 0.19907 0.66718 0.84018 0.0
C78 C 0.38671 0.81467 0.85158 0.0
C79 C 0.33617 0.69643 0.78 0.0
O80 O 0.31407 0.72205 0.78786 0.0
O81 O 0.35131 0.67555 0.79975 0.0
O82 O 0.21178 0.70949 0.82516 0.0
O83 O 0.23633 0.66089 0.85034 0.0
H84 H 0.45129 0.10222 0.16308 0.0
H85 H 0.60855 0.16569 0.19673 0.0
H86 H 0.43952 0.01424 0.16592 0.0
H87 H 0.59667 0.07812 0.19966 0.0
H88 H 0.57618 0.92249 0.16219 0.0
H89 H 0.5879 0.01037 0.16407 0.0
H90 H 0.4331 0.94741 0.20231 0.0
H91 H 0.42126 0.85975 0.20036 0.0
C92 C 0.4831 0.0974 0.17137 0.0
C93 C 0.53085 0.14108 0.1796 0.0
C94 C 0.47635 0.04697 0.17309 0.0
C95 C 0.51731 0.03915 0.18285 0.0
C96 C 0.56461 0.08278 0.19164 0.0
C97 C 0.57122 0.13301 0.19014 0.0
C98 C 0.54492 0.92747 0.17133 0.0
C99 C 0.49781 0.884 0.18108 0.0
C100 C 0.55163 0.97786 0.17246 0.0
C101 C 0.51126 0.98592 0.18317 0.0
C102 C 0.46466 0.94254 0.19355 0.0
C103 C 0.4581 0.8923 0.19263 0.0
H104 H 0.37656 0.46947 0.4669 0.0
H105 H 0.42371 0.55899 0.54866 0.0
H106 H 0.45651 0.46334 0.46813 0.0
H107 H 0.50258 0.55115 0.55033 0.0
H108 H 0.59493 0.45197 0.54977 0.0
H109 H 0.51677 0.46104 0.55108 0.0
H110 H 0.5647 0.54804 0.46777 0.0
H111 H 0.64401 0.54068 0.4669 0.0
C112 C 0.40342 0.48688 0.48542 0.0
C113 C 0.39381 0.51453 0.50775 0.0
C114 C 0.44928 0.48378 0.48595 0.0
C115 C 0.48565 0.50711 0.50921 0.0
C116 C 0.47513 0.53298 0.53215 0.0
C117 C 0.43 0.53728 0.53121 0.0
C118 C 0.58927 0.47386 0.53202 0.0
C119 C 0.62572 0.49592 0.50832 0.0
C120 C 0.54454 0.47887 0.53276 0.0
C121 C 0.53469 0.50479 0.5094 0.0
C122 C 0.57144 0.52762 0.48595 0.0
C123 C 0.61693 0.52381 0.4856 0.0
H124 H 0.87748 0.42523 0.88622 0.0
H125 H 0.91884 0.37858 0.80356 0.0
H126 H 0.96489 0.50324 0.88774 0.0
H127 H 1.00542 0.45749 0.80466 0.0
H128 H 0.11706 0.64327 0.80267 0.0
H129 H 0.02961 0.56524 0.80464 0.0
H130 H 0.06936 0.51688 0.88725 0.0
H131 H 0.1574 0.59381 0.88485 0.0
C132 C 0.90538 0.43137 0.86856 0.0
C133 C 0.89142 0.3956 0.84486 0.0
C134 C 0.95521 0.47601 0.86942 0.0
C135 C 0.99145 0.48643 0.84616 0.0
C136 C 0.97791 0.45038 0.82273 0.0
C137 C 0.9286 0.40506 0.82227 0.0
C138 C 0.10686 0.61643 0.82148 0.0
C139 C 0.14399 0.62469 0.84364 0.0
C140 C 0.05707 0.57166 0.82246 0.0
C141 C 0.04309 0.53512 0.84601 0.0
C142 C 0.07931 0.54453 0.86888 0.0
C143 C 0.12953 0.58854 0.8675 0.0
H144 H 0.1527 0.61686 0.51423 0.0
H145 H 0.1201 0.46225 0.54008 0.0
H146 H 0.06116 0.58979 0.51905 0.0
H147 H 0.02771 0.43547 0.54662 0.0
H148 H 0.86384 0.38807 0.51247 0.0
H149 H 0.95522 0.41472 0.51724 0.0
H150 H 0.98753 0.5663 0.54838 0.0
H151 H 0.89537 0.54008 0.54192 0.0
C152 C 0.12606 0.57715 0.52156 0.0
C153 C 0.14385 0.54154 0.52649 0.0
C154 C 0.07323 0.56171 0.52464 0.0
C155 C 0.03646 0.5103 0.53318 0.0
C156 C 0.05457 0.47514 0.53939 0.0
C157 C 0.10763 0.49048 0.53584 0.0
C158 C 0.8902 0.42706 0.52058 0.0
C159 C 0.87219 0.46214 0.52656 0.0
C160 C 0.94292 0.44224 0.52361 0.0
C161 C 0.97934 0.4928 0.53316 0.0
C162 C 0.96097 0.52733 0.54036 0.0
C163 C 0.90804 0.51231 0.53685 0.0
H164 H 0.37025 0.89235 0.8736 0.0
H165 H 0.49153 0.86352 0.84111 0.0
H166 H 0.43513 0.98479 0.87928 0.0
H167 H 0.55528 0.95532 0.84519 0.0
H168 H 0.67082 0.12124 0.86875 0.0
H169 H 0.60701 0.02815 0.87452 0.0
H170 H 0.48307 0.05832 0.84932 0.0
H171 H 0.54569 0.15034 0.84515 0.0
C172 C 0.41065 0.90569 0.86766 0.0
C173 C 0.4255 0.8705 0.85678 0.0
C174 C 0.44794 0.95878 0.87074 0.0
C175 C 0.50076 0.97801 0.8625 0.0
C176 C 0.51549 0.94231 0.85231 0.0
C177 C 0.47854 0.88939 0.84969 0.0
C178 C 0.62985 0.10785 0.86479 0.0
C179 C 0.61357 0.14334 0.85643 0.0
C180 C 0.59317 0.05442 0.86793 0.0
C181 C 0.53953 0.03526 0.86232 0.0
C182 C 0.52354 0.07121 0.85449 0.0
C183 C 0.55986 0.12433 0.85179 0.0
H184 H 0.55187 0.66355 0.20719 0.0
H185 H 0.3996 0.53918 0.18053 0.0
H186 H 0.58069 0.59966 0.21422 0.0
H187 H 0.42867 0.47654 0.18597 0.0
H188 H 0.4801 0.36314 0.21039 0.0
H189 H 0.4523 0.42781 0.21649 0.0
H190 H 0.60419 0.54911 0.18529 0.0
H191 H 0.6324 0.48558 0.18081 0.0
C192 C 0.5246 0.62273 0.20287 0.0
C193 C 0.47357 0.60672 0.19318 0.0
C194 C 0.5411 0.58601 0.20673 0.0
C195 C 0.50713 0.5326 0.20058 0.0
C196 C 0.4558 0.51682 0.19157 0.0
C197 C 0.43923 0.55318 0.18813 0.0
C198 C 0.50763 0.40375 0.20526 0.0
C199 C 0.55828 0.41893 0.19491 0.0
C200 C 0.49169 0.44092 0.20856 0.0
C201 C 0.52578 0.49397 0.20111 0.0
C202 C 0.57693 0.50909 0.19174 0.0
C203 C 0.593 0.47224 0.18888 0.0
H204 H 0.59241 0.32851 0.92428 0.0
H205 H 0.75977 0.3936 0.92906 0.0
H206 H 0.5875 0.3299 0.97853 0.0
H207 H 0.75548 0.3977 0.98366 0.0
H208 H 0.71664 0.32893 0.08041 0.0
H209 H 0.72956 0.34232 0.02599 0.0
H210 H 0.60326 0.37656 0.02208 0.0
H211 H 0.58862 0.35983 0.07559 0.0
C212 C 0.62846 0.34477 0.9369 0.0
C213 C 0.67641 0.36081 0.92233 0.0
C214 C 0.62576 0.3457 0.9682 0.0
C215 C 0.6711 0.36362 0.98581 0.0
C216 C 0.71957 0.38255 0.97102 0.0
C217 C 0.72214 0.38086 0.93966 0.0
C218 C 0.69194 0.33946 0.06775 0.0
C219 C 0.65105 0.34235 0.08204 0.0
C220 C 0.69947 0.34757 0.03659 0.0
C221 C 0.66695 0.35987 0.01931 0.0
C222 C 0.62801 0.3655 0.03422 0.0
C223 C 0.61976 0.35619 0.06502 0.0
H224 H 0.36906 0.75326 0.26213 0.0
H225 H 0.26738 0.5862 0.25688 0.0
H226 H 0.36071 0.74825 0.31674 0.0
H227 H 0.26103 0.58056 0.31119 0.0
H228 H 0.23398 0.58003 0.40872 0.0
H229 H 0.23067 0.59564 0.35547 0.0
H230 H 0.39129 0.7219 0.3582 0.0
H231 H 0.393 0.70794 0.4124 0.0
C232 C 0.34422 0.71554 0.27263 0.0
C233 C 0.31881 0.6701 0.25517 0.0
C234 C 0.34 0.71256 0.304 0.0
C235 C 0.31078 0.66396 0.31867 0.0
C236 C 0.28331 0.6189 0.30095 0.0
C237 C 0.28693 0.62202 0.26962 0.0
C238 C 0.2685 0.61142 0.39795 0.0
C239 C 0.31404 0.64235 0.41455 0.0
C240 C 0.26673 0.62022 0.36731 0.0
C241 C 0.31098 0.65938 0.35213 0.0
C242 C 0.35617 0.69164 0.36903 0.0
C243 C 0.35746 0.68354 0.40006 0.0
H244 H 0.62761 0.34338 0.75361 0.0
H245 H 0.7519 0.31073 0.73403 0.0
H246 H 0.60745 0.33801 0.6999 0.0
H247 H 0.73233 0.30604 0.68096 0.0
H248 H 0.66248 0.25221 0.59175 0.0
H249 H 0.66449 0.24854 0.64644 0.0
H250 H 0.64421 0.38321 0.65183 0.0
H251 H 0.64085 0.38611 0.59725 0.0
C252 C 0.65102 0.33577 0.73789 0.0
C253 C 0.69121 0.32727 0.74818 0.0
C254 C 0.63933 0.33244 0.70715 0.0
C255 C 0.66753 0.32043 0.68619 0.0
C256 C 0.70873 0.31373 0.69652 0.0
C257 C 0.72037 0.31706 0.72701 0.0
C258 C 0.65694 0.2801 0.60459 0.0
C259 C 0.65223 0.31984 0.59009 0.0
C260 C 0.65869 0.2784 0.63595 0.0
C261 C 0.65587 0.31645 0.65348 0.0
C262 C 0.64663 0.35341 0.63905 0.0
C263 C 0.64478 0.35506 0.60769 0.0
H264 H 0.42587 0.66088 0.92428 0.0
H265 H 0.27181 0.64363 0.93006 0.0
H266 H 0.43084 0.66224 0.97897 0.0
H267 H 0.27743 0.64654 0.98459 0.0
H268 H 0.29627 0.62753 0.08589 0.0
H269 H 0.28295 0.60868 0.0321 0.0
H270 H 0.44293 0.72854 0.01452 0.0
H271 H 0.45641 0.74658 0.06777 0.0
C272 C 0.39263 0.65628 0.93718 0.0
C273 C 0.34876 0.65279 0.92277 0.0
C274 C 0.39569 0.65767 0.96855 0.0
C275 C 0.35505 0.6558 0.98618 0.0
C276 C 0.30946 0.64812 0.97178 0.0
C277 C 0.30633 0.64655 0.94043 0.0
C278 C 0.32837 0.65009 0.07046 0.0
C279 C 0.37743 0.68845 0.08119 0.0
C280 C 0.32082 0.63917 0.03965 0.0
C281 C 0.36218 0.66641 0.01901 0.0
C282 C 0.41065 0.70569 0.02979 0.0
C283 C 0.41818 0.71648 0.0604 0.0
H284 H 0.78476 0.4276 0.41018 0.0
H285 H 0.62398 0.30294 0.41279 0.0
H286 H 0.78969 0.41404 0.3569 0.0
H287 H 0.62745 0.29112 0.35855 0.0
H288 H 0.65216 0.26266 0.26258 0.0
H289 H 0.65844 0.26511 0.31721 0.0
H290 H 0.76216 0.43244 0.31252 0.0
H291 H 0.75776 0.42927 0.25814 0.0
C292 C 0.75023 0.39736 0.39917 0.0
C293 C 0.70373 0.36676 0.41547 0.0
C294 C 0.75294 0.38976 0.36851 0.0
C295 C 0.70875 0.35218 0.35302 0.0
C296 C 0.66253 0.32017 0.36963 0.0
C297 C 0.66025 0.32705 0.40068 0.0
C298 C 0.67742 0.29972 0.27328 0.0
C299 C 0.70453 0.34581 0.25605 0.0
C300 C 0.68046 0.30125 0.30466 0.0
C301 C 0.71019 0.34902 0.31956 0.0
C302 C 0.73938 0.39467 0.30208 0.0
C303 C 0.73693 0.39299 0.27073 0.0
H304 H 0.33394 0.61752 0.74617 0.0
H305 H 0.36784 0.77728 0.74149 0.0
H306 H 0.34705 0.61856 0.6917 0.0
H307 H 0.38427 0.77988 0.68797 0.0
H308 H 0.33406 0.74398 0.59031 0.0
H309 H 0.3366 0.74997 0.64458 0.0
H310 H 0.40227 0.64802 0.6492 0.0
H311 H 0.39708 0.64005 0.59464 0.0
C312 C 0.34512 0.65305 0.73353 0.0
C313 C 0.34889 0.69692 0.74784 0.0
C314 C 0.35305 0.65395 0.70236 0.0
C315 C 0.36602 0.69917 0.68512 0.0
C316 C 0.37267 0.74381 0.70008 0.0
C317 C 0.36354 0.74245 0.73088 0.0
C318 C 0.35017 0.72379 0.60282 0.0
C319 C 0.36523 0.69148 0.58814 0.0
C320 C 0.35173 0.72721 0.63412 0.0
C321 C 0.3693 0.69912 0.6516 0.0
C322 C 0.38738 0.66927 0.63668 0.0
C323 C 0.38508 0.66526 0.60532 0.0
loop_
_geom_bond_atom_site_label_1
_geom_bond_atom_site_label_2
_geom_bond_distance
_geom_bond_site_symmetry_2
_ccdc_geom_bond_type
O0 Cd1 2.223 . S
O0 C8 1.315 . S
Cd1 O0 2.223 . S
Cd1 O4 2.297 . S
Cd1 O5 2.439 . S
Cd1 O11 2.240 . S
Cd2 O3 2.240 . S
Cd2 O10 2.223 . S
Cd2 O12 2.297 . S
Cd2 O13 2.439 . S
O3 Cd2 2.240 . S
O3 C8 1.279 . S
O4 Cd1 2.297 . S
O4 C6 1.247 . S
O5 Cd1 2.439 . S
O5 C6 1.208 . S
C6 O4 1.247 . S
C6 O5 1.208 . S
C7 O12 1.247 . S
C7 O13 1.208 . S
C8 O0 1.315 . S
C8 O3 1.279 . S
C9 O10 1.315 . S
C9 O11 1.279 . S
O10 Cd2 2.223 . S
O10 C9 1.315 . S
O11 Cd1 2.240 . S
O11 C9 1.279 . S
O12 Cd2 2.297 . S
O12 C7 1.247 . S
O13 Cd2 2.439 . S
O13 C7 1.208 . S
O14 Cd15 2.223 . S
O14 C22 1.315 . S
Cd15 O14 2.223 . S
Cd15 O18 2.297 . S
Cd15 O19 2.439 . S
Cd15 O25 2.240 . S
Cd16 O17 2.240 . S
Cd16 O24 2.223 . S
Cd16 O26 2.297 . S
Cd16 O27 2.439 . S
O17 Cd16 2.240 . S
O17 C22 1.279 . S
O18 Cd15 2.297 . S
O18 C20 1.247 . S
O19 Cd15 2.439 . S
O19 C20 1.208 . S
C20 O18 1.247 . S
C20 O19 1.208 . S
C21 O26 1.247 . S
C21 O27 1.208 . S
C22 O14 1.315 . S
C22 O17 1.279 . S
C23 O24 1.315 . S
C23 O25 1.279 . S
O24 Cd16 2.223 . S
O24 C23 1.315 . S
O25 Cd15 2.240 . S
O25 C23 1.279 . S
O26 Cd16 2.297 . S
O26 C21 1.247 . S
O27 Cd16 2.439 . S
O27 C21 1.208 . S
O28 Cd29 2.223 . S
O28 C36 1.315 . S
Cd29 O28 2.223 . S
Cd29 O32 2.297 . S
Cd29 O33 2.439 . S
Cd29 O39 2.240 . S
Cd30 O31 2.240 . S
Cd30 O38 2.223 . S
Cd30 O40 2.297 . S
Cd30 O41 2.439 . S
O31 Cd30 2.240 . S
O31 C36 1.279 . S
O32 Cd29 2.297 . S
O32 C34 1.247 . S
O33 Cd29 2.439 . S
O33 C34 1.208 . S
C34 O32 1.247 . S
C34 O33 1.208 . S
C35 O40 1.247 . S
C35 O41 1.208 . S
C36 O28 1.315 . S
C36 O31 1.279 . S
C37 O38 1.315 . S
C37 O39 1.279 . S
O38 Cd30 2.223 . S
O38 C37 1.315 . S
O39 Cd29 2.240 . S
O39 C37 1.279 . S
O40 Cd30 2.297 . S
O40 C35 1.247 . S
O41 Cd30 2.439 . S
O41 C35 1.208 . S
O42 Cd43 2.223 . S
O42 C50 1.315 . S
Cd43 O42 2.223 . S
Cd43 O46 2.297 . S
Cd43 O47 2.439 . S
Cd43 O53 2.240 . S
Cd44 O45 2.240 . S
Cd44 O52 2.223 . S
Cd44 O54 2.297 . S
Cd44 O55 2.439 . S
O45 Cd44 2.240 . S
O45 C50 1.279 . S
O46 Cd43 2.297 . S
O46 C48 1.247 . S
O47 Cd43 2.439 . S
O47 C48 1.208 . S
C48 O46 1.247 . S
C48 O47 1.208 . S
C49 O54 1.247 . S
C49 O55 1.208 . S
C50 O42 1.315 . S
C50 O45 1.279 . S
C51 O52 1.315 . S
C51 O53 1.279 . S
O52 Cd44 2.223 . S
O52 C51 1.315 . S
O53 Cd43 2.240 . S
O53 C51 1.279 . S
O54 Cd44 2.297 . S
O54 C49 1.247 . S
O55 Cd44 2.439 . S
O55 C49 1.208 . S
O56 Cd57 2.223 . S
O56 C64 1.315 . S
Cd57 O56 2.223 . S
Cd57 O60 2.297 . S
Cd57 O61 2.439 . S
Cd57 O67 2.240 . S
Cd58 O59 2.240 . S
Cd58 O66 2.223 . S
Cd58 O68 2.297 . S
Cd58 O69 2.439 . S
O59 Cd58 2.240 . S
O59 C64 1.279 . S
O60 Cd57 2.297 . S
O60 C62 1.247 . S
O61 Cd57 2.439 . S
O61 C62 1.208 . S
C62 O60 1.247 . S
C62 O61 1.208 . S
C63 O68 1.247 . S
C63 O69 1.208 . S
C64 O56 1.315 . S
C64 O59 1.279 . S
C65 O66 1.315 . S
C65 O67 1.279 . S
O66 Cd58 2.223 . S
O66 C65 1.315 . S
O67 Cd57 2.240 . S
O67 C65 1.279 . S
O68 Cd58 2.297 . S
O68 C63 1.247 . S
O69 Cd58 2.439 . S
O69 C63 1.208 . S
O70 Cd71 2.223 . S
O70 C78 1.315 . S
Cd71 O70 2.223 . S
Cd71 O74 2.297 . S
Cd71 O75 2.439 . S
Cd71 O81 2.240 . S
Cd72 O73 2.240 . S
Cd72 O80 2.223 . S
Cd72 O82 2.297 . S
Cd72 O83 2.439 . S
O73 Cd72 2.240 . S
O73 C78 1.279 . S
O74 Cd71 2.297 . S
O74 C76 1.247 . S
O75 Cd71 2.439 . S
O75 C76 1.208 . S
C76 O74 1.247 . S
C76 O75 1.208 . S
C77 O82 1.247 . S
C77 O83 1.208 . S
C78 O70 1.315 . S
C78 O73 1.279 . S
C79 O80 1.315 . S
C79 O81 1.279 . S
O80 Cd72 2.223 . S
O80 C79 1.315 . S
O81 Cd71 2.240 . S
O81 C79 1.279 . S
O82 Cd72 2.297 . S
O82 C77 1.247 . S
O83 Cd72 2.439 . S
O83 C77 1.208 . S
H84 C92 0.950 . S
H85 C97 0.950 . S
H86 C94 0.950 . S
H87 C96 0.950 . S
H88 C98 0.950 . S
H89 C100 0.950 . S
H90 C102 0.950 . S
H91 C103 0.950 . S
C92 H84 0.950 . S
C92 C93 1.386 . S
C92 C94 1.391 . S
C93 C92 1.386 . S
C93 C97 1.393 . S
C94 H86 0.950 . S
C94 C92 1.391 . S
C94 C95 1.400 . S
C95 C94 1.400 . S
C95 C96 1.398 . S
C95 C101 1.491 1_545 S
C96 H87 0.950 . S
C96 C95 1.398 . S
C96 C97 1.391 . S
C97 H85 0.950 . S
C97 C93 1.393 . S
C97 C96 1.391 . S
C98 H88 0.950 . S
C98 C99 1.386 . S
C98 C100 1.391 . S
C99 C98 1.386 . S
C99 C103 1.393 . S
C100 H89 0.950 . S
C100 C98 1.391 . S
C100 C101 1.400 . S
C101 C95 1.491 1_565 S
C101 C100 1.400 . S
C101 C102 1.398 . S
C102 H90 0.950 . S
C102 C101 1.398 . S
C102 C103 1.391 . S
C103 H91 0.950 . S
C103 C99 1.393 . S
C103 C102 1.391 . S
H104 C112 0.950 . S
H105 C117 0.950 . S
H106 C114 0.950 . S
H107 C116 0.950 . S
H108 C118 0.950 . S
H109 C120 0.950 . S
H110 C122 0.950 . S
H111 C123 0.950 . S
C112 H104 0.950 . S
C112 C113 1.386 . S
C112 C114 1.391 . S
C113 C112 1.386 . S
C113 C117 1.393 . S
C114 H106 0.950 . S
C114 C112 1.391 . S
C114 C115 1.400 . S
C115 C114 1.400 . S
C115 C116 1.398 . S
C115 C121 1.491 . S
C116 H107 0.950 . S
C116 C115 1.398 . S
C116 C117 1.391 . S
C117 H105 0.950 . S
C117 C113 1.393 . S
C117 C116 1.391 . S
C118 H108 0.950 . S
C118 C119 1.386 . S
C118 C120 1.391 . S
C119 C118 1.386 . S
C119 C123 1.393 . S
C120 H109 0.950 . S
C120 C118 1.391 . S
C120 C121 1.400 . S
C121 C115 1.491 . S
C121 C120 1.400 . S
C121 C122 1.398 . S
C122 H110 0.950 . S
C122 C121 1.398 . S
C122 C123 1.391 . S
C123 H111 0.950 . S
C123 C119 1.393 . S
C123 C122 1.391 . S
H124 C132 0.950 . S
H125 C137 0.950 . S
H126 C134 0.950 . S
H127 C136 0.950 . S
H128 C138 0.950 . S
H129 C140 0.950 . S
H130 C142 0.950 . S
H131 C143 0.950 . S
C132 H124 0.950 . S
C132 C133 1.386 . S
C132 C134 1.391 . S
C133 C132 1.386 . S
C133 C137 1.393 . S
C134 H126 0.950 . S
C134 C132 1.391 . S
C134 C135 1.400 . S
C135 C134 1.400 . S
C135 C136 1.398 . S
C135 C141 1.491 1_655 S
C136 H127 0.950 . S
C136 C135 1.398 . S
C136 C137 1.391 . S
C137 H125 0.950 . S
C137 C133 1.393 . S
C137 C136 1.391 . S
C138 H128 0.950 . S
C138 C139 1.386 . S
C138 C140 1.391 . S
C139 C138 1.386 . S
C139 C143 1.393 . S
C140 H129 0.950 . S
C140 C138 1.391 . S
C140 C141 1.400 . S
C141 C135 1.491 1_455 S
C141 C140 1.400 . S
C141 C142 1.398 . S
C142 H130 0.950 . S
C142 C141 1.398 . S
C142 C143 1.391 . S
C143 H131 0.950 . S
C143 C139 1.393 . S
C143 C142 1.391 . S
H144 C152 0.950 . S
H145 C157 0.950 . S
H146 C154 0.950 . S
H147 C156 0.950 . S
H148 C158 0.950 . S
H149 C160 0.950 . S
H150 C162 0.950 . S
H151 C163 0.950 . S
C152 H144 0.950 . S
C152 C153 1.386 . S
C152 C154 1.391 . S
C153 C152 1.386 . S
C153 C157 1.393 . S
C154 H146 0.950 . S
C154 C152 1.391 . S
C154 C155 1.400 . S
C155 C154 1.400 . S
C155 C156 1.398 . S
C155 C161 1.491 1_455 S
C156 H147 0.950 . S
C156 C155 1.398 . S
C156 C157 1.391 . S
C157 H145 0.950 . S
C157 C153 1.393 . S
C157 C156 1.391 . S
C158 H148 0.950 . S
C158 C159 1.386 . S
C158 C160 1.391 . S
C159 C158 1.386 . S
C159 C163 1.393 . S
C160 H149 0.950 . S
C160 C158 1.391 . S
C160 C161 1.400 . S
C161 C155 1.491 1_655 S
C161 C160 1.400 . S
C161 C162 1.398 . S
C162 H150 0.950 . S
C162 C161 1.398 . S
C162 C163 1.391 . S
C163 H151 0.950 . S
C163 C159 1.393 . S
C163 C162 1.391 . S
H164 C172 0.950 . S
H165 C177 0.950 . S
H166 C174 0.950 . S
H167 C176 0.950 . S
H168 C178 0.950 . S
H169 C180 0.950 . S
H170 C182 0.950 . S
H171 C183 0.950 . S
C172 H164 0.950 . S
C172 C173 1.386 . S
C172 C174 1.391 . S
C173 C172 1.386 . S
C173 C177 1.393 . S
C174 H166 0.950 . S
C174 C172 1.391 . S
C174 C175 1.400 . S
C175 C174 1.400 . S
C175 C176 1.398 . S
C175 C181 1.491 1_565 S
C176 H167 0.950 . S
C176 C175 1.398 . S
C176 C177 1.391 . S
C177 H165 0.950 . S
C177 C173 1.393 . S
C177 C176 1.391 . S
C178 H168 0.950 . S
C178 C179 1.386 . S
C178 C180 1.391 . S
C179 C178 1.386 . S
C179 C183 1.393 . S
C180 H169 0.950 . S
C180 C178 1.391 . S
C180 C181 1.400 . S
C181 C175 1.491 1_545 S
C181 C180 1.400 . S
C181 C182 1.398 . S
C182 H170 0.950 . S
C182 C181 1.398 . S
C182 C183 1.391 . S
C183 H171 0.950 . S
C183 C179 1.393 . S
C183 C182 1.391 . S
H184 C192 0.950 . S
H185 C197 0.950 . S
H186 C194 0.950 . S
H187 C196 0.950 . S
H188 C198 0.950 . S
H189 C200 0.950 . S
H190 C202 0.950 . S
H191 C203 0.950 . S
C192 H184 0.950 . S
C192 C193 1.386 . S
C192 C194 1.391 . S
C193 C192 1.386 . S
C193 C197 1.393 . S
C194 H186 0.950 . S
C194 C192 1.391 . S
C194 C195 1.400 . S
C195 C194 1.400 . S
C195 C196 1.398 . S
C195 C201 1.491 . S
C196 H187 0.950 . S
C196 C195 1.398 . S
C196 C197 1.391 . S
C197 H185 0.950 . S
C197 C193 1.393 . S
C197 C196 1.391 . S
C198 H188 0.950 . S
C198 C199 1.386 . S
C198 C200 1.391 . S
C199 C198 1.386 . S
C199 C203 1.393 . S
C200 H189 0.950 . S
C200 C198 1.391 . S
C200 C201 1.400 . S
C201 C195 1.491 . S
C201 C200 1.400 . S
C201 C202 1.398 . S
C202 H190 0.950 . S
C202 C201 1.398 . S
C202 C203 1.391 . S
C203 H191 0.950 . S
C203 C199 1.393 . S
C203 C202 1.391 . S
H204 C212 0.950 . S
H205 C217 0.950 . S
H206 C214 0.950 . S
H207 C216 0.950 . S
H208 C218 0.950 . S
H209 C220 0.950 . S
H210 C222 0.950 . S
H211 C223 0.950 . S
C212 H204 0.950 . S
C212 C213 1.386 . S
C212 C214 1.391 . S
C213 C212 1.386 . S
C213 C217 1.393 . S
C214 H206 0.950 . S
C214 C212 1.391 . S
C214 C215 1.400 . S
C215 C214 1.400 . S
C215 C216 1.398 . S
C215 C221 1.491 1_556 S
C216 H207 0.950 . S
C216 C215 1.398 . S
C216 C217 1.391 . S
C217 H205 0.950 . S
C217 C213 1.393 . S
C217 C216 1.391 . S
C218 H208 0.950 . S
C218 C219 1.386 . S
C218 C220 1.391 . S
C219 C218 1.386 . S
C219 C223 1.393 . S
C220 H209 0.950 . S
C220 C218 1.391 . S
C220 C221 1.400 . S
C221 C215 1.491 1_554 S
C221 C220 1.400 . S
C221 C222 1.398 . S
C222 H210 0.950 . S
C222 C221 1.398 . S
C222 C223 1.391 . S
C223 H211 0.950 . S
C223 C219 1.393 . S
C223 C222 1.391 . S
H224 C232 0.950 . S
H225 C237 0.950 . S
H226 C234 0.950 . S
H227 C236 0.950 . S
H228 C238 0.950 . S
H229 C240 0.950 . S
H230 C242 0.950 . S
H231 C243 0.950 . S
C232 H224 0.950 . S
C232 C233 1.386 . S
C232 C234 1.391 . S
C233 C232 1.386 . S
C233 C237 1.393 . S
C234 H226 0.950 . S
C234 C232 1.391 . S
C234 C235 1.400 . S
C235 C234 1.400 . S
C235 C236 1.398 . S
C235 C241 1.491 . S
C236 H227 0.950 . S
C236 C235 1.398 . S
C236 C237 1.391 . S
C237 H225 0.950 . S
C237 C233 1.393 . S
C237 C236 1.391 . S
C238 H228 0.950 . S
C238 C239 1.386 . S
C238 C240 1.391 . S
C239 C238 1.386 . S
C239 C243 1.393 . S
C240 H229 0.950 . S
C240 C238 1.391 . S
C240 C241 1.400 . S
C241 C235 1.491 . S
C241 C240 1.400 . S
C241 C242 1.398 . S
C242 H230 0.950 . S
C242 C241 1.398 . S
C242 C243 1.391 . S
C243 H231 0.950 . S
C243 C239 1.393 . S
C243 C242 1.391 . S
H244 C252 0.950 . S
H245 C257 0.950 . S
H246 C254 0.950 . S
H247 C256 0.950 . S
H248 C258 0.950 . S
H249 C260 0.950 . S
H250 C262 0.950 . S
H251 C263 0.950 . S
C252 H244 0.950 . S
C252 C253 1.386 . S
C252 C254 1.391 . S
C253 C252 1.386 . S
C253 C257 1.393 . S
C254 H246 0.950 . S
C254 C252 1.391 . S
C254 C255 1.400 . S
C255 C254 1.400 . S
C255 C256 1.398 . S
C255 C261 1.491 . S
C256 H247 0.950 . S
C256 C255 1.398 . S
C256 C257 1.391 . S
C257 H245 0.950 . S
C257 C253 1.393 . S
C257 C256 1.391 . S
C258 H248 0.950 . S
C258 C259 1.386 . S
C258 C260 1.391 . S
C259 C258 1.386 . S
C259 C263 1.393 . S
C260 H249 0.950 . S
C260 C258 1.391 . S
C260 C261 1.400 . S
C261 C255 1.491 . S
C261 C260 1.400 . S
C261 C262 1.398 . S
C262 H250 0.950 . S
C262 C261 1.398 . S
C262 C263 1.391 . S
C263 H251 0.950 . S
C263 C259 1.393 . S
C263 C262 1.391 . S
H264 C272 0.950 . S
H265 C277 0.950 . S
H266 C274 0.950 . S
H267 C276 0.950 . S
H268 C278 0.950 . S
H269 C280 0.950 . S
H270 C282 0.950 . S
H271 C283 0.950 . S
C272 H264 0.950 . S
C272 C273 1.386 . S
C272 C274 1.391 . S
C273 C272 1.386 . S
C273 C277 1.393 . S
C274 H266 0.950 . S
C274 C272 1.391 . S
C274 C275 1.400 . S
C275 C274 1.400 . S
C275 C276 1.398 . S
C275 C281 1.491 1_556 S
C276 H267 0.950 . S
C276 C275 1.398 . S
C276 C277 1.391 . S
C277 H265 0.950 . S
C277 C273 1.393 . S
C277 C276 1.391 . S
C278 H268 0.950 . S
C278 C279 1.386 . S
C278 C280 1.391 . S
C279 C278 1.386 . S
C279 C283 1.393 . S
C280 H269 0.950 . S
C280 C278 1.391 . S
C280 C281 1.400 . S
C281 C275 1.491 1_554 S
C281 C280 1.400 . S
C281 C282 1.398 . S
C282 H270 0.950 . S
C282 C281 1.398 . S
C282 C283 1.391 . S
C283 H271 0.950 . S
C283 C279 1.393 . S
C283 C282 1.391 . S
H284 C292 0.950 . S
H285 C297 0.950 . S
H286 C294 0.950 . S
H287 C296 0.950 . S
H288 C298 0.950 . S
H289 C300 0.950 . S
H290 C302 0.950 . S
H291 C303 0.950 . S
C292 H284 0.950 . S
C292 C293 1.386 . S
C292 C294 1.391 . S
C293 C292 1.386 . S
C293 C297 1.393 . S
C294 H286 0.950 . S
C294 C292 1.391 . S
C294 C295 1.400 . S
C295 C294 1.400 . S
C295 C296 1.398 . S
C295 C301 1.491 . S
C296 H287 0.950 . S
C296 C295 1.398 . S
C296 C297 1.391 . S
C297 H285 0.950 . S
C297 C293 1.393 . S
C297 C296 1.391 . S
C298 H288 0.950 . S
C298 C299 1.386 . S
C298 C300 1.391 . S
C299 C298 1.386 . S
C299 C303 1.393 . S
C300 H289 0.950 . S
C300 C298 1.391 . S
C300 C301 1.400 . S
C301 C295 1.491 . S
C301 C300 1.400 . S
C301 C302 1.398 . S
C302 H290 0.950 . S
C302 C301 1.398 . S
C302 C303 1.391 . S
C303 H291 0.950 . S
C303 C299 1.393 . S
C303 C302 1.391 . S
H304 C312 0.950 . S
H305 C317 0.950 . S
H306 C314 0.950 . S
H307 C316 0.950 . S
H308 C318 0.950 . S
H309 C320 0.950 . S
H310 C322 0.950 . S
H311 C323 0.950 . S
C312 H304 0.950 . S
C312 C313 1.386 . S
C312 C314 1.391 . S
C313 C312 1.386 . S
C313 C317 1.393 . S
C314 H306 0.950 . S
C314 C312 1.391 . S
C314 C315 1.400 . S
C315 C314 1.400 . S
C315 C316 1.398 . S
C315 C321 1.491 . S
C316 H307 0.950 . S
C316 C315 1.398 . S
C316 C317 1.391 . S
C317 H305 0.950 . S
C317 C313 1.393 . S
C317 C316 1.391 . S
C318 H308 0.950 . S
C318 C319 1.386 . S
C318 C320 1.391 . S
C319 C318 1.386 . S
C319 C323 1.393 . S
C320 H309 0.950 . S
C320 C318 1.391 . S
C320 C321 1.400 . S
C321 C315 1.491 . S
C321 C320 1.400 . S
C321 C322 1.398 . S
C322 H310 0.950 . S
C322 C321 1.398 . S
C322 C323 1.391 . S
C323 H311 0.950 . S
C323 C319 1.393 . S
C323 C322 1.391 . S
C93 C7 1.190 . S
C99 C49 1.196 . S
C113 C21 1.195 . S
C119 C63 1.196 . S
C133 C35 1.181 . S
C139 C77 1.184 . S
C153 C22 1.762 . S
C159 C64 1.758 . S
C173 C78 1.759 . S
C179 C36 1.760 . S
C193 C50 1.760 . S
C199 C8 1.770 . S
C213 C34 1.366 . S
C219 C9 1.294 . S
C233 C48 1.364 . S
C239 C23 1.264 . S
C253 C37 1.281 . S
C259 C62 1.365 . S
C273 C76 1.365 . S
C279 C51 1.267 . S
C293 C65 1.289 . S
C299 C6 1.365 . S
C313 C79 1.261 . S
C319 C20 1.364 . S
