# Generated by pormake.
# Topology gme, (4)-cn, num edge types: 1
# Building blocks:
#     Node 0, Type 0, BuildingBlock: ICAMEG_clean_sbu_1, # of connection points: 4
#     Node 1, Type 0, BuildingBlock: ICAMEG_clean_sbu_1, # of connection points: 4
#     Node 2, Type 0, BuildingBlock: ICAMEG_clean_sbu_1, # of connection points: 4
#     Node 3, Type 0, BuildingBlock: ICAMEG_clean_sbu_1, # of connection points: 4
#     Node 4, Type 0, BuildingBlock: ICAMEG_clean_sbu_1, # of connection points: 4
#     Node 5, Type 0, BuildingBlock: ICAMEG_clean_sbu_1, # of connection points: 4
#     Node 6, Type 0, BuildingBlock: ICAMEG_clean_sbu_1, # of connection points: 4
#     Node 7, Type 0, BuildingBlock: ICAMEG_clean_sbu_1, # of connection points: 4
#     Node 8, Type 0, BuildingBlock: ICAMEG_clean_sbu_1, # of connection points: 4
#     Node 9, Type 0, BuildingBlock: ICAMEG_clean_sbu_1, # of connection points: 4
#     Node 10, Type 0, BuildingBlock: ICAMEG_clean_sbu_1, # of connection points: 4
#     Node 11, Type 0, BuildingBlock: ICAMEG_clean_sbu_1, # of connection points: 4
#     Node 12, Type 0, BuildingBlock: ICAMEG_clean_sbu_1, # of connection points: 4
#     Node 13, Type 0, BuildingBlock: ICAMEG_clean_sbu_1, # of connection points: 4
#     Node 14, Type 0, BuildingBlock: ICAMEG_clean_sbu_1, # of connection points: 4
#     Node 15, Type 0, BuildingBlock: ICAMEG_clean_sbu_1, # of connection points: 4
#     Node 16, Type 0, BuildingBlock: ICAMEG_clean_sbu_1, # of connection points: 4
#     Node 17, Type 0, BuildingBlock: ICAMEG_clean_sbu_1, # of connection points: 4
#     Node 18, Type 0, BuildingBlock: ICAMEG_clean_sbu_1, # of connection points: 4
#     Node 19, Type 0, BuildingBlock: ICAMEG_clean_sbu_1, # of connection points: 4
#     Node 20, Type 0, BuildingBlock: ICAMEG_clean_sbu_1, # of connection points: 4
#     Node 21, Type 0, BuildingBlock: ICAMEG_clean_sbu_1, # of connection points: 4
#     Node 22, Type 0, BuildingBlock: ICAMEG_clean_sbu_1, # of connection points: 4
#     Node 23, Type 0, BuildingBlock: ICAMEG_clean_sbu_1, # of connection points: 4
#     Edge 24, Type (0, 0), BuildingBlock: XIVTED_clean_linker_0, # of connection points: 2
#     Edge 25, Type (0, 0), BuildingBlock: XIVTED_clean_linker_0, # of connection points: 2
#     Edge 26, Type (0, 0), BuildingBlock: XIVTED_clean_linker_0, # of connection points: 2
#     Edge 27, Type (0, 0), BuildingBlock: XIVTED_clean_linker_0, # of connection points: 2
#     Edge 28, Type (0, 0), BuildingBlock: XIVTED_clean_linker_0, # of connection points: 2
#     Edge 29, Type (0, 0), BuildingBlock: XIVTED_clean_linker_0, # of connection points: 2
#     Edge 30, Type (0, 0), BuildingBlock: XIVTED_clean_linker_0, # of connection points: 2
#     Edge 31, Type (0, 0), BuildingBlock: XIVTED_clean_linker_0, # of connection points: 2
#     Edge 32, Type (0, 0), BuildingBlock: XIVTED_clean_linker_0, # of connection points: 2
#     Edge 33, Type (0, 0), BuildingBlock: XIVTED_clean_linker_0, # of connection points: 2
#     Edge 34, Type (0, 0), BuildingBlock: XIVTED_clean_linker_0, # of connection points: 2
#     Edge 35, Type (0, 0), BuildingBlock: XIVTED_clean_linker_0, # of connection points: 2
#     Edge 36, Type (0, 0), BuildingBlock: XIVTED_clean_linker_0, # of connection points: 2
#     Edge 37, Type (0, 0), BuildingBlock: XIVTED_clean_linker_0, # of connection points: 2
#     Edge 38, Type (0, 0), BuildingBlock: XIVTED_clean_linker_0, # of connection points: 2
#     Edge 39, Type (0, 0), BuildingBlock: XIVTED_clean_linker_0, # of connection points: 2
#     Edge 40, Type (0, 0), BuildingBlock: XIVTED_clean_linker_0, # of connection points: 2
#     Edge 41, Type (0, 0), BuildingBlock: XIVTED_clean_linker_0, # of connection points: 2
#     Edge 42, Type (0, 0), BuildingBlock: XIVTED_clean_linker_0, # of connection points: 2
#     Edge 43, Type (0, 0), BuildingBlock: XIVTED_clean_linker_0, # of connection points: 2
#     Edge 44, Type (0, 0), BuildingBlock: XIVTED_clean_linker_0, # of connection points: 2
#     Edge 45, Type (0, 0), BuildingBlock: XIVTED_clean_linker_0, # of connection points: 2
#     Edge 46, Type (0, 0), BuildingBlock: XIVTED_clean_linker_0, # of connection points: 2
#     Edge 47, Type (0, 0), BuildingBlock: XIVTED_clean_linker_0, # of connection points: 2
#     Edge 48, Type (0, 0), BuildingBlock: XIVTED_clean_linker_0, # of connection points: 2
#     Edge 49, Type (0, 0), BuildingBlock: XIVTED_clean_linker_0, # of connection points: 2
#     Edge 50, Type (0, 0), BuildingBlock: XIVTED_clean_linker_0, # of connection points: 2
#     Edge 51, Type (0, 0), BuildingBlock: XIVTED_clean_linker_0, # of connection points: 2
#     Edge 52, Type (0, 0), BuildingBlock: XIVTED_clean_linker_0, # of connection points: 2
#     Edge 53, Type (0, 0), BuildingBlock: XIVTED_clean_linker_0, # of connection points: 2
#     Edge 54, Type (0, 0), BuildingBlock: XIVTED_clean_linker_0, # of connection points: 2
#     Edge 55, Type (0, 0), BuildingBlock: XIVTED_clean_linker_0, # of connection points: 2
#     Edge 56, Type (0, 0), BuildingBlock: XIVTED_clean_linker_0, # of connection points: 2
#     Edge 57, Type (0, 0), BuildingBlock: XIVTED_clean_linker_0, # of connection points: 2
#     Edge 58, Type (0, 0), BuildingBlock: XIVTED_clean_linker_0, # of connection points: 2
#     Edge 59, Type (0, 0), BuildingBlock: XIVTED_clean_linker_0, # of connection points: 2
#     Edge 60, Type (0, 0), BuildingBlock: XIVTED_clean_linker_0, # of connection points: 2
#     Edge 61, Type (0, 0), BuildingBlock: XIVTED_clean_linker_0, # of connection points: 2
#     Edge 62, Type (0, 0), BuildingBlock: XIVTED_clean_linker_0, # of connection points: 2
#     Edge 63, Type (0, 0), BuildingBlock: XIVTED_clean_linker_0, # of connection points: 2
#     Edge 64, Type (0, 0), BuildingBlock: XIVTED_clean_linker_0, # of connection points: 2
#     Edge 65, Type (0, 0), BuildingBlock: XIVTED_clean_linker_0, # of connection points: 2
#     Edge 66, Type (0, 0), BuildingBlock: XIVTED_clean_linker_0, # of connection points: 2
#     Edge 67, Type (0, 0), BuildingBlock: XIVTED_clean_linker_0, # of connection points: 2
#     Edge 68, Type (0, 0), BuildingBlock: XIVTED_clean_linker_0, # of connection points: 2
#     Edge 69, Type (0, 0), BuildingBlock: XIVTED_clean_linker_0, # of connection points: 2
#     Edge 70, Type (0, 0), BuildingBlock: XIVTED_clean_linker_0, # of connection points: 2
#     Edge 71, Type (0, 0), BuildingBlock: XIVTED_clean_linker_0, # of connection points: 2
# Relax obj value: 0.062
# Max RMSD: 0.065
# Mean RMSD: 0.065
data_MOF--net-gme--node1-ICAMEG_clean_sbu_1--edge1-XIVTED_clean_linker_0
_symmetry_space_group_name_H-M    P1
_symmetry_Int_Tables_number       1
_symmetry_cell_setting            triclinic
loop_
_symmetry_equiv_pos_as_xyz
'x, y, z'
_cell_length_a     59.109527
_cell_length_b     59.106634
_cell_length_c     60.620887
_cell_angle_alpha  89.997647
_cell_angle_beta   89.99917
_cell_angle_gamma 120.00478
loop_
_atom_site_label
_atom_site_type_symbol
_atom_site_fract_x
_atom_site_fract_y
_atom_site_fract_z
_atom_type_partial_charge
Co0 Co 0.42299 0.09529 0.12904 0.0
Co1 Co 0.38445 0.02826 0.12661 0.0
O2 O 0.39485 0.06344 0.11624 0.0
C3 C 0.37952 0.10714 0.13225 0.0
O4 O 0.36638 0.0868 0.14512 0.0
C5 C 0.39767 0.02918 0.07989 0.0
O6 O 0.4191 0.05107 0.08459 0.0
O7 O 0.42131 0.03578 0.12693 0.0
O8 O 0.44498 0.07886 0.1334 0.0
H9 H 0.38879 0.96135 0.17479 0.0
H10 H 0.40134 0.09764 0.08551 0.0
O11 O 0.40179 0.11271 0.12464 0.0
H12 H 0.49485 0.12959 0.07231 0.0
H13 H 0.48157 0.19279 0.13465 0.0
H14 H 0.45812 0.10751 0.16758 0.0
H15 H 0.47623 0.1165 0.10965 0.0
H16 H 0.4468 0.15192 0.11823 0.0
O17 O 0.38115 0.01653 0.09506 0.0
H18 H 0.40198 0.00592 0.16204 0.0
H19 H 0.34413 0.97509 0.11186 0.0
H20 H 0.49314 0.14789 0.18444 0.0
H21 H 0.41923 0.11084 0.04796 0.0
H22 H 0.50508 0.19091 0.16795 0.0
H23 H 0.46628 0.12683 0.04116 0.0
O24 O 0.40813 0.08374 0.159 0.0
H25 H 0.30602 0.02773 0.094 0.0
H26 H 0.34046 0.00422 0.15878 0.0
H27 H 0.29502 0.99539 0.15916 0.0
H28 H 0.27751 0.00712 0.12657 0.0
H29 H 0.35141 0.03639 0.09438 0.0
H30 H 0.33044 0.93017 0.12394 0.0
H31 H 0.35278 0.92311 0.15568 0.0
O32 O 0.38787 0.03979 0.15821 0.0
C33 C 0.44287 0.05645 0.13116 0.0
C34 C 0.37885 0.96418 0.16099 0.0
C35 C 0.34613 0.94668 0.13242 0.0
N36 N 0.37368 0.99307 0.13636 0.0
C37 C 0.38618 0.98936 0.15374 0.0
C38 C 0.35399 0.97214 0.12563 0.0
C39 C 0.35866 0.94273 0.15024 0.0
C40 C 0.4219 0.10489 0.08273 0.0
N41 N 0.43773 0.10641 0.09978 0.0
C42 C 0.43189 0.11221 0.06141 0.0
C43 C 0.45828 0.12114 0.0576 0.0
C44 C 0.47432 0.12267 0.07507 0.0
C45 C 0.46364 0.11516 0.09617 0.0
C46 C 0.4766 0.17415 0.14196 0.0
C47 C 0.46332 0.12616 0.16023 0.0
C48 C 0.4569 0.15095 0.13275 0.0
N49 N 0.45061 0.12734 0.14183 0.0
C50 C 0.48311 0.14895 0.16988 0.0
C51 C 0.48978 0.17309 0.16064 0.0
C52 C 0.39626 0.06146 0.16844 0.0
C53 C 0.31341 0.02246 0.10827 0.0
C54 C 0.333 0.00944 0.14456 0.0
C55 C 0.30724 0.00435 0.14485 0.0
C56 C 0.29743 0.01092 0.12656 0.0
N57 N 0.34852 0.02068 0.12652 0.0
C58 C 0.33906 0.02724 0.10855 0.0
Co59 Co 0.32794 0.42538 0.6283 0.0
Co60 Co 0.35595 0.3864 0.62512 0.0
O61 O 0.33107 0.39695 0.61535 0.0
C62 C 0.27294 0.38168 0.63252 0.0
O63 O 0.28091 0.3684 0.64438 0.0
C64 C 0.36728 0.39951 0.57826 0.0
O65 O 0.36677 0.42088 0.5831 0.0
O66 O 0.38543 0.42319 0.6252 0.0
O67 O 0.36653 0.44735 0.63157 0.0
H68 H 0.42799 0.39044 0.67198 0.0
H69 H 0.30225 0.40292 0.58546 0.0
O70 O 0.28917 0.4042 0.62502 0.0
H71 H 0.36345 0.49612 0.57054 0.0
H72 H 0.28954 0.4843 0.63503 0.0
H73 H 0.35247 0.46125 0.66616 0.0
H74 H 0.35927 0.47824 0.60802 0.0
H75 H 0.29484 0.44912 0.61845 0.0
O76 O 0.36374 0.38304 0.59339 0.0
H77 H 0.39651 0.40379 0.65994 0.0
H78 H 0.36824 0.34588 0.60978 0.0
H79 H 0.34793 0.49669 0.68317 0.0
H80 H 0.3056 0.42006 0.54777 0.0
H81 H 0.31628 0.50842 0.66758 0.0
H82 H 0.33646 0.46695 0.5401 0.0
O83 O 0.3257 0.41103 0.65835 0.0
H84 H 0.27718 0.30817 0.59328 0.0
H85 H 0.33644 0.34241 0.65726 0.0
H86 H 0.29968 0.29705 0.65793 0.0
H87 H 0.26978 0.27965 0.62575 0.0
H88 H 0.31407 0.35347 0.59338 0.0
H89 H 0.39957 0.33203 0.62115 0.0
H90 H 0.42965 0.35431 0.65252 0.0
O91 O 0.3485 0.38988 0.65688 0.0
C92 C 0.38664 0.44495 0.62914 0.0
C93 C 0.41493 0.38052 0.65834 0.0
C94 C 0.399 0.34777 0.62978 0.0
N95 N 0.38043 0.37548 0.63431 0.0
C96 C 0.39701 0.38795 0.65149 0.0
C97 C 0.38135 0.35572 0.62339 0.0
C98 C 0.41587 0.36027 0.64739 0.0
C99 C 0.3155 0.42341 0.58231 0.0
N100 N 0.33046 0.43957 0.59895 0.0
C101 C 0.3174 0.43298 0.56091 0.0
C102 C 0.33475 0.45928 0.55661 0.0
C103 C 0.34992 0.47565 0.57368 0.0
C104 C 0.34752 0.4654 0.59486 0.0
C105 C 0.30344 0.47941 0.64194 0.0
C106 C 0.33878 0.46636 0.6592 0.0
C107 C 0.3065 0.45948 0.63264 0.0
N108 N 0.32412 0.4533 0.64121 0.0
C109 C 0.33624 0.48639 0.66894 0.0
C110 C 0.31846 0.49294 0.6602 0.0
C111 C 0.33589 0.39878 0.66747 0.0
C112 C 0.29012 0.31551 0.60738 0.0
C113 C 0.32347 0.33499 0.64322 0.0
C114 C 0.30272 0.30928 0.64368 0.0
C115 C 0.28596 0.29952 0.62561 0.0
N116 N 0.32748 0.35052 0.62524 0.0
C117 C 0.31109 0.34111 0.60749 0.0
Co118 Co 0.9023 0.32786 0.12895 0.0
Co119 Co 0.96929 0.35574 0.1268 0.0
O120 O 0.93408 0.33119 0.11637 0.0
C121 C 0.89035 0.27256 0.13237 0.0
O122 O 0.9109 0.27989 0.145 0.0
C123 C 0.96872 0.36801 0.08002 0.0
O124 O 0.94687 0.36768 0.08457 0.0
O125 O 0.96213 0.38532 0.12695 0.0
O126 O 0.919 0.36637 0.13302 0.0
H127 H 0.03637 0.42679 0.17501 0.0
H128 H 0.89996 0.30339 0.08566 0.0
O129 O 0.88464 0.2892 0.12483 0.0
H130 H 0.86872 0.36534 0.07151 0.0
H131 H 0.80488 0.28969 0.13417 0.0
H132 H 0.89018 0.35139 0.16711 0.0
H133 H 0.88152 0.36001 0.10902 0.0
H134 H 0.84568 0.29529 0.11804 0.0
O135 O 0.9812 0.36405 0.09528 0.0
H136 H 0.99178 0.39568 0.16217 0.0
H137 H 0.02238 0.36805 0.11229 0.0
H138 H 0.84987 0.34653 0.18368 0.0
H139 H 0.88706 0.30788 0.04795 0.0
H140 H 0.80683 0.3155 0.16718 0.0
H141 H 0.87141 0.33912 0.04066 0.0
O142 O 0.91362 0.32469 0.15907 0.0
H143 H 0.96909 0.27734 0.09452 0.0
H144 H 0.99283 0.33549 0.15917 0.0
H145 H 0.00119 0.29857 0.15975 0.0
H146 H 0.98934 0.26923 0.12723 0.0
H147 H 0.9609 0.31437 0.0947 0.0
H148 H 0.06733 0.39901 0.12446 0.0
H149 H 0.07452 0.42858 0.1561 0.0
O150 O 0.95759 0.34778 0.15836 0.0
C151 C 0.94156 0.3865 0.13088 0.0
C152 C 0.03349 0.41395 0.16125 0.0
C153 C 0.05086 0.39838 0.13286 0.0
N154 N 0.00451 0.37994 0.13663 0.0
C155 C 0.00829 0.39624 0.15395 0.0
C156 C 0.02538 0.38094 0.12601 0.0
C157 C 0.05488 0.41496 0.15062 0.0
C158 C 0.89288 0.31679 0.08268 0.0
N159 N 0.89139 0.33133 0.09955 0.0
C160 C 0.88571 0.31934 0.06127 0.0
C161 C 0.87698 0.33691 0.05718 0.0
C162 C 0.87549 0.35165 0.07448 0.0
C163 C 0.88284 0.3486 0.09568 0.0
C164 C 0.82352 0.30332 0.14148 0.0
C165 C 0.87153 0.33797 0.15976 0.0
C166 C 0.84669 0.30654 0.13244 0.0
N167 N 0.8703 0.32383 0.14151 0.0
C168 C 0.84877 0.33525 0.16925 0.0
C169 C 0.82463 0.31781 0.16 0.0
C170 C 0.93585 0.33484 0.16857 0.0
C171 C 0.97441 0.29003 0.10876 0.0
C172 C 0.98756 0.32276 0.14498 0.0
C173 C 0.99239 0.30192 0.14539 0.0
C174 C 0.98575 0.28547 0.12713 0.0
N175 N 0.97653 0.32716 0.12686 0.0
C176 C 0.9699 0.31108 0.10893 0.0
Co177 Co 0.57717 0.90301 0.62845 0.0
Co178 Co 0.615 0.97011 0.62559 0.0
O179 O 0.60504 0.93494 0.61553 0.0
C180 C 0.62146 0.8925 0.63201 0.0
O181 O 0.63447 0.91344 0.64426 0.0
C182 C 0.60124 0.96832 0.57894 0.0
O183 O 0.58009 0.9463 0.58392 0.0
O184 O 0.57798 0.96207 0.62607 0.0
O185 O 0.55465 0.91893 0.63234 0.0
H186 H 0.60991 0.03697 0.67326 0.0
H187 H 0.59935 0.90065 0.5852 0.0
O188 O 0.59891 0.8861 0.62456 0.0
H189 H 0.50567 0.8671 0.57137 0.0
H190 H 0.51984 0.80541 0.63476 0.0
H191 H 0.54169 0.89068 0.66676 0.0
H192 H 0.52395 0.88076 0.60875 0.0
H193 H 0.55426 0.84636 0.61816 0.0
O194 O 0.61784 0.98139 0.59393 0.0
H195 H 0.59727 0.99241 0.6609 0.0
H196 H 0.65463 0.02332 0.61033 0.0
H197 H 0.507 0.85022 0.68378 0.0
H198 H 0.58181 0.88692 0.54761 0.0
H199 H 0.49587 0.8072 0.66776 0.0
H200 H 0.53468 0.87011 0.5405 0.0
O201 O 0.59178 0.91505 0.65841 0.0
H202 H 0.69381 0.9716 0.59277 0.0
H203 H 0.65922 0.99505 0.65747 0.0
H204 H 0.70489 0.00459 0.65767 0.0
H205 H 0.72248 0.99289 0.62513 0.0
H206 H 0.6482 0.96225 0.59333 0.0
H207 H 0.66776 0.06824 0.62202 0.0
H208 H 0.6454 0.07526 0.65376 0.0
O209 O 0.612 0.959 0.65728 0.0
C210 C 0.55651 0.94124 0.63015 0.0
C211 C 0.61986 0.03416 0.65946 0.0
C212 C 0.65231 0.05171 0.63068 0.0
N213 N 0.62535 0.00531 0.63504 0.0
C214 C 0.61284 0.00899 0.65243 0.0
C215 C 0.64476 0.02625 0.6241 0.0
C216 C 0.63976 0.05564 0.64849 0.0
C217 C 0.57876 0.89306 0.58228 0.0
N218 N 0.56268 0.8914 0.59918 0.0
C219 C 0.56896 0.88543 0.56095 0.0
C220 C 0.54252 0.87605 0.55696 0.0
C221 C 0.52624 0.87438 0.57427 0.0
C222 C 0.53672 0.88221 0.59539 0.0
C223 C 0.52446 0.82404 0.64186 0.0
C224 C 0.53684 0.87203 0.65961 0.0
C225 C 0.54396 0.84729 0.63255 0.0
N226 N 0.54981 0.87089 0.64137 0.0
C227 C 0.51723 0.84919 0.66936 0.0
C228 C 0.51102 0.82506 0.66037 0.0
C229 C 0.60365 0.93743 0.66768 0.0
C230 C 0.6864 0.97686 0.60702 0.0
C231 C 0.66671 0.98984 0.64327 0.0
C232 C 0.6926 0.99534 0.64347 0.0
C233 C 0.70246 0.98878 0.62519 0.0
N234 N 0.65111 0.97824 0.62535 0.0
C235 C 0.66061 0.97169 0.6074 0.0
Co236 Co 0.67203 0.5763 0.12719 0.0
Co237 Co 0.64304 0.61439 0.12434 0.0
O238 O 0.6682 0.60433 0.11428 0.0
C239 C 0.72695 0.62034 0.13089 0.0
O240 O 0.71906 0.63346 0.14305 0.0
C241 C 0.63137 0.60127 0.07752 0.0
O242 O 0.63216 0.58001 0.0822 0.0
O243 O 0.61392 0.57741 0.12452 0.0
O244 O 0.63357 0.55397 0.131 0.0
H245 H 0.57095 0.60923 0.17185 0.0
H246 H 0.69678 0.59851 0.084 0.0
O247 O 0.7107 0.59784 0.12338 0.0
H248 H 0.63616 0.50497 0.06996 0.0
H249 H 0.71165 0.5184 0.1334 0.0
H250 H 0.6486 0.54074 0.16542 0.0
H251 H 0.64081 0.52318 0.10737 0.0
H252 H 0.70549 0.55309 0.11688 0.0
O253 O 0.63486 0.61763 0.09272 0.0
H254 H 0.60277 0.59648 0.15945 0.0
H255 H 0.62985 0.65438 0.10931 0.0
H256 H 0.654 0.50579 0.18236 0.0
H257 H 0.69295 0.58104 0.04638 0.0
H258 H 0.68572 0.49442 0.16633 0.0
H259 H 0.66237 0.53398 0.03916 0.0
O260 O 0.67463 0.59086 0.15719 0.0
H261 H 0.72087 0.69328 0.09217 0.0
H262 H 0.66229 0.65833 0.15651 0.0
H263 H 0.6986 0.70391 0.15706 0.0
H264 H 0.72816 0.72168 0.1247 0.0
H265 H 0.68443 0.64774 0.09238 0.0
H266 H 0.59818 0.66763 0.12104 0.0
H267 H 0.56852 0.64505 0.15258 0.0
O268 O 0.65089 0.61105 0.156 0.0
C269 C 0.61318 0.5559 0.12865 0.0
C270 C 0.58382 0.61927 0.15813 0.0
C271 C 0.59908 0.65203 0.12959 0.0
N272 N 0.61827 0.62482 0.13381 0.0
C273 C 0.60193 0.61219 0.15108 0.0
C274 C 0.61693 0.64441 0.123 0.0
C275 C 0.58245 0.63935 0.1473 0.0
C276 C 0.68366 0.57794 0.08104 0.0
N277 N 0.66913 0.56187 0.09789 0.0
C278 C 0.68149 0.56819 0.05969 0.0
C279 C 0.66429 0.54179 0.05563 0.0
C280 C 0.64956 0.52551 0.07291 0.0
C281 C 0.65223 0.53595 0.09405 0.0
C282 C 0.69773 0.52314 0.1405 0.0
C283 C 0.66232 0.53579 0.15826 0.0
C284 C 0.69418 0.54278 0.13124 0.0
N285 N 0.67653 0.54876 0.14006 0.0
C286 C 0.66535 0.51603 0.16797 0.0
C287 C 0.68317 0.50968 0.15898 0.0
C288 C 0.66405 0.60268 0.16644 0.0
C289 C 0.70808 0.68578 0.10634 0.0
C290 C 0.67511 0.6659 0.14239 0.0
C291 C 0.6956 0.69174 0.14278 0.0
C292 C 0.71218 0.7017 0.12461 0.0
N293 N 0.67116 0.65044 0.12438 0.0
C294 C 0.68736 0.66004 0.10653 0.0
Co295 Co 0.09598 0.67157 0.62885 0.0
Co296 Co 0.029 0.64373 0.62628 0.0
O297 O 0.06431 0.6683 0.61607 0.0
C298 C 0.10801 0.72691 0.63245 0.0
O299 O 0.08749 0.71959 0.64513 0.0
C300 C 0.03016 0.63148 0.57959 0.0
O301 O 0.05192 0.63177 0.58447 0.0
O302 O 0.03615 0.61415 0.62667 0.0
O303 O 0.07926 0.63305 0.63281 0.0
H304 H 0.96142 0.57269 0.67419 0.0
H305 H 0.09867 0.69622 0.58557 0.0
O306 O 0.11365 0.71026 0.62483 0.0
H307 H 0.13009 0.63438 0.57162 0.0
H308 H 0.19335 0.70979 0.63469 0.0
H309 H 0.10777 0.64791 0.66709 0.0
H310 H 0.11697 0.63954 0.60905 0.0
H311 H 0.15268 0.70422 0.61829 0.0
O312 O 0.01745 0.63543 0.59466 0.0
H313 H 0.00615 0.60381 0.66164 0.0
H314 H 0.97607 0.63139 0.61128 0.0
H315 H 0.14794 0.65272 0.68392 0.0
H316 H 0.11189 0.69189 0.54793 0.0
H317 H 0.19113 0.68385 0.6677 0.0
H318 H 0.12762 0.6607 0.54075 0.0
O319 O 0.08437 0.67459 0.65887 0.0
H320 H 0.02948 0.7221 0.59359 0.0
H321 H 0.00513 0.66398 0.65831 0.0
H322 H 0.99673 0.70087 0.65862 0.0
H323 H 0.00889 0.7302 0.62606 0.0
H324 H 0.0377 0.68509 0.59404 0.0
H325 H 0.93099 0.60042 0.62316 0.0
H326 H 0.92347 0.57087 0.65489 0.0
O327 O 0.04039 0.6517 0.65792 0.0
C328 C 0.05669 0.61294 0.63066 0.0
C329 C 0.96445 0.58553 0.66039 0.0
C330 C 0.94737 0.60107 0.63173 0.0
N331 N 0.99369 0.61952 0.63588 0.0
C332 C 0.98972 0.60324 0.65326 0.0
C333 C 0.97292 0.61851 0.62505 0.0
C334 C 0.94316 0.5845 0.64954 0.0
C335 C 0.1058 0.68284 0.58263 0.0
N336 N 0.10716 0.66825 0.59952 0.0
C337 C 0.11314 0.68038 0.56126 0.0
C338 C 0.12192 0.66284 0.55723 0.0
C339 C 0.12328 0.64805 0.57454 0.0
C340 C 0.11576 0.65101 0.5957 0.0
C341 C 0.17465 0.69612 0.64188 0.0
C342 C 0.12648 0.66136 0.65985 0.0
C343 C 0.15156 0.69291 0.63268 0.0
N344 N 0.12787 0.67558 0.64161 0.0
C345 C 0.14917 0.66406 0.66949 0.0
C346 C 0.17339 0.68155 0.66039 0.0
C347 C 0.06207 0.66455 0.66824 0.0
C348 C 0.02402 0.70941 0.60784 0.0
C349 C 0.01053 0.6767 0.64411 0.0
C350 C 0.00568 0.69753 0.64436 0.0
C351 C 0.0125 0.71397 0.62608 0.0
N352 N 0.02176 0.67231 0.62612 0.0
C353 C 0.02855 0.68838 0.60817 0.0
Co354 Co 0.90242 0.57597 0.37302 0.0
Co355 Co 0.96952 0.61379 0.37617 0.0
O356 O 0.93428 0.60394 0.38597 0.0
C357 C 0.89197 0.62026 0.36878 0.0
O358 O 0.91299 0.63314 0.35658 0.0
C359 C 0.96744 0.60045 0.42299 0.0
O360 O 0.94536 0.57932 0.4181 0.0
O361 O 0.96143 0.57675 0.376 0.0
O362 O 0.91832 0.55338 0.3696 0.0
H363 H 0.0366 0.60826 0.32917 0.0
H364 H 0.8998 0.59859 0.41596 0.0
O365 O 0.88553 0.59777 0.37645 0.0
H366 H 0.86603 0.50502 0.43059 0.0
H367 H 0.80487 0.51867 0.36634 0.0
H368 H 0.89032 0.54008 0.33504 0.0
H369 H 0.87996 0.52293 0.39314 0.0
H370 H 0.84571 0.55324 0.38295 0.0
O371 O 0.98061 0.61685 0.4079 0.0
H372 H 0.99198 0.59576 0.34125 0.0
H373 H 0.02266 0.65348 0.39154 0.0
H374 H 0.84997 0.50523 0.31802 0.0
H375 H 0.8858 0.58143 0.45361 0.0
H376 H 0.80685 0.49433 0.33368 0.0
H377 H 0.86888 0.53435 0.46113 0.0
O378 O 0.91469 0.59029 0.34299 0.0
H379 H 0.97089 0.69289 0.40821 0.0
H380 H 0.99474 0.65779 0.3441 0.0
H381 H 0.00434 0.70348 0.34353 0.0
H382 H 0.99245 0.72132 0.37578 0.0
H383 H 0.96148 0.64725 0.40801 0.0
H384 H 0.06762 0.66646 0.38014 0.0
H385 H 0.07479 0.64384 0.34868 0.0
O386 O 0.95862 0.6106 0.34442 0.0
C387 C 0.94061 0.55524 0.37199 0.0
C388 C 0.03373 0.61831 0.34285 0.0
C389 C 0.05114 0.65096 0.37148 0.0
N390 N 0.00476 0.62403 0.36695 0.0
C391 C 0.00852 0.61138 0.34972 0.0
C392 C 0.02565 0.64349 0.37789 0.0
C393 C 0.05515 0.63827 0.35382 0.0
C394 C 0.89216 0.57802 0.41905 0.0
N395 N 0.89059 0.56177 0.40234 0.0
C396 C 0.88438 0.56844 0.44042 0.0
C397 C 0.87493 0.54203 0.44464 0.0
C398 C 0.87335 0.52557 0.42751 0.0
C399 C 0.88133 0.53584 0.40635 0.0
C400 C 0.82354 0.5232 0.35939 0.0
C401 C 0.87163 0.53533 0.34204 0.0
C402 C 0.84673 0.54278 0.3687 0.0
N403 N 0.87038 0.5485 0.36008 0.0
C404 C 0.84885 0.51563 0.33229 0.0
C405 C 0.82466 0.50954 0.34107 0.0
C406 C 0.93715 0.60216 0.33385 0.0
C407 C 0.97624 0.68536 0.39408 0.0
C408 C 0.98944 0.66539 0.35817 0.0
C409 C 0.99497 0.69129 0.35777 0.0
C410 C 0.9883 0.7013 0.37587 0.0
N411 N 0.97769 0.64992 0.37612 0.0
C412 C 0.97103 0.65956 0.39391 0.0
Co413 Co 0.32763 0.90393 0.8727 0.0
Co414 Co 0.3554 0.97088 0.87571 0.0
O415 O 0.33075 0.93547 0.88568 0.0
C416 C 0.27237 0.89203 0.86905 0.0
O417 O 0.27993 0.91308 0.85701 0.0
C418 C 0.36722 0.96948 0.92249 0.0
O419 O 0.36687 0.94767 0.91769 0.0
O420 O 0.38502 0.96379 0.87547 0.0
O421 O 0.36617 0.92077 0.86894 0.0
H422 H 0.42683 0.03891 0.82837 0.0
H423 H 0.30256 0.90069 0.91587 0.0
O424 O 0.2889 0.8861 0.87645 0.0
H425 H 0.36453 0.86943 0.92985 0.0
H426 H 0.28975 0.80665 0.86621 0.0
H427 H 0.35165 0.89261 0.83444 0.0
H428 H 0.35963 0.8829 0.89248 0.0
H429 H 0.29504 0.8471 0.88285 0.0
O430 O 0.36341 0.98222 0.90738 0.0
H431 H 0.39565 0.99407 0.84064 0.0
H432 H 0.36751 0.02368 0.89092 0.0
H433 H 0.34711 0.85267 0.81737 0.0
H434 H 0.30663 0.88712 0.95345 0.0
H435 H 0.31598 0.80929 0.83328 0.0
H436 H 0.33788 0.87147 0.96064 0.0
O437 O 0.3248 0.91581 0.84273 0.0
H438 H 0.27667 0.97004 0.908 0.0
H439 H 0.33539 0.99497 0.84364 0.0
H440 H 0.29846 0.0033 0.84317 0.0
H441 H 0.26883 0.99085 0.87554 0.0
H442 H 0.31373 0.96189 0.90771 0.0
H443 H 0.39854 0.06887 0.87933 0.0
H444 H 0.42839 0.07668 0.84778 0.0
O445 O 0.34775 0.95978 0.84401 0.0
C446 C 0.38626 0.9433 0.87132 0.0
C447 C 0.41386 0.03575 0.8421 0.0
C448 C 0.398 0.05257 0.87072 0.0
N449 N 0.37966 0.00629 0.86635 0.0
C450 C 0.39612 0.01041 0.84907 0.0
C451 C 0.38052 0.02696 0.87724 0.0
C452 C 0.41475 0.05694 0.85301 0.0
C453 C 0.31597 0.8936 0.91882 0.0
N454 N 0.33074 0.89248 0.90197 0.0
C455 C 0.31828 0.88606 0.94015 0.0
C456 C 0.33586 0.87733 0.94418 0.0
C457 C 0.35083 0.8762 0.92692 0.0
C458 C 0.34802 0.88392 0.9058 0.0
C459 C 0.30343 0.82543 0.85916 0.0
C460 C 0.33819 0.87382 0.84154 0.0
C461 C 0.30648 0.84841 0.86849 0.0
N462 N 0.32382 0.87221 0.85974 0.0
C463 C 0.33565 0.85126 0.83177 0.0
C464 C 0.31816 0.82693 0.84069 0.0
C465 C 0.33498 0.93821 0.83352 0.0
C466 C 0.28949 0.97562 0.89382 0.0
C467 C 0.32254 0.98943 0.85777 0.0
C468 C 0.30169 0.99425 0.85742 0.0
C469 C 0.28508 0.98727 0.87559 0.0
N470 N 0.32679 0.97808 0.87574 0.0
C471 C 0.31055 0.97113 0.89359 0.0
Co472 Co 0.42423 0.32782 0.37192 0.0
Co473 Co 0.38539 0.35595 0.37503 0.0
O474 O 0.39598 0.33118 0.38496 0.0
C475 C 0.38094 0.27242 0.36818 0.0
O476 O 0.36778 0.27966 0.35538 0.0
C477 C 0.39878 0.36779 0.42179 0.0
O478 O 0.42019 0.36737 0.4169 0.0
O479 O 0.42218 0.38541 0.37472 0.0
O480 O 0.44611 0.36634 0.36802 0.0
H481 H 0.38919 0.42756 0.32769 0.0
H482 H 0.40252 0.3031 0.41523 0.0
O483 O 0.40315 0.28913 0.3759 0.0
H484 H 0.49596 0.36465 0.42878 0.0
H485 H 0.48309 0.28933 0.36536 0.0
H486 H 0.45946 0.35153 0.33354 0.0
H487 H 0.47742 0.35964 0.39147 0.0
H488 H 0.44818 0.29498 0.38207 0.0
O489 O 0.38219 0.36404 0.40671 0.0
H490 H 0.4026 0.39618 0.33993 0.0
H491 H 0.34497 0.36841 0.39031 0.0
H492 H 0.49462 0.34664 0.3164 0.0
H493 H 0.42033 0.30728 0.45275 0.0
H494 H 0.50664 0.31535 0.33233 0.0
H495 H 0.46734 0.33832 0.45973 0.0
O496 O 0.4094 0.32496 0.34198 0.0
H497 H 0.30731 0.27751 0.40743 0.0
H498 H 0.34123 0.33616 0.34305 0.0
H499 H 0.29586 0.29942 0.34265 0.0
H500 H 0.27861 0.26982 0.37504 0.0
H501 H 0.35262 0.31438 0.40706 0.0
H502 H 0.33106 0.39964 0.37875 0.0
H503 H 0.35317 0.42942 0.34717 0.0
O504 O 0.3887 0.34821 0.34331 0.0
C505 C 0.44383 0.38652 0.37046 0.0
C506 C 0.37935 0.41463 0.34143 0.0
C507 C 0.34675 0.39898 0.37011 0.0
N508 N 0.37443 0.38036 0.36569 0.0
C509 C 0.3868 0.39678 0.34839 0.0
C510 C 0.35473 0.38139 0.37661 0.0
C511 C 0.35916 0.41568 0.35238 0.0
C512 C 0.42307 0.31642 0.41808 0.0
N513 N 0.43893 0.33101 0.40115 0.0
C514 C 0.43301 0.31879 0.43938 0.0
C515 C 0.45938 0.33625 0.4433 0.0
C516 C 0.47544 0.35104 0.42594 0.0
C517 C 0.46482 0.34817 0.40486 0.0
C518 C 0.47807 0.30307 0.3583 0.0
C519 C 0.46469 0.338 0.34065 0.0
C520 C 0.45829 0.30633 0.36767 0.0
N521 N 0.45195 0.32375 0.3589 0.0
C522 C 0.48456 0.33526 0.33083 0.0
C523 C 0.49128 0.31768 0.33977 0.0
C524 C 0.3973 0.33529 0.3328 0.0
C525 C 0.31458 0.29031 0.39325 0.0
C526 C 0.33388 0.32332 0.35718 0.0
C527 C 0.30816 0.30258 0.35688 0.0
C528 C 0.29849 0.28599 0.37506 0.0
N529 N 0.3495 0.32749 0.37512 0.0
C530 C 0.34019 0.31127 0.39298 0.0
Co531 Co 0.09622 0.42404 0.87384 0.0
Co532 Co 0.02915 0.38557 0.87624 0.0
O533 O 0.06433 0.39582 0.88654 0.0
C534 C 0.10732 0.38016 0.8703 0.0
O535 O 0.08631 0.36695 0.85817 0.0
C536 C 0.03013 0.39852 0.92306 0.0
O537 O 0.05214 0.41988 0.91848 0.0
O538 O 0.03677 0.42247 0.87608 0.0
O539 O 0.0799 0.44619 0.86991 0.0
H540 H 0.96234 0.39037 0.82829 0.0
H541 H 0.09856 0.40175 0.91704 0.0
O542 O 0.11353 0.40267 0.87775 0.0
H543 H 0.1308 0.49512 0.93127 0.0
H544 H 0.19373 0.48243 0.86822 0.0
H545 H 0.10848 0.45969 0.83567 0.0
H546 H 0.11764 0.47704 0.89379 0.0
H547 H 0.15284 0.44753 0.8845 0.0
O548 O 0.01744 0.38217 0.90781 0.0
H549 H 0.00688 0.40336 0.84097 0.0
H550 H 0.97594 0.34528 0.89096 0.0
H551 H 0.14888 0.49485 0.81896 0.0
H552 H 0.11181 0.41909 0.95474 0.0
H553 H 0.1919 0.50643 0.83526 0.0
H554 H 0.12796 0.46607 0.96206 0.0
O555 O 0.0846 0.40957 0.84377 0.0
H556 H 0.02839 0.30688 0.90851 0.0
H557 H 0.00499 0.34172 0.84396 0.0
H558 H 0.99603 0.29624 0.8434 0.0
H559 H 0.00771 0.27853 0.87587 0.0
H560 H 0.03718 0.3523 0.90831 0.0
H561 H 0.93105 0.33179 0.87896 0.0
H562 H 0.92405 0.35433 0.84735 0.0
O563 O 0.04064 0.38909 0.84464 0.0
C564 C 0.05749 0.44407 0.87209 0.0
C565 C 0.96514 0.38034 0.84204 0.0
C566 C 0.94758 0.34748 0.8705 0.0
N567 N 0.99398 0.37494 0.86656 0.0
C568 C 0.99031 0.38756 0.84924 0.0
C569 C 0.97303 0.35524 0.87725 0.0
C570 C 0.94367 0.36013 0.85275 0.0
C571 C 0.10586 0.42228 0.92005 0.0
N572 N 0.10743 0.43837 0.90321 0.0
C573 C 0.11322 0.43196 0.94145 0.0
C574 C 0.12224 0.45831 0.94555 0.0
C575 C 0.12381 0.47462 0.92829 0.0
C576 C 0.11626 0.46425 0.9071 0.0
C577 C 0.1751 0.47761 0.861 0.0
C578 C 0.12712 0.46473 0.84294 0.0
C579 C 0.15189 0.45784 0.87013 0.0
N580 N 0.12829 0.45175 0.86116 0.0
C581 C 0.14993 0.48461 0.83337 0.0
C582 C 0.17406 0.49107 0.84251 0.0
C583 C 0.06231 0.39764 0.83436 0.0
C584 C 0.02315 0.31435 0.89429 0.0
C585 C 0.01019 0.33417 0.85813 0.0
C586 C 0.00502 0.30839 0.85773 0.0
C587 C 0.01157 0.29846 0.87596 0.0
N588 N 0.02146 0.3496 0.8762 0.0
C589 C 0.02799 0.34003 0.89411 0.0
Co590 Co 0.67217 0.095 0.37185 0.0
Co591 Co 0.64342 0.02799 0.37535 0.0
O592 O 0.66849 0.06337 0.38511 0.0
C593 C 0.72734 0.10645 0.36823 0.0
O594 O 0.71978 0.08564 0.35588 0.0
C595 C 0.63177 0.03009 0.42206 0.0
O596 O 0.63239 0.05197 0.41701 0.0
O597 O 0.6142 0.03569 0.37495 0.0
O598 O 0.6337 0.07866 0.36794 0.0
H599 H 0.57139 0.96022 0.32831 0.0
H600 H 0.69687 0.09818 0.41519 0.0
O601 O 0.71085 0.11236 0.37576 0.0
H602 H 0.6359 0.13087 0.42834 0.0
H603 H 0.71141 0.1924 0.36468 0.0
H604 H 0.64872 0.10649 0.33327 0.0
H605 H 0.64073 0.11693 0.39114 0.0
H606 H 0.7054 0.15184 0.38169 0.0
O607 O 0.63533 0.01701 0.40709 0.0
H608 H 0.6031 0.00501 0.34032 0.0
H609 H 0.63045 0.97508 0.39098 0.0
H610 H 0.65398 0.14655 0.31584 0.0
H611 H 0.69287 0.11221 0.45261 0.0
H612 H 0.68551 0.18989 0.33156 0.0
H613 H 0.66212 0.12858 0.45938 0.0
O614 O 0.67488 0.08269 0.34203 0.0
H615 H 0.72145 0.02768 0.4079 0.0
H616 H 0.66275 0.003 0.34356 0.0
H617 H 0.69916 0.99388 0.3433 0.0
H618 H 0.72878 0.00619 0.37566 0.0
H619 H 0.68491 0.03661 0.40741 0.0
H620 H 0.59888 0.92995 0.37966 0.0
H621 H 0.56914 0.92232 0.34805 0.0
O622 O 0.65118 0.03877 0.34357 0.0
C623 C 0.61337 0.05634 0.37051 0.0
C624 C 0.5843 0.9633 0.34206 0.0
C625 C 0.5997 0.94631 0.3709 0.0
N626 N 0.61873 0.99262 0.3662 0.0
C627 C 0.60234 0.98861 0.34889 0.0
C628 C 0.61749 0.97189 0.37727 0.0
C629 C 0.58303 0.94204 0.35316 0.0
C630 C 0.68368 0.10559 0.41796 0.0
N631 N 0.66915 0.10685 0.40097 0.0
C632 C 0.68141 0.11339 0.4392 0.0
C633 C 0.66412 0.12252 0.443 0.0
C634 C 0.64938 0.12379 0.42559 0.0
C635 C 0.65215 0.1158 0.40457 0.0
C636 C 0.69757 0.17362 0.35771 0.0
C637 C 0.66236 0.12527 0.34029 0.0
C638 C 0.6941 0.15059 0.36725 0.0
N639 N 0.67655 0.12681 0.3586 0.0
C640 C 0.66531 0.14789 0.33031 0.0
C641 C 0.68302 0.17221 0.33913 0.0
C642 C 0.66433 0.06019 0.33297 0.0
C643 C 0.70864 0.02215 0.39373 0.0
C644 C 0.6756 0.00848 0.35768 0.0
C645 C 0.69615 0.00322 0.35746 0.0
C646 C 0.71275 0.01013 0.37562 0.0
N647 N 0.67163 0.0202 0.37554 0.0
C648 C 0.68786 0.02709 0.39339 0.0
Co649 Co 0.57562 0.67226 0.87129 0.0
Co650 Co 0.61461 0.64426 0.87364 0.0
O651 O 0.60399 0.66886 0.88399 0.0
C652 C 0.61902 0.72757 0.86785 0.0
O653 O 0.63221 0.72025 0.85517 0.0
C654 C 0.60146 0.63191 0.92036 0.0
O655 O 0.57999 0.63231 0.91568 0.0
O656 O 0.57785 0.61474 0.87336 0.0
O657 O 0.55376 0.63376 0.86723 0.0
H658 H 0.61075 0.57321 0.82551 0.0
H659 H 0.59762 0.6967 0.91462 0.0
O660 O 0.59669 0.71093 0.87542 0.0
H661 H 0.50432 0.63495 0.92852 0.0
H662 H 0.51659 0.71066 0.86574 0.0
H663 H 0.54012 0.64879 0.83304 0.0
H664 H 0.52259 0.64023 0.89108 0.0
H665 H 0.55166 0.70496 0.88204 0.0
O666 O 0.618 0.63589 0.90519 0.0
H667 H 0.59729 0.60437 0.83825 0.0
H668 H 0.65522 0.6318 0.88837 0.0
H669 H 0.5048 0.65375 0.81631 0.0
H670 H 0.58008 0.69225 0.95228 0.0
H671 H 0.49283 0.68487 0.83269 0.0
H672 H 0.53313 0.66111 0.95943 0.0
O673 O 0.59023 0.6754 0.84124 0.0
H674 H 0.69275 0.72251 0.90621 0.0
H675 H 0.6586 0.66448 0.84146 0.0
H676 H 0.70392 0.70132 0.84105 0.0
H677 H 0.72128 0.7306 0.87361 0.0
H678 H 0.64748 0.68555 0.90585 0.0
H679 H 0.66918 0.60079 0.8763 0.0
H680 H 0.64694 0.57129 0.84459 0.0
O681 O 0.61109 0.65229 0.84207 0.0
C682 C 0.55613 0.61361 0.8694 0.0
C683 C 0.62065 0.58602 0.8393 0.0
C684 C 0.65342 0.60147 0.86783 0.0
N685 N 0.62561 0.62001 0.8639 0.0
C686 C 0.61316 0.60375 0.84654 0.0
C687 C 0.6454 0.61895 0.87461 0.0
C688 C 0.64094 0.58494 0.85003 0.0
C689 C 0.5771 0.68334 0.91755 0.0
N690 N 0.56113 0.66884 0.90064 0.0
C691 C 0.56731 0.68082 0.93893 0.0
C692 C 0.54098 0.6633 0.94294 0.0
C693 C 0.5248 0.6486 0.92561 0.0
C694 C 0.53528 0.65162 0.90445 0.0
C695 C 0.52159 0.69699 0.85849 0.0
C696 C 0.53491 0.66225 0.84034 0.0
C697 C 0.54145 0.69371 0.86762 0.0
N698 N 0.54776 0.67638 0.85861 0.0
C699 C 0.51495 0.66503 0.83076 0.0
C700 C 0.50826 0.68251 0.83994 0.0
C701 C 0.60236 0.66526 0.83181 0.0
C702 C 0.68543 0.70984 0.89194 0.0
C703 C 0.666 0.67718 0.85567 0.0
C704 C 0.69169 0.69797 0.85536 0.0
C705 C 0.70142 0.71439 0.87364 0.0
N706 N 0.65047 0.67279 0.87372 0.0
C707 C 0.65985 0.68883 0.89168 0.0
Co708 Co 0.57551 0.90376 0.87182 0.0
Co709 Co 0.61401 0.97075 0.87535 0.0
O710 O 0.6035 0.93533 0.88513 0.0
C711 C 0.61929 0.89244 0.86855 0.0
O712 O 0.63276 0.91356 0.85658 0.0
C713 C 0.60005 0.96864 0.922 0.0
O714 O 0.57877 0.94681 0.91689 0.0
O715 O 0.57715 0.96322 0.87479 0.0
O716 O 0.55352 0.92025 0.86785 0.0
H717 H 0.61038 0.03874 0.82815 0.0
H718 H 0.59682 0.9004 0.91522 0.0
O719 O 0.5967 0.88628 0.87577 0.0
H720 H 0.50319 0.86808 0.92816 0.0
H721 H 0.51704 0.80641 0.86457 0.0
H722 H 0.54071 0.89244 0.83317 0.0
H723 H 0.52209 0.88202 0.891 0.0
H724 H 0.55166 0.84689 0.88164 0.0
O725 O 0.61678 0.98171 0.90708 0.0
H726 H 0.59703 0.9939 0.84018 0.0
H727 H 0.65404 0.02357 0.89106 0.0
H728 H 0.50584 0.85247 0.81568 0.0
H729 H 0.57865 0.88637 0.95259 0.0
H730 H 0.4938 0.80906 0.8314 0.0
H731 H 0.53154 0.87019 0.95926 0.0
O732 O 0.59065 0.91604 0.84204 0.0
H733 H 0.69196 0.97059 0.90827 0.0
H734 H 0.65852 0.99558 0.84372 0.0
H735 H 0.70397 0.00446 0.84365 0.0
H736 H 0.72098 0.99199 0.87612 0.0
H737 H 0.64658 0.9619 0.90758 0.0
H738 H 0.66787 0.06876 0.87971 0.0
H739 H 0.64605 0.07655 0.84798 0.0
O740 O 0.61112 0.95998 0.84357 0.0
C741 C 0.55562 0.94262 0.87035 0.0
C742 C 0.6201 0.0356 0.84195 0.0
C743 C 0.65234 0.05245 0.87091 0.0
N744 N 0.6249 0.00616 0.86618 0.0
C745 C 0.61268 0.01026 0.8488 0.0
C746 C 0.64439 0.02683 0.8773 0.0
C747 C 0.64009 0.0568 0.8531 0.0
C748 C 0.57623 0.89308 0.91793 0.0
N749 N 0.56052 0.89192 0.90092 0.0
C750 C 0.56608 0.88528 0.93915 0.0
C751 C 0.53966 0.87624 0.94289 0.0
C752 C 0.52375 0.87509 0.92545 0.0
C753 C 0.53458 0.88307 0.90446 0.0
C754 C 0.52207 0.82522 0.8576 0.0
C755 C 0.53546 0.87363 0.84019 0.0
C756 C 0.54168 0.8482 0.86717 0.0
N757 N 0.54802 0.87201 0.85852 0.0
C758 C 0.51576 0.85106 0.83018 0.0
C759 C 0.50903 0.82671 0.83899 0.0
C760 C 0.60278 0.93854 0.83298 0.0
C761 C 0.6848 0.97619 0.89405 0.0
C762 C 0.66576 0.99004 0.85789 0.0
C763 C 0.69153 0.99516 0.85777 0.0
C764 C 0.70106 0.98817 0.876 0.0
N765 N 0.64996 0.97837 0.87569 0.0
C766 C 0.65915 0.9714 0.8936 0.0
Co767 Co 0.67277 0.57661 0.37141 0.0
Co768 Co 0.64358 0.61454 0.3736 0.0
O769 O 0.66874 0.60466 0.38397 0.0
C770 C 0.72778 0.6206 0.36752 0.0
O771 O 0.72015 0.63323 0.35447 0.0
C772 C 0.63159 0.60153 0.42037 0.0
O773 O 0.63237 0.58025 0.41575 0.0
O774 O 0.61457 0.57753 0.37346 0.0
O775 O 0.63432 0.55409 0.36746 0.0
H776 H 0.57166 0.60883 0.32552 0.0
H777 H 0.69715 0.59923 0.41462 0.0
O778 O 0.71141 0.59837 0.37543 0.0
H779 H 0.6369 0.50569 0.429 0.0
H780 H 0.71296 0.51915 0.36613 0.0
H781 H 0.6497 0.5407 0.33335 0.0
H782 H 0.64167 0.52361 0.39146 0.0
H783 H 0.70644 0.55378 0.38226 0.0
O784 O 0.63517 0.61788 0.40514 0.0
H785 H 0.60354 0.59632 0.33828 0.0
H786 H 0.63009 0.65446 0.3882 0.0
H787 H 0.65546 0.50579 0.3168 0.0
H788 H 0.6932 0.58206 0.45236 0.0
H789 H 0.68729 0.49481 0.33322 0.0
H790 H 0.66282 0.53499 0.45976 0.0
O791 O 0.67546 0.59089 0.34129 0.0
H792 H 0.72102 0.69377 0.4058 0.0
H793 H 0.66289 0.65828 0.34123 0.0
H794 H 0.69908 0.70393 0.34062 0.0
H795 H 0.72841 0.72197 0.3731 0.0
H796 H 0.68471 0.64817 0.40565 0.0
H797 H 0.59836 0.66747 0.3761 0.0
H798 H 0.56894 0.64465 0.34449 0.0
O799 O 0.65167 0.61105 0.34203 0.0
C800 C 0.6139 0.556 0.36958 0.0
C801 C 0.58444 0.61898 0.33927 0.0
C802 C 0.5994 0.65187 0.36768 0.0
N803 N 0.61878 0.62479 0.36383 0.0
C804 C 0.60257 0.61203 0.34652 0.0
C805 C 0.61728 0.64438 0.37448 0.0
C806 C 0.5829 0.63906 0.34993 0.0
C807 C 0.68412 0.57866 0.41766 0.0
N808 N 0.66976 0.56243 0.40083 0.0
C809 C 0.68188 0.56908 0.43908 0.0
C810 C 0.66479 0.54268 0.44323 0.0
C811 C 0.65022 0.52623 0.42598 0.0
C812 C 0.65295 0.5365 0.40477 0.0
C813 C 0.69899 0.52371 0.35886 0.0
C814 C 0.66346 0.53592 0.34067 0.0
C815 C 0.69524 0.54332 0.3679 0.0
N816 N 0.67753 0.54909 0.35887 0.0
C817 C 0.6667 0.51618 0.33119 0.0
C818 C 0.68458 0.51006 0.3404 0.0
C819 C 0.66492 0.60262 0.33181 0.0
C820 C 0.70833 0.68616 0.39158 0.0
C821 C 0.67561 0.66597 0.3554 0.0
C822 C 0.69604 0.69185 0.35498 0.0
C823 C 0.71248 0.70196 0.37321 0.0
N824 N 0.67161 0.65063 0.37351 0.0
C825 C 0.68768 0.66038 0.39142 0.0
Co826 Co 0.0951 0.67177 0.8729 0.0
Co827 Co 0.02813 0.64369 0.8758 0.0
O828 O 0.06347 0.66847 0.88581 0.0
C829 C 0.10727 0.72717 0.86899 0.0
O830 O 0.08686 0.71988 0.85619 0.0
C831 C 0.02942 0.63198 0.92264 0.0
O832 O 0.05129 0.6324 0.91793 0.0
O833 O 0.03542 0.6142 0.8757 0.0
O834 O 0.07844 0.63324 0.86908 0.0
H835 H 0.96048 0.57197 0.82845 0.0
H836 H 0.09803 0.69663 0.91612 0.0
O837 O 0.11276 0.71048 0.87678 0.0
H838 H 0.12975 0.63502 0.93006 0.0
H839 H 0.19247 0.71012 0.86662 0.0
H840 H 0.10672 0.64794 0.83467 0.0
H841 H 0.11634 0.63994 0.89268 0.0
H842 H 0.15187 0.70458 0.88318 0.0
O843 O 0.0167 0.63571 0.90745 0.0
H844 H 0.00523 0.60334 0.84079 0.0
H845 H 0.9752 0.63133 0.89085 0.0
H846 H 0.14681 0.65273 0.81769 0.0
H847 H 0.11154 0.69254 0.95371 0.0
H848 H 0.19008 0.68401 0.83369 0.0
H849 H 0.12742 0.66147 0.96089 0.0
O850 O 0.08327 0.67458 0.84289 0.0
H851 H 0.02845 0.72228 0.9078 0.0
H852 H 0.00393 0.66342 0.84358 0.0
H853 H 0.99536 0.70019 0.84295 0.0
H854 H 0.0076 0.72989 0.87525 0.0
H855 H 0.03684 0.68537 0.90767 0.0
H856 H 0.9301 0.60011 0.87919 0.0
H857 H 0.92254 0.57022 0.84771 0.0
O858 O 0.03931 0.65132 0.84411 0.0
C859 C 0.05598 0.61308 0.87154 0.0
C860 C 0.96352 0.58495 0.84214 0.0
C861 C 0.94647 0.60072 0.87064 0.0
N862 N 0.99279 0.61927 0.86638 0.0
C863 C 0.98881 0.6028 0.84915 0.0
C864 C 0.97203 0.61831 0.87719 0.0
C865 C 0.94225 0.58396 0.85297 0.0
C866 C 0.10522 0.6833 0.91906 0.0
N867 N 0.1065 0.66864 0.90219 0.0
C868 C 0.11273 0.68098 0.9404 0.0
C869 C 0.12159 0.66351 0.94442 0.0
C870 C 0.12287 0.64864 0.92714 0.0
C871 C 0.11518 0.65146 0.90601 0.0
C872 C 0.17373 0.69639 0.85953 0.0
C873 C 0.12547 0.66147 0.84181 0.0
C874 C 0.15068 0.69319 0.86881 0.0
N875 N 0.12694 0.67578 0.86001 0.0
C876 C 0.1481 0.66415 0.83208 0.0
C877 C 0.17237 0.68172 0.84106 0.0
C878 C 0.06088 0.66424 0.83365 0.0
C879 C 0.02296 0.70943 0.89365 0.0
C880 C 0.00938 0.6763 0.85767 0.0
C881 C 0.00443 0.69706 0.85724 0.0
C882 C 0.01129 0.71371 0.87537 0.0
N883 N 0.02074 0.67218 0.8757 0.0
C884 C 0.02758 0.68845 0.89352 0.0
Co885 Co 0.42443 0.09568 0.37267 0.0
Co886 Co 0.38517 0.02876 0.37613 0.0
O887 O 0.3961 0.06428 0.3859 0.0
C888 C 0.38105 0.10754 0.36912 0.0
O889 O 0.36744 0.08635 0.35728 0.0
C890 C 0.39897 0.03063 0.4228 0.0
O891 O 0.42037 0.05239 0.41776 0.0
O892 O 0.42186 0.0358 0.37561 0.0
O893 O 0.44608 0.07879 0.36894 0.0
H894 H 0.38791 0.96026 0.32898 0.0
H895 H 0.40294 0.09932 0.41589 0.0
O896 O 0.40358 0.11357 0.37639 0.0
H897 H 0.49626 0.13062 0.42944 0.0
H898 H 0.48385 0.1929 0.36552 0.0
H899 H 0.45947 0.10663 0.33426 0.0
H900 H 0.47762 0.11687 0.39219 0.0
H901 H 0.44879 0.15261 0.38246 0.0
O902 O 0.38222 0.01772 0.40786 0.0
H903 H 0.40177 0.00522 0.34101 0.0
H904 H 0.34463 0.97612 0.3918 0.0
H905 H 0.49478 0.14641 0.31688 0.0
H906 H 0.42086 0.11316 0.45336 0.0
H907 H 0.50718 0.18993 0.33253 0.0
H908 H 0.46781 0.12883 0.46034 0.0
O909 O 0.40947 0.08354 0.34281 0.0
H910 H 0.30774 0.03002 0.40896 0.0
H911 H 0.34069 0.00442 0.34446 0.0
H912 H 0.29544 0.99613 0.34433 0.0
H913 H 0.27868 0.00892 0.37678 0.0
H914 H 0.35292 0.03811 0.40832 0.0
H915 H 0.33029 0.93082 0.38045 0.0
H916 H 0.35192 0.92269 0.34877 0.0
O917 O 0.38825 0.03958 0.34437 0.0
C918 C 0.4436 0.05624 0.37136 0.0
C919 C 0.37828 0.96355 0.34276 0.0
C920 C 0.34596 0.94703 0.37167 0.0
N921 N 0.37387 0.99326 0.36696 0.0
C922 C 0.38598 0.98896 0.3496 0.0
C923 C 0.35419 0.97271 0.37805 0.0
C924 C 0.3581 0.94248 0.35389 0.0
C925 C 0.42346 0.10642 0.41874 0.0
N926 N 0.43923 0.1074 0.40184 0.0
C927 C 0.43347 0.11411 0.44002 0.0
C928 C 0.45981 0.12286 0.44393 0.0
C929 C 0.47577 0.12384 0.42661 0.0
C930 C 0.46509 0.11596 0.40555 0.0
C931 C 0.47867 0.17404 0.35858 0.0
C932 C 0.46487 0.12549 0.34124 0.0
C933 C 0.45881 0.15116 0.36808 0.0
N934 N 0.45226 0.12728 0.35947 0.0
C935 C 0.48483 0.14795 0.3313 0.0
C936 C 0.49175 0.17236 0.34007 0.0
C937 C 0.39703 0.06107 0.33376 0.0
C938 C 0.31479 0.02429 0.39475 0.0
C939 C 0.33356 0.0101 0.35861 0.0
C940 C 0.3079 0.00531 0.35847 0.0
C941 C 0.29851 0.01248 0.37668 0.0
N942 N 0.34938 0.02161 0.37644 0.0
C943 C 0.34033 0.02875 0.39433 0.0
Co944 Co 0.32712 0.42404 0.87251 0.0
Co945 Co 0.35601 0.38586 0.87468 0.0
O946 O 0.33101 0.39593 0.88511 0.0
C947 C 0.27196 0.38028 0.86908 0.0
O948 O 0.27938 0.36738 0.85614 0.0
C949 C 0.36802 0.39865 0.92151 0.0
O950 O 0.36742 0.42004 0.91698 0.0
O951 O 0.38517 0.42281 0.87459 0.0
O952 O 0.36554 0.4463 0.86829 0.0
H953 H 0.42772 0.39121 0.82653 0.0
H954 H 0.30301 0.40186 0.9159 0.0
O955 O 0.2885 0.40257 0.87678 0.0
H956 H 0.36398 0.49537 0.92973 0.0
H957 H 0.28757 0.48209 0.86732 0.0
H958 H 0.35002 0.45962 0.83422 0.0
H959 H 0.35875 0.47714 0.89227 0.0
H960 H 0.29391 0.44736 0.88349 0.0
O961 O 0.36435 0.38234 0.90621 0.0
H962 H 0.39605 0.40397 0.83936 0.0
H963 H 0.36915 0.34566 0.88915 0.0
H964 H 0.34444 0.49462 0.81762 0.0
H965 H 0.30741 0.41935 0.95357 0.0
H966 H 0.31303 0.50606 0.83419 0.0
H967 H 0.33816 0.4664 0.96069 0.0
O968 O 0.32405 0.40951 0.84243 0.0
H969 H 0.27826 0.30683 0.90678 0.0
H970 H 0.33645 0.34218 0.84223 0.0
H971 H 0.30006 0.29664 0.84155 0.0
H972 H 0.27069 0.27867 0.87402 0.0
H973 H 0.31478 0.35232 0.90669 0.0
H974 H 0.40067 0.33239 0.87698 0.0
H975 H 0.43015 0.35518 0.84539 0.0
O976 O 0.34798 0.38951 0.84311 0.0
C977 C 0.38592 0.44433 0.87049 0.0
C978 C 0.41491 0.38108 0.84026 0.0
C979 C 0.39976 0.34809 0.8686 0.0
N980 N 0.38065 0.37542 0.86486 0.0
C981 C 0.3969 0.38816 0.84756 0.0
C982 C 0.38199 0.35572 0.87545 0.0
C983 C 0.41629 0.36088 0.85087 0.0
C984 C 0.3162 0.42242 0.91882 0.0
N985 N 0.3305 0.43847 0.90187 0.0
C986 C 0.3187 0.43218 0.9402 0.0
C987 C 0.33599 0.45858 0.94419 0.0
C988 C 0.3505 0.47483 0.92683 0.0
C989 C 0.34751 0.46439 0.90566 0.0
C990 C 0.30137 0.47733 0.85998 0.0
C991 C 0.33644 0.4646 0.84161 0.0
C992 C 0.30501 0.45765 0.86904 0.0
N993 N 0.3225 0.45164 0.85992 0.0
C994 C 0.33331 0.48438 0.8321 0.0
C995 C 0.31566 0.49077 0.84139 0.0
C996 C 0.33465 0.39787 0.83291 0.0
C997 C 0.29097 0.31441 0.89256 0.0
C998 C 0.32372 0.33453 0.85639 0.0
C999 C 0.30317 0.30871 0.85593 0.0
C1000 C 0.28671 0.29864 0.87416 0.0
N1001 N 0.32782 0.34984 0.87453 0.0
C1002 C 0.31173 0.34013 0.89244 0.0
Co1003 Co 0.90272 0.32707 0.37348 0.0
Co1004 Co 0.96978 0.35558 0.37608 0.0
O1005 O 0.93455 0.33056 0.38616 0.0
C1006 C 0.89129 0.27198 0.36913 0.0
O1007 O 0.91183 0.27969 0.3564 0.0
C1008 C 0.96854 0.36714 0.42296 0.0
O1009 O 0.94654 0.36648 0.41834 0.0
O1010 O 0.96218 0.38486 0.3761 0.0
O1011 O 0.91905 0.36562 0.36998 0.0
H1012 H 0.03687 0.42768 0.32867 0.0
H1013 H 0.90027 0.30188 0.41642 0.0
O1014 O 0.88543 0.28834 0.37705 0.0
H1015 H 0.86772 0.3626 0.43141 0.0
H1016 H 0.80522 0.28789 0.36762 0.0
H1017 H 0.89061 0.35107 0.33566 0.0
H1018 H 0.88109 0.35826 0.39384 0.0
H1019 H 0.84605 0.29369 0.38386 0.0
O1020 O 0.98131 0.36358 0.40771 0.0
H1021 H 0.99226 0.39599 0.34109 0.0
H1022 H 0.0229 0.36835 0.39093 0.0
H1023 H 0.85027 0.34604 0.319 0.0
H1024 H 0.88682 0.3054 0.45419 0.0
H1025 H 0.80719 0.31426 0.33501 0.0
H1026 H 0.87051 0.33602 0.46189 0.0
O1027 O 0.91451 0.32471 0.34332 0.0
H1028 H 0.97032 0.27731 0.40783 0.0
H1029 H 0.99413 0.33621 0.34368 0.0
H1030 H 0.00308 0.29969 0.34289 0.0
H1031 H 0.9912 0.26997 0.37516 0.0
H1032 H 0.96154 0.31396 0.40786 0.0
H1033 H 0.06786 0.39988 0.37917 0.0
H1034 H 0.07505 0.42975 0.34777 0.0
O1035 O 0.95847 0.34792 0.34443 0.0
C1036 C 0.9415 0.38586 0.37226 0.0
C1037 C 0.03399 0.41471 0.34232 0.0
C1038 C 0.05139 0.39913 0.37069 0.0
N1039 N 0.00501 0.38022 0.36658 0.0
C1040 C 0.00878 0.39668 0.34938 0.0
C1041 C 0.0259 0.38136 0.3773 0.0
C1042 C 0.0554 0.41588 0.35307 0.0
C1043 C 0.8929 0.31502 0.41959 0.0
N1044 N 0.89136 0.32975 0.40291 0.0
C1045 C 0.88543 0.31702 0.44103 0.0
C1046 C 0.87632 0.33424 0.44534 0.0
C1047 C 0.87478 0.34918 0.42825 0.0
C1048 C 0.88244 0.34668 0.40702 0.0
C1049 C 0.82388 0.30184 0.36053 0.0
C1050 C 0.87194 0.33732 0.34281 0.0
C1051 C 0.84706 0.30518 0.36963 0.0
N1052 N 0.8707 0.32287 0.36083 0.0
C1053 C 0.84916 0.3345 0.33326 0.0
C1054 C 0.825 0.31665 0.34224 0.0
C1055 C 0.93687 0.33509 0.33401 0.0
C1056 C 0.97565 0.29017 0.3937 0.0
C1057 C 0.98884 0.32332 0.35776 0.0
C1058 C 0.994 0.30271 0.35724 0.0
C1059 C 0.98734 0.28605 0.37535 0.0
N1060 N 0.97746 0.32729 0.37585 0.0
C1061 C 0.97081 0.311 0.39365 0.0
Co1062 Co 0.09515 0.42281 0.62966 0.0
Co1063 Co 0.02808 0.38474 0.62693 0.0
O1064 O 0.06325 0.39477 0.6168 0.0
C1065 C 0.107 0.37932 0.63365 0.0
O1066 O 0.087 0.36658 0.64694 0.0
C1067 C 0.02933 0.39772 0.58009 0.0
O1068 O 0.05136 0.41903 0.58472 0.0
O1069 O 0.03595 0.42172 0.62701 0.0
O1070 O 0.079 0.4451 0.63368 0.0
H1071 H 0.96131 0.3901 0.67452 0.0
H1072 H 0.0975 0.40076 0.58632 0.0
O1073 O 0.11232 0.40132 0.62556 0.0
H1074 H 0.13036 0.49435 0.57262 0.0
H1075 H 0.1927 0.48073 0.63563 0.0
H1076 H 0.10742 0.45826 0.66799 0.0
H1077 H 0.11695 0.476 0.61 0.0
H1078 H 0.15179 0.44609 0.61916 0.0
O1079 O 0.01654 0.38137 0.59532 0.0
H1080 H 0.00584 0.4028 0.66203 0.0
H1081 H 0.97484 0.34469 0.61206 0.0
H1082 H 0.14784 0.49316 0.68489 0.0
H1083 H 0.111 0.41838 0.54873 0.0
H1084 H 0.19087 0.5046 0.66869 0.0
H1085 H 0.12746 0.46547 0.54167 0.0
O1086 O 0.0833 0.40818 0.65966 0.0
H1087 H 0.02687 0.30572 0.59493 0.0
H1088 H 0.00348 0.34094 0.65923 0.0
H1089 H 0.99418 0.29534 0.65989 0.0
H1090 H 0.00584 0.27744 0.62755 0.0
H1091 H 0.03601 0.35126 0.59504 0.0
H1092 H 0.92996 0.3315 0.62388 0.0
H1093 H 0.923 0.35421 0.65538 0.0
O1094 O 0.03938 0.38822 0.65857 0.0
C1095 C 0.0567 0.4432 0.63124 0.0
C1096 C 0.9641 0.38 0.66082 0.0
C1097 C 0.9465 0.34713 0.63237 0.0
N1098 N 0.99291 0.37435 0.63647 0.0
C1099 C 0.98926 0.38705 0.65372 0.0
C1100 C 0.97194 0.35472 0.62573 0.0
C1101 C 0.9426 0.35988 0.65006 0.0
C1102 C 0.10494 0.42134 0.58344 0.0
N1103 N 0.10654 0.43735 0.60037 0.0
C1104 C 0.11244 0.43118 0.5621 0.0
C1105 C 0.12163 0.45759 0.55814 0.0
C1106 C 0.12324 0.4738 0.57549 0.0
C1107 C 0.11554 0.46328 0.59661 0.0
C1108 C 0.17406 0.47597 0.64281 0.0
C1109 C 0.12607 0.46324 0.66076 0.0
C1110 C 0.15084 0.45634 0.63358 0.0
N1111 N 0.12723 0.45032 0.64249 0.0
C1112 C 0.14889 0.48297 0.67044 0.0
C1113 C 0.17302 0.48936 0.66135 0.0
C1114 C 0.06093 0.39649 0.66897 0.0
C1115 C 0.02163 0.31327 0.6091 0.0
C1116 C 0.00868 0.33331 0.64512 0.0
C1117 C 0.00332 0.30746 0.64557 0.0
C1118 C 0.00986 0.29742 0.62741 0.0
N1119 N 0.02015 0.34869 0.62706 0.0
C1120 C 0.02668 0.33902 0.60922 0.0
Co1121 Co 0.6708 0.09527 0.1286 0.0
Co1122 Co 0.64313 0.02833 0.12557 0.0
O1123 O 0.66759 0.06376 0.11551 0.0
C1124 C 0.72607 0.10716 0.1317 0.0
O1125 O 0.71862 0.08604 0.1436 0.0
C1126 C 0.63068 0.02987 0.079 0.0
O1127 O 0.63093 0.05156 0.08409 0.0
O1128 O 0.61346 0.03534 0.12628 0.0
O1129 O 0.6323 0.07839 0.13268 0.0
H1130 H 0.57244 0.96017 0.17336 0.0
H1131 H 0.69539 0.09854 0.08519 0.0
O1132 O 0.70948 0.11314 0.12454 0.0
H1133 H 0.63316 0.12965 0.07202 0.0
H1134 H 0.70863 0.19254 0.1352 0.0
H1135 H 0.6472 0.10654 0.16719 0.0
H1136 H 0.63852 0.11624 0.10927 0.0
H1137 H 0.70319 0.15211 0.11839 0.0
O1138 O 0.63472 0.01705 0.09391 0.0
H1139 H 0.60338 0.00505 0.16102 0.0
H1140 H 0.6309 0.97559 0.11011 0.0
H1141 H 0.65189 0.14647 0.18443 0.0
H1142 H 0.69086 0.11205 0.04772 0.0
H1143 H 0.68279 0.18986 0.16841 0.0
H1144 H 0.65947 0.12763 0.04093 0.0
O1145 O 0.67401 0.08342 0.15845 0.0
H1146 H 0.72147 0.02936 0.09221 0.0
H1147 H 0.66366 0.0043 0.15718 0.0
H1148 H 0.70065 0.99605 0.15708 0.0
H1149 H 0.72982 0.00856 0.1244 0.0
H1150 H 0.68437 0.03743 0.09307 0.0
H1151 H 0.6001 0.93037 0.12178 0.0
H1152 H 0.57067 0.92246 0.15368 0.0
O1153 O 0.65122 0.03944 0.15726 0.0
C1154 C 0.61221 0.05582 0.13048 0.0
C1155 C 0.58522 0.96337 0.15949 0.0
C1156 C 0.60072 0.94664 0.13052 0.0
N1157 N 0.61906 0.9929 0.135 0.0
C1158 C 0.60283 0.98873 0.15247 0.0
C1159 C 0.61807 0.97227 0.12396 0.0
C1160 C 0.58422 0.94222 0.14842 0.0
C1161 C 0.68192 0.10559 0.08242 0.0
N1162 N 0.66733 0.10671 0.09942 0.0
C1163 C 0.67935 0.11311 0.06114 0.0
C1164 C 0.6617 0.1218 0.05734 0.0
C1165 C 0.64691 0.12291 0.07477 0.0
C1166 C 0.64999 0.11522 0.09582 0.0
C1167 C 0.69506 0.17375 0.1423 0.0
C1168 C 0.66056 0.12535 0.16004 0.0
C1169 C 0.69192 0.15079 0.13287 0.0
N1170 N 0.67471 0.12698 0.14168 0.0
C1171 C 0.66319 0.14789 0.16991 0.0
C1172 C 0.68055 0.17223 0.16093 0.0
C1173 C 0.66409 0.06105 0.16768 0.0
C1174 C 0.70885 0.02375 0.10652 0.0
C1175 C 0.67631 0.00986 0.14292 0.0
C1176 C 0.69719 0.00509 0.14294 0.0
C1177 C 0.71355 0.01211 0.1246 0.0
N1178 N 0.67179 0.0212 0.12509 0.0
C1179 C 0.68777 0.02819 0.10707 0.0
Co1180 Co 0.57776 0.67354 0.62699 0.0
Co1181 Co 0.61522 0.64386 0.62443 0.0
O1182 O 0.60562 0.66931 0.61428 0.0
C1183 C 0.62198 0.72842 0.63121 0.0
O1184 O 0.63446 0.72061 0.64425 0.0
C1185 C 0.60204 0.63218 0.57764 0.0
O1186 O 0.58093 0.63324 0.58233 0.0
O1187 O 0.5781 0.61506 0.62459 0.0
O1188 O 0.55497 0.63511 0.63074 0.0
H1189 H 0.60899 0.57143 0.67213 0.0
H1190 H 0.60052 0.69816 0.58388 0.0
O1191 O 0.59977 0.71219 0.62318 0.0
H1192 H 0.50685 0.63866 0.56939 0.0
H1193 H 0.52098 0.71446 0.63278 0.0
H1194 H 0.54177 0.65039 0.665 0.0
H1195 H 0.52471 0.64298 0.6069 0.0
H1196 H 0.55539 0.7077 0.61649 0.0
O1197 O 0.61836 0.63552 0.59283 0.0
H1198 H 0.59682 0.60364 0.65961 0.0
H1199 H 0.65474 0.62996 0.60953 0.0
H1200 H 0.50708 0.65638 0.68171 0.0
H1201 H 0.5834 0.69466 0.54617 0.0
H1202 H 0.49648 0.68861 0.66558 0.0
H1203 H 0.53628 0.66465 0.53872 0.0
O1204 O 0.59199 0.67585 0.6571 0.0
H1205 H 0.69473 0.72102 0.59224 0.0
H1206 H 0.65905 0.66267 0.65667 0.0
H1207 H 0.70483 0.69857 0.65724 0.0
H1208 H 0.72297 0.728 0.62483 0.0
H1209 H 0.64899 0.685 0.59244 0.0
H1210 H 0.66741 0.59788 0.62137 0.0
H1211 H 0.64453 0.56842 0.65294 0.0
O1212 O 0.61194 0.65188 0.65605 0.0
C1213 C 0.55668 0.61458 0.62852 0.0
C1214 C 0.61917 0.58422 0.6584 0.0
C1215 C 0.65193 0.59904 0.62988 0.0
N1216 N 0.62521 0.61878 0.63399 0.0
C1217 C 0.61241 0.60255 0.65128 0.0
C1218 C 0.64464 0.61712 0.62323 0.0
C1219 C 0.63909 0.58252 0.64761 0.0
C1220 C 0.57993 0.6853 0.58082 0.0
N1221 N 0.56362 0.67089 0.5976 0.0
C1222 C 0.57037 0.6833 0.55941 0.0
C1223 C 0.54394 0.66642 0.55524 0.0
C1224 C 0.52742 0.65182 0.57244 0.0
C1225 C 0.53766 0.6543 0.59364 0.0
C1226 C 0.52537 0.70031 0.63993 0.0
C1227 C 0.53716 0.66433 0.6578 0.0
C1228 C 0.54486 0.69643 0.6308 0.0
N1229 N 0.55042 0.6785 0.63968 0.0
C1230 C 0.51755 0.66769 0.66738 0.0
C1231 C 0.51163 0.6858 0.65833 0.0
C1232 C 0.60363 0.66513 0.66643 0.0
C1233 C 0.68707 0.70828 0.60644 0.0
C1234 C 0.66678 0.67545 0.64253 0.0
C1235 C 0.69273 0.6957 0.64293 0.0
C1236 C 0.7029 0.71221 0.62474 0.0
N1237 N 0.65141 0.67166 0.62449 0.0
C1238 C 0.66122 0.6878 0.60662 0.0
Co1239 Co 0.90283 0.57649 0.12893 0.0
Co1240 Co 0.96992 0.61455 0.12665 0.0
O1241 O 0.93484 0.60452 0.11625 0.0
C1242 C 0.89149 0.6203 0.13238 0.0
O1243 O 0.91177 0.63316 0.14537 0.0
C1244 C 0.969 0.60154 0.07987 0.0
O1245 O 0.94698 0.5802 0.08448 0.0
O1246 O 0.96205 0.57758 0.12682 0.0
O1247 O 0.91892 0.55416 0.13314 0.0
H1248 H 0.0363 0.60921 0.17478 0.0
H1249 H 0.90088 0.59861 0.08551 0.0
O1250 O 0.88575 0.59802 0.12465 0.0
H1251 H 0.86808 0.50503 0.07182 0.0
H1252 H 0.80522 0.51863 0.1343 0.0
H1253 H 0.89018 0.54098 0.16726 0.0
H1254 H 0.88118 0.52332 0.10925 0.0
H1255 H 0.84629 0.55326 0.11804 0.0
O1256 O 0.9817 0.61792 0.0951 0.0
H1257 H 0.99187 0.5965 0.16199 0.0
H1258 H 0.02327 0.65462 0.11205 0.0
H1259 H 0.8496 0.50608 0.18396 0.0
H1260 H 0.88768 0.58104 0.04787 0.0
H1261 H 0.80673 0.4947 0.16745 0.0
H1262 H 0.87125 0.53396 0.04082 0.0
O1263 O 0.9144 0.59107 0.15897 0.0
H1264 H 0.97135 0.69356 0.09434 0.0
H1265 H 0.9942 0.65835 0.15898 0.0
H1266 H 0.00346 0.70393 0.15954 0.0
H1267 H 0.99206 0.72183 0.12703 0.0
H1268 H 0.96226 0.64803 0.09455 0.0
H1269 H 0.06805 0.66783 0.12416 0.0
H1270 H 0.07477 0.64512 0.1558 0.0
O1271 O 0.95833 0.61106 0.15823 0.0
C1272 C 0.94126 0.55609 0.13092 0.0
C1273 C 0.03362 0.61931 0.16102 0.0
C1274 C 0.05145 0.65218 0.13259 0.0
N1275 N 0.00501 0.62495 0.13642 0.0
C1276 C 0.00852 0.61225 0.15375 0.0
C1277 C 0.02606 0.64459 0.12577 0.0
C1278 C 0.0552 0.63944 0.15035 0.0
C1279 C 0.89345 0.57803 0.08263 0.0
N1280 N 0.89169 0.562 0.09959 0.0
C1281 C 0.88612 0.56822 0.06126 0.0
C1282 C 0.87695 0.54181 0.05731 0.0
C1283 C 0.87519 0.52557 0.07469 0.0
C1284 C 0.88271 0.53607 0.09584 0.0
C1285 C 0.82378 0.52336 0.14161 0.0
C1286 C 0.8716 0.53603 0.1599 0.0
C1287 C 0.8471 0.54299 0.1325 0.0
N1288 N 0.87062 0.54897 0.14158 0.0
C1289 C 0.84869 0.5163 0.16946 0.0
C1290 C 0.82464 0.50994 0.16021 0.0
C1291 C 0.93666 0.60274 0.16845 0.0
C1292 C 0.97648 0.68601 0.10858 0.0
C1293 C 0.98912 0.66598 0.14479 0.0
C1294 C 0.99446 0.69181 0.14519 0.0
C1295 C 0.98807 0.70185 0.12694 0.0
N1296 N 0.97784 0.6506 0.12669 0.0
C1297 C 0.97145 0.66027 0.10876 0.0
Co1298 Co 0.32829 0.90251 0.62886 0.0
Co1299 Co 0.35634 0.96952 0.62614 0.0
O1300 O 0.33164 0.93419 0.61602 0.0
C1301 C 0.27323 0.89115 0.63239 0.0
O1302 O 0.28097 0.91227 0.64436 0.0
C1303 C 0.36844 0.96814 0.57945 0.0
O1304 O 0.36799 0.94631 0.58433 0.0
O1305 O 0.38583 0.96223 0.62654 0.0
O1306 O 0.36682 0.9191 0.63264 0.0
H1307 H 0.4276 0.03709 0.67388 0.0
H1308 H 0.30339 0.89971 0.5857 0.0
O1309 O 0.28959 0.88494 0.62508 0.0
H1310 H 0.36487 0.8679 0.57151 0.0
H1311 H 0.2898 0.80511 0.635 0.0
H1312 H 0.3521 0.89077 0.66704 0.0
H1313 H 0.36002 0.88123 0.60896 0.0
H1314 H 0.29541 0.84577 0.61851 0.0
O1315 O 0.36463 0.98095 0.59451 0.0
H1316 H 0.39632 0.99236 0.66144 0.0
H1317 H 0.36887 0.02247 0.61101 0.0
H1318 H 0.34723 0.85062 0.68395 0.0
H1319 H 0.30741 0.88629 0.54806 0.0
H1320 H 0.3159 0.8074 0.66791 0.0
H1321 H 0.33842 0.87036 0.54075 0.0
O1322 O 0.32548 0.91428 0.65887 0.0
H1323 H 0.2781 0.96928 0.59343 0.0
H1324 H 0.33629 0.99366 0.6581 0.0
H1325 H 0.29952 0.00225 0.65837 0.0
H1326 H 0.27016 0.99007 0.62584 0.0
H1327 H 0.31499 0.96087 0.59392 0.0
H1328 H 0.4 0.06755 0.62277 0.0
H1329 H 0.42957 0.07506 0.65448 0.0
O1330 O 0.34837 0.95826 0.6578 0.0
C1331 C 0.38697 0.94164 0.63048 0.0
C1332 C 0.41476 0.03407 0.66009 0.0
C1333 C 0.39929 0.05116 0.63138 0.0
N1334 N 0.38066 0.00484 0.63565 0.0
C1335 C 0.39696 0.00879 0.65302 0.0
C1336 C 0.38175 0.02561 0.62477 0.0
C1337 C 0.41587 0.05536 0.64918 0.0
C1338 C 0.31669 0.8925 0.58271 0.0
N1339 N 0.33136 0.89115 0.59953 0.0
C1340 C 0.31898 0.88504 0.56134 0.0
C1341 C 0.33642 0.87615 0.55724 0.0
C1342 C 0.35128 0.8748 0.57449 0.0
C1343 C 0.3485 0.88243 0.59565 0.0
C1344 C 0.30356 0.82383 0.64211 0.0
C1345 C 0.33855 0.87204 0.65988 0.0
C1346 C 0.30679 0.84691 0.63287 0.0
N1347 N 0.32424 0.87063 0.64169 0.0
C1348 C 0.33582 0.84937 0.66956 0.0
C1349 C 0.31822 0.82513 0.66057 0.0
C1350 C 0.33553 0.93662 0.66818 0.0
C1351 C 0.2908 0.97474 0.60767 0.0
C1352 C 0.32356 0.98825 0.64391 0.0
C1353 C 0.3028 0.9932 0.64414 0.0
C1354 C 0.28634 0.98638 0.62588 0.0
N1355 N 0.32786 0.97691 0.62596 0.0
C1356 C 0.31177 0.97011 0.60802 0.0
Co1357 Co 0.42404 0.32759 0.12782 0.0
Co1358 Co 0.38479 0.35532 0.12544 0.0
O1359 O 0.39548 0.33072 0.11519 0.0
C1360 C 0.38055 0.27245 0.13152 0.0
O1361 O 0.36714 0.28016 0.14349 0.0
C1362 C 0.39762 0.36727 0.0786 0.0
O1363 O 0.41911 0.3669 0.08322 0.0
O1364 O 0.42151 0.38495 0.12551 0.0
O1365 O 0.44582 0.36614 0.1315 0.0
H1366 H 0.38862 0.42662 0.17322 0.0
H1367 H 0.40164 0.30248 0.08478 0.0
O1368 O 0.40306 0.28886 0.12413 0.0
H1369 H 0.4947 0.36438 0.07001 0.0
H1370 H 0.48346 0.28966 0.13343 0.0
H1371 H 0.45988 0.35165 0.16577 0.0
H1372 H 0.47683 0.35953 0.10757 0.0
H1373 H 0.44811 0.29496 0.11722 0.0
O1374 O 0.38119 0.36343 0.09384 0.0
H1375 H 0.40218 0.39548 0.16061 0.0
H1376 H 0.34396 0.36746 0.11071 0.0
H1377 H 0.49549 0.3471 0.1824 0.0
H1378 H 0.41877 0.3065 0.04702 0.0
H1379 H 0.50749 0.31592 0.16621 0.0
H1380 H 0.4656 0.33771 0.03942 0.0
O1381 O 0.40971 0.32477 0.15794 0.0
H1382 H 0.30664 0.27666 0.09338 0.0
H1383 H 0.34099 0.3352 0.1578 0.0
H1384 H 0.29573 0.29825 0.15846 0.0
H1385 H 0.27827 0.2687 0.12606 0.0
H1386 H 0.35184 0.31374 0.09347 0.0
H1387 H 0.32991 0.39845 0.12265 0.0
H1388 H 0.35224 0.42823 0.15418 0.0
O1389 O 0.38853 0.34757 0.15707 0.0
C1390 C 0.44332 0.38622 0.12933 0.0
C1391 C 0.37868 0.41368 0.15951 0.0
C1392 C 0.34575 0.3979 0.13111 0.0
N1393 N 0.37372 0.37955 0.13508 0.0
C1394 C 0.38622 0.39596 0.15234 0.0
C1395 C 0.35383 0.38044 0.12439 0.0
C1396 C 0.35828 0.41459 0.1488 0.0
C1397 C 0.4221 0.31588 0.08166 0.0
N1398 N 0.43823 0.33066 0.09839 0.0
C1399 C 0.43167 0.31816 0.06022 0.0
C1400 C 0.45793 0.33571 0.05596 0.0
C1401 C 0.47426 0.3507 0.07311 0.0
C1402 C 0.46401 0.34792 0.09434 0.0
C1403 C 0.47846 0.30336 0.1406 0.0
C1404 C 0.46511 0.33817 0.15854 0.0
C1405 C 0.45844 0.30641 0.13152 0.0
N1406 N 0.45211 0.32378 0.14042 0.0
C1407 C 0.48523 0.33562 0.16807 0.0
C1408 C 0.49193 0.3181 0.15899 0.0
C1409 C 0.3975 0.33483 0.16736 0.0
C1410 C 0.314 0.28944 0.10757 0.0
C1411 C 0.33355 0.32239 0.14366 0.0
C1412 C 0.30789 0.30153 0.14411 0.0
C1413 C 0.2981 0.28497 0.12592 0.0
N1414 N 0.34898 0.3267 0.12556 0.0
C1415 C 0.33955 0.31052 0.10769 0.0
H1416 H 0.37456 0.01781 0.30675 0.0
H1417 H 0.40996 0.1029 0.19619 0.0
H1418 H 0.41132 0.10199 0.30526 0.0
H1419 H 0.37527 0.0189 0.19625 0.0
H1420 H 0.40732 0.10221 0.23625 0.0
H1421 H 0.3715 0.01719 0.26649 0.0
C1422 C 0.38184 0.03615 0.29803 0.0
C1423 C 0.39338 0.06001 0.3095 0.0
C1424 C 0.40016 0.08389 0.22753 0.0
C1425 C 0.38994 0.05938 0.26337 0.0
C1426 C 0.40163 0.08425 0.20458 0.0
C1427 C 0.39298 0.06093 0.19273 0.0
C1428 C 0.39003 0.06006 0.23888 0.0
C1429 C 0.38228 0.03739 0.20465 0.0
C1430 C 0.3801 0.03576 0.27502 0.0
C1431 C 0.40239 0.08311 0.29722 0.0
N1432 N 0.38126 0.03758 0.22707 0.0
N1433 N 0.40058 0.0822 0.27488 0.0
H1434 H 0.35673 0.37641 0.69453 0.0
H1435 H 0.30729 0.41205 0.80514 0.0
H1436 H 0.30972 0.4136 0.696 0.0
H1437 H 0.35624 0.37697 0.80504 0.0
H1438 H 0.30557 0.40971 0.76506 0.0
H1439 H 0.35443 0.37353 0.73481 0.0
C1440 C 0.3458 0.38384 0.70326 0.0
C1441 C 0.33352 0.39541 0.69177 0.0
C1442 C 0.3166 0.4024 0.77378 0.0
C1443 C 0.33087 0.39217 0.73792 0.0
C1444 C 0.31759 0.4037 0.79674 0.0
C1445 C 0.33207 0.39483 0.80859 0.0
C1446 C 0.33024 0.39222 0.76242 0.0
C1447 C 0.3449 0.38414 0.79665 0.0
C1448 C 0.34453 0.3822 0.72628 0.0
C1449 C 0.31961 0.40462 0.70405 0.0
N1450 N 0.34379 0.38326 0.77423 0.0
N1451 N 0.31877 0.40289 0.7264 0.0
H1452 H 0.8942 0.30812 0.19639 0.0
H1453 H 0.97988 0.35571 0.30676 0.0
H1454 H 0.9784 0.3555 0.19635 0.0
H1455 H 0.89562 0.30928 0.30563 0.0
H1456 H 0.98019 0.35363 0.26648 0.0
H1457 H 0.8949 0.3061 0.23646 0.0
C1458 C 0.91289 0.31801 0.20476 0.0
C1459 C 0.93628 0.33214 0.19287 0.0
C1460 C 0.96166 0.3438 0.27508 0.0
C1461 C 0.93716 0.32996 0.23902 0.0
C1462 C 0.96145 0.34495 0.29811 0.0
C1463 C 0.93766 0.33276 0.30969 0.0
C1464 C 0.93794 0.33039 0.26352 0.0
C1465 C 0.91444 0.31908 0.2975 0.0
C1466 C 0.91325 0.31685 0.22771 0.0
C1467 C 0.95986 0.34445 0.20476 0.0
N1468 N 0.91518 0.31837 0.27513 0.0
N1469 N 0.95967 0.34319 0.22718 0.0
H1470 H 0.59073 0.89633 0.69563 0.0
H1471 H 0.62446 0.98174 0.80587 0.0
H1472 H 0.62403 0.98017 0.6953 0.0
H1473 H 0.5895 0.89772 0.80461 0.0
H1474 H 0.62761 0.98229 0.7656 0.0
H1475 H 0.59341 0.89731 0.73567 0.0
C1476 C 0.59876 0.91501 0.70393 0.0
C1477 C 0.607 0.9382 0.69197 0.0
C1478 C 0.6194 0.96378 0.77419 0.0
C1479 C 0.61001 0.93939 0.73812 0.0
C1480 C 0.61761 0.96343 0.7972 0.0
C1481 C 0.60653 0.93962 0.80873 0.0
C1482 C 0.61007 0.94017 0.76261 0.0
C1483 C 0.59805 0.91655 0.79652 0.0
C1484 C 0.60026 0.91553 0.72688 0.0
C1485 C 0.61734 0.96178 0.70378 0.0
N1486 N 0.5999 0.91742 0.77419 0.0
N1487 N 0.6184 0.96174 0.72621 0.0
H1488 H 0.69239 0.58862 0.30399 0.0
H1489 H 0.64289 0.62458 0.19363 0.0
H1490 H 0.64337 0.62363 0.30403 0.0
H1491 H 0.69073 0.58828 0.19482 0.0
H1492 H 0.64515 0.62726 0.2339 0.0
H1493 H 0.69431 0.5913 0.26393 0.0
C1494 C 0.68212 0.59701 0.29563 0.0
C1495 C 0.66755 0.60577 0.30751 0.0
C1496 C 0.65526 0.61885 0.22531 0.0
C1497 C 0.66962 0.60878 0.26137 0.0
C1498 C 0.654 0.61732 0.20229 0.0
C1499 C 0.66652 0.60604 0.19073 0.0
C1500 C 0.6691 0.60903 0.23688 0.0
C1501 C 0.68066 0.59703 0.20293 0.0
C1502 C 0.68322 0.59852 0.27267 0.0
C1503 C 0.65477 0.61654 0.29562 0.0
N1504 N 0.68145 0.59863 0.22528 0.0
N1505 N 0.65599 0.61761 0.27321 0.0
H1506 H 0.10353 0.69167 0.69612 0.0
H1507 H 0.01782 0.64338 0.80643 0.0
H1508 H 0.0194 0.64358 0.69594 0.0
H1509 H 0.10203 0.69049 0.80526 0.0
H1510 H 0.01746 0.64551 0.76614 0.0
H1511 H 0.10271 0.69374 0.73617 0.0
C1512 C 0.08483 0.68163 0.70445 0.0
C1513 C 0.0615 0.66728 0.69253 0.0
C1514 C 0.03598 0.65548 0.77474 0.0
C1515 C 0.06048 0.66951 0.73867 0.0
C1516 C 0.03622 0.65431 0.79777 0.0
C1517 C 0.06001 0.66665 0.80934 0.0
C1518 C 0.05968 0.66908 0.76317 0.0
C1519 C 0.0832 0.68055 0.79714 0.0
C1520 C 0.08439 0.68282 0.7274 0.0
C1521 C 0.0379 0.6548 0.70438 0.0
N1522 N 0.08243 0.68128 0.77478 0.0
N1523 N 0.03801 0.65609 0.7268 0.0
H1524 H 0.89523 0.58903 0.19624 0.0
H1525 H 0.98034 0.62389 0.30676 0.0
H1526 H 0.97919 0.62342 0.19627 0.0
H1527 H 0.89625 0.58806 0.30537 0.0
H1528 H 0.98092 0.62675 0.26649 0.0
H1529 H 0.89593 0.59152 0.23631 0.0
C1530 C 0.91388 0.59725 0.20462 0.0
C1531 C 0.93719 0.60588 0.19276 0.0
C1532 C 0.96238 0.6184 0.27504 0.0
C1533 C 0.93807 0.60868 0.23892 0.0
C1534 C 0.96201 0.61677 0.29806 0.0
C1535 C 0.93818 0.60557 0.30956 0.0
C1536 C 0.93877 0.60878 0.26341 0.0
C1537 C 0.9151 0.59674 0.2973 0.0
C1538 C 0.91424 0.59865 0.22758 0.0
C1539 C 0.96071 0.61644 0.20467 0.0
N1540 N 0.91598 0.59844 0.27496 0.0
N1541 N 0.96053 0.6174 0.22709 0.0
H1542 H 0.35595 0.98126 0.80627 0.0
H1543 H 0.3082 0.89527 0.6961 0.0
H1544 H 0.30871 0.89706 0.80517 0.0
H1545 H 0.35649 0.97938 0.69576 0.0
H1546 H 0.30587 0.89623 0.73612 0.0
H1547 H 0.35404 0.98156 0.76596 0.0
C1548 C 0.34503 0.96285 0.79762 0.0
C1549 C 0.33261 0.93908 0.80922 0.0
C1550 C 0.31689 0.91451 0.72732 0.0
C1551 C 0.33042 0.93933 0.76304 0.0
C1552 C 0.31824 0.914 0.7044 0.0
C1553 C 0.33272 0.93728 0.69244 0.0
C1554 C 0.33017 0.93846 0.73855 0.0
C1555 C 0.34517 0.96092 0.70424 0.0
C1556 C 0.34398 0.96305 0.77458 0.0
C1557 C 0.31872 0.91587 0.79704 0.0
N1558 N 0.34373 0.96089 0.72665 0.0
N1559 N 0.31812 0.9166 0.77467 0.0
H1560 H 0.37499 0.35613 0.30567 0.0
H1561 H 0.41212 0.30788 0.19518 0.0
H1562 H 0.41208 0.30902 0.30432 0.0
H1563 H 0.37592 0.35583 0.19516 0.0
H1564 H 0.40941 0.30587 0.23524 0.0
H1565 H 0.37239 0.35401 0.26539 0.0
C1566 C 0.38243 0.3452 0.29698 0.0
C1567 C 0.39391 0.33285 0.3085 0.0
C1568 C 0.40194 0.31675 0.22651 0.0
C1569 C 0.39102 0.33044 0.26233 0.0
C1570 C 0.40346 0.31791 0.20355 0.0
C1571 C 0.39437 0.33219 0.19167 0.0
C1572 C 0.39133 0.33002 0.23783 0.0
C1573 C 0.38327 0.34465 0.20357 0.0
C1574 C 0.38095 0.34404 0.27395 0.0
C1575 C 0.40316 0.31896 0.29625 0.0
N1576 N 0.38219 0.34339 0.22599 0.0
N1577 N 0.40161 0.31824 0.27389 0.0
H1578 H 0.01794 0.3748 0.69625 0.0
H1579 H 0.10372 0.41165 0.80648 0.0
H1580 H 0.10207 0.41095 0.69729 0.0
H1581 H 0.01966 0.37633 0.80667 0.0
H1582 H 0.10285 0.4087 0.76642 0.0
H1583 H 0.01763 0.37241 0.73653 0.0
C1584 C 0.03633 0.38208 0.70488 0.0
C1585 C 0.06009 0.39324 0.69327 0.0
C1586 C 0.08456 0.40147 0.7752 0.0
C1587 C 0.05982 0.39059 0.73944 0.0
C1588 C 0.08502 0.40313 0.79814 0.0
C1589 C 0.06172 0.39437 0.81007 0.0
C1590 C 0.06066 0.39103 0.76394 0.0
C1591 C 0.03813 0.38343 0.79822 0.0
C1592 C 0.03612 0.38073 0.72791 0.0
C1593 C 0.08327 0.40229 0.70544 0.0
N1594 N 0.03822 0.38221 0.77581 0.0
N1595 N 0.08254 0.40087 0.7278 0.0
H1596 H 0.64257 0.01695 0.30591 0.0
H1597 H 0.69223 0.10227 0.1955 0.0
H1598 H 0.69156 0.10097 0.30449 0.0
H1599 H 0.64255 0.01832 0.19533 0.0
H1600 H 0.69454 0.10137 0.23551 0.0
H1601 H 0.64466 0.01635 0.26561 0.0
C1602 C 0.65391 0.03525 0.29719 0.0
C1603 C 0.66677 0.05908 0.30869 0.0
C1604 C 0.68322 0.0831 0.22676 0.0
C1605 C 0.66916 0.05847 0.26254 0.0
C1606 C 0.68188 0.08358 0.20383 0.0
C1607 C 0.66701 0.06034 0.19193 0.0
C1608 C 0.66952 0.05923 0.23804 0.0
C1609 C 0.65418 0.03675 0.20377 0.0
C1610 C 0.65506 0.03487 0.27417 0.0
C1611 C 0.68119 0.08213 0.29643 0.0
N1612 N 0.6556 0.03682 0.22619 0.0
N1613 N 0.68187 0.08123 0.27408 0.0
H1614 H 0.62542 0.64396 0.69374 0.0
H1615 H 0.58802 0.69241 0.80394 0.0
H1616 H 0.58896 0.69166 0.69473 0.0
H1617 H 0.62407 0.64433 0.80412 0.0
H1618 H 0.59098 0.69453 0.76388 0.0
H1619 H 0.6278 0.64606 0.73401 0.0
C1620 C 0.61806 0.65501 0.70236 0.0
C1621 C 0.60683 0.66753 0.69074 0.0
C1622 C 0.59837 0.68361 0.77266 0.0
C1623 C 0.60946 0.66993 0.7369 0.0
C1624 C 0.5967 0.68239 0.7956 0.0
C1625 C 0.60567 0.66803 0.80752 0.0
C1626 C 0.60901 0.67033 0.76139 0.0
C1627 C 0.61681 0.65556 0.79568 0.0
C1628 C 0.61941 0.65617 0.72538 0.0
C1629 C 0.59769 0.68158 0.70289 0.0
N1630 N 0.61802 0.65688 0.77327 0.0
N1631 N 0.5991 0.68229 0.72526 0.0
H1632 H 0.39055 0.13904 0.09691 0.0
H1633 H 0.34673 0.23068 0.1572 0.0
H1634 H 0.34828 0.1182 0.15847 0.0
H1635 H 0.39369 0.25064 0.0982 0.0
H1636 H 0.33864 0.18573 0.15431 0.0
H1637 H 0.38291 0.17566 0.09329 0.0
C1638 C 0.37929 0.14199 0.10954 0.0
C1639 C 0.37037 0.12585 0.12818 0.0
C1640 C 0.35031 0.19987 0.1418 0.0
C1641 C 0.36201 0.1682 0.12443 0.0
C1642 C 0.35483 0.22545 0.14339 0.0
C1643 C 0.37124 0.24444 0.12811 0.0
C1644 C 0.36218 0.19339 0.12474 0.0
C1645 C 0.38128 0.23671 0.11056 0.0
C1646 C 0.37495 0.16295 0.10749 0.0
C1647 C 0.3556 0.13032 0.14389 0.0
N1648 N 0.3768 0.2119 0.10949 0.0
N1649 N 0.35229 0.15145 0.14189 0.0
H1650 H 0.13818 0.38938 0.59794 0.0
H1651 H 0.23155 0.34796 0.6586 0.0
H1652 H 0.11884 0.34909 0.66044 0.0
H1653 H 0.25059 0.39426 0.59927 0.0
H1654 H 0.18644 0.33945 0.65594 0.0
H1655 H 0.17497 0.38201 0.59436 0.0
C1656 C 0.1415 0.3786 0.61078 0.0
C1657 C 0.12573 0.37018 0.62967 0.0
C1658 C 0.20042 0.35107 0.64332 0.0
C1659 C 0.16828 0.36214 0.62595 0.0
C1660 C 0.22609 0.35582 0.64478 0.0
C1661 C 0.24486 0.37216 0.62932 0.0
C1662 C 0.19362 0.36261 0.62619 0.0
C1663 C 0.23683 0.38191 0.61175 0.0
C1664 C 0.16256 0.37443 0.60876 0.0
C1665 C 0.13066 0.35601 0.64566 0.0
N1666 N 0.21194 0.37718 0.6108 0.0
N1667 N 0.15188 0.35286 0.64366 0.0
H1668 H 0.85816 0.25161 0.09722 0.0
H1669 H 0.76811 0.11551 0.15717 0.0
H1670 H 0.87986 0.23028 0.1584 0.0
H1671 H 0.74743 0.14221 0.09839 0.0
H1672 H 0.81283 0.15277 0.15425 0.0
H1673 H 0.82188 0.20718 0.09356 0.0
C1674 C 0.85545 0.23739 0.10976 0.0
C1675 C 0.87174 0.24467 0.12832 0.0
C1676 C 0.79859 0.15015 0.14179 0.0
C1677 C 0.82978 0.19375 0.1245 0.0
C1678 C 0.77314 0.12885 0.1434 0.0
C1679 C 0.75401 0.12607 0.12819 0.0
C1680 C 0.80479 0.16852 0.12479 0.0
C1681 C 0.76148 0.14388 0.11068 0.0
C1682 C 0.83469 0.21199 0.10769 0.0
C1683 C 0.8676 0.22542 0.1439 0.0
N1684 N 0.78616 0.16443 0.1096 0.0
N1685 N 0.84666 0.20087 0.14188 0.0
H1686 H 0.61302 0.75049 0.59559 0.0
H1687 H 0.65466 0.88412 0.65813 0.0
H1688 H 0.65249 0.76989 0.65845 0.0
H1689 H 0.60991 0.85884 0.5979 0.0
H1690 H 0.66308 0.8475 0.65493 0.0
H1691 H 0.62129 0.79501 0.59239 0.0
C1692 C 0.62382 0.76432 0.60859 0.0
C1693 C 0.63173 0.75645 0.62747 0.0
C1694 C 0.65184 0.85031 0.64222 0.0
C1695 C 0.64077 0.80743 0.6242 0.0
C1696 C 0.64715 0.87125 0.64399 0.0
C1697 C 0.63123 0.87419 0.62844 0.0
C1698 C 0.64064 0.83248 0.62472 0.0
C1699 C 0.62193 0.857 0.61046 0.0
C1700 C 0.62851 0.78977 0.60679 0.0
C1701 C 0.64595 0.77521 0.64368 0.0
N1702 N 0.62655 0.83678 0.60922 0.0
N1703 N 0.64957 0.79979 0.6419 0.0
H1704 H 0.76843 0.65368 0.15704 0.0
H1705 H 0.86019 0.61012 0.09675 0.0
H1706 H 0.74915 0.60806 0.0973 0.0
H1707 H 0.88047 0.65144 0.15876 0.0
H1708 H 0.82393 0.61828 0.09293 0.0
H1709 H 0.81335 0.66168 0.15437 0.0
C1710 C 0.77381 0.64588 0.14312 0.0
C1711 C 0.75501 0.62984 0.12756 0.0
C1712 C 0.83644 0.62592 0.10727 0.0
C1713 C 0.80603 0.63878 0.12444 0.0
C1714 C 0.85719 0.62128 0.10943 0.0
C1715 C 0.87306 0.62978 0.12826 0.0
C1716 C 0.83111 0.63873 0.12428 0.0
C1717 C 0.86855 0.64445 0.14404 0.0
C1718 C 0.79938 0.65034 0.14165 0.0
C1719 C 0.76294 0.62018 0.10986 0.0
N1720 N 0.84761 0.64804 0.14192 0.0
N1721 N 0.78772 0.62457 0.10892 0.0
H1722 H 0.23145 0.88307 0.6581 0.0
H1723 H 0.13998 0.74802 0.59721 0.0
H1724 H 0.25145 0.85654 0.59885 0.0
H1725 H 0.11897 0.769 0.65889 0.0
H1726 H 0.17654 0.79233 0.59375 0.0
H1727 H 0.18649 0.84625 0.65507 0.0
C1728 C 0.22622 0.86986 0.64421 0.0
C1729 C 0.24522 0.87254 0.62889 0.0
C1730 C 0.16381 0.78747 0.60794 0.0
C1731 C 0.19417 0.8306 0.62536 0.0
C1732 C 0.14289 0.76215 0.60989 0.0
C1733 C 0.12672 0.75479 0.62853 0.0
C1734 C 0.169 0.80556 0.62496 0.0
C1735 C 0.13113 0.77393 0.64432 0.0
C1736 C 0.20064 0.84881 0.64254 0.0
C1737 C 0.2375 0.85492 0.61123 0.0
N1738 N 0.15223 0.79839 0.64241 0.0
N1739 N 0.2127 0.83461 0.61008 0.0
H1740 H 0.88372 0.65315 0.34213 0.0
H1741 H 0.74937 0.61144 0.40336 0.0
H1742 H 0.8581 0.60903 0.40267 0.0
H1743 H 0.76958 0.65115 0.34061 0.0
H1744 H 0.79385 0.61976 0.40704 0.0
H1745 H 0.847 0.66147 0.34478 0.0
C1746 C 0.87075 0.64577 0.35622 0.0
C1747 C 0.87363 0.63003 0.37202 0.0
C1748 C 0.78879 0.62702 0.39256 0.0
C1749 C 0.83179 0.63934 0.37511 0.0
C1750 C 0.76337 0.6223 0.39049 0.0
C1751 C 0.75575 0.63028 0.3715 0.0
C1752 C 0.8067 0.63937 0.37532 0.0
C1753 C 0.77471 0.64456 0.35546 0.0
C1754 C 0.84976 0.65041 0.35767 0.0
C1755 C 0.85631 0.62089 0.38992 0.0
N1756 N 0.79928 0.64822 0.3575 0.0
N1757 N 0.83604 0.62545 0.39085 0.0
H1758 H 0.13947 0.7483 0.90411 0.0
H1759 H 0.23046 0.88368 0.84338 0.0
H1760 H 0.1182 0.76928 0.84254 0.0
H1761 H 0.2508 0.85712 0.90243 0.0
H1762 H 0.18563 0.84661 0.84635 0.0
H1763 H 0.17605 0.7926 0.9075 0.0
C1764 C 0.14233 0.76242 0.89143 0.0
C1765 C 0.12607 0.75506 0.87285 0.0
C1766 C 0.19983 0.84922 0.85884 0.0
C1767 C 0.16837 0.80584 0.87635 0.0
C1768 C 0.22534 0.87041 0.85721 0.0
C1769 C 0.2444 0.87318 0.87249 0.0
C1770 C 0.19349 0.83094 0.87595 0.0
C1771 C 0.2368 0.85546 0.89008 0.0
C1772 C 0.16327 0.78774 0.89334 0.0
C1773 C 0.13043 0.77419 0.85707 0.0
N1774 N 0.21207 0.83501 0.89119 0.0
N1775 N 0.15153 0.79867 0.85895 0.0
H1776 H 0.34732 0.11565 0.34345 0.0
H1777 H 0.39198 0.2515 0.40346 0.0
H1778 H 0.39458 0.14273 0.40228 0.0
H1779 H 0.3497 0.23015 0.34191 0.0
H1780 H 0.38421 0.2072 0.40709 0.0
H1781 H 0.33959 0.15275 0.34623 0.0
C1782 C 0.35556 0.12905 0.3572 0.0
C1783 C 0.37194 0.12642 0.37247 0.0
C1784 C 0.37629 0.21198 0.39289 0.0
C1785 C 0.36329 0.16867 0.37571 0.0
C1786 C 0.38071 0.2373 0.39083 0.0
C1787 C 0.37181 0.24455 0.37219 0.0
C1788 C 0.36328 0.19378 0.37597 0.0
C1789 C 0.357 0.22532 0.35649 0.0
C1790 C 0.35125 0.15025 0.35872 0.0
C1791 C 0.38218 0.14429 0.38994 0.0
N1792 N 0.35361 0.20085 0.3585 0.0
N1793 N 0.37788 0.16474 0.39095 0.0
H1794 H 0.25084 0.39056 0.90465 0.0
H1795 H 0.11547 0.34671 0.84431 0.0
H1796 H 0.2298 0.34905 0.84273 0.0
H1797 H 0.14189 0.39269 0.90385 0.0
H1798 H 0.1524 0.33874 0.84707 0.0
H1799 H 0.20642 0.38242 0.90842 0.0
C1800 C 0.23668 0.37936 0.89198 0.0
C1801 C 0.24405 0.37081 0.87319 0.0
C1802 C 0.14979 0.35016 0.85973 0.0
C1803 C 0.19315 0.36187 0.87711 0.0
C1804 C 0.12867 0.3546 0.85821 0.0
C1805 C 0.12593 0.37072 0.87369 0.0
C1806 C 0.16802 0.36182 0.8769 0.0
C1807 C 0.14355 0.3805 0.89136 0.0
C1808 C 0.21129 0.37473 0.8941 0.0
C1809 C 0.22488 0.35609 0.85742 0.0
N1810 N 0.16394 0.37612 0.89235 0.0
N1811 N 0.20034 0.3525 0.85951 0.0
H1812 H 0.76924 0.11554 0.34222 0.0
H1813 H 0.85932 0.25009 0.40426 0.0
H1814 H 0.7489 0.14041 0.40223 0.0
H1815 H 0.88088 0.23037 0.34224 0.0
H1816 H 0.82319 0.20551 0.4074 0.0
H1817 H 0.81396 0.15275 0.34539 0.0
C1818 C 0.77435 0.12846 0.3563 0.0
C1819 C 0.75531 0.1252 0.3718 0.0
C1820 C 0.83594 0.2107 0.3932 0.0
C1821 C 0.80608 0.16761 0.37548 0.0
C1822 C 0.85662 0.23619 0.39143 0.0
C1823 C 0.87282 0.24397 0.3728 0.0
C1824 C 0.83103 0.19288 0.37601 0.0
C1825 C 0.86869 0.22512 0.35681 0.0
C1826 C 0.7998 0.14973 0.35805 0.0
C1827 C 0.76289 0.14247 0.38971 0.0
N1828 N 0.84783 0.20048 0.35856 0.0
N1829 N 0.78755 0.16302 0.39092 0.0
H1830 H 0.608 0.74855 0.9031 0.0
H1831 H 0.65294 0.88424 0.84287 0.0
H1832 H 0.65055 0.76981 0.84168 0.0
H1833 H 0.60619 0.85768 0.902 0.0
H1834 H 0.6607 0.84718 0.84577 0.0
H1835 H 0.61604 0.79294 0.90676 0.0
C1836 C 0.61939 0.76275 0.89051 0.0
C1837 C 0.62829 0.75545 0.87189 0.0
C1838 C 0.64916 0.84979 0.85831 0.0
C1839 C 0.63712 0.80633 0.87569 0.0
C1840 C 0.64483 0.87098 0.85671 0.0
C1841 C 0.62856 0.87373 0.87203 0.0
C1842 C 0.63723 0.83149 0.8754 0.0
C1843 C 0.6185 0.85602 0.88963 0.0
C1844 C 0.62397 0.78813 0.89258 0.0
C1845 C 0.64324 0.77468 0.85623 0.0
N1846 N 0.62278 0.83557 0.89069 0.0
N1847 N 0.64678 0.7992 0.85825 0.0
H1848 H 0.38313 0.01887 0.93766 0.0
H1849 H 0.36397 0.97977 0.06485 0.0
H1850 H 0.3603 0.94092 0.95981 0.0
H1851 H 0.41922 0.05758 0.0425 0.0
H1852 H 0.35594 0.9651 0.02631 0.0
H1853 H 0.39007 0.03348 0.97621 0.0
C1854 C 0.37951 0.00484 0.95063 0.0
C1855 C 0.37128 0.9787 0.94556 0.0
C1856 C 0.36982 0.98536 0.02991 0.0
C1857 C 0.3788 0.99515 0.98952 0.0
C1858 C 0.37435 0.99375 0.05184 0.0
C1859 C 0.39239 0.01988 0.05684 0.0
C1860 C 0.38303 0.00336 0.01291 0.0
C1861 C 0.4053 0.03721 0.03937 0.0
C1862 C 0.38355 0.0132 0.97256 0.0
C1863 C 0.36687 0.96131 0.96299 0.0
N1864 N 0.40026 0.02868 0.01816 0.0
N1865 N 0.37054 0.96981 0.98422 0.0
H1866 H 0.4207 0.361 0.45898 0.0
H1867 H 0.36 0.42104 0.54105 0.0
H1868 H 0.36538 0.38372 0.43719 0.0
H1869 H 0.38352 0.36634 0.56288 0.0
H1870 H 0.36685 0.41263 0.5028 0.0
H1871 H 0.41231 0.36788 0.49722 0.0
C1872 C 0.40683 0.3675 0.46224 0.0
C1873 C 0.39373 0.37185 0.4449 0.0
C1874 C 0.37043 0.40243 0.51598 0.0
C1875 C 0.38428 0.37996 0.48855 0.0
C1876 C 0.36667 0.40731 0.5378 0.0
C1877 C 0.37126 0.39439 0.55515 0.0
C1878 C 0.37933 0.38491 0.5115 0.0
C1879 C 0.37971 0.37667 0.54998 0.0
C1880 C 0.40198 0.37128 0.48406 0.0
C1881 C 0.37585 0.3801 0.45009 0.0
N1882 N 0.38371 0.37261 0.52859 0.0
N1883 N 0.37181 0.38411 0.47147 0.0
H1884 H 0.98049 0.36517 0.9378 0.0
H1885 H 0.01824 0.38364 0.0653 0.0
H1886 H 0.05831 0.41966 0.96065 0.0
H1887 H 0.94072 0.36149 0.04243 0.0
H1888 H 0.03331 0.39058 0.02687 0.0
H1889 H 0.96545 0.35714 0.97623 0.0
C1890 C 0.9944 0.37537 0.95089 0.0
C1891 C 0.02064 0.39321 0.94606 0.0
C1892 C 0.01302 0.38422 0.03034 0.0
C1893 C 0.00369 0.38386 0.98988 0.0
C1894 C 0.0044 0.38018 0.0522 0.0
C1895 C 0.97824 0.37212 0.05703 0.0
C1896 C 0.99522 0.37965 0.01322 0.0
C1897 C 0.96111 0.36791 0.03944 0.0
C1898 C 0.9858 0.37085 0.97276 0.0
C1899 C 0.03786 0.40591 0.96364 0.0
N1900 N 0.96987 0.37157 0.01829 0.0
N1901 N 0.02912 0.40087 0.9848 0.0
H1902 H 0.63883 0.05922 0.45904 0.0
H1903 H 0.57929 0.93924 0.54194 0.0
H1904 H 0.61575 0.98089 0.43782 0.0
H1905 H 0.63413 0.01766 0.56324 0.0
H1906 H 0.58733 0.95418 0.50362 0.0
H1907 H 0.63214 0.04435 0.4974 0.0
C1908 C 0.63228 0.03887 0.46245 0.0
C1909 C 0.62778 0.02122 0.44523 0.0
C1910 C 0.59763 0.96807 0.51669 0.0
C1911 C 0.6199 0.00413 0.48902 0.0
C1912 C 0.59297 0.95963 0.53856 0.0
C1913 C 0.60605 0.97727 0.55578 0.0
C1914 C 0.61511 0.99446 0.51203 0.0
C1915 C 0.62369 0.00342 0.55043 0.0
C1916 C 0.62861 0.03046 0.48433 0.0
C1917 C 0.61949 0.99513 0.45061 0.0
N1918 N 0.62755 0.01129 0.529 0.0
N1919 N 0.61559 0.9873 0.47205 0.0
H1920 H 0.61499 0.63445 0.0626 0.0
H1921 H 0.63521 0.61621 0.93528 0.0
H1922 H 0.63869 0.58015 0.04004 0.0
H1923 H 0.57967 0.6383 0.9578 0.0
H1924 H 0.64304 0.60915 0.97376 0.0
H1925 H 0.60818 0.64245 0.02412 0.0
C1926 C 0.61881 0.62428 0.04956 0.0
C1927 C 0.62727 0.60651 0.05449 0.0
C1928 C 0.62914 0.61553 0.97021 0.0
C1929 C 0.61989 0.61583 0.01061 0.0
C1930 C 0.62474 0.61963 0.94831 0.0
C1931 C 0.60667 0.62771 0.94337 0.0
C1932 C 0.61578 0.62005 0.98724 0.0
C1933 C 0.59361 0.63187 0.96088 0.0
C1934 C 0.61484 0.62878 0.02766 0.0
C1935 C 0.63194 0.59385 0.03697 0.0
N1936 N 0.59854 0.62814 0.98206 0.0
N1937 N 0.62834 0.59886 0.01578 0.0
H1938 H 0.05882 0.6379 0.54246 0.0
H1939 H 0.93837 0.57914 0.46013 0.0
H1940 H 0.98095 0.61607 0.56411 0.0
H1941 H 0.0169 0.63309 0.4385 0.0
H1942 H 0.95348 0.58738 0.49842 0.0
H1943 H 0.04367 0.63116 0.50421 0.0
C1944 C 0.03851 0.63162 0.53917 0.0
C1945 C 0.02108 0.62748 0.55648 0.0
C1946 C 0.96736 0.59745 0.48528 0.0
C1947 C 0.00364 0.61954 0.51279 0.0
C1948 C 0.95881 0.59267 0.46343 0.0
C1949 C 0.97645 0.60543 0.44612 0.0
C1950 C 0.99382 0.61471 0.48983 0.0
C1951 C 0.00267 0.62289 0.45137 0.0
C1952 C 0.02994 0.62792 0.51734 0.0
C1953 C 0.99503 0.61952 0.55124 0.0
N1954 N 0.01063 0.62686 0.47277 0.0
N1955 N 0.98702 0.61558 0.52984 0.0
H1956 H 0.57802 0.93936 0.9589 0.0
H1957 H 0.63724 0.05892 0.04211 0.0
H1958 H 0.63301 0.01784 0.93786 0.0
H1959 H 0.61504 0.98076 0.06316 0.0
H1960 H 0.63051 0.04413 0.00374 0.0
H1961 H 0.58609 0.95411 0.9973 0.0
C1962 C 0.59174 0.95971 0.96236 0.0
C1963 C 0.60485 0.97745 0.94519 0.0
C1964 C 0.62719 0.03026 0.01677 0.0
C1965 C 0.61392 0.9944 0.989 0.0
C1966 C 0.63087 0.03862 0.03866 0.0
C1967 C 0.62664 0.021 0.05583 0.0
C1968 C 0.61871 0.00399 0.01203 0.0
C1969 C 0.61857 0.99497 0.0504 0.0
C1970 C 0.59641 0.96805 0.98426 0.0
C1971 C 0.62254 0.00355 0.95062 0.0
N1972 N 0.61463 0.98717 0.02895 0.0
N1973 N 0.6264 0.01131 0.97208 0.0
H1974 H 0.61569 0.63511 0.43532 0.0
H1975 H 0.63506 0.61561 0.56261 0.0
H1976 H 0.63846 0.58007 0.45782 0.0
H1977 H 0.58079 0.63944 0.54023 0.0
H1978 H 0.64279 0.60861 0.5241 0.0
H1979 H 0.60894 0.64314 0.47383 0.0
C1980 C 0.61932 0.62478 0.44835 0.0
C1981 C 0.6275 0.6068 0.4434 0.0
C1982 C 0.62918 0.61535 0.52769 0.0
C1983 C 0.62019 0.61613 0.4873 0.0
C1984 C 0.62483 0.61942 0.5496 0.0
C1985 C 0.60715 0.62798 0.55459 0.0
C1986 C 0.61615 0.62036 0.51068 0.0
C1987 C 0.59442 0.63263 0.53711 0.0
C1988 C 0.61539 0.6293 0.47026 0.0
C1989 C 0.63193 0.59394 0.46091 0.0
N1990 N 0.59928 0.62891 0.51591 0.0
N1991 N 0.62837 0.59896 0.4821 0.0
H1992 H 0.01855 0.63502 0.06498 0.0
H1993 H 0.97998 0.61612 0.93764 0.0
H1994 H 0.9407 0.58024 0.04237 0.0
H1995 H 0.0578 0.63885 0.96007 0.0
H1996 H 0.9652 0.60921 0.97614 0.0
H1997 H 0.0334 0.64306 0.02648 0.0
C1998 C 0.0046 0.62475 0.05193 0.0
C1999 C 0.9784 0.60684 0.05685 0.0
C2000 C 0.98549 0.6157 0.97257 0.0
C2001 C 0.99513 0.6162 0.01296 0.0
C2002 C 0.99395 0.61972 0.95066 0.0
C2003 C 0.02011 0.62792 0.94568 0.0
C2004 C 0.00345 0.62042 0.98959 0.0
C2005 C 0.03741 0.63231 0.96318 0.0
C2006 C 0.01309 0.62928 0.03002 0.0
C2007 C 0.96112 0.59405 0.03931 0.0
N2008 N 0.02881 0.62865 0.98437 0.0
N2009 N 0.96976 0.5991 0.01813 0.0
H2010 H 0.36148 0.93931 0.54232 0.0
H2011 H 0.42113 0.0596 0.45983 0.0
H2012 H 0.38438 0.01745 0.56396 0.0
H2013 H 0.36577 0.98138 0.43845 0.0
H2014 H 0.41307 0.04454 0.49815 0.0
H2015 H 0.36814 0.95444 0.50405 0.0
C2016 C 0.36798 0.95968 0.53902 0.0
C2017 C 0.37243 0.9772 0.55633 0.0
C2018 C 0.40266 0.03073 0.48505 0.0
C2019 C 0.38029 0.99458 0.51264 0.0
C2020 C 0.40733 0.03924 0.46319 0.0
C2021 C 0.39411 0.02167 0.44595 0.0
C2022 C 0.38505 0.00437 0.48967 0.0
C2023 C 0.37632 0.99556 0.45127 0.0
C2024 C 0.37164 0.96823 0.51719 0.0
C2025 C 0.38068 0.00331 0.55109 0.0
N2026 N 0.37247 0.98762 0.47268 0.0
N2027 N 0.38457 0.01129 0.52969 0.0
H2028 H 0.36397 0.38314 0.06373 0.0
H2029 H 0.38391 0.36498 0.93627 0.0
H2030 H 0.41908 0.36053 0.0411 0.0
H2031 H 0.36092 0.41973 0.9591 0.0
H2032 H 0.39053 0.35665 0.97473 0.0
H2033 H 0.35613 0.39025 0.02526 0.0
C2034 C 0.37434 0.3796 0.05068 0.0
C2035 C 0.3923 0.37138 0.05558 0.0
C2036 C 0.38405 0.37049 0.97125 0.0
C2037 C 0.38319 0.37911 0.01172 0.0
C2038 C 0.3802 0.37518 0.94937 0.0
C2039 C 0.372 0.39317 0.94452 0.0
C2040 C 0.37915 0.38348 0.98837 0.0
C2041 C 0.36746 0.40586 0.96211 0.0
C2042 C 0.36993 0.38374 0.02879 0.0
C2043 C 0.40522 0.36708 0.03805 0.0
N2044 N 0.37095 0.40066 0.98327 0.0
N2045 N 0.4003 0.37085 0.01688 0.0
H2046 H 0.97979 0.36425 0.56523 0.0
H2047 H 0.01811 0.38329 0.43782 0.0
H2048 H 0.05762 0.419 0.54257 0.0
H2049 H 0.94025 0.3601 0.46047 0.0
H2050 H 0.03302 0.39027 0.47629 0.0
H2051 H 0.96489 0.35621 0.52676 0.0
C2052 C 0.99373 0.37451 0.55217 0.0
C2053 C 0.01993 0.39242 0.55707 0.0
C2054 C 0.01269 0.38367 0.47277 0.0
C2055 C 0.00314 0.38306 0.5132 0.0
C2056 C 0.00416 0.3796 0.45088 0.0
C2057 C 0.97795 0.37125 0.44598 0.0
C2058 C 0.99476 0.37883 0.48984 0.0
C2059 C 0.96069 0.36676 0.46352 0.0
C2060 C 0.98521 0.36999 0.53028 0.0
C2061 C 0.0372 0.40519 0.53952 0.0
N2062 N 0.96936 0.37046 0.48469 0.0
N2063 N 0.02853 0.40016 0.51834 0.0
H2064 H 0.49126 0.09518 0.14365 0.0
H2065 H 0.56344 0.0131 0.12276 0.0
H2066 H 0.44992 0.01443 0.1229 0.0
H2067 H 0.60178 0.09421 0.14241 0.0
H2068 H 0.52129 0.01175 0.12443 0.0
H2069 H 0.53142 0.09365 0.14507 0.0
C2070 C 0.49055 0.07704 0.13941 0.0
C2071 C 0.46708 0.05493 0.13298 0.0
C2072 C 0.53898 0.02976 0.12844 0.0
C2073 C 0.51346 0.05309 0.13454 0.0
C2074 C 0.56304 0.03056 0.12751 0.0
C2075 C 0.58629 0.05385 0.1323 0.0
C2076 C 0.53822 0.05239 0.13424 0.0
C2077 C 0.58451 0.07584 0.1384 0.0
C2078 C 0.51361 0.07618 0.14024 0.0
C2079 C 0.46755 0.03197 0.12787 0.0
N2080 N 0.56098 0.07455 0.13913 0.0
N2081 N 0.49044 0.03168 0.12864 0.0
H2082 H 0.50803 0.60569 0.63922 0.0
H2083 H 0.43539 0.45076 0.62191 0.0
H2084 H 0.54925 0.56516 0.62148 0.0
H2085 H 0.39709 0.49428 0.63931 0.0
H2086 H 0.47754 0.49157 0.6229 0.0
H2087 H 0.46757 0.56421 0.64058 0.0
C2088 C 0.50865 0.58806 0.63562 0.0
C2089 C 0.53219 0.58905 0.63009 0.0
C2090 C 0.45987 0.49208 0.62655 0.0
C2091 C 0.48548 0.54108 0.63162 0.0
C2092 C 0.4358 0.4688 0.626 0.0
C2093 C 0.41256 0.46903 0.6304 0.0
C2094 C 0.46066 0.51568 0.63157 0.0
C2095 C 0.41435 0.49302 0.63566 0.0
C2096 C 0.48542 0.56427 0.63642 0.0
C2097 C 0.53158 0.56538 0.62575 0.0
N2098 N 0.4379 0.51527 0.63603 0.0
N2099 N 0.50855 0.54233 0.62652 0.0
H2100 H 0.98442 0.43531 0.12366 0.0
H2101 H 0.90201 0.50754 0.14253 0.0
H2102 H 0.90281 0.39684 0.14176 0.0
H2103 H 0.98331 0.5489 0.12335 0.0
H2104 H 0.90333 0.46725 0.14395 0.0
H2105 H 0.98571 0.47744 0.12503 0.0
C2106 C 0.96683 0.43568 0.128 0.0
C2107 C 0.94342 0.4124 0.13246 0.0
C2108 C 0.92096 0.48509 0.13946 0.0
C2109 C 0.94482 0.46046 0.13406 0.0
C2110 C 0.92022 0.50823 0.13863 0.0
C2111 C 0.94256 0.53175 0.13266 0.0
C2112 C 0.94416 0.48523 0.13424 0.0
C2113 C 0.96559 0.53124 0.12797 0.0
C2114 C 0.96759 0.45973 0.12876 0.0
C2115 C 0.92128 0.41413 0.13804 0.0
N2116 N 0.96577 0.50829 0.12875 0.0
N2117 N 0.92254 0.43766 0.13861 0.0
H2118 H 0.4358 0.98447 0.6233 0.0
H2119 H 0.50791 0.90183 0.64145 0.0
H2120 H 0.39724 0.90278 0.64117 0.0
H2121 H 0.54933 0.98333 0.62286 0.0
H2122 H 0.46761 0.90313 0.64294 0.0
H2123 H 0.47788 0.98569 0.62454 0.0
C2124 C 0.43614 0.96685 0.62756 0.0
C2125 C 0.41285 0.94345 0.632 0.0
C2126 C 0.48547 0.9208 0.63856 0.0
C2127 C 0.46086 0.94475 0.63343 0.0
C2128 C 0.5086 0.92008 0.63769 0.0
C2129 C 0.53215 0.94248 0.63187 0.0
C2130 C 0.48562 0.94406 0.63353 0.0
C2131 C 0.53164 0.96556 0.62735 0.0
C2132 C 0.46017 0.96757 0.62824 0.0
C2133 C 0.41455 0.92125 0.63747 0.0
N2134 N 0.5087 0.96573 0.62818 0.0
N2135 N 0.43806 0.92248 0.63796 0.0
H2136 H 0.60389 0.50737 0.14025 0.0
H2137 H 0.44917 0.43496 0.12185 0.0
H2138 H 0.56392 0.54868 0.12101 0.0
H2139 H 0.49249 0.39672 0.14004 0.0
H2140 H 0.48999 0.47713 0.12293 0.0
H2141 H 0.5623 0.4671 0.14177 0.0
C2142 C 0.58636 0.50805 0.13635 0.0
C2143 C 0.58754 0.53156 0.13035 0.0
C2144 C 0.49044 0.45946 0.12674 0.0
C2145 C 0.53942 0.48504 0.13204 0.0
C2146 C 0.46716 0.43539 0.12615 0.0
C2147 C 0.46734 0.41216 0.13073 0.0
C2148 C 0.51399 0.46026 0.132 0.0
C2149 C 0.49127 0.41397 0.13624 0.0
C2150 C 0.5625 0.48492 0.13724 0.0
C2151 C 0.56398 0.53103 0.12565 0.0
N2152 N 0.51352 0.43751 0.13665 0.0
N2153 N 0.54085 0.50808 0.1265 0.0
H2154 H 0.09588 0.49171 0.643 0.0
H2155 H 0.01381 0.56416 0.62339 0.0
H2156 H 0.01476 0.45046 0.6233 0.0
H2157 H 0.09535 0.60253 0.6417 0.0
H2158 H 0.01243 0.52199 0.62487 0.0
H2159 H 0.09462 0.53203 0.64427 0.0
C2160 C 0.07771 0.49105 0.63896 0.0
C2161 C 0.05542 0.46755 0.63288 0.0
C2162 C 0.03055 0.53969 0.62862 0.0
C2163 C 0.05389 0.51412 0.63429 0.0
C2164 C 0.03137 0.56376 0.6278 0.0
C2165 C 0.05478 0.58702 0.63229 0.0
C2166 C 0.05328 0.53892 0.63402 0.0
C2167 C 0.07688 0.58525 0.63796 0.0
C2168 C 0.07702 0.51421 0.6397 0.0
C2169 C 0.03245 0.46811 0.628 0.0
N2170 N 0.07557 0.5617 0.63859 0.0
N2171 N 0.0323 0.49108 0.6287 0.0
H2172 H 0.90108 0.50643 0.36136 0.0
H2173 H 0.98426 0.43481 0.37918 0.0
H2174 H 0.98278 0.54818 0.37929 0.0
H2175 H 0.90229 0.39586 0.36223 0.0
H2176 H 0.98528 0.4768 0.37798 0.0
H2177 H 0.90241 0.46612 0.36025 0.0
C2178 C 0.91938 0.5072 0.36505 0.0
C2179 C 0.94184 0.53084 0.37056 0.0
C2180 C 0.96713 0.45902 0.37448 0.0
C2181 C 0.94345 0.48431 0.36932 0.0
C2182 C 0.96652 0.43504 0.37514 0.0
C2183 C 0.94312 0.41167 0.37092 0.0
C2184 C 0.9442 0.45959 0.36952 0.0
C2185 C 0.92078 0.41324 0.36574 0.0
C2186 C 0.92011 0.48405 0.3644 0.0
C2187 C 0.96497 0.53042 0.37503 0.0
N2188 N 0.9219 0.4367 0.36525 0.0
N2189 N 0.96516 0.50748 0.3744 0.0
H2190 H 0.50724 0.90401 0.85771 0.0
H2191 H 0.43504 0.986 0.87911 0.0
H2192 H 0.54855 0.98456 0.87902 0.0
H2193 H 0.39667 0.90482 0.85965 0.0
H2194 H 0.47719 0.98733 0.87746 0.0
H2195 H 0.46707 0.90553 0.8565 0.0
C2196 C 0.50794 0.9221 0.86212 0.0
C2197 C 0.53141 0.94415 0.86864 0.0
C2198 C 0.4595 0.9693 0.8735 0.0
C2199 C 0.48501 0.94598 0.86732 0.0
C2200 C 0.43544 0.96852 0.87442 0.0
C2201 C 0.41218 0.94522 0.86965 0.0
C2202 C 0.46025 0.94666 0.86771 0.0
C2203 C 0.41394 0.92321 0.86362 0.0
C2204 C 0.48487 0.92295 0.86141 0.0
C2205 C 0.53092 0.96706 0.87397 0.0
N2206 N 0.43747 0.92449 0.86289 0.0
N2207 N 0.50803 0.96735 0.8733 0.0
H2208 H 0.45 0.4354 0.37774 0.0
H2209 H 0.60458 0.50728 0.35856 0.0
H2210 H 0.49284 0.3967 0.35941 0.0
H2211 H 0.56469 0.54892 0.37702 0.0
H2212 H 0.56294 0.46698 0.35742 0.0
H2213 H 0.49089 0.47746 0.37623 0.0
C2214 C 0.4679 0.4357 0.37333 0.0
C2215 C 0.46792 0.41238 0.36884 0.0
C2216 C 0.56318 0.48488 0.36169 0.0
C2217 C 0.51466 0.46036 0.36708 0.0
C2218 C 0.58705 0.50802 0.36236 0.0
C2219 C 0.58827 0.53163 0.36804 0.0
C2220 C 0.54012 0.48511 0.36678 0.0
C2221 C 0.56473 0.53119 0.37263 0.0
C2222 C 0.49122 0.45971 0.37248 0.0
C2223 C 0.49174 0.41403 0.36316 0.0
N2224 N 0.5416 0.50825 0.372 0.0
N2225 N 0.51404 0.43752 0.36251 0.0
H2226 H 0.09652 0.49273 0.86054 0.0
H2227 H 0.0134 0.56422 0.87937 0.0
H2228 H 0.01521 0.45092 0.87968 0.0
H2229 H 0.09473 0.60287 0.86034 0.0
H2230 H 0.01238 0.52221 0.87823 0.0
H2231 H 0.09487 0.53283 0.85902 0.0
C2232 C 0.07823 0.49191 0.86441 0.0
C2233 C 0.05599 0.46831 0.87039 0.0
C2234 C 0.03038 0.53993 0.87424 0.0
C2235 C 0.05401 0.51463 0.8687 0.0
C2236 C 0.03099 0.56392 0.87487 0.0
C2237 C 0.05423 0.58722 0.87008 0.0
C2238 C 0.05315 0.5393 0.86875 0.0
C2239 C 0.07638 0.58557 0.86432 0.0
C2240 C 0.07731 0.51494 0.86352 0.0
C2241 C 0.03286 0.46865 0.87506 0.0
N2242 N 0.07527 0.56211 0.86388 0.0
N2243 N 0.0325 0.4915 0.87422 0.0
H2244 H 0.6038 0.09514 0.35801 0.0
H2245 H 0.44956 0.01349 0.37922 0.0
H2246 H 0.56427 0.0145 0.3791 0.0
H2247 H 0.49252 0.09461 0.35961 0.0
H2248 H 0.49031 0.01204 0.37762 0.0
H2249 H 0.56218 0.09378 0.35677 0.0
C2250 C 0.58636 0.07706 0.36236 0.0
C2251 C 0.58768 0.05493 0.36882 0.0
C2252 C 0.49069 0.03008 0.37362 0.0
C2253 C 0.53953 0.05329 0.36747 0.0
C2254 C 0.46746 0.03094 0.3745 0.0
C2255 C 0.46756 0.05425 0.36968 0.0
C2256 C 0.51412 0.05268 0.36782 0.0
C2257 C 0.49136 0.07621 0.36362 0.0
C2258 C 0.56248 0.0763 0.36164 0.0
C2259 C 0.56422 0.03206 0.37409 0.0
N2260 N 0.51357 0.07487 0.36293 0.0
N2261 N 0.54109 0.03186 0.37341 0.0
H2262 H 0.55004 0.56479 0.8769 0.0
H2263 H 0.39528 0.4929 0.85891 0.0
H2264 H 0.50707 0.60332 0.85844 0.0
H2265 H 0.43516 0.45139 0.87781 0.0
H2266 H 0.43696 0.53309 0.85718 0.0
H2267 H 0.50912 0.52274 0.87584 0.0
C2268 C 0.5321 0.56445 0.87253 0.0
C2269 C 0.53205 0.58773 0.86789 0.0
C2270 C 0.43671 0.51524 0.86167 0.0
C2271 C 0.48528 0.53975 0.86666 0.0
C2272 C 0.41281 0.49216 0.86269 0.0
C2273 C 0.41159 0.46862 0.86867 0.0
C2274 C 0.45978 0.51503 0.86672 0.0
C2275 C 0.43514 0.46907 0.8732 0.0
C2276 C 0.50876 0.54044 0.87196 0.0
C2277 C 0.50819 0.58602 0.8623 0.0
N2278 N 0.4583 0.49196 0.87223 0.0
N2279 N 0.48587 0.56254 0.86191 0.0
loop_
_geom_bond_atom_site_label_1
_geom_bond_atom_site_label_2
_geom_bond_distance
_geom_bond_site_symmetry_2
_ccdc_geom_bond_type
Co0 O2 2.143 . S
Co0 O8 2.074 . S
Co0 O11 2.093 . S
Co0 O24 2.097 . S
Co0 N41 2.151 . S
Co0 N49 2.214 . S
Co1 O2 2.160 . S
Co1 O7 2.058 . S
Co1 O17 2.057 . S
Co1 O32 2.037 . S
Co1 N36 2.145 1_545 S
Co1 N57 2.257 . S
O2 Co0 2.143 . S
O2 Co1 2.160 . S
C3 O4 1.278 . S
C3 O11 1.224 . S
O4 C3 1.278 . S
C5 O6 1.245 . S
C5 O17 1.232 . S
O6 C5 1.245 . S
O7 Co1 2.058 . S
O7 C33 1.269 . S
O8 Co0 2.074 . S
O8 C33 1.257 . S
H9 C34 0.930 . S
H10 C40 0.930 . S
O11 Co0 2.093 . S
O11 C3 1.224 . S
H12 C44 0.929 . S
H13 C46 0.930 . S
H14 C47 0.930 . S
H15 C45 0.929 . S
H16 C48 0.928 . S
O17 Co1 2.057 . S
O17 C5 1.232 . S
H18 C37 0.929 . S
H19 C38 0.929 . S
H20 C50 0.931 . S
H21 C42 0.929 . S
H22 C51 0.930 . S
H23 C43 0.931 . S
O24 Co0 2.097 . S
O24 C52 1.214 . S
H25 C53 0.929 . S
H26 C54 0.929 . S
H27 C55 0.930 . S
H28 C56 0.929 . S
H29 C58 0.930 . S
H30 C35 0.930 . S
H31 C39 0.930 . S
O32 Co1 2.037 . S
O32 C52 1.234 . S
C33 O7 1.269 . S
C33 O8 1.257 . S
C34 H9 0.930 . S
C34 C37 1.388 . S
C34 C39 1.418 . S
C35 H30 0.930 . S
C35 C38 1.404 . S
C35 C39 1.353 . S
N36 Co1 2.145 1_565 S
N36 C37 1.397 . S
N36 C38 1.334 . S
C37 H18 0.929 . S
C37 C34 1.388 . S
C37 N36 1.397 . S
C38 H19 0.929 . S
C38 C35 1.404 . S
C38 N36 1.334 . S
C39 H31 0.930 . S
C39 C34 1.418 . S
C39 C35 1.353 . S
C40 H10 0.930 . S
C40 N41 1.330 . S
C40 C42 1.446 . S
N41 Co0 2.151 . S
N41 C40 1.330 . S
N41 C45 1.418 . S
C42 H21 0.929 . S
C42 C40 1.446 . S
C42 C43 1.332 . S
C43 H23 0.931 . S
C43 C42 1.332 . S
C43 C44 1.267 . S
C44 H12 0.929 . S
C44 C43 1.267 . S
C44 C45 1.251 . S
C45 H15 0.929 . S
C45 N41 1.418 . S
C45 C44 1.251 . S
C46 H13 0.930 . S
C46 C48 1.406 . S
C46 C51 1.261 . S
C47 H14 0.930 . S
C47 N49 1.325 . S
C47 C50 1.357 . S
C48 H16 0.928 . S
C48 C46 1.406 . S
C48 N49 1.261 . S
N49 Co0 2.214 . S
N49 C47 1.325 . S
N49 C48 1.261 . S
C50 H20 0.931 . S
C50 C47 1.357 . S
C50 C51 1.312 . S
C51 H22 0.930 . S
C51 C46 1.261 . S
C51 C50 1.312 . S
C52 O24 1.214 . S
C52 O32 1.234 . S
C53 H25 0.929 . S
C53 C56 1.391 . S
C53 C58 1.391 . S
C54 H26 0.929 . S
C54 C55 1.390 . S
C54 N57 1.391 1_565 S
C55 H27 0.930 . S
C55 C54 1.390 . S
C55 C56 1.392 1_565 S
C56 H28 0.929 . S
C56 C53 1.391 . S
C56 C55 1.392 1_545 S
N57 Co1 2.257 . S
N57 C54 1.391 1_545 S
N57 C58 1.388 . S
C58 H29 0.930 . S
C58 C53 1.391 . S
C58 N57 1.388 . S
Co59 O61 2.143 . S
Co59 O67 2.074 . S
Co59 O70 2.093 . S
Co59 O83 2.097 . S
Co59 N100 2.151 . S
Co59 N108 2.214 . S
Co60 O61 2.160 . S
Co60 O66 2.058 . S
Co60 O76 2.057 . S
Co60 O91 2.037 . S
Co60 N95 2.145 . S
Co60 N116 2.257 . S
O61 Co59 2.143 . S
O61 Co60 2.160 . S
C62 O63 1.278 . S
C62 O70 1.224 . S
O63 C62 1.278 . S
C64 O65 1.245 . S
C64 O76 1.232 . S
O65 C64 1.245 . S
O66 Co60 2.058 . S
O66 C92 1.269 . S
O67 Co59 2.074 . S
O67 C92 1.257 . S
H68 C93 0.930 . S
H69 C99 0.930 . S
O70 Co59 2.093 . S
O70 C62 1.224 . S
H71 C103 0.929 . S
H72 C105 0.930 . S
H73 C106 0.930 . S
H74 C104 0.929 . S
H75 C107 0.928 . S
O76 Co60 2.057 . S
O76 C64 1.232 . S
H77 C96 0.929 . S
H78 C97 0.929 . S
H79 C109 0.931 . S
H80 C101 0.929 . S
H81 C110 0.930 . S
H82 C102 0.931 . S
O83 Co59 2.097 . S
O83 C111 1.214 . S
H84 C112 0.929 . S
H85 C113 0.929 . S
H86 C114 0.930 . S
H87 C115 0.929 . S
H88 C117 0.930 . S
H89 C94 0.930 . S
H90 C98 0.930 . S
O91 Co60 2.037 . S
O91 C111 1.234 . S
C92 O66 1.269 . S
C92 O67 1.257 . S
C93 H68 0.930 . S
C93 C96 1.388 . S
C93 C98 1.418 . S
C94 H89 0.930 . S
C94 C97 1.404 . S
C94 C98 1.353 . S
N95 Co60 2.145 . S
N95 C96 1.397 . S
N95 C97 1.334 . S
C96 H77 0.929 . S
C96 C93 1.388 . S
C96 N95 1.397 . S
C97 H78 0.929 . S
C97 C94 1.404 . S
C97 N95 1.334 . S
C98 H90 0.930 . S
C98 C93 1.418 . S
C98 C94 1.353 . S
C99 H69 0.930 . S
C99 N100 1.330 . S
C99 C101 1.446 . S
N100 Co59 2.151 . S
N100 C99 1.330 . S
N100 C104 1.418 . S
C101 H80 0.929 . S
C101 C99 1.446 . S
C101 C102 1.332 . S
C102 H82 0.931 . S
C102 C101 1.332 . S
C102 C103 1.267 . S
C103 H71 0.929 . S
C103 C102 1.267 . S
C103 C104 1.251 . S
C104 H74 0.929 . S
C104 N100 1.418 . S
C104 C103 1.251 . S
C105 H72 0.930 . S
C105 C107 1.406 . S
C105 C110 1.261 . S
C106 H73 0.930 . S
C106 N108 1.325 . S
C106 C109 1.357 . S
C107 H75 0.928 . S
C107 C105 1.406 . S
C107 N108 1.261 . S
N108 Co59 2.214 . S
N108 C106 1.325 . S
N108 C107 1.261 . S
C109 H79 0.931 . S
C109 C106 1.357 . S
C109 C110 1.312 . S
C110 H81 0.930 . S
C110 C105 1.261 . S
C110 C109 1.312 . S
C111 O83 1.214 . S
C111 O91 1.234 . S
C112 H84 0.929 . S
C112 C115 1.391 . S
C112 C117 1.391 . S
C113 H85 0.929 . S
C113 C114 1.390 . S
C113 N116 1.391 . S
C114 H86 0.930 . S
C114 C113 1.390 . S
C114 C115 1.392 . S
C115 H87 0.929 . S
C115 C112 1.391 . S
C115 C114 1.392 . S
N116 Co60 2.257 . S
N116 C113 1.391 . S
N116 C117 1.388 . S
C117 H88 0.930 . S
C117 C112 1.391 . S
C117 N116 1.388 . S
Co118 O120 2.143 . S
Co118 O126 2.074 . S
Co118 O129 2.093 . S
Co118 O142 2.097 . S
Co118 N159 2.151 . S
Co118 N167 2.214 . S
Co119 O120 2.160 . S
Co119 O125 2.058 . S
Co119 O135 2.057 . S
Co119 O150 2.037 . S
Co119 N154 2.145 1_655 S
Co119 N175 2.257 . S
O120 Co118 2.143 . S
O120 Co119 2.160 . S
C121 O122 1.278 . S
C121 O129 1.224 . S
O122 C121 1.278 . S
C123 O124 1.245 . S
C123 O135 1.232 . S
O124 C123 1.245 . S
O125 Co119 2.058 . S
O125 C151 1.269 . S
O126 Co118 2.074 . S
O126 C151 1.257 . S
H127 C152 0.930 . S
H128 C158 0.930 . S
O129 Co118 2.093 . S
O129 C121 1.224 . S
H130 C162 0.929 . S
H131 C164 0.930 . S
H132 C165 0.930 . S
H133 C163 0.929 . S
H134 C166 0.928 . S
O135 Co119 2.057 . S
O135 C123 1.232 . S
H136 C155 0.929 . S
H137 C156 0.929 . S
H138 C168 0.931 . S
H139 C160 0.929 . S
H140 C169 0.930 . S
H141 C161 0.931 . S
O142 Co118 2.097 . S
O142 C170 1.214 . S
H143 C171 0.929 . S
H144 C172 0.929 . S
H145 C173 0.930 . S
H146 C174 0.929 . S
H147 C176 0.930 . S
H148 C153 0.930 . S
H149 C157 0.930 . S
O150 Co119 2.037 . S
O150 C170 1.234 . S
C151 O125 1.269 . S
C151 O126 1.257 . S
C152 H127 0.930 . S
C152 C155 1.388 . S
C152 C157 1.418 . S
C153 H148 0.930 . S
C153 C156 1.404 . S
C153 C157 1.353 . S
N154 Co119 2.145 1_455 S
N154 C155 1.397 . S
N154 C156 1.334 . S
C155 H136 0.929 . S
C155 C152 1.388 . S
C155 N154 1.397 . S
C156 H137 0.929 . S
C156 C153 1.404 . S
C156 N154 1.334 . S
C157 H149 0.930 . S
C157 C152 1.418 . S
C157 C153 1.353 . S
C158 H128 0.930 . S
C158 N159 1.330 . S
C158 C160 1.446 . S
N159 Co118 2.151 . S
N159 C158 1.330 . S
N159 C163 1.418 . S
C160 H139 0.929 . S
C160 C158 1.446 . S
C160 C161 1.332 . S
C161 H141 0.931 . S
C161 C160 1.332 . S
C161 C162 1.267 . S
C162 H130 0.929 . S
C162 C161 1.267 . S
C162 C163 1.251 . S
C163 H133 0.929 . S
C163 N159 1.418 . S
C163 C162 1.251 . S
C164 H131 0.930 . S
C164 C166 1.406 . S
C164 C169 1.261 . S
C165 H132 0.930 . S
C165 N167 1.325 . S
C165 C168 1.357 . S
C166 H134 0.928 . S
C166 C164 1.406 . S
C166 N167 1.261 . S
N167 Co118 2.214 . S
N167 C165 1.325 . S
N167 C166 1.261 . S
C168 H138 0.931 . S
C168 C165 1.357 . S
C168 C169 1.312 . S
C169 H140 0.930 . S
C169 C164 1.261 . S
C169 C168 1.312 . S
C170 O142 1.214 . S
C170 O150 1.234 . S
C171 H143 0.929 . S
C171 C174 1.391 . S
C171 C176 1.391 . S
C172 H144 0.929 . S
C172 C173 1.390 . S
C172 N175 1.391 1_455 S
C173 H145 0.930 . S
C173 C172 1.390 . S
C173 C174 1.392 1_455 S
C174 H146 0.929 . S
C174 C171 1.391 . S
C174 C173 1.392 1_655 S
N175 Co119 2.257 . S
N175 C172 1.391 1_655 S
N175 C176 1.388 . S
C176 H147 0.930 . S
C176 C171 1.391 . S
C176 N175 1.388 . S
Co177 O179 2.143 . S
Co177 O185 2.074 . S
Co177 O188 2.093 . S
Co177 O201 2.097 . S
Co177 N218 2.151 . S
Co177 N226 2.214 . S
Co178 O179 2.160 . S
Co178 O184 2.058 . S
Co178 O194 2.057 . S
Co178 O209 2.037 . S
Co178 N213 2.145 1_565 S
Co178 N234 2.257 . S
O179 Co177 2.143 . S
O179 Co178 2.160 . S
C180 O181 1.278 . S
C180 O188 1.224 . S
O181 C180 1.278 . S
C182 O183 1.245 . S
C182 O194 1.232 . S
O183 C182 1.245 . S
O184 Co178 2.058 . S
O184 C210 1.269 . S
O185 Co177 2.074 . S
O185 C210 1.257 . S
H186 C211 0.930 . S
H187 C217 0.930 . S
O188 Co177 2.093 . S
O188 C180 1.224 . S
H189 C221 0.929 . S
H190 C223 0.930 . S
H191 C224 0.930 . S
H192 C222 0.929 . S
H193 C225 0.928 . S
O194 Co178 2.057 . S
O194 C182 1.232 . S
H195 C214 0.929 . S
H196 C215 0.929 . S
H197 C227 0.931 . S
H198 C219 0.929 . S
H199 C228 0.930 . S
H200 C220 0.931 . S
O201 Co177 2.097 . S
O201 C229 1.214 . S
H202 C230 0.929 . S
H203 C231 0.929 . S
H204 C232 0.930 . S
H205 C233 0.929 . S
H206 C235 0.930 . S
H207 C212 0.930 . S
H208 C216 0.930 . S
O209 Co178 2.037 . S
O209 C229 1.234 . S
C210 O184 1.269 . S
C210 O185 1.257 . S
C211 H186 0.930 . S
C211 C214 1.388 . S
C211 C216 1.418 . S
C212 H207 0.930 . S
C212 C215 1.404 . S
C212 C216 1.353 . S
N213 Co178 2.145 1_545 S
N213 C214 1.397 . S
N213 C215 1.334 . S
C214 H195 0.929 . S
C214 C211 1.388 . S
C214 N213 1.397 . S
C215 H196 0.929 . S
C215 C212 1.404 . S
C215 N213 1.334 . S
C216 H208 0.930 . S
C216 C211 1.418 . S
C216 C212 1.353 . S
C217 H187 0.930 . S
C217 N218 1.330 . S
C217 C219 1.446 . S
N218 Co177 2.151 . S
N218 C217 1.330 . S
N218 C222 1.418 . S
C219 H198 0.929 . S
C219 C217 1.446 . S
C219 C220 1.332 . S
C220 H200 0.931 . S
C220 C219 1.332 . S
C220 C221 1.267 . S
C221 H189 0.929 . S
C221 C220 1.267 . S
C221 C222 1.251 . S
C222 H192 0.929 . S
C222 N218 1.418 . S
C222 C221 1.251 . S
C223 H190 0.930 . S
C223 C225 1.406 . S
C223 C228 1.261 . S
C224 H191 0.930 . S
C224 N226 1.325 . S
C224 C227 1.357 . S
C225 H193 0.928 . S
C225 C223 1.406 . S
C225 N226 1.261 . S
N226 Co177 2.214 . S
N226 C224 1.325 . S
N226 C225 1.261 . S
C227 H197 0.931 . S
C227 C224 1.357 . S
C227 C228 1.312 . S
C228 H199 0.930 . S
C228 C223 1.261 . S
C228 C227 1.312 . S
C229 O201 1.214 . S
C229 O209 1.234 . S
C230 H202 0.929 . S
C230 C233 1.391 . S
C230 C235 1.391 . S
C231 H203 0.929 . S
C231 C232 1.390 . S
C231 N234 1.391 1_545 S
C232 H204 0.930 . S
C232 C231 1.390 . S
C232 C233 1.392 1_545 S
C233 H205 0.929 . S
C233 C230 1.391 . S
C233 C232 1.392 1_565 S
N234 Co178 2.257 . S
N234 C231 1.391 1_565 S
N234 C235 1.388 . S
C235 H206 0.930 . S
C235 C230 1.391 . S
C235 N234 1.388 . S
Co236 O238 2.143 . S
Co236 O244 2.074 . S
Co236 O247 2.093 . S
Co236 O260 2.097 . S
Co236 N277 2.151 . S
Co236 N285 2.214 . S
Co237 O238 2.160 . S
Co237 O243 2.058 . S
Co237 O253 2.057 . S
Co237 O268 2.037 . S
Co237 N272 2.145 . S
Co237 N293 2.257 . S
O238 Co236 2.143 . S
O238 Co237 2.160 . S
C239 O240 1.278 . S
C239 O247 1.224 . S
O240 C239 1.278 . S
C241 O242 1.245 . S
C241 O253 1.232 . S
O242 C241 1.245 . S
O243 Co237 2.058 . S
O243 C269 1.269 . S
O244 Co236 2.074 . S
O244 C269 1.257 . S
H245 C270 0.930 . S
H246 C276 0.930 . S
O247 Co236 2.093 . S
O247 C239 1.224 . S
H248 C280 0.929 . S
H249 C282 0.930 . S
H250 C283 0.930 . S
H251 C281 0.929 . S
H252 C284 0.928 . S
O253 Co237 2.057 . S
O253 C241 1.232 . S
H254 C273 0.929 . S
H255 C274 0.929 . S
H256 C286 0.931 . S
H257 C278 0.929 . S
H258 C287 0.930 . S
H259 C279 0.931 . S
O260 Co236 2.097 . S
O260 C288 1.214 . S
H261 C289 0.929 . S
H262 C290 0.929 . S
H263 C291 0.930 . S
H264 C292 0.929 . S
H265 C294 0.930 . S
H266 C271 0.930 . S
H267 C275 0.930 . S
O268 Co237 2.037 . S
O268 C288 1.234 . S
C269 O243 1.269 . S
C269 O244 1.257 . S
C270 H245 0.930 . S
C270 C273 1.388 . S
C270 C275 1.418 . S
C271 H266 0.930 . S
C271 C274 1.404 . S
C271 C275 1.353 . S
N272 Co237 2.145 . S
N272 C273 1.397 . S
N272 C274 1.334 . S
C273 H254 0.929 . S
C273 C270 1.388 . S
C273 N272 1.397 . S
C274 H255 0.929 . S
C274 C271 1.404 . S
C274 N272 1.334 . S
C275 H267 0.930 . S
C275 C270 1.418 . S
C275 C271 1.353 . S
C276 H246 0.930 . S
C276 N277 1.330 . S
C276 C278 1.446 . S
N277 Co236 2.151 . S
N277 C276 1.330 . S
N277 C281 1.418 . S
C278 H257 0.929 . S
C278 C276 1.446 . S
C278 C279 1.332 . S
C279 H259 0.931 . S
C279 C278 1.332 . S
C279 C280 1.267 . S
C280 H248 0.929 . S
C280 C279 1.267 . S
C280 C281 1.251 . S
C281 H251 0.929 . S
C281 N277 1.418 . S
C281 C280 1.251 . S
C282 H249 0.930 . S
C282 C284 1.406 . S
C282 C287 1.261 . S
C283 H250 0.930 . S
C283 N285 1.325 . S
C283 C286 1.357 . S
C284 H252 0.928 . S
C284 C282 1.406 . S
C284 N285 1.261 . S
N285 Co236 2.214 . S
N285 C283 1.325 . S
N285 C284 1.261 . S
C286 H256 0.931 . S
C286 C283 1.357 . S
C286 C287 1.312 . S
C287 H258 0.930 . S
C287 C282 1.261 . S
C287 C286 1.312 . S
C288 O260 1.214 . S
C288 O268 1.234 . S
C289 H261 0.929 . S
C289 C292 1.391 . S
C289 C294 1.391 . S
C290 H262 0.929 . S
C290 C291 1.390 . S
C290 N293 1.391 . S
C291 H263 0.930 . S
C291 C290 1.390 . S
C291 C292 1.392 . S
C292 H264 0.929 . S
C292 C289 1.391 . S
C292 C291 1.392 . S
N293 Co237 2.257 . S
N293 C290 1.391 . S
N293 C294 1.388 . S
C294 H265 0.930 . S
C294 C289 1.391 . S
C294 N293 1.388 . S
Co295 O297 2.143 . S
Co295 O303 2.074 . S
Co295 O306 2.093 . S
Co295 O319 2.097 . S
Co295 N336 2.151 . S
Co295 N344 2.214 . S
Co296 O297 2.160 . S
Co296 O302 2.058 . S
Co296 O312 2.057 . S
Co296 O327 2.037 . S
Co296 N331 2.145 1_455 S
Co296 N352 2.257 . S
O297 Co295 2.143 . S
O297 Co296 2.160 . S
C298 O299 1.278 . S
C298 O306 1.224 . S
O299 C298 1.278 . S
C300 O301 1.245 . S
C300 O312 1.232 . S
O301 C300 1.245 . S
O302 Co296 2.058 . S
O302 C328 1.269 . S
O303 Co295 2.074 . S
O303 C328 1.257 . S
H304 C329 0.930 . S
H305 C335 0.930 . S
O306 Co295 2.093 . S
O306 C298 1.224 . S
H307 C339 0.929 . S
H308 C341 0.930 . S
H309 C342 0.930 . S
H310 C340 0.929 . S
H311 C343 0.928 . S
O312 Co296 2.057 . S
O312 C300 1.232 . S
H313 C332 0.929 . S
H314 C333 0.929 . S
H315 C345 0.931 . S
H316 C337 0.929 . S
H317 C346 0.930 . S
H318 C338 0.931 . S
O319 Co295 2.097 . S
O319 C347 1.214 . S
H320 C348 0.929 . S
H321 C349 0.929 . S
H322 C350 0.930 . S
H323 C351 0.929 . S
H324 C353 0.930 . S
H325 C330 0.930 . S
H326 C334 0.930 . S
O327 Co296 2.037 . S
O327 C347 1.234 . S
C328 O302 1.269 . S
C328 O303 1.257 . S
C329 H304 0.930 . S
C329 C332 1.388 . S
C329 C334 1.418 . S
C330 H325 0.930 . S
C330 C333 1.404 . S
C330 C334 1.353 . S
N331 Co296 2.145 1_655 S
N331 C332 1.397 . S
N331 C333 1.334 . S
C332 H313 0.929 . S
C332 C329 1.388 . S
C332 N331 1.397 . S
C333 H314 0.929 . S
C333 C330 1.404 . S
C333 N331 1.334 . S
C334 H326 0.930 . S
C334 C329 1.418 . S
C334 C330 1.353 . S
C335 H305 0.930 . S
C335 N336 1.330 . S
C335 C337 1.446 . S
N336 Co295 2.151 . S
N336 C335 1.330 . S
N336 C340 1.418 . S
C337 H316 0.929 . S
C337 C335 1.446 . S
C337 C338 1.332 . S
C338 H318 0.931 . S
C338 C337 1.332 . S
C338 C339 1.267 . S
C339 H307 0.929 . S
C339 C338 1.267 . S
C339 C340 1.251 . S
C340 H310 0.929 . S
C340 N336 1.418 . S
C340 C339 1.251 . S
C341 H308 0.930 . S
C341 C343 1.406 . S
C341 C346 1.261 . S
C342 H309 0.930 . S
C342 N344 1.325 . S
C342 C345 1.357 . S
C343 H311 0.928 . S
C343 C341 1.406 . S
C343 N344 1.261 . S
N344 Co295 2.214 . S
N344 C342 1.325 . S
N344 C343 1.261 . S
C345 H315 0.931 . S
C345 C342 1.357 . S
C345 C346 1.312 . S
C346 H317 0.930 . S
C346 C341 1.261 . S
C346 C345 1.312 . S
C347 O319 1.214 . S
C347 O327 1.234 . S
C348 H320 0.929 . S
C348 C351 1.391 . S
C348 C353 1.391 . S
C349 H321 0.929 . S
C349 C350 1.390 . S
C349 N352 1.391 1_655 S
C350 H322 0.930 . S
C350 C349 1.390 . S
C350 C351 1.392 1_655 S
C351 H323 0.929 . S
C351 C348 1.391 . S
C351 C350 1.392 1_455 S
N352 Co296 2.257 . S
N352 C349 1.391 1_455 S
N352 C353 1.388 . S
C353 H324 0.930 . S
C353 C348 1.391 . S
C353 N352 1.388 . S
Co354 O356 2.143 . S
Co354 O362 2.074 . S
Co354 O365 2.093 . S
Co354 O378 2.097 . S
Co354 N395 2.151 . S
Co354 N403 2.214 . S
Co355 O356 2.160 . S
Co355 O361 2.058 . S
Co355 O371 2.057 . S
Co355 O386 2.037 . S
Co355 N390 2.145 1_655 S
Co355 N411 2.257 . S
O356 Co354 2.143 . S
O356 Co355 2.160 . S
C357 O358 1.278 . S
C357 O365 1.224 . S
O358 C357 1.278 . S
C359 O360 1.245 . S
C359 O371 1.232 . S
O360 C359 1.245 . S
O361 Co355 2.058 . S
O361 C387 1.269 . S
O362 Co354 2.074 . S
O362 C387 1.257 . S
H363 C388 0.930 . S
H364 C394 0.930 . S
O365 Co354 2.093 . S
O365 C357 1.224 . S
H366 C398 0.929 . S
H367 C400 0.930 . S
H368 C401 0.930 . S
H369 C399 0.929 . S
H370 C402 0.928 . S
O371 Co355 2.057 . S
O371 C359 1.232 . S
H372 C391 0.929 . S
H373 C392 0.929 . S
H374 C404 0.931 . S
H375 C396 0.929 . S
H376 C405 0.930 . S
H377 C397 0.931 . S
O378 Co354 2.097 . S
O378 C406 1.214 . S
H379 C407 0.929 . S
H380 C408 0.929 . S
H381 C409 0.930 . S
H382 C410 0.929 . S
H383 C412 0.930 . S
H384 C389 0.930 . S
H385 C393 0.930 . S
O386 Co355 2.037 . S
O386 C406 1.234 . S
C387 O361 1.269 . S
C387 O362 1.257 . S
C388 H363 0.930 . S
C388 C391 1.388 . S
C388 C393 1.418 . S
C389 H384 0.930 . S
C389 C392 1.404 . S
C389 C393 1.353 . S
N390 Co355 2.145 1_455 S
N390 C391 1.397 . S
N390 C392 1.334 . S
C391 H372 0.929 . S
C391 C388 1.388 . S
C391 N390 1.397 . S
C392 H373 0.929 . S
C392 C389 1.404 . S
C392 N390 1.334 . S
C393 H385 0.930 . S
C393 C388 1.418 . S
C393 C389 1.353 . S
C394 H364 0.930 . S
C394 N395 1.330 . S
C394 C396 1.446 . S
N395 Co354 2.151 . S
N395 C394 1.330 . S
N395 C399 1.418 . S
C396 H375 0.929 . S
C396 C394 1.446 . S
C396 C397 1.332 . S
C397 H377 0.931 . S
C397 C396 1.332 . S
C397 C398 1.267 . S
C398 H366 0.929 . S
C398 C397 1.267 . S
C398 C399 1.251 . S
C399 H369 0.929 . S
C399 N395 1.418 . S
C399 C398 1.251 . S
C400 H367 0.930 . S
C400 C402 1.406 . S
C400 C405 1.261 . S
C401 H368 0.930 . S
C401 N403 1.325 . S
C401 C404 1.357 . S
C402 H370 0.928 . S
C402 C400 1.406 . S
C402 N403 1.261 . S
N403 Co354 2.214 . S
N403 C401 1.325 . S
N403 C402 1.261 . S
C404 H374 0.931 . S
C404 C401 1.357 . S
C404 C405 1.312 . S
C405 H376 0.930 . S
C405 C400 1.261 . S
C405 C404 1.312 . S
C406 O378 1.214 . S
C406 O386 1.234 . S
C407 H379 0.929 . S
C407 C410 1.391 . S
C407 C412 1.391 . S
C408 H380 0.929 . S
C408 C409 1.390 . S
C408 N411 1.391 1_455 S
C409 H381 0.930 . S
C409 C408 1.390 . S
C409 C410 1.392 1_455 S
C410 H382 0.929 . S
C410 C407 1.391 . S
C410 C409 1.392 1_655 S
N411 Co355 2.257 . S
N411 C408 1.391 1_655 S
N411 C412 1.388 . S
C412 H383 0.930 . S
C412 C407 1.391 . S
C412 N411 1.388 . S
Co413 O415 2.143 . S
Co413 O421 2.074 . S
Co413 O424 2.093 . S
Co413 O437 2.097 . S
Co413 N454 2.151 . S
Co413 N462 2.214 . S
Co414 O415 2.160 . S
Co414 O420 2.058 . S
Co414 O430 2.057 . S
Co414 O445 2.037 . S
Co414 N449 2.145 1_565 S
Co414 N470 2.257 . S
O415 Co413 2.143 . S
O415 Co414 2.160 . S
C416 O417 1.278 . S
C416 O424 1.224 . S
O417 C416 1.278 . S
C418 O419 1.245 . S
C418 O430 1.232 . S
O419 C418 1.245 . S
O420 Co414 2.058 . S
O420 C446 1.269 . S
O421 Co413 2.074 . S
O421 C446 1.257 . S
H422 C447 0.930 . S
H423 C453 0.930 . S
O424 Co413 2.093 . S
O424 C416 1.224 . S
H425 C457 0.929 . S
H426 C459 0.930 . S
H427 C460 0.930 . S
H428 C458 0.929 . S
H429 C461 0.928 . S
O430 Co414 2.057 . S
O430 C418 1.232 . S
H431 C450 0.929 . S
H432 C451 0.929 . S
H433 C463 0.931 . S
H434 C455 0.929 . S
H435 C464 0.930 . S
H436 C456 0.931 . S
O437 Co413 2.097 . S
O437 C465 1.214 . S
H438 C466 0.929 . S
H439 C467 0.929 . S
H440 C468 0.930 . S
H441 C469 0.929 . S
H442 C471 0.930 . S
H443 C448 0.930 . S
H444 C452 0.930 . S
O445 Co414 2.037 . S
O445 C465 1.234 . S
C446 O420 1.269 . S
C446 O421 1.257 . S
C447 H422 0.930 . S
C447 C450 1.388 . S
C447 C452 1.418 . S
C448 H443 0.930 . S
C448 C451 1.404 . S
C448 C452 1.353 . S
N449 Co414 2.145 1_545 S
N449 C450 1.397 . S
N449 C451 1.334 . S
C450 H431 0.929 . S
C450 C447 1.388 . S
C450 N449 1.397 . S
C451 H432 0.929 . S
C451 C448 1.404 . S
C451 N449 1.334 . S
C452 H444 0.930 . S
C452 C447 1.418 . S
C452 C448 1.353 . S
C453 H423 0.930 . S
C453 N454 1.330 . S
C453 C455 1.446 . S
N454 Co413 2.151 . S
N454 C453 1.330 . S
N454 C458 1.418 . S
C455 H434 0.929 . S
C455 C453 1.446 . S
C455 C456 1.332 . S
C456 H436 0.931 . S
C456 C455 1.332 . S
C456 C457 1.267 . S
C457 H425 0.929 . S
C457 C456 1.267 . S
C457 C458 1.251 . S
C458 H428 0.929 . S
C458 N454 1.418 . S
C458 C457 1.251 . S
C459 H426 0.930 . S
C459 C461 1.406 . S
C459 C464 1.261 . S
C460 H427 0.930 . S
C460 N462 1.325 . S
C460 C463 1.357 . S
C461 H429 0.928 . S
C461 C459 1.406 . S
C461 N462 1.261 . S
N462 Co413 2.214 . S
N462 C460 1.325 . S
N462 C461 1.261 . S
C463 H433 0.931 . S
C463 C460 1.357 . S
C463 C464 1.312 . S
C464 H435 0.930 . S
C464 C459 1.261 . S
C464 C463 1.312 . S
C465 O437 1.214 . S
C465 O445 1.234 . S
C466 H438 0.929 . S
C466 C469 1.391 . S
C466 C471 1.391 . S
C467 H439 0.929 . S
C467 C468 1.390 . S
C467 N470 1.391 1_545 S
C468 H440 0.930 . S
C468 C467 1.390 . S
C468 C469 1.392 1_545 S
C469 H441 0.929 . S
C469 C466 1.391 . S
C469 C468 1.392 1_565 S
N470 Co414 2.257 . S
N470 C467 1.391 1_565 S
N470 C471 1.388 . S
C471 H442 0.930 . S
C471 C466 1.391 . S
C471 N470 1.388 . S
Co472 O474 2.143 . S
Co472 O480 2.074 . S
Co472 O483 2.093 . S
Co472 O496 2.097 . S
Co472 N513 2.151 . S
Co472 N521 2.214 . S
Co473 O474 2.160 . S
Co473 O479 2.058 . S
Co473 O489 2.057 . S
Co473 O504 2.037 . S
Co473 N508 2.145 . S
Co473 N529 2.257 . S
O474 Co472 2.143 . S
O474 Co473 2.160 . S
C475 O476 1.278 . S
C475 O483 1.224 . S
O476 C475 1.278 . S
C477 O478 1.245 . S
C477 O489 1.232 . S
O478 C477 1.245 . S
O479 Co473 2.058 . S
O479 C505 1.269 . S
O480 Co472 2.074 . S
O480 C505 1.257 . S
H481 C506 0.930 . S
H482 C512 0.930 . S
O483 Co472 2.093 . S
O483 C475 1.224 . S
H484 C516 0.929 . S
H485 C518 0.930 . S
H486 C519 0.930 . S
H487 C517 0.929 . S
H488 C520 0.928 . S
O489 Co473 2.057 . S
O489 C477 1.232 . S
H490 C509 0.929 . S
H491 C510 0.929 . S
H492 C522 0.931 . S
H493 C514 0.929 . S
H494 C523 0.930 . S
H495 C515 0.931 . S
O496 Co472 2.097 . S
O496 C524 1.214 . S
H497 C525 0.929 . S
H498 C526 0.929 . S
H499 C527 0.930 . S
H500 C528 0.929 . S
H501 C530 0.930 . S
H502 C507 0.930 . S
H503 C511 0.930 . S
O504 Co473 2.037 . S
O504 C524 1.234 . S
C505 O479 1.269 . S
C505 O480 1.257 . S
C506 H481 0.930 . S
C506 C509 1.388 . S
C506 C511 1.418 . S
C507 H502 0.930 . S
C507 C510 1.404 . S
C507 C511 1.353 . S
N508 Co473 2.145 . S
N508 C509 1.397 . S
N508 C510 1.334 . S
C509 H490 0.929 . S
C509 C506 1.388 . S
C509 N508 1.397 . S
C510 H491 0.929 . S
C510 C507 1.404 . S
C510 N508 1.334 . S
C511 H503 0.930 . S
C511 C506 1.418 . S
C511 C507 1.353 . S
C512 H482 0.930 . S
C512 N513 1.330 . S
C512 C514 1.446 . S
N513 Co472 2.151 . S
N513 C512 1.330 . S
N513 C517 1.418 . S
C514 H493 0.929 . S
C514 C512 1.446 . S
C514 C515 1.332 . S
C515 H495 0.931 . S
C515 C514 1.332 . S
C515 C516 1.267 . S
C516 H484 0.929 . S
C516 C515 1.267 . S
C516 C517 1.251 . S
C517 H487 0.929 . S
C517 N513 1.418 . S
C517 C516 1.251 . S
C518 H485 0.930 . S
C518 C520 1.406 . S
C518 C523 1.261 . S
C519 H486 0.930 . S
C519 N521 1.325 . S
C519 C522 1.357 . S
C520 H488 0.928 . S
C520 C518 1.406 . S
C520 N521 1.261 . S
N521 Co472 2.214 . S
N521 C519 1.325 . S
N521 C520 1.261 . S
C522 H492 0.931 . S
C522 C519 1.357 . S
C522 C523 1.312 . S
C523 H494 0.930 . S
C523 C518 1.261 . S
C523 C522 1.312 . S
C524 O496 1.214 . S
C524 O504 1.234 . S
C525 H497 0.929 . S
C525 C528 1.391 . S
C525 C530 1.391 . S
C526 H498 0.929 . S
C526 C527 1.390 . S
C526 N529 1.391 . S
C527 H499 0.930 . S
C527 C526 1.390 . S
C527 C528 1.392 . S
C528 H500 0.929 . S
C528 C525 1.391 . S
C528 C527 1.392 . S
N529 Co473 2.257 . S
N529 C526 1.391 . S
N529 C530 1.388 . S
C530 H501 0.930 . S
C530 C525 1.391 . S
C530 N529 1.388 . S
Co531 O533 2.143 . S
Co531 O539 2.074 . S
Co531 O542 2.093 . S
Co531 O555 2.097 . S
Co531 N572 2.151 . S
Co531 N580 2.214 . S
Co532 O533 2.160 . S
Co532 O538 2.058 . S
Co532 O548 2.057 . S
Co532 O563 2.037 . S
Co532 N567 2.145 1_455 S
Co532 N588 2.257 . S
O533 Co531 2.143 . S
O533 Co532 2.160 . S
C534 O535 1.278 . S
C534 O542 1.224 . S
O535 C534 1.278 . S
C536 O537 1.245 . S
C536 O548 1.232 . S
O537 C536 1.245 . S
O538 Co532 2.058 . S
O538 C564 1.269 . S
O539 Co531 2.074 . S
O539 C564 1.257 . S
H540 C565 0.930 . S
H541 C571 0.930 . S
O542 Co531 2.093 . S
O542 C534 1.224 . S
H543 C575 0.929 . S
H544 C577 0.930 . S
H545 C578 0.930 . S
H546 C576 0.929 . S
H547 C579 0.928 . S
O548 Co532 2.057 . S
O548 C536 1.232 . S
H549 C568 0.929 . S
H550 C569 0.929 . S
H551 C581 0.931 . S
H552 C573 0.929 . S
H553 C582 0.930 . S
H554 C574 0.931 . S
O555 Co531 2.097 . S
O555 C583 1.214 . S
H556 C584 0.929 . S
H557 C585 0.929 . S
H558 C586 0.930 . S
H559 C587 0.929 . S
H560 C589 0.930 . S
H561 C566 0.930 . S
H562 C570 0.930 . S
O563 Co532 2.037 . S
O563 C583 1.234 . S
C564 O538 1.269 . S
C564 O539 1.257 . S
C565 H540 0.930 . S
C565 C568 1.388 . S
C565 C570 1.418 . S
C566 H561 0.930 . S
C566 C569 1.404 . S
C566 C570 1.353 . S
N567 Co532 2.145 1_655 S
N567 C568 1.397 . S
N567 C569 1.334 . S
C568 H549 0.929 . S
C568 C565 1.388 . S
C568 N567 1.397 . S
C569 H550 0.929 . S
C569 C566 1.404 . S
C569 N567 1.334 . S
C570 H562 0.930 . S
C570 C565 1.418 . S
C570 C566 1.353 . S
C571 H541 0.930 . S
C571 N572 1.330 . S
C571 C573 1.446 . S
N572 Co531 2.151 . S
N572 C571 1.330 . S
N572 C576 1.418 . S
C573 H552 0.929 . S
C573 C571 1.446 . S
C573 C574 1.332 . S
C574 H554 0.931 . S
C574 C573 1.332 . S
C574 C575 1.267 . S
C575 H543 0.929 . S
C575 C574 1.267 . S
C575 C576 1.251 . S
C576 H546 0.929 . S
C576 N572 1.418 . S
C576 C575 1.251 . S
C577 H544 0.930 . S
C577 C579 1.406 . S
C577 C582 1.261 . S
C578 H545 0.930 . S
C578 N580 1.325 . S
C578 C581 1.357 . S
C579 H547 0.928 . S
C579 C577 1.406 . S
C579 N580 1.261 . S
N580 Co531 2.214 . S
N580 C578 1.325 . S
N580 C579 1.261 . S
C581 H551 0.931 . S
C581 C578 1.357 . S
C581 C582 1.312 . S
C582 H553 0.930 . S
C582 C577 1.261 . S
C582 C581 1.312 . S
C583 O555 1.214 . S
C583 O563 1.234 . S
C584 H556 0.929 . S
C584 C587 1.391 . S
C584 C589 1.391 . S
C585 H557 0.929 . S
C585 C586 1.390 . S
C585 N588 1.391 1_655 S
C586 H558 0.930 . S
C586 C585 1.390 . S
C586 C587 1.392 1_655 S
C587 H559 0.929 . S
C587 C584 1.391 . S
C587 C586 1.392 1_455 S
N588 Co532 2.257 . S
N588 C585 1.391 1_455 S
N588 C589 1.388 . S
C589 H560 0.930 . S
C589 C584 1.391 . S
C589 N588 1.388 . S
Co590 O592 2.143 . S
Co590 O598 2.074 . S
Co590 O601 2.093 . S
Co590 O614 2.097 . S
Co590 N631 2.151 . S
Co590 N639 2.214 . S
Co591 O592 2.160 . S
Co591 O597 2.058 . S
Co591 O607 2.057 . S
Co591 O622 2.037 . S
Co591 N626 2.145 1_545 S
Co591 N647 2.257 . S
O592 Co590 2.143 . S
O592 Co591 2.160 . S
C593 O594 1.278 . S
C593 O601 1.224 . S
O594 C593 1.278 . S
C595 O596 1.245 . S
C595 O607 1.232 . S
O596 C595 1.245 . S
O597 Co591 2.058 . S
O597 C623 1.269 . S
O598 Co590 2.074 . S
O598 C623 1.257 . S
H599 C624 0.930 . S
H600 C630 0.930 . S
O601 Co590 2.093 . S
O601 C593 1.224 . S
H602 C634 0.929 . S
H603 C636 0.930 . S
H604 C637 0.930 . S
H605 C635 0.929 . S
H606 C638 0.928 . S
O607 Co591 2.057 . S
O607 C595 1.232 . S
H608 C627 0.929 . S
H609 C628 0.929 . S
H610 C640 0.931 . S
H611 C632 0.929 . S
H612 C641 0.930 . S
H613 C633 0.931 . S
O614 Co590 2.097 . S
O614 C642 1.214 . S
H615 C643 0.929 . S
H616 C644 0.929 . S
H617 C645 0.930 . S
H618 C646 0.929 . S
H619 C648 0.930 . S
H620 C625 0.930 . S
H621 C629 0.930 . S
O622 Co591 2.037 . S
O622 C642 1.234 . S
C623 O597 1.269 . S
C623 O598 1.257 . S
C624 H599 0.930 . S
C624 C627 1.388 . S
C624 C629 1.418 . S
C625 H620 0.930 . S
C625 C628 1.404 . S
C625 C629 1.353 . S
N626 Co591 2.145 1_565 S
N626 C627 1.397 . S
N626 C628 1.334 . S
C627 H608 0.929 . S
C627 C624 1.388 . S
C627 N626 1.397 . S
C628 H609 0.929 . S
C628 C625 1.404 . S
C628 N626 1.334 . S
C629 H621 0.930 . S
C629 C624 1.418 . S
C629 C625 1.353 . S
C630 H600 0.930 . S
C630 N631 1.330 . S
C630 C632 1.446 . S
N631 Co590 2.151 . S
N631 C630 1.330 . S
N631 C635 1.418 . S
C632 H611 0.929 . S
C632 C630 1.446 . S
C632 C633 1.332 . S
C633 H613 0.931 . S
C633 C632 1.332 . S
C633 C634 1.267 . S
C634 H602 0.929 . S
C634 C633 1.267 . S
C634 C635 1.251 . S
C635 H605 0.929 . S
C635 N631 1.418 . S
C635 C634 1.251 . S
C636 H603 0.930 . S
C636 C638 1.406 . S
C636 C641 1.261 . S
C637 H604 0.930 . S
C637 N639 1.325 . S
C637 C640 1.357 . S
C638 H606 0.928 . S
C638 C636 1.406 . S
C638 N639 1.261 . S
N639 Co590 2.214 . S
N639 C637 1.325 . S
N639 C638 1.261 . S
C640 H610 0.931 . S
C640 C637 1.357 . S
C640 C641 1.312 . S
C641 H612 0.930 . S
C641 C636 1.261 . S
C641 C640 1.312 . S
C642 O614 1.214 . S
C642 O622 1.234 . S
C643 H615 0.929 . S
C643 C646 1.391 . S
C643 C648 1.391 . S
C644 H616 0.929 . S
C644 C645 1.390 . S
C644 N647 1.391 1_565 S
C645 H617 0.930 . S
C645 C644 1.390 . S
C645 C646 1.392 1_565 S
C646 H618 0.929 . S
C646 C643 1.391 . S
C646 C645 1.392 1_545 S
N647 Co591 2.257 . S
N647 C644 1.391 1_545 S
N647 C648 1.388 . S
C648 H619 0.930 . S
C648 C643 1.391 . S
C648 N647 1.388 . S
Co649 O651 2.143 . S
Co649 O657 2.074 . S
Co649 O660 2.093 . S
Co649 O673 2.097 . S
Co649 N690 2.151 . S
Co649 N698 2.214 . S
Co650 O651 2.160 . S
Co650 O656 2.058 . S
Co650 O666 2.057 . S
Co650 O681 2.037 . S
Co650 N685 2.145 . S
Co650 N706 2.257 . S
O651 Co649 2.143 . S
O651 Co650 2.160 . S
C652 O653 1.278 . S
C652 O660 1.224 . S
O653 C652 1.278 . S
C654 O655 1.245 . S
C654 O666 1.232 . S
O655 C654 1.245 . S
O656 Co650 2.058 . S
O656 C682 1.269 . S
O657 Co649 2.074 . S
O657 C682 1.257 . S
H658 C683 0.930 . S
H659 C689 0.930 . S
O660 Co649 2.093 . S
O660 C652 1.224 . S
H661 C693 0.929 . S
H662 C695 0.930 . S
H663 C696 0.930 . S
H664 C694 0.929 . S
H665 C697 0.928 . S
O666 Co650 2.057 . S
O666 C654 1.232 . S
H667 C686 0.929 . S
H668 C687 0.929 . S
H669 C699 0.931 . S
H670 C691 0.929 . S
H671 C700 0.930 . S
H672 C692 0.931 . S
O673 Co649 2.097 . S
O673 C701 1.214 . S
H674 C702 0.929 . S
H675 C703 0.929 . S
H676 C704 0.930 . S
H677 C705 0.929 . S
H678 C707 0.930 . S
H679 C684 0.930 . S
H680 C688 0.930 . S
O681 Co650 2.037 . S
O681 C701 1.234 . S
C682 O656 1.269 . S
C682 O657 1.257 . S
C683 H658 0.930 . S
C683 C686 1.388 . S
C683 C688 1.418 . S
C684 H679 0.930 . S
C684 C687 1.404 . S
C684 C688 1.353 . S
N685 Co650 2.145 . S
N685 C686 1.397 . S
N685 C687 1.334 . S
C686 H667 0.929 . S
C686 C683 1.388 . S
C686 N685 1.397 . S
C687 H668 0.929 . S
C687 C684 1.404 . S
C687 N685 1.334 . S
C688 H680 0.930 . S
C688 C683 1.418 . S
C688 C684 1.353 . S
C689 H659 0.930 . S
C689 N690 1.330 . S
C689 C691 1.446 . S
N690 Co649 2.151 . S
N690 C689 1.330 . S
N690 C694 1.418 . S
C691 H670 0.929 . S
C691 C689 1.446 . S
C691 C692 1.332 . S
C692 H672 0.931 . S
C692 C691 1.332 . S
C692 C693 1.267 . S
C693 H661 0.929 . S
C693 C692 1.267 . S
C693 C694 1.251 . S
C694 H664 0.929 . S
C694 N690 1.418 . S
C694 C693 1.251 . S
C695 H662 0.930 . S
C695 C697 1.406 . S
C695 C700 1.261 . S
C696 H663 0.930 . S
C696 N698 1.325 . S
C696 C699 1.357 . S
C697 H665 0.928 . S
C697 C695 1.406 . S
C697 N698 1.261 . S
N698 Co649 2.214 . S
N698 C696 1.325 . S
N698 C697 1.261 . S
C699 H669 0.931 . S
C699 C696 1.357 . S
C699 C700 1.312 . S
C700 H671 0.930 . S
C700 C695 1.261 . S
C700 C699 1.312 . S
C701 O673 1.214 . S
C701 O681 1.234 . S
C702 H674 0.929 . S
C702 C705 1.391 . S
C702 C707 1.391 . S
C703 H675 0.929 . S
C703 C704 1.390 . S
C703 N706 1.391 . S
C704 H676 0.930 . S
C704 C703 1.390 . S
C704 C705 1.392 . S
C705 H677 0.929 . S
C705 C702 1.391 . S
C705 C704 1.392 . S
N706 Co650 2.257 . S
N706 C703 1.391 . S
N706 C707 1.388 . S
C707 H678 0.930 . S
C707 C702 1.391 . S
C707 N706 1.388 . S
Co708 O710 2.143 . S
Co708 O716 2.074 . S
Co708 O719 2.093 . S
Co708 O732 2.097 . S
Co708 N749 2.151 . S
Co708 N757 2.214 . S
Co709 O710 2.160 . S
Co709 O715 2.058 . S
Co709 O725 2.057 . S
Co709 O740 2.037 . S
Co709 N744 2.145 1_565 S
Co709 N765 2.257 . S
O710 Co708 2.143 . S
O710 Co709 2.160 . S
C711 O712 1.278 . S
C711 O719 1.224 . S
O712 C711 1.278 . S
C713 O714 1.245 . S
C713 O725 1.232 . S
O714 C713 1.245 . S
O715 Co709 2.058 . S
O715 C741 1.269 . S
O716 Co708 2.074 . S
O716 C741 1.257 . S
H717 C742 0.930 . S
H718 C748 0.930 . S
O719 Co708 2.093 . S
O719 C711 1.224 . S
H720 C752 0.929 . S
H721 C754 0.930 . S
H722 C755 0.930 . S
H723 C753 0.929 . S
H724 C756 0.928 . S
O725 Co709 2.057 . S
O725 C713 1.232 . S
H726 C745 0.929 . S
H727 C746 0.929 . S
H728 C758 0.931 . S
H729 C750 0.929 . S
H730 C759 0.930 . S
H731 C751 0.931 . S
O732 Co708 2.097 . S
O732 C760 1.214 . S
H733 C761 0.929 . S
H734 C762 0.929 . S
H735 C763 0.930 . S
H736 C764 0.929 . S
H737 C766 0.930 . S
H738 C743 0.930 . S
H739 C747 0.930 . S
O740 Co709 2.037 . S
O740 C760 1.234 . S
C741 O715 1.269 . S
C741 O716 1.257 . S
C742 H717 0.930 . S
C742 C745 1.388 . S
C742 C747 1.418 . S
C743 H738 0.930 . S
C743 C746 1.404 . S
C743 C747 1.353 . S
N744 Co709 2.145 1_545 S
N744 C745 1.397 . S
N744 C746 1.334 . S
C745 H726 0.929 . S
C745 C742 1.388 . S
C745 N744 1.397 . S
C746 H727 0.929 . S
C746 C743 1.404 . S
C746 N744 1.334 . S
C747 H739 0.930 . S
C747 C742 1.418 . S
C747 C743 1.353 . S
C748 H718 0.930 . S
C748 N749 1.330 . S
C748 C750 1.446 . S
N749 Co708 2.151 . S
N749 C748 1.330 . S
N749 C753 1.418 . S
C750 H729 0.929 . S
C750 C748 1.446 . S
C750 C751 1.332 . S
C751 H731 0.931 . S
C751 C750 1.332 . S
C751 C752 1.267 . S
C752 H720 0.929 . S
C752 C751 1.267 . S
C752 C753 1.251 . S
C753 H723 0.929 . S
C753 N749 1.418 . S
C753 C752 1.251 . S
C754 H721 0.930 . S
C754 C756 1.406 . S
C754 C759 1.261 . S
C755 H722 0.930 . S
C755 N757 1.325 . S
C755 C758 1.357 . S
C756 H724 0.928 . S
C756 C754 1.406 . S
C756 N757 1.261 . S
N757 Co708 2.214 . S
N757 C755 1.325 . S
N757 C756 1.261 . S
C758 H728 0.931 . S
C758 C755 1.357 . S
C758 C759 1.312 . S
C759 H730 0.930 . S
C759 C754 1.261 . S
C759 C758 1.312 . S
C760 O732 1.214 . S
C760 O740 1.234 . S
C761 H733 0.929 . S
C761 C764 1.391 . S
C761 C766 1.391 . S
C762 H734 0.929 . S
C762 C763 1.390 . S
C762 N765 1.391 1_545 S
C763 H735 0.930 . S
C763 C762 1.390 . S
C763 C764 1.392 1_545 S
C764 H736 0.929 . S
C764 C761 1.391 . S
C764 C763 1.392 1_565 S
N765 Co709 2.257 . S
N765 C762 1.391 1_565 S
N765 C766 1.388 . S
C766 H737 0.930 . S
C766 C761 1.391 . S
C766 N765 1.388 . S
Co767 O769 2.143 . S
Co767 O775 2.074 . S
Co767 O778 2.093 . S
Co767 O791 2.097 . S
Co767 N808 2.151 . S
Co767 N816 2.214 . S
Co768 O769 2.160 . S
Co768 O774 2.058 . S
Co768 O784 2.057 . S
Co768 O799 2.037 . S
Co768 N803 2.145 . S
Co768 N824 2.257 . S
O769 Co767 2.143 . S
O769 Co768 2.160 . S
C770 O771 1.278 . S
C770 O778 1.224 . S
O771 C770 1.278 . S
C772 O773 1.245 . S
C772 O784 1.232 . S
O773 C772 1.245 . S
O774 Co768 2.058 . S
O774 C800 1.269 . S
O775 Co767 2.074 . S
O775 C800 1.257 . S
H776 C801 0.930 . S
H777 C807 0.930 . S
O778 Co767 2.093 . S
O778 C770 1.224 . S
H779 C811 0.929 . S
H780 C813 0.930 . S
H781 C814 0.930 . S
H782 C812 0.929 . S
H783 C815 0.928 . S
O784 Co768 2.057 . S
O784 C772 1.232 . S
H785 C804 0.929 . S
H786 C805 0.929 . S
H787 C817 0.931 . S
H788 C809 0.929 . S
H789 C818 0.930 . S
H790 C810 0.931 . S
O791 Co767 2.097 . S
O791 C819 1.214 . S
H792 C820 0.929 . S
H793 C821 0.929 . S
H794 C822 0.930 . S
H795 C823 0.929 . S
H796 C825 0.930 . S
H797 C802 0.930 . S
H798 C806 0.930 . S
O799 Co768 2.037 . S
O799 C819 1.234 . S
C800 O774 1.269 . S
C800 O775 1.257 . S
C801 H776 0.930 . S
C801 C804 1.388 . S
C801 C806 1.418 . S
C802 H797 0.930 . S
C802 C805 1.404 . S
C802 C806 1.353 . S
N803 Co768 2.145 . S
N803 C804 1.397 . S
N803 C805 1.334 . S
C804 H785 0.929 . S
C804 C801 1.388 . S
C804 N803 1.397 . S
C805 H786 0.929 . S
C805 C802 1.404 . S
C805 N803 1.334 . S
C806 H798 0.930 . S
C806 C801 1.418 . S
C806 C802 1.353 . S
C807 H777 0.930 . S
C807 N808 1.330 . S
C807 C809 1.446 . S
N808 Co767 2.151 . S
N808 C807 1.330 . S
N808 C812 1.418 . S
C809 H788 0.929 . S
C809 C807 1.446 . S
C809 C810 1.332 . S
C810 H790 0.931 . S
C810 C809 1.332 . S
C810 C811 1.267 . S
C811 H779 0.929 . S
C811 C810 1.267 . S
C811 C812 1.251 . S
C812 H782 0.929 . S
C812 N808 1.418 . S
C812 C811 1.251 . S
C813 H780 0.930 . S
C813 C815 1.406 . S
C813 C818 1.261 . S
C814 H781 0.930 . S
C814 N816 1.325 . S
C814 C817 1.357 . S
C815 H783 0.928 . S
C815 C813 1.406 . S
C815 N816 1.261 . S
N816 Co767 2.214 . S
N816 C814 1.325 . S
N816 C815 1.261 . S
C817 H787 0.931 . S
C817 C814 1.357 . S
C817 C818 1.312 . S
C818 H789 0.930 . S
C818 C813 1.261 . S
C818 C817 1.312 . S
C819 O791 1.214 . S
C819 O799 1.234 . S
C820 H792 0.929 . S
C820 C823 1.391 . S
C820 C825 1.391 . S
C821 H793 0.929 . S
C821 C822 1.390 . S
C821 N824 1.391 . S
C822 H794 0.930 . S
C822 C821 1.390 . S
C822 C823 1.392 . S
C823 H795 0.929 . S
C823 C820 1.391 . S
C823 C822 1.392 . S
N824 Co768 2.257 . S
N824 C821 1.391 . S
N824 C825 1.388 . S
C825 H796 0.930 . S
C825 C820 1.391 . S
C825 N824 1.388 . S
Co826 O828 2.143 . S
Co826 O834 2.074 . S
Co826 O837 2.093 . S
Co826 O850 2.097 . S
Co826 N867 2.151 . S
Co826 N875 2.214 . S
Co827 O828 2.160 . S
Co827 O833 2.058 . S
Co827 O843 2.057 . S
Co827 O858 2.037 . S
Co827 N862 2.145 1_455 S
Co827 N883 2.257 . S
O828 Co826 2.143 . S
O828 Co827 2.160 . S
C829 O830 1.278 . S
C829 O837 1.224 . S
O830 C829 1.278 . S
C831 O832 1.245 . S
C831 O843 1.232 . S
O832 C831 1.245 . S
O833 Co827 2.058 . S
O833 C859 1.269 . S
O834 Co826 2.074 . S
O834 C859 1.257 . S
H835 C860 0.930 . S
H836 C866 0.930 . S
O837 Co826 2.093 . S
O837 C829 1.224 . S
H838 C870 0.929 . S
H839 C872 0.930 . S
H840 C873 0.930 . S
H841 C871 0.929 . S
H842 C874 0.928 . S
O843 Co827 2.057 . S
O843 C831 1.232 . S
H844 C863 0.929 . S
H845 C864 0.929 . S
H846 C876 0.931 . S
H847 C868 0.929 . S
H848 C877 0.930 . S
H849 C869 0.931 . S
O850 Co826 2.097 . S
O850 C878 1.214 . S
H851 C879 0.929 . S
H852 C880 0.929 . S
H853 C881 0.930 . S
H854 C882 0.929 . S
H855 C884 0.930 . S
H856 C861 0.930 . S
H857 C865 0.930 . S
O858 Co827 2.037 . S
O858 C878 1.234 . S
C859 O833 1.269 . S
C859 O834 1.257 . S
C860 H835 0.930 . S
C860 C863 1.388 . S
C860 C865 1.418 . S
C861 H856 0.930 . S
C861 C864 1.404 . S
C861 C865 1.353 . S
N862 Co827 2.145 1_655 S
N862 C863 1.397 . S
N862 C864 1.334 . S
C863 H844 0.929 . S
C863 C860 1.388 . S
C863 N862 1.397 . S
C864 H845 0.929 . S
C864 C861 1.404 . S
C864 N862 1.334 . S
C865 H857 0.930 . S
C865 C860 1.418 . S
C865 C861 1.353 . S
C866 H836 0.930 . S
C866 N867 1.330 . S
C866 C868 1.446 . S
N867 Co826 2.151 . S
N867 C866 1.330 . S
N867 C871 1.418 . S
C868 H847 0.929 . S
C868 C866 1.446 . S
C868 C869 1.332 . S
C869 H849 0.931 . S
C869 C868 1.332 . S
C869 C870 1.267 . S
C870 H838 0.929 . S
C870 C869 1.267 . S
C870 C871 1.251 . S
C871 H841 0.929 . S
C871 N867 1.418 . S
C871 C870 1.251 . S
C872 H839 0.930 . S
C872 C874 1.406 . S
C872 C877 1.261 . S
C873 H840 0.930 . S
C873 N875 1.325 . S
C873 C876 1.357 . S
C874 H842 0.928 . S
C874 C872 1.406 . S
C874 N875 1.261 . S
N875 Co826 2.214 . S
N875 C873 1.325 . S
N875 C874 1.261 . S
C876 H846 0.931 . S
C876 C873 1.357 . S
C876 C877 1.312 . S
C877 H848 0.930 . S
C877 C872 1.261 . S
C877 C876 1.312 . S
C878 O850 1.214 . S
C878 O858 1.234 . S
C879 H851 0.929 . S
C879 C882 1.391 . S
C879 C884 1.391 . S
C880 H852 0.929 . S
C880 C881 1.390 . S
C880 N883 1.391 1_655 S
C881 H853 0.930 . S
C881 C880 1.390 . S
C881 C882 1.392 1_655 S
C882 H854 0.929 . S
C882 C879 1.391 . S
C882 C881 1.392 1_455 S
N883 Co827 2.257 . S
N883 C880 1.391 1_455 S
N883 C884 1.388 . S
C884 H855 0.930 . S
C884 C879 1.391 . S
C884 N883 1.388 . S
Co885 O887 2.143 . S
Co885 O893 2.074 . S
Co885 O896 2.093 . S
Co885 O909 2.097 . S
Co885 N926 2.151 . S
Co885 N934 2.214 . S
Co886 O887 2.160 . S
Co886 O892 2.058 . S
Co886 O902 2.057 . S
Co886 O917 2.037 . S
Co886 N921 2.145 1_545 S
Co886 N942 2.257 . S
O887 Co885 2.143 . S
O887 Co886 2.160 . S
C888 O889 1.278 . S
C888 O896 1.224 . S
O889 C888 1.278 . S
C890 O891 1.245 . S
C890 O902 1.232 . S
O891 C890 1.245 . S
O892 Co886 2.058 . S
O892 C918 1.269 . S
O893 Co885 2.074 . S
O893 C918 1.257 . S
H894 C919 0.930 . S
H895 C925 0.930 . S
O896 Co885 2.093 . S
O896 C888 1.224 . S
H897 C929 0.929 . S
H898 C931 0.930 . S
H899 C932 0.930 . S
H900 C930 0.929 . S
H901 C933 0.928 . S
O902 Co886 2.057 . S
O902 C890 1.232 . S
H903 C922 0.929 . S
H904 C923 0.929 . S
H905 C935 0.931 . S
H906 C927 0.929 . S
H907 C936 0.930 . S
H908 C928 0.931 . S
O909 Co885 2.097 . S
O909 C937 1.214 . S
H910 C938 0.929 . S
H911 C939 0.929 . S
H912 C940 0.930 . S
H913 C941 0.929 . S
H914 C943 0.930 . S
H915 C920 0.930 . S
H916 C924 0.930 . S
O917 Co886 2.037 . S
O917 C937 1.234 . S
C918 O892 1.269 . S
C918 O893 1.257 . S
C919 H894 0.930 . S
C919 C922 1.388 . S
C919 C924 1.418 . S
C920 H915 0.930 . S
C920 C923 1.404 . S
C920 C924 1.353 . S
N921 Co886 2.145 1_565 S
N921 C922 1.397 . S
N921 C923 1.334 . S
C922 H903 0.929 . S
C922 C919 1.388 . S
C922 N921 1.397 . S
C923 H904 0.929 . S
C923 C920 1.404 . S
C923 N921 1.334 . S
C924 H916 0.930 . S
C924 C919 1.418 . S
C924 C920 1.353 . S
C925 H895 0.930 . S
C925 N926 1.330 . S
C925 C927 1.446 . S
N926 Co885 2.151 . S
N926 C925 1.330 . S
N926 C930 1.418 . S
C927 H906 0.929 . S
C927 C925 1.446 . S
C927 C928 1.332 . S
C928 H908 0.931 . S
C928 C927 1.332 . S
C928 C929 1.267 . S
C929 H897 0.929 . S
C929 C928 1.267 . S
C929 C930 1.251 . S
C930 H900 0.929 . S
C930 N926 1.418 . S
C930 C929 1.251 . S
C931 H898 0.930 . S
C931 C933 1.406 . S
C931 C936 1.261 . S
C932 H899 0.930 . S
C932 N934 1.325 . S
C932 C935 1.357 . S
C933 H901 0.928 . S
C933 C931 1.406 . S
C933 N934 1.261 . S
N934 Co885 2.214 . S
N934 C932 1.325 . S
N934 C933 1.261 . S
C935 H905 0.931 . S
C935 C932 1.357 . S
C935 C936 1.312 . S
C936 H907 0.930 . S
C936 C931 1.261 . S
C936 C935 1.312 . S
C937 O909 1.214 . S
C937 O917 1.234 . S
C938 H910 0.929 . S
C938 C941 1.391 . S
C938 C943 1.391 . S
C939 H911 0.929 . S
C939 C940 1.390 . S
C939 N942 1.391 1_565 S
C940 H912 0.930 . S
C940 C939 1.390 . S
C940 C941 1.392 1_565 S
C941 H913 0.929 . S
C941 C938 1.391 . S
C941 C940 1.392 1_545 S
N942 Co886 2.257 . S
N942 C939 1.391 1_545 S
N942 C943 1.388 . S
C943 H914 0.930 . S
C943 C938 1.391 . S
C943 N942 1.388 . S
Co944 O946 2.143 . S
Co944 O952 2.074 . S
Co944 O955 2.093 . S
Co944 O968 2.097 . S
Co944 N985 2.151 . S
Co944 N993 2.214 . S
Co945 O946 2.160 . S
Co945 O951 2.058 . S
Co945 O961 2.057 . S
Co945 O976 2.037 . S
Co945 N980 2.145 . S
Co945 N1001 2.257 . S
O946 Co944 2.143 . S
O946 Co945 2.160 . S
C947 O948 1.278 . S
C947 O955 1.224 . S
O948 C947 1.278 . S
C949 O950 1.245 . S
C949 O961 1.232 . S
O950 C949 1.245 . S
O951 Co945 2.058 . S
O951 C977 1.269 . S
O952 Co944 2.074 . S
O952 C977 1.257 . S
H953 C978 0.930 . S
H954 C984 0.930 . S
O955 Co944 2.093 . S
O955 C947 1.224 . S
H956 C988 0.929 . S
H957 C990 0.930 . S
H958 C991 0.930 . S
H959 C989 0.929 . S
H960 C992 0.928 . S
O961 Co945 2.057 . S
O961 C949 1.232 . S
H962 C981 0.929 . S
H963 C982 0.929 . S
H964 C994 0.931 . S
H965 C986 0.929 . S
H966 C995 0.930 . S
H967 C987 0.931 . S
O968 Co944 2.097 . S
O968 C996 1.214 . S
H969 C997 0.929 . S
H970 C998 0.929 . S
H971 C999 0.930 . S
H972 C1000 0.929 . S
H973 C1002 0.930 . S
H974 C979 0.930 . S
H975 C983 0.930 . S
O976 Co945 2.037 . S
O976 C996 1.234 . S
C977 O951 1.269 . S
C977 O952 1.257 . S
C978 H953 0.930 . S
C978 C981 1.388 . S
C978 C983 1.418 . S
C979 H974 0.930 . S
C979 C982 1.404 . S
C979 C983 1.353 . S
N980 Co945 2.145 . S
N980 C981 1.397 . S
N980 C982 1.334 . S
C981 H962 0.929 . S
C981 C978 1.388 . S
C981 N980 1.397 . S
C982 H963 0.929 . S
C982 C979 1.404 . S
C982 N980 1.334 . S
C983 H975 0.930 . S
C983 C978 1.418 . S
C983 C979 1.353 . S
C984 H954 0.930 . S
C984 N985 1.330 . S
C984 C986 1.446 . S
N985 Co944 2.151 . S
N985 C984 1.330 . S
N985 C989 1.418 . S
C986 H965 0.929 . S
C986 C984 1.446 . S
C986 C987 1.332 . S
C987 H967 0.931 . S
C987 C986 1.332 . S
C987 C988 1.267 . S
C988 H956 0.929 . S
C988 C987 1.267 . S
C988 C989 1.251 . S
C989 H959 0.929 . S
C989 N985 1.418 . S
C989 C988 1.251 . S
C990 H957 0.930 . S
C990 C992 1.406 . S
C990 C995 1.261 . S
C991 H958 0.930 . S
C991 N993 1.325 . S
C991 C994 1.357 . S
C992 H960 0.928 . S
C992 C990 1.406 . S
C992 N993 1.261 . S
N993 Co944 2.214 . S
N993 C991 1.325 . S
N993 C992 1.261 . S
C994 H964 0.931 . S
C994 C991 1.357 . S
C994 C995 1.312 . S
C995 H966 0.930 . S
C995 C990 1.261 . S
C995 C994 1.312 . S
C996 O968 1.214 . S
C996 O976 1.234 . S
C997 H969 0.929 . S
C997 C1000 1.391 . S
C997 C1002 1.391 . S
C998 H970 0.929 . S
C998 C999 1.390 . S
C998 N1001 1.391 . S
C999 H971 0.930 . S
C999 C998 1.390 . S
C999 C1000 1.392 . S
C1000 H972 0.929 . S
C1000 C997 1.391 . S
C1000 C999 1.392 . S
N1001 Co945 2.257 . S
N1001 C998 1.391 . S
N1001 C1002 1.388 . S
C1002 H973 0.930 . S
C1002 C997 1.391 . S
C1002 N1001 1.388 . S
Co1003 O1005 2.143 . S
Co1003 O1011 2.074 . S
Co1003 O1014 2.093 . S
Co1003 O1027 2.097 . S
Co1003 N1044 2.151 . S
Co1003 N1052 2.214 . S
Co1004 O1005 2.160 . S
Co1004 O1010 2.058 . S
Co1004 O1020 2.057 . S
Co1004 O1035 2.037 . S
Co1004 N1039 2.145 1_655 S
Co1004 N1060 2.257 . S
O1005 Co1003 2.143 . S
O1005 Co1004 2.160 . S
C1006 O1007 1.278 . S
C1006 O1014 1.224 . S
O1007 C1006 1.278 . S
C1008 O1009 1.245 . S
C1008 O1020 1.232 . S
O1009 C1008 1.245 . S
O1010 Co1004 2.058 . S
O1010 C1036 1.269 . S
O1011 Co1003 2.074 . S
O1011 C1036 1.257 . S
H1012 C1037 0.930 . S
H1013 C1043 0.930 . S
O1014 Co1003 2.093 . S
O1014 C1006 1.224 . S
H1015 C1047 0.929 . S
H1016 C1049 0.930 . S
H1017 C1050 0.930 . S
H1018 C1048 0.929 . S
H1019 C1051 0.928 . S
O1020 Co1004 2.057 . S
O1020 C1008 1.232 . S
H1021 C1040 0.929 . S
H1022 C1041 0.929 . S
H1023 C1053 0.931 . S
H1024 C1045 0.929 . S
H1025 C1054 0.930 . S
H1026 C1046 0.931 . S
O1027 Co1003 2.097 . S
O1027 C1055 1.214 . S
H1028 C1056 0.929 . S
H1029 C1057 0.929 . S
H1030 C1058 0.930 . S
H1031 C1059 0.929 . S
H1032 C1061 0.930 . S
H1033 C1038 0.930 . S
H1034 C1042 0.930 . S
O1035 Co1004 2.037 . S
O1035 C1055 1.234 . S
C1036 O1010 1.269 . S
C1036 O1011 1.257 . S
C1037 H1012 0.930 . S
C1037 C1040 1.388 . S
C1037 C1042 1.418 . S
C1038 H1033 0.930 . S
C1038 C1041 1.404 . S
C1038 C1042 1.353 . S
N1039 Co1004 2.145 1_455 S
N1039 C1040 1.397 . S
N1039 C1041 1.334 . S
C1040 H1021 0.929 . S
C1040 C1037 1.388 . S
C1040 N1039 1.397 . S
C1041 H1022 0.929 . S
C1041 C1038 1.404 . S
C1041 N1039 1.334 . S
C1042 H1034 0.930 . S
C1042 C1037 1.418 . S
C1042 C1038 1.353 . S
C1043 H1013 0.930 . S
C1043 N1044 1.330 . S
C1043 C1045 1.446 . S
N1044 Co1003 2.151 . S
N1044 C1043 1.330 . S
N1044 C1048 1.418 . S
C1045 H1024 0.929 . S
C1045 C1043 1.446 . S
C1045 C1046 1.332 . S
C1046 H1026 0.931 . S
C1046 C1045 1.332 . S
C1046 C1047 1.267 . S
C1047 H1015 0.929 . S
C1047 C1046 1.267 . S
C1047 C1048 1.251 . S
C1048 H1018 0.929 . S
C1048 N1044 1.418 . S
C1048 C1047 1.251 . S
C1049 H1016 0.930 . S
C1049 C1051 1.406 . S
C1049 C1054 1.261 . S
C1050 H1017 0.930 . S
C1050 N1052 1.325 . S
C1050 C1053 1.357 . S
C1051 H1019 0.928 . S
C1051 C1049 1.406 . S
C1051 N1052 1.261 . S
N1052 Co1003 2.214 . S
N1052 C1050 1.325 . S
N1052 C1051 1.261 . S
C1053 H1023 0.931 . S
C1053 C1050 1.357 . S
C1053 C1054 1.312 . S
C1054 H1025 0.930 . S
C1054 C1049 1.261 . S
C1054 C1053 1.312 . S
C1055 O1027 1.214 . S
C1055 O1035 1.234 . S
C1056 H1028 0.929 . S
C1056 C1059 1.391 . S
C1056 C1061 1.391 . S
C1057 H1029 0.929 . S
C1057 C1058 1.390 . S
C1057 N1060 1.391 1_455 S
C1058 H1030 0.930 . S
C1058 C1057 1.390 . S
C1058 C1059 1.392 1_455 S
C1059 H1031 0.929 . S
C1059 C1056 1.391 . S
C1059 C1058 1.392 1_655 S
N1060 Co1004 2.257 . S
N1060 C1057 1.391 1_655 S
N1060 C1061 1.388 . S
C1061 H1032 0.930 . S
C1061 C1056 1.391 . S
C1061 N1060 1.388 . S
Co1062 O1064 2.143 . S
Co1062 O1070 2.074 . S
Co1062 O1073 2.093 . S
Co1062 O1086 2.097 . S
Co1062 N1103 2.151 . S
Co1062 N1111 2.214 . S
Co1063 O1064 2.160 . S
Co1063 O1069 2.058 . S
Co1063 O1079 2.057 . S
Co1063 O1094 2.037 . S
Co1063 N1098 2.145 1_455 S
Co1063 N1119 2.257 . S
O1064 Co1062 2.143 . S
O1064 Co1063 2.160 . S
C1065 O1066 1.278 . S
C1065 O1073 1.224 . S
O1066 C1065 1.278 . S
C1067 O1068 1.245 . S
C1067 O1079 1.232 . S
O1068 C1067 1.245 . S
O1069 Co1063 2.058 . S
O1069 C1095 1.269 . S
O1070 Co1062 2.074 . S
O1070 C1095 1.257 . S
H1071 C1096 0.930 . S
H1072 C1102 0.930 . S
O1073 Co1062 2.093 . S
O1073 C1065 1.224 . S
H1074 C1106 0.929 . S
H1075 C1108 0.930 . S
H1076 C1109 0.930 . S
H1077 C1107 0.929 . S
H1078 C1110 0.928 . S
O1079 Co1063 2.057 . S
O1079 C1067 1.232 . S
H1080 C1099 0.929 . S
H1081 C1100 0.929 . S
H1082 C1112 0.931 . S
H1083 C1104 0.929 . S
H1084 C1113 0.930 . S
H1085 C1105 0.931 . S
O1086 Co1062 2.097 . S
O1086 C1114 1.214 . S
H1087 C1115 0.929 . S
H1088 C1116 0.929 . S
H1089 C1117 0.930 . S
H1090 C1118 0.929 . S
H1091 C1120 0.930 . S
H1092 C1097 0.930 . S
H1093 C1101 0.930 . S
O1094 Co1063 2.037 . S
O1094 C1114 1.234 . S
C1095 O1069 1.269 . S
C1095 O1070 1.257 . S
C1096 H1071 0.930 . S
C1096 C1099 1.388 . S
C1096 C1101 1.418 . S
C1097 H1092 0.930 . S
C1097 C1100 1.404 . S
C1097 C1101 1.353 . S
N1098 Co1063 2.145 1_655 S
N1098 C1099 1.397 . S
N1098 C1100 1.334 . S
C1099 H1080 0.929 . S
C1099 C1096 1.388 . S
C1099 N1098 1.397 . S
C1100 H1081 0.929 . S
C1100 C1097 1.404 . S
C1100 N1098 1.334 . S
C1101 H1093 0.930 . S
C1101 C1096 1.418 . S
C1101 C1097 1.353 . S
C1102 H1072 0.930 . S
C1102 N1103 1.330 . S
C1102 C1104 1.446 . S
N1103 Co1062 2.151 . S
N1103 C1102 1.330 . S
N1103 C1107 1.418 . S
C1104 H1083 0.929 . S
C1104 C1102 1.446 . S
C1104 C1105 1.332 . S
C1105 H1085 0.931 . S
C1105 C1104 1.332 . S
C1105 C1106 1.267 . S
C1106 H1074 0.929 . S
C1106 C1105 1.267 . S
C1106 C1107 1.251 . S
C1107 H1077 0.929 . S
C1107 N1103 1.418 . S
C1107 C1106 1.251 . S
C1108 H1075 0.930 . S
C1108 C1110 1.406 . S
C1108 C1113 1.261 . S
C1109 H1076 0.930 . S
C1109 N1111 1.325 . S
C1109 C1112 1.357 . S
C1110 H1078 0.928 . S
C1110 C1108 1.406 . S
C1110 N1111 1.261 . S
N1111 Co1062 2.214 . S
N1111 C1109 1.325 . S
N1111 C1110 1.261 . S
C1112 H1082 0.931 . S
C1112 C1109 1.357 . S
C1112 C1113 1.312 . S
C1113 H1084 0.930 . S
C1113 C1108 1.261 . S
C1113 C1112 1.312 . S
C1114 O1086 1.214 . S
C1114 O1094 1.234 . S
C1115 H1087 0.929 . S
C1115 C1118 1.391 . S
C1115 C1120 1.391 . S
C1116 H1088 0.929 . S
C1116 C1117 1.390 . S
C1116 N1119 1.391 1_655 S
C1117 H1089 0.930 . S
C1117 C1116 1.390 . S
C1117 C1118 1.392 1_655 S
C1118 H1090 0.929 . S
C1118 C1115 1.391 . S
C1118 C1117 1.392 1_455 S
N1119 Co1063 2.257 . S
N1119 C1116 1.391 1_455 S
N1119 C1120 1.388 . S
C1120 H1091 0.930 . S
C1120 C1115 1.391 . S
C1120 N1119 1.388 . S
Co1121 O1123 2.143 . S
Co1121 O1129 2.074 . S
Co1121 O1132 2.093 . S
Co1121 O1145 2.097 . S
Co1121 N1162 2.151 . S
Co1121 N1170 2.214 . S
Co1122 O1123 2.160 . S
Co1122 O1128 2.058 . S
Co1122 O1138 2.057 . S
Co1122 O1153 2.037 . S
Co1122 N1157 2.145 1_545 S
Co1122 N1178 2.257 . S
O1123 Co1121 2.143 . S
O1123 Co1122 2.160 . S
C1124 O1125 1.278 . S
C1124 O1132 1.224 . S
O1125 C1124 1.278 . S
C1126 O1127 1.245 . S
C1126 O1138 1.232 . S
O1127 C1126 1.245 . S
O1128 Co1122 2.058 . S
O1128 C1154 1.269 . S
O1129 Co1121 2.074 . S
O1129 C1154 1.257 . S
H1130 C1155 0.930 . S
H1131 C1161 0.930 . S
O1132 Co1121 2.093 . S
O1132 C1124 1.224 . S
H1133 C1165 0.929 . S
H1134 C1167 0.930 . S
H1135 C1168 0.930 . S
H1136 C1166 0.929 . S
H1137 C1169 0.928 . S
O1138 Co1122 2.057 . S
O1138 C1126 1.232 . S
H1139 C1158 0.929 . S
H1140 C1159 0.929 . S
H1141 C1171 0.931 . S
H1142 C1163 0.929 . S
H1143 C1172 0.930 . S
H1144 C1164 0.931 . S
O1145 Co1121 2.097 . S
O1145 C1173 1.214 . S
H1146 C1174 0.929 . S
H1147 C1175 0.929 . S
H1148 C1176 0.930 . S
H1149 C1177 0.929 . S
H1150 C1179 0.930 . S
H1151 C1156 0.930 . S
H1152 C1160 0.930 . S
O1153 Co1122 2.037 . S
O1153 C1173 1.234 . S
C1154 O1128 1.269 . S
C1154 O1129 1.257 . S
C1155 H1130 0.930 . S
C1155 C1158 1.388 . S
C1155 C1160 1.418 . S
C1156 H1151 0.930 . S
C1156 C1159 1.404 . S
C1156 C1160 1.353 . S
N1157 Co1122 2.145 1_565 S
N1157 C1158 1.397 . S
N1157 C1159 1.334 . S
C1158 H1139 0.929 . S
C1158 C1155 1.388 . S
C1158 N1157 1.397 . S
C1159 H1140 0.929 . S
C1159 C1156 1.404 . S
C1159 N1157 1.334 . S
C1160 H1152 0.930 . S
C1160 C1155 1.418 . S
C1160 C1156 1.353 . S
C1161 H1131 0.930 . S
C1161 N1162 1.330 . S
C1161 C1163 1.446 . S
N1162 Co1121 2.151 . S
N1162 C1161 1.330 . S
N1162 C1166 1.418 . S
C1163 H1142 0.929 . S
C1163 C1161 1.446 . S
C1163 C1164 1.332 . S
C1164 H1144 0.931 . S
C1164 C1163 1.332 . S
C1164 C1165 1.267 . S
C1165 H1133 0.929 . S
C1165 C1164 1.267 . S
C1165 C1166 1.251 . S
C1166 H1136 0.929 . S
C1166 N1162 1.418 . S
C1166 C1165 1.251 . S
C1167 H1134 0.930 . S
C1167 C1169 1.406 . S
C1167 C1172 1.261 . S
C1168 H1135 0.930 . S
C1168 N1170 1.325 . S
C1168 C1171 1.357 . S
C1169 H1137 0.928 . S
C1169 C1167 1.406 . S
C1169 N1170 1.261 . S
N1170 Co1121 2.214 . S
N1170 C1168 1.325 . S
N1170 C1169 1.261 . S
C1171 H1141 0.931 . S
C1171 C1168 1.357 . S
C1171 C1172 1.312 . S
C1172 H1143 0.930 . S
C1172 C1167 1.261 . S
C1172 C1171 1.312 . S
C1173 O1145 1.214 . S
C1173 O1153 1.234 . S
C1174 H1146 0.929 . S
C1174 C1177 1.391 . S
C1174 C1179 1.391 . S
C1175 H1147 0.929 . S
C1175 C1176 1.390 . S
C1175 N1178 1.391 1_565 S
C1176 H1148 0.930 . S
C1176 C1175 1.390 . S
C1176 C1177 1.392 1_565 S
C1177 H1149 0.929 . S
C1177 C1174 1.391 . S
C1177 C1176 1.392 1_545 S
N1178 Co1122 2.257 . S
N1178 C1175 1.391 1_545 S
N1178 C1179 1.388 . S
C1179 H1150 0.930 . S
C1179 C1174 1.391 . S
C1179 N1178 1.388 . S
Co1180 O1182 2.143 . S
Co1180 O1188 2.074 . S
Co1180 O1191 2.093 . S
Co1180 O1204 2.097 . S
Co1180 N1221 2.151 . S
Co1180 N1229 2.214 . S
Co1181 O1182 2.160 . S
Co1181 O1187 2.058 . S
Co1181 O1197 2.057 . S
Co1181 O1212 2.037 . S
Co1181 N1216 2.145 . S
Co1181 N1237 2.257 . S
O1182 Co1180 2.143 . S
O1182 Co1181 2.160 . S
C1183 O1184 1.278 . S
C1183 O1191 1.224 . S
O1184 C1183 1.278 . S
C1185 O1186 1.245 . S
C1185 O1197 1.232 . S
O1186 C1185 1.245 . S
O1187 Co1181 2.058 . S
O1187 C1213 1.269 . S
O1188 Co1180 2.074 . S
O1188 C1213 1.257 . S
H1189 C1214 0.930 . S
H1190 C1220 0.930 . S
O1191 Co1180 2.093 . S
O1191 C1183 1.224 . S
H1192 C1224 0.929 . S
H1193 C1226 0.930 . S
H1194 C1227 0.930 . S
H1195 C1225 0.929 . S
H1196 C1228 0.928 . S
O1197 Co1181 2.057 . S
O1197 C1185 1.232 . S
H1198 C1217 0.929 . S
H1199 C1218 0.929 . S
H1200 C1230 0.931 . S
H1201 C1222 0.929 . S
H1202 C1231 0.930 . S
H1203 C1223 0.931 . S
O1204 Co1180 2.097 . S
O1204 C1232 1.214 . S
H1205 C1233 0.929 . S
H1206 C1234 0.929 . S
H1207 C1235 0.930 . S
H1208 C1236 0.929 . S
H1209 C1238 0.930 . S
H1210 C1215 0.930 . S
H1211 C1219 0.930 . S
O1212 Co1181 2.037 . S
O1212 C1232 1.234 . S
C1213 O1187 1.269 . S
C1213 O1188 1.257 . S
C1214 H1189 0.930 . S
C1214 C1217 1.388 . S
C1214 C1219 1.418 . S
C1215 H1210 0.930 . S
C1215 C1218 1.404 . S
C1215 C1219 1.353 . S
N1216 Co1181 2.145 . S
N1216 C1217 1.397 . S
N1216 C1218 1.334 . S
C1217 H1198 0.929 . S
C1217 C1214 1.388 . S
C1217 N1216 1.397 . S
C1218 H1199 0.929 . S
C1218 C1215 1.404 . S
C1218 N1216 1.334 . S
C1219 H1211 0.930 . S
C1219 C1214 1.418 . S
C1219 C1215 1.353 . S
C1220 H1190 0.930 . S
C1220 N1221 1.330 . S
C1220 C1222 1.446 . S
N1221 Co1180 2.151 . S
N1221 C1220 1.330 . S
N1221 C1225 1.418 . S
C1222 H1201 0.929 . S
C1222 C1220 1.446 . S
C1222 C1223 1.332 . S
C1223 H1203 0.931 . S
C1223 C1222 1.332 . S
C1223 C1224 1.267 . S
C1224 H1192 0.929 . S
C1224 C1223 1.267 . S
C1224 C1225 1.251 . S
C1225 H1195 0.929 . S
C1225 N1221 1.418 . S
C1225 C1224 1.251 . S
C1226 H1193 0.930 . S
C1226 C1228 1.406 . S
C1226 C1231 1.261 . S
C1227 H1194 0.930 . S
C1227 N1229 1.325 . S
C1227 C1230 1.357 . S
C1228 H1196 0.928 . S
C1228 C1226 1.406 . S
C1228 N1229 1.261 . S
N1229 Co1180 2.214 . S
N1229 C1227 1.325 . S
N1229 C1228 1.261 . S
C1230 H1200 0.931 . S
C1230 C1227 1.357 . S
C1230 C1231 1.312 . S
C1231 H1202 0.930 . S
C1231 C1226 1.261 . S
C1231 C1230 1.312 . S
C1232 O1204 1.214 . S
C1232 O1212 1.234 . S
C1233 H1205 0.929 . S
C1233 C1236 1.391 . S
C1233 C1238 1.391 . S
C1234 H1206 0.929 . S
C1234 C1235 1.390 . S
C1234 N1237 1.391 . S
C1235 H1207 0.930 . S
C1235 C1234 1.390 . S
C1235 C1236 1.392 . S
C1236 H1208 0.929 . S
C1236 C1233 1.391 . S
C1236 C1235 1.392 . S
N1237 Co1181 2.257 . S
N1237 C1234 1.391 . S
N1237 C1238 1.388 . S
C1238 H1209 0.930 . S
C1238 C1233 1.391 . S
C1238 N1237 1.388 . S
Co1239 O1241 2.143 . S
Co1239 O1247 2.074 . S
Co1239 O1250 2.093 . S
Co1239 O1263 2.097 . S
Co1239 N1280 2.151 . S
Co1239 N1288 2.214 . S
Co1240 O1241 2.160 . S
Co1240 O1246 2.058 . S
Co1240 O1256 2.057 . S
Co1240 O1271 2.037 . S
Co1240 N1275 2.145 1_655 S
Co1240 N1296 2.257 . S
O1241 Co1239 2.143 . S
O1241 Co1240 2.160 . S
C1242 O1243 1.278 . S
C1242 O1250 1.224 . S
O1243 C1242 1.278 . S
C1244 O1245 1.245 . S
C1244 O1256 1.232 . S
O1245 C1244 1.245 . S
O1246 Co1240 2.058 . S
O1246 C1272 1.269 . S
O1247 Co1239 2.074 . S
O1247 C1272 1.257 . S
H1248 C1273 0.930 . S
H1249 C1279 0.930 . S
O1250 Co1239 2.093 . S
O1250 C1242 1.224 . S
H1251 C1283 0.929 . S
H1252 C1285 0.930 . S
H1253 C1286 0.930 . S
H1254 C1284 0.929 . S
H1255 C1287 0.928 . S
O1256 Co1240 2.057 . S
O1256 C1244 1.232 . S
H1257 C1276 0.929 . S
H1258 C1277 0.929 . S
H1259 C1289 0.931 . S
H1260 C1281 0.929 . S
H1261 C1290 0.930 . S
H1262 C1282 0.931 . S
O1263 Co1239 2.097 . S
O1263 C1291 1.214 . S
H1264 C1292 0.929 . S
H1265 C1293 0.929 . S
H1266 C1294 0.930 . S
H1267 C1295 0.929 . S
H1268 C1297 0.930 . S
H1269 C1274 0.930 . S
H1270 C1278 0.930 . S
O1271 Co1240 2.037 . S
O1271 C1291 1.234 . S
C1272 O1246 1.269 . S
C1272 O1247 1.257 . S
C1273 H1248 0.930 . S
C1273 C1276 1.388 . S
C1273 C1278 1.418 . S
C1274 H1269 0.930 . S
C1274 C1277 1.404 . S
C1274 C1278 1.353 . S
N1275 Co1240 2.145 1_455 S
N1275 C1276 1.397 . S
N1275 C1277 1.334 . S
C1276 H1257 0.929 . S
C1276 C1273 1.388 . S
C1276 N1275 1.397 . S
C1277 H1258 0.929 . S
C1277 C1274 1.404 . S
C1277 N1275 1.334 . S
C1278 H1270 0.930 . S
C1278 C1273 1.418 . S
C1278 C1274 1.353 . S
C1279 H1249 0.930 . S
C1279 N1280 1.330 . S
C1279 C1281 1.446 . S
N1280 Co1239 2.151 . S
N1280 C1279 1.330 . S
N1280 C1284 1.418 . S
C1281 H1260 0.929 . S
C1281 C1279 1.446 . S
C1281 C1282 1.332 . S
C1282 H1262 0.931 . S
C1282 C1281 1.332 . S
C1282 C1283 1.267 . S
C1283 H1251 0.929 . S
C1283 C1282 1.267 . S
C1283 C1284 1.251 . S
C1284 H1254 0.929 . S
C1284 N1280 1.418 . S
C1284 C1283 1.251 . S
C1285 H1252 0.930 . S
C1285 C1287 1.406 . S
C1285 C1290 1.261 . S
C1286 H1253 0.930 . S
C1286 N1288 1.325 . S
C1286 C1289 1.357 . S
C1287 H1255 0.928 . S
C1287 C1285 1.406 . S
C1287 N1288 1.261 . S
N1288 Co1239 2.214 . S
N1288 C1286 1.325 . S
N1288 C1287 1.261 . S
C1289 H1259 0.931 . S
C1289 C1286 1.357 . S
C1289 C1290 1.312 . S
C1290 H1261 0.930 . S
C1290 C1285 1.261 . S
C1290 C1289 1.312 . S
C1291 O1263 1.214 . S
C1291 O1271 1.234 . S
C1292 H1264 0.929 . S
C1292 C1295 1.391 . S
C1292 C1297 1.391 . S
C1293 H1265 0.929 . S
C1293 C1294 1.390 . S
C1293 N1296 1.391 1_455 S
C1294 H1266 0.930 . S
C1294 C1293 1.390 . S
C1294 C1295 1.392 1_455 S
C1295 H1267 0.929 . S
C1295 C1292 1.391 . S
C1295 C1294 1.392 1_655 S
N1296 Co1240 2.257 . S
N1296 C1293 1.391 1_655 S
N1296 C1297 1.388 . S
C1297 H1268 0.930 . S
C1297 C1292 1.391 . S
C1297 N1296 1.388 . S
Co1298 O1300 2.143 . S
Co1298 O1306 2.074 . S
Co1298 O1309 2.093 . S
Co1298 O1322 2.097 . S
Co1298 N1339 2.151 . S
Co1298 N1347 2.214 . S
Co1299 O1300 2.160 . S
Co1299 O1305 2.058 . S
Co1299 O1315 2.057 . S
Co1299 O1330 2.037 . S
Co1299 N1334 2.145 1_565 S
Co1299 N1355 2.257 . S
O1300 Co1298 2.143 . S
O1300 Co1299 2.160 . S
C1301 O1302 1.278 . S
C1301 O1309 1.224 . S
O1302 C1301 1.278 . S
C1303 O1304 1.245 . S
C1303 O1315 1.232 . S
O1304 C1303 1.245 . S
O1305 Co1299 2.058 . S
O1305 C1331 1.269 . S
O1306 Co1298 2.074 . S
O1306 C1331 1.257 . S
H1307 C1332 0.930 . S
H1308 C1338 0.930 . S
O1309 Co1298 2.093 . S
O1309 C1301 1.224 . S
H1310 C1342 0.929 . S
H1311 C1344 0.930 . S
H1312 C1345 0.930 . S
H1313 C1343 0.929 . S
H1314 C1346 0.928 . S
O1315 Co1299 2.057 . S
O1315 C1303 1.232 . S
H1316 C1335 0.929 . S
H1317 C1336 0.929 . S
H1318 C1348 0.931 . S
H1319 C1340 0.929 . S
H1320 C1349 0.930 . S
H1321 C1341 0.931 . S
O1322 Co1298 2.097 . S
O1322 C1350 1.214 . S
H1323 C1351 0.929 . S
H1324 C1352 0.929 . S
H1325 C1353 0.930 . S
H1326 C1354 0.929 . S
H1327 C1356 0.930 . S
H1328 C1333 0.930 . S
H1329 C1337 0.930 . S
O1330 Co1299 2.037 . S
O1330 C1350 1.234 . S
C1331 O1305 1.269 . S
C1331 O1306 1.257 . S
C1332 H1307 0.930 . S
C1332 C1335 1.388 . S
C1332 C1337 1.418 . S
C1333 H1328 0.930 . S
C1333 C1336 1.404 . S
C1333 C1337 1.353 . S
N1334 Co1299 2.145 1_545 S
N1334 C1335 1.397 . S
N1334 C1336 1.334 . S
C1335 H1316 0.929 . S
C1335 C1332 1.388 . S
C1335 N1334 1.397 . S
C1336 H1317 0.929 . S
C1336 C1333 1.404 . S
C1336 N1334 1.334 . S
C1337 H1329 0.930 . S
C1337 C1332 1.418 . S
C1337 C1333 1.353 . S
C1338 H1308 0.930 . S
C1338 N1339 1.330 . S
C1338 C1340 1.446 . S
N1339 Co1298 2.151 . S
N1339 C1338 1.330 . S
N1339 C1343 1.418 . S
C1340 H1319 0.929 . S
C1340 C1338 1.446 . S
C1340 C1341 1.332 . S
C1341 H1321 0.931 . S
C1341 C1340 1.332 . S
C1341 C1342 1.267 . S
C1342 H1310 0.929 . S
C1342 C1341 1.267 . S
C1342 C1343 1.251 . S
C1343 H1313 0.929 . S
C1343 N1339 1.418 . S
C1343 C1342 1.251 . S
C1344 H1311 0.930 . S
C1344 C1346 1.406 . S
C1344 C1349 1.261 . S
C1345 H1312 0.930 . S
C1345 N1347 1.325 . S
C1345 C1348 1.357 . S
C1346 H1314 0.928 . S
C1346 C1344 1.406 . S
C1346 N1347 1.261 . S
N1347 Co1298 2.214 . S
N1347 C1345 1.325 . S
N1347 C1346 1.261 . S
C1348 H1318 0.931 . S
C1348 C1345 1.357 . S
C1348 C1349 1.312 . S
C1349 H1320 0.930 . S
C1349 C1344 1.261 . S
C1349 C1348 1.312 . S
C1350 O1322 1.214 . S
C1350 O1330 1.234 . S
C1351 H1323 0.929 . S
C1351 C1354 1.391 . S
C1351 C1356 1.391 . S
C1352 H1324 0.929 . S
C1352 C1353 1.390 . S
C1352 N1355 1.391 1_545 S
C1353 H1325 0.930 . S
C1353 C1352 1.390 . S
C1353 C1354 1.392 1_545 S
C1354 H1326 0.929 . S
C1354 C1351 1.391 . S
C1354 C1353 1.392 1_565 S
N1355 Co1299 2.257 . S
N1355 C1352 1.391 1_565 S
N1355 C1356 1.388 . S
C1356 H1327 0.930 . S
C1356 C1351 1.391 . S
C1356 N1355 1.388 . S
Co1357 O1359 2.143 . S
Co1357 O1365 2.074 . S
Co1357 O1368 2.093 . S
Co1357 O1381 2.097 . S
Co1357 N1398 2.151 . S
Co1357 N1406 2.214 . S
Co1358 O1359 2.160 . S
Co1358 O1364 2.058 . S
Co1358 O1374 2.057 . S
Co1358 O1389 2.037 . S
Co1358 N1393 2.145 . S
Co1358 N1414 2.257 . S
O1359 Co1357 2.143 . S
O1359 Co1358 2.160 . S
C1360 O1361 1.278 . S
C1360 O1368 1.224 . S
O1361 C1360 1.278 . S
C1362 O1363 1.245 . S
C1362 O1374 1.232 . S
O1363 C1362 1.245 . S
O1364 Co1358 2.058 . S
O1364 C1390 1.269 . S
O1365 Co1357 2.074 . S
O1365 C1390 1.257 . S
H1366 C1391 0.930 . S
H1367 C1397 0.930 . S
O1368 Co1357 2.093 . S
O1368 C1360 1.224 . S
H1369 C1401 0.929 . S
H1370 C1403 0.930 . S
H1371 C1404 0.930 . S
H1372 C1402 0.929 . S
H1373 C1405 0.928 . S
O1374 Co1358 2.057 . S
O1374 C1362 1.232 . S
H1375 C1394 0.929 . S
H1376 C1395 0.929 . S
H1377 C1407 0.931 . S
H1378 C1399 0.929 . S
H1379 C1408 0.930 . S
H1380 C1400 0.931 . S
O1381 Co1357 2.097 . S
O1381 C1409 1.214 . S
H1382 C1410 0.929 . S
H1383 C1411 0.929 . S
H1384 C1412 0.930 . S
H1385 C1413 0.929 . S
H1386 C1415 0.930 . S
H1387 C1392 0.930 . S
H1388 C1396 0.930 . S
O1389 Co1358 2.037 . S
O1389 C1409 1.234 . S
C1390 O1364 1.269 . S
C1390 O1365 1.257 . S
C1391 H1366 0.930 . S
C1391 C1394 1.388 . S
C1391 C1396 1.418 . S
C1392 H1387 0.930 . S
C1392 C1395 1.404 . S
C1392 C1396 1.353 . S
N1393 Co1358 2.145 . S
N1393 C1394 1.397 . S
N1393 C1395 1.334 . S
C1394 H1375 0.929 . S
C1394 C1391 1.388 . S
C1394 N1393 1.397 . S
C1395 H1376 0.929 . S
C1395 C1392 1.404 . S
C1395 N1393 1.334 . S
C1396 H1388 0.930 . S
C1396 C1391 1.418 . S
C1396 C1392 1.353 . S
C1397 H1367 0.930 . S
C1397 N1398 1.330 . S
C1397 C1399 1.446 . S
N1398 Co1357 2.151 . S
N1398 C1397 1.330 . S
N1398 C1402 1.418 . S
C1399 H1378 0.929 . S
C1399 C1397 1.446 . S
C1399 C1400 1.332 . S
C1400 H1380 0.931 . S
C1400 C1399 1.332 . S
C1400 C1401 1.267 . S
C1401 H1369 0.929 . S
C1401 C1400 1.267 . S
C1401 C1402 1.251 . S
C1402 H1372 0.929 . S
C1402 N1398 1.418 . S
C1402 C1401 1.251 . S
C1403 H1370 0.930 . S
C1403 C1405 1.406 . S
C1403 C1408 1.261 . S
C1404 H1371 0.930 . S
C1404 N1406 1.325 . S
C1404 C1407 1.357 . S
C1405 H1373 0.928 . S
C1405 C1403 1.406 . S
C1405 N1406 1.261 . S
N1406 Co1357 2.214 . S
N1406 C1404 1.325 . S
N1406 C1405 1.261 . S
C1407 H1377 0.931 . S
C1407 C1404 1.357 . S
C1407 C1408 1.312 . S
C1408 H1379 0.930 . S
C1408 C1403 1.261 . S
C1408 C1407 1.312 . S
C1409 O1381 1.214 . S
C1409 O1389 1.234 . S
C1410 H1382 0.929 . S
C1410 C1413 1.391 . S
C1410 C1415 1.391 . S
C1411 H1383 0.929 . S
C1411 C1412 1.390 . S
C1411 N1414 1.391 . S
C1412 H1384 0.930 . S
C1412 C1411 1.390 . S
C1412 C1413 1.392 . S
C1413 H1385 0.929 . S
C1413 C1410 1.391 . S
C1413 C1412 1.392 . S
N1414 Co1358 2.257 . S
N1414 C1411 1.391 . S
N1414 C1415 1.388 . S
C1415 H1386 0.930 . S
C1415 C1410 1.391 . S
C1415 N1414 1.388 . S
H1416 C1422 0.930 1_565 S
H1417 C1426 0.930 . S
H1418 C1431 0.929 . S
H1419 C1429 0.929 1_565 S
H1420 C1424 0.929 . S
H1421 C1430 0.929 1_565 S
C1422 H1416 0.930 1_545 S
C1422 C1423 1.367 . S
C1422 C1430 1.378 . S
C1423 C1422 1.367 . S
C1423 C1431 1.433 . S
C1424 H1420 0.929 . S
C1424 C1426 1.378 . S
C1424 C1428 1.350 . S
C1425 C1428 1.463 . S
C1425 C1430 1.350 . S
C1425 N1433 1.427 . S
C1426 H1417 0.930 . S
C1426 C1424 1.378 . S
C1426 C1427 1.367 . S
C1427 C1426 1.367 . S
C1427 C1429 1.433 . S
C1428 C1424 1.350 . S
C1428 C1425 1.463 . S
C1428 N1432 1.427 . S
C1429 H1419 0.929 1_545 S
C1429 C1427 1.433 . S
C1429 N1432 1.384 . S
C1430 H1421 0.929 1_545 S
C1430 C1422 1.378 . S
C1430 C1425 1.350 . S
C1431 H1418 0.929 . S
C1431 C1423 1.433 . S
C1431 N1433 1.384 . S
N1432 C1428 1.427 . S
N1432 C1429 1.384 . S
N1433 C1425 1.427 . S
N1433 C1431 1.384 . S
H1434 C1440 0.930 . S
H1435 C1444 0.930 . S
H1436 C1449 0.929 . S
H1437 C1447 0.929 . S
H1438 C1442 0.929 . S
H1439 C1448 0.929 . S
C1440 H1434 0.930 . S
C1440 C1441 1.367 . S
C1440 C1448 1.378 . S
C1441 C1440 1.367 . S
C1441 C1449 1.433 . S
C1442 H1438 0.929 . S
C1442 C1444 1.378 . S
C1442 C1446 1.350 . S
C1443 C1446 1.463 . S
C1443 C1448 1.350 . S
C1443 N1451 1.427 . S
C1444 H1435 0.930 . S
C1444 C1442 1.378 . S
C1444 C1445 1.367 . S
C1445 C1444 1.367 . S
C1445 C1447 1.433 . S
C1446 C1442 1.350 . S
C1446 C1443 1.463 . S
C1446 N1450 1.427 . S
C1447 H1437 0.929 . S
C1447 C1445 1.433 . S
C1447 N1450 1.384 . S
C1448 H1439 0.929 . S
C1448 C1440 1.378 . S
C1448 C1443 1.350 . S
C1449 H1436 0.929 . S
C1449 C1441 1.433 . S
C1449 N1451 1.384 . S
N1450 C1446 1.427 . S
N1450 C1447 1.384 . S
N1451 C1443 1.427 . S
N1451 C1449 1.384 . S
H1452 C1458 0.930 . S
H1453 C1462 0.930 . S
H1454 C1467 0.929 . S
H1455 C1465 0.929 . S
H1456 C1460 0.929 . S
H1457 C1466 0.929 . S
C1458 H1452 0.930 . S
C1458 C1459 1.367 . S
C1458 C1466 1.378 . S
C1459 C1458 1.367 . S
C1459 C1467 1.433 . S
C1460 H1456 0.929 . S
C1460 C1462 1.378 . S
C1460 C1464 1.350 . S
C1461 C1464 1.463 . S
C1461 C1466 1.350 . S
C1461 N1469 1.427 . S
C1462 H1453 0.930 . S
C1462 C1460 1.378 . S
C1462 C1463 1.367 . S
C1463 C1462 1.367 . S
C1463 C1465 1.433 . S
C1464 C1460 1.350 . S
C1464 C1461 1.463 . S
C1464 N1468 1.427 . S
C1465 H1455 0.929 . S
C1465 C1463 1.433 . S
C1465 N1468 1.384 . S
C1466 H1457 0.929 . S
C1466 C1458 1.378 . S
C1466 C1461 1.350 . S
C1467 H1454 0.929 . S
C1467 C1459 1.433 . S
C1467 N1469 1.384 . S
N1468 C1464 1.427 . S
N1468 C1465 1.384 . S
N1469 C1461 1.427 . S
N1469 C1467 1.384 . S
H1470 C1476 0.930 . S
H1471 C1480 0.930 . S
H1472 C1485 0.929 . S
H1473 C1483 0.929 . S
H1474 C1478 0.929 . S
H1475 C1484 0.929 . S
C1476 H1470 0.930 . S
C1476 C1477 1.367 . S
C1476 C1484 1.378 . S
C1477 C1476 1.367 . S
C1477 C1485 1.433 . S
C1478 H1474 0.929 . S
C1478 C1480 1.378 . S
C1478 C1482 1.350 . S
C1479 C1482 1.463 . S
C1479 C1484 1.350 . S
C1479 N1487 1.427 . S
C1480 H1471 0.930 . S
C1480 C1478 1.378 . S
C1480 C1481 1.367 . S
C1481 C1480 1.367 . S
C1481 C1483 1.433 . S
C1482 C1478 1.350 . S
C1482 C1479 1.463 . S
C1482 N1486 1.427 . S
C1483 H1473 0.929 . S
C1483 C1481 1.433 . S
C1483 N1486 1.384 . S
C1484 H1475 0.929 . S
C1484 C1476 1.378 . S
C1484 C1479 1.350 . S
C1485 H1472 0.929 . S
C1485 C1477 1.433 . S
C1485 N1487 1.384 . S
N1486 C1482 1.427 . S
N1486 C1483 1.384 . S
N1487 C1479 1.427 . S
N1487 C1485 1.384 . S
H1488 C1494 0.930 . S
H1489 C1498 0.930 . S
H1490 C1503 0.929 . S
H1491 C1501 0.929 . S
H1492 C1496 0.929 . S
H1493 C1502 0.929 . S
C1494 H1488 0.930 . S
C1494 C1495 1.367 . S
C1494 C1502 1.378 . S
C1495 C1494 1.367 . S
C1495 C1503 1.433 . S
C1496 H1492 0.929 . S
C1496 C1498 1.378 . S
C1496 C1500 1.350 . S
C1497 C1500 1.463 . S
C1497 C1502 1.350 . S
C1497 N1505 1.427 . S
C1498 H1489 0.930 . S
C1498 C1496 1.378 . S
C1498 C1499 1.367 . S
C1499 C1498 1.367 . S
C1499 C1501 1.433 . S
C1500 C1496 1.350 . S
C1500 C1497 1.463 . S
C1500 N1504 1.427 . S
C1501 H1491 0.929 . S
C1501 C1499 1.433 . S
C1501 N1504 1.384 . S
C1502 H1493 0.929 . S
C1502 C1494 1.378 . S
C1502 C1497 1.350 . S
C1503 H1490 0.929 . S
C1503 C1495 1.433 . S
C1503 N1505 1.384 . S
N1504 C1500 1.427 . S
N1504 C1501 1.384 . S
N1505 C1497 1.427 . S
N1505 C1503 1.384 . S
H1506 C1512 0.930 . S
H1507 C1516 0.930 . S
H1508 C1521 0.929 . S
H1509 C1519 0.929 . S
H1510 C1514 0.929 . S
H1511 C1520 0.929 . S
C1512 H1506 0.930 . S
C1512 C1513 1.367 . S
C1512 C1520 1.378 . S
C1513 C1512 1.367 . S
C1513 C1521 1.433 . S
C1514 H1510 0.929 . S
C1514 C1516 1.378 . S
C1514 C1518 1.350 . S
C1515 C1518 1.463 . S
C1515 C1520 1.350 . S
C1515 N1523 1.427 . S
C1516 H1507 0.930 . S
C1516 C1514 1.378 . S
C1516 C1517 1.367 . S
C1517 C1516 1.367 . S
C1517 C1519 1.433 . S
C1518 C1514 1.350 . S
C1518 C1515 1.463 . S
C1518 N1522 1.427 . S
C1519 H1509 0.929 . S
C1519 C1517 1.433 . S
C1519 N1522 1.384 . S
C1520 H1511 0.929 . S
C1520 C1512 1.378 . S
C1520 C1515 1.350 . S
C1521 H1508 0.929 . S
C1521 C1513 1.433 . S
C1521 N1523 1.384 . S
N1522 C1518 1.427 . S
N1522 C1519 1.384 . S
N1523 C1515 1.427 . S
N1523 C1521 1.384 . S
H1524 C1530 0.930 . S
H1525 C1534 0.930 . S
H1526 C1539 0.929 . S
H1527 C1537 0.929 . S
H1528 C1532 0.929 . S
H1529 C1538 0.929 . S
C1530 H1524 0.930 . S
C1530 C1531 1.367 . S
C1530 C1538 1.378 . S
C1531 C1530 1.367 . S
C1531 C1539 1.433 . S
C1532 H1528 0.929 . S
C1532 C1534 1.378 . S
C1532 C1536 1.350 . S
C1533 C1536 1.463 . S
C1533 C1538 1.350 . S
C1533 N1541 1.427 . S
C1534 H1525 0.930 . S
C1534 C1532 1.378 . S
C1534 C1535 1.367 . S
C1535 C1534 1.367 . S
C1535 C1537 1.433 . S
C1536 C1532 1.350 . S
C1536 C1533 1.463 . S
C1536 N1540 1.427 . S
C1537 H1527 0.929 . S
C1537 C1535 1.433 . S
C1537 N1540 1.384 . S
C1538 H1529 0.929 . S
C1538 C1530 1.378 . S
C1538 C1533 1.350 . S
C1539 H1526 0.929 . S
C1539 C1531 1.433 . S
C1539 N1541 1.384 . S
N1540 C1536 1.427 . S
N1540 C1537 1.384 . S
N1541 C1533 1.427 . S
N1541 C1539 1.384 . S
H1542 C1548 0.930 . S
H1543 C1552 0.930 . S
H1544 C1557 0.929 . S
H1545 C1555 0.929 . S
H1546 C1550 0.929 . S
H1547 C1556 0.929 . S
C1548 H1542 0.930 . S
C1548 C1549 1.367 . S
C1548 C1556 1.378 . S
C1549 C1548 1.367 . S
C1549 C1557 1.433 . S
C1550 H1546 0.929 . S
C1550 C1552 1.378 . S
C1550 C1554 1.350 . S
C1551 C1554 1.463 . S
C1551 C1556 1.350 . S
C1551 N1559 1.427 . S
C1552 H1543 0.930 . S
C1552 C1550 1.378 . S
C1552 C1553 1.367 . S
C1553 C1552 1.367 . S
C1553 C1555 1.433 . S
C1554 C1550 1.350 . S
C1554 C1551 1.463 . S
C1554 N1558 1.427 . S
C1555 H1545 0.929 . S
C1555 C1553 1.433 . S
C1555 N1558 1.384 . S
C1556 H1547 0.929 . S
C1556 C1548 1.378 . S
C1556 C1551 1.350 . S
C1557 H1544 0.929 . S
C1557 C1549 1.433 . S
C1557 N1559 1.384 . S
N1558 C1554 1.427 . S
N1558 C1555 1.384 . S
N1559 C1551 1.427 . S
N1559 C1557 1.384 . S
H1560 C1566 0.930 . S
H1561 C1570 0.930 . S
H1562 C1575 0.929 . S
H1563 C1573 0.929 . S
H1564 C1568 0.929 . S
H1565 C1574 0.929 . S
C1566 H1560 0.930 . S
C1566 C1567 1.367 . S
C1566 C1574 1.378 . S
C1567 C1566 1.367 . S
C1567 C1575 1.433 . S
C1568 H1564 0.929 . S
C1568 C1570 1.378 . S
C1568 C1572 1.350 . S
C1569 C1572 1.463 . S
C1569 C1574 1.350 . S
C1569 N1577 1.427 . S
C1570 H1561 0.930 . S
C1570 C1568 1.378 . S
C1570 C1571 1.367 . S
C1571 C1570 1.367 . S
C1571 C1573 1.433 . S
C1572 C1568 1.350 . S
C1572 C1569 1.463 . S
C1572 N1576 1.427 . S
C1573 H1563 0.929 . S
C1573 C1571 1.433 . S
C1573 N1576 1.384 . S
C1574 H1565 0.929 . S
C1574 C1566 1.378 . S
C1574 C1569 1.350 . S
C1575 H1562 0.929 . S
C1575 C1567 1.433 . S
C1575 N1577 1.384 . S
N1576 C1572 1.427 . S
N1576 C1573 1.384 . S
N1577 C1569 1.427 . S
N1577 C1575 1.384 . S
H1578 C1584 0.930 . S
H1579 C1588 0.930 . S
H1580 C1593 0.929 . S
H1581 C1591 0.929 . S
H1582 C1586 0.929 . S
H1583 C1592 0.929 . S
C1584 H1578 0.930 . S
C1584 C1585 1.367 . S
C1584 C1592 1.378 . S
C1585 C1584 1.367 . S
C1585 C1593 1.433 . S
C1586 H1582 0.929 . S
C1586 C1588 1.378 . S
C1586 C1590 1.350 . S
C1587 C1590 1.463 . S
C1587 C1592 1.350 . S
C1587 N1595 1.427 . S
C1588 H1579 0.930 . S
C1588 C1586 1.378 . S
C1588 C1589 1.367 . S
C1589 C1588 1.367 . S
C1589 C1591 1.433 . S
C1590 C1586 1.350 . S
C1590 C1587 1.463 . S
C1590 N1594 1.427 . S
C1591 H1581 0.929 . S
C1591 C1589 1.433 . S
C1591 N1594 1.384 . S
C1592 H1583 0.929 . S
C1592 C1584 1.378 . S
C1592 C1587 1.350 . S
C1593 H1580 0.929 . S
C1593 C1585 1.433 . S
C1593 N1595 1.384 . S
N1594 C1590 1.427 . S
N1594 C1591 1.384 . S
N1595 C1587 1.427 . S
N1595 C1593 1.384 . S
H1596 C1602 0.930 . S
H1597 C1606 0.930 . S
H1598 C1611 0.929 . S
H1599 C1609 0.929 . S
H1600 C1604 0.929 . S
H1601 C1610 0.929 . S
C1602 H1596 0.930 . S
C1602 C1603 1.367 . S
C1602 C1610 1.378 . S
C1603 C1602 1.367 . S
C1603 C1611 1.433 . S
C1604 H1600 0.929 . S
C1604 C1606 1.378 . S
C1604 C1608 1.350 . S
C1605 C1608 1.463 . S
C1605 C1610 1.350 . S
C1605 N1613 1.427 . S
C1606 H1597 0.930 . S
C1606 C1604 1.378 . S
C1606 C1607 1.367 . S
C1607 C1606 1.367 . S
C1607 C1609 1.433 . S
C1608 C1604 1.350 . S
C1608 C1605 1.463 . S
C1608 N1612 1.427 . S
C1609 H1599 0.929 . S
C1609 C1607 1.433 . S
C1609 N1612 1.384 . S
C1610 H1601 0.929 . S
C1610 C1602 1.378 . S
C1610 C1605 1.350 . S
C1611 H1598 0.929 . S
C1611 C1603 1.433 . S
C1611 N1613 1.384 . S
N1612 C1608 1.427 . S
N1612 C1609 1.384 . S
N1613 C1605 1.427 . S
N1613 C1611 1.384 . S
H1614 C1620 0.930 . S
H1615 C1624 0.930 . S
H1616 C1629 0.929 . S
H1617 C1627 0.929 . S
H1618 C1622 0.929 . S
H1619 C1628 0.929 . S
C1620 H1614 0.930 . S
C1620 C1621 1.367 . S
C1620 C1628 1.378 . S
C1621 C1620 1.367 . S
C1621 C1629 1.433 . S
C1622 H1618 0.929 . S
C1622 C1624 1.378 . S
C1622 C1626 1.350 . S
C1623 C1626 1.463 . S
C1623 C1628 1.350 . S
C1623 N1631 1.427 . S
C1624 H1615 0.930 . S
C1624 C1622 1.378 . S
C1624 C1625 1.367 . S
C1625 C1624 1.367 . S
C1625 C1627 1.433 . S
C1626 C1622 1.350 . S
C1626 C1623 1.463 . S
C1626 N1630 1.427 . S
C1627 H1617 0.929 . S
C1627 C1625 1.433 . S
C1627 N1630 1.384 . S
C1628 H1619 0.929 . S
C1628 C1620 1.378 . S
C1628 C1623 1.350 . S
C1629 H1616 0.929 . S
C1629 C1621 1.433 . S
C1629 N1631 1.384 . S
N1630 C1626 1.427 . S
N1630 C1627 1.384 . S
N1631 C1623 1.427 . S
N1631 C1629 1.384 . S
H1632 C1638 0.930 . S
H1633 C1642 0.930 . S
H1634 C1647 0.929 . S
H1635 C1645 0.929 . S
H1636 C1640 0.929 . S
H1637 C1646 0.929 . S
C1638 H1632 0.930 . S
C1638 C1639 1.367 . S
C1638 C1646 1.378 . S
C1639 C1638 1.367 . S
C1639 C1647 1.433 . S
C1640 H1636 0.929 . S
C1640 C1642 1.378 . S
C1640 C1644 1.350 . S
C1641 C1644 1.463 . S
C1641 C1646 1.350 . S
C1641 N1649 1.427 . S
C1642 H1633 0.930 . S
C1642 C1640 1.378 . S
C1642 C1643 1.367 . S
C1643 C1642 1.367 . S
C1643 C1645 1.433 . S
C1644 C1640 1.350 . S
C1644 C1641 1.463 . S
C1644 N1648 1.427 . S
C1645 H1635 0.929 . S
C1645 C1643 1.433 . S
C1645 N1648 1.384 . S
C1646 H1637 0.929 . S
C1646 C1638 1.378 . S
C1646 C1641 1.350 . S
C1647 H1634 0.929 . S
C1647 C1639 1.433 . S
C1647 N1649 1.384 . S
N1648 C1644 1.427 . S
N1648 C1645 1.384 . S
N1649 C1641 1.427 . S
N1649 C1647 1.384 . S
H1650 C1656 0.930 . S
H1651 C1660 0.930 . S
H1652 C1665 0.929 . S
H1653 C1663 0.929 . S
H1654 C1658 0.929 . S
H1655 C1664 0.929 . S
C1656 H1650 0.930 . S
C1656 C1657 1.367 . S
C1656 C1664 1.378 . S
C1657 C1656 1.367 . S
C1657 C1665 1.433 . S
C1658 H1654 0.929 . S
C1658 C1660 1.378 . S
C1658 C1662 1.350 . S
C1659 C1662 1.463 . S
C1659 C1664 1.350 . S
C1659 N1667 1.427 . S
C1660 H1651 0.930 . S
C1660 C1658 1.378 . S
C1660 C1661 1.367 . S
C1661 C1660 1.367 . S
C1661 C1663 1.433 . S
C1662 C1658 1.350 . S
C1662 C1659 1.463 . S
C1662 N1666 1.427 . S
C1663 H1653 0.929 . S
C1663 C1661 1.433 . S
C1663 N1666 1.384 . S
C1664 H1655 0.929 . S
C1664 C1656 1.378 . S
C1664 C1659 1.350 . S
C1665 H1652 0.929 . S
C1665 C1657 1.433 . S
C1665 N1667 1.384 . S
N1666 C1662 1.427 . S
N1666 C1663 1.384 . S
N1667 C1659 1.427 . S
N1667 C1665 1.384 . S
H1668 C1674 0.930 . S
H1669 C1678 0.930 . S
H1670 C1683 0.929 . S
H1671 C1681 0.929 . S
H1672 C1676 0.929 . S
H1673 C1682 0.929 . S
C1674 H1668 0.930 . S
C1674 C1675 1.367 . S
C1674 C1682 1.378 . S
C1675 C1674 1.367 . S
C1675 C1683 1.433 . S
C1676 H1672 0.929 . S
C1676 C1678 1.378 . S
C1676 C1680 1.350 . S
C1677 C1680 1.463 . S
C1677 C1682 1.350 . S
C1677 N1685 1.427 . S
C1678 H1669 0.930 . S
C1678 C1676 1.378 . S
C1678 C1679 1.367 . S
C1679 C1678 1.367 . S
C1679 C1681 1.433 . S
C1680 C1676 1.350 . S
C1680 C1677 1.463 . S
C1680 N1684 1.427 . S
C1681 H1671 0.929 . S
C1681 C1679 1.433 . S
C1681 N1684 1.384 . S
C1682 H1673 0.929 . S
C1682 C1674 1.378 . S
C1682 C1677 1.350 . S
C1683 H1670 0.929 . S
C1683 C1675 1.433 . S
C1683 N1685 1.384 . S
N1684 C1680 1.427 . S
N1684 C1681 1.384 . S
N1685 C1677 1.427 . S
N1685 C1683 1.384 . S
H1686 C1692 0.930 . S
H1687 C1696 0.930 . S
H1688 C1701 0.929 . S
H1689 C1699 0.929 . S
H1690 C1694 0.929 . S
H1691 C1700 0.929 . S
C1692 H1686 0.930 . S
C1692 C1693 1.367 . S
C1692 C1700 1.378 . S
C1693 C1692 1.367 . S
C1693 C1701 1.433 . S
C1694 H1690 0.929 . S
C1694 C1696 1.378 . S
C1694 C1698 1.350 . S
C1695 C1698 1.463 . S
C1695 C1700 1.350 . S
C1695 N1703 1.427 . S
C1696 H1687 0.930 . S
C1696 C1694 1.378 . S
C1696 C1697 1.367 . S
C1697 C1696 1.367 . S
C1697 C1699 1.433 . S
C1698 C1694 1.350 . S
C1698 C1695 1.463 . S
C1698 N1702 1.427 . S
C1699 H1689 0.929 . S
C1699 C1697 1.433 . S
C1699 N1702 1.384 . S
C1700 H1691 0.929 . S
C1700 C1692 1.378 . S
C1700 C1695 1.350 . S
C1701 H1688 0.929 . S
C1701 C1693 1.433 . S
C1701 N1703 1.384 . S
N1702 C1698 1.427 . S
N1702 C1699 1.384 . S
N1703 C1695 1.427 . S
N1703 C1701 1.384 . S
H1704 C1710 0.930 . S
H1705 C1714 0.930 . S
H1706 C1719 0.929 . S
H1707 C1717 0.929 . S
H1708 C1712 0.929 . S
H1709 C1718 0.929 . S
C1710 H1704 0.930 . S
C1710 C1711 1.367 . S
C1710 C1718 1.378 . S
C1711 C1710 1.367 . S
C1711 C1719 1.433 . S
C1712 H1708 0.929 . S
C1712 C1714 1.378 . S
C1712 C1716 1.350 . S
C1713 C1716 1.463 . S
C1713 C1718 1.350 . S
C1713 N1721 1.427 . S
C1714 H1705 0.930 . S
C1714 C1712 1.378 . S
C1714 C1715 1.367 . S
C1715 C1714 1.367 . S
C1715 C1717 1.433 . S
C1716 C1712 1.350 . S
C1716 C1713 1.463 . S
C1716 N1720 1.427 . S
C1717 H1707 0.929 . S
C1717 C1715 1.433 . S
C1717 N1720 1.384 . S
C1718 H1709 0.929 . S
C1718 C1710 1.378 . S
C1718 C1713 1.350 . S
C1719 H1706 0.929 . S
C1719 C1711 1.433 . S
C1719 N1721 1.384 . S
N1720 C1716 1.427 . S
N1720 C1717 1.384 . S
N1721 C1713 1.427 . S
N1721 C1719 1.384 . S
H1722 C1728 0.930 . S
H1723 C1732 0.930 . S
H1724 C1737 0.929 . S
H1725 C1735 0.929 . S
H1726 C1730 0.929 . S
H1727 C1736 0.929 . S
C1728 H1722 0.930 . S
C1728 C1729 1.367 . S
C1728 C1736 1.378 . S
C1729 C1728 1.367 . S
C1729 C1737 1.433 . S
C1730 H1726 0.929 . S
C1730 C1732 1.378 . S
C1730 C1734 1.350 . S
C1731 C1734 1.463 . S
C1731 C1736 1.350 . S
C1731 N1739 1.427 . S
C1732 H1723 0.930 . S
C1732 C1730 1.378 . S
C1732 C1733 1.367 . S
C1733 C1732 1.367 . S
C1733 C1735 1.433 . S
C1734 C1730 1.350 . S
C1734 C1731 1.463 . S
C1734 N1738 1.427 . S
C1735 H1725 0.929 . S
C1735 C1733 1.433 . S
C1735 N1738 1.384 . S
C1736 H1727 0.929 . S
C1736 C1728 1.378 . S
C1736 C1731 1.350 . S
C1737 H1724 0.929 . S
C1737 C1729 1.433 . S
C1737 N1739 1.384 . S
N1738 C1734 1.427 . S
N1738 C1735 1.384 . S
N1739 C1731 1.427 . S
N1739 C1737 1.384 . S
H1740 C1746 0.930 . S
H1741 C1750 0.930 . S
H1742 C1755 0.929 . S
H1743 C1753 0.929 . S
H1744 C1748 0.929 . S
H1745 C1754 0.929 . S
C1746 H1740 0.930 . S
C1746 C1747 1.367 . S
C1746 C1754 1.378 . S
C1747 C1746 1.367 . S
C1747 C1755 1.433 . S
C1748 H1744 0.929 . S
C1748 C1750 1.378 . S
C1748 C1752 1.350 . S
C1749 C1752 1.463 . S
C1749 C1754 1.350 . S
C1749 N1757 1.427 . S
C1750 H1741 0.930 . S
C1750 C1748 1.378 . S
C1750 C1751 1.367 . S
C1751 C1750 1.367 . S
C1751 C1753 1.433 . S
C1752 C1748 1.350 . S
C1752 C1749 1.463 . S
C1752 N1756 1.427 . S
C1753 H1743 0.929 . S
C1753 C1751 1.433 . S
C1753 N1756 1.384 . S
C1754 H1745 0.929 . S
C1754 C1746 1.378 . S
C1754 C1749 1.350 . S
C1755 H1742 0.929 . S
C1755 C1747 1.433 . S
C1755 N1757 1.384 . S
N1756 C1752 1.427 . S
N1756 C1753 1.384 . S
N1757 C1749 1.427 . S
N1757 C1755 1.384 . S
H1758 C1764 0.930 . S
H1759 C1768 0.930 . S
H1760 C1773 0.929 . S
H1761 C1771 0.929 . S
H1762 C1766 0.929 . S
H1763 C1772 0.929 . S
C1764 H1758 0.930 . S
C1764 C1765 1.367 . S
C1764 C1772 1.378 . S
C1765 C1764 1.367 . S
C1765 C1773 1.433 . S
C1766 H1762 0.929 . S
C1766 C1768 1.378 . S
C1766 C1770 1.350 . S
C1767 C1770 1.463 . S
C1767 C1772 1.350 . S
C1767 N1775 1.427 . S
C1768 H1759 0.930 . S
C1768 C1766 1.378 . S
C1768 C1769 1.367 . S
C1769 C1768 1.367 . S
C1769 C1771 1.433 . S
C1770 C1766 1.350 . S
C1770 C1767 1.463 . S
C1770 N1774 1.427 . S
C1771 H1761 0.929 . S
C1771 C1769 1.433 . S
C1771 N1774 1.384 . S
C1772 H1763 0.929 . S
C1772 C1764 1.378 . S
C1772 C1767 1.350 . S
C1773 H1760 0.929 . S
C1773 C1765 1.433 . S
C1773 N1775 1.384 . S
N1774 C1770 1.427 . S
N1774 C1771 1.384 . S
N1775 C1767 1.427 . S
N1775 C1773 1.384 . S
H1776 C1782 0.930 . S
H1777 C1786 0.930 . S
H1778 C1791 0.929 . S
H1779 C1789 0.929 . S
H1780 C1784 0.929 . S
H1781 C1790 0.929 . S
C1782 H1776 0.930 . S
C1782 C1783 1.367 . S
C1782 C1790 1.378 . S
C1783 C1782 1.367 . S
C1783 C1791 1.433 . S
C1784 H1780 0.929 . S
C1784 C1786 1.378 . S
C1784 C1788 1.350 . S
C1785 C1788 1.463 . S
C1785 C1790 1.350 . S
C1785 N1793 1.427 . S
C1786 H1777 0.930 . S
C1786 C1784 1.378 . S
C1786 C1787 1.367 . S
C1787 C1786 1.367 . S
C1787 C1789 1.433 . S
C1788 C1784 1.350 . S
C1788 C1785 1.463 . S
C1788 N1792 1.427 . S
C1789 H1779 0.929 . S
C1789 C1787 1.433 . S
C1789 N1792 1.384 . S
C1790 H1781 0.929 . S
C1790 C1782 1.378 . S
C1790 C1785 1.350 . S
C1791 H1778 0.929 . S
C1791 C1783 1.433 . S
C1791 N1793 1.384 . S
N1792 C1788 1.427 . S
N1792 C1789 1.384 . S
N1793 C1785 1.427 . S
N1793 C1791 1.384 . S
H1794 C1800 0.930 . S
H1795 C1804 0.930 . S
H1796 C1809 0.929 . S
H1797 C1807 0.929 . S
H1798 C1802 0.929 . S
H1799 C1808 0.929 . S
C1800 H1794 0.930 . S
C1800 C1801 1.367 . S
C1800 C1808 1.378 . S
C1801 C1800 1.367 . S
C1801 C1809 1.433 . S
C1802 H1798 0.929 . S
C1802 C1804 1.378 . S
C1802 C1806 1.350 . S
C1803 C1806 1.463 . S
C1803 C1808 1.350 . S
C1803 N1811 1.427 . S
C1804 H1795 0.930 . S
C1804 C1802 1.378 . S
C1804 C1805 1.367 . S
C1805 C1804 1.367 . S
C1805 C1807 1.433 . S
C1806 C1802 1.350 . S
C1806 C1803 1.463 . S
C1806 N1810 1.427 . S
C1807 H1797 0.929 . S
C1807 C1805 1.433 . S
C1807 N1810 1.384 . S
C1808 H1799 0.929 . S
C1808 C1800 1.378 . S
C1808 C1803 1.350 . S
C1809 H1796 0.929 . S
C1809 C1801 1.433 . S
C1809 N1811 1.384 . S
N1810 C1806 1.427 . S
N1810 C1807 1.384 . S
N1811 C1803 1.427 . S
N1811 C1809 1.384 . S
H1812 C1818 0.930 . S
H1813 C1822 0.930 . S
H1814 C1827 0.929 . S
H1815 C1825 0.929 . S
H1816 C1820 0.929 . S
H1817 C1826 0.929 . S
C1818 H1812 0.930 . S
C1818 C1819 1.367 . S
C1818 C1826 1.378 . S
C1819 C1818 1.367 . S
C1819 C1827 1.433 . S
C1820 H1816 0.929 . S
C1820 C1822 1.378 . S
C1820 C1824 1.350 . S
C1821 C1824 1.463 . S
C1821 C1826 1.350 . S
C1821 N1829 1.427 . S
C1822 H1813 0.930 . S
C1822 C1820 1.378 . S
C1822 C1823 1.367 . S
C1823 C1822 1.367 . S
C1823 C1825 1.433 . S
C1824 C1820 1.350 . S
C1824 C1821 1.463 . S
C1824 N1828 1.427 . S
C1825 H1815 0.929 . S
C1825 C1823 1.433 . S
C1825 N1828 1.384 . S
C1826 H1817 0.929 . S
C1826 C1818 1.378 . S
C1826 C1821 1.350 . S
C1827 H1814 0.929 . S
C1827 C1819 1.433 . S
C1827 N1829 1.384 . S
N1828 C1824 1.427 . S
N1828 C1825 1.384 . S
N1829 C1821 1.427 . S
N1829 C1827 1.384 . S
H1830 C1836 0.930 . S
H1831 C1840 0.930 . S
H1832 C1845 0.929 . S
H1833 C1843 0.929 . S
H1834 C1838 0.929 . S
H1835 C1844 0.929 . S
C1836 H1830 0.930 . S
C1836 C1837 1.367 . S
C1836 C1844 1.378 . S
C1837 C1836 1.367 . S
C1837 C1845 1.433 . S
C1838 H1834 0.929 . S
C1838 C1840 1.378 . S
C1838 C1842 1.350 . S
C1839 C1842 1.463 . S
C1839 C1844 1.350 . S
C1839 N1847 1.427 . S
C1840 H1831 0.930 . S
C1840 C1838 1.378 . S
C1840 C1841 1.367 . S
C1841 C1840 1.367 . S
C1841 C1843 1.433 . S
C1842 C1838 1.350 . S
C1842 C1839 1.463 . S
C1842 N1846 1.427 . S
C1843 H1833 0.929 . S
C1843 C1841 1.433 . S
C1843 N1846 1.384 . S
C1844 H1835 0.929 . S
C1844 C1836 1.378 . S
C1844 C1839 1.350 . S
C1845 H1832 0.929 . S
C1845 C1837 1.433 . S
C1845 N1847 1.384 . S
N1846 C1842 1.427 . S
N1846 C1843 1.384 . S
N1847 C1839 1.427 . S
N1847 C1845 1.384 . S
H1848 C1854 0.930 . S
H1849 C1858 0.930 . S
H1850 C1863 0.929 . S
H1851 C1861 0.929 . S
H1852 C1856 0.929 . S
H1853 C1862 0.929 . S
C1854 H1848 0.930 . S
C1854 C1855 1.367 1_545 S
C1854 C1862 1.378 . S
C1855 C1854 1.367 1_565 S
C1855 C1863 1.433 . S
C1856 H1852 0.929 . S
C1856 C1858 1.378 . S
C1856 C1860 1.350 1_565 S
C1857 C1860 1.463 1_566 S
C1857 C1862 1.350 1_565 S
C1857 N1865 1.427 . S
C1858 H1849 0.930 . S
C1858 C1856 1.378 . S
C1858 C1859 1.367 1_565 S
C1859 C1858 1.367 1_545 S
C1859 C1861 1.433 . S
C1860 C1856 1.350 1_545 S
C1860 C1857 1.463 1_544 S
C1860 N1864 1.427 . S
C1861 H1851 0.929 . S
C1861 C1859 1.433 . S
C1861 N1864 1.384 . S
C1862 H1853 0.929 . S
C1862 C1854 1.378 . S
C1862 C1857 1.350 1_545 S
C1863 H1850 0.929 . S
C1863 C1855 1.433 . S
C1863 N1865 1.384 . S
N1864 C1860 1.427 . S
N1864 C1861 1.384 . S
N1865 C1857 1.427 . S
N1865 C1863 1.384 . S
H1866 C1872 0.930 . S
H1867 C1876 0.930 . S
H1868 C1881 0.929 . S
H1869 C1879 0.929 . S
H1870 C1874 0.929 . S
H1871 C1880 0.929 . S
C1872 H1866 0.930 . S
C1872 C1873 1.367 . S
C1872 C1880 1.378 . S
C1873 C1872 1.367 . S
C1873 C1881 1.433 . S
C1874 H1870 0.929 . S
C1874 C1876 1.378 . S
C1874 C1878 1.350 . S
C1875 C1878 1.463 . S
C1875 C1880 1.350 . S
C1875 N1883 1.427 . S
C1876 H1867 0.930 . S
C1876 C1874 1.378 . S
C1876 C1877 1.367 . S
C1877 C1876 1.367 . S
C1877 C1879 1.433 . S
C1878 C1874 1.350 . S
C1878 C1875 1.463 . S
C1878 N1882 1.427 . S
C1879 H1869 0.929 . S
C1879 C1877 1.433 . S
C1879 N1882 1.384 . S
C1880 H1871 0.929 . S
C1880 C1872 1.378 . S
C1880 C1875 1.350 . S
C1881 H1868 0.929 . S
C1881 C1873 1.433 . S
C1881 N1883 1.384 . S
N1882 C1878 1.427 . S
N1882 C1879 1.384 . S
N1883 C1875 1.427 . S
N1883 C1881 1.384 . S
H1884 C1890 0.930 . S
H1885 C1894 0.930 . S
H1886 C1899 0.929 . S
H1887 C1897 0.929 . S
H1888 C1892 0.929 . S
H1889 C1898 0.929 . S
C1890 H1884 0.930 . S
C1890 C1891 1.367 1_655 S
C1890 C1898 1.378 . S
C1891 C1890 1.367 1_455 S
C1891 C1899 1.433 . S
C1892 H1888 0.929 . S
C1892 C1894 1.378 . S
C1892 C1896 1.350 1_455 S
C1893 C1896 1.463 1_456 S
C1893 C1898 1.350 1_455 S
C1893 N1901 1.427 . S
C1894 H1885 0.930 . S
C1894 C1892 1.378 . S
C1894 C1895 1.367 1_455 S
C1895 C1894 1.367 1_655 S
C1895 C1897 1.433 . S
C1896 C1892 1.350 1_655 S
C1896 C1893 1.463 1_654 S
C1896 N1900 1.427 . S
C1897 H1887 0.929 . S
C1897 C1895 1.433 . S
C1897 N1900 1.384 . S
C1898 H1889 0.929 . S
C1898 C1890 1.378 . S
C1898 C1893 1.350 1_655 S
C1899 H1886 0.929 . S
C1899 C1891 1.433 . S
C1899 N1901 1.384 . S
N1900 C1896 1.427 . S
N1900 C1897 1.384 . S
N1901 C1893 1.427 . S
N1901 C1899 1.384 . S
H1902 C1908 0.930 . S
H1903 C1912 0.930 . S
H1904 C1917 0.929 . S
H1905 C1915 0.929 . S
H1906 C1910 0.929 . S
H1907 C1916 0.929 . S
C1908 H1902 0.930 . S
C1908 C1909 1.367 . S
C1908 C1916 1.378 . S
C1909 C1908 1.367 . S
C1909 C1917 1.433 1_545 S
C1910 H1906 0.929 . S
C1910 C1912 1.378 . S
C1910 C1914 1.350 . S
C1911 C1914 1.463 1_545 S
C1911 C1916 1.350 . S
C1911 N1919 1.427 1_545 S
C1912 H1903 0.930 . S
C1912 C1910 1.378 . S
C1912 C1913 1.367 . S
C1913 C1912 1.367 . S
C1913 C1915 1.433 1_565 S
C1914 C1910 1.350 . S
C1914 C1911 1.463 1_565 S
C1914 N1918 1.427 1_565 S
C1915 H1905 0.929 . S
C1915 C1913 1.433 1_545 S
C1915 N1918 1.384 . S
C1916 H1907 0.929 . S
C1916 C1908 1.378 . S
C1916 C1911 1.350 . S
C1917 H1904 0.929 . S
C1917 C1909 1.433 1_565 S
C1917 N1919 1.384 . S
N1918 C1914 1.427 1_545 S
N1918 C1915 1.384 . S
N1919 C1911 1.427 1_565 S
N1919 C1917 1.384 . S
H1920 C1926 0.930 . S
H1921 C1930 0.930 . S
H1922 C1935 0.929 . S
H1923 C1933 0.929 . S
H1924 C1928 0.929 . S
H1925 C1934 0.929 . S
C1926 H1920 0.930 . S
C1926 C1927 1.367 . S
C1926 C1934 1.378 . S
C1927 C1926 1.367 . S
C1927 C1935 1.433 . S
C1928 H1924 0.929 . S
C1928 C1930 1.378 . S
C1928 C1932 1.350 . S
C1929 C1932 1.463 1_554 S
C1929 C1934 1.350 . S
C1929 N1937 1.427 . S
C1930 H1921 0.930 . S
C1930 C1928 1.378 . S
C1930 C1931 1.367 . S
C1931 C1930 1.367 . S
C1931 C1933 1.433 . S
C1932 C1928 1.350 . S
C1932 C1929 1.463 1_556 S
C1932 N1936 1.427 . S
C1933 H1923 0.929 . S
C1933 C1931 1.433 . S
C1933 N1936 1.384 . S
C1934 H1925 0.929 . S
C1934 C1926 1.378 . S
C1934 C1929 1.350 . S
C1935 H1922 0.929 . S
C1935 C1927 1.433 . S
C1935 N1937 1.384 . S
N1936 C1932 1.427 . S
N1936 C1933 1.384 . S
N1937 C1929 1.427 . S
N1937 C1935 1.384 . S
H1938 C1944 0.930 . S
H1939 C1948 0.930 . S
H1940 C1953 0.929 . S
H1941 C1951 0.929 . S
H1942 C1946 0.929 . S
H1943 C1952 0.929 . S
C1944 H1938 0.930 . S
C1944 C1945 1.367 . S
C1944 C1952 1.378 . S
C1945 C1944 1.367 . S
C1945 C1953 1.433 1_455 S
C1946 H1942 0.929 . S
C1946 C1948 1.378 . S
C1946 C1950 1.350 . S
C1947 C1950 1.463 1_455 S
C1947 C1952 1.350 . S
C1947 N1955 1.427 1_455 S
C1948 H1939 0.930 . S
C1948 C1946 1.378 . S
C1948 C1949 1.367 . S
C1949 C1948 1.367 . S
C1949 C1951 1.433 1_655 S
C1950 C1946 1.350 . S
C1950 C1947 1.463 1_655 S
C1950 N1954 1.427 1_655 S
C1951 H1941 0.929 . S
C1951 C1949 1.433 1_455 S
C1951 N1954 1.384 . S
C1952 H1943 0.929 . S
C1952 C1944 1.378 . S
C1952 C1947 1.350 . S
C1953 H1940 0.929 . S
C1953 C1945 1.433 1_655 S
C1953 N1955 1.384 . S
N1954 C1950 1.427 1_455 S
N1954 C1951 1.384 . S
N1955 C1947 1.427 1_655 S
N1955 C1953 1.384 . S
H1956 C1962 0.930 . S
H1957 C1966 0.930 . S
H1958 C1971 0.929 . S
H1959 C1969 0.929 . S
H1960 C1964 0.929 . S
H1961 C1970 0.929 . S
C1962 H1956 0.930 . S
C1962 C1963 1.367 . S
C1962 C1970 1.378 . S
C1963 C1962 1.367 . S
C1963 C1971 1.433 1_565 S
C1964 H1960 0.929 . S
C1964 C1966 1.378 . S
C1964 C1968 1.350 . S
C1965 C1968 1.463 1_566 S
C1965 C1970 1.350 . S
C1965 N1973 1.427 1_565 S
C1966 H1957 0.930 . S
C1966 C1964 1.378 . S
C1966 C1967 1.367 . S
C1967 C1966 1.367 . S
C1967 C1969 1.433 1_545 S
C1968 C1964 1.350 . S
C1968 C1965 1.463 1_544 S
C1968 N1972 1.427 1_545 S
C1969 H1959 0.929 . S
C1969 C1967 1.433 1_565 S
C1969 N1972 1.384 . S
C1970 H1961 0.929 . S
C1970 C1962 1.378 . S
C1970 C1965 1.350 . S
C1971 H1958 0.929 . S
C1971 C1963 1.433 1_545 S
C1971 N1973 1.384 . S
N1972 C1968 1.427 1_565 S
N1972 C1969 1.384 . S
N1973 C1965 1.427 1_545 S
N1973 C1971 1.384 . S
H1974 C1980 0.930 . S
H1975 C1984 0.930 . S
H1976 C1989 0.929 . S
H1977 C1987 0.929 . S
H1978 C1982 0.929 . S
H1979 C1988 0.929 . S
C1980 H1974 0.930 . S
C1980 C1981 1.367 . S
C1980 C1988 1.378 . S
C1981 C1980 1.367 . S
C1981 C1989 1.433 . S
C1982 H1978 0.929 . S
C1982 C1984 1.378 . S
C1982 C1986 1.350 . S
C1983 C1986 1.463 . S
C1983 C1988 1.350 . S
C1983 N1991 1.427 . S
C1984 H1975 0.930 . S
C1984 C1982 1.378 . S
C1984 C1985 1.367 . S
C1985 C1984 1.367 . S
C1985 C1987 1.433 . S
C1986 C1982 1.350 . S
C1986 C1983 1.463 . S
C1986 N1990 1.427 . S
C1987 H1977 0.929 . S
C1987 C1985 1.433 . S
C1987 N1990 1.384 . S
C1988 H1979 0.929 . S
C1988 C1980 1.378 . S
C1988 C1983 1.350 . S
C1989 H1976 0.929 . S
C1989 C1981 1.433 . S
C1989 N1991 1.384 . S
N1990 C1986 1.427 . S
N1990 C1987 1.384 . S
N1991 C1983 1.427 . S
N1991 C1989 1.384 . S
H1992 C1998 0.930 . S
H1993 C2002 0.930 . S
H1994 C2007 0.929 . S
H1995 C2005 0.929 . S
H1996 C2000 0.929 . S
H1997 C2006 0.929 . S
C1998 H1992 0.930 . S
C1998 C1999 1.367 1_455 S
C1998 C2006 1.378 . S
C1999 C1998 1.367 1_655 S
C1999 C2007 1.433 . S
C2000 H1996 0.929 . S
C2000 C2002 1.378 . S
C2000 C2004 1.350 1_655 S
C2001 C2004 1.463 1_654 S
C2001 C2006 1.350 1_655 S
C2001 N2009 1.427 . S
C2002 H1993 0.930 . S
C2002 C2000 1.378 . S
C2002 C2003 1.367 1_655 S
C2003 C2002 1.367 1_455 S
C2003 C2005 1.433 . S
C2004 C2000 1.350 1_455 S
C2004 C2001 1.463 1_456 S
C2004 N2008 1.427 . S
C2005 H1995 0.929 . S
C2005 C2003 1.433 . S
C2005 N2008 1.384 . S
C2006 H1997 0.929 . S
C2006 C1998 1.378 . S
C2006 C2001 1.350 1_455 S
C2007 H1994 0.929 . S
C2007 C1999 1.433 . S
C2007 N2009 1.384 . S
N2008 C2004 1.427 . S
N2008 C2005 1.384 . S
N2009 C2001 1.427 . S
N2009 C2007 1.384 . S
H2010 C2016 0.930 . S
H2011 C2020 0.930 . S
H2012 C2025 0.929 . S
H2013 C2023 0.929 . S
H2014 C2018 0.929 . S
H2015 C2024 0.929 . S
C2016 H2010 0.930 . S
C2016 C2017 1.367 . S
C2016 C2024 1.378 . S
C2017 C2016 1.367 . S
C2017 C2025 1.433 1_565 S
C2018 H2014 0.929 . S
C2018 C2020 1.378 . S
C2018 C2022 1.350 . S
C2019 C2022 1.463 1_565 S
C2019 C2024 1.350 . S
C2019 N2027 1.427 1_565 S
C2020 H2011 0.930 . S
C2020 C2018 1.378 . S
C2020 C2021 1.367 . S
C2021 C2020 1.367 . S
C2021 C2023 1.433 1_545 S
C2022 C2018 1.350 . S
C2022 C2019 1.463 1_545 S
C2022 N2026 1.427 1_545 S
C2023 H2013 0.929 . S
C2023 C2021 1.433 1_565 S
C2023 N2026 1.384 . S
C2024 H2015 0.929 . S
C2024 C2016 1.378 . S
C2024 C2019 1.350 . S
C2025 H2012 0.929 . S
C2025 C2017 1.433 1_545 S
C2025 N2027 1.384 . S
N2026 C2022 1.427 1_565 S
N2026 C2023 1.384 . S
N2027 C2019 1.427 1_545 S
N2027 C2025 1.384 . S
H2028 C2034 0.930 . S
H2029 C2038 0.930 . S
H2030 C2043 0.929 . S
H2031 C2041 0.929 . S
H2032 C2036 0.929 . S
H2033 C2042 0.929 . S
C2034 H2028 0.930 . S
C2034 C2035 1.367 . S
C2034 C2042 1.378 . S
C2035 C2034 1.367 . S
C2035 C2043 1.433 . S
C2036 H2032 0.929 . S
C2036 C2038 1.378 . S
C2036 C2040 1.350 . S
C2037 C2040 1.463 1_554 S
C2037 C2042 1.350 . S
C2037 N2045 1.427 . S
C2038 H2029 0.930 . S
C2038 C2036 1.378 . S
C2038 C2039 1.367 . S
C2039 C2038 1.367 . S
C2039 C2041 1.433 . S
C2040 C2036 1.350 . S
C2040 C2037 1.463 1_556 S
C2040 N2044 1.427 . S
C2041 H2031 0.929 . S
C2041 C2039 1.433 . S
C2041 N2044 1.384 . S
C2042 H2033 0.929 . S
C2042 C2034 1.378 . S
C2042 C2037 1.350 . S
C2043 H2030 0.929 . S
C2043 C2035 1.433 . S
C2043 N2045 1.384 . S
N2044 C2040 1.427 . S
N2044 C2041 1.384 . S
N2045 C2037 1.427 . S
N2045 C2043 1.384 . S
H2046 C2052 0.930 . S
H2047 C2056 0.930 . S
H2048 C2061 0.929 . S
H2049 C2059 0.929 . S
H2050 C2054 0.929 . S
H2051 C2060 0.929 . S
C2052 H2046 0.930 . S
C2052 C2053 1.367 1_655 S
C2052 C2060 1.378 . S
C2053 C2052 1.367 1_455 S
C2053 C2061 1.433 . S
C2054 H2050 0.929 . S
C2054 C2056 1.378 . S
C2054 C2058 1.350 1_455 S
C2055 C2058 1.463 1_455 S
C2055 C2060 1.350 1_455 S
C2055 N2063 1.427 . S
C2056 H2047 0.930 . S
C2056 C2054 1.378 . S
C2056 C2057 1.367 1_455 S
C2057 C2056 1.367 1_655 S
C2057 C2059 1.433 . S
C2058 C2054 1.350 1_655 S
C2058 C2055 1.463 1_655 S
C2058 N2062 1.427 . S
C2059 H2049 0.929 . S
C2059 C2057 1.433 . S
C2059 N2062 1.384 . S
C2060 H2051 0.929 . S
C2060 C2052 1.378 . S
C2060 C2055 1.350 1_655 S
C2061 H2048 0.929 . S
C2061 C2053 1.433 . S
C2061 N2063 1.384 . S
N2062 C2058 1.427 . S
N2062 C2059 1.384 . S
N2063 C2055 1.427 . S
N2063 C2061 1.384 . S
H2064 C2070 0.930 . S
H2065 C2074 0.930 . S
H2066 C2079 0.929 . S
H2067 C2077 0.929 . S
H2068 C2072 0.929 . S
H2069 C2078 0.929 . S
C2070 H2064 0.930 . S
C2070 C2071 1.367 . S
C2070 C2078 1.378 . S
C2071 C2070 1.367 . S
C2071 C2079 1.433 . S
C2072 H2068 0.929 . S
C2072 C2074 1.378 . S
C2072 C2076 1.350 . S
C2073 C2076 1.463 . S
C2073 C2078 1.350 . S
C2073 N2081 1.427 . S
C2074 H2065 0.930 . S
C2074 C2072 1.378 . S
C2074 C2075 1.367 . S
C2075 C2074 1.367 . S
C2075 C2077 1.433 . S
C2076 C2072 1.350 . S
C2076 C2073 1.463 . S
C2076 N2080 1.427 . S
C2077 H2067 0.929 . S
C2077 C2075 1.433 . S
C2077 N2080 1.384 . S
C2078 H2069 0.929 . S
C2078 C2070 1.378 . S
C2078 C2073 1.350 . S
C2079 H2066 0.929 . S
C2079 C2071 1.433 . S
C2079 N2081 1.384 . S
N2080 C2076 1.427 . S
N2080 C2077 1.384 . S
N2081 C2073 1.427 . S
N2081 C2079 1.384 . S
H2082 C2088 0.930 . S
H2083 C2092 0.930 . S
H2084 C2097 0.929 . S
H2085 C2095 0.929 . S
H2086 C2090 0.929 . S
H2087 C2096 0.929 . S
C2088 H2082 0.930 . S
C2088 C2089 1.367 . S
C2088 C2096 1.378 . S
C2089 C2088 1.367 . S
C2089 C2097 1.433 . S
C2090 H2086 0.929 . S
C2090 C2092 1.378 . S
C2090 C2094 1.350 . S
C2091 C2094 1.463 . S
C2091 C2096 1.350 . S
C2091 N2099 1.427 . S
C2092 H2083 0.930 . S
C2092 C2090 1.378 . S
C2092 C2093 1.367 . S
C2093 C2092 1.367 . S
C2093 C2095 1.433 . S
C2094 C2090 1.350 . S
C2094 C2091 1.463 . S
C2094 N2098 1.427 . S
C2095 H2085 0.929 . S
C2095 C2093 1.433 . S
C2095 N2098 1.384 . S
C2096 H2087 0.929 . S
C2096 C2088 1.378 . S
C2096 C2091 1.350 . S
C2097 H2084 0.929 . S
C2097 C2089 1.433 . S
C2097 N2099 1.384 . S
N2098 C2094 1.427 . S
N2098 C2095 1.384 . S
N2099 C2091 1.427 . S
N2099 C2097 1.384 . S
H2100 C2106 0.930 . S
H2101 C2110 0.930 . S
H2102 C2115 0.929 . S
H2103 C2113 0.929 . S
H2104 C2108 0.929 . S
H2105 C2114 0.929 . S
C2106 H2100 0.930 . S
C2106 C2107 1.367 . S
C2106 C2114 1.378 . S
C2107 C2106 1.367 . S
C2107 C2115 1.433 . S
C2108 H2104 0.929 . S
C2108 C2110 1.378 . S
C2108 C2112 1.350 . S
C2109 C2112 1.463 . S
C2109 C2114 1.350 . S
C2109 N2117 1.427 . S
C2110 H2101 0.930 . S
C2110 C2108 1.378 . S
C2110 C2111 1.367 . S
C2111 C2110 1.367 . S
C2111 C2113 1.433 . S
C2112 C2108 1.350 . S
C2112 C2109 1.463 . S
C2112 N2116 1.427 . S
C2113 H2103 0.929 . S
C2113 C2111 1.433 . S
C2113 N2116 1.384 . S
C2114 H2105 0.929 . S
C2114 C2106 1.378 . S
C2114 C2109 1.350 . S
C2115 H2102 0.929 . S
C2115 C2107 1.433 . S
C2115 N2117 1.384 . S
N2116 C2112 1.427 . S
N2116 C2113 1.384 . S
N2117 C2109 1.427 . S
N2117 C2115 1.384 . S
H2118 C2124 0.930 . S
H2119 C2128 0.930 . S
H2120 C2133 0.929 . S
H2121 C2131 0.929 . S
H2122 C2126 0.929 . S
H2123 C2132 0.929 . S
C2124 H2118 0.930 . S
C2124 C2125 1.367 . S
C2124 C2132 1.378 . S
C2125 C2124 1.367 . S
C2125 C2133 1.433 . S
C2126 H2122 0.929 . S
C2126 C2128 1.378 . S
C2126 C2130 1.350 . S
C2127 C2130 1.463 . S
C2127 C2132 1.350 . S
C2127 N2135 1.427 . S
C2128 H2119 0.930 . S
C2128 C2126 1.378 . S
C2128 C2129 1.367 . S
C2129 C2128 1.367 . S
C2129 C2131 1.433 . S
C2130 C2126 1.350 . S
C2130 C2127 1.463 . S
C2130 N2134 1.427 . S
C2131 H2121 0.929 . S
C2131 C2129 1.433 . S
C2131 N2134 1.384 . S
C2132 H2123 0.929 . S
C2132 C2124 1.378 . S
C2132 C2127 1.350 . S
C2133 H2120 0.929 . S
C2133 C2125 1.433 . S
C2133 N2135 1.384 . S
N2134 C2130 1.427 . S
N2134 C2131 1.384 . S
N2135 C2127 1.427 . S
N2135 C2133 1.384 . S
H2136 C2142 0.930 . S
H2137 C2146 0.930 . S
H2138 C2151 0.929 . S
H2139 C2149 0.929 . S
H2140 C2144 0.929 . S
H2141 C2150 0.929 . S
C2142 H2136 0.930 . S
C2142 C2143 1.367 . S
C2142 C2150 1.378 . S
C2143 C2142 1.367 . S
C2143 C2151 1.433 . S
C2144 H2140 0.929 . S
C2144 C2146 1.378 . S
C2144 C2148 1.350 . S
C2145 C2148 1.463 . S
C2145 C2150 1.350 . S
C2145 N2153 1.427 . S
C2146 H2137 0.930 . S
C2146 C2144 1.378 . S
C2146 C2147 1.367 . S
C2147 C2146 1.367 . S
C2147 C2149 1.433 . S
C2148 C2144 1.350 . S
C2148 C2145 1.463 . S
C2148 N2152 1.427 . S
C2149 H2139 0.929 . S
C2149 C2147 1.433 . S
C2149 N2152 1.384 . S
C2150 H2141 0.929 . S
C2150 C2142 1.378 . S
C2150 C2145 1.350 . S
C2151 H2138 0.929 . S
C2151 C2143 1.433 . S
C2151 N2153 1.384 . S
N2152 C2148 1.427 . S
N2152 C2149 1.384 . S
N2153 C2145 1.427 . S
N2153 C2151 1.384 . S
H2154 C2160 0.930 . S
H2155 C2164 0.930 . S
H2156 C2169 0.929 . S
H2157 C2167 0.929 . S
H2158 C2162 0.929 . S
H2159 C2168 0.929 . S
C2160 H2154 0.930 . S
C2160 C2161 1.367 . S
C2160 C2168 1.378 . S
C2161 C2160 1.367 . S
C2161 C2169 1.433 . S
C2162 H2158 0.929 . S
C2162 C2164 1.378 . S
C2162 C2166 1.350 . S
C2163 C2166 1.463 . S
C2163 C2168 1.350 . S
C2163 N2171 1.427 . S
C2164 H2155 0.930 . S
C2164 C2162 1.378 . S
C2164 C2165 1.367 . S
C2165 C2164 1.367 . S
C2165 C2167 1.433 . S
C2166 C2162 1.350 . S
C2166 C2163 1.463 . S
C2166 N2170 1.427 . S
C2167 H2157 0.929 . S
C2167 C2165 1.433 . S
C2167 N2170 1.384 . S
C2168 H2159 0.929 . S
C2168 C2160 1.378 . S
C2168 C2163 1.350 . S
C2169 H2156 0.929 . S
C2169 C2161 1.433 . S
C2169 N2171 1.384 . S
N2170 C2166 1.427 . S
N2170 C2167 1.384 . S
N2171 C2163 1.427 . S
N2171 C2169 1.384 . S
H2172 C2178 0.930 . S
H2173 C2182 0.930 . S
H2174 C2187 0.929 . S
H2175 C2185 0.929 . S
H2176 C2180 0.929 . S
H2177 C2186 0.929 . S
C2178 H2172 0.930 . S
C2178 C2179 1.367 . S
C2178 C2186 1.378 . S
C2179 C2178 1.367 . S
C2179 C2187 1.433 . S
C2180 H2176 0.929 . S
C2180 C2182 1.378 . S
C2180 C2184 1.350 . S
C2181 C2184 1.463 . S
C2181 C2186 1.350 . S
C2181 N2189 1.427 . S
C2182 H2173 0.930 . S
C2182 C2180 1.378 . S
C2182 C2183 1.367 . S
C2183 C2182 1.367 . S
C2183 C2185 1.433 . S
C2184 C2180 1.350 . S
C2184 C2181 1.463 . S
C2184 N2188 1.427 . S
C2185 H2175 0.929 . S
C2185 C2183 1.433 . S
C2185 N2188 1.384 . S
C2186 H2177 0.929 . S
C2186 C2178 1.378 . S
C2186 C2181 1.350 . S
C2187 H2174 0.929 . S
C2187 C2179 1.433 . S
C2187 N2189 1.384 . S
N2188 C2184 1.427 . S
N2188 C2185 1.384 . S
N2189 C2181 1.427 . S
N2189 C2187 1.384 . S
H2190 C2196 0.930 . S
H2191 C2200 0.930 . S
H2192 C2205 0.929 . S
H2193 C2203 0.929 . S
H2194 C2198 0.929 . S
H2195 C2204 0.929 . S
C2196 H2190 0.930 . S
C2196 C2197 1.367 . S
C2196 C2204 1.378 . S
C2197 C2196 1.367 . S
C2197 C2205 1.433 . S
C2198 H2194 0.929 . S
C2198 C2200 1.378 . S
C2198 C2202 1.350 . S
C2199 C2202 1.463 . S
C2199 C2204 1.350 . S
C2199 N2207 1.427 . S
C2200 H2191 0.930 . S
C2200 C2198 1.378 . S
C2200 C2201 1.367 . S
C2201 C2200 1.367 . S
C2201 C2203 1.433 . S
C2202 C2198 1.350 . S
C2202 C2199 1.463 . S
C2202 N2206 1.427 . S
C2203 H2193 0.929 . S
C2203 C2201 1.433 . S
C2203 N2206 1.384 . S
C2204 H2195 0.929 . S
C2204 C2196 1.378 . S
C2204 C2199 1.350 . S
C2205 H2192 0.929 . S
C2205 C2197 1.433 . S
C2205 N2207 1.384 . S
N2206 C2202 1.427 . S
N2206 C2203 1.384 . S
N2207 C2199 1.427 . S
N2207 C2205 1.384 . S
H2208 C2214 0.930 . S
H2209 C2218 0.930 . S
H2210 C2223 0.929 . S
H2211 C2221 0.929 . S
H2212 C2216 0.929 . S
H2213 C2222 0.929 . S
C2214 H2208 0.930 . S
C2214 C2215 1.367 . S
C2214 C2222 1.378 . S
C2215 C2214 1.367 . S
C2215 C2223 1.433 . S
C2216 H2212 0.929 . S
C2216 C2218 1.378 . S
C2216 C2220 1.350 . S
C2217 C2220 1.463 . S
C2217 C2222 1.350 . S
C2217 N2225 1.427 . S
C2218 H2209 0.930 . S
C2218 C2216 1.378 . S
C2218 C2219 1.367 . S
C2219 C2218 1.367 . S
C2219 C2221 1.433 . S
C2220 C2216 1.350 . S
C2220 C2217 1.463 . S
C2220 N2224 1.427 . S
C2221 H2211 0.929 . S
C2221 C2219 1.433 . S
C2221 N2224 1.384 . S
C2222 H2213 0.929 . S
C2222 C2214 1.378 . S
C2222 C2217 1.350 . S
C2223 H2210 0.929 . S
C2223 C2215 1.433 . S
C2223 N2225 1.384 . S
N2224 C2220 1.427 . S
N2224 C2221 1.384 . S
N2225 C2217 1.427 . S
N2225 C2223 1.384 . S
H2226 C2232 0.930 . S
H2227 C2236 0.930 . S
H2228 C2241 0.929 . S
H2229 C2239 0.929 . S
H2230 C2234 0.929 . S
H2231 C2240 0.929 . S
C2232 H2226 0.930 . S
C2232 C2233 1.367 . S
C2232 C2240 1.378 . S
C2233 C2232 1.367 . S
C2233 C2241 1.433 . S
C2234 H2230 0.929 . S
C2234 C2236 1.378 . S
C2234 C2238 1.350 . S
C2235 C2238 1.463 . S
C2235 C2240 1.350 . S
C2235 N2243 1.427 . S
C2236 H2227 0.930 . S
C2236 C2234 1.378 . S
C2236 C2237 1.367 . S
C2237 C2236 1.367 . S
C2237 C2239 1.433 . S
C2238 C2234 1.350 . S
C2238 C2235 1.463 . S
C2238 N2242 1.427 . S
C2239 H2229 0.929 . S
C2239 C2237 1.433 . S
C2239 N2242 1.384 . S
C2240 H2231 0.929 . S
C2240 C2232 1.378 . S
C2240 C2235 1.350 . S
C2241 H2228 0.929 . S
C2241 C2233 1.433 . S
C2241 N2243 1.384 . S
N2242 C2238 1.427 . S
N2242 C2239 1.384 . S
N2243 C2235 1.427 . S
N2243 C2241 1.384 . S
H2244 C2250 0.930 . S
H2245 C2254 0.934 . S
H2246 C2259 0.928 1_565 S
H2247 C2257 0.929 . S
H2248 C2252 0.936 . S
H2249 C2258 0.929 . S
C2250 H2244 0.930 . S
C2250 C2251 1.367 . S
C2250 C2258 1.378 . S
C2251 C2250 1.367 . S
C2251 C2259 1.433 . S
C2252 H2248 0.936 . S
C2252 C2254 1.378 . S
C2252 C2256 1.350 . S
C2253 C2256 1.463 . S
C2253 C2258 1.350 . S
C2253 N2261 1.427 . S
C2254 H2245 0.934 . S
C2254 C2252 1.378 . S
C2254 C2255 1.367 . S
C2255 C2254 1.367 . S
C2255 C2257 1.433 . S
C2256 C2252 1.350 . S
C2256 C2253 1.463 . S
C2256 N2260 1.427 . S
C2257 H2247 0.929 . S
C2257 C2255 1.433 . S
C2257 N2260 1.384 . S
C2258 H2249 0.929 . S
C2258 C2250 1.378 . S
C2258 C2253 1.350 . S
C2259 H2246 0.928 1_545 S
C2259 C2251 1.433 . S
C2259 N2261 1.384 . S
N2260 C2256 1.427 . S
N2260 C2257 1.384 . S
N2261 C2253 1.427 . S
N2261 C2259 1.384 . S
H2262 C2268 0.930 . S
H2263 C2272 0.930 . S
H2264 C2277 0.929 . S
H2265 C2275 0.929 . S
H2266 C2270 0.929 . S
H2267 C2276 0.929 . S
C2268 H2262 0.930 . S
C2268 C2269 1.367 . S
C2268 C2276 1.378 . S
C2269 C2268 1.367 . S
C2269 C2277 1.433 . S
C2270 H2266 0.929 . S
C2270 C2272 1.378 . S
C2270 C2274 1.350 . S
C2271 C2274 1.463 . S
C2271 C2276 1.350 . S
C2271 N2279 1.427 . S
C2272 H2263 0.930 . S
C2272 C2270 1.378 . S
C2272 C2273 1.367 . S
C2273 C2272 1.367 . S
C2273 C2275 1.433 . S
C2274 C2270 1.350 . S
C2274 C2271 1.463 . S
C2274 N2278 1.427 . S
C2275 H2265 0.929 . S
C2275 C2273 1.433 . S
C2275 N2278 1.384 . S
C2276 H2267 0.929 . S
C2276 C2268 1.378 . S
C2276 C2271 1.350 . S
C2277 H2264 0.929 . S
C2277 C2269 1.433 . S
C2277 N2279 1.384 . S
N2278 C2274 1.427 . S
N2278 C2275 1.384 . S
N2279 C2271 1.427 . S
N2279 C2277 1.384 . S
C1423 C937 1.301 . S
C1427 C52 1.294 . S
C1441 C111 1.301 . S
C1445 C996 1.294 . S
C1459 C170 1.299 . S
C1463 C1055 1.296 . S
C1477 C229 1.294 . S
C1481 C760 1.301 . S
C1495 C819 1.294 . S
C1499 C288 1.301 . S
C1513 C347 1.299 . S
C1517 C878 1.296 . S
C1531 C1291 1.298 . S
C1535 C406 1.297 . S
C1549 C465 1.301 . S
C1553 C1350 1.294 . S
C1567 C524 1.299 . S
C1571 C1409 1.296 . S
C1585 C1114 1.297 . S
C1589 C583 1.298 . S
C1603 C642 1.300 . S
C1607 C1173 1.295 . S
C1621 C1232 1.301 . S
C1625 C701 1.294 . S
C1639 C3 1.733 . S
C1643 C1360 1.740 . S
C1657 C1065 1.733 . S
C1661 C62 1.740 . S
C1675 C121 1.733 . S
C1679 C1124 1.740 . S
C1693 C1183 1.736 . S
C1697 C180 1.737 . S
C1711 C239 1.740 . S
C1715 C1242 1.733 . S
C1729 C1301 1.735 . S
C1733 C298 1.738 . S
C1747 C357 1.740 . S
C1751 C770 1.733 . S
C1765 C829 1.733 . S
C1769 C416 1.740 . S
C1783 C888 1.739 . S
C1787 C475 1.734 . S
C1801 C947 1.734 . S
C1805 C534 1.739 . S
C1819 C593 1.740 . S
C1823 C1006 1.733 . S
C1837 C652 1.733 . S
C1841 C711 1.740 . S
C1855 C418 1.383 . S
C1859 C5 1.378 . S
C1873 C477 1.372 . S
C1877 C64 1.377 . S
C1891 C536 1.383 . S
C1895 C123 1.380 . S
C1909 C595 1.378 . S
C1913 C182 1.372 . S
C1927 C241 1.383 . S
C1931 C654 1.380 . S
C1945 C300 1.375 . S
C1949 C359 1.372 . S
C1963 C713 1.377 . S
C1967 C1126 1.372 . S
C1981 C772 1.378 . S
C1985 C1185 1.383 . S
C1999 C1244 1.383 . S
C2003 C831 1.380 . S
C2017 C1303 1.376 . S
C2021 C890 1.372 . S
C2035 C1362 1.382 . S
C2039 C949 1.376 . S
C2053 C1067 1.377 . S
C2057 C1008 1.383 . S
C2071 C33 1.831 . S
C2075 C1154 1.832 . S
C2089 C1213 1.830 . S
C2093 C92 1.833 . S
C2107 C151 1.830 . S
C2111 C1272 1.833 . S
C2125 C1331 1.830 . S
C2129 C210 1.832 . S
C2143 C269 1.832 . S
C2147 C1390 1.830 . S
C2161 C1095 1.831 . S
C2165 C328 1.831 . S
C2179 C387 1.830 . S
C2183 C1036 1.833 . S
C2197 C741 1.831 . S
C2201 C446 1.832 . S
C2215 C505 1.831 . S
C2219 C800 1.832 . S
C2233 C564 1.832 . S
C2237 C859 1.831 . S
C2251 C623 1.830 . S
C2255 C918 1.833 . S
C2269 C682 1.830 . S
C2273 C977 1.833 . S
