# Generated by pormake.
# Topology sne, (6)-cn, num edge types: 1
# Building blocks:
#     Node 0, Type 0, BuildingBlock: KUMBUR_clean_sbu_1, # of connection points: 6
#     Node 1, Type 0, BuildingBlock: KUMBUR_clean_sbu_1, # of connection points: 6
#     Node 2, Type 0, BuildingBlock: KUMBUR_clean_sbu_1, # of connection points: 6
#     Node 3, Type 0, BuildingBlock: KUMBUR_clean_sbu_1, # of connection points: 6
#     Node 4, Type 0, BuildingBlock: KUMBUR_clean_sbu_1, # of connection points: 6
#     Node 5, Type 0, BuildingBlock: KUMBUR_clean_sbu_1, # of connection points: 6
#     Node 6, Type 0, BuildingBlock: KUMBUR_clean_sbu_1, # of connection points: 6
#     Node 7, Type 0, BuildingBlock: KUMBUR_clean_sbu_1, # of connection points: 6
#     Edge 8, Type (0, 0), BuildingBlock: MIFKUJ_clean_linker_0, # of connection points: 2
#     Edge 9, Type (0, 0), BuildingBlock: MIFKUJ_clean_linker_0, # of connection points: 2
#     Edge 10, Type (0, 0), BuildingBlock: MIFKUJ_clean_linker_0, # of connection points: 2
#     Edge 11, Type (0, 0), BuildingBlock: MIFKUJ_clean_linker_0, # of connection points: 2
#     Edge 12, Type (0, 0), BuildingBlock: MIFKUJ_clean_linker_0, # of connection points: 2
#     Edge 13, Type (0, 0), BuildingBlock: MIFKUJ_clean_linker_0, # of connection points: 2
#     Edge 14, Type (0, 0), BuildingBlock: MIFKUJ_clean_linker_0, # of connection points: 2
#     Edge 15, Type (0, 0), BuildingBlock: MIFKUJ_clean_linker_0, # of connection points: 2
#     Edge 16, Type (0, 0), BuildingBlock: MIFKUJ_clean_linker_0, # of connection points: 2
#     Edge 17, Type (0, 0), BuildingBlock: MIFKUJ_clean_linker_0, # of connection points: 2
#     Edge 18, Type (0, 0), BuildingBlock: MIFKUJ_clean_linker_0, # of connection points: 2
#     Edge 19, Type (0, 0), BuildingBlock: MIFKUJ_clean_linker_0, # of connection points: 2
#     Edge 20, Type (0, 0), BuildingBlock: MIFKUJ_clean_linker_0, # of connection points: 2
#     Edge 21, Type (0, 0), BuildingBlock: MIFKUJ_clean_linker_0, # of connection points: 2
#     Edge 22, Type (0, 0), BuildingBlock: MIFKUJ_clean_linker_0, # of connection points: 2
#     Edge 23, Type (0, 0), BuildingBlock: MIFKUJ_clean_linker_0, # of connection points: 2
#     Edge 24, Type (0, 0), BuildingBlock: MIFKUJ_clean_linker_0, # of connection points: 2
#     Edge 25, Type (0, 0), BuildingBlock: MIFKUJ_clean_linker_0, # of connection points: 2
#     Edge 26, Type (0, 0), BuildingBlock: MIFKUJ_clean_linker_0, # of connection points: 2
#     Edge 27, Type (0, 0), BuildingBlock: MIFKUJ_clean_linker_0, # of connection points: 2
#     Edge 28, Type (0, 0), BuildingBlock: MIFKUJ_clean_linker_0, # of connection points: 2
#     Edge 29, Type (0, 0), BuildingBlock: MIFKUJ_clean_linker_0, # of connection points: 2
#     Edge 30, Type (0, 0), BuildingBlock: MIFKUJ_clean_linker_0, # of connection points: 2
#     Edge 31, Type (0, 0), BuildingBlock: MIFKUJ_clean_linker_0, # of connection points: 2
# Relax obj value: 0.213
# Max RMSD: 0.297
# Mean RMSD: 0.296
data_MOF--net-sne--node1-KUMBUR_clean_sbu_1--edge1-MIFKUJ_clean_linker_0
_symmetry_space_group_name_H-M    P1
_symmetry_Int_Tables_number       1
_symmetry_cell_setting            triclinic
loop_
_symmetry_equiv_pos_as_xyz
'x, y, z'
_cell_length_a     52.137213
_cell_length_b     52.26397
_cell_length_c     35.8569
_cell_angle_alpha  89.97554
_cell_angle_beta   90.280825
_cell_angle_gamma 90.535398
loop_
_atom_site_label
_atom_site_type_symbol
_atom_site_fract_x
_atom_site_fract_y
_atom_site_fract_z
_atom_type_partial_charge
Tb0 Tb 0.29989 0.18481 0.40682 0.0
C1 C 0.1949 0.17316 0.33177 0.0
N2 N 0.20435 0.19424 0.34943 0.0
C3 C 0.1912 0.22024 0.29768 0.0
C4 C 0.18465 0.1745 0.29544 0.0
C5 C 0.20077 0.21788 0.33399 0.0
C6 C 0.18382 0.19834 0.27789 0.0
C7 C 0.18056 0.12909 0.33678 0.0
C8 C 0.19292 0.1508 0.35188 0.0
C9 C 0.17205 0.12965 0.29956 0.0
C10 C 0.17419 0.15235 0.27882 0.0
Tb11 Tb 0.22196 0.18752 0.40757 0.0
N12 N 0.20144 0.15114 0.38771 0.0
C13 C 0.17594 0.10813 0.36023 0.0
C14 C 0.19547 0.13152 0.41134 0.0
C15 C 0.18277 0.10971 0.39795 0.0
H16 H 0.20592 0.23501 0.34932 0.0
H17 H 0.17814 0.09433 0.41693 0.0
H18 H 0.32249 0.1561 0.48069 0.0
H19 H 0.30777 0.28366 0.35913 0.0
H20 H 0.20038 0.13278 0.44053 0.0
H21 H 0.16613 0.09118 0.34989 0.0
H22 H 0.30124 0.23792 0.35096 0.0
H23 H 0.18946 0.23897 0.28522 0.0
H24 H 0.16286 0.11304 0.2871 0.0
H25 H 0.16657 0.15291 0.25067 0.0
H26 H 0.34593 0.16829 0.53848 0.0
H27 H 0.17624 0.20009 0.24995 0.0
H28 H 0.32354 0.30052 0.41936 0.0
N29 N 0.31855 0.19449 0.46221 0.0
C30 C 0.32431 0.21953 0.46808 0.0
C31 C 0.33984 0.18287 0.519 0.0
C32 C 0.33785 0.22731 0.50026 0.0
C33 C 0.32657 0.17604 0.48646 0.0
C34 C 0.34545 0.20863 0.52598 0.0
N35 N 0.3064 0.22851 0.40864 0.0
C36 C 0.30481 0.24476 0.37873 0.0
C37 C 0.32389 0.26328 0.44576 0.0
C38 C 0.31739 0.23719 0.44094 0.0
C39 C 0.31888 0.28035 0.41671 0.0
C40 C 0.30981 0.27094 0.38277 0.0
H41 H 0.35606 0.21381 0.55092 0.0
H42 H 0.3555 0.25946 0.52865 0.0
H43 H 0.34219 0.29114 0.48218 0.0
O44 O 0.33668 0.19286 0.38542 0.0
O45 O 0.27933 0.19244 0.45935 0.0
O46 O 0.24505 0.21566 0.43982 0.0
O47 O 0.32722 0.15538 0.40537 0.0
O48 O 0.28106 0.19755 0.35501 0.0
O49 O 0.245 0.2167 0.37754 0.0
O50 O 0.19737 0.18421 0.45441 0.0
O51 O 0.23973 0.15382 0.38044 0.0
O52 O 0.28086 0.1646 0.36049 0.0
O53 O 0.1893 0.21083 0.41131 0.0
O54 O 0.23992 0.16161 0.44936 0.0
O55 O 0.28145 0.15011 0.4303 0.0
C56 C 0.26135 0.20924 0.46634 0.0
C57 C 0.35855 0.15862 0.3574 0.0
C58 C 0.3971 0.15809 0.31858 0.0
C59 C 0.38695 0.13685 0.29928 0.0
C60 C 0.3488 0.13747 0.33761 0.0
C61 C 0.3629 0.12677 0.30861 0.0
C62 C 0.38263 0.16902 0.34748 0.0
C63 C 0.26031 0.21124 0.34948 0.0
C64 C 0.34454 0.16956 0.3893 0.0
C65 C 0.34413 0.25324 0.50506 0.0
C66 C 0.33677 0.27125 0.47828 0.0
C67 C 0.26045 0.14948 0.36032 0.0
C68 C 0.15335 0.19283 0.44151 0.0
C69 C 0.10957 0.19545 0.46625 0.0
C70 C 0.10134 0.17808 0.43868 0.0
C71 C 0.14411 0.17625 0.41369 0.0
C72 C 0.13578 0.20286 0.46762 0.0
C73 C 0.11847 0.16869 0.41255 0.0
C74 C 0.25929 0.14519 0.44729 0.0
C75 C 0.18087 0.2006 0.44179 0.0
H76 H 0.39758 0.12815 0.2768 0.0
H77 H 0.33044 0.12903 0.34479 0.0
H78 H 0.35525 0.11045 0.2935 0.0
H79 H 0.39039 0.18519 0.36291 0.0
H80 H 0.08137 0.17228 0.43667 0.0
H81 H 0.1565 0.16948 0.3922 0.0
H82 H 0.14239 0.21628 0.48868 0.0
H83 H 0.11176 0.1558 0.39091 0.0
Tb84 Tb 0.18494 0.78799 0.65509 0.0
C85 C 0.22448 0.69947 0.57826 0.0
N86 N 0.19902 0.69777 0.58547 0.0
C87 C 0.19098 0.68168 0.52391 0.0
C88 C 0.23415 0.69342 0.54276 0.0
C89 C 0.18226 0.68827 0.55945 0.0
C90 C 0.21699 0.68457 0.51536 0.0
C91 C 0.26743 0.70837 0.60072 0.0
C92 C 0.24072 0.70728 0.6068 0.0
C93 C 0.27714 0.70366 0.56488 0.0
C94 C 0.26052 0.69621 0.53593 0.0
Tb95 Tb 0.18625 0.71008 0.64324 0.0
N96 N 0.23055 0.71162 0.64115 0.0
C97 C 0.28365 0.71271 0.63124 0.0
C98 C 0.24662 0.71185 0.67147 0.0
C99 C 0.27322 0.71357 0.66695 0.0
H100 H 0.16208 0.68652 0.56593 0.0
H101 H 0.2857 0.71472 0.69112 0.0
H102 H 0.24111 0.8016 0.69567 0.0
H103 H 0.09321 0.82981 0.68463 0.0
H104 H 0.23942 0.70966 0.69935 0.0
H105 H 0.30428 0.71361 0.62786 0.0
H106 H 0.12745 0.81219 0.6445 0.0
H107 H 0.17762 0.67465 0.50303 0.0
H108 H 0.29756 0.70483 0.5596 0.0
H109 H 0.26831 0.69206 0.50866 0.0
H110 H 0.25651 0.81721 0.75673 0.0
H111 H 0.22366 0.67972 0.4877 0.0
H112 H 0.10166 0.83687 0.75191 0.0
N113 N 0.20162 0.80327 0.71035 0.0
C114 C 0.18441 0.81103 0.7361 0.0
C115 C 0.23614 0.81529 0.75156 0.0
C116 C 0.19224 0.82008 0.77137 0.0
C117 C 0.22734 0.80642 0.71696 0.0
C118 C 0.2185 0.8217 0.77915 0.0
N119 N 0.15348 0.80686 0.68937 0.0
C120 C 0.13068 0.81428 0.67407 0.0
C121 C 0.1408 0.82352 0.74904 0.0
C122 C 0.15922 0.81282 0.72519 0.0
C123 C 0.11637 0.82858 0.73458 0.0
C124 C 0.11154 0.82467 0.6966 0.0
H125 H 0.22522 0.8291 0.80562 0.0
H126 H 0.1793 0.83533 0.82422 0.0
H127 H 0.13402 0.83823 0.80461 0.0
O128 O 0.17614 0.81295 0.61009 0.0
O129 O 0.15282 0.76739 0.68267 0.0
O130 O 0.1612 0.7233 0.68844 0.0
O131 O 0.20649 0.82181 0.64777 0.0
O132 O 0.15293 0.77174 0.6208 0.0
O133 O 0.1508 0.72627 0.61896 0.0
O134 O 0.19866 0.67315 0.65818 0.0
O135 O 0.18816 0.73545 0.59407 0.0
O136 O 0.21166 0.7686 0.61716 0.0
O137 O 0.16011 0.67907 0.64041 0.0
O138 O 0.19653 0.72511 0.69887 0.0
O139 O 0.2139 0.76259 0.67946 0.0
C140 C 0.14782 0.74414 0.69589 0.0
C141 C 0.18523 0.85712 0.62223 0.0
C142 C 0.18749 0.9015 0.60009 0.0
C143 C 0.17156 0.90878 0.62966 0.0
C144 C 0.17039 0.86536 0.65239 0.0
C145 C 0.16324 0.89084 0.6557 0.0
C146 C 0.19425 0.87548 0.59633 0.0
C147 C 0.14159 0.74951 0.61177 0.0
C148 C 0.19323 0.83 0.61976 0.0
C149 C 0.17372 0.82872 0.79669 0.0
C150 C 0.14795 0.83037 0.78554 0.0
C151 C 0.20354 0.75509 0.58849 0.0
C152 C 0.16736 0.64667 0.68573 0.0
C153 C 0.17182 0.60808 0.72417 0.0
C154 C 0.15239 0.61722 0.74762 0.0
C155 C 0.14786 0.65515 0.70945 0.0
C156 C 0.17913 0.62294 0.693 0.0
C157 C 0.14047 0.6405 0.74016 0.0
C158 C 0.20812 0.74685 0.70691 0.0
C159 C 0.17619 0.66274 0.65422 0.0
H160 H 0.16627 0.92862 0.63339 0.0
H161 H 0.16488 0.8524 0.67415 0.0
H162 H 0.15166 0.89682 0.67906 0.0
H163 H 0.2066 0.86965 0.57371 0.0
H164 H 0.14616 0.60617 0.77154 0.0
H165 H 0.13838 0.67314 0.70429 0.0
H166 H 0.19428 0.61633 0.6749 0.0
H167 H 0.12544 0.64724 0.75832 0.0
Tb168 Tb 0.71645 0.82333 0.42139 0.0
C169 C 0.82175 0.87185 0.35931 0.0
N170 N 0.80868 0.84949 0.35463 0.0
C171 C 0.81514 0.85192 0.28857 0.0
C172 C 0.83116 0.88576 0.32859 0.0
C173 C 0.80661 0.8386 0.32009 0.0
C174 C 0.8272 0.87576 0.29278 0.0
C175 C 0.84101 0.90258 0.40176 0.0
C176 C 0.82649 0.88016 0.39525 0.0
C177 C 0.84955 0.91721 0.37127 0.0
C178 C 0.84461 0.90883 0.33473 0.0
Tb179 Tb 0.7932 0.83097 0.4078 0.0
N180 N 0.81807 0.86538 0.42383 0.0
C181 C 0.84716 0.90909 0.43863 0.0
C182 C 0.82503 0.8709 0.45974 0.0
C183 C 0.83955 0.89289 0.46766 0.0
H184 H 0.79775 0.82005 0.31683 0.0
H185 H 0.84505 0.89722 0.49609 0.0
H186 H 0.70716 0.86101 0.49613 0.0
H187 H 0.7062 0.72197 0.39895 0.0
H188 H 0.81933 0.85833 0.48225 0.0
H189 H 0.8584 0.92611 0.44488 0.0
H190 H 0.71936 0.76606 0.38208 0.0
H191 H 0.81236 0.84384 0.26109 0.0
H192 H 0.86053 0.93467 0.37565 0.0
H193 H 0.8518 0.91998 0.31147 0.0
H194 H 0.69156 0.85519 0.55997 0.0
H195 H 0.83395 0.88595 0.26834 0.0
H196 H 0.68785 0.71312 0.46122 0.0
N197 N 0.70527 0.82134 0.48262 0.0
C198 C 0.6972 0.79768 0.49377 0.0
C199 C 0.69356 0.83877 0.54191 0.0
C200 C 0.68748 0.79362 0.52993 0.0
C201 C 0.70296 0.84193 0.50575 0.0
C202 C 0.68597 0.81451 0.55418 0.0
N203 N 0.70971 0.78152 0.43494 0.0
C204 C 0.71193 0.76222 0.40958 0.0
C205 C 0.69091 0.75252 0.47954 0.0
C206 C 0.6989 0.77729 0.46888 0.0
C207 C 0.69371 0.73245 0.45405 0.0
C208 C 0.70424 0.73733 0.41894 0.0
H209 H 0.67852 0.81221 0.58215 0.0
H210 H 0.67195 0.76551 0.56833 0.0
H211 H 0.67493 0.72959 0.52427 0.0
O212 O 0.68636 0.81209 0.38534 0.0
O213 O 0.74572 0.79732 0.44601 0.0
O214 O 0.77945 0.82212 0.46389 0.0
O215 O 0.67924 0.83681 0.43179 0.0
O216 O 0.72972 0.81417 0.36539 0.0
O217 O 0.77155 0.80171 0.37515 0.0
O218 O 0.83283 0.82416 0.41506 0.0
O219 O 0.77055 0.85451 0.36855 0.0
O220 O 0.7277 0.85696 0.3884 0.0
O221 O 0.80625 0.79296 0.40786 0.0
O222 O 0.77506 0.85189 0.45388 0.0
O223 O 0.73219 0.86042 0.44111 0.0
C224 C 0.76244 0.80432 0.47187 0.0
C225 C 0.65181 0.84061 0.37927 0.0
C226 C 0.61158 0.84328 0.34368 0.0
C227 C 0.61753 0.86908 0.3357 0.0
C228 C 0.6573 0.86624 0.37072 0.0
C229 C 0.64024 0.88034 0.34896 0.0
C230 C 0.62907 0.82918 0.36556 0.0
C231 C 0.75126 0.8044 0.35329 0.0
C232 C 0.66932 0.8255 0.40275 0.0
C233 C 0.67943 0.76897 0.54063 0.0
C234 C 0.68106 0.74851 0.51549 0.0
C235 C 0.74733 0.86453 0.36769 0.0
C236 C 0.84179 0.78638 0.44897 0.0
C237 C 0.8799 0.77517 0.48614 0.0
C238 C 0.8637 0.7631 0.51216 0.0
C239 C 0.82634 0.77378 0.47535 0.0
C240 C 0.86876 0.78674 0.45429 0.0
C241 C 0.83722 0.76237 0.50669 0.0
C242 C 0.75522 0.86735 0.45341 0.0
C243 C 0.82978 0.79951 0.41653 0.0
H244 H 0.60447 0.88079 0.31969 0.0
H245 H 0.67467 0.87538 0.38103 0.0
H246 H 0.64453 0.90017 0.3426 0.0
H247 H 0.6252 0.80923 0.37181 0.0
H248 H 0.8716 0.75384 0.53664 0.0
H249 H 0.80577 0.77266 0.47183 0.0
H250 H 0.88092 0.79635 0.43413 0.0
H251 H 0.82504 0.75284 0.52685 0.0
Tb252 Tb 0.82355 0.29122 0.66949 0.0
C253 C 0.79299 0.18717 0.72453 0.0
N254 N 0.81822 0.19194 0.7184 0.0
C255 C 0.82989 0.16551 0.77022 0.0
C256 C 0.78519 0.17116 0.75407 0.0
C257 C 0.83673 0.18138 0.74042 0.0
C258 C 0.804 0.16028 0.777 0.0
C259 C 0.74859 0.19497 0.70837 0.0
C260 C 0.77499 0.19903 0.70173 0.0
C261 C 0.74074 0.17849 0.73719 0.0
C262 C 0.759 0.16652 0.75982 0.0
Tb263 Tb 0.82746 0.2151 0.66689 0.0
N264 N 0.78333 0.21474 0.67367 0.0
C265 C 0.73077 0.20752 0.68586 0.0
C266 C 0.7657 0.22683 0.65159 0.0
C267 C 0.73939 0.22357 0.65751 0.0
H268 H 0.85677 0.18521 0.73488 0.0
H269 H 0.72572 0.23346 0.63997 0.0
H270 H 0.75995 0.27807 0.66902 0.0
H271 H 0.88169 0.35571 0.58694 0.0
H272 H 0.7711 0.23935 0.6295 0.0
H273 H 0.71035 0.20498 0.69017 0.0
H274 H 0.87382 0.32332 0.63586 0.0
H275 H 0.84456 0.1572 0.78777 0.0
H276 H 0.72055 0.17488 0.74223 0.0
H277 H 0.75273 0.15372 0.78176 0.0
H278 H 0.72207 0.29325 0.63557 0.0
H279 H 0.79873 0.14793 0.80006 0.0
H280 H 0.84532 0.37299 0.55053 0.0
N281 N 0.78632 0.30192 0.63933 0.0
C282 C 0.78888 0.32112 0.61376 0.0
C283 C 0.7408 0.30104 0.62889 0.0
C284 C 0.76747 0.33039 0.59396 0.0
C285 C 0.76258 0.29218 0.64754 0.0
C286 C 0.74323 0.3202 0.60202 0.0
N287 N 0.83364 0.32117 0.62559 0.0
C288 C 0.85797 0.33001 0.6191 0.0
C289 C 0.81689 0.34959 0.57865 0.0
C290 C 0.81333 0.3307 0.60625 0.0
C291 C 0.8418 0.35849 0.57153 0.0
C292 C 0.86241 0.34869 0.5919 0.0
H293 H 0.72626 0.32708 0.58789 0.0
H294 H 0.75469 0.35669 0.55112 0.0
H295 H 0.79791 0.37341 0.53763 0.0
O296 O 0.83082 0.33004 0.6842 0.0
O297 O 0.86076 0.27819 0.64723 0.0
O298 O 0.85475 0.23511 0.62982 0.0
O299 O 0.81155 0.30494 0.72165 0.0
O300 O 0.85604 0.27544 0.70198 0.0
O301 O 0.86074 0.23055 0.69808 0.0
O302 O 0.81583 0.17991 0.64309 0.0
O303 O 0.82123 0.23303 0.72125 0.0
O304 O 0.79735 0.26567 0.70001 0.0
O305 O 0.8545 0.18556 0.66155 0.0
O306 O 0.81448 0.23048 0.61298 0.0
O307 O 0.81198 0.27508 0.61507 0.0
C308 C 0.86801 0.25694 0.62993 0.0
C309 C 0.79637 0.3474 0.71865 0.0
C310 C 0.78094 0.39112 0.72896 0.0
C311 C 0.7556 0.38186 0.72548 0.0
C312 C 0.77076 0.33901 0.71554 0.0
C313 C 0.75063 0.35609 0.71879 0.0
C314 C 0.80143 0.37362 0.72566 0.0
C315 C 0.86763 0.25357 0.71064 0.0
C316 C 0.81741 0.32862 0.7144 0.0
C317 C 0.77093 0.34937 0.56665 0.0
C318 C 0.79556 0.35889 0.55895 0.0
C319 C 0.80506 0.25137 0.72796 0.0
C320 C 0.8472 0.15496 0.61308 0.0
C321 C 0.84366 0.11613 0.5744 0.0
C322 C 0.86573 0.12436 0.555 0.0
C323 C 0.8686 0.16285 0.59241 0.0
C324 C 0.8346 0.13178 0.60367 0.0
C325 C 0.87781 0.14758 0.56368 0.0
C326 C 0.81026 0.253 0.59731 0.0
C327 C 0.83837 0.16985 0.64563 0.0
H328 H 0.73943 0.39453 0.72865 0.0
H329 H 0.76614 0.31911 0.71085 0.0
H330 H 0.73102 0.34926 0.71641 0.0
H331 H 0.82108 0.38036 0.72817 0.0
H332 H 0.87409 0.11277 0.53332 0.0
H333 H 0.87844 0.18062 0.59872 0.0
H334 H 0.81773 0.12612 0.61922 0.0
H335 H 0.89462 0.15362 0.54829 0.0
Tb336 Tb 0.21914 0.32167 0.92055 0.0
C337 C 0.31611 0.34696 0.82117 0.0
N338 N 0.30902 0.32526 0.83945 0.0
C339 C 0.32154 0.30003 0.7868 0.0
C340 C 0.32485 0.34611 0.78405 0.0
C341 C 0.31314 0.30189 0.82369 0.0
C342 C 0.32694 0.32227 0.76662 0.0
C343 C 0.32302 0.3929 0.82248 0.0
C344 C 0.31576 0.36996 0.84041 0.0
C345 C 0.33087 0.39229 0.78507 0.0
C346 C 0.33188 0.36894 0.76594 0.0
Tb347 Tb 0.29525 0.33074 0.89919 0.0
N348 N 0.30772 0.36985 0.87648 0.0
C349 C 0.32183 0.41579 0.84254 0.0
C350 C 0.30746 0.39204 0.89656 0.0
C351 C 0.31406 0.41533 0.87971 0.0
H352 H 0.31025 0.28459 0.83965 0.0
H353 H 0.31327 0.43294 0.89542 0.0
H354 H 0.20961 0.36038 0.99476 0.0
H355 H 0.20976 0.21978 0.90254 0.0
H356 H 0.3024 0.39205 0.92559 0.0
H357 H 0.32699 0.43387 0.82967 0.0
H358 H 0.21975 0.26408 0.88272 0.0
H359 H 0.32413 0.28145 0.77412 0.0
H360 H 0.3364 0.40975 0.77077 0.0
H361 H 0.33843 0.36871 0.73732 0.0
H362 H 0.19871 0.3549 0.06064 0.0
H363 H 0.33358 0.32078 0.73813 0.0
H364 H 0.19654 0.2111 0.96757 0.0
N365 N 0.20941 0.32031 0.98273 0.0
C366 C 0.20357 0.29652 0.99591 0.0
C367 C 0.20027 0.33829 0.04281 0.0
C368 C 0.19615 0.29271 0.03329 0.0
C369 C 0.20704 0.34123 1.00534 0.0
C370 C 0.19494 0.31394 0.05691 0.0
N371 N 0.21359 0.27992 0.9365 0.0
C372 C 0.21454 0.26036 0.91132 0.0
C373 C 0.19911 0.25086 0.9843 0.0
C374 C 0.20519 0.27576 0.97184 0.0
C375 C 0.20104 0.23052 0.95908 0.0
C376 C 0.20864 0.23532 0.92238 0.0
H377 H 0.1895 0.31179 0.08588 0.0
H378 H 0.18419 0.26469 0.07443 0.0
H379 H 0.18683 0.22807 0.03158 0.0
O380 O 0.1901 0.31091 0.88256 0.0
O381 O 0.24934 0.29573 0.94082 0.0
O382 O 0.28351 0.32037 0.95605 0.0
O383 O 0.18109 0.3327 0.93132 0.0
O384 O 0.23219 0.3126 0.86423 0.0
O385 O 0.27269 0.29787 0.87642 0.0
O386 O 0.33234 0.34068 0.91767 0.0
O387 O 0.26863 0.35252 0.8627 0.0
O388 O 0.22957 0.35785 0.89347 0.0
O389 O 0.32223 0.30125 0.90792 0.0
O390 O 0.28077 0.35363 0.94623 0.0
O391 O 0.23591 0.3581 0.94221 0.0
C392 C 0.26655 0.30299 0.9655 0.0
C393 C 0.15413 0.33759 0.87841 0.0
C394 C 0.11387 0.34029 0.84307 0.0
C395 C 0.11993 0.36594 0.83452 0.0
C396 C 0.1597 0.36311 0.86948 0.0
C397 C 0.14265 0.3772 0.84772 0.0
C398 C 0.13123 0.32624 0.86519 0.0
C399 C 0.25281 0.3004 0.85356 0.0
C400 C 0.17211 0.32235 0.9009 0.0
C401 C 0.19009 0.26792 0.04587 0.0
C402 C 0.19152 0.24707 1.02143 0.0
C403 C 0.24686 0.36474 0.86842 0.0
C404 C 0.36674 0.31295 0.90434 0.0
C405 C 0.41217 0.30415 0.91718 0.0
C406 C 0.41749 0.30839 0.87926 0.0
C407 C 0.3729 0.31755 0.86691 0.0
C408 C 0.38652 0.30606 0.92949 0.0
C409 C 0.398 0.31497 0.85441 0.0
C410 C 0.25907 0.36547 0.95407 0.0
C411 C 0.34037 0.31718 0.91822 0.0
H412 H 0.10691 0.37747 0.81812 0.0
H413 H 0.17717 0.37208 0.87946 0.0
H414 H 0.14702 0.39699 0.84125 0.0
H415 H 0.12714 0.30638 0.87178 0.0
H416 H 0.43686 0.30671 0.86878 0.0
H417 H 0.35855 0.32359 0.8473 0.0
H418 H 0.38212 0.30309 0.95869 0.0
H419 H 0.40244 0.31847 0.82538 0.0
Tb420 Tb 0.32727 0.79681 0.14117 0.0
C421 C 0.3017 0.69131 0.22498 0.0
N422 N 0.3247 0.70239 0.21681 0.0
C423 C 0.33997 0.69308 0.27846 0.0
C424 C 0.29671 0.68124 0.26069 0.0
C425 C 0.34397 0.70299 0.24273 0.0
C426 C 0.31622 0.68223 0.28754 0.0
C427 C 0.2586 0.67973 0.20498 0.0
C428 C 0.28293 0.69043 0.19748 0.0
C429 C 0.25349 0.66975 0.24059 0.0
C430 C 0.27251 0.67048 0.26837 0.0
Tb431 Tb 0.32925 0.71568 0.1566 0.0
N432 N 0.28832 0.70096 0.16371 0.0
C433 C 0.24012 0.67957 0.17652 0.0
C434 C 0.27062 0.70031 0.13556 0.0
C435 C 0.24621 0.6898 0.14162 0.0
H436 H 0.36274 0.7104 0.23598 0.0
H437 H 0.23216 0.68944 0.11929 0.0
H438 H 0.27741 0.80036 0.08242 0.0
H439 H 0.41847 0.84654 0.1415 0.0
H440 H 0.27524 0.7075 0.10822 0.0
H441 H 0.22118 0.67149 0.18113 0.0
H442 H 0.38365 0.82005 0.16842 0.0
H443 H 0.35539 0.69349 0.29875 0.0
H444 H 0.23489 0.66146 0.24695 0.0
H445 H 0.26829 0.66272 0.29571 0.0
H446 H 0.26957 0.81515 1.01816 0.0
H447 H 0.31322 0.67436 0.31513 0.0
H448 H 0.4145 0.86303 0.07703 0.0
N449 N 0.31716 0.8101 0.08201 0.0
C450 C 0.33552 0.82445 0.06474 0.0
C451 C 0.28842 0.81736 1.03057 0.0
C452 C 0.33157 0.83437 1.0286 0.0
C453 C 0.29317 0.80827 0.06664 0.0
C454 C 0.30791 0.82995 1.0111 0.0
N455 N 0.36057 0.82117 0.11943 0.0
C456 C 0.38184 0.82706 0.14024 0.0
C457 C 0.37706 0.84579 0.06784 0.0
C458 C 0.35774 0.83061 0.0843 0.0
C459 C 0.3992 0.85141 0.08868 0.0
C460 C 0.40153 0.8421 0.12509 0.0
H461 H 0.30409 0.83724 0.98335 0.0
H462 H 0.3483 0.85683 0.9839 0.0
H463 H 0.38829 0.86652 1.01808 0.0
O464 O 0.33028 0.83183 0.17034 0.0
O465 O 0.36025 0.78278 0.10819 0.0
O466 O 0.34657 0.7476 0.12992 0.0
O467 O 0.29391 0.81869 0.15003 0.0
O468 O 0.35457 0.78209 0.18423 0.0
O469 O 0.36197 0.73702 0.18245 0.0
O470 O 0.32786 0.68434 0.11884 0.0
O471 O 0.29988 0.73938 0.18421 0.0
O472 O 0.31869 0.77885 0.19612 0.0
O473 O 0.35671 0.68666 0.16303 0.0
O474 O 0.31754 0.72913 0.10093 0.0
O475 O 0.29939 0.76762 0.11764 0.0
C476 C 0.36434 0.75847 0.10992 0.0
C477 C 0.3007 0.86401 0.1536 0.0
C478 C 0.29589 0.90991 0.16702 0.0
C479 C 0.29184 0.91426 0.12876 0.0
C480 C 0.29633 0.86923 0.11573 0.0
C481 C 0.29199 0.89408 0.10345 0.0
C482 C 0.30018 0.88454 0.17941 0.0
C483 C 0.36747 0.76094 0.19367 0.0
C484 C 0.30629 0.83747 0.16618 0.0
C485 C 0.35092 0.84921 1.01175 0.0
C486 C 0.37364 0.85486 0.0313 0.0
C487 C 0.30499 0.75868 0.20695 0.0
C488 C 0.35823 0.64888 0.12326 0.0
C489 C 0.35376 0.60434 0.10204 0.0
C490 C 0.38047 0.60165 0.10598 0.0
C491 C 0.38475 0.6454 0.12711 0.0
C492 C 0.34272 0.62837 0.11007 0.0
C493 C 0.39575 0.62199 0.11837 0.0
C494 C 0.30424 0.74975 0.09208 0.0
C495 C 0.34711 0.67344 0.13544 0.0
H496 H 0.28819 0.93337 0.11839 0.0
H497 H 0.29614 0.85421 0.0954 0.0
H498 H 0.28867 0.89772 0.07411 0.0
H499 H 0.3035 0.88087 0.20878 0.0
H500 H 0.3896 0.58367 0.09951 0.0
H501 H 0.39702 0.6608 0.13711 0.0
H502 H 0.32214 0.63072 0.10771 0.0
H503 H 0.41624 0.61953 0.12145 0.0
Tb504 Tb 0.79683 0.68865 0.9215 0.0
C505 C 0.69029 0.69393 0.83343 0.0
N506 N 0.69984 0.7078 0.86234 0.0
C507 C 0.68407 0.74635 0.83449 0.0
C508 C 0.67858 0.7059 0.80262 0.0
C509 C 0.69569 0.73354 0.86434 0.0
C510 C 0.67616 0.73255 0.80299 0.0
C511 C 0.6776 0.65239 0.80936 0.0
C512 C 0.68969 0.6676 0.83686 0.0
C513 C 0.66775 0.66406 0.77709 0.0
C514 C 0.66826 0.6908 0.77369 0.0
Tb515 Tb 0.7188 0.68502 0.90902 0.0
N516 N 0.69877 0.65717 0.86888 0.0
C517 C 0.67464 0.62613 0.81604 0.0
C518 C 0.6943 0.63188 0.87669 0.0
C519 C 0.68258 0.61595 0.85018 0.0
H520 H 0.70196 0.74417 0.88866 0.0
H521 H 0.67975 0.59586 0.85604 0.0
H522 H 0.81857 0.66449 0.99984 0.0
H523 H 0.78861 0.78773 0.87539 0.0
H524 H 0.70098 0.62376 0.90262 0.0
H525 H 0.66545 0.61376 0.79564 0.0
H526 H 0.79439 0.74185 0.86618 0.0
H527 H 0.68145 0.76685 0.83564 0.0
H528 H 0.65874 0.65267 0.75535 0.0
H529 H 0.65958 0.69962 0.74943 0.0
H530 H 0.82977 0.68011 0.06321 0.0
H531 H 0.66719 0.7425 0.77992 0.0
H532 H 0.79084 0.80605 0.93888 0.0
N533 N 0.80836 0.70131 0.97989 0.0
C534 C 0.80676 0.72671 0.98721 0.0
C535 C 0.82329 0.6934 0.0421 0.0
C536 C 0.81243 0.73639 1.02301 0.0
C537 C 0.81706 0.68463 1.00628 0.0
C538 C 0.82073 0.71935 0.05063 0.0
N539 N 0.79419 0.73269 0.9243 0.0
C540 C 0.79275 0.7488 0.89427 0.0
C541 C 0.79732 0.7694 0.96526 0.0
C542 C 0.79889 0.74284 0.95874 0.0
C543 C 0.79214 0.78553 0.93512 0.0
C544 C 0.79063 0.77524 0.89929 0.0
H545 H 0.82523 0.72604 0.07852 0.0
H546 H 0.81346 0.7704 0.05754 0.0
H547 H 0.80056 0.7994 1.00683 0.0
O548 O 0.83258 0.70295 0.90297 0.0
O549 O 0.77009 0.69025 0.96848 0.0
O550 O 0.73824 0.71403 0.94347 0.0
O551 O 0.82976 0.66579 0.92717 0.0
O552 O 0.78139 0.69734 0.86605 0.0
O553 O 0.74303 0.71434 0.88233 0.0
O554 O 0.70241 0.67992 0.96246 0.0
O555 O 0.73961 0.65461 0.87869 0.0
O556 O 0.78466 0.66005 0.88012 0.0
O557 O 0.6799 0.69431 0.91755 0.0
O558 O 0.73608 0.65217 0.93868 0.0
O559 O 0.78145 0.65255 0.94516 0.0
C560 C 0.75142 0.70657 0.97275 0.0
C561 C 0.86158 0.67219 0.88076 0.0
C562 C 0.90246 0.67324 0.84719 0.0
C563 C 0.89404 0.65227 0.82578 0.0
C564 C 0.85348 0.65156 0.85841 0.0
C565 C 0.86966 0.64167 0.83119 0.0
C566 C 0.88605 0.68327 0.87465 0.0
C567 C 0.75979 0.70833 0.85643 0.0
C568 C 0.84477 0.6821 0.91055 0.0
C569 C 0.80955 0.76262 1.03007 0.0
C570 C 0.80203 0.7791 1.00124 0.0
C571 C 0.76331 0.64816 0.86922 0.0
C572 C 0.65736 0.67132 0.96387 0.0
C573 C 0.61298 0.6674 0.98717 0.0
C574 C 0.61505 0.64062 0.98386 0.0
C575 C 0.65869 0.64462 0.96184 0.0
C576 C 0.6344 0.68273 0.97661 0.0
C577 C 0.63767 0.62944 0.97155 0.0
C578 C 0.75824 0.642 0.94983 0.0
C579 C 0.67966 0.68726 0.95215 0.0
H580 H 0.90629 0.64423 0.80454 0.0
H581 H 0.8347 0.643 0.8621 0.0
H582 H 0.86329 0.62565 0.81428 0.0
H583 H 0.89245 0.69931 0.89155 0.0
H584 H 0.59902 0.62812 0.9904 0.0
H585 H 0.676 0.63546 0.95264 0.0
H586 H 0.63342 0.70337 0.97868 0.0
H587 H 0.63889 0.60882 0.96941 0.0
Tb588 Tb 0.68514 0.28774 0.16318 0.0
C589 C 0.71791 0.18264 0.10004 0.0
N590 N 0.69365 0.19132 0.10411 0.0
C591 C 0.6827 0.17678 0.04262 0.0
C592 C 0.72579 0.17124 0.06644 0.0
C593 C 0.67579 0.18801 0.07648 0.0
C594 C 0.70785 0.16851 0.03747 0.0
C595 C 0.76031 0.17689 0.12638 0.0
C596 C 0.73492 0.18571 0.12956 0.0
C597 C 0.76844 0.16586 0.09275 0.0
C598 C 0.75122 0.16304 0.06285 0.0
Tb599 Tb 0.68395 0.20824 0.16065 0.0
N600 N 0.72633 0.19647 0.16171 0.0
C601 C 0.77659 0.17882 0.15737 0.0
C602 C 0.74161 0.1963 0.19288 0.0
C603 C 0.76705 0.18819 0.19092 0.0
H604 H 0.6563 0.19422 0.08057 0.0
H605 H 0.77911 0.18858 0.21558 0.0
H606 H 0.73204 0.30374 0.22295 0.0
H607 H 0.58907 0.32448 0.15489 0.0
H608 H 0.73429 0.20138 0.21987 0.0
H609 H 0.79622 0.17226 0.15609 0.0
H610 H 0.62862 0.30458 0.13093 0.0
H611 H 0.66862 0.17446 1.02058 0.0
H612 H 0.78792 0.15913 0.08976 0.0
H613 H 0.75772 0.15435 0.03719 0.0
H614 H 0.73557 0.31937 0.28765 0.0
H615 H 0.71317 0.15988 1.01118 0.0
H616 H 0.5868 0.33788 0.22105 0.0
N617 N 0.69117 0.30407 0.22214 0.0
C618 C 0.6699 0.31298 0.23936 0.0
C619 C 0.71689 0.31729 0.27464 0.0
C620 C 0.67107 0.32322 0.27571 0.0
C621 C 0.71475 0.30795 0.23817 0.0
C622 C 0.69486 0.32441 0.29385 0.0
N623 N 0.64777 0.3055 0.18332 0.0
C624 C 0.62753 0.30999 0.15988 0.0
C625 C 0.62548 0.32576 0.23391 0.0
C626 C 0.64746 0.3142 0.21897 0.0
C627 C 0.60405 0.32899 0.2107 0.0
C628 C 0.60525 0.32145 0.17333 0.0
H629 H 0.6966 0.33204 0.32185 0.0
H630 H 0.64921 0.3409 0.31991 0.0
H631 H 0.60924 0.34321 0.28317 0.0
O632 O 0.68193 0.3115 0.11551 0.0
O633 O 0.6512 0.26752 0.18653 0.0
O634 O 0.66784 0.22974 0.20708 0.0
O635 O 0.70607 0.32238 0.16081 0.0
O636 O 0.66331 0.26864 0.11749 0.0
O637 O 0.65052 0.22688 0.13455 0.0
O638 O 0.68759 0.17259 0.18751 0.0
O639 O 0.69722 0.22991 0.1115 0.0
O640 O 0.71591 0.26563 0.13715 0.0
O641 O 0.65234 0.18268 0.16077 0.0
O642 O 0.69867 0.22813 0.2107 0.0
O643 O 0.71675 0.26587 0.18955 0.0
C644 C 0.64875 0.24575 0.20477 0.0
C645 C 0.68787 0.35609 0.12643 0.0
C646 C 0.69121 0.39944 0.10027 0.0
C647 C 0.67131 0.40708 0.12405 0.0
C648 C 0.66852 0.36462 0.15029 0.0
C649 C 0.66015 0.38981 0.14885 0.0
C650 C 0.69948 0.37373 0.10162 0.0
C651 C 0.64693 0.24894 0.11681 0.0
C652 C 0.69688 0.32932 0.12883 0.0
C653 C 0.64877 0.3332 0.29186 0.0
C654 C 0.62602 0.33456 0.27092 0.0
C655 C 0.71246 0.24997 0.10886 0.0
C656 C 0.66356 0.13834 0.16195 0.0
C657 C 0.67109 0.09213 0.16901 0.0
C658 C 0.66161 0.08853 0.13251 0.0
C659 C 0.65357 0.13387 0.12609 0.0
C660 C 0.67217 0.11734 0.18338 0.0
C661 C 0.65284 0.10917 0.11146 0.0
C662 C 0.71405 0.24811 0.21546 0.0
C663 C 0.66497 0.16461 0.17757 0.0
H664 H 0.66477 0.42669 0.1242 0.0
H665 H 0.66012 0.35205 0.17062 0.0
H666 H 0.64519 0.39608 0.16747 0.0
H667 H 0.71482 0.3675 0.08356 0.0
H668 H 0.66109 0.0697 0.11992 0.0
H669 H 0.6463 0.14939 0.10928 0.0
H670 H 0.67929 0.12067 0.21142 0.0
H671 H 0.64541 0.10599 0.08359 0.0
H672 H 0.29188 0.13812 0.30159 0.0
H673 H 0.29788 0.0965 0.27173 0.0
H674 H 0.23941 0.06374 0.34192 0.0
H675 H 0.23412 0.10478 0.3729 0.0
H676 H 0.2804 0.03235 0.33842 0.0
H677 H 0.22697 0.07648 0.25151 0.0
H678 H 0.21449 0.11266 0.21141 0.0
H679 H 0.2829 0.10347 0.14675 0.0
H680 H 0.29604 0.0675 0.18691 0.0
H681 H 0.26804 0.91561 0.23149 0.0
H682 H 0.26171 0.95525 0.26701 0.0
H683 H 0.31566 0.9945 0.19572 0.0
H684 H 0.32163 0.95522 0.16006 0.0
H685 H 0.27438 0.02195 0.20118 0.0
H686 H 0.32934 0.97993 0.29014 0.0
H687 H 0.34293 0.94478 0.33149 0.0
H688 H 0.27231 0.95008 0.39202 0.0
H689 H 0.25818 0.9849 0.35059 0.0
C690 C 0.2802 0.12205 0.3106 0.0
C691 C 0.26226 0.12495 0.33946 0.0
C692 C 0.2836 0.09823 0.2934 0.0
C693 C 0.26899 0.07679 0.30444 0.0
C694 C 0.25094 0.07979 0.33296 0.0
C695 C 0.24758 0.10352 0.35021 0.0
C696 C 0.27253 0.0513 0.28629 0.0
C697 C 0.27878 0.03001 0.30844 0.0
C698 C 0.27072 0.04816 0.24715 0.0
C699 C 0.26259 0.06941 0.22241 0.0
C700 C 0.23943 0.08226 0.22886 0.0
C701 C 0.23223 0.10273 0.20612 0.0
C702 C 0.24791 0.11038 0.17658 0.0
C703 C 0.27078 0.09753 0.16966 0.0
C704 C 0.27811 0.07708 0.19239 0.0
C705 C 0.27896 0.93257 0.22402 0.0
C706 C 0.29528 0.93228 0.1929 0.0
C707 C 0.2753 0.95529 0.24427 0.0
C708 C 0.28815 0.97808 0.23411 0.0
C709 C 0.3053 0.97738 0.20404 0.0
C710 C 0.3088 0.95484 0.18374 0.0
C711 C 0.28289 1.003 0.25315 0.0
C712 C 0.27608 0.02422 0.23116 0.0
C713 C 0.28424 0.00604 0.2924 0.0
C714 C 0.29264 0.98497 0.31719 0.0
C715 C 0.31665 0.97348 0.31212 0.0
C716 C 0.32446 0.95361 0.33558 0.0
C717 C 0.30849 0.94518 0.36435 0.0
C718 C 0.28468 0.95662 0.36973 0.0
C719 C 0.27677 0.97646 0.34631 0.0
H720 H 0.31457 0.9298 0.38248 0.0
H721 H 0.24232 0.12625 0.15902 0.0
H722 H 0.10327 0.77149 0.69429 0.0
H723 H 0.06315 0.76207 0.7262 0.0
H724 H 0.09867 0.69814 0.78146 0.0
H725 H 0.13908 0.70778 0.74957 0.0
H726 H 0.05329 0.68477 0.75002 0.0
H727 H 0.08365 0.75313 0.82852 0.0
H728 H 0.10086 0.7966 0.83947 0.0
H729 H 0.0325 0.82892 0.7926 0.0
H730 H 0.01508 0.78562 0.78064 0.0
H731 H 0.94813 0.64991 0.85882 0.0
H732 H 0.99081 0.6648 0.84016 0.0
H733 H 0.9581 0.73488 0.79857 0.0
H734 H 0.91544 0.72034 0.81914 0.0
H735 H 1.00295 0.74599 0.8251 0.0
H736 H 0.9736 0.683 0.73942 0.0
H737 H 0.95577 0.64175 0.71762 0.0
H738 H 0.01995 0.60239 0.76546 0.0
H739 H 0.038 0.64341 0.78799 0.0
C740 C 0.10282 0.75586 0.71382 0.0
C741 C 0.12447 0.74042 0.71911 0.0
C742 C 0.07974 0.75039 0.73208 0.0
C743 C 0.0778 0.72945 0.75653 0.0
C744 C 0.0996 0.71437 0.7627 0.0
C745 C 0.12269 0.71987 0.74435 0.0
C746 C 0.05271 0.72246 0.7739 0.0
C747 C 0.04246 0.69803 0.7669 0.0
C748 C 0.03813 0.74006 0.79488 0.0
C749 C 0.04811 0.7661 0.8035 0.0
C750 C 0.07231 0.7695 0.82044 0.0
C751 C 0.08212 0.79411 0.8268 0.0
C752 C 0.06778 0.8155 0.81673 0.0
C753 C 0.04357 0.81232 0.8004 0.0
C754 C 0.03371 0.78775 0.79385 0.0
C755 C 0.95018 0.6687 0.84634 0.0
C756 C 0.92854 0.68399 0.84044 0.0
C757 C 0.97455 0.67713 0.8353 0.0
C758 C 0.9778 0.70074 0.81691 0.0
C759 C 0.95626 0.71656 0.81249 0.0
C760 C 0.93187 0.70829 0.82426 0.0
C761 C 1.00336 0.70821 0.80096 0.0
C762 C 0.01374 0.73268 0.80826 0.0
C763 C 0.01779 0.69098 0.779 0.0
C764 C 0.00696 0.66623 0.76582 0.0
C765 C 0.98378 0.66552 0.7456 0.0
C766 C 0.97366 0.64219 0.73305 0.0
C767 C 0.98667 0.61945 0.74027 0.0
C768 C 0.00987 0.62001 0.75997 0.0
C769 C 0.02005 0.6433 0.77262 0.0
H770 H 0.97882 0.6014 0.73051 0.0
H771 H 0.07544 0.83453 0.82158 0.0
H772 H 0.77844 0.9062 0.35422 0.0
H773 H 0.76686 0.94557 0.32098 0.0
H774 H 0.69425 0.91158 0.28972 0.0
H775 H 0.70519 0.87274 0.32455 0.0
H776 H 0.72681 0.94074 0.23011 0.0
H777 H 0.68829 0.94408 0.35084 0.0
H778 H 0.68671 0.94351 0.41935 0.0
H779 H 0.7331 0.01165 0.4236 0.0
H780 H 0.73686 0.01149 0.35515 0.0
H781 H 0.64979 0.04386 0.17064 0.0
H782 H 0.66528 0.00604 0.20317 0.0
H783 H 0.72648 0.05069 0.25249 0.0
H784 H 0.71162 0.08872 0.21888 0.0
H785 H 0.70194 0.017 0.3035 0.0
H786 H 0.74071 0.01325 0.18283 0.0
H787 H 0.74141 0.01411 0.1141 0.0
H788 H 0.6913 0.94849 0.11035 0.0
H789 H 0.68997 0.94746 0.17911 0.0
C790 C 0.76009 0.90707 0.34015 0.0
C791 C 0.74252 0.88657 0.3426 0.0
C792 C 0.75348 0.92959 0.3212 0.0
C793 C 0.72955 0.93163 0.3033 0.0
C794 C 0.71272 0.91051 0.30359 0.0
C795 C 0.71896 0.88837 0.32356 0.0
C796 C 0.72166 0.956 0.28522 0.0
C797 C 0.72123 0.95735 0.24616 0.0
C798 C 0.71473 0.97782 0.30624 0.0
C799 C 0.71351 0.97729 0.34766 0.0
C800 C 0.69901 0.95841 0.3663 0.0
C801 C 0.69772 0.95823 0.40523 0.0
C802 C 0.71022 0.97729 0.42588 0.0
C803 C 0.72398 0.99657 0.40761 0.0
C804 C 0.72586 0.9965 0.36874 0.0
C805 C 0.66674 0.04575 0.18801 0.0
C806 C 0.67963 0.06948 0.19149 0.0
C807 C 0.67549 0.02403 0.20683 0.0
C808 C 0.69726 0.02537 0.22993 0.0
C809 C 0.70967 0.04914 0.23474 0.0
C810 C 0.70105 0.07094 0.21558 0.0
C811 C 0.70712 1.00176 0.24837 0.0
C812 C 0.70784 1.00048 0.28749 0.0
C813 C 0.71423 0.97995 0.22748 0.0
C814 C 0.71506 0.98043 0.18613 0.0
C815 C 0.72966 0.99913 0.16736 0.0
C816 C 0.7302 0.99962 0.12839 0.0
C817 C 0.71636 0.9814 0.10787 0.0
C818 C 0.70199 0.96261 0.12628 0.0
C819 C 0.70135 0.96205 0.16526 0.0
H820 H 0.7168 0.98182 0.0777 0.0
H821 H 0.70902 0.97729 0.45601 0.0
H822 H 0.08073 0.30853 0.88084 0.0
H823 H 0.03988 0.29059 0.85899 0.0
H824 H 0.05046 0.3274 0.75241 0.0
H825 H 0.09133 0.34545 0.77413 0.0
H826 H 1.00339 0.33401 0.77373 0.0
H827 H 0.05777 0.26248 0.76247 0.0
H828 H 0.08984 0.23072 0.78197 0.0
H829 H 0.03893 0.20312 0.86707 0.0
H830 H 0.00669 0.235 0.84843 0.0
H831 H 0.91216 0.2276 0.69868 0.0
H832 H 0.95488 0.23911 0.72259 0.0
H833 H 0.9212 0.29666 0.79287 0.0
H834 H 0.87881 0.28623 0.76735 0.0
H835 H 0.98114 0.24181 0.78486 0.0
H836 H 0.95879 0.35141 0.79167 0.0
H837 H 0.92912 0.38189 0.76211 0.0
H838 H 0.91998 0.33163 0.66819 0.0
H839 H 0.94971 0.30104 0.69684 0.0
C840 C 0.07455 0.31256 0.85258 0.0
C841 C 0.08938 0.32848 0.82929 0.0
C842 C 0.05112 0.30229 0.84011 0.0
C843 C 0.04205 0.30747 0.80391 0.0
C844 C 0.0569 0.32321 0.78051 0.0
C845 C 0.08028 0.33357 0.79302 0.0
C846 C 0.01684 0.29695 0.79079 0.0
C847 C 0.99851 0.31387 0.77635 0.0
C848 C 0.01064 0.27053 0.79297 0.0
C849 C 0.02993 0.25131 0.80431 0.0
C850 C 0.0535 0.24978 0.78556 0.0
C851 C 0.07169 0.23173 0.79641 0.0
C852 C 0.06645 0.21496 0.82581 0.0
C853 C 0.04298 0.21616 0.84435 0.0
C854 C 0.02473 0.2342 0.83363 0.0
C855 C 0.91388 0.24237 0.71974 0.0
C856 C 0.89227 0.25627 0.73085 0.0
C857 C 0.93829 0.24891 0.73346 0.0
C858 C 0.94138 0.26915 0.75897 0.0
C859 C 0.91944 0.28141 0.77253 0.0
C860 C 0.8952 0.27536 0.75811 0.0
C861 C 0.96746 0.27901 0.76892 0.0
C862 C 0.98594 0.26199 0.78262 0.0
C863 C 0.97414 0.30523 0.76462 0.0
C864 C 0.95647 0.32381 0.74666 0.0
C865 C 0.95059 0.34692 0.76461 0.0
C866 C 0.93369 0.36421 0.74802 0.0
C867 C 0.92262 0.35868 0.71334 0.0
C868 C 0.9285 0.33589 0.6951 0.0
C869 C 0.94537 0.31856 0.71154 0.0
H870 H 0.90951 0.37207 0.70059 0.0
H871 H 0.08056 0.20098 0.83417 0.0
H872 H 0.31632 0.60029 0.04748 0.0
H873 H 0.29532 0.56088 1.0247 0.0
H874 H 0.33495 0.5174 0.10908 0.0
H875 H 0.35603 0.55638 0.13133 0.0
H876 H 0.34078 0.49545 0.04442 0.0
H877 H 0.26845 0.52946 0.11094 0.0
H878 H 0.23613 0.56196 0.12604 0.0
H879 H 0.20782 0.55932 1.01343 0.0
H880 H 0.24022 0.52703 0.99753 0.0
H881 H 0.28759 0.37409 1.01668 0.0
H882 H 0.29808 0.41516 0.0456 0.0
H883 H 0.25007 0.4535 0.9651 0.0
H884 H 0.23787 0.41194 0.93827 0.0
H885 H 0.2478 0.47935 1.02505 0.0
H886 H 0.32022 0.44732 0.95749 0.0
H887 H 0.35313 0.41571 0.94026 0.0
H888 H 0.38191 0.41613 0.0526 0.0
H889 H 0.34913 0.44757 0.07043 0.0
C890 C 0.32014 0.58236 0.06152 0.0
C891 C 0.33803 0.58146 0.091 0.0
C892 C 0.30813 0.5598 0.04849 0.0
C893 C 0.31352 0.53595 0.06504 0.0
C894 C 0.33056 0.53537 0.09549 0.0
C895 C 0.34262 0.55774 0.10826 0.0
C896 C 0.30301 0.51131 0.0496 0.0
C897 C 0.32039 0.49188 0.04071 0.0
C898 C 0.27648 0.50673 0.04336 0.0
C899 C 0.25693 0.52603 0.05295 0.0
C900 C 0.25547 0.53596 0.08932 0.0
C901 C 0.2371 0.55431 0.09804 0.0
C902 C 0.21998 0.56275 0.07069 0.0
C903 C 0.22112 0.55279 0.03458 0.0
C904 C 0.23946 0.53445 1.02571 0.0
C905 C 0.27869 0.39121 1.00587 0.0
C906 C 0.26177 0.38975 0.97533 0.0
C907 C 0.28505 0.41484 1.02201 0.0
C908 C 0.27573 0.43783 1.00681 0.0
C909 C 0.25779 0.43625 0.97737 0.0
C910 C 0.25071 0.41243 0.96203 0.0
C911 C 0.28559 0.4633 1.02052 0.0
C912 C 0.26817 0.48291 1.02882 0.0
C913 C 0.31218 0.46824 1.02598 0.0
C914 C 0.33209 0.44956 1.01527 0.0
C915 C 0.33351 0.44052 0.97845 0.0
C916 C 0.35211 0.42267 0.96861 0.0
C917 C 0.36949 0.41384 0.99535 0.0
C918 C 0.3684 0.42295 0.03193 0.0
C919 C 0.34985 0.44082 0.0419 0.0
H920 H 0.38385 0.4 0.98769 0.0
H921 H 0.20578 0.57697 0.07749 0.0
H922 H 0.58838 0.71187 0.96523 0.0
H923 H 0.54641 0.72749 0.98551 0.0
H924 H 0.53918 0.66355 0.06071 0.0
H925 H 0.58118 0.64836 0.04177 0.0
H926 H 0.49504 0.67019 1.01915 0.0
H927 H 0.55176 0.72148 0.09479 0.0
H928 H 0.58825 0.75092 0.10516 0.0
H929 H 0.55167 0.80798 0.0377 0.0
H930 H 0.51504 0.77867 1.02648 0.0
H931 H 0.38694 0.71188 0.12611 0.0
H932 H 0.42864 0.69638 0.10499 0.0
H933 H 0.43856 0.76487 0.03932 0.0
H934 H 0.39711 0.78027 0.06065 0.0
H935 H 0.48139 0.7558 0.07472 0.0
H936 H 0.42284 0.70538 1.00243 0.0
H937 H 0.387 0.67537 0.99058 0.0
H938 H 0.42733 0.61597 0.04834 0.0
H939 H 0.46292 0.64593 0.06212 0.0
C940 C 0.5781 0.70133 0.98653 0.0
C941 C 0.58831 0.67859 1.00136 0.0
C942 C 0.55394 0.71022 0.99796 0.0
C943 C 0.53936 0.6966 1.0245 0.0
C944 C 0.54975 0.67426 0.03986 0.0
C945 C 0.57388 0.66554 1.02878 0.0
C946 C 0.51328 0.70537 0.03633 0.0
C947 C 0.49208 0.6888 0.0317 0.0
C948 C 0.50918 0.72985 0.05199 0.0
C949 C 0.53083 0.74776 0.0594 0.0
C950 C 0.55159 0.74023 0.08191 0.0
C951 C 0.57232 0.75688 0.08789 0.0
C952 C 0.57242 0.78123 0.07181 0.0
C953 C 0.55164 0.78906 0.04997 0.0
C954 C 0.53087 0.77244 0.04381 0.0
C955 C 0.39768 0.72329 0.10663 0.0
C956 C 0.38833 0.74708 0.09481 0.0
C957 C 0.42173 0.71453 0.09462 0.0
C958 C 0.43696 0.72933 0.07021 0.0
C959 C 0.42744 0.75301 0.05816 0.0
C960 C 0.40354 0.76172 0.07024 0.0
C961 C 0.46294 0.72058 0.05764 0.0
C962 C 0.48419 0.73718 0.06213 0.0
C963 C 0.46702 0.69609 0.04172 0.0
C964 C 0.44545 0.67807 0.0338 0.0
C965 C 0.42392 0.68604 1.01316 0.0
C966 C 0.40361 0.66904 1.00615 0.0
C967 C 0.40479 0.64383 1.01898 0.0
C968 C 0.42634 0.63557 0.03872 0.0
C969 C 0.44654 0.65259 0.0463 0.0
H970 H 0.38907 0.63067 1.01348 0.0
H971 H 0.58848 0.7941 0.07656 0.0
H972 H 0.66724 0.43432 0.05596 0.0
H973 H 0.68614 0.47123 1.02462 0.0
H974 H 0.7617 0.44644 0.05718 0.0
H975 H 0.7426 0.40949 0.08966 0.0
H976 H 0.75683 0.49526 0.07304 0.0
H977 H 0.74132 0.44614 0.9649 0.0
H978 H 0.71859 0.41922 0.91876 0.0
H979 H 0.66482 0.47945 0.89852 0.0
H980 H 0.68679 0.50652 0.94517 0.0
H981 H 0.79769 0.6089 0.9673 0.0
H982 H 0.79387 0.56418 0.98798 0.0
H983 H 0.7115 0.57031 0.98699 0.0
H984 H 0.71502 0.61467 0.96757 0.0
H985 H 0.73031 0.52694 0.94857 0.0
H986 H 0.74277 0.5719 0.06709 0.0
H987 H 0.76784 0.59908 0.11039 0.0
H988 H 0.83014 0.54599 0.10652 0.0
H989 H 0.80554 0.51867 0.06275 0.0
C990 C 0.68793 0.43648 0.05602 0.0
C991 C 0.70339 0.41901 0.07552 0.0
C992 C 0.69878 0.45756 0.0378 0.0
C993 C 0.72544 0.46171 0.03821 0.0
C994 C 0.74109 0.44371 0.05637 0.0
C995 C 0.73018 0.42247 0.07465 0.0
C996 C 0.73635 0.48592 1.02233 0.0
C997 C 0.7514 0.50189 0.04547 0.0
C998 C 0.72941 0.49484 0.98633 0.0
C999 C 0.71564 0.47832 0.95889 0.0
C1000 C 0.72445 0.45355 0.951 0.0
C1001 C 0.71172 0.43827 0.92467 0.0
C1002 C 0.69024 0.44759 0.9058 0.0
C1003 C 0.68143 0.47222 0.91322 0.0
C1004 C 0.69402 0.48754 0.93963 0.0
C1005 C 0.77876 0.60084 0.97195 0.0
C1006 C 0.75665 0.61556 0.96546 0.0
C1007 C 0.77663 0.57522 0.98364 0.0
C1008 C 0.75237 0.56383 0.98882 0.0
C1009 C 0.73041 0.57858 0.98289 0.0
C1010 C 0.73251 0.60409 0.97172 0.0
C1011 C 0.74927 0.53653 1.0 0.0
C1012 C 0.73586 0.52001 0.97587 0.0
C1013 C 0.75785 0.52709 0.03481 0.0
C1014 C 0.77246 0.54342 0.06132 0.0
C1015 C 0.7619 0.56614 0.07523 0.0
C1016 C 0.77601 0.58155 0.0999 0.0
C1017 C 0.8006 0.57431 0.1111 0.0
C1018 C 0.81111 0.5516 0.09775 0.0
C1019 C 0.79709 0.53615 0.07303 0.0
H1020 H 0.81149 0.58626 0.1302 0.0
H1021 H 0.68045 0.43575 0.88535 0.0
H1022 H 0.63521 0.28499 0.06378 0.0
H1023 H 0.59378 0.29246 0.03379 0.0
H1024 H 0.56147 0.22759 0.09197 0.0
H1025 H 0.60266 0.22073 0.1233 0.0
H1026 H 0.56595 0.26627 0.98763 0.0
H1027 H 0.49693 0.23413 0.10279 0.0
H1028 H 0.49411 0.23114 0.17135 0.0
H1029 H 0.54824 0.29313 0.18257 0.0
H1030 H 0.55135 0.29651 0.11412 0.0
H1031 H 0.416 0.26576 0.96972 0.0
H1032 H 0.45433 0.2539 1.00599 0.0
H1033 H 0.49537 0.31846 0.9598 0.0
H1034 H 0.45758 0.32996 0.92333 0.0
H1035 H 0.48494 0.27526 0.05823 0.0
H1036 H 0.55606 0.30392 0.94068 0.0
H1037 H 0.55688 0.30624 0.87198 0.0
H1038 H 0.49755 0.24887 0.86539 0.0
H1039 H 0.49664 0.24592 0.934 0.0
C1040 C 0.61931 0.27228 0.07024 0.0
C1041 C 0.62235 0.2522 0.09598 0.0
C1042 C 0.59556 0.27655 0.05299 0.0
C1043 C 0.57419 0.26085 0.06087 0.0
C1044 C 0.57737 0.24036 0.08586 0.0
C1045 C 0.6011 0.23619 0.10336 0.0
C1046 C 0.54892 0.26579 0.04223 0.0
C1047 C 0.54835 0.26856 1.00325 0.0
C1048 C 0.52554 0.26769 0.06215 0.0
C1049 C 0.52445 0.26547 0.10334 0.0
C1050 C 0.50823 0.24712 0.11991 0.0
C1051 C 0.50657 0.24535 0.15873 0.0
C1052 C 0.52089 0.26199 0.18127 0.0
C1053 C 0.53714 0.28025 0.16506 0.0
C1054 C 0.53893 0.28204 0.12625 0.0
C1055 C 0.43314 0.27755 0.96775 0.0
C1056 C 0.43388 0.29856 0.9432 0.0
C1057 C 0.45506 0.27074 0.98842 0.0
C1058 C 0.47806 0.28487 0.98499 0.0
C1059 C 0.47819 0.30676 0.96222 0.0
C1060 C 0.4565 0.31339 0.94142 0.0
C1061 C 0.50226 0.27653 1.00389 0.0
C1062 C 0.50258 0.27293 0.04272 0.0
C1063 C 0.52542 0.27356 0.98386 0.0
C1064 C 0.52614 0.27488 0.94252 0.0
C1065 C 0.54329 0.29171 0.92457 0.0
C1066 C 0.54375 0.29315 0.88564 0.0
C1067 C 0.52722 0.27777 0.86434 0.0
C1068 C 0.51028 0.26083 0.88192 0.0
C1069 C 0.50977 0.25929 0.92083 0.0
H1070 H 0.52759 0.27894 0.83421 0.0
H1071 H 0.5193 0.26074 0.2113 0.0
H1072 H 0.73345 0.62547 0.81459 0.0
H1073 H 0.73848 0.58244 0.78804 0.0
H1074 H 0.80591 0.57133 0.85622 0.0
H1075 H 0.80086 0.61388 0.88259 0.0
H1076 H 0.8151 0.5532 0.79096 0.0
H1077 H 0.74661 0.54524 0.8773 0.0
H1078 H 0.70487 0.55304 0.90706 0.0
H1079 H 0.66576 0.53025 0.80672 0.0
H1080 H 0.70723 0.52322 0.77577 0.0
H1081 H 0.81383 0.41359 0.78006 0.0
H1082 H 0.81418 0.45856 0.80035 0.0
H1083 H 0.75676 0.47605 0.71754 0.0
H1084 H 0.7568 0.43164 0.69659 0.0
H1085 H 0.74328 0.49039 0.79079 0.0
H1086 H 0.81521 0.49837 0.70636 0.0
H1087 H 0.85801 0.48739 0.68253 0.0
H1088 H 0.89174 0.50652 0.78851 0.0
H1089 H 0.84908 0.51728 0.81314 0.0
C1090 C 0.74929 0.61378 0.8238 0.0
C1091 C 0.76685 0.62316 0.85041 0.0
C1092 C 0.75218 0.58918 0.80867 0.0
C1093 C 0.77252 0.57341 0.82027 0.0
C1094 C 0.7902 0.58304 0.84648 0.0
C1095 C 0.78738 0.60753 0.86138 0.0
C1096 C 0.77546 0.54683 0.80559 0.0
C1097 C 0.79939 0.53945 0.79128 0.0
C1098 C 0.75507 0.52869 0.80589 0.0
C1099 C 0.7301 0.53394 0.82403 0.0
C1100 C 0.72915 0.54222 0.86135 0.0
C1101 C 0.70553 0.54639 0.87851 0.0
C1102 C 0.68271 0.54189 0.85892 0.0
C1103 C 0.68345 0.5336 0.82192 0.0
C1104 C 0.70701 0.52963 0.8045 0.0
C1105 C 0.80183 0.42718 0.76553 0.0
C1106 C 0.78504 0.41891 0.73704 0.0
C1107 C 0.80192 0.45285 0.77729 0.0
C1108 C 0.78525 0.47062 0.76074 0.0
C1109 C 0.76956 0.46265 0.73101 0.0
C1110 C 0.76961 0.43721 0.7191 0.0
C1111 C 0.78266 0.49706 0.77577 0.0
C1112 C 0.75885 0.5043 0.79034 0.0
C1113 C 0.80327 0.51482 0.77657 0.0
C1114 C 0.82891 0.50837 0.76171 0.0
C1115 C 0.83172 0.50001 0.7247 0.0
C1116 C 0.85596 0.49388 0.71102 0.0
C1117 C 0.87757 0.49619 0.73402 0.0
C1118 C 0.87499 0.5047 0.77073 0.0
C1119 C 0.85078 0.51084 0.78456 0.0
H1120 H 0.89633 0.49144 0.72338 0.0
H1121 H 0.66446 0.54499 0.87234 0.0
H1122 H 0.63455 0.19908 0.23341 0.0
H1123 H 0.59208 0.18544 0.2543 0.0
H1124 H 0.56331 0.26117 0.23341 0.0
H1125 H 0.6054 0.27461 0.21149 0.0
H1126 H 0.54356 0.24298 0.29554 0.0
H1127 H 0.55165 0.20939 0.16953 0.0
H1128 H 0.57295 0.18468 0.11997 0.0
H1129 H 0.57005 0.11722 0.18803 0.0
H1130 H 0.54833 0.1413 0.23772 0.0
H1131 H 0.41103 0.20768 0.30336 0.0
H1132 H 0.45335 0.22389 0.28475 0.0
H1133 H 0.48401 0.14773 0.29473 0.0
H1134 H 0.4415 0.13143 0.31156 0.0
H1135 H 0.50242 0.16731 0.23605 0.0
H1136 H 0.49452 0.19905 0.36149 0.0
H1137 H 0.47433 0.22249 0.41314 0.0
H1138 H 0.4793 0.29235 0.3504 0.0
H1139 H 0.49922 0.26925 0.29816 0.0
C1140 C 0.61918 0.21287 0.23308 0.0
C1141 C 0.62342 0.238 0.2202 0.0
C1142 C 0.5948 0.20496 0.24488 0.0
C1143 C 0.5741 0.222 0.24416 0.0
C1144 C 0.57864 0.2474 0.23315 0.0
C1145 C 0.60288 0.25518 0.22081 0.0
C1146 C 0.54772 0.21332 0.25445 0.0
C1147 C 0.53442 0.22661 0.28222 0.0
C1148 C 0.5359 0.19168 0.23765 0.0
C1149 C 0.54848 0.17716 0.2074 0.0
C1150 C 0.55555 0.18929 0.17392 0.0
C1151 C 0.5677 0.17542 0.14583 0.0
C1152 C 0.57304 0.14951 0.15099 0.0
C1153 C 0.56595 0.1373 0.18409 0.0
C1154 C 0.55358 0.151 0.21212 0.0
C1155 C 0.42689 0.19449 0.30174 0.0
C1156 C 0.42298 0.1683 0.30892 0.0
C1157 C 0.45114 0.20376 0.29126 0.0
C1158 C 0.47219 0.18716 0.28877 0.0
C1159 C 0.46822 0.16101 0.29625 0.0
C1160 C 0.44391 0.15168 0.30597 0.0
C1161 C 0.49822 0.19672 0.27769 0.0
C1162 C 0.51145 0.18369 0.24949 0.0
C1163 C 0.51005 0.21846 0.2944 0.0
C1164 C 0.49811 0.23237 0.32579 0.0
C1165 C 0.49114 0.21937 0.35861 0.0
C1166 C 0.47977 0.23261 0.388 0.0
C1167 C 0.47547 0.25888 0.38501 0.0
C1168 C 0.4826 0.27199 0.35265 0.0
C1169 C 0.49394 0.25885 0.32316 0.0
H1170 H 0.46667 0.26909 0.4078 0.0
H1171 H 0.5826 0.13888 0.1293 0.0
H1172 H 0.1902 0.59138 0.79129 0.0
H1173 H 0.20718 0.54919 0.80679 0.0
H1174 H 0.19798 0.52571 0.69221 0.0
H1175 H 0.18095 0.5681 0.67649 0.0
H1176 H 0.17772 0.49033 0.74234 0.0
H1177 H 0.25674 0.53575 0.7249 0.0
H1178 H 0.28792 0.57101 0.73379 0.0
H1179 H 0.29173 0.55456 0.85101 0.0
H1180 H 0.26028 0.51944 0.84294 0.0
H1181 H 0.26997 0.38237 0.80391 0.0
H1182 H 0.26192 0.42284 0.77119 0.0
H1183 H 0.20215 0.44033 0.84945 0.0
H1184 H 0.21126 0.40125 0.88367 0.0
H1185 H 0.26123 0.47639 0.80584 0.0
H1186 H 0.15151 0.46191 0.78851 0.0
H1187 H 0.12036 0.42661 0.77954 0.0
H1188 H 0.17886 0.38063 0.73 0.0
H1189 H 0.21019 0.41586 0.73771 0.0
C1190 C 0.19195 0.5773 0.76932 0.0
C1191 C 0.18417 0.58308 0.73265 0.0
C1192 C 0.20179 0.55321 0.77818 0.0
C1193 C 0.20398 0.53425 0.75067 0.0
C1194 C 0.19653 0.54004 0.7139 0.0
C1195 C 0.18695 0.5643 0.7049 0.0
C1196 C 0.21293 0.50813 0.76093 0.0
C1197 C 0.19607 0.48727 0.75591 0.0
C1198 C 0.237 0.504 0.77837 0.0
C1199 C 0.256 0.52506 0.78333 0.0
C1200 C 0.26408 0.53977 0.75263 0.0
C1201 C 0.28183 0.55972 0.75751 0.0
C1202 C 0.29177 0.56505 0.79295 0.0
C1203 C 0.28401 0.55041 0.82357 0.0
C1204 C 0.26624 0.53046 0.81885 0.0
C1205 C 0.25554 0.39508 0.81466 0.0
C1206 C 0.24154 0.38852 0.84681 0.0
C1207 C 0.25078 0.41809 0.79569 0.0
C1208 C 0.23136 0.43453 0.80783 0.0
C1209 C 0.21711 0.42785 0.83945 0.0
C1210 C 0.22226 0.40529 0.85884 0.0
C1211 C 0.22574 0.45888 0.78807 0.0
C1212 C 0.24309 0.47942 0.79166 0.0
C1213 C 0.20212 0.46272 0.76934 0.0
C1214 C 0.18329 0.4415 0.76407 0.0
C1215 C 0.1577 0.44434 0.77547 0.0
C1216 C 0.13999 0.42436 0.77052 0.0
C1217 C 0.14764 0.40139 0.75424 0.0
C1218 C 0.17298 0.39841 0.74271 0.0
C1219 C 0.19073 0.41838 0.74737 0.0
H1220 H 0.13392 0.3859 0.75061 0.0
H1221 H 0.30551 0.5805 0.79667 0.0
H1222 H 0.58029 0.80774 0.37834 0.0
H1223 H 0.5402 0.78893 0.35525 0.0
H1224 H 0.5461 0.83434 0.25516 0.0
H1225 H 0.58693 0.85189 0.27679 0.0
H1226 H 0.4958 0.80801 0.34095 0.0
H1227 H 0.51729 0.8072 0.18304 0.0
H1228 H 0.55471 0.80336 0.14179 0.0
H1229 H 0.59369 0.75882 0.22485 0.0
H1230 H 0.55643 0.7624 0.26664 0.0
H1231 H 0.3816 0.80308 0.2345 0.0
H1232 H 0.42335 0.81265 0.26216 0.0
H1233 H 0.45032 0.73819 0.22962 0.0
H1234 H 0.4087 0.72879 0.20049 0.0
H1235 H 0.48527 0.77302 0.21312 0.0
H1236 H 0.43689 0.75316 0.32185 0.0
H1237 H 0.40003 0.7558 0.36421 0.0
H1238 H 0.41586 0.83557 0.38269 0.0
H1239 H 0.45264 0.83353 0.33979 0.0
C1240 C 0.57341 0.81336 0.35104 0.0
C1241 C 0.58712 0.83138 0.3295 0.0
C1242 C 0.55024 0.80276 0.33802 0.0
C1243 C 0.5401 0.8099 0.30318 0.0
C1244 C 0.55363 0.82802 0.28177 0.0
C1245 C 0.57691 0.83839 0.29453 0.0
C1246 C 0.51509 0.79901 0.28967 0.0
C1247 C 0.49358 0.80026 0.31305 0.0
C1248 C 0.51206 0.7884 0.25349 0.0
C1249 C 0.53414 0.78523 0.22804 0.0
C1250 C 0.53376 0.79642 0.19239 0.0
C1251 C 0.55498 0.79434 0.16895 0.0
C1252 C 0.5766 0.78089 0.18071 0.0
C1253 C 0.57697 0.76932 0.21584 0.0
C1254 C 0.55583 0.77142 0.23944 0.0
C1255 C 0.39631 0.78861 0.23334 0.0
C1256 C 0.3917 0.76517 0.21505 0.0
C1257 C 0.42022 0.79407 0.24946 0.0
C1258 C 0.44008 0.7761 0.24832 0.0
C1259 C 0.43537 0.75241 0.2309 0.0
C1260 C 0.41143 0.74695 0.21456 0.0
C1261 C 0.46592 0.78254 0.26415 0.0
C1262 C 0.48756 0.78051 0.24116 0.0
C1263 C 0.46916 0.79201 0.30093 0.0
C1264 C 0.44742 0.79322 0.32739 0.0
C1265 C 0.43244 0.7713 0.33479 0.0
C1266 C 0.41155 0.7727 0.35892 0.0
C1267 C 0.40554 0.79585 0.37612 0.0
C1268 C 0.42052 0.81765 0.36933 0.0
C1269 C 0.44141 0.81638 0.34513 0.0
H1270 H 0.38931 0.79692 0.39473 0.0
H1271 H 0.5931 0.77946 0.16264 0.0
H1272 H 0.84076 0.09294 0.50534 0.0
H1273 H 0.82284 0.05157 0.48931 0.0
H1274 H 0.79601 0.04188 0.60209 0.0
H1275 H 0.81665 0.08224 0.61964 0.0
H1276 H 0.81134 0.99887 0.58138 0.0
H1277 H 0.75414 0.0568 0.521 0.0
H1278 H 0.74098 0.09309 0.48148 0.0
H1279 H 0.77681 0.05846 0.38673 0.0
H1280 H 0.79048 0.02215 0.42579 0.0
H1281 H 0.74027 0.88768 0.52066 0.0
H1282 H 0.75015 0.93078 0.54457 0.0
H1283 H 0.79098 0.94817 0.44309 0.0
H1284 H 0.78037 0.90562 0.41914 0.0
H1285 H 0.76329 0.98769 0.46283 0.0
H1286 H 0.82215 0.93135 0.5265 0.0
H1287 H 0.83241 0.89393 0.56581 0.0
H1288 H 0.78921 0.92589 0.65586 0.0
H1289 H 0.77845 0.96327 0.61682 0.0
C1290 C 0.83154 0.08201 0.5272 0.0
C1291 C 0.83056 0.0913 0.56408 0.0
C1292 C 0.82063 0.05836 0.51762 0.0
C1293 C 0.80729 0.04359 0.54409 0.0
C1294 C 0.80597 0.05283 0.58088 0.0
C1295 C 0.81756 0.07626 0.5908 0.0
C1296 C 0.7956 0.01826 0.53341 0.0
C1297 C 0.80031 0.99666 0.55585 0.0
C1298 C 0.78137 0.0149 0.49989 0.0
C1299 C 0.77343 0.03683 0.47638 0.0
C1300 C 0.75936 0.05702 0.49179 0.0
C1301 C 0.75179 0.07758 0.46947 0.0
C1302 C 0.75809 0.0781 0.43164 0.0
C1303 C 0.77199 0.05807 0.41605 0.0
C1304 C 0.77966 0.0375 0.43826 0.0
C1305 C 0.75086 0.90096 0.50328 0.0
C1306 C 0.75931 0.89355 0.4678 0.0
C1307 C 0.75681 0.92547 0.51711 0.0
C1308 C 0.77157 0.94279 0.49583 0.0
C1309 C 0.77953 0.93534 0.4601 0.0
C1310 C 0.77351 0.911 0.44637 0.0
C1311 C 0.7792 0.96855 0.51046 0.0
C1312 C 0.7738 0.99017 0.48871 0.0
C1313 C 0.79236 0.97194 0.5448 0.0
C1314 C 0.79933 0.9499 0.56865 0.0
C1315 C 0.81477 0.93026 0.55462 0.0
C1316 C 0.82067 0.9091 0.57683 0.0
C1317 C 0.81143 0.90752 0.61327 0.0
C1318 C 0.79635 0.92714 0.62762 0.0
C1319 C 0.79036 0.94832 0.60547 0.0
H1320 H 0.81602 0.89113 0.63041 0.0
H1321 H 0.75217 0.09401 0.41439 0.0
H1322 H 0.07607 0.16869 0.50945 0.0
H1323 H 0.03749 0.18467 0.53966 0.0
H1324 H 0.05872 0.26184 0.50939 0.0
H1325 H 0.09776 0.24578 0.4793 0.0
H1326 H 0.03531 0.25975 0.57889 0.0
H1327 H 0.01735 0.22966 0.45563 0.0
H1328 H 0.01806 0.19892 0.40352 0.0
H1329 H 0.97514 0.14465 0.46868 0.0
H1330 H 0.97456 0.1749 0.52145 0.0
H1331 H 0.89876 0.29535 0.59957 0.0
H1332 H 0.94247 0.29115 0.57509 0.0
H1333 H 0.9416 0.21106 0.60379 0.0
H1334 H 0.89846 0.21519 0.62836 0.0
H1335 H 0.95494 0.22079 0.52953 0.0
H1336 H 1.00298 0.24711 0.65599 0.0
H1337 H 0.0098 0.27785 0.70741 0.0
H1338 H 0.99388 0.34027 0.63314 0.0
H1339 H 0.98772 0.30984 0.58107 0.0
C1340 C 0.07285 0.18914 0.51002 0.0
C1341 C 0.08989 0.20598 0.49188 0.0
C1342 C 0.05068 0.19825 0.52707 0.0
C1343 C 0.0448 0.22442 0.52603 0.0
C1344 C 0.06273 0.24156 0.51035 0.0
C1345 C 0.08511 0.2324 0.49336 0.0
C1346 C 0.01918 0.2333 0.53898 0.0
C1347 C 0.01773 0.2515 0.56765 0.0
C1348 C 0.9961 0.22263 0.52448 0.0
C1349 C 0.99608 0.2045 0.49261 0.0
C1350 C 0.0082 0.21111 0.45894 0.0
C1351 C 0.00858 0.19378 0.42928 0.0
C1352 C 0.99669 0.16983 0.43281 0.0
C1353 C 0.98435 0.1632 0.46599 0.0
C1354 C 0.98398 0.18044 0.49579 0.0
C1355 C 0.90797 0.27695 0.60102 0.0
C1356 C 0.89471 0.25548 0.61518 0.0
C1357 C 0.93311 0.27459 0.58725 0.0
C1358 C 0.94555 0.25079 0.58783 0.0
C1359 C 0.9325 0.22961 0.60285 0.0
C1360 C 0.90756 0.23194 0.61638 0.0
C1361 C 0.97105 0.24685 0.57 0.0
C1362 C 0.97249 0.22935 0.54036 0.0
C1363 C 0.99401 0.25834 0.58329 0.0
C1364 C 0.99441 0.27627 0.615 0.0
C1365 C 1.00057 0.26738 0.65086 0.0
C1366 C 1.00458 0.28475 0.67999 0.0
C1367 C 1.00234 0.31101 0.67352 0.0
C1368 C 0.99567 0.31993 0.63806 0.0
C1369 C 0.99193 0.30264 0.60875 0.0
H1370 H 0.0057 0.32447 0.69597 0.0
H1371 H 0.997 0.15644 0.40981 0.0
H1372 H 0.23765 0.91328 0.5845 0.0
H1373 H 0.25387 0.9522 0.55353 0.0
H1374 H 0.17615 0.97507 0.53015 0.0
H1375 H 0.16004 0.93641 0.56088 0.0
H1376 H 0.20749 0.9855 0.47172 0.0
H1377 H 0.20792 0.99763 0.60606 0.0
H1378 H 0.2211 0.98713 0.6704 0.0
H1379 H 0.30012 0.99881 0.64117 0.0
H1380 H 0.28741 0.00904 0.5765 0.0
H1381 H 0.22802 0.12975 0.5046 0.0
H1382 H 0.21835 0.08577 0.52453 0.0
H1383 H 0.26973 0.0568 0.44112 0.0
H1384 H 0.27997 0.1007 0.42168 0.0
H1385 H 0.25539 0.04784 0.55042 0.0
H1386 H 0.24525 0.01116 0.40783 0.0
H1387 H 0.22511 0.01602 0.34556 0.0
H1388 H 0.15993 0.05164 0.39539 0.0
H1389 H 0.17982 0.04735 0.45774 0.0
C1390 C 0.22413 0.92631 0.57181 0.0
C1391 C 0.1976 0.92184 0.575 0.0
C1392 C 0.23338 0.94865 0.55449 0.0
C1393 C 0.21622 0.96677 0.53994 0.0
C1394 C 0.18978 0.96146 0.5412 0.0
C1395 C 0.18058 0.93935 0.55872 0.0
C1396 C 0.22529 0.99194 0.5252 0.0
C1397 C 0.21827 0.99896 0.48885 0.0
C1398 C 0.23916 0.00973 0.54749 0.0
C1399 C 0.24674 1.00381 0.58639 0.0
C1400 C 0.22812 0.99777 0.61331 0.0
C1401 C 0.2355 0.9919 0.64983 0.0
C1402 C 0.26144 0.99223 0.65984 0.0
C1403 C 0.28004 0.99852 0.63336 0.0
C1404 C 0.27276 0.00436 0.59678 0.0
C1405 C 0.23744 0.11403 0.49075 0.0
C1406 C 0.25492 0.11879 0.46176 0.0
C1407 C 0.23179 0.0889 0.502 0.0
C1408 C 0.24308 0.06794 0.48405 0.0
C1409 C 0.26058 0.07261 0.45515 0.0
C1410 C 0.26664 0.09776 0.44439 0.0
C1411 C 0.2375 0.04136 0.49694 0.0
C1412 C 0.24516 0.03412 0.53304 0.0
C1413 C 0.22418 0.02332 0.47453 0.0
C1414 C 0.21425 0.02953 0.43709 0.0
C1415 C 0.22687 0.02052 0.40528 0.0
C1416 C 0.21543 0.02295 0.37011 0.0
C1417 C 0.19144 0.03439 0.36652 0.0
C1418 C 0.17872 0.04319 0.39813 0.0
C1419 C 0.19011 0.04092 0.43335 0.0
H1420 H 0.18263 0.03627 0.33927 0.0
H1421 H 0.26711 0.98768 0.68813 0.0
H1422 H 0.10159 0.77947 0.6314 0.0
H1423 H 0.05894 0.78167 0.60387 0.0
H1424 H 0.07978 0.72446 0.52333 0.0
H1425 H 0.12296 0.72194 0.55175 0.0
H1426 H 0.05101 0.77603 0.49776 0.0
H1427 H 0.0449 0.70051 0.57408 0.0
H1428 H 0.05057 0.67473 0.63107 0.0
H1429 H 0.00582 0.72837 0.69311 0.0
H1430 H 1.00008 0.75468 0.63642 0.0
H1431 H 0.91871 0.76155 0.43838 0.0
H1432 H 0.96429 0.75587 0.45375 0.0
H1433 H 0.95043 0.78309 0.56537 0.0
H1434 H 0.90505 0.78817 0.55032 0.0
H1435 H 0.9773 0.74228 0.57023 0.0
H1436 H 0.984 0.81859 0.49588 0.0
H1437 H 0.97832 0.84547 0.43996 0.0
H1438 H 0.02244 0.79262 0.3755 0.0
H1439 H 0.0281 0.76524 0.43096 0.0
C1440 C 0.09742 0.7677 0.60754 0.0
C1441 C 0.11591 0.75091 0.59354 0.0
C1442 C 0.07285 0.76881 0.59191 0.0
C1443 C 0.06615 0.75337 0.56139 0.0
C1444 C 0.08458 0.73668 0.54677 0.0
C1445 C 0.10918 0.73518 0.56309 0.0
C1446 C 0.03953 0.75452 0.5461 0.0
C1447 C 0.03486 0.76818 0.51307 0.0
C1448 C 0.01845 0.745 0.5667 0.0
C1449 C 0.02223 0.72964 0.60106 0.0
C1450 C 0.03651 0.70697 0.59995 0.0
C1451 C 0.03967 0.69223 0.63214 0.0
C1452 C 0.02852 0.69991 0.66561 0.0
C1453 C 0.01438 0.72245 0.66708 0.0
C1454 C 0.01114 0.73727 0.63491 0.0
C1455 C 0.92554 0.76675 0.46595 0.0
C1456 C 0.90821 0.77523 0.49314 0.0
C1457 C 0.95164 0.76347 0.4748 0.0
C1458 C 0.96106 0.769 0.51087 0.0
C1459 C 0.94382 0.77839 0.53749 0.0
C1460 C 0.91782 0.78141 0.5288 0.0
C1461 C 0.98843 0.76411 0.52177 0.0
C1462 C 0.9933 0.74989 0.55436 0.0
C1463 C 0.00964 0.77332 0.50083 0.0
C1464 C 0.0062 0.78971 0.46745 0.0
C1465 C 0.9923 0.81259 0.4697 0.0
C1466 C 0.98912 0.82793 0.4381 0.0
C1467 C 0.99993 0.82071 0.40416 0.0
C1468 C 0.01402 0.79816 0.40178 0.0
C1469 C 0.01723 0.78273 0.43329 0.0
H1470 H 0.99746 0.83263 0.37974 0.0
H1471 H 0.03071 0.68824 0.69027 0.0
H1472 H 0.27734 0.32969 1.02936 0.0
H1473 H 0.27518 0.31504 0.09421 0.0
H1474 H 0.25215 0.23994 0.05651 0.0
H1475 H 0.2549 0.25454 0.99143 0.0
H1476 H 0.2223 0.25582 0.11452 0.0
H1477 H 0.31242 0.25128 0.09058 0.0
H1478 H 0.35468 0.26775 0.07077 0.0
H1479 H 0.35257 0.325 0.15653 0.0
H1480 H 0.3101 0.3091 0.17652 0.0
H1481 H 0.26055 0.18531 0.28386 0.0
H1482 H 0.25798 0.2021 0.22 0.0
H1483 H 0.25073 0.27853 0.26323 0.0
H1484 H 0.25239 0.26157 0.32755 0.0
H1485 H 0.29509 0.26324 0.20341 0.0
H1486 H 0.20416 0.27332 0.22137 0.0
H1487 H 0.15847 0.26395 0.23338 0.0
H1488 H 0.16088 0.2004 0.15767 0.0
H1489 H 0.20655 0.20957 0.145 0.0
C1490 C 0.27203 0.30999 0.03482 0.0
C1491 C 0.26587 0.29345 1.00502 0.0
C1492 C 0.27079 0.30158 0.07208 0.0
C1493 C 0.26357 0.27625 0.08076 0.0
C1494 C 0.25769 0.25959 0.05094 0.0
C1495 C 0.25911 0.268 1.01362 0.0
C1496 C 0.26173 0.26731 0.12076 0.0
C1497 C 0.23838 0.25714 0.13371 0.0
C1498 C 0.28236 0.26967 0.1466 0.0
C1499 C 0.30796 0.27916 0.13481 0.0
C1500 C 0.32087 0.26751 0.10503 0.0
C1501 C 0.34488 0.27672 0.0938 0.0
C1502 C 0.35628 0.29745 0.11232 0.0
C1503 C 0.34371 0.30897 0.14218 0.0
C1504 C 0.31967 0.29985 0.15349 0.0
C1505 C 0.25803 0.20568 0.27982 0.0
C1506 C 0.25657 0.22205 0.31095 0.0
C1507 C 0.25646 0.21527 0.24319 0.0
C1508 C 0.25401 0.24164 0.23641 0.0
C1509 C 0.25238 0.2581 0.26748 0.0
C1510 C 0.25332 0.2484 0.30431 0.0
C1511 C 0.25555 0.25182 0.19709 0.0
C1512 C 0.279 0.26197 0.18419 0.0
C1513 C 0.23493 0.24972 0.1713 0.0
C1514 C 0.20885 0.24182 0.18284 0.0
C1515 C 0.19507 0.25704 0.20788 0.0
C1516 C 0.16908 0.252 0.21437 0.0
C1517 C 0.15674 0.23166 0.19617 0.0
C1518 C 0.17044 0.21617 0.17169 0.0
C1519 C 0.19636 0.22128 0.16487 0.0
H1520 H 0.13663 0.2278 0.20125 0.0
H1521 H 0.37486 0.30455 0.10358 0.0
H1522 H 0.25419 0.75723 0.06819 0.0
H1523 H 0.23795 0.75801 1.00357 0.0
H1524 H 0.31439 0.74436 0.9632 0.0
H1525 H 0.33052 0.74404 1.02751 0.0
H1526 H 0.29328 0.77886 0.92053 0.0
H1527 H 0.26542 0.69688 0.96578 0.0
H1528 H 0.24336 0.66728 1.00883 0.0
H1529 H 0.17146 0.70326 0.98462 0.0
H1530 H 0.19318 0.73335 0.94183 0.0
H1531 H 0.25859 0.75148 0.73032 0.0
H1532 H 0.27512 0.75238 0.79423 0.0
H1533 H 0.19762 0.75262 0.83595 0.0
H1534 H 0.18134 0.7492 0.77195 0.0
H1535 H 0.21998 0.72484 0.87898 0.0
H1536 H 0.25172 0.815 0.85491 0.0
H1537 H 0.2744 0.84803 0.81782 0.0
H1538 H 0.33846 0.79777 0.80498 0.0
H1539 H 0.3161 0.76469 0.84227 0.0
C1540 C 0.2675 0.75458 0.04545 0.0
C1541 C 0.29374 0.75095 0.05306 0.0
C1542 C 0.25818 0.75479 1.00838 0.0
C1543 C 0.27479 0.75103 0.97788 0.0
C1544 C 0.301 0.74739 0.98574 0.0
C1545 C 0.31025 0.74712 1.02267 0.0
C1546 C 0.26517 0.751 0.9379 0.0
C1547 C 0.27738 0.76679 0.9115 0.0
C1548 C 0.2441 0.73577 0.92551 0.0
C1549 C 0.23097 0.71752 0.95088 0.0
C1550 C 0.24494 0.69859 0.96982 0.0
C1551 C 0.23249 0.68172 0.99416 0.0
C1552 C 0.20604 0.68343 0.99953 0.0
C1553 C 0.19196 0.70198 0.98048 0.0
C1554 C 0.20432 0.71894 0.95616 0.0
C1555 C 0.24511 0.75182 0.75316 0.0
C1556 C 0.21859 0.75028 0.74582 0.0
C1557 C 0.2546 0.75283 0.79013 0.0
C1558 C 0.23791 0.75327 0.82111 0.0
C1559 C 0.21131 0.75224 0.81336 0.0
C1560 C 0.20187 0.7504 0.7765 0.0
C1561 C 0.24779 0.75313 0.86129 0.0
C1562 C 0.23574 0.73711 0.88786 0.0
C1563 C 0.269 0.76819 0.87399 0.0
C1564 C 0.28191 0.78722 0.85002 0.0
C1565 C 0.27042 0.81094 0.84344 0.0
C1566 C 0.28333 0.82973 0.82284 0.0
C1567 C 0.30774 0.82489 0.80868 0.0
C1568 C 0.31945 0.80141 0.81563 0.0
C1569 C 0.30672 0.7827 0.83663 0.0
H1570 H 0.31765 0.83941 0.79258 0.0
H1571 H 0.19644 0.67036 1.01839 0.0
H1572 H 0.7794 0.76477 0.32313 0.0
H1573 H 0.77804 0.7486 0.25892 0.0
H1574 H 0.72277 0.80634 0.22988 0.0
H1575 H 0.72309 0.82145 0.29425 0.0
H1576 H 0.70841 0.76737 0.196 0.0
H1577 H 0.7929 0.80637 0.20341 0.0
H1578 H 0.83697 0.8137 0.22703 0.0
H1579 H 0.85441 0.73455 0.20981 0.0
H1580 H 0.81062 0.72673 0.18579 0.0
H1581 H 0.72896 0.7522 0.9949 0.0
H1582 H 0.72732 0.76977 0.05878 0.0
H1583 H 0.76346 0.70177 0.10098 0.0
H1584 H 0.76427 0.68394 0.03827 0.0
H1585 H 0.78743 0.74742 0.12588 0.0
H1586 H 0.70367 0.70912 0.11675 0.0
H1587 H 0.66118 0.70238 0.08778 0.0
H1588 H 0.64268 0.78116 0.10681 0.0
H1589 H 0.68539 0.78855 0.13515 0.0
C1590 C 0.76697 0.77398 0.30302 0.0
C1591 C 0.75129 0.79436 0.31408 0.0
C1592 C 0.76634 0.76488 0.26598 0.0
C1593 C 0.75062 0.7764 0.23861 0.0
C1594 C 0.73506 0.79684 0.24989 0.0
C1595 C 0.73527 0.80555 0.28696 0.0
C1596 C 0.74981 0.76705 0.19862 0.0
C1597 C 0.72583 0.76349 0.1807 0.0
C1598 C 0.77227 0.76129 0.17803 0.0
C1599 C 0.7984 0.76592 0.1932 0.0
C1600 C 0.80608 0.7905 0.20495 0.0
C1601 C 0.831 0.79475 0.21834 0.0
C1602 C 0.84836 0.77459 0.22022 0.0
C1603 C 0.84091 0.75014 0.20847 0.0
C1604 C 0.81609 0.7458 0.19484 0.0
C1605 C 0.73605 0.74083 1.01793 0.0
C1606 C 0.74695 0.71672 1.01124 0.0
C1607 C 0.73529 0.75095 0.05444 0.0
C1608 C 0.74553 0.73723 0.08489 0.0
C1609 C 0.75568 0.71292 0.07817 0.0
C1610 C 0.75609 0.70273 0.04209 0.0
C1611 C 0.74624 0.74797 0.12377 0.0
C1612 C 0.77014 0.75165 0.14134 0.0
C1613 C 0.72377 0.75396 0.14387 0.0
C1614 C 0.69789 0.74949 0.12757 0.0
C1615 C 0.69066 0.72509 0.11443 0.0
C1616 C 0.66653 0.72113 0.09816 0.0
C1617 C 0.64932 0.74136 0.09526 0.0
C1618 C 0.65611 0.76554 0.10892 0.0
C1619 C 0.68029 0.76963 0.12508 0.0
H1620 H 0.63072 0.73826 0.08244 0.0
H1621 H 0.86762 0.77794 0.23061 0.0
H1622 H 0.81523 0.22157 0.7891 0.0
H1623 H 0.79738 0.22411 0.85162 0.0
H1624 H 0.75182 0.28862 0.81832 0.0
H1625 H 0.76871 0.28529 0.7546 0.0
H1626 H 0.77786 0.29621 0.88835 0.0
H1627 H 0.72016 0.23781 0.83351 0.0
H1628 H 0.70194 0.20073 0.79991 0.0
H1629 H 0.73986 0.14967 0.87559 0.0
H1630 H 0.75845 0.1865 0.90962 0.0
H1631 H 0.70254 0.28866 0.0591 0.0
H1632 H 0.71761 0.29246 0.99449 0.0
H1633 H 0.7638 0.22523 1.00977 0.0
H1634 H 0.74949 0.22217 0.07452 0.0
H1635 H 0.73393 0.22191 0.94684 0.0
H1636 H 0.79083 0.28522 1.00217 0.0
H1637 H 0.80045 0.32438 0.03816 0.0
H1638 H 0.75664 0.36882 0.96028 0.0
H1639 H 0.7465 0.32984 0.92406 0.0
C1640 C 0.8012 0.23618 0.79463 0.0
C1641 C 0.79358 0.25329 0.7663 0.0
C1642 C 0.791 0.23764 0.83071 0.0
C1643 C 0.77321 0.25659 0.84007 0.0
C1644 C 0.76561 0.27387 0.81206 0.0
C1645 C 0.77537 0.272 0.77552 0.0
C1646 C 0.763 0.25813 0.87918 0.0
C1647 C 0.76794 0.28007 0.90093 0.0
C1648 C 0.75008 0.23718 0.89605 0.0
C1649 C 0.74091 0.21493 0.8739 0.0
C1650 C 0.72498 0.21868 0.84264 0.0
C1651 C 0.7144 0.19771 0.82371 0.0
C1652 C 0.71959 0.17287 0.83578 0.0
C1653 C 0.73573 0.16893 0.86643 0.0
C1654 C 0.74629 0.18985 0.88556 0.0
C1655 C 0.71647 0.27517 0.04902 0.0
C1656 C 0.72475 0.25504 0.07205 0.0
C1657 C 0.72498 0.27723 1.01188 0.0
C1658 C 0.74189 0.2591 0.99684 0.0
C1659 C 0.75066 0.23941 1.02031 0.0
C1660 C 0.74235 0.23755 0.05741 0.0
C1661 C 0.74943 0.25962 0.95637 0.0
C1662 C 0.74395 0.23802 0.9343 0.0
C1663 C 0.76129 0.28111 0.93915 0.0
C1664 C 0.7677 0.30457 0.96061 0.0
C1665 C 0.7831 0.30331 0.99286 0.0
C1666 C 0.78868 0.32548 1.01327 0.0
C1667 C 0.7791 0.34906 1.00157 0.0
C1668 C 0.76402 0.35054 0.96933 0.0
C1669 C 0.75838 0.32842 0.94883 0.0
H1670 H 0.78341 0.3662 1.01744 0.0
H1671 H 0.71123 0.15666 0.82122 0.0
H1672 H 0.7414 0.75864 0.49752 0.0
H1673 H 0.73642 0.74461 0.56188 0.0
H1674 H 0.7876 0.80559 0.59687 0.0
H1675 H 0.78721 0.82274 0.53402 0.0
H1676 H 0.756 0.72549 0.61096 0.0
H1677 H 0.79104 0.81823 0.68577 0.0
H1678 H 0.78876 0.86509 0.6784 0.0
H1679 H 0.72 0.85682 0.61318 0.0
H1680 H 0.72175 0.80984 0.62027 0.0
H1681 H 0.78228 0.68856 0.79471 0.0
H1682 H 0.78267 0.70504 0.73133 0.0
H1683 H 0.73315 0.76663 0.76457 0.0
H1684 H 0.73661 0.75234 0.82938 0.0
H1685 H 0.75868 0.78573 0.71749 0.0
H1686 H 0.71452 0.70689 0.70849 0.0
H1687 H 0.70629 0.66075 0.71741 0.0
H1688 H 0.77255 0.64306 0.65205 0.0
H1689 H 0.78142 0.6891 0.64309 0.0
C1690 C 0.74981 0.77015 0.51939 0.0
C1691 C 0.76248 0.79319 0.51065 0.0
C1692 C 0.74792 0.76154 0.55654 0.0
C1693 C 0.76049 0.77459 0.58606 0.0
C1694 C 0.77578 0.79599 0.57627 0.0
C1695 C 0.7761 0.80556 0.53961 0.0
C1696 C 0.75828 0.76541 0.62633 0.0
C1697 C 0.75629 0.73895 0.63391 0.0
C1698 C 0.75801 0.78234 0.65754 0.0
C1699 C 0.75668 0.81053 0.65323 0.0
C1700 C 0.77539 0.82641 0.6699 0.0
C1701 C 0.77423 0.85297 0.66567 0.0
C1702 C 0.75435 0.86389 0.64504 0.0
C1703 C 0.73549 0.84828 0.6288 0.0
C1704 C 0.73656 0.8217 0.6329 0.0
C1705 C 0.7714 0.70563 0.78858 0.0
C1706 C 0.75811 0.71827 0.81717 0.0
C1707 C 0.77127 0.7149 0.75183 0.0
C1708 C 0.7569 0.73659 0.74176 0.0
C1709 C 0.74404 0.74957 0.77062 0.0
C1710 C 0.74518 0.74088 0.80783 0.0
C1711 C 0.75613 0.74604 0.7017 0.0
C1712 C 0.7578 0.77246 0.69429 0.0
C1713 C 0.75422 0.72922 0.67061 0.0
C1714 C 0.74874 0.70147 0.67534 0.0
C1715 C 0.7274 0.69317 0.69612 0.0
C1716 C 0.72263 0.66704 0.70122 0.0
C1717 C 0.73891 0.649 0.6854 0.0
C1718 C 0.75996 0.65706 0.66431 0.0
C1719 C 0.76486 0.68317 0.65917 0.0
H1720 H 0.7352 0.62878 0.68944 0.0
H1721 H 0.75348 0.88445 0.64177 0.0
H1722 H 0.8071 0.29425 0.54948 0.0
H1723 H 0.79264 0.29506 0.48474 0.0
H1724 H 0.78035 0.21342 0.48781 0.0
H1725 H 0.79474 0.2125 0.55292 0.0
H1726 H 0.80187 0.22649 0.42277 0.0
H1727 H 0.73025 0.25715 0.49439 0.0
H1728 H 0.70799 0.28547 0.53846 0.0
H1729 H 0.72606 0.3505 0.46992 0.0
H1730 H 0.74876 0.32263 0.42572 0.0
H1731 H 0.69036 0.24098 0.28169 0.0
H1732 H 0.70835 0.24393 0.34463 0.0
H1733 H 0.78191 0.26491 0.29885 0.0
H1734 H 0.76368 0.26216 0.23527 0.0
H1735 H 0.73056 0.28305 0.3844 0.0
H1736 H 0.82808 0.23638 0.35786 0.0
H1737 H 0.84794 0.20714 0.31257 0.0
H1738 H 0.7747 0.17165 0.29134 0.0
H1739 H 0.75452 0.20035 0.33696 0.0
C1740 C 0.80104 0.27646 0.53678 0.0
C1741 C 0.80175 0.25339 0.55715 0.0
C1742 C 0.79283 0.27694 0.49939 0.0
C1743 C 0.78498 0.25435 0.48107 0.0
C1744 C 0.78622 0.23118 0.50103 0.0
C1745 C 0.79442 0.2307 0.53849 0.0
C1746 C 0.77515 0.25491 0.44147 0.0
C1747 C 0.78635 0.23898 0.41449 0.0
C1748 C 0.7548 0.27106 0.43011 0.0
C1749 C 0.74136 0.28783 0.45688 0.0
C1750 C 0.72965 0.27751 0.48887 0.0
C1751 C 0.71691 0.29348 0.51382 0.0
C1752 C 0.71555 0.31975 0.5069 0.0
C1753 C 0.72707 0.33014 0.47517 0.0
C1754 C 0.73987 0.31427 0.45016 0.0
C1755 C 0.71038 0.2463 0.28496 0.0
C1756 C 0.72558 0.25134 0.25343 0.0
C1757 C 0.72062 0.24814 0.32108 0.0
C1758 C 0.74657 0.25453 0.32683 0.0
C1759 C 0.76187 0.2598 0.29533 0.0
C1760 C 0.75145 0.25832 0.25899 0.0
C1761 C 0.7574 0.25483 0.36579 0.0
C1762 C 0.74631 0.27083 0.39265 0.0
C1763 C 0.77772 0.23867 0.37705 0.0
C1764 C 0.78977 0.22071 0.35052 0.0
C1765 C 0.81626 0.22224 0.34368 0.0
C1766 C 0.82756 0.20576 0.31794 0.0
C1767 C 0.81258 0.18761 0.299 0.0
C1768 C 0.78628 0.18577 0.30594 0.0
C1769 C 0.7749 0.20214 0.33173 0.0
H1770 H 0.82135 0.17495 0.27898 0.0
H1771 H 0.70553 0.33207 0.52609 0.0
H1772 H 0.23082 0.32143 0.79175 0.0
H1773 H 0.23039 0.30577 0.72746 0.0
H1774 H 0.2741 0.24008 0.76138 0.0
H1775 H 0.27421 0.25564 0.82618 0.0
H1776 H 0.29359 0.26046 0.69861 0.0
H1777 H 0.20896 0.23606 0.73733 0.0
H1778 H 0.16609 0.24321 0.7639 0.0
H1779 H 0.14971 0.29771 0.67758 0.0
H1780 H 0.19264 0.29115 0.65076 0.0
H1781 H 0.28417 0.19077 0.52978 0.0
H1782 H 0.28251 0.20667 0.5933 0.0
H1783 H 0.23139 0.26646 0.55825 0.0
H1784 H 0.23317 0.2504 0.49367 0.0
H1785 H 0.21485 0.24968 0.62189 0.0
H1786 H 0.30028 0.28588 0.59856 0.0
H1787 H 0.34591 0.28878 0.58108 0.0
H1788 H 0.36073 0.21818 0.63828 0.0
H1789 H 0.31533 0.21558 0.65753 0.0
C1790 C 0.24022 0.30352 0.78568 0.0
C1791 C 0.2529 0.29005 0.81434 0.0
C1792 C 0.23987 0.29449 0.74869 0.0
C1793 C 0.25199 0.27148 0.73901 0.0
C1794 C 0.26455 0.25787 0.7677 0.0
C1795 C 0.26476 0.26686 0.80486 0.0
C1796 C 0.25247 0.26228 0.69893 0.0
C1797 C 0.27624 0.25761 0.68221 0.0
C1798 C 0.23007 0.25953 0.67642 0.0
C1799 C 0.20412 0.26327 0.69221 0.0
C1800 C 0.19629 0.2497 0.72414 0.0
C1801 C 0.17196 0.25362 0.73923 0.0
C1802 C 0.15521 0.27094 0.72249 0.0
C1803 C 0.16272 0.28431 0.69054 0.0
C1804 C 0.18704 0.28048 0.67535 0.0
C1805 C 0.27293 0.20764 0.53507 0.0
C1806 C 0.25925 0.21946 0.50578 0.0
C1807 C 0.27203 0.21686 0.57191 0.0
C1808 C 0.25735 0.23837 0.58132 0.0
C1809 C 0.24314 0.24999 0.55228 0.0
C1810 C 0.24413 0.24075 0.51511 0.0
C1811 C 0.25611 0.24767 0.62152 0.0
C1812 C 0.23218 0.25234 0.63833 0.0
C1813 C 0.27835 0.25085 0.64421 0.0
C1814 C 0.30446 0.25025 0.62868 0.0
C1815 C 0.31322 0.27079 0.60684 0.0
C1816 C 0.33909 0.27259 0.59719 0.0
C1817 C 0.35619 0.2536 0.6084 0.0
C1818 C 0.34747 0.23284 0.62954 0.0
C1819 C 0.32172 0.23129 0.64007 0.0
H1820 H 0.3762 0.25496 0.60066 0.0
H1821 H 0.13639 0.27397 0.73423 0.0
H1822 H 0.32621 0.78161 0.26911 0.0
H1823 H 0.31057 0.78149 0.33346 0.0
H1824 H 0.24644 0.734 0.30017 0.0
H1825 H 0.26185 0.73448 0.23561 0.0
H1826 H 0.22953 0.77081 0.34363 0.0
H1827 H 0.29811 0.70918 0.36163 0.0
H1828 H 0.34194 0.69151 0.36389 0.0
H1829 H 0.36852 0.75754 0.42413 0.0
H1830 H 0.32484 0.77533 0.42304 0.0
H1831 H 0.1822 0.73889 0.52286 0.0
H1832 H 0.20006 0.73998 0.46035 0.0
H1833 H 0.26586 0.782 0.50163 0.0
H1834 H 0.24849 0.77949 0.5653 0.0
H1835 H 0.28259 0.74985 0.45437 0.0
H1836 H 0.21397 0.80898 0.44435 0.0
H1837 H 0.16964 0.82444 0.45024 0.0
H1838 H 0.14306 0.76527 0.37612 0.0
H1839 H 0.18721 0.74923 0.37017 0.0
C1840 C 0.30878 0.77106 0.2754 0.0
C1841 C 0.29546 0.75793 0.24675 0.0
C1842 C 0.29993 0.77077 0.31258 0.0
C1843 C 0.27729 0.7575 0.32254 0.0
C1844 C 0.26396 0.74438 0.29386 0.0
C1845 C 0.27293 0.74451 0.25672 0.0
C1846 C 0.26677 0.75847 0.36203 0.0
C1847 C 0.24115 0.76586 0.3677 0.0
C1848 C 0.28179 0.7531 0.39425 0.0
C1849 C 0.30839 0.74376 0.39163 0.0
C1850 C 0.31344 0.72013 0.37469 0.0
C1851 C 0.33819 0.71005 0.37592 0.0
C1852 C 0.35805 0.7236 0.39348 0.0
C1853 C 0.35318 0.7472 0.41015 0.0
C1854 C 0.32844 0.75724 0.4094 0.0
C1855 C 0.20051 0.74841 0.51885 0.0
C1856 C 0.21387 0.75895 0.54959 0.0
C1857 C 0.21066 0.74932 0.48261 0.0
C1858 C 0.2343 0.76152 0.47525 0.0
C1859 C 0.24757 0.77249 0.50592 0.0
C1860 C 0.23749 0.77129 0.54249 0.0
C1861 C 0.24532 0.76203 0.43601 0.0
C1862 C 0.27099 0.75497 0.43035 0.0
C1863 C 0.23042 0.76805 0.40385 0.0
C1864 C 0.20388 0.77778 0.40706 0.0
C1865 C 0.19866 0.79917 0.42947 0.0
C1866 C 0.17356 0.80805 0.43281 0.0
C1867 C 0.15354 0.79581 0.41363 0.0
C1868 C 0.15859 0.77472 0.39098 0.0
C1869 C 0.18365 0.76574 0.38758 0.0
H1870 H 0.13412 0.8027 0.41627 0.0
H1871 H 0.37715 0.71569 0.39448 0.0
loop_
_geom_bond_atom_site_label_1
_geom_bond_atom_site_label_2
_geom_bond_distance
_geom_bond_site_symmetry_2
_ccdc_geom_bond_type
Tb0 N29 2.617 . S
Tb0 N35 2.572 . S
Tb0 O44 2.465 . S
Tb0 O45 2.387 . S
Tb0 O47 2.428 . S
Tb0 O48 2.308 . S
Tb0 O52 2.349 . S
Tb0 O55 2.393 . S
Tb0 C64 2.802 . S
C1 N2 1.379 . S
C1 C4 1.416 . S
C1 C8 1.424 . S
N2 C1 1.379 . S
N2 C5 1.334 . S
N2 Tb11 2.617 . S
C3 C5 1.390 . S
C3 C6 1.339 . S
C3 H23 0.930 . S
C4 C1 1.416 . S
C4 C6 1.416 . S
C4 C10 1.448 . S
C5 N2 1.334 . S
C5 C3 1.390 . S
C5 H16 0.930 . S
C6 C3 1.339 . S
C6 C4 1.416 . S
C6 H27 0.930 . S
C7 C8 1.413 . S
C7 C9 1.427 . S
C7 C13 1.416 . S
C8 C1 1.424 . S
C8 C7 1.413 . S
C8 N12 1.361 . S
C9 C7 1.427 . S
C9 C10 1.328 . S
C9 H24 0.929 . S
C10 C4 1.448 . S
C10 C9 1.328 . S
C10 H25 0.930 . S
Tb11 N2 2.617 . S
Tb11 N12 2.572 . S
Tb11 O46 2.349 . S
Tb11 O49 2.393 . S
Tb11 O50 2.465 . S
Tb11 O51 2.387 . S
Tb11 O53 2.428 . S
Tb11 O54 2.308 . S
Tb11 C75 2.802 . S
N12 C8 1.361 . S
N12 Tb11 2.572 . S
N12 C14 1.340 . S
C13 C7 1.416 . S
C13 C15 1.332 . S
C13 H21 0.931 . S
C14 N12 1.340 . S
C14 C15 1.407 . S
C14 H20 0.930 . S
C15 C13 1.332 . S
C15 C14 1.407 . S
C15 H17 0.929 . S
H16 C5 0.930 . S
H17 C15 0.929 . S
H18 C33 0.930 . S
H19 C40 0.929 . S
H20 C14 0.930 . S
H21 C13 0.931 . S
H22 C36 0.930 . S
H23 C3 0.930 . S
H24 C9 0.929 . S
H25 C10 0.930 . S
H26 C31 0.930 . S
H27 C6 0.930 . S
H28 C39 0.931 . S
N29 Tb0 2.617 . S
N29 C30 1.379 . S
N29 C33 1.334 . S
C30 N29 1.379 . S
C30 C32 1.416 . S
C30 C38 1.424 . S
C31 H26 0.930 . S
C31 C33 1.390 . S
C31 C34 1.339 . S
C32 C30 1.416 . S
C32 C34 1.416 . S
C32 C65 1.448 . S
C33 H18 0.930 . S
C33 N29 1.334 . S
C33 C31 1.390 . S
C34 C31 1.339 . S
C34 C32 1.416 . S
C34 H41 0.930 . S
N35 Tb0 2.572 . S
N35 C36 1.340 . S
N35 C38 1.361 . S
C36 H22 0.930 . S
C36 N35 1.340 . S
C36 C40 1.407 . S
C37 C38 1.413 . S
C37 C39 1.416 . S
C37 C66 1.427 . S
C38 C30 1.424 . S
C38 N35 1.361 . S
C38 C37 1.413 . S
C39 H28 0.931 . S
C39 C37 1.416 . S
C39 C40 1.332 . S
C40 H19 0.929 . S
C40 C36 1.407 . S
C40 C39 1.332 . S
H41 C34 0.930 . S
H42 C65 0.930 . S
H43 C66 0.929 . S
O44 Tb0 2.465 . S
O44 C64 1.264 . S
O45 Tb0 2.387 . S
O45 C56 1.264 . S
O46 Tb11 2.349 . S
O46 C56 1.243 . S
O47 Tb0 2.428 . S
O47 C64 1.256 . S
O48 Tb0 2.308 . S
O48 C63 1.266 . S
O49 Tb11 2.393 . S
O49 C63 1.248 . S
O50 Tb11 2.465 . S
O50 C75 1.264 . S
O51 Tb11 2.387 . S
O51 C67 1.264 . S
O52 Tb0 2.349 . S
O52 C67 1.243 . S
O53 Tb11 2.428 . S
O53 C75 1.256 . S
O54 Tb11 2.308 . S
O54 C74 1.266 . S
O55 Tb0 2.393 . S
O55 C74 1.248 . S
C56 O45 1.264 . S
C56 O46 1.243 . S
C57 C60 1.399 . S
C57 C62 1.383 . S
C57 C64 1.496 . S
C58 C59 1.399 . S
C58 C62 1.389 . S
C59 C58 1.399 . S
C59 C61 1.380 . S
C59 H76 0.929 . S
C60 C57 1.399 . S
C60 C61 1.392 . S
C60 H77 0.929 . S
C61 C59 1.380 . S
C61 C60 1.392 . S
C61 H78 0.929 . S
C62 C57 1.383 . S
C62 C58 1.389 . S
C62 H79 0.931 . S
C63 O48 1.266 . S
C63 O49 1.248 . S
C64 Tb0 2.802 . S
C64 O44 1.264 . S
C64 O47 1.256 . S
C64 C57 1.496 . S
C65 C32 1.448 . S
C65 H42 0.930 . S
C65 C66 1.328 . S
C66 C37 1.427 . S
C66 H43 0.929 . S
C66 C65 1.328 . S
C67 O51 1.264 . S
C67 O52 1.243 . S
C68 C71 1.399 . S
C68 C72 1.383 . S
C68 C75 1.496 . S
C69 C70 1.399 . S
C69 C72 1.389 . S
C70 C69 1.399 . S
C70 C73 1.380 . S
C70 H80 0.929 . S
C71 C68 1.399 . S
C71 C73 1.392 . S
C71 H81 0.929 . S
C72 C68 1.383 . S
C72 C69 1.389 . S
C72 H82 0.931 . S
C73 C70 1.380 . S
C73 C71 1.392 . S
C73 H83 0.929 . S
C74 O54 1.266 . S
C74 O55 1.248 . S
C75 Tb11 2.802 . S
C75 O50 1.264 . S
C75 O53 1.256 . S
C75 C68 1.496 . S
H76 C59 0.929 . S
H77 C60 0.929 . S
H78 C61 0.929 . S
H79 C62 0.931 . S
H80 C70 0.929 . S
H81 C71 0.929 . S
H82 C72 0.931 . S
H83 C73 0.929 . S
Tb84 N113 2.617 . S
Tb84 N119 2.572 . S
Tb84 O128 2.465 . S
Tb84 O129 2.387 . S
Tb84 O131 2.428 . S
Tb84 O132 2.308 . S
Tb84 O136 2.349 . S
Tb84 O139 2.393 . S
Tb84 C148 2.802 . S
C85 N86 1.379 . S
C85 C88 1.416 . S
C85 C92 1.424 . S
N86 C85 1.379 . S
N86 C89 1.334 . S
N86 Tb95 2.617 . S
C87 C89 1.390 . S
C87 C90 1.339 . S
C87 H107 0.930 . S
C88 C85 1.416 . S
C88 C90 1.416 . S
C88 C94 1.448 . S
C89 N86 1.334 . S
C89 C87 1.390 . S
C89 H100 0.930 . S
C90 C87 1.339 . S
C90 C88 1.416 . S
C90 H111 0.930 . S
C91 C92 1.413 . S
C91 C93 1.427 . S
C91 C97 1.416 . S
C92 C85 1.424 . S
C92 C91 1.413 . S
C92 N96 1.361 . S
C93 C91 1.427 . S
C93 C94 1.328 . S
C93 H108 0.929 . S
C94 C88 1.448 . S
C94 C93 1.328 . S
C94 H109 0.930 . S
Tb95 N86 2.617 . S
Tb95 N96 2.572 . S
Tb95 O130 2.349 . S
Tb95 O133 2.393 . S
Tb95 O134 2.465 . S
Tb95 O135 2.387 . S
Tb95 O137 2.428 . S
Tb95 O138 2.308 . S
Tb95 C159 2.802 . S
N96 C92 1.361 . S
N96 Tb95 2.572 . S
N96 C98 1.340 . S
C97 C91 1.416 . S
C97 C99 1.332 . S
C97 H105 0.931 . S
C98 N96 1.340 . S
C98 C99 1.407 . S
C98 H104 0.930 . S
C99 C97 1.332 . S
C99 C98 1.407 . S
C99 H101 0.929 . S
H100 C89 0.930 . S
H101 C99 0.929 . S
H102 C117 0.930 . S
H103 C124 0.929 . S
H104 C98 0.930 . S
H105 C97 0.931 . S
H106 C120 0.930 . S
H107 C87 0.930 . S
H108 C93 0.929 . S
H109 C94 0.930 . S
H110 C115 0.930 . S
H111 C90 0.930 . S
H112 C123 0.931 . S
N113 Tb84 2.617 . S
N113 C114 1.379 . S
N113 C117 1.334 . S
C114 N113 1.379 . S
C114 C116 1.416 . S
C114 C122 1.424 . S
C115 H110 0.930 . S
C115 C117 1.390 . S
C115 C118 1.339 . S
C116 C114 1.416 . S
C116 C118 1.416 . S
C116 C149 1.448 . S
C117 H102 0.930 . S
C117 N113 1.334 . S
C117 C115 1.390 . S
C118 C115 1.339 . S
C118 C116 1.416 . S
C118 H125 0.930 . S
N119 Tb84 2.572 . S
N119 C120 1.340 . S
N119 C122 1.361 . S
C120 H106 0.930 . S
C120 N119 1.340 . S
C120 C124 1.407 . S
C121 C122 1.413 . S
C121 C123 1.416 . S
C121 C150 1.427 . S
C122 C114 1.424 . S
C122 N119 1.361 . S
C122 C121 1.413 . S
C123 H112 0.931 . S
C123 C121 1.416 . S
C123 C124 1.332 . S
C124 H103 0.929 . S
C124 C120 1.407 . S
C124 C123 1.332 . S
H125 C118 0.930 . S
H126 C149 0.930 . S
H127 C150 0.929 . S
O128 Tb84 2.465 . S
O128 C148 1.264 . S
O129 Tb84 2.387 . S
O129 C140 1.264 . S
O130 Tb95 2.349 . S
O130 C140 1.243 . S
O131 Tb84 2.428 . S
O131 C148 1.256 . S
O132 Tb84 2.308 . S
O132 C147 1.266 . S
O133 Tb95 2.393 . S
O133 C147 1.248 . S
O134 Tb95 2.465 . S
O134 C159 1.264 . S
O135 Tb95 2.387 . S
O135 C151 1.264 . S
O136 Tb84 2.349 . S
O136 C151 1.243 . S
O137 Tb95 2.428 . S
O137 C159 1.256 . S
O138 Tb95 2.308 . S
O138 C158 1.266 . S
O139 Tb84 2.393 . S
O139 C158 1.248 . S
C140 O129 1.264 . S
C140 O130 1.243 . S
C141 C144 1.399 . S
C141 C146 1.383 . S
C141 C148 1.496 . S
C142 C143 1.399 . S
C142 C146 1.389 . S
C143 C142 1.399 . S
C143 C145 1.380 . S
C143 H160 0.929 . S
C144 C141 1.399 . S
C144 C145 1.392 . S
C144 H161 0.929 . S
C145 C143 1.380 . S
C145 C144 1.392 . S
C145 H162 0.929 . S
C146 C141 1.383 . S
C146 C142 1.389 . S
C146 H163 0.931 . S
C147 O132 1.266 . S
C147 O133 1.248 . S
C148 Tb84 2.802 . S
C148 O128 1.264 . S
C148 O131 1.256 . S
C148 C141 1.496 . S
C149 C116 1.448 . S
C149 H126 0.930 . S
C149 C150 1.328 . S
C150 C121 1.427 . S
C150 H127 0.929 . S
C150 C149 1.328 . S
C151 O135 1.264 . S
C151 O136 1.243 . S
C152 C155 1.399 . S
C152 C156 1.383 . S
C152 C159 1.496 . S
C153 C154 1.399 . S
C153 C156 1.389 . S
C154 C153 1.399 . S
C154 C157 1.380 . S
C154 H164 0.929 . S
C155 C152 1.399 . S
C155 C157 1.392 . S
C155 H165 0.929 . S
C156 C152 1.383 . S
C156 C153 1.389 . S
C156 H166 0.931 . S
C157 C154 1.380 . S
C157 C155 1.392 . S
C157 H167 0.929 . S
C158 O138 1.266 . S
C158 O139 1.248 . S
C159 Tb95 2.802 . S
C159 O134 1.264 . S
C159 O137 1.256 . S
C159 C152 1.496 . S
H160 C143 0.929 . S
H161 C144 0.929 . S
H162 C145 0.929 . S
H163 C146 0.931 . S
H164 C154 0.929 . S
H165 C155 0.929 . S
H166 C156 0.931 . S
H167 C157 0.929 . S
Tb168 N197 2.617 . S
Tb168 N203 2.572 . S
Tb168 O212 2.465 . S
Tb168 O213 2.387 . S
Tb168 O215 2.428 . S
Tb168 O216 2.308 . S
Tb168 O220 2.349 . S
Tb168 O223 2.393 . S
Tb168 C232 2.802 . S
C169 N170 1.379 . S
C169 C172 1.416 . S
C169 C176 1.424 . S
N170 C169 1.379 . S
N170 C173 1.334 . S
N170 Tb179 2.617 . S
C171 C173 1.390 . S
C171 C174 1.339 . S
C171 H191 0.930 . S
C172 C169 1.416 . S
C172 C174 1.416 . S
C172 C178 1.448 . S
C173 N170 1.334 . S
C173 C171 1.390 . S
C173 H184 0.930 . S
C174 C171 1.339 . S
C174 C172 1.416 . S
C174 H195 0.930 . S
C175 C176 1.413 . S
C175 C177 1.427 . S
C175 C181 1.416 . S
C176 C169 1.424 . S
C176 C175 1.413 . S
C176 N180 1.361 . S
C177 C175 1.427 . S
C177 C178 1.328 . S
C177 H192 0.929 . S
C178 C172 1.448 . S
C178 C177 1.328 . S
C178 H193 0.930 . S
Tb179 N170 2.617 . S
Tb179 N180 2.572 . S
Tb179 O214 2.349 . S
Tb179 O217 2.393 . S
Tb179 O218 2.465 . S
Tb179 O219 2.387 . S
Tb179 O221 2.428 . S
Tb179 O222 2.308 . S
Tb179 C243 2.802 . S
N180 C176 1.361 . S
N180 Tb179 2.572 . S
N180 C182 1.340 . S
C181 C175 1.416 . S
C181 C183 1.332 . S
C181 H189 0.931 . S
C182 N180 1.340 . S
C182 C183 1.407 . S
C182 H188 0.930 . S
C183 C181 1.332 . S
C183 C182 1.407 . S
C183 H185 0.929 . S
H184 C173 0.930 . S
H185 C183 0.929 . S
H186 C201 0.930 . S
H187 C208 0.929 . S
H188 C182 0.930 . S
H189 C181 0.931 . S
H190 C204 0.930 . S
H191 C171 0.930 . S
H192 C177 0.929 . S
H193 C178 0.930 . S
H194 C199 0.930 . S
H195 C174 0.930 . S
H196 C207 0.931 . S
N197 Tb168 2.617 . S
N197 C198 1.379 . S
N197 C201 1.334 . S
C198 N197 1.379 . S
C198 C200 1.416 . S
C198 C206 1.424 . S
C199 H194 0.930 . S
C199 C201 1.390 . S
C199 C202 1.339 . S
C200 C198 1.416 . S
C200 C202 1.416 . S
C200 C233 1.448 . S
C201 H186 0.930 . S
C201 N197 1.334 . S
C201 C199 1.390 . S
C202 C199 1.339 . S
C202 C200 1.416 . S
C202 H209 0.930 . S
N203 Tb168 2.572 . S
N203 C204 1.340 . S
N203 C206 1.361 . S
C204 H190 0.930 . S
C204 N203 1.340 . S
C204 C208 1.407 . S
C205 C206 1.413 . S
C205 C207 1.416 . S
C205 C234 1.427 . S
C206 C198 1.424 . S
C206 N203 1.361 . S
C206 C205 1.413 . S
C207 H196 0.931 . S
C207 C205 1.416 . S
C207 C208 1.332 . S
C208 H187 0.929 . S
C208 C204 1.407 . S
C208 C207 1.332 . S
H209 C202 0.930 . S
H210 C233 0.930 . S
H211 C234 0.929 . S
O212 Tb168 2.465 . S
O212 C232 1.264 . S
O213 Tb168 2.387 . S
O213 C224 1.264 . S
O214 Tb179 2.349 . S
O214 C224 1.243 . S
O215 Tb168 2.428 . S
O215 C232 1.256 . S
O216 Tb168 2.308 . S
O216 C231 1.266 . S
O217 Tb179 2.393 . S
O217 C231 1.248 . S
O218 Tb179 2.465 . S
O218 C243 1.264 . S
O219 Tb179 2.387 . S
O219 C235 1.264 . S
O220 Tb168 2.349 . S
O220 C235 1.243 . S
O221 Tb179 2.428 . S
O221 C243 1.256 . S
O222 Tb179 2.308 . S
O222 C242 1.266 . S
O223 Tb168 2.393 . S
O223 C242 1.248 . S
C224 O213 1.264 . S
C224 O214 1.243 . S
C225 C228 1.399 . S
C225 C230 1.383 . S
C225 C232 1.496 . S
C226 C227 1.399 . S
C226 C230 1.389 . S
C227 C226 1.399 . S
C227 C229 1.380 . S
C227 H244 0.929 . S
C228 C225 1.399 . S
C228 C229 1.392 . S
C228 H245 0.929 . S
C229 C227 1.380 . S
C229 C228 1.392 . S
C229 H246 0.929 . S
C230 C225 1.383 . S
C230 C226 1.389 . S
C230 H247 0.931 . S
C231 O216 1.266 . S
C231 O217 1.248 . S
C232 Tb168 2.802 . S
C232 O212 1.264 . S
C232 O215 1.256 . S
C232 C225 1.496 . S
C233 C200 1.448 . S
C233 H210 0.930 . S
C233 C234 1.328 . S
C234 C205 1.427 . S
C234 H211 0.929 . S
C234 C233 1.328 . S
C235 O219 1.264 . S
C235 O220 1.243 . S
C236 C239 1.399 . S
C236 C240 1.383 . S
C236 C243 1.496 . S
C237 C238 1.399 . S
C237 C240 1.389 . S
C238 C237 1.399 . S
C238 C241 1.380 . S
C238 H248 0.929 . S
C239 C236 1.399 . S
C239 C241 1.392 . S
C239 H249 0.929 . S
C240 C236 1.383 . S
C240 C237 1.389 . S
C240 H250 0.931 . S
C241 C238 1.380 . S
C241 C239 1.392 . S
C241 H251 0.929 . S
C242 O222 1.266 . S
C242 O223 1.248 . S
C243 Tb179 2.802 . S
C243 O218 1.264 . S
C243 O221 1.256 . S
C243 C236 1.496 . S
H244 C227 0.929 . S
H245 C228 0.929 . S
H246 C229 0.929 . S
H247 C230 0.931 . S
H248 C238 0.929 . S
H249 C239 0.929 . S
H250 C240 0.931 . S
H251 C241 0.929 . S
Tb252 N281 2.617 . S
Tb252 N287 2.572 . S
Tb252 O296 2.465 . S
Tb252 O297 2.387 . S
Tb252 O299 2.428 . S
Tb252 O300 2.308 . S
Tb252 O304 2.349 . S
Tb252 O307 2.393 . S
Tb252 C316 2.802 . S
C253 N254 1.379 . S
C253 C256 1.416 . S
C253 C260 1.424 . S
N254 C253 1.379 . S
N254 C257 1.334 . S
N254 Tb263 2.617 . S
C255 C257 1.390 . S
C255 C258 1.339 . S
C255 H275 0.930 . S
C256 C253 1.416 . S
C256 C258 1.416 . S
C256 C262 1.448 . S
C257 N254 1.334 . S
C257 C255 1.390 . S
C257 H268 0.930 . S
C258 C255 1.339 . S
C258 C256 1.416 . S
C258 H279 0.930 . S
C259 C260 1.413 . S
C259 C261 1.427 . S
C259 C265 1.416 . S
C260 C253 1.424 . S
C260 C259 1.413 . S
C260 N264 1.361 . S
C261 C259 1.427 . S
C261 C262 1.328 . S
C261 H276 0.929 . S
C262 C256 1.448 . S
C262 C261 1.328 . S
C262 H277 0.930 . S
Tb263 N254 2.617 . S
Tb263 N264 2.572 . S
Tb263 O298 2.349 . S
Tb263 O301 2.393 . S
Tb263 O302 2.465 . S
Tb263 O303 2.387 . S
Tb263 O305 2.428 . S
Tb263 O306 2.308 . S
Tb263 C327 2.802 . S
N264 C260 1.361 . S
N264 Tb263 2.572 . S
N264 C266 1.340 . S
C265 C259 1.416 . S
C265 C267 1.332 . S
C265 H273 0.931 . S
C266 N264 1.340 . S
C266 C267 1.407 . S
C266 H272 0.930 . S
C267 C265 1.332 . S
C267 C266 1.407 . S
C267 H269 0.929 . S
H268 C257 0.930 . S
H269 C267 0.929 . S
H270 C285 0.930 . S
H271 C292 0.929 . S
H272 C266 0.930 . S
H273 C265 0.931 . S
H274 C288 0.930 . S
H275 C255 0.930 . S
H276 C261 0.929 . S
H277 C262 0.930 . S
H278 C283 0.930 . S
H279 C258 0.930 . S
H280 C291 0.931 . S
N281 Tb252 2.617 . S
N281 C282 1.379 . S
N281 C285 1.334 . S
C282 N281 1.379 . S
C282 C284 1.416 . S
C282 C290 1.424 . S
C283 H278 0.930 . S
C283 C285 1.390 . S
C283 C286 1.339 . S
C284 C282 1.416 . S
C284 C286 1.416 . S
C284 C317 1.448 . S
C285 H270 0.930 . S
C285 N281 1.334 . S
C285 C283 1.390 . S
C286 C283 1.339 . S
C286 C284 1.416 . S
C286 H293 0.930 . S
N287 Tb252 2.572 . S
N287 C288 1.340 . S
N287 C290 1.361 . S
C288 H274 0.930 . S
C288 N287 1.340 . S
C288 C292 1.407 . S
C289 C290 1.413 . S
C289 C291 1.416 . S
C289 C318 1.427 . S
C290 C282 1.424 . S
C290 N287 1.361 . S
C290 C289 1.413 . S
C291 H280 0.931 . S
C291 C289 1.416 . S
C291 C292 1.332 . S
C292 H271 0.929 . S
C292 C288 1.407 . S
C292 C291 1.332 . S
H293 C286 0.930 . S
H294 C317 0.930 . S
H295 C318 0.929 . S
O296 Tb252 2.465 . S
O296 C316 1.264 . S
O297 Tb252 2.387 . S
O297 C308 1.264 . S
O298 Tb263 2.349 . S
O298 C308 1.243 . S
O299 Tb252 2.428 . S
O299 C316 1.256 . S
O300 Tb252 2.308 . S
O300 C315 1.266 . S
O301 Tb263 2.393 . S
O301 C315 1.248 . S
O302 Tb263 2.465 . S
O302 C327 1.264 . S
O303 Tb263 2.387 . S
O303 C319 1.264 . S
O304 Tb252 2.349 . S
O304 C319 1.243 . S
O305 Tb263 2.428 . S
O305 C327 1.256 . S
O306 Tb263 2.308 . S
O306 C326 1.266 . S
O307 Tb252 2.393 . S
O307 C326 1.248 . S
C308 O297 1.264 . S
C308 O298 1.243 . S
C309 C312 1.399 . S
C309 C314 1.383 . S
C309 C316 1.496 . S
C310 C311 1.399 . S
C310 C314 1.389 . S
C311 C310 1.399 . S
C311 C313 1.380 . S
C311 H328 0.929 . S
C312 C309 1.399 . S
C312 C313 1.392 . S
C312 H329 0.929 . S
C313 C311 1.380 . S
C313 C312 1.392 . S
C313 H330 0.929 . S
C314 C309 1.383 . S
C314 C310 1.389 . S
C314 H331 0.931 . S
C315 O300 1.266 . S
C315 O301 1.248 . S
C316 Tb252 2.802 . S
C316 O296 1.264 . S
C316 O299 1.256 . S
C316 C309 1.496 . S
C317 C284 1.448 . S
C317 H294 0.930 . S
C317 C318 1.328 . S
C318 C289 1.427 . S
C318 H295 0.929 . S
C318 C317 1.328 . S
C319 O303 1.264 . S
C319 O304 1.243 . S
C320 C323 1.399 . S
C320 C324 1.383 . S
C320 C327 1.496 . S
C321 C322 1.399 . S
C321 C324 1.389 . S
C322 C321 1.399 . S
C322 C325 1.380 . S
C322 H332 0.929 . S
C323 C320 1.399 . S
C323 C325 1.392 . S
C323 H333 0.929 . S
C324 C320 1.383 . S
C324 C321 1.389 . S
C324 H334 0.931 . S
C325 C322 1.380 . S
C325 C323 1.392 . S
C325 H335 0.929 . S
C326 O306 1.266 . S
C326 O307 1.248 . S
C327 Tb263 2.802 . S
C327 O302 1.264 . S
C327 O305 1.256 . S
C327 C320 1.496 . S
H328 C311 0.929 . S
H329 C312 0.929 . S
H330 C313 0.929 . S
H331 C314 0.931 . S
H332 C322 0.929 . S
H333 C323 0.929 . S
H334 C324 0.931 . S
H335 C325 0.929 . S
Tb336 N365 2.617 . S
Tb336 N371 2.572 . S
Tb336 O380 2.465 . S
Tb336 O381 2.387 . S
Tb336 O383 2.428 . S
Tb336 O384 2.308 . S
Tb336 O388 2.349 . S
Tb336 O391 2.393 . S
Tb336 C400 2.802 . S
C337 N338 1.379 . S
C337 C340 1.416 . S
C337 C344 1.424 . S
N338 C337 1.379 . S
N338 C341 1.334 . S
N338 Tb347 2.617 . S
C339 C341 1.390 . S
C339 C342 1.339 . S
C339 H359 0.930 . S
C340 C337 1.416 . S
C340 C342 1.416 . S
C340 C346 1.448 . S
C341 N338 1.334 . S
C341 C339 1.390 . S
C341 H352 0.930 . S
C342 C339 1.339 . S
C342 C340 1.416 . S
C342 H363 0.930 . S
C343 C344 1.413 . S
C343 C345 1.427 . S
C343 C349 1.416 . S
C344 C337 1.424 . S
C344 C343 1.413 . S
C344 N348 1.361 . S
C345 C343 1.427 . S
C345 C346 1.328 . S
C345 H360 0.929 . S
C346 C340 1.448 . S
C346 C345 1.328 . S
C346 H361 0.930 . S
Tb347 N338 2.617 . S
Tb347 N348 2.572 . S
Tb347 O382 2.349 . S
Tb347 O385 2.393 . S
Tb347 O386 2.465 . S
Tb347 O387 2.387 . S
Tb347 O389 2.428 . S
Tb347 O390 2.308 . S
Tb347 C411 2.802 . S
N348 C344 1.361 . S
N348 Tb347 2.572 . S
N348 C350 1.340 . S
C349 C343 1.416 . S
C349 C351 1.332 . S
C349 H357 0.931 . S
C350 N348 1.340 . S
C350 C351 1.407 . S
C350 H356 0.930 . S
C351 C349 1.332 . S
C351 C350 1.407 . S
C351 H353 0.929 . S
H352 C341 0.930 . S
H353 C351 0.929 . S
H354 C369 0.930 . S
H355 C376 0.929 . S
H356 C350 0.930 . S
H357 C349 0.931 . S
H358 C372 0.930 . S
H359 C339 0.930 . S
H360 C345 0.929 . S
H361 C346 0.930 . S
H362 C367 0.930 . S
H363 C342 0.930 . S
H364 C375 0.931 . S
N365 Tb336 2.617 . S
N365 C366 1.379 . S
N365 C369 1.334 . S
C366 N365 1.379 . S
C366 C368 1.416 . S
C366 C374 1.424 . S
C367 H362 0.930 . S
C367 C369 1.390 1_554 S
C367 C370 1.339 . S
C368 C366 1.416 . S
C368 C370 1.416 1_556 S
C368 C401 1.448 1_556 S
C369 H354 0.930 . S
C369 N365 1.334 . S
C369 C367 1.390 1_556 S
C370 C367 1.339 . S
C370 C368 1.416 1_554 S
C370 H377 0.930 . S
N371 Tb336 2.572 . S
N371 C372 1.340 . S
N371 C374 1.361 . S
C372 H358 0.930 . S
C372 N371 1.340 . S
C372 C376 1.407 . S
C373 C374 1.413 . S
C373 C375 1.416 . S
C373 C402 1.427 . S
C374 C366 1.424 . S
C374 N371 1.361 . S
C374 C373 1.413 . S
C375 H364 0.931 . S
C375 C373 1.416 . S
C375 C376 1.332 . S
C376 H355 0.929 . S
C376 C372 1.407 . S
C376 C375 1.332 . S
H377 C370 0.930 . S
H378 C401 0.930 . S
H379 C402 0.937 . S
O380 Tb336 2.465 . S
O380 C400 1.264 . S
O381 Tb336 2.387 . S
O381 C392 1.264 . S
O382 Tb347 2.349 . S
O382 C392 1.243 . S
O383 Tb336 2.428 . S
O383 C400 1.256 . S
O384 Tb336 2.308 . S
O384 C399 1.266 . S
O385 Tb347 2.393 . S
O385 C399 1.248 . S
O386 Tb347 2.465 . S
O386 C411 1.264 . S
O387 Tb347 2.387 . S
O387 C403 1.264 . S
O388 Tb336 2.349 . S
O388 C403 1.243 . S
O389 Tb347 2.428 . S
O389 C411 1.256 . S
O390 Tb347 2.308 . S
O390 C410 1.266 . S
O391 Tb336 2.393 . S
O391 C410 1.248 . S
C392 O381 1.264 . S
C392 O382 1.243 . S
C393 C396 1.399 . S
C393 C398 1.383 . S
C393 C400 1.496 . S
C394 C395 1.399 . S
C394 C398 1.389 . S
C395 C394 1.399 . S
C395 C397 1.380 . S
C395 H412 0.929 . S
C396 C393 1.399 . S
C396 C397 1.392 . S
C396 H413 0.929 . S
C397 C395 1.380 . S
C397 C396 1.392 . S
C397 H414 0.929 . S
C398 C393 1.383 . S
C398 C394 1.389 . S
C398 H415 0.931 . S
C399 O384 1.266 . S
C399 O385 1.248 . S
C400 Tb336 2.802 . S
C400 O380 1.264 . S
C400 O383 1.256 . S
C400 C393 1.496 . S
C401 C368 1.448 1_554 S
C401 H378 0.930 . S
C401 C402 1.328 1_554 S
C402 C373 1.427 . S
C402 H379 0.937 . S
C402 C401 1.328 1_556 S
C403 O387 1.264 . S
C403 O388 1.243 . S
C404 C407 1.399 . S
C404 C408 1.383 . S
C404 C411 1.496 . S
C405 C406 1.399 . S
C405 C408 1.389 . S
C406 C405 1.399 . S
C406 C409 1.380 . S
C406 H416 0.929 . S
C407 C404 1.399 . S
C407 C409 1.392 . S
C407 H417 0.929 . S
C408 C404 1.383 . S
C408 C405 1.389 . S
C408 H418 0.931 . S
C409 C406 1.380 . S
C409 C407 1.392 . S
C409 H419 0.929 . S
C410 O390 1.266 . S
C410 O391 1.248 . S
C411 Tb347 2.802 . S
C411 O386 1.264 . S
C411 O389 1.256 . S
C411 C404 1.496 . S
H412 C395 0.929 . S
H413 C396 0.929 . S
H414 C397 0.929 . S
H415 C398 0.931 . S
H416 C406 0.929 . S
H417 C407 0.929 . S
H418 C408 0.931 . S
H419 C409 0.929 . S
Tb420 N449 2.617 . S
Tb420 N455 2.572 . S
Tb420 O464 2.465 . S
Tb420 O465 2.387 . S
Tb420 O467 2.428 . S
Tb420 O468 2.308 . S
Tb420 O472 2.349 . S
Tb420 O475 2.393 . S
Tb420 C484 2.802 . S
C421 N422 1.379 . S
C421 C424 1.416 . S
C421 C428 1.424 . S
N422 C421 1.379 . S
N422 C425 1.334 . S
N422 Tb431 2.617 . S
C423 C425 1.390 . S
C423 C426 1.339 . S
C423 H443 0.930 . S
C424 C421 1.416 . S
C424 C426 1.416 . S
C424 C430 1.448 . S
C425 N422 1.334 . S
C425 C423 1.390 . S
C425 H436 0.930 . S
C426 C423 1.339 . S
C426 C424 1.416 . S
C426 H447 0.930 . S
C427 C428 1.413 . S
C427 C429 1.427 . S
C427 C433 1.416 . S
C428 C421 1.424 . S
C428 C427 1.413 . S
C428 N432 1.361 . S
C429 C427 1.427 . S
C429 C430 1.328 . S
C429 H444 0.929 . S
C430 C424 1.448 . S
C430 C429 1.328 . S
C430 H445 0.930 . S
Tb431 N422 2.617 . S
Tb431 N432 2.572 . S
Tb431 O466 2.349 . S
Tb431 O469 2.393 . S
Tb431 O470 2.465 . S
Tb431 O471 2.387 . S
Tb431 O473 2.428 . S
Tb431 O474 2.308 . S
Tb431 C495 2.802 . S
N432 C428 1.361 . S
N432 Tb431 2.572 . S
N432 C434 1.340 . S
C433 C427 1.416 . S
C433 C435 1.332 . S
C433 H441 0.931 . S
C434 N432 1.340 . S
C434 C435 1.407 . S
C434 H440 0.930 . S
C435 C433 1.332 . S
C435 C434 1.407 . S
C435 H437 0.929 . S
H436 C425 0.930 . S
H437 C435 0.929 . S
H438 C453 0.930 . S
H439 C460 0.929 . S
H440 C434 0.930 . S
H441 C433 0.931 . S
H442 C456 0.930 . S
H443 C423 0.930 . S
H444 C429 0.929 . S
H445 C430 0.930 . S
H446 C451 0.930 . S
H447 C426 0.930 . S
H448 C459 0.931 . S
N449 Tb420 2.617 . S
N449 C450 1.379 . S
N449 C453 1.334 . S
C450 N449 1.379 . S
C450 C452 1.416 . S
C450 C458 1.424 . S
C451 H446 0.930 . S
C451 C453 1.390 1_556 S
C451 C454 1.339 . S
C452 C450 1.416 . S
C452 C454 1.416 1_554 S
C452 C485 1.448 1_554 S
C453 H438 0.930 . S
C453 N449 1.334 . S
C453 C451 1.390 1_554 S
C454 C451 1.339 . S
C454 C452 1.416 1_556 S
C454 H461 0.930 . S
N455 Tb420 2.572 . S
N455 C456 1.340 . S
N455 C458 1.361 . S
C456 H442 0.930 . S
C456 N455 1.340 . S
C456 C460 1.407 . S
C457 C458 1.413 . S
C457 C459 1.416 . S
C457 C486 1.427 . S
C458 C450 1.424 . S
C458 N455 1.361 . S
C458 C457 1.413 . S
C459 H448 0.931 . S
C459 C457 1.416 . S
C459 C460 1.332 . S
C460 H439 0.929 . S
C460 C456 1.407 . S
C460 C459 1.332 . S
H461 C454 0.930 . S
H462 C485 0.930 . S
H463 C486 0.927 1_556 S
O464 Tb420 2.465 . S
O464 C484 1.264 . S
O465 Tb420 2.387 . S
O465 C476 1.264 . S
O466 Tb431 2.349 . S
O466 C476 1.243 . S
O467 Tb420 2.428 . S
O467 C484 1.256 . S
O468 Tb420 2.308 . S
O468 C483 1.266 . S
O469 Tb431 2.393 . S
O469 C483 1.248 . S
O470 Tb431 2.465 . S
O470 C495 1.264 . S
O471 Tb431 2.387 . S
O471 C487 1.264 . S
O472 Tb420 2.349 . S
O472 C487 1.243 . S
O473 Tb431 2.428 . S
O473 C495 1.256 . S
O474 Tb431 2.308 . S
O474 C494 1.266 . S
O475 Tb420 2.393 . S
O475 C494 1.248 . S
C476 O465 1.264 . S
C476 O466 1.243 . S
C477 C480 1.399 . S
C477 C482 1.383 . S
C477 C484 1.496 . S
C478 C479 1.399 . S
C478 C482 1.389 . S
C479 C478 1.399 . S
C479 C481 1.380 . S
C479 H496 0.929 . S
C480 C477 1.399 . S
C480 C481 1.392 . S
C480 H497 0.929 . S
C481 C479 1.380 . S
C481 C480 1.392 . S
C481 H498 0.929 . S
C482 C477 1.383 . S
C482 C478 1.389 . S
C482 H499 0.931 . S
C483 O468 1.266 . S
C483 O469 1.248 . S
C484 Tb420 2.802 . S
C484 O464 1.264 . S
C484 O467 1.256 . S
C484 C477 1.496 . S
C485 C452 1.448 1_556 S
C485 H462 0.930 . S
C485 C486 1.328 1_556 S
C486 C457 1.427 . S
C486 H463 0.927 1_554 S
C486 C485 1.328 1_554 S
C487 O471 1.264 . S
C487 O472 1.243 . S
C488 C491 1.399 . S
C488 C492 1.383 . S
C488 C495 1.496 . S
C489 C490 1.399 . S
C489 C492 1.389 . S
C490 C489 1.399 . S
C490 C493 1.380 . S
C490 H500 0.929 . S
C491 C488 1.399 . S
C491 C493 1.392 . S
C491 H501 0.929 . S
C492 C488 1.383 . S
C492 C489 1.389 . S
C492 H502 0.931 . S
C493 C490 1.380 . S
C493 C491 1.392 . S
C493 H503 0.929 . S
C494 O474 1.266 . S
C494 O475 1.248 . S
C495 Tb431 2.802 . S
C495 O470 1.264 . S
C495 O473 1.256 . S
C495 C488 1.496 . S
H496 C479 0.929 . S
H497 C480 0.929 . S
H498 C481 0.929 . S
H499 C482 0.931 . S
H500 C490 0.929 . S
H501 C491 0.929 . S
H502 C492 0.931 . S
H503 C493 0.929 . S
Tb504 N533 2.617 . S
Tb504 N539 2.572 . S
Tb504 O548 2.465 . S
Tb504 O549 2.387 . S
Tb504 O551 2.428 . S
Tb504 O552 2.308 . S
Tb504 O556 2.349 . S
Tb504 O559 2.393 . S
Tb504 C568 2.802 . S
C505 N506 1.379 . S
C505 C508 1.416 . S
C505 C512 1.424 . S
N506 C505 1.379 . S
N506 C509 1.334 . S
N506 Tb515 2.617 . S
C507 C509 1.390 . S
C507 C510 1.339 . S
C507 H527 0.930 . S
C508 C505 1.416 . S
C508 C510 1.416 . S
C508 C514 1.448 . S
C509 N506 1.334 . S
C509 C507 1.390 . S
C509 H520 0.930 . S
C510 C507 1.339 . S
C510 C508 1.416 . S
C510 H531 0.930 . S
C511 C512 1.413 . S
C511 C513 1.427 . S
C511 C517 1.416 . S
C512 C505 1.424 . S
C512 C511 1.413 . S
C512 N516 1.361 . S
C513 C511 1.427 . S
C513 C514 1.328 . S
C513 H528 0.929 . S
C514 C508 1.448 . S
C514 C513 1.328 . S
C514 H529 0.930 . S
Tb515 N506 2.617 . S
Tb515 N516 2.572 . S
Tb515 O550 2.349 . S
Tb515 O553 2.393 . S
Tb515 O554 2.465 . S
Tb515 O555 2.387 . S
Tb515 O557 2.428 . S
Tb515 O558 2.308 . S
Tb515 C579 2.802 . S
N516 C512 1.361 . S
N516 Tb515 2.572 . S
N516 C518 1.340 . S
C517 C511 1.416 . S
C517 C519 1.332 . S
C517 H525 0.931 . S
C518 N516 1.340 . S
C518 C519 1.407 . S
C518 H524 0.930 . S
C519 C517 1.332 . S
C519 C518 1.407 . S
C519 H521 0.929 . S
H520 C509 0.930 . S
H521 C519 0.929 . S
H522 C537 0.930 . S
H523 C544 0.929 . S
H524 C518 0.930 . S
H525 C517 0.931 . S
H526 C540 0.930 . S
H527 C507 0.930 . S
H528 C513 0.929 . S
H529 C514 0.930 . S
H530 C535 0.930 . S
H531 C510 0.930 . S
H532 C543 0.931 . S
N533 Tb504 2.617 . S
N533 C534 1.379 . S
N533 C537 1.334 . S
C534 N533 1.379 . S
C534 C536 1.416 . S
C534 C542 1.424 . S
C535 H530 0.930 . S
C535 C537 1.390 1_554 S
C535 C538 1.339 . S
C536 C534 1.416 . S
C536 C538 1.416 1_556 S
C536 C569 1.448 1_556 S
C537 H522 0.930 . S
C537 N533 1.334 . S
C537 C535 1.390 1_556 S
C538 C535 1.339 . S
C538 C536 1.416 1_554 S
C538 H545 0.930 . S
N539 Tb504 2.572 . S
N539 C540 1.340 . S
N539 C542 1.361 . S
C540 H526 0.930 . S
C540 N539 1.340 . S
C540 C544 1.407 . S
C541 C542 1.413 . S
C541 C543 1.416 . S
C541 C570 1.427 . S
C542 C534 1.424 . S
C542 N539 1.361 . S
C542 C541 1.413 . S
C543 H532 0.931 . S
C543 C541 1.416 . S
C543 C544 1.332 . S
C544 H523 0.929 . S
C544 C540 1.407 . S
C544 C543 1.332 . S
H545 C538 0.930 . S
H546 C569 0.930 . S
H547 C570 0.923 1_554 S
O548 Tb504 2.465 . S
O548 C568 1.264 . S
O549 Tb504 2.387 . S
O549 C560 1.264 . S
O550 Tb515 2.349 . S
O550 C560 1.243 . S
O551 Tb504 2.428 . S
O551 C568 1.256 . S
O552 Tb504 2.308 . S
O552 C567 1.266 . S
O553 Tb515 2.393 . S
O553 C567 1.248 . S
O554 Tb515 2.465 . S
O554 C579 1.264 . S
O555 Tb515 2.387 . S
O555 C571 1.264 . S
O556 Tb504 2.349 . S
O556 C571 1.243 . S
O557 Tb515 2.428 . S
O557 C579 1.256 . S
O558 Tb515 2.308 . S
O558 C578 1.266 . S
O559 Tb504 2.393 . S
O559 C578 1.248 . S
C560 O549 1.264 . S
C560 O550 1.243 . S
C561 C564 1.399 . S
C561 C566 1.383 . S
C561 C568 1.496 . S
C562 C563 1.399 . S
C562 C566 1.389 . S
C563 C562 1.399 . S
C563 C565 1.380 . S
C563 H580 0.929 . S
C564 C561 1.399 . S
C564 C565 1.392 . S
C564 H581 0.929 . S
C565 C563 1.380 . S
C565 C564 1.392 . S
C565 H582 0.929 . S
C566 C561 1.383 . S
C566 C562 1.389 . S
C566 H583 0.931 . S
C567 O552 1.266 . S
C567 O553 1.248 . S
C568 Tb504 2.802 . S
C568 O548 1.264 . S
C568 O551 1.256 . S
C568 C561 1.496 . S
C569 C536 1.448 1_554 S
C569 H546 0.930 . S
C569 C570 1.328 1_554 S
C570 C541 1.427 . S
C570 H547 0.923 1_556 S
C570 C569 1.328 1_556 S
C571 O555 1.264 . S
C571 O556 1.243 . S
C572 C575 1.399 . S
C572 C576 1.383 . S
C572 C579 1.496 . S
C573 C574 1.399 . S
C573 C576 1.389 . S
C574 C573 1.399 . S
C574 C577 1.380 . S
C574 H584 0.929 . S
C575 C572 1.399 . S
C575 C577 1.392 . S
C575 H585 0.929 . S
C576 C572 1.383 . S
C576 C573 1.389 . S
C576 H586 0.931 . S
C577 C574 1.380 . S
C577 C575 1.392 . S
C577 H587 0.929 . S
C578 O558 1.266 . S
C578 O559 1.248 . S
C579 Tb515 2.802 . S
C579 O554 1.264 . S
C579 O557 1.256 . S
C579 C572 1.496 . S
H580 C563 0.929 . S
H581 C564 0.929 . S
H582 C565 0.929 . S
H583 C566 0.931 . S
H584 C574 0.929 . S
H585 C575 0.929 . S
H586 C576 0.931 . S
H587 C577 0.929 . S
Tb588 N617 2.617 . S
Tb588 N623 2.572 . S
Tb588 O632 2.465 . S
Tb588 O633 2.387 . S
Tb588 O635 2.428 . S
Tb588 O636 2.308 . S
Tb588 O640 2.349 . S
Tb588 O643 2.393 . S
Tb588 C652 2.802 . S
C589 N590 1.379 . S
C589 C592 1.416 . S
C589 C596 1.424 . S
N590 C589 1.379 . S
N590 C593 1.334 . S
N590 Tb599 2.617 . S
C591 C593 1.390 1_556 S
C591 C594 1.339 . S
C591 H611 0.930 . S
C592 C589 1.416 . S
C592 C594 1.416 1_554 S
C592 C598 1.448 1_554 S
C593 N590 1.334 . S
C593 C591 1.390 1_554 S
C593 H604 0.930 . S
C594 C591 1.339 . S
C594 C592 1.416 1_556 S
C594 H615 0.930 . S
C595 C596 1.413 . S
C595 C597 1.427 . S
C595 C601 1.416 . S
C596 C589 1.424 . S
C596 C595 1.413 . S
C596 N600 1.361 . S
C597 C595 1.427 . S
C597 C598 1.328 1_554 S
C597 H612 0.929 . S
C598 C592 1.448 1_556 S
C598 C597 1.328 1_556 S
C598 H613 0.930 . S
Tb599 N590 2.617 . S
Tb599 N600 2.572 . S
Tb599 O634 2.349 . S
Tb599 O637 2.393 . S
Tb599 O638 2.465 . S
Tb599 O639 2.387 . S
Tb599 O641 2.428 . S
Tb599 O642 2.308 . S
Tb599 C663 2.802 . S
N600 C596 1.361 . S
N600 Tb599 2.572 . S
N600 C602 1.340 . S
C601 C595 1.416 . S
C601 C603 1.332 . S
C601 H609 0.931 . S
C602 N600 1.340 . S
C602 C603 1.407 . S
C602 H608 0.930 . S
C603 C601 1.332 . S
C603 C602 1.407 . S
C603 H605 0.929 . S
H604 C593 0.930 . S
H605 C603 0.929 . S
H606 C621 0.930 . S
H607 C628 0.929 . S
H608 C602 0.930 . S
H609 C601 0.931 . S
H610 C624 0.930 . S
H611 C591 0.930 . S
H612 C597 0.929 . S
H613 C598 0.930 . S
H614 C619 0.930 . S
H615 C594 0.930 . S
H616 C627 0.931 . S
N617 Tb588 2.617 . S
N617 C618 1.379 . S
N617 C621 1.334 . S
C618 N617 1.379 . S
C618 C620 1.416 . S
C618 C626 1.424 . S
C619 H614 0.930 . S
C619 C621 1.390 . S
C619 C622 1.339 . S
C620 C618 1.416 . S
C620 C622 1.416 . S
C620 C653 1.448 . S
C621 H606 0.930 . S
C621 N617 1.334 . S
C621 C619 1.390 . S
C622 C619 1.339 . S
C622 C620 1.416 . S
C622 H629 0.930 . S
N623 Tb588 2.572 . S
N623 C624 1.340 . S
N623 C626 1.361 . S
C624 H610 0.930 . S
C624 N623 1.340 . S
C624 C628 1.407 . S
C625 C626 1.413 . S
C625 C627 1.416 . S
C625 C654 1.427 . S
C626 C618 1.424 . S
C626 N623 1.361 . S
C626 C625 1.413 . S
C627 H616 0.931 . S
C627 C625 1.416 . S
C627 C628 1.332 . S
C628 H607 0.929 . S
C628 C624 1.407 . S
C628 C627 1.332 . S
H629 C622 0.930 . S
H630 C653 0.930 . S
H631 C654 0.929 . S
O632 Tb588 2.465 . S
O632 C652 1.264 . S
O633 Tb588 2.387 . S
O633 C644 1.264 . S
O634 Tb599 2.349 . S
O634 C644 1.243 . S
O635 Tb588 2.428 . S
O635 C652 1.256 . S
O636 Tb588 2.308 . S
O636 C651 1.266 . S
O637 Tb599 2.393 . S
O637 C651 1.248 . S
O638 Tb599 2.465 . S
O638 C663 1.264 . S
O639 Tb599 2.387 . S
O639 C655 1.264 . S
O640 Tb588 2.349 . S
O640 C655 1.243 . S
O641 Tb599 2.428 . S
O641 C663 1.256 . S
O642 Tb599 2.308 . S
O642 C662 1.266 . S
O643 Tb588 2.393 . S
O643 C662 1.248 . S
C644 O633 1.264 . S
C644 O634 1.243 . S
C645 C648 1.399 . S
C645 C650 1.383 . S
C645 C652 1.496 . S
C646 C647 1.399 . S
C646 C650 1.389 . S
C647 C646 1.399 . S
C647 C649 1.380 . S
C647 H664 0.929 . S
C648 C645 1.399 . S
C648 C649 1.392 . S
C648 H665 0.929 . S
C649 C647 1.380 . S
C649 C648 1.392 . S
C649 H666 0.929 . S
C650 C645 1.383 . S
C650 C646 1.389 . S
C650 H667 0.931 . S
C651 O636 1.266 . S
C651 O637 1.248 . S
C652 Tb588 2.802 . S
C652 O632 1.264 . S
C652 O635 1.256 . S
C652 C645 1.496 . S
C653 C620 1.448 . S
C653 H630 0.930 . S
C653 C654 1.328 . S
C654 C625 1.427 . S
C654 H631 0.929 . S
C654 C653 1.328 . S
C655 O639 1.264 . S
C655 O640 1.243 . S
C656 C659 1.399 . S
C656 C660 1.383 . S
C656 C663 1.496 . S
C657 C658 1.399 . S
C657 C660 1.389 . S
C658 C657 1.399 . S
C658 C661 1.380 . S
C658 H668 0.929 . S
C659 C656 1.399 . S
C659 C661 1.392 . S
C659 H669 0.929 . S
C660 C656 1.383 . S
C660 C657 1.389 . S
C660 H670 0.931 . S
C661 C658 1.380 . S
C661 C659 1.392 . S
C661 H671 0.929 . S
C662 O642 1.266 . S
C662 O643 1.248 . S
C663 Tb599 2.802 . S
C663 O638 1.264 . S
C663 O641 1.256 . S
C663 C656 1.496 . S
H664 C647 0.929 . S
H665 C648 0.929 . S
H666 C649 0.929 . S
H667 C650 0.931 . S
H668 C658 0.929 . S
H669 C659 0.929 . S
H670 C660 0.931 . S
H671 C661 0.929 . S
H672 C690 0.951 . S
H673 C692 0.951 . S
H674 C694 0.950 . S
H675 C695 0.950 . S
H676 C697 0.950 . S
H677 C700 0.950 . S
H678 C701 0.950 . S
H679 C703 0.950 . S
H680 C704 0.950 . S
H681 C705 0.951 . S
H682 C707 0.951 . S
H683 C709 0.950 . S
H684 C710 0.950 . S
H685 C712 0.950 . S
H686 C715 0.950 . S
H687 C716 0.950 . S
H688 C718 0.950 . S
H689 C719 0.950 . S
C690 H672 0.951 . S
C690 C691 1.366 . S
C690 C692 1.388 . S
C691 C690 1.366 . S
C691 C695 1.385 . S
C692 H673 0.951 . S
C692 C690 1.388 . S
C692 C693 1.366 . S
C693 C692 1.366 . S
C693 C694 1.414 . S
C693 C696 1.499 . S
C694 H674 0.950 . S
C694 C693 1.414 . S
C694 C695 1.374 . S
C695 H675 0.950 . S
C695 C691 1.385 . S
C695 C694 1.374 . S
C696 C693 1.499 . S
C696 C697 1.373 . S
C696 C698 1.389 . S
C697 H676 0.950 . S
C697 C696 1.373 . S
C697 C713 1.377 1_545 S
C698 C696 1.389 . S
C698 C699 1.524 . S
C698 C712 1.358 1_545 S
C699 C698 1.524 . S
C699 C700 1.397 . S
C699 C704 1.363 . S
C700 H677 0.950 . S
C700 C699 1.397 . S
C700 C701 1.334 . S
C701 H678 0.950 . S
C701 C700 1.334 . S
C701 C702 1.287 . S
C702 C701 1.287 . S
C702 C703 1.524 . S
C702 H721 0.913 . S
C703 H679 0.950 . S
C703 C702 1.524 . S
C703 C704 1.415 . S
C704 H680 0.950 . S
C704 C699 1.363 . S
C704 C703 1.415 . S
C705 H681 0.951 . S
C705 C706 1.366 . S
C705 C707 1.388 . S
C706 C705 1.366 . S
C706 C710 1.385 . S
C707 H682 0.951 . S
C707 C705 1.388 . S
C707 C708 1.366 . S
C708 C707 1.366 . S
C708 C709 1.414 . S
C708 C711 1.499 . S
C709 H683 0.950 . S
C709 C708 1.414 . S
C709 C710 1.374 . S
C710 H684 0.950 . S
C710 C706 1.385 . S
C710 C709 1.374 . S
C711 C708 1.499 . S
C711 C712 1.391 . S
C711 C713 1.389 . S
C712 H685 0.950 . S
C712 C698 1.358 1_565 S
C712 C711 1.391 . S
C713 C697 1.377 1_565 S
C713 C711 1.389 . S
C713 C714 1.524 . S
C714 C713 1.524 . S
C714 C715 1.397 . S
C714 C719 1.363 . S
C715 H686 0.950 . S
C715 C714 1.397 . S
C715 C716 1.334 . S
C716 H687 0.950 . S
C716 C715 1.334 . S
C716 C717 1.287 . S
C717 C716 1.287 . S
C717 C718 1.524 . S
C717 H720 0.999 . S
C718 H688 0.950 . S
C718 C717 1.524 . S
C718 C719 1.415 . S
C719 H689 0.950 . S
C719 C714 1.363 . S
C719 C718 1.415 . S
H720 C717 0.999 . S
H721 C702 0.913 . S
H722 C740 0.951 . S
H723 C742 0.951 . S
H724 C744 0.950 . S
H725 C745 0.950 . S
H726 C747 0.950 . S
H727 C750 0.950 . S
H728 C751 0.950 . S
H729 C753 0.950 . S
H730 C754 0.950 1_655 S
H731 C755 0.951 . S
H732 C757 0.951 . S
H733 C759 0.950 . S
H734 C760 0.950 . S
H735 C762 0.950 . S
H736 C765 0.950 . S
H737 C766 0.950 . S
H738 C768 0.950 . S
H739 C769 0.950 1_455 S
C740 H722 0.951 . S
C740 C741 1.366 . S
C740 C742 1.388 . S
C741 C740 1.366 . S
C741 C745 1.385 . S
C742 H723 0.951 . S
C742 C740 1.388 . S
C742 C743 1.366 . S
C743 C742 1.366 . S
C743 C744 1.414 . S
C743 C746 1.499 . S
C744 H724 0.950 . S
C744 C743 1.414 . S
C744 C745 1.374 . S
C745 H725 0.950 . S
C745 C741 1.385 . S
C745 C744 1.374 . S
C746 C743 1.499 . S
C746 C747 1.373 . S
C746 C748 1.389 . S
C747 H726 0.950 . S
C747 C746 1.373 . S
C747 C763 1.377 1_455 S
C748 C746 1.389 . S
C748 C749 1.524 . S
C748 C762 1.377 1_455 S
C749 C748 1.524 . S
C749 C750 1.397 . S
C749 C754 1.363 . S
C750 H727 0.950 . S
C750 C749 1.397 . S
C750 C751 1.334 . S
C751 H728 0.950 . S
C751 C750 1.334 . S
C751 C752 1.287 . S
C752 C751 1.287 . S
C752 C753 1.524 . S
C752 H771 0.913 . S
C753 H729 0.950 . S
C753 C752 1.524 . S
C753 C754 1.415 . S
C754 H730 0.950 1_455 S
C754 C749 1.363 . S
C754 C753 1.415 . S
C755 H731 0.951 . S
C755 C756 1.366 . S
C755 C757 1.388 . S
C756 C755 1.366 . S
C756 C760 1.385 . S
C757 H732 0.951 . S
C757 C755 1.388 . S
C757 C758 1.366 . S
C758 C757 1.366 . S
C758 C759 1.414 . S
C758 C761 1.499 . S
C759 H733 0.950 . S
C759 C758 1.414 . S
C759 C760 1.374 . S
C760 H734 0.950 . S
C760 C756 1.385 . S
C760 C759 1.374 . S
C761 C758 1.499 . S
C761 C762 1.373 . S
C761 C763 1.389 . S
C762 H735 0.950 . S
C762 C748 1.377 1_655 S
C762 C761 1.373 . S
C763 C747 1.377 1_655 S
C763 C761 1.389 . S
C763 C764 1.524 . S
C764 C763 1.524 . S
C764 C765 1.397 . S
C764 C769 1.363 . S
C765 H736 0.950 . S
C765 C764 1.397 . S
C765 C766 1.334 . S
C766 H737 0.950 . S
C766 C765 1.334 . S
C766 C767 1.287 . S
C767 C766 1.287 . S
C767 C768 1.524 . S
C767 H770 0.999 . S
C768 H738 0.950 . S
C768 C767 1.524 . S
C768 C769 1.415 . S
C769 H739 0.950 1_655 S
C769 C764 1.363 . S
C769 C768 1.415 . S
H770 C767 0.999 . S
H771 C752 0.913 . S
H772 C790 0.951 . S
H773 C792 0.951 . S
H774 C794 0.950 . S
H775 C795 0.950 . S
H776 C797 0.950 . S
H777 C800 0.950 . S
H778 C801 0.950 . S
H779 C803 0.950 . S
H780 C804 0.950 . S
H781 C805 0.951 . S
H782 C807 0.951 . S
H783 C809 0.950 . S
H784 C810 0.950 . S
H785 C812 0.950 . S
H786 C815 0.950 . S
H787 C816 0.950 . S
H788 C818 0.950 . S
H789 C819 0.950 . S
C790 H772 0.951 . S
C790 C791 1.366 . S
C790 C792 1.388 . S
C791 C790 1.366 . S
C791 C795 1.385 . S
C792 H773 0.951 . S
C792 C790 1.388 . S
C792 C793 1.366 . S
C793 C792 1.366 . S
C793 C794 1.414 . S
C793 C796 1.499 . S
C794 H774 0.950 . S
C794 C793 1.414 . S
C794 C795 1.374 . S
C795 H775 0.950 . S
C795 C791 1.385 . S
C795 C794 1.374 . S
C796 C793 1.499 . S
C796 C797 1.373 . S
C796 C798 1.389 . S
C797 H776 0.950 . S
C797 C796 1.373 . S
C797 C813 1.355 1_565 S
C798 C796 1.389 . S
C798 C799 1.524 . S
C798 C812 1.377 1_565 S
C799 C798 1.524 . S
C799 C800 1.397 . S
C799 C804 1.363 1_565 S
C800 H777 0.950 . S
C800 C799 1.397 . S
C800 C801 1.334 . S
C801 H778 0.950 . S
C801 C800 1.334 . S
C801 C802 1.287 . S
C802 C801 1.287 . S
C802 C803 1.524 1_565 S
C802 H821 0.913 . S
C803 H779 0.950 . S
C803 C802 1.524 1_545 S
C803 C804 1.415 . S
C804 H780 0.950 . S
C804 C799 1.363 1_545 S
C804 C803 1.415 . S
C805 H781 0.951 . S
C805 C806 1.366 . S
C805 C807 1.388 . S
C806 C805 1.366 . S
C806 C810 1.385 . S
C807 H782 0.951 . S
C807 C805 1.388 . S
C807 C808 1.366 . S
C808 C807 1.366 . S
C808 C809 1.414 . S
C808 C811 1.499 . S
C809 H783 0.950 . S
C809 C808 1.414 . S
C809 C810 1.374 . S
C810 H784 0.950 . S
C810 C806 1.385 . S
C810 C809 1.374 . S
C811 C808 1.499 . S
C811 C812 1.373 . S
C811 C813 1.410 . S
C812 H785 0.950 . S
C812 C798 1.377 1_545 S
C812 C811 1.373 . S
C813 C797 1.355 1_545 S
C813 C811 1.410 . S
C813 C814 1.524 . S
C814 C813 1.524 . S
C814 C815 1.403 . S
C814 C819 1.356 1_545 S
C815 H786 0.950 . S
C815 C814 1.403 . S
C815 C816 1.334 . S
C816 H787 0.950 . S
C816 C815 1.334 . S
C816 C817 1.287 . S
C817 C816 1.287 . S
C817 C818 1.524 1_545 S
C817 H820 1.000 . S
C818 H788 0.950 . S
C818 C817 1.524 1_565 S
C818 C819 1.415 . S
C819 H789 0.950 . S
C819 C814 1.356 1_565 S
C819 C818 1.415 . S
H820 C817 1.000 . S
H821 C802 0.913 . S
H822 C840 0.951 . S
H823 C842 0.951 . S
H824 C844 0.950 . S
H825 C845 0.950 . S
H826 C847 0.950 . S
H827 C850 0.950 . S
H828 C851 0.950 . S
H829 C853 0.950 . S
H830 C854 0.950 . S
H831 C855 0.951 . S
H832 C857 0.951 . S
H833 C859 0.950 . S
H834 C860 0.950 . S
H835 C862 0.950 . S
H836 C865 0.950 . S
H837 C866 0.950 . S
H838 C868 0.950 . S
H839 C869 0.950 . S
C840 H822 0.951 . S
C840 C841 1.366 . S
C840 C842 1.388 . S
C841 C840 1.366 . S
C841 C845 1.385 . S
C842 H823 0.951 . S
C842 C840 1.388 . S
C842 C843 1.366 . S
C843 C842 1.366 . S
C843 C844 1.414 . S
C843 C846 1.499 . S
C844 H824 0.950 . S
C844 C843 1.414 . S
C844 C845 1.374 . S
C845 H825 0.950 . S
C845 C841 1.385 . S
C845 C844 1.374 . S
C846 C843 1.499 . S
C846 C847 1.373 . S
C846 C848 1.389 . S
C847 H826 0.950 . S
C847 C846 1.373 . S
C847 C863 1.377 1_455 S
C848 C846 1.389 . S
C848 C849 1.524 . S
C848 C862 1.377 1_455 S
C849 C848 1.524 . S
C849 C850 1.397 . S
C849 C854 1.363 . S
C850 H827 0.950 . S
C850 C849 1.397 . S
C850 C851 1.334 . S
C851 H828 0.950 . S
C851 C850 1.334 . S
C851 C852 1.287 . S
C852 C851 1.287 . S
C852 C853 1.524 . S
C852 H871 0.913 . S
C853 H829 0.950 . S
C853 C852 1.524 . S
C853 C854 1.415 . S
C854 H830 0.950 . S
C854 C849 1.363 . S
C854 C853 1.415 . S
C855 H831 0.951 . S
C855 C856 1.366 . S
C855 C857 1.388 . S
C856 C855 1.366 . S
C856 C860 1.385 . S
C857 H832 0.951 . S
C857 C855 1.388 . S
C857 C858 1.366 . S
C858 C857 1.366 . S
C858 C859 1.414 . S
C858 C861 1.499 . S
C859 H833 0.950 . S
C859 C858 1.414 . S
C859 C860 1.374 . S
C860 H834 0.950 . S
C860 C856 1.385 . S
C860 C859 1.374 . S
C861 C858 1.499 . S
C861 C862 1.373 . S
C861 C863 1.389 . S
C862 H835 0.950 . S
C862 C848 1.377 1_655 S
C862 C861 1.373 . S
C863 C847 1.377 1_655 S
C863 C861 1.389 . S
C863 C864 1.524 . S
C864 C863 1.524 . S
C864 C865 1.397 . S
C864 C869 1.363 . S
C865 H836 0.950 . S
C865 C864 1.397 . S
C865 C866 1.334 . S
C866 H837 0.950 . S
C866 C865 1.334 . S
C866 C867 1.287 . S
C867 C866 1.287 . S
C867 C868 1.524 . S
C867 H870 0.999 . S
C868 H838 0.950 . S
C868 C867 1.524 . S
C868 C869 1.415 . S
C869 H839 0.950 . S
C869 C864 1.363 . S
C869 C868 1.415 . S
H870 C867 0.999 . S
H871 C852 0.913 . S
H872 C890 0.961 . S
H873 C892 0.951 . S
H874 C894 0.950 . S
H875 C895 0.950 . S
H876 C897 0.950 . S
H877 C900 0.950 . S
H878 C901 0.950 . S
H879 C903 0.950 1_556 S
H880 C904 0.950 . S
H881 C905 0.951 . S
H882 C907 0.951 . S
H883 C909 0.950 . S
H884 C910 0.950 . S
H885 C912 0.950 . S
H886 C915 0.950 . S
H887 C916 0.950 . S
H888 C918 0.950 . S
H889 C919 0.950 . S
C890 H872 0.961 . S
C890 C891 1.349 1_556 S
C890 C892 1.395 . S
C891 C890 1.349 1_554 S
C891 C895 1.385 . S
C892 H873 0.951 . S
C892 C890 1.395 . S
C892 C893 1.366 1_556 S
C893 C892 1.366 1_554 S
C893 C894 1.414 . S
C893 C896 1.499 1_554 S
C894 H874 0.950 . S
C894 C893 1.414 . S
C894 C895 1.374 . S
C895 H875 0.950 . S
C895 C891 1.385 . S
C895 C894 1.374 . S
C896 C893 1.499 1_556 S
C896 C897 1.373 . S
C896 C898 1.389 . S
C897 H876 0.950 . S
C897 C896 1.373 . S
C897 C913 1.377 . S
C898 C896 1.389 . S
C898 C899 1.524 1_556 S
C898 C912 1.377 . S
C899 C898 1.524 1_554 S
C899 C900 1.397 . S
C899 C904 1.363 1_554 S
C900 H877 0.950 . S
C900 C899 1.397 . S
C900 C901 1.334 . S
C901 H878 0.950 . S
C901 C900 1.334 . S
C901 C902 1.287 . S
C902 C901 1.287 . S
C902 C903 1.524 . S
C902 H921 0.913 . S
C903 H879 0.950 1_554 S
C903 C902 1.524 . S
C903 C904 1.415 1_554 S
C904 H880 0.950 . S
C904 C899 1.363 1_556 S
C904 C903 1.415 1_556 S
C905 H881 0.951 . S
C905 C906 1.366 . S
C905 C907 1.388 . S
C906 C905 1.366 . S
C906 C910 1.385 . S
C907 H882 0.951 . S
C907 C905 1.388 . S
C907 C908 1.366 . S
C908 C907 1.366 . S
C908 C909 1.414 . S
C908 C911 1.499 . S
C909 H883 0.950 . S
C909 C908 1.414 . S
C909 C910 1.374 . S
C910 H884 0.950 . S
C910 C906 1.385 . S
C910 C909 1.374 . S
C911 C908 1.499 . S
C911 C912 1.373 . S
C911 C913 1.389 . S
C912 H885 0.950 . S
C912 C898 1.377 . S
C912 C911 1.373 . S
C913 C897 1.377 . S
C913 C911 1.389 . S
C913 C914 1.524 . S
C914 C913 1.524 . S
C914 C915 1.397 . S
C914 C919 1.363 . S
C915 H886 0.950 . S
C915 C914 1.397 . S
C915 C916 1.334 . S
C916 H887 0.950 . S
C916 C915 1.334 . S
C916 C917 1.287 . S
C917 C916 1.287 . S
C917 C918 1.524 . S
C917 H920 0.999 . S
C918 H888 0.950 . S
C918 C917 1.524 . S
C918 C919 1.415 . S
C919 H889 0.950 . S
C919 C914 1.363 . S
C919 C918 1.415 . S
H920 C917 0.999 . S
H921 C902 0.913 . S
H922 C940 0.951 . S
H923 C942 0.951 . S
H924 C944 0.950 . S
H925 C945 0.950 . S
H926 C947 0.950 . S
H927 C950 0.950 . S
H928 C951 0.950 . S
H929 C953 0.950 . S
H930 C954 0.950 . S
H931 C955 0.951 . S
H932 C957 0.951 . S
H933 C959 0.950 1_556 S
H934 C960 0.950 . S
H935 C962 0.950 . S
H936 C965 0.950 1_556 S
H937 C966 0.950 1_556 S
H938 C968 0.950 . S
H939 C969 0.950 . S
C940 H922 0.951 . S
C940 C941 1.366 . S
C940 C942 1.388 . S
C941 C940 1.366 . S
C941 C945 1.385 1_556 S
C942 H923 0.951 . S
C942 C940 1.388 . S
C942 C943 1.366 . S
C943 C942 1.366 . S
C943 C944 1.414 1_556 S
C943 C946 1.499 1_556 S
C944 H924 0.950 . S
C944 C943 1.414 1_554 S
C944 C945 1.374 . S
C945 H925 0.950 . S
C945 C941 1.385 1_554 S
C945 C944 1.374 . S
C946 C943 1.499 1_554 S
C946 C947 1.373 . S
C946 C948 1.389 . S
C947 H926 0.950 . S
C947 C946 1.373 . S
C947 C963 1.377 . S
C948 C946 1.389 . S
C948 C949 1.524 . S
C948 C962 1.377 . S
C949 C948 1.524 . S
C949 C950 1.397 . S
C949 C954 1.363 1_554 S
C950 H927 0.950 . S
C950 C949 1.397 . S
C950 C951 1.334 . S
C951 H928 0.950 . S
C951 C950 1.334 . S
C951 C952 1.287 . S
C952 C951 1.287 . S
C952 C953 1.524 1_554 S
C952 H971 0.913 . S
C953 H929 0.950 . S
C953 C952 1.524 1_556 S
C953 C954 1.415 . S
C954 H930 0.950 . S
C954 C949 1.363 1_556 S
C954 C953 1.415 . S
C955 H931 0.951 . S
C955 C956 1.366 . S
C955 C957 1.388 . S
C956 C955 1.366 . S
C956 C960 1.385 . S
C957 H932 0.951 . S
C957 C955 1.388 . S
C957 C958 1.366 . S
C958 C957 1.366 . S
C958 C959 1.414 . S
C958 C961 1.499 . S
C959 H933 0.950 1_554 S
C959 C958 1.414 . S
C959 C960 1.374 . S
C960 H934 0.950 . S
C960 C956 1.385 . S
C960 C959 1.374 . S
C961 C958 1.499 . S
C961 C962 1.373 . S
C961 C963 1.389 . S
C962 H935 0.950 . S
C962 C948 1.377 . S
C962 C961 1.373 . S
C963 C947 1.377 . S
C963 C961 1.389 . S
C963 C964 1.524 . S
C964 C963 1.524 . S
C964 C965 1.397 . S
C964 C969 1.363 . S
C965 H936 0.950 1_554 S
C965 C964 1.397 . S
C965 C966 1.334 . S
C966 H937 0.950 1_554 S
C966 C965 1.334 . S
C966 C967 1.287 . S
C967 C966 1.287 . S
C967 C968 1.524 . S
C967 H970 0.999 . S
C968 H938 0.950 . S
C968 C967 1.524 . S
C968 C969 1.415 . S
C969 H939 0.950 . S
C969 C964 1.363 . S
C969 C968 1.415 . S
H970 C967 0.999 . S
H971 C952 0.913 . S
H972 C990 0.951 . S
H973 C992 0.951 . S
H974 C994 0.950 . S
H975 C995 0.950 . S
H976 C997 0.950 . S
H977 C1000 0.950 . S
H978 C1001 0.950 . S
H979 C1003 0.950 . S
H980 C1004 0.950 . S
H981 C1005 0.951 . S
H982 C1007 0.951 . S
H983 C1009 0.950 . S
H984 C1010 0.950 . S
H985 C1012 0.950 . S
H986 C1015 0.950 . S
H987 C1016 0.950 . S
H988 C1018 0.950 . S
H989 C1019 0.950 . S
C990 H972 0.951 . S
C990 C991 1.366 . S
C990 C992 1.388 1_554 S
C991 C990 1.366 . S
C991 C995 1.385 . S
C992 H973 0.951 . S
C992 C990 1.388 1_556 S
C992 C993 1.366 1_556 S
C993 C992 1.366 1_554 S
C993 C994 1.414 . S
C993 C996 1.499 1_554 S
C994 H974 0.950 . S
C994 C993 1.414 . S
C994 C995 1.374 . S
C995 H975 0.950 . S
C995 C991 1.385 . S
C995 C994 1.374 . S
C996 C993 1.499 1_556 S
C996 C997 1.373 1_556 S
C996 C998 1.389 . S
C997 H976 0.950 . S
C997 C996 1.373 1_554 S
C997 C1013 1.377 . S
C998 C996 1.389 . S
C998 C999 1.524 . S
C998 C1012 1.377 . S
C999 C998 1.524 . S
C999 C1000 1.397 . S
C999 C1004 1.363 . S
C1000 H977 0.950 . S
C1000 C999 1.397 . S
C1000 C1001 1.334 . S
C1001 H978 0.950 . S
C1001 C1000 1.334 . S
C1001 C1002 1.287 . S
C1002 C1001 1.287 . S
C1002 C1003 1.524 . S
C1002 H1021 0.913 . S
C1003 H979 0.950 . S
C1003 C1002 1.524 . S
C1003 C1004 1.415 . S
C1004 H980 0.950 . S
C1004 C999 1.363 . S
C1004 C1003 1.415 . S
C1005 H981 0.951 . S
C1005 C1006 1.366 . S
C1005 C1007 1.388 . S
C1006 C1005 1.366 . S
C1006 C1010 1.385 . S
C1007 H982 0.951 . S
C1007 C1005 1.388 . S
C1007 C1008 1.366 . S
C1008 C1007 1.366 . S
C1008 C1009 1.414 . S
C1008 C1011 1.499 . S
C1009 H983 0.950 . S
C1009 C1008 1.414 . S
C1009 C1010 1.374 . S
C1010 H984 0.950 . S
C1010 C1006 1.385 . S
C1010 C1009 1.374 . S
C1011 C1008 1.499 . S
C1011 C1012 1.373 . S
C1011 C1013 1.389 1_556 S
C1012 H985 0.950 . S
C1012 C998 1.377 . S
C1012 C1011 1.373 . S
C1013 C997 1.377 . S
C1013 C1011 1.389 1_554 S
C1013 C1014 1.524 . S
C1014 C1013 1.524 . S
C1014 C1015 1.397 . S
C1014 C1019 1.363 . S
C1015 H986 0.950 . S
C1015 C1014 1.397 . S
C1015 C1016 1.334 . S
C1016 H987 0.950 . S
C1016 C1015 1.334 . S
C1016 C1017 1.287 . S
C1017 C1016 1.287 . S
C1017 C1018 1.524 . S
C1017 H1020 0.999 . S
C1018 H988 0.950 . S
C1018 C1017 1.524 . S
C1018 C1019 1.415 . S
C1019 H989 0.950 . S
C1019 C1014 1.363 . S
C1019 C1018 1.415 . S
H1020 C1017 0.999 . S
H1021 C1002 0.913 . S
H1022 C1040 0.951 . S
H1023 C1042 0.951 . S
H1024 C1044 0.950 . S
H1025 C1045 0.950 . S
H1026 C1047 0.963 . S
H1027 C1050 0.950 . S
H1028 C1051 0.950 . S
H1029 C1053 0.950 . S
H1030 C1054 0.950 . S
H1031 C1055 0.951 . S
H1032 C1057 0.951 . S
H1033 C1059 0.950 1_554 S
H1034 C1060 0.950 . S
H1035 C1062 0.950 . S
H1036 C1065 0.950 . S
H1037 C1066 0.950 . S
H1038 C1068 0.950 . S
H1039 C1069 0.950 . S
C1040 H1022 0.951 . S
C1040 C1041 1.366 . S
C1040 C1042 1.388 . S
C1041 C1040 1.366 . S
C1041 C1045 1.385 . S
C1042 H1023 0.951 . S
C1042 C1040 1.388 . S
C1042 C1043 1.366 . S
C1043 C1042 1.366 . S
C1043 C1044 1.414 . S
C1043 C1046 1.499 . S
C1044 H1024 0.950 . S
C1044 C1043 1.414 . S
C1044 C1045 1.374 . S
C1045 H1025 0.950 . S
C1045 C1041 1.385 . S
C1045 C1044 1.374 . S
C1046 C1043 1.499 . S
C1046 C1047 1.353 1_554 S
C1046 C1048 1.389 . S
C1047 H1026 0.963 . S
C1047 C1046 1.353 1_556 S
C1047 C1063 1.384 . S
C1048 C1046 1.389 . S
C1048 C1049 1.524 . S
C1048 C1062 1.377 . S
C1049 C1048 1.524 . S
C1049 C1050 1.397 . S
C1049 C1054 1.363 . S
C1050 H1027 0.950 . S
C1050 C1049 1.397 . S
C1050 C1051 1.334 . S
C1051 H1028 0.950 . S
C1051 C1050 1.334 . S
C1051 C1052 1.287 . S
C1052 C1051 1.287 . S
C1052 C1053 1.524 . S
C1052 H1071 0.913 . S
C1053 H1029 0.950 . S
C1053 C1052 1.524 . S
C1053 C1054 1.415 . S
C1054 H1030 0.950 . S
C1054 C1049 1.363 . S
C1054 C1053 1.415 . S
C1055 H1031 0.951 . S
C1055 C1056 1.366 . S
C1055 C1057 1.388 . S
C1056 C1055 1.366 . S
C1056 C1060 1.385 . S
C1057 H1032 0.951 . S
C1057 C1055 1.388 . S
C1057 C1058 1.366 . S
C1058 C1057 1.366 . S
C1058 C1059 1.414 . S
C1058 C1061 1.499 1_556 S
C1059 H1033 0.950 1_556 S
C1059 C1058 1.414 . S
C1059 C1060 1.374 . S
C1060 H1034 0.950 . S
C1060 C1056 1.385 . S
C1060 C1059 1.374 . S
C1061 C1058 1.499 1_554 S
C1061 C1062 1.373 . S
C1061 C1063 1.389 1_554 S
C1062 H1035 0.950 . S
C1062 C1048 1.377 . S
C1062 C1061 1.373 . S
C1063 C1047 1.384 . S
C1063 C1061 1.389 1_556 S
C1063 C1064 1.524 . S
C1064 C1063 1.524 . S
C1064 C1065 1.397 . S
C1064 C1069 1.363 . S
C1065 H1036 0.950 . S
C1065 C1064 1.397 . S
C1065 C1066 1.334 . S
C1066 H1037 0.950 . S
C1066 C1065 1.334 . S
C1066 C1067 1.287 . S
C1067 C1066 1.287 . S
C1067 C1068 1.524 . S
C1067 H1070 0.999 . S
C1068 H1038 0.950 . S
C1068 C1067 1.524 . S
C1068 C1069 1.415 . S
C1069 H1039 0.950 . S
C1069 C1064 1.363 . S
C1069 C1068 1.415 . S
H1070 C1067 0.999 . S
H1071 C1052 0.913 . S
H1072 C1090 0.951 . S
H1073 C1092 0.951 . S
H1074 C1094 0.950 . S
H1075 C1095 0.950 . S
H1076 C1097 0.950 . S
H1077 C1100 0.950 . S
H1078 C1101 0.950 . S
H1079 C1103 0.950 . S
H1080 C1104 0.950 . S
H1081 C1105 0.951 . S
H1082 C1107 0.951 . S
H1083 C1109 0.950 . S
H1084 C1110 0.950 . S
H1085 C1112 0.950 . S
H1086 C1115 0.950 . S
H1087 C1116 0.950 . S
H1088 C1118 0.950 . S
H1089 C1119 0.950 . S
C1090 H1072 0.951 . S
C1090 C1091 1.366 . S
C1090 C1092 1.388 . S
C1091 C1090 1.366 . S
C1091 C1095 1.385 . S
C1092 H1073 0.951 . S
C1092 C1090 1.388 . S
C1092 C1093 1.366 . S
C1093 C1092 1.366 . S
C1093 C1094 1.414 . S
C1093 C1096 1.499 . S
C1094 H1074 0.950 . S
C1094 C1093 1.414 . S
C1094 C1095 1.374 . S
C1095 H1075 0.950 . S
C1095 C1091 1.385 . S
C1095 C1094 1.374 . S
C1096 C1093 1.499 . S
C1096 C1097 1.373 . S
C1096 C1098 1.389 . S
C1097 H1076 0.950 . S
C1097 C1096 1.373 . S
C1097 C1113 1.377 . S
C1098 C1096 1.389 . S
C1098 C1099 1.524 . S
C1098 C1112 1.377 . S
C1099 C1098 1.524 . S
C1099 C1100 1.397 . S
C1099 C1104 1.363 . S
C1100 H1077 0.950 . S
C1100 C1099 1.397 . S
C1100 C1101 1.334 . S
C1101 H1078 0.950 . S
C1101 C1100 1.334 . S
C1101 C1102 1.287 . S
C1102 C1101 1.287 . S
C1102 C1103 1.524 . S
C1102 H1121 0.913 . S
C1103 H1079 0.950 . S
C1103 C1102 1.524 . S
C1103 C1104 1.415 . S
C1104 H1080 0.950 . S
C1104 C1099 1.363 . S
C1104 C1103 1.415 . S
C1105 H1081 0.951 . S
C1105 C1106 1.366 . S
C1105 C1107 1.388 . S
C1106 C1105 1.366 . S
C1106 C1110 1.385 . S
C1107 H1082 0.951 . S
C1107 C1105 1.388 . S
C1107 C1108 1.366 . S
C1108 C1107 1.366 . S
C1108 C1109 1.414 . S
C1108 C1111 1.499 . S
C1109 H1083 0.950 . S
C1109 C1108 1.414 . S
C1109 C1110 1.374 . S
C1110 H1084 0.950 . S
C1110 C1106 1.385 . S
C1110 C1109 1.374 . S
C1111 C1108 1.499 . S
C1111 C1112 1.373 . S
C1111 C1113 1.389 . S
C1112 H1085 0.950 . S
C1112 C1098 1.377 . S
C1112 C1111 1.373 . S
C1113 C1097 1.377 . S
C1113 C1111 1.389 . S
C1113 C1114 1.524 . S
C1114 C1113 1.524 . S
C1114 C1115 1.397 . S
C1114 C1119 1.363 . S
C1115 H1086 0.950 . S
C1115 C1114 1.397 . S
C1115 C1116 1.334 . S
C1116 H1087 0.950 . S
C1116 C1115 1.334 . S
C1116 C1117 1.287 . S
C1117 C1116 1.287 . S
C1117 C1118 1.524 . S
C1117 H1120 0.999 . S
C1118 H1088 0.950 . S
C1118 C1117 1.524 . S
C1118 C1119 1.415 . S
C1119 H1089 0.950 . S
C1119 C1114 1.363 . S
C1119 C1118 1.415 . S
H1120 C1117 0.999 . S
H1121 C1102 0.913 . S
H1122 C1140 0.951 . S
H1123 C1142 0.951 . S
H1124 C1144 0.950 . S
H1125 C1145 0.950 . S
H1126 C1147 0.950 . S
H1127 C1150 0.950 . S
H1128 C1151 0.950 . S
H1129 C1153 0.950 . S
H1130 C1154 0.950 . S
H1131 C1155 0.951 . S
H1132 C1157 0.951 . S
H1133 C1159 0.950 . S
H1134 C1160 0.950 . S
H1135 C1162 0.950 . S
H1136 C1165 0.950 . S
H1137 C1166 0.950 . S
H1138 C1168 0.950 . S
H1139 C1169 0.950 . S
C1140 H1122 0.951 . S
C1140 C1141 1.366 . S
C1140 C1142 1.388 . S
C1141 C1140 1.366 . S
C1141 C1145 1.385 . S
C1142 H1123 0.951 . S
C1142 C1140 1.388 . S
C1142 C1143 1.366 . S
C1143 C1142 1.366 . S
C1143 C1144 1.414 . S
C1143 C1146 1.499 . S
C1144 H1124 0.950 . S
C1144 C1143 1.414 . S
C1144 C1145 1.374 . S
C1145 H1125 0.950 . S
C1145 C1141 1.385 . S
C1145 C1144 1.374 . S
C1146 C1143 1.499 . S
C1146 C1147 1.373 . S
C1146 C1148 1.389 . S
C1147 H1126 0.950 . S
C1147 C1146 1.373 . S
C1147 C1163 1.377 . S
C1148 C1146 1.389 . S
C1148 C1149 1.524 . S
C1148 C1162 1.377 . S
C1149 C1148 1.524 . S
C1149 C1150 1.397 . S
C1149 C1154 1.363 . S
C1150 H1127 0.950 . S
C1150 C1149 1.397 . S
C1150 C1151 1.334 . S
C1151 H1128 0.950 . S
C1151 C1150 1.334 . S
C1151 C1152 1.287 . S
C1152 C1151 1.287 . S
C1152 C1153 1.524 . S
C1152 H1171 0.913 . S
C1153 H1129 0.950 . S
C1153 C1152 1.524 . S
C1153 C1154 1.415 . S
C1154 H1130 0.950 . S
C1154 C1149 1.363 . S
C1154 C1153 1.415 . S
C1155 H1131 0.951 . S
C1155 C1156 1.366 . S
C1155 C1157 1.388 . S
C1156 C1155 1.366 . S
C1156 C1160 1.385 . S
C1157 H1132 0.951 . S
C1157 C1155 1.388 . S
C1157 C1158 1.366 . S
C1158 C1157 1.366 . S
C1158 C1159 1.414 . S
C1158 C1161 1.499 . S
C1159 H1133 0.950 . S
C1159 C1158 1.414 . S
C1159 C1160 1.374 . S
C1160 H1134 0.950 . S
C1160 C1156 1.385 . S
C1160 C1159 1.374 . S
C1161 C1158 1.499 . S
C1161 C1162 1.373 . S
C1161 C1163 1.389 . S
C1162 H1135 0.950 . S
C1162 C1148 1.377 . S
C1162 C1161 1.373 . S
C1163 C1147 1.377 . S
C1163 C1161 1.389 . S
C1163 C1164 1.524 . S
C1164 C1163 1.524 . S
C1164 C1165 1.397 . S
C1164 C1169 1.363 . S
C1165 H1136 0.950 . S
C1165 C1164 1.397 . S
C1165 C1166 1.334 . S
C1166 H1137 0.950 . S
C1166 C1165 1.334 . S
C1166 C1167 1.287 . S
C1167 C1166 1.287 . S
C1167 C1168 1.524 . S
C1167 H1170 0.999 . S
C1168 H1138 0.950 . S
C1168 C1167 1.524 . S
C1168 C1169 1.415 . S
C1169 H1139 0.950 . S
C1169 C1164 1.363 . S
C1169 C1168 1.415 . S
H1170 C1167 0.999 . S
H1171 C1152 0.913 . S
H1172 C1190 0.951 . S
H1173 C1192 0.951 . S
H1174 C1194 0.950 . S
H1175 C1195 0.950 . S
H1176 C1197 0.950 . S
H1177 C1200 0.950 . S
H1178 C1201 0.950 . S
H1179 C1203 0.950 . S
H1180 C1204 0.950 . S
H1181 C1205 0.951 . S
H1182 C1207 0.951 . S
H1183 C1209 0.950 . S
H1184 C1210 0.950 . S
H1185 C1212 0.950 . S
H1186 C1215 0.950 . S
H1187 C1216 0.950 . S
H1188 C1218 0.950 . S
H1189 C1219 0.950 . S
C1190 H1172 0.951 . S
C1190 C1191 1.366 . S
C1190 C1192 1.388 . S
C1191 C1190 1.366 . S
C1191 C1195 1.385 . S
C1192 H1173 0.951 . S
C1192 C1190 1.388 . S
C1192 C1193 1.366 . S
C1193 C1192 1.366 . S
C1193 C1194 1.414 . S
C1193 C1196 1.499 . S
C1194 H1174 0.950 . S
C1194 C1193 1.414 . S
C1194 C1195 1.374 . S
C1195 H1175 0.950 . S
C1195 C1191 1.385 . S
C1195 C1194 1.374 . S
C1196 C1193 1.499 . S
C1196 C1197 1.373 . S
C1196 C1198 1.389 . S
C1197 H1176 0.950 . S
C1197 C1196 1.373 . S
C1197 C1213 1.377 . S
C1198 C1196 1.389 . S
C1198 C1199 1.524 . S
C1198 C1212 1.377 . S
C1199 C1198 1.524 . S
C1199 C1200 1.397 . S
C1199 C1204 1.363 . S
C1200 H1177 0.950 . S
C1200 C1199 1.397 . S
C1200 C1201 1.334 . S
C1201 H1178 0.950 . S
C1201 C1200 1.334 . S
C1201 C1202 1.287 . S
C1202 C1201 1.287 . S
C1202 C1203 1.524 . S
C1202 H1221 0.913 . S
C1203 H1179 0.950 . S
C1203 C1202 1.524 . S
C1203 C1204 1.415 . S
C1204 H1180 0.950 . S
C1204 C1199 1.363 . S
C1204 C1203 1.415 . S
C1205 H1181 0.951 . S
C1205 C1206 1.366 . S
C1205 C1207 1.388 . S
C1206 C1205 1.366 . S
C1206 C1210 1.385 . S
C1207 H1182 0.951 . S
C1207 C1205 1.388 . S
C1207 C1208 1.366 . S
C1208 C1207 1.366 . S
C1208 C1209 1.414 . S
C1208 C1211 1.499 . S
C1209 H1183 0.950 . S
C1209 C1208 1.414 . S
C1209 C1210 1.374 . S
C1210 H1184 0.950 . S
C1210 C1206 1.385 . S
C1210 C1209 1.374 . S
C1211 C1208 1.499 . S
C1211 C1212 1.373 . S
C1211 C1213 1.389 . S
C1212 H1185 0.950 . S
C1212 C1198 1.377 . S
C1212 C1211 1.373 . S
C1213 C1197 1.377 . S
C1213 C1211 1.389 . S
C1213 C1214 1.524 . S
C1214 C1213 1.524 . S
C1214 C1215 1.397 . S
C1214 C1219 1.363 . S
C1215 H1186 0.950 . S
C1215 C1214 1.397 . S
C1215 C1216 1.334 . S
C1216 H1187 0.950 . S
C1216 C1215 1.334 . S
C1216 C1217 1.287 . S
C1217 C1216 1.287 . S
C1217 C1218 1.524 . S
C1217 H1220 0.999 . S
C1218 H1188 0.950 . S
C1218 C1217 1.524 . S
C1218 C1219 1.415 . S
C1219 H1189 0.950 . S
C1219 C1214 1.363 . S
C1219 C1218 1.415 . S
H1220 C1217 0.999 . S
H1221 C1202 0.913 . S
H1222 C1240 0.951 . S
H1223 C1242 0.951 . S
H1224 C1244 0.950 . S
H1225 C1245 0.950 . S
H1226 C1247 0.950 . S
H1227 C1250 0.950 . S
H1228 C1251 0.950 . S
H1229 C1253 0.950 . S
H1230 C1254 0.950 . S
H1231 C1255 0.951 . S
H1232 C1257 0.951 . S
H1233 C1259 0.950 . S
H1234 C1260 0.950 . S
H1235 C1262 0.950 . S
H1236 C1265 0.950 . S
H1237 C1266 0.950 . S
H1238 C1268 0.950 . S
H1239 C1269 0.950 . S
C1240 H1222 0.951 . S
C1240 C1241 1.366 . S
C1240 C1242 1.388 . S
C1241 C1240 1.366 . S
C1241 C1245 1.385 . S
C1242 H1223 0.951 . S
C1242 C1240 1.388 . S
C1242 C1243 1.366 . S
C1243 C1242 1.366 . S
C1243 C1244 1.414 . S
C1243 C1246 1.499 . S
C1244 H1224 0.950 . S
C1244 C1243 1.414 . S
C1244 C1245 1.374 . S
C1245 H1225 0.950 . S
C1245 C1241 1.385 . S
C1245 C1244 1.374 . S
C1246 C1243 1.499 . S
C1246 C1247 1.373 . S
C1246 C1248 1.389 . S
C1247 H1226 0.950 . S
C1247 C1246 1.373 . S
C1247 C1263 1.377 . S
C1248 C1246 1.389 . S
C1248 C1249 1.524 . S
C1248 C1262 1.377 . S
C1249 C1248 1.524 . S
C1249 C1250 1.397 . S
C1249 C1254 1.363 . S
C1250 H1227 0.950 . S
C1250 C1249 1.397 . S
C1250 C1251 1.334 . S
C1251 H1228 0.950 . S
C1251 C1250 1.334 . S
C1251 C1252 1.287 . S
C1252 C1251 1.287 . S
C1252 C1253 1.524 . S
C1252 H1271 0.913 . S
C1253 H1229 0.950 . S
C1253 C1252 1.524 . S
C1253 C1254 1.415 . S
C1254 H1230 0.950 . S
C1254 C1249 1.363 . S
C1254 C1253 1.415 . S
C1255 H1231 0.951 . S
C1255 C1256 1.366 . S
C1255 C1257 1.388 . S
C1256 C1255 1.366 . S
C1256 C1260 1.385 . S
C1257 H1232 0.951 . S
C1257 C1255 1.388 . S
C1257 C1258 1.366 . S
C1258 C1257 1.366 . S
C1258 C1259 1.414 . S
C1258 C1261 1.499 . S
C1259 H1233 0.950 . S
C1259 C1258 1.414 . S
C1259 C1260 1.374 . S
C1260 H1234 0.950 . S
C1260 C1256 1.385 . S
C1260 C1259 1.374 . S
C1261 C1258 1.499 . S
C1261 C1262 1.373 . S
C1261 C1263 1.389 . S
C1262 H1235 0.950 . S
C1262 C1248 1.377 . S
C1262 C1261 1.373 . S
C1263 C1247 1.377 . S
C1263 C1261 1.389 . S
C1263 C1264 1.524 . S
C1264 C1263 1.524 . S
C1264 C1265 1.397 . S
C1264 C1269 1.363 . S
C1265 H1236 0.950 . S
C1265 C1264 1.397 . S
C1265 C1266 1.334 . S
C1266 H1237 0.950 . S
C1266 C1265 1.334 . S
C1266 C1267 1.287 . S
C1267 C1266 1.287 . S
C1267 C1268 1.524 . S
C1267 H1270 0.999 . S
C1268 H1238 0.950 . S
C1268 C1267 1.524 . S
C1268 C1269 1.415 . S
C1269 H1239 0.950 . S
C1269 C1264 1.363 . S
C1269 C1268 1.415 . S
H1270 C1267 0.999 . S
H1271 C1252 0.913 . S
H1272 C1290 0.951 . S
H1273 C1292 0.951 . S
H1274 C1294 0.950 . S
H1275 C1295 0.950 . S
H1276 C1297 0.950 . S
H1277 C1300 0.950 . S
H1278 C1301 0.950 . S
H1279 C1303 0.950 . S
H1280 C1304 0.950 . S
H1281 C1305 0.951 . S
H1282 C1307 0.951 . S
H1283 C1309 0.950 . S
H1284 C1310 0.950 . S
H1285 C1312 0.950 . S
H1286 C1315 0.950 . S
H1287 C1316 0.950 . S
H1288 C1318 0.950 . S
H1289 C1319 0.950 . S
C1290 H1272 0.951 . S
C1290 C1291 1.366 . S
C1290 C1292 1.388 . S
C1291 C1290 1.366 . S
C1291 C1295 1.385 . S
C1292 H1273 0.951 . S
C1292 C1290 1.388 . S
C1292 C1293 1.366 . S
C1293 C1292 1.366 . S
C1293 C1294 1.414 . S
C1293 C1296 1.499 . S
C1294 H1274 0.950 . S
C1294 C1293 1.414 . S
C1294 C1295 1.374 . S
C1295 H1275 0.950 . S
C1295 C1291 1.385 . S
C1295 C1294 1.374 . S
C1296 C1293 1.499 . S
C1296 C1297 1.373 . S
C1296 C1298 1.389 . S
C1297 H1276 0.950 . S
C1297 C1296 1.373 . S
C1297 C1313 1.377 1_545 S
C1298 C1296 1.389 . S
C1298 C1299 1.524 . S
C1298 C1312 1.377 1_545 S
C1299 C1298 1.524 . S
C1299 C1300 1.397 . S
C1299 C1304 1.363 . S
C1300 H1277 0.950 . S
C1300 C1299 1.397 . S
C1300 C1301 1.334 . S
C1301 H1278 0.950 . S
C1301 C1300 1.334 . S
C1301 C1302 1.287 . S
C1302 C1301 1.287 . S
C1302 C1303 1.524 . S
C1302 H1321 0.913 . S
C1303 H1279 0.950 . S
C1303 C1302 1.524 . S
C1303 C1304 1.415 . S
C1304 H1280 0.950 . S
C1304 C1299 1.363 . S
C1304 C1303 1.415 . S
C1305 H1281 0.951 . S
C1305 C1306 1.366 . S
C1305 C1307 1.388 . S
C1306 C1305 1.366 . S
C1306 C1310 1.385 . S
C1307 H1282 0.951 . S
C1307 C1305 1.388 . S
C1307 C1308 1.366 . S
C1308 C1307 1.366 . S
C1308 C1309 1.414 . S
C1308 C1311 1.499 . S
C1309 H1283 0.950 . S
C1309 C1308 1.414 . S
C1309 C1310 1.374 . S
C1310 H1284 0.950 . S
C1310 C1306 1.385 . S
C1310 C1309 1.374 . S
C1311 C1308 1.499 . S
C1311 C1312 1.373 . S
C1311 C1313 1.389 . S
C1312 H1285 0.950 . S
C1312 C1298 1.377 1_565 S
C1312 C1311 1.373 . S
C1313 C1297 1.377 1_565 S
C1313 C1311 1.389 . S
C1313 C1314 1.524 . S
C1314 C1313 1.524 . S
C1314 C1315 1.397 . S
C1314 C1319 1.363 . S
C1315 H1286 0.950 . S
C1315 C1314 1.397 . S
C1315 C1316 1.334 . S
C1316 H1287 0.950 . S
C1316 C1315 1.334 . S
C1316 C1317 1.287 . S
C1317 C1316 1.287 . S
C1317 C1318 1.524 . S
C1317 H1320 0.999 . S
C1318 H1288 0.950 . S
C1318 C1317 1.524 . S
C1318 C1319 1.415 . S
C1319 H1289 0.950 . S
C1319 C1314 1.363 . S
C1319 C1318 1.415 . S
H1320 C1317 0.999 . S
H1321 C1302 0.913 . S
H1322 C1340 0.951 . S
H1323 C1342 0.951 . S
H1324 C1344 0.950 . S
H1325 C1345 0.950 . S
H1326 C1347 0.950 . S
H1327 C1350 0.950 . S
H1328 C1351 0.950 . S
H1329 C1353 0.950 . S
H1330 C1354 0.950 . S
H1331 C1355 0.951 . S
H1332 C1357 0.951 . S
H1333 C1359 0.950 . S
H1334 C1360 0.950 . S
H1335 C1362 0.950 . S
H1336 C1365 0.950 . S
H1337 C1366 0.950 . S
H1338 C1368 0.950 . S
H1339 C1369 0.950 . S
C1340 H1322 0.951 . S
C1340 C1341 1.366 . S
C1340 C1342 1.388 . S
C1341 C1340 1.366 . S
C1341 C1345 1.385 . S
C1342 H1323 0.951 . S
C1342 C1340 1.388 . S
C1342 C1343 1.366 . S
C1343 C1342 1.366 . S
C1343 C1344 1.414 . S
C1343 C1346 1.499 . S
C1344 H1324 0.950 . S
C1344 C1343 1.414 . S
C1344 C1345 1.374 . S
C1345 H1325 0.950 . S
C1345 C1341 1.385 . S
C1345 C1344 1.374 . S
C1346 C1343 1.499 . S
C1346 C1347 1.373 . S
C1346 C1348 1.389 . S
C1347 H1326 0.950 . S
C1347 C1346 1.373 . S
C1347 C1363 1.344 1_455 S
C1348 C1346 1.389 . S
C1348 C1349 1.525 . S
C1348 C1362 1.377 1_455 S
C1349 C1348 1.525 . S
C1349 C1350 1.399 . S
C1349 C1354 1.359 1_455 S
C1350 H1327 0.950 . S
C1350 C1349 1.399 . S
C1350 C1351 1.334 . S
C1351 H1328 0.950 . S
C1351 C1350 1.334 . S
C1351 C1352 1.287 1_455 S
C1352 C1351 1.287 1_655 S
C1352 C1353 1.524 . S
C1352 H1371 0.913 . S
C1353 H1329 0.950 . S
C1353 C1352 1.524 . S
C1353 C1354 1.415 . S
C1354 H1330 0.950 . S
C1354 C1349 1.359 1_655 S
C1354 C1353 1.415 . S
C1355 H1331 0.951 . S
C1355 C1356 1.366 . S
C1355 C1357 1.388 . S
C1356 C1355 1.366 . S
C1356 C1360 1.385 . S
C1357 H1332 0.951 . S
C1357 C1355 1.388 . S
C1357 C1358 1.366 . S
C1358 C1357 1.366 . S
C1358 C1359 1.414 . S
C1358 C1361 1.499 . S
C1359 H1333 0.950 . S
C1359 C1358 1.414 . S
C1359 C1360 1.374 . S
C1360 H1334 0.950 . S
C1360 C1356 1.385 . S
C1360 C1359 1.374 . S
C1361 C1358 1.499 . S
C1361 C1362 1.373 . S
C1361 C1363 1.420 . S
C1362 H1335 0.950 . S
C1362 C1348 1.377 1_655 S
C1362 C1361 1.373 . S
C1363 C1347 1.344 1_655 S
C1363 C1361 1.420 . S
C1363 C1364 1.524 1_655 S
C1364 C1363 1.524 1_455 S
C1364 C1365 1.394 1_455 S
C1364 C1369 1.367 . S
C1365 H1336 0.950 . S
C1365 C1364 1.394 1_655 S
C1365 C1366 1.334 . S
C1366 H1337 0.950 . S
C1366 C1365 1.334 . S
C1366 C1367 1.287 1_655 S
C1367 C1366 1.287 1_455 S
C1367 C1368 1.524 . S
C1367 H1370 0.999 . S
C1368 H1338 0.950 . S
C1368 C1367 1.524 . S
C1368 C1369 1.415 . S
C1369 H1339 0.950 . S
C1369 C1364 1.367 . S
C1369 C1368 1.415 . S
H1370 C1367 0.999 . S
H1371 C1352 0.913 . S
H1372 C1390 0.951 . S
H1373 C1392 0.951 . S
H1374 C1394 0.950 . S
H1375 C1395 0.950 . S
H1376 C1397 0.950 . S
H1377 C1400 0.950 . S
H1378 C1401 0.950 . S
H1379 C1403 0.950 . S
H1380 C1404 0.950 . S
H1381 C1405 0.951 . S
H1382 C1407 0.951 . S
H1383 C1409 0.950 . S
H1384 C1410 0.950 . S
H1385 C1412 0.950 . S
H1386 C1415 0.950 . S
H1387 C1416 0.950 . S
H1388 C1418 0.950 . S
H1389 C1419 0.950 . S
C1390 H1372 0.951 . S
C1390 C1391 1.366 . S
C1390 C1392 1.388 . S
C1391 C1390 1.366 . S
C1391 C1395 1.385 . S
C1392 H1373 0.951 . S
C1392 C1390 1.388 . S
C1392 C1393 1.366 . S
C1393 C1392 1.366 . S
C1393 C1394 1.414 . S
C1393 C1396 1.499 . S
C1394 H1374 0.950 . S
C1394 C1393 1.414 . S
C1394 C1395 1.374 . S
C1395 H1375 0.950 . S
C1395 C1391 1.385 . S
C1395 C1394 1.374 . S
C1396 C1393 1.499 . S
C1396 C1397 1.373 . S
C1396 C1398 1.389 . S
C1397 H1376 0.950 . S
C1397 C1396 1.373 . S
C1397 C1413 1.377 1_565 S
C1398 C1396 1.389 . S
C1398 C1399 1.524 . S
C1398 C1412 1.377 1_565 S
C1399 C1398 1.524 . S
C1399 C1400 1.397 . S
C1399 C1404 1.363 . S
C1400 H1377 0.950 . S
C1400 C1399 1.397 . S
C1400 C1401 1.334 . S
C1401 H1378 0.950 . S
C1401 C1400 1.334 . S
C1401 C1402 1.287 . S
C1402 C1401 1.287 . S
C1402 C1403 1.524 . S
C1402 H1421 0.913 . S
C1403 H1379 0.950 . S
C1403 C1402 1.524 . S
C1403 C1404 1.415 . S
C1404 H1380 0.950 . S
C1404 C1399 1.363 . S
C1404 C1403 1.415 . S
C1405 H1381 0.951 . S
C1405 C1406 1.366 . S
C1405 C1407 1.388 . S
C1406 C1405 1.366 . S
C1406 C1410 1.385 . S
C1407 H1382 0.951 . S
C1407 C1405 1.388 . S
C1407 C1408 1.366 . S
C1408 C1407 1.366 . S
C1408 C1409 1.414 . S
C1408 C1411 1.499 . S
C1409 H1383 0.950 . S
C1409 C1408 1.414 . S
C1409 C1410 1.374 . S
C1410 H1384 0.950 . S
C1410 C1406 1.385 . S
C1410 C1409 1.374 . S
C1411 C1408 1.499 . S
C1411 C1412 1.373 . S
C1411 C1413 1.389 . S
C1412 H1385 0.950 . S
C1412 C1398 1.377 1_545 S
C1412 C1411 1.373 . S
C1413 C1397 1.377 1_545 S
C1413 C1411 1.389 . S
C1413 C1414 1.524 . S
C1414 C1413 1.524 . S
C1414 C1415 1.397 . S
C1414 C1419 1.363 . S
C1415 H1386 0.950 . S
C1415 C1414 1.397 . S
C1415 C1416 1.334 . S
C1416 H1387 0.950 . S
C1416 C1415 1.334 . S
C1416 C1417 1.287 . S
C1417 C1416 1.287 . S
C1417 C1418 1.524 . S
C1417 H1420 0.999 . S
C1418 H1388 0.950 . S
C1418 C1417 1.524 . S
C1418 C1419 1.415 . S
C1419 H1389 0.950 . S
C1419 C1414 1.363 . S
C1419 C1418 1.415 . S
H1420 C1417 0.999 . S
H1421 C1402 0.913 . S
H1422 C1440 0.951 . S
H1423 C1442 0.951 . S
H1424 C1444 0.950 . S
H1425 C1445 0.950 . S
H1426 C1447 0.950 . S
H1427 C1450 0.950 . S
H1428 C1451 0.950 . S
H1429 C1453 0.950 . S
H1430 C1454 0.950 . S
H1431 C1455 0.951 . S
H1432 C1457 0.951 . S
H1433 C1459 0.950 . S
H1434 C1460 0.950 . S
H1435 C1462 0.950 . S
H1436 C1465 0.950 . S
H1437 C1466 0.950 . S
H1438 C1468 0.950 . S
H1439 C1469 0.950 . S
C1440 H1422 0.951 . S
C1440 C1441 1.366 . S
C1440 C1442 1.388 . S
C1441 C1440 1.366 . S
C1441 C1445 1.385 . S
C1442 H1423 0.951 . S
C1442 C1440 1.388 . S
C1442 C1443 1.366 . S
C1443 C1442 1.366 . S
C1443 C1444 1.414 . S
C1443 C1446 1.499 . S
C1444 H1424 0.950 . S
C1444 C1443 1.414 . S
C1444 C1445 1.374 . S
C1445 H1425 0.950 . S
C1445 C1441 1.385 . S
C1445 C1444 1.374 . S
C1446 C1443 1.499 . S
C1446 C1447 1.373 . S
C1446 C1448 1.389 . S
C1447 H1426 0.950 . S
C1447 C1446 1.373 . S
C1447 C1463 1.377 1_455 S
C1448 C1446 1.389 . S
C1448 C1449 1.524 . S
C1448 C1462 1.377 1_455 S
C1449 C1448 1.524 . S
C1449 C1450 1.397 . S
C1449 C1454 1.363 1_455 S
C1450 H1427 0.950 . S
C1450 C1449 1.397 . S
C1450 C1451 1.334 . S
C1451 H1428 0.950 . S
C1451 C1450 1.334 . S
C1451 C1452 1.274 1_455 S
C1452 C1451 1.274 1_655 S
C1452 C1453 1.535 . S
C1452 H1471 0.913 . S
C1453 H1429 0.950 . S
C1453 C1452 1.535 . S
C1453 C1454 1.415 . S
C1454 H1430 0.950 . S
C1454 C1449 1.363 1_655 S
C1454 C1453 1.415 . S
C1455 H1431 0.951 . S
C1455 C1456 1.366 . S
C1455 C1457 1.388 . S
C1456 C1455 1.366 . S
C1456 C1460 1.385 . S
C1457 H1432 0.951 . S
C1457 C1455 1.388 . S
C1457 C1458 1.366 . S
C1458 C1457 1.366 . S
C1458 C1459 1.414 . S
C1458 C1461 1.499 . S
C1459 H1433 0.950 . S
C1459 C1458 1.414 . S
C1459 C1460 1.374 . S
C1460 H1434 0.950 . S
C1460 C1456 1.385 . S
C1460 C1459 1.374 . S
C1461 C1458 1.499 . S
C1461 C1462 1.373 . S
C1461 C1463 1.389 . S
C1462 H1435 0.950 . S
C1462 C1448 1.377 1_655 S
C1462 C1461 1.373 . S
C1463 C1447 1.377 1_655 S
C1463 C1461 1.389 . S
C1463 C1464 1.524 . S
C1464 C1463 1.524 . S
C1464 C1465 1.397 . S
C1464 C1469 1.363 1_655 S
C1465 H1436 0.950 . S
C1465 C1464 1.397 . S
C1465 C1466 1.334 . S
C1466 H1437 0.950 . S
C1466 C1465 1.334 . S
C1466 C1467 1.287 1_655 S
C1467 C1466 1.287 1_455 S
C1467 C1468 1.524 . S
C1467 H1470 0.999 . S
C1468 H1438 0.950 . S
C1468 C1467 1.524 . S
C1468 C1469 1.415 . S
C1469 H1439 0.950 . S
C1469 C1464 1.363 1_455 S
C1469 C1468 1.415 . S
H1470 C1467 0.999 . S
H1471 C1452 0.913 . S
H1472 C1490 0.951 . S
H1473 C1492 0.951 . S
H1474 C1494 0.950 . S
H1475 C1495 0.950 . S
H1476 C1497 0.950 . S
H1477 C1500 0.950 . S
H1478 C1501 0.950 . S
H1479 C1503 0.950 . S
H1480 C1504 0.950 . S
H1481 C1505 0.951 . S
H1482 C1507 0.951 . S
H1483 C1509 0.950 . S
H1484 C1510 0.950 . S
H1485 C1512 0.950 . S
H1486 C1515 0.950 . S
H1487 C1516 0.950 . S
H1488 C1518 0.950 . S
H1489 C1519 0.950 . S
C1490 H1472 0.951 . S
C1490 C1491 1.366 1_554 S
C1490 C1492 1.388 . S
C1491 C1490 1.366 1_556 S
C1491 C1495 1.385 . S
C1492 H1473 0.951 . S
C1492 C1490 1.388 . S
C1492 C1493 1.366 . S
C1493 C1492 1.366 . S
C1493 C1494 1.414 . S
C1493 C1496 1.499 . S
C1494 H1474 0.950 . S
C1494 C1493 1.414 . S
C1494 C1495 1.374 1_554 S
C1495 H1475 0.950 . S
C1495 C1491 1.385 . S
C1495 C1494 1.374 1_556 S
C1496 C1493 1.499 . S
C1496 C1497 1.373 . S
C1496 C1498 1.389 . S
C1497 H1476 0.950 . S
C1497 C1496 1.373 . S
C1497 C1513 1.377 . S
C1498 C1496 1.389 . S
C1498 C1499 1.524 . S
C1498 C1512 1.377 . S
C1499 C1498 1.524 . S
C1499 C1500 1.397 . S
C1499 C1504 1.363 . S
C1500 H1477 0.950 . S
C1500 C1499 1.397 . S
C1500 C1501 1.334 . S
C1501 H1478 0.950 . S
C1501 C1500 1.334 . S
C1501 C1502 1.287 . S
C1502 C1501 1.287 . S
C1502 C1503 1.524 . S
C1502 H1521 0.913 . S
C1503 H1479 0.950 . S
C1503 C1502 1.524 . S
C1503 C1504 1.415 . S
C1504 H1480 0.950 . S
C1504 C1499 1.363 . S
C1504 C1503 1.415 . S
C1505 H1481 0.951 . S
C1505 C1506 1.366 . S
C1505 C1507 1.388 . S
C1506 C1505 1.366 . S
C1506 C1510 1.385 . S
C1507 H1482 0.951 . S
C1507 C1505 1.388 . S
C1507 C1508 1.366 . S
C1508 C1507 1.366 . S
C1508 C1509 1.414 . S
C1508 C1511 1.499 . S
C1509 H1483 0.950 . S
C1509 C1508 1.414 . S
C1509 C1510 1.374 . S
C1510 H1484 0.950 . S
C1510 C1506 1.385 . S
C1510 C1509 1.374 . S
C1511 C1508 1.499 . S
C1511 C1512 1.373 . S
C1511 C1513 1.389 . S
C1512 H1485 0.950 . S
C1512 C1498 1.377 . S
C1512 C1511 1.373 . S
C1513 C1497 1.377 . S
C1513 C1511 1.389 . S
C1513 C1514 1.524 . S
C1514 C1513 1.524 . S
C1514 C1515 1.397 . S
C1514 C1519 1.363 . S
C1515 H1486 0.950 . S
C1515 C1514 1.397 . S
C1515 C1516 1.334 . S
C1516 H1487 0.950 . S
C1516 C1515 1.334 . S
C1516 C1517 1.287 . S
C1517 C1516 1.287 . S
C1517 C1518 1.524 . S
C1517 H1520 0.999 . S
C1518 H1488 0.950 . S
C1518 C1517 1.524 . S
C1518 C1519 1.415 . S
C1519 H1489 0.950 . S
C1519 C1514 1.363 . S
C1519 C1518 1.415 . S
H1520 C1517 0.999 . S
H1521 C1502 0.913 . S
H1522 C1540 0.947 1_554 S
H1523 C1542 0.951 . S
H1524 C1544 0.950 . S
H1525 C1545 0.950 . S
H1526 C1547 0.950 . S
H1527 C1550 0.950 . S
H1528 C1551 0.950 . S
H1529 C1553 0.950 . S
H1530 C1554 0.950 . S
H1531 C1555 0.951 . S
H1532 C1557 0.951 . S
H1533 C1559 0.950 . S
H1534 C1560 0.950 . S
H1535 C1562 0.950 . S
H1536 C1565 0.950 . S
H1537 C1566 0.950 . S
H1538 C1568 0.950 . S
H1539 C1569 0.950 . S
C1540 H1522 0.947 1_556 S
C1540 C1541 1.364 1_556 S
C1540 C1542 1.394 . S
C1541 C1540 1.364 1_554 S
C1541 C1545 1.385 1_554 S
C1542 H1523 0.951 . S
C1542 C1540 1.394 . S
C1542 C1543 1.366 . S
C1543 C1542 1.366 . S
C1543 C1544 1.414 . S
C1543 C1546 1.499 . S
C1544 H1524 0.950 . S
C1544 C1543 1.414 . S
C1544 C1545 1.374 . S
C1545 H1525 0.950 . S
C1545 C1541 1.385 1_556 S
C1545 C1544 1.374 . S
C1546 C1543 1.499 . S
C1546 C1547 1.373 . S
C1546 C1548 1.389 . S
C1547 H1526 0.950 . S
C1547 C1546 1.373 . S
C1547 C1563 1.377 . S
C1548 C1546 1.389 . S
C1548 C1549 1.524 . S
C1548 C1562 1.377 . S
C1549 C1548 1.524 . S
C1549 C1550 1.397 . S
C1549 C1554 1.363 . S
C1550 H1527 0.950 . S
C1550 C1549 1.397 . S
C1550 C1551 1.334 . S
C1551 H1528 0.950 . S
C1551 C1550 1.334 . S
C1551 C1552 1.287 . S
C1552 C1551 1.287 . S
C1552 C1553 1.524 . S
C1552 H1571 0.913 . S
C1553 H1529 0.950 . S
C1553 C1552 1.524 . S
C1553 C1554 1.415 . S
C1554 H1530 0.950 . S
C1554 C1549 1.363 . S
C1554 C1553 1.415 . S
C1555 H1531 0.951 . S
C1555 C1556 1.366 . S
C1555 C1557 1.388 . S
C1556 C1555 1.366 . S
C1556 C1560 1.385 . S
C1557 H1532 0.951 . S
C1557 C1555 1.388 . S
C1557 C1558 1.366 . S
C1558 C1557 1.366 . S
C1558 C1559 1.414 . S
C1558 C1561 1.499 . S
C1559 H1533 0.950 . S
C1559 C1558 1.414 . S
C1559 C1560 1.374 . S
C1560 H1534 0.950 . S
C1560 C1556 1.385 . S
C1560 C1559 1.374 . S
C1561 C1558 1.499 . S
C1561 C1562 1.373 . S
C1561 C1563 1.389 . S
C1562 H1535 0.950 . S
C1562 C1548 1.377 . S
C1562 C1561 1.373 . S
C1563 C1547 1.377 . S
C1563 C1561 1.389 . S
C1563 C1564 1.524 . S
C1564 C1563 1.524 . S
C1564 C1565 1.397 . S
C1564 C1569 1.363 . S
C1565 H1536 0.950 . S
C1565 C1564 1.397 . S
C1565 C1566 1.334 . S
C1566 H1537 0.950 . S
C1566 C1565 1.334 . S
C1566 C1567 1.287 . S
C1567 C1566 1.287 . S
C1567 C1568 1.524 . S
C1567 H1570 0.999 . S
C1568 H1538 0.950 . S
C1568 C1567 1.524 . S
C1568 C1569 1.415 . S
C1569 H1539 0.950 . S
C1569 C1564 1.363 . S
C1569 C1568 1.415 . S
H1570 C1567 0.999 . S
H1571 C1552 0.913 . S
H1572 C1590 0.951 . S
H1573 C1592 0.951 . S
H1574 C1594 0.950 . S
H1575 C1595 0.950 . S
H1576 C1597 0.950 . S
H1577 C1600 0.950 . S
H1578 C1601 0.950 . S
H1579 C1603 0.950 . S
H1580 C1604 0.950 . S
H1581 C1605 0.951 . S
H1582 C1607 0.951 . S
H1583 C1609 0.950 . S
H1584 C1610 0.950 . S
H1585 C1612 0.950 . S
H1586 C1615 0.950 . S
H1587 C1616 0.950 . S
H1588 C1618 0.950 . S
H1589 C1619 0.950 . S
C1590 H1572 0.951 . S
C1590 C1591 1.366 . S
C1590 C1592 1.388 . S
C1591 C1590 1.366 . S
C1591 C1595 1.385 . S
C1592 H1573 0.951 . S
C1592 C1590 1.388 . S
C1592 C1593 1.366 . S
C1593 C1592 1.366 . S
C1593 C1594 1.414 . S
C1593 C1596 1.499 . S
C1594 H1574 0.950 . S
C1594 C1593 1.414 . S
C1594 C1595 1.374 . S
C1595 H1575 0.950 . S
C1595 C1591 1.385 . S
C1595 C1594 1.374 . S
C1596 C1593 1.499 . S
C1596 C1597 1.373 . S
C1596 C1598 1.389 . S
C1597 H1576 0.950 . S
C1597 C1596 1.373 . S
C1597 C1613 1.377 . S
C1598 C1596 1.389 . S
C1598 C1599 1.524 . S
C1598 C1612 1.377 . S
C1599 C1598 1.524 . S
C1599 C1600 1.397 . S
C1599 C1604 1.363 . S
C1600 H1577 0.950 . S
C1600 C1599 1.397 . S
C1600 C1601 1.334 . S
C1601 H1578 0.950 . S
C1601 C1600 1.334 . S
C1601 C1602 1.287 . S
C1602 C1601 1.287 . S
C1602 C1603 1.524 . S
C1602 H1621 0.913 . S
C1603 H1579 0.950 . S
C1603 C1602 1.524 . S
C1603 C1604 1.415 . S
C1604 H1580 0.950 . S
C1604 C1599 1.363 . S
C1604 C1603 1.415 . S
C1605 H1581 0.951 . S
C1605 C1606 1.366 . S
C1605 C1607 1.388 1_556 S
C1606 C1605 1.366 . S
C1606 C1610 1.385 1_556 S
C1607 H1582 0.951 . S
C1607 C1605 1.388 1_554 S
C1607 C1608 1.366 . S
C1608 C1607 1.366 . S
C1608 C1609 1.414 . S
C1608 C1611 1.499 . S
C1609 H1583 0.950 . S
C1609 C1608 1.414 . S
C1609 C1610 1.374 . S
C1610 H1584 0.950 . S
C1610 C1606 1.385 1_554 S
C1610 C1609 1.374 . S
C1611 C1608 1.499 . S
C1611 C1612 1.373 . S
C1611 C1613 1.389 . S
C1612 H1585 0.950 . S
C1612 C1598 1.377 . S
C1612 C1611 1.373 . S
C1613 C1597 1.377 . S
C1613 C1611 1.389 . S
C1613 C1614 1.524 . S
C1614 C1613 1.524 . S
C1614 C1615 1.397 . S
C1614 C1619 1.363 . S
C1615 H1586 0.950 . S
C1615 C1614 1.397 . S
C1615 C1616 1.334 . S
C1616 H1587 0.950 . S
C1616 C1615 1.334 . S
C1616 C1617 1.287 . S
C1617 C1616 1.287 . S
C1617 C1618 1.524 . S
C1617 H1620 0.999 . S
C1618 H1588 0.950 . S
C1618 C1617 1.524 . S
C1618 C1619 1.415 . S
C1619 H1589 0.950 . S
C1619 C1614 1.363 . S
C1619 C1618 1.415 . S
H1620 C1617 0.999 . S
H1621 C1602 0.913 . S
H1622 C1640 0.951 . S
H1623 C1642 0.951 . S
H1624 C1644 0.950 . S
H1625 C1645 0.950 . S
H1626 C1647 0.950 . S
H1627 C1650 0.950 . S
H1628 C1651 0.950 . S
H1629 C1653 0.950 . S
H1630 C1654 0.950 . S
H1631 C1655 0.951 . S
H1632 C1657 0.951 . S
H1633 C1659 0.950 . S
H1634 C1660 0.950 . S
H1635 C1662 0.950 . S
H1636 C1665 0.950 . S
H1637 C1666 0.950 . S
H1638 C1668 0.950 . S
H1639 C1669 0.950 . S
C1640 H1622 0.951 . S
C1640 C1641 1.366 . S
C1640 C1642 1.388 . S
C1641 C1640 1.366 . S
C1641 C1645 1.385 . S
C1642 H1623 0.951 . S
C1642 C1640 1.388 . S
C1642 C1643 1.366 . S
C1643 C1642 1.366 . S
C1643 C1644 1.414 . S
C1643 C1646 1.499 . S
C1644 H1624 0.950 . S
C1644 C1643 1.414 . S
C1644 C1645 1.374 . S
C1645 H1625 0.950 . S
C1645 C1641 1.385 . S
C1645 C1644 1.374 . S
C1646 C1643 1.499 . S
C1646 C1647 1.373 . S
C1646 C1648 1.389 . S
C1647 H1626 0.950 . S
C1647 C1646 1.373 . S
C1647 C1663 1.377 . S
C1648 C1646 1.389 . S
C1648 C1649 1.524 . S
C1648 C1662 1.377 . S
C1649 C1648 1.524 . S
C1649 C1650 1.397 . S
C1649 C1654 1.363 . S
C1650 H1627 0.950 . S
C1650 C1649 1.397 . S
C1650 C1651 1.334 . S
C1651 H1628 0.950 . S
C1651 C1650 1.334 . S
C1651 C1652 1.287 . S
C1652 C1651 1.287 . S
C1652 C1653 1.524 . S
C1652 H1671 0.913 . S
C1653 H1629 0.950 . S
C1653 C1652 1.524 . S
C1653 C1654 1.415 . S
C1654 H1630 0.950 . S
C1654 C1649 1.363 . S
C1654 C1653 1.415 . S
C1655 H1631 0.951 . S
C1655 C1656 1.366 1_556 S
C1655 C1657 1.388 . S
C1656 C1655 1.366 1_554 S
C1656 C1660 1.385 . S
C1657 H1632 0.951 . S
C1657 C1655 1.388 . S
C1657 C1658 1.366 . S
C1658 C1657 1.366 . S
C1658 C1659 1.414 . S
C1658 C1661 1.499 . S
C1659 H1633 0.950 . S
C1659 C1658 1.414 . S
C1659 C1660 1.374 1_556 S
C1660 H1634 0.950 . S
C1660 C1656 1.385 . S
C1660 C1659 1.374 1_554 S
C1661 C1658 1.499 . S
C1661 C1662 1.373 . S
C1661 C1663 1.389 . S
C1662 H1635 0.950 . S
C1662 C1648 1.377 . S
C1662 C1661 1.373 . S
C1663 C1647 1.377 . S
C1663 C1661 1.389 . S
C1663 C1664 1.524 . S
C1664 C1663 1.524 . S
C1664 C1665 1.397 . S
C1664 C1669 1.363 . S
C1665 H1636 0.950 . S
C1665 C1664 1.397 . S
C1665 C1666 1.334 . S
C1666 H1637 0.950 . S
C1666 C1665 1.334 . S
C1666 C1667 1.287 . S
C1667 C1666 1.287 . S
C1667 C1668 1.524 . S
C1667 H1670 0.999 . S
C1668 H1638 0.950 . S
C1668 C1667 1.524 . S
C1668 C1669 1.415 . S
C1669 H1639 0.950 . S
C1669 C1664 1.363 . S
C1669 C1668 1.415 . S
H1670 C1667 0.999 . S
H1671 C1652 0.913 . S
H1672 C1690 0.951 . S
H1673 C1692 0.951 . S
H1674 C1694 0.950 . S
H1675 C1695 0.950 . S
H1676 C1697 0.950 . S
H1677 C1700 0.950 . S
H1678 C1701 0.950 . S
H1679 C1703 0.950 . S
H1680 C1704 0.950 . S
H1681 C1705 0.951 . S
H1682 C1707 0.951 . S
H1683 C1709 0.950 . S
H1684 C1710 0.950 . S
H1685 C1712 0.950 . S
H1686 C1715 0.950 . S
H1687 C1716 0.950 . S
H1688 C1718 0.950 . S
H1689 C1719 0.950 . S
C1690 H1672 0.951 . S
C1690 C1691 1.366 . S
C1690 C1692 1.388 . S
C1691 C1690 1.366 . S
C1691 C1695 1.385 . S
C1692 H1673 0.951 . S
C1692 C1690 1.388 . S
C1692 C1693 1.366 . S
C1693 C1692 1.366 . S
C1693 C1694 1.414 . S
C1693 C1696 1.499 . S
C1694 H1674 0.950 . S
C1694 C1693 1.414 . S
C1694 C1695 1.374 . S
C1695 H1675 0.950 . S
C1695 C1691 1.385 . S
C1695 C1694 1.374 . S
C1696 C1693 1.499 . S
C1696 C1697 1.373 . S
C1696 C1698 1.389 . S
C1697 H1676 0.950 . S
C1697 C1696 1.373 . S
C1697 C1713 1.377 . S
C1698 C1696 1.389 . S
C1698 C1699 1.524 . S
C1698 C1712 1.377 . S
C1699 C1698 1.524 . S
C1699 C1700 1.397 . S
C1699 C1704 1.363 . S
C1700 H1677 0.950 . S
C1700 C1699 1.397 . S
C1700 C1701 1.334 . S
C1701 H1678 0.950 . S
C1701 C1700 1.334 . S
C1701 C1702 1.287 . S
C1702 C1701 1.287 . S
C1702 C1703 1.524 . S
C1702 H1721 0.913 . S
C1703 H1679 0.950 . S
C1703 C1702 1.524 . S
C1703 C1704 1.415 . S
C1704 H1680 0.950 . S
C1704 C1699 1.363 . S
C1704 C1703 1.415 . S
C1705 H1681 0.951 . S
C1705 C1706 1.366 . S
C1705 C1707 1.388 . S
C1706 C1705 1.366 . S
C1706 C1710 1.385 . S
C1707 H1682 0.951 . S
C1707 C1705 1.388 . S
C1707 C1708 1.366 . S
C1708 C1707 1.366 . S
C1708 C1709 1.414 . S
C1708 C1711 1.499 . S
C1709 H1683 0.950 . S
C1709 C1708 1.414 . S
C1709 C1710 1.374 . S
C1710 H1684 0.950 . S
C1710 C1706 1.385 . S
C1710 C1709 1.374 . S
C1711 C1708 1.499 . S
C1711 C1712 1.373 . S
C1711 C1713 1.389 . S
C1712 H1685 0.950 . S
C1712 C1698 1.377 . S
C1712 C1711 1.373 . S
C1713 C1697 1.377 . S
C1713 C1711 1.389 . S
C1713 C1714 1.524 . S
C1714 C1713 1.524 . S
C1714 C1715 1.397 . S
C1714 C1719 1.363 . S
C1715 H1686 0.950 . S
C1715 C1714 1.397 . S
C1715 C1716 1.334 . S
C1716 H1687 0.950 . S
C1716 C1715 1.334 . S
C1716 C1717 1.287 . S
C1717 C1716 1.287 . S
C1717 C1718 1.524 . S
C1717 H1720 0.999 . S
C1718 H1688 0.950 . S
C1718 C1717 1.524 . S
C1718 C1719 1.415 . S
C1719 H1689 0.950 . S
C1719 C1714 1.363 . S
C1719 C1718 1.415 . S
H1720 C1717 0.999 . S
H1721 C1702 0.913 . S
H1722 C1740 0.951 . S
H1723 C1742 0.951 . S
H1724 C1744 0.950 . S
H1725 C1745 0.950 . S
H1726 C1747 0.950 . S
H1727 C1750 0.950 . S
H1728 C1751 0.950 . S
H1729 C1753 0.950 . S
H1730 C1754 0.950 . S
H1731 C1755 0.951 . S
H1732 C1757 0.951 . S
H1733 C1759 0.950 . S
H1734 C1760 0.950 . S
H1735 C1762 0.950 . S
H1736 C1765 0.950 . S
H1737 C1766 0.950 . S
H1738 C1768 0.950 . S
H1739 C1769 0.950 . S
C1740 H1722 0.951 . S
C1740 C1741 1.366 . S
C1740 C1742 1.388 . S
C1741 C1740 1.366 . S
C1741 C1745 1.385 . S
C1742 H1723 0.951 . S
C1742 C1740 1.388 . S
C1742 C1743 1.366 . S
C1743 C1742 1.366 . S
C1743 C1744 1.414 . S
C1743 C1746 1.499 . S
C1744 H1724 0.950 . S
C1744 C1743 1.414 . S
C1744 C1745 1.374 . S
C1745 H1725 0.950 . S
C1745 C1741 1.385 . S
C1745 C1744 1.374 . S
C1746 C1743 1.499 . S
C1746 C1747 1.373 . S
C1746 C1748 1.389 . S
C1747 H1726 0.950 . S
C1747 C1746 1.373 . S
C1747 C1763 1.377 . S
C1748 C1746 1.389 . S
C1748 C1749 1.524 . S
C1748 C1762 1.377 . S
C1749 C1748 1.524 . S
C1749 C1750 1.397 . S
C1749 C1754 1.363 . S
C1750 H1727 0.950 . S
C1750 C1749 1.397 . S
C1750 C1751 1.334 . S
C1751 H1728 0.950 . S
C1751 C1750 1.334 . S
C1751 C1752 1.287 . S
C1752 C1751 1.287 . S
C1752 C1753 1.524 . S
C1752 H1771 0.913 . S
C1753 H1729 0.950 . S
C1753 C1752 1.524 . S
C1753 C1754 1.415 . S
C1754 H1730 0.950 . S
C1754 C1749 1.363 . S
C1754 C1753 1.415 . S
C1755 H1731 0.951 . S
C1755 C1756 1.366 . S
C1755 C1757 1.388 . S
C1756 C1755 1.366 . S
C1756 C1760 1.385 . S
C1757 H1732 0.951 . S
C1757 C1755 1.388 . S
C1757 C1758 1.366 . S
C1758 C1757 1.366 . S
C1758 C1759 1.414 . S
C1758 C1761 1.499 . S
C1759 H1733 0.950 . S
C1759 C1758 1.414 . S
C1759 C1760 1.374 . S
C1760 H1734 0.950 . S
C1760 C1756 1.385 . S
C1760 C1759 1.374 . S
C1761 C1758 1.499 . S
C1761 C1762 1.373 . S
C1761 C1763 1.389 . S
C1762 H1735 0.950 . S
C1762 C1748 1.377 . S
C1762 C1761 1.373 . S
C1763 C1747 1.377 . S
C1763 C1761 1.389 . S
C1763 C1764 1.524 . S
C1764 C1763 1.524 . S
C1764 C1765 1.397 . S
C1764 C1769 1.363 . S
C1765 H1736 0.950 . S
C1765 C1764 1.397 . S
C1765 C1766 1.334 . S
C1766 H1737 0.950 . S
C1766 C1765 1.334 . S
C1766 C1767 1.287 . S
C1767 C1766 1.287 . S
C1767 C1768 1.524 . S
C1767 H1770 0.999 . S
C1768 H1738 0.950 . S
C1768 C1767 1.524 . S
C1768 C1769 1.415 . S
C1769 H1739 0.950 . S
C1769 C1764 1.363 . S
C1769 C1768 1.415 . S
H1770 C1767 0.999 . S
H1771 C1752 0.913 . S
H1772 C1790 0.951 . S
H1773 C1792 0.951 . S
H1774 C1794 0.950 . S
H1775 C1795 0.950 . S
H1776 C1797 0.950 . S
H1777 C1800 0.950 . S
H1778 C1801 0.950 . S
H1779 C1803 0.950 . S
H1780 C1804 0.950 . S
H1781 C1805 0.951 . S
H1782 C1807 0.951 . S
H1783 C1809 0.950 . S
H1784 C1810 0.950 . S
H1785 C1812 0.950 . S
H1786 C1815 0.950 . S
H1787 C1816 0.950 . S
H1788 C1818 0.950 . S
H1789 C1819 0.950 . S
C1790 H1772 0.951 . S
C1790 C1791 1.366 . S
C1790 C1792 1.388 . S
C1791 C1790 1.366 . S
C1791 C1795 1.385 . S
C1792 H1773 0.951 . S
C1792 C1790 1.388 . S
C1792 C1793 1.366 . S
C1793 C1792 1.366 . S
C1793 C1794 1.414 . S
C1793 C1796 1.499 . S
C1794 H1774 0.950 . S
C1794 C1793 1.414 . S
C1794 C1795 1.374 . S
C1795 H1775 0.950 . S
C1795 C1791 1.385 . S
C1795 C1794 1.374 . S
C1796 C1793 1.499 . S
C1796 C1797 1.373 . S
C1796 C1798 1.389 . S
C1797 H1776 0.950 . S
C1797 C1796 1.373 . S
C1797 C1813 1.377 . S
C1798 C1796 1.389 . S
C1798 C1799 1.524 . S
C1798 C1812 1.377 . S
C1799 C1798 1.524 . S
C1799 C1800 1.397 . S
C1799 C1804 1.363 . S
C1800 H1777 0.950 . S
C1800 C1799 1.397 . S
C1800 C1801 1.334 . S
C1801 H1778 0.950 . S
C1801 C1800 1.334 . S
C1801 C1802 1.287 . S
C1802 C1801 1.287 . S
C1802 C1803 1.524 . S
C1802 H1821 0.913 . S
C1803 H1779 0.950 . S
C1803 C1802 1.524 . S
C1803 C1804 1.415 . S
C1804 H1780 0.950 . S
C1804 C1799 1.363 . S
C1804 C1803 1.415 . S
C1805 H1781 0.951 . S
C1805 C1806 1.366 . S
C1805 C1807 1.388 . S
C1806 C1805 1.366 . S
C1806 C1810 1.385 . S
C1807 H1782 0.951 . S
C1807 C1805 1.388 . S
C1807 C1808 1.366 . S
C1808 C1807 1.366 . S
C1808 C1809 1.414 . S
C1808 C1811 1.499 . S
C1809 H1783 0.950 . S
C1809 C1808 1.414 . S
C1809 C1810 1.374 . S
C1810 H1784 0.950 . S
C1810 C1806 1.385 . S
C1810 C1809 1.374 . S
C1811 C1808 1.499 . S
C1811 C1812 1.373 . S
C1811 C1813 1.389 . S
C1812 H1785 0.950 . S
C1812 C1798 1.377 . S
C1812 C1811 1.373 . S
C1813 C1797 1.377 . S
C1813 C1811 1.389 . S
C1813 C1814 1.524 . S
C1814 C1813 1.524 . S
C1814 C1815 1.397 . S
C1814 C1819 1.363 . S
C1815 H1786 0.950 . S
C1815 C1814 1.397 . S
C1815 C1816 1.334 . S
C1816 H1787 0.950 . S
C1816 C1815 1.334 . S
C1816 C1817 1.287 . S
C1817 C1816 1.287 . S
C1817 C1818 1.524 . S
C1817 H1820 0.999 . S
C1818 H1788 0.950 . S
C1818 C1817 1.524 . S
C1818 C1819 1.415 . S
C1819 H1789 0.950 . S
C1819 C1814 1.363 . S
C1819 C1818 1.415 . S
H1820 C1817 0.999 . S
H1821 C1802 0.913 . S
H1822 C1840 0.951 . S
H1823 C1842 0.951 . S
H1824 C1844 0.950 . S
H1825 C1845 0.950 . S
H1826 C1847 0.950 . S
H1827 C1850 0.950 . S
H1828 C1851 0.950 . S
H1829 C1853 0.950 . S
H1830 C1854 0.950 . S
H1831 C1855 0.951 . S
H1832 C1857 0.951 . S
H1833 C1859 0.950 . S
H1834 C1860 0.950 . S
H1835 C1862 0.950 . S
H1836 C1865 0.950 . S
H1837 C1866 0.950 . S
H1838 C1868 0.950 . S
H1839 C1869 0.950 . S
C1840 H1822 0.951 . S
C1840 C1841 1.366 . S
C1840 C1842 1.388 . S
C1841 C1840 1.366 . S
C1841 C1845 1.385 . S
C1842 H1823 0.951 . S
C1842 C1840 1.388 . S
C1842 C1843 1.366 . S
C1843 C1842 1.366 . S
C1843 C1844 1.414 . S
C1843 C1846 1.499 . S
C1844 H1824 0.950 . S
C1844 C1843 1.414 . S
C1844 C1845 1.374 . S
C1845 H1825 0.950 . S
C1845 C1841 1.385 . S
C1845 C1844 1.374 . S
C1846 C1843 1.499 . S
C1846 C1847 1.373 . S
C1846 C1848 1.389 . S
C1847 H1826 0.950 . S
C1847 C1846 1.373 . S
C1847 C1863 1.377 . S
C1848 C1846 1.389 . S
C1848 C1849 1.524 . S
C1848 C1862 1.377 . S
C1849 C1848 1.524 . S
C1849 C1850 1.397 . S
C1849 C1854 1.363 . S
C1850 H1827 0.950 . S
C1850 C1849 1.397 . S
C1850 C1851 1.334 . S
C1851 H1828 0.950 . S
C1851 C1850 1.334 . S
C1851 C1852 1.287 . S
C1852 C1851 1.287 . S
C1852 C1853 1.524 . S
C1852 H1871 0.913 . S
C1853 H1829 0.950 . S
C1853 C1852 1.524 . S
C1853 C1854 1.415 . S
C1854 H1830 0.950 . S
C1854 C1849 1.363 . S
C1854 C1853 1.415 . S
C1855 H1831 0.951 . S
C1855 C1856 1.366 . S
C1855 C1857 1.388 . S
C1856 C1855 1.366 . S
C1856 C1860 1.385 . S
C1857 H1832 0.951 . S
C1857 C1855 1.388 . S
C1857 C1858 1.366 . S
C1858 C1857 1.366 . S
C1858 C1859 1.414 . S
C1858 C1861 1.499 . S
C1859 H1833 0.950 . S
C1859 C1858 1.414 . S
C1859 C1860 1.374 . S
C1860 H1834 0.950 . S
C1860 C1856 1.385 . S
C1860 C1859 1.374 . S
C1861 C1858 1.499 . S
C1861 C1862 1.373 . S
C1861 C1863 1.389 . S
C1862 H1835 0.950 . S
C1862 C1848 1.377 . S
C1862 C1861 1.373 . S
C1863 C1847 1.377 . S
C1863 C1861 1.389 . S
C1863 C1864 1.524 . S
C1864 C1863 1.524 . S
C1864 C1865 1.397 . S
C1864 C1869 1.363 . S
C1865 H1836 0.950 . S
C1865 C1864 1.397 . S
C1865 C1866 1.334 . S
C1866 H1837 0.950 . S
C1866 C1865 1.334 . S
C1866 C1867 1.287 . S
C1867 C1866 1.287 . S
C1867 C1868 1.524 . S
C1867 H1870 0.999 . S
C1868 H1838 0.950 . S
C1868 C1867 1.524 . S
C1868 C1869 1.415 . S
C1869 H1839 0.950 . S
C1869 C1864 1.363 . S
C1869 C1868 1.415 . S
H1870 C1867 0.999 . S
H1871 C1852 0.913 . S
C691 C67 1.203 . S
C706 C478 1.011 . S
C741 C140 1.225 . S
C756 C562 1.164 . S
C791 C235 1.268 . S
C806 C657 1.205 . S
C841 C394 1.142 . S
C856 C315 1.172 . S
C891 C489 1.202 . S
C906 C410 1.235 . S
C941 C573 1.057 . S
C956 C476 1.269 . S
C991 C646 1.010 . S
C1006 C578 1.171 . S
C1041 C651 1.214 . S
C1056 C405 1.041 . S
C1091 C571 1.203 . S
C1106 C310 1.010 . S
C1141 C644 1.226 . S
C1156 C58 1.165 . S
C1191 C153 1.204 . S
C1206 C403 1.268 . S
C1241 C226 1.141 . S
C1256 C483 1.171 . S
C1291 C321 1.201 . S
C1306 C242 1.234 . S
C1341 C69 1.056 . S
C1356 C308 1.268 . S
C1391 C142 1.012 . S
C1406 C74 1.173 . S
C1441 C147 1.214 . S
C1456 C237 1.040 . S
C1491 C392 2.757 . S
C1506 C63 2.787 . S
C1541 C494 2.770 . S
C1556 C158 2.768 . S
C1591 C231 2.786 . S
C1606 C560 2.758 . S
C1641 C319 2.775 . S
C1656 C655 2.777 . S
C1691 C224 2.757 . S
C1706 C567 2.787 . S
C1741 C326 2.770 . S
C1756 C662 2.768 . S
C1791 C399 2.786 . S
C1806 C56 2.758 . S
C1841 C487 2.775 . S
C1856 C151 2.777 . S
