# Generated by pormake.
# Topology fnh, (5)-cn, num edge types: 1
# Building blocks:
#     Node 0, Type 0, BuildingBlock: XOMCOT_clean_sbu_0, # of connection points: 5
#     Node 1, Type 0, BuildingBlock: XOMCOT_clean_sbu_0, # of connection points: 5
#     Node 2, Type 0, BuildingBlock: XOMCOT_clean_sbu_0, # of connection points: 5
#     Node 3, Type 0, BuildingBlock: XOMCOT_clean_sbu_0, # of connection points: 5
#     Node 4, Type 0, BuildingBlock: XOMCOT_clean_sbu_0, # of connection points: 5
#     Node 5, Type 0, BuildingBlock: XOMCOT_clean_sbu_0, # of connection points: 5
#     Node 6, Type 0, BuildingBlock: XOMCOT_clean_sbu_0, # of connection points: 5
#     Node 7, Type 0, BuildingBlock: XOMCOT_clean_sbu_0, # of connection points: 5
#     Node 8, Type 0, BuildingBlock: XOMCOT_clean_sbu_0, # of connection points: 5
#     Node 9, Type 0, BuildingBlock: XOMCOT_clean_sbu_0, # of connection points: 5
#     Node 10, Type 0, BuildingBlock: XOMCOT_clean_sbu_0, # of connection points: 5
#     Node 11, Type 0, BuildingBlock: XOMCOT_clean_sbu_0, # of connection points: 5
#     Node 12, Type 0, BuildingBlock: XOMCOT_clean_sbu_0, # of connection points: 5
#     Node 13, Type 0, BuildingBlock: XOMCOT_clean_sbu_0, # of connection points: 5
#     Node 14, Type 0, BuildingBlock: XOMCOT_clean_sbu_0, # of connection points: 5
#     Node 15, Type 0, BuildingBlock: XOMCOT_clean_sbu_0, # of connection points: 5
#     Node 16, Type 0, BuildingBlock: XOMCOT_clean_sbu_0, # of connection points: 5
#     Node 17, Type 0, BuildingBlock: XOMCOT_clean_sbu_0, # of connection points: 5
#     Edge 18, Type (0, 0), BuildingBlock: OJICUG_clean_linker_0, # of connection points: 2
#     Edge 19, Type (0, 0), BuildingBlock: OJICUG_clean_linker_0, # of connection points: 2
#     Edge 20, Type (0, 0), BuildingBlock: OJICUG_clean_linker_0, # of connection points: 2
#     Edge 21, Type (0, 0), BuildingBlock: OJICUG_clean_linker_0, # of connection points: 2
#     Edge 22, Type (0, 0), BuildingBlock: OJICUG_clean_linker_0, # of connection points: 2
#     Edge 23, Type (0, 0), BuildingBlock: OJICUG_clean_linker_0, # of connection points: 2
#     Edge 24, Type (0, 0), BuildingBlock: OJICUG_clean_linker_0, # of connection points: 2
#     Edge 25, Type (0, 0), BuildingBlock: OJICUG_clean_linker_0, # of connection points: 2
#     Edge 26, Type (0, 0), BuildingBlock: OJICUG_clean_linker_0, # of connection points: 2
#     Edge 27, Type (0, 0), BuildingBlock: OJICUG_clean_linker_0, # of connection points: 2
#     Edge 28, Type (0, 0), BuildingBlock: OJICUG_clean_linker_0, # of connection points: 2
#     Edge 29, Type (0, 0), BuildingBlock: OJICUG_clean_linker_0, # of connection points: 2
#     Edge 30, Type (0, 0), BuildingBlock: OJICUG_clean_linker_0, # of connection points: 2
#     Edge 31, Type (0, 0), BuildingBlock: OJICUG_clean_linker_0, # of connection points: 2
#     Edge 32, Type (0, 0), BuildingBlock: OJICUG_clean_linker_0, # of connection points: 2
#     Edge 33, Type (0, 0), BuildingBlock: OJICUG_clean_linker_0, # of connection points: 2
#     Edge 34, Type (0, 0), BuildingBlock: OJICUG_clean_linker_0, # of connection points: 2
#     Edge 35, Type (0, 0), BuildingBlock: OJICUG_clean_linker_0, # of connection points: 2
#     Edge 36, Type (0, 0), BuildingBlock: OJICUG_clean_linker_0, # of connection points: 2
#     Edge 37, Type (0, 0), BuildingBlock: OJICUG_clean_linker_0, # of connection points: 2
#     Edge 38, Type (0, 0), BuildingBlock: OJICUG_clean_linker_0, # of connection points: 2
#     Edge 39, Type (0, 0), BuildingBlock: OJICUG_clean_linker_0, # of connection points: 2
#     Edge 40, Type (0, 0), BuildingBlock: OJICUG_clean_linker_0, # of connection points: 2
#     Edge 41, Type (0, 0), BuildingBlock: OJICUG_clean_linker_0, # of connection points: 2
#     Edge 42, Type (0, 0), BuildingBlock: OJICUG_clean_linker_0, # of connection points: 2
#     Edge 43, Type (0, 0), BuildingBlock: OJICUG_clean_linker_0, # of connection points: 2
#     Edge 44, Type (0, 0), BuildingBlock: OJICUG_clean_linker_0, # of connection points: 2
#     Edge 45, Type (0, 0), BuildingBlock: OJICUG_clean_linker_0, # of connection points: 2
#     Edge 46, Type (0, 0), BuildingBlock: OJICUG_clean_linker_0, # of connection points: 2
#     Edge 47, Type (0, 0), BuildingBlock: OJICUG_clean_linker_0, # of connection points: 2
#     Edge 48, Type (0, 0), BuildingBlock: OJICUG_clean_linker_0, # of connection points: 2
#     Edge 49, Type (0, 0), BuildingBlock: OJICUG_clean_linker_0, # of connection points: 2
#     Edge 50, Type (0, 0), BuildingBlock: OJICUG_clean_linker_0, # of connection points: 2
#     Edge 51, Type (0, 0), BuildingBlock: OJICUG_clean_linker_0, # of connection points: 2
#     Edge 52, Type (0, 0), BuildingBlock: OJICUG_clean_linker_0, # of connection points: 2
#     Edge 53, Type (0, 0), BuildingBlock: OJICUG_clean_linker_0, # of connection points: 2
#     Edge 54, Type (0, 0), BuildingBlock: OJICUG_clean_linker_0, # of connection points: 2
#     Edge 55, Type (0, 0), BuildingBlock: OJICUG_clean_linker_0, # of connection points: 2
#     Edge 56, Type (0, 0), BuildingBlock: OJICUG_clean_linker_0, # of connection points: 2
#     Edge 57, Type (0, 0), BuildingBlock: OJICUG_clean_linker_0, # of connection points: 2
#     Edge 58, Type (0, 0), BuildingBlock: OJICUG_clean_linker_0, # of connection points: 2
#     Edge 59, Type (0, 0), BuildingBlock: OJICUG_clean_linker_0, # of connection points: 2
#     Edge 60, Type (0, 0), BuildingBlock: OJICUG_clean_linker_0, # of connection points: 2
#     Edge 61, Type (0, 0), BuildingBlock: OJICUG_clean_linker_0, # of connection points: 2
#     Edge 62, Type (0, 0), BuildingBlock: OJICUG_clean_linker_0, # of connection points: 2
# Relax obj value: 0.241
# Max RMSD: 0.208
# Mean RMSD: 0.208
data_MOF--net-fnh--node1-XOMCOT_clean_sbu_0--edge1-OJICUG_clean_linker_0
_symmetry_space_group_name_H-M    P1
_symmetry_Int_Tables_number       1
_symmetry_cell_setting            triclinic
loop_
_symmetry_equiv_pos_as_xyz
'x, y, z'
_cell_length_a     51.99026
_cell_length_b     51.795158
_cell_length_c     17.376467
_cell_angle_alpha  89.886961
_cell_angle_beta   89.905217
_cell_angle_gamma 120.24621
loop_
_atom_site_label
_atom_site_type_symbol
_atom_site_fract_x
_atom_site_fract_y
_atom_site_fract_z
_atom_type_partial_charge
Co0 Co 0.1167 0.18911 0.31748 0.0
C1 C 0.09498 0.21721 0.42085 0.0
C2 C 0.05863 0.17499 0.38416 0.0
C3 C 0.04797 0.18831 0.43342 0.0
N4 N 0.08803 0.19363 0.37554 0.0
N5 N 0.07098 0.21501 0.45598 0.0
H6 H 0.11756 0.23491 0.43158 0.0
H7 H 0.04612 0.15311 0.35827 0.0
C8 C 0.06691 0.1776 0.18973 0.0
O9 O 0.05671 0.19162 0.23132 0.0
N10 N 0.14629 0.18584 0.25944 0.0
C11 C 0.16728 0.17939 0.2822 0.0
C12 C 0.18566 0.18358 0.22071 0.0
C13 C 0.1524 0.19415 0.18553 0.0
N14 N 0.17613 0.19288 0.16048 0.0
C15 C 0.16673 0.2477 0.32302 0.0
C16 C 0.14033 0.28073 0.28592 0.0
C17 C 0.16865 0.29593 0.32165 0.0
C18 C 0.18175 0.27844 0.33786 0.0
C19 C 0.12562 0.24934 0.27303 0.0
N20 N 0.13833 0.23283 0.29493 0.0
H21 H 0.17732 0.23534 0.34092 0.0
H22 H 0.10326 0.23837 0.25113 0.0
H23 H 0.16969 0.17257 0.3391 0.0
H24 H 0.14003 0.20156 0.15094 0.0
O25 O 0.1382 0.19218 0.41411 0.0
O26 O 0.10427 0.1494 0.36932 0.0
O27 O 0.08955 0.17577 0.21571 0.0
C28 C 0.12408 0.16348 0.42315 0.0
H29 H 1.02555 0.17793 0.45634 0.0
H30 H 0.204 0.17929 0.21966 0.0
H31 H 0.129 0.29262 0.26995 0.0
H32 H 0.203 0.28766 0.36639 0.0
Co33 Co 0.87246 0.94138 0.32331 0.0
C34 C 0.86702 0.8839 0.35086 0.0
C35 C 0.90653 0.91833 0.40507 0.0
C36 C 0.90531 0.89138 0.4145 0.0
N37 N 0.88202 0.91334 0.36672 0.0
N38 N 0.8803 0.86969 0.38064 0.0
H39 H 0.84598 0.87259 0.32082 0.0
H40 H 0.92383 0.93974 0.42584 0.0
C41 C 0.90361 0.92845 0.18872 0.0
O42 O 0.92713 0.94117 0.23335 0.0
N43 N 0.86305 0.96878 0.27609 0.0
C44 C 0.84327 0.97714 0.29612 0.0
C45 C 0.84288 0.99539 0.23843 0.0
C46 C 0.87441 0.9818 0.20864 0.0
N47 N 0.86261 0.99816 0.1837 0.0
C48 C 0.81757 0.90021 0.39727 0.0
C49 C 0.77912 0.8877 0.27553 0.0
C50 C 0.7665 0.87717 0.34943 0.0
C51 C 0.7867 0.88347 0.41002 0.0
C52 C 0.81049 0.90455 0.26506 0.0
N53 N 0.8294 0.91105 0.32601 0.0
H54 H 0.83218 0.90544 0.44616 0.0
H55 H 0.81948 0.91342 0.20866 0.0
H56 H 0.8296 0.96983 0.34749 0.0
H57 H 0.89027 0.97822 0.17727 0.0
O58 O 0.87282 0.95898 0.42451 0.0
O59 O 0.91266 0.97637 0.35432 0.0
O60 O 0.87931 0.92717 0.21393 0.0
C61 C 0.90056 0.97907 0.41789 0.0
H62 H 0.9203 0.88765 0.4498 0.0
H63 H 0.82906 1.0055 0.23666 0.0
H64 H 0.76496 0.88341 0.226 0.0
H65 H 0.77894 0.87673 0.46842 0.0
Co66 Co 0.12343 0.94856 0.32115 0.0
C67 C 0.18215 0.99834 0.355 0.0
C68 C 0.14885 1.00614 0.40443 0.0
C69 C 0.1766 0.02848 0.42677 0.0
N70 N 0.1525 0.98666 0.36174 0.0
N71 N 0.19755 1.02277 0.39848 0.0
H72 H 0.19251 0.98733 0.32668 0.0
H73 H 0.12773 1.0033 0.42307 0.0
C74 C 0.13645 0.99201 0.18628 0.0
O75 O 0.12342 1.00242 0.23112 0.0
N76 N 0.09534 0.91072 0.2793 0.0
C77 C 0.09055 0.88361 0.30116 0.0
C78 C 0.06903 0.86234 0.2543 0.0
C79 C 0.0764 0.90581 0.22187 0.0
N80 N 0.06011 0.87652 0.20578 0.0
C81 C 0.16114 0.93109 0.39737 0.0
C82 C 0.1793 0.91106 0.27343 0.0
C83 C 0.18777 0.9069 0.34794 0.0
C84 C 0.17836 0.91757 0.40976 0.0
C85 C 0.16188 0.92495 0.26331 0.0
N86 N 0.15284 0.93473 0.32525 0.0
H87 H 0.15418 0.93853 0.44705 0.0
H88 H 0.1549 0.92694 0.20608 0.0
H89 H 0.10237 0.87968 0.3466 0.0
H90 H 0.07545 0.92336 0.19034 0.0
O91 O 0.10564 0.93267 0.42341 0.0
O92 O 0.08921 0.95506 0.35009 0.0
O93 O 0.13739 0.96862 0.21061 0.0
C94 C 0.08587 0.94048 0.41456 0.0
H95 H 0.1806 0.04503 0.47028 0.0
H96 H 0.06107 0.83858 0.25437 0.0
H97 H 0.18586 0.90348 0.22308 0.0
H98 H 0.18335 0.91473 0.46853 0.0
Co99 Co 0.19983 0.10475 0.75466 0.0
C100 C 0.2117 0.05784 0.70325 0.0
C101 C 0.16738 0.04665 0.67331 0.0
C102 C 0.17392 1.02663 0.63911 0.0
N103 N 0.19166 0.06693 0.71158 0.0
N104 N 0.20227 0.03439 0.65621 0.0
H105 H 0.23427 0.06969 0.72418 0.0
H106 H 0.1474 0.04778 0.66456 0.0
C107 C 0.19452 0.06428 0.89794 0.0
O108 O 0.21397 0.05894 0.86453 0.0
N109 N 0.20892 0.14241 0.7963 0.0
C110 C 0.23104 0.16949 0.77309 0.0
C111 C 0.23082 0.19095 0.81897 0.0
C112 C 0.195 0.14752 0.85376 0.0
N113 N 0.20793 0.17693 0.86841 0.0
C114 C 0.25657 0.12496 0.68537 0.0
C115 C 0.2928 0.14256 0.81283 0.0
C116 C 0.30646 0.14798 0.73924 0.0
C117 C 0.28739 0.13867 0.67569 0.0
C118 C 0.2612 0.12811 0.82027 0.0
N119 N 0.24332 0.11913 0.7565 0.0
H120 H 0.24317 0.11877 0.63411 0.0
H121 H 0.25133 0.12505 0.87679 0.0
H122 H 0.24668 0.17332 0.72728 0.0
H123 H 0.17669 0.1301 0.8864 0.0
O124 O 0.19972 0.12134 0.65178 0.0
O125 O 0.1597 0.09836 0.7211 0.0
O126 O 0.18891 0.08379 0.86579 0.0
C127 C 0.17194 0.11339 0.65792 0.0
H128 H 0.16041 1.01045 0.59582 0.0
H129 H 0.24655 0.21474 0.81779 0.0
H130 H 0.30634 0.14953 0.86424 0.0
H131 H 0.29619 0.14279 0.61761 0.0
Co132 Co 0.95898 0.11253 0.7543 0.0
C133 C 1.01168 0.16973 0.72908 0.0
C134 C 1.01613 0.13556 0.67138 0.0
C135 C 0.04203 0.1625 0.66237 0.0
N136 N 0.9969 0.14044 0.71165 0.0
N137 N 0.03909 0.18403 0.69841 0.0
H138 H 1.00216 0.18092 0.76062 0.0
H139 H 1.01164 0.11427 0.64878 0.0
C140 C 1.00287 0.12565 0.88919 0.0
O141 O 1.01413 0.11341 0.84443 0.0
N142 N 0.92182 0.08527 0.80079 0.0
C143 C 0.89378 0.07738 0.78065 0.0
C144 C 0.87476 0.05887 0.83763 0.0
C145 C 0.91973 0.07174 0.86758 0.0
N146 N 0.89139 0.05547 0.89191 0.0
C147 C 0.94638 0.15437 0.6808 0.0
C148 C 0.9204 0.16688 0.8027 0.0
C149 C 0.91886 0.17781 0.72904 0.0
C150 C 0.9328 0.17155 0.66836 0.0
C151 C 0.93444 0.14966 0.81288 0.0
N152 N 0.94682 0.14314 0.75183 0.0
H153 H 0.95579 0.14914 0.63189 0.0
H154 H 0.93417 0.1405 0.86908 0.0
H155 H 0.88776 0.08514 0.72968 0.0
H156 H 0.93897 0.07483 0.89902 0.0
O157 O 0.94193 0.09522 0.6528 0.0
O158 O 0.96378 0.07737 0.72315 0.0
O159 O 0.97964 0.12646 0.86402 0.0
C160 C 0.94917 0.07489 0.65947 0.0
H161 H 0.06056 0.16639 0.62581 0.0
H162 H 0.85081 0.04899 0.83925 0.0
H163 H 0.91045 0.17115 0.85221 0.0
H164 H 0.93216 0.17866 0.61016 0.0
Co165 Co 0.95571 0.86635 0.75945 0.0
C166 C 0.90531 0.83792 0.6576 0.0
C167 C 0.91176 0.8804 0.69362 0.0
C168 C 0.88748 0.86699 0.64537 0.0
N169 N 0.92232 0.86165 0.70217 0.0
N170 N 0.88343 0.84014 0.62326 0.0
H171 H 0.90994 0.82009 0.64685 0.0
H172 H 0.92142 0.90238 0.71903 0.0
C173 C 0.91731 0.87763 0.88765 0.0
O174 O 0.89314 0.86349 0.84593 0.0
N175 N 0.98883 0.86989 0.81677 0.0
C176 C 1.01616 0.87622 0.79295 0.0
C177 C 1.03057 0.87205 0.85376 0.0
C178 C 0.98692 0.86172 0.89076 0.0
N179 N 1.012 0.8629 0.91474 0.0
C180 C 0.94713 0.80783 0.75423 0.0
C181 C 0.88776 0.77468 0.79334 0.0
C182 C 0.90082 0.75948 0.75738 0.0
C183 C 0.93138 0.77703 0.74011 0.0
C184 C 0.90445 0.80611 0.80548 0.0
N185 N 0.93364 0.82268 0.78262 0.0
H186 H 0.97007 0.82022 0.73562 0.0
H187 H 0.89309 0.81703 0.82773 0.0
H188 H 1.02514 0.88282 0.73565 0.0
H189 H 0.96724 0.85432 0.92601 0.0
O190 O 0.97382 0.86304 0.6623 0.0
O191 O 0.98299 0.90594 0.70633 0.0
O192 O 0.94195 0.87971 0.86162 0.0
C193 C 0.98845 0.89169 0.65238 0.0
H194 H 0.87545 0.87737 0.62282 0.0
H195 H 0.05314 0.87611 0.85372 0.0
H196 H 0.86456 0.76273 0.81012 0.0
H197 H 0.94334 0.7678 0.71133 0.0
Co198 Co 0.78324 0.52438 0.663 0.0
C199 C 0.76205 0.55231 0.769 0.0
C200 C 0.72559 0.51035 0.73113 0.0
C201 C 0.7152 0.52289 0.78353 0.0
N202 N 0.75487 0.52926 0.72139 0.0
N203 N 0.73828 0.54933 0.80729 0.0
H204 H 0.78472 0.5698 0.78 0.0
H205 H 0.71308 0.48856 0.70476 0.0
C206 C 0.73257 0.51171 0.53736 0.0
O207 O 0.72308 0.52656 0.57811 0.0
N208 N 0.8125 0.52052 0.60436 0.0
C209 C 0.83289 0.51326 0.62732 0.0
C210 C 0.8519 0.51803 0.56695 0.0
C211 C 0.81945 0.52962 0.531 0.0
N212 N 0.84339 0.52842 0.50688 0.0
C213 C 0.8335 0.58282 0.66339 0.0
C214 C 0.80671 0.61586 0.63098 0.0
C215 C 0.83564 0.63114 0.6633 0.0
C216 C 0.84888 0.61364 0.6772 0.0
C217 C 0.79166 0.58442 0.61903 0.0
N218 N 0.80466 0.56791 0.63834 0.0
H219 H 0.84426 0.57047 0.6799 0.0
H220 H 0.76891 0.57342 0.60003 0.0
H221 H 0.83462 0.5057 0.68388 0.0
H222 H 0.80774 0.53787 0.49667 0.0
O223 O 0.80542 0.52858 0.759 0.0
O224 O 0.7712 0.48527 0.71776 0.0
O225 O 0.75536 0.50999 0.56265 0.0
C226 C 0.79123 0.50003 0.77062 0.0
H227 H 0.69306 0.51188 0.80843 0.0
H228 H 0.87018 0.51365 0.56677 0.0
H229 H 0.79518 0.62776 0.61707 0.0
H230 H 0.87058 0.62293 0.70331 0.0
Co231 Co 0.54138 0.27704 0.66606 0.0
C232 C 0.5145 0.22778 0.77266 0.0
C233 C 0.55711 0.2349 0.73662 0.0
C234 C 0.5451 0.2122 0.79035 0.0
N235 N 0.53745 0.24409 0.72492 0.0
N236 N 0.51826 0.20785 0.81298 0.0
H237 H 0.49658 0.23228 0.78285 0.0
H238 H 0.57907 0.24498 0.71105 0.0
C239 C 0.55602 0.24005 0.54125 0.0
O240 O 0.54289 0.21584 0.58386 0.0
N241 N 0.54411 0.3098 0.60739 0.0
C242 C 0.55004 0.33713 0.63067 0.0
C243 C 0.54506 0.35116 0.57016 0.0
C244 C 0.53546 0.30756 0.53377 0.0
N245 N 0.5358 0.3324 0.5097 0.0
C246 C 0.48176 0.26591 0.66659 0.0
C247 C 0.45205 0.20571 0.6336 0.0
C248 C 0.4354 0.21777 0.666 0.0
C249 C 0.45088 0.24874 0.67903 0.0
C250 C 0.4832 0.22386 0.62155 0.0
N251 N 0.4981 0.25346 0.64171 0.0
H252 H 0.49291 0.28917 0.68293 0.0
H253 H 0.49537 0.21331 0.60265 0.0
H254 H 0.55689 0.34636 0.68752 0.0
H255 H 0.52824 0.28775 0.49912 0.0
O256 O 0.53681 0.29485 0.76219 0.0
O257 O 0.58018 0.30501 0.71946 0.0
O258 O 0.55625 0.26409 0.56543 0.0
C259 C 0.56531 0.30983 0.77292 0.0
H260 H 0.55673 0.20211 0.81713 0.0
H261 H 0.54859 0.37362 0.57013 0.0
H262 H 0.44154 0.18204 0.62168 0.0
H263 H 0.43942 0.25977 0.70111 0.0
Co264 Co 0.79027 0.28406 0.66419 0.0
C265 C 0.83976 0.30632 0.76887 0.0
C266 C 0.83261 0.34204 0.73447 0.0
C267 C 0.85549 0.35275 0.78706 0.0
N268 N 0.82336 0.31307 0.72231 0.0
N269 N 0.85987 0.33012 0.80862 0.0
H270 H 0.83529 0.28377 0.77856 0.0
H271 H 0.82252 0.35401 0.70986 0.0
C272 C 0.82737 0.33588 0.53921 0.0
O273 O 0.8514 0.34705 0.58178 0.0
N274 N 0.75733 0.25406 0.60628 0.0
C275 C 0.73002 0.23271 0.6302 0.0
C276 C 0.7158 0.21367 0.56994 0.0
C277 C 0.75936 0.24757 0.53256 0.0
N278 N 0.7344 0.22308 0.50899 0.0
C279 C 0.80071 0.23494 0.66215 0.0
C280 C 0.86055 0.26536 0.62633 0.0
C281 C 0.84835 0.23621 0.65721 0.0
C282 C 0.81752 0.22077 0.67153 0.0
C283 C 0.84273 0.27872 0.61679 0.0
N284 N 0.81334 0.26406 0.63835 0.0
H285 H 0.77762 0.22287 0.67961 0.0
H286 H 0.8534 0.30168 0.59866 0.0
H287 H 0.72096 0.23039 0.68732 0.0
H288 H 0.77909 0.26008 0.49747 0.0
O289 O 0.77247 0.26162 0.76069 0.0
O290 O 0.76291 0.29537 0.71827 0.0
O291 O 0.80332 0.31197 0.56352 0.0
C292 C 0.75791 0.27554 0.77182 0.0
H293 H 0.86574 0.37456 0.81381 0.0
H294 H 0.69331 0.19477 0.57044 0.0
H295 H 0.8841 0.27857 0.61364 0.0
H296 H 0.80629 0.19796 0.69239 0.0
Co297 Co 0.86799 0.44397 0.1051 0.0
C298 C 0.86948 0.38944 0.08405 0.0
C299 C 0.83085 0.3857 1.02877 0.0
C300 C 0.83078 0.35929 1.02017 0.0
N301 N 0.85561 0.40477 0.06735 0.0
N302 N 0.85531 0.3618 0.05439 0.0
H303 H 0.89057 0.39879 0.11367 0.0
H304 H 0.81443 0.39069 1.00656 0.0
C305 C 0.83797 0.40189 0.24296 0.0
O306 O 0.81425 0.39043 0.19898 0.0
N307 N 0.88044 0.48279 0.14492 0.0
C308 C 0.9042 0.50924 0.12441 0.0
C309 C 0.90487 0.53119 0.17064 0.0
C310 C 0.86652 0.48881 0.20057 0.0
N311 N 0.88086 0.51811 0.21711 0.0
C312 C 0.92157 0.45514 1.02803 0.0
C313 C 0.96076 0.47825 0.14953 0.0
C314 C 0.97295 0.48038 0.0751 0.0
C315 C 0.95229 0.46789 1.01458 0.0
C316 C 0.92959 0.46538 0.16057 0.0
N317 N 0.91035 0.45449 0.09976 0.0
H318 H 0.90667 0.44664 0.97941 0.0
H319 H 0.92112 0.46542 0.21744 0.0
H320 H 0.92028 0.51223 0.0806 0.0
H321 H 0.847 0.4719 0.23077 0.0
O322 O 0.86661 0.45929 1.00198 0.0
O323 O 0.82819 0.43985 0.07827 0.0
O324 O 0.86198 0.42529 0.21702 0.0
C325 C 0.83948 0.45313 1.0123 0.0
H326 H 0.81542 0.34075 0.98457 0.0
H327 H 0.92186 0.5546 0.17162 0.0
H328 H 0.97509 0.48681 0.19925 0.0
H329 H 0.95961 0.46892 0.95581 0.0
Co330 Co 0.62246 0.44325 0.10742 0.0
C331 C 0.677 0.49942 0.08348 0.0
C332 C 0.68044 0.46379 1.03095 0.0
C333 C 0.70694 0.4901 1.02148 0.0
N334 N 0.66151 0.46994 0.06835 0.0
N335 N 0.70463 0.51257 0.05402 0.0
H336 H 0.66784 0.51154 0.11208 0.0
H337 H 0.67534 0.44206 1.0103 0.0
C338 C 0.66452 0.45517 0.24457 0.0
O339 O 0.67527 0.44216 0.20081 0.0
N340 N 0.5838 0.41696 0.14841 0.0
C341 C 0.55747 0.41404 0.12741 0.0
C342 C 0.53547 0.39254 0.17355 0.0
C343 C 0.57765 0.39693 0.2043 0.0
N344 N 0.5484 0.38171 0.22048 0.0
C345 C 0.61164 0.48577 1.02963 0.0
C346 C 0.58767 0.5014 0.1503 0.0
C347 C 0.58535 0.51083 0.07544 0.0
C348 C 0.59839 0.50319 1.0154 0.0
C349 C 0.60099 0.48357 0.16218 0.0
N350 N 0.61222 0.47534 0.10171 0.0
H351 H 0.6206 0.47966 0.98139 0.0
H352 H 0.60079 0.47507 0.21922 0.0
H353 H 0.55459 0.42702 0.08301 0.0
H354 H 0.59442 0.39433 0.23455 0.0
O355 O 0.60686 0.42631 1.00479 0.0
O356 O 0.62606 0.40713 0.08054 0.0
O357 O 0.64148 0.45624 0.21889 0.0
C358 C 0.61275 0.40513 1.01494 0.0
H359 H 0.72547 0.4929 0.98657 0.0
H360 H 0.51209 0.38579 0.17387 0.0
H361 H 0.57803 0.50655 0.19896 0.0
H362 H 0.59802 0.51029 0.95695 0.0
Co363 Co 0.62494 0.20056 0.10826 0.0
C364 C 0.56961 0.1999 0.08802 0.0
C365 C 0.60479 0.23809 1.03017 0.0
C366 C 0.57865 0.2384 1.02178 0.0
N367 N 0.59875 0.21343 0.07023 0.0
N368 N 0.55645 0.21413 0.05767 0.0
H369 H 0.55767 0.17892 0.11888 0.0
H370 H 0.62626 0.25421 1.00672 0.0
C371 C 0.61258 0.23027 0.24611 0.0
O372 O 0.62505 0.25419 0.20214 0.0
N373 N 0.65069 0.18759 0.14841 0.0
C374 C 0.65326 0.16395 0.12696 0.0
C375 C 0.67437 0.16301 0.17295 0.0
C376 C 0.67055 0.2012 0.20439 0.0
N377 N 0.68532 0.18675 0.22022 0.0
C378 C 0.582 0.14761 1.02997 0.0
C379 C 0.56639 0.10713 0.14909 0.0
C380 C 0.55672 0.09557 0.07404 0.0
C381 C 0.56445 0.11686 1.01486 0.0
C382 C 0.58428 0.13835 0.16179 0.0
N383 N 0.59257 0.15822 0.10202 0.0
H384 H 0.58832 0.16304 0.98218 0.0
H385 H 0.59274 0.14636 0.2189 0.0
H386 H 0.64027 0.1482 0.08241 0.0
H387 H 0.67335 0.22065 0.23498 0.0
O388 O 0.64172 0.20193 1.00533 0.0
O389 O 0.6613 0.24037 0.08134 0.0
O390 O 0.61203 0.20633 0.22027 0.0
C391 C 0.66313 0.229 1.01555 0.0
H392 H 0.57566 0.25365 0.98526 0.0
H393 H 0.68077 0.1461 0.17292 0.0
H394 H 0.56082 0.09228 0.19797 0.0
H395 H 0.55836 0.11008 0.95577 0.0
Co396 Co 0.45688 0.85978 0.97489 0.0
C397 C 0.42152 0.87882 0.06061 0.0
C398 C 0.3936 0.83964 0.99481 0.0
C399 C 0.37665 0.85116 1.02194 0.0
N400 N 0.42183 0.85734 1.01816 0.0
N401 N 0.39436 0.87621 0.06249 0.0
H402 H 0.44119 0.89648 0.08784 0.0
H403 H 0.38573 0.81999 0.95962 0.0
C404 C 0.41761 0.82722 0.8328 0.0
O405 O 0.41325 0.80256 0.86625 0.0
N406 N 0.49259 0.86316 0.93098 0.0
C407 C 0.51549 0.86314 0.96795 0.0
C408 C 0.53746 0.86864 0.9158 0.0
C409 C 0.50133 0.86929 0.85726 0.0
N410 N 0.52852 0.87261 0.84651 0.0
C411 C 0.50181 0.92013 1.00645 0.0
C412 C 0.47453 0.94998 0.94934 0.0
C413 C 0.50057 0.96651 0.99422 0.0
C414 C 0.51456 0.95085 1.01965 0.0
C415 C 0.46269 0.91893 0.93559 0.0
N416 N 0.47575 0.90402 0.96686 0.0
H417 H 0.51257 0.90902 1.03179 0.0
H418 H 0.44196 0.90658 0.90455 0.0
H419 H 0.51681 0.85983 1.02873 0.0
H420 H 0.48769 0.87028 0.81171 0.0
O421 O 0.47171 0.85904 0.07867 0.0
O422 O 0.44504 0.81835 1.01364 0.0
O423 O 0.43612 0.85255 0.86542 0.0
C424 C 0.46042 0.83037 0.07633 0.0
H425 H 0.35286 0.84106 1.0144 0.0
H426 H 0.55805 0.8689 0.92737 0.0
H427 H 0.46256 0.9605 0.92748 0.0
H428 H 0.53524 0.962 0.05131 0.0
Co429 Co 0.20821 0.61196 0.97915 0.0
C430 C 0.20587 0.5555 1.00155 0.0
C431 C 0.24512 0.59073 0.05465 0.0
C432 C 0.24491 0.56426 0.0636 0.0
N433 N 0.22017 0.58493 1.01725 0.0
N434 N 0.22 0.54202 1.03074 0.0
H435 H 0.18458 0.54362 0.97284 0.0
H436 H 0.26193 0.61234 0.07574 0.0
C437 C 0.23807 0.6 0.84118 0.0
O438 O 0.26189 0.61272 0.88477 0.0
N439 N 0.19614 0.6385 0.93904 0.0
C440 C 0.17286 0.64151 0.96094 0.0
C441 C 0.17192 0.66251 0.91401 0.0
C442 C 0.20952 0.658 0.88166 0.0
N443 N 0.19526 0.67293 0.86547 0.0
C444 C 0.15443 0.56948 0.05637 0.0
C445 C 0.11515 0.55428 0.93524 0.0
C446 C 0.10314 0.54467 1.00989 0.0
C447 C 0.12364 0.55209 0.07017 0.0
C448 C 0.1464 0.57206 0.9238 0.0
N449 N 0.16569 0.58006 0.98448 0.0
H450 H 0.16938 0.57542 0.10475 0.0
H451 H 0.15491 0.58069 0.86693 0.0
H452 H 0.15727 0.6288 1.0063 0.0
H453 H 0.22861 0.66034 0.85028 0.0
O454 O 0.2097 0.62867 0.08232 0.0
O455 O 0.24818 0.64779 1.00635 0.0
O456 O 0.21409 0.59915 0.86728 0.0
C457 C 0.23696 0.64968 0.07233 0.0
H458 H 0.26042 0.56117 0.09844 0.0
H459 H 0.15526 0.66919 0.91425 0.0
H460 H 0.10049 0.5493 0.88642 0.0
H461 H 0.11596 0.54485 0.12847 0.0
Co462 Co 0.45155 0.6116 0.9777 0.0
C463 C 0.50773 0.66621 0.99872 0.0
C464 C 0.47275 0.66987 0.05402 0.0
C465 C 0.49918 0.69627 0.06289 0.0
N466 N 0.47844 0.65085 1.0153 0.0
N467 N 0.52126 0.6938 1.02869 0.0
H468 H 0.51949 0.65688 0.96908 0.0
H469 H 0.4513 0.66484 0.07628 0.0
C470 C 0.46304 0.65338 0.83991 0.0
O471 O 0.45045 0.66443 0.88417 0.0
N472 N 0.42513 0.57275 0.93801 0.0
C473 C 0.42238 0.54632 0.95861 0.0
C474 C 0.40114 0.52435 0.9123 0.0
C475 C 0.40525 0.56667 0.88225 0.0
N476 N 0.3903 0.53737 0.86572 0.0
C477 C 0.49403 0.60074 0.05468 0.0
C478 C 0.50993 0.57719 0.93374 0.0
C479 C 0.51998 0.57525 1.00823 0.0
C480 C 0.51191 0.58797 0.06844 0.0
C481 C 0.49172 0.59009 0.92237 0.0
N482 N 0.48345 0.6012 0.98293 0.0
H483 H 0.4877 0.6094 0.10313 0.0
H484 H 0.4832 0.5899 0.86549 0.0
H485 H 0.43543 0.54339 1.00248 0.0
H486 H 0.40271 0.58354 0.85197 0.0
O487 O 0.43485 0.59628 0.0809 0.0
O488 O 0.41582 0.61559 1.00481 0.0
O489 O 0.46415 0.63029 0.86574 0.0
C490 C 0.41384 0.60235 0.07075 0.0
H491 H 0.50236 0.71474 0.09872 0.0
H492 H 0.39471 0.50095 0.91137 0.0
H493 H 0.51562 0.56844 0.88422 0.0
H494 H 0.51819 0.58711 0.12725 0.0
Co495 Co 0.53066 0.77031 0.416 0.0
C496 C 0.55945 0.74863 0.31406 0.0
C497 C 0.51642 0.71258 0.34714 0.0
C498 C 0.52915 0.7021 0.29559 0.0
N499 N 0.53589 0.74162 0.35961 0.0
N500 N 0.55626 0.72493 0.27477 0.0
H501 H 0.57742 0.77127 0.30442 0.0
H502 H 0.49414 0.70039 0.37079 0.0
C503 C 0.51711 0.71956 0.54255 0.0
O504 O 0.53013 0.70864 0.4997 0.0
N505 N 0.52603 0.79992 0.47137 0.0
C506 C 0.50752 0.81049 0.4564 0.0
C507 C 0.51297 0.83258 0.50801 0.0
C508 C 0.54202 0.8154 0.53272 0.0
N509 N 0.53479 0.83577 0.5557 0.0
C510 C 0.59031 0.82011 0.41277 0.0
C511 C 0.62029 0.79121 0.45654 0.0
C512 C 0.63707 0.81963 0.42137 0.0
C513 C 0.62137 0.83437 0.40294 0.0
C514 C 0.58904 0.77778 0.46647 0.0
N515 N 0.57401 0.79159 0.44113 0.0
H516 H 0.57904 0.83159 0.39278 0.0
H517 H 0.57695 0.75532 0.48838 0.0
H518 H 0.4905 0.80251 0.41283 0.0
H519 H 0.55841 0.81154 0.56034 0.0
O520 O 0.53488 0.79221 0.3192 0.0
O521 O 0.4918 0.75743 0.36115 0.0
O522 O 0.51655 0.7432 0.51812 0.0
C523 C 0.5064 0.77773 0.30821 0.0
H524 H 0.5179 0.68027 0.26883 0.0
H525 H 0.50052 0.84411 0.51269 0.0
H526 H 0.63078 0.7785 0.47256 0.0
H527 H 0.63275 0.85668 0.37877 0.0
Co528 Co 0.29416 0.7773 0.42274 0.0
C529 C 0.32635 0.83242 0.33344 0.0
C530 C 0.3547 0.81519 0.36603 0.0
C531 C 0.37179 0.84265 0.33183 0.0
N532 N 0.32644 0.80938 0.36876 0.0
N533 N 0.35393 0.85362 0.3125 0.0
H534 H 0.30647 0.83347 0.32196 0.0
H535 H 0.36238 0.80091 0.38947 0.0
C536 C 0.34364 0.81378 0.55141 0.0
O537 O 0.35374 0.8382 0.51006 0.0
N538 N 0.26173 0.74532 0.47813 0.0
C539 C 0.23971 0.71848 0.4537 0.0
C540 C 0.22025 0.70456 0.51377 0.0
C541 C 0.25516 0.74748 0.55167 0.0
N542 N 0.23011 0.72293 0.57506 0.0
C543 C 0.2472 0.7903 0.41096 0.0
C544 C 0.27544 0.84898 0.45784 0.0
C545 C 0.24781 0.83769 0.41962 0.0
C546 C 0.2334 0.80734 0.39958 0.0
C547 C 0.28853 0.83085 0.46905 0.0
N548 N 0.27515 0.80212 0.44177 0.0
H549 H 0.23562 0.76753 0.39068 0.0
H550 H 0.31018 0.8409 0.49463 0.0
H551 H 0.23749 0.70942 0.39667 0.0
H552 H 0.26837 0.76688 0.58718 0.0
O553 O 0.27366 0.76075 0.32373 0.0
O554 O 0.30378 0.74778 0.37282 0.0
O555 O 0.32044 0.78922 0.52632 0.0
C556 C 0.28565 0.74427 0.31635 0.0
H557 H 0.39532 0.85306 0.31878 0.0
H558 H 0.20098 0.68227 0.51317 0.0
H559 H 0.28769 0.87208 0.47592 0.0
H560 H 0.21156 0.79659 0.37347 0.0
Co561 Co 0.28628 0.53064 0.42081 0.0
C562 C 0.237 0.50265 0.31537 0.0
C563 C 0.24247 0.5445 0.35371 0.0
C564 C 0.21948 0.53191 0.30148 0.0
N565 N 0.2529 0.52568 0.36301 0.0
N566 N 0.21614 0.50554 0.27743 0.0
H567 H 0.24219 0.48522 0.30415 0.0
H568 H 0.25176 0.56626 0.38021 0.0
C569 C 0.24848 0.54324 0.54748 0.0
O570 O 0.22399 0.52832 0.5073 0.0
N571 N 0.31949 0.53457 0.47888 0.0
C572 C 0.34721 0.54202 0.45565 0.0
C573 C 0.36154 0.53737 0.51583 0.0
C574 C 0.31737 0.52545 0.55218 0.0
N575 N 0.34261 0.52685 0.57603 0.0
C576 C 0.27809 0.4723 0.41993 0.0
C577 C 0.21808 0.43905 0.45189 0.0
C578 C 0.23179 0.42393 0.41909 0.0
C579 C 0.26263 0.44153 0.40548 0.0
C580 C 0.23452 0.47047 0.46451 0.0
N581 N 0.26411 0.48709 0.44534 0.0
H582 H 0.30127 0.48473 0.40349 0.0
H583 H 0.22272 0.48137 0.48375 0.0
H584 H 0.35652 0.54968 0.39906 0.0
H585 H 0.29737 0.51709 0.58668 0.0
O586 O 0.30418 0.52652 0.32446 0.0
O587 O 0.31334 0.56978 0.36611 0.0
O588 O 0.27294 0.54497 0.52155 0.0
C589 C 0.31857 0.55507 0.31298 0.0
H590 H 0.20831 0.54286 0.27693 0.0
H591 H 0.38427 0.54193 0.5158 0.0
H592 H 0.19458 0.42707 0.46562 0.0
H593 H 0.2751 0.43238 0.37907 0.0
C594 C 0.22386 0.20254 0.99126 0.0
C595 C 0.20198 0.18909 0.93448 0.0
H596 H 0.23238 0.21415 0.11044 0.0
C597 C 0.17267 0.1817 0.9497 0.0
H598 H 0.24655 0.20801 0.9799 0.0
C599 C 0.16461 0.18524 1.0233 0.0
C600 C 0.18581 0.19573 0.08253 0.0
H601 H 0.15567 0.17108 0.90602 0.0
H602 H 0.14136 0.17734 1.03518 0.0
C603 C 0.21573 0.20564 0.0655 0.0
C604 C 0.85611 0.03377 1.00163 0.0
C605 C 0.88246 0.03965 0.96376 0.0
H606 H 0.82884 1.01559 0.10254 0.0
C607 C 0.90166 0.03181 0.99977 0.0
H608 H 0.84096 0.03976 0.97542 0.0
C609 C 0.89575 1.01992 0.0729 0.0
C610 C 0.86938 1.01346 0.11104 0.0
H611 H 0.92172 0.03509 0.97201 0.0
H612 H 0.91218 1.01579 0.09903 0.0
C613 C 0.84948 1.0205 0.07485 0.0
C614 C 1.01989 0.87221 0.12621 0.0
C615 C 0.04186 0.86476 0.13972 0.0
H616 H 0.9929 0.8773 0.04253 0.0
C617 C 0.0503 0.85194 0.08125 0.0
H618 H 1.01351 0.88237 0.17115 0.0
C619 C 0.03904 0.84952 1.00731 0.0
C620 C 1.01898 0.8595 0.99214 0.0
H621 H 0.06756 0.84646 0.0912 0.0
H622 H 0.04716 0.84144 0.96125 0.0
C623 C 1.00828 0.86936 0.05287 0.0
C624 C 0.88315 0.90059 0.05794 0.0
C625 C 0.9067 0.91558 0.11075 0.0
H626 H 0.86783 0.87748 0.94989 0.0
C627 C 0.93424 0.91794 0.08845 0.0
H628 H 0.86156 0.89789 0.07107 0.0
C629 C 0.93805 0.90606 1.01785 0.0
C630 C 0.91447 0.89102 0.96508 0.0
H631 H 0.95331 0.92909 0.12614 0.0
H632 H 0.95961 0.90865 1.00488 0.0
C633 C 0.88694 0.8887 0.98741 0.0
C634 C 0.18391 1.02241 0.99666 0.0
C635 C 0.17904 0.04591 0.97178 0.0
H636 H 0.17504 0.98737 0.0793 0.0
C637 C 0.15928 0.0504 1.01797 0.0
H638 H 0.19867 1.01752 0.96392 0.0
C639 C 0.14562 0.03277 0.08532 0.0
C640 C 0.15058 1.00936 0.11032 0.0
H641 H 0.15443 0.06776 1.00253 0.0
H642 H 0.13099 0.03774 0.11839 0.0
C643 C 0.17006 1.00463 0.06363 0.0
C644 C 1.00977 0.15359 1.01954 0.0
C645 C 1.01865 0.13874 0.96712 0.0
H646 H 1.01725 0.17688 0.12722 0.0
C647 C 0.04404 0.13686 0.98963 0.0
H648 H 0.99072 0.15594 1.00617 0.0
C649 C 0.05962 0.14904 0.0601 0.0
C650 C 0.05077 0.16393 0.11249 0.0
H651 H 0.0522 0.12585 0.9522 0.0
H652 H 0.07875 0.1468 0.0733 0.0
C653 C 1.02536 0.1658 0.08996 0.0
C654 C 0.88511 0.54266 0.41729 0.0
C655 C 0.85503 0.53348 0.43024 0.0
H656 H 0.91741 0.54576 0.33534 0.0
C657 C 0.8356 0.52585 0.36748 0.0
H658 H 0.90056 0.54915 0.46483 0.0
C659 C 0.84526 0.52406 0.29418 0.0
C660 C 0.87448 0.53027 0.28274 0.0
H661 H 0.8123 0.51863 0.37591 0.0
H662 H 0.82933 0.5153 0.24754 0.0
C663 C 0.89486 0.54124 0.3435 0.0
C664 C 0.52378 0.37121 0.34539 0.0
C665 C 0.53592 0.36265 0.2855 0.0
H666 H 0.51424 0.36795 0.46607 0.0
C667 C 0.54261 0.33995 0.2974 0.0
H668 H 0.51882 0.38897 0.33684 0.0
C669 C 0.54015 0.32806 0.37055 0.0
C670 C 0.53133 0.33912 0.43272 0.0
H671 H 0.55221 0.33339 0.2514 0.0
H672 H 0.54776 0.31231 0.37947 0.0
C673 C 0.52165 0.35959 0.41904 0.0
C674 C 0.73896 0.23179 0.36973 0.0
C675 C 0.72755 0.21185 0.43211 0.0
H676 H 0.73405 0.23871 0.25055 0.0
C677 C 0.70671 0.18162 0.41873 0.0
H678 H 0.75499 0.25521 0.37838 0.0
C679 C 0.69516 0.1722 0.34517 0.0
C680 C 0.70416 0.19304 0.28508 0.0
H681 H 0.69806 0.16577 0.46589 0.0
H682 H 0.67716 0.14949 0.33686 0.0
C683 C 0.72716 0.22244 0.29669 0.0
C684 C 0.5994 0.25938 0.34454 0.0
C685 C 0.59837 0.23231 0.32287 0.0
H686 H 0.58766 0.28347 0.42614 0.0
C687 C 0.58307 0.20818 0.37451 0.0
H688 H 0.61064 0.27882 0.30756 0.0
C689 C 0.5697 0.21102 0.44354 0.0
C690 C 0.57071 0.23809 0.46521 0.0
H691 H 0.58126 0.18689 0.36161 0.0
H692 H 0.55836 0.19155 0.48037 0.0
C693 C 0.586 0.26222 0.41351 0.0
C694 C 0.8086 0.35957 0.34194 0.0
C695 C 0.83567 0.38569 0.31995 0.0
H696 H 0.78437 0.32374 0.42426 0.0
C697 C 0.85961 0.39471 0.37154 0.0
H698 H 0.78933 0.35126 0.30495 0.0
C699 C 0.8566 0.37858 0.44093 0.0
C700 C 0.82953 0.35245 0.46293 0.0
H701 H 0.88088 0.41428 0.3583 0.0
H702 H 0.87591 0.38684 0.47776 0.0
C703 C 0.8056 0.34341 0.41128 0.0
C704 C 0.70635 0.46707 0.34324 0.0
C705 C 0.68111 0.46927 0.32095 0.0
H706 H 0.7419 0.47785 0.4248 0.0
C707 C 0.67346 0.48566 0.3715 0.0
H708 H 0.71362 0.45493 0.30713 0.0
C709 C 0.69007 0.49902 0.43996 0.0
C710 C 0.71535 0.49686 0.46218 0.0
H711 H 0.65464 0.48839 0.35807 0.0
H712 H 0.68288 0.51127 0.47589 0.0
C713 C 0.72295 0.48042 0.41169 0.0
C714 C 0.53759 0.87604 0.63606 0.0
C715 C 0.54336 0.85254 0.62579 0.0
H716 H 0.52856 0.9014 0.71749 0.0
C717 C 0.55267 0.84239 0.68905 0.0
H718 H 0.5317 0.88527 0.58784 0.0
C719 C 0.55146 0.8521 0.76268 0.0
C720 C 0.54074 0.87182 0.77363 0.0
H721 H 0.55777 0.82467 0.68338 0.0
H722 H 0.55545 0.84144 0.81117 0.0
C723 C 0.53605 0.88548 0.70985 0.0
C724 C 0.23075 0.71454 0.78702 0.0
C725 C 0.20145 0.69168 0.80001 0.0
H726 H 0.26299 0.74259 0.70427 0.0
C727 C 0.18033 0.683 0.74119 0.0
H728 H 0.24722 0.72119 0.83217 0.0
C729 C 0.1893 0.69488 0.66742 0.0
C730 C 0.21937 0.71569 0.65254 0.0
H731 H 0.15767 0.66511 0.75062 0.0
H732 H 0.17319 0.68652 0.62122 0.0
C733 C 0.23966 0.72665 0.71386 0.0
C734 C 0.37028 0.51295 0.66539 0.0
C735 C 0.34924 0.52189 0.65261 0.0
H736 H 0.39955 0.51008 0.7472 0.0
C737 C 0.33727 0.52933 0.71549 0.0
H738 H 0.37936 0.50661 0.61776 0.0
C739 C 0.34869 0.53115 0.78875 0.0
C740 C 0.37182 0.52517 0.80005 0.0
H741 H 0.32108 0.53637 0.70721 0.0
H742 H 0.34139 0.53977 0.83549 0.0
C743 C 0.38141 0.51441 0.73914 0.0
C744 C 0.21607 0.56961 0.71438 0.0
C745 C 0.2403 0.5859 0.76449 0.0
H746 H 0.19949 0.544 0.6101 0.0
C747 C 0.26763 0.58795 0.74153 0.0
H748 H 0.19458 0.567 0.72835 0.0
C749 C 0.27062 0.57454 0.67284 0.0
C750 C 0.24638 0.55817 0.6228 0.0
H751 H 0.28716 0.6 0.77728 0.0
H752 H 0.29206 0.57697 0.65919 0.0
C753 C 0.21905 0.55618 0.64568 0.0
C754 C 0.50481 0.67739 0.6414 0.0
C755 C 0.50308 0.70301 0.61924 0.0
H756 H 0.49433 0.64205 0.72433 0.0
C757 C 0.48768 0.71146 0.67096 0.0
H758 H 0.51627 0.66957 0.60453 0.0
C759 C 0.47486 0.69525 0.74054 0.0
C760 C 0.47662 0.66965 0.76269 0.0
H761 H 0.48547 0.73069 0.65782 0.0
H762 H 0.46347 0.70309 0.77758 0.0
C763 C 0.49201 0.6612 0.71101 0.0
C764 C 0.4018 0.84874 0.71823 0.0
C765 C 0.39857 0.82411 0.76103 0.0
H766 H 0.3878 0.86493 0.62218 0.0
C767 C 0.37587 0.79552 0.73485 0.0
H768 H 0.41848 0.87114 0.73508 0.0
C769 C 0.35764 0.79174 0.66942 0.0
C770 C 0.3612 0.81639 0.62593 0.0
H771 H 0.37201 0.77561 0.76528 0.0
H772 H 0.34101 0.76935 0.65235 0.0
C773 C 0.38378 0.84496 0.65258 0.0
C774 C 0.22986 0.37479 0.38541 0.0
C775 C 0.21477 0.39083 0.39617 0.0
H776 H 0.22898 0.33528 0.349 0.0
C777 C 0.18379 0.37498 0.38107 0.0
H778 H 0.25331 0.3848 0.39776 0.0
C779 C 0.16887 0.34471 0.35661 0.0
C780 C 0.18431 0.329 0.34471 0.0
H781 H 0.17084 0.38591 0.38723 0.0
H782 H 0.14507 0.33368 0.34788 0.0
C783 C 0.21529 0.34517 0.35875 0.0
C784 C 0.71371 0.86696 0.32104 0.0
C785 C 0.73298 0.86105 0.36499 0.0
H786 H 0.66949 0.85871 0.30212 0.0
C787 C 0.71991 0.84049 0.42662 0.0
H788 H 0.72233 0.88262 0.27352 0.0
C789 C 0.68929 0.82716 0.44467 0.0
C790 C 0.67014 0.83354 0.40167 0.0
H791 H 0.73331 0.83449 0.46159 0.0
H792 H 0.68086 0.81217 0.49358 0.0
C793 C 0.68306 0.85346 0.33873 0.0
C794 C 0.23819 0.88106 0.44505 0.0
C795 C 0.23397 0.85678 0.3992 0.0
H796 H 0.2282 0.91596 0.46477 0.0
C797 C 0.21576 0.85056 0.3333 0.0
H798 H 0.25188 0.88696 0.4961 0.0
C799 C 0.2016 0.86705 0.3157 0.0
C800 C 0.20504 0.8907 0.36288 0.0
H801 H 0.21228 0.83276 0.29458 0.0
H802 H 0.18725 0.86058 0.26583 0.0
C803 C 0.2241 0.89763 0.42727 0.0
C804 C 0.38292 0.17309 0.64538 0.0
C805 C 0.40262 0.19863 0.68795 0.0
H806 H 0.33822 0.13708 0.62867 0.0
C807 C 0.39046 0.20588 0.75179 0.0
H808 H 0.39089 0.16643 0.596 0.0
C809 C 0.35983 0.18898 0.77049 0.0
C810 C 0.33999 0.16414 0.72603 0.0
H811 H 0.40464 0.2248 0.78777 0.0
H812 H 0.35156 0.19605 0.81846 0.0
C813 C 0.35234 0.15627 0.66398 0.0
C814 C 0.91028 0.21553 0.65368 0.0
C815 C 0.9019 0.19424 0.71376 0.0
H816 H 0.90051 0.24473 0.58799 0.0
C817 C 0.87621 0.18784 0.75628 0.0
H818 H 0.9301 0.22183 0.61991 0.0
C819 C 0.85936 0.20156 0.73855 0.0
C820 C 0.86725 0.2222 0.67709 0.0
H821 H 0.86853 0.17161 0.80255 0.0
H822 H 0.84005 0.19588 0.77384 0.0
C823 C 0.89333 0.22914 0.63567 0.0
C824 C 0.89815 0.7102 0.72123 0.0
C825 C 0.88334 0.72633 0.7352 0.0
H826 H 0.89644 0.67047 0.68305 0.0
C827 C 0.8521 0.71049 0.72407 0.0
H828 H 0.92182 0.72023 0.73042 0.0
C829 C 0.83667 0.68013 0.70041 0.0
C830 C 0.8518 0.66432 0.68539 0.0
H831 H 0.83933 0.72148 0.73278 0.0
H832 H 0.81273 0.6691 0.6948 0.0
C833 C 0.88302 0.68048 0.69539 0.0
C834 C 0.04932 0.50514 0.97765 0.0
C835 C 0.06981 0.52798 1.02624 0.0
H836 H 1.00406 0.47163 0.95568 0.0
C837 C 0.0581 0.53458 0.09188 0.0
H838 H 0.0572 0.49893 0.92718 0.0
C839 C 1.02723 0.51923 0.10789 0.0
C840 C 1.00654 0.49624 0.05951 0.0
H841 H 0.07285 0.55221 0.13057 0.0
H842 H 1.01968 0.52604 0.15778 0.0
C843 C 1.01846 0.48943 0.99427 0.0
C844 C 0.53519 0.53622 0.97638 0.0
C845 C 0.53759 0.55936 1.02429 0.0
H846 H 0.54762 0.5031 0.95454 0.0
C847 C 0.55628 0.56628 0.08957 0.0
H848 H 0.52086 0.52933 0.92649 0.0
C849 C 0.57129 0.55054 0.10669 0.0
C850 C 0.56884 0.52755 0.05858 0.0
H851 H 0.55977 0.5842 0.12781 0.0
H852 H 0.58534 0.55684 0.15716 0.0
C853 C 0.55058 0.52084 0.99289 0.0
C854 C 0.52224 0.05003 0.98998 0.0
C855 C 0.54032 0.06206 0.05621 0.0
H856 H 0.49633 1.01186 0.9178 0.0
C857 C 0.54361 0.04166 0.1032 0.0
H858 H 0.51807 0.06417 0.9524 0.0
C859 C 0.5302 1.01111 0.08419 0.0
C860 C 0.51321 0.9993 1.01632 0.0
H861 H 0.55723 0.04924 0.15436 0.0
H862 H 0.53337 0.99678 0.12363 0.0
C863 C 0.50915 1.01945 0.97031 0.0
C864 C 0.16389 0.16544 0.51231 0.0
C865 C 0.13438 0.14908 0.48447 0.0
H866 H 0.19825 0.16725 0.58473 0.0
C867 C 0.11646 0.12008 0.51638 0.0
H868 H 0.1788 0.18769 0.49026 0.0
C869 C 0.12769 0.10842 0.57402 0.0
C870 C 0.15759 0.12488 0.60002 0.0
H871 H 0.09363 0.10649 0.49751 0.0
H872 H 0.11315 0.08622 0.5968 0.0
C873 C 0.17525 0.15355 0.56719 0.0
C874 C 0.90927 0.03795 0.56858 0.0
C875 C 0.9381 0.04953 0.59973 0.0
H876 H 0.87545 1.00753 0.49071 0.0
C877 C 0.95546 0.03798 0.56817 0.0
H878 H 0.89497 0.04599 0.58986 0.0
C879 C 0.94435 1.01612 0.50765 0.0
C880 C 0.91514 1.00434 0.47781 0.0
H881 H 0.97789 0.04629 0.58895 0.0
H882 H 0.95845 1.00801 0.48546 0.0
C883 C 0.89798 1.01571 0.51067 0.0
C884 C 0.04759 0.90019 0.50269 0.0
C885 C 0.05965 0.92924 0.47165 0.0
H886 H 1.01656 0.86613 0.57937 0.0
C887 C 0.04752 0.94649 0.50057 0.0
H888 H 0.05597 0.88594 0.4832 0.0
C889 C 1.02484 0.93514 0.55921 0.0
C890 C 1.01278 0.90577 0.58952 0.0
H891 H 0.05613 0.96908 0.47962 0.0
H892 H 1.01667 0.94933 0.58039 0.0
C893 C 1.02464 0.88868 0.5587 0.0
C894 C 0.84277 0.82546 0.53237 0.0
C895 C 0.86805 0.82438 0.55525 0.0
H896 H 0.82451 0.83875 0.44191 0.0
C897 C 0.88425 0.81912 0.49848 0.0
H898 H 0.82869 0.82757 0.57489 0.0
C899 C 0.88221 0.82634 0.42233 0.0
C900 C 0.86478 0.83932 0.40675 0.0
H901 H 0.90277 0.81615 0.51372 0.0
H902 H 0.89969 0.82959 0.38266 0.0
C903 C 0.84033 0.83164 0.45554 0.0
C904 C 0.23987 0.05538 0.4764 0.0
C905 C 0.22218 1.02699 0.44484 0.0
H906 H 0.24789 0.08027 0.57908 0.0
C907 C 0.21679 1.00237 0.49122 0.0
H908 H 0.24676 0.07509 0.44119 0.0
C909 C 0.21407 1.00464 0.57038 0.0
C910 C 0.22173 0.03252 0.60095 0.0
H911 H 0.20647 0.98023 0.46696 0.0
H912 H 0.20154 0.9845 0.60435 0.0
C913 C 0.23981 0.05819 0.55609 0.0
C914 C 1.03697 0.22246 0.62642 0.0
C915 C 0.05393 0.21454 0.67346 0.0
H916 H 1.02896 0.22728 0.50804 0.0
C917 C 0.08432 0.22767 0.65677 0.0
H918 H 1.01407 0.21524 0.64127 0.0
C919 C 0.09336 0.23549 0.58061 0.0
C920 C 0.07165 0.23046 0.52492 0.0
H921 H 0.0987 0.22421 0.69522 0.0
H922 H 0.11486 0.23866 0.56423 0.0
C923 C 0.04535 0.22919 0.54951 0.0
C924 C 0.7836 0.45808 0.86896 0.0
C925 C 0.80157 0.4865 0.8341 0.0
H926 H 0.78038 0.42541 0.95333 0.0
C927 C 0.83114 0.50323 0.86131 0.0
H928 H 0.76072 0.44426 0.85069 0.0
C929 C 0.84252 0.49219 0.91836 0.0
C930 C 0.82484 0.4641 0.954 0.0
H931 H 0.84607 0.52508 0.83702 0.0
H932 H 0.86561 0.50603 0.93508 0.0
C933 C 0.79489 0.44728 0.92864 0.0
C934 C 0.61838 0.36661 0.9293 0.0
C935 C 0.6015 0.37932 0.9569 0.0
H936 H 0.62131 0.33585 0.84945 0.0
C937 C 0.57317 0.36844 0.9234 0.0
H938 H 0.64042 0.37436 0.95219 0.0
C939 C 0.56197 0.34597 0.8662 0.0
C940 C 0.57878 0.33362 0.83673 0.0
H941 H 0.55929 0.37737 0.94185 0.0
H942 H 0.53997 0.3387 0.84355 0.0
C943 C 0.60741 0.34452 0.86952 0.0
C944 C 0.70172 0.27289 0.92832 0.0
C945 C 0.68899 0.24333 0.95748 0.0
H946 H 0.73237 0.30621 0.84678 0.0
C947 C 0.69972 0.22555 0.9251 0.0
H948 H 0.69405 0.2874 0.95024 0.0
C949 C 0.72205 0.23648 0.86743 0.0
C950 C 0.73442 0.26561 0.83639 0.0
H951 H 0.69072 0.20272 0.94472 0.0
H952 H 0.72918 0.22151 0.84559 0.0
C953 C 0.72369 0.28366 0.86813 0.0
C954 C 0.51611 0.1728 0.99094 0.0
C955 C 0.52613 0.19948 1.03254 0.0
H956 H 0.506 0.15509 0.87696 0.0
C957 C 0.51421 0.2176 1.01366 0.0
H958 H 0.52294 0.15697 1.00732 0.0
C959 C 0.50352 0.21597 0.93935 0.0
C960 C 0.50516 0.19621 0.88669 0.0
H961 H 0.51988 0.23725 0.04769 0.0
H962 H 0.5008 0.23428 0.91962 0.0
C963 C 0.50638 0.17162 0.91576 0.0
C964 C 0.85186 0.31601 1.00966 0.0
C965 C 0.86994 0.34626 1.0281 0.0
H966 H 0.83446 0.28585 0.9158 0.0
C967 C 0.89617 0.36315 0.98488 0.0
H968 H 0.8326 0.30183 0.04493 0.0
C969 C 0.89674 0.35467 0.90918 0.0
C970 C 0.87205 0.32866 0.88124 0.0
H971 H 0.91203 0.38596 1.00076 0.0
H972 H 0.91287 0.371 0.86958 0.0
C973 C 0.85284 0.30703 0.93475 0.0
C974 C 0.75085 0.55462 1.00905 0.0
C975 C 0.72067 0.54278 1.02672 0.0
H976 H 0.78149 0.56731 0.91617 0.0
C977 C 0.70442 0.55247 0.98262 0.0
H978 H 0.76452 0.54922 0.04494 0.0
C979 C 0.71352 0.56175 0.90719 0.0
C980 C 0.73939 0.56276 0.8801 0.0
H981 H 0.68166 0.54571 0.99776 0.0
H982 H 0.69769 0.56195 0.86705 0.0
C983 C 0.7604 0.56472 0.93435 0.0
C984 C 0.50653 0.82024 0.23534 0.0
C985 C 0.49249 0.78921 0.24919 0.0
H986 H 0.50739 0.85674 0.17494 0.0
C987 C 0.46643 0.77101 0.20566 0.0
H988 H 0.52639 0.83535 0.26716 0.0
C989 C 0.45566 0.78356 0.14924 0.0
C990 C 0.46993 0.81486 0.13633 0.0
H991 H 0.45476 0.74701 0.21379 0.0
H992 H 0.43607 0.76875 0.11619 0.0
C993 C 0.49536 0.83268 0.18177 0.0
C994 C 0.24666 0.70981 0.21949 0.0
C995 C 0.27512 0.72047 0.25241 0.0
H996 H 0.21292 0.67994 0.14058 0.0
C997 C 0.29195 0.70807 0.22248 0.0
H998 H 0.23261 0.71826 0.23987 0.0
C999 C 0.28071 0.68623 0.16207 0.0
C1000 C 0.25184 0.67528 0.13087 0.0
H1001 H 0.31393 0.71538 0.24524 0.0
H1002 H 0.2943 0.67728 0.14149 0.0
C1003 C 0.23521 0.68758 0.16166 0.0
C1004 C 0.35297 0.59715 0.2148 0.0
C1005 C 0.34244 0.56869 0.2493 0.0
H1006 H 0.38253 0.62995 0.13055 0.0
C1007 C 0.35522 0.552 0.22162 0.0
H1008 H 0.34395 0.61093 0.23347 0.0
C1009 C 0.37769 0.56314 0.16442 0.0
C1010 C 0.38818 0.59128 0.12914 0.0
H1011 H 0.34825 0.53013 0.24565 0.0
H1012 H 0.3869 0.54934 0.14731 0.0
C1013 C 0.37509 0.60805 0.15496 0.0
C1014 C 0.22264 0.4897 0.15056 0.0
C1015 C 0.20375 0.49207 0.20471 0.0
H1016 H 0.24238 0.50468 1.03979 0.0
C1017 C 0.17903 0.49328 0.17747 0.0
H1018 H 0.24096 0.48687 0.16887 0.0
C1019 C 0.17935 0.50236 0.10182 0.0
C1020 C 0.20534 0.51176 0.05774 0.0
H1021 H 0.16309 0.49335 0.21754 0.0
H1022 H 0.16354 0.50928 0.08651 0.0
C1023 C 0.22332 0.4996 0.07561 0.0
C1024 C 0.5733 0.74831 0.14915 0.0
C1025 C 0.57042 0.72656 0.20271 0.0
H1026 H 0.55892 0.75379 1.03859 0.0
C1027 C 0.56915 0.70059 0.17476 0.0
H1028 H 0.57619 0.7695 0.16812 0.0
C1029 C 0.56045 0.69226 0.09882 0.0
C1030 C 0.5514 0.70924 0.05533 0.0
H1031 H 0.56865 0.68418 0.21441 0.0
H1032 H 0.55344 0.66945 0.08288 0.0
C1033 C 0.56371 0.73948 0.07396 0.0
C1034 C 0.34213 0.87268 0.19778 0.0
C1035 C 0.36145 0.87765 0.25964 0.0
H1036 H 0.33905 0.87103 0.07558 0.0
C1037 C 0.3915 0.89959 0.25098 0.0
H1038 H 0.31835 0.85792 0.20354 0.0
C1039 C 0.40333 0.90703 0.17699 0.0
C1040 C 0.38478 0.8913 0.11468 0.0
H1041 H 0.40659 0.90598 0.29935 0.0
H1042 H 0.42729 0.91953 0.17105 0.0
C1043 C 0.35409 0.88006 0.1239 0.0
loop_
_geom_bond_atom_site_label_1
_geom_bond_atom_site_label_2
_geom_bond_distance
_geom_bond_site_symmetry_2
_ccdc_geom_bond_type
Co0 N4 2.148 . S
Co0 N10 2.128 . S
Co0 N20 2.194 . S
Co0 O25 2.351 . S
Co0 O26 2.155 . S
Co0 O27 2.096 . S
C1 N4 1.301 . S
C1 N5 1.328 . S
C1 H6 0.930 . S
C2 C3 1.333 . S
C2 N4 1.317 . S
C2 H7 0.930 . S
C3 C2 1.333 . S
C3 N5 1.350 . S
C3 H29 0.931 1_455 S
N4 Co0 2.148 . S
N4 C1 1.301 . S
N4 C2 1.317 . S
N5 C1 1.328 . S
N5 C3 1.350 . S
H6 C1 0.930 . S
H7 C2 0.930 . S
C8 O9 1.224 . S
C8 O27 1.247 . S
O9 C8 1.224 . S
N10 Co0 2.128 . S
N10 C11 1.355 . S
N10 C13 1.311 . S
C11 N10 1.355 . S
C11 C12 1.363 . S
C11 H23 0.929 . S
C12 C11 1.363 . S
C12 N14 1.375 . S
C12 H30 0.931 . S
C13 N10 1.311 . S
C13 N14 1.347 . S
C13 H24 0.929 . S
N14 C12 1.375 . S
N14 C13 1.347 . S
C15 C18 1.365 . S
C15 N20 1.328 . S
C15 H21 0.929 . S
C16 C17 1.362 . S
C16 C19 1.378 . S
C16 H31 0.929 . S
C17 C16 1.362 . S
C17 C18 1.366 . S
C18 C15 1.365 . S
C18 C17 1.366 . S
C18 H32 0.930 . S
C19 C16 1.378 . S
C19 N20 1.315 . S
C19 H22 0.930 . S
N20 Co0 2.194 . S
N20 C15 1.328 . S
N20 C19 1.315 . S
H21 C15 0.929 . S
H22 C19 0.930 . S
H23 C11 0.929 . S
H24 C13 0.929 . S
O25 Co0 2.351 . S
O25 C28 1.244 . S
O26 Co0 2.155 . S
O26 C28 1.240 . S
O27 Co0 2.096 . S
O27 C8 1.247 . S
C28 O25 1.244 . S
C28 O26 1.240 . S
H29 C3 0.931 1_655 S
H30 C12 0.931 . S
H31 C16 0.929 . S
H32 C18 0.930 . S
Co33 N37 2.148 . S
Co33 N43 2.128 . S
Co33 N53 2.194 . S
Co33 O58 2.351 . S
Co33 O59 2.155 . S
Co33 O60 2.096 . S
C34 N37 1.301 . S
C34 N38 1.328 . S
C34 H39 0.930 . S
C35 C36 1.333 . S
C35 N37 1.317 . S
C35 H40 0.930 . S
C36 C35 1.333 . S
C36 N38 1.350 . S
C36 H62 0.931 . S
N37 Co33 2.148 . S
N37 C34 1.301 . S
N37 C35 1.317 . S
N38 C34 1.328 . S
N38 C36 1.350 . S
H39 C34 0.930 . S
H40 C35 0.930 . S
C41 O42 1.224 . S
C41 O60 1.247 . S
O42 C41 1.224 . S
N43 Co33 2.128 . S
N43 C44 1.355 . S
N43 C46 1.311 . S
C44 N43 1.355 . S
C44 C45 1.363 . S
C44 H56 0.929 . S
C45 C44 1.363 . S
C45 N47 1.375 . S
C45 H63 0.931 . S
C46 N43 1.311 . S
C46 N47 1.347 . S
C46 H57 0.929 . S
N47 C45 1.375 . S
N47 C46 1.347 . S
C48 C51 1.365 . S
C48 N53 1.328 . S
C48 H54 0.929 . S
C49 C50 1.362 . S
C49 C52 1.378 . S
C49 H64 0.929 . S
C50 C49 1.362 . S
C50 C51 1.366 . S
C51 C48 1.365 . S
C51 C50 1.366 . S
C51 H65 0.930 . S
C52 C49 1.378 . S
C52 N53 1.315 . S
C52 H55 0.930 . S
N53 Co33 2.194 . S
N53 C48 1.328 . S
N53 C52 1.315 . S
H54 C48 0.929 . S
H55 C52 0.930 . S
H56 C44 0.929 . S
H57 C46 0.929 . S
O58 Co33 2.351 . S
O58 C61 1.244 . S
O59 Co33 2.155 . S
O59 C61 1.240 . S
O60 Co33 2.096 . S
O60 C41 1.247 . S
C61 O58 1.244 . S
C61 O59 1.240 . S
H62 C36 0.931 . S
H63 C45 0.931 . S
H64 C49 0.929 . S
H65 C51 0.930 . S
Co66 N70 2.148 . S
Co66 N76 2.128 . S
Co66 N86 2.194 . S
Co66 O91 2.351 . S
Co66 O92 2.155 . S
Co66 O93 2.096 . S
C67 N70 1.301 . S
C67 N71 1.328 . S
C67 H72 0.930 . S
C68 C69 1.333 . S
C68 N70 1.317 . S
C68 H73 0.930 . S
C69 C68 1.333 . S
C69 N71 1.350 . S
C69 H95 0.931 1_565 S
N70 Co66 2.148 . S
N70 C67 1.301 . S
N70 C68 1.317 . S
N71 C67 1.328 . S
N71 C69 1.350 . S
H72 C67 0.930 . S
H73 C68 0.930 . S
C74 O75 1.224 . S
C74 O93 1.247 . S
O75 C74 1.224 . S
N76 Co66 2.128 . S
N76 C77 1.355 . S
N76 C79 1.311 . S
C77 N76 1.355 . S
C77 C78 1.363 . S
C77 H89 0.929 . S
C78 C77 1.363 . S
C78 N80 1.375 . S
C78 H96 0.931 . S
C79 N76 1.311 . S
C79 N80 1.347 . S
C79 H90 0.929 . S
N80 C78 1.375 . S
N80 C79 1.347 . S
C81 C84 1.365 . S
C81 N86 1.328 . S
C81 H87 0.929 . S
C82 C83 1.362 . S
C82 C85 1.378 . S
C82 H97 0.929 . S
C83 C82 1.362 . S
C83 C84 1.366 . S
C84 C81 1.365 . S
C84 C83 1.366 . S
C84 H98 0.930 . S
C85 C82 1.378 . S
C85 N86 1.315 . S
C85 H88 0.930 . S
N86 Co66 2.194 . S
N86 C81 1.328 . S
N86 C85 1.315 . S
H87 C81 0.929 . S
H88 C85 0.930 . S
H89 C77 0.929 . S
H90 C79 0.929 . S
O91 Co66 2.351 . S
O91 C94 1.244 . S
O92 Co66 2.155 . S
O92 C94 1.240 . S
O93 Co66 2.096 . S
O93 C74 1.247 . S
C94 O91 1.244 . S
C94 O92 1.240 . S
H95 C69 0.931 1_545 S
H96 C78 0.931 . S
H97 C82 0.929 . S
H98 C84 0.930 . S
Co99 N103 2.148 . S
Co99 N109 2.128 . S
Co99 N119 2.194 . S
Co99 O124 2.351 . S
Co99 O125 2.155 . S
Co99 O126 2.096 . S
C100 N103 1.301 . S
C100 N104 1.328 . S
C100 H105 0.930 . S
C101 C102 1.333 . S
C101 N103 1.317 . S
C101 H106 0.930 . S
C102 C101 1.333 . S
C102 N104 1.350 . S
C102 H128 0.931 1_545 S
N103 Co99 2.148 . S
N103 C100 1.301 . S
N103 C101 1.317 . S
N104 C100 1.328 . S
N104 C102 1.350 . S
H105 C100 0.930 . S
H106 C101 0.930 . S
C107 O108 1.224 . S
C107 O126 1.247 . S
O108 C107 1.224 . S
N109 Co99 2.128 . S
N109 C110 1.355 . S
N109 C112 1.311 . S
C110 N109 1.355 . S
C110 C111 1.363 . S
C110 H122 0.929 . S
C111 C110 1.363 . S
C111 N113 1.375 . S
C111 H129 0.931 . S
C112 N109 1.311 . S
C112 N113 1.347 . S
C112 H123 0.929 . S
N113 C111 1.375 . S
N113 C112 1.347 . S
C114 C117 1.365 . S
C114 N119 1.328 . S
C114 H120 0.929 . S
C115 C116 1.362 . S
C115 C118 1.378 . S
C115 H130 0.929 . S
C116 C115 1.362 . S
C116 C117 1.366 . S
C117 C114 1.365 . S
C117 C116 1.366 . S
C117 H131 0.930 . S
C118 C115 1.378 . S
C118 N119 1.315 . S
C118 H121 0.930 . S
N119 Co99 2.194 . S
N119 C114 1.328 . S
N119 C118 1.315 . S
H120 C114 0.929 . S
H121 C118 0.930 . S
H122 C110 0.929 . S
H123 C112 0.929 . S
O124 Co99 2.351 . S
O124 C127 1.244 . S
O125 Co99 2.155 . S
O125 C127 1.240 . S
O126 Co99 2.096 . S
O126 C107 1.247 . S
C127 O124 1.244 . S
C127 O125 1.240 . S
H128 C102 0.931 1_565 S
H129 C111 0.931 . S
H130 C115 0.929 . S
H131 C117 0.930 . S
Co132 N136 2.148 . S
Co132 N142 2.128 . S
Co132 N152 2.194 . S
Co132 O157 2.351 . S
Co132 O158 2.155 . S
Co132 O159 2.096 . S
C133 N136 1.301 . S
C133 N137 1.328 . S
C133 H138 0.930 . S
C134 C135 1.333 . S
C134 N136 1.317 . S
C134 H139 0.930 . S
C135 C134 1.333 . S
C135 N137 1.350 . S
C135 H161 0.931 1_655 S
N136 Co132 2.148 . S
N136 C133 1.301 . S
N136 C134 1.317 . S
N137 C133 1.328 . S
N137 C135 1.350 . S
H138 C133 0.930 . S
H139 C134 0.930 . S
C140 O141 1.224 . S
C140 O159 1.247 . S
O141 C140 1.224 . S
N142 Co132 2.128 . S
N142 C143 1.355 . S
N142 C145 1.311 . S
C143 N142 1.355 . S
C143 C144 1.363 . S
C143 H155 0.929 . S
C144 C143 1.363 . S
C144 N146 1.375 . S
C144 H162 0.931 . S
C145 N142 1.311 . S
C145 N146 1.347 . S
C145 H156 0.929 . S
N146 C144 1.375 . S
N146 C145 1.347 . S
C147 C150 1.365 . S
C147 N152 1.328 . S
C147 H153 0.929 . S
C148 C149 1.362 . S
C148 C151 1.378 . S
C148 H163 0.929 . S
C149 C148 1.362 . S
C149 C150 1.366 . S
C150 C147 1.365 . S
C150 C149 1.366 . S
C150 H164 0.930 . S
C151 C148 1.378 . S
C151 N152 1.315 . S
C151 H154 0.930 . S
N152 Co132 2.194 . S
N152 C147 1.328 . S
N152 C151 1.315 . S
H153 C147 0.929 . S
H154 C151 0.930 . S
H155 C143 0.929 . S
H156 C145 0.929 . S
O157 Co132 2.351 . S
O157 C160 1.244 . S
O158 Co132 2.155 . S
O158 C160 1.240 . S
O159 Co132 2.096 . S
O159 C140 1.247 . S
C160 O157 1.244 . S
C160 O158 1.240 . S
H161 C135 0.931 1_455 S
H162 C144 0.931 . S
H163 C148 0.929 . S
H164 C150 0.930 . S
Co165 N169 2.148 . S
Co165 N175 2.128 . S
Co165 N185 2.194 . S
Co165 O190 2.351 . S
Co165 O191 2.155 . S
Co165 O192 2.096 . S
C166 N169 1.301 . S
C166 N170 1.328 . S
C166 H171 0.930 . S
C167 C168 1.333 . S
C167 N169 1.317 . S
C167 H172 0.930 . S
C168 C167 1.333 . S
C168 N170 1.350 . S
C168 H194 0.931 . S
N169 Co165 2.148 . S
N169 C166 1.301 . S
N169 C167 1.317 . S
N170 C166 1.328 . S
N170 C168 1.350 . S
H171 C166 0.930 . S
H172 C167 0.930 . S
C173 O174 1.224 . S
C173 O192 1.247 . S
O174 C173 1.224 . S
N175 Co165 2.128 . S
N175 C176 1.355 . S
N175 C178 1.311 . S
C176 N175 1.355 . S
C176 C177 1.363 . S
C176 H188 0.929 . S
C177 C176 1.363 . S
C177 N179 1.375 . S
C177 H195 0.931 . S
C178 N175 1.311 . S
C178 N179 1.347 . S
C178 H189 0.929 . S
N179 C177 1.375 . S
N179 C178 1.347 . S
C180 C183 1.365 . S
C180 N185 1.328 . S
C180 H186 0.929 . S
C181 C182 1.362 . S
C181 C184 1.378 . S
C181 H196 0.929 . S
C182 C181 1.362 . S
C182 C183 1.366 . S
C183 C180 1.365 . S
C183 C182 1.366 . S
C183 H197 0.930 . S
C184 C181 1.378 . S
C184 N185 1.315 . S
C184 H187 0.930 . S
N185 Co165 2.194 . S
N185 C180 1.328 . S
N185 C184 1.315 . S
H186 C180 0.929 . S
H187 C184 0.930 . S
H188 C176 0.929 . S
H189 C178 0.929 . S
O190 Co165 2.351 . S
O190 C193 1.244 . S
O191 Co165 2.155 . S
O191 C193 1.240 . S
O192 Co165 2.096 . S
O192 C173 1.247 . S
C193 O190 1.244 . S
C193 O191 1.240 . S
H194 C168 0.931 . S
H195 C177 0.931 . S
H196 C181 0.929 . S
H197 C183 0.930 . S
Co198 N202 2.148 . S
Co198 N208 2.128 . S
Co198 N218 2.194 . S
Co198 O223 2.351 . S
Co198 O224 2.155 . S
Co198 O225 2.096 . S
C199 N202 1.301 . S
C199 N203 1.328 . S
C199 H204 0.930 . S
C200 C201 1.333 . S
C200 N202 1.317 . S
C200 H205 0.930 . S
C201 C200 1.333 . S
C201 N203 1.350 . S
C201 H227 0.931 . S
N202 Co198 2.148 . S
N202 C199 1.301 . S
N202 C200 1.317 . S
N203 C199 1.328 . S
N203 C201 1.350 . S
H204 C199 0.930 . S
H205 C200 0.930 . S
C206 O207 1.224 . S
C206 O225 1.247 . S
O207 C206 1.224 . S
N208 Co198 2.128 . S
N208 C209 1.355 . S
N208 C211 1.311 . S
C209 N208 1.355 . S
C209 C210 1.363 . S
C209 H221 0.929 . S
C210 C209 1.363 . S
C210 N212 1.375 . S
C210 H228 0.931 . S
C211 N208 1.311 . S
C211 N212 1.347 . S
C211 H222 0.929 . S
N212 C210 1.375 . S
N212 C211 1.347 . S
C213 C216 1.365 . S
C213 N218 1.328 . S
C213 H219 0.929 . S
C214 C215 1.362 . S
C214 C217 1.378 . S
C214 H229 0.929 . S
C215 C214 1.362 . S
C215 C216 1.366 . S
C216 C213 1.365 . S
C216 C215 1.366 . S
C216 H230 0.930 . S
C217 C214 1.378 . S
C217 N218 1.315 . S
C217 H220 0.930 . S
N218 Co198 2.194 . S
N218 C213 1.328 . S
N218 C217 1.315 . S
H219 C213 0.929 . S
H220 C217 0.930 . S
H221 C209 0.929 . S
H222 C211 0.929 . S
O223 Co198 2.351 . S
O223 C226 1.244 . S
O224 Co198 2.155 . S
O224 C226 1.240 . S
O225 Co198 2.096 . S
O225 C206 1.247 . S
C226 O223 1.244 . S
C226 O224 1.240 . S
H227 C201 0.931 . S
H228 C210 0.931 . S
H229 C214 0.929 . S
H230 C216 0.930 . S
Co231 N235 2.148 . S
Co231 N241 2.128 . S
Co231 N251 2.194 . S
Co231 O256 2.351 . S
Co231 O257 2.155 . S
Co231 O258 2.096 . S
C232 N235 1.301 . S
C232 N236 1.328 . S
C232 H237 0.930 . S
C233 C234 1.333 . S
C233 N235 1.317 . S
C233 H238 0.930 . S
C234 C233 1.333 . S
C234 N236 1.350 . S
C234 H260 0.931 . S
N235 Co231 2.148 . S
N235 C232 1.301 . S
N235 C233 1.317 . S
N236 C232 1.328 . S
N236 C234 1.350 . S
H237 C232 0.930 . S
H238 C233 0.930 . S
C239 O240 1.224 . S
C239 O258 1.247 . S
O240 C239 1.224 . S
N241 Co231 2.128 . S
N241 C242 1.355 . S
N241 C244 1.311 . S
C242 N241 1.355 . S
C242 C243 1.363 . S
C242 H254 0.929 . S
C243 C242 1.363 . S
C243 N245 1.375 . S
C243 H261 0.931 . S
C244 N241 1.311 . S
C244 N245 1.347 . S
C244 H255 0.929 . S
N245 C243 1.375 . S
N245 C244 1.347 . S
C246 C249 1.365 . S
C246 N251 1.328 . S
C246 H252 0.929 . S
C247 C248 1.362 . S
C247 C250 1.378 . S
C247 H262 0.929 . S
C248 C247 1.362 . S
C248 C249 1.366 . S
C249 C246 1.365 . S
C249 C248 1.366 . S
C249 H263 0.930 . S
C250 C247 1.378 . S
C250 N251 1.315 . S
C250 H253 0.930 . S
N251 Co231 2.194 . S
N251 C246 1.328 . S
N251 C250 1.315 . S
H252 C246 0.929 . S
H253 C250 0.930 . S
H254 C242 0.929 . S
H255 C244 0.929 . S
O256 Co231 2.351 . S
O256 C259 1.244 . S
O257 Co231 2.155 . S
O257 C259 1.240 . S
O258 Co231 2.096 . S
O258 C239 1.247 . S
C259 O256 1.244 . S
C259 O257 1.240 . S
H260 C234 0.931 . S
H261 C243 0.931 . S
H262 C247 0.929 . S
H263 C249 0.930 . S
Co264 N268 2.148 . S
Co264 N274 2.128 . S
Co264 N284 2.194 . S
Co264 O289 2.351 . S
Co264 O290 2.155 . S
Co264 O291 2.096 . S
C265 N268 1.301 . S
C265 N269 1.328 . S
C265 H270 0.930 . S
C266 C267 1.333 . S
C266 N268 1.317 . S
C266 H271 0.930 . S
C267 C266 1.333 . S
C267 N269 1.350 . S
C267 H293 0.931 . S
N268 Co264 2.148 . S
N268 C265 1.301 . S
N268 C266 1.317 . S
N269 C265 1.328 . S
N269 C267 1.350 . S
H270 C265 0.930 . S
H271 C266 0.930 . S
C272 O273 1.224 . S
C272 O291 1.247 . S
O273 C272 1.224 . S
N274 Co264 2.128 . S
N274 C275 1.355 . S
N274 C277 1.311 . S
C275 N274 1.355 . S
C275 C276 1.363 . S
C275 H287 0.929 . S
C276 C275 1.363 . S
C276 N278 1.375 . S
C276 H294 0.931 . S
C277 N274 1.311 . S
C277 N278 1.347 . S
C277 H288 0.929 . S
N278 C276 1.375 . S
N278 C277 1.347 . S
C279 C282 1.365 . S
C279 N284 1.328 . S
C279 H285 0.929 . S
C280 C281 1.362 . S
C280 C283 1.378 . S
C280 H295 0.929 . S
C281 C280 1.362 . S
C281 C282 1.366 . S
C282 C279 1.365 . S
C282 C281 1.366 . S
C282 H296 0.930 . S
C283 C280 1.378 . S
C283 N284 1.315 . S
C283 H286 0.930 . S
N284 Co264 2.194 . S
N284 C279 1.328 . S
N284 C283 1.315 . S
H285 C279 0.929 . S
H286 C283 0.930 . S
H287 C275 0.929 . S
H288 C277 0.929 . S
O289 Co264 2.351 . S
O289 C292 1.244 . S
O290 Co264 2.155 . S
O290 C292 1.240 . S
O291 Co264 2.096 . S
O291 C272 1.247 . S
C292 O289 1.244 . S
C292 O290 1.240 . S
H293 C267 0.931 . S
H294 C276 0.931 . S
H295 C280 0.929 . S
H296 C282 0.930 . S
Co297 N301 2.153 . S
Co297 N307 2.128 . S
Co297 N317 2.194 . S
Co297 O322 2.351 1_554 S
Co297 O323 2.155 . S
Co297 O324 2.096 . S
C298 N301 1.294 1_556 S
C298 N302 1.328 . S
C298 H303 0.930 . S
C299 C300 1.333 1_554 S
C299 N301 1.319 . S
C299 H304 0.930 . S
C300 C299 1.333 1_556 S
C300 N302 1.350 . S
C300 H326 0.931 . S
N301 Co297 2.153 . S
N301 C298 1.294 1_554 S
N301 C299 1.319 . S
N302 C298 1.328 . S
N302 C300 1.350 . S
H303 C298 0.930 . S
H304 C299 0.930 . S
C305 O306 1.224 . S
C305 O324 1.247 . S
O306 C305 1.224 . S
N307 Co297 2.128 . S
N307 C308 1.355 . S
N307 C310 1.311 . S
C308 N307 1.355 . S
C308 C309 1.363 . S
C308 H320 0.929 . S
C309 C308 1.363 . S
C309 N311 1.375 . S
C309 H327 0.931 . S
C310 N307 1.311 . S
C310 N311 1.347 . S
C310 H321 0.929 . S
N311 C309 1.375 . S
N311 C310 1.347 . S
C312 C315 1.365 . S
C312 N317 1.328 . S
C312 H318 0.929 1_554 S
C313 C314 1.362 . S
C313 C316 1.378 . S
C313 H328 0.929 . S
C314 C313 1.362 . S
C314 C315 1.366 . S
C315 C312 1.365 . S
C315 C314 1.366 . S
C315 H329 0.930 1_554 S
C316 C313 1.378 . S
C316 N317 1.315 . S
C316 H319 0.930 . S
N317 Co297 2.194 . S
N317 C312 1.328 . S
N317 C316 1.315 . S
H318 C312 0.929 1_556 S
H319 C316 0.930 . S
H320 C308 0.929 . S
H321 C310 0.929 . S
O322 Co297 2.351 1_556 S
O322 C325 1.244 . S
O323 Co297 2.155 . S
O323 C325 1.240 1_554 S
O324 Co297 2.096 . S
O324 C305 1.247 . S
C325 O322 1.244 . S
C325 O323 1.240 1_556 S
H326 C300 0.931 . S
H327 C309 0.931 . S
H328 C313 0.929 . S
H329 C315 0.930 1_556 S
Co330 N334 2.152 . S
Co330 N340 2.128 . S
Co330 N350 2.194 . S
Co330 O355 2.351 1_554 S
Co330 O356 2.155 . S
Co330 O357 2.096 . S
C331 N334 1.294 1_556 S
C331 N335 1.328 . S
C331 H336 0.930 . S
C332 C333 1.333 1_554 S
C332 N334 1.319 . S
C332 H337 0.930 . S
C333 C332 1.333 1_556 S
C333 N335 1.350 . S
C333 H359 0.931 . S
N334 Co330 2.152 . S
N334 C331 1.294 1_554 S
N334 C332 1.319 . S
N335 C331 1.328 . S
N335 C333 1.350 . S
H336 C331 0.930 . S
H337 C332 0.930 . S
C338 O339 1.224 . S
C338 O357 1.247 . S
O339 C338 1.224 . S
N340 Co330 2.128 . S
N340 C341 1.355 . S
N340 C343 1.311 . S
C341 N340 1.355 . S
C341 C342 1.363 . S
C341 H353 0.929 . S
C342 C341 1.363 . S
C342 N344 1.375 . S
C342 H360 0.931 . S
C343 N340 1.311 . S
C343 N344 1.347 . S
C343 H354 0.929 . S
N344 C342 1.375 . S
N344 C343 1.347 . S
C345 C348 1.365 . S
C345 N350 1.328 . S
C345 H351 0.929 1_554 S
C346 C347 1.362 . S
C346 C349 1.378 . S
C346 H361 0.929 . S
C347 C346 1.362 . S
C347 C348 1.366 . S
C348 C345 1.365 . S
C348 C347 1.366 . S
C348 H362 0.930 1_554 S
C349 C346 1.378 . S
C349 N350 1.315 . S
C349 H352 0.930 . S
N350 Co330 2.194 . S
N350 C345 1.328 . S
N350 C349 1.315 . S
H351 C345 0.929 1_556 S
H352 C349 0.930 . S
H353 C341 0.929 . S
H354 C343 0.929 . S
O355 Co330 2.351 1_556 S
O355 C358 1.244 . S
O356 Co330 2.155 . S
O356 C358 1.240 1_554 S
O357 Co330 2.096 . S
O357 C338 1.247 . S
C358 O355 1.244 . S
C358 O356 1.240 1_556 S
H359 C333 0.931 . S
H360 C342 0.931 . S
H361 C346 0.929 . S
H362 C348 0.930 1_556 S
Co363 N367 2.153 . S
Co363 N373 2.128 . S
Co363 N383 2.194 . S
Co363 O388 2.351 1_554 S
Co363 O389 2.155 . S
Co363 O390 2.096 . S
C364 N367 1.294 1_556 S
C364 N368 1.328 . S
C364 H369 0.930 . S
C365 C366 1.333 1_554 S
C365 N367 1.319 . S
C365 H370 0.930 . S
C366 C365 1.333 1_556 S
C366 N368 1.350 . S
C366 H392 0.931 . S
N367 Co363 2.153 . S
N367 C364 1.294 1_554 S
N367 C365 1.319 . S
N368 C364 1.328 . S
N368 C366 1.350 . S
H369 C364 0.930 . S
H370 C365 0.930 . S
C371 O372 1.224 . S
C371 O390 1.247 . S
O372 C371 1.224 . S
N373 Co363 2.128 . S
N373 C374 1.355 . S
N373 C376 1.311 . S
C374 N373 1.355 . S
C374 C375 1.363 . S
C374 H386 0.929 . S
C375 C374 1.363 . S
C375 N377 1.375 . S
C375 H393 0.931 . S
C376 N373 1.311 . S
C376 N377 1.347 . S
C376 H387 0.929 . S
N377 C375 1.375 . S
N377 C376 1.347 . S
C378 C381 1.365 . S
C378 N383 1.328 . S
C378 H384 0.929 1_554 S
C379 C380 1.362 . S
C379 C382 1.378 . S
C379 H394 0.929 . S
C380 C379 1.362 . S
C380 C381 1.366 . S
C381 C378 1.365 . S
C381 C380 1.366 . S
C381 H395 0.930 1_554 S
C382 C379 1.378 . S
C382 N383 1.315 . S
C382 H385 0.930 . S
N383 Co363 2.194 . S
N383 C378 1.328 . S
N383 C382 1.315 . S
H384 C378 0.929 1_556 S
H385 C382 0.930 . S
H386 C374 0.929 . S
H387 C376 0.929 . S
O388 Co363 2.351 1_556 S
O388 C391 1.244 . S
O389 Co363 2.155 . S
O389 C391 1.240 1_554 S
O390 Co363 2.096 . S
O390 C371 1.247 . S
C391 O388 1.244 . S
C391 O389 1.240 1_556 S
H392 C366 0.931 . S
H393 C375 0.931 . S
H394 C379 0.929 . S
H395 C381 0.930 1_556 S
Co396 N400 2.153 . S
Co396 N406 2.128 . S
Co396 N416 2.194 . S
Co396 O421 2.351 1_556 S
Co396 O422 2.155 . S
Co396 O423 2.096 . S
C397 N400 1.294 1_554 S
C397 N401 1.328 . S
C397 H402 0.930 . S
C398 C399 1.333 1_556 S
C398 N400 1.319 . S
C398 H403 0.930 . S
C399 C398 1.333 1_554 S
C399 N401 1.350 . S
C399 H425 0.931 . S
N400 Co396 2.153 . S
N400 C397 1.294 1_556 S
N400 C398 1.319 . S
N401 C397 1.328 . S
N401 C399 1.350 . S
H402 C397 0.930 . S
H403 C398 0.930 . S
C404 O405 1.224 . S
C404 O423 1.247 . S
O405 C404 1.224 . S
N406 Co396 2.128 . S
N406 C407 1.355 . S
N406 C409 1.311 . S
C407 N406 1.355 . S
C407 C408 1.363 . S
C407 H419 0.929 . S
C408 C407 1.363 . S
C408 N410 1.375 . S
C408 H426 0.931 . S
C409 N406 1.311 . S
C409 N410 1.347 . S
C409 H420 0.929 . S
N410 C408 1.375 . S
N410 C409 1.347 . S
C411 C414 1.365 . S
C411 N416 1.328 . S
C411 H417 0.929 1_556 S
C412 C413 1.362 . S
C412 C415 1.378 . S
C412 H427 0.929 . S
C413 C412 1.362 . S
C413 C414 1.366 . S
C414 C411 1.365 . S
C414 C413 1.366 . S
C414 H428 0.930 1_556 S
C415 C412 1.378 . S
C415 N416 1.315 . S
C415 H418 0.930 . S
N416 Co396 2.194 . S
N416 C411 1.328 . S
N416 C415 1.315 . S
H417 C411 0.929 1_554 S
H418 C415 0.930 . S
H419 C407 0.929 . S
H420 C409 0.929 . S
O421 Co396 2.351 1_554 S
O421 C424 1.244 . S
O422 Co396 2.155 . S
O422 C424 1.240 1_556 S
O423 Co396 2.096 . S
O423 C404 1.247 . S
C424 O421 1.244 . S
C424 O422 1.240 1_554 S
H425 C399 0.931 . S
H426 C408 0.931 . S
H427 C412 0.929 . S
H428 C414 0.930 1_554 S
Co429 N433 2.153 . S
Co429 N439 2.128 . S
Co429 N449 2.194 . S
Co429 O454 2.351 1_556 S
Co429 O455 2.155 . S
Co429 O456 2.096 . S
C430 N433 1.294 1_554 S
C430 N434 1.328 . S
C430 H435 0.930 . S
C431 C432 1.333 1_556 S
C431 N433 1.319 . S
C431 H436 0.930 . S
C432 C431 1.333 1_554 S
C432 N434 1.350 . S
C432 H458 0.931 . S
N433 Co429 2.153 . S
N433 C430 1.294 1_556 S
N433 C431 1.319 . S
N434 C430 1.328 . S
N434 C432 1.350 . S
H435 C430 0.930 . S
H436 C431 0.930 . S
C437 O438 1.224 . S
C437 O456 1.247 . S
O438 C437 1.224 . S
N439 Co429 2.128 . S
N439 C440 1.355 . S
N439 C442 1.311 . S
C440 N439 1.355 . S
C440 C441 1.363 . S
C440 H452 0.929 . S
C441 C440 1.363 . S
C441 N443 1.375 . S
C441 H459 0.931 . S
C442 N439 1.311 . S
C442 N443 1.347 . S
C442 H453 0.929 . S
N443 C441 1.375 . S
N443 C442 1.347 . S
C444 C447 1.365 . S
C444 N449 1.328 . S
C444 H450 0.929 1_556 S
C445 C446 1.362 . S
C445 C448 1.378 . S
C445 H460 0.929 . S
C446 C445 1.362 . S
C446 C447 1.366 . S
C447 C444 1.365 . S
C447 C446 1.366 . S
C447 H461 0.930 1_556 S
C448 C445 1.378 . S
C448 N449 1.315 . S
C448 H451 0.930 . S
N449 Co429 2.194 . S
N449 C444 1.328 . S
N449 C448 1.315 . S
H450 C444 0.929 1_554 S
H451 C448 0.930 . S
H452 C440 0.929 . S
H453 C442 0.929 . S
O454 Co429 2.351 1_554 S
O454 C457 1.244 . S
O455 Co429 2.155 . S
O455 C457 1.240 1_556 S
O456 Co429 2.096 . S
O456 C437 1.247 . S
C457 O454 1.244 . S
C457 O455 1.240 1_554 S
H458 C432 0.931 . S
H459 C441 0.931 . S
H460 C445 0.929 . S
H461 C447 0.930 1_554 S
Co462 N466 2.152 . S
Co462 N472 2.128 . S
Co462 N482 2.194 . S
Co462 O487 2.351 1_556 S
Co462 O488 2.155 . S
Co462 O489 2.096 . S
C463 N466 1.294 1_554 S
C463 N467 1.328 . S
C463 H468 0.930 . S
C464 C465 1.333 1_556 S
C464 N466 1.319 . S
C464 H469 0.930 . S
C465 C464 1.333 1_554 S
C465 N467 1.350 . S
C465 H491 0.931 . S
N466 Co462 2.152 . S
N466 C463 1.294 1_556 S
N466 C464 1.319 . S
N467 C463 1.328 . S
N467 C465 1.350 . S
H468 C463 0.930 . S
H469 C464 0.930 . S
C470 O471 1.224 . S
C470 O489 1.247 . S
O471 C470 1.224 . S
N472 Co462 2.128 . S
N472 C473 1.355 . S
N472 C475 1.311 . S
C473 N472 1.355 . S
C473 C474 1.363 . S
C473 H485 0.929 . S
C474 C473 1.363 . S
C474 N476 1.375 . S
C474 H492 0.931 . S
C475 N472 1.311 . S
C475 N476 1.347 . S
C475 H486 0.929 . S
N476 C474 1.375 . S
N476 C475 1.347 . S
C477 C480 1.365 . S
C477 N482 1.328 . S
C477 H483 0.929 1_556 S
C478 C479 1.362 . S
C478 C481 1.378 . S
C478 H493 0.929 . S
C479 C478 1.362 . S
C479 C480 1.366 . S
C480 C477 1.365 . S
C480 C479 1.366 . S
C480 H494 0.930 1_556 S
C481 C478 1.378 . S
C481 N482 1.315 . S
C481 H484 0.930 . S
N482 Co462 2.194 . S
N482 C477 1.328 . S
N482 C481 1.315 . S
H483 C477 0.929 1_554 S
H484 C481 0.930 . S
H485 C473 0.929 . S
H486 C475 0.929 . S
O487 Co462 2.351 1_554 S
O487 C490 1.244 . S
O488 Co462 2.155 . S
O488 C490 1.240 1_556 S
O489 Co462 2.096 . S
O489 C470 1.247 . S
C490 O487 1.244 . S
C490 O488 1.240 1_554 S
H491 C465 0.931 . S
H492 C474 0.931 . S
H493 C478 0.929 . S
H494 C480 0.930 1_554 S
Co495 N499 2.148 . S
Co495 N505 2.128 . S
Co495 N515 2.194 . S
Co495 O520 2.351 . S
Co495 O521 2.155 . S
Co495 O522 2.096 . S
C496 N499 1.301 . S
C496 N500 1.328 . S
C496 H501 0.930 . S
C497 C498 1.333 . S
C497 N499 1.317 . S
C497 H502 0.930 . S
C498 C497 1.333 . S
C498 N500 1.350 . S
C498 H524 0.931 . S
N499 Co495 2.148 . S
N499 C496 1.301 . S
N499 C497 1.317 . S
N500 C496 1.328 . S
N500 C498 1.350 . S
H501 C496 0.930 . S
H502 C497 0.930 . S
C503 O504 1.224 . S
C503 O522 1.247 . S
O504 C503 1.224 . S
N505 Co495 2.128 . S
N505 C506 1.355 . S
N505 C508 1.311 . S
C506 N505 1.355 . S
C506 C507 1.363 . S
C506 H518 0.929 . S
C507 C506 1.363 . S
C507 N509 1.375 . S
C507 H525 0.931 . S
C508 N505 1.311 . S
C508 N509 1.347 . S
C508 H519 0.929 . S
N509 C507 1.375 . S
N509 C508 1.347 . S
C510 C513 1.365 . S
C510 N515 1.328 . S
C510 H516 0.929 . S
C511 C512 1.362 . S
C511 C514 1.378 . S
C511 H526 0.929 . S
C512 C511 1.362 . S
C512 C513 1.366 . S
C513 C510 1.365 . S
C513 C512 1.366 . S
C513 H527 0.930 . S
C514 C511 1.378 . S
C514 N515 1.315 . S
C514 H517 0.930 . S
N515 Co495 2.194 . S
N515 C510 1.328 . S
N515 C514 1.315 . S
H516 C510 0.929 . S
H517 C514 0.930 . S
H518 C506 0.929 . S
H519 C508 0.929 . S
O520 Co495 2.351 . S
O520 C523 1.244 . S
O521 Co495 2.155 . S
O521 C523 1.240 . S
O522 Co495 2.096 . S
O522 C503 1.247 . S
C523 O520 1.244 . S
C523 O521 1.240 . S
H524 C498 0.931 . S
H525 C507 0.931 . S
H526 C511 0.929 . S
H527 C513 0.930 . S
Co528 N532 2.148 . S
Co528 N538 2.128 . S
Co528 N548 2.194 . S
Co528 O553 2.351 . S
Co528 O554 2.155 . S
Co528 O555 2.096 . S
C529 N532 1.301 . S
C529 N533 1.328 . S
C529 H534 0.930 . S
C530 C531 1.333 . S
C530 N532 1.317 . S
C530 H535 0.930 . S
C531 C530 1.333 . S
C531 N533 1.350 . S
C531 H557 0.931 . S
N532 Co528 2.148 . S
N532 C529 1.301 . S
N532 C530 1.317 . S
N533 C529 1.328 . S
N533 C531 1.350 . S
H534 C529 0.930 . S
H535 C530 0.930 . S
C536 O537 1.224 . S
C536 O555 1.247 . S
O537 C536 1.224 . S
N538 Co528 2.128 . S
N538 C539 1.355 . S
N538 C541 1.311 . S
C539 N538 1.355 . S
C539 C540 1.363 . S
C539 H551 0.929 . S
C540 C539 1.363 . S
C540 N542 1.375 . S
C540 H558 0.931 . S
C541 N538 1.311 . S
C541 N542 1.347 . S
C541 H552 0.929 . S
N542 C540 1.375 . S
N542 C541 1.347 . S
C543 C546 1.365 . S
C543 N548 1.328 . S
C543 H549 0.929 . S
C544 C545 1.362 . S
C544 C547 1.378 . S
C544 H559 0.929 . S
C545 C544 1.362 . S
C545 C546 1.366 . S
C546 C543 1.365 . S
C546 C545 1.366 . S
C546 H560 0.930 . S
C547 C544 1.378 . S
C547 N548 1.315 . S
C547 H550 0.930 . S
N548 Co528 2.194 . S
N548 C543 1.328 . S
N548 C547 1.315 . S
H549 C543 0.929 . S
H550 C547 0.930 . S
H551 C539 0.929 . S
H552 C541 0.929 . S
O553 Co528 2.351 . S
O553 C556 1.244 . S
O554 Co528 2.155 . S
O554 C556 1.240 . S
O555 Co528 2.096 . S
O555 C536 1.247 . S
C556 O553 1.244 . S
C556 O554 1.240 . S
H557 C531 0.931 . S
H558 C540 0.931 . S
H559 C544 0.929 . S
H560 C546 0.930 . S
Co561 N565 2.148 . S
Co561 N571 2.128 . S
Co561 N581 2.194 . S
Co561 O586 2.351 . S
Co561 O587 2.155 . S
Co561 O588 2.096 . S
C562 N565 1.301 . S
C562 N566 1.328 . S
C562 H567 0.930 . S
C563 C564 1.333 . S
C563 N565 1.317 . S
C563 H568 0.930 . S
C564 C563 1.333 . S
C564 N566 1.350 . S
C564 H590 0.931 . S
N565 Co561 2.148 . S
N565 C562 1.301 . S
N565 C563 1.317 . S
N566 C562 1.328 . S
N566 C564 1.350 . S
H567 C562 0.930 . S
H568 C563 0.930 . S
C569 O570 1.224 . S
C569 O588 1.247 . S
O570 C569 1.224 . S
N571 Co561 2.128 . S
N571 C572 1.355 . S
N571 C574 1.311 . S
C572 N571 1.355 . S
C572 C573 1.363 . S
C572 H584 0.929 . S
C573 C572 1.363 . S
C573 N575 1.375 . S
C573 H591 0.931 . S
C574 N571 1.311 . S
C574 N575 1.347 . S
C574 H585 0.929 . S
N575 C573 1.375 . S
N575 C574 1.347 . S
C576 C579 1.365 . S
C576 N581 1.328 . S
C576 H582 0.929 . S
C577 C578 1.362 . S
C577 C580 1.378 . S
C577 H592 0.929 . S
C578 C577 1.362 . S
C578 C579 1.366 . S
C579 C576 1.365 . S
C579 C578 1.366 . S
C579 H593 0.930 . S
C580 C577 1.378 . S
C580 N581 1.315 . S
C580 H583 0.930 . S
N581 Co561 2.194 . S
N581 C576 1.328 . S
N581 C580 1.315 . S
H582 C576 0.929 . S
H583 C580 0.930 . S
H584 C572 0.929 . S
H585 C574 0.929 . S
O586 Co561 2.351 . S
O586 C589 1.244 . S
O587 Co561 2.155 . S
O587 C589 1.240 . S
O588 Co561 2.096 . S
O588 C569 1.247 . S
C589 O586 1.244 . S
C589 O587 1.240 . S
H590 C564 0.931 . S
H591 C573 0.931 . S
H592 C577 0.929 . S
H593 C579 0.930 . S
C594 C595 1.387 . S
C594 H598 0.950 . S
C594 C603 1.390 . S
C595 C594 1.387 . S
C595 C597 1.387 1_556 S
H596 C603 0.950 . S
C597 C595 1.387 1_554 S
C597 C599 1.390 . S
C597 H601 0.950 . S
H598 C594 0.950 . S
C599 C597 1.390 . S
C599 C600 1.387 . S
C599 H602 0.950 . S
C600 C599 1.387 . S
C600 C603 1.387 1_554 S
H601 C597 0.950 . S
H602 C599 0.950 . S
C603 C594 1.390 . S
C603 H596 0.950 . S
C603 C600 1.387 1_556 S
C604 C605 1.387 . S
C604 H608 0.950 . S
C604 C613 1.390 1_546 S
C605 C604 1.387 . S
C605 C607 1.387 . S
H606 C613 0.950 . S
C607 C605 1.387 . S
C607 C609 1.390 1_546 S
C607 H611 0.950 . S
H608 C604 0.950 . S
C609 C607 1.390 1_564 S
C609 C610 1.387 . S
C609 H612 0.950 . S
C610 C609 1.387 . S
C610 C613 1.387 . S
H611 C607 0.950 . S
H612 C609 0.950 . S
C613 C604 1.390 1_564 S
C613 H606 0.950 . S
C613 C610 1.387 . S
C614 C615 1.362 1_655 S
C614 H618 0.954 . S
C614 C623 1.412 . S
C615 C614 1.362 1_455 S
C615 C617 1.387 1_554 S
H616 C623 0.950 . S
C617 C615 1.387 1_556 S
C617 C619 1.412 . S
C617 H621 0.950 . S
H618 C614 0.954 . S
C619 C617 1.412 . S
C619 C620 1.362 1_455 S
C619 H622 0.954 . S
C620 C619 1.362 1_655 S
C620 C623 1.387 1_556 S
H621 C617 0.950 . S
H622 C619 0.954 . S
C623 C614 1.412 . S
C623 H616 0.950 . S
C623 C620 1.387 1_554 S
C624 C625 1.387 . S
C624 H628 0.950 . S
C624 C633 1.390 1_554 S
C625 C624 1.387 . S
C625 C627 1.387 . S
H626 C633 0.950 . S
C627 C625 1.387 . S
C627 C629 1.390 1_554 S
C627 H631 0.950 . S
H628 C624 0.950 . S
C629 C627 1.390 1_556 S
C629 C630 1.387 . S
C629 H632 0.950 . S
C630 C629 1.387 . S
C630 C633 1.387 . S
H631 C627 0.950 . S
H632 C629 0.950 . S
C633 C624 1.390 1_556 S
C633 H626 0.950 . S
C633 C630 1.387 . S
C634 C635 1.387 . S
C634 H638 0.950 . S
C634 C643 1.390 1_546 S
C635 C634 1.387 . S
C635 C637 1.387 . S
H636 C643 0.950 . S
C637 C635 1.387 . S
C637 C639 1.390 1_546 S
C637 H641 0.950 . S
H638 C634 0.950 . S
C639 C637 1.390 1_564 S
C639 C640 1.387 . S
C639 H642 0.950 . S
C640 C639 1.387 . S
C640 C643 1.387 . S
H641 C637 0.950 . S
H642 C639 0.950 . S
C643 C634 1.390 1_564 S
C643 H636 0.950 . S
C643 C640 1.387 . S
C644 C645 1.387 . S
C644 H648 0.950 . S
C644 C653 1.390 1_656 S
C645 C644 1.387 . S
C645 C647 1.387 . S
H646 C653 0.950 . S
C647 C645 1.387 . S
C647 C649 1.390 1_656 S
C647 H651 0.950 . S
H648 C644 0.950 . S
C649 C647 1.390 1_454 S
C649 C650 1.387 . S
C649 H652 0.950 . S
C650 C649 1.387 . S
C650 C653 1.387 . S
H651 C647 0.950 . S
H652 C649 0.950 . S
C653 C644 1.390 1_454 S
C653 H646 0.950 . S
C653 C650 1.387 . S
C654 C655 1.387 . S
C654 H658 0.950 . S
C654 C663 1.390 . S
C655 C654 1.387 . S
C655 C657 1.387 . S
H656 C663 0.950 . S
C657 C655 1.387 . S
C657 C659 1.390 . S
C657 H661 0.950 . S
H658 C654 0.950 . S
C659 C657 1.390 . S
C659 C660 1.387 . S
C659 H662 0.950 . S
C660 C659 1.387 . S
C660 C663 1.387 . S
H661 C657 0.950 . S
H662 C659 0.950 . S
C663 C654 1.390 . S
C663 H656 0.950 . S
C663 C660 1.387 . S
C664 C665 1.387 . S
C664 H668 0.950 . S
C664 C673 1.390 . S
C665 C664 1.387 . S
C665 C667 1.387 . S
H666 C673 0.950 . S
C667 C665 1.387 . S
C667 C669 1.390 . S
C667 H671 0.950 . S
H668 C664 0.950 . S
C669 C667 1.390 . S
C669 C670 1.387 . S
C669 H672 0.950 . S
C670 C669 1.387 . S
C670 C673 1.387 . S
H671 C667 0.950 . S
H672 C669 0.950 . S
C673 C664 1.390 . S
C673 H666 0.950 . S
C673 C670 1.387 . S
C674 C675 1.387 . S
C674 H678 0.950 . S
C674 C683 1.390 . S
C675 C674 1.387 . S
C675 C677 1.387 . S
H676 C683 0.950 . S
C677 C675 1.387 . S
C677 C679 1.390 . S
C677 H681 0.950 . S
H678 C674 0.950 . S
C679 C677 1.390 . S
C679 C680 1.387 . S
C679 H682 0.950 . S
C680 C679 1.387 . S
C680 C683 1.387 . S
H681 C677 0.950 . S
H682 C679 0.950 . S
C683 C674 1.390 . S
C683 H676 0.950 . S
C683 C680 1.387 . S
C684 C685 1.387 . S
C684 H688 0.950 . S
C684 C693 1.390 . S
C685 C684 1.387 . S
C685 C687 1.387 . S
H686 C693 0.950 . S
C687 C685 1.387 . S
C687 C689 1.390 . S
C687 H691 0.950 . S
H688 C684 0.950 . S
C689 C687 1.390 . S
C689 C690 1.387 . S
C689 H692 0.950 . S
C690 C689 1.387 . S
C690 C693 1.387 . S
H691 C687 0.950 . S
H692 C689 0.950 . S
C693 C684 1.390 . S
C693 H686 0.950 . S
C693 C690 1.387 . S
C694 C695 1.387 . S
C694 H698 0.950 . S
C694 C703 1.390 . S
C695 C694 1.387 . S
C695 C697 1.387 . S
H696 C703 0.950 . S
C697 C695 1.387 . S
C697 C699 1.390 . S
C697 H701 0.950 . S
H698 C694 0.950 . S
C699 C697 1.390 . S
C699 C700 1.387 . S
C699 H702 0.950 . S
C700 C699 1.387 . S
C700 C703 1.387 . S
H701 C697 0.950 . S
H702 C699 0.950 . S
C703 C694 1.390 . S
C703 H696 0.950 . S
C703 C700 1.387 . S
C704 C705 1.387 . S
C704 H708 0.950 . S
C704 C713 1.390 . S
C705 C704 1.387 . S
C705 C707 1.387 . S
H706 C713 0.950 . S
C707 C705 1.387 . S
C707 C709 1.390 . S
C707 H711 0.950 . S
H708 C704 0.950 . S
C709 C707 1.390 . S
C709 C710 1.387 . S
C709 H712 0.950 . S
C710 C709 1.387 . S
C710 C713 1.387 . S
H711 C707 0.950 . S
H712 C709 0.950 . S
C713 C704 1.390 . S
C713 H706 0.950 . S
C713 C710 1.387 . S
C714 C715 1.387 . S
C714 H718 0.950 . S
C714 C723 1.390 . S
C715 C714 1.387 . S
C715 C717 1.387 . S
H716 C723 0.950 . S
C717 C715 1.387 . S
C717 C719 1.390 . S
C717 H721 0.950 . S
H718 C714 0.950 . S
C719 C717 1.390 . S
C719 C720 1.387 . S
C719 H722 0.950 . S
C720 C719 1.387 . S
C720 C723 1.387 . S
H721 C717 0.950 . S
H722 C719 0.950 . S
C723 C714 1.390 . S
C723 H716 0.950 . S
C723 C720 1.387 . S
C724 C725 1.387 . S
C724 H728 0.950 . S
C724 C733 1.390 . S
C725 C724 1.387 . S
C725 C727 1.387 . S
H726 C733 0.950 . S
C727 C725 1.387 . S
C727 C729 1.390 . S
C727 H731 0.950 . S
H728 C724 0.950 . S
C729 C727 1.390 . S
C729 C730 1.387 . S
C729 H732 0.950 . S
C730 C729 1.387 . S
C730 C733 1.387 . S
H731 C727 0.950 . S
H732 C729 0.950 . S
C733 C724 1.390 . S
C733 H726 0.950 . S
C733 C730 1.387 . S
C734 C735 1.387 . S
C734 H738 0.950 . S
C734 C743 1.390 . S
C735 C734 1.387 . S
C735 C737 1.387 . S
H736 C743 0.950 . S
C737 C735 1.387 . S
C737 C739 1.390 . S
C737 H741 0.950 . S
H738 C734 0.950 . S
C739 C737 1.390 . S
C739 C740 1.387 . S
C739 H742 0.950 . S
C740 C739 1.387 . S
C740 C743 1.387 . S
H741 C737 0.950 . S
H742 C739 0.950 . S
C743 C734 1.390 . S
C743 H736 0.950 . S
C743 C740 1.387 . S
C744 C745 1.387 . S
C744 H748 0.950 . S
C744 C753 1.390 . S
C745 C744 1.387 . S
C745 C747 1.387 . S
H746 C753 0.950 . S
C747 C745 1.387 . S
C747 C749 1.390 . S
C747 H751 0.950 . S
H748 C744 0.950 . S
C749 C747 1.390 . S
C749 C750 1.387 . S
C749 H752 0.950 . S
C750 C749 1.387 . S
C750 C753 1.387 . S
H751 C747 0.950 . S
H752 C749 0.950 . S
C753 C744 1.390 . S
C753 H746 0.950 . S
C753 C750 1.387 . S
C754 C755 1.387 . S
C754 H758 0.950 . S
C754 C763 1.390 . S
C755 C754 1.387 . S
C755 C757 1.387 . S
H756 C763 0.950 . S
C757 C755 1.387 . S
C757 C759 1.390 . S
C757 H761 0.950 . S
H758 C754 0.950 . S
C759 C757 1.390 . S
C759 C760 1.387 . S
C759 H762 0.950 . S
C760 C759 1.387 . S
C760 C763 1.387 . S
H761 C757 0.950 . S
H762 C759 0.950 . S
C763 C754 1.390 . S
C763 H756 0.950 . S
C763 C760 1.387 . S
C764 C765 1.387 . S
C764 H768 0.950 . S
C764 C773 1.390 . S
C765 C764 1.387 . S
C765 C767 1.387 . S
H766 C773 0.950 . S
C767 C765 1.387 . S
C767 C769 1.390 . S
C767 H771 0.950 . S
H768 C764 0.950 . S
C769 C767 1.390 . S
C769 C770 1.387 . S
C769 H772 0.950 . S
C770 C769 1.387 . S
C770 C773 1.387 . S
H771 C767 0.950 . S
H772 C769 0.950 . S
C773 C764 1.390 . S
C773 H766 0.950 . S
C773 C770 1.387 . S
C774 C775 1.387 . S
C774 H778 0.950 . S
C774 C783 1.390 . S
C775 C774 1.387 . S
C775 C777 1.387 . S
H776 C783 0.950 . S
C777 C775 1.387 . S
C777 C779 1.390 . S
C777 H781 0.950 . S
H778 C774 0.950 . S
C779 C777 1.390 . S
C779 C780 1.387 . S
C779 H782 0.950 . S
C780 C779 1.387 . S
C780 C783 1.387 . S
H781 C777 0.950 . S
H782 C779 0.950 . S
C783 C774 1.390 . S
C783 H776 0.950 . S
C783 C780 1.387 . S
C784 C785 1.387 . S
C784 H788 0.950 . S
C784 C793 1.390 . S
C785 C784 1.387 . S
C785 C787 1.387 . S
H786 C793 0.950 . S
C787 C785 1.387 . S
C787 C789 1.390 . S
C787 H791 0.950 . S
H788 C784 0.950 . S
C789 C787 1.390 . S
C789 C790 1.387 . S
C789 H792 0.950 . S
C790 C789 1.387 . S
C790 C793 1.387 . S
H791 C787 0.950 . S
H792 C789 0.950 . S
C793 C784 1.390 . S
C793 H786 0.950 . S
C793 C790 1.387 . S
C794 C795 1.387 . S
C794 H798 0.950 . S
C794 C803 1.390 . S
C795 C794 1.387 . S
C795 C797 1.387 . S
H796 C803 0.950 . S
C797 C795 1.387 . S
C797 C799 1.390 . S
C797 H801 0.950 . S
H798 C794 0.950 . S
C799 C797 1.390 . S
C799 C800 1.387 . S
C799 H802 0.950 . S
C800 C799 1.387 . S
C800 C803 1.387 . S
H801 C797 0.950 . S
H802 C799 0.950 . S
C803 C794 1.390 . S
C803 H796 0.950 . S
C803 C800 1.387 . S
C804 C805 1.387 . S
C804 H808 0.950 . S
C804 C813 1.390 . S
C805 C804 1.387 . S
C805 C807 1.387 . S
H806 C813 0.950 . S
C807 C805 1.387 . S
C807 C809 1.390 . S
C807 H811 0.950 . S
H808 C804 0.950 . S
C809 C807 1.390 . S
C809 C810 1.387 . S
C809 H812 0.950 . S
C810 C809 1.387 . S
C810 C813 1.387 . S
H811 C807 0.950 . S
H812 C809 0.950 . S
C813 C804 1.390 . S
C813 H806 0.950 . S
C813 C810 1.387 . S
C814 C815 1.387 . S
C814 H818 0.950 . S
C814 C823 1.390 . S
C815 C814 1.387 . S
C815 C817 1.387 . S
H816 C823 0.950 . S
C817 C815 1.387 . S
C817 C819 1.390 . S
C817 H821 0.950 . S
H818 C814 0.950 . S
C819 C817 1.390 . S
C819 C820 1.387 . S
C819 H822 0.950 . S
C820 C819 1.387 . S
C820 C823 1.387 . S
H821 C817 0.950 . S
H822 C819 0.950 . S
C823 C814 1.390 . S
C823 H816 0.950 . S
C823 C820 1.387 . S
C824 C825 1.387 . S
C824 H828 0.950 . S
C824 C833 1.390 . S
C825 C824 1.387 . S
C825 C827 1.387 . S
H826 C833 0.950 . S
C827 C825 1.387 . S
C827 C829 1.390 . S
C827 H831 0.950 . S
H828 C824 0.950 . S
C829 C827 1.390 . S
C829 C830 1.387 . S
C829 H832 0.950 . S
C830 C829 1.387 . S
C830 C833 1.387 . S
H831 C827 0.950 . S
H832 C829 0.950 . S
C833 C824 1.390 . S
C833 H826 0.950 . S
C833 C830 1.387 . S
C834 C835 1.387 . S
C834 H838 0.950 . S
C834 C843 1.390 1_455 S
C835 C834 1.387 . S
C835 C837 1.387 1_556 S
H836 C843 0.950 . S
C837 C835 1.387 1_554 S
C837 C839 1.390 1_455 S
C837 H841 0.950 . S
H838 C834 0.950 . S
C839 C837 1.390 1_655 S
C839 C840 1.387 . S
C839 H842 0.950 . S
C840 C839 1.387 . S
C840 C843 1.387 1_554 S
H841 C837 0.950 . S
H842 C839 0.950 . S
C843 C834 1.390 1_655 S
C843 H836 0.950 . S
C843 C840 1.387 1_556 S
C844 C845 1.387 . S
C844 H848 0.950 . S
C844 C853 1.390 . S
C845 C844 1.387 . S
C845 C847 1.387 1_556 S
H846 C853 0.950 . S
C847 C845 1.387 1_554 S
C847 C849 1.390 . S
C847 H851 0.950 . S
H848 C844 0.950 . S
C849 C847 1.390 . S
C849 C850 1.387 . S
C849 H852 0.950 . S
C850 C849 1.387 . S
C850 C853 1.387 1_554 S
H851 C847 0.950 . S
H852 C849 0.950 . S
C853 C844 1.390 . S
C853 H846 0.950 . S
C853 C850 1.387 1_556 S
C854 C855 1.387 . S
C854 H858 0.950 . S
C854 C863 1.390 1_544 S
C855 C854 1.387 . S
C855 C857 1.387 . S
H856 C863 0.950 . S
C857 C855 1.387 . S
C857 C859 1.390 1_544 S
C857 H861 0.950 . S
H858 C854 0.950 . S
C859 C857 1.390 1_566 S
C859 C860 1.387 . S
C859 H862 0.950 . S
C860 C859 1.387 . S
C860 C863 1.387 . S
H861 C857 0.950 . S
H862 C859 0.950 . S
C863 C854 1.390 1_566 S
C863 H856 0.950 . S
C863 C860 1.387 . S
C864 C865 1.387 . S
C864 H868 0.950 . S
C864 C873 1.390 . S
C865 C864 1.387 . S
C865 C867 1.387 . S
H866 C873 0.950 . S
C867 C865 1.387 . S
C867 C869 1.390 . S
C867 H871 0.950 . S
H868 C864 0.950 . S
C869 C867 1.390 . S
C869 C870 1.387 . S
C869 H872 0.950 . S
C870 C869 1.387 . S
C870 C873 1.387 . S
H871 C867 0.950 . S
H872 C869 0.950 . S
C873 C864 1.390 . S
C873 H866 0.950 . S
C873 C870 1.387 . S
C874 C875 1.387 . S
C874 H878 0.950 . S
C874 C883 1.390 1_545 S
C875 C874 1.387 . S
C875 C877 1.387 . S
H876 C883 0.950 . S
C877 C875 1.387 . S
C877 C879 1.390 1_545 S
C877 H881 0.950 . S
H878 C874 0.950 . S
C879 C877 1.390 1_565 S
C879 C880 1.387 . S
C879 H882 0.950 . S
C880 C879 1.387 . S
C880 C883 1.387 . S
H881 C877 0.950 . S
H882 C879 0.950 . S
C883 C874 1.390 1_565 S
C883 H876 0.950 . S
C883 C880 1.387 . S
C884 C885 1.387 . S
C884 H888 0.950 . S
C884 C893 1.397 . S
C885 C884 1.387 . S
C885 C887 1.375 1_455 S
H886 C893 0.943 . S
C887 C885 1.375 1_655 S
C887 C889 1.397 . S
C887 H891 0.943 . S
H888 C884 0.950 . S
C889 C887 1.397 . S
C889 C890 1.387 . S
C889 H892 0.950 . S
C890 C889 1.387 . S
C890 C893 1.375 1_655 S
H891 C887 0.943 . S
H892 C889 0.950 . S
C893 C884 1.397 . S
C893 H886 0.943 . S
C893 C890 1.375 1_455 S
C894 C895 1.387 . S
C894 H898 0.950 . S
C894 C903 1.390 . S
C895 C894 1.387 . S
C895 C897 1.387 . S
H896 C903 0.950 . S
C897 C895 1.387 . S
C897 C899 1.390 . S
C897 H901 0.950 . S
H898 C894 0.950 . S
C899 C897 1.390 . S
C899 C900 1.387 . S
C899 H902 0.950 . S
C900 C899 1.387 . S
C900 C903 1.387 . S
H901 C897 0.950 . S
H902 C899 0.950 . S
C903 C894 1.390 . S
C903 H896 0.950 . S
C903 C900 1.387 . S
C904 C905 1.387 . S
C904 H908 0.950 . S
C904 C913 1.390 1_565 S
C905 C904 1.387 . S
C905 C907 1.387 . S
H906 C913 0.950 . S
C907 C905 1.387 . S
C907 C909 1.390 1_565 S
C907 H911 0.950 . S
H908 C904 0.950 . S
C909 C907 1.390 1_545 S
C909 C910 1.387 . S
C909 H912 0.950 . S
C910 C909 1.387 . S
C910 C913 1.387 . S
H911 C907 0.950 . S
H912 C909 0.950 . S
C913 C904 1.390 1_545 S
C913 H906 0.950 . S
C913 C910 1.387 . S
C914 C915 1.387 . S
C914 H918 0.950 . S
C914 C923 1.390 1_655 S
C915 C914 1.387 . S
C915 C917 1.387 . S
H916 C923 0.950 . S
C917 C915 1.387 . S
C917 C919 1.390 1_655 S
C917 H921 0.950 . S
H918 C914 0.950 . S
C919 C917 1.390 1_455 S
C919 C920 1.387 . S
C919 H922 0.950 . S
C920 C919 1.387 . S
C920 C923 1.387 . S
H921 C917 0.950 . S
H922 C919 0.950 . S
C923 C914 1.390 1_455 S
C923 H916 0.950 . S
C923 C920 1.387 . S
C924 C925 1.387 . S
C924 H928 0.950 . S
C924 C933 1.390 . S
C925 C924 1.387 . S
C925 C927 1.387 . S
H926 C933 0.950 . S
C927 C925 1.387 . S
C927 C929 1.390 . S
C927 H931 0.950 . S
H928 C924 0.950 . S
C929 C927 1.390 . S
C929 C930 1.387 . S
C929 H932 0.950 . S
C930 C929 1.387 . S
C930 C933 1.387 . S
H931 C927 0.950 . S
H932 C929 0.950 . S
C933 C924 1.390 . S
C933 H926 0.950 . S
C933 C930 1.387 . S
C934 C935 1.387 . S
C934 H938 0.950 . S
C934 C943 1.390 . S
C935 C934 1.387 . S
C935 C937 1.387 . S
H936 C943 0.950 . S
C937 C935 1.387 . S
C937 C939 1.390 . S
C937 H941 0.950 . S
H938 C934 0.950 . S
C939 C937 1.390 . S
C939 C940 1.387 . S
C939 H942 0.950 . S
C940 C939 1.387 . S
C940 C943 1.387 . S
H941 C937 0.950 . S
H942 C939 0.950 . S
C943 C934 1.390 . S
C943 H936 0.950 . S
C943 C940 1.387 . S
C944 C945 1.387 . S
C944 H948 0.950 . S
C944 C953 1.390 . S
C945 C944 1.387 . S
C945 C947 1.387 . S
H946 C953 0.950 . S
C947 C945 1.387 . S
C947 C949 1.390 . S
C947 H951 0.950 . S
H948 C944 0.950 . S
C949 C947 1.390 . S
C949 C950 1.387 . S
C949 H952 0.950 . S
C950 C949 1.387 . S
C950 C953 1.387 . S
H951 C947 0.950 . S
H952 C949 0.950 . S
C953 C944 1.390 . S
C953 H946 0.950 . S
C953 C950 1.387 . S
C954 C955 1.387 . S
C954 H958 0.950 . S
C954 C963 1.390 . S
C955 C954 1.387 . S
C955 C957 1.387 . S
H956 C963 0.950 . S
C957 C955 1.387 . S
C957 C959 1.390 . S
C957 H961 0.950 . S
H958 C954 0.950 . S
C959 C957 1.390 . S
C959 C960 1.387 . S
C959 H962 0.950 . S
C960 C959 1.387 . S
C960 C963 1.387 . S
H961 C957 0.950 . S
H962 C959 0.950 . S
C963 C954 1.390 . S
C963 H956 0.950 . S
C963 C960 1.387 . S
C964 C965 1.387 . S
C964 H968 0.950 . S
C964 C973 1.390 . S
C965 C964 1.387 . S
C965 C967 1.387 . S
H966 C973 0.950 . S
C967 C965 1.387 . S
C967 C969 1.390 . S
C967 H971 0.950 . S
H968 C964 0.950 . S
C969 C967 1.390 . S
C969 C970 1.387 . S
C969 H972 0.950 . S
C970 C969 1.387 . S
C970 C973 1.387 . S
H971 C967 0.950 . S
H972 C969 0.950 . S
C973 C964 1.390 . S
C973 H966 0.950 . S
C973 C970 1.387 . S
C974 C975 1.387 . S
C974 H978 0.950 . S
C974 C983 1.390 . S
C975 C974 1.387 . S
C975 C977 1.387 . S
H976 C983 0.950 . S
C977 C975 1.387 . S
C977 C979 1.390 . S
C977 H981 0.950 . S
H978 C974 0.950 . S
C979 C977 1.390 . S
C979 C980 1.387 . S
C979 H982 0.950 . S
C980 C979 1.387 . S
C980 C983 1.387 . S
H981 C977 0.950 . S
H982 C979 0.950 . S
C983 C974 1.390 . S
C983 H976 0.950 . S
C983 C980 1.387 . S
C984 C985 1.387 . S
C984 H988 0.950 . S
C984 C993 1.390 . S
C985 C984 1.387 . S
C985 C987 1.387 . S
H986 C993 0.950 . S
C987 C985 1.387 . S
C987 C989 1.390 . S
C987 H991 0.950 . S
H988 C984 0.950 . S
C989 C987 1.390 . S
C989 C990 1.387 . S
C989 H992 0.950 . S
C990 C989 1.387 . S
C990 C993 1.387 . S
H991 C987 0.950 . S
H992 C989 0.950 . S
C993 C984 1.390 . S
C993 H986 0.950 . S
C993 C990 1.387 . S
C994 C995 1.387 . S
C994 H998 0.950 . S
C994 C1003 1.390 . S
C995 C994 1.387 . S
C995 C997 1.387 . S
H996 C1003 0.950 . S
C997 C995 1.387 . S
C997 C999 1.390 . S
C997 H1001 0.950 . S
H998 C994 0.950 . S
C999 C997 1.390 . S
C999 C1000 1.387 . S
C999 H1002 0.950 . S
C1000 C999 1.387 . S
C1000 C1003 1.387 . S
H1001 C997 0.950 . S
H1002 C999 0.950 . S
C1003 C994 1.390 . S
C1003 H996 0.950 . S
C1003 C1000 1.387 . S
C1004 C1005 1.387 . S
C1004 H1008 0.950 . S
C1004 C1013 1.390 . S
C1005 C1004 1.387 . S
C1005 C1007 1.387 . S
H1006 C1013 0.950 . S
C1007 C1005 1.387 . S
C1007 C1009 1.390 . S
C1007 H1011 0.950 . S
H1008 C1004 0.950 . S
C1009 C1007 1.390 . S
C1009 C1010 1.387 . S
C1009 H1012 0.950 . S
C1010 C1009 1.387 . S
C1010 C1013 1.387 . S
H1011 C1007 0.950 . S
H1012 C1009 0.950 . S
C1013 C1004 1.390 . S
C1013 H1006 0.950 . S
C1013 C1010 1.387 . S
C1014 C1015 1.387 . S
C1014 H1018 0.950 . S
C1014 C1023 1.390 . S
C1015 C1014 1.387 . S
C1015 C1017 1.387 . S
H1016 C1023 0.950 . S
C1017 C1015 1.387 . S
C1017 C1019 1.390 . S
C1017 H1021 0.950 . S
H1018 C1014 0.950 . S
C1019 C1017 1.390 . S
C1019 C1020 1.387 . S
C1019 H1022 0.950 . S
C1020 C1019 1.387 . S
C1020 C1023 1.387 . S
H1021 C1017 0.950 . S
H1022 C1019 0.950 . S
C1023 C1014 1.390 . S
C1023 H1016 0.950 . S
C1023 C1020 1.387 . S
C1024 C1025 1.387 . S
C1024 H1028 0.950 . S
C1024 C1033 1.390 . S
C1025 C1024 1.387 . S
C1025 C1027 1.387 . S
H1026 C1033 0.950 . S
C1027 C1025 1.387 . S
C1027 C1029 1.390 . S
C1027 H1031 0.950 . S
H1028 C1024 0.950 . S
C1029 C1027 1.390 . S
C1029 C1030 1.387 . S
C1029 H1032 0.950 . S
C1030 C1029 1.387 . S
C1030 C1033 1.387 . S
H1031 C1027 0.950 . S
H1032 C1029 0.950 . S
C1033 C1024 1.390 . S
C1033 H1026 0.950 . S
C1033 C1030 1.387 . S
C1034 C1035 1.387 . S
C1034 H1038 0.950 . S
C1034 C1043 1.390 . S
C1035 C1034 1.387 . S
C1035 C1037 1.387 . S
H1036 C1043 0.950 . S
C1037 C1035 1.387 . S
C1037 C1039 1.390 . S
C1037 H1041 0.950 . S
H1038 C1034 0.950 . S
C1039 C1037 1.390 . S
C1039 C1040 1.387 . S
C1039 H1042 0.950 . S
C1040 C1039 1.387 . S
C1040 C1043 1.387 . S
H1041 C1037 0.950 . S
H1042 C1039 0.950 . S
C1043 C1034 1.390 . S
C1043 H1036 0.950 . S
C1043 C1040 1.387 . S
C595 N113 1.199 . S
C600 N14 1.199 . S
C605 N146 1.199 . S
C610 N47 1.199 . S
C615 N80 1.196 . S
C620 N179 1.196 . S
C625 C41 2.239 . S
C630 C173 2.239 . S
C635 C107 2.239 . S
C640 C74 2.239 . S
C645 C140 2.238 . S
C650 C8 2.238 . S
C655 N212 1.199 . S
C660 N311 1.199 . S
C665 N344 1.199 . S
C670 N245 1.199 . S
C675 N278 1.195 . S
C680 N377 1.195 . S
C685 C371 2.238 . S
C690 C239 2.238 . S
C695 C305 2.238 . S
C700 C272 2.238 . S
C705 C338 2.239 . S
C710 C206 2.238 . S
C715 N509 1.199 . S
C720 N410 1.199 . S
C725 N443 1.195 . S
C730 N542 1.195 . S
C735 N575 1.198 . S
C740 N476 1.198 . S
C745 C437 2.239 . S
C750 C569 2.239 . S
C755 C503 2.239 . S
C760 C470 2.239 . S
C765 C404 2.238 . S
C770 C536 2.239 . S
C775 C578 1.510 . S
C780 C17 1.510 . S
C785 C50 1.513 . S
C790 C512 1.512 . S
C795 C545 1.512 . S
C800 C83 1.512 . S
C805 C248 1.512 . S
C810 C116 1.512 . S
C815 C149 1.511 . S
C820 C281 1.511 . S
C825 C182 1.510 . S
C830 C215 1.510 . S
C835 C446 1.513 . S
C840 C314 1.513 . S
C845 C479 1.511 . S
C850 C347 1.511 . S
C855 C380 1.513 . S
C860 C413 1.513 . S
C865 C28 2.058 . S
C870 C127 2.059 . S
C875 C160 2.058 . S
C880 C61 2.058 . S
C885 C94 2.058 . S
C890 C193 2.058 . S
C895 N170 0.759 . S
C900 N38 0.757 . S
C905 N71 0.755 . S
C910 N104 0.755 . S
C915 N137 0.757 . S
C920 N5 0.760 . S
C925 C226 2.058 . S
C930 C325 2.058 . S
C935 C358 2.058 . S
C940 C259 2.058 . S
C945 C391 2.058 . S
C950 C292 2.057 . S
C955 N368 0.761 . S
C960 N236 0.763 . S
C965 N302 0.755 . S
C970 N269 0.755 . S
C975 N335 0.763 . S
C980 N203 0.761 . S
C985 C523 2.059 . S
C990 C424 2.058 . S
C995 C556 2.058 . S
C1000 C457 2.058 . S
C1005 C589 2.057 . S
C1010 C490 2.058 . S
C1015 N566 0.761 . S
C1020 N434 0.763 . S
C1025 N500 0.755 . S
C1030 N467 0.755 . S
C1035 N533 0.757 . S
C1040 N401 0.759 . S
