# Generated by pormake.
# Topology wib, (6)-cn, num edge types: 1
# Building blocks:
#     Node 0, Type 0, BuildingBlock: VOLQOD_clean_sbu_1, # of connection points: 6
#     Node 1, Type 0, BuildingBlock: VOLQOD_clean_sbu_1, # of connection points: 6
#     Node 2, Type 0, BuildingBlock: VOLQOD_clean_sbu_1, # of connection points: 6
#     Node 3, Type 0, BuildingBlock: VOLQOD_clean_sbu_1, # of connection points: 6
#     Node 4, Type 0, BuildingBlock: VOLQOD_clean_sbu_1, # of connection points: 6
#     Node 5, Type 0, BuildingBlock: VOLQOD_clean_sbu_1, # of connection points: 6
#     Node 6, Type 0, BuildingBlock: VOLQOD_clean_sbu_1, # of connection points: 6
#     Node 7, Type 0, BuildingBlock: VOLQOD_clean_sbu_1, # of connection points: 6
#     Node 8, Type 0, BuildingBlock: VOLQOD_clean_sbu_1, # of connection points: 6
#     Node 9, Type 0, BuildingBlock: VOLQOD_clean_sbu_1, # of connection points: 6
#     Node 10, Type 0, BuildingBlock: VOLQOD_clean_sbu_1, # of connection points: 6
#     Node 11, Type 0, BuildingBlock: VOLQOD_clean_sbu_1, # of connection points: 6
#     Node 12, Type 0, BuildingBlock: VOLQOD_clean_sbu_1, # of connection points: 6
#     Node 13, Type 0, BuildingBlock: VOLQOD_clean_sbu_1, # of connection points: 6
#     Node 14, Type 0, BuildingBlock: VOLQOD_clean_sbu_1, # of connection points: 6
#     Node 15, Type 0, BuildingBlock: VOLQOD_clean_sbu_1, # of connection points: 6
#     Edge 16, Type (0, 0), BuildingBlock: XIVTED_clean_linker_0, # of connection points: 2
#     Edge 17, Type (0, 0), BuildingBlock: XIVTED_clean_linker_0, # of connection points: 2
#     Edge 18, Type (0, 0), BuildingBlock: XIVTED_clean_linker_0, # of connection points: 2
#     Edge 19, Type (0, 0), BuildingBlock: XIVTED_clean_linker_0, # of connection points: 2
#     Edge 20, Type (0, 0), BuildingBlock: XIVTED_clean_linker_0, # of connection points: 2
#     Edge 21, Type (0, 0), BuildingBlock: XIVTED_clean_linker_0, # of connection points: 2
#     Edge 22, Type (0, 0), BuildingBlock: XIVTED_clean_linker_0, # of connection points: 2
#     Edge 23, Type (0, 0), BuildingBlock: XIVTED_clean_linker_0, # of connection points: 2
#     Edge 24, Type (0, 0), BuildingBlock: XIVTED_clean_linker_0, # of connection points: 2
#     Edge 25, Type (0, 0), BuildingBlock: XIVTED_clean_linker_0, # of connection points: 2
#     Edge 26, Type (0, 0), BuildingBlock: XIVTED_clean_linker_0, # of connection points: 2
#     Edge 27, Type (0, 0), BuildingBlock: XIVTED_clean_linker_0, # of connection points: 2
#     Edge 28, Type (0, 0), BuildingBlock: XIVTED_clean_linker_0, # of connection points: 2
#     Edge 29, Type (0, 0), BuildingBlock: XIVTED_clean_linker_0, # of connection points: 2
#     Edge 30, Type (0, 0), BuildingBlock: XIVTED_clean_linker_0, # of connection points: 2
#     Edge 31, Type (0, 0), BuildingBlock: XIVTED_clean_linker_0, # of connection points: 2
#     Edge 32, Type (0, 0), BuildingBlock: XIVTED_clean_linker_0, # of connection points: 2
#     Edge 33, Type (0, 0), BuildingBlock: XIVTED_clean_linker_0, # of connection points: 2
#     Edge 34, Type (0, 0), BuildingBlock: XIVTED_clean_linker_0, # of connection points: 2
#     Edge 35, Type (0, 0), BuildingBlock: XIVTED_clean_linker_0, # of connection points: 2
#     Edge 36, Type (0, 0), BuildingBlock: XIVTED_clean_linker_0, # of connection points: 2
#     Edge 37, Type (0, 0), BuildingBlock: XIVTED_clean_linker_0, # of connection points: 2
#     Edge 38, Type (0, 0), BuildingBlock: XIVTED_clean_linker_0, # of connection points: 2
#     Edge 39, Type (0, 0), BuildingBlock: XIVTED_clean_linker_0, # of connection points: 2
#     Edge 40, Type (0, 0), BuildingBlock: XIVTED_clean_linker_0, # of connection points: 2
#     Edge 41, Type (0, 0), BuildingBlock: XIVTED_clean_linker_0, # of connection points: 2
#     Edge 42, Type (0, 0), BuildingBlock: XIVTED_clean_linker_0, # of connection points: 2
#     Edge 43, Type (0, 0), BuildingBlock: XIVTED_clean_linker_0, # of connection points: 2
#     Edge 44, Type (0, 0), BuildingBlock: XIVTED_clean_linker_0, # of connection points: 2
#     Edge 45, Type (0, 0), BuildingBlock: XIVTED_clean_linker_0, # of connection points: 2
#     Edge 46, Type (0, 0), BuildingBlock: XIVTED_clean_linker_0, # of connection points: 2
#     Edge 47, Type (0, 0), BuildingBlock: XIVTED_clean_linker_0, # of connection points: 2
#     Edge 48, Type (0, 0), BuildingBlock: XIVTED_clean_linker_0, # of connection points: 2
#     Edge 49, Type (0, 0), BuildingBlock: XIVTED_clean_linker_0, # of connection points: 2
#     Edge 50, Type (0, 0), BuildingBlock: XIVTED_clean_linker_0, # of connection points: 2
#     Edge 51, Type (0, 0), BuildingBlock: XIVTED_clean_linker_0, # of connection points: 2
#     Edge 52, Type (0, 0), BuildingBlock: XIVTED_clean_linker_0, # of connection points: 2
#     Edge 53, Type (0, 0), BuildingBlock: XIVTED_clean_linker_0, # of connection points: 2
#     Edge 54, Type (0, 0), BuildingBlock: XIVTED_clean_linker_0, # of connection points: 2
#     Edge 55, Type (0, 0), BuildingBlock: XIVTED_clean_linker_0, # of connection points: 2
#     Edge 56, Type (0, 0), BuildingBlock: XIVTED_clean_linker_0, # of connection points: 2
#     Edge 57, Type (0, 0), BuildingBlock: XIVTED_clean_linker_0, # of connection points: 2
#     Edge 58, Type (0, 0), BuildingBlock: XIVTED_clean_linker_0, # of connection points: 2
#     Edge 59, Type (0, 0), BuildingBlock: XIVTED_clean_linker_0, # of connection points: 2
#     Edge 60, Type (0, 0), BuildingBlock: XIVTED_clean_linker_0, # of connection points: 2
#     Edge 61, Type (0, 0), BuildingBlock: XIVTED_clean_linker_0, # of connection points: 2
#     Edge 62, Type (0, 0), BuildingBlock: XIVTED_clean_linker_0, # of connection points: 2
#     Edge 63, Type (0, 0), BuildingBlock: XIVTED_clean_linker_0, # of connection points: 2
# Relax obj value: 0.536
# Max RMSD: 0.268
# Mean RMSD: 0.267
data_MOF--net-wib--node1-VOLQOD_clean_sbu_1--edge1-XIVTED_clean_linker_0
_symmetry_space_group_name_H-M    P1
_symmetry_Int_Tables_number       1
_symmetry_cell_setting            triclinic
loop_
_symmetry_equiv_pos_as_xyz
'x, y, z'
_cell_length_a     30.192512
_cell_length_b     30.167708
_cell_length_c     66.047312
_cell_angle_alpha  90.004681
_cell_angle_beta   89.987377
_cell_angle_gamma 89.753562
loop_
_atom_site_label
_atom_site_type_symbol
_atom_site_fract_x
_atom_site_fract_y
_atom_site_fract_z
_atom_type_partial_charge
O0 O 0.07023 0.57948 0.26384 0.0
Zn1 Zn 0.12622 0.5432 0.26555 0.0
O2 O 0.1341 0.50344 0.24255 0.0
Zn3 Zn 0.13387 0.44221 0.25223 0.0
Zn4 Zn 0.08691 0.51615 0.22338 0.0
Zn5 Zn 0.18942 0.51576 0.22926 0.0
O6 O 0.19196 0.40973 0.24455 0.0
O7 O 0.23246 0.46691 0.23399 0.0
O8 O 0.13249 0.51159 0.29217 0.0
O9 O 0.13705 0.44115 0.28275 0.0
O10 O 0.07441 0.41407 0.2443 0.0
O11 O 0.04194 0.4671 0.22577 0.0
O12 O 0.10923 0.52217 0.19433 0.0
O13 O 0.1717 0.59072 0.26469 0.0
O14 O 0.18172 0.52173 0.19951 0.0
O15 O 0.21409 0.57394 0.23838 0.0
C16 C 0.05294 0.59483 0.24768 0.0
C17 C 0.22899 0.42634 0.23897 0.0
C18 C 0.04117 0.42908 0.2343 0.0
C19 C 0.13702 0.47069 0.29652 0.0
C20 C 0.14876 0.52449 0.18762 0.0
C21 C 0.20333 0.59991 0.25275 0.0
O22 O 0.05896 0.57551 0.2307 0.0
O23 O 0.17922 0.31943 0.5136 0.0
Zn24 Zn 0.21637 0.37465 0.51465 0.0
O25 O 0.25707 0.37953 0.49188 0.0
Zn26 Zn 0.31796 0.37744 0.50202 0.0
Zn27 Zn 0.24354 0.3319 0.4731 0.0
Zn28 Zn 0.24686 0.4347 0.47792 0.0
O29 O 0.35189 0.43453 0.49448 0.0
O30 O 0.29636 0.47633 0.48287 0.0
O31 O 0.24734 0.38208 0.54135 0.0
O32 O 0.31823 0.38128 0.53253 0.0
O33 O 0.34525 0.3171 0.49433 0.0
O34 O 0.29202 0.28601 0.47561 0.0
O35 O 0.23771 0.35323 0.4439 0.0
O36 O 0.16984 0.42141 0.51265 0.0
O37 O 0.24183 0.4259 0.44824 0.0
O38 O 0.189 0.46199 0.48614 0.0
C39 C 0.16427 0.3009 0.49768 0.0
C40 C 0.33645 0.47187 0.48844 0.0
C41 C 0.32988 0.28429 0.48423 0.0
C42 C 0.28821 0.38424 0.54601 0.0
C43 C 0.23743 0.39248 0.43673 0.0
C44 C 0.16204 0.45275 0.5003 0.0
O45 O 0.18403 0.30523 0.48071 0.0
O46 O 0.41436 0.41978 0.76185 0.0
Zn47 Zn 0.36644 0.46559 0.76351 0.0
O48 O 0.36964 0.50716 0.74102 0.0
Zn49 Zn 0.3725 0.56766 0.75189 0.0
Zn50 Zn 0.41986 0.4919 0.7236 0.0
Zn51 Zn 0.31667 0.50055 0.72505 0.0
O52 O 0.31552 0.60285 0.74489 0.0
O53 O 0.27506 0.55031 0.73018 0.0
O54 O 0.36461 0.4956 0.79059 0.0
O55 O 0.36954 0.5667 0.78246 0.0
O56 O 0.43299 0.5946 0.7444 0.0
O57 O 0.46511 0.54038 0.72646 0.0
O58 O 0.40177 0.4854 0.69387 0.0
O59 O 0.31345 0.42702 0.76149 0.0
O60 O 0.32957 0.49822 0.6957 0.0
O61 O 0.28696 0.4428 0.7311 0.0
C62 C 0.44134 0.40866 0.74794 0.0
C63 C 0.27891 0.58917 0.73741 0.0
C64 C 0.46628 0.57863 0.73474 0.0
C65 C 0.3656 0.53627 0.79568 0.0
C66 C 0.36408 0.48986 0.68536 0.0
C67 C 0.28793 0.41833 0.74676 0.0
O68 O 0.44667 0.43249 0.73217 0.0
O69 O 0.33074 0.68785 0.01393 0.0
Zn70 Zn 0.29332 0.63286 0.01538 0.0
O71 O 0.25307 0.62708 0.99246 0.0
Zn72 Zn 0.19197 0.62903 0.00236 0.0
Zn73 Zn 0.2666 0.67433 0.97347 0.0
Zn74 Zn 0.26395 0.57171 0.97875 0.0
O75 O 0.15842 0.57175 0.99475 0.0
O76 O 0.21436 0.53005 0.98346 0.0
O77 O 0.26192 0.62681 0.04206 0.0
O78 O 0.19125 0.62573 0.03292 0.0
O79 O 0.16458 0.68917 0.99436 0.0
O80 O 0.218 0.72008 0.97568 0.0
O81 O 0.27259 0.65252 0.94437 0.0
O82 O 0.33971 0.58584 0.01403 0.0
O83 O 0.26978 0.5799 0.94903 0.0
O84 O 0.32155 0.54482 0.98751 0.0
C85 C 0.3457 0.70602 -0.00207 0.0
C86 C 0.17411 0.53445 0.9888 0.0
C87 C 0.18 0.72183 0.98417 0.0
C88 C 0.221 0.62404 0.04656 0.0
C89 C 0.27366 0.61314 0.93738 0.0
C90 C 0.34794 0.55426 0.00186 0.0
O91 O 0.32599 0.7013 0.98098 0.0
O92 O 0.93622 0.42914 0.72827 0.0
Zn93 Zn 0.8808 0.46641 0.72658 0.0
O94 O 0.87391 0.50651 0.74954 0.0
Zn95 Zn 0.8742 0.56771 0.7398 0.0
Zn96 Zn 0.92146 0.49383 0.76853 0.0
Zn97 Zn 0.81885 0.49463 0.76315 0.0
O98 O 0.81617 0.60038 0.74755 0.0
O99 O 0.77576 0.54336 0.75835 0.0
O100 O 0.87459 0.49795 0.69991 0.0
O101 O 0.87087 0.56848 0.70929 0.0
O102 O 0.93383 0.59584 0.74756 0.0
O103 O 0.96651 0.54271 0.76594 0.0
O104 O 0.89973 0.48823 0.79768 0.0
O105 O 0.83475 0.41948 0.72769 0.0
O106 O 0.82713 0.48959 0.79287 0.0
O107 O 0.79393 0.4362 0.75452 0.0
C108 C 0.95424 0.41435 0.74438 0.0
C109 C 0.7792 0.58386 0.75327 0.0
C110 C 0.96721 0.58075 0.75743 0.0
C111 C 0.87048 0.53889 0.69555 0.0
C112 C 0.86034 0.48665 0.8046 0.0
C113 C 0.80382 0.41027 0.74001 0.0
O114 O 0.94914 0.43437 0.76125 0.0
O115 O 0.83147 0.68647 0.47813 0.0
Zn116 Zn 0.79372 0.6317 0.47658 0.0
O117 O 0.75303 0.6263 0.49936 0.0
Zn118 Zn 0.69209 0.6283 0.48929 0.0
Zn119 Zn 0.76621 0.67369 0.51834 0.0
Zn120 Zn 0.76337 0.57089 0.51309 0.0
O121 O 0.65823 0.57113 0.4967 0.0
O122 O 0.71391 0.52926 0.50809 0.0
O123 O 0.7626 0.62561 0.44982 0.0
O124 O 0.6918 0.62514 0.45879 0.0
O125 O 0.66465 0.68839 0.49712 0.0
O126 O 0.71776 0.71967 0.51582 0.0
O127 O 0.77163 0.65181 0.5475 0.0
O128 O 0.83992 0.58448 0.47814 0.0
O129 O 0.76831 0.57919 0.5428 0.0
O130 O 0.82115 0.54379 0.50468 0.0
C131 C 0.846 0.70491 0.49415 0.0
C132 C 0.67377 0.53375 0.50262 0.0
C133 C 0.67991 0.72127 0.50719 0.0
C134 C 0.7217 0.62317 0.44523 0.0
C135 C 0.77218 0.6124 0.55448 0.0
C136 C 0.84785 0.55301 0.49041 0.0
O137 O 0.82578 0.70053 0.511 0.0
O138 O 0.59282 0.58892 0.22848 0.0
Zn139 Zn 0.64115 0.54344 0.22707 0.0
O140 O 0.63855 0.50269 0.24989 0.0
Zn141 Zn 0.63589 0.44178 0.23956 0.0
Zn142 Zn 0.58846 0.51815 0.26736 0.0
Zn143 Zn 0.69174 0.51014 0.26558 0.0
O144 O 0.69282 0.4069 0.24684 0.0
O145 O 0.73349 0.46036 0.2607 0.0
O146 O 0.6434 0.5123 0.20024 0.0
O147 O 0.63899 0.44155 0.20905 0.0
O148 O 0.57548 0.41504 0.24711 0.0
O149 O 0.54302 0.46971 0.26463 0.0
O150 O 0.60685 0.52496 0.29706 0.0
O151 O 0.69379 0.58263 0.2287 0.0
O152 O 0.67919 0.5132 0.29493 0.0
O153 O 0.72105 0.56784 0.25905 0.0
C154 C 0.56642 0.60061 0.24254 0.0
C155 C 0.72956 0.42109 0.25398 0.0
C156 C 0.54201 0.43124 0.25654 0.0
C157 C 0.64279 0.47138 0.19554 0.0
C158 C 0.64479 0.52113 0.30541 0.0
C159 C 0.7196 0.59186 0.24326 0.0
O160 O 0.56176 0.57745 0.25856 0.0
O161 O 0.67907 0.32039 0.97795 0.0
Zn162 Zn 0.71633 0.37551 0.97653 0.0
O163 O 0.75687 0.38108 -0.00068 0.0
Zn164 Zn 0.81782 0.37927 0.98932 0.0
Zn165 Zn 0.74354 0.33369 0.01827 0.0
Zn166 Zn 0.7463 0.43643 0.01301 0.0
O167 O 0.85168 0.4363 -0.00296 0.0
O168 O 0.79562 0.47822 0.00804 0.0
O169 O 0.74739 0.38218 0.94979 0.0
O170 O 0.81814 0.38312 0.95882 0.0
O171 O 0.84508 0.31896 -0.00303 0.0
O172 O 0.79192 0.28764 0.01566 0.0
O173 O 0.7383 0.35548 0.04744 0.0
O174 O 0.66981 0.42234 0.97817 0.0
O175 O 0.74173 0.42809 0.04271 0.0
O176 O 0.68828 0.46315 0.00472 0.0
C177 C 0.66404 0.3024 0.99399 0.0
C178 C 0.83593 0.47371 0.00283 0.0
C179 C 0.82976 0.28602 0.00701 0.0
C180 C 0.78827 0.38508 0.94524 0.0
C181 C 0.73794 0.39491 0.05441 0.0
C182 C 0.66164 0.45372 0.99046 0.0
O183 O 0.68383 0.30712 0.01092 0.0
O184 O 0.59035 0.08833 0.76276 0.0
Zn185 Zn 0.63948 0.04387 0.76457 0.0
O186 O 0.63864 1.00274 0.74185 0.0
Zn187 Zn 0.63601 0.94198 0.75238 0.0
Zn188 Zn 0.58923 0.01757 0.72388 0.0
Zn189 Zn 0.69254 0.01038 0.72666 0.0
O190 O 0.69298 0.90695 0.74526 0.0
O191 O 0.73406 0.96055 0.73175 0.0
O192 O 0.64141 0.01326 0.7915 0.0
O193 O 0.63881 0.94228 0.78294 0.0
O194 O 0.57567 0.91515 0.74476 0.0
O195 O 0.54382 0.96909 0.72657 0.0
O196 O 0.60881 0.0238 0.69431 0.0
O197 O 0.6913 0.0841 0.76312 0.0
O198 O 0.68124 0.01342 0.69719 0.0
O199 O 0.72155 0.06807 0.73348 0.0
C200 C 0.56503 0.09998 0.7483 0.0
C201 C 0.7299 0.92119 0.73834 0.0
C202 C 0.54251 0.93098 0.73498 0.0
C203 C 0.64158 0.97243 0.79635 0.0
C204 C 0.64721 0.02053 0.68635 0.0
C205 C 0.71846 0.09279 0.749 0.0
O206 O 0.56186 0.07693 0.73216 0.0
O207 O 0.67788 0.8211 0.01369 0.0
Zn208 Zn 0.71601 0.87559 0.01532 0.0
O209 O 0.75674 0.88096 0.99253 0.0
Zn210 Zn 0.81769 0.87887 0.00261 0.0
Zn211 Zn 0.74353 0.83359 0.97353 0.0
Zn212 Zn 0.74643 0.93635 0.97874 0.0
O213 O 0.85159 0.93609 0.99522 0.0
O214 O 0.79613 0.9778 0.9835 0.0
O215 O 0.74707 0.88126 0.04211 0.0
O216 O 0.81785 0.882 0.03313 0.0
O217 O 0.84521 0.81875 0.9947 0.0
O218 O 0.79213 0.78785 0.97583 0.0
O219 O 0.73758 0.85536 0.94442 0.0
O220 O 0.67016 0.92313 0.01388 0.0
O221 O 0.7406 0.928 0.94905 0.0
O222 O 0.68906 0.96386 0.98738 0.0
C223 C 0.6637 0.80229 -0.00231 0.0
C224 C 0.83619 0.97337 0.98909 0.0
C225 C 0.82998 0.78609 0.98445 0.0
C226 C 0.78795 0.88379 0.0467 0.0
C227 C 0.73658 0.89474 0.93742 0.0
C228 C 0.66241 0.95477 0.00168 0.0
O229 O 0.68417 0.80643 0.9809 0.0
O230 O 0.93841 0.92868 0.26363 0.0
Zn231 Zn 0.88289 0.96578 0.26557 0.0
O232 O 0.87503 0.00531 0.24246 0.0
Zn233 Zn 0.8751 0.0667 0.25193 0.0
Zn234 Zn 0.92221 0.99276 0.22327 0.0
Zn235 Zn 0.81974 0.99263 0.22922 0.0
O236 O 0.81693 0.09892 0.24409 0.0
O237 O 0.77653 0.04137 0.23387 0.0
O238 O 0.87715 0.99787 0.29212 0.0
O239 O 0.87195 0.0681 0.28243 0.0
O240 O 0.93454 0.09494 0.24398 0.0
O241 O 0.96718 0.0418 0.22559 0.0
O242 O 0.89988 0.98667 0.19424 0.0
O243 O 0.83703 0.91859 0.26506 0.0
O244 O 0.82741 0.98665 0.19949 0.0
O245 O 0.7954 0.93432 0.23838 0.0
C246 C 0.95591 0.91373 0.24743 0.0
C247 C 0.77993 0.08207 0.23863 0.0
C248 C 0.96786 0.0799 0.23405 0.0
C249 C 0.87236 0.03883 0.29631 0.0
C250 C 0.86034 0.98413 0.18756 0.0
C251 C 0.80581 0.90888 0.253 0.0
O252 O 0.95022 0.93353 0.23055 0.0
O253 O 0.83177 0.18609 0.51351 0.0
Zn254 Zn 0.79377 0.13141 0.51497 0.0
O255 O 0.75317 0.12643 0.49213 0.0
Zn256 Zn 0.69219 0.12837 0.50212 0.0
Zn257 Zn 0.76635 0.17399 0.47324 0.0
Zn258 Zn 0.76356 0.07121 0.47825 0.0
O259 O 0.65851 0.0711 0.4947 0.0
O260 O 0.71431 0.02934 0.48333 0.0
O261 O 0.76246 0.12504 0.54173 0.0
O262 O 0.69175 0.12517 0.53261 0.0
O263 O 0.66462 0.18841 0.49433 0.0
O264 O 0.71786 0.21992 0.47578 0.0
O265 O 0.77191 0.15242 0.44405 0.0
O266 O 0.83989 0.08412 0.51332 0.0
O267 O 0.76806 0.07978 0.44856 0.0
O268 O 0.82163 0.04434 0.48642 0.0
C269 C 0.84616 0.20483 0.49752 0.0
C270 C 0.67415 0.03374 0.48881 0.0
C271 C 0.67992 0.22139 0.48434 0.0
C272 C 0.72149 0.12284 0.54623 0.0
C273 C 0.77214 0.11309 0.43696 0.0
C274 C 0.84813 0.05317 0.50082 0.0
O275 O 0.82582 0.20077 0.48069 0.0
O276 O 0.41754 0.92158 0.22826 0.0
Zn277 Zn 0.36817 0.96598 0.22719 0.0
O278 O 0.3703 0.00683 0.24998 0.0
Zn279 Zn 0.37316 0.06769 0.23956 0.0
Zn280 Zn 0.42006 0.99124 0.26758 0.0
Zn281 Zn 0.31693 0.99957 0.26559 0.0
O282 O 0.31624 0.10274 0.24681 0.0
O283 O 0.2753 0.0493 0.26054 0.0
O284 O 0.36451 0.99704 0.20037 0.0
O285 O 0.36986 0.06782 0.20902 0.0
O286 O 0.43367 0.09428 0.24718 0.0
O287 O 0.46542 0.03975 0.26505 0.0
O288 O 0.40129 0.98421 0.29722 0.0
O289 O 0.31654 0.92563 0.22926 0.0
O290 O 0.3291 0.99682 0.295 0.0
O291 O 0.28763 0.94181 0.25915 0.0
C292 C 0.4434 0.90955 0.24247 0.0
C293 C 0.27938 0.08858 0.25384 0.0
C294 C 0.4668 0.07809 0.25686 0.0
C295 C 0.36533 0.03791 0.19559 0.0
C296 C 0.36334 0.9885 0.30552 0.0
C297 C 0.29006 0.91699 0.24364 0.0
O298 O 0.44711 0.93216 0.25871 0.0
O299 O 0.33202 0.18709 0.9782 0.0
Zn300 Zn 0.29443 0.13227 0.97648 0.0
O301 O 0.25303 0.12693 -0.001 0.0
Zn302 Zn 0.19246 0.12865 0.98848 0.0
Zn303 Zn 0.26566 0.17447 0.01801 0.0
Zn304 Zn 0.263 0.07168 0.01291 0.0
O305 O 0.15832 0.07161 -0.00406 0.0
O306 O 0.21375 0.02993 0.00774 0.0
O307 O 0.2644 0.12614 0.94947 0.0
O308 O 0.19333 0.12495 0.95794 0.0
O309 O 0.16478 0.18889 -0.00401 0.0
O310 O 0.21712 0.22023 0.01514 0.0
O311 O 0.27031 0.15287 0.04724 0.0
O312 O 0.34057 0.08515 0.97847 0.0
O313 O 0.26686 0.08023 0.04263 0.0
O314 O 0.32113 0.04467 0.00498 0.0
C315 C 0.34603 0.20577 0.99426 0.0
C316 C 0.17372 0.03434 0.00208 0.0
C317 C 0.1796 0.22178 0.00621 0.0
C318 C 0.2237 0.12327 0.94458 0.0
C319 C 0.27046 0.11351 0.05428 0.0
C320 C 0.34823 0.05385 0.99086 0.0
O321 O 0.32538 0.20149 0.01101 0.0
O322 O 0.06968 0.08057 0.72734 0.0
Zn323 Zn 0.12554 0.04407 0.7254 0.0
O324 O 0.13387 0.00451 0.74847 0.0
Zn325 Zn 0.13382 0.94318 0.73888 0.0
Zn326 Zn 0.08678 0.01705 0.76771 0.0
Zn327 Zn 0.18923 0.01725 0.76168 0.0
O328 O 0.19213 0.91106 0.74652 0.0
O329 O 0.2324 0.9684 0.75709 0.0
O330 O 0.13114 0.01217 0.6988 0.0
O331 O 0.1366 0.94188 0.70835 0.0
O332 O 0.07459 0.91475 0.74702 0.0
O333 O 0.04202 0.96781 0.76549 0.0
O334 O 0.10924 0.02322 0.7967 0.0
O335 O 0.17113 0.09153 0.72593 0.0
O336 O 0.18169 0.02387 0.79144 0.0
O337 O 0.21367 0.07529 0.75226 0.0
C338 C 0.05239 0.09573 0.74354 0.0
C339 C 0.22907 0.9278 0.75212 0.0
C340 C 0.04137 0.92969 0.75705 0.0
C341 C 0.13594 0.97127 0.69452 0.0
C342 C 0.14874 0.02625 0.80337 0.0
C343 C 0.20283 0.10096 0.73779 0.0
O344 O 0.05851 0.07628 0.76047 0.0
O345 O 0.17941 0.81854 0.47734 0.0
Zn346 Zn 0.21683 0.87363 0.47607 0.0
O347 O 0.25679 0.87917 0.49913 0.0
Zn348 Zn 0.31804 0.87749 0.48945 0.0
Zn349 Zn 0.24333 0.83163 0.51798 0.0
Zn350 Zn 0.24562 0.93441 0.51285 0.0
O351 O 0.35148 0.93464 0.49735 0.0
O352 O 0.29522 0.9762 0.50842 0.0
O353 O 0.24877 0.88035 0.44951 0.0
O354 O 0.31927 0.88122 0.45895 0.0
O355 O 0.34536 0.81728 0.49721 0.0
O356 O 0.29188 0.7857 0.5156 0.0
O357 O 0.23698 0.85319 0.54716 0.0
O358 O 0.17021 0.92051 0.4774 0.0
O359 O 0.23928 0.92584 0.54249 0.0
O360 O 0.18809 0.96134 0.50402 0.0
C361 C 0.16432 0.80033 0.49331 0.0
C362 C 0.3356 0.97188 0.50327 0.0
C363 C 0.32992 0.78425 0.50713 0.0
C364 C 0.28979 0.8832 0.4452 0.0
C365 C 0.23547 0.89258 0.55415 0.0
C366 C 0.16181 0.95196 0.48961 0.0
O367 O 0.18399 0.80489 0.51028 0.0
H368 H 0.26335 0.38863 0.27295 0.0
H369 H 0.50715 0.38287 0.22535 0.0
H370 H 0.29106 0.41179 0.20987 0.0
H371 H 0.47723 0.43024 0.28543 0.0
H372 H 0.42886 0.36299 0.22101 0.0
H373 H 0.34237 0.37272 0.27856 0.0
C374 C 0.28572 0.38822 0.26011 0.0
C375 C 0.2708 0.4012 0.24089 0.0
C376 C 0.4398 0.37659 0.23534 0.0
C377 C 0.36086 0.38372 0.24722 0.0
C378 C 0.48447 0.38763 0.23789 0.0
C379 C 0.4986 0.40853 0.25573 0.0
C380 C 0.40934 0.38574 0.25089 0.0
C381 C 0.46762 0.41448 0.27138 0.0
C382 C 0.33081 0.37973 0.26337 0.0
C383 C 0.30133 0.40154 0.22487 0.0
N384 N 0.42441 0.40349 0.26854 0.0
N385 N 0.345 0.39337 0.22841 0.0
H386 H 0.37974 0.74965 0.47624 0.0
H387 H 0.37257 0.50506 0.52294 0.0
H388 H 0.33031 0.71894 0.53585 0.0
H389 H 0.35342 0.53401 0.45969 0.0
H390 H 0.38822 0.58386 0.52904 0.0
H391 H 0.40045 0.67139 0.47185 0.0
C392 C 0.37465 0.7268 0.48867 0.0
C393 C 0.3529 0.74072 0.50637 0.0
C394 C 0.38217 0.5726 0.51371 0.0
C395 C 0.37666 0.65145 0.50146 0.0
C396 C 0.37386 0.52761 0.51019 0.0
C397 C 0.362 0.51313 0.49076 0.0
C398 C 0.37913 0.60299 0.49763 0.0
C399 C 0.36277 0.54393 0.47485 0.0
C400 C 0.38619 0.68214 0.48608 0.0
C401 C 0.34665 0.70951 0.52189 0.0
N402 N 0.3707 0.5875 0.47865 0.0
N403 N 0.3581 0.66629 0.51901 0.0
H404 H 0.24583 0.624 0.77234 0.0
H405 H 1.00059 0.63102 0.72649 0.0
H406 H 0.21604 0.6072 0.70903 0.0
H407 H 0.03284 0.58155 0.78596 0.0
H408 H 0.0784 0.65226 0.72189 0.0
H409 H 0.16704 0.63923 0.77883 0.0
C410 C 0.22308 0.62569 0.75967 0.0
C411 C 0.23736 0.6145 0.74011 0.0
C412 C 0.06808 0.63786 0.73614 0.0
C413 C 0.14747 0.6312 0.74743 0.0
C414 C 0.02366 0.62602 0.73884 0.0
C415 C 0.01032 0.60411 0.75657 0.0
C416 C 0.09913 0.62843 0.75141 0.0
C417 C 0.04182 0.598 0.77199 0.0
C418 C 0.17808 0.63376 0.76342 0.0
C419 C 0.20629 0.61589 0.72431 0.0
N420 N 0.0848 0.60972 0.76899 0.0
N421 N 0.16273 0.62355 0.72833 0.0
H422 H 0.1316 0.25708 0.97488 0.0
H423 H 0.13675 0.50054 0.02289 0.0
H424 H 0.17732 0.28634 0.03525 0.0
H425 H 0.15803 0.473 0.95965 0.0
H426 H 0.12065 0.42165 0.02848 0.0
H427 H 0.11106 0.33542 0.97066 0.0
C428 C 0.13591 0.27962 0.98749 0.0
C429 C 0.15659 0.26529 0.00539 0.0
C430 C 0.12728 0.43324 0.01326 0.0
C431 C 0.13305 0.35466 0.00066 0.0
C432 C 0.13585 0.47828 0.01002 0.0
C433 C 0.14844 0.49318 0.99076 0.0
C434 C 0.13082 0.40321 -0.00294 0.0
C435 C 0.14813 0.46275 0.97469 0.0
C436 C 0.12447 0.32433 0.98501 0.0
C437 C 0.16184 0.2961 0.02114 0.0
N438 N 0.13996 0.41912 0.97822 0.0
N439 N 0.15054 0.33938 0.01836 0.0
H440 H 0.52943 0.58106 0.70522 0.0
H441 H 0.71866 0.59944 0.78286 0.0
H442 H 0.50287 0.62534 0.76609 0.0
H443 H 0.74315 0.62046 0.71937 0.0
H444 H 0.64017 0.61631 0.77742 0.0
H445 H 0.60713 0.60178 0.70944 0.0
C446 C 0.53977 0.59627 0.7193 0.0
C447 C 0.5097 0.60135 0.73535 0.0
C448 C 0.66284 0.61876 0.76477 0.0
C449 C 0.59898 0.62384 0.74054 0.0
C450 C 0.70771 0.60945 0.76791 0.0
C451 C 0.73739 0.60908 0.75158 0.0
C452 C 0.64728 0.62606 0.745 0.0
C453 C 0.72138 0.6211 0.7324 0.0
C454 C 0.58416 0.60811 0.72171 0.0
C455 C 0.52492 0.62104 0.7533 0.0
N456 N 0.67718 0.62795 0.72953 0.0
N457 N 0.56874 0.63051 0.7556 0.0
H458 H 0.63045 0.25619 0.5153 0.0
H459 H 0.63741 0.5004 0.4682 0.0
H460 H 0.6791 0.28644 0.45551 0.0
H461 H 0.65685 0.47185 0.53147 0.0
H462 H 0.62154 0.42159 0.46224 0.0
H463 H 0.60974 0.33447 0.51961 0.0
C464 C 0.63537 0.27894 0.50282 0.0
C465 C 0.6569 0.2649 0.48508 0.0
C466 C 0.6277 0.43294 0.47754 0.0
C467 C 0.63316 0.35418 0.4899 0.0
C468 C 0.63614 0.47793 0.48098 0.0
C469 C 0.64815 0.49252 0.50037 0.0
C470 C 0.63078 0.40267 0.49366 0.0
C471 C 0.64739 0.46184 0.51634 0.0
C472 C 0.62383 0.32361 0.50535 0.0
C473 C 0.66293 0.29597 0.46949 0.0
N474 N 0.63935 0.41827 0.51261 0.0
N475 N 0.6515 0.3392 0.47232 0.0
H476 H 0.76262 0.38552 0.21922 0.0
H477 H 0.00772 0.3787 0.26518 0.0
H478 H 0.79234 0.40361 0.28246 0.0
H479 H 0.97564 0.42831 0.20571 0.0
H480 H 0.9299 0.35749 0.26973 0.0
H481 H 0.84141 0.3701 0.21281 0.0
C482 C 0.78536 0.38406 0.23189 0.0
C483 C 0.77107 0.39565 0.25141 0.0
C484 C 0.94027 0.3719 0.25548 0.0
C485 C 0.86093 0.37872 0.24418 0.0
C486 C 0.98469 0.38373 0.2528 0.0
C487 C 0.99807 0.40569 0.2351 0.0
C488 C 0.90927 0.38138 0.24021 0.0
C489 C 0.96663 0.41182 0.21966 0.0
C490 C 0.83035 0.37588 0.22819 0.0
C491 C 0.8021 0.39457 0.26722 0.0
N492 N 0.92364 0.40012 0.22264 0.0
N493 N 0.84565 0.38678 0.26324 0.0
H494 H 0.85377 0.5337 0.03233 0.0
H495 H 0.83189 0.723 0.95482 0.0
H496 H 0.87147 0.50902 0.96863 0.0
H497 H 0.878 0.74919 0.0154 0.0
H498 H 0.85325 0.6452 0.95882 0.0
H499 H 0.87077 0.61201 0.02673 0.0
C500 C 0.86314 0.54454 0.01729 0.0
C501 C 0.86173 0.5149 0.00095 0.0
C502 C 0.85983 0.66812 0.97107 0.0
C503 C 0.87879 0.60483 0.99421 0.0
C504 C 0.84761 0.71256 0.96879 0.0
C505 C 0.85296 0.74256 0.98484 0.0
C506 C 0.87627 0.65317 0.98977 0.0
C507 C 0.8734 0.72721 0.00262 0.0
C508 C 0.8725 0.58931 0.01405 0.0
C509 C 0.87292 0.53076 0.98166 0.0
N510 N 0.88326 0.68335 0.00481 0.0
N511 N 0.8798 0.5749 0.97872 0.0
H512 H 0.76329 0.88617 0.77313 0.0
H513 H 0.00767 0.87891 0.72637 0.0
H514 H 0.79211 0.90282 0.70972 0.0
H515 H 0.97636 0.92878 0.78589 0.0
H516 H 0.92987 0.85736 0.72213 0.0
H517 H 0.84213 0.87069 0.77935 0.0
C518 C 0.78583 0.88437 0.76039 0.0
C519 C 0.77129 0.89557 0.74087 0.0
C520 C 0.94041 0.8719 0.73632 0.0
C521 C 0.86121 0.87862 0.74788 0.0
C522 C 0.98482 0.88392 0.73882 0.0
C523 C 0.9984 0.90606 0.75645 0.0
C524 C 0.90961 0.88139 0.75169 0.0
C525 C 0.96719 0.91216 0.77199 0.0
C526 C 0.83086 0.87615 0.76398 0.0
C527 C 0.80208 0.89407 0.72496 0.0
N528 N 0.92419 0.90029 0.76918 0.0
N529 N 0.84567 0.88629 0.72883 0.0
H530 H 0.87249 0.00705 0.02346 0.0
H531 H 0.87895 0.25097 0.976 0.0
H532 H 0.85311 0.03505 0.96014 0.0
H533 H 0.83064 0.22108 0.03588 0.0
H534 H 0.89965 0.17267 0.97177 0.0
H535 H 0.88814 0.08594 0.0293 0.0
C536 C 0.87373 0.02942 0.01064 0.0
C537 C 0.86179 0.01464 0.99127 0.0
C538 C 0.88563 0.18361 0.98602 0.0
C539 C 0.8789 0.10461 -0.00215 0.0
C540 C 0.87409 0.2283 0.98851 0.0
C541 C 0.85267 0.24245 0.00626 0.0
C542 C 0.87642 0.15313 0.00153 0.0
C543 C 0.84672 0.21146 0.02189 0.0
C544 C 0.88204 0.07446 0.01402 0.0
C545 C 0.86251 0.0452 0.97526 0.0
N546 N 0.85816 0.16822 0.01911 0.0
N547 N 0.87042 0.08883 0.97892 0.0
H548 H 0.52988 0.07997 0.28642 0.0
H549 H 0.71943 0.09715 0.20899 0.0
H550 H 0.5037 0.12487 0.22563 0.0
H551 H 0.74383 0.11915 0.27241 0.0
H552 H 0.64096 0.11433 0.21436 0.0
H553 H 0.60771 0.10031 0.28225 0.0
C554 C 0.54034 0.09524 0.27237 0.0
C555 C 0.51032 0.10062 0.25633 0.0
C556 C 0.66362 0.11692 0.227 0.0
C557 C 0.59973 0.12264 0.25119 0.0
C558 C 0.70846 0.10743 0.2239 0.0
C559 C 0.7381 0.10728 0.24024 0.0
C560 C 0.64804 0.12461 0.24675 0.0
C561 C 0.72209 0.11962 0.25937 0.0
C562 C 0.58479 0.10686 0.26999 0.0
C563 C 0.52569 0.12036 0.23841 0.0
N564 N 0.6779 0.12664 0.26222 0.0
N565 N 0.56956 0.1296 0.23613 0.0
H566 H 0.63051 0.75615 0.47624 0.0
H567 H 0.63785 1.00044 0.52326 0.0
H568 H 0.67923 0.78636 0.53601 0.0
H569 H 0.65736 0.97172 0.46 0.0
H570 H 0.62194 0.92165 0.52925 0.0
H571 H 0.60999 0.83446 0.47192 0.0
C572 C 0.63549 0.7789 0.48871 0.0
C573 C 0.65699 0.76483 0.50645 0.0
C574 C 0.62813 0.93296 0.51395 0.0
C575 C 0.63346 0.85417 0.50161 0.0
C576 C 0.6366 0.97794 0.51048 0.0
C577 C 0.64863 0.99247 0.49109 0.0
C578 C 0.63118 0.90264 0.49784 0.0
C579 C 0.64789 0.96175 0.47514 0.0
C580 C 0.62405 0.82359 0.48617 0.0
C581 C 0.66309 0.79591 0.52203 0.0
N582 N 0.6398 0.91819 0.47889 0.0
N583 N 0.65176 0.83917 0.51919 0.0
H584 H 1.00116 0.13054 0.26487 0.0
H585 H 0.24638 0.1236 0.21897 0.0
H586 H 0.03348 0.08052 0.20549 0.0
H587 H 0.21662 0.10661 0.28227 0.0
H588 H 0.16758 0.13878 0.21251 0.0
H589 H 0.07894 0.15192 0.26941 0.0
C590 C 0.02424 0.12546 0.25251 0.0
C591 C 0.01092 0.10335 0.23483 0.0
C592 C 0.17863 0.1333 0.22791 0.0
C593 C 0.09969 0.12784 0.23993 0.0
C594 C 0.22363 0.12526 0.23164 0.0
C595 C 0.23792 0.11405 0.2512 0.0
C596 C 0.14803 0.13067 0.2439 0.0
C597 C 0.20686 0.11537 0.267 0.0
C598 C 0.06864 0.13738 0.25519 0.0
C599 C 0.04243 0.09713 0.21942 0.0
N600 N 0.1633 0.12299 0.263 0.0
N601 N 0.08539 0.10893 0.22239 0.0
H602 H 0.15518 0.97459 0.03159 0.0
H603 H 0.1784 0.78463 0.95442 0.0
H604 H 0.13895 0.99874 0.96777 0.0
H605 H 0.13155 0.75897 0.01494 0.0
H606 H 0.15695 0.86246 0.95823 0.0
H607 H 0.13824 0.89625 0.02605 0.0
C608 C 0.14616 0.96362 0.01652 0.0
C609 C 0.14798 0.99312 0.00014 0.0
C610 C 0.15023 0.83965 0.9705 0.0
C611 C 0.13097 0.90315 0.99347 0.0
C612 C 0.16251 0.79519 0.96833 0.0
C613 C 0.15698 0.76534 0.98443 0.0
C614 C 0.13355 0.85476 0.98913 0.0
C615 C 0.13631 0.78084 0.00213 0.0
C616 C 0.13683 0.91883 0.01332 0.0
C617 C 0.1372 0.97711 0.98083 0.0
N618 N 0.12639 0.82472 0.00421 0.0
N619 N 0.13033 0.93295 0.97793 0.0
H620 H 0.50705 0.88351 0.76632 0.0
H621 H 0.26369 0.88956 0.71829 0.0
H622 H 0.47808 0.92947 0.70593 0.0
H623 H 0.29104 0.9138 0.78131 0.0
H624 H 0.3427 0.87324 0.71284 0.0
H625 H 0.4286 0.86422 0.7706 0.0
C626 C 0.48454 0.88807 0.75371 0.0
C627 C 0.499 0.90843 0.73579 0.0
C628 C 0.33105 0.88061 0.72799 0.0
C629 C 0.40953 0.88634 0.74057 0.0
C630 C 0.28597 0.88934 0.73115 0.0
C631 C 0.27095 0.90272 0.7503 0.0
C632 C 0.361 0.88474 0.74416 0.0
C633 C 0.30137 0.90326 0.76636 0.0
C634 C 0.43977 0.87738 0.75623 0.0
C635 C 0.46823 0.91414 0.72004 0.0
N636 N 0.34503 0.89482 0.76291 0.0
N637 N 0.4249 0.90351 0.72285 0.0
H638 H 0.33186 0.22071 0.45481 0.0
H639 H 0.35198 0.03239 0.53275 0.0
H640 H 0.37746 0.24776 0.51539 0.0
H641 H 0.37234 0.00691 0.46928 0.0
H642 H 0.36895 0.11068 0.52708 0.0
H643 H 0.35308 0.14292 0.45911 0.0
C644 C 0.34743 0.21046 0.46884 0.0
C645 C 0.3527 0.24069 0.48481 0.0
C646 C 0.37126 0.08781 0.51448 0.0
C647 C 0.37584 0.15135 0.49006 0.0
C648 C 0.36191 0.04305 0.51776 0.0
C649 C 0.36126 0.01319 0.50149 0.0
C650 C 0.37831 0.10308 0.49465 0.0
C651 C 0.37317 0.02883 0.48226 0.0
C652 C 0.35958 0.16603 0.47129 0.0
C653 C 0.37293 0.22558 0.50268 0.0
N654 N 0.38003 0.07296 0.47925 0.0
N655 N 0.38272 0.18174 0.50503 0.0
H656 H 0.26132 0.6377 0.22604 0.0
H657 H 0.24025 0.87989 0.27396 0.0
H658 H 0.18641 0.6655 0.28037 0.0
H659 H 0.2942 0.85263 0.21461 0.0
H660 H 0.22135 0.80156 0.27729 0.0
H661 H 0.2791 0.71618 0.22339 0.0
C662 C 0.24923 0.66013 0.23762 0.0
C663 C 0.222 0.645 0.25336 0.0
C664 C 0.23692 0.81291 0.26347 0.0
C665 C 0.24146 0.73503 0.25015 0.0
C666 C 0.24733 0.8577 0.26147 0.0
C667 C 0.2692 0.87285 0.24405 0.0
C668 C 0.24872 0.78318 0.24801 0.0
C669 C 0.27762 0.84249 0.22838 0.0
C670 C 0.25897 0.70505 0.23596 0.0
C671 C 0.2073 0.6757 0.26791 0.0
N672 N 0.26782 0.79903 0.23084 0.0
N673 N 0.21695 0.71936 0.26587 0.0
H674 H 0.12809 0.51352 0.47355 0.0
H675 H 0.88172 0.49134 0.51672 0.0
H676 H 0.09398 0.43725 0.52665 0.0
H677 H 0.91581 0.56899 0.46404 0.0
H678 H 0.95915 0.46908 0.51989 0.0
H679 H 0.0506 0.53556 0.47021 0.0
C680 C 0.1045 0.50198 0.48471 0.0
C681 C 0.11757 0.47325 0.50033 0.0
C682 C 0.9496 0.49075 0.50755 0.0
C683 C 0.02871 0.4976 0.49634 0.0
C684 C 0.9053 0.50314 0.50562 0.0
C685 C 0.89224 0.53235 0.49018 0.0
C686 C 0.98106 0.50772 0.49397 0.0
C687 C 0.92434 0.54658 0.47625 0.0
C688 C 0.06017 0.51424 0.48268 0.0
C689 C 0.08545 0.4593 0.51431 0.0
N690 N 0.96733 0.53442 0.47858 0.0
N691 N 0.04246 0.47133 0.51188 0.0
H692 H 0.24058 0.38073 0.71574 0.0
H693 H 0.26038 0.13942 0.76446 0.0
H694 H 0.28921 0.35466 0.77613 0.0
H695 H 0.18601 0.16601 0.70987 0.0
H696 H 0.27757 0.21804 0.76696 0.0
H697 H 0.22209 0.30228 0.71236 0.0
C698 C 0.24654 0.35878 0.72844 0.0
C699 C 0.26687 0.37429 0.74618 0.0
C700 C 0.25768 0.20661 0.75437 0.0
C701 C 0.24693 0.28451 0.74217 0.0
C702 C 0.2483 0.16161 0.75279 0.0
C703 C 0.22136 0.1461 0.73704 0.0
C704 C 0.24014 0.2363 0.74007 0.0
C705 C 0.20667 0.17652 0.72236 0.0
C706 C 0.23638 0.31393 0.72641 0.0
C707 C 0.27388 0.34425 0.76211 0.0
N708 N 0.21598 0.22028 0.72432 0.0
N709 N 0.26443 0.30073 0.75963 0.0
H710 H 0.59514 0.43987 0.9631 0.0
H711 H 0.41432 0.56854 0.02926 0.0
H712 H 0.62584 0.51207 0.0178 0.0
H713 H 0.38365 0.495 0.97493 0.0
H714 H 0.49167 0.54657 0.0258 0.0
H715 H 0.51779 0.4616 0.96671 0.0
C716 C 0.5858 0.46089 0.97571 0.0
C717 C 0.61705 0.47392 0.99026 0.0
C718 C 0.46795 0.53495 0.01472 0.0
C719 C 0.52829 0.49819 0.99466 0.0
C720 C 0.42366 0.54716 0.01678 0.0
C721 C 0.39243 0.53386 0.00227 0.0
C722 C 0.48116 0.50932 -0.00196 0.0
C723 C 0.40655 0.50615 0.98645 0.0
C724 C 0.5415 0.47296 0.97785 0.0
C725 C 0.60292 0.50117 0.00624 0.0
N726 N 0.44999 0.49511 0.98466 0.0
N727 N 0.55946 0.51212 0.0081 0.0
H728 H 0.74822 0.37198 0.76764 0.0
H729 H 0.76895 0.13026 0.71905 0.0
H730 H 0.81871 0.34501 0.71201 0.0
H731 H 0.71366 0.1568 0.7782 0.0
H732 H 0.78763 0.20863 0.71593 0.0
H733 H 0.73106 0.29337 0.77046 0.0
C734 C 0.75944 0.34971 0.75582 0.0
C735 C 0.78525 0.36512 0.73964 0.0
C736 C 0.7718 0.19714 0.72967 0.0
C737 C 0.76655 0.27494 0.74303 0.0
C738 C 0.76154 0.15231 0.73155 0.0
C739 C 0.73932 0.13694 0.74883 0.0
C740 C 0.75956 0.22672 0.74513 0.0
C741 C 0.7305 0.16713 0.76453 0.0
C742 C 0.75007 0.30471 0.75757 0.0
C743 C 0.79892 0.33461 0.72481 0.0
N744 N 0.74019 0.21065 0.76219 0.0
N745 N 0.78968 0.29089 0.72694 0.0
H746 H 0.81883 0.84575 0.2822 0.0
H747 H 0.72039 0.65334 0.21289 0.0
H748 H 0.75305 0.86816 0.22499 0.0
H749 H 0.76488 0.63167 0.2743 0.0
H750 H 0.73919 0.73133 0.21612 0.0
H751 H 0.80203 0.76695 0.27942 0.0
C752 C 0.80017 0.83428 0.26923 0.0
C753 C 0.78758 0.86362 0.25373 0.0
C754 C 0.74515 0.70946 0.22885 0.0
C755 C 0.76921 0.77338 0.25028 0.0
C756 C 0.73489 0.66476 0.22695 0.0
C757 C 0.74063 0.63592 0.24343 0.0
C758 C 0.76142 0.72551 0.24732 0.0
C759 C 0.75972 0.6527 0.26122 0.0
C760 C 0.79093 0.78921 0.26759 0.0
C761 C 0.76347 0.84683 0.2373 0.0
N762 N 0.76907 0.69657 0.26276 0.0
N763 N 0.75548 0.80272 0.23591 0.0
H764 H 0.62887 0.01675 0.97544 0.0
H765 H 0.38203 0.99355 0.01786 0.0
H766 H 0.5944 0.93898 0.02804 0.0
H767 H 0.41655 0.06929 0.96466 0.0
H768 H 0.4596 0.97211 0.02155 0.0
H769 H 0.55145 0.03886 0.97212 0.0
C770 C 0.60521 0.00491 0.9865 0.0
C771 C 0.61814 0.97565 0.00195 0.0
C772 C 0.45011 0.99318 0.00899 0.0
C773 C 0.52934 1.00009 -0.00204 0.0
C774 C 0.40573 0.00508 0.00676 0.0
C775 C 0.39275 0.0335 0.991 0.0
C776 C 0.48169 0.00987 0.9954 0.0
C777 C 0.42501 0.04747 0.9771 0.0
C778 C 0.56091 0.01721 0.98447 0.0
C779 C 0.58596 0.96141 0.01583 0.0
N780 N 0.46804 0.0358 0.97972 0.0
N781 N 0.54296 0.97345 0.01339 0.0
H782 H 0.09549 0.9377 0.46216 0.0
H783 H 0.91444 0.066 0.52838 0.0
H784 H 0.12595 0.01115 0.51654 0.0
H785 H 0.88404 0.99551 0.47318 0.0
H786 H 0.99173 0.04404 0.52482 0.0
H787 H 0.01814 0.9598 0.46553 0.0
C788 C 0.0861 0.95908 0.47464 0.0
C789 C 0.11729 0.97233 0.48918 0.0
C790 C 0.96811 0.03311 0.51355 0.0
C791 C 0.02854 0.99702 0.49331 0.0
C792 C 0.92383 0.0453 0.51567 0.0
C793 C 0.89267 0.03282 0.50098 0.0
C794 C 0.9814 0.00828 0.49663 0.0
C795 C 0.90688 0.00598 0.48486 0.0
C796 C 0.04181 0.97137 0.47664 0.0
C797 C 0.1031 1.00004 0.50499 0.0
N798 N 0.95032 0.99489 0.48303 0.0
N799 N 0.05967 0.01115 0.50673 0.0
H800 H 0.14826 0.52505 0.32925 0.0
H801 H 0.21223 0.33246 0.40732 0.0
H802 H 0.15075 0.38698 0.31192 0.0
H803 H 0.23748 0.47172 0.41694 0.0
H804 H 0.18567 0.35002 0.37307 0.0
H805 H 0.17418 0.50435 0.36283 0.0
C806 C 0.1538 0.49029 0.33253 0.0
C807 C 0.14746 0.45777 0.31764 0.0
C808 C 0.19735 0.37655 0.3827 0.0
C809 C 0.17777 0.43379 0.35619 0.0
C810 C 0.21275 0.36655 0.40219 0.0
C811 C 0.22693 0.40065 0.41512 0.0
C812 C 0.19587 0.42094 0.37623 0.0
C813 C 0.22664 0.44426 0.40765 0.0
C814 C 0.16896 0.4785 0.35172 0.0
C815 C 0.15528 0.41322 0.3229 0.0
N816 N 0.21107 0.45311 0.38883 0.0
N817 N 0.17016 0.40252 0.34173 0.0
H818 H 0.42359 0.45202 0.65854 0.0
H819 H 0.23339 0.40584 0.57746 0.0
H820 H 0.29009 0.50332 0.66261 0.0
H821 H 0.37183 0.39023 0.56242 0.0
H822 H 0.25451 0.43385 0.6106 0.0
H823 H 0.40682 0.42458 0.62434 0.0
C824 C 0.39109 0.45816 0.65217 0.0
C825 C 0.35811 0.47969 0.66358 0.0
C826 C 0.28033 0.42421 0.60008 0.0
C827 C 0.33855 0.4476 0.62483 0.0
C828 C 0.26827 0.4078 0.58118 0.0
C829 C 0.30084 0.39578 0.56704 0.0
C830 C 0.32534 0.42845 0.60507 0.0
C831 C 0.34556 0.39923 0.57281 0.0
C832 C 0.38148 0.44224 0.63273 0.0
C833 C 0.3165 0.48652 0.65455 0.0
N834 N 0.35654 0.41532 0.5914 0.0
N835 N 0.30786 0.47016 0.63587 0.0
H836 H 0.35252 0.48071 0.82784 0.0
H837 H 0.29735 0.67306 0.90768 0.0
H838 H 0.35766 0.61965 0.81226 0.0
H839 H 0.27445 0.53358 0.91784 0.0
H840 H 0.3223 0.65557 0.87318 0.0
H841 H 0.32924 0.5008 0.86189 0.0
C842 C 0.3492 0.51551 0.83161 0.0
C843 C 0.35692 0.54849 0.81707 0.0
C844 C 0.31156 0.62893 0.88299 0.0
C845 C 0.32961 0.57183 0.85617 0.0
C846 C 0.29708 0.63891 0.90263 0.0
C847 C 0.2839 0.60476 0.91575 0.0
C848 C 0.31303 0.58454 0.87653 0.0
C849 C 0.28447 0.56107 0.90838 0.0
C850 C 0.33558 0.52699 0.85107 0.0
C851 C 0.35204 0.59307 0.82295 0.0
N852 N 0.299 0.55228 0.88937 0.0
N853 N 0.3385 0.60345 0.84203 0.0
H854 H 0.13724 0.61307 0.0622 0.0
H855 H 0.22863 0.52494 0.16841 0.0
H856 H 0.27543 0.60987 0.07907 0.0
H857 H 0.08945 0.54886 0.1577 0.0
H858 H 0.24492 0.55086 0.13446 0.0
H859 H 0.11787 0.58708 0.09619 0.0
C860 C 0.1635 0.60739 0.07307 0.0
C861 C 0.20812 0.61361 0.06769 0.0
C862 C 0.21075 0.5504 0.13945 0.0
C863 C 0.1861 0.5832 0.10648 0.0
C864 C 0.20132 0.53532 0.15886 0.0
C865 C 0.15753 0.5349 0.16605 0.0
C866 C 0.17625 0.56523 0.12691 0.0
C867 C 0.12367 0.54857 0.15282 0.0
C868 C 0.15237 0.59237 0.09244 0.0
C869 C 0.24062 0.60558 0.08244 0.0
N870 N 0.13376 0.56339 0.13388 0.0
N871 N 0.22897 0.59055 0.10106 0.0
H872 H 0.76904 0.53317 0.5742 0.0
H873 H 0.86023 0.62287 0.67995 0.0
H874 H 0.7988 0.67143 0.58403 0.0
H875 H 0.85559 0.48463 0.66307 0.0
H876 H 0.83428 0.64273 0.64599 0.0
H877 H 0.79447 0.51658 0.60821 0.0
C878 C 0.78059 0.56023 0.58357 0.0
C879 C 0.78202 0.60381 0.57612 0.0
C880 C 0.83926 0.60811 0.64972 0.0
C881 C 0.81176 0.58471 0.61531 0.0
C882 C 0.85422 0.5967 0.66907 0.0
C883 C 0.86004 0.55193 0.67444 0.0
C884 C 0.82967 0.57452 0.63571 0.0
C885 C 0.85164 0.51954 0.6597 0.0
C886 C 0.79539 0.55061 0.60301 0.0
C887 C 0.79709 0.63737 0.58913 0.0
N888 N 0.83662 0.53148 0.64111 0.0
N889 N 0.8116 0.62709 0.6081 0.0
H890 H 0.58533 0.55785 0.3326 0.0
H891 H 0.77634 0.60382 0.4134 0.0
H892 H 0.71948 0.50862 0.32776 0.0
H893 H 0.63796 0.61699 0.429 0.0
H894 H 0.75506 0.5771 0.38005 0.0
H895 H 0.6024 0.58475 0.36688 0.0
C896 C 0.61805 0.55207 0.33881 0.0
C897 C 0.6511 0.53124 0.32718 0.0
C898 C 0.72928 0.58593 0.39074 0.0
C899 C 0.67097 0.56272 0.366 0.0
C900 C 0.74144 0.6016 0.40976 0.0
C901 C 0.70894 0.61251 0.42412 0.0
C902 C 0.68426 0.58132 0.38586 0.0
C903 C 0.66417 0.60881 0.41844 0.0
C904 C 0.62783 0.56769 0.35829 0.0
C905 C 0.69299 0.52487 0.33599 0.0
N906 N 0.65311 0.59343 0.39974 0.0
N907 N 0.70177 0.54089 0.35472 0.0
H908 H 0.74477 0.47357 0.07432 0.0
H909 H 0.64716 0.38725 0.1795 0.0
H910 H 0.70858 0.33677 0.08377 0.0
H911 H 0.66115 0.52522 0.16332 0.0
H912 H 0.67224 0.36651 0.14551 0.0
H913 H 0.71977 0.49097 0.10832 0.0
C914 C 0.73188 0.44699 0.08361 0.0
C915 C 0.72851 0.40362 0.07606 0.0
C916 C 0.66948 0.40128 0.1494 0.0
C917 C 0.69922 0.42365 0.11522 0.0
C918 C 0.65498 0.41321 0.16877 0.0
C919 C 0.65213 0.45813 0.17435 0.0
C920 C 0.68154 0.43447 0.1356 0.0
C921 C 0.66282 0.49021 0.15979 0.0
C922 C 0.71733 0.45707 0.10305 0.0
C923 C 0.71181 0.37064 0.08896 0.0
N924 N 0.6773 0.47774 0.14119 0.0
N925 N 0.69753 0.38138 0.10792 0.0
H926 H 0.78135 0.49019 0.82446 0.0
H927 H 0.872 0.39422 0.92936 0.0
H928 H 0.9196 0.45932 0.83396 0.0
H929 H 0.73363 0.40247 0.91314 0.0
H930 H 0.89149 0.42125 0.89556 0.0
H931 H 0.76505 0.46415 0.85841 0.0
C932 C 0.80846 0.47827 0.83375 0.0
C933 C 0.85195 0.47668 0.82623 0.0
C934 C 0.85692 0.41684 0.8994 0.0
C935 C 0.83321 0.4462 0.86531 0.0
C936 C 0.84571 0.40124 0.91866 0.0
C937 C 0.80103 0.3961 0.92417 0.0
C938 C 0.8232 0.42773 0.88562 0.0
C939 C 0.76848 0.40584 0.90965 0.0
C940 C 0.79901 0.46312 0.85316 0.0
C941 C 0.88562 0.46116 0.83912 0.0
N942 N 0.78022 0.42142 0.89115 0.0
N943 N 0.8755 0.44627 0.85804 0.0
H944 H 0.65281 0.02742 0.82885 0.0
H945 H 0.71262 0.83479 0.90777 0.0
H946 H 0.65165 0.88882 0.81243 0.0
H947 H 0.73519 0.97434 0.91794 0.0
H948 H 0.68668 0.85236 0.87343 0.0
H949 H 0.67672 0.00701 0.86277 0.0
C950 C 0.65713 0.99262 0.83241 0.0
C951 C 0.6504 0.95985 0.81767 0.0
C952 C 0.69758 0.87898 0.88321 0.0
C953 C 0.67845 0.93618 0.8566 0.0
C954 C 0.71264 0.86897 0.90275 0.0
C955 C 0.72599 0.90311 0.91584 0.0
C956 C 0.69568 0.92341 0.87682 0.0
C957 C 0.72506 0.94683 0.90851 0.0
C958 C 0.67112 0.98097 0.85179 0.0
C959 C 0.65652 0.91525 0.82328 0.0
N960 N 0.70994 0.95566 0.88962 0.0
N961 N 0.67041 0.90471 0.84229 0.0
H962 H 0.87165 0.89361 0.0625 0.0
H963 H 0.78055 0.98441 0.16831 0.0
H964 H 0.73333 0.89909 0.07906 0.0
H965 H 0.91953 0.95895 0.15775 0.0
H966 H 0.76412 0.95824 0.13441 0.0
H967 H 0.89103 0.91985 0.09643 0.0
C968 C 0.84535 0.89983 0.0733 0.0
C969 C 0.80071 0.8942 0.06784 0.0
C970 C 0.79827 0.95842 0.13942 0.0
C971 C 0.82275 0.9249 0.10657 0.0
C972 C 0.80779 0.97364 0.15881 0.0
C973 C 0.85155 0.97368 0.16601 0.0
C974 C 0.83267 0.94306 0.12695 0.0
C975 C 0.88533 0.95954 0.15284 0.0
C976 C 0.85649 0.915 0.09264 0.0
C977 C 0.76815 0.90291 0.0825 0.0
N978 N 0.87516 0.94457 0.13394 0.0
N979 N 0.77983 0.91806 0.10109 0.0
H980 H 0.76753 0.0343 0.41696 0.0
H981 H 0.86179 0.12302 0.31166 0.0
H982 H 0.80026 0.17205 0.40767 0.0
H983 H 0.85752 0.985 0.32892 0.0
H984 H 0.83524 0.14323 0.3455 0.0
H985 H 0.79347 0.01765 0.38302 0.0
C986 C 0.77983 0.06125 0.40772 0.0
C987 C 0.78199 0.10467 0.41531 0.0
C988 C 0.84045 0.10859 0.34187 0.0
C989 C 0.81233 0.08549 0.37623 0.0
C990 C 0.85576 0.09697 0.32259 0.0
C991 C 0.86184 0.05216 0.31737 0.0
C992 C 0.83074 0.07514 0.35593 0.0
C993 C 0.85339 0.01993 0.33218 0.0
C994 C 0.79494 0.05158 0.38833 0.0
C995 C 0.79799 0.13811 0.40246 0.0
N996 N 0.83799 0.03206 0.35068 0.0
N997 N 0.81278 0.12778 0.38354 0.0
H998 H 0.63757 0.11938 0.5624 0.0
H999 H 0.72229 0.00614 0.66449 0.0
H1000 H 0.77526 0.09998 0.57791 0.0
H1001 H 0.58924 0.05774 0.65867 0.0
H1002 H 0.73889 0.03242 0.63062 0.0
H1003 H 0.61669 0.09201 0.596 0.0
C1004 C 0.66344 0.10985 0.57291 0.0
C1005 C 0.70831 0.11195 0.56726 0.0
C1006 C 0.70598 0.03793 0.63667 0.0
C1007 C 0.68448 0.07986 0.60551 0.0
C1008 C 0.6963 0.02264 0.65601 0.0
C1009 C 0.65435 0.03009 0.66459 0.0
C1010 C 0.67354 0.06082 0.6256 0.0
C1011 C 0.62202 0.05131 0.65269 0.0
C1012 C 0.65143 0.0941 0.59205 0.0
C1013 C 0.7403 0.09907 0.58152 0.0
N1014 N 0.63238 0.06622 0.63379 0.0
N1015 N 0.72773 0.08328 0.59988 0.0
H1016 H 0.2628 0.03514 0.07439 0.0
H1017 H 0.36121 0.12192 0.17938 0.0
H1018 H 0.29978 0.1718 0.08359 0.0
H1019 H 0.34571 0.98391 0.16359 0.0
H1020 H 0.33589 0.14249 0.1454 0.0
H1021 H 0.28733 0.01798 0.10849 0.0
C1022 C 0.27575 0.06175 0.08365 0.0
C1023 C 0.2795 0.105 0.07599 0.0
C1024 C 0.33834 0.10775 0.14938 0.0
C1025 C 0.30827 0.08524 0.11527 0.0
C1026 C 0.35299 0.09591 0.16874 0.0
C1027 C 0.35554 0.05104 0.17442 0.0
C1028 C 0.32586 0.0745 0.13568 0.0
C1029 C 0.3443 0.01889 0.15998 0.0
C1030 C 0.29003 0.0518 0.10314 0.0
C1031 C 0.29626 0.13802 0.08886 0.0
N1032 N 0.32972 0.03127 0.14138 0.0
N1033 N 0.3103 0.1274 0.10787 0.0
H1034 H 0.27941 0.11197 0.91226 0.0
H1035 H 0.08863 0.0462 0.8336 0.0
H1036 H 0.1408 0.11022 0.92843 0.0
H1037 H 0.22885 0.03193 0.82223 0.0
H1038 H 0.1057 0.07188 0.86799 0.0
H1039 H 0.26005 0.08718 0.87834 0.0
C1040 C 0.24483 0.10679 0.90865 0.0
C1041 C 0.21175 0.1131 0.92331 0.0
C1042 C 0.13262 0.06287 0.85795 0.0
C1043 C 0.18928 0.08409 0.88437 0.0
C1044 C 0.1229 0.04798 0.83836 0.0
C1045 C 0.15731 0.03698 0.82493 0.0
C1046 C 0.17703 0.06694 0.86406 0.0
C1047 C 0.20113 0.04017 0.83194 0.0
C1048 C 0.23378 0.09233 0.88926 0.0
C1049 C 0.16746 0.10576 0.91765 0.0
N1050 N 0.20965 0.05503 0.85091 0.0
N1051 N 0.15752 0.09149 0.89864 0.0
H1052 H 0.1447 0.02523 0.66149 0.0
H1053 H 0.21227 0.83258 0.58394 0.0
H1054 H 0.151 0.88759 0.67932 0.0
H1055 H 0.23246 0.97237 0.57342 0.0
H1056 H 0.18557 0.85019 0.61817 0.0
H1057 H 0.16991 0.00447 0.62779 0.0
C1058 C 0.15093 0.99055 0.65829 0.0
C1059 C 0.14589 0.95819 0.67336 0.0
C1060 C 0.19614 0.87685 0.60834 0.0
C1061 C 0.17539 0.93415 0.63467 0.0
C1062 C 0.21161 0.86682 0.58886 0.0
C1063 C 0.2245 0.90101 0.5757 0.0
C1064 C 0.19329 0.92134 0.61457 0.0
C1065 C 0.2227 0.94482 0.5829 0.0
C1066 C 0.16567 0.97872 0.63904 0.0
C1067 C 0.15453 0.91371 0.66821 0.0
N1068 N 0.20714 0.95365 0.60172 0.0
N1069 N 0.16902 0.903 0.64931 0.0
H1070 H 0.28953 0.00439 0.32806 0.0
H1071 H 0.37392 0.88739 0.42922 0.0
H1072 H 0.42134 0.94906 0.33256 0.0
H1073 H 0.23627 0.90626 0.4135 0.0
H1074 H 0.39493 0.91552 0.39572 0.0
H1075 H 0.27337 0.9774 0.36185 0.0
C1076 C 0.31536 0.98692 0.33623 0.0
C1077 C 0.35679 0.97861 0.3273 0.0
C1078 C 0.36019 0.91313 0.39962 0.0
C1079 C 0.33808 0.94708 0.3662 0.0
C1080 C 0.3481 0.89696 0.41869 0.0
C1081 C 0.30318 0.8945 0.42424 0.0
C1082 C 0.32716 0.92748 0.38617 0.0
C1083 C 0.27125 0.90744 0.40996 0.0
C1084 C 0.30592 0.97123 0.35553 0.0
C1085 C 0.38895 0.95617 0.33883 0.0
N1086 N 0.28389 0.92369 0.3917 0.0
N1087 N 0.37883 0.94089 0.3577 0.0
H1088 H 0.03323 0.64614 0.28089 0.0
H1089 H 0.98504 0.86421 0.21512 0.0
H1090 H 0.02845 0.64728 0.21555 0.0
H1091 H 0.97106 0.85941 0.28016 0.0
H1092 H 0.00595 0.78592 0.21525 0.0
H1093 H 0.01226 0.72446 0.28109 0.0
C1094 C 0.02713 0.66259 0.26658 0.0
C1095 C 0.03269 0.63984 0.24817 0.0
C1096 C 0.99857 0.80206 0.22951 0.0
C1097 C 0.00955 0.7301 0.24831 0.0
C1098 C 0.98704 0.84699 0.22949 0.0
C1099 C 0.97615 0.86868 0.24766 0.0
C1100 C 0.99942 0.77845 0.24784 0.0
C1101 C 0.97913 0.84426 0.26576 0.0
C1102 C 0.01544 0.70748 0.26671 0.0
C1103 C 0.02446 0.66321 0.23013 0.0
N1104 N 0.99027 0.80051 0.26537 0.0
N1105 N 0.0137 0.70705 0.23066 0.0
H1106 H 0.11277 0.28315 0.531 0.0
H1107 H 0.89533 0.23466 0.46534 0.0
H1108 H 0.11222 0.27516 0.46573 0.0
H1109 H 0.90052 0.21887 0.53028 0.0
H1110 H 0.97341 0.25545 0.46552 0.0
H1111 H 0.0346 0.2624 0.53127 0.0
C1112 C 0.09647 0.27641 0.51673 0.0
C1113 C 0.11934 0.28096 0.4983 0.0
C1114 C 0.9574 0.24769 0.47975 0.0
C1115 C 0.02929 0.2581 0.49852 0.0
C1116 C 0.91259 0.23623 0.4797 0.0
C1117 C 0.89109 0.22486 0.49783 0.0
C1118 C 0.98106 0.24804 0.49806 0.0
C1119 C 0.91555 0.2273 0.51592 0.0
C1120 C 0.05169 0.26482 0.5169 0.0
C1121 C 0.09619 0.27194 0.48031 0.0
N1122 N 0.95918 0.23844 0.51556 0.0
N1123 N 0.05244 0.26135 0.48087 0.0
H1124 H 0.39991 0.33364 0.75976 0.0
H1125 H 0.6041 0.1744 0.7624 0.0
H1126 H 0.52518 0.3808 0.73713 0.0
H1127 H 0.48298 0.12827 0.7351 0.0
H1128 H 0.57493 0.25036 0.76169 0.0
H1129 H 0.42905 0.25763 0.75922 0.0
C1130 C 0.43379 0.32801 0.75494 0.0
C1131 C 0.46044 0.36351 0.74865 0.0
C1132 C 0.55478 0.22352 0.75596 0.0
C1133 C 0.49376 0.27696 0.74825 0.0
C1134 C 0.57106 0.18022 0.75653 0.0
C1135 C 0.54562 0.14501 0.74897 0.0
C1136 C 0.51224 0.23154 0.74835 0.0
C1137 C 0.50345 0.15449 0.74115 0.0
C1138 C 0.45009 0.2847 0.75446 0.0
C1139 C 0.50375 0.35432 0.74217 0.0
N1140 N 0.48771 0.19692 0.7413 0.0
N1141 N 0.51938 0.31186 0.74241 0.0
H1142 H 0.61465 0.77257 0.96546 0.0
H1143 H 0.39709 0.72451 0.03118 0.0
H1144 H 0.60939 0.78786 0.03042 0.0
H1145 H 0.39784 0.73107 0.96587 0.0
H1146 H 0.47525 0.74522 0.03139 0.0
H1147 H 0.53657 0.75168 0.9656 0.0
C1148 C 0.59737 0.77086 0.97981 0.0
C1149 C 0.61884 0.78212 -0.00204 0.0
C1150 C 0.45821 0.74249 0.01702 0.0
C1151 C 0.5289 0.75887 -0.00184 0.0
C1152 C 0.41343 0.73093 0.01688 0.0
C1153 C 0.39062 0.72599 -0.00153 0.0
C1154 C 0.48067 0.74881 -0.00137 0.0
C1155 C 0.41383 0.73461 0.98045 0.0
C1156 C 0.55257 0.75935 0.97984 0.0
C1157 C 0.59438 0.77952 0.01604 0.0
N1158 N 0.45758 0.7452 0.98098 0.0
N1159 N 0.55076 0.76836 0.01567 0.0
H1160 H 0.03224 0.1472 0.71044 0.0
H1161 H 0.98369 0.36472 0.77658 0.0
H1162 H 0.02793 0.14787 0.77579 0.0
H1163 H 0.96915 0.36018 0.71158 0.0
H1164 H 0.00484 0.28648 0.77633 0.0
H1165 H 0.0109 0.22543 0.7104 0.0
C1166 C 0.02617 0.16353 0.72479 0.0
C1167 C 0.03195 0.14068 0.74315 0.0
C1168 C 0.99728 0.30267 0.7621 0.0
C1169 C 0.0084 0.23084 0.74319 0.0
C1170 C 0.98561 0.34757 0.7622 0.0
C1171 C 0.97451 0.36932 0.74407 0.0
C1172 C 0.99806 0.27915 0.74374 0.0
C1173 C 0.97739 0.34498 0.72595 0.0
C1174 C 0.01426 0.20837 0.72474 0.0
C1175 C 0.02376 0.16389 0.76124 0.0
N1176 N 0.98868 0.30127 0.72626 0.0
N1177 N 0.01279 0.20768 0.7608 0.0
H1178 H 0.8958 0.73363 0.52634 0.0
H1179 H 0.11223 0.78335 0.46009 0.0
H1180 H 0.89974 0.72 0.46128 0.0
H1181 H 0.11268 0.77412 0.52533 0.0
H1182 H 0.03398 0.76282 0.46002 0.0
H1183 H 0.97392 0.75431 0.52599 0.0
C1184 C 0.91279 0.73566 0.51193 0.0
C1185 C 0.89093 0.72492 0.49381 0.0
C1186 C 0.05131 0.76493 0.47434 0.0
C1187 C 0.98094 0.74796 0.49337 0.0
C1188 C 0.09614 0.77638 0.4744 0.0
C1189 C 0.11931 0.78052 0.49276 0.0
C1190 C 0.02919 0.75792 0.49277 0.0
C1191 C 0.09641 0.77123 0.51079 0.0
C1192 C 0.95762 0.74705 0.51177 0.0
C1193 C 0.91506 0.72793 0.47564 0.0
N1194 N 0.05263 0.76077 0.51035 0.0
N1195 N 0.95871 0.73898 0.4759 0.0
H1196 H 0.60807 0.67531 0.23049 0.0
H1197 H 0.40464 0.8356 0.22759 0.0
H1198 H 0.48263 0.62885 0.2532 0.0
H1199 H 0.52533 0.88084 0.25561 0.0
H1200 H 0.43369 0.75957 0.22802 0.0
H1201 H 0.57919 0.75145 0.23084 0.0
C1202 C 0.5742 0.68112 0.23527 0.0
C1203 C 0.54743 0.64579 0.24165 0.0
C1204 C 0.45379 0.78625 0.23395 0.0
C1205 C 0.5144 0.73245 0.24183 0.0
C1206 C 0.43758 0.82961 0.23354 0.0
C1207 C 0.46291 0.86457 0.2414 0.0
C1208 C 0.49613 0.77796 0.24172 0.0
C1209 C 0.50494 0.85481 0.24932 0.0
C1210 C 0.55804 0.72449 0.23564 0.0
C1211 C 0.50414 0.6552 0.24809 0.0
N1212 N 0.52059 0.81236 0.24903 0.0
N1213 N 0.48865 0.69771 0.24774 0.0
H1214 H 0.39527 0.23456 0.02664 0.0
H1215 H 0.61235 0.28432 0.96079 0.0
H1216 H 0.40013 0.22129 0.96158 0.0
H1217 H 0.61201 0.27726 0.02609 0.0
H1218 H 0.53421 0.26359 0.96065 0.0
H1219 H 0.47332 0.25566 0.02652 0.0
C1220 C 0.41244 0.23676 0.01228 0.0
C1221 C 0.39087 0.226 0.99409 0.0
C1222 C 0.55132 0.26622 0.975 0.0
C1223 C 0.48077 0.2495 0.99391 0.0
C1224 C 0.5961 0.27779 0.9751 0.0
C1225 C 0.61903 0.28258 0.99349 0.0
C1226 C 0.52898 0.2597 0.99341 0.0
C1227 C 0.59593 0.27384 0.01153 0.0
C1228 C 0.45723 0.2484 0.01226 0.0
C1229 C 0.41521 0.22921 0.976 0.0
N1230 N 0.55218 0.26321 0.01104 0.0
N1231 N 0.4588 0.24047 0.97638 0.0
loop_
_geom_bond_atom_site_label_1
_geom_bond_atom_site_label_2
_geom_bond_distance
_geom_bond_site_symmetry_2
_ccdc_geom_bond_type
O0 Zn1 1.953 . S
O0 C16 1.225 . S
Zn1 O0 1.953 . S
Zn1 O2 1.949 . S
Zn1 O8 1.919 . S
Zn1 O13 1.924 . S
O2 Zn1 1.949 . S
O2 Zn3 1.923 . S
O2 Zn4 1.950 . S
O2 Zn5 1.945 . S
Zn3 O2 1.923 . S
Zn3 O6 1.933 . S
Zn3 O9 1.941 . S
Zn3 O10 1.965 . S
Zn4 O2 1.950 . S
Zn4 O11 1.938 . S
Zn4 O12 1.906 . S
Zn4 O22 1.953 . S
Zn5 O2 1.945 . S
Zn5 O7 1.932 . S
Zn5 O14 1.977 . S
Zn5 O15 1.910 . S
O6 Zn3 1.933 . S
O6 C17 1.226 . S
O7 Zn5 1.932 . S
O7 C17 1.307 . S
O8 Zn1 1.919 . S
O8 C19 1.253 . S
O9 Zn3 1.941 . S
O9 C19 1.283 . S
O10 Zn3 1.965 . S
O10 C18 1.303 . S
O11 Zn4 1.938 . S
O11 C18 1.247 . S
O12 Zn4 1.906 . S
O12 C20 1.304 . S
O13 Zn1 1.924 . S
O13 C21 1.311 . S
O14 Zn5 1.977 . S
O14 C20 1.272 . S
O15 Zn5 1.910 . S
O15 C21 1.231 . S
C16 O0 1.225 . S
C16 O22 1.298 . S
C17 O6 1.226 . S
C17 O7 1.307 . S
C18 O10 1.303 . S
C18 O11 1.247 . S
C19 O8 1.253 . S
C19 O9 1.283 . S
C20 O12 1.304 . S
C20 O14 1.272 . S
C21 O13 1.311 . S
C21 O15 1.231 . S
O22 Zn4 1.953 . S
O22 C16 1.298 . S
O23 Zn24 1.953 . S
O23 C39 1.225 . S
Zn24 O23 1.953 . S
Zn24 O25 1.949 . S
Zn24 O31 1.919 . S
Zn24 O36 1.924 . S
O25 Zn24 1.949 . S
O25 Zn26 1.923 . S
O25 Zn27 1.950 . S
O25 Zn28 1.945 . S
Zn26 O25 1.923 . S
Zn26 O29 1.933 . S
Zn26 O32 1.941 . S
Zn26 O33 1.965 . S
Zn27 O25 1.950 . S
Zn27 O34 1.938 . S
Zn27 O35 1.906 . S
Zn27 O45 1.953 . S
Zn28 O25 1.945 . S
Zn28 O30 1.932 . S
Zn28 O37 1.977 . S
Zn28 O38 1.910 . S
O29 Zn26 1.933 . S
O29 C40 1.226 . S
O30 Zn28 1.932 . S
O30 C40 1.307 . S
O31 Zn24 1.919 . S
O31 C42 1.253 . S
O32 Zn26 1.941 . S
O32 C42 1.283 . S
O33 Zn26 1.965 . S
O33 C41 1.303 . S
O34 Zn27 1.938 . S
O34 C41 1.247 . S
O35 Zn27 1.906 . S
O35 C43 1.304 . S
O36 Zn24 1.924 . S
O36 C44 1.311 . S
O37 Zn28 1.977 . S
O37 C43 1.272 . S
O38 Zn28 1.910 . S
O38 C44 1.231 . S
C39 O23 1.225 . S
C39 O45 1.298 . S
C40 O29 1.226 . S
C40 O30 1.307 . S
C41 O33 1.303 . S
C41 O34 1.247 . S
C42 O31 1.253 . S
C42 O32 1.283 . S
C43 O35 1.304 . S
C43 O37 1.272 . S
C44 O36 1.311 . S
C44 O38 1.231 . S
O45 Zn27 1.953 . S
O45 C39 1.298 . S
O46 Zn47 1.953 . S
O46 C62 1.225 . S
Zn47 O46 1.953 . S
Zn47 O48 1.949 . S
Zn47 O54 1.919 . S
Zn47 O59 1.924 . S
O48 Zn47 1.949 . S
O48 Zn49 1.923 . S
O48 Zn50 1.950 . S
O48 Zn51 1.945 . S
Zn49 O48 1.923 . S
Zn49 O52 1.933 . S
Zn49 O55 1.941 . S
Zn49 O56 1.965 . S
Zn50 O48 1.950 . S
Zn50 O57 1.938 . S
Zn50 O58 1.906 . S
Zn50 O68 1.953 . S
Zn51 O48 1.945 . S
Zn51 O53 1.932 . S
Zn51 O60 1.977 . S
Zn51 O61 1.910 . S
O52 Zn49 1.933 . S
O52 C63 1.226 . S
O53 Zn51 1.932 . S
O53 C63 1.307 . S
O54 Zn47 1.919 . S
O54 C65 1.253 . S
O55 Zn49 1.941 . S
O55 C65 1.283 . S
O56 Zn49 1.965 . S
O56 C64 1.303 . S
O57 Zn50 1.938 . S
O57 C64 1.247 . S
O58 Zn50 1.906 . S
O58 C66 1.304 . S
O59 Zn47 1.924 . S
O59 C67 1.311 . S
O60 Zn51 1.977 . S
O60 C66 1.272 . S
O61 Zn51 1.910 . S
O61 C67 1.231 . S
C62 O46 1.225 . S
C62 O68 1.298 . S
C63 O52 1.226 . S
C63 O53 1.307 . S
C64 O56 1.303 . S
C64 O57 1.247 . S
C65 O54 1.253 . S
C65 O55 1.283 . S
C66 O58 1.304 . S
C66 O60 1.272 . S
C67 O59 1.311 . S
C67 O61 1.231 . S
O68 Zn50 1.953 . S
O68 C62 1.298 . S
O69 Zn70 1.953 . S
O69 C85 1.225 . S
Zn70 O69 1.953 . S
Zn70 O71 1.938 1_554 S
Zn70 O77 1.919 . S
Zn70 O82 1.924 . S
O71 Zn70 1.938 1_556 S
O71 Zn72 1.918 1_556 S
O71 Zn73 1.960 . S
O71 Zn74 1.951 . S
Zn72 O71 1.918 1_554 S
Zn72 O75 1.933 . S
Zn72 O78 1.941 . S
Zn72 O79 1.965 . S
Zn73 O71 1.960 . S
Zn73 O80 1.938 . S
Zn73 O81 1.906 . S
Zn73 O91 1.953 . S
Zn74 O71 1.951 . S
Zn74 O76 1.932 . S
Zn74 O83 1.977 . S
Zn74 O84 1.910 . S
O75 Zn72 1.933 . S
O75 C86 1.226 1_554 S
O76 Zn74 1.932 . S
O76 C86 1.307 . S
O77 Zn70 1.919 . S
O77 C88 1.253 . S
O78 Zn72 1.941 . S
O78 C88 1.283 . S
O79 Zn72 1.965 . S
O79 C87 1.303 1_554 S
O80 Zn73 1.938 . S
O80 C87 1.247 . S
O81 Zn73 1.906 . S
O81 C89 1.304 . S
O82 Zn70 1.924 . S
O82 C90 1.311 . S
O83 Zn74 1.977 . S
O83 C89 1.272 . S
O84 Zn74 1.910 . S
O84 C90 1.231 1_556 S
C85 O69 1.225 . S
C85 O91 1.298 1_554 S
C86 O75 1.226 1_556 S
C86 O76 1.307 . S
C87 O79 1.303 1_556 S
C87 O80 1.247 . S
C88 O77 1.253 . S
C88 O78 1.283 . S
C89 O81 1.304 . S
C89 O83 1.272 . S
C90 O82 1.311 . S
C90 O84 1.231 1_554 S
O91 Zn73 1.953 . S
O91 C85 1.298 1_556 S
O92 Zn93 1.953 . S
O92 C108 1.225 . S
Zn93 O92 1.953 . S
Zn93 O94 1.949 . S
Zn93 O100 1.919 . S
Zn93 O105 1.924 . S
O94 Zn93 1.949 . S
O94 Zn95 1.923 . S
O94 Zn96 1.950 . S
O94 Zn97 1.945 . S
Zn95 O94 1.923 . S
Zn95 O98 1.933 . S
Zn95 O101 1.941 . S
Zn95 O102 1.965 . S
Zn96 O94 1.950 . S
Zn96 O103 1.938 . S
Zn96 O104 1.906 . S
Zn96 O114 1.953 . S
Zn97 O94 1.945 . S
Zn97 O99 1.932 . S
Zn97 O106 1.977 . S
Zn97 O107 1.910 . S
O98 Zn95 1.933 . S
O98 C109 1.226 . S
O99 Zn97 1.932 . S
O99 C109 1.307 . S
O100 Zn93 1.919 . S
O100 C111 1.253 . S
O101 Zn95 1.941 . S
O101 C111 1.283 . S
O102 Zn95 1.965 . S
O102 C110 1.303 . S
O103 Zn96 1.938 . S
O103 C110 1.247 . S
O104 Zn96 1.906 . S
O104 C112 1.304 . S
O105 Zn93 1.924 . S
O105 C113 1.311 . S
O106 Zn97 1.977 . S
O106 C112 1.272 . S
O107 Zn97 1.910 . S
O107 C113 1.231 . S
C108 O92 1.225 . S
C108 O114 1.298 . S
C109 O98 1.226 . S
C109 O99 1.307 . S
C110 O102 1.303 . S
C110 O103 1.247 . S
C111 O100 1.253 . S
C111 O101 1.283 . S
C112 O104 1.304 . S
C112 O106 1.272 . S
C113 O105 1.311 . S
C113 O107 1.231 . S
O114 Zn96 1.953 . S
O114 C108 1.298 . S
O115 Zn116 1.953 . S
O115 C131 1.225 . S
Zn116 O115 1.953 . S
Zn116 O117 1.949 . S
Zn116 O123 1.919 . S
Zn116 O128 1.924 . S
O117 Zn116 1.949 . S
O117 Zn118 1.923 . S
O117 Zn119 1.950 . S
O117 Zn120 1.945 . S
Zn118 O117 1.923 . S
Zn118 O121 1.933 . S
Zn118 O124 1.941 . S
Zn118 O125 1.965 . S
Zn119 O117 1.950 . S
Zn119 O126 1.938 . S
Zn119 O127 1.906 . S
Zn119 O137 1.953 . S
Zn120 O117 1.945 . S
Zn120 O122 1.932 . S
Zn120 O129 1.977 . S
Zn120 O130 1.910 . S
O121 Zn118 1.933 . S
O121 C132 1.226 . S
O122 Zn120 1.932 . S
O122 C132 1.307 . S
O123 Zn116 1.919 . S
O123 C134 1.253 . S
O124 Zn118 1.941 . S
O124 C134 1.283 . S
O125 Zn118 1.965 . S
O125 C133 1.303 . S
O126 Zn119 1.938 . S
O126 C133 1.247 . S
O127 Zn119 1.906 . S
O127 C135 1.304 . S
O128 Zn116 1.924 . S
O128 C136 1.311 . S
O129 Zn120 1.977 . S
O129 C135 1.272 . S
O130 Zn120 1.910 . S
O130 C136 1.231 . S
C131 O115 1.225 . S
C131 O137 1.298 . S
C132 O121 1.226 . S
C132 O122 1.307 . S
C133 O125 1.303 . S
C133 O126 1.247 . S
C134 O123 1.253 . S
C134 O124 1.283 . S
C135 O127 1.304 . S
C135 O129 1.272 . S
C136 O128 1.311 . S
C136 O130 1.231 . S
O137 Zn119 1.953 . S
O137 C131 1.298 . S
O138 Zn139 1.953 . S
O138 C154 1.225 . S
Zn139 O138 1.953 . S
Zn139 O140 1.949 . S
Zn139 O146 1.919 . S
Zn139 O151 1.924 . S
O140 Zn139 1.949 . S
O140 Zn141 1.923 . S
O140 Zn142 1.950 . S
O140 Zn143 1.945 . S
Zn141 O140 1.923 . S
Zn141 O144 1.933 . S
Zn141 O147 1.941 . S
Zn141 O148 1.965 . S
Zn142 O140 1.950 . S
Zn142 O149 1.938 . S
Zn142 O150 1.906 . S
Zn142 O160 1.953 . S
Zn143 O140 1.945 . S
Zn143 O145 1.932 . S
Zn143 O152 1.977 . S
Zn143 O153 1.910 . S
O144 Zn141 1.933 . S
O144 C155 1.226 . S
O145 Zn143 1.932 . S
O145 C155 1.307 . S
O146 Zn139 1.919 . S
O146 C157 1.253 . S
O147 Zn141 1.941 . S
O147 C157 1.283 . S
O148 Zn141 1.965 . S
O148 C156 1.303 . S
O149 Zn142 1.938 . S
O149 C156 1.247 . S
O150 Zn142 1.906 . S
O150 C158 1.304 . S
O151 Zn139 1.924 . S
O151 C159 1.311 . S
O152 Zn143 1.977 . S
O152 C158 1.272 . S
O153 Zn143 1.910 . S
O153 C159 1.231 . S
C154 O138 1.225 . S
C154 O160 1.298 . S
C155 O144 1.226 . S
C155 O145 1.307 . S
C156 O148 1.303 . S
C156 O149 1.247 . S
C157 O146 1.253 . S
C157 O147 1.283 . S
C158 O150 1.304 . S
C158 O152 1.272 . S
C159 O151 1.311 . S
C159 O153 1.231 . S
O160 Zn142 1.953 . S
O160 C154 1.298 . S
O161 Zn162 1.953 . S
O161 C177 1.225 . S
Zn162 O161 1.953 . S
Zn162 O163 1.938 1_556 S
Zn162 O169 1.919 . S
Zn162 O174 1.924 . S
O163 Zn162 1.938 1_554 S
O163 Zn164 1.918 1_554 S
O163 Zn165 1.960 . S
O163 Zn166 1.951 . S
Zn164 O163 1.918 1_556 S
Zn164 O167 1.933 . S
Zn164 O170 1.941 . S
Zn164 O171 1.965 . S
Zn165 O163 1.960 . S
Zn165 O172 1.938 . S
Zn165 O173 1.906 . S
Zn165 O183 1.953 . S
Zn166 O163 1.951 . S
Zn166 O168 1.932 . S
Zn166 O175 1.977 . S
Zn166 O176 1.910 . S
O167 Zn164 1.933 . S
O167 C178 1.226 1_556 S
O168 Zn166 1.932 . S
O168 C178 1.307 . S
O169 Zn162 1.919 . S
O169 C180 1.253 . S
O170 Zn164 1.941 . S
O170 C180 1.283 . S
O171 Zn164 1.965 . S
O171 C179 1.303 1_556 S
O172 Zn165 1.938 . S
O172 C179 1.247 . S
O173 Zn165 1.906 . S
O173 C181 1.304 . S
O174 Zn162 1.924 . S
O174 C182 1.311 . S
O175 Zn166 1.977 . S
O175 C181 1.272 . S
O176 Zn166 1.910 . S
O176 C182 1.231 1_554 S
C177 O161 1.225 . S
C177 O183 1.298 1_556 S
C178 O167 1.226 1_554 S
C178 O168 1.307 . S
C179 O171 1.303 1_554 S
C179 O172 1.247 . S
C180 O169 1.253 . S
C180 O170 1.283 . S
C181 O173 1.304 . S
C181 O175 1.272 . S
C182 O174 1.311 . S
C182 O176 1.231 1_556 S
O183 Zn165 1.953 . S
O183 C177 1.298 1_554 S
O184 Zn185 1.953 . S
O184 C200 1.225 . S
Zn185 O184 1.953 . S
Zn185 O186 1.949 . S
Zn185 O192 1.919 . S
Zn185 O197 1.924 . S
O186 Zn185 1.949 . S
O186 Zn187 1.923 1_545 S
O186 Zn188 1.950 . S
O186 Zn189 1.945 . S
Zn187 O186 1.923 1_565 S
Zn187 O190 1.933 . S
Zn187 O193 1.941 . S
Zn187 O194 1.965 . S
Zn188 O186 1.950 . S
Zn188 O195 1.938 1_545 S
Zn188 O196 1.906 . S
Zn188 O206 1.953 . S
Zn189 O186 1.945 . S
Zn189 O191 1.932 1_545 S
Zn189 O198 1.977 . S
Zn189 O199 1.910 . S
O190 Zn187 1.933 . S
O190 C201 1.226 . S
O191 Zn189 1.932 1_565 S
O191 C201 1.307 . S
O192 Zn185 1.919 . S
O192 C203 1.253 . S
O193 Zn187 1.941 . S
O193 C203 1.283 1_565 S
O194 Zn187 1.965 . S
O194 C202 1.303 . S
O195 Zn188 1.938 1_565 S
O195 C202 1.247 . S
O196 Zn188 1.906 . S
O196 C204 1.304 . S
O197 Zn185 1.924 . S
O197 C205 1.311 . S
O198 Zn189 1.977 . S
O198 C204 1.272 . S
O199 Zn189 1.910 . S
O199 C205 1.231 . S
C200 O184 1.225 . S
C200 O206 1.298 . S
C201 O190 1.226 . S
C201 O191 1.307 . S
C202 O194 1.303 . S
C202 O195 1.247 . S
C203 O192 1.253 . S
C203 O193 1.283 1_545 S
C204 O196 1.304 . S
C204 O198 1.272 . S
C205 O197 1.311 . S
C205 O199 1.231 . S
O206 Zn188 1.953 . S
O206 C200 1.298 . S
O207 Zn208 1.953 . S
O207 C223 1.225 . S
Zn208 O207 1.953 . S
Zn208 O209 1.938 1_554 S
Zn208 O215 1.919 . S
Zn208 O220 1.924 . S
O209 Zn208 1.938 1_556 S
O209 Zn210 1.918 1_556 S
O209 Zn211 1.960 . S
O209 Zn212 1.951 . S
Zn210 O209 1.918 1_554 S
Zn210 O213 1.933 . S
Zn210 O216 1.941 . S
Zn210 O217 1.965 . S
Zn211 O209 1.960 . S
Zn211 O218 1.938 . S
Zn211 O219 1.906 . S
Zn211 O229 1.953 . S
Zn212 O209 1.951 . S
Zn212 O214 1.932 1_565 S
Zn212 O221 1.977 . S
Zn212 O222 1.910 . S
O213 Zn210 1.933 . S
O213 C224 1.226 1_564 S
O214 Zn212 1.932 1_545 S
O214 C224 1.307 . S
O215 Zn208 1.919 . S
O215 C226 1.253 . S
O216 Zn210 1.941 . S
O216 C226 1.283 . S
O217 Zn210 1.965 . S
O217 C225 1.303 1_554 S
O218 Zn211 1.938 . S
O218 C225 1.247 . S
O219 Zn211 1.906 . S
O219 C227 1.304 . S
O220 Zn208 1.924 . S
O220 C228 1.311 . S
O221 Zn212 1.977 . S
O221 C227 1.272 . S
O222 Zn212 1.910 . S
O222 C228 1.231 1_556 S
C223 O207 1.225 . S
C223 O229 1.298 1_554 S
C224 O213 1.226 1_546 S
C224 O214 1.307 . S
C225 O217 1.303 1_556 S
C225 O218 1.247 . S
C226 O215 1.253 . S
C226 O216 1.283 . S
C227 O219 1.304 . S
C227 O221 1.272 . S
C228 O220 1.311 . S
C228 O222 1.231 1_554 S
O229 Zn211 1.953 . S
O229 C223 1.298 1_556 S
O230 Zn231 1.953 . S
O230 C246 1.225 . S
Zn231 O230 1.953 . S
Zn231 O232 1.949 . S
Zn231 O238 1.919 . S
Zn231 O243 1.924 . S
O232 Zn231 1.949 . S
O232 Zn233 1.923 1_565 S
O232 Zn234 1.950 . S
O232 Zn235 1.945 . S
Zn233 O232 1.923 1_545 S
Zn233 O236 1.933 . S
Zn233 O239 1.941 . S
Zn233 O240 1.965 . S
Zn234 O232 1.950 . S
Zn234 O241 1.938 1_565 S
Zn234 O242 1.906 . S
Zn234 O252 1.953 . S
Zn235 O232 1.945 . S
Zn235 O237 1.932 1_565 S
Zn235 O244 1.977 . S
Zn235 O245 1.910 . S
O236 Zn233 1.933 . S
O236 C247 1.226 . S
O237 Zn235 1.932 1_545 S
O237 C247 1.307 . S
O238 Zn231 1.919 . S
O238 C249 1.253 . S
O239 Zn233 1.941 . S
O239 C249 1.283 1_545 S
O240 Zn233 1.965 . S
O240 C248 1.303 . S
O241 Zn234 1.938 1_545 S
O241 C248 1.247 . S
O242 Zn234 1.906 . S
O242 C250 1.304 . S
O243 Zn231 1.924 . S
O243 C251 1.311 . S
O244 Zn235 1.977 . S
O244 C250 1.272 . S
O245 Zn235 1.910 . S
O245 C251 1.231 . S
C246 O230 1.225 . S
C246 O252 1.298 . S
C247 O236 1.226 . S
C247 O237 1.307 . S
C248 O240 1.303 . S
C248 O241 1.247 . S
C249 O238 1.253 . S
C249 O239 1.283 1_565 S
C250 O242 1.304 . S
C250 O244 1.272 . S
C251 O243 1.311 . S
C251 O245 1.231 . S
O252 Zn234 1.953 . S
O252 C246 1.298 . S
O253 Zn254 1.953 . S
O253 C269 1.225 . S
Zn254 O253 1.953 . S
Zn254 O255 1.949 . S
Zn254 O261 1.919 . S
Zn254 O266 1.924 . S
O255 Zn254 1.949 . S
O255 Zn256 1.923 . S
O255 Zn257 1.950 . S
O255 Zn258 1.945 . S
Zn256 O255 1.923 . S
Zn256 O259 1.933 . S
Zn256 O262 1.941 . S
Zn256 O263 1.965 . S
Zn257 O255 1.950 . S
Zn257 O264 1.938 . S
Zn257 O265 1.906 . S
Zn257 O275 1.953 . S
Zn258 O255 1.945 . S
Zn258 O260 1.932 1_545 S
Zn258 O267 1.977 . S
Zn258 O268 1.910 . S
O259 Zn256 1.933 . S
O259 C270 1.226 1_545 S
O260 Zn258 1.932 1_565 S
O260 C270 1.307 . S
O261 Zn254 1.919 . S
O261 C272 1.253 . S
O262 Zn256 1.941 . S
O262 C272 1.283 . S
O263 Zn256 1.965 . S
O263 C271 1.303 . S
O264 Zn257 1.938 . S
O264 C271 1.247 . S
O265 Zn257 1.906 . S
O265 C273 1.304 . S
O266 Zn254 1.924 . S
O266 C274 1.311 . S
O267 Zn258 1.977 . S
O267 C273 1.272 . S
O268 Zn258 1.910 . S
O268 C274 1.231 . S
C269 O253 1.225 . S
C269 O275 1.298 . S
C270 O259 1.226 1_565 S
C270 O260 1.307 . S
C271 O263 1.303 . S
C271 O264 1.247 . S
C272 O261 1.253 . S
C272 O262 1.283 . S
C273 O265 1.304 . S
C273 O267 1.272 . S
C274 O266 1.311 . S
C274 O268 1.231 . S
O275 Zn257 1.953 . S
O275 C269 1.298 . S
O276 Zn277 1.953 . S
O276 C292 1.225 . S
Zn277 O276 1.953 . S
Zn277 O278 1.949 . S
Zn277 O284 1.919 . S
Zn277 O289 1.924 . S
O278 Zn277 1.949 . S
O278 Zn279 1.923 1_565 S
O278 Zn280 1.950 . S
O278 Zn281 1.945 . S
Zn279 O278 1.923 1_545 S
Zn279 O282 1.933 . S
Zn279 O285 1.941 . S
Zn279 O286 1.965 . S
Zn280 O278 1.950 . S
Zn280 O287 1.938 1_565 S
Zn280 O288 1.906 . S
Zn280 O298 1.953 . S
Zn281 O278 1.945 . S
Zn281 O283 1.932 1_565 S
Zn281 O290 1.977 . S
Zn281 O291 1.910 . S
O282 Zn279 1.933 . S
O282 C293 1.226 . S
O283 Zn281 1.932 1_545 S
O283 C293 1.307 . S
O284 Zn277 1.919 . S
O284 C295 1.253 . S
O285 Zn279 1.941 . S
O285 C295 1.283 1_545 S
O286 Zn279 1.965 . S
O286 C294 1.303 . S
O287 Zn280 1.938 1_545 S
O287 C294 1.247 . S
O288 Zn280 1.906 . S
O288 C296 1.304 . S
O289 Zn277 1.924 . S
O289 C297 1.311 . S
O290 Zn281 1.977 . S
O290 C296 1.272 . S
O291 Zn281 1.910 . S
O291 C297 1.231 . S
C292 O276 1.225 . S
C292 O298 1.298 . S
C293 O282 1.226 . S
C293 O283 1.307 . S
C294 O286 1.303 . S
C294 O287 1.247 . S
C295 O284 1.253 . S
C295 O285 1.283 1_565 S
C296 O288 1.304 . S
C296 O290 1.272 . S
C297 O289 1.311 . S
C297 O291 1.231 . S
O298 Zn280 1.953 . S
O298 C292 1.298 . S
O299 Zn300 1.953 . S
O299 C315 1.225 . S
Zn300 O299 1.953 . S
Zn300 O301 1.938 1_556 S
Zn300 O307 1.919 . S
Zn300 O312 1.924 . S
O301 Zn300 1.938 1_554 S
O301 Zn302 1.918 1_554 S
O301 Zn303 1.960 . S
O301 Zn304 1.951 . S
Zn302 O301 1.918 1_556 S
Zn302 O305 1.933 . S
Zn302 O308 1.941 . S
Zn302 O309 1.965 . S
Zn303 O301 1.960 . S
Zn303 O310 1.938 . S
Zn303 O311 1.906 . S
Zn303 O321 1.953 . S
Zn304 O301 1.951 . S
Zn304 O306 1.932 1_545 S
Zn304 O313 1.977 . S
Zn304 O314 1.910 . S
O305 Zn302 1.933 . S
O305 C316 1.226 1_546 S
O306 Zn304 1.932 1_565 S
O306 C316 1.307 . S
O307 Zn300 1.919 . S
O307 C318 1.253 . S
O308 Zn302 1.941 . S
O308 C318 1.283 . S
O309 Zn302 1.965 . S
O309 C317 1.303 1_556 S
O310 Zn303 1.938 . S
O310 C317 1.247 . S
O311 Zn303 1.906 . S
O311 C319 1.304 . S
O312 Zn300 1.924 . S
O312 C320 1.311 . S
O313 Zn304 1.977 . S
O313 C319 1.272 . S
O314 Zn304 1.910 . S
O314 C320 1.231 1_554 S
C315 O299 1.225 . S
C315 O321 1.298 1_556 S
C316 O305 1.226 1_564 S
C316 O306 1.307 . S
C317 O309 1.303 1_554 S
C317 O310 1.247 . S
C318 O307 1.253 . S
C318 O308 1.283 . S
C319 O311 1.304 . S
C319 O313 1.272 . S
C320 O312 1.311 . S
C320 O314 1.231 1_556 S
O321 Zn303 1.953 . S
O321 C315 1.298 1_554 S
O322 Zn323 1.953 . S
O322 C338 1.225 . S
Zn323 O322 1.953 . S
Zn323 O324 1.949 . S
Zn323 O330 1.919 . S
Zn323 O335 1.924 . S
O324 Zn323 1.949 . S
O324 Zn325 1.923 1_545 S
O324 Zn326 1.950 . S
O324 Zn327 1.945 . S
Zn325 O324 1.923 1_565 S
Zn325 O328 1.933 . S
Zn325 O331 1.941 . S
Zn325 O332 1.965 . S
Zn326 O324 1.950 . S
Zn326 O333 1.938 1_545 S
Zn326 O334 1.906 . S
Zn326 O344 1.953 . S
Zn327 O324 1.945 . S
Zn327 O329 1.932 1_545 S
Zn327 O336 1.977 . S
Zn327 O337 1.910 . S
O328 Zn325 1.933 . S
O328 C339 1.226 . S
O329 Zn327 1.932 1_565 S
O329 C339 1.307 . S
O330 Zn323 1.919 . S
O330 C341 1.253 . S
O331 Zn325 1.941 . S
O331 C341 1.283 1_565 S
O332 Zn325 1.965 . S
O332 C340 1.303 . S
O333 Zn326 1.938 1_565 S
O333 C340 1.247 . S
O334 Zn326 1.906 . S
O334 C342 1.304 . S
O335 Zn323 1.924 . S
O335 C343 1.311 . S
O336 Zn327 1.977 . S
O336 C342 1.272 . S
O337 Zn327 1.910 . S
O337 C343 1.231 . S
C338 O322 1.225 . S
C338 O344 1.298 . S
C339 O328 1.226 . S
C339 O329 1.307 . S
C340 O332 1.303 . S
C340 O333 1.247 . S
C341 O330 1.253 . S
C341 O331 1.283 1_545 S
C342 O334 1.304 . S
C342 O336 1.272 . S
C343 O335 1.311 . S
C343 O337 1.231 . S
O344 Zn326 1.953 . S
O344 C338 1.298 . S
O345 Zn346 1.953 . S
O345 C361 1.225 . S
Zn346 O345 1.953 . S
Zn346 O347 1.949 . S
Zn346 O353 1.919 . S
Zn346 O358 1.924 . S
O347 Zn346 1.949 . S
O347 Zn348 1.923 . S
O347 Zn349 1.950 . S
O347 Zn350 1.945 . S
Zn348 O347 1.923 . S
Zn348 O351 1.933 . S
Zn348 O354 1.941 . S
Zn348 O355 1.965 . S
Zn349 O347 1.950 . S
Zn349 O356 1.938 . S
Zn349 O357 1.906 . S
Zn349 O367 1.953 . S
Zn350 O347 1.945 . S
Zn350 O352 1.932 1_565 S
Zn350 O359 1.977 . S
Zn350 O360 1.910 . S
O351 Zn348 1.933 . S
O351 C362 1.226 1_565 S
O352 Zn350 1.932 1_545 S
O352 C362 1.307 . S
O353 Zn346 1.919 . S
O353 C364 1.253 . S
O354 Zn348 1.941 . S
O354 C364 1.283 . S
O355 Zn348 1.965 . S
O355 C363 1.303 . S
O356 Zn349 1.938 . S
O356 C363 1.247 . S
O357 Zn349 1.906 . S
O357 C365 1.304 . S
O358 Zn346 1.924 . S
O358 C366 1.311 . S
O359 Zn350 1.977 . S
O359 C365 1.272 . S
O360 Zn350 1.910 . S
O360 C366 1.231 . S
C361 O345 1.225 . S
C361 O367 1.298 . S
C362 O351 1.226 1_545 S
C362 O352 1.307 . S
C363 O355 1.303 . S
C363 O356 1.247 . S
C364 O353 1.253 . S
C364 O354 1.283 . S
C365 O357 1.304 . S
C365 O359 1.272 . S
C366 O358 1.311 . S
C366 O360 1.231 . S
O367 Zn349 1.953 . S
O367 C361 1.298 . S
H368 C374 0.930 . S
H369 C378 0.930 . S
H370 C383 0.929 . S
H371 C381 0.929 . S
H372 C376 0.929 . S
H373 C382 0.929 . S
C374 H368 0.930 . S
C374 C375 1.367 . S
C374 C382 1.378 . S
C375 C374 1.367 . S
C375 C383 1.433 . S
C376 H372 0.929 . S
C376 C378 1.378 . S
C376 C380 1.350 . S
C377 C380 1.463 . S
C377 C382 1.350 . S
C377 N385 1.427 . S
C378 H369 0.930 . S
C378 C376 1.378 . S
C378 C379 1.367 . S
C379 C378 1.367 . S
C379 C381 1.433 . S
C380 C376 1.350 . S
C380 C377 1.463 . S
C380 N384 1.427 . S
C381 H371 0.929 . S
C381 C379 1.433 . S
C381 N384 1.384 . S
C382 H373 0.929 . S
C382 C374 1.378 . S
C382 C377 1.350 . S
C383 H370 0.929 . S
C383 C375 1.433 . S
C383 N385 1.384 . S
N384 C380 1.427 . S
N384 C381 1.384 . S
N385 C377 1.427 . S
N385 C383 1.384 . S
H386 C392 0.930 . S
H387 C396 0.930 . S
H388 C401 0.929 . S
H389 C399 0.929 . S
H390 C394 0.929 . S
H391 C400 0.929 . S
C392 H386 0.930 . S
C392 C393 1.367 . S
C392 C400 1.378 . S
C393 C392 1.367 . S
C393 C401 1.433 . S
C394 H390 0.929 . S
C394 C396 1.378 . S
C394 C398 1.350 . S
C395 C398 1.463 . S
C395 C400 1.350 . S
C395 N403 1.427 . S
C396 H387 0.930 . S
C396 C394 1.378 . S
C396 C397 1.367 . S
C397 C396 1.367 . S
C397 C399 1.433 . S
C398 C394 1.350 . S
C398 C395 1.463 . S
C398 N402 1.427 . S
C399 H389 0.929 . S
C399 C397 1.433 . S
C399 N402 1.384 . S
C400 H391 0.929 . S
C400 C392 1.378 . S
C400 C395 1.350 . S
C401 H388 0.929 . S
C401 C393 1.433 . S
C401 N403 1.384 . S
N402 C398 1.427 . S
N402 C399 1.384 . S
N403 C395 1.427 . S
N403 C401 1.384 . S
H404 C410 0.930 . S
H405 C414 0.930 . S
H406 C419 0.929 . S
H407 C417 0.929 . S
H408 C412 0.929 . S
H409 C418 0.929 . S
C410 H404 0.930 . S
C410 C411 1.367 . S
C410 C418 1.378 . S
C411 C410 1.367 . S
C411 C419 1.433 . S
C412 H408 0.929 . S
C412 C414 1.378 1_455 S
C412 C416 1.350 . S
C413 C416 1.463 . S
C413 C418 1.350 . S
C413 N421 1.427 . S
C414 H405 0.930 . S
C414 C412 1.378 1_655 S
C414 C415 1.367 . S
C415 C414 1.367 . S
C415 C417 1.433 . S
C416 C412 1.350 . S
C416 C413 1.463 . S
C416 N420 1.427 . S
C417 H407 0.929 . S
C417 C415 1.433 . S
C417 N420 1.384 1_655 S
C418 H409 0.929 . S
C418 C410 1.378 . S
C418 C413 1.350 . S
C419 H406 0.929 . S
C419 C411 1.433 . S
C419 N421 1.384 . S
N420 C416 1.427 . S
N420 C417 1.384 1_455 S
N421 C413 1.427 . S
N421 C419 1.384 . S
H422 C428 0.930 . S
H423 C432 0.930 . S
H424 C437 0.929 . S
H425 C435 0.929 . S
H426 C430 0.929 . S
H427 C436 0.929 . S
C428 H422 0.930 . S
C428 C429 1.367 1_556 S
C428 C436 1.378 . S
C429 C428 1.367 1_554 S
C429 C437 1.433 . S
C430 H426 0.929 . S
C430 C432 1.378 . S
C430 C434 1.382 . S
C431 C434 1.462 . S
C431 C436 1.325 1_554 S
C431 N439 1.455 . S
C432 H423 0.930 . S
C432 C430 1.378 . S
C432 C433 1.333 1_554 S
C433 C432 1.333 1_556 S
C433 C435 1.467 . S
C434 C430 1.382 . S
C434 C431 1.462 . S
C434 N438 1.394 1_554 S
C435 H425 0.929 . S
C435 C433 1.467 . S
C435 N438 1.384 . S
C436 H427 0.929 . S
C436 C428 1.378 . S
C436 C431 1.325 1_556 S
C437 H424 0.929 . S
C437 C429 1.433 . S
C437 N439 1.384 . S
N438 C434 1.394 1_556 S
N438 C435 1.384 . S
N439 C431 1.455 . S
N439 C437 1.384 . S
H440 C446 0.930 . S
H441 C450 0.930 . S
H442 C455 0.929 . S
H443 C453 0.929 . S
H444 C448 0.929 . S
H445 C454 0.929 . S
C446 H440 0.930 . S
C446 C447 1.367 . S
C446 C454 1.378 . S
C447 C446 1.367 . S
C447 C455 1.433 . S
C448 H444 0.929 . S
C448 C450 1.378 . S
C448 C452 1.350 . S
C449 C452 1.463 . S
C449 C454 1.350 . S
C449 N457 1.427 . S
C450 H441 0.930 . S
C450 C448 1.378 . S
C450 C451 1.367 . S
C451 C450 1.367 . S
C451 C453 1.433 . S
C452 C448 1.350 . S
C452 C449 1.463 . S
C452 N456 1.427 . S
C453 H443 0.929 . S
C453 C451 1.433 . S
C453 N456 1.384 . S
C454 H445 0.929 . S
C454 C446 1.378 . S
C454 C449 1.350 . S
C455 H442 0.929 . S
C455 C447 1.433 . S
C455 N457 1.384 . S
N456 C452 1.427 . S
N456 C453 1.384 . S
N457 C449 1.427 . S
N457 C455 1.384 . S
H458 C464 0.930 . S
H459 C468 0.930 . S
H460 C473 0.929 . S
H461 C471 0.929 . S
H462 C466 0.929 . S
H463 C472 0.929 . S
C464 H458 0.930 . S
C464 C465 1.367 . S
C464 C472 1.378 . S
C465 C464 1.367 . S
C465 C473 1.433 . S
C466 H462 0.929 . S
C466 C468 1.378 . S
C466 C470 1.350 . S
C467 C470 1.463 . S
C467 C472 1.350 . S
C467 N475 1.427 . S
C468 H459 0.930 . S
C468 C466 1.378 . S
C468 C469 1.367 . S
C469 C468 1.367 . S
C469 C471 1.433 . S
C470 C466 1.350 . S
C470 C467 1.463 . S
C470 N474 1.427 . S
C471 H461 0.929 . S
C471 C469 1.433 . S
C471 N474 1.384 . S
C472 H463 0.929 . S
C472 C464 1.378 . S
C472 C467 1.350 . S
C473 H460 0.929 . S
C473 C465 1.433 . S
C473 N475 1.384 . S
N474 C470 1.427 . S
N474 C471 1.384 . S
N475 C467 1.427 . S
N475 C473 1.384 . S
H476 C482 0.930 . S
H477 C486 0.930 . S
H478 C491 0.929 . S
H479 C489 0.940 . S
H480 C484 0.929 . S
H481 C490 0.929 . S
C482 H476 0.930 . S
C482 C483 1.367 . S
C482 C490 1.378 . S
C483 C482 1.367 . S
C483 C491 1.433 . S
C484 H480 0.929 . S
C484 C486 1.378 1_655 S
C484 C488 1.350 . S
C485 C488 1.463 . S
C485 C490 1.350 . S
C485 N493 1.427 . S
C486 H477 0.930 . S
C486 C484 1.378 1_455 S
C486 C487 1.367 . S
C487 C486 1.367 . S
C487 C489 1.447 . S
C488 C484 1.350 . S
C488 C485 1.463 . S
C488 N492 1.427 . S
C489 H479 0.940 . S
C489 C487 1.447 . S
C489 N492 1.359 1_455 S
C490 H481 0.929 . S
C490 C482 1.378 . S
C490 C485 1.350 . S
C491 H478 0.929 . S
C491 C483 1.433 . S
C491 N493 1.384 . S
N492 C488 1.427 . S
N492 C489 1.359 1_655 S
N493 C485 1.427 . S
N493 C491 1.384 . S
H494 C500 0.930 . S
H495 C504 0.930 . S
H496 C509 0.929 . S
H497 C507 0.929 . S
H498 C502 0.929 . S
H499 C508 0.929 . S
C500 H494 0.930 . S
C500 C501 1.367 . S
C500 C508 1.378 . S
C501 C500 1.367 . S
C501 C509 1.433 1_554 S
C502 H498 0.929 . S
C502 C504 1.378 . S
C502 C506 1.350 . S
C503 C506 1.463 1_554 S
C503 C508 1.346 . S
C503 N511 1.432 1_554 S
C504 H495 0.930 . S
C504 C502 1.378 . S
C504 C505 1.367 . S
C505 C504 1.367 . S
C505 C507 1.433 1_556 S
C506 C502 1.350 . S
C506 C503 1.463 1_556 S
C506 N510 1.427 1_556 S
C507 H497 0.929 . S
C507 C505 1.433 1_554 S
C507 N510 1.384 . S
C508 H499 0.929 . S
C508 C500 1.378 . S
C508 C503 1.346 . S
C509 H496 0.929 . S
C509 C501 1.433 1_556 S
C509 N511 1.384 . S
N510 C506 1.427 1_554 S
N510 C507 1.384 . S
N511 C503 1.432 1_556 S
N511 C509 1.384 . S
H512 C518 0.930 . S
H513 C522 0.930 . S
H514 C527 0.929 . S
H515 C525 0.934 . S
H516 C520 0.929 . S
H517 C526 0.929 . S
C518 H512 0.930 . S
C518 C519 1.367 . S
C518 C526 1.378 . S
C519 C518 1.367 . S
C519 C527 1.433 . S
C520 H516 0.929 . S
C520 C522 1.378 1_655 S
C520 C524 1.350 . S
C521 C524 1.463 . S
C521 C526 1.350 . S
C521 N529 1.427 . S
C522 H513 0.930 . S
C522 C520 1.378 1_455 S
C522 C523 1.367 . S
C523 C522 1.367 . S
C523 C525 1.440 . S
C524 C520 1.350 . S
C524 C521 1.463 . S
C524 N528 1.427 . S
C525 H515 0.934 . S
C525 C523 1.440 . S
C525 N528 1.372 1_455 S
C526 H517 0.929 . S
C526 C518 1.378 . S
C526 C521 1.350 . S
C527 H514 0.929 . S
C527 C519 1.433 . S
C527 N529 1.384 . S
N528 C524 1.427 . S
N528 C525 1.372 1_655 S
N529 C521 1.427 . S
N529 C527 1.384 . S
H530 C536 0.930 . S
H531 C540 0.937 . S
H532 C545 0.929 . S
H533 C543 0.929 . S
H534 C538 0.929 . S
H535 C544 0.929 . S
C536 H530 0.930 . S
C536 C537 1.359 1_554 S
C536 C544 1.378 . S
C537 C536 1.359 1_556 S
C537 C545 1.442 . S
C538 H534 0.929 . S
C538 C540 1.380 . S
C538 C542 1.350 1_556 S
C539 C542 1.464 . S
C539 C544 1.355 . S
C539 N547 1.421 1_554 S
C540 H531 0.937 . S
C540 C538 1.380 . S
C540 C541 1.360 1_556 S
C541 C540 1.360 1_554 S
C541 C543 1.433 . S
C542 C538 1.350 1_554 S
C542 C539 1.464 . S
C542 N546 1.427 . S
C543 H533 0.929 . S
C543 C541 1.433 . S
C543 N546 1.384 . S
C544 H535 0.929 . S
C544 C536 1.378 . S
C544 C539 1.355 . S
C545 H532 0.929 . S
C545 C537 1.442 . S
C545 N547 1.384 . S
N546 C542 1.427 . S
N546 C543 1.384 . S
N547 C539 1.421 1_556 S
N547 C545 1.384 . S
H548 C554 0.930 . S
H549 C558 0.930 . S
H550 C563 0.929 . S
H551 C561 0.929 . S
H552 C556 0.929 . S
H553 C562 0.929 . S
C554 H548 0.930 . S
C554 C555 1.367 . S
C554 C562 1.378 . S
C555 C554 1.367 . S
C555 C563 1.433 . S
C556 H552 0.929 . S
C556 C558 1.378 . S
C556 C560 1.350 . S
C557 C560 1.463 . S
C557 C562 1.350 . S
C557 N565 1.427 . S
C558 H549 0.930 . S
C558 C556 1.378 . S
C558 C559 1.367 . S
C559 C558 1.367 . S
C559 C561 1.433 . S
C560 C556 1.350 . S
C560 C557 1.463 . S
C560 N564 1.427 . S
C561 H551 0.929 . S
C561 C559 1.433 . S
C561 N564 1.384 . S
C562 H553 0.929 . S
C562 C554 1.378 . S
C562 C557 1.350 . S
C563 H550 0.929 . S
C563 C555 1.433 . S
C563 N565 1.384 . S
N564 C560 1.427 . S
N564 C561 1.384 . S
N565 C557 1.427 . S
N565 C563 1.384 . S
H566 C572 0.930 . S
H567 C576 0.930 . S
H568 C581 0.929 . S
H569 C579 0.929 . S
H570 C574 0.929 . S
H571 C580 0.929 . S
C572 H566 0.930 . S
C572 C573 1.367 . S
C572 C580 1.378 . S
C573 C572 1.367 . S
C573 C581 1.433 . S
C574 H570 0.929 . S
C574 C576 1.378 . S
C574 C578 1.350 . S
C575 C578 1.463 . S
C575 C580 1.350 . S
C575 N583 1.427 . S
C576 H567 0.930 . S
C576 C574 1.378 . S
C576 C577 1.367 . S
C577 C576 1.367 . S
C577 C579 1.433 . S
C578 C574 1.350 . S
C578 C575 1.463 . S
C578 N582 1.427 . S
C579 H569 0.929 . S
C579 C577 1.433 . S
C579 N582 1.384 . S
C580 H571 0.929 . S
C580 C572 1.378 . S
C580 C575 1.350 . S
C581 H568 0.929 . S
C581 C573 1.433 . S
C581 N583 1.384 . S
N582 C578 1.427 . S
N582 C579 1.384 . S
N583 C575 1.427 . S
N583 C581 1.384 . S
H584 C590 0.930 . S
H585 C594 0.930 . S
H586 C599 0.929 . S
H587 C597 0.929 . S
H588 C592 0.929 . S
H589 C598 0.929 . S
C590 H584 0.930 . S
C590 C591 1.367 . S
C590 C598 1.378 1_655 S
C591 C590 1.367 . S
C591 C599 1.433 . S
C592 H588 0.929 . S
C592 C594 1.378 . S
C592 C596 1.350 . S
C593 C596 1.463 . S
C593 C598 1.350 . S
C593 N601 1.427 . S
C594 H585 0.930 . S
C594 C592 1.378 . S
C594 C595 1.367 . S
C595 C594 1.367 . S
C595 C597 1.433 . S
C596 C592 1.350 . S
C596 C593 1.463 . S
C596 N600 1.427 . S
C597 H587 0.929 . S
C597 C595 1.433 . S
C597 N600 1.384 . S
C598 H589 0.929 . S
C598 C590 1.378 1_455 S
C598 C593 1.350 . S
C599 H586 0.929 . S
C599 C591 1.433 . S
C599 N601 1.384 1_655 S
N600 C596 1.427 . S
N600 C597 1.384 . S
N601 C593 1.427 . S
N601 C599 1.384 1_455 S
H602 C608 0.930 . S
H603 C612 0.930 . S
H604 C617 0.929 . S
H605 C615 0.929 . S
H606 C610 0.929 . S
H607 C616 0.929 . S
C608 H602 0.930 . S
C608 C609 1.367 . S
C608 C616 1.378 . S
C609 C608 1.367 . S
C609 C617 1.433 1_554 S
C610 H606 0.929 . S
C610 C612 1.378 . S
C610 C614 1.350 . S
C611 C614 1.463 . S
C611 C616 1.349 1_556 S
C611 N619 1.428 . S
C612 H603 0.930 . S
C612 C610 1.378 . S
C612 C613 1.367 . S
C613 C612 1.367 . S
C613 C615 1.433 1_556 S
C614 C610 1.350 . S
C614 C611 1.463 . S
C614 N618 1.427 1_556 S
C615 H605 0.929 . S
C615 C613 1.433 1_554 S
C615 N618 1.384 . S
C616 H607 0.929 . S
C616 C608 1.378 . S
C616 C611 1.349 1_554 S
C617 H604 0.929 . S
C617 C609 1.433 1_556 S
C617 N619 1.384 . S
N618 C614 1.427 1_554 S
N618 C615 1.384 . S
N619 C611 1.428 . S
N619 C617 1.384 . S
H620 C626 0.930 . S
H621 C630 0.930 1_545 S
H622 C635 0.929 1_545 S
H623 C633 0.929 . S
H624 C628 0.929 1_545 S
H625 C634 0.929 . S
C626 H620 0.930 . S
C626 C627 1.367 . S
C626 C634 1.378 . S
C627 C626 1.367 . S
C627 C635 1.433 . S
C628 H624 0.929 1_565 S
C628 C630 1.378 . S
C628 C632 1.350 . S
C629 C632 1.463 . S
C629 C634 1.350 . S
C629 N637 1.427 . S
C630 H621 0.930 1_565 S
C630 C628 1.378 . S
C630 C631 1.367 . S
C631 C630 1.367 . S
C631 C633 1.433 . S
C632 C628 1.350 . S
C632 C629 1.463 . S
C632 N636 1.427 . S
C633 H623 0.929 . S
C633 C631 1.433 . S
C633 N636 1.384 . S
C634 H625 0.929 . S
C634 C626 1.378 . S
C634 C629 1.350 . S
C635 H622 0.929 1_565 S
C635 C627 1.433 . S
C635 N637 1.384 . S
N636 C632 1.427 . S
N636 C633 1.384 . S
N637 C629 1.427 . S
N637 C635 1.384 . S
H638 C644 0.930 . S
H639 C648 0.930 . S
H640 C653 0.929 . S
H641 C651 0.929 . S
H642 C646 0.929 . S
H643 C652 0.929 . S
C644 H638 0.930 . S
C644 C645 1.367 . S
C644 C652 1.378 . S
C645 C644 1.367 . S
C645 C653 1.433 . S
C646 H642 0.929 . S
C646 C648 1.378 . S
C646 C650 1.350 . S
C647 C650 1.463 . S
C647 C652 1.350 . S
C647 N655 1.427 . S
C648 H639 0.930 . S
C648 C646 1.378 . S
C648 C649 1.367 . S
C649 C648 1.367 . S
C649 C651 1.433 . S
C650 C646 1.350 . S
C650 C647 1.463 . S
C650 N654 1.427 . S
C651 H641 0.929 . S
C651 C649 1.433 . S
C651 N654 1.384 . S
C652 H643 0.929 . S
C652 C644 1.378 . S
C652 C647 1.350 . S
C653 H640 0.929 . S
C653 C645 1.433 . S
C653 N655 1.384 . S
N654 C650 1.427 . S
N654 C651 1.384 . S
N655 C647 1.427 . S
N655 C653 1.384 . S
H656 C662 0.930 . S
H657 C666 0.930 . S
H658 C671 0.929 . S
H659 C669 0.929 . S
H660 C664 0.929 . S
H661 C670 0.929 . S
C662 H656 0.930 . S
C662 C663 1.367 . S
C662 C670 1.378 . S
C663 C662 1.367 . S
C663 C671 1.433 . S
C664 H660 0.929 . S
C664 C666 1.378 . S
C664 C668 1.350 . S
C665 C668 1.463 . S
C665 C670 1.350 . S
C665 N673 1.427 . S
C666 H657 0.930 . S
C666 C664 1.378 . S
C666 C667 1.367 . S
C667 C666 1.367 . S
C667 C669 1.433 . S
C668 C664 1.350 . S
C668 C665 1.463 . S
C668 N672 1.427 . S
C669 H659 0.929 . S
C669 C667 1.433 . S
C669 N672 1.384 . S
C670 H661 0.929 . S
C670 C662 1.378 . S
C670 C665 1.350 . S
C671 H658 0.929 . S
C671 C663 1.433 . S
C671 N673 1.384 . S
N672 C668 1.427 . S
N672 C669 1.384 . S
N673 C665 1.427 . S
N673 C671 1.384 . S
H674 C680 0.930 . S
H675 C684 0.930 . S
H676 C689 0.929 . S
H677 C687 0.929 . S
H678 C682 0.929 . S
H679 C688 0.929 . S
C680 H674 0.930 . S
C680 C681 1.367 . S
C680 C688 1.378 . S
C681 C680 1.367 . S
C681 C689 1.433 . S
C682 H678 0.929 . S
C682 C684 1.378 . S
C682 C686 1.350 . S
C683 C686 1.463 1_455 S
C683 C688 1.350 . S
C683 N691 1.427 . S
C684 H675 0.930 . S
C684 C682 1.378 . S
C684 C685 1.367 . S
C685 C684 1.367 . S
C685 C687 1.433 . S
C686 C682 1.350 . S
C686 C683 1.463 1_655 S
C686 N690 1.427 . S
C687 H677 0.929 . S
C687 C685 1.433 . S
C687 N690 1.384 . S
C688 H679 0.929 . S
C688 C680 1.378 . S
C688 C683 1.350 . S
C689 H676 0.929 . S
C689 C681 1.433 . S
C689 N691 1.384 . S
N690 C686 1.427 . S
N690 C687 1.384 . S
N691 C683 1.427 . S
N691 C689 1.384 . S
H692 C698 0.930 . S
H693 C702 0.930 . S
H694 C707 0.929 . S
H695 C705 0.929 . S
H696 C700 0.929 . S
H697 C706 0.929 . S
C698 H692 0.930 . S
C698 C699 1.367 . S
C698 C706 1.378 . S
C699 C698 1.367 . S
C699 C707 1.433 . S
C700 H696 0.929 . S
C700 C702 1.378 . S
C700 C704 1.350 . S
C701 C704 1.463 . S
C701 C706 1.350 . S
C701 N709 1.427 . S
C702 H693 0.930 . S
C702 C700 1.378 . S
C702 C703 1.367 . S
C703 C702 1.367 . S
C703 C705 1.433 . S
C704 C700 1.350 . S
C704 C701 1.463 . S
C704 N708 1.427 . S
C705 H695 0.929 . S
C705 C703 1.433 . S
C705 N708 1.384 . S
C706 H697 0.929 . S
C706 C698 1.378 . S
C706 C701 1.350 . S
C707 H694 0.929 . S
C707 C699 1.433 . S
C707 N709 1.384 . S
N708 C704 1.427 . S
N708 C705 1.384 . S
N709 C701 1.427 . S
N709 C707 1.384 . S
H710 C716 0.930 . S
H711 C720 0.930 . S
H712 C725 0.929 . S
H713 C723 0.929 . S
H714 C718 0.929 . S
H715 C724 0.929 . S
C716 H710 0.930 . S
C716 C717 1.367 . S
C716 C724 1.378 . S
C717 C716 1.367 . S
C717 C725 1.433 1_556 S
C718 H714 0.929 . S
C718 C720 1.378 . S
C718 C722 1.350 . S
C719 C722 1.463 1_556 S
C719 C724 1.350 . S
C719 N727 1.427 1_556 S
C720 H711 0.930 . S
C720 C718 1.378 . S
C720 C721 1.367 . S
C721 C720 1.367 . S
C721 C723 1.433 1_554 S
C722 C718 1.350 . S
C722 C719 1.463 1_554 S
C722 N726 1.427 1_554 S
C723 H713 0.929 . S
C723 C721 1.433 1_556 S
C723 N726 1.384 . S
C724 H715 0.929 . S
C724 C716 1.378 . S
C724 C719 1.350 . S
C725 H712 0.929 . S
C725 C717 1.433 1_554 S
C725 N727 1.384 . S
N726 C722 1.427 1_556 S
N726 C723 1.384 . S
N727 C719 1.427 1_554 S
N727 C725 1.384 . S
H728 C734 0.930 . S
H729 C738 0.930 . S
H730 C743 0.929 . S
H731 C741 0.929 . S
H732 C736 0.929 . S
H733 C742 0.929 . S
C734 H728 0.930 . S
C734 C735 1.367 . S
C734 C742 1.378 . S
C735 C734 1.367 . S
C735 C743 1.433 . S
C736 H732 0.929 . S
C736 C738 1.378 . S
C736 C740 1.350 . S
C737 C740 1.463 . S
C737 C742 1.350 . S
C737 N745 1.427 . S
C738 H729 0.930 . S
C738 C736 1.378 . S
C738 C739 1.367 . S
C739 C738 1.367 . S
C739 C741 1.433 . S
C740 C736 1.350 . S
C740 C737 1.463 . S
C740 N744 1.427 . S
C741 H731 0.929 . S
C741 C739 1.433 . S
C741 N744 1.384 . S
C742 H733 0.929 . S
C742 C734 1.378 . S
C742 C737 1.350 . S
C743 H730 0.929 . S
C743 C735 1.433 . S
C743 N745 1.384 . S
N744 C740 1.427 . S
N744 C741 1.384 . S
N745 C737 1.427 . S
N745 C743 1.384 . S
H746 C752 0.930 . S
H747 C756 0.930 . S
H748 C761 0.929 . S
H749 C759 0.929 . S
H750 C754 0.929 . S
H751 C760 0.929 . S
C752 H746 0.930 . S
C752 C753 1.367 . S
C752 C760 1.378 . S
C753 C752 1.367 . S
C753 C761 1.433 . S
C754 H750 0.929 . S
C754 C756 1.378 . S
C754 C758 1.350 . S
C755 C758 1.463 . S
C755 C760 1.350 . S
C755 N763 1.427 . S
C756 H747 0.930 . S
C756 C754 1.378 . S
C756 C757 1.367 . S
C757 C756 1.367 . S
C757 C759 1.433 . S
C758 C754 1.350 . S
C758 C755 1.463 . S
C758 N762 1.427 . S
C759 H749 0.929 . S
C759 C757 1.433 . S
C759 N762 1.384 . S
C760 H751 0.929 . S
C760 C752 1.378 . S
C760 C755 1.350 . S
C761 H748 0.929 . S
C761 C753 1.433 . S
C761 N763 1.384 . S
N762 C758 1.427 . S
N762 C759 1.384 . S
N763 C755 1.427 . S
N763 C761 1.384 . S
H764 C770 0.930 . S
H765 C774 0.930 . S
H766 C779 0.929 . S
H767 C777 0.929 . S
H768 C772 0.929 . S
H769 C778 0.929 . S
C770 H764 0.930 . S
C770 C771 1.367 1_556 S
C770 C778 1.378 . S
C771 C770 1.367 1_554 S
C771 C779 1.433 1_565 S
C772 H768 0.929 . S
C772 C774 1.378 . S
C772 C776 1.330 1_554 S
C773 C776 1.460 1_564 S
C773 C778 1.321 1_554 S
C773 N781 1.461 1_565 S
C774 H765 0.930 . S
C774 C772 1.378 . S
C774 C775 1.367 1_554 S
C775 C774 1.367 1_556 S
C775 C777 1.433 1_545 S
C776 C772 1.330 1_556 S
C776 C773 1.460 1_546 S
C776 N780 1.450 1_545 S
C777 H767 0.929 . S
C777 C775 1.433 1_565 S
C777 N780 1.384 . S
C778 H769 0.929 . S
C778 C770 1.378 . S
C778 C773 1.321 1_556 S
C779 H766 0.929 . S
C779 C771 1.433 1_545 S
C779 N781 1.384 . S
N780 C776 1.450 1_565 S
N780 C777 1.384 . S
N781 C773 1.461 1_545 S
N781 C779 1.384 . S
H782 C788 0.930 . S
H783 C792 0.930 . S
H784 C797 0.929 . S
H785 C795 0.929 . S
H786 C790 0.926 1_565 S
H787 C796 0.926 1_545 S
C788 H782 0.930 . S
C788 C789 1.367 . S
C788 C796 1.378 . S
C789 C788 1.367 . S
C789 C797 1.433 . S
C790 H786 0.926 1_545 S
C790 C792 1.378 . S
C790 C794 1.350 . S
C791 C794 1.463 1_465 S
C791 C796 1.350 . S
C791 N799 1.427 . S
C792 H783 0.930 . S
C792 C790 1.378 . S
C792 C793 1.367 . S
C793 C792 1.367 . S
C793 C795 1.433 . S
C794 C790 1.350 . S
C794 C791 1.463 1_645 S
C794 N798 1.427 . S
C795 H785 0.929 . S
C795 C793 1.433 . S
C795 N798 1.384 . S
C796 H787 0.926 1_565 S
C796 C788 1.378 . S
C796 C791 1.350 . S
C797 H784 0.929 . S
C797 C789 1.433 . S
C797 N799 1.384 . S
N798 C794 1.427 . S
N798 C795 1.384 . S
N799 C791 1.427 . S
N799 C797 1.384 . S
H800 C806 0.930 . S
H801 C810 0.930 . S
H802 C815 0.929 . S
H803 C813 0.929 . S
H804 C808 0.929 . S
H805 C814 0.929 . S
C806 H800 0.930 . S
C806 C807 1.367 . S
C806 C814 1.378 . S
C807 C806 1.367 . S
C807 C815 1.433 . S
C808 H804 0.929 . S
C808 C810 1.378 . S
C808 C812 1.350 . S
C809 C812 1.463 . S
C809 C814 1.350 . S
C809 N817 1.427 . S
C810 H801 0.930 . S
C810 C808 1.378 . S
C810 C811 1.367 . S
C811 C810 1.367 . S
C811 C813 1.433 . S
C812 C808 1.350 . S
C812 C809 1.463 . S
C812 N816 1.427 . S
C813 H803 0.929 . S
C813 C811 1.433 . S
C813 N816 1.384 . S
C814 H805 0.929 . S
C814 C806 1.378 . S
C814 C809 1.350 . S
C815 H802 0.929 . S
C815 C807 1.433 . S
C815 N817 1.384 . S
N816 C812 1.427 . S
N816 C813 1.384 . S
N817 C809 1.427 . S
N817 C815 1.384 . S
H818 C824 0.930 . S
H819 C828 0.930 . S
H820 C833 0.929 . S
H821 C831 0.929 . S
H822 C826 0.929 . S
H823 C832 0.929 . S
C824 H818 0.930 . S
C824 C825 1.367 . S
C824 C832 1.378 . S
C825 C824 1.367 . S
C825 C833 1.433 . S
C826 H822 0.929 . S
C826 C828 1.378 . S
C826 C830 1.350 . S
C827 C830 1.463 . S
C827 C832 1.350 . S
C827 N835 1.427 . S
C828 H819 0.930 . S
C828 C826 1.378 . S
C828 C829 1.367 . S
C829 C828 1.367 . S
C829 C831 1.433 . S
C830 C826 1.350 . S
C830 C827 1.463 . S
C830 N834 1.427 . S
C831 H821 0.929 . S
C831 C829 1.433 . S
C831 N834 1.384 . S
C832 H823 0.929 . S
C832 C824 1.378 . S
C832 C827 1.350 . S
C833 H820 0.929 . S
C833 C825 1.433 . S
C833 N835 1.384 . S
N834 C830 1.427 . S
N834 C831 1.384 . S
N835 C827 1.427 . S
N835 C833 1.384 . S
H836 C842 0.930 . S
H837 C846 0.930 . S
H838 C851 0.929 . S
H839 C849 0.929 . S
H840 C844 0.929 . S
H841 C850 0.929 . S
C842 H836 0.930 . S
C842 C843 1.367 . S
C842 C850 1.378 . S
C843 C842 1.367 . S
C843 C851 1.433 . S
C844 H840 0.929 . S
C844 C846 1.378 . S
C844 C848 1.350 . S
C845 C848 1.463 . S
C845 C850 1.350 . S
C845 N853 1.427 . S
C846 H837 0.930 . S
C846 C844 1.378 . S
C846 C847 1.367 . S
C847 C846 1.367 . S
C847 C849 1.433 . S
C848 C844 1.350 . S
C848 C845 1.463 . S
C848 N852 1.427 . S
C849 H839 0.929 . S
C849 C847 1.433 . S
C849 N852 1.384 . S
C850 H841 0.929 . S
C850 C842 1.378 . S
C850 C845 1.350 . S
C851 H838 0.929 . S
C851 C843 1.433 . S
C851 N853 1.384 . S
N852 C848 1.427 . S
N852 C849 1.384 . S
N853 C845 1.427 . S
N853 C851 1.384 . S
H854 C860 0.930 . S
H855 C864 0.930 . S
H856 C869 0.929 . S
H857 C867 0.929 . S
H858 C862 0.929 . S
H859 C868 0.929 . S
C860 H854 0.930 . S
C860 C861 1.367 . S
C860 C868 1.378 . S
C861 C860 1.367 . S
C861 C869 1.433 . S
C862 H858 0.929 . S
C862 C864 1.378 . S
C862 C866 1.350 . S
C863 C866 1.463 . S
C863 C868 1.350 . S
C863 N871 1.427 . S
C864 H855 0.930 . S
C864 C862 1.378 . S
C864 C865 1.367 . S
C865 C864 1.367 . S
C865 C867 1.433 . S
C866 C862 1.350 . S
C866 C863 1.463 . S
C866 N870 1.427 . S
C867 H857 0.929 . S
C867 C865 1.433 . S
C867 N870 1.384 . S
C868 H859 0.929 . S
C868 C860 1.378 . S
C868 C863 1.350 . S
C869 H856 0.929 . S
C869 C861 1.433 . S
C869 N871 1.384 . S
N870 C866 1.427 . S
N870 C867 1.384 . S
N871 C863 1.427 . S
N871 C869 1.384 . S
H872 C878 0.930 . S
H873 C882 0.930 . S
H874 C887 0.929 . S
H875 C885 0.929 . S
H876 C880 0.929 . S
H877 C886 0.929 . S
C878 H872 0.930 . S
C878 C879 1.367 . S
C878 C886 1.378 . S
C879 C878 1.367 . S
C879 C887 1.433 . S
C880 H876 0.929 . S
C880 C882 1.378 . S
C880 C884 1.350 . S
C881 C884 1.463 . S
C881 C886 1.350 . S
C881 N889 1.427 . S
C882 H873 0.930 . S
C882 C880 1.378 . S
C882 C883 1.367 . S
C883 C882 1.367 . S
C883 C885 1.433 . S
C884 C880 1.350 . S
C884 C881 1.463 . S
C884 N888 1.427 . S
C885 H875 0.929 . S
C885 C883 1.433 . S
C885 N888 1.384 . S
C886 H877 0.929 . S
C886 C878 1.378 . S
C886 C881 1.350 . S
C887 H874 0.929 . S
C887 C879 1.433 . S
C887 N889 1.384 . S
N888 C884 1.427 . S
N888 C885 1.384 . S
N889 C881 1.427 . S
N889 C887 1.384 . S
H890 C896 0.930 . S
H891 C900 0.930 . S
H892 C905 0.929 . S
H893 C903 0.929 . S
H894 C898 0.929 . S
H895 C904 0.929 . S
C896 H890 0.930 . S
C896 C897 1.367 . S
C896 C904 1.378 . S
C897 C896 1.367 . S
C897 C905 1.433 . S
C898 H894 0.929 . S
C898 C900 1.378 . S
C898 C902 1.350 . S
C899 C902 1.463 . S
C899 C904 1.350 . S
C899 N907 1.427 . S
C900 H891 0.930 . S
C900 C898 1.378 . S
C900 C901 1.367 . S
C901 C900 1.367 . S
C901 C903 1.433 . S
C902 C898 1.350 . S
C902 C899 1.463 . S
C902 N906 1.427 . S
C903 H893 0.929 . S
C903 C901 1.433 . S
C903 N906 1.384 . S
C904 H895 0.929 . S
C904 C896 1.378 . S
C904 C899 1.350 . S
C905 H892 0.929 . S
C905 C897 1.433 . S
C905 N907 1.384 . S
N906 C902 1.427 . S
N906 C903 1.384 . S
N907 C899 1.427 . S
N907 C905 1.384 . S
H908 C914 0.930 . S
H909 C918 0.930 . S
H910 C923 0.929 . S
H911 C921 0.929 . S
H912 C916 0.929 . S
H913 C922 0.929 . S
C914 H908 0.930 . S
C914 C915 1.367 . S
C914 C922 1.378 . S
C915 C914 1.367 . S
C915 C923 1.433 . S
C916 H912 0.929 . S
C916 C918 1.378 . S
C916 C920 1.350 . S
C917 C920 1.463 . S
C917 C922 1.350 . S
C917 N925 1.427 . S
C918 H909 0.930 . S
C918 C916 1.378 . S
C918 C919 1.367 . S
C919 C918 1.367 . S
C919 C921 1.433 . S
C920 C916 1.350 . S
C920 C917 1.463 . S
C920 N924 1.427 . S
C921 H911 0.929 . S
C921 C919 1.433 . S
C921 N924 1.384 . S
C922 H913 0.929 . S
C922 C914 1.378 . S
C922 C917 1.350 . S
C923 H910 0.929 . S
C923 C915 1.433 . S
C923 N925 1.384 . S
N924 C920 1.427 . S
N924 C921 1.384 . S
N925 C917 1.427 . S
N925 C923 1.384 . S
H926 C932 0.930 . S
H927 C936 0.930 . S
H928 C941 0.929 . S
H929 C939 0.929 . S
H930 C934 0.929 . S
H931 C940 0.929 . S
C932 H926 0.930 . S
C932 C933 1.367 . S
C932 C940 1.378 . S
C933 C932 1.367 . S
C933 C941 1.433 . S
C934 H930 0.929 . S
C934 C936 1.378 . S
C934 C938 1.350 . S
C935 C938 1.463 . S
C935 C940 1.350 . S
C935 N943 1.427 . S
C936 H927 0.930 . S
C936 C934 1.378 . S
C936 C937 1.367 . S
C937 C936 1.367 . S
C937 C939 1.433 . S
C938 C934 1.350 . S
C938 C935 1.463 . S
C938 N942 1.427 . S
C939 H929 0.929 . S
C939 C937 1.433 . S
C939 N942 1.384 . S
C940 H931 0.929 . S
C940 C932 1.378 . S
C940 C935 1.350 . S
C941 H928 0.929 . S
C941 C933 1.433 . S
C941 N943 1.384 . S
N942 C938 1.427 . S
N942 C939 1.384 . S
N943 C935 1.427 . S
N943 C941 1.384 . S
H944 C950 0.930 . S
H945 C954 0.930 . S
H946 C959 0.929 . S
H947 C957 0.929 . S
H948 C952 0.929 . S
H949 C958 0.929 . S
C950 H944 0.930 . S
C950 C951 1.367 1_545 S
C950 C958 1.378 . S
C951 C950 1.367 1_565 S
C951 C959 1.433 . S
C952 H948 0.929 . S
C952 C954 1.378 . S
C952 C956 1.350 . S
C953 C956 1.463 . S
C953 C958 1.350 1_565 S
C953 N961 1.427 . S
C954 H945 0.930 . S
C954 C952 1.378 . S
C954 C955 1.367 . S
C955 C954 1.367 . S
C955 C957 1.433 . S
C956 C952 1.350 . S
C956 C953 1.463 . S
C956 N960 1.427 . S
C957 H947 0.929 . S
C957 C955 1.433 . S
C957 N960 1.384 . S
C958 H949 0.929 . S
C958 C950 1.378 . S
C958 C953 1.350 1_545 S
C959 H946 0.929 . S
C959 C951 1.433 . S
C959 N961 1.384 . S
N960 C956 1.427 . S
N960 C957 1.384 . S
N961 C953 1.427 . S
N961 C959 1.384 . S
H962 C968 0.930 . S
H963 C972 0.930 . S
H964 C977 0.929 . S
H965 C975 0.929 . S
H966 C970 0.929 . S
H967 C976 0.929 . S
C968 H962 0.930 . S
C968 C969 1.367 . S
C968 C976 1.378 . S
C969 C968 1.367 . S
C969 C977 1.433 . S
C970 H966 0.929 . S
C970 C972 1.378 . S
C970 C974 1.350 . S
C971 C974 1.463 . S
C971 C976 1.350 . S
C971 N979 1.427 . S
C972 H963 0.930 . S
C972 C970 1.378 . S
C972 C973 1.367 . S
C973 C972 1.367 . S
C973 C975 1.433 . S
C974 C970 1.350 . S
C974 C971 1.463 . S
C974 N978 1.427 . S
C975 H965 0.929 . S
C975 C973 1.433 . S
C975 N978 1.384 . S
C976 H967 0.929 . S
C976 C968 1.378 . S
C976 C971 1.350 . S
C977 H964 0.929 . S
C977 C969 1.433 . S
C977 N979 1.384 . S
N978 C974 1.427 . S
N978 C975 1.384 . S
N979 C971 1.427 . S
N979 C977 1.384 . S
H980 C986 0.930 1_565 S
H981 C990 0.930 . S
H982 C995 0.929 . S
H983 C993 0.929 . S
H984 C988 0.929 . S
H985 C994 0.929 1_565 S
C986 H980 0.930 1_545 S
C986 C987 1.367 . S
C986 C994 1.378 . S
C987 C986 1.367 . S
C987 C995 1.433 . S
C988 H984 0.929 . S
C988 C990 1.378 . S
C988 C992 1.350 . S
C989 C992 1.463 . S
C989 C994 1.350 . S
C989 N997 1.427 . S
C990 H981 0.930 . S
C990 C988 1.378 . S
C990 C991 1.367 . S
C991 C990 1.367 . S
C991 C993 1.433 1_545 S
C992 C988 1.350 . S
C992 C989 1.463 . S
C992 N996 1.427 1_545 S
C993 H983 0.929 . S
C993 C991 1.433 1_565 S
C993 N996 1.384 . S
C994 H985 0.929 1_545 S
C994 C986 1.378 . S
C994 C989 1.350 . S
C995 H982 0.929 . S
C995 C987 1.433 . S
C995 N997 1.384 . S
N996 C992 1.427 1_565 S
N996 C993 1.384 . S
N997 C989 1.427 . S
N997 C995 1.384 . S
H998 C1004 0.930 . S
H999 C1008 0.930 . S
H1000 C1013 0.929 . S
H1001 C1011 0.929 . S
H1002 C1006 0.929 1_565 S
H1003 C1012 0.929 . S
C1004 H998 0.930 . S
C1004 C1005 1.367 . S
C1004 C1012 1.378 . S
C1005 C1004 1.367 . S
C1005 C1013 1.433 . S
C1006 H1002 0.929 1_545 S
C1006 C1008 1.378 1_545 S
C1006 C1010 1.350 . S
C1007 C1010 1.463 . S
C1007 C1012 1.350 . S
C1007 N1015 1.427 . S
C1008 H999 0.930 . S
C1008 C1006 1.378 1_565 S
C1008 C1009 1.367 1_565 S
C1009 C1008 1.367 1_545 S
C1009 C1011 1.433 . S
C1010 C1006 1.350 . S
C1010 C1007 1.463 . S
C1010 N1014 1.427 . S
C1011 H1001 0.929 . S
C1011 C1009 1.433 . S
C1011 N1014 1.384 . S
C1012 H1003 0.929 . S
C1012 C1004 1.378 . S
C1012 C1007 1.350 . S
C1013 H1000 0.929 . S
C1013 C1005 1.433 . S
C1013 N1015 1.384 . S
N1014 C1010 1.427 . S
N1014 C1011 1.384 . S
N1015 C1007 1.427 . S
N1015 C1013 1.384 . S
H1016 C1022 0.930 1_565 S
H1017 C1026 0.930 . S
H1018 C1031 0.929 . S
H1019 C1029 0.929 . S
H1020 C1024 0.929 . S
H1021 C1030 0.929 1_565 S
C1022 H1016 0.930 1_545 S
C1022 C1023 1.367 . S
C1022 C1030 1.378 . S
C1023 C1022 1.367 . S
C1023 C1031 1.433 . S
C1024 H1020 0.929 . S
C1024 C1026 1.378 . S
C1024 C1028 1.350 . S
C1025 C1028 1.463 . S
C1025 C1030 1.350 . S
C1025 N1033 1.427 . S
C1026 H1017 0.930 . S
C1026 C1024 1.378 . S
C1026 C1027 1.367 . S
C1027 C1026 1.367 . S
C1027 C1029 1.433 1_545 S
C1028 C1024 1.350 . S
C1028 C1025 1.463 . S
C1028 N1032 1.427 1_545 S
C1029 H1019 0.929 . S
C1029 C1027 1.433 1_565 S
C1029 N1032 1.384 . S
C1030 H1021 0.929 1_545 S
C1030 C1022 1.378 . S
C1030 C1025 1.350 . S
C1031 H1018 0.929 . S
C1031 C1023 1.433 . S
C1031 N1033 1.384 . S
N1032 C1028 1.427 1_565 S
N1032 C1029 1.384 . S
N1033 C1025 1.427 . S
N1033 C1031 1.384 . S
H1034 C1040 0.930 . S
H1035 C1044 0.930 . S
H1036 C1049 0.929 . S
H1037 C1047 0.929 . S
H1038 C1042 0.929 1_565 S
H1039 C1048 0.929 . S
C1040 H1034 0.930 . S
C1040 C1041 1.367 . S
C1040 C1048 1.378 . S
C1041 C1040 1.367 . S
C1041 C1049 1.433 . S
C1042 H1038 0.929 1_545 S
C1042 C1044 1.378 1_545 S
C1042 C1046 1.350 . S
C1043 C1046 1.463 . S
C1043 C1048 1.350 . S
C1043 N1051 1.427 . S
C1044 H1035 0.930 . S
C1044 C1042 1.378 1_565 S
C1044 C1045 1.367 1_565 S
C1045 C1044 1.367 1_545 S
C1045 C1047 1.433 . S
C1046 C1042 1.350 . S
C1046 C1043 1.463 . S
C1046 N1050 1.427 . S
C1047 H1037 0.929 . S
C1047 C1045 1.433 . S
C1047 N1050 1.384 . S
C1048 H1039 0.929 . S
C1048 C1040 1.378 . S
C1048 C1043 1.350 . S
C1049 H1036 0.929 . S
C1049 C1041 1.433 . S
C1049 N1051 1.384 . S
N1050 C1046 1.427 . S
N1050 C1047 1.384 . S
N1051 C1043 1.427 . S
N1051 C1049 1.384 . S
H1052 C1058 0.930 . S
H1053 C1062 0.930 . S
H1054 C1067 0.929 . S
H1055 C1065 0.929 . S
H1056 C1060 0.929 . S
H1057 C1066 0.929 . S
C1058 H1052 0.930 . S
C1058 C1059 1.367 1_545 S
C1058 C1066 1.378 . S
C1059 C1058 1.367 1_565 S
C1059 C1067 1.433 . S
C1060 H1056 0.929 . S
C1060 C1062 1.378 . S
C1060 C1064 1.350 . S
C1061 C1064 1.463 . S
C1061 C1066 1.350 1_565 S
C1061 N1069 1.427 . S
C1062 H1053 0.930 . S
C1062 C1060 1.378 . S
C1062 C1063 1.367 . S
C1063 C1062 1.367 . S
C1063 C1065 1.433 . S
C1064 C1060 1.350 . S
C1064 C1061 1.463 . S
C1064 N1068 1.427 . S
C1065 H1055 0.929 . S
C1065 C1063 1.433 . S
C1065 N1068 1.384 . S
C1066 H1057 0.929 . S
C1066 C1058 1.378 . S
C1066 C1061 1.350 1_545 S
C1067 H1054 0.929 . S
C1067 C1059 1.433 . S
C1067 N1069 1.384 . S
N1068 C1064 1.427 . S
N1068 C1065 1.384 . S
N1069 C1061 1.427 . S
N1069 C1067 1.384 . S
H1070 C1076 0.930 . S
H1071 C1080 0.930 . S
H1072 C1085 0.929 . S
H1073 C1083 0.929 . S
H1074 C1078 0.929 . S
H1075 C1084 0.929 . S
C1076 H1070 0.930 . S
C1076 C1077 1.367 . S
C1076 C1084 1.378 . S
C1077 C1076 1.367 . S
C1077 C1085 1.433 . S
C1078 H1074 0.929 . S
C1078 C1080 1.378 . S
C1078 C1082 1.350 . S
C1079 C1082 1.463 . S
C1079 C1084 1.350 . S
C1079 N1087 1.427 . S
C1080 H1071 0.930 . S
C1080 C1078 1.378 . S
C1080 C1081 1.367 . S
C1081 C1080 1.367 . S
C1081 C1083 1.433 . S
C1082 C1078 1.350 . S
C1082 C1079 1.463 . S
C1082 N1086 1.427 . S
C1083 H1073 0.929 . S
C1083 C1081 1.433 . S
C1083 N1086 1.384 . S
C1084 H1075 0.929 . S
C1084 C1076 1.378 . S
C1084 C1079 1.350 . S
C1085 H1072 0.929 . S
C1085 C1077 1.433 . S
C1085 N1087 1.384 . S
N1086 C1082 1.427 . S
N1086 C1083 1.384 . S
N1087 C1079 1.427 . S
N1087 C1085 1.384 . S
H1088 C1094 0.930 . S
H1089 C1098 0.930 . S
H1090 C1103 0.929 . S
H1091 C1101 0.929 . S
H1092 C1096 0.929 1_455 S
H1093 C1102 0.929 1_655 S
C1094 H1088 0.930 . S
C1094 C1095 1.367 . S
C1094 C1102 1.378 . S
C1095 C1094 1.367 . S
C1095 C1103 1.433 . S
C1096 H1092 0.929 1_655 S
C1096 C1098 1.378 . S
C1096 C1100 1.350 . S
C1097 C1100 1.463 1_455 S
C1097 C1102 1.350 . S
C1097 N1105 1.427 . S
C1098 H1089 0.930 . S
C1098 C1096 1.378 . S
C1098 C1099 1.367 . S
C1099 C1098 1.367 . S
C1099 C1101 1.433 . S
C1100 C1096 1.350 . S
C1100 C1097 1.463 1_655 S
C1100 N1104 1.427 . S
C1101 H1091 0.929 . S
C1101 C1099 1.433 . S
C1101 N1104 1.384 . S
C1102 H1093 0.929 1_455 S
C1102 C1094 1.378 . S
C1102 C1097 1.350 . S
C1103 H1090 0.929 . S
C1103 C1095 1.433 . S
C1103 N1105 1.384 . S
N1104 C1100 1.427 . S
N1104 C1101 1.384 . S
N1105 C1097 1.427 . S
N1105 C1103 1.384 . S
H1106 C1112 0.930 . S
H1107 C1116 0.930 . S
H1108 C1121 0.929 . S
H1109 C1119 0.929 . S
H1110 C1114 0.929 . S
H1111 C1120 0.929 . S
C1112 H1106 0.930 . S
C1112 C1113 1.367 . S
C1112 C1120 1.378 . S
C1113 C1112 1.367 . S
C1113 C1121 1.433 . S
C1114 H1110 0.929 . S
C1114 C1116 1.378 . S
C1114 C1118 1.350 . S
C1115 C1118 1.463 1_455 S
C1115 C1120 1.350 . S
C1115 N1123 1.427 . S
C1116 H1107 0.930 . S
C1116 C1114 1.378 . S
C1116 C1117 1.367 . S
C1117 C1116 1.367 . S
C1117 C1119 1.433 . S
C1118 C1114 1.350 . S
C1118 C1115 1.463 1_655 S
C1118 N1122 1.427 . S
C1119 H1109 0.929 . S
C1119 C1117 1.433 . S
C1119 N1122 1.384 . S
C1120 H1111 0.929 . S
C1120 C1112 1.378 . S
C1120 C1115 1.350 . S
C1121 H1108 0.929 . S
C1121 C1113 1.433 . S
C1121 N1123 1.384 . S
N1122 C1118 1.427 . S
N1122 C1119 1.384 . S
N1123 C1115 1.427 . S
N1123 C1121 1.384 . S
H1124 C1130 0.930 . S
H1125 C1134 0.930 . S
H1126 C1139 0.929 . S
H1127 C1137 0.929 . S
H1128 C1132 0.929 . S
H1129 C1138 0.929 . S
C1130 H1124 0.930 . S
C1130 C1131 1.367 . S
C1130 C1138 1.378 . S
C1131 C1130 1.367 . S
C1131 C1139 1.433 . S
C1132 H1128 0.929 . S
C1132 C1134 1.378 . S
C1132 C1136 1.350 . S
C1133 C1136 1.463 . S
C1133 C1138 1.350 . S
C1133 N1141 1.427 . S
C1134 H1125 0.930 . S
C1134 C1132 1.378 . S
C1134 C1135 1.367 . S
C1135 C1134 1.367 . S
C1135 C1137 1.433 . S
C1136 C1132 1.350 . S
C1136 C1133 1.463 . S
C1136 N1140 1.427 . S
C1137 H1127 0.929 . S
C1137 C1135 1.433 . S
C1137 N1140 1.384 . S
C1138 H1129 0.929 . S
C1138 C1130 1.378 . S
C1138 C1133 1.350 . S
C1139 H1126 0.929 . S
C1139 C1131 1.433 . S
C1139 N1141 1.384 . S
N1140 C1136 1.427 . S
N1140 C1137 1.384 . S
N1141 C1133 1.427 . S
N1141 C1139 1.384 . S
H1142 C1148 0.930 . S
H1143 C1152 0.930 . S
H1144 C1157 0.929 . S
H1145 C1155 0.929 . S
H1146 C1150 0.929 . S
H1147 C1156 0.929 . S
C1148 H1142 0.930 . S
C1148 C1149 1.367 1_556 S
C1148 C1156 1.378 . S
C1149 C1148 1.367 1_554 S
C1149 C1157 1.433 . S
C1150 H1146 0.929 . S
C1150 C1152 1.378 . S
C1150 C1154 1.350 . S
C1151 C1154 1.463 . S
C1151 C1156 1.350 1_554 S
C1151 N1159 1.427 . S
C1152 H1143 0.930 . S
C1152 C1150 1.378 . S
C1152 C1153 1.367 . S
C1153 C1152 1.367 . S
C1153 C1155 1.433 1_554 S
C1154 C1150 1.350 . S
C1154 C1151 1.463 . S
C1154 N1158 1.427 1_554 S
C1155 H1145 0.929 . S
C1155 C1153 1.433 1_556 S
C1155 N1158 1.384 . S
C1156 H1147 0.929 . S
C1156 C1148 1.378 . S
C1156 C1151 1.350 1_556 S
C1157 H1144 0.929 . S
C1157 C1149 1.433 . S
C1157 N1159 1.384 . S
N1158 C1154 1.427 1_556 S
N1158 C1155 1.384 . S
N1159 C1151 1.427 . S
N1159 C1157 1.384 . S
H1160 C1166 0.930 1_655 S
H1161 C1170 0.930 1_455 S
H1162 C1175 0.929 . S
H1163 C1173 0.929 . S
H1164 C1168 0.929 . S
H1165 C1174 0.929 . S
C1166 H1160 0.930 1_455 S
C1166 C1167 1.367 . S
C1166 C1174 1.378 1_455 S
C1167 C1166 1.367 . S
C1167 C1175 1.433 . S
C1168 H1164 0.929 . S
C1168 C1170 1.378 1_455 S
C1168 C1172 1.350 1_455 S
C1169 C1172 1.463 1_455 S
C1169 C1174 1.350 1_455 S
C1169 N1177 1.427 . S
C1170 H1161 0.930 1_655 S
C1170 C1168 1.378 1_655 S
C1170 C1171 1.367 . S
C1171 C1170 1.367 . S
C1171 C1173 1.433 . S
C1172 C1168 1.350 1_655 S
C1172 C1169 1.463 1_655 S
C1172 N1176 1.427 . S
C1173 H1163 0.929 . S
C1173 C1171 1.433 . S
C1173 N1176 1.384 . S
C1174 H1165 0.929 . S
C1174 C1166 1.378 1_655 S
C1174 C1169 1.350 1_655 S
C1175 H1162 0.929 . S
C1175 C1167 1.433 . S
C1175 N1177 1.384 . S
N1176 C1172 1.427 . S
N1176 C1173 1.384 . S
N1177 C1169 1.427 . S
N1177 C1175 1.384 . S
H1178 C1184 0.930 . S
H1179 C1188 0.930 . S
H1180 C1193 0.929 . S
H1181 C1191 0.929 . S
H1182 C1186 0.929 . S
H1183 C1192 0.929 . S
C1184 H1178 0.930 . S
C1184 C1185 1.367 . S
C1184 C1192 1.378 . S
C1185 C1184 1.367 . S
C1185 C1193 1.433 . S
C1186 H1182 0.929 . S
C1186 C1188 1.378 . S
C1186 C1190 1.350 . S
C1187 C1190 1.463 1_655 S
C1187 C1192 1.350 . S
C1187 N1195 1.427 . S
C1188 H1179 0.930 . S
C1188 C1186 1.378 . S
C1188 C1189 1.367 . S
C1189 C1188 1.367 . S
C1189 C1191 1.433 . S
C1190 C1186 1.350 . S
C1190 C1187 1.463 1_455 S
C1190 N1194 1.427 . S
C1191 H1181 0.929 . S
C1191 C1189 1.433 . S
C1191 N1194 1.384 . S
C1192 H1183 0.929 . S
C1192 C1184 1.378 . S
C1192 C1187 1.350 . S
C1193 H1180 0.929 . S
C1193 C1185 1.433 . S
C1193 N1195 1.384 . S
N1194 C1190 1.427 . S
N1194 C1191 1.384 . S
N1195 C1187 1.427 . S
N1195 C1193 1.384 . S
H1196 C1202 0.930 . S
H1197 C1206 0.930 . S
H1198 C1211 0.929 . S
H1199 C1209 0.929 . S
H1200 C1204 0.929 . S
H1201 C1210 0.929 . S
C1202 H1196 0.930 . S
C1202 C1203 1.367 . S
C1202 C1210 1.378 . S
C1203 C1202 1.367 . S
C1203 C1211 1.433 . S
C1204 H1200 0.929 . S
C1204 C1206 1.378 . S
C1204 C1208 1.350 . S
C1205 C1208 1.463 . S
C1205 C1210 1.350 . S
C1205 N1213 1.427 . S
C1206 H1197 0.930 . S
C1206 C1204 1.378 . S
C1206 C1207 1.367 . S
C1207 C1206 1.367 . S
C1207 C1209 1.433 . S
C1208 C1204 1.350 . S
C1208 C1205 1.463 . S
C1208 N1212 1.427 . S
C1209 H1199 0.929 . S
C1209 C1207 1.433 . S
C1209 N1212 1.384 . S
C1210 H1201 0.929 . S
C1210 C1202 1.378 . S
C1210 C1205 1.350 . S
C1211 H1198 0.929 . S
C1211 C1203 1.433 . S
C1211 N1213 1.384 . S
N1212 C1208 1.427 . S
N1212 C1209 1.384 . S
N1213 C1205 1.427 . S
N1213 C1211 1.384 . S
H1214 C1220 0.930 . S
H1215 C1224 0.930 . S
H1216 C1229 0.929 . S
H1217 C1227 0.929 . S
H1218 C1222 0.929 . S
H1219 C1228 0.929 . S
C1220 H1214 0.930 . S
C1220 C1221 1.367 1_554 S
C1220 C1228 1.378 . S
C1221 C1220 1.367 1_556 S
C1221 C1229 1.433 . S
C1222 H1218 0.929 . S
C1222 C1224 1.378 . S
C1222 C1226 1.350 . S
C1223 C1226 1.463 . S
C1223 C1228 1.350 1_556 S
C1223 N1231 1.427 . S
C1224 H1215 0.930 . S
C1224 C1222 1.378 . S
C1224 C1225 1.367 . S
C1225 C1224 1.367 . S
C1225 C1227 1.433 1_556 S
C1226 C1222 1.350 . S
C1226 C1223 1.463 . S
C1226 N1230 1.427 1_556 S
C1227 H1217 0.929 . S
C1227 C1225 1.433 1_554 S
C1227 N1230 1.384 . S
C1228 H1219 0.929 . S
C1228 C1220 1.378 . S
C1228 C1223 1.350 1_554 S
C1229 H1216 0.929 . S
C1229 C1221 1.433 . S
C1229 N1231 1.384 . S
N1230 C1226 1.427 1_554 S
N1230 C1227 1.384 . S
N1231 C1223 1.427 . S
N1231 C1229 1.384 . S
C375 C17 1.569 . S
C379 C156 1.613 . S
C393 C363 1.609 . S
C397 C40 1.546 . S
C411 C63 1.562 . S
C415 C110 1.602 . S
C429 C317 1.567 . S
C433 C86 1.516 . S
C447 C64 1.615 . S
C451 C109 1.563 . S
C465 C271 1.602 . S
C469 C132 1.556 . S
C483 C155 1.548 . S
C487 C18 1.612 . S
C501 C178 1.523 . S
C505 C225 1.555 . S
C519 C201 1.550 . S
C523 C340 1.611 . S
C537 C224 1.531 . S
C541 C179 1.555 . S
C555 C294 1.617 . S
C559 C247 1.560 . S
C573 C133 1.608 . S
C577 C270 1.548 . S
C591 C248 1.604 . S
C595 C293 1.559 . S
C609 C316 1.526 . S
C613 C87 1.554 . S
C627 C202 1.622 . S
C631 C339 1.555 . S
C645 C41 1.601 . S
C649 C362 1.556 . S
C663 C21 0.419 . S
C667 C297 0.419 . S
C681 C44 0.409 . S
C685 C136 0.409 . S
C699 C67 0.411 . S
C703 C343 0.411 . S
C717 C182 0.379 . S
C721 C90 0.379 . S
C735 C113 0.417 . S
C739 C205 0.418 . S
C753 C251 0.418 . S
C757 C159 0.418 . S
C771 C228 0.377 . S
C775 C320 0.378 . S
C789 C366 0.397 . S
C793 C274 0.397 . S
C807 C19 1.508 . S
C811 C43 1.477 . S
C825 C66 1.505 . S
C829 C42 1.552 . S
C843 C65 1.698 . S
C847 C89 1.676 . S
C861 C88 1.344 . S
C865 C20 1.295 . S
C879 C135 1.467 . S
C883 C111 1.512 . S
C897 C158 1.505 . S
C901 C134 1.552 . S
C915 C181 1.662 . S
C919 C157 1.708 . S
C933 C112 1.314 . S
C937 C180 1.332 . S
C951 C203 1.698 1_565 S
C955 C227 1.677 . S
C969 C226 1.343 . S
C973 C250 1.299 . S
C987 C273 1.474 . S
C991 C249 1.508 1_545 S
C1005 C272 1.549 . S
C1009 C204 1.518 . S
C1023 C319 1.663 . S
C1027 C295 1.708 1_545 S
C1041 C318 1.338 . S
C1045 C342 1.309 . S
C1059 C341 1.507 1_565 S
C1063 C365 1.477 . S
C1077 C296 1.514 . S
C1081 C364 1.550 . S
C1095 C16 1.492 . S
C1099 C246 1.492 . S
C1113 C39 1.480 . S
C1117 C269 1.480 . S
C1131 C62 1.490 . S
C1135 C200 1.490 . S
C1149 C223 1.466 . S
C1153 C85 1.466 . S
C1167 C338 1.495 . S
C1171 C108 1.495 . S
C1185 C131 1.485 . S
C1189 C361 1.485 . S
C1203 C154 1.491 . S
C1207 C292 1.490 . S
C1221 C315 1.466 . S
C1225 C177 1.465 . S
