# Generated by pormake.
# Topology uos, (4)-cn, num edge types: 1
# Building blocks:
#     Node 0, Type 0, BuildingBlock: AZAVOO_clean_sbu_0, # of connection points: 4
#     Node 1, Type 0, BuildingBlock: AZAVOO_clean_sbu_0, # of connection points: 4
#     Node 2, Type 0, BuildingBlock: AZAVOO_clean_sbu_0, # of connection points: 4
#     Node 3, Type 0, BuildingBlock: AZAVOO_clean_sbu_0, # of connection points: 4
#     Node 4, Type 0, BuildingBlock: AZAVOO_clean_sbu_0, # of connection points: 4
#     Node 5, Type 0, BuildingBlock: AZAVOO_clean_sbu_0, # of connection points: 4
#     Node 6, Type 0, BuildingBlock: AZAVOO_clean_sbu_0, # of connection points: 4
#     Node 7, Type 0, BuildingBlock: AZAVOO_clean_sbu_0, # of connection points: 4
#     Node 8, Type 0, BuildingBlock: AZAVOO_clean_sbu_0, # of connection points: 4
#     Node 9, Type 0, BuildingBlock: AZAVOO_clean_sbu_0, # of connection points: 4
#     Node 10, Type 0, BuildingBlock: AZAVOO_clean_sbu_0, # of connection points: 4
#     Node 11, Type 0, BuildingBlock: AZAVOO_clean_sbu_0, # of connection points: 4
#     Node 12, Type 0, BuildingBlock: AZAVOO_clean_sbu_0, # of connection points: 4
#     Node 13, Type 0, BuildingBlock: AZAVOO_clean_sbu_0, # of connection points: 4
#     Node 14, Type 0, BuildingBlock: AZAVOO_clean_sbu_0, # of connection points: 4
#     Node 15, Type 0, BuildingBlock: AZAVOO_clean_sbu_0, # of connection points: 4
#     Node 16, Type 0, BuildingBlock: AZAVOO_clean_sbu_0, # of connection points: 4
#     Node 17, Type 0, BuildingBlock: AZAVOO_clean_sbu_0, # of connection points: 4
#     Node 18, Type 0, BuildingBlock: AZAVOO_clean_sbu_0, # of connection points: 4
#     Node 19, Type 0, BuildingBlock: AZAVOO_clean_sbu_0, # of connection points: 4
#     Node 20, Type 0, BuildingBlock: AZAVOO_clean_sbu_0, # of connection points: 4
#     Node 21, Type 0, BuildingBlock: AZAVOO_clean_sbu_0, # of connection points: 4
#     Node 22, Type 0, BuildingBlock: AZAVOO_clean_sbu_0, # of connection points: 4
#     Node 23, Type 0, BuildingBlock: AZAVOO_clean_sbu_0, # of connection points: 4
#     Node 24, Type 0, BuildingBlock: AZAVOO_clean_sbu_0, # of connection points: 4
#     Node 25, Type 0, BuildingBlock: AZAVOO_clean_sbu_0, # of connection points: 4
#     Node 26, Type 0, BuildingBlock: AZAVOO_clean_sbu_0, # of connection points: 4
#     Node 27, Type 0, BuildingBlock: AZAVOO_clean_sbu_0, # of connection points: 4
#     Node 28, Type 0, BuildingBlock: AZAVOO_clean_sbu_0, # of connection points: 4
#     Node 29, Type 0, BuildingBlock: AZAVOO_clean_sbu_0, # of connection points: 4
#     Node 30, Type 0, BuildingBlock: AZAVOO_clean_sbu_0, # of connection points: 4
#     Node 31, Type 0, BuildingBlock: AZAVOO_clean_sbu_0, # of connection points: 4
#     Edge 32, Type (0, 0), BuildingBlock: EZIPEK_clean_linker_0, # of connection points: 2
#     Edge 33, Type (0, 0), BuildingBlock: EZIPEK_clean_linker_0, # of connection points: 2
#     Edge 34, Type (0, 0), BuildingBlock: EZIPEK_clean_linker_0, # of connection points: 2
#     Edge 35, Type (0, 0), BuildingBlock: EZIPEK_clean_linker_0, # of connection points: 2
#     Edge 36, Type (0, 0), BuildingBlock: EZIPEK_clean_linker_0, # of connection points: 2
#     Edge 37, Type (0, 0), BuildingBlock: EZIPEK_clean_linker_0, # of connection points: 2
#     Edge 38, Type (0, 0), BuildingBlock: EZIPEK_clean_linker_0, # of connection points: 2
#     Edge 39, Type (0, 0), BuildingBlock: EZIPEK_clean_linker_0, # of connection points: 2
#     Edge 40, Type (0, 0), BuildingBlock: EZIPEK_clean_linker_0, # of connection points: 2
#     Edge 41, Type (0, 0), BuildingBlock: EZIPEK_clean_linker_0, # of connection points: 2
#     Edge 42, Type (0, 0), BuildingBlock: EZIPEK_clean_linker_0, # of connection points: 2
#     Edge 43, Type (0, 0), BuildingBlock: EZIPEK_clean_linker_0, # of connection points: 2
#     Edge 44, Type (0, 0), BuildingBlock: EZIPEK_clean_linker_0, # of connection points: 2
#     Edge 45, Type (0, 0), BuildingBlock: EZIPEK_clean_linker_0, # of connection points: 2
#     Edge 46, Type (0, 0), BuildingBlock: EZIPEK_clean_linker_0, # of connection points: 2
#     Edge 47, Type (0, 0), BuildingBlock: EZIPEK_clean_linker_0, # of connection points: 2
#     Edge 48, Type (0, 0), BuildingBlock: EZIPEK_clean_linker_0, # of connection points: 2
#     Edge 49, Type (0, 0), BuildingBlock: EZIPEK_clean_linker_0, # of connection points: 2
#     Edge 50, Type (0, 0), BuildingBlock: EZIPEK_clean_linker_0, # of connection points: 2
#     Edge 51, Type (0, 0), BuildingBlock: EZIPEK_clean_linker_0, # of connection points: 2
#     Edge 52, Type (0, 0), BuildingBlock: EZIPEK_clean_linker_0, # of connection points: 2
#     Edge 53, Type (0, 0), BuildingBlock: EZIPEK_clean_linker_0, # of connection points: 2
#     Edge 54, Type (0, 0), BuildingBlock: EZIPEK_clean_linker_0, # of connection points: 2
#     Edge 55, Type (0, 0), BuildingBlock: EZIPEK_clean_linker_0, # of connection points: 2
#     Edge 56, Type (0, 0), BuildingBlock: EZIPEK_clean_linker_0, # of connection points: 2
#     Edge 57, Type (0, 0), BuildingBlock: EZIPEK_clean_linker_0, # of connection points: 2
#     Edge 58, Type (0, 0), BuildingBlock: EZIPEK_clean_linker_0, # of connection points: 2
#     Edge 59, Type (0, 0), BuildingBlock: EZIPEK_clean_linker_0, # of connection points: 2
#     Edge 60, Type (0, 0), BuildingBlock: EZIPEK_clean_linker_0, # of connection points: 2
#     Edge 61, Type (0, 0), BuildingBlock: EZIPEK_clean_linker_0, # of connection points: 2
#     Edge 62, Type (0, 0), BuildingBlock: EZIPEK_clean_linker_0, # of connection points: 2
#     Edge 63, Type (0, 0), BuildingBlock: EZIPEK_clean_linker_0, # of connection points: 2
#     Edge 64, Type (0, 0), BuildingBlock: EZIPEK_clean_linker_0, # of connection points: 2
#     Edge 65, Type (0, 0), BuildingBlock: EZIPEK_clean_linker_0, # of connection points: 2
#     Edge 66, Type (0, 0), BuildingBlock: EZIPEK_clean_linker_0, # of connection points: 2
#     Edge 67, Type (0, 0), BuildingBlock: EZIPEK_clean_linker_0, # of connection points: 2
#     Edge 68, Type (0, 0), BuildingBlock: EZIPEK_clean_linker_0, # of connection points: 2
#     Edge 69, Type (0, 0), BuildingBlock: EZIPEK_clean_linker_0, # of connection points: 2
#     Edge 70, Type (0, 0), BuildingBlock: EZIPEK_clean_linker_0, # of connection points: 2
#     Edge 71, Type (0, 0), BuildingBlock: EZIPEK_clean_linker_0, # of connection points: 2
#     Edge 72, Type (0, 0), BuildingBlock: EZIPEK_clean_linker_0, # of connection points: 2
#     Edge 73, Type (0, 0), BuildingBlock: EZIPEK_clean_linker_0, # of connection points: 2
#     Edge 74, Type (0, 0), BuildingBlock: EZIPEK_clean_linker_0, # of connection points: 2
#     Edge 75, Type (0, 0), BuildingBlock: EZIPEK_clean_linker_0, # of connection points: 2
#     Edge 76, Type (0, 0), BuildingBlock: EZIPEK_clean_linker_0, # of connection points: 2
#     Edge 77, Type (0, 0), BuildingBlock: EZIPEK_clean_linker_0, # of connection points: 2
#     Edge 78, Type (0, 0), BuildingBlock: EZIPEK_clean_linker_0, # of connection points: 2
#     Edge 79, Type (0, 0), BuildingBlock: EZIPEK_clean_linker_0, # of connection points: 2
#     Edge 80, Type (0, 0), BuildingBlock: EZIPEK_clean_linker_0, # of connection points: 2
#     Edge 81, Type (0, 0), BuildingBlock: EZIPEK_clean_linker_0, # of connection points: 2
#     Edge 82, Type (0, 0), BuildingBlock: EZIPEK_clean_linker_0, # of connection points: 2
#     Edge 83, Type (0, 0), BuildingBlock: EZIPEK_clean_linker_0, # of connection points: 2
#     Edge 84, Type (0, 0), BuildingBlock: EZIPEK_clean_linker_0, # of connection points: 2
#     Edge 85, Type (0, 0), BuildingBlock: EZIPEK_clean_linker_0, # of connection points: 2
#     Edge 86, Type (0, 0), BuildingBlock: EZIPEK_clean_linker_0, # of connection points: 2
#     Edge 87, Type (0, 0), BuildingBlock: EZIPEK_clean_linker_0, # of connection points: 2
#     Edge 88, Type (0, 0), BuildingBlock: EZIPEK_clean_linker_0, # of connection points: 2
#     Edge 89, Type (0, 0), BuildingBlock: EZIPEK_clean_linker_0, # of connection points: 2
#     Edge 90, Type (0, 0), BuildingBlock: EZIPEK_clean_linker_0, # of connection points: 2
#     Edge 91, Type (0, 0), BuildingBlock: EZIPEK_clean_linker_0, # of connection points: 2
#     Edge 92, Type (0, 0), BuildingBlock: EZIPEK_clean_linker_0, # of connection points: 2
#     Edge 93, Type (0, 0), BuildingBlock: EZIPEK_clean_linker_0, # of connection points: 2
#     Edge 94, Type (0, 0), BuildingBlock: EZIPEK_clean_linker_0, # of connection points: 2
#     Edge 95, Type (0, 0), BuildingBlock: EZIPEK_clean_linker_0, # of connection points: 2
# Relax obj value: 0.082
# Max RMSD: 0.107
# Mean RMSD: 0.107
data_MOF--net-uos--node1-AZAVOO_clean_sbu_0--edge1-EZIPEK_clean_linker_0
_symmetry_space_group_name_H-M    P1
_symmetry_Int_Tables_number       1
_symmetry_cell_setting            triclinic
loop_
_symmetry_equiv_pos_as_xyz
'x, y, z'
_cell_length_a     61.847849
_cell_length_b     62.209856
_cell_length_c     17.319318
_cell_angle_alpha  90.050046
_cell_angle_beta   89.928812
_cell_angle_gamma 89.957878
loop_
_atom_site_label
_atom_site_type_symbol
_atom_site_fract_x
_atom_site_fract_y
_atom_site_fract_z
_atom_type_partial_charge
Mg0 Mg 0.16986 0.16749 0.14202 0.0
O1 O 0.15613 0.14657 0.23866 0.0
O2 O 0.16514 0.16166 0.35152 0.0
Mg3 Mg 0.18674 0.19059 0.32656 0.0
C4 C 0.15557 0.14716 0.3122 0.0
C5 C 0.15545 0.13753 0.00998 0.0
O6 O 0.17637 0.13397 0.0081 0.0
O7 O 0.14432 0.19273 0.1677 0.0
O8 O 0.15682 0.20764 0.27595 0.0
O9 O 0.20106 0.14926 0.1382 0.0
O10 O 0.19474 0.1774 0.21249 0.0
C11 C 0.14288 0.20667 0.22147 0.0
C12 C 0.20785 0.1626 0.19015 0.0
O13 O 0.14767 0.1508 0.05817 0.0
Mg14 Mg 0.07802 0.92738 0.33388 0.0
O15 O 0.09744 0.91071 0.43015 0.0
O16 O 0.0817 0.9193 0.54288 0.0
Mg17 Mg 0.05354 0.94205 0.52044 0.0
C18 C 0.09618 0.90954 0.5037 0.0
C19 C 0.10401 0.91698 0.18711 0.0
O20 O 0.10436 0.93808 0.18684 0.0
O21 O 0.05062 0.90314 0.34877 0.0
O22 O 0.03555 0.91498 0.45812 0.0
O23 O 0.09758 0.95796 0.3428 0.0
O24 O 0.06848 0.95056 0.41089 0.0
C25 C 0.03585 0.90219 0.40026 0.0
C26 C 0.08388 0.96363 0.3956 0.0
O27 O 0.09435 0.90713 0.24132 0.0
Mg28 Mg 0.32818 0.82535 0.60101 0.0
O29 O 0.34188 0.84631 0.69813 0.0
O30 O 0.3312 0.83227 0.81115 0.0
Mg31 Mg 0.30972 0.80333 0.78583 0.0
C32 C 0.34148 0.84626 0.77183 0.0
C33 C 0.34902 0.85994 0.49544 0.0
O34 O 0.33331 0.8715 0.52531 0.0
O35 O 0.35298 0.79959 0.629 0.0
O36 O 0.33975 0.78582 0.73808 0.0
O37 O 0.29745 0.84461 0.5958 0.0
O38 O 0.30282 0.81664 0.67149 0.0
C39 C 0.3539 0.78608 0.68411 0.0
C40 C 0.29031 0.83191 0.64924 0.0
O41 O 0.35126 0.84046 0.51548 0.0
Mg42 Mg 0.42503 0.07716 0.85108 0.0
O43 O 0.40484 0.09182 0.94877 0.0
O44 O 0.41911 0.08125 0.0615 0.0
Mg45 Mg 0.44737 0.05879 0.03558 0.0
C46 C 0.40517 0.09172 0.02245 0.0
C47 C 0.38919 0.09875 0.75733 0.0
O48 O 0.37788 0.08516 0.79894 0.0
O49 O 0.45211 0.10086 0.87558 0.0
O50 O 0.46613 0.08722 0.98368 0.0
O51 O 0.4047 0.04732 0.84858 0.0
O52 O 0.43339 0.0522 0.92216 0.0
C53 C 0.46627 0.10105 0.92906 0.0
C54 C 0.41755 0.04016 0.90162 0.0
O55 O 0.40954 0.09969 0.76546 0.0
Mg56 Mg 0.16796 0.83422 0.84701 0.0
O57 O 0.15315 0.85425 0.74876 0.0
O58 O 0.16111 0.83768 0.63715 0.0
Mg59 Mg 0.18191 0.8083 0.663 0.0
C60 C 0.15216 0.85283 0.67525 0.0
C61 C 0.14707 0.87231 0.93807 0.0
O62 O 0.15687 0.88349 0.88414 0.0
O63 O 0.14154 0.80913 0.83046 0.0
O64 O 0.15244 0.79287 0.72227 0.0
O65 O 0.19988 0.8515 0.84158 0.0
O66 O 0.19132 0.82303 0.77238 0.0
C67 C 0.13927 0.79461 0.779 0.0
C68 C 0.20533 0.83743 0.78992 0.0
O69 O 0.1482 0.85194 0.93762 0.0
Mg70 Mg 0.41492 0.92081 0.11117 0.0
O71 O 0.39538 0.90537 0.01327 0.0
O72 O 0.41277 0.91241 0.90242 0.0
Mg73 Mg 0.44152 0.9342 0.92789 0.0
C74 C 0.39738 0.90368 0.94012 0.0
C75 C 0.40466 0.89855 0.26642 0.0
O76 O 0.42431 0.90543 0.28109 0.0
O77 O 0.44098 0.89504 0.09822 0.0
O78 O 0.45778 0.90618 0.99125 0.0
O79 O 0.39698 0.95213 0.10274 0.0
O80 O 0.42614 0.94361 0.0361 0.0
C81 C 0.45618 0.89333 0.0486 0.0
C82 C 0.41133 0.9574 0.05167 0.0
O83 O 0.39646 0.90166 0.20024 0.0
Mg84 Mg 0.33247 0.16527 0.36654 0.0
O85 O 0.3469 0.14549 0.26714 0.0
O86 O 0.3389 0.16274 0.15721 0.0
Mg87 Mg 0.31758 0.19165 0.18565 0.0
C88 C 0.34794 0.14739 0.19382 0.0
C89 C 0.34816 0.15048 0.52373 0.0
O90 O 0.33315 0.1645 0.5424 0.0
O91 O 0.35861 0.19055 0.35009 0.0
O92 O 0.34697 0.20749 0.2445 0.0
O93 O 0.30114 0.14748 0.36384 0.0
O94 O 0.30846 0.17635 0.29472 0.0
C95 C 0.3604 0.20552 0.30027 0.0
C96 C 0.29495 0.16151 0.3133 0.0
O97 O 0.35257 0.14718 0.45316 0.0
Mg98 Mg 0.07909 0.07677 0.65159 0.0
O99 O 0.0952 0.09327 0.54656 0.0
O100 O 0.08125 0.08161 0.43395 0.0
Mg101 Mg 0.04935 0.06638 0.47119 0.0
C102 C 0.0952 0.09231 0.47264 0.0
C103 C 0.09879 0.09147 0.80447 0.0
O104 O 0.08574 0.07625 0.82874 0.0
O105 O 0.0508 0.10097 0.66266 0.0
O106 O 0.04858 0.0971 0.53926 0.0
O107 O 0.09805 0.04689 0.62723 0.0
O108 O 0.06639 0.05385 0.57444 0.0
C109 C 0.03902 0.10017 0.60287 0.0
C110 C 0.08295 0.04142 0.57944 0.0
O111 O 0.09965 0.09596 0.73317 0.0
Mg112 Mg 0.82815 0.81756 0.84259 0.0
O113 O 0.84238 0.84196 0.75823 0.0
O114 O 0.83529 0.83031 0.6385 0.0
Mg115 Mg 0.81535 0.7997 0.64678 0.0
C116 C 0.84381 0.84375 0.68506 0.0
C117 C 0.83879 0.83283 0.00505 0.0
O118 O 0.82045 0.82274 0.01727 0.0
O119 O 0.85567 0.79518 0.81256 0.0
O120 O 0.84587 0.78344 0.69607 0.0
O121 O 0.79635 0.83422 0.84741 0.0
O122 O 0.80497 0.80896 0.76307 0.0
C123 C 0.85901 0.78353 0.75316 0.0
C124 C 0.79099 0.82258 0.78845 0.0
O125 O 0.84712 0.83282 0.93819 0.0
Mg126 Mg 0.90251 0.05736 0.62927 0.0
O127 O 0.89204 0.081 0.53548 0.0
O128 O 0.90633 0.07004 0.42316 0.0
Mg129 Mg 0.92557 0.03927 0.44559 0.0
C130 C 0.89487 0.08307 0.46285 0.0
C131 C 0.9015 0.08235 0.78499 0.0
O132 O 0.91963 0.0717 0.79516 0.0
O133 O 0.93628 0.07187 0.62802 0.0
O134 O 0.94985 0.05882 0.51735 0.0
O135 O 0.87358 0.03677 0.60543 0.0
O136 O 0.90534 0.0332 0.54783 0.0
C137 C 0.95164 0.06979 0.57936 0.0
C138 C 0.88555 0.02711 0.55477 0.0
O139 O 0.8912 0.08042 0.72201 0.0
Mg140 Mg 0.68114 0.16541 0.37806 0.0
O141 O 0.66682 0.14432 0.28341 0.0
O142 O 0.67302 0.1598 0.16875 0.0
Mg143 Mg 0.69214 0.1905 0.19092 0.0
C144 C 0.6651 0.1448 0.2101 0.0
C145 C 0.67049 0.14188 0.53078 0.0
O146 O 0.69006 0.14858 0.54774 0.0
O147 O 0.65309 0.18846 0.36213 0.0
O148 O 0.66162 0.20399 0.25016 0.0
O149 O 0.7134 0.14929 0.37014 0.0
O150 O 0.70351 0.17743 0.30109 0.0
C151 C 0.64906 0.20187 0.30847 0.0
C152 C 0.71791 0.16319 0.31688 0.0
O153 O 0.66225 0.14647 0.46589 0.0
Mg154 Mg 0.58213 0.91912 0.13525 0.0
O155 O 0.60176 0.89987 0.04808 0.0
O156 O 0.58826 0.90641 0.93055 0.0
Mg157 Mg 0.56202 0.93225 0.94363 0.0
C158 C 0.60152 0.89691 0.97536 0.0
C159 C 0.58558 0.89435 0.29113 0.0
O160 O 0.56644 0.90285 0.30329 0.0
O161 O 0.55361 0.89647 0.11904 0.0
O162 O 0.54057 0.90739 0.00579 0.0
O163 O 0.60539 0.9462 0.12703 0.0
O164 O 0.57615 0.94304 0.05414 0.0
C165 C 0.53941 0.89554 0.06599 0.0
C166 C 0.5934 0.95358 0.07183 0.0
O167 O 0.59571 0.89821 0.22899 0.0
Mg168 Mg 0.83964 0.16936 0.11698 0.0
O169 O 0.85134 0.14842 0.21745 0.0
O170 O 0.83998 0.16335 0.32833 0.0
Mg171 Mg 0.8209 0.19351 0.29881 0.0
C172 C 0.8501 0.1488 0.29103 0.0
C173 C 0.85726 0.13252 0.01629 0.0
O174 O 0.84021 0.12334 0.04718 0.0
O175 O 0.86582 0.19364 0.14538 0.0
O176 O 0.85231 0.20837 0.25265 0.0
O177 O 0.80779 0.15205 0.11055 0.0
O178 O 0.81427 0.18015 0.1845 0.0
C179 C 0.86695 0.20717 0.20052 0.0
C180 C 0.80112 0.16537 0.16286 0.0
O181 O 0.86198 0.15171 0.03464 0.0
Mg182 Mg 0.59334 0.07255 0.87067 0.0
O183 O 0.60949 0.08797 0.97482 0.0
O184 O 0.59296 0.07665 0.08224 0.0
Mg185 Mg 0.56581 0.05388 0.04494 0.0
C186 C 0.60737 0.08782 0.048 0.0
C187 C 0.61972 0.08814 0.73241 0.0
O188 O 0.6171 0.06775 0.71497 0.0
O189 O 0.56528 0.09593 0.88332 0.0
O190 O 0.54823 0.08207 0.98545 0.0
O191 O 0.61489 0.04372 0.87864 0.0
O192 O 0.58321 0.04678 0.93733 0.0
C193 C 0.54946 0.09576 0.9305 0.0
C194 C 0.60044 0.03575 0.92449 0.0
O195 O 0.61141 0.09558 0.79382 0.0
Mg196 Mg 0.66536 0.82637 0.62406 0.0
O197 O 0.65484 0.84225 0.73684 0.0
O198 O 0.66714 0.82289 0.83656 0.0
Mg199 Mg 0.6859 0.79454 0.78574 0.0
C200 C 0.65653 0.83873 0.80912 0.0
C201 C 0.63468 0.84074 0.49572 0.0
O202 O 0.63988 0.82146 0.47088 0.0
O203 O 0.63927 0.80119 0.64112 0.0
O204 O 0.654 0.78149 0.73517 0.0
O205 O 0.69696 0.84384 0.62163 0.0
O206 O 0.69146 0.81271 0.67931 0.0
C207 C 0.63891 0.78506 0.6863 0.0
C208 C 0.70442 0.82823 0.66322 0.0
O209 O 0.64237 0.84758 0.55889 0.0
Mg210 Mg 0.90151 0.91745 0.33529 0.0
O211 O 0.89073 0.90327 0.44998 0.0
O212 O 0.90742 0.92031 0.54678 0.0
Mg213 Mg 0.92699 0.94753 0.49141 0.0
C214 C 0.89452 0.90591 0.52173 0.0
C215 C 0.87952 0.893 0.20918 0.0
O216 O 0.87899 0.91303 0.1853 0.0
O217 O 0.93431 0.90136 0.34857 0.0
O218 O 0.94972 0.92213 0.43859 0.0
O219 O 0.87373 0.94018 0.33873 0.0
O220 O 0.90618 0.94667 0.38828 0.0
C221 C 0.95048 0.90668 0.38998 0.0
C222 C 0.88639 0.95248 0.37847 0.0
O223 O 0.88833 0.88861 0.27322 0.0
Mg224 Mg 0.66908 0.67051 0.61621 0.0
O225 O 0.65312 0.6474 0.70115 0.0
O226 O 0.6579 0.66034 0.82062 0.0
Mg227 Mg 0.67794 0.69095 0.81202 0.0
C228 C 0.65029 0.64638 0.774 0.0
C229 C 0.65646 0.65821 0.44888 0.0
O230 O 0.67103 0.67296 0.43344 0.0
O231 O 0.64127 0.69374 0.6347 0.0
O232 O 0.64888 0.70675 0.75163 0.0
O233 O 0.7011 0.65384 0.62403 0.0
O234 O 0.69063 0.68037 0.70008 0.0
C235 C 0.63701 0.70623 0.69115 0.0
C236 C 0.7052 0.66656 0.68138 0.0
O237 O 0.65165 0.65398 0.51841 0.0
Mg238 Mg 0.60005 0.4229 0.89672 0.0
O239 O 0.60972 0.40504 0.00662 0.0
O240 O 0.59359 0.42105 0.10698 0.0
Mg241 Mg 0.57736 0.45178 0.06197 0.0
C242 C 0.60556 0.40629 0.07873 0.0
C243 C 0.62124 0.40031 0.76255 0.0
O244 O 0.62452 0.42081 0.74883 0.0
O245 O 0.56546 0.41012 0.9063 0.0
O246 O 0.552 0.43135 -0.00076 0.0
O247 O 0.62961 0.44366 0.90481 0.0
O248 O 0.59797 0.4511 0.95857 0.0
C249 C 0.54968 0.41704 0.94697 0.0
C250 C 0.61786 0.45622 0.94723 0.0
O251 O 0.61062 0.39482 0.82216 0.0
Mg252 Mg 0.83001 0.32102 0.12905 0.0
O253 O 0.84332 0.34227 0.22623 0.0
O254 O 0.83497 0.32681 0.33942 0.0
Mg255 Mg 0.81631 0.29609 0.31446 0.0
C256 C 0.84382 0.3417 0.29992 0.0
C257 C 0.84788 0.35928 0.03469 0.0
O258 O 0.83471 0.36971 0.08097 0.0
O259 O 0.8578 0.29803 0.15038 0.0
O260 O 0.84776 0.28282 0.26128 0.0
O261 O 0.79765 0.33733 0.13116 0.0
O262 O 0.80654 0.30942 0.20297 0.0
C263 C 0.86115 0.28485 0.20535 0.0
C264 C 0.79242 0.32368 0.1844 0.0
O265 O 0.84978 0.33905 0.04033 0.0
Mg266 Mg 0.90095 0.5662 0.35589 0.0
O267 O 0.88722 0.58652 0.45448 0.0
O268 O 0.90122 0.57411 0.56503 0.0
Mg269 Mg 0.92412 0.54632 0.53658 0.0
C270 C 0.88896 0.58697 0.52788 0.0
C271 C 0.89174 0.60945 0.26291 0.0
O272 O 0.90537 0.61844 0.31119 0.0
O273 O 0.93317 0.58388 0.36479 0.0
O274 O 0.94702 0.56928 0.47164 0.0
O275 O 0.87428 0.54223 0.36993 0.0
O276 O 0.90577 0.54069 0.43038 0.0
C277 C 0.94856 0.58173 0.41315 0.0
C278 C 0.88679 0.53285 0.41934 0.0
O279 O 0.88754 0.58953 0.26794 0.0
Mg280 Mg 0.67178 0.31726 0.39617 0.0
O281 O 0.65616 0.33955 0.30752 0.0
O282 O 0.66338 0.32717 0.18885 0.0
Mg283 Mg 0.68421 0.29713 0.20183 0.0
C284 C 0.65445 0.34069 0.23425 0.0
C285 C 0.66204 0.34349 0.54325 0.0
O286 O 0.68326 0.34313 0.54503 0.0
O287 O 0.64525 0.29279 0.37375 0.0
O288 O 0.65505 0.2804 0.25792 0.0
O289 O 0.70342 0.33501 0.39232 0.0
O290 O 0.69488 0.30796 0.31602 0.0
C291 C 0.6424 0.28022 0.31644 0.0
C292 C 0.70871 0.32229 0.33619 0.0
O293 O 0.6521 0.33351 0.49011 0.0
Mg294 Mg 0.90815 0.42324 0.64367 0.0
O295 O 0.89443 0.40247 0.54639 0.0
O296 O 0.90589 0.41644 0.43448 0.0
Mg297 Mg 0.92728 0.44558 0.46058 0.0
C298 C 0.89505 0.40259 0.47273 0.0
C299 C 0.89167 0.407 0.79625 0.0
O300 O 0.89332 0.42786 0.8065 0.0
O301 O 0.94125 0.40767 0.62788 0.0
O302 O 0.95273 0.42441 0.521 0.0
O303 O 0.87968 0.44543 0.63626 0.0
O304 O 0.91007 0.44939 0.57019 0.0
C305 C 0.95593 0.41181 0.57814 0.0
C306 C 0.89077 0.45584 0.58514 0.0
O307 O 0.89762 0.39879 0.73249 0.0
Mg308 Mg 0.82789 0.67171 0.87124 0.0
O309 O 0.83941 0.64877 0.77603 0.0
O310 O 0.82794 0.66167 0.66221 0.0
Mg311 Mg 0.8092 0.69248 0.68475 0.0
C312 C 0.83811 0.64782 0.70249 0.0
C313 C 0.84268 0.65173 0.02437 0.0
O314 O 0.82234 0.65608 0.03986 0.0
O315 O 0.85455 0.69454 0.83509 0.0
O316 O 0.84154 0.70702 0.72372 0.0
O317 O 0.7959 0.65486 0.88267 0.0
O318 O 0.80265 0.68152 0.80224 0.0
C319 C 0.85629 0.70638 0.77546 0.0
C320 C 0.7893 0.66744 0.828 0.0
O321 O 0.85022 0.6561 0.95806 0.0
Mg322 Mg 0.59633 0.57039 0.12082 0.0
O323 O 0.60536 0.58539 0.00548 0.0
O324 O 0.59053 0.56623 0.90995 0.0
Mg325 Mg 0.57461 0.53681 0.96595 0.0
C326 C 0.60176 0.58208 0.93395 0.0
C327 C 0.61843 0.59733 0.24109 0.0
O328 O 0.6237 0.57749 0.25898 0.0
O329 O 0.56155 0.58214 0.10723 0.0
O330 O 0.54879 0.55873 0.02009 0.0
O331 O 0.62654 0.5506 0.11842 0.0
O332 O 0.59507 0.5406 0.06892 0.0
C333 C 0.54608 0.57421 0.06765 0.0
C334 C 0.61525 0.53672 0.08019 0.0
O335 O 0.60631 0.60074 0.18334 0.0
Mg336 Mg 0.33025 0.32505 0.38374 0.0
O337 O 0.34559 0.34493 0.28649 0.0
O338 O 0.33766 0.3288 0.17407 0.0
Mg339 Mg 0.3168 0.29944 0.19877 0.0
C340 C 0.34685 0.34362 0.213 0.0
C341 C 0.35503 0.33472 0.53643 0.0
O342 O 0.35174 0.31407 0.54687 0.0
O343 O 0.35693 0.30002 0.36886 0.0
O344 O 0.34595 0.28431 0.25973 0.0
O345 O 0.29872 0.34281 0.37597 0.0
O346 O 0.30706 0.31407 0.30775 0.0
C347 C 0.35901 0.28565 0.31675 0.0
C348 C 0.29337 0.32897 0.32354 0.0
O349 O 0.34908 0.34355 0.4739 0.0
Mg350 Mg 0.4072 0.5671 0.13699 0.0
O351 O 0.39363 0.58761 0.03917 0.0
O352 O 0.40377 0.57272 0.9272 0.0
Mg353 Mg 0.42416 0.5428 0.9538 0.0
C354 C 0.39366 0.58711 0.96557 0.0
C355 C 0.37973 0.59705 0.24053 0.0
O356 O 0.36447 0.58534 0.20878 0.0
O357 O 0.44099 0.58057 0.11746 0.0
O358 O 0.45118 0.56253 0.01146 0.0
O359 O 0.37782 0.54559 0.13273 0.0
O360 O 0.40778 0.5403 0.06574 0.0
C361 C 0.45526 0.57521 0.06768 0.0
C362 C 0.38843 0.53445 0.08218 0.0
O363 O 0.39933 0.59378 0.22209 0.0
Mg364 Mg 0.16508 0.67352 0.87189 0.0
O365 O 0.15014 0.65335 0.77461 0.0
O366 O 0.15997 0.66825 0.662 0.0
Mg367 Mg 0.1819 0.6969 0.68715 0.0
C368 C 0.14977 0.6541 0.70093 0.0
C369 C 0.15252 0.65519 0.02737 0.0
O370 O 0.17149 0.66387 0.04093 0.0
O371 O 0.13986 0.69949 0.85042 0.0
O372 O 0.15292 0.7142 0.74247 0.0
O373 O 0.19586 0.65439 0.87173 0.0
O374 O 0.1898 0.68281 0.79902 0.0
C375 C 0.13917 0.71377 0.7977 0.0
C376 C 0.20262 0.66756 0.81915 0.0
O377 O 0.14418 0.6569 0.9607 0.0
Mg378 Mg 0.09197 0.42569 0.63125 0.0
O379 O 0.10655 0.40645 0.53235 0.0
O380 O 0.09306 0.4187 0.42103 0.0
Mg381 Mg 0.06958 0.44606 0.45056 0.0
C382 C 0.10533 0.40604 0.45896 0.0
C383 C 0.11112 0.40732 0.7801 0.0
O384 O 0.10825 0.42752 0.79987 0.0
O385 O 0.0602 0.40761 0.61909 0.0
O386 O 0.04652 0.4226 0.5128 0.0
O387 O 0.11827 0.45023 0.62121 0.0
O388 O 0.08699 0.45183 0.55932 0.0
C389 C 0.04493 0.4098 0.57034 0.0
C390 C 0.10577 0.45991 0.57242 0.0
O391 O 0.10528 0.40099 0.71375 0.0
Mg392 Mg 0.32545 0.66691 0.62418 0.0
O393 O 0.34018 0.64648 0.72105 0.0
O394 O 0.3322 0.66238 0.83386 0.0
Mg395 Mg 0.31157 0.69198 0.80973 0.0
C396 C 0.34133 0.64757 0.79457 0.0
C397 C 0.35061 0.65727 0.47176 0.0
O398 O 0.3474 0.67794 0.46137 0.0
O399 O 0.35225 0.69155 0.64188 0.0
O400 O 0.34117 0.70711 0.75118 0.0
O401 O 0.29353 0.64981 0.6289 0.0
O402 O 0.30202 0.67813 0.69906 0.0
C403 C 0.35446 0.7057 0.69469 0.0
C404 C 0.28803 0.66375 0.68088 0.0
O405 O 0.34451 0.64844 0.53414 0.0
Mg406 Mg 0.08613 0.57205 0.35747 0.0
O407 O 0.09929 0.59294 0.45533 0.0
O408 O 0.08686 0.57973 0.56698 0.0
Mg409 Mg 0.06595 0.5502 0.53989 0.0
C410 C 0.09807 0.5933 0.52883 0.0
C411 C 0.11635 0.60219 0.26764 0.0
O412 O 0.13001 0.5936 0.31669 0.0
O413 O 0.05281 0.58724 0.36987 0.0
O414 O 0.04053 0.57049 0.47561 0.0
O415 O 0.11446 0.54964 0.36732 0.0
O416 O 0.0837 0.54594 0.43121 0.0
C417 C 0.0377 0.58287 0.41759 0.0
C418 C 0.10296 0.53921 0.41725 0.0
O419 O 0.09652 0.59702 0.27001 0.0
Mg420 Mg 0.17182 0.32475 0.12241 0.0
O421 O 0.15873 0.34545 0.22058 0.0
O422 O 0.16877 0.33108 0.33359 0.0
Mg423 Mg 0.18908 0.30136 0.30672 0.0
C424 C 0.15887 0.34531 0.29417 0.0
C425 C 0.15844 0.34911 0.97671 0.0
O426 O 0.17847 0.34391 0.95967 0.0
O427 O 0.14561 0.30013 0.1481 0.0
O428 O 0.15851 0.28581 0.25691 0.0
O429 O 0.20345 0.34251 0.11997 0.0
O430 O 0.19661 0.31416 0.19232 0.0
C431 C 0.14434 0.2866 0.2032 0.0
C432 C 0.20986 0.32899 0.17194 0.0
O433 O 0.15027 0.34288 0.04 0.0
Mg434 Mg 0.41084 0.42541 0.86966 0.0
O435 O 0.39798 0.40446 0.96751 0.0
O436 O 0.40751 0.41961 0.0796 0.0
Mg437 Mg 0.42721 0.44991 0.05281 0.0
C438 C 0.3979 0.40495 0.04111 0.0
C439 C 0.384 0.39493 0.76731 0.0
O440 O 0.3686 0.40628 0.8001 0.0
O441 O 0.44494 0.41272 0.88852 0.0
O442 O 0.45463 0.43038 0.9958 0.0
O443 O 0.38081 0.44592 0.8744 0.0
O444 O 0.41055 0.45222 0.94125 0.0
C445 C 0.45897 0.4179 0.93919 0.0
C446 C 0.39096 0.45738 0.92508 0.0
O447 O 0.40359 0.39861 0.78465 0.0
C448 C 0.2614 0.18103 0.27238 0.0
C449 C 0.27276 0.16133 0.28084 0.0
C450 C 0.24027 0.14195 0.23964 0.0
C451 C 0.23028 0.16179 0.22034 0.0
N452 N 0.23497 0.19991 0.19654 0.0
N453 N 0.27425 0.12316 0.25426 0.0
C454 C 0.24189 0.18127 0.23016 0.0
C455 C 0.26259 0.14176 0.25924 0.0
N456 N 0.26845 0.19939 0.30771 0.0
N457 N 0.22843 0.12344 0.2427 0.0
H458 H 0.29087 0.12251 0.26377 0.0
H459 H 0.26785 0.10894 0.23211 0.0
H460 H 0.2118 0.12302 0.23314 0.0
H461 H 0.23471 0.10899 0.26329 0.0
H462 H 0.25949 0.21359 0.30764 0.0
H463 H 0.28161 0.19979 0.3452 0.0
H464 H 0.24408 0.21401 0.19753 0.0
H465 H 0.22171 0.20067 0.15954 0.0
C466 C 0.06507 0.99481 0.45544 0.0
C467 C 0.08487 0.9845 0.43694 0.0
C468 C 0.10415 0.01385 0.50123 0.0
C469 C 0.0842 0.02158 0.5318 0.0
N470 N 0.04631 0.01379 0.55581 0.0
N471 N 0.12356 0.98236 0.45742 0.0
C472 C 0.0648 0.01046 0.51416 0.0
C473 C 0.10459 0.99346 0.46387 0.0
N474 N 0.04655 0.9902 0.41583 0.0
N475 N 0.12245 0.02607 0.50448 0.0
H476 H 0.1246 0.96699 0.43394 0.0
H477 H 0.13787 0.98757 0.48307 0.0
H478 H 0.12275 0.04165 0.52642 0.0
H479 H 0.13676 0.02167 0.47674 0.0
H480 H 0.03217 -0.00138 0.42484 0.0
H481 H 0.04629 0.98013 0.36765 0.0
H482 H 0.03233 0.00475 0.54706 0.0
H483 H 0.04579 0.0232 0.60558 0.0
C484 C 0.23793 0.85584 0.73014 0.0
C485 C 0.22725 0.83682 0.75473 0.0
C486 C 0.25603 0.81529 0.69683 0.0
C487 C 0.26833 0.83413 0.68299 0.0
N488 N 0.27252 0.8724 0.7034 0.0
N489 N 0.23033 0.79872 0.78223 0.0
C490 C 0.25975 0.8545 0.70427 0.0
C491 C 0.2375 0.8166 0.7442 0.0
N492 N 0.22716 0.87501 0.72831 0.0
N493 N 0.26139 0.79623 0.66247 0.0
H494 H 0.21798 0.79912 0.82323 0.0
H495 H 0.23857 0.78409 0.78045 0.0
H496 H 0.27385 0.79475 0.6222 0.0
H497 H 0.25168 0.78257 0.66659 0.0
H498 H 0.23376 0.88886 0.70407 0.0
H499 H 0.21089 0.87655 0.74308 0.0
H500 H 0.26744 0.88717 0.72539 0.0
H501 H 0.28886 0.87202 0.68882 0.0
C502 C 0.39436 0.01067 0.95979 0.0
C503 C 0.41493 0.01867 0.93707 0.0
C504 C 0.4323 0.98877 0.00299 0.0
C505 C 0.41191 0.97887 0.01477 0.0
N506 N 0.3735 0.97874 0.98792 0.0
N507 N 0.45291 0.01088 0.91642 0.0
C508 C 0.39284 0.9893 0.98856 0.0
C509 C 0.43375 0.00638 0.95231 0.0
N510 N 0.37649 0.02355 0.95756 0.0
N511 N 0.45019 0.98217 0.04271 0.0
H512 H 0.45442 0.02254 0.87353 0.0
H513 H 0.46653 0.00112 0.92221 0.0
H514 H 0.44963 0.97065 0.08636 0.0
H515 H 0.46495 0.99022 0.03936 0.0
H516 H 0.36161 0.01887 0.98037 0.0
H517 H 0.37701 0.03963 0.94101 0.0
H518 H 0.35963 0.98518 0.96275 0.0
H519 H 0.37182 0.96274 0.00464 0.0
C520 C 0.75978 0.84498 0.74067 0.0
C521 C 0.76935 0.82448 0.75241 0.0
C522 C 0.73844 0.80774 0.68889 0.0
C523 C 0.72716 0.82762 0.69041 0.0
N524 N 0.72628 0.86477 0.73254 0.0
N525 N 0.76453 0.78579 0.75498 0.0
C526 C 0.73758 0.84622 0.72015 0.0
C527 C 0.75782 0.80565 0.73129 0.0
N528 N 0.77195 0.86323 0.74623 0.0
N529 N 0.73119 0.791 0.64479 0.0
H530 H 0.77767 0.78337 0.79157 0.0
H531 H 0.75538 0.77193 0.74603 0.0
H532 H 0.71795 0.79227 0.60784 0.0
H533 H 0.73999 0.77684 0.63755 0.0
H534 H 0.76605 0.87837 0.73138 0.0
H535 H 0.78853 0.86297 0.75678 0.0
H536 H 0.73285 0.87797 0.76125 0.0
H537 H 0.7098 0.86627 0.72184 0.0
C538 C 0.86965 0.97119 0.4904 0.0
C539 C 0.87846 0.97224 0.41524 0.0
C540 C 0.8799 0.01122 0.42497 0.0
C541 C 0.87727 0.00946 0.50578 0.0
N542 N 0.86824 0.98766 0.61678 0.0
N543 N 0.8904 0.99328 0.30661 0.0
C544 C 0.87111 0.98953 0.53889 0.0
C545 C 0.88285 0.99233 0.38065 0.0
N546 N 0.86001 0.95273 0.51513 0.0
N547 N 0.87892 0.03093 0.39109 0.0
H548 H 0.89173 0.97968 0.27158 0.0
H549 H 0.89617 0.00737 0.28149 0.0
H550 H 0.87476 0.04449 0.42314 0.0
H551 H 0.87941 0.03332 0.33159 0.0
H552 H 0.85099 0.95195 0.5659 0.0
H553 H 0.85904 0.93901 0.48059 0.0
H554 H 0.86634 0.97291 0.64445 0.0
H555 H 0.86886 0.00072 0.65435 0.0
C556 C 0.74961 0.18301 0.26166 0.0
C557 C 0.73899 0.16318 0.27586 0.0
C558 C 0.77006 0.14407 0.22064 0.0
C559 C 0.7792 0.16404 0.19763 0.0
N560 N 0.77345 0.20205 0.17563 0.0
N561 N 0.73702 0.125 0.25018 0.0
C562 C 0.76769 0.18338 0.21179 0.0
C563 C 0.74857 0.1437 0.24993 0.0
N564 N 0.74328 0.20141 0.29859 0.0
N565 N 0.78202 0.12561 0.21831 0.0
H566 H 0.72089 0.12417 0.2674 0.0
H567 H 0.74272 0.11085 0.22505 0.0
H568 H 0.79811 0.12512 0.20075 0.0
H569 H 0.77661 0.11116 0.24184 0.0
H570 H 0.75188 0.21577 0.29438 0.0
H571 H 0.73124 0.20176 0.34074 0.0
H572 H 0.7643 0.21609 0.17979 0.0
H573 H 0.78565 0.20282 0.1341 0.0
C574 C 0.60087 0.99557 0.9152 0.0
C575 C 0.60311 0.01441 0.96044 0.0
C576 C 0.60011 0.99331 0.07878 0.0
C577 C 0.59855 0.97428 0.03384 0.0
N578 N 0.60401 0.95685 0.91118 0.0
N579 N 0.6122 0.03025 0.08263 0.0
C580 C 0.6009 0.97526 0.95244 0.0
C581 C 0.60504 0.01297 0.04155 0.0
N582 N 0.59788 -0.00296 0.83721 0.0
N583 N 0.59574 0.99297 0.15617 0.0
H584 H 0.61729 0.04425 0.05531 0.0
H585 H 0.61563 0.02969 0.14148 0.0
H586 H 0.5914 0.97908 0.18598 0.0
H587 H 0.59445 0.00687 0.18945 0.0
H588 H 0.59361 0.98396 0.80287 0.0
H589 H 0.59823 0.01161 0.80746 0.0
H590 H 0.60772 0.95662 0.8525 0.0
H591 H 0.60537 0.94199 0.93803 0.0
C592 C 0.73611 0.64651 0.74426 0.0
C593 C 0.72636 0.66622 0.7218 0.0
C594 C 0.7556 0.68588 0.78499 0.0
C595 C 0.76708 0.66638 0.79615 0.0
N596 N 0.76965 0.62813 0.77281 0.0
N597 N 0.73042 0.70465 0.7035 0.0
C598 C 0.75773 0.64661 0.77235 0.0
C599 C 0.73706 0.68594 0.73744 0.0
N600 N 0.72459 0.6278 0.74151 0.0
N601 N 0.76198 0.7043 0.82152 0.0
H602 H 0.71797 0.70541 0.66309 0.0
H603 H 0.73906 0.71898 0.70821 0.0
H604 H 0.7748 0.70477 0.86055 0.0
H605 H 0.75292 0.71843 0.82013 0.0
H606 H 0.73034 0.61337 0.76406 0.0
H607 H 0.70845 0.62718 0.72447 0.0
H608 H 0.76419 0.6138 0.7485 0.0
H609 H 0.78576 0.62756 0.79024 0.0
C610 C 0.62746 0.47775 0.06248 0.0
C611 C 0.62641 0.47616 0.98131 0.0
C612 C 0.62979 0.51513 0.97134 0.0
C613 C 0.62477 0.51667 0.05063 0.0
N614 N 0.62093 0.49993 0.17519 0.0
N615 N 0.62859 0.49303 0.85624 0.0
C616 C 0.62474 0.49813 0.09776 0.0
C617 C 0.62879 0.49473 0.93484 0.0
N618 N 0.63126 0.45976 0.10512 0.0
N619 N 0.63557 0.53313 0.93162 0.0
H620 H 0.62849 0.47824 0.82782 0.0
H621 H 0.62761 0.50625 0.81954 0.0
H622 H 0.63637 0.54819 0.95814 0.0
H623 H 0.64183 0.53261 0.87581 0.0
H624 H 0.63447 0.46025 0.1641 0.0
H625 H 0.6337 0.44479 0.07918 0.0
H626 H 0.61813 0.48678 0.21099 0.0
H627 H 0.61973 0.51479 0.20293 0.0
C628 C 0.74145 0.30379 0.28258 0.0
C629 C 0.73026 0.32326 0.29819 0.0
C630 C 0.76128 0.34345 0.24792 0.0
C631 C 0.77083 0.32393 0.22213 0.0
N632 N 0.76622 0.28594 0.19638 0.0
N633 N 0.72788 0.36172 0.27969 0.0
C634 C 0.75982 0.3042 0.23396 0.0
C635 C 0.73968 0.34318 0.27642 0.0
N636 N 0.73531 0.28497 0.31691 0.0
N637 N 0.77297 0.36207 0.24858 0.0
H638 H 0.71173 0.36213 0.29677 0.0
H639 H 0.73345 0.37627 0.25747 0.0
H640 H 0.78913 0.36285 0.23173 0.0
H641 H 0.76731 0.37621 0.27383 0.0
H642 H 0.74427 0.27083 0.31193 0.0
H643 H 0.723 0.28404 0.35791 0.0
H644 H 0.75739 0.27167 0.19854 0.0
H645 H 0.77866 0.28567 0.15574 0.0
C646 C 0.87868 0.47407 0.46501 0.0
C647 C 0.88212 0.47497 0.54564 0.0
C648 C 0.87817 0.51398 0.54209 0.0
C649 C 0.88016 0.51324 0.46079 0.0
N650 N 0.88161 0.49264 0.34272 0.0
N651 N 0.88436 0.49563 0.66331 0.0
C652 C 0.87974 0.49329 0.42131 0.0
C653 C 0.88118 0.49487 0.5853 0.0
N654 N 0.87413 0.45485 0.43095 0.0
N655 N 0.87311 0.53292 0.57733 0.0
H656 H 0.88599 0.48187 0.69716 0.0
H657 H 0.88647 0.50991 0.69381 0.0
H658 H 0.8697 0.54667 0.54535 0.0
H659 H 0.86986 0.53437 0.63612 0.0
H660 H 0.86988 0.45319 0.37308 0.0
H661 H 0.87216 0.44094 0.46358 0.0
H662 H 0.88407 0.47848 0.3118 0.0
H663 H 0.88186 0.50642 0.30853 0.0
C664 C 0.26102 0.31011 0.26919 0.0
C665 C 0.27211 0.32966 0.28382 0.0
C666 C 0.24124 0.34952 0.23091 0.0
C667 C 0.23177 0.32984 0.20669 0.0
N668 N 0.23699 0.29185 0.18192 0.0
N669 N 0.27472 0.3679 0.25982 0.0
C670 C 0.24298 0.31025 0.21936 0.0
C671 C 0.26283 0.34941 0.25928 0.0
N672 N 0.26683 0.29151 0.30567 0.0
N673 N 0.22952 0.36814 0.23056 0.0
H674 H 0.29094 0.36837 0.27583 0.0
H675 H 0.26914 0.38224 0.23589 0.0
H676 H 0.21334 0.36884 0.21421 0.0
H677 H 0.23524 0.38241 0.25461 0.0
H678 H 0.25789 0.27736 0.30077 0.0
H679 H 0.27868 0.29082 0.3483 0.0
H680 H 0.24593 0.27767 0.18529 0.0
H681 H 0.22487 0.29147 0.14013 0.0
C682 C 0.37679 0.51532 0.96357 0.0
C683 C 0.37941 0.51512 0.04463 0.0
C684 C 0.3779 0.47591 0.04357 0.0
C685 C 0.38106 0.47631 0.9627 0.0
N686 N 0.38175 0.49609 0.84309 0.0
N687 N 0.38061 0.49544 0.16432 0.0
C688 C 0.37941 0.4959 0.92153 0.0
C689 C 0.37884 0.49546 0.08572 0.0
N690 N 0.37188 0.53417 0.92753 0.0
N691 N 0.37398 0.45679 0.07932 0.0
H692 H 0.38055 0.50953 0.19695 0.0
H693 H 0.38301 0.48157 0.1968 0.0
H694 H 0.37236 0.44262 0.04783 0.0
H695 H 0.37006 0.45536 0.13756 0.0
H696 H 0.36827 0.53538 0.86899 0.0
H697 H 0.36916 0.54822 0.95888 0.0
H698 H 0.38336 0.51011 0.81084 0.0
H699 H 0.383 0.48206 0.8104 0.0
C700 C 0.25564 0.64485 0.73946 0.0
C701 C 0.2661 0.66409 0.7159 0.0
C702 C 0.23667 0.68501 0.77256 0.0
C703 C 0.22461 0.66593 0.78501 0.0
N704 N 0.22121 0.62764 0.76318 0.0
N705 N 0.26261 0.70222 0.68966 0.0
C706 C 0.23366 0.64576 0.76371 0.0
C707 C 0.25549 0.68412 0.72642 0.0
N708 N 0.26676 0.62589 0.74198 0.0
N709 N 0.23089 0.70389 0.80739 0.0
H710 H 0.27524 0.70215 0.64977 0.0
H711 H 0.25413 0.71671 0.69131 0.0
H712 H 0.21828 0.70508 0.84716 0.0
H713 H 0.24041 0.7177 0.80432 0.0
H714 H 0.26026 0.61189 0.76547 0.0
H715 H 0.28317 0.6247 0.72884 0.0
H716 H 0.2267 0.613 0.74125 0.0
H717 H 0.20477 0.62772 0.77635 0.0
C718 C 0.11483 0.48044 0.45332 0.0
C719 C 0.11214 0.48018 0.53442 0.0
C720 C 0.11322 0.51943 0.53656 0.0
C721 C 0.1109 0.51952 0.45532 0.0
N722 N 0.1098 0.50022 0.33439 0.0
N723 N 0.10918 0.49929 0.65529 0.0
C724 C 0.11226 0.50008 0.4128 0.0
C725 C 0.11191 0.49965 0.57698 0.0
N726 N 0.12011 0.46191 0.41561 0.0
N727 N 0.11692 0.53829 0.57449 0.0
H728 H 0.1087 0.4851 0.68719 0.0
H729 H 0.10621 0.51301 0.68814 0.0
H730 H 0.11884 0.55271 0.54478 0.0
H731 H 0.12043 0.53928 0.63317 0.0
H732 H 0.12398 0.4612 0.35713 0.0
H733 H 0.12297 0.44767 0.44543 0.0
H734 H 0.10794 0.48632 0.30154 0.0
H735 H 0.10841 0.51433 0.30234 0.0
C736 C 0.12712 0.13723 0.90712 0.0
C737 C 0.14086 0.1257 0.95788 0.0
C738 C 0.12796 0.09164 0.90455 0.0
C739 C 0.11276 0.10312 0.85919 0.0
N740 N 0.09479 0.13651 0.82865 0.0
N741 N 0.1511 0.09205 0.01701 0.0
C742 C 0.11145 0.12585 0.86366 0.0
C743 C 0.14039 0.10292 0.96009 0.0
N744 N 0.12961 0.15892 0.89805 0.0
N745 N 0.13125 0.07017 0.89235 0.0
H746 H 0.16004 0.09972 0.05996 0.0
H747 H 0.14939 0.07558 0.02611 0.0
H748 H 0.1228 0.06132 0.85109 0.0
H749 H 0.14378 0.06157 0.918 0.0
H750 H 0.12158 0.16775 0.85578 0.0
H751 H 0.14121 0.16784 0.92773 0.0
H752 H 0.09178 0.15283 0.83671 0.0
H753 H 0.08268 0.12868 0.7976 0.0
C754 C 0.11606 0.89426 0.98738 0.0
C755 C 0.13581 0.88343 0.00192 0.0
C756 C 0.13349 0.89269 0.13942 0.0
C757 C 0.11457 0.90488 0.12389 0.0
N758 N 0.08837 0.91877 0.03355 0.0
N759 N 0.16509 0.8745 0.08791 0.0
C760 C 0.10604 0.90615 0.04787 0.0
C761 C 0.14494 0.88309 0.07704 0.0
N762 N 0.10647 0.89241 0.91651 0.0
N763 N 0.14053 0.89034 0.21379 0.0
H764 H 0.17402 0.86737 0.04364 0.0
H765 H 0.17378 0.87588 0.13908 0.0
H766 H 0.1335 0.89825 0.26061 0.0
H767 H 0.15255 0.87955 0.23014 0.0
H768 H 0.09095 0.89788 0.90419 0.0
H769 H 0.11342 0.88393 0.87079 0.0
H770 H 0.08297 0.92259 0.97836 0.0
H771 H 0.07958 0.92642 0.07702 0.0
C772 C 0.38226 0.8677 0.31283 0.0
C773 C 0.39161 0.8881 0.3273 0.0
C774 C 0.37554 0.88838 0.45662 0.0
C775 C 0.36391 0.86944 0.43803 0.0
N776 N 0.35317 0.84312 0.34276 0.0
N777 N 0.39392 0.91983 0.40767 0.0
C778 C 0.36648 0.85957 0.36464 0.0
C779 C 0.38747 0.89899 0.3979 0.0
N780 N 0.38891 0.85577 0.25083 0.0
N781 N 0.37583 0.89586 0.53086 0.0
H782 H 0.40216 0.92851 0.36544 0.0
H783 H 0.38924 0.92919 0.45474 0.0
H784 H 0.36772 0.88826 0.57605 0.0
H785 H 0.38586 0.90832 0.54905 0.0
H786 H 0.38422 0.83988 0.24197 0.0
H787 H 0.40084 0.86097 0.21254 0.0
H788 H 0.35289 0.8369 0.2869 0.0
H789 H 0.3409 0.83708 0.37787 0.0
C790 C 0.37923 0.13479 0.7041 0.0
C791 C 0.37848 0.11205 0.69831 0.0
C792 C 0.35591 0.1147 0.58291 0.0
C793 C 0.35853 0.13735 0.58407 0.0
N794 N 0.3754 0.16891 0.63814 0.0
N795 N 0.36967 0.08024 0.62488 0.0
C796 C 0.37091 0.14743 0.64269 0.0
C797 C 0.36778 0.10194 0.63574 0.0
N798 N 0.3872 0.14427 0.76938 0.0
N799 N 0.34141 0.10541 0.53352 0.0
H800 H 0.37847 0.07029 0.66172 0.0
H801 H 0.36422 0.07239 0.57546 0.0
H802 H 0.33201 0.11421 0.49485 0.0
H803 H 0.33717 0.08922 0.53602 0.0
H804 H 0.38603 0.1607 0.78039 0.0
H805 H 0.39327 0.13552 0.81592 0.0
H806 H 0.38625 0.17667 0.67464 0.0
H807 H 0.36975 0.17868 0.59357 0.0
C808 C 0.83669 0.86483 0.09198 0.0
C809 C 0.84829 0.84661 0.06516 0.0
C810 C 0.88059 0.85849 0.13445 0.0
C811 C 0.86862 0.87611 0.1642 0.0
N812 N 0.83409 0.89294 0.18809 0.0
N813 N 0.87949 0.82348 0.07281 0.0
C814 C 0.84627 0.87831 0.14818 0.0
C815 C 0.86972 0.8426 0.09026 0.0
N816 N 0.81708 0.87003 0.06066 0.0
N817 N 0.90248 0.85749 0.14493 0.0
H818 H 0.87187 0.81147 0.04074 0.0
H819 H 0.89428 0.81872 0.0959 0.0
H820 H 0.91111 0.86889 0.17644 0.0
H821 H 0.91237 0.84631 0.11729 0.0
H822 H 0.80918 0.88451 0.07179 0.0
H823 H 0.80951 0.86087 0.01816 0.0
H824 H 0.81729 0.89371 0.18431 0.0
H825 H 0.84049 0.90285 0.23099 0.0
C826 C 0.87883 0.10009 0.97931 0.0
C827 C 0.87054 0.12061 0.95949 0.0
C828 C 0.88717 0.11762 0.83155 0.0
C829 C 0.89244 0.09589 0.84734 0.0
N830 N 0.89019 0.06523 0.9328 0.0
N831 N 0.8639 0.14768 0.86214 0.0
C832 C 0.88761 0.08679 0.92051 0.0
C833 C 0.87405 0.12918 0.88453 0.0
N834 N 0.87884 0.09352 0.05462 0.0
N835 N 0.89509 0.12737 0.76672 0.0
H836 H 0.85356 0.15639 0.89801 0.0
H837 H 0.86408 0.1533 0.80549 0.0
H838 H 0.90514 0.11951 0.72734 0.0
H839 H 0.89354 0.14379 0.75622 0.0
H840 H 0.88663 0.07961 0.0733 0.0
H841 H 0.87303 0.10308 0.09967 0.0
H842 H 0.88463 0.05746 0.98225 0.0
H843 H 0.89601 0.05468 0.89086 0.0
C844 C 0.62388 0.12133 0.65197 0.0
C845 C 0.63293 0.10217 0.68245 0.0
C846 C 0.66641 0.10857 0.61066 0.0
C847 C 0.65808 0.12866 0.58585 0.0
N848 N 0.63076 0.15626 0.59561 0.0
N849 N 0.66439 0.08001 0.70504 0.0
C850 C 0.63734 0.13567 0.61023 0.0
C851 C 0.65466 0.09646 0.6659 0.0
N852 N 0.60226 0.12539 0.65986 0.0
N853 N 0.685 0.10054 0.57897 0.0
H854 H 0.65654 0.07107 0.74754 0.0
H855 H 0.68085 0.07666 0.70092 0.0
H856 H 0.69396 0.10868 0.53718 0.0
H857 H 0.69044 0.08493 0.58877 0.0
H858 H 0.59442 0.13796 0.63172 0.0
H859 H 0.59169 0.11505 0.68851 0.0
H860 H 0.61674 0.16292 0.61888 0.0
H861 H 0.64036 0.16741 0.56648 0.0
C862 C 0.60001 0.84866 0.42703 0.0
C863 C 0.62125 0.85502 0.44783 0.0
C864 C 0.6163 0.88928 0.3813 0.0
C865 C 0.59643 0.88166 0.3514 0.0
N866 N 0.57003 0.85335 0.33868 0.0
N867 N 0.65109 0.87986 0.43463 0.0
C868 C 0.58832 0.8612 0.37275 0.0
C869 C 0.62978 0.875 0.42276 0.0
N870 N 0.59082 0.83102 0.46074 0.0
N871 N 0.62207 0.9103 0.37125 0.0
H872 H 0.66184 0.86956 0.46256 0.0
H873 H 0.65865 0.89317 0.41015 0.0
H874 H 0.61235 0.92135 0.34209 0.0
H875 H 0.63534 0.91729 0.39845 0.0
H876 H 0.57463 0.82688 0.45377 0.0
H877 H 0.59885 0.82158 0.50138 0.0
H878 H 0.56476 0.83756 0.34526 0.0
H879 H 0.56091 0.86214 0.29915 0.0
C880 C 0.66031 0.63075 0.34405 0.0
C881 C 0.64699 0.64507 0.38662 0.0
C882 C 0.61455 0.62927 0.32882 0.0
C883 C 0.62795 0.61532 0.28494 0.0
N884 N 0.66326 0.60659 0.23484 0.0
N885 N 0.61219 0.66154 0.4072 0.0
C886 C 0.65076 0.61729 0.28753 0.0
C887 C 0.62431 0.64547 0.37498 0.0
N888 N 0.68186 0.62906 0.36061 0.0
N889 N 0.59265 0.62633 0.32965 0.0
H890 H 0.61894 0.67371 0.44094 0.0
H891 H 0.59591 0.66397 0.3948 0.0
H892 H 0.58487 0.61469 0.29643 0.0
H893 H 0.5823 0.63436 0.36737 0.0
H894 H 0.69177 0.61707 0.33787 0.0
H895 H 0.68959 0.6385 0.40195 0.0
H896 H 0.67983 0.60906 0.22893 0.0
H897 H 0.65673 0.59683 0.19173 0.0
C898 C 0.62435 0.38559 0.62887 0.0
C899 C 0.6298 0.38404 0.70816 0.0
C900 C 0.6529 0.353 0.67998 0.0
C901 C 0.64995 0.35666 0.59986 0.0
N902 N 0.63555 0.37882 0.49733 0.0
N903 N 0.65162 0.3681 0.80872 0.0
C904 C 0.63627 0.3735 0.5739 0.0
C905 C 0.64458 0.36812 0.7339 0.0
N906 N 0.60741 0.39821 0.60623 0.0
N907 N 0.66318 0.3348 0.70463 0.0
H908 H 0.64626 0.37908 0.85003 0.0
H909 H 0.6642 0.35839 0.82823 0.0
H910 H 0.66919 0.32319 0.66674 0.0
H911 H 0.66385 0.3302 0.7624 0.0
H912 H 0.60135 0.39827 0.55011 0.0
H913 H 0.59794 0.40692 0.64518 0.0
H914 H 0.62767 0.39246 0.47671 0.0
H915 H 0.64451 0.3709 0.45496 0.0
C916 C 0.86127 0.38328 0.83927 0.0
C917 C 0.88114 0.3937 0.85601 0.0
C918 C 0.87857 0.38245 0.99134 0.0
C919 C 0.85951 0.37086 0.97322 0.0
N920 N 0.83428 0.35731 0.8789 0.0
N921 N 0.91071 0.40037 0.94334 0.0
C922 C 0.85141 0.37029 0.89671 0.0
C923 C 0.89035 0.39254 0.93089 0.0
N924 N 0.85116 0.3868 0.77018 0.0
N925 N 0.88525 0.38398 0.0664 0.0
H926 H 0.91992 0.40759 0.90004 0.0
H927 H 0.91926 0.3981 0.99443 0.0
H928 H 0.87752 0.37605 0.11175 0.0
H929 H 0.89757 0.39418 0.08464 0.0
H930 H 0.83551 0.38166 0.75812 0.0
H931 H 0.85757 0.39652 0.72682 0.0
H932 H 0.8293 0.35422 0.82256 0.0
H933 H 0.82591 0.34833 0.92007 0.0
C934 C 0.86826 0.64014 0.21919 0.0
C935 C 0.88131 0.62208 0.20099 0.0
C936 C 0.86856 0.623 0.06735 0.0
C937 C 0.8567 0.64198 0.08407 0.0
N938 N 0.84994 0.67173 0.17061 0.0
N939 N 0.8984 0.60001 0.10385 0.0
C940 C 0.85795 0.65152 0.15846 0.0
C941 C 0.88289 0.61467 0.12374 0.0
N942 N 0.86473 0.64583 0.29442 0.0
N943 N 0.86532 0.61219 -0.00042 0.0
H944 H 0.90961 0.594 0.14333 0.0
H945 H 0.9016 0.59561 0.0469 0.0
H946 H 0.85432 0.61715 0.95768 0.0
H947 H 0.87193 0.59709 0.98836 0.0
H948 H 0.85341 0.65738 0.31087 0.0
H949 H 0.87162 0.63775 0.34098 0.0
H950 H 0.85232 0.68022 0.22176 0.0
H951 H 0.84293 0.68091 0.12694 0.0
C952 C 0.35414 0.34883 0.67258 0.0
C953 C 0.36418 0.34821 0.59879 0.0
C954 C 0.3874 0.37842 0.63514 0.0
C955 C 0.3784 0.37803 0.71062 0.0
N956 N 0.35746 0.35918 0.80677 0.0
N957 N 0.39389 0.35869 0.51676 0.0
C958 C 0.36309 0.36207 0.73112 0.0
C959 C 0.38195 0.36184 0.58226 0.0
N960 N 0.33532 0.33791 0.68576 0.0
N961 N 0.40013 0.3952 0.61219 0.0
H962 H 0.39064 0.34637 0.47751 0.0
H963 H 0.40828 0.36681 0.50554 0.0
H964 H 0.40403 0.40809 0.648 0.0
H965 H 0.40513 0.39738 0.55527 0.0
H966 H 0.32619 0.33979 0.7359 0.0
H967 H 0.32763 0.3286 0.64401 0.0
H968 H 0.34799 0.34638 0.8257 0.0
H969 H 0.36412 0.36821 0.85165 0.0
C970 C 0.37765 0.63025 0.42541 0.0
C971 C 0.35973 0.64375 0.40931 0.0
C972 C 0.35843 0.62969 0.27724 0.0
C973 C 0.37398 0.61391 0.29733 0.0
N974 N 0.3962 0.59708 0.39497 0.0
N975 N 0.33062 0.6538 0.32329 0.0
C976 C 0.38318 0.61369 0.37245 0.0
C977 C 0.34953 0.64296 0.33592 0.0
N978 N 0.38965 0.63354 0.49058 0.0
N979 N 0.35254 0.63239 0.2018 0.0
H980 H 0.32302 0.66319 0.36513 0.0
H981 H 0.32135 0.6518 0.27361 0.0
H982 H 0.35913 0.62332 0.15683 0.0
H983 H 0.34289 0.64508 0.18301 0.0
H984 H 0.40415 0.62556 0.50145 0.0
H985 H 0.3863 0.64581 0.52994 0.0
H986 H 0.40138 0.59499 0.45168 0.0
H987 H 0.4002 0.58423 0.35905 0.0
C988 C 0.13661 0.65133 0.1596 0.0
C989 C 0.14201 0.64195 0.08739 0.0
C990 C 0.1278 0.60724 0.13071 0.0
C991 C 0.12444 0.61611 0.2052 0.0
N992 N 0.12755 0.64569 0.29445 0.0
N993 N 0.14637 0.61024 0.00814 0.0
C994 C 0.12943 0.63791 0.22086 0.0
C995 C 0.13843 0.61973 0.07361 0.0
N996 N 0.13756 0.67315 0.16857 0.0
N997 N 0.12089 0.58684 0.11454 0.0
H998 H 0.15478 0.61861 0.96553 0.0
H999 H 0.14642 0.59369 -0.00094 0.0
H1000 H 0.11399 0.57675 0.15578 0.0
H1001 H 0.12053 0.58047 0.05894 0.0
H1002 H 0.13175 0.68119 0.2171 0.0
H1003 H 0.14242 0.6835 0.12448 0.0
H1004 H 0.1333 0.66069 0.31145 0.0
H1005 H 0.12149 0.63656 0.3401 0.0
C1006 C 0.14428 0.39779 0.8552 0.0
C1007 C 0.12299 0.39252 0.83147 0.0
C1008 C 0.12584 0.35767 0.89639 0.0
C1009 C 0.14621 0.36393 0.92651 0.0
N1010 N 0.17255 0.39193 0.949 0.0
N1011 N 0.09192 0.3692 0.84006 0.0
C1012 C 0.15483 0.38455 0.91 0.0
C1013 C 0.11329 0.37292 0.85496 0.0
N1014 N 0.15487 0.41486 0.82289 0.0
N1015 N 0.11884 0.33697 0.90487 0.0
H1016 H 0.08211 0.38013 0.81079 0.0
H1017 H 0.08341 0.35621 0.86279 0.0
H1018 H 0.12771 0.32525 0.93402 0.0
H1019 H 0.10521 0.3309 0.87714 0.0
H1020 H 0.17122 0.41795 0.8322 0.0
H1021 H 0.14803 0.42466 0.78067 0.0
H1022 H 0.17805 0.40771 0.94493 0.0
H1023 H 0.18045 0.38303 0.99148 0.0
C1024 C 0.12498 0.25679 0.13389 0.0
C1025 C 0.128 0.26908 0.20198 0.0
C1026 C 0.12275 0.23722 0.28104 0.0
C1027 C 0.12726 0.22482 0.21448 0.0
N1028 N 0.1186 0.22115 0.07985 0.0
N1029 N 0.11851 0.2732 0.33514 0.0
C1030 C 0.12357 0.23405 0.14101 0.0
C1031 C 0.12243 0.25994 0.27396 0.0
N1032 N 0.12443 0.26668 0.06371 0.0
N1033 N 0.12034 0.22715 0.3504 0.0
H1034 H 0.11848 0.28989 0.32837 0.0
H1035 H 0.11417 0.2679 0.38996 0.0
H1036 H 0.11995 0.21041 0.35401 0.0
H1037 H 0.11847 0.23508 0.40289 0.0
H1038 H 0.12503 0.2585 0.0113 0.0
H1039 H 0.12272 0.28328 0.05849 0.0
H1040 H 0.11504 0.22687 0.02488 0.0
H1041 H 0.11569 0.20475 0.08698 0.0
C1042 C 0.98335 0.89615 0.3125 0.0
C1043 C 0.97123 0.89499 0.38219 0.0
C1044 C 0.00352 0.8836 0.4524 0.0
C1045 C 0.01594 0.8893 0.387 0.0
N1046 N 0.01733 0.88775 0.24862 0.0
N1047 N 0.96779 0.88061 0.51053 0.0
C1048 C 0.00569 0.89094 0.31454 0.0
C1049 C 0.98068 0.88602 0.44949 0.0
N1050 N 0.97414 0.90379 0.24635 0.0
N1051 N 0.01401 0.87731 0.51789 0.0
H1052 H 0.95101 0.88225 0.50838 0.0
H1053 H 0.97334 0.87342 0.56091 0.0
H1054 H 0.03073 0.87491 0.51807 0.0
H1055 H 0.00651 0.87446 0.57066 0.0
H1056 H 0.98302 0.90742 0.1969 0.0
H1057 H 0.95779 0.90757 0.24179 0.0
H1058 H 0.01042 0.88749 0.19381 0.0
H1059 H 0.03337 0.88256 0.2502 0.0
C1060 C 0.37289 0.75663 0.61126 0.0
C1061 C 0.36962 0.76793 0.68139 0.0
C1062 C 0.37593 0.73498 0.75359 0.0
C1063 C 0.37034 0.72353 0.68601 0.0
N1064 N 0.37445 0.72158 0.54812 0.0
N1065 N 0.37781 0.77004 0.81632 0.0
C1066 C 0.37279 0.73373 0.61344 0.0
C1067 C 0.37505 0.75777 0.75176 0.0
N1068 N 0.37613 0.76775 0.54441 0.0
N1069 N 0.38049 0.72378 0.81923 0.0
H1070 H 0.37765 0.78682 0.81328 0.0
H1071 H 0.38057 0.76387 0.87122 0.0
H1072 H 0.38105 0.70698 0.81884 0.0
H1073 H 0.38471 0.73083 0.87155 0.0
H1074 H 0.37854 0.76061 0.49077 0.0
H1075 H 0.37851 0.78434 0.54433 0.0
H1076 H 0.37416 0.72777 0.49238 0.0
H1077 H 0.37716 0.70505 0.55066 0.0
C1078 C 0.49674 0.11526 0.84982 0.0
C1079 C 0.48592 0.11468 0.92164 0.0
C1080 C 0.52051 0.1184 0.9874 0.0
C1081 C 0.53067 0.11044 0.91985 0.0
N1082 N 0.52974 0.1071 0.78043 0.0
N1083 N 0.4865 0.12392 0.05576 0.0
C1084 C 0.51937 0.11128 0.84839 0.0
C1085 C 0.49759 0.11961 0.98941 0.0
N1086 N 0.48544 0.11971 0.7842 0.0
N1087 N 0.53293 0.12386 0.04937 0.0
H1088 H 0.46967 0.12549 0.05564 0.0
H1089 H 0.49369 0.1258 0.10961 0.0
H1090 H 0.54978 0.12335 0.04623 0.0
H1091 H 0.52684 0.13039 0.10029 0.0
H1092 H 0.49264 0.12158 0.73025 0.0
H1093 H 0.46921 0.12427 0.78603 0.0
H1094 H 0.52164 0.10429 0.72872 0.0
H1095 H 0.54649 0.10656 0.77535 0.0
C1096 C 0.1176 0.76432 0.72577 0.0
C1097 C 0.12366 0.77667 0.79081 0.0
C1098 C 0.123 0.7447 0.87186 0.0
C1099 C 0.12399 0.73227 0.80316 0.0
N1100 N 0.11183 0.72845 0.67271 0.0
N1101 N 0.11831 0.78041 0.92754 0.0
C1102 C 0.11718 0.74159 0.7328 0.0
C1103 C 0.12165 0.76746 0.86508 0.0
N1104 N 0.11384 0.77449 0.65736 0.0
N1105 N 0.12438 0.73497 0.94219 0.0
H1106 H 0.11549 0.79685 0.92138 0.0
H1107 H 0.11582 0.7747 0.98331 0.0
H1108 H 0.12258 0.71843 0.94892 0.0
H1109 H 0.12678 0.74325 0.9937 0.0
H1110 H 0.11072 0.76664 0.60551 0.0
H1111 H 0.11364 0.79125 0.65394 0.0
H1112 H 0.10656 0.73386 0.61915 0.0
H1113 H 0.11163 0.71175 0.67929 0.0
C1114 C 0.48773 0.87261 -0.00041 0.0
C1115 C 0.47504 0.87905 0.06349 0.0
C1116 C 0.50726 0.88201 0.14357 0.0
C1117 C 0.51981 0.88175 0.07459 0.0
N1118 N 0.52389 0.86659 0.94798 0.0
N1119 N 0.47175 0.87637 0.20121 0.0
C1120 C 0.5106 0.87321 0.0063 0.0
C1121 C 0.48449 0.87918 0.13767 0.0
N1122 N 0.47768 0.86751 0.93197 0.0
N1123 N 0.51673 0.88584 0.21329 0.0
H1124 H 0.45538 0.87256 0.19634 0.0
H1125 H 0.47772 0.87519 0.2572 0.0
H1126 H 0.53333 0.8848 0.22175 0.0
H1127 H 0.50807 0.88951 0.26317 0.0
H1128 H 0.4857 0.86447 0.88027 0.0
H1129 H 0.46085 0.86643 0.9288 0.0
H1130 H 0.51849 0.85955 0.89703 0.0
H1131 H 0.54068 0.8668 0.95407 0.0
C1132 C 0.37704 0.23294 0.38769 0.0
C1133 C 0.37579 0.22357 0.31331 0.0
C1134 C 0.38262 0.25859 0.2556 0.0
C1135 C 0.375 0.26795 0.32484 0.0
N1136 N 0.3738 0.26573 0.46356 0.0
N1137 N 0.38644 0.22569 0.18053 0.0
C1138 C 0.37559 0.25571 0.39381 0.0
C1139 C 0.38228 0.23587 0.24868 0.0
N1140 N 0.37964 0.22013 0.45087 0.0
N1141 N 0.3885 0.2717 0.1961 0.0
H1142 H 0.38671 0.20894 0.17716 0.0
H1143 H 0.38976 0.23353 0.12884 0.0
H1144 H 0.38843 0.28841 0.20256 0.0
H1145 H 0.39451 0.26626 0.14349 0.0
H1146 H 0.38131 0.22592 0.50691 0.0
H1147 H 0.38259 0.20368 0.44559 0.0
H1148 H 0.37134 0.25769 0.51548 0.0
H1149 H 0.37543 0.28233 0.46913 0.0
C1150 C 0.97794 0.10029 0.57705 0.0
C1151 C 0.97308 0.07882 0.59771 0.0
C1152 C 0.0104 0.07316 0.64049 0.0
C1153 C 0.01602 0.09367 0.60993 0.0
N1154 N 0.00557 0.12673 0.54751 0.0
N1155 N 0.98425 0.04416 0.64506 0.0
C1156 C -0.00016 0.1073 0.57826 0.0
C1157 C 0.98914 0.06515 0.62903 0.0
N1158 N 0.96156 0.11392 0.5566 0.0
N1159 N 0.02518 0.06128 0.68075 0.0
H1160 H 0.96859 0.03799 0.64173 0.0
H1161 H 0.99582 0.03247 0.65709 0.0
H1162 H 0.04119 0.06576 0.68862 0.0
H1163 H 0.02121 0.04758 0.71217 0.0
H1164 H 0.96361 0.13033 0.54776 0.0
H1165 H 0.94542 0.10909 0.55434 0.0
H1166 H 0.99517 0.13631 0.51518 0.0
H1167 H 0.0212 0.13294 0.55113 0.0
C1168 C 0.87977 0.73449 0.83593 0.0
C1169 C 0.87399 0.72245 0.76969 0.0
C1170 C 0.87917 0.75392 0.68901 0.0
C1171 C 0.87575 0.76635 0.75619 0.0
N1172 N 0.88671 0.7703 0.88831 0.0
N1173 N 0.87933 0.71783 0.63374 0.0
C1174 C 0.88101 0.75722 0.82853 0.0
C1175 C 0.8782 0.73123 0.69594 0.0
N1176 N 0.88323 0.72428 0.9044 0.0
N1177 N 0.88167 0.76405 0.61984 0.0
H1178 H 0.87863 0.70116 0.64076 0.0
H1179 H 0.88153 0.72297 0.57714 0.0
H1180 H 0.88251 0.78081 0.61686 0.0
H1181 H 0.88374 0.75615 0.56739 0.0
H1182 H 0.8859 0.73214 0.95653 0.0
H1183 H 0.88449 0.70757 0.90747 0.0
H1184 H 0.89059 0.76488 0.94337 0.0
H1185 H 0.88904 0.78676 0.87999 0.0
C1186 C 0.62787 0.22774 0.39044 0.0
C1187 C 0.63135 0.21791 0.31763 0.0
C1188 C 0.62156 0.25119 0.25316 0.0
C1189 C 0.62698 0.26193 0.32234 0.0
N1190 N 0.62254 0.26152 0.46002 0.0
N1191 N 0.62093 0.21696 0.18451 0.0
C1192 C 0.62559 0.25051 0.39277 0.0
C1193 C 0.62397 0.22853 0.2505 0.0
N1194 N 0.6271 0.21541 0.45546 0.0
N1195 N 0.61597 0.26305 0.19013 0.0
H1196 H 0.62252 0.20024 0.18437 0.0
H1197 H 0.61627 0.22355 0.13194 0.0
H1198 H 0.61427 0.27973 0.19413 0.0
H1199 H 0.6123 0.2566 0.13631 0.0
H1200 H 0.62573 0.22152 0.51115 0.0
H1201 H 0.62632 0.19868 0.45248 0.0
H1202 H 0.62222 0.25447 0.51441 0.0
H1203 H 0.61888 0.2779 0.45997 0.0
C1204 C 0.88366 0.25886 0.12867 0.0
C1205 C 0.87907 0.26892 0.20026 0.0
C1206 C 0.88721 0.23572 0.26803 0.0
C1207 C 0.88303 0.22488 0.19797 0.0
N1208 N 0.89002 0.22486 0.06167 0.0
N1209 N 0.88767 0.27025 0.33491 0.0
C1210 C 0.88586 0.23608 0.12768 0.0
C1211 C 0.88529 0.25844 0.26912 0.0
N1212 N 0.8854 0.27098 0.06341 0.0
N1213 N 0.89084 0.22394 0.33306 0.0
H1214 H 0.88625 0.287 0.33386 0.0
H1215 H 0.89187 0.26383 0.38825 0.0
H1216 H 0.89205 0.2072 0.33034 0.0
H1217 H 0.89304 0.2305 0.38775 0.0
H1218 H 0.88749 0.26469 0.00826 0.0
H1219 H 0.88615 0.28772 0.06591 0.0
H1220 H 0.8916 0.23177 0.00733 0.0
H1221 H 0.89335 0.20841 0.0631 0.0
C1222 C 0.61447 0.7353 0.74809 0.0
C1223 C 0.62086 0.72376 0.68154 0.0
C1224 C 0.62117 0.75668 0.60618 0.0
C1225 C 0.62232 0.76806 0.67702 0.0
N1226 N 0.60967 0.7706 0.80708 0.0
N1227 N 0.61599 0.72185 0.54427 0.0
C1228 C 0.61484 0.75808 0.74518 0.0
C1229 C 0.61923 0.73394 0.6089 0.0
N1230 N 0.60972 0.72427 0.81392 0.0
N1231 N 0.62325 0.76738 0.53793 0.0
H1232 H 0.61312 0.70534 0.54786 0.0
H1233 H 0.61387 0.72829 0.48937 0.0
H1234 H 0.62253 0.78409 0.53488 0.0
H1235 H 0.62524 0.75978 0.48484 0.0
H1236 H 0.60597 0.73145 0.86651 0.0
H1237 H 0.60918 0.70748 0.814 0.0
H1238 H 0.60436 0.7647 0.85998 0.0
H1239 H 0.60965 0.78733 0.80231 0.0
C1240 C 0.51531 0.40005 0.99194 0.0
C1241 C 0.52732 0.40968 0.93138 0.0
C1242 C 0.4939 0.41982 0.86532 0.0
C1243 C 0.48183 0.41141 0.92838 0.0
N1244 N 0.48021 0.38844 0.03975 0.0
N1245 N 0.52842 0.42211 0.79953 0.0
C1246 C 0.49233 0.39974 0.98774 0.0
C1247 C 0.51671 0.41709 0.86398 0.0
N1248 N 0.52599 0.39194 0.0545 0.0
N1249 N 0.48393 0.43204 0.81018 0.0
H1250 H 0.54518 0.42077 0.79677 0.0
H1251 H 0.5214 0.42551 0.7463 0.0
H1252 H 0.46732 0.43469 0.80841 0.0
H1253 H 0.49229 0.44097 0.76902 0.0
H1254 H 0.51835 0.38697 0.105 0.0
H1255 H 0.54283 0.39077 0.05636 0.0
H1256 H 0.48673 0.37827 0.08133 0.0
H1257 H 0.46336 0.38785 0.03675 0.0
C1258 C 0.98146 0.58687 0.33077 0.0
C1259 C 0.96997 0.59196 0.39913 0.0
C1260 C 0.00415 0.60142 0.4621 0.0
C1261 C 0.01538 0.59047 0.40253 0.0
N1262 N 0.01459 0.57238 0.27846 0.0
N1263 N 0.9696 0.60846 0.5244 0.0
C1264 C 0.00414 0.58361 0.33524 0.0
C1265 C 0.98115 0.60102 0.4627 0.0
N1266 N 0.97083 0.58494 0.26209 0.0
N1267 N 0.0156 0.61194 0.51795 0.0
H1268 H 0.95278 0.60967 0.5227 0.0
H1269 H 0.97646 0.61303 0.57673 0.0
H1270 H 0.03247 0.61262 0.51722 0.0
H1271 H 0.00856 0.62142 0.56068 0.0
H1272 H 0.97878 0.58282 0.20957 0.0
H1273 H 0.95446 0.58841 0.25588 0.0
H1274 H 0.0065 0.56464 0.23362 0.0
H1275 H 0.03112 0.56931 0.27859 0.0
C1276 C 0.98824 0.39292 0.52429 0.0
C1277 C 0.9781 0.40309 0.58812 0.0
C1278 C 0.01283 0.4034 0.65574 0.0
C1279 C 0.02342 0.39972 0.58439 0.0
N1280 N 0.02176 0.38619 0.45473 0.0
N1281 N 0.98112 0.41835 0.71667 0.0
C1282 C 0.01121 0.39257 0.52017 0.0
C1283 C 0.99034 0.40791 0.65544 0.0
N1284 N 0.9758 0.38381 0.468 0.0
N1285 N 0.0241 0.40264 0.72338 0.0
H1286 H 0.96482 0.42239 0.71966 0.0
H1287 H 0.99012 0.42453 0.76241 0.0
H1288 H 0.04016 0.39768 0.72618 0.0
H1289 H 0.0167 0.40381 0.77732 0.0
H1290 H 0.98203 0.37493 0.42211 0.0
H1291 H 0.95896 0.38355 0.47151 0.0
H1292 H 0.01409 0.38313 0.40239 0.0
H1293 H 0.03854 0.38439 0.45327 0.0
C1294 C 0.48928 0.592 0.01893 0.0
C1295 C 0.47812 0.58148 0.07961 0.0
C1296 C 0.51247 0.57581 0.14727 0.0
C1297 C 0.52365 0.58193 0.07933 0.0
N1298 N 0.52343 0.59756 0.9524 0.0
N1299 N 0.47913 0.56224 0.20112 0.0
C1300 C 0.51224 0.59088 0.01608 0.0
C1301 C 0.48963 0.5736 0.14483 0.0
N1302 N 0.47778 0.60296 0.96432 0.0
N1303 N 0.52368 0.57145 0.21339 0.0
H1304 H 0.46248 0.55986 0.20225 0.0
H1305 H 0.48711 0.55367 0.24414 0.0
H1306 H 0.54046 0.57232 0.21697 0.0
H1307 H 0.51625 0.56908 0.26671 0.0
H1308 H 0.48484 0.61237 0.92154 0.0
H1309 H 0.46095 0.60414 0.96625 0.0
H1310 H 0.51614 0.60188 0.90054 0.0
H1311 H 0.5403 0.59808 0.95096 0.0
C1312 C 0.14424 0.11036 0.35629 0.0
C1313 C 0.14028 0.13278 0.35247 0.0
C1314 C 0.10736 0.12861 0.42974 0.0
C1315 C 0.11063 0.10604 0.43014 0.0
N1316 N 0.13008 0.07485 0.38501 0.0
N1317 N 0.11582 0.16266 0.36954 0.0
C1318 C 0.12844 0.09671 0.39051 0.0
C1319 C 0.12125 0.14178 0.38504 0.0
N1320 N 0.1634 0.10229 0.32944 0.0
N1321 N 0.09093 0.13754 0.47201 0.0
H1322 H 0.12527 0.1727 0.33519 0.0
H1323 H 0.101 0.16947 0.38423 0.0
H1324 H 0.07935 0.12849 0.50125 0.0
H1325 H 0.08954 0.15398 0.48214 0.0
H1326 H 0.16833 0.08645 0.33757 0.0
H1327 H 0.17519 0.11188 0.30363 0.0
H1328 H 0.1414 0.06702 0.35047 0.0
H1329 H 0.11905 0.06442 0.41083 0.0
C1330 C 0.10262 0.8751 0.5738 0.0
C1331 C 0.11088 0.89486 0.54542 0.0
C1332 C 0.1458 0.88791 0.60786 0.0
C1333 C 0.13785 0.86772 0.63294 0.0
N1334 N 0.10974 0.8409 0.63619 0.0
N1335 N 0.14045 0.91957 0.52777 0.0
C1336 C 0.11652 0.861 0.61499 0.0
C1337 C 0.13256 0.90112 0.56015 0.0
N1338 N 0.08135 0.86998 0.56202 0.0
N1339 N 0.16585 0.89456 0.63112 0.0
H1340 H 0.13096 0.92991 0.49471 0.0
H1341 H 0.15663 0.9241 0.5295 0.0
H1342 H 0.17604 0.88503 0.66472 0.0
H1343 H 0.17195 0.9099 0.62158 0.0
H1344 H 0.07347 0.85726 0.58896 0.0
H1345 H 0.07105 0.87912 0.5275 0.0
H1346 H 0.09546 0.83384 0.6172 0.0
H1347 H 0.11899 0.8306 0.67031 0.0
C1348 C 0.36089 0.89506 0.8848 0.0
C1349 C 0.38271 0.88908 0.89812 0.0
C1350 C 0.37778 0.85614 0.82266 0.0
C1351 C 0.3556 0.86139 0.8136 0.0
N1352 N 0.3251 0.88415 0.84224 0.0
N1353 N 0.41104 0.86245 0.89279 0.0
C1354 C 0.34685 0.88037 0.84662 0.0
C1355 C 0.39094 0.86923 0.87042 0.0
N1356 N 0.35386 0.91502 0.90641 0.0
N1357 N 0.38629 0.83872 0.78505 0.0
H1358 H 0.42107 0.87147 0.92872 0.0
H1359 H 0.41707 0.84713 0.88168 0.0
H1360 H 0.37703 0.82817 0.752 0.0
H1361 H 0.40279 0.83553 0.78191 0.0
H1362 H 0.33884 0.9213 0.89136 0.0
H1363 H 0.36369 0.92603 0.93521 0.0
H1364 H 0.31729 0.89645 0.87201 0.0
H1365 H 0.31453 0.87408 0.81233 0.0
C1366 C 0.37153 0.09696 0.1012 0.0
C1367 C 0.39 0.10582 0.06444 0.0
C1368 C 0.38179 0.14122 0.11864 0.0
C1369 C 0.36238 0.13282 0.15029 0.0
N1370 N 0.33718 0.10362 0.1652 0.0
N1371 N 0.41149 0.13664 0.0288 0.0
C1372 C 0.35682 0.11089 0.14006 0.0
C1373 C 0.3947 0.12806 0.07007 0.0
N1374 N 0.36823 0.07523 0.09954 0.0
N1375 N 0.38845 0.16145 0.13839 0.0
H1376 H 0.42202 0.12741 0.99535 0.0
H1377 H 0.41408 0.1531 0.02314 0.0
H1378 H 0.37969 0.1714 0.17547 0.0
H1379 H 0.40356 0.16769 0.12415 0.0
H1380 H 0.35644 0.06744 0.13206 0.0
H1381 H 0.3782 0.0647 0.0689 0.0
H1382 H 0.3311 0.08842 0.15265 0.0
H1383 H 0.32615 0.11341 0.19434 0.0
C1384 C 0.88872 0.86817 0.56601 0.0
C1385 C 0.88458 0.89045 0.5761 0.0
C1386 C 0.85457 0.88228 0.66372 0.0
C1387 C 0.85859 0.86006 0.6528 0.0
N1388 N 0.88337 0.83205 0.61429 0.0
N1389 N 0.86828 0.9186 0.65285 0.0
C1390 C 0.87686 0.85305 0.61013 0.0
C1391 C 0.86908 0.89751 0.63116 0.0
N1392 N 0.90386 0.86143 0.5137 0.0
N1393 N 0.83635 0.88887 0.70176 0.0
H1394 H 0.87884 0.93016 0.63145 0.0
H1395 H 0.85864 0.92424 0.69786 0.0
H1396 H 0.82537 0.87817 0.72647 0.0
H1397 H 0.83123 0.90481 0.70365 0.0
H1398 H 0.9055 0.8455 0.49613 0.0
H1399 H 0.91423 0.87194 0.48492 0.0
H1400 H 0.89779 0.8264 0.59072 0.0
H1401 H 0.87549 0.82064 0.64822 0.0
C1402 C 0.88429 0.13345 0.34422 0.0
C1403 C 0.86153 0.13211 0.33545 0.0
C1404 C 0.86039 0.1001 0.41757 0.0
C1405 C 0.88336 0.10048 0.42178 0.0
N1406 N 0.91754 0.11641 0.38641 0.0
N1407 N 0.82787 0.11354 0.35568 0.0
C1408 C 0.89543 0.11683 0.38409 0.0
C1409 C 0.84954 0.11533 0.37032 0.0
N1410 N 0.89509 0.1511 0.31699 0.0
N1411 N 0.8489 0.08521 0.45883 0.0
H1412 H 0.81932 0.12473 0.32293 0.0
H1413 H 0.81855 0.10031 0.37121 0.0
H1414 H 0.85604 0.07284 0.49026 0.0
H1415 H 0.83221 0.08576 0.46603 0.0
H1416 H 0.91125 0.15436 0.32871 0.0
H1417 H 0.88749 0.16347 0.28676 0.0
H1418 H 0.92737 0.12616 0.35248 0.0
H1419 H 0.92627 0.10554 0.41993 0.0
C1420 C 0.62787 0.1332 0.17535 0.0
C1421 C 0.65046 0.12928 0.17295 0.0
C1422 C 0.64488 0.0978 0.09043 0.0
C1423 C 0.62215 0.10136 0.0944 0.0
N1424 N 0.59164 0.12074 0.14756 0.0
N1425 N 0.68063 0.10677 0.13914 0.0
C1426 C 0.61353 0.11846 0.13946 0.0
C1427 C 0.65903 0.11126 0.13351 0.0
N1428 N 0.62021 0.15163 0.209 0.0
N1429 N 0.65293 0.08168 0.04493 0.0
H1430 H 0.69139 0.11658 0.16922 0.0
H1431 H 0.68774 0.0927 0.11891 0.0
H1432 H 0.64322 0.07043 0.01705 0.0
H1433 H 0.66925 0.0799 0.03164 0.0
H1434 H 0.60433 0.157 0.20413 0.0
H1435 H 0.63007 0.16254 0.23803 0.0
H1436 H 0.58441 0.13095 0.1876 0.0
H1437 H 0.58042 0.11157 0.11734 0.0
C1438 C 0.65046 0.8747 0.8705 0.0
C1439 C 0.64432 0.85285 0.86225 0.0
C1440 C 0.61078 0.85961 0.9339 0.0
C1441 C 0.61692 0.88143 0.94175 0.0
N1442 N 0.64431 0.90886 0.93478 0.0
N1443 N 0.62114 0.82332 0.89898 0.0
C1444 C 0.63733 0.88872 0.91533 0.0
C1445 C 0.6253 0.8449 0.89843 0.0
N1446 N 0.66869 0.88205 0.83449 0.0
N1447 N 0.59075 0.85316 0.95816 0.0
H1448 H 0.63104 0.81205 0.87193 0.0
H1449 H 0.60883 0.81628 0.93118 0.0
H1450 H 0.58011 0.86327 0.98769 0.0
H1451 H 0.58409 0.83821 0.9455 0.0
H1452 H 0.67271 0.89824 0.82999 0.0
H1453 H 0.67944 0.87188 0.80581 0.0
H1454 H 0.65981 0.91454 0.92348 0.0
H1455 H 0.63516 0.91936 0.96859 0.0
C1456 C 0.62683 0.59165 0.82489 0.0
C1457 C 0.61059 0.59791 0.87837 0.0
C1458 C 0.61693 0.63569 0.84562 0.0
C1459 C 0.63593 0.62952 0.80525 0.0
N1460 N 0.66006 0.60167 0.76036 0.0
N1461 N 0.58902 0.6258 0.93718 0.0
C1462 C 0.64106 0.6075 0.79497 0.0
C1463 C 0.60523 0.61995 0.88768 0.0
N1464 N 0.62857 0.57073 0.80189 0.0
N1465 N 0.60966 0.65642 0.84124 0.0
H1466 H 0.57874 0.61466 0.96327 0.0
H1467 H 0.58625 0.64159 0.95458 0.0
H1468 H 0.61747 0.66821 0.80877 0.0
H1469 H 0.59484 0.6615 0.8633 0.0
H1470 H 0.63891 0.56568 0.75798 0.0
H1471 H 0.61794 0.55881 0.81993 0.0
H1472 H 0.66583 0.58594 0.75956 0.0
H1473 H 0.67103 0.61278 0.73812 0.0
C1474 C 0.64442 0.37948 0.21679 0.0
C1475 C 0.64038 0.35751 0.20077 0.0
C1476 C 0.61089 0.36755 0.11339 0.0
C1477 C 0.61485 0.38955 0.13005 0.0
N1478 N 0.63026 0.41563 0.21796 0.0
N1479 N 0.61612 0.33042 0.15145 0.0
C1480 C 0.62993 0.39529 0.1884 0.0
C1481 C 0.62254 0.35145 0.15406 0.0
N1482 N 0.66268 0.3854 0.25581 0.0
N1483 N 0.59591 0.36205 0.05887 0.0
H1484 H 0.62379 0.31829 0.18262 0.0
H1485 H 0.60198 0.32527 0.12463 0.0
H1486 H 0.58542 0.3732 0.03389 0.0
H1487 H 0.59437 0.34659 0.03643 0.0
H1488 H 0.66771 0.40131 0.26119 0.0
H1489 H 0.67395 0.37438 0.2766 0.0
H1490 H 0.63965 0.42003 0.26528 0.0
H1491 H 0.61924 0.42742 0.20215 0.0
C1492 C 0.85897 0.38686 0.4367 0.0
C1493 C 0.88193 0.38671 0.42947 0.0
C1494 C 0.87974 0.35656 0.33826 0.0
C1495 C 0.85685 0.35781 0.34149 0.0
N1496 N 0.82443 0.37571 0.38358 0.0
N1497 N 0.91428 0.37276 0.36916 0.0
C1498 C 0.84639 0.37336 0.38811 0.0
C1499 C 0.89233 0.37203 0.37858 0.0
N1500 N 0.84913 0.39976 0.49026 0.0
N1501 N 0.88944 0.33991 0.29977 0.0
H1502 H 0.92436 0.38238 0.40267 0.0
H1503 H 0.92249 0.36461 0.32554 0.0
H1504 H 0.88084 0.32832 0.26897 0.0
H1505 H 0.9059 0.33651 0.3028 0.0
H1506 H 0.83285 0.39854 0.50493 0.0
H1507 H 0.85733 0.41085 0.52436 0.0
H1508 H 0.81594 0.38834 0.4089 0.0
H1509 H 0.81473 0.36598 0.34888 0.0
C1510 C 0.84059 0.61479 0.62084 0.0
C1511 C 0.85109 0.63161 0.66104 0.0
C1512 C 0.88643 0.61864 0.61685 0.0
C1513 C 0.87586 0.60263 0.57221 0.0
N1514 N 0.84279 0.5868 0.52389 0.0
N1515 N 0.88338 0.65193 0.68883 0.0
C1516 C 0.85289 0.60113 0.57169 0.0
C1517 C 0.87387 0.63412 0.65723 0.0
N1518 N 0.81894 0.61147 0.6319 0.0
N1519 N 0.90852 0.61916 0.62033 0.0
H1520 H 0.87483 0.6636 0.71953 0.0
H1521 H 0.89948 0.65613 0.67986 0.0
H1522 H 0.91842 0.6094 0.58649 0.0
H1523 H 0.91712 0.62846 0.65971 0.0
H1524 H 0.81064 0.59808 0.61142 0.0
H1525 H 0.80947 0.62129 0.66722 0.0
H1526 H 0.8262 0.58677 0.51395 0.0
H1527 H 0.851 0.5757 0.48971 0.0
C1528 C 0.38282 0.35902 0.1765 0.0
C1529 C 0.35995 0.35958 0.17073 0.0
C1530 C 0.36212 0.38807 0.07352 0.0
C1531 C 0.38496 0.38876 0.08361 0.0
N1532 N 0.41716 0.37609 0.1479 0.0
N1533 N 0.32745 0.37641 0.12397 0.0
C1534 C 0.39533 0.37465 0.13643 0.0
C1535 C 0.34949 0.37453 0.12177 0.0
N1536 N 0.39261 0.34291 0.21738 0.0
N1537 N 0.35239 0.40023 0.01765 0.0
H1538 H 0.31766 0.36673 0.15853 0.0
H1539 H 0.31892 0.3887 0.09686 0.0
H1540 H 0.36051 0.41144 0.98382 0.0
H1541 H 0.33637 0.39821 0.00086 0.0
H1542 H 0.40918 0.34004 0.21682 0.0
H1543 H 0.384 0.33124 0.24781 0.0
H1544 H 0.42527 0.36831 0.1925 0.0
H1545 H 0.42721 0.38592 0.11491 0.0
C1546 C 0.39044 0.61749 0.87086 0.0
C1547 C 0.38035 0.60297 0.92293 0.0
C1548 C 0.34457 0.61635 0.8843 0.0
C1549 C 0.35473 0.63172 0.83624 0.0
N1550 N 0.38704 0.64939 0.79109 0.0
N1551 N 0.34796 0.59039 0.98746 0.0
C1552 C 0.3776 0.6329 0.83107 0.0
C1553 C 0.35746 0.60299 0.93235 0.0
N1554 N 0.41233 0.61665 0.85985 0.0
N1555 N 0.32259 0.61393 0.88152 0.0
H1556 H 0.35635 0.57935 0.02118 0.0
H1557 H 0.33182 0.59185 0.00378 0.0
H1558 H 0.31264 0.62347 0.84699 0.0
H1559 H 0.31432 0.60138 0.90806 0.0
H1560 H 0.42033 0.62475 0.81568 0.0
H1561 H 0.42258 0.607 0.89272 0.0
H1562 H 0.40353 0.65269 0.79223 0.0
H1563 H 0.3782 0.66092 0.76087 0.0
C1564 C 0.14681 0.62175 0.61607 0.0
C1565 C 0.13649 0.63831 0.65847 0.0
C1566 C 0.10089 0.62497 0.61833 0.0
C1567 C 0.11125 0.60917 0.57192 0.0
N1568 N 0.1441 0.59393 0.51878 0.0
N1569 N 0.10425 0.65789 0.69288 0.0
C1570 C 0.13423 0.60803 0.56824 0.0
C1571 C 0.11365 0.64047 0.65806 0.0
N1572 N 0.1686 0.61862 0.62412 0.0
N1573 N 0.07883 0.6252 0.62418 0.0
H1574 H 0.11304 0.66944 0.72321 0.0
H1575 H 0.08797 0.66185 0.68739 0.0
H1576 H 0.06882 0.61532 0.59128 0.0
H1577 H 0.07038 0.63442 0.66431 0.0
H1578 H 0.17682 0.60533 0.6023 0.0
H1579 H 0.17835 0.62846 0.65823 0.0
H1580 H 0.16055 0.59431 0.50611 0.0
H1581 H 0.13579 0.58259 0.48607 0.0
C1582 C 0.15508 0.37839 0.37493 0.0
C1583 C 0.14527 0.36107 0.33531 0.0
C1584 C 0.10924 0.37394 0.37251 0.0
C1585 C 0.11909 0.39057 0.41631 0.0
N1586 N 0.15134 0.40745 0.46711 0.0
N1587 N 0.11363 0.34024 0.30358 0.0
C1588 C 0.14201 0.39242 0.42002 0.0
C1589 C 0.1225 0.35832 0.33563 0.0
N1590 N 0.17682 0.38186 0.36702 0.0
N1591 N 0.0872 0.37298 0.36658 0.0
H1592 H 0.12277 0.32855 0.2752 0.0
H1593 H 0.09748 0.3359 0.30963 0.0
H1594 H 0.07681 0.3829 0.39791 0.0
H1595 H 0.07911 0.36309 0.32772 0.0
H1596 H 0.18469 0.39558 0.38678 0.0
H1597 H 0.1869 0.37171 0.3352 0.0
H1598 H 0.16778 0.40782 0.47975 0.0
H1599 H 0.14257 0.41889 0.49793 0.0
loop_
_geom_bond_atom_site_label_1
_geom_bond_atom_site_label_2
_geom_bond_distance
_geom_bond_site_symmetry_2
_ccdc_geom_bond_type
Mg0 O1 2.028 . S
Mg0 O7 1.986 . S
Mg0 O9 2.114 . S
Mg0 O10 2.251 . S
Mg0 O13 2.010 . S
O1 Mg0 2.028 . S
O1 C4 1.250 . S
O2 Mg3 2.028 . S
O2 C4 1.248 . S
Mg3 O2 2.028 . S
Mg3 O8 2.032 . S
Mg3 O10 2.079 . S
C4 O1 1.250 . S
C4 O2 1.248 . S
C5 O6 1.264 . S
C5 O13 1.249 1_556 S
O6 C5 1.264 . S
O7 Mg0 1.986 . S
O7 C11 1.246 . S
O8 Mg3 2.032 . S
O8 C11 1.259 . S
O9 Mg0 2.114 . S
O9 C12 1.252 . S
O10 Mg0 2.251 . S
O10 Mg3 2.079 . S
O10 C12 1.273 . S
C11 O7 1.246 . S
C11 O8 1.259 . S
C12 O9 1.252 . S
C12 O10 1.273 . S
O13 Mg0 2.010 . S
O13 C5 1.249 1_554 S
Mg14 O15 2.028 . S
Mg14 O21 1.986 . S
Mg14 O23 2.114 . S
Mg14 O24 2.251 . S
Mg14 O27 2.010 . S
O15 Mg14 2.028 . S
O15 C18 1.250 . S
O16 Mg17 2.028 . S
O16 C18 1.248 . S
Mg17 O16 2.028 . S
Mg17 O22 2.032 . S
Mg17 O24 2.079 . S
C18 O15 1.250 . S
C18 O16 1.248 . S
C19 O20 1.264 . S
C19 O27 1.249 . S
O20 C19 1.264 . S
O21 Mg14 1.986 . S
O21 C25 1.246 . S
O22 Mg17 2.032 . S
O22 C25 1.259 . S
O23 Mg14 2.114 . S
O23 C26 1.252 . S
O24 Mg14 2.251 . S
O24 Mg17 2.079 . S
O24 C26 1.273 . S
C25 O21 1.246 . S
C25 O22 1.259 . S
C26 O23 1.252 . S
C26 O24 1.273 . S
O27 Mg14 2.010 . S
O27 C19 1.249 . S
Mg28 O29 2.028 . S
Mg28 O35 1.986 . S
Mg28 O37 2.114 . S
Mg28 O38 2.251 . S
Mg28 O41 2.010 . S
O29 Mg28 2.028 . S
O29 C32 1.250 . S
O30 Mg31 2.028 . S
O30 C32 1.248 . S
Mg31 O30 2.028 . S
Mg31 O36 2.032 . S
Mg31 O38 2.079 . S
C32 O29 1.250 . S
C32 O30 1.248 . S
C33 O34 1.264 . S
C33 O41 1.249 . S
O34 C33 1.264 . S
O35 Mg28 1.986 . S
O35 C39 1.246 . S
O36 Mg31 2.032 . S
O36 C39 1.259 . S
O37 Mg28 2.114 . S
O37 C40 1.252 . S
O38 Mg28 2.251 . S
O38 Mg31 2.079 . S
O38 C40 1.273 . S
C39 O35 1.246 . S
C39 O36 1.259 . S
C40 O37 1.252 . S
C40 O38 1.273 . S
O41 Mg28 2.010 . S
O41 C33 1.249 . S
Mg42 O43 2.028 . S
Mg42 O49 1.986 . S
Mg42 O51 2.114 . S
Mg42 O52 2.251 . S
Mg42 O55 2.010 . S
O43 Mg42 2.028 . S
O43 C46 1.250 1_556 S
O44 Mg45 2.028 . S
O44 C46 1.248 . S
Mg45 O44 2.028 . S
Mg45 O50 2.032 . S
Mg45 O52 2.079 1_554 S
C46 O43 1.250 1_554 S
C46 O44 1.248 . S
C47 O48 1.264 . S
C47 O55 1.249 . S
O48 C47 1.264 . S
O49 Mg42 1.986 . S
O49 C53 1.246 . S
O50 Mg45 2.032 . S
O50 C53 1.259 1_554 S
O51 Mg42 2.114 . S
O51 C54 1.252 . S
O52 Mg42 2.251 . S
O52 Mg45 2.079 1_556 S
O52 C54 1.273 . S
C53 O49 1.246 . S
C53 O50 1.259 1_556 S
C54 O51 1.252 . S
C54 O52 1.273 . S
O55 Mg42 2.010 . S
O55 C47 1.249 . S
Mg56 O57 2.028 . S
Mg56 O63 1.986 . S
Mg56 O65 2.114 . S
Mg56 O66 2.251 . S
Mg56 O69 2.010 . S
O57 Mg56 2.028 . S
O57 C60 1.250 . S
O58 Mg59 2.028 . S
O58 C60 1.248 . S
Mg59 O58 2.028 . S
Mg59 O64 2.032 . S
Mg59 O66 2.079 . S
C60 O57 1.250 . S
C60 O58 1.248 . S
C61 O62 1.264 . S
C61 O69 1.249 1_554 S
O62 C61 1.264 . S
O63 Mg56 1.986 . S
O63 C67 1.246 . S
O64 Mg59 2.032 . S
O64 C67 1.259 . S
O65 Mg56 2.114 . S
O65 C68 1.252 . S
O66 Mg56 2.251 . S
O66 Mg59 2.079 . S
O66 C68 1.273 . S
C67 O63 1.246 . S
C67 O64 1.259 . S
C68 O65 1.252 . S
C68 O66 1.273 . S
O69 Mg56 2.010 . S
O69 C61 1.249 1_556 S
Mg70 O71 2.028 . S
Mg70 O77 1.986 . S
Mg70 O79 2.114 . S
Mg70 O80 2.251 . S
Mg70 O83 2.010 . S
O71 Mg70 2.028 . S
O71 C74 1.250 1_554 S
O72 Mg73 2.028 . S
O72 C74 1.248 . S
Mg73 O72 2.028 . S
Mg73 O78 2.032 . S
Mg73 O80 2.079 1_556 S
C74 O71 1.250 1_556 S
C74 O72 1.248 . S
C75 O76 1.264 . S
C75 O83 1.249 . S
O76 C75 1.264 . S
O77 Mg70 1.986 . S
O77 C81 1.246 . S
O78 Mg73 2.032 . S
O78 C81 1.259 1_556 S
O79 Mg70 2.114 . S
O79 C82 1.252 . S
O80 Mg70 2.251 . S
O80 Mg73 2.079 1_554 S
O80 C82 1.273 . S
C81 O77 1.246 . S
C81 O78 1.259 1_554 S
C82 O79 1.252 . S
C82 O80 1.273 . S
O83 Mg70 2.010 . S
O83 C75 1.249 . S
Mg84 O85 2.028 . S
Mg84 O91 1.986 . S
Mg84 O93 2.114 . S
Mg84 O94 2.251 . S
Mg84 O97 2.010 . S
O85 Mg84 2.028 . S
O85 C88 1.250 . S
O86 Mg87 2.028 . S
O86 C88 1.248 . S
Mg87 O86 2.028 . S
Mg87 O92 2.032 . S
Mg87 O94 2.079 . S
C88 O85 1.250 . S
C88 O86 1.248 . S
C89 O90 1.264 . S
C89 O97 1.249 . S
O90 C89 1.264 . S
O91 Mg84 1.986 . S
O91 C95 1.246 . S
O92 Mg87 2.032 . S
O92 C95 1.259 . S
O93 Mg84 2.114 . S
O93 C96 1.252 . S
O94 Mg84 2.251 . S
O94 Mg87 2.079 . S
O94 C96 1.273 . S
C95 O91 1.246 . S
C95 O92 1.259 . S
C96 O93 1.252 . S
C96 O94 1.273 . S
O97 Mg84 2.010 . S
O97 C89 1.249 . S
Mg98 O99 2.028 . S
Mg98 O105 1.986 . S
Mg98 O107 2.114 . S
Mg98 O108 2.251 . S
Mg98 O111 2.010 . S
O99 Mg98 2.028 . S
O99 C102 1.250 . S
O100 Mg101 2.028 . S
O100 C102 1.248 . S
Mg101 O100 2.028 . S
Mg101 O106 2.032 . S
Mg101 O108 2.079 . S
C102 O99 1.250 . S
C102 O100 1.248 . S
C103 O104 1.264 . S
C103 O111 1.249 . S
O104 C103 1.264 . S
O105 Mg98 1.986 . S
O105 C109 1.246 . S
O106 Mg101 2.032 . S
O106 C109 1.259 . S
O107 Mg98 2.114 . S
O107 C110 1.252 . S
O108 Mg98 2.251 . S
O108 Mg101 2.079 . S
O108 C110 1.273 . S
C109 O105 1.246 . S
C109 O106 1.259 . S
C110 O107 1.252 . S
C110 O108 1.273 . S
O111 Mg98 2.010 . S
O111 C103 1.249 . S
Mg112 O113 2.028 . S
Mg112 O119 1.986 . S
Mg112 O121 2.114 . S
Mg112 O122 2.251 . S
Mg112 O125 2.010 . S
O113 Mg112 2.028 . S
O113 C116 1.250 . S
O114 Mg115 2.028 . S
O114 C116 1.248 . S
Mg115 O114 2.028 . S
Mg115 O120 2.032 . S
Mg115 O122 2.079 . S
C116 O113 1.250 . S
C116 O114 1.248 . S
C117 O118 1.264 . S
C117 O125 1.249 1_554 S
O118 C117 1.264 . S
O119 Mg112 1.986 . S
O119 C123 1.246 . S
O120 Mg115 2.032 . S
O120 C123 1.259 . S
O121 Mg112 2.114 . S
O121 C124 1.252 . S
O122 Mg112 2.251 . S
O122 Mg115 2.079 . S
O122 C124 1.273 . S
C123 O119 1.246 . S
C123 O120 1.259 . S
C124 O121 1.252 . S
C124 O122 1.273 . S
O125 Mg112 2.010 . S
O125 C117 1.249 1_556 S
Mg126 O127 2.028 . S
Mg126 O133 1.986 . S
Mg126 O135 2.114 . S
Mg126 O136 2.251 . S
Mg126 O139 2.010 . S
O127 Mg126 2.028 . S
O127 C130 1.250 . S
O128 Mg129 2.028 . S
O128 C130 1.248 . S
Mg129 O128 2.028 . S
Mg129 O134 2.032 . S
Mg129 O136 2.079 . S
C130 O127 1.250 . S
C130 O128 1.248 . S
C131 O132 1.264 . S
C131 O139 1.249 . S
O132 C131 1.264 . S
O133 Mg126 1.986 . S
O133 C137 1.246 . S
O134 Mg129 2.032 . S
O134 C137 1.259 . S
O135 Mg126 2.114 . S
O135 C138 1.252 . S
O136 Mg126 2.251 . S
O136 Mg129 2.079 . S
O136 C138 1.273 . S
C137 O133 1.246 . S
C137 O134 1.259 . S
C138 O135 1.252 . S
C138 O136 1.273 . S
O139 Mg126 2.010 . S
O139 C131 1.249 . S
Mg140 O141 2.028 . S
Mg140 O147 1.986 . S
Mg140 O149 2.114 . S
Mg140 O150 2.251 . S
Mg140 O153 2.010 . S
O141 Mg140 2.028 . S
O141 C144 1.250 . S
O142 Mg143 2.028 . S
O142 C144 1.248 . S
Mg143 O142 2.028 . S
Mg143 O148 2.032 . S
Mg143 O150 2.079 . S
C144 O141 1.250 . S
C144 O142 1.248 . S
C145 O146 1.264 . S
C145 O153 1.249 . S
O146 C145 1.264 . S
O147 Mg140 1.986 . S
O147 C151 1.246 . S
O148 Mg143 2.032 . S
O148 C151 1.259 . S
O149 Mg140 2.114 . S
O149 C152 1.252 . S
O150 Mg140 2.251 . S
O150 Mg143 2.079 . S
O150 C152 1.273 . S
C151 O147 1.246 . S
C151 O148 1.259 . S
C152 O149 1.252 . S
C152 O150 1.273 . S
O153 Mg140 2.010 . S
O153 C145 1.249 . S
Mg154 O155 2.028 . S
Mg154 O161 1.986 . S
Mg154 O163 2.114 . S
Mg154 O164 2.251 . S
Mg154 O167 2.010 . S
O155 Mg154 2.028 . S
O155 C158 1.250 1_554 S
O156 Mg157 2.028 . S
O156 C158 1.248 . S
Mg157 O156 2.028 . S
Mg157 O162 2.032 . S
Mg157 O164 2.079 1_556 S
C158 O155 1.250 1_556 S
C158 O156 1.248 . S
C159 O160 1.264 . S
C159 O167 1.249 . S
O160 C159 1.264 . S
O161 Mg154 1.986 . S
O161 C165 1.246 . S
O162 Mg157 2.032 . S
O162 C165 1.259 1_556 S
O163 Mg154 2.114 . S
O163 C166 1.252 . S
O164 Mg154 2.251 . S
O164 Mg157 2.079 1_554 S
O164 C166 1.273 . S
C165 O161 1.246 . S
C165 O162 1.259 1_554 S
C166 O163 1.252 . S
C166 O164 1.273 . S
O167 Mg154 2.010 . S
O167 C159 1.249 . S
Mg168 O169 2.028 . S
Mg168 O175 1.986 . S
Mg168 O177 2.114 . S
Mg168 O178 2.251 . S
Mg168 O181 2.010 . S
O169 Mg168 2.028 . S
O169 C172 1.250 . S
O170 Mg171 2.028 . S
O170 C172 1.248 . S
Mg171 O170 2.028 . S
Mg171 O176 2.032 . S
Mg171 O178 2.079 . S
C172 O169 1.250 . S
C172 O170 1.248 . S
C173 O174 1.264 . S
C173 O181 1.249 1_556 S
O174 C173 1.264 . S
O175 Mg168 1.986 . S
O175 C179 1.246 . S
O176 Mg171 2.032 . S
O176 C179 1.259 . S
O177 Mg168 2.114 . S
O177 C180 1.252 . S
O178 Mg168 2.251 . S
O178 Mg171 2.079 . S
O178 C180 1.273 . S
C179 O175 1.246 . S
C179 O176 1.259 . S
C180 O177 1.252 . S
C180 O178 1.273 . S
O181 Mg168 2.010 . S
O181 C173 1.249 1_554 S
Mg182 O183 2.028 . S
Mg182 O189 1.986 . S
Mg182 O191 2.114 . S
Mg182 O192 2.251 . S
Mg182 O195 2.010 . S
O183 Mg182 2.028 . S
O183 C186 1.250 1_556 S
O184 Mg185 2.028 . S
O184 C186 1.248 . S
Mg185 O184 2.028 . S
Mg185 O190 2.032 . S
Mg185 O192 2.079 1_554 S
C186 O183 1.250 1_554 S
C186 O184 1.248 . S
C187 O188 1.264 . S
C187 O195 1.249 . S
O188 C187 1.264 . S
O189 Mg182 1.986 . S
O189 C193 1.246 . S
O190 Mg185 2.032 . S
O190 C193 1.259 1_554 S
O191 Mg182 2.114 . S
O191 C194 1.252 . S
O192 Mg182 2.251 . S
O192 Mg185 2.079 1_556 S
O192 C194 1.273 . S
C193 O189 1.246 . S
C193 O190 1.259 1_556 S
C194 O191 1.252 . S
C194 O192 1.273 . S
O195 Mg182 2.010 . S
O195 C187 1.249 . S
Mg196 O197 2.028 . S
Mg196 O203 1.986 . S
Mg196 O205 2.114 . S
Mg196 O206 2.251 . S
Mg196 O209 2.010 . S
O197 Mg196 2.028 . S
O197 C200 1.250 . S
O198 Mg199 2.028 . S
O198 C200 1.248 . S
Mg199 O198 2.028 . S
Mg199 O204 2.032 . S
Mg199 O206 2.079 . S
C200 O197 1.250 . S
C200 O198 1.248 . S
C201 O202 1.264 . S
C201 O209 1.249 . S
O202 C201 1.264 . S
O203 Mg196 1.986 . S
O203 C207 1.246 . S
O204 Mg199 2.032 . S
O204 C207 1.259 . S
O205 Mg196 2.114 . S
O205 C208 1.252 . S
O206 Mg196 2.251 . S
O206 Mg199 2.079 . S
O206 C208 1.273 . S
C207 O203 1.246 . S
C207 O204 1.259 . S
C208 O205 1.252 . S
C208 O206 1.273 . S
O209 Mg196 2.010 . S
O209 C201 1.249 . S
Mg210 O211 2.028 . S
Mg210 O217 1.986 . S
Mg210 O219 2.114 . S
Mg210 O220 2.251 . S
Mg210 O223 2.010 . S
O211 Mg210 2.028 . S
O211 C214 1.250 . S
O212 Mg213 2.028 . S
O212 C214 1.248 . S
Mg213 O212 2.028 . S
Mg213 O218 2.032 . S
Mg213 O220 2.079 . S
C214 O211 1.250 . S
C214 O212 1.248 . S
C215 O216 1.264 . S
C215 O223 1.249 . S
O216 C215 1.264 . S
O217 Mg210 1.986 . S
O217 C221 1.246 . S
O218 Mg213 2.032 . S
O218 C221 1.259 . S
O219 Mg210 2.114 . S
O219 C222 1.252 . S
O220 Mg210 2.251 . S
O220 Mg213 2.079 . S
O220 C222 1.273 . S
C221 O217 1.246 . S
C221 O218 1.259 . S
C222 O219 1.252 . S
C222 O220 1.273 . S
O223 Mg210 2.010 . S
O223 C215 1.249 . S
Mg224 O225 2.028 . S
Mg224 O231 1.986 . S
Mg224 O233 2.114 . S
Mg224 O234 2.251 . S
Mg224 O237 2.010 . S
O225 Mg224 2.028 . S
O225 C228 1.250 . S
O226 Mg227 2.028 . S
O226 C228 1.248 . S
Mg227 O226 2.028 . S
Mg227 O232 2.032 . S
Mg227 O234 2.079 . S
C228 O225 1.250 . S
C228 O226 1.248 . S
C229 O230 1.264 . S
C229 O237 1.249 . S
O230 C229 1.264 . S
O231 Mg224 1.986 . S
O231 C235 1.246 . S
O232 Mg227 2.032 . S
O232 C235 1.259 . S
O233 Mg224 2.114 . S
O233 C236 1.252 . S
O234 Mg224 2.251 . S
O234 Mg227 2.079 . S
O234 C236 1.273 . S
C235 O231 1.246 . S
C235 O232 1.259 . S
C236 O233 1.252 . S
C236 O234 1.273 . S
O237 Mg224 2.010 . S
O237 C229 1.249 . S
Mg238 O239 2.028 . S
Mg238 O245 1.986 . S
Mg238 O247 2.114 . S
Mg238 O248 2.251 . S
Mg238 O251 2.010 . S
O239 Mg238 2.028 . S
O239 C242 1.250 1_556 S
O240 Mg241 2.028 . S
O240 C242 1.248 . S
Mg241 O240 2.028 . S
Mg241 O246 2.032 . S
Mg241 O248 2.079 1_554 S
C242 O239 1.250 1_554 S
C242 O240 1.248 . S
C243 O244 1.264 . S
C243 O251 1.249 . S
O244 C243 1.264 . S
O245 Mg238 1.986 . S
O245 C249 1.246 . S
O246 Mg241 2.032 . S
O246 C249 1.259 1_554 S
O247 Mg238 2.114 . S
O247 C250 1.252 . S
O248 Mg238 2.251 . S
O248 Mg241 2.079 1_556 S
O248 C250 1.273 . S
C249 O245 1.246 . S
C249 O246 1.259 1_556 S
C250 O247 1.252 . S
C250 O248 1.273 . S
O251 Mg238 2.010 . S
O251 C243 1.249 . S
Mg252 O253 2.028 . S
Mg252 O259 1.986 . S
Mg252 O261 2.114 . S
Mg252 O262 2.251 . S
Mg252 O265 2.010 . S
O253 Mg252 2.028 . S
O253 C256 1.250 . S
O254 Mg255 2.028 . S
O254 C256 1.248 . S
Mg255 O254 2.028 . S
Mg255 O260 2.032 . S
Mg255 O262 2.079 . S
C256 O253 1.250 . S
C256 O254 1.248 . S
C257 O258 1.264 . S
C257 O265 1.249 1_556 S
O258 C257 1.264 . S
O259 Mg252 1.986 . S
O259 C263 1.246 . S
O260 Mg255 2.032 . S
O260 C263 1.259 . S
O261 Mg252 2.114 . S
O261 C264 1.252 . S
O262 Mg252 2.251 . S
O262 Mg255 2.079 . S
O262 C264 1.273 . S
C263 O259 1.246 . S
C263 O260 1.259 . S
C264 O261 1.252 . S
C264 O262 1.273 . S
O265 Mg252 2.010 . S
O265 C257 1.249 1_554 S
Mg266 O267 2.028 . S
Mg266 O273 1.986 . S
Mg266 O275 2.114 . S
Mg266 O276 2.251 . S
Mg266 O279 2.010 . S
O267 Mg266 2.028 . S
O267 C270 1.250 . S
O268 Mg269 2.028 . S
O268 C270 1.248 . S
Mg269 O268 2.028 . S
Mg269 O274 2.032 . S
Mg269 O276 2.079 . S
C270 O267 1.250 . S
C270 O268 1.248 . S
C271 O272 1.264 . S
C271 O279 1.249 . S
O272 C271 1.264 . S
O273 Mg266 1.986 . S
O273 C277 1.246 . S
O274 Mg269 2.032 . S
O274 C277 1.259 . S
O275 Mg266 2.114 . S
O275 C278 1.252 . S
O276 Mg266 2.251 . S
O276 Mg269 2.079 . S
O276 C278 1.273 . S
C277 O273 1.246 . S
C277 O274 1.259 . S
C278 O275 1.252 . S
C278 O276 1.273 . S
O279 Mg266 2.010 . S
O279 C271 1.249 . S
Mg280 O281 2.028 . S
Mg280 O287 1.986 . S
Mg280 O289 2.114 . S
Mg280 O290 2.251 . S
Mg280 O293 2.010 . S
O281 Mg280 2.028 . S
O281 C284 1.250 . S
O282 Mg283 2.028 . S
O282 C284 1.248 . S
Mg283 O282 2.028 . S
Mg283 O288 2.032 . S
Mg283 O290 2.079 . S
C284 O281 1.250 . S
C284 O282 1.248 . S
C285 O286 1.264 . S
C285 O293 1.249 . S
O286 C285 1.264 . S
O287 Mg280 1.986 . S
O287 C291 1.246 . S
O288 Mg283 2.032 . S
O288 C291 1.259 . S
O289 Mg280 2.114 . S
O289 C292 1.252 . S
O290 Mg280 2.251 . S
O290 Mg283 2.079 . S
O290 C292 1.273 . S
C291 O287 1.246 . S
C291 O288 1.259 . S
C292 O289 1.252 . S
C292 O290 1.273 . S
O293 Mg280 2.010 . S
O293 C285 1.249 . S
Mg294 O295 2.028 . S
Mg294 O301 1.986 . S
Mg294 O303 2.114 . S
Mg294 O304 2.251 . S
Mg294 O307 2.010 . S
O295 Mg294 2.028 . S
O295 C298 1.250 . S
O296 Mg297 2.028 . S
O296 C298 1.248 . S
Mg297 O296 2.028 . S
Mg297 O302 2.032 . S
Mg297 O304 2.079 . S
C298 O295 1.250 . S
C298 O296 1.248 . S
C299 O300 1.264 . S
C299 O307 1.249 . S
O300 C299 1.264 . S
O301 Mg294 1.986 . S
O301 C305 1.246 . S
O302 Mg297 2.032 . S
O302 C305 1.259 . S
O303 Mg294 2.114 . S
O303 C306 1.252 . S
O304 Mg294 2.251 . S
O304 Mg297 2.079 . S
O304 C306 1.273 . S
C305 O301 1.246 . S
C305 O302 1.259 . S
C306 O303 1.252 . S
C306 O304 1.273 . S
O307 Mg294 2.010 . S
O307 C299 1.249 . S
Mg308 O309 2.028 . S
Mg308 O315 1.986 . S
Mg308 O317 2.114 . S
Mg308 O318 2.251 . S
Mg308 O321 2.010 . S
O309 Mg308 2.028 . S
O309 C312 1.250 . S
O310 Mg311 2.028 . S
O310 C312 1.248 . S
Mg311 O310 2.028 . S
Mg311 O316 2.032 . S
Mg311 O318 2.079 . S
C312 O309 1.250 . S
C312 O310 1.248 . S
C313 O314 1.264 . S
C313 O321 1.249 1_554 S
O314 C313 1.264 . S
O315 Mg308 1.986 . S
O315 C319 1.246 . S
O316 Mg311 2.032 . S
O316 C319 1.259 . S
O317 Mg308 2.114 . S
O317 C320 1.252 . S
O318 Mg308 2.251 . S
O318 Mg311 2.079 . S
O318 C320 1.273 . S
C319 O315 1.246 . S
C319 O316 1.259 . S
C320 O317 1.252 . S
C320 O318 1.273 . S
O321 Mg308 2.010 . S
O321 C313 1.249 1_556 S
Mg322 O323 2.028 . S
Mg322 O329 1.986 . S
Mg322 O331 2.114 . S
Mg322 O332 2.251 . S
Mg322 O335 2.010 . S
O323 Mg322 2.028 . S
O323 C326 1.250 1_554 S
O324 Mg325 2.028 . S
O324 C326 1.248 . S
Mg325 O324 2.028 . S
Mg325 O330 2.032 . S
Mg325 O332 2.079 1_556 S
C326 O323 1.250 1_556 S
C326 O324 1.248 . S
C327 O328 1.264 . S
C327 O335 1.249 . S
O328 C327 1.264 . S
O329 Mg322 1.986 . S
O329 C333 1.246 . S
O330 Mg325 2.032 . S
O330 C333 1.259 1_556 S
O331 Mg322 2.114 . S
O331 C334 1.252 . S
O332 Mg322 2.251 . S
O332 Mg325 2.079 1_554 S
O332 C334 1.273 . S
C333 O329 1.246 . S
C333 O330 1.259 1_554 S
C334 O331 1.252 . S
C334 O332 1.273 . S
O335 Mg322 2.010 . S
O335 C327 1.249 . S
Mg336 O337 2.028 . S
Mg336 O343 1.986 . S
Mg336 O345 2.114 . S
Mg336 O346 2.251 . S
Mg336 O349 2.010 . S
O337 Mg336 2.028 . S
O337 C340 1.250 . S
O338 Mg339 2.028 . S
O338 C340 1.248 . S
Mg339 O338 2.028 . S
Mg339 O344 2.032 . S
Mg339 O346 2.079 . S
C340 O337 1.250 . S
C340 O338 1.248 . S
C341 O342 1.264 . S
C341 O349 1.249 . S
O342 C341 1.264 . S
O343 Mg336 1.986 . S
O343 C347 1.246 . S
O344 Mg339 2.032 . S
O344 C347 1.259 . S
O345 Mg336 2.114 . S
O345 C348 1.252 . S
O346 Mg336 2.251 . S
O346 Mg339 2.079 . S
O346 C348 1.273 . S
C347 O343 1.246 . S
C347 O344 1.259 . S
C348 O345 1.252 . S
C348 O346 1.273 . S
O349 Mg336 2.010 . S
O349 C341 1.249 . S
Mg350 O351 2.028 . S
Mg350 O357 1.986 . S
Mg350 O359 2.114 . S
Mg350 O360 2.251 . S
Mg350 O363 2.010 . S
O351 Mg350 2.028 . S
O351 C354 1.250 1_554 S
O352 Mg353 2.028 . S
O352 C354 1.248 . S
Mg353 O352 2.028 . S
Mg353 O358 2.032 . S
Mg353 O360 2.079 1_556 S
C354 O351 1.250 1_556 S
C354 O352 1.248 . S
C355 O356 1.264 . S
C355 O363 1.249 . S
O356 C355 1.264 . S
O357 Mg350 1.986 . S
O357 C361 1.246 . S
O358 Mg353 2.032 . S
O358 C361 1.259 1_556 S
O359 Mg350 2.114 . S
O359 C362 1.252 . S
O360 Mg350 2.251 . S
O360 Mg353 2.079 1_554 S
O360 C362 1.273 . S
C361 O357 1.246 . S
C361 O358 1.259 1_554 S
C362 O359 1.252 . S
C362 O360 1.273 . S
O363 Mg350 2.010 . S
O363 C355 1.249 . S
Mg364 O365 2.028 . S
Mg364 O371 1.986 . S
Mg364 O373 2.114 . S
Mg364 O374 2.251 . S
Mg364 O377 2.010 . S
O365 Mg364 2.028 . S
O365 C368 1.250 . S
O366 Mg367 2.028 . S
O366 C368 1.248 . S
Mg367 O366 2.028 . S
Mg367 O372 2.032 . S
Mg367 O374 2.079 . S
C368 O365 1.250 . S
C368 O366 1.248 . S
C369 O370 1.264 . S
C369 O377 1.249 1_554 S
O370 C369 1.264 . S
O371 Mg364 1.986 . S
O371 C375 1.246 . S
O372 Mg367 2.032 . S
O372 C375 1.259 . S
O373 Mg364 2.114 . S
O373 C376 1.252 . S
O374 Mg364 2.251 . S
O374 Mg367 2.079 . S
O374 C376 1.273 . S
C375 O371 1.246 . S
C375 O372 1.259 . S
C376 O373 1.252 . S
C376 O374 1.273 . S
O377 Mg364 2.010 . S
O377 C369 1.249 1_556 S
Mg378 O379 2.028 . S
Mg378 O385 1.986 . S
Mg378 O387 2.114 . S
Mg378 O388 2.251 . S
Mg378 O391 2.010 . S
O379 Mg378 2.028 . S
O379 C382 1.250 . S
O380 Mg381 2.028 . S
O380 C382 1.248 . S
Mg381 O380 2.028 . S
Mg381 O386 2.032 . S
Mg381 O388 2.079 . S
C382 O379 1.250 . S
C382 O380 1.248 . S
C383 O384 1.264 . S
C383 O391 1.249 . S
O384 C383 1.264 . S
O385 Mg378 1.986 . S
O385 C389 1.246 . S
O386 Mg381 2.032 . S
O386 C389 1.259 . S
O387 Mg378 2.114 . S
O387 C390 1.252 . S
O388 Mg378 2.251 . S
O388 Mg381 2.079 . S
O388 C390 1.273 . S
C389 O385 1.246 . S
C389 O386 1.259 . S
C390 O387 1.252 . S
C390 O388 1.273 . S
O391 Mg378 2.010 . S
O391 C383 1.249 . S
Mg392 O393 2.028 . S
Mg392 O399 1.986 . S
Mg392 O401 2.114 . S
Mg392 O402 2.251 . S
Mg392 O405 2.010 . S
O393 Mg392 2.028 . S
O393 C396 1.250 . S
O394 Mg395 2.028 . S
O394 C396 1.248 . S
Mg395 O394 2.028 . S
Mg395 O400 2.032 . S
Mg395 O402 2.079 . S
C396 O393 1.250 . S
C396 O394 1.248 . S
C397 O398 1.264 . S
C397 O405 1.249 . S
O398 C397 1.264 . S
O399 Mg392 1.986 . S
O399 C403 1.246 . S
O400 Mg395 2.032 . S
O400 C403 1.259 . S
O401 Mg392 2.114 . S
O401 C404 1.252 . S
O402 Mg392 2.251 . S
O402 Mg395 2.079 . S
O402 C404 1.273 . S
C403 O399 1.246 . S
C403 O400 1.259 . S
C404 O401 1.252 . S
C404 O402 1.273 . S
O405 Mg392 2.010 . S
O405 C397 1.249 . S
Mg406 O407 2.028 . S
Mg406 O413 1.986 . S
Mg406 O415 2.114 . S
Mg406 O416 2.251 . S
Mg406 O419 2.010 . S
O407 Mg406 2.028 . S
O407 C410 1.250 . S
O408 Mg409 2.028 . S
O408 C410 1.248 . S
Mg409 O408 2.028 . S
Mg409 O414 2.032 . S
Mg409 O416 2.079 . S
C410 O407 1.250 . S
C410 O408 1.248 . S
C411 O412 1.264 . S
C411 O419 1.249 . S
O412 C411 1.264 . S
O413 Mg406 1.986 . S
O413 C417 1.246 . S
O414 Mg409 2.032 . S
O414 C417 1.259 . S
O415 Mg406 2.114 . S
O415 C418 1.252 . S
O416 Mg406 2.251 . S
O416 Mg409 2.079 . S
O416 C418 1.273 . S
C417 O413 1.246 . S
C417 O414 1.259 . S
C418 O415 1.252 . S
C418 O416 1.273 . S
O419 Mg406 2.010 . S
O419 C411 1.249 . S
Mg420 O421 2.028 . S
Mg420 O427 1.986 . S
Mg420 O429 2.114 . S
Mg420 O430 2.251 . S
Mg420 O433 2.010 . S
O421 Mg420 2.028 . S
O421 C424 1.250 . S
O422 Mg423 2.028 . S
O422 C424 1.248 . S
Mg423 O422 2.028 . S
Mg423 O428 2.032 . S
Mg423 O430 2.079 . S
C424 O421 1.250 . S
C424 O422 1.248 . S
C425 O426 1.264 . S
C425 O433 1.249 1_556 S
O426 C425 1.264 . S
O427 Mg420 1.986 . S
O427 C431 1.246 . S
O428 Mg423 2.032 . S
O428 C431 1.259 . S
O429 Mg420 2.114 . S
O429 C432 1.252 . S
O430 Mg420 2.251 . S
O430 Mg423 2.079 . S
O430 C432 1.273 . S
C431 O427 1.246 . S
C431 O428 1.259 . S
C432 O429 1.252 . S
C432 O430 1.273 . S
O433 Mg420 2.010 . S
O433 C425 1.249 1_554 S
Mg434 O435 2.028 . S
Mg434 O441 1.986 . S
Mg434 O443 2.114 . S
Mg434 O444 2.251 . S
Mg434 O447 2.010 . S
O435 Mg434 2.028 . S
O435 C438 1.250 1_556 S
O436 Mg437 2.028 . S
O436 C438 1.248 . S
Mg437 O436 2.028 . S
Mg437 O442 2.032 . S
Mg437 O444 2.079 1_554 S
C438 O435 1.250 1_554 S
C438 O436 1.248 . S
C439 O440 1.264 . S
C439 O447 1.249 . S
O440 C439 1.264 . S
O441 Mg434 1.986 . S
O441 C445 1.246 . S
O442 Mg437 2.032 . S
O442 C445 1.259 1_554 S
O443 Mg434 2.114 . S
O443 C446 1.252 . S
O444 Mg434 2.251 . S
O444 Mg437 2.079 1_556 S
O444 C446 1.273 . S
C445 O441 1.246 . S
C445 O442 1.259 1_556 S
C446 O443 1.252 . S
C446 O444 1.273 . S
O447 Mg434 2.010 . S
O447 C439 1.249 . S
C448 C449 1.363 . S
C448 C454 1.379 . S
C448 N456 1.356 . S
C449 C448 1.363 . S
C449 C455 1.363 . S
C450 C451 1.363 . S
C450 C455 1.379 . S
C450 N457 1.356 . S
C451 C450 1.363 . S
C451 C454 1.363 . S
N452 C454 1.356 . S
N452 H464 0.984 . S
N452 H465 0.985 . S
N453 C455 1.356 . S
N453 H458 0.984 . S
N453 H459 0.985 . S
C454 C448 1.379 . S
C454 C451 1.363 . S
C454 N452 1.356 . S
C455 C449 1.363 . S
C455 C450 1.379 . S
C455 N453 1.356 . S
N456 C448 1.356 . S
N456 H462 0.984 . S
N456 H463 0.984 . S
N457 C450 1.356 . S
N457 H460 0.984 . S
N457 H461 0.985 . S
H458 N453 0.984 . S
H459 N453 0.985 . S
H460 N457 0.984 . S
H461 N457 0.985 . S
H462 N456 0.984 . S
H463 N456 0.984 . S
H464 N452 0.984 . S
H465 N452 0.985 . S
C466 C467 1.363 . S
C466 C472 1.379 1_565 S
C466 N474 1.356 . S
C467 C466 1.363 . S
C467 C473 1.363 . S
C468 C469 1.363 . S
C468 C473 1.379 1_545 S
C468 N475 1.356 . S
C469 C468 1.363 . S
C469 C472 1.363 . S
N470 C472 1.356 . S
N470 H482 0.984 . S
N470 H483 0.985 . S
N471 C473 1.356 . S
N471 H476 0.984 . S
N471 H477 0.985 . S
C472 C466 1.379 1_545 S
C472 C469 1.363 . S
C472 N470 1.356 . S
C473 C467 1.363 . S
C473 C468 1.379 1_565 S
C473 N471 1.356 . S
N474 C466 1.356 . S
N474 H480 0.984 . S
N474 H481 0.984 . S
N475 C468 1.356 . S
N475 H478 0.984 . S
N475 H479 0.985 . S
H476 N471 0.984 . S
H477 N471 0.985 . S
H478 N475 0.984 . S
H479 N475 0.985 . S
H480 N474 0.984 . S
H481 N474 0.984 . S
H482 N470 0.984 . S
H483 N470 0.985 . S
C484 C485 1.363 . S
C484 C490 1.379 . S
C484 N492 1.356 . S
C485 C484 1.363 . S
C485 C491 1.363 . S
C486 C487 1.363 . S
C486 C491 1.379 . S
C486 N493 1.356 . S
C487 C486 1.363 . S
C487 C490 1.363 . S
N488 C490 1.356 . S
N488 H500 0.984 . S
N488 H501 0.985 . S
N489 C491 1.356 . S
N489 H494 0.984 . S
N489 H495 0.985 . S
C490 C484 1.379 . S
C490 C487 1.363 . S
C490 N488 1.356 . S
C491 C485 1.363 . S
C491 C486 1.379 . S
C491 N489 1.356 . S
N492 C484 1.356 . S
N492 H498 0.984 . S
N492 H499 0.984 . S
N493 C486 1.356 . S
N493 H496 0.984 . S
N493 H497 0.985 . S
H494 N489 0.984 . S
H495 N489 0.985 . S
H496 N493 0.984 . S
H497 N493 0.985 . S
H498 N492 0.984 . S
H499 N492 0.984 . S
H500 N488 0.984 . S
H501 N488 0.985 . S
C502 C503 1.363 . S
C502 C508 1.379 1_545 S
C502 N510 1.356 . S
C503 C502 1.363 . S
C503 C509 1.363 1_556 S
C504 C505 1.363 . S
C504 C509 1.379 1_565 S
C504 N511 1.356 . S
C505 C504 1.363 . S
C505 C508 1.363 1_554 S
N506 C508 1.356 . S
N506 H518 0.984 . S
N506 H519 0.987 . S
N507 C509 1.356 . S
N507 H512 0.987 . S
N507 H513 0.985 . S
C508 C502 1.379 1_565 S
C508 C505 1.363 1_556 S
C508 N506 1.356 . S
C509 C503 1.363 1_554 S
C509 C504 1.379 1_545 S
C509 N507 1.356 . S
N510 C502 1.356 . S
N510 H516 0.984 . S
N510 H517 0.984 . S
N511 C504 1.356 . S
N511 H514 0.984 . S
N511 H515 0.985 . S
H512 N507 0.987 . S
H513 N507 0.985 . S
H514 N511 0.984 . S
H515 N511 0.985 . S
H516 N510 0.984 . S
H517 N510 0.984 . S
H518 N506 0.984 . S
H519 N506 0.987 . S
C520 C521 1.363 . S
C520 C526 1.379 . S
C520 N528 1.356 . S
C521 C520 1.363 . S
C521 C527 1.363 . S
C522 C523 1.363 . S
C522 C527 1.379 . S
C522 N529 1.356 . S
C523 C522 1.363 . S
C523 C526 1.363 . S
N524 C526 1.356 . S
N524 H536 0.984 . S
N524 H537 0.985 . S
N525 C527 1.356 . S
N525 H530 0.984 . S
N525 H531 0.985 . S
C526 C520 1.379 . S
C526 C523 1.363 . S
C526 N524 1.356 . S
C527 C521 1.363 . S
C527 C522 1.379 . S
C527 N525 1.356 . S
N528 C520 1.356 . S
N528 H534 0.984 . S
N528 H535 0.984 . S
N529 C522 1.356 . S
N529 H532 0.984 . S
N529 H533 0.985 . S
H530 N525 0.984 . S
H531 N525 0.985 . S
H532 N529 0.984 . S
H533 N529 0.985 . S
H534 N528 0.984 . S
H535 N528 0.984 . S
H536 N524 0.984 . S
H537 N524 0.985 . S
C538 C539 1.363 . S
C538 C544 1.379 1_565 S
C538 N546 1.356 . S
C539 C538 1.363 . S
C539 C545 1.363 . S
C540 C541 1.363 . S
C540 C545 1.379 1_545 S
C540 N547 1.356 . S
C541 C540 1.363 . S
C541 C544 1.363 . S
N542 C544 1.356 . S
N542 H554 0.984 . S
N542 H555 0.985 . S
N543 C545 1.356 . S
N543 H548 0.984 . S
N543 H549 0.985 . S
C544 C538 1.379 1_545 S
C544 C541 1.363 . S
C544 N542 1.356 . S
C545 C539 1.363 . S
C545 C540 1.379 1_565 S
C545 N543 1.356 . S
N546 C538 1.356 . S
N546 H552 0.984 . S
N546 H553 0.984 . S
N547 C540 1.356 . S
N547 H550 0.984 . S
N547 H551 0.985 . S
H548 N543 0.984 . S
H549 N543 0.985 . S
H550 N547 0.984 . S
H551 N547 0.985 . S
H552 N546 0.984 . S
H553 N546 0.984 . S
H554 N542 0.984 . S
H555 N542 0.985 . S
C556 C557 1.363 . S
C556 C562 1.379 . S
C556 N564 1.356 . S
C557 C556 1.363 . S
C557 C563 1.363 . S
C558 C559 1.363 . S
C558 C563 1.379 . S
C558 N565 1.356 . S
C559 C558 1.363 . S
C559 C562 1.363 . S
N560 C562 1.356 . S
N560 H572 0.984 . S
N560 H573 0.985 . S
N561 C563 1.356 . S
N561 H566 0.984 . S
N561 H567 0.985 . S
C562 C556 1.379 . S
C562 C559 1.363 . S
C562 N560 1.356 . S
C563 C557 1.363 . S
C563 C558 1.379 . S
C563 N561 1.356 . S
N564 C556 1.356 . S
N564 H570 0.984 . S
N564 H571 0.984 . S
N565 C558 1.356 . S
N565 H568 0.984 . S
N565 H569 0.985 . S
H566 N561 0.984 . S
H567 N561 0.985 . S
H568 N565 0.984 . S
H569 N565 0.985 . S
H570 N564 0.984 . S
H571 N564 0.984 . S
H572 N560 0.984 . S
H573 N560 0.985 . S
C574 C575 1.363 . S
C574 C580 1.379 1_545 S
C574 N582 1.356 . S
C575 C574 1.363 . S
C575 C581 1.363 1_556 S
C576 C577 1.363 . S
C576 C581 1.379 1_565 S
C576 N583 1.356 . S
C577 C576 1.363 . S
C577 C580 1.363 1_554 S
N578 C580 1.356 . S
N578 H590 0.984 . S
N578 H591 0.985 . S
N579 C581 1.356 . S
N579 H584 0.984 . S
N579 H585 0.985 . S
C580 C574 1.379 1_565 S
C580 C577 1.363 1_556 S
C580 N578 1.356 . S
C581 C575 1.363 1_554 S
C581 C576 1.379 1_545 S
C581 N579 1.356 . S
N582 C574 1.356 . S
N582 H588 0.984 . S
N582 H589 0.984 . S
N583 C576 1.356 . S
N583 H586 0.984 . S
N583 H587 0.985 . S
H584 N579 0.984 . S
H585 N579 0.985 . S
H586 N583 0.984 . S
H587 N583 0.985 . S
H588 N582 0.984 . S
H589 N582 0.984 . S
H590 N578 0.984 . S
H591 N578 0.985 . S
C592 C593 1.363 . S
C592 C598 1.379 . S
C592 N600 1.356 . S
C593 C592 1.363 . S
C593 C599 1.363 . S
C594 C595 1.363 . S
C594 C599 1.379 . S
C594 N601 1.356 . S
C595 C594 1.363 . S
C595 C598 1.363 . S
N596 C598 1.356 . S
N596 H608 0.984 . S
N596 H609 0.985 . S
N597 C599 1.356 . S
N597 H602 0.984 . S
N597 H603 0.985 . S
C598 C592 1.379 . S
C598 C595 1.363 . S
C598 N596 1.356 . S
C599 C593 1.363 . S
C599 C594 1.379 . S
C599 N597 1.356 . S
N600 C592 1.356 . S
N600 H606 0.984 . S
N600 H607 0.984 . S
N601 C594 1.356 . S
N601 H604 0.984 . S
N601 H605 0.985 . S
H602 N597 0.984 . S
H603 N597 0.985 . S
H604 N601 0.984 . S
H605 N601 0.985 . S
H606 N600 0.984 . S
H607 N600 0.984 . S
H608 N596 0.984 . S
H609 N596 0.985 . S
C610 C611 1.363 1_554 S
C610 C616 1.379 . S
C610 N618 1.356 . S
C611 C610 1.363 1_556 S
C611 C617 1.363 . S
C612 C613 1.363 1_556 S
C612 C617 1.379 . S
C612 N619 1.356 . S
C613 C612 1.363 1_554 S
C613 C616 1.363 . S
N614 C616 1.356 . S
N614 H626 0.984 . S
N614 H627 0.985 . S
N615 C617 1.356 . S
N615 H620 0.984 . S
N615 H621 0.985 . S
C616 C610 1.379 . S
C616 C613 1.363 . S
C616 N614 1.356 . S
C617 C611 1.363 . S
C617 C612 1.379 . S
C617 N615 1.356 . S
N618 C610 1.356 . S
N618 H624 0.984 . S
N618 H625 0.984 . S
N619 C612 1.356 . S
N619 H622 0.984 . S
N619 H623 0.985 . S
H620 N615 0.984 . S
H621 N615 0.985 . S
H622 N619 0.984 . S
H623 N619 0.985 . S
H624 N618 0.984 . S
H625 N618 0.984 . S
H626 N614 0.984 . S
H627 N614 0.985 . S
C628 C629 1.363 . S
C628 C634 1.379 . S
C628 N636 1.356 . S
C629 C628 1.363 . S
C629 C635 1.363 . S
C630 C631 1.363 . S
C630 C635 1.379 . S
C630 N637 1.356 . S
C631 C630 1.363 . S
C631 C634 1.363 . S
N632 C634 1.356 . S
N632 H644 0.984 . S
N632 H645 0.985 . S
N633 C635 1.356 . S
N633 H638 0.984 . S
N633 H639 0.985 . S
C634 C628 1.379 . S
C634 C631 1.363 . S
C634 N632 1.356 . S
C635 C629 1.363 . S
C635 C630 1.379 . S
C635 N633 1.356 . S
N636 C628 1.356 . S
N636 H642 0.984 . S
N636 H643 0.984 . S
N637 C630 1.356 . S
N637 H640 0.984 . S
N637 H641 0.985 . S
H638 N633 0.984 . S
H639 N633 0.985 . S
H640 N637 0.984 . S
H641 N637 0.985 . S
H642 N636 0.984 . S
H643 N636 0.984 . S
H644 N632 0.984 . S
H645 N632 0.985 . S
C646 C647 1.363 . S
C646 C652 1.379 . S
C646 N654 1.356 . S
C647 C646 1.363 . S
C647 C653 1.363 . S
C648 C649 1.363 . S
C648 C653 1.379 . S
C648 N655 1.356 . S
C649 C648 1.363 . S
C649 C652 1.363 . S
N650 C652 1.356 . S
N650 H662 0.984 . S
N650 H663 0.985 . S
N651 C653 1.356 . S
N651 H656 0.984 . S
N651 H657 0.985 . S
C652 C646 1.379 . S
C652 C649 1.363 . S
C652 N650 1.356 . S
C653 C647 1.363 . S
C653 C648 1.379 . S
C653 N651 1.356 . S
N654 C646 1.356 . S
N654 H660 0.984 . S
N654 H661 0.984 . S
N655 C648 1.356 . S
N655 H658 0.984 . S
N655 H659 0.985 . S
H656 N651 0.984 . S
H657 N651 0.985 . S
H658 N655 0.984 . S
H659 N655 0.985 . S
H660 N654 0.984 . S
H661 N654 0.984 . S
H662 N650 0.984 . S
H663 N650 0.985 . S
C664 C665 1.363 . S
C664 C670 1.379 . S
C664 N672 1.356 . S
C665 C664 1.363 . S
C665 C671 1.363 . S
C666 C667 1.363 . S
C666 C671 1.379 . S
C666 N673 1.356 . S
C667 C666 1.363 . S
C667 C670 1.363 . S
N668 C670 1.356 . S
N668 H680 0.984 . S
N668 H681 0.985 . S
N669 C671 1.356 . S
N669 H674 0.984 . S
N669 H675 0.985 . S
C670 C664 1.379 . S
C670 C667 1.363 . S
C670 N668 1.356 . S
C671 C665 1.363 . S
C671 C666 1.379 . S
C671 N669 1.356 . S
N672 C664 1.356 . S
N672 H678 0.984 . S
N672 H679 0.984 . S
N673 C666 1.356 . S
N673 H676 0.984 . S
N673 H677 0.985 . S
H674 N669 0.984 . S
H675 N669 0.985 . S
H676 N673 0.984 . S
H677 N673 0.985 . S
H678 N672 0.984 . S
H679 N672 0.984 . S
H680 N668 0.984 . S
H681 N668 0.985 . S
C682 C683 1.363 1_556 S
C682 C688 1.379 . S
C682 N690 1.356 . S
C683 C682 1.363 1_554 S
C683 C689 1.363 . S
C684 C685 1.363 1_554 S
C684 C689 1.379 . S
C684 N691 1.356 . S
C685 C684 1.363 1_556 S
C685 C688 1.363 . S
N686 C688 1.356 . S
N686 H698 0.984 . S
N686 H699 0.985 . S
N687 C689 1.356 . S
N687 H692 0.984 . S
N687 H693 0.985 . S
C688 C682 1.379 . S
C688 C685 1.363 . S
C688 N686 1.356 . S
C689 C683 1.363 . S
C689 C684 1.379 . S
C689 N687 1.356 . S
N690 C682 1.356 . S
N690 H696 0.984 . S
N690 H697 0.984 . S
N691 C684 1.356 . S
N691 H694 0.984 . S
N691 H695 0.985 . S
H692 N687 0.984 . S
H693 N687 0.985 . S
H694 N691 0.984 . S
H695 N691 0.985 . S
H696 N690 0.984 . S
H697 N690 0.984 . S
H698 N686 0.984 . S
H699 N686 0.985 . S
C700 C701 1.363 . S
C700 C706 1.379 . S
C700 N708 1.356 . S
C701 C700 1.363 . S
C701 C707 1.363 . S
C702 C703 1.363 . S
C702 C707 1.379 . S
C702 N709 1.356 . S
C703 C702 1.363 . S
C703 C706 1.363 . S
N704 C706 1.356 . S
N704 H716 0.984 . S
N704 H717 0.985 . S
N705 C707 1.356 . S
N705 H710 0.984 . S
N705 H711 0.985 . S
C706 C700 1.379 . S
C706 C703 1.363 . S
C706 N704 1.356 . S
C707 C701 1.363 . S
C707 C702 1.379 . S
C707 N705 1.356 . S
N708 C700 1.356 . S
N708 H714 0.984 . S
N708 H715 0.984 . S
N709 C702 1.356 . S
N709 H712 0.984 . S
N709 H713 0.985 . S
H710 N705 0.984 . S
H711 N705 0.985 . S
H712 N709 0.984 . S
H713 N709 0.985 . S
H714 N708 0.984 . S
H715 N708 0.984 . S
H716 N704 0.984 . S
H717 N704 0.985 . S
C718 C719 1.363 . S
C718 C724 1.379 . S
C718 N726 1.356 . S
C719 C718 1.363 . S
C719 C725 1.363 . S
C720 C721 1.363 . S
C720 C725 1.379 . S
C720 N727 1.356 . S
C721 C720 1.363 . S
C721 C724 1.363 . S
N722 C724 1.356 . S
N722 H734 0.984 . S
N722 H735 0.985 . S
N723 C725 1.356 . S
N723 H728 0.984 . S
N723 H729 0.985 . S
C724 C718 1.379 . S
C724 C721 1.363 . S
C724 N722 1.356 . S
C725 C719 1.363 . S
C725 C720 1.379 . S
C725 N723 1.356 . S
N726 C718 1.356 . S
N726 H732 0.984 . S
N726 H733 0.984 . S
N727 C720 1.356 . S
N727 H730 0.984 . S
N727 H731 0.985 . S
H728 N723 0.984 . S
H729 N723 0.985 . S
H730 N727 0.984 . S
H731 N727 0.985 . S
H732 N726 0.984 . S
H733 N726 0.984 . S
H734 N722 0.984 . S
H735 N722 0.985 . S
C736 C737 1.363 . S
C736 C742 1.379 . S
C736 N744 1.356 . S
C737 C736 1.363 . S
C737 C743 1.363 . S
C738 C739 1.363 . S
C738 C743 1.379 . S
C738 N745 1.356 . S
C739 C738 1.363 . S
C739 C742 1.363 . S
N740 C742 1.356 . S
N740 H752 0.984 . S
N740 H753 0.985 . S
N741 C743 1.356 1_554 S
N741 H746 0.984 . S
N741 H747 0.985 . S
C742 C736 1.379 . S
C742 C739 1.363 . S
C742 N740 1.356 . S
C743 C737 1.363 . S
C743 C738 1.379 . S
C743 N741 1.356 1_556 S
N744 C736 1.356 . S
N744 H750 0.984 . S
N744 H751 0.984 . S
N745 C738 1.356 . S
N745 H748 0.984 . S
N745 H749 0.985 . S
H746 N741 0.984 . S
H747 N741 0.985 . S
H748 N745 0.984 . S
H749 N745 0.985 . S
H750 N744 0.984 . S
H751 N744 0.984 . S
H752 N740 0.984 . S
H753 N740 0.985 . S
C754 C755 1.363 . S
C754 C760 1.379 . S
C754 N762 1.356 1_554 S
C755 C754 1.363 . S
C755 C761 1.363 . S
C756 C757 1.363 . S
C756 C761 1.379 . S
C756 N763 1.356 . S
C757 C756 1.363 . S
C757 C760 1.363 . S
N758 C760 1.356 . S
N758 H770 0.984 . S
N758 H771 0.985 . S
N759 C761 1.356 . S
N759 H764 0.984 . S
N759 H765 0.985 . S
C760 C754 1.379 . S
C760 C757 1.363 . S
C760 N758 1.356 . S
C761 C755 1.363 . S
C761 C756 1.379 . S
C761 N759 1.356 . S
N762 C754 1.356 1_556 S
N762 H768 0.984 . S
N762 H769 0.984 . S
N763 C756 1.356 . S
N763 H766 0.984 . S
N763 H767 0.985 . S
H764 N759 0.984 . S
H765 N759 0.985 . S
H766 N763 0.984 . S
H767 N763 0.985 . S
H768 N762 0.984 . S
H769 N762 0.984 . S
H770 N758 0.984 . S
H771 N758 0.985 . S
C772 C773 1.363 . S
C772 C778 1.379 . S
C772 N780 1.356 . S
C773 C772 1.363 . S
C773 C779 1.363 . S
C774 C775 1.363 . S
C774 C779 1.379 . S
C774 N781 1.356 . S
C775 C774 1.363 . S
C775 C778 1.363 . S
N776 C778 1.356 . S
N776 H788 0.984 . S
N776 H789 0.985 . S
N777 C779 1.356 . S
N777 H782 0.984 . S
N777 H783 0.985 . S
C778 C772 1.379 . S
C778 C775 1.363 . S
C778 N776 1.356 . S
C779 C773 1.363 . S
C779 C774 1.379 . S
C779 N777 1.356 . S
N780 C772 1.356 . S
N780 H786 0.984 . S
N780 H787 0.984 . S
N781 C774 1.356 . S
N781 H784 0.984 . S
N781 H785 0.985 . S
H782 N777 0.984 . S
H783 N777 0.985 . S
H784 N781 0.984 . S
H785 N781 0.985 . S
H786 N780 0.984 . S
H787 N780 0.984 . S
H788 N776 0.984 . S
H789 N776 0.985 . S
C790 C791 1.363 . S
C790 C796 1.379 . S
C790 N798 1.356 . S
C791 C790 1.363 . S
C791 C797 1.363 . S
C792 C793 1.363 . S
C792 C797 1.379 . S
C792 N799 1.356 . S
C793 C792 1.363 . S
C793 C796 1.363 . S
N794 C796 1.356 . S
N794 H806 0.984 . S
N794 H807 0.985 . S
N795 C797 1.356 . S
N795 H800 0.984 . S
N795 H801 0.985 . S
C796 C790 1.379 . S
C796 C793 1.363 . S
C796 N794 1.356 . S
C797 C791 1.363 . S
C797 C792 1.379 . S
C797 N795 1.356 . S
N798 C790 1.356 . S
N798 H804 0.984 . S
N798 H805 0.984 . S
N799 C792 1.356 . S
N799 H802 0.984 . S
N799 H803 0.985 . S
H800 N795 0.984 . S
H801 N795 0.985 . S
H802 N799 0.984 . S
H803 N799 0.985 . S
H804 N798 0.984 . S
H805 N798 0.984 . S
H806 N794 0.984 . S
H807 N794 0.985 . S
C808 C809 1.363 . S
C808 C814 1.379 . S
C808 N816 1.356 . S
C809 C808 1.363 . S
C809 C815 1.363 . S
C810 C811 1.363 . S
C810 C815 1.379 . S
C810 N817 1.356 . S
C811 C810 1.363 . S
C811 C814 1.363 . S
N812 C814 1.356 . S
N812 H824 0.984 . S
N812 H825 0.985 . S
N813 C815 1.356 . S
N813 H818 0.984 . S
N813 H819 0.985 . S
C814 C808 1.379 . S
C814 C811 1.363 . S
C814 N812 1.356 . S
C815 C809 1.363 . S
C815 C810 1.379 . S
C815 N813 1.356 . S
N816 C808 1.356 . S
N816 H822 0.984 . S
N816 H823 0.984 1_554 S
N817 C810 1.356 . S
N817 H820 0.984 . S
N817 H821 0.985 . S
H818 N813 0.984 . S
H819 N813 0.985 . S
H820 N817 0.984 . S
H821 N817 0.985 . S
H822 N816 0.984 . S
H823 N816 0.984 1_556 S
H824 N812 0.984 . S
H825 N812 0.985 . S
C826 C827 1.363 . S
C826 C832 1.379 . S
C826 N834 1.356 1_556 S
C827 C826 1.363 . S
C827 C833 1.363 . S
C828 C829 1.363 . S
C828 C833 1.379 . S
C828 N835 1.356 . S
C829 C828 1.363 . S
C829 C832 1.363 . S
N830 C832 1.356 . S
N830 H842 0.984 . S
N830 H843 0.985 . S
N831 C833 1.356 . S
N831 H836 0.984 . S
N831 H837 0.985 . S
C832 C826 1.379 . S
C832 C829 1.363 . S
C832 N830 1.356 . S
C833 C827 1.363 . S
C833 C828 1.379 . S
C833 N831 1.356 . S
N834 C826 1.356 1_554 S
N834 H840 0.984 . S
N834 H841 0.984 . S
N835 C828 1.356 . S
N835 H838 0.984 . S
N835 H839 0.985 . S
H836 N831 0.984 . S
H837 N831 0.985 . S
H838 N835 0.984 . S
H839 N835 0.985 . S
H840 N834 0.984 . S
H841 N834 0.984 . S
H842 N830 0.984 . S
H843 N830 0.985 . S
C844 C845 1.363 . S
C844 C850 1.379 . S
C844 N852 1.356 . S
C845 C844 1.363 . S
C845 C851 1.363 . S
C846 C847 1.363 . S
C846 C851 1.379 . S
C846 N853 1.356 . S
C847 C846 1.363 . S
C847 C850 1.363 . S
N848 C850 1.356 . S
N848 H860 0.984 . S
N848 H861 0.985 . S
N849 C851 1.356 . S
N849 H854 0.984 . S
N849 H855 0.985 . S
C850 C844 1.379 . S
C850 C847 1.363 . S
C850 N848 1.356 . S
C851 C845 1.363 . S
C851 C846 1.379 . S
C851 N849 1.356 . S
N852 C844 1.356 . S
N852 H858 0.984 . S
N852 H859 0.984 . S
N853 C846 1.356 . S
N853 H856 0.984 . S
N853 H857 0.985 . S
H854 N849 0.984 . S
H855 N849 0.985 . S
H856 N853 0.984 . S
H857 N853 0.985 . S
H858 N852 0.984 . S
H859 N852 0.984 . S
H860 N848 0.984 . S
H861 N848 0.985 . S
C862 C863 1.363 . S
C862 C868 1.379 . S
C862 N870 1.356 . S
C863 C862 1.363 . S
C863 C869 1.363 . S
C864 C865 1.363 . S
C864 C869 1.379 . S
C864 N871 1.356 . S
C865 C864 1.363 . S
C865 C868 1.363 . S
N866 C868 1.356 . S
N866 H878 0.984 . S
N866 H879 0.985 . S
N867 C869 1.356 . S
N867 H872 0.984 . S
N867 H873 0.985 . S
C868 C862 1.379 . S
C868 C865 1.363 . S
C868 N866 1.356 . S
C869 C863 1.363 . S
C869 C864 1.379 . S
C869 N867 1.356 . S
N870 C862 1.356 . S
N870 H876 0.984 . S
N870 H877 0.984 . S
N871 C864 1.356 . S
N871 H874 0.984 . S
N871 H875 0.985 . S
H872 N867 0.984 . S
H873 N867 0.985 . S
H874 N871 0.984 . S
H875 N871 0.985 . S
H876 N870 0.984 . S
H877 N870 0.984 . S
H878 N866 0.984 . S
H879 N866 0.985 . S
C880 C881 1.363 . S
C880 C886 1.379 . S
C880 N888 1.356 . S
C881 C880 1.363 . S
C881 C887 1.363 . S
C882 C883 1.363 . S
C882 C887 1.379 . S
C882 N889 1.356 . S
C883 C882 1.363 . S
C883 C886 1.363 . S
N884 C886 1.356 . S
N884 H896 0.984 . S
N884 H897 0.985 . S
N885 C887 1.356 . S
N885 H890 0.984 . S
N885 H891 0.985 . S
C886 C880 1.379 . S
C886 C883 1.363 . S
C886 N884 1.356 . S
C887 C881 1.363 . S
C887 C882 1.379 . S
C887 N885 1.356 . S
N888 C880 1.356 . S
N888 H894 0.984 . S
N888 H895 0.984 . S
N889 C882 1.356 . S
N889 H892 0.984 . S
N889 H893 0.985 . S
H890 N885 0.984 . S
H891 N885 0.985 . S
H892 N889 0.984 . S
H893 N889 0.985 . S
H894 N888 0.984 . S
H895 N888 0.984 . S
H896 N884 0.984 . S
H897 N884 0.985 . S
C898 C899 1.363 . S
C898 C904 1.379 . S
C898 N906 1.356 . S
C899 C898 1.363 . S
C899 C905 1.363 . S
C900 C901 1.363 . S
C900 C905 1.379 . S
C900 N907 1.356 . S
C901 C900 1.363 . S
C901 C904 1.363 . S
N902 C904 1.356 . S
N902 H914 0.984 . S
N902 H915 0.985 . S
N903 C905 1.356 . S
N903 H908 0.984 . S
N903 H909 0.985 . S
C904 C898 1.379 . S
C904 C901 1.363 . S
C904 N902 1.356 . S
C905 C899 1.363 . S
C905 C900 1.379 . S
C905 N903 1.356 . S
N906 C898 1.356 . S
N906 H912 0.984 . S
N906 H913 0.984 . S
N907 C900 1.356 . S
N907 H910 0.984 . S
N907 H911 0.985 . S
H908 N903 0.984 . S
H909 N903 0.985 . S
H910 N907 0.984 . S
H911 N907 0.985 . S
H912 N906 0.984 . S
H913 N906 0.984 . S
H914 N902 0.984 . S
H915 N902 0.985 . S
C916 C917 1.363 . S
C916 C922 1.379 . S
C916 N924 1.356 . S
C917 C916 1.363 . S
C917 C923 1.363 . S
C918 C919 1.363 . S
C918 C923 1.379 . S
C918 N925 1.356 1_556 S
C919 C918 1.363 . S
C919 C922 1.363 . S
N920 C922 1.356 . S
N920 H932 0.984 . S
N920 H933 0.985 . S
N921 C923 1.356 . S
N921 H926 0.984 . S
N921 H927 0.985 . S
C922 C916 1.379 . S
C922 C919 1.363 . S
C922 N920 1.356 . S
C923 C917 1.363 . S
C923 C918 1.379 . S
C923 N921 1.356 . S
N924 C916 1.356 . S
N924 H930 0.984 . S
N924 H931 0.984 . S
N925 C918 1.356 1_554 S
N925 H928 0.984 . S
N925 H929 0.985 . S
H926 N921 0.984 . S
H927 N921 0.985 . S
H928 N925 0.984 . S
H929 N925 0.985 . S
H930 N924 0.984 . S
H931 N924 0.984 . S
H932 N920 0.984 . S
H933 N920 0.985 . S
C934 C935 1.363 . S
C934 C940 1.379 . S
C934 N942 1.356 . S
C935 C934 1.363 . S
C935 C941 1.363 . S
C936 C937 1.363 . S
C936 C941 1.379 . S
C936 N943 1.356 1_554 S
C937 C936 1.363 . S
C937 C940 1.363 . S
N938 C940 1.356 . S
N938 H950 0.984 . S
N938 H951 0.985 . S
N939 C941 1.356 . S
N939 H944 0.984 . S
N939 H945 0.985 . S
C940 C934 1.379 . S
C940 C937 1.363 . S
C940 N938 1.356 . S
C941 C935 1.363 . S
C941 C936 1.379 . S
C941 N939 1.356 . S
N942 C934 1.356 . S
N942 H948 0.984 . S
N942 H949 0.984 . S
N943 C936 1.356 1_556 S
N943 H946 0.984 . S
N943 H947 0.985 . S
H944 N939 0.984 . S
H945 N939 0.985 . S
H946 N943 0.984 . S
H947 N943 0.985 . S
H948 N942 0.984 . S
H949 N942 0.984 . S
H950 N938 0.984 . S
H951 N938 0.985 . S
C952 C953 1.363 . S
C952 C958 1.379 . S
C952 N960 1.356 . S
C953 C952 1.363 . S
C953 C959 1.363 . S
C954 C955 1.363 . S
C954 C959 1.379 . S
C954 N961 1.356 . S
C955 C954 1.363 . S
C955 C958 1.363 . S
N956 C958 1.356 . S
N956 H968 0.984 . S
N956 H969 0.985 . S
N957 C959 1.356 . S
N957 H962 0.984 . S
N957 H963 0.985 . S
C958 C952 1.379 . S
C958 C955 1.363 . S
C958 N956 1.356 . S
C959 C953 1.363 . S
C959 C954 1.379 . S
C959 N957 1.356 . S
N960 C952 1.356 . S
N960 H966 0.984 . S
N960 H967 0.984 . S
N961 C954 1.356 . S
N961 H964 0.984 . S
N961 H965 0.985 . S
H962 N957 0.984 . S
H963 N957 0.985 . S
H964 N961 0.984 . S
H965 N961 0.985 . S
H966 N960 0.984 . S
H967 N960 0.984 . S
H968 N956 0.984 . S
H969 N956 0.985 . S
C970 C971 1.363 . S
C970 C976 1.379 . S
C970 N978 1.356 . S
C971 C970 1.363 . S
C971 C977 1.363 . S
C972 C973 1.363 . S
C972 C977 1.379 . S
C972 N979 1.356 . S
C973 C972 1.363 . S
C973 C976 1.363 . S
N974 C976 1.356 . S
N974 H986 0.984 . S
N974 H987 0.985 . S
N975 C977 1.356 . S
N975 H980 0.984 . S
N975 H981 0.985 . S
C976 C970 1.379 . S
C976 C973 1.363 . S
C976 N974 1.356 . S
C977 C971 1.363 . S
C977 C972 1.379 . S
C977 N975 1.356 . S
N978 C970 1.356 . S
N978 H984 0.984 . S
N978 H985 0.984 . S
N979 C972 1.356 . S
N979 H982 0.984 . S
N979 H983 0.985 . S
H980 N975 0.984 . S
H981 N975 0.985 . S
H982 N979 0.984 . S
H983 N979 0.985 . S
H984 N978 0.984 . S
H985 N978 0.984 . S
H986 N974 0.984 . S
H987 N974 0.985 . S
C988 C989 1.363 . S
C988 C994 1.379 . S
C988 N996 1.356 . S
C989 C988 1.363 . S
C989 C995 1.363 . S
C990 C991 1.363 . S
C990 C995 1.379 . S
C990 N997 1.356 . S
C991 C990 1.363 . S
C991 C994 1.363 . S
N992 C994 1.356 . S
N992 H1004 0.984 . S
N992 H1005 0.985 . S
N993 C995 1.356 1_556 S
N993 H998 0.984 . S
N993 H999 0.985 . S
C994 C988 1.379 . S
C994 C991 1.363 . S
C994 N992 1.356 . S
C995 C989 1.363 . S
C995 C990 1.379 . S
C995 N993 1.356 1_554 S
N996 C988 1.356 . S
N996 H1002 0.984 . S
N996 H1003 0.984 . S
N997 C990 1.356 . S
N997 H1000 0.984 . S
N997 H1001 0.985 . S
H998 N993 0.984 . S
H999 N993 0.985 . S
H1000 N997 0.984 . S
H1001 N997 0.985 . S
H1002 N996 0.984 . S
H1003 N996 0.984 . S
H1004 N992 0.984 . S
H1005 N992 0.985 . S
C1006 C1007 1.363 . S
C1006 C1012 1.379 . S
C1006 N1014 1.356 . S
C1007 C1006 1.363 . S
C1007 C1013 1.363 . S
C1008 C1009 1.363 . S
C1008 C1013 1.379 . S
C1008 N1015 1.356 . S
C1009 C1008 1.363 . S
C1009 C1012 1.363 . S
N1010 C1012 1.356 . S
N1010 H1022 0.984 . S
N1010 H1023 0.985 1_556 S
N1011 C1013 1.356 . S
N1011 H1016 0.984 . S
N1011 H1017 0.985 . S
C1012 C1006 1.379 . S
C1012 C1009 1.363 . S
C1012 N1010 1.356 . S
C1013 C1007 1.363 . S
C1013 C1008 1.379 . S
C1013 N1011 1.356 . S
N1014 C1006 1.356 . S
N1014 H1020 0.984 . S
N1014 H1021 0.984 . S
N1015 C1008 1.356 . S
N1015 H1018 0.984 1_556 S
N1015 H1019 0.985 . S
H1016 N1011 0.984 . S
H1017 N1011 0.985 . S
H1018 N1015 0.984 1_554 S
H1019 N1015 0.985 . S
H1020 N1014 0.984 . S
H1021 N1014 0.984 . S
H1022 N1010 0.984 . S
H1023 N1010 0.985 1_554 S
C1024 C1025 1.363 . S
C1024 C1030 1.379 . S
C1024 N1032 1.356 . S
C1025 C1024 1.363 . S
C1025 C1031 1.363 . S
C1026 C1027 1.363 . S
C1026 C1031 1.379 . S
C1026 N1033 1.356 . S
C1027 C1026 1.363 . S
C1027 C1030 1.363 . S
N1028 C1030 1.356 . S
N1028 H1040 0.984 . S
N1028 H1041 0.985 . S
N1029 C1031 1.356 . S
N1029 H1034 0.984 . S
N1029 H1035 0.985 . S
C1030 C1024 1.379 . S
C1030 C1027 1.363 . S
C1030 N1028 1.356 . S
C1031 C1025 1.363 . S
C1031 C1026 1.379 . S
C1031 N1029 1.356 . S
N1032 C1024 1.356 . S
N1032 H1038 0.984 . S
N1032 H1039 0.984 . S
N1033 C1026 1.356 . S
N1033 H1036 0.984 . S
N1033 H1037 0.985 . S
H1034 N1029 0.984 . S
H1035 N1029 0.985 . S
H1036 N1033 0.984 . S
H1037 N1033 0.985 . S
H1038 N1032 0.984 . S
H1039 N1032 0.984 . S
H1040 N1028 0.984 . S
H1041 N1028 0.985 . S
C1042 C1043 1.363 . S
C1042 C1048 1.379 1_655 S
C1042 N1050 1.356 . S
C1043 C1042 1.363 . S
C1043 C1049 1.363 . S
C1044 C1045 1.363 . S
C1044 C1049 1.379 1_455 S
C1044 N1051 1.356 . S
C1045 C1044 1.363 . S
C1045 C1048 1.363 . S
N1046 C1048 1.356 . S
N1046 H1058 0.984 . S
N1046 H1059 0.985 . S
N1047 C1049 1.356 . S
N1047 H1052 0.984 . S
N1047 H1053 0.985 . S
C1048 C1042 1.379 1_455 S
C1048 C1045 1.363 . S
C1048 N1046 1.356 . S
C1049 C1043 1.363 . S
C1049 C1044 1.379 1_655 S
C1049 N1047 1.356 . S
N1050 C1042 1.356 . S
N1050 H1056 0.984 . S
N1050 H1057 0.984 . S
N1051 C1044 1.356 . S
N1051 H1054 0.984 . S
N1051 H1055 0.985 . S
H1052 N1047 0.984 . S
H1053 N1047 0.985 . S
H1054 N1051 0.984 . S
H1055 N1051 0.985 . S
H1056 N1050 0.984 . S
H1057 N1050 0.984 . S
H1058 N1046 0.984 . S
H1059 N1046 0.985 . S
C1060 C1061 1.363 . S
C1060 C1066 1.379 . S
C1060 N1068 1.356 . S
C1061 C1060 1.363 . S
C1061 C1067 1.363 . S
C1062 C1063 1.363 . S
C1062 C1067 1.379 . S
C1062 N1069 1.356 . S
C1063 C1062 1.363 . S
C1063 C1066 1.363 . S
N1064 C1066 1.356 . S
N1064 H1076 0.984 . S
N1064 H1077 0.985 . S
N1065 C1067 1.356 . S
N1065 H1070 0.984 . S
N1065 H1071 0.985 . S
C1066 C1060 1.379 . S
C1066 C1063 1.363 . S
C1066 N1064 1.356 . S
C1067 C1061 1.363 . S
C1067 C1062 1.379 . S
C1067 N1065 1.356 . S
N1068 C1060 1.356 . S
N1068 H1074 0.984 . S
N1068 H1075 0.984 . S
N1069 C1062 1.356 . S
N1069 H1072 0.984 . S
N1069 H1073 0.985 . S
H1070 N1065 0.984 . S
H1071 N1065 0.985 . S
H1072 N1069 0.984 . S
H1073 N1069 0.985 . S
H1074 N1068 0.984 . S
H1075 N1068 0.984 . S
H1076 N1064 0.984 . S
H1077 N1064 0.985 . S
C1078 C1079 1.363 . S
C1078 C1084 1.379 . S
C1078 N1086 1.356 . S
C1079 C1078 1.363 . S
C1079 C1085 1.363 . S
C1080 C1081 1.363 . S
C1080 C1085 1.379 . S
C1080 N1087 1.356 1_556 S
C1081 C1080 1.363 . S
C1081 C1084 1.363 . S
N1082 C1084 1.356 . S
N1082 H1094 0.984 . S
N1082 H1095 0.985 . S
N1083 C1085 1.356 1_554 S
N1083 H1088 0.984 . S
N1083 H1089 0.985 . S
C1084 C1078 1.379 . S
C1084 C1081 1.363 . S
C1084 N1082 1.356 . S
C1085 C1079 1.363 . S
C1085 C1080 1.379 . S
C1085 N1083 1.356 1_556 S
N1086 C1078 1.356 . S
N1086 H1092 0.984 . S
N1086 H1093 0.984 . S
N1087 C1080 1.356 1_554 S
N1087 H1090 0.984 . S
N1087 H1091 0.985 . S
H1088 N1083 0.984 . S
H1089 N1083 0.985 . S
H1090 N1087 0.984 . S
H1091 N1087 0.985 . S
H1092 N1086 0.984 . S
H1093 N1086 0.984 . S
H1094 N1082 0.984 . S
H1095 N1082 0.985 . S
C1096 C1097 1.363 . S
C1096 C1102 1.379 . S
C1096 N1104 1.356 . S
C1097 C1096 1.363 . S
C1097 C1103 1.363 . S
C1098 C1099 1.363 . S
C1098 C1103 1.379 . S
C1098 N1105 1.356 . S
C1099 C1098 1.363 . S
C1099 C1102 1.363 . S
N1100 C1102 1.356 . S
N1100 H1112 0.984 . S
N1100 H1113 0.985 . S
N1101 C1103 1.356 . S
N1101 H1106 0.984 . S
N1101 H1107 0.985 . S
C1102 C1096 1.379 . S
C1102 C1099 1.363 . S
C1102 N1100 1.356 . S
C1103 C1097 1.363 . S
C1103 C1098 1.379 . S
C1103 N1101 1.356 . S
N1104 C1096 1.356 . S
N1104 H1110 0.984 . S
N1104 H1111 0.984 . S
N1105 C1098 1.356 . S
N1105 H1108 0.984 . S
N1105 H1109 0.985 . S
H1106 N1101 0.984 . S
H1107 N1101 0.985 . S
H1108 N1105 0.984 . S
H1109 N1105 0.985 . S
H1110 N1104 0.984 . S
H1111 N1104 0.984 . S
H1112 N1100 0.984 . S
H1113 N1100 0.985 . S
C1114 C1115 1.363 . S
C1114 C1120 1.379 . S
C1114 N1122 1.356 1_554 S
C1115 C1114 1.363 . S
C1115 C1121 1.363 . S
C1116 C1117 1.363 . S
C1116 C1121 1.379 . S
C1116 N1123 1.356 . S
C1117 C1116 1.363 . S
C1117 C1120 1.363 . S
N1118 C1120 1.356 1_556 S
N1118 H1130 0.984 . S
N1118 H1131 0.985 . S
N1119 C1121 1.356 . S
N1119 H1124 0.984 . S
N1119 H1125 0.985 . S
C1120 C1114 1.379 . S
C1120 C1117 1.363 . S
C1120 N1118 1.356 1_554 S
C1121 C1115 1.363 . S
C1121 C1116 1.379 . S
C1121 N1119 1.356 . S
N1122 C1114 1.356 1_556 S
N1122 H1128 0.984 . S
N1122 H1129 0.984 . S
N1123 C1116 1.356 . S
N1123 H1126 0.984 . S
N1123 H1127 0.985 . S
H1124 N1119 0.984 . S
H1125 N1119 0.985 . S
H1126 N1123 0.984 . S
H1127 N1123 0.985 . S
H1128 N1122 0.984 . S
H1129 N1122 0.984 . S
H1130 N1118 0.984 . S
H1131 N1118 0.985 . S
C1132 C1133 1.363 . S
C1132 C1138 1.379 . S
C1132 N1140 1.356 . S
C1133 C1132 1.363 . S
C1133 C1139 1.363 . S
C1134 C1135 1.363 . S
C1134 C1139 1.379 . S
C1134 N1141 1.356 . S
C1135 C1134 1.363 . S
C1135 C1138 1.363 . S
N1136 C1138 1.356 . S
N1136 H1148 0.984 . S
N1136 H1149 0.985 . S
N1137 C1139 1.356 . S
N1137 H1142 0.984 . S
N1137 H1143 0.985 . S
C1138 C1132 1.379 . S
C1138 C1135 1.363 . S
C1138 N1136 1.356 . S
C1139 C1133 1.363 . S
C1139 C1134 1.379 . S
C1139 N1137 1.356 . S
N1140 C1132 1.356 . S
N1140 H1146 0.984 . S
N1140 H1147 0.984 . S
N1141 C1134 1.356 . S
N1141 H1144 0.984 . S
N1141 H1145 0.985 . S
H1142 N1137 0.984 . S
H1143 N1137 0.985 . S
H1144 N1141 0.984 . S
H1145 N1141 0.985 . S
H1146 N1140 0.984 . S
H1147 N1140 0.984 . S
H1148 N1136 0.984 . S
H1149 N1136 0.985 . S
C1150 C1151 1.363 . S
C1150 C1156 1.379 1_655 S
C1150 N1158 1.356 . S
C1151 C1150 1.363 . S
C1151 C1157 1.363 . S
C1152 C1153 1.363 . S
C1152 C1157 1.379 1_455 S
C1152 N1159 1.356 . S
C1153 C1152 1.363 . S
C1153 C1156 1.363 . S
N1154 C1156 1.356 . S
N1154 H1166 0.984 . S
N1154 H1167 0.985 . S
N1155 C1157 1.356 . S
N1155 H1160 0.984 . S
N1155 H1161 0.985 . S
C1156 C1150 1.379 1_455 S
C1156 C1153 1.363 . S
C1156 N1154 1.356 . S
C1157 C1151 1.363 . S
C1157 C1152 1.379 1_655 S
C1157 N1155 1.356 . S
N1158 C1150 1.356 . S
N1158 H1164 0.984 . S
N1158 H1165 0.984 . S
N1159 C1152 1.356 . S
N1159 H1162 0.984 . S
N1159 H1163 0.985 . S
H1160 N1155 0.984 . S
H1161 N1155 0.985 . S
H1162 N1159 0.984 . S
H1163 N1159 0.985 . S
H1164 N1158 0.984 . S
H1165 N1158 0.984 . S
H1166 N1154 0.984 . S
H1167 N1154 0.985 . S
C1168 C1169 1.363 . S
C1168 C1174 1.379 . S
C1168 N1176 1.356 . S
C1169 C1168 1.363 . S
C1169 C1175 1.363 . S
C1170 C1171 1.363 . S
C1170 C1175 1.379 . S
C1170 N1177 1.356 . S
C1171 C1170 1.363 . S
C1171 C1174 1.363 . S
N1172 C1174 1.356 . S
N1172 H1184 0.984 . S
N1172 H1185 0.985 . S
N1173 C1175 1.356 . S
N1173 H1178 0.984 . S
N1173 H1179 0.985 . S
C1174 C1168 1.379 . S
C1174 C1171 1.363 . S
C1174 N1172 1.356 . S
C1175 C1169 1.363 . S
C1175 C1170 1.379 . S
C1175 N1173 1.356 . S
N1176 C1168 1.356 . S
N1176 H1182 0.984 . S
N1176 H1183 0.984 . S
N1177 C1170 1.356 . S
N1177 H1180 0.984 . S
N1177 H1181 0.985 . S
H1178 N1173 0.984 . S
H1179 N1173 0.985 . S
H1180 N1177 0.984 . S
H1181 N1177 0.985 . S
H1182 N1176 0.984 . S
H1183 N1176 0.984 . S
H1184 N1172 0.984 . S
H1185 N1172 0.985 . S
C1186 C1187 1.363 . S
C1186 C1192 1.379 . S
C1186 N1194 1.356 . S
C1187 C1186 1.363 . S
C1187 C1193 1.363 . S
C1188 C1189 1.363 . S
C1188 C1193 1.379 . S
C1188 N1195 1.356 . S
C1189 C1188 1.363 . S
C1189 C1192 1.363 . S
N1190 C1192 1.356 . S
N1190 H1202 0.984 . S
N1190 H1203 0.985 . S
N1191 C1193 1.356 . S
N1191 H1196 0.984 . S
N1191 H1197 0.985 . S
C1192 C1186 1.379 . S
C1192 C1189 1.363 . S
C1192 N1190 1.356 . S
C1193 C1187 1.363 . S
C1193 C1188 1.379 . S
C1193 N1191 1.356 . S
N1194 C1186 1.356 . S
N1194 H1200 0.984 . S
N1194 H1201 0.984 . S
N1195 C1188 1.356 . S
N1195 H1198 0.984 . S
N1195 H1199 0.985 . S
H1196 N1191 0.984 . S
H1197 N1191 0.985 . S
H1198 N1195 0.984 . S
H1199 N1195 0.985 . S
H1200 N1194 0.984 . S
H1201 N1194 0.984 . S
H1202 N1190 0.984 . S
H1203 N1190 0.985 . S
C1204 C1205 1.363 . S
C1204 C1210 1.379 . S
C1204 N1212 1.356 . S
C1205 C1204 1.363 . S
C1205 C1211 1.363 . S
C1206 C1207 1.363 . S
C1206 C1211 1.379 . S
C1206 N1213 1.356 . S
C1207 C1206 1.363 . S
C1207 C1210 1.363 . S
N1208 C1210 1.356 . S
N1208 H1220 0.984 . S
N1208 H1221 0.985 . S
N1209 C1211 1.356 . S
N1209 H1214 0.984 . S
N1209 H1215 0.985 . S
C1210 C1204 1.379 . S
C1210 C1207 1.363 . S
C1210 N1208 1.356 . S
C1211 C1205 1.363 . S
C1211 C1206 1.379 . S
C1211 N1209 1.356 . S
N1212 C1204 1.356 . S
N1212 H1218 0.984 . S
N1212 H1219 0.984 . S
N1213 C1206 1.356 . S
N1213 H1216 0.984 . S
N1213 H1217 0.985 . S
H1214 N1209 0.984 . S
H1215 N1209 0.985 . S
H1216 N1213 0.984 . S
H1217 N1213 0.985 . S
H1218 N1212 0.984 . S
H1219 N1212 0.984 . S
H1220 N1208 0.984 . S
H1221 N1208 0.985 . S
C1222 C1223 1.363 . S
C1222 C1228 1.379 . S
C1222 N1230 1.356 . S
C1223 C1222 1.363 . S
C1223 C1229 1.363 . S
C1224 C1225 1.363 . S
C1224 C1229 1.379 . S
C1224 N1231 1.356 . S
C1225 C1224 1.363 . S
C1225 C1228 1.363 . S
N1226 C1228 1.356 . S
N1226 H1238 0.984 . S
N1226 H1239 0.985 . S
N1227 C1229 1.356 . S
N1227 H1232 0.984 . S
N1227 H1233 0.985 . S
C1228 C1222 1.379 . S
C1228 C1225 1.363 . S
C1228 N1226 1.356 . S
C1229 C1223 1.363 . S
C1229 C1224 1.379 . S
C1229 N1227 1.356 . S
N1230 C1222 1.356 . S
N1230 H1236 0.984 . S
N1230 H1237 0.984 . S
N1231 C1224 1.356 . S
N1231 H1234 0.984 . S
N1231 H1235 0.985 . S
H1232 N1227 0.984 . S
H1233 N1227 0.985 . S
H1234 N1231 0.984 . S
H1235 N1231 0.985 . S
H1236 N1230 0.984 . S
H1237 N1230 0.984 . S
H1238 N1226 0.984 . S
H1239 N1226 0.985 . S
C1240 C1241 1.363 . S
C1240 C1246 1.379 . S
C1240 N1248 1.356 1_556 S
C1241 C1240 1.363 . S
C1241 C1247 1.363 . S
C1242 C1243 1.363 . S
C1242 C1247 1.379 . S
C1242 N1249 1.356 . S
C1243 C1242 1.363 . S
C1243 C1246 1.363 . S
N1244 C1246 1.356 1_554 S
N1244 H1256 0.984 . S
N1244 H1257 0.985 . S
N1245 C1247 1.356 . S
N1245 H1250 0.984 . S
N1245 H1251 0.985 . S
C1246 C1240 1.379 . S
C1246 C1243 1.363 . S
C1246 N1244 1.356 1_556 S
C1247 C1241 1.363 . S
C1247 C1242 1.379 . S
C1247 N1245 1.356 . S
N1248 C1240 1.356 1_554 S
N1248 H1254 0.984 . S
N1248 H1255 0.984 . S
N1249 C1242 1.356 . S
N1249 H1252 0.984 . S
N1249 H1253 0.985 . S
H1250 N1245 0.984 . S
H1251 N1245 0.985 . S
H1252 N1249 0.984 . S
H1253 N1249 0.985 . S
H1254 N1248 0.984 . S
H1255 N1248 0.984 . S
H1256 N1244 0.984 . S
H1257 N1244 0.985 . S
C1258 C1259 1.363 . S
C1258 C1264 1.379 1_655 S
C1258 N1266 1.356 . S
C1259 C1258 1.363 . S
C1259 C1265 1.363 . S
C1260 C1261 1.363 . S
C1260 C1265 1.379 1_455 S
C1260 N1267 1.356 . S
C1261 C1260 1.363 . S
C1261 C1264 1.363 . S
N1262 C1264 1.356 . S
N1262 H1274 0.984 . S
N1262 H1275 0.985 . S
N1263 C1265 1.356 . S
N1263 H1268 0.984 . S
N1263 H1269 0.985 . S
C1264 C1258 1.379 1_455 S
C1264 C1261 1.363 . S
C1264 N1262 1.356 . S
C1265 C1259 1.363 . S
C1265 C1260 1.379 1_655 S
C1265 N1263 1.356 . S
N1266 C1258 1.356 . S
N1266 H1272 0.984 . S
N1266 H1273 0.984 . S
N1267 C1260 1.356 . S
N1267 H1270 0.984 . S
N1267 H1271 0.985 . S
H1268 N1263 0.984 . S
H1269 N1263 0.985 . S
H1270 N1267 0.984 . S
H1271 N1267 0.985 . S
H1272 N1266 0.984 . S
H1273 N1266 0.984 . S
H1274 N1262 0.984 . S
H1275 N1262 0.985 . S
C1276 C1277 1.363 . S
C1276 C1282 1.379 1_655 S
C1276 N1284 1.356 . S
C1277 C1276 1.363 . S
C1277 C1283 1.363 . S
C1278 C1279 1.363 . S
C1278 C1283 1.379 1_455 S
C1278 N1285 1.356 . S
C1279 C1278 1.363 . S
C1279 C1282 1.363 . S
N1280 C1282 1.356 . S
N1280 H1292 0.984 . S
N1280 H1293 0.985 . S
N1281 C1283 1.356 . S
N1281 H1286 0.984 . S
N1281 H1287 0.985 . S
C1282 C1276 1.379 1_455 S
C1282 C1279 1.363 . S
C1282 N1280 1.356 . S
C1283 C1277 1.363 . S
C1283 C1278 1.379 1_655 S
C1283 N1281 1.356 . S
N1284 C1276 1.356 . S
N1284 H1290 0.984 . S
N1284 H1291 0.984 . S
N1285 C1278 1.356 . S
N1285 H1288 0.984 . S
N1285 H1289 0.985 . S
H1286 N1281 0.984 . S
H1287 N1281 0.985 . S
H1288 N1285 0.984 . S
H1289 N1285 0.985 . S
H1290 N1284 0.984 . S
H1291 N1284 0.984 . S
H1292 N1280 0.984 . S
H1293 N1280 0.985 . S
C1294 C1295 1.363 . S
C1294 C1300 1.379 . S
C1294 N1302 1.356 . S
C1295 C1294 1.363 . S
C1295 C1301 1.363 . S
C1296 C1297 1.363 . S
C1296 C1301 1.379 . S
C1296 N1303 1.356 1_554 S
C1297 C1296 1.363 . S
C1297 C1300 1.363 . S
N1298 C1300 1.356 . S
N1298 H1310 0.984 . S
N1298 H1311 0.985 . S
N1299 C1301 1.356 1_556 S
N1299 H1304 0.984 . S
N1299 H1305 0.985 . S
C1300 C1294 1.379 . S
C1300 C1297 1.363 . S
C1300 N1298 1.356 . S
C1301 C1295 1.363 . S
C1301 C1296 1.379 . S
C1301 N1299 1.356 1_554 S
N1302 C1294 1.356 . S
N1302 H1308 0.984 . S
N1302 H1309 0.984 . S
N1303 C1296 1.356 1_556 S
N1303 H1306 0.984 . S
N1303 H1307 0.985 . S
H1304 N1299 0.984 . S
H1305 N1299 0.985 . S
H1306 N1303 0.984 . S
H1307 N1303 0.985 . S
H1308 N1302 0.984 . S
H1309 N1302 0.984 . S
H1310 N1298 0.984 . S
H1311 N1298 0.985 . S
C1312 C1313 1.363 . S
C1312 C1318 1.379 . S
C1312 N1320 1.356 . S
C1313 C1312 1.363 . S
C1313 C1319 1.363 . S
C1314 C1315 1.363 . S
C1314 C1319 1.379 . S
C1314 N1321 1.356 . S
C1315 C1314 1.363 . S
C1315 C1318 1.363 . S
N1316 C1318 1.356 . S
N1316 H1328 0.984 . S
N1316 H1329 0.985 . S
N1317 C1319 1.356 . S
N1317 H1322 0.984 . S
N1317 H1323 0.985 . S
C1318 C1312 1.379 . S
C1318 C1315 1.363 . S
C1318 N1316 1.356 . S
C1319 C1313 1.363 . S
C1319 C1314 1.379 . S
C1319 N1317 1.356 . S
N1320 C1312 1.356 . S
N1320 H1326 0.984 . S
N1320 H1327 0.984 . S
N1321 C1314 1.356 . S
N1321 H1324 0.984 . S
N1321 H1325 0.985 . S
H1322 N1317 0.984 . S
H1323 N1317 0.985 . S
H1324 N1321 0.984 . S
H1325 N1321 0.985 . S
H1326 N1320 0.984 . S
H1327 N1320 0.984 . S
H1328 N1316 0.984 . S
H1329 N1316 0.985 . S
C1330 C1331 1.363 . S
C1330 C1336 1.379 . S
C1330 N1338 1.356 . S
C1331 C1330 1.363 . S
C1331 C1337 1.363 . S
C1332 C1333 1.363 . S
C1332 C1337 1.379 . S
C1332 N1339 1.356 . S
C1333 C1332 1.363 . S
C1333 C1336 1.363 . S
N1334 C1336 1.356 . S
N1334 H1346 0.984 . S
N1334 H1347 0.985 . S
N1335 C1337 1.356 . S
N1335 H1340 0.984 . S
N1335 H1341 0.985 . S
C1336 C1330 1.379 . S
C1336 C1333 1.363 . S
C1336 N1334 1.356 . S
C1337 C1331 1.363 . S
C1337 C1332 1.379 . S
C1337 N1335 1.356 . S
N1338 C1330 1.356 . S
N1338 H1344 0.984 . S
N1338 H1345 0.984 . S
N1339 C1332 1.356 . S
N1339 H1342 0.984 . S
N1339 H1343 0.985 . S
H1340 N1335 0.984 . S
H1341 N1335 0.985 . S
H1342 N1339 0.984 . S
H1343 N1339 0.985 . S
H1344 N1338 0.984 . S
H1345 N1338 0.984 . S
H1346 N1334 0.984 . S
H1347 N1334 0.985 . S
C1348 C1349 1.363 . S
C1348 C1354 1.379 . S
C1348 N1356 1.356 1_556 S
C1349 C1348 1.363 . S
C1349 C1355 1.363 . S
C1350 C1351 1.363 . S
C1350 C1355 1.379 . S
C1350 N1357 1.356 . S
C1351 C1350 1.363 . S
C1351 C1354 1.363 . S
N1352 C1354 1.356 . S
N1352 H1364 0.984 . S
N1352 H1365 0.985 . S
N1353 C1355 1.356 . S
N1353 H1358 0.984 . S
N1353 H1359 0.985 . S
C1354 C1348 1.379 . S
C1354 C1351 1.363 . S
C1354 N1352 1.356 . S
C1355 C1349 1.363 . S
C1355 C1350 1.379 . S
C1355 N1353 1.356 . S
N1356 C1348 1.356 1_554 S
N1356 H1362 0.984 . S
N1356 H1363 0.984 . S
N1357 C1350 1.356 . S
N1357 H1360 0.984 . S
N1357 H1361 0.985 . S
H1358 N1353 0.984 . S
H1359 N1353 0.985 . S
H1360 N1357 0.984 . S
H1361 N1357 0.985 . S
H1362 N1356 0.984 . S
H1363 N1356 0.984 . S
H1364 N1352 0.984 . S
H1365 N1352 0.985 . S
C1366 C1367 1.363 . S
C1366 C1372 1.379 . S
C1366 N1374 1.356 . S
C1367 C1366 1.363 . S
C1367 C1373 1.363 . S
C1368 C1369 1.363 . S
C1368 C1373 1.379 . S
C1368 N1375 1.356 . S
C1369 C1368 1.363 . S
C1369 C1372 1.363 . S
N1370 C1372 1.356 . S
N1370 H1382 0.984 . S
N1370 H1383 0.985 . S
N1371 C1373 1.356 1_556 S
N1371 H1376 0.984 . S
N1371 H1377 0.985 . S
C1372 C1366 1.379 . S
C1372 C1369 1.363 . S
C1372 N1370 1.356 . S
C1373 C1367 1.363 . S
C1373 C1368 1.379 . S
C1373 N1371 1.356 1_554 S
N1374 C1366 1.356 . S
N1374 H1380 0.984 . S
N1374 H1381 0.984 . S
N1375 C1368 1.356 . S
N1375 H1378 0.984 . S
N1375 H1379 0.985 . S
H1376 N1371 0.984 . S
H1377 N1371 0.985 . S
H1378 N1375 0.984 . S
H1379 N1375 0.985 . S
H1380 N1374 0.984 . S
H1381 N1374 0.984 . S
H1382 N1370 0.984 . S
H1383 N1370 0.985 . S
C1384 C1385 1.363 . S
C1384 C1390 1.379 . S
C1384 N1392 1.356 . S
C1385 C1384 1.363 . S
C1385 C1391 1.363 . S
C1386 C1387 1.363 . S
C1386 C1391 1.379 . S
C1386 N1393 1.356 . S
C1387 C1386 1.363 . S
C1387 C1390 1.363 . S
N1388 C1390 1.356 . S
N1388 H1400 0.984 . S
N1388 H1401 0.985 . S
N1389 C1391 1.356 . S
N1389 H1394 0.984 . S
N1389 H1395 0.985 . S
C1390 C1384 1.379 . S
C1390 C1387 1.363 . S
C1390 N1388 1.356 . S
C1391 C1385 1.363 . S
C1391 C1386 1.379 . S
C1391 N1389 1.356 . S
N1392 C1384 1.356 . S
N1392 H1398 0.984 . S
N1392 H1399 0.984 . S
N1393 C1386 1.356 . S
N1393 H1396 0.984 . S
N1393 H1397 0.985 . S
H1394 N1389 0.984 . S
H1395 N1389 0.985 . S
H1396 N1393 0.984 . S
H1397 N1393 0.985 . S
H1398 N1392 0.984 . S
H1399 N1392 0.984 . S
H1400 N1388 0.984 . S
H1401 N1388 0.985 . S
C1402 C1403 1.363 . S
C1402 C1408 1.379 . S
C1402 N1410 1.356 . S
C1403 C1402 1.363 . S
C1403 C1409 1.363 . S
C1404 C1405 1.363 . S
C1404 C1409 1.379 . S
C1404 N1411 1.356 . S
C1405 C1404 1.363 . S
C1405 C1408 1.363 . S
N1406 C1408 1.356 . S
N1406 H1418 0.984 . S
N1406 H1419 0.985 . S
N1407 C1409 1.356 . S
N1407 H1412 0.984 . S
N1407 H1413 0.985 . S
C1408 C1402 1.379 . S
C1408 C1405 1.363 . S
C1408 N1406 1.356 . S
C1409 C1403 1.363 . S
C1409 C1404 1.379 . S
C1409 N1407 1.356 . S
N1410 C1402 1.356 . S
N1410 H1416 0.984 . S
N1410 H1417 0.984 . S
N1411 C1404 1.356 . S
N1411 H1414 0.984 . S
N1411 H1415 0.985 . S
H1412 N1407 0.984 . S
H1413 N1407 0.985 . S
H1414 N1411 0.984 . S
H1415 N1411 0.985 . S
H1416 N1410 0.984 . S
H1417 N1410 0.984 . S
H1418 N1406 0.984 . S
H1419 N1406 0.985 . S
C1420 C1421 1.363 . S
C1420 C1426 1.379 . S
C1420 N1428 1.356 . S
C1421 C1420 1.363 . S
C1421 C1427 1.363 . S
C1422 C1423 1.363 . S
C1422 C1427 1.379 . S
C1422 N1429 1.356 1_554 S
C1423 C1422 1.363 . S
C1423 C1426 1.363 . S
N1424 C1426 1.356 . S
N1424 H1436 0.984 . S
N1424 H1437 0.985 . S
N1425 C1427 1.356 . S
N1425 H1430 0.984 . S
N1425 H1431 0.985 . S
C1426 C1420 1.379 . S
C1426 C1423 1.363 . S
C1426 N1424 1.356 . S
C1427 C1421 1.363 . S
C1427 C1422 1.379 . S
C1427 N1425 1.356 . S
N1428 C1420 1.356 . S
N1428 H1434 0.984 . S
N1428 H1435 0.984 . S
N1429 C1422 1.356 1_556 S
N1429 H1432 0.984 . S
N1429 H1433 0.985 . S
H1430 N1425 0.984 . S
H1431 N1425 0.985 . S
H1432 N1429 0.984 . S
H1433 N1429 0.985 . S
H1434 N1428 0.984 . S
H1435 N1428 0.984 . S
H1436 N1424 0.984 . S
H1437 N1424 0.985 . S
C1438 C1439 1.363 . S
C1438 C1444 1.379 . S
C1438 N1446 1.356 . S
C1439 C1438 1.363 . S
C1439 C1445 1.363 . S
C1440 C1441 1.363 . S
C1440 C1445 1.379 . S
C1440 N1447 1.356 . S
C1441 C1440 1.363 . S
C1441 C1444 1.363 . S
N1442 C1444 1.356 . S
N1442 H1454 0.984 . S
N1442 H1455 0.985 . S
N1443 C1445 1.356 . S
N1443 H1448 0.984 . S
N1443 H1449 0.985 . S
C1444 C1438 1.379 . S
C1444 C1441 1.363 . S
C1444 N1442 1.356 . S
C1445 C1439 1.363 . S
C1445 C1440 1.379 . S
C1445 N1443 1.356 . S
N1446 C1438 1.356 . S
N1446 H1452 0.984 . S
N1446 H1453 0.984 . S
N1447 C1440 1.356 . S
N1447 H1450 0.984 1_556 S
N1447 H1451 0.985 . S
H1448 N1443 0.984 . S
H1449 N1443 0.985 . S
H1450 N1447 0.984 1_554 S
H1451 N1447 0.985 . S
H1452 N1446 0.984 . S
H1453 N1446 0.984 . S
H1454 N1442 0.984 . S
H1455 N1442 0.985 . S
C1456 C1457 1.363 . S
C1456 C1462 1.379 . S
C1456 N1464 1.356 . S
C1457 C1456 1.363 . S
C1457 C1463 1.363 . S
C1458 C1459 1.363 . S
C1458 C1463 1.379 . S
C1458 N1465 1.356 . S
C1459 C1458 1.363 . S
C1459 C1462 1.363 . S
N1460 C1462 1.356 . S
N1460 H1472 0.984 . S
N1460 H1473 0.985 . S
N1461 C1463 1.356 . S
N1461 H1466 0.984 1_556 S
N1461 H1467 0.985 . S
C1462 C1456 1.379 . S
C1462 C1459 1.363 . S
C1462 N1460 1.356 . S
C1463 C1457 1.363 . S
C1463 C1458 1.379 . S
C1463 N1461 1.356 . S
N1464 C1456 1.356 . S
N1464 H1470 0.984 . S
N1464 H1471 0.984 . S
N1465 C1458 1.356 . S
N1465 H1468 0.984 . S
N1465 H1469 0.985 . S
H1466 N1461 0.984 1_554 S
H1467 N1461 0.985 . S
H1468 N1465 0.984 . S
H1469 N1465 0.985 . S
H1470 N1464 0.984 . S
H1471 N1464 0.984 . S
H1472 N1460 0.984 . S
H1473 N1460 0.985 . S
C1474 C1475 1.363 . S
C1474 C1480 1.379 . S
C1474 N1482 1.356 . S
C1475 C1474 1.363 . S
C1475 C1481 1.363 . S
C1476 C1477 1.363 . S
C1476 C1481 1.379 . S
C1476 N1483 1.356 1_554 S
C1477 C1476 1.363 . S
C1477 C1480 1.363 . S
N1478 C1480 1.356 . S
N1478 H1490 0.984 . S
N1478 H1491 0.985 . S
N1479 C1481 1.356 . S
N1479 H1484 0.984 . S
N1479 H1485 0.985 . S
C1480 C1474 1.379 . S
C1480 C1477 1.363 . S
C1480 N1478 1.356 . S
C1481 C1475 1.363 . S
C1481 C1476 1.379 . S
C1481 N1479 1.356 . S
N1482 C1474 1.356 . S
N1482 H1488 0.984 . S
N1482 H1489 0.984 . S
N1483 C1476 1.356 1_556 S
N1483 H1486 0.984 . S
N1483 H1487 0.985 . S
H1484 N1479 0.984 . S
H1485 N1479 0.985 . S
H1486 N1483 0.984 . S
H1487 N1483 0.985 . S
H1488 N1482 0.984 . S
H1489 N1482 0.984 . S
H1490 N1478 0.984 . S
H1491 N1478 0.985 . S
C1492 C1493 1.363 . S
C1492 C1498 1.379 . S
C1492 N1500 1.356 . S
C1493 C1492 1.363 . S
C1493 C1499 1.363 . S
C1494 C1495 1.363 . S
C1494 C1499 1.379 . S
C1494 N1501 1.356 . S
C1495 C1494 1.363 . S
C1495 C1498 1.363 . S
N1496 C1498 1.356 . S
N1496 H1508 0.984 . S
N1496 H1509 0.985 . S
N1497 C1499 1.356 . S
N1497 H1502 0.984 . S
N1497 H1503 0.985 . S
C1498 C1492 1.379 . S
C1498 C1495 1.363 . S
C1498 N1496 1.356 . S
C1499 C1493 1.363 . S
C1499 C1494 1.379 . S
C1499 N1497 1.356 . S
N1500 C1492 1.356 . S
N1500 H1506 0.984 . S
N1500 H1507 0.984 . S
N1501 C1494 1.356 . S
N1501 H1504 0.984 . S
N1501 H1505 0.985 . S
H1502 N1497 0.984 . S
H1503 N1497 0.985 . S
H1504 N1501 0.984 . S
H1505 N1501 0.985 . S
H1506 N1500 0.984 . S
H1507 N1500 0.984 . S
H1508 N1496 0.984 . S
H1509 N1496 0.985 . S
C1510 C1511 1.363 . S
C1510 C1516 1.379 . S
C1510 N1518 1.356 . S
C1511 C1510 1.363 . S
C1511 C1517 1.363 . S
C1512 C1513 1.363 . S
C1512 C1517 1.379 . S
C1512 N1519 1.356 . S
C1513 C1512 1.363 . S
C1513 C1516 1.363 . S
N1514 C1516 1.356 . S
N1514 H1526 0.984 . S
N1514 H1527 0.985 . S
N1515 C1517 1.356 . S
N1515 H1520 0.984 . S
N1515 H1521 0.985 . S
C1516 C1510 1.379 . S
C1516 C1513 1.363 . S
C1516 N1514 1.356 . S
C1517 C1511 1.363 . S
C1517 C1512 1.379 . S
C1517 N1515 1.356 . S
N1518 C1510 1.356 . S
N1518 H1524 0.984 . S
N1518 H1525 0.984 . S
N1519 C1512 1.356 . S
N1519 H1522 0.984 . S
N1519 H1523 0.985 . S
H1520 N1515 0.984 . S
H1521 N1515 0.985 . S
H1522 N1519 0.984 . S
H1523 N1519 0.985 . S
H1524 N1518 0.984 . S
H1525 N1518 0.984 . S
H1526 N1514 0.984 . S
H1527 N1514 0.985 . S
C1528 C1529 1.363 . S
C1528 C1534 1.379 . S
C1528 N1536 1.356 . S
C1529 C1528 1.363 . S
C1529 C1535 1.363 . S
C1530 C1531 1.363 . S
C1530 C1535 1.379 . S
C1530 N1537 1.356 . S
C1531 C1530 1.363 . S
C1531 C1534 1.363 . S
N1532 C1534 1.356 . S
N1532 H1544 0.984 . S
N1532 H1545 0.985 1_554 S
N1533 C1535 1.356 . S
N1533 H1538 0.984 . S
N1533 H1539 0.985 . S
C1534 C1528 1.379 . S
C1534 C1531 1.363 . S
C1534 N1532 1.356 . S
C1535 C1529 1.363 . S
C1535 C1530 1.379 . S
C1535 N1533 1.356 . S
N1536 C1528 1.356 . S
N1536 H1542 0.984 . S
N1536 H1543 0.984 . S
N1537 C1530 1.356 . S
N1537 H1540 0.984 . S
N1537 H1541 0.985 . S
H1538 N1533 0.984 . S
H1539 N1533 0.985 . S
H1540 N1537 0.984 . S
H1541 N1537 0.985 . S
H1542 N1536 0.984 . S
H1543 N1536 0.984 . S
H1544 N1532 0.984 . S
H1545 N1532 0.985 1_556 S
C1546 C1547 1.363 . S
C1546 C1552 1.379 . S
C1546 N1554 1.356 . S
C1547 C1546 1.363 . S
C1547 C1553 1.363 . S
C1548 C1549 1.363 . S
C1548 C1553 1.379 . S
C1548 N1555 1.356 . S
C1549 C1548 1.363 . S
C1549 C1552 1.363 . S
N1550 C1552 1.356 . S
N1550 H1562 0.984 . S
N1550 H1563 0.985 . S
N1551 C1553 1.356 1_554 S
N1551 H1556 0.984 . S
N1551 H1557 0.985 . S
C1552 C1546 1.379 . S
C1552 C1549 1.363 . S
C1552 N1550 1.356 . S
C1553 C1547 1.363 . S
C1553 C1548 1.379 . S
C1553 N1551 1.356 1_556 S
N1554 C1546 1.356 . S
N1554 H1560 0.984 . S
N1554 H1561 0.984 . S
N1555 C1548 1.356 . S
N1555 H1558 0.984 . S
N1555 H1559 0.985 . S
H1556 N1551 0.984 . S
H1557 N1551 0.985 . S
H1558 N1555 0.984 . S
H1559 N1555 0.985 . S
H1560 N1554 0.984 . S
H1561 N1554 0.984 . S
H1562 N1550 0.984 . S
H1563 N1550 0.985 . S
C1564 C1565 1.363 . S
C1564 C1570 1.379 . S
C1564 N1572 1.356 . S
C1565 C1564 1.363 . S
C1565 C1571 1.363 . S
C1566 C1567 1.363 . S
C1566 C1571 1.379 . S
C1566 N1573 1.356 . S
C1567 C1566 1.363 . S
C1567 C1570 1.363 . S
N1568 C1570 1.356 . S
N1568 H1580 0.984 . S
N1568 H1581 0.985 . S
N1569 C1571 1.356 . S
N1569 H1574 0.984 . S
N1569 H1575 0.985 . S
C1570 C1564 1.379 . S
C1570 C1567 1.363 . S
C1570 N1568 1.356 . S
C1571 C1565 1.363 . S
C1571 C1566 1.379 . S
C1571 N1569 1.356 . S
N1572 C1564 1.356 . S
N1572 H1578 0.984 . S
N1572 H1579 0.984 . S
N1573 C1566 1.356 . S
N1573 H1576 0.984 . S
N1573 H1577 0.985 . S
H1574 N1569 0.984 . S
H1575 N1569 0.985 . S
H1576 N1573 0.984 . S
H1577 N1573 0.985 . S
H1578 N1572 0.984 . S
H1579 N1572 0.984 . S
H1580 N1568 0.984 . S
H1581 N1568 0.985 . S
C1582 C1583 1.363 . S
C1582 C1588 1.379 . S
C1582 N1590 1.356 . S
C1583 C1582 1.363 . S
C1583 C1589 1.363 . S
C1584 C1585 1.363 . S
C1584 C1589 1.379 . S
C1584 N1591 1.356 . S
C1585 C1584 1.363 . S
C1585 C1588 1.363 . S
N1586 C1588 1.356 . S
N1586 H1598 0.984 . S
N1586 H1599 0.985 . S
N1587 C1589 1.356 . S
N1587 H1592 0.984 . S
N1587 H1593 0.985 . S
C1588 C1582 1.379 . S
C1588 C1585 1.363 . S
C1588 N1586 1.356 . S
C1589 C1583 1.363 . S
C1589 C1584 1.379 . S
C1589 N1587 1.356 . S
N1590 C1582 1.356 . S
N1590 H1596 0.984 . S
N1590 H1597 0.984 . S
N1591 C1584 1.356 . S
N1591 H1594 0.984 . S
N1591 H1595 0.985 . S
H1592 N1587 0.984 . S
H1593 N1587 0.985 . S
H1594 N1591 0.984 . S
H1595 N1591 0.985 . S
H1596 N1590 0.984 . S
H1597 N1590 0.984 . S
H1598 N1586 0.984 . S
H1599 N1586 0.985 . S
C449 C96 1.475 . S
C451 C12 1.475 . S
C467 C26 1.475 . S
C469 C110 1.475 . S
C485 C68 1.475 . S
C487 C40 1.475 . S
C503 C54 1.475 . S
C505 C82 1.475 . S
C521 C124 1.475 . S
C523 C208 1.475 . S
C539 C222 1.475 . S
C541 C138 1.475 . S
C557 C152 1.475 . S
C559 C180 1.475 . S
C575 C194 1.475 . S
C577 C166 1.475 . S
C593 C236 1.475 . S
C595 C320 1.475 . S
C611 C250 1.475 . S
C613 C334 1.475 . S
C629 C292 1.475 . S
C631 C264 1.475 . S
C647 C306 1.475 . S
C649 C278 1.475 . S
C665 C348 1.475 . S
C667 C432 1.475 . S
C683 C362 1.475 . S
C685 C446 1.475 . S
C701 C404 1.475 . S
C703 C376 1.475 . S
C719 C390 1.475 . S
C721 C418 1.475 . S
C737 C5 1.230 . S
C739 C103 1.230 . S
C755 C61 1.230 . S
C757 C19 1.230 . S
C773 C75 1.230 . S
C775 C33 1.230 . S
C791 C47 1.230 . S
C793 C89 1.230 . S
C809 C117 1.230 . S
C811 C215 1.230 . S
C827 C173 1.230 . S
C829 C131 1.230 . S
C845 C187 1.230 . S
C847 C145 1.230 . S
C863 C201 1.230 . S
C865 C159 1.230 . S
C881 C229 1.230 . S
C883 C327 1.230 . S
C899 C243 1.230 . S
C901 C285 1.230 . S
C917 C299 1.230 . S
C919 C257 1.230 . S
C935 C271 1.230 . S
C937 C313 1.230 . S
C953 C341 1.230 . S
C955 C439 1.230 . S
C971 C397 1.230 . S
C973 C355 1.230 . S
C989 C369 1.230 . S
C991 C411 1.230 . S
C1007 C383 1.230 . S
C1009 C425 1.230 . S
C1025 C431 1.488 . S
C1027 C11 1.488 . S
C1043 C221 1.488 . S
C1045 C25 1.488 . S
C1061 C39 1.488 . S
C1063 C403 1.488 . S
C1079 C53 1.488 . S
C1081 C193 1.488 . S
C1097 C67 1.488 . S
C1099 C375 1.488 . S
C1115 C81 1.488 . S
C1117 C165 1.488 . S
C1133 C95 1.488 . S
C1135 C347 1.488 . S
C1151 C137 1.488 . S
C1153 C109 1.488 . S
C1169 C319 1.488 . S
C1171 C123 1.488 . S
C1187 C151 1.488 . S
C1189 C291 1.488 . S
C1205 C263 1.488 . S
C1207 C179 1.488 . S
C1223 C235 1.488 . S
C1225 C207 1.488 . S
C1241 C249 1.488 . S
C1243 C445 1.488 . S
C1259 C277 1.488 . S
C1261 C417 1.488 . S
C1277 C305 1.488 . S
C1279 C389 1.488 . S
C1295 C361 1.488 . S
C1297 C333 1.488 . S
C1313 C4 1.154 . S
C1315 C102 1.154 . S
C1331 C18 1.154 . S
C1333 C60 1.154 . S
C1349 C74 1.154 . S
C1351 C32 1.154 . S
C1367 C46 1.154 . S
C1369 C88 1.154 . S
C1385 C214 1.154 . S
C1387 C116 1.154 . S
C1403 C172 1.154 . S
C1405 C130 1.154 . S
C1421 C144 1.154 . S
C1423 C186 1.154 . S
C1439 C200 1.154 . S
C1441 C158 1.154 . S
C1457 C326 1.154 . S
C1459 C228 1.154 . S
C1475 C284 1.154 . S
C1477 C242 1.154 . S
C1493 C298 1.154 . S
C1495 C256 1.154 . S
C1511 C312 1.154 . S
C1513 C270 1.154 . S
C1529 C340 1.154 . S
C1531 C438 1.154 . S
C1547 C354 1.154 . S
C1549 C396 1.154 . S
C1565 C368 1.154 . S
C1567 C410 1.154 . S
C1583 C424 1.154 . S
C1585 C382 1.154 . S
