# Generated by pormake.
# Topology umg, (4)-cn, num edge types: 1
# Building blocks:
#     Node 0, Type 0, BuildingBlock: QUQFOY_clean_sbu_3, # of connection points: 4
#     Node 1, Type 0, BuildingBlock: QUQFOY_clean_sbu_3, # of connection points: 4
#     Node 2, Type 0, BuildingBlock: QUQFOY_clean_sbu_3, # of connection points: 4
#     Node 3, Type 0, BuildingBlock: QUQFOY_clean_sbu_3, # of connection points: 4
#     Node 4, Type 0, BuildingBlock: QUQFOY_clean_sbu_3, # of connection points: 4
#     Node 5, Type 0, BuildingBlock: QUQFOY_clean_sbu_3, # of connection points: 4
#     Node 6, Type 0, BuildingBlock: QUQFOY_clean_sbu_3, # of connection points: 4
#     Node 7, Type 0, BuildingBlock: QUQFOY_clean_sbu_3, # of connection points: 4
#     Node 8, Type 0, BuildingBlock: QUQFOY_clean_sbu_3, # of connection points: 4
#     Node 9, Type 0, BuildingBlock: QUQFOY_clean_sbu_3, # of connection points: 4
#     Node 10, Type 0, BuildingBlock: QUQFOY_clean_sbu_3, # of connection points: 4
#     Node 11, Type 0, BuildingBlock: QUQFOY_clean_sbu_3, # of connection points: 4
#     Edge 12, Type (0, 0), BuildingBlock: MIFKUJ_clean_linker_0, # of connection points: 2
#     Edge 13, Type (0, 0), BuildingBlock: MIFKUJ_clean_linker_0, # of connection points: 2
#     Edge 14, Type (0, 0), BuildingBlock: MIFKUJ_clean_linker_0, # of connection points: 2
#     Edge 15, Type (0, 0), BuildingBlock: MIFKUJ_clean_linker_0, # of connection points: 2
#     Edge 16, Type (0, 0), BuildingBlock: MIFKUJ_clean_linker_0, # of connection points: 2
#     Edge 17, Type (0, 0), BuildingBlock: MIFKUJ_clean_linker_0, # of connection points: 2
#     Edge 18, Type (0, 0), BuildingBlock: MIFKUJ_clean_linker_0, # of connection points: 2
#     Edge 19, Type (0, 0), BuildingBlock: MIFKUJ_clean_linker_0, # of connection points: 2
#     Edge 20, Type (0, 0), BuildingBlock: MIFKUJ_clean_linker_0, # of connection points: 2
#     Edge 21, Type (0, 0), BuildingBlock: MIFKUJ_clean_linker_0, # of connection points: 2
#     Edge 22, Type (0, 0), BuildingBlock: MIFKUJ_clean_linker_0, # of connection points: 2
#     Edge 23, Type (0, 0), BuildingBlock: MIFKUJ_clean_linker_0, # of connection points: 2
#     Edge 24, Type (0, 0), BuildingBlock: MIFKUJ_clean_linker_0, # of connection points: 2
#     Edge 25, Type (0, 0), BuildingBlock: MIFKUJ_clean_linker_0, # of connection points: 2
#     Edge 26, Type (0, 0), BuildingBlock: MIFKUJ_clean_linker_0, # of connection points: 2
#     Edge 27, Type (0, 0), BuildingBlock: MIFKUJ_clean_linker_0, # of connection points: 2
#     Edge 28, Type (0, 0), BuildingBlock: MIFKUJ_clean_linker_0, # of connection points: 2
#     Edge 29, Type (0, 0), BuildingBlock: MIFKUJ_clean_linker_0, # of connection points: 2
#     Edge 30, Type (0, 0), BuildingBlock: MIFKUJ_clean_linker_0, # of connection points: 2
#     Edge 31, Type (0, 0), BuildingBlock: MIFKUJ_clean_linker_0, # of connection points: 2
#     Edge 32, Type (0, 0), BuildingBlock: MIFKUJ_clean_linker_0, # of connection points: 2
#     Edge 33, Type (0, 0), BuildingBlock: MIFKUJ_clean_linker_0, # of connection points: 2
#     Edge 34, Type (0, 0), BuildingBlock: MIFKUJ_clean_linker_0, # of connection points: 2
#     Edge 35, Type (0, 0), BuildingBlock: MIFKUJ_clean_linker_0, # of connection points: 2
# Relax obj value: 0.087
# Max RMSD: 0.354
# Mean RMSD: 0.214
data_MOF--net-umg--node1-QUQFOY_clean_sbu_3--edge1-MIFKUJ_clean_linker_0
_symmetry_space_group_name_H-M    P1
_symmetry_Int_Tables_number       1
_symmetry_cell_setting            triclinic
loop_
_symmetry_equiv_pos_as_xyz
'x, y, z'
_cell_length_a     37.488899
_cell_length_b     37.445129
_cell_length_c     104.97437
_cell_angle_alpha  89.850852
_cell_angle_beta   89.980383
_cell_angle_gamma 120.00901
loop_
_atom_site_label
_atom_site_type_symbol
_atom_site_fract_x
_atom_site_fract_y
_atom_site_fract_z
_atom_type_partial_charge
C0 C 0.32619 0.50573 0.11563 0.0
O1 O 0.32401 0.53721 0.11231 0.0
Cd2 Cd 0.30235 0.5439 0.09139 0.0
O3 O 0.32046 0.47803 0.10757 0.0
Cd4 Cd 0.31038 0.46413 0.08445 0.0
C5 C 0.21343 0.44876 0.08726 0.0
O6 O 0.347 0.53562 0.07714 0.0
O7 O 0.31294 0.48958 0.06283 0.0
O8 O 0.37079 0.45734 0.08649 0.0
C9 C 0.33674 0.52725 0.06555 0.0
O10 O 0.23148 0.4876 0.08902 0.0
C11 C 0.35577 0.4216 0.08175 0.0
O12 O 0.23428 0.43058 0.08572 0.0
O13 O 0.31837 0.40438 0.07814 0.0
C14 C 0.45924 0.31906 0.40517 0.0
O15 O 0.44145 0.32592 0.39602 0.0
Cd16 Cd 0.44081 0.28744 0.37741 0.0
O17 O 0.4825 0.30419 0.40297 0.0
Cd18 Cd 0.51522 0.28974 0.38515 0.0
C19 C 0.43357 0.19832 0.38984 0.0
O20 O 0.50216 0.31298 0.36442 0.0
O21 O 0.50752 0.25772 0.36497 0.0
O22 O 0.57776 0.35481 0.38824 0.0
C23 C 0.50566 0.2853 0.35845 0.0
O24 O 0.41608 0.21619 0.38452 0.0
C25 C 0.6011 0.34018 0.39065 0.0
O26 O 0.47222 0.21818 0.39199 0.0
O27 O 0.58446 0.30101 0.39067 0.0
C28 C 0.48962 0.81954 0.7835 0.0
O29 O 0.46226 0.78254 0.78118 0.0
Cd30 Cd 0.44875 0.75325 0.76025 0.0
O31 O 0.51179 0.8434 0.77456 0.0
Cd32 Cd 0.5207 0.84265 0.75116 0.0
C33 C 0.5436 0.76512 0.75254 0.0
O34 O 0.44742 0.80218 0.74588 0.0
O35 O 0.49037 0.81471 0.73046 0.0
O36 O 0.52345 0.90869 0.75116 0.0
C37 C 0.45329 0.79935 0.73411 0.0
O38 O 0.50572 0.74232 0.75537 0.0
C39 C 0.55866 0.92963 0.74606 0.0
O40 O 0.55899 0.80396 0.75096 0.0
O41 O 0.57738 0.91022 0.74323 0.0
C42 C 0.64884 0.12975 0.0699 0.0
O43 O 0.66281 0.11764 0.06093 0.0
Cd44 Cd 0.7033 0.16819 0.04471 0.0
O45 O 0.65478 0.16622 0.06988 0.0
Cd46 Cd 0.68382 0.23037 0.05792 0.0
C47 C 0.77839 0.24331 0.06354 0.0
O48 O 0.67248 0.20603 0.03555 0.0
O49 O 0.71437 0.27091 0.03942 0.0
O50 O 0.61696 0.22441 0.06063 0.0
C51 C 0.69484 0.24264 0.03133 0.0
O52 O 0.76743 0.21435 0.05547 0.0
C53 C 0.6295 0.25941 0.06568 0.0
O54 O 0.75346 0.2554 0.06696 0.0
O55 O 0.66815 0.28155 0.06747 0.0
C56 C 0.15504 0.65969 0.44574 0.0
O57 O 0.18952 0.66436 0.4422 0.0
Cd58 Cd 0.21353 0.67607 0.42063 0.0
O59 O 0.12962 0.65919 0.43759 0.0
Cd60 Cd 0.12273 0.66191 0.41416 0.0
C61 C 0.20292 0.76054 0.41308 0.0
O62 O 0.15897 0.62548 0.40815 0.0
O63 O 0.14466 0.65501 0.39287 0.0
O64 O 0.05587 0.60075 0.41663 0.0
C65 C 0.15964 0.63272 0.39632 0.0
O66 O 0.22513 0.7442 0.41514 0.0
C67 C 0.03498 0.61468 0.41129 0.0
O68 O 0.16365 0.73844 0.41288 0.0
O69 O 0.0548 0.65182 0.40735 0.0
C70 C 0.85084 0.51026 0.73743 0.0
O71 O 0.86959 0.53802 0.72906 0.0
Cd72 Cd 0.83256 0.53676 0.70994 0.0
O73 O 0.8144 0.48114 0.73538 0.0
Cd74 Cd 0.75909 0.4515 0.71976 0.0
C75 C 0.74815 0.53577 0.72348 0.0
O76 O 0.79866 0.47041 0.69962 0.0
O77 O 0.73256 0.44675 0.69884 0.0
O78 O 0.76056 0.38832 0.7232 0.0
C79 C 0.76627 0.45874 0.693 0.0
O80 O 0.78179 0.55438 0.71725 0.0
C81 C 0.72291 0.36576 0.72617 0.0
O82 O 0.73269 0.49777 0.72652 0.0
O83 O 0.70121 0.38323 0.72647 0.0
C84 C 0.13876 0.66467 0.5796 0.0
O85 O 0.11682 0.67114 0.5874 0.0
Cd86 Cd 0.15194 0.71055 0.60622 0.0
O87 O 0.1757 0.67546 0.58242 0.0
Cd88 Cd 0.22639 0.70489 0.59941 0.0
C89 C 0.23462 0.79647 0.59304 0.0
O90 O 0.18749 0.68549 0.61965 0.0
O91 O 0.24865 0.73971 0.61931 0.0
O92 O 0.23022 0.64248 0.60043 0.0
C93 C 0.21815 0.71331 0.62576 0.0
O94 O 0.19993 0.78023 0.59873 0.0
C95 C 0.26729 0.6579 0.5968 0.0
O96 O 0.25225 0.77536 0.59098 0.0
O97 O 0.28656 0.69635 0.59425 0.0
C98 C 0.84039 0.49666 0.86901 0.0
O99 O 0.80615 0.46552 0.87208 0.0
Cd100 Cd 0.77848 0.45534 0.89321 0.0
O101 O 0.86301 0.52258 0.87741 0.0
Cd102 Cd 0.8665 0.53353 0.90071 0.0
C103 C 0.78579 0.55044 0.89851 0.0
O104 O 0.83082 0.46117 0.90735 0.0
O105 O 0.84109 0.50597 0.9219 0.0
O106 O 0.9339 0.54119 0.89783 0.0
C107 C 0.82767 0.46856 0.91896 0.0
O108 O 0.76467 0.51171 0.89659 0.0
C109 C 0.95418 0.57475 0.90385 0.0
O110 O 0.82488 0.56827 0.89984 0.0
O111 O 0.93369 0.59034 0.90853 0.0
C112 C 0.33877 0.4688 0.24612 0.0
O113 O 0.32522 0.43911 0.25398 0.0
Cd114 Cd 0.28043 0.43937 0.27063 0.0
O115 O 0.33014 0.49727 0.2475 0.0
Cd116 Cd 0.29565 0.52288 0.26116 0.0
C117 C 0.20433 0.44146 0.25289 0.0
O118 O 0.30452 0.50255 0.28284 0.0
O119 O 0.25637 0.51764 0.27952 0.0
O120 O 0.35984 0.58771 0.26205 0.0
C121 C 0.2772 0.50974 0.28738 0.0
O122 O 0.21605 0.42147 0.2599 0.0
C123 C 0.34698 0.60985 0.25693 0.0
O124 O 0.228 0.47997 0.25085 0.0
O125 O 0.3092 0.59165 0.2537 0.0
C126 C 0.49143 0.33837 0.53746 0.0
O127 O 0.52196 0.33374 0.54004 0.0
Cd128 Cd 0.53608 0.3192 0.56105 0.0
O129 O 0.46775 0.33757 0.5463 0.0
Cd130 Cd 0.46179 0.33296 0.56984 0.0
C131 C 0.44206 0.23389 0.56889 0.0
O132 O 0.53552 0.37001 0.57454 0.0
O133 O 0.49468 0.33994 0.59045 0.0
O134 O 0.45437 0.39309 0.56729 0.0
C135 C 0.53112 0.36303 0.58643 0.0
O136 O 0.48012 0.25012 0.56609 0.0
C137 C 0.4223 0.38069 0.57406 0.0
O138 O 0.42559 0.25636 0.57037 0.0
O139 O 0.40714 0.34473 0.57887 0.0
C140 C 0.53063 0.86657 0.91299 0.0
O141 O 0.55893 0.88138 0.92128 0.0
Cd142 Cd 0.55576 0.83617 0.93836 0.0
O143 O 0.50134 0.82964 0.91391 0.0
Cd144 Cd 0.47492 0.76926 0.92776 0.0
C145 C 0.55755 0.7592 0.92124 0.0
O146 O 0.49099 0.79666 0.94972 0.0
O147 O 0.47777 0.73406 0.94626 0.0
O148 O 0.40956 0.7672 0.92862 0.0
C149 C 0.48307 0.76176 0.9542 0.0
O150 O 0.57581 0.79008 0.92863 0.0
C151 C 0.38824 0.73272 0.92317 0.0
O152 O 0.51979 0.74509 0.91828 0.0
O153 O 0.40727 0.71427 0.91958 0.0
C154 C 0.66132 0.15908 0.20084 0.0
O155 O 0.66302 0.19247 0.20416 0.0
Cd156 Cd 0.68001 0.21849 0.22547 0.0
O157 O 0.66519 0.13625 0.20909 0.0
Cd158 Cd 0.67139 0.13159 0.23244 0.0
C159 C 0.76845 0.21269 0.23078 0.0
O160 O 0.63374 0.1657 0.23961 0.0
O161 O 0.67058 0.15698 0.25375 0.0
O162 O 0.61104 0.06427 0.23007 0.0
C163 C 0.64505 0.16878 0.25114 0.0
O164 O 0.75047 0.23357 0.22909 0.0
C165 C 0.62498 0.04373 0.23564 0.0
O166 O 0.74758 0.17341 0.23168 0.0
O167 O 0.66178 0.06402 0.23978 0.0
H168 H 0.47382 0.69273 0.9656 0.0
H169 H 0.45175 0.66952 0.98732 0.0
H170 H 0.45399 0.78321 -0.00424 0.0
H171 H 0.47578 0.8069 0.97371 0.0
H172 H 0.4902 0.73197 0.01498 0.0
H173 H 0.37278 0.73463 -0.00441 0.0
H174 H 0.32812 0.72527 0.97716 0.0
H175 H 0.29797 0.59888 0.97404 0.0
H176 H 0.34299 0.60774 -0.00766 0.0
H177 H 0.3767 0.61076 0.06909 0.0
H178 H 0.40223 0.66457 0.05268 0.0
H179 H 0.35663 0.5711 0.02349 0.0
H180 H 0.32997 0.51738 0.03981 0.0
H181 H 0.34092 0.62912 0.01708 0.0
H182 H 0.46048 0.62524 0.0333 0.0
H183 H 0.50912 0.63042 0.05 0.0
H184 H 0.53849 0.75462 0.05798 0.0
H185 H 0.48963 0.74997 0.04141 0.0
C186 C 0.47022 0.71322 0.97207 0.0
C187 C 0.47604 0.75147 0.96789 0.0
C188 C 0.45776 0.6999 0.98449 0.0
C189 C 0.45105 0.72457 -0.00697 0.0
C190 C 0.45909 0.76386 0.98922 0.0
C191 C 0.47149 0.77728 0.97667 0.0
C192 C 0.43186 0.70647 0.0054 0.0
C193 C 0.45735 0.71053 0.0157 0.0
C194 C 0.38928 0.67768 0.00607 0.0
C195 C 0.36143 0.67195 -0.00473 0.0
C196 C 0.35683 0.70494 0.99091 0.0
C197 C 0.33143 0.69971 0.9805 0.0
C198 C 0.31028 0.66152 0.97441 0.0
C199 C 0.31438 0.62845 0.97876 0.0
C200 C 0.33978 0.63354 0.98916 0.0
C201 C 0.37201 0.60175 0.05916 0.0
C202 C 0.35153 0.55986 0.05572 0.0
C203 C 0.38669 0.63253 0.0498 0.0
C204 C 0.38174 0.62192 0.03685 0.0
C205 C 0.36069 0.58007 0.03342 0.0
C206 C 0.34561 0.54935 0.04276 0.0
C207 C 0.39932 0.65392 0.02672 0.0
C208 C 0.37348 0.65192 0.01674 0.0
C209 C 0.44169 0.68428 0.02633 0.0
C210 C 0.47106 0.68707 0.03625 0.0
C211 C 0.4771 0.65353 0.03869 0.0
C212 C 0.50473 0.65639 0.04812 0.0
C213 C 0.52677 0.69278 0.05508 0.0
C214 C 0.52132 0.72643 0.0526 0.0
C215 C 0.49368 0.7237 0.04319 0.0
H216 H 0.54816 0.69493 0.06237 0.0
H217 H 0.29067 0.65755 0.96635 0.0
H218 H 0.45656 0.22554 0.34211 0.0
H219 H 0.47652 0.2144 0.32096 0.0
H220 H 0.5886 0.33214 0.32312 0.0
H221 H 0.56757 0.34407 0.34411 0.0
H222 H 0.56339 0.31021 0.29811 0.0
H223 H 0.58775 0.25026 0.33549 0.0
H224 H 0.56684 0.20939 0.35535 0.0
H225 H 0.4812 0.10194 0.33444 0.0
H226 H 0.50116 0.14237 0.31449 0.0
H227 H 0.67213 0.18819 0.27561 0.0
H228 H 0.64787 0.21718 0.29198 0.0
H229 H 0.56098 0.21893 0.26539 0.0
H230 H 0.5859 0.19084 0.24884 0.0
H231 H 0.57587 0.18486 0.30252 0.0
H232 H 0.54102 0.29612 0.27361 0.0
H233 H 0.56712 0.34101 0.25463 0.0
H234 H 0.68606 0.35251 0.25975 0.0
H235 H 0.66085 0.30818 0.27885 0.0
C236 C 0.48441 0.24987 0.33776 0.0
C237 C 0.51058 0.28563 0.34461 0.0
C238 C 0.49593 0.24343 0.32573 0.0
C239 C 0.53452 0.27197 0.32064 0.0
C240 C 0.55874 0.3097 0.3269 0.0
C241 C 0.54672 0.31656 0.33886 0.0
C242 C 0.55244 0.25925 0.31023 0.0
C243 C 0.56597 0.28272 0.299 0.0
C244 C 0.55691 0.22403 0.31158 0.0
C245 C 0.54569 0.19941 0.32352 0.0
C246 C 0.56434 0.21795 0.33514 0.0
C247 C 0.55265 0.19487 0.34642 0.0
C248 C 0.52264 0.15309 0.34617 0.0
C249 C 0.5044 0.13429 0.33463 0.0
C250 C 0.5159 0.15727 0.32334 0.0
C251 C 0.64803 0.19497 0.27321 0.0
C252 C 0.63083 0.18711 0.26095 0.0
C253 C 0.63419 0.21155 0.28258 0.0
C254 C 0.60278 0.22049 0.27991 0.0
C255 C 0.58571 0.21294 0.26763 0.0
C256 C 0.5998 0.19663 0.2582 0.0
C257 C 0.58643 0.23541 0.29021 0.0
C258 C 0.5732 0.21228 0.30151 0.0
C259 C 0.58326 0.27143 0.28899 0.0
C260 C 0.59888 0.29846 0.27758 0.0
C261 C 0.57278 0.30835 0.27071 0.0
C262 C 0.58742 0.33368 0.25993 0.0
C263 C 0.62818 0.34948 0.25597 0.0
C264 C 0.65444 0.34011 0.2628 0.0
C265 C 0.63997 0.31483 0.2736 0.0
H266 H 0.63944 0.36907 0.24761 0.0
H267 H 0.51356 0.13527 0.3549 0.0
H268 H 0.45777 0.79402 0.70835 0.0
H269 H 0.40107 0.76506 0.69317 0.0
H270 H 0.31372 0.72957 0.72406 0.0
H271 H 0.37061 0.75944 0.73936 0.0
H272 H 0.33685 0.6911 0.68873 0.0
H273 H 0.2331 0.74118 0.7135 0.0
H274 H 0.23729 0.79187 0.7293 0.0
H275 H 0.36266 0.87506 0.71837 0.0
H276 H 0.35902 0.82505 0.70242 0.0
H277 H 0.18436 0.64707 0.64205 0.0
H278 H 0.2049 0.64734 0.66432 0.0
H279 H 0.28056 0.77991 0.66285 0.0
H280 H 0.26037 0.77972 0.64081 0.0
H281 H 0.2476 0.75384 0.6865 0.0
H282 H 0.31994 0.72104 0.65376 0.0
H283 H 0.32207 0.67832 0.63625 0.0
H284 H 0.27034 0.57239 0.66091 0.0
H285 H 0.26737 0.61447 0.67852 0.0
C286 C 0.42651 0.77985 0.71194 0.0
C287 C 0.41867 0.7794 0.72504 0.0
C288 C 0.39408 0.76304 0.70325 0.0
C289 C 0.35315 0.74537 0.70747 0.0
C290 C 0.34509 0.74346 0.72059 0.0
C291 C 0.37761 0.76054 0.72931 0.0
C292 C 0.31965 0.73168 0.69794 0.0
C293 C 0.31677 0.7042 0.68839 0.0
C294 C 0.29342 0.74875 0.69745 0.0
C295 C 0.29592 0.77918 0.70692 0.0
C296 C 0.26152 0.77032 0.71447 0.0
C297 C 0.2638 0.79892 0.72345 0.0
C298 C 0.30027 0.83658 0.72488 0.0
C299 C 0.33449 0.84581 0.7173 0.0
C300 C 0.33234 0.81734 0.7083 0.0
C301 C 0.2042 0.67627 0.64667 0.0
C302 C 0.22127 0.71335 0.63973 0.0
C303 C 0.21599 0.67639 0.65934 0.0
C304 C 0.24464 0.71362 0.66516 0.0
C305 C 0.25841 0.75086 0.65856 0.0
C306 C 0.24706 0.75071 0.64594 0.0
C307 C 0.26572 0.71426 0.67715 0.0
C308 C 0.26635 0.7393 0.68716 0.0
C309 C 0.29068 0.69583 0.6779 0.0
C310 C 0.29293 0.6707 0.66739 0.0
C311 C 0.30879 0.68858 0.65542 0.0
C312 C 0.31016 0.6645 0.64548 0.0
C313 C 0.29622 0.62263 0.64745 0.0
C314 C 0.28102 0.6048 0.65938 0.0
C315 C 0.27946 0.62873 0.66934 0.0
H316 H 0.2973 0.60404 0.63975 0.0
H317 H 0.30198 0.85866 0.73184 0.0
H318 H 0.67913 0.19262 0.01043 0.0
H319 H 0.68758 0.21394 0.98786 0.0
H320 H 0.72248 0.33773 -0.00066 0.0
H321 H 0.71476 0.31708 0.02159 0.0
H322 H 0.66702 0.30873 0.97875 0.0
H323 H 0.79506 0.31535 -0.00665 0.0
H324 H 0.83422 0.28336 0.00156 0.0
H325 H 0.79529 0.20105 0.96959 0.0
H326 H 0.75546 0.2323 0.96129 0.0
H327 H 0.80736 0.47553 0.94334 0.0
H328 H 0.77088 0.42057 0.95889 0.0
H329 H 0.76251 0.33073 0.93161 0.0
H330 H 0.79921 0.38593 0.91586 0.0
H331 H 0.78814 0.32084 0.95565 0.0
H332 H 0.67705 0.33033 0.93821 0.0
H333 H 0.63973 0.3643 0.93009 0.0
H334 H 0.64548 0.4157 0.96706 0.0
H335 H 0.68342 0.38261 0.97536 0.0
C336 C 0.68819 0.22421 0.00806 0.0
C337 C 0.69663 0.2533 0.01773 0.0
C338 C 0.69299 0.2363 -0.00477 0.0
C339 C 0.70559 0.27738 -0.00801 0.0
C340 C 0.71251 0.30585 0.00165 0.0
C341 C 0.70838 0.29405 0.01437 0.0
C342 C 0.7146 0.29254 0.9787 0.0
C343 C 0.6932 0.31106 0.9736 0.0
C344 C 0.7479 0.29432 0.97183 0.0
C345 C 0.77188 0.27572 0.9768 0.0
C346 C 0.79459 0.29019 0.98814 0.0
C347 C 0.81695 0.27225 -0.00721 0.0
C348 C 0.81711 0.24008 0.98612 0.0
C349 C 0.79503 0.22589 0.97477 0.0
C350 C 0.77256 0.24369 0.97008 0.0
C351 C 0.79775 0.44412 0.94061 0.0
C352 C 0.80608 0.43505 0.92837 0.0
C353 C 0.77666 0.41269 0.94948 0.0
C354 C 0.76344 0.37154 0.94632 0.0
C355 C 0.77219 0.36229 0.93418 0.0
C356 C 0.79312 0.39382 0.92522 0.0
C357 C 0.74186 0.33893 0.95604 0.0
C358 C 0.76089 0.31717 0.96047 0.0
C359 C 0.70629 0.33414 0.9623 0.0
C360 C 0.68322 0.35402 0.9574 0.0
C361 C 0.67059 0.34908 0.94459 0.0
C362 C 0.64929 0.36817 0.93996 0.0
C363 C 0.64025 0.39215 0.94805 0.0
C364 C 0.65246 0.39707 0.9608 0.0
C365 C 0.67381 0.37808 0.96548 0.0
H366 H 0.62376 0.40691 0.94445 0.0
H367 H 0.83446 0.22624 0.98974 0.0
H368 H 0.21179 0.50808 0.29877 0.0
H369 H 0.20619 0.52491 0.32076 0.0
H370 H 0.32338 0.53516 0.32936 0.0
H371 H 0.32961 0.5185 0.30705 0.0
H372 H 0.23191 0.48973 0.3482 0.0
H373 H 0.35097 0.61456 0.33062 0.0
H374 H 0.38661 0.66147 0.31257 0.0
H375 H 0.28369 0.68047 0.30733 0.0
H376 H 0.24724 0.63316 0.32523 0.0
H377 H 0.20623 0.59673 0.40136 0.0
H378 H 0.23982 0.57419 0.38588 0.0
H379 H 0.19093 0.61347 0.35512 0.0
H380 H 0.15836 0.63697 0.37047 0.0
H381 H 0.26833 0.63651 0.35051 0.0
H382 H 0.14698 0.51036 0.365 0.0
H383 H 0.10332 0.45924 0.38121 0.0
H384 H 0.20311 0.43929 0.39118 0.0
H385 H 0.24749 0.49067 0.37511 0.0
C386 C 0.23615 0.51318 0.30534 0.0
C387 C 0.27144 0.51258 0.30116 0.0
C388 C 0.23274 0.52255 0.31792 0.0
C389 C 0.26447 0.53147 0.32657 0.0
C390 C 0.29862 0.52826 0.32274 0.0
C391 C 0.3021 0.51879 0.31004 0.0
C392 C 0.26304 0.54902 0.33897 0.0
C393 C 0.24119 0.52212 0.349 0.0
C394 C 0.27414 0.59096 0.33974 0.0
C395 C 0.29635 0.62017 0.32919 0.0
C396 C 0.33588 0.62856 0.32556 0.0
C397 C 0.35623 0.65524 0.31537 0.0
C398 C 0.3374 0.67388 0.30879 0.0
C399 C 0.29824 0.666 0.31243 0.0
C400 C 0.27775 0.63931 0.3226 0.0
C401 C 0.20269 0.60054 0.39128 0.0
C402 C 0.17957 0.61851 0.3871 0.0
C403 C 0.22189 0.5876 0.38247 0.0
C404 C 0.21774 0.59194 0.36935 0.0
C405 C 0.19479 0.61005 0.36521 0.0
C406 C 0.17599 0.6233 0.37398 0.0
C407 C 0.23635 0.57709 0.35977 0.0
C408 C 0.26088 0.60455 0.35015 0.0
C409 C 0.22736 0.53557 0.35937 0.0
C410 C 0.20067 0.50469 0.36899 0.0
C411 C 0.15968 0.49528 0.37072 0.0
C412 C 0.1348 0.46623 0.37987 0.0
C413 C 0.15048 0.44614 0.38726 0.0
C414 C 0.19104 0.45495 0.38548 0.0
C415 C 0.21606 0.48401 0.37635 0.0
H416 H 0.13117 0.42366 0.39433 0.0
H417 H 0.35317 0.69448 0.3009 0.0
H418 H 0.72885 0.39081 0.67849 0.0
H419 H 0.71169 0.38819 0.65595 0.0
H420 H 0.78295 0.52102 0.65387 0.0
H421 H 0.80085 0.52348 0.67653 0.0
H422 H 0.7018 0.48992 0.64796 0.0
H423 H 0.80908 0.46843 0.63421 0.0
H424 H 0.85519 0.43923 0.63423 0.0
H425 H 0.7523 0.31872 0.62696 0.0
H426 H 0.70543 0.34703 0.62708 0.0
H427 H 0.61304 0.40617 0.58022 0.0
H428 H 0.67184 0.43546 0.59488 0.0
H429 H 0.58837 0.38803 0.62683 0.0
H430 H 0.52969 0.3588 0.61234 0.0
H431 H 0.69525 0.39676 0.61337 0.0
H432 H 0.62329 0.45898 0.64983 0.0
H433 H 0.57689 0.48788 0.64977 0.0
H434 H 0.61272 0.53038 0.61134 0.0
H435 H 0.6598 0.50229 0.61122 0.0
C436 C 0.74229 0.41926 0.67305 0.0
C437 C 0.76634 0.45729 0.67908 0.0
C438 C 0.7326 0.41779 0.66018 0.0
C439 C 0.7462 0.45442 0.65322 0.0
C440 C 0.77251 0.49244 0.65906 0.0
C441 C 0.78284 0.49384 0.67193 0.0
C442 C 0.72632 0.45258 0.64087 0.0
C443 C 0.70101 0.47024 0.64027 0.0
C444 C 0.7257 0.42729 0.63079 0.0
C445 C 0.75368 0.40992 0.63068 0.0
C446 C 0.79621 0.43565 0.6327 0.0
C447 C 0.8225 0.41925 0.63267 0.0
C448 C 0.80668 0.37714 0.6306 0.0
C449 C 0.76452 0.35134 0.62854 0.0
C450 C 0.73808 0.36758 0.62856 0.0
C451 C 0.60728 0.40205 0.59038 0.0
C452 C 0.56676 0.38035 0.59515 0.0
C453 C 0.64086 0.41868 0.59871 0.0
C454 C 0.63435 0.41429 0.61191 0.0
C455 C 0.59397 0.39223 0.61667 0.0
C456 C 0.56049 0.37543 0.60837 0.0
C457 C 0.66939 0.43234 0.62089 0.0
C458 C 0.69717 0.41754 0.62086 0.0
C459 C 0.67247 0.4604 0.6304 0.0
C460 C 0.645 0.47837 0.63051 0.0
C461 C 0.62154 0.47478 0.6414 0.0
C462 C 0.59504 0.49095 0.64139 0.0
C463 C 0.59181 0.5109 0.63056 0.0
C464 C 0.61518 0.51484 0.61972 0.0
C465 C 0.64175 0.49876 0.61968 0.0
H466 H 0.57122 0.52332 0.63056 0.0
H467 H 0.82709 0.3645 0.63059 0.0
H468 H 0.31946 0.40334 0.2306 0.0
H469 H 0.33436 0.40881 0.20772 0.0
H470 H 0.41769 0.53951 0.2118 0.0
H471 H 0.40212 0.53427 0.23453 0.0
H472 H 0.35122 0.52199 0.19754 0.0
H473 H 0.45112 0.47779 0.19945 0.0
H474 H 0.47771 0.43164 0.20531 0.0
H475 H 0.381 0.33344 0.18389 0.0
H476 H 0.35345 0.37882 0.17804 0.0
H477 H 0.37161 0.56738 0.13238 0.0
H478 H 0.38865 0.56056 0.15437 0.0
H479 H 0.32011 0.42793 0.15092 0.0
H480 H 0.30505 0.43476 0.12865 0.0
H481 H 0.38426 0.44779 0.16478 0.0
H482 H 0.27924 0.48557 0.16506 0.0
H483 H 0.24719 0.52748 0.15986 0.0
H484 H 0.34683 0.63236 0.17818 0.0
H485 H 0.37975 0.59122 0.18333 0.0
C486 C 0.34254 0.43278 0.22671 0.0
C487 C 0.35932 0.4685 0.23422 0.0
C488 C 0.35099 0.43592 0.21363 0.0
C489 C 0.37672 0.4747 0.20805 0.0
C490 C 0.39755 0.50937 0.21591 0.0
C491 C 0.38874 0.50634 0.22889 0.0
C492 C 0.37471 0.48077 0.19419 0.0
C493 C 0.35941 0.50649 0.19037 0.0
C494 C 0.38348 0.45901 0.18489 0.0
C495 C 0.40002 0.43166 0.18839 0.0
C496 C 0.43529 0.44625 0.19608 0.0
C497 C 0.45059 0.42025 0.19938 0.0
C498 C 0.43101 0.37961 0.195 0.0
C499 C 0.39613 0.36492 0.18729 0.0
C500 C 0.38069 0.39079 0.18396 0.0
C501 C 0.36027 0.5368 0.13632 0.0
C502 C 0.33656 0.50159 0.12889 0.0
C503 C 0.36998 0.5329 0.14889 0.0
C504 C 0.35489 0.4937 0.15441 0.0
C505 C 0.33205 0.45849 0.14689 0.0
C506 C 0.32324 0.46241 0.1342 0.0
C507 C 0.36123 0.48944 0.16817 0.0
C508 C 0.37677 0.46377 0.17197 0.0
C509 C 0.35192 0.51062 0.17756 0.0
C510 C 0.33218 0.53544 0.17445 0.0
C511 C 0.29446 0.51766 0.16789 0.0
C512 C 0.27613 0.54126 0.16496 0.0
C513 C 0.29503 0.58259 0.16865 0.0
C514 C 0.33227 0.60038 0.1753 0.0
C515 C 0.35077 0.57693 0.17823 0.0
H516 H 0.28077 0.6008 0.16638 0.0
H517 H 0.4429 0.35953 0.19757 0.0
H518 H 0.44452 0.37866 0.41507 0.0
H519 H 0.43884 0.3913 0.43786 0.0
H520 H 0.45117 0.28609 0.44777 0.0
H521 H 0.4576 0.274 0.42536 0.0
H522 H 0.38985 0.29123 0.46193 0.0
H523 H 0.53369 0.37567 0.44776 0.0
H524 H 0.58825 0.43033 0.43457 0.0
H525 H 0.55638 0.51804 0.44896 0.0
H526 H 0.50125 0.46366 0.46212 0.0
H527 H 0.53864 0.34765 0.51654 0.0
H528 H 0.52381 0.35481 0.49438 0.0
H529 H 0.41155 0.35128 0.5058 0.0
H530 H 0.42599 0.34381 0.52809 0.0
H531 H 0.51171 0.41114 0.48112 0.0
H532 H 0.33964 0.29434 0.48246 0.0
H533 H 0.28879 0.23572 0.49542 0.0
H534 H 0.38226 0.20751 0.50649 0.0
H535 H 0.43346 0.26564 0.49348 0.0
C536 C 0.44547 0.35809 0.42216 0.0
C537 C 0.45193 0.32566 0.41852 0.0
C538 C 0.44222 0.36528 0.43511 0.0
C539 C 0.44449 0.3395 0.44444 0.0
C540 C 0.44906 0.30614 0.44071 0.0
C541 C 0.45309 0.2995 0.42791 0.0
C542 C 0.44584 0.34836 0.4582 0.0
C543 C 0.41589 0.31799 0.46615 0.0
C544 C 0.48003 0.38301 0.46367 0.0
C545 C 0.51305 0.41557 0.45577 0.0
C546 C 0.5381 0.40654 0.44802 0.0
C547 C 0.56916 0.43746 0.44057 0.0
C548 C 0.57568 0.47761 0.44089 0.0
C549 C 0.55121 0.48691 0.44869 0.0
C550 C 0.52006 0.45606 0.45614 0.0
C551 C 0.5109 0.34863 0.51439 0.0
C552 C 0.48331 0.34474 0.52409 0.0
C553 C 0.50264 0.35309 0.50171 0.0
C554 C 0.46657 0.35351 0.49846 0.0
C555 C 0.43949 0.35086 0.50813 0.0
C556 C 0.44778 0.34651 0.52085 0.0
C557 C 0.45627 0.35341 0.48484 0.0
C558 C 0.48461 0.38535 0.47694 0.0
C559 C 0.42089 0.31984 0.4794 0.0
C560 C 0.3904 0.28462 0.48716 0.0
C561 C 0.34926 0.27556 0.48766 0.0
C562 C 0.3204 0.24244 0.495 0.0
C563 C 0.33233 0.21802 0.50181 0.0
C564 C 0.3731 0.22656 0.50125 0.0
C565 C 0.40205 0.25961 0.49391 0.0
H566 H 0.30996 0.19241 0.5075 0.0
H567 H 0.59976 0.50152 0.43512 0.0
H568 H 0.47297 0.77541 0.80549 0.0
H569 H 0.48129 0.80086 0.82726 0.0
H570 H 0.52516 0.92428 0.81304 0.0
H571 H 0.51912 0.89912 0.79118 0.0
H572 H 0.56744 0.93071 0.83228 0.0
H573 H 0.42433 0.8619 0.82577 0.0
H574 H 0.35505 0.80694 0.81946 0.0
H575 H 0.35982 0.72589 0.84755 0.0
H576 H 0.42938 0.78009 0.85389 0.0
H577 H 0.47424 0.88368 0.90296 0.0
H578 H 0.46989 0.89945 0.88059 0.0
H579 H 0.58736 0.90772 0.87346 0.0
H580 H 0.59296 0.89547 0.89597 0.0
H581 H 0.45755 0.8505 0.86389 0.0
H582 H 0.62902 0.9458 0.84569 0.0
H583 H 0.69321 0.00856 0.85178 0.0
H584 H 0.62369 0.0515 0.87276 0.0
H585 H 0.55901 0.98932 0.86664 0.0
C586 C 0.4844 0.80796 0.80701 0.0
C587 C 0.49518 0.83524 0.79666 0.0
C588 C 0.48886 0.8225 0.81946 0.0
C589 C 0.50281 0.86439 0.82184 0.0
C590 C 0.51414 0.89182 0.81149 0.0
C591 C 0.51064 0.87742 0.799 0.0
C592 C 0.50622 0.87925 0.83516 0.0
C593 C 0.54332 0.91344 0.8392 0.0
C594 C 0.47404 0.85808 0.84411 0.0
C595 C 0.43224 0.82508 0.84026 0.0
C596 C 0.41075 0.83226 0.83054 0.0
C597 C 0.3714 0.80124 0.82697 0.0
C598 C 0.35306 0.76294 0.8331 0.0
C599 C 0.37406 0.75557 0.84281 0.0
C600 C 0.41344 0.78646 0.84641 0.0
C601 C 0.50003 0.89116 0.89669 0.0
C602 C 0.53408 0.8888 0.90111 0.0
C603 C 0.49741 0.89973 0.88388 0.0
C604 C 0.52807 0.90447 0.87519 0.0
C605 C 0.56361 0.9052 0.87989 0.0
C606 C 0.56684 0.89806 0.8928 0.0
C607 C 0.51968 0.90084 0.86123 0.0
C608 C 0.48152 0.86859 0.85701 0.0
C609 C 0.55019 0.92504 0.8521 0.0
C610 C 0.58909 0.96268 0.85575 0.0
C611 C 0.62736 0.96872 0.85153 0.0
C612 C 0.66386 0.00419 0.85501 0.0
C613 C 0.66253 0.03396 0.86267 0.0
C614 C 0.62469 0.02835 0.86685 0.0
C615 C 0.58809 0.99296 0.8634 0.0
H616 H 0.69083 0.06138 0.86536 0.0
H617 H 0.32257 0.73899 0.83033 0.0
H618 H 0.58683 0.12516 0.08422 0.0
H619 H 0.57775 0.10956 0.10695 0.0
H620 H 0.66463 0.0662 0.10504 0.0
H621 H 0.67353 0.08136 0.08213 0.0
H622 H 0.59141 0.03138 0.12671 0.0
H623 H 0.71508 0.15393 0.10929 0.0
H624 H 0.74567 0.21061 0.09355 0.0
H625 H 0.66572 0.25441 0.10649 0.0
H626 H 0.63436 0.19762 0.1222 0.0
H627 H 0.67323 0.10041 0.1893 0.0
H628 H 0.66325 0.08071 0.16684 0.0
H629 H 0.62226 0.16796 0.15954 0.0
H630 H 0.63361 0.18883 0.18184 0.0
H631 H 0.67386 0.17549 0.14219 0.0
H632 H 0.55521 0.05979 0.16108 0.0
H633 H 0.51856 0.00127 0.17591 0.0
H634 H 0.58227 0.94292 0.16019 0.0
H635 H 0.61971 0.00138 0.14537 0.0
C636 C 0.60228 0.11019 0.0885 0.0
C637 C 0.6313 0.10498 0.08152 0.0
C638 C 0.59696 0.10118 0.10147 0.0
C639 C 0.62097 0.08733 0.10764 0.0
C640 C 0.6457 0.07668 0.10038 0.0
C641 C 0.65077 0.08538 0.0873 0.0
C642 C 0.62853 0.09519 0.12141 0.0
C643 C 0.60993 0.06268 0.13018 0.0
C644 C 0.65204 0.13618 0.12582 0.0
C645 C 0.6723 0.1715 0.11685 0.0
C646 C 0.70403 0.17564 0.10875 0.0
C647 C 0.72147 0.20774 0.09984 0.0
C648 C 0.70759 0.23605 0.09901 0.0
C649 C 0.67643 0.23246 0.10715 0.0
C650 C 0.65888 0.20038 0.11607 0.0
C651 C 0.66196 0.11529 0.18291 0.0
C652 C 0.65432 0.14628 0.18734 0.0
C653 C 0.65601 0.10379 0.17008 0.0
C654 C 0.64153 0.12248 0.16151 0.0
C655 C 0.63352 0.15313 0.16596 0.0
C656 C 0.64002 0.16505 0.17872 0.0
C657 C 0.6364 0.11168 0.14777 0.0
C658 C 0.65563 0.14393 0.1389 0.0
C659 C 0.61324 0.07043 0.14336 0.0
C660 C 0.59057 0.03516 0.15221 0.0
C661 C 0.56163 0.03462 0.16085 0.0
C662 C 0.54067 0.00144 0.16924 0.0
C663 C 0.54817 0.96846 0.16902 0.0
C664 C 0.57654 0.96852 0.16037 0.0
C665 C 0.59761 0.00165 0.15196 0.0
H666 H 0.53192 0.9428 0.17553 0.0
H667 H 0.72102 0.26081 0.09208 0.0
H668 H 0.07384 0.66218 0.56656 0.0
H669 H 0.06194 0.65249 0.54347 0.0
H670 H 0.15994 0.62444 0.54024 0.0
H671 H 0.1717 0.63344 0.56309 0.0
H672 H 0.16753 0.69989 0.52683 0.0
H673 H 0.07794 0.55238 0.53391 0.0
H674 H 0.0166 0.49171 0.54279 0.0
H675 H 0.93815 0.52716 0.52342 0.0
H676 H -0.00087 0.58844 0.51458 0.0
H677 H 0.2005 0.65614 0.46547 0.0
H678 H 0.18472 0.65095 0.48813 0.0
H679 H 0.0704 0.64771 0.47996 0.0
H680 H 0.08566 0.65235 0.4571 0.0
H681 H 0.06148 0.59243 0.49897 0.0
H682 H 0.14813 0.73509 0.49017 0.0
H683 H 0.2079 0.79712 0.48122 0.0
H684 H 0.28963 0.77447 0.50404 0.0
H685 H 0.23038 0.71193 0.51298 0.0
C686 C 0.09185 0.65257 0.56098 0.0
C687 C 0.12416 0.64924 0.5666 0.0
C688 C 0.08504 0.64711 0.54782 0.0
C689 C 0.11034 0.63812 0.54022 0.0
C690 C 0.14023 0.6315 0.54598 0.0
C691 C 0.14693 0.63676 0.55904 0.0
C692 C 0.11068 0.6419 0.52623 0.0
C693 C 0.14444 0.67635 0.52072 0.0
C694 C 0.07964 0.61196 0.51837 0.0
C695 C 0.0431 0.57531 0.52375 0.0
C696 C 0.04764 0.54754 0.53168 0.0
C697 C 0.01293 0.51296 0.53667 0.0
C698 C 0.97351 0.50567 0.53371 0.0
C699 C 0.96871 0.5329 0.52573 0.0
C700 C 0.00333 0.56754 0.52073 0.0
C701 C 0.17191 0.65421 0.46844 0.0
C702 C 0.14454 0.65508 0.45947 0.0
C703 C 0.16296 0.65128 0.48141 0.0
C704 C 0.12669 0.64957 0.48572 0.0
C705 C 0.09862 0.64915 0.47681 0.0
C706 C 0.10751 0.65199 0.46377 0.0
C707 C 0.11932 0.64965 0.49957 0.0
C708 C 0.08426 0.61628 0.50506 0.0
C709 C 0.14896 0.6809 0.50749 0.0
C710 C 0.18478 0.71864 0.50218 0.0
C711 C 0.17886 0.74316 0.49321 0.0
C712 C 0.21265 0.77844 0.48815 0.0
C713 C 0.25254 0.78969 0.49204 0.0
C714 C 0.25871 0.76572 0.50103 0.0
C715 C 0.22502 0.73037 0.50611 0.0
H716 H 0.27866 0.81702 0.48812 0.0
H717 H 0.94667 0.47887 0.53758 0.0
H718 H 0.90784 0.56337 0.85852 0.0
H719 H 0.93008 0.57337 0.83622 0.0
H720 H 0.82742 0.45376 0.82696 0.0
H721 H 0.80497 0.44341 0.84915 0.0
H722 H 0.90136 0.46891 0.81574 0.0
H723 H 0.82153 0.53873 0.82169 0.0
H724 H 0.80817 0.59041 0.83173 0.0
H725 H 0.92729 0.68727 0.81978 0.0
H726 H 0.94152 0.63603 0.8098 0.0
H727 H 0.82454 0.44935 0.75511 0.0
H728 H 0.84521 0.45542 0.77721 0.0
H729 H 0.93929 0.5821 0.77085 0.0
H730 H 0.91771 0.57648 0.74851 0.0
H731 H 0.89371 0.57695 0.79044 0.0
H732 H 0.96536 0.50783 0.77962 0.0
H733 H 0.97842 0.45637 0.76933 0.0
H734 H 0.87797 0.3593 0.79015 0.0
H735 H 0.86385 0.41005 0.80044 0.0
C736 C 0.89008 0.53911 0.85175 0.0
C737 C 0.85446 0.50266 0.8556 0.0
C738 C 0.90288 0.54491 0.83903 0.0
C739 C 0.88034 0.51433 0.82997 0.0
C740 C 0.84533 0.47763 0.83384 0.0
C741 C 0.83239 0.4719 0.84651 0.0
C742 C 0.89163 0.52082 0.81632 0.0
C743 C 0.89982 0.49252 0.81015 0.0
C744 C 0.89147 0.55285 0.8092 0.0
C745 C 0.8828 0.58355 0.81516 0.0
C746 C 0.84499 0.57102 0.8213 0.0
C747 C 0.83724 0.60022 0.82696 0.0
C748 C 0.86693 0.64208 0.82643 0.0
C749 C 0.90437 0.65483 0.82021 0.0
C750 C 0.91229 0.62573 0.81455 0.0
C751 C 0.85019 0.47836 0.75829 0.0
C752 C 0.86921 0.51258 0.75008 0.0
C753 C 0.86232 0.48166 0.77096 0.0
C754 C 0.89416 0.51909 0.7757 0.0
C755 C 0.91478 0.55285 0.76737 0.0
C756 C 0.90253 0.54956 0.75461 0.0
C757 C 0.90144 0.52365 0.78965 0.0
C758 C 0.89676 0.55409 0.79596 0.0
C759 C 0.9051 0.49368 0.7969 0.0
C760 C 0.91353 0.46286 0.7908 0.0
C761 C 0.94589 0.4755 0.78196 0.0
C762 C 0.95351 0.44644 0.77613 0.0
C763 C 0.92904 0.4046 0.77909 0.0
C764 C 0.89694 0.39173 0.78789 0.0
C765 C 0.88918 0.42066 0.79375 0.0
H766 H 0.93498 0.38214 0.77456 0.0
H767 H 0.86086 0.66465 0.83082 0.0
H768 H 0.83185 0.21423 0.0622 0.0
H769 H 0.90377 0.24849 0.06867 0.0
H770 H 0.89438 0.35167 0.08267 0.0
H771 H 0.82173 0.31732 0.07616 0.0
H772 H 0.96163 0.37503 0.06684 0.0
H773 H 0.90307 0.28871 0.10339 0.0
H774 H 0.85957 0.22352 0.11488 0.0
H775 H 0.92873 0.1716 0.09872 0.0
H776 H 0.97227 0.23628 0.08695 0.0
H777 H 0.16085 0.47695 0.09295 0.0
H778 H 0.08622 0.44088 0.09093 0.0
H779 H 0.08687 0.33177 0.07824 0.0
H780 H 0.16212 0.36767 0.08043 0.0
H781 H 0.02322 0.31243 0.0945 0.0
H782 H 0.07802 0.39515 0.05692 0.0
H783 H 0.12078 0.45877 0.0446 0.0
H784 H 0.0579 0.51568 0.0619 0.0
H785 H 0.01513 0.45255 0.07447 0.0
C786 C 0.84482 0.24407 0.06675 0.0
C787 C 0.82102 0.26314 0.06859 0.0
C788 C 0.88598 0.26352 0.07052 0.0
C789 C 0.90443 0.30253 0.07622 0.0
C790 C 0.88068 0.32149 0.0783 0.0
C791 C 0.83917 0.30179 0.07462 0.0
C792 C 0.94912 0.32421 0.07925 0.0
C793 C 0.97501 0.36178 0.0731 0.0
C794 C 0.9667 0.30617 0.08707 0.0
C795 C 0.94075 0.26728 0.0942 0.0
C796 C 0.90882 0.26329 0.1022 0.0
C797 C 0.88418 0.22644 0.10878 0.0
C798 C 0.89134 0.19341 0.10751 0.0
C799 C 0.92321 0.1972 0.09968 0.0
C800 C 0.94791 0.23398 0.09307 0.0
C801 C 0.14529 0.44521 0.08977 0.0
C802 C 0.16768 0.42536 0.08673 0.0
C803 C 0.10249 0.42465 0.08859 0.0
C804 C 0.08094 0.38385 0.08422 0.0
C805 C 0.10289 0.36334 0.08158 0.0
C806 C 0.14591 0.38391 0.08281 0.0
C807 C 0.0357 0.36327 0.08208 0.0
C808 C 0.00977 0.32587 0.08834 0.0
C809 C 0.01802 0.38127 0.07428 0.0
C810 C 0.04368 0.41927 0.06673 0.0
C811 C 0.07354 0.42135 0.05817 0.0
C812 C 0.09774 0.4573 0.05113 0.0
C813 C 0.09214 0.49129 0.05249 0.0
C814 C 0.06225 0.48935 0.06088 0.0
C815 C 0.038 0.45349 0.06795 0.0
H816 H 0.11089 0.51909 0.04703 0.0
H817 H 0.87223 0.1649 0.11261 0.0
H818 H 0.46066 0.1452 0.39677 0.0
H819 H 0.41871 0.07109 0.40101 0.0
H820 H 0.30815 0.07704 0.3947 0.0
H821 H 0.34968 0.15097 0.39045 0.0
H822 H 0.30213 0.02876 0.41576 0.0
H823 H 0.34187 0.04268 0.37169 0.0
H824 H 0.39132 0.06815 0.35382 0.0
H825 H 0.45203 0.00623 0.36923 0.0
H826 H 0.40337 0.98096 0.38731 0.0
H827 H 0.1683 0.80975 0.40923 0.0
H828 H 0.20467 0.88453 0.40545 0.0
H829 H 0.32121 0.88814 0.40825 0.0
H830 H 0.28557 0.81414 0.41187 0.0
H831 H 0.32107 0.93191 0.38826 0.0
H832 H 0.28499 0.92069 0.43262 0.0
H833 H 0.23821 0.89681 0.45116 0.0
H834 H 0.17281 0.95408 0.43585 0.0
H835 H 0.21889 0.97783 0.41712 0.0
C836 C 0.42742 0.13082 0.39638 0.0
C837 C 0.40856 0.15398 0.39318 0.0
C838 C 0.4035 0.08845 0.39876 0.0
C839 C 0.36033 0.06853 0.39805 0.0
C840 C 0.3414 0.09179 0.39528 0.0
C841 C 0.36525 0.13403 0.3928 0.0
C842 C 0.33495 0.02319 0.39976 0.0
C843 C 0.30582 0.0075 0.40965 0.0
C844 C 0.34026 0.99557 0.39189 0.0
C845 C 0.36919 0.01024 0.38092 0.0
C846 C 0.36595 0.03474 0.37132 0.0
C847 C 0.39381 0.04912 0.36115 0.0
C848 C 0.42485 0.03889 0.36041 0.0
C849 C 0.428 0.01417 0.36983 0.0
C850 C 0.40027 -0.00021 0.38003 0.0
C851 C 0.20166 0.82651 0.40904 0.0
C852 C 0.22391 0.80581 0.41088 0.0
C853 C 0.22241 0.86926 0.40692 0.0
C854 C 0.26572 0.89199 0.40662 0.0
C855 C 0.28783 0.87131 0.40839 0.0
C856 C 0.26726 0.82886 0.41052 0.0
C857 C 0.2885 0.9373 0.40439 0.0
C858 C 0.31714 0.95306 0.39435 0.0
C859 C 0.28289 0.96494 0.41218 0.0
C860 C 0.25506 0.95058 0.42339 0.0
C861 C 0.26039 0.92785 0.43315 0.0
C862 C 0.23406 0.91441 0.4437 0.0
C863 C 0.20247 0.92381 0.44466 0.0
C864 C 0.19723 0.94675 0.43508 0.0
C865 C 0.22345 0.96022 0.42449 0.0
H866 H 0.18213 0.9134 0.45284 0.0
H867 H 0.44639 0.05001 0.35254 0.0
H868 H 0.77378 0.61644 0.71818 0.0
H869 H 0.74101 0.65611 0.72391 0.0
H870 H 0.64352 0.5497 0.74291 0.0
H871 H 0.67604 0.50916 0.73703 0.0
H872 H 0.61364 0.58811 0.72815 0.0
H873 H 0.7192 0.63016 0.7599 0.0
H874 H 0.78997 0.65658 0.76777 0.0
H875 H 0.83035 0.76977 0.74723 0.0
H876 H 0.75991 0.7438 0.73909 0.0
H877 H 0.52408 0.68771 0.75988 0.0
H878 H 0.56127 0.65136 0.75553 0.0
H879 H 0.6571 0.75929 0.73664 0.0
H880 H 0.62002 0.79655 0.74118 0.0
H881 H 0.68878 0.7212 0.75118 0.0
H882 H 0.58467 0.67999 0.71927 0.0
H883 H 0.5145 0.6542 0.71095 0.0
H884 H 0.47225 0.54016 0.73118 0.0
H885 H 0.54207 0.5655 0.73978 0.0
C886 C 0.74541 0.60126 0.72362 0.0
C887 C 0.72764 0.55947 0.72717 0.0
C888 C 0.72681 0.6242 0.72695 0.0
C889 C 0.69013 0.60615 0.73402 0.0
C890 C 0.67197 0.56435 0.7375 0.0
C891 C 0.69061 0.54123 0.73415 0.0
C892 C 0.67036 0.63081 0.73742 0.0
C893 C 0.62985 0.61684 0.73338 0.0
C894 C 0.69199 0.66909 0.74385 0.0
C895 C 0.73433 0.68487 0.74879 0.0
C896 C 0.74323 0.66056 0.75698 0.0
C897 C 0.78327 0.67548 0.76151 0.0
C898 C 0.81465 0.71479 0.75798 0.0
C899 C 0.80602 0.73931 0.74995 0.0
C900 C 0.76603 0.72452 0.74538 0.0
C901 C 0.55317 0.704 0.75485 0.0
C902 C 0.56882 0.74501 0.75075 0.0
C903 C 0.57436 0.68301 0.75233 0.0
C904 C 0.61153 0.70222 0.74551 0.0
C905 C 0.62829 0.74374 0.74185 0.0
C906 C 0.60709 0.765 0.74445 0.0
C907 C 0.63196 0.67827 0.74201 0.0
C908 C 0.67258 0.69241 0.74598 0.0
C909 C 0.61055 0.64022 0.73545 0.0
C910 C 0.56853 0.6248 0.73026 0.0
C911 C 0.56035 0.64953 0.72203 0.0
C912 C 0.52065 0.63497 0.71725 0.0
C913 C 0.48892 0.59561 0.72056 0.0
C914 C 0.49685 0.57067 0.72864 0.0
C915 C 0.53649 0.58509 0.73345 0.0
H916 H 0.4582 0.58439 0.71685 0.0
H917 H 0.84564 0.72628 0.76149 0.0
H918 H 0.46646 0.17794 0.56379 0.0
H919 H 0.42805 0.10358 0.56684 0.0
H920 H 0.32362 0.11125 0.58052 0.0
H921 H 0.36223 0.18642 0.57756 0.0
H922 H 0.34093 0.06263 0.59578 0.0
H923 H 0.32135 0.07299 0.55125 0.0
H924 H 0.34211 0.09629 0.52911 0.0
H925 H 0.41515 0.03729 0.52839 0.0
H926 H 0.39532 0.01414 0.5506 0.0
H927 H 0.20346 0.84815 0.59556 0.0
H928 H 0.23664 0.92133 0.59049 0.0
H929 H 0.34398 0.91888 0.57694 0.0
H930 H 0.31069 0.84497 0.58191 0.0
H931 H 0.32294 0.96457 0.56129 0.0
H932 H 0.34484 0.95667 0.60597 0.0
H933 H 0.32429 0.93322 0.62811 0.0
H934 H 0.24719 0.98779 0.6285 0.0
H935 H 0.26683 0.01106 0.60628 0.0
C936 C 0.43526 0.16401 0.5674 0.0
C937 C 0.41747 0.18834 0.57043 0.0
C938 C 0.41323 0.12131 0.56907 0.0
C939 C 0.37278 0.10171 0.57377 0.0
C940 C 0.35478 0.12574 0.57683 0.0
C941 C 0.37683 0.16867 0.5751 0.0
C942 C 0.35014 0.05631 0.57585 0.0
C943 C 0.33633 0.04114 0.58818 0.0
C944 C 0.34516 0.02831 0.56602 0.0
C945 C 0.35713 0.04214 0.55264 0.0
C946 C 0.34212 0.06527 0.54641 0.0
C947 C 0.35366 0.07839 0.53384 0.0
C948 C 0.38 0.06835 0.52736 0.0
C949 C 0.39478 0.04508 0.53343 0.0
C950 C 0.38336 0.03191 0.546 0.0
C951 C 0.23409 0.86295 0.59146 0.0
C952 C 0.25452 0.84059 0.58924 0.0
C953 C 0.25306 0.90494 0.5886 0.0
C954 C 0.29303 0.92576 0.58352 0.0
C955 C 0.31315 0.90343 0.58091 0.0
C956 C 0.29413 0.86122 0.58378 0.0
C957 C 0.31387 0.97099 0.58121 0.0
C958 C 0.32739 0.98608 0.56886 0.0
C959 C 0.31865 -0.00104 0.59102 0.0
C960 C 0.307 0.98526 0.60442 0.0
C961 C 0.32326 0.9634 0.61074 0.0
C962 C 0.31182 0.95018 0.62331 0.0
C963 C 0.28437 0.95892 0.6297 0.0
C964 C 0.2684 0.98099 0.62353 0.0
C965 C 0.27971 0.99423 0.61095 0.0
H966 H 0.27555 0.94866 0.63943 0.0
H967 H 0.3889 0.07854 0.51762 0.0
H968 H 0.52776 0.68446 0.9091 0.0
H969 H 0.56648 0.64992 0.90334 0.0
H970 H 0.67819 0.75402 0.91735 0.0
H971 H 0.64016 0.78872 0.92297 0.0
H972 H 0.69266 0.72546 0.89558 0.0
H973 H 0.62443 0.66887 0.93564 0.0
H974 H 0.5646 0.63481 0.95009 0.0
H975 H 0.50981 0.52826 0.9259 0.0
H976 H 0.56911 0.56196 0.91122 0.0
H977 H 0.8163 0.63144 0.90564 0.0
H978 H 0.77778 0.66814 0.90789 0.0
H979 H 0.66714 0.55973 0.89533 0.0
H980 H 0.7049 0.52285 0.89331 0.0
H981 H 0.65103 0.59 0.91559 0.0
H982 H 0.72113 0.64556 0.87592 0.0
H983 H 0.78119 0.67988 0.86158 0.0
H984 H 0.83274 0.78831 0.88494 0.0
H985 H 0.77322 0.75441 0.89953 0.0
C986 C 0.56064 0.70016 0.91081 0.0
C987 C 0.58073 0.7392 0.9166 0.0
C988 C 0.58271 0.68033 0.90757 0.0
C989 C 0.62519 0.6992 0.91006 0.0
C990 C 0.64548 0.73882 0.91535 0.0
C991 C 0.62354 0.75853 0.91861 0.0
C992 C 0.64843 0.67723 0.90776 0.0
C993 C 0.68375 0.69597 0.90002 0.0
C994 C 0.63651 0.63849 0.91341 0.0
C995 C 0.60097 0.61811 0.92226 0.0
C996 C 0.59947 0.6383 0.93336 0.0
C997 C 0.56569 0.61905 0.9416 0.0
C998 C 0.53337 0.57945 0.9389 0.0
C999 C 0.53483 0.55897 0.92797 0.0
C1000 C 0.56852 0.57812 0.91969 0.0
C1001 C 0.78384 0.61554 0.90329 0.0
C1002 C 0.76377 0.57414 0.89933 0.0
C1003 C 0.76185 0.63659 0.90453 0.0
C1004 C 0.71952 0.61678 0.9017 0.0
C1005 C 0.69967 0.57567 0.89761 0.0
C1006 C 0.72146 0.55463 0.89644 0.0
C1007 C 0.69532 0.63812 0.90336 0.0
C1008 C 0.65985 0.61933 0.91105 0.0
C1009 C 0.70715 0.6768 0.89766 0.0
C1010 C 0.74291 0.69729 0.88889 0.0
C1011 C 0.74543 0.6766 0.87806 0.0
C1012 C 0.77935 0.696 0.86987 0.0
C1013 C 0.81081 0.73621 0.87237 0.0
C1014 C 0.80837 0.75714 0.88303 0.0
C1015 C 0.77454 0.73786 0.89126 0.0
H1016 H 0.83704 0.75117 0.86602 0.0
H1017 H 0.50724 0.56458 0.94529 0.0
H1018 H 0.1557 0.35882 0.24928 0.0
H1019 H 0.08304 0.32112 0.24338 0.0
H1020 H 0.08328 0.43589 0.2394 0.0
H1021 H 0.1565 0.47409 0.24522 0.0
H1022 H 0.02036 0.37847 0.25512 0.0
H1023 H 0.07431 0.3826 0.21357 0.0
H1024 H 0.11731 0.3739 0.1975 0.0
H1025 H 0.05622 0.244 0.20545 0.0
H1026 H 0.01324 0.25201 0.22172 0.0
H1027 H 0.82022 0.29595 0.2305 0.0
H1028 H 0.89474 0.33387 0.23276 0.0
H1029 H 0.89567 0.21947 0.23574 0.0
H1030 H 0.82038 0.18078 0.23341 0.0
H1031 H 0.95828 0.27693 0.22008 0.0
H1032 H 0.90622 0.2725 0.26197 0.0
H1033 H 0.86361 0.28044 0.27837 0.0
H1034 H 0.92185 0.41006 0.2702 0.0
H1035 H 0.96442 0.40279 0.25361 0.0
C1036 C 0.14051 0.37615 0.24697 0.0
C1037 C 0.16184 0.41947 0.24776 0.0
C1038 C 0.09898 0.35452 0.24355 0.0
C1039 C 0.07776 0.37568 0.24093 0.0
C1040 C 0.09915 0.419 0.24137 0.0
C1041 C 0.14099 0.44077 0.24463 0.0
C1042 C 0.03266 0.35223 0.23864 0.0
C1043 C 0.0068 0.35684 0.24732 0.0
C1044 C 0.015 0.32295 0.22872 0.0
C1045 C 0.04082 0.31798 0.21896 0.0
C1046 C 0.0703 0.35223 0.21198 0.0
C1047 C 0.09462 0.34741 0.20282 0.0
C1048 C 0.08957 0.30844 0.20048 0.0
C1049 C 0.06013 0.27418 0.20728 0.0
C1050 C 0.03575 0.27884 0.21647 0.0
C1051 C 0.83605 0.2786 0.23161 0.0
C1052 C 0.8141 0.23516 0.23184 0.0
C1053 C 0.87878 0.30046 0.23293 0.0
C1054 C 0.90074 0.27956 0.23457 0.0
C1055 C 0.87925 0.23621 0.23452 0.0
C1056 C 0.83624 0.21416 0.23323 0.0
C1057 C 0.94604 0.30335 0.23654 0.0
C1058 C 0.97188 0.29871 0.22784 0.0
C1059 C 0.96378 0.3325 0.24649 0.0
C1060 C 0.93821 0.33701 0.25645 0.0
C1061 C 0.90969 0.30264 0.26359 0.0
C1062 C 0.88559 0.30703 0.27293 0.0
C1063 C 0.88994 0.34571 0.2753 0.0
C1064 C 0.91848 0.3801 0.26835 0.0
C1065 C 0.94262 0.37587 0.25898 0.0
H1066 H 0.87127 0.34905 0.28255 0.0
H1067 H 0.10842 0.30476 0.19338 0.0
H1068 H 0.64635 0.33458 0.07519 0.0
H1069 H 0.59742 0.35892 0.07881 0.0
H1070 H 0.49756 0.24113 0.06667 0.0
H1071 H 0.54609 0.21686 0.06291 0.0
H1072 H 0.49302 0.30267 0.05536 0.0
H1073 H 0.5108 0.26842 0.09804 0.0
H1074 H 0.55 0.27026 0.11713 0.0
H1075 H 0.59948 0.40102 0.12012 0.0
H1076 H 0.56101 0.40006 0.10094 0.0
H1077 H 0.33266 0.34313 0.07356 0.0
H1078 H 0.37648 0.3119 0.07168 0.0
H1079 H 0.48073 0.42485 0.085 0.0
H1080 H 0.43725 0.45566 0.08717 0.0
H1081 H 0.48025 0.36195 0.09614 0.0
H1082 H 0.46606 0.39716 0.05294 0.0
H1083 H 0.4281 0.3962 0.03363 0.0
H1084 H 0.37301 0.26455 0.03149 0.0
H1085 H 0.41027 0.26469 0.05088 0.0
C1086 C 0.61393 0.31379 0.0734 0.0
C1087 C 0.60016 0.27382 0.06875 0.0
C1088 C 0.58597 0.32768 0.0755 0.0
C1089 C 0.54373 0.30176 0.07307 0.0
C1090 C 0.52996 0.26171 0.06858 0.0
C1091 C 0.5578 0.24785 0.06648 0.0
C1092 C 0.51397 0.31667 0.07478 0.0
C1093 C 0.48979 0.31507 0.06434 0.0
C1094 C 0.51027 0.33358 0.08641 0.0
C1095 C 0.53331 0.33422 0.09798 0.0
C1096 C 0.53029 0.29762 0.10271 0.0
C1097 C 0.55233 0.29849 0.11356 0.0
C1098 C 0.57729 0.33574 0.11981 0.0
C1099 C 0.58017 0.37219 0.11525 0.0
C1100 C 0.55822 0.37149 0.1044 0.0
C1101 C 0.3649 0.36121 0.07609 0.0
C1102 C 0.38144 0.40188 0.08049 0.0
C1103 C 0.38997 0.34341 0.07498 0.0
C1104 C 0.43208 0.36616 0.07809 0.0
C1105 C 0.4484 0.40661 0.08257 0.0
C1106 C 0.42343 0.42424 0.08376 0.0
C1107 C 0.45955 0.34832 0.07668 0.0
C1108 C 0.48331 0.34935 0.08718 0.0
C1109 C 0.46298 0.33101 0.06509 0.0
C1110 C 0.44058 0.33089 0.05343 0.0
C1111 C 0.4456 0.36798 0.0484 0.0
C1112 C 0.42426 0.36759 0.03744 0.0
C1113 C 0.39806 0.33033 0.03136 0.0
C1114 C 0.39325 0.29338 0.03622 0.0
C1115 C 0.41449 0.2936 0.04719 0.0
H1116 H 0.38158 0.33009 0.02287 0.0
H1117 H 0.59433 0.33636 0.12821 0.0
H1118 H 0.64368 0.42402 0.38915 0.0
H1119 H 0.7169 0.47065 0.39285 0.0
H1120 H 0.73298 0.3669 0.40145 0.0
H1121 H 0.65924 0.31968 0.39775 0.0
H1122 H 0.7725 0.43178 0.41877 0.0
H1123 H 0.76346 0.41322 0.37329 0.0
H1124 H 0.73639 0.41261 0.35184 0.0
H1125 H 0.77573 0.54138 0.3551 0.0
H1126 H 0.80252 0.54262 0.37666 0.0
H1127 H 0.98889 0.53234 0.41598 0.0
H1128 H 0.91532 0.48724 0.41272 0.0
H1129 H 0.90481 0.59086 0.39956 0.0
H1130 H 0.97924 0.63628 0.40246 0.0
H1131 H 0.86162 0.52695 0.38475 0.0
H1132 H 0.87095 0.54737 0.42973 0.0
H1133 H 0.89701 0.54967 0.45145 0.0
H1134 H 0.856 0.42025 0.44966 0.0
H1135 H 0.83018 0.41728 0.42785 0.0
C1136 C 0.66268 0.41098 0.39183 0.0
C1137 C 0.6456 0.36805 0.39311 0.0
C1138 C 0.70462 0.43774 0.3939 0.0
C1139 C 0.73049 0.42226 0.3973 0.0
C1140 C 0.71353 0.37948 0.3988 0.0
C1141 C 0.67146 0.35254 0.39665 0.0
C1142 C 0.77521 0.45092 0.39928 0.0
C1143 C 0.79218 0.45218 0.41129 0.0
C1144 C 0.80049 0.47853 0.38964 0.0
C1145 C 0.78464 0.4779 0.37664 0.0
C1146 C 0.76605 0.44133 0.36947 0.0
C1147 C 0.75081 0.44088 0.35729 0.0
C1148 C 0.75424 0.4769 0.35212 0.0
C1149 C 0.77304 0.51348 0.35912 0.0
C1150 C 0.78829 0.51408 0.37132 0.0
C1151 C 0.97099 0.5457 0.41244 0.0
C1152 C 0.98992 0.58801 0.40954 0.0
C1153 C 0.92878 0.51982 0.41064 0.0
C1154 C 0.90423 0.53567 0.40611 0.0
C1155 C 0.92305 0.57791 0.40312 0.0
C1156 C 0.96555 0.60387 0.40481 0.0
C1157 C 0.85918 0.50778 0.40425 0.0
C1158 C 0.84206 0.50666 0.39227 0.0
C1159 C 0.83364 0.48058 0.41396 0.0
C1160 C 0.84894 0.48219 0.42711 0.0
C1161 C 0.86775 0.51946 0.43393 0.0
C1162 C 0.88244 0.52087 0.44627 0.0
C1163 C 0.87825 0.48515 0.45192 0.0
C1164 C 0.85926 0.4479 0.44527 0.0
C1165 C 0.84454 0.44633 0.43292 0.0
H1166 H 0.88965 0.48631 0.46147 0.0
H1167 H 0.74242 0.47649 0.34269 0.0
H1168 H 0.76322 0.3222 0.72522 0.0
H1169 H 0.73507 0.24845 0.72856 0.0
H1170 H 0.61538 0.23381 0.7361 0.0
H1171 H 0.64351 0.30812 0.73283 0.0
H1172 H 0.63574 0.19085 0.75318 0.0
H1173 H 0.63481 0.20556 0.70775 0.0
H1174 H 0.66486 0.23483 0.68675 0.0
H1175 H 0.7522 0.19332 0.69116 0.0
H1176 H 0.72304 0.16431 0.71228 0.0
H1177 H 0.52018 0.97449 0.74863 0.0
H1178 H 0.54852 0.04815 0.74519 0.0
H1179 H 0.66563 0.06058 0.73486 0.0
H1180 H 0.63691 0.98613 0.738 0.0
H1181 H 0.6472 0.10507 0.71924 0.0
H1182 H 0.64926 0.09066 0.76449 0.0
H1183 H 0.62058 0.06195 0.78566 0.0
H1184 H 0.53315 0.10358 0.7819 0.0
H1185 H 0.56094 0.13205 0.76062 0.0
C1186 C 0.73089 0.30342 0.72762 0.0
C1187 C 0.70555 0.32108 0.72871 0.0
C1188 C 0.71482 0.26116 0.72947 0.0
C1189 C 0.673 0.23548 0.73241 0.0
C1190 C 0.64773 0.25305 0.73379 0.0
C1191 C 0.66381 0.29548 0.7319 0.0
C1192 C 0.6559 0.19033 0.73402 0.0
C1193 C 0.63768 0.17196 0.7457 0.0
C1194 C 0.65955 0.1659 0.72439 0.0
C1195 C 0.67697 0.1831 0.71165 0.0
C1196 C 0.66063 0.20295 0.70429 0.0
C1197 C 0.67747 0.21945 0.69236 0.0
C1198 C 0.71048 0.21603 0.68764 0.0
C1199 C 0.72665 0.19599 0.69483 0.0
C1200 C 0.70996 0.17948 0.70678 0.0
C1201 C 0.552 0.9928 0.74563 0.0
C1202 C 0.57639 0.97444 0.74368 0.0
C1203 C 0.56824 0.03505 0.74372 0.0
C1204 C 0.60947 0.06019 0.74001 0.0
C1205 C 0.63377 0.04187 0.7378 0.0
C1206 C 0.61738 -0.00064 0.73961 0.0
C1207 C 0.62691 0.10546 0.73841 0.0
C1208 C 0.64524 0.12391 0.72674 0.0
C1209 C 0.62358 0.13002 0.74808 0.0
C1210 C 0.60695 0.11316 0.76091 0.0
C1211 C 0.62373 0.09344 0.76814 0.0
C1212 C 0.60766 0.07725 0.78016 0.0
C1213 C 0.575 0.08085 0.78511 0.0
C1214 C 0.55842 0.10077 0.77805 0.0
C1215 C 0.57434 0.11698 0.76601 0.0
H1216 H 0.5626 0.06829 0.79442 0.0
H1217 H 0.72348 0.22882 0.6784 0.0
H1218 H 0.33878 0.67534 0.58434 0.0
H1219 H 0.36605 0.62857 0.58095 0.0
H1220 H 0.26524 0.53404 0.60271 0.0
H1221 H 0.23792 0.58031 0.60611 0.0
H1222 H 0.33891 0.53895 0.60868 0.0
H1223 H 0.2612 0.53001 0.57117 0.0
H1224 H 0.24221 0.55725 0.55256 0.0
H1225 H 0.36409 0.60598 0.53723 0.0
H1226 H 0.384 0.57952 0.55585 0.0
H1227 H 0.35551 0.36544 0.58888 0.0
H1228 H 0.32928 0.41256 0.59318 0.0
H1229 H 0.42413 0.50475 0.56911 0.0
H1230 H 0.44988 0.45789 0.56463 0.0
H1231 H 0.35318 0.50102 0.56449 0.0
H1232 H 0.4313 0.51008 0.60184 0.0
H1233 H 0.45085 0.48336 0.62045 0.0
H1234 H 0.32947 0.4352 0.63614 0.0
H1235 H 0.30903 0.46118 0.61752 0.0
C1236 C 0.32268 0.64472 0.58848 0.0
C1237 C 0.28605 0.63143 0.59541 0.0
C1238 C 0.33817 0.61798 0.5865 0.0
C1239 C 0.31742 0.57766 0.59148 0.0
C1240 C 0.28171 0.56495 0.59877 0.0
C1241 C 0.26606 0.59143 0.60065 0.0
C1242 C 0.33195 0.54808 0.58878 0.0
C1243 C 0.34167 0.53033 0.59903 0.0
C1244 C 0.33612 0.5373 0.57618 0.0
C1245 C 0.32422 0.55319 0.56497 0.0
C1246 C 0.28406 0.54685 0.56388 0.0
C1247 C 0.27311 0.56209 0.55333 0.0
C1248 C 0.30196 0.58344 0.54374 0.0
C1249 C 0.3418 0.5895 0.54467 0.0
C1250 C 0.35293 0.57437 0.55522 0.0
C1251 C 0.37059 0.39568 0.58447 0.0
C1252 C 0.40482 0.40791 0.57643 0.0
C1253 C 0.35574 0.42268 0.58698 0.0
C1254 C 0.37504 0.46244 0.58158 0.0
C1255 C 0.40872 0.4743 0.57339 0.0
C1256 C 0.42347 0.44742 0.57086 0.0
C1257 C 0.36044 0.49196 0.5844 0.0
C1258 C 0.35057 0.50967 0.57416 0.0
C1259 C 0.35628 0.50277 0.59701 0.0
C1260 C 0.36851 0.48718 0.60822 0.0
C1261 C 0.40868 0.4935 0.60921 0.0
C1262 C 0.41994 0.47854 0.61977 0.0
C1263 C 0.39139 0.45749 0.62945 0.0
C1264 C 0.35154 0.45145 0.62862 0.0
C1265 C 0.3401 0.46631 0.61807 0.0
H1266 H 0.40017 0.44594 0.63762 0.0
H1267 H 0.29342 0.5952 0.53557 0.0
H1268 H 0.33528 0.66672 0.9084 0.0
H1269 H 0.26152 0.64067 0.90493 0.0
H1270 H 0.26661 0.73398 0.93009 0.0
H1271 H 0.33987 0.76009 0.93357 0.0
H1272 H 0.19932 0.65843 0.93483 0.0
H1273 H 0.26521 0.74648 0.89883 0.0
H1274 H 0.31061 0.77168 0.87999 0.0
H1275 H 0.23846 0.65425 0.86183 0.0
H1276 H 0.19295 0.62813 0.88066 0.0
H1277 H 0.00627 0.64101 0.91869 0.0
H1278 H 0.08048 0.66916 0.92184 0.0
H1279 H 0.07796 0.57894 0.89583 0.0
H1280 H 0.00434 0.55099 0.89259 0.0
H1281 H 0.14428 0.65379 0.89151 0.0
H1282 H 0.07903 0.56539 0.92757 0.0
H1283 H 0.03382 0.53987 0.94644 0.0
H1284 H 0.10496 0.65764 0.9645 0.0
H1285 H 0.15028 0.68405 0.94565 0.0
C1286 C 0.3206 0.68155 0.91321 0.0
C1287 C 0.34346 0.71557 0.92121 0.0
C1288 C 0.27854 0.66677 0.91119 0.0
C1289 C 0.25866 0.68562 0.91718 0.0
C1290 C 0.28129 0.71899 0.92536 0.0
C1291 C 0.32325 0.73396 0.92729 0.0
C1292 C 0.21434 0.67095 0.91491 0.0
C1293 C 0.18735 0.65786 0.92537 0.0
C1294 C 0.19864 0.66959 0.90255 0.0
C1295 C 0.22594 0.6852 0.89121 0.0
C1296 C 0.25924 0.7259 0.89087 0.0
C1297 C 0.28495 0.74038 0.88018 0.0
C1298 C 0.27749 0.71455 0.86973 0.0
C1299 C 0.24424 0.6742 0.86994 0.0
C1300 C 0.21846 0.65955 0.88061 0.0
C1301 C 0.02163 0.62739 0.9136 0.0
C1302 C -0.00064 0.59366 0.90544 0.0
C1303 C 0.06397 0.64336 0.91544 0.0
C1304 C 0.08471 0.62588 0.90916 0.0
C1305 C 0.06267 0.59292 0.90078 0.0
C1306 C 0.02048 0.57689 0.89898 0.0
C1307 C 0.12919 0.64118 0.91143 0.0
C1308 C 0.15624 0.65439 0.90097 0.0
C1309 C 0.14496 0.64263 0.92379 0.0
C1310 C 0.11775 0.62684 0.93513 0.0
C1311 C 0.08481 0.58596 0.93552 0.0
C1312 C 0.05921 0.57131 0.94622 0.0
C1313 C 0.06644 0.59716 0.95665 0.0
C1314 C 0.09936 0.63768 0.95641 0.0
C1315 C 0.12502 0.6525 0.94572 0.0
H1316 H 0.04659 0.58575 0.96493 0.0
H1317 H 0.29739 0.72583 0.86146 0.0
H1318 H 0.33117 0.66571 0.24484 0.0
H1319 H 0.37959 0.73917 0.24102 0.0
H1320 H 0.4753 0.72803 0.26021 0.0
H1321 H 0.42727 0.65511 0.26417 0.0
H1322 H 0.47524 0.79636 0.26762 0.0
H1323 H 0.47286 0.73194 0.22792 0.0
H1324 H 0.44045 0.6884 0.20909 0.0
H1325 H 0.39225 0.76638 0.19788 0.0
H1326 H 0.42389 0.81007 0.21676 0.0
H1327 H 0.64392 0.98986 0.24765 0.0
H1328 H 0.59834 0.91554 0.25098 0.0
H1329 H 0.50078 0.92161 0.23111 0.0
H1330 H 0.54607 0.99521 0.22756 0.0
H1331 H 0.50322 0.85521 0.22395 0.0
H1332 H 0.50386 0.91834 0.26398 0.0
H1333 H 0.53565 0.96145 0.28294 0.0
H1334 H 0.58689 0.88559 0.29354 0.0
H1335 H 0.55581 0.84232 0.27454 0.0
C1336 C 0.3625 0.67898 0.24827 0.0
C1337 C 0.37537 0.65452 0.25477 0.0
C1338 C 0.39019 0.7209 0.24603 0.0
C1339 C 0.43124 0.73904 0.25022 0.0
C1340 C 0.44385 0.71477 0.25688 0.0
C1341 C 0.41631 0.67299 0.2591 0.0
C1342 C 0.46121 0.78327 0.2477 0.0
C1343 C 0.48174 0.80912 0.25805 0.0
C1344 C 0.46925 0.8001 0.23524 0.0
C1345 C 0.4504 0.77403 0.22383 0.0
C1346 C 0.45508 0.73962 0.2215 0.0
C1347 C 0.43689 0.71494 0.2108 0.0
C1348 C 0.4142 0.72455 0.20231 0.0
C1349 C 0.40978 0.75894 0.20448 0.0
C1350 C 0.42786 0.78369 0.21517 0.0
C1351 C 0.61283 0.97526 0.24395 0.0
C1352 C 0.59862 -0.00148 0.23739 0.0
C1353 C 0.58673 0.93283 0.2459 0.0
C1354 C 0.5459 0.91301 0.24142 0.0
C1355 C 0.53208 0.93611 0.23466 0.0
C1356 C 0.55806 0.97832 0.23268 0.0
C1357 C 0.51712 0.8684 0.24388 0.0
C1358 C 0.49681 0.84245 0.23351 0.0
C1359 C 0.50926 0.85146 0.25633 0.0
C1360 C 0.52789 0.87738 0.26777 0.0
C1361 C 0.52217 0.91105 0.2703 0.0
C1362 C 0.54001 0.93548 0.28106 0.0
C1363 C 0.56338 0.92634 0.28942 0.0
C1364 C 0.56884 0.89268 0.28705 0.0
C1365 C 0.5511 0.86818 0.27629 0.0
H1366 H 0.57716 0.94528 0.29775 0.0
H1367 H 0.40013 0.70539 0.19404 0.0
loop_
_geom_bond_atom_site_label_1
_geom_bond_atom_site_label_2
_geom_bond_distance
_geom_bond_site_symmetry_2
_ccdc_geom_bond_type
C0 O1 1.306 . S
C0 O3 1.160 . S
O1 C0 1.306 . S
O1 Cd2 2.228 . S
Cd2 O1 2.228 . S
Cd2 O6 2.273 . S
Cd2 O10 2.277 . S
O3 C0 1.160 . S
O3 Cd4 2.203 . S
Cd4 O3 2.203 . S
Cd4 O6 2.411 . S
Cd4 O7 2.333 . S
Cd4 O8 2.352 . S
Cd4 O12 2.277 . S
Cd4 O13 2.356 . S
C5 O10 1.209 . S
C5 O12 1.226 . S
O6 Cd2 2.273 . S
O6 Cd4 2.411 . S
O6 C9 1.320 . S
O7 Cd4 2.333 . S
O7 C9 1.214 . S
O8 Cd4 2.352 . S
O8 C11 1.258 . S
C9 O6 1.320 . S
C9 O7 1.214 . S
O10 Cd2 2.277 . S
O10 C5 1.209 . S
C11 O8 1.258 . S
C11 O13 1.282 . S
O12 Cd4 2.277 . S
O12 C5 1.226 . S
O13 Cd4 2.356 . S
O13 C11 1.282 . S
C14 O15 1.306 . S
C14 O17 1.160 . S
O15 C14 1.306 . S
O15 Cd16 2.228 . S
Cd16 O15 2.228 . S
Cd16 O20 2.273 . S
Cd16 O24 2.277 . S
O17 C14 1.160 . S
O17 Cd18 2.203 . S
Cd18 O17 2.203 . S
Cd18 O20 2.411 . S
Cd18 O21 2.333 . S
Cd18 O22 2.352 . S
Cd18 O26 2.277 . S
Cd18 O27 2.356 . S
C19 O24 1.209 . S
C19 O26 1.226 . S
O20 Cd16 2.273 . S
O20 Cd18 2.411 . S
O20 C23 1.320 . S
O21 Cd18 2.333 . S
O21 C23 1.214 . S
O22 Cd18 2.352 . S
O22 C25 1.258 . S
C23 O20 1.320 . S
C23 O21 1.214 . S
O24 Cd16 2.277 . S
O24 C19 1.209 . S
C25 O22 1.258 . S
C25 O27 1.282 . S
O26 Cd18 2.277 . S
O26 C19 1.226 . S
O27 Cd18 2.356 . S
O27 C25 1.282 . S
C28 O29 1.306 . S
C28 O31 1.160 . S
O29 C28 1.306 . S
O29 Cd30 2.228 . S
Cd30 O29 2.228 . S
Cd30 O34 2.273 . S
Cd30 O38 2.277 . S
O31 C28 1.160 . S
O31 Cd32 2.203 . S
Cd32 O31 2.203 . S
Cd32 O34 2.411 . S
Cd32 O35 2.333 . S
Cd32 O36 2.352 . S
Cd32 O40 2.277 . S
Cd32 O41 2.356 . S
C33 O38 1.209 . S
C33 O40 1.226 . S
O34 Cd30 2.273 . S
O34 Cd32 2.411 . S
O34 C37 1.320 . S
O35 Cd32 2.333 . S
O35 C37 1.214 . S
O36 Cd32 2.352 . S
O36 C39 1.258 . S
C37 O34 1.320 . S
C37 O35 1.214 . S
O38 Cd30 2.277 . S
O38 C33 1.209 . S
C39 O36 1.258 . S
C39 O41 1.282 . S
O40 Cd32 2.277 . S
O40 C33 1.226 . S
O41 Cd32 2.356 . S
O41 C39 1.282 . S
C42 O43 1.306 . S
C42 O45 1.160 . S
O43 C42 1.306 . S
O43 Cd44 2.228 . S
Cd44 O43 2.228 . S
Cd44 O48 2.273 . S
Cd44 O52 2.277 . S
O45 C42 1.160 . S
O45 Cd46 2.203 . S
Cd46 O45 2.203 . S
Cd46 O48 2.411 . S
Cd46 O49 2.333 . S
Cd46 O50 2.352 . S
Cd46 O54 2.277 . S
Cd46 O55 2.356 . S
C47 O52 1.209 . S
C47 O54 1.226 . S
O48 Cd44 2.273 . S
O48 Cd46 2.411 . S
O48 C51 1.320 . S
O49 Cd46 2.333 . S
O49 C51 1.214 . S
O50 Cd46 2.352 . S
O50 C53 1.258 . S
C51 O48 1.320 . S
C51 O49 1.214 . S
O52 Cd44 2.277 . S
O52 C47 1.209 . S
C53 O50 1.258 . S
C53 O55 1.282 . S
O54 Cd46 2.277 . S
O54 C47 1.226 . S
O55 Cd46 2.356 . S
O55 C53 1.282 . S
C56 O57 1.306 . S
C56 O59 1.160 . S
O57 C56 1.306 . S
O57 Cd58 2.228 . S
Cd58 O57 2.228 . S
Cd58 O62 2.273 . S
Cd58 O66 2.277 . S
O59 C56 1.160 . S
O59 Cd60 2.203 . S
Cd60 O59 2.203 . S
Cd60 O62 2.411 . S
Cd60 O63 2.333 . S
Cd60 O64 2.352 . S
Cd60 O68 2.277 . S
Cd60 O69 2.356 . S
C61 O66 1.209 . S
C61 O68 1.226 . S
O62 Cd58 2.273 . S
O62 Cd60 2.411 . S
O62 C65 1.320 . S
O63 Cd60 2.333 . S
O63 C65 1.214 . S
O64 Cd60 2.352 . S
O64 C67 1.258 . S
C65 O62 1.320 . S
C65 O63 1.214 . S
O66 Cd58 2.277 . S
O66 C61 1.209 . S
C67 O64 1.258 . S
C67 O69 1.282 . S
O68 Cd60 2.277 . S
O68 C61 1.226 . S
O69 Cd60 2.356 . S
O69 C67 1.282 . S
C70 O71 1.306 . S
C70 O73 1.160 . S
O71 C70 1.306 . S
O71 Cd72 2.228 . S
Cd72 O71 2.228 . S
Cd72 O76 2.273 . S
Cd72 O80 2.277 . S
O73 C70 1.160 . S
O73 Cd74 2.203 . S
Cd74 O73 2.203 . S
Cd74 O76 2.411 . S
Cd74 O77 2.333 . S
Cd74 O78 2.352 . S
Cd74 O82 2.277 . S
Cd74 O83 2.356 . S
C75 O80 1.209 . S
C75 O82 1.226 . S
O76 Cd72 2.273 . S
O76 Cd74 2.411 . S
O76 C79 1.320 . S
O77 Cd74 2.333 . S
O77 C79 1.214 . S
O78 Cd74 2.352 . S
O78 C81 1.258 . S
C79 O76 1.320 . S
C79 O77 1.214 . S
O80 Cd72 2.277 . S
O80 C75 1.209 . S
C81 O78 1.258 . S
C81 O83 1.282 . S
O82 Cd74 2.277 . S
O82 C75 1.226 . S
O83 Cd74 2.356 . S
O83 C81 1.282 . S
C84 O85 1.306 . S
C84 O87 1.160 . S
O85 C84 1.306 . S
O85 Cd86 2.228 . S
Cd86 O85 2.228 . S
Cd86 O90 2.273 . S
Cd86 O94 2.277 . S
O87 C84 1.160 . S
O87 Cd88 2.203 . S
Cd88 O87 2.203 . S
Cd88 O90 2.411 . S
Cd88 O91 2.333 . S
Cd88 O92 2.352 . S
Cd88 O96 2.277 . S
Cd88 O97 2.356 . S
C89 O94 1.209 . S
C89 O96 1.226 . S
O90 Cd86 2.273 . S
O90 Cd88 2.411 . S
O90 C93 1.320 . S
O91 Cd88 2.333 . S
O91 C93 1.214 . S
O92 Cd88 2.352 . S
O92 C95 1.258 . S
C93 O90 1.320 . S
C93 O91 1.214 . S
O94 Cd86 2.277 . S
O94 C89 1.209 . S
C95 O92 1.258 . S
C95 O97 1.282 . S
O96 Cd88 2.277 . S
O96 C89 1.226 . S
O97 Cd88 2.356 . S
O97 C95 1.282 . S
C98 O99 1.306 . S
C98 O101 1.160 . S
O99 C98 1.306 . S
O99 Cd100 2.228 . S
Cd100 O99 2.228 . S
Cd100 O104 2.273 . S
Cd100 O108 2.277 . S
O101 C98 1.160 . S
O101 Cd102 2.203 . S
Cd102 O101 2.203 . S
Cd102 O104 2.411 . S
Cd102 O105 2.333 . S
Cd102 O106 2.352 . S
Cd102 O110 2.277 . S
Cd102 O111 2.356 . S
C103 O108 1.209 . S
C103 O110 1.226 . S
O104 Cd100 2.273 . S
O104 Cd102 2.411 . S
O104 C107 1.320 . S
O105 Cd102 2.333 . S
O105 C107 1.214 . S
O106 Cd102 2.352 . S
O106 C109 1.258 . S
C107 O104 1.320 . S
C107 O105 1.214 . S
O108 Cd100 2.277 . S
O108 C103 1.209 . S
C109 O106 1.258 . S
C109 O111 1.282 . S
O110 Cd102 2.277 . S
O110 C103 1.226 . S
O111 Cd102 2.356 . S
O111 C109 1.282 . S
C112 O113 1.306 . S
C112 O115 1.160 . S
O113 C112 1.306 . S
O113 Cd114 2.228 . S
Cd114 O113 2.228 . S
Cd114 O118 2.273 . S
Cd114 O122 2.277 . S
O115 C112 1.160 . S
O115 Cd116 2.203 . S
Cd116 O115 2.203 . S
Cd116 O118 2.411 . S
Cd116 O119 2.333 . S
Cd116 O120 2.352 . S
Cd116 O124 2.277 . S
Cd116 O125 2.356 . S
C117 O122 1.209 . S
C117 O124 1.226 . S
O118 Cd114 2.273 . S
O118 Cd116 2.411 . S
O118 C121 1.320 . S
O119 Cd116 2.333 . S
O119 C121 1.214 . S
O120 Cd116 2.352 . S
O120 C123 1.258 . S
C121 O118 1.320 . S
C121 O119 1.214 . S
O122 Cd114 2.277 . S
O122 C117 1.209 . S
C123 O120 1.258 . S
C123 O125 1.282 . S
O124 Cd116 2.277 . S
O124 C117 1.226 . S
O125 Cd116 2.356 . S
O125 C123 1.282 . S
C126 O127 1.306 . S
C126 O129 1.160 . S
O127 C126 1.306 . S
O127 Cd128 2.228 . S
Cd128 O127 2.228 . S
Cd128 O132 2.273 . S
Cd128 O136 2.277 . S
O129 C126 1.160 . S
O129 Cd130 2.203 . S
Cd130 O129 2.203 . S
Cd130 O132 2.411 . S
Cd130 O133 2.333 . S
Cd130 O134 2.352 . S
Cd130 O138 2.277 . S
Cd130 O139 2.356 . S
C131 O136 1.209 . S
C131 O138 1.226 . S
O132 Cd128 2.273 . S
O132 Cd130 2.411 . S
O132 C135 1.320 . S
O133 Cd130 2.333 . S
O133 C135 1.214 . S
O134 Cd130 2.352 . S
O134 C137 1.258 . S
C135 O132 1.320 . S
C135 O133 1.214 . S
O136 Cd128 2.277 . S
O136 C131 1.209 . S
C137 O134 1.258 . S
C137 O139 1.282 . S
O138 Cd130 2.277 . S
O138 C131 1.226 . S
O139 Cd130 2.356 . S
O139 C137 1.282 . S
C140 O141 1.306 . S
C140 O143 1.160 . S
O141 C140 1.306 . S
O141 Cd142 2.228 . S
Cd142 O141 2.228 . S
Cd142 O146 2.273 . S
Cd142 O150 2.277 . S
O143 C140 1.160 . S
O143 Cd144 2.203 . S
Cd144 O143 2.203 . S
Cd144 O146 2.411 . S
Cd144 O147 2.333 . S
Cd144 O148 2.352 . S
Cd144 O152 2.277 . S
Cd144 O153 2.356 . S
C145 O150 1.209 . S
C145 O152 1.226 . S
O146 Cd142 2.273 . S
O146 Cd144 2.411 . S
O146 C149 1.320 . S
O147 Cd144 2.333 . S
O147 C149 1.214 . S
O148 Cd144 2.352 . S
O148 C151 1.258 . S
C149 O146 1.320 . S
C149 O147 1.214 . S
O150 Cd142 2.277 . S
O150 C145 1.209 . S
C151 O148 1.258 . S
C151 O153 1.282 . S
O152 Cd144 2.277 . S
O152 C145 1.226 . S
O153 Cd144 2.356 . S
O153 C151 1.282 . S
C154 O155 1.306 . S
C154 O157 1.160 . S
O155 C154 1.306 . S
O155 Cd156 2.228 . S
Cd156 O155 2.228 . S
Cd156 O160 2.273 . S
Cd156 O164 2.277 . S
O157 C154 1.160 . S
O157 Cd158 2.203 . S
Cd158 O157 2.203 . S
Cd158 O160 2.411 . S
Cd158 O161 2.333 . S
Cd158 O162 2.352 . S
Cd158 O166 2.277 . S
Cd158 O167 2.356 . S
C159 O164 1.209 . S
C159 O166 1.226 . S
O160 Cd156 2.273 . S
O160 Cd158 2.411 . S
O160 C163 1.320 . S
O161 Cd158 2.333 . S
O161 C163 1.214 . S
O162 Cd158 2.352 . S
O162 C165 1.258 . S
C163 O160 1.320 . S
C163 O161 1.214 . S
O164 Cd156 2.277 . S
O164 C159 1.209 . S
C165 O162 1.258 . S
C165 O167 1.282 . S
O166 Cd158 2.277 . S
O166 C159 1.226 . S
O167 Cd158 2.356 . S
O167 C165 1.282 . S
H168 C186 0.951 . S
H169 C188 0.951 . S
H170 C190 1.025 . S
H171 C191 0.950 . S
H172 C193 0.950 . S
H173 C196 0.950 . S
H174 C197 0.950 . S
H175 C199 0.950 . S
H176 C200 0.950 . S
H177 C201 0.951 . S
H178 C203 0.951 . S
H179 C205 0.950 . S
H180 C206 0.950 . S
H181 C208 0.950 . S
H182 C211 0.950 . S
H183 C212 0.950 . S
H184 C214 0.950 . S
H185 C215 0.950 . S
C186 H168 0.951 . S
C186 C187 1.366 . S
C186 C188 1.388 . S
C187 C186 1.366 . S
C187 C191 1.385 . S
C188 H169 0.951 . S
C188 C186 1.388 . S
C188 C189 1.366 . S
C189 C188 1.366 . S
C189 C190 1.414 . S
C189 C192 1.499 1_556 S
C190 H170 1.025 . S
C190 C189 1.414 . S
C190 C191 1.374 . S
C191 H171 0.950 . S
C191 C187 1.385 . S
C191 C190 1.374 . S
C192 C189 1.499 1_554 S
C192 C193 1.373 . S
C192 C194 1.395 . S
C193 H172 0.950 . S
C193 C192 1.373 . S
C193 C209 1.377 . S
C194 C192 1.395 . S
C194 C195 1.490 1_554 S
C194 C208 1.406 . S
C195 C194 1.490 1_556 S
C195 C196 1.397 . S
C195 C200 1.363 . S
C196 H173 0.950 . S
C196 C195 1.397 . S
C196 C197 1.334 . S
C197 H174 0.950 . S
C197 C196 1.334 . S
C197 C198 1.287 . S
C198 C197 1.287 . S
C198 C199 1.524 . S
C198 H217 0.913 . S
C199 H175 0.950 . S
C199 C198 1.524 . S
C199 C200 1.415 . S
C200 H176 0.950 . S
C200 C195 1.363 . S
C200 C199 1.415 . S
C201 H177 0.951 . S
C201 C202 1.366 . S
C201 C203 1.388 . S
C202 C201 1.366 . S
C202 C206 1.385 . S
C203 H178 0.951 . S
C203 C201 1.388 . S
C203 C204 1.366 . S
C204 C203 1.366 . S
C204 C205 1.414 . S
C204 C207 1.499 . S
C205 H179 0.950 . S
C205 C204 1.414 . S
C205 C206 1.374 . S
C206 H180 0.950 . S
C206 C202 1.385 . S
C206 C205 1.374 . S
C207 C204 1.499 . S
C207 C208 1.373 . S
C207 C209 1.389 . S
C208 H181 0.950 . S
C208 C194 1.406 . S
C208 C207 1.373 . S
C209 C193 1.377 . S
C209 C207 1.389 . S
C209 C210 1.524 . S
C210 C209 1.524 . S
C210 C211 1.397 . S
C210 C215 1.363 . S
C211 H182 0.950 . S
C211 C210 1.397 . S
C211 C212 1.334 . S
C212 H183 0.950 . S
C212 C211 1.334 . S
C212 C213 1.287 . S
C213 C212 1.287 . S
C213 C214 1.524 . S
C213 H216 0.999 . S
C214 H184 0.950 . S
C214 C213 1.524 . S
C214 C215 1.415 . S
C215 H185 0.950 . S
C215 C210 1.363 . S
C215 C214 1.415 . S
H216 C213 0.999 . S
H217 C198 0.913 . S
H218 C236 0.951 . S
H219 C238 0.951 . S
H220 C240 0.950 . S
H221 C241 0.950 . S
H222 C243 0.950 . S
H223 C246 0.950 . S
H224 C247 0.950 . S
H225 C249 0.950 . S
H226 C250 0.950 . S
H227 C251 0.951 . S
H228 C253 0.951 . S
H229 C255 0.950 . S
H230 C256 0.950 . S
H231 C258 0.950 . S
H232 C261 0.950 . S
H233 C262 0.950 . S
H234 C264 0.950 . S
H235 C265 0.950 . S
C236 H218 0.951 . S
C236 C237 1.366 . S
C236 C238 1.388 . S
C237 C236 1.366 . S
C237 C241 1.385 . S
C238 H219 0.951 . S
C238 C236 1.388 . S
C238 C239 1.366 . S
C239 C238 1.366 . S
C239 C240 1.414 . S
C239 C242 1.499 . S
C240 H220 0.950 . S
C240 C239 1.414 . S
C240 C241 1.374 . S
C241 H221 0.950 . S
C241 C237 1.385 . S
C241 C240 1.374 . S
C242 C239 1.499 . S
C242 C243 1.373 . S
C242 C244 1.389 . S
C243 H222 0.950 . S
C243 C242 1.373 . S
C243 C259 1.377 . S
C244 C242 1.389 . S
C244 C245 1.524 . S
C244 C258 1.377 . S
C245 C244 1.524 . S
C245 C246 1.397 . S
C245 C250 1.363 . S
C246 H223 0.950 . S
C246 C245 1.397 . S
C246 C247 1.334 . S
C247 H224 0.950 . S
C247 C246 1.334 . S
C247 C248 1.287 . S
C248 C247 1.287 . S
C248 C249 1.524 . S
C248 H267 0.913 . S
C249 H225 0.950 . S
C249 C248 1.524 . S
C249 C250 1.415 . S
C250 H226 0.950 . S
C250 C245 1.363 . S
C250 C249 1.415 . S
C251 H227 0.951 . S
C251 C252 1.366 . S
C251 C253 1.388 . S
C252 C251 1.366 . S
C252 C256 1.385 . S
C253 H228 0.951 . S
C253 C251 1.388 . S
C253 C254 1.366 . S
C254 C253 1.366 . S
C254 C255 1.414 . S
C254 C257 1.499 . S
C255 H229 0.950 . S
C255 C254 1.414 . S
C255 C256 1.374 . S
C256 H230 0.950 . S
C256 C252 1.385 . S
C256 C255 1.374 . S
C257 C254 1.499 . S
C257 C258 1.373 . S
C257 C259 1.389 . S
C258 H231 0.950 . S
C258 C244 1.377 . S
C258 C257 1.373 . S
C259 C243 1.377 . S
C259 C257 1.389 . S
C259 C260 1.524 . S
C260 C259 1.524 . S
C260 C261 1.397 . S
C260 C265 1.363 . S
C261 H232 0.950 . S
C261 C260 1.397 . S
C261 C262 1.334 . S
C262 H233 0.950 . S
C262 C261 1.334 . S
C262 C263 1.287 . S
C263 C262 1.287 . S
C263 C264 1.524 . S
C263 H266 0.999 . S
C264 H234 0.950 . S
C264 C263 1.524 . S
C264 C265 1.415 . S
C265 H235 0.950 . S
C265 C260 1.363 . S
C265 C264 1.415 . S
H266 C263 0.999 . S
H267 C248 0.913 . S
H268 C286 0.951 . S
H269 C288 0.951 . S
H270 C290 0.950 . S
H271 C291 0.950 . S
H272 C293 0.950 . S
H273 C296 0.950 . S
H274 C297 0.950 . S
H275 C299 0.950 . S
H276 C300 0.950 . S
H277 C301 0.951 . S
H278 C303 0.951 . S
H279 C305 0.950 . S
H280 C306 0.950 . S
H281 C308 0.950 . S
H282 C311 0.950 . S
H283 C312 0.950 . S
H284 C314 0.950 . S
H285 C315 0.950 . S
C286 H268 0.951 . S
C286 C287 1.366 . S
C286 C288 1.388 . S
C287 C286 1.366 . S
C287 C291 1.385 . S
C288 H269 0.951 . S
C288 C286 1.388 . S
C288 C289 1.366 . S
C289 C288 1.366 . S
C289 C290 1.414 . S
C289 C292 1.499 . S
C290 H270 0.950 . S
C290 C289 1.414 . S
C290 C291 1.374 . S
C291 H271 0.950 . S
C291 C287 1.385 . S
C291 C290 1.374 . S
C292 C289 1.499 . S
C292 C293 1.373 . S
C292 C294 1.389 . S
C293 H272 0.950 . S
C293 C292 1.373 . S
C293 C309 1.377 . S
C294 C292 1.389 . S
C294 C295 1.524 . S
C294 C308 1.377 . S
C295 C294 1.524 . S
C295 C296 1.397 . S
C295 C300 1.363 . S
C296 H273 0.950 . S
C296 C295 1.397 . S
C296 C297 1.334 . S
C297 H274 0.950 . S
C297 C296 1.334 . S
C297 C298 1.287 . S
C298 C297 1.287 . S
C298 C299 1.524 . S
C298 H317 0.913 . S
C299 H275 0.950 . S
C299 C298 1.524 . S
C299 C300 1.415 . S
C300 H276 0.950 . S
C300 C295 1.363 . S
C300 C299 1.415 . S
C301 H277 0.951 . S
C301 C302 1.366 . S
C301 C303 1.388 . S
C302 C301 1.366 . S
C302 C306 1.385 . S
C303 H278 0.951 . S
C303 C301 1.388 . S
C303 C304 1.366 . S
C304 C303 1.366 . S
C304 C305 1.414 . S
C304 C307 1.499 . S
C305 H279 0.950 . S
C305 C304 1.414 . S
C305 C306 1.374 . S
C306 H280 0.950 . S
C306 C302 1.385 . S
C306 C305 1.374 . S
C307 C304 1.499 . S
C307 C308 1.373 . S
C307 C309 1.389 . S
C308 H281 0.950 . S
C308 C294 1.377 . S
C308 C307 1.373 . S
C309 C293 1.377 . S
C309 C307 1.389 . S
C309 C310 1.524 . S
C310 C309 1.524 . S
C310 C311 1.397 . S
C310 C315 1.363 . S
C311 H282 0.950 . S
C311 C310 1.397 . S
C311 C312 1.334 . S
C312 H283 0.950 . S
C312 C311 1.334 . S
C312 C313 1.287 . S
C313 C312 1.287 . S
C313 C314 1.524 . S
C313 H316 0.999 . S
C314 H284 0.950 . S
C314 C313 1.524 . S
C314 C315 1.415 . S
C315 H285 0.950 . S
C315 C310 1.363 . S
C315 C314 1.415 . S
H316 C313 0.999 . S
H317 C298 0.913 . S
H318 C336 0.951 . S
H319 C338 0.913 1_556 S
H320 C340 0.950 . S
H321 C341 0.950 . S
H322 C343 0.950 . S
H323 C346 0.950 . S
H324 C347 0.950 . S
H325 C349 0.950 . S
H326 C350 0.950 . S
H327 C351 0.951 . S
H328 C353 0.951 . S
H329 C355 0.950 . S
H330 C356 0.950 . S
H331 C358 0.950 . S
H332 C361 0.950 . S
H333 C362 0.950 . S
H334 C364 0.950 . S
H335 C365 0.950 . S
C336 H318 0.951 . S
C336 C337 1.366 . S
C336 C338 1.388 . S
C337 C336 1.366 . S
C337 C341 1.385 . S
C338 H319 0.913 1_554 S
C338 C336 1.388 . S
C338 C339 1.366 . S
C339 C338 1.366 . S
C339 C340 1.414 . S
C339 C342 1.499 1_554 S
C340 H320 0.950 . S
C340 C339 1.414 . S
C340 C341 1.374 . S
C341 H321 0.950 . S
C341 C337 1.385 . S
C341 C340 1.374 . S
C342 C339 1.499 1_556 S
C342 C343 1.373 . S
C342 C344 1.389 . S
C343 H322 0.950 . S
C343 C342 1.373 . S
C343 C359 1.377 . S
C344 C342 1.389 . S
C344 C345 1.524 . S
C344 C358 1.377 . S
C345 C344 1.524 . S
C345 C346 1.397 1_556 S
C345 C350 1.363 . S
C346 H323 0.950 . S
C346 C345 1.397 1_554 S
C346 C347 1.334 . S
C347 H324 0.950 . S
C347 C346 1.334 . S
C347 C348 1.287 . S
C348 C347 1.287 . S
C348 C349 1.524 1_554 S
C348 H367 0.913 . S
C349 H325 0.950 . S
C349 C348 1.524 1_556 S
C349 C350 1.415 . S
C350 H326 0.950 . S
C350 C345 1.363 . S
C350 C349 1.415 . S
C351 H327 0.951 . S
C351 C352 1.366 . S
C351 C353 1.388 . S
C352 C351 1.366 . S
C352 C356 1.385 . S
C353 H328 0.951 . S
C353 C351 1.388 . S
C353 C354 1.366 . S
C354 C353 1.366 . S
C354 C355 1.414 . S
C354 C357 1.499 . S
C355 H329 0.950 . S
C355 C354 1.414 . S
C355 C356 1.374 . S
C356 H330 0.950 . S
C356 C352 1.385 . S
C356 C355 1.374 . S
C357 C354 1.499 . S
C357 C358 1.373 . S
C357 C359 1.389 . S
C358 H331 0.950 . S
C358 C344 1.377 . S
C358 C357 1.373 . S
C359 C343 1.377 . S
C359 C357 1.389 . S
C359 C360 1.524 . S
C360 C359 1.524 . S
C360 C361 1.397 . S
C360 C365 1.363 . S
C361 H332 0.950 . S
C361 C360 1.397 . S
C361 C362 1.334 . S
C362 H333 0.950 . S
C362 C361 1.334 . S
C362 C363 1.287 . S
C363 C362 1.287 . S
C363 C364 1.524 . S
C363 H366 0.999 . S
C364 H334 0.950 . S
C364 C363 1.524 . S
C364 C365 1.415 . S
C365 H335 0.950 . S
C365 C360 1.363 . S
C365 C364 1.415 . S
H366 C363 0.999 . S
H367 C348 0.913 . S
H368 C386 0.951 . S
H369 C388 0.951 . S
H370 C390 0.950 . S
H371 C391 0.950 . S
H372 C393 0.950 . S
H373 C396 0.950 . S
H374 C397 0.950 . S
H375 C399 0.950 . S
H376 C400 0.950 . S
H377 C401 0.951 . S
H378 C403 0.951 . S
H379 C405 0.950 . S
H380 C406 0.950 . S
H381 C408 0.950 . S
H382 C411 0.950 . S
H383 C412 0.950 . S
H384 C414 0.950 . S
H385 C415 0.950 . S
C386 H368 0.951 . S
C386 C387 1.366 . S
C386 C388 1.388 . S
C387 C386 1.366 . S
C387 C391 1.385 . S
C388 H369 0.951 . S
C388 C386 1.388 . S
C388 C389 1.366 . S
C389 C388 1.366 . S
C389 C390 1.414 . S
C389 C392 1.499 . S
C390 H370 0.950 . S
C390 C389 1.414 . S
C390 C391 1.374 . S
C391 H371 0.950 . S
C391 C387 1.385 . S
C391 C390 1.374 . S
C392 C389 1.499 . S
C392 C393 1.373 . S
C392 C394 1.389 . S
C393 H372 0.950 . S
C393 C392 1.373 . S
C393 C409 1.377 . S
C394 C392 1.389 . S
C394 C395 1.524 . S
C394 C408 1.377 . S
C395 C394 1.524 . S
C395 C396 1.397 . S
C395 C400 1.363 . S
C396 H373 0.950 . S
C396 C395 1.397 . S
C396 C397 1.334 . S
C397 H374 0.950 . S
C397 C396 1.334 . S
C397 C398 1.287 . S
C398 C397 1.287 . S
C398 C399 1.524 . S
C398 H417 0.913 . S
C399 H375 0.950 . S
C399 C398 1.524 . S
C399 C400 1.415 . S
C400 H376 0.950 . S
C400 C395 1.363 . S
C400 C399 1.415 . S
C401 H377 0.951 . S
C401 C402 1.366 . S
C401 C403 1.388 . S
C402 C401 1.366 . S
C402 C406 1.385 . S
C403 H378 0.951 . S
C403 C401 1.388 . S
C403 C404 1.366 . S
C404 C403 1.366 . S
C404 C405 1.414 . S
C404 C407 1.499 . S
C405 H379 0.950 . S
C405 C404 1.414 . S
C405 C406 1.374 . S
C406 H380 0.950 . S
C406 C402 1.385 . S
C406 C405 1.374 . S
C407 C404 1.499 . S
C407 C408 1.373 . S
C407 C409 1.389 . S
C408 H381 0.950 . S
C408 C394 1.377 . S
C408 C407 1.373 . S
C409 C393 1.377 . S
C409 C407 1.389 . S
C409 C410 1.524 . S
C410 C409 1.524 . S
C410 C411 1.397 . S
C410 C415 1.363 . S
C411 H382 0.950 . S
C411 C410 1.397 . S
C411 C412 1.334 . S
C412 H383 0.950 . S
C412 C411 1.334 . S
C412 C413 1.287 . S
C413 C412 1.287 . S
C413 C414 1.524 . S
C413 H416 0.999 . S
C414 H384 0.950 . S
C414 C413 1.524 . S
C414 C415 1.415 . S
C415 H385 0.950 . S
C415 C410 1.363 . S
C415 C414 1.415 . S
H416 C413 0.999 . S
H417 C398 0.913 . S
H418 C436 0.951 . S
H419 C438 0.951 . S
H420 C440 0.950 . S
H421 C441 0.950 . S
H422 C443 0.950 . S
H423 C446 0.950 . S
H424 C447 0.950 . S
H425 C449 0.950 . S
H426 C450 0.950 . S
H427 C451 0.951 . S
H428 C453 0.951 . S
H429 C455 0.950 . S
H430 C456 0.950 . S
H431 C458 0.950 . S
H432 C461 0.950 . S
H433 C462 0.950 . S
H434 C464 0.950 . S
H435 C465 0.950 . S
C436 H418 0.951 . S
C436 C437 1.366 . S
C436 C438 1.388 . S
C437 C436 1.366 . S
C437 C441 1.385 . S
C438 H419 0.951 . S
C438 C436 1.388 . S
C438 C439 1.366 . S
C439 C438 1.366 . S
C439 C440 1.414 . S
C439 C442 1.499 . S
C440 H420 0.950 . S
C440 C439 1.414 . S
C440 C441 1.374 . S
C441 H421 0.950 . S
C441 C437 1.385 . S
C441 C440 1.374 . S
C442 C439 1.499 . S
C442 C443 1.373 . S
C442 C444 1.389 . S
C443 H422 0.950 . S
C443 C442 1.373 . S
C443 C459 1.377 . S
C444 C442 1.389 . S
C444 C445 1.524 . S
C444 C458 1.377 . S
C445 C444 1.524 . S
C445 C446 1.397 . S
C445 C450 1.363 . S
C446 H423 0.950 . S
C446 C445 1.397 . S
C446 C447 1.334 . S
C447 H424 0.950 . S
C447 C446 1.334 . S
C447 C448 1.287 . S
C448 C447 1.287 . S
C448 C449 1.524 . S
C448 H467 0.913 . S
C449 H425 0.950 . S
C449 C448 1.524 . S
C449 C450 1.415 . S
C450 H426 0.950 . S
C450 C445 1.363 . S
C450 C449 1.415 . S
C451 H427 0.951 . S
C451 C452 1.366 . S
C451 C453 1.388 . S
C452 C451 1.366 . S
C452 C456 1.385 . S
C453 H428 0.951 . S
C453 C451 1.388 . S
C453 C454 1.366 . S
C454 C453 1.366 . S
C454 C455 1.414 . S
C454 C457 1.499 . S
C455 H429 0.950 . S
C455 C454 1.414 . S
C455 C456 1.374 . S
C456 H430 0.950 . S
C456 C452 1.385 . S
C456 C455 1.374 . S
C457 C454 1.499 . S
C457 C458 1.373 . S
C457 C459 1.389 . S
C458 H431 0.950 . S
C458 C444 1.377 . S
C458 C457 1.373 . S
C459 C443 1.377 . S
C459 C457 1.389 . S
C459 C460 1.524 . S
C460 C459 1.524 . S
C460 C461 1.397 . S
C460 C465 1.363 . S
C461 H432 0.950 . S
C461 C460 1.397 . S
C461 C462 1.334 . S
C462 H433 0.950 . S
C462 C461 1.334 . S
C462 C463 1.287 . S
C463 C462 1.287 . S
C463 C464 1.524 . S
C463 H466 0.999 . S
C464 H434 0.950 . S
C464 C463 1.524 . S
C464 C465 1.415 . S
C465 H435 0.950 . S
C465 C460 1.363 . S
C465 C464 1.415 . S
H466 C463 0.999 . S
H467 C448 0.913 . S
H468 C486 0.951 . S
H469 C488 0.951 . S
H470 C490 0.950 . S
H471 C491 0.950 . S
H472 C493 0.950 . S
H473 C496 0.950 . S
H474 C497 0.950 . S
H475 C499 0.950 . S
H476 C500 0.950 . S
H477 C501 0.951 . S
H478 C503 0.951 . S
H479 C505 0.950 . S
H480 C506 0.950 . S
H481 C508 0.950 . S
H482 C511 0.950 . S
H483 C512 0.950 . S
H484 C514 0.950 . S
H485 C515 0.950 . S
C486 H468 0.951 . S
C486 C487 1.366 . S
C486 C488 1.388 . S
C487 C486 1.366 . S
C487 C491 1.385 . S
C488 H469 0.951 . S
C488 C486 1.388 . S
C488 C489 1.366 . S
C489 C488 1.366 . S
C489 C490 1.414 . S
C489 C492 1.499 . S
C490 H470 0.950 . S
C490 C489 1.414 . S
C490 C491 1.374 . S
C491 H471 0.950 . S
C491 C487 1.385 . S
C491 C490 1.374 . S
C492 C489 1.499 . S
C492 C493 1.373 . S
C492 C494 1.389 . S
C493 H472 0.950 . S
C493 C492 1.373 . S
C493 C509 1.377 . S
C494 C492 1.389 . S
C494 C495 1.524 . S
C494 C508 1.377 . S
C495 C494 1.524 . S
C495 C496 1.397 . S
C495 C500 1.363 . S
C496 H473 0.950 . S
C496 C495 1.397 . S
C496 C497 1.334 . S
C497 H474 0.950 . S
C497 C496 1.334 . S
C497 C498 1.287 . S
C498 C497 1.287 . S
C498 C499 1.524 . S
C498 H517 0.913 . S
C499 H475 0.950 . S
C499 C498 1.524 . S
C499 C500 1.415 . S
C500 H476 0.950 . S
C500 C495 1.363 . S
C500 C499 1.415 . S
C501 H477 0.951 . S
C501 C502 1.366 . S
C501 C503 1.388 . S
C502 C501 1.366 . S
C502 C506 1.385 . S
C503 H478 0.951 . S
C503 C501 1.388 . S
C503 C504 1.366 . S
C504 C503 1.366 . S
C504 C505 1.414 . S
C504 C507 1.499 . S
C505 H479 0.950 . S
C505 C504 1.414 . S
C505 C506 1.374 . S
C506 H480 0.950 . S
C506 C502 1.385 . S
C506 C505 1.374 . S
C507 C504 1.499 . S
C507 C508 1.373 . S
C507 C509 1.389 . S
C508 H481 0.950 . S
C508 C494 1.377 . S
C508 C507 1.373 . S
C509 C493 1.377 . S
C509 C507 1.389 . S
C509 C510 1.524 . S
C510 C509 1.524 . S
C510 C511 1.397 . S
C510 C515 1.363 . S
C511 H482 0.950 . S
C511 C510 1.397 . S
C511 C512 1.334 . S
C512 H483 0.950 . S
C512 C511 1.334 . S
C512 C513 1.287 . S
C513 C512 1.287 . S
C513 C514 1.524 . S
C513 H516 0.999 . S
C514 H484 0.950 . S
C514 C513 1.524 . S
C514 C515 1.415 . S
C515 H485 0.950 . S
C515 C510 1.363 . S
C515 C514 1.415 . S
H516 C513 0.999 . S
H517 C498 0.913 . S
H518 C536 0.951 . S
H519 C538 0.951 . S
H520 C540 0.950 . S
H521 C541 0.950 . S
H522 C543 0.950 . S
H523 C546 0.950 . S
H524 C547 0.950 . S
H525 C549 0.950 . S
H526 C550 0.950 . S
H527 C551 0.951 . S
H528 C553 0.951 . S
H529 C555 0.950 . S
H530 C556 0.950 . S
H531 C558 0.950 . S
H532 C561 0.950 . S
H533 C562 0.950 . S
H534 C564 0.950 . S
H535 C565 0.950 . S
C536 H518 0.951 . S
C536 C537 1.366 . S
C536 C538 1.388 . S
C537 C536 1.366 . S
C537 C541 1.385 . S
C538 H519 0.951 . S
C538 C536 1.388 . S
C538 C539 1.366 . S
C539 C538 1.366 . S
C539 C540 1.414 . S
C539 C542 1.499 . S
C540 H520 0.950 . S
C540 C539 1.414 . S
C540 C541 1.374 . S
C541 H521 0.950 . S
C541 C537 1.385 . S
C541 C540 1.374 . S
C542 C539 1.499 . S
C542 C543 1.373 . S
C542 C544 1.389 . S
C543 H522 0.950 . S
C543 C542 1.373 . S
C543 C559 1.377 . S
C544 C542 1.389 . S
C544 C545 1.524 . S
C544 C558 1.377 . S
C545 C544 1.524 . S
C545 C546 1.397 . S
C545 C550 1.363 . S
C546 H523 0.950 . S
C546 C545 1.397 . S
C546 C547 1.334 . S
C547 H524 0.950 . S
C547 C546 1.334 . S
C547 C548 1.287 . S
C548 C547 1.287 . S
C548 C549 1.524 . S
C548 H567 0.913 . S
C549 H525 0.950 . S
C549 C548 1.524 . S
C549 C550 1.415 . S
C550 H526 0.950 . S
C550 C545 1.363 . S
C550 C549 1.415 . S
C551 H527 0.951 . S
C551 C552 1.366 . S
C551 C553 1.388 . S
C552 C551 1.366 . S
C552 C556 1.385 . S
C553 H528 0.951 . S
C553 C551 1.388 . S
C553 C554 1.366 . S
C554 C553 1.366 . S
C554 C555 1.414 . S
C554 C557 1.499 . S
C555 H529 0.950 . S
C555 C554 1.414 . S
C555 C556 1.374 . S
C556 H530 0.950 . S
C556 C552 1.385 . S
C556 C555 1.374 . S
C557 C554 1.499 . S
C557 C558 1.373 . S
C557 C559 1.389 . S
C558 H531 0.950 . S
C558 C544 1.377 . S
C558 C557 1.373 . S
C559 C543 1.377 . S
C559 C557 1.389 . S
C559 C560 1.524 . S
C560 C559 1.524 . S
C560 C561 1.397 . S
C560 C565 1.363 . S
C561 H532 0.950 . S
C561 C560 1.397 . S
C561 C562 1.334 . S
C562 H533 0.950 . S
C562 C561 1.334 . S
C562 C563 1.287 . S
C563 C562 1.287 . S
C563 C564 1.524 . S
C563 H566 0.999 . S
C564 H534 0.950 . S
C564 C563 1.524 . S
C564 C565 1.415 . S
C565 H535 0.950 . S
C565 C560 1.363 . S
C565 C564 1.415 . S
H566 C563 0.999 . S
H567 C548 0.913 . S
H568 C586 0.951 . S
H569 C588 0.951 . S
H570 C590 0.950 . S
H571 C591 0.950 . S
H572 C593 0.950 . S
H573 C596 0.950 . S
H574 C597 0.950 . S
H575 C599 0.950 . S
H576 C600 0.950 . S
H577 C601 0.951 . S
H578 C603 0.951 . S
H579 C605 0.950 . S
H580 C606 0.950 . S
H581 C608 0.950 . S
H582 C611 0.950 . S
H583 C612 0.950 . S
H584 C614 0.950 1_545 S
H585 C615 0.950 . S
C586 H568 0.951 . S
C586 C587 1.366 . S
C586 C588 1.388 . S
C587 C586 1.366 . S
C587 C591 1.385 . S
C588 H569 0.951 . S
C588 C586 1.388 . S
C588 C589 1.366 . S
C589 C588 1.366 . S
C589 C590 1.414 . S
C589 C592 1.499 . S
C590 H570 0.950 . S
C590 C589 1.414 . S
C590 C591 1.374 . S
C591 H571 0.950 . S
C591 C587 1.385 . S
C591 C590 1.374 . S
C592 C589 1.499 . S
C592 C593 1.373 . S
C592 C594 1.389 . S
C593 H572 0.950 . S
C593 C592 1.373 . S
C593 C609 1.377 . S
C594 C592 1.389 . S
C594 C595 1.524 . S
C594 C608 1.377 . S
C595 C594 1.524 . S
C595 C596 1.397 . S
C595 C600 1.363 . S
C596 H573 0.950 . S
C596 C595 1.397 . S
C596 C597 1.334 . S
C597 H574 0.950 . S
C597 C596 1.334 . S
C597 C598 1.287 . S
C598 C597 1.287 . S
C598 C599 1.524 . S
C598 H617 0.913 . S
C599 H575 0.950 . S
C599 C598 1.524 . S
C599 C600 1.415 . S
C600 H576 0.950 . S
C600 C595 1.363 . S
C600 C599 1.415 . S
C601 H577 0.951 . S
C601 C602 1.366 . S
C601 C603 1.388 . S
C602 C601 1.366 . S
C602 C606 1.385 . S
C603 H578 0.951 . S
C603 C601 1.388 . S
C603 C604 1.366 . S
C604 C603 1.366 . S
C604 C605 1.414 . S
C604 C607 1.499 . S
C605 H579 0.950 . S
C605 C604 1.414 . S
C605 C606 1.374 . S
C606 H580 0.950 . S
C606 C602 1.385 . S
C606 C605 1.374 . S
C607 C604 1.499 . S
C607 C608 1.373 . S
C607 C609 1.389 . S
C608 H581 0.950 . S
C608 C594 1.377 . S
C608 C607 1.373 . S
C609 C593 1.377 . S
C609 C607 1.389 . S
C609 C610 1.524 . S
C610 C609 1.524 . S
C610 C611 1.397 . S
C610 C615 1.363 . S
C611 H582 0.950 . S
C611 C610 1.397 . S
C611 C612 1.334 . S
C612 H583 0.950 . S
C612 C611 1.334 . S
C612 C613 1.287 . S
C613 C612 1.287 . S
C613 C614 1.524 . S
C613 H616 0.999 1_565 S
C614 H584 0.950 1_565 S
C614 C613 1.524 . S
C614 C615 1.415 . S
C615 H585 0.950 . S
C615 C610 1.363 . S
C615 C614 1.415 . S
H616 C613 0.999 1_545 S
H617 C598 0.913 . S
H618 C636 0.951 . S
H619 C638 0.951 . S
H620 C640 0.950 . S
H621 C641 0.950 . S
H622 C643 0.950 . S
H623 C646 0.950 . S
H624 C647 0.950 . S
H625 C649 0.950 . S
H626 C650 0.950 . S
H627 C651 0.951 . S
H628 C653 0.951 . S
H629 C655 0.950 . S
H630 C656 0.950 . S
H631 C658 0.950 . S
H632 C661 0.950 . S
H633 C662 0.950 . S
H634 C664 0.950 . S
H635 C665 0.950 . S
C636 H618 0.951 . S
C636 C637 1.366 . S
C636 C638 1.388 . S
C637 C636 1.366 . S
C637 C641 1.385 . S
C638 H619 0.951 . S
C638 C636 1.388 . S
C638 C639 1.366 . S
C639 C638 1.366 . S
C639 C640 1.414 . S
C639 C642 1.499 . S
C640 H620 0.950 . S
C640 C639 1.414 . S
C640 C641 1.374 . S
C641 H621 0.950 . S
C641 C637 1.385 . S
C641 C640 1.374 . S
C642 C639 1.499 . S
C642 C643 1.373 . S
C642 C644 1.389 . S
C643 H622 0.950 . S
C643 C642 1.373 . S
C643 C659 1.377 . S
C644 C642 1.389 . S
C644 C645 1.524 . S
C644 C658 1.377 . S
C645 C644 1.524 . S
C645 C646 1.397 . S
C645 C650 1.363 . S
C646 H623 0.950 . S
C646 C645 1.397 . S
C646 C647 1.334 . S
C647 H624 0.950 . S
C647 C646 1.334 . S
C647 C648 1.287 . S
C648 C647 1.287 . S
C648 C649 1.524 . S
C648 H667 0.913 . S
C649 H625 0.950 . S
C649 C648 1.524 . S
C649 C650 1.415 . S
C650 H626 0.950 . S
C650 C645 1.363 . S
C650 C649 1.415 . S
C651 H627 0.951 . S
C651 C652 1.366 . S
C651 C653 1.388 . S
C652 C651 1.366 . S
C652 C656 1.385 . S
C653 H628 0.951 . S
C653 C651 1.388 . S
C653 C654 1.366 . S
C654 C653 1.366 . S
C654 C655 1.414 . S
C654 C657 1.499 . S
C655 H629 0.950 . S
C655 C654 1.414 . S
C655 C656 1.374 . S
C656 H630 0.950 . S
C656 C652 1.385 . S
C656 C655 1.374 . S
C657 C654 1.499 . S
C657 C658 1.373 . S
C657 C659 1.389 . S
C658 H631 0.950 . S
C658 C644 1.377 . S
C658 C657 1.373 . S
C659 C643 1.377 . S
C659 C657 1.389 . S
C659 C660 1.524 . S
C660 C659 1.524 . S
C660 C661 1.397 . S
C660 C665 1.363 . S
C661 H632 0.950 . S
C661 C660 1.397 . S
C661 C662 1.334 . S
C662 H633 0.950 . S
C662 C661 1.334 . S
C662 C663 1.287 . S
C663 C662 1.287 . S
C663 C664 1.524 . S
C663 H666 0.999 1_545 S
C664 H634 0.950 . S
C664 C663 1.524 . S
C664 C665 1.415 . S
C665 H635 0.950 . S
C665 C660 1.363 . S
C665 C664 1.415 . S
H666 C663 0.999 1_565 S
H667 C648 0.913 . S
H668 C686 0.951 . S
H669 C688 0.951 . S
H670 C690 0.950 . S
H671 C691 0.950 . S
H672 C693 0.950 . S
H673 C696 0.950 . S
H674 C697 0.950 . S
H675 C699 0.923 1_655 S
H676 C700 0.950 . S
H677 C701 0.951 . S
H678 C703 0.951 . S
H679 C705 0.950 . S
H680 C706 0.950 . S
H681 C708 0.950 . S
H682 C711 0.950 . S
H683 C712 0.950 . S
H684 C714 0.950 . S
H685 C715 0.950 . S
C686 H668 0.951 . S
C686 C687 1.366 . S
C686 C688 1.388 . S
C687 C686 1.366 . S
C687 C691 1.385 . S
C688 H669 0.951 . S
C688 C686 1.388 . S
C688 C689 1.366 . S
C689 C688 1.366 . S
C689 C690 1.414 . S
C689 C692 1.499 . S
C690 H670 0.950 . S
C690 C689 1.414 . S
C690 C691 1.374 . S
C691 H671 0.950 . S
C691 C687 1.385 . S
C691 C690 1.374 . S
C692 C689 1.499 . S
C692 C693 1.373 . S
C692 C694 1.389 . S
C693 H672 0.950 . S
C693 C692 1.373 . S
C693 C709 1.377 . S
C694 C692 1.389 . S
C694 C695 1.524 . S
C694 C708 1.377 . S
C695 C694 1.524 . S
C695 C696 1.397 . S
C695 C700 1.363 . S
C696 H673 0.950 . S
C696 C695 1.397 . S
C696 C697 1.334 . S
C697 H674 0.950 . S
C697 C696 1.334 . S
C697 C698 1.287 . S
C698 C697 1.287 . S
C698 C699 1.524 . S
C698 H717 0.913 . S
C699 H675 0.923 1_455 S
C699 C698 1.524 . S
C699 C700 1.415 . S
C700 H676 0.950 . S
C700 C695 1.363 . S
C700 C699 1.415 . S
C701 H677 0.951 . S
C701 C702 1.366 . S
C701 C703 1.388 . S
C702 C701 1.366 . S
C702 C706 1.385 . S
C703 H678 0.951 . S
C703 C701 1.388 . S
C703 C704 1.366 . S
C704 C703 1.366 . S
C704 C705 1.414 . S
C704 C707 1.499 . S
C705 H679 0.950 . S
C705 C704 1.414 . S
C705 C706 1.374 . S
C706 H680 0.950 . S
C706 C702 1.385 . S
C706 C705 1.374 . S
C707 C704 1.499 . S
C707 C708 1.373 . S
C707 C709 1.389 . S
C708 H681 0.950 . S
C708 C694 1.377 . S
C708 C707 1.373 . S
C709 C693 1.377 . S
C709 C707 1.389 . S
C709 C710 1.524 . S
C710 C709 1.524 . S
C710 C711 1.397 . S
C710 C715 1.363 . S
C711 H682 0.950 . S
C711 C710 1.397 . S
C711 C712 1.334 . S
C712 H683 0.950 . S
C712 C711 1.334 . S
C712 C713 1.287 . S
C713 C712 1.287 . S
C713 C714 1.524 . S
C713 H716 0.999 . S
C714 H684 0.950 . S
C714 C713 1.524 . S
C714 C715 1.415 . S
C715 H685 0.950 . S
C715 C710 1.363 . S
C715 C714 1.415 . S
H716 C713 0.999 . S
H717 C698 0.913 . S
H718 C736 0.951 . S
H719 C738 0.951 . S
H720 C740 0.950 . S
H721 C741 0.950 . S
H722 C743 0.950 . S
H723 C746 0.950 . S
H724 C747 0.950 . S
H725 C749 0.950 . S
H726 C750 0.950 . S
H727 C751 0.951 . S
H728 C753 0.951 . S
H729 C755 0.950 . S
H730 C756 0.950 . S
H731 C758 0.950 . S
H732 C761 0.950 . S
H733 C762 0.950 . S
H734 C764 0.950 . S
H735 C765 0.950 . S
C736 H718 0.951 . S
C736 C737 1.366 . S
C736 C738 1.388 . S
C737 C736 1.366 . S
C737 C741 1.385 . S
C738 H719 0.951 . S
C738 C736 1.388 . S
C738 C739 1.366 . S
C739 C738 1.366 . S
C739 C740 1.414 . S
C739 C742 1.499 . S
C740 H720 0.950 . S
C740 C739 1.414 . S
C740 C741 1.374 . S
C741 H721 0.950 . S
C741 C737 1.385 . S
C741 C740 1.374 . S
C742 C739 1.499 . S
C742 C743 1.373 . S
C742 C744 1.389 . S
C743 H722 0.950 . S
C743 C742 1.373 . S
C743 C759 1.377 . S
C744 C742 1.389 . S
C744 C745 1.524 . S
C744 C758 1.377 . S
C745 C744 1.524 . S
C745 C746 1.397 . S
C745 C750 1.363 . S
C746 H723 0.950 . S
C746 C745 1.397 . S
C746 C747 1.334 . S
C747 H724 0.950 . S
C747 C746 1.334 . S
C747 C748 1.287 . S
C748 C747 1.287 . S
C748 C749 1.524 . S
C748 H767 0.913 . S
C749 H725 0.950 . S
C749 C748 1.524 . S
C749 C750 1.415 . S
C750 H726 0.950 . S
C750 C745 1.363 . S
C750 C749 1.415 . S
C751 H727 0.951 . S
C751 C752 1.366 . S
C751 C753 1.388 . S
C752 C751 1.366 . S
C752 C756 1.385 . S
C753 H728 0.951 . S
C753 C751 1.388 . S
C753 C754 1.366 . S
C754 C753 1.366 . S
C754 C755 1.414 . S
C754 C757 1.499 . S
C755 H729 0.950 . S
C755 C754 1.414 . S
C755 C756 1.374 . S
C756 H730 0.950 . S
C756 C752 1.385 . S
C756 C755 1.374 . S
C757 C754 1.499 . S
C757 C758 1.373 . S
C757 C759 1.389 . S
C758 H731 0.950 . S
C758 C744 1.377 . S
C758 C757 1.373 . S
C759 C743 1.377 . S
C759 C757 1.389 . S
C759 C760 1.524 . S
C760 C759 1.524 . S
C760 C761 1.397 . S
C760 C765 1.363 . S
C761 H732 0.950 . S
C761 C760 1.397 . S
C761 C762 1.334 . S
C762 H733 0.950 . S
C762 C761 1.334 . S
C762 C763 1.287 . S
C763 C762 1.287 . S
C763 C764 1.524 . S
C763 H766 0.999 . S
C764 H734 0.950 . S
C764 C763 1.524 . S
C764 C765 1.415 . S
C765 H735 0.950 . S
C765 C760 1.363 . S
C765 C764 1.415 . S
H766 C763 0.999 . S
H767 C748 0.913 . S
H768 C786 0.951 . S
H769 C788 0.951 . S
H770 C790 0.950 . S
H771 C791 0.950 . S
H772 C793 0.950 . S
H773 C796 0.950 . S
H774 C797 0.950 . S
H775 C799 0.950 . S
H776 C800 0.950 . S
H777 C801 0.951 . S
H778 C803 0.951 . S
H779 C805 0.950 . S
H780 C806 0.950 . S
H781 C808 0.950 . S
H782 C811 0.950 . S
H783 C812 0.950 . S
H784 C814 0.950 . S
H785 C815 0.950 . S
C786 H768 0.951 . S
C786 C787 1.366 . S
C786 C788 1.388 . S
C787 C786 1.366 . S
C787 C791 1.385 . S
C788 H769 0.951 . S
C788 C786 1.388 . S
C788 C789 1.366 . S
C789 C788 1.366 . S
C789 C790 1.414 . S
C789 C792 1.499 . S
C790 H770 0.950 . S
C790 C789 1.414 . S
C790 C791 1.374 . S
C791 H771 0.950 . S
C791 C787 1.385 . S
C791 C790 1.374 . S
C792 C789 1.499 . S
C792 C793 1.373 . S
C792 C794 1.389 . S
C793 H772 0.950 . S
C793 C792 1.373 . S
C793 C809 1.377 1_655 S
C794 C792 1.389 . S
C794 C795 1.524 . S
C794 C808 1.377 1_655 S
C795 C794 1.524 . S
C795 C796 1.397 . S
C795 C800 1.363 . S
C796 H773 0.950 . S
C796 C795 1.397 . S
C796 C797 1.334 . S
C797 H774 0.950 . S
C797 C796 1.334 . S
C797 C798 1.287 . S
C798 C797 1.287 . S
C798 C799 1.524 . S
C798 H817 0.913 . S
C799 H775 0.950 . S
C799 C798 1.524 . S
C799 C800 1.415 . S
C800 H776 0.950 . S
C800 C795 1.363 . S
C800 C799 1.415 . S
C801 H777 0.951 . S
C801 C802 1.366 . S
C801 C803 1.388 . S
C802 C801 1.366 . S
C802 C806 1.385 . S
C803 H778 0.951 . S
C803 C801 1.388 . S
C803 C804 1.366 . S
C804 C803 1.366 . S
C804 C805 1.414 . S
C804 C807 1.499 . S
C805 H779 0.950 . S
C805 C804 1.414 . S
C805 C806 1.374 . S
C806 H780 0.950 . S
C806 C802 1.385 . S
C806 C805 1.374 . S
C807 C804 1.499 . S
C807 C808 1.373 . S
C807 C809 1.389 . S
C808 H781 0.950 . S
C808 C794 1.377 1_455 S
C808 C807 1.373 . S
C809 C793 1.377 1_455 S
C809 C807 1.389 . S
C809 C810 1.524 . S
C810 C809 1.524 . S
C810 C811 1.397 . S
C810 C815 1.363 . S
C811 H782 0.950 . S
C811 C810 1.397 . S
C811 C812 1.334 . S
C812 H783 0.950 . S
C812 C811 1.334 . S
C812 C813 1.287 . S
C813 C812 1.287 . S
C813 C814 1.524 . S
C813 H816 0.999 . S
C814 H784 0.950 . S
C814 C813 1.524 . S
C814 C815 1.415 . S
C815 H785 0.950 . S
C815 C810 1.363 . S
C815 C814 1.415 . S
H816 C813 0.999 . S
H817 C798 0.913 . S
H818 C836 0.951 . S
H819 C838 0.951 . S
H820 C840 0.950 . S
H821 C841 0.950 . S
H822 C843 0.950 . S
H823 C846 0.950 . S
H824 C847 0.950 . S
H825 C849 0.950 . S
H826 C850 0.950 1_565 S
H827 C851 0.951 . S
H828 C853 0.951 . S
H829 C855 0.950 . S
H830 C856 0.950 . S
H831 C858 0.950 . S
H832 C861 0.950 . S
H833 C862 0.950 . S
H834 C864 0.950 . S
H835 C865 0.950 1_545 S
C836 H818 0.951 . S
C836 C837 1.366 . S
C836 C838 1.388 . S
C837 C836 1.366 . S
C837 C841 1.385 . S
C838 H819 0.951 . S
C838 C836 1.388 . S
C838 C839 1.366 . S
C839 C838 1.366 . S
C839 C840 1.414 . S
C839 C842 1.499 . S
C840 H820 0.950 . S
C840 C839 1.414 . S
C840 C841 1.374 . S
C841 H821 0.950 . S
C841 C837 1.385 . S
C841 C840 1.374 . S
C842 C839 1.499 . S
C842 C843 1.373 . S
C842 C844 1.389 . S
C843 H822 0.950 . S
C843 C842 1.373 . S
C843 C859 1.377 1_545 S
C844 C842 1.389 . S
C844 C845 1.524 . S
C844 C858 1.377 1_545 S
C845 C844 1.524 . S
C845 C846 1.397 . S
C845 C850 1.363 . S
C846 H823 0.950 . S
C846 C845 1.397 . S
C846 C847 1.334 . S
C847 H824 0.950 . S
C847 C846 1.334 . S
C847 C848 1.287 . S
C848 C847 1.287 . S
C848 C849 1.524 . S
C848 H867 0.913 . S
C849 H825 0.950 . S
C849 C848 1.524 . S
C849 C850 1.415 . S
C850 H826 0.950 1_545 S
C850 C845 1.363 . S
C850 C849 1.415 . S
C851 H827 0.951 . S
C851 C852 1.366 . S
C851 C853 1.388 . S
C852 C851 1.366 . S
C852 C856 1.385 . S
C853 H828 0.951 . S
C853 C851 1.388 . S
C853 C854 1.366 . S
C854 C853 1.366 . S
C854 C855 1.414 . S
C854 C857 1.499 . S
C855 H829 0.950 . S
C855 C854 1.414 . S
C855 C856 1.374 . S
C856 H830 0.950 . S
C856 C852 1.385 . S
C856 C855 1.374 . S
C857 C854 1.499 . S
C857 C858 1.373 . S
C857 C859 1.389 . S
C858 H831 0.950 . S
C858 C844 1.377 1_565 S
C858 C857 1.373 . S
C859 C843 1.377 1_565 S
C859 C857 1.389 . S
C859 C860 1.524 . S
C860 C859 1.524 . S
C860 C861 1.397 . S
C860 C865 1.363 . S
C861 H832 0.950 . S
C861 C860 1.397 . S
C861 C862 1.334 . S
C862 H833 0.950 . S
C862 C861 1.334 . S
C862 C863 1.287 . S
C863 C862 1.287 . S
C863 C864 1.524 . S
C863 H866 0.999 . S
C864 H834 0.950 . S
C864 C863 1.524 . S
C864 C865 1.415 . S
C865 H835 0.950 1_565 S
C865 C860 1.363 . S
C865 C864 1.415 . S
H866 C863 0.999 . S
H867 C848 0.913 . S
H868 C886 0.951 . S
H869 C888 0.951 . S
H870 C890 0.950 . S
H871 C891 0.950 . S
H872 C893 0.950 . S
H873 C896 0.950 . S
H874 C897 0.950 . S
H875 C899 0.950 . S
H876 C900 0.950 . S
H877 C901 0.951 . S
H878 C903 0.951 . S
H879 C905 0.950 . S
H880 C906 0.950 . S
H881 C908 0.950 . S
H882 C911 0.950 . S
H883 C912 0.950 . S
H884 C914 0.950 . S
H885 C915 0.950 . S
C886 H868 0.951 . S
C886 C887 1.366 . S
C886 C888 1.388 . S
C887 C886 1.366 . S
C887 C891 1.385 . S
C888 H869 0.951 . S
C888 C886 1.388 . S
C888 C889 1.366 . S
C889 C888 1.366 . S
C889 C890 1.414 . S
C889 C892 1.499 . S
C890 H870 0.950 . S
C890 C889 1.414 . S
C890 C891 1.374 . S
C891 H871 0.950 . S
C891 C887 1.385 . S
C891 C890 1.374 . S
C892 C889 1.499 . S
C892 C893 1.373 . S
C892 C894 1.389 . S
C893 H872 0.950 . S
C893 C892 1.373 . S
C893 C909 1.377 . S
C894 C892 1.389 . S
C894 C895 1.524 . S
C894 C908 1.377 . S
C895 C894 1.524 . S
C895 C896 1.397 . S
C895 C900 1.363 . S
C896 H873 0.950 . S
C896 C895 1.397 . S
C896 C897 1.334 . S
C897 H874 0.950 . S
C897 C896 1.334 . S
C897 C898 1.287 . S
C898 C897 1.287 . S
C898 C899 1.524 . S
C898 H917 0.913 . S
C899 H875 0.950 . S
C899 C898 1.524 . S
C899 C900 1.415 . S
C900 H876 0.950 . S
C900 C895 1.363 . S
C900 C899 1.415 . S
C901 H877 0.951 . S
C901 C902 1.366 . S
C901 C903 1.388 . S
C902 C901 1.366 . S
C902 C906 1.385 . S
C903 H878 0.951 . S
C903 C901 1.388 . S
C903 C904 1.366 . S
C904 C903 1.366 . S
C904 C905 1.414 . S
C904 C907 1.499 . S
C905 H879 0.950 . S
C905 C904 1.414 . S
C905 C906 1.374 . S
C906 H880 0.950 . S
C906 C902 1.385 . S
C906 C905 1.374 . S
C907 C904 1.499 . S
C907 C908 1.373 . S
C907 C909 1.389 . S
C908 H881 0.950 . S
C908 C894 1.377 . S
C908 C907 1.373 . S
C909 C893 1.377 . S
C909 C907 1.389 . S
C909 C910 1.524 . S
C910 C909 1.524 . S
C910 C911 1.397 . S
C910 C915 1.363 . S
C911 H882 0.950 . S
C911 C910 1.397 . S
C911 C912 1.334 . S
C912 H883 0.950 . S
C912 C911 1.334 . S
C912 C913 1.287 . S
C913 C912 1.287 . S
C913 C914 1.524 . S
C913 H916 0.999 . S
C914 H884 0.950 . S
C914 C913 1.524 . S
C914 C915 1.415 . S
C915 H885 0.950 . S
C915 C910 1.363 . S
C915 C914 1.415 . S
H916 C913 0.999 . S
H917 C898 0.913 . S
H918 C936 0.951 . S
H919 C938 0.951 . S
H920 C940 0.950 . S
H921 C941 0.950 . S
H922 C943 0.950 . S
H923 C946 0.950 . S
H924 C947 0.950 . S
H925 C949 0.950 . S
H926 C950 0.950 . S
H927 C951 0.951 . S
H928 C953 0.951 . S
H929 C955 0.950 . S
H930 C956 0.950 . S
H931 C958 0.950 . S
H932 C961 0.950 . S
H933 C962 0.950 . S
H934 C964 0.950 . S
H935 C965 0.950 . S
C936 H918 0.951 . S
C936 C937 1.366 . S
C936 C938 1.388 . S
C937 C936 1.366 . S
C937 C941 1.385 . S
C938 H919 0.951 . S
C938 C936 1.388 . S
C938 C939 1.366 . S
C939 C938 1.366 . S
C939 C940 1.414 . S
C939 C942 1.499 . S
C940 H920 0.950 . S
C940 C939 1.414 . S
C940 C941 1.374 . S
C941 H921 0.950 . S
C941 C937 1.385 . S
C941 C940 1.374 . S
C942 C939 1.499 . S
C942 C943 1.373 . S
C942 C944 1.389 . S
C943 H922 0.950 . S
C943 C942 1.373 . S
C943 C959 1.377 1_545 S
C944 C942 1.389 . S
C944 C945 1.524 . S
C944 C958 1.377 1_545 S
C945 C944 1.524 . S
C945 C946 1.397 . S
C945 C950 1.363 . S
C946 H923 0.950 . S
C946 C945 1.397 . S
C946 C947 1.334 . S
C947 H924 0.950 . S
C947 C946 1.334 . S
C947 C948 1.287 . S
C948 C947 1.287 . S
C948 C949 1.524 . S
C948 H967 0.913 . S
C949 H925 0.950 . S
C949 C948 1.524 . S
C949 C950 1.415 . S
C950 H926 0.950 . S
C950 C945 1.363 . S
C950 C949 1.415 . S
C951 H927 0.951 . S
C951 C952 1.366 . S
C951 C953 1.388 . S
C952 C951 1.366 . S
C952 C956 1.385 . S
C953 H928 0.951 . S
C953 C951 1.388 . S
C953 C954 1.366 . S
C954 C953 1.366 . S
C954 C955 1.414 . S
C954 C957 1.499 . S
C955 H929 0.950 . S
C955 C954 1.414 . S
C955 C956 1.374 . S
C956 H930 0.950 . S
C956 C952 1.385 . S
C956 C955 1.374 . S
C957 C954 1.499 . S
C957 C958 1.373 . S
C957 C959 1.389 . S
C958 H931 0.950 . S
C958 C944 1.377 1_565 S
C958 C957 1.373 . S
C959 C943 1.377 1_565 S
C959 C957 1.389 . S
C959 C960 1.524 . S
C960 C959 1.524 . S
C960 C961 1.397 . S
C960 C965 1.363 . S
C961 H932 0.950 . S
C961 C960 1.397 . S
C961 C962 1.334 . S
C962 H933 0.950 . S
C962 C961 1.334 . S
C962 C963 1.287 . S
C963 C962 1.287 . S
C963 C964 1.524 . S
C963 H966 0.999 . S
C964 H934 0.950 . S
C964 C963 1.524 . S
C964 C965 1.415 . S
C965 H935 0.950 . S
C965 C960 1.363 . S
C965 C964 1.415 . S
H966 C963 0.999 . S
H967 C948 0.913 . S
H968 C986 0.951 . S
H969 C988 0.951 . S
H970 C990 0.950 . S
H971 C991 0.950 . S
H972 C993 0.950 . S
H973 C996 0.950 . S
H974 C997 0.950 . S
H975 C999 0.950 . S
H976 C1000 0.950 . S
H977 C1001 0.951 . S
H978 C1003 0.951 . S
H979 C1005 0.950 . S
H980 C1006 0.950 . S
H981 C1008 0.950 . S
H982 C1011 0.950 . S
H983 C1012 0.950 . S
H984 C1014 0.950 . S
H985 C1015 0.950 . S
C986 H968 0.951 . S
C986 C987 1.366 . S
C986 C988 1.388 . S
C987 C986 1.366 . S
C987 C991 1.385 . S
C988 H969 0.951 . S
C988 C986 1.388 . S
C988 C989 1.366 . S
C989 C988 1.366 . S
C989 C990 1.414 . S
C989 C992 1.499 . S
C990 H970 0.950 . S
C990 C989 1.414 . S
C990 C991 1.374 . S
C991 H971 0.950 . S
C991 C987 1.385 . S
C991 C990 1.374 . S
C992 C989 1.499 . S
C992 C993 1.373 . S
C992 C994 1.389 . S
C993 H972 0.950 . S
C993 C992 1.373 . S
C993 C1009 1.377 . S
C994 C992 1.389 . S
C994 C995 1.524 . S
C994 C1008 1.377 . S
C995 C994 1.524 . S
C995 C996 1.397 . S
C995 C1000 1.363 . S
C996 H973 0.950 . S
C996 C995 1.397 . S
C996 C997 1.334 . S
C997 H974 0.950 . S
C997 C996 1.334 . S
C997 C998 1.287 . S
C998 C997 1.287 . S
C998 C999 1.524 . S
C998 H1017 0.913 . S
C999 H975 0.950 . S
C999 C998 1.524 . S
C999 C1000 1.415 . S
C1000 H976 0.950 . S
C1000 C995 1.363 . S
C1000 C999 1.415 . S
C1001 H977 0.951 . S
C1001 C1002 1.366 . S
C1001 C1003 1.388 . S
C1002 C1001 1.366 . S
C1002 C1006 1.385 . S
C1003 H978 0.951 . S
C1003 C1001 1.388 . S
C1003 C1004 1.366 . S
C1004 C1003 1.366 . S
C1004 C1005 1.414 . S
C1004 C1007 1.499 . S
C1005 H979 0.950 . S
C1005 C1004 1.414 . S
C1005 C1006 1.374 . S
C1006 H980 0.950 . S
C1006 C1002 1.385 . S
C1006 C1005 1.374 . S
C1007 C1004 1.499 . S
C1007 C1008 1.373 . S
C1007 C1009 1.389 . S
C1008 H981 0.950 . S
C1008 C994 1.377 . S
C1008 C1007 1.373 . S
C1009 C993 1.377 . S
C1009 C1007 1.389 . S
C1009 C1010 1.524 . S
C1010 C1009 1.524 . S
C1010 C1011 1.397 . S
C1010 C1015 1.363 . S
C1011 H982 0.950 . S
C1011 C1010 1.397 . S
C1011 C1012 1.334 . S
C1012 H983 0.950 . S
C1012 C1011 1.334 . S
C1012 C1013 1.287 . S
C1013 C1012 1.287 . S
C1013 C1014 1.524 . S
C1013 H1016 0.999 . S
C1014 H984 0.950 . S
C1014 C1013 1.524 . S
C1014 C1015 1.415 . S
C1015 H985 0.950 . S
C1015 C1010 1.363 . S
C1015 C1014 1.415 . S
H1016 C1013 0.999 . S
H1017 C998 0.913 . S
H1018 C1036 0.951 . S
H1019 C1038 0.951 . S
H1020 C1040 0.950 . S
H1021 C1041 0.950 . S
H1022 C1043 0.950 . S
H1023 C1046 0.950 . S
H1024 C1047 0.950 . S
H1025 C1049 0.950 . S
H1026 C1050 0.950 . S
H1027 C1051 0.951 . S
H1028 C1053 0.951 . S
H1029 C1055 0.950 . S
H1030 C1056 0.950 . S
H1031 C1058 0.950 . S
H1032 C1061 0.950 . S
H1033 C1062 0.950 . S
H1034 C1064 0.950 . S
H1035 C1065 0.950 . S
C1036 H1018 0.951 . S
C1036 C1037 1.366 . S
C1036 C1038 1.388 . S
C1037 C1036 1.366 . S
C1037 C1041 1.385 . S
C1038 H1019 0.951 . S
C1038 C1036 1.388 . S
C1038 C1039 1.366 . S
C1039 C1038 1.366 . S
C1039 C1040 1.414 . S
C1039 C1042 1.499 . S
C1040 H1020 0.950 . S
C1040 C1039 1.414 . S
C1040 C1041 1.374 . S
C1041 H1021 0.950 . S
C1041 C1037 1.385 . S
C1041 C1040 1.374 . S
C1042 C1039 1.499 . S
C1042 C1043 1.373 . S
C1042 C1044 1.389 . S
C1043 H1022 0.950 . S
C1043 C1042 1.373 . S
C1043 C1059 1.377 1_455 S
C1044 C1042 1.389 . S
C1044 C1045 1.524 . S
C1044 C1058 1.377 1_455 S
C1045 C1044 1.524 . S
C1045 C1046 1.397 . S
C1045 C1050 1.363 . S
C1046 H1023 0.950 . S
C1046 C1045 1.397 . S
C1046 C1047 1.334 . S
C1047 H1024 0.950 . S
C1047 C1046 1.334 . S
C1047 C1048 1.287 . S
C1048 C1047 1.287 . S
C1048 C1049 1.524 . S
C1048 H1067 0.913 . S
C1049 H1025 0.950 . S
C1049 C1048 1.524 . S
C1049 C1050 1.415 . S
C1050 H1026 0.950 . S
C1050 C1045 1.363 . S
C1050 C1049 1.415 . S
C1051 H1027 0.951 . S
C1051 C1052 1.366 . S
C1051 C1053 1.388 . S
C1052 C1051 1.366 . S
C1052 C1056 1.385 . S
C1053 H1028 0.951 . S
C1053 C1051 1.388 . S
C1053 C1054 1.366 . S
C1054 C1053 1.366 . S
C1054 C1055 1.414 . S
C1054 C1057 1.499 . S
C1055 H1029 0.950 . S
C1055 C1054 1.414 . S
C1055 C1056 1.374 . S
C1056 H1030 0.950 . S
C1056 C1052 1.385 . S
C1056 C1055 1.374 . S
C1057 C1054 1.499 . S
C1057 C1058 1.373 . S
C1057 C1059 1.389 . S
C1058 H1031 0.950 . S
C1058 C1044 1.377 1_655 S
C1058 C1057 1.373 . S
C1059 C1043 1.377 1_655 S
C1059 C1057 1.389 . S
C1059 C1060 1.524 . S
C1060 C1059 1.524 . S
C1060 C1061 1.397 . S
C1060 C1065 1.363 . S
C1061 H1032 0.950 . S
C1061 C1060 1.397 . S
C1061 C1062 1.334 . S
C1062 H1033 0.950 . S
C1062 C1061 1.334 . S
C1062 C1063 1.287 . S
C1063 C1062 1.287 . S
C1063 C1064 1.524 . S
C1063 H1066 0.999 . S
C1064 H1034 0.950 . S
C1064 C1063 1.524 . S
C1064 C1065 1.415 . S
C1065 H1035 0.950 . S
C1065 C1060 1.363 . S
C1065 C1064 1.415 . S
H1066 C1063 0.999 . S
H1067 C1048 0.913 . S
H1068 C1086 0.951 . S
H1069 C1088 0.951 . S
H1070 C1090 0.950 . S
H1071 C1091 0.950 . S
H1072 C1093 0.950 . S
H1073 C1096 0.950 . S
H1074 C1097 0.950 . S
H1075 C1099 0.950 . S
H1076 C1100 0.950 . S
H1077 C1101 0.951 . S
H1078 C1103 0.951 . S
H1079 C1105 0.950 . S
H1080 C1106 0.950 . S
H1081 C1108 0.950 . S
H1082 C1111 0.950 . S
H1083 C1112 0.950 . S
H1084 C1114 0.950 . S
H1085 C1115 0.950 . S
C1086 H1068 0.951 . S
C1086 C1087 1.366 . S
C1086 C1088 1.388 . S
C1087 C1086 1.366 . S
C1087 C1091 1.385 . S
C1088 H1069 0.951 . S
C1088 C1086 1.388 . S
C1088 C1089 1.366 . S
C1089 C1088 1.366 . S
C1089 C1090 1.414 . S
C1089 C1092 1.499 . S
C1090 H1070 0.950 . S
C1090 C1089 1.414 . S
C1090 C1091 1.374 . S
C1091 H1071 0.950 . S
C1091 C1087 1.385 . S
C1091 C1090 1.374 . S
C1092 C1089 1.499 . S
C1092 C1093 1.373 . S
C1092 C1094 1.389 . S
C1093 H1072 0.950 . S
C1093 C1092 1.373 . S
C1093 C1109 1.377 . S
C1094 C1092 1.389 . S
C1094 C1095 1.524 . S
C1094 C1108 1.377 . S
C1095 C1094 1.524 . S
C1095 C1096 1.397 . S
C1095 C1100 1.363 . S
C1096 H1073 0.950 . S
C1096 C1095 1.397 . S
C1096 C1097 1.334 . S
C1097 H1074 0.950 . S
C1097 C1096 1.334 . S
C1097 C1098 1.287 . S
C1098 C1097 1.287 . S
C1098 C1099 1.524 . S
C1098 H1117 0.913 . S
C1099 H1075 0.950 . S
C1099 C1098 1.524 . S
C1099 C1100 1.415 . S
C1100 H1076 0.950 . S
C1100 C1095 1.363 . S
C1100 C1099 1.415 . S
C1101 H1077 0.951 . S
C1101 C1102 1.366 . S
C1101 C1103 1.388 . S
C1102 C1101 1.366 . S
C1102 C1106 1.385 . S
C1103 H1078 0.951 . S
C1103 C1101 1.388 . S
C1103 C1104 1.366 . S
C1104 C1103 1.366 . S
C1104 C1105 1.414 . S
C1104 C1107 1.499 . S
C1105 H1079 0.950 . S
C1105 C1104 1.414 . S
C1105 C1106 1.374 . S
C1106 H1080 0.950 . S
C1106 C1102 1.385 . S
C1106 C1105 1.374 . S
C1107 C1104 1.499 . S
C1107 C1108 1.373 . S
C1107 C1109 1.389 . S
C1108 H1081 0.950 . S
C1108 C1094 1.377 . S
C1108 C1107 1.373 . S
C1109 C1093 1.377 . S
C1109 C1107 1.389 . S
C1109 C1110 1.524 . S
C1110 C1109 1.524 . S
C1110 C1111 1.397 . S
C1110 C1115 1.363 . S
C1111 H1082 0.950 . S
C1111 C1110 1.397 . S
C1111 C1112 1.334 . S
C1112 H1083 0.950 . S
C1112 C1111 1.334 . S
C1112 C1113 1.287 . S
C1113 C1112 1.287 . S
C1113 C1114 1.524 . S
C1113 H1116 0.999 . S
C1114 H1084 0.950 . S
C1114 C1113 1.524 . S
C1114 C1115 1.415 . S
C1115 H1085 0.950 . S
C1115 C1110 1.363 . S
C1115 C1114 1.415 . S
H1116 C1113 0.999 . S
H1117 C1098 0.913 . S
H1118 C1136 0.951 . S
H1119 C1138 0.951 . S
H1120 C1140 0.950 . S
H1121 C1141 0.950 . S
H1122 C1143 0.950 . S
H1123 C1146 0.950 . S
H1124 C1147 0.950 . S
H1125 C1149 0.950 . S
H1126 C1150 0.950 . S
H1127 C1151 0.944 1_455 S
H1128 C1153 0.951 . S
H1129 C1155 0.950 . S
H1130 C1156 0.950 . S
H1131 C1158 0.950 . S
H1132 C1161 0.950 . S
H1133 C1162 0.950 . S
H1134 C1164 0.950 . S
H1135 C1165 0.950 . S
C1136 H1118 0.951 . S
C1136 C1137 1.366 . S
C1136 C1138 1.388 . S
C1137 C1136 1.366 . S
C1137 C1141 1.385 . S
C1138 H1119 0.951 . S
C1138 C1136 1.388 . S
C1138 C1139 1.366 . S
C1139 C1138 1.366 . S
C1139 C1140 1.414 . S
C1139 C1142 1.499 . S
C1140 H1120 0.950 . S
C1140 C1139 1.414 . S
C1140 C1141 1.374 . S
C1141 H1121 0.950 . S
C1141 C1137 1.385 . S
C1141 C1140 1.374 . S
C1142 C1139 1.499 . S
C1142 C1143 1.373 . S
C1142 C1144 1.389 . S
C1143 H1122 0.950 . S
C1143 C1142 1.373 . S
C1143 C1159 1.377 . S
C1144 C1142 1.389 . S
C1144 C1145 1.524 . S
C1144 C1158 1.377 . S
C1145 C1144 1.524 . S
C1145 C1146 1.397 . S
C1145 C1150 1.363 . S
C1146 H1123 0.950 . S
C1146 C1145 1.397 . S
C1146 C1147 1.334 . S
C1147 H1124 0.950 . S
C1147 C1146 1.334 . S
C1147 C1148 1.287 . S
C1148 C1147 1.287 . S
C1148 C1149 1.524 . S
C1148 H1167 0.913 . S
C1149 H1125 0.950 . S
C1149 C1148 1.524 . S
C1149 C1150 1.415 . S
C1150 H1126 0.950 . S
C1150 C1145 1.363 . S
C1150 C1149 1.415 . S
C1151 H1127 0.944 1_655 S
C1151 C1152 1.367 1_655 S
C1151 C1153 1.393 . S
C1152 C1151 1.367 1_455 S
C1152 C1156 1.385 1_455 S
C1153 H1128 0.951 . S
C1153 C1151 1.393 . S
C1153 C1154 1.366 . S
C1154 C1153 1.366 . S
C1154 C1155 1.414 . S
C1154 C1157 1.499 . S
C1155 H1129 0.950 . S
C1155 C1154 1.414 . S
C1155 C1156 1.374 . S
C1156 H1130 0.950 . S
C1156 C1152 1.385 1_655 S
C1156 C1155 1.374 . S
C1157 C1154 1.499 . S
C1157 C1158 1.373 . S
C1157 C1159 1.389 . S
C1158 H1131 0.950 . S
C1158 C1144 1.377 . S
C1158 C1157 1.373 . S
C1159 C1143 1.377 . S
C1159 C1157 1.389 . S
C1159 C1160 1.524 . S
C1160 C1159 1.524 . S
C1160 C1161 1.397 . S
C1160 C1165 1.363 . S
C1161 H1132 0.950 . S
C1161 C1160 1.397 . S
C1161 C1162 1.334 . S
C1162 H1133 0.950 . S
C1162 C1161 1.334 . S
C1162 C1163 1.287 . S
C1163 C1162 1.287 . S
C1163 C1164 1.524 . S
C1163 H1166 0.999 . S
C1164 H1134 0.950 . S
C1164 C1163 1.524 . S
C1164 C1165 1.415 . S
C1165 H1135 0.950 . S
C1165 C1160 1.363 . S
C1165 C1164 1.415 . S
H1166 C1163 0.999 . S
H1167 C1148 0.913 . S
H1168 C1186 0.951 . S
H1169 C1188 0.951 . S
H1170 C1190 0.950 . S
H1171 C1191 0.950 . S
H1172 C1193 0.950 . S
H1173 C1196 0.950 . S
H1174 C1197 0.950 . S
H1175 C1199 0.950 . S
H1176 C1200 0.950 . S
H1177 C1201 0.950 1_565 S
H1178 C1203 0.951 . S
H1179 C1205 0.950 . S
H1180 C1206 0.950 . S
H1181 C1208 0.950 . S
H1182 C1211 0.950 . S
H1183 C1212 0.950 . S
H1184 C1214 0.950 . S
H1185 C1215 0.950 . S
C1186 H1168 0.951 . S
C1186 C1187 1.366 . S
C1186 C1188 1.388 . S
C1187 C1186 1.366 . S
C1187 C1191 1.385 . S
C1188 H1169 0.951 . S
C1188 C1186 1.388 . S
C1188 C1189 1.366 . S
C1189 C1188 1.366 . S
C1189 C1190 1.414 . S
C1189 C1192 1.499 . S
C1190 H1170 0.950 . S
C1190 C1189 1.414 . S
C1190 C1191 1.374 . S
C1191 H1171 0.950 . S
C1191 C1187 1.385 . S
C1191 C1190 1.374 . S
C1192 C1189 1.499 . S
C1192 C1193 1.373 . S
C1192 C1194 1.389 . S
C1193 H1172 0.950 . S
C1193 C1192 1.373 . S
C1193 C1209 1.377 . S
C1194 C1192 1.389 . S
C1194 C1195 1.524 . S
C1194 C1208 1.377 . S
C1195 C1194 1.524 . S
C1195 C1196 1.397 . S
C1195 C1200 1.363 . S
C1196 H1173 0.950 . S
C1196 C1195 1.397 . S
C1196 C1197 1.334 . S
C1197 H1174 0.950 . S
C1197 C1196 1.334 . S
C1197 C1198 1.287 . S
C1198 C1197 1.287 . S
C1198 C1199 1.524 . S
C1198 H1217 0.913 . S
C1199 H1175 0.950 . S
C1199 C1198 1.524 . S
C1199 C1200 1.415 . S
C1200 H1176 0.950 . S
C1200 C1195 1.363 . S
C1200 C1199 1.415 . S
C1201 H1177 0.950 1_545 S
C1201 C1202 1.363 1_545 S
C1201 C1203 1.391 . S
C1202 C1201 1.363 1_565 S
C1202 C1206 1.385 1_565 S
C1203 H1178 0.951 . S
C1203 C1201 1.391 . S
C1203 C1204 1.366 . S
C1204 C1203 1.366 . S
C1204 C1205 1.414 . S
C1204 C1207 1.499 . S
C1205 H1179 0.950 . S
C1205 C1204 1.414 . S
C1205 C1206 1.374 . S
C1206 H1180 0.950 . S
C1206 C1202 1.385 1_545 S
C1206 C1205 1.374 . S
C1207 C1204 1.499 . S
C1207 C1208 1.373 . S
C1207 C1209 1.389 . S
C1208 H1181 0.950 . S
C1208 C1194 1.377 . S
C1208 C1207 1.373 . S
C1209 C1193 1.377 . S
C1209 C1207 1.389 . S
C1209 C1210 1.524 . S
C1210 C1209 1.524 . S
C1210 C1211 1.397 . S
C1210 C1215 1.363 . S
C1211 H1182 0.950 . S
C1211 C1210 1.397 . S
C1211 C1212 1.334 . S
C1212 H1183 0.950 . S
C1212 C1211 1.334 . S
C1212 C1213 1.287 . S
C1213 C1212 1.287 . S
C1213 C1214 1.524 . S
C1213 H1216 0.999 . S
C1214 H1184 0.950 . S
C1214 C1213 1.524 . S
C1214 C1215 1.415 . S
C1215 H1185 0.950 . S
C1215 C1210 1.363 . S
C1215 C1214 1.415 . S
H1216 C1213 0.999 . S
H1217 C1198 0.913 . S
H1218 C1236 0.951 . S
H1219 C1238 0.951 . S
H1220 C1240 0.950 . S
H1221 C1241 0.950 . S
H1222 C1243 0.950 . S
H1223 C1246 0.950 . S
H1224 C1247 0.950 . S
H1225 C1249 0.950 . S
H1226 C1250 0.950 . S
H1227 C1251 0.951 . S
H1228 C1253 0.951 . S
H1229 C1255 0.950 . S
H1230 C1256 0.950 . S
H1231 C1258 0.950 . S
H1232 C1261 0.950 . S
H1233 C1262 0.950 . S
H1234 C1264 0.950 . S
H1235 C1265 0.950 . S
C1236 H1218 0.951 . S
C1236 C1237 1.366 . S
C1236 C1238 1.388 . S
C1237 C1236 1.366 . S
C1237 C1241 1.385 . S
C1238 H1219 0.951 . S
C1238 C1236 1.388 . S
C1238 C1239 1.366 . S
C1239 C1238 1.366 . S
C1239 C1240 1.414 . S
C1239 C1242 1.499 . S
C1240 H1220 0.950 . S
C1240 C1239 1.414 . S
C1240 C1241 1.374 . S
C1241 H1221 0.950 . S
C1241 C1237 1.385 . S
C1241 C1240 1.374 . S
C1242 C1239 1.499 . S
C1242 C1243 1.373 . S
C1242 C1244 1.389 . S
C1243 H1222 0.950 . S
C1243 C1242 1.373 . S
C1243 C1259 1.377 . S
C1244 C1242 1.389 . S
C1244 C1245 1.524 . S
C1244 C1258 1.377 . S
C1245 C1244 1.524 . S
C1245 C1246 1.397 . S
C1245 C1250 1.363 . S
C1246 H1223 0.950 . S
C1246 C1245 1.397 . S
C1246 C1247 1.334 . S
C1247 H1224 0.950 . S
C1247 C1246 1.334 . S
C1247 C1248 1.287 . S
C1248 C1247 1.287 . S
C1248 C1249 1.524 . S
C1248 H1267 0.913 . S
C1249 H1225 0.950 . S
C1249 C1248 1.524 . S
C1249 C1250 1.415 . S
C1250 H1226 0.950 . S
C1250 C1245 1.363 . S
C1250 C1249 1.415 . S
C1251 H1227 0.951 . S
C1251 C1252 1.366 . S
C1251 C1253 1.388 . S
C1252 C1251 1.366 . S
C1252 C1256 1.385 . S
C1253 H1228 0.951 . S
C1253 C1251 1.388 . S
C1253 C1254 1.366 . S
C1254 C1253 1.366 . S
C1254 C1255 1.414 . S
C1254 C1257 1.499 . S
C1255 H1229 0.950 . S
C1255 C1254 1.414 . S
C1255 C1256 1.374 . S
C1256 H1230 0.950 . S
C1256 C1252 1.385 . S
C1256 C1255 1.374 . S
C1257 C1254 1.499 . S
C1257 C1258 1.373 . S
C1257 C1259 1.389 . S
C1258 H1231 0.950 . S
C1258 C1244 1.377 . S
C1258 C1257 1.373 . S
C1259 C1243 1.377 . S
C1259 C1257 1.389 . S
C1259 C1260 1.524 . S
C1260 C1259 1.524 . S
C1260 C1261 1.397 . S
C1260 C1265 1.363 . S
C1261 H1232 0.950 . S
C1261 C1260 1.397 . S
C1261 C1262 1.334 . S
C1262 H1233 0.950 . S
C1262 C1261 1.334 . S
C1262 C1263 1.287 . S
C1263 C1262 1.287 . S
C1263 C1264 1.524 . S
C1263 H1266 0.999 . S
C1264 H1234 0.950 . S
C1264 C1263 1.524 . S
C1264 C1265 1.415 . S
C1265 H1235 0.950 . S
C1265 C1260 1.363 . S
C1265 C1264 1.415 . S
H1266 C1263 0.999 . S
H1267 C1248 0.913 . S
H1268 C1286 0.951 . S
H1269 C1288 0.951 . S
H1270 C1290 0.950 . S
H1271 C1291 0.950 . S
H1272 C1293 0.950 . S
H1273 C1296 0.950 . S
H1274 C1297 0.950 . S
H1275 C1299 0.950 . S
H1276 C1300 0.950 . S
H1277 C1301 0.951 1_655 S
H1278 C1303 0.951 . S
H1279 C1305 0.950 . S
H1280 C1306 0.944 1_655 S
H1281 C1308 0.950 . S
H1282 C1311 0.950 . S
H1283 C1312 0.950 . S
H1284 C1314 0.950 . S
H1285 C1315 0.950 . S
C1286 H1268 0.951 . S
C1286 C1287 1.366 . S
C1286 C1288 1.388 . S
C1287 C1286 1.366 . S
C1287 C1291 1.385 . S
C1288 H1269 0.951 . S
C1288 C1286 1.388 . S
C1288 C1289 1.366 . S
C1289 C1288 1.366 . S
C1289 C1290 1.414 . S
C1289 C1292 1.499 . S
C1290 H1270 0.950 . S
C1290 C1289 1.414 . S
C1290 C1291 1.374 . S
C1291 H1271 0.950 . S
C1291 C1287 1.385 . S
C1291 C1290 1.374 . S
C1292 C1289 1.499 . S
C1292 C1293 1.373 . S
C1292 C1294 1.389 . S
C1293 H1272 0.950 . S
C1293 C1292 1.373 . S
C1293 C1309 1.377 . S
C1294 C1292 1.389 . S
C1294 C1295 1.524 . S
C1294 C1308 1.377 . S
C1295 C1294 1.524 . S
C1295 C1296 1.397 . S
C1295 C1300 1.363 . S
C1296 H1273 0.950 . S
C1296 C1295 1.397 . S
C1296 C1297 1.334 . S
C1297 H1274 0.950 . S
C1297 C1296 1.334 . S
C1297 C1298 1.287 . S
C1298 C1297 1.287 . S
C1298 C1299 1.524 . S
C1298 H1317 0.913 . S
C1299 H1275 0.950 . S
C1299 C1298 1.524 . S
C1299 C1300 1.415 . S
C1300 H1276 0.950 . S
C1300 C1295 1.363 . S
C1300 C1299 1.415 . S
C1301 H1277 0.951 1_455 S
C1301 C1302 1.366 1_455 S
C1301 C1303 1.388 . S
C1302 C1301 1.366 1_655 S
C1302 C1306 1.385 1_655 S
C1303 H1278 0.951 . S
C1303 C1301 1.388 . S
C1303 C1304 1.366 . S
C1304 C1303 1.366 . S
C1304 C1305 1.414 . S
C1304 C1307 1.499 . S
C1305 H1279 0.950 . S
C1305 C1304 1.414 . S
C1305 C1306 1.374 . S
C1306 H1280 0.944 1_455 S
C1306 C1302 1.385 1_455 S
C1306 C1305 1.374 . S
C1307 C1304 1.499 . S
C1307 C1308 1.373 . S
C1307 C1309 1.389 . S
C1308 H1281 0.950 . S
C1308 C1294 1.377 . S
C1308 C1307 1.373 . S
C1309 C1293 1.377 . S
C1309 C1307 1.389 . S
C1309 C1310 1.524 . S
C1310 C1309 1.524 . S
C1310 C1311 1.397 . S
C1310 C1315 1.363 . S
C1311 H1282 0.950 . S
C1311 C1310 1.397 . S
C1311 C1312 1.334 . S
C1312 H1283 0.950 . S
C1312 C1311 1.334 . S
C1312 C1313 1.287 . S
C1313 C1312 1.287 . S
C1313 C1314 1.524 . S
C1313 H1316 0.999 . S
C1314 H1284 0.950 . S
C1314 C1313 1.524 . S
C1314 C1315 1.415 . S
C1315 H1285 0.950 . S
C1315 C1310 1.363 . S
C1315 C1314 1.415 . S
H1316 C1313 0.999 . S
H1317 C1298 0.913 . S
H1318 C1336 0.951 . S
H1319 C1338 0.951 . S
H1320 C1340 0.950 . S
H1321 C1341 0.950 . S
H1322 C1343 0.950 . S
H1323 C1346 0.950 . S
H1324 C1347 0.950 . S
H1325 C1349 0.950 . S
H1326 C1350 0.950 . S
H1327 C1351 0.951 . S
H1328 C1353 0.951 . S
H1329 C1355 0.950 . S
H1330 C1356 0.950 1_545 S
H1331 C1358 0.950 . S
H1332 C1361 0.950 . S
H1333 C1362 0.950 . S
H1334 C1364 0.950 . S
H1335 C1365 0.950 . S
C1336 H1318 0.951 . S
C1336 C1337 1.366 . S
C1336 C1338 1.388 . S
C1337 C1336 1.366 . S
C1337 C1341 1.385 . S
C1338 H1319 0.951 . S
C1338 C1336 1.388 . S
C1338 C1339 1.366 . S
C1339 C1338 1.366 . S
C1339 C1340 1.414 . S
C1339 C1342 1.499 . S
C1340 H1320 0.950 . S
C1340 C1339 1.414 . S
C1340 C1341 1.374 . S
C1341 H1321 0.950 . S
C1341 C1337 1.385 . S
C1341 C1340 1.374 . S
C1342 C1339 1.499 . S
C1342 C1343 1.373 . S
C1342 C1344 1.389 . S
C1343 H1322 0.950 . S
C1343 C1342 1.373 . S
C1343 C1359 1.377 . S
C1344 C1342 1.389 . S
C1344 C1345 1.524 . S
C1344 C1358 1.377 . S
C1345 C1344 1.524 . S
C1345 C1346 1.397 . S
C1345 C1350 1.363 . S
C1346 H1323 0.950 . S
C1346 C1345 1.397 . S
C1346 C1347 1.334 . S
C1347 H1324 0.950 . S
C1347 C1346 1.334 . S
C1347 C1348 1.287 . S
C1348 C1347 1.287 . S
C1348 C1349 1.524 . S
C1348 H1367 0.913 . S
C1349 H1325 0.950 . S
C1349 C1348 1.524 . S
C1349 C1350 1.415 . S
C1350 H1326 0.950 . S
C1350 C1345 1.363 . S
C1350 C1349 1.415 . S
C1351 H1327 0.951 . S
C1351 C1352 1.366 1_565 S
C1351 C1353 1.388 . S
C1352 C1351 1.366 1_545 S
C1352 C1356 1.385 1_545 S
C1353 H1328 0.951 . S
C1353 C1351 1.388 . S
C1353 C1354 1.366 . S
C1354 C1353 1.366 . S
C1354 C1355 1.414 . S
C1354 C1357 1.499 . S
C1355 H1329 0.950 . S
C1355 C1354 1.414 . S
C1355 C1356 1.374 . S
C1356 H1330 0.950 1_565 S
C1356 C1352 1.385 1_565 S
C1356 C1355 1.374 . S
C1357 C1354 1.499 . S
C1357 C1358 1.373 . S
C1357 C1359 1.389 . S
C1358 H1331 0.950 . S
C1358 C1344 1.377 . S
C1358 C1357 1.373 . S
C1359 C1343 1.377 . S
C1359 C1357 1.389 . S
C1359 C1360 1.524 . S
C1360 C1359 1.524 . S
C1360 C1361 1.397 . S
C1360 C1365 1.363 . S
C1361 H1332 0.950 . S
C1361 C1360 1.397 . S
C1361 C1362 1.334 . S
C1362 H1333 0.950 . S
C1362 C1361 1.334 . S
C1362 C1363 1.287 . S
C1363 C1362 1.287 . S
C1363 C1364 1.524 . S
C1363 H1366 0.999 . S
C1364 H1334 0.950 . S
C1364 C1363 1.524 . S
C1364 C1365 1.415 . S
C1365 H1335 0.950 . S
C1365 C1360 1.363 . S
C1365 C1364 1.415 . S
H1366 C1363 0.999 . S
H1367 C1348 0.913 . S
C187 C149 1.393 . S
C202 C9 1.555 . S
C237 C23 1.393 . S
C252 C163 1.555 . S
C287 C37 1.555 . S
C302 C93 1.393 . S
C337 C51 1.392 . S
C352 C107 1.554 . S
C387 C121 1.393 . S
C402 C65 1.555 . S
C437 C79 1.391 . S
C452 C135 1.555 . S
C487 C112 1.485 . S
C502 C0 1.592 . S
C537 C14 1.485 . S
C552 C126 1.592 . S
C587 C28 1.591 . S
C602 C140 1.484 . S
C637 C42 1.486 . S
C652 C154 1.592 . S
C687 C84 1.484 . S
C702 C56 1.592 . S
C737 C98 1.592 . S
C752 C70 1.485 . S
C787 C47 1.419 . S
C802 C5 1.420 . S
C837 C19 1.419 . S
C852 C61 1.419 . S
C887 C75 1.419 . S
C902 C33 1.420 . S
C937 C131 1.420 . S
C952 C89 1.419 . S
C987 C145 1.419 . S
C1002 C103 1.419 . S
C1037 C117 1.419 . S
C1052 C159 1.419 . S
C1087 C53 1.293 . S
C1102 C11 1.293 . S
C1137 C25 1.293 . S
C1152 C67 1.293 . S
C1187 C81 1.293 . S
C1202 C39 1.293 . S
C1237 C95 1.293 . S
C1252 C137 1.293 . S
C1287 C151 1.293 . S
C1302 C109 1.293 . S
C1337 C123 1.293 . S
C1352 C165 1.293 . S
