# Generated by pormake.
# Topology hbo, (4)-cn, num edge types: 1
# Building blocks:
#     Node 0, Type 0, BuildingBlock: QUQFOY_clean_sbu_1, # of connection points: 4
#     Node 1, Type 0, BuildingBlock: QUQFOY_clean_sbu_1, # of connection points: 4
#     Node 2, Type 0, BuildingBlock: QUQFOY_clean_sbu_1, # of connection points: 4
#     Node 3, Type 0, BuildingBlock: QUQFOY_clean_sbu_1, # of connection points: 4
#     Node 4, Type 0, BuildingBlock: QUQFOY_clean_sbu_1, # of connection points: 4
#     Node 5, Type 0, BuildingBlock: QUQFOY_clean_sbu_1, # of connection points: 4
#     Node 6, Type 0, BuildingBlock: QUQFOY_clean_sbu_1, # of connection points: 4
#     Node 7, Type 0, BuildingBlock: QUQFOY_clean_sbu_1, # of connection points: 4
#     Node 8, Type 0, BuildingBlock: QUQFOY_clean_sbu_1, # of connection points: 4
#     Node 9, Type 0, BuildingBlock: QUQFOY_clean_sbu_1, # of connection points: 4
#     Node 10, Type 0, BuildingBlock: QUQFOY_clean_sbu_1, # of connection points: 4
#     Node 11, Type 0, BuildingBlock: QUQFOY_clean_sbu_1, # of connection points: 4
#     Node 12, Type 0, BuildingBlock: QUQFOY_clean_sbu_1, # of connection points: 4
#     Node 13, Type 0, BuildingBlock: QUQFOY_clean_sbu_1, # of connection points: 4
#     Node 14, Type 0, BuildingBlock: QUQFOY_clean_sbu_1, # of connection points: 4
#     Node 15, Type 0, BuildingBlock: QUQFOY_clean_sbu_1, # of connection points: 4
#     Node 16, Type 0, BuildingBlock: QUQFOY_clean_sbu_1, # of connection points: 4
#     Node 17, Type 0, BuildingBlock: QUQFOY_clean_sbu_1, # of connection points: 4
#     Node 18, Type 0, BuildingBlock: QUQFOY_clean_sbu_1, # of connection points: 4
#     Node 19, Type 0, BuildingBlock: QUQFOY_clean_sbu_1, # of connection points: 4
#     Node 20, Type 0, BuildingBlock: QUQFOY_clean_sbu_1, # of connection points: 4
#     Node 21, Type 0, BuildingBlock: QUQFOY_clean_sbu_1, # of connection points: 4
#     Node 22, Type 0, BuildingBlock: QUQFOY_clean_sbu_1, # of connection points: 4
#     Node 23, Type 0, BuildingBlock: QUQFOY_clean_sbu_1, # of connection points: 4
#     Edge 24, Type (0, 0), BuildingBlock: CIFDUS_clean_linker_0, # of connection points: 2
#     Edge 25, Type (0, 0), BuildingBlock: CIFDUS_clean_linker_0, # of connection points: 2
#     Edge 26, Type (0, 0), BuildingBlock: CIFDUS_clean_linker_0, # of connection points: 2
#     Edge 27, Type (0, 0), BuildingBlock: CIFDUS_clean_linker_0, # of connection points: 2
#     Edge 28, Type (0, 0), BuildingBlock: CIFDUS_clean_linker_0, # of connection points: 2
#     Edge 29, Type (0, 0), BuildingBlock: CIFDUS_clean_linker_0, # of connection points: 2
#     Edge 30, Type (0, 0), BuildingBlock: CIFDUS_clean_linker_0, # of connection points: 2
#     Edge 31, Type (0, 0), BuildingBlock: CIFDUS_clean_linker_0, # of connection points: 2
#     Edge 32, Type (0, 0), BuildingBlock: CIFDUS_clean_linker_0, # of connection points: 2
#     Edge 33, Type (0, 0), BuildingBlock: CIFDUS_clean_linker_0, # of connection points: 2
#     Edge 34, Type (0, 0), BuildingBlock: CIFDUS_clean_linker_0, # of connection points: 2
#     Edge 35, Type (0, 0), BuildingBlock: CIFDUS_clean_linker_0, # of connection points: 2
#     Edge 36, Type (0, 0), BuildingBlock: CIFDUS_clean_linker_0, # of connection points: 2
#     Edge 37, Type (0, 0), BuildingBlock: CIFDUS_clean_linker_0, # of connection points: 2
#     Edge 38, Type (0, 0), BuildingBlock: CIFDUS_clean_linker_0, # of connection points: 2
#     Edge 39, Type (0, 0), BuildingBlock: CIFDUS_clean_linker_0, # of connection points: 2
#     Edge 40, Type (0, 0), BuildingBlock: CIFDUS_clean_linker_0, # of connection points: 2
#     Edge 41, Type (0, 0), BuildingBlock: CIFDUS_clean_linker_0, # of connection points: 2
#     Edge 42, Type (0, 0), BuildingBlock: CIFDUS_clean_linker_0, # of connection points: 2
#     Edge 43, Type (0, 0), BuildingBlock: CIFDUS_clean_linker_0, # of connection points: 2
#     Edge 44, Type (0, 0), BuildingBlock: CIFDUS_clean_linker_0, # of connection points: 2
#     Edge 45, Type (0, 0), BuildingBlock: CIFDUS_clean_linker_0, # of connection points: 2
#     Edge 46, Type (0, 0), BuildingBlock: CIFDUS_clean_linker_0, # of connection points: 2
#     Edge 47, Type (0, 0), BuildingBlock: CIFDUS_clean_linker_0, # of connection points: 2
#     Edge 48, Type (0, 0), BuildingBlock: CIFDUS_clean_linker_0, # of connection points: 2
#     Edge 49, Type (0, 0), BuildingBlock: CIFDUS_clean_linker_0, # of connection points: 2
#     Edge 50, Type (0, 0), BuildingBlock: CIFDUS_clean_linker_0, # of connection points: 2
#     Edge 51, Type (0, 0), BuildingBlock: CIFDUS_clean_linker_0, # of connection points: 2
#     Edge 52, Type (0, 0), BuildingBlock: CIFDUS_clean_linker_0, # of connection points: 2
#     Edge 53, Type (0, 0), BuildingBlock: CIFDUS_clean_linker_0, # of connection points: 2
#     Edge 54, Type (0, 0), BuildingBlock: CIFDUS_clean_linker_0, # of connection points: 2
#     Edge 55, Type (0, 0), BuildingBlock: CIFDUS_clean_linker_0, # of connection points: 2
#     Edge 56, Type (0, 0), BuildingBlock: CIFDUS_clean_linker_0, # of connection points: 2
#     Edge 57, Type (0, 0), BuildingBlock: CIFDUS_clean_linker_0, # of connection points: 2
#     Edge 58, Type (0, 0), BuildingBlock: CIFDUS_clean_linker_0, # of connection points: 2
#     Edge 59, Type (0, 0), BuildingBlock: CIFDUS_clean_linker_0, # of connection points: 2
#     Edge 60, Type (0, 0), BuildingBlock: CIFDUS_clean_linker_0, # of connection points: 2
#     Edge 61, Type (0, 0), BuildingBlock: CIFDUS_clean_linker_0, # of connection points: 2
#     Edge 62, Type (0, 0), BuildingBlock: CIFDUS_clean_linker_0, # of connection points: 2
#     Edge 63, Type (0, 0), BuildingBlock: CIFDUS_clean_linker_0, # of connection points: 2
#     Edge 64, Type (0, 0), BuildingBlock: CIFDUS_clean_linker_0, # of connection points: 2
#     Edge 65, Type (0, 0), BuildingBlock: CIFDUS_clean_linker_0, # of connection points: 2
#     Edge 66, Type (0, 0), BuildingBlock: CIFDUS_clean_linker_0, # of connection points: 2
#     Edge 67, Type (0, 0), BuildingBlock: CIFDUS_clean_linker_0, # of connection points: 2
#     Edge 68, Type (0, 0), BuildingBlock: CIFDUS_clean_linker_0, # of connection points: 2
#     Edge 69, Type (0, 0), BuildingBlock: CIFDUS_clean_linker_0, # of connection points: 2
#     Edge 70, Type (0, 0), BuildingBlock: CIFDUS_clean_linker_0, # of connection points: 2
#     Edge 71, Type (0, 0), BuildingBlock: CIFDUS_clean_linker_0, # of connection points: 2
# Relax obj value: 0.233
# Max RMSD: 0.214
# Mean RMSD: 0.214
data_MOF--net-hbo--node1-QUQFOY_clean_sbu_1--edge1-CIFDUS_clean_linker_0
_symmetry_space_group_name_H-M    P1
_symmetry_Int_Tables_number       1
_symmetry_cell_setting            triclinic
loop_
_symmetry_equiv_pos_as_xyz
'x, y, z'
_cell_length_a     48.271212
_cell_length_b     48.286992
_cell_length_c     48.298786
_cell_angle_alpha  90.006436
_cell_angle_beta   89.911098
_cell_angle_gamma 89.986675
loop_
_atom_site_label
_atom_site_type_symbol
_atom_site_fract_x
_atom_site_fract_y
_atom_site_fract_z
_atom_type_partial_charge
O0 O 0.13516 0.31583 0.26615 0.0
Cd1 Cd 0.12717 0.34272 0.23398 0.0
Cd2 Cd 0.15984 0.37592 0.26349 0.0
O3 O 0.15756 0.34503 0.29311 0.0
O4 O 0.09197 0.32969 0.21639 0.0
O5 O 0.096 0.36991 0.2379 0.0
C6 C 0.08053 0.35222 0.22517 0.0
C7 C 0.1492 0.42217 0.27302 0.0
C8 C 0.14758 0.32103 0.28875 0.0
C9 C 0.18212 0.35548 0.20883 0.0
O10 O 0.18706 0.36818 0.23137 0.0
O11 O 0.15822 0.34524 0.20442 0.0
O12 O 0.17198 0.41116 0.28162 0.0
O13 O 0.13207 0.40658 0.2597 0.0
O14 O 0.13575 0.69151 0.73621 0.0
Cd15 Cd 0.12772 0.66658 0.77001 0.0
Cd16 Cd 0.16065 0.63118 0.7432 0.0
O17 O 0.15969 0.66079 0.71245 0.0
O18 O 0.09431 0.68275 0.78795 0.0
O19 O 0.09492 0.64081 0.76952 0.0
C20 C 0.08126 0.66027 0.78186 0.0
C21 C 0.15605 0.58458 0.73112 0.0
C22 C 0.1492 0.68483 0.71456 0.0
C23 C 0.18164 0.65401 0.79731 0.0
O24 O 0.18674 0.63943 0.776 0.0
O25 O 0.15823 0.6658 0.79996 0.0
O26 O 0.17794 0.59856 0.72503 0.0
O27 O 0.13616 0.59731 0.74374 0.0
O28 O 0.8152 0.63879 0.22971 0.0
Cd29 Cd 0.84184 0.63037 0.26206 0.0
Cd30 Cd 0.87487 0.6652 0.23442 0.0
O31 O 0.84401 0.66386 0.20472 0.0
O32 O 0.82484 0.59785 0.28076 0.0
O33 O 0.86618 0.59632 0.26113 0.0
C34 C 0.84655 0.58374 0.27428 0.0
C35 C 0.92152 0.65979 0.22219 0.0
C36 C 0.82031 0.65279 0.20801 0.0
C37 C 0.85363 0.68438 0.28978 0.0
O38 O 0.86673 0.69073 0.26782 0.0
O39 O 0.84343 0.66028 0.29253 0.0
O40 O 0.90781 0.68181 0.21588 0.0
O41 O 0.90845 0.64022 0.23495 0.0
O42 O 0.80555 0.36357 0.76147 0.0
Cd43 Cd 0.83135 0.37026 0.72796 0.0
Cd44 Cd 0.8684 0.34679 0.76046 0.0
O45 O 0.8378 0.34893 0.79018 0.0
O46 O 0.81558 0.40175 0.70637 0.0
O47 O 0.85589 0.40374 0.7281 0.0
C48 C 0.83707 0.41597 0.71354 0.0
C49 C 0.91397 0.35909 0.77046 0.0
C50 C 0.81267 0.3551 0.78535 0.0
C51 C 0.85133 0.31517 0.70943 0.0
O52 O 0.86448 0.31511 0.73219 0.0
O53 O 0.83754 0.33645 0.70225 0.0
O54 O 0.90283 0.33712 0.78074 0.0
O55 O 0.8987 0.37495 0.75531 0.0
O56 O 0.22698 0.18447 0.35855 0.0
Cd57 Cd 0.25908 0.15762 0.3672 0.0
Cd58 Cd 0.23371 0.1261 0.33032 0.0
O59 O 0.20337 0.1563 0.3316 0.0
O60 O 0.27502 0.17118 0.40263 0.0
O61 O 0.25525 0.1301 0.39829 0.0
C62 C 0.26717 0.14827 0.41387 0.0
C63 C 0.2227 0.07931 0.3355 0.0
C64 C 0.20585 0.17958 0.34366 0.0
C65 C 0.28971 0.14831 0.31444 0.0
O66 O 0.26814 0.13541 0.3066 0.0
O67 O 0.29125 0.15759 0.33902 0.0
O68 O 0.21686 0.09262 0.3131 0.0
O69 O 0.23424 0.09288 0.35545 0.0
O70 O 0.37587 0.75725 0.81026 0.0
Cd71 Cd 0.3814 0.7268 0.83971 0.0
Cd72 Cd 0.34999 0.76054 0.86936 0.0
O73 O 0.35436 0.78772 0.83657 0.0
O74 O 0.41368 0.70484 0.82615 0.0
O75 O 0.41438 0.7289 0.86508 0.0
C76 C 0.42728 0.71347 0.84743 0.0
C77 C 0.36057 0.7723 0.91494 0.0
C78 C 0.36467 0.78089 0.81329 0.0
C79 C 0.32493 0.70594 0.85335 0.0
O80 O 0.32088 0.72978 0.86378 0.0
O81 O 0.34876 0.69942 0.84414 0.0
O82 O 0.3386 0.78168 0.90296 0.0
O83 O 0.37718 0.757 0.90054 0.0
O84 O 0.7697 0.81487 0.36562 0.0
Cd85 Cd 0.73664 0.84082 0.3739 0.0
Cd86 Cd 0.76238 0.8744 0.33909 0.0
O87 O 0.79322 0.84481 0.34046 0.0
O88 O 0.72029 0.82916 0.41 0.0
O89 O 0.74035 0.86986 0.40342 0.0
C90 C 0.72814 0.85269 0.41994 0.0
C91 C 0.77321 0.92127 0.34392 0.0
C92 C 0.79111 0.82101 0.35152 0.0
C93 C 0.70759 0.85124 0.32055 0.0
O94 O 0.72901 0.86512 0.31406 0.0
O95 O 0.70544 0.8408 0.34464 0.0
O96 O 0.77962 0.90766 0.32186 0.0
O97 O 0.76115 0.908 0.36376 0.0
O98 O 0.63204 0.22802 0.81148 0.0
Cd99 Cd 0.62515 0.25964 0.83936 0.0
Cd100 Cd 0.66284 0.23207 0.86864 0.0
O101 O 0.66048 0.20315 0.83708 0.0
O102 O 0.58954 0.27709 0.82773 0.0
O103 O 0.59509 0.25583 0.86785 0.0
C104 C 0.57909 0.26876 0.85086 0.0
C105 C 0.65252 0.22184 0.91464 0.0
C106 C 0.64711 0.20666 0.81466 0.0
C107 C 0.67913 0.28856 0.84859 0.0
O108 O 0.68696 0.26647 0.86061 0.0
O109 O 0.65442 0.29076 0.83975 0.0
O110 O 0.67583 0.21437 0.90376 0.0
O111 O 0.63485 0.23437 0.89902 0.0
O112 O 0.26617 0.87006 0.69404 0.0
Cd113 Cd 0.23595 0.87647 0.66455 0.0
Cd114 Cd 0.26713 0.84119 0.63584 0.0
O115 O 0.29445 0.8449 0.66855 0.0
O116 O 0.21547 0.90929 0.67861 0.0
O117 O 0.23849 0.90947 0.63902 0.0
C118 C 0.22373 0.92266 0.65705 0.0
C119 C 0.28193 0.84574 0.59005 0.0
C120 C 0.28878 0.85684 0.69134 0.0
C121 C 0.21059 0.82143 0.65296 0.0
O122 O 0.23389 0.81509 0.64242 0.0
O123 O 0.20626 0.84591 0.66161 0.0
O124 O 0.28821 0.82432 0.60469 0.0
O125 O 0.26786 0.86527 0.60181 0.0
O126 O 0.68355 0.73144 0.13745 0.0
Cd127 Cd 0.65608 0.76324 0.12942 0.0
Cd128 Cd 0.62397 0.7352 0.16396 0.0
O129 O 0.65486 0.70552 0.16172 0.0
O130 O 0.66872 0.78079 0.09424 0.0
O131 O 0.62849 0.75927 0.09852 0.0
C132 C 0.646 0.77234 0.08304 0.0
C133 C 0.57713 0.72399 0.1586 0.0
C134 C 0.67862 0.70935 0.15091 0.0
C135 C 0.64498 0.79055 0.18351 0.0
O136 O 0.63248 0.76823 0.18975 0.0
O137 O 0.65458 0.79392 0.1592 0.0
O138 O 0.59076 0.71692 0.18043 0.0
O139 O 0.59044 0.7367 0.13917 0.0
O140 O 0.74817 0.1259 0.69343 0.0
Cd141 Cd 0.77713 0.12222 0.66222 0.0
Cd142 Cd 0.73737 0.14651 0.63345 0.0
O143 O 0.71287 0.13965 0.66799 0.0
O144 O 0.80224 0.09128 0.67337 0.0
O145 O 0.77449 0.08929 0.63702 0.0
C146 C 0.79208 0.07716 0.65308 0.0
C147 C 0.725 0.13561 0.58812 0.0
C148 C 0.7228 0.13267 0.69138 0.0
C149 C 0.78902 0.17977 0.6448 0.0
O150 O 0.76407 0.17956 0.63649 0.0
O151 O 0.79996 0.15773 0.65427 0.0
O152 O 0.71336 0.15582 0.6012 0.0
O153 O 0.74238 0.12036 0.60154 0.0
O154 O 0.31979 0.2771 0.13885 0.0
Cd155 Cd 0.34718 0.24545 0.12998 0.0
Cd156 Cd 0.37858 0.27133 0.1663 0.0
O157 O 0.34805 0.30147 0.16504 0.0
O158 O 0.33401 0.22909 0.09455 0.0
O159 O 0.37465 0.24977 0.09887 0.0
C160 C 0.3568 0.23736 0.08331 0.0
C161 C 0.42549 0.28178 0.16033 0.0
C162 C 0.32456 0.29846 0.15348 0.0
C163 C 0.35701 0.2154 0.18288 0.0
O164 O 0.36952 0.23726 0.19056 0.0
O165 O 0.34789 0.21344 0.15828 0.0
O166 O 0.41241 0.28842 0.18268 0.0
O167 O 0.41161 0.26992 0.1408 0.0
O168 O 0.86725 0.6841 0.73417 0.0
Cd169 Cd 0.87199 0.65391 0.76392 0.0
Cd170 Cd 0.84065 0.62547 0.72843 0.0
O171 O 0.84606 0.65916 0.70234 0.0
O172 O 0.90565 0.66496 0.78534 0.0
O173 O 0.90342 0.62699 0.75987 0.0
C174 C 0.91783 0.64341 0.77524 0.0
C175 C 0.85138 0.57969 0.71729 0.0
C176 C 0.85658 0.68203 0.71021 0.0
C177 C 0.81509 0.64033 0.78346 0.0
O178 O 0.81154 0.63069 0.75923 0.0
O179 O 0.8388 0.64924 0.7908 0.0
O180 O 0.82962 0.59158 0.70725 0.0
O181 O 0.86777 0.5944 0.73241 0.0
O182 O 0.86193 0.31153 0.27166 0.0
Cd183 Cd 0.86989 0.33606 0.23752 0.0
Cd184 Cd 0.84275 0.37327 0.26701 0.0
O185 O 0.84425 0.34411 0.2983 0.0
O186 O 0.90163 0.31833 0.21779 0.0
O187 O 0.90407 0.35984 0.237 0.0
C188 C 0.91618 0.33989 0.2239 0.0
C189 C 0.85534 0.41945 0.27377 0.0
C190 C 0.85165 0.31908 0.29472 0.0
C191 C 0.81487 0.35265 0.21534 0.0
O192 O 0.81263 0.36657 0.23756 0.0
O193 O 0.83737 0.34003 0.20988 0.0
O194 O 0.8329 0.40941 0.28427 0.0
O195 O 0.87141 0.40281 0.2603 0.0
O196 O 0.18239 0.36572 0.77296 0.0
Cd197 Cd 0.15604 0.37409 0.74044 0.0
Cd198 Cd 0.12358 0.33865 0.76591 0.0
O199 O 0.1531 0.33998 0.7966 0.0
O200 O 0.16846 0.41011 0.72478 0.0
O201 O 0.12761 0.40416 0.74478 0.0
C202 C 0.14526 0.42051 0.73306 0.0
C203 C 0.0771 0.34455 0.77728 0.0
C204 C 0.17666 0.35149 0.79435 0.0
C205 C 0.14608 0.32109 0.71063 0.0
O206 O 0.13269 0.314 0.73218 0.0
O207 O 0.15599 0.34541 0.7087 0.0
O208 O 0.09018 0.32209 0.78338 0.0
O209 O 0.09065 0.36404 0.76495 0.0
O210 O 0.19181 0.63806 0.24011 0.0
Cd211 Cd 0.16269 0.63221 0.27078 0.0
Cd212 Cd 0.13163 0.66029 0.2354 0.0
O213 O 0.16459 0.65584 0.20811 0.0
O214 O 0.17734 0.60073 0.29321 0.0
O215 O 0.13862 0.59828 0.26894 0.0
C216 C 0.15678 0.58615 0.28436 0.0
C217 C 0.08581 0.648 0.22598 0.0
C218 C 0.18838 0.64742 0.21576 0.0
C219 C 0.14674 0.68887 0.2887 0.0
O220 O 0.13655 0.69106 0.26454 0.0
O221 O 0.15664 0.66582 0.2968 0.0
O222 O 0.09698 0.6696 0.21484 0.0
O223 O 0.10127 0.63245 0.24129 0.0
O224 O 0.76104 0.80934 0.63313 0.0
Cd225 Cd 0.73204 0.84034 0.62916 0.0
Cd226 Cd 0.77082 0.86876 0.65594 0.0
O227 O 0.79554 0.83414 0.64979 0.0
O228 O 0.70743 0.82755 0.59851 0.0
O229 O 0.73412 0.86461 0.59542 0.0
C230 C 0.71716 0.84758 0.58374 0.0
C231 C 0.78219 0.91373 0.64241 0.0
C232 C 0.78599 0.81107 0.64131 0.0
C233 C 0.71776 0.85696 0.68673 0.0
O234 O 0.7426 0.86564 0.68788 0.0
O235 O 0.70807 0.84764 0.66406 0.0
O236 O 0.79387 0.90232 0.66357 0.0
O237 O 0.76516 0.89893 0.62806 0.0
O238 O 0.6403 0.22736 0.18437 0.0
Cd239 Cd 0.63487 0.25782 0.15494 0.0
Cd240 Cd 0.66482 0.22333 0.12453 0.0
O241 O 0.6594 0.19613 0.1571 0.0
O242 O 0.60113 0.27875 0.16637 0.0
O243 O 0.60352 0.25396 0.12789 0.0
C244 C 0.58902 0.26906 0.14461 0.0
C245 C 0.65926 0.21008 0.07841 0.0
C246 C 0.65022 0.20323 0.18076 0.0
C247 C 0.69124 0.27759 0.14102 0.0
O248 O 0.69424 0.2536 0.13062 0.0
O249 O 0.66779 0.28501 0.15055 0.0
O250 O 0.67985 0.20138 0.09298 0.0
O251 O 0.64086 0.22529 0.09054 0.0
O252 O 0.23156 0.19323 0.6333 0.0
Cd253 Cd 0.26484 0.16793 0.62421 0.0
Cd254 Cd 0.23765 0.13259 0.65529 0.0
O255 O 0.20631 0.1617 0.65448 0.0
O256 O 0.28277 0.1846 0.59103 0.0
O257 O 0.26327 0.14315 0.5908 0.0
C258 C 0.27585 0.16265 0.57749 0.0
C259 C 0.22985 0.08627 0.64426 0.0
C260 C 0.20928 0.18629 0.64554 0.0
C261 C 0.29127 0.15403 0.67803 0.0
O262 O 0.26925 0.14045 0.68291 0.0
O263 O 0.29485 0.16533 0.65452 0.0
O264 O 0.22088 0.09686 0.6671 0.0
O265 O 0.24257 0.10237 0.62708 0.0
O266 O 0.36105 0.7759 0.18443 0.0
Cd267 Cd 0.36715 0.74473 0.15584 0.0
Cd268 Cd 0.33746 0.77799 0.12388 0.0
O269 O 0.34171 0.80597 0.15608 0.0
O270 O 0.40135 0.72452 0.16742 0.0
O271 O 0.39835 0.7487 0.12863 0.0
C272 C 0.41318 0.73409 0.14542 0.0
C273 C 0.34588 0.78956 0.07765 0.0
C274 C 0.35071 0.79972 0.18004 0.0
C275 C 0.31109 0.72403 0.14121 0.0
O276 O 0.30804 0.74762 0.12994 0.0
O277 O 0.3344 0.71727 0.15151 0.0
O278 O 0.3245 0.79891 0.09069 0.0
O279 O 0.36329 0.7746 0.09134 0.0
O280 O 0.72502 0.13945 0.32148 0.0
Cd281 Cd 0.75693 0.1316 0.34874 0.0
Cd282 Cd 0.73009 0.16779 0.37981 0.0
O283 O 0.70056 0.16648 0.34892 0.0
O284 O 0.77385 0.09638 0.33547 0.0
O285 O 0.75322 0.10047 0.37617 0.0
C286 C 0.76567 0.08502 0.35822 0.0
C287 C 0.71832 0.15965 0.42595 0.0
C288 C 0.70364 0.15419 0.32584 0.0
C289 C 0.78605 0.1852 0.35899 0.0
O290 O 0.76416 0.19245 0.37177 0.0
O291 O 0.78824 0.16075 0.34941 0.0
O292 O 0.71195 0.1826 0.41383 0.0
O293 O 0.731 0.14097 0.41158 0.0
O294 O 0.3093 0.26995 0.86598 0.0
Cd295 Cd 0.33578 0.23725 0.87346 0.0
Cd296 Cd 0.36882 0.2656 0.84012 0.0
O297 O 0.33892 0.29585 0.84293 0.0
O298 O 0.32053 0.21886 0.90696 0.0
O299 O 0.36163 0.23912 0.90611 0.0
C300 C 0.34268 0.22617 0.91992 0.0
C301 C 0.41532 0.2775 0.84435 0.0
C302 C 0.31505 0.29238 0.85347 0.0
C303 C 0.34757 0.21093 0.81909 0.0
O304 O 0.36041 0.23324 0.81359 0.0
O305 O 0.33732 0.2072 0.84306 0.0
O306 O 0.40107 0.28436 0.82289 0.0
O307 O 0.40284 0.26436 0.86405 0.0
O308 O 0.27377 0.86274 0.31901 0.0
Cd309 Cd 0.24139 0.86959 0.34604 0.0
Cd310 Cd 0.27375 0.84057 0.37999 0.0
O311 O 0.30276 0.84333 0.34846 0.0
O312 O 0.22154 0.90322 0.3322 0.0
O313 O 0.24386 0.90176 0.37211 0.0
C314 C 0.23003 0.91588 0.35415 0.0
C315 C 0.28236 0.85313 0.42587 0.0
C316 C 0.2973 0.85212 0.32421 0.0
C317 C 0.22018 0.81397 0.36196 0.0
O318 O 0.24331 0.81121 0.37421 0.0
O319 O 0.21392 0.83689 0.35053 0.0
O320 O 0.29261 0.83071 0.41551 0.0
O321 O 0.2683 0.86907 0.40969 0.0
O322 O 0.69638 0.74067 0.86856 0.0
Cd323 Cd 0.66676 0.77098 0.87379 0.0
Cd324 Cd 0.63587 0.73472 0.84646 0.0
O325 O 0.66943 0.70835 0.8509 0.0
O326 O 0.6797 0.79383 0.90574 0.0
O327 O 0.64164 0.76837 0.90686 0.0
C328 C 0.65887 0.78435 0.91959 0.0
C329 C 0.59066 0.72335 0.85922 0.0
C330 C 0.69312 0.71623 0.85934 0.0
C331 C 0.64971 0.78809 0.81718 0.0
O332 O 0.63948 0.76389 0.81551 0.0
O333 O 0.66033 0.79641 0.83981 0.0
O334 O 0.60205 0.71267 0.8375 0.0
O335 O 0.60555 0.73946 0.87449 0.0
H336 H 0.11912 0.54894 0.26467 0.0
H337 H 0.19256 0.55525 0.3152 0.0
H338 H 0.19537 0.50492 0.31798 0.0
H339 H 0.17968 0.45921 0.30245 0.0
H340 H 0.10665 0.45262 0.25144 0.0
H341 H 0.1009 0.50287 0.25268 0.0
C342 C 0.13549 0.53933 0.27665 0.0
C343 C 0.15574 0.5559 0.28948 0.0
C344 C 0.13723 0.51027 0.27788 0.0
C345 C 0.17676 0.54305 0.30498 0.0
C346 C 0.17846 0.51422 0.30652 0.0
C347 C 0.16232 0.46871 0.29185 0.0
C348 C 0.14381 0.45217 0.27662 0.0
C349 C 0.15925 0.49764 0.29246 0.0
C350 C 0.12129 0.46485 0.26321 0.0
C351 C 0.11802 0.49362 0.26385 0.0
H352 H 0.95374 0.67641 0.80314 0.0
H353 H 0.94989 0.6013 0.75485 0.0
H354 H 1.00044 0.59838 0.75478 0.0
H355 H 0.04578 0.61979 0.76449 0.0
H356 H 0.04902 0.69579 0.81148 0.0
H357 H 0.99877 0.69557 0.81611 0.0
C358 C 0.9639 0.65915 0.79294 0.0
C359 C 0.94803 0.63925 0.77883 0.0
C360 C 0.99295 0.65789 0.79252 0.0
C361 C 0.96159 0.61699 0.76579 0.0
C362 C 0.99053 0.61536 0.76565 0.0
C363 C 0.03551 0.63608 0.77607 0.0
C364 C 0.05116 0.65791 0.78737 0.0
C365 C 0.00644 0.63609 0.77832 0.0
C366 C 0.03751 0.67885 0.80235 0.0
C367 C 0.00872 0.67878 0.80501 0.0
H368 H 0.82579 0.45821 0.30153 0.0
H369 H 0.89742 0.44842 0.24887 0.0
H370 H 0.90264 0.49876 0.24626 0.0
H371 H 0.88407 0.54561 0.25548 0.0
H372 H 0.8115 0.55443 0.30712 0.0
H373 H 0.80959 0.5045 0.31365 0.0
C374 C 0.84277 0.46703 0.28973 0.0
C375 C 0.86102 0.44956 0.27522 0.0
C376 C 0.84536 0.49589 0.28795 0.0
C377 C 0.88301 0.46139 0.26019 0.0
C378 C 0.88594 0.49019 0.25859 0.0
C379 C 0.86809 0.53661 0.26845 0.0
C380 C 0.84781 0.55375 0.28055 0.0
C381 C 0.86682 0.50767 0.27185 0.0
C382 C 0.82723 0.54175 0.29733 0.0
C383 C 0.82609 0.51315 0.3011 0.0
H384 H 0.04136 0.38383 0.75812 0.0
H385 H 0.0455 0.31043 0.80901 0.0
H386 H 0.9953 0.31062 0.81406 0.0
H387 H 0.95021 0.32862 0.80029 0.0
H388 H 0.94522 0.40069 0.74769 0.0
H389 H 0.99578 0.4043 0.74745 0.0
C390 C 0.03128 0.36813 0.77063 0.0
C391 C 0.04712 0.34698 0.78291 0.0
C392 C 0.00226 0.36803 0.77304 0.0
C393 C 0.03378 0.32678 0.79909 0.0
C394 C 0.00506 0.32686 0.80201 0.0
C395 C 0.96011 0.34538 0.78906 0.0
C396 C 0.94399 0.36417 0.77379 0.0
C397 C 0.98908 0.34693 0.78848 0.0
C398 C 0.95717 0.38587 0.75953 0.0
C399 C 0.98608 0.38787 0.75927 0.0
H400 H 0.17715 0.45852 0.70696 0.0
H401 H 0.10211 0.45029 0.75492 0.0
H402 H 0.09735 0.50071 0.7566 0.0
H403 H 0.11702 0.54716 0.74801 0.0
H404 H 0.19276 0.55448 0.70085 0.0
H405 H 0.19457 0.50444 0.69519 0.0
C406 C 0.15956 0.4677 0.71753 0.0
C407 C 0.14019 0.45067 0.73103 0.0
C408 C 0.15718 0.4966 0.71874 0.0
C409 C 0.11739 0.46293 0.74443 0.0
C410 C 0.11472 0.49178 0.74549 0.0
C411 C 0.1337 0.53781 0.73619 0.0
C412 C 0.15487 0.55455 0.72514 0.0
C413 C 0.13486 0.50884 0.73327 0.0
C414 C 0.17631 0.54211 0.70982 0.0
C415 C 0.17741 0.51345 0.70656 0.0
H416 H 0.95866 0.62122 0.24074 0.0
H417 H 0.9522 0.695 0.19068 0.0
H418 H 0.00234 0.69612 0.18512 0.0
H419 H 0.04819 0.67881 0.1978 0.0
H420 H 0.05539 0.606 0.24908 0.0
H421 H 0.00494 0.60166 0.25048 0.0
C422 C 0.96821 0.63731 0.22831 0.0
C423 C 0.95165 0.65813 0.21636 0.0
C424 C 0.99725 0.63811 0.2255 0.0
C425 C 0.9644 0.67883 0.20031 0.0
C426 C 0.99312 0.67952 0.19711 0.0
C427 C 0.03879 0.66174 0.20898 0.0
C428 C 0.0556 0.6429 0.22348 0.0
C429 C 0.00979 0.65966 0.21013 0.0
C430 C 0.04298 0.62087 0.23779 0.0
C431 C 0.01409 0.61843 0.23869 0.0
H432 H 0.81852 0.54284 0.6902 0.0
H433 H 0.89416 0.54858 0.73741 0.0
H434 H 0.89787 0.49816 0.73815 0.0
H435 H 0.87709 0.45245 0.72951 0.0
H436 H 0.80074 0.44696 0.68339 0.0
H437 H 0.80005 0.49716 0.67794 0.0
C438 C 0.83606 0.5331 0.70029 0.0
C439 C 0.85588 0.54951 0.71394 0.0
C440 C 0.83783 0.50407 0.70105 0.0
C441 C 0.87851 0.53649 0.72683 0.0
C442 C 0.88061 0.50762 0.72736 0.0
C443 C 0.8605 0.46219 0.71793 0.0
C444 C 0.83886 0.44594 0.70713 0.0
C445 C 0.85999 0.49119 0.71518 0.0
C446 C 0.81758 0.45893 0.69209 0.0
C447 C 0.81712 0.48769 0.689 0.0
H448 H 0.95349 0.37984 0.23824 0.0
H449 H 0.94662 0.30134 0.19601 0.0
H450 H 0.9968 0.29947 0.19052 0.0
H451 H 0.04281 0.31803 0.20117 0.0
H452 H 0.05004 0.396 0.24426 0.0
H453 H 0.99963 0.40026 0.24566 0.0
C454 C 0.96294 0.36249 0.22753 0.0
C455 C 0.94628 0.34066 0.21778 0.0
C456 C 0.99193 0.36135 0.22472 0.0
C457 C 0.9589 0.31837 0.20388 0.0
C458 C 0.98764 0.31724 0.20076 0.0
C459 C 0.0334 0.33614 0.21056 0.0
C460 C 0.05022 0.35654 0.22279 0.0
C461 C 0.00439 0.3383 0.21163 0.0
C462 C 0.03762 0.37992 0.23478 0.0
C463 C 0.00876 0.38234 0.23567 0.0
H464 H 0.25755 0.12295 0.54164 0.0
H465 H 0.30469 0.19887 0.54535 0.0
H466 H 0.30811 0.19966 0.49505 0.0
H467 H 0.29445 0.1812 0.45006 0.0
H468 H 0.24645 0.10595 0.44557 0.0
H469 H 0.24692 0.10235 0.49611 0.0
C470 C 0.26888 0.13946 0.53145 0.0
C471 C 0.28061 0.16096 0.54726 0.0
C472 C 0.27047 0.14003 0.50237 0.0
C473 C 0.29527 0.18217 0.53372 0.0
C474 C 0.29722 0.18268 0.50492 0.0
C475 C 0.2843 0.16384 0.46007 0.0
C476 C 0.27019 0.14404 0.44407 0.0
C477 C 0.28436 0.1621 0.48905 0.0
C478 C 0.25738 0.12155 0.4574 0.0
C479 C 0.25756 0.11952 0.48631 0.0
H480 H 0.33047 0.80501 0.94942 0.0
H481 H 0.40096 0.75002 0.94784 0.0
H482 H 0.40449 0.75281 0.99824 0.0
H483 H 0.38453 0.76707 0.04302 0.0
H484 H 0.31332 0.82119 0.04417 0.0
H485 H 0.31335 0.82274 0.99374 0.0
C486 C 0.34684 0.79389 0.96004 0.0
C487 C 0.36522 0.77708 0.94488 0.0
C488 C 0.34853 0.79529 0.98902 0.0
C489 C 0.38644 0.76302 0.95899 0.0
C490 C 0.38843 0.76453 0.98784 0.0
C491 C 0.36929 0.77955 0.03225 0.0
C492 C 0.34878 0.79375 0.04739 0.0
C493 C 0.36913 0.78003 0.00313 0.0
C494 C 0.32924 0.80989 0.03308 0.0
C495 C 0.32917 0.81074 0.00419 0.0
H496 H 0.69707 0.82453 0.45738 0.0
H497 H 0.75178 0.89477 0.44958 0.0
H498 H 0.75083 0.90134 0.49977 0.0
H499 H 0.7382 0.88416 0.54613 0.0
H500 H 0.68377 0.81359 0.55352 0.0
H501 H 0.68059 0.81043 0.50326 0.0
C502 C 0.70856 0.84147 0.46661 0.0
C503 C 0.72476 0.85889 0.44979 0.0
C504 C 0.70806 0.84503 0.49546 0.0
C505 C 0.73924 0.88096 0.46206 0.0
C506 C 0.73878 0.88469 0.49078 0.0
C507 C 0.72526 0.86839 0.53676 0.0
C508 C 0.71151 0.84895 0.55362 0.0
C509 C 0.7238 0.86642 0.50775 0.0
C510 C 0.69473 0.82872 0.5411 0.0
C511 C 0.69298 0.82681 0.51231 0.0
H512 H 0.62133 0.22902 0.04113 0.0
H513 H 0.69586 0.18002 0.04767 0.0
H514 H 0.6991 0.17746 0.99738 0.0
H515 H 0.68346 0.1929 0.95166 0.0
H516 H 0.60919 0.2422 0.94484 0.0
H517 H 0.60309 0.24064 0.99501 0.0
C518 C 0.63803 0.21741 0.03156 0.0
C519 C 0.65847 0.205 0.04818 0.0
C520 C 0.64 0.21627 0.00253 0.0
C521 C 0.67992 0.18994 0.03541 0.0
C522 C 0.68187 0.18852 0.00661 0.0
C523 C 0.66576 0.20305 0.96111 0.0
C524 C 0.64702 0.21791 0.94454 0.0
C525 C 0.66246 0.20223 0.98999 0.0
C526 C 0.62404 0.23071 0.95711 0.0
C527 C 0.62055 0.2299 0.98583 0.0
H528 H 0.30929 0.82284 0.46481 0.0
H529 H 0.25958 0.89641 0.45453 0.0
H530 H 0.25722 0.90224 0.50473 0.0
H531 H 0.26538 0.88373 0.55158 0.0
H532 H 0.31412 0.80939 0.56134 0.0
H533 H 0.32091 0.80678 0.51142 0.0
C534 C 0.29826 0.84039 0.4735 0.0
C535 C 0.28442 0.85899 0.45591 0.0
C536 C 0.29661 0.84337 0.50238 0.0
C537 C 0.27034 0.88169 0.46757 0.0
C538 C 0.26889 0.88499 0.49631 0.0
C539 C 0.27782 0.8672 0.54281 0.0
C540 C 0.28896 0.84664 0.5602 0.0
C541 C 0.28134 0.86555 0.51393 0.0
C542 C 0.30509 0.82538 0.54847 0.0
C543 C 0.30897 0.82383 0.51988 0.0
H544 H 0.67639 0.80311 0.04713 0.0
H545 H 0.60507 0.74938 0.05129 0.0
H546 H 0.60099 0.7506 0.00084 0.0
H547 H 0.6205 0.76331 0.95541 0.0
H548 H 0.69231 0.8165 0.95171 0.0
H549 H 0.69311 0.81934 0.00209 0.0
C550 C 0.65975 0.79189 0.03705 0.0
C551 C 0.64127 0.77591 0.05295 0.0
C552 C 0.65768 0.79249 0.00807 0.0
C553 C 0.61966 0.76175 0.03955 0.0
C554 C 0.61736 0.76237 0.01068 0.0
C555 C 0.63606 0.77587 0.9656 0.0
C556 C 0.65649 0.78943 0.94976 0.0
C557 C 0.63667 0.77713 0.99469 0.0
C558 C 0.67643 0.8057 0.96334 0.0
C559 C 0.67698 0.80728 0.99219 0.0
H560 H 0.69546 0.16877 0.55378 0.0
H561 H 0.74652 0.09539 0.55438 0.0
H562 H 0.74673 0.09478 0.50377 0.0
H563 H 0.7366 0.11807 0.45952 0.0
H564 H 0.68737 0.19274 0.45959 0.0
H565 H 0.68218 0.18974 0.5097 0.0
C566 C 0.70625 0.15234 0.54289 0.0
C567 C 0.72113 0.13228 0.55788 0.0
C568 C 0.70689 0.15253 0.51384 0.0
C569 C 0.73498 0.11115 0.54337 0.0
C570 C 0.73522 0.11086 0.51441 0.0
C571 C 0.72443 0.13347 0.47046 0.0
C572 C 0.71264 0.15575 0.45583 0.0
C573 C 0.72192 0.13192 0.49944 0.0
C574 C 0.69689 0.17551 0.47033 0.0
C575 C 0.6939 0.17382 0.49902 0.0
H576 H 0.32552 0.20779 0.04749 0.0
H577 H 0.39803 0.25987 0.05136 0.0
H578 H 0.40175 0.25892 0.00082 0.0
H579 H 0.38168 0.24673 0.95538 0.0
H580 H 0.30852 0.19537 0.95239 0.0
H581 H 0.30798 0.19244 0.0027 0.0
C582 C 0.34232 0.21873 0.03734 0.0
C583 C 0.36127 0.23413 0.05315 0.0
C584 C 0.34414 0.21834 0.00837 0.0
C585 C 0.38309 0.24794 0.03965 0.0
C586 C 0.38517 0.24748 0.01074 0.0
C587 C 0.36588 0.23457 0.96574 0.0
C588 C 0.34502 0.22153 0.95012 0.0
C589 C 0.36542 0.23326 0.99485 0.0
C590 C 0.3247 0.20582 0.96387 0.0
C591 C 0.32432 0.20414 0.99268 0.0
H592 H 0.55365 0.29824 0.17719 0.0
H593 H 0.55646 0.24868 0.10288 0.0
H594 H 0.50593 0.25032 0.0997 0.0
H595 H 0.46074 0.26226 0.12052 0.0
H596 H 0.45855 0.31055 0.19573 0.0
H597 H 0.50896 0.3131 0.1959 0.0
C598 C 0.54329 0.28807 0.16007 0.0
C599 C 0.55886 0.27317 0.14044 0.0
C600 C 0.51424 0.28869 0.15864 0.0
C601 C 0.54501 0.26023 0.11835 0.0
C602 C 0.51608 0.26107 0.11657 0.0
C603 C 0.47129 0.27367 0.13673 0.0
C604 C 0.45584 0.286 0.15821 0.0
C605 C 0.50044 0.2747 0.13697 0.0
C606 C 0.46987 0.30069 0.17905 0.0
C607 C 0.49875 0.30214 0.1792 0.0
H608 H 0.55442 0.69146 0.83043 0.0
H609 H 0.55948 0.74701 0.90025 0.0
H610 H 0.50905 0.74653 0.9047 0.0
H611 H 0.46339 0.73442 0.88546 0.0
H612 H 0.45878 0.67991 0.81475 0.0
H613 H 0.50908 0.67573 0.81418 0.0
C614 C 0.54456 0.70314 0.8469 0.0
C615 C 0.56071 0.71949 0.86477 0.0
C616 C 0.51555 0.70315 0.84905 0.0
C617 C 0.54755 0.73435 0.8861 0.0
C618 C 0.51868 0.73418 0.8886 0.0
C619 C 0.47336 0.72127 0.87021 0.0
C620 C 0.45732 0.70777 0.84999 0.0
C621 C 0.50243 0.71928 0.86969 0.0
C622 C 0.4706 0.69074 0.83043 0.0
C623 C 0.49941 0.68836 0.83003 0.0
H624 H 0.75575 0.95734 0.38385 0.0
H625 H 0.8015 0.95316 0.30706 0.0
H626 H 0.80527 0.00344 0.30615 0.0
H627 H 0.79228 0.0486 0.32485 0.0
H628 H 0.74556 0.05352 0.40094 0.0
H629 H 0.74577 0.00299 0.40458 0.0
C630 C 0.76684 0.96742 0.36711 0.0
C631 C 0.77808 0.95149 0.34542 0.0
C632 C 0.76864 0.99649 0.36649 0.0
C633 C 0.79244 0.96489 0.32391 0.0
C634 C 0.7946 0.99368 0.32334 0.0
C635 C 0.78238 0.03868 0.34241 0.0
C636 C 0.76871 0.05481 0.36244 0.0
C637 C 0.78225 0.00969 0.34416 0.0
C638 C 0.75617 0.04159 0.38516 0.0
C639 C 0.75619 0.01268 0.38721 0.0
H640 H 0.45285 0.25909 0.8823 0.0
H641 H 0.44552 0.30773 0.80764 0.0
H642 H 0.49572 0.31147 0.80461 0.0
H643 H 0.54158 0.2972 0.82043 0.0
H644 H 0.54952 0.24773 0.8944 0.0
H645 H 0.49925 0.24834 0.90059 0.0
C646 C 0.46224 0.27084 0.86561 0.0
C647 C 0.44546 0.28282 0.84506 0.0
C648 C 0.49124 0.2726 0.86373 0.0
C649 C 0.45794 0.29807 0.82361 0.0
C650 C 0.48668 0.30021 0.82181 0.0
C651 C 0.53237 0.2868 0.83809 0.0
C652 C 0.54922 0.27216 0.85671 0.0
C653 C 0.50351 0.28694 0.84132 0.0
C654 C 0.53698 0.25903 0.87965 0.0
C655 C 0.50822 0.2593 0.88316 0.0
H656 H 0.20505 0.9513 0.31832 0.0
H657 H 0.24697 0.9486 0.39714 0.0
H658 H 0.24638 0.99914 0.39949 0.0
H659 H 0.23769 0.04416 0.37713 0.0
H660 H 0.19687 0.04642 0.29769 0.0
H661 H 0.19317 0.99609 0.29776 0.0
C662 C 0.21373 0.96172 0.33621 0.0
C663 C 0.22623 0.94616 0.3574 0.0
C664 C 0.21373 0.99078 0.33723 0.0
C665 C 0.23731 0.96005 0.38046 0.0
C666 C 0.23707 0.98898 0.38179 0.0
C667 C 0.22768 0.03367 0.36 0.0
C668 C 0.21781 0.04907 0.33733 0.0
C669 C 0.22592 0.00458 0.35998 0.0
C670 C 0.20484 0.03511 0.31533 0.0
C671 C 0.20272 0.00628 0.31532 0.0
H672 H 0.54102 0.74271 0.11929 0.0
H673 H 0.54498 0.695 0.19478 0.0
H674 H 0.49463 0.69178 0.19588 0.0
H675 H 0.44942 0.70586 0.17784 0.0
H676 H 0.44491 0.75457 0.10307 0.0
H677 H 0.4954 0.75374 0.09912 0.0
C678 C 0.53088 0.73129 0.13577 0.0
C679 C 0.54681 0.71933 0.15704 0.0
C680 C 0.50175 0.72981 0.13652 0.0
C681 C 0.53329 0.70458 0.17823 0.0
C682 C 0.50444 0.70275 0.17892 0.0
C683 C 0.45942 0.71601 0.16047 0.0
C684 C 0.44337 0.73045 0.14093 0.0
C685 C 0.48845 0.71581 0.15854 0.0
C686 C 0.45673 0.74338 0.11849 0.0
C687 C 0.48564 0.74299 0.11626 0.0
H688 H 0.81537 0.95018 0.66966 0.0
H689 H 0.75707 0.94466 0.60222 0.0
H690 H 0.75739 0.995 0.59747 0.0
H691 H 0.7701 0.04074 0.61597 0.0
H692 H 0.82748 0.04606 0.68423 0.0
H693 H 0.83186 0.99575 0.68487 0.0
C694 C 0.80306 0.95993 0.65362 0.0
C695 C 0.78598 0.94364 0.63655 0.0
C696 C 0.80299 0.98894 0.65127 0.0
C697 C 0.7703 0.95666 0.61576 0.0
C698 C 0.77038 0.9855 0.61308 0.0
C699 C 0.78393 0.03094 0.63068 0.0
C700 C 0.79819 0.04719 0.65022 0.0
C701 C 0.78602 0.00189 0.63126 0.0
C702 C 0.8161 0.0341 0.66906 0.0
C703 C 0.81856 0.00528 0.66952 0.0
H704 H 0.19959 0.04931 0.67358 0.0
H705 H 0.25495 0.05555 0.60364 0.0
H706 H 0.25594 0.00504 0.5996 0.0
H707 H 0.24469 0.95906 0.61905 0.0
H708 H 0.18992 0.95372 0.68963 0.0
H709 H 0.18495 0.00386 0.6901 0.0
C710 C 0.21164 0.03967 0.65723 0.0
C711 C 0.22743 0.05615 0.63916 0.0
C712 C 0.21237 0.01072 0.65525 0.0
C713 C 0.24267 0.04333 0.6179 0.0
C714 C 0.24334 0.01443 0.61565 0.0
C715 C 0.23135 0.96886 0.63425 0.0
C716 C 0.21798 0.95265 0.65447 0.0
C717 C 0.22882 0.99789 0.63467 0.0
C718 C 0.20069 0.96567 0.67399 0.0
C719 C 0.19783 0.99439 0.67432 0.0
H720 H 0.13094 0.26733 0.28474 0.0
H721 H 0.17963 0.32248 0.33551 0.0
H722 H 0.19899 0.28291 0.36023 0.0
H723 H 0.20757 0.23285 0.36225 0.0
H724 H 0.16039 0.17783 0.3099 0.0
H725 H 0.13474 0.21717 0.29136 0.0
C726 C 0.14536 0.27079 0.30159 0.0
C727 C 0.15419 0.29788 0.30785 0.0
C728 C 0.15698 0.24791 0.31525 0.0
C729 C 0.17263 0.30189 0.33001 0.0
C730 C 0.18386 0.27923 0.34409 0.0
C731 C 0.1913 0.22934 0.34719 0.0
C732 C 0.18634 0.20241 0.33712 0.0
C733 C 0.17705 0.25214 0.33609 0.0
C734 C 0.16492 0.19832 0.31783 0.0
C735 C 0.15028 0.22085 0.3071 0.0
H736 H 0.27127 0.7139 0.869 0.0
H737 H 0.32434 0.65684 0.825 0.0
H738 H 0.28382 0.63273 0.80697 0.0
H739 H 0.23386 0.63263 0.79777 0.0
H740 H 0.18089 0.69078 0.84045 0.0
H741 H 0.2208 0.70928 0.86522 0.0
C742 C 0.27403 0.69584 0.85593 0.0
C743 C 0.30087 0.68759 0.84795 0.0
C744 C 0.25062 0.68241 0.84511 0.0
C745 C 0.30398 0.66388 0.83129 0.0
C746 C 0.28078 0.65013 0.82083 0.0
C747 C 0.23091 0.64898 0.8129 0.0
C748 C 0.20444 0.66065 0.81678 0.0
C749 C 0.25405 0.65996 0.82666 0.0
C750 C 0.20102 0.68155 0.83678 0.0
C751 C 0.22389 0.69227 0.85089 0.0
H752 H 0.86913 0.73865 0.28889 0.0
H753 H 0.82137 0.67962 0.33618 0.0
H754 H 0.80076 0.71721 0.36288 0.0
H755 H 0.7907 0.76682 0.36745 0.0
H756 H 0.83725 0.82582 0.31891 0.0
H757 H 0.86417 0.78828 0.29851 0.0
C758 C 0.85467 0.73391 0.30543 0.0
C759 C 0.84642 0.70633 0.31007 0.0
C760 C 0.84237 0.75569 0.32032 0.0
C761 C 0.8279 0.70064 0.33187 0.0
C762 C 0.81597 0.72217 0.34711 0.0
C763 C 0.80712 0.77157 0.35286 0.0
C764 C 0.81149 0.79912 0.34434 0.0
C765 C 0.82216 0.74981 0.34069 0.0
C766 C 0.83313 0.80482 0.32564 0.0
C767 C 0.84851 0.78332 0.31383 0.0
H768 H 0.75779 0.36799 0.7835 0.0
H769 H 0.81877 0.32585 0.83344 0.0
H770 H 0.78204 0.30453 0.86078 0.0
H771 H 0.73299 0.29175 0.86514 0.0
H772 H 0.6721 0.33319 0.81449 0.0
H773 H 0.70837 0.36115 0.79326 0.0
C774 C 0.76308 0.35462 0.80074 0.0
C775 C 0.791 0.34806 0.80596 0.0
C776 C 0.74184 0.34199 0.8161 0.0
C777 C 0.79747 0.33107 0.82871 0.0
C778 C 0.77645 0.3187 0.84431 0.0
C779 C 0.72755 0.30731 0.84988 0.0
C780 C 0.69991 0.30986 0.84099 0.0
C781 C 0.74859 0.32304 0.83735 0.0
C782 C 0.69321 0.33048 0.82154 0.0
C783 C 0.71399 0.34644 0.80924 0.0
H784 H 0.21315 0.76711 0.63798 0.0
H785 H 0.1624 0.82581 0.68254 0.0
H786 H 0.13545 0.78798 0.70232 0.0
H787 H 0.13169 0.73847 0.71313 0.0
H788 H 0.18351 0.67984 0.66971 0.0
H789 H 0.20419 0.71737 0.64304 0.0
C790 C 0.19582 0.7717 0.65155 0.0
C791 C 0.19027 0.79927 0.65924 0.0
C792 C 0.18076 0.7498 0.66337 0.0
C793 C 0.16742 0.8048 0.67649 0.0
C794 C 0.15204 0.78314 0.68797 0.0
C795 C 0.14707 0.73379 0.69741 0.0
C796 C 0.15646 0.7064 0.69394 0.0
C797 C 0.15935 0.75556 0.68253 0.0
C798 C 0.1761 0.70073 0.67314 0.0
C799 C 0.18808 0.72223 0.65793 0.0
H800 H 0.73243 0.71305 0.13407 0.0
H801 H 0.67714 0.66287 0.18337 0.0
H802 H 0.71661 0.63783 0.20249 0.0
H803 H 0.76673 0.6351 0.21045 0.0
H804 H 0.82201 0.68657 0.16249 0.0
H805 H 0.78264 0.70577 0.13737 0.0
C806 C 0.72891 0.69627 0.14857 0.0
C807 C 0.7018 0.69025 0.1576 0.0
C808 C 0.75177 0.68234 0.16 0.0
C809 C 0.69774 0.6682 0.1762 0.0
C810 C 0.72035 0.65391 0.18728 0.0
C811 C 0.77028 0.65011 0.19413 0.0
C812 C 0.79734 0.6597 0.18877 0.0
C813 C 0.74747 0.66156 0.18015 0.0
C814 C 0.80145 0.67896 0.1673 0.0
C815 C 0.7789 0.69008 0.15297 0.0
H816 H 0.83621 0.19149 0.67358 0.0
H817 H 0.77394 0.22902 0.62163 0.0
H818 H 0.79077 0.27495 0.63394 0.0
H819 H 0.81805 0.30431 0.66512 0.0
H820 H 0.8792 0.26675 0.71838 0.0
H821 H 0.86823 0.22126 0.69954 0.0
C822 C 0.82676 0.20968 0.6644 0.0
C823 C 0.80351 0.20675 0.64712 0.0
C824 C 0.8361 0.23616 0.6721 0.0
C825 C 0.79162 0.23061 0.63532 0.0
C826 C 0.80117 0.25696 0.64241 0.0
C827 C 0.82944 0.28628 0.67218 0.0
C828 C 0.84903 0.28897 0.69354 0.0
C829 C 0.82261 0.25999 0.6617 0.0
C830 C 0.86372 0.26533 0.70223 0.0
C831 C 0.85741 0.23921 0.69153 0.0
H832 H 0.23585 0.37223 0.21312 0.0
H833 H 0.18118 0.32325 0.16213 0.0
H834 H 0.22098 0.30413 0.13747 0.0
H835 H 0.27116 0.29608 0.13528 0.0
H836 H 0.32574 0.3437 0.18765 0.0
H837 H 0.28612 0.3688 0.2065 0.0
C838 C 0.23254 0.35779 0.19625 0.0
C839 C 0.20549 0.34887 0.18987 0.0
C840 C 0.25557 0.34635 0.18256 0.0
C841 C 0.2017 0.33036 0.1677 0.0
C842 C 0.2245 0.31927 0.15365 0.0
C843 C 0.27451 0.31232 0.15042 0.0
C844 C 0.30144 0.31759 0.16035 0.0
C845 C 0.25154 0.32629 0.16166 0.0
C846 C 0.30529 0.33895 0.17978 0.0
C847 C 0.28259 0.35327 0.19069 0.0
H848 H 0.37039 0.21439 0.23767 0.0
H849 H 0.32556 0.1689 0.17514 0.0
H850 H 0.30382 0.14064 0.2109 0.0
H851 H 0.2918 0.13423 0.25984 0.0
H852 H 0.33535 0.18097 0.32236 0.0
H853 H 0.36359 0.20289 0.28668 0.0
C854 C 0.35632 0.19792 0.23177 0.0
C855 C 0.3492 0.19423 0.20375 0.0
C856 C 0.34336 0.18212 0.25249 0.0
C857 C 0.3312 0.17249 0.19654 0.0
C858 C 0.31862 0.15635 0.21701 0.0
C859 C 0.30786 0.14877 0.26576 0.0
C860 C 0.31098 0.15634 0.29374 0.0
C861 C 0.32363 0.16182 0.24508 0.0
C862 C 0.3322 0.17495 0.30099 0.0
C863 C 0.34831 0.18763 0.28056 0.0
H864 H 0.33317 0.82766 0.80951 0.0
H865 H 0.38513 0.77324 0.76108 0.0
H866 H 0.36911 0.79521 0.7186 0.0
H867 H 0.33501 0.82457 0.69508 0.0
H868 H 0.28178 0.87778 0.74349 0.0
H869 H 0.30398 0.86191 0.7859 0.0
C870 C 0.3415 0.82101 0.78973 0.0
C871 C 0.35994 0.79845 0.78854 0.0
C872 C 0.33169 0.8333 0.76524 0.0
C873 C 0.37064 0.7903 0.76266 0.0
C874 C 0.36141 0.80279 0.73829 0.0
C875 C 0.32864 0.83317 0.71483 0.0
C876 C 0.30636 0.85195 0.71604 0.0
C877 C 0.34107 0.8235 0.73928 0.0
C878 C 0.29862 0.86304 0.74188 0.0
C879 C 0.31125 0.8539 0.76623 0.0
H880 H 0.70728 0.86783 0.26664 0.0
H881 H 0.66237 0.81733 0.32528 0.0
H882 H 0.63555 0.79705 0.28765 0.0
H883 H 0.63019 0.78837 0.23791 0.0
H884 H 0.67652 0.83749 0.17921 0.0
H885 H 0.697 0.86385 0.21708 0.0
C886 C 0.69125 0.85279 0.27131 0.0
C887 C 0.68728 0.84376 0.29876 0.0
C888 C 0.67631 0.8407 0.24949 0.0
C889 C 0.66614 0.8245 0.30436 0.0
C890 C 0.65084 0.81276 0.28281 0.0
C891 C 0.64433 0.80521 0.23331 0.0
C892 C 0.65218 0.81052 0.20572 0.0
C893 C 0.65657 0.81988 0.25523 0.0
C894 C 0.67028 0.83269 0.20022 0.0
C895 C 0.68214 0.84773 0.22191 0.0
H896 H 0.67293 0.15868 0.69703 0.0
H897 H 0.73608 0.11603 0.74373 0.0
H898 H 0.71526 0.13189 0.78691 0.0
H899 H 0.68391 0.16394 0.81086 0.0
H900 H 0.62194 0.20814 0.76401 0.0
H901 H 0.63722 0.18525 0.72169 0.0
C902 C 0.68176 0.15226 0.71665 0.0
C903 C 0.70634 0.1366 0.71705 0.0
C904 C 0.6701 0.16207 0.74148 0.0
C905 C 0.71737 0.12838 0.74273 0.0
C906 C 0.70554 0.13754 0.7675 0.0
C907 C 0.67331 0.16813 0.79153 0.0
C908 C 0.65216 0.18817 0.79062 0.0
C909 C 0.68263 0.15537 0.76706 0.0
C910 C 0.63853 0.1931 0.76534 0.0
C911 C 0.64732 0.18007 0.74104 0.0
H912 H 0.83344 0.80336 0.67098 0.0
H913 H 0.77462 0.7603 0.61933 0.0
H914 H 0.79456 0.71597 0.63288 0.0
H915 H 0.82354 0.68935 0.66502 0.0
H916 H 0.88093 0.73242 0.71825 0.0
H917 H 0.86708 0.77657 0.69811 0.0
C918 C 0.82543 0.78433 0.66214 0.0
C919 C 0.80225 0.7852 0.64454 0.0
C920 C 0.83653 0.75876 0.67059 0.0
C921 C 0.79221 0.76028 0.63323 0.0
C922 C 0.80355 0.73485 0.64103 0.0
C923 C 0.83353 0.7083 0.67175 0.0
C924 C 0.8529 0.70753 0.69347 0.0
C925 C 0.82494 0.73379 0.66059 0.0
C926 C 0.86568 0.73237 0.70182 0.0
C927 C 0.85771 0.7577 0.69037 0.0
H928 H 0.69577 0.32437 0.17249 0.0
H929 H 0.74315 0.26943 0.12013 0.0
H930 H 0.78603 0.29094 0.13567 0.0
H931 H 0.81025 0.32013 0.16938 0.0
H932 H 0.76297 0.37412 0.22282 0.0
H933 H 0.72011 0.35855 0.20125 0.0
C934 C 0.71541 0.31753 0.16397 0.0
C935 C 0.71619 0.29494 0.14557 0.0
C936 C 0.74016 0.3296 0.17345 0.0
C937 C 0.74189 0.2865 0.13463 0.0
C938 C 0.7665 0.29874 0.14356 0.0
C939 C 0.79064 0.32895 0.17594 0.0
C940 C 0.78989 0.34787 0.19809 0.0
C941 C 0.76594 0.3195 0.16383 0.0
C942 C 0.76424 0.35927 0.20605 0.0
C943 C 0.73963 0.3503 0.19379 0.0
H944 H 0.13054 0.26686 0.7096 0.0
H945 H 0.17938 0.32719 0.66511 0.0
H946 H 0.2003 0.29036 0.63757 0.0
H947 H 0.21013 0.24091 0.63148 0.0
H948 H 0.16262 0.18052 0.67732 0.0
H949 H 0.13552 0.21753 0.69852 0.0
C950 C 0.14534 0.27206 0.6935 0.0
C951 C 0.15376 0.29975 0.68987 0.0
C952 C 0.1578 0.25071 0.67814 0.0
C953 C 0.1727 0.30606 0.66863 0.0
C954 C 0.18481 0.28498 0.65292 0.0
C955 C 0.19347 0.23575 0.64567 0.0
C956 C 0.18884 0.20795 0.65319 0.0
C957 C 0.17837 0.25717 0.65832 0.0
C958 C 0.1669 0.20172 0.67134 0.0
C959 C 0.15144 0.2229 0.68362 0.0
H960 H 0.19244 0.67956 0.16941 0.0
H961 H 0.24043 0.62667 0.22312 0.0
H962 H 0.28311 0.64284 0.20153 0.0
H963 H 0.307 0.6773 0.17277 0.0
H964 H 0.25905 0.73149 0.12033 0.0
H965 H 0.21643 0.70921 0.13569 0.0
C966 C 0.21217 0.67103 0.17593 0.0
C967 C 0.21318 0.65227 0.1982 0.0
C968 C 0.23681 0.68095 0.16389 0.0
C969 C 0.239 0.64141 0.20628 0.0
C970 C 0.2635 0.65072 0.194 0.0
C971 C 0.28731 0.68384 0.1642 0.0
C972 C 0.2863 0.7064 0.1458 0.0
C973 C 0.26271 0.67134 0.17361 0.0
C974 C 0.26051 0.71442 0.1348 0.0
C975 C 0.23604 0.70174 0.14365 0.0
H976 H 0.86576 0.26447 0.29464 0.0
H977 H 0.82009 0.32553 0.34144 0.0
H978 H 0.79866 0.28891 0.36886 0.0
H979 H 0.78719 0.23962 0.37414 0.0
H980 H 0.83191 0.17866 0.32628 0.0
H981 H 0.85963 0.21515 0.30512 0.0
C982 C 0.85156 0.26985 0.31122 0.0
C983 C 0.84415 0.29773 0.31553 0.0
C984 C 0.83884 0.24864 0.32655 0.0
C985 C 0.82603 0.30427 0.33742 0.0
C986 C 0.8136 0.2833 0.35305 0.0
C987 C 0.80339 0.23422 0.35953 0.0
C988 C 0.80699 0.20642 0.35142 0.0
C989 C 0.81895 0.25539 0.34697 0.0
C990 C 0.82839 0.19985 0.33272 0.0
C991 C 0.84422 0.22076 0.32047 0.0
H992 H 0.23015 0.36932 0.79389 0.0
H993 H 0.173 0.3182 0.84002 0.0
H994 H 0.21137 0.29854 0.86623 0.0
H995 H 0.26124 0.29009 0.87018 0.0
H996 H 0.31845 0.33972 0.82253 0.0
H997 H 0.27993 0.36603 0.80326 0.0
C998 C 0.22598 0.35432 0.81008 0.0
C999 C 0.19878 0.3448 0.81449 0.0
C1000 C 0.24821 0.34255 0.82463 0.0
C1001 C 0.19376 0.32565 0.83587 0.0
C1002 C 0.21572 0.31428 0.85082 0.0
C1003 C 0.26538 0.30705 0.85604 0.0
C1004 C 0.29268 0.31245 0.84734 0.0
C1005 C 0.24309 0.32165 0.84447 0.0
C1006 C 0.29763 0.33481 0.82933 0.0
C1007 C 0.27558 0.34982 0.81817 0.0
H1008 H 0.17483 0.8089 0.32863 0.0
H1009 H 0.22643 0.76276 0.38516 0.0
H1010 H 0.20478 0.71968 0.37035 0.0
H1011 H 0.17673 0.69462 0.33621 0.0
H1012 H 0.12641 0.74068 0.27848 0.0
H1013 H 0.14164 0.78406 0.29925 0.0
C1014 C 0.18091 0.78952 0.3382 0.0
C1015 C 0.20262 0.78911 0.35761 0.0
C1016 C 0.16881 0.76464 0.32913 0.0
C1017 C 0.21004 0.76373 0.3699 0.0
C1018 C 0.19772 0.739 0.36137 0.0
C1019 C 0.16856 0.71409 0.32857 0.0
C1020 C 0.15085 0.71431 0.30546 0.0
C1021 C 0.17792 0.7391 0.34018 0.0
C1022 C 0.14036 0.73982 0.296 0.0
C1023 C 0.14914 0.76472 0.30781 0.0
H1024 H 0.81149 0.67243 0.82977 0.0
H1025 H 0.76311 0.61904 0.77692 0.0
H1026 H 0.72064 0.63479 0.79932 0.0
H1027 H 0.69697 0.66915 0.82839 0.0
H1028 H 0.74533 0.72424 0.8795 0.0
H1029 H 0.78789 0.70208 0.86367 0.0
C1030 C 0.79174 0.66371 0.8236 0.0
C1031 C 0.79052 0.64493 0.80136 0.0
C1032 C 0.76725 0.67345 0.83604 0.0
C1033 C 0.76468 0.6338 0.79374 0.0
C1034 C 0.74032 0.64287 0.80648 0.0
C1035 C 0.71675 0.67588 0.83661 0.0
C1036 C 0.71791 0.69866 0.85474 0.0
C1037 C 0.74128 0.66355 0.82683 0.0
C1038 C 0.74379 0.70699 0.86523 0.0
C1039 C 0.7682 0.69439 0.85612 0.0
H1040 H 0.67069 0.82693 0.69535 0.0
H1041 H 0.72953 0.87958 0.73718 0.0
H1042 H 0.71025 0.86611 0.78188 0.0
H1043 H 0.682 0.83373 0.8091 0.0
H1044 H 0.62485 0.77931 0.76719 0.0
H1045 H 0.6378 0.79945 0.72274 0.0
C1046 C 0.67886 0.836 0.71419 0.0
C1047 C 0.70185 0.85388 0.71287 0.0
C1048 C 0.6682 0.82755 0.73995 0.0
C1049 C 0.71208 0.86549 0.73755 0.0
C1050 C 0.70112 0.85772 0.76319 0.0
C1051 C 0.67187 0.82673 0.79034 0.0
C1052 C 0.65282 0.8047 0.7915 0.0
C1053 C 0.67998 0.83787 0.76467 0.0
C1054 C 0.63985 0.79599 0.76692 0.0
C1055 C 0.64731 0.80744 0.74142 0.0
H1056 H 0.70425 0.13179 0.27408 0.0
H1057 H 0.6603 0.19074 0.32508 0.0
H1058 H 0.63615 0.20831 0.28439 0.0
H1059 H 0.63332 0.21196 0.23385 0.0
H1060 H 0.67864 0.15419 0.1827 0.0
H1061 H 0.69597 0.13087 0.22399 0.0
C1062 C 0.68899 0.14811 0.27643 0.0
C1063 C 0.68457 0.16029 0.30257 0.0
C1064 C 0.67559 0.15855 0.25285 0.0
C1065 C 0.66438 0.18114 0.30521 0.0
C1066 C 0.65063 0.19132 0.28191 0.0
C1067 C 0.64653 0.19391 0.23167 0.0
C1068 C 0.65511 0.18524 0.20516 0.0
C1069 C 0.65696 0.18097 0.25551 0.0
C1070 C 0.6719 0.16154 0.2028 0.0
C1071 C 0.68197 0.14825 0.22644 0.0
H1072 H 0.28775 0.13669 0.73159 0.0
H1073 H 0.33812 0.18589 0.67638 0.0
H1074 H 0.36337 0.20472 0.7158 0.0
H1075 H 0.36587 0.21286 0.76581 0.0
H1076 H 0.3141 0.16519 0.82106 0.0
H1077 H 0.29511 0.13982 0.78174 0.0
C1078 C 0.30463 0.15109 0.72809 0.0
C1079 C 0.3106 0.16027 0.70105 0.0
C1080 C 0.31865 0.16239 0.75091 0.0
C1081 C 0.33281 0.17868 0.69695 0.0
C1082 C 0.34722 0.18958 0.71952 0.0
C1083 C 0.35083 0.19655 0.76936 0.0
C1084 C 0.34102 0.19138 0.79634 0.0
C1085 C 0.33949 0.18249 0.7466 0.0
C1086 C 0.32184 0.16985 0.80052 0.0
C1087 C 0.31084 0.1554 0.77801 0.0
H1088 H 0.29467 0.8722 0.27165 0.0
H1089 H 0.34268 0.81809 0.32413 0.0
H1090 H 0.3669 0.79987 0.28364 0.0
H1091 H 0.36883 0.79397 0.23315 0.0
H1092 H 0.31981 0.84723 0.18071 0.0
H1093 H 0.30202 0.87137 0.22138 0.0
C1094 C 0.31083 0.85682 0.27433 0.0
C1095 C 0.31642 0.84615 0.30088 0.0
C1096 C 0.3243 0.84602 0.2509 0.0
C1097 C 0.33776 0.82656 0.30396 0.0
C1098 C 0.35152 0.81597 0.28076 0.0
C1099 C 0.35469 0.81122 0.23054 0.0
C1100 C 0.34525 0.81835 0.20388 0.0
C1101 C 0.3441 0.82471 0.25407 0.0
C1102 C 0.32726 0.84107 0.20093 0.0
C1103 C 0.31692 0.85482 0.22423 0.0
loop_
_geom_bond_atom_site_label_1
_geom_bond_atom_site_label_2
_geom_bond_distance
_geom_bond_site_symmetry_2
_ccdc_geom_bond_type
O0 Cd1 2.223 . S
O0 C8 1.315 . S
Cd1 O0 2.223 . S
Cd1 O4 2.297 . S
Cd1 O5 2.439 . S
Cd1 O11 2.240 . S
Cd2 O3 2.240 . S
Cd2 O10 2.223 . S
Cd2 O12 2.297 . S
Cd2 O13 2.439 . S
O3 Cd2 2.240 . S
O3 C8 1.279 . S
O4 Cd1 2.297 . S
O4 C6 1.247 . S
O5 Cd1 2.439 . S
O5 C6 1.208 . S
C6 O4 1.247 . S
C6 O5 1.208 . S
C7 O12 1.247 . S
C7 O13 1.208 . S
C8 O0 1.315 . S
C8 O3 1.279 . S
C9 O10 1.315 . S
C9 O11 1.279 . S
O10 Cd2 2.223 . S
O10 C9 1.315 . S
O11 Cd1 2.240 . S
O11 C9 1.279 . S
O12 Cd2 2.297 . S
O12 C7 1.247 . S
O13 Cd2 2.439 . S
O13 C7 1.208 . S
O14 Cd15 2.223 . S
O14 C22 1.315 . S
Cd15 O14 2.223 . S
Cd15 O18 2.297 . S
Cd15 O19 2.439 . S
Cd15 O25 2.240 . S
Cd16 O17 2.240 . S
Cd16 O24 2.223 . S
Cd16 O26 2.297 . S
Cd16 O27 2.439 . S
O17 Cd16 2.240 . S
O17 C22 1.279 . S
O18 Cd15 2.297 . S
O18 C20 1.247 . S
O19 Cd15 2.439 . S
O19 C20 1.208 . S
C20 O18 1.247 . S
C20 O19 1.208 . S
C21 O26 1.247 . S
C21 O27 1.208 . S
C22 O14 1.315 . S
C22 O17 1.279 . S
C23 O24 1.315 . S
C23 O25 1.279 . S
O24 Cd16 2.223 . S
O24 C23 1.315 . S
O25 Cd15 2.240 . S
O25 C23 1.279 . S
O26 Cd16 2.297 . S
O26 C21 1.247 . S
O27 Cd16 2.439 . S
O27 C21 1.208 . S
O28 Cd29 2.223 . S
O28 C36 1.315 . S
Cd29 O28 2.223 . S
Cd29 O32 2.297 . S
Cd29 O33 2.439 . S
Cd29 O39 2.240 . S
Cd30 O31 2.240 . S
Cd30 O38 2.223 . S
Cd30 O40 2.297 . S
Cd30 O41 2.439 . S
O31 Cd30 2.240 . S
O31 C36 1.279 . S
O32 Cd29 2.297 . S
O32 C34 1.247 . S
O33 Cd29 2.439 . S
O33 C34 1.208 . S
C34 O32 1.247 . S
C34 O33 1.208 . S
C35 O40 1.247 . S
C35 O41 1.208 . S
C36 O28 1.315 . S
C36 O31 1.279 . S
C37 O38 1.315 . S
C37 O39 1.279 . S
O38 Cd30 2.223 . S
O38 C37 1.315 . S
O39 Cd29 2.240 . S
O39 C37 1.279 . S
O40 Cd30 2.297 . S
O40 C35 1.247 . S
O41 Cd30 2.439 . S
O41 C35 1.208 . S
O42 Cd43 2.223 . S
O42 C50 1.315 . S
Cd43 O42 2.223 . S
Cd43 O46 2.297 . S
Cd43 O47 2.439 . S
Cd43 O53 2.240 . S
Cd44 O45 2.240 . S
Cd44 O52 2.223 . S
Cd44 O54 2.297 . S
Cd44 O55 2.439 . S
O45 Cd44 2.240 . S
O45 C50 1.279 . S
O46 Cd43 2.297 . S
O46 C48 1.247 . S
O47 Cd43 2.439 . S
O47 C48 1.208 . S
C48 O46 1.247 . S
C48 O47 1.208 . S
C49 O54 1.247 . S
C49 O55 1.208 . S
C50 O42 1.315 . S
C50 O45 1.279 . S
C51 O52 1.315 . S
C51 O53 1.279 . S
O52 Cd44 2.223 . S
O52 C51 1.315 . S
O53 Cd43 2.240 . S
O53 C51 1.279 . S
O54 Cd44 2.297 . S
O54 C49 1.247 . S
O55 Cd44 2.439 . S
O55 C49 1.208 . S
O56 Cd57 2.223 . S
O56 C64 1.315 . S
Cd57 O56 2.223 . S
Cd57 O60 2.297 . S
Cd57 O61 2.439 . S
Cd57 O67 2.240 . S
Cd58 O59 2.240 . S
Cd58 O66 2.223 . S
Cd58 O68 2.297 . S
Cd58 O69 2.439 . S
O59 Cd58 2.240 . S
O59 C64 1.279 . S
O60 Cd57 2.297 . S
O60 C62 1.247 . S
O61 Cd57 2.439 . S
O61 C62 1.208 . S
C62 O60 1.247 . S
C62 O61 1.208 . S
C63 O68 1.247 . S
C63 O69 1.208 . S
C64 O56 1.315 . S
C64 O59 1.279 . S
C65 O66 1.315 . S
C65 O67 1.279 . S
O66 Cd58 2.223 . S
O66 C65 1.315 . S
O67 Cd57 2.240 . S
O67 C65 1.279 . S
O68 Cd58 2.297 . S
O68 C63 1.247 . S
O69 Cd58 2.439 . S
O69 C63 1.208 . S
O70 Cd71 2.223 . S
O70 C78 1.315 . S
Cd71 O70 2.223 . S
Cd71 O74 2.297 . S
Cd71 O75 2.439 . S
Cd71 O81 2.240 . S
Cd72 O73 2.240 . S
Cd72 O80 2.223 . S
Cd72 O82 2.297 . S
Cd72 O83 2.439 . S
O73 Cd72 2.240 . S
O73 C78 1.279 . S
O74 Cd71 2.297 . S
O74 C76 1.247 . S
O75 Cd71 2.439 . S
O75 C76 1.208 . S
C76 O74 1.247 . S
C76 O75 1.208 . S
C77 O82 1.247 . S
C77 O83 1.208 . S
C78 O70 1.315 . S
C78 O73 1.279 . S
C79 O80 1.315 . S
C79 O81 1.279 . S
O80 Cd72 2.223 . S
O80 C79 1.315 . S
O81 Cd71 2.240 . S
O81 C79 1.279 . S
O82 Cd72 2.297 . S
O82 C77 1.247 . S
O83 Cd72 2.439 . S
O83 C77 1.208 . S
O84 Cd85 2.223 . S
O84 C92 1.315 . S
Cd85 O84 2.223 . S
Cd85 O88 2.297 . S
Cd85 O89 2.439 . S
Cd85 O95 2.240 . S
Cd86 O87 2.240 . S
Cd86 O94 2.223 . S
Cd86 O96 2.297 . S
Cd86 O97 2.439 . S
O87 Cd86 2.240 . S
O87 C92 1.279 . S
O88 Cd85 2.297 . S
O88 C90 1.247 . S
O89 Cd85 2.439 . S
O89 C90 1.208 . S
C90 O88 1.247 . S
C90 O89 1.208 . S
C91 O96 1.247 . S
C91 O97 1.208 . S
C92 O84 1.315 . S
C92 O87 1.279 . S
C93 O94 1.315 . S
C93 O95 1.279 . S
O94 Cd86 2.223 . S
O94 C93 1.315 . S
O95 Cd85 2.240 . S
O95 C93 1.279 . S
O96 Cd86 2.297 . S
O96 C91 1.247 . S
O97 Cd86 2.439 . S
O97 C91 1.208 . S
O98 Cd99 2.223 . S
O98 C106 1.315 . S
Cd99 O98 2.223 . S
Cd99 O102 2.297 . S
Cd99 O103 2.439 . S
Cd99 O109 2.240 . S
Cd100 O101 2.240 . S
Cd100 O108 2.223 . S
Cd100 O110 2.297 . S
Cd100 O111 2.439 . S
O101 Cd100 2.240 . S
O101 C106 1.279 . S
O102 Cd99 2.297 . S
O102 C104 1.247 . S
O103 Cd99 2.439 . S
O103 C104 1.208 . S
C104 O102 1.247 . S
C104 O103 1.208 . S
C105 O110 1.247 . S
C105 O111 1.208 . S
C106 O98 1.315 . S
C106 O101 1.279 . S
C107 O108 1.315 . S
C107 O109 1.279 . S
O108 Cd100 2.223 . S
O108 C107 1.315 . S
O109 Cd99 2.240 . S
O109 C107 1.279 . S
O110 Cd100 2.297 . S
O110 C105 1.247 . S
O111 Cd100 2.439 . S
O111 C105 1.208 . S
O112 Cd113 2.223 . S
O112 C120 1.315 . S
Cd113 O112 2.223 . S
Cd113 O116 2.297 . S
Cd113 O117 2.439 . S
Cd113 O123 2.240 . S
Cd114 O115 2.240 . S
Cd114 O122 2.223 . S
Cd114 O124 2.297 . S
Cd114 O125 2.439 . S
O115 Cd114 2.240 . S
O115 C120 1.279 . S
O116 Cd113 2.297 . S
O116 C118 1.247 . S
O117 Cd113 2.439 . S
O117 C118 1.208 . S
C118 O116 1.247 . S
C118 O117 1.208 . S
C119 O124 1.247 . S
C119 O125 1.208 . S
C120 O112 1.315 . S
C120 O115 1.279 . S
C121 O122 1.315 . S
C121 O123 1.279 . S
O122 Cd114 2.223 . S
O122 C121 1.315 . S
O123 Cd113 2.240 . S
O123 C121 1.279 . S
O124 Cd114 2.297 . S
O124 C119 1.247 . S
O125 Cd114 2.439 . S
O125 C119 1.208 . S
O126 Cd127 2.223 . S
O126 C134 1.315 . S
Cd127 O126 2.223 . S
Cd127 O130 2.297 . S
Cd127 O131 2.439 . S
Cd127 O137 2.240 . S
Cd128 O129 2.240 . S
Cd128 O136 2.223 . S
Cd128 O138 2.297 . S
Cd128 O139 2.439 . S
O129 Cd128 2.240 . S
O129 C134 1.279 . S
O130 Cd127 2.297 . S
O130 C132 1.247 . S
O131 Cd127 2.439 . S
O131 C132 1.208 . S
C132 O130 1.247 . S
C132 O131 1.208 . S
C133 O138 1.247 . S
C133 O139 1.208 . S
C134 O126 1.315 . S
C134 O129 1.279 . S
C135 O136 1.315 . S
C135 O137 1.279 . S
O136 Cd128 2.223 . S
O136 C135 1.315 . S
O137 Cd127 2.240 . S
O137 C135 1.279 . S
O138 Cd128 2.297 . S
O138 C133 1.247 . S
O139 Cd128 2.439 . S
O139 C133 1.208 . S
O140 Cd141 2.223 . S
O140 C148 1.315 . S
Cd141 O140 2.223 . S
Cd141 O144 2.297 . S
Cd141 O145 2.439 . S
Cd141 O151 2.240 . S
Cd142 O143 2.240 . S
Cd142 O150 2.223 . S
Cd142 O152 2.297 . S
Cd142 O153 2.439 . S
O143 Cd142 2.240 . S
O143 C148 1.279 . S
O144 Cd141 2.297 . S
O144 C146 1.247 . S
O145 Cd141 2.439 . S
O145 C146 1.208 . S
C146 O144 1.247 . S
C146 O145 1.208 . S
C147 O152 1.247 . S
C147 O153 1.208 . S
C148 O140 1.315 . S
C148 O143 1.279 . S
C149 O150 1.315 . S
C149 O151 1.279 . S
O150 Cd142 2.223 . S
O150 C149 1.315 . S
O151 Cd141 2.240 . S
O151 C149 1.279 . S
O152 Cd142 2.297 . S
O152 C147 1.247 . S
O153 Cd142 2.439 . S
O153 C147 1.208 . S
O154 Cd155 2.223 . S
O154 C162 1.315 . S
Cd155 O154 2.223 . S
Cd155 O158 2.297 . S
Cd155 O159 2.439 . S
Cd155 O165 2.240 . S
Cd156 O157 2.240 . S
Cd156 O164 2.223 . S
Cd156 O166 2.297 . S
Cd156 O167 2.439 . S
O157 Cd156 2.240 . S
O157 C162 1.279 . S
O158 Cd155 2.297 . S
O158 C160 1.247 . S
O159 Cd155 2.439 . S
O159 C160 1.208 . S
C160 O158 1.247 . S
C160 O159 1.208 . S
C161 O166 1.247 . S
C161 O167 1.208 . S
C162 O154 1.315 . S
C162 O157 1.279 . S
C163 O164 1.315 . S
C163 O165 1.279 . S
O164 Cd156 2.223 . S
O164 C163 1.315 . S
O165 Cd155 2.240 . S
O165 C163 1.279 . S
O166 Cd156 2.297 . S
O166 C161 1.247 . S
O167 Cd156 2.439 . S
O167 C161 1.208 . S
O168 Cd169 2.223 . S
O168 C176 1.315 . S
Cd169 O168 2.223 . S
Cd169 O172 2.297 . S
Cd169 O173 2.439 . S
Cd169 O179 2.240 . S
Cd170 O171 2.240 . S
Cd170 O178 2.223 . S
Cd170 O180 2.297 . S
Cd170 O181 2.439 . S
O171 Cd170 2.240 . S
O171 C176 1.279 . S
O172 Cd169 2.297 . S
O172 C174 1.247 . S
O173 Cd169 2.439 . S
O173 C174 1.208 . S
C174 O172 1.247 . S
C174 O173 1.208 . S
C175 O180 1.247 . S
C175 O181 1.208 . S
C176 O168 1.315 . S
C176 O171 1.279 . S
C177 O178 1.315 . S
C177 O179 1.279 . S
O178 Cd170 2.223 . S
O178 C177 1.315 . S
O179 Cd169 2.240 . S
O179 C177 1.279 . S
O180 Cd170 2.297 . S
O180 C175 1.247 . S
O181 Cd170 2.439 . S
O181 C175 1.208 . S
O182 Cd183 2.223 . S
O182 C190 1.315 . S
Cd183 O182 2.223 . S
Cd183 O186 2.297 . S
Cd183 O187 2.439 . S
Cd183 O193 2.240 . S
Cd184 O185 2.240 . S
Cd184 O192 2.223 . S
Cd184 O194 2.297 . S
Cd184 O195 2.439 . S
O185 Cd184 2.240 . S
O185 C190 1.279 . S
O186 Cd183 2.297 . S
O186 C188 1.247 . S
O187 Cd183 2.439 . S
O187 C188 1.208 . S
C188 O186 1.247 . S
C188 O187 1.208 . S
C189 O194 1.247 . S
C189 O195 1.208 . S
C190 O182 1.315 . S
C190 O185 1.279 . S
C191 O192 1.315 . S
C191 O193 1.279 . S
O192 Cd184 2.223 . S
O192 C191 1.315 . S
O193 Cd183 2.240 . S
O193 C191 1.279 . S
O194 Cd184 2.297 . S
O194 C189 1.247 . S
O195 Cd184 2.439 . S
O195 C189 1.208 . S
O196 Cd197 2.223 . S
O196 C204 1.315 . S
Cd197 O196 2.223 . S
Cd197 O200 2.297 . S
Cd197 O201 2.439 . S
Cd197 O207 2.240 . S
Cd198 O199 2.240 . S
Cd198 O206 2.223 . S
Cd198 O208 2.297 . S
Cd198 O209 2.439 . S
O199 Cd198 2.240 . S
O199 C204 1.279 . S
O200 Cd197 2.297 . S
O200 C202 1.247 . S
O201 Cd197 2.439 . S
O201 C202 1.208 . S
C202 O200 1.247 . S
C202 O201 1.208 . S
C203 O208 1.247 . S
C203 O209 1.208 . S
C204 O196 1.315 . S
C204 O199 1.279 . S
C205 O206 1.315 . S
C205 O207 1.279 . S
O206 Cd198 2.223 . S
O206 C205 1.315 . S
O207 Cd197 2.240 . S
O207 C205 1.279 . S
O208 Cd198 2.297 . S
O208 C203 1.247 . S
O209 Cd198 2.439 . S
O209 C203 1.208 . S
O210 Cd211 2.223 . S
O210 C218 1.315 . S
Cd211 O210 2.223 . S
Cd211 O214 2.297 . S
Cd211 O215 2.439 . S
Cd211 O221 2.240 . S
Cd212 O213 2.240 . S
Cd212 O220 2.223 . S
Cd212 O222 2.297 . S
Cd212 O223 2.439 . S
O213 Cd212 2.240 . S
O213 C218 1.279 . S
O214 Cd211 2.297 . S
O214 C216 1.247 . S
O215 Cd211 2.439 . S
O215 C216 1.208 . S
C216 O214 1.247 . S
C216 O215 1.208 . S
C217 O222 1.247 . S
C217 O223 1.208 . S
C218 O210 1.315 . S
C218 O213 1.279 . S
C219 O220 1.315 . S
C219 O221 1.279 . S
O220 Cd212 2.223 . S
O220 C219 1.315 . S
O221 Cd211 2.240 . S
O221 C219 1.279 . S
O222 Cd212 2.297 . S
O222 C217 1.247 . S
O223 Cd212 2.439 . S
O223 C217 1.208 . S
O224 Cd225 2.223 . S
O224 C232 1.315 . S
Cd225 O224 2.223 . S
Cd225 O228 2.297 . S
Cd225 O229 2.439 . S
Cd225 O235 2.240 . S
Cd226 O227 2.240 . S
Cd226 O234 2.223 . S
Cd226 O236 2.297 . S
Cd226 O237 2.439 . S
O227 Cd226 2.240 . S
O227 C232 1.279 . S
O228 Cd225 2.297 . S
O228 C230 1.247 . S
O229 Cd225 2.439 . S
O229 C230 1.208 . S
C230 O228 1.247 . S
C230 O229 1.208 . S
C231 O236 1.247 . S
C231 O237 1.208 . S
C232 O224 1.315 . S
C232 O227 1.279 . S
C233 O234 1.315 . S
C233 O235 1.279 . S
O234 Cd226 2.223 . S
O234 C233 1.315 . S
O235 Cd225 2.240 . S
O235 C233 1.279 . S
O236 Cd226 2.297 . S
O236 C231 1.247 . S
O237 Cd226 2.439 . S
O237 C231 1.208 . S
O238 Cd239 2.223 . S
O238 C246 1.315 . S
Cd239 O238 2.223 . S
Cd239 O242 2.297 . S
Cd239 O243 2.439 . S
Cd239 O249 2.240 . S
Cd240 O241 2.240 . S
Cd240 O248 2.223 . S
Cd240 O250 2.297 . S
Cd240 O251 2.439 . S
O241 Cd240 2.240 . S
O241 C246 1.279 . S
O242 Cd239 2.297 . S
O242 C244 1.247 . S
O243 Cd239 2.439 . S
O243 C244 1.208 . S
C244 O242 1.247 . S
C244 O243 1.208 . S
C245 O250 1.247 . S
C245 O251 1.208 . S
C246 O238 1.315 . S
C246 O241 1.279 . S
C247 O248 1.315 . S
C247 O249 1.279 . S
O248 Cd240 2.223 . S
O248 C247 1.315 . S
O249 Cd239 2.240 . S
O249 C247 1.279 . S
O250 Cd240 2.297 . S
O250 C245 1.247 . S
O251 Cd240 2.439 . S
O251 C245 1.208 . S
O252 Cd253 2.223 . S
O252 C260 1.315 . S
Cd253 O252 2.223 . S
Cd253 O256 2.297 . S
Cd253 O257 2.439 . S
Cd253 O263 2.240 . S
Cd254 O255 2.240 . S
Cd254 O262 2.223 . S
Cd254 O264 2.297 . S
Cd254 O265 2.439 . S
O255 Cd254 2.240 . S
O255 C260 1.279 . S
O256 Cd253 2.297 . S
O256 C258 1.247 . S
O257 Cd253 2.439 . S
O257 C258 1.208 . S
C258 O256 1.247 . S
C258 O257 1.208 . S
C259 O264 1.247 . S
C259 O265 1.208 . S
C260 O252 1.315 . S
C260 O255 1.279 . S
C261 O262 1.315 . S
C261 O263 1.279 . S
O262 Cd254 2.223 . S
O262 C261 1.315 . S
O263 Cd253 2.240 . S
O263 C261 1.279 . S
O264 Cd254 2.297 . S
O264 C259 1.247 . S
O265 Cd254 2.439 . S
O265 C259 1.208 . S
O266 Cd267 2.223 . S
O266 C274 1.315 . S
Cd267 O266 2.223 . S
Cd267 O270 2.297 . S
Cd267 O271 2.439 . S
Cd267 O277 2.240 . S
Cd268 O269 2.240 . S
Cd268 O276 2.223 . S
Cd268 O278 2.297 . S
Cd268 O279 2.439 . S
O269 Cd268 2.240 . S
O269 C274 1.279 . S
O270 Cd267 2.297 . S
O270 C272 1.247 . S
O271 Cd267 2.439 . S
O271 C272 1.208 . S
C272 O270 1.247 . S
C272 O271 1.208 . S
C273 O278 1.247 . S
C273 O279 1.208 . S
C274 O266 1.315 . S
C274 O269 1.279 . S
C275 O276 1.315 . S
C275 O277 1.279 . S
O276 Cd268 2.223 . S
O276 C275 1.315 . S
O277 Cd267 2.240 . S
O277 C275 1.279 . S
O278 Cd268 2.297 . S
O278 C273 1.247 . S
O279 Cd268 2.439 . S
O279 C273 1.208 . S
O280 Cd281 2.223 . S
O280 C288 1.315 . S
Cd281 O280 2.223 . S
Cd281 O284 2.297 . S
Cd281 O285 2.439 . S
Cd281 O291 2.240 . S
Cd282 O283 2.240 . S
Cd282 O290 2.223 . S
Cd282 O292 2.297 . S
Cd282 O293 2.439 . S
O283 Cd282 2.240 . S
O283 C288 1.279 . S
O284 Cd281 2.297 . S
O284 C286 1.247 . S
O285 Cd281 2.439 . S
O285 C286 1.208 . S
C286 O284 1.247 . S
C286 O285 1.208 . S
C287 O292 1.247 . S
C287 O293 1.208 . S
C288 O280 1.315 . S
C288 O283 1.279 . S
C289 O290 1.315 . S
C289 O291 1.279 . S
O290 Cd282 2.223 . S
O290 C289 1.315 . S
O291 Cd281 2.240 . S
O291 C289 1.279 . S
O292 Cd282 2.297 . S
O292 C287 1.247 . S
O293 Cd282 2.439 . S
O293 C287 1.208 . S
O294 Cd295 2.223 . S
O294 C302 1.315 . S
Cd295 O294 2.223 . S
Cd295 O298 2.297 . S
Cd295 O299 2.439 . S
Cd295 O305 2.240 . S
Cd296 O297 2.240 . S
Cd296 O304 2.223 . S
Cd296 O306 2.297 . S
Cd296 O307 2.439 . S
O297 Cd296 2.240 . S
O297 C302 1.279 . S
O298 Cd295 2.297 . S
O298 C300 1.247 . S
O299 Cd295 2.439 . S
O299 C300 1.208 . S
C300 O298 1.247 . S
C300 O299 1.208 . S
C301 O306 1.247 . S
C301 O307 1.208 . S
C302 O294 1.315 . S
C302 O297 1.279 . S
C303 O304 1.315 . S
C303 O305 1.279 . S
O304 Cd296 2.223 . S
O304 C303 1.315 . S
O305 Cd295 2.240 . S
O305 C303 1.279 . S
O306 Cd296 2.297 . S
O306 C301 1.247 . S
O307 Cd296 2.439 . S
O307 C301 1.208 . S
O308 Cd309 2.223 . S
O308 C316 1.315 . S
Cd309 O308 2.223 . S
Cd309 O312 2.297 . S
Cd309 O313 2.439 . S
Cd309 O319 2.240 . S
Cd310 O311 2.240 . S
Cd310 O318 2.223 . S
Cd310 O320 2.297 . S
Cd310 O321 2.439 . S
O311 Cd310 2.240 . S
O311 C316 1.279 . S
O312 Cd309 2.297 . S
O312 C314 1.247 . S
O313 Cd309 2.439 . S
O313 C314 1.208 . S
C314 O312 1.247 . S
C314 O313 1.208 . S
C315 O320 1.247 . S
C315 O321 1.208 . S
C316 O308 1.315 . S
C316 O311 1.279 . S
C317 O318 1.315 . S
C317 O319 1.279 . S
O318 Cd310 2.223 . S
O318 C317 1.315 . S
O319 Cd309 2.240 . S
O319 C317 1.279 . S
O320 Cd310 2.297 . S
O320 C315 1.247 . S
O321 Cd310 2.439 . S
O321 C315 1.208 . S
O322 Cd323 2.223 . S
O322 C330 1.315 . S
Cd323 O322 2.223 . S
Cd323 O326 2.297 . S
Cd323 O327 2.439 . S
Cd323 O333 2.240 . S
Cd324 O325 2.240 . S
Cd324 O332 2.223 . S
Cd324 O334 2.297 . S
Cd324 O335 2.439 . S
O325 Cd324 2.240 . S
O325 C330 1.279 . S
O326 Cd323 2.297 . S
O326 C328 1.247 . S
O327 Cd323 2.439 . S
O327 C328 1.208 . S
C328 O326 1.247 . S
C328 O327 1.208 . S
C329 O334 1.247 . S
C329 O335 1.208 . S
C330 O322 1.315 . S
C330 O325 1.279 . S
C331 O332 1.315 . S
C331 O333 1.279 . S
O332 Cd324 2.223 . S
O332 C331 1.315 . S
O333 Cd323 2.240 . S
O333 C331 1.279 . S
O334 Cd324 2.297 . S
O334 C329 1.247 . S
O335 Cd324 2.439 . S
O335 C329 1.208 . S
H336 C342 0.930 . S
H337 C345 0.930 . S
H338 C346 0.930 . S
H339 C347 0.930 . S
H340 C350 0.930 . S
H341 C351 0.930 . S
C342 H336 0.930 . S
C342 C343 1.355 . S
C342 C344 1.415 . S
C343 C342 1.355 . S
C343 C345 1.419 . S
C344 C342 1.415 . S
C344 C349 1.425 . S
C344 C351 1.409 . S
C345 H337 0.930 . S
C345 C343 1.419 . S
C345 C346 1.362 . S
C346 H338 0.930 . S
C346 C345 1.362 . S
C346 C349 1.409 . S
C347 H339 0.930 . S
C347 C348 1.355 . S
C347 C349 1.415 . S
C348 C347 1.355 . S
C348 C350 1.419 . S
C349 C344 1.425 . S
C349 C346 1.409 . S
C349 C347 1.415 . S
C350 H340 0.930 . S
C350 C348 1.419 . S
C350 C351 1.362 . S
C351 H341 0.930 . S
C351 C344 1.409 . S
C351 C350 1.362 . S
H352 C358 0.930 . S
H353 C361 0.930 . S
H354 C362 0.930 . S
H355 C363 0.930 . S
H356 C366 0.930 . S
H357 C367 0.930 . S
C358 H352 0.930 . S
C358 C359 1.355 . S
C358 C360 1.415 . S
C359 C358 1.355 . S
C359 C361 1.419 . S
C360 C358 1.415 . S
C360 C365 1.425 1_655 S
C360 C367 1.409 1_655 S
C361 H353 0.930 . S
C361 C359 1.419 . S
C361 C362 1.362 . S
C362 H354 0.930 . S
C362 C361 1.362 . S
C362 C365 1.409 1_655 S
C363 H355 0.930 . S
C363 C364 1.355 . S
C363 C365 1.415 . S
C364 C363 1.355 . S
C364 C366 1.419 . S
C365 C360 1.425 1_455 S
C365 C362 1.409 1_455 S
C365 C363 1.415 . S
C366 H356 0.930 . S
C366 C364 1.419 . S
C366 C367 1.362 . S
C367 H357 0.930 . S
C367 C360 1.409 1_455 S
C367 C366 1.362 . S
H368 C374 0.930 . S
H369 C377 0.930 . S
H370 C378 0.930 . S
H371 C379 0.930 . S
H372 C382 0.930 . S
H373 C383 0.930 . S
C374 H368 0.930 . S
C374 C375 1.355 . S
C374 C376 1.415 . S
C375 C374 1.355 . S
C375 C377 1.419 . S
C376 C374 1.415 . S
C376 C381 1.425 . S
C376 C383 1.409 . S
C377 H369 0.930 . S
C377 C375 1.419 . S
C377 C378 1.362 . S
C378 H370 0.930 . S
C378 C377 1.362 . S
C378 C381 1.409 . S
C379 H371 0.930 . S
C379 C380 1.355 . S
C379 C381 1.415 . S
C380 C379 1.355 . S
C380 C382 1.419 . S
C381 C376 1.425 . S
C381 C378 1.409 . S
C381 C379 1.415 . S
C382 H372 0.930 . S
C382 C380 1.419 . S
C382 C383 1.362 . S
C383 H373 0.930 . S
C383 C376 1.409 . S
C383 C382 1.362 . S
H384 C390 0.930 . S
H385 C393 0.930 . S
H386 C394 0.930 . S
H387 C395 0.930 . S
H388 C398 0.930 . S
H389 C399 0.930 . S
C390 H384 0.930 . S
C390 C391 1.355 . S
C390 C392 1.415 . S
C391 C390 1.355 . S
C391 C393 1.419 . S
C392 C390 1.415 . S
C392 C397 1.425 1_455 S
C392 C399 1.409 1_455 S
C393 H385 0.930 . S
C393 C391 1.419 . S
C393 C394 1.362 . S
C394 H386 0.930 . S
C394 C393 1.362 . S
C394 C397 1.409 1_455 S
C395 H387 0.930 . S
C395 C396 1.355 . S
C395 C397 1.415 . S
C396 C395 1.355 . S
C396 C398 1.419 . S
C397 C392 1.425 1_655 S
C397 C394 1.409 1_655 S
C397 C395 1.415 . S
C398 H388 0.930 . S
C398 C396 1.419 . S
C398 C399 1.362 . S
C399 H389 0.930 . S
C399 C392 1.409 1_655 S
C399 C398 1.362 . S
H400 C406 0.930 . S
H401 C409 0.930 . S
H402 C410 0.930 . S
H403 C411 0.930 . S
H404 C414 0.930 . S
H405 C415 0.930 . S
C406 H400 0.930 . S
C406 C407 1.355 . S
C406 C408 1.415 . S
C407 C406 1.355 . S
C407 C409 1.419 . S
C408 C406 1.415 . S
C408 C413 1.425 . S
C408 C415 1.409 . S
C409 H401 0.930 . S
C409 C407 1.419 . S
C409 C410 1.362 . S
C410 H402 0.930 . S
C410 C409 1.362 . S
C410 C413 1.409 . S
C411 H403 0.930 . S
C411 C412 1.355 . S
C411 C413 1.415 . S
C412 C411 1.355 . S
C412 C414 1.419 . S
C413 C408 1.425 . S
C413 C410 1.409 . S
C413 C411 1.415 . S
C414 H404 0.930 . S
C414 C412 1.419 . S
C414 C415 1.362 . S
C415 H405 0.930 . S
C415 C408 1.409 . S
C415 C414 1.362 . S
H416 C422 0.930 . S
H417 C425 0.930 . S
H418 C426 0.930 . S
H419 C427 0.930 . S
H420 C430 0.930 . S
H421 C431 0.930 . S
C422 H416 0.930 . S
C422 C423 1.355 . S
C422 C424 1.415 . S
C423 C422 1.355 . S
C423 C425 1.419 . S
C424 C422 1.415 . S
C424 C429 1.425 1_655 S
C424 C431 1.409 1_655 S
C425 H417 0.930 . S
C425 C423 1.419 . S
C425 C426 1.362 . S
C426 H418 0.930 . S
C426 C425 1.362 . S
C426 C429 1.409 1_655 S
C427 H419 0.930 . S
C427 C428 1.355 . S
C427 C429 1.415 . S
C428 C427 1.355 . S
C428 C430 1.419 . S
C429 C424 1.425 1_455 S
C429 C426 1.409 1_455 S
C429 C427 1.415 . S
C430 H420 0.930 . S
C430 C428 1.419 . S
C430 C431 1.362 . S
C431 H421 0.930 . S
C431 C424 1.409 1_455 S
C431 C430 1.362 . S
H432 C438 0.930 . S
H433 C441 0.930 . S
H434 C442 0.930 . S
H435 C443 0.930 . S
H436 C446 0.930 . S
H437 C447 0.930 . S
C438 H432 0.930 . S
C438 C439 1.355 . S
C438 C440 1.415 . S
C439 C438 1.355 . S
C439 C441 1.419 . S
C440 C438 1.415 . S
C440 C445 1.425 . S
C440 C447 1.409 . S
C441 H433 0.930 . S
C441 C439 1.419 . S
C441 C442 1.362 . S
C442 H434 0.930 . S
C442 C441 1.362 . S
C442 C445 1.409 . S
C443 H435 0.930 . S
C443 C444 1.355 . S
C443 C445 1.415 . S
C444 C443 1.355 . S
C444 C446 1.419 . S
C445 C440 1.425 . S
C445 C442 1.409 . S
C445 C443 1.415 . S
C446 H436 0.930 . S
C446 C444 1.419 . S
C446 C447 1.362 . S
C447 H437 0.930 . S
C447 C440 1.409 . S
C447 C446 1.362 . S
H448 C454 0.930 . S
H449 C457 0.930 . S
H450 C458 0.930 . S
H451 C459 0.930 . S
H452 C462 0.930 . S
H453 C463 0.930 . S
C454 H448 0.930 . S
C454 C455 1.355 . S
C454 C456 1.415 . S
C455 C454 1.355 . S
C455 C457 1.419 . S
C456 C454 1.415 . S
C456 C461 1.425 1_655 S
C456 C463 1.409 1_655 S
C457 H449 0.930 . S
C457 C455 1.419 . S
C457 C458 1.362 . S
C458 H450 0.930 . S
C458 C457 1.362 . S
C458 C461 1.409 1_655 S
C459 H451 0.930 . S
C459 C460 1.355 . S
C459 C461 1.415 . S
C460 C459 1.355 . S
C460 C462 1.419 . S
C461 C456 1.425 1_455 S
C461 C458 1.409 1_455 S
C461 C459 1.415 . S
C462 H452 0.930 . S
C462 C460 1.419 . S
C462 C463 1.362 . S
C463 H453 0.930 . S
C463 C456 1.409 1_455 S
C463 C462 1.362 . S
H464 C470 0.930 . S
H465 C473 0.930 . S
H466 C474 0.930 . S
H467 C475 0.930 . S
H468 C478 0.930 . S
H469 C479 0.930 . S
C470 H464 0.930 . S
C470 C471 1.355 . S
C470 C472 1.415 . S
C471 C470 1.355 . S
C471 C473 1.419 . S
C472 C470 1.415 . S
C472 C477 1.425 . S
C472 C479 1.409 . S
C473 H465 0.930 . S
C473 C471 1.419 . S
C473 C474 1.362 . S
C474 H466 0.930 . S
C474 C473 1.362 . S
C474 C477 1.409 . S
C475 H467 0.930 . S
C475 C476 1.355 . S
C475 C477 1.415 . S
C476 C475 1.355 . S
C476 C478 1.419 . S
C477 C472 1.425 . S
C477 C474 1.409 . S
C477 C475 1.415 . S
C478 H468 0.930 . S
C478 C476 1.419 . S
C478 C479 1.362 . S
C479 H469 0.930 . S
C479 C472 1.409 . S
C479 C478 1.362 . S
H480 C486 0.930 . S
H481 C489 0.930 . S
H482 C490 0.930 . S
H483 C491 0.930 . S
H484 C494 0.930 . S
H485 C495 0.930 . S
C486 H480 0.930 . S
C486 C487 1.355 . S
C486 C488 1.415 . S
C487 C486 1.355 . S
C487 C489 1.419 . S
C488 C486 1.415 . S
C488 C493 1.425 1_556 S
C488 C495 1.409 1_556 S
C489 H481 0.930 . S
C489 C487 1.419 . S
C489 C490 1.362 . S
C490 H482 0.930 . S
C490 C489 1.362 . S
C490 C493 1.409 1_556 S
C491 H483 0.930 . S
C491 C492 1.355 . S
C491 C493 1.415 . S
C492 C491 1.355 . S
C492 C494 1.419 . S
C493 C488 1.425 1_554 S
C493 C490 1.409 1_554 S
C493 C491 1.415 . S
C494 H484 0.930 . S
C494 C492 1.419 . S
C494 C495 1.362 . S
C495 H485 0.930 . S
C495 C488 1.409 1_554 S
C495 C494 1.362 . S
H496 C502 0.930 . S
H497 C505 0.930 . S
H498 C506 0.930 . S
H499 C507 0.930 . S
H500 C510 0.930 . S
H501 C511 0.930 . S
C502 H496 0.930 . S
C502 C503 1.355 . S
C502 C504 1.415 . S
C503 C502 1.355 . S
C503 C505 1.419 . S
C504 C502 1.415 . S
C504 C509 1.425 . S
C504 C511 1.409 . S
C505 H497 0.930 . S
C505 C503 1.419 . S
C505 C506 1.362 . S
C506 H498 0.930 . S
C506 C505 1.362 . S
C506 C509 1.409 . S
C507 H499 0.930 . S
C507 C508 1.355 . S
C507 C509 1.415 . S
C508 C507 1.355 . S
C508 C510 1.419 . S
C509 C504 1.425 . S
C509 C506 1.409 . S
C509 C507 1.415 . S
C510 H500 0.930 . S
C510 C508 1.419 . S
C510 C511 1.362 . S
C511 H501 0.930 . S
C511 C504 1.409 . S
C511 C510 1.362 . S
H512 C518 0.930 . S
H513 C521 0.930 . S
H514 C522 0.930 . S
H515 C523 0.930 . S
H516 C526 0.930 . S
H517 C527 0.930 . S
C518 H512 0.930 . S
C518 C519 1.355 . S
C518 C520 1.415 . S
C519 C518 1.355 . S
C519 C521 1.419 . S
C520 C518 1.415 . S
C520 C525 1.425 1_554 S
C520 C527 1.409 1_554 S
C521 H513 0.930 . S
C521 C519 1.419 . S
C521 C522 1.362 . S
C522 H514 0.930 . S
C522 C521 1.362 . S
C522 C525 1.409 1_554 S
C523 H515 0.930 . S
C523 C524 1.355 . S
C523 C525 1.415 . S
C524 C523 1.355 . S
C524 C526 1.419 . S
C525 C520 1.425 1_556 S
C525 C522 1.409 1_556 S
C525 C523 1.415 . S
C526 H516 0.930 . S
C526 C524 1.419 . S
C526 C527 1.362 . S
C527 H517 0.930 . S
C527 C520 1.409 1_556 S
C527 C526 1.362 . S
H528 C534 0.930 . S
H529 C537 0.930 . S
H530 C538 0.930 . S
H531 C539 0.930 . S
H532 C542 0.930 . S
H533 C543 0.930 . S
C534 H528 0.930 . S
C534 C535 1.355 . S
C534 C536 1.415 . S
C535 C534 1.355 . S
C535 C537 1.419 . S
C536 C534 1.415 . S
C536 C541 1.425 . S
C536 C543 1.409 . S
C537 H529 0.930 . S
C537 C535 1.419 . S
C537 C538 1.362 . S
C538 H530 0.930 . S
C538 C537 1.362 . S
C538 C541 1.409 . S
C539 H531 0.930 . S
C539 C540 1.355 . S
C539 C541 1.415 . S
C540 C539 1.355 . S
C540 C542 1.419 . S
C541 C536 1.425 . S
C541 C538 1.409 . S
C541 C539 1.415 . S
C542 H532 0.930 . S
C542 C540 1.419 . S
C542 C543 1.362 . S
C543 H533 0.930 . S
C543 C536 1.409 . S
C543 C542 1.362 . S
H544 C550 0.930 . S
H545 C553 0.930 . S
H546 C554 0.930 . S
H547 C555 0.930 . S
H548 C558 0.930 . S
H549 C559 0.930 . S
C550 H544 0.930 . S
C550 C551 1.355 . S
C550 C552 1.415 . S
C551 C550 1.355 . S
C551 C553 1.419 . S
C552 C550 1.415 . S
C552 C557 1.425 1_554 S
C552 C559 1.409 1_554 S
C553 H545 0.930 . S
C553 C551 1.419 . S
C553 C554 1.362 . S
C554 H546 0.930 . S
C554 C553 1.362 . S
C554 C557 1.409 1_554 S
C555 H547 0.930 . S
C555 C556 1.355 . S
C555 C557 1.415 . S
C556 C555 1.355 . S
C556 C558 1.419 . S
C557 C552 1.425 1_556 S
C557 C554 1.409 1_556 S
C557 C555 1.415 . S
C558 H548 0.930 . S
C558 C556 1.419 . S
C558 C559 1.362 . S
C559 H549 0.930 . S
C559 C552 1.409 1_556 S
C559 C558 1.362 . S
H560 C566 0.930 . S
H561 C569 0.930 . S
H562 C570 0.930 . S
H563 C571 0.930 . S
H564 C574 0.930 . S
H565 C575 0.930 . S
C566 H560 0.930 . S
C566 C567 1.355 . S
C566 C568 1.415 . S
C567 C566 1.355 . S
C567 C569 1.419 . S
C568 C566 1.415 . S
C568 C573 1.425 . S
C568 C575 1.409 . S
C569 H561 0.930 . S
C569 C567 1.419 . S
C569 C570 1.362 . S
C570 H562 0.930 . S
C570 C569 1.362 . S
C570 C573 1.409 . S
C571 H563 0.930 . S
C571 C572 1.355 . S
C571 C573 1.415 . S
C572 C571 1.355 . S
C572 C574 1.419 . S
C573 C568 1.425 . S
C573 C570 1.409 . S
C573 C571 1.415 . S
C574 H564 0.930 . S
C574 C572 1.419 . S
C574 C575 1.362 . S
C575 H565 0.930 . S
C575 C568 1.409 . S
C575 C574 1.362 . S
H576 C582 0.930 . S
H577 C585 0.930 . S
H578 C586 0.930 . S
H579 C587 0.930 . S
H580 C590 0.930 . S
H581 C591 0.930 . S
C582 H576 0.930 . S
C582 C583 1.355 . S
C582 C584 1.415 . S
C583 C582 1.355 . S
C583 C585 1.419 . S
C584 C582 1.415 . S
C584 C589 1.425 1_554 S
C584 C591 1.409 1_554 S
C585 H577 0.930 . S
C585 C583 1.419 . S
C585 C586 1.362 . S
C586 H578 0.930 . S
C586 C585 1.362 . S
C586 C589 1.409 1_554 S
C587 H579 0.930 . S
C587 C588 1.355 . S
C587 C589 1.415 . S
C588 C587 1.355 . S
C588 C590 1.419 . S
C589 C584 1.425 1_556 S
C589 C586 1.409 1_556 S
C589 C587 1.415 . S
C590 H580 0.930 . S
C590 C588 1.419 . S
C590 C591 1.362 . S
C591 H581 0.930 . S
C591 C584 1.409 1_556 S
C591 C590 1.362 . S
H592 C598 0.930 . S
H593 C601 0.930 . S
H594 C602 0.930 . S
H595 C603 0.930 . S
H596 C606 0.930 . S
H597 C607 0.930 . S
C598 H592 0.930 . S
C598 C599 1.355 . S
C598 C600 1.415 . S
C599 C598 1.355 . S
C599 C601 1.419 . S
C600 C598 1.415 . S
C600 C605 1.425 . S
C600 C607 1.409 . S
C601 H593 0.930 . S
C601 C599 1.419 . S
C601 C602 1.362 . S
C602 H594 0.930 . S
C602 C601 1.362 . S
C602 C605 1.409 . S
C603 H595 0.930 . S
C603 C604 1.355 . S
C603 C605 1.415 . S
C604 C603 1.355 . S
C604 C606 1.419 . S
C605 C600 1.425 . S
C605 C602 1.409 . S
C605 C603 1.415 . S
C606 H596 0.930 . S
C606 C604 1.419 . S
C606 C607 1.362 . S
C607 H597 0.930 . S
C607 C600 1.409 . S
C607 C606 1.362 . S
H608 C614 0.930 . S
H609 C617 0.930 . S
H610 C618 0.930 . S
H611 C619 0.930 . S
H612 C622 0.930 . S
H613 C623 0.930 . S
C614 H608 0.930 . S
C614 C615 1.355 . S
C614 C616 1.415 . S
C615 C614 1.355 . S
C615 C617 1.419 . S
C616 C614 1.415 . S
C616 C621 1.425 . S
C616 C623 1.409 . S
C617 H609 0.930 . S
C617 C615 1.419 . S
C617 C618 1.362 . S
C618 H610 0.930 . S
C618 C617 1.362 . S
C618 C621 1.409 . S
C619 H611 0.930 . S
C619 C620 1.355 . S
C619 C621 1.415 . S
C620 C619 1.355 . S
C620 C622 1.419 . S
C621 C616 1.425 . S
C621 C618 1.409 . S
C621 C619 1.415 . S
C622 H612 0.930 . S
C622 C620 1.419 . S
C622 C623 1.362 . S
C623 H613 0.930 . S
C623 C616 1.409 . S
C623 C622 1.362 . S
H624 C630 0.930 . S
H625 C633 0.930 . S
H626 C634 0.930 . S
H627 C635 0.930 . S
H628 C638 0.930 . S
H629 C639 0.930 . S
C630 H624 0.930 . S
C630 C631 1.355 . S
C630 C632 1.415 . S
C631 C630 1.355 . S
C631 C633 1.419 . S
C632 C630 1.415 . S
C632 C637 1.425 1_565 S
C632 C639 1.409 1_565 S
C633 H625 0.930 . S
C633 C631 1.419 . S
C633 C634 1.362 . S
C634 H626 0.930 . S
C634 C633 1.362 . S
C634 C637 1.409 1_565 S
C635 H627 0.930 . S
C635 C636 1.355 . S
C635 C637 1.415 . S
C636 C635 1.355 . S
C636 C638 1.419 . S
C637 C632 1.425 1_545 S
C637 C634 1.409 1_545 S
C637 C635 1.415 . S
C638 H628 0.930 . S
C638 C636 1.419 . S
C638 C639 1.362 . S
C639 H629 0.930 . S
C639 C632 1.409 1_545 S
C639 C638 1.362 . S
H640 C646 0.930 . S
H641 C649 0.930 . S
H642 C650 0.930 . S
H643 C651 0.930 . S
H644 C654 0.930 . S
H645 C655 0.930 . S
C646 H640 0.930 . S
C646 C647 1.355 . S
C646 C648 1.415 . S
C647 C646 1.355 . S
C647 C649 1.419 . S
C648 C646 1.415 . S
C648 C653 1.425 . S
C648 C655 1.409 . S
C649 H641 0.930 . S
C649 C647 1.419 . S
C649 C650 1.362 . S
C650 H642 0.930 . S
C650 C649 1.362 . S
C650 C653 1.409 . S
C651 H643 0.930 . S
C651 C652 1.355 . S
C651 C653 1.415 . S
C652 C651 1.355 . S
C652 C654 1.419 . S
C653 C648 1.425 . S
C653 C650 1.409 . S
C653 C651 1.415 . S
C654 H644 0.930 . S
C654 C652 1.419 . S
C654 C655 1.362 . S
C655 H645 0.930 . S
C655 C648 1.409 . S
C655 C654 1.362 . S
H656 C662 0.930 . S
H657 C665 0.930 . S
H658 C666 0.930 . S
H659 C667 0.930 . S
H660 C670 0.930 . S
H661 C671 0.930 . S
C662 H656 0.930 . S
C662 C663 1.355 . S
C662 C664 1.415 . S
C663 C662 1.355 . S
C663 C665 1.419 . S
C664 C662 1.415 . S
C664 C669 1.425 1_565 S
C664 C671 1.409 1_565 S
C665 H657 0.930 . S
C665 C663 1.419 . S
C665 C666 1.362 . S
C666 H658 0.930 . S
C666 C665 1.362 . S
C666 C669 1.409 1_565 S
C667 H659 0.930 . S
C667 C668 1.355 . S
C667 C669 1.415 . S
C668 C667 1.355 . S
C668 C670 1.419 . S
C669 C664 1.425 1_545 S
C669 C666 1.409 1_545 S
C669 C667 1.415 . S
C670 H660 0.930 . S
C670 C668 1.419 . S
C670 C671 1.362 . S
C671 H661 0.930 . S
C671 C664 1.409 1_545 S
C671 C670 1.362 . S
H672 C678 0.930 . S
H673 C681 0.930 . S
H674 C682 0.930 . S
H675 C683 0.930 . S
H676 C686 0.930 . S
H677 C687 0.930 . S
C678 H672 0.930 . S
C678 C679 1.355 . S
C678 C680 1.415 . S
C679 C678 1.355 . S
C679 C681 1.419 . S
C680 C678 1.415 . S
C680 C685 1.425 . S
C680 C687 1.409 . S
C681 H673 0.930 . S
C681 C679 1.419 . S
C681 C682 1.362 . S
C682 H674 0.930 . S
C682 C681 1.362 . S
C682 C685 1.409 . S
C683 H675 0.930 . S
C683 C684 1.355 . S
C683 C685 1.415 . S
C684 C683 1.355 . S
C684 C686 1.419 . S
C685 C680 1.425 . S
C685 C682 1.409 . S
C685 C683 1.415 . S
C686 H676 0.930 . S
C686 C684 1.419 . S
C686 C687 1.362 . S
C687 H677 0.930 . S
C687 C680 1.409 . S
C687 C686 1.362 . S
H688 C694 0.930 . S
H689 C697 0.930 . S
H690 C698 0.930 . S
H691 C699 0.930 . S
H692 C702 0.930 . S
H693 C703 0.930 . S
C694 H688 0.930 . S
C694 C695 1.355 . S
C694 C696 1.415 . S
C695 C694 1.355 . S
C695 C697 1.419 . S
C696 C694 1.415 . S
C696 C701 1.425 1_565 S
C696 C703 1.409 1_565 S
C697 H689 0.930 . S
C697 C695 1.419 . S
C697 C698 1.362 . S
C698 H690 0.930 . S
C698 C697 1.362 . S
C698 C701 1.409 1_565 S
C699 H691 0.930 . S
C699 C700 1.355 . S
C699 C701 1.415 . S
C700 C699 1.355 . S
C700 C702 1.419 . S
C701 C696 1.425 1_545 S
C701 C698 1.409 1_545 S
C701 C699 1.415 . S
C702 H692 0.930 . S
C702 C700 1.419 . S
C702 C703 1.362 . S
C703 H693 0.930 . S
C703 C696 1.409 1_545 S
C703 C702 1.362 . S
H704 C710 0.930 . S
H705 C713 0.930 . S
H706 C714 0.930 . S
H707 C715 0.930 . S
H708 C718 0.930 . S
H709 C719 0.930 . S
C710 H704 0.930 . S
C710 C711 1.355 . S
C710 C712 1.415 . S
C711 C710 1.355 . S
C711 C713 1.419 . S
C712 C710 1.415 . S
C712 C717 1.425 1_545 S
C712 C719 1.409 1_545 S
C713 H705 0.930 . S
C713 C711 1.419 . S
C713 C714 1.362 . S
C714 H706 0.930 . S
C714 C713 1.362 . S
C714 C717 1.409 1_545 S
C715 H707 0.930 . S
C715 C716 1.355 . S
C715 C717 1.415 . S
C716 C715 1.355 . S
C716 C718 1.419 . S
C717 C712 1.425 1_565 S
C717 C714 1.409 1_565 S
C717 C715 1.415 . S
C718 H708 0.930 . S
C718 C716 1.419 . S
C718 C719 1.362 . S
C719 H709 0.930 . S
C719 C712 1.409 1_565 S
C719 C718 1.362 . S
H720 C726 0.930 . S
H721 C729 0.930 . S
H722 C730 0.930 . S
H723 C731 0.930 . S
H724 C734 0.930 . S
H725 C735 0.930 . S
C726 H720 0.930 . S
C726 C727 1.355 . S
C726 C728 1.415 . S
C727 C726 1.355 . S
C727 C729 1.419 . S
C728 C726 1.415 . S
C728 C733 1.425 . S
C728 C735 1.409 . S
C729 H721 0.930 . S
C729 C727 1.419 . S
C729 C730 1.362 . S
C730 H722 0.930 . S
C730 C729 1.362 . S
C730 C733 1.409 . S
C731 H723 0.930 . S
C731 C732 1.355 . S
C731 C733 1.415 . S
C732 C731 1.355 . S
C732 C734 1.419 . S
C733 C728 1.425 . S
C733 C730 1.409 . S
C733 C731 1.415 . S
C734 H724 0.930 . S
C734 C732 1.419 . S
C734 C735 1.362 . S
C735 H725 0.930 . S
C735 C728 1.409 . S
C735 C734 1.362 . S
H736 C742 0.930 . S
H737 C745 0.930 . S
H738 C746 0.930 . S
H739 C747 0.930 . S
H740 C750 0.930 . S
H741 C751 0.930 . S
C742 H736 0.930 . S
C742 C743 1.355 . S
C742 C744 1.415 . S
C743 C742 1.355 . S
C743 C745 1.419 . S
C744 C742 1.415 . S
C744 C749 1.425 . S
C744 C751 1.409 . S
C745 H737 0.930 . S
C745 C743 1.419 . S
C745 C746 1.362 . S
C746 H738 0.930 . S
C746 C745 1.362 . S
C746 C749 1.409 . S
C747 H739 0.930 . S
C747 C748 1.355 . S
C747 C749 1.415 . S
C748 C747 1.355 . S
C748 C750 1.419 . S
C749 C744 1.425 . S
C749 C746 1.409 . S
C749 C747 1.415 . S
C750 H740 0.930 . S
C750 C748 1.419 . S
C750 C751 1.362 . S
C751 H741 0.930 . S
C751 C744 1.409 . S
C751 C750 1.362 . S
H752 C758 0.930 . S
H753 C761 0.930 . S
H754 C762 0.930 . S
H755 C763 0.930 . S
H756 C766 0.930 . S
H757 C767 0.930 . S
C758 H752 0.930 . S
C758 C759 1.355 . S
C758 C760 1.415 . S
C759 C758 1.355 . S
C759 C761 1.419 . S
C760 C758 1.415 . S
C760 C765 1.425 . S
C760 C767 1.409 . S
C761 H753 0.930 . S
C761 C759 1.419 . S
C761 C762 1.362 . S
C762 H754 0.930 . S
C762 C761 1.362 . S
C762 C765 1.409 . S
C763 H755 0.930 . S
C763 C764 1.355 . S
C763 C765 1.415 . S
C764 C763 1.355 . S
C764 C766 1.419 . S
C765 C760 1.425 . S
C765 C762 1.409 . S
C765 C763 1.415 . S
C766 H756 0.930 . S
C766 C764 1.419 . S
C766 C767 1.362 . S
C767 H757 0.930 . S
C767 C760 1.409 . S
C767 C766 1.362 . S
H768 C774 0.930 . S
H769 C777 0.930 . S
H770 C778 0.930 . S
H771 C779 0.930 . S
H772 C782 0.930 . S
H773 C783 0.930 . S
C774 H768 0.930 . S
C774 C775 1.355 . S
C774 C776 1.415 . S
C775 C774 1.355 . S
C775 C777 1.419 . S
C776 C774 1.415 . S
C776 C781 1.425 . S
C776 C783 1.409 . S
C777 H769 0.930 . S
C777 C775 1.419 . S
C777 C778 1.362 . S
C778 H770 0.930 . S
C778 C777 1.362 . S
C778 C781 1.409 . S
C779 H771 0.930 . S
C779 C780 1.355 . S
C779 C781 1.415 . S
C780 C779 1.355 . S
C780 C782 1.419 . S
C781 C776 1.425 . S
C781 C778 1.409 . S
C781 C779 1.415 . S
C782 H772 0.930 . S
C782 C780 1.419 . S
C782 C783 1.362 . S
C783 H773 0.930 . S
C783 C776 1.409 . S
C783 C782 1.362 . S
H784 C790 0.930 . S
H785 C793 0.930 . S
H786 C794 0.930 . S
H787 C795 0.930 . S
H788 C798 0.930 . S
H789 C799 0.930 . S
C790 H784 0.930 . S
C790 C791 1.355 . S
C790 C792 1.415 . S
C791 C790 1.355 . S
C791 C793 1.419 . S
C792 C790 1.415 . S
C792 C797 1.425 . S
C792 C799 1.409 . S
C793 H785 0.930 . S
C793 C791 1.419 . S
C793 C794 1.362 . S
C794 H786 0.930 . S
C794 C793 1.362 . S
C794 C797 1.409 . S
C795 H787 0.930 . S
C795 C796 1.355 . S
C795 C797 1.415 . S
C796 C795 1.355 . S
C796 C798 1.419 . S
C797 C792 1.425 . S
C797 C794 1.409 . S
C797 C795 1.415 . S
C798 H788 0.930 . S
C798 C796 1.419 . S
C798 C799 1.362 . S
C799 H789 0.930 . S
C799 C792 1.409 . S
C799 C798 1.362 . S
H800 C806 0.930 . S
H801 C809 0.930 . S
H802 C810 0.930 . S
H803 C811 0.930 . S
H804 C814 0.930 . S
H805 C815 0.930 . S
C806 H800 0.930 . S
C806 C807 1.355 . S
C806 C808 1.415 . S
C807 C806 1.355 . S
C807 C809 1.419 . S
C808 C806 1.415 . S
C808 C813 1.425 . S
C808 C815 1.409 . S
C809 H801 0.930 . S
C809 C807 1.419 . S
C809 C810 1.362 . S
C810 H802 0.930 . S
C810 C809 1.362 . S
C810 C813 1.409 . S
C811 H803 0.930 . S
C811 C812 1.355 . S
C811 C813 1.415 . S
C812 C811 1.355 . S
C812 C814 1.419 . S
C813 C808 1.425 . S
C813 C810 1.409 . S
C813 C811 1.415 . S
C814 H804 0.930 . S
C814 C812 1.419 . S
C814 C815 1.362 . S
C815 H805 0.930 . S
C815 C808 1.409 . S
C815 C814 1.362 . S
H816 C822 0.930 . S
H817 C825 0.930 . S
H818 C826 0.930 . S
H819 C827 0.930 . S
H820 C830 0.930 . S
H821 C831 0.930 . S
C822 H816 0.930 . S
C822 C823 1.355 . S
C822 C824 1.415 . S
C823 C822 1.355 . S
C823 C825 1.419 . S
C824 C822 1.415 . S
C824 C829 1.425 . S
C824 C831 1.409 . S
C825 H817 0.930 . S
C825 C823 1.419 . S
C825 C826 1.362 . S
C826 H818 0.930 . S
C826 C825 1.362 . S
C826 C829 1.409 . S
C827 H819 0.930 . S
C827 C828 1.355 . S
C827 C829 1.415 . S
C828 C827 1.355 . S
C828 C830 1.419 . S
C829 C824 1.425 . S
C829 C826 1.409 . S
C829 C827 1.415 . S
C830 H820 0.930 . S
C830 C828 1.419 . S
C830 C831 1.362 . S
C831 H821 0.930 . S
C831 C824 1.409 . S
C831 C830 1.362 . S
H832 C838 0.930 . S
H833 C841 0.930 . S
H834 C842 0.930 . S
H835 C843 0.930 . S
H836 C846 0.930 . S
H837 C847 0.930 . S
C838 H832 0.930 . S
C838 C839 1.355 . S
C838 C840 1.415 . S
C839 C838 1.355 . S
C839 C841 1.419 . S
C840 C838 1.415 . S
C840 C845 1.425 . S
C840 C847 1.409 . S
C841 H833 0.930 . S
C841 C839 1.419 . S
C841 C842 1.362 . S
C842 H834 0.930 . S
C842 C841 1.362 . S
C842 C845 1.409 . S
C843 H835 0.930 . S
C843 C844 1.355 . S
C843 C845 1.415 . S
C844 C843 1.355 . S
C844 C846 1.419 . S
C845 C840 1.425 . S
C845 C842 1.409 . S
C845 C843 1.415 . S
C846 H836 0.930 . S
C846 C844 1.419 . S
C846 C847 1.362 . S
C847 H837 0.930 . S
C847 C840 1.409 . S
C847 C846 1.362 . S
H848 C854 0.930 . S
H849 C857 0.930 . S
H850 C858 0.930 . S
H851 C859 0.930 . S
H852 C862 0.930 . S
H853 C863 0.930 . S
C854 H848 0.930 . S
C854 C855 1.355 . S
C854 C856 1.415 . S
C855 C854 1.355 . S
C855 C857 1.419 . S
C856 C854 1.415 . S
C856 C861 1.425 . S
C856 C863 1.409 . S
C857 H849 0.930 . S
C857 C855 1.419 . S
C857 C858 1.362 . S
C858 H850 0.930 . S
C858 C857 1.362 . S
C858 C861 1.409 . S
C859 H851 0.930 . S
C859 C860 1.355 . S
C859 C861 1.415 . S
C860 C859 1.355 . S
C860 C862 1.419 . S
C861 C856 1.425 . S
C861 C858 1.409 . S
C861 C859 1.415 . S
C862 H852 0.930 . S
C862 C860 1.419 . S
C862 C863 1.362 . S
C863 H853 0.930 . S
C863 C856 1.409 . S
C863 C862 1.362 . S
H864 C870 0.930 . S
H865 C873 0.930 . S
H866 C874 0.930 . S
H867 C875 0.930 . S
H868 C878 0.930 . S
H869 C879 0.930 . S
C870 H864 0.930 . S
C870 C871 1.355 . S
C870 C872 1.415 . S
C871 C870 1.355 . S
C871 C873 1.419 . S
C872 C870 1.415 . S
C872 C877 1.425 . S
C872 C879 1.409 . S
C873 H865 0.930 . S
C873 C871 1.419 . S
C873 C874 1.362 . S
C874 H866 0.930 . S
C874 C873 1.362 . S
C874 C877 1.409 . S
C875 H867 0.930 . S
C875 C876 1.355 . S
C875 C877 1.415 . S
C876 C875 1.355 . S
C876 C878 1.419 . S
C877 C872 1.425 . S
C877 C874 1.409 . S
C877 C875 1.415 . S
C878 H868 0.930 . S
C878 C876 1.419 . S
C878 C879 1.362 . S
C879 H869 0.930 . S
C879 C872 1.409 . S
C879 C878 1.362 . S
H880 C886 0.930 . S
H881 C889 0.930 . S
H882 C890 0.930 . S
H883 C891 0.930 . S
H884 C894 0.930 . S
H885 C895 0.930 . S
C886 H880 0.930 . S
C886 C887 1.355 . S
C886 C888 1.415 . S
C887 C886 1.355 . S
C887 C889 1.419 . S
C888 C886 1.415 . S
C888 C893 1.425 . S
C888 C895 1.409 . S
C889 H881 0.930 . S
C889 C887 1.419 . S
C889 C890 1.362 . S
C890 H882 0.930 . S
C890 C889 1.362 . S
C890 C893 1.409 . S
C891 H883 0.930 . S
C891 C892 1.355 . S
C891 C893 1.415 . S
C892 C891 1.355 . S
C892 C894 1.419 . S
C893 C888 1.425 . S
C893 C890 1.409 . S
C893 C891 1.415 . S
C894 H884 0.930 . S
C894 C892 1.419 . S
C894 C895 1.362 . S
C895 H885 0.930 . S
C895 C888 1.409 . S
C895 C894 1.362 . S
H896 C902 0.930 . S
H897 C905 0.930 . S
H898 C906 0.930 . S
H899 C907 0.930 . S
H900 C910 0.930 . S
H901 C911 0.930 . S
C902 H896 0.930 . S
C902 C903 1.355 . S
C902 C904 1.415 . S
C903 C902 1.355 . S
C903 C905 1.419 . S
C904 C902 1.415 . S
C904 C909 1.425 . S
C904 C911 1.409 . S
C905 H897 0.930 . S
C905 C903 1.419 . S
C905 C906 1.362 . S
C906 H898 0.930 . S
C906 C905 1.362 . S
C906 C909 1.409 . S
C907 H899 0.930 . S
C907 C908 1.355 . S
C907 C909 1.415 . S
C908 C907 1.355 . S
C908 C910 1.419 . S
C909 C904 1.425 . S
C909 C906 1.409 . S
C909 C907 1.415 . S
C910 H900 0.930 . S
C910 C908 1.419 . S
C910 C911 1.362 . S
C911 H901 0.930 . S
C911 C904 1.409 . S
C911 C910 1.362 . S
H912 C918 0.930 . S
H913 C921 0.930 . S
H914 C922 0.930 . S
H915 C923 0.930 . S
H916 C926 0.930 . S
H917 C927 0.930 . S
C918 H912 0.930 . S
C918 C919 1.355 . S
C918 C920 1.415 . S
C919 C918 1.355 . S
C919 C921 1.419 . S
C920 C918 1.415 . S
C920 C925 1.425 . S
C920 C927 1.409 . S
C921 H913 0.930 . S
C921 C919 1.419 . S
C921 C922 1.362 . S
C922 H914 0.930 . S
C922 C921 1.362 . S
C922 C925 1.409 . S
C923 H915 0.930 . S
C923 C924 1.355 . S
C923 C925 1.415 . S
C924 C923 1.355 . S
C924 C926 1.419 . S
C925 C920 1.425 . S
C925 C922 1.409 . S
C925 C923 1.415 . S
C926 H916 0.930 . S
C926 C924 1.419 . S
C926 C927 1.362 . S
C927 H917 0.930 . S
C927 C920 1.409 . S
C927 C926 1.362 . S
H928 C934 0.930 . S
H929 C937 0.930 . S
H930 C938 0.930 . S
H931 C939 0.930 . S
H932 C942 0.930 . S
H933 C943 0.930 . S
C934 H928 0.930 . S
C934 C935 1.355 . S
C934 C936 1.415 . S
C935 C934 1.355 . S
C935 C937 1.419 . S
C936 C934 1.415 . S
C936 C941 1.425 . S
C936 C943 1.409 . S
C937 H929 0.930 . S
C937 C935 1.419 . S
C937 C938 1.362 . S
C938 H930 0.930 . S
C938 C937 1.362 . S
C938 C941 1.409 . S
C939 H931 0.930 . S
C939 C940 1.355 . S
C939 C941 1.415 . S
C940 C939 1.355 . S
C940 C942 1.419 . S
C941 C936 1.425 . S
C941 C938 1.409 . S
C941 C939 1.415 . S
C942 H932 0.930 . S
C942 C940 1.419 . S
C942 C943 1.362 . S
C943 H933 0.930 . S
C943 C936 1.409 . S
C943 C942 1.362 . S
H944 C950 0.930 . S
H945 C953 0.930 . S
H946 C954 0.930 . S
H947 C955 0.930 . S
H948 C958 0.930 . S
H949 C959 0.930 . S
C950 H944 0.930 . S
C950 C951 1.355 . S
C950 C952 1.415 . S
C951 C950 1.355 . S
C951 C953 1.419 . S
C952 C950 1.415 . S
C952 C957 1.425 . S
C952 C959 1.409 . S
C953 H945 0.930 . S
C953 C951 1.419 . S
C953 C954 1.362 . S
C954 H946 0.930 . S
C954 C953 1.362 . S
C954 C957 1.409 . S
C955 H947 0.930 . S
C955 C956 1.355 . S
C955 C957 1.415 . S
C956 C955 1.355 . S
C956 C958 1.419 . S
C957 C952 1.425 . S
C957 C954 1.409 . S
C957 C955 1.415 . S
C958 H948 0.930 . S
C958 C956 1.419 . S
C958 C959 1.362 . S
C959 H949 0.930 . S
C959 C952 1.409 . S
C959 C958 1.362 . S
H960 C966 0.930 . S
H961 C969 0.930 . S
H962 C970 0.930 . S
H963 C971 0.930 . S
H964 C974 0.930 . S
H965 C975 0.930 . S
C966 H960 0.930 . S
C966 C967 1.355 . S
C966 C968 1.415 . S
C967 C966 1.355 . S
C967 C969 1.419 . S
C968 C966 1.415 . S
C968 C973 1.425 . S
C968 C975 1.409 . S
C969 H961 0.930 . S
C969 C967 1.419 . S
C969 C970 1.362 . S
C970 H962 0.930 . S
C970 C969 1.362 . S
C970 C973 1.409 . S
C971 H963 0.930 . S
C971 C972 1.355 . S
C971 C973 1.415 . S
C972 C971 1.355 . S
C972 C974 1.419 . S
C973 C968 1.425 . S
C973 C970 1.409 . S
C973 C971 1.415 . S
C974 H964 0.930 . S
C974 C972 1.419 . S
C974 C975 1.362 . S
C975 H965 0.930 . S
C975 C968 1.409 . S
C975 C974 1.362 . S
H976 C982 0.930 . S
H977 C985 0.930 . S
H978 C986 0.930 . S
H979 C987 0.930 . S
H980 C990 0.930 . S
H981 C991 0.930 . S
C982 H976 0.930 . S
C982 C983 1.355 . S
C982 C984 1.415 . S
C983 C982 1.355 . S
C983 C985 1.419 . S
C984 C982 1.415 . S
C984 C989 1.425 . S
C984 C991 1.409 . S
C985 H977 0.930 . S
C985 C983 1.419 . S
C985 C986 1.362 . S
C986 H978 0.930 . S
C986 C985 1.362 . S
C986 C989 1.409 . S
C987 H979 0.930 . S
C987 C988 1.355 . S
C987 C989 1.415 . S
C988 C987 1.355 . S
C988 C990 1.419 . S
C989 C984 1.425 . S
C989 C986 1.409 . S
C989 C987 1.415 . S
C990 H980 0.930 . S
C990 C988 1.419 . S
C990 C991 1.362 . S
C991 H981 0.930 . S
C991 C984 1.409 . S
C991 C990 1.362 . S
H992 C998 0.930 . S
H993 C1001 0.930 . S
H994 C1002 0.930 . S
H995 C1003 0.930 . S
H996 C1006 0.930 . S
H997 C1007 0.930 . S
C998 H992 0.930 . S
C998 C999 1.355 . S
C998 C1000 1.415 . S
C999 C998 1.355 . S
C999 C1001 1.419 . S
C1000 C998 1.415 . S
C1000 C1005 1.425 . S
C1000 C1007 1.409 . S
C1001 H993 0.930 . S
C1001 C999 1.419 . S
C1001 C1002 1.362 . S
C1002 H994 0.930 . S
C1002 C1001 1.362 . S
C1002 C1005 1.409 . S
C1003 H995 0.930 . S
C1003 C1004 1.355 . S
C1003 C1005 1.415 . S
C1004 C1003 1.355 . S
C1004 C1006 1.419 . S
C1005 C1000 1.425 . S
C1005 C1002 1.409 . S
C1005 C1003 1.415 . S
C1006 H996 0.930 . S
C1006 C1004 1.419 . S
C1006 C1007 1.362 . S
C1007 H997 0.930 . S
C1007 C1000 1.409 . S
C1007 C1006 1.362 . S
H1008 C1014 0.930 . S
H1009 C1017 0.930 . S
H1010 C1018 0.930 . S
H1011 C1019 0.930 . S
H1012 C1022 0.930 . S
H1013 C1023 0.930 . S
C1014 H1008 0.930 . S
C1014 C1015 1.355 . S
C1014 C1016 1.415 . S
C1015 C1014 1.355 . S
C1015 C1017 1.419 . S
C1016 C1014 1.415 . S
C1016 C1021 1.425 . S
C1016 C1023 1.409 . S
C1017 H1009 0.930 . S
C1017 C1015 1.419 . S
C1017 C1018 1.362 . S
C1018 H1010 0.930 . S
C1018 C1017 1.362 . S
C1018 C1021 1.409 . S
C1019 H1011 0.930 . S
C1019 C1020 1.355 . S
C1019 C1021 1.415 . S
C1020 C1019 1.355 . S
C1020 C1022 1.419 . S
C1021 C1016 1.425 . S
C1021 C1018 1.409 . S
C1021 C1019 1.415 . S
C1022 H1012 0.930 . S
C1022 C1020 1.419 . S
C1022 C1023 1.362 . S
C1023 H1013 0.930 . S
C1023 C1016 1.409 . S
C1023 C1022 1.362 . S
H1024 C1030 0.930 . S
H1025 C1033 0.930 . S
H1026 C1034 0.930 . S
H1027 C1035 0.930 . S
H1028 C1038 0.930 . S
H1029 C1039 0.930 . S
C1030 H1024 0.930 . S
C1030 C1031 1.355 . S
C1030 C1032 1.415 . S
C1031 C1030 1.355 . S
C1031 C1033 1.419 . S
C1032 C1030 1.415 . S
C1032 C1037 1.425 . S
C1032 C1039 1.409 . S
C1033 H1025 0.930 . S
C1033 C1031 1.419 . S
C1033 C1034 1.362 . S
C1034 H1026 0.930 . S
C1034 C1033 1.362 . S
C1034 C1037 1.409 . S
C1035 H1027 0.930 . S
C1035 C1036 1.355 . S
C1035 C1037 1.415 . S
C1036 C1035 1.355 . S
C1036 C1038 1.419 . S
C1037 C1032 1.425 . S
C1037 C1034 1.409 . S
C1037 C1035 1.415 . S
C1038 H1028 0.930 . S
C1038 C1036 1.419 . S
C1038 C1039 1.362 . S
C1039 H1029 0.930 . S
C1039 C1032 1.409 . S
C1039 C1038 1.362 . S
H1040 C1046 0.930 . S
H1041 C1049 0.930 . S
H1042 C1050 0.930 . S
H1043 C1051 0.930 . S
H1044 C1054 0.930 . S
H1045 C1055 0.930 . S
C1046 H1040 0.930 . S
C1046 C1047 1.355 . S
C1046 C1048 1.415 . S
C1047 C1046 1.355 . S
C1047 C1049 1.419 . S
C1048 C1046 1.415 . S
C1048 C1053 1.425 . S
C1048 C1055 1.409 . S
C1049 H1041 0.930 . S
C1049 C1047 1.419 . S
C1049 C1050 1.362 . S
C1050 H1042 0.930 . S
C1050 C1049 1.362 . S
C1050 C1053 1.409 . S
C1051 H1043 0.930 . S
C1051 C1052 1.355 . S
C1051 C1053 1.415 . S
C1052 C1051 1.355 . S
C1052 C1054 1.419 . S
C1053 C1048 1.425 . S
C1053 C1050 1.409 . S
C1053 C1051 1.415 . S
C1054 H1044 0.930 . S
C1054 C1052 1.419 . S
C1054 C1055 1.362 . S
C1055 H1045 0.930 . S
C1055 C1048 1.409 . S
C1055 C1054 1.362 . S
H1056 C1062 0.930 . S
H1057 C1065 0.930 . S
H1058 C1066 0.930 . S
H1059 C1067 0.930 . S
H1060 C1070 0.930 . S
H1061 C1071 0.930 . S
C1062 H1056 0.930 . S
C1062 C1063 1.355 . S
C1062 C1064 1.415 . S
C1063 C1062 1.355 . S
C1063 C1065 1.419 . S
C1064 C1062 1.415 . S
C1064 C1069 1.425 . S
C1064 C1071 1.409 . S
C1065 H1057 0.930 . S
C1065 C1063 1.419 . S
C1065 C1066 1.362 . S
C1066 H1058 0.930 . S
C1066 C1065 1.362 . S
C1066 C1069 1.409 . S
C1067 H1059 0.930 . S
C1067 C1068 1.355 . S
C1067 C1069 1.415 . S
C1068 C1067 1.355 . S
C1068 C1070 1.419 . S
C1069 C1064 1.425 . S
C1069 C1066 1.409 . S
C1069 C1067 1.415 . S
C1070 H1060 0.930 . S
C1070 C1068 1.419 . S
C1070 C1071 1.362 . S
C1071 H1061 0.930 . S
C1071 C1064 1.409 . S
C1071 C1070 1.362 . S
H1072 C1078 0.930 . S
H1073 C1081 0.930 . S
H1074 C1082 0.930 . S
H1075 C1083 0.930 . S
H1076 C1086 0.930 . S
H1077 C1087 0.930 . S
C1078 H1072 0.930 . S
C1078 C1079 1.355 . S
C1078 C1080 1.415 . S
C1079 C1078 1.355 . S
C1079 C1081 1.419 . S
C1080 C1078 1.415 . S
C1080 C1085 1.425 . S
C1080 C1087 1.409 . S
C1081 H1073 0.930 . S
C1081 C1079 1.419 . S
C1081 C1082 1.362 . S
C1082 H1074 0.930 . S
C1082 C1081 1.362 . S
C1082 C1085 1.409 . S
C1083 H1075 0.930 . S
C1083 C1084 1.355 . S
C1083 C1085 1.415 . S
C1084 C1083 1.355 . S
C1084 C1086 1.419 . S
C1085 C1080 1.425 . S
C1085 C1082 1.409 . S
C1085 C1083 1.415 . S
C1086 H1076 0.930 . S
C1086 C1084 1.419 . S
C1086 C1087 1.362 . S
C1087 H1077 0.930 . S
C1087 C1080 1.409 . S
C1087 C1086 1.362 . S
H1088 C1094 0.930 . S
H1089 C1097 0.930 . S
H1090 C1098 0.930 . S
H1091 C1099 0.930 . S
H1092 C1102 0.930 . S
H1093 C1103 0.930 . S
C1094 H1088 0.930 . S
C1094 C1095 1.355 . S
C1094 C1096 1.415 . S
C1095 C1094 1.355 . S
C1095 C1097 1.419 . S
C1096 C1094 1.415 . S
C1096 C1101 1.425 . S
C1096 C1103 1.409 . S
C1097 H1089 0.930 . S
C1097 C1095 1.419 . S
C1097 C1098 1.362 . S
C1098 H1090 0.930 . S
C1098 C1097 1.362 . S
C1098 C1101 1.409 . S
C1099 H1091 0.930 . S
C1099 C1100 1.355 . S
C1099 C1101 1.415 . S
C1100 C1099 1.355 . S
C1100 C1102 1.419 . S
C1101 C1096 1.425 . S
C1101 C1098 1.409 . S
C1101 C1099 1.415 . S
C1102 H1092 0.930 . S
C1102 C1100 1.419 . S
C1102 C1103 1.362 . S
C1103 H1093 0.930 . S
C1103 C1096 1.409 . S
C1103 C1102 1.362 . S
C343 C216 1.399 . S
C348 C7 1.426 . S
C359 C174 1.428 . S
C364 C20 1.396 . S
C375 C189 1.424 . S
C380 C34 1.400 . S
C391 C203 1.407 . S
C396 C49 1.418 . S
C407 C202 1.428 . S
C412 C21 1.397 . S
C423 C35 1.403 . S
C428 C217 1.422 . S
C439 C175 1.425 . S
C444 C48 1.400 . S
C455 C188 1.399 . S
C460 C6 1.426 . S
C471 C258 1.394 . S
C476 C62 1.430 . S
C487 C77 1.430 . S
C492 C273 1.394 . S
C503 C90 1.418 . S
C508 C230 1.407 . S
C519 C245 1.402 . S
C524 C105 1.423 . S
C535 C315 1.428 . S
C540 C119 1.397 . S
C551 C132 1.403 . S
C556 C328 1.422 . S
C567 C147 1.427 . S
C572 C287 1.398 . S
C583 C160 1.422 . S
C588 C300 1.403 . S
C599 C244 1.421 . S
C604 C161 1.404 . S
C615 C329 1.426 . S
C620 C76 1.399 . S
C631 C91 1.399 . S
C636 C286 1.426 . S
C647 C301 1.404 . S
C652 C104 1.421 . S
C663 C314 1.408 . S
C668 C63 1.417 . S
C679 C133 1.399 . S
C684 C272 1.426 . S
C695 C231 1.421 . S
C700 C146 1.403 . S
C711 C259 1.428 . S
C716 C118 1.396 . S
C727 C8 1.023 . S
C732 C64 1.029 . S
C743 C79 1.031 . S
C748 C23 1.009 . S
C759 C37 1.008 . S
C764 C92 1.031 . S
C775 C50 0.999 . S
C780 C107 0.959 . S
C791 C121 1.028 . S
C796 C22 1.025 . S
C807 C134 1.010 . S
C812 C36 1.032 . S
C823 C149 0.949 . S
C828 C51 0.981 . S
C839 C9 1.006 . S
C844 C162 1.031 . S
C855 C163 1.032 . S
C860 C65 1.012 . S
C871 C78 0.961 . S
C876 C120 0.947 . S
C887 C93 0.990 . S
C892 C135 0.953 . S
C903 C148 0.947 . S
C908 C106 0.975 . S
C919 C232 0.947 . S
C924 C176 0.962 . S
C935 C247 0.981 . S
C940 C191 0.949 . S
C951 C205 0.981 . S
C956 C260 1.020 . S
C967 C218 1.002 . S
C972 C275 0.961 . S
C983 C190 1.015 . S
C988 C289 1.031 . S
C999 C204 1.031 . S
C1004 C302 1.018 . S
C1015 C317 0.946 . S
C1020 C219 0.965 . S
C1031 C177 0.972 . S
C1036 C330 0.947 . S
C1047 C233 0.988 . S
C1052 C331 0.952 . S
C1063 C288 0.970 . S
C1068 C246 1.011 . S
C1079 C261 1.030 . S
C1084 C303 1.020 . S
C1095 C316 1.031 . S
C1100 C274 1.020 . S
