# Generated by pormake.
# Topology xfb, (7)-cn, num edge types: 1
# Building blocks:
#     Node 0, Type 0, BuildingBlock: HICVOG_clean_sbu_0, # of connection points: 7
#     Node 1, Type 0, BuildingBlock: HICVOG_clean_sbu_0, # of connection points: 7
#     Node 2, Type 0, BuildingBlock: HICVOG_clean_sbu_0, # of connection points: 7
#     Node 3, Type 0, BuildingBlock: HICVOG_clean_sbu_0, # of connection points: 7
#     Node 4, Type 0, BuildingBlock: HICVOG_clean_sbu_0, # of connection points: 7
#     Node 5, Type 0, BuildingBlock: HICVOG_clean_sbu_0, # of connection points: 7
#     Node 6, Type 0, BuildingBlock: HICVOG_clean_sbu_0, # of connection points: 7
#     Node 7, Type 0, BuildingBlock: HICVOG_clean_sbu_0, # of connection points: 7
#     Node 8, Type 0, BuildingBlock: HICVOG_clean_sbu_0, # of connection points: 7
#     Node 9, Type 0, BuildingBlock: HICVOG_clean_sbu_0, # of connection points: 7
#     Node 10, Type 0, BuildingBlock: HICVOG_clean_sbu_0, # of connection points: 7
#     Node 11, Type 0, BuildingBlock: HICVOG_clean_sbu_0, # of connection points: 7
#     Node 12, Type 0, BuildingBlock: HICVOG_clean_sbu_0, # of connection points: 7
#     Node 13, Type 0, BuildingBlock: HICVOG_clean_sbu_0, # of connection points: 7
#     Node 14, Type 0, BuildingBlock: HICVOG_clean_sbu_0, # of connection points: 7
#     Node 15, Type 0, BuildingBlock: HICVOG_clean_sbu_0, # of connection points: 7
#     Edge 16, Type (0, 0), BuildingBlock: OJICUG_clean_linker_0, # of connection points: 2
#     Edge 17, Type (0, 0), BuildingBlock: OJICUG_clean_linker_0, # of connection points: 2
#     Edge 18, Type (0, 0), BuildingBlock: OJICUG_clean_linker_0, # of connection points: 2
#     Edge 19, Type (0, 0), BuildingBlock: OJICUG_clean_linker_0, # of connection points: 2
#     Edge 20, Type (0, 0), BuildingBlock: OJICUG_clean_linker_0, # of connection points: 2
#     Edge 21, Type (0, 0), BuildingBlock: OJICUG_clean_linker_0, # of connection points: 2
#     Edge 22, Type (0, 0), BuildingBlock: OJICUG_clean_linker_0, # of connection points: 2
#     Edge 23, Type (0, 0), BuildingBlock: OJICUG_clean_linker_0, # of connection points: 2
#     Edge 24, Type (0, 0), BuildingBlock: OJICUG_clean_linker_0, # of connection points: 2
#     Edge 25, Type (0, 0), BuildingBlock: OJICUG_clean_linker_0, # of connection points: 2
#     Edge 26, Type (0, 0), BuildingBlock: OJICUG_clean_linker_0, # of connection points: 2
#     Edge 27, Type (0, 0), BuildingBlock: OJICUG_clean_linker_0, # of connection points: 2
#     Edge 28, Type (0, 0), BuildingBlock: OJICUG_clean_linker_0, # of connection points: 2
#     Edge 29, Type (0, 0), BuildingBlock: OJICUG_clean_linker_0, # of connection points: 2
#     Edge 30, Type (0, 0), BuildingBlock: OJICUG_clean_linker_0, # of connection points: 2
#     Edge 31, Type (0, 0), BuildingBlock: OJICUG_clean_linker_0, # of connection points: 2
#     Edge 32, Type (0, 0), BuildingBlock: OJICUG_clean_linker_0, # of connection points: 2
#     Edge 33, Type (0, 0), BuildingBlock: OJICUG_clean_linker_0, # of connection points: 2
#     Edge 34, Type (0, 0), BuildingBlock: OJICUG_clean_linker_0, # of connection points: 2
#     Edge 35, Type (0, 0), BuildingBlock: OJICUG_clean_linker_0, # of connection points: 2
#     Edge 36, Type (0, 0), BuildingBlock: OJICUG_clean_linker_0, # of connection points: 2
#     Edge 37, Type (0, 0), BuildingBlock: OJICUG_clean_linker_0, # of connection points: 2
#     Edge 38, Type (0, 0), BuildingBlock: OJICUG_clean_linker_0, # of connection points: 2
#     Edge 39, Type (0, 0), BuildingBlock: OJICUG_clean_linker_0, # of connection points: 2
#     Edge 40, Type (0, 0), BuildingBlock: OJICUG_clean_linker_0, # of connection points: 2
#     Edge 41, Type (0, 0), BuildingBlock: OJICUG_clean_linker_0, # of connection points: 2
#     Edge 42, Type (0, 0), BuildingBlock: OJICUG_clean_linker_0, # of connection points: 2
#     Edge 43, Type (0, 0), BuildingBlock: OJICUG_clean_linker_0, # of connection points: 2
#     Edge 44, Type (0, 0), BuildingBlock: OJICUG_clean_linker_0, # of connection points: 2
#     Edge 45, Type (0, 0), BuildingBlock: OJICUG_clean_linker_0, # of connection points: 2
#     Edge 46, Type (0, 0), BuildingBlock: OJICUG_clean_linker_0, # of connection points: 2
#     Edge 47, Type (0, 0), BuildingBlock: OJICUG_clean_linker_0, # of connection points: 2
#     Edge 48, Type (0, 0), BuildingBlock: OJICUG_clean_linker_0, # of connection points: 2
#     Edge 49, Type (0, 0), BuildingBlock: OJICUG_clean_linker_0, # of connection points: 2
#     Edge 50, Type (0, 0), BuildingBlock: OJICUG_clean_linker_0, # of connection points: 2
#     Edge 51, Type (0, 0), BuildingBlock: OJICUG_clean_linker_0, # of connection points: 2
#     Edge 52, Type (0, 0), BuildingBlock: OJICUG_clean_linker_0, # of connection points: 2
#     Edge 53, Type (0, 0), BuildingBlock: OJICUG_clean_linker_0, # of connection points: 2
#     Edge 54, Type (0, 0), BuildingBlock: OJICUG_clean_linker_0, # of connection points: 2
#     Edge 55, Type (0, 0), BuildingBlock: OJICUG_clean_linker_0, # of connection points: 2
#     Edge 56, Type (0, 0), BuildingBlock: OJICUG_clean_linker_0, # of connection points: 2
#     Edge 57, Type (0, 0), BuildingBlock: OJICUG_clean_linker_0, # of connection points: 2
#     Edge 58, Type (0, 0), BuildingBlock: OJICUG_clean_linker_0, # of connection points: 2
#     Edge 59, Type (0, 0), BuildingBlock: OJICUG_clean_linker_0, # of connection points: 2
#     Edge 60, Type (0, 0), BuildingBlock: OJICUG_clean_linker_0, # of connection points: 2
#     Edge 61, Type (0, 0), BuildingBlock: OJICUG_clean_linker_0, # of connection points: 2
#     Edge 62, Type (0, 0), BuildingBlock: OJICUG_clean_linker_0, # of connection points: 2
#     Edge 63, Type (0, 0), BuildingBlock: OJICUG_clean_linker_0, # of connection points: 2
#     Edge 64, Type (0, 0), BuildingBlock: OJICUG_clean_linker_0, # of connection points: 2
#     Edge 65, Type (0, 0), BuildingBlock: OJICUG_clean_linker_0, # of connection points: 2
#     Edge 66, Type (0, 0), BuildingBlock: OJICUG_clean_linker_0, # of connection points: 2
#     Edge 67, Type (0, 0), BuildingBlock: OJICUG_clean_linker_0, # of connection points: 2
#     Edge 68, Type (0, 0), BuildingBlock: OJICUG_clean_linker_0, # of connection points: 2
#     Edge 69, Type (0, 0), BuildingBlock: OJICUG_clean_linker_0, # of connection points: 2
#     Edge 70, Type (0, 0), BuildingBlock: OJICUG_clean_linker_0, # of connection points: 2
#     Edge 71, Type (0, 0), BuildingBlock: OJICUG_clean_linker_0, # of connection points: 2
# Relax obj value: 0.144
# Max RMSD: 0.215
# Mean RMSD: 0.215
data_MOF--net-xfb--node1-HICVOG_clean_sbu_0--edge1-OJICUG_clean_linker_0
_symmetry_space_group_name_H-M    P1
_symmetry_Int_Tables_number       1
_symmetry_cell_setting            triclinic
loop_
_symmetry_equiv_pos_as_xyz
'x, y, z'
_cell_length_a     43.675643
_cell_length_b     43.894704
_cell_length_c     16.111513
_cell_angle_alpha  89.957641
_cell_angle_beta   89.944464
_cell_angle_gamma 90.152462
loop_
_atom_site_label
_atom_site_type_symbol
_atom_site_fract_x
_atom_site_fract_y
_atom_site_fract_z
_atom_type_partial_charge
Zn0 Zn 0.14967 0.19189 0.08605 0.0
C1 C 0.19814 0.23271 0.26089 0.0
N2 N 0.17503 0.25292 0.26071 0.0
C3 C 0.15385 0.23921 0.21344 0.0
N4 N 0.16368 0.21228 0.18436 0.0
N5 N 0.19086 0.20731 0.21754 0.0
C6 C 0.25128 0.13486 0.32324 0.0
O7 O 0.22908 0.11562 0.34062 0.0
O8 O 0.10451 0.19717 0.07051 0.0
Zn9 Zn 0.19971 0.16685 0.26127 0.0
N10 N 0.17277 0.20691 0.9906 0.0
C11 C 0.21404 0.23675 0.93774 0.0
C12 C 0.19619 0.22678 1.00415 0.0
C13 C 0.16641 0.19671 0.91264 0.0
N14 N 0.2078 0.22652 0.86013 0.0
C15 C 0.18435 0.2068 0.84498 0.0
O16 O 0.18684 0.13115 0.18772 0.0
C17 C 0.16847 0.12543 0.1283 0.0
O18 O 0.15412 0.14652 0.09102 0.0
H19 H 0.20117 0.23473 0.06609 0.0
H20 H 0.14807 0.1804 0.90422 0.0
C21 C 0.18241 0.17232 0.43729 0.0
C22 C 0.16189 0.16815 0.50453 0.0
C23 C 0.12659 0.1445 0.41225 0.0
C24 C 0.14683 0.14868 0.3467 0.0
N25 N 0.17437 0.16226 0.36018 0.0
N26 N 0.13456 0.15425 0.48899 0.0
H27 H 0.20415 0.18377 0.4449 0.0
C28 C 0.08736 0.18965 0.13103 0.0
O29 O 0.10006 0.18428 0.20347 0.0
O30 O 0.24454 0.16026 0.28967 0.0
H31 H 0.14049 0.14132 0.28513 0.0
H32 H 0.23282 0.25244 0.94781 0.0
H33 H 0.1046 0.1337 0.40228 0.0
Zn34 Zn 0.57499 0.39678 0.3362 0.0
C35 C 0.53469 0.44795 0.50522 0.0
N36 N 0.5147 0.42467 0.51091 0.0
C37 C 0.52824 0.40268 0.46651 0.0
N38 N 0.55489 0.41217 0.43358 0.0
N39 N 0.55994 0.44 0.46163 0.0
C40 C 0.63348 0.49944 0.56717 0.0
O41 O 0.65273 0.47738 0.58447 0.0
O42 O 0.56959 0.35161 0.32566 0.0
Zn43 Zn 0.60047 0.44815 0.507 0.0
N44 N 0.55911 0.41813 0.23896 0.0
C45 C 0.5241 0.45398 0.18236 0.0
C46 C 0.53571 0.43808 0.25003 0.0
C47 C 0.5716 0.41363 0.16239 0.0
N48 N 0.53629 0.44929 0.10601 0.0
C49 C 0.55979 0.4295 0.09295 0.0
O50 O 0.63628 0.43472 0.43442 0.0
C51 C 0.64199 0.41605 0.3759 0.0
O52 O 0.62076 0.40145 0.33937 0.0
H53 H 0.52603 0.44165 0.31095 0.0
H54 H 0.59064 0.39813 0.15708 0.0
C55 C 0.59611 0.43129 0.68431 0.0
C56 C 0.5989 0.41008 0.75025 0.0
C57 C 0.61758 0.37339 0.65408 0.0
C58 C 0.61459 0.39425 0.58983 0.0
N59 N 0.60401 0.42272 0.60574 0.0
N60 N 0.60968 0.38174 0.73208 0.0
H61 H 0.58801 0.45421 0.69435 0.0
C62 C 0.57558 0.33516 0.38856 0.0
O63 O 0.57934 0.34846 0.46083 0.0
O64 O 0.60774 0.49267 0.5348 0.0
H65 H 0.62053 0.38772 0.52728 0.0
H66 H 0.50547 0.46991 0.19033 0.0
H67 H 0.62595 0.35064 0.64211 0.0
Zn68 Zn 0.37032 0.82171 0.56725 0.0
C69 C 0.32086 0.78419 0.7468 0.0
N70 N 0.34406 0.76414 0.75066 0.0
C71 C 0.36528 0.77668 0.7011 0.0
N72 N 0.35537 0.8028 0.66694 0.0
N73 N 0.32818 0.80862 0.69922 0.0
C74 C 0.26912 0.88311 0.80256 0.0
O75 O 0.29135 0.90213 0.82117 0.0
O76 O 0.41596 0.8175 0.55705 0.0
Zn77 Zn 0.32075 0.84977 0.74153 0.0
N78 N 0.3491 0.80493 0.47116 0.0
C79 C 0.31282 0.77026 0.41433 0.0
C80 C 0.32863 0.78191 0.48233 0.0
C81 C 0.35413 0.81707 0.39451 0.0
N82 N 0.31803 0.78212 0.33778 0.0
C83 C 0.33833 0.80528 0.32497 0.0
O84 O 0.33525 0.88475 0.66646 0.0
C85 C 0.3522 0.88884 0.60292 0.0
O86 O 0.36491 0.86676 0.56574 0.0
H87 H 0.32457 0.77268 0.54358 0.0
H88 H 0.36984 0.836 0.38914 0.0
C89 C 0.3376 0.84426 0.91803 0.0
C90 C 0.35856 0.84723 0.98473 0.0
C91 C 0.39475 0.86909 0.89116 0.0
C92 C 0.37414 0.86592 0.82623 0.0
N93 N 0.34602 0.85372 0.84055 0.0
N94 N 0.38652 0.85971 0.9681 0.0
H95 H 0.31504 0.83465 0.92631 0.0
C96 C 0.43227 0.82489 0.61928 0.0
O97 O 0.41867 0.82971 0.69081 0.0
O98 O 0.27589 0.85773 0.76893 0.0
H99 H 0.38064 0.87295 0.76442 0.0
H100 H 0.29648 0.75192 0.42226 0.0
H101 H 0.41723 0.87875 0.88055 0.0
Zn102 Zn 0.91989 0.56738 1.0074 0.0
C103 C 0.9923 0.61277 0.96353 0.0
N104 N 1.00597 0.59105 1.00865 0.0
C105 C 0.98585 0.56781 1.00518 0.0
N106 N 0.96044 0.57563 0.96218 0.0
N107 N 0.96544 0.6032 0.93227 0.0
C108 C 0.94435 0.67939 0.88446 0.0
O109 O 0.9397 0.66594 0.95626 0.0
O110 O 0.9127 0.52281 0.03505 0.0
Zn111 Zn 0.94537 0.618 0.8342 0.0
N112 N 0.91586 0.59268 0.10646 0.0
C113 C 0.89876 0.64057 0.1572 0.0
C114 C 0.90275 0.62022 0.0922 0.0
C115 C 0.92564 0.58473 0.18396 0.0
N116 N 0.90823 0.63269 0.23425 0.0
C117 C 0.92168 0.60538 0.25075 0.0
O118 O 0.89961 0.61362 0.83833 0.0
C119 C 0.87839 0.59915 0.87544 0.0
O120 O 0.88413 0.58061 0.9343 0.0
H121 H 0.89559 0.62649 0.03042 0.0
H122 H 0.93666 0.56294 0.19219 0.0
C123 C 0.94996 0.60165 0.66003 0.0
C124 C 0.96053 0.58424 0.59211 0.0
C125 C 0.99214 0.55609 0.6841 0.0
C126 C 0.98175 0.57344 0.75069 0.0
N127 N 0.96081 0.59581 0.73774 0.0
N128 N 0.9813 0.5618 0.6068 0.0
H129 H 0.93286 0.61918 0.652 0.0
C130 C 0.88697 0.51601 0.06757 0.0
O131 O 0.86772 0.53805 0.08509 0.0
O132 O 0.95103 0.66304 0.82192 0.0
H133 H 0.99025 0.56887 0.81234 0.0
H134 H 0.88833 0.66255 0.14655 0.0
H135 H 1.00868 0.53813 0.69377 0.0
Zn136 Zn 0.82111 0.84907 0.77795 0.0
C137 C 0.86461 0.77585 0.818 0.0
N138 N 0.84296 0.76345 0.76976 0.0
C139 C 0.81991 0.78363 0.7749 0.0
N140 N 0.82778 0.80803 0.82177 0.0
N141 N 0.85514 0.80205 0.85259 0.0
C142 C 0.93224 0.82347 0.89458 0.0
O143 O 0.91808 0.82744 0.82354 0.0
O144 O 0.77657 0.857 0.74818 0.0
Zn145 Zn 0.87073 0.82091 0.95146 0.0
N146 N 0.84689 0.85256 0.67955 0.0
C147 C 0.8959 0.86745 0.62952 0.0
C148 C 0.87507 0.86454 0.69417 0.0
C149 C 0.83858 0.84324 0.60194 0.0
N150 N 0.88779 0.85815 0.55247 0.0
C151 C 0.85974 0.846 0.53555 0.0
O152 O 0.86505 0.86602 0.95351 0.0
C153 C 0.85225 0.88814 0.9166 0.0
O154 O 0.83534 0.88411 0.85304 0.0
H155 H 0.88141 0.87162 0.756 0.0
H156 H 0.81586 0.83404 0.59307 0.0
C157 C 0.85524 0.8162 0.12518 0.0
C158 C 0.83992 0.8041 0.19531 0.0
C159 C 0.81507 0.76835 0.1069 0.0
C160 C 0.83037 0.78034 0.03839 0.0
N161 N 0.85031 0.80385 0.04876 0.0
N162 N 0.8202 0.7804 0.18317 0.0
H163 H 0.87053 0.83549 0.12983 0.0
C164 C 0.77009 0.88192 0.71167 0.0
O165 O 0.79246 0.9007 0.69227 0.0
O166 O 0.91644 0.81681 0.95849 0.0
H167 H 0.82634 0.77097 0.97735 0.0
H168 H 0.91845 0.87689 0.64043 0.0
H169 H 0.79919 0.74959 0.09959 0.0
Zn170 Zn 0.41612 0.56951 0.49867 0.0
C171 C 0.48989 0.61242 0.54625 0.0
N172 N 0.50293 0.59094 0.49903 0.0
C173 C 0.48223 0.56817 0.50062 0.0
N174 N 0.45701 0.57609 0.54445 0.0
N175 N 0.46276 0.60316 0.57672 0.0
C176 C 0.4432 0.67972 0.62676 0.0
O177 O 0.43867 0.6669 0.55413 0.0
O178 O 0.4071 0.52586 0.46406 0.0
Zn179 Zn 0.44276 0.6179 0.67501 0.0
N180 N 0.41313 0.59585 0.40182 0.0
C181 C 0.39799 0.64438 0.35101 0.0
C182 C 0.40091 0.62379 0.41603 0.0
C183 C 0.42293 0.58767 0.32459 0.0
N184 N 0.40744 0.63624 0.27405 0.0
C185 C 0.41991 0.60844 0.25781 0.0
O186 O 0.39697 0.61409 0.67162 0.0
C187 C 0.37539 0.60054 0.63369 0.0
O188 O 0.38063 0.5828 0.57275 0.0
H189 H 0.39359 0.6301 0.47771 0.0
H190 H 0.43324 0.56553 0.3166 0.0
C191 C 0.44766 0.60211 0.84892 0.0
C192 C 0.45754 0.58442 0.91699 0.0
C193 C 0.48685 0.55398 0.82473 0.0
C194 C 0.47707 0.57156 0.75789 0.0
N195 N 0.45762 0.59523 0.771 0.0
N196 N 0.47683 0.56071 0.9023 0.0
H197 H 0.43168 0.62066 0.85703 0.0
C198 C 0.39655 0.50718 0.51746 0.0
O199 O 0.39465 0.51574 0.59542 0.0
O200 O 0.44914 0.66278 0.6887 0.0
H201 H 0.48482 0.56618 0.69597 0.0
H202 H 0.38831 0.66671 0.36152 0.0
H203 H 0.50221 0.53501 0.81504 0.0
Zn204 Zn 0.69937 0.16615 0.28091 0.0
C205 C 0.65594 0.23921 0.32181 0.0
N206 N 0.67749 0.25172 0.27326 0.0
C207 C 0.70061 0.2316 0.27804 0.0
N208 N 0.69288 0.20715 0.32505 0.0
N209 N 0.66554 0.21303 0.35626 0.0
C210 C 0.58833 0.19142 0.40331 0.0
O211 O 0.60176 0.18701 0.33138 0.0
O212 O 0.74379 0.15809 0.25005 0.0
Zn213 Zn 0.65034 0.1942 0.4557 0.0
N214 N 0.67347 0.16297 0.18298 0.0
C215 C 0.62428 0.14872 0.13324 0.0
C216 C 0.64514 0.15134 0.1978 0.0
C217 C 0.68191 0.17221 0.10535 0.0
N218 N 0.63252 0.15793 0.05613 0.0
C219 C 0.66074 0.16973 0.03908 0.0
O220 O 0.65579 0.14908 0.45736 0.0
C221 C 0.66834 0.12696 0.41984 0.0
O222 O 0.68509 0.13103 0.35585 0.0
H223 H 0.63874 0.14429 0.25968 0.0
H224 H 0.70474 0.18111 0.09641 0.0
C225 C 0.66612 0.19897 0.62865 0.0
C226 C 0.6815 0.21103 0.69855 0.0
C227 C 0.70678 0.24638 0.60956 0.0
C228 C 0.69137 0.23445 0.54126 0.0
N229 N 0.67121 0.21114 0.55207 0.0
N230 N 0.70148 0.23449 0.68604 0.0
H231 H 0.65062 0.17985 0.63363 0.0
C232 C 0.75003 0.13337 0.21228 0.0
O233 O 0.7275 0.11486 0.1925 0.0
O234 O 0.60475 0.19851 0.46554 0.0
H235 H 0.69546 0.24373 0.48007 0.0
H236 H 0.60162 0.13955 0.14426 0.0
H237 H 0.72285 0.26497 0.60194 0.0
Zn238 Zn 0.07778 0.3978 0.17504 0.0
C239 C 0.03854 0.44768 1.00064 0.0
N240 N 0.0179 0.42486 0.99868 0.0
C241 C 0.03086 0.40336 0.04596 0.0
N242 N 0.05788 0.41267 0.07681 0.0
N243 N 0.06372 0.43978 0.04465 0.0
C244 C 0.12424 0.50896 0.0157 0.0
O245 O 0.12631 0.50076 0.09393 0.0
O246 O 0.07129 0.35293 0.18865 0.0
Zn247 Zn 0.1047 0.44633 0.99876 0.0
N248 N 0.06288 0.42035 0.27125 0.0
C249 C 0.03341 0.46139 0.32525 0.0
C250 C 0.04326 0.44389 0.25833 0.0
C251 C 0.07297 0.41353 0.34908 0.0
N252 N 0.04355 0.45471 0.40272 0.0
C253 C 0.06303 0.43113 0.41725 0.0
O254 O 0.14019 0.43305 0.07317 0.0
C255 C 0.14524 0.41521 0.13409 0.0
O256 O 0.12353 0.40165 0.17165 0.0
H257 H 0.03542 0.44923 0.19648 0.0
H258 H 0.08908 0.39509 0.35703 0.0
C259 C 0.09786 0.42809 0.82478 0.0
C260 C 0.10093 0.40733 0.75805 0.0
C261 C 0.12299 0.37147 0.85127 0.0
C262 C 0.12003 0.39206 0.91622 0.0
N263 N 0.10771 0.41995 0.90199 0.0
N264 N 0.11349 0.37957 0.77434 0.0
H265 H 0.0875 0.45021 0.81677 0.0
C266 C 0.07761 0.33583 0.12735 0.0
O267 O 0.08282 0.34847 0.05474 0.0
O268 O 0.11368 0.48999 0.96319 0.0
H269 H 0.1274 0.38577 0.97787 0.0
H270 H 0.01792 0.48025 0.31571 0.0
H271 H 0.13275 0.34917 0.8618 0.0
Zn272 Zn 0.64983 0.69156 0.58576 0.0
C273 C 0.69847 0.73242 0.7602 0.0
N274 N 0.67532 0.75259 0.76025 0.0
C275 C 0.65408 0.73884 0.71323 0.0
N276 N 0.66392 0.71192 0.68409 0.0
N277 N 0.69114 0.70699 0.71698 0.0
C278 C 0.752 0.63395 0.81803 0.0
O279 O 0.72988 0.61457 0.83503 0.0
O280 O 0.60467 0.69694 0.57041 0.0
Zn281 Zn 0.70012 0.6665 0.76039 0.0
N282 N 0.67298 0.70657 0.49032 0.0
C283 C 0.7142 0.73653 0.43765 0.0
C284 C 0.6963 0.72655 0.50395 0.0
C285 C 0.66675 0.69628 0.41236 0.0
N286 N 0.70809 0.72622 0.36003 0.0
C287 C 0.68473 0.7064 0.34479 0.0
O288 O 0.68694 0.63088 0.68708 0.0
C289 C 0.66845 0.62511 0.62797 0.0
O290 O 0.65407 0.64617 0.59067 0.0
H291 H 0.70117 0.73458 0.56587 0.0
H292 H 0.64848 0.6799 0.40387 0.0
C293 C 0.68312 0.67186 0.93699 0.0
C294 C 0.66262 0.66763 1.00428 0.0
C295 C 0.62735 0.6439 0.91207 0.0
C296 C 0.64753 0.64819 0.84647 0.0
N297 N 0.67506 0.66181 0.85987 0.0
N298 N 0.63533 0.65365 0.98879 0.0
H299 H 0.70482 0.68337 0.94459 0.0
C300 C 0.58759 0.68934 0.63101 0.0
O301 O 0.60037 0.68388 0.70329 0.0
O302 O 0.74508 0.65971 0.78684 0.0
H303 H 0.64114 0.64088 0.7849 0.0
H304 H 0.7329 0.7523 0.44779 0.0
H305 H 0.60538 0.63306 0.90214 0.0
Zn306 Zn 0.07561 0.8982 0.82831 0.0
C307 C 0.03556 0.9485 1.00036 0.0
N308 N 0.0155 0.92524 1.00466 0.0
C309 C 0.02891 0.9036 0.95877 0.0
N310 N 0.05558 0.91326 0.92629 0.0
N311 N 0.06078 0.94079 0.95621 0.0
C312 C 0.13426 0.99984 0.06329 0.0
O313 O 0.1534 0.97776 0.08127 0.0
O314 O 0.06986 0.85314 0.81772 0.0
Zn315 Zn 0.10151 0.94867 1.00092 0.0
N316 N 0.05994 0.91997 0.73136 0.0
C317 C 0.02813 0.95921 0.67715 0.0
C318 C 0.03871 0.9421 0.744 0.0
C319 C 0.07091 0.91415 0.65372 0.0
N320 N 0.0391 0.95352 0.59992 0.0
C321 C 0.06018 0.93134 0.58552 0.0
O322 O 0.13723 0.93553 0.92695 0.0
C323 C 0.1428 0.91709 0.86773 0.0
O324 O 0.12144 0.90268 0.83116 0.0
H325 H 0.03015 0.94667 0.80562 0.0
H326 H 0.08826 0.89684 0.64594 0.0
C327 C 0.09555 0.93108 0.1773 0.0
C328 C 0.09957 0.91045 0.2442 0.0
C329 C 0.12288 0.87545 0.15082 0.0
C330 C 0.11887 0.89579 0.08576 0.0
N331 N 0.10552 0.92322 0.09987 0.0
N332 N 0.11323 0.88323 0.22781 0.0
H333 H 0.08439 0.95279 0.1854 0.0
C334 C 0.07653 0.83704 0.88078 0.0
O335 O 0.08142 0.8508 0.95195 0.0
O336 O 0.10877 0.99312 0.02944 0.0
H337 H 0.12623 0.88962 0.02405 0.0
H338 H 0.01136 0.97697 0.68655 0.0
H339 H 0.13349 0.85354 0.1403 0.0
Zn340 Zn 0.87074 0.32386 0.08598 0.0
C341 C 0.82205 0.28289 0.26075 0.0
N342 N 0.84521 0.26275 0.26075 0.0
C343 C 0.86645 0.27651 0.21361 0.0
N344 N 0.85661 0.30343 0.18441 0.0
N345 N 0.82936 0.30833 0.21738 0.0
C346 C 0.7684 0.38137 0.31801 0.0
O347 O 0.7905 0.40082 0.33449 0.0
O348 O 0.91596 0.31863 0.07041 0.0
Zn349 Zn 0.82033 0.34881 0.26066 0.0
N350 N 0.84761 0.30886 0.99065 0.0
C351 C 0.8064 0.27889 0.93832 0.0
C352 C 0.8243 0.28887 1.00447 0.0
C353 C 0.85382 0.31916 0.91262 0.0
N354 N 0.81249 0.28922 0.86064 0.0
C355 C 0.83584 0.30905 0.84519 0.0
O356 O 0.83347 0.38446 0.1872 0.0
C357 C 0.85199 0.39028 0.12808 0.0
O358 O 0.86642 0.36924 0.09083 0.0
H359 H 0.81944 0.28082 0.06644 0.0
H360 H 0.87208 0.33556 0.90397 0.0
C361 C 0.83735 0.34352 0.43722 0.0
C362 C 0.85786 0.34778 0.50434 0.0
C363 C 0.89311 0.37148 0.41175 0.0
C364 C 0.87291 0.36717 0.34631 0.0
N365 N 0.84539 0.35354 0.35997 0.0
N366 N 0.88514 0.36176 0.48858 0.0
H367 H 0.81565 0.332 0.44503 0.0
C368 C 0.93302 0.32632 0.13084 0.0
O369 O 0.92024 0.33173 0.20319 0.0
O370 O 0.77536 0.35556 0.28727 0.0
H371 H 0.8793 0.37445 0.28465 0.0
H372 H 0.78771 0.26311 0.94862 0.0
H373 H 0.91507 0.38232 0.4016 0.0
Zn374 Zn 0.41813 0.06948 0.52443 0.0
C375 C 0.4913 0.1123 0.47822 0.0
N376 N 0.50448 0.09047 0.52397 0.0
C377 C 0.48407 0.06747 0.52034 0.0
N378 N 0.45882 0.07564 0.47702 0.0
N379 N 0.46438 0.10306 0.44666 0.0
C380 C 0.44439 0.17978 0.39714 0.0
O381 O 0.44 0.16679 0.46966 0.0
O382 O 0.40878 0.02595 0.55923 0.0
Zn383 Zn 0.44457 0.11813 0.34844 0.0
N384 N 0.41555 0.09592 0.62116 0.0
C385 C 0.40067 0.14459 0.67143 0.0
C386 C 0.40348 0.12391 0.60668 0.0
C387 C 0.42526 0.08776 0.69848 0.0
N388 N 0.41004 0.13648 0.74846 0.0
C389 C 0.42232 0.10862 0.76505 0.0
O390 O 0.39872 0.11442 0.35196 0.0
C391 C 0.37723 0.10086 0.39043 0.0
O392 O 0.3826 0.08305 0.45116 0.0
H393 H 0.39616 0.13018 0.545 0.0
H394 H 0.43537 0.06554 0.70671 0.0
C395 C 0.4495 0.10242 0.17436 0.0
C396 C 0.45968 0.08493 0.10623 0.0
C397 C 0.48968 0.05508 0.19824 0.0
C398 C 0.47964 0.07249 0.26511 0.0
N399 N 0.45967 0.09574 0.2522 0.0
N400 N 0.47946 0.06161 0.12078 0.0
H401 H 0.43316 0.12066 0.16635 0.0
C402 C 0.39817 1.00743 0.50568 0.0
O403 O 0.39656 0.01606 0.42771 0.0
O404 O 0.45085 0.16304 0.33523 0.0
H405 H 0.48761 0.06729 0.3269 0.0
H406 H 0.39113 0.16696 0.66068 0.0
H407 H 0.50543 0.03643 0.20781 0.0
Zn408 Zn 0.32103 0.34885 0.28156 0.0
C409 C 0.36411 0.27541 0.3243 0.0
N410 N 0.34265 0.26296 0.2755 0.0
C411 C 0.31972 0.28333 0.27913 0.0
N412 N 0.32747 0.30783 0.32573 0.0
N413 N 0.35463 0.30181 0.35769 0.0
C414 C 0.43167 0.32249 0.40251 0.0
O415 O 0.41804 0.32622 0.33062 0.0
O416 O 0.27666 0.357 0.25049 0.0
Zn417 Zn 0.36982 0.32083 0.45664 0.0
N418 N 0.34704 0.352 0.18384 0.0
C419 C 0.39636 0.3659 0.13402 0.0
C420 C 0.37545 0.3634 0.19862 0.0
C421 C 0.33857 0.34285 0.10626 0.0
N422 N 0.38809 0.35677 0.05694 0.0
C423 C 0.35979 0.34519 0.03996 0.0
O424 O 0.36452 0.36599 0.45777 0.0
C425 C 0.352 0.38808 0.42001 0.0
O426 O 0.33527 0.38395 0.35616 0.0
H427 H 0.38188 0.37035 0.26051 0.0
H428 H 0.31568 0.33412 0.09744 0.0
C429 C 0.35413 0.31611 0.62975 0.0
C430 C 0.33861 0.30419 0.69973 0.0
C431 C 0.31278 0.26929 0.61089 0.0
C432 C 0.32831 0.28108 0.54249 0.0
N433 N 0.34882 0.30408 0.5532 0.0
N434 N 0.31829 0.28102 0.68734 0.0
H435 H 0.36989 0.33501 0.63465 0.0
C436 C 0.27052 0.38179 0.21286 0.0
O437 O 0.29312 0.40028 0.19333 0.0
O438 O 0.41539 0.31634 0.46587 0.0
H439 H 0.32404 0.27192 0.48132 0.0
H440 H 0.41909 0.37489 0.14499 0.0
H441 H 0.29644 0.25094 0.60336 0.0
Zn442 Zn 0.91618 0.06951 0.99809 0.0
C443 C 0.98981 0.11271 0.04526 0.0
N444 N 1.0029 0.09137 0.99768 0.0
C445 C 0.98237 0.06846 0.99933 0.0
N446 N 0.95715 0.07617 0.04356 0.0
N447 N 0.9628 0.10324 0.07599 0.0
C448 C 0.94279 0.17995 0.12726 0.0
O449 O 0.93756 0.16739 0.05463 0.0
O450 O 0.90719 0.02586 0.9632 0.0
Zn451 Zn 0.94285 0.1179 0.17444 0.0
N452 N 0.91308 0.09583 0.90118 0.0
C453 C 0.89767 0.14424 0.85015 0.0
C454 C 0.90067 0.12369 0.91525 0.0
C455 C 0.92298 0.08767 0.82402 0.0
N456 N 0.90723 0.13613 0.77326 0.0
C457 C 0.91987 0.1084 0.75715 0.0
O458 O 0.89712 0.114 0.17132 0.0
C459 C 0.87548 0.10046 0.1336 0.0
O460 O 0.88065 0.08274 0.07253 0.0
H461 H 0.89327 0.12999 0.97688 0.0
H462 H 0.93342 0.06559 0.81613 0.0
C463 C 0.9478 0.1021 0.3483 0.0
C464 C 0.95773 0.08446 0.4164 0.0
C465 C 0.98713 0.05409 0.32415 0.0
C466 C 0.9773 0.07163 0.25729 0.0
N467 N 0.95778 0.09524 0.27038 0.0
N468 N 0.9771 0.0608 0.40172 0.0
H469 H 0.93176 0.12061 0.35638 0.0
C470 C 0.89667 1.00706 0.01629 0.0
O471 O 0.89479 0.01542 0.0944 0.0
O472 O 0.94921 0.16279 0.18839 0.0
H473 H 0.98505 0.06627 0.19536 0.0
H474 H 0.88785 0.16651 0.86054 0.0
H475 H 1.00255 0.03516 0.31449 0.0
Zn476 Zn 0.19889 0.66698 0.77373 0.0
C477 C 0.15542 0.74017 0.81391 0.0
N478 N 0.17667 0.75247 0.76405 0.0
C479 C 0.19981 0.73238 0.76852 0.0
N480 N 0.19236 0.70814 0.81664 0.0
N481 N 0.16521 0.71414 0.8488 0.0
C482 C 0.0885 0.69283 0.89392 0.0
O483 O 0.10247 0.68833 0.82277 0.0
O484 O 0.24337 0.65889 0.74411 0.0
Zn485 Zn 0.15004 0.69537 0.94838 0.0
N486 N 0.17321 0.66343 0.6754 0.0
C487 C 0.12438 0.64836 0.62493 0.0
C488 C 0.14509 0.65125 0.68974 0.0
C489 C 0.18158 0.67302 0.598 0.0
N490 N 0.13255 0.65789 0.54806 0.0
C491 C 0.16055 0.67027 0.53141 0.0
O492 O 0.15535 0.6502 0.95074 0.0
C493 C 0.16786 0.62803 0.91338 0.0
O494 O 0.18457 0.63202 0.84929 0.0
H495 H 0.13869 0.64401 0.75145 0.0
H496 H 0.2042 0.68249 0.58965 0.0
C497 C 0.16567 0.70026 0.12146 0.0
C498 C 0.1812 0.71219 0.19126 0.0
C499 C 0.20679 0.74726 0.10217 0.0
C500 C 0.19125 0.73545 0.03392 0.0
N501 N 0.17087 0.71234 0.04482 0.0
N502 N 0.20141 0.73544 0.1787 0.0
H503 H 0.15003 0.68125 0.12663 0.0
C504 C 0.24974 0.63391 0.70786 0.0
O505 O 0.22728 0.61524 0.6886 0.0
O506 O 0.10448 0.69985 0.95706 0.0
H507 H 0.19545 0.74463 0.97267 0.0
H508 H 0.10188 0.63875 0.63556 0.0
H509 H 0.22306 0.76567 0.09446 0.0
Zn510 Zn 0.57687 0.89691 0.67665 0.0
C511 C 0.53773 0.9478 0.50455 0.0
N512 N 0.51734 0.9248 0.50025 0.0
C513 C 0.53036 0.90291 0.54611 0.0
N514 N 0.55717 0.91216 0.57841 0.0
N515 N 0.56287 0.9396 0.54829 0.0
C516 C 0.62339 0.00815 0.51928 0.0
O517 O 0.62512 0.99973 0.59741 0.0
O518 O 0.57043 0.85198 0.68923 0.0
Zn519 Zn 0.60367 0.94582 0.50131 0.0
N520 N 0.56162 0.91907 0.77324 0.0
C521 C 0.53122 0.95937 0.8276 0.0
C522 C 0.54138 0.94211 0.76057 0.0
C523 C 0.57198 0.91249 0.85099 0.0
N524 N 0.54162 0.95294 0.90495 0.0
C525 C 0.56169 0.92984 0.9193 0.0
O526 O 0.63912 0.93242 0.57543 0.0
C527 C 0.64432 0.91459 0.63629 0.0
O528 O 0.62272 0.90089 0.67396 0.0
H529 H 0.53328 0.94724 0.69885 0.0
H530 H 0.58855 0.89445 0.85877 0.0
C531 C 0.59661 0.92747 0.32714 0.0
C532 C 0.59964 0.90662 0.26053 0.0
C533 C 0.62157 0.87081 0.35414 0.0
C534 C 0.61865 0.89147 0.41891 0.0
N535 N 0.6064 0.91938 0.40446 0.0
N536 N 0.61211 0.87885 0.27714 0.0
H537 H 0.58637 0.94963 0.31894 0.0
C538 C 0.57699 0.83501 0.62785 0.0
O539 O 0.58222 0.84779 0.55544 0.0
O540 O 0.61288 0.98939 0.46615 0.0
H541 H 0.62603 0.88525 0.48058 0.0
H542 H 0.51524 0.97785 0.81822 0.0
H543 H 0.63126 0.84849 0.36487 0.0
C544 C 0.20309 0.19465 0.70136 0.0
C545 C 0.17869 0.19655 0.75828 0.0
H546 H 0.21765 0.18367 0.57847 0.0
C547 C 0.14903 0.18958 0.73058 0.0
H548 H 0.22628 0.19979 0.72072 0.0
C549 C 0.14394 0.18075 0.64843 0.0
C550 C 0.16831 0.17855 0.59121 0.0
H551 H 0.12953 0.19152 0.77173 0.0
H552 H 0.12062 0.17585 0.62983 0.0
C553 C 0.19805 0.18557 0.6191 0.0
C554 C 0.59965 0.39665 0.90169 0.0
C555 C 0.59032 0.41677 0.83837 0.0
H556 H 0.59744 0.3839 0.02878 0.0
C557 C 0.57181 0.44165 0.86064 0.0
H558 H 0.61393 0.37717 0.88783 0.0
C559 C 0.5627 0.44592 0.94323 0.0
C560 C 0.57155 0.42541 1.00625 0.0
H561 H 0.56352 0.45754 0.81468 0.0
H562 H 0.54824 0.46525 0.95723 0.0
C563 C 0.59034 0.40075 0.98394 0.0
C564 C 0.36927 0.83371 0.21637 0.0
C565 C 0.34297 0.81708 0.23869 0.0
H566 H 0.39436 0.85631 0.12129 0.0
C567 C 0.32124 0.8107 0.17636 0.0
H568 H 0.38712 0.8386 0.26082 0.0
C569 C 0.32569 0.82051 0.09436 0.0
C570 C 0.35208 0.83716 0.07205 0.0
H571 H 0.30066 0.7979 0.19066 0.0
H572 H 0.30848 0.81448 0.04918 0.0
C573 C 0.37361 0.84368 0.13485 0.0
C574 C 0.94893 0.56518 0.44847 0.0
C575 C 0.94984 0.58946 0.50551 0.0
H576 H 0.93889 0.55036 0.32533 0.0
C577 C 0.94172 0.61865 0.47782 0.0
H578 H 0.95499 0.54233 0.46779 0.0
C579 C 0.93289 0.62343 0.39549 0.0
C580 C 0.9318 0.5992 0.33797 0.0
H581 H 0.94284 0.63808 0.51904 0.0
H582 H 0.92715 0.64644 0.37703 0.0
C583 C 0.93985 0.56989 0.36602 0.0
C584 C 0.86952 0.83453 0.30281 0.0
C585 C 0.84437 0.81605 0.28158 0.0
H586 H 0.89355 0.8586 0.39721 0.0
C587 C 0.82363 0.80793 0.34509 0.0
H588 H 0.88662 0.84095 0.25754 0.0
C589 C 0.828 0.81771 0.42706 0.0
C590 C 0.85324 0.83615 0.44821 0.0
H591 H 0.80395 0.79368 0.33185 0.0
H592 H 0.81176 0.81013 0.47334 0.0
C593 C 0.87373 0.8445 0.38437 0.0
C594 C 0.44488 0.56645 0.06093 0.0
C595 C 0.44743 0.59053 1.00363 0.0
H596 H 0.43363 0.55245 0.184 0.0
C597 C 0.44126 0.62025 0.03089 0.0
H598 H 0.44937 0.54322 0.04189 0.0
C599 C 0.43267 0.62572 0.11315 0.0
C600 C 0.42989 0.60166 0.17085 0.0
H601 H 0.44367 0.6395 0.98932 0.0
H602 H 0.42841 0.64906 0.13143 0.0
C603 C 0.43602 0.57185 0.1432 0.0
C604 C 0.69305 0.19739 0.93034 0.0
C605 C 0.66742 0.17949 0.95171 0.0
H606 H 0.71762 0.22086 0.83482 0.0
C607 C 0.64676 0.17154 0.88803 0.0
H608 H 0.70943 0.20466 0.97648 0.0
C609 C 0.65121 0.18137 0.80639 0.0
C610 C 0.67677 0.19929 0.78493 0.0
H611 H 0.62664 0.15787 0.90103 0.0
H612 H 0.63398 0.17532 0.76123 0.0
C613 C 0.69765 0.20703 0.84828 0.0
C614 C 0.07977 0.39542 0.53109 0.0
C615 C 0.07324 0.42508 0.50385 0.0
H616 H 0.09295 0.3667 0.63156 0.0
C617 C 0.07551 0.44915 0.56118 0.0
H618 H 0.0776 0.37617 0.48954 0.0
C619 C 0.08442 0.4438 0.64342 0.0
C620 C 0.0909 0.41405 0.67106 0.0
H621 H 0.07074 0.47234 0.54219 0.0
H622 H 0.08656 0.46321 0.68422 0.0
C623 C 0.08842 0.39001 0.61332 0.0
C624 C 0.69866 0.68522 0.11895 0.0
C625 C 0.66897 0.67807 0.09096 0.0
H626 H 0.72678 0.69957 0.22069 0.0
C627 C 0.64456 0.68017 0.1481 0.0
H628 H 0.71829 0.68341 0.07836 0.0
C629 C 0.64957 0.68902 0.23025 0.0
C630 C 0.67918 0.69611 0.25808 0.0
H631 H 0.62128 0.67517 0.12943 0.0
H632 H 0.63003 0.69088 0.2713 0.0
C633 C 0.70362 0.69432 0.20125 0.0
C634 C 0.07152 0.9504 0.44156 0.0
C635 C 0.07102 0.92619 0.49896 0.0
H636 H 0.08133 0.96525 0.31822 0.0
C637 C 0.07969 0.89711 0.47162 0.0
H638 H 0.06505 0.97315 0.46057 0.0
C639 C 0.08865 0.89239 0.38931 0.0
C640 C 0.08931 0.91656 0.33143 0.0
H641 H 0.07891 0.87772 0.5131 0.0
H642 H 0.09481 0.86947 0.37116 0.0
C643 C 0.08073 0.94575 0.35914 0.0
C644 C 0.87096 0.32645 0.73035 0.0
C645 C 0.84136 0.31935 0.75841 0.0
H646 H 0.89923 0.34029 0.62926 0.0
C647 C 0.81691 0.32113 0.70174 0.0
H648 H 0.89051 0.32461 0.77128 0.0
C649 C 0.82185 0.33021 0.61936 0.0
C650 C 0.85153 0.33736 0.59113 0.0
H651 H 0.79376 0.31586 0.72137 0.0
H652 H 0.80221 0.332 0.57889 0.0
C653 C 0.87595 0.33529 0.64811 0.0
C654 C 0.43439 0.12594 0.91001 0.0
C655 C 0.43214 0.10189 0.8522 0.0
H656 H 0.44491 0.1398 0.03396 0.0
C657 C 0.43867 0.07216 0.87991 0.0
H658 H 0.42981 0.14923 0.89177 0.0
C659 C 0.44744 0.06684 0.96227 0.0
C660 C 0.4495 0.09092 0.01962 0.0
H661 H 0.43671 0.05274 0.83909 0.0
H662 H 0.45229 0.04368 0.98132 0.0
C663 C 0.44289 0.12055 0.99235 0.0
C664 C 0.32717 0.31797 0.9314 0.0
C665 C 0.35306 0.33548 0.95267 0.0
H666 H 0.30228 0.29491 0.83602 0.0
C667 C 0.3739 0.34309 0.88897 0.0
H668 H 0.31063 0.31096 0.97753 0.0
C669 C 0.36934 0.33332 0.80739 0.0
C670 C 0.3435 0.31583 0.78604 0.0
H671 H 0.39422 0.35643 0.9019 0.0
H672 H 0.38669 0.33909 0.76218 0.0
C673 C 0.32247 0.30841 0.84941 0.0
C674 C 0.94124 0.12025 0.53023 0.0
C675 C 0.9476 0.09055 0.50304 0.0
H676 H 0.92818 0.14902 0.63065 0.0
C677 C 0.94519 0.06648 0.56044 0.0
H678 H 0.94354 0.13949 0.48861 0.0
C679 C 0.93628 0.07187 0.64269 0.0
C680 C 0.92995 0.10165 0.67023 0.0
H681 H 0.94983 0.04327 0.54149 0.0
H682 H 0.934 0.05246 0.68355 0.0
C683 C 0.93259 0.12569 0.61245 0.0
C684 C 0.15024 0.68353 0.29948 0.0
C685 C 0.17642 0.70043 0.27755 0.0
H686 H 0.12516 0.66073 0.39429 0.0
C687 C 0.1979 0.70709 0.34028 0.0
H688 H 0.13256 0.67841 0.25471 0.0
C689 C 0.19334 0.69731 0.42224 0.0
C690 C 0.1671 0.68037 0.44415 0.0
H691 H 0.21838 0.72011 0.32633 0.0
H692 H 0.21035 0.7036 0.46774 0.0
C693 C 0.14579 0.67358 0.38101 0.0
C694 C 0.58255 0.94285 0.14577 0.0
C695 C 0.58971 0.91324 0.17333 0.0
H696 H 0.5683 0.97113 0.04455 0.0
C697 C 0.58795 0.88921 0.11532 0.0
H698 H 0.58406 0.96227 0.1867 0.0
C699 C 0.57932 0.89448 0.033 0.0
C700 C 0.57206 0.92399 1.00588 0.0
H701 H 0.59303 0.866 0.13337 0.0
H702 H 0.57769 0.87522 0.99131 0.0
C703 C 0.57364 0.94805 0.06342 0.0
C704 C 0.25375 0.23147 0.22452 0.0
C705 C 0.22985 0.24385 0.2718 0.0
H706 H 0.3005 0.23529 0.18643 0.0
C707 C 0.23525 0.27079 0.31697 0.0
H708 H 0.25012 0.21136 0.18684 0.0
C709 C 0.26396 0.28496 0.31526 0.0
C710 C 0.28789 0.27251 0.26818 0.0
H711 H 0.21707 0.28119 0.35282 0.0
H712 H 0.2676 0.30511 0.35278 0.0
C713 C 0.2824 0.24568 0.22261 0.0
C714 C 0.5207 0.53048 0.45094 0.0
C715 C 0.49342 0.53648 0.49454 0.0
H716 H 0.55591 0.49826 0.42247 0.0
C717 C 0.48102 0.51361 0.54548 0.0
H718 H 0.53112 0.54784 0.41224 0.0
C719 C 0.49564 0.48546 0.55283 0.0
C720 C 0.52299 0.4795 0.50948 0.0
H721 H 0.46067 0.51778 0.58207 0.0
H722 H 0.48528 0.46815 0.59183 0.0
C723 C 0.53537 0.50234 0.45844 0.0
C724 C 0.25549 0.73193 0.80524 0.0
C725 C 0.23151 0.74354 0.75688 0.0
H726 H 0.30219 0.73673 0.84309 0.0
C727 C 0.23673 0.76997 0.70921 0.0
H728 H 0.25204 0.71215 0.84439 0.0
C729 C 0.26522 0.78455 0.71009 0.0
C730 C 0.28919 0.77297 0.75849 0.0
H731 H 0.21855 0.77974 0.67212 0.0
H732 H 0.26866 0.80432 0.67087 0.0
C733 C 0.28399 0.74651 0.80608 0.0
C734 C 0.99988 0.48529 0.95158 0.0
C735 C 0.02724 0.47935 0.9948 0.0
H736 H 0.96457 0.51741 0.92342 0.0
C737 C 0.03963 0.50225 0.04551 0.0
H738 H 0.98947 0.46792 0.91302 0.0
C739 C 0.02494 0.53038 0.05293 0.0
C740 C 0.99753 0.53627 1.00995 0.0
H741 H 0.06006 0.49814 0.08177 0.0
H742 H 0.03532 0.54774 0.0916 0.0
C743 C 0.98514 0.51338 0.95921 0.0
C744 C 0.78253 0.74576 0.71972 0.0
C745 C 0.78808 0.77261 0.76517 0.0
H746 H 0.75029 0.71129 0.68484 0.0
C747 C 0.76428 0.78491 0.81304 0.0
H748 H 0.80052 0.73547 0.68292 0.0
C749 C 0.73564 0.7706 0.81553 0.0
C750 C 0.73018 0.74366 0.77043 0.0
H751 H 0.76798 0.80507 0.85047 0.0
H752 H 0.71755 0.78092 0.8519 0.0
C753 C 0.75396 0.7314 0.72247 0.0
C754 C 0.75633 0.23038 0.31502 0.0
C755 C 0.73241 0.2427 0.2677 0.0
H756 H 0.80314 0.23436 0.35285 0.0
C757 C 0.73786 0.26958 0.22212 0.0
H758 H 0.75273 0.21019 0.3525 0.0
C759 C 0.76644 0.28392 0.22415 0.0
C760 C 0.79034 0.27165 0.27159 0.0
H761 H 0.71978 0.27988 0.18573 0.0
H762 H 0.77005 0.30404 0.18639 0.0
C763 C 0.78498 0.24469 0.31686 0.0
C764 C 0.02106 0.03116 0.94859 0.0
C765 C 0.9938 0.03686 0.99265 0.0
H766 H 0.05642 0.99925 0.91885 0.0
C767 C 0.98167 0.01377 0.04333 0.0
H768 H 0.03127 0.04869 0.91006 0.0
C769 C 0.99651 0.9857 0.04989 0.0
C770 C 0.02381 0.98002 1.00598 0.0
H771 H 0.96133 0.0177 0.08022 0.0
H772 H 0.98633 0.9682 0.08861 0.0
C773 C 0.03593 1.0031 0.95528 0.0
C774 C 0.48367 0.01357 0.46963 0.0
C775 C 0.49579 0.03587 0.52276 0.0
H776 H 0.48844 0.96879 0.41893 0.0
C777 C 0.52316 0.02958 0.56555 0.0
H778 H 0.4632 0.01796 0.43379 0.0
C779 C 0.53811 1.0017 0.55536 0.0
C780 C 0.526 0.9794 0.50221 0.0
H781 H 0.53335 0.04649 0.60599 0.0
H782 H 0.55858 0.99731 0.59122 0.0
C783 C 0.49864 0.9857 0.45941 0.0
C784 C 0.16937 0.03884 0.12623 0.0
C785 C 0.14308 0.03199 0.07924 0.0
H786 H 0.1981 0.07354 0.17844 0.0
C787 C 0.12586 0.05612 0.04632 0.0
H788 H 0.18319 0.02079 0.15248 0.0
C789 C 0.13469 0.08637 0.06016 0.0
C790 C 0.16078 0.09326 0.1081 0.0
H791 H 0.10557 0.05166 1.00959 0.0
H792 H 0.12064 0.10437 0.03457 0.0
C793 C 0.17801 0.0691 0.14092 0.0
C794 C 0.69857 0.42586 0.38844 0.0
C795 C 0.67435 0.40823 0.35676 0.0
H796 H 0.74706 0.43123 0.40107 0.0
C797 C 0.6814 0.38161 0.3118 0.0
H798 H 0.69403 0.44636 0.4237 0.0
C799 C 0.71185 0.37264 0.29993 0.0
C800 C 0.73601 0.39026 0.33185 0.0
H801 H 0.66335 0.36725 0.28724 0.0
H802 H 0.71643 0.35194 0.26555 0.0
C803 C 0.729 0.41708 0.3757 0.0
C804 C 0.37038 0.92564 0.49489 0.0
C805 C 0.36099 0.92008 0.57703 0.0
H806 H 0.38935 0.95752 0.40812 0.0
C807 C 0.36365 0.94363 0.6357 0.0
H808 H 0.36884 0.90787 0.44842 0.0
C809 C 0.37623 0.97188 0.61306 0.0
C810 C 0.38578 0.97732 0.53093 0.0
H811 H 0.35709 0.93987 0.69976 0.0
H812 H 0.37833 0.9895 0.65976 0.0
C813 C 0.38231 0.95402 0.47192 0.0
C814 C 0.79137 0.5983 0.87618 0.0
C815 C 0.78439 0.62504 0.83183 0.0
H816 H 0.82631 0.56906 0.92445 0.0
C817 C 0.80857 0.64254 0.79935 0.0
H818 H 0.7733 0.58424 0.902 0.0
C819 C 0.83901 0.63354 0.81113 0.0
C820 C 0.84602 0.607 0.85654 0.0
H821 H 0.80401 0.66317 0.7646 0.0
H822 H 0.85706 0.64782 0.78611 0.0
C823 C 0.82179 0.58949 0.88882 0.0
C824 C 0.87536 0.97152 0.90811 0.0
C825 C 0.88476 0.97684 0.99037 0.0
H826 H 0.85671 0.93954 0.82076 0.0
C827 C 0.88158 0.95328 0.04887 0.0
H828 H 0.87725 0.98932 0.86178 0.0
C829 C 0.87007 0.92481 0.02531 0.0
C830 C 0.86078 0.91939 0.94307 0.0
H831 H 0.88851 0.95667 0.11275 0.0
H832 H 0.86871 0.90688 0.07143 0.0
C833 C 0.86319 0.94317 0.88488 0.0
C834 C 0.28837 0.59955 0.64067 0.0
C835 C 0.28192 0.62528 0.68971 0.0
H836 H 0.32274 0.57147 0.58468 0.0
C837 C 0.30648 0.64222 0.72215 0.0
H838 H 0.27 0.58596 0.6147 0.0
C839 C 0.33675 0.63364 0.70584 0.0
C840 C 0.34323 0.60811 0.65589 0.0
H841 H 0.30235 0.66209 0.76034 0.0
H842 H 0.35509 0.64744 0.73118 0.0
C843 C 0.31864 0.59117 0.62357 0.0
C844 C 0.64483 0.0437 0.41108 0.0
C845 C 0.63546 0.03833 0.49341 0.0
H846 H 0.66357 0.07571 0.3237 0.0
C847 C 0.63882 0.06178 0.55201 0.0
H848 H 0.64281 0.02597 0.36465 0.0
C849 C 0.65047 0.09022 0.5285 0.0
C850 C 0.6597 0.09572 0.44619 0.0
H851 H 0.63192 0.05835 0.61595 0.0
H852 H 0.65196 0.10808 0.57473 0.0
C853 C 0.65712 0.07202 0.38788 0.0
C854 C 0.18351 0.38223 0.20805 0.0
C855 C 0.17731 0.40759 0.15709 0.0
H856 H 0.21758 0.35392 0.26456 0.0
C857 C 0.2021 0.42432 0.12489 0.0
H858 H 0.16503 0.36857 0.23337 0.0
C859 C 0.23228 0.41594 0.14317 0.0
C860 C 0.23844 0.3904 0.19334 0.0
H861 H 0.19823 0.44388 0.08524 0.0
H862 H 0.2508 0.42938 0.1173 0.0
C863 C 0.21368 0.37365 0.22556 0.0
C864 C 0.62516 0.5557 0.5492 0.0
C865 C 0.64248 0.53161 0.582 0.0
H866 H 0.62006 0.60394 0.53653 0.0
C867 C 0.66907 0.53852 0.62767 0.0
H868 H 0.60465 0.55119 0.51344 0.0
C869 C 0.67791 0.56879 0.64125 0.0
C870 C 0.66058 0.59291 0.60859 0.0
H871 H 0.68298 0.52051 0.65376 0.0
H872 H 0.69822 0.57327 0.67782 0.0
C873 C 0.63419 0.58596 0.56192 0.0
C874 C 0.19951 0.92672 0.87941 0.0
C875 C 0.17513 0.90945 0.84714 0.0
H876 H 0.24808 0.93202 0.89062 0.0
C877 C 0.18201 0.88338 0.79963 0.0
H878 H 0.19513 0.9468 0.91659 0.0
C879 C 0.21242 0.87462 0.78574 0.0
C880 C 0.23675 0.89188 0.81819 0.0
H881 H 0.16386 0.86929 0.77447 0.0
H882 H 0.21683 0.85433 0.74943 0.0
C883 C 0.22991 0.91815 0.8647 0.0
C884 C 0.85136 0.47686 0.12801 0.0
C885 C 0.87797 0.48381 0.08229 0.0
H886 H 0.82219 0.44206 0.17812 0.0
C887 C 0.89529 0.45976 0.04934 0.0
H888 H 0.83745 0.49485 0.15422 0.0
C889 C 0.88625 0.42949 0.06197 0.0
C890 C 0.85985 0.42249 0.1087 0.0
H891 H 0.91581 0.4643 0.01353 0.0
H892 H 0.9004 0.41154 0.03647 0.0
C893 C 0.84252 0.44658 0.14149 0.0
C894 C 0.30797 0.14352 0.30766 0.0
C895 C 0.28356 0.12622 0.33975 0.0
H896 H 0.35657 0.14881 0.29712 0.0
C897 C 0.29023 0.09997 0.38651 0.0
H898 H 0.30366 0.16379 0.27116 0.0
C899 C 0.32056 0.09139 0.40172 0.0
C900 C 0.34501 0.10866 0.3697 0.0
H901 H 0.27199 0.08609 0.41213 0.0
H902 H 0.32483 0.07128 0.43892 0.0
C903 C 0.33833 0.13474 0.32204 0.0
C904 C 0.36988 0.425 0.52802 0.0
C905 C 0.36064 0.41936 0.44585 0.0
H906 H 0.3883 0.45707 0.61489 0.0
C907 C 0.36312 0.44298 0.38719 0.0
H908 H 0.36846 0.40719 0.57451 0.0
C909 C 0.37531 0.47138 0.4099 0.0
C910 C 0.38465 0.47691 0.49209 0.0
H911 H 0.35666 0.43919 0.32311 0.0
H912 H 0.37724 0.48906 0.36322 0.0
C913 C 0.38141 0.45352 0.55105 0.0
C914 C 0.78845 0.09944 0.14248 0.0
C915 C 0.78215 0.12488 0.19282 0.0
H916 H 0.82265 0.0717 0.08442 0.0
C917 C 0.80682 0.14166 0.22524 0.0
H918 H 0.76999 0.08598 0.11646 0.0
C919 C 0.83704 0.1332 0.20773 0.0
C920 C 0.84337 0.10794 0.15659 0.0
H921 H 0.80283 0.16131 0.26437 0.0
H922 H 0.85545 0.14687 0.2332 0.0
C923 C 0.81867 0.09117 0.12421 0.0
C924 C 0.15032 0.59141 0.02285 0.0
C925 C 0.15939 0.59678 0.94033 0.0
H926 H 0.13229 0.55956 0.11116 0.0
C927 C 0.15696 0.5729 0.88254 0.0
H928 H 0.15169 0.6094 0.06872 0.0
C929 C 0.14503 0.5445 0.90645 0.0
C930 C 0.13588 0.53923 0.98901 0.0
H931 H 0.1633 0.57647 0.81823 0.0
H932 H 0.14314 0.52662 0.86042 0.0
C933 C 0.13904 0.5629 0.04708 0.0
C934 C 0.68303 0.88165 0.70884 0.0
C935 C 0.67649 0.90716 0.65878 0.0
H936 H 0.71751 0.85339 0.76374 0.0
C937 C 0.70106 0.92425 0.62668 0.0
H938 H 0.66472 0.86774 0.73403 0.0
C939 C 0.73135 0.91605 0.64408 0.0
C940 C 0.73787 0.89035 0.69324 0.0
H941 H 0.69692 0.94394 0.58772 0.0
H942 H 0.74968 0.92976 0.61825 0.0
C943 C 0.71333 0.87325 0.72547 0.0
C944 C 0.12341 0.26418 0.10257 0.0
C945 C 0.12657 0.25564 0.18588 0.0
H946 H 0.10431 0.29636 0.01759 0.0
C947 C 0.10796 0.2692 0.24623 0.0
H948 H 0.13784 0.25423 0.05529 0.0
C949 C 0.08874 0.29327 0.22509 0.0
C950 C 0.08843 0.30452 0.14343 0.0
H951 H 0.1102 0.26288 0.31098 0.0
H952 H 0.07648 0.30485 0.27425 0.0
C953 C 0.10429 0.28844 0.08128 0.0
C954 C 0.49887 0.35762 0.51056 0.0
C955 C 0.51176 0.37462 0.44565 0.0
H956 H 0.46382 0.32643 0.54736 0.0
C957 C 0.50258 0.36894 0.36384 0.0
H958 H 0.50568 0.3618 0.57422 0.0
C959 C 0.47836 0.34888 0.34818 0.0
C960 C 0.46297 0.33454 0.41444 0.0
H961 H 0.51206 0.38201 0.313 0.0
H962 H 0.46996 0.34687 0.28518 0.0
C963 C 0.47486 0.33744 0.49506 0.0
C964 C 0.42967 0.72199 0.72307 0.0
C965 C 0.43197 0.71096 0.64147 0.0
H966 H 0.40628 0.75226 0.80545 0.0
C967 C 0.41766 0.72719 0.57697 0.0
H968 H 0.44071 0.71029 0.77408 0.0
C969 C 0.39811 0.75144 0.59522 0.0
C970 C 0.3929 0.7598 0.67789 0.0
H971 H 0.41923 0.71946 0.51327 0.0
H972 H 0.38504 0.76158 0.54556 0.0
C973 C 0.41001 0.74605 0.74114 0.0
C974 C 0.04499 0.67879 0.98668 0.0
C975 C 0.05726 0.68064 0.90617 0.0
H976 H 0.01398 0.6553 0.06751 0.0
C977 C 0.04237 0.66518 0.84109 0.0
H978 H 0.05566 0.69067 0.03803 0.0
C979 C 0.01826 0.64511 0.8582 0.0
C980 C 1.00871 0.64059 0.94028 0.0
H981 H 0.05109 0.66634 0.7782 0.0
H982 H 1.00919 0.63115 0.80864 0.0
C983 C 0.0211 0.65862 1.00366 0.0
C984 C 0.92919 0.72169 0.78993 0.0
C985 C 0.93249 0.71049 0.87113 0.0
H986 H 0.90462 0.75191 0.71 0.0
C987 C 0.91865 0.72638 0.93703 0.0
H988 H 0.93982 0.71025 0.73783 0.0
C989 C 0.89866 0.75047 0.9208 0.0
C990 C 0.89251 0.75898 0.83873 0.0
H991 H 0.92101 0.71852 1.00044 0.0
H992 H 0.88607 0.7604 0.9717 0.0
C993 C 0.90907 0.74555 0.77388 0.0
C994 C 0.51565 0.64301 0.65586 0.0
C995 C 0.50724 0.63934 0.5726 0.0
H996 H 0.54769 0.66276 0.74061 0.0
C997 C 0.52133 0.6573 0.51154 0.0
H998 H 0.50534 0.62905 0.70372 0.0
C999 C 0.54553 0.67662 0.53221 0.0
C1000 C 0.55641 0.67771 0.61421 0.0
H1001 H 0.51516 0.65464 0.44679 0.0
H1002 H 0.55739 0.6885 0.4827 0.0
C1003 C 0.54003 0.66222 0.6767 0.0
C1004 C 0.5908 0.29274 0.29461 0.0
C1005 C 0.58771 0.30414 0.37563 0.0
H1006 H 0.61532 0.2625 0.2146 0.0
C1007 C 0.602 0.2886 0.44145 0.0
H1008 H 0.57983 0.30391 0.24261 0.0
C1009 C 0.62217 0.26467 0.42512 0.0
C1010 C 0.62802 0.25593 0.34306 0.0
H1011 H 0.59984 0.29663 0.50473 0.0
H1012 H 0.63512 0.25503 0.47579 0.0
C1013 C 0.61108 0.26902 0.27845 0.0
C1014 C 0.99929 0.3586 1.01109 0.0
C1015 C 0.01345 0.37642 0.07222 0.0
H1016 H 0.96315 0.32752 0.98222 0.0
C1017 C 1.00501 0.37264 0.15549 0.0
H1018 H 1.00545 0.36136 0.94633 0.0
C1019 C 0.98059 0.35343 0.17631 0.0
C1020 C 0.96418 0.33805 0.11382 0.0
H1021 H 0.01534 0.38649 0.20341 0.0
H1022 H 0.97295 0.35278 0.24027 0.0
C1023 C 0.97504 0.33929 0.03176 0.0
C1024 C 0.60413 0.78791 0.58154 0.0
C1025 C 0.58815 0.8038 0.64381 0.0
H1026 H 0.63795 0.75399 0.55525 0.0
C1027 C 0.58863 0.79253 0.72544 0.0
H1028 H 0.60403 0.79586 0.51788 0.0
C1029 C 0.60807 0.76861 0.7464 0.0
C1030 C 0.62673 0.75522 0.6859 0.0
H1031 H 0.57629 0.80397 0.77469 0.0
H1032 H 0.6104 0.76226 0.81111 0.0
C1033 C 0.62347 0.7638 0.60265 0.0
C1034 C 1.00244 0.87101 0.85506 0.0
C1035 C 0.01241 0.8757 0.93664 0.0
H1036 H 0.96915 0.84971 0.77686 0.0
C1037 C 1.00025 0.85786 1.00089 0.0
H1038 H 0.01132 0.88483 0.80484 0.0
C1039 C 0.97619 0.83774 0.98533 0.0
C1040 C 0.96354 0.83572 0.90538 0.0
H1041 H 1.00767 0.86131 0.06437 0.0
H1042 H 0.96573 0.82602 0.03737 0.0
C1043 C 0.97818 0.85099 0.83936 0.0
C1044 C 0.91225 0.24641 0.24649 0.0
C1045 C 0.89377 0.2601 0.18611 0.0
H1046 H 0.94364 0.21067 0.27446 0.0
C1047 C 0.89705 0.25167 0.10276 0.0
H1048 H 0.9099 0.25263 0.31127 0.0
C1049 C 0.91618 0.22742 0.08143 0.0
C1050 C 0.93192 0.21123 0.14355 0.0
H1051 H 0.88271 0.26171 0.05545 0.0
H1052 H 0.91626 0.2196 0.01767 0.0
C1053 C 0.93148 0.22234 0.2253 0.0
C1054 C 0.54175 0.16375 0.35317 0.0
C1055 C 0.55718 0.17918 0.41737 0.0
H1056 H 0.50794 0.1301 0.32251 0.0
C1057 C 0.54548 0.17743 0.49852 0.0
H1058 H 0.55005 0.16478 0.28986 0.0
C1059 C 0.52145 0.15755 0.51678 0.0
C1060 C 0.50835 0.13969 0.45409 0.0
H1061 H 0.55659 0.18925 0.54927 0.0
H1062 H 0.51468 0.1544 0.58096 0.0
C1063 C 0.51751 0.14398 0.37157 0.0
C1064 C 0.41771 0.22659 0.4471 0.0
C1065 C 0.43219 0.21065 0.38231 0.0
H1066 H 0.38448 0.26032 0.47928 0.0
C1067 C 0.42919 0.22146 0.30062 0.0
H1068 H 0.41978 0.21902 0.51084 0.0
C1069 C 0.40886 0.245 0.28295 0.0
C1070 C 0.3918 0.25852 0.34669 0.0
H1071 H 0.44029 0.20995 0.24934 0.0
H1072 H 0.40476 0.25109 0.21872 0.0
C1073 C 0.39751 0.25034 0.42925 0.0
C1074 C 0.01547 0.1432 0.15523 0.0
C1075 C 1.00708 0.13965 0.07191 0.0
H1076 H 0.04746 0.16287 0.24025 0.0
C1077 C 0.02116 0.15772 1.01107 0.0
H1078 H 1.00519 0.12916 0.20291 0.0
C1079 C 0.04534 0.17703 0.032 0.0
C1080 C 0.0562 0.17802 0.11404 0.0
H1081 H 0.01502 0.15514 0.94629 0.0
H1082 H 0.0572 0.18899 0.98264 0.0
C1083 C 0.03982 0.16242 0.17632 0.0
C1084 C 0.10252 0.79035 0.93415 0.0
C1085 C 0.08808 0.80579 0.86841 0.0
H1086 H 0.13544 0.75656 0.96823 0.0
C1087 C 0.09053 0.79397 0.78767 0.0
H1088 H 0.10081 0.79868 0.99725 0.0
C1089 C 0.11045 0.76996 0.77146 0.0
C1090 C 0.12765 0.75701 0.83579 0.0
H1091 H 0.0794 0.80505 0.73576 0.0
H1092 H 0.11428 0.76314 0.70765 0.0
C1093 C 0.12231 0.76611 0.91779 0.0
C1094 C 0.47543 0.83848 0.52455 0.0
C1095 C 0.46358 0.83677 0.60555 0.0
H1096 H 0.50668 0.86119 0.44269 0.0
C1097 C 0.47919 0.85185 0.67008 0.0
H1098 H 0.46418 0.82693 0.47354 0.0
C1099 C 0.50377 0.87126 0.65217 0.0
C1100 C 0.51311 0.87557 0.5698 0.0
H1101 H 0.4708 0.85082 0.73331 0.0
H1102 H 0.51347 0.88491 0.70151 0.0
C1103 C 0.4998 0.85801 0.50678 0.0
loop_
_geom_bond_atom_site_label_1
_geom_bond_atom_site_label_2
_geom_bond_distance
_geom_bond_site_symmetry_2
_ccdc_geom_bond_type
Zn0 N4 2.020 . S
Zn0 O8 2.019 . S
Zn0 N10 2.119 . S
Zn0 O18 1.975 . S
C1 N2 1.334 . S
C1 N5 1.336 . S
N2 C1 1.334 . S
N2 C3 1.334 . S
C3 N2 1.334 . S
C3 N4 1.336 . S
N4 Zn0 2.020 . S
N4 C3 1.336 . S
N4 N5 1.354 . S
N5 C1 1.336 . S
N5 N4 1.354 . S
N5 Zn9 2.020 . S
C6 O7 1.244 . S
C6 O30 1.257 . S
O7 C6 1.244 . S
O8 Zn0 2.019 . S
O8 C28 1.257 . S
Zn9 N5 2.020 . S
Zn9 O16 1.975 . S
Zn9 N25 2.119 . S
Zn9 O30 2.019 . S
N10 Zn0 2.119 . S
N10 C12 1.334 . S
N10 C13 1.328 1_554 S
C11 C12 1.391 1_556 S
C11 N14 1.329 . S
C11 H32 0.930 . S
C12 N10 1.334 . S
C12 C11 1.391 1_554 S
C12 H19 0.930 . S
C13 N10 1.328 1_556 S
C13 C15 1.392 . S
C13 H20 0.930 . S
N14 C11 1.329 . S
N14 C15 1.331 . S
C15 C13 1.392 . S
C15 N14 1.331 . S
O16 Zn9 1.975 . S
O16 C17 1.252 . S
C17 O16 1.252 . S
C17 O18 1.252 . S
O18 Zn0 1.975 . S
O18 C17 1.252 . S
H19 C12 0.930 . S
H20 C13 0.930 . S
C21 C22 1.392 . S
C21 N25 1.328 . S
C21 H27 0.930 . S
C22 C21 1.392 . S
C22 N26 1.331 . S
C23 C24 1.391 . S
C23 N26 1.329 . S
C23 H33 0.930 . S
C24 C23 1.391 . S
C24 N25 1.334 . S
C24 H31 0.930 . S
N25 Zn9 2.119 . S
N25 C21 1.328 . S
N25 C24 1.334 . S
N26 C22 1.331 . S
N26 C23 1.329 . S
H27 C21 0.930 . S
C28 O8 1.257 . S
C28 O29 1.244 . S
O29 C28 1.244 . S
O30 C6 1.257 . S
O30 Zn9 2.019 . S
H31 C24 0.930 . S
H32 C11 0.930 . S
H33 C23 0.930 . S
Zn34 N38 2.020 . S
Zn34 O42 2.019 . S
Zn34 N44 2.119 . S
Zn34 O52 1.975 . S
C35 N36 1.334 . S
C35 N39 1.336 . S
N36 C35 1.334 . S
N36 C37 1.334 . S
C37 N36 1.334 . S
C37 N38 1.336 . S
N38 Zn34 2.020 . S
N38 C37 1.336 . S
N38 N39 1.354 . S
N39 C35 1.336 . S
N39 N38 1.354 . S
N39 Zn43 2.020 . S
C40 O41 1.244 . S
C40 O64 1.257 . S
O41 C40 1.244 . S
O42 Zn34 2.019 . S
O42 C62 1.257 . S
Zn43 N39 2.020 . S
Zn43 O50 1.975 . S
Zn43 N59 2.119 . S
Zn43 O64 2.019 . S
N44 Zn34 2.119 . S
N44 C46 1.334 . S
N44 C47 1.328 . S
C45 C46 1.391 . S
C45 N48 1.329 . S
C45 H66 0.930 . S
C46 N44 1.334 . S
C46 C45 1.391 . S
C46 H53 0.930 . S
C47 N44 1.328 . S
C47 C49 1.392 . S
C47 H54 0.930 . S
N48 C45 1.329 . S
N48 C49 1.331 . S
C49 C47 1.392 . S
C49 N48 1.331 . S
O50 Zn43 1.975 . S
O50 C51 1.252 . S
C51 O50 1.252 . S
C51 O52 1.252 . S
O52 Zn34 1.975 . S
O52 C51 1.252 . S
H53 C46 0.930 . S
H54 C47 0.930 . S
C55 C56 1.392 . S
C55 N59 1.328 . S
C55 H61 0.930 . S
C56 C55 1.392 . S
C56 N60 1.331 . S
C57 C58 1.391 . S
C57 N60 1.329 . S
C57 H67 0.930 . S
C58 C57 1.391 . S
C58 N59 1.334 . S
C58 H65 0.930 . S
N59 Zn43 2.119 . S
N59 C55 1.328 . S
N59 C58 1.334 . S
N60 C56 1.331 . S
N60 C57 1.329 . S
H61 C55 0.930 . S
C62 O42 1.257 . S
C62 O63 1.244 . S
O63 C62 1.244 . S
O64 C40 1.257 . S
O64 Zn43 2.019 . S
H65 C58 0.930 . S
H66 C45 0.930 . S
H67 C57 0.930 . S
Zn68 N72 2.020 . S
Zn68 O76 2.019 . S
Zn68 N78 2.119 . S
Zn68 O86 1.975 . S
C69 N70 1.334 . S
C69 N73 1.336 . S
N70 C69 1.334 . S
N70 C71 1.334 . S
C71 N70 1.334 . S
C71 N72 1.336 . S
N72 Zn68 2.020 . S
N72 C71 1.336 . S
N72 N73 1.354 . S
N73 C69 1.336 . S
N73 N72 1.354 . S
N73 Zn77 2.020 . S
C74 O75 1.244 . S
C74 O98 1.257 . S
O75 C74 1.244 . S
O76 Zn68 2.019 . S
O76 C96 1.257 . S
Zn77 N73 2.020 . S
Zn77 O84 1.975 . S
Zn77 N93 2.119 . S
Zn77 O98 2.019 . S
N78 Zn68 2.119 . S
N78 C80 1.334 . S
N78 C81 1.328 . S
C79 C80 1.391 . S
C79 N82 1.329 . S
C79 H100 0.930 . S
C80 N78 1.334 . S
C80 C79 1.391 . S
C80 H87 0.930 . S
C81 N78 1.328 . S
C81 C83 1.392 . S
C81 H88 0.930 . S
N82 C79 1.329 . S
N82 C83 1.331 . S
C83 C81 1.392 . S
C83 N82 1.331 . S
O84 Zn77 1.975 . S
O84 C85 1.252 . S
C85 O84 1.252 . S
C85 O86 1.252 . S
O86 Zn68 1.975 . S
O86 C85 1.252 . S
H87 C80 0.930 . S
H88 C81 0.930 . S
C89 C90 1.392 1_556 S
C89 N93 1.328 . S
C89 H95 0.930 . S
C90 C89 1.392 1_554 S
C90 N94 1.331 . S
C91 C92 1.391 . S
C91 N94 1.329 1_556 S
C91 H101 0.930 . S
C92 C91 1.391 . S
C92 N93 1.334 . S
C92 H99 0.930 . S
N93 Zn77 2.119 . S
N93 C89 1.328 . S
N93 C92 1.334 . S
N94 C90 1.331 . S
N94 C91 1.329 1_554 S
H95 C89 0.930 . S
C96 O76 1.257 . S
C96 O97 1.244 . S
O97 C96 1.244 . S
O98 C74 1.257 . S
O98 Zn77 2.019 . S
H99 C92 0.930 . S
H100 C79 0.930 . S
H101 C91 0.930 . S
Zn102 N106 2.020 . S
Zn102 O110 2.019 . S
Zn102 N112 2.119 . S
Zn102 O120 1.975 . S
C103 N104 1.334 . S
C103 N107 1.336 . S
N104 C103 1.334 . S
N104 C105 1.334 1_556 S
C105 N104 1.334 1_554 S
C105 N106 1.336 . S
N106 Zn102 2.020 . S
N106 C105 1.336 . S
N106 N107 1.354 1_554 S
N107 C103 1.336 . S
N107 N106 1.354 1_556 S
N107 Zn111 2.020 . S
C108 O109 1.244 . S
C108 O132 1.257 . S
O109 C108 1.244 . S
O110 Zn102 2.019 . S
O110 C130 1.257 . S
Zn111 N107 2.020 . S
Zn111 O118 1.975 . S
Zn111 N127 2.119 . S
Zn111 O132 2.019 . S
N112 Zn102 2.119 . S
N112 C114 1.334 . S
N112 C115 1.328 . S
C113 C114 1.391 . S
C113 N116 1.329 . S
C113 H134 0.930 . S
C114 N112 1.334 . S
C114 C113 1.391 . S
C114 H121 0.930 . S
C115 N112 1.328 . S
C115 C117 1.392 . S
C115 H122 0.930 . S
N116 C113 1.329 . S
N116 C117 1.331 . S
C117 C115 1.392 . S
C117 N116 1.331 . S
O118 Zn111 1.975 . S
O118 C119 1.252 . S
C119 O118 1.252 . S
C119 O120 1.252 1_556 S
O120 Zn102 1.975 . S
O120 C119 1.252 1_554 S
H121 C114 0.930 . S
H122 C115 0.930 . S
C123 C124 1.392 . S
C123 N127 1.328 . S
C123 H129 0.930 . S
C124 C123 1.392 . S
C124 N128 1.331 . S
C125 C126 1.391 . S
C125 N128 1.329 . S
C125 H135 0.930 . S
C126 C125 1.391 . S
C126 N127 1.334 . S
C126 H133 0.930 . S
N127 Zn111 2.119 . S
N127 C123 1.328 . S
N127 C126 1.334 . S
N128 C124 1.331 . S
N128 C125 1.329 . S
H129 C123 0.930 . S
C130 O110 1.257 . S
C130 O131 1.244 . S
O131 C130 1.244 . S
O132 C108 1.257 . S
O132 Zn111 2.019 . S
H133 C126 0.930 . S
H134 C113 0.930 . S
H135 C125 0.930 . S
Zn136 N140 2.020 . S
Zn136 O144 2.019 . S
Zn136 N146 2.119 . S
Zn136 O154 1.975 . S
C137 N138 1.334 . S
C137 N141 1.336 . S
N138 C137 1.334 . S
N138 C139 1.334 . S
C139 N138 1.334 . S
C139 N140 1.336 . S
N140 Zn136 2.020 . S
N140 C139 1.336 . S
N140 N141 1.354 . S
N141 C137 1.336 . S
N141 N140 1.354 . S
N141 Zn145 2.020 . S
C142 O143 1.244 . S
C142 O166 1.257 . S
O143 C142 1.244 . S
O144 Zn136 2.019 . S
O144 C164 1.257 . S
Zn145 N141 2.020 . S
Zn145 O152 1.975 . S
Zn145 N161 2.119 . S
Zn145 O166 2.019 . S
N146 Zn136 2.119 . S
N146 C148 1.334 . S
N146 C149 1.328 . S
C147 C148 1.391 . S
C147 N150 1.329 . S
C147 H168 0.930 . S
C148 N146 1.334 . S
C148 C147 1.391 . S
C148 H155 0.930 . S
C149 N146 1.328 . S
C149 C151 1.392 . S
C149 H156 0.930 . S
N150 C147 1.329 . S
N150 C151 1.331 . S
C151 C149 1.392 . S
C151 N150 1.331 . S
O152 Zn145 1.975 . S
O152 C153 1.252 . S
C153 O152 1.252 . S
C153 O154 1.252 . S
O154 Zn136 1.975 . S
O154 C153 1.252 . S
H155 C148 0.930 . S
H156 C149 0.930 . S
C157 C158 1.392 . S
C157 N161 1.328 1_554 S
C157 H163 0.930 . S
C158 C157 1.392 . S
C158 N162 1.331 . S
C159 C160 1.391 1_554 S
C159 N162 1.329 . S
C159 H169 0.930 . S
C160 C159 1.391 1_556 S
C160 N161 1.334 . S
C160 H167 0.930 . S
N161 Zn145 2.119 . S
N161 C157 1.328 1_556 S
N161 C160 1.334 . S
N162 C158 1.331 . S
N162 C159 1.329 . S
H163 C157 0.930 . S
C164 O144 1.257 . S
C164 O165 1.244 . S
O165 C164 1.244 . S
O166 C142 1.257 . S
O166 Zn145 2.019 . S
H167 C160 0.930 . S
H168 C147 0.930 . S
H169 C159 0.930 . S
Zn170 N174 2.020 . S
Zn170 O178 2.019 . S
Zn170 N180 2.119 . S
Zn170 O188 1.975 . S
C171 N172 1.334 . S
C171 N175 1.336 . S
N172 C171 1.334 . S
N172 C173 1.334 . S
C173 N172 1.334 . S
C173 N174 1.336 . S
N174 Zn170 2.020 . S
N174 C173 1.336 . S
N174 N175 1.354 . S
N175 C171 1.336 . S
N175 N174 1.354 . S
N175 Zn179 2.020 . S
C176 O177 1.244 . S
C176 O200 1.257 . S
O177 C176 1.244 . S
O178 Zn170 2.019 . S
O178 C198 1.257 . S
Zn179 N175 2.020 . S
Zn179 O186 1.975 . S
Zn179 N195 2.119 . S
Zn179 O200 2.019 . S
N180 Zn170 2.119 . S
N180 C182 1.334 . S
N180 C183 1.328 . S
C181 C182 1.391 . S
C181 N184 1.329 . S
C181 H202 0.930 . S
C182 N180 1.334 . S
C182 C181 1.391 . S
C182 H189 0.930 . S
C183 N180 1.328 . S
C183 C185 1.392 . S
C183 H190 0.930 . S
N184 C181 1.329 . S
N184 C185 1.331 . S
C185 C183 1.392 . S
C185 N184 1.331 . S
O186 Zn179 1.975 . S
O186 C187 1.252 . S
C187 O186 1.252 . S
C187 O188 1.252 . S
O188 Zn170 1.975 . S
O188 C187 1.252 . S
H189 C182 0.930 . S
H190 C183 0.930 . S
C191 C192 1.392 . S
C191 N195 1.328 . S
C191 H197 0.930 . S
C192 C191 1.392 . S
C192 N196 1.331 . S
C193 C194 1.391 . S
C193 N196 1.329 . S
C193 H203 0.930 . S
C194 C193 1.391 . S
C194 N195 1.334 . S
C194 H201 0.930 . S
N195 Zn179 2.119 . S
N195 C191 1.328 . S
N195 C194 1.334 . S
N196 C192 1.331 . S
N196 C193 1.329 . S
H197 C191 0.930 . S
C198 O178 1.257 . S
C198 O199 1.244 . S
O199 C198 1.244 . S
O200 C176 1.257 . S
O200 Zn179 2.019 . S
H201 C194 0.930 . S
H202 C181 0.930 . S
H203 C193 0.930 . S
Zn204 N208 2.020 . S
Zn204 O212 2.019 . S
Zn204 N214 2.119 . S
Zn204 O222 1.975 . S
C205 N206 1.334 . S
C205 N209 1.336 . S
N206 C205 1.334 . S
N206 C207 1.334 . S
C207 N206 1.334 . S
C207 N208 1.336 . S
N208 Zn204 2.020 . S
N208 C207 1.336 . S
N208 N209 1.354 . S
N209 C205 1.336 . S
N209 N208 1.354 . S
N209 Zn213 2.020 . S
C210 O211 1.244 . S
C210 O234 1.257 . S
O211 C210 1.244 . S
O212 Zn204 2.019 . S
O212 C232 1.257 . S
Zn213 N209 2.020 . S
Zn213 O220 1.975 . S
Zn213 N229 2.119 . S
Zn213 O234 2.019 . S
N214 Zn204 2.119 . S
N214 C216 1.334 . S
N214 C217 1.328 . S
C215 C216 1.391 . S
C215 N218 1.329 1_554 S
C215 H236 0.930 . S
C216 N214 1.334 . S
C216 C215 1.391 . S
C216 H223 0.930 . S
C217 N214 1.328 . S
C217 C219 1.392 1_554 S
C217 H224 0.930 . S
N218 C215 1.329 1_556 S
N218 C219 1.331 . S
C219 C217 1.392 1_556 S
C219 N218 1.331 . S
O220 Zn213 1.975 . S
O220 C221 1.252 . S
C221 O220 1.252 . S
C221 O222 1.252 . S
O222 Zn204 1.975 . S
O222 C221 1.252 . S
H223 C216 0.930 . S
H224 C217 0.930 . S
C225 C226 1.392 . S
C225 N229 1.328 . S
C225 H231 0.930 . S
C226 C225 1.392 . S
C226 N230 1.331 . S
C227 C228 1.391 . S
C227 N230 1.329 . S
C227 H237 0.930 . S
C228 C227 1.391 . S
C228 N229 1.334 . S
C228 H235 0.930 . S
N229 Zn213 2.119 . S
N229 C225 1.328 . S
N229 C228 1.334 . S
N230 C226 1.331 . S
N230 C227 1.329 . S
H231 C225 0.930 . S
C232 O212 1.257 . S
C232 O233 1.244 . S
O233 C232 1.244 . S
O234 C210 1.257 . S
O234 Zn213 2.019 . S
H235 C228 0.930 . S
H236 C215 0.930 . S
H237 C227 0.930 . S
Zn238 N242 2.020 . S
Zn238 O246 2.019 . S
Zn238 N248 2.119 . S
Zn238 O256 1.975 . S
C239 N240 1.334 1_556 S
C239 N243 1.336 . S
N240 C239 1.334 1_554 S
N240 C241 1.334 . S
C241 N240 1.334 . S
C241 N242 1.336 . S
N242 Zn238 2.020 . S
N242 C241 1.336 . S
N242 N243 1.354 1_554 S
N243 C239 1.336 . S
N243 N242 1.354 1_556 S
N243 Zn247 2.020 . S
C244 O245 1.244 . S
C244 O268 1.257 . S
O245 C244 1.244 . S
O246 Zn238 2.019 . S
O246 C266 1.257 . S
Zn247 N243 2.020 . S
Zn247 O254 1.975 . S
Zn247 N263 2.119 . S
Zn247 O268 2.019 . S
N248 Zn238 2.119 . S
N248 C250 1.334 . S
N248 C251 1.328 . S
C249 C250 1.391 . S
C249 N252 1.329 . S
C249 H270 0.930 . S
C250 N248 1.334 . S
C250 C249 1.391 . S
C250 H257 0.930 . S
C251 N248 1.328 . S
C251 C253 1.392 . S
C251 H258 0.930 . S
N252 C249 1.329 . S
N252 C253 1.331 . S
C253 C251 1.392 . S
C253 N252 1.331 . S
O254 Zn247 1.975 . S
O254 C255 1.252 1_556 S
C255 O254 1.252 1_554 S
C255 O256 1.252 . S
O256 Zn238 1.975 . S
O256 C255 1.252 . S
H257 C250 0.930 . S
H258 C251 0.930 . S
C259 C260 1.392 . S
C259 N263 1.328 . S
C259 H265 0.930 . S
C260 C259 1.392 . S
C260 N264 1.331 . S
C261 C262 1.391 . S
C261 N264 1.329 . S
C261 H271 0.930 . S
C262 C261 1.391 . S
C262 N263 1.334 . S
C262 H269 0.930 . S
N263 Zn247 2.119 . S
N263 C259 1.328 . S
N263 C262 1.334 . S
N264 C260 1.331 . S
N264 C261 1.329 . S
H265 C259 0.930 . S
C266 O246 1.257 . S
C266 O267 1.244 . S
O267 C266 1.244 . S
O268 C244 1.257 . S
O268 Zn247 2.019 . S
H269 C262 0.930 . S
H270 C249 0.930 . S
H271 C261 0.930 . S
Zn272 N276 2.020 . S
Zn272 O280 2.019 . S
Zn272 N282 2.119 . S
Zn272 O290 1.975 . S
C273 N274 1.334 . S
C273 N277 1.336 . S
N274 C273 1.334 . S
N274 C275 1.334 . S
C275 N274 1.334 . S
C275 N276 1.336 . S
N276 Zn272 2.020 . S
N276 C275 1.336 . S
N276 N277 1.354 . S
N277 C273 1.336 . S
N277 N276 1.354 . S
N277 Zn281 2.020 . S
C278 O279 1.244 . S
C278 O302 1.257 . S
O279 C278 1.244 . S
O280 Zn272 2.019 . S
O280 C300 1.257 . S
Zn281 N277 2.020 . S
Zn281 O288 1.975 . S
Zn281 N297 2.119 . S
Zn281 O302 2.019 . S
N282 Zn272 2.119 . S
N282 C284 1.334 . S
N282 C285 1.328 . S
C283 C284 1.391 . S
C283 N286 1.329 . S
C283 H304 0.930 . S
C284 N282 1.334 . S
C284 C283 1.391 . S
C284 H291 0.930 . S
C285 N282 1.328 . S
C285 C287 1.392 . S
C285 H292 0.930 . S
N286 C283 1.329 . S
N286 C287 1.331 . S
C287 C285 1.392 . S
C287 N286 1.331 . S
O288 Zn281 1.975 . S
O288 C289 1.252 . S
C289 O288 1.252 . S
C289 O290 1.252 . S
O290 Zn272 1.975 . S
O290 C289 1.252 . S
H291 C284 0.930 . S
H292 C285 0.930 . S
C293 C294 1.392 1_556 S
C293 N297 1.328 . S
C293 H299 0.930 . S
C294 C293 1.392 1_554 S
C294 N298 1.331 . S
C295 C296 1.391 . S
C295 N298 1.329 1_556 S
C295 H305 0.930 . S
C296 C295 1.391 . S
C296 N297 1.334 . S
C296 H303 0.930 . S
N297 Zn281 2.119 . S
N297 C293 1.328 . S
N297 C296 1.334 . S
N298 C294 1.331 . S
N298 C295 1.329 1_554 S
H299 C293 0.930 . S
C300 O280 1.257 . S
C300 O301 1.244 . S
O301 C300 1.244 . S
O302 C278 1.257 . S
O302 Zn281 2.019 . S
H303 C296 0.930 . S
H304 C283 0.930 . S
H305 C295 0.930 . S
Zn306 N310 2.020 . S
Zn306 O314 2.019 . S
Zn306 N316 2.119 . S
Zn306 O324 1.975 . S
C307 N308 1.334 1_554 S
C307 N311 1.336 . S
N308 C307 1.334 1_556 S
N308 C309 1.334 . S
C309 N308 1.334 . S
C309 N310 1.336 . S
N310 Zn306 2.020 . S
N310 C309 1.336 . S
N310 N311 1.354 1_556 S
N311 C307 1.336 . S
N311 N310 1.354 1_554 S
N311 Zn315 2.020 . S
C312 O313 1.244 . S
C312 O336 1.257 . S
O313 C312 1.244 . S
O314 Zn306 2.019 . S
O314 C334 1.257 . S
Zn315 N311 2.020 . S
Zn315 O322 1.975 . S
Zn315 N331 2.119 . S
Zn315 O336 2.019 . S
N316 Zn306 2.119 . S
N316 C318 1.334 . S
N316 C319 1.328 . S
C317 C318 1.391 . S
C317 N320 1.329 . S
C317 H338 0.930 . S
C318 N316 1.334 . S
C318 C317 1.391 . S
C318 H325 0.930 . S
C319 N316 1.328 . S
C319 C321 1.392 . S
C319 H326 0.930 . S
N320 C317 1.329 . S
N320 C321 1.331 . S
C321 C319 1.392 . S
C321 N320 1.331 . S
O322 Zn315 1.975 . S
O322 C323 1.252 1_554 S
C323 O322 1.252 1_556 S
C323 O324 1.252 . S
O324 Zn306 1.975 . S
O324 C323 1.252 . S
H325 C318 0.930 . S
H326 C319 0.930 . S
C327 C328 1.392 . S
C327 N331 1.328 . S
C327 H333 0.930 . S
C328 C327 1.392 . S
C328 N332 1.331 . S
C329 C330 1.391 . S
C329 N332 1.329 . S
C329 H339 0.930 . S
C330 C329 1.391 . S
C330 N331 1.334 . S
C330 H337 0.930 . S
N331 Zn315 2.119 . S
N331 C327 1.328 . S
N331 C330 1.334 . S
N332 C328 1.331 . S
N332 C329 1.329 . S
H333 C327 0.930 . S
C334 O314 1.257 . S
C334 O335 1.244 . S
O335 C334 1.244 . S
O336 C312 1.257 . S
O336 Zn315 2.019 . S
H337 C330 0.930 . S
H338 C317 0.930 . S
H339 C329 0.930 . S
Zn340 N344 2.020 . S
Zn340 O348 2.019 . S
Zn340 N350 2.119 . S
Zn340 O358 1.975 . S
C341 N342 1.334 . S
C341 N345 1.336 . S
N342 C341 1.334 . S
N342 C343 1.334 . S
C343 N342 1.334 . S
C343 N344 1.336 . S
N344 Zn340 2.020 . S
N344 C343 1.336 . S
N344 N345 1.354 . S
N345 C341 1.336 . S
N345 N344 1.354 . S
N345 Zn349 2.020 . S
C346 O347 1.244 . S
C346 O370 1.257 . S
O347 C346 1.244 . S
O348 Zn340 2.019 . S
O348 C368 1.257 . S
Zn349 N345 2.020 . S
Zn349 O356 1.975 . S
Zn349 N365 2.119 . S
Zn349 O370 2.019 . S
N350 Zn340 2.119 . S
N350 C352 1.334 . S
N350 C353 1.328 1_554 S
C351 C352 1.391 1_556 S
C351 N354 1.329 . S
C351 H372 0.930 . S
C352 N350 1.334 . S
C352 C351 1.391 1_554 S
C352 H359 0.930 . S
C353 N350 1.328 1_556 S
C353 C355 1.392 . S
C353 H360 0.930 . S
N354 C351 1.329 . S
N354 C355 1.331 . S
C355 C353 1.392 . S
C355 N354 1.331 . S
O356 Zn349 1.975 . S
O356 C357 1.252 . S
C357 O356 1.252 . S
C357 O358 1.252 . S
O358 Zn340 1.975 . S
O358 C357 1.252 . S
H359 C352 0.930 . S
H360 C353 0.930 . S
C361 C362 1.392 . S
C361 N365 1.328 . S
C361 H367 0.930 . S
C362 C361 1.392 . S
C362 N366 1.331 . S
C363 C364 1.391 . S
C363 N366 1.329 . S
C363 H373 0.930 . S
C364 C363 1.391 . S
C364 N365 1.334 . S
C364 H371 0.930 . S
N365 Zn349 2.119 . S
N365 C361 1.328 . S
N365 C364 1.334 . S
N366 C362 1.331 . S
N366 C363 1.329 . S
H367 C361 0.930 . S
C368 O348 1.257 . S
C368 O369 1.244 . S
O369 C368 1.244 . S
O370 C346 1.257 . S
O370 Zn349 2.019 . S
H371 C364 0.930 . S
H372 C351 0.930 . S
H373 C363 0.930 . S
Zn374 N378 2.020 . S
Zn374 O382 2.019 . S
Zn374 N384 2.119 . S
Zn374 O392 1.975 . S
C375 N376 1.334 . S
C375 N379 1.336 . S
N376 C375 1.334 . S
N376 C377 1.334 . S
C377 N376 1.334 . S
C377 N378 1.336 . S
N378 Zn374 2.020 . S
N378 C377 1.336 . S
N378 N379 1.354 . S
N379 C375 1.336 . S
N379 N378 1.354 . S
N379 Zn383 2.020 . S
C380 O381 1.244 . S
C380 O404 1.257 . S
O381 C380 1.244 . S
O382 Zn374 2.019 . S
O382 C402 1.257 . S
Zn383 N379 2.020 . S
Zn383 O390 1.975 . S
Zn383 N399 2.119 . S
Zn383 O404 2.019 . S
N384 Zn374 2.119 . S
N384 C386 1.334 . S
N384 C387 1.328 . S
C385 C386 1.391 . S
C385 N388 1.329 . S
C385 H406 0.930 . S
C386 N384 1.334 . S
C386 C385 1.391 . S
C386 H393 0.930 . S
C387 N384 1.328 . S
C387 C389 1.392 . S
C387 H394 0.930 . S
N388 C385 1.329 . S
N388 C389 1.331 . S
C389 C387 1.392 . S
C389 N388 1.331 . S
O390 Zn383 1.975 . S
O390 C391 1.252 . S
C391 O390 1.252 . S
C391 O392 1.252 . S
O392 Zn374 1.975 . S
O392 C391 1.252 . S
H393 C386 0.930 . S
H394 C387 0.930 . S
C395 C396 1.392 . S
C395 N399 1.328 . S
C395 H401 0.930 . S
C396 C395 1.392 . S
C396 N400 1.331 . S
C397 C398 1.391 . S
C397 N400 1.329 . S
C397 H407 0.930 . S
C398 C397 1.391 . S
C398 N399 1.334 . S
C398 H405 0.930 . S
N399 Zn383 2.119 . S
N399 C395 1.328 . S
N399 C398 1.334 . S
N400 C396 1.331 . S
N400 C397 1.329 . S
H401 C395 0.930 . S
C402 O382 1.257 . S
C402 O403 1.244 . S
O403 C402 1.244 . S
O404 C380 1.257 . S
O404 Zn383 2.019 . S
H405 C398 0.930 . S
H406 C385 0.930 . S
H407 C397 0.930 . S
Zn408 N412 2.020 . S
Zn408 O416 2.019 . S
Zn408 N418 2.119 . S
Zn408 O426 1.975 . S
C409 N410 1.334 . S
C409 N413 1.336 . S
N410 C409 1.334 . S
N410 C411 1.334 . S
C411 N410 1.334 . S
C411 N412 1.336 . S
N412 Zn408 2.020 . S
N412 C411 1.336 . S
N412 N413 1.354 . S
N413 C409 1.336 . S
N413 N412 1.354 . S
N413 Zn417 2.020 . S
C414 O415 1.244 . S
C414 O438 1.257 . S
O415 C414 1.244 . S
O416 Zn408 2.019 . S
O416 C436 1.257 . S
Zn417 N413 2.020 . S
Zn417 O424 1.975 . S
Zn417 N433 2.119 . S
Zn417 O438 2.019 . S
N418 Zn408 2.119 . S
N418 C420 1.334 . S
N418 C421 1.328 . S
C419 C420 1.391 . S
C419 N422 1.329 1_554 S
C419 H440 0.930 . S
C420 N418 1.334 . S
C420 C419 1.391 . S
C420 H427 0.930 . S
C421 N418 1.328 . S
C421 C423 1.392 1_554 S
C421 H428 0.930 . S
N422 C419 1.329 1_556 S
N422 C423 1.331 . S
C423 C421 1.392 1_556 S
C423 N422 1.331 . S
O424 Zn417 1.975 . S
O424 C425 1.252 . S
C425 O424 1.252 . S
C425 O426 1.252 . S
O426 Zn408 1.975 . S
O426 C425 1.252 . S
H427 C420 0.930 . S
H428 C421 0.930 . S
C429 C430 1.392 . S
C429 N433 1.328 . S
C429 H435 0.930 . S
C430 C429 1.392 . S
C430 N434 1.331 . S
C431 C432 1.391 . S
C431 N434 1.329 . S
C431 H441 0.930 . S
C432 C431 1.391 . S
C432 N433 1.334 . S
C432 H439 0.930 . S
N433 Zn417 2.119 . S
N433 C429 1.328 . S
N433 C432 1.334 . S
N434 C430 1.331 . S
N434 C431 1.329 . S
H435 C429 0.930 . S
C436 O416 1.257 . S
C436 O437 1.244 . S
O437 C436 1.244 . S
O438 C414 1.257 . S
O438 Zn417 2.019 . S
H439 C432 0.930 . S
H440 C419 0.930 . S
H441 C431 0.930 . S
Zn442 N446 2.020 . S
Zn442 O450 2.019 . S
Zn442 N452 2.119 . S
Zn442 O460 1.975 . S
C443 N444 1.334 . S
C443 N447 1.336 . S
N444 C443 1.334 . S
N444 C445 1.334 1_554 S
C445 N444 1.334 1_556 S
C445 N446 1.336 . S
N446 Zn442 2.020 . S
N446 C445 1.336 . S
N446 N447 1.354 1_556 S
N447 C443 1.336 . S
N447 N446 1.354 1_554 S
N447 Zn451 2.020 . S
C448 O449 1.244 . S
C448 O472 1.257 . S
O449 C448 1.244 . S
O450 Zn442 2.019 . S
O450 C470 1.257 . S
Zn451 N447 2.020 . S
Zn451 O458 1.975 . S
Zn451 N467 2.119 . S
Zn451 O472 2.019 . S
N452 Zn442 2.119 . S
N452 C454 1.334 . S
N452 C455 1.328 . S
C453 C454 1.391 . S
C453 N456 1.329 . S
C453 H474 0.930 . S
C454 N452 1.334 . S
C454 C453 1.391 . S
C454 H461 0.930 . S
C455 N452 1.328 . S
C455 C457 1.392 . S
C455 H462 0.930 . S
N456 C453 1.329 . S
N456 C457 1.331 . S
C457 C455 1.392 . S
C457 N456 1.331 . S
O458 Zn451 1.975 . S
O458 C459 1.252 . S
C459 O458 1.252 . S
C459 O460 1.252 1_554 S
O460 Zn442 1.975 . S
O460 C459 1.252 1_556 S
H461 C454 0.930 . S
H462 C455 0.930 . S
C463 C464 1.392 . S
C463 N467 1.328 . S
C463 H469 0.930 . S
C464 C463 1.392 . S
C464 N468 1.331 . S
C465 C466 1.391 . S
C465 N468 1.329 . S
C465 H475 0.930 . S
C466 C465 1.391 . S
C466 N467 1.334 . S
C466 H473 0.930 . S
N467 Zn451 2.119 . S
N467 C463 1.328 . S
N467 C466 1.334 . S
N468 C464 1.331 . S
N468 C465 1.329 . S
H469 C463 0.930 . S
C470 O450 1.257 . S
C470 O471 1.244 . S
O471 C470 1.244 . S
O472 C448 1.257 . S
O472 Zn451 2.019 . S
H473 C466 0.930 . S
H474 C453 0.930 . S
H475 C465 0.930 . S
Zn476 N480 2.020 . S
Zn476 O484 2.019 . S
Zn476 N486 2.119 . S
Zn476 O494 1.975 . S
C477 N478 1.334 . S
C477 N481 1.336 . S
N478 C477 1.334 . S
N478 C479 1.334 . S
C479 N478 1.334 . S
C479 N480 1.336 . S
N480 Zn476 2.020 . S
N480 C479 1.336 . S
N480 N481 1.354 . S
N481 C477 1.336 . S
N481 N480 1.354 . S
N481 Zn485 2.020 . S
C482 O483 1.244 . S
C482 O506 1.257 . S
O483 C482 1.244 . S
O484 Zn476 2.019 . S
O484 C504 1.257 . S
Zn485 N481 2.020 . S
Zn485 O492 1.975 . S
Zn485 N501 2.119 . S
Zn485 O506 2.019 . S
N486 Zn476 2.119 . S
N486 C488 1.334 . S
N486 C489 1.328 . S
C487 C488 1.391 . S
C487 N490 1.329 . S
C487 H508 0.930 . S
C488 N486 1.334 . S
C488 C487 1.391 . S
C488 H495 0.930 . S
C489 N486 1.328 . S
C489 C491 1.392 . S
C489 H496 0.930 . S
N490 C487 1.329 . S
N490 C491 1.331 . S
C491 C489 1.392 . S
C491 N490 1.331 . S
O492 Zn485 1.975 . S
O492 C493 1.252 . S
C493 O492 1.252 . S
C493 O494 1.252 . S
O494 Zn476 1.975 . S
O494 C493 1.252 . S
H495 C488 0.930 . S
H496 C489 0.930 . S
C497 C498 1.392 . S
C497 N501 1.328 1_554 S
C497 H503 0.930 . S
C498 C497 1.392 . S
C498 N502 1.331 . S
C499 C500 1.391 1_554 S
C499 N502 1.329 . S
C499 H509 0.930 . S
C500 C499 1.391 1_556 S
C500 N501 1.334 . S
C500 H507 0.930 . S
N501 Zn485 2.119 . S
N501 C497 1.328 1_556 S
N501 C500 1.334 . S
N502 C498 1.331 . S
N502 C499 1.329 . S
H503 C497 0.930 . S
C504 O484 1.257 . S
C504 O505 1.244 . S
O505 C504 1.244 . S
O506 C482 1.257 . S
O506 Zn485 2.019 . S
H507 C500 0.930 . S
H508 C487 0.930 . S
H509 C499 0.930 . S
Zn510 N514 2.020 . S
Zn510 O518 2.019 . S
Zn510 N520 2.119 . S
Zn510 O528 1.975 . S
C511 N512 1.334 . S
C511 N515 1.336 . S
N512 C511 1.334 . S
N512 C513 1.334 . S
C513 N512 1.334 . S
C513 N514 1.336 . S
N514 Zn510 2.020 . S
N514 C513 1.336 . S
N514 N515 1.354 . S
N515 C511 1.336 . S
N515 N514 1.354 . S
N515 Zn519 2.020 . S
C516 O517 1.244 . S
C516 O540 1.257 . S
O517 C516 1.244 . S
O518 Zn510 2.019 . S
O518 C538 1.257 . S
Zn519 N515 2.020 . S
Zn519 O526 1.975 . S
Zn519 N535 2.119 . S
Zn519 O540 2.019 . S
N520 Zn510 2.119 . S
N520 C522 1.334 . S
N520 C523 1.328 . S
C521 C522 1.391 . S
C521 N524 1.329 . S
C521 H542 0.930 . S
C522 N520 1.334 . S
C522 C521 1.391 . S
C522 H529 0.930 . S
C523 N520 1.328 . S
C523 C525 1.392 . S
C523 H530 0.930 . S
N524 C521 1.329 . S
N524 C525 1.331 . S
C525 C523 1.392 . S
C525 N524 1.331 . S
O526 Zn519 1.975 . S
O526 C527 1.252 . S
C527 O526 1.252 . S
C527 O528 1.252 . S
O528 Zn510 1.975 . S
O528 C527 1.252 . S
H529 C522 0.930 . S
H530 C523 0.930 . S
C531 C532 1.392 . S
C531 N535 1.328 . S
C531 H537 0.930 . S
C532 C531 1.392 . S
C532 N536 1.331 . S
C533 C534 1.391 . S
C533 N536 1.329 . S
C533 H543 0.930 . S
C534 C533 1.391 . S
C534 N535 1.334 . S
C534 H541 0.930 . S
N535 Zn519 2.119 . S
N535 C531 1.328 . S
N535 C534 1.334 . S
N536 C532 1.331 . S
N536 C533 1.329 . S
H537 C531 0.930 . S
C538 O518 1.257 . S
C538 O539 1.244 . S
O539 C538 1.244 . S
O540 C516 1.257 . S
O540 Zn519 2.019 . S
H541 C534 0.930 . S
H542 C521 0.930 . S
H543 C533 0.930 . S
C544 C545 1.387 . S
C544 H548 0.950 . S
C544 C553 1.390 . S
C545 C544 1.387 . S
C545 C547 1.387 . S
H546 C553 0.950 . S
C547 C545 1.387 . S
C547 C549 1.390 . S
C547 H551 0.950 . S
H548 C544 0.950 . S
C549 C547 1.390 . S
C549 C550 1.387 . S
C549 H552 0.950 . S
C550 C549 1.387 . S
C550 C553 1.387 . S
H551 C547 0.950 . S
H552 C549 0.950 . S
C553 C544 1.390 . S
C553 H546 0.950 . S
C553 C550 1.387 . S
C554 C555 1.387 . S
C554 H558 0.950 . S
C554 C563 1.390 1_556 S
C555 C554 1.387 . S
C555 C557 1.387 . S
H556 C563 0.950 . S
C557 C555 1.387 . S
C557 C559 1.390 1_556 S
C557 H561 0.950 . S
H558 C554 0.950 . S
C559 C557 1.390 1_554 S
C559 C560 1.387 . S
C559 H562 0.950 . S
C560 C559 1.387 . S
C560 C563 1.387 . S
H561 C557 0.950 . S
H562 C559 0.950 . S
C563 C554 1.390 1_554 S
C563 H556 0.950 . S
C563 C560 1.387 . S
C564 C565 1.387 . S
C564 H568 0.950 . S
C564 C573 1.390 . S
C565 C564 1.387 . S
C565 C567 1.387 . S
H566 C573 0.950 . S
C567 C565 1.387 . S
C567 C569 1.390 . S
C567 H571 0.950 . S
H568 C564 0.950 . S
C569 C567 1.390 . S
C569 C570 1.387 . S
C569 H572 0.950 . S
C570 C569 1.387 . S
C570 C573 1.387 . S
H571 C567 0.950 . S
H572 C569 0.950 . S
C573 C564 1.390 . S
C573 H566 0.950 . S
C573 C570 1.387 . S
C574 C575 1.387 . S
C574 H578 0.950 . S
C574 C583 1.390 . S
C575 C574 1.387 . S
C575 C577 1.387 . S
H576 C583 0.950 . S
C577 C575 1.387 . S
C577 C579 1.390 . S
C577 H581 0.950 . S
H578 C574 0.950 . S
C579 C577 1.390 . S
C579 C580 1.387 . S
C579 H582 0.950 . S
C580 C579 1.387 . S
C580 C583 1.387 . S
H581 C577 0.950 . S
H582 C579 0.950 . S
C583 C574 1.390 . S
C583 H576 0.950 . S
C583 C580 1.387 . S
C584 C585 1.387 . S
C584 H588 0.950 . S
C584 C593 1.390 . S
C585 C584 1.387 . S
C585 C587 1.387 . S
H586 C593 0.950 . S
C587 C585 1.387 . S
C587 C589 1.390 . S
C587 H591 0.950 . S
H588 C584 0.950 . S
C589 C587 1.390 . S
C589 C590 1.387 . S
C589 H592 0.950 . S
C590 C589 1.387 . S
C590 C593 1.387 . S
H591 C587 0.950 . S
H592 C589 0.950 . S
C593 C584 1.390 . S
C593 H586 0.950 . S
C593 C590 1.387 . S
C594 C595 1.387 . S
C594 H598 0.950 . S
C594 C603 1.390 1_556 S
C595 C594 1.387 . S
C595 C597 1.387 . S
H596 C603 0.950 . S
C597 C595 1.387 . S
C597 C599 1.390 1_556 S
C597 H601 0.950 . S
H598 C594 0.950 . S
C599 C597 1.390 1_554 S
C599 C600 1.387 . S
C599 H602 0.950 . S
C600 C599 1.387 . S
C600 C603 1.387 . S
H601 C597 0.950 . S
H602 C599 0.950 . S
C603 C594 1.390 1_554 S
C603 H596 0.950 . S
C603 C600 1.387 . S
C604 C605 1.387 . S
C604 H608 0.950 . S
C604 C613 1.390 . S
C605 C604 1.387 . S
C605 C607 1.387 . S
H606 C613 0.950 . S
C607 C605 1.387 . S
C607 C609 1.390 . S
C607 H611 0.950 . S
H608 C604 0.950 . S
C609 C607 1.390 . S
C609 C610 1.387 . S
C609 H612 0.950 . S
C610 C609 1.387 . S
C610 C613 1.387 . S
H611 C607 0.950 . S
H612 C609 0.950 . S
C613 C604 1.390 . S
C613 H606 0.950 . S
C613 C610 1.387 . S
C614 C615 1.387 . S
C614 H618 0.950 . S
C614 C623 1.390 . S
C615 C614 1.387 . S
C615 C617 1.387 . S
H616 C623 0.950 . S
C617 C615 1.387 . S
C617 C619 1.390 . S
C617 H621 0.950 . S
H618 C614 0.950 . S
C619 C617 1.390 . S
C619 C620 1.387 . S
C619 H622 0.950 . S
C620 C619 1.387 . S
C620 C623 1.387 . S
H621 C617 0.950 . S
H622 C619 0.950 . S
C623 C614 1.390 . S
C623 H616 0.950 . S
C623 C620 1.387 . S
C624 C625 1.387 . S
C624 H628 0.950 . S
C624 C633 1.390 . S
C625 C624 1.387 . S
C625 C627 1.387 . S
H626 C633 0.950 . S
C627 C625 1.387 . S
C627 C629 1.390 . S
C627 H631 0.950 . S
H628 C624 0.950 . S
C629 C627 1.390 . S
C629 C630 1.387 . S
C629 H632 0.950 . S
C630 C629 1.387 . S
C630 C633 1.387 . S
H631 C627 0.950 . S
H632 C629 0.950 . S
C633 C624 1.390 . S
C633 H626 0.950 . S
C633 C630 1.387 . S
C634 C635 1.387 . S
C634 H638 0.950 . S
C634 C643 1.390 . S
C635 C634 1.387 . S
C635 C637 1.387 . S
H636 C643 0.950 . S
C637 C635 1.387 . S
C637 C639 1.390 . S
C637 H641 0.950 . S
H638 C634 0.950 . S
C639 C637 1.390 . S
C639 C640 1.387 . S
C639 H642 0.950 . S
C640 C639 1.387 . S
C640 C643 1.387 . S
H641 C637 0.950 . S
H642 C639 0.950 . S
C643 C634 1.390 . S
C643 H636 0.950 . S
C643 C640 1.387 . S
C644 C645 1.387 . S
C644 H648 0.950 . S
C644 C653 1.390 . S
C645 C644 1.387 . S
C645 C647 1.387 . S
H646 C653 0.950 . S
C647 C645 1.387 . S
C647 C649 1.390 . S
C647 H651 0.950 . S
H648 C644 0.950 . S
C649 C647 1.390 . S
C649 C650 1.387 . S
C649 H652 0.950 . S
C650 C649 1.387 . S
C650 C653 1.387 . S
H651 C647 0.950 . S
H652 C649 0.950 . S
C653 C644 1.390 . S
C653 H646 0.950 . S
C653 C650 1.387 . S
C654 C655 1.387 . S
C654 H658 0.950 . S
C654 C663 1.390 1_556 S
C655 C654 1.387 . S
C655 C657 1.387 . S
H656 C663 0.950 . S
C657 C655 1.387 . S
C657 C659 1.390 1_556 S
C657 H661 0.950 . S
H658 C654 0.950 . S
C659 C657 1.390 1_554 S
C659 C660 1.387 . S
C659 H662 0.950 . S
C660 C659 1.387 . S
C660 C663 1.387 . S
H661 C657 0.950 . S
H662 C659 0.950 . S
C663 C654 1.390 1_554 S
C663 H656 0.950 . S
C663 C660 1.387 . S
C664 C665 1.387 . S
C664 H668 0.950 . S
C664 C673 1.390 . S
C665 C664 1.387 . S
C665 C667 1.387 . S
H666 C673 0.950 . S
C667 C665 1.387 . S
C667 C669 1.390 . S
C667 H671 0.950 . S
H668 C664 0.950 . S
C669 C667 1.390 . S
C669 C670 1.387 . S
C669 H672 0.950 . S
C670 C669 1.387 . S
C670 C673 1.387 . S
H671 C667 0.950 . S
H672 C669 0.950 . S
C673 C664 1.390 . S
C673 H666 0.950 . S
C673 C670 1.387 . S
C674 C675 1.387 . S
C674 H678 0.950 . S
C674 C683 1.390 . S
C675 C674 1.387 . S
C675 C677 1.387 . S
H676 C683 0.950 . S
C677 C675 1.387 . S
C677 C679 1.390 . S
C677 H681 0.950 . S
H678 C674 0.950 . S
C679 C677 1.390 . S
C679 C680 1.387 . S
C679 H682 0.950 . S
C680 C679 1.387 . S
C680 C683 1.387 . S
H681 C677 0.950 . S
H682 C679 0.950 . S
C683 C674 1.390 . S
C683 H676 0.950 . S
C683 C680 1.387 . S
C684 C685 1.387 . S
C684 H688 0.950 . S
C684 C693 1.390 . S
C685 C684 1.387 . S
C685 C687 1.387 . S
H686 C693 0.950 . S
C687 C685 1.387 . S
C687 C689 1.390 . S
C687 H691 0.950 . S
H688 C684 0.950 . S
C689 C687 1.390 . S
C689 C690 1.387 . S
C689 H692 0.950 . S
C690 C689 1.387 . S
C690 C693 1.387 . S
H691 C687 0.950 . S
H692 C689 0.950 . S
C693 C684 1.390 . S
C693 H686 0.950 . S
C693 C690 1.387 . S
C694 C695 1.387 . S
C694 H698 0.950 . S
C694 C703 1.390 1_554 S
C695 C694 1.387 . S
C695 C697 1.387 . S
H696 C703 0.950 . S
C697 C695 1.387 . S
C697 C699 1.390 1_554 S
C697 H701 0.950 . S
H698 C694 0.950 . S
C699 C697 1.390 1_556 S
C699 C700 1.387 . S
C699 H702 0.950 . S
C700 C699 1.387 . S
C700 C703 1.387 . S
H701 C697 0.950 . S
H702 C699 0.950 . S
C703 C694 1.390 1_556 S
C703 H696 0.950 . S
C703 C700 1.387 . S
C704 C705 1.387 . S
C704 H708 0.950 . S
C704 C713 1.390 . S
C705 C704 1.387 . S
C705 C707 1.387 . S
H706 C713 0.950 . S
C707 C705 1.387 . S
C707 C709 1.390 . S
C707 H711 0.950 . S
H708 C704 0.950 . S
C709 C707 1.390 . S
C709 C710 1.387 . S
C709 H712 0.950 . S
C710 C709 1.387 . S
C710 C713 1.387 . S
H711 C707 0.950 . S
H712 C709 0.950 . S
C713 C704 1.390 . S
C713 H706 0.950 . S
C713 C710 1.387 . S
C714 C715 1.387 . S
C714 H718 0.950 . S
C714 C723 1.390 . S
C715 C714 1.387 . S
C715 C717 1.387 . S
H716 C723 0.950 . S
C717 C715 1.387 . S
C717 C719 1.390 . S
C717 H721 0.950 . S
H718 C714 0.950 . S
C719 C717 1.390 . S
C719 C720 1.387 . S
C719 H722 0.950 . S
C720 C719 1.387 . S
C720 C723 1.387 . S
H721 C717 0.950 . S
H722 C719 0.950 . S
C723 C714 1.390 . S
C723 H716 0.950 . S
C723 C720 1.387 . S
C724 C725 1.387 . S
C724 H728 0.950 . S
C724 C733 1.390 . S
C725 C724 1.387 . S
C725 C727 1.387 . S
H726 C733 0.950 . S
C727 C725 1.387 . S
C727 C729 1.390 . S
C727 H731 0.950 . S
H728 C724 0.950 . S
C729 C727 1.390 . S
C729 C730 1.387 . S
C729 H732 0.950 . S
C730 C729 1.387 . S
C730 C733 1.387 . S
H731 C727 0.950 . S
H732 C729 0.950 . S
C733 C724 1.390 . S
C733 H726 0.950 . S
C733 C730 1.387 . S
C734 C735 1.387 . S
C734 H738 0.950 . S
C734 C743 1.390 1_455 S
C735 C734 1.387 . S
C735 C737 1.387 1_556 S
H736 C743 0.950 . S
C737 C735 1.387 1_554 S
C737 C739 1.390 1_455 S
C737 H741 0.950 . S
H738 C734 0.950 . S
C739 C737 1.390 1_655 S
C739 C740 1.387 . S
C739 H742 0.950 . S
C740 C739 1.387 . S
C740 C743 1.387 1_554 S
H741 C737 0.950 . S
H742 C739 0.950 . S
C743 C734 1.390 1_655 S
C743 H736 0.950 . S
C743 C740 1.387 1_556 S
C744 C745 1.387 . S
C744 H748 0.950 . S
C744 C753 1.390 . S
C745 C744 1.387 . S
C745 C747 1.387 . S
H746 C753 0.950 . S
C747 C745 1.387 . S
C747 C749 1.390 . S
C747 H751 0.950 . S
H748 C744 0.950 . S
C749 C747 1.390 . S
C749 C750 1.387 . S
C749 H752 0.950 . S
C750 C749 1.387 . S
C750 C753 1.387 . S
H751 C747 0.950 . S
H752 C749 0.950 . S
C753 C744 1.390 . S
C753 H746 0.950 . S
C753 C750 1.387 . S
C754 C755 1.387 . S
C754 H758 0.950 . S
C754 C763 1.390 . S
C755 C754 1.387 . S
C755 C757 1.387 . S
H756 C763 0.950 . S
C757 C755 1.387 . S
C757 C759 1.390 . S
C757 H761 0.950 . S
H758 C754 0.950 . S
C759 C757 1.390 . S
C759 C760 1.387 . S
C759 H762 0.950 . S
C760 C759 1.387 . S
C760 C763 1.387 . S
H761 C757 0.950 . S
H762 C759 0.950 . S
C763 C754 1.390 . S
C763 H756 0.950 . S
C763 C760 1.387 . S
C764 C765 1.387 1_455 S
C764 H768 0.950 . S
C764 C773 1.390 1_545 S
C765 C764 1.387 1_655 S
C765 C767 1.387 1_556 S
H766 C773 0.950 . S
C767 C765 1.387 1_554 S
C767 C769 1.390 1_545 S
C767 H771 0.950 . S
H768 C764 0.950 . S
C769 C767 1.390 1_565 S
C769 C770 1.387 1_655 S
C769 H772 0.950 . S
C770 C769 1.387 1_455 S
C770 C773 1.387 1_554 S
H771 C767 0.950 . S
H772 C769 0.950 . S
C773 C764 1.390 1_565 S
C773 H766 0.950 . S
C773 C770 1.387 1_556 S
C774 C775 1.387 . S
C774 H778 0.950 . S
C774 C783 1.390 1_545 S
C775 C774 1.387 . S
C775 C777 1.387 . S
H776 C783 0.950 . S
C777 C775 1.387 . S
C777 C779 1.390 1_545 S
C777 H781 0.950 . S
H778 C774 0.950 . S
C779 C777 1.390 1_565 S
C779 C780 1.387 . S
C779 H782 0.950 . S
C780 C779 1.387 . S
C780 C783 1.387 . S
H781 C777 0.950 . S
H782 C779 0.950 . S
C783 C774 1.390 1_565 S
C783 H776 0.950 . S
C783 C780 1.387 . S
C784 C785 1.387 . S
C784 H788 0.950 . S
C784 C793 1.390 . S
C785 C784 1.387 . S
C785 C787 1.387 . S
H786 C793 0.950 . S
C787 C785 1.387 . S
C787 C789 1.390 . S
C787 H791 0.950 . S
H788 C784 0.950 . S
C789 C787 1.390 . S
C789 C790 1.387 . S
C789 H792 0.950 . S
C790 C789 1.387 . S
C790 C793 1.387 . S
H791 C787 0.950 . S
H792 C789 0.950 . S
C793 C784 1.390 . S
C793 H786 0.950 . S
C793 C790 1.387 . S
C794 C795 1.387 . S
C794 H798 0.950 . S
C794 C803 1.390 . S
C795 C794 1.387 . S
C795 C797 1.387 . S
H796 C803 0.950 . S
C797 C795 1.387 . S
C797 C799 1.390 . S
C797 H801 0.950 . S
H798 C794 0.950 . S
C799 C797 1.390 . S
C799 C800 1.387 . S
C799 H802 0.950 . S
C800 C799 1.387 . S
C800 C803 1.387 . S
H801 C797 0.950 . S
H802 C799 0.950 . S
C803 C794 1.390 . S
C803 H796 0.950 . S
C803 C800 1.387 . S
C804 C805 1.387 . S
C804 H808 0.950 . S
C804 C813 1.390 . S
C805 C804 1.387 . S
C805 C807 1.387 . S
H806 C813 0.950 . S
C807 C805 1.387 . S
C807 C809 1.390 . S
C807 H811 0.950 . S
H808 C804 0.950 . S
C809 C807 1.390 . S
C809 C810 1.387 . S
C809 H812 0.929 1_565 S
C810 C809 1.387 . S
C810 C813 1.387 . S
H811 C807 0.950 . S
H812 C809 0.929 1_545 S
C813 C804 1.390 . S
C813 H806 0.950 . S
C813 C810 1.387 . S
C814 C815 1.387 . S
C814 H818 0.950 . S
C814 C823 1.390 . S
C815 C814 1.387 . S
C815 C817 1.387 . S
H816 C823 0.950 . S
C817 C815 1.387 . S
C817 C819 1.390 . S
C817 H821 0.950 . S
H818 C814 0.950 . S
C819 C817 1.390 . S
C819 C820 1.387 . S
C819 H822 0.950 . S
C820 C819 1.387 . S
C820 C823 1.387 . S
H821 C817 0.950 . S
H822 C819 0.950 . S
C823 C814 1.390 . S
C823 H816 0.950 . S
C823 C820 1.387 . S
C824 C825 1.387 . S
C824 H828 0.950 . S
C824 C833 1.390 . S
C825 C824 1.387 . S
C825 C827 1.387 . S
H826 C833 0.950 . S
C827 C825 1.387 . S
C827 C829 1.390 . S
C827 H831 0.950 . S
H828 C824 0.950 . S
C829 C827 1.390 . S
C829 C830 1.387 . S
C829 H832 0.950 . S
C830 C829 1.387 . S
C830 C833 1.387 . S
H831 C827 0.950 . S
H832 C829 0.950 . S
C833 C824 1.390 . S
C833 H826 0.950 . S
C833 C830 1.387 . S
C834 C835 1.387 . S
C834 H838 0.950 . S
C834 C843 1.390 . S
C835 C834 1.387 . S
C835 C837 1.387 . S
H836 C843 0.950 . S
C837 C835 1.387 . S
C837 C839 1.390 . S
C837 H841 0.950 . S
H838 C834 0.950 . S
C839 C837 1.390 . S
C839 C840 1.387 . S
C839 H842 0.950 . S
C840 C839 1.387 . S
C840 C843 1.387 . S
H841 C837 0.950 . S
H842 C839 0.950 . S
C843 C834 1.390 . S
C843 H836 0.950 . S
C843 C840 1.387 . S
C844 C845 1.387 . S
C844 H848 0.967 . S
C844 C853 1.390 . S
C845 C844 1.387 . S
C845 C847 1.387 . S
H846 C853 0.950 . S
C847 C845 1.387 . S
C847 C849 1.390 . S
C847 H851 0.950 . S
H848 C844 0.967 . S
C849 C847 1.390 . S
C849 C850 1.387 . S
C849 H852 0.950 . S
C850 C849 1.387 . S
C850 C853 1.387 . S
H851 C847 0.950 . S
H852 C849 0.950 . S
C853 C844 1.390 . S
C853 H846 0.950 . S
C853 C850 1.387 . S
C854 C855 1.387 . S
C854 H858 0.950 . S
C854 C863 1.390 . S
C855 C854 1.387 . S
C855 C857 1.387 . S
H856 C863 0.950 . S
C857 C855 1.387 . S
C857 C859 1.390 . S
C857 H861 0.950 . S
H858 C854 0.950 . S
C859 C857 1.390 . S
C859 C860 1.387 . S
C859 H862 0.950 . S
C860 C859 1.387 . S
C860 C863 1.387 . S
H861 C857 0.950 . S
H862 C859 0.950 . S
C863 C854 1.390 . S
C863 H856 0.950 . S
C863 C860 1.387 . S
C864 C865 1.387 . S
C864 H868 0.950 . S
C864 C873 1.390 . S
C865 C864 1.387 . S
C865 C867 1.387 . S
H866 C873 0.950 . S
C867 C865 1.387 . S
C867 C869 1.390 . S
C867 H871 0.950 . S
H868 C864 0.950 . S
C869 C867 1.390 . S
C869 C870 1.387 . S
C869 H872 0.950 . S
C870 C869 1.387 . S
C870 C873 1.387 . S
H871 C867 0.950 . S
H872 C869 0.950 . S
C873 C864 1.390 . S
C873 H866 0.950 . S
C873 C870 1.387 . S
C874 C875 1.387 . S
C874 H878 0.950 . S
C874 C883 1.390 . S
C875 C874 1.387 . S
C875 C877 1.387 . S
H876 C883 0.950 . S
C877 C875 1.387 . S
C877 C879 1.390 . S
C877 H881 0.950 1_556 S
H878 C874 0.950 . S
C879 C877 1.390 . S
C879 C880 1.387 . S
C879 H882 0.950 . S
C880 C879 1.387 . S
C880 C883 1.387 . S
H881 C877 0.950 1_554 S
H882 C879 0.950 . S
C883 C874 1.390 . S
C883 H876 0.950 . S
C883 C880 1.387 . S
C884 C885 1.387 . S
C884 H888 0.950 . S
C884 C893 1.390 . S
C885 C884 1.387 . S
C885 C887 1.387 . S
H886 C893 0.950 . S
C887 C885 1.387 . S
C887 C889 1.390 . S
C887 H891 0.950 . S
H888 C884 0.950 . S
C889 C887 1.390 . S
C889 C890 1.387 . S
C889 H892 0.950 . S
C890 C889 1.387 . S
C890 C893 1.387 . S
H891 C887 0.950 . S
H892 C889 0.950 . S
C893 C884 1.390 . S
C893 H886 0.950 . S
C893 C890 1.387 . S
C894 C895 1.387 . S
C894 H898 0.950 . S
C894 C903 1.390 . S
C895 C894 1.387 . S
C895 C897 1.387 . S
H896 C903 0.950 . S
C897 C895 1.387 . S
C897 C899 1.390 . S
C897 H901 0.950 . S
H898 C894 0.950 . S
C899 C897 1.390 . S
C899 C900 1.387 . S
C899 H902 0.950 . S
C900 C899 1.387 . S
C900 C903 1.387 . S
H901 C897 0.950 . S
H902 C899 0.950 . S
C903 C894 1.390 . S
C903 H896 0.950 . S
C903 C900 1.387 . S
C904 C905 1.387 . S
C904 H908 0.950 . S
C904 C913 1.390 . S
C905 C904 1.387 . S
C905 C907 1.387 . S
H906 C913 0.950 . S
C907 C905 1.387 . S
C907 C909 1.390 . S
C907 H911 0.950 . S
H908 C904 0.950 . S
C909 C907 1.390 . S
C909 C910 1.387 . S
C909 H912 0.950 . S
C910 C909 1.387 . S
C910 C913 1.387 . S
H911 C907 0.950 . S
H912 C909 0.950 . S
C913 C904 1.390 . S
C913 H906 0.950 . S
C913 C910 1.387 . S
C914 C915 1.387 . S
C914 H918 0.950 . S
C914 C923 1.390 . S
C915 C914 1.387 . S
C915 C917 1.387 . S
H916 C923 0.950 . S
C917 C915 1.387 . S
C917 C919 1.390 . S
C917 H921 0.950 . S
H918 C914 0.950 . S
C919 C917 1.390 . S
C919 C920 1.387 . S
C919 H922 0.950 . S
C920 C919 1.387 . S
C920 C923 1.387 . S
H921 C917 0.950 . S
H922 C919 0.950 . S
C923 C914 1.390 . S
C923 H916 0.950 . S
C923 C920 1.387 . S
C924 C925 1.387 . S
C924 H928 0.950 . S
C924 C933 1.390 . S
C925 C924 1.387 . S
C925 C927 1.387 . S
H926 C933 0.950 . S
C927 C925 1.387 . S
C927 C929 1.390 . S
C927 H931 0.950 . S
H928 C924 0.950 . S
C929 C927 1.390 . S
C929 C930 1.387 . S
C929 H932 0.950 . S
C930 C929 1.387 . S
C930 C933 1.387 . S
H931 C927 0.950 . S
H932 C929 0.950 . S
C933 C924 1.390 . S
C933 H926 0.950 . S
C933 C930 1.387 . S
C934 C935 1.387 . S
C934 H938 0.950 . S
C934 C943 1.390 . S
C935 C934 1.387 . S
C935 C937 1.387 . S
H936 C943 0.950 . S
C937 C935 1.387 . S
C937 C939 1.390 . S
C937 H941 0.950 . S
H938 C934 0.950 . S
C939 C937 1.390 . S
C939 C940 1.387 . S
C939 H942 0.950 . S
C940 C939 1.387 . S
C940 C943 1.387 . S
H941 C937 0.950 . S
H942 C939 0.950 . S
C943 C934 1.390 . S
C943 H936 0.950 . S
C943 C940 1.387 . S
C944 C945 1.387 . S
C944 H948 0.950 . S
C944 C953 1.390 . S
C945 C944 1.387 . S
C945 C947 1.387 . S
H946 C953 0.950 . S
C947 C945 1.387 . S
C947 C949 1.390 . S
C947 H951 0.950 . S
H948 C944 0.950 . S
C949 C947 1.390 . S
C949 C950 1.387 . S
C949 H952 0.950 . S
C950 C949 1.387 . S
C950 C953 1.387 . S
H951 C947 0.950 . S
H952 C949 0.950 . S
C953 C944 1.390 . S
C953 H946 0.950 . S
C953 C950 1.387 . S
C954 C955 1.387 . S
C954 H958 0.950 . S
C954 C963 1.390 . S
C955 C954 1.387 . S
C955 C957 1.387 . S
H956 C963 0.950 . S
C957 C955 1.387 . S
C957 C959 1.390 . S
C957 H961 0.950 . S
H958 C954 0.950 . S
C959 C957 1.390 . S
C959 C960 1.387 . S
C959 H962 0.950 . S
C960 C959 1.387 . S
C960 C963 1.387 . S
H961 C957 0.950 . S
H962 C959 0.950 . S
C963 C954 1.390 . S
C963 H956 0.950 . S
C963 C960 1.387 . S
C964 C965 1.387 . S
C964 H968 0.950 . S
C964 C973 1.390 . S
C965 C964 1.387 . S
C965 C967 1.387 . S
H966 C973 0.950 . S
C967 C965 1.387 . S
C967 C969 1.390 . S
C967 H971 0.950 . S
H968 C964 0.950 . S
C969 C967 1.390 . S
C969 C970 1.387 . S
C969 H972 0.950 . S
C970 C969 1.387 . S
C970 C973 1.387 . S
H971 C967 0.950 . S
H972 C969 0.950 . S
C973 C964 1.390 . S
C973 H966 0.950 . S
C973 C970 1.387 . S
C974 C975 1.387 . S
C974 H978 0.950 . S
C974 C983 1.390 1_455 S
C975 C974 1.387 . S
C975 C977 1.387 . S
H976 C983 0.950 1_554 S
C977 C975 1.387 . S
C977 C979 1.390 . S
C977 H981 0.950 . S
H978 C974 0.950 . S
C979 C977 1.390 . S
C979 C980 1.387 1_455 S
C979 H982 0.950 1_455 S
C980 C979 1.387 1_655 S
C980 C983 1.387 . S
H981 C977 0.950 . S
H982 C979 0.950 1_655 S
C983 C974 1.390 1_655 S
C983 H976 0.950 1_556 S
C983 C980 1.387 . S
C984 C985 1.387 . S
C984 H988 0.950 . S
C984 C993 1.390 . S
C985 C984 1.387 . S
C985 C987 1.387 . S
H986 C993 0.950 . S
C987 C985 1.387 . S
C987 C989 1.390 . S
C987 H991 0.950 . S
H988 C984 0.950 . S
C989 C987 1.390 . S
C989 C990 1.387 . S
C989 H992 0.950 . S
C990 C989 1.387 . S
C990 C993 1.387 . S
H991 C987 0.950 . S
H992 C989 0.950 . S
C993 C984 1.390 . S
C993 H986 0.950 . S
C993 C990 1.387 . S
C994 C995 1.387 . S
C994 H998 0.950 . S
C994 C1003 1.390 . S
C995 C994 1.387 . S
C995 C997 1.387 . S
H996 C1003 0.950 . S
C997 C995 1.387 . S
C997 C999 1.390 . S
C997 H1001 0.950 . S
H998 C994 0.950 . S
C999 C997 1.390 . S
C999 C1000 1.387 . S
C999 H1002 0.950 . S
C1000 C999 1.387 . S
C1000 C1003 1.387 . S
H1001 C997 0.950 . S
H1002 C999 0.950 . S
C1003 C994 1.390 . S
C1003 H996 0.950 . S
C1003 C1000 1.387 . S
C1004 C1005 1.387 . S
C1004 H1008 0.950 . S
C1004 C1013 1.390 . S
C1005 C1004 1.387 . S
C1005 C1007 1.387 . S
H1006 C1013 0.950 . S
C1007 C1005 1.387 . S
C1007 C1009 1.390 . S
C1007 H1011 0.950 . S
H1008 C1004 0.950 . S
C1009 C1007 1.390 . S
C1009 C1010 1.387 . S
C1009 H1012 0.950 . S
C1010 C1009 1.387 . S
C1010 C1013 1.387 . S
H1011 C1007 0.950 . S
H1012 C1009 0.950 . S
C1013 C1004 1.390 . S
C1013 H1006 0.950 . S
C1013 C1010 1.387 . S
C1014 C1015 1.387 . S
C1014 H1018 0.949 . S
C1014 C1023 1.390 1_455 S
C1015 C1014 1.387 . S
C1015 C1017 1.387 1_455 S
H1016 C1023 0.950 . S
C1017 C1015 1.387 1_655 S
C1017 C1019 1.390 . S
C1017 H1021 0.947 1_655 S
H1018 C1014 0.949 . S
C1019 C1017 1.390 . S
C1019 C1020 1.387 . S
C1019 H1022 0.950 . S
C1020 C1019 1.387 . S
C1020 C1023 1.387 . S
H1021 C1017 0.947 1_455 S
H1022 C1019 0.950 . S
C1023 C1014 1.390 1_655 S
C1023 H1016 0.950 . S
C1023 C1020 1.387 . S
C1024 C1025 1.387 . S
C1024 H1028 0.950 . S
C1024 C1033 1.390 . S
C1025 C1024 1.387 . S
C1025 C1027 1.387 . S
H1026 C1033 0.950 . S
C1027 C1025 1.387 . S
C1027 C1029 1.390 . S
C1027 H1031 0.950 . S
H1028 C1024 0.950 . S
C1029 C1027 1.390 . S
C1029 C1030 1.387 . S
C1029 H1032 0.950 . S
C1030 C1029 1.387 . S
C1030 C1033 1.387 . S
H1031 C1027 0.950 . S
H1032 C1029 0.950 . S
C1033 C1024 1.390 . S
C1033 H1026 0.950 . S
C1033 C1030 1.387 . S
C1034 C1035 1.387 1_655 S
C1034 H1038 0.950 1_655 S
C1034 C1043 1.390 . S
C1035 C1034 1.387 1_455 S
C1035 C1037 1.387 . S
H1036 C1043 0.950 . S
C1037 C1035 1.387 . S
C1037 C1039 1.390 1_455 S
C1037 H1041 0.950 1_556 S
H1038 C1034 0.950 1_455 S
C1039 C1037 1.390 1_655 S
C1039 C1040 1.387 . S
C1039 H1042 0.950 . S
C1040 C1039 1.387 . S
C1040 C1043 1.387 . S
H1041 C1037 0.950 1_554 S
H1042 C1039 0.950 . S
C1043 C1034 1.390 . S
C1043 H1036 0.950 . S
C1043 C1040 1.387 . S
C1044 C1045 1.387 . S
C1044 H1048 0.950 . S
C1044 C1053 1.390 . S
C1045 C1044 1.387 . S
C1045 C1047 1.387 . S
H1046 C1053 0.950 . S
C1047 C1045 1.387 . S
C1047 C1049 1.390 . S
C1047 H1051 0.950 . S
H1048 C1044 0.950 . S
C1049 C1047 1.390 . S
C1049 C1050 1.387 . S
C1049 H1052 0.950 . S
C1050 C1049 1.387 . S
C1050 C1053 1.387 . S
H1051 C1047 0.950 . S
H1052 C1049 0.950 . S
C1053 C1044 1.390 . S
C1053 H1046 0.950 . S
C1053 C1050 1.387 . S
C1054 C1055 1.387 . S
C1054 H1058 0.950 . S
C1054 C1063 1.390 . S
C1055 C1054 1.387 . S
C1055 C1057 1.387 . S
H1056 C1063 0.950 . S
C1057 C1055 1.387 . S
C1057 C1059 1.390 . S
C1057 H1061 0.950 . S
H1058 C1054 0.950 . S
C1059 C1057 1.390 . S
C1059 C1060 1.387 . S
C1059 H1062 0.950 . S
C1060 C1059 1.387 . S
C1060 C1063 1.387 . S
H1061 C1057 0.950 . S
H1062 C1059 0.950 . S
C1063 C1054 1.390 . S
C1063 H1056 0.950 . S
C1063 C1060 1.387 . S
C1064 C1065 1.387 . S
C1064 H1068 0.950 . S
C1064 C1073 1.390 . S
C1065 C1064 1.387 . S
C1065 C1067 1.387 . S
H1066 C1073 0.950 . S
C1067 C1065 1.387 . S
C1067 C1069 1.390 . S
C1067 H1071 0.950 . S
H1068 C1064 0.950 . S
C1069 C1067 1.390 . S
C1069 C1070 1.387 . S
C1069 H1072 0.950 . S
C1070 C1069 1.387 . S
C1070 C1073 1.387 . S
H1071 C1067 0.950 . S
H1072 C1069 0.950 . S
C1073 C1064 1.390 . S
C1073 H1066 0.950 . S
C1073 C1070 1.387 . S
C1074 C1075 1.387 1_455 S
C1074 H1078 0.950 . S
C1074 C1083 1.390 . S
C1075 C1074 1.387 1_655 S
C1075 C1077 1.387 . S
H1076 C1083 0.950 . S
C1077 C1075 1.387 . S
C1077 C1079 1.390 1_655 S
C1077 H1081 0.950 . S
H1078 C1074 0.950 . S
C1079 C1077 1.390 1_455 S
C1079 C1080 1.387 . S
C1079 H1082 0.950 . S
C1080 C1079 1.387 . S
C1080 C1083 1.387 . S
H1081 C1077 0.950 . S
H1082 C1079 0.950 . S
C1083 C1074 1.390 . S
C1083 H1076 0.950 . S
C1083 C1080 1.387 . S
C1084 C1085 1.387 . S
C1084 H1088 0.950 . S
C1084 C1093 1.390 . S
C1085 C1084 1.387 . S
C1085 C1087 1.387 . S
H1086 C1093 0.950 . S
C1087 C1085 1.387 . S
C1087 C1089 1.390 . S
C1087 H1091 0.950 . S
H1088 C1084 0.950 . S
C1089 C1087 1.390 . S
C1089 C1090 1.387 . S
C1089 H1092 0.950 . S
C1090 C1089 1.387 . S
C1090 C1093 1.387 . S
H1091 C1087 0.950 . S
H1092 C1089 0.950 . S
C1093 C1084 1.390 . S
C1093 H1086 0.950 . S
C1093 C1090 1.387 . S
C1094 C1095 1.387 . S
C1094 H1098 0.950 . S
C1094 C1103 1.390 . S
C1095 C1094 1.387 . S
C1095 C1097 1.387 . S
H1096 C1103 0.950 . S
C1097 C1095 1.387 . S
C1097 C1099 1.390 . S
C1097 H1101 0.950 . S
H1098 C1094 0.950 . S
C1099 C1097 1.390 . S
C1099 C1100 1.387 . S
C1099 H1102 0.950 . S
C1100 C1099 1.387 . S
C1100 C1103 1.387 . S
H1101 C1097 0.950 . S
H1102 C1099 0.950 . S
C1103 C1094 1.390 . S
C1103 H1096 0.950 . S
C1103 C1100 1.387 . S
C545 C15 1.479 . S
C550 C22 1.477 . S
C555 C56 1.477 . S
C560 C49 1.480 . S
C565 C83 1.483 . S
C570 C90 1.481 . S
C575 C124 1.479 . S
C580 C117 1.477 . S
C585 C158 1.479 . S
C590 C151 1.477 . S
C595 C192 1.482 . S
C600 C185 1.480 . S
C605 C219 1.477 . S
C610 C226 1.479 . S
C615 C253 1.479 . S
C620 C260 1.478 . S
C625 C294 1.477 . S
C630 C287 1.479 . S
C635 C321 1.479 . S
C640 C328 1.477 . S
C645 C355 1.483 . S
C650 C362 1.481 . S
C655 C389 1.479 . S
C660 C396 1.481 . S
C665 C423 1.477 . S
C670 C430 1.479 . S
C675 C464 1.480 . S
C680 C457 1.479 . S
C685 C498 1.479 . S
C690 C491 1.477 . S
C695 C532 1.480 . S
C700 C525 1.482 . S
C705 C1 2.051 . S
C710 C411 2.051 . S
C715 C173 2.049 . S
C720 C35 2.049 . S
C725 C479 2.049 . S
C730 C69 2.049 . S
C735 C239 2.049 . S
C740 C105 2.049 . S
C745 C139 2.050 . S
C750 C273 2.050 . S
C755 C207 2.048 . S
C760 C341 2.048 . S
C765 C445 2.050 . S
C770 C307 2.050 . S
C775 C377 2.050 . S
C780 C511 2.050 . S
C785 C312 1.429 1_545 S
C790 C17 1.386 . S
C795 C51 1.386 . S
C800 C346 1.429 . S
C805 C85 1.389 . S
C810 C402 1.431 1_565 S
C815 C278 1.429 . S
C820 C119 1.386 . S
C825 C470 1.431 1_565 S
C830 C153 1.389 . S
C835 C504 1.431 . S
C840 C187 1.390 . S
C845 C516 1.430 1_545 S
C850 C221 1.388 . S
C855 C255 1.386 . S
C860 C436 1.429 . S
C865 C40 1.431 . S
C870 C289 1.390 . S
C875 C323 1.386 . S
C880 C74 1.429 . S
C885 C130 1.429 . S
C890 C357 1.387 . S
C895 C6 1.431 . S
C900 C391 1.390 . S
C905 C425 1.388 . S
C910 C198 1.430 . S
C915 C232 1.431 . S
C920 C459 1.390 . S
C925 C493 1.388 . S
C930 C244 1.430 . S
C935 C527 1.386 . S
C940 C164 1.429 . S
C945 C3 1.437 . S
C950 C266 1.453 . S
C955 C37 1.439 . S
C960 C414 1.450 . S
C965 C176 1.450 . S
C970 C71 1.438 . S
C975 C482 1.450 . S
C980 C103 1.439 . S
C985 C108 1.453 . S
C990 C137 1.436 . S
C995 C171 1.438 . S
C1000 C300 1.450 . S
C1005 C62 1.453 . S
C1010 C205 1.436 . S
C1015 C241 1.436 . S
C1020 C368 1.452 . S
C1025 C538 1.453 . S
C1030 C275 1.436 . S
C1035 C309 1.436 . S
C1040 C142 1.453 . S
C1045 C343 1.438 . S
C1050 C448 1.449 . S
C1055 C210 1.452 . S
C1060 C375 1.436 . S
C1065 C380 1.450 . S
C1070 C409 1.439 . S
C1075 C443 1.438 . S
C1080 C28 1.452 . S
C1085 C334 1.449 . S
C1090 C477 1.438 . S
C1095 C96 1.453 . S
C1100 C513 1.436 . S
