# Generated by pormake.
# Topology vmb, (5)-cn, num edge types: 1
# Building blocks:
#     Node 0, Type 0, BuildingBlock: BEQFEK_clean_sbu_0, # of connection points: 5
#     Node 1, Type 0, BuildingBlock: BEQFEK_clean_sbu_0, # of connection points: 5
#     Node 2, Type 0, BuildingBlock: BEQFEK_clean_sbu_0, # of connection points: 5
#     Node 3, Type 0, BuildingBlock: BEQFEK_clean_sbu_0, # of connection points: 5
#     Node 4, Type 0, BuildingBlock: BEQFEK_clean_sbu_0, # of connection points: 5
#     Node 5, Type 0, BuildingBlock: BEQFEK_clean_sbu_0, # of connection points: 5
#     Node 6, Type 0, BuildingBlock: BEQFEK_clean_sbu_0, # of connection points: 5
#     Node 7, Type 0, BuildingBlock: BEQFEK_clean_sbu_0, # of connection points: 5
#     Edge 8, Type (0, 0), BuildingBlock: EZIPEK_clean_linker_0, # of connection points: 2
#     Edge 9, Type (0, 0), BuildingBlock: EZIPEK_clean_linker_0, # of connection points: 2
#     Edge 10, Type (0, 0), BuildingBlock: EZIPEK_clean_linker_0, # of connection points: 2
#     Edge 11, Type (0, 0), BuildingBlock: EZIPEK_clean_linker_0, # of connection points: 2
#     Edge 12, Type (0, 0), BuildingBlock: EZIPEK_clean_linker_0, # of connection points: 2
#     Edge 13, Type (0, 0), BuildingBlock: EZIPEK_clean_linker_0, # of connection points: 2
#     Edge 14, Type (0, 0), BuildingBlock: EZIPEK_clean_linker_0, # of connection points: 2
#     Edge 15, Type (0, 0), BuildingBlock: EZIPEK_clean_linker_0, # of connection points: 2
#     Edge 16, Type (0, 0), BuildingBlock: EZIPEK_clean_linker_0, # of connection points: 2
#     Edge 17, Type (0, 0), BuildingBlock: EZIPEK_clean_linker_0, # of connection points: 2
#     Edge 18, Type (0, 0), BuildingBlock: EZIPEK_clean_linker_0, # of connection points: 2
#     Edge 19, Type (0, 0), BuildingBlock: EZIPEK_clean_linker_0, # of connection points: 2
#     Edge 20, Type (0, 0), BuildingBlock: EZIPEK_clean_linker_0, # of connection points: 2
#     Edge 21, Type (0, 0), BuildingBlock: EZIPEK_clean_linker_0, # of connection points: 2
#     Edge 22, Type (0, 0), BuildingBlock: EZIPEK_clean_linker_0, # of connection points: 2
#     Edge 23, Type (0, 0), BuildingBlock: EZIPEK_clean_linker_0, # of connection points: 2
#     Edge 24, Type (0, 0), BuildingBlock: EZIPEK_clean_linker_0, # of connection points: 2
#     Edge 25, Type (0, 0), BuildingBlock: EZIPEK_clean_linker_0, # of connection points: 2
#     Edge 26, Type (0, 0), BuildingBlock: EZIPEK_clean_linker_0, # of connection points: 2
#     Edge 27, Type (0, 0), BuildingBlock: EZIPEK_clean_linker_0, # of connection points: 2
# Relax obj value: 0.031
# Max RMSD: 0.082
# Mean RMSD: 0.082
data_MOF--net-vmb--node1-BEQFEK_clean_sbu_0--edge1-EZIPEK_clean_linker_0
_symmetry_space_group_name_H-M    P1
_symmetry_Int_Tables_number       1
_symmetry_cell_setting            triclinic
loop_
_symmetry_equiv_pos_as_xyz
'x, y, z'
_cell_length_a     32.685745
_cell_length_b     28.976314
_cell_length_c     22.026189
_cell_angle_alpha  90.001797
_cell_angle_beta   111.90764
_cell_angle_gamma 90.034626
loop_
_atom_site_label
_atom_site_type_symbol
_atom_site_fract_x
_atom_site_fract_y
_atom_site_fract_z
_atom_type_partial_charge
Co0 Co 0.19807 0.07476 0.3671 0.0
Co1 Co 0.30241 0.06915 0.42621 0.0
C2 C 0.24713 0.0181 0.48593 0.0
O3 O 0.21135 0.0313 0.44137 0.0
O4 O 0.28472 0.02922 0.48547 0.0
C5 C 0.10817 0.04215 0.32075 0.0
O6 O 0.12564 0.00567 0.3563 0.0
C7 C 0.39077 0.02796 0.46565 0.0
C8 C 0.43173 0.08871 0.46566 0.0
C9 C 0.43355 0.04165 0.47674 0.0
N10 N 0.3646 0.06531 0.44868 0.0
N11 N 0.38933 0.10154 0.44909 0.0
C12 C 0.37498 0.98016 0.47021 0.0
H13 H 0.33932 0.97691 0.43988 0.0
H14 H 0.39424 0.9545 0.45447 0.0
H15 H 0.37989 0.97286 0.52193 0.0
C16 C 0.21336 0.04998 0.24696 0.0
N17 N 0.22829 0.05931 0.31149 0.0
N18 N 0.27161 0.05614 0.33587 0.0
C19 C 0.28546 0.04453 0.28735 0.0
C20 C 0.24902 0.04027 0.22962 0.0
C21 C 0.16577 0.04914 0.20309 0.0
H22 H 0.14958 0.08143 0.20938 0.0
H23 H 0.14951 0.01982 0.21729 0.0
H24 H 0.1616 0.04525 0.15097 0.0
O25 O 0.21653 0.13659 0.40687 0.0
O26 O 0.28997 0.13235 0.44665 0.0
H27 H 0.35255 0.06685 0.31913 0.0
H28 H 0.33594 0.029 0.24883 0.0
C29 C 0.33247 0.03617 0.29617 0.0
H30 H 0.34522 0.00625 0.32917 0.0
H31 H 0.37717 0.13501 0.43743 0.0
O32 O 0.13287 0.07532 0.31763 0.0
C33 C 0.25443 0.15413 0.43773 0.0
Co34 Co 0.82734 0.07919 0.14242 0.0
Co35 Co 0.72308 0.0722 0.08344 0.0
C36 C 0.77703 0.02093 0.02372 0.0
O37 O 0.81269 0.03748 0.06506 0.0
O38 O 0.73958 0.02981 0.02632 0.0
C39 C 0.91708 0.04528 0.19882 0.0
O40 O 0.89795 0.0047 0.18383 0.0
C41 C 0.63373 0.03348 0.04632 0.0
C42 C 0.59429 0.09605 0.04313 0.0
C43 C 0.59139 0.04869 0.03485 0.0
N44 N 0.66081 0.0702 0.06123 0.0
N45 N 0.63697 0.10751 0.05893 0.0
C46 C 0.64815 0.98487 0.04347 0.0
H47 H 0.64088 0.97549 0.99164 0.0
H48 H 0.68412 0.98128 0.07142 0.0
H49 H 0.62957 0.96089 0.06308 0.0
C50 C 0.81121 0.0516 0.26346 0.0
N51 N 0.79734 0.06202 0.19909 0.0
N52 N 0.75387 0.05989 0.17396 0.0
C53 C 0.73908 0.04845 0.22154 0.0
C54 C 0.77484 0.04279 0.27949 0.0
C55 C 0.85819 0.05028 0.30951 0.0
H56 H 0.87855 0.03234 0.28658 0.0
H57 H 0.86178 0.03252 0.35587 0.0
H58 H 0.87008 0.08624 0.32115 0.0
O59 O 0.80917 0.14176 0.10641 0.0
O60 O 0.73624 0.13439 0.06023 0.0
H61 H 0.67267 0.07328 0.18736 0.0
H62 H 0.68755 0.03766 0.25956 0.0
C63 C 0.69165 0.04249 0.21216 0.0
H64 H 0.67819 0.0118 0.18111 0.0
H65 H 0.64994 0.14083 0.06869 0.0
O66 O 0.89314 0.08129 0.18696 0.0
C67 C 0.77131 0.15769 0.07195 0.0
Co68 Co 0.8285 0.91351 0.64043 0.0
Co69 Co 0.72423 0.91345 0.58772 0.0
C70 C 0.77341 0.96788 0.52194 0.0
O71 O 0.81064 0.95417 0.56233 0.0
O72 O 0.73731 0.95673 0.52765 0.0
C73 C 0.91776 0.94923 0.6827 0.0
O74 O 0.89958 0.98527 0.64658 0.0
C75 C 0.63441 0.9492 0.5534 0.0
C76 C 0.59665 0.88582 0.55306 0.0
C77 C 0.59255 0.93302 0.54327 0.0
N78 N 0.66231 0.91323 0.56864 0.0
N79 N 0.63951 0.8754 0.5682 0.0
C80 C 0.64768 -0.00195 0.54888 0.0
H81 H 0.6832 0.00307 0.57883 0.0
H82 H 0.62736 0.0221 0.56514 0.0
H83 H 0.64205 0.00599 0.49708 0.0
C84 C 0.81551 0.94016 0.76226 0.0
N85 N 0.79961 0.92842 0.69843 0.0
N86 N 0.75625 0.92717 0.677 0.0
C87 C 0.74332 0.93729 0.72685 0.0
C88 C 0.78038 0.94612 0.78231 0.0
C89 C 0.86329 0.94714 0.80248 0.0
H90 H 0.88178 0.91522 0.80154 0.0
H91 H 0.87617 0.97527 0.78055 0.0
H92 H 0.86869 0.95612 0.85389 0.0
O93 O 0.8132 0.85021 0.60538 0.0
O94 O 0.73972 0.85177 0.56609 0.0
H95 H 0.67855 0.90833 0.69778 0.0
H96 H 0.69403 0.94413 0.77007 0.0
C97 C 0.69637 0.94006 0.72137 0.0
H98 H 0.68028 0.97004 0.69044 0.0
H99 H 0.65326 0.84245 0.57846 0.0
O100 O 0.89376 0.91572 0.68676 0.0
C101 C 0.77592 0.83134 0.57505 0.0
Co102 Co 0.19722 0.90596 0.86815 0.0
Co103 Co 0.30151 0.91324 0.92485 0.0
C104 C 0.24712 0.96373 0.98605 0.0
O105 O 0.21119 0.94997 0.94221 0.0
O106 O 0.2846 0.95303 0.98484 0.0
C107 C 0.10868 0.93964 0.80125 0.0
O108 O 0.129 0.97935 0.80544 0.0
C109 C 0.39059 0.9536 0.96433 0.0
C110 C 0.42932 0.89368 0.95389 0.0
C111 C 0.4325 0.93997 0.97026 0.0
N112 N 0.36354 0.91698 0.94495 0.0
N113 N 0.387 0.88121 0.93932 0.0
C114 C 0.37626 0.00083 0.97518 0.0
H115 H 0.38086 0.00446 0.02749 0.0
H116 H 0.34081 0.00599 0.945 0.0
H117 H 0.3965 0.02759 0.96345 0.0
C118 C 0.21156 0.93067 0.74533 0.0
N119 N 0.22625 0.92182 0.81015 0.0
N120 N 0.26954 0.92631 0.83472 0.0
C121 C 0.28333 0.93878 0.78646 0.0
C122 C 0.24712 0.94181 0.72853 0.0
C123 C 0.16456 0.92841 0.69951 0.0
H124 H 0.14799 0.89941 0.71348 0.0
H125 H 0.14778 0.96113 0.70223 0.0
H126 H 0.16213 0.92364 0.64825 0.0
O127 O 0.21682 0.84469 0.90816 0.0
O128 O 0.29011 0.84986 0.94618 0.0
H129 H 0.3506 0.9182 0.81462 0.0
H130 H 0.33309 0.95996 0.74916 0.0
C131 C 0.33004 0.94927 0.79567 0.0
H132 H 0.3425 0.97743 0.83196 0.0
H133 H 0.37394 0.84839 0.92445 0.0
O134 O 0.13149 0.90376 0.8246 0.0
C135 C 0.25495 0.82764 0.93832 0.0
Co136 Co 0.68828 0.58406 0.37158 0.0
Co137 Co 0.79096 0.56926 0.41714 0.0
C138 C 0.74306 0.52234 0.48704 0.0
O139 O 0.70753 0.54203 0.45007 0.0
O140 O 0.7793 0.5273 0.47865 0.0
C141 C 0.59951 0.55022 0.30728 0.0
O142 O 0.61985 0.51146 0.30535 0.0
C143 C 0.88526 0.5443 0.46655 0.0
C144 C 0.90481 0.57397 0.38895 0.0
C145 C 0.92001 0.5466 0.44453 0.0
N146 N 0.85086 0.56755 0.42429 0.0
N147 N 0.86335 0.58665 0.37954 0.0
C148 C 0.88448 0.52105 0.52682 0.0
H149 H 0.86876 0.5442 0.55192 0.0
H150 H 0.86408 0.48932 0.51278 0.0
H151 H 0.91824 0.51195 0.56084 0.0
C152 C 0.69447 0.55976 0.24261 0.0
N153 N 0.71215 0.56643 0.30803 0.0
N154 N 0.75419 0.55515 0.32934 0.0
C155 C 0.76351 0.53784 0.27908 0.0
C156 C 0.72644 0.54137 0.22256 0.0
C157 C 0.64847 0.57192 0.19926 0.0
H158 H 0.6373 0.60211 0.21959 0.0
H159 H 0.62638 0.5422 0.19599 0.0
H160 H 0.6467 0.57995 0.14904 0.0
O161 O 0.70927 0.64568 0.40598 0.0
O162 O 0.78152 0.6323 0.44416 0.0
H163 H 0.826 0.53673 0.26874 0.0
H164 H 0.79756 0.48279 0.25247 0.0
C165 C 0.8052 0.51344 0.28509 0.0
H166 H 0.82344 0.50205 0.33611 0.0
H167 H 0.84279 0.60659 0.34068 0.0
O168 O 0.62233 0.58535 0.33435 0.0
C169 C 0.74883 0.65845 0.43723 0.0
Co170 Co 0.31892 0.57209 0.13638 0.0
Co171 Co 0.21464 0.56993 0.08268 0.0
C172 C 0.26572 0.51516 0.01952 0.0
O173 O 0.30259 0.52769 0.0624 0.0
O174 O 0.22901 0.52823 0.02161 0.0
C175 C 0.40907 0.53855 0.18342 0.0
O176 O 0.39206 0.50131 0.14933 0.0
C177 C 0.12326 0.53598 0.04608 0.0
C178 C 0.08949 0.59899 0.05969 0.0
C179 C 0.08281 0.55292 0.0425 0.0
N180 N 0.15283 0.57049 0.06495 0.0
N181 N 0.13232 0.60811 0.07253 0.0
C182 C 0.13385 0.48756 0.03369 0.0
H183 H 0.16955 0.48052 0.05959 0.0
H184 H 0.11396 0.46269 0.04952 0.0
H185 H 0.12543 0.48292 0.98038 0.0
C186 C 0.30606 0.55061 0.25958 0.0
N187 N 0.29007 0.55926 0.19481 0.0
N188 N 0.24679 0.55597 0.17207 0.0
C189 C 0.23402 0.54408 0.22155 0.0
C190 C 0.27111 0.54033 0.27852 0.0
C191 C 0.35397 0.55056 0.30206 0.0
H192 H 0.37019 0.52109 0.28808 0.0
H193 H 0.359 0.54748 0.3546 0.0
H194 H 0.36957 0.58281 0.29407 0.0
O195 O 0.30215 0.63346 0.09551 0.0
O196 O 0.2289 0.63254 0.0619 0.0
H197 H 0.18508 0.52383 0.26105 0.0
H198 H 0.17303 0.5081 0.17681 0.0
C199 C 0.18736 0.53517 0.2143 0.0
H200 H 0.16781 0.56717 0.19764 0.0
H201 H 0.14777 0.63993 0.08754 0.0
O202 O 0.3841 0.57201 0.18417 0.0
C203 C 0.26473 0.65253 0.06732 0.0
Co204 Co 0.31805 0.40985 0.6396 0.0
Co205 Co 0.21448 0.41286 0.57816 0.0
C206 C 0.27145 0.4673 0.52307 0.0
O207 O 0.30712 0.45417 0.56753 0.0
O208 O 0.23403 0.4546 0.52241 0.0
C209 C 0.40708 0.44293 0.68952 0.0
O210 O 0.38925 0.4804 0.6569 0.0
C211 C 0.12735 0.45528 0.54704 0.0
C212 C 0.0836 0.39839 0.49348 0.0
C213 C 0.08329 0.44366 0.51367 0.0
N214 N 0.15216 0.41826 0.54719 0.0
N215 N 0.12583 0.38449 0.51496 0.0
C216 C 0.14595 0.50069 0.57751 0.0
H217 H 0.17925 0.49608 0.61571 0.0
H218 H 0.12355 0.5176 0.59817 0.0
H219 H 0.14999 0.52378 0.54004 0.0
C220 C 0.30045 0.43265 0.75894 0.0
N221 N 0.28625 0.42368 0.69435 0.0
N222 N 0.24279 0.42319 0.66998 0.0
C223 C 0.22825 0.43029 0.71922 0.0
C224 C 0.26425 0.43733 0.77672 0.0
C225 C 0.34778 0.43801 0.80253 0.0
H226 H 0.36651 0.40703 0.79852 0.0
H227 H 0.36152 0.46827 0.78597 0.0
H228 H 0.35168 0.44301 0.85437 0.0
O229 O 0.3007 0.34859 0.59646 0.0
O230 O 0.22727 0.35007 0.55754 0.0
H231 H 0.16069 0.40913 0.66945 0.0
H232 H 0.17836 0.41363 0.7573 0.0
C233 C 0.18108 0.42925 0.71294 0.0
H234 H 0.16837 0.46503 0.70925 0.0
H235 H 0.13675 0.35215 0.50659 0.0
O236 O 0.38276 0.40885 0.69042 0.0
C237 C 0.26339 0.32982 0.56548 0.0
Co238 Co 0.68669 0.40833 0.86181 0.0
Co239 Co 0.79002 0.4192 0.92762 0.0
C240 C 0.72838 0.46656 0.98066 0.0
O241 O 0.69464 0.45355 0.93232 0.0
O242 O 0.76734 0.45645 0.98479 0.0
C243 C 0.59784 0.43873 0.80257 0.0
O244 O 0.61685 0.47923 0.81933 0.0
C245 C 0.87798 0.4633 0.96837 0.0
C246 C 0.92059 0.40216 0.97913 0.0
C247 C 0.92132 0.44974 0.98363 0.0
N248 N 0.85251 0.42532 0.955 0.0
N249 N 0.87829 0.38892 0.96197 0.0
C250 C 0.86108 0.51147 0.96556 0.0
H251 H 0.82486 0.51248 0.93832 0.0
H252 H 0.87794 0.53463 0.94211 0.0
H253 H 0.86858 0.52407 0.01616 0.0
C254 C 0.70542 0.43685 0.7441 0.0
N255 N 0.7182 0.42673 0.80835 0.0
N256 N 0.76136 0.4315 0.83613 0.0
C257 C 0.77718 0.44407 0.79002 0.0
C258 C 0.74226 0.44817 0.7305 0.0
C259 C 0.65896 0.43548 0.69614 0.0
H260 H 0.63743 0.45504 0.71548 0.0
H261 H 0.65588 0.45023 0.64814 0.0
H262 H 0.648 0.39901 0.68897 0.0
O263 O 0.70755 0.34763 0.90488 0.0
O264 O 0.78056 0.35516 0.94632 0.0
H265 H 0.83023 0.45488 0.75528 0.0
H266 H 0.83626 0.48364 0.83064 0.0
C267 C 0.82481 0.45156 0.80193 0.0
H268 H 0.84452 0.42222 0.83019 0.0
H269 H 0.8669 0.35495 0.95403 0.0
O270 O 0.6218 0.40279 0.8133 0.0
C271 C 0.74595 0.33163 0.93645 0.0
C272 C 0.23229 0.95698 0.08918 0.0
C273 C 0.24556 0.98478 0.04643 0.0
C274 C 0.25806 0.05029 0.12188 0.0
C275 C 0.24785 0.02146 0.16637 0.0
N276 N 0.23251 0.94585 0.19833 0.0
N277 N 0.27532 0.05595 0.02392 0.0
C278 C 0.23674 0.97444 0.15153 0.0
C279 C 0.2598 0.03092 0.06341 0.0
N280 N 0.21546 0.91372 0.07046 0.0
N281 N 0.26495 0.0964 0.13491 0.0
H282 H 0.2748 0.04367 0.97911 0.0
H283 H 0.29092 0.08778 0.03694 0.0
H284 H 0.26458 0.11145 0.17774 0.0
H285 H 0.26805 0.12035 0.10167 0.0
H286 H 0.19974 0.89456 0.09539 0.0
H287 H 0.2145 0.89757 0.02773 0.0
H288 H 0.22999 0.91011 0.19368 0.0
H289 H 0.23526 0.95721 0.24461 0.0
C290 C 0.76427 0.97713 0.34577 0.0
C291 C 0.7744 0.02435 0.34211 0.0
C292 C 0.78548 0.03484 0.45782 0.0
C293 C 0.77172 0.98863 0.45972 0.0
N294 N 0.74215 0.91717 0.40349 0.0
N295 N 0.78941 0.10002 0.39078 0.0
C296 C 0.75913 0.96029 0.40296 0.0
C297 C 0.78365 0.05379 0.39715 0.0
N298 N 0.76163 0.94782 0.29572 0.0
N299 N 0.8007 0.06032 0.5141 0.0
H300 H 0.78872 0.11486 0.34725 0.0
H301 H 0.79176 0.12417 0.4269 0.0
H302 H 0.80056 0.04808 0.55858 0.0
H303 H 0.81582 0.09238 0.51775 0.0
H304 H 0.75958 0.91209 0.29869 0.0
H305 H 0.76559 0.9586 0.25307 0.0
H306 H 0.72729 0.89742 0.36147 0.0
H307 H 0.7399 0.90202 0.44501 0.0
C308 C 0.76882 0.01194 0.84764 0.0
C309 C 0.78139 0.9653 0.84538 0.0
C310 C 0.78953 0.95405 0.95997 0.0
C311 C 0.77805 0.00094 0.96255 0.0
N312 N 0.76072 0.07625 0.91263 0.0
N313 N 0.80756 0.89261 0.89885 0.0
C314 C 0.76858 0.0303 0.90728 0.0
C315 C 0.79298 0.93652 0.90154 0.0
N316 N 0.75657 0.03851 0.7923 0.0
N317 N 0.79576 0.9262 0.01281 0.0
H318 H 0.80885 0.87821 0.85621 0.0
H319 H 0.8206 0.87104 0.93923 0.0
H320 H 0.79393 0.93843 0.05629 0.0
H321 H 0.80024 0.89067 0.01292 0.0
H322 H 0.74115 0.07043 0.7875 0.0
H323 H 0.7601 0.02794 0.74928 0.0
H324 H 0.75917 0.10091 0.87753 0.0
H325 H 0.758 0.09078 0.95424 0.0
C326 C 0.25769 0.93186 0.62193 0.0
C327 C 0.24587 0.96039 0.66513 0.0
C328 C 0.23009 0.02446 0.5873 0.0
C329 C 0.24503 -0.00294 0.54597 0.0
N330 N 0.27699 0.92664 0.52572 0.0
N331 N 0.22767 0.03546 0.69495 0.0
C332 C 0.26008 0.95128 0.5639 0.0
C333 C 0.23369 0.00705 0.6493 0.0
N334 N 0.2655 0.88595 0.63574 0.0
N335 N 0.21256 0.06731 0.56759 0.0
H336 H 0.22962 0.02411 0.74088 0.0
H337 H 0.22433 0.07112 0.68981 0.0
H338 H 0.21236 0.08362 0.52538 0.0
H339 H 0.19562 0.08597 0.59117 0.0
H340 H 0.26987 0.86209 0.60337 0.0
H341 H 0.26457 0.87088 0.67823 0.0
H342 H 0.2932 0.89522 0.53961 0.0
H343 H 0.27694 0.93887 0.48115 0.0
C344 C 0.74104 0.55141 0.11934 0.0
C345 C 0.72181 0.52536 0.15635 0.0
C346 C 0.69804 0.46637 0.07062 0.0
C347 C 0.72217 0.4894 0.03719 0.0
N348 N 0.76634 0.55399 0.02878 0.0
N349 N 0.68653 0.45593 0.17223 0.0
C350 C 0.74355 0.53207 0.06133 0.0
C351 C 0.70103 0.4826 0.13297 0.0
N352 N 0.75591 0.59511 0.13908 0.0
N353 N 0.67235 0.42876 0.04362 0.0
H354 H 0.68741 0.46665 0.21788 0.0
H355 H 0.67688 0.42163 0.16218 0.0
H356 H 0.67105 0.41235 1.00106 0.0
H357 H 0.64941 0.4153 0.06132 0.0
H358 H 0.76653 0.61791 0.11151 0.0
H359 H 0.7545 0.61014 0.18131 0.0
H360 H 0.78747 0.58173 0.04784 0.0
H361 H 0.7653 0.54338 0.98297 0.0
C362 C 0.28731 0.47678 0.36124 0.0
C363 C 0.27314 0.52276 0.34296 0.0
C364 C 0.26206 0.53428 0.44644 0.0
C365 C 0.27375 0.48756 0.46277 0.0
N366 N 0.29285 0.41235 0.43384 0.0
N367 N 0.24457 0.595 0.36442 0.0
C368 C 0.28555 0.45839 0.41996 0.0
C369 C 0.25985 0.5515 0.38461 0.0
N370 N 0.30246 0.45057 0.32232 0.0
N371 N 0.25429 0.56228 0.49096 0.0
H372 H 0.24464 0.60948 0.32111 0.0
H373 H 0.22986 0.61615 0.38859 0.0
H374 H 0.25536 0.55032 0.53623 0.0
H375 H 0.24954 0.59775 0.48539 0.0
H376 H 0.31924 0.41954 0.3371 0.0
H377 H 0.30049 0.46077 0.27596 0.0
H378 H 0.29555 0.38796 0.40087 0.0
H379 H 0.29327 0.39734 0.47703 0.0
C380 C 0.27562 0.52258 0.91295 0.0
C381 C 0.26571 0.4941 0.95827 0.0
C382 C 0.25687 0.42733 0.88592 0.0
C383 C 0.26379 0.45658 0.83894 0.0
N384 N 0.2711 0.53329 0.80163 0.0
N385 N 0.24147 0.42126 0.98548 0.0
C386 C 0.27081 0.50456 0.85079 0.0
C387 C 0.25458 0.44697 0.94395 0.0
N388 N 0.29007 0.56687 0.92942 0.0
N389 N 0.25373 0.38071 0.87575 0.0
H390 H 0.24101 0.43429 0.02939 0.0
H391 H 0.22845 0.38813 0.97469 0.0
H392 H 0.25461 0.36544 0.83335 0.0
H393 H 0.25322 0.35691 0.91086 0.0
H394 H 0.30315 0.58713 0.90201 0.0
H395 H 0.29207 0.5827 0.9729 0.0
H396 H 0.2707 0.56913 0.80467 0.0
H397 H 0.26769 0.52163 0.7552 0.0
C398 C 0.75376 0.51345 0.66391 0.0
C399 C 0.74337 0.46632 0.66798 0.0
C400 C 0.73039 0.45588 0.55154 0.0
C401 C 0.74436 0.50192 0.54924 0.0
N402 N 0.77677 0.57235 0.60558 0.0
N403 N 0.72816 0.39058 0.61936 0.0
C404 C 0.75846 0.52997 0.60625 0.0
C405 C 0.73342 0.43687 0.61274 0.0
N406 N 0.75703 0.54305 0.71392 0.0
N407 N 0.71374 0.43068 0.49515 0.0
H408 H 0.73025 0.37558 0.66348 0.0
H409 H 0.72519 0.36657 0.58281 0.0
H410 H 0.7125 0.44322 0.45008 0.0
H411 H 0.69856 0.39871 0.49214 0.0
H412 H 0.75951 0.57871 0.71059 0.0
H413 H 0.75309 0.53265 0.75673 0.0
H414 H 0.7923 0.59192 0.64759 0.0
H415 H 0.77974 0.58661 0.56396 0.0
C416 C 0.53715 0.9748 0.57655 0.0
C417 C 0.55135 0.96009 0.52612 0.0
C418 C 0.48736 -0.00276 0.44317 0.0
C419 C 0.47343 0.01243 0.49365 0.0
N420 N 0.4807 0.01201 0.60657 0.0
N421 N 0.54369 0.96 0.41301 0.0
C422 C 0.49714 0.00017 0.55993 0.0
C423 C 0.52737 0.97193 0.45975 0.0
N424 N 0.56307 0.96612 0.64049 0.0
N425 N 0.46127 0.00559 0.37921 0.0
H426 H 0.57195 0.93997 0.42297 0.0
H427 H 0.53093 0.97172 0.36494 0.0
H428 H 0.43207 0.02448 0.36535 0.0
H429 H 0.46665 0.99164 0.33934 0.0
H430 H 0.55751 0.97973 0.6804 0.0
H431 H 0.59219 0.94707 0.65434 0.0
H432 H 0.49342 0.00032 0.65465 0.0
H433 H 0.45232 0.03187 0.59644 0.0
C434 C 0.49995 0.97568 0.05362 0.0
C435 C 0.47266 0.96874 0.98702 0.0
C436 C 0.52499 0.0112 0.952 0.0
C437 C 0.55084 0.02063 0.01849 0.0
N438 N 0.56158 0.01684 0.13277 0.0
N439 N 0.45525 0.98432 0.87259 0.0
C440 C 0.53792 0.00428 0.06943 0.0
C441 C 0.48409 0.98773 0.93608 0.0
N442 N 0.49013 0.95386 0.10158 0.0
N443 N 0.54008 0.02382 0.90422 0.0
H444 H 0.42551 0.96642 0.85895 0.0
H445 H 0.45909 0.00187 0.83383 0.0
H446 H 0.56931 0.04216 0.91388 0.0
H447 H 0.52544 0.01346 0.85561 0.0
H448 H 0.51116 0.95306 0.15054 0.0
H449 H 0.46191 0.93374 0.09189 0.0
H450 H 0.55137 0.0105 0.17145 0.0
H451 H 0.5904 0.03641 0.14643 0.0
C452 C 0.9646 0.47347 0.48295 0.0
C453 C 0.96275 0.52127 0.4679 0.0
C454 C 0.03876 0.51663 0.47372 0.0
C455 C 0.04288 0.47177 0.50109 0.0
N456 N 0.01093 0.41315 0.54835 0.0
N457 N 1.00362 0.59069 0.466 0.0
C458 C 1.00627 0.452 0.51135 0.0
C459 C 1.00164 0.54375 0.46895 0.0
N460 N 0.92719 0.44737 0.46527 0.0
N461 N 0.06784 0.53212 0.44719 0.0
H462 H 0.9781 0.61205 0.46661 0.0
H463 H 0.03262 0.6081 0.47085 0.0
H464 H 0.09219 0.51101 0.44212 0.0
H465 H 0.06384 0.56356 0.4226 0.0
H466 H 0.92802 0.41167 0.4718 0.0
H467 H 0.89624 0.46007 0.43624 0.0
H468 H 0.9851 0.39973 0.55992 0.0
H469 H 0.04147 0.3979 0.57364 0.0
C470 C 0.02688 0.51457 0.07837 0.0
C471 C 0.04095 0.52726 0.02701 0.0
C472 C 0.97611 0.48957 0.94678 0.0
C473 C 0.9609 0.47905 0.99774 0.0
N474 N 0.96746 0.48708 0.10986 0.0
N475 N 0.02671 0.53345 0.9118 0.0
C476 C 0.98496 0.49337 0.06292 0.0
C477 C 0.01494 0.51657 0.96098 0.0
N478 N 0.05442 0.52108 0.14206 0.0
N479 N 0.95386 0.47295 0.88506 0.0
H480 H 0.05528 0.55276 0.92043 0.0
H481 H 1.00676 0.53134 0.86241 0.0
H482 H 0.92416 0.45499 0.87202 0.0
H483 H 0.96594 0.47449 0.84758 0.0
H484 H 0.04834 0.50796 0.18188 0.0
H485 H 0.08533 0.53658 0.15533 0.0
H486 H 0.98094 0.50124 0.1566 0.0
H487 H 0.93738 0.47055 0.10066 0.0
C488 C 0.03721 0.01632 0.23327 0.0
C489 C 0.05958 0.04544 0.28726 0.0
C490 C 0.98861 0.07585 0.28376 0.0
C491 C 0.96627 0.04857 0.22715 0.0
N492 N 0.97106 0.00395 0.13745 0.0
N493 N 0.05754 0.10839 0.35782 0.0
C494 C 0.9911 0.02191 0.19891 0.0
C495 C 0.03557 0.07719 0.31017 0.0
N496 N 0.0598 0.98293 0.21493 0.0
N497 N 0.96537 0.09841 0.31495 0.0
H498 H 0.0917 0.10847 0.38207 0.0
H499 H 0.04217 0.13627 0.37032 0.0
H500 H 0.93122 0.09947 0.29751 0.0
H501 H 0.97992 0.11338 0.36104 0.0
H502 H 0.04431 0.95736 0.18082 0.0
H503 H 0.09377 0.97837 0.2375 0.0
H504 H 0.9883 0.98806 0.11184 0.0
H505 H 0.93795 0.00968 0.10881 0.0
C506 C 0.03552 0.90683 0.72396 0.0
C507 C 0.05944 0.93824 0.77461 0.0
C508 C 0.99004 0.97592 0.76628 0.0
C509 C 0.96646 0.94568 0.71433 0.0
N510 N 0.96635 0.88746 0.63621 0.0
N511 N 0.05839 0.99279 0.85672 0.0
C512 C 0.98903 0.91211 0.69169 0.0
C513 C 0.03637 0.97028 0.79905 0.0
N514 N 0.05676 0.87115 0.70757 0.0
N515 N 0.96829 0.01083 0.78338 0.0
H516 H 0.0917 0.98738 0.8845 0.0
H517 H 0.043 0.01291 0.88108 0.0
H518 H 0.93423 0.01519 0.7624 0.0
H519 H 0.98414 0.03763 0.81484 0.0
H520 H 0.04058 0.84385 0.67748 0.0
H521 H 0.09056 0.86596 0.72811 0.0
H522 H 0.98127 0.86685 0.61173 0.0
H523 H 0.93245 0.89058 0.61064 0.0
C524 C 0.48078 0.51223 0.26923 0.0
C525 C 0.45758 0.54297 0.21761 0.0
C526 C 0.52645 0.58405 0.23239 0.0
C527 C 0.55029 0.55139 0.28101 0.0
N528 N 0.54954 0.49249 0.35775 0.0
N529 N 0.45866 0.60267 0.14199 0.0
C530 C 0.52724 0.51746 0.30248 0.0
C531 C 0.48042 0.57775 0.19754 0.0
N532 N 0.45843 0.4775 0.28562 0.0
N533 N 0.54724 0.6219 0.22034 0.0
H534 H 0.42517 0.59869 0.11408 0.0
H535 H 0.4744 0.62414 0.11961 0.0
H536 H 0.58063 0.62856 0.24399 0.0
H537 H 0.53061 0.64957 0.19156 0.0
H538 H 0.47356 0.45037 0.3168 0.0
H539 H 0.42424 0.47414 0.26526 0.0
H540 H 0.53467 0.47006 0.38016 0.0
H541 H 0.58295 0.49734 0.38548 0.0
C542 C 0.52557 0.41053 0.71774 0.0
C543 C 0.54885 0.43534 0.77629 0.0
C544 C 0.47902 0.46595 0.77673 0.0
C545 C 0.45566 0.4392 0.72055 0.0
N546 N 0.45574 0.38055 0.64272 0.0
N547 N 0.54648 0.47485 0.87145 0.0
C548 C 0.47866 0.40947 0.69305 0.0
C549 C 0.52519 0.4597 0.80866 0.0
N550 N 0.54793 0.39014 0.68345 0.0
N551 N 0.45734 0.49784 0.79932 0.0
H552 H 0.57981 0.46852 0.89812 0.0
H553 H 0.53013 0.48885 0.89969 0.0
H554 H 0.42341 0.50304 0.77816 0.0
H555 H 0.47354 0.52184 0.83559 0.0
H556 H 0.5327 0.37709 0.63629 0.0
H557 H 0.58207 0.38906 0.69988 0.0
H558 H 0.47047 0.35392 0.62644 0.0
H559 H 0.4215 0.38102 0.61968 0.0
C560 C 0.24273 0.28223 0.46334 0.0
C561 C 0.26163 0.28485 0.53294 0.0
C562 C 0.27382 0.2013 0.53965 0.0
C563 C 0.25741 0.19923 0.47016 0.0
N564 N 0.23279 0.23745 0.36568 0.0
N565 N 0.29917 0.24851 0.63763 0.0
C566 C 0.24345 0.2396 0.43189 0.0
C567 C 0.27861 0.24487 0.57116 0.0
N568 N 0.22394 0.32042 0.42716 0.0
N569 N 0.28284 0.16137 0.57545 0.0
H570 H 0.30032 0.27905 0.66323 0.0
H571 H 0.31729 0.22193 0.66735 0.0
H572 H 0.28044 0.12871 0.55459 0.0
H573 H 0.28958 0.16005 0.62547 0.0
H574 H 0.20467 0.31934 0.37741 0.0
H575 H 0.22526 0.35323 0.4471 0.0
H576 H 0.2273 0.26635 0.33563 0.0
H577 H 0.23294 0.20673 0.34105 0.0
C578 C 0.73964 0.2825 0.02571 0.0
C579 C 0.75102 0.28668 0.96974 0.0
C580 C 0.78314 0.20925 0.98871 0.0
C581 C 0.76752 0.20327 0.04046 0.0
N582 N 0.72732 0.23204 0.10488 0.0
N583 N 0.77836 0.25306 0.89236 0.0
C584 C 0.74447 0.23921 0.05772 0.0
C585 C 0.77148 0.24981 0.94979 0.0
N586 N 0.72664 0.32057 0.05053 0.0
N587 N 0.8093 0.17643 0.97689 0.0
H588 H 0.77013 0.28236 0.86271 0.0
H589 H 0.78862 0.22555 0.87114 0.0
H590 H 0.81765 0.14548 1.00257 0.0
H591 H 0.82563 0.18122 0.94484 0.0
H592 H 0.72245 0.32089 0.09512 0.0
H593 H 0.72396 0.35319 0.02953 0.0
H594 H 0.70536 0.25469 0.11353 0.0
H595 H 0.73313 0.20214 0.13324 0.0
C596 C 0.74406 0.70731 0.52786 0.0
C597 C 0.75709 0.70252 0.47334 0.0
C598 C 0.78587 0.78152 0.48881 0.0
C599 C 0.77388 0.78579 0.54429 0.0
N600 N 0.74952 0.75142 0.62436 0.0
N601 N 0.79588 0.73151 0.40712 0.0
C602 C 0.75516 0.74827 0.56597 0.0
C603 C 0.77993 0.73849 0.45567 0.0
N604 N 0.72093 0.67278 0.54312 0.0
N605 N 0.80072 0.81925 0.46573 0.0
H606 H 0.78957 0.70169 0.37858 0.0
H607 H 0.81752 0.75404 0.39746 0.0
H608 H 0.80673 0.85112 0.48937 0.0
H609 H 0.80449 0.82008 0.42086 0.0
H610 H 0.70578 0.67638 0.57684 0.0
H611 H 0.71463 0.64086 0.51966 0.0
H612 H 0.74033 0.72386 0.64678 0.0
H613 H 0.75783 0.78091 0.65368 0.0
C614 C 0.27549 0.7808 0.04065 0.0
C615 C 0.25856 0.78264 0.97113 0.0
C616 C 0.24318 0.69977 0.96497 0.0
C617 C 0.26246 0.69741 0.03452 0.0
N618 N 0.30131 0.73378 0.13877 0.0
N619 N 0.23285 0.7441 0.86681 0.0
C620 C 0.28013 0.73736 0.0724 0.0
C621 C 0.24401 0.7422 0.93314 0.0
N622 N 0.28516 0.8208 0.07629 0.0
N623 N 0.22398 0.6615 0.92927 0.0
H624 H 0.23321 0.77466 0.84197 0.0
H625 H 0.22676 0.71512 0.83682 0.0
H626 H 0.22507 0.62888 0.94967 0.0
H627 H 0.2046 0.66235 0.87956 0.0
H628 H 0.29228 0.82229 0.12641 0.0
H629 H 0.28298 0.85338 0.05528 0.0
H630 H 0.31985 0.76031 0.16815 0.0
H631 H 0.30259 0.70327 0.16452 0.0
loop_
_geom_bond_atom_site_label_1
_geom_bond_atom_site_label_2
_geom_bond_distance
_geom_bond_site_symmetry_2
_ccdc_geom_bond_type
Co0 O3 1.970 . S
Co0 N17 1.989 . S
Co0 O25 1.967 . S
Co0 O32 1.920 . S
Co1 O4 1.966 . S
Co1 N10 2.022 . S
Co1 N18 1.993 . S
Co1 O26 1.941 . S
C2 O3 1.258 . S
C2 O4 1.263 . S
O3 Co0 1.970 . S
O3 C2 1.258 . S
O4 Co1 1.966 . S
O4 C2 1.263 . S
C5 O6 1.235 . S
C5 O32 1.289 . S
O6 C5 1.235 . S
C7 C9 1.400 . S
C7 N10 1.351 . S
C7 C12 1.501 1_545 S
C8 C9 1.387 . S
C8 N11 1.341 . S
C9 C7 1.400 . S
C9 C8 1.387 . S
N10 Co1 2.022 . S
N10 C7 1.351 . S
N10 N11 1.365 . S
N11 C8 1.341 . S
N11 N10 1.365 . S
N11 H31 0.862 . S
C12 C7 1.501 1_565 S
C12 H13 0.961 1_565 S
C12 H14 0.961 . S
C12 H15 0.960 . S
H13 C12 0.961 1_545 S
H14 C12 0.961 . S
H15 C12 0.960 . S
C16 N17 1.342 . S
C16 C20 1.401 . S
C16 C21 1.499 . S
N17 Co0 1.989 . S
N17 C16 1.342 . S
N17 N18 1.388 . S
N18 Co1 1.993 . S
N18 N17 1.388 . S
N18 C19 1.346 . S
C19 N18 1.346 . S
C19 C20 1.396 . S
C19 C29 1.510 . S
C20 C16 1.401 . S
C20 C19 1.396 . S
C21 C16 1.499 . S
C21 H22 0.959 . S
C21 H23 0.960 . S
C21 H24 0.961 . S
H22 C21 0.959 . S
H23 C21 0.960 . S
H24 C21 0.961 . S
O25 Co0 1.967 . S
O25 C33 1.258 . S
O26 Co1 1.941 . S
O26 C33 1.266 . S
H27 C29 0.959 . S
H28 C29 0.961 1_565 S
C29 C19 1.510 . S
C29 H27 0.959 . S
C29 H28 0.961 1_545 S
C29 H30 0.960 . S
H30 C29 0.960 . S
H31 N11 0.862 . S
O32 Co0 1.920 . S
O32 C5 1.289 . S
C33 O25 1.258 . S
C33 O26 1.266 . S
Co34 O37 1.970 . S
Co34 N51 1.989 . S
Co34 O59 1.967 . S
Co34 O66 1.920 . S
Co35 O38 1.966 . S
Co35 N44 2.022 . S
Co35 N52 1.993 . S
Co35 O60 1.941 . S
C36 O37 1.258 . S
C36 O38 1.263 . S
O37 Co34 1.970 . S
O37 C36 1.258 . S
O38 Co35 1.966 . S
O38 C36 1.263 . S
C39 O40 1.235 . S
C39 O66 1.289 . S
O40 C39 1.235 . S
C41 C43 1.400 . S
C41 N44 1.351 . S
C41 C46 1.501 1_544 S
C42 C43 1.387 . S
C42 N45 1.341 . S
C43 C41 1.400 . S
C43 C42 1.387 . S
N44 Co35 2.022 . S
N44 C41 1.351 . S
N44 N45 1.365 . S
N45 C42 1.341 . S
N45 N44 1.365 . S
N45 H65 0.862 . S
C46 C41 1.501 1_566 S
C46 H47 0.961 1_565 S
C46 H48 0.961 . S
C46 H49 0.960 . S
H47 C46 0.961 1_545 S
H48 C46 0.961 . S
H49 C46 0.960 . S
C50 N51 1.342 . S
C50 C54 1.401 . S
C50 C55 1.499 . S
N51 Co34 1.989 . S
N51 C50 1.342 . S
N51 N52 1.388 . S
N52 Co35 1.993 . S
N52 N51 1.388 . S
N52 C53 1.346 . S
C53 N52 1.346 . S
C53 C54 1.396 . S
C53 C63 1.510 . S
C54 C50 1.401 . S
C54 C53 1.396 . S
C55 C50 1.499 . S
C55 H56 0.959 . S
C55 H57 0.960 . S
C55 H58 0.961 . S
H56 C55 0.959 . S
H57 C55 0.960 . S
H58 C55 0.961 . S
O59 Co34 1.967 . S
O59 C67 1.258 . S
O60 Co35 1.941 . S
O60 C67 1.266 . S
H61 C63 0.959 . S
H62 C63 0.961 1_565 S
C63 C53 1.510 . S
C63 H61 0.959 . S
C63 H62 0.961 1_545 S
C63 H64 0.960 . S
H64 C63 0.960 . S
H65 N45 0.862 . S
O66 Co34 1.920 . S
O66 C39 1.289 . S
C67 O59 1.258 . S
C67 O60 1.266 . S
Co68 O71 1.970 . S
Co68 N85 1.989 . S
Co68 O93 1.967 . S
Co68 O100 1.920 . S
Co69 O72 1.966 . S
Co69 N78 2.022 . S
Co69 N86 1.993 . S
Co69 O94 1.941 . S
C70 O71 1.258 . S
C70 O72 1.263 . S
O71 Co68 1.970 . S
O71 C70 1.258 . S
O72 Co69 1.966 . S
O72 C70 1.263 . S
C73 O74 1.235 . S
C73 O100 1.289 . S
O74 C73 1.235 . S
C75 C77 1.400 . S
C75 N78 1.351 . S
C75 C80 1.501 1_565 S
C76 C77 1.387 . S
C76 N79 1.341 . S
C77 C75 1.400 . S
C77 C76 1.387 . S
N78 Co69 2.022 . S
N78 C75 1.351 . S
N78 N79 1.365 . S
N79 C76 1.341 . S
N79 N78 1.365 . S
N79 H99 0.862 . S
C80 C75 1.501 1_545 S
C80 H81 0.961 1_545 S
C80 H82 0.961 . S
C80 H83 0.960 . S
H81 C80 0.961 1_565 S
H82 C80 0.961 . S
H83 C80 0.960 . S
C84 N85 1.342 . S
C84 C88 1.401 . S
C84 C89 1.499 . S
N85 Co68 1.989 . S
N85 C84 1.342 . S
N85 N86 1.388 . S
N86 Co69 1.993 . S
N86 N85 1.388 . S
N86 C87 1.346 . S
C87 N86 1.346 . S
C87 C88 1.396 . S
C87 C97 1.510 . S
C88 C84 1.401 . S
C88 C87 1.396 . S
C89 C84 1.499 . S
C89 H90 0.959 . S
C89 H91 0.960 . S
C89 H92 0.961 . S
H90 C89 0.959 . S
H91 C89 0.960 . S
H92 C89 0.961 . S
O93 Co68 1.967 . S
O93 C101 1.258 . S
O94 Co69 1.941 . S
O94 C101 1.266 . S
H95 C97 0.959 . S
H96 C97 0.961 1_545 S
C97 C87 1.510 . S
C97 H95 0.959 . S
C97 H96 0.961 1_565 S
C97 H98 0.960 . S
H98 C97 0.960 . S
H99 N79 0.862 . S
O100 Co68 1.920 . S
O100 C73 1.289 . S
C101 O93 1.258 . S
C101 O94 1.266 . S
Co102 O105 1.970 . S
Co102 N119 1.989 . S
Co102 O127 1.967 . S
Co102 O134 1.920 . S
Co103 O106 1.966 . S
Co103 N112 2.022 . S
Co103 N120 1.993 . S
Co103 O128 1.941 . S
C104 O105 1.258 . S
C104 O106 1.263 . S
O105 Co102 1.970 . S
O105 C104 1.258 . S
O106 Co103 1.966 . S
O106 C104 1.263 . S
C107 O108 1.235 . S
C107 O134 1.289 . S
O108 C107 1.235 . S
C109 C111 1.400 . S
C109 N112 1.351 . S
C109 C114 1.501 1_566 S
C110 C111 1.387 . S
C110 N113 1.341 . S
C111 C109 1.400 . S
C111 C110 1.387 . S
N112 Co103 2.022 . S
N112 C109 1.351 . S
N112 N113 1.365 . S
N113 C110 1.341 . S
N113 N112 1.365 . S
N113 H133 0.862 . S
C114 C109 1.501 1_544 S
C114 H115 0.961 1_545 S
C114 H116 0.961 . S
C114 H117 0.960 . S
H115 C114 0.961 1_565 S
H116 C114 0.961 . S
H117 C114 0.960 . S
C118 N119 1.342 . S
C118 C122 1.401 . S
C118 C123 1.499 . S
N119 Co102 1.989 . S
N119 C118 1.342 . S
N119 N120 1.388 . S
N120 Co103 1.993 . S
N120 N119 1.388 . S
N120 C121 1.346 . S
C121 N120 1.346 . S
C121 C122 1.396 . S
C121 C131 1.510 . S
C122 C118 1.401 . S
C122 C121 1.396 . S
C123 C118 1.499 . S
C123 H124 0.959 . S
C123 H125 0.960 . S
C123 H126 0.961 . S
H124 C123 0.959 . S
H125 C123 0.960 . S
H126 C123 0.961 . S
O127 Co102 1.967 . S
O127 C135 1.258 . S
O128 Co103 1.941 . S
O128 C135 1.266 . S
H129 C131 0.959 . S
H130 C131 0.961 1_545 S
C131 C121 1.510 . S
C131 H129 0.959 . S
C131 H130 0.961 1_565 S
C131 H132 0.960 . S
H132 C131 0.960 . S
H133 N113 0.862 . S
O134 Co102 1.920 . S
O134 C107 1.289 . S
C135 O127 1.258 . S
C135 O128 1.266 . S
Co136 O139 1.970 . S
Co136 N153 1.989 . S
Co136 O161 1.967 . S
Co136 O168 1.920 . S
Co137 O140 1.966 . S
Co137 N146 2.022 . S
Co137 N154 1.993 . S
Co137 O162 1.941 . S
C138 O139 1.258 . S
C138 O140 1.263 . S
O139 Co136 1.970 . S
O139 C138 1.258 . S
O140 Co137 1.966 . S
O140 C138 1.263 . S
C141 O142 1.235 . S
C141 O168 1.289 . S
O142 C141 1.235 . S
C143 C145 1.400 . S
C143 N146 1.351 . S
C143 C148 1.501 . S
C144 C145 1.387 . S
C144 N147 1.341 . S
C145 C143 1.400 . S
C145 C144 1.387 . S
N146 Co137 2.022 . S
N146 C143 1.351 . S
N146 N147 1.365 . S
N147 C144 1.341 . S
N147 N146 1.365 . S
N147 H167 0.862 . S
C148 C143 1.501 . S
C148 H149 0.961 . S
C148 H150 0.961 . S
C148 H151 0.960 . S
H149 C148 0.961 . S
H150 C148 0.961 . S
H151 C148 0.960 . S
C152 N153 1.342 . S
C152 C156 1.401 . S
C152 C157 1.499 . S
N153 Co136 1.989 . S
N153 C152 1.342 . S
N153 N154 1.388 . S
N154 Co137 1.993 . S
N154 N153 1.388 . S
N154 C155 1.346 . S
C155 N154 1.346 . S
C155 C156 1.396 . S
C155 C165 1.510 . S
C156 C152 1.401 . S
C156 C155 1.396 . S
C157 C152 1.499 . S
C157 H158 0.959 . S
C157 H159 0.960 . S
C157 H160 0.961 . S
H158 C157 0.959 . S
H159 C157 0.960 . S
H160 C157 0.961 . S
O161 Co136 1.967 . S
O161 C169 1.258 . S
O162 Co137 1.941 . S
O162 C169 1.266 . S
H163 C165 0.959 . S
H164 C165 0.961 . S
C165 C155 1.510 . S
C165 H163 0.959 . S
C165 H164 0.961 . S
C165 H166 0.960 . S
H166 C165 0.960 . S
H167 N147 0.862 . S
O168 Co136 1.920 . S
O168 C141 1.289 . S
C169 O161 1.258 . S
C169 O162 1.266 . S
Co170 O173 1.970 . S
Co170 N187 1.989 . S
Co170 O195 1.967 . S
Co170 O202 1.920 . S
Co171 O174 1.966 . S
Co171 N180 2.022 . S
Co171 N188 1.993 . S
Co171 O196 1.941 . S
C172 O173 1.258 . S
C172 O174 1.263 . S
O173 Co170 1.970 . S
O173 C172 1.258 . S
O174 Co171 1.966 . S
O174 C172 1.263 . S
C175 O176 1.235 . S
C175 O202 1.289 . S
O176 C175 1.235 . S
C177 C179 1.400 . S
C177 N180 1.351 . S
C177 C182 1.501 1_554 S
C178 C179 1.387 . S
C178 N181 1.341 . S
C179 C177 1.400 . S
C179 C178 1.387 . S
N180 Co171 2.022 . S
N180 C177 1.351 . S
N180 N181 1.365 . S
N181 C178 1.341 . S
N181 N180 1.365 . S
N181 H201 0.862 . S
C182 C177 1.501 1_556 S
C182 H183 0.961 . S
C182 H184 0.961 . S
C182 H185 0.960 . S
H183 C182 0.961 . S
H184 C182 0.961 . S
H185 C182 0.960 . S
C186 N187 1.342 . S
C186 C190 1.401 . S
C186 C191 1.499 . S
N187 Co170 1.989 . S
N187 C186 1.342 . S
N187 N188 1.388 . S
N188 Co171 1.993 . S
N188 N187 1.388 . S
N188 C189 1.346 . S
C189 N188 1.346 . S
C189 C190 1.396 . S
C189 C199 1.510 . S
C190 C186 1.401 . S
C190 C189 1.396 . S
C191 C186 1.499 . S
C191 H192 0.959 . S
C191 H193 0.960 . S
C191 H194 0.961 . S
H192 C191 0.959 . S
H193 C191 0.960 . S
H194 C191 0.961 . S
O195 Co170 1.967 . S
O195 C203 1.258 . S
O196 Co171 1.941 . S
O196 C203 1.266 . S
H197 C199 0.959 . S
H198 C199 0.961 . S
C199 C189 1.510 . S
C199 H197 0.959 . S
C199 H198 0.961 . S
C199 H200 0.960 . S
H200 C199 0.960 . S
H201 N181 0.862 . S
O202 Co170 1.920 . S
O202 C175 1.289 . S
C203 O195 1.258 . S
C203 O196 1.266 . S
Co204 O207 1.970 . S
Co204 N221 1.989 . S
Co204 O229 1.967 . S
Co204 O236 1.920 . S
Co205 O208 1.966 . S
Co205 N214 2.022 . S
Co205 N222 1.993 . S
Co205 O230 1.941 . S
C206 O207 1.258 . S
C206 O208 1.263 . S
O207 Co204 1.970 . S
O207 C206 1.258 . S
O208 Co205 1.966 . S
O208 C206 1.263 . S
C209 O210 1.235 . S
C209 O236 1.289 . S
O210 C209 1.235 . S
C211 C213 1.400 . S
C211 N214 1.351 . S
C211 C216 1.501 . S
C212 C213 1.387 . S
C212 N215 1.341 . S
C213 C211 1.400 . S
C213 C212 1.387 . S
N214 Co205 2.022 . S
N214 C211 1.351 . S
N214 N215 1.365 . S
N215 C212 1.341 . S
N215 N214 1.365 . S
N215 H235 0.862 . S
C216 C211 1.501 . S
C216 H217 0.961 . S
C216 H218 0.961 . S
C216 H219 0.960 . S
H217 C216 0.961 . S
H218 C216 0.961 . S
H219 C216 0.960 . S
C220 N221 1.342 . S
C220 C224 1.401 . S
C220 C225 1.499 . S
N221 Co204 1.989 . S
N221 C220 1.342 . S
N221 N222 1.388 . S
N222 Co205 1.993 . S
N222 N221 1.388 . S
N222 C223 1.346 . S
C223 N222 1.346 . S
C223 C224 1.396 . S
C223 C233 1.510 . S
C224 C220 1.401 . S
C224 C223 1.396 . S
C225 C220 1.499 . S
C225 H226 0.959 . S
C225 H227 0.960 . S
C225 H228 0.961 . S
H226 C225 0.959 . S
H227 C225 0.960 . S
H228 C225 0.961 . S
O229 Co204 1.967 . S
O229 C237 1.258 . S
O230 Co205 1.941 . S
O230 C237 1.266 . S
H231 C233 0.959 . S
H232 C233 0.961 . S
C233 C223 1.510 . S
C233 H231 0.959 . S
C233 H232 0.961 . S
C233 H234 0.960 . S
H234 C233 0.960 . S
H235 N215 0.862 . S
O236 Co204 1.920 . S
O236 C209 1.289 . S
C237 O229 1.258 . S
C237 O230 1.266 . S
Co238 O241 1.970 . S
Co238 N255 1.989 . S
Co238 O263 1.967 . S
Co238 O270 1.920 . S
Co239 O242 1.966 . S
Co239 N248 2.022 . S
Co239 N256 1.993 . S
Co239 O264 1.941 . S
C240 O241 1.258 . S
C240 O242 1.263 . S
O241 Co238 1.970 . S
O241 C240 1.258 . S
O242 Co239 1.966 . S
O242 C240 1.263 . S
C243 O244 1.235 . S
C243 O270 1.289 . S
O244 C243 1.235 . S
C245 C247 1.400 . S
C245 N248 1.351 . S
C245 C250 1.501 1_556 S
C246 C247 1.387 . S
C246 N249 1.341 . S
C247 C245 1.400 . S
C247 C246 1.387 . S
N248 Co239 2.022 . S
N248 C245 1.351 . S
N248 N249 1.365 . S
N249 C246 1.341 . S
N249 N248 1.365 . S
N249 H269 0.862 . S
C250 C245 1.501 1_554 S
C250 H251 0.961 . S
C250 H252 0.961 . S
C250 H253 0.960 . S
H251 C250 0.961 . S
H252 C250 0.961 . S
H253 C250 0.960 . S
C254 N255 1.342 . S
C254 C258 1.401 . S
C254 C259 1.499 . S
N255 Co238 1.989 . S
N255 C254 1.342 . S
N255 N256 1.388 . S
N256 Co239 1.993 . S
N256 N255 1.388 . S
N256 C257 1.346 . S
C257 N256 1.346 . S
C257 C258 1.396 . S
C257 C267 1.510 . S
C258 C254 1.401 . S
C258 C257 1.396 . S
C259 C254 1.499 . S
C259 H260 0.959 . S
C259 H261 0.960 . S
C259 H262 0.961 . S
H260 C259 0.959 . S
H261 C259 0.960 . S
H262 C259 0.961 . S
O263 Co238 1.967 . S
O263 C271 1.258 . S
O264 Co239 1.941 . S
O264 C271 1.266 . S
H265 C267 0.959 . S
H266 C267 0.961 . S
C267 C257 1.510 . S
C267 H265 0.959 . S
C267 H266 0.961 . S
C267 H268 0.960 . S
H268 C267 0.960 . S
H269 N249 0.862 . S
O270 Co238 1.920 . S
O270 C243 1.289 . S
C271 O263 1.258 . S
C271 O264 1.266 . S
C272 C273 1.363 . S
C272 C278 1.379 . S
C272 N280 1.356 . S
C273 C272 1.363 . S
C273 C279 1.363 1_565 S
C274 C275 1.363 . S
C274 C279 1.379 . S
C274 N281 1.356 . S
C275 C274 1.363 . S
C275 C278 1.363 1_545 S
N276 C278 1.356 . S
N276 H288 0.984 . S
N276 H289 0.985 . S
N277 C279 1.356 . S
N277 H282 0.984 . S
N277 H283 0.985 . S
C278 C272 1.379 . S
C278 C275 1.363 1_565 S
C278 N276 1.356 . S
C279 C273 1.363 1_545 S
C279 C274 1.379 . S
C279 N277 1.356 . S
N280 C272 1.356 . S
N280 H286 0.984 . S
N280 H287 0.984 . S
N281 C274 1.356 . S
N281 H284 0.984 . S
N281 H285 0.985 . S
H282 N277 0.984 . S
H283 N277 0.985 . S
H284 N281 0.984 . S
H285 N281 0.985 . S
H286 N280 0.984 . S
H287 N280 0.984 . S
H288 N276 0.984 . S
H289 N276 0.985 . S
C290 C291 1.363 1_565 S
C290 C296 1.379 . S
C290 N298 1.356 . S
C291 C290 1.363 1_545 S
C291 C297 1.363 . S
C292 C293 1.363 1_545 S
C292 C297 1.379 . S
C292 N299 1.356 . S
C293 C292 1.363 1_565 S
C293 C296 1.363 . S
N294 C296 1.356 . S
N294 H306 0.984 . S
N294 H307 0.985 . S
N295 C297 1.356 . S
N295 H300 0.984 . S
N295 H301 0.985 . S
C296 C290 1.379 . S
C296 C293 1.363 . S
C296 N294 1.356 . S
C297 C291 1.363 . S
C297 C292 1.379 . S
C297 N295 1.356 . S
N298 C290 1.356 . S
N298 H304 0.984 . S
N298 H305 0.984 . S
N299 C292 1.356 . S
N299 H302 0.984 . S
N299 H303 0.985 . S
H300 N295 0.984 . S
H301 N295 0.985 . S
H302 N299 0.984 . S
H303 N299 0.985 . S
H304 N298 0.984 . S
H305 N298 0.984 . S
H306 N294 0.984 . S
H307 N294 0.985 . S
C308 C309 1.363 1_545 S
C308 C314 1.379 . S
C308 N316 1.356 . S
C309 C308 1.363 1_565 S
C309 C315 1.363 . S
C310 C311 1.363 1_565 S
C310 C315 1.379 . S
C310 N317 1.356 . S
C311 C310 1.363 1_545 S
C311 C314 1.363 . S
N312 C314 1.356 . S
N312 H324 0.984 . S
N312 H325 0.985 . S
N313 C315 1.356 . S
N313 H318 0.984 . S
N313 H319 0.985 . S
C314 C308 1.379 . S
C314 C311 1.363 . S
C314 N312 1.356 . S
C315 C309 1.363 . S
C315 C310 1.379 . S
C315 N313 1.356 . S
N316 C308 1.356 . S
N316 H322 0.984 . S
N316 H323 0.984 . S
N317 C310 1.356 . S
N317 H320 0.984 . S
N317 H321 0.985 . S
H318 N313 0.984 . S
H319 N313 0.985 . S
H320 N317 0.984 . S
H321 N317 0.985 . S
H322 N316 0.984 . S
H323 N316 0.984 . S
H324 N312 0.984 . S
H325 N312 0.985 . S
C326 C327 1.363 . S
C326 C332 1.379 . S
C326 N334 1.356 . S
C327 C326 1.363 . S
C327 C333 1.363 1_565 S
C328 C329 1.363 . S
C328 C333 1.379 . S
C328 N335 1.356 . S
C329 C328 1.363 . S
C329 C332 1.363 1_545 S
N330 C332 1.356 . S
N330 H342 0.984 . S
N330 H343 0.985 . S
N331 C333 1.356 . S
N331 H336 0.984 1_545 S
N331 H337 0.985 . S
C332 C326 1.379 . S
C332 C329 1.363 1_565 S
C332 N330 1.356 . S
C333 C327 1.363 1_545 S
C333 C328 1.379 . S
C333 N331 1.356 . S
N334 C326 1.356 . S
N334 H340 0.984 . S
N334 H341 0.984 . S
N335 C328 1.356 . S
N335 H338 0.984 . S
N335 H339 0.985 . S
H336 N331 0.984 1_565 S
H337 N331 0.985 . S
H338 N335 0.984 . S
H339 N335 0.985 . S
H340 N334 0.984 . S
H341 N334 0.984 . S
H342 N330 0.984 . S
H343 N330 0.985 . S
C344 C345 1.363 . S
C344 C350 1.379 . S
C344 N352 1.356 . S
C345 C344 1.363 . S
C345 C351 1.363 . S
C346 C347 1.363 . S
C346 C351 1.379 . S
C346 N353 1.356 . S
C347 C346 1.363 . S
C347 C350 1.363 . S
N348 C350 1.356 . S
N348 H360 0.984 . S
N348 H361 0.985 . S
N349 C351 1.356 . S
N349 H354 0.984 . S
N349 H355 0.985 . S
C350 C344 1.379 . S
C350 C347 1.363 . S
C350 N348 1.356 . S
C351 C345 1.363 . S
C351 C346 1.379 . S
C351 N349 1.356 . S
N352 C344 1.356 . S
N352 H358 0.984 . S
N352 H359 0.984 . S
N353 C346 1.356 . S
N353 H356 0.984 1_554 S
N353 H357 0.985 . S
H354 N349 0.984 . S
H355 N349 0.985 . S
H356 N353 0.984 1_556 S
H357 N353 0.985 . S
H358 N352 0.984 . S
H359 N352 0.984 . S
H360 N348 0.984 . S
H361 N348 0.985 . S
C362 C363 1.363 . S
C362 C368 1.379 . S
C362 N370 1.356 . S
C363 C362 1.363 . S
C363 C369 1.363 . S
C364 C365 1.363 . S
C364 C369 1.379 . S
C364 N371 1.356 . S
C365 C364 1.363 . S
C365 C368 1.363 . S
N366 C368 1.356 . S
N366 H378 0.984 . S
N366 H379 0.985 . S
N367 C369 1.356 . S
N367 H372 0.984 . S
N367 H373 0.985 . S
C368 C362 1.379 . S
C368 C365 1.363 . S
C368 N366 1.356 . S
C369 C363 1.363 . S
C369 C364 1.379 . S
C369 N367 1.356 . S
N370 C362 1.356 . S
N370 H376 0.984 . S
N370 H377 0.984 . S
N371 C364 1.356 . S
N371 H374 0.984 . S
N371 H375 0.985 . S
H372 N367 0.984 . S
H373 N367 0.985 . S
H374 N371 0.984 . S
H375 N371 0.985 . S
H376 N370 0.984 . S
H377 N370 0.984 . S
H378 N366 0.984 . S
H379 N366 0.985 . S
C380 C381 1.363 . S
C380 C386 1.379 . S
C380 N388 1.356 . S
C381 C380 1.363 . S
C381 C387 1.363 . S
C382 C383 1.363 . S
C382 C387 1.379 . S
C382 N389 1.356 . S
C383 C382 1.363 . S
C383 C386 1.363 . S
N384 C386 1.356 . S
N384 H396 0.984 . S
N384 H397 0.985 . S
N385 C387 1.356 . S
N385 H390 0.984 . S
N385 H391 0.985 . S
C386 C380 1.379 . S
C386 C383 1.363 . S
C386 N384 1.356 . S
C387 C381 1.363 . S
C387 C382 1.379 . S
C387 N385 1.356 . S
N388 C380 1.356 . S
N388 H394 0.984 1_556 S
N388 H395 0.984 1_556 S
N389 C382 1.356 . S
N389 H392 0.984 . S
N389 H393 0.985 . S
H390 N385 0.984 . S
H391 N385 0.985 . S
H392 N389 0.984 . S
H393 N389 0.985 . S
H394 N388 0.984 1_554 S
H395 N388 0.984 1_554 S
H396 N384 0.984 . S
H397 N384 0.985 . S
C398 C399 1.363 . S
C398 C404 1.379 . S
C398 N406 1.356 . S
C399 C398 1.363 . S
C399 C405 1.363 . S
C400 C401 1.363 . S
C400 C405 1.379 . S
C400 N407 1.356 . S
C401 C400 1.363 . S
C401 C404 1.363 . S
N402 C404 1.356 . S
N402 H414 0.984 . S
N402 H415 0.985 . S
N403 C405 1.356 . S
N403 H408 0.984 . S
N403 H409 0.985 . S
C404 C398 1.379 . S
C404 C401 1.363 . S
C404 N402 1.356 . S
C405 C399 1.363 . S
C405 C400 1.379 . S
C405 N403 1.356 . S
N406 C398 1.356 . S
N406 H412 0.984 . S
N406 H413 0.984 . S
N407 C400 1.356 . S
N407 H410 0.984 . S
N407 H411 0.985 . S
H408 N403 0.984 . S
H409 N403 0.985 . S
H410 N407 0.984 . S
H411 N407 0.985 . S
H412 N406 0.984 . S
H413 N406 0.984 . S
H414 N402 0.984 . S
H415 N402 0.985 . S
C416 C417 1.363 . S
C416 C422 1.379 . S
C416 N424 1.356 . S
C417 C416 1.363 . S
C417 C423 1.363 1_565 S
C418 C419 1.363 . S
C418 C423 1.379 . S
C418 N425 1.356 . S
C419 C418 1.363 . S
C419 C422 1.363 1_545 S
N420 C422 1.356 . S
N420 H432 0.984 . S
N420 H433 0.985 . S
N421 C423 1.356 . S
N421 H426 0.984 . S
N421 H427 0.985 . S
C422 C416 1.379 . S
C422 C419 1.363 1_565 S
C422 N420 1.356 . S
C423 C417 1.363 1_545 S
C423 C418 1.379 . S
C423 N421 1.356 . S
N424 C416 1.356 . S
N424 H430 0.984 . S
N424 H431 0.984 . S
N425 C418 1.356 . S
N425 H428 0.984 . S
N425 H429 0.985 . S
H426 N421 0.984 . S
H427 N421 0.985 . S
H428 N425 0.984 . S
H429 N425 0.985 . S
H430 N424 0.984 . S
H431 N424 0.984 . S
H432 N420 0.984 . S
H433 N420 0.985 . S
C434 C435 1.363 1_554 S
C434 C440 1.379 . S
C434 N442 1.356 . S
C435 C434 1.363 1_556 S
C435 C441 1.363 1_565 S
C436 C437 1.363 1_556 S
C436 C441 1.379 . S
C436 N443 1.356 . S
C437 C436 1.363 1_554 S
C437 C440 1.363 1_545 S
N438 C440 1.356 . S
N438 H450 0.984 . S
N438 H451 0.985 . S
N439 C441 1.356 . S
N439 H444 0.984 . S
N439 H445 0.985 . S
C440 C434 1.379 . S
C440 C437 1.363 1_565 S
C440 N438 1.356 . S
C441 C435 1.363 1_545 S
C441 C436 1.379 . S
C441 N439 1.356 . S
N442 C434 1.356 . S
N442 H448 0.984 . S
N442 H449 0.984 . S
N443 C436 1.356 . S
N443 H446 0.984 . S
N443 H447 0.985 . S
H444 N439 0.984 . S
H445 N439 0.985 . S
H446 N443 0.984 . S
H447 N443 0.985 . S
H448 N442 0.984 . S
H449 N442 0.984 . S
H450 N438 0.984 . S
H451 N438 0.985 . S
C452 C453 1.363 . S
C452 C458 1.379 1_655 S
C452 N460 1.356 . S
C453 C452 1.363 . S
C453 C459 1.363 . S
C454 C455 1.363 . S
C454 C459 1.379 1_455 S
C454 N461 1.356 . S
C455 C454 1.363 . S
C455 C458 1.363 . S
N456 C458 1.356 . S
N456 H468 0.984 . S
N456 H469 0.985 . S
N457 C459 1.356 . S
N457 H462 0.984 . S
N457 H463 0.985 . S
C458 C452 1.379 1_455 S
C458 C455 1.363 . S
C458 N456 1.356 . S
C459 C453 1.363 . S
C459 C454 1.379 1_655 S
C459 N457 1.356 . S
N460 C452 1.356 . S
N460 H466 0.984 . S
N460 H467 0.984 . S
N461 C454 1.356 . S
N461 H464 0.984 . S
N461 H465 0.985 . S
H462 N457 0.984 . S
H463 N457 0.985 . S
H464 N461 0.984 . S
H465 N461 0.985 . S
H466 N460 0.984 . S
H467 N460 0.984 . S
H468 N456 0.984 . S
H469 N456 0.985 . S
C470 C471 1.363 . S
C470 C476 1.379 1_455 S
C470 N478 1.356 . S
C471 C470 1.363 . S
C471 C477 1.363 1_554 S
C472 C473 1.363 . S
C472 C477 1.379 1_655 S
C472 N479 1.356 . S
C473 C472 1.363 . S
C473 C476 1.363 1_556 S
N474 C476 1.356 . S
N474 H486 0.984 . S
N474 H487 0.985 . S
N475 C477 1.356 . S
N475 H480 0.984 . S
N475 H481 0.985 . S
C476 C470 1.379 1_655 S
C476 C473 1.363 1_554 S
C476 N474 1.356 . S
C477 C471 1.363 1_556 S
C477 C472 1.379 1_455 S
C477 N475 1.356 . S
N478 C470 1.356 . S
N478 H484 0.984 . S
N478 H485 0.984 . S
N479 C472 1.356 . S
N479 H482 0.984 . S
N479 H483 0.985 . S
H480 N475 0.984 . S
H481 N475 0.985 . S
H482 N479 0.984 . S
H483 N479 0.985 . S
H484 N478 0.984 . S
H485 N478 0.984 . S
H486 N474 0.984 . S
H487 N474 0.985 . S
C488 C489 1.363 . S
C488 C494 1.379 1_455 S
C488 N496 1.356 1_545 S
C489 C488 1.363 . S
C489 C495 1.363 . S
C490 C491 1.363 . S
C490 C495 1.379 1_655 S
C490 N497 1.356 . S
C491 C490 1.363 . S
C491 C494 1.363 . S
N492 C494 1.356 1_565 S
N492 H504 0.984 . S
N492 H505 0.985 1_565 S
N493 C495 1.356 . S
N493 H498 0.984 . S
N493 H499 0.985 . S
C494 C488 1.379 1_655 S
C494 C491 1.363 . S
C494 N492 1.356 1_545 S
C495 C489 1.363 . S
C495 C490 1.379 1_455 S
C495 N493 1.356 . S
N496 C488 1.356 1_565 S
N496 H502 0.984 . S
N496 H503 0.984 1_565 S
N497 C490 1.356 . S
N497 H500 0.984 . S
N497 H501 0.985 . S
H498 N493 0.984 . S
H499 N493 0.985 . S
H500 N497 0.984 . S
H501 N497 0.985 . S
H502 N496 0.984 . S
H503 N496 0.984 1_545 S
H504 N492 0.984 . S
H505 N492 0.985 1_545 S
C506 C507 1.363 . S
C506 C512 1.379 1_455 S
C506 N514 1.356 . S
C507 C506 1.363 . S
C507 C513 1.363 . S
C508 C509 1.363 . S
C508 C513 1.379 1_655 S
C508 N515 1.342 1_565 S
C509 C508 1.363 . S
C509 C512 1.363 . S
N510 C512 1.356 . S
N510 H522 0.984 . S
N510 H523 0.985 . S
N511 C513 1.342 1_545 S
N511 H516 0.979 1_545 S
N511 H517 1.005 . S
C512 C506 1.379 1_655 S
C512 C509 1.363 . S
C512 N510 1.356 . S
C513 C507 1.363 . S
C513 C508 1.379 1_455 S
C513 N511 1.342 1_565 S
N514 C506 1.356 . S
N514 H520 0.984 . S
N514 H521 0.984 . S
N515 C508 1.342 1_545 S
N515 H518 0.979 1_545 S
N515 H519 1.005 . S
H516 N511 0.979 1_565 S
H517 N511 1.005 . S
H518 N515 0.979 1_565 S
H519 N515 1.005 . S
H520 N514 0.984 . S
H521 N514 0.984 . S
H522 N510 0.984 . S
H523 N510 0.985 . S
C524 C525 1.363 . S
C524 C530 1.379 . S
C524 N532 1.356 . S
C525 C524 1.363 . S
C525 C531 1.363 . S
C526 C527 1.363 . S
C526 C531 1.379 . S
C526 N533 1.356 . S
C527 C526 1.363 . S
C527 C530 1.363 . S
N528 C530 1.356 . S
N528 H540 0.984 . S
N528 H541 0.985 . S
N529 C531 1.356 . S
N529 H534 0.984 . S
N529 H535 0.985 . S
C530 C524 1.379 . S
C530 C527 1.363 . S
C530 N528 1.356 . S
C531 C525 1.363 . S
C531 C526 1.379 . S
C531 N529 1.356 . S
N532 C524 1.356 . S
N532 H538 0.984 . S
N532 H539 0.984 . S
N533 C526 1.356 . S
N533 H536 0.984 . S
N533 H537 0.985 . S
H534 N529 0.984 . S
H535 N529 0.985 . S
H536 N533 0.984 . S
H537 N533 0.985 . S
H538 N532 0.984 . S
H539 N532 0.984 . S
H540 N528 0.984 . S
H541 N528 0.985 . S
C542 C543 1.363 . S
C542 C548 1.379 . S
C542 N550 1.356 . S
C543 C542 1.363 . S
C543 C549 1.363 . S
C544 C545 1.363 . S
C544 C549 1.379 . S
C544 N551 1.356 . S
C545 C544 1.363 . S
C545 C548 1.363 . S
N546 C548 1.356 . S
N546 H558 0.984 . S
N546 H559 0.985 . S
N547 C549 1.356 . S
N547 H552 0.984 . S
N547 H553 0.985 . S
C548 C542 1.379 . S
C548 C545 1.363 . S
C548 N546 1.356 . S
C549 C543 1.363 . S
C549 C544 1.379 . S
C549 N547 1.356 . S
N550 C542 1.356 . S
N550 H556 0.984 . S
N550 H557 0.984 . S
N551 C544 1.356 . S
N551 H554 0.984 . S
N551 H555 0.985 . S
H552 N547 0.984 . S
H553 N547 0.985 . S
H554 N551 0.984 . S
H555 N551 0.985 . S
H556 N550 0.984 . S
H557 N550 0.984 . S
H558 N546 0.984 . S
H559 N546 0.985 . S
C560 C561 1.363 . S
C560 C566 1.379 . S
C560 N568 1.356 . S
C561 C560 1.363 . S
C561 C567 1.363 . S
C562 C563 1.363 . S
C562 C567 1.379 . S
C562 N569 1.356 . S
C563 C562 1.363 . S
C563 C566 1.363 . S
N564 C566 1.356 . S
N564 H576 0.984 . S
N564 H577 0.985 . S
N565 C567 1.356 . S
N565 H570 0.984 . S
N565 H571 0.985 . S
C566 C560 1.379 . S
C566 C563 1.363 . S
C566 N564 1.356 . S
C567 C561 1.363 . S
C567 C562 1.379 . S
C567 N565 1.356 . S
N568 C560 1.356 . S
N568 H574 0.984 . S
N568 H575 0.984 . S
N569 C562 1.356 . S
N569 H572 0.984 . S
N569 H573 0.985 . S
H570 N565 0.984 . S
H571 N565 0.985 . S
H572 N569 0.984 . S
H573 N569 0.985 . S
H574 N568 0.984 . S
H575 N568 0.984 . S
H576 N564 0.984 . S
H577 N564 0.985 . S
C578 C579 1.363 1_554 S
C578 C584 1.379 . S
C578 N586 1.356 1_554 S
C579 C578 1.363 1_556 S
C579 C585 1.363 . S
C580 C581 1.363 1_556 S
C580 C585 1.379 . S
C580 N587 1.356 1_556 S
C581 C580 1.363 1_554 S
C581 C584 1.363 . S
N582 C584 1.356 . S
N582 H594 0.984 . S
N582 H595 0.985 . S
N583 C585 1.356 . S
N583 H588 0.984 . S
N583 H589 0.985 . S
C584 C578 1.379 . S
C584 C581 1.363 . S
C584 N582 1.356 . S
C585 C579 1.363 . S
C585 C580 1.379 . S
C585 N583 1.356 . S
N586 C578 1.356 1_556 S
N586 H592 0.984 1_556 S
N586 H593 0.984 . S
N587 C580 1.356 1_554 S
N587 H590 0.984 . S
N587 H591 0.985 1_554 S
H588 N583 0.984 . S
H589 N583 0.985 . S
H590 N587 0.984 . S
H591 N587 0.985 1_556 S
H592 N586 0.984 1_554 S
H593 N586 0.984 . S
H594 N582 0.984 . S
H595 N582 0.985 . S
C596 C597 1.363 . S
C596 C602 1.379 . S
C596 N604 1.356 . S
C597 C596 1.363 . S
C597 C603 1.363 . S
C598 C599 1.363 . S
C598 C603 1.379 . S
C598 N605 1.356 . S
C599 C598 1.363 . S
C599 C602 1.363 . S
N600 C602 1.356 . S
N600 H612 0.984 . S
N600 H613 0.985 . S
N601 C603 1.356 . S
N601 H606 0.984 . S
N601 H607 0.985 . S
C602 C596 1.379 . S
C602 C599 1.363 . S
C602 N600 1.356 . S
C603 C597 1.363 . S
C603 C598 1.379 . S
C603 N601 1.356 . S
N604 C596 1.356 . S
N604 H610 0.984 . S
N604 H611 0.984 . S
N605 C598 1.356 . S
N605 H608 0.984 . S
N605 H609 0.985 . S
H606 N601 0.984 . S
H607 N601 0.985 . S
H608 N605 0.984 . S
H609 N605 0.985 . S
H610 N604 0.984 . S
H611 N604 0.984 . S
H612 N600 0.984 . S
H613 N600 0.985 . S
C614 C615 1.363 1_554 S
C614 C620 1.379 . S
C614 N622 1.356 . S
C615 C614 1.363 1_556 S
C615 C621 1.363 . S
C616 C617 1.363 1_556 S
C616 C621 1.379 . S
C616 N623 1.356 . S
C617 C616 1.363 1_554 S
C617 C620 1.363 . S
N618 C620 1.356 . S
N618 H630 0.984 . S
N618 H631 0.985 . S
N619 C621 1.356 . S
N619 H624 0.984 . S
N619 H625 0.985 . S
C620 C614 1.379 . S
C620 C617 1.363 . S
C620 N618 1.356 . S
C621 C615 1.363 . S
C621 C616 1.379 . S
C621 N619 1.356 . S
N622 C614 1.356 . S
N622 H628 0.984 . S
N622 H629 0.984 1_554 S
N623 C616 1.356 . S
N623 H626 0.984 1_556 S
N623 H627 0.985 . S
H624 N619 0.984 . S
H625 N619 0.985 . S
H626 N623 0.984 1_554 S
H627 N623 0.985 . S
H628 N622 0.984 . S
H629 N622 0.984 1_556 S
H630 N618 0.984 . S
H631 N618 0.985 . S
C273 C104 1.391 1_554 S
C275 C20 1.385 . S
C291 C54 1.385 . S
C293 C70 1.391 . S
C309 C88 1.385 . S
C311 C36 1.391 1_556 S
C327 C122 1.385 . S
C329 C2 1.391 . S
C345 C156 1.385 . S
C347 C240 1.391 1_554 S
C363 C190 1.385 . S
C365 C206 1.391 . S
C381 C172 1.391 1_556 S
C383 C224 1.385 . S
C399 C258 1.385 . S
C401 C138 1.391 . S
C417 C77 1.363 . S
C419 C9 1.363 . S
C435 C111 1.363 . S
C437 C43 1.363 . S
C453 C145 1.363 . S
C455 C213 1.363 . S
C471 C179 1.363 . S
C473 C247 1.363 . S
C489 C5 1.593 . S
C491 C39 1.593 . S
C507 C107 1.593 . S
C509 C73 1.593 . S
C525 C175 1.593 . S
C527 C141 1.593 . S
C543 C243 1.593 . S
C545 C209 1.593 . S
C561 C237 1.574 . S
C563 C33 1.574 . S
C579 C271 1.574 . S
C581 C67 1.574 . S
C597 C169 1.574 . S
C599 C101 1.574 . S
C615 C135 1.574 . S
C617 C203 1.574 . S
