# Generated by pormake.
# Topology umz, (4)-cn, num edge types: 1
# Building blocks:
#     Node 0, Type 0, BuildingBlock: CEKHIL_clean_sbu_0, # of connection points: 4
#     Node 1, Type 0, BuildingBlock: CEKHIL_clean_sbu_0, # of connection points: 4
#     Node 2, Type 0, BuildingBlock: CEKHIL_clean_sbu_0, # of connection points: 4
#     Node 3, Type 0, BuildingBlock: CEKHIL_clean_sbu_0, # of connection points: 4
#     Node 4, Type 0, BuildingBlock: CEKHIL_clean_sbu_0, # of connection points: 4
#     Node 5, Type 0, BuildingBlock: CEKHIL_clean_sbu_0, # of connection points: 4
#     Node 6, Type 0, BuildingBlock: CEKHIL_clean_sbu_0, # of connection points: 4
#     Node 7, Type 0, BuildingBlock: CEKHIL_clean_sbu_0, # of connection points: 4
#     Node 8, Type 0, BuildingBlock: CEKHIL_clean_sbu_0, # of connection points: 4
#     Node 9, Type 0, BuildingBlock: CEKHIL_clean_sbu_0, # of connection points: 4
#     Node 10, Type 0, BuildingBlock: CEKHIL_clean_sbu_0, # of connection points: 4
#     Node 11, Type 0, BuildingBlock: CEKHIL_clean_sbu_0, # of connection points: 4
#     Node 12, Type 0, BuildingBlock: CEKHIL_clean_sbu_0, # of connection points: 4
#     Node 13, Type 0, BuildingBlock: CEKHIL_clean_sbu_0, # of connection points: 4
#     Node 14, Type 0, BuildingBlock: CEKHIL_clean_sbu_0, # of connection points: 4
#     Node 15, Type 0, BuildingBlock: CEKHIL_clean_sbu_0, # of connection points: 4
#     Edge 16, Type (0, 0), BuildingBlock: ZUJKAS_clean_linker_0, # of connection points: 2
#     Edge 17, Type (0, 0), BuildingBlock: ZUJKAS_clean_linker_0, # of connection points: 2
#     Edge 18, Type (0, 0), BuildingBlock: ZUJKAS_clean_linker_0, # of connection points: 2
#     Edge 19, Type (0, 0), BuildingBlock: ZUJKAS_clean_linker_0, # of connection points: 2
#     Edge 20, Type (0, 0), BuildingBlock: ZUJKAS_clean_linker_0, # of connection points: 2
#     Edge 21, Type (0, 0), BuildingBlock: ZUJKAS_clean_linker_0, # of connection points: 2
#     Edge 22, Type (0, 0), BuildingBlock: ZUJKAS_clean_linker_0, # of connection points: 2
#     Edge 23, Type (0, 0), BuildingBlock: ZUJKAS_clean_linker_0, # of connection points: 2
#     Edge 24, Type (0, 0), BuildingBlock: ZUJKAS_clean_linker_0, # of connection points: 2
#     Edge 25, Type (0, 0), BuildingBlock: ZUJKAS_clean_linker_0, # of connection points: 2
#     Edge 26, Type (0, 0), BuildingBlock: ZUJKAS_clean_linker_0, # of connection points: 2
#     Edge 27, Type (0, 0), BuildingBlock: ZUJKAS_clean_linker_0, # of connection points: 2
#     Edge 28, Type (0, 0), BuildingBlock: ZUJKAS_clean_linker_0, # of connection points: 2
#     Edge 29, Type (0, 0), BuildingBlock: ZUJKAS_clean_linker_0, # of connection points: 2
#     Edge 30, Type (0, 0), BuildingBlock: ZUJKAS_clean_linker_0, # of connection points: 2
#     Edge 31, Type (0, 0), BuildingBlock: ZUJKAS_clean_linker_0, # of connection points: 2
#     Edge 32, Type (0, 0), BuildingBlock: ZUJKAS_clean_linker_0, # of connection points: 2
#     Edge 33, Type (0, 0), BuildingBlock: ZUJKAS_clean_linker_0, # of connection points: 2
#     Edge 34, Type (0, 0), BuildingBlock: ZUJKAS_clean_linker_0, # of connection points: 2
#     Edge 35, Type (0, 0), BuildingBlock: ZUJKAS_clean_linker_0, # of connection points: 2
#     Edge 36, Type (0, 0), BuildingBlock: ZUJKAS_clean_linker_0, # of connection points: 2
#     Edge 37, Type (0, 0), BuildingBlock: ZUJKAS_clean_linker_0, # of connection points: 2
#     Edge 38, Type (0, 0), BuildingBlock: ZUJKAS_clean_linker_0, # of connection points: 2
#     Edge 39, Type (0, 0), BuildingBlock: ZUJKAS_clean_linker_0, # of connection points: 2
#     Edge 40, Type (0, 0), BuildingBlock: ZUJKAS_clean_linker_0, # of connection points: 2
#     Edge 41, Type (0, 0), BuildingBlock: ZUJKAS_clean_linker_0, # of connection points: 2
#     Edge 42, Type (0, 0), BuildingBlock: ZUJKAS_clean_linker_0, # of connection points: 2
#     Edge 43, Type (0, 0), BuildingBlock: ZUJKAS_clean_linker_0, # of connection points: 2
#     Edge 44, Type (0, 0), BuildingBlock: ZUJKAS_clean_linker_0, # of connection points: 2
#     Edge 45, Type (0, 0), BuildingBlock: ZUJKAS_clean_linker_0, # of connection points: 2
#     Edge 46, Type (0, 0), BuildingBlock: ZUJKAS_clean_linker_0, # of connection points: 2
#     Edge 47, Type (0, 0), BuildingBlock: ZUJKAS_clean_linker_0, # of connection points: 2
# Relax obj value: 0.261
# Max RMSD: 0.165
# Mean RMSD: 0.165
data_MOF--net-umz--node1-CEKHIL_clean_sbu_0--edge1-ZUJKAS_clean_linker_0
_symmetry_space_group_name_H-M    P1
_symmetry_Int_Tables_number       1
_symmetry_cell_setting            triclinic
loop_
_symmetry_equiv_pos_as_xyz
'x, y, z'
_cell_length_a     75.923099
_cell_length_b     75.992572
_cell_length_c     29.471007
_cell_angle_alpha  89.990242
_cell_angle_beta   90.033758
_cell_angle_gamma 90.010717
loop_
_atom_site_label
_atom_site_type_symbol
_atom_site_fract_x
_atom_site_fract_y
_atom_site_fract_z
_atom_type_partial_charge
Co0 Co 0.00787 0.63099 0.10652 0.0
O1 O 0.0012 0.64823 0.06186 0.0
O2 O 0.02305 0.65122 0.11119 0.0
C3 C 0.98033 0.62498 0.13077 0.0
O4 O 0.01847 0.61693 0.1584 0.0
Co5 Co -0.00446 0.59203 0.10273 0.0
O6 O 0.00627 0.59012 0.16387 0.0
C7 C 0.02467 0.6042 0.04346 0.0
C8 C 0.0139 0.65784 0.07804 0.0
C9 C 0.01657 0.60207 0.17861 0.0
O10 O 0.02451 0.61954 0.06202 0.0
O11 O 0.01351 0.59211 0.05302 0.0
O12 O 0.98872 0.63859 0.14656 0.0
O13 O 0.98823 0.61636 0.09909 0.0
Co14 Co 0.85932 0.00692 0.60664 0.0
O15 O 0.84214 -0.00073 0.56275 0.0
O16 O 0.83924 0.0224 0.60794 0.0
C17 C 0.86486 0.97997 0.63557 0.0
O18 O 0.87322 0.01866 0.65724 0.0
Co19 Co 0.89816 0.99411 0.60692 0.0
O20 O 0.89951 0.00574 0.66715 0.0
C21 C 0.88588 0.01969 0.53785 0.0
C22 C 0.83259 0.01243 0.57647 0.0
C23 C 0.88768 0.01665 0.67935 0.0
O24 O 0.87127 0.02198 0.55926 0.0
O25 O 0.89732 0.00812 0.54932 0.0
O26 O 0.85128 0.98888 0.6496 0.0
O27 O 0.87375 0.98707 0.60318 0.0
Co28 Co 0.48296 0.85678 0.1091 0.0
O29 O 0.48991 0.83867 0.06734 0.0
O30 O 0.46728 0.83692 0.11467 0.0
C31 C 0.51027 0.8627 0.13495 0.0
O32 O 0.47215 0.87207 0.15824 0.0
Co33 Co 0.49615 0.89528 0.09976 0.0
O34 O 0.48563 0.89835 0.16098 0.0
C35 C 0.46933 0.88141 0.03654 0.0
C36 C 0.47678 0.8296 0.08319 0.0
C37 C 0.47484 0.8871 0.17702 0.0
O38 O 0.46728 0.86764 0.06142 0.0
O39 O 0.48127 0.89299 0.04377 0.0
O40 O 0.50141 0.8496 0.15188 0.0
O41 O 0.50297 0.87078 0.10142 0.0
Co42 Co 0.62983 0.48158 0.60729 0.0
O43 O 0.64695 0.48876 0.56285 0.0
O44 O 0.64996 0.46618 0.60991 0.0
C45 C 0.62439 0.50872 0.63505 0.0
O46 O 0.61579 0.4704 0.65846 0.0
Co47 Co 0.59104 0.49473 0.60543 0.0
O48 O 0.58913 0.48292 0.66519 0.0
C49 C 0.60262 0.46668 0.54216 0.0
C50 C 0.65658 0.47587 0.57781 0.0
C51 C 0.60094 0.47224 0.67887 0.0
O52 O 0.61788 0.46591 0.56125 0.0
O53 O 0.5909 0.47807 0.55281 0.0
O54 O 0.63799 0.49988 0.64913 0.0
O55 O 0.61552 0.50155 0.60265 0.0
Co56 Co 0.00783 0.85932 0.87826 0.0
O57 O 0.00069 0.84279 0.92421 0.0
O58 O 0.02373 0.83956 0.8788 0.0
C59 C 0.98064 0.86372 0.84983 0.0
O60 O 0.01912 0.87257 0.82592 0.0
Co61 Co 0.99434 0.89775 0.87389 0.0
O62 O 0.00528 0.89812 0.81277 0.0
C63 C 0.02176 0.8878 0.94091 0.0
C64 C 0.01403 0.83331 0.91135 0.0
C65 C 0.01656 0.88646 0.80192 0.0
O66 O 0.02294 0.87227 0.92369 0.0
O67 O 0.01044 0.89921 0.92772 0.0
O68 O 0.98984 0.85023 0.8366 0.0
O69 O 0.98763 0.87335 0.88099 0.0
Co70 Co 0.62966 0.00755 0.37989 0.0
O71 O 0.6462 0.00038 0.42584 0.0
O72 O 0.64979 0.023 0.37927 0.0
C73 C 0.62446 0.98037 0.35202 0.0
O74 O 0.6163 0.01868 0.3274 0.0
Co75 Co 0.59082 0.99455 0.37858 0.0
O76 O 0.58988 0.00592 0.31805 0.0
C77 C 0.60172 0.02259 0.44267 0.0
C78 C 0.65597 0.01336 0.41208 0.0
C79 C 0.60182 0.01663 0.30538 0.0
O80 O 0.61716 0.02332 0.42466 0.0
O81 O 0.59011 0.01118 0.43125 0.0
O82 O 0.63827 0.98912 0.33894 0.0
O83 O 0.61523 0.98765 0.38352 0.0
Co84 Co 0.48062 0.62821 0.88225 0.0
O85 O 0.48699 0.64475 0.92881 0.0
O86 O 0.46554 0.64856 0.87867 0.0
C87 C 0.50836 0.62246 0.85935 0.0
O88 O 0.47047 0.61487 0.82846 0.0
Co89 Co 0.4928 0.58919 0.88358 0.0
O90 O 0.48307 0.58831 0.82122 0.0
C91 C 0.46323 0.60071 0.94212 0.0
C92 C 0.47444 0.65463 0.91296 0.0
C93 C 0.47281 0.60036 0.80687 0.0
O94 O 0.4636 0.61626 0.92482 0.0
O95 O 0.47435 0.58866 0.93211 0.0
O96 O 0.50017 0.63628 0.84411 0.0
O97 O 0.50011 0.61344 0.88967 0.0
Co98 Co 0.85983 0.48206 0.3812 0.0
O99 O 0.84459 0.48872 0.43052 0.0
O100 O 0.83907 0.46752 0.3808 0.0
C101 C 0.86565 0.50958 0.35663 0.0
O102 O 0.87152 0.47163 0.32532 0.0
Co103 Co 0.8991 0.49333 0.37537 0.0
O104 O 0.8974 0.4849 0.31182 0.0
C105 C 0.88839 0.46441 0.43719 0.0
C106 C 0.83401 0.47652 0.41594 0.0
C107 C 0.88503 0.47451 0.30015 0.0
O108 O 0.8725 0.46484 0.42186 0.0
O109 O 0.90034 0.47533 0.425 0.0
O110 O 0.85119 0.50172 0.34438 0.0
O111 O 0.87522 0.50121 0.38562 0.0
Co112 Co 0.98261 0.36166 0.88138 0.0
O113 O 0.98935 0.34629 0.9304 0.0
O114 O 0.96748 0.34134 0.88217 0.0
C115 C 0.0101 0.36691 0.85547 0.0
O116 O 0.97199 0.37356 0.82592 0.0
Co117 Co 0.99469 0.4007 0.87571 0.0
O118 O 0.98453 0.3999 0.8138 0.0
C119 C 0.96646 0.3904 0.93965 0.0
C120 C 0.97666 0.33608 0.91686 0.0
C121 C 0.97421 0.38751 0.80186 0.0
O122 O 0.96597 0.37476 0.92284 0.0
O123 O 0.97784 0.40195 0.9278 0.0
O124 O 0.00195 0.35255 0.84384 0.0
O125 O 0.00206 0.37662 0.88468 0.0
Co126 Co 0.13252 0.98127 0.3792 0.0
O127 O 0.15058 0.98993 0.41906 0.0
O128 O 0.15311 0.96644 0.375 0.0
C129 C 0.12513 0.00757 0.34918 0.0
O130 O 0.11729 0.96881 0.33235 0.0
Co131 Co 0.09349 0.99321 0.38955 0.0
O132 O 0.08999 0.98027 0.33174 0.0
C133 C 0.109 0.9683 0.45512 0.0
C134 C 0.16022 0.97699 0.40455 0.0
C135 C 0.10167 0.96996 0.31564 0.0
O136 O 0.12258 0.96617 0.42953 0.0
O137 O 0.09703 0.97978 0.44735 0.0
O138 O 0.13867 -0.00097 0.33355 0.0
O139 O 0.11769 0.00075 0.38431 0.0
Co140 Co 0.50784 0.12956 0.87939 0.0
O141 O 0.50062 0.14497 0.92788 0.0
O142 O 0.52176 0.15071 0.87814 0.0
C143 C 0.48038 0.12272 0.85567 0.0
O144 O 0.5187 0.1179 0.82389 0.0
Co145 Co 0.49802 0.08993 0.87493 0.0
O146 O 0.50677 0.0913 0.81175 0.0
C147 C 0.52662 0.10194 0.93611 0.0
C148 C 0.51252 0.15581 0.91282 0.0
C149 C 0.51661 0.10402 0.79953 0.0
O150 O 0.5255 0.11775 0.92063 0.0
O151 O 0.51624 0.08949 0.92409 0.0
O152 O 0.48772 0.13733 0.84268 0.0
O153 O 0.48924 0.11353 0.88452 0.0
Co154 Co 0.35773 0.5071 0.38073 0.0
O155 O 0.34104 0.50043 0.42669 0.0
O156 O 0.3377 0.52263 0.37863 0.0
C157 C 0.36268 0.47962 0.35521 0.0
O158 O 0.37117 0.51774 0.32784 0.0
Co159 Co 0.39643 0.49399 0.37963 0.0
O160 O 0.39744 0.50475 0.31842 0.0
C161 C 0.3859 0.52297 0.44139 0.0
C162 C 0.33136 0.5133 0.4118 0.0
C163 C 0.38554 0.51546 0.30558 0.0
O164 O 0.3702 0.52318 0.42482 0.0
O165 O 0.39764 0.51174 0.42975 0.0
O166 O 0.34912 0.48841 0.34067 0.0
O167 O 0.37203 0.48714 0.38612 0.0
Co168 Co 0.98088 0.13223 0.10488 0.0
O169 O 0.98868 0.15049 0.06443 0.0
O170 O 0.96631 0.15281 0.11238 0.0
C171 C 0.00788 0.12451 0.12992 0.0
O172 O 0.96936 0.11695 0.15297 0.0
Co173 Co 0.99209 0.09317 0.0923 0.0
O174 O 0.9809 0.08974 0.15262 0.0
C175 C 0.9664 0.10941 0.02989 0.0
C176 C 0.97612 0.16004 0.0814 0.0
C177 C 0.97092 0.10144 0.16995 0.0
O178 O 0.96458 0.1227 0.05657 0.0
O179 O 0.97798 0.09738 0.03577 0.0
O180 O -0.00017 0.13793 0.14781 0.0
O181 O 4e-05 0.11728 0.09594 0.0
Co182 Co 0.3624 0.98217 0.61104 0.0
O183 O 0.34689 0.99 0.5633 0.0
O184 O 0.34203 0.96712 0.60822 0.0
C185 C 0.36763 0.00912 0.64058 0.0
O186 O 0.37433 0.9703 0.66475 0.0
Co187 Co 0.40142 0.99412 0.61964 0.0
O188 O 0.40019 0.98322 0.68071 0.0
C189 C 0.39095 0.96839 0.54897 0.0
C190 C 0.33665 0.97709 0.57519 0.0
C191 C 0.38792 0.9724 0.69024 0.0
O192 O 0.37554 0.96668 0.56676 0.0
O193 O 0.40231 0.97963 0.56293 0.0
O194 O 0.35332 0.00068 0.65144 0.0
O195 O 0.37737 0.00162 0.61053 0.0
Co196 Co 0.5063 0.35977 0.10787 0.0
O197 O 0.49826 0.34295 0.06367 0.0
O198 O 0.52146 0.33943 0.10846 0.0
C199 C 0.47952 0.3655 0.13749 0.0
O200 O 0.51834 0.37333 0.15864 0.0
Co201 Co 0.49391 0.39874 0.10824 0.0
O202 O 0.50653 0.40022 0.16701 0.0
C203 C 0.52075 0.38689 0.04195 0.0
C204 C 0.51124 0.33309 0.07706 0.0
C205 C 0.51705 0.3881 0.17962 0.0
O206 O 0.52161 0.37163 0.06087 0.0
O207 O 0.50967 0.39873 0.05382 0.0
O208 O 0.48831 0.35176 0.15084 0.0
O209 O 0.48655 0.37443 0.10501 0.0
Co210 Co 0.12865 0.50842 0.60857 0.0
O211 O 0.14462 0.50104 0.56141 0.0
O212 O 0.14934 0.52298 0.6095 0.0
C213 C 0.12231 0.48123 0.63483 0.0
O214 O 0.11627 0.51971 0.66238 0.0
Co215 Co 0.08918 0.49762 0.61126 0.0
O216 O 0.08906 0.5088 0.67191 0.0
C217 C 0.10103 0.52557 0.54835 0.0
C218 C 0.15492 0.51354 0.57573 0.0
C219 C 0.10176 0.51859 0.68463 0.0
O220 O 0.11666 0.52519 0.56526 0.0
O221 O 0.0888 0.51489 0.56005 0.0
O222 O 0.13672 0.48908 0.6475 0.0
O223 O 0.11313 0.48935 0.60455 0.0
H224 H -0.00439 0.67551 0.0128 0.0
H225 H 0.00069 0.7054 0.98551 0.0
H226 H 0.04542 0.71031 0.07496 0.0
H227 H 0.0402 0.68044 0.10321 0.0
H228 H 0.02385 0.73853 0.0803 0.0
H229 H 0.03795 0.7241 0.90021 0.0
H230 H 0.01757 0.71434 0.91791 0.0
H231 H 0.03794 0.70725 0.94339 0.0
C232 C 0.00663 0.68287 0.0264 0.0
C233 C 0.01753 0.67562 0.06009 0.0
C234 C 0.0096 0.69992 0.01051 0.0
C235 C 0.02364 0.70996 0.02757 0.0
C236 C 0.0346 0.70272 0.06109 0.0
H237 H 0.04264 0.8121 0.8977 0.0
H238 H 0.04781 0.78277 0.9295 0.0
C239 C 0.0316 0.68567 0.07716 0.0
C240 C 0.02608 0.72836 0.01229 0.0
H241 H 0.02876 0.75376 0.91712 0.0
C242 C 0.0252 0.74187 0.04469 0.0
C243 C 0.02824 0.73272 0.96596 0.0
C244 C 0.03068 0.71881 0.92996 0.0
C245 C 0.02541 0.75963 0.03171 0.0
C246 C 0.02606 0.76395 0.98503 0.0
C247 C 0.02798 0.75046 0.95287 0.0
C248 C 0.02368 0.78223 0.96855 0.0
C249 C 0.02479 0.77356 0.06816 0.0
C250 C 0.00839 0.79163 0.97984 0.0
C251 C 0.00547 0.8084 0.96205 0.0
C252 C 0.01766 0.81598 0.93199 0.0
C253 C 0.03301 0.80659 0.92079 0.0
C254 C 0.03598 0.78985 0.93893 0.0
H255 H 0.03052 0.76864 0.10046 0.0
H256 H 0.03201 0.78561 0.05775 0.0
H257 H 0.01086 0.77713 0.07488 0.0
H258 H -0.00155 0.78583 0.00155 0.0
H259 H 0.99345 0.81524 0.97102 0.0
H260 H 0.67327 0.9933 0.47445 0.0
H261 H 0.70306 -0.0025 0.50358 0.0
H262 H 0.70827 0.04488 0.42406 0.0
H263 H 0.67853 0.04053 0.39381 0.0
H264 H 0.73632 0.02373 0.41414 0.0
H265 H 0.72203 0.03129 0.59697 0.0
H266 H 0.71247 0.01155 0.57455 0.0
H267 H 0.70508 0.03264 0.55413 0.0
C268 C 0.68066 0.00473 0.46352 0.0
C269 C 0.67355 0.0166 0.43187 0.0
C270 C 0.69766 0.00719 0.48049 0.0
C271 C 0.70778 0.02168 0.46667 0.0
C272 C 0.70064 0.03367 0.43542 0.0
H273 H 0.81033 0.03971 0.59579 0.0
H274 H 0.78039 0.04424 0.56706 0.0
C275 C 0.68365 0.03117 0.41819 0.0
C276 C 0.72622 0.02355 0.48246 0.0
H277 H 0.75183 0.02334 0.57767 0.0
C278 C 0.73971 0.0239 0.4499 0.0
C279 C 0.73064 0.0241 0.52909 0.0
C280 C 0.71677 0.02507 0.56565 0.0
C281 C 0.7575 0.0239 0.46273 0.0
C282 C 0.7619 0.02312 0.50933 0.0
C283 C 0.74844 0.02367 0.54192 0.0
C284 C 0.78033 0.02091 0.52497 0.0
C285 C 0.7714 0.02468 0.42619 0.0
C286 C 0.79017 0.00624 0.51106 0.0
C287 C 0.80727 0.00367 0.52717 0.0
C288 C 0.81478 0.01561 0.55799 0.0
C289 C 0.80491 0.0303 0.57197 0.0
C290 C 0.78781 0.0329 0.55563 0.0
H291 H 0.76623 0.03095 0.39483 0.0
H292 H 0.78317 0.03211 0.43774 0.0
H293 H 0.77554 0.0111 0.4174 0.0
H294 H 0.78449 -0.00344 0.48836 0.0
H295 H 0.81448 0.99215 0.51607 0.0
H296 H 0.44803 0.8089 0.10102 0.0
H297 H 0.44227 0.77913 0.07249 0.0
H298 H 0.49151 0.78018 -0.00047 0.0
H299 H 0.49709 0.80995 0.02671 0.0
H300 H 0.46472 0.76734 0.94808 0.0
H301 H 0.46601 0.73447 0.11677 0.0
H302 H 0.45012 0.75181 0.11053 0.0
H303 H 0.47323 0.75687 0.1088 0.0
C304 C 0.4576 0.80275 0.07889 0.0
C305 C 0.47304 0.81171 0.06622 0.0
C306 C 0.45433 0.78573 0.06281 0.0
C307 C 0.46658 0.77736 0.0344 0.0
C308 C 0.48188 0.78639 0.02143 0.0
H309 H 0.49376 0.67206 0.97645 0.0
H310 H 0.48887 0.70167 0.00583 0.0
C311 C 0.48507 0.8034 0.03708 0.0
C312 C 0.46376 0.75916 0.01795 0.0
H313 H 0.46176 0.7164 0.05298 0.0
C314 C 0.46389 0.75618 0.97095 0.0
C315 C 0.46275 0.74467 0.04799 0.0
C316 C 0.46315 0.74701 0.09884 0.0
C317 C 0.46381 0.73908 0.95309 0.0
C318 C 0.46311 0.72457 0.98313 0.0
C319 C 0.46223 0.72757 0.03009 0.0
C320 C 0.46512 0.70625 0.96687 0.0
C321 C 0.46546 0.73673 0.9024 0.0
C322 C 0.45322 0.69887 0.93575 0.0
C323 C 0.45612 0.68198 0.91843 0.0
C324 C 0.47082 0.67214 0.9325 0.0
C325 C 0.48234 0.67933 0.96486 0.0
C326 C 0.47953 0.69623 0.98179 0.0
H327 H 0.46968 0.74904 0.88522 0.0
H328 H 0.47508 0.7262 0.89417 0.0
H329 H 0.45248 0.73286 0.88822 0.0
H330 H 0.44181 0.70623 0.92454 0.0
H331 H 0.44691 0.67669 0.89386 0.0
H332 H 0.68253 0.45578 0.6158 0.0
H333 H 0.71335 0.4538 0.59182 0.0
H334 H 0.70205 0.48721 0.47707 0.0
H335 H 0.67143 0.48973 0.50166 0.0
H336 H 0.72982 0.4423 0.51618 0.0
H337 H 0.74154 0.51371 0.53775 0.0
H338 H 0.72183 0.50305 0.55798 0.0
H339 H 0.72379 0.5093 0.49924 0.0
C340 C 0.68661 0.46261 0.58531 0.0
C341 C 0.67465 0.47309 0.56088 0.0
C342 C 0.70421 0.46147 0.57167 0.0
C343 C 0.71008 0.47071 0.53332 0.0
C344 C 0.69792 0.48041 0.50755 0.0
H345 H 0.80636 0.45784 0.38174 0.0
H346 H 0.77682 0.45513 0.4138 0.0
C347 C 0.6804 0.48174 0.52147 0.0
C348 C 0.72897 0.47058 0.52072 0.0
H349 H 0.76362 0.49771 0.49777 0.0
C350 C 0.73728 0.45439 0.51247 0.0
C351 C 0.73879 0.48634 0.51698 0.0
C352 C 0.73109 0.50406 0.52894 0.0
C353 C 0.75501 0.45359 0.49908 0.0
C354 C 0.7645 0.46943 0.49263 0.0
C355 C 0.75631 0.48556 0.50224 0.0
C356 C 0.78279 0.46977 0.47497 0.0
C357 C 0.76342 0.43577 0.49258 0.0
C358 C 0.79592 0.47918 0.49821 0.0
C359 C 0.8127 0.48108 0.47945 0.0
C360 C 0.81669 0.4735 0.43724 0.0
C361 C 0.8037 0.4637 0.41454 0.0
C362 C 0.78684 0.46202 0.43301 0.0
H363 H 0.75666 0.42554 0.51313 0.0
H364 H 0.76231 0.4319 0.4564 0.0
H365 H 0.77757 0.43597 0.50203 0.0
H366 H 0.79308 0.48533 0.53055 0.0
H367 H 0.82247 0.48866 0.49776 0.0
H368 H 0.94856 0.31426 0.90355 0.0
H369 H 0.94371 0.28518 0.93699 0.0
H370 H 0.99236 0.29001 0.01175 0.0
H371 H -0.00302 0.31925 0.97961 0.0
H372 H 0.96341 0.25695 0.92608 0.0
H373 H 0.96037 0.27188 0.10932 0.0
H374 H 0.95883 0.2888 0.0665 0.0
H375 H 0.98002 0.28067 0.0844 0.0
C376 C 0.95808 0.30921 0.92763 0.0
C377 C 0.97315 0.31902 0.93901 0.0
C378 C 0.95529 0.29262 0.94674 0.0
C379 C 0.96752 0.28552 0.97746 0.0
C380 C 0.98247 0.2954 0.98918 0.0
H381 H -0.00406 0.1787 0.02137 0.0
H382 H 0.99165 0.20903 -0.00335 0.0
C383 C 0.98519 0.31206 0.97046 0.0
C384 C 0.96551 0.26721 0.99406 0.0
H385 H 0.96741 0.24182 0.08951 0.0
C386 C 0.96401 0.25368 0.96188 0.0
C387 C 0.96596 0.26292 0.04079 0.0
C388 C 0.96619 0.27687 0.07721 0.0
C389 C 0.96386 0.23595 0.97498 0.0
C390 C 0.96573 0.23164 0.02141 0.0
C391 C 0.96628 0.24515 0.05383 0.0
C392 C 0.96812 0.21323 0.03665 0.0
C393 C 0.96182 0.22202 0.93887 0.0
C394 C 0.95661 0.20569 0.06844 0.0
C395 C 0.95914 0.18835 0.08304 0.0
C396 C 0.97327 0.17834 0.06616 0.0
C397 C 0.98485 0.18601 0.0347 0.0
C398 C 0.98235 0.20331 0.0203 0.0
H399 H 0.95487 0.22726 0.90855 0.0
H400 H 0.97506 0.21754 0.92787 0.0
H401 H 0.95442 0.21046 0.95183 0.0
H402 H 0.94563 0.21318 0.08174 0.0
H403 H 0.95004 0.1828 0.10746 0.0
H404 H 0.32046 -0.00206 0.51233 0.0
H405 H 0.29079 0.99457 0.48118 0.0
H406 H 0.28415 0.94645 0.55693 0.0
H407 H 0.31368 0.94993 0.58905 0.0
H408 H 0.27482 0.96825 0.43093 0.0
H409 H 0.24255 0.97607 0.59896 0.0
H410 H 0.26556 0.98084 0.58999 0.0
H411 H 0.25826 0.95845 0.5959 0.0
C412 C 0.31272 0.98659 0.52219 0.0
C413 C 0.31932 0.9743 0.55351 0.0
C414 C 0.29579 0.98466 0.50429 0.0
C415 C 0.28517 0.97042 0.51736 0.0
C416 C 0.29199 0.95774 0.54717 0.0
H417 H 0.18283 0.94971 0.38676 0.0
H418 H 0.21325 0.94639 0.41355 0.0
C419 C 0.30889 0.95971 0.56532 0.0
C420 C 0.26676 0.96928 0.50089 0.0
H421 H 0.22402 0.97036 0.53653 0.0
C422 C 0.26368 0.96862 0.45395 0.0
C423 C 0.25229 0.96994 0.53108 0.0
C424 C 0.25475 0.97152 0.58176 0.0
C425 C 0.2465 0.96885 0.4363 0.0
C426 C 0.23204 0.96943 0.46653 0.0
C427 C 0.23513 0.96979 0.51347 0.0
C428 C 0.21362 0.97104 0.45037 0.0
C429 C 0.24401 0.96916 0.3855 0.0
C430 C 0.20361 0.98574 0.46316 0.0
C431 C 0.18625 0.98755 0.44847 0.0
C432 C 0.17852 0.9747 0.42057 0.0
C433 C 0.18848 0.95988 0.408 0.0
C434 C 0.20588 0.95802 0.42303 0.0
H435 H 0.25636 0.97271 0.36746 0.0
H436 H 0.23991 0.9559 0.37381 0.0
H437 H 0.23358 0.97867 0.37571 0.0
H438 H 0.20931 -0.00408 0.48431 0.0
H439 H 0.17894 -0.00088 0.45872 0.0
H440 H 0.49145 0.17219 0.97468 0.0
H441 H 0.49403 0.20235 0.00282 0.0
H442 H 0.54171 0.20929 0.92529 0.0
H443 H 0.53892 0.1793 0.89593 0.0
H444 H 0.51927 0.21931 0.05117 0.0
H445 H 0.51197 0.24998 0.88115 0.0
H446 H 0.50781 0.22693 0.89108 0.0
H447 H 0.53004 0.23483 0.88534 0.0
C448 C 0.50252 0.18011 0.96377 0.0
C449 C 0.51488 0.17347 0.93275 0.0
C450 C 0.50399 0.19733 0.97989 0.0
C451 C 0.51787 0.20817 0.96544 0.0
C452 C 0.53065 0.20131 0.93595 0.0
H453 H 0.53845 0.31037 0.09366 0.0
H454 H 0.54161 0.28014 0.066 0.0
C455 C 0.52909 0.18414 0.91944 0.0
C456 C 0.51869 0.22673 0.98068 0.0
H457 H 0.51792 0.26912 0.94242 0.0
C458 C 0.51903 0.23022 0.02744 0.0
C459 C 0.51816 0.24092 0.94958 0.0
C460 C 0.51681 0.23804 0.89901 0.0
C461 C 0.51869 0.24753 0.04402 0.0
C462 C 0.51844 0.26171 0.0129 0.0
C463 C 0.51828 0.25822 0.96615 0.0
C464 C 0.51719 0.28025 0.02805 0.0
C465 C 0.51795 0.25042 0.09466 0.0
C466 C 0.50277 0.29053 0.01447 0.0
C467 C 0.50106 0.30784 0.02965 0.0
C468 C 0.51373 0.31518 0.05879 0.0
C469 C 0.5284 0.30502 0.0715 0.0
C470 C 0.53017 0.28772 0.056 0.0
H471 H 0.51386 0.23833 0.11304 0.0
H472 H 0.53123 0.25419 0.10706 0.0
H473 H 0.50865 0.26118 0.1033 0.0
H474 H 0.49264 0.28505 0.99276 0.0
H475 H 0.48962 0.31534 0.01922 0.0
H476 H 0.30878 0.54009 0.39039 0.0
H477 H 0.2788 0.54456 0.41891 0.0
H478 H 0.28384 0.49819 0.50239 0.0
H479 H 0.31384 0.49388 0.47497 0.0
H480 H 0.25081 0.52292 0.4099 0.0
H481 H 0.26454 0.53331 0.59216 0.0
H482 H 0.28159 0.53421 0.54954 0.0
H483 H 0.27436 0.51335 0.57182 0.0
C484 C 0.30356 0.53099 0.41527 0.0
C485 C 0.31367 0.51667 0.43059 0.0
C486 C 0.28645 0.53355 0.43148 0.0
C487 C 0.2792 0.52188 0.46331 0.0
C488 C 0.28932 0.50763 0.47874 0.0
H489 H 0.17224 0.49291 0.5145 0.0
H490 H 0.20203 0.49705 0.48501 0.0
C491 C 0.30643 0.50512 0.46279 0.0
C492 C 0.26071 0.52384 0.47841 0.0
H493 H 0.23491 0.52485 0.57304 0.0
C494 C 0.24732 0.5236 0.44555 0.0
C495 C 0.25618 0.52505 0.52484 0.0
C496 C 0.26995 0.5267 0.56156 0.0
C497 C 0.22949 0.52368 0.458 0.0
C498 C 0.22498 0.52357 0.50457 0.0
C499 C 0.23837 0.52467 0.53733 0.0
C500 C 0.20655 0.52165 0.52025 0.0
C501 C 0.2157 0.52386 0.42113 0.0
C502 C 0.19932 0.5339 0.55061 0.0
C503 C 0.1824 0.5314 0.56808 0.0
C504 C 0.17242 0.51662 0.55545 0.0
C505 C 0.17957 0.5045 0.52456 0.0
C506 C 0.19654 0.50692 0.50741 0.0
H507 H 0.2209 0.52979 0.38937 0.0
H508 H 0.21172 0.51014 0.41335 0.0
H509 H 0.20381 0.53131 0.43177 0.0
H510 H 0.20684 0.5453 0.56116 0.0
H511 H 0.17723 0.54098 0.59181 0.0
H512 H 0.03491 0.57157 0.01707 0.0
H513 H 0.0565 0.56372 0.95999 0.0
H514 H 0.06791 0.61861 0.93707 0.0
H515 H 0.046 0.62674 -0.0051 0.0
H516 H 0.05997 0.59965 0.85823 0.0
H517 H 0.11026 0.56413 0.95731 0.0
H518 H 0.0886 0.55697 0.97297 0.0
H519 H 0.09502 0.57947 0.98301 0.0
C520 C 0.04206 0.58205 0.00032 0.0
C521 C 0.03861 0.59981 0.0103 0.0
C522 C 0.05462 0.57751 0.96807 0.0
C523 C 0.06408 0.59056 0.945 0.0
C524 C 0.06091 0.60834 0.95509 0.0
H525 H 0.12606 0.53977 0.72719 0.0
H526 H 0.12065 0.56073 0.789 0.0
C527 C 0.04838 0.61295 0.98795 0.0
C528 C 0.07551 0.58522 0.90682 0.0
H529 H 0.10542 0.55344 0.87954 0.0
C530 C 0.07034 0.58999 0.86282 0.0
C531 C 0.08924 0.57284 0.91277 0.0
C532 C 0.09622 0.56821 0.95916 0.0
C533 C 0.07714 0.58122 0.82485 0.0
C534 C 0.08923 0.5673 0.83131 0.0
C535 C 0.09588 0.5639 0.87481 0.0
C536 C 0.09294 0.55458 0.79468 0.0
C537 C 0.07054 0.58615 0.77829 0.0
C538 C 0.07925 0.54387 0.77865 0.0
C539 C 0.08228 0.53181 0.74393 0.0
C540 C 0.09909 0.53023 0.72436 0.0
C541 C 0.11293 0.54069 0.74138 0.0
C542 C 0.10989 0.55271 0.77654 0.0
H543 H 0.06579 0.59998 0.77741 0.0
H544 H 0.08102 0.58448 0.75236 0.0
H545 H 0.05934 0.57746 0.76911 0.0
H546 H 0.06615 0.54492 0.79294 0.0
H547 H 0.07131 0.52399 0.73182 0.0
H548 H 0.9721 0.07105 0.21967 0.0
H549 H 0.954 0.06313 0.28495 0.0
H550 H 0.92754 0.11323 0.27773 0.0
H551 H 0.94559 0.12138 0.21211 0.0
H552 H 0.95061 0.08375 0.37062 0.0
H553 H 0.88754 0.07422 0.27647 0.0
H554 H 0.90858 0.07339 0.24794 0.0
H555 H 0.9001 0.09405 0.26745 0.0
C556 C 0.96246 0.08044 0.23182 0.0
C557 C 0.96028 0.09684 0.21044 0.0
C558 C 0.95214 0.07588 0.26917 0.0
C559 C 0.93936 0.08754 0.28575 0.0
C560 C 0.93722 0.10399 0.26502 0.0
H561 H 0.8726 0.05247 0.51664 0.0
H562 H 0.88334 0.07247 0.45689 0.0
C563 C 0.94761 0.10862 0.22766 0.0
C564 C 0.9285 0.08225 0.32504 0.0
H565 H 0.88837 0.06497 0.35264 0.0
C566 C 0.9369 0.08 0.367 0.0
C567 C 0.91058 0.07754 0.32019 0.0
C568 C 0.90106 0.07983 0.27565 0.0
C569 C 0.92811 0.07219 0.4036 0.0
C570 C 0.91062 0.06624 0.39773 0.0
C571 C 0.9018 0.06957 0.35682 0.0
C572 C 0.90262 0.0541 0.43093 0.0
C573 C 0.93787 0.06952 0.44768 0.0
C574 C 0.90954 0.0371 0.43481 0.0
C575 C 0.90354 0.02579 0.46851 0.0
C576 C 0.89039 0.0312 0.49905 0.0
C577 C 0.88275 0.04795 0.49364 0.0
C578 C 0.88888 0.05938 0.45971 0.0
H579 H 0.9492 0.07869 0.45086 0.0
H580 H 0.92895 0.07142 0.47714 0.0
H581 H 0.94302 0.05587 0.44897 0.0
H582 H 0.91998 0.03274 0.4124 0.0
H583 H 0.90952 0.01289 0.4712 0.0
H584 H 0.43464 0.87163 0.02995 0.0
H585 H 0.41346 0.88098 0.97143 0.0
H586 H 0.45508 0.90801 0.90037 0.0
H587 H 0.47609 0.89907 0.95857 0.0
H588 H 0.4088 0.91958 0.95018 0.0
H589 H 0.42703 0.87905 0.80106 0.0
H590 H 0.43115 0.87215 0.85886 0.0
H591 H 0.44555 0.88772 0.8318 0.0
C592 C 0.43928 0.87927 0.00131 0.0
C593 C 0.45697 0.88472 -0.00116 0.0
C594 C 0.4272 0.88461 0.96809 0.0
C595 C 0.4328 0.89504 0.93154 0.0
C596 C 0.45058 0.89978 0.92807 0.0
H597 H 0.40958 0.97745 0.76308 0.0
H598 H 0.41551 0.95692 0.825 0.0
C599 C 0.46254 0.89475 0.96147 0.0
C600 C 0.42011 0.90273 0.89916 0.0
H601 H 0.41322 0.90698 0.78539 0.0
C602 C 0.40933 0.91652 0.91425 0.0
C603 C 0.42076 0.89861 0.85248 0.0
C604 C 0.43162 0.88346 0.835 0.0
C605 C 0.40037 0.92732 0.88325 0.0
C606 C 0.40236 0.92419 0.83628 0.0
C607 C 0.41185 0.90943 0.82148 0.0
C608 C 0.39686 0.93731 0.80208 0.0
C609 C 0.38958 0.94251 0.90077 0.0
C610 C 0.38433 0.93308 0.76887 0.0
C611 C 0.38082 0.94486 0.73351 0.0
C612 C 0.39007 0.96088 0.73036 0.0
C613 C 0.40228 0.96521 0.76442 0.0
C614 C 0.4056 0.95355 0.8 0.0
H615 H 0.38529 0.94028 0.93635 0.0
H616 H 0.39769 0.95466 0.89996 0.0
H617 H 0.37777 0.9447 0.87922 0.0
H618 H 0.37759 0.92052 0.76976 0.0
H619 H 0.37138 0.94109 0.7077 0.0
H620 H 0.52386 0.4197 0.22 0.0
H621 H 0.54441 0.4258 0.28159 0.0
H622 H 0.55795 0.3708 0.28909 0.0
H623 H 0.53741 0.36446 0.22684 0.0
H624 H 0.54913 0.38875 0.3755 0.0
H625 H 0.59988 0.42352 0.27466 0.0
H626 H 0.5778 0.43048 0.26184 0.0
H627 H 0.58436 0.40822 0.24987 0.0
C628 C 0.53115 0.40885 0.23464 0.0
C629 C 0.52899 0.39159 0.21837 0.0
C630 C 0.543 0.41239 0.2696 0.0
C631 C 0.55289 0.39879 0.28919 0.0
C632 C 0.55057 0.38148 0.2739 0.0
H633 H 0.62418 0.44315 0.49729 0.0
H634 H 0.6154 0.42192 0.43839 0.0
C635 C 0.53881 0.37791 0.23845 0.0
C636 C 0.56495 0.4029 0.32706 0.0
H637 H 0.59849 0.4308 0.35442 0.0
C638 C 0.56025 0.39755 0.37092 0.0
C639 C 0.57965 0.41406 0.32088 0.0
C640 C 0.58587 0.41928 0.2742 0.0
C641 C 0.56881 0.40452 0.40909 0.0
C642 C 0.5822 0.41724 0.40297 0.0
C643 C 0.58809 0.42118 0.35904 0.0
C644 C 0.58778 0.42887 0.44052 0.0
C645 C 0.56276 0.39899 0.45569 0.0
C646 C 0.57521 0.43991 0.46045 0.0
C647 C 0.58014 0.45206 0.49335 0.0
C648 C 0.59782 0.45352 0.50719 0.0
C649 C 0.61046 0.44234 0.48742 0.0
C650 C 0.60548 0.43019 0.45394 0.0
H651 H 0.55729 0.38543 0.45521 0.0
H652 H 0.57372 0.39957 0.48063 0.0
H653 H 0.55217 0.408 0.46724 0.0
H654 H 0.56156 0.4394 0.44977 0.0
H655 H 0.57 0.46036 0.5078 0.0
H656 H 0.06884 0.96413 0.2807 0.0
H657 H 0.06077 0.9452 0.21724 0.0
H658 H 0.11523 0.93087 0.19873 0.0
H659 H 0.12355 0.94984 0.26256 0.0
H660 H 0.09688 0.94162 0.11776 0.0
H661 H 0.06041 0.89049 0.2131 0.0
H662 H 0.054 0.91248 0.22812 0.0
H663 H 0.07607 0.90515 0.23971 0.0
C664 C 0.07915 0.95695 0.26335 0.0
C665 C 0.09686 0.9585 0.27686 0.0
C666 C 0.07448 0.94601 0.22729 0.0
C667 C 0.08737 0.93642 0.20392 0.0
C668 C 0.10508 0.93804 0.21678 0.0
H669 H 0.0446 0.86698 0.99002 0.0
H670 H 0.06424 0.87634 0.05179 0.0
C671 C 0.10979 0.94889 0.2532 0.0
C672 C 0.0822 0.92552 0.16453 0.0
H673 H 0.05352 0.89312 0.13351 0.0
C674 C 0.08771 0.93075 0.12117 0.0
C675 C 0.0705 0.91116 0.16914 0.0
C676 C 0.06503 0.90434 0.21507 0.0
C677 C 0.08068 0.92288 0.08209 0.0
C678 C 0.06773 0.90962 0.08671 0.0
C679 C 0.06333 0.90342 0.13007 0.0
C680 C 0.05693 0.90381 0.04771 0.0
C681 C 0.08666 0.9293 0.03618 0.0
C682 C 0.04623 0.91612 0.02553 0.0
C683 C 0.03499 0.91086 0.99076 0.0
C684 C 0.03413 0.89311 0.97736 0.0
C685 C 0.04498 0.88075 -0.00058 0.0
C686 C 0.05621 0.88606 0.03463 0.0
H687 H 0.10019 0.93486 0.03782 0.0
H688 H 0.08643 0.91852 0.01074 0.0
H689 H 0.07768 0.93988 0.02445 0.0
H690 H 0.0463 0.92981 0.0358 0.0
H691 H 0.02688 0.92078 0.9746 0.0
H692 H 0.5121 0.07983 0.73206 0.0
H693 H 0.53134 0.07441 0.66726 0.0
H694 H 0.56441 0.11785 0.70707 0.0
H695 H 0.54515 0.12352 0.77228 0.0
H696 H 0.54442 0.10153 0.5944 0.0
H697 H 0.5954 0.06976 0.70355 0.0
H698 H 0.57275 0.07083 0.72201 0.0
H699 H 0.5857 0.09052 0.71959 0.0
C700 C 0.52334 0.08838 0.72691 0.0
C701 C 0.52715 0.10203 0.75758 0.0
C702 C 0.53428 0.08529 0.68979 0.0
C703 C 0.54929 0.09566 0.68276 0.0
C704 C 0.55288 0.10969 0.7122 0.0
H705 H 0.62219 0.04837 0.48258 0.0
H706 H 0.61257 0.07064 0.53789 0.0
C707 C 0.54183 0.11291 0.74929 0.0
C708 C 0.5615 0.09088 0.64583 0.0
H709 H 0.59671 0.0642 0.62514 0.0
C710 C 0.55615 0.09379 0.60096 0.0
C711 C 0.57689 0.08099 0.65463 0.0
C712 C 0.58316 0.07776 0.70248 0.0
C713 C 0.56507 0.08589 0.56467 0.0
C714 C 0.57936 0.07448 0.57381 0.0
C715 C 0.58569 0.07289 0.61833 0.0
C716 C 0.58552 0.06172 0.53947 0.0
C717 C 0.55852 0.08901 0.51703 0.0
C718 C 0.5736 0.04916 0.52315 0.0
C719 C 0.579 0.03645 0.49223 0.0
C720 C 0.59653 0.03592 0.47685 0.0
C721 C 0.60859 0.04843 0.49362 0.0
C722 C 0.60313 0.06118 0.52505 0.0
H723 H 0.55216 0.10212 0.51395 0.0
H724 H 0.56941 0.08811 0.49199 0.0
H725 H 0.54851 0.07889 0.50845 0.0
H726 H 0.56006 0.04907 0.53477 0.0
H727 H 0.56931 0.02708 0.48029 0.0
H728 H 0.41585 0.51775 0.25588 0.0
H729 H 0.42229 0.53799 0.19388 0.0
H730 H 0.36969 0.55909 0.20211 0.0
H731 H 0.36301 0.53883 0.26452 0.0
H732 H 0.3826 0.55096 0.11083 0.0
H733 H 0.42856 0.59242 0.21016 0.0
H734 H 0.43295 0.56929 0.21579 0.0
H735 H 0.41248 0.57811 0.23639 0.0
C736 C 0.40557 0.52659 0.24451 0.0
C737 C 0.38894 0.52672 0.26547 0.0
C738 C 0.40933 0.53824 0.20926 0.0
C739 C 0.39656 0.55023 0.19419 0.0
C740 C 0.37975 0.55004 0.21374 0.0
H741 H 0.44383 0.62297 -0.00385 0.0
H742 H 0.42269 0.61447 0.05547 0.0
C743 C 0.37598 0.53843 0.24931 0.0
C744 C 0.40101 0.5627 0.15752 0.0
H745 H 0.43204 0.59313 0.12883 0.0
C746 C 0.39311 0.5605 0.11488 0.0
C747 C 0.41438 0.57545 0.16321 0.0
C748 C 0.42247 0.57912 0.209 0.0
C749 C 0.39947 0.56956 0.07677 0.0
C750 C 0.41417 0.58085 0.08164 0.0
C751 C 0.42088 0.58433 0.12506 0.0
C752 C 0.42471 0.58654 0.04211 0.0
C753 C 0.39098 0.56633 0.03127 0.0
C754 C 0.43277 0.57366 0.0152 0.0
C755 C 0.44491 0.57841 0.98204 0.0
C756 C 0.44927 0.59617 0.97501 0.0
C757 C 0.44071 0.60918 0.00082 0.0
C758 C 0.42863 0.60436 0.03456 0.0
H759 H 0.37681 0.56298 0.03517 0.0
H760 H 0.39218 0.57801 0.00882 0.0
H761 H 0.39756 0.55503 0.01454 0.0
H762 H 0.43026 0.55981 0.02115 0.0
H763 H 0.45115 0.56807 0.96249 0.0
H764 H 0.94854 0.36563 0.76782 0.0
H765 H 0.92881 0.3714 0.70353 0.0
H766 H 0.95535 0.42059 0.67868 0.0
H767 H 0.97508 0.41507 0.74235 0.0
H768 H 0.914 0.41886 0.69274 0.0
H769 H 0.94354 0.37606 0.55934 0.0
H770 H 0.94119 0.36845 0.6171 0.0
H771 H 0.9572 0.385 0.60394 0.0
C772 C 0.95032 0.37759 0.74836 0.0
C773 C 0.96337 0.38994 0.76048 0.0
C774 C 0.93903 0.38083 0.71173 0.0
C775 C 0.94066 0.39642 0.68673 0.0
C776 C 0.95392 0.4085 0.69783 0.0
H777 H 0.9215 0.45534 0.46356 0.0
H778 H 0.9301 0.43476 0.52257 0.0
C779 C 0.9652 0.40529 0.73422 0.0
C780 C 0.92821 0.40086 0.65004 0.0
H781 H 0.92339 0.39779 0.53534 0.0
C782 C 0.91562 0.41395 0.65844 0.0
C783 C 0.93046 0.3943 0.60565 0.0
C784 C 0.94379 0.38015 0.59553 0.0
C785 C 0.90611 0.42167 0.62282 0.0
C786 C 0.9093 0.41603 0.57784 0.0
C787 C 0.92095 0.402 0.56993 0.0
C788 C 0.9035 0.42674 0.53871 0.0
C789 C 0.89385 0.43678 0.6331 0.0
C790 C 0.88563 0.42881 0.52762 0.0
C791 C 0.88058 0.44074 0.49372 0.0
C792 C 0.89337 0.45077 0.47071 0.0
C793 C 0.91126 0.44804 0.48092 0.0
C794 C 0.91624 0.43615 0.51444 0.0
H795 H 0.89403 0.44049 0.66956 0.0
H796 H 0.89752 0.44849 0.61262 0.0
H797 H 0.88018 0.43305 0.62385 0.0
H798 H 0.87561 0.42152 0.54581 0.0
H799 H 0.8667 0.44245 0.48646 0.0
H800 H 0.9624 0.42278 0.97771 0.0
H801 H 0.94097 0.432 0.03379 0.0
H802 H 0.91841 0.37993 0.03509 0.0
H803 H 0.94017 0.37031 0.97856 0.0
H804 H 0.90337 0.43114 0.02848 0.0
H805 H 0.93046 0.39055 0.17011 0.0
H806 H 0.94296 0.39457 0.11906 0.0
H807 H 0.92455 0.37978 0.11785 0.0
C808 C 0.95296 0.41316 0.98973 0.0
C809 C 0.95313 0.39572 0.97372 0.0
C810 C 0.94063 0.41853 0.02171 0.0
C811 C 0.92817 0.40665 0.03864 0.0
C812 C 0.92805 0.38925 0.02262 0.0
H813 H 0.86865 0.44372 0.27691 0.0
H814 H 0.87451 0.4253 0.2103 0.0
C815 C 0.94046 0.38381 0.99032 0.0
C816 C 0.91588 0.41283 0.07409 0.0
H817 H 0.91058 0.41293 0.18903 0.0
C818 C 0.90459 0.42687 0.06347 0.0
C819 C 0.91745 0.40717 0.11961 0.0
C820 C 0.92953 0.39224 0.13274 0.0
C821 C 0.89584 0.43625 0.09764 0.0
C822 C 0.89857 0.43149 0.14339 0.0
C823 C 0.90863 0.41653 0.15377 0.0
C824 C 0.89339 0.44327 0.18089 0.0
C825 C 0.88445 0.45172 0.08483 0.0
C826 C 0.90205 0.45945 0.18608 0.0
C827 C 0.89893 0.46988 0.22419 0.0
C828 C 0.887 0.46434 0.2577 0.0
C829 C 0.87785 0.44839 0.25157 0.0
C830 C 0.88118 0.43784 0.21364 0.0
H831 H 0.87978 0.45073 0.04918 0.0
H832 H 0.87286 0.45273 0.10768 0.0
H833 H 0.89224 0.46401 0.08815 0.0
H834 H 0.91171 0.46373 0.16138 0.0
H835 H 0.90613 0.48211 0.22783 0.0
H836 H 0.046 0.868 0.77645 0.0
H837 H 0.06661 0.87521 0.71531 0.0
H838 H 0.03406 0.91919 0.67661 0.0
H839 H 0.01339 0.91219 0.73746 0.0
H840 H 0.04846 0.89572 0.60199 0.0
H841 H 0.09801 0.92164 0.72489 0.0
H842 H 0.08852 0.90021 0.73422 0.0
H843 H 0.07507 0.91945 0.74005 0.0
C844 C 0.04309 0.8791 0.75463 0.0
C845 C 0.0281 0.88964 0.76218 0.0
C846 C 0.05492 0.88319 0.71981 0.0
C847 C 0.05189 0.8978 0.69187 0.0
C848 C 0.0366 0.90787 0.69799 0.0
H849 H 0.09194 0.97573 0.53346 0.0
H850 H 0.08218 0.95497 0.59133 0.0
C851 C 0.02483 0.90388 0.73288 0.0
C852 C 0.065 0.90343 0.65783 0.0
H853 H 0.10266 0.92765 0.64772 0.0
C854 C 0.06057 0.90229 0.61174 0.0
C855 C 0.08074 0.91198 0.67094 0.0
C856 C 0.08598 0.91352 0.72018 0.0
C857 C 0.07099 0.91043 0.57849 0.0
C858 C 0.08612 0.91995 0.59191 0.0
C859 C 0.09111 0.92019 0.6377 0.0
C860 C 0.09469 0.9324 0.56043 0.0
C861 C 0.06512 0.90992 0.52958 0.0
C862 C 0.10549 0.92661 0.5248 0.0
C863 C 0.11127 0.93854 0.49172 0.0
C864 C 0.10605 0.95629 0.49373 0.0
C865 C 0.09604 0.96211 0.53087 0.0
C866 C 0.0905 0.95029 0.56401 0.0
H867 H 0.05284 0.90217 0.52489 0.0
H868 H 0.06284 0.92351 0.51705 0.0
H869 H 0.07564 0.90399 0.50838 0.0
H870 H 0.10885 0.91281 0.52166 0.0
H871 H 0.11891 0.93371 0.46331 0.0
H872 H 0.62364 0.04139 0.26713 0.0
H873 H 0.61674 0.06164 0.20488 0.0
H874 H 0.56536 0.03806 0.19146 0.0
H875 H 0.572 0.01785 0.25335 0.0
H876 H 0.60606 0.05397 0.11321 0.0
H877 H 0.55541 0.09143 0.20744 0.0
H878 H 0.57152 0.07767 0.23535 0.0
H879 H 0.55208 0.06807 0.21067 0.0
C880 C 0.61089 0.04045 0.25084 0.0
C881 C 0.59832 0.02804 0.26555 0.0
C882 C 0.60698 0.05206 0.21536 0.0
C883 C 0.59042 0.05156 0.19436 0.0
C884 C 0.57808 0.03889 0.20799 0.0
H885 H 0.54057 0.06978 0.95344 0.0
H886 H 0.56041 0.06154 0.01458 0.0
C887 C 0.58197 0.02726 0.24321 0.0
C888 C 0.58586 0.06398 0.15756 0.0
H889 H 0.5537 0.09275 0.12575 0.0
C890 C 0.59486 0.06276 0.11613 0.0
C891 C 0.57156 0.07577 0.1618 0.0
C892 C 0.5622 0.07848 0.20638 0.0
C893 C 0.58888 0.07187 0.07766 0.0
C894 C 0.57344 0.08221 0.08081 0.0
C895 C 0.56545 0.08468 0.12323 0.0
C896 C 0.56371 0.08806 0.03999 0.0
C897 C 0.5987 0.06977 0.03354 0.0
C898 C 0.55891 0.10576 0.03393 0.0
C899 C 0.54745 0.11056 -0.00126 0.0
C900 C 0.54036 0.09763 0.96988 0.0
C901 C 0.54568 0.08004 0.9753 0.0
C902 C 0.55722 0.07532 0.00994 0.0
H903 H 0.61291 0.0672 0.03967 0.0
H904 H 0.59326 0.05834 0.01477 0.0
H905 H 0.59738 0.08166 0.01188 0.0
H906 H 0.56363 0.11575 0.05716 0.0
H907 H 0.54353 0.1242 -0.00458 0.0
H908 H 0.36463 0.54273 0.49729 0.0
H909 H 0.37422 0.56332 0.55684 0.0
H910 H 0.42842 0.55396 0.52034 0.0
H911 H 0.4191 0.53363 0.46148 0.0
H912 H 0.396 0.55328 0.62948 0.0
H913 H 0.4268 0.60756 0.53349 0.0
H914 H 0.41115 0.59254 0.50818 0.0
H915 H 0.43401 0.58652 0.51313 0.0
C916 C 0.37856 0.54532 0.5016 0.0
C917 C 0.39111 0.53644 0.47501 0.0
C918 C 0.384 0.55708 0.53547 0.0
C919 C 0.40201 0.56037 0.5424 0.0
C920 C 0.41445 0.55193 0.5149 0.0
H921 H 0.47153 0.57013 0.75668 0.0
H922 H 0.45182 0.56337 0.69374 0.0
C923 C 0.40908 0.54011 0.48162 0.0
C924 C 0.40829 0.5708 0.58154 0.0
H925 H 0.43866 0.60214 0.60921 0.0
C926 C 0.40493 0.56429 0.62521 0.0
C927 C 0.4198 0.58528 0.57597 0.0
C928 C 0.423 0.5935 0.53014 0.0
C929 C 0.41401 0.57087 0.66299 0.0
C930 C 0.42683 0.58414 0.65669 0.0
C931 C 0.42904 0.59174 0.61373 0.0
C932 C 0.43922 0.58889 0.69333 0.0
C933 C 0.41042 0.56302 0.70908 0.0
C934 C 0.43905 0.60572 0.71275 0.0
C935 C 0.45035 0.60967 0.74889 0.0
C936 C 0.46208 0.59689 0.7658 0.0
C937 C 0.46264 0.58028 0.7448 0.0
C938 C 0.45131 0.57634 0.70896 0.0
H939 H 0.3972 0.55678 0.71052 0.0
H940 H 0.42041 0.55273 0.71631 0.0
H941 H 0.41132 0.57319 0.73606 0.0
H942 H 0.42991 0.61561 0.70071 0.0
H943 H 0.44962 0.62263 0.76409 0.0
H944 H 0.91438 0.01402 0.74147 0.0
H945 H 0.92087 0.03397 0.80426 0.0
H946 H 0.8754 0.06527 0.77024 0.0
H947 H 0.8687 0.04537 0.70724 0.0
H948 H 0.90827 0.08439 0.78015 0.0
H949 H 0.89432 0.0409 0.92684 0.0
H950 H 0.90767 0.03074 0.88389 0.0
H951 H 0.88538 0.03694 0.87088 0.0
C952 C 0.90564 0.02503 0.7475 0.0
C953 C 0.89103 0.02808 0.71921 0.0
C954 C 0.90931 0.03636 0.78359 0.0
C955 C 0.89849 0.05095 0.79211 0.0
C956 C 0.88382 0.05399 0.76434 0.0
H957 H 0.93066 0.11372 0.03007 0.0
H958 H 0.91004 0.10332 0.97131 0.0
C959 C 0.88003 0.04258 0.7284 0.0
C960 C 0.90336 0.06357 0.82818 0.0
H961 H 0.91338 0.06561 0.94087 0.0
C962 C 0.90902 0.08046 0.81549 0.0
C963 C 0.90408 0.0585 0.87428 0.0
C964 C 0.89738 0.04084 0.88997 0.0
C965 C 0.91671 0.09187 0.84727 0.0
C966 C 0.91875 0.0862 0.89258 0.0
C967 C 0.91182 0.0699 0.90598 0.0
C968 C 0.93053 0.09546 0.92452 0.0
C969 C 0.92338 0.10958 0.83189 0.0
C970 C 0.94875 0.09471 0.91711 0.0
C971 C 0.96042 0.10029 0.95063 0.0
C972 C 0.95407 0.10696 0.99188 0.0
C973 C 0.93582 0.1088 -0.00176 0.0
C974 C 0.92408 0.10283 0.9649 0.0
H975 H 0.91687 0.11388 0.79999 0.0
H976 H 0.92117 0.1197 0.85849 0.0
H977 H 0.93776 0.10871 0.82555 0.0
H978 H 0.95395 0.08884 0.88641 0.0
H979 H 0.97444 0.09872 0.94506 0.0
H980 H 0.41932 0.97248 0.4938 0.0
H981 H 0.42962 0.95298 0.43432 0.0
H982 H 0.38564 0.91827 0.458 0.0
H983 H 0.37495 0.938 0.51819 0.0
H984 H 0.43853 0.91656 0.44728 0.0
H985 H 0.38597 0.92696 0.31765 0.0
H986 H 0.38943 0.94237 0.36345 0.0
H987 H 0.37967 0.92134 0.37477 0.0
C988 C 0.4117 0.96076 0.48652 0.0
C989 C 0.39632 0.95677 0.51105 0.0
C990 C 0.41765 0.94962 0.4524 0.0
C991 C 0.40841 0.93422 0.44182 0.0
C992 C 0.39287 0.93021 0.46549 0.0
H993 H 0.44659 0.86955 0.21335 0.0
H994 H 0.42933 0.87772 0.28035 0.0
C995 C 0.38681 0.94147 0.49984 0.0
C996 C 0.4157 0.92245 0.40659 0.0
H997 H 0.41129 0.91157 0.2948 0.0
C998 C 0.43243 0.91514 0.41419 0.0
C999 C 0.40764 0.92055 0.36364 0.0
C1000 C 0.38971 0.92823 0.35395 0.0
C1001 C 0.44177 0.90693 0.37913 0.0
C1002 C 0.43426 0.90619 0.33534 0.0
C1003 C 0.41702 0.91232 0.32846 0.0
C1004 C 0.44481 0.90086 0.29552 0.0
C1005 C 0.45989 0.8997 0.38877 0.0
C1006 C 0.4591 0.91128 0.28183 0.0
C1007 C 0.46891 0.90676 0.24355 0.0
C1008 C 0.46463 0.89168 0.21821 0.0
C1009 C 0.4503 0.88121 0.23219 0.0
C1010 C 0.4404 0.88584 0.27038 0.0
H1011 H 0.46171 0.89684 0.42545 0.0
H1012 H 0.46233 0.88748 0.36908 0.0
H1013 H 0.46991 0.90958 0.37866 0.0
H1014 H 0.46253 0.92307 0.30053 0.0
H1015 H 0.47983 0.91512 0.23382 0.0
H1016 H 0.54339 0.36509 -0.00512 0.0
H1017 H 0.564 0.37366 0.93429 0.0
H1018 H 0.54731 0.42764 0.94734 0.0
H1019 H 0.52688 0.41941 0.00689 0.0
H1020 H 0.55349 0.3926 0.84997 0.0
H1021 H 0.60246 0.42927 0.95217 0.0
H1022 H 0.58842 0.41239 0.97593 0.0
H1023 H 0.5801 0.4343 0.96727 0.0
C1024 C 0.54421 0.37879 0.98493 0.0
C1025 C 0.53343 0.39154 0.0057 0.0
C1026 C 0.55599 0.38364 0.95047 0.0
C1027 C 0.55734 0.40131 0.93709 0.0
C1028 C 0.54669 0.41398 0.95788 0.0
H1029 H 0.56929 0.46805 0.72157 0.0
H1030 H 0.56204 0.44753 0.78232 0.0
C1031 C 0.53488 0.40918 0.99171 0.0
C1032 C 0.56882 0.40685 0.89927 0.0
H1033 H 0.59932 0.43829 0.87369 0.0
C1034 C 0.5639 0.40218 0.85504 0.0
C1035 C 0.58249 0.41921 0.90605 0.0
C1036 C 0.58882 0.42398 0.95297 0.0
C1037 C 0.57118 0.41083 0.81741 0.0
C1038 C 0.58352 0.4245 0.82451 0.0
C1039 C 0.58967 0.42796 0.86846 0.0
C1040 C 0.58833 0.43677 0.78769 0.0
C1041 C 0.56495 0.40596 0.77048 0.0
C1042 C 0.60567 0.43784 0.77162 0.0
C1043 C 0.6099 0.44959 0.73671 0.0
C1044 C 0.59689 0.46062 0.71786 0.0
C1045 C 0.57965 0.45978 0.73516 0.0
C1046 C 0.57543 0.44796 0.76965 0.0
H1047 H 0.55959 0.39236 0.76955 0.0
H1048 H 0.55431 0.41512 0.76005 0.0
H1049 H 0.57583 0.40704 0.74545 0.0
H1050 H 0.61583 0.42943 0.78564 0.0
H1051 H 0.62333 0.44994 0.72431 0.0
H1052 H 0.12339 0.5436 0.49143 0.0
H1053 H 0.11495 0.56375 0.42976 0.0
H1054 H 0.06028 0.55757 0.46614 0.0
H1055 H 0.06847 0.5377 0.52714 0.0
H1056 H 0.09308 0.55378 0.35769 0.0
H1057 H 0.06439 0.61068 0.44739 0.0
H1058 H 0.07922 0.59536 0.47467 0.0
H1059 H 0.0561 0.59037 0.46983 0.0
C1060 C 0.10961 0.54683 0.48667 0.0
C1061 C 0.09658 0.53896 0.51385 0.0
C1062 C 0.10483 0.55832 0.45156 0.0
C1063 C 0.08702 0.56236 0.44394 0.0
C1064 C 0.07412 0.55496 0.47206 0.0
H1065 H 0.01884 0.57121 0.22609 0.0
H1066 H 0.03888 0.56419 0.28817 0.0
C1067 C 0.07883 0.54341 0.50661 0.0
C1068 C 0.08133 0.57245 0.40362 0.0
H1069 H 0.05218 0.6044 0.3724 0.0
C1070 C 0.08453 0.56516 0.3607 0.0
C1071 C 0.0704 0.58743 0.4075 0.0
C1072 C 0.06749 0.59652 0.45235 0.0
C1073 C 0.07577 0.57148 0.32212 0.0
C1074 C 0.06337 0.58523 0.32691 0.0
C1075 C 0.06143 0.5936 0.36902 0.0
C1076 C 0.05114 0.58989 0.28978 0.0
C1077 C 0.07932 0.5629 0.27689 0.0
C1078 C 0.05096 0.60688 0.27133 0.0
C1079 C 0.03943 0.611 0.23586 0.0
C1080 C 0.02777 0.59821 0.21858 0.0
C1081 C 0.02765 0.58136 0.23831 0.0
C1082 C 0.03921 0.57727 0.27357 0.0
H1083 H 0.09261 0.55679 0.27602 0.0
H1084 H 0.06946 0.55236 0.27105 0.0
H1085 H 0.07829 0.57257 0.24874 0.0
H1086 H 0.05993 0.61685 0.28385 0.0
H1087 H 0.03983 0.62413 0.22161 0.0
H1088 H 0.85442 0.52454 0.27686 0.0
H1089 H 0.86894 0.5485 0.23499 0.0
H1090 H 0.90671 0.55421 0.34322 0.0
H1091 H 0.89249 0.53034 0.38492 0.0
H1092 H 0.88687 0.58835 0.28593 0.0
H1093 H 0.92629 0.53637 0.19901 0.0
H1094 H 0.90325 0.53307 0.21135 0.0
H1095 H 0.91897 0.53316 0.25667 0.0
C1096 C 0.86558 0.53118 0.29209 0.0
C1097 C 0.87243 0.52551 0.33394 0.0
C1098 C 0.8738 0.54485 0.26824 0.0
C1099 C 0.88881 0.55307 0.28626 0.0
C1100 C 0.89506 0.54806 0.32903 0.0
H1101 H 0.96822 0.62939 0.21763 0.0
H1102 H 0.94359 0.61371 0.25321 0.0
C1103 C 0.88697 0.53437 0.35263 0.0
C1104 C 0.89941 0.56529 0.2586 0.0
H1105 H 0.93462 0.56567 0.18713 0.0
C1106 C 0.89718 0.5835 0.26376 0.0
C1107 C 0.91278 0.5588 0.22992 0.0
C1108 C 0.9156 0.53929 0.22359 0.0
C1109 C 0.90825 0.59548 0.24114 0.0
C1110 C 0.92212 0.58897 0.21377 0.0
C1111 C 0.924 0.5707 0.20802 0.0
C1112 C 0.93528 0.60058 0.19151 0.0
C1113 C 0.90491 0.61492 0.24664 0.0
C1114 C 0.93884 0.59845 0.14511 0.0
C1115 C 0.95311 0.60702 0.12518 0.0
C1116 C 0.96398 0.6181 0.15105 0.0
C1117 C 0.95991 0.62104 0.19688 0.0
C1118 C 0.94577 0.61217 0.21712 0.0
H1119 H 0.89094 0.61757 0.25552 0.0
H1120 H 0.91323 0.62004 0.27465 0.0
H1121 H 0.90821 0.62226 0.21519 0.0
H1122 H 0.93097 0.58959 0.12464 0.0
H1123 H 0.95593 0.60459 0.08969 0.0
H1124 H 0.88791 0.95644 0.60099 0.0
H1125 H 0.90175 0.9317 0.63964 0.0
H1126 H 0.87075 0.94224 0.75915 0.0
H1127 H 0.85666 0.96721 0.72026 0.0
H1128 H 0.90821 0.94174 0.77124 0.0
H1129 H 0.88537 0.88219 0.67984 0.0
H1130 H 0.89251 0.89976 0.64345 0.0
H1131 H 0.87343 0.90277 0.67868 0.0
C1132 C 0.88376 0.95331 0.63522 0.0
C1133 C 0.87126 0.96378 0.65774 0.0
C1134 C 0.89157 0.93905 0.65709 0.0
C1135 C 0.88709 0.93498 0.70197 0.0
C1136 C 0.8742 0.94506 0.72423 0.0
H1137 H 0.95147 0.87532 0.8921 0.0
H1138 H 0.92611 0.88998 0.85763 0.0
C1139 C 0.86619 0.9593 0.70208 0.0
C1140 C 0.89769 0.92184 0.72702 0.0
H1141 H 0.91164 0.87911 0.72439 0.0
C1142 C 0.90873 0.92796 0.76169 0.0
C1143 C 0.89855 0.90398 0.71372 0.0
C1144 C 0.88673 0.89671 0.67712 0.0
C1145 C 0.92117 0.91691 0.78221 0.0
C1146 C 0.92217 0.89902 0.76878 0.0
C1147 C 0.91081 0.89277 0.73477 0.0
C1148 C 0.93544 0.88694 0.78869 0.0
C1149 C 0.93375 0.9248 0.81636 0.0
C1150 C 0.94837 0.8791 0.76113 0.0
C1151 C 0.96261 0.87018 0.78081 0.0
C1152 C 0.96412 0.86925 0.82819 0.0
C1153 C 0.95059 0.87603 0.85545 0.0
C1154 C 0.9362 0.88451 0.83583 0.0
H1155 H 0.93441 0.93937 0.81339 0.0
H1156 H 0.92915 0.92163 0.85114 0.0
H1157 H 0.94725 0.91943 0.8121 0.0
H1158 H 0.94797 0.88073 0.72463 0.0
H1159 H 0.973 0.86514 0.75924 0.0
H1160 H 0.53664 0.87929 0.09097 0.0
H1161 H 0.56199 0.8943 0.12415 0.0
H1162 H 0.54545 0.87772 0.25762 0.0
H1163 H 0.52051 0.86188 0.224 0.0
H1164 H 0.55933 0.92123 0.17638 0.0
H1165 H 0.59723 0.87098 0.27043 0.0
H1166 H 0.5804 0.86519 0.22978 0.0
H1167 H 0.57454 0.87098 0.28712 0.0
C1168 C 0.5387 0.87848 0.1273 0.0
C1169 C 0.52669 0.86946 0.15502 0.0
C1170 C 0.55318 0.88705 0.14623 0.0
C1171 C 0.55577 0.88707 0.19339 0.0
C1172 C 0.54406 0.87753 0.22107 0.0
H1173 H 0.59971 0.9576 0.38247 0.0
H1174 H 0.58617 0.93325 0.34123 0.0
C1175 C 0.52974 0.86858 0.20192 0.0
C1176 C 0.56926 0.89889 0.21359 0.0
H1177 H 0.6021 0.90126 0.29273 0.0
C1178 C 0.56892 0.91674 0.20109 0.0
C1179 C 0.58179 0.8931 0.24591 0.0
C1180 C 0.58364 0.87397 0.25871 0.0
C1181 C 0.58021 0.92904 0.22131 0.0
C1182 C 0.59216 0.92338 0.25498 0.0
C1183 C 0.59291 0.9055 0.26674 0.0
C1184 C 0.60244 0.93626 0.28158 0.0
C1185 C 0.57872 0.94819 0.20811 0.0
C1186 C 0.6164 0.94571 0.26196 0.0
C1187 C 0.62425 0.95966 0.28558 0.0
C1188 C 0.61808 0.96438 0.32885 0.0
C1189 C 0.60465 0.95434 0.34903 0.0
C1190 C 0.59696 0.94037 0.32567 0.0
H1191 H 0.56754 0.95066 0.18462 0.0
H1192 H 0.57699 0.95648 0.23881 0.0
H1193 H 0.59106 0.95242 0.19113 0.0
H1194 H 0.62077 0.94268 0.22787 0.0
H1195 H 0.63458 0.96718 0.26926 0.0
H1196 H 0.63379 0.52142 0.71878 0.0
H1197 H 0.61922 0.54524 0.76096 0.0
H1198 H 0.58537 0.55521 0.64636 0.0
H1199 H 0.59964 0.53148 0.60429 0.0
H1200 H 0.60416 0.58711 0.71155 0.0
H1201 H 0.56105 0.53474 0.78434 0.0
H1202 H 0.58434 0.53098 0.77689 0.0
H1203 H 0.57026 0.53236 0.72823 0.0
C1204 C 0.62351 0.52896 0.7023 0.0
C1205 C 0.61771 0.52452 0.65848 0.0
C1206 C 0.61526 0.54256 0.72633 0.0
C1207 C 0.60131 0.55193 0.70652 0.0
C1208 C 0.59621 0.54817 0.66193 0.0
H1209 H 0.52195 0.62841 0.77451 0.0
H1210 H 0.54706 0.61316 0.73984 0.0
C1211 C 0.6043 0.53454 0.63813 0.0
C1212 C 0.59038 0.56394 0.73389 0.0
H1213 H 0.55366 0.56397 0.80013 0.0
C1214 C 0.59323 0.58215 0.73147 0.0
C1215 C 0.57618 0.5573 0.75956 0.0
C1216 C 0.57263 0.53778 0.76268 0.0
C1217 C 0.582 0.59399 0.75405 0.0
C1218 C 0.56741 0.58735 0.77856 0.0
C1219 C 0.56486 0.56907 0.78146 0.0
C1220 C 0.55419 0.59886 0.80078 0.0
C1221 C 0.58594 0.61342 0.75165 0.0
C1222 C 0.5499 0.59598 0.84647 0.0
C1223 C 0.5354 0.60433 0.86583 0.0
C1224 C 0.52501 0.6159 0.84008 0.0
C1225 C 0.52986 0.61964 0.79514 0.0
C1226 C 0.54427 0.61102 0.77544 0.0
H1227 H 0.60008 0.61587 0.74439 0.0
H1228 H 0.57812 0.61937 0.72376 0.0
H1229 H 0.58239 0.62014 0.78381 0.0
H1230 H 0.55734 0.58667 0.86667 0.0
H1231 H 0.532 0.60131 0.90067 0.0
H1232 H 0.08881 0.46901 0.6339 0.0
H1233 H 0.07718 0.44288 0.67015 0.0
H1234 H 0.12927 0.42935 0.7175 0.0
H1235 H 0.1409 0.45647 0.68323 0.0
H1236 H 0.08253 0.40942 0.65813 0.0
H1237 H 0.10333 0.4265 0.83403 0.0
H1238 H 0.10544 0.44187 0.78784 0.0
H1239 H 0.12065 0.42384 0.79321 0.0
C1240 C 0.09784 0.4606 0.65224 0.0
C1241 C 0.11574 0.46493 0.65623 0.0
C1242 C 0.09117 0.44552 0.67276 0.0
C1243 C 0.10226 0.43415 0.69709 0.0
C1244 C 0.12033 0.43811 0.69996 0.0
H1245 H 0.03218 0.34889 0.79751 0.0
H1246 H 0.0587 0.36042 0.75986 0.0
C1247 C 0.12699 0.45355 0.6802 0.0
C1248 C 0.09429 0.41868 0.72017 0.0
H1249 H 0.08409 0.40289 0.82531 0.0
C1250 C 0.08304 0.40779 0.69468 0.0
C1251 C 0.09518 0.4164 0.76779 0.0
C1252 C 0.10669 0.4278 0.79749 0.0
C1253 C 0.07125 0.39614 0.71573 0.0
C1254 C 0.07131 0.39473 0.76362 0.0
C1255 C 0.08396 0.40414 0.78864 0.0
C1256 C 0.05648 0.38653 0.78885 0.0
C1257 C 0.05785 0.3867 0.68671 0.0
C1258 C 0.04686 0.39707 0.81905 0.0
C1259 C 0.03213 0.39043 0.84121 0.0
C1260 C 0.0264 0.37313 0.83325 0.0
C1261 C 0.03618 0.36235 0.80382 0.0
C1262 C 0.05126 0.36895 0.78213 0.0
H1263 H 0.05776 0.39159 0.65118 0.0
H1264 H 0.06099 0.37245 0.68587 0.0
H1265 H 0.0444 0.38829 0.70093 0.0
H1266 H 0.05052 0.41067 0.8248 0.0
H1267 H 0.02503 0.39908 0.86391 0.0
H1268 H 0.02192 0.1293 0.21499 0.0
H1269 H 0.04621 0.11258 0.24923 0.0
H1270 H 0.05402 0.085 0.12288 0.0
H1271 H 0.02965 0.10124 0.08908 0.0
H1272 H 0.04963 0.06285 0.19289 0.0
H1273 H 0.09967 0.11311 0.23779 0.0
H1274 H 0.07806 0.11792 0.25919 0.0
H1275 H 0.08179 0.11751 0.19895 0.0
C1276 C 0.02907 0.11991 0.19439 0.0
C1277 C 0.02384 0.11646 0.14954 0.0
C1278 C 0.04301 0.11044 0.21385 0.0
C1279 C 0.05203 0.09764 0.18845 0.0
C1280 C 0.04727 0.09482 0.14307 0.0
H1281 H 0.13316 0.02082 0.26495 0.0
H1282 H 0.11727 0.04415 0.22393 0.0
C1283 C 0.03331 0.10409 0.12385 0.0
C1284 C 0.06501 0.08573 0.21015 0.0
H1285 H 0.10347 0.08445 0.27048 0.0
C1286 C 0.0615 0.06759 0.20932 0.0
C1287 C 0.08052 0.09192 0.23153 0.0
C1288 C 0.08537 0.11117 0.23163 0.0
C1289 C 0.07283 0.05552 0.23023 0.0
C1290 C 0.088 0.06175 0.25274 0.0
C1291 C 0.09178 0.07981 0.25301 0.0
C1292 C 0.09919 0.04956 0.27887 0.0
C1293 C 0.06836 0.03617 0.22919 0.0
C1294 C 0.09436 0.0452 0.32328 0.0
C1295 C 0.10325 0.03191 0.34648 0.0
C1296 C 0.11717 0.02277 0.32568 0.0
C1297 C 0.12249 0.02767 0.28178 0.0
C1298 C 0.11349 0.04098 0.25842 0.0
H1299 H 0.05675 0.03333 0.2074 0.0
H1300 H 0.07978 0.02851 0.21646 0.0
H1301 H 0.06549 0.03155 0.26415 0.0
H1302 H 0.08327 0.05165 0.33937 0.0
H1303 H 0.09889 0.0285 0.38036 0.0
H1304 H 0.34955 0.03024 0.70092 0.0
H1305 H 0.3605 0.05722 0.73771 0.0
H1306 H 0.41037 0.05076 0.66954 0.0
H1307 H 0.39943 0.02475 0.63177 0.0
H1308 H 0.38587 0.06221 0.79528 0.0
H1309 H 0.4032 0.1014 0.64604 0.0
H1310 H 0.38949 0.08206 0.64158 0.0
H1311 H 0.4132 0.08028 0.63887 0.0
C1312 C 0.36276 0.03479 0.69349 0.0
C1313 C 0.37359 0.02541 0.6633 0.0
C1314 C 0.36898 0.0502 0.71438 0.0
C1315 C 0.3861 0.05639 0.70531 0.0
C1316 C 0.39689 0.04679 0.67569 0.0
H1317 H 0.46691 0.08989 0.86479 0.0
H1318 H 0.44027 0.07799 0.83158 0.0
C1319 C 0.39065 0.03167 0.65454 0.0
C1320 C 0.39368 0.0718 0.72943 0.0
H1321 H 0.42341 0.10474 0.71193 0.0
C1322 C 0.39366 0.07185 0.77704 0.0
C1323 C 0.40329 0.08497 0.70606 0.0
C1324 C 0.40207 0.08727 0.65531 0.0
C1325 C 0.40464 0.08329 0.80152 0.0
C1326 C 0.41646 0.09438 0.7777 0.0
C1327 C 0.41485 0.09584 0.73041 0.0
C1328 C 0.43206 0.10244 0.80011 0.0
C1329 C 0.40385 0.08287 0.85265 0.0
C1330 C 0.43693 0.12002 0.79192 0.0
C1331 C 0.45266 0.12677 0.80991 0.0
C1332 C 0.46367 0.11606 0.83649 0.0
C1333 C 0.45868 0.09856 0.84477 0.0
C1334 C 0.44323 0.09178 0.82631 0.0
H1335 H 0.39012 0.08062 0.86434 0.0
H1336 H 0.41193 0.07174 0.86538 0.0
H1337 H 0.40878 0.0953 0.86788 0.0
H1338 H 0.42868 0.12845 0.77127 0.0
H1339 H 0.45619 0.14032 0.80299 0.0
H1340 H 0.4672 0.3567 0.222 0.0
H1341 H 0.44239 0.37039 0.26238 0.0
H1342 H 0.43121 0.40236 0.14496 0.0
H1343 H 0.4559 0.38898 0.10484 0.0
H1344 H 0.44204 0.40864 0.27442 0.0
H1345 H 0.38183 0.3843 0.18788 0.0
H1346 H 0.40248 0.37243 0.18707 0.0
H1347 H 0.39933 0.39117 0.15079 0.0
C1348 C 0.4592 0.36639 0.2046 0.0
C1349 C 0.46349 0.37186 0.16044 0.0
C1350 C 0.44506 0.37415 0.2276 0.0
C1351 C 0.43485 0.38718 0.20633 0.0
C1352 C 0.4387 0.39209 0.16161 0.0
H1353 H 0.3632 0.47092 0.2653 0.0
H1354 H 0.37915 0.44607 0.23126 0.0
C1355 C 0.45292 0.38454 0.13891 0.0
C1356 C 0.42179 0.39748 0.23232 0.0
H1357 H 0.37867 0.4102 0.23324 0.0
C1358 C 0.42811 0.40877 0.26614 0.0
C1359 C 0.40375 0.39778 0.22063 0.0
C1360 C 0.39635 0.38568 0.18483 0.0
C1361 C 0.41702 0.421 0.28731 0.0
C1362 C 0.39892 0.42145 0.27548 0.0
C1363 C 0.3925 0.40978 0.24243 0.0
C1364 C 0.38679 0.4346 0.29564 0.0
C1365 C 0.42509 0.43394 0.32022 0.0
C1366 C 0.38507 0.43588 0.34292 0.0
C1367 C 0.37641 0.45022 0.36218 0.0
C1368 C 0.36872 0.46312 0.3345 0.0
C1369 C 0.36898 0.46103 0.28722 0.0
C1370 C 0.37809 0.44688 0.26786 0.0
H1371 H 0.43959 0.43497 0.31584 0.0
H1372 H 0.41932 0.44727 0.31599 0.0
H1373 H 0.42256 0.42946 0.35545 0.0
H1374 H 0.39119 0.42625 0.36497 0.0
H1375 H 0.37619 0.45153 0.39879 0.0
loop_
_geom_bond_atom_site_label_1
_geom_bond_atom_site_label_2
_geom_bond_distance
_geom_bond_site_symmetry_2
_ccdc_geom_bond_type
Co0 O1 2.239 . S
Co0 O2 2.091 . S
Co0 O4 2.004 . S
Co0 O10 2.021 . S
Co0 O12 2.137 1_455 S
Co0 O13 2.244 1_455 S
O1 Co0 2.239 . S
O1 C8 1.269 . S
O2 Co0 2.091 . S
O2 C8 1.261 . S
C3 O12 1.247 . S
C3 O13 1.272 . S
O4 Co0 2.004 . S
O4 C9 1.259 . S
Co5 O6 2.061 . S
Co5 O11 2.052 . S
Co5 O13 2.135 1_455 S
O6 Co5 2.061 . S
O6 C9 1.235 . S
C7 O10 1.238 . S
C7 O11 1.241 . S
C8 O1 1.269 . S
C8 O2 1.261 . S
C9 O4 1.259 . S
C9 O6 1.235 . S
O10 Co0 2.021 . S
O10 C7 1.238 . S
O11 Co5 2.052 . S
O11 C7 1.241 . S
O12 Co0 2.137 1_655 S
O12 C3 1.247 . S
O13 Co0 2.244 1_655 S
O13 C3 1.272 . S
O13 Co5 2.135 1_655 S
Co14 O15 2.239 . S
Co14 O16 2.091 . S
Co14 O18 2.004 . S
Co14 O24 2.021 . S
Co14 O26 2.137 1_545 S
Co14 O27 2.244 1_545 S
O15 Co14 2.239 . S
O15 C22 1.269 . S
O16 Co14 2.091 . S
O16 C22 1.261 . S
C17 O26 1.247 . S
C17 O27 1.272 . S
O18 Co14 2.004 . S
O18 C23 1.259 . S
Co19 O20 2.061 . S
Co19 O25 2.052 . S
Co19 O27 2.135 1_545 S
O20 Co19 2.061 . S
O20 C23 1.235 . S
C21 O24 1.238 . S
C21 O25 1.241 . S
C22 O15 1.269 . S
C22 O16 1.261 . S
C23 O18 1.259 . S
C23 O20 1.235 . S
O24 Co14 2.021 . S
O24 C21 1.238 . S
O25 Co19 2.052 . S
O25 C21 1.241 . S
O26 Co14 2.137 1_565 S
O26 C17 1.247 . S
O27 Co14 2.244 1_565 S
O27 C17 1.272 . S
O27 Co19 2.135 1_565 S
Co28 O29 2.216 . S
Co28 O30 2.091 . S
Co28 O32 2.004 . S
Co28 O38 2.021 . S
Co28 O40 2.137 . S
Co28 O41 2.244 . S
O29 Co28 2.216 . S
O29 C36 1.247 . S
O30 Co28 2.091 . S
O30 C36 1.261 . S
C31 O40 1.247 . S
C31 O41 1.272 . S
O32 Co28 2.004 . S
O32 C37 1.259 . S
Co33 O34 2.061 . S
Co33 O39 2.052 . S
Co33 O41 2.135 . S
O34 Co33 2.061 . S
O34 C37 1.235 . S
C35 O38 1.238 . S
C35 O39 1.241 . S
C36 O29 1.247 . S
C36 O30 1.261 . S
C37 O32 1.259 . S
C37 O34 1.235 . S
O38 Co28 2.021 . S
O38 C35 1.238 . S
O39 Co33 2.052 . S
O39 C35 1.241 . S
O40 Co28 2.137 . S
O40 C31 1.247 . S
O41 Co28 2.244 . S
O41 C31 1.272 . S
O41 Co33 2.135 . S
Co42 O43 2.216 . S
Co42 O44 2.091 . S
Co42 O46 2.004 . S
Co42 O52 2.021 . S
Co42 O54 2.137 . S
Co42 O55 2.244 . S
O43 Co42 2.216 . S
O43 C50 1.247 . S
O44 Co42 2.091 . S
O44 C50 1.261 . S
C45 O54 1.247 . S
C45 O55 1.272 . S
O46 Co42 2.004 . S
O46 C51 1.259 . S
Co47 O48 2.061 . S
Co47 O53 2.052 . S
Co47 O55 2.135 . S
O48 Co47 2.061 . S
O48 C51 1.235 . S
C49 O52 1.238 . S
C49 O53 1.241 . S
C50 O43 1.247 . S
C50 O44 1.261 . S
C51 O46 1.259 . S
C51 O48 1.235 . S
O52 Co42 2.021 . S
O52 C49 1.238 . S
O53 Co47 2.052 . S
O53 C49 1.241 . S
O54 Co42 2.137 . S
O54 C45 1.247 . S
O55 Co42 2.244 . S
O55 C45 1.272 . S
O55 Co47 2.135 . S
Co56 O57 2.239 . S
Co56 O58 2.091 . S
Co56 O60 2.004 . S
Co56 O66 2.021 . S
Co56 O68 2.137 1_455 S
Co56 O69 2.244 1_455 S
O57 Co56 2.239 . S
O57 C64 1.269 . S
O58 Co56 2.091 . S
O58 C64 1.261 . S
C59 O68 1.247 . S
C59 O69 1.272 . S
O60 Co56 2.004 . S
O60 C65 1.259 . S
Co61 O62 2.061 . S
Co61 O67 2.052 . S
Co61 O69 2.135 1_455 S
O62 Co61 2.061 . S
O62 C65 1.235 . S
C63 O66 1.238 . S
C63 O67 1.241 . S
C64 O57 1.269 . S
C64 O58 1.261 . S
C65 O60 1.259 . S
C65 O62 1.235 . S
O66 Co56 2.021 . S
O66 C63 1.238 . S
O67 Co61 2.052 . S
O67 C63 1.241 . S
O68 Co56 2.137 1_655 S
O68 C59 1.247 . S
O69 Co56 2.244 1_655 S
O69 C59 1.272 . S
O69 Co61 2.135 1_655 S
Co70 O71 2.239 . S
Co70 O72 2.091 . S
Co70 O74 2.004 . S
Co70 O80 2.021 . S
Co70 O82 2.137 1_545 S
Co70 O83 2.244 1_545 S
O71 Co70 2.239 . S
O71 C78 1.269 . S
O72 Co70 2.091 . S
O72 C78 1.261 . S
C73 O82 1.247 . S
C73 O83 1.272 . S
O74 Co70 2.004 . S
O74 C79 1.259 . S
Co75 O76 2.061 . S
Co75 O81 2.052 . S
Co75 O83 2.135 1_545 S
O76 Co75 2.061 . S
O76 C79 1.235 . S
C77 O80 1.238 . S
C77 O81 1.241 . S
C78 O71 1.269 . S
C78 O72 1.261 . S
C79 O74 1.259 . S
C79 O76 1.235 . S
O80 Co70 2.021 . S
O80 C77 1.238 . S
O81 Co75 2.052 . S
O81 C77 1.241 . S
O82 Co70 2.137 1_565 S
O82 C73 1.247 . S
O83 Co70 2.244 1_565 S
O83 C73 1.272 . S
O83 Co75 2.135 1_565 S
Co84 O85 2.216 . S
Co84 O86 2.091 . S
Co84 O88 2.004 . S
Co84 O94 2.021 . S
Co84 O96 2.137 . S
Co84 O97 2.244 . S
O85 Co84 2.216 . S
O85 C92 1.247 . S
O86 Co84 2.091 . S
O86 C92 1.261 . S
C87 O96 1.247 . S
C87 O97 1.272 . S
O88 Co84 2.004 . S
O88 C93 1.259 . S
Co89 O90 2.061 . S
Co89 O95 2.052 . S
Co89 O97 2.135 . S
O90 Co89 2.061 . S
O90 C93 1.235 . S
C91 O94 1.238 . S
C91 O95 1.241 . S
C92 O85 1.247 . S
C92 O86 1.261 . S
C93 O88 1.259 . S
C93 O90 1.235 . S
O94 Co84 2.021 . S
O94 C91 1.238 . S
O95 Co89 2.052 . S
O95 C91 1.241 . S
O96 Co84 2.137 . S
O96 C87 1.247 . S
O97 Co84 2.244 . S
O97 C87 1.272 . S
O97 Co89 2.135 . S
Co98 O99 2.216 . S
Co98 O100 2.091 . S
Co98 O102 2.004 . S
Co98 O108 2.021 . S
Co98 O110 2.137 . S
Co98 O111 2.244 . S
O99 Co98 2.216 . S
O99 C106 1.247 . S
O100 Co98 2.091 . S
O100 C106 1.261 . S
C101 O110 1.247 . S
C101 O111 1.272 . S
O102 Co98 2.004 . S
O102 C107 1.259 . S
Co103 O104 2.061 . S
Co103 O109 2.052 . S
Co103 O111 2.135 . S
O104 Co103 2.061 . S
O104 C107 1.235 . S
C105 O108 1.238 . S
C105 O109 1.241 . S
C106 O99 1.247 . S
C106 O100 1.261 . S
C107 O102 1.259 . S
C107 O104 1.235 . S
O108 Co98 2.021 . S
O108 C105 1.238 . S
O109 Co103 2.052 . S
O109 C105 1.241 . S
O110 Co98 2.137 . S
O110 C101 1.247 . S
O111 Co98 2.244 . S
O111 C101 1.272 . S
O111 Co103 2.135 . S
Co112 O113 2.239 . S
Co112 O114 2.091 . S
Co112 O116 2.004 . S
Co112 O122 2.021 . S
Co112 O124 2.137 1_655 S
Co112 O125 2.244 1_655 S
O113 Co112 2.239 . S
O113 C120 1.269 . S
O114 Co112 2.091 . S
O114 C120 1.261 . S
C115 O124 1.247 . S
C115 O125 1.272 . S
O116 Co112 2.004 . S
O116 C121 1.259 . S
Co117 O118 2.061 . S
Co117 O123 2.052 . S
Co117 O125 2.135 1_655 S
O118 Co117 2.061 . S
O118 C121 1.235 . S
C119 O122 1.238 . S
C119 O123 1.241 . S
C120 O113 1.269 . S
C120 O114 1.261 . S
C121 O116 1.259 . S
C121 O118 1.235 . S
O122 Co112 2.021 . S
O122 C119 1.238 . S
O123 Co117 2.052 . S
O123 C119 1.241 . S
O124 Co112 2.137 1_455 S
O124 C115 1.247 . S
O125 Co112 2.244 1_455 S
O125 C115 1.272 . S
O125 Co117 2.135 1_455 S
Co126 O127 2.239 . S
Co126 O128 2.091 . S
Co126 O130 2.004 . S
Co126 O136 2.021 . S
Co126 O138 2.137 1_565 S
Co126 O139 2.244 1_565 S
O127 Co126 2.239 . S
O127 C134 1.269 . S
O128 Co126 2.091 . S
O128 C134 1.261 . S
C129 O138 1.247 . S
C129 O139 1.272 . S
O130 Co126 2.004 . S
O130 C135 1.259 . S
Co131 O132 2.061 . S
Co131 O137 2.052 . S
Co131 O139 2.135 1_565 S
O132 Co131 2.061 . S
O132 C135 1.235 . S
C133 O136 1.238 . S
C133 O137 1.241 . S
C134 O127 1.269 . S
C134 O128 1.261 . S
C135 O130 1.259 . S
C135 O132 1.235 . S
O136 Co126 2.021 . S
O136 C133 1.238 . S
O137 Co131 2.052 . S
O137 C133 1.241 . S
O138 Co126 2.137 1_545 S
O138 C129 1.247 . S
O139 Co126 2.244 1_545 S
O139 C129 1.272 . S
O139 Co131 2.135 1_545 S
Co140 O141 2.216 . S
Co140 O142 2.091 . S
Co140 O144 2.004 . S
Co140 O150 2.021 . S
Co140 O152 2.137 . S
Co140 O153 2.244 . S
O141 Co140 2.216 . S
O141 C148 1.247 . S
O142 Co140 2.091 . S
O142 C148 1.261 . S
C143 O152 1.247 . S
C143 O153 1.272 . S
O144 Co140 2.004 . S
O144 C149 1.259 . S
Co145 O146 2.061 . S
Co145 O151 2.052 . S
Co145 O153 2.135 . S
O146 Co145 2.061 . S
O146 C149 1.235 . S
C147 O150 1.238 . S
C147 O151 1.241 . S
C148 O141 1.247 . S
C148 O142 1.261 . S
C149 O144 1.259 . S
C149 O146 1.235 . S
O150 Co140 2.021 . S
O150 C147 1.238 . S
O151 Co145 2.052 . S
O151 C147 1.241 . S
O152 Co140 2.137 . S
O152 C143 1.247 . S
O153 Co140 2.244 . S
O153 C143 1.272 . S
O153 Co145 2.135 . S
Co154 O155 2.216 . S
Co154 O156 2.091 . S
Co154 O158 2.004 . S
Co154 O164 2.021 . S
Co154 O166 2.137 . S
Co154 O167 2.244 . S
O155 Co154 2.216 . S
O155 C162 1.247 . S
O156 Co154 2.091 . S
O156 C162 1.261 . S
C157 O166 1.247 . S
C157 O167 1.272 . S
O158 Co154 2.004 . S
O158 C163 1.259 . S
Co159 O160 2.061 . S
Co159 O165 2.052 . S
Co159 O167 2.135 . S
O160 Co159 2.061 . S
O160 C163 1.235 . S
C161 O164 1.238 . S
C161 O165 1.241 . S
C162 O155 1.247 . S
C162 O156 1.261 . S
C163 O158 1.259 . S
C163 O160 1.235 . S
O164 Co154 2.021 . S
O164 C161 1.238 . S
O165 Co159 2.052 . S
O165 C161 1.241 . S
O166 Co154 2.137 . S
O166 C157 1.247 . S
O167 Co154 2.244 . S
O167 C157 1.272 . S
O167 Co159 2.135 . S
Co168 O169 2.239 . S
Co168 O170 2.091 . S
Co168 O172 2.004 . S
Co168 O178 2.021 . S
Co168 O180 2.137 1_655 S
Co168 O181 2.244 1_655 S
O169 Co168 2.239 . S
O169 C176 1.269 . S
O170 Co168 2.091 . S
O170 C176 1.261 . S
C171 O180 1.247 . S
C171 O181 1.272 . S
O172 Co168 2.004 . S
O172 C177 1.259 . S
Co173 O174 2.061 . S
Co173 O179 2.052 . S
Co173 O181 2.135 1_655 S
O174 Co173 2.061 . S
O174 C177 1.235 . S
C175 O178 1.238 . S
C175 O179 1.241 . S
C176 O169 1.269 . S
C176 O170 1.261 . S
C177 O172 1.259 . S
C177 O174 1.235 . S
O178 Co168 2.021 . S
O178 C175 1.238 . S
O179 Co173 2.052 . S
O179 C175 1.241 . S
O180 Co168 2.137 1_455 S
O180 C171 1.247 . S
O181 Co168 2.244 1_455 S
O181 C171 1.272 . S
O181 Co173 2.135 1_455 S
Co182 O183 2.239 . S
Co182 O184 2.091 . S
Co182 O186 2.004 . S
Co182 O192 2.021 . S
Co182 O194 2.137 1_565 S
Co182 O195 2.244 1_565 S
O183 Co182 2.239 . S
O183 C190 1.269 . S
O184 Co182 2.091 . S
O184 C190 1.261 . S
C185 O194 1.247 . S
C185 O195 1.272 . S
O186 Co182 2.004 . S
O186 C191 1.259 . S
Co187 O188 2.061 . S
Co187 O193 2.052 . S
Co187 O195 2.135 1_565 S
O188 Co187 2.061 . S
O188 C191 1.235 . S
C189 O192 1.238 . S
C189 O193 1.241 . S
C190 O183 1.269 . S
C190 O184 1.261 . S
C191 O186 1.259 . S
C191 O188 1.235 . S
O192 Co182 2.021 . S
O192 C189 1.238 . S
O193 Co187 2.052 . S
O193 C189 1.241 . S
O194 Co182 2.137 1_545 S
O194 C185 1.247 . S
O195 Co182 2.244 1_545 S
O195 C185 1.272 . S
O195 Co187 2.135 1_545 S
Co196 O197 2.216 . S
Co196 O198 2.091 . S
Co196 O200 2.004 . S
Co196 O206 2.021 . S
Co196 O208 2.137 . S
Co196 O209 2.244 . S
O197 Co196 2.216 . S
O197 C204 1.247 . S
O198 Co196 2.091 . S
O198 C204 1.261 . S
C199 O208 1.247 . S
C199 O209 1.272 . S
O200 Co196 2.004 . S
O200 C205 1.259 . S
Co201 O202 2.061 . S
Co201 O207 2.052 . S
Co201 O209 2.135 . S
O202 Co201 2.061 . S
O202 C205 1.235 . S
C203 O206 1.238 . S
C203 O207 1.241 . S
C204 O197 1.247 . S
C204 O198 1.261 . S
C205 O200 1.259 . S
C205 O202 1.235 . S
O206 Co196 2.021 . S
O206 C203 1.238 . S
O207 Co201 2.052 . S
O207 C203 1.241 . S
O208 Co196 2.137 . S
O208 C199 1.247 . S
O209 Co196 2.244 . S
O209 C199 1.272 . S
O209 Co201 2.135 . S
Co210 O211 2.216 . S
Co210 O212 2.091 . S
Co210 O214 2.004 . S
Co210 O220 2.021 . S
Co210 O222 2.137 . S
Co210 O223 2.244 . S
O211 Co210 2.216 . S
O211 C218 1.247 . S
O212 Co210 2.091 . S
O212 C218 1.261 . S
C213 O222 1.247 . S
C213 O223 1.272 . S
O214 Co210 2.004 . S
O214 C219 1.259 . S
Co215 O216 2.061 . S
Co215 O221 2.052 . S
Co215 O223 2.135 . S
O216 Co215 2.061 . S
O216 C219 1.235 . S
C217 O220 1.238 . S
C217 O221 1.241 . S
C218 O211 1.247 . S
C218 O212 1.261 . S
C219 O214 1.259 . S
C219 O216 1.235 . S
O220 Co210 2.021 . S
O220 C217 1.238 . S
O221 Co215 2.052 . S
O221 C217 1.241 . S
O222 Co210 2.137 . S
O222 C213 1.247 . S
O223 Co210 2.244 . S
O223 C213 1.272 . S
O223 Co215 2.135 . S
H224 C232 0.929 . S
H225 C234 0.930 . S
H226 C236 0.930 . S
H227 C239 0.929 . S
H228 C242 0.930 . S
H229 C244 0.960 . S
H230 C244 0.960 . S
H231 C244 0.960 1_554 S
C232 H224 0.929 . S
C232 C233 1.377 1_655 S
C232 C234 1.384 . S
C233 C232 1.377 1_455 S
C233 C239 1.390 . S
C234 H225 0.930 . S
C234 C232 1.384 . S
C234 C235 1.372 1_655 S
C235 C234 1.372 1_455 S
C235 C236 1.400 . S
C235 C240 1.490 . S
C236 H226 0.930 . S
C236 C235 1.400 . S
C236 C239 1.386 . S
H237 C253 0.930 . S
H238 C254 0.931 . S
C239 H227 0.929 . S
C239 C233 1.390 . S
C239 C236 1.386 . S
C240 C235 1.490 . S
C240 C242 1.395 1_455 S
C240 C243 1.403 1_554 S
H241 C247 0.930 . S
C242 H228 0.930 . S
C242 C240 1.395 1_655 S
C242 C245 1.403 . S
C243 C240 1.403 1_556 S
C243 C244 1.524 . S
C243 C247 1.400 . S
C244 H229 0.960 . S
C244 H230 0.960 . S
C244 H231 0.960 1_556 S
C244 C243 1.524 . S
C245 C242 1.403 . S
C245 C246 1.392 1_654 S
C245 C249 1.495 . S
C246 C245 1.392 1_456 S
C246 C247 1.385 . S
C246 C248 1.478 . S
C247 H241 0.930 . S
C247 C243 1.400 . S
C247 C246 1.385 . S
C248 C246 1.478 . S
C248 C250 1.381 1_455 S
C248 C254 1.383 . S
C249 C245 1.495 . S
C249 H255 0.959 . S
C249 H256 0.961 . S
C249 H257 0.960 1_554 S
C250 C248 1.381 1_655 S
C250 C251 1.394 . S
C250 H258 0.930 . S
C251 C250 1.394 . S
C251 C252 1.383 1_655 S
C251 H259 0.929 . S
C252 C251 1.383 1_455 S
C252 C253 1.377 . S
C253 H237 0.930 . S
C253 C252 1.377 . S
C253 C254 1.379 . S
C254 H238 0.931 . S
C254 C248 1.383 . S
C254 C253 1.379 . S
H255 C249 0.959 . S
H256 C249 0.961 . S
H257 C249 0.960 1_556 S
H258 C250 0.930 . S
H259 C251 0.929 . S
H260 C268 0.929 . S
H261 C270 0.930 . S
H262 C272 0.930 . S
H263 C275 0.929 . S
H264 C278 0.930 . S
H265 C280 0.960 . S
H266 C280 0.960 1_565 S
H267 C280 0.960 . S
C268 H260 0.929 . S
C268 C269 1.377 1_565 S
C268 C270 1.384 . S
C269 C268 1.377 1_545 S
C269 C275 1.390 . S
C270 H261 0.930 . S
C270 C268 1.384 . S
C270 C271 1.372 1_565 S
C271 C270 1.372 1_545 S
C271 C272 1.400 . S
C271 C276 1.490 . S
C272 H262 0.930 . S
C272 C271 1.400 . S
C272 C275 1.386 . S
H273 C289 0.930 . S
H274 C290 0.931 . S
C275 H263 0.929 . S
C275 C269 1.390 . S
C275 C272 1.386 . S
C276 C271 1.490 . S
C276 C278 1.395 . S
C276 C279 1.403 . S
H277 C283 0.930 . S
C278 H264 0.930 . S
C278 C276 1.395 . S
C278 C281 1.403 . S
C279 C276 1.403 . S
C279 C280 1.524 . S
C279 C283 1.400 . S
C280 H265 0.960 . S
C280 H266 0.960 1_545 S
C280 H267 0.960 . S
C280 C279 1.524 . S
C281 C278 1.403 . S
C281 C282 1.392 . S
C281 C285 1.495 . S
C282 C281 1.392 . S
C282 C283 1.385 . S
C282 C284 1.478 . S
C283 H277 0.930 . S
C283 C279 1.400 . S
C283 C282 1.385 . S
C284 C282 1.478 . S
C284 C286 1.381 1_545 S
C284 C290 1.383 . S
C285 C281 1.495 . S
C285 H291 0.959 . S
C285 H292 0.961 . S
C285 H293 0.960 1_545 S
C286 C284 1.381 1_565 S
C286 C287 1.394 . S
C286 H294 0.930 . S
C287 C286 1.394 . S
C287 C288 1.383 1_565 S
C287 H295 0.929 . S
C288 C287 1.383 1_545 S
C288 C289 1.377 . S
C289 H273 0.930 . S
C289 C288 1.377 . S
C289 C290 1.379 . S
C290 H274 0.931 . S
C290 C284 1.383 . S
C290 C289 1.379 . S
H291 C285 0.959 . S
H292 C285 0.961 . S
H293 C285 0.960 1_565 S
H294 C286 0.930 . S
H295 C287 0.929 . S
H296 C304 0.929 . S
H297 C306 0.930 . S
H298 C308 0.930 . S
H299 C311 0.929 . S
H300 C314 0.930 . S
H301 C316 0.960 . S
H302 C316 0.960 . S
H303 C316 0.960 . S
C304 H296 0.929 . S
C304 C305 1.377 . S
C304 C306 1.384 . S
C305 C304 1.377 . S
C305 C311 1.390 . S
C306 H297 0.930 . S
C306 C304 1.384 . S
C306 C307 1.372 . S
C307 C306 1.372 . S
C307 C308 1.400 . S
C307 C312 1.490 . S
C308 H298 0.930 . S
C308 C307 1.400 . S
C308 C311 1.386 . S
H309 C325 0.930 . S
H310 C326 0.931 . S
C311 H299 0.929 . S
C311 C305 1.390 . S
C311 C308 1.386 . S
C312 C307 1.490 . S
C312 C314 1.395 1_554 S
C312 C315 1.403 . S
H313 C319 0.930 . S
C314 H300 0.930 . S
C314 C312 1.395 1_556 S
C314 C317 1.403 . S
C315 C312 1.403 . S
C315 C316 1.524 . S
C315 C319 1.400 . S
C316 H301 0.960 . S
C316 H302 0.960 . S
C316 H303 0.960 . S
C316 C315 1.524 . S
C317 C314 1.403 . S
C317 C318 1.392 . S
C317 C321 1.495 . S
C318 C317 1.392 . S
C318 C319 1.385 1_556 S
C318 C320 1.478 . S
C319 H313 0.930 . S
C319 C315 1.400 . S
C319 C318 1.385 1_554 S
C320 C318 1.478 . S
C320 C322 1.381 . S
C320 C326 1.383 . S
C321 C317 1.495 . S
C321 H327 0.959 . S
C321 H328 0.961 . S
C321 H329 0.960 . S
C322 C320 1.381 . S
C322 C323 1.394 . S
C322 H330 0.930 . S
C323 C322 1.394 . S
C323 C324 1.383 . S
C323 H331 0.929 . S
C324 C323 1.383 . S
C324 C325 1.377 . S
C325 H309 0.930 . S
C325 C324 1.377 . S
C325 C326 1.379 . S
C326 H310 0.931 . S
C326 C320 1.383 . S
C326 C325 1.379 . S
H327 C321 0.959 . S
H328 C321 0.961 . S
H329 C321 0.960 . S
H330 C322 0.930 . S
H331 C323 0.929 . S
H332 C340 0.929 . S
H333 C342 0.930 . S
H334 C344 0.930 . S
H335 C347 0.929 . S
H336 C350 0.930 . S
H337 C352 0.960 . S
H338 C352 0.960 . S
H339 C352 0.960 . S
C340 H332 0.929 . S
C340 C341 1.377 . S
C340 C342 1.384 . S
C341 C340 1.377 . S
C341 C347 1.390 . S
C342 H333 0.930 . S
C342 C340 1.384 . S
C342 C343 1.372 . S
C343 C342 1.372 . S
C343 C344 1.400 . S
C343 C348 1.490 . S
C344 H334 0.930 . S
C344 C343 1.400 . S
C344 C347 1.386 . S
H345 C361 0.930 . S
H346 C362 0.931 . S
C347 H335 0.929 . S
C347 C341 1.390 . S
C347 C344 1.386 . S
C348 C343 1.490 . S
C348 C350 1.395 . S
C348 C351 1.403 . S
H349 C355 0.930 . S
C350 H336 0.930 . S
C350 C348 1.395 . S
C350 C353 1.403 . S
C351 C348 1.403 . S
C351 C352 1.524 . S
C351 C355 1.400 . S
C352 H337 0.960 . S
C352 H338 0.960 . S
C352 H339 0.960 . S
C352 C351 1.524 . S
C353 C350 1.403 . S
C353 C354 1.392 . S
C353 C357 1.495 . S
C354 C353 1.392 . S
C354 C355 1.385 . S
C354 C356 1.478 . S
C355 H349 0.930 . S
C355 C351 1.400 . S
C355 C354 1.385 . S
C356 C354 1.478 . S
C356 C358 1.381 . S
C356 C362 1.383 . S
C357 C353 1.495 . S
C357 H363 0.959 . S
C357 H364 0.961 . S
C357 H365 0.960 . S
C358 C356 1.381 . S
C358 C359 1.394 . S
C358 H366 0.930 . S
C359 C358 1.394 . S
C359 C360 1.383 . S
C359 H367 0.929 . S
C360 C359 1.383 . S
C360 C361 1.377 . S
C361 H345 0.930 . S
C361 C360 1.377 . S
C361 C362 1.379 . S
C362 H346 0.931 . S
C362 C356 1.383 . S
C362 C361 1.379 . S
H363 C357 0.959 . S
H364 C357 0.961 . S
H365 C357 0.960 . S
H366 C358 0.930 . S
H367 C359 0.929 . S
H368 C376 0.929 . S
H369 C378 0.930 . S
H370 C380 0.930 . S
H371 C383 0.929 . S
H372 C386 0.930 . S
H373 C388 0.960 . S
H374 C388 0.960 . S
H375 C388 0.960 . S
C376 H368 0.929 . S
C376 C377 1.377 . S
C376 C378 1.384 . S
C377 C376 1.377 . S
C377 C383 1.390 1_655 S
C378 H369 0.930 . S
C378 C376 1.384 . S
C378 C379 1.372 . S
C379 C378 1.372 . S
C379 C380 1.400 1_655 S
C379 C384 1.490 . S
C380 H370 0.930 . S
C380 C379 1.400 1_455 S
C380 C383 1.386 . S
H381 C397 0.930 . S
H382 C398 0.931 . S
C383 H371 0.929 . S
C383 C377 1.390 1_455 S
C383 C380 1.386 . S
C384 C379 1.490 . S
C384 C386 1.395 . S
C384 C387 1.403 1_656 S
H385 C391 0.930 . S
C386 H372 0.930 . S
C386 C384 1.395 . S
C386 C389 1.403 . S
C387 C384 1.403 1_454 S
C387 C388 1.524 . S
C387 C391 1.400 . S
C388 H373 0.960 . S
C388 H374 0.960 . S
C388 H375 0.960 . S
C388 C387 1.524 . S
C389 C386 1.403 . S
C389 C390 1.392 1_556 S
C389 C393 1.495 . S
C390 C389 1.392 1_554 S
C390 C391 1.385 1_655 S
C390 C392 1.478 . S
C391 H385 0.930 . S
C391 C387 1.400 . S
C391 C390 1.385 1_455 S
C392 C390 1.478 . S
C392 C394 1.381 . S
C392 C398 1.383 1_655 S
C393 C389 1.495 . S
C393 H399 0.959 . S
C393 H400 0.961 . S
C393 H401 0.960 . S
C394 C392 1.381 . S
C394 C395 1.394 . S
C394 H402 0.930 . S
C395 C394 1.394 . S
C395 C396 1.383 . S
C395 H403 0.929 . S
C396 C395 1.383 . S
C396 C397 1.377 1_655 S
C397 H381 0.930 . S
C397 C396 1.377 1_455 S
C397 C398 1.379 . S
C398 H382 0.931 . S
C398 C392 1.383 1_455 S
C398 C397 1.379 . S
H399 C393 0.959 . S
H400 C393 0.961 . S
H401 C393 0.960 . S
H402 C394 0.930 . S
H403 C395 0.929 . S
H404 C412 0.929 . S
H405 C414 0.930 . S
H406 C416 0.930 . S
H407 C419 0.929 . S
H408 C422 0.930 . S
H409 C424 0.960 . S
H410 C424 0.960 . S
H411 C424 0.960 . S
C412 H404 0.929 . S
C412 C413 1.377 1_545 S
C412 C414 1.384 . S
C413 C412 1.377 1_565 S
C413 C419 1.390 . S
C414 H405 0.930 . S
C414 C412 1.384 . S
C414 C415 1.372 1_545 S
C415 C414 1.372 1_565 S
C415 C416 1.400 . S
C415 C420 1.490 . S
C416 H406 0.930 . S
C416 C415 1.400 . S
C416 C419 1.386 . S
H417 C433 0.930 . S
H418 C434 0.931 . S
C419 H407 0.929 . S
C419 C413 1.390 . S
C419 C416 1.386 . S
C420 C415 1.490 . S
C420 C422 1.395 . S
C420 C423 1.388 1_565 S
H421 C427 0.921 1_545 S
C422 H408 0.930 . S
C422 C420 1.395 . S
C422 C425 1.403 . S
C423 C420 1.388 1_545 S
C423 C424 1.542 . S
C423 C427 1.397 1_545 S
C424 H409 0.960 . S
C424 H410 0.960 . S
C424 H411 0.960 . S
C424 C423 1.542 . S
C425 C422 1.403 . S
C425 C426 1.392 . S
C425 C429 1.495 . S
C426 C425 1.392 . S
C426 C427 1.397 . S
C426 C428 1.478 . S
C427 H421 0.921 1_565 S
C427 C423 1.397 1_565 S
C427 C426 1.397 . S
C428 C426 1.478 . S
C428 C430 1.381 1_565 S
C428 C434 1.383 . S
C429 C425 1.495 . S
C429 H435 0.959 . S
C429 H436 0.961 . S
C429 H437 0.960 . S
C430 C428 1.381 1_545 S
C430 C431 1.394 . S
C430 H438 0.930 . S
C431 C430 1.394 . S
C431 C432 1.383 1_545 S
C431 H439 0.929 . S
C432 C431 1.383 1_565 S
C432 C433 1.377 . S
C433 H417 0.930 . S
C433 C432 1.377 . S
C433 C434 1.379 . S
C434 H418 0.931 . S
C434 C428 1.383 . S
C434 C433 1.379 . S
H435 C429 0.959 . S
H436 C429 0.961 . S
H437 C429 0.960 . S
H438 C430 0.930 . S
H439 C431 0.929 . S
H440 C448 0.929 . S
H441 C450 0.930 . S
H442 C452 0.930 . S
H443 C455 0.929 . S
H444 C458 0.930 . S
H445 C460 0.960 . S
H446 C460 0.960 . S
H447 C460 0.960 . S
C448 H440 0.929 . S
C448 C449 1.377 . S
C448 C450 1.384 . S
C449 C448 1.377 . S
C449 C455 1.390 . S
C450 H441 0.930 . S
C450 C448 1.384 . S
C450 C451 1.372 . S
C451 C450 1.372 . S
C451 C452 1.400 . S
C451 C456 1.490 . S
C452 H442 0.930 . S
C452 C451 1.400 . S
C452 C455 1.386 . S
H453 C469 0.930 . S
H454 C470 0.931 . S
C455 H443 0.929 . S
C455 C449 1.390 . S
C455 C452 1.386 . S
C456 C451 1.490 . S
C456 C458 1.395 1_556 S
C456 C459 1.403 . S
H457 C463 0.930 . S
C458 H444 0.930 . S
C458 C456 1.395 1_554 S
C458 C461 1.403 . S
C459 C456 1.403 . S
C459 C460 1.524 . S
C459 C463 1.400 . S
C460 H445 0.960 . S
C460 H446 0.960 . S
C460 H447 0.960 . S
C460 C459 1.524 . S
C461 C458 1.403 . S
C461 C462 1.392 . S
C461 C465 1.495 . S
C462 C461 1.392 . S
C462 C463 1.385 1_554 S
C462 C464 1.478 . S
C463 H457 0.930 . S
C463 C459 1.400 . S
C463 C462 1.385 1_556 S
C464 C462 1.478 . S
C464 C466 1.381 . S
C464 C470 1.383 . S
C465 C461 1.495 . S
C465 H471 0.959 . S
C465 H472 0.961 . S
C465 H473 0.960 . S
C466 C464 1.381 . S
C466 C467 1.394 . S
C466 H474 0.930 . S
C467 C466 1.394 . S
C467 C468 1.383 . S
C467 H475 0.929 . S
C468 C467 1.383 . S
C468 C469 1.377 . S
C469 H453 0.930 . S
C469 C468 1.377 . S
C469 C470 1.379 . S
C470 H454 0.931 . S
C470 C464 1.383 . S
C470 C469 1.379 . S
H471 C465 0.959 . S
H472 C465 0.961 . S
H473 C465 0.960 . S
H474 C466 0.930 . S
H475 C467 0.929 . S
H476 C484 0.929 . S
H477 C486 0.930 . S
H478 C488 0.930 . S
H479 C491 0.929 . S
H480 C494 0.930 . S
H481 C496 0.960 . S
H482 C496 0.960 . S
H483 C496 0.960 . S
C484 H476 0.929 . S
C484 C485 1.377 . S
C484 C486 1.384 . S
C485 C484 1.377 . S
C485 C491 1.390 . S
C486 H477 0.930 . S
C486 C484 1.384 . S
C486 C487 1.372 . S
C487 C486 1.372 . S
C487 C488 1.400 . S
C487 C492 1.490 . S
C488 H478 0.930 . S
C488 C487 1.400 . S
C488 C491 1.386 . S
H489 C505 0.930 . S
H490 C506 0.931 . S
C491 H479 0.929 . S
C491 C485 1.390 . S
C491 C488 1.386 . S
C492 C487 1.490 . S
C492 C494 1.395 . S
C492 C495 1.403 . S
H493 C499 0.930 . S
C494 H480 0.930 . S
C494 C492 1.395 . S
C494 C497 1.403 . S
C495 C492 1.403 . S
C495 C496 1.524 . S
C495 C499 1.400 . S
C496 H481 0.960 . S
C496 H482 0.960 . S
C496 H483 0.960 . S
C496 C495 1.524 . S
C497 C494 1.403 . S
C497 C498 1.392 . S
C497 C501 1.495 . S
C498 C497 1.392 . S
C498 C499 1.385 . S
C498 C500 1.478 . S
C499 H493 0.930 . S
C499 C495 1.400 . S
C499 C498 1.385 . S
C500 C498 1.478 . S
C500 C502 1.381 . S
C500 C506 1.383 . S
C501 C497 1.495 . S
C501 H507 0.959 . S
C501 H508 0.961 . S
C501 H509 0.960 . S
C502 C500 1.381 . S
C502 C503 1.394 . S
C502 H510 0.930 . S
C503 C502 1.394 . S
C503 C504 1.383 . S
C503 H511 0.929 . S
C504 C503 1.383 . S
C504 C505 1.377 . S
C505 H489 0.930 . S
C505 C504 1.377 . S
C505 C506 1.379 . S
C506 H490 0.931 . S
C506 C500 1.383 . S
C506 C505 1.379 . S
H507 C501 0.959 . S
H508 C501 0.961 . S
H509 C501 0.960 . S
H510 C502 0.930 . S
H511 C503 0.929 . S
H512 C520 0.929 . S
H513 C522 0.930 . S
H514 C524 0.930 . S
H515 C527 0.929 . S
H516 C530 0.930 . S
H517 C532 0.960 . S
H518 C532 0.960 . S
H519 C532 0.960 . S
C520 H512 0.929 . S
C520 C521 1.377 1_556 S
C520 C522 1.384 . S
C521 C520 1.377 1_554 S
C521 C527 1.390 . S
C522 H513 0.930 . S
C522 C520 1.384 . S
C522 C523 1.372 . S
C523 C522 1.372 . S
C523 C524 1.400 . S
C523 C528 1.490 . S
C524 H514 0.930 . S
C524 C523 1.400 . S
C524 C527 1.386 1_556 S
H525 C541 0.930 . S
H526 C542 0.931 . S
C527 H515 0.929 . S
C527 C521 1.390 . S
C527 C524 1.386 1_554 S
C528 C523 1.490 . S
C528 C530 1.395 . S
C528 C531 1.403 . S
H529 C535 0.930 . S
C530 H516 0.930 . S
C530 C528 1.395 . S
C530 C533 1.403 . S
C531 C528 1.403 . S
C531 C532 1.524 . S
C531 C535 1.400 . S
C532 H517 0.960 . S
C532 H518 0.960 . S
C532 H519 0.960 . S
C532 C531 1.524 . S
C533 C530 1.403 . S
C533 C534 1.392 . S
C533 C537 1.495 . S
C534 C533 1.392 . S
C534 C535 1.385 . S
C534 C536 1.478 . S
C535 H529 0.930 . S
C535 C531 1.400 . S
C535 C534 1.385 . S
C536 C534 1.478 . S
C536 C538 1.381 . S
C536 C542 1.383 . S
C537 C533 1.495 . S
C537 H543 0.959 . S
C537 H544 0.961 . S
C537 H545 0.960 . S
C538 C536 1.381 . S
C538 C539 1.394 . S
C538 H546 0.930 . S
C539 C538 1.394 . S
C539 C540 1.383 . S
C539 H547 0.929 . S
C540 C539 1.383 . S
C540 C541 1.377 . S
C541 H525 0.930 . S
C541 C540 1.377 . S
C541 C542 1.379 . S
C542 H526 0.931 . S
C542 C536 1.383 . S
C542 C541 1.379 . S
H543 C537 0.959 . S
H544 C537 0.961 . S
H545 C537 0.960 . S
H546 C538 0.930 . S
H547 C539 0.929 . S
H548 C556 0.929 . S
H549 C558 0.930 . S
H550 C560 0.930 . S
H551 C563 0.929 . S
H552 C566 0.930 . S
H553 C568 0.960 . S
H554 C568 0.960 . S
H555 C568 0.960 . S
C556 H548 0.929 . S
C556 C557 1.377 . S
C556 C558 1.384 . S
C557 C556 1.377 . S
C557 C563 1.390 . S
C558 H549 0.930 . S
C558 C556 1.384 . S
C558 C559 1.372 . S
C559 C558 1.372 . S
C559 C560 1.400 . S
C559 C564 1.490 . S
C560 H550 0.930 . S
C560 C559 1.400 . S
C560 C563 1.386 . S
H561 C577 0.930 . S
H562 C578 0.931 . S
C563 H551 0.929 . S
C563 C557 1.390 . S
C563 C560 1.386 . S
C564 C559 1.490 . S
C564 C566 1.395 . S
C564 C567 1.403 . S
H565 C571 0.930 . S
C566 H552 0.930 . S
C566 C564 1.395 . S
C566 C569 1.403 . S
C567 C564 1.403 . S
C567 C568 1.524 . S
C567 C571 1.400 . S
C568 H553 0.960 . S
C568 H554 0.960 . S
C568 H555 0.960 . S
C568 C567 1.524 . S
C569 C566 1.403 . S
C569 C570 1.392 . S
C569 C573 1.495 . S
C570 C569 1.392 . S
C570 C571 1.385 . S
C570 C572 1.478 . S
C571 H565 0.930 . S
C571 C567 1.400 . S
C571 C570 1.385 . S
C572 C570 1.478 . S
C572 C574 1.381 . S
C572 C578 1.383 . S
C573 C569 1.495 . S
C573 H579 0.959 . S
C573 H580 0.961 . S
C573 H581 0.960 . S
C574 C572 1.381 . S
C574 C575 1.394 . S
C574 H582 0.930 . S
C575 C574 1.394 . S
C575 C576 1.383 . S
C575 H583 0.929 . S
C576 C575 1.383 . S
C576 C577 1.377 . S
C577 H561 0.930 . S
C577 C576 1.377 . S
C577 C578 1.379 . S
C578 H562 0.931 . S
C578 C572 1.383 . S
C578 C577 1.379 . S
H579 C573 0.959 . S
H580 C573 0.961 . S
H581 C573 0.960 . S
H582 C574 0.930 . S
H583 C575 0.929 . S
H584 C592 0.929 . S
H585 C594 0.930 . S
H586 C596 0.930 . S
H587 C599 0.929 . S
H588 C602 0.930 . S
H589 C604 0.960 . S
H590 C604 0.960 . S
H591 C604 0.960 . S
C592 H584 0.929 . S
C592 C593 1.377 . S
C592 C594 1.384 1_554 S
C593 C592 1.377 . S
C593 C599 1.390 . S
C594 H585 0.930 . S
C594 C592 1.384 1_556 S
C594 C595 1.372 . S
C595 C594 1.372 . S
C595 C596 1.400 . S
C595 C600 1.490 . S
C596 H586 0.930 . S
C596 C595 1.400 . S
C596 C599 1.386 1_556 S
H597 C613 0.930 . S
H598 C614 0.931 . S
C599 H587 0.929 . S
C599 C593 1.390 . S
C599 C596 1.386 1_554 S
C600 C595 1.490 . S
C600 C602 1.395 . S
C600 C603 1.403 . S
H601 C607 0.930 . S
C602 H588 0.930 . S
C602 C600 1.395 . S
C602 C605 1.403 . S
C603 C600 1.403 . S
C603 C604 1.524 . S
C603 C607 1.400 . S
C604 H589 0.960 . S
C604 H590 0.960 . S
C604 H591 0.960 . S
C604 C603 1.524 . S
C605 C602 1.403 . S
C605 C606 1.392 . S
C605 C609 1.495 . S
C606 C605 1.392 . S
C606 C607 1.385 . S
C606 C608 1.478 . S
C607 H601 0.930 . S
C607 C603 1.400 . S
C607 C606 1.385 . S
C608 C606 1.478 . S
C608 C610 1.381 . S
C608 C614 1.383 . S
C609 C605 1.495 . S
C609 H615 0.959 . S
C609 H616 0.961 . S
C609 H617 0.960 . S
C610 C608 1.381 . S
C610 C611 1.394 . S
C610 H618 0.930 . S
C611 C610 1.394 . S
C611 C612 1.383 . S
C611 H619 0.929 . S
C612 C611 1.383 . S
C612 C613 1.377 . S
C613 H597 0.930 . S
C613 C612 1.377 . S
C613 C614 1.379 . S
C614 H598 0.931 . S
C614 C608 1.383 . S
C614 C613 1.379 . S
H615 C609 0.959 . S
H616 C609 0.961 . S
H617 C609 0.960 . S
H618 C610 0.930 . S
H619 C611 0.929 . S
H620 C628 0.929 . S
H621 C630 0.930 . S
H622 C632 0.930 . S
H623 C635 0.929 . S
H624 C638 0.930 . S
H625 C640 0.960 . S
H626 C640 0.960 . S
H627 C640 0.960 . S
C628 H620 0.929 . S
C628 C629 1.377 . S
C628 C630 1.384 . S
C629 C628 1.377 . S
C629 C635 1.390 . S
C630 H621 0.930 . S
C630 C628 1.384 . S
C630 C631 1.372 . S
C631 C630 1.372 . S
C631 C632 1.400 . S
C631 C636 1.490 . S
C632 H622 0.930 . S
C632 C631 1.400 . S
C632 C635 1.386 . S
H633 C649 0.930 . S
H634 C650 0.931 . S
C635 H623 0.929 . S
C635 C629 1.390 . S
C635 C632 1.386 . S
C636 C631 1.490 . S
C636 C638 1.395 . S
C636 C639 1.403 . S
H637 C643 0.930 . S
C638 H624 0.930 . S
C638 C636 1.395 . S
C638 C641 1.403 . S
C639 C636 1.403 . S
C639 C640 1.524 . S
C639 C643 1.400 . S
C640 H625 0.960 . S
C640 H626 0.960 . S
C640 H627 0.960 . S
C640 C639 1.524 . S
C641 C638 1.403 . S
C641 C642 1.392 . S
C641 C645 1.495 . S
C642 C641 1.392 . S
C642 C643 1.385 . S
C642 C644 1.478 . S
C643 H637 0.930 . S
C643 C639 1.400 . S
C643 C642 1.385 . S
C644 C642 1.478 . S
C644 C646 1.381 . S
C644 C650 1.383 . S
C645 C641 1.495 . S
C645 H651 0.959 . S
C645 H652 0.961 . S
C645 H653 0.960 . S
C646 C644 1.381 . S
C646 C647 1.394 . S
C646 H654 0.930 . S
C647 C646 1.394 . S
C647 C648 1.383 . S
C647 H655 0.929 . S
C648 C647 1.383 . S
C648 C649 1.377 . S
C649 H633 0.930 . S
C649 C648 1.377 . S
C649 C650 1.379 . S
C650 H634 0.931 . S
C650 C644 1.383 . S
C650 C649 1.379 . S
H651 C645 0.959 . S
H652 C645 0.961 . S
H653 C645 0.960 . S
H654 C646 0.930 . S
H655 C647 0.929 . S
H656 C664 0.929 . S
H657 C666 0.930 . S
H658 C668 0.930 . S
H659 C671 0.929 . S
H660 C674 0.930 . S
H661 C676 0.960 . S
H662 C676 0.960 . S
H663 C676 0.960 . S
C664 H656 0.929 . S
C664 C665 1.377 . S
C664 C666 1.384 . S
C665 C664 1.377 . S
C665 C671 1.390 . S
C666 H657 0.930 . S
C666 C664 1.384 . S
C666 C667 1.372 . S
C667 C666 1.372 . S
C667 C668 1.400 . S
C667 C672 1.490 . S
C668 H658 0.930 . S
C668 C667 1.400 . S
C668 C671 1.386 . S
H669 C685 0.930 . S
H670 C686 0.931 . S
C671 H659 0.929 . S
C671 C665 1.390 . S
C671 C668 1.386 . S
C672 C667 1.490 . S
C672 C674 1.395 . S
C672 C675 1.403 . S
H673 C679 0.930 . S
C674 H660 0.930 . S
C674 C672 1.395 . S
C674 C677 1.403 . S
C675 C672 1.403 . S
C675 C676 1.524 . S
C675 C679 1.400 . S
C676 H661 0.960 . S
C676 H662 0.960 . S
C676 H663 0.960 . S
C676 C675 1.524 . S
C677 C674 1.403 . S
C677 C678 1.392 . S
C677 C681 1.495 . S
C678 C677 1.392 . S
C678 C679 1.385 . S
C678 C680 1.478 . S
C679 H673 0.930 . S
C679 C675 1.400 . S
C679 C678 1.385 . S
C680 C678 1.478 . S
C680 C682 1.381 . S
C680 C686 1.383 . S
C681 C677 1.495 . S
C681 H687 0.959 . S
C681 H688 0.961 . S
C681 H689 0.960 . S
C682 C680 1.381 . S
C682 C683 1.394 1_554 S
C682 H690 0.930 . S
C683 C682 1.394 1_556 S
C683 C684 1.383 . S
C683 H691 0.929 . S
C684 C683 1.383 . S
C684 C685 1.377 . S
C685 H669 0.930 . S
C685 C684 1.377 . S
C685 C686 1.379 1_556 S
C686 H670 0.931 . S
C686 C680 1.383 . S
C686 C685 1.379 1_554 S
H687 C681 0.959 . S
H688 C681 0.961 . S
H689 C681 0.960 . S
H690 C682 0.930 . S
H691 C683 0.929 . S
H692 C700 0.929 . S
H693 C702 0.930 . S
H694 C704 0.930 . S
H695 C707 0.929 . S
H696 C710 0.930 . S
H697 C712 0.960 . S
H698 C712 0.960 . S
H699 C712 0.960 . S
C700 H692 0.929 . S
C700 C701 1.377 . S
C700 C702 1.384 . S
C701 C700 1.377 . S
C701 C707 1.390 . S
C702 H693 0.930 . S
C702 C700 1.384 . S
C702 C703 1.372 . S
C703 C702 1.372 . S
C703 C704 1.400 . S
C703 C708 1.490 . S
C704 H694 0.930 . S
C704 C703 1.400 . S
C704 C707 1.386 . S
H705 C721 0.930 . S
H706 C722 0.931 . S
C707 H695 0.929 . S
C707 C701 1.390 . S
C707 C704 1.386 . S
C708 C703 1.490 . S
C708 C710 1.395 . S
C708 C711 1.403 . S
H709 C715 0.930 . S
C710 H696 0.930 . S
C710 C708 1.395 . S
C710 C713 1.403 . S
C711 C708 1.403 . S
C711 C712 1.524 . S
C711 C715 1.400 . S
C712 H697 0.960 . S
C712 H698 0.960 . S
C712 H699 0.960 . S
C712 C711 1.524 . S
C713 C710 1.403 . S
C713 C714 1.392 . S
C713 C717 1.495 . S
C714 C713 1.392 . S
C714 C715 1.385 . S
C714 C716 1.478 . S
C715 H709 0.930 . S
C715 C711 1.400 . S
C715 C714 1.385 . S
C716 C714 1.478 . S
C716 C718 1.381 . S
C716 C722 1.383 . S
C717 C713 1.495 . S
C717 H723 0.959 . S
C717 H724 0.961 . S
C717 H725 0.960 . S
C718 C716 1.381 . S
C718 C719 1.394 . S
C718 H726 0.930 . S
C719 C718 1.394 . S
C719 C720 1.383 . S
C719 H727 0.929 . S
C720 C719 1.383 . S
C720 C721 1.377 . S
C721 H705 0.930 . S
C721 C720 1.377 . S
C721 C722 1.379 . S
C722 H706 0.931 . S
C722 C716 1.383 . S
C722 C721 1.379 . S
H723 C717 0.959 . S
H724 C717 0.961 . S
H725 C717 0.960 . S
H726 C718 0.930 . S
H727 C719 0.929 . S
H728 C736 0.929 . S
H729 C738 0.930 . S
H730 C740 0.930 . S
H731 C743 0.929 . S
H732 C746 0.930 . S
H733 C748 0.960 . S
H734 C748 0.960 . S
H735 C748 0.960 . S
C736 H728 0.929 . S
C736 C737 1.377 . S
C736 C738 1.384 . S
C737 C736 1.377 . S
C737 C743 1.390 . S
C738 H729 0.930 . S
C738 C736 1.384 . S
C738 C739 1.372 . S
C739 C738 1.372 . S
C739 C740 1.400 . S
C739 C744 1.490 . S
C740 H730 0.930 . S
C740 C739 1.400 . S
C740 C743 1.386 . S
H741 C757 0.930 . S
H742 C758 0.931 . S
C743 H731 0.929 . S
C743 C737 1.390 . S
C743 C740 1.386 . S
C744 C739 1.490 . S
C744 C746 1.395 . S
C744 C747 1.403 . S
H745 C751 0.930 . S
C746 H732 0.930 . S
C746 C744 1.395 . S
C746 C749 1.403 . S
C747 C744 1.403 . S
C747 C748 1.524 . S
C747 C751 1.400 . S
C748 H733 0.960 . S
C748 H734 0.960 . S
C748 H735 0.960 . S
C748 C747 1.524 . S
C749 C746 1.403 . S
C749 C750 1.392 . S
C749 C753 1.495 . S
C750 C749 1.392 . S
C750 C751 1.385 . S
C750 C752 1.478 . S
C751 H745 0.930 . S
C751 C747 1.400 . S
C751 C750 1.385 . S
C752 C750 1.478 . S
C752 C754 1.381 1_554 S
C752 C758 1.383 . S
C753 C749 1.495 . S
C753 H759 0.959 . S
C753 H760 0.961 . S
C753 H761 0.960 . S
C754 C752 1.381 1_556 S
C754 C755 1.394 . S
C754 H762 0.930 . S
C755 C754 1.394 . S
C755 C756 1.383 . S
C755 H763 0.929 . S
C756 C755 1.383 . S
C756 C757 1.377 1_556 S
C757 H741 0.930 . S
C757 C756 1.377 1_554 S
C757 C758 1.379 . S
C758 H742 0.931 . S
C758 C752 1.383 . S
C758 C757 1.379 . S
H759 C753 0.959 . S
H760 C753 0.961 . S
H761 C753 0.960 . S
H762 C754 0.930 . S
H763 C755 0.929 . S
H764 C772 0.929 . S
H765 C774 0.930 . S
H766 C776 0.930 . S
H767 C779 0.929 . S
H768 C782 0.930 . S
H769 C784 0.960 . S
H770 C784 0.960 . S
H771 C784 0.960 . S
C772 H764 0.929 . S
C772 C773 1.377 . S
C772 C774 1.384 . S
C773 C772 1.377 . S
C773 C779 1.390 . S
C774 H765 0.930 . S
C774 C772 1.384 . S
C774 C775 1.372 . S
C775 C774 1.372 . S
C775 C776 1.400 . S
C775 C780 1.490 . S
C776 H766 0.930 . S
C776 C775 1.400 . S
C776 C779 1.386 . S
H777 C793 0.930 . S
H778 C794 0.931 . S
C779 H767 0.929 . S
C779 C773 1.390 . S
C779 C776 1.386 . S
C780 C775 1.490 . S
C780 C782 1.395 . S
C780 C783 1.403 . S
H781 C787 0.930 . S
C782 H768 0.930 . S
C782 C780 1.395 . S
C782 C785 1.403 . S
C783 C780 1.403 . S
C783 C784 1.524 . S
C783 C787 1.400 . S
C784 H769 0.960 . S
C784 H770 0.960 . S
C784 H771 0.960 . S
C784 C783 1.524 . S
C785 C782 1.403 . S
C785 C786 1.392 . S
C785 C789 1.495 . S
C786 C785 1.392 . S
C786 C787 1.385 . S
C786 C788 1.478 . S
C787 H781 0.930 . S
C787 C783 1.400 . S
C787 C786 1.385 . S
C788 C786 1.478 . S
C788 C790 1.381 . S
C788 C794 1.383 . S
C789 C785 1.495 . S
C789 H795 0.959 . S
C789 H796 0.961 . S
C789 H797 0.960 . S
C790 C788 1.381 . S
C790 C791 1.394 . S
C790 H798 0.930 . S
C791 C790 1.394 . S
C791 C792 1.383 . S
C791 H799 0.929 . S
C792 C791 1.383 . S
C792 C793 1.377 . S
C793 H777 0.930 . S
C793 C792 1.377 . S
C793 C794 1.379 . S
C794 H778 0.931 . S
C794 C788 1.383 . S
C794 C793 1.379 . S
H795 C789 0.959 . S
H796 C789 0.961 . S
H797 C789 0.960 . S
H798 C790 0.930 . S
H799 C791 0.929 . S
H800 C808 0.929 . S
H801 C810 0.930 . S
H802 C812 0.930 . S
H803 C815 0.929 . S
H804 C818 0.930 . S
H805 C820 0.960 . S
H806 C820 0.960 . S
H807 C820 0.960 . S
C808 H800 0.929 . S
C808 C809 1.377 . S
C808 C810 1.384 1_556 S
C809 C808 1.377 . S
C809 C815 1.390 1_556 S
C810 H801 0.930 . S
C810 C808 1.384 1_554 S
C810 C811 1.372 . S
C811 C810 1.372 . S
C811 C812 1.400 . S
C811 C816 1.490 . S
C812 H802 0.930 . S
C812 C811 1.400 . S
C812 C815 1.386 . S
H813 C829 0.930 . S
H814 C830 0.931 . S
C815 H803 0.929 . S
C815 C809 1.390 1_554 S
C815 C812 1.386 . S
C816 C811 1.490 . S
C816 C818 1.395 . S
C816 C819 1.403 . S
H817 C823 0.930 . S
C818 H804 0.930 . S
C818 C816 1.395 . S
C818 C821 1.403 . S
C819 C816 1.403 . S
C819 C820 1.524 . S
C819 C823 1.400 . S
C820 H805 0.960 . S
C820 H806 0.960 . S
C820 H807 0.960 . S
C820 C819 1.524 . S
C821 C818 1.403 . S
C821 C822 1.392 . S
C821 C825 1.495 . S
C822 C821 1.392 . S
C822 C823 1.385 . S
C822 C824 1.478 . S
C823 H817 0.930 . S
C823 C819 1.400 . S
C823 C822 1.385 . S
C824 C822 1.478 . S
C824 C826 1.381 . S
C824 C830 1.383 . S
C825 C821 1.495 . S
C825 H831 0.959 . S
C825 H832 0.961 . S
C825 H833 0.960 . S
C826 C824 1.381 . S
C826 C827 1.394 . S
C826 H834 0.930 . S
C827 C826 1.394 . S
C827 C828 1.383 . S
C827 H835 0.929 . S
C828 C827 1.383 . S
C828 C829 1.377 . S
C829 H813 0.930 . S
C829 C828 1.377 . S
C829 C830 1.379 . S
C830 H814 0.931 . S
C830 C824 1.383 . S
C830 C829 1.379 . S
H831 C825 0.959 . S
H832 C825 0.961 . S
H833 C825 0.960 . S
H834 C826 0.930 . S
H835 C827 0.929 . S
H836 C844 0.929 . S
H837 C846 0.930 . S
H838 C848 0.930 . S
H839 C851 0.929 . S
H840 C854 0.930 . S
H841 C856 0.960 . S
H842 C856 0.960 . S
H843 C856 0.960 . S
C844 H836 0.929 . S
C844 C845 1.377 . S
C844 C846 1.384 . S
C845 C844 1.377 . S
C845 C851 1.390 . S
C846 H837 0.930 . S
C846 C844 1.384 . S
C846 C847 1.372 . S
C847 C846 1.372 . S
C847 C848 1.400 . S
C847 C852 1.490 . S
C848 H838 0.930 . S
C848 C847 1.400 . S
C848 C851 1.386 . S
H849 C865 0.930 . S
H850 C866 0.931 . S
C851 H839 0.929 . S
C851 C845 1.390 . S
C851 C848 1.386 . S
C852 C847 1.490 . S
C852 C854 1.395 . S
C852 C855 1.403 . S
H853 C859 0.930 . S
C854 H840 0.930 . S
C854 C852 1.395 . S
C854 C857 1.403 . S
C855 C852 1.403 . S
C855 C856 1.524 . S
C855 C859 1.400 . S
C856 H841 0.960 . S
C856 H842 0.960 . S
C856 H843 0.960 . S
C856 C855 1.524 . S
C857 C854 1.403 . S
C857 C858 1.392 . S
C857 C861 1.495 . S
C858 C857 1.392 . S
C858 C859 1.385 . S
C858 C860 1.478 . S
C859 H853 0.930 . S
C859 C855 1.400 . S
C859 C858 1.385 . S
C860 C858 1.478 . S
C860 C862 1.381 . S
C860 C866 1.383 . S
C861 C857 1.495 . S
C861 H867 0.959 . S
C861 H868 0.961 . S
C861 H869 0.960 . S
C862 C860 1.381 . S
C862 C863 1.394 . S
C862 H870 0.930 . S
C863 C862 1.394 . S
C863 C864 1.383 . S
C863 H871 0.929 . S
C864 C863 1.383 . S
C864 C865 1.377 . S
C865 H849 0.930 . S
C865 C864 1.377 . S
C865 C866 1.379 . S
C866 H850 0.931 . S
C866 C860 1.383 . S
C866 C865 1.379 . S
H867 C861 0.959 . S
H868 C861 0.961 . S
H869 C861 0.960 . S
H870 C862 0.930 . S
H871 C863 0.929 . S
H872 C880 0.929 . S
H873 C882 0.930 . S
H874 C884 0.930 . S
H875 C887 0.929 . S
H876 C890 0.930 . S
H877 C892 0.960 . S
H878 C892 0.960 . S
H879 C892 0.960 . S
C880 H872 0.929 . S
C880 C881 1.377 . S
C880 C882 1.384 . S
C881 C880 1.377 . S
C881 C887 1.390 . S
C882 H873 0.930 . S
C882 C880 1.384 . S
C882 C883 1.372 . S
C883 C882 1.372 . S
C883 C884 1.400 . S
C883 C888 1.490 . S
C884 H874 0.930 . S
C884 C883 1.400 . S
C884 C887 1.386 . S
H885 C901 0.930 . S
H886 C902 0.928 1_556 S
C887 H875 0.929 . S
C887 C881 1.390 . S
C887 C884 1.386 . S
C888 C883 1.490 . S
C888 C890 1.395 . S
C888 C891 1.403 . S
H889 C895 0.930 . S
C890 H876 0.930 . S
C890 C888 1.395 . S
C890 C893 1.403 . S
C891 C888 1.403 . S
C891 C892 1.524 . S
C891 C895 1.400 . S
C892 H877 0.960 . S
C892 H878 0.960 . S
C892 H879 0.960 . S
C892 C891 1.524 . S
C893 C890 1.403 . S
C893 C894 1.392 . S
C893 C897 1.495 . S
C894 C893 1.392 . S
C894 C895 1.385 . S
C894 C896 1.478 . S
C895 H889 0.930 . S
C895 C891 1.400 . S
C895 C894 1.385 . S
C896 C894 1.478 . S
C896 C898 1.381 . S
C896 C902 1.399 . S
C897 C893 1.495 . S
C897 H903 0.959 . S
C897 H904 0.961 . S
C897 H905 0.960 . S
C898 C896 1.381 . S
C898 C899 1.394 . S
C898 H906 0.930 . S
C899 C898 1.394 . S
C899 C900 1.383 1_554 S
C899 H907 0.929 . S
C900 C899 1.383 1_556 S
C900 C901 1.377 . S
C901 H885 0.930 . S
C901 C900 1.377 . S
C901 C902 1.366 1_556 S
C902 H886 0.928 1_554 S
C902 C896 1.399 . S
C902 C901 1.366 1_554 S
H903 C897 0.959 . S
H904 C897 0.961 . S
H905 C897 0.960 . S
H906 C898 0.930 . S
H907 C899 0.929 . S
H908 C916 0.929 . S
H909 C918 0.930 . S
H910 C920 0.930 . S
H911 C923 0.929 . S
H912 C926 0.930 . S
H913 C928 0.960 . S
H914 C928 0.960 . S
H915 C928 0.960 . S
C916 H908 0.929 . S
C916 C917 1.377 . S
C916 C918 1.384 . S
C917 C916 1.377 . S
C917 C923 1.390 . S
C918 H909 0.930 . S
C918 C916 1.384 . S
C918 C919 1.372 . S
C919 C918 1.372 . S
C919 C920 1.400 . S
C919 C924 1.490 . S
C920 H910 0.930 . S
C920 C919 1.400 . S
C920 C923 1.386 . S
H921 C937 0.930 . S
H922 C938 0.931 . S
C923 H911 0.929 . S
C923 C917 1.390 . S
C923 C920 1.386 . S
C924 C919 1.490 . S
C924 C926 1.395 . S
C924 C927 1.403 . S
H925 C931 0.930 . S
C926 H912 0.930 . S
C926 C924 1.395 . S
C926 C929 1.403 . S
C927 C924 1.403 . S
C927 C928 1.524 . S
C927 C931 1.400 . S
C928 H913 0.960 . S
C928 H914 0.960 . S
C928 H915 0.960 . S
C928 C927 1.524 . S
C929 C926 1.403 . S
C929 C930 1.392 . S
C929 C933 1.495 . S
C930 C929 1.392 . S
C930 C931 1.385 . S
C930 C932 1.478 . S
C931 H925 0.930 . S
C931 C927 1.400 . S
C931 C930 1.385 . S
C932 C930 1.478 . S
C932 C934 1.381 . S
C932 C938 1.383 . S
C933 C929 1.495 . S
C933 H939 0.959 . S
C933 H940 0.961 . S
C933 H941 0.960 . S
C934 C932 1.381 . S
C934 C935 1.394 . S
C934 H942 0.930 . S
C935 C934 1.394 . S
C935 C936 1.383 . S
C935 H943 0.929 . S
C936 C935 1.383 . S
C936 C937 1.377 . S
C937 H921 0.930 . S
C937 C936 1.377 . S
C937 C938 1.379 . S
C938 H922 0.931 . S
C938 C932 1.383 . S
C938 C937 1.379 . S
H939 C933 0.959 . S
H940 C933 0.961 . S
H941 C933 0.960 . S
H942 C934 0.930 . S
H943 C935 0.929 . S
H944 C952 0.929 . S
H945 C954 0.930 . S
H946 C956 0.930 . S
H947 C959 0.929 . S
H948 C962 0.930 . S
H949 C964 0.960 . S
H950 C964 0.960 . S
H951 C964 0.960 . S
C952 H944 0.929 . S
C952 C953 1.377 . S
C952 C954 1.384 . S
C953 C952 1.377 . S
C953 C959 1.390 . S
C954 H945 0.930 . S
C954 C952 1.384 . S
C954 C955 1.372 . S
C955 C954 1.372 . S
C955 C956 1.400 . S
C955 C960 1.490 . S
C956 H946 0.930 . S
C956 C955 1.400 . S
C956 C959 1.386 . S
H957 C973 0.930 . S
H958 C974 0.929 1_554 S
C959 H947 0.929 . S
C959 C953 1.390 . S
C959 C956 1.386 . S
C960 C955 1.490 . S
C960 C962 1.395 . S
C960 C963 1.403 . S
H961 C967 0.930 . S
C962 H948 0.930 . S
C962 C960 1.395 . S
C962 C965 1.403 . S
C963 C960 1.403 . S
C963 C964 1.524 . S
C963 C967 1.400 . S
C964 H949 0.960 . S
C964 H950 0.960 . S
C964 H951 0.960 . S
C964 C963 1.524 . S
C965 C962 1.403 . S
C965 C966 1.392 . S
C965 C969 1.495 . S
C966 C965 1.392 . S
C966 C967 1.385 . S
C966 C968 1.478 . S
C967 H961 0.930 . S
C967 C963 1.400 . S
C967 C966 1.385 . S
C968 C966 1.478 . S
C968 C970 1.381 . S
C968 C974 1.391 . S
C969 C965 1.495 . S
C969 H975 0.959 . S
C969 H976 0.961 . S
C969 H977 0.960 . S
C970 C968 1.381 . S
C970 C971 1.394 . S
C970 H978 0.930 . S
C971 C970 1.394 . S
C971 C972 1.383 1_556 S
C971 H979 0.929 . S
C972 C971 1.383 1_554 S
C972 C973 1.377 . S
C973 H957 0.930 . S
C973 C972 1.377 . S
C973 C974 1.372 1_554 S
C974 H958 0.929 1_556 S
C974 C968 1.391 . S
C974 C973 1.372 1_556 S
H975 C969 0.959 . S
H976 C969 0.961 . S
H977 C969 0.960 . S
H978 C970 0.930 . S
H979 C971 0.929 . S
H980 C988 0.929 . S
H981 C990 0.930 . S
H982 C992 0.930 . S
H983 C995 0.929 . S
H984 C998 0.930 . S
H985 C1000 0.960 . S
H986 C1000 0.960 . S
H987 C1000 0.960 . S
C988 H980 0.929 . S
C988 C989 1.377 . S
C988 C990 1.384 . S
C989 C988 1.377 . S
C989 C995 1.390 . S
C990 H981 0.930 . S
C990 C988 1.384 . S
C990 C991 1.372 . S
C991 C990 1.372 . S
C991 C992 1.400 . S
C991 C996 1.490 . S
C992 H982 0.930 . S
C992 C991 1.400 . S
C992 C995 1.386 . S
H993 C1009 0.930 . S
H994 C1010 0.931 . S
C995 H983 0.929 . S
C995 C989 1.390 . S
C995 C992 1.386 . S
C996 C991 1.490 . S
C996 C998 1.395 . S
C996 C999 1.403 . S
H997 C1003 0.930 . S
C998 H984 0.930 . S
C998 C996 1.395 . S
C998 C1001 1.403 . S
C999 C996 1.403 . S
C999 C1000 1.524 . S
C999 C1003 1.400 . S
C1000 H985 0.960 . S
C1000 H986 0.960 . S
C1000 H987 0.960 . S
C1000 C999 1.524 . S
C1001 C998 1.403 . S
C1001 C1002 1.392 . S
C1001 C1005 1.495 . S
C1002 C1001 1.392 . S
C1002 C1003 1.385 . S
C1002 C1004 1.478 . S
C1003 H997 0.930 . S
C1003 C999 1.400 . S
C1003 C1002 1.385 . S
C1004 C1002 1.478 . S
C1004 C1006 1.381 . S
C1004 C1010 1.383 . S
C1005 C1001 1.495 . S
C1005 H1011 0.959 . S
C1005 H1012 0.961 . S
C1005 H1013 0.960 . S
C1006 C1004 1.381 . S
C1006 C1007 1.394 . S
C1006 H1014 0.930 . S
C1007 C1006 1.394 . S
C1007 C1008 1.383 . S
C1007 H1015 0.929 . S
C1008 C1007 1.383 . S
C1008 C1009 1.377 . S
C1009 H993 0.930 . S
C1009 C1008 1.377 . S
C1009 C1010 1.379 . S
C1010 H994 0.931 . S
C1010 C1004 1.383 . S
C1010 C1009 1.379 . S
H1011 C1005 0.959 . S
H1012 C1005 0.961 . S
H1013 C1005 0.960 . S
H1014 C1006 0.930 . S
H1015 C1007 0.929 . S
H1016 C1024 0.929 1_554 S
H1017 C1026 0.930 . S
H1018 C1028 0.930 . S
H1019 C1031 0.929 . S
H1020 C1034 0.930 . S
H1021 C1036 0.960 . S
H1022 C1036 0.960 . S
H1023 C1036 0.960 . S
C1024 H1016 0.929 1_556 S
C1024 C1025 1.377 1_556 S
C1024 C1026 1.384 . S
C1025 C1024 1.377 1_554 S
C1025 C1031 1.390 . S
C1026 H1017 0.930 . S
C1026 C1024 1.384 . S
C1026 C1027 1.372 . S
C1027 C1026 1.372 . S
C1027 C1028 1.400 . S
C1027 C1032 1.490 . S
C1028 H1018 0.930 . S
C1028 C1027 1.400 . S
C1028 C1031 1.386 1_556 S
H1029 C1045 0.930 . S
H1030 C1046 0.931 . S
C1031 H1019 0.929 . S
C1031 C1025 1.390 . S
C1031 C1028 1.386 1_554 S
C1032 C1027 1.490 . S
C1032 C1034 1.395 . S
C1032 C1035 1.403 . S
H1033 C1039 0.930 . S
C1034 H1020 0.930 . S
C1034 C1032 1.395 . S
C1034 C1037 1.403 . S
C1035 C1032 1.403 . S
C1035 C1036 1.524 . S
C1035 C1039 1.400 . S
C1036 H1021 0.960 . S
C1036 H1022 0.960 . S
C1036 H1023 0.960 . S
C1036 C1035 1.524 . S
C1037 C1034 1.403 . S
C1037 C1038 1.392 . S
C1037 C1041 1.495 . S
C1038 C1037 1.392 . S
C1038 C1039 1.385 . S
C1038 C1040 1.478 . S
C1039 H1033 0.930 . S
C1039 C1035 1.400 . S
C1039 C1038 1.385 . S
C1040 C1038 1.478 . S
C1040 C1042 1.381 . S
C1040 C1046 1.383 . S
C1041 C1037 1.495 . S
C1041 H1047 0.959 . S
C1041 H1048 0.961 . S
C1041 H1049 0.960 . S
C1042 C1040 1.381 . S
C1042 C1043 1.394 . S
C1042 H1050 0.930 . S
C1043 C1042 1.394 . S
C1043 C1044 1.383 . S
C1043 H1051 0.929 . S
C1044 C1043 1.383 . S
C1044 C1045 1.377 . S
C1045 H1029 0.930 . S
C1045 C1044 1.377 . S
C1045 C1046 1.379 . S
C1046 H1030 0.931 . S
C1046 C1040 1.383 . S
C1046 C1045 1.379 . S
H1047 C1041 0.959 . S
H1048 C1041 0.961 . S
H1049 C1041 0.960 . S
H1050 C1042 0.930 . S
H1051 C1043 0.929 . S
H1052 C1060 0.929 . S
H1053 C1062 0.930 . S
H1054 C1064 0.930 . S
H1055 C1067 0.929 . S
H1056 C1070 0.930 . S
H1057 C1072 0.960 . S
H1058 C1072 0.960 . S
H1059 C1072 0.960 . S
C1060 H1052 0.929 . S
C1060 C1061 1.377 . S
C1060 C1062 1.384 . S
C1061 C1060 1.377 . S
C1061 C1067 1.390 . S
C1062 H1053 0.930 . S
C1062 C1060 1.384 . S
C1062 C1063 1.372 . S
C1063 C1062 1.372 . S
C1063 C1064 1.400 . S
C1063 C1068 1.490 . S
C1064 H1054 0.930 . S
C1064 C1063 1.400 . S
C1064 C1067 1.386 . S
H1065 C1081 0.930 . S
H1066 C1082 0.931 . S
C1067 H1055 0.929 . S
C1067 C1061 1.390 . S
C1067 C1064 1.386 . S
C1068 C1063 1.490 . S
C1068 C1070 1.395 . S
C1068 C1071 1.403 . S
H1069 C1075 0.930 . S
C1070 H1056 0.930 . S
C1070 C1068 1.395 . S
C1070 C1073 1.403 . S
C1071 C1068 1.403 . S
C1071 C1072 1.524 . S
C1071 C1075 1.400 . S
C1072 H1057 0.960 . S
C1072 H1058 0.960 . S
C1072 H1059 0.960 . S
C1072 C1071 1.524 . S
C1073 C1070 1.403 . S
C1073 C1074 1.392 . S
C1073 C1077 1.495 . S
C1074 C1073 1.392 . S
C1074 C1075 1.385 . S
C1074 C1076 1.478 . S
C1075 H1069 0.930 . S
C1075 C1071 1.400 . S
C1075 C1074 1.385 . S
C1076 C1074 1.478 . S
C1076 C1078 1.381 . S
C1076 C1082 1.383 . S
C1077 C1073 1.495 . S
C1077 H1083 0.959 . S
C1077 H1084 0.961 . S
C1077 H1085 0.960 . S
C1078 C1076 1.381 . S
C1078 C1079 1.394 . S
C1078 H1086 0.930 . S
C1079 C1078 1.394 . S
C1079 C1080 1.383 . S
C1079 H1087 0.929 . S
C1080 C1079 1.383 . S
C1080 C1081 1.377 . S
C1081 H1065 0.930 . S
C1081 C1080 1.377 . S
C1081 C1082 1.379 . S
C1082 H1066 0.931 . S
C1082 C1076 1.383 . S
C1082 C1081 1.379 . S
H1083 C1077 0.959 . S
H1084 C1077 0.961 . S
H1085 C1077 0.960 . S
H1086 C1078 0.930 . S
H1087 C1079 0.929 . S
H1088 C1096 0.929 . S
H1089 C1098 0.930 . S
H1090 C1100 0.930 . S
H1091 C1103 0.929 . S
H1092 C1106 0.930 . S
H1093 C1108 0.960 . S
H1094 C1108 0.960 . S
H1095 C1108 0.960 . S
C1096 H1088 0.929 . S
C1096 C1097 1.377 . S
C1096 C1098 1.384 . S
C1097 C1096 1.377 . S
C1097 C1103 1.390 . S
C1098 H1089 0.930 . S
C1098 C1096 1.384 . S
C1098 C1099 1.372 . S
C1099 C1098 1.372 . S
C1099 C1100 1.400 . S
C1099 C1104 1.490 . S
C1100 H1090 0.930 . S
C1100 C1099 1.400 . S
C1100 C1103 1.386 . S
H1101 C1117 0.930 . S
H1102 C1118 0.931 . S
C1103 H1091 0.929 . S
C1103 C1097 1.390 . S
C1103 C1100 1.386 . S
C1104 C1099 1.490 . S
C1104 C1106 1.395 . S
C1104 C1107 1.403 . S
H1105 C1111 0.930 . S
C1106 H1092 0.930 . S
C1106 C1104 1.395 . S
C1106 C1109 1.403 . S
C1107 C1104 1.403 . S
C1107 C1108 1.524 . S
C1107 C1111 1.400 . S
C1108 H1093 0.960 . S
C1108 H1094 0.960 . S
C1108 H1095 0.960 . S
C1108 C1107 1.524 . S
C1109 C1106 1.403 . S
C1109 C1110 1.392 . S
C1109 C1113 1.495 . S
C1110 C1109 1.392 . S
C1110 C1111 1.385 . S
C1110 C1112 1.478 . S
C1111 H1105 0.930 . S
C1111 C1107 1.400 . S
C1111 C1110 1.385 . S
C1112 C1110 1.478 . S
C1112 C1114 1.381 . S
C1112 C1118 1.383 . S
C1113 C1109 1.495 . S
C1113 H1119 0.959 . S
C1113 H1120 0.961 . S
C1113 H1121 0.960 . S
C1114 C1112 1.381 . S
C1114 C1115 1.394 . S
C1114 H1122 0.930 . S
C1115 C1114 1.394 . S
C1115 C1116 1.383 . S
C1115 H1123 0.929 . S
C1116 C1115 1.383 . S
C1116 C1117 1.377 . S
C1117 H1101 0.930 . S
C1117 C1116 1.377 . S
C1117 C1118 1.379 . S
C1118 H1102 0.931 . S
C1118 C1112 1.383 . S
C1118 C1117 1.379 . S
H1119 C1113 0.959 . S
H1120 C1113 0.961 . S
H1121 C1113 0.960 . S
H1122 C1114 0.930 . S
H1123 C1115 0.929 . S
H1124 C1132 0.929 . S
H1125 C1134 0.930 . S
H1126 C1136 0.930 . S
H1127 C1139 0.929 . S
H1128 C1142 0.930 . S
H1129 C1144 0.960 . S
H1130 C1144 0.960 . S
H1131 C1144 0.960 . S
C1132 H1124 0.929 . S
C1132 C1133 1.377 . S
C1132 C1134 1.384 . S
C1133 C1132 1.377 . S
C1133 C1139 1.390 . S
C1134 H1125 0.930 . S
C1134 C1132 1.384 . S
C1134 C1135 1.372 . S
C1135 C1134 1.372 . S
C1135 C1136 1.400 . S
C1135 C1140 1.490 . S
C1136 H1126 0.930 . S
C1136 C1135 1.400 . S
C1136 C1139 1.386 . S
H1137 C1153 0.930 . S
H1138 C1154 0.931 . S
C1139 H1127 0.929 . S
C1139 C1133 1.390 . S
C1139 C1136 1.386 . S
C1140 C1135 1.490 . S
C1140 C1142 1.395 . S
C1140 C1143 1.403 . S
H1141 C1147 0.930 . S
C1142 H1128 0.930 . S
C1142 C1140 1.395 . S
C1142 C1145 1.403 . S
C1143 C1140 1.403 . S
C1143 C1144 1.524 . S
C1143 C1147 1.400 . S
C1144 H1129 0.960 . S
C1144 H1130 0.960 . S
C1144 H1131 0.960 . S
C1144 C1143 1.524 . S
C1145 C1142 1.403 . S
C1145 C1146 1.392 . S
C1145 C1149 1.495 . S
C1146 C1145 1.392 . S
C1146 C1147 1.385 . S
C1146 C1148 1.478 . S
C1147 H1141 0.930 . S
C1147 C1143 1.400 . S
C1147 C1146 1.385 . S
C1148 C1146 1.478 . S
C1148 C1150 1.381 . S
C1148 C1154 1.383 . S
C1149 C1145 1.495 . S
C1149 H1155 0.959 . S
C1149 H1156 0.961 . S
C1149 H1157 0.960 . S
C1150 C1148 1.381 . S
C1150 C1151 1.394 . S
C1150 H1158 0.930 . S
C1151 C1150 1.394 . S
C1151 C1152 1.383 . S
C1151 H1159 0.929 . S
C1152 C1151 1.383 . S
C1152 C1153 1.377 . S
C1153 H1137 0.930 . S
C1153 C1152 1.377 . S
C1153 C1154 1.379 . S
C1154 H1138 0.931 . S
C1154 C1148 1.383 . S
C1154 C1153 1.379 . S
H1155 C1149 0.959 . S
H1156 C1149 0.961 . S
H1157 C1149 0.960 . S
H1158 C1150 0.930 . S
H1159 C1151 0.929 . S
H1160 C1168 0.929 . S
H1161 C1170 0.930 . S
H1162 C1172 0.930 . S
H1163 C1175 0.929 . S
H1164 C1178 0.930 . S
H1165 C1180 0.960 . S
H1166 C1180 0.960 . S
H1167 C1180 0.960 . S
C1168 H1160 0.929 . S
C1168 C1169 1.377 . S
C1168 C1170 1.384 . S
C1169 C1168 1.377 . S
C1169 C1175 1.390 . S
C1170 H1161 0.930 . S
C1170 C1168 1.384 . S
C1170 C1171 1.372 . S
C1171 C1170 1.372 . S
C1171 C1172 1.400 . S
C1171 C1176 1.490 . S
C1172 H1162 0.930 . S
C1172 C1171 1.400 . S
C1172 C1175 1.386 . S
H1173 C1189 0.930 . S
H1174 C1190 0.931 . S
C1175 H1163 0.929 . S
C1175 C1169 1.390 . S
C1175 C1172 1.386 . S
C1176 C1171 1.490 . S
C1176 C1178 1.395 . S
C1176 C1179 1.403 . S
H1177 C1183 0.930 . S
C1178 H1164 0.930 . S
C1178 C1176 1.395 . S
C1178 C1181 1.403 . S
C1179 C1176 1.403 . S
C1179 C1180 1.524 . S
C1179 C1183 1.400 . S
C1180 H1165 0.960 . S
C1180 H1166 0.960 . S
C1180 H1167 0.960 . S
C1180 C1179 1.524 . S
C1181 C1178 1.403 . S
C1181 C1182 1.392 . S
C1181 C1185 1.495 . S
C1182 C1181 1.392 . S
C1182 C1183 1.385 . S
C1182 C1184 1.478 . S
C1183 H1177 0.930 . S
C1183 C1179 1.400 . S
C1183 C1182 1.385 . S
C1184 C1182 1.478 . S
C1184 C1186 1.381 . S
C1184 C1190 1.383 . S
C1185 C1181 1.495 . S
C1185 H1191 0.959 . S
C1185 H1192 0.961 . S
C1185 H1193 0.960 . S
C1186 C1184 1.381 . S
C1186 C1187 1.394 . S
C1186 H1194 0.930 . S
C1187 C1186 1.394 . S
C1187 C1188 1.383 . S
C1187 H1195 0.929 . S
C1188 C1187 1.383 . S
C1188 C1189 1.377 . S
C1189 H1173 0.930 . S
C1189 C1188 1.377 . S
C1189 C1190 1.379 . S
C1190 H1174 0.931 . S
C1190 C1184 1.383 . S
C1190 C1189 1.379 . S
H1191 C1185 0.959 . S
H1192 C1185 0.961 . S
H1193 C1185 0.960 . S
H1194 C1186 0.930 . S
H1195 C1187 0.929 . S
H1196 C1204 0.929 . S
H1197 C1206 0.930 . S
H1198 C1208 0.930 . S
H1199 C1211 0.929 . S
H1200 C1214 0.930 . S
H1201 C1216 0.960 . S
H1202 C1216 0.960 . S
H1203 C1216 0.960 . S
C1204 H1196 0.929 . S
C1204 C1205 1.377 . S
C1204 C1206 1.384 . S
C1205 C1204 1.377 . S
C1205 C1211 1.390 . S
C1206 H1197 0.930 . S
C1206 C1204 1.384 . S
C1206 C1207 1.372 . S
C1207 C1206 1.372 . S
C1207 C1208 1.400 . S
C1207 C1212 1.490 . S
C1208 H1198 0.930 . S
C1208 C1207 1.400 . S
C1208 C1211 1.386 . S
H1209 C1225 0.930 . S
H1210 C1226 0.931 . S
C1211 H1199 0.929 . S
C1211 C1205 1.390 . S
C1211 C1208 1.386 . S
C1212 C1207 1.490 . S
C1212 C1214 1.395 . S
C1212 C1215 1.403 . S
H1213 C1219 0.930 . S
C1214 H1200 0.930 . S
C1214 C1212 1.395 . S
C1214 C1217 1.403 . S
C1215 C1212 1.403 . S
C1215 C1216 1.524 . S
C1215 C1219 1.400 . S
C1216 H1201 0.960 . S
C1216 H1202 0.960 . S
C1216 H1203 0.960 . S
C1216 C1215 1.524 . S
C1217 C1214 1.403 . S
C1217 C1218 1.392 . S
C1217 C1221 1.495 . S
C1218 C1217 1.392 . S
C1218 C1219 1.385 . S
C1218 C1220 1.478 . S
C1219 H1213 0.930 . S
C1219 C1215 1.400 . S
C1219 C1218 1.385 . S
C1220 C1218 1.478 . S
C1220 C1222 1.381 . S
C1220 C1226 1.383 . S
C1221 C1217 1.495 . S
C1221 H1227 0.959 . S
C1221 H1228 0.961 . S
C1221 H1229 0.960 . S
C1222 C1220 1.381 . S
C1222 C1223 1.394 . S
C1222 H1230 0.930 . S
C1223 C1222 1.394 . S
C1223 C1224 1.383 . S
C1223 H1231 0.929 . S
C1224 C1223 1.383 . S
C1224 C1225 1.377 . S
C1225 H1209 0.930 . S
C1225 C1224 1.377 . S
C1225 C1226 1.379 . S
C1226 H1210 0.931 . S
C1226 C1220 1.383 . S
C1226 C1225 1.379 . S
H1227 C1221 0.959 . S
H1228 C1221 0.961 . S
H1229 C1221 0.960 . S
H1230 C1222 0.930 . S
H1231 C1223 0.929 . S
H1232 C1240 0.929 . S
H1233 C1242 0.930 . S
H1234 C1244 0.930 . S
H1235 C1247 0.929 . S
H1236 C1250 0.930 . S
H1237 C1252 0.960 . S
H1238 C1252 0.960 . S
H1239 C1252 0.960 . S
C1240 H1232 0.929 . S
C1240 C1241 1.377 . S
C1240 C1242 1.384 . S
C1241 C1240 1.377 . S
C1241 C1247 1.390 . S
C1242 H1233 0.930 . S
C1242 C1240 1.384 . S
C1242 C1243 1.372 . S
C1243 C1242 1.372 . S
C1243 C1244 1.400 . S
C1243 C1248 1.490 . S
C1244 H1234 0.930 . S
C1244 C1243 1.400 . S
C1244 C1247 1.386 . S
H1245 C1261 0.930 . S
H1246 C1262 0.931 . S
C1247 H1235 0.929 . S
C1247 C1241 1.390 . S
C1247 C1244 1.386 . S
C1248 C1243 1.490 . S
C1248 C1250 1.395 . S
C1248 C1251 1.403 . S
H1249 C1255 0.930 . S
C1250 H1236 0.930 . S
C1250 C1248 1.395 . S
C1250 C1253 1.403 . S
C1251 C1248 1.403 . S
C1251 C1252 1.524 . S
C1251 C1255 1.400 . S
C1252 H1237 0.960 . S
C1252 H1238 0.960 . S
C1252 H1239 0.960 . S
C1252 C1251 1.524 . S
C1253 C1250 1.403 . S
C1253 C1254 1.392 . S
C1253 C1257 1.495 . S
C1254 C1253 1.392 . S
C1254 C1255 1.385 . S
C1254 C1256 1.478 . S
C1255 H1249 0.930 . S
C1255 C1251 1.400 . S
C1255 C1254 1.385 . S
C1256 C1254 1.478 . S
C1256 C1258 1.381 . S
C1256 C1262 1.383 . S
C1257 C1253 1.495 . S
C1257 H1263 0.959 . S
C1257 H1264 0.961 . S
C1257 H1265 0.960 . S
C1258 C1256 1.381 . S
C1258 C1259 1.394 . S
C1258 H1266 0.930 . S
C1259 C1258 1.394 . S
C1259 C1260 1.383 . S
C1259 H1267 0.929 . S
C1260 C1259 1.383 . S
C1260 C1261 1.377 . S
C1261 H1245 0.930 . S
C1261 C1260 1.377 . S
C1261 C1262 1.379 . S
C1262 H1246 0.931 . S
C1262 C1256 1.383 . S
C1262 C1261 1.379 . S
H1263 C1257 0.959 . S
H1264 C1257 0.961 . S
H1265 C1257 0.960 . S
H1266 C1258 0.930 . S
H1267 C1259 0.929 . S
H1268 C1276 0.929 . S
H1269 C1278 0.930 . S
H1270 C1280 0.930 . S
H1271 C1283 0.929 . S
H1272 C1286 0.930 . S
H1273 C1288 0.960 . S
H1274 C1288 0.960 . S
H1275 C1288 0.960 . S
C1276 H1268 0.929 . S
C1276 C1277 1.377 . S
C1276 C1278 1.384 . S
C1277 C1276 1.377 . S
C1277 C1283 1.390 . S
C1278 H1269 0.930 . S
C1278 C1276 1.384 . S
C1278 C1279 1.372 . S
C1279 C1278 1.372 . S
C1279 C1280 1.400 . S
C1279 C1284 1.490 . S
C1280 H1270 0.930 . S
C1280 C1279 1.400 . S
C1280 C1283 1.386 . S
H1281 C1297 0.930 . S
H1282 C1298 0.931 . S
C1283 H1271 0.929 . S
C1283 C1277 1.390 . S
C1283 C1280 1.386 . S
C1284 C1279 1.490 . S
C1284 C1286 1.395 . S
C1284 C1287 1.403 . S
H1285 C1291 0.930 . S
C1286 H1272 0.930 . S
C1286 C1284 1.395 . S
C1286 C1289 1.403 . S
C1287 C1284 1.403 . S
C1287 C1288 1.524 . S
C1287 C1291 1.400 . S
C1288 H1273 0.960 . S
C1288 H1274 0.960 . S
C1288 H1275 0.960 . S
C1288 C1287 1.524 . S
C1289 C1286 1.403 . S
C1289 C1290 1.392 . S
C1289 C1293 1.495 . S
C1290 C1289 1.392 . S
C1290 C1291 1.385 . S
C1290 C1292 1.478 . S
C1291 H1285 0.930 . S
C1291 C1287 1.400 . S
C1291 C1290 1.385 . S
C1292 C1290 1.478 . S
C1292 C1294 1.381 . S
C1292 C1298 1.383 . S
C1293 C1289 1.495 . S
C1293 H1299 0.959 . S
C1293 H1300 0.961 . S
C1293 H1301 0.960 . S
C1294 C1292 1.381 . S
C1294 C1295 1.394 . S
C1294 H1302 0.930 . S
C1295 C1294 1.394 . S
C1295 C1296 1.383 . S
C1295 H1303 0.929 . S
C1296 C1295 1.383 . S
C1296 C1297 1.377 . S
C1297 H1281 0.930 . S
C1297 C1296 1.377 . S
C1297 C1298 1.379 . S
C1298 H1282 0.931 . S
C1298 C1292 1.383 . S
C1298 C1297 1.379 . S
H1299 C1293 0.959 . S
H1300 C1293 0.961 . S
H1301 C1293 0.960 . S
H1302 C1294 0.930 . S
H1303 C1295 0.929 . S
H1304 C1312 0.929 . S
H1305 C1314 0.930 . S
H1306 C1316 0.930 . S
H1307 C1319 0.929 . S
H1308 C1322 0.930 . S
H1309 C1324 0.960 . S
H1310 C1324 0.960 . S
H1311 C1324 0.960 . S
C1312 H1304 0.929 . S
C1312 C1313 1.377 . S
C1312 C1314 1.384 . S
C1313 C1312 1.377 . S
C1313 C1319 1.390 . S
C1314 H1305 0.930 . S
C1314 C1312 1.384 . S
C1314 C1315 1.372 . S
C1315 C1314 1.372 . S
C1315 C1316 1.400 . S
C1315 C1320 1.490 . S
C1316 H1306 0.930 . S
C1316 C1315 1.400 . S
C1316 C1319 1.386 . S
H1317 C1333 0.930 . S
H1318 C1334 0.931 . S
C1319 H1307 0.929 . S
C1319 C1313 1.390 . S
C1319 C1316 1.386 . S
C1320 C1315 1.490 . S
C1320 C1322 1.395 . S
C1320 C1323 1.403 . S
H1321 C1327 0.930 . S
C1322 H1308 0.930 . S
C1322 C1320 1.395 . S
C1322 C1325 1.403 . S
C1323 C1320 1.403 . S
C1323 C1324 1.524 . S
C1323 C1327 1.400 . S
C1324 H1309 0.960 . S
C1324 H1310 0.960 . S
C1324 H1311 0.960 . S
C1324 C1323 1.524 . S
C1325 C1322 1.403 . S
C1325 C1326 1.392 . S
C1325 C1329 1.495 . S
C1326 C1325 1.392 . S
C1326 C1327 1.385 . S
C1326 C1328 1.478 . S
C1327 H1321 0.930 . S
C1327 C1323 1.400 . S
C1327 C1326 1.385 . S
C1328 C1326 1.478 . S
C1328 C1330 1.381 . S
C1328 C1334 1.383 . S
C1329 C1325 1.495 . S
C1329 H1335 0.959 . S
C1329 H1336 0.961 . S
C1329 H1337 0.960 . S
C1330 C1328 1.381 . S
C1330 C1331 1.394 . S
C1330 H1338 0.930 . S
C1331 C1330 1.394 . S
C1331 C1332 1.383 . S
C1331 H1339 0.929 . S
C1332 C1331 1.383 . S
C1332 C1333 1.377 . S
C1333 H1317 0.930 . S
C1333 C1332 1.377 . S
C1333 C1334 1.379 . S
C1334 H1318 0.931 . S
C1334 C1328 1.383 . S
C1334 C1333 1.379 . S
H1335 C1329 0.959 . S
H1336 C1329 0.961 . S
H1337 C1329 0.960 . S
H1338 C1330 0.930 . S
H1339 C1331 0.929 . S
H1340 C1348 0.929 . S
H1341 C1350 0.930 . S
H1342 C1352 0.930 . S
H1343 C1355 0.929 . S
H1344 C1358 0.930 . S
H1345 C1360 0.960 . S
H1346 C1360 0.960 . S
H1347 C1360 0.960 . S
C1348 H1340 0.929 . S
C1348 C1349 1.377 . S
C1348 C1350 1.384 . S
C1349 C1348 1.377 . S
C1349 C1355 1.390 . S
C1350 H1341 0.930 . S
C1350 C1348 1.384 . S
C1350 C1351 1.372 . S
C1351 C1350 1.372 . S
C1351 C1352 1.400 . S
C1351 C1356 1.490 . S
C1352 H1342 0.930 . S
C1352 C1351 1.400 . S
C1352 C1355 1.386 . S
H1353 C1369 0.930 . S
H1354 C1370 0.931 . S
C1355 H1343 0.929 . S
C1355 C1349 1.390 . S
C1355 C1352 1.386 . S
C1356 C1351 1.490 . S
C1356 C1358 1.395 . S
C1356 C1359 1.403 . S
H1357 C1363 0.930 . S
C1358 H1344 0.930 . S
C1358 C1356 1.395 . S
C1358 C1361 1.403 . S
C1359 C1356 1.403 . S
C1359 C1360 1.524 . S
C1359 C1363 1.400 . S
C1360 H1345 0.960 . S
C1360 H1346 0.960 . S
C1360 H1347 0.960 . S
C1360 C1359 1.524 . S
C1361 C1358 1.403 . S
C1361 C1362 1.392 . S
C1361 C1365 1.495 . S
C1362 C1361 1.392 . S
C1362 C1363 1.385 . S
C1362 C1364 1.478 . S
C1363 H1357 0.930 . S
C1363 C1359 1.400 . S
C1363 C1362 1.385 . S
C1364 C1362 1.478 . S
C1364 C1366 1.381 . S
C1364 C1370 1.383 . S
C1365 C1361 1.495 . S
C1365 H1371 0.959 . S
C1365 H1372 0.961 . S
C1365 H1373 0.960 . S
C1366 C1364 1.381 . S
C1366 C1367 1.394 . S
C1366 H1374 0.930 . S
C1367 C1366 1.394 . S
C1367 C1368 1.383 . S
C1367 H1375 0.929 . S
C1368 C1367 1.383 . S
C1368 C1369 1.377 . S
C1369 H1353 0.930 . S
C1369 C1368 1.377 . S
C1369 C1370 1.379 . S
C1370 H1354 0.931 . S
C1370 C1364 1.383 . S
C1370 C1369 1.379 . S
H1371 C1365 0.959 . S
H1372 C1365 0.961 . S
H1373 C1365 0.960 . S
H1374 C1366 0.930 . S
H1375 C1367 0.929 . S
C233 C8 0.935 . S
C252 C64 0.945 . S
C269 C78 0.938 . S
C288 C22 0.931 . S
C305 C36 0.933 . S
C324 C92 0.941 . S
C341 C50 0.939 . S
C360 C106 0.920 . S
C377 C120 0.933 . S
C396 C176 0.922 . S
C413 C190 0.939 . S
C432 C134 0.930 . S
C449 C148 0.938 . S
C468 C204 0.946 . S
C485 C162 0.933 . S
C504 C218 0.933 . S
C521 C7 1.417 . S
C540 C219 1.436 . S
C557 C177 1.437 . S
C576 C21 1.397 . S
C593 C35 1.427 . S
C612 C191 1.446 . S
C629 C205 1.434 . S
C648 C49 1.392 . S
C665 C135 1.432 . S
C684 C63 1.395 . S
C701 C149 1.432 . S
C720 C77 1.398 . S
C737 C163 1.432 . S
C756 C91 1.418 . S
C773 C121 1.441 . S
C792 C105 1.426 . S
C809 C119 1.418 . S
C828 C107 1.449 . S
C845 C65 1.441 . S
C864 C133 1.393 . S
C881 C79 1.433 . S
C900 C147 1.437 . S
C917 C161 1.427 . S
C936 C93 1.412 . S
C953 C23 1.432 . S
C972 C175 1.443 . S
C989 C189 1.426 . S
C1008 C37 1.416 . S
C1025 C203 1.424 . S
C1044 C51 1.425 . S
C1061 C217 1.425 . S
C1080 C9 1.419 . S
C1097 C101 0.941 . S
C1116 C3 0.968 . S
C1133 C17 0.945 . S
C1152 C59 0.928 . S
C1169 C31 0.950 . S
C1188 C73 0.924 . S
C1205 C45 0.941 . S
C1224 C87 0.969 . S
C1241 C213 0.941 . S
C1260 C115 0.919 . S
C1277 C171 0.944 . S
C1296 C129 0.915 . S
C1313 C185 0.948 . S
C1332 C143 0.965 . S
C1349 C199 0.950 . S
C1368 C157 0.944 . S
