# Generated by pormake.
# Topology mmt, (4)-cn, num edge types: 1
# Building blocks:
#     Node 0, Type 0, BuildingBlock: ICAMEG_clean_sbu_1, # of connection points: 4
#     Node 1, Type 0, BuildingBlock: ICAMEG_clean_sbu_1, # of connection points: 4
#     Node 2, Type 0, BuildingBlock: ICAMEG_clean_sbu_1, # of connection points: 4
#     Node 3, Type 0, BuildingBlock: ICAMEG_clean_sbu_1, # of connection points: 4
#     Node 4, Type 0, BuildingBlock: ICAMEG_clean_sbu_1, # of connection points: 4
#     Node 5, Type 0, BuildingBlock: ICAMEG_clean_sbu_1, # of connection points: 4
#     Node 6, Type 0, BuildingBlock: ICAMEG_clean_sbu_1, # of connection points: 4
#     Node 7, Type 0, BuildingBlock: ICAMEG_clean_sbu_1, # of connection points: 4
#     Edge 8, Type (0, 0), BuildingBlock: TEMPAE_clean_linker_10, # of connection points: 2
#     Edge 9, Type (0, 0), BuildingBlock: TEMPAE_clean_linker_10, # of connection points: 2
#     Edge 10, Type (0, 0), BuildingBlock: TEMPAE_clean_linker_10, # of connection points: 2
#     Edge 11, Type (0, 0), BuildingBlock: TEMPAE_clean_linker_10, # of connection points: 2
#     Edge 12, Type (0, 0), BuildingBlock: TEMPAE_clean_linker_10, # of connection points: 2
#     Edge 13, Type (0, 0), BuildingBlock: TEMPAE_clean_linker_10, # of connection points: 2
#     Edge 14, Type (0, 0), BuildingBlock: TEMPAE_clean_linker_10, # of connection points: 2
#     Edge 15, Type (0, 0), BuildingBlock: TEMPAE_clean_linker_10, # of connection points: 2
#     Edge 16, Type (0, 0), BuildingBlock: TEMPAE_clean_linker_10, # of connection points: 2
#     Edge 17, Type (0, 0), BuildingBlock: TEMPAE_clean_linker_10, # of connection points: 2
#     Edge 18, Type (0, 0), BuildingBlock: TEMPAE_clean_linker_10, # of connection points: 2
#     Edge 19, Type (0, 0), BuildingBlock: TEMPAE_clean_linker_10, # of connection points: 2
#     Edge 20, Type (0, 0), BuildingBlock: TEMPAE_clean_linker_10, # of connection points: 2
#     Edge 21, Type (0, 0), BuildingBlock: TEMPAE_clean_linker_10, # of connection points: 2
#     Edge 22, Type (0, 0), BuildingBlock: TEMPAE_clean_linker_10, # of connection points: 2
#     Edge 23, Type (0, 0), BuildingBlock: TEMPAE_clean_linker_10, # of connection points: 2
# Relax obj value: 0.088
# Max RMSD: 0.129
# Mean RMSD: 0.129
data_MOF--net-mmt--node1-ICAMEG_clean_sbu_1--edge1-TEMPAE_clean_linker_10
_symmetry_space_group_name_H-M    P1
_symmetry_Int_Tables_number       1
_symmetry_cell_setting            triclinic
loop_
_symmetry_equiv_pos_as_xyz
'x, y, z'
_cell_length_a     24.12851
_cell_length_b     42.793403
_cell_length_c     42.729056
_cell_angle_alpha  90.012404
_cell_angle_beta   89.977661
_cell_angle_gamma 89.903938
loop_
_atom_site_label
_atom_site_type_symbol
_atom_site_fract_x
_atom_site_fract_y
_atom_site_fract_z
_atom_type_partial_charge
Co0 Co 0.19813 0.53518 0.3582 0.0
Co1 Co 0.12686 0.60387 0.36294 0.0
O2 O 0.19617 0.58099 0.35566 0.0
C3 C 0.26382 0.54793 0.30015 0.0
O4 O 0.22395 0.56612 0.28982 0.0
C5 C 0.21858 0.64614 0.38705 0.0
O6 O 0.25648 0.62498 0.38101 0.0
O7 O 0.12036 0.58388 0.40496 0.0
O8 O 0.13823 0.53452 0.39061 0.0
H9 H 0.92788 0.6128 0.39665 0.0
H10 H 0.30405 0.56954 0.36554 0.0
O11 O 0.25887 0.53405 0.32633 0.0
H12 H 0.28012 0.51076 0.46385 0.0
H13 H 0.29175 0.4299 0.36019 0.0
H14 H 0.11256 0.48547 0.36093 0.0
H15 H 0.21109 0.50658 0.42158 0.0
H16 H 0.28856 0.48747 0.35872 0.0
O17 O 0.1674 0.64043 0.38229 0.0
H18 H 0.01585 0.58534 0.38622 0.0
H19 H 0.0902 0.67039 0.35693 0.0
H20 H 0.1139 0.42791 0.36262 0.0
H21 H 0.37447 0.5741 0.40708 0.0
H22 H 0.20398 0.39972 0.36226 0.0
H23 H 0.36264 0.54466 0.45672 0.0
O24 O 0.14057 0.53252 0.32496 0.0
H25 H 0.22747 0.65565 0.27342 0.0
H26 H 0.04818 0.61476 0.31034 0.0
H27 H 0.05485 0.63756 0.25759 0.0
H28 H 0.14492 0.65843 0.23883 0.0
H29 H 0.21923 0.63222 0.32566 0.0
H30 H 1.00318 0.69881 0.36739 0.0
H31 H 0.92113 0.66996 0.38723 0.0
O32 O 0.0827 0.56903 0.3436 0.0
C33 C 0.11848 0.55448 0.40971 0.0
C34 C 0.96331 0.62562 0.38795 0.0
C35 C 1.00559 0.6739 0.37157 0.0
N36 N 0.0581 0.62618 0.37084 0.0
C37 C 0.01324 0.61019 0.38194 0.0
C38 C 0.05484 0.65769 0.36581 0.0
C39 C 0.95956 0.6577 0.38268 0.0
C40 C 0.29869 0.55656 0.38702 0.0
N41 N 0.25331 0.53798 0.39115 0.0
C42 C 0.33868 0.55927 0.41048 0.0
C43 C 0.332 0.54277 0.43833 0.0
C44 C 0.28568 0.52377 0.44236 0.0
C45 C 0.24657 0.52162 0.41837 0.0
C46 C 0.25225 0.44191 0.36039 0.0
C47 C 0.15196 0.47342 0.36089 0.0
C48 C 0.25017 0.47452 0.35948 0.0
N49 N 0.20043 0.48986 0.35988 0.0
C50 C 0.15244 0.4408 0.36179 0.0
C51 C 0.20298 0.42499 0.36156 0.0
C52 C 0.09276 0.54528 0.32635 0.0
C53 C 0.18784 0.64695 0.28144 0.0
C54 C 0.08756 0.62383 0.30248 0.0
C55 C 0.09105 0.63672 0.27252 0.0
C56 C 0.14157 0.64842 0.26202 0.0
N57 N 0.13297 0.62279 0.32163 0.0
C58 C 0.18277 0.63388 0.31126 0.0
Co59 Co 0.32285 0.98666 0.35946 0.0
Co60 Co 0.39651 0.91711 0.35831 0.0
O61 O 0.32697 0.941 0.35419 0.0
C62 C 0.26211 0.97606 0.29903 0.0
O63 O 0.30061 0.95641 0.28975 0.0
C64 C 0.30703 0.87551 0.38617 0.0
O65 O 0.269 0.89702 0.38206 0.0
O66 O 0.411 0.93616 0.40022 0.0
O67 O 0.37745 0.98499 0.39455 0.0
H68 H 0.59999 0.90468 0.38062 0.0
H69 H 0.21889 0.94973 0.35995 0.0
O70 O 0.26649 0.98987 0.32527 0.0
H71 H 0.22244 1.00499 0.46119 0.0
H72 H 0.22637 0.09112 0.3647 0.0
H73 H 0.40616 0.03639 0.36971 0.0
H74 H 0.29732 0.01254 0.42264 0.0
H75 H 0.23114 0.03382 0.3594 0.0
O76 O 0.35744 0.88074 0.37894 0.0
H77 H 0.51227 0.93368 0.37489 0.0
H78 H 0.42853 0.85006 0.35008 0.0
H79 H 0.40321 0.09371 0.37545 0.0
H80 H 0.14248 0.94191 0.39749 0.0
H81 H 0.31282 0.12146 0.37293 0.0
H82 H 0.14414 0.9695 0.44864 0.0
O83 O 0.38427 0.99293 0.32867 0.0
H84 H 0.28169 0.86721 0.27327 0.0
H85 H 0.46643 0.907 0.30182 0.0
H86 H 0.45139 0.88511 0.24923 0.0
H87 H 0.35854 0.8648 0.23468 0.0
H88 H 0.2982 0.88975 0.32526 0.0
H89 H 0.51525 0.8201 0.35577 0.0
H90 H 0.60187 0.84743 0.37105 0.0
O91 O 0.43888 0.95162 0.3381 0.0
C92 C 0.40511 0.96438 0.40944 0.0
C93 C 0.5625 0.89248 0.37403 0.0
C94 C 0.51494 0.84502 0.36011 0.0
N95 N 0.46516 0.89363 0.36241 0.0
C96 C 0.51266 0.9088 0.3708 0.0
C97 C 0.46586 0.86211 0.35709 0.0
C98 C 0.56353 0.86037 0.36865 0.0
C99 C 0.21991 0.9618 0.38216 0.0
N100 N 0.2632 0.981 0.38941 0.0
C101 C 0.17652 0.95729 0.40332 0.0
C102 C 0.17749 0.97276 0.43202 0.0
C103 C 0.22146 0.9926 0.43911 0.0
C104 C 0.26408 0.99653 0.41735 0.0
C105 C 0.266 0.0793 0.36585 0.0
C106 C 0.36663 0.04827 0.36875 0.0
C107 C 0.26899 0.04685 0.36273 0.0
N108 N 0.31887 0.03173 0.36433 0.0
C109 C 0.36524 0.08074 0.37194 0.0
C110 C 0.31452 0.0963 0.37049 0.0
C111 C 0.43018 0.97832 0.32589 0.0
C112 C 0.3225 0.87568 0.27944 0.0
C113 C 0.42588 0.89821 0.29578 0.0
C114 C 0.41764 0.88581 0.26591 0.0
C115 C 0.36557 0.87442 0.25776 0.0
N116 N 0.38361 0.89906 0.31712 0.0
C117 C 0.33229 0.88823 0.3091 0.0
Co118 Co 0.70026 0.48543 0.14092 0.0
Co119 Co 0.62588 0.41714 0.13818 0.0
O120 O 0.69584 0.43975 0.14464 0.0
C121 C 0.76268 0.47358 0.20061 0.0
O122 O 0.72291 0.45529 0.21077 0.0
C123 C 0.71617 0.37485 0.11229 0.0
O124 O 0.75412 0.39613 0.11732 0.0
O125 O 0.61683 0.43686 0.09617 0.0
O126 O 0.64327 0.48584 0.10702 0.0
H127 H 0.42552 0.40861 0.10725 0.0
H128 H 0.80466 0.44892 0.1376 0.0
O129 O 0.75855 0.48691 0.17411 0.0
H130 H 0.79371 0.50552 0.03732 0.0
H131 H 0.79841 0.58923 0.13729 0.0
H132 H 0.6172 0.53619 0.13464 0.0
H133 H 0.72109 0.51213 0.07731 0.0
H134 H 0.79277 0.53182 0.14072 0.0
O135 O 0.66532 0.38037 0.11836 0.0
H136 H 0.51391 0.4359 0.11643 0.0
H137 H 0.58922 0.3508 0.14518 0.0
H138 H 0.621 0.59363 0.13085 0.0
H139 H 0.87879 0.44199 0.09849 0.0
H140 H 0.71211 0.62054 0.13218 0.0
H141 H 0.87347 0.47029 0.04783 0.0
O142 O 0.64056 0.49035 0.1729 0.0
H143 H 0.73031 0.36483 0.22601 0.0
H144 H 0.54996 0.4072 0.19221 0.0
H145 H 0.5591 0.38459 0.24494 0.0
H146 H 0.64972 0.36299 0.26212 0.0
H147 H 0.71963 0.38809 0.17381 0.0
H148 H 0.50172 0.32257 0.13603 0.0
H149 H 0.419 0.35152 0.11706 0.0
O150 O 0.58302 0.45218 0.15776 0.0
C151 C 0.61889 0.46595 0.08963 0.0
C152 C 0.46123 0.39574 0.11559 0.0
C153 C 0.50403 0.34745 0.13169 0.0
N154 N 0.55667 0.39502 0.13146 0.0
C155 C 0.5114 0.41108 0.12089 0.0
C156 C 0.55353 0.36356 0.13672 0.0
C157 C 0.45762 0.36371 0.12106 0.0
C158 C 0.80206 0.46138 0.11566 0.0
N159 N 0.75805 0.48057 0.1096 0.0
C160 C 0.84416 0.45733 0.09357 0.0
C161 C 0.84113 0.47319 0.06515 0.0
C162 C 0.79634 0.4929 0.05921 0.0
C163 C 0.75502 0.49636 0.08185 0.0
C164 C 0.75847 0.57777 0.13667 0.0
C165 C 0.65703 0.54769 0.1351 0.0
C166 C 0.75499 0.54526 0.1387 0.0
N167 N 0.70471 0.53061 0.13777 0.0
C168 C 0.65891 0.58024 0.13301 0.0
C169 C 0.71003 0.59532 0.13378 0.0
C170 C 0.59316 0.47713 0.17308 0.0
C171 C 0.69045 0.37389 0.21869 0.0
C172 C 0.58956 0.39785 0.19941 0.0
C173 C 0.59446 0.38505 0.22934 0.0
C174 C 0.64528 0.37293 0.23897 0.0
N175 N 0.63389 0.3984 0.17944 0.0
C176 C 0.684 0.38687 0.18892 0.0
Co177 Co 0.82286 0.03571 0.142 0.0
Co178 Co 0.89765 0.10305 0.135 0.0
O179 O 0.82765 0.08143 0.14378 0.0
C180 C 0.76097 0.04993 0.20147 0.0
O181 O 0.80219 0.06711 0.21174 0.0
C182 C 0.8065 0.14565 0.1108 0.0
O183 O 0.7686 0.12463 0.11699 0.0
O184 O 0.90207 0.08212 0.09335 0.0
O185 O 0.8798 0.03356 0.10805 0.0
H186 H 0.09516 0.10855 0.09802 0.0
H187 H 0.71839 0.07206 0.13693 0.0
O188 O 0.76443 0.03611 0.17518 0.0
H189 H 0.73014 0.01107 0.03925 0.0
H190 H 0.72364 0.93222 0.1435 0.0
H191 H 0.9054 0.98442 0.13783 0.0
H192 H 0.80263 1.00632 0.07955 0.0
H193 H 0.72993 0.98971 0.14438 0.0
O194 O 0.85769 0.13983 0.11551 0.0
H195 H 1.00677 0.08253 0.11036 0.0
H196 H 0.93723 0.16908 0.13943 0.0
H197 H 0.90092 0.92689 0.13661 0.0
H198 H 0.64453 0.0772 0.09743 0.0
H199 H 0.80954 0.9004 0.13945 0.0
H200 H 0.65022 0.04667 0.04808 0.0
O201 O 0.8828 0.03232 0.17397 0.0
H202 H 0.80274 0.1583 0.2245 0.0
H203 H 0.97864 0.11348 0.18652 0.0
H204 H 0.97487 0.13736 0.2389 0.0
H205 H 0.88652 0.1602 0.25818 0.0
H206 H 0.80807 0.13379 0.1726 0.0
H207 H 0.02477 0.19607 0.12713 0.0
H208 H 0.1046 0.16574 0.10639 0.0
O209 O 0.94107 0.06799 0.15431 0.0
C210 C 0.90115 0.05266 0.08861 0.0
C211 C 0.06072 0.12201 0.10711 0.0
C212 C 0.02118 0.17113 0.1234 0.0
N213 N 0.96692 0.1242 0.12577 0.0
C214 C 0.01057 0.10739 0.11421 0.0
C215 C 0.97165 0.15573 0.13023 0.0
C216 C 0.06597 0.1541 0.11179 0.0
C217 C 0.72116 0.05864 0.11557 0.0
N218 N 0.76518 0.03918 0.11046 0.0
C219 C 0.6792 0.06167 0.09326 0.0
C220 C 0.68244 0.04455 0.06557 0.0
C221 C 0.72731 0.02462 0.06058 0.0
C222 C 0.76847 0.02219 0.08342 0.0
C223 C 0.7637 0.94349 0.14221 0.0
C224 C 0.86544 0.9731 0.13895 0.0
C225 C 0.76755 0.97605 0.14278 0.0
N226 N 0.81798 0.99045 0.14099 0.0
C227 C 0.86319 0.9405 0.13831 0.0
C228 C 0.8119 0.92565 0.13993 0.0
C229 C 0.93095 0.04451 0.17185 0.0
C230 C 0.84164 0.14872 0.21624 0.0
C231 C 0.94001 0.12341 0.19462 0.0
C232 C 0.93816 0.13691 0.22436 0.0
C233 C 0.8886 0.14971 0.23516 0.0
N234 N 0.89393 0.12285 0.17597 0.0
C235 C 0.84505 0.13502 0.18663 0.0
Co236 Co 0.82723 0.47847 0.64107 0.0
Co237 Co 0.90996 0.41359 0.64286 0.0
O238 O 0.83718 0.43346 0.64731 0.0
C239 C 0.76457 0.46898 0.70128 0.0
O240 O 0.80689 0.45408 0.71362 0.0
C241 C 0.83943 0.37005 0.6047 0.0
O242 O 0.821 0.39366 0.58803 0.0
O243 O 0.91802 0.43082 0.59963 0.0
O244 O 0.88514 0.47919 0.60767 0.0
H245 H 0.11165 0.40965 0.61363 0.0
H246 H 0.73164 0.43529 0.63798 0.0
O247 O 0.76738 0.47945 0.67348 0.0
H248 H 0.73395 0.48924 0.53604 0.0
H249 H 0.71609 0.57776 0.63088 0.0
H250 H 0.90372 0.53194 0.63249 0.0
H251 H 0.80297 0.50198 0.57655 0.0
H252 H 0.72899 0.521 0.63753 0.0
O253 O 0.87422 0.37462 0.6266 0.0
H254 H 0.0201 0.43443 0.62014 0.0
H255 H 0.95396 0.34953 0.65544 0.0
H256 H 0.89266 0.58878 0.62543 0.0
H257 H 0.66136 0.42202 0.59827 0.0
H258 H 0.7983 0.61206 0.62462 0.0
H259 H 0.66234 0.44901 0.54682 0.0
O260 O 0.88535 0.48755 0.67333 0.0
H261 H 0.80891 0.36142 0.73136 0.0
H262 H 0.98345 0.4118 0.69909 0.0
H263 H 0.97346 0.3926 0.75318 0.0
H264 H 0.88573 0.3671 0.76961 0.0
H265 H 0.82044 0.38127 0.67757 0.0
H266 H 0.04473 0.32375 0.64909 0.0
H267 H 0.12444 0.3539 0.62815 0.0
O268 O 0.94802 0.45131 0.65978 0.0
C269 C 0.9125 0.45941 0.59152 0.0
C270 C 0.07727 0.39627 0.62282 0.0
C271 C 0.03969 0.34806 0.64268 0.0
N272 N 0.9817 0.3935 0.63823 0.0
C273 C 0.02531 0.41019 0.62659 0.0
C274 C 0.98832 0.36276 0.64612 0.0
C275 C 0.0844 0.36499 0.63095 0.0
C276 C 0.73218 0.44726 0.61571 0.0
N277 N 0.77157 0.46933 0.60956 0.0
C278 C 0.69234 0.43959 0.59329 0.0
C279 C 0.69295 0.45472 0.56442 0.0
C280 C 0.73315 0.47726 0.55834 0.0
C281 C 0.77236 0.48428 0.58131 0.0
C282 C 0.75742 0.5679 0.63119 0.0
C283 C 0.8625 0.54185 0.63202 0.0
C284 C 0.765 0.53577 0.63507 0.0
N285 N 0.81706 0.52311 0.63531 0.0
C286 C 0.85651 0.57407 0.62808 0.0
C287 C 0.80356 0.58713 0.62765 0.0
C288 C 0.9345 0.47633 0.67408 0.0
C289 C 0.84738 0.37241 0.72446 0.0
C290 C 0.94505 0.40087 0.70608 0.0
C291 C 0.9397 0.38996 0.73673 0.0
C292 C 0.89048 0.37564 0.74592 0.0
N293 N 0.90263 0.39756 0.68514 0.0
C294 C 0.85422 0.3836 0.69401 0.0
Co295 Co 0.69029 0.04341 0.6424 0.0
Co296 Co 0.61143 0.10928 0.64037 0.0
O297 O 0.68359 0.08894 0.64574 0.0
C298 C 0.75617 0.05507 0.70082 0.0
O299 O 0.71432 0.07043 0.71312 0.0
C300 C 0.68641 0.15109 0.60262 0.0
O301 O 0.70885 0.1268 0.58871 0.0
O302 O 0.60415 0.09019 0.59785 0.0
O303 O 0.62965 0.04147 0.61061 0.0
H304 H 0.41041 0.1134 0.60982 0.0
H305 H 0.78985 0.083 0.63413 0.0
O306 O 0.75233 0.0436 0.67344 0.0
H307 H 0.77195 0.02379 0.53564 0.0
H308 H 0.79489 0.94159 0.63656 0.0
H309 H 0.61019 0.99091 0.64024 0.0
H310 H 0.7052 0.01597 0.57863 0.0
H311 H 0.78563 0.9989 0.63938 0.0
O312 O 0.64799 0.14735 0.62266 0.0
H313 H 0.50143 0.08836 0.61759 0.0
H314 H 0.56833 0.174 0.65057 0.0
H315 H 0.61755 0.93355 0.63711 0.0
H316 H 0.85788 0.0913 0.59184 0.0
H317 H 0.71044 0.9085 0.63526 0.0
H318 H 0.84906 0.06162 0.54213 0.0
O319 O 0.63414 0.03801 0.67639 0.0
H320 H 0.71339 0.16386 0.72702 0.0
H321 H 0.53703 0.11469 0.69614 0.0
H322 H 0.54713 0.13607 0.74939 0.0
H323 H 0.63578 0.16097 0.76512 0.0
H324 H 0.7017 0.14184 0.67409 0.0
H325 H 0.47816 0.20005 0.64285 0.0
H326 H 0.39832 0.16966 0.62247 0.0
O327 O 0.57188 0.07266 0.65895 0.0
C328 C 0.60549 0.06082 0.59245 0.0
C329 C 0.44487 0.12689 0.61874 0.0
C330 C 0.48291 0.17552 0.63724 0.0
N331 N 0.5402 0.12966 0.63458 0.0
C332 C 0.49653 0.11282 0.62322 0.0
C333 C 0.53396 0.16067 0.64144 0.0
C334 C 0.43812 0.15845 0.62583 0.0
C335 C 0.78604 0.0698 0.61267 0.0
N336 N 0.74377 0.04893 0.60893 0.0
C337 C 0.82455 0.07468 0.58877 0.0
C338 C 0.81954 0.05805 0.56087 0.0
C339 C 0.77626 0.03684 0.5572 0.0
C340 C 0.73851 0.03258 0.5816 0.0
C341 C 0.75419 0.95223 0.63729 0.0
C342 C 0.65075 0.98023 0.63923 0.0
C343 C 0.74867 0.98468 0.63896 0.0
N344 N 0.69739 0.9983 0.63972 0.0
C345 C 0.65466 0.94771 0.63756 0.0
C346 C 0.70679 0.93367 0.63655 0.0
C347 C 0.58507 0.04926 0.67588 0.0
C348 C 0.67451 0.15313 0.72043 0.0
C349 C 0.57583 0.12533 0.70283 0.0
C350 C 0.58124 0.13749 0.733 0.0
C351 C 0.63098 0.15147 0.7418 0.0
N352 N 0.61868 0.12708 0.68197 0.0
C353 C 0.66759 0.14071 0.69045 0.0
Co354 Co 0.3291 0.53697 0.85702 0.0
Co355 Co 0.39975 0.60609 0.85865 0.0
O356 O 0.33034 0.58277 0.85374 0.0
C357 C 0.26031 0.55017 0.80034 0.0
O358 O 0.2986 0.5695 0.7903 0.0
C359 C 0.31423 0.64418 0.89317 0.0
O360 O 0.28571 0.61888 0.8994 0.0
O361 O 0.41065 0.58694 0.9007 0.0
O362 O 0.39 0.53718 0.88887 0.0
H363 H 0.60106 0.61738 0.88644 0.0
H364 H 0.22272 0.57114 0.86473 0.0
O365 O 0.2674 0.53517 0.82573 0.0
H366 H 0.25058 0.51429 0.96387 0.0
H367 H 0.23689 0.43155 0.86173 0.0
H368 H 0.41534 0.48752 0.86008 0.0
H369 H 0.31872 0.5098 0.92113 0.0
H370 H 0.23929 0.4891 0.85921 0.0
O371 O 0.35962 0.64246 0.87808 0.0
H372 H 0.51313 0.58901 0.8793 0.0
H373 H 0.43372 0.67265 0.84982 0.0
H374 H 0.4148 0.42999 0.86278 0.0
H375 H 0.15294 0.57575 0.90664 0.0
H376 H 0.3251 0.4016 0.86362 0.0
H377 H 0.16681 0.54734 0.95673 0.0
O378 O 0.38557 0.53353 0.82313 0.0
H379 H 0.28814 0.65874 0.77451 0.0
H380 H 0.47098 0.61518 0.80212 0.0
H381 H 0.45635 0.63736 0.74954 0.0
H382 H 0.36442 0.65946 0.73546 0.0
H383 H 0.30439 0.63592 0.82669 0.0
H384 H 0.52067 0.70197 0.85697 0.0
H385 H 0.60522 0.67429 0.87526 0.0
O386 O 0.44335 0.57127 0.83886 0.0
C387 C 0.41164 0.55774 0.90661 0.0
C388 C 0.56453 0.62969 0.87839 0.0
C389 C 0.5194 0.67717 0.86188 0.0
N390 N 0.46838 0.62909 0.86399 0.0
C391 C 0.51463 0.61374 0.87424 0.0
C392 C 0.47022 0.66045 0.85797 0.0
C393 C 0.56683 0.66162 0.87214 0.0
C394 C 0.22876 0.5584 0.8863 0.0
N395 N 0.27483 0.54027 0.89044 0.0
C396 C 0.18922 0.56123 0.91002 0.0
C397 C 0.19707 0.54533 0.93813 0.0
C398 C 0.2441 0.52683 0.94217 0.0
C399 C 0.28272 0.52452 0.91792 0.0
C400 C 0.27624 0.44366 0.8614 0.0
C401 C 0.37611 0.47538 0.86056 0.0
C402 C 0.27787 0.47625 0.8599 0.0
N403 N 0.32741 0.4917 0.8596 0.0
C404 C 0.37608 0.44278 0.86203 0.0
C405 C 0.32574 0.42687 0.86248 0.0
C406 C 0.43304 0.54666 0.82302 0.0
C407 C 0.32844 0.64928 0.78039 0.0
C408 C 0.43077 0.62456 0.79614 0.0
C409 C 0.42279 0.6372 0.76635 0.0
C410 C 0.37122 0.64962 0.75848 0.0
N411 N 0.38864 0.62434 0.81753 0.0
C412 C 0.33796 0.63645 0.80997 0.0
Co413 Co 0.18815 0.98424 0.85859 0.0
Co414 Co 0.12075 0.91421 0.85384 0.0
O415 O 0.18861 0.93899 0.85216 0.0
C416 C 0.25677 0.97571 0.80123 0.0
O417 O 0.21809 0.9574 0.78987 0.0
C418 C 0.15629 0.8621 0.89563 0.0
O419 O 0.11724 0.87044 0.91538 0.0
O420 O 0.10537 0.93047 0.89675 0.0
O421 O 0.12721 0.98111 0.8901 0.0
H422 H 0.91948 0.8954 0.87734 0.0
H423 H 0.29318 0.94869 0.86507 0.0
O424 O 0.25018 0.98866 0.82779 0.0
H425 H 0.26523 1.00081 0.96683 0.0
H426 H 0.27688 0.09 0.87076 0.0
H427 H 0.10031 0.03246 0.86468 0.0
H428 H 0.19817 1.00821 0.92395 0.0
H429 H 0.27637 0.03273 0.86433 0.0
O430 O 0.16517 0.87829 0.87107 0.0
H431 H 1.00528 0.92644 0.87415 0.0
H432 H 0.09251 0.84802 0.8381 0.0
H433 H 0.09894 0.08968 0.87133 0.0
H434 H 0.36171 0.94098 0.90721 0.0
H435 H 0.18769 0.11885 0.87442 0.0
H436 H 0.34787 0.9671 0.95855 0.0
O437 O 0.13192 0.98944 0.82475 0.0
H438 H 0.24094 0.86961 0.76866 0.0
H439 H 0.05428 0.90857 0.7951 0.0
H440 H 0.07379 0.8907 0.74138 0.0
H441 H 0.16765 0.87092 0.72788 0.0
H442 H 0.21989 0.88816 0.822 0.0
H443 H 1.00772 0.81606 0.84107 0.0
H444 H 0.92036 0.83976 0.86074 0.0
O445 O 0.07563 0.9493 0.8359 0.0
C446 C 0.10429 0.95903 0.9053 0.0
C447 C 0.95728 0.8848 0.86872 0.0
C448 C 1.0068 0.84027 0.84837 0.0
N449 N 0.05386 0.88909 0.85595 0.0
C450 C 1.006 0.90227 0.86685 0.0
C451 C 0.0547 0.85847 0.84679 0.0
C452 C 0.9578 0.85359 0.85941 0.0
C453 C 0.28711 0.96033 0.88726 0.0
N454 N 0.2419 0.97901 0.89196 0.0
C455 C 0.32595 0.9558 0.91107 0.0
C456 C 0.31814 0.97044 0.93988 0.0
C457 C 0.27179 0.98935 0.94454 0.0
C458 C 0.23388 0.99338 0.92019 0.0
C459 C 0.23794 0.07755 0.86949 0.0
C460 C 0.13912 0.04495 0.86615 0.0
C461 C 0.23738 0.04513 0.86576 0.0
N462 N 0.18836 0.02923 0.86428 0.0
C463 C 0.13807 0.07737 0.86985 0.0
C464 C 0.18788 0.09372 0.87155 0.0
C465 C 0.08534 0.97545 0.82257 0.0
C466 C 0.19983 0.87808 0.77428 0.0
C467 C 0.09533 0.90021 0.78939 0.0
C468 C 0.10607 0.89 0.75894 0.0
C469 C 0.15872 0.87887 0.7514 0.0
N470 N 0.13584 0.89932 0.81174 0.0
C471 C 0.18758 0.88847 0.80449 0.0
C472 C 0.35804 0.52431 0.2941 0.0
C473 C 0.31492 0.54246 0.28147 0.0
C474 C 0.40534 0.51692 0.27651 0.0
C475 C 0.41005 0.52796 0.24542 0.0
C476 C 0.36781 0.54733 0.23287 0.0
C477 C 0.32067 0.55434 0.25105 0.0
C478 C 0.44921 0.49614 0.29083 0.0
C479 C 0.37143 0.55964 0.19985 0.0
C480 C 0.55245 0.51951 0.20731 0.0
C481 C 0.54649 0.49119 0.19106 0.0
C482 C 0.50793 0.53239 0.22438 0.0
C483 C 0.45642 0.51652 0.22532 0.0
C484 C 0.44999 0.48826 0.20854 0.0
C485 C 0.49483 0.47605 0.19165 0.0
C486 C 0.51627 0.56265 0.24187 0.0
C487 C 0.39597 0.47043 0.20898 0.0
H488 H 0.35451 0.51525 0.3177 0.0
H489 H 0.28782 0.56853 0.24115 0.0
H490 H 0.45047 0.47348 0.27822 0.0
H491 H 0.49069 0.50701 0.28843 0.0
H492 H 0.44137 0.49144 0.31602 0.0
H493 H 0.33833 0.57696 0.19468 0.0
H494 H 0.41234 0.57073 0.19578 0.0
H495 H 0.36767 0.53998 0.18306 0.0
H496 H 0.59191 0.53157 0.20682 0.0
H497 H 0.48924 0.4543 0.17908 0.0
H498 H 0.51273 0.55842 0.26741 0.0
H499 H 0.48347 0.57967 0.23543 0.0
H500 H 0.55738 0.57325 0.23702 0.0
H501 H 0.38661 0.46271 0.2332 0.0
H502 H 0.397 0.44951 0.19358 0.0
H503 H 0.36144 0.48578 0.20134 0.0
C504 C 0.97179 1.00485 0.20912 0.0
C505 C 0.97849 0.03071 0.18927 0.0
C506 C 0.01702 0.99255 0.226 0.0
C507 C 0.07008 1.00643 0.22296 0.0
C508 C 0.07728 0.03195 0.20234 0.0
C509 C 0.03163 0.04371 0.18584 0.0
C510 C 1.00775 0.96525 0.24771 0.0
C511 C 0.13297 0.04758 0.19842 0.0
C512 C 0.17266 1.0042 0.29012 0.0
C513 C 0.2122 0.98244 0.27962 0.0
C514 C 0.12555 0.01138 0.27235 0.0
C515 C 0.1172 0.99638 0.24323 0.0
C516 C 0.15609 0.97381 0.23272 0.0
C517 C 0.20326 0.96714 0.25102 0.0
C518 C 0.08546 0.03575 0.2844 0.0
C519 C 0.14848 0.95726 0.20184 0.0
H520 H 0.93115 0.99444 0.21179 0.0
H521 H 0.03777 0.06352 0.17044 0.0
H522 H 0.03849 0.94654 0.24294 0.0
H523 H 0.01382 0.97286 0.27229 0.0
H524 H 0.96541 0.95536 0.2454 0.0
H525 H 0.13242 0.06586 0.17996 0.0
H526 H 0.14555 0.05859 0.22082 0.0
H527 H 0.16508 0.03001 0.19234 0.0
H528 H 0.17871 0.0161 0.31223 0.0
H529 H 0.23325 0.95013 0.2428 0.0
H530 H 0.04281 0.02615 0.28503 0.0
H531 H 0.085 0.05613 0.26834 0.0
H532 H 0.09643 0.04409 0.30823 0.0
H533 H 0.10656 0.94672 0.20058 0.0
H534 H 0.17989 0.93861 0.19814 0.0
H535 H 0.15172 0.97435 0.18241 0.0
C536 C 0.81939 0.4674 0.24988 0.0
C537 C 0.81307 0.47973 0.21967 0.0
C538 C 0.86626 0.47472 0.26815 0.0
C539 C 0.90751 0.4949 0.25592 0.0
C540 C 0.902 0.50662 0.22514 0.0
C541 C 0.85516 0.49884 0.20744 0.0
C542 C 0.8709 0.4616 0.30082 0.0
C543 C 0.94471 0.52834 0.21119 0.0
C544 C 0.99333 0.54606 0.30973 0.0
C545 C 0.04548 0.5314 0.30888 0.0
C546 C 0.94786 0.53382 0.29346 0.0
C547 C 0.95421 0.50603 0.27587 0.0
C548 C 1.00624 0.49059 0.27546 0.0
C549 C 0.05133 0.5035 0.29189 0.0
C550 C 0.89332 0.5512 0.29441 0.0
C551 C 0.01454 0.46081 0.25712 0.0
H552 H 0.78737 0.45247 0.25947 0.0
H553 H 0.85124 0.50829 0.18403 0.0
H554 H 0.91206 0.45052 0.30422 0.0
H555 H 0.86736 0.48082 0.31814 0.0
H556 H 0.83818 0.44407 0.30584 0.0
H557 H 0.93579 0.53409 0.18634 0.0
H558 H 0.94592 0.55044 0.22477 0.0
H559 H 0.98655 0.51766 0.21258 0.0
H560 H 0.98788 0.56747 0.32292 0.0
H561 H 0.09117 0.49177 0.29131 0.0
H562 H 0.85956 0.53532 0.30193 0.0
H563 H 0.88275 0.55971 0.27061 0.0
H564 H 0.89439 0.57156 0.31054 0.0
H565 H 0.98221 0.4435 0.26342 0.0
H566 H 0.05596 0.45024 0.26131 0.0
H567 H 0.01023 0.46568 0.23174 0.0
C568 C 0.70667 0.05432 0.25178 0.0
C569 C 0.70971 0.04542 0.22023 0.0
C570 C 0.65941 0.0474 0.2699 0.0
C571 C 0.61426 0.0313 0.25608 0.0
C572 C 0.61618 0.02367 0.22389 0.0
C573 C 0.66367 0.03081 0.20644 0.0
C574 C 0.65884 0.05603 0.30413 0.0
C575 C 0.56914 1.00651 0.20814 0.0
C576 C 0.52687 0.97612 0.30481 0.0
C577 C 0.47698 0.99277 0.30837 0.0
C578 C 0.57209 0.98884 0.28871 0.0
C579 C 0.56784 0.01913 0.27568 0.0
C580 C 0.51813 0.03643 0.27956 0.0
C581 C 0.47321 0.02304 0.29584 0.0
C582 C 0.62411 0.96945 0.28507 0.0
C583 C 0.51212 0.06883 0.26607 0.0
H584 H 0.74182 0.06577 0.26259 0.0
H585 H 0.66505 0.02423 0.18195 0.0
H586 H 0.61928 0.06773 0.31034 0.0
H587 H 0.66186 0.03451 0.31852 0.0
H588 H 0.69379 0.07168 0.31044 0.0
H589 H 0.57491 1.00477 0.1824 0.0
H590 H 0.56607 0.98252 0.21783 0.0
H591 H 0.52916 0.01844 0.21287 0.0
H592 H 0.53079 0.95282 0.31445 0.0
H593 H 0.43518 0.03626 0.29867 0.0
H594 H 0.66057 0.98263 0.29371 0.0
H595 H 0.63133 0.96433 0.25993 0.0
H596 H 0.62174 0.94693 0.29794 0.0
H597 H 0.54702 0.08381 0.2738 0.0
H598 H 0.4725 0.08011 0.27305 0.0
H599 H 0.51379 0.06765 0.24015 0.0
C600 C 0.47533 0.50242 0.79195 0.0
C601 C 0.47983 0.53225 0.8054 0.0
C602 C 0.52048 0.48865 0.77615 0.0
C603 C 0.57109 0.50523 0.77343 0.0
C604 C 0.5759 0.5352 0.78713 0.0
C605 C 0.53053 0.5482 0.80302 0.0
C606 C 0.5139 0.45651 0.76212 0.0
C607 C 0.62876 0.55391 0.78453 0.0
C608 C 0.70886 0.46717 0.75132 0.0
C609 C 0.71334 0.4754 0.71964 0.0
C610 C 0.66159 0.47544 0.76891 0.0
C611 C 0.61804 0.49249 0.75452 0.0
C612 C 0.6216 0.49985 0.72232 0.0
C613 C 0.66886 0.49112 0.70532 0.0
C614 C 0.65907 0.46689 0.80314 0.0
C615 C 0.57648 0.51818 0.70601 0.0
H616 H 0.43668 0.4897 0.79393 0.0
H617 H 0.53495 0.57114 0.81345 0.0
H618 H 0.51739 0.45793 0.73627 0.0
H619 H 0.54757 0.44089 0.77042 0.0
H620 H 0.47336 0.4458 0.76812 0.0
H621 H 0.62636 0.57647 0.79735 0.0
H622 H 0.66416 0.54026 0.79392 0.0
H623 H 0.63778 0.55888 0.75956 0.0
H624 H 0.74271 0.45486 0.76257 0.0
H625 H 0.67132 0.49734 0.68079 0.0
H626 H 0.6189 0.45557 0.80865 0.0
H627 H 0.6618 0.48838 0.81758 0.0
H628 H 0.69326 0.4509 0.81005 0.0
H629 H 0.53569 0.50683 0.70965 0.0
H630 H 0.58396 0.52038 0.68045 0.0
H631 H 0.57385 0.54199 0.7162 0.0
C632 C 0.85227 0.03347 0.70452 0.0
C633 C 0.80762 0.04892 0.71898 0.0
C634 C 0.89941 0.02458 0.72152 0.0
C635 C 0.9025 0.0314 0.75386 0.0
C636 C 0.85884 0.04826 0.76837 0.0
C637 C 0.81182 0.0568 0.75076 0.0
C638 C 0.9448 1.00658 0.70508 0.0
C639 C 0.86079 0.05615 0.80277 0.0
C640 C 0.98845 0.97443 0.80167 0.0
C641 C 0.03898 0.99037 0.80507 0.0
C642 C 0.94359 0.98786 0.78572 0.0
C643 C 0.94889 0.01815 0.7728 0.0
C644 C 0.99936 0.03466 0.77646 0.0
C645 C 0.04388 0.02056 0.79249 0.0
C646 C 0.89072 0.9693 0.78225 0.0
C647 C 1.00652 0.06705 0.76312 0.0
H648 H 0.84994 0.02753 0.6799 0.0
H649 H 0.77777 0.06886 0.76211 0.0
H650 H 0.98562 0.01763 0.70943 0.0
H651 H 0.94681 0.98246 0.71455 0.0
H652 H 0.93804 1.00517 0.6794 0.0
H653 H 0.82669 0.07216 0.80979 0.0
H654 H 0.85742 0.03439 0.81675 0.0
H655 H 0.90099 0.06717 0.80878 0.0
H656 H 0.98376 0.95119 0.81137 0.0
H657 H 0.08244 0.03323 0.79519 0.0
H658 H 0.88247 0.96481 0.7571 0.0
H659 H 0.8551 0.98285 0.79155 0.0
H660 H 0.89259 0.94651 0.79466 0.0
H661 H 1.00361 0.06614 0.73723 0.0
H662 H 0.04701 0.07754 0.76961 0.0
H663 H 0.97279 0.0826 0.77151 0.0
C664 C 0.19939 0.55961 0.75335 0.0
C665 C 0.2083 0.54515 0.78239 0.0
C666 C 0.15147 0.55319 0.73566 0.0
C667 C 0.11172 0.53174 0.74726 0.0
C668 C 0.11937 0.51825 0.77718 0.0
C669 C 0.16735 0.52513 0.79433 0.0
C670 C 0.1447 0.5682 0.70394 0.0
C671 C 0.07832 0.49513 0.79043 0.0
C672 C 0.96962 0.51932 0.70971 0.0
C673 C 0.97941 0.49241 0.69173 0.0
C674 C 0.01268 0.53324 0.72716 0.0
C675 C 0.06653 0.51986 0.72664 0.0
C676 C 0.07679 0.49326 0.70788 0.0
C677 C 0.03343 0.48002 0.69073 0.0
C678 C 1.00032 0.56174 0.74674 0.0
C679 C 0.13336 0.47805 0.70663 0.0
H680 H 0.23043 0.57537 0.74405 0.0
H681 H 0.17327 0.5141 0.81692 0.0
H682 H 0.15104 0.55037 0.68542 0.0
H683 H 0.10208 0.57757 0.70116 0.0
H684 H 0.17482 0.58744 0.70016 0.0
H685 H 0.0874 0.48913 0.8152 0.0
H686 H 0.0356 0.50461 0.789 0.0
H687 H 0.07942 0.47331 0.7764 0.0
H688 H 0.92828 0.52924 0.71051 0.0
H689 H 0.04211 0.45943 0.67681 0.0
H690 H 0.031 0.58039 0.74186 0.0
H691 H 1.00392 0.55574 0.77192 0.0
H692 H 0.95803 0.57106 0.74236 0.0
H693 H 0.16522 0.49546 0.69991 0.0
H694 H 0.13507 0.45833 0.68974 0.0
H695 H 0.14458 0.46904 0.73014 0.0
C696 C 0.34907 1.00173 0.79607 0.0
C697 C 0.30863 0.98176 0.7835 0.0
C698 C 0.39721 1.00918 0.77928 0.0
C699 C 0.4055 0.99631 0.74913 0.0
C700 C 0.36608 0.97509 0.7368 0.0
C701 C 0.31801 0.96811 0.75411 0.0
C702 C 0.43791 0.03205 0.79325 0.0
C703 C 0.37355 0.96079 0.70479 0.0
C704 C 0.48639 0.04768 0.69338 0.0
C705 C 0.53979 0.03449 0.69431 0.0
C706 C 0.44248 0.03502 0.71055 0.0
C707 C 0.45158 1.00823 0.7292 0.0
C708 C 0.50493 0.99426 0.7299 0.0
C709 C 0.54855 1.00761 0.71247 0.0
C710 C 0.38644 0.05084 0.70918 0.0
C711 C 0.51604 0.96554 0.74938 0.0
H712 H 0.34265 0.0122 0.81888 0.0
H713 H 0.28735 0.95241 0.74433 0.0
H714 H 0.48062 0.02248 0.79214 0.0
H715 H 0.43747 0.05404 0.77949 0.0
H716 H 0.42804 0.03776 0.818 0.0
H717 H 0.34294 0.94198 0.70014 0.0
H718 H 0.36862 0.97912 0.68664 0.0
H719 H 0.41593 0.951 0.7023 0.0
H720 H 0.4786 0.06829 0.67933 0.0
H721 H 0.58941 0.99708 0.71319 0.0
H722 H 0.37479 0.05942 0.73279 0.0
H723 H 0.35428 0.03389 0.70178 0.0
H724 H 0.38583 0.07094 0.69272 0.0
H725 H 0.51051 0.97117 0.77454 0.0
H726 H 0.55863 0.9563 0.74585 0.0
H727 H 0.48582 0.94692 0.74351 0.0
C728 C 0.1016 0.54929 0.46712 0.0
C729 C 0.08686 0.54207 0.43632 0.0
C730 C 0.07502 0.53454 0.49242 0.0
C731 C 0.03184 0.51282 0.48657 0.0
C732 C 0.01627 0.50607 0.45536 0.0
C733 C 0.04461 0.52042 0.43062 0.0
C734 C 0.09353 0.54184 0.52535 0.0
C735 C 0.96936 0.4839 0.44809 0.0
C736 C 0.98621 0.45547 0.54986 0.0
C737 C 0.94147 0.47153 0.56336 0.0
C738 C 0.01661 0.46875 0.52506 0.0
C739 C 1.00094 0.49836 0.51303 0.0
C740 C 0.95497 0.51422 0.52601 0.0
C741 C 0.92645 0.50087 0.5512 0.0
C742 C 0.06611 0.45142 0.51215 0.0
C743 C 0.93593 0.54545 0.51343 0.0
H744 H 0.13508 0.56563 0.47133 0.0
H745 H 0.0336 0.51484 0.40665 0.0
H746 H 0.05894 0.55257 0.53867 0.0
H747 H 0.10517 0.51994 0.53761 0.0
H748 H 0.12945 0.55805 0.52585 0.0
H749 H 0.96212 0.48144 0.42253 0.0
H750 H 0.97839 0.46048 0.45796 0.0
H751 H 0.93057 0.49237 0.45921 0.0
H752 H 0.99852 0.43298 0.55923 0.0
H753 H 0.89244 0.51376 0.56151 0.0
H754 H 0.10371 0.46619 0.51416 0.0
H755 H 0.0599 0.44644 0.48692 0.0
H756 H 0.07371 0.429 0.52455 0.0
H757 H 0.96916 0.56308 0.51642 0.0
H758 H 0.89797 0.55412 0.52535 0.0
H759 H 0.92733 0.5436 0.48798 0.0
C760 C 0.49127 0.97216 0.44076 0.0
C761 C 0.43368 0.975 0.43802 0.0
C762 C 0.51985 0.98677 0.46541 0.0
C763 C 0.48985 1.00413 0.48806 0.0
C764 C 0.43142 1.00611 0.4859 0.0
C765 C 0.40416 0.9917 0.46078 0.0
C766 C 0.58222 0.98427 0.4668 0.0
C767 C 0.3977 0.02364 0.50999 0.0
C768 C 0.55685 0.01619 0.56731 0.0
C769 C 0.57465 0.04739 0.56567 0.0
C770 C 0.52904 1.002 0.54235 0.0
C771 C 0.51924 0.01924 0.5147 0.0
C772 C 0.53682 0.05082 0.5128 0.0
C773 C 0.56391 0.06467 0.5385 0.0
C774 C 0.50999 0.96854 0.54567 0.0
C775 C 0.52754 0.0698 0.4835 0.0
H776 H 0.51425 0.95966 0.42297 0.0
H777 H 0.35959 0.99356 0.4589 0.0
H778 H 0.6008 1.00796 0.46598 0.0
H779 H 0.59511 0.97342 0.48923 0.0
H780 H 0.59941 0.97019 0.44721 0.0
H781 H 0.35252 0.02263 0.50509 0.0
H782 H 0.40535 0.01375 0.5336 0.0
H783 H 0.4106 0.0485 0.51063 0.0
H784 H 0.56423 1.00273 0.58839 0.0
H785 H 0.57773 0.08872 0.53707 0.0
H786 H 0.52955 0.95382 0.52737 0.0
H787 H 0.46447 0.96716 0.54225 0.0
H788 H 0.52028 0.95853 0.56895 0.0
H789 H 0.54756 0.05807 0.46327 0.0
H790 H 0.54437 0.09386 0.48556 0.0
H791 H 0.48257 0.07132 0.47833 0.0
C792 C 0.59996 0.50891 0.05147 0.0
C793 C 0.58969 0.4782 0.06157 0.0
C794 C 0.57159 0.52185 0.026 0.0
C795 C 0.53053 0.50407 0.01061 0.0
C796 C 0.51946 0.47312 0.02067 0.0
C797 C 0.54966 0.4604 0.04583 0.0
C798 C 0.58553 0.55468 0.01564 0.0
C799 C 0.47513 0.45368 0.00518 0.0
C800 C 0.42438 0.55061 0.96394 0.0
C801 C 0.44363 0.54623 0.9334 0.0
C802 C 0.45158 0.53641 0.98933 0.0
C803 C 0.49961 0.51803 0.98388 0.0
C804 C 0.51948 0.51405 0.95294 0.0
C805 C 0.49069 0.52786 0.92801 0.0
C806 C 0.42855 0.5407 0.02191 0.0
C807 C 0.57123 0.49534 0.94618 0.0
H808 H 0.63016 0.52315 0.06357 0.0
H809 H 0.54092 0.43682 0.05363 0.0
H810 H 0.59726 0.55473 0.99053 0.0
H811 H 0.54867 0.56999 0.01818 0.0
H812 H 0.62011 0.56494 0.02937 0.0
H813 H 0.4707 0.43031 0.01621 0.0
H814 H 0.43469 0.46601 0.0065 0.0
H815 H 0.48497 0.45045 0.98003 0.0
H816 H 0.38715 0.56432 0.9678 0.0
H817 H 0.50489 0.52432 0.90417 0.0
H818 H 0.45947 0.55265 0.0369 0.0
H819 H 0.42014 0.51758 0.03264 0.0
H820 H 0.38964 0.55462 0.02201 0.0
H821 H 0.60688 0.50543 0.95908 0.0
H822 H 0.58147 0.49484 0.92083 0.0
H823 H 0.56599 0.47097 0.95447 0.0
C824 C 0.01788 0.97959 0.92855 0.0
C825 C 0.07173 0.96822 0.93274 0.0
C826 C 0.98897 0.99353 0.95341 0.0
C827 C 0.01502 0.99644 0.98298 0.0
C828 C 0.06941 0.98458 0.9873 0.0
C829 C 0.09725 0.97066 0.96199 0.0
C830 C 0.93107 1.00576 0.94787 0.0
C831 C 0.09857 0.98723 0.01843 0.0
C832 C 0.96075 0.0575 0.04035 0.0
C833 C 0.92877 0.03908 0.06062 0.0
C834 C 0.98903 0.04398 0.01488 0.0
C835 C 0.98499 0.01135 0.00953 0.0
C836 C 0.9523 0.99278 0.02965 0.0
C837 C 0.92483 1.00679 0.05489 0.0
C838 C 0.02371 0.06452 0.99391 0.0
C839 C 0.94668 0.95796 0.02471 0.0
H840 H 0.99903 0.97836 0.90554 0.0
H841 H 0.13956 0.96252 0.96477 0.0
H842 H 0.90176 0.99483 0.9646 0.0
H843 H 0.92988 0.03134 0.95206 0.0
H844 H 0.91638 1.0011 0.92368 0.0
H845 H 0.14064 0.97665 0.01795 0.0
H846 H 0.10238 0.01218 0.02514 0.0
H847 H 0.07385 0.97551 0.0369 0.0
H848 H 0.96439 0.08238 0.04463 0.0
H849 H 0.90051 0.99216 0.07035 0.0
H850 H 1.00901 0.06265 0.96938 0.0
H851 H 0.06746 0.05651 0.99428 0.0
H852 H 0.02231 0.08946 0.00108 0.0
H853 H 0.92996 0.95319 0.001 0.0
H854 H 0.91899 0.94688 0.04226 0.0
H855 H 0.98802 0.94666 0.02612 0.0
C856 C 0.27928 0.69189 0.37585 0.0
C857 C 0.23521 0.67892 0.39277 0.0
C858 C 0.29056 0.72408 0.37722 0.0
C859 C 0.25829 0.74362 0.39691 0.0
C860 C 0.21553 0.73027 0.4153 0.0
C861 C 0.20367 0.6982 0.41246 0.0
C862 C 0.33517 0.73741 0.35634 0.0
C863 C 0.18151 0.74997 0.43746 0.0
C864 C 0.32104 0.82387 0.41246 0.0
C865 C 0.29032 0.84283 0.3921 0.0
C866 C 0.30909 0.79184 0.41558 0.0
C867 C 0.26728 0.77819 0.39672 0.0
C868 C 0.23596 0.79741 0.37626 0.0
C869 C 0.24717 0.8296 0.37467 0.0
C870 C 0.34197 0.77249 0.43856 0.0
C871 C 0.19249 0.78375 0.35485 0.0
H872 H 0.30306 0.67713 0.36016 0.0
H873 H 0.16945 0.6882 0.42549 0.0
H874 H 0.31657 0.7545 0.33985 0.0
H875 H 0.3663 0.75014 0.3705 0.0
H876 H 0.35682 0.71905 0.34256 0.0
H877 H 0.15456 0.73552 0.45277 0.0
H878 H 0.20906 0.7644 0.45241 0.0
H879 H 0.15484 0.76622 0.42396 0.0
H880 H 0.35462 0.83412 0.42582 0.0
H881 H 0.22416 0.84415 0.35845 0.0
H882 H 0.36932 0.75604 0.42573 0.0
H883 H 0.31366 0.7583 0.45328 0.0
H884 H 0.36812 0.7872 0.45406 0.0
H885 H 0.21195 0.76637 0.33897 0.0
H886 H 0.17166 0.80188 0.34041 0.0
H887 H 0.16057 0.77129 0.36869 0.0
C888 C 0.74655 0.19153 0.12284 0.0
C889 C 0.78977 0.17844 0.10526 0.0
C890 C 0.73506 0.2237 0.12149 0.0
C891 C 0.76617 0.24309 0.10114 0.0
C892 C 0.80806 0.22962 0.08213 0.0
C893 C 0.82025 0.19757 0.08498 0.0
C894 C 0.69149 0.23716 0.14303 0.0
C895 C 0.84074 0.24918 0.05928 0.0
C896 C 0.70157 0.32307 0.08638 0.0
C897 C 0.73297 0.34216 0.10623 0.0
C898 C 0.71388 0.29108 0.0831 0.0
C899 C 0.7569 0.27762 0.10126 0.0
C900 C 0.789 0.29699 0.12114 0.0
C901 C 0.77731 0.32912 0.12291 0.0
C902 C 0.68008 0.27157 0.06074 0.0
C903 C 0.83383 0.28351 0.14182 0.0
H904 H 0.72364 0.17687 0.13898 0.0
H905 H 0.85382 0.18745 0.07145 0.0
H906 H 0.7108 0.25446 0.15901 0.0
H907 H 0.65942 0.24968 0.12931 0.0
H908 H 0.67085 0.21892 0.15737 0.0
H909 H 0.86702 0.23462 0.04364 0.0
H910 H 0.8123 0.26345 0.04469 0.0
H911 H 0.86795 0.26556 0.07221 0.0
H912 H 0.66717 0.33317 0.07354 0.0
H913 H 0.80096 0.34377 0.13871 0.0
H914 H 0.65354 0.25516 0.07408 0.0
H915 H 0.70778 0.25733 0.04565 0.0
H916 H 0.65302 0.28616 0.04559 0.0
H917 H 0.81545 0.26624 0.15817 0.0
H918 H 0.85533 0.30176 0.15574 0.0
H919 H 0.86503 0.27097 0.12748 0.0
C920 C 0.68225 0.20863 0.61266 0.0
C921 C 0.70729 0.18336 0.59706 0.0
C922 C 0.70328 0.23904 0.61018 0.0
C923 C 0.7506 0.24467 0.59147 0.0
C924 C 0.77489 0.2196 0.57458 0.0
C925 C 0.75305 0.18919 0.57764 0.0
C926 C 0.67615 0.26493 0.62878 0.0
C927 C 0.82513 0.22469 0.5542 0.0
C928 C 0.7808 0.3308 0.57554 0.0
C929 C 0.81895 0.33768 0.59935 0.0
C930 C 0.7599 0.30028 0.57169 0.0
C931 C 0.77723 0.27617 0.59226 0.0
C932 C 0.8168 0.28286 0.61576 0.0
C933 C 0.83716 0.31337 0.61894 0.0
C934 C 0.71806 0.29404 0.54622 0.0
C935 C 0.83616 0.25803 0.63841 0.0
H936 H 0.64672 0.20461 0.62762 0.0
H937 H 0.77261 0.16992 0.56539 0.0
H938 H 0.70528 0.27348 0.64694 0.0
H939 H 0.66615 0.28498 0.61333 0.0
H940 H 0.63746 0.25715 0.64051 0.0
H941 H 0.83542 0.20372 0.54 0.0
H942 H 0.81824 0.24478 0.53824 0.0
H943 H 0.86136 0.23046 0.56908 0.0
H944 H 0.76664 0.34932 0.56019 0.0
H945 H 0.86668 0.31824 0.63741 0.0
H946 H 0.67725 0.28864 0.55687 0.0
H947 H 0.73069 0.27336 0.53225 0.0
H948 H 0.71298 0.31433 0.53027 0.0
H949 H 0.80082 0.25023 0.65307 0.0
H950 H 0.86959 0.26654 0.65412 0.0
H951 H 0.85166 0.2373 0.62549 0.0
C952 C 0.32694 0.70098 0.90448 0.0
C953 C 0.29117 0.67555 0.90004 0.0
C954 C 0.30633 0.73157 0.90732 0.0
C955 C 0.24861 0.73703 0.90467 0.0
C956 C 0.21216 0.71131 0.90108 0.0
C957 C 0.23385 0.68082 0.89923 0.0
C958 C 0.34655 0.75815 0.91198 0.0
C959 C 0.15051 0.71614 0.89742 0.0
C960 C 0.18535 0.81561 0.92768 0.0
C961 C 0.1834 0.83109 0.89877 0.0
C962 C 0.20762 0.78526 0.93018 0.0
C963 C 0.22695 0.76972 0.90297 0.0
C964 C 0.22522 0.78535 0.87377 0.0
C965 C 0.20417 0.8159 0.8721 0.0
C966 C 0.21016 0.76974 0.96186 0.0
C967 C 0.24438 0.76951 0.84405 0.0
H968 H 0.37132 0.69698 0.90527 0.0
H969 H 0.20611 0.66127 0.89548 0.0
H970 H 0.34819 0.77268 0.8905 0.0
H971 H 0.3325 0.77346 0.9314 0.0
H972 H 0.38912 0.74971 0.91723 0.0
H973 H 0.12749 0.69369 0.89662 0.0
H974 H 0.13407 0.73041 0.917 0.0
H975 H 0.1422 0.72917 0.87546 0.0
H976 H 0.16945 0.82722 0.94838 0.0
H977 H 0.20224 0.8275 0.84957 0.0
H978 H 0.25317 0.76199 0.96686 0.0
H979 H 0.18362 0.74861 0.96199 0.0
H980 H 0.19626 0.78555 0.98095 0.0
H981 H 0.28865 0.76282 0.8461 0.0
H982 H 0.23942 0.78469 0.82315 0.0
H983 H 0.22041 0.74772 0.84029 0.0
loop_
_geom_bond_atom_site_label_1
_geom_bond_atom_site_label_2
_geom_bond_distance
_geom_bond_site_symmetry_2
_ccdc_geom_bond_type
Co0 O2 2.143 . S
Co0 O8 2.074 . S
Co0 O11 2.093 . S
Co0 O24 2.097 . S
Co0 N41 2.151 . S
Co0 N49 2.214 . S
Co1 O2 2.160 . S
Co1 O7 2.058 . S
Co1 O17 2.057 . S
Co1 O32 2.037 . S
Co1 N36 2.145 . S
Co1 N57 2.257 . S
O2 Co0 2.143 . S
O2 Co1 2.160 . S
C3 O4 1.278 . S
C3 O11 1.224 . S
O4 C3 1.278 . S
C5 O6 1.245 . S
C5 O17 1.232 . S
O6 C5 1.245 . S
O7 Co1 2.058 . S
O7 C33 1.269 . S
O8 Co0 2.074 . S
O8 C33 1.257 . S
H9 C34 0.930 . S
H10 C40 0.930 . S
O11 Co0 2.093 . S
O11 C3 1.224 . S
H12 C44 0.929 . S
H13 C46 0.930 . S
H14 C47 0.930 . S
H15 C45 0.929 . S
H16 C48 0.928 . S
O17 Co1 2.057 . S
O17 C5 1.232 . S
H18 C37 0.929 . S
H19 C38 0.929 . S
H20 C50 0.931 . S
H21 C42 0.929 . S
H22 C51 0.930 . S
H23 C43 0.931 . S
O24 Co0 2.097 . S
O24 C52 1.214 . S
H25 C53 0.929 . S
H26 C54 0.929 . S
H27 C55 0.930 . S
H28 C56 0.929 . S
H29 C58 0.930 . S
H30 C35 0.930 . S
H31 C39 0.930 . S
O32 Co1 2.037 . S
O32 C52 1.234 . S
C33 O7 1.269 . S
C33 O8 1.257 . S
C34 H9 0.930 . S
C34 C37 1.388 . S
C34 C39 1.418 . S
C35 H30 0.930 . S
C35 C38 1.404 1_655 S
C35 C39 1.353 . S
N36 Co1 2.145 . S
N36 C37 1.397 1_455 S
N36 C38 1.334 . S
C37 H18 0.929 . S
C37 C34 1.388 . S
C37 N36 1.397 1_655 S
C38 H19 0.929 . S
C38 C35 1.404 1_455 S
C38 N36 1.334 . S
C39 H31 0.930 . S
C39 C34 1.418 . S
C39 C35 1.353 . S
C40 H10 0.930 . S
C40 N41 1.330 . S
C40 C42 1.446 . S
N41 Co0 2.151 . S
N41 C40 1.330 . S
N41 C45 1.418 . S
C42 H21 0.929 . S
C42 C40 1.446 . S
C42 C43 1.332 . S
C43 H23 0.931 . S
C43 C42 1.332 . S
C43 C44 1.267 . S
C44 H12 0.929 . S
C44 C43 1.267 . S
C44 C45 1.251 . S
C45 H15 0.929 . S
C45 N41 1.418 . S
C45 C44 1.251 . S
C46 H13 0.930 . S
C46 C48 1.406 . S
C46 C51 1.261 . S
C47 H14 0.930 . S
C47 N49 1.325 . S
C47 C50 1.357 . S
C48 H16 0.928 . S
C48 C46 1.406 . S
C48 N49 1.261 . S
N49 Co0 2.214 . S
N49 C47 1.325 . S
N49 C48 1.261 . S
C50 H20 0.931 . S
C50 C47 1.357 . S
C50 C51 1.312 . S
C51 H22 0.930 . S
C51 C46 1.261 . S
C51 C50 1.312 . S
C52 O24 1.214 . S
C52 O32 1.234 . S
C53 H25 0.929 . S
C53 C56 1.391 . S
C53 C58 1.391 . S
C54 H26 0.929 . S
C54 C55 1.390 . S
C54 N57 1.391 . S
C55 H27 0.930 . S
C55 C54 1.390 . S
C55 C56 1.392 . S
C56 H28 0.929 . S
C56 C53 1.391 . S
C56 C55 1.392 . S
N57 Co1 2.257 . S
N57 C54 1.391 . S
N57 C58 1.388 . S
C58 H29 0.930 . S
C58 C53 1.391 . S
C58 N57 1.388 . S
Co59 O61 2.143 . S
Co59 O67 2.074 . S
Co59 O70 2.093 . S
Co59 O83 2.097 . S
Co59 N100 2.151 . S
Co59 N108 2.214 1_565 S
Co60 O61 2.160 . S
Co60 O66 2.058 . S
Co60 O76 2.057 . S
Co60 O91 2.037 . S
Co60 N95 2.145 . S
Co60 N116 2.257 . S
O61 Co59 2.143 . S
O61 Co60 2.160 . S
C62 O63 1.278 . S
C62 O70 1.224 . S
O63 C62 1.278 . S
C64 O65 1.245 . S
C64 O76 1.232 . S
O65 C64 1.245 . S
O66 Co60 2.058 . S
O66 C92 1.269 . S
O67 Co59 2.074 . S
O67 C92 1.257 . S
H68 C93 0.930 . S
H69 C99 0.930 . S
O70 Co59 2.093 . S
O70 C62 1.224 . S
H71 C103 0.939 . S
H72 C105 0.930 . S
H73 C106 0.930 . S
H74 C104 0.929 1_545 S
H75 C107 0.928 . S
O76 Co60 2.057 . S
O76 C64 1.232 . S
H77 C96 0.929 . S
H78 C97 0.929 . S
H79 C109 0.931 . S
H80 C101 0.929 . S
H81 C110 0.930 . S
H82 C102 0.931 . S
O83 Co59 2.097 . S
O83 C111 1.214 . S
H84 C112 0.929 . S
H85 C113 0.929 . S
H86 C114 0.930 . S
H87 C115 0.929 . S
H88 C117 0.930 . S
H89 C94 0.930 . S
H90 C98 0.930 . S
O91 Co60 2.037 . S
O91 C111 1.234 . S
C92 O66 1.269 . S
C92 O67 1.257 . S
C93 H68 0.930 . S
C93 C96 1.388 . S
C93 C98 1.418 . S
C94 H89 0.930 . S
C94 C97 1.404 . S
C94 C98 1.353 . S
N95 Co60 2.145 . S
N95 C96 1.397 . S
N95 C97 1.334 . S
C96 H77 0.929 . S
C96 C93 1.388 . S
C96 N95 1.397 . S
C97 H78 0.929 . S
C97 C94 1.404 . S
C97 N95 1.334 . S
C98 H90 0.930 . S
C98 C93 1.418 . S
C98 C94 1.353 . S
C99 H69 0.930 . S
C99 N100 1.330 . S
C99 C101 1.446 . S
N100 Co59 2.151 . S
N100 C99 1.330 . S
N100 C104 1.418 . S
C101 H80 0.929 . S
C101 C99 1.446 . S
C101 C102 1.332 . S
C102 H82 0.931 . S
C102 C101 1.332 . S
C102 C103 1.259 1_565 S
C103 H71 0.939 . S
C103 C102 1.259 1_545 S
C103 C104 1.249 1_545 S
C104 H74 0.929 1_565 S
C104 N100 1.418 . S
C104 C103 1.249 1_565 S
C105 H72 0.930 . S
C105 C107 1.406 . S
C105 C110 1.261 . S
C106 H73 0.930 . S
C106 N108 1.325 . S
C106 C109 1.357 . S
C107 H75 0.928 . S
C107 C105 1.406 . S
C107 N108 1.261 . S
N108 Co59 2.214 1_545 S
N108 C106 1.325 . S
N108 C107 1.261 . S
C109 H79 0.931 . S
C109 C106 1.357 . S
C109 C110 1.312 . S
C110 H81 0.930 . S
C110 C105 1.261 . S
C110 C109 1.312 . S
C111 O83 1.214 . S
C111 O91 1.234 . S
C112 H84 0.929 . S
C112 C115 1.391 . S
C112 C117 1.391 . S
C113 H85 0.929 . S
C113 C114 1.390 . S
C113 N116 1.391 . S
C114 H86 0.930 . S
C114 C113 1.390 . S
C114 C115 1.392 . S
C115 H87 0.929 . S
C115 C112 1.391 . S
C115 C114 1.392 . S
N116 Co60 2.257 . S
N116 C113 1.391 . S
N116 C117 1.388 . S
C117 H88 0.930 . S
C117 C112 1.391 . S
C117 N116 1.388 . S
Co118 O120 2.143 . S
Co118 O126 2.074 . S
Co118 O129 2.093 . S
Co118 O142 2.097 . S
Co118 N159 2.151 . S
Co118 N167 2.214 . S
Co119 O120 2.160 . S
Co119 O125 2.058 . S
Co119 O135 2.057 . S
Co119 O150 2.037 . S
Co119 N154 2.145 . S
Co119 N175 2.257 . S
O120 Co118 2.143 . S
O120 Co119 2.160 . S
C121 O122 1.278 . S
C121 O129 1.224 . S
O122 C121 1.278 . S
C123 O124 1.245 . S
C123 O135 1.232 . S
O124 C123 1.245 . S
O125 Co119 2.058 . S
O125 C151 1.269 . S
O126 Co118 2.074 . S
O126 C151 1.257 . S
H127 C152 0.930 . S
H128 C158 0.930 . S
O129 Co118 2.093 . S
O129 C121 1.224 . S
H130 C162 0.929 . S
H131 C164 0.930 . S
H132 C165 0.930 . S
H133 C163 0.929 . S
H134 C166 0.928 . S
O135 Co119 2.057 . S
O135 C123 1.232 . S
H136 C155 0.929 . S
H137 C156 0.929 . S
H138 C168 0.931 . S
H139 C160 0.929 . S
H140 C169 0.930 . S
H141 C161 0.931 . S
O142 Co118 2.097 . S
O142 C170 1.214 . S
H143 C171 0.929 . S
H144 C172 0.929 . S
H145 C173 0.930 . S
H146 C174 0.929 . S
H147 C176 0.930 . S
H148 C153 0.930 . S
H149 C157 0.930 . S
O150 Co119 2.037 . S
O150 C170 1.234 . S
C151 O125 1.269 . S
C151 O126 1.257 . S
C152 H127 0.930 . S
C152 C155 1.388 . S
C152 C157 1.418 . S
C153 H148 0.930 . S
C153 C156 1.404 . S
C153 C157 1.353 . S
N154 Co119 2.145 . S
N154 C155 1.397 . S
N154 C156 1.334 . S
C155 H136 0.929 . S
C155 C152 1.388 . S
C155 N154 1.397 . S
C156 H137 0.929 . S
C156 C153 1.404 . S
C156 N154 1.334 . S
C157 H149 0.930 . S
C157 C152 1.418 . S
C157 C153 1.353 . S
C158 H128 0.930 . S
C158 N159 1.330 . S
C158 C160 1.446 . S
N159 Co118 2.151 . S
N159 C158 1.330 . S
N159 C163 1.418 . S
C160 H139 0.929 . S
C160 C158 1.446 . S
C160 C161 1.332 . S
C161 H141 0.931 . S
C161 C160 1.332 . S
C161 C162 1.267 . S
C162 H130 0.929 . S
C162 C161 1.267 . S
C162 C163 1.251 . S
C163 H133 0.929 . S
C163 N159 1.418 . S
C163 C162 1.251 . S
C164 H131 0.930 . S
C164 C166 1.406 . S
C164 C169 1.261 . S
C165 H132 0.930 . S
C165 N167 1.325 . S
C165 C168 1.357 . S
C166 H134 0.928 . S
C166 C164 1.406 . S
C166 N167 1.261 . S
N167 Co118 2.214 . S
N167 C165 1.325 . S
N167 C166 1.261 . S
C168 H138 0.931 . S
C168 C165 1.357 . S
C168 C169 1.312 . S
C169 H140 0.930 . S
C169 C164 1.261 . S
C169 C168 1.312 . S
C170 O142 1.214 . S
C170 O150 1.234 . S
C171 H143 0.929 . S
C171 C174 1.391 . S
C171 C176 1.391 . S
C172 H144 0.929 . S
C172 C173 1.390 . S
C172 N175 1.391 . S
C173 H145 0.930 . S
C173 C172 1.390 . S
C173 C174 1.392 . S
C174 H146 0.929 . S
C174 C171 1.391 . S
C174 C173 1.392 . S
N175 Co119 2.257 . S
N175 C172 1.391 . S
N175 C176 1.388 . S
C176 H147 0.930 . S
C176 C171 1.391 . S
C176 N175 1.388 . S
Co177 O179 2.143 . S
Co177 O185 2.074 . S
Co177 O188 2.093 . S
Co177 O201 2.097 . S
Co177 N218 2.151 . S
Co177 N226 2.214 1_545 S
Co178 O179 2.160 . S
Co178 O184 2.058 . S
Co178 O194 2.057 . S
Co178 O209 2.037 . S
Co178 N213 2.145 . S
Co178 N234 2.257 . S
O179 Co177 2.143 . S
O179 Co178 2.160 . S
C180 O181 1.278 . S
C180 O188 1.224 . S
O181 C180 1.278 . S
C182 O183 1.245 . S
C182 O194 1.232 . S
O183 C182 1.245 . S
O184 Co178 2.058 . S
O184 C210 1.269 . S
O185 Co177 2.074 . S
O185 C210 1.257 . S
H186 C211 0.930 . S
H187 C217 0.930 . S
O188 Co177 2.093 . S
O188 C180 1.224 . S
H189 C221 0.939 . S
H190 C223 0.930 . S
H191 C224 0.930 . S
H192 C222 0.929 1_565 S
H193 C225 0.928 . S
O194 Co178 2.057 . S
O194 C182 1.232 . S
H195 C214 0.929 . S
H196 C215 0.929 . S
H197 C227 0.931 . S
H198 C219 0.929 . S
H199 C228 0.930 . S
H200 C220 0.931 . S
O201 Co177 2.097 . S
O201 C229 1.214 . S
H202 C230 0.929 . S
H203 C231 0.929 . S
H204 C232 0.930 . S
H205 C233 0.929 . S
H206 C235 0.930 . S
H207 C212 0.930 . S
H208 C216 0.930 . S
O209 Co178 2.037 . S
O209 C229 1.234 . S
C210 O184 1.269 . S
C210 O185 1.257 . S
C211 H186 0.930 . S
C211 C214 1.388 . S
C211 C216 1.418 . S
C212 H207 0.930 . S
C212 C215 1.404 1_455 S
C212 C216 1.353 . S
N213 Co178 2.145 . S
N213 C214 1.397 1_655 S
N213 C215 1.334 . S
C214 H195 0.929 . S
C214 C211 1.388 . S
C214 N213 1.397 1_455 S
C215 H196 0.929 . S
C215 C212 1.404 1_655 S
C215 N213 1.334 . S
C216 H208 0.930 . S
C216 C211 1.418 . S
C216 C212 1.353 . S
C217 H187 0.930 . S
C217 N218 1.330 . S
C217 C219 1.446 . S
N218 Co177 2.151 . S
N218 C217 1.330 . S
N218 C222 1.418 . S
C219 H198 0.929 . S
C219 C217 1.446 . S
C219 C220 1.332 . S
C220 H200 0.931 . S
C220 C219 1.332 . S
C220 C221 1.259 1_545 S
C221 H189 0.939 . S
C221 C220 1.259 1_565 S
C221 C222 1.249 1_565 S
C222 H192 0.929 1_545 S
C222 N218 1.418 . S
C222 C221 1.249 1_545 S
C223 H190 0.930 . S
C223 C225 1.406 . S
C223 C228 1.261 . S
C224 H191 0.930 . S
C224 N226 1.325 . S
C224 C227 1.357 . S
C225 H193 0.928 . S
C225 C223 1.406 . S
C225 N226 1.261 . S
N226 Co177 2.214 1_565 S
N226 C224 1.325 . S
N226 C225 1.261 . S
C227 H197 0.931 . S
C227 C224 1.357 . S
C227 C228 1.312 . S
C228 H199 0.930 . S
C228 C223 1.261 . S
C228 C227 1.312 . S
C229 O201 1.214 . S
C229 O209 1.234 . S
C230 H202 0.929 . S
C230 C233 1.391 . S
C230 C235 1.391 . S
C231 H203 0.929 . S
C231 C232 1.390 . S
C231 N234 1.391 . S
C232 H204 0.930 . S
C232 C231 1.390 . S
C232 C233 1.392 . S
C233 H205 0.929 . S
C233 C230 1.391 . S
C233 C232 1.392 . S
N234 Co178 2.257 . S
N234 C231 1.391 . S
N234 C235 1.388 . S
C235 H206 0.930 . S
C235 C230 1.391 . S
C235 N234 1.388 . S
Co236 O238 2.143 . S
Co236 O244 2.074 . S
Co236 O247 2.093 . S
Co236 O260 2.097 . S
Co236 N277 2.151 . S
Co236 N285 2.214 . S
Co237 O238 2.160 . S
Co237 O243 2.058 . S
Co237 O253 2.057 . S
Co237 O268 2.037 . S
Co237 N272 2.145 . S
Co237 N293 2.257 . S
O238 Co236 2.143 . S
O238 Co237 2.160 . S
C239 O240 1.278 . S
C239 O247 1.224 . S
O240 C239 1.278 . S
C241 O242 1.245 . S
C241 O253 1.232 . S
O242 C241 1.245 . S
O243 Co237 2.058 . S
O243 C269 1.269 . S
O244 Co236 2.074 . S
O244 C269 1.257 . S
H245 C270 0.930 . S
H246 C276 0.930 . S
O247 Co236 2.093 . S
O247 C239 1.224 . S
H248 C280 0.929 . S
H249 C282 0.930 . S
H250 C283 0.930 . S
H251 C281 0.929 . S
H252 C284 0.928 . S
O253 Co237 2.057 . S
O253 C241 1.232 . S
H254 C273 0.929 . S
H255 C274 0.929 . S
H256 C286 0.931 . S
H257 C278 0.929 . S
H258 C287 0.930 . S
H259 C279 0.931 . S
O260 Co236 2.097 . S
O260 C288 1.214 . S
H261 C289 0.929 . S
H262 C290 0.929 . S
H263 C291 0.930 . S
H264 C292 0.929 . S
H265 C294 0.930 . S
H266 C271 0.930 . S
H267 C275 0.930 . S
O268 Co237 2.037 . S
O268 C288 1.234 . S
C269 O243 1.269 . S
C269 O244 1.257 . S
C270 H245 0.930 . S
C270 C273 1.388 . S
C270 C275 1.418 . S
C271 H266 0.930 . S
C271 C274 1.404 1_455 S
C271 C275 1.353 . S
N272 Co237 2.145 . S
N272 C273 1.397 1_655 S
N272 C274 1.334 . S
C273 H254 0.929 . S
C273 C270 1.388 . S
C273 N272 1.397 1_455 S
C274 H255 0.929 . S
C274 C271 1.404 1_655 S
C274 N272 1.334 . S
C275 H267 0.930 . S
C275 C270 1.418 . S
C275 C271 1.353 . S
C276 H246 0.930 . S
C276 N277 1.330 . S
C276 C278 1.446 . S
N277 Co236 2.151 . S
N277 C276 1.330 . S
N277 C281 1.418 . S
C278 H257 0.929 . S
C278 C276 1.446 . S
C278 C279 1.332 . S
C279 H259 0.931 . S
C279 C278 1.332 . S
C279 C280 1.267 . S
C280 H248 0.929 . S
C280 C279 1.267 . S
C280 C281 1.251 . S
C281 H251 0.929 . S
C281 N277 1.418 . S
C281 C280 1.251 . S
C282 H249 0.930 . S
C282 C284 1.406 . S
C282 C287 1.261 . S
C283 H250 0.930 . S
C283 N285 1.325 . S
C283 C286 1.357 . S
C284 H252 0.928 . S
C284 C282 1.406 . S
C284 N285 1.261 . S
N285 Co236 2.214 . S
N285 C283 1.325 . S
N285 C284 1.261 . S
C286 H256 0.931 . S
C286 C283 1.357 . S
C286 C287 1.312 . S
C287 H258 0.930 . S
C287 C282 1.261 . S
C287 C286 1.312 . S
C288 O260 1.214 . S
C288 O268 1.234 . S
C289 H261 0.929 . S
C289 C292 1.391 . S
C289 C294 1.391 . S
C290 H262 0.929 . S
C290 C291 1.390 . S
C290 N293 1.391 . S
C291 H263 0.930 . S
C291 C290 1.390 . S
C291 C292 1.392 . S
C292 H264 0.929 . S
C292 C289 1.391 . S
C292 C291 1.392 . S
N293 Co237 2.257 . S
N293 C290 1.391 . S
N293 C294 1.388 . S
C294 H265 0.930 . S
C294 C289 1.391 . S
C294 N293 1.388 . S
Co295 O297 2.143 . S
Co295 O303 2.074 . S
Co295 O306 2.093 . S
Co295 O319 2.097 . S
Co295 N336 2.151 . S
Co295 N344 2.214 1_545 S
Co296 O297 2.160 . S
Co296 O302 2.058 . S
Co296 O312 2.057 . S
Co296 O327 2.037 . S
Co296 N331 2.145 . S
Co296 N352 2.257 . S
O297 Co295 2.143 . S
O297 Co296 2.160 . S
C298 O299 1.278 . S
C298 O306 1.224 . S
O299 C298 1.278 . S
C300 O301 1.245 . S
C300 O312 1.232 . S
O301 C300 1.245 . S
O302 Co296 2.058 . S
O302 C328 1.269 . S
O303 Co295 2.074 . S
O303 C328 1.257 . S
H304 C329 0.930 . S
H305 C335 0.930 . S
O306 Co295 2.093 . S
O306 C298 1.224 . S
H307 C339 0.939 . S
H308 C341 0.930 . S
H309 C342 0.930 . S
H310 C340 0.929 1_565 S
H311 C343 0.928 . S
O312 Co296 2.057 . S
O312 C300 1.232 . S
H313 C332 0.929 . S
H314 C333 0.929 . S
H315 C345 0.931 . S
H316 C337 0.929 . S
H317 C346 0.930 . S
H318 C338 0.931 . S
O319 Co295 2.097 . S
O319 C347 1.214 . S
H320 C348 0.929 . S
H321 C349 0.929 . S
H322 C350 0.930 . S
H323 C351 0.929 . S
H324 C353 0.930 . S
H325 C330 0.930 . S
H326 C334 0.930 . S
O327 Co296 2.037 . S
O327 C347 1.234 . S
C328 O302 1.269 . S
C328 O303 1.257 . S
C329 H304 0.930 . S
C329 C332 1.388 . S
C329 C334 1.418 . S
C330 H325 0.930 . S
C330 C333 1.404 . S
C330 C334 1.353 . S
N331 Co296 2.145 . S
N331 C332 1.397 . S
N331 C333 1.334 . S
C332 H313 0.929 . S
C332 C329 1.388 . S
C332 N331 1.397 . S
C333 H314 0.929 . S
C333 C330 1.404 . S
C333 N331 1.334 . S
C334 H326 0.930 . S
C334 C329 1.418 . S
C334 C330 1.353 . S
C335 H305 0.930 . S
C335 N336 1.330 . S
C335 C337 1.446 . S
N336 Co295 2.151 . S
N336 C335 1.330 . S
N336 C340 1.418 . S
C337 H316 0.929 . S
C337 C335 1.446 . S
C337 C338 1.332 . S
C338 H318 0.931 . S
C338 C337 1.332 . S
C338 C339 1.259 1_545 S
C339 H307 0.939 . S
C339 C338 1.259 1_565 S
C339 C340 1.249 1_565 S
C340 H310 0.929 1_545 S
C340 N336 1.418 . S
C340 C339 1.249 1_545 S
C341 H308 0.930 . S
C341 C343 1.406 . S
C341 C346 1.261 . S
C342 H309 0.930 . S
C342 N344 1.325 . S
C342 C345 1.357 . S
C343 H311 0.928 . S
C343 C341 1.406 . S
C343 N344 1.261 . S
N344 Co295 2.214 1_565 S
N344 C342 1.325 . S
N344 C343 1.261 . S
C345 H315 0.931 . S
C345 C342 1.357 . S
C345 C346 1.312 . S
C346 H317 0.930 . S
C346 C341 1.261 . S
C346 C345 1.312 . S
C347 O319 1.214 . S
C347 O327 1.234 . S
C348 H320 0.929 . S
C348 C351 1.391 . S
C348 C353 1.391 . S
C349 H321 0.929 . S
C349 C350 1.390 . S
C349 N352 1.391 . S
C350 H322 0.930 . S
C350 C349 1.390 . S
C350 C351 1.392 . S
C351 H323 0.929 . S
C351 C348 1.391 . S
C351 C350 1.392 . S
N352 Co296 2.257 . S
N352 C349 1.391 . S
N352 C353 1.388 . S
C353 H324 0.930 . S
C353 C348 1.391 . S
C353 N352 1.388 . S
Co354 O356 2.143 . S
Co354 O362 2.074 . S
Co354 O365 2.093 . S
Co354 O378 2.097 . S
Co354 N395 2.151 . S
Co354 N403 2.214 . S
Co355 O356 2.160 . S
Co355 O361 2.058 . S
Co355 O371 2.057 . S
Co355 O386 2.037 . S
Co355 N390 2.145 . S
Co355 N411 2.257 . S
O356 Co354 2.143 . S
O356 Co355 2.160 . S
C357 O358 1.278 . S
C357 O365 1.224 . S
O358 C357 1.278 . S
C359 O360 1.245 . S
C359 O371 1.232 . S
O360 C359 1.245 . S
O361 Co355 2.058 . S
O361 C387 1.269 . S
O362 Co354 2.074 . S
O362 C387 1.257 . S
H363 C388 0.930 . S
H364 C394 0.930 . S
O365 Co354 2.093 . S
O365 C357 1.224 . S
H366 C398 0.929 . S
H367 C400 0.930 . S
H368 C401 0.930 . S
H369 C399 0.929 . S
H370 C402 0.928 . S
O371 Co355 2.057 . S
O371 C359 1.232 . S
H372 C391 0.929 . S
H373 C392 0.929 . S
H374 C404 0.931 . S
H375 C396 0.929 . S
H376 C405 0.930 . S
H377 C397 0.931 . S
O378 Co354 2.097 . S
O378 C406 1.214 . S
H379 C407 0.929 . S
H380 C408 0.929 . S
H381 C409 0.930 . S
H382 C410 0.929 . S
H383 C412 0.930 . S
H384 C389 0.930 . S
H385 C393 0.930 . S
O386 Co355 2.037 . S
O386 C406 1.234 . S
C387 O361 1.269 . S
C387 O362 1.257 . S
C388 H363 0.930 . S
C388 C391 1.388 . S
C388 C393 1.418 . S
C389 H384 0.930 . S
C389 C392 1.404 . S
C389 C393 1.353 . S
N390 Co355 2.145 . S
N390 C391 1.397 . S
N390 C392 1.334 . S
C391 H372 0.929 . S
C391 C388 1.388 . S
C391 N390 1.397 . S
C392 H373 0.929 . S
C392 C389 1.404 . S
C392 N390 1.334 . S
C393 H385 0.930 . S
C393 C388 1.418 . S
C393 C389 1.353 . S
C394 H364 0.930 . S
C394 N395 1.330 . S
C394 C396 1.446 . S
N395 Co354 2.151 . S
N395 C394 1.330 . S
N395 C399 1.418 . S
C396 H375 0.929 . S
C396 C394 1.446 . S
C396 C397 1.332 . S
C397 H377 0.931 . S
C397 C396 1.332 . S
C397 C398 1.267 . S
C398 H366 0.929 . S
C398 C397 1.267 . S
C398 C399 1.251 . S
C399 H369 0.929 . S
C399 N395 1.418 . S
C399 C398 1.251 . S
C400 H367 0.930 . S
C400 C402 1.406 . S
C400 C405 1.261 . S
C401 H368 0.930 . S
C401 N403 1.325 . S
C401 C404 1.357 . S
C402 H370 0.928 . S
C402 C400 1.406 . S
C402 N403 1.261 . S
N403 Co354 2.214 . S
N403 C401 1.325 . S
N403 C402 1.261 . S
C404 H374 0.931 . S
C404 C401 1.357 . S
C404 C405 1.312 . S
C405 H376 0.930 . S
C405 C400 1.261 . S
C405 C404 1.312 . S
C406 O378 1.214 . S
C406 O386 1.234 . S
C407 H379 0.929 . S
C407 C410 1.391 . S
C407 C412 1.391 . S
C408 H380 0.929 . S
C408 C409 1.390 . S
C408 N411 1.391 . S
C409 H381 0.930 . S
C409 C408 1.390 . S
C409 C410 1.392 . S
C410 H382 0.929 . S
C410 C407 1.391 . S
C410 C409 1.392 . S
N411 Co355 2.257 . S
N411 C408 1.391 . S
N411 C412 1.388 . S
C412 H383 0.930 . S
C412 C407 1.391 . S
C412 N411 1.388 . S
Co413 O415 2.143 . S
Co413 O421 2.074 . S
Co413 O424 2.093 . S
Co413 O437 2.097 . S
Co413 N454 2.151 . S
Co413 N462 2.214 1_565 S
Co414 O415 2.160 . S
Co414 O420 2.058 . S
Co414 O430 2.057 . S
Co414 O445 2.037 . S
Co414 N449 2.145 . S
Co414 N470 2.257 . S
O415 Co413 2.143 . S
O415 Co414 2.160 . S
C416 O417 1.278 . S
C416 O424 1.224 . S
O417 C416 1.278 . S
C418 O419 1.245 . S
C418 O430 1.232 . S
O419 C418 1.245 . S
O420 Co414 2.058 . S
O420 C446 1.269 . S
O421 Co413 2.074 . S
O421 C446 1.257 . S
H422 C447 0.930 . S
H423 C453 0.930 . S
O424 Co413 2.093 . S
O424 C416 1.224 . S
H425 C457 0.939 . S
H426 C459 0.930 . S
H427 C460 0.930 . S
H428 C458 0.929 1_545 S
H429 C461 0.928 . S
O430 Co414 2.057 . S
O430 C418 1.232 . S
H431 C450 0.929 . S
H432 C451 0.929 . S
H433 C463 0.931 . S
H434 C455 0.929 . S
H435 C464 0.930 . S
H436 C456 0.931 . S
O437 Co413 2.097 . S
O437 C465 1.214 . S
H438 C466 0.929 . S
H439 C467 0.929 . S
H440 C468 0.930 . S
H441 C469 0.929 . S
H442 C471 0.930 . S
H443 C448 0.930 . S
H444 C452 0.930 . S
O445 Co414 2.037 . S
O445 C465 1.234 . S
C446 O420 1.269 . S
C446 O421 1.257 . S
C447 H422 0.930 . S
C447 C450 1.388 . S
C447 C452 1.418 . S
C448 H443 0.930 . S
C448 C451 1.404 1_655 S
C448 C452 1.353 . S
N449 Co414 2.145 . S
N449 C450 1.397 1_455 S
N449 C451 1.334 . S
C450 H431 0.929 . S
C450 C447 1.388 . S
C450 N449 1.397 1_655 S
C451 H432 0.929 . S
C451 C448 1.404 1_455 S
C451 N449 1.334 . S
C452 H444 0.930 . S
C452 C447 1.418 . S
C452 C448 1.353 . S
C453 H423 0.930 . S
C453 N454 1.330 . S
C453 C455 1.446 . S
N454 Co413 2.151 . S
N454 C453 1.330 . S
N454 C458 1.418 . S
C455 H434 0.929 . S
C455 C453 1.446 . S
C455 C456 1.332 . S
C456 H436 0.931 . S
C456 C455 1.332 . S
C456 C457 1.259 1_565 S
C457 H425 0.939 . S
C457 C456 1.259 1_545 S
C457 C458 1.249 1_545 S
C458 H428 0.929 1_565 S
C458 N454 1.418 . S
C458 C457 1.249 1_565 S
C459 H426 0.930 . S
C459 C461 1.406 . S
C459 C464 1.261 . S
C460 H427 0.930 . S
C460 N462 1.325 . S
C460 C463 1.357 . S
C461 H429 0.928 . S
C461 C459 1.406 . S
C461 N462 1.261 . S
N462 Co413 2.214 1_545 S
N462 C460 1.325 . S
N462 C461 1.261 . S
C463 H433 0.931 . S
C463 C460 1.357 . S
C463 C464 1.312 . S
C464 H435 0.930 . S
C464 C459 1.261 . S
C464 C463 1.312 . S
C465 O437 1.214 . S
C465 O445 1.234 . S
C466 H438 0.929 . S
C466 C469 1.391 . S
C466 C471 1.391 . S
C467 H439 0.929 . S
C467 C468 1.390 . S
C467 N470 1.391 . S
C468 H440 0.930 . S
C468 C467 1.390 . S
C468 C469 1.392 . S
C469 H441 0.929 . S
C469 C466 1.391 . S
C469 C468 1.392 . S
N470 Co414 2.257 . S
N470 C467 1.391 . S
N470 C471 1.388 . S
C471 H442 0.930 . S
C471 C466 1.391 . S
C471 N470 1.388 . S
C472 C473 1.391 . S
C472 C474 1.394 . S
C472 H488 0.931 . S
C473 C472 1.391 . S
C473 C477 1.376 . S
C474 C472 1.394 . S
C474 C475 1.369 . S
C474 C478 1.531 . S
C475 C474 1.369 . S
C475 C476 1.410 . S
C475 C483 1.503 . S
C476 C475 1.410 . S
C476 C477 1.392 . S
C476 C479 1.511 . S
C477 C473 1.376 . S
C477 C476 1.392 . S
C477 H489 0.929 . S
C478 C474 1.531 . S
C478 H490 0.960 . S
C478 H491 0.962 . S
C478 H492 0.960 . S
C479 C476 1.511 . S
C479 H493 0.961 . S
C479 H494 0.961 . S
C479 H495 0.961 . S
C480 C481 1.370 . S
C480 C482 1.363 . S
C480 H496 0.931 . S
C481 C480 1.370 . S
C481 C485 1.408 . S
C482 C480 1.363 . S
C482 C483 1.370 . S
C482 C486 1.524 . S
C483 C475 1.503 . S
C483 C482 1.370 . S
C483 C484 1.403 . S
C484 C483 1.403 . S
C484 C485 1.404 . S
C484 C487 1.539 . S
C485 C481 1.408 . S
C485 C484 1.404 . S
C485 H497 0.930 . S
C486 C482 1.524 . S
C486 H498 0.956 . S
C486 H499 0.961 . S
C486 H500 0.961 . S
C487 C484 1.539 . S
C487 H501 0.958 . S
C487 H502 0.961 . S
C487 H503 0.960 . S
H488 C472 0.931 . S
H489 C477 0.929 . S
H490 C478 0.960 . S
H491 C478 0.962 . S
H492 C478 0.960 . S
H493 C479 0.961 . S
H494 C479 0.961 . S
H495 C479 0.961 . S
H496 C480 0.931 . S
H497 C485 0.930 . S
H498 C486 0.956 . S
H499 C486 0.961 . S
H500 C486 0.961 . S
H501 C487 0.958 . S
H502 C487 0.961 . S
H503 C487 0.960 . S
C504 C505 1.391 . S
C504 C506 1.394 . S
C504 H520 0.931 . S
C505 C504 1.391 . S
C505 C509 1.376 1_655 S
C506 C504 1.394 . S
C506 C507 1.369 1_645 S
C506 C510 1.531 . S
C507 C506 1.369 1_465 S
C507 C508 1.410 . S
C507 C515 1.503 . S
C508 C507 1.410 . S
C508 C509 1.392 1_565 S
C508 C511 1.511 . S
C509 C505 1.376 1_455 S
C509 C508 1.392 1_545 S
C509 H521 0.929 . S
C510 C506 1.531 . S
C510 H522 0.960 1_645 S
C510 H523 0.956 1_655 S
C510 H524 0.963 . S
C511 C508 1.511 . S
C511 H525 0.961 . S
C511 H526 0.961 . S
C511 H527 0.961 . S
C512 C513 1.370 1_545 S
C512 C514 1.363 . S
C512 H528 0.931 . S
C513 C512 1.370 1_565 S
C513 C517 1.408 . S
C514 C512 1.363 . S
C514 C515 1.370 1_545 S
C514 C518 1.524 . S
C515 C507 1.503 . S
C515 C514 1.370 1_565 S
C515 C516 1.403 . S
C516 C515 1.403 . S
C516 C517 1.404 . S
C516 C519 1.539 . S
C517 C513 1.408 . S
C517 C516 1.404 . S
C517 H529 0.930 . S
C518 C514 1.524 . S
C518 H530 0.956 . S
C518 H531 0.961 . S
C518 H532 0.961 . S
C519 C516 1.539 . S
C519 H533 0.958 . S
C519 H534 0.961 . S
C519 H535 0.960 . S
H520 C504 0.931 . S
H521 C509 0.929 . S
H522 C510 0.960 1_465 S
H523 C510 0.956 1_455 S
H524 C510 0.963 . S
H525 C511 0.961 . S
H526 C511 0.961 . S
H527 C511 0.961 . S
H528 C512 0.931 . S
H529 C517 0.930 . S
H530 C518 0.956 . S
H531 C518 0.961 . S
H532 C518 0.961 . S
H533 C519 0.958 . S
H534 C519 0.961 . S
H535 C519 0.960 . S
C536 C537 1.391 . S
C536 C538 1.394 . S
C536 H552 0.931 . S
C537 C536 1.391 . S
C537 C541 1.376 . S
C538 C536 1.394 . S
C538 C539 1.369 . S
C538 C542 1.531 . S
C539 C538 1.369 . S
C539 C540 1.410 . S
C539 C547 1.503 . S
C540 C539 1.410 . S
C540 C541 1.392 . S
C540 C543 1.511 . S
C541 C537 1.376 . S
C541 C540 1.392 . S
C541 H553 0.929 . S
C542 C538 1.531 . S
C542 H554 0.960 . S
C542 H555 0.962 . S
C542 H556 0.960 . S
C543 C540 1.511 . S
C543 H557 0.961 . S
C543 H558 0.961 . S
C543 H559 0.961 . S
C544 C545 1.370 1_655 S
C544 C546 1.363 . S
C544 H560 0.931 . S
C545 C544 1.370 1_455 S
C545 C549 1.408 . S
C546 C544 1.363 . S
C546 C547 1.370 . S
C546 C550 1.524 . S
C547 C539 1.503 . S
C547 C546 1.370 . S
C547 C548 1.403 1_655 S
C548 C547 1.403 1_455 S
C548 C549 1.404 . S
C548 C551 1.539 . S
C549 C545 1.408 . S
C549 C548 1.404 . S
C549 H561 0.930 . S
C550 C546 1.524 . S
C550 H562 0.956 . S
C550 H563 0.961 . S
C550 H564 0.961 . S
C551 C548 1.539 . S
C551 H565 0.958 . S
C551 H566 0.961 . S
C551 H567 0.958 . S
H552 C536 0.931 . S
H553 C541 0.929 . S
H554 C542 0.960 . S
H555 C542 0.962 . S
H556 C542 0.960 . S
H557 C543 0.961 . S
H558 C543 0.961 . S
H559 C543 0.961 . S
H560 C544 0.931 . S
H561 C549 0.930 . S
H562 C550 0.956 . S
H563 C550 0.961 . S
H564 C550 0.961 . S
H565 C551 0.958 . S
H566 C551 0.961 . S
H567 C551 0.958 . S
C568 C569 1.391 . S
C568 C570 1.394 . S
C568 H584 0.931 . S
C569 C568 1.391 . S
C569 C573 1.376 . S
C570 C568 1.394 . S
C570 C571 1.369 . S
C570 C574 1.531 . S
C571 C570 1.369 . S
C571 C572 1.421 . S
C571 C579 1.503 . S
C572 C571 1.421 . S
C572 C573 1.399 . S
C572 C575 1.494 1_545 S
C573 C569 1.376 . S
C573 C572 1.399 . S
C573 H585 0.925 1_545 S
C574 C570 1.531 . S
C574 H586 0.960 . S
C574 H587 0.962 . S
C574 H588 0.960 . S
C575 C572 1.494 1_565 S
C575 H589 0.961 . S
C575 H590 0.961 . S
C575 H591 0.961 . S
C576 C577 1.370 . S
C576 C578 1.363 . S
C576 H592 0.931 . S
C577 C576 1.370 . S
C577 C581 1.408 1_565 S
C578 C576 1.363 . S
C578 C579 1.370 1_565 S
C578 C582 1.524 . S
C579 C571 1.503 . S
C579 C578 1.370 1_545 S
C579 C580 1.403 . S
C580 C579 1.403 . S
C580 C581 1.404 . S
C580 C583 1.539 . S
C581 C577 1.408 1_545 S
C581 C580 1.404 . S
C581 H593 0.930 . S
C582 C578 1.524 . S
C582 H594 0.956 . S
C582 H595 0.961 . S
C582 H596 0.961 . S
C583 C580 1.539 . S
C583 H597 0.958 . S
C583 H598 0.961 . S
C583 H599 0.960 . S
H584 C568 0.931 . S
H585 C573 0.925 1_565 S
H586 C574 0.960 . S
H587 C574 0.962 . S
H588 C574 0.960 . S
H589 C575 0.961 . S
H590 C575 0.961 . S
H591 C575 0.961 . S
H592 C576 0.931 . S
H593 C581 0.930 . S
H594 C582 0.956 . S
H595 C582 0.961 . S
H596 C582 0.961 . S
H597 C583 0.958 . S
H598 C583 0.961 . S
H599 C583 0.960 . S
C600 C601 1.391 . S
C600 C602 1.394 . S
C600 H616 0.931 . S
C601 C600 1.391 . S
C601 C605 1.376 . S
C602 C600 1.394 . S
C602 C603 1.369 . S
C602 C606 1.531 . S
C603 C602 1.369 . S
C603 C604 1.410 . S
C603 C611 1.503 . S
C604 C603 1.410 . S
C604 C605 1.392 . S
C604 C607 1.511 . S
C605 C601 1.376 . S
C605 C604 1.392 . S
C605 H617 0.929 . S
C606 C602 1.531 . S
C606 H618 0.960 . S
C606 H619 0.962 . S
C606 H620 0.960 . S
C607 C604 1.511 . S
C607 H621 0.961 . S
C607 H622 0.961 . S
C607 H623 0.961 . S
C608 C609 1.370 . S
C608 C610 1.363 . S
C608 H624 0.931 . S
C609 C608 1.370 . S
C609 C613 1.408 . S
C610 C608 1.363 . S
C610 C611 1.370 . S
C610 C614 1.524 . S
C611 C603 1.503 . S
C611 C610 1.370 . S
C611 C612 1.403 . S
C612 C611 1.403 . S
C612 C613 1.404 . S
C612 C615 1.539 . S
C613 C609 1.408 . S
C613 C612 1.404 . S
C613 H625 0.930 . S
C614 C610 1.524 . S
C614 H626 0.956 . S
C614 H627 0.961 . S
C614 H628 0.961 . S
C615 C612 1.539 . S
C615 H629 0.958 . S
C615 H630 0.961 . S
C615 H631 0.960 . S
H616 C600 0.931 . S
H617 C605 0.929 . S
H618 C606 0.960 . S
H619 C606 0.962 . S
H620 C606 0.960 . S
H621 C607 0.961 . S
H622 C607 0.961 . S
H623 C607 0.961 . S
H624 C608 0.931 . S
H625 C613 0.930 . S
H626 C614 0.956 . S
H627 C614 0.961 . S
H628 C614 0.961 . S
H629 C615 0.958 . S
H630 C615 0.961 . S
H631 C615 0.960 . S
C632 C633 1.391 1_565 S
C632 C634 1.394 . S
C632 H648 0.931 . S
C633 C632 1.391 1_545 S
C633 C637 1.376 . S
C634 C632 1.394 . S
C634 C635 1.369 1_565 S
C634 C638 1.531 . S
C635 C634 1.369 1_545 S
C635 C636 1.410 . S
C635 C643 1.496 1_545 S
C636 C635 1.410 . S
C636 C637 1.392 . S
C636 C639 1.511 . S
C637 C633 1.376 . S
C637 C636 1.392 . S
C637 H649 0.929 . S
C638 C634 1.531 . S
C638 H650 0.960 . S
C638 H651 0.962 . S
C638 H652 0.960 . S
C639 C636 1.511 . S
C639 H653 0.961 . S
C639 H654 0.961 . S
C639 H655 0.961 . S
C640 C641 1.370 1_655 S
C640 C642 1.363 . S
C640 H656 0.931 . S
C641 C640 1.370 1_455 S
C641 C645 1.408 . S
C642 C640 1.363 . S
C642 C643 1.380 . S
C642 C646 1.524 . S
C643 C635 1.496 1_565 S
C643 C642 1.380 . S
C643 C644 1.401 1_665 S
C644 C643 1.401 1_445 S
C644 C645 1.404 1_545 S
C644 C647 1.539 . S
C645 C641 1.408 . S
C645 C644 1.404 1_565 S
C645 H657 0.930 . S
C646 C642 1.524 . S
C646 H658 0.956 . S
C646 H659 0.961 1_565 S
C646 H660 0.961 . S
C647 C644 1.539 . S
C647 H661 0.970 . S
C647 H662 0.961 . S
C647 H663 0.951 1_455 S
H648 C632 0.931 . S
H649 C637 0.929 . S
H650 C638 0.960 . S
H651 C638 0.962 . S
H652 C638 0.960 . S
H653 C639 0.961 . S
H654 C639 0.961 . S
H655 C639 0.961 . S
H656 C640 0.931 . S
H657 C645 0.930 . S
H658 C646 0.956 . S
H659 C646 0.961 1_545 S
H660 C646 0.961 . S
H661 C647 0.970 . S
H662 C647 0.961 . S
H663 C647 0.951 1_655 S
C664 C665 1.391 . S
C664 C666 1.394 . S
C664 H680 0.931 . S
C665 C664 1.391 . S
C665 C669 1.376 . S
C666 C664 1.394 . S
C666 C667 1.369 . S
C666 C670 1.531 . S
C667 C666 1.369 . S
C667 C668 1.410 . S
C667 C675 1.503 . S
C668 C667 1.410 . S
C668 C669 1.392 . S
C668 C671 1.511 . S
C669 C665 1.376 . S
C669 C668 1.392 . S
C669 H681 0.929 . S
C670 C666 1.531 . S
C670 H682 0.960 . S
C670 H683 0.962 . S
C670 H684 0.960 . S
C671 C668 1.511 . S
C671 H685 0.961 . S
C671 H686 0.961 . S
C671 H687 0.961 . S
C672 C673 1.370 . S
C672 C674 1.363 1_655 S
C672 H688 0.931 . S
C673 C672 1.370 . S
C673 C677 1.408 . S
C674 C672 1.363 1_455 S
C674 C675 1.370 . S
C674 C678 1.524 . S
C675 C667 1.503 . S
C675 C674 1.370 . S
C675 C676 1.403 . S
C676 C675 1.403 . S
C676 C677 1.404 1_455 S
C676 C679 1.539 . S
C677 C673 1.408 . S
C677 C676 1.404 1_655 S
C677 H689 0.930 . S
C678 C674 1.524 . S
C678 H690 0.956 . S
C678 H691 0.961 . S
C678 H692 0.961 . S
C679 C676 1.539 . S
C679 H693 0.958 . S
C679 H694 0.961 . S
C679 H695 0.960 . S
H680 C664 0.931 . S
H681 C669 0.929 . S
H682 C670 0.960 . S
H683 C670 0.962 . S
H684 C670 0.960 . S
H685 C671 0.961 . S
H686 C671 0.961 . S
H687 C671 0.961 . S
H688 C672 0.931 . S
H689 C677 0.930 . S
H690 C678 0.956 . S
H691 C678 0.961 . S
H692 C678 0.961 . S
H693 C679 0.958 . S
H694 C679 0.961 . S
H695 C679 0.960 . S
C696 C697 1.391 . S
C696 C698 1.394 . S
C696 H712 0.931 . S
C697 C696 1.391 . S
C697 C701 1.376 . S
C698 C696 1.394 . S
C698 C699 1.369 . S
C698 C702 1.531 1_565 S
C699 C698 1.369 . S
C699 C700 1.410 . S
C699 C707 1.503 . S
C700 C699 1.410 . S
C700 C701 1.392 . S
C700 C703 1.511 . S
C701 C697 1.376 . S
C701 C700 1.392 . S
C701 H713 0.929 . S
C702 C698 1.531 1_545 S
C702 H714 0.968 . S
C702 H715 0.962 . S
C702 H716 0.962 . S
C703 C700 1.511 . S
C703 H717 0.961 . S
C703 H718 0.961 . S
C703 H719 0.961 . S
C704 C705 1.370 . S
C704 C706 1.363 . S
C704 H720 0.931 . S
C705 C704 1.370 . S
C705 C709 1.408 1_545 S
C706 C704 1.363 . S
C706 C707 1.370 1_545 S
C706 C710 1.524 . S
C707 C699 1.503 . S
C707 C706 1.370 1_565 S
C707 C708 1.403 . S
C708 C707 1.403 . S
C708 C709 1.404 . S
C708 C711 1.539 . S
C709 C705 1.408 1_565 S
C709 C708 1.404 . S
C709 H721 0.930 . S
C710 C706 1.524 . S
C710 H722 0.956 . S
C710 H723 0.961 . S
C710 H724 0.961 . S
C711 C708 1.539 . S
C711 H725 0.958 . S
C711 H726 0.961 . S
C711 H727 0.960 . S
H712 C696 0.931 . S
H713 C701 0.929 . S
H714 C702 0.968 . S
H715 C702 0.962 . S
H716 C702 0.962 . S
H717 C703 0.961 . S
H718 C703 0.961 . S
H719 C703 0.961 . S
H720 C704 0.931 . S
H721 C709 0.930 . S
H722 C710 0.956 . S
H723 C710 0.961 . S
H724 C710 0.961 . S
H725 C711 0.958 . S
H726 C711 0.961 . S
H727 C711 0.960 . S
C728 C729 1.391 . S
C728 C730 1.394 . S
C728 H744 0.931 . S
C729 C728 1.391 . S
C729 C733 1.376 . S
C730 C728 1.394 . S
C730 C731 1.369 . S
C730 C734 1.531 . S
C731 C730 1.369 . S
C731 C732 1.410 1_455 S
C731 C739 1.503 1_455 S
C732 C731 1.410 1_655 S
C732 C733 1.392 1_655 S
C732 C735 1.511 . S
C733 C729 1.376 . S
C733 C732 1.392 1_455 S
C733 H745 0.929 . S
C734 C730 1.531 . S
C734 H746 0.960 . S
C734 H747 0.962 . S
C734 H748 0.960 . S
C735 C732 1.511 . S
C735 H749 0.961 . S
C735 H750 0.961 . S
C735 H751 0.961 . S
C736 C737 1.370 . S
C736 C738 1.363 . S
C736 H752 0.931 . S
C737 C736 1.370 . S
C737 C741 1.408 . S
C738 C736 1.363 . S
C738 C739 1.370 . S
C738 C742 1.524 1_655 S
C739 C731 1.503 1_655 S
C739 C738 1.370 . S
C739 C740 1.403 . S
C740 C739 1.403 . S
C740 C741 1.404 . S
C740 C743 1.539 . S
C741 C737 1.408 . S
C741 C740 1.404 . S
C741 H753 0.930 . S
C742 C738 1.524 1_455 S
C742 H754 0.956 . S
C742 H755 0.961 . S
C742 H756 0.961 . S
C743 C740 1.539 . S
C743 H757 0.958 . S
C743 H758 0.961 . S
C743 H759 0.960 . S
H744 C728 0.931 . S
H745 C733 0.929 . S
H746 C734 0.960 . S
H747 C734 0.962 . S
H748 C734 0.960 . S
H749 C735 0.961 . S
H750 C735 0.961 . S
H751 C735 0.961 . S
H752 C736 0.931 . S
H753 C741 0.930 . S
H754 C742 0.956 . S
H755 C742 0.961 . S
H756 C742 0.961 . S
H757 C743 0.958 . S
H758 C743 0.961 . S
H759 C743 0.960 . S
C760 C761 1.391 . S
C760 C762 1.394 . S
C760 H776 0.931 . S
C761 C760 1.391 . S
C761 C765 1.376 . S
C762 C760 1.394 . S
C762 C763 1.369 . S
C762 C766 1.531 . S
C763 C762 1.369 . S
C763 C764 1.409 1_565 S
C763 C771 1.503 1_565 S
C764 C763 1.409 1_545 S
C764 C765 1.385 1_545 S
C764 C767 1.520 . S
C765 C761 1.376 . S
C765 C764 1.385 1_565 S
C765 H777 0.929 . S
C766 C762 1.531 . S
C766 H778 0.960 . S
C766 H779 0.962 . S
C766 H780 0.960 . S
C767 C764 1.520 . S
C767 H781 0.961 . S
C767 H782 0.961 . S
C767 H783 0.961 . S
C768 C769 1.370 . S
C768 C770 1.363 1_545 S
C768 H784 0.931 1_545 S
C769 C768 1.370 . S
C769 C773 1.408 . S
C770 C768 1.363 1_565 S
C770 C771 1.370 1_565 S
C770 C774 1.524 . S
C771 C763 1.503 1_545 S
C771 C770 1.370 1_545 S
C771 C772 1.403 . S
C772 C771 1.403 . S
C772 C773 1.404 . S
C772 C775 1.539 . S
C773 C769 1.408 . S
C773 C772 1.404 . S
C773 H785 0.930 . S
C774 C770 1.524 . S
C774 H786 0.956 . S
C774 H787 0.961 . S
C774 H788 0.961 . S
C775 C772 1.539 . S
C775 H789 0.958 . S
C775 H790 0.961 . S
C775 H791 0.960 . S
H776 C760 0.931 . S
H777 C765 0.929 . S
H778 C766 0.960 . S
H779 C766 0.962 . S
H780 C766 0.960 . S
H781 C767 0.961 . S
H782 C767 0.961 . S
H783 C767 0.961 . S
H784 C768 0.931 1_565 S
H785 C773 0.930 . S
H786 C774 0.956 . S
H787 C774 0.961 . S
H788 C774 0.961 . S
H789 C775 0.958 . S
H790 C775 0.961 . S
H791 C775 0.960 . S
C792 C793 1.391 . S
C792 C794 1.394 . S
C792 H808 0.931 . S
C793 C792 1.391 . S
C793 C797 1.376 . S
C794 C792 1.394 . S
C794 C795 1.369 . S
C794 C798 1.531 . S
C795 C794 1.369 . S
C795 C796 1.410 . S
C795 C803 1.503 1_554 S
C796 C795 1.410 . S
C796 C797 1.392 . S
C796 C799 1.511 . S
C797 C793 1.376 . S
C797 C796 1.392 . S
C797 H809 0.929 . S
C798 C794 1.531 . S
C798 H810 0.960 1_554 S
C798 H811 0.962 . S
C798 H812 0.960 . S
C799 C796 1.511 . S
C799 H813 0.961 . S
C799 H814 0.961 1_554 S
C799 H815 0.961 1_554 S
C800 C801 1.370 . S
C800 C802 1.363 . S
C800 H816 0.931 . S
C801 C800 1.370 . S
C801 C805 1.408 . S
C802 C800 1.363 . S
C802 C803 1.370 . S
C802 C806 1.524 1_556 S
C803 C795 1.503 1_556 S
C803 C802 1.370 . S
C803 C804 1.403 . S
C804 C803 1.403 . S
C804 C805 1.404 . S
C804 C807 1.539 . S
C805 C801 1.408 . S
C805 C804 1.404 . S
C805 H817 0.930 . S
C806 C802 1.524 1_554 S
C806 H818 0.956 . S
C806 H819 0.961 . S
C806 H820 0.961 . S
C807 C804 1.539 . S
C807 H821 0.958 . S
C807 H822 0.961 . S
C807 H823 0.960 . S
H808 C792 0.931 . S
H809 C797 0.929 . S
H810 C798 0.960 1_556 S
H811 C798 0.962 . S
H812 C798 0.960 . S
H813 C799 0.961 . S
H814 C799 0.961 1_556 S
H815 C799 0.961 1_556 S
H816 C800 0.931 . S
H817 C805 0.930 . S
H818 C806 0.956 . S
H819 C806 0.961 . S
H820 C806 0.961 . S
H821 C807 0.958 . S
H822 C807 0.961 . S
H823 C807 0.960 . S
C824 C825 1.391 . S
C824 C826 1.394 1_455 S
C824 H840 0.931 . S
C825 C824 1.391 . S
C825 C829 1.376 . S
C826 C824 1.394 1_655 S
C826 C827 1.369 1_655 S
C826 C830 1.531 . S
C827 C826 1.369 1_455 S
C827 C828 1.410 . S
C827 C835 1.503 1_466 S
C828 C827 1.410 . S
C828 C829 1.392 . S
C828 C831 1.511 1_556 S
C829 C825 1.376 . S
C829 C828 1.392 . S
C829 H841 0.929 . S
C830 C826 1.531 . S
C830 H842 0.960 . S
C830 H843 0.962 1_565 S
C830 H844 0.960 . S
C831 C828 1.511 1_554 S
C831 H845 0.961 . S
C831 H846 0.961 . S
C831 H847 0.961 . S
C832 C833 1.370 . S
C832 C834 1.363 . S
C832 H848 0.931 . S
C833 C832 1.370 . S
C833 C837 1.408 . S
C834 C832 1.363 . S
C834 C835 1.370 . S
C834 C838 1.524 1_654 S
C835 C827 1.503 1_644 S
C835 C834 1.370 . S
C835 C836 1.403 1_545 S
C836 C835 1.403 1_565 S
C836 C837 1.404 1_565 S
C836 C839 1.539 . S
C837 C833 1.408 . S
C837 C836 1.404 1_545 S
C837 H849 0.930 1_545 S
C838 C834 1.524 1_456 S
C838 H850 0.956 . S
C838 H851 0.961 . S
C838 H852 0.961 1_556 S
C839 C836 1.539 . S
C839 H853 0.958 . S
C839 H854 0.961 . S
C839 H855 0.960 . S
H840 C824 0.931 . S
H841 C829 0.929 . S
H842 C830 0.960 . S
H843 C830 0.962 1_545 S
H844 C830 0.960 . S
H845 C831 0.961 . S
H846 C831 0.961 . S
H847 C831 0.961 . S
H848 C832 0.931 . S
H849 C837 0.930 1_565 S
H850 C838 0.956 . S
H851 C838 0.961 . S
H852 C838 0.961 1_554 S
H853 C839 0.958 . S
H854 C839 0.961 . S
H855 C839 0.960 . S
C856 C857 1.391 . S
C856 C858 1.394 . S
C856 H872 0.931 . S
C857 C856 1.391 . S
C857 C861 1.376 . S
C858 C856 1.394 . S
C858 C859 1.369 . S
C858 C862 1.531 . S
C859 C858 1.369 . S
C859 C860 1.410 . S
C859 C867 1.503 . S
C860 C859 1.410 . S
C860 C861 1.392 . S
C860 C863 1.511 . S
C861 C857 1.376 . S
C861 C860 1.392 . S
C861 H873 0.929 . S
C862 C858 1.531 . S
C862 H874 0.960 . S
C862 H875 0.962 . S
C862 H876 0.960 . S
C863 C860 1.511 . S
C863 H877 0.961 . S
C863 H878 0.961 . S
C863 H879 0.961 . S
C864 C865 1.370 . S
C864 C866 1.363 . S
C864 H880 0.931 . S
C865 C864 1.370 . S
C865 C869 1.408 . S
C866 C864 1.363 . S
C866 C867 1.370 . S
C866 C870 1.524 . S
C867 C859 1.503 . S
C867 C866 1.370 . S
C867 C868 1.403 . S
C868 C867 1.403 . S
C868 C869 1.404 . S
C868 C871 1.539 . S
C869 C865 1.408 . S
C869 C868 1.404 . S
C869 H881 0.930 . S
C870 C866 1.524 . S
C870 H882 0.956 . S
C870 H883 0.961 . S
C870 H884 0.961 . S
C871 C868 1.539 . S
C871 H885 0.958 . S
C871 H886 0.961 . S
C871 H887 0.960 . S
H872 C856 0.931 . S
H873 C861 0.929 . S
H874 C862 0.960 . S
H875 C862 0.962 . S
H876 C862 0.960 . S
H877 C863 0.961 . S
H878 C863 0.961 . S
H879 C863 0.961 . S
H880 C864 0.931 . S
H881 C869 0.930 . S
H882 C870 0.956 . S
H883 C870 0.961 . S
H884 C870 0.961 . S
H885 C871 0.958 . S
H886 C871 0.961 . S
H887 C871 0.960 . S
C888 C889 1.391 . S
C888 C890 1.394 . S
C888 H904 0.931 . S
C889 C888 1.391 . S
C889 C893 1.376 . S
C890 C888 1.394 . S
C890 C891 1.369 . S
C890 C894 1.531 . S
C891 C890 1.369 . S
C891 C892 1.410 . S
C891 C899 1.503 . S
C892 C891 1.410 . S
C892 C893 1.392 . S
C892 C895 1.511 . S
C893 C889 1.376 . S
C893 C892 1.392 . S
C893 H905 0.929 . S
C894 C890 1.531 . S
C894 H906 0.960 . S
C894 H907 0.962 . S
C894 H908 0.960 . S
C895 C892 1.511 . S
C895 H909 0.961 . S
C895 H910 0.961 . S
C895 H911 0.961 . S
C896 C897 1.370 . S
C896 C898 1.363 . S
C896 H912 0.931 . S
C897 C896 1.370 . S
C897 C901 1.408 . S
C898 C896 1.363 . S
C898 C899 1.370 . S
C898 C902 1.524 . S
C899 C891 1.503 . S
C899 C898 1.370 . S
C899 C900 1.403 . S
C900 C899 1.403 . S
C900 C901 1.404 . S
C900 C903 1.539 . S
C901 C897 1.408 . S
C901 C900 1.404 . S
C901 H913 0.930 . S
C902 C898 1.524 . S
C902 H914 0.956 . S
C902 H915 0.961 . S
C902 H916 0.961 . S
C903 C900 1.539 . S
C903 H917 0.958 . S
C903 H918 0.961 . S
C903 H919 0.960 . S
H904 C888 0.931 . S
H905 C893 0.929 . S
H906 C894 0.960 . S
H907 C894 0.962 . S
H908 C894 0.960 . S
H909 C895 0.961 . S
H910 C895 0.961 . S
H911 C895 0.961 . S
H912 C896 0.931 . S
H913 C901 0.930 . S
H914 C902 0.956 . S
H915 C902 0.961 . S
H916 C902 0.961 . S
H917 C903 0.958 . S
H918 C903 0.961 . S
H919 C903 0.960 . S
C920 C921 1.391 . S
C920 C922 1.394 . S
C920 H936 0.931 . S
C921 C920 1.391 . S
C921 C925 1.376 . S
C922 C920 1.394 . S
C922 C923 1.369 . S
C922 C926 1.531 . S
C923 C922 1.369 . S
C923 C924 1.410 . S
C923 C931 1.503 . S
C924 C923 1.410 . S
C924 C925 1.392 . S
C924 C927 1.511 . S
C925 C921 1.376 . S
C925 C924 1.392 . S
C925 H937 0.929 . S
C926 C922 1.531 . S
C926 H938 0.960 . S
C926 H939 0.962 . S
C926 H940 0.960 . S
C927 C924 1.511 . S
C927 H941 0.961 . S
C927 H942 0.961 . S
C927 H943 0.961 . S
C928 C929 1.370 . S
C928 C930 1.363 . S
C928 H944 0.931 . S
C929 C928 1.370 . S
C929 C933 1.408 . S
C930 C928 1.363 . S
C930 C931 1.370 . S
C930 C934 1.524 . S
C931 C923 1.503 . S
C931 C930 1.370 . S
C931 C932 1.403 . S
C932 C931 1.403 . S
C932 C933 1.404 . S
C932 C935 1.539 . S
C933 C929 1.408 . S
C933 C932 1.404 . S
C933 H945 0.930 . S
C934 C930 1.524 . S
C934 H946 0.956 . S
C934 H947 0.961 . S
C934 H948 0.961 . S
C935 C932 1.539 . S
C935 H949 0.958 . S
C935 H950 0.961 . S
C935 H951 0.960 . S
H936 C920 0.931 . S
H937 C925 0.929 . S
H938 C926 0.960 . S
H939 C926 0.962 . S
H940 C926 0.960 . S
H941 C927 0.961 . S
H942 C927 0.961 . S
H943 C927 0.961 . S
H944 C928 0.931 . S
H945 C933 0.930 . S
H946 C934 0.956 . S
H947 C934 0.961 . S
H948 C934 0.961 . S
H949 C935 0.958 . S
H950 C935 0.961 . S
H951 C935 0.960 . S
C952 C953 1.391 . S
C952 C954 1.394 . S
C952 H968 0.931 . S
C953 C952 1.391 . S
C953 C957 1.376 . S
C954 C952 1.394 . S
C954 C955 1.369 . S
C954 C958 1.531 . S
C955 C954 1.369 . S
C955 C956 1.410 . S
C955 C963 1.503 . S
C956 C955 1.410 . S
C956 C957 1.392 . S
C956 C959 1.511 . S
C957 C953 1.376 . S
C957 C956 1.392 . S
C957 H969 0.929 . S
C958 C954 1.531 . S
C958 H970 0.960 . S
C958 H971 0.962 . S
C958 H972 0.960 . S
C959 C956 1.511 . S
C959 H973 0.961 . S
C959 H974 0.961 . S
C959 H975 0.961 . S
C960 C961 1.370 . S
C960 C962 1.363 . S
C960 H976 0.931 . S
C961 C960 1.370 . S
C961 C965 1.408 . S
C962 C960 1.363 . S
C962 C963 1.370 . S
C962 C966 1.524 . S
C963 C955 1.503 . S
C963 C962 1.370 . S
C963 C964 1.403 . S
C964 C963 1.403 . S
C964 C965 1.404 . S
C964 C967 1.539 . S
C965 C961 1.408 . S
C965 C964 1.404 . S
C965 H977 0.930 . S
C966 C962 1.524 . S
C966 H978 0.956 . S
C966 H979 0.961 . S
C966 H980 0.961 . S
C967 C964 1.539 . S
C967 H981 0.958 . S
C967 H982 0.961 . S
C967 H983 0.960 . S
H968 C952 0.931 . S
H969 C957 0.929 . S
H970 C958 0.960 . S
H971 C958 0.962 . S
H972 C958 0.960 . S
H973 C959 0.961 . S
H974 C959 0.961 . S
H975 C959 0.961 . S
H976 C960 0.931 . S
H977 C965 0.930 . S
H978 C966 0.956 . S
H979 C966 0.961 . S
H980 C966 0.961 . S
H981 C967 0.958 . S
H982 C967 0.961 . S
H983 C967 0.960 . S
C473 C3 1.555 . S
C481 C170 1.558 . S
C505 C229 1.569 . S
C513 C62 1.567 . S
C537 C121 1.574 . S
C545 C52 1.561 . S
C569 C180 1.572 . S
C577 C111 1.564 . S
C601 C406 1.550 . S
C609 C239 1.569 . S
C633 C298 1.574 . S
C641 C465 1.562 . S
C665 C357 1.556 . S
C673 C288 1.557 . S
C697 C416 1.570 . S
C705 C347 1.567 . S
C729 C33 1.599 . S
C737 C269 1.587 . S
C761 C92 1.573 . S
C769 C328 1.598 . S
C793 C151 1.601 . S
C801 C387 1.585 . S
C825 C446 1.599 . S
C833 C210 1.586 . S
C857 C5 1.634 . S
C865 C64 1.646 . S
C889 C182 1.634 . S
C897 C123 1.648 . S
C921 C300 1.640 . S
C929 C241 1.644 . S
C953 C359 1.636 . S
C961 C418 1.644 . S
