# Generated by pormake.
# Topology neb, (4)-cn, num edge types: 1
# Building blocks:
#     Node 0, Type 0, BuildingBlock: QUQFOY_clean_sbu_3, # of connection points: 4
#     Node 1, Type 0, BuildingBlock: QUQFOY_clean_sbu_3, # of connection points: 4
#     Node 2, Type 0, BuildingBlock: QUQFOY_clean_sbu_3, # of connection points: 4
#     Node 3, Type 0, BuildingBlock: QUQFOY_clean_sbu_3, # of connection points: 4
#     Node 4, Type 0, BuildingBlock: QUQFOY_clean_sbu_3, # of connection points: 4
#     Node 5, Type 0, BuildingBlock: QUQFOY_clean_sbu_3, # of connection points: 4
#     Node 6, Type 0, BuildingBlock: QUQFOY_clean_sbu_3, # of connection points: 4
#     Node 7, Type 0, BuildingBlock: QUQFOY_clean_sbu_3, # of connection points: 4
#     Node 8, Type 0, BuildingBlock: QUQFOY_clean_sbu_3, # of connection points: 4
#     Node 9, Type 0, BuildingBlock: QUQFOY_clean_sbu_3, # of connection points: 4
#     Node 10, Type 0, BuildingBlock: QUQFOY_clean_sbu_3, # of connection points: 4
#     Node 11, Type 0, BuildingBlock: QUQFOY_clean_sbu_3, # of connection points: 4
#     Node 12, Type 0, BuildingBlock: QUQFOY_clean_sbu_3, # of connection points: 4
#     Node 13, Type 0, BuildingBlock: QUQFOY_clean_sbu_3, # of connection points: 4
#     Node 14, Type 0, BuildingBlock: QUQFOY_clean_sbu_3, # of connection points: 4
#     Node 15, Type 0, BuildingBlock: QUQFOY_clean_sbu_3, # of connection points: 4
#     Edge 16, Type (0, 0), BuildingBlock: MIFKUJ_clean_linker_0, # of connection points: 2
#     Edge 17, Type (0, 0), BuildingBlock: MIFKUJ_clean_linker_0, # of connection points: 2
#     Edge 18, Type (0, 0), BuildingBlock: MIFKUJ_clean_linker_0, # of connection points: 2
#     Edge 19, Type (0, 0), BuildingBlock: MIFKUJ_clean_linker_0, # of connection points: 2
#     Edge 20, Type (0, 0), BuildingBlock: MIFKUJ_clean_linker_0, # of connection points: 2
#     Edge 21, Type (0, 0), BuildingBlock: MIFKUJ_clean_linker_0, # of connection points: 2
#     Edge 22, Type (0, 0), BuildingBlock: MIFKUJ_clean_linker_0, # of connection points: 2
#     Edge 23, Type (0, 0), BuildingBlock: MIFKUJ_clean_linker_0, # of connection points: 2
#     Edge 24, Type (0, 0), BuildingBlock: MIFKUJ_clean_linker_0, # of connection points: 2
#     Edge 25, Type (0, 0), BuildingBlock: MIFKUJ_clean_linker_0, # of connection points: 2
#     Edge 26, Type (0, 0), BuildingBlock: MIFKUJ_clean_linker_0, # of connection points: 2
#     Edge 27, Type (0, 0), BuildingBlock: MIFKUJ_clean_linker_0, # of connection points: 2
#     Edge 28, Type (0, 0), BuildingBlock: MIFKUJ_clean_linker_0, # of connection points: 2
#     Edge 29, Type (0, 0), BuildingBlock: MIFKUJ_clean_linker_0, # of connection points: 2
#     Edge 30, Type (0, 0), BuildingBlock: MIFKUJ_clean_linker_0, # of connection points: 2
#     Edge 31, Type (0, 0), BuildingBlock: MIFKUJ_clean_linker_0, # of connection points: 2
#     Edge 32, Type (0, 0), BuildingBlock: MIFKUJ_clean_linker_0, # of connection points: 2
#     Edge 33, Type (0, 0), BuildingBlock: MIFKUJ_clean_linker_0, # of connection points: 2
#     Edge 34, Type (0, 0), BuildingBlock: MIFKUJ_clean_linker_0, # of connection points: 2
#     Edge 35, Type (0, 0), BuildingBlock: MIFKUJ_clean_linker_0, # of connection points: 2
#     Edge 36, Type (0, 0), BuildingBlock: MIFKUJ_clean_linker_0, # of connection points: 2
#     Edge 37, Type (0, 0), BuildingBlock: MIFKUJ_clean_linker_0, # of connection points: 2
#     Edge 38, Type (0, 0), BuildingBlock: MIFKUJ_clean_linker_0, # of connection points: 2
#     Edge 39, Type (0, 0), BuildingBlock: MIFKUJ_clean_linker_0, # of connection points: 2
#     Edge 40, Type (0, 0), BuildingBlock: MIFKUJ_clean_linker_0, # of connection points: 2
#     Edge 41, Type (0, 0), BuildingBlock: MIFKUJ_clean_linker_0, # of connection points: 2
#     Edge 42, Type (0, 0), BuildingBlock: MIFKUJ_clean_linker_0, # of connection points: 2
#     Edge 43, Type (0, 0), BuildingBlock: MIFKUJ_clean_linker_0, # of connection points: 2
#     Edge 44, Type (0, 0), BuildingBlock: MIFKUJ_clean_linker_0, # of connection points: 2
#     Edge 45, Type (0, 0), BuildingBlock: MIFKUJ_clean_linker_0, # of connection points: 2
#     Edge 46, Type (0, 0), BuildingBlock: MIFKUJ_clean_linker_0, # of connection points: 2
#     Edge 47, Type (0, 0), BuildingBlock: MIFKUJ_clean_linker_0, # of connection points: 2
# Relax obj value: 0.002
# Max RMSD: 0.028
# Mean RMSD: 0.028
data_MOF--net-neb--node1-QUQFOY_clean_sbu_3--edge1-MIFKUJ_clean_linker_0
_symmetry_space_group_name_H-M    P1
_symmetry_Int_Tables_number       1
_symmetry_cell_setting            triclinic
loop_
_symmetry_equiv_pos_as_xyz
'x, y, z'
_cell_length_a     55.97701
_cell_length_b     29.707477
_cell_length_c     102.444
_cell_angle_alpha  90.035046
_cell_angle_beta   92.679686
_cell_angle_gamma 90.088649
loop_
_atom_site_label
_atom_site_type_symbol
_atom_site_fract_x
_atom_site_fract_y
_atom_site_fract_z
_atom_type_partial_charge
C0 C 0.18492 0.09574 0.44631 0.0
O1 O 0.19629 0.07504 0.43771 0.0
Cd2 Cd 0.17619 0.03952 0.41901 0.0
O3 O 0.16218 0.09534 0.44583 0.0
Cd4 Cd 0.1285 0.06332 0.43271 0.0
C5 C 0.14271 0.13012 0.40794 0.0
O6 O 0.14385 0.99152 0.4246 0.0
O7 O 0.11293 0.02068 0.41435 0.0
O8 O 0.11063 0.03551 0.45224 0.0
C9 C 0.12742 0.98808 0.41564 0.0
O10 O 0.15921 0.10159 0.40611 0.0
C11 C 0.0909 0.05603 0.45035 0.0
O12 O 0.12961 0.127 0.41775 0.0
O13 O 0.08873 0.08091 0.44027 0.0
C14 C 0.05409 0.08954 0.7916 0.0
O15 O 0.04356 0.07128 0.80097 0.0
Cd16 Cd 0.0637 0.0266 0.81795 0.0
O17 O 0.07647 0.08427 0.79051 0.0
Cd18 Cd 0.11064 0.04652 0.80164 0.0
C19 C 0.10436 0.10504 0.82971 0.0
O20 O 0.09139 0.97658 0.80848 0.0
O21 O 0.12741 0.98988 0.81607 0.0
O22 O 0.12574 0.02338 0.7808 0.0
C23 C 0.10949 0.96375 0.81545 0.0
O24 O 0.08664 0.07937 0.83171 0.0
C25 C 0.14593 0.04257 0.78254 0.0
O26 O 0.1152 0.10317 0.81904 0.0
O27 O 0.14945 0.06482 0.79305 0.0
C28 C 0.81026 0.88593 0.5401 0.0
O29 O 0.79816 0.90155 0.54926 0.0
Cd30 Cd 0.81568 0.94383 0.56735 0.0
O31 O 0.83254 0.89421 0.53977 0.0
Cd32 Cd 0.86407 0.93604 0.55222 0.0
C33 C 0.85798 0.8669 0.57808 0.0
O34 O 0.84124 0.00146 0.5594 0.0
O35 O 0.87707 0.99239 0.56786 0.0
O36 O 0.87892 0.96445 0.53185 0.0
C37 C 0.85833 0.01619 0.56681 0.0
O38 O 0.83854 0.88773 0.57989 0.0
C39 C 0.90004 0.94964 0.53387 0.0
O40 O 0.87054 0.87624 0.56838 0.0
O41 O 0.90427 0.92749 0.54432 0.0
C42 C 0.93434 0.889 0.19675 0.0
O43 O 0.94361 0.90583 0.18677 0.0
Cd44 Cd 0.92177 0.9488 0.17001 0.0
O45 O 0.9122 0.89435 0.1986 0.0
Cd46 Cd 0.87688 0.92971 0.18798 0.0
C47 C 0.88114 0.86798 0.16036 0.0
O48 O 0.89513 -0.00097 0.18014 0.0
O49 O 0.8588 0.98482 0.1733 0.0
O50 O 0.86288 0.95372 0.20901 0.0
C51 C 0.87662 0.01118 0.17342 0.0
O52 O 0.8977 0.89475 0.15721 0.0
C53 C 0.84286 0.9336 0.20775 0.0
O54 O 0.87203 0.87009 0.17151 0.0
O55 O 0.83893 0.91072 0.19738 0.0
C56 C 0.1847 0.58785 0.94978 0.0
O57 O 0.19675 0.57089 0.94082 0.0
Cd58 Cd 0.17812 0.53529 0.9219 0.0
O59 O 0.16205 0.58353 0.94944 0.0
Cd60 Cd 0.13007 0.54707 0.93571 0.0
C61 C 0.13985 0.6195 0.91136 0.0
O62 O 0.14984 0.47887 0.92789 0.0
O63 O 0.11718 0.49983 0.91756 0.0
O64 O 0.11229 0.51467 0.95481 0.0
C65 C 0.13348 0.47056 0.9192 0.0
O66 O 0.15857 0.59638 0.9096 0.0
C67 C 0.0921 0.53357 0.95292 0.0
O68 O 0.12641 0.61053 0.92071 0.0
O69 O 0.08964 0.55937 0.94307 0.0
C70 C 0.06447 0.58961 0.28379 0.0
O71 O 0.05401 0.5699 0.29293 0.0
Cd72 Cd 0.07511 0.53623 0.3115 0.0
O73 O 0.08719 0.59047 0.28376 0.0
Cd74 Cd 0.12206 0.56283 0.29685 0.0
C75 C 0.10765 0.62908 0.32189 0.0
O76 O 0.10764 0.49062 0.30502 0.0
O77 O 0.13907 0.51962 0.3148 0.0
O78 O 0.14038 0.53677 0.27721 0.0
C79 C 0.12451 0.487 0.31369 0.0
O80 O 0.09167 0.5997 0.32401 0.0
C81 C 0.15965 0.55892 0.2791 0.0
O82 O 0.12035 0.62633 0.31191 0.0
O83 O 0.16127 0.58388 0.28918 0.0
C84 C 0.80495 0.3906 0.03886 0.0
O85 O 0.79285 0.40791 0.04775 0.0
Cd86 Cd 0.81136 0.44256 0.0668 0.0
O87 O 0.82765 0.39408 0.03935 0.0
Cd88 Cd 0.8599 0.42927 0.05325 0.0
C89 C 0.84874 0.35658 0.07729 0.0
O90 O 0.84037 0.49763 0.06087 0.0
O91 O 0.87224 0.4758 0.07179 0.0
O92 O 0.87805 0.46128 0.03422 0.0
C93 C 0.85619 0.50543 0.06987 0.0
O94 O 0.83019 0.38031 0.07897 0.0
C95 C 0.89816 0.44213 0.03617 0.0
O96 O 0.86254 0.36533 0.06809 0.0
O97 O 0.90047 0.41648 0.04606 0.0
C98 C 0.93707 0.38994 0.69931 0.0
O99 O 0.94903 0.40512 0.69004 0.0
Cd100 Cd 0.93131 0.44363 0.67126 0.0
O101 O 0.91457 0.39607 0.69931 0.0
Cd102 Cd 0.88267 0.43264 0.68575 0.0
C103 C 0.891 0.36386 0.66005 0.0
O104 O 0.90374 0.49986 0.678 0.0
O105 O 0.8687 0.48496 0.66926 0.0
O106 O 0.86443 0.46225 0.7051 0.0
C107 C 0.88658 0.51112 0.67012 0.0
O108 O 0.91003 0.38621 0.65833 0.0
C109 C 0.84441 0.44291 0.70285 0.0
O110 O 0.87826 0.37188 0.66976 0.0
O111 O 0.84241 0.41804 0.69277 0.0
C112 C 0.6867 0.09432 0.94565 0.0
O113 O 0.69753 0.07934 0.93594 0.0
Cd114 Cd 0.67753 0.04371 0.91735 0.0
O115 O 0.66424 0.08859 0.94635 0.0
Cd116 Cd 0.63058 0.05281 0.93379 0.0
C117 C 0.63667 0.12627 0.909 0.0
O118 O 0.65056 0.98717 0.92456 0.0
O119 O 0.61481 0.00289 0.91703 0.0
O120 O 0.61447 0.02071 0.95348 0.0
C121 C 0.63268 0.97683 0.91705 0.0
O122 O 0.65542 0.10449 0.90635 0.0
C123 C 0.59423 0.03975 0.95195 0.0
O124 O 0.62469 0.11594 0.91883 0.0
O125 O 0.59124 0.06571 0.94217 0.0
C126 C 0.55337 0.08268 0.28854 0.0
O127 O 0.54095 0.06698 0.29753 0.0
Cd128 Cd 0.55934 0.03578 0.31718 0.0
O129 O 0.57603 0.07906 0.28931 0.0
Cd130 Cd 0.60721 0.04594 0.30417 0.0
C131 C 0.59626 0.12256 0.32707 0.0
O132 O 0.5883 0.97813 0.31306 0.0
O133 O 0.61947 0.00531 0.3236 0.0
O134 O 0.62717 0.00941 0.2864 0.0
C135 C 0.60437 0.97369 0.32216 0.0
O136 O 0.57763 0.09934 0.32905 0.0
C137 C 0.64691 0.02998 0.28838 0.0
O138 O 0.60994 0.1123 0.31795 0.0
O139 O 0.64801 0.05867 0.29758 0.0
C140 C 0.30375 0.89381 0.03979 0.0
O141 O 0.29355 0.91254 0.04919 0.0
Cd142 Cd 0.3144 0.95667 0.06603 0.0
O143 O 0.32617 0.89821 0.03864 0.0
Cd144 Cd 0.36049 0.93516 0.04999 0.0
C145 C 0.35394 0.87739 0.07798 0.0
O146 O 0.34236 0.00649 0.05657 0.0
O147 O 0.37713 0.98966 0.06522 0.0
O148 O 0.37713 0.95787 0.02947 0.0
C149 C 0.3602 0.0178 0.06398 0.0
O150 O 0.33679 0.9041 0.08015 0.0
C151 C 0.39703 0.93808 0.03159 0.0
O152 O 0.36431 0.87826 0.06717 0.0
O153 O 0.39961 0.91567 0.04212 0.0
C154 C 0.43808 0.90892 0.69887 0.0
O155 O 0.44868 0.92619 0.6894 0.0
Cd156 Cd 0.42744 0.95554 0.67032 0.0
O157 O 0.41536 0.90898 0.69892 0.0
Cd158 Cd 0.38109 0.9356 0.68511 0.0
C159 C 0.39423 0.86177 0.66181 0.0
O160 O 0.39583 0.00567 0.67562 0.0
O161 O 0.36535 0.97332 0.6658 0.0
O162 O 0.36202 0.96848 0.7037 0.0
C163 C 0.3792 0.00704 0.66675 0.0
O164 O 0.41055 0.88966 0.65903 0.0
C165 C 0.34268 0.94633 0.70213 0.0
O166 O 0.38162 0.86806 0.67168 0.0
O167 O 0.34142 0.91814 0.69279 0.0
C168 C 0.69427 0.57835 0.44979 0.0
O169 O 0.70416 0.56112 0.44006 0.0
Cd170 Cd 0.68253 0.52342 0.42219 0.0
O171 O 0.67171 0.576 0.45071 0.0
Cd172 Cd 0.63643 0.54592 0.4385 0.0
C173 C 0.64568 0.60957 0.41176 0.0
O174 O 0.65265 0.47488 0.43041 0.0
O175 O 0.61777 0.49574 0.4227 0.0
O176 O 0.61946 0.5201 0.45861 0.0
C177 C 0.63424 0.46652 0.42308 0.0
O178 O 0.66236 0.58211 0.40934 0.0
C179 C 0.60016 0.54229 0.45706 0.0
O180 O 0.63453 0.60673 0.42231 0.0
O181 O 0.59808 0.56743 0.44704 0.0
C182 C 0.55286 0.59472 0.787 0.0
O183 O 0.54128 0.57875 0.79631 0.0
Cd184 Cd 0.55981 0.54006 0.81479 0.0
O185 O 0.5753 0.58849 0.78661 0.0
Cd186 Cd 0.60803 0.55097 0.79921 0.0
C187 C 0.60015 0.62236 0.82437 0.0
O188 O 0.58735 0.48472 0.80757 0.0
O189 O 0.62276 0.49972 0.81579 0.0
O190 O 0.62483 0.52124 0.77945 0.0
C191 C 0.60475 0.47381 0.81533 0.0
O192 O 0.58135 0.59993 0.82659 0.0
C193 C 0.64508 0.54007 0.78141 0.0
O194 O 0.61271 0.61305 0.81468 0.0
O195 O 0.64782 0.56468 0.79151 0.0
C196 C 0.30307 0.40654 0.53498 0.0
O197 O 0.29158 0.42602 0.54375 0.0
Cd198 Cd 0.31118 0.45675 0.56327 0.0
O199 O 0.32581 0.40592 0.53575 0.0
Cd200 Cd 0.35889 0.43453 0.55003 0.0
C201 C 0.34324 0.36335 0.57338 0.0
O202 O 0.34439 0.50517 0.55945 0.0
O203 O 0.37356 0.47041 0.56974 0.0
O204 O 0.37899 0.46795 0.53193 0.0
C205 C 0.3602 0.50475 0.56879 0.0
O206 O 0.32687 0.39193 0.57543 0.0
C207 C 0.39813 0.44539 0.5336 0.0
O208 O 0.35678 0.36793 0.5638 0.0
O209 O 0.39886 0.41672 0.54282 0.0
C210 C 0.44698 0.38994 0.19477 0.0
O211 O 0.45878 0.40622 0.1856 0.0
Cd212 Cd 0.43936 0.44622 0.16758 0.0
O213 O 0.42459 0.39675 0.19503 0.0
Cd214 Cd 0.39324 0.43691 0.18212 0.0
C215 C 0.39843 0.36768 0.15663 0.0
O216 O 0.41332 0.50539 0.17434 0.0
O217 O 0.38021 0.48469 0.16435 0.0
O218 O 0.37708 0.46923 0.2017 0.0
C219 C 0.39638 0.51428 0.16605 0.0
O220 O 0.41697 0.39073 0.15434 0.0
C221 C 0.35623 0.45302 0.1997 0.0
O222 O 0.38702 0.37468 0.1669 0.0
O223 O 0.3528 0.42825 0.18968 0.0
H224 H 0.32229 0.36056 0.5149 0.0
H225 H 0.30181 0.30945 0.49948 0.0
H226 H 0.23432 0.34164 0.51589 0.0
H227 H 0.25476 0.39248 0.53155 0.0
H228 H 0.24051 0.25234 0.51417 0.0
H229 H 0.24759 0.37833 0.48543 0.0
H230 H 0.26842 0.43949 0.47431 0.0
H231 H 0.31346 0.34287 0.45634 0.0
H232 H 0.29311 0.28113 0.46749 0.0
H233 H 0.16586 0.14414 0.46594 0.0
H234 H 0.18637 0.19674 0.48088 0.0
H235 H 0.25369 0.16404 0.46436 0.0
H236 H 0.23319 0.11166 0.44915 0.0
H237 H 0.24768 0.25359 0.46609 0.0
H238 H 0.24071 0.12767 0.49487 0.0
H239 H 0.21991 0.06649 0.506 0.0
H240 H 0.17473 0.16303 0.5239 0.0
H241 H 0.19506 0.22479 0.51274 0.0
C242 C 0.30304 0.35736 0.51513 0.0
C243 C 0.29018 0.38053 0.52451 0.0
C244 C 0.29134 0.32818 0.50626 0.0
C245 C 0.26653 0.32184 0.5065 0.0
C246 C 0.25351 0.346 0.51556 0.0
C247 C 0.2652 0.37522 0.52445 0.0
C248 C 0.25446 0.28793 0.49785 0.0
C249 C 0.24174 0.25302 0.50363 0.0
C250 C 0.25671 0.28807 0.48415 0.0
C251 C 0.26896 0.32513 0.4774 0.0
C252 C 0.26206 0.37014 0.47919 0.0
C253 C 0.27376 0.40491 0.47286 0.0
C254 C 0.29229 0.39508 0.46465 0.0
C255 C 0.29912 0.35044 0.46272 0.0
C256 C 0.28749 0.31554 0.46903 0.0
C257 C 0.18507 0.14764 0.46555 0.0
C258 C 0.19788 0.12368 0.45631 0.0
C259 C 0.19679 0.17768 0.47415 0.0
C260 C 0.22158 0.18413 0.47379 0.0
C261 C 0.23453 0.15956 0.46479 0.0
C262 C 0.2228 0.12947 0.45615 0.0
C263 C 0.23371 0.21807 0.48241 0.0
C264 C 0.24645 0.25295 0.47662 0.0
C265 C 0.23149 0.2179 0.49611 0.0
C266 C 0.21928 0.18083 0.50287 0.0
C267 C 0.22622 0.13584 0.5011 0.0
C268 C 0.21453 0.10105 0.50743 0.0
C269 C 0.19597 0.11086 0.51563 0.0
C270 C 0.1891 0.15548 0.51754 0.0
C271 C 0.20071 0.19039 0.51123 0.0
H272 H 0.18695 0.08388 0.52052 0.0
H273 H 0.30133 0.42204 0.45976 0.0
H274 H 0.89627 -0.00125 0.51135 0.0
H275 H 0.92823 0.01872 0.49696 0.0
H276 H 0.97862 0.94293 0.52131 0.0
H277 H 0.9468 0.92334 0.53587 0.0
H278 H 0.9961 0.02445 0.51553 0.0
H279 H 0.958 0.90247 0.49178 0.0
H280 H 0.92418 0.86123 0.48108 0.0
H281 H 0.91124 0.97155 0.45464 0.0
H282 H 0.9448 0.01373 0.4653 0.0
H283 H 0.09179 0.00817 0.47304 0.0
H284 H 0.05862 -0.00624 0.48711 0.0
H285 H 0.01213 0.07454 0.46187 0.0
H286 H 0.04529 0.08891 0.44764 0.0
H287 H 0.99187 -0.00597 0.46785 0.0
H288 H 0.03114 0.11479 0.49114 0.0
H289 H 0.0652 0.15541 0.50178 0.0
H290 H 0.07618 0.04693 0.52907 0.0
H291 H 0.04237 0.00533 0.51848 0.0
C292 C 0.91412 0.98605 0.51359 0.0
C293 C 0.91903 0.95942 0.52473 0.0
C294 C 0.93235 -0.00259 0.50534 0.0
C295 C 0.95576 0.98204 0.50802 0.0
C296 C 0.96067 0.95515 0.51908 0.0
C297 C 0.94246 0.94384 0.52735 0.0
C298 C 0.97528 -0.00504 0.49949 0.0
C299 C 0.99532 0.01729 0.50513 0.0
C300 C 0.97391 0.98677 0.48586 0.0
C301 C 0.95375 0.96144 0.47943 0.0
C302 C 0.94782 0.91809 0.48375 0.0
C303 C 0.92872 0.89452 0.47768 0.0
C304 C 0.91553 0.91381 0.46721 0.0
C305 C 0.92145 0.95668 0.46277 0.0
C306 C 0.94052 0.98042 0.46881 0.0
C307 C 0.07456 0.02318 0.47052 0.0
C308 C 0.07114 0.0497 0.45923 0.0
C309 C 0.05565 0.01503 0.4786 0.0
C310 C 0.03298 0.03338 0.47558 0.0
C311 C 0.02952 0.06014 0.46437 0.0
C312 C 0.04848 0.06844 0.45629 0.0
C313 C 0.01277 0.02314 0.48391 0.0
C314 C 0.99259 0.00136 0.47824 0.0
C315 C 0.01403 0.03177 0.49751 0.0
C316 C 0.03434 0.05676 0.50394 0.0
C317 C 0.04093 0.09942 0.49935 0.0
C318 C 0.06017 0.12266 0.50538 0.0
C319 C 0.07288 0.10372 0.51608 0.0
C320 C 0.06633 0.06154 0.52078 0.0
C321 C 0.04711 0.03814 0.51477 0.0
H322 H 0.08778 0.12176 0.52074 0.0
H323 H 0.90075 0.89551 0.46253 0.0
H324 H 0.29833 0.90744 0.70022 0.0
H325 H 0.26382 0.92512 0.7131 0.0
H326 H 0.30637 0.02114 0.73568 0.0
H327 H 0.3408 0.00419 0.72275 0.0
H328 H 0.25612 0.91815 0.73874 0.0
H329 H 0.27194 0.11076 0.7431 0.0
H330 H 0.28952 0.17228 0.73052 0.0
H331 H 0.27575 0.09833 0.69493 0.0
H332 H 0.25778 0.03669 0.70727 0.0
H333 H 0.1905 0.08053 0.7835 0.0
H334 H 0.22311 0.06521 0.76903 0.0
H335 H 0.17703 0.97638 0.74597 0.0
H336 H 0.14438 0.9913 0.76039 0.0
H337 H 0.22793 0.07579 0.74242 0.0
H338 H 0.21065 0.88504 0.73752 0.0
H339 H 0.19265 0.82319 0.7498 0.0
H340 H 0.20874 0.8931 0.78585 0.0
H341 H 0.22712 0.95502 0.7738 0.0
C342 C 0.30036 0.93219 0.70797 0.0
C343 C 0.32224 0.95461 0.71043 0.0
C344 C 0.28063 0.94221 0.71532 0.0
C345 C 0.28244 0.97493 0.7252 0.0
C346 C 0.30447 -0.0036 0.72792 0.0
C347 C 0.32416 0.98648 0.72057 0.0
C348 C 0.26131 0.98675 0.73268 0.0
C349 C 0.24973 0.95251 0.73938 0.0
C350 C 0.25325 0.03173 0.73368 0.0
C351 C 0.26374 0.06891 0.72614 0.0
C352 C 0.27258 0.10771 0.73259 0.0
C353 C 0.28263 0.14259 0.72549 0.0
C354 C 0.28382 0.13915 0.71194 0.0
C355 C 0.2749 0.10088 0.70543 0.0
C356 C 0.26481 0.06593 0.71248 0.0
C357 C 0.18724 0.05807 0.77528 0.0
C358 C 0.16493 0.03687 0.77314 0.0
C359 C 0.20587 0.04945 0.76701 0.0
C360 C 0.20254 0.01923 0.75655 0.0
C361 C 0.18003 -0.00066 0.7541 0.0
C362 C 0.16138 0.00804 0.76233 0.0
C363 C 0.22287 0.00723 0.74851 0.0
C364 C 0.23429 0.04144 0.74171 0.0
C365 C 0.23072 0.96219 0.74736 0.0
C366 C 0.22001 0.92487 0.75473 0.0
C367 C 0.21041 0.88712 0.74807 0.0
C368 C 0.20014 0.85206 0.75499 0.0
C369 C 0.19947 0.85429 0.76859 0.0
C370 C 0.20917 0.8915 0.77531 0.0
C371 C 0.21949 0.92661 0.76844 0.0
H372 H 0.1915 0.82714 0.77393 0.0
H373 H 0.29162 0.16617 0.70647 0.0
H374 H 0.00726 0.11665 0.79205 0.0
H375 H 0.98631 0.16903 0.77707 0.0
H376 H 0.04961 0.1811 0.75486 0.0
H377 H 0.07075 0.12951 0.76983 0.0
H378 H 0.03113 0.262 0.75964 0.0
H379 H 0.00126 0.11894 0.74365 0.0
H380 H 0.98186 0.04474 0.74542 0.0
H381 H 0.91782 0.10814 0.75775 0.0
H382 H 0.93695 0.18272 0.75622 0.0
H383 H 0.98382 0.36267 0.70133 0.0
H384 H 0.00261 0.31364 0.71794 0.0
H385 H 0.93637 0.30701 0.73776 0.0
H386 H 0.91729 0.35539 0.72108 0.0
H387 H 0.9549 0.22531 0.73529 0.0
H388 H 0.98396 0.36863 0.75031 0.0
H389 H 0.00322 0.44295 0.74855 0.0
H390 H 0.0686 0.37961 0.73823 0.0
H391 H 0.04964 0.3049 0.73975 0.0
C392 C 0.01667 0.13019 0.78392 0.0
C393 C 0.0407 0.11889 0.78215 0.0
C394 C 0.00465 0.16006 0.77536 0.0
C395 C 0.01638 0.17881 0.76482 0.0
C396 C 0.04024 0.16716 0.76296 0.0
C397 C 0.05227 0.13749 0.77151 0.0
C398 C 0.00408 0.21138 0.75585 0.0
C399 C 0.01459 0.25382 0.7542 0.0
C400 C 0.98216 0.20116 0.74906 0.0
C401 C 0.97062 0.15636 0.74996 0.0
C402 C 0.98311 0.11703 0.74684 0.0
C403 C 0.97215 0.07491 0.74778 0.0
C404 C 0.94865 0.07171 0.75173 0.0
C405 C 0.93603 0.11066 0.75471 0.0
C406 C 0.94692 0.15286 0.7538 0.0
C407 C 0.97328 0.35116 0.70928 0.0
C408 C 0.94904 0.36297 0.70986 0.0
C409 C 0.98408 0.32322 0.7188 0.0
C410 C 0.97094 0.30695 0.72915 0.0
C411 C 0.94684 0.31916 0.72985 0.0
C412 C 0.936 0.34695 0.72032 0.0
C413 C 0.9821 0.27578 0.73896 0.0
C414 C 0.97137 0.23363 0.74078 0.0
C415 C 0.00382 0.28628 0.74593 0.0
C416 C 0.0153 0.33117 0.74503 0.0
C417 C 0.00239 0.37056 0.74756 0.0
C418 C 0.01326 0.41276 0.74663 0.0
C419 C 0.0371 0.41601 0.74326 0.0
C420 C 0.05013 0.37705 0.74084 0.0
C421 C 0.03934 0.33476 0.74174 0.0
H422 H 0.04549 0.44871 0.74254 0.0
H423 H 0.94019 0.03907 0.75245 0.0
H424 H 0.76537 0.8492 0.53992 0.0
H425 H 0.748 0.79402 0.5245 0.0
H426 H 0.81198 0.7979 0.50264 0.0
H427 H 0.82952 0.85317 0.51797 0.0
H428 H 0.7711 0.79899 0.48675 0.0
H429 H 0.80415 0.71254 0.52241 0.0
H430 H 0.81119 0.69106 0.5455 0.0
H431 H 0.73645 0.66207 0.54839 0.0
H432 H 0.72888 0.68413 0.52535 0.0
H433 H 0.74117 0.60458 0.449 0.0
H434 H 0.76334 0.65351 0.46455 0.0
H435 H 0.70208 0.65934 0.48851 0.0
H436 H 0.67984 0.61043 0.47311 0.0
H437 H 0.74449 0.65082 0.50316 0.0
H438 H 0.71158 0.74243 0.46774 0.0
H439 H 0.70497 0.76426 0.44463 0.0
H440 H 0.78054 0.78296 0.44134 0.0
H441 H 0.78762 0.7606 0.4644 0.0
C442 C 0.77569 0.83865 0.53177 0.0
C443 C 0.79888 0.85544 0.53021 0.0
C444 C 0.76578 0.80692 0.52302 0.0
C445 C 0.77887 0.79147 0.51255 0.0
C446 C 0.80166 0.80928 0.5107 0.0
C447 C 0.81164 0.84081 0.51949 0.0
C448 C 0.76882 0.75633 0.50364 0.0
C449 C 0.76563 0.76633 0.49029 0.0
C450 C 0.76144 0.71396 0.50833 0.0
C451 C 0.76591 0.70042 0.52218 0.0
C452 C 0.78917 0.70195 0.52799 0.0
C453 C 0.79327 0.68961 0.54107 0.0
C454 C 0.77427 0.6753 0.54842 0.0
C455 C 0.75114 0.67321 0.54269 0.0
C456 C 0.74694 0.68561 0.52962 0.0
C457 C 0.73252 0.61579 0.45766 0.0
C458 C 0.70867 0.60393 0.45976 0.0
C459 C 0.74518 0.64386 0.4665 0.0
C460 C 0.73422 0.66042 0.47758 0.0
C461 C 0.71083 0.64696 0.48 0.0
C462 C 0.69813 0.61915 0.47115 0.0
C463 C 0.74654 0.6937 0.4863 0.0
C464 C 0.75015 0.68336 0.49961 0.0
C465 C 0.75439 0.7357 0.48158 0.0
C466 C 0.75015 0.74935 0.46774 0.0
C467 C 0.7268 0.75083 0.46206 0.0
C468 C 0.72297 0.76337 0.44898 0.0
C469 C 0.74233 0.77486 0.44151 0.0
C470 C 0.76556 0.77396 0.44713 0.0
C471 C 0.7695 0.76139 0.4602 0.0
H472 H 0.73932 0.78456 0.43139 0.0
H473 H 0.77748 0.66575 0.55855 0.0
H474 H 0.65008 0.96739 0.26903 0.0
H475 H 0.68499 0.94941 0.25657 0.0
H476 H 0.72587 0.05149 0.27767 0.0
H477 H 0.69094 0.06999 0.29012 0.0
H478 H 0.73249 0.05499 0.25165 0.0
H479 H 0.73465 0.94288 0.28505 0.0
H480 H 0.71851 0.88244 0.29859 0.0
H481 H 0.70591 0.80034 0.26445 0.0
H482 H 0.72163 0.86059 0.25066 0.0
H483 H 0.84467 0.98751 0.22936 0.0
H484 H 0.81269 0.00154 0.2443 0.0
H485 H 0.76745 0.90621 0.22311 0.0
H486 H 0.79936 0.89186 0.20812 0.0
H487 H 0.76448 0.8994 0.25018 0.0
H488 H 0.76053 0.014 0.21682 0.0
H489 H 0.77666 0.07493 0.20345 0.0
H490 H 0.79302 0.15271 0.23807 0.0
H491 H 0.77728 0.09191 0.25167 0.0
C492 C 0.66648 0.9861 0.27101 0.0
C493 C 0.66779 0.02004 0.28058 0.0
C494 C 0.68644 0.97561 0.26393 0.0
C495 C 0.70809 -0.00127 0.26633 0.0
C496 C 0.70934 0.03316 0.27571 0.0
C497 C 0.68939 0.04363 0.28282 0.0
C498 C 0.72931 0.98729 0.25889 0.0
C499 C 0.73973 0.02114 0.2515 0.0
C500 C 0.73844 0.94292 0.25853 0.0
C501 C 0.72912 0.90644 0.2668 0.0
C502 C 0.72826 0.91208 0.28041 0.0
C503 C 0.71922 0.87784 0.28814 0.0
C504 C 0.71114 0.83762 0.28238 0.0
C505 C 0.71215 0.83153 0.26889 0.0
C506 C 0.72114 0.86571 0.26112 0.0
C507 C 0.82802 0.96914 0.22796 0.0
C508 C 0.82445 0.93882 0.21751 0.0
C509 C 0.80976 0.97729 0.23649 0.0
C510 C 0.78765 0.95529 0.2347 0.0
C511 C 0.78439 0.92356 0.22463 0.0
C512 C 0.8026 0.91553 0.21606 0.0
C513 C 0.76752 0.96706 0.24291 0.0
C514 C 0.7573 0.93328 0.25042 0.0
C515 C 0.7586 0.01153 0.24343 0.0
C516 C 0.76797 0.0482 0.23527 0.0
C517 C 0.76775 0.04393 0.22159 0.0
C518 C 0.77679 0.07847 0.21397 0.0
C519 C 0.78593 0.11761 0.21991 0.0
C520 C 0.78598 0.12234 0.23349 0.0
C521 C 0.77699 0.08786 0.24115 0.0
H522 H 0.79291 0.14432 0.214 0.0
H523 H 0.70414 0.81115 0.28838 0.0
H524 H 0.98108 0.86281 0.19502 0.0
H525 H 0.00371 0.81144 0.20958 0.0
H526 H 0.94293 0.79914 0.23372 0.0
H527 H 0.92033 0.85075 0.21938 0.0
H528 H 0.98368 0.80712 0.2484 0.0
H529 H 0.95494 0.71812 0.21178 0.0
H530 H 0.94911 0.69835 0.18847 0.0
H531 H 0.02511 0.68816 0.18523 0.0
H532 H 0.03142 0.70852 0.20849 0.0
H533 H 0.0168 0.61029 0.28338 0.0
H534 H 0.99493 0.66007 0.26804 0.0
H535 H 0.05837 0.6769 0.24622 0.0
H536 H 0.0804 0.62716 0.26146 0.0
H537 H 0.01699 0.66677 0.23029 0.0
H538 H 0.04532 0.75509 0.26725 0.0
H539 H 0.05056 0.77333 0.29069 0.0
H540 H 0.97444 0.78354 0.29338 0.0
H541 H 0.96873 0.76467 0.26998 0.0
C542 C 0.9726 0.84949 0.20349 0.0
C543 C 0.94884 0.8607 0.20599 0.0
C544 C 0.98551 0.81996 0.21176 0.0
C545 C 0.97486 0.80101 0.22262 0.0
C546 C 0.95146 0.81329 0.22537 0.0
C547 C 0.93855 0.84274 0.21713 0.0
C548 C 0.98785 0.76762 0.23101 0.0
C549 C 0.99073 0.77621 0.24446 0.0
C550 C -0.00261 0.72765 0.22582 0.0
C551 C 0.99366 0.71533 0.21184 0.0
C552 C 0.97042 0.71204 0.20607 0.0
C553 C 0.96703 0.70066 0.19287 0.0
C554 C 0.98673 0.69214 0.18536 0.0
C555 C 0.00987 0.69486 0.19105 0.0
C556 C 0.01336 0.70629 0.20424 0.0
C557 C 0.02602 0.62404 0.27521 0.0
C558 C 0.0504 0.61506 0.2737 0.0
C559 C 0.01353 0.65263 0.2665 0.0
C560 C 0.02517 0.67259 0.25613 0.0
C561 C 0.04913 0.66193 0.2542 0.0
C562 C 0.06168 0.63359 0.26295 0.0
C563 C 0.0127 0.70625 0.24765 0.0
C564 C 0.00995 0.69773 0.2342 0.0
C565 C 0.00319 0.7462 0.25284 0.0
C566 C 0.00659 0.75801 0.26689 0.0
C567 C 0.02969 0.76088 0.27286 0.0
C568 C 0.03274 0.77138 0.28614 0.0
C569 C 0.01284 0.77947 0.29353 0.0
C570 C 0.98984 0.7772 0.28765 0.0
C571 C 0.98668 0.76663 0.27437 0.0
H572 H 0.01524 0.78758 0.30381 0.0
H573 H 0.98407 0.68332 0.17514 0.0
H574 H 0.31998 0.85055 0.01843 0.0
H575 H 0.29791 0.79974 0.0036 0.0
H576 H 0.23409 0.82046 0.02484 0.0
H577 H 0.25619 0.87115 0.03993 0.0
H578 H 0.24129 0.73214 0.01995 0.0
H579 H 0.23916 0.8681 -0.00483 0.0
H580 H 0.25548 0.93596 0.98497 0.0
H581 H 0.29931 0.85357 0.96134 0.0
H582 H 0.28351 0.78518 0.97154 0.0
H583 H 0.1647 0.62746 0.97079 0.0
H584 H 0.18389 0.67903 0.98665 0.0
H585 H 0.25096 0.6631 0.9681 0.0
H586 H 0.23194 0.61173 0.95213 0.0
H587 H 0.23981 0.75123 0.97181 0.0
H588 H 0.24256 0.61529 -0.00265 0.0
H589 H 0.2258 0.54789 0.00759 0.0
H590 H 0.17991 0.63123 0.02974 0.0
H591 H 0.19617 0.69915 0.01949 0.0
C592 C 0.30121 0.84463 0.01994 0.0
C593 C 0.28985 0.86501 0.03038 0.0
C594 C 0.28859 0.81565 0.0114 0.0
C595 C 0.26431 0.80666 0.01304 0.0
C596 C 0.25283 0.82704 0.0234 0.0
C597 C 0.26546 0.85613 0.03197 0.0
C598 C 0.25123 0.77491 0.00411 0.0
C599 C 0.2406 0.73668 0.00943 0.0
C600 C 0.25075 0.78044 0.99038 0.0
C601 C 0.26029 0.82151 0.98421 0.0
C602 C 0.25243 0.86445 0.98787 0.0
C603 C 0.26156 0.90302 0.98208 0.0
C604 C 0.27847 0.89909 0.97253 0.0
C605 C 0.28623 0.85657 0.96874 0.0
C606 C 0.27717 0.81788 0.97452 0.0
C607 C 0.1836 0.6345 0.97015 0.0
C608 C 0.19677 0.61553 0.96016 0.0
C609 C 0.19454 0.66391 0.97925 0.0
C610 C 0.21885 0.67479 0.97856 0.0
C611 C 0.23216 0.65518 0.96878 0.0
C612 C 0.22127 0.62567 0.9597 0.0
C613 C 0.23018 0.70818 0.98764 0.0
C614 C 0.24042 0.7468 0.98233 0.0
C615 C 0.2302 0.70307 0.00137 0.0
C616 C 0.2204 0.66227 0.00755 0.0
C617 C 0.22874 0.61923 0.00432 0.0
C618 C 0.21936 0.58093 0.01014 0.0
C619 C 0.20175 0.58526 0.01928 0.0
C620 C 0.19352 0.62792 0.02265 0.0
C621 C 0.20283 0.66633 0.01684 0.0
H622 H 0.19451 0.55557 0.02379 0.0
H623 H 0.28551 0.92899 0.96805 0.0
H624 H 0.09197 0.47699 0.9739 0.0
H625 H 0.05885 0.46126 0.98793 0.0
H626 H 0.01428 0.55463 0.96568 0.0
H627 H 0.04742 0.57086 0.95163 0.0
H628 H 0.01017 0.56508 0.99191 0.0
H629 H 0.00723 0.44375 0.96102 0.0
H630 H 0.02339 0.38041 0.94862 0.0
H631 H 0.03989 0.30946 0.98441 0.0
H632 H 0.02414 0.3727 -0.00296 0.0
H633 H 0.89841 0.49792 0.01503 0.0
H634 H 0.93154 0.51288 0.00094 0.0
H635 H 0.97595 0.41995 0.02344 0.0
H636 H 0.94278 0.40446 0.03755 0.0
H637 H 0.98019 0.4091 -0.00289 0.0
H638 H 0.98308 0.53082 0.02797 0.0
H639 H 0.96689 0.59435 0.04027 0.0
H640 H 0.95033 0.66466 0.00438 0.0
H641 H 0.96613 0.60124 0.99185 0.0
C642 C 0.07514 0.49428 0.972 0.0
C643 C 0.07227 0.52507 0.96163 0.0
C644 C 0.05621 0.4851 0.98 0.0
C645 C 0.03404 0.50639 0.97774 0.0
C646 C 0.03125 0.53777 0.96756 0.0
C647 C 0.05017 0.54692 0.95953 0.0
C648 C 0.01378 0.4959 0.98603 0.0
C649 C 0.00339 0.53108 0.99291 0.0
C650 C 0.00534 0.45136 0.98755 0.0
C651 C 0.01472 0.41317 0.97998 0.0
C652 C 0.01448 0.4148 0.96625 0.0
C653 C 0.02353 0.37889 0.95918 0.0
C654 C 0.03272 0.34099 0.96573 0.0
C655 C 0.0328 0.33887 0.97936 0.0
C656 C 0.0238 0.37473 0.98648 0.0
C657 C 0.9152 0.48055 0.01697 0.0
C658 C 0.91802 0.45014 0.02744 0.0
C659 C 0.93413 0.48928 0.00894 0.0
C660 C 0.95627 0.46792 0.01125 0.0
C661 C 0.95901 0.43685 0.02152 0.0
C662 C 0.94008 0.42814 0.02959 0.0
C663 C 0.97657 0.47829 0.00298 0.0
C664 C 0.98698 0.44309 -0.00389 0.0
C665 C 0.98502 0.52283 0.00145 0.0
C666 C 0.97557 0.56108 0.00897 0.0
C667 C 0.97581 0.55967 0.02269 0.0
C668 C 0.96673 0.59569 0.02971 0.0
C669 C 0.95753 0.63346 0.02311 0.0
C670 C 0.95744 0.63535 0.00948 0.0
C671 C 0.96647 0.59939 0.00241 0.0
H672 H 0.95052 0.66132 0.02856 0.0
H673 H 0.03971 0.31321 0.96024 0.0
H674 H 0.30946 0.42695 0.19698 0.0
H675 H 0.27662 0.44913 0.2105 0.0
H676 H 0.32563 0.52703 0.2352 0.0
H677 H 0.35866 0.50467 0.2218 0.0
H678 H 0.29506 0.47849 0.24938 0.0
H679 H 0.28965 0.57948 0.21308 0.0
H680 H 0.28746 0.60101 0.18981 0.0
H681 H 0.22164 0.52769 0.18404 0.0
H682 H 0.22361 0.50518 0.20724 0.0
H683 H 0.2046 0.5948 0.28206 0.0
H684 H 0.23854 0.58113 0.26837 0.0
H685 H 0.19397 0.49774 0.24276 0.0
H686 H 0.15995 0.51141 0.25632 0.0
H687 H 0.22326 0.55344 0.22921 0.0
H688 H 0.23015 0.44974 0.26543 0.0
H689 H 0.23263 0.42867 0.28874 0.0
H690 H 0.29621 0.50859 0.29465 0.0
H691 H 0.2939 0.53065 0.27141 0.0
C692 C 0.31329 0.4486 0.20533 0.0
C693 C 0.33663 0.4642 0.2083 0.0
C694 C 0.29448 0.46144 0.213 0.0
C695 C 0.29867 0.49025 0.22373 0.0
C696 C 0.32204 0.50492 0.22693 0.0
C697 C 0.34086 0.49214 0.21925 0.0
C698 C 0.2786 0.50508 0.2316 0.0
C699 C 0.27952 0.49551 0.24502 0.0
C700 C 0.2582 0.52668 0.22583 0.0
C701 C 0.25689 0.5403 0.21188 0.0
C702 C 0.2748 0.56765 0.20682 0.0
C703 C 0.27359 0.58009 0.19365 0.0
C704 C 0.25446 0.56564 0.18544 0.0
C705 C 0.23647 0.53882 0.1904 0.0
C706 C 0.23761 0.52624 0.20357 0.0
C707 C 0.20197 0.57392 0.27344 0.0
C708 C 0.17966 0.55393 0.27031 0.0
C709 C 0.22139 0.56603 0.26567 0.0
C710 C 0.2188 0.538 0.25465 0.0
C711 C 0.19633 0.51942 0.25123 0.0
C712 C 0.17694 0.52716 0.25902 0.0
C713 C 0.23967 0.52651 0.24696 0.0
C714 C 0.23888 0.53669 0.23358 0.0
C715 C 0.26024 0.50562 0.25276 0.0
C716 C 0.2617 0.49224 0.26672 0.0
C717 C 0.24455 0.46312 0.27173 0.0
C718 C 0.24594 0.45094 0.28492 0.0
C719 C 0.26453 0.46739 0.29318 0.0
C720 C 0.2818 0.49595 0.28825 0.0
C721 C 0.28046 0.50827 0.27507 0.0
H722 H 0.26558 0.45792 0.30339 0.0
H723 H 0.25355 0.57531 0.17525 0.0
H724 H 0.73419 0.11729 0.94682 0.0
H725 H 0.75486 0.16747 0.96254 0.0
H726 H 0.68982 0.18308 0.98305 0.0
H727 H 0.66891 0.13338 0.96733 0.0
H728 H 0.71045 0.26329 0.97842 0.0
H729 H 0.73561 0.11981 -0.00417 0.0
H730 H 0.75324 0.0439 -0.00495 0.0
H731 H 0.81999 0.10056 0.98406 0.0
H732 H 0.80265 0.17681 0.98461 0.0
H733 H 0.75754 0.36818 0.03624 0.0
H734 H 0.73822 0.31869 0.01991 0.0
H735 H 0.80526 0.30271 0.0013 0.0
H736 H 0.82488 0.35152 0.01776 0.0
H737 H 0.78437 0.22341 0.00442 0.0
H738 H 0.7598 0.36684 0.98737 0.0
H739 H 0.74238 0.44295 0.98799 0.0
H740 H 0.67487 0.38696 -0.00203 0.0
H741 H 0.69198 0.31052 -0.00242 0.0
C742 C 0.72432 0.13099 0.95475 0.0
C743 C 0.69987 0.12134 0.9558 0.0
C744 C 0.73619 0.15961 0.96374 0.0
C745 C 0.72389 0.17887 0.97398 0.0
C746 C 0.69962 0.16865 0.9752 0.0
C747 C 0.68774 0.14007 0.96622 0.0
C748 C 0.73603 0.21102 0.98316 0.0
C749 C 0.72644 0.25442 0.98424 0.0
C750 C 0.75728 0.1998 0.99044 0.0
C751 C 0.76775 0.15398 0.99013 0.0
C752 C 0.75398 0.11606 0.99314 0.0
C753 C 0.76394 0.07297 0.99276 0.0
C754 C 0.7877 0.0674 0.98947 0.0
C755 C 0.80158 0.10492 0.98659 0.0
C756 C 0.7917 0.14808 0.98694 0.0
C757 C 0.76816 0.35456 0.0286 0.0
C758 C 0.79278 0.36382 0.02832 0.0
C759 C 0.75705 0.32635 0.01924 0.0
C760 C 0.77026 0.30727 0.00932 0.0
C761 C 0.79474 0.31704 0.00888 0.0
C762 C 0.8059 0.34509 0.01827 0.0
C763 C 0.75872 0.27567 -0.00026 0.0
C764 C 0.76842 0.23238 -0.00143 0.0
C765 C 0.73761 0.28703 0.99235 0.0
C766 C 0.72724 0.33297 0.99256 0.0
C767 C 0.74129 0.37078 0.9898 0.0
C768 C 0.73146 0.41398 0.99009 0.0
C769 C 0.70755 0.4198 0.99305 0.0
C770 C 0.6934 0.38241 -0.00431 0.0
C771 C 0.70314 0.33913 -0.00458 0.0
H772 H 0.69997 0.45327 -0.00673 0.0
H773 H 0.79537 0.03401 0.98919 0.0
H774 H 0.6448 0.48684 0.75964 0.0
H775 H 0.67839 0.47043 0.74597 0.0
H776 H 0.7237 0.55826 0.76984 0.0
H777 H 0.69016 0.57528 0.78346 0.0
H778 H 0.73051 0.57007 0.74409 0.0
H779 H 0.72659 0.44569 0.77393 0.0
H780 H 0.70714 0.38283 0.78504 0.0
H781 H 0.69261 0.31738 0.74812 0.0
H782 H 0.71169 0.38021 0.73677 0.0
H783 H 0.84333 0.49615 0.72454 0.0
H784 H 0.80897 0.51217 0.73766 0.0
H785 H 0.76512 0.42376 0.71317 0.0
H786 H 0.79948 0.40712 0.70008 0.0
H787 H 0.75707 0.41202 0.73885 0.0
H788 H 0.76153 0.53589 0.70904 0.0
H789 H 0.78105 0.5987 0.69794 0.0
H790 H 0.79456 0.66512 0.73479 0.0
H791 H 0.77541 0.60236 0.74614 0.0
C792 C 0.66187 0.50289 0.76193 0.0
C793 C 0.66488 0.53218 0.77266 0.0
C794 C 0.68106 0.49332 0.75415 0.0
C795 C 0.70359 0.51267 0.75702 0.0
C796 C 0.70646 0.54291 0.7675 0.0
C797 C 0.68729 0.55251 0.77528 0.0
C798 C 0.7243 0.50088 0.74923 0.0
C799 C 0.73651 0.53558 0.74307 0.0
C800 C 0.73175 0.45576 0.74768 0.0
C801 C 0.72035 0.41787 0.75449 0.0
C802 C 0.71908 0.41807 0.76817 0.0
C803 C 0.70815 0.38241 0.77451 0.0
C804 C 0.69858 0.34619 0.76729 0.0
C805 C 0.69999 0.3455 0.75371 0.0
C806 C 0.71088 0.3811 0.74731 0.0
C807 C 0.82641 0.4799 0.72199 0.0
C808 C 0.82406 0.45055 0.71124 0.0
C809 C 0.80678 0.48925 0.72946 0.0
C810 C 0.78444 0.46964 0.72626 0.0
C811 C 0.78221 0.43933 0.71576 0.0
C812 C 0.80183 0.42994 0.70829 0.0
C813 C 0.76333 0.48123 0.73376 0.0
C814 C 0.75105 0.4465 0.73986 0.0
C815 C 0.75581 0.52633 0.73525 0.0
C816 C 0.76724 0.56421 0.72845 0.0
C817 C 0.76883 0.56372 0.71479 0.0
C818 C 0.7798 0.59934 0.70845 0.0
C819 C 0.78909 0.63582 0.71566 0.0
C820 C 0.78738 0.63681 0.72922 0.0
C821 C 0.77646 0.60124 0.73561 0.0
H822 H 0.79757 0.66338 0.71074 0.0
H823 H 0.69013 0.31862 0.77222 0.0
H824 H 0.59514 0.98435 0.97327 0.0
H825 H 0.56186 0.96563 0.98694 0.0
H826 H 0.51573 0.05448 0.96401 0.0
H827 H 0.54897 0.07388 0.95042 0.0
H828 H 0.50907 0.06402 0.98961 0.0
H829 H 0.5136 0.94122 0.95926 0.0
H830 H 0.53332 0.87945 0.94784 0.0
H831 H 0.5485 0.8126 0.98443 0.0
H832 H 0.52915 0.87433 -0.0039 0.0
H833 H 0.39709 0.98761 0.00916 0.0
H834 H 0.43099 0.00263 -0.00438 0.0
H835 H 0.47564 0.91675 0.02035 0.0
H836 H 0.44174 0.9012 0.03391 0.0
H837 H 0.4836 0.90495 -0.00572 0.0
H838 H 0.47853 0.02768 0.02455 0.0
H839 H 0.45852 0.08938 0.03586 0.0
H840 H 0.44415 0.15637 -0.00079 0.0
H841 H 0.46377 0.09471 0.98765 0.0
C842 C 0.57795 0.00013 0.97119 0.0
C843 C 0.57464 0.03046 0.96074 0.0
C844 C 0.55893 0.98921 0.97897 0.0
C845 C 0.53625 0.00817 0.97636 0.0
C846 C 0.53308 0.03937 0.96616 0.0
C847 C 0.55208 0.05037 0.9584 0.0
C848 C 0.51572 -0.00473 0.98418 0.0
C849 C 0.50332 0.0293 0.9905 0.0
C850 C 0.50858 0.94985 0.98557 0.0
C851 C 0.52015 0.91263 0.97857 0.0
C852 C 0.52132 0.91353 0.96489 0.0
C853 C 0.5324 0.8785 0.95836 0.0
C854 C 0.54222 0.84219 0.96541 0.0
C855 C 0.54092 0.84078 0.97899 0.0
C856 C 0.52988 0.87577 0.98556 0.0
C857 C 0.41405 0.97151 0.01165 0.0
C858 C 0.4168 0.94348 0.02266 0.0
C859 C 0.43341 0.98028 0.00393 0.0
C860 C 0.45588 0.96136 0.00712 0.0
C861 C 0.45845 0.93181 0.01777 0.0
C862 C 0.43908 0.92304 0.02551 0.0
C863 C 0.47689 0.97374 -0.00038 0.0
C864 C 0.48938 0.93964 -0.00661 0.0
C865 C 0.48411 0.01911 -0.00171 0.0
C866 C 0.47242 0.05636 0.00523 0.0
C867 C 0.47094 0.0554 0.01889 0.0
C868 C 0.45969 0.09039 0.02535 0.0
C869 C 0.45002 0.12672 0.01825 0.0
C870 C 0.45162 0.12818 0.00469 0.0
C871 C 0.46282 0.09324 -0.00182 0.0
H872 H 0.44132 0.15378 0.02327 0.0
H873 H 0.55079 0.81509 0.96034 0.0
H874 H 0.42658 0.34821 0.21523 0.0
H875 H 0.44526 0.29562 0.23082 0.0
H876 H 0.5128 0.31238 0.21277 0.0
H877 H 0.49413 0.36467 0.19692 0.0
H878 H 0.50313 0.22491 0.21677 0.0
H879 H 0.5032 0.35978 0.24239 0.0
H880 H 0.48584 0.42733 0.25221 0.0
H881 H 0.43757 0.34444 0.27303 0.0
H882 H 0.45442 0.27638 0.26318 0.0
H883 H 0.57453 0.12077 0.26769 0.0
H884 H 0.55623 0.17096 0.25125 0.0
H885 H 0.4878 0.15438 0.26835 0.0
H886 H 0.50599 0.10444 0.28495 0.0
H887 H 0.49845 0.24202 0.26475 0.0
H888 H 0.49853 0.10706 0.23906 0.0
H889 H 0.51608 0.03968 0.22924 0.0
H890 H 0.56446 0.12299 0.20864 0.0
H891 H 0.54741 0.19088 0.21848 0.0
C892 C 0.44547 0.34109 0.21461 0.0
C893 C 0.45887 0.36073 0.20482 0.0
C894 C 0.45613 0.31107 0.22357 0.0
C895 C 0.48046 0.30036 0.22303 0.0
C896 C 0.49399 0.32022 0.21336 0.0
C897 C 0.48331 0.35024 0.20435 0.0
C898 C 0.49152 0.26734 0.23231 0.0
C899 C 0.50245 0.22897 0.22727 0.0
C900 C 0.49007 0.27212 0.24599 0.0
C901 C 0.47993 0.313 0.25195 0.0
C902 C 0.48875 0.35597 0.24898 0.0
C903 C 0.47903 0.39435 0.25457 0.0
C904 C 0.46058 0.39019 0.26321 0.0
C905 C 0.45185 0.34761 0.26632 0.0
C906 C 0.46149 0.30912 0.26075 0.0
C907 C 0.55551 0.12727 0.26787 0.0
C908 C 0.54174 0.10869 0.27768 0.0
C909 C 0.54507 0.15589 0.25843 0.0
C910 C 0.52064 0.16629 0.25856 0.0
C911 C 0.5067 0.14682 0.2681 0.0
C912 C 0.51712 0.11814 0.27754 0.0
C913 C 0.50996 0.19949 0.24922 0.0
C914 C 0.49913 0.23795 0.25425 0.0
C915 C 0.51156 0.19481 0.23554 0.0
C916 C 0.52185 0.15403 0.22961 0.0
C917 C 0.51305 0.111 0.23252 0.0
C918 C 0.52288 0.07271 0.22694 0.0
C919 C 0.54142 0.07704 0.21835 0.0
C920 C 0.55012 0.11968 0.21531 0.0
C921 C 0.54037 0.15808 0.22087 0.0
H922 H 0.549 0.04736 0.21404 0.0
H923 H 0.45307 0.41994 0.26753 0.0
H924 H 0.48553 0.88649 0.69949 0.0
H925 H 0.50661 0.83614 0.71498 0.0
H926 H 0.44309 0.82467 0.73701 0.0
H927 H 0.42186 0.87502 0.72162 0.0
H928 H 0.48513 0.83057 0.75282 0.0
H929 H 0.45359 0.74653 0.71541 0.0
H930 H 0.44805 0.72991 0.69187 0.0
H931 H 0.52377 0.7116 0.68935 0.0
H932 H 0.52979 0.72877 0.71285 0.0
H933 H 0.50716 0.62748 0.78691 0.0
H934 H 0.48899 0.68328 0.77203 0.0
H935 H 0.55295 0.6856 0.75014 0.0
H936 H 0.57127 0.62965 0.76491 0.0
H937 H 0.51237 0.68613 0.73421 0.0
H938 H 0.54439 0.76696 0.77141 0.0
H939 H 0.55085 0.78448 0.79484 0.0
H940 H 0.47581 0.81007 0.79773 0.0
H941 H 0.46884 0.79202 0.77434 0.0
C942 C 0.47616 0.87395 0.70776 0.0
C943 C 0.45193 0.88438 0.70925 0.0
C944 C 0.4882 0.84505 0.71656 0.0
C945 C 0.47626 0.82624 0.72699 0.0
C946 C 0.45257 0.83876 0.72897 0.0
C947 C 0.44046 0.86742 0.72014 0.0
C948 C 0.48784 0.79112 0.73531 0.0
C949 C 0.4909 0.79881 0.74879 0.0
C950 C 0.49579 0.75014 0.72997 0.0
C951 C 0.49216 0.73941 0.71586 0.0
C952 C 0.46907 0.73931 0.70982 0.0
C953 C 0.46584 0.72973 0.69649 0.0
C954 C 0.48555 0.71984 0.68911 0.0
C955 C 0.50852 0.71935 0.69507 0.0
C956 C 0.51185 0.72897 0.7084 0.0
C957 C 0.51727 0.63939 0.77884 0.0
C958 C 0.54073 0.62432 0.77716 0.0
C959 C 0.50691 0.67149 0.7704 0.0
C960 C 0.5198 0.68904 0.76013 0.0
C961 C 0.54277 0.67261 0.75806 0.0
C962 C 0.5532 0.64067 0.76652 0.0
C963 C 0.50954 0.72539 0.75175 0.0
C964 C 0.50671 0.71794 0.73825 0.0
C965 C 0.50194 0.76667 0.75708 0.0
C966 C 0.50605 0.77768 0.77115 0.0
C967 C 0.52923 0.77594 0.77707 0.0
C968 C 0.53299 0.78604 0.79034 0.0
C969 C 0.51374 0.79827 0.79778 0.0
C970 C 0.4907 0.80053 0.79195 0.0
C971 C 0.48683 0.7904 0.77869 0.0
H972 H 0.51669 0.80608 0.80805 0.0
H973 H 0.48302 0.71245 0.67879 0.0
H974 H 0.40121 0.50515 0.51356 0.0
H975 H 0.43602 0.52169 0.5009 0.0
H976 H 0.47673 0.42113 0.52259 0.0
H977 H 0.44199 0.40474 0.53547 0.0
H978 H 0.50166 0.49879 0.52051 0.0
H979 H 0.45652 0.40061 0.49149 0.0
H980 H 0.42073 0.37398 0.4788 0.0
H981 H 0.41836 0.49751 0.45704 0.0
H982 H 0.45397 0.52515 0.46973 0.0
H983 H 0.59879 0.48675 0.47823 0.0
H984 H 0.5648 0.47208 0.49171 0.0
H985 H 0.52294 0.57016 0.46966 0.0
H986 H 0.55677 0.58448 0.45596 0.0
H987 H 0.4987 0.4934 0.47205 0.0
H988 H 0.54388 0.59165 0.50102 0.0
H989 H 0.57962 0.61843 0.51373 0.0
H990 H 0.58195 0.49508 0.53558 0.0
H991 H 0.5464 0.46729 0.52287 0.0
C992 C 0.41751 0.48631 0.5156 0.0
C993 C 0.41885 0.45355 0.5255 0.0
C994 C 0.43737 0.49573 0.50832 0.0
C995 C 0.45889 0.47236 0.51073 0.0
C996 C 0.46027 0.43951 0.52058 0.0
C997 C 0.44039 0.43007 0.52788 0.0
C998 C 0.48007 0.483 0.50315 0.0
C999 C 0.50116 0.49699 0.50992 0.0
C1000 C 0.47915 0.48174 0.48933 0.0
C1001 C 0.45779 0.46512 0.48164 0.0
C1002 C 0.44826 0.42225 0.48407 0.0
C1003 C 0.42802 0.40694 0.47686 0.0
C1004 C 0.41724 0.43408 0.46714 0.0
C1005 C 0.42672 0.47654 0.46458 0.0
C1006 C 0.44694 0.49203 0.47177 0.0
C1007 C 0.58245 0.50561 0.47634 0.0
C1008 C 0.58044 0.53675 0.46602 0.0
C1009 C 0.56305 0.49727 0.48408 0.0
C1010 C 0.54138 0.52023 0.48174 0.0
C1011 C 0.5395 0.55205 0.47162 0.0
C1012 C 0.55887 0.56032 0.46384 0.0
C1013 C 0.52032 0.50937 0.4894 0.0
C1014 C 0.49923 0.49526 0.48264 0.0
C1015 C 0.52126 0.51055 0.50323 0.0
C1016 C 0.54261 0.52722 0.5109 0.0
C1017 C 0.55213 0.57008 0.50846 0.0
C1018 C 0.57233 0.58547 0.51568 0.0
C1019 C 0.58309 0.55843 0.52543 0.0
C1020 C 0.57362 0.51598 0.52801 0.0
C1021 C 0.55343 0.50041 0.52081 0.0
H1022 H 0.59872 0.57041 0.53101 0.0
H1023 H 0.40157 0.42218 0.46158 0.0
H1024 H 0.08922 0.63734 0.34592 0.0
H1025 H 0.09478 0.69913 0.36139 0.0
H1026 H 0.13994 0.7676 0.33474 0.0
H1027 H 0.13492 0.70509 0.31924 0.0
H1028 H 0.15794 0.77521 0.35923 0.0
H1029 H 0.08252 0.80003 0.33716 0.0
H1030 H 0.04203 0.78089 0.32833 0.0
H1031 H 0.01966 0.75466 0.36713 0.0
H1032 H 0.06013 0.77304 0.37617 0.0
H1033 H 0.10293 0.98663 0.39218 0.0
H1034 H 0.1021 0.92743 0.37578 0.0
H1035 H 0.14902 0.84644 0.40077 0.0
H1036 H 0.15071 0.90689 0.41712 0.0
H1037 H 0.08565 0.84819 0.37579 0.0
H1038 H 0.182 0.77666 0.38236 0.0
H1039 H 0.22267 0.80328 0.38874 0.0
H1040 H 0.20354 0.93736 0.37665 0.0
H1041 H 0.16288 0.91143 0.37005 0.0
C1042 C 0.10036 0.66548 0.34331 0.0
C1043 C 0.11145 0.66649 0.33128 0.0
C1044 C 0.10349 0.70081 0.35217 0.0
C1045 C 0.11747 0.73823 0.34913 0.0
C1046 C 0.12904 0.73901 0.33726 0.0
C1047 C 0.12607 0.70339 0.3284 0.0
C1048 C 0.11942 0.77688 0.35824 0.0
C1049 C 0.14217 0.79128 0.36286 0.0
C1050 C 0.09884 0.79849 0.36271 0.0
C1051 C 0.07442 0.78753 0.35733 0.0
C1052 C 0.06901 0.78986 0.3438 0.0
C1053 C 0.04606 0.7792 0.33875 0.0
C1054 C 0.0283 0.76647 0.34716 0.0
C1055 C 0.03344 0.76448 0.36063 0.0
C1056 C 0.05638 0.77506 0.36572 0.0
C1057 C 0.11314 0.95628 0.39421 0.0
C1058 C 0.12689 0.95133 0.40595 0.0
C1059 C 0.11262 0.9224 0.38481 0.0
C1060 C 0.12559 0.88256 0.38698 0.0
C1061 C 0.1392 0.87724 0.39877 0.0
C1062 C 0.14004 0.91161 0.40814 0.0
C1063 C 0.12421 0.84641 0.37697 0.0
C1064 C 0.10149 0.83229 0.3722 0.0
C1065 C 0.14485 0.8263 0.37202 0.0
C1066 C 0.16932 0.84215 0.37585 0.0
C1067 C 0.1865 0.81178 0.38103 0.0
C1068 C 0.20955 0.82676 0.38469 0.0
C1069 C 0.21566 0.87201 0.38314 0.0
C1070 C 0.19876 0.90235 0.37789 0.0
C1071 C 0.1757 0.88754 0.37421 0.0
H1072 H 0.2335 0.88354 0.38599 0.0
H1073 H 0.01054 0.75823 0.34324 0.0
H1074 H 0.15928 0.13534 0.38344 0.0
H1075 H 0.15404 0.19668 0.36782 0.0
H1076 H 0.11263 0.2701 0.39521 0.0
H1077 H 0.1172 0.20793 0.41084 0.0
H1078 H 0.09334 0.27926 0.37132 0.0
H1079 H 0.17131 0.2964 0.3913 0.0
H1080 H 0.21183 0.27318 0.399 0.0
H1081 H 0.22946 0.24358 0.35956 0.0
H1082 H 0.18891 0.26605 0.35165 0.0
H1083 H 0.1513 0.4838 0.33645 0.0
H1084 H 0.15203 0.42499 0.35296 0.0
H1085 H 0.10094 0.34764 0.32934 0.0
H1086 H 0.09943 0.40763 0.3129 0.0
H1087 H 0.16606 0.3439 0.35266 0.0
H1088 H 0.06733 0.28265 0.34886 0.0
H1089 H 0.02714 0.31344 0.34353 0.0
H1090 H 0.05156 0.4456 0.35476 0.0
H1091 H 0.09179 0.41552 0.36032 0.0
C1092 C 0.14902 0.16449 0.38616 0.0
C1093 C 0.13886 0.16703 0.39843 0.0
C1094 C 0.14607 0.19955 0.37722 0.0
C1095 C 0.13332 0.23829 0.38045 0.0
C1096 C 0.1226 0.24052 0.39255 0.0
C1097 C 0.12529 0.20509 0.40147 0.0
C1098 C 0.1318 0.27675 0.37127 0.0
C1099 C 0.10921 0.29349 0.36724 0.0
C1100 C 0.15256 0.29599 0.36619 0.0
C1101 C 0.177 0.28253 0.3709 0.0
C1102 C 0.18377 0.28462 0.38428 0.0
C1103 C 0.20675 0.27165 0.38868 0.0
C1104 C 0.22319 0.25681 0.37978 0.0
C1105 C 0.2167 0.25503 0.36645 0.0
C1106 C 0.19373 0.26792 0.362 0.0
C1107 C 0.14018 0.45431 0.33474 0.0
C1108 C 0.12529 0.45028 0.32337 0.0
C1109 C 0.14064 0.42067 0.34421 0.0
C1110 C 0.12641 0.38205 0.34246 0.0
C1111 C 0.11174 0.37756 0.33102 0.0
C1112 C 0.11101 0.41165 0.32159 0.0
C1113 C 0.12755 0.34621 0.35254 0.0
C1114 C 0.15013 0.32981 0.35672 0.0
C1115 C 0.10683 0.32851 0.35808 0.0
C1116 C 0.08264 0.34687 0.35486 0.0
C1117 C 0.0641 0.31825 0.35023 0.0
C1118 C 0.04131 0.33558 0.34716 0.0
C1119 C 0.03682 0.38147 0.34876 0.0
C1120 C 0.05509 0.4101 0.35347 0.0
C1121 C 0.07789 0.39293 0.35657 0.0
H1122 H 0.01918 0.39482 0.34638 0.0
H1123 H 0.24098 0.24679 0.3832 0.0
H1124 H 0.12926 0.18359 0.82691 0.0
H1125 H 0.13868 0.24016 0.84375 0.0
H1126 H 0.10699 0.15555 0.87253 0.0
H1127 H 0.09673 0.09993 0.85567 0.0
H1128 H 0.09064 0.23428 0.87483 0.0
H1129 H 0.16907 0.1752 0.87197 0.0
H1130 H 0.20537 0.15049 0.86128 0.0
H1131 H 0.21642 0.28478 0.84729 0.0
H1132 H 0.17999 0.3102 0.85774 0.0
H1133 H 0.16336 0.39753 0.92148 0.0
H1134 H 0.16239 0.32966 0.90776 0.0
H1135 H 0.10411 0.3859 0.88405 0.0
H1136 H 0.10458 0.4528 0.89778 0.0
H1137 H 0.16811 0.31389 0.88211 0.0
H1138 H 0.06438 0.307 0.87562 0.0
H1139 H 0.02923 0.32702 0.88806 0.0
H1140 H 0.07105 0.3138 0.92407 0.0
H1141 H 0.10635 0.29306 0.91186 0.0
C1142 C 0.12454 0.17693 0.83686 0.0
C1143 C 0.11205 0.1376 0.83996 0.0
C1144 C 0.13007 0.20914 0.8465 0.0
C1145 C 0.12369 0.20203 0.85946 0.0
C1146 C 0.11199 0.16194 0.86261 0.0
C1147 C 0.10611 0.13019 0.85296 0.0
C1148 C 0.12742 0.23774 0.8695 0.0
C1149 C 0.10766 0.25139 0.87646 0.0
C1150 C 0.14972 0.25961 0.87185 0.0
C1151 C 0.17168 0.24452 0.86557 0.0
C1152 C 0.17914 0.1994 0.86654 0.0
C1153 C 0.19976 0.18528 0.86053 0.0
C1154 C 0.21317 0.21602 0.85359 0.0
C1155 C 0.20601 0.26099 0.85266 0.0
C1156 C 0.18539 0.27529 0.85864 0.0
C1157 C 0.15038 0.39531 0.91333 0.0
C1158 C 0.13387 0.43021 0.91079 0.0
C1159 C 0.1499 0.35668 0.90549 0.0
C1160 C 0.13293 0.3525 0.89503 0.0
C1161 C 0.11703 0.38802 0.89224 0.0
C1162 C 0.11736 0.4263 0.90009 0.0
C1163 C 0.13121 0.3108 0.8871 0.0
C1164 C 0.15125 0.29622 0.88055 0.0
C1165 C 0.10934 0.28713 0.88536 0.0
C1166 C 0.08806 0.29879 0.89281 0.0
C1167 C 0.06604 0.30811 0.8862 0.0
C1168 C 0.0461 0.31964 0.89321 0.0
C1169 C 0.04793 0.32179 0.90684 0.0
C1170 C 0.06968 0.31225 0.9135 0.0
C1171 C 0.08967 0.30066 0.90654 0.0
H1172 H 0.03248 0.33078 0.91225 0.0
H1173 H 0.22912 0.20502 0.84894 0.0
H1174 H 0.09605 0.65873 0.90662 0.0
H1175 H 0.08579 0.71825 0.89071 0.0
H1176 H 0.15927 0.72372 0.8799 0.0
H1177 H 0.16959 0.66404 0.89554 0.0
H1178 H 0.13701 0.80983 0.88483 0.0
H1179 H 0.12295 0.66923 0.86095 0.0
H1180 H 0.10351 0.59536 0.85748 0.0
H1181 H 0.0345 0.65858 0.85607 0.0
H1182 H 0.05355 0.7328 0.85972 0.0
H1183 H 0.14751 0.91885 0.8262 0.0
H1184 H 0.14735 0.86035 0.84284 0.0
H1185 H 0.07018 0.86174 0.84136 0.0
H1186 H 0.07023 0.91993 0.82431 0.0
H1187 H 0.08735 0.77686 0.84452 0.0
H1188 H 0.10011 0.91773 0.86536 0.0
H1189 H 0.11808 0.99272 0.86911 0.0
H1190 H 0.18671 0.93209 0.87737 0.0
H1191 H 0.16924 0.85673 0.87345 0.0
C1192 C 0.11002 0.67283 0.90089 0.0
C1193 C 0.13361 0.65668 0.90228 0.0
C1194 C 0.10411 0.70663 0.89181 0.0
C1195 C 0.12179 0.7251 0.88416 0.0
C1196 C 0.14542 0.70979 0.88575 0.0
C1197 C 0.15125 0.67561 0.89464 0.0
C1198 C 0.1159 0.76002 0.87428 0.0
C1199 C 0.12623 0.8027 0.87599 0.0
C1200 C 0.10105 0.75099 0.86304 0.0
C1201 C 0.08965 0.70644 0.86078 0.0
C1202 C 0.10362 0.66731 0.86003 0.0
C1203 C 0.09267 0.6254 0.858 0.0
C1204 C 0.06778 0.62226 0.8566 0.0
C1205 C 0.05378 0.66105 0.85718 0.0
C1206 C 0.06464 0.70304 0.85923 0.0
C1207 C 0.13048 0.90631 0.82929 0.0
C1208 C 0.10888 0.9242 0.82409 0.0
C1209 C 0.13041 0.87305 0.83884 0.0
C1210 C 0.10877 0.85764 0.84359 0.0
C1211 C 0.08708 0.87353 0.8379 0.0
C1212 C 0.08713 0.90663 0.82817 0.0
C1213 C 0.10921 0.82632 0.85483 0.0
C1214 C 0.0978 0.7844 0.85344 0.0
C1215 C 0.12278 0.83628 0.8665 0.0
C1216 C 0.13337 0.88154 0.86903 0.0
C1217 C 0.11907 0.92038 0.8679 0.0
C1218 C 0.12916 0.96297 0.87006 0.0
C1219 C 0.15352 0.96717 0.87346 0.0
C1220 C 0.16783 0.92877 0.87474 0.0
C1221 C 0.15784 0.8861 0.87256 0.0
H1222 H 0.16131 0.00017 0.87513 0.0
H1223 H 0.05933 0.58978 0.85502 0.0
H1224 H 0.91742 0.32705 0.64112 0.0
H1225 H 0.90441 0.27328 0.62432 0.0
H1226 H 0.83399 0.26974 0.63973 0.0
H1227 H 0.84714 0.32293 0.65691 0.0
H1228 H 0.84745 0.18773 0.6335 0.0
H1229 H 0.84381 0.32733 0.61138 0.0
H1230 H 0.85733 0.40221 0.60441 0.0
H1231 H 0.91582 0.34174 0.58521 0.0
H1232 H 0.90288 0.26652 0.59222 0.0
H1233 H 0.81776 0.05605 0.57528 0.0
H1234 H 0.81572 0.12116 0.59007 0.0
H1235 H 0.89248 0.13447 0.5903 0.0
H1236 H 0.89468 0.06932 0.57588 0.0
H1237 H 0.86546 0.21807 0.58734 0.0
H1238 H 0.87165 0.08065 0.61388 0.0
H1239 H 0.85703 0.00644 0.62081 0.0
H1240 H 0.79066 0.06596 0.63117 0.0
H1241 H 0.8048 0.14046 0.62411 0.0
C1242 C 0.89916 0.31486 0.64097 0.0
C1243 C 0.88327 0.32949 0.6503 0.0
C1244 C 0.89169 0.28433 0.63129 0.0
C1245 C 0.86804 0.26838 0.63056 0.0
C1246 C 0.85225 0.28196 0.64005 0.0
C1247 C 0.85981 0.31227 0.64986 0.0
C1248 C 0.86027 0.23682 0.61998 0.0
C1249 C 0.85083 0.19484 0.62336 0.0
C1250 C 0.8646 0.24607 0.60673 0.0
C1251 C 0.87241 0.29125 0.60239 0.0
C1252 C 0.85964 0.33 0.60574 0.0
C1253 C 0.86719 0.37252 0.60177 0.0
C1254 C 0.88743 0.37673 0.59438 0.0
C1255 C 0.90014 0.33842 0.59093 0.0
C1256 C 0.89268 0.29582 0.59488 0.0
C1257 C 0.83411 0.07335 0.57838 0.0
C1258 C 0.85639 0.0577 0.57453 0.0
C1259 C 0.83292 0.11031 0.58681 0.0
C1260 C 0.85396 0.13236 0.59123 0.0
C1261 C 0.87606 0.11788 0.58693 0.0
C1262 C 0.8773 0.0806 0.57876 0.0
C1263 C 0.85357 0.16885 0.60099 0.0
C1264 C 0.86147 0.21168 0.59743 0.0
C1265 C 0.84753 0.16062 0.61402 0.0
C1266 C 0.83913 0.11593 0.61831 0.0
C1267 C 0.85385 0.07781 0.61751 0.0
C1268 C 0.84567 0.03573 0.62149 0.0
C1269 C 0.82289 0.03145 0.62638 0.0
C1270 C 0.80827 0.06929 0.62735 0.0
C1271 C 0.81636 0.11144 0.62336 0.0
H1272 H 0.8166 -0.00115 0.62946 0.0
H1273 H 0.89326 0.40968 0.59133 0.0
H1274 H 0.92638 0.55728 0.66289 0.0
H1275 H 0.92778 0.61757 0.64654 0.0
H1276 H 0.85078 0.61375 0.64162 0.0
H1277 H 0.8494 0.55303 0.6575 0.0
H1278 H 0.86917 0.61339 0.61886 0.0
H1279 H 0.88235 0.69916 0.65878 0.0
H1280 H 0.90345 0.71945 0.67964 0.0
H1281 H 0.9676 0.74561 0.6595 0.0
H1282 H 0.94693 0.72493 0.63853 0.0
H1283 H 0.83028 0.82246 0.59496 0.0
H1284 H 0.84195 0.76119 0.60974 0.0
H1285 H 0.91414 0.76784 0.59693 0.0
H1286 H 0.90251 0.82913 0.58182 0.0
H1287 H 0.9062 0.76358 0.6264 0.0
H1288 H 0.88876 0.68712 0.58571 0.0
H1289 H 0.86485 0.67072 0.56543 0.0
H1290 H 0.80568 0.63003 0.5879 0.0
H1291 H 0.82911 0.64687 0.60832 0.0
C1292 C 0.9098 0.56976 0.65839 0.0
C1293 C 0.88779 0.55044 0.6614 0.0
C1294 C 0.9106 0.60416 0.64907 0.0
C1295 C 0.88937 0.62015 0.64283 0.0
C1296 C 0.8674 0.60167 0.64618 0.0
C1297 C 0.86663 0.56708 0.65531 0.0
C1298 C 0.88961 0.65517 0.63253 0.0
C1299 C 0.87726 0.64622 0.62055 0.0
C1300 C 0.90077 0.69759 0.63454 0.0
C1301 C 0.9132 0.70994 0.64713 0.0
C1302 C 0.90101 0.70887 0.65882 0.0
C1303 C 0.91288 0.72051 0.67066 0.0
C1304 C 0.93688 0.73366 0.6709 0.0
C1305 C 0.94904 0.73531 0.6593 0.0
C1306 C 0.93725 0.72365 0.64744 0.0
C1307 C 0.84868 0.81112 0.59529 0.0
C1308 C 0.86548 0.83056 0.5872 0.0
C1309 C 0.85528 0.77609 0.60372 0.0
C1310 C 0.87884 0.76012 0.60435 0.0
C1311 C 0.89587 0.7799 0.59653 0.0
C1312 C 0.88917 0.81465 0.5879 0.0
C1313 C 0.8851 0.722 0.61306 0.0
C1314 C 0.89864 0.73033 0.62467 0.0
C1315 C 0.87475 0.67916 0.61082 0.0
C1316 C 0.86066 0.66854 0.59855 0.0
C1317 C 0.87059 0.67502 0.58633 0.0
C1318 C 0.85713 0.66558 0.57481 0.0
C1319 C 0.83376 0.6494 0.57538 0.0
C1320 C 0.8238 0.64256 0.58747 0.0
C1321 C 0.83717 0.65199 0.59902 0.0
H1322 H 0.82339 0.64204 0.56645 0.0
H1323 H 0.94604 0.74268 0.68007 0.0
H1324 H 0.87591 0.51357 0.09449 0.0
H1325 H 0.87399 0.57838 0.10913 0.0
H1326 H 0.83194 0.65075 0.07975 0.0
H1327 H 0.83316 0.58525 0.06509 0.0
H1328 H 0.87905 0.69255 0.09318 0.0
H1329 H 0.80146 0.62723 0.10084 0.0
H1330 H 0.77481 0.56413 0.10597 0.0
H1331 H 0.8138 0.54401 0.1426 0.0
H1332 H 0.84092 0.60657 0.13759 0.0
H1333 H 0.86968 0.87936 0.13459 0.0
H1334 H 0.85902 0.82099 0.11849 0.0
H1335 H 0.86573 0.71995 0.14876 0.0
H1336 H 0.87444 0.77896 0.16501 0.0
H1337 H 0.83259 0.69491 0.13326 0.0
H1338 H 0.91207 0.7478 0.12637 0.0
H1339 H 0.94344 0.80377 0.12228 0.0
H1340 H 0.90745 0.8392 0.0858 0.0
H1341 H 0.87571 0.78377 0.08975 0.0
C1342 C 0.86616 0.5432 0.09115 0.0
C1343 C 0.85471 0.54452 0.07866 0.0
C1344 C 0.86502 0.58002 0.09954 0.0
C1345 C 0.85275 0.619 0.09549 0.0
C1346 C 0.84138 0.6207 0.083 0.0
C1347 C 0.84208 0.58339 0.07469 0.0
C1348 C 0.8528 0.65843 0.10423 0.0
C1349 C 0.86854 0.69378 0.10181 0.0
C1350 C 0.83979 0.65864 0.1157 0.0
C1351 C 0.82334 0.62134 0.11878 0.0
C1352 C 0.80448 0.6091 0.10993 0.0
C1353 C 0.78926 0.57348 0.11283 0.0
C1354 C 0.79264 0.55001 0.12459 0.0
C1355 C 0.81121 0.5622 0.13349 0.0
C1356 C 0.82649 0.59777 0.13063 0.0
C1357 C 0.86852 0.84467 0.13777 0.0
C1358 C 0.87299 0.83332 0.15095 0.0
C1359 C 0.86263 0.8113 0.12858 0.0
C1360 C 0.86228 0.76577 0.1323 0.0
C1361 C 0.86595 0.75472 0.1456 0.0
C1362 C 0.87099 0.78834 0.15487 0.0
C1363 C 0.85908 0.72954 0.12234 0.0
C1364 C 0.84288 0.69446 0.12455 0.0
C1365 C 0.87229 0.72881 0.11085 0.0
C1366 C 0.89139 0.76202 0.10843 0.0
C1367 C 0.91078 0.76774 0.11752 0.0
C1368 C 0.92863 0.79933 0.11522 0.0
C1369 C 0.9274 0.82512 0.1038 0.0
C1370 C 0.90836 0.81926 0.09464 0.0
C1371 C 0.89044 0.78775 0.0969 0.0
H1372 H 0.94124 0.84957 0.10204 0.0
H1373 H 0.78084 0.52244 0.12681 0.0
H1374 H 0.83821 0.05228 0.1616 0.0
H1375 H 0.83813 0.11034 0.14481 0.0
H1376 H 0.91527 0.11445 0.1476 0.0
H1377 H 0.91543 0.05684 0.16477 0.0
H1378 H 0.89735 0.19737 0.14439 0.0
H1379 H 0.88689 0.05723 0.12288 0.0
H1380 H 0.86987 0.98184 0.11851 0.0
H1381 H 0.80103 0.04044 0.1094 0.0
H1382 H 0.81754 0.11618 0.11393 0.0
H1383 H 0.89214 0.31649 0.08253 0.0
H1384 H 0.90136 0.25632 0.09839 0.0
H1385 H 0.82725 0.25139 0.10805 0.0
H1386 H 0.81795 0.31182 0.09247 0.0
H1387 H 0.85003 0.16475 0.10326 0.0
H1388 H 0.86207 0.3049 0.12766 0.0
H1389 H 0.881 0.37899 0.13162 0.0
H1390 H 0.95028 0.31688 0.13403 0.0
H1391 H 0.93175 0.24245 0.1299 0.0
C1392 C 0.85516 0.06584 0.15874 0.0
C1393 C 0.87683 0.04979 0.16439 0.0
C1394 C 0.8551 0.09883 0.14909 0.0
C1395 C 0.87672 0.11583 0.14471 0.0
C1396 C 0.8984 0.10146 0.15077 0.0
C1397 C 0.89847 0.06866 0.16057 0.0
C1398 C 0.87636 0.14772 0.1336 0.0
C1399 C 0.8874 0.1899 0.1353 0.0
C1400 C 0.86346 0.13791 0.12171 0.0
C1401 C 0.85344 0.09242 0.11884 0.0
C1402 C 0.86808 0.05405 0.12003 0.0
C1403 C 0.85853 0.01124 0.11752 0.0
C1404 C 0.83438 0.00635 0.1137 0.0
C1405 C 0.81974 0.04428 0.11236 0.0
C1406 C 0.82919 0.08718 0.11489 0.0
C1407 C 0.87781 0.30236 0.08799 0.0
C1408 C 0.85433 0.3189 0.08631 0.0
C1409 C 0.88312 0.26817 0.09704 0.0
C1410 C 0.86497 0.24969 0.10436 0.0
C1411 C 0.84146 0.26533 0.10246 0.0
C1412 C 0.83622 0.29993 0.0936 0.0
C1413 C 0.87031 0.21461 0.11427 0.0
C1414 C 0.86028 0.17179 0.11228 0.0
C1415 C 0.88448 0.22357 0.12576 0.0
C1416 C 0.89556 0.26824 0.12831 0.0
C1417 C 0.88135 0.30711 0.12891 0.0
C1418 C 0.892 0.34915 0.13121 0.0
C1419 C 0.91683 0.35266 0.13303 0.0
C1420 C 0.93106 0.31412 0.13259 0.0
C1421 C 0.92049 0.27201 0.13028 0.0
H1422 H 0.92505 0.38523 0.13481 0.0
H1423 H 0.82702 0.97317 0.11176 0.0
H1424 H 0.57209 0.66691 0.84106 0.0
H1425 H 0.58341 0.72928 0.85558 0.0
H1426 H 0.65537 0.72507 0.84235 0.0
H1427 H 0.6441 0.66271 0.82754 0.0
H1428 H 0.64947 0.72878 0.87122 0.0
H1429 H 0.62679 0.80545 0.83139 0.0
H1430 H 0.60072 0.82116 0.81186 0.0
H1431 H 0.54366 0.85851 0.83624 0.0
H1432 H 0.56925 0.84232 0.85594 0.0
H1433 H 0.67165 0.93285 0.90802 0.0
H1434 H 0.6715 0.8741 0.89116 0.0
H1435 H 0.59429 0.87615 0.8888 0.0
H1436 H 0.59441 0.93559 0.90517 0.0
H1437 H 0.60977 0.87712 0.86546 0.0
H1438 H 0.6284 0.79066 0.90467 0.0
H1439 H 0.65194 0.77066 0.92478 0.0
H1440 H 0.71386 0.74841 0.90242 0.0
H1441 H 0.69072 0.76882 0.88219 0.0
C1442 C 0.59034 0.67914 0.84122 0.0
C1443 C 0.60721 0.65998 0.83315 0.0
C1444 C 0.59674 0.71481 0.8495 0.0
C1445 C 0.62016 0.73168 0.84995 0.0
C1446 C 0.6372 0.71236 0.84208 0.0
C1447 C 0.63071 0.67699 0.83361 0.0
C1448 C 0.62644 0.76969 0.85872 0.0
C1449 C 0.64127 0.76163 0.86987 0.0
C1450 C 0.61529 0.812 0.85698 0.0
C1451 C 0.59992 0.82239 0.84515 0.0
C1452 C 0.60863 0.8167 0.83259 0.0
C1453 C 0.59394 0.82574 0.82149 0.0
C1454 C 0.57054 0.84078 0.82281 0.0
C1455 C 0.56179 0.84687 0.83524 0.0
C1456 C 0.57639 0.83783 0.84638 0.0
C1457 C 0.65469 0.92035 0.90396 0.0
C1458 C 0.63304 0.93874 0.90785 0.0
C1459 C 0.65462 0.88683 0.89434 0.0
C1460 C 0.63287 0.87065 0.88872 0.0
C1461 C 0.61129 0.88836 0.8929 0.0
C1462 C 0.61137 0.92219 0.9023 0.0
C1463 C 0.63219 0.83594 0.8783 0.0
C1464 C 0.6184 0.84466 0.86677 0.0
C1465 C 0.64403 0.79404 0.8798 0.0
C1466 C 0.65793 0.78181 0.89195 0.0
C1467 C 0.64709 0.78186 0.90406 0.0
C1468 C 0.66034 0.77038 0.91548 0.0
C1469 C 0.6844 0.75842 0.91489 0.0
C1470 C 0.69523 0.75778 0.90287 0.0
C1471 C 0.68206 0.76928 0.89143 0.0
H1472 H 0.69464 0.74954 0.92373 0.0
H1473 H 0.55922 0.84781 0.81421 0.0
H1474 H 0.66388 0.17524 0.89292 0.0
H1475 H 0.651 0.23651 0.87837 0.0
H1476 H 0.5788 0.2229 0.89078 0.0
H1477 H 0.59167 0.16179 0.90567 0.0
H1478 H 0.58711 0.22644 0.86146 0.0
H1479 H 0.60093 0.3071 0.90154 0.0
H1480 H 0.62323 0.32781 0.922 0.0
H1481 H 0.68218 0.37342 0.90011 0.0
H1482 H 0.66039 0.35232 0.87952 0.0
H1483 H 0.56496 0.42802 0.82277 0.0
H1484 H 0.56344 0.37001 0.83979 0.0
H1485 H 0.64029 0.37623 0.8454 0.0
H1486 H 0.64182 0.4345 0.82879 0.0
H1487 H 0.62031 0.38015 0.86805 0.0
H1488 H 0.61053 0.28863 0.82882 0.0
H1489 H 0.59042 0.26492 0.808 0.0
H1490 H 0.52596 0.23779 0.82776 0.0
H1491 H 0.54564 0.26188 0.84868 0.0
C1492 C 0.64527 0.18528 0.89259 0.0
C1493 C 0.62878 0.16381 0.90043 0.0
C1494 C 0.63796 0.22027 0.8843 0.0
C1495 C 0.614 0.23404 0.88357 0.0
C1496 C 0.59737 0.21257 0.89127 0.0
C1497 C 0.60477 0.17796 0.89978 0.0
C1498 C 0.60678 0.27094 0.87463 0.0
C1499 C 0.5938 0.26043 0.86299 0.0
C1500 C 0.6159 0.31484 0.87663 0.0
C1501 C 0.62906 0.32783 0.88899 0.0
C1502 C 0.61873 0.32119 0.90109 0.0
C1503 C 0.63127 0.33307 0.91271 0.0
C1504 C 0.65413 0.35185 0.91235 0.0
C1505 C 0.66448 0.35887 0.90037 0.0
C1506 C 0.65202 0.34701 0.88872 0.0
C1507 C 0.5815 0.41655 0.82756 0.0
C1508 C 0.6035 0.43582 0.82452 0.0
C1509 C 0.58061 0.38349 0.83727 0.0
C1510 C 0.60176 0.36892 0.84389 0.0
C1511 C 0.62373 0.38731 0.84053 0.0
C1512 C 0.62459 0.42048 0.83099 0.0
C1513 C 0.60145 0.33536 0.85457 0.0
C1514 C 0.61304 0.34655 0.86659 0.0
C1515 C 0.59125 0.29202 0.85283 0.0
C1516 C 0.57944 0.2776 0.84027 0.0
C1517 C 0.59201 0.27797 0.8287 0.0
C1518 C 0.58071 0.26439 0.81689 0.0
C1519 C 0.5569 0.25001 0.81655 0.0
C1520 C 0.54438 0.24905 0.82803 0.0
C1521 C 0.5556 0.26264 0.83987 0.0
H1522 H 0.54819 0.2395 0.80739 0.0
H1523 H 0.66381 0.36103 0.92136 0.0
H1524 H 0.56647 0.16973 0.34227 0.0
H1525 H 0.57718 0.23017 0.35767 0.0
H1526 H 0.65086 0.22096 0.34743 0.0
H1527 H 0.64024 0.16086 0.33177 0.0
H1528 H 0.64167 0.21929 0.37556 0.0
H1529 H 0.62517 0.30634 0.33684 0.0
H1530 H 0.60169 0.32995 0.31706 0.0
H1531 H 0.54368 0.36918 0.34056 0.0
H1532 H 0.56668 0.34516 0.36047 0.0
H1533 H 0.67111 0.41591 0.4143 0.0
H1534 H 0.66848 0.35766 0.39731 0.0
H1535 H 0.59165 0.37178 0.3948 0.0
H1536 H 0.59427 0.4307 0.41135 0.0
H1537 H 0.60777 0.3731 0.37149 0.0
H1538 H 0.62099 0.27962 0.40964 0.0
H1539 H 0.64251 0.25342 0.42977 0.0
H1540 H 0.70434 0.22392 0.40802 0.0
H1541 H 0.68326 0.25049 0.38778 0.0
C1542 C 0.58492 0.18076 0.34322 0.0
C1543 C 0.60252 0.16065 0.33582 0.0
C1544 C 0.59099 0.21527 0.352 0.0
C1545 C 0.61477 0.22985 0.35363 0.0
C1546 C 0.63241 0.21002 0.34626 0.0
C1547 C 0.62629 0.17596 0.3373 0.0
C1548 C 0.62106 0.26516 0.36332 0.0
C1549 C 0.6347 0.25326 0.37461 0.0
C1550 C 0.61147 0.30895 0.36209 0.0
C1551 C 0.59759 0.32358 0.35014 0.0
C1552 C 0.60733 0.31963 0.33778 0.0
C1553 C 0.59412 0.33316 0.32655 0.0
C1554 C 0.57119 0.35097 0.32755 0.0
C1555 C 0.56144 0.35536 0.3398 0.0
C1556 C 0.57457 0.34183 0.35106 0.0
C1557 C 0.65368 0.40604 0.41022 0.0
C1558 C 0.63289 0.42781 0.41409 0.0
C1559 C 0.65218 0.3728 0.40053 0.0
C1560 C 0.62985 0.36035 0.39478 0.0
C1561 C 0.60908 0.38111 0.399 0.0
C1562 C 0.61059 0.41463 0.40851 0.0
C1563 C 0.62786 0.32704 0.38401 0.0
C1564 C 0.61505 0.33937 0.37245 0.0
C1565 C 0.63797 0.28348 0.38508 0.0
C1566 C 0.65065 0.26755 0.39723 0.0
C1567 C 0.63924 0.26791 0.40917 0.0
C1568 C 0.65134 0.25292 0.4206 0.0
C1569 C 0.6748 0.23716 0.42018 0.0
C1570 C 0.68618 0.23623 0.40833 0.0
C1571 C 0.67417 0.25122 0.39688 0.0
H1572 H 0.68414 0.22556 0.42904 0.0
H1573 H 0.56099 0.36144 0.31885 0.0
H1574 H 0.61984 0.68662 0.41525 0.0
H1575 H 0.60987 0.74473 0.39898 0.0
H1576 H 0.6456 0.66822 0.36985 0.0
H1577 H 0.65636 0.61112 0.38612 0.0
H1578 H 0.65828 0.74996 0.36809 0.0
H1579 H 0.58295 0.67614 0.37041 0.0
H1580 H 0.54799 0.64454 0.381 0.0
H1581 H 0.53043 0.77564 0.39535 0.0
H1582 H 0.56548 0.80794 0.385 0.0
H1583 H 0.57835 0.89531 0.32023 0.0
H1584 H 0.58249 0.82901 0.33448 0.0
H1585 H 0.63632 0.89835 0.3584 0.0
H1586 H 0.63268 0.96381 0.3442 0.0
H1587 H 0.57699 0.81383 0.36036 0.0
H1588 H 0.68044 0.82802 0.36719 0.0
H1589 H 0.71446 0.85461 0.35479 0.0
H1590 H 0.67412 0.83165 0.31871 0.0
H1591 H 0.63999 0.80434 0.33089 0.0
C1592 C 0.62549 0.68219 0.40536 0.0
C1593 C 0.63898 0.64443 0.40199 0.0
C1594 C 0.61965 0.71525 0.39605 0.0
C1595 C 0.62675 0.71062 0.38313 0.0
C1596 C 0.63997 0.67263 0.37974 0.0
C1597 C 0.64612 0.64 0.38907 0.0
C1598 C 0.62143 0.74623 0.37327 0.0
C1599 C 0.64047 0.76371 0.36639 0.0
C1600 C 0.59811 0.76364 0.3708 0.0
C1601 C 0.57696 0.74438 0.37702 0.0
C1602 C 0.57173 0.69818 0.3759 0.0
C1603 C 0.55188 0.68015 0.38185 0.0
C1604 C 0.53703 0.70805 0.38887 0.0
C1605 C 0.54196 0.75407 0.38993 0.0
C1606 C 0.5618 0.77226 0.384 0.0
C1607 C 0.59097 0.89635 0.32856 0.0
C1608 C 0.60539 0.9345 0.33101 0.0
C1609 C 0.59326 0.85859 0.3367 0.0
C1610 C 0.60999 0.85859 0.34735 0.0
C1611 C 0.62365 0.89734 0.35008 0.0
C1612 C 0.6215 0.93477 0.34195 0.0
C1613 C 0.61393 0.81788 0.35549 0.0
C1614 C 0.59471 0.79963 0.36203 0.0
C1615 C 0.63697 0.7988 0.35739 0.0
C1616 C 0.65759 0.81447 0.34997 0.0
C1617 C 0.67888 0.82842 0.35661 0.0
C1618 C 0.69817 0.84366 0.34962 0.0
C1619 C 0.69643 0.84493 0.33598 0.0
C1620 C 0.67542 0.8308 0.32929 0.0
C1621 C 0.65608 0.81548 0.33623 0.0
H1622 H 0.71137 0.8568 0.33058 0.0
H1623 H 0.52167 0.69403 0.39347 0.0
H1624 H 0.41661 0.34824 0.13302 0.0
H1625 H 0.40231 0.29221 0.11712 0.0
H1626 H 0.34635 0.25356 0.14243 0.0
H1627 H 0.36066 0.30952 0.15853 0.0
H1628 H 0.36913 0.18137 0.13319 0.0
H1629 H 0.3319 0.31197 0.11521 0.0
H1630 H 0.32917 0.39068 0.10768 0.0
H1631 H 0.37922 0.3631 0.0782 0.0
H1632 H 0.38254 0.28437 0.08567 0.0
H1633 H 0.32408 0.07935 0.06639 0.0
H1634 H 0.32318 0.14191 0.08208 0.0
H1635 H 0.39484 0.10908 0.09618 0.0
H1636 H 0.39592 0.04703 0.08071 0.0
H1637 H 0.35291 0.21769 0.08631 0.0
H1638 H 0.39698 0.11364 0.129 0.0
H1639 H 0.39834 0.03471 0.13644 0.0
H1640 H 0.33011 0.00959 0.11688 0.0
H1641 H 0.32813 0.08853 0.10951 0.0
C1642 C 0.40123 0.32794 0.13523 0.0
C1643 C 0.38979 0.33335 0.14706 0.0
C1644 C 0.39296 0.29616 0.12607 0.0
C1645 C 0.37305 0.26926 0.12852 0.0
C1646 C 0.36165 0.27425 0.14034 0.0
C1647 C 0.36988 0.3062 0.14952 0.0
C1648 C 0.36508 0.23442 0.11894 0.0
C1649 C 0.36532 0.18933 0.12298 0.0
C1650 C 0.35959 0.24498 0.10566 0.0
C1651 C 0.35756 0.29227 0.10106 0.0
C1652 C 0.34245 0.32275 0.10718 0.0
C1653 C 0.34078 0.36737 0.10291 0.0
C1654 C 0.35403 0.38189 0.09248 0.0
C1655 C 0.36895 0.35179 0.08628 0.0
C1656 C 0.37071 0.30714 0.09051 0.0
C1657 C 0.33969 0.08582 0.07277 0.0
C1658 C 0.35998 0.05807 0.07241 0.0
C1659 C 0.33914 0.12146 0.08169 0.0
C1660 C 0.35878 0.12944 0.09041 0.0
C1661 C 0.37934 0.10288 0.08969 0.0
C1662 C 0.37994 0.06753 0.0808 0.0
C1663 C 0.35805 0.16482 0.10051 0.0
C1664 C 0.35622 0.20989 0.09658 0.0
C1665 C 0.36175 0.15431 0.11393 0.0
C1666 C 0.36249 0.10701 0.11864 0.0
C1667 C 0.38218 0.09139 0.12637 0.0
C1668 C 0.38308 0.04661 0.13056 0.0
C1669 C 0.36435 0.01713 0.12711 0.0
C1670 C 0.34463 0.03242 0.11952 0.0
C1671 C 0.34363 0.07718 0.11532 0.0
H1672 H 0.36511 0.98245 0.13034 0.0
H1673 H 0.35271 0.41645 0.08919 0.0
H1674 H 0.42678 0.58706 0.16788 0.0
H1675 H 0.42378 0.65702 0.15509 0.0
H1676 H 0.3616 0.60446 0.13372 0.0
H1677 H 0.36418 0.53552 0.14644 0.0
H1678 H 0.4249 0.67444 0.1289 0.0
H1679 H 0.32091 0.68418 0.12887 0.0
H1680 H 0.28877 0.66447 0.14352 0.0
H1681 H 0.33804 0.67541 0.17677 0.0
H1682 H 0.37039 0.69586 0.16235 0.0
H1683 H 0.37689 0.79722 0.07502 0.0
H1684 H 0.38854 0.74308 0.0921 0.0
H1685 H 0.36201 0.83264 0.1213 0.0
H1686 H 0.34928 0.88575 0.10419 0.0
H1687 H 0.3472 0.75487 0.12604 0.0
H1688 H 0.42408 0.81252 0.11749 0.0
H1689 H 0.45761 0.83549 0.1042 0.0
H1690 H 0.46538 0.69936 0.09096 0.0
H1691 H 0.43168 0.67565 0.10404 0.0
C1692 C 0.41251 0.59057 0.16044 0.0
C1693 C 0.3956 0.55601 0.15824 0.0
C1694 C 0.41085 0.6304 0.15314 0.0
C1695 C 0.39223 0.63611 0.14362 0.0
C1696 C 0.37581 0.60109 0.1412 0.0
C1697 C 0.37738 0.56161 0.14847 0.0
C1698 C 0.38949 0.6785 0.13614 0.0
C1699 C 0.40803 0.69242 0.12833 0.0
C1700 C 0.36768 0.70254 0.13571 0.0
C1701 C 0.34813 0.6913 0.1445 0.0
C1702 C 0.32486 0.6827 0.13931 0.0
C1703 C 0.30661 0.67132 0.14758 0.0
C1704 C 0.31137 0.66858 0.16106 0.0
C1705 C 0.33438 0.67741 0.16632 0.0
C1706 C 0.35269 0.68886 0.1581 0.0
C1707 C 0.37369 0.8054 0.0851 0.0
C1708 C 0.36205 0.84549 0.08828 0.0
C1709 C 0.38054 0.77463 0.09487 0.0
C1710 C 0.37649 0.78401 0.10804 0.0
C1711 C 0.36531 0.82457 0.11123 0.0
C1712 C 0.35801 0.85486 0.10144 0.0
C1713 C 0.38234 0.75018 0.11836 0.0
C1714 C 0.3643 0.73769 0.12672 0.0
C1715 C 0.40484 0.72834 0.11951 0.0
C1716 C 0.42525 0.74236 0.1117 0.0
C1717 C 0.43284 0.78752 0.11169 0.0
C1718 C 0.4519 0.80067 0.1042 0.0
C1719 C 0.4636 0.76892 0.09673 0.0
C1720 C 0.4563 0.72392 0.09676 0.0
C1721 C 0.43725 0.71059 0.10422 0.0
H1722 H 0.47833 0.77917 0.09093 0.0
H1723 H 0.29723 0.65966 0.16744 0.0
H1724 H 0.36285 0.79216 0.66518 0.0
H1725 H 0.35538 0.72745 0.65073 0.0
H1726 H 0.40716 0.77841 0.62453 0.0
H1727 H 0.41507 0.8424 0.63895 0.0
H1728 H 0.33876 0.72047 0.626 0.0
H1729 H 0.43747 0.69365 0.61172 0.0
H1730 H 0.47811 0.70185 0.62185 0.0
H1731 H 0.4502 0.68785 0.65997 0.0
H1732 H 0.40948 0.67889 0.65008 0.0
H1733 H 0.3419 0.59033 0.56784 0.0
H1734 H 0.34577 0.64802 0.58496 0.0
H1735 H 0.38419 0.55384 0.6102 0.0
H1736 H 0.38127 0.49718 0.59305 0.0
H1737 H 0.40624 0.62779 0.61147 0.0
H1738 H 0.32485 0.58566 0.61489 0.0
H1739 H 0.28316 0.57025 0.60735 0.0
H1740 H 0.27456 0.70808 0.59547 0.0
H1741 H 0.31633 0.72419 0.60278 0.0
C1742 C 0.37271 0.78947 0.65636 0.0
C1743 C 0.38967 0.8223 0.65326 0.0
C1744 C 0.36834 0.7526 0.6481 0.0
C1745 C 0.38089 0.74793 0.63664 0.0
C1746 C 0.39757 0.78096 0.63345 0.0
C1747 C 0.40203 0.8176 0.6417 0.0
C1748 C 0.37672 0.70866 0.62794 0.0
C1749 C 0.35346 0.70003 0.62284 0.0
C1750 C 0.39583 0.68128 0.62413 0.0
C1751 C 0.42037 0.68602 0.63014 0.0
C1752 C 0.44002 0.69211 0.62226 0.0
C1753 C 0.46307 0.69692 0.62796 0.0
C1754 C 0.46672 0.69552 0.64154 0.0
C1755 C 0.44734 0.68911 0.64945 0.0
C1756 C 0.42427 0.68421 0.6438 0.0
C1757 C 0.35109 0.58208 0.57707 0.0
C1758 C 0.36141 0.53946 0.57909 0.0
C1759 C 0.35318 0.61489 0.58687 0.0
C1760 C 0.36512 0.60516 0.59892 0.0
C1761 C 0.37503 0.56228 0.60097 0.0
C1762 C 0.37331 0.52989 0.59115 0.0
C1763 C 0.36829 0.64 0.60924 0.0
C1764 C 0.39144 0.64793 0.61465 0.0
C1765 C 0.34892 0.66551 0.61369 0.0
C1766 C 0.32379 0.65602 0.60927 0.0
C1767 C 0.31413 0.61261 0.61058 0.0
C1768 C 0.29047 0.60376 0.60636 0.0
C1769 C 0.27624 0.63814 0.6009 0.0
C1770 C 0.28562 0.68147 0.59968 0.0
C1771 C 0.30928 0.69049 0.60387 0.0
H1772 H 0.25793 0.63123 0.59765 0.0
H1773 H 0.48458 0.6993 0.64594 0.0
H1774 H 0.32454 0.35392 0.59727 0.0
H1775 H 0.33231 0.29434 0.61319 0.0
H1776 H 0.37797 0.22751 0.58647 0.0
H1777 H 0.37088 0.28809 0.57057 0.0
H1778 H 0.3229 0.20986 0.61318 0.0
H1779 H 0.42194 0.17085 0.60357 0.0
H1780 H 0.45761 0.20981 0.59587 0.0
H1781 H 0.43027 0.3363 0.60887 0.0
H1782 H 0.39461 0.29803 0.6168 0.0
H1783 H 0.35392 0.00628 0.64349 0.0
H1784 H 0.34958 0.06702 0.62761 0.0
H1785 H 0.39512 0.15189 0.65232 0.0
H1786 H 0.40025 0.09027 0.66813 0.0
H1787 H 0.40505 0.16325 0.62757 0.0
H1788 H 0.33385 0.16283 0.65158 0.0
H1789 H 0.29825 0.12973 0.66117 0.0
H1790 H 0.26989 0.09398 0.62288 0.0
H1791 H 0.30549 0.12634 0.61307 0.0
C1792 C 0.3362 0.32653 0.59474 0.0
C1793 C 0.34715 0.32578 0.58266 0.0
C1794 C 0.34062 0.29245 0.60386 0.0
C1795 C 0.35592 0.25672 0.60109 0.0
C1796 C 0.36647 0.25525 0.58892 0.0
C1797 C 0.36229 0.28973 0.57982 0.0
C1798 C 0.36055 0.22101 0.61097 0.0
C1799 C 0.34087 0.19969 0.61631 0.0
C1800 C 0.384 0.20831 0.61525 0.0
C1801 C 0.4055 0.2316 0.61065 0.0
C1802 C 0.42359 0.20696 0.60482 0.0
C1803 C 0.4438 0.22892 0.60041 0.0
C1804 C 0.44616 0.27552 0.60184 0.0
C1805 C 0.42837 0.30024 0.60773 0.0
C1806 C 0.40815 0.27843 0.61217 0.0
C1807 C 0.36307 0.03783 0.64555 0.0
C1808 C 0.37724 0.04378 0.65711 0.0
C1809 C 0.36052 0.07255 0.63647 0.0
C1810 C 0.37164 0.11425 0.6389 0.0
C1811 C 0.38631 0.11998 0.65028 0.0
C1812 C 0.38916 0.0849 0.65932 0.0
C1813 C 0.3674 0.15201 0.62967 0.0
C1814 C 0.38711 0.17354 0.62443 0.0
C1815 C 0.34397 0.16589 0.62575 0.0
C1816 C 0.32243 0.14669 0.6316 0.0
C1817 C 0.32009 0.14766 0.64521 0.0
C1818 C 0.2999 0.12906 0.65069 0.0
C1819 C 0.28184 0.10968 0.64264 0.0
C1820 C 0.28391 0.10897 0.6291 0.0
C1821 C 0.30407 0.12748 0.62358 0.0
H1822 H 0.26623 0.09528 0.6469 0.0
H1823 H 0.46181 0.29247 0.59841 0.0
loop_
_geom_bond_atom_site_label_1
_geom_bond_atom_site_label_2
_geom_bond_distance
_geom_bond_site_symmetry_2
_ccdc_geom_bond_type
C0 O1 1.306 . S
C0 O3 1.160 . S
O1 C0 1.306 . S
O1 Cd2 2.228 . S
Cd2 O1 2.228 . S
Cd2 O6 2.273 . S
Cd2 O10 2.277 . S
O3 C0 1.160 . S
O3 Cd4 2.203 . S
Cd4 O3 2.203 . S
Cd4 O6 2.411 . S
Cd4 O7 2.333 . S
Cd4 O8 2.352 . S
Cd4 O12 2.277 . S
Cd4 O13 2.356 . S
C5 O10 1.209 . S
C5 O12 1.226 . S
O6 Cd2 2.273 . S
O6 Cd4 2.411 . S
O6 C9 1.320 . S
O7 Cd4 2.333 . S
O7 C9 1.214 . S
O8 Cd4 2.352 . S
O8 C11 1.258 . S
C9 O6 1.320 . S
C9 O7 1.214 . S
O10 Cd2 2.277 . S
O10 C5 1.209 . S
C11 O8 1.258 . S
C11 O13 1.282 . S
O12 Cd4 2.277 . S
O12 C5 1.226 . S
O13 Cd4 2.356 . S
O13 C11 1.282 . S
C14 O15 1.306 . S
C14 O17 1.160 . S
O15 C14 1.306 . S
O15 Cd16 2.228 . S
Cd16 O15 2.228 . S
Cd16 O20 2.273 . S
Cd16 O24 2.277 . S
O17 C14 1.160 . S
O17 Cd18 2.203 . S
Cd18 O17 2.203 . S
Cd18 O20 2.411 . S
Cd18 O21 2.333 . S
Cd18 O22 2.352 . S
Cd18 O26 2.277 . S
Cd18 O27 2.356 . S
C19 O24 1.209 . S
C19 O26 1.226 . S
O20 Cd16 2.273 . S
O20 Cd18 2.411 . S
O20 C23 1.320 . S
O21 Cd18 2.333 . S
O21 C23 1.214 . S
O22 Cd18 2.352 . S
O22 C25 1.258 . S
C23 O20 1.320 . S
C23 O21 1.214 . S
O24 Cd16 2.277 . S
O24 C19 1.209 . S
C25 O22 1.258 . S
C25 O27 1.282 . S
O26 Cd18 2.277 . S
O26 C19 1.226 . S
O27 Cd18 2.356 . S
O27 C25 1.282 . S
C28 O29 1.306 . S
C28 O31 1.160 . S
O29 C28 1.306 . S
O29 Cd30 2.228 . S
Cd30 O29 2.228 . S
Cd30 O34 2.273 . S
Cd30 O38 2.277 . S
O31 C28 1.160 . S
O31 Cd32 2.203 . S
Cd32 O31 2.203 . S
Cd32 O34 2.411 . S
Cd32 O35 2.333 . S
Cd32 O36 2.352 . S
Cd32 O40 2.277 . S
Cd32 O41 2.356 . S
C33 O38 1.209 . S
C33 O40 1.226 . S
O34 Cd30 2.273 . S
O34 Cd32 2.411 . S
O34 C37 1.320 . S
O35 Cd32 2.333 . S
O35 C37 1.214 . S
O36 Cd32 2.352 . S
O36 C39 1.258 . S
C37 O34 1.320 . S
C37 O35 1.214 . S
O38 Cd30 2.277 . S
O38 C33 1.209 . S
C39 O36 1.258 . S
C39 O41 1.282 . S
O40 Cd32 2.277 . S
O40 C33 1.226 . S
O41 Cd32 2.356 . S
O41 C39 1.282 . S
C42 O43 1.306 . S
C42 O45 1.160 . S
O43 C42 1.306 . S
O43 Cd44 2.228 . S
Cd44 O43 2.228 . S
Cd44 O48 2.273 . S
Cd44 O52 2.277 . S
O45 C42 1.160 . S
O45 Cd46 2.203 . S
Cd46 O45 2.203 . S
Cd46 O48 2.411 . S
Cd46 O49 2.333 . S
Cd46 O50 2.352 . S
Cd46 O54 2.277 . S
Cd46 O55 2.356 . S
C47 O52 1.209 . S
C47 O54 1.226 . S
O48 Cd44 2.273 . S
O48 Cd46 2.411 . S
O48 C51 1.320 . S
O49 Cd46 2.333 . S
O49 C51 1.214 . S
O50 Cd46 2.352 . S
O50 C53 1.258 . S
C51 O48 1.320 . S
C51 O49 1.214 . S
O52 Cd44 2.277 . S
O52 C47 1.209 . S
C53 O50 1.258 . S
C53 O55 1.282 . S
O54 Cd46 2.277 . S
O54 C47 1.226 . S
O55 Cd46 2.356 . S
O55 C53 1.282 . S
C56 O57 1.306 . S
C56 O59 1.160 . S
O57 C56 1.306 . S
O57 Cd58 2.228 . S
Cd58 O57 2.228 . S
Cd58 O62 2.273 . S
Cd58 O66 2.277 . S
O59 C56 1.160 . S
O59 Cd60 2.203 . S
Cd60 O59 2.203 . S
Cd60 O62 2.411 . S
Cd60 O63 2.333 . S
Cd60 O64 2.352 . S
Cd60 O68 2.277 . S
Cd60 O69 2.356 . S
C61 O66 1.209 . S
C61 O68 1.226 . S
O62 Cd58 2.273 . S
O62 Cd60 2.411 . S
O62 C65 1.320 . S
O63 Cd60 2.333 . S
O63 C65 1.214 . S
O64 Cd60 2.352 . S
O64 C67 1.258 . S
C65 O62 1.320 . S
C65 O63 1.214 . S
O66 Cd58 2.277 . S
O66 C61 1.209 . S
C67 O64 1.258 . S
C67 O69 1.282 . S
O68 Cd60 2.277 . S
O68 C61 1.226 . S
O69 Cd60 2.356 . S
O69 C67 1.282 . S
C70 O71 1.306 . S
C70 O73 1.160 . S
O71 C70 1.306 . S
O71 Cd72 2.228 . S
Cd72 O71 2.228 . S
Cd72 O76 2.273 . S
Cd72 O80 2.277 . S
O73 C70 1.160 . S
O73 Cd74 2.203 . S
Cd74 O73 2.203 . S
Cd74 O76 2.411 . S
Cd74 O77 2.333 . S
Cd74 O78 2.352 . S
Cd74 O82 2.277 . S
Cd74 O83 2.356 . S
C75 O80 1.209 . S
C75 O82 1.226 . S
O76 Cd72 2.273 . S
O76 Cd74 2.411 . S
O76 C79 1.320 . S
O77 Cd74 2.333 . S
O77 C79 1.214 . S
O78 Cd74 2.352 . S
O78 C81 1.258 . S
C79 O76 1.320 . S
C79 O77 1.214 . S
O80 Cd72 2.277 . S
O80 C75 1.209 . S
C81 O78 1.258 . S
C81 O83 1.282 . S
O82 Cd74 2.277 . S
O82 C75 1.226 . S
O83 Cd74 2.356 . S
O83 C81 1.282 . S
C84 O85 1.306 . S
C84 O87 1.160 . S
O85 C84 1.306 . S
O85 Cd86 2.228 . S
Cd86 O85 2.228 . S
Cd86 O90 2.273 . S
Cd86 O94 2.277 . S
O87 C84 1.160 . S
O87 Cd88 2.203 . S
Cd88 O87 2.203 . S
Cd88 O90 2.411 . S
Cd88 O91 2.333 . S
Cd88 O92 2.352 . S
Cd88 O96 2.277 . S
Cd88 O97 2.356 . S
C89 O94 1.209 . S
C89 O96 1.226 . S
O90 Cd86 2.273 . S
O90 Cd88 2.411 . S
O90 C93 1.320 . S
O91 Cd88 2.333 . S
O91 C93 1.214 . S
O92 Cd88 2.352 . S
O92 C95 1.258 . S
C93 O90 1.320 . S
C93 O91 1.214 . S
O94 Cd86 2.277 . S
O94 C89 1.209 . S
C95 O92 1.258 . S
C95 O97 1.282 . S
O96 Cd88 2.277 . S
O96 C89 1.226 . S
O97 Cd88 2.356 . S
O97 C95 1.282 . S
C98 O99 1.306 . S
C98 O101 1.160 . S
O99 C98 1.306 . S
O99 Cd100 2.228 . S
Cd100 O99 2.228 . S
Cd100 O104 2.273 . S
Cd100 O108 2.277 . S
O101 C98 1.160 . S
O101 Cd102 2.203 . S
Cd102 O101 2.203 . S
Cd102 O104 2.411 . S
Cd102 O105 2.333 . S
Cd102 O106 2.352 . S
Cd102 O110 2.277 . S
Cd102 O111 2.356 . S
C103 O108 1.209 . S
C103 O110 1.226 . S
O104 Cd100 2.273 . S
O104 Cd102 2.411 . S
O104 C107 1.320 . S
O105 Cd102 2.333 . S
O105 C107 1.214 . S
O106 Cd102 2.352 . S
O106 C109 1.258 . S
C107 O104 1.320 . S
C107 O105 1.214 . S
O108 Cd100 2.277 . S
O108 C103 1.209 . S
C109 O106 1.258 . S
C109 O111 1.282 . S
O110 Cd102 2.277 . S
O110 C103 1.226 . S
O111 Cd102 2.356 . S
O111 C109 1.282 . S
C112 O113 1.306 . S
C112 O115 1.160 . S
O113 C112 1.306 . S
O113 Cd114 2.228 . S
Cd114 O113 2.228 . S
Cd114 O118 2.273 . S
Cd114 O122 2.277 . S
O115 C112 1.160 . S
O115 Cd116 2.203 . S
Cd116 O115 2.203 . S
Cd116 O118 2.411 . S
Cd116 O119 2.333 . S
Cd116 O120 2.352 . S
Cd116 O124 2.277 . S
Cd116 O125 2.356 . S
C117 O122 1.209 . S
C117 O124 1.226 . S
O118 Cd114 2.273 . S
O118 Cd116 2.411 . S
O118 C121 1.320 . S
O119 Cd116 2.333 . S
O119 C121 1.214 . S
O120 Cd116 2.352 . S
O120 C123 1.258 . S
C121 O118 1.320 . S
C121 O119 1.214 . S
O122 Cd114 2.277 . S
O122 C117 1.209 . S
C123 O120 1.258 . S
C123 O125 1.282 . S
O124 Cd116 2.277 . S
O124 C117 1.226 . S
O125 Cd116 2.356 . S
O125 C123 1.282 . S
C126 O127 1.306 . S
C126 O129 1.160 . S
O127 C126 1.306 . S
O127 Cd128 2.228 . S
Cd128 O127 2.228 . S
Cd128 O132 2.273 . S
Cd128 O136 2.277 . S
O129 C126 1.160 . S
O129 Cd130 2.203 . S
Cd130 O129 2.203 . S
Cd130 O132 2.411 . S
Cd130 O133 2.333 . S
Cd130 O134 2.352 . S
Cd130 O138 2.277 . S
Cd130 O139 2.356 . S
C131 O136 1.209 . S
C131 O138 1.226 . S
O132 Cd128 2.273 . S
O132 Cd130 2.411 . S
O132 C135 1.320 . S
O133 Cd130 2.333 . S
O133 C135 1.214 . S
O134 Cd130 2.352 . S
O134 C137 1.258 . S
C135 O132 1.320 . S
C135 O133 1.214 . S
O136 Cd128 2.277 . S
O136 C131 1.209 . S
C137 O134 1.258 . S
C137 O139 1.282 . S
O138 Cd130 2.277 . S
O138 C131 1.226 . S
O139 Cd130 2.356 . S
O139 C137 1.282 . S
C140 O141 1.306 . S
C140 O143 1.160 . S
O141 C140 1.306 . S
O141 Cd142 2.228 . S
Cd142 O141 2.228 . S
Cd142 O146 2.273 . S
Cd142 O150 2.277 . S
O143 C140 1.160 . S
O143 Cd144 2.203 . S
Cd144 O143 2.203 . S
Cd144 O146 2.411 . S
Cd144 O147 2.333 . S
Cd144 O148 2.352 . S
Cd144 O152 2.277 . S
Cd144 O153 2.356 . S
C145 O150 1.209 . S
C145 O152 1.226 . S
O146 Cd142 2.273 . S
O146 Cd144 2.411 . S
O146 C149 1.320 . S
O147 Cd144 2.333 . S
O147 C149 1.214 . S
O148 Cd144 2.352 . S
O148 C151 1.258 . S
C149 O146 1.320 . S
C149 O147 1.214 . S
O150 Cd142 2.277 . S
O150 C145 1.209 . S
C151 O148 1.258 . S
C151 O153 1.282 . S
O152 Cd144 2.277 . S
O152 C145 1.226 . S
O153 Cd144 2.356 . S
O153 C151 1.282 . S
C154 O155 1.306 . S
C154 O157 1.160 . S
O155 C154 1.306 . S
O155 Cd156 2.228 . S
Cd156 O155 2.228 . S
Cd156 O160 2.273 . S
Cd156 O164 2.277 . S
O157 C154 1.160 . S
O157 Cd158 2.203 . S
Cd158 O157 2.203 . S
Cd158 O160 2.411 . S
Cd158 O161 2.333 . S
Cd158 O162 2.352 . S
Cd158 O166 2.277 . S
Cd158 O167 2.356 . S
C159 O164 1.209 . S
C159 O166 1.226 . S
O160 Cd156 2.273 . S
O160 Cd158 2.411 . S
O160 C163 1.320 . S
O161 Cd158 2.333 . S
O161 C163 1.214 . S
O162 Cd158 2.352 . S
O162 C165 1.258 . S
C163 O160 1.320 . S
C163 O161 1.214 . S
O164 Cd156 2.277 . S
O164 C159 1.209 . S
C165 O162 1.258 . S
C165 O167 1.282 . S
O166 Cd158 2.277 . S
O166 C159 1.226 . S
O167 Cd158 2.356 . S
O167 C165 1.282 . S
C168 O169 1.306 . S
C168 O171 1.160 . S
O169 C168 1.306 . S
O169 Cd170 2.228 . S
Cd170 O169 2.228 . S
Cd170 O174 2.273 . S
Cd170 O178 2.277 . S
O171 C168 1.160 . S
O171 Cd172 2.203 . S
Cd172 O171 2.203 . S
Cd172 O174 2.411 . S
Cd172 O175 2.333 . S
Cd172 O176 2.352 . S
Cd172 O180 2.277 . S
Cd172 O181 2.356 . S
C173 O178 1.209 . S
C173 O180 1.226 . S
O174 Cd170 2.273 . S
O174 Cd172 2.411 . S
O174 C177 1.320 . S
O175 Cd172 2.333 . S
O175 C177 1.214 . S
O176 Cd172 2.352 . S
O176 C179 1.258 . S
C177 O174 1.320 . S
C177 O175 1.214 . S
O178 Cd170 2.277 . S
O178 C173 1.209 . S
C179 O176 1.258 . S
C179 O181 1.282 . S
O180 Cd172 2.277 . S
O180 C173 1.226 . S
O181 Cd172 2.356 . S
O181 C179 1.282 . S
C182 O183 1.306 . S
C182 O185 1.160 . S
O183 C182 1.306 . S
O183 Cd184 2.228 . S
Cd184 O183 2.228 . S
Cd184 O188 2.273 . S
Cd184 O192 2.277 . S
O185 C182 1.160 . S
O185 Cd186 2.203 . S
Cd186 O185 2.203 . S
Cd186 O188 2.411 . S
Cd186 O189 2.333 . S
Cd186 O190 2.352 . S
Cd186 O194 2.277 . S
Cd186 O195 2.356 . S
C187 O192 1.209 . S
C187 O194 1.226 . S
O188 Cd184 2.273 . S
O188 Cd186 2.411 . S
O188 C191 1.320 . S
O189 Cd186 2.333 . S
O189 C191 1.214 . S
O190 Cd186 2.352 . S
O190 C193 1.258 . S
C191 O188 1.320 . S
C191 O189 1.214 . S
O192 Cd184 2.277 . S
O192 C187 1.209 . S
C193 O190 1.258 . S
C193 O195 1.282 . S
O194 Cd186 2.277 . S
O194 C187 1.226 . S
O195 Cd186 2.356 . S
O195 C193 1.282 . S
C196 O197 1.306 . S
C196 O199 1.160 . S
O197 C196 1.306 . S
O197 Cd198 2.228 . S
Cd198 O197 2.228 . S
Cd198 O202 2.273 . S
Cd198 O206 2.277 . S
O199 C196 1.160 . S
O199 Cd200 2.203 . S
Cd200 O199 2.203 . S
Cd200 O202 2.411 . S
Cd200 O203 2.333 . S
Cd200 O204 2.352 . S
Cd200 O208 2.277 . S
Cd200 O209 2.356 . S
C201 O206 1.209 . S
C201 O208 1.226 . S
O202 Cd198 2.273 . S
O202 Cd200 2.411 . S
O202 C205 1.320 . S
O203 Cd200 2.333 . S
O203 C205 1.214 . S
O204 Cd200 2.352 . S
O204 C207 1.258 . S
C205 O202 1.320 . S
C205 O203 1.214 . S
O206 Cd198 2.277 . S
O206 C201 1.209 . S
C207 O204 1.258 . S
C207 O209 1.282 . S
O208 Cd200 2.277 . S
O208 C201 1.226 . S
O209 Cd200 2.356 . S
O209 C207 1.282 . S
C210 O211 1.306 . S
C210 O213 1.160 . S
O211 C210 1.306 . S
O211 Cd212 2.228 . S
Cd212 O211 2.228 . S
Cd212 O216 2.273 . S
Cd212 O220 2.277 . S
O213 C210 1.160 . S
O213 Cd214 2.203 . S
Cd214 O213 2.203 . S
Cd214 O216 2.411 . S
Cd214 O217 2.333 . S
Cd214 O218 2.352 . S
Cd214 O222 2.277 . S
Cd214 O223 2.356 . S
C215 O220 1.209 . S
C215 O222 1.226 . S
O216 Cd212 2.273 . S
O216 Cd214 2.411 . S
O216 C219 1.320 . S
O217 Cd214 2.333 . S
O217 C219 1.214 . S
O218 Cd214 2.352 . S
O218 C221 1.258 . S
C219 O216 1.320 . S
C219 O217 1.214 . S
O220 Cd212 2.277 . S
O220 C215 1.209 . S
C221 O218 1.258 . S
C221 O223 1.282 . S
O222 Cd214 2.277 . S
O222 C215 1.226 . S
O223 Cd214 2.356 . S
O223 C221 1.282 . S
H224 C242 0.951 . S
H225 C244 0.951 . S
H226 C246 0.950 . S
H227 C247 0.950 . S
H228 C249 0.950 . S
H229 C252 0.950 . S
H230 C253 0.950 . S
H231 C255 0.950 . S
H232 C256 0.950 . S
H233 C257 0.951 . S
H234 C259 0.951 . S
H235 C261 0.950 . S
H236 C262 0.950 . S
H237 C264 0.950 . S
H238 C267 0.950 . S
H239 C268 0.950 . S
H240 C270 0.950 . S
H241 C271 0.950 . S
C242 H224 0.951 . S
C242 C243 1.366 . S
C242 C244 1.388 . S
C243 C242 1.366 . S
C243 C247 1.385 . S
C244 H225 0.951 . S
C244 C242 1.388 . S
C244 C245 1.366 . S
C245 C244 1.366 . S
C245 C246 1.414 . S
C245 C248 1.499 . S
C246 H226 0.950 . S
C246 C245 1.414 . S
C246 C247 1.374 . S
C247 H227 0.950 . S
C247 C243 1.385 . S
C247 C246 1.374 . S
C248 C245 1.499 . S
C248 C249 1.373 . S
C248 C250 1.389 . S
C249 H228 0.950 . S
C249 C248 1.373 . S
C249 C265 1.377 . S
C250 C248 1.389 . S
C250 C251 1.524 . S
C250 C264 1.377 . S
C251 C250 1.524 . S
C251 C252 1.397 . S
C251 C256 1.363 . S
C252 H229 0.950 . S
C252 C251 1.397 . S
C252 C253 1.334 . S
C253 H230 0.950 . S
C253 C252 1.334 . S
C253 C254 1.287 . S
C254 C253 1.287 . S
C254 C255 1.524 . S
C254 H273 0.913 . S
C255 H231 0.950 . S
C255 C254 1.524 . S
C255 C256 1.415 . S
C256 H232 0.950 . S
C256 C251 1.363 . S
C256 C255 1.415 . S
C257 H233 0.951 . S
C257 C258 1.366 . S
C257 C259 1.388 . S
C258 C257 1.366 . S
C258 C262 1.385 . S
C259 H234 0.951 . S
C259 C257 1.388 . S
C259 C260 1.366 . S
C260 C259 1.366 . S
C260 C261 1.414 . S
C260 C263 1.499 . S
C261 H235 0.950 . S
C261 C260 1.414 . S
C261 C262 1.374 . S
C262 H236 0.950 . S
C262 C258 1.385 . S
C262 C261 1.374 . S
C263 C260 1.499 . S
C263 C264 1.373 . S
C263 C265 1.389 . S
C264 H237 0.950 . S
C264 C250 1.377 . S
C264 C263 1.373 . S
C265 C249 1.377 . S
C265 C263 1.389 . S
C265 C266 1.524 . S
C266 C265 1.524 . S
C266 C267 1.397 . S
C266 C271 1.363 . S
C267 H238 0.950 . S
C267 C266 1.397 . S
C267 C268 1.334 . S
C268 H239 0.950 . S
C268 C267 1.334 . S
C268 C269 1.287 . S
C269 C268 1.287 . S
C269 C270 1.524 . S
C269 H272 0.999 . S
C270 H240 0.950 . S
C270 C269 1.524 . S
C270 C271 1.415 . S
C271 H241 0.950 . S
C271 C266 1.363 . S
C271 C270 1.415 . S
H272 C269 0.999 . S
H273 C254 0.913 . S
H274 C292 0.951 . S
H275 C294 0.951 . S
H276 C296 0.950 . S
H277 C297 0.950 . S
H278 C299 0.950 . S
H279 C302 0.950 . S
H280 C303 0.950 . S
H281 C305 0.950 . S
H282 C306 0.950 . S
H283 C307 0.951 . S
H284 C309 0.951 . S
H285 C311 0.950 . S
H286 C312 0.950 . S
H287 C314 0.950 . S
H288 C317 0.950 . S
H289 C318 0.950 . S
H290 C320 0.950 . S
H291 C321 0.950 . S
C292 H274 0.951 . S
C292 C293 1.366 . S
C292 C294 1.388 . S
C293 C292 1.366 . S
C293 C297 1.385 . S
C294 H275 0.951 . S
C294 C292 1.388 . S
C294 C295 1.366 . S
C295 C294 1.366 . S
C295 C296 1.414 . S
C295 C298 1.499 . S
C296 H276 0.950 . S
C296 C295 1.414 . S
C296 C297 1.374 . S
C297 H277 0.950 . S
C297 C293 1.385 . S
C297 C296 1.374 . S
C298 C295 1.499 . S
C298 C299 1.373 1_565 S
C298 C300 1.389 . S
C299 H278 0.950 . S
C299 C298 1.373 1_545 S
C299 C315 1.377 1_655 S
C300 C298 1.389 . S
C300 C301 1.524 . S
C300 C314 1.377 1_655 S
C301 C300 1.524 . S
C301 C302 1.397 . S
C301 C306 1.363 . S
C302 H279 0.950 . S
C302 C301 1.397 . S
C302 C303 1.334 . S
C303 H280 0.950 . S
C303 C302 1.334 . S
C303 C304 1.287 . S
C304 C303 1.287 . S
C304 C305 1.524 . S
C304 H323 0.913 . S
C305 H281 0.950 . S
C305 C304 1.524 . S
C305 C306 1.415 . S
C306 H282 0.950 . S
C306 C301 1.363 . S
C306 C305 1.415 . S
C307 H283 0.951 . S
C307 C308 1.366 . S
C307 C309 1.388 . S
C308 C307 1.366 . S
C308 C312 1.385 . S
C309 H284 0.951 . S
C309 C307 1.388 . S
C309 C310 1.366 . S
C310 C309 1.366 . S
C310 C311 1.414 . S
C310 C313 1.499 . S
C311 H285 0.950 . S
C311 C310 1.414 . S
C311 C312 1.374 . S
C312 H286 0.950 . S
C312 C308 1.385 . S
C312 C311 1.374 . S
C313 C310 1.499 . S
C313 C314 1.373 1_545 S
C313 C315 1.389 . S
C314 H287 0.950 . S
C314 C300 1.377 1_455 S
C314 C313 1.373 1_565 S
C315 C299 1.377 1_455 S
C315 C313 1.389 . S
C315 C316 1.524 . S
C316 C315 1.524 . S
C316 C317 1.397 . S
C316 C321 1.363 . S
C317 H288 0.950 . S
C317 C316 1.397 . S
C317 C318 1.334 . S
C318 H289 0.950 . S
C318 C317 1.334 . S
C318 C319 1.287 . S
C319 C318 1.287 . S
C319 C320 1.524 . S
C319 H322 0.999 . S
C320 H290 0.950 . S
C320 C319 1.524 . S
C320 C321 1.415 . S
C321 H291 0.950 . S
C321 C316 1.363 . S
C321 C320 1.415 . S
H322 C319 0.999 . S
H323 C304 0.913 . S
H324 C342 0.951 . S
H325 C344 0.951 1_545 S
H326 C346 0.950 . S
H327 C347 0.950 . S
H328 C349 0.950 . S
H329 C352 0.950 . S
H330 C353 0.950 . S
H331 C355 0.950 . S
H332 C356 0.950 . S
H333 C357 0.951 . S
H334 C359 0.951 1_565 S
H335 C361 0.950 . S
H336 C362 0.950 . S
H337 C364 0.950 . S
H338 C367 0.950 . S
H339 C368 0.950 . S
H340 C370 0.950 . S
H341 C371 0.950 . S
C342 H324 0.951 . S
C342 C343 1.366 . S
C342 C344 1.388 . S
C343 C342 1.366 . S
C343 C347 1.385 . S
C344 H325 0.951 1_565 S
C344 C342 1.388 . S
C344 C345 1.366 . S
C345 C344 1.366 . S
C345 C346 1.414 . S
C345 C348 1.499 . S
C346 H326 0.950 . S
C346 C345 1.414 . S
C346 C347 1.374 . S
C347 H327 0.950 . S
C347 C343 1.385 . S
C347 C346 1.374 . S
C348 C345 1.499 . S
C348 C349 1.373 . S
C348 C350 1.389 1_565 S
C349 H328 0.950 . S
C349 C348 1.373 . S
C349 C365 1.377 . S
C350 C348 1.389 1_545 S
C350 C351 1.524 . S
C350 C364 1.377 . S
C351 C350 1.524 . S
C351 C352 1.397 . S
C351 C356 1.363 . S
C352 H329 0.950 . S
C352 C351 1.397 . S
C352 C353 1.334 . S
C353 H330 0.950 . S
C353 C352 1.334 . S
C353 C354 1.287 . S
C354 C353 1.287 . S
C354 C355 1.524 . S
C354 H373 0.913 . S
C355 H331 0.950 . S
C355 C354 1.524 . S
C355 C356 1.415 . S
C356 H332 0.950 . S
C356 C351 1.363 . S
C356 C355 1.415 . S
C357 H333 0.951 . S
C357 C358 1.366 . S
C357 C359 1.388 . S
C358 C357 1.366 . S
C358 C362 1.385 . S
C359 H334 0.951 1_545 S
C359 C357 1.388 . S
C359 C360 1.366 . S
C360 C359 1.366 . S
C360 C361 1.414 . S
C360 C363 1.499 . S
C361 H335 0.950 . S
C361 C360 1.414 . S
C361 C362 1.374 . S
C362 H336 0.950 . S
C362 C358 1.385 . S
C362 C361 1.374 . S
C363 C360 1.499 . S
C363 C364 1.373 . S
C363 C365 1.389 1_545 S
C364 H337 0.950 . S
C364 C350 1.377 . S
C364 C363 1.373 . S
C365 C349 1.377 . S
C365 C363 1.389 1_565 S
C365 C366 1.524 . S
C366 C365 1.524 . S
C366 C367 1.397 . S
C366 C371 1.363 . S
C367 H338 0.950 . S
C367 C366 1.397 . S
C367 C368 1.334 . S
C368 H339 0.950 . S
C368 C367 1.334 . S
C368 C369 1.287 . S
C369 C368 1.287 . S
C369 C370 1.524 . S
C369 H372 0.999 . S
C370 H340 0.950 . S
C370 C369 1.524 . S
C370 C371 1.415 . S
C371 H341 0.950 . S
C371 C366 1.363 . S
C371 C370 1.415 . S
H372 C369 0.999 . S
H373 C354 0.913 . S
H374 C392 0.951 . S
H375 C394 0.951 . S
H376 C396 0.950 . S
H377 C397 0.950 . S
H378 C399 0.950 . S
H379 C402 0.950 . S
H380 C403 0.950 . S
H381 C405 0.950 . S
H382 C406 0.950 . S
H383 C407 0.951 . S
H384 C409 0.951 . S
H385 C411 0.950 . S
H386 C412 0.950 . S
H387 C414 0.950 . S
H388 C417 0.950 . S
H389 C418 0.950 . S
H390 C420 0.950 . S
H391 C421 0.950 . S
C392 H374 0.951 . S
C392 C393 1.366 . S
C392 C394 1.388 . S
C393 C392 1.366 . S
C393 C397 1.385 . S
C394 H375 0.951 . S
C394 C392 1.388 . S
C394 C395 1.366 . S
C395 C394 1.366 . S
C395 C396 1.414 . S
C395 C398 1.499 . S
C396 H376 0.950 . S
C396 C395 1.414 . S
C396 C397 1.374 . S
C397 H377 0.950 . S
C397 C393 1.385 . S
C397 C396 1.374 . S
C398 C395 1.499 . S
C398 C399 1.373 . S
C398 C400 1.389 1_455 S
C399 H378 0.950 . S
C399 C398 1.373 . S
C399 C415 1.377 . S
C400 C398 1.389 1_655 S
C400 C401 1.524 . S
C400 C414 1.377 . S
C401 C400 1.524 . S
C401 C402 1.397 . S
C401 C406 1.363 . S
C402 H379 0.950 . S
C402 C401 1.397 . S
C402 C403 1.334 . S
C403 H380 0.950 . S
C403 C402 1.334 . S
C403 C404 1.287 . S
C404 C403 1.287 . S
C404 C405 1.524 . S
C404 H423 0.913 . S
C405 H381 0.950 . S
C405 C404 1.524 . S
C405 C406 1.415 . S
C406 H382 0.950 . S
C406 C401 1.363 . S
C406 C405 1.415 . S
C407 H383 0.951 . S
C407 C408 1.366 . S
C407 C409 1.388 . S
C408 C407 1.366 . S
C408 C412 1.385 . S
C409 H384 0.951 . S
C409 C407 1.388 . S
C409 C410 1.366 . S
C410 C409 1.366 . S
C410 C411 1.414 . S
C410 C413 1.499 . S
C411 H385 0.950 . S
C411 C410 1.414 . S
C411 C412 1.374 . S
C412 H386 0.950 . S
C412 C408 1.385 . S
C412 C411 1.374 . S
C413 C410 1.499 . S
C413 C414 1.373 . S
C413 C415 1.389 1_655 S
C414 H387 0.950 . S
C414 C400 1.377 . S
C414 C413 1.373 . S
C415 C399 1.377 . S
C415 C413 1.389 1_455 S
C415 C416 1.524 . S
C416 C415 1.524 . S
C416 C417 1.397 . S
C416 C421 1.363 . S
C417 H388 0.950 . S
C417 C416 1.397 . S
C417 C418 1.334 . S
C418 H389 0.950 . S
C418 C417 1.334 . S
C418 C419 1.287 . S
C419 C418 1.287 . S
C419 C420 1.524 . S
C419 H422 0.999 . S
C420 H390 0.950 . S
C420 C419 1.524 . S
C420 C421 1.415 . S
C421 H391 0.950 . S
C421 C416 1.363 . S
C421 C420 1.415 . S
H422 C419 0.999 . S
H423 C404 0.913 . S
H424 C442 0.951 . S
H425 C444 0.951 . S
H426 C446 0.950 . S
H427 C447 0.950 . S
H428 C449 0.950 . S
H429 C452 0.950 . S
H430 C453 0.950 . S
H431 C455 0.950 . S
H432 C456 0.950 . S
H433 C457 0.951 . S
H434 C459 0.951 . S
H435 C461 0.950 . S
H436 C462 0.950 . S
H437 C464 0.950 . S
H438 C467 0.950 . S
H439 C468 0.950 . S
H440 C470 0.950 . S
H441 C471 0.950 . S
C442 H424 0.951 . S
C442 C443 1.366 . S
C442 C444 1.388 . S
C443 C442 1.366 . S
C443 C447 1.385 . S
C444 H425 0.951 . S
C444 C442 1.388 . S
C444 C445 1.366 . S
C445 C444 1.366 . S
C445 C446 1.414 . S
C445 C448 1.499 . S
C446 H426 0.950 . S
C446 C445 1.414 . S
C446 C447 1.374 . S
C447 H427 0.950 . S
C447 C443 1.385 . S
C447 C446 1.374 . S
C448 C445 1.499 . S
C448 C449 1.373 . S
C448 C450 1.389 . S
C449 H428 0.950 . S
C449 C448 1.373 . S
C449 C465 1.377 . S
C450 C448 1.389 . S
C450 C451 1.524 . S
C450 C464 1.377 . S
C451 C450 1.524 . S
C451 C452 1.397 . S
C451 C456 1.363 . S
C452 H429 0.950 . S
C452 C451 1.397 . S
C452 C453 1.334 . S
C453 H430 0.950 . S
C453 C452 1.334 . S
C453 C454 1.287 . S
C454 C453 1.287 . S
C454 C455 1.524 . S
C454 H473 0.913 . S
C455 H431 0.950 . S
C455 C454 1.524 . S
C455 C456 1.415 . S
C456 H432 0.950 . S
C456 C451 1.363 . S
C456 C455 1.415 . S
C457 H433 0.951 . S
C457 C458 1.366 . S
C457 C459 1.388 . S
C458 C457 1.366 . S
C458 C462 1.385 . S
C459 H434 0.951 . S
C459 C457 1.388 . S
C459 C460 1.366 . S
C460 C459 1.366 . S
C460 C461 1.414 . S
C460 C463 1.499 . S
C461 H435 0.950 . S
C461 C460 1.414 . S
C461 C462 1.374 . S
C462 H436 0.950 . S
C462 C458 1.385 . S
C462 C461 1.374 . S
C463 C460 1.499 . S
C463 C464 1.373 . S
C463 C465 1.389 . S
C464 H437 0.950 . S
C464 C450 1.377 . S
C464 C463 1.373 . S
C465 C449 1.377 . S
C465 C463 1.389 . S
C465 C466 1.524 . S
C466 C465 1.524 . S
C466 C467 1.397 . S
C466 C471 1.363 . S
C467 H438 0.950 . S
C467 C466 1.397 . S
C467 C468 1.334 . S
C468 H439 0.950 . S
C468 C467 1.334 . S
C468 C469 1.287 . S
C469 C468 1.287 . S
C469 C470 1.524 . S
C469 H472 0.999 . S
C470 H440 0.950 . S
C470 C469 1.524 . S
C470 C471 1.415 . S
C471 H441 0.950 . S
C471 C466 1.363 . S
C471 C470 1.415 . S
H472 C469 0.999 . S
H473 C454 0.913 . S
H474 C492 0.951 . S
H475 C494 0.951 1_565 S
H476 C496 0.950 . S
H477 C497 0.950 . S
H478 C499 0.950 . S
H479 C502 0.950 . S
H480 C503 0.950 . S
H481 C505 0.950 . S
H482 C506 0.950 . S
H483 C507 0.951 . S
H484 C509 0.951 1_545 S
H485 C511 0.950 . S
H486 C512 0.950 . S
H487 C514 0.950 . S
H488 C517 0.950 . S
H489 C518 0.950 . S
H490 C520 0.950 . S
H491 C521 0.950 . S
C492 H474 0.951 . S
C492 C493 1.366 . S
C492 C494 1.388 . S
C493 C492 1.366 . S
C493 C497 1.385 . S
C494 H475 0.951 1_545 S
C494 C492 1.388 . S
C494 C495 1.366 . S
C495 C494 1.366 . S
C495 C496 1.414 . S
C495 C498 1.499 . S
C496 H476 0.950 . S
C496 C495 1.414 . S
C496 C497 1.374 . S
C497 H477 0.950 . S
C497 C493 1.385 . S
C497 C496 1.374 . S
C498 C495 1.499 . S
C498 C499 1.373 . S
C498 C500 1.389 1_545 S
C499 H478 0.950 . S
C499 C498 1.373 . S
C499 C515 1.377 . S
C500 C498 1.389 1_565 S
C500 C501 1.524 . S
C500 C514 1.377 . S
C501 C500 1.524 . S
C501 C502 1.397 . S
C501 C506 1.363 . S
C502 H479 0.950 . S
C502 C501 1.397 . S
C502 C503 1.334 . S
C503 H480 0.950 . S
C503 C502 1.334 . S
C503 C504 1.287 . S
C504 C503 1.287 . S
C504 C505 1.524 . S
C504 H523 0.913 . S
C505 H481 0.950 . S
C505 C504 1.524 . S
C505 C506 1.415 . S
C506 H482 0.950 . S
C506 C501 1.363 . S
C506 C505 1.415 . S
C507 H483 0.951 . S
C507 C508 1.366 . S
C507 C509 1.388 . S
C508 C507 1.366 . S
C508 C512 1.385 . S
C509 H484 0.951 1_565 S
C509 C507 1.388 . S
C509 C510 1.366 . S
C510 C509 1.366 . S
C510 C511 1.414 . S
C510 C513 1.499 . S
C511 H485 0.950 . S
C511 C510 1.414 . S
C511 C512 1.374 . S
C512 H486 0.950 . S
C512 C508 1.385 . S
C512 C511 1.374 . S
C513 C510 1.499 . S
C513 C514 1.373 . S
C513 C515 1.389 1_565 S
C514 H487 0.950 . S
C514 C500 1.377 . S
C514 C513 1.373 . S
C515 C499 1.377 . S
C515 C513 1.389 1_545 S
C515 C516 1.524 . S
C516 C515 1.524 . S
C516 C517 1.397 . S
C516 C521 1.363 . S
C517 H488 0.950 . S
C517 C516 1.397 . S
C517 C518 1.334 . S
C518 H489 0.950 . S
C518 C517 1.334 . S
C518 C519 1.287 . S
C519 C518 1.287 . S
C519 C520 1.524 . S
C519 H522 0.999 . S
C520 H490 0.950 . S
C520 C519 1.524 . S
C520 C521 1.415 . S
C521 H491 0.950 . S
C521 C516 1.363 . S
C521 C520 1.415 . S
H522 C519 0.999 . S
H523 C504 0.913 . S
H524 C542 0.951 . S
H525 C544 0.951 . S
H526 C546 0.950 . S
H527 C547 0.950 . S
H528 C549 0.950 . S
H529 C552 0.950 . S
H530 C553 0.950 . S
H531 C555 0.950 . S
H532 C556 0.950 . S
H533 C557 0.951 . S
H534 C559 0.951 . S
H535 C561 0.950 . S
H536 C562 0.950 . S
H537 C564 0.950 . S
H538 C567 0.950 . S
H539 C568 0.950 . S
H540 C570 0.950 . S
H541 C571 0.950 . S
C542 H524 0.951 . S
C542 C543 1.366 . S
C542 C544 1.388 . S
C543 C542 1.366 . S
C543 C547 1.385 . S
C544 H525 0.951 . S
C544 C542 1.388 . S
C544 C545 1.366 . S
C545 C544 1.366 . S
C545 C546 1.414 . S
C545 C548 1.499 . S
C546 H526 0.950 . S
C546 C545 1.414 . S
C546 C547 1.374 . S
C547 H527 0.950 . S
C547 C543 1.385 . S
C547 C546 1.374 . S
C548 C545 1.499 . S
C548 C549 1.373 . S
C548 C550 1.389 . S
C549 H528 0.950 . S
C549 C548 1.373 . S
C549 C565 1.377 1_655 S
C550 C548 1.389 . S
C550 C551 1.524 . S
C550 C564 1.377 1_655 S
C551 C550 1.524 . S
C551 C552 1.397 . S
C551 C556 1.363 . S
C552 H529 0.950 . S
C552 C551 1.397 . S
C552 C553 1.334 . S
C553 H530 0.950 . S
C553 C552 1.334 . S
C553 C554 1.287 . S
C554 C553 1.287 . S
C554 C555 1.524 . S
C554 H573 0.913 . S
C555 H531 0.950 . S
C555 C554 1.524 . S
C555 C556 1.415 . S
C556 H532 0.950 . S
C556 C551 1.363 . S
C556 C555 1.415 . S
C557 H533 0.951 . S
C557 C558 1.366 . S
C557 C559 1.388 . S
C558 C557 1.366 . S
C558 C562 1.385 . S
C559 H534 0.951 . S
C559 C557 1.388 . S
C559 C560 1.366 . S
C560 C559 1.366 . S
C560 C561 1.414 . S
C560 C563 1.499 . S
C561 H535 0.950 . S
C561 C560 1.414 . S
C561 C562 1.374 . S
C562 H536 0.950 . S
C562 C558 1.385 . S
C562 C561 1.374 . S
C563 C560 1.499 . S
C563 C564 1.373 . S
C563 C565 1.389 . S
C564 H537 0.950 . S
C564 C550 1.377 1_455 S
C564 C563 1.373 . S
C565 C549 1.377 1_455 S
C565 C563 1.389 . S
C565 C566 1.524 . S
C566 C565 1.524 . S
C566 C567 1.397 . S
C566 C571 1.363 . S
C567 H538 0.950 . S
C567 C566 1.397 . S
C567 C568 1.334 . S
C568 H539 0.950 . S
C568 C567 1.334 . S
C568 C569 1.287 . S
C569 C568 1.287 . S
C569 C570 1.524 . S
C569 H572 0.999 . S
C570 H540 0.950 . S
C570 C569 1.524 . S
C570 C571 1.415 . S
C571 H541 0.950 . S
C571 C566 1.363 . S
C571 C570 1.415 . S
H572 C569 0.999 . S
H573 C554 0.913 . S
H574 C592 0.951 . S
H575 C594 0.951 . S
H576 C596 0.950 . S
H577 C597 0.950 . S
H578 C599 0.950 . S
H579 C602 0.950 . S
H580 C603 0.950 . S
H581 C605 0.950 . S
H582 C606 0.950 . S
H583 C607 0.951 . S
H584 C609 0.951 . S
H585 C611 0.950 . S
H586 C612 0.950 . S
H587 C614 0.950 . S
H588 C617 0.950 . S
H589 C618 0.950 . S
H590 C620 0.950 . S
H591 C621 0.950 . S
C592 H574 0.951 . S
C592 C593 1.366 . S
C592 C594 1.388 . S
C593 C592 1.366 . S
C593 C597 1.385 . S
C594 H575 0.951 . S
C594 C592 1.388 . S
C594 C595 1.366 . S
C595 C594 1.366 . S
C595 C596 1.414 . S
C595 C598 1.499 . S
C596 H576 0.950 . S
C596 C595 1.414 . S
C596 C597 1.374 . S
C597 H577 0.950 . S
C597 C593 1.385 . S
C597 C596 1.374 . S
C598 C595 1.499 . S
C598 C599 1.373 . S
C598 C600 1.389 1_554 S
C599 H578 0.950 . S
C599 C598 1.373 . S
C599 C615 1.377 . S
C600 C598 1.389 1_556 S
C600 C601 1.524 . S
C600 C614 1.377 . S
C601 C600 1.524 . S
C601 C602 1.397 1_556 S
C601 C606 1.363 . S
C602 H579 0.950 . S
C602 C601 1.397 1_554 S
C602 C603 1.334 . S
C603 H580 0.950 . S
C603 C602 1.334 . S
C603 C604 1.287 1_554 S
C604 C603 1.287 1_556 S
C604 C605 1.524 . S
C604 H623 0.913 . S
C605 H581 0.950 . S
C605 C604 1.524 . S
C605 C606 1.415 . S
C606 H582 0.950 . S
C606 C601 1.363 . S
C606 C605 1.415 . S
C607 H583 0.951 . S
C607 C608 1.366 . S
C607 C609 1.388 . S
C608 C607 1.366 . S
C608 C612 1.385 . S
C609 H584 0.951 . S
C609 C607 1.388 . S
C609 C610 1.366 . S
C610 C609 1.366 . S
C610 C611 1.414 . S
C610 C613 1.499 . S
C611 H585 0.950 . S
C611 C610 1.414 . S
C611 C612 1.374 . S
C612 H586 0.950 . S
C612 C608 1.385 . S
C612 C611 1.374 . S
C613 C610 1.499 . S
C613 C614 1.373 . S
C613 C615 1.389 1_556 S
C614 H587 0.950 . S
C614 C600 1.377 . S
C614 C613 1.373 . S
C615 C599 1.377 . S
C615 C613 1.389 1_554 S
C615 C616 1.524 . S
C616 C615 1.524 . S
C616 C617 1.397 1_554 S
C616 C621 1.363 . S
C617 H588 0.950 . S
C617 C616 1.397 1_556 S
C617 C618 1.334 . S
C618 H589 0.950 . S
C618 C617 1.334 . S
C618 C619 1.287 1_556 S
C619 C618 1.287 1_554 S
C619 C620 1.524 . S
C619 H622 0.999 . S
C620 H590 0.950 . S
C620 C619 1.524 . S
C620 C621 1.415 . S
C621 H591 0.950 . S
C621 C616 1.363 . S
C621 C620 1.415 . S
H622 C619 0.999 . S
H623 C604 0.913 . S
H624 C642 0.951 . S
H625 C644 0.951 . S
H626 C646 0.950 . S
H627 C647 0.950 . S
H628 C649 0.950 . S
H629 C652 0.950 . S
H630 C653 0.950 . S
H631 C655 0.950 . S
H632 C656 0.950 . S
H633 C657 0.951 . S
H634 C659 0.951 . S
H635 C661 0.950 . S
H636 C662 0.950 . S
H637 C664 0.950 . S
H638 C667 0.950 . S
H639 C668 0.950 . S
H640 C670 0.950 . S
H641 C671 0.950 . S
C642 H624 0.951 . S
C642 C643 1.366 . S
C642 C644 1.388 . S
C643 C642 1.366 . S
C643 C647 1.385 . S
C644 H625 0.951 . S
C644 C642 1.388 . S
C644 C645 1.366 . S
C645 C644 1.366 . S
C645 C646 1.414 . S
C645 C648 1.499 . S
C646 H626 0.950 . S
C646 C645 1.414 . S
C646 C647 1.374 . S
C647 H627 0.950 . S
C647 C643 1.385 . S
C647 C646 1.374 . S
C648 C645 1.499 . S
C648 C649 1.360 1_556 S
C648 C650 1.389 . S
C649 H628 0.950 . S
C649 C648 1.360 1_554 S
C649 C665 1.390 1_455 S
C650 C648 1.389 . S
C650 C651 1.524 . S
C650 C664 1.390 1_455 S
C651 C650 1.524 . S
C651 C652 1.397 . S
C651 C656 1.363 . S
C652 H629 0.950 . S
C652 C651 1.397 . S
C652 C653 1.334 . S
C653 H630 0.950 . S
C653 C652 1.334 . S
C653 C654 1.287 . S
C654 C653 1.287 . S
C654 C655 1.524 . S
C654 H673 0.913 . S
C655 H631 0.950 . S
C655 C654 1.524 . S
C655 C656 1.415 . S
C656 H632 0.950 . S
C656 C651 1.363 . S
C656 C655 1.415 . S
C657 H633 0.951 . S
C657 C658 1.366 . S
C657 C659 1.388 . S
C658 C657 1.366 . S
C658 C662 1.385 . S
C659 H634 0.951 . S
C659 C657 1.388 . S
C659 C660 1.366 . S
C660 C659 1.366 . S
C660 C661 1.414 . S
C660 C663 1.499 . S
C661 H635 0.950 . S
C661 C660 1.414 . S
C661 C662 1.374 . S
C662 H636 0.950 . S
C662 C658 1.385 . S
C662 C661 1.374 . S
C663 C660 1.499 . S
C663 C664 1.360 1_554 S
C663 C665 1.389 . S
C664 H637 0.950 . S
C664 C650 1.390 1_655 S
C664 C663 1.360 1_556 S
C665 C649 1.390 1_655 S
C665 C663 1.389 . S
C665 C666 1.524 . S
C666 C665 1.524 . S
C666 C667 1.397 . S
C666 C671 1.363 . S
C667 H638 0.950 . S
C667 C666 1.397 . S
C667 C668 1.334 . S
C668 H639 0.950 . S
C668 C667 1.334 . S
C668 C669 1.287 . S
C669 C668 1.287 . S
C669 C670 1.524 . S
C669 H672 0.999 . S
C670 H640 0.950 . S
C670 C669 1.524 . S
C670 C671 1.415 . S
C671 H641 0.950 . S
C671 C666 1.363 . S
C671 C670 1.415 . S
H672 C669 0.999 . S
H673 C654 0.913 . S
H674 C692 0.951 . S
H675 C694 0.951 . S
H676 C696 0.950 . S
H677 C697 0.950 . S
H678 C699 0.950 . S
H679 C702 0.950 . S
H680 C703 0.950 . S
H681 C705 0.950 . S
H682 C706 0.950 . S
H683 C707 0.951 . S
H684 C709 0.951 . S
H685 C711 0.950 . S
H686 C712 0.950 . S
H687 C714 0.950 . S
H688 C717 0.950 . S
H689 C718 0.950 . S
H690 C720 0.950 . S
H691 C721 0.950 . S
C692 H674 0.951 . S
C692 C693 1.366 . S
C692 C694 1.388 . S
C693 C692 1.366 . S
C693 C697 1.385 . S
C694 H675 0.951 . S
C694 C692 1.388 . S
C694 C695 1.366 . S
C695 C694 1.366 . S
C695 C696 1.414 . S
C695 C698 1.499 . S
C696 H676 0.950 . S
C696 C695 1.414 . S
C696 C697 1.374 . S
C697 H677 0.950 . S
C697 C693 1.385 . S
C697 C696 1.374 . S
C698 C695 1.499 . S
C698 C699 1.373 . S
C698 C700 1.389 . S
C699 H678 0.950 . S
C699 C698 1.373 . S
C699 C715 1.377 . S
C700 C698 1.389 . S
C700 C701 1.524 . S
C700 C714 1.377 . S
C701 C700 1.524 . S
C701 C702 1.397 . S
C701 C706 1.363 . S
C702 H679 0.950 . S
C702 C701 1.397 . S
C702 C703 1.334 . S
C703 H680 0.950 . S
C703 C702 1.334 . S
C703 C704 1.287 . S
C704 C703 1.287 . S
C704 C705 1.524 . S
C704 H723 0.913 . S
C705 H681 0.950 . S
C705 C704 1.524 . S
C705 C706 1.415 . S
C706 H682 0.950 . S
C706 C701 1.363 . S
C706 C705 1.415 . S
C707 H683 0.951 . S
C707 C708 1.366 . S
C707 C709 1.388 . S
C708 C707 1.366 . S
C708 C712 1.385 . S
C709 H684 0.951 . S
C709 C707 1.388 . S
C709 C710 1.366 . S
C710 C709 1.366 . S
C710 C711 1.414 . S
C710 C713 1.499 . S
C711 H685 0.950 . S
C711 C710 1.414 . S
C711 C712 1.374 . S
C712 H686 0.950 . S
C712 C708 1.385 . S
C712 C711 1.374 . S
C713 C710 1.499 . S
C713 C714 1.373 . S
C713 C715 1.389 . S
C714 H687 0.950 . S
C714 C700 1.377 . S
C714 C713 1.373 . S
C715 C699 1.377 . S
C715 C713 1.389 . S
C715 C716 1.524 . S
C716 C715 1.524 . S
C716 C717 1.397 . S
C716 C721 1.363 . S
C717 H688 0.950 . S
C717 C716 1.397 . S
C717 C718 1.334 . S
C718 H689 0.950 . S
C718 C717 1.334 . S
C718 C719 1.287 . S
C719 C718 1.287 . S
C719 C720 1.524 . S
C719 H722 0.999 . S
C720 H690 0.950 . S
C720 C719 1.524 . S
C720 C721 1.415 . S
C721 H691 0.950 . S
C721 C716 1.363 . S
C721 C720 1.415 . S
H722 C719 0.999 . S
H723 C704 0.913 . S
H724 C742 0.951 . S
H725 C744 0.951 . S
H726 C746 0.950 . S
H727 C747 0.950 . S
H728 C749 0.960 . S
H729 C752 0.950 . S
H730 C753 0.950 . S
H731 C755 0.950 . S
H732 C756 0.950 . S
H733 C757 0.951 . S
H734 C759 0.951 . S
H735 C761 0.950 . S
H736 C762 0.950 . S
H737 C764 0.960 . S
H738 C767 0.950 . S
H739 C768 0.950 . S
H740 C770 0.950 . S
H741 C771 0.950 . S
C742 H724 0.951 . S
C742 C743 1.366 . S
C742 C744 1.388 . S
C743 C742 1.366 . S
C743 C747 1.385 . S
C744 H725 0.951 . S
C744 C742 1.388 . S
C744 C745 1.366 . S
C745 C744 1.366 . S
C745 C746 1.414 . S
C745 C748 1.499 . S
C746 H726 0.950 . S
C746 C745 1.414 . S
C746 C747 1.374 . S
C747 H727 0.950 . S
C747 C743 1.385 . S
C747 C746 1.374 . S
C748 C745 1.499 . S
C748 C749 1.329 1_556 S
C748 C750 1.389 . S
C749 H728 0.960 . S
C749 C748 1.329 1_554 S
C749 C765 1.415 . S
C750 C748 1.389 . S
C750 C751 1.524 . S
C750 C764 1.415 . S
C751 C750 1.524 . S
C751 C752 1.397 . S
C751 C756 1.363 . S
C752 H729 0.950 . S
C752 C751 1.397 . S
C752 C753 1.334 . S
C753 H730 0.950 . S
C753 C752 1.334 . S
C753 C754 1.287 . S
C754 C753 1.287 . S
C754 C755 1.524 . S
C754 H773 0.913 . S
C755 H731 0.950 . S
C755 C754 1.524 . S
C755 C756 1.415 . S
C756 H732 0.950 . S
C756 C751 1.363 . S
C756 C755 1.415 . S
C757 H733 0.951 . S
C757 C758 1.366 . S
C757 C759 1.388 . S
C758 C757 1.366 . S
C758 C762 1.385 . S
C759 H734 0.951 . S
C759 C757 1.388 . S
C759 C760 1.366 . S
C760 C759 1.366 . S
C760 C761 1.414 . S
C760 C763 1.499 . S
C761 H735 0.950 . S
C761 C760 1.414 . S
C761 C762 1.374 . S
C762 H736 0.950 . S
C762 C758 1.385 . S
C762 C761 1.374 . S
C763 C760 1.499 . S
C763 C764 1.329 1_554 S
C763 C765 1.389 . S
C764 H737 0.960 . S
C764 C750 1.415 . S
C764 C763 1.329 1_556 S
C765 C749 1.415 . S
C765 C763 1.389 . S
C765 C766 1.524 . S
C766 C765 1.524 . S
C766 C767 1.397 . S
C766 C771 1.363 . S
C767 H738 0.950 . S
C767 C766 1.397 . S
C767 C768 1.334 . S
C768 H739 0.950 . S
C768 C767 1.334 . S
C768 C769 1.287 . S
C769 C768 1.287 . S
C769 C770 1.524 . S
C769 H772 0.999 . S
C770 H740 0.950 . S
C770 C769 1.524 . S
C770 C771 1.415 . S
C771 H741 0.950 . S
C771 C766 1.363 . S
C771 C770 1.415 . S
H772 C769 0.999 . S
H773 C754 0.913 . S
H774 C792 0.951 . S
H775 C794 0.951 . S
H776 C796 0.950 . S
H777 C797 0.950 . S
H778 C799 0.950 . S
H779 C802 0.950 . S
H780 C803 0.950 . S
H781 C805 0.950 . S
H782 C806 0.950 . S
H783 C807 0.951 . S
H784 C809 0.951 . S
H785 C811 0.950 . S
H786 C812 0.950 . S
H787 C814 0.950 . S
H788 C817 0.950 . S
H789 C818 0.950 . S
H790 C820 0.950 . S
H791 C821 0.950 . S
C792 H774 0.951 . S
C792 C793 1.366 . S
C792 C794 1.388 . S
C793 C792 1.366 . S
C793 C797 1.385 . S
C794 H775 0.951 . S
C794 C792 1.388 . S
C794 C795 1.366 . S
C795 C794 1.366 . S
C795 C796 1.414 . S
C795 C798 1.499 . S
C796 H776 0.950 . S
C796 C795 1.414 . S
C796 C797 1.374 . S
C797 H777 0.950 . S
C797 C793 1.385 . S
C797 C796 1.374 . S
C798 C795 1.499 . S
C798 C799 1.373 . S
C798 C800 1.389 . S
C799 H778 0.950 . S
C799 C798 1.373 . S
C799 C815 1.377 . S
C800 C798 1.389 . S
C800 C801 1.524 . S
C800 C814 1.377 . S
C801 C800 1.524 . S
C801 C802 1.397 . S
C801 C806 1.363 . S
C802 H779 0.950 . S
C802 C801 1.397 . S
C802 C803 1.334 . S
C803 H780 0.950 . S
C803 C802 1.334 . S
C803 C804 1.287 . S
C804 C803 1.287 . S
C804 C805 1.524 . S
C804 H823 0.913 . S
C805 H781 0.950 . S
C805 C804 1.524 . S
C805 C806 1.415 . S
C806 H782 0.950 . S
C806 C801 1.363 . S
C806 C805 1.415 . S
C807 H783 0.951 . S
C807 C808 1.366 . S
C807 C809 1.388 . S
C808 C807 1.366 . S
C808 C812 1.385 . S
C809 H784 0.951 . S
C809 C807 1.388 . S
C809 C810 1.366 . S
C810 C809 1.366 . S
C810 C811 1.414 . S
C810 C813 1.499 . S
C811 H785 0.950 . S
C811 C810 1.414 . S
C811 C812 1.374 . S
C812 H786 0.950 . S
C812 C808 1.385 . S
C812 C811 1.374 . S
C813 C810 1.499 . S
C813 C814 1.373 . S
C813 C815 1.389 . S
C814 H787 0.950 . S
C814 C800 1.377 . S
C814 C813 1.373 . S
C815 C799 1.377 . S
C815 C813 1.389 . S
C815 C816 1.524 . S
C816 C815 1.524 . S
C816 C817 1.397 . S
C816 C821 1.363 . S
C817 H788 0.950 . S
C817 C816 1.397 . S
C817 C818 1.334 . S
C818 H789 0.950 . S
C818 C817 1.334 . S
C818 C819 1.287 . S
C819 C818 1.287 . S
C819 C820 1.524 . S
C819 H822 0.999 . S
C820 H790 0.950 . S
C820 C819 1.524 . S
C820 C821 1.415 . S
C821 H791 0.950 . S
C821 C816 1.363 . S
C821 C820 1.415 . S
H822 C819 0.999 . S
H823 C804 0.913 . S
H824 C842 0.951 . S
H825 C844 0.951 . S
H826 C846 0.950 . S
H827 C847 0.950 . S
H828 C849 0.950 . S
H829 C852 0.950 . S
H830 C853 0.950 . S
H831 C855 0.950 . S
H832 C856 0.950 . S
H833 C857 0.951 . S
H834 C859 0.951 . S
H835 C861 0.950 . S
H836 C862 0.950 . S
H837 C864 0.950 . S
H838 C867 0.950 . S
H839 C868 0.950 . S
H840 C870 0.950 . S
H841 C871 0.950 . S
C842 H824 0.951 . S
C842 C843 1.366 . S
C842 C844 1.388 . S
C843 C842 1.366 . S
C843 C847 1.385 . S
C844 H825 0.951 . S
C844 C842 1.388 . S
C844 C845 1.366 . S
C845 C844 1.366 . S
C845 C846 1.414 . S
C845 C848 1.499 . S
C846 H826 0.950 . S
C846 C845 1.414 . S
C846 C847 1.374 . S
C847 H827 0.950 . S
C847 C843 1.385 . S
C847 C846 1.374 . S
C848 C845 1.499 . S
C848 C849 1.373 . S
C848 C850 1.389 1_545 S
C849 H828 0.950 . S
C849 C848 1.373 . S
C849 C865 1.377 1_556 S
C850 C848 1.389 1_565 S
C850 C851 1.524 . S
C850 C864 1.377 1_556 S
C851 C850 1.524 . S
C851 C852 1.397 . S
C851 C856 1.363 1_556 S
C852 H829 0.950 . S
C852 C851 1.397 . S
C852 C853 1.334 . S
C853 H830 0.950 . S
C853 C852 1.334 . S
C853 C854 1.287 . S
C854 C853 1.287 . S
C854 C855 1.524 1_556 S
C854 H873 0.913 . S
C855 H831 0.950 . S
C855 C854 1.524 1_554 S
C855 C856 1.415 . S
C856 H832 0.950 . S
C856 C851 1.363 1_554 S
C856 C855 1.415 . S
C857 H833 0.951 . S
C857 C858 1.366 . S
C857 C859 1.388 . S
C858 C857 1.366 . S
C858 C862 1.385 . S
C859 H834 0.951 . S
C859 C857 1.388 . S
C859 C860 1.366 . S
C860 C859 1.366 . S
C860 C861 1.414 . S
C860 C863 1.499 . S
C861 H835 0.950 . S
C861 C860 1.414 . S
C861 C862 1.374 . S
C862 H836 0.950 . S
C862 C858 1.385 . S
C862 C861 1.374 . S
C863 C860 1.499 . S
C863 C864 1.373 . S
C863 C865 1.389 1_565 S
C864 H837 0.950 . S
C864 C850 1.377 1_554 S
C864 C863 1.373 . S
C865 C849 1.377 1_554 S
C865 C863 1.389 1_545 S
C865 C866 1.524 . S
C866 C865 1.524 . S
C866 C867 1.397 . S
C866 C871 1.363 1_554 S
C867 H838 0.950 . S
C867 C866 1.397 . S
C867 C868 1.334 . S
C868 H839 0.950 . S
C868 C867 1.334 . S
C868 C869 1.287 . S
C869 C868 1.287 . S
C869 C870 1.524 1_554 S
C869 H872 0.999 . S
C870 H840 0.950 . S
C870 C869 1.524 1_556 S
C870 C871 1.415 . S
C871 H841 0.950 . S
C871 C866 1.363 1_556 S
C871 C870 1.415 . S
H872 C869 0.999 . S
H873 C854 0.913 . S
H874 C892 0.951 . S
H875 C894 0.951 . S
H876 C896 0.950 . S
H877 C897 0.950 . S
H878 C899 0.950 . S
H879 C902 0.950 . S
H880 C903 0.950 . S
H881 C905 0.950 . S
H882 C906 0.950 . S
H883 C907 0.951 . S
H884 C909 0.951 . S
H885 C911 0.950 . S
H886 C912 0.950 . S
H887 C914 0.950 . S
H888 C917 0.950 . S
H889 C918 0.950 . S
H890 C920 0.950 . S
H891 C921 0.950 . S
C892 H874 0.951 . S
C892 C893 1.366 . S
C892 C894 1.388 . S
C893 C892 1.366 . S
C893 C897 1.385 . S
C894 H875 0.951 . S
C894 C892 1.388 . S
C894 C895 1.366 . S
C895 C894 1.366 . S
C895 C896 1.414 . S
C895 C898 1.499 . S
C896 H876 0.950 . S
C896 C895 1.414 . S
C896 C897 1.374 . S
C897 H877 0.950 . S
C897 C893 1.385 . S
C897 C896 1.374 . S
C898 C895 1.499 . S
C898 C899 1.373 . S
C898 C900 1.389 . S
C899 H878 0.950 . S
C899 C898 1.373 . S
C899 C915 1.377 . S
C900 C898 1.389 . S
C900 C901 1.524 . S
C900 C914 1.377 . S
C901 C900 1.524 . S
C901 C902 1.397 . S
C901 C906 1.363 . S
C902 H879 0.950 . S
C902 C901 1.397 . S
C902 C903 1.334 . S
C903 H880 0.950 . S
C903 C902 1.334 . S
C903 C904 1.287 . S
C904 C903 1.287 . S
C904 C905 1.524 . S
C904 H923 0.913 . S
C905 H881 0.950 . S
C905 C904 1.524 . S
C905 C906 1.415 . S
C906 H882 0.950 . S
C906 C901 1.363 . S
C906 C905 1.415 . S
C907 H883 0.951 . S
C907 C908 1.366 . S
C907 C909 1.388 . S
C908 C907 1.366 . S
C908 C912 1.385 . S
C909 H884 0.951 . S
C909 C907 1.388 . S
C909 C910 1.366 . S
C910 C909 1.366 . S
C910 C911 1.414 . S
C910 C913 1.499 . S
C911 H885 0.950 . S
C911 C910 1.414 . S
C911 C912 1.374 . S
C912 H886 0.950 . S
C912 C908 1.385 . S
C912 C911 1.374 . S
C913 C910 1.499 . S
C913 C914 1.373 . S
C913 C915 1.389 . S
C914 H887 0.950 . S
C914 C900 1.377 . S
C914 C913 1.373 . S
C915 C899 1.377 . S
C915 C913 1.389 . S
C915 C916 1.524 . S
C916 C915 1.524 . S
C916 C917 1.397 . S
C916 C921 1.363 . S
C917 H888 0.950 . S
C917 C916 1.397 . S
C917 C918 1.334 . S
C918 H889 0.950 . S
C918 C917 1.334 . S
C918 C919 1.287 . S
C919 C918 1.287 . S
C919 C920 1.524 . S
C919 H922 0.999 . S
C920 H890 0.950 . S
C920 C919 1.524 . S
C920 C921 1.415 . S
C921 H891 0.950 . S
C921 C916 1.363 . S
C921 C920 1.415 . S
H922 C919 0.999 . S
H923 C904 0.913 . S
H924 C942 0.951 . S
H925 C944 0.951 . S
H926 C946 0.950 . S
H927 C947 0.950 . S
H928 C949 0.950 . S
H929 C952 0.950 . S
H930 C953 0.950 . S
H931 C955 0.950 . S
H932 C956 0.950 . S
H933 C957 0.951 . S
H934 C959 0.951 . S
H935 C961 0.950 . S
H936 C962 0.950 . S
H937 C964 0.950 . S
H938 C967 0.950 . S
H939 C968 0.950 . S
H940 C970 0.950 . S
H941 C971 0.950 . S
C942 H924 0.951 . S
C942 C943 1.366 . S
C942 C944 1.388 . S
C943 C942 1.366 . S
C943 C947 1.385 . S
C944 H925 0.951 . S
C944 C942 1.388 . S
C944 C945 1.366 . S
C945 C944 1.366 . S
C945 C946 1.414 . S
C945 C948 1.499 . S
C946 H926 0.950 . S
C946 C945 1.414 . S
C946 C947 1.374 . S
C947 H927 0.950 . S
C947 C943 1.385 . S
C947 C946 1.374 . S
C948 C945 1.499 . S
C948 C949 1.373 . S
C948 C950 1.389 . S
C949 H928 0.950 . S
C949 C948 1.373 . S
C949 C965 1.377 . S
C950 C948 1.389 . S
C950 C951 1.524 . S
C950 C964 1.377 . S
C951 C950 1.524 . S
C951 C952 1.397 . S
C951 C956 1.363 . S
C952 H929 0.950 . S
C952 C951 1.397 . S
C952 C953 1.334 . S
C953 H930 0.950 . S
C953 C952 1.334 . S
C953 C954 1.287 . S
C954 C953 1.287 . S
C954 C955 1.524 . S
C954 H973 0.913 . S
C955 H931 0.950 . S
C955 C954 1.524 . S
C955 C956 1.415 . S
C956 H932 0.950 . S
C956 C951 1.363 . S
C956 C955 1.415 . S
C957 H933 0.951 . S
C957 C958 1.366 . S
C957 C959 1.388 . S
C958 C957 1.366 . S
C958 C962 1.385 . S
C959 H934 0.951 . S
C959 C957 1.388 . S
C959 C960 1.366 . S
C960 C959 1.366 . S
C960 C961 1.414 . S
C960 C963 1.499 . S
C961 H935 0.950 . S
C961 C960 1.414 . S
C961 C962 1.374 . S
C962 H936 0.950 . S
C962 C958 1.385 . S
C962 C961 1.374 . S
C963 C960 1.499 . S
C963 C964 1.373 . S
C963 C965 1.389 . S
C964 H937 0.950 . S
C964 C950 1.377 . S
C964 C963 1.373 . S
C965 C949 1.377 . S
C965 C963 1.389 . S
C965 C966 1.524 . S
C966 C965 1.524 . S
C966 C967 1.397 . S
C966 C971 1.363 . S
C967 H938 0.950 . S
C967 C966 1.397 . S
C967 C968 1.334 . S
C968 H939 0.950 . S
C968 C967 1.334 . S
C968 C969 1.287 . S
C969 C968 1.287 . S
C969 C970 1.524 . S
C969 H972 0.999 . S
C970 H940 0.950 . S
C970 C969 1.524 . S
C970 C971 1.415 . S
C971 H941 0.950 . S
C971 C966 1.363 . S
C971 C970 1.415 . S
H972 C969 0.999 . S
H973 C954 0.913 . S
H974 C992 0.951 . S
H975 C994 0.951 . S
H976 C996 0.950 . S
H977 C997 0.950 . S
H978 C999 0.950 . S
H979 C1002 0.950 . S
H980 C1003 0.950 . S
H981 C1005 0.950 . S
H982 C1006 0.950 . S
H983 C1007 0.951 . S
H984 C1009 0.951 . S
H985 C1011 0.950 . S
H986 C1012 0.950 . S
H987 C1014 0.950 . S
H988 C1017 0.950 . S
H989 C1018 0.950 . S
H990 C1020 0.950 . S
H991 C1021 0.950 . S
C992 H974 0.951 . S
C992 C993 1.366 . S
C992 C994 1.388 . S
C993 C992 1.366 . S
C993 C997 1.385 . S
C994 H975 0.951 . S
C994 C992 1.388 . S
C994 C995 1.366 . S
C995 C994 1.366 . S
C995 C996 1.414 . S
C995 C998 1.499 . S
C996 H976 0.950 . S
C996 C995 1.414 . S
C996 C997 1.374 . S
C997 H977 0.950 . S
C997 C993 1.385 . S
C997 C996 1.374 . S
C998 C995 1.499 . S
C998 C999 1.373 . S
C998 C1000 1.389 . S
C999 H978 0.950 . S
C999 C998 1.373 . S
C999 C1015 1.377 . S
C1000 C998 1.389 . S
C1000 C1001 1.524 . S
C1000 C1014 1.377 . S
C1001 C1000 1.524 . S
C1001 C1002 1.397 . S
C1001 C1006 1.363 . S
C1002 H979 0.950 . S
C1002 C1001 1.397 . S
C1002 C1003 1.334 . S
C1003 H980 0.950 . S
C1003 C1002 1.334 . S
C1003 C1004 1.287 . S
C1004 C1003 1.287 . S
C1004 C1005 1.524 . S
C1004 H1023 0.913 . S
C1005 H981 0.950 . S
C1005 C1004 1.524 . S
C1005 C1006 1.415 . S
C1006 H982 0.950 . S
C1006 C1001 1.363 . S
C1006 C1005 1.415 . S
C1007 H983 0.951 . S
C1007 C1008 1.366 . S
C1007 C1009 1.388 . S
C1008 C1007 1.366 . S
C1008 C1012 1.385 . S
C1009 H984 0.951 . S
C1009 C1007 1.388 . S
C1009 C1010 1.366 . S
C1010 C1009 1.366 . S
C1010 C1011 1.414 . S
C1010 C1013 1.499 . S
C1011 H985 0.950 . S
C1011 C1010 1.414 . S
C1011 C1012 1.374 . S
C1012 H986 0.950 . S
C1012 C1008 1.385 . S
C1012 C1011 1.374 . S
C1013 C1010 1.499 . S
C1013 C1014 1.373 . S
C1013 C1015 1.389 . S
C1014 H987 0.950 . S
C1014 C1000 1.377 . S
C1014 C1013 1.373 . S
C1015 C999 1.377 . S
C1015 C1013 1.389 . S
C1015 C1016 1.524 . S
C1016 C1015 1.524 . S
C1016 C1017 1.397 . S
C1016 C1021 1.363 . S
C1017 H988 0.950 . S
C1017 C1016 1.397 . S
C1017 C1018 1.334 . S
C1018 H989 0.950 . S
C1018 C1017 1.334 . S
C1018 C1019 1.287 . S
C1019 C1018 1.287 . S
C1019 C1020 1.524 . S
C1019 H1022 0.999 . S
C1020 H990 0.950 . S
C1020 C1019 1.524 . S
C1020 C1021 1.415 . S
C1021 H991 0.950 . S
C1021 C1016 1.363 . S
C1021 C1020 1.415 . S
H1022 C1019 0.999 . S
H1023 C1004 0.913 . S
H1024 C1042 0.951 . S
H1025 C1044 0.951 . S
H1026 C1046 0.950 . S
H1027 C1047 0.950 . S
H1028 C1049 0.950 . S
H1029 C1052 0.950 . S
H1030 C1053 0.950 . S
H1031 C1055 0.950 . S
H1032 C1056 0.950 . S
H1033 C1057 0.951 . S
H1034 C1059 0.951 1_545 S
H1035 C1061 0.950 . S
H1036 C1062 0.950 . S
H1037 C1064 0.950 . S
H1038 C1067 0.950 . S
H1039 C1068 0.950 . S
H1040 C1070 0.950 . S
H1041 C1071 0.950 . S
C1042 H1024 0.951 . S
C1042 C1043 1.366 . S
C1042 C1044 1.388 . S
C1043 C1042 1.366 . S
C1043 C1047 1.385 . S
C1044 H1025 0.951 . S
C1044 C1042 1.388 . S
C1044 C1045 1.366 . S
C1045 C1044 1.366 . S
C1045 C1046 1.414 . S
C1045 C1048 1.499 . S
C1046 H1026 0.950 . S
C1046 C1045 1.414 . S
C1046 C1047 1.374 . S
C1047 H1027 0.950 . S
C1047 C1043 1.385 . S
C1047 C1046 1.374 . S
C1048 C1045 1.499 . S
C1048 C1049 1.373 . S
C1048 C1050 1.389 . S
C1049 H1028 0.950 . S
C1049 C1048 1.373 . S
C1049 C1065 1.377 . S
C1050 C1048 1.389 . S
C1050 C1051 1.524 . S
C1050 C1064 1.377 . S
C1051 C1050 1.524 . S
C1051 C1052 1.397 . S
C1051 C1056 1.363 . S
C1052 H1029 0.950 . S
C1052 C1051 1.397 . S
C1052 C1053 1.334 . S
C1053 H1030 0.950 . S
C1053 C1052 1.334 . S
C1053 C1054 1.287 . S
C1054 C1053 1.287 . S
C1054 C1055 1.524 . S
C1054 H1073 0.913 . S
C1055 H1031 0.950 . S
C1055 C1054 1.524 . S
C1055 C1056 1.415 . S
C1056 H1032 0.950 . S
C1056 C1051 1.363 . S
C1056 C1055 1.415 . S
C1057 H1033 0.951 . S
C1057 C1058 1.366 . S
C1057 C1059 1.388 1_545 S
C1058 C1057 1.366 . S
C1058 C1062 1.385 1_545 S
C1059 H1034 0.951 1_565 S
C1059 C1057 1.388 1_565 S
C1059 C1060 1.366 . S
C1060 C1059 1.366 . S
C1060 C1061 1.414 . S
C1060 C1063 1.499 . S
C1061 H1035 0.950 . S
C1061 C1060 1.414 . S
C1061 C1062 1.374 . S
C1062 H1036 0.950 . S
C1062 C1058 1.385 1_565 S
C1062 C1061 1.374 . S
C1063 C1060 1.499 . S
C1063 C1064 1.373 . S
C1063 C1065 1.389 . S
C1064 H1037 0.950 . S
C1064 C1050 1.377 . S
C1064 C1063 1.373 . S
C1065 C1049 1.377 . S
C1065 C1063 1.389 . S
C1065 C1066 1.524 . S
C1066 C1065 1.524 . S
C1066 C1067 1.397 . S
C1066 C1071 1.363 . S
C1067 H1038 0.950 . S
C1067 C1066 1.397 . S
C1067 C1068 1.334 . S
C1068 H1039 0.950 . S
C1068 C1067 1.334 . S
C1068 C1069 1.287 . S
C1069 C1068 1.287 . S
C1069 C1070 1.524 . S
C1069 H1072 0.999 . S
C1070 H1040 0.950 . S
C1070 C1069 1.524 . S
C1070 C1071 1.415 . S
C1071 H1041 0.950 . S
C1071 C1066 1.363 . S
C1071 C1070 1.415 . S
H1072 C1069 0.999 . S
H1073 C1054 0.913 . S
H1074 C1092 0.951 . S
H1075 C1094 0.951 . S
H1076 C1096 0.950 . S
H1077 C1097 0.950 . S
H1078 C1099 0.950 . S
H1079 C1102 0.950 . S
H1080 C1103 0.950 . S
H1081 C1105 0.950 . S
H1082 C1106 0.950 . S
H1083 C1107 0.951 . S
H1084 C1109 0.951 . S
H1085 C1111 0.950 . S
H1086 C1112 0.950 . S
H1087 C1114 0.950 . S
H1088 C1117 0.950 . S
H1089 C1118 0.950 . S
H1090 C1120 0.950 . S
H1091 C1121 0.950 . S
C1092 H1074 0.951 . S
C1092 C1093 1.366 . S
C1092 C1094 1.388 . S
C1093 C1092 1.366 . S
C1093 C1097 1.385 . S
C1094 H1075 0.951 . S
C1094 C1092 1.388 . S
C1094 C1095 1.366 . S
C1095 C1094 1.366 . S
C1095 C1096 1.414 . S
C1095 C1098 1.499 . S
C1096 H1076 0.950 . S
C1096 C1095 1.414 . S
C1096 C1097 1.374 . S
C1097 H1077 0.950 . S
C1097 C1093 1.385 . S
C1097 C1096 1.374 . S
C1098 C1095 1.499 . S
C1098 C1099 1.373 . S
C1098 C1100 1.389 . S
C1099 H1078 0.950 . S
C1099 C1098 1.373 . S
C1099 C1115 1.377 . S
C1100 C1098 1.389 . S
C1100 C1101 1.524 . S
C1100 C1114 1.377 . S
C1101 C1100 1.524 . S
C1101 C1102 1.397 . S
C1101 C1106 1.363 . S
C1102 H1079 0.950 . S
C1102 C1101 1.397 . S
C1102 C1103 1.334 . S
C1103 H1080 0.950 . S
C1103 C1102 1.334 . S
C1103 C1104 1.287 . S
C1104 C1103 1.287 . S
C1104 C1105 1.524 . S
C1104 H1123 0.913 . S
C1105 H1081 0.950 . S
C1105 C1104 1.524 . S
C1105 C1106 1.415 . S
C1106 H1082 0.950 . S
C1106 C1101 1.363 . S
C1106 C1105 1.415 . S
C1107 H1083 0.951 . S
C1107 C1108 1.366 . S
C1107 C1109 1.388 . S
C1108 C1107 1.366 . S
C1108 C1112 1.385 . S
C1109 H1084 0.951 . S
C1109 C1107 1.388 . S
C1109 C1110 1.366 . S
C1110 C1109 1.366 . S
C1110 C1111 1.414 . S
C1110 C1113 1.499 . S
C1111 H1085 0.950 . S
C1111 C1110 1.414 . S
C1111 C1112 1.374 . S
C1112 H1086 0.950 . S
C1112 C1108 1.385 . S
C1112 C1111 1.374 . S
C1113 C1110 1.499 . S
C1113 C1114 1.373 . S
C1113 C1115 1.389 . S
C1114 H1087 0.950 . S
C1114 C1100 1.377 . S
C1114 C1113 1.373 . S
C1115 C1099 1.377 . S
C1115 C1113 1.389 . S
C1115 C1116 1.524 . S
C1116 C1115 1.524 . S
C1116 C1117 1.397 . S
C1116 C1121 1.363 . S
C1117 H1088 0.950 . S
C1117 C1116 1.397 . S
C1117 C1118 1.334 . S
C1118 H1089 0.950 . S
C1118 C1117 1.334 . S
C1118 C1119 1.287 . S
C1119 C1118 1.287 . S
C1119 C1120 1.524 . S
C1119 H1122 0.999 . S
C1120 H1090 0.950 . S
C1120 C1119 1.524 . S
C1120 C1121 1.415 . S
C1121 H1091 0.950 . S
C1121 C1116 1.363 . S
C1121 C1120 1.415 . S
H1122 C1119 0.999 . S
H1123 C1104 0.913 . S
H1124 C1142 0.951 . S
H1125 C1144 0.951 . S
H1126 C1146 0.950 . S
H1127 C1147 0.950 . S
H1128 C1149 0.950 . S
H1129 C1152 0.950 . S
H1130 C1153 0.950 . S
H1131 C1155 0.950 . S
H1132 C1156 0.950 . S
H1133 C1157 0.951 . S
H1134 C1159 0.951 . S
H1135 C1161 0.950 . S
H1136 C1162 0.950 . S
H1137 C1164 0.950 . S
H1138 C1167 0.950 . S
H1139 C1168 0.950 . S
H1140 C1170 0.950 . S
H1141 C1171 0.950 . S
C1142 H1124 0.951 . S
C1142 C1143 1.366 . S
C1142 C1144 1.388 . S
C1143 C1142 1.366 . S
C1143 C1147 1.385 . S
C1144 H1125 0.951 . S
C1144 C1142 1.388 . S
C1144 C1145 1.366 . S
C1145 C1144 1.366 . S
C1145 C1146 1.414 . S
C1145 C1148 1.499 . S
C1146 H1126 0.950 . S
C1146 C1145 1.414 . S
C1146 C1147 1.374 . S
C1147 H1127 0.950 . S
C1147 C1143 1.385 . S
C1147 C1146 1.374 . S
C1148 C1145 1.499 . S
C1148 C1149 1.373 . S
C1148 C1150 1.389 . S
C1149 H1128 0.950 . S
C1149 C1148 1.373 . S
C1149 C1165 1.377 . S
C1150 C1148 1.389 . S
C1150 C1151 1.524 . S
C1150 C1164 1.377 . S
C1151 C1150 1.524 . S
C1151 C1152 1.397 . S
C1151 C1156 1.363 . S
C1152 H1129 0.950 . S
C1152 C1151 1.397 . S
C1152 C1153 1.334 . S
C1153 H1130 0.950 . S
C1153 C1152 1.334 . S
C1153 C1154 1.287 . S
C1154 C1153 1.287 . S
C1154 C1155 1.524 . S
C1154 H1173 0.913 . S
C1155 H1131 0.950 . S
C1155 C1154 1.524 . S
C1155 C1156 1.415 . S
C1156 H1132 0.950 . S
C1156 C1151 1.363 . S
C1156 C1155 1.415 . S
C1157 H1133 0.951 . S
C1157 C1158 1.366 . S
C1157 C1159 1.388 . S
C1158 C1157 1.366 . S
C1158 C1162 1.385 . S
C1159 H1134 0.951 . S
C1159 C1157 1.388 . S
C1159 C1160 1.366 . S
C1160 C1159 1.366 . S
C1160 C1161 1.414 . S
C1160 C1163 1.499 . S
C1161 H1135 0.950 . S
C1161 C1160 1.414 . S
C1161 C1162 1.374 . S
C1162 H1136 0.950 . S
C1162 C1158 1.385 . S
C1162 C1161 1.374 . S
C1163 C1160 1.499 . S
C1163 C1164 1.373 . S
C1163 C1165 1.389 . S
C1164 H1137 0.950 . S
C1164 C1150 1.377 . S
C1164 C1163 1.373 . S
C1165 C1149 1.377 . S
C1165 C1163 1.389 . S
C1165 C1166 1.524 . S
C1166 C1165 1.524 . S
C1166 C1167 1.397 . S
C1166 C1171 1.363 . S
C1167 H1138 0.950 . S
C1167 C1166 1.397 . S
C1167 C1168 1.334 . S
C1168 H1139 0.950 . S
C1168 C1167 1.334 . S
C1168 C1169 1.287 . S
C1169 C1168 1.287 . S
C1169 C1170 1.524 . S
C1169 H1172 0.999 . S
C1170 H1140 0.950 . S
C1170 C1169 1.524 . S
C1170 C1171 1.415 . S
C1171 H1141 0.950 . S
C1171 C1166 1.363 . S
C1171 C1170 1.415 . S
H1172 C1169 0.999 . S
H1173 C1154 0.913 . S
H1174 C1192 0.951 . S
H1175 C1194 0.951 . S
H1176 C1196 0.950 . S
H1177 C1197 0.950 . S
H1178 C1199 0.950 . S
H1179 C1202 0.950 . S
H1180 C1203 0.950 . S
H1181 C1205 0.950 . S
H1182 C1206 0.950 . S
H1183 C1207 0.951 . S
H1184 C1209 0.951 . S
H1185 C1211 0.950 . S
H1186 C1212 0.950 . S
H1187 C1214 0.950 . S
H1188 C1217 0.950 . S
H1189 C1218 0.950 1_545 S
H1190 C1220 0.950 . S
H1191 C1221 0.950 . S
C1192 H1174 0.951 . S
C1192 C1193 1.366 . S
C1192 C1194 1.388 . S
C1193 C1192 1.366 . S
C1193 C1197 1.385 . S
C1194 H1175 0.951 . S
C1194 C1192 1.388 . S
C1194 C1195 1.366 . S
C1195 C1194 1.366 . S
C1195 C1196 1.414 . S
C1195 C1198 1.499 . S
C1196 H1176 0.950 . S
C1196 C1195 1.414 . S
C1196 C1197 1.374 . S
C1197 H1177 0.950 . S
C1197 C1193 1.385 . S
C1197 C1196 1.374 . S
C1198 C1195 1.499 . S
C1198 C1199 1.373 . S
C1198 C1200 1.389 . S
C1199 H1178 0.950 . S
C1199 C1198 1.373 . S
C1199 C1215 1.377 . S
C1200 C1198 1.389 . S
C1200 C1201 1.524 . S
C1200 C1214 1.377 . S
C1201 C1200 1.524 . S
C1201 C1202 1.397 . S
C1201 C1206 1.363 . S
C1202 H1179 0.950 . S
C1202 C1201 1.397 . S
C1202 C1203 1.334 . S
C1203 H1180 0.950 . S
C1203 C1202 1.334 . S
C1203 C1204 1.287 . S
C1204 C1203 1.287 . S
C1204 C1205 1.524 . S
C1204 H1223 0.913 . S
C1205 H1181 0.950 . S
C1205 C1204 1.524 . S
C1205 C1206 1.415 . S
C1206 H1182 0.950 . S
C1206 C1201 1.363 . S
C1206 C1205 1.415 . S
C1207 H1183 0.951 . S
C1207 C1208 1.366 1_565 S
C1207 C1209 1.388 . S
C1208 C1207 1.366 1_545 S
C1208 C1212 1.385 . S
C1209 H1184 0.951 . S
C1209 C1207 1.388 . S
C1209 C1210 1.366 . S
C1210 C1209 1.366 . S
C1210 C1211 1.414 . S
C1210 C1213 1.499 . S
C1211 H1185 0.950 . S
C1211 C1210 1.414 . S
C1211 C1212 1.374 1_565 S
C1212 H1186 0.950 . S
C1212 C1208 1.385 . S
C1212 C1211 1.374 1_545 S
C1213 C1210 1.499 . S
C1213 C1214 1.373 . S
C1213 C1215 1.389 . S
C1214 H1187 0.950 . S
C1214 C1200 1.377 . S
C1214 C1213 1.373 . S
C1215 C1199 1.377 . S
C1215 C1213 1.389 . S
C1215 C1216 1.524 . S
C1216 C1215 1.524 . S
C1216 C1217 1.397 . S
C1216 C1221 1.363 . S
C1217 H1188 0.950 . S
C1217 C1216 1.397 . S
C1217 C1218 1.334 . S
C1218 H1189 0.950 1_565 S
C1218 C1217 1.334 . S
C1218 C1219 1.287 . S
C1219 C1218 1.287 . S
C1219 C1220 1.524 . S
C1219 H1222 0.999 . S
C1220 H1190 0.950 . S
C1220 C1219 1.524 . S
C1220 C1221 1.415 . S
C1221 H1191 0.950 . S
C1221 C1216 1.363 . S
C1221 C1220 1.415 . S
H1222 C1219 0.999 . S
H1223 C1204 0.913 . S
H1224 C1242 0.951 . S
H1225 C1244 0.951 . S
H1226 C1246 0.950 . S
H1227 C1247 0.950 . S
H1228 C1249 0.950 . S
H1229 C1252 0.950 . S
H1230 C1253 0.950 . S
H1231 C1255 0.950 . S
H1232 C1256 0.950 . S
H1233 C1257 0.951 . S
H1234 C1259 0.951 . S
H1235 C1261 0.950 . S
H1236 C1262 0.950 . S
H1237 C1264 0.950 . S
H1238 C1267 0.949 1_545 S
H1239 C1268 0.950 . S
H1240 C1270 0.950 . S
H1241 C1271 0.950 . S
C1242 H1224 0.951 . S
C1242 C1243 1.366 . S
C1242 C1244 1.388 . S
C1243 C1242 1.366 . S
C1243 C1247 1.385 . S
C1244 H1225 0.951 . S
C1244 C1242 1.388 . S
C1244 C1245 1.366 . S
C1245 C1244 1.366 . S
C1245 C1246 1.414 . S
C1245 C1248 1.499 . S
C1246 H1226 0.950 . S
C1246 C1245 1.414 . S
C1246 C1247 1.374 . S
C1247 H1227 0.950 . S
C1247 C1243 1.385 . S
C1247 C1246 1.374 . S
C1248 C1245 1.499 . S
C1248 C1249 1.373 . S
C1248 C1250 1.389 . S
C1249 H1228 0.950 . S
C1249 C1248 1.373 . S
C1249 C1265 1.377 . S
C1250 C1248 1.389 . S
C1250 C1251 1.524 . S
C1250 C1264 1.377 . S
C1251 C1250 1.524 . S
C1251 C1252 1.397 . S
C1251 C1256 1.363 . S
C1252 H1229 0.950 . S
C1252 C1251 1.397 . S
C1252 C1253 1.334 . S
C1253 H1230 0.950 . S
C1253 C1252 1.334 . S
C1253 C1254 1.287 . S
C1254 C1253 1.287 . S
C1254 C1255 1.524 . S
C1254 H1273 0.913 . S
C1255 H1231 0.950 . S
C1255 C1254 1.524 . S
C1255 C1256 1.415 . S
C1256 H1232 0.950 . S
C1256 C1251 1.363 . S
C1256 C1255 1.415 . S
C1257 H1233 0.951 . S
C1257 C1258 1.366 . S
C1257 C1259 1.388 1_565 S
C1258 C1257 1.366 . S
C1258 C1262 1.385 . S
C1259 H1234 0.951 . S
C1259 C1257 1.388 1_545 S
C1259 C1260 1.366 . S
C1260 C1259 1.366 . S
C1260 C1261 1.414 . S
C1260 C1263 1.499 . S
C1261 H1235 0.950 . S
C1261 C1260 1.414 . S
C1261 C1262 1.374 1_545 S
C1262 H1236 0.950 . S
C1262 C1258 1.385 . S
C1262 C1261 1.374 1_565 S
C1263 C1260 1.499 . S
C1263 C1264 1.373 . S
C1263 C1265 1.389 . S
C1264 H1237 0.950 . S
C1264 C1250 1.377 . S
C1264 C1263 1.373 . S
C1265 C1249 1.377 . S
C1265 C1263 1.389 . S
C1265 C1266 1.524 . S
C1266 C1265 1.524 . S
C1266 C1267 1.379 1_545 S
C1266 C1271 1.363 . S
C1267 H1238 0.949 1_565 S
C1267 C1266 1.379 1_565 S
C1267 C1268 1.353 . S
C1268 H1239 0.950 . S
C1268 C1267 1.353 . S
C1268 C1269 1.287 . S
C1269 C1268 1.287 . S
C1269 C1270 1.527 . S
C1269 H1272 0.999 . S
C1270 H1240 0.950 . S
C1270 C1269 1.527 . S
C1270 C1271 1.411 1_565 S
C1271 H1241 0.950 . S
C1271 C1266 1.363 . S
C1271 C1270 1.411 1_545 S
H1272 C1269 0.999 . S
H1273 C1254 0.913 . S
H1274 C1292 0.951 . S
H1275 C1294 0.951 . S
H1276 C1296 0.950 . S
H1277 C1297 0.950 . S
H1278 C1299 0.950 . S
H1279 C1302 0.950 . S
H1280 C1303 0.950 . S
H1281 C1305 0.950 . S
H1282 C1306 0.950 . S
H1283 C1307 0.951 . S
H1284 C1309 0.951 . S
H1285 C1311 0.950 . S
H1286 C1312 0.950 . S
H1287 C1314 0.950 . S
H1288 C1317 0.950 . S
H1289 C1318 0.950 . S
H1290 C1320 0.950 . S
H1291 C1321 0.950 . S
C1292 H1274 0.951 . S
C1292 C1293 1.366 . S
C1292 C1294 1.388 . S
C1293 C1292 1.366 . S
C1293 C1297 1.385 . S
C1294 H1275 0.951 . S
C1294 C1292 1.388 . S
C1294 C1295 1.366 . S
C1295 C1294 1.366 . S
C1295 C1296 1.414 . S
C1295 C1298 1.499 . S
C1296 H1276 0.950 . S
C1296 C1295 1.414 . S
C1296 C1297 1.374 . S
C1297 H1277 0.950 . S
C1297 C1293 1.385 . S
C1297 C1296 1.374 . S
C1298 C1295 1.499 . S
C1298 C1299 1.373 . S
C1298 C1300 1.389 . S
C1299 H1278 0.950 . S
C1299 C1298 1.373 . S
C1299 C1315 1.377 . S
C1300 C1298 1.389 . S
C1300 C1301 1.524 . S
C1300 C1314 1.377 . S
C1301 C1300 1.524 . S
C1301 C1302 1.397 . S
C1301 C1306 1.363 . S
C1302 H1279 0.950 . S
C1302 C1301 1.397 . S
C1302 C1303 1.334 . S
C1303 H1280 0.950 . S
C1303 C1302 1.334 . S
C1303 C1304 1.287 . S
C1304 C1303 1.287 . S
C1304 C1305 1.524 . S
C1304 H1323 0.913 . S
C1305 H1281 0.950 . S
C1305 C1304 1.524 . S
C1305 C1306 1.415 . S
C1306 H1282 0.950 . S
C1306 C1301 1.363 . S
C1306 C1305 1.415 . S
C1307 H1283 0.951 . S
C1307 C1308 1.366 . S
C1307 C1309 1.388 . S
C1308 C1307 1.366 . S
C1308 C1312 1.385 . S
C1309 H1284 0.951 . S
C1309 C1307 1.388 . S
C1309 C1310 1.366 . S
C1310 C1309 1.366 . S
C1310 C1311 1.414 . S
C1310 C1313 1.499 . S
C1311 H1285 0.950 . S
C1311 C1310 1.414 . S
C1311 C1312 1.374 . S
C1312 H1286 0.950 . S
C1312 C1308 1.385 . S
C1312 C1311 1.374 . S
C1313 C1310 1.499 . S
C1313 C1314 1.373 . S
C1313 C1315 1.389 . S
C1314 H1287 0.950 . S
C1314 C1300 1.377 . S
C1314 C1313 1.373 . S
C1315 C1299 1.377 . S
C1315 C1313 1.389 . S
C1315 C1316 1.524 . S
C1316 C1315 1.524 . S
C1316 C1317 1.397 . S
C1316 C1321 1.363 . S
C1317 H1288 0.950 . S
C1317 C1316 1.397 . S
C1317 C1318 1.334 . S
C1318 H1289 0.950 . S
C1318 C1317 1.334 . S
C1318 C1319 1.287 . S
C1319 C1318 1.287 . S
C1319 C1320 1.524 . S
C1319 H1322 0.999 . S
C1320 H1290 0.950 . S
C1320 C1319 1.524 . S
C1320 C1321 1.415 . S
C1321 H1291 0.950 . S
C1321 C1316 1.363 . S
C1321 C1320 1.415 . S
H1322 C1319 0.999 . S
H1323 C1304 0.913 . S
H1324 C1342 0.951 . S
H1325 C1344 0.951 . S
H1326 C1346 0.950 . S
H1327 C1347 0.950 . S
H1328 C1349 0.950 . S
H1329 C1352 0.950 . S
H1330 C1353 0.950 . S
H1331 C1355 0.950 . S
H1332 C1356 0.950 . S
H1333 C1357 0.951 . S
H1334 C1359 0.951 . S
H1335 C1361 0.950 . S
H1336 C1362 0.950 . S
H1337 C1364 0.950 . S
H1338 C1367 0.950 . S
H1339 C1368 0.950 . S
H1340 C1370 0.950 . S
H1341 C1371 0.950 . S
C1342 H1324 0.951 . S
C1342 C1343 1.366 . S
C1342 C1344 1.388 . S
C1343 C1342 1.366 . S
C1343 C1347 1.385 . S
C1344 H1325 0.951 . S
C1344 C1342 1.388 . S
C1344 C1345 1.366 . S
C1345 C1344 1.366 . S
C1345 C1346 1.414 . S
C1345 C1348 1.499 . S
C1346 H1326 0.950 . S
C1346 C1345 1.414 . S
C1346 C1347 1.374 . S
C1347 H1327 0.950 . S
C1347 C1343 1.385 . S
C1347 C1346 1.374 . S
C1348 C1345 1.499 . S
C1348 C1349 1.373 . S
C1348 C1350 1.389 . S
C1349 H1328 0.950 . S
C1349 C1348 1.373 . S
C1349 C1365 1.377 . S
C1350 C1348 1.389 . S
C1350 C1351 1.524 . S
C1350 C1364 1.377 . S
C1351 C1350 1.524 . S
C1351 C1352 1.397 . S
C1351 C1356 1.363 . S
C1352 H1329 0.950 . S
C1352 C1351 1.397 . S
C1352 C1353 1.334 . S
C1353 H1330 0.950 . S
C1353 C1352 1.334 . S
C1353 C1354 1.287 . S
C1354 C1353 1.287 . S
C1354 C1355 1.524 . S
C1354 H1373 0.913 . S
C1355 H1331 0.950 . S
C1355 C1354 1.524 . S
C1355 C1356 1.415 . S
C1356 H1332 0.950 . S
C1356 C1351 1.363 . S
C1356 C1355 1.415 . S
C1357 H1333 0.951 . S
C1357 C1358 1.366 . S
C1357 C1359 1.388 . S
C1358 C1357 1.366 . S
C1358 C1362 1.385 . S
C1359 H1334 0.951 . S
C1359 C1357 1.388 . S
C1359 C1360 1.366 . S
C1360 C1359 1.366 . S
C1360 C1361 1.414 . S
C1360 C1363 1.499 . S
C1361 H1335 0.950 . S
C1361 C1360 1.414 . S
C1361 C1362 1.374 . S
C1362 H1336 0.950 . S
C1362 C1358 1.385 . S
C1362 C1361 1.374 . S
C1363 C1360 1.499 . S
C1363 C1364 1.373 . S
C1363 C1365 1.389 . S
C1364 H1337 0.950 . S
C1364 C1350 1.377 . S
C1364 C1363 1.373 . S
C1365 C1349 1.377 . S
C1365 C1363 1.389 . S
C1365 C1366 1.524 . S
C1366 C1365 1.524 . S
C1366 C1367 1.397 . S
C1366 C1371 1.363 . S
C1367 H1338 0.950 . S
C1367 C1366 1.397 . S
C1367 C1368 1.334 . S
C1368 H1339 0.950 . S
C1368 C1367 1.334 . S
C1368 C1369 1.287 . S
C1369 C1368 1.287 . S
C1369 C1370 1.524 . S
C1369 H1372 0.999 . S
C1370 H1340 0.950 . S
C1370 C1369 1.524 . S
C1370 C1371 1.415 . S
C1371 H1341 0.950 . S
C1371 C1366 1.363 . S
C1371 C1370 1.415 . S
H1372 C1369 0.999 . S
H1373 C1354 0.913 . S
H1374 C1392 0.951 . S
H1375 C1394 0.951 . S
H1376 C1396 0.950 . S
H1377 C1397 0.950 . S
H1378 C1399 0.950 . S
H1379 C1402 0.950 . S
H1380 C1403 0.950 . S
H1381 C1405 0.950 . S
H1382 C1406 0.950 . S
H1383 C1407 0.951 . S
H1384 C1409 0.951 . S
H1385 C1411 0.950 . S
H1386 C1412 0.950 . S
H1387 C1414 0.950 . S
H1388 C1417 0.950 . S
H1389 C1418 0.950 . S
H1390 C1420 0.950 . S
H1391 C1421 0.950 . S
C1392 H1374 0.951 . S
C1392 C1393 1.366 1_545 S
C1392 C1394 1.388 . S
C1393 C1392 1.366 1_565 S
C1393 C1397 1.385 . S
C1394 H1375 0.951 . S
C1394 C1392 1.388 . S
C1394 C1395 1.366 . S
C1395 C1394 1.366 . S
C1395 C1396 1.414 . S
C1395 C1398 1.499 . S
C1396 H1376 0.950 . S
C1396 C1395 1.414 . S
C1396 C1397 1.374 1_545 S
C1397 H1377 0.950 . S
C1397 C1393 1.385 . S
C1397 C1396 1.374 1_565 S
C1398 C1395 1.499 . S
C1398 C1399 1.373 . S
C1398 C1400 1.389 . S
C1399 H1378 0.950 . S
C1399 C1398 1.373 . S
C1399 C1415 1.377 . S
C1400 C1398 1.389 . S
C1400 C1401 1.524 . S
C1400 C1414 1.377 . S
C1401 C1400 1.524 . S
C1401 C1402 1.397 . S
C1401 C1406 1.363 . S
C1402 H1379 0.950 . S
C1402 C1401 1.397 . S
C1402 C1403 1.334 1_545 S
C1403 H1380 0.950 . S
C1403 C1402 1.334 1_565 S
C1403 C1404 1.287 1_565 S
C1404 C1403 1.287 1_545 S
C1404 C1405 1.524 . S
C1404 H1423 0.922 . S
C1405 H1381 0.950 . S
C1405 C1404 1.524 . S
C1405 C1406 1.415 . S
C1406 H1382 0.950 . S
C1406 C1401 1.363 . S
C1406 C1405 1.415 . S
C1407 H1383 0.951 . S
C1407 C1408 1.366 . S
C1407 C1409 1.388 . S
C1408 C1407 1.366 . S
C1408 C1412 1.385 . S
C1409 H1384 0.951 . S
C1409 C1407 1.388 . S
C1409 C1410 1.366 . S
C1410 C1409 1.366 . S
C1410 C1411 1.414 . S
C1410 C1413 1.499 . S
C1411 H1385 0.950 . S
C1411 C1410 1.414 . S
C1411 C1412 1.374 . S
C1412 H1386 0.950 . S
C1412 C1408 1.385 . S
C1412 C1411 1.374 . S
C1413 C1410 1.499 . S
C1413 C1414 1.373 . S
C1413 C1415 1.389 . S
C1414 H1387 0.950 . S
C1414 C1400 1.377 . S
C1414 C1413 1.373 . S
C1415 C1399 1.377 . S
C1415 C1413 1.389 . S
C1415 C1416 1.524 . S
C1416 C1415 1.524 . S
C1416 C1417 1.397 . S
C1416 C1421 1.363 . S
C1417 H1388 0.950 . S
C1417 C1416 1.397 . S
C1417 C1418 1.334 . S
C1418 H1389 0.950 . S
C1418 C1417 1.334 . S
C1418 C1419 1.287 . S
C1419 C1418 1.287 . S
C1419 C1420 1.524 . S
C1419 H1422 0.999 . S
C1420 H1390 0.950 . S
C1420 C1419 1.524 . S
C1420 C1421 1.415 . S
C1421 H1391 0.950 . S
C1421 C1416 1.363 . S
C1421 C1420 1.415 . S
H1422 C1419 0.999 . S
H1423 C1404 0.922 . S
H1424 C1442 0.951 . S
H1425 C1444 0.951 . S
H1426 C1446 0.950 . S
H1427 C1447 0.950 . S
H1428 C1449 0.950 . S
H1429 C1452 0.950 . S
H1430 C1453 0.950 . S
H1431 C1455 0.950 . S
H1432 C1456 0.950 . S
H1433 C1457 0.951 . S
H1434 C1459 0.951 . S
H1435 C1461 0.950 . S
H1436 C1462 0.950 . S
H1437 C1464 0.950 . S
H1438 C1467 0.950 . S
H1439 C1468 0.950 . S
H1440 C1470 0.950 . S
H1441 C1471 0.950 . S
C1442 H1424 0.951 . S
C1442 C1443 1.366 . S
C1442 C1444 1.388 . S
C1443 C1442 1.366 . S
C1443 C1447 1.385 . S
C1444 H1425 0.951 . S
C1444 C1442 1.388 . S
C1444 C1445 1.366 . S
C1445 C1444 1.366 . S
C1445 C1446 1.414 . S
C1445 C1448 1.499 . S
C1446 H1426 0.950 . S
C1446 C1445 1.414 . S
C1446 C1447 1.374 . S
C1447 H1427 0.950 . S
C1447 C1443 1.385 . S
C1447 C1446 1.374 . S
C1448 C1445 1.499 . S
C1448 C1449 1.373 . S
C1448 C1450 1.389 . S
C1449 H1428 0.950 . S
C1449 C1448 1.373 . S
C1449 C1465 1.377 . S
C1450 C1448 1.389 . S
C1450 C1451 1.524 . S
C1450 C1464 1.377 . S
C1451 C1450 1.524 . S
C1451 C1452 1.397 . S
C1451 C1456 1.363 . S
C1452 H1429 0.950 . S
C1452 C1451 1.397 . S
C1452 C1453 1.334 . S
C1453 H1430 0.950 . S
C1453 C1452 1.334 . S
C1453 C1454 1.287 . S
C1454 C1453 1.287 . S
C1454 C1455 1.524 . S
C1454 H1473 0.913 . S
C1455 H1431 0.950 . S
C1455 C1454 1.524 . S
C1455 C1456 1.415 . S
C1456 H1432 0.950 . S
C1456 C1451 1.363 . S
C1456 C1455 1.415 . S
C1457 H1433 0.951 . S
C1457 C1458 1.366 . S
C1457 C1459 1.388 1_545 S
C1458 C1457 1.366 . S
C1458 C1462 1.385 . S
C1459 H1434 0.951 . S
C1459 C1457 1.388 1_565 S
C1459 C1460 1.366 . S
C1460 C1459 1.366 . S
C1460 C1461 1.414 . S
C1460 C1463 1.499 . S
C1461 H1435 0.950 . S
C1461 C1460 1.414 . S
C1461 C1462 1.374 1_565 S
C1462 H1436 0.950 . S
C1462 C1458 1.385 . S
C1462 C1461 1.374 1_545 S
C1463 C1460 1.499 . S
C1463 C1464 1.373 . S
C1463 C1465 1.389 . S
C1464 H1437 0.950 . S
C1464 C1450 1.377 . S
C1464 C1463 1.373 . S
C1465 C1449 1.377 . S
C1465 C1463 1.389 . S
C1465 C1466 1.524 . S
C1466 C1465 1.524 . S
C1466 C1467 1.397 . S
C1466 C1471 1.363 . S
C1467 H1438 0.950 . S
C1467 C1466 1.397 . S
C1467 C1468 1.334 . S
C1468 H1439 0.950 . S
C1468 C1467 1.334 . S
C1468 C1469 1.287 . S
C1469 C1468 1.287 . S
C1469 C1470 1.524 . S
C1469 H1472 0.999 . S
C1470 H1440 0.950 . S
C1470 C1469 1.524 . S
C1470 C1471 1.415 . S
C1471 H1441 0.950 . S
C1471 C1466 1.363 . S
C1471 C1470 1.415 . S
H1472 C1469 0.999 . S
H1473 C1454 0.913 . S
H1474 C1492 0.951 . S
H1475 C1494 0.951 . S
H1476 C1496 0.950 . S
H1477 C1497 0.950 . S
H1478 C1499 0.950 . S
H1479 C1502 0.950 . S
H1480 C1503 0.950 . S
H1481 C1505 0.950 . S
H1482 C1506 0.950 . S
H1483 C1507 0.951 . S
H1484 C1509 0.951 . S
H1485 C1511 0.950 . S
H1486 C1512 0.950 . S
H1487 C1514 0.950 . S
H1488 C1517 0.950 . S
H1489 C1518 0.950 . S
H1490 C1520 0.950 . S
H1491 C1521 0.950 . S
C1492 H1474 0.951 . S
C1492 C1493 1.366 . S
C1492 C1494 1.388 . S
C1493 C1492 1.366 . S
C1493 C1497 1.385 . S
C1494 H1475 0.951 . S
C1494 C1492 1.388 . S
C1494 C1495 1.366 . S
C1495 C1494 1.366 . S
C1495 C1496 1.414 . S
C1495 C1498 1.499 . S
C1496 H1476 0.950 . S
C1496 C1495 1.414 . S
C1496 C1497 1.374 . S
C1497 H1477 0.950 . S
C1497 C1493 1.385 . S
C1497 C1496 1.374 . S
C1498 C1495 1.499 . S
C1498 C1499 1.373 . S
C1498 C1500 1.389 . S
C1499 H1478 0.950 . S
C1499 C1498 1.373 . S
C1499 C1515 1.377 . S
C1500 C1498 1.389 . S
C1500 C1501 1.524 . S
C1500 C1514 1.377 . S
C1501 C1500 1.524 . S
C1501 C1502 1.397 . S
C1501 C1506 1.363 . S
C1502 H1479 0.950 . S
C1502 C1501 1.397 . S
C1502 C1503 1.334 . S
C1503 H1480 0.950 . S
C1503 C1502 1.334 . S
C1503 C1504 1.287 . S
C1504 C1503 1.287 . S
C1504 C1505 1.524 . S
C1504 H1523 0.913 . S
C1505 H1481 0.950 . S
C1505 C1504 1.524 . S
C1505 C1506 1.415 . S
C1506 H1482 0.950 . S
C1506 C1501 1.363 . S
C1506 C1505 1.415 . S
C1507 H1483 0.951 . S
C1507 C1508 1.366 . S
C1507 C1509 1.388 . S
C1508 C1507 1.366 . S
C1508 C1512 1.385 . S
C1509 H1484 0.951 . S
C1509 C1507 1.388 . S
C1509 C1510 1.366 . S
C1510 C1509 1.366 . S
C1510 C1511 1.414 . S
C1510 C1513 1.499 . S
C1511 H1485 0.950 . S
C1511 C1510 1.414 . S
C1511 C1512 1.374 . S
C1512 H1486 0.950 . S
C1512 C1508 1.385 . S
C1512 C1511 1.374 . S
C1513 C1510 1.499 . S
C1513 C1514 1.373 . S
C1513 C1515 1.389 . S
C1514 H1487 0.950 . S
C1514 C1500 1.377 . S
C1514 C1513 1.373 . S
C1515 C1499 1.377 . S
C1515 C1513 1.389 . S
C1515 C1516 1.524 . S
C1516 C1515 1.524 . S
C1516 C1517 1.397 . S
C1516 C1521 1.363 . S
C1517 H1488 0.950 . S
C1517 C1516 1.397 . S
C1517 C1518 1.334 . S
C1518 H1489 0.950 . S
C1518 C1517 1.334 . S
C1518 C1519 1.287 . S
C1519 C1518 1.287 . S
C1519 C1520 1.524 . S
C1519 H1522 0.999 . S
C1520 H1490 0.950 . S
C1520 C1519 1.524 . S
C1520 C1521 1.415 . S
C1521 H1491 0.950 . S
C1521 C1516 1.363 . S
C1521 C1520 1.415 . S
H1522 C1519 0.999 . S
H1523 C1504 0.913 . S
H1524 C1542 0.951 . S
H1525 C1544 0.951 . S
H1526 C1546 0.950 . S
H1527 C1547 0.950 . S
H1528 C1549 0.950 . S
H1529 C1552 0.950 . S
H1530 C1553 0.950 . S
H1531 C1555 0.950 . S
H1532 C1556 0.950 . S
H1533 C1557 0.951 . S
H1534 C1559 0.951 . S
H1535 C1561 0.950 . S
H1536 C1562 0.950 . S
H1537 C1564 0.950 . S
H1538 C1567 0.950 . S
H1539 C1568 0.950 . S
H1540 C1570 0.950 . S
H1541 C1571 0.950 . S
C1542 H1524 0.951 . S
C1542 C1543 1.366 . S
C1542 C1544 1.388 . S
C1543 C1542 1.366 . S
C1543 C1547 1.385 . S
C1544 H1525 0.951 . S
C1544 C1542 1.388 . S
C1544 C1545 1.366 . S
C1545 C1544 1.366 . S
C1545 C1546 1.414 . S
C1545 C1548 1.499 . S
C1546 H1526 0.950 . S
C1546 C1545 1.414 . S
C1546 C1547 1.374 . S
C1547 H1527 0.950 . S
C1547 C1543 1.385 . S
C1547 C1546 1.374 . S
C1548 C1545 1.499 . S
C1548 C1549 1.373 . S
C1548 C1550 1.389 . S
C1549 H1528 0.950 . S
C1549 C1548 1.373 . S
C1549 C1565 1.377 . S
C1550 C1548 1.389 . S
C1550 C1551 1.524 . S
C1550 C1564 1.377 . S
C1551 C1550 1.524 . S
C1551 C1552 1.397 . S
C1551 C1556 1.363 . S
C1552 H1529 0.950 . S
C1552 C1551 1.397 . S
C1552 C1553 1.334 . S
C1553 H1530 0.950 . S
C1553 C1552 1.334 . S
C1553 C1554 1.287 . S
C1554 C1553 1.287 . S
C1554 C1555 1.524 . S
C1554 H1573 0.913 . S
C1555 H1531 0.950 . S
C1555 C1554 1.524 . S
C1555 C1556 1.415 . S
C1556 H1532 0.950 . S
C1556 C1551 1.363 . S
C1556 C1555 1.415 . S
C1557 H1533 0.951 . S
C1557 C1558 1.366 . S
C1557 C1559 1.388 . S
C1558 C1557 1.366 . S
C1558 C1562 1.385 . S
C1559 H1534 0.951 . S
C1559 C1557 1.388 . S
C1559 C1560 1.366 . S
C1560 C1559 1.366 . S
C1560 C1561 1.414 . S
C1560 C1563 1.499 . S
C1561 H1535 0.950 . S
C1561 C1560 1.414 . S
C1561 C1562 1.374 . S
C1562 H1536 0.950 . S
C1562 C1558 1.385 . S
C1562 C1561 1.374 . S
C1563 C1560 1.499 . S
C1563 C1564 1.373 . S
C1563 C1565 1.389 . S
C1564 H1537 0.950 . S
C1564 C1550 1.377 . S
C1564 C1563 1.373 . S
C1565 C1549 1.377 . S
C1565 C1563 1.389 . S
C1565 C1566 1.524 . S
C1566 C1565 1.524 . S
C1566 C1567 1.397 . S
C1566 C1571 1.363 . S
C1567 H1538 0.950 . S
C1567 C1566 1.397 . S
C1567 C1568 1.334 . S
C1568 H1539 0.950 . S
C1568 C1567 1.334 . S
C1568 C1569 1.287 . S
C1569 C1568 1.287 . S
C1569 C1570 1.524 . S
C1569 H1572 0.999 . S
C1570 H1540 0.950 . S
C1570 C1569 1.524 . S
C1570 C1571 1.415 . S
C1571 H1541 0.950 . S
C1571 C1566 1.363 . S
C1571 C1570 1.415 . S
H1572 C1569 0.999 . S
H1573 C1554 0.913 . S
H1574 C1592 0.951 . S
H1575 C1594 0.951 . S
H1576 C1596 0.950 . S
H1577 C1597 0.950 . S
H1578 C1599 0.950 . S
H1579 C1602 0.950 . S
H1580 C1603 0.950 . S
H1581 C1605 0.950 . S
H1582 C1606 0.950 . S
H1583 C1607 0.951 . S
H1584 C1609 0.951 . S
H1585 C1611 0.950 1_545 S
H1586 C1612 0.950 . S
H1587 C1614 0.950 . S
H1588 C1617 0.950 . S
H1589 C1618 0.950 . S
H1590 C1620 0.950 . S
H1591 C1621 0.950 . S
C1592 H1574 0.951 . S
C1592 C1593 1.366 . S
C1592 C1594 1.388 . S
C1593 C1592 1.366 . S
C1593 C1597 1.385 . S
C1594 H1575 0.951 . S
C1594 C1592 1.388 . S
C1594 C1595 1.366 . S
C1595 C1594 1.366 . S
C1595 C1596 1.414 . S
C1595 C1598 1.499 . S
C1596 H1576 0.950 . S
C1596 C1595 1.414 . S
C1596 C1597 1.374 . S
C1597 H1577 0.950 . S
C1597 C1593 1.385 . S
C1597 C1596 1.374 . S
C1598 C1595 1.499 . S
C1598 C1599 1.373 . S
C1598 C1600 1.389 . S
C1599 H1578 0.950 . S
C1599 C1598 1.373 . S
C1599 C1615 1.377 . S
C1600 C1598 1.389 . S
C1600 C1601 1.524 . S
C1600 C1614 1.377 . S
C1601 C1600 1.524 . S
C1601 C1602 1.397 . S
C1601 C1606 1.363 . S
C1602 H1579 0.950 . S
C1602 C1601 1.397 . S
C1602 C1603 1.334 . S
C1603 H1580 0.950 . S
C1603 C1602 1.334 . S
C1603 C1604 1.287 . S
C1604 C1603 1.287 . S
C1604 C1605 1.524 . S
C1604 H1623 0.913 . S
C1605 H1581 0.950 . S
C1605 C1604 1.524 . S
C1605 C1606 1.415 . S
C1606 H1582 0.950 . S
C1606 C1601 1.363 . S
C1606 C1605 1.415 . S
C1607 H1583 0.951 . S
C1607 C1608 1.366 1_565 S
C1607 C1609 1.388 . S
C1608 C1607 1.366 1_545 S
C1608 C1612 1.385 . S
C1609 H1584 0.951 . S
C1609 C1607 1.388 . S
C1609 C1610 1.366 . S
C1610 C1609 1.366 . S
C1610 C1611 1.414 . S
C1610 C1613 1.499 . S
C1611 H1585 0.950 1_565 S
C1611 C1610 1.414 . S
C1611 C1612 1.374 1_565 S
C1612 H1586 0.950 . S
C1612 C1608 1.385 . S
C1612 C1611 1.374 1_545 S
C1613 C1610 1.499 . S
C1613 C1614 1.373 . S
C1613 C1615 1.389 . S
C1614 H1587 0.950 . S
C1614 C1600 1.377 . S
C1614 C1613 1.373 . S
C1615 C1599 1.377 . S
C1615 C1613 1.389 . S
C1615 C1616 1.524 . S
C1616 C1615 1.524 . S
C1616 C1617 1.397 . S
C1616 C1621 1.363 . S
C1617 H1588 0.950 . S
C1617 C1616 1.397 . S
C1617 C1618 1.334 . S
C1618 H1589 0.950 . S
C1618 C1617 1.334 . S
C1618 C1619 1.287 . S
C1619 C1618 1.287 . S
C1619 C1620 1.524 . S
C1619 H1622 0.999 . S
C1620 H1590 0.950 . S
C1620 C1619 1.524 . S
C1620 C1621 1.415 . S
C1621 H1591 0.950 . S
C1621 C1616 1.363 . S
C1621 C1620 1.415 . S
H1622 C1619 0.999 . S
H1623 C1604 0.913 . S
H1624 C1642 0.951 . S
H1625 C1644 0.951 . S
H1626 C1646 0.950 . S
H1627 C1647 0.950 . S
H1628 C1649 0.950 . S
H1629 C1652 0.950 . S
H1630 C1653 0.950 . S
H1631 C1655 0.950 . S
H1632 C1656 0.950 . S
H1633 C1657 0.951 . S
H1634 C1659 0.951 . S
H1635 C1661 0.950 . S
H1636 C1662 0.950 . S
H1637 C1664 0.950 . S
H1638 C1667 0.950 . S
H1639 C1668 0.950 . S
H1640 C1670 0.950 . S
H1641 C1671 0.950 . S
C1642 H1624 0.951 . S
C1642 C1643 1.366 . S
C1642 C1644 1.388 . S
C1643 C1642 1.366 . S
C1643 C1647 1.385 . S
C1644 H1625 0.951 . S
C1644 C1642 1.388 . S
C1644 C1645 1.366 . S
C1645 C1644 1.366 . S
C1645 C1646 1.414 . S
C1645 C1648 1.499 . S
C1646 H1626 0.950 . S
C1646 C1645 1.414 . S
C1646 C1647 1.374 . S
C1647 H1627 0.950 . S
C1647 C1643 1.385 . S
C1647 C1646 1.374 . S
C1648 C1645 1.499 . S
C1648 C1649 1.373 . S
C1648 C1650 1.389 . S
C1649 H1628 0.950 . S
C1649 C1648 1.373 . S
C1649 C1665 1.377 . S
C1650 C1648 1.389 . S
C1650 C1651 1.524 . S
C1650 C1664 1.377 . S
C1651 C1650 1.524 . S
C1651 C1652 1.397 . S
C1651 C1656 1.363 . S
C1652 H1629 0.950 . S
C1652 C1651 1.397 . S
C1652 C1653 1.334 . S
C1653 H1630 0.950 . S
C1653 C1652 1.334 . S
C1653 C1654 1.287 . S
C1654 C1653 1.287 . S
C1654 C1655 1.524 . S
C1654 H1673 0.913 . S
C1655 H1631 0.950 . S
C1655 C1654 1.524 . S
C1655 C1656 1.415 . S
C1656 H1632 0.950 . S
C1656 C1651 1.363 . S
C1656 C1655 1.415 . S
C1657 H1633 0.951 . S
C1657 C1658 1.366 . S
C1657 C1659 1.388 1_565 S
C1658 C1657 1.366 . S
C1658 C1662 1.385 1_565 S
C1659 H1634 0.951 . S
C1659 C1657 1.388 1_545 S
C1659 C1660 1.366 . S
C1660 C1659 1.366 . S
C1660 C1661 1.414 . S
C1660 C1663 1.499 . S
C1661 H1635 0.950 . S
C1661 C1660 1.414 . S
C1661 C1662 1.374 . S
C1662 H1636 0.950 . S
C1662 C1658 1.385 1_545 S
C1662 C1661 1.374 . S
C1663 C1660 1.499 . S
C1663 C1664 1.373 . S
C1663 C1665 1.389 . S
C1664 H1637 0.950 . S
C1664 C1650 1.377 . S
C1664 C1663 1.373 . S
C1665 C1649 1.377 . S
C1665 C1663 1.389 . S
C1665 C1666 1.524 . S
C1666 C1665 1.524 . S
C1666 C1667 1.397 . S
C1666 C1671 1.363 . S
C1667 H1638 0.950 . S
C1667 C1666 1.397 . S
C1667 C1668 1.334 1_545 S
C1668 H1639 0.950 . S
C1668 C1667 1.334 1_565 S
C1668 C1669 1.287 . S
C1669 C1668 1.287 . S
C1669 C1670 1.524 . S
C1669 H1672 0.999 . S
C1670 H1640 0.950 . S
C1670 C1669 1.524 . S
C1670 C1671 1.415 1_565 S
C1671 H1641 0.950 . S
C1671 C1666 1.363 . S
C1671 C1670 1.415 1_545 S
H1672 C1669 0.999 . S
H1673 C1654 0.913 . S
H1674 C1692 0.951 . S
H1675 C1694 0.951 . S
H1676 C1696 0.950 . S
H1677 C1697 0.950 . S
H1678 C1699 0.950 . S
H1679 C1702 0.950 . S
H1680 C1703 0.950 . S
H1681 C1705 0.950 . S
H1682 C1706 0.950 . S
H1683 C1707 0.951 . S
H1684 C1709 0.951 . S
H1685 C1711 0.950 . S
H1686 C1712 0.950 . S
H1687 C1714 0.950 . S
H1688 C1717 0.950 . S
H1689 C1718 0.950 . S
H1690 C1720 0.950 . S
H1691 C1721 0.950 . S
C1692 H1674 0.951 . S
C1692 C1693 1.366 . S
C1692 C1694 1.388 . S
C1693 C1692 1.366 . S
C1693 C1697 1.385 . S
C1694 H1675 0.951 . S
C1694 C1692 1.388 . S
C1694 C1695 1.366 . S
C1695 C1694 1.366 . S
C1695 C1696 1.414 . S
C1695 C1698 1.499 . S
C1696 H1676 0.950 . S
C1696 C1695 1.414 . S
C1696 C1697 1.374 . S
C1697 H1677 0.950 . S
C1697 C1693 1.385 . S
C1697 C1696 1.374 . S
C1698 C1695 1.499 . S
C1698 C1699 1.373 . S
C1698 C1700 1.389 . S
C1699 H1678 0.950 . S
C1699 C1698 1.373 . S
C1699 C1715 1.377 . S
C1700 C1698 1.389 . S
C1700 C1701 1.524 . S
C1700 C1714 1.377 . S
C1701 C1700 1.524 . S
C1701 C1702 1.397 . S
C1701 C1706 1.363 . S
C1702 H1679 0.950 . S
C1702 C1701 1.397 . S
C1702 C1703 1.334 . S
C1703 H1680 0.950 . S
C1703 C1702 1.334 . S
C1703 C1704 1.287 . S
C1704 C1703 1.287 . S
C1704 C1705 1.524 . S
C1704 H1723 0.913 . S
C1705 H1681 0.950 . S
C1705 C1704 1.524 . S
C1705 C1706 1.415 . S
C1706 H1682 0.950 . S
C1706 C1701 1.363 . S
C1706 C1705 1.415 . S
C1707 H1683 0.951 . S
C1707 C1708 1.366 . S
C1707 C1709 1.388 . S
C1708 C1707 1.366 . S
C1708 C1712 1.385 . S
C1709 H1684 0.951 . S
C1709 C1707 1.388 . S
C1709 C1710 1.366 . S
C1710 C1709 1.366 . S
C1710 C1711 1.414 . S
C1710 C1713 1.499 . S
C1711 H1685 0.950 . S
C1711 C1710 1.414 . S
C1711 C1712 1.374 . S
C1712 H1686 0.950 . S
C1712 C1708 1.385 . S
C1712 C1711 1.374 . S
C1713 C1710 1.499 . S
C1713 C1714 1.373 . S
C1713 C1715 1.389 . S
C1714 H1687 0.950 . S
C1714 C1700 1.377 . S
C1714 C1713 1.373 . S
C1715 C1699 1.377 . S
C1715 C1713 1.389 . S
C1715 C1716 1.524 . S
C1716 C1715 1.524 . S
C1716 C1717 1.397 . S
C1716 C1721 1.363 . S
C1717 H1688 0.950 . S
C1717 C1716 1.397 . S
C1717 C1718 1.334 . S
C1718 H1689 0.950 . S
C1718 C1717 1.334 . S
C1718 C1719 1.287 . S
C1719 C1718 1.287 . S
C1719 C1720 1.524 . S
C1719 H1722 0.999 . S
C1720 H1690 0.950 . S
C1720 C1719 1.524 . S
C1720 C1721 1.415 . S
C1721 H1691 0.950 . S
C1721 C1716 1.363 . S
C1721 C1720 1.415 . S
H1722 C1719 0.999 . S
H1723 C1704 0.913 . S
H1724 C1742 0.951 . S
H1725 C1744 0.951 . S
H1726 C1746 0.950 . S
H1727 C1747 0.950 . S
H1728 C1749 0.950 . S
H1729 C1752 0.950 . S
H1730 C1753 0.950 . S
H1731 C1755 0.950 . S
H1732 C1756 0.950 . S
H1733 C1757 0.951 . S
H1734 C1759 0.951 . S
H1735 C1761 0.950 . S
H1736 C1762 0.950 . S
H1737 C1764 0.950 . S
H1738 C1767 0.950 . S
H1739 C1768 0.950 . S
H1740 C1770 0.950 . S
H1741 C1771 0.950 . S
C1742 H1724 0.951 . S
C1742 C1743 1.366 . S
C1742 C1744 1.388 . S
C1743 C1742 1.366 . S
C1743 C1747 1.385 . S
C1744 H1725 0.951 . S
C1744 C1742 1.388 . S
C1744 C1745 1.366 . S
C1745 C1744 1.366 . S
C1745 C1746 1.414 . S
C1745 C1748 1.499 . S
C1746 H1726 0.950 . S
C1746 C1745 1.414 . S
C1746 C1747 1.374 . S
C1747 H1727 0.950 . S
C1747 C1743 1.385 . S
C1747 C1746 1.374 . S
C1748 C1745 1.499 . S
C1748 C1749 1.373 . S
C1748 C1750 1.389 . S
C1749 H1728 0.950 . S
C1749 C1748 1.373 . S
C1749 C1765 1.377 . S
C1750 C1748 1.389 . S
C1750 C1751 1.524 . S
C1750 C1764 1.377 . S
C1751 C1750 1.524 . S
C1751 C1752 1.397 . S
C1751 C1756 1.363 . S
C1752 H1729 0.950 . S
C1752 C1751 1.397 . S
C1752 C1753 1.334 . S
C1753 H1730 0.950 . S
C1753 C1752 1.334 . S
C1753 C1754 1.287 . S
C1754 C1753 1.287 . S
C1754 C1755 1.524 . S
C1754 H1773 0.913 . S
C1755 H1731 0.950 . S
C1755 C1754 1.524 . S
C1755 C1756 1.415 . S
C1756 H1732 0.950 . S
C1756 C1751 1.363 . S
C1756 C1755 1.415 . S
C1757 H1733 0.951 . S
C1757 C1758 1.366 . S
C1757 C1759 1.388 . S
C1758 C1757 1.366 . S
C1758 C1762 1.385 . S
C1759 H1734 0.951 . S
C1759 C1757 1.388 . S
C1759 C1760 1.366 . S
C1760 C1759 1.366 . S
C1760 C1761 1.414 . S
C1760 C1763 1.499 . S
C1761 H1735 0.950 . S
C1761 C1760 1.414 . S
C1761 C1762 1.374 . S
C1762 H1736 0.950 . S
C1762 C1758 1.385 . S
C1762 C1761 1.374 . S
C1763 C1760 1.499 . S
C1763 C1764 1.373 . S
C1763 C1765 1.389 . S
C1764 H1737 0.950 . S
C1764 C1750 1.377 . S
C1764 C1763 1.373 . S
C1765 C1749 1.377 . S
C1765 C1763 1.389 . S
C1765 C1766 1.524 . S
C1766 C1765 1.524 . S
C1766 C1767 1.397 . S
C1766 C1771 1.363 . S
C1767 H1738 0.950 . S
C1767 C1766 1.397 . S
C1767 C1768 1.334 . S
C1768 H1739 0.950 . S
C1768 C1767 1.334 . S
C1768 C1769 1.287 . S
C1769 C1768 1.287 . S
C1769 C1770 1.524 . S
C1769 H1772 0.999 . S
C1770 H1740 0.950 . S
C1770 C1769 1.524 . S
C1770 C1771 1.415 . S
C1771 H1741 0.950 . S
C1771 C1766 1.363 . S
C1771 C1770 1.415 . S
H1772 C1769 0.999 . S
H1773 C1754 0.913 . S
H1774 C1792 0.951 . S
H1775 C1794 0.951 . S
H1776 C1796 0.950 . S
H1777 C1797 0.950 . S
H1778 C1799 0.950 . S
H1779 C1802 0.950 . S
H1780 C1803 0.950 . S
H1781 C1805 0.950 . S
H1782 C1806 0.950 . S
H1783 C1807 0.951 . S
H1784 C1809 0.951 . S
H1785 C1811 0.950 . S
H1786 C1812 0.950 . S
H1787 C1814 0.950 . S
H1788 C1817 0.950 . S
H1789 C1818 0.950 . S
H1790 C1820 0.950 . S
H1791 C1821 0.950 . S
C1792 H1774 0.951 . S
C1792 C1793 1.366 . S
C1792 C1794 1.388 . S
C1793 C1792 1.366 . S
C1793 C1797 1.385 . S
C1794 H1775 0.951 . S
C1794 C1792 1.388 . S
C1794 C1795 1.366 . S
C1795 C1794 1.366 . S
C1795 C1796 1.414 . S
C1795 C1798 1.499 . S
C1796 H1776 0.950 . S
C1796 C1795 1.414 . S
C1796 C1797 1.374 . S
C1797 H1777 0.950 . S
C1797 C1793 1.385 . S
C1797 C1796 1.374 . S
C1798 C1795 1.499 . S
C1798 C1799 1.373 . S
C1798 C1800 1.389 . S
C1799 H1778 0.950 . S
C1799 C1798 1.373 . S
C1799 C1815 1.377 . S
C1800 C1798 1.389 . S
C1800 C1801 1.524 . S
C1800 C1814 1.377 . S
C1801 C1800 1.524 . S
C1801 C1802 1.397 . S
C1801 C1806 1.363 . S
C1802 H1779 0.950 . S
C1802 C1801 1.397 . S
C1802 C1803 1.334 . S
C1803 H1780 0.950 . S
C1803 C1802 1.334 . S
C1803 C1804 1.287 . S
C1804 C1803 1.287 . S
C1804 C1805 1.524 . S
C1804 H1823 0.913 . S
C1805 H1781 0.950 . S
C1805 C1804 1.524 . S
C1805 C1806 1.415 . S
C1806 H1782 0.950 . S
C1806 C1801 1.363 . S
C1806 C1805 1.415 . S
C1807 H1783 0.951 . S
C1807 C1808 1.366 . S
C1807 C1809 1.388 1_565 S
C1808 C1807 1.366 . S
C1808 C1812 1.385 1_565 S
C1809 H1784 0.951 . S
C1809 C1807 1.388 1_545 S
C1809 C1810 1.366 . S
C1810 C1809 1.366 . S
C1810 C1811 1.414 . S
C1810 C1813 1.499 . S
C1811 H1785 0.950 . S
C1811 C1810 1.414 . S
C1811 C1812 1.374 . S
C1812 H1786 0.950 . S
C1812 C1808 1.385 1_545 S
C1812 C1811 1.374 . S
C1813 C1810 1.499 . S
C1813 C1814 1.373 . S
C1813 C1815 1.389 . S
C1814 H1787 0.950 . S
C1814 C1800 1.377 . S
C1814 C1813 1.373 . S
C1815 C1799 1.377 . S
C1815 C1813 1.389 . S
C1815 C1816 1.524 . S
C1816 C1815 1.524 . S
C1816 C1817 1.397 . S
C1816 C1821 1.363 . S
C1817 H1788 0.950 . S
C1817 C1816 1.397 . S
C1817 C1818 1.334 . S
C1818 H1789 0.950 . S
C1818 C1817 1.334 . S
C1818 C1819 1.287 . S
C1819 C1818 1.287 . S
C1819 C1820 1.524 . S
C1819 H1822 0.999 . S
C1820 H1790 0.950 . S
C1820 C1819 1.524 . S
C1820 C1821 1.415 . S
C1821 H1791 0.950 . S
C1821 C1816 1.363 . S
C1821 C1820 1.415 . S
H1822 C1819 0.999 . S
H1823 C1804 0.913 . S
C243 C196 1.490 . S
C258 C0 1.490 . S
C293 C39 1.495 . S
C308 C11 1.494 . S
C343 C165 1.495 . S
C358 C25 1.495 . S
C393 C14 1.490 . S
C408 C98 1.490 . S
C443 C28 1.490 . S
C458 C168 1.490 . S
C493 C137 1.495 . S
C508 C53 1.495 . S
C543 C42 1.490 . S
C558 C70 1.490 . S
C593 C140 1.490 . S
C608 C56 1.490 . S
C643 C67 1.495 . S
C658 C95 1.495 . S
C693 C221 1.495 . S
C708 C81 1.495 . S
C743 C112 1.490 . S
C758 C84 1.490 . S
C793 C193 1.495 . S
C808 C109 1.495 . S
C843 C123 1.495 . S
C858 C151 1.495 . S
C893 C210 1.490 . S
C908 C126 1.490 . S
C943 C154 1.490 . S
C958 C182 1.490 . S
C993 C207 1.494 . S
C1008 C179 1.494 . S
C1043 C75 1.420 . S
C1058 C9 1.416 . S
C1093 C5 1.420 . S
C1108 C79 1.416 . S
C1143 C19 1.420 . S
C1158 C65 1.416 . S
C1193 C61 1.420 . S
C1208 C23 1.416 . S
C1243 C103 1.420 . S
C1258 C37 1.416 . S
C1293 C107 1.416 . S
C1308 C33 1.420 . S
C1343 C93 1.416 . S
C1358 C47 1.420 . S
C1393 C51 1.416 . S
C1408 C89 1.420 . S
C1443 C187 1.420 . S
C1458 C121 1.416 . S
C1493 C117 1.420 . S
C1508 C191 1.416 . S
C1543 C131 1.420 . S
C1558 C177 1.416 . S
C1593 C173 1.420 . S
C1608 C135 1.416 . S
C1643 C215 1.420 . S
C1658 C149 1.416 . S
C1693 C219 1.416 . S
C1708 C145 1.420 . S
C1743 C159 1.420 . S
C1758 C205 1.416 . S
C1793 C201 1.420 . S
C1808 C163 1.416 . S
