# Generated by pormake.
# Topology snv-x, (7)-cn, num edge types: 1
# Building blocks:
#     Node 0, Type 0, BuildingBlock: NUHQUE_clean_sbu_2, # of connection points: 7
#     Node 1, Type 0, BuildingBlock: NUHQUE_clean_sbu_2, # of connection points: 7
#     Node 2, Type 0, BuildingBlock: NUHQUE_clean_sbu_2, # of connection points: 7
#     Node 3, Type 0, BuildingBlock: NUHQUE_clean_sbu_2, # of connection points: 7
#     Node 4, Type 0, BuildingBlock: NUHQUE_clean_sbu_2, # of connection points: 7
#     Node 5, Type 0, BuildingBlock: NUHQUE_clean_sbu_2, # of connection points: 7
#     Node 6, Type 0, BuildingBlock: NUHQUE_clean_sbu_2, # of connection points: 7
#     Node 7, Type 0, BuildingBlock: NUHQUE_clean_sbu_2, # of connection points: 7
#     Node 8, Type 0, BuildingBlock: NUHQUE_clean_sbu_2, # of connection points: 7
#     Node 9, Type 0, BuildingBlock: NUHQUE_clean_sbu_2, # of connection points: 7
#     Node 10, Type 0, BuildingBlock: NUHQUE_clean_sbu_2, # of connection points: 7
#     Node 11, Type 0, BuildingBlock: NUHQUE_clean_sbu_2, # of connection points: 7
#     Node 12, Type 0, BuildingBlock: NUHQUE_clean_sbu_2, # of connection points: 7
#     Node 13, Type 0, BuildingBlock: NUHQUE_clean_sbu_2, # of connection points: 7
#     Node 14, Type 0, BuildingBlock: NUHQUE_clean_sbu_2, # of connection points: 7
#     Node 15, Type 0, BuildingBlock: NUHQUE_clean_sbu_2, # of connection points: 7
#     Node 16, Type 0, BuildingBlock: NUHQUE_clean_sbu_2, # of connection points: 7
#     Node 17, Type 0, BuildingBlock: NUHQUE_clean_sbu_2, # of connection points: 7
#     Node 18, Type 0, BuildingBlock: NUHQUE_clean_sbu_2, # of connection points: 7
#     Node 19, Type 0, BuildingBlock: NUHQUE_clean_sbu_2, # of connection points: 7
#     Node 20, Type 0, BuildingBlock: NUHQUE_clean_sbu_2, # of connection points: 7
#     Node 21, Type 0, BuildingBlock: NUHQUE_clean_sbu_2, # of connection points: 7
#     Node 22, Type 0, BuildingBlock: NUHQUE_clean_sbu_2, # of connection points: 7
#     Node 23, Type 0, BuildingBlock: NUHQUE_clean_sbu_2, # of connection points: 7
#     Edge 24, Type (0, 0), BuildingBlock: EZIPEK_clean_linker_0, # of connection points: 2
#     Edge 25, Type (0, 0), BuildingBlock: EZIPEK_clean_linker_0, # of connection points: 2
#     Edge 26, Type (0, 0), BuildingBlock: EZIPEK_clean_linker_0, # of connection points: 2
#     Edge 27, Type (0, 0), BuildingBlock: EZIPEK_clean_linker_0, # of connection points: 2
#     Edge 28, Type (0, 0), BuildingBlock: EZIPEK_clean_linker_0, # of connection points: 2
#     Edge 29, Type (0, 0), BuildingBlock: EZIPEK_clean_linker_0, # of connection points: 2
#     Edge 30, Type (0, 0), BuildingBlock: EZIPEK_clean_linker_0, # of connection points: 2
#     Edge 31, Type (0, 0), BuildingBlock: EZIPEK_clean_linker_0, # of connection points: 2
#     Edge 32, Type (0, 0), BuildingBlock: EZIPEK_clean_linker_0, # of connection points: 2
#     Edge 33, Type (0, 0), BuildingBlock: EZIPEK_clean_linker_0, # of connection points: 2
#     Edge 34, Type (0, 0), BuildingBlock: EZIPEK_clean_linker_0, # of connection points: 2
#     Edge 35, Type (0, 0), BuildingBlock: EZIPEK_clean_linker_0, # of connection points: 2
#     Edge 36, Type (0, 0), BuildingBlock: EZIPEK_clean_linker_0, # of connection points: 2
#     Edge 37, Type (0, 0), BuildingBlock: EZIPEK_clean_linker_0, # of connection points: 2
#     Edge 38, Type (0, 0), BuildingBlock: EZIPEK_clean_linker_0, # of connection points: 2
#     Edge 39, Type (0, 0), BuildingBlock: EZIPEK_clean_linker_0, # of connection points: 2
#     Edge 40, Type (0, 0), BuildingBlock: EZIPEK_clean_linker_0, # of connection points: 2
#     Edge 41, Type (0, 0), BuildingBlock: EZIPEK_clean_linker_0, # of connection points: 2
#     Edge 42, Type (0, 0), BuildingBlock: EZIPEK_clean_linker_0, # of connection points: 2
#     Edge 43, Type (0, 0), BuildingBlock: EZIPEK_clean_linker_0, # of connection points: 2
#     Edge 44, Type (0, 0), BuildingBlock: EZIPEK_clean_linker_0, # of connection points: 2
#     Edge 45, Type (0, 0), BuildingBlock: EZIPEK_clean_linker_0, # of connection points: 2
#     Edge 46, Type (0, 0), BuildingBlock: EZIPEK_clean_linker_0, # of connection points: 2
#     Edge 47, Type (0, 0), BuildingBlock: EZIPEK_clean_linker_0, # of connection points: 2
#     Edge 48, Type (0, 0), BuildingBlock: EZIPEK_clean_linker_0, # of connection points: 2
#     Edge 49, Type (0, 0), BuildingBlock: EZIPEK_clean_linker_0, # of connection points: 2
#     Edge 50, Type (0, 0), BuildingBlock: EZIPEK_clean_linker_0, # of connection points: 2
#     Edge 51, Type (0, 0), BuildingBlock: EZIPEK_clean_linker_0, # of connection points: 2
#     Edge 52, Type (0, 0), BuildingBlock: EZIPEK_clean_linker_0, # of connection points: 2
#     Edge 53, Type (0, 0), BuildingBlock: EZIPEK_clean_linker_0, # of connection points: 2
#     Edge 54, Type (0, 0), BuildingBlock: EZIPEK_clean_linker_0, # of connection points: 2
#     Edge 55, Type (0, 0), BuildingBlock: EZIPEK_clean_linker_0, # of connection points: 2
#     Edge 56, Type (0, 0), BuildingBlock: EZIPEK_clean_linker_0, # of connection points: 2
#     Edge 57, Type (0, 0), BuildingBlock: EZIPEK_clean_linker_0, # of connection points: 2
#     Edge 58, Type (0, 0), BuildingBlock: EZIPEK_clean_linker_0, # of connection points: 2
#     Edge 59, Type (0, 0), BuildingBlock: EZIPEK_clean_linker_0, # of connection points: 2
#     Edge 60, Type (0, 0), BuildingBlock: EZIPEK_clean_linker_0, # of connection points: 2
#     Edge 61, Type (0, 0), BuildingBlock: EZIPEK_clean_linker_0, # of connection points: 2
#     Edge 62, Type (0, 0), BuildingBlock: EZIPEK_clean_linker_0, # of connection points: 2
#     Edge 63, Type (0, 0), BuildingBlock: EZIPEK_clean_linker_0, # of connection points: 2
#     Edge 64, Type (0, 0), BuildingBlock: EZIPEK_clean_linker_0, # of connection points: 2
#     Edge 65, Type (0, 0), BuildingBlock: EZIPEK_clean_linker_0, # of connection points: 2
#     Edge 66, Type (0, 0), BuildingBlock: EZIPEK_clean_linker_0, # of connection points: 2
#     Edge 67, Type (0, 0), BuildingBlock: EZIPEK_clean_linker_0, # of connection points: 2
#     Edge 68, Type (0, 0), BuildingBlock: EZIPEK_clean_linker_0, # of connection points: 2
#     Edge 69, Type (0, 0), BuildingBlock: EZIPEK_clean_linker_0, # of connection points: 2
#     Edge 70, Type (0, 0), BuildingBlock: EZIPEK_clean_linker_0, # of connection points: 2
#     Edge 71, Type (0, 0), BuildingBlock: EZIPEK_clean_linker_0, # of connection points: 2
#     Edge 72, Type (0, 0), BuildingBlock: EZIPEK_clean_linker_0, # of connection points: 2
#     Edge 73, Type (0, 0), BuildingBlock: EZIPEK_clean_linker_0, # of connection points: 2
#     Edge 74, Type (0, 0), BuildingBlock: EZIPEK_clean_linker_0, # of connection points: 2
#     Edge 75, Type (0, 0), BuildingBlock: EZIPEK_clean_linker_0, # of connection points: 2
#     Edge 76, Type (0, 0), BuildingBlock: EZIPEK_clean_linker_0, # of connection points: 2
#     Edge 77, Type (0, 0), BuildingBlock: EZIPEK_clean_linker_0, # of connection points: 2
#     Edge 78, Type (0, 0), BuildingBlock: EZIPEK_clean_linker_0, # of connection points: 2
#     Edge 79, Type (0, 0), BuildingBlock: EZIPEK_clean_linker_0, # of connection points: 2
#     Edge 80, Type (0, 0), BuildingBlock: EZIPEK_clean_linker_0, # of connection points: 2
#     Edge 81, Type (0, 0), BuildingBlock: EZIPEK_clean_linker_0, # of connection points: 2
#     Edge 82, Type (0, 0), BuildingBlock: EZIPEK_clean_linker_0, # of connection points: 2
#     Edge 83, Type (0, 0), BuildingBlock: EZIPEK_clean_linker_0, # of connection points: 2
#     Edge 84, Type (0, 0), BuildingBlock: EZIPEK_clean_linker_0, # of connection points: 2
#     Edge 85, Type (0, 0), BuildingBlock: EZIPEK_clean_linker_0, # of connection points: 2
#     Edge 86, Type (0, 0), BuildingBlock: EZIPEK_clean_linker_0, # of connection points: 2
#     Edge 87, Type (0, 0), BuildingBlock: EZIPEK_clean_linker_0, # of connection points: 2
#     Edge 88, Type (0, 0), BuildingBlock: EZIPEK_clean_linker_0, # of connection points: 2
#     Edge 89, Type (0, 0), BuildingBlock: EZIPEK_clean_linker_0, # of connection points: 2
#     Edge 90, Type (0, 0), BuildingBlock: EZIPEK_clean_linker_0, # of connection points: 2
#     Edge 91, Type (0, 0), BuildingBlock: EZIPEK_clean_linker_0, # of connection points: 2
#     Edge 92, Type (0, 0), BuildingBlock: EZIPEK_clean_linker_0, # of connection points: 2
#     Edge 93, Type (0, 0), BuildingBlock: EZIPEK_clean_linker_0, # of connection points: 2
#     Edge 94, Type (0, 0), BuildingBlock: EZIPEK_clean_linker_0, # of connection points: 2
#     Edge 95, Type (0, 0), BuildingBlock: EZIPEK_clean_linker_0, # of connection points: 2
#     Edge 96, Type (0, 0), BuildingBlock: EZIPEK_clean_linker_0, # of connection points: 2
#     Edge 97, Type (0, 0), BuildingBlock: EZIPEK_clean_linker_0, # of connection points: 2
#     Edge 98, Type (0, 0), BuildingBlock: EZIPEK_clean_linker_0, # of connection points: 2
#     Edge 99, Type (0, 0), BuildingBlock: EZIPEK_clean_linker_0, # of connection points: 2
#     Edge 100, Type (0, 0), BuildingBlock: EZIPEK_clean_linker_0, # of connection points: 2
#     Edge 101, Type (0, 0), BuildingBlock: EZIPEK_clean_linker_0, # of connection points: 2
#     Edge 102, Type (0, 0), BuildingBlock: EZIPEK_clean_linker_0, # of connection points: 2
#     Edge 103, Type (0, 0), BuildingBlock: EZIPEK_clean_linker_0, # of connection points: 2
#     Edge 104, Type (0, 0), BuildingBlock: EZIPEK_clean_linker_0, # of connection points: 2
#     Edge 105, Type (0, 0), BuildingBlock: EZIPEK_clean_linker_0, # of connection points: 2
#     Edge 106, Type (0, 0), BuildingBlock: EZIPEK_clean_linker_0, # of connection points: 2
#     Edge 107, Type (0, 0), BuildingBlock: EZIPEK_clean_linker_0, # of connection points: 2
# Relax obj value: 0.207
# Max RMSD: 0.252
# Mean RMSD: 0.252
data_MOF--net-snv-x--node1-NUHQUE_clean_sbu_2--edge1-EZIPEK_clean_linker_0
_symmetry_space_group_name_H-M    P1
_symmetry_Int_Tables_number       1
_symmetry_cell_setting            triclinic
loop_
_symmetry_equiv_pos_as_xyz
'x, y, z'
_cell_length_a     41.293804
_cell_length_b     41.176057
_cell_length_c     41.333435
_cell_angle_alpha  90.525612
_cell_angle_beta   89.565127
_cell_angle_gamma 90.312692
loop_
_atom_site_label
_atom_site_type_symbol
_atom_site_fract_x
_atom_site_fract_y
_atom_site_fract_z
_atom_type_partial_charge
O0 O 0.1813 0.47336 0.27917 0.0
Tb1 Tb 0.14983 0.46139 0.32248 0.0
Eu2 Eu 0.16855 0.44801 0.40133 0.0
C3 C 0.20643 0.49421 0.27995 0.0
O4 O 0.21844 0.50235 0.30819 0.0
C5 C 0.15774 0.515 0.37601 0.0
O6 O 0.18517 0.43048 0.45011 0.0
C7 C 0.21581 0.44547 0.35999 0.0
C8 C 0.16915 0.40697 0.46451 0.0
O9 O 0.14398 0.39412 0.45015 0.0
C10 C 0.11579 0.40395 0.36482 0.0
C11 C 0.24575 0.42773 0.35724 0.0
C12 C 0.26809 0.43487 0.33259 0.0
C13 C 0.29574 0.41568 0.32896 0.0
C14 C 0.30094 0.39003 0.35026 0.0
C15 C 0.27874 0.38346 0.37503 0.0
C16 C 0.25141 0.40261 0.37892 0.0
O17 O 0.17186 0.50095 0.35096 0.0
O18 O 0.14667 0.49693 0.39953 0.0
O19 O 0.11449 0.47798 0.28766 0.0
O20 O 0.10481 0.48338 0.33792 0.0
C21 C 0.09396 0.48875 0.30916 0.0
O22 O 0.12392 0.41856 0.39195 0.0
O23 O 0.13041 0.41171 0.33662 0.0
O24 O 0.21484 0.46639 0.3841 0.0
O25 O 0.18949 0.42763 0.35751 0.0
H26 H 0.26368 0.4545 0.31593 0.0
H27 H 0.32199 0.37461 0.34707 0.0
H28 H 0.23396 0.3971 0.39789 0.0
O29 O 0.58625 0.15414 0.28984 0.0
Tb30 Tb 0.60306 0.10795 0.31351 0.0
Eu31 Eu 0.62988 0.15522 0.36788 0.0
C32 C 0.55473 0.16098 0.28633 0.0
O33 O 0.53378 0.14377 0.30306 0.0
C34 C 0.55694 0.12677 0.37089 0.0
O35 O 0.65114 0.18099 0.41122 0.0
C36 C 0.64692 0.18086 0.31352 0.0
C37 C 0.67966 0.17268 0.42235 0.0
O38 O 0.69911 0.155 0.40423 0.0
C39 C 0.65898 0.08311 0.36458 0.0
C40 C 0.67689 0.19339 0.2997 0.0
C41 C 0.67601 0.21276 0.27198 0.0
C42 C 0.70424 0.22858 0.26147 0.0
C43 C 0.73317 0.22426 0.27832 0.0
C44 C 0.73404 0.20476 0.30584 0.0
C45 C 0.70599 0.18885 0.31623 0.0
O46 O 0.56414 0.10483 0.34869 0.0
O47 O 0.57688 0.15039 0.3791 0.0
O48 O 0.6125 0.09249 0.26348 0.0
O49 O 0.5752 0.06934 0.29109 0.0
C50 C 0.58994 0.07034 0.2632 0.0
O51 O 0.65719 0.11063 0.38066 0.0
O52 O 0.64283 0.07889 0.33691 0.0
O53 O 0.63522 0.1979 0.338 0.0
O54 O 0.64612 0.14933 0.31819 0.0
H55 H 0.6533 0.21684 0.25969 0.0
H56 H 0.75482 0.23734 0.27082 0.0
H57 H 0.70642 0.17462 0.33817 0.0
O58 O 0.9024 0.5915 0.25799 0.0
Tb59 Tb 0.93772 0.60237 0.2976 0.0
Eu60 Eu 0.92148 0.60891 0.37955 0.0
C61 C 0.89788 0.5606 0.24853 0.0
O62 O 0.9154 0.53808 0.26217 0.0
C63 C 0.92697 0.54475 0.34582 0.0
O64 O 0.91783 0.63371 0.42778 0.0
C65 C 0.87045 0.62114 0.34614 0.0
C66 C 0.92941 0.62087 0.45413 0.0
O67 O 0.94117 0.59128 0.45322 0.0
C68 C 0.97038 0.65665 0.34449 0.0
C69 C 0.84706 0.64699 0.34259 0.0
C70 C 0.82988 0.64879 0.31361 0.0
C71 C 0.80824 0.67417 0.30895 0.0
C72 C 0.80407 0.69778 0.33313 0.0
C73 C 0.82153 0.6963 0.36196 0.0
C74 C 0.84322 0.67088 0.36675 0.0
O75 O 0.91267 0.56343 0.32442 0.0
O76 O 0.93595 0.55757 0.3734 0.0
O77 O 0.97498 0.58777 0.26245 0.0
O78 O 0.97982 0.57695 0.31281 0.0
C79 C 0.99267 0.57392 0.28429 0.0
O80 O 0.967 0.63598 0.36816 0.0
O81 O 0.9546 0.65185 0.3164 0.0
O82 O 0.86941 0.6049 0.37343 0.0
O83 O 0.89981 0.62855 0.33653 0.0
H84 H 0.83338 0.63064 0.29472 0.0
H85 H 0.78725 0.71755 0.32941 0.0
H86 H 0.85707 0.66985 0.38891 0.0
O87 O 0.4717 0.92785 0.25772 0.0
Tb88 Tb 0.46342 0.97278 0.28772 0.0
Eu89 Eu 0.43273 0.94607 0.35809 0.0
C90 C 0.4943 0.90566 0.26389 0.0
O91 O 0.50496 0.90373 0.29364 0.0
C92 C 0.50767 0.96182 0.35162 0.0
O93 O 0.40961 0.92731 0.40365 0.0
C94 C 0.42412 0.90474 0.31164 0.0
C95 C 0.3827 0.93962 0.41542 0.0
O96 O 0.36678 0.96132 0.39887 0.0
C97 C 0.40272 1.0092 0.32712 0.0
C98 C 0.39903 0.88005 0.30804 0.0
C99 C 0.39878 0.85916 0.28109 0.0
C100 C 0.37406 0.836 0.278 0.0
C101 C 0.34995 0.83375 0.30186 0.0
C102 C 0.35031 0.85438 0.32888 0.0
C103 C 0.37489 0.87753 0.33204 0.0
O104 O 0.50488 0.96435 0.31994 0.0
O105 O 0.48286 0.95942 0.37123 0.0
O106 O 0.47336 0.98659 0.23762 0.0
O107 O 0.49346 1.0145 0.27576 0.0
C108 C 0.4921 1.01107 0.24445 0.0
O109 O 0.40885 0.99404 0.35406 0.0
O110 O 0.41702 1.00065 0.29898 0.0
O111 O 0.4443 0.89975 0.33547 0.0
O112 O 0.41359 0.93472 0.31052 0.0
H113 H 0.4176 0.86069 0.26286 0.0
H114 H 0.33085 0.81568 0.29946 0.0
H115 H 0.37516 0.89355 0.353 0.0
O116 O 0.14489 0.56382 0.8203 0.0
Tb117 Tb 0.12001 0.5808 0.77536 0.0
Eu118 Eu 0.14138 0.61127 0.69735 0.0
C119 C 0.17704 0.56123 0.82277 0.0
O120 O 0.19516 0.57729 0.80208 0.0
C121 C 0.15709 0.54339 0.72205 0.0
O122 O 0.14477 0.6394 0.65105 0.0
C123 C 0.17728 0.63509 0.74276 0.0
C124 C 0.11977 0.63947 0.63149 0.0
O125 O 0.09447 0.62124 0.63835 0.0
C126 C 0.07799 0.62904 0.73373 0.0
C127 C 0.19999 0.66105 0.74937 0.0
C128 C 0.2238 0.65532 0.77237 0.0
C129 C 0.25071 0.67566 0.77403 0.0
C130 C 0.25274 0.70291 0.75419 0.0
C131 C 0.22835 0.70928 0.7318 0.0
C132 C 0.20161 0.68847 0.72957 0.0
O133 O 0.16118 0.56094 0.74839 0.0
O134 O 0.14606 0.55734 0.69593 0.0
O135 O 0.07998 0.55199 0.79422 0.0
O136 O 0.09068 0.55078 0.74361 0.0
C137 C 0.07111 0.54069 0.76611 0.0
O138 O 0.08888 0.61185 0.70923 0.0
O139 O 0.09214 0.6262 0.76281 0.0
O140 O 0.18755 0.61325 0.72178 0.0
O141 O 0.14711 0.64351 0.73869 0.0
H142 H 0.22295 0.63358 0.78694 0.0
H143 H 0.2742 0.71824 0.75497 0.0
H144 H 0.18352 0.69234 0.71114 0.0
O145 O 0.4947 0.14523 0.77813 0.0
Tb146 Tb 0.46596 0.12852 0.73556 0.0
Eu147 Eu 0.42172 0.15822 0.68047 0.0
C148 C 0.48325 0.16388 0.80185 0.0
O149 O 0.45167 0.16507 0.80586 0.0
C150 C 0.49065 0.18108 0.68953 0.0
O151 O 0.39024 0.16618 0.63719 0.0
C152 C 0.40368 0.1929 0.73 0.0
C153 C 0.35957 0.15769 0.63782 0.0
O154 O 0.34669 0.14648 0.66456 0.0
C155 C 0.40465 0.08886 0.71168 0.0
C156 C 0.37377 0.19992 0.74764 0.0
C157 C 0.37524 0.21302 0.77903 0.0
C158 C 0.34741 0.22643 0.79327 0.0
C159 C 0.31784 0.22439 0.77688 0.0
C160 C 0.31615 0.21011 0.74611 0.0
C161 C 0.34405 0.19747 0.73174 0.0
O162 O 0.47984 0.17732 0.71929 0.0
O163 O 0.47276 0.16984 0.66597 0.0
O164 O 0.50094 0.0902 0.72679 0.0
O165 O 0.47639 0.11114 0.6867 0.0
C166 C 0.49751 0.08993 0.69541 0.0
O167 O 0.40664 0.10562 0.68468 0.0
O168 O 0.41985 0.09951 0.73839 0.0
O169 O 0.40532 0.20414 0.70035 0.0
O170 O 0.41473 0.16333 0.7326 0.0
H171 H 0.39826 0.21497 0.7913 0.0
H172 H 0.2964 0.2356 0.78732 0.0
H173 H 0.34297 0.18833 0.70722 0.0
O174 O 0.8639 0.47217 0.76777 0.0
Tb175 Tb 0.89122 0.45989 0.72218 0.0
Eu176 Eu 0.87726 0.44975 0.64257 0.0
C177 C 0.83452 0.48568 0.76865 0.0
O178 O 0.81632 0.4834 0.7428 0.0
C179 C 0.87256 0.51654 0.67577 0.0
O180 O 0.87426 0.44417 0.58872 0.0
C181 C 0.82493 0.42712 0.66923 0.0
C182 C 0.87297 0.41484 0.57614 0.0
O183 O 0.87318 0.38967 0.59542 0.0
C184 C 0.92719 0.40443 0.67808 0.0
C185 C 0.81104 0.39612 0.67916 0.0
C186 C 0.77834 0.3954 0.68847 0.0
C187 C 0.76559 0.36789 0.70351 0.0
C188 C 0.78476 0.34025 0.70639 0.0
C189 C 0.8176 0.34067 0.6975 0.0
C190 C 0.83086 0.36883 0.68387 0.0
O191 O 0.86248 0.4986 0.70002 0.0
O192 O 0.88462 0.50279 0.64977 0.0
O193 O 0.93051 0.46934 0.75518 0.0
O194 O 0.93285 0.48841 0.707 0.0
C195 C 0.94755 0.48604 0.73461 0.0
O196 O 0.92131 0.42016 0.65132 0.0
O197 O 0.90978 0.4106 0.70521 0.0
O198 O 0.82757 0.43217 0.63804 0.0
O199 O 0.85022 0.43682 0.68564 0.0
H200 H 0.7636 0.417 0.68646 0.0
H201 H 0.77466 0.31899 0.71821 0.0
H202 H 0.85654 0.37007 0.67846 0.0
O203 O 0.5678 0.933 0.79532 0.0
Tb204 Tb 0.5905 0.95609 0.75131 0.0
Eu205 Eu 0.65634 0.92427 0.70893 0.0
C206 C 0.53963 0.91665 0.79359 0.0
O207 O 0.523 0.91856 0.76675 0.0
C208 C 0.58647 0.90011 0.70237 0.0
O209 O 0.69563 0.9068 0.67545 0.0
C210 C 0.66446 0.90923 0.76918 0.0
C211 C 0.71926 0.92602 0.66613 0.0
O212 O 0.72999 0.94865 0.68587 0.0
C213 C 0.64907 1.00013 0.72355 0.0
C214 C 0.6927 0.89677 0.78582 0.0
C215 C 0.68881 0.87643 0.81263 0.0
C216 C 0.71435 0.85619 0.82172 0.0
C217 C 0.7438 0.85763 0.80467 0.0
C218 C 0.74778 0.87854 0.77851 0.0
C219 C 0.72277 0.89922 0.77008 0.0
O220 O 0.58915 0.90629 0.73345 0.0
O221 O 0.61188 0.90563 0.68455 0.0
O222 O 0.54853 0.98508 0.73868 0.0
O223 O 0.5802 0.96714 0.70159 0.0
C224 C 0.55458 0.98405 0.70754 0.0
O225 O 0.65376 0.97812 0.70067 0.0
O226 O 0.63193 0.99257 0.75043 0.0
O227 O 0.65211 0.88904 0.74773 0.0
O228 O 0.66776 0.93879 0.75821 0.0
H229 H 0.6654 0.87437 0.8245 0.0
H230 H 0.76295 0.84066 0.81028 0.0
H231 H 0.72543 0.91399 0.7486 0.0
O232 O 0.23233 0.16205 0.45358 0.0
Tb233 Tb 0.27781 0.13266 0.44488 0.0
Eu234 Eu 0.36102 0.12907 0.45264 0.0
C235 C 0.23167 0.18965 0.47115 0.0
O236 O 0.2593 0.20348 0.47881 0.0
C237 C 0.31719 0.13975 0.5096 0.0
O238 O 0.41376 0.11843 0.4458 0.0
C239 C 0.35106 0.18945 0.44134 0.0
C240 C 0.42511 0.12377 0.41662 0.0
O241 O 0.40526 0.13418 0.39443 0.0
C242 C 0.32521 0.09971 0.39151 0.0
C243 C 0.35587 0.21762 0.42118 0.0
C244 C 0.33583 0.24401 0.42781 0.0
C245 C 0.33678 0.2709 0.40789 0.0
C246 C 0.35891 0.27225 0.38224 0.0
C247 C 0.37973 0.24623 0.37582 0.0
C248 C 0.37799 0.21841 0.39514 0.0
O249 O 0.29993 0.15563 0.48804 0.0
O250 O 0.3393 0.11893 0.50026 0.0
O251 O 0.2472 0.09032 0.45667 0.0
O252 O 0.29781 0.08872 0.46301 0.0
C253 C 0.27128 0.07209 0.46539 0.0
O254 O 0.34575 0.09389 0.4147 0.0
O255 O 0.30018 0.12044 0.39577 0.0
O256 O 0.37563 0.17941 0.45849 0.0
O257 O 0.33236 0.16625 0.42997 0.0
H258 H 0.31847 0.24315 0.44766 0.0
H259 H 0.35958 0.29349 0.36687 0.0
H260 H 0.39316 0.19773 0.38966 0.0
O261 O 0.91748 0.28133 0.48646 0.0
Tb262 Tb 0.94313 0.32273 0.46087 0.0
Eu263 Eu 0.92617 0.35802 0.38476 0.0
C264 C 0.90633 0.28326 0.51707 0.0
O265 O 0.91621 0.30784 0.53496 0.0
C266 C 0.88772 0.37052 0.44838 0.0
O267 O 0.91014 0.38906 0.34343 0.0
C268 C 0.91462 0.29649 0.37722 0.0
C269 C 0.93128 0.40517 0.32586 0.0
O270 O 0.95693 0.39012 0.31459 0.0
C271 C 0.99629 0.34465 0.40731 0.0
C272 C 0.9008 0.27821 0.35022 0.0
C273 C 0.8783 0.25339 0.35646 0.0
C274 C 0.85627 0.24419 0.33241 0.0
C275 C 0.85837 0.25826 0.30173 0.0
C276 C 0.8812 0.28257 0.29542 0.0
C277 C 0.90341 0.29145 0.31914 0.0
O278 O 0.89378 0.33954 0.45253 0.0
O279 O 0.90252 0.3853 0.42486 0.0
O280 O 0.96927 0.3378 0.50404 0.0
O281 O 0.95226 0.37367 0.47174 0.0
C282 C 0.96808 0.36889 0.49817 0.0
O283 O 0.97681 0.36839 0.39978 0.0
O284 O 0.98449 0.31905 0.42407 0.0
O285 O 0.8943 0.31635 0.39182 0.0
O286 O 0.9429 0.30985 0.37127 0.0
H287 H 0.87515 0.24437 0.38086 0.0
H288 H 0.83989 0.25286 0.28389 0.0
H289 H 0.91931 0.31204 0.31476 0.0
O290 O 0.81168 0.90056 0.48814 0.0
Tb291 Tb 0.77293 0.93836 0.48228 0.0
Eu292 Eu 0.6847 0.9206 0.46207 0.0
C293 C 0.80837 0.8745 0.50708 0.0
O294 O 0.77914 0.86584 0.51616 0.0
C295 C 0.71364 0.92384 0.52737 0.0
O296 O 0.63997 0.92082 0.43102 0.0
C297 C 0.72585 0.87599 0.44651 0.0
C298 C 0.62447 0.9483 0.42649 0.0
O299 O 0.63433 0.97467 0.44168 0.0
C300 C 0.72543 0.98053 0.43694 0.0
C301 C 0.73226 0.85243 0.42102 0.0
C302 C 0.75554 0.8284 0.42602 0.0
C303 C 0.76184 0.80551 0.40166 0.0
C304 C 0.74509 0.80697 0.37241 0.0
C305 C 0.72178 0.83093 0.3675 0.0
C306 C 0.71531 0.85376 0.39183 0.0
O307 O 0.73578 0.91084 0.50827 0.0
O308 O 0.68475 0.928 0.51535 0.0
O309 O 0.81295 0.97009 0.49634 0.0
O310 O 0.768 0.97306 0.52182 0.0
C311 C 0.79726 0.98454 0.51961 0.0
O312 O 0.70173 0.97165 0.45619 0.0
O313 O 0.75462 0.96624 0.43877 0.0
O314 O 0.70018 0.87033 0.46477 0.0
O315 O 0.72921 0.9065 0.43812 0.0
H316 H 0.76839 0.82726 0.44877 0.0
H317 H 0.74964 0.78888 0.35368 0.0
H318 H 0.69698 0.87211 0.38821 0.0
O319 O 0.14514 0.80579 0.47933 0.0
Tb320 Tb 0.10024 0.77634 0.46966 0.0
Eu321 Eu 0.13742 0.71539 0.4379 0.0
C322 C 0.16649 0.79956 0.50254 0.0
O323 O 0.16734 0.76989 0.5137 0.0
C324 C 0.11736 0.71427 0.51315 0.0
O325 O 0.15888 0.673 0.41168 0.0
C326 C 0.17184 0.766 0.42497 0.0
C327 C 0.14185 0.64614 0.41326 0.0
O328 O 0.11457 0.64597 0.42979 0.0
C329 C 0.06739 0.73197 0.41115 0.0
C330 C 0.19304 0.77257 0.39739 0.0
C331 C 0.21783 0.79577 0.40024 0.0
C332 C 0.2408 0.79896 0.37543 0.0
C333 C 0.23903 0.77884 0.34802 0.0
C334 C 0.21458 0.75537 0.34519 0.0
C335 C 0.19126 0.7525 0.36972 0.0
O336 O 0.10387 0.74309 0.51061 0.0
O337 O 0.13146 0.69939 0.48879 0.0
O338 O 0.08616 0.82726 0.47561 0.0
O339 O 0.05969 0.79069 0.50001 0.0
C340 C 0.06251 0.82182 0.49573 0.0
O341 O 0.08937 0.70949 0.41426 0.0
O342 O 0.07035 0.76079 0.42626 0.0
O343 O 0.18208 0.74258 0.44361 0.0
O344 O 0.14066 0.76432 0.41874 0.0
H345 H 0.22007 0.81041 0.42199 0.0
H346 H 0.25726 0.78097 0.32908 0.0
H347 H 0.17273 0.73381 0.36791 0.0
O348 O 0.26908 0.90007 0.59028 0.0
Tb349 Tb 0.30969 0.93516 0.60058 0.0
Eu350 Eu 0.39021 0.90909 0.62264 0.0
C351 C 0.26297 0.89158 0.55949 0.0
O352 O 0.28248 0.90318 0.53712 0.0
C353 C 0.36723 0.92085 0.55325 0.0
O354 O 0.43856 0.88927 0.63765 0.0
C355 C 0.34388 0.86851 0.6344 0.0
C356 C 0.45256 0.89923 0.66439 0.0
O357 O 0.43657 0.91814 0.68449 0.0
C358 C 0.35525 0.97101 0.65515 0.0
C359 C 0.34067 0.83924 0.65335 0.0
C360 C 0.31005 0.82525 0.65744 0.0
C361 C 0.30637 0.79809 0.677 0.0
C362 C 0.33316 0.78549 0.69308 0.0
C363 C 0.36379 0.79983 0.68952 0.0
C364 C 0.36772 0.82639 0.66903 0.0
O365 O 0.34043 0.90891 0.56594 0.0
O366 O 0.39267 0.92482 0.57148 0.0
O367 O 0.27333 0.97008 0.58533 0.0
O368 O 0.32158 0.97474 0.5689 0.0
C369 C 0.29293 0.98753 0.5678 0.0
O370 O 0.38255 0.95903 0.64343 0.0
O371 O 0.3263 0.95749 0.64806 0.0
O372 O 0.36281 0.86611 0.60882 0.0
O373 O 0.34864 0.89506 0.65154 0.0
H374 H 0.28912 0.83569 0.64601 0.0
H375 H 0.33005 0.76476 0.70886 0.0
H376 H 0.39136 0.83768 0.66626 0.0
O377 O 0.11366 0.27001 0.55919 0.0
Tb378 Tb 0.09629 0.31525 0.58479 0.0
Eu379 Eu 0.12067 0.35653 0.65344 0.0
C380 C 0.13047 0.27159 0.53136 0.0
O381 O 0.13091 0.29947 0.51619 0.0
C382 C 0.15957 0.35444 0.58787 0.0
O383 O 0.14177 0.39137 0.68982 0.0
C384 C 0.13133 0.29799 0.67291 0.0
C385 C 0.15187 0.41946 0.67881 0.0
O386 O 0.14613 0.4263 0.64844 0.0
C387 C 0.04747 0.34235 0.63908 0.0
C388 C 0.15042 0.286 0.69997 0.0
C389 C 0.17223 0.26052 0.69448 0.0
C390 C 0.19624 0.25421 0.71723 0.0
C391 C 0.19705 0.27198 0.74623 0.0
C392 C 0.17493 0.29686 0.7523 0.0
C393 C 0.1513 0.30367 0.72933 0.0
O394 O 0.14836 0.32457 0.58689 0.0
O395 O 0.14662 0.37429 0.60905 0.0
O396 O 0.07027 0.33338 0.54306 0.0
O397 O 0.0913 0.36704 0.57628 0.0
C398 C 0.07433 0.36416 0.55021 0.0
O399 O 0.06829 0.36612 0.64403 0.0
O400 O 0.0575 0.31502 0.62389 0.0
O401 O 0.1483 0.3117 0.64977 0.0
O402 O 0.10528 0.31435 0.68083 0.0
H403 H 0.17229 0.24755 0.67152 0.0
H404 H 0.21626 0.26766 0.76344 0.0
H405 H 0.13532 0.32413 0.73342 0.0
O406 O 0.79507 0.18757 0.6018 0.0
Tb407 Tb 0.76072 0.14568 0.61117 0.0
Eu408 Eu 0.68835 0.18043 0.63173 0.0
C409 C 0.81014 0.18998 0.57298 0.0
O410 O 0.80266 0.16844 0.55062 0.0
C411 C 0.70922 0.17449 0.5588 0.0
O412 O 0.63617 0.18656 0.64678 0.0
C413 C 0.72988 0.21311 0.66565 0.0
C414 C 0.62031 0.21407 0.64933 0.0
O415 O 0.63472 0.24177 0.64277 0.0
C416 C 0.70767 0.11355 0.66006 0.0
C417 C 0.74858 0.21088 0.69548 0.0
C418 C 0.77716 0.22865 0.69759 0.0
C419 C 0.79746 0.22615 0.72456 0.0
C420 C 0.78823 0.20477 0.74941 0.0
C421 C 0.75666 0.19093 0.75034 0.0
C422 C 0.73808 0.19237 0.72171 0.0
O423 O 0.73163 0.15344 0.56743 0.0
O424 O 0.69117 0.19106 0.57931 0.0
O425 O 0.80545 0.11699 0.61163 0.0
O426 O 0.76555 0.10148 0.58281 0.0
C427 C 0.79486 0.09496 0.59153 0.0
O428 O 0.68514 0.12754 0.64329 0.0
O429 O 0.73819 0.12451 0.65693 0.0
O430 O 0.69844 0.21755 0.66825 0.0
O431 O 0.73811 0.19243 0.64278 0.0
H432 H 0.78332 0.24493 0.67796 0.0
H433 H 0.80499 0.20037 0.76864 0.0
H434 H 0.71453 0.18101 0.71994 0.0
O435 O 0.91745 0.78587 0.5938 0.0
Tb436 Tb 0.96251 0.75986 0.60951 0.0
Eu437 Eu 0.91095 0.71744 0.63959 0.0
C438 C 0.91088 0.7899 0.56236 0.0
O439 O 0.92797 0.77273 0.54157 0.0
C440 C 0.93447 0.70471 0.56723 0.0
O441 O 0.88065 0.67773 0.66121 0.0
C442 C 0.89772 0.77412 0.6628 0.0
C443 C 0.88713 0.6487 0.64952 0.0
O444 O 0.9085 0.64599 0.62598 0.0
C445 C 0.98194 0.70815 0.66633 0.0
C446 C 0.89136 0.78533 0.69566 0.0
C447 C 0.87384 0.81396 0.70012 0.0
C448 C 0.85696 0.81906 0.72911 0.0
C449 C 0.85913 0.79641 0.75402 0.0
C450 C 0.87715 0.76796 0.74984 0.0
C451 C 0.89479 0.76332 0.72118 0.0
O452 O 0.96097 0.72126 0.57368 0.0
O453 O 0.90904 0.7063 0.5864 0.0
O454 O 0.98219 0.80871 0.61739 0.0
O455 O 1.00095 0.77887 0.57912 0.0
C456 C 1.00283 0.80707 0.59353 0.0
O457 O 0.95263 0.69586 0.66533 0.0
O458 O 0.98936 0.7348 0.64957 0.0
O459 O 0.87545 0.75411 0.65138 0.0
O460 O 0.92751 0.76466 0.65686 0.0
H461 H 0.86981 0.82999 0.67987 0.0
H462 H 0.84412 0.79941 0.77551 0.0
H463 H 0.90769 0.74073 0.71722 0.0
O464 O 0.47754 0.26717 0.18262 0.0
Tb465 Tb 0.4722 0.29872 0.13878 0.0
Eu466 Eu 0.46608 0.38117 0.1465 0.0
C467 C 0.507 0.2566 0.19102 0.0
O468 O 0.5319 0.26596 0.17355 0.0
C469 C 0.53009 0.34982 0.13951 0.0
O470 O 0.44906 0.43289 0.14867 0.0
C471 C 0.46013 0.34971 0.20021 0.0
C472 C 0.41842 0.43835 0.15538 0.0
O473 O 0.39974 0.4142 0.16446 0.0
C474 C 0.41589 0.34302 0.10258 0.0
C475 C 0.44063 0.34817 0.22952 0.0
C476 C 0.44265 0.32071 0.24922 0.0
C477 C 0.42235 0.31793 0.27631 0.0
C478 C 0.40011 0.34263 0.28341 0.0
C479 C 0.39809 0.36997 0.26359 0.0
C480 C 0.41864 0.37293 0.23685 0.0
O481 O 0.51453 0.32719 0.15601 0.0
O482 O 0.51348 0.37124 0.12372 0.0
O483 O 0.47999 0.25186 0.11457 0.0
O484 O 0.5005 0.29511 0.09455 0.0
C485 C 0.49772 0.2638 0.09139 0.0
O486 O 0.43256 0.36971 0.10666 0.0
O487 O 0.4237 0.31522 0.11775 0.0
O488 O 0.47875 0.37552 0.19704 0.0
O489 O 0.44524 0.34121 0.1735 0.0
H490 H 0.45943 0.30136 0.24323 0.0
H491 H 0.38379 0.3402 0.30396 0.0
H492 H 0.41686 0.39394 0.22142 0.0
O493 O 0.4574 0.80317 0.88512 0.0
Tb494 Tb 0.44826 0.76267 0.92047 0.0
Eu495 Eu 0.45667 0.67907 0.91869 0.0
C496 C 0.48469 0.82097 0.88692 0.0
O497 O 0.50359 0.81621 0.91185 0.0
C498 C 0.51443 0.72336 0.91592 0.0
O499 O 0.44466 0.62592 0.92428 0.0
C500 C 0.44865 0.69864 0.86016 0.0
C501 C 0.41444 0.61777 0.91837 0.0
O502 O 0.39485 0.64006 0.90769 0.0
C503 C 0.398 0.71349 0.95648 0.0
C504 C 0.42823 0.69675 0.83191 0.0
C505 C 0.43509 0.71729 0.80585 0.0
C506 C 0.41173 0.72198 0.78206 0.0
C507 C 0.38233 0.70504 0.78387 0.0
C508 C 0.37588 0.68419 0.80968 0.0
C509 C 0.39909 0.67946 0.83333 0.0
O510 O 0.49393 0.7423 0.90038 0.0
O511 O 0.50385 0.69918 0.93364 0.0
O512 O 0.44967 0.79766 0.96061 0.0
O513 O 0.47241 0.75127 0.96409 0.0
C514 C 0.4655 0.77803 0.97928 0.0
O515 O 0.42042 0.69116 0.95715 0.0
O516 O 0.40062 0.73898 0.9362 0.0
O517 O 0.46573 0.67278 0.86712 0.0
O518 O 0.43554 0.713 0.88555 0.0
H519 H 0.45728 0.73152 0.80542 0.0
H520 H 0.36366 0.70951 0.76612 0.0
H521 H 0.39337 0.66447 0.85388 0.0
O522 O 0.26354 0.46262 0.92633 0.0
Tb523 Tb 0.29024 0.45778 0.97306 0.0
Eu524 Eu 0.34203 0.41937 0.93105 0.0
C525 C 0.25861 0.49219 0.91429 0.0
O526 O 0.27464 0.51666 0.92707 0.0
C527 C 0.34963 0.49506 0.94181 0.0
O528 O 0.38365 0.38916 0.91337 0.0
C529 C 0.28708 0.39718 0.91061 0.0
C530 C 0.41204 0.39946 0.92342 0.0
O531 O 0.41357 0.42671 0.94014 0.0
C532 C 0.33646 0.40351 1.006 0.0
C533 C 0.27615 0.36594 0.89775 0.0
C534 C 0.24701 0.36444 0.88056 0.0
C535 C 0.24092 0.33809 0.85976 0.0
C536 C 0.26351 0.31297 0.85716 0.0
C537 C 0.29262 0.31444 0.87423 0.0
C538 C 0.29836 0.34031 0.8956 0.0
O539 O 0.33057 0.4921 0.96734 0.0
O540 O 0.35352 0.47127 0.92098 0.0
O541 O 0.24235 0.46312 0.99606 0.0
O542 O 0.27796 0.50007 1.00229 0.0
C543 C 0.24832 0.49156 1.00863 0.0
O544 O 0.35655 0.40749 0.98171 0.0
O545 O 0.30695 0.41669 1.0049 0.0
O546 O 0.30826 0.41206 0.89193 0.0
O547 O 0.29457 0.39827 0.94145 0.0
H548 H 0.23072 0.38502 0.88083 0.0
H549 H 0.25972 0.29362 0.83955 0.0
H550 H 0.32171 0.34242 0.90732 0.0
O551 O 0.58437 0.25544 0.89885 0.0
Tb552 Tb 0.59509 0.29346 0.93663 0.0
Eu553 Eu 0.61278 0.36335 0.89708 0.0
C554 C 0.56221 0.25967 0.87598 0.0
O555 O 0.55312 0.28943 0.87002 0.0
C556 C 0.53991 0.34649 0.91745 0.0
O557 O 0.62575 0.4107 0.87361 0.0
C558 C 0.63069 0.31104 0.86651 0.0
C559 C 0.65562 0.42149 0.87193 0.0
O560 O 0.67979 0.40121 0.87467 0.0
C561 C 0.64533 0.34757 0.96401 0.0
C562 C 0.65065 0.30097 0.83893 0.0
C563 C 0.66339 0.26942 0.838 0.0
C564 C 0.68466 0.26031 0.81302 0.0
C565 C 0.69338 0.28291 0.78937 0.0
C566 C 0.68099 0.31451 0.79039 0.0
C567 C 0.65891 0.32327 0.81476 0.0
O568 O 0.54899 0.31854 0.92965 0.0
O569 O 0.55977 0.36756 0.9044 0.0
O570 O 0.59335 0.24963 0.9663 0.0
O571 O 0.56971 0.29276 0.98247 0.0
C572 C 0.57575 0.26272 0.98913 0.0
O573 O 0.62901 0.36973 0.94858 0.0
O574 O 0.64117 0.31628 0.95591 0.0
O575 O 0.60434 0.32722 0.85971 0.0
O576 O 0.64645 0.32317 0.89132 0.0
H577 H 0.65746 0.25233 0.85697 0.0
H578 H 0.71079 0.27621 0.7707 0.0
H579 H 0.64969 0.34788 0.81587 0.0
O580 O 0.76569 0.58333 0.88819 0.0
Tb581 Tb 0.74207 0.5901 0.93693 0.0
Eu582 Eu 0.69223 0.63234 0.89813 0.0
C583 C 0.76964 0.55289 0.87725 0.0
O584 O 0.75516 0.52967 0.89337 0.0
C585 C 0.68608 0.5555 0.89966 0.0
O586 O 0.65166 0.66623 0.88535 0.0
C587 C 0.74904 0.6539 0.88151 0.0
C588 C 0.64842 0.69395 0.90118 0.0
O589 O 0.67246 0.70488 0.91882 0.0
C590 C 0.69612 0.64256 0.97445 0.0
C591 C 0.76522 0.68515 0.87701 0.0
C592 C 0.7949 0.68616 0.86038 0.0
C593 C 0.806 0.71554 0.84736 0.0
C594 C 0.78799 0.74394 0.8523 0.0
C595 C 0.75854 0.74297 0.86923 0.0
C596 C 0.74792 0.71379 0.88268 0.0
O597 O 0.70222 0.55699 0.92699 0.0
O598 O 0.68148 0.58129 0.88188 0.0
O599 O 0.79191 0.58271 0.9524 0.0
O600 O 0.7551 0.55018 0.96852 0.0
C601 C 0.78597 0.55665 0.96902 0.0
O602 O 0.67662 0.64086 0.94964 0.0
O603 O 0.72548 0.62911 0.97238 0.0
O604 O 0.72582 0.64756 0.86069 0.0
O605 O 0.74146 0.64607 0.91135 0.0
H606 H 0.80755 0.6638 0.85461 0.0
H607 H 0.79544 0.76621 0.84044 0.0
H608 H 0.72443 0.71275 0.89406 0.0
O609 O 0.58203 0.80431 0.16123 0.0
Tb610 Tb 0.58929 0.76074 0.12912 0.0
Eu611 Eu 0.62271 0.68527 0.16018 0.0
C612 C 0.55209 0.80887 0.17323 0.0
O613 O 0.53025 0.78666 0.16626 0.0
C614 C 0.55288 0.70291 0.1622 0.0
O615 O 0.65471 0.64282 0.16877 0.0
C616 C 0.64177 0.73866 0.18737 0.0
C617 C 0.67933 0.63938 0.14883 0.0
O618 O 0.68642 0.6628 0.12857 0.0
C619 C 0.63292 0.7079 0.0874 0.0
C620 C 0.66974 0.7481 0.20635 0.0
C621 C 0.66767 0.77535 0.22671 0.0
C622 C 0.69035 0.77972 0.2513 0.0
C623 C 0.71592 0.75778 0.25417 0.0
C624 C 0.71847 0.731 0.23326 0.0
C625 C 0.69572 0.7265 0.20883 0.0
O626 O 0.56845 0.73044 0.16719 0.0
O627 O 0.56984 0.67635 0.16184 0.0
O628 O 0.57014 0.79105 0.09112 0.0
O629 O 0.5441 0.74885 0.10652 0.0
C630 C 0.54418 0.77354 0.08721 0.0
O631 O 0.62304 0.68441 0.10628 0.0
O632 O 0.62867 0.73929 0.09606 0.0
O633 O 0.62251 0.71761 0.20182 0.0
O634 O 0.64771 0.73158 0.15688 0.0
H635 H 0.64714 0.7915 0.22526 0.0
H636 H 0.73292 0.76057 0.27393 0.0
H637 H 0.6967 0.70483 0.19373 0.0
O638 O 0.27719 0.58776 0.16037 0.0
Tb639 Tb 0.29657 0.60108 0.11114 0.0
Eu640 Eu 0.35787 0.63949 0.13963 0.0
C641 C 0.27567 0.55639 0.16889 0.0
O642 O 0.29217 0.53575 0.15098 0.0
C643 C 0.35929 0.56228 0.1288 0.0
O644 O 0.40079 0.66645 0.15994 0.0
C645 C 0.30489 0.65804 0.16796 0.0
C646 C 0.41466 0.68999 0.1436 0.0
O647 O 0.40069 0.70081 0.11743 0.0
C648 C 0.33843 0.65313 0.06699 0.0
C649 C 0.29822 0.68568 0.18924 0.0
C650 C 0.27194 0.68479 0.21098 0.0
C651 C 0.26854 0.70946 0.23435 0.0
C652 C 0.29115 0.73489 0.23553 0.0
C653 C 0.31739 0.73573 0.21399 0.0
C654 C 0.32073 0.71136 0.19057 0.0
O655 O 0.33469 0.56453 0.1088 0.0
O656 O 0.37024 0.58718 0.14547 0.0
O657 O 0.24478 0.60468 0.10086 0.0
O658 O 0.27255 0.56544 0.08094 0.0
C659 C 0.24378 0.57797 0.08391 0.0
O660 O 0.36306 0.65037 0.08662 0.0
O661 O 0.30952 0.64066 0.07524 0.0
O662 O 0.32443 0.63648 0.18026 0.0
O663 O 0.31207 0.66527 0.1379 0.0
H664 H 0.2551 0.66449 0.21063 0.0
H665 H 0.28895 0.75358 0.25411 0.0
H666 H 0.3416 0.71159 0.17448 0.0
O667 O 0.80271 0.47343 0.14289 0.0
Tb668 Tb 0.77721 0.46346 0.09615 0.0
Eu669 Eu 0.72083 0.43345 0.13883 0.0
C670 C 0.81252 0.504 0.14865 0.0
O671 O 0.80399 0.52624 0.12785 0.0
C672 C 0.72485 0.50911 0.12559 0.0
O673 O 0.67783 0.40947 0.16252 0.0
C674 C 0.77382 0.40538 0.15556 0.0
C675 C 0.66494 0.3841 0.14797 0.0
O676 O 0.68123 0.36983 0.12464 0.0
C677 C 0.7232 0.41417 0.06423 0.0
C678 C 0.78122 0.37233 0.16499 0.0
C679 C 0.8122 0.36548 0.17638 0.0
C680 C 0.81703 0.3377 0.19484 0.0
C681 C 0.7916 0.31545 0.19916 0.0
C682 C 0.76089 0.32156 0.18663 0.0
C683 C 0.75586 0.3498 0.1689 0.0
O684 O 0.7419 0.50217 0.09949 0.0
O685 O 0.71762 0.48706 0.14716 0.0
O686 O 0.82329 0.45731 0.07009 0.0
O687 O 0.79605 0.50044 0.06433 0.0
C688 C 0.82273 0.48569 0.05652 0.0
O689 O 0.70378 0.41995 0.08886 0.0
O690 O 0.75386 0.42467 0.06478 0.0
O691 O 0.75508 0.42119 0.17611 0.0
O692 O 0.76564 0.40915 0.12532 0.0
H693 H 0.83143 0.38339 0.17415 0.0
H694 H 0.79502 0.29457 0.2146 0.0
H695 H 0.73165 0.35568 0.16107 0.0
C696 C 0.1769 0.41583 0.52429 0.0
C697 C 0.17842 0.3949 0.49683 0.0
C698 C 0.18583 0.34816 0.53255 0.0
C699 C 0.17715 0.36821 0.55911 0.0
N700 N 0.18623 0.42126 0.58188 0.0
N701 N 0.18932 0.34183 0.47411 0.0
C702 C 0.17961 0.40226 0.55556 0.0
C703 C 0.18502 0.36126 0.50077 0.0
N704 N 0.17042 0.44812 0.52088 0.0
N705 N 0.1966 0.31747 0.53818 0.0
H706 H 0.19108 0.35113 0.45075 0.0
H707 H 0.1903 0.3166 0.47497 0.0
H708 H 0.1998 0.30896 0.56165 0.0
H709 H 0.20544 0.30191 0.52024 0.0
H710 H 0.16516 0.46342 0.54042 0.0
H711 H 0.16808 0.45928 0.49852 0.0
H712 H 0.19061 0.44616 0.58061 0.0
H713 H 0.19191 0.41099 0.60408 0.0
C714 C 0.71224 0.1944 0.46902 0.0
C715 C 0.68601 0.17516 0.45755 0.0
C716 C 0.67566 0.15509 0.51251 0.0
C717 C 0.7007 0.17564 0.52417 0.0
N718 N 0.74067 0.21742 0.51527 0.0
N719 N 0.64083 0.13899 0.4683 0.0
C720 C 0.71841 0.19606 0.50289 0.0
C721 C 0.66703 0.1562 0.47933 0.0
N722 N 0.73148 0.21064 0.44741 0.0
N723 N 0.66117 0.13335 0.53298 0.0
H724 H 0.63519 0.13626 0.44393 0.0
H725 H 0.6235 0.12851 0.4834 0.0
H726 H 0.66617 0.13235 0.55765 0.0
H727 H 0.64583 0.1147 0.52537 0.0
H728 H 0.75306 0.22223 0.45351 0.0
H729 H 0.7267 0.21112 0.42268 0.0
H730 H 0.75238 0.23522 0.50177 0.0
H731 H 0.74596 0.21879 0.53988 0.0
C732 C 0.9026 0.65858 0.4938 0.0
C733 C 0.93043 0.64083 0.48411 0.0
C734 C 0.95931 0.66173 0.53142 0.0
C735 C 0.93324 0.68317 0.5383 0.0
N736 N 0.88253 0.70652 0.52116 0.0
N737 N 0.9881 0.6323 0.48959 0.0
C738 C 0.90551 0.6829 0.51814 0.0
C739 C 0.95964 0.64423 0.50173 0.0
N740 N 0.87309 0.65155 0.48061 0.0
N741 N 0.983 0.65672 0.55372 0.0
H742 H 0.99 0.62074 0.46713 0.0
H743 H 1.01043 0.63716 0.50026 0.0
H744 H 0.98278 0.66728 0.57673 0.0
H745 H 1.00084 0.6391 0.5507 0.0
H746 H 0.85158 0.66179 0.48907 0.0
H747 H 0.86959 0.63288 0.46375 0.0
H748 H 0.86369 0.70912 0.50477 0.0
H749 H 0.88407 0.72559 0.5378 0.0
C750 C 0.36153 0.90668 0.46177 0.0
C751 C 0.37601 0.93566 0.45028 0.0
C752 C 0.38312 0.95542 0.50573 0.0
C753 C 0.37027 0.92565 0.51774 0.0
N754 N 0.35361 0.87024 0.50689 0.0
N755 N 0.40088 0.98795 0.46097 0.0
C756 C 0.36083 0.90059 0.49567 0.0
C757 C 0.38682 0.95998 0.47213 0.0
N758 N 0.348 0.88529 0.44021 0.0
N759 N 0.39231 0.98029 0.52566 0.0
H760 H 0.40455 0.99274 0.43648 0.0
H761 H 0.40912 1.0064 0.47637 0.0
H762 H 0.38984 0.98044 0.55078 0.0
H763 H 0.38984 0.98044 0.55078 0.0
H764 H 0.33395 0.86539 0.44701 0.0
H765 H 0.34854 0.88902 0.41527 0.0
H766 H 0.3496 0.8502 0.49188 0.0
H767 H 0.35491 0.86403 0.53122 0.0
C768 C 0.09215 0.67967 0.59537 0.0
C769 C 0.11964 0.66032 0.6023 0.0
C770 C 0.1475 0.6831 0.55521 0.0
C771 C 0.11822 0.69784 0.54512 0.0
N772 N 0.06055 0.70476 0.55349 0.0
N773 N 0.17112 0.63868 0.58431 0.0
C774 C 0.08991 0.69482 0.56467 0.0
C775 C 0.14675 0.66073 0.58106 0.0
N776 N 0.06869 0.68457 0.61838 0.0
N777 N 0.17635 0.6911 0.54085 0.0
H778 H 0.17089 0.62058 0.60177 0.0
H779 H 0.18974 0.63607 0.56733 0.0
H780 H 0.17846 0.70842 0.52273 0.0
H781 H 0.19859 0.68328 0.54953 0.0
H782 H 0.04968 0.70082 0.61547 0.0
H783 H 0.07018 0.67535 0.64173 0.0
H784 H 0.03886 0.70025 0.56573 0.0
H785 H 0.05729 0.71442 0.53055 0.0
C786 C 0.33081 0.12458 0.59583 0.0
C787 C 0.3416 0.15535 0.60718 0.0
C788 C 0.32801 0.17953 0.55514 0.0
C789 C 0.31694 0.1486 0.54427 0.0
N790 N 0.29667 0.09566 0.55798 0.0
N791 N 0.34242 0.21349 0.60126 0.0
C792 C 0.31427 0.12262 0.56614 0.0
C793 C 0.33741 0.18337 0.58803 0.0
N794 N 0.33901 0.09681 0.61153 0.0
N795 N 0.33163 0.20452 0.53391 0.0
H796 H 0.34921 0.21688 0.62534 0.0
H797 H 0.33691 0.23493 0.58937 0.0
H798 H 0.32434 0.20311 0.50989 0.0
H799 H 0.34346 0.22618 0.53973 0.0
H800 H 0.33497 0.07375 0.60169 0.0
H801 H 0.35302 0.09664 0.63237 0.0
H802 H 0.29183 0.07701 0.57423 0.0
H803 H 0.28408 0.09397 0.53621 0.0
C804 C 0.89173 0.4259 0.51907 0.0
C805 C 0.87034 0.40981 0.54075 0.0
C806 C 0.85019 0.37572 0.49626 0.0
C807 C 0.87381 0.38984 0.47574 0.0
N808 N 0.90075 0.44068 0.46343 0.0
N809 N 0.82076 0.3792 0.5473 0.0
C810 C 0.88931 0.41905 0.48562 0.0
C811 C 0.84669 0.3878 0.52847 0.0
N812 N 0.91566 0.44611 0.5301 0.0
N813 N 0.83136 0.35086 0.4848 0.0
H814 H 0.81706 0.38875 0.5705 0.0
H815 H 0.80148 0.36513 0.539 0.0
H816 H 0.83193 0.34369 0.46051 0.0
H817 H 0.81564 0.33727 0.49917 0.0
H818 H 0.93378 0.45529 0.51498 0.0
H819 H 0.91968 0.45099 0.5545 0.0
H820 H 0.91073 0.46309 0.46996 0.0
H821 H 0.89532 0.43881 0.43891 0.0
C822 C 0.7138 0.95614 0.61366 0.0
C823 C 0.72472 0.92841 0.63078 0.0
C824 C 0.72698 0.89724 0.58016 0.0
C825 C 0.71838 0.92548 0.56281 0.0
N826 N 0.70919 0.98332 0.56224 0.0
N827 N 0.74872 0.87534 0.62969 0.0
C828 C 0.71375 0.95544 0.57932 0.0
C829 C 0.73384 0.89994 0.61367 0.0
N830 N 0.70099 0.98222 0.62989 0.0
N831 N 0.72612 0.86745 0.56533 0.0
H832 H 0.75456 0.87713 0.65417 0.0
H833 H 0.75804 0.8548 0.61815 0.0
H834 H 0.71886 0.86408 0.54142 0.0
H835 H 0.72923 0.84573 0.57761 0.0
H836 H 0.68892 1.00102 0.61848 0.0
H837 H 0.69979 0.98417 0.65492 0.0
H838 H 0.70999 1.00639 0.57279 0.0
H839 H 0.7073 0.98373 0.5371 0.0
C840 C 0.47463 0.15459 0.4018 0.0
C841 C 0.46018 0.1245 0.40993 0.0
C842 C 0.51126 0.09682 0.3983 0.0
C843 C 0.52416 0.12621 0.38563 0.0
N844 N 0.51492 0.1819 0.36941 0.0
N845 N 0.46543 0.06623 0.41642 0.0
C846 C 0.50513 0.15492 0.386 0.0
C847 C 0.4785 0.09554 0.40844 0.0
N848 N 0.45957 0.18298 0.41007 0.0
N849 N 0.53012 0.0698 0.40077 0.0
H850 H 0.44147 0.06289 0.42397 0.0
H851 H 0.44147 0.06289 0.42397 0.0
H852 H 0.55491 0.06987 0.39577 0.0
H853 H 0.52113 0.04777 0.40948 0.0
H854 H 0.47046 0.2057 0.40746 0.0
H855 H 0.43785 0.18355 0.4231 0.0
H856 H 0.50006 0.20195 0.36607 0.0
H857 H 0.53627 0.18316 0.35592 0.0
C858 C 0.95816 0.45778 0.34301 0.0
C859 C 0.93131 0.44116 0.32898 0.0
C860 C 0.90008 0.49157 0.33138 0.0
C861 C 0.92824 0.50898 0.34092 0.0
N862 N 0.98597 0.5089 0.35085 0.0
N863 N 0.87856 0.44373 0.30454 0.0
C864 C 0.95786 0.4922 0.34516 0.0
C865 C 0.90284 0.45856 0.32151 0.0
N866 N 0.98298 0.44091 0.35656 0.0
N867 N 0.87035 0.50577 0.3338 0.0
H868 H 0.87999 0.41968 0.29653 0.0
H869 H 0.85864 0.45624 0.29575 0.0
H870 H 0.867 0.52929 0.34273 0.0
H871 H 0.84878 0.49299 0.33034 0.0
H872 H 1.00124 0.45196 0.37008 0.0
H873 H 0.98363 0.41573 0.35771 0.0
H874 H 1.00869 0.498 0.3498 0.0
H875 H 0.98707 0.53394 0.3542 0.0
C876 C 0.57046 0.92714 0.40723 0.0
C877 C 0.59619 0.94993 0.40442 0.0
C878 C 0.56478 0.98042 0.36452 0.0
C879 C 0.53997 0.95658 0.36624 0.0
N880 N 0.52426 0.90218 0.38124 0.0
N881 N 0.62137 0.99303 0.37372 0.0
C882 C 0.5445 0.92829 0.38503 0.0
C883 C 0.59443 0.97507 0.38104 0.0
N884 N 0.56954 0.90565 0.43223 0.0
N885 N 0.55969 1.00867 0.3483 0.0
H886 H 0.64385 0.98877 0.38413 0.0
H887 H 0.62228 1.00962 0.35485 0.0
H888 H 0.53838 1.01336 0.33583 0.0
H889 H 0.57557 1.0284 0.34932 0.0
H890 H 0.54954 0.89089 0.4371 0.0
H891 H 0.58706 0.9049 0.45022 0.0
H892 H 0.52833 0.87984 0.3921 0.0
H893 H 0.50556 0.9017 0.36442 0.0
C894 C 0.1507 0.6068 0.36801 0.0
C895 C 0.1548 0.61527 0.40097 0.0
C896 C 0.17359 0.56066 0.41265 0.0
C897 C 0.16218 0.55027 0.38197 0.0
N898 N 0.14342 0.56368 0.32836 0.0
N899 N 0.17182 0.60177 0.45481 0.0
C900 C 0.15255 0.5735 0.35865 0.0
C901 C 0.16717 0.59273 0.42326 0.0
N902 N 0.14448 0.63056 0.34605 0.0
N903 N 0.19158 0.54015 0.43101 0.0
H904 H 0.16926 0.62569 0.46299 0.0
H905 H 0.17673 0.58535 0.47313 0.0
H906 H 0.19833 0.51708 0.42291 0.0
H907 H 0.20289 0.5472 0.4524 0.0
H908 H 0.14386 0.62671 0.32115 0.0
H909 H 0.14255 0.655 0.35264 0.0
H910 H 0.13294 0.57887 0.31147 0.0
H911 H 0.14451 0.53972 0.32031 0.0
C912 C 0.54352 0.91053 0.65914 0.0
C913 C 0.5538 0.89411 0.68771 0.0
C914 C 0.49758 0.87665 0.69796 0.0
C915 C 0.48752 0.89324 0.66989 0.0
N916 N 0.50195 0.91857 0.61919 0.0
N917 N 0.54211 0.85291 0.72728 0.0
C918 C 0.51088 0.90724 0.64882 0.0
C919 C 0.53122 0.87445 0.70491 0.0
N920 N 0.5635 0.93167 0.64304 0.0
N921 N 0.47495 0.86324 0.71819 0.0
H922 H 0.5667 0.84946 0.7317 0.0
H923 H 0.52723 0.83608 0.73886 0.0
H924 H 0.45034 0.86229 0.71267 0.0
H925 H 0.48035 0.85455 0.7411 0.0
H926 H 0.55509 0.94825 0.62622 0.0
H927 H 0.58786 0.93547 0.64754 0.0
H928 H 0.51863 0.92427 0.60103 0.0
H929 H 0.47811 0.92013 0.61146 0.0
C930 C 0.18866 0.46688 0.68403 0.0
C931 C 0.16735 0.44483 0.69941 0.0
C932 C 0.15497 0.48524 0.74104 0.0
C933 C 0.16839 0.5093 0.72021 0.0
N934 N 0.20617 0.52296 0.67786 0.0
N935 N 0.14533 0.42762 0.75049 0.0
C936 C 0.18844 0.49994 0.69385 0.0
C937 C 0.15544 0.45213 0.73075 0.0
N938 N 0.20891 0.45561 0.66026 0.0
N939 N 0.14013 0.49414 0.76936 0.0
H940 H 0.14838 0.40326 0.74435 0.0
H941 H 0.13758 0.43091 0.77428 0.0
H942 H 0.14049 0.51774 0.77829 0.0
H943 H 0.12663 0.4785 0.78382 0.0
H944 H 0.22599 0.46974 0.64818 0.0
H945 H 0.21019 0.43084 0.65475 0.0
H946 H 0.21901 0.51864 0.65652 0.0
H947 H 0.20796 0.54686 0.68636 0.0
C948 C 0.55992 0.22326 0.6449 0.0
C949 C 0.58698 0.21292 0.66299 0.0
C950 C 0.55113 0.18364 0.7 0.0
C951 C 0.52363 0.19468 0.68271 0.0
N952 N 0.50199 0.23271 0.64453 0.0
N953 N 0.60732 0.19317 0.71352 0.0
C954 C 0.52807 0.21699 0.65697 0.0
C955 C 0.58214 0.19655 0.69256 0.0
N956 N 0.56445 0.23751 0.61549 0.0
N957 N 0.54849 0.15882 0.72153 0.0
H958 H 0.63031 0.20283 0.70891 0.0
H959 H 0.6044 0.18402 0.7368 0.0
H960 H 0.52697 0.14656 0.72599 0.0
H961 H 0.56844 0.14777 0.73201 0.0
H962 H 0.54558 0.24203 0.59959 0.0
H963 H 0.58731 0.24276 0.60598 0.0
H964 H 0.50408 0.25132 0.62772 0.0
H965 H 0.47854 0.22958 0.65359 0.0
C966 C 0.88434 0.60629 0.6923 0.0
C967 C 0.8726 0.61876 0.66278 0.0
C968 C 0.84947 0.56542 0.64923 0.0
C969 C 0.86655 0.552 0.6755 0.0
N970 N 0.89506 0.56038 0.72592 0.0
N971 N 0.84099 0.61199 0.61458 0.0
C972 C 0.88172 0.57269 0.69853 0.0
C973 C 0.85364 0.59891 0.64198 0.0
N974 N 0.89996 0.62554 0.71421 0.0
N975 N 0.82898 0.54603 0.63172 0.0
H976 H 0.84215 0.63685 0.60989 0.0
H977 H 0.83016 0.59844 0.59622 0.0
H978 H 0.82491 0.5217 0.63745 0.0
H979 H 0.81396 0.55441 0.61355 0.0
H980 H 0.90312 0.65056 0.71175 0.0
H981 H 0.90312 0.65056 0.71175 0.0
H982 H 0.90706 0.57493 0.74287 0.0
H983 H 0.89352 0.53598 0.73209 0.0
C984 C 0.40002 0.48015 0.11594 0.0
C985 C 0.4038 0.4702 0.1485 0.0
C986 C 0.37442 0.5183 0.16744 0.0
C987 C 0.37383 0.53009 0.13514 0.0
N988 N 0.39051 0.52461 0.07931 0.0
N989 N 0.39819 0.48105 0.2056 0.0
C990 C 0.38772 0.51161 0.10951 0.0
C991 C 0.39196 0.48962 0.17437 0.0
N992 N 0.40699 0.45907 0.09112 0.0
N993 N 0.35707 0.5337 0.19131 0.0
H994 H 0.41063 0.45997 0.21159 0.0
H995 H 0.39343 0.49605 0.22547 0.0
H996 H 0.34364 0.55465 0.18751 0.0
H997 H 0.35346 0.52412 0.21429 0.0
H998 H 0.40107 0.46351 0.06712 0.0
H999 H 0.41602 0.43579 0.09478 0.0
H1000 H 0.40372 0.51368 0.06067 0.0
H1001 H 0.38215 0.54771 0.07362 0.0
C1002 C 0.38519 0.56848 0.89842 0.0
C1003 C 0.40146 0.58466 0.92403 0.0
C1004 C 0.38717 0.54 0.96042 0.0
C1005 C 0.36731 0.52608 0.93598 0.0
N1006 N 0.34275 0.53083 0.8833 0.0
N1007 N 0.41276 0.58886 0.98118 0.0
C1008 C 0.36513 0.54128 0.90533 0.0
C1009 C 0.40121 0.57123 0.95554 0.0
N1010 N 0.38943 0.57876 0.86729 0.0
N1011 N 0.39382 0.52296 0.98776 0.0
H1012 H 0.42289 0.61197 0.97885 0.0
H1013 H 0.40961 0.58171 1.00513 0.0
H1014 H 0.38479 0.49967 0.99202 0.0
H1015 H 0.41104 0.53059 1.00452 0.0
H1016 H 0.38068 0.56602 0.84726 0.0
H1017 H 0.40452 0.59822 0.86122 0.0
H1018 H 0.33771 0.54327 0.86211 0.0
H1019 H 0.32684 0.51164 0.88761 0.0
C1020 C 0.45654 0.36879 0.94944 0.0
C1021 C 0.44135 0.37917 0.92065 0.0
C1022 C 0.48848 0.36109 0.88903 0.0
C1023 C 0.5051 0.35489 0.91837 0.0
N1024 N 0.50443 0.35185 0.9769 0.0
N1025 N 0.44243 0.38595 0.86287 0.0
C1026 C 0.48886 0.35801 0.94854 0.0
C1027 C 0.45694 0.37494 0.89027 0.0
N1028 N 0.44095 0.36971 0.97859 0.0
N1029 N 0.50261 0.35306 0.86005 0.0
H1030 H 0.419 0.39529 0.86279 0.0
H1031 H 0.45403 0.38748 0.84049 0.0
H1032 H 0.52586 0.34352 0.85815 0.0
H1033 H 0.49054 0.35344 0.83805 0.0
H1034 H 0.41688 0.37669 0.98173 0.0
H1035 H 0.41688 0.37669 0.98173 0.0
H1036 H 0.49301 0.35389 0.99945 0.0
H1037 H 0.52883 0.34573 0.97816 0.0
C1038 C 0.67693 0.47544 0.85299 0.0
C1039 C 0.66128 0.45668 0.8771 0.0
C1040 C 0.65461 0.50514 0.91123 0.0
C1041 C 0.6734 0.52339 0.88904 0.0
N1042 N 0.70412 0.52575 0.83897 0.0
N1043 N 0.63643 0.45346 0.93038 0.0
C1044 C 0.68463 0.50866 0.85966 0.0
C1045 C 0.65039 0.4715 0.90638 0.0
N1046 N 0.68374 0.46164 0.82351 0.0
N1047 N 0.64045 0.51923 0.9377 0.0
H1048 H 0.63412 0.42831 0.92924 0.0
H1049 H 0.62842 0.46366 0.95221 0.0
H1050 H 0.64103 0.54412 0.94273 0.0
H1051 H 0.64103 0.54412 0.94273 0.0
H1052 H 0.69188 0.47467 0.80355 0.0
H1053 H 0.67895 0.43727 0.81819 0.0
H1054 H 0.71673 0.51527 0.81968 0.0
H1055 H 0.70941 0.5503 0.84202 0.0
C1056 C 0.59741 0.7143 0.87594 0.0
C1057 C 0.61585 0.7089 0.90418 0.0
C1058 C 0.57001 0.72744 0.93735 0.0
C1059 C 0.54979 0.72538 0.91001 0.0
N1060 N 0.54391 0.71585 0.8525 0.0
N1061 N 0.6175 0.70656 0.96293 0.0
C1062 C 0.5634 0.71915 0.87889 0.0
C1063 C 0.60186 0.71505 0.93526 0.0
N1064 N 0.61247 0.71511 0.84642 0.0
N1065 N 0.55851 0.74084 0.96551 0.0
H1066 H 0.63991 0.69529 0.9633 0.0
H1067 H 0.60657 0.70757 0.98571 0.0
H1068 H 0.5353 0.75055 0.96745 0.0
H1069 H 0.57307 0.74565 0.9855 0.0
H1070 H 0.60081 0.72194 0.8253 0.0
H1071 H 0.63745 0.71225 0.84368 0.0
H1072 H 0.55224 0.70742 0.83012 0.0
H1073 H 0.51901 0.71952 0.85331 0.0
C1074 C 0.71486 0.59318 0.16361 0.0
C1075 C 0.69192 0.6066 0.14244 0.0
C1076 C 0.69248 0.55726 0.10873 0.0
C1077 C 0.71378 0.54282 0.13116 0.0
N1078 N 0.74376 0.5456 0.18118 0.0
N1079 N 0.65548 0.60109 0.09727 0.0
C1080 C 0.7245 0.56037 0.15902 0.0
C1081 C 0.67999 0.58868 0.11547 0.0
N1082 N 0.72811 0.61222 0.18746 0.0
N1083 N 0.68387 0.54082 0.08116 0.0
H1084 H 0.64562 0.62402 0.10129 0.0
H1085 H 0.64308 0.58797 0.07961 0.0
H1086 H 0.68959 0.51655 0.07676 0.0
H1087 H 0.67232 0.55159 0.06173 0.0
H1088 H 0.74753 0.60529 0.20166 0.0
H1089 H 0.72113 0.63623 0.19167 0.0
H1090 H 0.74924 0.55546 0.20376 0.0
H1091 H 0.75314 0.52245 0.17778 0.0
C1092 C 0.46163 0.71618 0.17218 0.0
C1093 C 0.44984 0.69511 0.14765 0.0
C1094 C 0.50533 0.68291 0.13035 0.0
C1095 C 0.51731 0.70134 0.157 0.0
N1096 N 0.50658 0.73045 0.20695 0.0
N1097 N 0.45991 0.65427 0.10654 0.0
C1098 C 0.49542 0.71685 0.17886 0.0
C1099 C 0.47154 0.67729 0.12763 0.0
N1100 N 0.44057 0.73576 0.18881 0.0
N1101 N 0.52614 0.67177 0.10689 0.0
H1102 H 0.43529 0.64975 0.10316 0.0
H1103 H 0.47461 0.63769 0.09431 0.0
H1104 H 0.55087 0.6769 0.10674 0.0
H1105 H 0.51861 0.6604 0.08563 0.0
H1106 H 0.44798 0.75405 0.20473 0.0
H1107 H 0.41569 0.7355 0.18454 0.0
H1108 H 0.49142 0.7392 0.22526 0.0
H1109 H 0.53093 0.73037 0.2134 0.0
C1110 C 0.60599 0.39958 0.15267 0.0
C1111 C 0.63037 0.37532 0.15246 0.0
C1112 C 0.58877 0.33355 0.1441 0.0
C1113 C 0.5644 0.35757 0.14701 0.0
N1114 N 0.55051 0.41145 0.16633 0.0
N1115 N 0.64366 0.31857 0.15746 0.0
C1116 C 0.5732 0.38991 0.1554 0.0
C1117 C 0.62129 0.34203 0.15142 0.0
N1118 N 0.61331 0.43154 0.14751 0.0
N1119 N 0.58146 0.30335 0.13234 0.0
H1120 H 0.66747 0.3241 0.16392 0.0
H1121 H 0.63761 0.29406 0.15951 0.0
H1122 H 0.55824 0.29676 0.12505 0.0
H1123 H 0.59906 0.28608 0.12679 0.0
H1124 H 0.59552 0.44911 0.14449 0.0
H1125 H 0.63643 0.44018 0.14219 0.0
H1126 H 0.55658 0.43446 0.17523 0.0
H1127 H 0.52638 0.40504 0.1702 0.0
C1128 C 0.22904 0.54472 0.25105 0.0
C1129 C 0.22081 0.51084 0.24994 0.0
C1130 C 0.24086 0.5104 0.19333 0.0
C1131 C 0.25465 0.54242 0.19652 0.0
N1132 N 0.26554 0.58737 0.2329 0.0
N1133 N 0.22551 0.46042 0.22032 0.0
C1134 C 0.24962 0.5589 0.2266 0.0
C1135 C 0.22852 0.49345 0.22112 0.0
N1136 N 0.21615 0.56402 0.27485 0.0
N1137 N 0.23788 0.49635 0.16344 0.0
H1138 H 0.21753 0.44696 0.24008 0.0
H1139 H 0.23418 0.44624 0.20113 0.0
H1140 H 0.24368 0.50831 0.14208 0.0
H1141 H 0.22554 0.47451 0.15958 0.0
H1142 H 0.21879 0.58921 0.27518 0.0
H1143 H 0.19958 0.55543 0.29191 0.0
H1144 H 0.26525 0.59859 0.2556 0.0
H1145 H 0.28175 0.59798 0.21672 0.0
C1146 C 0.55233 0.21923 0.26307 0.0
C1147 C 0.54155 0.18623 0.26255 0.0
C1148 C 0.50369 0.20073 0.2179 0.0
C1149 C 0.51409 0.23363 0.21889 0.0
N1150 N 0.54386 0.27543 0.24673 0.0
N1151 N 0.502 0.1475 0.24218 0.0
C1152 C 0.53726 0.24308 0.2427 0.0
C1153 C 0.5156 0.17777 0.24099 0.0
N1154 N 0.57678 0.22809 0.28341 0.0
N1155 N 0.48403 0.19056 0.1933 0.0
H1156 H 0.51245 0.12789 0.25377 0.0
H1157 H 0.47946 0.14212 0.23226 0.0
H1158 H 0.47417 0.20639 0.17653 0.0
H1159 H 0.47921 0.16621 0.18814 0.0
H1160 H 0.58909 0.25017 0.28216 0.0
H1161 H 0.58575 0.21269 0.30098 0.0
H1162 H 0.55798 0.28497 0.2653 0.0
H1163 H 0.53261 0.29328 0.23307 0.0
C1164 C 0.86407 0.53261 0.16638 0.0
C1165 C 0.83569 0.51474 0.17534 0.0
C1166 C 0.84653 0.52963 0.23267 0.0
C1167 C 0.87356 0.54933 0.22324 0.0
N1168 N 0.90545 0.57264 0.1805 0.0
N1169 N 0.79977 0.49633 0.21737 0.0
C1170 C 0.88139 0.55177 0.18987 0.0
C1171 C 0.82706 0.51309 0.20869 0.0
N1172 N 0.87556 0.52971 0.1354 0.0
N1173 N 0.83957 0.52681 0.26488 0.0
H1174 H 0.78657 0.48235 0.20091 0.0
H1175 H 0.78953 0.4968 0.24042 0.0
H1176 H 0.8511 0.541 0.28241 0.0
H1177 H 0.82302 0.51029 0.27443 0.0
H1178 H 0.89757 0.53934 0.12752 0.0
H1179 H 0.86465 0.51453 0.11829 0.0
H1180 H 0.91034 0.57844 0.15649 0.0
H1181 H 0.91882 0.58646 0.19699 0.0
C1182 C 0.55741 0.85012 0.22073 0.0
C1183 C 0.54058 0.83819 0.19319 0.0
C1184 C 0.49282 0.87088 0.21092 0.0
C1185 C 0.51026 0.88424 0.23761 0.0
N1186 N 0.56391 0.89446 0.25905 0.0
N1187 N 0.49549 0.84635 0.15739 0.0
C1188 C 0.54396 0.87616 0.23987 0.0
C1189 C 0.50931 0.85145 0.18694 0.0
N1190 N 0.58564 0.83587 0.22978 0.0
N1191 N 0.46018 0.87525 0.20873 0.0
H1192 H 0.50709 0.83362 0.13879 0.0
H1193 H 0.47442 0.85794 0.15011 0.0
H1194 H 0.4468 0.88917 0.22502 0.0
H1195 H 0.44582 0.86259 0.19219 0.0
H1196 H 0.59701 0.84116 0.25165 0.0
H1197 H 0.59608 0.81674 0.21689 0.0
H1198 H 0.58894 0.89135 0.25944 0.0
H1199 H 0.55632 0.91551 0.27099 0.0
C1200 C 0.185 0.53431 0.87884 0.0
C1201 C 0.19375 0.53747 0.84557 0.0
C1202 C 0.24197 0.50303 0.85595 0.0
C1203 C 0.23327 0.50018 0.88905 0.0
N1204 N 0.19025 0.50303 0.92827 0.0
N1205 N 0.22428 0.51373 0.80122 0.0
C1206 C 0.20271 0.51259 0.89921 0.0
C1207 C 0.2204 0.51848 0.83378 0.0
N1208 N 0.16115 0.55332 0.89177 0.0
N1209 N 0.27114 0.4913 0.84563 0.0
H1210 H 0.20783 0.52232 0.78435 0.0
H1211 H 0.24139 0.49799 0.79125 0.0
H1212 H 0.28612 0.47781 0.86059 0.0
H1213 H 0.28093 0.4962 0.82287 0.0
H1214 H 0.15618 0.55453 0.9165 0.0
H1215 H 0.14826 0.57004 0.87827 0.0
H1216 H 0.16693 0.50882 0.93612 0.0
H1217 H 0.20229 0.48651 0.94288 0.0
C1218 C 0.53704 0.17889 0.83148 0.0
C1219 C 0.50501 0.18701 0.82134 0.0
C1220 C 0.5094 0.23694 0.85444 0.0
C1221 C 0.54304 0.23212 0.85992 0.0
N1222 N 0.58986 0.19888 0.84901 0.0
N1223 N 0.46717 0.23126 0.81504 0.0
C1224 C 0.5572 0.2031 0.84721 0.0
C1225 C 0.49303 0.21815 0.83054 0.0
N1226 N 0.54801 0.14793 0.82736 0.0
N1227 N 0.49241 0.2589 0.87272 0.0
H1228 H 0.4571 0.22084 0.79434 0.0
H1229 H 0.4591 0.25481 0.81979 0.0
H1230 H 0.50241 0.27104 0.89256 0.0
H1231 H 0.46739 0.26154 0.87079 0.0
H1232 H 0.56984 0.13993 0.83683 0.0
H1233 H 0.53384 0.12937 0.81752 0.0
H1234 H 0.60191 0.17984 0.83742 0.0
H1235 H 0.60522 0.21594 0.8597 0.0
C1236 C 0.81396 0.5161 0.85585 0.0
C1237 C 0.7923 0.54219 0.84988 0.0
C1238 C 0.80661 0.53663 0.79183 0.0
C1239 C 0.82234 0.50619 0.79731 0.0
N1240 N 0.83726 0.46565 0.83622 0.0
N1241 N 0.76738 0.57668 0.81073 0.0
C1242 C 0.82529 0.49574 0.82985 0.0
C1243 C 0.78865 0.55247 0.81744 0.0
N1244 N 0.82458 0.51138 0.88662 0.0
N1245 N 0.81008 0.55138 0.76253 0.0
H1246 H 0.75498 0.58948 0.82879 0.0
H1247 H 0.76065 0.58261 0.78728 0.0
H1248 H 0.82467 0.54201 0.74402 0.0
H1249 H 0.80175 0.57472 0.75797 0.0
H1250 H 0.8423 0.49452 0.8924 0.0
H1251 H 0.81857 0.52729 0.9055 0.0
H1252 H 0.83679 0.45559 0.85926 0.0
H1253 H 0.84466 0.44945 0.81817 0.0
C1254 C 0.48037 0.87352 0.85336 0.0
C1255 C 0.49704 0.84427 0.86062 0.0
C1256 C 0.54262 0.86307 0.82498 0.0
C1257 C 0.52698 0.89332 0.81962 0.0
N1258 N 0.48198 0.9284 0.83123 0.0
N1259 N 0.54487 0.81157 0.85346 0.0
C1260 C 0.49599 0.8986 0.83439 0.0
C1261 C 0.52844 0.83936 0.84646 0.0
N1262 N 0.44942 0.87735 0.86459 0.0
N1263 N 0.57039 0.85617 0.80809 0.0
H1264 H 0.5342 0.79199 0.86538 0.0
H1265 H 0.56934 0.80812 0.8484 0.0
H1266 H 0.58195 0.87289 0.79308 0.0
H1267 H 0.5811 0.83337 0.80722 0.0
H1268 H 0.43426 0.89613 0.85774 0.0
H1269 H 0.43788 0.8603 0.87923 0.0
H1270 H 0.4611 0.93563 0.84345 0.0
H1271 H 0.49282 0.94716 0.81816 0.0
C1272 C 0.1765 0.22938 0.53599 0.0
C1273 C 0.15164 0.24412 0.51742 0.0
C1274 C 0.17671 0.2193 0.46781 0.0
C1275 C 0.20096 0.20405 0.48652 0.0
N1276 N 0.21839 0.18814 0.53945 0.0
N1277 N 0.1243 0.24624 0.46623 0.0
C1278 C 0.19892 0.20708 0.52092 0.0
C1279 C 0.15067 0.23685 0.4835 0.0
N1280 N 0.18044 0.23827 0.56765 0.0
N1281 N 0.17933 0.21843 0.43487 0.0
H1282 H 0.10465 0.25812 0.47694 0.0
H1283 H 0.12037 0.23941 0.44226 0.0
H1284 H 0.19735 0.20532 0.42279 0.0
H1285 H 0.16506 0.2323 0.41967 0.0
H1286 H 0.2005 0.23179 0.58122 0.0
H1287 H 0.16517 0.25438 0.57978 0.0
H1288 H 0.21608 0.1865 0.56449 0.0
H1289 H 0.23464 0.17144 0.52944 0.0
C1290 C 0.82913 0.24868 0.56143 0.0
C1291 C 0.83632 0.21515 0.56421 0.0
C1292 C 0.88817 0.22534 0.53407 0.0
C1293 C 0.88159 0.25923 0.53202 0.0
N1294 N 0.84712 0.30348 0.54963 0.0
N1295 N 0.87702 0.17391 0.5609 0.0
C1296 C 0.85258 0.27088 0.54767 0.0
C1297 C 0.86707 0.20424 0.55252 0.0
N1298 N 0.7991 0.25931 0.57052 0.0
N1299 N 0.9149 0.21308 0.51875 0.0
H1300 H 0.86338 0.15924 0.57637 0.0
H1301 H 0.90004 0.16488 0.55597 0.0
H1302 H 0.93203 0.22762 0.50712 0.0
H1303 H 0.91908 0.18831 0.5158 0.0
H1304 H 0.79029 0.28226 0.56509 0.0
H1305 H 0.78211 0.24439 0.5819 0.0
H1306 H 0.82981 0.31374 0.565 0.0
H1307 H 0.8609 0.32053 0.53718 0.0
C1308 C 0.88958 0.82789 0.51753 0.0
C1309 C 0.88563 0.81387 0.54915 0.0
C1310 C 0.83604 0.84724 0.55483 0.0
C1311 C 0.83681 0.85595 0.52144 0.0
N1312 N 0.86284 0.84829 0.46964 0.0
N1313 N 0.84842 0.80578 0.59381 0.0
C1314 C 0.86317 0.84448 0.50241 0.0
C1315 C 0.85707 0.82247 0.56674 0.0
N1316 N 0.91899 0.82721 0.50223 0.0
N1317 N 0.81588 0.86329 0.57576 0.0
H1318 H 0.86072 0.78528 0.60129 0.0
H1319 H 0.82655 0.80955 0.60602 0.0
H1320 H 0.80158 0.88277 0.56873 0.0
H1321 H 0.8166 0.85993 0.60072 0.0
H1322 H 0.92347 0.83919 0.48054 0.0
H1323 H 0.94002 0.81893 0.51305 0.0
H1324 H 0.87967 0.83722 0.45425 0.0
H1325 H 0.844 0.85972 0.45765 0.0
C1326 C 0.2005 0.85326 0.50121 0.0
C1327 C 0.18843 0.82564 0.5182 0.0
C1328 C 0.22449 0.84151 0.56394 0.0
C1329 C 0.23452 0.87035 0.54801 0.0
N1330 N 0.22137 0.90827 0.50588 0.0
N1331 N 0.18053 0.80332 0.57187 0.0
C1332 C 0.21923 0.87757 0.51799 0.0
C1333 C 0.19795 0.82265 0.55138 0.0
N1334 N 0.19553 0.85621 0.46877 0.0
N1335 N 0.24081 0.83101 0.59036 0.0
H1336 H 0.1587 0.79235 0.56537 0.0
H1337 H 0.18519 0.80224 0.5966 0.0
H1338 H 0.2609 0.84319 0.59951 0.0
H1339 H 0.23633 0.8085 0.60093 0.0
H1340 H 0.20684 0.8741 0.45496 0.0
H1341 H 0.1831 0.83912 0.45495 0.0
H1342 H 0.2085 0.91563 0.48564 0.0
H1343 H 0.23244 0.92737 0.51843 0.0
C1344 C 0.04716 0.56535 0.30146 0.0
C1345 C 1.0229 0.55638 0.27956 0.0
C1346 C 0.0461 0.50215 0.27503 0.0
C1347 C 0.06661 0.50998 0.30157 0.0
N1348 N 0.0771 0.54692 0.34686 0.0
N1349 N 0.99778 0.51633 0.24518 0.0
C1350 C 0.06458 0.54092 0.31687 0.0
C1351 C 1.02224 0.52491 0.26565 0.0
N1352 N 0.05212 0.59734 0.30877 0.0
N1353 N 0.0486 0.47272 0.2597 0.0
H1354 H 0.98113 0.53316 0.23675 0.0
H1355 H 0.9934 0.49258 0.23748 0.0
H1356 H 0.06301 0.454 0.26826 0.0
H1357 H 0.03699 0.46721 0.23804 0.0
H1358 H 0.07113 0.60554 0.32324 0.0
H1359 H 0.03917 0.61543 0.29712 0.0
H1360 H 0.07354 0.56884 0.35918 0.0
H1361 H 0.08725 0.52941 0.36147 0.0
C1362 C 0.52148 0.05422 0.21516 0.0
C1363 C 0.5194 1.02134 0.22392 0.0
C1364 C 0.57697 1.01976 0.2348 0.0
C1365 C 0.57683 0.05393 0.23451 0.0
N1366 N 0.55651 0.10177 0.20954 0.0
N1367 N 0.54652 0.97004 0.22474 0.0
C1368 C 0.55174 0.07039 0.21863 0.0
C1369 C 0.54799 1.00303 0.22702 0.0
N1370 N 0.49415 0.06987 0.20589 0.0
N1371 N 0.60362 1.00404 0.24584 0.0
H1372 H 0.52491 0.95804 0.21919 0.0
H1373 H 0.56691 0.95529 0.22516 0.0
H1374 H 0.62486 1.01678 0.25135 0.0
H1375 H 0.60433 0.97917 0.25011 0.0
H1376 H 0.49338 0.09439 0.20019 0.0
H1377 H 0.47216 0.0574 0.2036 0.0
H1378 H 0.53974 0.115 0.19648 0.0
H1379 H 0.57874 0.1134 0.21325 0.0
C1380 C 1.0069 0.48965 0.72529 0.0
C1381 C 0.97892 0.50053 0.74206 0.0
C1382 C 1.011 0.53977 0.77255 0.0
C1383 C 0.03955 0.52582 0.75915 0.0
N1384 N 0.06505 0.48436 0.72613 0.0
N1385 N 0.95411 0.533 0.78446 0.0
C1386 C 0.03764 0.49994 0.73635 0.0
C1387 C 0.98094 0.52439 0.76683 0.0
N1388 N 1.00425 0.46964 0.69884 0.0
N1389 N 1.01198 0.5692 0.78821 0.0
H1390 H 0.93088 0.52439 0.7795 0.0
H1391 H 0.95531 0.54722 0.80541 0.0
H1392 H 0.03289 0.58323 0.79053 0.0
H1393 H 0.99127 0.58181 0.79531 0.0
H1394 H 1.02368 0.46401 0.68362 0.0
H1395 H 0.98226 0.46045 0.69052 0.0
H1396 H 0.06482 0.46298 0.71246 0.0
H1397 H 0.08805 0.49105 0.7338 0.0
C1398 C 0.55874 1.03196 0.67212 0.0
C1399 C 0.53988 1.00574 0.68405 0.0
C1400 C 0.4911 0.03573 0.67294 0.0
C1401 C 0.51002 0.06416 0.67455 0.0
N1402 N 0.5609 0.09069 0.66597 0.0
N1403 N 0.48812 0.97923 0.68864 0.0
C1404 C 0.5437 0.06263 0.67 0.0
C1405 C 0.50589 1.00618 0.68126 0.0
N1406 N 0.59054 1.02771 0.66412 0.0
N1407 N 0.45918 0.03773 0.66534 0.0
H1408 H 0.4991 0.95759 0.69541 0.0
H1409 H 0.46293 0.97867 0.68874 0.0
H1410 H 0.44877 0.05994 0.6595 0.0
H1411 H 0.44444 1.01743 0.66169 0.0
H1412 H 0.60505 0.04593 0.65431 0.0
H1413 H 0.60135 1.00491 0.66406 0.0
H1414 H 0.58608 0.09185 0.66502 0.0
H1415 H 0.54922 0.11302 0.66394 0.0
C1416 C 0.25096 1.01844 0.53507 0.0
C1417 C 0.28382 1.01191 0.5433 0.0
C1418 C 0.30145 1.02921 0.49052 0.0
C1419 C 0.2705 0.04153 0.48389 0.0
N1420 N 0.21381 0.04362 0.49715 0.0
N1421 N 0.3397 1.02742 0.53213 0.0
C1422 C 0.24437 0.03442 0.50518 0.0
C1423 C 0.30882 1.02203 0.52219 0.0
N1424 N 0.22646 1.01059 0.55595 0.0
N1425 N 0.32552 1.02823 0.46787 0.0
H1426 H 0.34653 1.02724 0.55639 0.0
H1427 H 0.34653 1.02724 0.55639 0.0
H1428 H 0.32158 1.03308 0.44345 0.0
H1429 H 0.32158 1.03308 0.44345 0.0
H1430 H 0.2021 1.01048 0.5497 0.0
H1431 H 0.23047 1.00526 0.58015 0.0
H1432 H 0.19409 0.04306 0.51296 0.0
H1433 H 0.20821 0.0513 0.4739 0.0
C1434 C 1.01951 0.39814 0.49133 0.0
C1435 C 0.99212 0.39174 0.51111 0.0
C1436 C 1.02563 0.39708 0.55865 0.0
C1437 C 0.05243 0.38943 0.53863 0.0
N1438 N 0.07815 0.39337 0.48697 0.0
N1439 N 0.96697 0.39416 0.56344 0.0
C1440 C 0.05052 0.39428 0.50512 0.0
C1441 C 0.9944 0.39511 0.54492 0.0
N1442 N 1.01557 0.40607 0.45967 0.0
N1443 N 1.0303 0.40457 0.59043 0.0
H1444 H 0.94414 0.39163 0.55302 0.0
H1445 H 0.96688 0.3953 0.58858 0.0
H1446 H 0.05359 0.40764 0.5996 0.0
H1447 H 1.0117 0.4111 0.6063 0.0
H1448 H 0.03466 0.41139 0.44398 0.0
H1449 H 0.99268 0.41045 0.45021 0.0
H1450 H 0.07865 0.39494 0.46186 0.0
H1451 H 0.10074 0.39089 0.49788 0.0
C1452 C 0.80677 1.00856 0.57395 0.0
C1453 C 0.80964 1.01121 0.53989 0.0
C1454 C 0.82264 0.06887 0.54566 0.0
C1455 C 0.81285 0.06717 0.57832 0.0
N1456 N 0.80542 0.03455 0.62587 0.0
N1457 N 0.82224 0.04343 0.49266 0.0
C1458 C 0.8086 0.03685 0.59323 0.0
C1459 C 0.81926 0.04101 0.52552 0.0
N1460 N 0.80117 0.97915 0.58801 0.0
N1461 N 0.83457 0.0975 0.5342 0.0
H1462 H 0.82006 1.02371 0.4769 0.0
H1463 H 0.82531 0.06534 0.48064 0.0
H1464 H 0.83746 0.11751 0.5495 0.0
H1465 H 0.84447 0.10046 0.51117 0.0
H1466 H 0.79791 0.97665 0.61294 0.0
H1467 H 0.80058 0.95743 0.57477 0.0
H1468 H 0.80763 0.05454 0.64145 0.0
H1469 H 0.80763 0.05454 0.64145 0.0
C1470 C 0.05358 0.83475 0.57911 0.0
C1471 C 1.01949 0.83473 0.57866 0.0
C1472 C 1.01947 0.85276 0.52292 0.0
C1473 C 0.05245 0.84452 0.52138 0.0
N1474 N 0.10335 0.84457 0.54873 0.0
N1475 N 0.97151 0.8584 0.55718 0.0
C1476 C 0.07044 0.84236 0.55016 0.0
C1477 C 1.00305 0.84969 0.55302 0.0
N1478 N 0.06915 0.82447 0.60608 0.0
N1479 N 1.00382 0.86035 0.49513 0.0
H1480 H 0.95962 0.85509 0.57931 0.0
H1481 H 0.95839 0.87099 0.53997 0.0
H1482 H 1.01646 0.86234 0.47323 0.0
H1483 H 0.97903 0.86445 0.49383 0.0
H1484 H 0.09403 0.82071 0.60716 0.0
H1485 H 0.05634 0.8192 0.62732 0.0
H1486 H 0.11812 0.84409 0.56903 0.0
H1487 H 0.1153 0.84969 0.527 0.0
C1488 C 0.52309 0.24234 1.00796 0.0
C1489 C 0.55678 0.24509 1.01342 0.0
C1490 C 0.54795 0.23866 0.07122 0.0
C1491 C 0.51485 0.24523 0.06621 0.0
N1492 N 0.46903 0.24766 1.03108 0.0
N1493 N 0.60244 0.24148 0.04876 0.0
C1494 C 0.50167 0.24432 0.03484 0.0
C1495 C 0.56968 0.24086 0.0446 0.0
N1496 N 0.51201 0.23943 0.97701 0.0
N1497 N 0.55828 0.23143 0.10156 0.0
H1498 H 0.61851 0.24218 1.02914 0.0
H1499 H 0.6135 0.24223 0.07131 0.0
H1500 H 0.54202 0.22941 0.12091 0.0
H1501 H 0.58191 0.22472 0.10684 0.0
H1502 H 0.48779 0.23585 0.97114 0.0
H1503 H 0.52783 0.23805 0.9572 0.0
H1504 H 0.45785 0.25083 1.00887 0.0
H1505 H 0.45316 0.24779 0.05088 0.0
C1506 C 0.4891 0.81128 1.0248 0.0
C1507 C 0.47418 0.78242 1.01328 0.0
C1508 C 0.50561 0.74972 0.04883 0.0
C1509 C 0.52005 0.77794 0.06203 0.0
N1510 N 0.51943 0.83656 0.06831 0.0
N1511 N 0.45757 0.7275 1.02542 0.0
C1512 C 0.50988 0.80922 0.05198 0.0
C1513 C 0.47807 0.75314 1.03012 0.0
N1514 N 0.48475 0.83999 1.00927 0.0
N1515 N 0.52017 0.72009 0.0505 0.0
H1516 H 0.43782 0.72896 1.01009 0.0
H1517 H 0.45899 0.70624 0.03889 0.0
H1518 H 0.5436 0.71716 0.05909 0.0
H1519 H 0.51105 0.69952 0.0387 0.0
H1520 H 0.49855 0.86071 1.01409 0.0
H1521 H 0.46777 0.84285 0.99104 0.0
H1522 H 0.51017 0.8595 0.06354 0.0
H1523 H 0.53431 0.83605 0.0885 0.0
C1524 C 0.2218 0.5453 1.0125 0.0
C1525 C 0.22499 0.5134 1.02476 0.0
C1526 C 0.20692 0.53313 0.07745 0.0
C1527 C 0.21557 0.56449 0.06733 0.0
N1528 N 0.21531 0.60211 1.02355 0.0
N1529 N 0.21296 0.47525 0.06712 0.0
C1530 C 0.21584 0.57103 0.03421 0.0
C1531 C 0.2139 0.50648 0.05649 0.0
N1532 N 0.22682 0.55143 0.9806 0.0
N1533 N 0.19441 0.52937 0.10772 0.0
H1534 H 0.21746 0.45559 0.05167 0.0
H1535 H 0.20818 0.46903 0.09105 0.0
H1536 H 0.19104 0.54948 0.12298 0.0
H1537 H 0.18571 0.50732 0.11647 0.0
H1538 H 0.22554 0.57475 0.97098 0.0
H1539 H 0.23138 0.53277 0.9642 0.0
H1540 H 0.21235 0.62191 0.03927 0.0
H1541 H 0.21235 0.62191 0.03927 0.0
C1542 C 0.81034 0.50179 0.97923 0.0
C1543 C 0.81051 0.53611 0.98466 0.0
C1544 C 0.84989 0.52824 1.0278 0.0
C1545 C 0.84118 0.49527 1.02781 0.0
N1546 N 0.82788 0.44914 0.99464 0.0
N1547 N 0.83503 0.58262 1.01175 0.0
C1548 C 0.82806 0.48179 0.99965 0.0
C1549 C 0.83263 0.54976 1.00749 0.0
N1550 N 0.79235 0.48696 0.95596 0.0
N1551 N 0.87283 0.53856 0.04907 0.0
H1552 H 0.82257 0.59923 0.99779 0.0
H1553 H 0.84849 0.59357 1.03007 0.0
H1554 H 0.88445 0.52194 0.06393 0.0
H1555 H 0.88192 0.56217 0.05007 0.0
H1556 H 0.77765 0.49925 0.93994 0.0
H1557 H 0.77765 0.49925 0.93994 0.0
H1558 H 0.83972 0.43319 1.00999 0.0
H1559 H 0.83972 0.43319 1.00999 0.0
C1560 C 0.32459 0.32703 0.42622 0.0
C1561 C 0.31365 0.2975 0.4123 0.0
C1562 C 0.26973 0.32477 0.38498 0.0
C1563 C 0.2836 0.3547 0.39504 0.0
N1564 N 0.31597 0.38509 0.43273 0.0
N1565 N 0.27039 0.26602 0.38877 0.0
C1566 C 0.30809 0.35599 0.41868 0.0
C1567 C 0.28399 0.29562 0.39552 0.0
N1568 N 0.35179 0.32728 0.44483 0.0
N1569 N 0.24484 0.32438 0.36335 0.0
H1570 H 0.2809 0.24427 0.39583 0.0
H1571 H 0.24748 0.26301 0.37883 0.0
H1572 H 0.23326 0.34542 0.35588 0.0
H1573 H 0.23634 0.30345 0.35186 0.0
H1574 H 0.36324 0.34831 0.45306 0.0
H1575 H 0.36334 0.3059 0.45153 0.0
H1576 H 0.33248 0.38774 0.45147 0.0
H1577 H 0.30377 0.40645 0.42713 0.0
C1578 C 0.76798 0.23019 0.34821 0.0
C1579 C 0.76382 0.20482 0.32535 0.0
C1580 C 0.82207 0.19525 0.32447 0.0
C1581 C 0.82644 0.22566 0.34004 0.0
N1582 N 0.80395 0.27168 0.3691 0.0
N1583 N 0.78519 0.15962 0.29514 0.0
C1584 C 0.79958 0.24246 0.35372 0.0
C1585 C 0.79037 0.18563 0.31519 0.0
N1586 N 0.74158 0.24333 0.36341 0.0
N1587 N 0.84852 0.17663 0.31753 0.0
H1588 H 0.76189 0.15171 0.2892 0.0
H1589 H 0.80361 0.14644 0.28393 0.0
H1590 H 0.87181 0.18388 0.32431 0.0
H1591 H 0.84724 0.15333 0.30765 0.0
H1592 H 0.74316 0.26005 0.38239 0.0
H1593 H 0.71808 0.23503 0.35921 0.0
H1594 H 0.78507 0.2872 0.37539 0.0
H1595 H 0.82663 0.28138 0.3744 0.0
C1596 C 0.7891 0.71939 0.40705 0.0
C1597 C 0.81631 0.72221 0.38633 0.0
C1598 C 0.81613 0.78115 0.39313 0.0
C1599 C 0.7846 0.77845 0.40641 0.0
N1600 N 0.74267 0.74642 0.43145 0.0
N1601 N 0.85994 0.75394 0.36423 0.0
C1602 C 0.772 0.74793 0.416 0.0
C1603 C 0.83173 0.7526 0.38164 0.0
N1604 N 0.77918 0.68931 0.41676 0.0
N1605 N 0.83022 0.81111 0.3906 0.0
H1606 H 0.87206 0.73296 0.35672 0.0
H1607 H 0.87109 0.77539 0.3569 0.0
H1608 H 0.8187 0.83209 0.39903 0.0
H1609 H 0.85386 0.81502 0.38262 0.0
H1610 H 0.7605 0.68526 0.43327 0.0
H1611 H 0.79171 0.66832 0.41003 0.0
H1612 H 0.73021 0.72494 0.43614 0.0
H1613 H 0.73039 0.76723 0.43912 0.0
C1614 C 0.266 0.85178 0.36058 0.0
C1615 C 0.26808 0.82223 0.37764 0.0
C1616 C 0.32709 0.82442 0.37562 0.0
C1617 C 0.32467 0.85046 0.35368 0.0
N1618 N 0.2948 0.8958 0.33367 0.0
N1619 N 0.29885 0.78601 0.41045 0.0
C1620 C 0.29499 0.86677 0.3494 0.0
C1621 C 0.29824 0.81075 0.38867 0.0
N1622 N 0.23622 0.86394 0.35341 0.0
N1623 N 0.35686 0.81179 0.38207 0.0
H1624 H 0.27767 0.77588 0.42 0.0
H1625 H 0.31984 0.77702 0.42072 0.0
H1626 H 0.3782 0.82251 0.37353 0.0
H1627 H 0.36064 0.79093 0.39549 0.0
H1628 H 0.23243 0.88365 0.33838 0.0
H1629 H 0.2149 0.85369 0.36255 0.0
H1630 H 0.27431 0.91003 0.33085 0.0
H1631 H 0.31607 0.90685 0.3254 0.0
C1632 C 0.23327 0.76799 0.72151 0.0
C1633 C 0.23376 0.73601 0.70884 0.0
C1634 C 0.26798 0.75374 0.66396 0.0
C1635 C 0.27456 0.78244 0.68171 0.0
N1636 N 0.26067 0.82026 0.72418 0.0
N1637 N 0.24765 0.6985 0.66583 0.0
C1638 C 0.25556 0.79108 0.70905 0.0
C1639 C 0.249 0.72915 0.6787 0.0
N1640 N 0.21252 0.77533 0.74635 0.0
N1641 N 0.28103 0.74983 0.63373 0.0
H1642 H 0.23323 0.68017 0.67562 0.0
H1643 H 0.26154 0.69087 0.6461 0.0
H1644 H 0.29524 0.76784 0.62295 0.0
H1645 H 0.27544 0.73045 0.61839 0.0
H1646 H 0.20949 0.79863 0.75583 0.0
H1647 H 0.19629 0.75813 0.75554 0.0
H1648 H 0.25023 0.82677 0.74627 0.0
H1649 H 0.27627 0.83785 0.71469 0.0
C1650 C 0.28246 0.23866 0.70528 0.0
C1651 C 0.28588 0.21289 0.72756 0.0
C1652 C 0.22736 0.20441 0.72898 0.0
C1653 C 0.22393 0.23264 0.71011 0.0
N1654 N 0.2467 0.26829 0.67004 0.0
N1655 N 0.26384 0.165 0.75241 0.0
C1656 C 0.25108 0.24656 0.69435 0.0
C1657 C 0.25895 0.19338 0.73636 0.0
N1658 N 0.30864 0.25728 0.69678 0.0
N1659 N 0.20032 0.18986 0.7415 0.0
H1660 H 0.28701 0.15675 0.75788 0.0
H1661 H 0.24546 0.14854 0.75797 0.0
H1662 H 0.17708 0.19723 0.7351 0.0
H1663 H 0.20078 0.17132 0.75843 0.0
H1664 H 0.30689 0.27887 0.68402 0.0
H1665 H 0.33218 0.25232 0.70405 0.0
H1666 H 0.26553 0.27728 0.65576 0.0
H1667 H 0.22383 0.27471 0.66189 0.0
C1668 C 0.82631 0.27417 0.75067 0.0
C1669 C 0.82583 0.24913 0.72657 0.0
C1670 C 0.84476 0.28752 0.6859 0.0
C1671 C 0.83755 0.31283 0.70798 0.0
N1672 N 0.84006 0.33051 0.76308 0.0
N1673 N 0.85171 0.22925 0.67824 0.0
C1674 C 0.83587 0.30587 0.74124 0.0
C1675 C 0.84244 0.25498 0.69698 0.0
N1676 N 0.81476 0.26898 0.78119 0.0
N1677 N 0.85053 0.29444 0.65419 0.0
H1678 H 0.84828 0.20545 0.68619 0.0
H1679 H 0.86469 0.23168 0.65667 0.0
H1680 H 0.85252 0.31831 0.64614 0.0
H1681 H 0.85248 0.27673 0.63612 0.0
H1682 H 0.80965 0.28771 0.79752 0.0
H1683 H 0.81046 0.24611 0.79054 0.0
H1684 H 0.84088 0.32699 0.78799 0.0
H1685 H 0.84569 0.35403 0.75547 0.0
C1686 C 0.77227 0.85158 0.73032 0.0
C1687 C 0.77579 0.87356 0.75669 0.0
C1688 C 0.83468 0.87025 0.7521 0.0
C1689 C 0.83072 0.84313 0.73126 0.0
N1690 N 0.79633 0.80794 0.69914 0.0
N1691 N 0.80921 0.90738 0.79051 0.0
C1692 C 0.79978 0.83445 0.71907 0.0
C1693 C 0.80678 0.88456 0.76644 0.0
N1694 N 0.74252 0.84615 0.71694 0.0
N1695 N 0.86516 0.88142 0.75861 0.0
H1696 H 0.78893 0.91909 0.8002 0.0
H1697 H 0.83089 0.91418 0.80136 0.0
H1698 H 0.8857 0.87094 0.74805 0.0
H1699 H 0.87003 0.90228 0.77215 0.0
H1700 H 0.73905 0.83303 0.69559 0.0
H1701 H 0.72137 0.85705 0.72535 0.0
H1702 H 0.77409 0.79749 0.69335 0.0
H1703 H 0.81578 0.79494 0.68959 0.0
C1704 C 0.44056 0.2891 0.32572 0.0
C1705 C 0.4224 0.28859 0.29682 0.0
C1706 C 0.39001 0.24308 0.31693 0.0
C1707 C 0.40235 0.24957 0.3481 0.0
N1708 N 0.44332 0.27266 0.3821 0.0
N1709 N 0.38415 0.262 0.26173 0.0
C1710 C 0.42971 0.26998 0.35219 0.0
C1711 C 0.39903 0.26389 0.2911 0.0
N1712 N 0.46722 0.30875 0.32791 0.0
N1713 N 0.36864 0.21801 0.31284 0.0
H1714 H 0.39127 0.2764 0.24225 0.0
H1715 H 0.36463 0.24678 0.25666 0.0
H1716 H 0.36201 0.20292 0.33197 0.0
H1717 H 0.35954 0.21058 0.29055 0.0
H1718 H 0.48261 0.3095 0.3477 0.0
H1719 H 0.47522 0.32286 0.30855 0.0
H1720 H 0.46147 0.2892 0.38813 0.0
H1721 H 0.43583 0.25799 0.40126 0.0
C1722 C 0.86647 0.30728 0.20966 0.0
C1723 C 0.84584 0.33406 0.21544 0.0
C1724 C 0.85726 0.33306 0.27306 0.0
C1725 C 0.87546 0.30425 0.26784 0.0
N1726 N 0.90518 0.26919 0.2317 0.0
N1727 N 0.83174 0.37985 0.24946 0.0
C1728 C 0.883 0.29334 0.23612 0.0
C1729 C 0.84522 0.34977 0.24602 0.0
N1730 N 0.86836 0.29422 0.17924 0.0
N1731 N 0.8489 0.34284 0.30374 0.0
H1732 H 0.82236 0.39276 0.2302 0.0
H1733 H 0.83285 0.39353 0.27073 0.0
H1734 H 0.85675 0.33142 0.3246 0.0
H1735 H 0.8321 0.361 0.30871 0.0
H1736 H 0.88003 0.27252 0.17364 0.0
H1737 H 0.85729 0.3052 0.15954 0.0
H1738 H 0.91334 0.26129 0.2091 0.0
H1739 H 0.91733 0.25879 0.25107 0.0
C1740 C 0.70892 0.83034 0.27856 0.0
C1741 C 0.68622 0.80452 0.27704 0.0
C1742 C 0.67639 0.80826 0.3352 0.0
C1743 C 0.70303 0.82993 0.33728 0.0
N1744 N 0.73785 0.86943 0.31236 0.0
N1745 N 0.64054 0.77666 0.30069 0.0
C1746 C 0.71669 0.84401 0.30922 0.0
C1747 C 0.66692 0.79649 0.30432 0.0
N1748 N 0.72427 0.83995 0.25084 0.0
N1749 N 0.66202 0.79725 0.36294 0.0
H1750 H 0.63341 0.76742 0.27831 0.0
H1751 H 0.62413 0.77144 0.31917 0.0
H1752 H 0.66785 0.80659 0.38573 0.0
H1753 H 0.64503 0.77854 0.36372 0.0
H1754 H 0.74328 0.85659 0.25006 0.0
H1755 H 0.7177 0.8307 0.22819 0.0
H1756 H 0.74802 0.88191 0.293 0.0
H1757 H 0.74355 0.87948 0.3349 0.0
C1758 C 0.21757 0.73131 0.25765 0.0
C1759 C 0.2431 0.70872 0.2598 0.0
C1760 C 0.23455 0.70497 0.31823 0.0
C1761 C 0.21534 0.73326 0.31672 0.0
N1762 N 0.18341 0.77037 0.28607 0.0
N1763 N 0.27315 0.66991 0.29048 0.0
C1764 C 0.20451 0.74495 0.2866 0.0
C1765 C 0.25 0.69346 0.28954 0.0
N1766 N 0.20709 0.74038 0.22784 0.0
N1767 N 0.23877 0.69009 0.34729 0.0
H1768 H 0.28396 0.66046 0.26957 0.0
H1769 H 0.28223 0.66027 0.31172 0.0
H1770 H 0.22778 0.69854 0.36853 0.0
H1771 H 0.25072 0.66811 0.35 0.0
H1772 H 0.18752 0.75565 0.22406 0.0
H1773 H 0.21679 0.7303 0.20662 0.0
H1774 H 0.1768 0.7825 0.26518 0.0
H1775 H 0.17279 0.77968 0.30717 0.0
C1776 C 0.39618 0.80045 0.73985 0.0
C1777 C 0.3908 0.78696 0.70877 0.0
C1778 C 0.41796 0.73707 0.72446 0.0
C1779 C 0.41521 0.7473 0.7571 0.0
N1780 N 0.40541 0.78974 0.79657 0.0
N1781 N 0.40109 0.74545 0.66893 0.0
C1782 C 0.40652 0.77975 0.76496 0.0
C1783 C 0.40398 0.75644 0.70005 0.0
N1784 N 0.39021 0.83261 0.74543 0.0
N1785 N 0.43282 0.70829 0.7174 0.0
H1786 H 0.39199 0.76008 0.65063 0.0
H1787 H 0.407 0.72205 0.66133 0.0
H1788 H 0.44305 0.6941 0.73543 0.0
H1789 H 0.43725 0.69982 0.69401 0.0
H1790 H 0.39612 0.84468 0.76684 0.0
H1791 H 0.38212 0.84801 0.72735 0.0
H1792 H 0.39532 0.81161 0.80429 0.0
H1793 H 0.4136 0.77553 0.81552 0.0
C1794 C 0.17162 0.30503 0.81211 0.0
C1795 C 0.18 0.31756 0.78136 0.0
C1796 C 0.21993 0.35411 0.80567 0.0
C1797 C 0.21441 0.33866 0.83581 0.0
N1798 N 0.17958 0.30744 0.87041 0.0
N1799 N 0.2034 0.36076 0.7499 0.0
C1800 C 0.18801 0.31702 0.83994 0.0
C1801 C 0.20092 0.34478 0.77864 0.0
N1802 N 0.14943 0.2804 0.81413 0.0
N1803 N 0.24511 0.37555 0.80229 0.0
H1804 H 0.1903 0.35384 0.7295 0.0
H1805 H 0.21593 0.38256 0.74702 0.0
H1806 H 0.25905 0.38365 0.82169 0.0
H1807 H 0.2532 0.38436 0.78013 0.0
H1808 H 0.14446 0.26754 0.83515 0.0
H1809 H 0.1363 0.27241 0.79406 0.0
H1810 H 0.15948 0.29305 0.8757 0.0
H1811 H 0.19159 0.31625 0.89086 0.0
C1812 C 0.75203 0.1997 0.80985 0.0
C1813 C 0.74047 0.18287 0.78237 0.0
C1814 C 0.68626 0.20183 0.79493 0.0
C1815 C 0.7005 0.22816 0.8122 0.0
N1816 N 0.74612 0.24836 0.84274 0.0
N1817 N 0.69444 0.15027 0.7677 0.0
C1818 C 0.73307 0.22552 0.82257 0.0
C1819 C 0.7067 0.17736 0.78223 0.0
N1820 N 0.78039 0.19058 0.82348 0.0
N1821 N 0.65403 0.20049 0.78866 0.0
H1822 H 0.70977 0.13267 0.7577 0.0
H1823 H 0.66957 0.14563 0.76678 0.0
H1824 H 0.63763 0.21797 0.79691 0.0
H1825 H 0.63763 0.21797 0.79691 0.0
H1826 H 0.7892 0.20085 0.84483 0.0
H1827 H 0.79321 0.17066 0.81432 0.0
H1828 H 0.77071 0.2492 0.84824 0.0
H1829 H 0.73223 0.26696 0.85301 0.0
C1830 C 0.8807 0.74627 0.80569 0.0
C1831 C 0.87123 0.74133 0.77317 0.0
C1832 C 0.82535 0.70799 0.79037 0.0
C1833 C 0.83243 0.7163 0.82297 0.0
N1834 N 0.87098 0.73427 0.86254 0.0
N1835 N 0.84348 0.70693 0.7346 0.0
C1836 C 0.86189 0.73209 0.8309 0.0
C1837 C 0.84686 0.71819 0.76558 0.0
N1838 N 0.90637 0.76628 0.81212 0.0
N1839 N 0.79671 0.69303 0.78275 0.0
H1840 H 0.85849 0.71414 0.71567 0.0
H1841 H 0.82814 0.68776 0.72833 0.0
H1842 H 0.78024 0.68468 0.80002 0.0
H1843 H 0.7882 0.69061 0.7592 0.0
H1844 H 0.91285 0.77399 0.83523 0.0
H1845 H 0.92092 0.77565 0.79361 0.0
H1846 H 0.893 0.74393 0.87015 0.0
H1847 H 0.85718 0.72391 0.88108 0.0
C1848 C 0.37799 0.41823 0.29411 0.0
C1849 C 0.37256 0.39413 0.27014 0.0
C1850 C 0.31431 0.40336 0.27324 0.0
C1851 C 0.31952 0.42041 0.30256 0.0
N1852 N 0.35442 0.45124 0.33734 0.0
N1853 N 0.33718 0.36756 0.23207 0.0
C1854 C 0.35093 0.43101 0.31122 0.0
C1855 C 0.34119 0.38861 0.2575 0.0
N1856 N 0.40897 0.42762 0.30102 0.0
N1857 N 0.28359 0.40026 0.2616 0.0
H1858 H 0.35672 0.35735 0.21956 0.0
H1859 H 0.31478 0.35966 0.22366 0.0
H1860 H 0.26379 0.41099 0.2732 0.0
H1861 H 0.27795 0.38963 0.23941 0.0
H1862 H 0.41495 0.44589 0.31748 0.0
H1863 H 0.42889 0.41824 0.28842 0.0
H1864 H 0.37655 0.45801 0.34724 0.0
H1865 H 0.33436 0.46125 0.34924 0.0
C1866 C 0.30201 0.64467 0.78021 0.0
C1867 C 0.27905 0.66681 0.79332 0.0
C1868 C 0.3193 0.68989 0.82961 0.0
C1869 C 0.34295 0.67097 0.81326 0.0
N1870 N 0.35639 0.62268 0.78351 0.0
N1871 N 0.26208 0.70154 0.83713 0.0
C1872 C 0.33391 0.64531 0.79242 0.0
C1873 C 0.28645 0.68613 0.82071 0.0
N1874 N 0.29414 0.62522 0.75444 0.0
N1875 N 0.32865 0.71302 0.85159 0.0
H1876 H 0.23785 0.69886 0.83047 0.0
H1877 H 0.2654 0.71445 0.85862 0.0
H1878 H 0.35254 0.71548 0.85927 0.0
H1879 H 0.31309 0.73026 0.86157 0.0
H1880 H 0.31097 0.61152 0.74144 0.0
H1881 H 0.27084 0.62376 0.74503 0.0
H1882 H 0.35096 0.60187 0.77008 0.0
H1883 H 0.37998 0.62344 0.79243 0.0
C1884 C 0.35785 0.27933 0.82073 0.0
C1885 C 0.34853 0.24633 0.82333 0.0
C1886 C 0.31674 0.25919 0.87192 0.0
C1887 C 0.319 0.29241 0.86376 0.0
N1888 N 0.34334 0.33514 0.83184 0.0
N1889 N 0.32472 0.20324 0.8542 0.0
C1890 C 0.34094 0.30292 0.83933 0.0
C1891 C 0.33041 0.23569 0.85049 0.0
N1892 N 0.3819 0.28818 0.79967 0.0
N1893 N 0.30053 0.2505 0.89944 0.0
H1894 H 0.33576 0.18593 0.8392 0.0
H1895 H 0.30902 0.19354 0.87142 0.0
H1896 H 0.29051 0.26781 0.91514 0.0
H1897 H 0.2991 0.22683 0.90795 0.0
H1898 H 0.39178 0.31148 0.79887 0.0
H1899 H 0.39443 0.27152 0.78532 0.0
H1900 H 0.35526 0.34377 0.81135 0.0
H1901 H 0.33199 0.35344 0.84517 0.0
C1902 C 0.6874 0.33404 0.73374 0.0
C1903 C 0.69378 0.33864 0.76713 0.0
C1904 C 0.73489 0.3794 0.75387 0.0
C1905 C 0.73437 0.36823 0.72139 0.0
N1906 N 0.70803 0.33876 0.67871 0.0
N1907 N 0.72362 0.36607 0.80963 0.0
C1908 C 0.70928 0.34736 0.71065 0.0
C1909 C 0.71681 0.3622 0.77749 0.0
N1910 N 0.66098 0.31626 0.72446 0.0
N1911 N 0.75378 0.40542 0.76227 0.0
H1912 H 0.71137 0.35379 0.82795 0.0
H1913 H 0.74302 0.37985 0.81817 0.0
H1914 H 0.76762 0.41822 0.74547 0.0
H1915 H 0.753 0.41643 0.78505 0.0
H1916 H 0.65371 0.31353 0.70053 0.0
H1917 H 0.64473 0.30643 0.74125 0.0
H1918 H 0.69288 0.32068 0.6695 0.0
H1919 H 0.72323 0.34949 0.6615 0.0
C1920 C 0.71236 0.77039 0.84186 0.0
C1921 C 0.73623 0.77082 0.86646 0.0
C1922 C 0.73069 0.82958 0.87259 0.0
C1923 C 0.71032 0.82943 0.8452 0.0
N1924 N 0.67105 0.80012 0.81342 0.0
N1925 N 0.76073 0.79809 0.91177 0.0
C1926 C 0.69715 0.79986 0.8335 0.0
C1927 C 0.7426 0.79961 0.88434 0.0
N1928 N 0.70628 0.74258 0.82454 0.0
N1929 N 0.74029 0.85868 0.88549 0.0
H1930 H 0.76953 0.77613 0.92046 0.0
H1931 H 0.76496 0.81782 0.92708 0.0
H1932 H 0.73066 0.88058 0.87751 0.0
H1933 H 0.75785 0.86124 0.90327 0.0
H1934 H 0.69235 0.74194 0.80365 0.0
H1935 H 0.71671 0.72027 0.82967 0.0
H1936 H 0.6586 0.77919 0.80638 0.0
H1937 H 0.6596 0.82144 0.80672 0.0
C1938 C 0.73393 0.67929 0.26005 0.0
C1939 C 0.74288 0.70607 0.24048 0.0
C1940 C 0.79942 0.70067 0.25594 0.0
C1941 C 0.7896 0.67718 0.27884 0.0
N1942 N 0.75179 0.63574 0.29484 0.0
N1943 N 0.78398 0.73511 0.21115 0.0
C1944 C 0.75827 0.66333 0.27782 0.0
C1945 C 0.77583 0.714 0.2352 0.0
N1946 N 0.70202 0.67103 0.26379 0.0
N1947 N 0.83074 0.71151 0.25575 0.0
H1948 H 0.76656 0.7449 0.19591 0.0
H1949 H 0.8077 0.74081 0.20462 0.0
H1950 H 0.84852 0.70098 0.27003 0.0
H1951 H 0.83898 0.7311 0.24219 0.0
H1952 H 0.69356 0.65453 0.28083 0.0
H1953 H 0.68357 0.68165 0.25057 0.0
H1954 H 0.73012 0.62281 0.2932 0.0
H1955 H 0.76943 0.62411 0.30837 0.0
C1956 C 0.33479 0.79343 0.20886 0.0
C1957 C 0.34217 0.76139 0.21835 0.0
C1958 C 0.38445 0.78163 0.25406 0.0
C1959 C 0.37226 0.81335 0.25016 0.0
N1960 N 0.3409 0.85135 0.22007 0.0
N1961 N 0.37846 0.72429 0.24461 0.0
C1962 C 0.34959 0.81993 0.22555 0.0
C1963 C 0.3689 0.75532 0.23859 0.0
N1964 N 0.31294 0.79806 0.18471 0.0
N1965 N 0.40953 0.77563 0.27428 0.0
H1966 H 0.36773 0.70406 0.23366 0.0
H1967 H 0.39764 0.71907 0.26 0.0
H1968 H 0.42228 0.79386 0.28654 0.0
H1969 H 0.42228 0.79386 0.28654 0.0
H1970 H 0.30681 0.82062 0.17557 0.0
H1971 H 0.30229 0.77859 0.17232 0.0
H1972 H 0.32258 0.85827 0.2045 0.0
H1973 H 0.35247 0.87084 0.23156 0.0
C1974 C 0.71559 0.30976 0.22543 0.0
C1975 C 0.73363 0.30065 0.19743 0.0
C1976 C 0.71844 0.24377 0.20481 0.0
C1977 C 0.70414 0.25243 0.23487 0.0
N1978 N 0.67846 0.29314 0.26809 0.0
N1979 N 0.74358 0.26214 0.15469 0.0
C1980 C 0.69872 0.28541 0.24294 0.0
C1981 C 0.73171 0.2686 0.18497 0.0
N1982 N 0.71691 0.34102 0.23681 0.0
N1983 N 0.72097 0.21171 0.19649 0.0
H1984 H 0.75328 0.28041 0.14011 0.0
H1985 H 0.74145 0.23969 0.14311 0.0
H1986 H 0.71016 0.19345 0.21029 0.0
H1987 H 0.73416 0.20318 0.17665 0.0
H1988 H 0.70791 0.34824 0.25932 0.0
H1989 H 0.72836 0.35976 0.22434 0.0
H1990 H 0.6713 0.31675 0.27364 0.0
H1991 H 0.6663 0.2755 0.28153 0.0
C1992 C 0.05939 0.34489 0.40952 0.0
C1993 C 1.03014 0.34748 0.39189 0.0
C1994 C 0.05996 0.37931 0.35017 0.0
C1995 C 0.08887 0.37841 0.36849 0.0
N1996 N 0.11837 0.34786 0.40773 0.0
N1997 N 1.00906 0.35261 0.33813 0.0
C1998 C 0.08924 0.35711 0.39571 0.0
C1999 C 0.03261 0.36004 0.35987 0.0
N2000 N 0.05875 0.33197 0.43977 0.0
N2001 N 0.05745 0.39978 0.32457 0.0
H2002 H 0.98948 0.33772 0.3441 0.0
H2003 H 1.01136 0.35784 0.31358 0.0
H2004 H 0.07657 0.41408 0.31627 0.0
H2005 H 0.03555 0.40396 0.31294 0.0
H2006 H 0.07876 0.33201 0.45498 0.0
H2007 H 0.03767 0.3226 0.45019 0.0
H2008 H 0.12076 0.33047 0.4257 0.0
H2009 H 0.14018 0.35535 0.39715 0.0
C2010 C 0.70068 0.03561 0.43225 0.0
C2011 C 0.71731 1.00992 0.41629 0.0
C2012 C 0.6995 0.03402 0.36418 0.0
C2013 C 0.67834 0.05604 0.38092 0.0
N2014 N 0.65213 0.06769 0.43229 0.0
N2015 N 0.72924 0.98287 0.36581 0.0
C2016 C 0.67726 0.05412 0.41537 0.0
C2017 C 0.71597 1.00872 0.3818 0.0
N2018 N 0.70659 0.04183 0.46417 0.0
N2019 N 0.70467 0.03754 0.33179 0.0
H2020 H 0.74196 0.96482 0.37778 0.0
H2021 H 0.72595 0.97851 0.34118 0.0
H2022 H 0.69386 0.05582 0.31845 0.0
H2023 H 0.72189 1.02419 0.31889 0.0
H2024 H 0.69688 0.06184 0.47642 0.0
H2025 H 0.72397 1.02906 0.47708 0.0
H2026 H 0.64906 0.06476 0.45716 0.0
H2027 H 0.63205 0.07774 0.42106 0.0
C2028 C 1.02154 0.6925 0.33967 0.0
C2029 C 0.99052 0.68663 0.35361 0.0
C2030 C 1.00704 0.71918 0.40194 0.0
C2031 C 0.03895 0.72306 0.38915 0.0
N2032 N 0.07393 0.7204 0.34249 0.0
N2033 N 0.95076 0.7035 0.3928 0.0
C2034 C 0.04519 0.71199 0.3568 0.0
C2035 C 0.98242 0.70322 0.383 0.0
N2036 N 1.02874 0.67839 0.31054 0.0
N2037 N 1.00071 0.72861 0.43311 0.0
H2038 H 0.93249 0.69245 0.37916 0.0
H2039 H 0.94218 0.71719 0.41232 0.0
H2040 H 1.01758 0.74084 0.44742 0.0
H2041 H 0.97945 0.72268 0.44547 0.0
H2042 H 0.05178 0.67807 0.30019 0.0
H2043 H 1.01124 0.66621 0.29692 0.0
H2044 H 0.07981 0.71538 0.31845 0.0
H2045 H 0.09107 0.73496 0.35418 0.0
C2046 C 0.34508 1.02476 0.34199 0.0
C2047 C 0.37605 0.03463 0.33001 0.0
C2048 C 0.36044 0.0916 0.34229 0.0
C2049 C 0.33333 0.0809 0.36081 0.0
N2050 N 0.29817 0.0372 0.37614 0.0
N2051 N 0.41264 0.07841 0.31753 0.0
C2052 C 0.32476 0.04747 0.35921 0.0
C2053 C 0.38319 0.06848 0.32904 0.0
N2054 N 0.33539 0.99334 0.33714 0.0
N2055 N 0.36467 0.12418 0.33822 0.0
H2056 H 0.42916 0.06229 0.30705 0.0
H2057 H 0.42121 0.10216 0.3196 0.0
H2058 H 0.34834 0.14093 0.34808 0.0
H2059 H 0.38238 0.13424 0.32324 0.0
H2060 H 0.31238 0.98466 0.34299 0.0
H2061 H 0.34972 0.9766 0.32452 0.0
H2062 H 0.29237 1.01288 0.37986 0.0
H2063 H 0.28251 0.05357 0.38759 0.0
C2064 C 1.00677 0.65471 0.68413 0.0
C2065 C 1.00695 0.68938 0.68579 0.0
C2066 C 0.05176 0.68526 0.72575 0.0
C2067 C 0.04951 0.65067 0.72536 0.0
N2068 N 1.01929 0.60339 0.70814 0.0
N2069 N 1.02595 0.73705 0.71443 0.0
C2070 C 1.02468 0.63609 0.70643 0.0
C2071 C 1.02844 0.70452 0.70842 0.0
N2072 N 0.99116 0.63815 0.66013 0.0
N2073 N 0.07699 0.69983 0.7414 0.0
H2074 H 1.00908 0.75166 0.70298 0.0
H2075 H 0.03858 0.74892 0.73282 0.0
H2076 H 0.09348 0.68678 0.75506 0.0
H2077 H 0.08249 0.72445 0.73932 0.0
H2078 H 0.98014 0.64898 0.64036 0.0
H2079 H 0.98014 0.64898 0.64036 0.0
H2080 H 1.0015 0.59153 0.69455 0.0
H2081 H 1.03136 0.58874 0.72453 0.0
C2082 C 0.34332 1.02938 0.67605 0.0
C2083 C 0.3595 0.99916 0.6793 0.0
C2084 C 0.39927 1.02637 0.71581 0.0
C2085 C 0.38529 0.05711 0.70943 0.0
N2086 N 0.33614 0.08461 0.69677 0.0
N2087 N 0.39336 0.96741 0.71366 0.0
C2088 C 0.35467 0.05743 0.69378 0.0
C2089 C 0.38447 0.99728 0.70294 0.0
N2090 N 0.318 1.03182 0.6552 0.0
N2091 N 0.42738 1.02485 0.73289 0.0
H2092 H 0.3817 0.94623 0.7058 0.0
H2093 H 0.40937 0.96386 0.73262 0.0
H2094 H 0.43843 0.04521 0.74311 0.0
H2095 H 0.44046 1.0036 0.73599 0.0
H2096 H 0.30647 0.05356 0.65013 0.0
H2097 H 0.30909 1.01219 0.64189 0.0
H2098 H 0.3125 0.08621 0.68839 0.0
H2099 H 0.34353 0.10435 0.71101 0.0
C2100 C 0.95454 0.35766 0.64752 0.0
C2101 C 0.95403 0.37884 0.67515 0.0
C2102 C 1.01081 0.3625 0.68508 0.0
C2103 C 1.0135 0.34786 0.65362 0.0
N2104 N 0.98614 0.33079 0.60506 0.0
N2105 N 0.98276 0.4001 0.72122 0.0
C2106 C 0.98466 0.34463 0.63517 0.0
C2107 C 0.98231 0.38036 0.69452 0.0
N2108 N 0.92583 0.34978 0.63325 0.0
N2109 N 0.03551 0.35865 0.70645 0.0
H2110 H 0.96236 0.41226 0.72978 0.0
H2111 H 1.00379 0.40593 0.73381 0.0
H2112 H 0.05582 0.34473 0.70089 0.0
H2113 H 0.03427 0.3659 0.73062 0.0
H2114 H 0.92352 0.33261 0.61475 0.0
H2115 H 0.90377 0.358 0.64258 0.0
H2116 H 0.96689 0.33057 0.58895 0.0
H2117 H 1.00732 0.32107 0.59529 0.0
C2118 C 0.69963 1.03218 0.70794 0.0
C2119 C 0.6665 1.03271 0.71773 0.0
C2120 C 0.66602 0.09059 0.70103 0.0
C2121 C 0.69637 0.08714 0.68406 0.0
N2122 N 0.74019 0.05109 0.66981 0.0
N2123 N 0.61825 0.06436 0.72478 0.0
C2124 C 0.71291 0.05714 0.68758 0.0
C2125 C 0.64982 0.06266 0.71494 0.0
N2126 N 0.71886 1.0079 0.71886 0.0
N2127 N 0.6531 0.12086 0.70478 0.0
H2128 H 0.60624 0.04489 0.73556 0.0
H2129 H 0.60354 0.08436 0.7209 0.0
H2130 H 0.66525 0.1418 0.69731 0.0
H2131 H 0.6325 0.12568 0.71863 0.0
H2132 H 0.74389 1.00775 0.71536 0.0
H2133 H 0.71005 0.99003 0.73445 0.0
H2134 H 0.75104 1.0283 0.66883 0.0
H2135 H 0.75007 0.06776 0.65371 0.0
C2136 C 0.36502 0.35222 1.02541 0.0
C2137 C 0.34826 0.38162 0.03342 0.0
C2138 C 0.36361 0.37212 0.09049 0.0
C2139 C 0.38637 0.34783 0.08111 0.0
N2140 N 0.4088 0.31509 0.03828 0.0
N2141 N 0.33334 0.42005 0.07528 0.0
C2142 C 0.38666 0.33761 0.04822 0.0
C2143 C 0.34748 0.39136 0.06658 0.0
N2144 N 0.35991 0.3379 0.99594 0.0
N2145 N 0.35752 0.37677 0.12265 0.0
H2146 H 0.32159 0.43488 0.05886 0.0
H2147 H 0.33542 0.43028 0.09832 0.0
H2148 H 0.36848 0.36245 0.14015 0.0
H2149 H 0.33945 0.3921 0.13149 0.0
H2150 H 0.36928 0.31531 0.98945 0.0
H2151 H 0.34348 0.34711 0.97933 0.0
H2152 H 0.41322 0.30943 1.01403 0.0
H2153 H 0.42389 0.30331 0.0545 0.0
C2154 C 0.35275 0.67701 0.9768 0.0
C2155 C 0.36998 0.70683 0.98021 0.0
C2156 C 0.35435 0.70642 0.03856 0.0
C2157 C 0.34392 0.67325 0.03619 0.0
N2158 N 0.33319 0.62713 1.00157 0.0
N2159 N 0.38168 0.75306 1.0136 0.0
C2160 C 0.34253 0.65884 1.00475 0.0
C2161 C 0.36863 0.72266 1.0109 0.0
N2162 N 0.34537 0.66662 0.94635 0.0
N2163 N 0.35007 0.72249 0.06732 0.0
H2164 H 0.39028 0.76557 0.9934 0.0
H2165 H 0.38504 0.76536 0.03542 0.0
H2166 H 0.33904 0.71157 0.08728 0.0
H2167 H 0.35504 0.74703 0.07089 0.0
H2168 H 0.33072 0.64651 0.9415 0.0
H2169 H 0.35126 0.68064 0.92617 0.0
H2170 H 0.33539 0.61402 0.98 0.0
H2171 H 0.32514 0.61332 1.0211 0.0
C2172 C 0.6899 0.38807 0.98003 0.0
C2173 C 0.67098 0.36 0.98803 0.0
C2174 C 0.69713 0.362 0.04187 0.0
C2175 C 0.70963 0.39384 0.03618 0.0
N2176 N 0.71613 0.4378 0.99864 0.0
N2177 N 0.65568 0.32174 1.02941 0.0
C2178 C 0.70569 0.40695 1.0048 0.0
C2179 C 0.67462 0.34714 1.01967 0.0
N2180 N 0.69425 0.39576 0.9483 0.0
N2181 N 0.70808 0.34517 0.06779 0.0
H2182 H 0.63884 0.31042 1.01438 0.0
H2183 H 0.65493 0.31373 0.05326 0.0
H2184 H 0.7259 0.35461 0.08307 0.0
H2185 H 0.70218 0.3209 0.07189 0.0
H2186 H 0.70957 0.41432 0.94046 0.0
H2187 H 0.68579 0.38059 0.92989 0.0
H2188 H 0.71066 0.44998 0.97738 0.0
H2189 H 0.72832 0.45201 1.0157 0.0
C2190 C 0.69695 0.68761 1.0193 0.0
C2191 C 0.68264 0.65921 1.00513 0.0
C2192 C 0.63363 0.66984 0.03868 0.0
C2193 C 0.64902 0.69588 0.05579 0.0
N2194 N 0.69835 0.72599 0.06472 0.0
N2195 N 0.63956 0.6197 1.008 0.0
C2196 C 0.68153 0.70387 0.04662 0.0
C2197 C 0.65164 0.64941 1.01687 0.0
N2198 N 0.72475 0.69987 1.00608 0.0
N2199 N 0.60107 0.6651 0.04248 0.0
H2200 H 0.65231 0.60351 0.99317 0.0
H2201 H 0.61871 0.60967 1.01827 0.0
H2202 H 0.58682 0.68015 0.05707 0.0
H2203 H 0.58773 0.64885 1.02836 0.0
H2204 H 0.73456 0.72228 1.01277 0.0
H2205 H 0.73667 0.68867 0.98668 0.0
H2206 H 0.72308 0.73026 0.06175 0.0
H2207 H 0.68799 0.73842 0.08425 0.0
loop_
_geom_bond_atom_site_label_1
_geom_bond_atom_site_label_2
_geom_bond_distance
_geom_bond_site_symmetry_2
_ccdc_geom_bond_type
O0 Tb1 2.292 . S
O0 C3 1.255 . S
Tb1 O0 2.292 . S
Tb1 O17 2.326 . S
Tb1 O19 2.500 . S
Tb1 O20 2.473 . S
Tb1 O23 2.324 . S
Eu2 O6 2.292 . S
Eu2 C7 2.852 . S
Eu2 O18 2.324 . S
Eu2 O22 2.326 . S
Eu2 O24 2.500 . S
Eu2 O25 2.473 . S
C3 O0 1.255 . S
C3 O4 1.247 . S
O4 C3 1.247 . S
C5 O17 1.242 . S
C5 O18 1.258 . S
O6 Eu2 2.292 . S
O6 C8 1.255 . S
C7 Eu2 2.852 . S
C7 C11 1.503 . S
C7 O24 1.273 . S
C7 O25 1.257 . S
C8 O6 1.255 . S
C8 O9 1.247 . S
O9 C8 1.247 . S
C10 O22 1.242 . S
C10 O23 1.258 . S
C11 C7 1.503 . S
C11 C12 1.379 . S
C11 C16 1.392 . S
C12 C11 1.379 . S
C12 C13 1.404 . S
C12 H26 0.929 . S
C13 C12 1.404 . S
C13 C14 1.389 . S
C14 C13 1.389 . S
C14 C15 1.399 . S
C14 H27 0.931 . S
C15 C14 1.399 . S
C15 C16 1.390 . S
C16 C11 1.392 . S
C16 C15 1.390 . S
C16 H28 0.929 . S
O17 Tb1 2.326 . S
O17 C5 1.242 . S
O18 Eu2 2.324 . S
O18 C5 1.258 . S
O19 Tb1 2.500 . S
O19 C21 1.273 . S
O20 Tb1 2.473 . S
O20 C21 1.257 . S
C21 O19 1.273 . S
C21 O20 1.257 . S
O22 Eu2 2.326 . S
O22 C10 1.242 . S
O23 Tb1 2.324 . S
O23 C10 1.258 . S
O24 Eu2 2.500 . S
O24 C7 1.273 . S
O25 Eu2 2.473 . S
O25 C7 1.257 . S
H26 C12 0.929 . S
H27 C14 0.931 . S
H28 C16 0.929 . S
O29 Tb30 2.292 . S
O29 C32 1.255 . S
Tb30 O29 2.292 . S
Tb30 O46 2.326 . S
Tb30 O48 2.500 . S
Tb30 O49 2.473 . S
Tb30 O52 2.324 . S
Eu31 O35 2.292 . S
Eu31 C36 2.852 . S
Eu31 O47 2.324 . S
Eu31 O51 2.326 . S
Eu31 O53 2.500 . S
Eu31 O54 2.473 . S
C32 O29 1.255 . S
C32 O33 1.247 . S
O33 C32 1.247 . S
C34 O46 1.242 . S
C34 O47 1.258 . S
O35 Eu31 2.292 . S
O35 C37 1.255 . S
C36 Eu31 2.852 . S
C36 C40 1.503 . S
C36 O53 1.273 . S
C36 O54 1.257 . S
C37 O35 1.255 . S
C37 O38 1.247 . S
O38 C37 1.247 . S
C39 O51 1.242 . S
C39 O52 1.258 . S
C40 C36 1.503 . S
C40 C41 1.379 . S
C40 C45 1.392 . S
C41 C40 1.379 . S
C41 C42 1.404 . S
C41 H55 0.929 . S
C42 C41 1.404 . S
C42 C43 1.389 . S
C43 C42 1.389 . S
C43 C44 1.399 . S
C43 H56 0.931 . S
C44 C43 1.399 . S
C44 C45 1.390 . S
C45 C40 1.392 . S
C45 C44 1.390 . S
C45 H57 0.929 . S
O46 Tb30 2.326 . S
O46 C34 1.242 . S
O47 Eu31 2.324 . S
O47 C34 1.258 . S
O48 Tb30 2.500 . S
O48 C50 1.273 . S
O49 Tb30 2.473 . S
O49 C50 1.257 . S
C50 O48 1.273 . S
C50 O49 1.257 . S
O51 Eu31 2.326 . S
O51 C39 1.242 . S
O52 Tb30 2.324 . S
O52 C39 1.258 . S
O53 Eu31 2.500 . S
O53 C36 1.273 . S
O54 Eu31 2.473 . S
O54 C36 1.257 . S
H55 C41 0.929 . S
H56 C43 0.931 . S
H57 C45 0.929 . S
O58 Tb59 2.292 . S
O58 C61 1.255 . S
Tb59 O58 2.292 . S
Tb59 O75 2.326 . S
Tb59 O77 2.500 . S
Tb59 O78 2.473 . S
Tb59 O81 2.324 . S
Eu60 O64 2.292 . S
Eu60 C65 2.852 . S
Eu60 O76 2.324 . S
Eu60 O80 2.326 . S
Eu60 O82 2.500 . S
Eu60 O83 2.473 . S
C61 O58 1.255 . S
C61 O62 1.247 . S
O62 C61 1.247 . S
C63 O75 1.242 . S
C63 O76 1.258 . S
O64 Eu60 2.292 . S
O64 C66 1.255 . S
C65 Eu60 2.852 . S
C65 C69 1.503 . S
C65 O82 1.273 . S
C65 O83 1.257 . S
C66 O64 1.255 . S
C66 O67 1.247 . S
O67 C66 1.247 . S
C68 O80 1.242 . S
C68 O81 1.258 . S
C69 C65 1.503 . S
C69 C70 1.379 . S
C69 C74 1.392 . S
C70 C69 1.379 . S
C70 C71 1.404 . S
C70 H84 0.929 . S
C71 C70 1.404 . S
C71 C72 1.389 . S
C72 C71 1.389 . S
C72 C73 1.399 . S
C72 H85 0.931 . S
C73 C72 1.399 . S
C73 C74 1.390 . S
C74 C69 1.392 . S
C74 C73 1.390 . S
C74 H86 0.929 . S
O75 Tb59 2.326 . S
O75 C63 1.242 . S
O76 Eu60 2.324 . S
O76 C63 1.258 . S
O77 Tb59 2.500 . S
O77 C79 1.273 . S
O78 Tb59 2.473 . S
O78 C79 1.257 . S
C79 O77 1.273 . S
C79 O78 1.257 . S
O80 Eu60 2.326 . S
O80 C68 1.242 . S
O81 Tb59 2.324 . S
O81 C68 1.258 . S
O82 Eu60 2.500 . S
O82 C65 1.273 . S
O83 Eu60 2.473 . S
O83 C65 1.257 . S
H84 C70 0.929 . S
H85 C72 0.931 . S
H86 C74 0.929 . S
O87 Tb88 2.292 . S
O87 C90 1.255 . S
Tb88 O87 2.292 . S
Tb88 O104 2.326 . S
Tb88 O106 2.500 . S
Tb88 O107 2.473 . S
Tb88 O110 2.324 . S
Eu89 O93 2.292 . S
Eu89 C94 2.852 . S
Eu89 O105 2.324 . S
Eu89 O109 2.326 . S
Eu89 O111 2.500 . S
Eu89 O112 2.473 . S
C90 O87 1.255 . S
C90 O91 1.247 . S
O91 C90 1.247 . S
C92 O104 1.242 . S
C92 O105 1.258 . S
O93 Eu89 2.292 . S
O93 C95 1.255 . S
C94 Eu89 2.852 . S
C94 C98 1.503 . S
C94 O111 1.273 . S
C94 O112 1.257 . S
C95 O93 1.255 . S
C95 O96 1.247 . S
O96 C95 1.247 . S
C97 O109 1.242 . S
C97 O110 1.258 . S
C98 C94 1.503 . S
C98 C99 1.379 . S
C98 C103 1.392 . S
C99 C98 1.379 . S
C99 C100 1.404 . S
C99 H113 0.929 . S
C100 C99 1.404 . S
C100 C101 1.389 . S
C101 C100 1.389 . S
C101 C102 1.399 . S
C101 H114 0.931 . S
C102 C101 1.399 . S
C102 C103 1.390 . S
C103 C98 1.392 . S
C103 C102 1.390 . S
C103 H115 0.929 . S
O104 Tb88 2.326 . S
O104 C92 1.242 . S
O105 Eu89 2.324 . S
O105 C92 1.258 . S
O106 Tb88 2.500 . S
O106 C108 1.273 . S
O107 Tb88 2.473 . S
O107 C108 1.257 . S
C108 O106 1.273 . S
C108 O107 1.257 . S
O109 Eu89 2.326 . S
O109 C97 1.242 . S
O110 Tb88 2.324 . S
O110 C97 1.258 . S
O111 Eu89 2.500 . S
O111 C94 1.273 . S
O112 Eu89 2.473 . S
O112 C94 1.257 . S
H113 C99 0.929 . S
H114 C101 0.931 . S
H115 C103 0.929 . S
O116 Tb117 2.292 . S
O116 C119 1.255 . S
Tb117 O116 2.292 . S
Tb117 O133 2.326 . S
Tb117 O135 2.500 . S
Tb117 O136 2.473 . S
Tb117 O139 2.324 . S
Eu118 O122 2.292 . S
Eu118 C123 2.852 . S
Eu118 O134 2.324 . S
Eu118 O138 2.326 . S
Eu118 O140 2.500 . S
Eu118 O141 2.473 . S
C119 O116 1.255 . S
C119 O120 1.247 . S
O120 C119 1.247 . S
C121 O133 1.242 . S
C121 O134 1.258 . S
O122 Eu118 2.292 . S
O122 C124 1.255 . S
C123 Eu118 2.852 . S
C123 C127 1.503 . S
C123 O140 1.273 . S
C123 O141 1.257 . S
C124 O122 1.255 . S
C124 O125 1.247 . S
O125 C124 1.247 . S
C126 O138 1.242 . S
C126 O139 1.258 . S
C127 C123 1.503 . S
C127 C128 1.379 . S
C127 C132 1.392 . S
C128 C127 1.379 . S
C128 C129 1.404 . S
C128 H142 0.929 . S
C129 C128 1.404 . S
C129 C130 1.389 . S
C130 C129 1.389 . S
C130 C131 1.399 . S
C130 H143 0.931 . S
C131 C130 1.399 . S
C131 C132 1.390 . S
C132 C127 1.392 . S
C132 C131 1.390 . S
C132 H144 0.929 . S
O133 Tb117 2.326 . S
O133 C121 1.242 . S
O134 Eu118 2.324 . S
O134 C121 1.258 . S
O135 Tb117 2.500 . S
O135 C137 1.273 . S
O136 Tb117 2.473 . S
O136 C137 1.257 . S
C137 O135 1.273 . S
C137 O136 1.257 . S
O138 Eu118 2.326 . S
O138 C126 1.242 . S
O139 Tb117 2.324 . S
O139 C126 1.258 . S
O140 Eu118 2.500 . S
O140 C123 1.273 . S
O141 Eu118 2.473 . S
O141 C123 1.257 . S
H142 C128 0.929 . S
H143 C130 0.931 . S
H144 C132 0.929 . S
O145 Tb146 2.292 . S
O145 C148 1.255 . S
Tb146 O145 2.292 . S
Tb146 O162 2.326 . S
Tb146 O164 2.500 . S
Tb146 O165 2.473 . S
Tb146 O168 2.324 . S
Eu147 O151 2.292 . S
Eu147 C152 2.852 . S
Eu147 O163 2.324 . S
Eu147 O167 2.326 . S
Eu147 O169 2.500 . S
Eu147 O170 2.473 . S
C148 O145 1.255 . S
C148 O149 1.247 . S
O149 C148 1.247 . S
C150 O162 1.242 . S
C150 O163 1.258 . S
O151 Eu147 2.292 . S
O151 C153 1.255 . S
C152 Eu147 2.852 . S
C152 C156 1.503 . S
C152 O169 1.273 . S
C152 O170 1.257 . S
C153 O151 1.255 . S
C153 O154 1.247 . S
O154 C153 1.247 . S
C155 O167 1.242 . S
C155 O168 1.258 . S
C156 C152 1.503 . S
C156 C157 1.379 . S
C156 C161 1.392 . S
C157 C156 1.379 . S
C157 C158 1.404 . S
C157 H171 0.929 . S
C158 C157 1.404 . S
C158 C159 1.389 . S
C159 C158 1.389 . S
C159 C160 1.399 . S
C159 H172 0.931 . S
C160 C159 1.399 . S
C160 C161 1.390 . S
C161 C156 1.392 . S
C161 C160 1.390 . S
C161 H173 0.929 . S
O162 Tb146 2.326 . S
O162 C150 1.242 . S
O163 Eu147 2.324 . S
O163 C150 1.258 . S
O164 Tb146 2.500 . S
O164 C166 1.273 . S
O165 Tb146 2.473 . S
O165 C166 1.257 . S
C166 O164 1.273 . S
C166 O165 1.257 . S
O167 Eu147 2.326 . S
O167 C155 1.242 . S
O168 Tb146 2.324 . S
O168 C155 1.258 . S
O169 Eu147 2.500 . S
O169 C152 1.273 . S
O170 Eu147 2.473 . S
O170 C152 1.257 . S
H171 C157 0.929 . S
H172 C159 0.931 . S
H173 C161 0.929 . S
O174 Tb175 2.292 . S
O174 C177 1.255 . S
Tb175 O174 2.292 . S
Tb175 O191 2.326 . S
Tb175 O193 2.500 . S
Tb175 O194 2.473 . S
Tb175 O197 2.324 . S
Eu176 O180 2.292 . S
Eu176 C181 2.852 . S
Eu176 O192 2.324 . S
Eu176 O196 2.326 . S
Eu176 O198 2.500 . S
Eu176 O199 2.473 . S
C177 O174 1.255 . S
C177 O178 1.247 . S
O178 C177 1.247 . S
C179 O191 1.242 . S
C179 O192 1.258 . S
O180 Eu176 2.292 . S
O180 C182 1.255 . S
C181 Eu176 2.852 . S
C181 C185 1.503 . S
C181 O198 1.273 . S
C181 O199 1.257 . S
C182 O180 1.255 . S
C182 O183 1.247 . S
O183 C182 1.247 . S
C184 O196 1.242 . S
C184 O197 1.258 . S
C185 C181 1.503 . S
C185 C186 1.379 . S
C185 C190 1.392 . S
C186 C185 1.379 . S
C186 C187 1.404 . S
C186 H200 0.929 . S
C187 C186 1.404 . S
C187 C188 1.389 . S
C188 C187 1.389 . S
C188 C189 1.399 . S
C188 H201 0.931 . S
C189 C188 1.399 . S
C189 C190 1.390 . S
C190 C185 1.392 . S
C190 C189 1.390 . S
C190 H202 0.929 . S
O191 Tb175 2.326 . S
O191 C179 1.242 . S
O192 Eu176 2.324 . S
O192 C179 1.258 . S
O193 Tb175 2.500 . S
O193 C195 1.273 . S
O194 Tb175 2.473 . S
O194 C195 1.257 . S
C195 O193 1.273 . S
C195 O194 1.257 . S
O196 Eu176 2.326 . S
O196 C184 1.242 . S
O197 Tb175 2.324 . S
O197 C184 1.258 . S
O198 Eu176 2.500 . S
O198 C181 1.273 . S
O199 Eu176 2.473 . S
O199 C181 1.257 . S
H200 C186 0.929 . S
H201 C188 0.931 . S
H202 C190 0.929 . S
O203 Tb204 2.292 . S
O203 C206 1.255 . S
Tb204 O203 2.292 . S
Tb204 O220 2.326 . S
Tb204 O222 2.500 . S
Tb204 O223 2.473 . S
Tb204 O226 2.324 . S
Eu205 O209 2.292 . S
Eu205 C210 2.852 . S
Eu205 O221 2.324 . S
Eu205 O225 2.326 . S
Eu205 O227 2.500 . S
Eu205 O228 2.473 . S
C206 O203 1.255 . S
C206 O207 1.247 . S
O207 C206 1.247 . S
C208 O220 1.242 . S
C208 O221 1.258 . S
O209 Eu205 2.292 . S
O209 C211 1.255 . S
C210 Eu205 2.852 . S
C210 C214 1.503 . S
C210 O227 1.273 . S
C210 O228 1.257 . S
C211 O209 1.255 . S
C211 O212 1.247 . S
O212 C211 1.247 . S
C213 O225 1.242 . S
C213 O226 1.258 . S
C214 C210 1.503 . S
C214 C215 1.379 . S
C214 C219 1.392 . S
C215 C214 1.379 . S
C215 C216 1.404 . S
C215 H229 0.929 . S
C216 C215 1.404 . S
C216 C217 1.389 . S
C217 C216 1.389 . S
C217 C218 1.399 . S
C217 H230 0.931 . S
C218 C217 1.399 . S
C218 C219 1.390 . S
C219 C214 1.392 . S
C219 C218 1.390 . S
C219 H231 0.929 . S
O220 Tb204 2.326 . S
O220 C208 1.242 . S
O221 Eu205 2.324 . S
O221 C208 1.258 . S
O222 Tb204 2.500 . S
O222 C224 1.273 . S
O223 Tb204 2.473 . S
O223 C224 1.257 . S
C224 O222 1.273 . S
C224 O223 1.257 . S
O225 Eu205 2.326 . S
O225 C213 1.242 . S
O226 Tb204 2.324 . S
O226 C213 1.258 . S
O227 Eu205 2.500 . S
O227 C210 1.273 . S
O228 Eu205 2.473 . S
O228 C210 1.257 . S
H229 C215 0.929 . S
H230 C217 0.931 . S
H231 C219 0.929 . S
O232 Tb233 2.292 . S
O232 C235 1.255 . S
Tb233 O232 2.292 . S
Tb233 O249 2.326 . S
Tb233 O251 2.500 . S
Tb233 O252 2.473 . S
Tb233 O255 2.324 . S
Eu234 O238 2.292 . S
Eu234 C239 2.852 . S
Eu234 O250 2.324 . S
Eu234 O254 2.326 . S
Eu234 O256 2.500 . S
Eu234 O257 2.473 . S
C235 O232 1.255 . S
C235 O236 1.247 . S
O236 C235 1.247 . S
C237 O249 1.242 . S
C237 O250 1.258 . S
O238 Eu234 2.292 . S
O238 C240 1.255 . S
C239 Eu234 2.852 . S
C239 C243 1.503 . S
C239 O256 1.273 . S
C239 O257 1.257 . S
C240 O238 1.255 . S
C240 O241 1.247 . S
O241 C240 1.247 . S
C242 O254 1.242 . S
C242 O255 1.258 . S
C243 C239 1.503 . S
C243 C244 1.379 . S
C243 C248 1.392 . S
C244 C243 1.379 . S
C244 C245 1.404 . S
C244 H258 0.929 . S
C245 C244 1.404 . S
C245 C246 1.389 . S
C246 C245 1.389 . S
C246 C247 1.399 . S
C246 H259 0.931 . S
C247 C246 1.399 . S
C247 C248 1.390 . S
C248 C243 1.392 . S
C248 C247 1.390 . S
C248 H260 0.929 . S
O249 Tb233 2.326 . S
O249 C237 1.242 . S
O250 Eu234 2.324 . S
O250 C237 1.258 . S
O251 Tb233 2.500 . S
O251 C253 1.273 . S
O252 Tb233 2.473 . S
O252 C253 1.257 . S
C253 O251 1.273 . S
C253 O252 1.257 . S
O254 Eu234 2.326 . S
O254 C242 1.242 . S
O255 Tb233 2.324 . S
O255 C242 1.258 . S
O256 Eu234 2.500 . S
O256 C239 1.273 . S
O257 Eu234 2.473 . S
O257 C239 1.257 . S
H258 C244 0.929 . S
H259 C246 0.931 . S
H260 C248 0.929 . S
O261 Tb262 2.292 . S
O261 C264 1.255 . S
Tb262 O261 2.292 . S
Tb262 O278 2.326 . S
Tb262 O280 2.500 . S
Tb262 O281 2.473 . S
Tb262 O284 2.324 . S
Eu263 O267 2.292 . S
Eu263 C268 2.852 . S
Eu263 O279 2.324 . S
Eu263 O283 2.326 . S
Eu263 O285 2.500 . S
Eu263 O286 2.473 . S
C264 O261 1.255 . S
C264 O265 1.247 . S
O265 C264 1.247 . S
C266 O278 1.242 . S
C266 O279 1.258 . S
O267 Eu263 2.292 . S
O267 C269 1.255 . S
C268 Eu263 2.852 . S
C268 C272 1.503 . S
C268 O285 1.273 . S
C268 O286 1.257 . S
C269 O267 1.255 . S
C269 O270 1.247 . S
O270 C269 1.247 . S
C271 O283 1.242 . S
C271 O284 1.258 . S
C272 C268 1.503 . S
C272 C273 1.379 . S
C272 C277 1.392 . S
C273 C272 1.379 . S
C273 C274 1.404 . S
C273 H287 0.929 . S
C274 C273 1.404 . S
C274 C275 1.389 . S
C275 C274 1.389 . S
C275 C276 1.399 . S
C275 H288 0.931 . S
C276 C275 1.399 . S
C276 C277 1.390 . S
C277 C272 1.392 . S
C277 C276 1.390 . S
C277 H289 0.929 . S
O278 Tb262 2.326 . S
O278 C266 1.242 . S
O279 Eu263 2.324 . S
O279 C266 1.258 . S
O280 Tb262 2.500 . S
O280 C282 1.273 . S
O281 Tb262 2.473 . S
O281 C282 1.257 . S
C282 O280 1.273 . S
C282 O281 1.257 . S
O283 Eu263 2.326 . S
O283 C271 1.242 . S
O284 Tb262 2.324 . S
O284 C271 1.258 . S
O285 Eu263 2.500 . S
O285 C268 1.273 . S
O286 Eu263 2.473 . S
O286 C268 1.257 . S
H287 C273 0.929 . S
H288 C275 0.931 . S
H289 C277 0.929 . S
O290 Tb291 2.292 . S
O290 C293 1.255 . S
Tb291 O290 2.292 . S
Tb291 O307 2.326 . S
Tb291 O309 2.500 . S
Tb291 O310 2.473 . S
Tb291 O313 2.324 . S
Eu292 O296 2.292 . S
Eu292 C297 2.852 . S
Eu292 O308 2.324 . S
Eu292 O312 2.326 . S
Eu292 O314 2.500 . S
Eu292 O315 2.473 . S
C293 O290 1.255 . S
C293 O294 1.247 . S
O294 C293 1.247 . S
C295 O307 1.242 . S
C295 O308 1.258 . S
O296 Eu292 2.292 . S
O296 C298 1.255 . S
C297 Eu292 2.852 . S
C297 C301 1.503 . S
C297 O314 1.273 . S
C297 O315 1.257 . S
C298 O296 1.255 . S
C298 O299 1.247 . S
O299 C298 1.247 . S
C300 O312 1.242 . S
C300 O313 1.258 . S
C301 C297 1.503 . S
C301 C302 1.379 . S
C301 C306 1.392 . S
C302 C301 1.379 . S
C302 C303 1.404 . S
C302 H316 0.929 . S
C303 C302 1.404 . S
C303 C304 1.389 . S
C304 C303 1.389 . S
C304 C305 1.399 . S
C304 H317 0.931 . S
C305 C304 1.399 . S
C305 C306 1.390 . S
C306 C301 1.392 . S
C306 C305 1.390 . S
C306 H318 0.929 . S
O307 Tb291 2.326 . S
O307 C295 1.242 . S
O308 Eu292 2.324 . S
O308 C295 1.258 . S
O309 Tb291 2.500 . S
O309 C311 1.273 . S
O310 Tb291 2.473 . S
O310 C311 1.257 . S
C311 O309 1.273 . S
C311 O310 1.257 . S
O312 Eu292 2.326 . S
O312 C300 1.242 . S
O313 Tb291 2.324 . S
O313 C300 1.258 . S
O314 Eu292 2.500 . S
O314 C297 1.273 . S
O315 Eu292 2.473 . S
O315 C297 1.257 . S
H316 C302 0.929 . S
H317 C304 0.931 . S
H318 C306 0.929 . S
O319 Tb320 2.292 . S
O319 C322 1.255 . S
Tb320 O319 2.292 . S
Tb320 O336 2.326 . S
Tb320 O338 2.500 . S
Tb320 O339 2.473 . S
Tb320 O342 2.324 . S
Eu321 O325 2.292 . S
Eu321 C326 2.852 . S
Eu321 O337 2.324 . S
Eu321 O341 2.326 . S
Eu321 O343 2.500 . S
Eu321 O344 2.473 . S
C322 O319 1.255 . S
C322 O323 1.247 . S
O323 C322 1.247 . S
C324 O336 1.242 . S
C324 O337 1.258 . S
O325 Eu321 2.292 . S
O325 C327 1.255 . S
C326 Eu321 2.852 . S
C326 C330 1.503 . S
C326 O343 1.273 . S
C326 O344 1.257 . S
C327 O325 1.255 . S
C327 O328 1.247 . S
O328 C327 1.247 . S
C329 O341 1.242 . S
C329 O342 1.258 . S
C330 C326 1.503 . S
C330 C331 1.379 . S
C330 C335 1.392 . S
C331 C330 1.379 . S
C331 C332 1.404 . S
C331 H345 0.929 . S
C332 C331 1.404 . S
C332 C333 1.389 . S
C333 C332 1.389 . S
C333 C334 1.399 . S
C333 H346 0.931 . S
C334 C333 1.399 . S
C334 C335 1.390 . S
C335 C330 1.392 . S
C335 C334 1.390 . S
C335 H347 0.929 . S
O336 Tb320 2.326 . S
O336 C324 1.242 . S
O337 Eu321 2.324 . S
O337 C324 1.258 . S
O338 Tb320 2.500 . S
O338 C340 1.273 . S
O339 Tb320 2.473 . S
O339 C340 1.257 . S
C340 O338 1.273 . S
C340 O339 1.257 . S
O341 Eu321 2.326 . S
O341 C329 1.242 . S
O342 Tb320 2.324 . S
O342 C329 1.258 . S
O343 Eu321 2.500 . S
O343 C326 1.273 . S
O344 Eu321 2.473 . S
O344 C326 1.257 . S
H345 C331 0.929 . S
H346 C333 0.931 . S
H347 C335 0.929 . S
O348 Tb349 2.292 . S
O348 C351 1.255 . S
Tb349 O348 2.292 . S
Tb349 O365 2.326 . S
Tb349 O367 2.500 . S
Tb349 O368 2.473 . S
Tb349 O371 2.324 . S
Eu350 O354 2.292 . S
Eu350 C355 2.852 . S
Eu350 O366 2.324 . S
Eu350 O370 2.326 . S
Eu350 O372 2.500 . S
Eu350 O373 2.473 . S
C351 O348 1.255 . S
C351 O352 1.247 . S
O352 C351 1.247 . S
C353 O365 1.242 . S
C353 O366 1.258 . S
O354 Eu350 2.292 . S
O354 C356 1.255 . S
C355 Eu350 2.852 . S
C355 C359 1.503 . S
C355 O372 1.273 . S
C355 O373 1.257 . S
C356 O354 1.255 . S
C356 O357 1.247 . S
O357 C356 1.247 . S
C358 O370 1.242 . S
C358 O371 1.258 . S
C359 C355 1.503 . S
C359 C360 1.379 . S
C359 C364 1.392 . S
C360 C359 1.379 . S
C360 C361 1.404 . S
C360 H374 0.929 . S
C361 C360 1.404 . S
C361 C362 1.389 . S
C362 C361 1.389 . S
C362 C363 1.399 . S
C362 H375 0.931 . S
C363 C362 1.399 . S
C363 C364 1.390 . S
C364 C359 1.392 . S
C364 C363 1.390 . S
C364 H376 0.929 . S
O365 Tb349 2.326 . S
O365 C353 1.242 . S
O366 Eu350 2.324 . S
O366 C353 1.258 . S
O367 Tb349 2.500 . S
O367 C369 1.273 . S
O368 Tb349 2.473 . S
O368 C369 1.257 . S
C369 O367 1.273 . S
C369 O368 1.257 . S
O370 Eu350 2.326 . S
O370 C358 1.242 . S
O371 Tb349 2.324 . S
O371 C358 1.258 . S
O372 Eu350 2.500 . S
O372 C355 1.273 . S
O373 Eu350 2.473 . S
O373 C355 1.257 . S
H374 C360 0.929 . S
H375 C362 0.931 . S
H376 C364 0.929 . S
O377 Tb378 2.292 . S
O377 C380 1.255 . S
Tb378 O377 2.292 . S
Tb378 O394 2.326 . S
Tb378 O396 2.500 . S
Tb378 O397 2.473 . S
Tb378 O400 2.324 . S
Eu379 O383 2.292 . S
Eu379 C384 2.852 . S
Eu379 O395 2.324 . S
Eu379 O399 2.326 . S
Eu379 O401 2.500 . S
Eu379 O402 2.473 . S
C380 O377 1.255 . S
C380 O381 1.247 . S
O381 C380 1.247 . S
C382 O394 1.242 . S
C382 O395 1.258 . S
O383 Eu379 2.292 . S
O383 C385 1.255 . S
C384 Eu379 2.852 . S
C384 C388 1.503 . S
C384 O401 1.273 . S
C384 O402 1.257 . S
C385 O383 1.255 . S
C385 O386 1.247 . S
O386 C385 1.247 . S
C387 O399 1.242 . S
C387 O400 1.258 . S
C388 C384 1.503 . S
C388 C389 1.379 . S
C388 C393 1.392 . S
C389 C388 1.379 . S
C389 C390 1.404 . S
C389 H403 0.929 . S
C390 C389 1.404 . S
C390 C391 1.389 . S
C391 C390 1.389 . S
C391 C392 1.399 . S
C391 H404 0.931 . S
C392 C391 1.399 . S
C392 C393 1.390 . S
C393 C388 1.392 . S
C393 C392 1.390 . S
C393 H405 0.929 . S
O394 Tb378 2.326 . S
O394 C382 1.242 . S
O395 Eu379 2.324 . S
O395 C382 1.258 . S
O396 Tb378 2.500 . S
O396 C398 1.273 . S
O397 Tb378 2.473 . S
O397 C398 1.257 . S
C398 O396 1.273 . S
C398 O397 1.257 . S
O399 Eu379 2.326 . S
O399 C387 1.242 . S
O400 Tb378 2.324 . S
O400 C387 1.258 . S
O401 Eu379 2.500 . S
O401 C384 1.273 . S
O402 Eu379 2.473 . S
O402 C384 1.257 . S
H403 C389 0.929 . S
H404 C391 0.931 . S
H405 C393 0.929 . S
O406 Tb407 2.292 . S
O406 C409 1.255 . S
Tb407 O406 2.292 . S
Tb407 O423 2.326 . S
Tb407 O425 2.500 . S
Tb407 O426 2.473 . S
Tb407 O429 2.324 . S
Eu408 O412 2.292 . S
Eu408 C413 2.852 . S
Eu408 O424 2.324 . S
Eu408 O428 2.326 . S
Eu408 O430 2.500 . S
Eu408 O431 2.473 . S
C409 O406 1.255 . S
C409 O410 1.247 . S
O410 C409 1.247 . S
C411 O423 1.242 . S
C411 O424 1.258 . S
O412 Eu408 2.292 . S
O412 C414 1.255 . S
C413 Eu408 2.852 . S
C413 C417 1.503 . S
C413 O430 1.273 . S
C413 O431 1.257 . S
C414 O412 1.255 . S
C414 O415 1.247 . S
O415 C414 1.247 . S
C416 O428 1.242 . S
C416 O429 1.258 . S
C417 C413 1.503 . S
C417 C418 1.379 . S
C417 C422 1.392 . S
C418 C417 1.379 . S
C418 C419 1.404 . S
C418 H432 0.929 . S
C419 C418 1.404 . S
C419 C420 1.389 . S
C420 C419 1.389 . S
C420 C421 1.399 . S
C420 H433 0.931 . S
C421 C420 1.399 . S
C421 C422 1.390 . S
C422 C417 1.392 . S
C422 C421 1.390 . S
C422 H434 0.929 . S
O423 Tb407 2.326 . S
O423 C411 1.242 . S
O424 Eu408 2.324 . S
O424 C411 1.258 . S
O425 Tb407 2.500 . S
O425 C427 1.273 . S
O426 Tb407 2.473 . S
O426 C427 1.257 . S
C427 O425 1.273 . S
C427 O426 1.257 . S
O428 Eu408 2.326 . S
O428 C416 1.242 . S
O429 Tb407 2.324 . S
O429 C416 1.258 . S
O430 Eu408 2.500 . S
O430 C413 1.273 . S
O431 Eu408 2.473 . S
O431 C413 1.257 . S
H432 C418 0.929 . S
H433 C420 0.931 . S
H434 C422 0.929 . S
O435 Tb436 2.292 . S
O435 C438 1.255 . S
Tb436 O435 2.292 . S
Tb436 O452 2.326 . S
Tb436 O454 2.500 . S
Tb436 O455 2.473 . S
Tb436 O458 2.324 . S
Eu437 O441 2.292 . S
Eu437 C442 2.852 . S
Eu437 O453 2.324 . S
Eu437 O457 2.326 . S
Eu437 O459 2.500 . S
Eu437 O460 2.473 . S
C438 O435 1.255 . S
C438 O439 1.247 . S
O439 C438 1.247 . S
C440 O452 1.242 . S
C440 O453 1.258 . S
O441 Eu437 2.292 . S
O441 C443 1.255 . S
C442 Eu437 2.852 . S
C442 C446 1.503 . S
C442 O459 1.273 . S
C442 O460 1.257 . S
C443 O441 1.255 . S
C443 O444 1.247 . S
O444 C443 1.247 . S
C445 O457 1.242 . S
C445 O458 1.258 . S
C446 C442 1.503 . S
C446 C447 1.379 . S
C446 C451 1.392 . S
C447 C446 1.379 . S
C447 C448 1.404 . S
C447 H461 0.929 . S
C448 C447 1.404 . S
C448 C449 1.389 . S
C449 C448 1.389 . S
C449 C450 1.399 . S
C449 H462 0.931 . S
C450 C449 1.399 . S
C450 C451 1.390 . S
C451 C446 1.392 . S
C451 C450 1.390 . S
C451 H463 0.929 . S
O452 Tb436 2.326 . S
O452 C440 1.242 . S
O453 Eu437 2.324 . S
O453 C440 1.258 . S
O454 Tb436 2.500 . S
O454 C456 1.273 . S
O455 Tb436 2.473 . S
O455 C456 1.257 . S
C456 O454 1.273 . S
C456 O455 1.257 . S
O457 Eu437 2.326 . S
O457 C445 1.242 . S
O458 Tb436 2.324 . S
O458 C445 1.258 . S
O459 Eu437 2.500 . S
O459 C442 1.273 . S
O460 Eu437 2.473 . S
O460 C442 1.257 . S
H461 C447 0.929 . S
H462 C449 0.931 . S
H463 C451 0.929 . S
O464 Tb465 2.292 . S
O464 C467 1.255 . S
Tb465 O464 2.292 . S
Tb465 O481 2.326 . S
Tb465 O483 2.500 . S
Tb465 O484 2.473 . S
Tb465 O487 2.324 . S
Eu466 O470 2.292 . S
Eu466 C471 2.852 . S
Eu466 O482 2.324 . S
Eu466 O486 2.326 . S
Eu466 O488 2.500 . S
Eu466 O489 2.473 . S
C467 O464 1.255 . S
C467 O468 1.247 . S
O468 C467 1.247 . S
C469 O481 1.242 . S
C469 O482 1.258 . S
O470 Eu466 2.292 . S
O470 C472 1.255 . S
C471 Eu466 2.852 . S
C471 C475 1.503 . S
C471 O488 1.273 . S
C471 O489 1.257 . S
C472 O470 1.255 . S
C472 O473 1.247 . S
O473 C472 1.247 . S
C474 O486 1.242 . S
C474 O487 1.258 . S
C475 C471 1.503 . S
C475 C476 1.379 . S
C475 C480 1.392 . S
C476 C475 1.379 . S
C476 C477 1.404 . S
C476 H490 0.929 . S
C477 C476 1.404 . S
C477 C478 1.389 . S
C478 C477 1.389 . S
C478 C479 1.399 . S
C478 H491 0.931 . S
C479 C478 1.399 . S
C479 C480 1.390 . S
C480 C475 1.392 . S
C480 C479 1.390 . S
C480 H492 0.929 . S
O481 Tb465 2.326 . S
O481 C469 1.242 . S
O482 Eu466 2.324 . S
O482 C469 1.258 . S
O483 Tb465 2.500 . S
O483 C485 1.273 . S
O484 Tb465 2.473 . S
O484 C485 1.257 . S
C485 O483 1.273 . S
C485 O484 1.257 . S
O486 Eu466 2.326 . S
O486 C474 1.242 . S
O487 Tb465 2.324 . S
O487 C474 1.258 . S
O488 Eu466 2.500 . S
O488 C471 1.273 . S
O489 Eu466 2.473 . S
O489 C471 1.257 . S
H490 C476 0.929 . S
H491 C478 0.931 . S
H492 C480 0.929 . S
O493 Tb494 2.292 . S
O493 C496 1.255 . S
Tb494 O493 2.292 . S
Tb494 O510 2.326 . S
Tb494 O512 2.500 . S
Tb494 O513 2.473 . S
Tb494 O516 2.324 . S
Eu495 O499 2.292 . S
Eu495 C500 2.852 . S
Eu495 O511 2.324 . S
Eu495 O515 2.326 . S
Eu495 O517 2.500 . S
Eu495 O518 2.473 . S
C496 O493 1.255 . S
C496 O497 1.247 . S
O497 C496 1.247 . S
C498 O510 1.242 . S
C498 O511 1.258 . S
O499 Eu495 2.292 . S
O499 C501 1.255 . S
C500 Eu495 2.852 . S
C500 C504 1.503 . S
C500 O517 1.273 . S
C500 O518 1.257 . S
C501 O499 1.255 . S
C501 O502 1.247 . S
O502 C501 1.247 . S
C503 O515 1.242 . S
C503 O516 1.258 . S
C504 C500 1.503 . S
C504 C505 1.379 . S
C504 C509 1.392 . S
C505 C504 1.379 . S
C505 C506 1.404 . S
C505 H519 0.929 . S
C506 C505 1.404 . S
C506 C507 1.389 . S
C507 C506 1.389 . S
C507 C508 1.399 . S
C507 H520 0.931 . S
C508 C507 1.399 . S
C508 C509 1.390 . S
C509 C504 1.392 . S
C509 C508 1.390 . S
C509 H521 0.929 . S
O510 Tb494 2.326 . S
O510 C498 1.242 . S
O511 Eu495 2.324 . S
O511 C498 1.258 . S
O512 Tb494 2.500 . S
O512 C514 1.273 . S
O513 Tb494 2.473 . S
O513 C514 1.257 . S
C514 O512 1.273 . S
C514 O513 1.257 . S
O515 Eu495 2.326 . S
O515 C503 1.242 . S
O516 Tb494 2.324 . S
O516 C503 1.258 . S
O517 Eu495 2.500 . S
O517 C500 1.273 . S
O518 Eu495 2.473 . S
O518 C500 1.257 . S
H519 C505 0.929 . S
H520 C507 0.931 . S
H521 C509 0.929 . S
O522 Tb523 2.292 . S
O522 C525 1.255 . S
Tb523 O522 2.292 . S
Tb523 O539 2.326 . S
Tb523 O541 2.500 . S
Tb523 O542 2.473 . S
Tb523 O545 2.324 . S
Eu524 O528 2.292 . S
Eu524 C529 2.852 . S
Eu524 O540 2.324 . S
Eu524 O544 2.326 . S
Eu524 O546 2.500 . S
Eu524 O547 2.473 . S
C525 O522 1.255 . S
C525 O526 1.247 . S
O526 C525 1.247 . S
C527 O539 1.242 . S
C527 O540 1.258 . S
O528 Eu524 2.292 . S
O528 C530 1.255 . S
C529 Eu524 2.852 . S
C529 C533 1.503 . S
C529 O546 1.273 . S
C529 O547 1.257 . S
C530 O528 1.255 . S
C530 O531 1.247 . S
O531 C530 1.247 . S
C532 O544 1.242 . S
C532 O545 1.258 . S
C533 C529 1.503 . S
C533 C534 1.379 . S
C533 C538 1.392 . S
C534 C533 1.379 . S
C534 C535 1.404 . S
C534 H548 0.929 . S
C535 C534 1.404 . S
C535 C536 1.389 . S
C536 C535 1.389 . S
C536 C537 1.399 . S
C536 H549 0.931 . S
C537 C536 1.399 . S
C537 C538 1.390 . S
C538 C533 1.392 . S
C538 C537 1.390 . S
C538 H550 0.929 . S
O539 Tb523 2.326 . S
O539 C527 1.242 . S
O540 Eu524 2.324 . S
O540 C527 1.258 . S
O541 Tb523 2.500 . S
O541 C543 1.273 . S
O542 Tb523 2.473 . S
O542 C543 1.257 . S
C543 O541 1.273 . S
C543 O542 1.257 . S
O544 Eu524 2.326 . S
O544 C532 1.242 . S
O545 Tb523 2.324 . S
O545 C532 1.258 . S
O546 Eu524 2.500 . S
O546 C529 1.273 . S
O547 Eu524 2.473 . S
O547 C529 1.257 . S
H548 C534 0.929 . S
H549 C536 0.931 . S
H550 C538 0.929 . S
O551 Tb552 2.292 . S
O551 C554 1.255 . S
Tb552 O551 2.292 . S
Tb552 O568 2.326 . S
Tb552 O570 2.500 . S
Tb552 O571 2.473 . S
Tb552 O574 2.324 . S
Eu553 O557 2.292 . S
Eu553 C558 2.852 . S
Eu553 O569 2.324 . S
Eu553 O573 2.326 . S
Eu553 O575 2.500 . S
Eu553 O576 2.473 . S
C554 O551 1.255 . S
C554 O555 1.247 . S
O555 C554 1.247 . S
C556 O568 1.242 . S
C556 O569 1.258 . S
O557 Eu553 2.292 . S
O557 C559 1.255 . S
C558 Eu553 2.852 . S
C558 C562 1.503 . S
C558 O575 1.273 . S
C558 O576 1.257 . S
C559 O557 1.255 . S
C559 O560 1.247 . S
O560 C559 1.247 . S
C561 O573 1.242 . S
C561 O574 1.258 . S
C562 C558 1.503 . S
C562 C563 1.379 . S
C562 C567 1.392 . S
C563 C562 1.379 . S
C563 C564 1.404 . S
C563 H577 0.929 . S
C564 C563 1.404 . S
C564 C565 1.389 . S
C565 C564 1.389 . S
C565 C566 1.399 . S
C565 H578 0.931 . S
C566 C565 1.399 . S
C566 C567 1.390 . S
C567 C562 1.392 . S
C567 C566 1.390 . S
C567 H579 0.929 . S
O568 Tb552 2.326 . S
O568 C556 1.242 . S
O569 Eu553 2.324 . S
O569 C556 1.258 . S
O570 Tb552 2.500 . S
O570 C572 1.273 . S
O571 Tb552 2.473 . S
O571 C572 1.257 . S
C572 O570 1.273 . S
C572 O571 1.257 . S
O573 Eu553 2.326 . S
O573 C561 1.242 . S
O574 Tb552 2.324 . S
O574 C561 1.258 . S
O575 Eu553 2.500 . S
O575 C558 1.273 . S
O576 Eu553 2.473 . S
O576 C558 1.257 . S
H577 C563 0.929 . S
H578 C565 0.931 . S
H579 C567 0.929 . S
O580 Tb581 2.292 . S
O580 C583 1.255 . S
Tb581 O580 2.292 . S
Tb581 O597 2.326 . S
Tb581 O599 2.500 . S
Tb581 O600 2.473 . S
Tb581 O603 2.324 . S
Eu582 O586 2.292 . S
Eu582 C587 2.852 . S
Eu582 O598 2.324 . S
Eu582 O602 2.326 . S
Eu582 O604 2.500 . S
Eu582 O605 2.473 . S
C583 O580 1.255 . S
C583 O584 1.247 . S
O584 C583 1.247 . S
C585 O597 1.242 . S
C585 O598 1.258 . S
O586 Eu582 2.292 . S
O586 C588 1.255 . S
C587 Eu582 2.852 . S
C587 C591 1.503 . S
C587 O604 1.273 . S
C587 O605 1.257 . S
C588 O586 1.255 . S
C588 O589 1.247 . S
O589 C588 1.247 . S
C590 O602 1.242 . S
C590 O603 1.258 . S
C591 C587 1.503 . S
C591 C592 1.379 . S
C591 C596 1.392 . S
C592 C591 1.379 . S
C592 C593 1.404 . S
C592 H606 0.929 . S
C593 C592 1.404 . S
C593 C594 1.389 . S
C594 C593 1.389 . S
C594 C595 1.399 . S
C594 H607 0.931 . S
C595 C594 1.399 . S
C595 C596 1.390 . S
C596 C591 1.392 . S
C596 C595 1.390 . S
C596 H608 0.929 . S
O597 Tb581 2.326 . S
O597 C585 1.242 . S
O598 Eu582 2.324 . S
O598 C585 1.258 . S
O599 Tb581 2.500 . S
O599 C601 1.273 . S
O600 Tb581 2.473 . S
O600 C601 1.257 . S
C601 O599 1.273 . S
C601 O600 1.257 . S
O602 Eu582 2.326 . S
O602 C590 1.242 . S
O603 Tb581 2.324 . S
O603 C590 1.258 . S
O604 Eu582 2.500 . S
O604 C587 1.273 . S
O605 Eu582 2.473 . S
O605 C587 1.257 . S
H606 C592 0.929 . S
H607 C594 0.931 . S
H608 C596 0.929 . S
O609 Tb610 2.292 . S
O609 C612 1.255 . S
Tb610 O609 2.292 . S
Tb610 O626 2.326 . S
Tb610 O628 2.500 . S
Tb610 O629 2.473 . S
Tb610 O632 2.324 . S
Eu611 O615 2.292 . S
Eu611 C616 2.852 . S
Eu611 O627 2.324 . S
Eu611 O631 2.326 . S
Eu611 O633 2.500 . S
Eu611 O634 2.473 . S
C612 O609 1.255 . S
C612 O613 1.247 . S
O613 C612 1.247 . S
C614 O626 1.242 . S
C614 O627 1.258 . S
O615 Eu611 2.292 . S
O615 C617 1.255 . S
C616 Eu611 2.852 . S
C616 C620 1.503 . S
C616 O633 1.273 . S
C616 O634 1.257 . S
C617 O615 1.255 . S
C617 O618 1.247 . S
O618 C617 1.247 . S
C619 O631 1.242 . S
C619 O632 1.258 . S
C620 C616 1.503 . S
C620 C621 1.379 . S
C620 C625 1.392 . S
C621 C620 1.379 . S
C621 C622 1.404 . S
C621 H635 0.929 . S
C622 C621 1.404 . S
C622 C623 1.389 . S
C623 C622 1.389 . S
C623 C624 1.399 . S
C623 H636 0.931 . S
C624 C623 1.399 . S
C624 C625 1.390 . S
C625 C620 1.392 . S
C625 C624 1.390 . S
C625 H637 0.929 . S
O626 Tb610 2.326 . S
O626 C614 1.242 . S
O627 Eu611 2.324 . S
O627 C614 1.258 . S
O628 Tb610 2.500 . S
O628 C630 1.273 . S
O629 Tb610 2.473 . S
O629 C630 1.257 . S
C630 O628 1.273 . S
C630 O629 1.257 . S
O631 Eu611 2.326 . S
O631 C619 1.242 . S
O632 Tb610 2.324 . S
O632 C619 1.258 . S
O633 Eu611 2.500 . S
O633 C616 1.273 . S
O634 Eu611 2.473 . S
O634 C616 1.257 . S
H635 C621 0.929 . S
H636 C623 0.931 . S
H637 C625 0.929 . S
O638 Tb639 2.292 . S
O638 C641 1.255 . S
Tb639 O638 2.292 . S
Tb639 O655 2.326 . S
Tb639 O657 2.500 . S
Tb639 O658 2.473 . S
Tb639 O661 2.324 . S
Eu640 O644 2.292 . S
Eu640 C645 2.852 . S
Eu640 O656 2.324 . S
Eu640 O660 2.326 . S
Eu640 O662 2.500 . S
Eu640 O663 2.473 . S
C641 O638 1.255 . S
C641 O642 1.247 . S
O642 C641 1.247 . S
C643 O655 1.242 . S
C643 O656 1.258 . S
O644 Eu640 2.292 . S
O644 C646 1.255 . S
C645 Eu640 2.852 . S
C645 C649 1.503 . S
C645 O662 1.273 . S
C645 O663 1.257 . S
C646 O644 1.255 . S
C646 O647 1.247 . S
O647 C646 1.247 . S
C648 O660 1.242 . S
C648 O661 1.258 . S
C649 C645 1.503 . S
C649 C650 1.379 . S
C649 C654 1.392 . S
C650 C649 1.379 . S
C650 C651 1.404 . S
C650 H664 0.929 . S
C651 C650 1.404 . S
C651 C652 1.389 . S
C652 C651 1.389 . S
C652 C653 1.399 . S
C652 H665 0.931 . S
C653 C652 1.399 . S
C653 C654 1.390 . S
C654 C649 1.392 . S
C654 C653 1.390 . S
C654 H666 0.929 . S
O655 Tb639 2.326 . S
O655 C643 1.242 . S
O656 Eu640 2.324 . S
O656 C643 1.258 . S
O657 Tb639 2.500 . S
O657 C659 1.273 . S
O658 Tb639 2.473 . S
O658 C659 1.257 . S
C659 O657 1.273 . S
C659 O658 1.257 . S
O660 Eu640 2.326 . S
O660 C648 1.242 . S
O661 Tb639 2.324 . S
O661 C648 1.258 . S
O662 Eu640 2.500 . S
O662 C645 1.273 . S
O663 Eu640 2.473 . S
O663 C645 1.257 . S
H664 C650 0.929 . S
H665 C652 0.931 . S
H666 C654 0.929 . S
O667 Tb668 2.292 . S
O667 C670 1.255 . S
Tb668 O667 2.292 . S
Tb668 O684 2.326 . S
Tb668 O686 2.500 . S
Tb668 O687 2.473 . S
Tb668 O690 2.324 . S
Eu669 O673 2.292 . S
Eu669 C674 2.852 . S
Eu669 O685 2.324 . S
Eu669 O689 2.326 . S
Eu669 O691 2.500 . S
Eu669 O692 2.473 . S
C670 O667 1.255 . S
C670 O671 1.247 . S
O671 C670 1.247 . S
C672 O684 1.242 . S
C672 O685 1.258 . S
O673 Eu669 2.292 . S
O673 C675 1.255 . S
C674 Eu669 2.852 . S
C674 C678 1.503 . S
C674 O691 1.273 . S
C674 O692 1.257 . S
C675 O673 1.255 . S
C675 O676 1.247 . S
O676 C675 1.247 . S
C677 O689 1.242 . S
C677 O690 1.258 . S
C678 C674 1.503 . S
C678 C679 1.379 . S
C678 C683 1.392 . S
C679 C678 1.379 . S
C679 C680 1.404 . S
C679 H693 0.929 . S
C680 C679 1.404 . S
C680 C681 1.389 . S
C681 C680 1.389 . S
C681 C682 1.399 . S
C681 H694 0.931 . S
C682 C681 1.399 . S
C682 C683 1.390 . S
C683 C678 1.392 . S
C683 C682 1.390 . S
C683 H695 0.929 . S
O684 Tb668 2.326 . S
O684 C672 1.242 . S
O685 Eu669 2.324 . S
O685 C672 1.258 . S
O686 Tb668 2.500 . S
O686 C688 1.273 . S
O687 Tb668 2.473 . S
O687 C688 1.257 . S
C688 O686 1.273 . S
C688 O687 1.257 . S
O689 Eu669 2.326 . S
O689 C677 1.242 . S
O690 Tb668 2.324 . S
O690 C677 1.258 . S
O691 Eu669 2.500 . S
O691 C674 1.273 . S
O692 Eu669 2.473 . S
O692 C674 1.257 . S
H693 C679 0.929 . S
H694 C681 0.931 . S
H695 C683 0.929 . S
C696 C697 1.363 . S
C696 C702 1.379 . S
C696 N704 1.356 . S
C697 C696 1.363 . S
C697 C703 1.363 . S
C698 C699 1.363 . S
C698 C703 1.379 . S
C698 N705 1.356 . S
C699 C698 1.363 . S
C699 C702 1.363 . S
N700 C702 1.356 . S
N700 H712 0.984 . S
N700 H713 0.985 . S
N701 C703 1.356 . S
N701 H706 0.984 . S
N701 H707 0.985 . S
C702 C696 1.379 . S
C702 C699 1.363 . S
C702 N700 1.356 . S
C703 C697 1.363 . S
C703 C698 1.379 . S
C703 N701 1.356 . S
N704 C696 1.356 . S
N704 H710 0.984 . S
N704 H711 0.984 . S
N705 C698 1.356 . S
N705 H708 0.984 . S
N705 H709 0.985 . S
H706 N701 0.984 . S
H707 N701 0.985 . S
H708 N705 0.984 . S
H709 N705 0.985 . S
H710 N704 0.984 . S
H711 N704 0.984 . S
H712 N700 0.984 . S
H713 N700 0.985 . S
C714 C715 1.363 . S
C714 C720 1.379 . S
C714 N722 1.356 . S
C715 C714 1.363 . S
C715 C721 1.363 . S
C716 C717 1.363 . S
C716 C721 1.379 . S
C716 N723 1.356 . S
C717 C716 1.363 . S
C717 C720 1.363 . S
N718 C720 1.356 . S
N718 H730 0.984 . S
N718 H731 0.985 . S
N719 C721 1.356 . S
N719 H724 0.984 . S
N719 H725 0.985 . S
C720 C714 1.379 . S
C720 C717 1.363 . S
C720 N718 1.356 . S
C721 C715 1.363 . S
C721 C716 1.379 . S
C721 N719 1.356 . S
N722 C714 1.356 . S
N722 H728 0.984 . S
N722 H729 0.984 . S
N723 C716 1.356 . S
N723 H726 0.984 . S
N723 H727 0.985 . S
H724 N719 0.984 . S
H725 N719 0.985 . S
H726 N723 0.984 . S
H727 N723 0.985 . S
H728 N722 0.984 . S
H729 N722 0.984 . S
H730 N718 0.984 . S
H731 N718 0.985 . S
C732 C733 1.363 . S
C732 C738 1.379 . S
C732 N740 1.356 . S
C733 C732 1.363 . S
C733 C739 1.363 . S
C734 C735 1.363 . S
C734 C739 1.379 . S
C734 N741 1.356 . S
C735 C734 1.363 . S
C735 C738 1.363 . S
N736 C738 1.356 . S
N736 H748 0.984 . S
N736 H749 0.985 . S
N737 C739 1.356 . S
N737 H742 0.984 . S
N737 H743 0.985 . S
C738 C732 1.379 . S
C738 C735 1.363 . S
C738 N736 1.356 . S
C739 C733 1.363 . S
C739 C734 1.379 . S
C739 N737 1.356 . S
N740 C732 1.356 . S
N740 H746 0.984 . S
N740 H747 0.984 . S
N741 C734 1.356 . S
N741 H744 0.984 . S
N741 H745 0.985 . S
H742 N737 0.984 . S
H743 N737 0.985 . S
H744 N741 0.984 . S
H745 N741 0.985 . S
H746 N740 0.984 . S
H747 N740 0.984 . S
H748 N736 0.984 . S
H749 N736 0.985 . S
C750 C751 1.363 . S
C750 C756 1.379 . S
C750 N758 1.356 . S
C751 C750 1.363 . S
C751 C757 1.363 . S
C752 C753 1.363 . S
C752 C757 1.379 . S
C752 N759 1.356 . S
C753 C752 1.363 . S
C753 C756 1.363 . S
N754 C756 1.356 . S
N754 H766 0.984 . S
N754 H767 0.985 . S
N755 C757 1.356 . S
N755 H760 0.984 . S
N755 H761 0.985 . S
C756 C750 1.379 . S
C756 C753 1.363 . S
C756 N754 1.356 . S
C757 C751 1.363 . S
C757 C752 1.379 . S
C757 N755 1.356 . S
N758 C750 1.356 . S
N758 H764 0.984 . S
N758 H765 0.984 . S
N759 C752 1.356 . S
N759 H762 0.984 . S
N759 H763 0.985 . S
H760 N755 0.984 . S
H761 N755 0.985 . S
H762 N759 0.984 . S
H763 N759 0.985 . S
H764 N758 0.984 . S
H765 N758 0.984 . S
H766 N754 0.984 . S
H767 N754 0.985 . S
C768 C769 1.363 . S
C768 C774 1.379 . S
C768 N776 1.356 . S
C769 C768 1.363 . S
C769 C775 1.363 . S
C770 C771 1.363 . S
C770 C775 1.379 . S
C770 N777 1.356 . S
C771 C770 1.363 . S
C771 C774 1.363 . S
N772 C774 1.356 . S
N772 H784 0.984 . S
N772 H785 0.985 . S
N773 C775 1.356 . S
N773 H778 0.984 . S
N773 H779 0.985 . S
C774 C768 1.379 . S
C774 C771 1.363 . S
C774 N772 1.356 . S
C775 C769 1.363 . S
C775 C770 1.379 . S
C775 N773 1.356 . S
N776 C768 1.356 . S
N776 H782 0.984 . S
N776 H783 0.984 . S
N777 C770 1.356 . S
N777 H780 0.984 . S
N777 H781 0.985 . S
H778 N773 0.984 . S
H779 N773 0.985 . S
H780 N777 0.984 . S
H781 N777 0.985 . S
H782 N776 0.984 . S
H783 N776 0.984 . S
H784 N772 0.984 . S
H785 N772 0.985 . S
C786 C787 1.363 . S
C786 C792 1.379 . S
C786 N794 1.356 . S
C787 C786 1.363 . S
C787 C793 1.363 . S
C788 C789 1.363 . S
C788 C793 1.379 . S
C788 N795 1.356 . S
C789 C788 1.363 . S
C789 C792 1.363 . S
N790 C792 1.356 . S
N790 H802 0.984 . S
N790 H803 0.985 . S
N791 C793 1.356 . S
N791 H796 0.984 . S
N791 H797 0.985 . S
C792 C786 1.379 . S
C792 C789 1.363 . S
C792 N790 1.356 . S
C793 C787 1.363 . S
C793 C788 1.379 . S
C793 N791 1.356 . S
N794 C786 1.356 . S
N794 H800 0.984 . S
N794 H801 0.984 . S
N795 C788 1.356 . S
N795 H798 0.984 . S
N795 H799 0.985 . S
H796 N791 0.984 . S
H797 N791 0.985 . S
H798 N795 0.984 . S
H799 N795 0.985 . S
H800 N794 0.984 . S
H801 N794 0.984 . S
H802 N790 0.984 . S
H803 N790 0.985 . S
C804 C805 1.363 . S
C804 C810 1.379 . S
C804 N812 1.356 . S
C805 C804 1.363 . S
C805 C811 1.363 . S
C806 C807 1.363 . S
C806 C811 1.379 . S
C806 N813 1.356 . S
C807 C806 1.363 . S
C807 C810 1.363 . S
N808 C810 1.356 . S
N808 H820 0.984 . S
N808 H821 0.985 . S
N809 C811 1.356 . S
N809 H814 0.984 . S
N809 H815 0.985 . S
C810 C804 1.379 . S
C810 C807 1.363 . S
C810 N808 1.356 . S
C811 C805 1.363 . S
C811 C806 1.379 . S
C811 N809 1.356 . S
N812 C804 1.356 . S
N812 H818 0.984 . S
N812 H819 0.984 . S
N813 C806 1.356 . S
N813 H816 0.984 . S
N813 H817 0.985 . S
H814 N809 0.984 . S
H815 N809 0.985 . S
H816 N813 0.984 . S
H817 N813 0.985 . S
H818 N812 0.984 . S
H819 N812 0.984 . S
H820 N808 0.984 . S
H821 N808 0.985 . S
C822 C823 1.363 . S
C822 C828 1.379 . S
C822 N830 1.356 . S
C823 C822 1.363 . S
C823 C829 1.363 . S
C824 C825 1.363 . S
C824 C829 1.379 . S
C824 N831 1.356 . S
C825 C824 1.363 . S
C825 C828 1.363 . S
N826 C828 1.356 . S
N826 H838 0.984 . S
N826 H839 0.985 . S
N827 C829 1.356 . S
N827 H832 0.984 . S
N827 H833 0.985 . S
C828 C822 1.379 . S
C828 C825 1.363 . S
C828 N826 1.356 . S
C829 C823 1.363 . S
C829 C824 1.379 . S
C829 N827 1.356 . S
N830 C822 1.356 . S
N830 H836 0.984 . S
N830 H837 0.984 . S
N831 C824 1.356 . S
N831 H834 0.984 . S
N831 H835 0.985 . S
H832 N827 0.984 . S
H833 N827 0.985 . S
H834 N831 0.984 . S
H835 N831 0.985 . S
H836 N830 0.984 . S
H837 N830 0.984 . S
H838 N826 0.984 . S
H839 N826 0.985 . S
C840 C841 1.363 . S
C840 C846 1.379 . S
C840 N848 1.356 . S
C841 C840 1.363 . S
C841 C847 1.363 . S
C842 C843 1.363 . S
C842 C847 1.379 . S
C842 N849 1.356 . S
C843 C842 1.363 . S
C843 C846 1.363 . S
N844 C846 1.356 . S
N844 H856 0.984 . S
N844 H857 0.985 . S
N845 C847 1.356 . S
N845 H850 0.984 . S
N845 H851 0.985 . S
C846 C840 1.379 . S
C846 C843 1.363 . S
C846 N844 1.356 . S
C847 C841 1.363 . S
C847 C842 1.379 . S
C847 N845 1.356 . S
N848 C840 1.356 . S
N848 H854 0.984 . S
N848 H855 0.984 . S
N849 C842 1.356 . S
N849 H852 0.984 . S
N849 H853 0.985 . S
H850 N845 0.984 . S
H851 N845 0.985 . S
H852 N849 0.984 . S
H853 N849 0.985 . S
H854 N848 0.984 . S
H855 N848 0.984 . S
H856 N844 0.984 . S
H857 N844 0.985 . S
C858 C859 1.363 . S
C858 C864 1.379 . S
C858 N866 1.356 . S
C859 C858 1.363 . S
C859 C865 1.363 . S
C860 C861 1.363 . S
C860 C865 1.379 . S
C860 N867 1.356 . S
C861 C860 1.363 . S
C861 C864 1.363 . S
N862 C864 1.356 . S
N862 H874 0.984 . S
N862 H875 0.985 . S
N863 C865 1.356 . S
N863 H868 0.984 . S
N863 H869 0.985 . S
C864 C858 1.379 . S
C864 C861 1.363 . S
C864 N862 1.356 . S
C865 C859 1.363 . S
C865 C860 1.379 . S
C865 N863 1.356 . S
N866 C858 1.356 . S
N866 H872 0.984 . S
N866 H873 0.984 . S
N867 C860 1.356 . S
N867 H870 0.984 . S
N867 H871 0.985 . S
H868 N863 0.984 . S
H869 N863 0.985 . S
H870 N867 0.984 . S
H871 N867 0.985 . S
H872 N866 0.984 . S
H873 N866 0.984 . S
H874 N862 0.984 . S
H875 N862 0.985 . S
C876 C877 1.363 . S
C876 C882 1.379 . S
C876 N884 1.356 . S
C877 C876 1.363 . S
C877 C883 1.363 . S
C878 C879 1.363 . S
C878 C883 1.379 . S
C878 N885 1.356 . S
C879 C878 1.363 . S
C879 C882 1.363 . S
N880 C882 1.356 . S
N880 H892 0.984 . S
N880 H893 0.985 . S
N881 C883 1.356 . S
N881 H886 0.984 . S
N881 H887 0.985 . S
C882 C876 1.379 . S
C882 C879 1.363 . S
C882 N880 1.356 . S
C883 C877 1.363 . S
C883 C878 1.379 . S
C883 N881 1.356 . S
N884 C876 1.356 . S
N884 H890 0.984 . S
N884 H891 0.984 . S
N885 C878 1.356 . S
N885 H888 0.984 . S
N885 H889 0.985 . S
H886 N881 0.984 . S
H887 N881 0.985 . S
H888 N885 0.984 . S
H889 N885 0.985 . S
H890 N884 0.984 . S
H891 N884 0.984 . S
H892 N880 0.984 . S
H893 N880 0.985 . S
C894 C895 1.363 . S
C894 C900 1.379 . S
C894 N902 1.356 . S
C895 C894 1.363 . S
C895 C901 1.363 . S
C896 C897 1.363 . S
C896 C901 1.379 . S
C896 N903 1.356 . S
C897 C896 1.363 . S
C897 C900 1.363 . S
N898 C900 1.356 . S
N898 H910 0.984 . S
N898 H911 0.985 . S
N899 C901 1.356 . S
N899 H904 0.984 . S
N899 H905 0.985 . S
C900 C894 1.379 . S
C900 C897 1.363 . S
C900 N898 1.356 . S
C901 C895 1.363 . S
C901 C896 1.379 . S
C901 N899 1.356 . S
N902 C894 1.356 . S
N902 H908 0.984 . S
N902 H909 0.984 . S
N903 C896 1.356 . S
N903 H906 0.984 . S
N903 H907 0.985 . S
H904 N899 0.984 . S
H905 N899 0.985 . S
H906 N903 0.984 . S
H907 N903 0.985 . S
H908 N902 0.984 . S
H909 N902 0.984 . S
H910 N898 0.984 . S
H911 N898 0.985 . S
C912 C913 1.363 . S
C912 C918 1.379 . S
C912 N920 1.356 . S
C913 C912 1.363 . S
C913 C919 1.363 . S
C914 C915 1.363 . S
C914 C919 1.379 . S
C914 N921 1.356 . S
C915 C914 1.363 . S
C915 C918 1.363 . S
N916 C918 1.356 . S
N916 H928 0.984 . S
N916 H929 0.985 . S
N917 C919 1.356 . S
N917 H922 0.984 . S
N917 H923 0.985 . S
C918 C912 1.379 . S
C918 C915 1.363 . S
C918 N916 1.356 . S
C919 C913 1.363 . S
C919 C914 1.379 . S
C919 N917 1.356 . S
N920 C912 1.356 . S
N920 H926 0.984 . S
N920 H927 0.984 . S
N921 C914 1.356 . S
N921 H924 0.984 . S
N921 H925 0.985 . S
H922 N917 0.984 . S
H923 N917 0.985 . S
H924 N921 0.984 . S
H925 N921 0.985 . S
H926 N920 0.984 . S
H927 N920 0.984 . S
H928 N916 0.984 . S
H929 N916 0.985 . S
C930 C931 1.363 . S
C930 C936 1.379 . S
C930 N938 1.356 . S
C931 C930 1.363 . S
C931 C937 1.363 . S
C932 C933 1.363 . S
C932 C937 1.379 . S
C932 N939 1.356 . S
C933 C932 1.363 . S
C933 C936 1.363 . S
N934 C936 1.356 . S
N934 H946 0.984 . S
N934 H947 0.985 . S
N935 C937 1.356 . S
N935 H940 0.984 . S
N935 H941 0.985 . S
C936 C930 1.379 . S
C936 C933 1.363 . S
C936 N934 1.356 . S
C937 C931 1.363 . S
C937 C932 1.379 . S
C937 N935 1.356 . S
N938 C930 1.356 . S
N938 H944 0.984 . S
N938 H945 0.984 . S
N939 C932 1.356 . S
N939 H942 0.984 . S
N939 H943 0.985 . S
H940 N935 0.984 . S
H941 N935 0.985 . S
H942 N939 0.984 . S
H943 N939 0.985 . S
H944 N938 0.984 . S
H945 N938 0.984 . S
H946 N934 0.984 . S
H947 N934 0.985 . S
C948 C949 1.363 . S
C948 C954 1.379 . S
C948 N956 1.356 . S
C949 C948 1.363 . S
C949 C955 1.363 . S
C950 C951 1.363 . S
C950 C955 1.379 . S
C950 N957 1.356 . S
C951 C950 1.363 . S
C951 C954 1.363 . S
N952 C954 1.356 . S
N952 H964 0.984 . S
N952 H965 0.985 . S
N953 C955 1.356 . S
N953 H958 0.984 . S
N953 H959 0.985 . S
C954 C948 1.379 . S
C954 C951 1.363 . S
C954 N952 1.356 . S
C955 C949 1.363 . S
C955 C950 1.379 . S
C955 N953 1.356 . S
N956 C948 1.356 . S
N956 H962 0.984 . S
N956 H963 0.984 . S
N957 C950 1.356 . S
N957 H960 0.984 . S
N957 H961 0.985 . S
H958 N953 0.984 . S
H959 N953 0.985 . S
H960 N957 0.984 . S
H961 N957 0.985 . S
H962 N956 0.984 . S
H963 N956 0.984 . S
H964 N952 0.984 . S
H965 N952 0.985 . S
C966 C967 1.363 . S
C966 C972 1.379 . S
C966 N974 1.356 . S
C967 C966 1.363 . S
C967 C973 1.363 . S
C968 C969 1.363 . S
C968 C973 1.379 . S
C968 N975 1.356 . S
C969 C968 1.363 . S
C969 C972 1.363 . S
N970 C972 1.356 . S
N970 H982 0.984 . S
N970 H983 0.985 . S
N971 C973 1.356 . S
N971 H976 0.984 . S
N971 H977 0.985 . S
C972 C966 1.379 . S
C972 C969 1.363 . S
C972 N970 1.356 . S
C973 C967 1.363 . S
C973 C968 1.379 . S
C973 N971 1.356 . S
N974 C966 1.356 . S
N974 H980 0.984 . S
N974 H981 0.984 . S
N975 C968 1.356 . S
N975 H978 0.984 . S
N975 H979 0.985 . S
H976 N971 0.984 . S
H977 N971 0.985 . S
H978 N975 0.984 . S
H979 N975 0.985 . S
H980 N974 0.984 . S
H981 N974 0.984 . S
H982 N970 0.984 . S
H983 N970 0.985 . S
C984 C985 1.363 . S
C984 C990 1.379 . S
C984 N992 1.356 . S
C985 C984 1.363 . S
C985 C991 1.363 . S
C986 C987 1.363 . S
C986 C991 1.379 . S
C986 N993 1.356 . S
C987 C986 1.363 . S
C987 C990 1.363 . S
N988 C990 1.356 . S
N988 H1000 0.984 . S
N988 H1001 0.985 . S
N989 C991 1.356 . S
N989 H994 0.984 . S
N989 H995 0.985 . S
C990 C984 1.379 . S
C990 C987 1.363 . S
C990 N988 1.356 . S
C991 C985 1.363 . S
C991 C986 1.379 . S
C991 N989 1.356 . S
N992 C984 1.356 . S
N992 H998 0.984 . S
N992 H999 0.984 . S
N993 C986 1.356 . S
N993 H996 0.984 . S
N993 H997 0.985 . S
H994 N989 0.984 . S
H995 N989 0.985 . S
H996 N993 0.984 . S
H997 N993 0.985 . S
H998 N992 0.984 . S
H999 N992 0.984 . S
H1000 N988 0.984 . S
H1001 N988 0.985 . S
C1002 C1003 1.363 . S
C1002 C1008 1.379 . S
C1002 N1010 1.356 . S
C1003 C1002 1.363 . S
C1003 C1009 1.363 . S
C1004 C1005 1.363 . S
C1004 C1009 1.379 . S
C1004 N1011 1.356 . S
C1005 C1004 1.363 . S
C1005 C1008 1.363 . S
N1006 C1008 1.356 . S
N1006 H1018 0.984 . S
N1006 H1019 0.985 . S
N1007 C1009 1.356 . S
N1007 H1012 0.984 . S
N1007 H1013 0.985 . S
C1008 C1002 1.379 . S
C1008 C1005 1.363 . S
C1008 N1006 1.356 . S
C1009 C1003 1.363 . S
C1009 C1004 1.379 . S
C1009 N1007 1.356 . S
N1010 C1002 1.356 . S
N1010 H1016 0.984 . S
N1010 H1017 0.984 . S
N1011 C1004 1.356 . S
N1011 H1014 0.984 . S
N1011 H1015 0.985 . S
H1012 N1007 0.984 . S
H1013 N1007 0.985 . S
H1014 N1011 0.984 . S
H1015 N1011 0.985 . S
H1016 N1010 0.984 . S
H1017 N1010 0.984 . S
H1018 N1006 0.984 . S
H1019 N1006 0.985 . S
C1020 C1021 1.363 . S
C1020 C1026 1.379 . S
C1020 N1028 1.356 . S
C1021 C1020 1.363 . S
C1021 C1027 1.363 . S
C1022 C1023 1.363 . S
C1022 C1027 1.379 . S
C1022 N1029 1.356 . S
C1023 C1022 1.363 . S
C1023 C1026 1.363 . S
N1024 C1026 1.356 . S
N1024 H1036 0.984 . S
N1024 H1037 0.985 . S
N1025 C1027 1.356 . S
N1025 H1030 0.984 . S
N1025 H1031 0.985 . S
C1026 C1020 1.379 . S
C1026 C1023 1.363 . S
C1026 N1024 1.356 . S
C1027 C1021 1.363 . S
C1027 C1022 1.379 . S
C1027 N1025 1.356 . S
N1028 C1020 1.356 . S
N1028 H1034 0.984 . S
N1028 H1035 0.984 . S
N1029 C1022 1.356 . S
N1029 H1032 0.984 . S
N1029 H1033 0.985 . S
H1030 N1025 0.984 . S
H1031 N1025 0.985 . S
H1032 N1029 0.984 . S
H1033 N1029 0.985 . S
H1034 N1028 0.984 . S
H1035 N1028 0.984 . S
H1036 N1024 0.984 . S
H1037 N1024 0.985 . S
C1038 C1039 1.363 . S
C1038 C1044 1.379 . S
C1038 N1046 1.356 . S
C1039 C1038 1.363 . S
C1039 C1045 1.363 . S
C1040 C1041 1.363 . S
C1040 C1045 1.379 . S
C1040 N1047 1.356 . S
C1041 C1040 1.363 . S
C1041 C1044 1.363 . S
N1042 C1044 1.356 . S
N1042 H1054 0.984 . S
N1042 H1055 0.985 . S
N1043 C1045 1.356 . S
N1043 H1048 0.984 . S
N1043 H1049 0.985 . S
C1044 C1038 1.379 . S
C1044 C1041 1.363 . S
C1044 N1042 1.356 . S
C1045 C1039 1.363 . S
C1045 C1040 1.379 . S
C1045 N1043 1.356 . S
N1046 C1038 1.356 . S
N1046 H1052 0.984 . S
N1046 H1053 0.984 . S
N1047 C1040 1.356 . S
N1047 H1050 0.984 . S
N1047 H1051 0.985 . S
H1048 N1043 0.984 . S
H1049 N1043 0.985 . S
H1050 N1047 0.984 . S
H1051 N1047 0.985 . S
H1052 N1046 0.984 . S
H1053 N1046 0.984 . S
H1054 N1042 0.984 . S
H1055 N1042 0.985 . S
C1056 C1057 1.363 . S
C1056 C1062 1.379 . S
C1056 N1064 1.356 . S
C1057 C1056 1.363 . S
C1057 C1063 1.363 . S
C1058 C1059 1.363 . S
C1058 C1063 1.379 . S
C1058 N1065 1.356 . S
C1059 C1058 1.363 . S
C1059 C1062 1.363 . S
N1060 C1062 1.356 . S
N1060 H1072 0.984 . S
N1060 H1073 0.985 . S
N1061 C1063 1.356 . S
N1061 H1066 0.984 . S
N1061 H1067 0.985 . S
C1062 C1056 1.379 . S
C1062 C1059 1.363 . S
C1062 N1060 1.356 . S
C1063 C1057 1.363 . S
C1063 C1058 1.379 . S
C1063 N1061 1.356 . S
N1064 C1056 1.356 . S
N1064 H1070 0.984 . S
N1064 H1071 0.984 . S
N1065 C1058 1.356 . S
N1065 H1068 0.984 . S
N1065 H1069 0.985 . S
H1066 N1061 0.984 . S
H1067 N1061 0.985 . S
H1068 N1065 0.984 . S
H1069 N1065 0.985 . S
H1070 N1064 0.984 . S
H1071 N1064 0.984 . S
H1072 N1060 0.984 . S
H1073 N1060 0.985 . S
C1074 C1075 1.363 . S
C1074 C1080 1.379 . S
C1074 N1082 1.356 . S
C1075 C1074 1.363 . S
C1075 C1081 1.363 . S
C1076 C1077 1.363 . S
C1076 C1081 1.379 . S
C1076 N1083 1.356 . S
C1077 C1076 1.363 . S
C1077 C1080 1.363 . S
N1078 C1080 1.356 . S
N1078 H1090 0.984 . S
N1078 H1091 0.985 . S
N1079 C1081 1.356 . S
N1079 H1084 0.984 . S
N1079 H1085 0.985 . S
C1080 C1074 1.379 . S
C1080 C1077 1.363 . S
C1080 N1078 1.356 . S
C1081 C1075 1.363 . S
C1081 C1076 1.379 . S
C1081 N1079 1.356 . S
N1082 C1074 1.356 . S
N1082 H1088 0.984 . S
N1082 H1089 0.984 . S
N1083 C1076 1.356 . S
N1083 H1086 0.984 . S
N1083 H1087 0.985 . S
H1084 N1079 0.984 . S
H1085 N1079 0.985 . S
H1086 N1083 0.984 . S
H1087 N1083 0.985 . S
H1088 N1082 0.984 . S
H1089 N1082 0.984 . S
H1090 N1078 0.984 . S
H1091 N1078 0.985 . S
C1092 C1093 1.363 . S
C1092 C1098 1.379 . S
C1092 N1100 1.356 . S
C1093 C1092 1.363 . S
C1093 C1099 1.363 . S
C1094 C1095 1.363 . S
C1094 C1099 1.379 . S
C1094 N1101 1.356 . S
C1095 C1094 1.363 . S
C1095 C1098 1.363 . S
N1096 C1098 1.356 . S
N1096 H1108 0.984 . S
N1096 H1109 0.985 . S
N1097 C1099 1.356 . S
N1097 H1102 0.984 . S
N1097 H1103 0.985 . S
C1098 C1092 1.379 . S
C1098 C1095 1.363 . S
C1098 N1096 1.356 . S
C1099 C1093 1.363 . S
C1099 C1094 1.379 . S
C1099 N1097 1.356 . S
N1100 C1092 1.356 . S
N1100 H1106 0.984 . S
N1100 H1107 0.984 . S
N1101 C1094 1.356 . S
N1101 H1104 0.984 . S
N1101 H1105 0.985 . S
H1102 N1097 0.984 . S
H1103 N1097 0.985 . S
H1104 N1101 0.984 . S
H1105 N1101 0.985 . S
H1106 N1100 0.984 . S
H1107 N1100 0.984 . S
H1108 N1096 0.984 . S
H1109 N1096 0.985 . S
C1110 C1111 1.363 . S
C1110 C1116 1.379 . S
C1110 N1118 1.356 . S
C1111 C1110 1.363 . S
C1111 C1117 1.363 . S
C1112 C1113 1.363 . S
C1112 C1117 1.379 . S
C1112 N1119 1.356 . S
C1113 C1112 1.363 . S
C1113 C1116 1.363 . S
N1114 C1116 1.356 . S
N1114 H1126 0.984 . S
N1114 H1127 0.985 . S
N1115 C1117 1.356 . S
N1115 H1120 0.984 . S
N1115 H1121 0.985 . S
C1116 C1110 1.379 . S
C1116 C1113 1.363 . S
C1116 N1114 1.356 . S
C1117 C1111 1.363 . S
C1117 C1112 1.379 . S
C1117 N1115 1.356 . S
N1118 C1110 1.356 . S
N1118 H1124 0.984 . S
N1118 H1125 0.984 . S
N1119 C1112 1.356 . S
N1119 H1122 0.984 . S
N1119 H1123 0.985 . S
H1120 N1115 0.984 . S
H1121 N1115 0.985 . S
H1122 N1119 0.984 . S
H1123 N1119 0.985 . S
H1124 N1118 0.984 . S
H1125 N1118 0.984 . S
H1126 N1114 0.984 . S
H1127 N1114 0.985 . S
C1128 C1129 1.363 . S
C1128 C1134 1.379 . S
C1128 N1136 1.356 . S
C1129 C1128 1.363 . S
C1129 C1135 1.363 . S
C1130 C1131 1.363 . S
C1130 C1135 1.379 . S
C1130 N1137 1.356 . S
C1131 C1130 1.363 . S
C1131 C1134 1.363 . S
N1132 C1134 1.356 . S
N1132 H1144 0.984 . S
N1132 H1145 0.985 . S
N1133 C1135 1.356 . S
N1133 H1138 0.984 . S
N1133 H1139 0.985 . S
C1134 C1128 1.379 . S
C1134 C1131 1.363 . S
C1134 N1132 1.356 . S
C1135 C1129 1.363 . S
C1135 C1130 1.379 . S
C1135 N1133 1.356 . S
N1136 C1128 1.356 . S
N1136 H1142 0.984 . S
N1136 H1143 0.984 . S
N1137 C1130 1.356 . S
N1137 H1140 0.984 . S
N1137 H1141 0.985 . S
H1138 N1133 0.984 . S
H1139 N1133 0.985 . S
H1140 N1137 0.984 . S
H1141 N1137 0.985 . S
H1142 N1136 0.984 . S
H1143 N1136 0.984 . S
H1144 N1132 0.984 . S
H1145 N1132 0.985 . S
C1146 C1147 1.363 . S
C1146 C1152 1.379 . S
C1146 N1154 1.356 . S
C1147 C1146 1.363 . S
C1147 C1153 1.363 . S
C1148 C1149 1.363 . S
C1148 C1153 1.379 . S
C1148 N1155 1.356 . S
C1149 C1148 1.363 . S
C1149 C1152 1.363 . S
N1150 C1152 1.356 . S
N1150 H1162 0.984 . S
N1150 H1163 0.985 . S
N1151 C1153 1.356 . S
N1151 H1156 0.984 . S
N1151 H1157 0.985 . S
C1152 C1146 1.379 . S
C1152 C1149 1.363 . S
C1152 N1150 1.356 . S
C1153 C1147 1.363 . S
C1153 C1148 1.379 . S
C1153 N1151 1.356 . S
N1154 C1146 1.356 . S
N1154 H1160 0.984 . S
N1154 H1161 0.984 . S
N1155 C1148 1.356 . S
N1155 H1158 0.984 . S
N1155 H1159 0.985 . S
H1156 N1151 0.984 . S
H1157 N1151 0.985 . S
H1158 N1155 0.984 . S
H1159 N1155 0.985 . S
H1160 N1154 0.984 . S
H1161 N1154 0.984 . S
H1162 N1150 0.984 . S
H1163 N1150 0.985 . S
C1164 C1165 1.363 . S
C1164 C1170 1.379 . S
C1164 N1172 1.356 . S
C1165 C1164 1.363 . S
C1165 C1171 1.363 . S
C1166 C1167 1.363 . S
C1166 C1171 1.379 . S
C1166 N1173 1.356 . S
C1167 C1166 1.363 . S
C1167 C1170 1.363 . S
N1168 C1170 1.356 . S
N1168 H1180 0.984 . S
N1168 H1181 0.985 . S
N1169 C1171 1.356 . S
N1169 H1174 0.984 . S
N1169 H1175 0.985 . S
C1170 C1164 1.379 . S
C1170 C1167 1.363 . S
C1170 N1168 1.356 . S
C1171 C1165 1.363 . S
C1171 C1166 1.379 . S
C1171 N1169 1.356 . S
N1172 C1164 1.356 . S
N1172 H1178 0.984 . S
N1172 H1179 0.984 . S
N1173 C1166 1.356 . S
N1173 H1176 0.984 . S
N1173 H1177 0.985 . S
H1174 N1169 0.984 . S
H1175 N1169 0.985 . S
H1176 N1173 0.984 . S
H1177 N1173 0.985 . S
H1178 N1172 0.984 . S
H1179 N1172 0.984 . S
H1180 N1168 0.984 . S
H1181 N1168 0.985 . S
C1182 C1183 1.363 . S
C1182 C1188 1.379 . S
C1182 N1190 1.356 . S
C1183 C1182 1.363 . S
C1183 C1189 1.363 . S
C1184 C1185 1.363 . S
C1184 C1189 1.379 . S
C1184 N1191 1.356 . S
C1185 C1184 1.363 . S
C1185 C1188 1.363 . S
N1186 C1188 1.356 . S
N1186 H1198 0.984 . S
N1186 H1199 0.985 . S
N1187 C1189 1.356 . S
N1187 H1192 0.984 . S
N1187 H1193 0.985 . S
C1188 C1182 1.379 . S
C1188 C1185 1.363 . S
C1188 N1186 1.356 . S
C1189 C1183 1.363 . S
C1189 C1184 1.379 . S
C1189 N1187 1.356 . S
N1190 C1182 1.356 . S
N1190 H1196 0.984 . S
N1190 H1197 0.984 . S
N1191 C1184 1.356 . S
N1191 H1194 0.984 . S
N1191 H1195 0.985 . S
H1192 N1187 0.984 . S
H1193 N1187 0.985 . S
H1194 N1191 0.984 . S
H1195 N1191 0.985 . S
H1196 N1190 0.984 . S
H1197 N1190 0.984 . S
H1198 N1186 0.984 . S
H1199 N1186 0.985 . S
C1200 C1201 1.363 . S
C1200 C1206 1.379 . S
C1200 N1208 1.356 . S
C1201 C1200 1.363 . S
C1201 C1207 1.363 . S
C1202 C1203 1.363 . S
C1202 C1207 1.379 . S
C1202 N1209 1.356 . S
C1203 C1202 1.363 . S
C1203 C1206 1.363 . S
N1204 C1206 1.356 . S
N1204 H1216 0.984 . S
N1204 H1217 0.985 . S
N1205 C1207 1.356 . S
N1205 H1210 0.984 . S
N1205 H1211 0.985 . S
C1206 C1200 1.379 . S
C1206 C1203 1.363 . S
C1206 N1204 1.356 . S
C1207 C1201 1.363 . S
C1207 C1202 1.379 . S
C1207 N1205 1.356 . S
N1208 C1200 1.356 . S
N1208 H1214 0.984 . S
N1208 H1215 0.984 . S
N1209 C1202 1.356 . S
N1209 H1212 0.984 . S
N1209 H1213 0.985 . S
H1210 N1205 0.984 . S
H1211 N1205 0.985 . S
H1212 N1209 0.984 . S
H1213 N1209 0.985 . S
H1214 N1208 0.984 . S
H1215 N1208 0.984 . S
H1216 N1204 0.984 . S
H1217 N1204 0.985 . S
C1218 C1219 1.363 . S
C1218 C1224 1.379 . S
C1218 N1226 1.356 . S
C1219 C1218 1.363 . S
C1219 C1225 1.363 . S
C1220 C1221 1.363 . S
C1220 C1225 1.379 . S
C1220 N1227 1.356 . S
C1221 C1220 1.363 . S
C1221 C1224 1.363 . S
N1222 C1224 1.356 . S
N1222 H1234 0.984 . S
N1222 H1235 0.985 . S
N1223 C1225 1.356 . S
N1223 H1228 0.984 . S
N1223 H1229 0.985 . S
C1224 C1218 1.379 . S
C1224 C1221 1.363 . S
C1224 N1222 1.356 . S
C1225 C1219 1.363 . S
C1225 C1220 1.379 . S
C1225 N1223 1.356 . S
N1226 C1218 1.356 . S
N1226 H1232 0.984 . S
N1226 H1233 0.984 . S
N1227 C1220 1.356 . S
N1227 H1230 0.984 . S
N1227 H1231 0.985 . S
H1228 N1223 0.984 . S
H1229 N1223 0.985 . S
H1230 N1227 0.984 . S
H1231 N1227 0.985 . S
H1232 N1226 0.984 . S
H1233 N1226 0.984 . S
H1234 N1222 0.984 . S
H1235 N1222 0.985 . S
C1236 C1237 1.363 . S
C1236 C1242 1.379 . S
C1236 N1244 1.356 . S
C1237 C1236 1.363 . S
C1237 C1243 1.363 . S
C1238 C1239 1.363 . S
C1238 C1243 1.379 . S
C1238 N1245 1.356 . S
C1239 C1238 1.363 . S
C1239 C1242 1.363 . S
N1240 C1242 1.356 . S
N1240 H1252 0.984 . S
N1240 H1253 0.985 . S
N1241 C1243 1.356 . S
N1241 H1246 0.984 . S
N1241 H1247 0.985 . S
C1242 C1236 1.379 . S
C1242 C1239 1.363 . S
C1242 N1240 1.356 . S
C1243 C1237 1.363 . S
C1243 C1238 1.379 . S
C1243 N1241 1.356 . S
N1244 C1236 1.356 . S
N1244 H1250 0.984 . S
N1244 H1251 0.984 . S
N1245 C1238 1.356 . S
N1245 H1248 0.984 . S
N1245 H1249 0.985 . S
H1246 N1241 0.984 . S
H1247 N1241 0.985 . S
H1248 N1245 0.984 . S
H1249 N1245 0.985 . S
H1250 N1244 0.984 . S
H1251 N1244 0.984 . S
H1252 N1240 0.984 . S
H1253 N1240 0.985 . S
C1254 C1255 1.363 . S
C1254 C1260 1.379 . S
C1254 N1262 1.356 . S
C1255 C1254 1.363 . S
C1255 C1261 1.363 . S
C1256 C1257 1.363 . S
C1256 C1261 1.379 . S
C1256 N1263 1.356 . S
C1257 C1256 1.363 . S
C1257 C1260 1.363 . S
N1258 C1260 1.356 . S
N1258 H1270 0.984 . S
N1258 H1271 0.985 . S
N1259 C1261 1.356 . S
N1259 H1264 0.984 . S
N1259 H1265 0.985 . S
C1260 C1254 1.379 . S
C1260 C1257 1.363 . S
C1260 N1258 1.356 . S
C1261 C1255 1.363 . S
C1261 C1256 1.379 . S
C1261 N1259 1.356 . S
N1262 C1254 1.356 . S
N1262 H1268 0.984 . S
N1262 H1269 0.984 . S
N1263 C1256 1.356 . S
N1263 H1266 0.984 . S
N1263 H1267 0.985 . S
H1264 N1259 0.984 . S
H1265 N1259 0.985 . S
H1266 N1263 0.984 . S
H1267 N1263 0.985 . S
H1268 N1262 0.984 . S
H1269 N1262 0.984 . S
H1270 N1258 0.984 . S
H1271 N1258 0.985 . S
C1272 C1273 1.363 . S
C1272 C1278 1.379 . S
C1272 N1280 1.356 . S
C1273 C1272 1.363 . S
C1273 C1279 1.363 . S
C1274 C1275 1.363 . S
C1274 C1279 1.379 . S
C1274 N1281 1.356 . S
C1275 C1274 1.363 . S
C1275 C1278 1.363 . S
N1276 C1278 1.356 . S
N1276 H1288 0.984 . S
N1276 H1289 0.985 . S
N1277 C1279 1.356 . S
N1277 H1282 0.984 . S
N1277 H1283 0.985 . S
C1278 C1272 1.379 . S
C1278 C1275 1.363 . S
C1278 N1276 1.356 . S
C1279 C1273 1.363 . S
C1279 C1274 1.379 . S
C1279 N1277 1.356 . S
N1280 C1272 1.356 . S
N1280 H1286 0.984 . S
N1280 H1287 0.984 . S
N1281 C1274 1.356 . S
N1281 H1284 0.984 . S
N1281 H1285 0.985 . S
H1282 N1277 0.984 . S
H1283 N1277 0.985 . S
H1284 N1281 0.984 . S
H1285 N1281 0.985 . S
H1286 N1280 0.984 . S
H1287 N1280 0.984 . S
H1288 N1276 0.984 . S
H1289 N1276 0.985 . S
C1290 C1291 1.363 . S
C1290 C1296 1.379 . S
C1290 N1298 1.356 . S
C1291 C1290 1.363 . S
C1291 C1297 1.363 . S
C1292 C1293 1.363 . S
C1292 C1297 1.379 . S
C1292 N1299 1.356 . S
C1293 C1292 1.363 . S
C1293 C1296 1.363 . S
N1294 C1296 1.356 . S
N1294 H1306 0.984 . S
N1294 H1307 0.985 . S
N1295 C1297 1.356 . S
N1295 H1300 0.984 . S
N1295 H1301 0.985 . S
C1296 C1290 1.379 . S
C1296 C1293 1.363 . S
C1296 N1294 1.356 . S
C1297 C1291 1.363 . S
C1297 C1292 1.379 . S
C1297 N1295 1.356 . S
N1298 C1290 1.356 . S
N1298 H1304 0.984 . S
N1298 H1305 0.984 . S
N1299 C1292 1.356 . S
N1299 H1302 0.984 . S
N1299 H1303 0.985 . S
H1300 N1295 0.984 . S
H1301 N1295 0.985 . S
H1302 N1299 0.984 . S
H1303 N1299 0.985 . S
H1304 N1298 0.984 . S
H1305 N1298 0.984 . S
H1306 N1294 0.984 . S
H1307 N1294 0.985 . S
C1308 C1309 1.363 . S
C1308 C1314 1.379 . S
C1308 N1316 1.356 . S
C1309 C1308 1.363 . S
C1309 C1315 1.363 . S
C1310 C1311 1.363 . S
C1310 C1315 1.379 . S
C1310 N1317 1.356 . S
C1311 C1310 1.363 . S
C1311 C1314 1.363 . S
N1312 C1314 1.356 . S
N1312 H1324 0.984 . S
N1312 H1325 0.985 . S
N1313 C1315 1.356 . S
N1313 H1318 0.984 . S
N1313 H1319 0.985 . S
C1314 C1308 1.379 . S
C1314 C1311 1.363 . S
C1314 N1312 1.356 . S
C1315 C1309 1.363 . S
C1315 C1310 1.379 . S
C1315 N1313 1.356 . S
N1316 C1308 1.356 . S
N1316 H1322 0.984 . S
N1316 H1323 0.984 . S
N1317 C1310 1.356 . S
N1317 H1320 0.984 . S
N1317 H1321 0.985 . S
H1318 N1313 0.984 . S
H1319 N1313 0.985 . S
H1320 N1317 0.984 . S
H1321 N1317 0.985 . S
H1322 N1316 0.984 . S
H1323 N1316 0.984 . S
H1324 N1312 0.984 . S
H1325 N1312 0.985 . S
C1326 C1327 1.363 . S
C1326 C1332 1.379 . S
C1326 N1334 1.356 . S
C1327 C1326 1.363 . S
C1327 C1333 1.363 . S
C1328 C1329 1.363 . S
C1328 C1333 1.379 . S
C1328 N1335 1.356 . S
C1329 C1328 1.363 . S
C1329 C1332 1.363 . S
N1330 C1332 1.356 . S
N1330 H1342 0.984 . S
N1330 H1343 0.985 . S
N1331 C1333 1.356 . S
N1331 H1336 0.984 . S
N1331 H1337 0.985 . S
C1332 C1326 1.379 . S
C1332 C1329 1.363 . S
C1332 N1330 1.356 . S
C1333 C1327 1.363 . S
C1333 C1328 1.379 . S
C1333 N1331 1.356 . S
N1334 C1326 1.356 . S
N1334 H1340 0.984 . S
N1334 H1341 0.984 . S
N1335 C1328 1.356 . S
N1335 H1338 0.984 . S
N1335 H1339 0.985 . S
H1336 N1331 0.984 . S
H1337 N1331 0.985 . S
H1338 N1335 0.984 . S
H1339 N1335 0.985 . S
H1340 N1334 0.984 . S
H1341 N1334 0.984 . S
H1342 N1330 0.984 . S
H1343 N1330 0.985 . S
C1344 C1345 1.363 1_455 S
C1344 C1350 1.379 . S
C1344 N1352 1.356 . S
C1345 C1344 1.363 1_655 S
C1345 C1351 1.363 . S
C1346 C1347 1.363 1_655 S
C1346 C1351 1.379 . S
C1346 N1353 1.356 . S
C1347 C1346 1.363 1_455 S
C1347 C1350 1.363 . S
N1348 C1350 1.356 . S
N1348 H1360 0.984 . S
N1348 H1361 0.985 . S
N1349 C1351 1.356 . S
N1349 H1354 0.984 . S
N1349 H1355 0.985 . S
C1350 C1344 1.379 . S
C1350 C1347 1.363 . S
C1350 N1348 1.356 . S
C1351 C1345 1.363 . S
C1351 C1346 1.379 . S
C1351 N1349 1.356 . S
N1352 C1344 1.356 . S
N1352 H1358 0.984 . S
N1352 H1359 0.984 . S
N1353 C1346 1.356 . S
N1353 H1356 0.984 . S
N1353 H1357 0.985 . S
H1354 N1349 0.984 . S
H1355 N1349 0.985 . S
H1356 N1353 0.984 . S
H1357 N1353 0.985 . S
H1358 N1352 0.984 . S
H1359 N1352 0.984 . S
H1360 N1348 0.984 . S
H1361 N1348 0.985 . S
C1362 C1363 1.363 . S
C1362 C1368 1.379 . S
C1362 N1370 1.356 . S
C1363 C1362 1.363 . S
C1363 C1369 1.363 1_565 S
C1364 C1365 1.363 . S
C1364 C1369 1.379 . S
C1364 N1371 1.356 . S
C1365 C1364 1.363 . S
C1365 C1368 1.363 1_545 S
N1366 C1368 1.356 . S
N1366 H1378 0.984 . S
N1366 H1379 0.985 . S
N1367 C1369 1.356 . S
N1367 H1372 0.984 . S
N1367 H1373 0.985 . S
C1368 C1362 1.379 . S
C1368 C1365 1.363 1_565 S
C1368 N1366 1.356 . S
C1369 C1363 1.363 1_545 S
C1369 C1364 1.379 . S
C1369 N1367 1.356 . S
N1370 C1362 1.356 . S
N1370 H1376 0.984 . S
N1370 H1377 0.984 . S
N1371 C1364 1.356 . S
N1371 H1374 0.984 . S
N1371 H1375 0.985 . S
H1372 N1367 0.984 . S
H1373 N1367 0.985 . S
H1374 N1371 0.984 . S
H1375 N1371 0.985 . S
H1376 N1370 0.984 . S
H1377 N1370 0.984 . S
H1378 N1366 0.984 . S
H1379 N1366 0.985 . S
C1380 C1381 1.363 1_455 S
C1380 C1386 1.379 . S
C1380 N1388 1.356 . S
C1381 C1380 1.363 1_655 S
C1381 C1387 1.363 . S
C1382 C1383 1.363 1_655 S
C1382 C1387 1.379 . S
C1382 N1389 1.356 . S
C1383 C1382 1.363 1_455 S
C1383 C1386 1.363 . S
N1384 C1386 1.356 . S
N1384 H1396 0.984 . S
N1384 H1397 0.985 . S
N1385 C1387 1.356 . S
N1385 H1390 0.984 . S
N1385 H1391 0.985 . S
C1386 C1380 1.379 . S
C1386 C1383 1.363 . S
C1386 N1384 1.356 . S
C1387 C1381 1.363 . S
C1387 C1382 1.379 . S
C1387 N1385 1.356 . S
N1388 C1380 1.356 . S
N1388 H1394 0.984 . S
N1388 H1395 0.984 . S
N1389 C1382 1.356 . S
N1389 H1392 0.984 . S
N1389 H1393 0.985 . S
H1390 N1385 0.984 . S
H1391 N1385 0.985 . S
H1392 N1389 0.984 . S
H1393 N1389 0.985 . S
H1394 N1388 0.984 . S
H1395 N1388 0.984 . S
H1396 N1384 0.984 . S
H1397 N1384 0.985 . S
C1398 C1399 1.363 1_545 S
C1398 C1404 1.379 . S
C1398 N1406 1.356 . S
C1399 C1398 1.363 1_565 S
C1399 C1405 1.363 . S
C1400 C1401 1.363 1_565 S
C1400 C1405 1.379 . S
C1400 N1407 1.356 . S
C1401 C1400 1.363 1_545 S
C1401 C1404 1.363 . S
N1402 C1404 1.356 . S
N1402 H1414 0.984 . S
N1402 H1415 0.985 . S
N1403 C1405 1.356 . S
N1403 H1408 0.984 . S
N1403 H1409 0.985 . S
C1404 C1398 1.379 . S
C1404 C1401 1.363 . S
C1404 N1402 1.356 . S
C1405 C1399 1.363 . S
C1405 C1400 1.379 . S
C1405 N1403 1.356 . S
N1406 C1398 1.356 . S
N1406 H1412 0.984 . S
N1406 H1413 0.984 . S
N1407 C1400 1.356 . S
N1407 H1410 0.984 . S
N1407 H1411 0.985 . S
H1408 N1403 0.984 . S
H1409 N1403 0.985 . S
H1410 N1407 0.984 . S
H1411 N1407 0.985 . S
H1412 N1406 0.984 . S
H1413 N1406 0.984 . S
H1414 N1402 0.984 . S
H1415 N1402 0.985 . S
C1416 C1417 1.363 1_545 S
C1416 C1422 1.379 . S
C1416 N1424 1.356 . S
C1417 C1416 1.363 1_565 S
C1417 C1423 1.363 . S
C1418 C1419 1.363 1_565 S
C1418 C1423 1.379 . S
C1418 N1425 1.356 . S
C1419 C1418 1.363 1_545 S
C1419 C1422 1.363 . S
N1420 C1422 1.356 . S
N1420 H1432 0.984 . S
N1420 H1433 0.985 . S
N1421 C1423 1.356 . S
N1421 H1426 0.984 . S
N1421 H1427 0.985 . S
C1422 C1416 1.379 . S
C1422 C1419 1.363 . S
C1422 N1420 1.356 . S
C1423 C1417 1.363 . S
C1423 C1418 1.379 . S
C1423 N1421 1.356 . S
N1424 C1416 1.356 . S
N1424 H1430 0.984 . S
N1424 H1431 0.984 . S
N1425 C1418 1.356 . S
N1425 H1428 0.984 . S
N1425 H1429 0.985 . S
H1426 N1421 0.984 . S
H1427 N1421 0.985 . S
H1428 N1425 0.984 . S
H1429 N1425 0.985 . S
H1430 N1424 0.984 . S
H1431 N1424 0.984 . S
H1432 N1420 0.984 . S
H1433 N1420 0.985 . S
C1434 C1435 1.363 1_455 S
C1434 C1440 1.379 . S
C1434 N1442 1.356 . S
C1435 C1434 1.363 1_655 S
C1435 C1441 1.363 . S
C1436 C1437 1.363 1_655 S
C1436 C1441 1.379 . S
C1436 N1443 1.356 . S
C1437 C1436 1.363 1_455 S
C1437 C1440 1.363 . S
N1438 C1440 1.356 . S
N1438 H1450 0.984 . S
N1438 H1451 0.985 . S
N1439 C1441 1.356 . S
N1439 H1444 0.984 . S
N1439 H1445 0.985 . S
C1440 C1434 1.379 . S
C1440 C1437 1.363 . S
C1440 N1438 1.356 . S
C1441 C1435 1.363 . S
C1441 C1436 1.379 . S
C1441 N1439 1.356 . S
N1442 C1434 1.356 . S
N1442 H1448 0.984 . S
N1442 H1449 0.984 . S
N1443 C1436 1.356 . S
N1443 H1446 0.984 . S
N1443 H1447 0.985 . S
H1444 N1439 0.984 . S
H1445 N1439 0.985 . S
H1446 N1443 0.984 . S
H1447 N1443 0.985 . S
H1448 N1442 0.984 . S
H1449 N1442 0.984 . S
H1450 N1438 0.984 . S
H1451 N1438 0.985 . S
C1452 C1453 1.363 . S
C1452 C1458 1.379 . S
C1452 N1460 1.356 . S
C1453 C1452 1.363 . S
C1453 C1459 1.363 1_565 S
C1454 C1455 1.363 . S
C1454 C1459 1.379 . S
C1454 N1461 1.356 . S
C1455 C1454 1.363 . S
C1455 C1458 1.363 1_545 S
N1456 C1458 1.356 . S
N1456 H1468 0.984 . S
N1456 H1469 0.985 . S
N1457 C1459 1.356 . S
N1457 H1462 0.984 . S
N1457 H1463 0.985 . S
C1458 C1452 1.379 . S
C1458 C1455 1.363 1_565 S
C1458 N1456 1.356 . S
C1459 C1453 1.363 1_545 S
C1459 C1454 1.379 . S
C1459 N1457 1.356 . S
N1460 C1452 1.356 . S
N1460 H1466 0.984 . S
N1460 H1467 0.984 . S
N1461 C1454 1.356 . S
N1461 H1464 0.984 . S
N1461 H1465 0.985 . S
H1462 N1457 0.984 . S
H1463 N1457 0.985 . S
H1464 N1461 0.984 . S
H1465 N1461 0.985 . S
H1466 N1460 0.984 . S
H1467 N1460 0.984 . S
H1468 N1456 0.984 . S
H1469 N1456 0.985 . S
C1470 C1471 1.363 1_455 S
C1470 C1476 1.379 . S
C1470 N1478 1.356 . S
C1471 C1470 1.363 1_655 S
C1471 C1477 1.363 . S
C1472 C1473 1.363 1_655 S
C1472 C1477 1.379 . S
C1472 N1479 1.356 . S
C1473 C1472 1.363 1_455 S
C1473 C1476 1.363 . S
N1474 C1476 1.356 . S
N1474 H1486 0.984 . S
N1474 H1487 0.985 . S
N1475 C1477 1.356 . S
N1475 H1480 0.984 . S
N1475 H1481 0.985 . S
C1476 C1470 1.379 . S
C1476 C1473 1.363 . S
C1476 N1474 1.356 . S
C1477 C1471 1.363 . S
C1477 C1472 1.379 . S
C1477 N1475 1.356 . S
N1478 C1470 1.356 . S
N1478 H1484 0.984 . S
N1478 H1485 0.984 . S
N1479 C1472 1.356 . S
N1479 H1482 0.984 . S
N1479 H1483 0.985 . S
H1480 N1475 0.984 . S
H1481 N1475 0.985 . S
H1482 N1479 0.984 . S
H1483 N1479 0.985 . S
H1484 N1478 0.984 . S
H1485 N1478 0.984 . S
H1486 N1474 0.984 . S
H1487 N1474 0.985 . S
C1488 C1489 1.363 1_554 S
C1488 C1494 1.379 . S
C1488 N1496 1.356 . S
C1489 C1488 1.363 1_556 S
C1489 C1495 1.363 . S
C1490 C1491 1.363 1_556 S
C1490 C1495 1.379 . S
C1490 N1497 1.356 . S
C1491 C1490 1.363 1_554 S
C1491 C1494 1.363 . S
N1492 C1494 1.356 . S
N1492 H1504 0.984 . S
N1492 H1505 0.985 . S
N1493 C1495 1.356 . S
N1493 H1498 0.984 . S
N1493 H1499 0.985 . S
C1494 C1488 1.379 . S
C1494 C1491 1.363 . S
C1494 N1492 1.356 . S
C1495 C1489 1.363 . S
C1495 C1490 1.379 . S
C1495 N1493 1.356 . S
N1496 C1488 1.356 . S
N1496 H1502 0.984 . S
N1496 H1503 0.984 . S
N1497 C1490 1.356 . S
N1497 H1500 0.984 . S
N1497 H1501 0.985 . S
H1498 N1493 0.984 . S
H1499 N1493 0.985 . S
H1500 N1497 0.984 . S
H1501 N1497 0.985 . S
H1502 N1496 0.984 . S
H1503 N1496 0.984 . S
H1504 N1492 0.984 . S
H1505 N1492 0.985 . S
C1506 C1507 1.363 . S
C1506 C1512 1.379 . S
C1506 N1514 1.356 . S
C1507 C1506 1.363 . S
C1507 C1513 1.363 1_556 S
C1508 C1509 1.363 . S
C1508 C1513 1.379 . S
C1508 N1515 1.356 . S
C1509 C1508 1.363 . S
C1509 C1512 1.363 1_554 S
N1510 C1512 1.356 . S
N1510 H1522 0.984 . S
N1510 H1523 0.985 . S
N1511 C1513 1.356 . S
N1511 H1516 0.984 . S
N1511 H1517 0.985 . S
C1512 C1506 1.379 . S
C1512 C1509 1.363 1_556 S
C1512 N1510 1.356 . S
C1513 C1507 1.363 1_554 S
C1513 C1508 1.379 . S
C1513 N1511 1.356 . S
N1514 C1506 1.356 . S
N1514 H1520 0.984 . S
N1514 H1521 0.984 . S
N1515 C1508 1.356 . S
N1515 H1518 0.984 . S
N1515 H1519 0.985 . S
H1516 N1511 0.984 . S
H1517 N1511 0.985 . S
H1518 N1515 0.984 . S
H1519 N1515 0.985 . S
H1520 N1514 0.984 . S
H1521 N1514 0.984 . S
H1522 N1510 0.984 . S
H1523 N1510 0.985 . S
C1524 C1525 1.363 . S
C1524 C1530 1.379 . S
C1524 N1532 1.356 . S
C1525 C1524 1.363 . S
C1525 C1531 1.363 1_556 S
C1526 C1527 1.363 . S
C1526 C1531 1.379 . S
C1526 N1533 1.356 . S
C1527 C1526 1.363 . S
C1527 C1530 1.363 1_554 S
N1528 C1530 1.356 . S
N1528 H1540 0.984 . S
N1528 H1541 0.985 . S
N1529 C1531 1.356 . S
N1529 H1534 0.984 . S
N1529 H1535 0.985 . S
C1530 C1524 1.379 . S
C1530 C1527 1.363 1_556 S
C1530 N1528 1.356 . S
C1531 C1525 1.363 1_554 S
C1531 C1526 1.379 . S
C1531 N1529 1.356 . S
N1532 C1524 1.356 . S
N1532 H1538 0.984 . S
N1532 H1539 0.984 . S
N1533 C1526 1.356 . S
N1533 H1536 0.984 . S
N1533 H1537 0.985 . S
H1534 N1529 0.984 . S
H1535 N1529 0.985 . S
H1536 N1533 0.984 . S
H1537 N1533 0.985 . S
H1538 N1532 0.984 . S
H1539 N1532 0.984 . S
H1540 N1528 0.984 . S
H1541 N1528 0.985 . S
C1542 C1543 1.363 . S
C1542 C1548 1.379 . S
C1542 N1550 1.356 . S
C1543 C1542 1.363 . S
C1543 C1549 1.363 1_556 S
C1544 C1545 1.363 . S
C1544 C1549 1.379 . S
C1544 N1551 1.356 . S
C1545 C1544 1.363 . S
C1545 C1548 1.363 1_554 S
N1546 C1548 1.356 . S
N1546 H1558 0.984 . S
N1546 H1559 0.985 . S
N1547 C1549 1.356 . S
N1547 H1552 0.984 . S
N1547 H1553 0.985 . S
C1548 C1542 1.379 . S
C1548 C1545 1.363 1_556 S
C1548 N1546 1.356 . S
C1549 C1543 1.363 1_554 S
C1549 C1544 1.379 . S
C1549 N1547 1.356 . S
N1550 C1542 1.356 . S
N1550 H1556 0.984 . S
N1550 H1557 0.984 . S
N1551 C1544 1.356 . S
N1551 H1554 0.984 . S
N1551 H1555 0.985 . S
H1552 N1547 0.984 . S
H1553 N1547 0.985 . S
H1554 N1551 0.984 . S
H1555 N1551 0.985 . S
H1556 N1550 0.984 . S
H1557 N1550 0.984 . S
H1558 N1546 0.984 . S
H1559 N1546 0.985 . S
C1560 C1561 1.363 . S
C1560 C1566 1.379 . S
C1560 N1568 1.356 . S
C1561 C1560 1.363 . S
C1561 C1567 1.363 . S
C1562 C1563 1.363 . S
C1562 C1567 1.379 . S
C1562 N1569 1.356 . S
C1563 C1562 1.363 . S
C1563 C1566 1.363 . S
N1564 C1566 1.356 . S
N1564 H1576 0.984 . S
N1564 H1577 0.985 . S
N1565 C1567 1.356 . S
N1565 H1570 0.984 . S
N1565 H1571 0.985 . S
C1566 C1560 1.379 . S
C1566 C1563 1.363 . S
C1566 N1564 1.356 . S
C1567 C1561 1.363 . S
C1567 C1562 1.379 . S
C1567 N1565 1.356 . S
N1568 C1560 1.356 . S
N1568 H1574 0.984 . S
N1568 H1575 0.984 . S
N1569 C1562 1.356 . S
N1569 H1572 0.984 . S
N1569 H1573 0.985 . S
H1570 N1565 0.984 . S
H1571 N1565 0.985 . S
H1572 N1569 0.984 . S
H1573 N1569 0.985 . S
H1574 N1568 0.984 . S
H1575 N1568 0.984 . S
H1576 N1564 0.984 . S
H1577 N1564 0.985 . S
C1578 C1579 1.363 . S
C1578 C1584 1.379 . S
C1578 N1586 1.356 . S
C1579 C1578 1.363 . S
C1579 C1585 1.363 . S
C1580 C1581 1.363 . S
C1580 C1585 1.379 . S
C1580 N1587 1.356 . S
C1581 C1580 1.363 . S
C1581 C1584 1.363 . S
N1582 C1584 1.356 . S
N1582 H1594 0.984 . S
N1582 H1595 0.985 . S
N1583 C1585 1.356 . S
N1583 H1588 0.984 . S
N1583 H1589 0.985 . S
C1584 C1578 1.379 . S
C1584 C1581 1.363 . S
C1584 N1582 1.356 . S
C1585 C1579 1.363 . S
C1585 C1580 1.379 . S
C1585 N1583 1.356 . S
N1586 C1578 1.356 . S
N1586 H1592 0.984 . S
N1586 H1593 0.984 . S
N1587 C1580 1.356 . S
N1587 H1590 0.984 . S
N1587 H1591 0.985 . S
H1588 N1583 0.984 . S
H1589 N1583 0.985 . S
H1590 N1587 0.984 . S
H1591 N1587 0.985 . S
H1592 N1586 0.984 . S
H1593 N1586 0.984 . S
H1594 N1582 0.984 . S
H1595 N1582 0.985 . S
C1596 C1597 1.363 . S
C1596 C1602 1.379 . S
C1596 N1604 1.356 . S
C1597 C1596 1.363 . S
C1597 C1603 1.363 . S
C1598 C1599 1.363 . S
C1598 C1603 1.379 . S
C1598 N1605 1.356 . S
C1599 C1598 1.363 . S
C1599 C1602 1.363 . S
N1600 C1602 1.356 . S
N1600 H1612 0.984 . S
N1600 H1613 0.985 . S
N1601 C1603 1.356 . S
N1601 H1606 0.984 . S
N1601 H1607 0.985 . S
C1602 C1596 1.379 . S
C1602 C1599 1.363 . S
C1602 N1600 1.356 . S
C1603 C1597 1.363 . S
C1603 C1598 1.379 . S
C1603 N1601 1.356 . S
N1604 C1596 1.356 . S
N1604 H1610 0.984 . S
N1604 H1611 0.984 . S
N1605 C1598 1.356 . S
N1605 H1608 0.984 . S
N1605 H1609 0.985 . S
H1606 N1601 0.984 . S
H1607 N1601 0.985 . S
H1608 N1605 0.984 . S
H1609 N1605 0.985 . S
H1610 N1604 0.984 . S
H1611 N1604 0.984 . S
H1612 N1600 0.984 . S
H1613 N1600 0.985 . S
C1614 C1615 1.363 . S
C1614 C1620 1.379 . S
C1614 N1622 1.356 . S
C1615 C1614 1.363 . S
C1615 C1621 1.363 . S
C1616 C1617 1.363 . S
C1616 C1621 1.379 . S
C1616 N1623 1.356 . S
C1617 C1616 1.363 . S
C1617 C1620 1.363 . S
N1618 C1620 1.356 . S
N1618 H1630 0.984 . S
N1618 H1631 0.985 . S
N1619 C1621 1.356 . S
N1619 H1624 0.984 . S
N1619 H1625 0.985 . S
C1620 C1614 1.379 . S
C1620 C1617 1.363 . S
C1620 N1618 1.356 . S
C1621 C1615 1.363 . S
C1621 C1616 1.379 . S
C1621 N1619 1.356 . S
N1622 C1614 1.356 . S
N1622 H1628 0.984 . S
N1622 H1629 0.984 . S
N1623 C1616 1.356 . S
N1623 H1626 0.984 . S
N1623 H1627 0.985 . S
H1624 N1619 0.984 . S
H1625 N1619 0.985 . S
H1626 N1623 0.984 . S
H1627 N1623 0.985 . S
H1628 N1622 0.984 . S
H1629 N1622 0.984 . S
H1630 N1618 0.984 . S
H1631 N1618 0.985 . S
C1632 C1633 1.363 . S
C1632 C1638 1.379 . S
C1632 N1640 1.356 . S
C1633 C1632 1.363 . S
C1633 C1639 1.363 . S
C1634 C1635 1.363 . S
C1634 C1639 1.379 . S
C1634 N1641 1.356 . S
C1635 C1634 1.363 . S
C1635 C1638 1.363 . S
N1636 C1638 1.356 . S
N1636 H1648 0.984 . S
N1636 H1649 0.985 . S
N1637 C1639 1.356 . S
N1637 H1642 0.984 . S
N1637 H1643 0.985 . S
C1638 C1632 1.379 . S
C1638 C1635 1.363 . S
C1638 N1636 1.356 . S
C1639 C1633 1.363 . S
C1639 C1634 1.379 . S
C1639 N1637 1.356 . S
N1640 C1632 1.356 . S
N1640 H1646 0.984 . S
N1640 H1647 0.984 . S
N1641 C1634 1.356 . S
N1641 H1644 0.984 . S
N1641 H1645 0.985 . S
H1642 N1637 0.984 . S
H1643 N1637 0.985 . S
H1644 N1641 0.984 . S
H1645 N1641 0.985 . S
H1646 N1640 0.984 . S
H1647 N1640 0.984 . S
H1648 N1636 0.984 . S
H1649 N1636 0.985 . S
C1650 C1651 1.363 . S
C1650 C1656 1.379 . S
C1650 N1658 1.356 . S
C1651 C1650 1.363 . S
C1651 C1657 1.363 . S
C1652 C1653 1.363 . S
C1652 C1657 1.379 . S
C1652 N1659 1.356 . S
C1653 C1652 1.363 . S
C1653 C1656 1.363 . S
N1654 C1656 1.356 . S
N1654 H1666 0.984 . S
N1654 H1667 0.985 . S
N1655 C1657 1.356 . S
N1655 H1660 0.984 . S
N1655 H1661 0.985 . S
C1656 C1650 1.379 . S
C1656 C1653 1.363 . S
C1656 N1654 1.356 . S
C1657 C1651 1.363 . S
C1657 C1652 1.379 . S
C1657 N1655 1.356 . S
N1658 C1650 1.356 . S
N1658 H1664 0.984 . S
N1658 H1665 0.984 . S
N1659 C1652 1.356 . S
N1659 H1662 0.984 . S
N1659 H1663 0.985 . S
H1660 N1655 0.984 . S
H1661 N1655 0.985 . S
H1662 N1659 0.984 . S
H1663 N1659 0.985 . S
H1664 N1658 0.984 . S
H1665 N1658 0.984 . S
H1666 N1654 0.984 . S
H1667 N1654 0.985 . S
C1668 C1669 1.363 . S
C1668 C1674 1.379 . S
C1668 N1676 1.356 . S
C1669 C1668 1.363 . S
C1669 C1675 1.363 . S
C1670 C1671 1.363 . S
C1670 C1675 1.379 . S
C1670 N1677 1.356 . S
C1671 C1670 1.363 . S
C1671 C1674 1.363 . S
N1672 C1674 1.356 . S
N1672 H1684 0.984 . S
N1672 H1685 0.985 . S
N1673 C1675 1.356 . S
N1673 H1678 0.984 . S
N1673 H1679 0.985 . S
C1674 C1668 1.379 . S
C1674 C1671 1.363 . S
C1674 N1672 1.356 . S
C1675 C1669 1.363 . S
C1675 C1670 1.379 . S
C1675 N1673 1.356 . S
N1676 C1668 1.356 . S
N1676 H1682 0.984 . S
N1676 H1683 0.984 . S
N1677 C1670 1.356 . S
N1677 H1680 0.984 . S
N1677 H1681 0.985 . S
H1678 N1673 0.984 . S
H1679 N1673 0.985 . S
H1680 N1677 0.984 . S
H1681 N1677 0.985 . S
H1682 N1676 0.984 . S
H1683 N1676 0.984 . S
H1684 N1672 0.984 . S
H1685 N1672 0.985 . S
C1686 C1687 1.363 . S
C1686 C1692 1.379 . S
C1686 N1694 1.356 . S
C1687 C1686 1.363 . S
C1687 C1693 1.363 . S
C1688 C1689 1.363 . S
C1688 C1693 1.379 . S
C1688 N1695 1.356 . S
C1689 C1688 1.363 . S
C1689 C1692 1.363 . S
N1690 C1692 1.356 . S
N1690 H1702 0.984 . S
N1690 H1703 0.985 . S
N1691 C1693 1.356 . S
N1691 H1696 0.984 . S
N1691 H1697 0.985 . S
C1692 C1686 1.379 . S
C1692 C1689 1.363 . S
C1692 N1690 1.356 . S
C1693 C1687 1.363 . S
C1693 C1688 1.379 . S
C1693 N1691 1.356 . S
N1694 C1686 1.356 . S
N1694 H1700 0.984 . S
N1694 H1701 0.984 . S
N1695 C1688 1.356 . S
N1695 H1698 0.984 . S
N1695 H1699 0.985 . S
H1696 N1691 0.984 . S
H1697 N1691 0.985 . S
H1698 N1695 0.984 . S
H1699 N1695 0.985 . S
H1700 N1694 0.984 . S
H1701 N1694 0.984 . S
H1702 N1690 0.984 . S
H1703 N1690 0.985 . S
C1704 C1705 1.363 . S
C1704 C1710 1.379 . S
C1704 N1712 1.356 . S
C1705 C1704 1.363 . S
C1705 C1711 1.363 . S
C1706 C1707 1.363 . S
C1706 C1711 1.379 . S
C1706 N1713 1.356 . S
C1707 C1706 1.363 . S
C1707 C1710 1.363 . S
N1708 C1710 1.356 . S
N1708 H1720 0.984 . S
N1708 H1721 0.985 . S
N1709 C1711 1.356 . S
N1709 H1714 0.984 . S
N1709 H1715 0.985 . S
C1710 C1704 1.379 . S
C1710 C1707 1.363 . S
C1710 N1708 1.356 . S
C1711 C1705 1.363 . S
C1711 C1706 1.379 . S
C1711 N1709 1.356 . S
N1712 C1704 1.356 . S
N1712 H1718 0.984 . S
N1712 H1719 0.984 . S
N1713 C1706 1.356 . S
N1713 H1716 0.984 . S
N1713 H1717 0.985 . S
H1714 N1709 0.984 . S
H1715 N1709 0.985 . S
H1716 N1713 0.984 . S
H1717 N1713 0.985 . S
H1718 N1712 0.984 . S
H1719 N1712 0.984 . S
H1720 N1708 0.984 . S
H1721 N1708 0.985 . S
C1722 C1723 1.363 . S
C1722 C1728 1.379 . S
C1722 N1730 1.356 . S
C1723 C1722 1.363 . S
C1723 C1729 1.363 . S
C1724 C1725 1.363 . S
C1724 C1729 1.379 . S
C1724 N1731 1.356 . S
C1725 C1724 1.363 . S
C1725 C1728 1.363 . S
N1726 C1728 1.356 . S
N1726 H1738 0.984 . S
N1726 H1739 0.985 . S
N1727 C1729 1.356 . S
N1727 H1732 0.984 . S
N1727 H1733 0.985 . S
C1728 C1722 1.379 . S
C1728 C1725 1.363 . S
C1728 N1726 1.356 . S
C1729 C1723 1.363 . S
C1729 C1724 1.379 . S
C1729 N1727 1.356 . S
N1730 C1722 1.356 . S
N1730 H1736 0.984 . S
N1730 H1737 0.984 . S
N1731 C1724 1.356 . S
N1731 H1734 0.984 . S
N1731 H1735 0.985 . S
H1732 N1727 0.984 . S
H1733 N1727 0.985 . S
H1734 N1731 0.984 . S
H1735 N1731 0.985 . S
H1736 N1730 0.984 . S
H1737 N1730 0.984 . S
H1738 N1726 0.984 . S
H1739 N1726 0.985 . S
C1740 C1741 1.363 . S
C1740 C1746 1.379 . S
C1740 N1748 1.356 . S
C1741 C1740 1.363 . S
C1741 C1747 1.363 . S
C1742 C1743 1.363 . S
C1742 C1747 1.379 . S
C1742 N1749 1.356 . S
C1743 C1742 1.363 . S
C1743 C1746 1.363 . S
N1744 C1746 1.356 . S
N1744 H1756 0.984 . S
N1744 H1757 0.985 . S
N1745 C1747 1.356 . S
N1745 H1750 0.984 . S
N1745 H1751 0.985 . S
C1746 C1740 1.379 . S
C1746 C1743 1.363 . S
C1746 N1744 1.356 . S
C1747 C1741 1.363 . S
C1747 C1742 1.379 . S
C1747 N1745 1.356 . S
N1748 C1740 1.356 . S
N1748 H1754 0.984 . S
N1748 H1755 0.984 . S
N1749 C1742 1.356 . S
N1749 H1752 0.984 . S
N1749 H1753 0.985 . S
H1750 N1745 0.984 . S
H1751 N1745 0.985 . S
H1752 N1749 0.984 . S
H1753 N1749 0.985 . S
H1754 N1748 0.984 . S
H1755 N1748 0.984 . S
H1756 N1744 0.984 . S
H1757 N1744 0.985 . S
C1758 C1759 1.363 . S
C1758 C1764 1.379 . S
C1758 N1766 1.356 . S
C1759 C1758 1.363 . S
C1759 C1765 1.363 . S
C1760 C1761 1.363 . S
C1760 C1765 1.379 . S
C1760 N1767 1.356 . S
C1761 C1760 1.363 . S
C1761 C1764 1.363 . S
N1762 C1764 1.356 . S
N1762 H1774 0.984 . S
N1762 H1775 0.985 . S
N1763 C1765 1.356 . S
N1763 H1768 0.984 . S
N1763 H1769 0.985 . S
C1764 C1758 1.379 . S
C1764 C1761 1.363 . S
C1764 N1762 1.356 . S
C1765 C1759 1.363 . S
C1765 C1760 1.379 . S
C1765 N1763 1.356 . S
N1766 C1758 1.356 . S
N1766 H1772 0.984 . S
N1766 H1773 0.984 . S
N1767 C1760 1.356 . S
N1767 H1770 0.984 . S
N1767 H1771 0.985 . S
H1768 N1763 0.984 . S
H1769 N1763 0.985 . S
H1770 N1767 0.984 . S
H1771 N1767 0.985 . S
H1772 N1766 0.984 . S
H1773 N1766 0.984 . S
H1774 N1762 0.984 . S
H1775 N1762 0.985 . S
C1776 C1777 1.363 . S
C1776 C1782 1.379 . S
C1776 N1784 1.356 . S
C1777 C1776 1.363 . S
C1777 C1783 1.363 . S
C1778 C1779 1.363 . S
C1778 C1783 1.379 . S
C1778 N1785 1.356 . S
C1779 C1778 1.363 . S
C1779 C1782 1.363 . S
N1780 C1782 1.356 . S
N1780 H1792 0.984 . S
N1780 H1793 0.985 . S
N1781 C1783 1.356 . S
N1781 H1786 0.984 . S
N1781 H1787 0.985 . S
C1782 C1776 1.379 . S
C1782 C1779 1.363 . S
C1782 N1780 1.356 . S
C1783 C1777 1.363 . S
C1783 C1778 1.379 . S
C1783 N1781 1.356 . S
N1784 C1776 1.356 . S
N1784 H1790 0.984 . S
N1784 H1791 0.984 . S
N1785 C1778 1.356 . S
N1785 H1788 0.984 . S
N1785 H1789 0.985 . S
H1786 N1781 0.984 . S
H1787 N1781 0.985 . S
H1788 N1785 0.984 . S
H1789 N1785 0.985 . S
H1790 N1784 0.984 . S
H1791 N1784 0.984 . S
H1792 N1780 0.984 . S
H1793 N1780 0.985 . S
C1794 C1795 1.363 . S
C1794 C1800 1.379 . S
C1794 N1802 1.356 . S
C1795 C1794 1.363 . S
C1795 C1801 1.363 . S
C1796 C1797 1.363 . S
C1796 C1801 1.379 . S
C1796 N1803 1.356 . S
C1797 C1796 1.363 . S
C1797 C1800 1.363 . S
N1798 C1800 1.356 . S
N1798 H1810 0.984 . S
N1798 H1811 0.985 . S
N1799 C1801 1.356 . S
N1799 H1804 0.984 . S
N1799 H1805 0.985 . S
C1800 C1794 1.379 . S
C1800 C1797 1.363 . S
C1800 N1798 1.356 . S
C1801 C1795 1.363 . S
C1801 C1796 1.379 . S
C1801 N1799 1.356 . S
N1802 C1794 1.356 . S
N1802 H1808 0.984 . S
N1802 H1809 0.984 . S
N1803 C1796 1.356 . S
N1803 H1806 0.984 . S
N1803 H1807 0.985 . S
H1804 N1799 0.984 . S
H1805 N1799 0.985 . S
H1806 N1803 0.984 . S
H1807 N1803 0.985 . S
H1808 N1802 0.984 . S
H1809 N1802 0.984 . S
H1810 N1798 0.984 . S
H1811 N1798 0.985 . S
C1812 C1813 1.363 . S
C1812 C1818 1.379 . S
C1812 N1820 1.356 . S
C1813 C1812 1.363 . S
C1813 C1819 1.363 . S
C1814 C1815 1.363 . S
C1814 C1819 1.379 . S
C1814 N1821 1.356 . S
C1815 C1814 1.363 . S
C1815 C1818 1.363 . S
N1816 C1818 1.356 . S
N1816 H1828 0.984 . S
N1816 H1829 0.985 . S
N1817 C1819 1.356 . S
N1817 H1822 0.984 . S
N1817 H1823 0.985 . S
C1818 C1812 1.379 . S
C1818 C1815 1.363 . S
C1818 N1816 1.356 . S
C1819 C1813 1.363 . S
C1819 C1814 1.379 . S
C1819 N1817 1.356 . S
N1820 C1812 1.356 . S
N1820 H1826 0.984 . S
N1820 H1827 0.984 . S
N1821 C1814 1.356 . S
N1821 H1824 0.984 . S
N1821 H1825 0.985 . S
H1822 N1817 0.984 . S
H1823 N1817 0.985 . S
H1824 N1821 0.984 . S
H1825 N1821 0.985 . S
H1826 N1820 0.984 . S
H1827 N1820 0.984 . S
H1828 N1816 0.984 . S
H1829 N1816 0.985 . S
C1830 C1831 1.363 . S
C1830 C1836 1.379 . S
C1830 N1838 1.356 . S
C1831 C1830 1.363 . S
C1831 C1837 1.363 . S
C1832 C1833 1.363 . S
C1832 C1837 1.379 . S
C1832 N1839 1.356 . S
C1833 C1832 1.363 . S
C1833 C1836 1.363 . S
N1834 C1836 1.356 . S
N1834 H1846 0.984 . S
N1834 H1847 0.985 . S
N1835 C1837 1.356 . S
N1835 H1840 0.984 . S
N1835 H1841 0.985 . S
C1836 C1830 1.379 . S
C1836 C1833 1.363 . S
C1836 N1834 1.356 . S
C1837 C1831 1.363 . S
C1837 C1832 1.379 . S
C1837 N1835 1.356 . S
N1838 C1830 1.356 . S
N1838 H1844 0.984 . S
N1838 H1845 0.984 . S
N1839 C1832 1.356 . S
N1839 H1842 0.984 . S
N1839 H1843 0.985 . S
H1840 N1835 0.984 . S
H1841 N1835 0.985 . S
H1842 N1839 0.984 . S
H1843 N1839 0.985 . S
H1844 N1838 0.984 . S
H1845 N1838 0.984 . S
H1846 N1834 0.984 . S
H1847 N1834 0.985 . S
C1848 C1849 1.363 . S
C1848 C1854 1.379 . S
C1848 N1856 1.356 . S
C1849 C1848 1.363 . S
C1849 C1855 1.363 . S
C1850 C1851 1.363 . S
C1850 C1855 1.379 . S
C1850 N1857 1.356 . S
C1851 C1850 1.363 . S
C1851 C1854 1.363 . S
N1852 C1854 1.356 . S
N1852 H1864 0.984 . S
N1852 H1865 0.985 . S
N1853 C1855 1.356 . S
N1853 H1858 0.984 . S
N1853 H1859 0.985 . S
C1854 C1848 1.379 . S
C1854 C1851 1.363 . S
C1854 N1852 1.356 . S
C1855 C1849 1.363 . S
C1855 C1850 1.379 . S
C1855 N1853 1.356 . S
N1856 C1848 1.356 . S
N1856 H1862 0.984 . S
N1856 H1863 0.984 . S
N1857 C1850 1.356 . S
N1857 H1860 0.984 . S
N1857 H1861 0.985 . S
H1858 N1853 0.984 . S
H1859 N1853 0.985 . S
H1860 N1857 0.984 . S
H1861 N1857 0.985 . S
H1862 N1856 0.984 . S
H1863 N1856 0.984 . S
H1864 N1852 0.984 . S
H1865 N1852 0.985 . S
C1866 C1867 1.363 . S
C1866 C1872 1.379 . S
C1866 N1874 1.356 . S
C1867 C1866 1.363 . S
C1867 C1873 1.363 . S
C1868 C1869 1.363 . S
C1868 C1873 1.379 . S
C1868 N1875 1.356 . S
C1869 C1868 1.363 . S
C1869 C1872 1.363 . S
N1870 C1872 1.356 . S
N1870 H1882 0.984 . S
N1870 H1883 0.985 . S
N1871 C1873 1.356 . S
N1871 H1876 0.984 . S
N1871 H1877 0.985 . S
C1872 C1866 1.379 . S
C1872 C1869 1.363 . S
C1872 N1870 1.356 . S
C1873 C1867 1.363 . S
C1873 C1868 1.379 . S
C1873 N1871 1.356 . S
N1874 C1866 1.356 . S
N1874 H1880 0.984 . S
N1874 H1881 0.984 . S
N1875 C1868 1.356 . S
N1875 H1878 0.984 . S
N1875 H1879 0.985 . S
H1876 N1871 0.984 . S
H1877 N1871 0.985 . S
H1878 N1875 0.984 . S
H1879 N1875 0.985 . S
H1880 N1874 0.984 . S
H1881 N1874 0.984 . S
H1882 N1870 0.984 . S
H1883 N1870 0.985 . S
C1884 C1885 1.363 . S
C1884 C1890 1.379 . S
C1884 N1892 1.356 . S
C1885 C1884 1.363 . S
C1885 C1891 1.363 . S
C1886 C1887 1.363 . S
C1886 C1891 1.379 . S
C1886 N1893 1.356 . S
C1887 C1886 1.363 . S
C1887 C1890 1.363 . S
N1888 C1890 1.356 . S
N1888 H1900 0.984 . S
N1888 H1901 0.985 . S
N1889 C1891 1.356 . S
N1889 H1894 0.984 . S
N1889 H1895 0.985 . S
C1890 C1884 1.379 . S
C1890 C1887 1.363 . S
C1890 N1888 1.356 . S
C1891 C1885 1.363 . S
C1891 C1886 1.379 . S
C1891 N1889 1.356 . S
N1892 C1884 1.356 . S
N1892 H1898 0.984 . S
N1892 H1899 0.984 . S
N1893 C1886 1.356 . S
N1893 H1896 0.984 . S
N1893 H1897 0.985 . S
H1894 N1889 0.984 . S
H1895 N1889 0.985 . S
H1896 N1893 0.984 . S
H1897 N1893 0.985 . S
H1898 N1892 0.984 . S
H1899 N1892 0.984 . S
H1900 N1888 0.984 . S
H1901 N1888 0.985 . S
C1902 C1903 1.363 . S
C1902 C1908 1.379 . S
C1902 N1910 1.356 . S
C1903 C1902 1.363 . S
C1903 C1909 1.363 . S
C1904 C1905 1.363 . S
C1904 C1909 1.379 . S
C1904 N1911 1.356 . S
C1905 C1904 1.363 . S
C1905 C1908 1.363 . S
N1906 C1908 1.356 . S
N1906 H1918 0.984 . S
N1906 H1919 0.985 . S
N1907 C1909 1.356 . S
N1907 H1912 0.984 . S
N1907 H1913 0.985 . S
C1908 C1902 1.379 . S
C1908 C1905 1.363 . S
C1908 N1906 1.356 . S
C1909 C1903 1.363 . S
C1909 C1904 1.379 . S
C1909 N1907 1.356 . S
N1910 C1902 1.356 . S
N1910 H1916 0.984 . S
N1910 H1917 0.984 . S
N1911 C1904 1.356 . S
N1911 H1914 0.984 . S
N1911 H1915 0.985 . S
H1912 N1907 0.984 . S
H1913 N1907 0.985 . S
H1914 N1911 0.984 . S
H1915 N1911 0.985 . S
H1916 N1910 0.984 . S
H1917 N1910 0.984 . S
H1918 N1906 0.984 . S
H1919 N1906 0.985 . S
C1920 C1921 1.363 . S
C1920 C1926 1.379 . S
C1920 N1928 1.356 . S
C1921 C1920 1.363 . S
C1921 C1927 1.363 . S
C1922 C1923 1.363 . S
C1922 C1927 1.379 . S
C1922 N1929 1.356 . S
C1923 C1922 1.363 . S
C1923 C1926 1.363 . S
N1924 C1926 1.356 . S
N1924 H1936 0.984 . S
N1924 H1937 0.985 . S
N1925 C1927 1.356 . S
N1925 H1930 0.984 . S
N1925 H1931 0.985 . S
C1926 C1920 1.379 . S
C1926 C1923 1.363 . S
C1926 N1924 1.356 . S
C1927 C1921 1.363 . S
C1927 C1922 1.379 . S
C1927 N1925 1.356 . S
N1928 C1920 1.356 . S
N1928 H1934 0.984 . S
N1928 H1935 0.984 . S
N1929 C1922 1.356 . S
N1929 H1932 0.984 . S
N1929 H1933 0.985 . S
H1930 N1925 0.984 . S
H1931 N1925 0.985 . S
H1932 N1929 0.984 . S
H1933 N1929 0.985 . S
H1934 N1928 0.984 . S
H1935 N1928 0.984 . S
H1936 N1924 0.984 . S
H1937 N1924 0.985 . S
C1938 C1939 1.363 . S
C1938 C1944 1.379 . S
C1938 N1946 1.356 . S
C1939 C1938 1.363 . S
C1939 C1945 1.363 . S
C1940 C1941 1.363 . S
C1940 C1945 1.379 . S
C1940 N1947 1.356 . S
C1941 C1940 1.363 . S
C1941 C1944 1.363 . S
N1942 C1944 1.356 . S
N1942 H1954 0.984 . S
N1942 H1955 0.985 . S
N1943 C1945 1.356 . S
N1943 H1948 0.984 . S
N1943 H1949 0.985 . S
C1944 C1938 1.379 . S
C1944 C1941 1.363 . S
C1944 N1942 1.356 . S
C1945 C1939 1.363 . S
C1945 C1940 1.379 . S
C1945 N1943 1.356 . S
N1946 C1938 1.356 . S
N1946 H1952 0.984 . S
N1946 H1953 0.984 . S
N1947 C1940 1.356 . S
N1947 H1950 0.984 . S
N1947 H1951 0.985 . S
H1948 N1943 0.984 . S
H1949 N1943 0.985 . S
H1950 N1947 0.984 . S
H1951 N1947 0.985 . S
H1952 N1946 0.984 . S
H1953 N1946 0.984 . S
H1954 N1942 0.984 . S
H1955 N1942 0.985 . S
C1956 C1957 1.363 . S
C1956 C1962 1.379 . S
C1956 N1964 1.356 . S
C1957 C1956 1.363 . S
C1957 C1963 1.363 . S
C1958 C1959 1.363 . S
C1958 C1963 1.379 . S
C1958 N1965 1.356 . S
C1959 C1958 1.363 . S
C1959 C1962 1.363 . S
N1960 C1962 1.356 . S
N1960 H1972 0.984 . S
N1960 H1973 0.985 . S
N1961 C1963 1.356 . S
N1961 H1966 0.984 . S
N1961 H1967 0.985 . S
C1962 C1956 1.379 . S
C1962 C1959 1.363 . S
C1962 N1960 1.356 . S
C1963 C1957 1.363 . S
C1963 C1958 1.379 . S
C1963 N1961 1.356 . S
N1964 C1956 1.356 . S
N1964 H1970 0.984 . S
N1964 H1971 0.984 . S
N1965 C1958 1.356 . S
N1965 H1968 0.984 . S
N1965 H1969 0.985 . S
H1966 N1961 0.984 . S
H1967 N1961 0.985 . S
H1968 N1965 0.984 . S
H1969 N1965 0.985 . S
H1970 N1964 0.984 . S
H1971 N1964 0.984 . S
H1972 N1960 0.984 . S
H1973 N1960 0.985 . S
C1974 C1975 1.363 . S
C1974 C1980 1.379 . S
C1974 N1982 1.356 . S
C1975 C1974 1.363 . S
C1975 C1981 1.363 . S
C1976 C1977 1.363 . S
C1976 C1981 1.379 . S
C1976 N1983 1.356 . S
C1977 C1976 1.363 . S
C1977 C1980 1.363 . S
N1978 C1980 1.356 . S
N1978 H1990 0.984 . S
N1978 H1991 0.985 . S
N1979 C1981 1.356 . S
N1979 H1984 0.984 . S
N1979 H1985 0.985 . S
C1980 C1974 1.379 . S
C1980 C1977 1.363 . S
C1980 N1978 1.356 . S
C1981 C1975 1.363 . S
C1981 C1976 1.379 . S
C1981 N1979 1.356 . S
N1982 C1974 1.356 . S
N1982 H1988 0.984 . S
N1982 H1989 0.984 . S
N1983 C1976 1.356 . S
N1983 H1986 0.984 . S
N1983 H1987 0.985 . S
H1984 N1979 0.984 . S
H1985 N1979 0.985 . S
H1986 N1983 0.984 . S
H1987 N1983 0.985 . S
H1988 N1982 0.984 . S
H1989 N1982 0.984 . S
H1990 N1978 0.984 . S
H1991 N1978 0.985 . S
C1992 C1993 1.363 . S
C1992 C1998 1.379 1_655 S
C1992 N2000 1.356 . S
C1993 C1992 1.363 . S
C1993 C1999 1.363 . S
C1994 C1995 1.363 . S
C1994 C1999 1.379 1_455 S
C1994 N2001 1.356 . S
C1995 C1994 1.363 . S
C1995 C1998 1.363 . S
N1996 C1998 1.356 . S
N1996 H2008 0.984 . S
N1996 H2009 0.985 . S
N1997 C1999 1.356 . S
N1997 H2002 0.984 . S
N1997 H2003 0.985 . S
C1998 C1992 1.379 1_455 S
C1998 C1995 1.363 . S
C1998 N1996 1.356 . S
C1999 C1993 1.363 . S
C1999 C1994 1.379 1_655 S
C1999 N1997 1.356 . S
N2000 C1992 1.356 . S
N2000 H2006 0.984 . S
N2000 H2007 0.984 . S
N2001 C1994 1.356 . S
N2001 H2004 0.984 . S
N2001 H2005 0.985 . S
H2002 N1997 0.984 . S
H2003 N1997 0.985 . S
H2004 N2001 0.984 . S
H2005 N2001 0.985 . S
H2006 N2000 0.984 . S
H2007 N2000 0.984 . S
H2008 N1996 0.984 . S
H2009 N1996 0.985 . S
C2010 C2011 1.363 . S
C2010 C2016 1.379 1_565 S
C2010 N2018 1.356 . S
C2011 C2010 1.363 . S
C2011 C2017 1.363 . S
C2012 C2013 1.363 . S
C2012 C2017 1.379 1_545 S
C2012 N2019 1.356 . S
C2013 C2012 1.363 . S
C2013 C2016 1.363 . S
N2014 C2016 1.356 . S
N2014 H2026 0.984 . S
N2014 H2027 0.985 . S
N2015 C2017 1.356 . S
N2015 H2020 0.984 . S
N2015 H2021 0.985 . S
C2016 C2010 1.379 1_545 S
C2016 C2013 1.363 . S
C2016 N2014 1.356 . S
C2017 C2011 1.363 . S
C2017 C2012 1.379 1_565 S
C2017 N2015 1.356 . S
N2018 C2010 1.356 . S
N2018 H2024 0.984 . S
N2018 H2025 0.984 . S
N2019 C2012 1.356 . S
N2019 H2022 0.984 . S
N2019 H2023 0.985 . S
H2020 N2015 0.984 . S
H2021 N2015 0.985 . S
H2022 N2019 0.984 . S
H2023 N2019 0.985 . S
H2024 N2018 0.984 . S
H2025 N2018 0.984 . S
H2026 N2014 0.984 . S
H2027 N2014 0.985 . S
C2028 C2029 1.363 1_455 S
C2028 C2034 1.379 . S
C2028 N2036 1.356 1_455 S
C2029 C2028 1.363 1_655 S
C2029 C2035 1.363 . S
C2030 C2031 1.363 1_655 S
C2030 C2035 1.379 . S
C2030 N2037 1.356 1_655 S
C2031 C2030 1.363 1_455 S
C2031 C2034 1.363 . S
N2032 C2034 1.356 . S
N2032 H2044 0.984 . S
N2032 H2045 0.985 . S
N2033 C2035 1.356 . S
N2033 H2038 0.984 . S
N2033 H2039 0.985 . S
C2034 C2028 1.379 . S
C2034 C2031 1.363 . S
C2034 N2032 1.356 . S
C2035 C2029 1.363 . S
C2035 C2030 1.379 . S
C2035 N2033 1.356 . S
N2036 C2028 1.356 1_655 S
N2036 H2042 0.984 1_655 S
N2036 H2043 0.984 . S
N2037 C2030 1.356 1_455 S
N2037 H2040 0.984 . S
N2037 H2041 0.985 1_455 S
H2038 N2033 0.984 . S
H2039 N2033 0.985 . S
H2040 N2037 0.984 . S
H2041 N2037 0.985 1_655 S
H2042 N2036 0.984 1_455 S
H2043 N2036 0.984 . S
H2044 N2032 0.984 . S
H2045 N2032 0.985 . S
C2046 C2047 1.363 . S
C2046 C2052 1.365 1_565 S
C2046 N2054 1.356 . S
C2047 C2046 1.363 . S
C2047 C2053 1.377 . S
C2048 C2049 1.363 . S
C2048 C2053 1.365 1_545 S
C2048 N2055 1.356 . S
C2049 C2048 1.363 . S
C2049 C2052 1.377 . S
N2050 C2052 1.361 . S
N2050 H2062 0.984 1_545 S
N2050 H2063 0.985 . S
N2051 C2053 1.361 . S
N2051 H2056 0.984 . S
N2051 H2057 0.985 1_565 S
C2052 C2046 1.365 1_545 S
C2052 C2049 1.377 . S
C2052 N2050 1.361 . S
C2053 C2047 1.377 . S
C2053 C2048 1.365 1_565 S
C2053 N2051 1.361 . S
N2054 C2046 1.356 . S
N2054 H2060 0.984 . S
N2054 H2061 0.984 . S
N2055 C2048 1.356 . S
N2055 H2058 0.984 . S
N2055 H2059 0.985 . S
H2056 N2051 0.984 . S
H2057 N2051 0.985 1_545 S
H2058 N2055 0.984 . S
H2059 N2055 0.985 . S
H2060 N2054 0.984 . S
H2061 N2054 0.984 . S
H2062 N2050 0.984 1_565 S
H2063 N2050 0.985 . S
C2064 C2065 1.363 . S
C2064 C2070 1.379 1_655 S
C2064 N2072 1.356 . S
C2065 C2064 1.363 . S
C2065 C2071 1.363 . S
C2066 C2067 1.363 . S
C2066 C2071 1.379 1_455 S
C2066 N2073 1.356 . S
C2067 C2066 1.363 . S
C2067 C2070 1.363 . S
N2068 C2070 1.356 . S
N2068 H2080 0.984 . S
N2068 H2081 0.985 . S
N2069 C2071 1.356 . S
N2069 H2074 0.984 . S
N2069 H2075 0.985 . S
C2070 C2064 1.379 1_455 S
C2070 C2067 1.363 . S
C2070 N2068 1.356 . S
C2071 C2065 1.363 . S
C2071 C2066 1.379 1_655 S
C2071 N2069 1.356 . S
N2072 C2064 1.356 . S
N2072 H2078 0.984 . S
N2072 H2079 0.984 . S
N2073 C2066 1.356 . S
N2073 H2076 0.984 . S
N2073 H2077 0.985 . S
H2074 N2069 0.984 . S
H2075 N2069 0.985 . S
H2076 N2073 0.984 . S
H2077 N2073 0.985 . S
H2078 N2072 0.984 . S
H2079 N2072 0.984 . S
H2080 N2068 0.984 . S
H2081 N2068 0.985 . S
C2082 C2083 1.363 1_545 S
C2082 C2088 1.379 . S
C2082 N2090 1.356 1_545 S
C2083 C2082 1.363 1_565 S
C2083 C2089 1.363 . S
C2084 C2085 1.363 1_565 S
C2084 C2089 1.379 . S
C2084 N2091 1.356 1_565 S
C2085 C2084 1.363 1_545 S
C2085 C2088 1.363 . S
N2086 C2088 1.356 . S
N2086 H2098 0.984 . S
N2086 H2099 0.985 . S
N2087 C2089 1.356 . S
N2087 H2092 0.984 . S
N2087 H2093 0.985 . S
C2088 C2082 1.379 . S
C2088 C2085 1.363 . S
C2088 N2086 1.356 . S
C2089 C2083 1.363 . S
C2089 C2084 1.379 . S
C2089 N2087 1.356 . S
N2090 C2082 1.356 1_565 S
N2090 H2096 0.984 1_565 S
N2090 H2097 0.984 . S
N2091 C2084 1.356 1_545 S
N2091 H2094 0.984 . S
N2091 H2095 0.985 1_545 S
H2092 N2087 0.984 . S
H2093 N2087 0.985 . S
H2094 N2091 0.984 . S
H2095 N2091 0.985 1_565 S
H2096 N2090 0.984 1_545 S
H2097 N2090 0.984 . S
H2098 N2086 0.984 . S
H2099 N2086 0.985 . S
C2100 C2101 1.363 . S
C2100 C2106 1.379 . S
C2100 N2108 1.356 . S
C2101 C2100 1.363 . S
C2101 C2107 1.363 1_655 S
C2102 C2103 1.363 . S
C2102 C2107 1.379 . S
C2102 N2109 1.356 . S
C2103 C2102 1.363 . S
C2103 C2106 1.363 1_455 S
N2104 C2106 1.356 1_455 S
N2104 H2116 0.984 1_455 S
N2104 H2117 0.985 . S
N2105 C2107 1.356 1_655 S
N2105 H2110 0.984 . S
N2105 H2111 0.985 1_655 S
C2106 C2100 1.379 . S
C2106 C2103 1.363 1_655 S
C2106 N2104 1.356 1_655 S
C2107 C2101 1.363 1_455 S
C2107 C2102 1.379 . S
C2107 N2105 1.356 1_455 S
N2108 C2100 1.356 . S
N2108 H2114 0.984 . S
N2108 H2115 0.984 . S
N2109 C2102 1.356 . S
N2109 H2112 0.984 . S
N2109 H2113 0.985 . S
H2110 N2105 0.984 . S
H2111 N2105 0.985 1_455 S
H2112 N2109 0.984 . S
H2113 N2109 0.985 . S
H2114 N2108 0.984 . S
H2115 N2108 0.984 . S
H2116 N2104 0.984 1_655 S
H2117 N2104 0.985 . S
C2118 C2119 1.363 . S
C2118 C2124 1.379 . S
C2118 N2126 1.356 . S
C2119 C2118 1.363 . S
C2119 C2125 1.363 1_565 S
C2120 C2121 1.363 . S
C2120 C2125 1.379 . S
C2120 N2127 1.356 . S
C2121 C2120 1.363 . S
C2121 C2124 1.363 1_545 S
N2122 C2124 1.356 1_545 S
N2122 H2134 0.984 1_545 S
N2122 H2135 0.985 . S
N2123 C2125 1.356 1_565 S
N2123 H2128 0.984 . S
N2123 H2129 0.985 1_565 S
C2124 C2118 1.379 . S
C2124 C2121 1.363 1_565 S
C2124 N2122 1.356 1_565 S
C2125 C2119 1.363 1_545 S
C2125 C2120 1.379 . S
C2125 N2123 1.356 1_545 S
N2126 C2118 1.356 . S
N2126 H2132 0.984 . S
N2126 H2133 0.984 . S
N2127 C2120 1.356 . S
N2127 H2130 0.984 . S
N2127 H2131 0.985 . S
H2128 N2123 0.984 . S
H2129 N2123 0.985 1_545 S
H2130 N2127 0.984 . S
H2131 N2127 0.985 . S
H2132 N2126 0.984 . S
H2133 N2126 0.984 . S
H2134 N2122 0.984 1_565 S
H2135 N2122 0.985 . S
C2136 C2137 1.363 . S
C2136 C2142 1.379 1_556 S
C2136 N2144 1.356 . S
C2137 C2136 1.363 . S
C2137 C2143 1.363 . S
C2138 C2139 1.363 . S
C2138 C2143 1.379 1_554 S
C2138 N2145 1.356 . S
C2139 C2138 1.363 . S
C2139 C2142 1.363 . S
N2140 C2142 1.356 . S
N2140 H2152 0.984 . S
N2140 H2153 0.985 . S
N2141 C2143 1.356 . S
N2141 H2146 0.984 . S
N2141 H2147 0.985 . S
C2142 C2136 1.379 1_554 S
C2142 C2139 1.363 . S
C2142 N2140 1.356 . S
C2143 C2137 1.363 . S
C2143 C2138 1.379 1_556 S
C2143 N2141 1.356 . S
N2144 C2136 1.356 . S
N2144 H2150 0.984 . S
N2144 H2151 0.984 . S
N2145 C2138 1.356 . S
N2145 H2148 0.984 . S
N2145 H2149 0.985 . S
H2146 N2141 0.984 . S
H2147 N2141 0.985 . S
H2148 N2145 0.984 . S
H2149 N2145 0.985 . S
H2150 N2144 0.984 . S
H2151 N2144 0.984 . S
H2152 N2140 0.984 . S
H2153 N2140 0.985 . S
C2154 C2155 1.363 . S
C2154 C2160 1.365 1_556 S
C2154 N2162 1.356 . S
C2155 C2154 1.363 . S
C2155 C2161 1.377 . S
C2156 C2157 1.363 . S
C2156 C2161 1.365 1_554 S
C2156 N2163 1.356 . S
C2157 C2156 1.363 . S
C2157 C2160 1.377 . S
N2158 C2160 1.361 . S
N2158 H2170 0.984 1_554 S
N2158 H2171 0.985 . S
N2159 C2161 1.361 . S
N2159 H2164 0.984 . S
N2159 H2165 0.985 1_556 S
C2160 C2154 1.365 1_554 S
C2160 C2157 1.377 . S
C2160 N2158 1.361 . S
C2161 C2155 1.377 . S
C2161 C2156 1.365 1_556 S
C2161 N2159 1.361 . S
N2162 C2154 1.356 . S
N2162 H2168 0.984 . S
N2162 H2169 0.984 . S
N2163 C2156 1.356 . S
N2163 H2166 0.984 . S
N2163 H2167 0.985 . S
H2164 N2159 0.984 . S
H2165 N2159 0.985 1_554 S
H2166 N2163 0.984 . S
H2167 N2163 0.985 . S
H2168 N2162 0.984 . S
H2169 N2162 0.984 . S
H2170 N2158 0.984 1_556 S
H2171 N2158 0.985 . S
C2172 C2173 1.363 . S
C2172 C2178 1.379 . S
C2172 N2180 1.356 . S
C2173 C2172 1.363 . S
C2173 C2179 1.363 1_556 S
C2174 C2175 1.363 . S
C2174 C2179 1.379 . S
C2174 N2181 1.356 . S
C2175 C2174 1.363 . S
C2175 C2178 1.363 1_554 S
N2176 C2178 1.356 1_554 S
N2176 H2188 0.984 1_554 S
N2176 H2189 0.985 . S
N2177 C2179 1.356 1_556 S
N2177 H2182 0.984 . S
N2177 H2183 0.985 1_556 S
C2178 C2172 1.379 . S
C2178 C2175 1.363 1_556 S
C2178 N2176 1.356 1_556 S
C2179 C2173 1.363 1_554 S
C2179 C2174 1.379 . S
C2179 N2177 1.356 1_554 S
N2180 C2172 1.356 . S
N2180 H2186 0.984 . S
N2180 H2187 0.984 . S
N2181 C2174 1.356 . S
N2181 H2184 0.984 . S
N2181 H2185 0.985 . S
H2182 N2177 0.984 . S
H2183 N2177 0.985 1_554 S
H2184 N2181 0.984 . S
H2185 N2181 0.985 . S
H2186 N2180 0.984 . S
H2187 N2180 0.984 . S
H2188 N2176 0.984 1_556 S
H2189 N2176 0.985 . S
C2190 C2191 1.363 . S
C2190 C2196 1.379 1_556 S
C2190 N2198 1.356 . S
C2191 C2190 1.363 . S
C2191 C2197 1.363 . S
C2192 C2193 1.363 . S
C2192 C2197 1.379 1_554 S
C2192 N2199 1.356 . S
C2193 C2192 1.363 . S
C2193 C2196 1.363 . S
N2194 C2196 1.356 . S
N2194 H2206 0.984 . S
N2194 H2207 0.985 . S
N2195 C2197 1.356 . S
N2195 H2200 0.984 . S
N2195 H2201 0.985 . S
C2196 C2190 1.379 1_554 S
C2196 C2193 1.363 . S
C2196 N2194 1.356 . S
C2197 C2191 1.363 . S
C2197 C2192 1.379 1_556 S
C2197 N2195 1.356 . S
N2198 C2190 1.356 . S
N2198 H2204 0.984 . S
N2198 H2205 0.984 . S
N2199 C2192 1.356 . S
N2199 H2202 0.984 . S
N2199 H2203 0.985 . S
H2200 N2195 0.984 . S
H2201 N2195 0.985 . S
H2202 N2199 0.984 . S
H2203 N2199 0.985 . S
H2204 N2198 0.984 . S
H2205 N2198 0.984 . S
H2206 N2194 0.984 . S
H2207 N2194 0.985 . S
C697 C8 2.626 . S
C699 C382 2.567 . S
C715 C37 2.626 . S
C717 C411 2.567 . S
C733 C66 2.626 . S
C735 C440 2.567 . S
C751 C95 2.626 . S
C753 C353 2.567 . S
C769 C124 2.626 . S
C771 C324 2.567 . S
C787 C153 2.626 . S
C789 C237 2.567 . S
C805 C182 2.626 . S
C807 C266 2.567 . S
C823 C211 2.626 . S
C825 C295 2.567 . S
C841 C240 2.626 . S
C843 C34 2.567 . S
C859 C269 2.626 . S
C861 C63 2.567 . S
C877 C298 2.626 . S
C879 C92 2.567 . S
C895 C327 2.626 . S
C897 C5 2.567 . S
C913 C208 2.567 . S
C915 C356 2.626 . S
C931 C385 2.626 . S
C933 C121 2.567 . S
C949 C414 2.626 . S
C951 C150 2.567 . S
C967 C443 2.626 . S
C969 C179 2.567 . S
C985 C472 2.626 . S
C987 C643 2.567 . S
C1003 C501 2.626 . S
C1005 C527 2.567 . S
C1021 C530 2.626 . S
C1023 C556 2.567 . S
C1039 C559 2.626 . S
C1041 C585 2.567 . S
C1057 C588 2.626 . S
C1059 C498 2.567 . S
C1075 C617 2.626 . S
C1077 C672 2.567 . S
C1093 C646 2.626 . S
C1095 C614 2.567 . S
C1111 C675 2.626 . S
C1113 C469 2.567 . S
C1129 C3 2.309 . S
C1131 C641 2.309 . S
C1147 C32 2.309 . S
C1149 C467 2.309 . S
C1165 C670 2.309 . S
C1167 C61 2.309 . S
C1183 C612 2.309 . S
C1185 C90 2.309 . S
C1201 C119 2.309 . S
C1203 C525 2.309 . S
C1219 C148 2.309 . S
C1221 C554 2.309 . S
C1237 C583 2.309 . S
C1239 C177 2.309 . S
C1255 C496 2.309 . S
C1257 C206 2.309 . S
C1273 C380 2.309 . S
C1275 C235 2.309 . S
C1291 C409 2.309 . S
C1293 C264 2.309 . S
C1309 C438 2.309 . S
C1311 C293 2.309 . S
C1327 C322 2.309 . S
C1329 C351 2.309 . S
C1345 C79 0.825 . S
C1347 C21 0.825 . S
C1363 C108 0.825 . S
C1365 C50 0.825 . S
C1381 C195 0.825 . S
C1383 C137 0.825 . S
C1399 C224 0.825 . S
C1401 C166 0.825 . S
C1417 C369 0.825 . S
C1419 C253 0.825 . S
C1435 C282 0.825 . S
C1437 C398 0.825 . S
C1453 C311 0.825 . S
C1455 C427 0.825 . S
C1471 C456 0.825 . S
C1473 C340 0.825 . S
C1489 C572 0.825 . S
C1491 C485 0.825 . S
C1507 C514 0.825 . S
C1509 C630 0.825 . S
C1525 C543 0.825 . S
C1527 C659 0.825 . S
C1543 C601 0.825 . S
C1545 C688 0.825 . S
C1561 C245 1.033 . S
C1563 C15 1.061 . S
C1579 C44 1.061 . S
C1581 C274 1.033 . S
C1597 C73 1.061 . S
C1599 C303 1.033 . S
C1615 C332 1.033 . S
C1617 C102 1.061 . S
C1633 C131 1.061 . S
C1635 C361 1.033 . S
C1651 C160 1.061 . S
C1653 C390 1.033 . S
C1669 C419 1.033 . S
C1671 C189 1.061 . S
C1687 C218 1.061 . S
C1689 C448 1.033 . S
C1705 C477 1.033 . S
C1707 C247 1.061 . S
C1723 C680 1.033 . S
C1725 C276 1.061 . S
C1741 C622 1.033 . S
C1743 C305 1.061 . S
C1759 C651 1.033 . S
C1761 C334 1.061 . S
C1777 C363 1.061 . S
C1779 C506 1.033 . S
C1795 C392 1.061 . S
C1797 C535 1.033 . S
C1813 C421 1.061 . S
C1815 C564 1.033 . S
C1831 C450 1.061 . S
C1833 C593 1.033 . S
C1849 C479 1.061 . S
C1851 C13 1.033 . S
C1867 C129 1.033 . S
C1869 C508 1.061 . S
C1885 C158 1.033 . S
C1887 C537 1.061 . S
C1903 C566 1.061 . S
C1905 C187 1.033 . S
C1921 C595 1.061 . S
C1923 C216 1.033 . S
C1939 C624 1.061 . S
C1941 C71 1.033 . S
C1957 C653 1.061 . S
C1959 C100 1.033 . S
C1975 C682 1.061 . S
C1977 C42 1.033 . S
C1993 C271 1.728 . S
C1995 C10 1.728 . S
C2011 C300 1.728 . S
C2013 C39 1.728 . S
C2029 C68 1.728 . S
C2031 C329 1.728 . S
C2047 C97 1.728 . S
C2049 C242 1.728 . S
C2065 C445 1.728 . S
C2067 C126 1.728 . S
C2083 C358 1.728 . S
C2085 C155 1.728 . S
C2101 C184 1.728 . S
C2103 C387 1.728 . S
C2119 C213 1.728 . S
C2121 C416 1.728 . S
C2137 C532 1.728 . S
C2139 C474 1.728 . S
C2155 C503 1.728 . S
C2157 C648 1.728 . S
C2173 C561 1.728 . S
C2175 C677 1.728 . S
C2191 C590 1.728 . S
C2193 C619 1.728 . S
