# Generated by pormake.
# Topology umw, (4)-cn, num edge types: 1
# Building blocks:
#     Node 0, Type 0, BuildingBlock: AZAVOO_clean_sbu_0, # of connection points: 4
#     Node 1, Type 0, BuildingBlock: AZAVOO_clean_sbu_0, # of connection points: 4
#     Node 2, Type 0, BuildingBlock: AZAVOO_clean_sbu_0, # of connection points: 4
#     Node 3, Type 0, BuildingBlock: AZAVOO_clean_sbu_0, # of connection points: 4
#     Node 4, Type 0, BuildingBlock: AZAVOO_clean_sbu_0, # of connection points: 4
#     Node 5, Type 0, BuildingBlock: AZAVOO_clean_sbu_0, # of connection points: 4
#     Node 6, Type 0, BuildingBlock: AZAVOO_clean_sbu_0, # of connection points: 4
#     Node 7, Type 0, BuildingBlock: AZAVOO_clean_sbu_0, # of connection points: 4
#     Edge 8, Type (0, 0), BuildingBlock: XUDNAN_clean_linker_2, # of connection points: 2
#     Edge 9, Type (0, 0), BuildingBlock: XUDNAN_clean_linker_2, # of connection points: 2
#     Edge 10, Type (0, 0), BuildingBlock: XUDNAN_clean_linker_2, # of connection points: 2
#     Edge 11, Type (0, 0), BuildingBlock: XUDNAN_clean_linker_2, # of connection points: 2
#     Edge 12, Type (0, 0), BuildingBlock: XUDNAN_clean_linker_2, # of connection points: 2
#     Edge 13, Type (0, 0), BuildingBlock: XUDNAN_clean_linker_2, # of connection points: 2
#     Edge 14, Type (0, 0), BuildingBlock: XUDNAN_clean_linker_2, # of connection points: 2
#     Edge 15, Type (0, 0), BuildingBlock: XUDNAN_clean_linker_2, # of connection points: 2
#     Edge 16, Type (0, 0), BuildingBlock: XUDNAN_clean_linker_2, # of connection points: 2
#     Edge 17, Type (0, 0), BuildingBlock: XUDNAN_clean_linker_2, # of connection points: 2
#     Edge 18, Type (0, 0), BuildingBlock: XUDNAN_clean_linker_2, # of connection points: 2
#     Edge 19, Type (0, 0), BuildingBlock: XUDNAN_clean_linker_2, # of connection points: 2
#     Edge 20, Type (0, 0), BuildingBlock: XUDNAN_clean_linker_2, # of connection points: 2
#     Edge 21, Type (0, 0), BuildingBlock: XUDNAN_clean_linker_2, # of connection points: 2
#     Edge 22, Type (0, 0), BuildingBlock: XUDNAN_clean_linker_2, # of connection points: 2
#     Edge 23, Type (0, 0), BuildingBlock: XUDNAN_clean_linker_2, # of connection points: 2
# Relax obj value: 0.146
# Max RMSD: 0.120
# Mean RMSD: 0.120
data_MOF--net-umw--node1-AZAVOO_clean_sbu_0--edge1-XUDNAN_clean_linker_2
_symmetry_space_group_name_H-M    P1
_symmetry_Int_Tables_number       1
_symmetry_cell_setting            triclinic
loop_
_symmetry_equiv_pos_as_xyz
'x, y, z'
_cell_length_a     45.151357
_cell_length_b     44.57927
_cell_length_c     23.561514
_cell_angle_alpha  90.185386
_cell_angle_beta   90.729642
_cell_angle_gamma 90.57716
loop_
_atom_site_label
_atom_site_type_symbol
_atom_site_fract_x
_atom_site_fract_y
_atom_site_fract_z
_atom_type_partial_charge
Mg0 Mg 0.37104 0.15263 0.2692 0.0
O1 O 0.40875 0.14863 0.33452 0.0
O2 O 0.4377 0.11034 0.31017 0.0
Mg3 Mg 0.41898 0.09028 0.22725 0.0
C4 C 0.43112 0.13192 0.3433 0.0
C5 C 0.33143 0.2055 0.30457 0.0
O6 O 0.31256 0.1884 0.27608 0.0
O7 O 0.40306 0.17471 0.20693 0.0
O8 O 0.42818 0.13412 0.17955 0.0
O9 O 0.34299 0.11842 0.31477 0.0
O10 O 0.3753 0.10734 0.24867 0.0
C11 C 0.42232 0.16203 0.17597 0.0
C12 C 0.35654 0.09828 0.28547 0.0
O13 O 0.35832 0.1975 0.30826 0.0
Mg14 Mg 0.8226 0.37615 0.50112 0.0
O15 O 0.82908 0.41564 0.56275 0.0
O16 O 0.85886 0.44922 0.52125 0.0
Mg17 Mg 0.87498 0.42941 0.43729 0.0
C18 C 0.84267 0.44087 0.56243 0.0
C19 C 0.75676 0.35767 0.53672 0.0
O20 O 0.74965 0.36878 0.4869 0.0
O21 O 0.79325 0.40477 0.44171 0.0
O22 O 0.82822 0.43312 0.40066 0.0
O23 O 0.86271 0.35355 0.53902 0.0
O24 O 0.86377 0.38396 0.46529 0.0
C25 C 0.80136 0.42443 0.40553 0.0
C26 C 0.87783 0.36735 0.50059 0.0
O27 O 0.78365 0.35853 0.55348 0.0
Mg28 Mg 0.59753 0.82943 0.76169 0.0
O29 O 0.56059 0.83441 0.82826 0.0
O30 O 0.52874 0.86828 0.79396 0.0
Mg31 Mg 0.54675 0.88786 0.71191 0.0
C32 C 0.53666 0.84936 0.83159 0.0
C33 C 0.61748 0.76167 0.77974 0.0
O34 O 0.60945 0.75875 0.72621 0.0
O35 O 0.56547 0.80425 0.7013 0.0
O36 O 0.53721 0.8421 0.67076 0.0
O37 O 0.62532 0.86529 0.80288 0.0
O38 O 0.59163 0.87384 0.73639 0.0
C39 C 0.54443 0.81447 0.67042 0.0
C40 C 0.61125 0.88433 0.77148 0.0
O41 O 0.61397 0.78671 0.80462 0.0
Mg42 Mg 0.14198 0.59733 0.01726 0.0
O43 O 0.13443 0.55724 0.0759 0.0
O44 O 0.1038 0.5248 0.03179 0.0
Mg45 Mg 0.08839 0.54633 0.94813 0.0
C46 C 0.12027 0.53236 0.074 0.0
C47 C 0.19714 0.63447 0.05728 0.0
O48 O 0.19029 0.64816 0.00965 0.0
O49 O 0.17087 0.5689 0.95782 0.0
O50 O 0.13518 0.54192 0.91372 0.0
O51 O 0.10253 0.62052 0.05492 0.0
O52 O 0.10044 0.59136 0.97903 0.0
C53 C 0.16225 0.54987 0.92019 0.0
C54 C 0.08693 0.6078 0.01498 0.0
O55 O 0.18173 0.61186 0.07219 0.0
Mg56 Mg 0.37029 0.8236 0.27507 0.0
O57 O 0.3998 0.82836 0.19649 0.0
O58 O 0.43581 0.86157 0.21718 0.0
Mg59 Mg 0.4273 0.88099 0.3054 0.0
C60 C 0.42327 0.84287 0.18327 0.0
C61 C 0.34152 0.75869 0.26811 0.0
O62 O 0.34761 0.75919 0.32279 0.0
O63 O 0.40641 0.79785 0.32335 0.0
O64 O 0.43783 0.83547 0.34539 0.0
O65 O 0.34038 0.86012 0.24498 0.0
O66 O 0.38023 0.86794 0.29838 0.0
C67 C 0.42984 0.80796 0.34798 0.0
C68 C 0.35796 0.87883 0.27105 0.0
O69 O 0.34909 0.78096 0.23783 0.0
Mg70 Mg 0.14899 0.37366 0.53249 0.0
O71 O 0.14488 0.40375 0.4537 0.0
O72 O 0.11057 0.43846 0.46959 0.0
Mg73 Mg 0.0925 0.43039 0.55849 0.0
C74 C 0.12971 0.4263 0.43776 0.0
C75 C 0.21735 0.35497 0.51251 0.0
O76 O 0.22392 0.37112 0.55775 0.0
O77 O 0.17446 0.41002 0.58293 0.0
O78 O 0.13787 0.44251 0.59756 0.0
O79 O 0.11322 0.3449 0.49557 0.0
O80 O 0.10503 0.38278 0.55411 0.0
C81 C 0.16481 0.4345 0.6038 0.0
C82 C 0.09461 0.36205 0.52109 0.0
O83 O 0.19064 0.35317 0.49503 0.0
Mg84 Mg 0.60301 0.15708 0.78696 0.0
O85 O 0.57147 0.15143 0.71019 0.0
O86 O 0.54238 0.11116 0.72295 0.0
Mg87 Mg 0.55325 0.09261 0.81092 0.0
C88 C 0.55105 0.13338 0.69322 0.0
C89 C 0.6442 0.21113 0.75646 0.0
O90 O 0.66315 0.1941 0.78384 0.0
O91 O 0.56548 0.17746 0.83846 0.0
O92 O 0.53738 0.13643 0.85101 0.0
O93 O 0.63523 0.12426 0.75018 0.0
O94 O 0.59796 0.1117 0.80539 0.0
C95 C 0.54256 0.16442 0.85846 0.0
C96 C 0.61964 0.10354 0.77438 0.0
O97 O 0.61731 0.20261 0.75228 0.0
Mg98 Mg 0.81545 0.59962 0.02017 0.0
O99 O 0.82106 0.569 0.94285 0.0
O100 O 0.85602 0.53513 0.96074 0.0
Mg101 Mg 0.87313 0.54462 0.05102 0.0
C102 C 0.8367 0.54675 0.92778 0.0
C103 C 0.76194 0.64186 0.99006 0.0
O104 O 0.77543 0.65915 0.02775 0.0
O105 O 0.7908 0.5631 0.06934 0.0
O106 O 0.8278 0.53132 0.08696 0.0
O107 O 0.85094 0.62921 0.98565 0.0
O108 O 0.85949 0.59203 0.04536 0.0
C109 C 0.80069 0.53891 0.09106 0.0
C110 C 0.86978 0.61286 0.0132 0.0
O111 O 0.77256 0.6162 0.97926 0.0
H112 H 0.4576 0.09119 0.41359 0.0
H113 H 0.44711 0.18663 0.38587 0.0
H114 H 0.47924 0.1974 0.4695 0.0
H115 H 0.45277 0.09565 0.56481 0.0
H116 H 0.47911 0.06627 0.57782 0.0
H117 H 0.45735 0.06614 0.51326 0.0
H118 H 0.50539 0.06446 0.45433 0.0
H119 H 0.52731 0.06468 0.51877 0.0
H120 H 0.5336 0.09286 0.46545 0.0
H121 H 0.51321 0.19766 0.55493 0.0
H122 H 0.54165 0.18761 0.64311 0.0
H123 H 0.52621 0.09209 0.6201 0.0
C124 C 0.46238 0.11432 0.42492 0.0
C125 C 0.45027 0.13814 0.39316 0.0
C126 C 0.45631 0.16813 0.40978 0.0
C127 C 0.47461 0.17444 0.45694 0.0
C128 C 0.48621 0.15046 0.48752 0.0
C129 C 0.47997 0.12101 0.47275 0.0
C130 C 0.49342 0.09944 0.51517 0.0
C131 C 0.46922 0.08079 0.5445 0.0
C132 C 0.51629 0.07917 0.48671 0.0
C133 C 0.50819 0.12136 0.55607 0.0
C134 C 0.50424 0.15066 0.53877 0.0
C135 C 0.51633 0.17482 0.56909 0.0
C136 C 0.53253 0.1689 0.61893 0.0
C137 C 0.53594 0.13912 0.63845 0.0
C138 C 0.52372 0.1151 0.60635 0.0
H139 H 0.84595 0.42695 0.67521 0.0
H140 H 0.83244 0.50082 0.55885 0.0
H141 H 0.82648 0.53544 0.64023 0.0
H142 H 0.79602 0.45065 0.78566 0.0
H143 H 0.82035 0.43942 0.84282 0.0
H144 H 0.82125 0.42005 0.77565 0.0
H145 H 0.87753 0.43115 0.76856 0.0
H146 H 0.87682 0.45046 0.83575 0.0
H147 H 0.89078 0.46935 0.77392 0.0
H148 H 0.82088 0.56156 0.73403 0.0
H149 H 0.82241 0.57905 0.83364 0.0
H150 H 0.84458 0.48921 0.88907 0.0
C151 C 0.84145 0.45038 0.6671 0.0
C152 C 0.83926 0.46132 0.61107 0.0
C153 C 0.83408 0.49215 0.60167 0.0
C154 C 0.83054 0.51188 0.64753 0.0
C155 C 0.83286 0.50045 0.70239 0.0
C156 C 0.8387 0.47053 0.71242 0.0
C157 C 0.84239 0.46449 0.77538 0.0
C158 C 0.81858 0.44234 0.79608 0.0
C159 C 0.87374 0.4532 0.7892 0.0
C160 C 0.83765 0.49567 0.79918 0.0
C161 C 0.83161 0.51594 0.7564 0.0
C162 C 0.82577 0.54596 0.76788 0.0
C163 C 0.82656 0.55564 0.82455 0.0
C164 C 0.83375 0.53551 0.8689 0.0
C165 C 0.83924 0.50512 0.85592 0.0
H166 H 0.48102 0.85105 0.15145 0.0
H167 H 0.39405 0.82549 0.08609 0.0
H168 H 0.41437 0.82197 0.98941 0.0
H169 H 0.5032 0.89615 0.03684 0.0
H170 H 0.54121 0.88416 0.03759 0.0
H171 H 0.52019 0.88341 0.10198 0.0
H172 H 0.53159 0.82694 0.1143 0.0
H173 H 0.55275 0.82753 0.04996 0.0
H174 H 0.52259 0.8011 0.0575 0.0
H175 H 0.44282 0.82662 0.89914 0.0
H176 H 0.47872 0.83424 0.8219 0.0
H177 H 0.54827 0.85241 0.94608 0.0
C178 C 0.46631 0.84448 0.11683 0.0
C179 C 0.43591 0.83869 0.12617 0.0
C180 C 0.41742 0.82992 0.07991 0.0
C181 C 0.42875 0.82793 0.02487 0.0
C182 C 0.45873 0.83416 0.01702 0.0
C183 C 0.47739 0.84176 0.06182 0.0
C184 C 0.50875 0.84739 0.04178 0.0
C185 C 0.51892 0.8797 0.05535 0.0
C186 C 0.53018 0.82436 0.06741 0.0
C187 C 0.50465 0.84257 0.97846 0.0
C188 C 0.47555 0.83512 0.96512 0.0
C189 C 0.46576 0.83183 0.90912 0.0
C190 C 0.48622 0.83628 0.86563 0.0
C191 C 0.51616 0.84342 0.8784 0.0
C192 C 0.52558 0.84629 0.9355 0.0
H193 H 0.12464 0.48408 0.39981 0.0
H194 H 0.1408 0.3931 0.34317 0.0
H195 H 0.1406 0.41034 0.24347 0.0
H196 H 0.07651 0.50588 0.28867 0.0
H197 H 0.09127 0.54343 0.28254 0.0
H198 H 0.09341 0.52416 0.34947 0.0
H199 H 0.15031 0.53229 0.3528 0.0
H200 H 0.14833 0.55185 0.28607 0.0
H201 H 0.17228 0.51998 0.29392 0.0
H202 H 0.1333 0.43674 0.14978 0.0
H203 H 0.12675 0.47169 0.06911 0.0
H204 H 0.12038 0.54612 0.18702 0.0
C205 C 0.12843 0.46789 0.36637 0.0
C206 C 0.13264 0.43726 0.37898 0.0
C207 C 0.13773 0.4167 0.3343 0.0
C208 C 0.13749 0.42626 0.27761 0.0
C209 C 0.1328 0.45654 0.26649 0.0
C210 C 0.12905 0.47718 0.30967 0.0
C211 C 0.12503 0.50852 0.28631 0.0
C212 C 0.09475 0.52123 0.30273 0.0
C213 C 0.15051 0.52939 0.30594 0.0
C214 C 0.12643 0.5022 0.22322 0.0
C215 C 0.13056 0.47202 0.21263 0.0
C216 C 0.13061 0.46049 0.15753 0.0
C217 C 0.12671 0.48041 0.11208 0.0
C218 C 0.12341 0.5115 0.12208 0.0
C219 C 0.12337 0.52248 0.17834 0.0
H220 H 0.27544 0.22842 0.3042 0.0
H221 H 0.36343 0.24261 0.37634 0.0
H222 H 0.34459 0.28461 0.4339 0.0
H223 H 0.25454 0.30757 0.29849 0.0
H224 H 0.21668 0.29951 0.31696 0.0
H225 H 0.23774 0.27215 0.27859 0.0
H226 H 0.22665 0.23268 0.35624 0.0
H227 H 0.20568 0.2599 0.3949 0.0
H228 H 0.23613 0.24104 0.4292 0.0
H229 H 0.31493 0.32278 0.48899 0.0
H230 H 0.27733 0.35442 0.53488 0.0
H231 H 0.20936 0.31509 0.42503 0.0
C232 C 0.29089 0.24058 0.33148 0.0
C233 C 0.32093 0.23222 0.33568 0.0
C234 C 0.34034 0.24866 0.37223 0.0
C235 C 0.32984 0.27255 0.40511 0.0
C236 C 0.29995 0.27986 0.40062 0.0
C237 C 0.28083 0.26447 0.36437 0.0
C238 C 0.24951 0.27588 0.36885 0.0
C239 C 0.23901 0.2896 0.31236 0.0
C240 C 0.22826 0.25089 0.38848 0.0
C241 C 0.25382 0.29972 0.4141 0.0
C242 C 0.28306 0.30184 0.4318 0.0
C243 C 0.29203 0.32152 0.47501 0.0
C244 C 0.27051 0.33936 0.50089 0.0
C245 C 0.2404 0.33736 0.48349 0.0
C246 C 0.23219 0.31741 0.43912 0.0
H247 H 0.76594 0.32106 0.62851 0.0
H248 H 0.69659 0.35733 0.52031 0.0
H249 H 0.65936 0.32714 0.57136 0.0
H250 H 0.73862 0.24775 0.63002 0.0
H251 H 0.74885 0.24026 0.70276 0.0
H252 H 0.76948 0.26746 0.66272 0.0
H253 H 0.75957 0.30781 0.73942 0.0
H254 H 0.73894 0.28066 0.77988 0.0
H255 H 0.72201 0.31552 0.75952 0.0
H256 H 0.63028 0.29004 0.62902 0.0
H257 H 0.6118 0.24793 0.68691 0.0
H258 H 0.70037 0.2352 0.75602 0.0
C259 C 0.74285 0.32318 0.6163 0.0
C260 C 0.73415 0.34173 0.57063 0.0
C261 C 0.70377 0.34336 0.55529 0.0
C262 C 0.68244 0.32636 0.58416 0.0
C263 C 0.69184 0.30786 0.62828 0.0
C264 C 0.72133 0.30621 0.64436 0.0
C265 C 0.72595 0.2829 0.69018 0.0
C266 C 0.74696 0.25813 0.67019 0.0
C267 C 0.73728 0.29761 0.74553 0.0
C268 C 0.69458 0.27114 0.69632 0.0
C269 C 0.67516 0.28612 0.66086 0.0
C270 C 0.64522 0.27835 0.65738 0.0
C271 C 0.63494 0.25438 0.69044 0.0
C272 C 0.65461 0.23825 0.72611 0.0
C273 C 0.68472 0.24715 0.7295 0.0
H274 H 0.7341 0.696 0.00117 0.0
H275 H 0.73162 0.61312 0.90386 0.0
H276 H 0.69119 0.63322 0.84415 0.0
H277 H 0.65371 0.71005 -0.00453 0.0
H278 H 0.65896 0.75002 0.98887 0.0
H279 H 0.68583 0.72804 0.02717 0.0
H280 H 0.72735 0.74861 0.96259 0.0
H281 H 0.70065 0.77057 0.92412 0.0
H282 H 0.72366 0.74451 0.88667 0.0
H283 H 0.65436 0.66417 0.78931 0.0
H284 H 0.62337 0.70328 0.74501 0.0
H285 H 0.64913 0.76536 0.87956 0.0
C286 C 0.72476 0.68186 0.96791 0.0
C287 C 0.73605 0.65295 0.95731 0.0
C288 C 0.72332 0.6353 0.91299 0.0
C289 C 0.7003 0.6465 0.87884 0.0
C290 C 0.69003 0.67528 0.88984 0.0
C291 C 0.7017 0.69263 0.93359 0.0
C292 C 0.68778 0.72339 0.93473 0.0
C293 C 0.67054 0.72814 0.98984 0.0
C294 C 0.71126 0.74822 0.92651 0.0
C295 C 0.66704 0.72092 0.88388 0.0
C296 C 0.66851 0.69294 0.85875 0.0
C297 C 0.6527 0.68601 0.80911 0.0
C298 C 0.6352 0.70839 0.78419 0.0
C299 C 0.63363 0.73731 0.80898 0.0
C300 C 0.64946 0.74335 0.85998 0.0
H301 H 0.23274 0.68357 0.03881 0.0
H302 H 0.21562 0.61287 0.16073 0.0
H303 H 0.25348 0.63496 0.22543 0.0
H304 H 0.3128 0.69003 0.06565 0.0
H305 H 0.31294 0.73021 0.05734 0.0
H306 H 0.28618 0.70747 0.01895 0.0
H307 H 0.24361 0.73852 0.06169 0.0
H308 H 0.2702 0.7613 0.10019 0.0
H309 H 0.24107 0.74218 0.1377 0.0
H310 H 0.29066 0.66701 0.27977 0.0
H311 H 0.32421 0.70622 0.31903 0.0
H312 H 0.31722 0.75549 0.16087 0.0
C313 C 0.23719 0.67245 0.07876 0.0
C314 C 0.22121 0.64643 0.0946 0.0
C315 C 0.22761 0.63277 0.14754 0.0
C316 C 0.24912 0.64513 0.18457 0.0
C317 C 0.26417 0.67104 0.16792 0.0
C318 C 0.25858 0.68445 0.11613 0.0
C319 C 0.2768 0.7129 0.10937 0.0
C320 C 0.29847 0.70996 0.05989 0.0
C321 C 0.25672 0.74034 0.10181 0.0
C322 C 0.29306 0.71378 0.16594 0.0
C323 C 0.28565 0.68935 0.199 0.0
C324 C 0.29686 0.68606 0.25401 0.0
C325 C 0.31589 0.70848 0.27597 0.0
C326 C 0.32349 0.73389 0.24302 0.0
C327 C 0.31215 0.73622 0.18701 0.0
H328 H 0.39805 0.92539 0.27902 0.0
H329 H 0.30403 0.90548 0.26521 0.0
H330 H 0.29311 0.95954 0.27479 0.0
H331 H 0.3942 0.98563 0.38018 0.0
H332 H 0.42275 0.00781 0.34719 0.0
H333 H 0.42316 0.96751 0.34124 0.0
H334 H 0.42375 0.97149 0.23153 0.0
H335 H 0.4237 0.01177 0.23717 0.0
H336 H 0.39546 -0.00726 0.19555 0.0
H337 H 0.29258 0.01581 0.29008 0.0
H338 H 0.30278 0.07057 0.29387 0.0
H339 H 0.39705 0.0534 0.29183 0.0
C340 C 0.37518 0.93238 0.27818 0.0
C341 C 0.35185 0.91129 0.27191 0.0
C342 C 0.32222 0.92137 0.26982 0.0
C343 C 0.3158 0.95195 0.27571 0.0
C344 C 0.33932 0.97217 0.28279 0.0
C345 C 0.36844 0.96285 0.28285 0.0
C346 C 0.38971 0.98923 0.28764 0.0
C347 C 0.40856 0.98742 0.34232 0.0
C348 C 0.4093 -0.00857 0.23482 0.0
C349 C 0.36802 0.01484 0.29029 0.0
C350 C 0.33905 0.00454 0.28854 0.0
C351 C 0.31518 0.02413 0.29113 0.0
C352 C 0.32114 0.0551 0.29374 0.0
C353 C 0.35063 0.066 0.2926 0.0
C354 C 0.37429 0.04559 0.29189 0.0
H355 H 0.92108 0.36994 0.5841 0.0
H356 H 0.90665 0.35743 0.40327 0.0
H357 H 0.96049 0.35232 0.38967 0.0
H358 H -0.01437 0.41651 0.56884 0.0
H359 H 0.00452 0.40218 0.63076 0.0
H360 H 0.96465 0.40206 0.62753 0.0
H361 H 0.9638 0.34484 0.64656 0.0
H362 H 0.00369 0.3448 0.64991 0.0
H363 H -0.01575 0.32018 0.60102 0.0
H364 H 0.01532 0.34756 0.39553 0.0
H365 H 0.06887 0.34919 0.41895 0.0
H366 H 0.04875 0.37036 0.59397 0.0
C367 C 0.92939 0.3657 0.54194 0.0
C368 C 0.90994 0.36358 0.49474 0.0
C369 C 0.92138 0.35889 0.43985 0.0
C370 C 0.95184 0.35588 0.43176 0.0
C371 C 0.97058 0.35825 0.47892 0.0
C372 C 0.95995 0.36351 0.53283 0.0
C373 C -0.01479 0.36743 0.57532 0.0
C374 C -0.01502 0.39892 0.60217 0.0
C375 C -0.01583 0.34284 0.62089 0.0
C376 C 0.01156 0.36354 0.53679 0.0
C377 C 0.00255 0.35767 0.48158 0.0
C378 C 0.02272 0.35232 0.43852 0.0
C379 C 0.053 0.35319 0.45217 0.0
C380 C 0.06272 0.36005 0.50803 0.0
C381 C 0.04176 0.36535 0.5508 0.0
H382 H 0.57446 0.93149 0.74816 0.0
H383 H 0.66412 0.91022 0.80115 0.0
H384 H 0.67739 0.96419 0.79969 0.0
H385 H 0.59199 -0.00688 0.6552 0.0
H386 H 0.56069 0.0151 0.67634 0.0
H387 H 0.55863 0.97474 0.67882 0.0
H388 H 0.54492 0.97703 0.78525 0.0
H389 H 0.54663 0.01737 0.7829 0.0
H390 H 0.56874 -0.00264 0.83424 0.0
H391 H 0.68105 0.02069 0.78983 0.0
H392 H 0.67266 0.07561 0.78699 0.0
H393 H 0.58011 0.05943 0.74565 0.0
C394 C 0.59691 0.93814 0.75911 0.0
C395 C 0.61835 0.9167 0.77423 0.0
C396 C 0.64735 0.92636 0.78955 0.0
C397 C 0.65515 0.95691 0.78837 0.0
C398 C 0.63357 0.97748 0.77249 0.0
C399 C 0.60489 0.96854 0.75916 0.0
C400 C 0.58534 -0.00479 0.7472 0.0
C401 C 0.57347 -0.00551 0.68573 0.0
C402 C 0.55992 -0.00317 0.78996 0.0
C403 C 0.60745 0.02057 0.75612 0.0
C404 C 0.6353 0.00992 0.76958 0.0
C405 C 0.65931 0.02928 0.77952 0.0
C406 C 0.65445 0.06034 0.77741 0.0
C407 C 0.62575 0.07149 0.76657 0.0
C408 C 0.60217 0.05137 0.75475 0.0
H409 H 0.91457 0.59746 0.0866 0.0
H410 H 0.89753 0.63586 0.92053 0.0
H411 H 0.95143 0.63994 0.90461 0.0
H412 H 0.97857 0.64518 0.12039 0.0
H413 H -0.00193 0.61599 0.15762 0.0
H414 H 0.95815 0.616 0.15603 0.0
H415 H 0.95765 0.56208 0.11463 0.0
H416 H -0.00247 0.5619 0.11609 0.0
H417 H 0.97771 0.55441 0.0506 0.0
H418 H 0.00657 0.63604 0.90364 0.0
H419 H 0.06013 0.62882 0.92094 0.0
H420 H 0.0422 0.59744 0.09107 0.0
C421 C 0.92225 0.60679 0.04697 0.0
C422 C 0.90197 0.61622 0.00458 0.0
C423 C 0.91274 0.62859 0.95353 0.0
C424 C 0.94327 0.63093 0.9441 0.0
C425 C 0.9627 0.62134 0.98663 0.0
C426 C 0.95268 0.60992 0.0374 0.0
C427 C 0.97833 0.60174 0.07644 0.0
C428 C 0.97827 0.62088 0.13084 0.0
C429 C 0.97776 0.56803 0.09023 0.0
C430 C 0.00435 0.60985 0.03926 0.0
C431 C -0.00527 0.62085 0.98742 0.0
C432 C 0.01439 0.628 0.94438 0.0
C433 C 0.04469 0.6238 0.95451 0.0
C434 C 0.05505 0.61316 0.00755 0.0
C435 C 0.03471 0.60631 0.05068 0.0
H436 H 0.48433 0.15331 0.87407 0.0
H437 H 0.5568 0.21027 0.93242 0.0
H438 H 0.52704 0.22599 0.01462 0.0
H439 H 0.42092 0.20092 0.93381 0.0
H440 H 0.40087 0.16712 0.95151 0.0
H441 H 0.42387 0.16807 0.8895 0.0
H442 H 0.45215 0.12167 0.92673 0.0
H443 H 0.42967 0.12075 0.98873 0.0
H444 H 0.46941 0.12316 -0.00384 0.0
H445 H 0.495 0.22471 0.10172 0.0
H446 H 0.46386 0.20738 0.18164 0.0
H447 H 0.41297 0.15119 0.0658 0.0
C448 C 0.49338 0.17016 0.9028 0.0
C449 C 0.52272 0.18065 0.897 0.0
C450 C 0.53414 0.20231 0.93571 0.0
C451 C 0.51737 0.21131 0.98259 0.0
C452 C 0.48908 0.19892 0.98923 0.0
C453 C 0.47696 0.17926 0.94946 0.0
C454 C 0.44843 0.16527 0.96995 0.0
C455 C 0.42195 0.176 0.93406 0.0
C456 C 0.45006 0.1307 0.97046 0.0
C457 C 0.44756 0.17812 0.02926 0.0
C458 C 0.47061 0.19823 0.03936 0.0
C459 C 0.47631 0.20983 0.0937 0.0
C460 C 0.45859 0.19996 0.13883 0.0
C461 C 0.43588 0.17849 0.12904 0.0
C462 C 0.4298 0.16827 0.07356 0.0
H463 H 0.80166 0.47869 0.10425 0.0
H464 H 0.75947 0.5589 0.16598 0.0
H465 H 0.74104 0.53083 0.2488 0.0
H466 H 0.74478 0.4217 0.1698 0.0
H467 H 0.77473 0.39631 0.18433 0.0
H468 H 0.7754 0.41944 0.12166 0.0
H469 H 0.82695 0.44033 0.15218 0.0
H470 H 0.8264 0.41757 0.21443 0.0
H471 H 0.83143 0.45761 0.22115 0.0
H472 H 0.74214 0.49994 0.33669 0.0
H473 H 0.76077 0.46907 0.41642 0.0
H474 H 0.79943 0.40753 0.29721 0.0
C475 C 0.78719 0.48981 0.13377 0.0
C476 C 0.78185 0.52078 0.12886 0.0
C477 C 0.76338 0.53501 0.16856 0.0
C478 C 0.75285 0.51918 0.21582 0.0
C479 C 0.76029 0.48899 0.22173 0.0
C480 C 0.77635 0.47421 0.18067 0.0
C481 C 0.78573 0.44348 0.20068 0.0
C482 C 0.76916 0.41877 0.16712 0.0
C483 C 0.8196 0.43958 0.19695 0.0
C484 C 0.77543 0.44456 0.26149 0.0
C485 C 0.75988 0.47052 0.27256 0.0
C486 C 0.75302 0.47892 0.3281 0.0
C487 C 0.76351 0.46123 0.37326 0.0
C488 C 0.78056 0.43553 0.36234 0.0
C489 C 0.78524 0.4264 0.30598 0.0
H490 H 0.48542 0.80956 0.6533 0.0
H491 H 0.56935 0.77833 0.591 0.0
H492 H 0.54446 0.75994 0.50321 0.0
H493 H 0.4367 0.74799 0.5775 0.0
H494 H 0.40811 0.77527 0.56557 0.0
H495 H 0.43068 0.7771 0.62925 0.0
H496 H 0.44482 0.83211 0.60594 0.0
H497 H 0.4227 0.83042 0.54244 0.0
H498 H 0.46139 0.84054 0.53849 0.0
H499 H 0.51434 0.76081 0.41358 0.0
H500 H 0.48098 0.77649 0.33506 0.0
H501 H 0.41527 0.80276 0.45667 0.0
C502 C 0.49813 0.79729 0.62239 0.0
C503 C 0.52907 0.79497 0.62874 0.0
C504 C 0.54546 0.77967 0.58718 0.0
C505 C 0.53147 0.76925 0.53716 0.0
C506 C 0.50101 0.77356 0.53039 0.0
C507 C 0.48436 0.78638 0.57289 0.0
C508 C 0.45306 0.7925 0.55267 0.0
C509 C 0.43083 0.77198 0.58305 0.0
C510 C 0.44508 0.82585 0.56029 0.0
C511 C 0.45545 0.78397 0.49071 0.0
C512 C 0.48306 0.77244 0.4787 0.0
C513 C 0.4922 0.76836 0.42273 0.0
C514 C 0.47315 0.77722 0.37831 0.0
C515 C 0.44526 0.78958 0.39029 0.0
C516 C 0.43593 0.79186 0.44687 0.0
H517 H 0.1642 0.56592 0.81158 0.0
H518 H 0.20253 0.50498 0.93337 0.0
H519 H 0.22133 0.47369 0.85489 0.0
H520 H 0.13285 0.51599 0.73375 0.0
H521 H 0.13764 0.53266 0.66481 0.0
H522 H 0.13805 0.55598 0.72667 0.0
H523 H 0.18981 0.57693 0.70072 0.0
H524 H 0.18945 0.55377 0.63777 0.0
H525 H 0.2198 0.55148 0.68797 0.0
H526 H 0.2229 0.44243 0.76674 0.0
H527 H 0.20537 0.41438 0.68189 0.0
H528 H 0.16405 0.49473 0.61743 0.0
C529 C 0.17833 0.54707 0.82127 0.0
C530 C 0.18286 0.53824 0.87796 0.0
C531 C 0.19988 0.5126 0.89 0.0
C532 C 0.2105 0.49468 0.84555 0.0
C533 C 0.20392 0.50288 0.78955 0.0
C534 C 0.18857 0.5289 0.77738 0.0
C535 C 0.17866 0.52977 0.71578 0.0
C536 C 0.14483 0.53378 0.71001 0.0
C537 C 0.19544 0.55445 0.68366 0.0
C538 C 0.18815 0.49899 0.69648 0.0
C539 C 0.20387 0.48426 0.73863 0.0
C540 C 0.21143 0.45408 0.73291 0.0
C541 C 0.20146 0.43828 0.68444 0.0
C542 C 0.1835 0.45255 0.64319 0.0
C543 C 0.17814 0.48353 0.6481 0.0
loop_
_geom_bond_atom_site_label_1
_geom_bond_atom_site_label_2
_geom_bond_distance
_geom_bond_site_symmetry_2
_ccdc_geom_bond_type
Mg0 O1 2.028 . S
Mg0 O7 1.986 . S
Mg0 O9 2.114 . S
Mg0 O10 2.251 . S
Mg0 O13 2.010 . S
O1 Mg0 2.028 . S
O1 C4 1.250 . S
O2 Mg3 2.028 . S
O2 C4 1.248 . S
Mg3 O2 2.028 . S
Mg3 O8 2.032 . S
Mg3 O10 2.079 . S
C4 O1 1.250 . S
C4 O2 1.248 . S
C5 O6 1.264 . S
C5 O13 1.249 . S
O6 C5 1.264 . S
O7 Mg0 1.986 . S
O7 C11 1.246 . S
O8 Mg3 2.032 . S
O8 C11 1.259 . S
O9 Mg0 2.114 . S
O9 C12 1.252 . S
O10 Mg0 2.251 . S
O10 Mg3 2.079 . S
O10 C12 1.273 . S
C11 O7 1.246 . S
C11 O8 1.259 . S
C12 O9 1.252 . S
C12 O10 1.273 . S
O13 Mg0 2.010 . S
O13 C5 1.249 . S
Mg14 O15 2.028 . S
Mg14 O21 1.986 . S
Mg14 O23 2.114 . S
Mg14 O24 2.251 . S
Mg14 O27 2.010 . S
O15 Mg14 2.028 . S
O15 C18 1.250 . S
O16 Mg17 2.028 . S
O16 C18 1.248 . S
Mg17 O16 2.028 . S
Mg17 O22 2.032 . S
Mg17 O24 2.079 . S
C18 O15 1.250 . S
C18 O16 1.248 . S
C19 O20 1.264 . S
C19 O27 1.249 . S
O20 C19 1.264 . S
O21 Mg14 1.986 . S
O21 C25 1.246 . S
O22 Mg17 2.032 . S
O22 C25 1.259 . S
O23 Mg14 2.114 . S
O23 C26 1.252 . S
O24 Mg14 2.251 . S
O24 Mg17 2.079 . S
O24 C26 1.273 . S
C25 O21 1.246 . S
C25 O22 1.259 . S
C26 O23 1.252 . S
C26 O24 1.273 . S
O27 Mg14 2.010 . S
O27 C19 1.249 . S
Mg28 O29 2.028 . S
Mg28 O35 1.986 . S
Mg28 O37 2.114 . S
Mg28 O38 2.251 . S
Mg28 O41 2.010 . S
O29 Mg28 2.028 . S
O29 C32 1.250 . S
O30 Mg31 2.028 . S
O30 C32 1.248 . S
Mg31 O30 2.028 . S
Mg31 O36 2.032 . S
Mg31 O38 2.079 . S
C32 O29 1.250 . S
C32 O30 1.248 . S
C33 O34 1.264 . S
C33 O41 1.249 . S
O34 C33 1.264 . S
O35 Mg28 1.986 . S
O35 C39 1.246 . S
O36 Mg31 2.032 . S
O36 C39 1.259 . S
O37 Mg28 2.114 . S
O37 C40 1.252 . S
O38 Mg28 2.251 . S
O38 Mg31 2.079 . S
O38 C40 1.273 . S
C39 O35 1.246 . S
C39 O36 1.259 . S
C40 O37 1.252 . S
C40 O38 1.273 . S
O41 Mg28 2.010 . S
O41 C33 1.249 . S
Mg42 O43 2.028 . S
Mg42 O49 1.986 1_554 S
Mg42 O51 2.114 . S
Mg42 O52 2.251 . S
Mg42 O55 2.010 . S
O43 Mg42 2.028 . S
O43 C46 1.250 . S
O44 Mg45 2.028 . S
O44 C46 1.248 . S
Mg45 O44 2.028 . S
Mg45 O50 2.032 1_554 S
Mg45 O52 2.079 . S
C46 O43 1.250 . S
C46 O44 1.248 . S
C47 O48 1.264 . S
C47 O55 1.249 . S
O48 C47 1.264 . S
O49 Mg42 1.986 1_556 S
O49 C53 1.246 . S
O50 Mg45 2.032 1_556 S
O50 C53 1.259 . S
O51 Mg42 2.114 . S
O51 C54 1.252 . S
O52 Mg42 2.251 . S
O52 Mg45 2.079 . S
O52 C54 1.273 . S
C53 O49 1.246 . S
C53 O50 1.259 . S
C54 O51 1.252 . S
C54 O52 1.273 . S
O55 Mg42 2.010 . S
O55 C47 1.249 . S
Mg56 O57 2.028 . S
Mg56 O63 1.986 . S
Mg56 O65 2.114 . S
Mg56 O66 2.251 . S
Mg56 O69 2.010 . S
O57 Mg56 2.028 . S
O57 C60 1.250 . S
O58 Mg59 2.028 . S
O58 C60 1.248 . S
Mg59 O58 2.028 . S
Mg59 O64 2.032 . S
Mg59 O66 2.079 . S
C60 O57 1.250 . S
C60 O58 1.248 . S
C61 O62 1.264 . S
C61 O69 1.249 . S
O62 C61 1.264 . S
O63 Mg56 1.986 . S
O63 C67 1.246 . S
O64 Mg59 2.032 . S
O64 C67 1.259 . S
O65 Mg56 2.114 . S
O65 C68 1.252 . S
O66 Mg56 2.251 . S
O66 Mg59 2.079 . S
O66 C68 1.273 . S
C67 O63 1.246 . S
C67 O64 1.259 . S
C68 O65 1.252 . S
C68 O66 1.273 . S
O69 Mg56 2.010 . S
O69 C61 1.249 . S
Mg70 O71 2.028 . S
Mg70 O77 1.986 . S
Mg70 O79 2.114 . S
Mg70 O80 2.251 . S
Mg70 O83 2.010 . S
O71 Mg70 2.028 . S
O71 C74 1.250 . S
O72 Mg73 2.028 . S
O72 C74 1.248 . S
Mg73 O72 2.028 . S
Mg73 O78 2.032 . S
Mg73 O80 2.079 . S
C74 O71 1.250 . S
C74 O72 1.248 . S
C75 O76 1.264 . S
C75 O83 1.249 . S
O76 C75 1.264 . S
O77 Mg70 1.986 . S
O77 C81 1.246 . S
O78 Mg73 2.032 . S
O78 C81 1.259 . S
O79 Mg70 2.114 . S
O79 C82 1.252 . S
O80 Mg70 2.251 . S
O80 Mg73 2.079 . S
O80 C82 1.273 . S
C81 O77 1.246 . S
C81 O78 1.259 . S
C82 O79 1.252 . S
C82 O80 1.273 . S
O83 Mg70 2.010 . S
O83 C75 1.249 . S
Mg84 O85 2.028 . S
Mg84 O91 1.986 . S
Mg84 O93 2.114 . S
Mg84 O94 2.251 . S
Mg84 O97 2.010 . S
O85 Mg84 2.028 . S
O85 C88 1.250 . S
O86 Mg87 2.028 . S
O86 C88 1.248 . S
Mg87 O86 2.028 . S
Mg87 O92 2.032 . S
Mg87 O94 2.079 . S
C88 O85 1.250 . S
C88 O86 1.248 . S
C89 O90 1.264 . S
C89 O97 1.249 . S
O90 C89 1.264 . S
O91 Mg84 1.986 . S
O91 C95 1.246 . S
O92 Mg87 2.032 . S
O92 C95 1.259 . S
O93 Mg84 2.114 . S
O93 C96 1.252 . S
O94 Mg84 2.251 . S
O94 Mg87 2.079 . S
O94 C96 1.273 . S
C95 O91 1.246 . S
C95 O92 1.259 . S
C96 O93 1.252 . S
C96 O94 1.273 . S
O97 Mg84 2.010 . S
O97 C89 1.249 . S
Mg98 O99 2.028 1_554 S
Mg98 O105 1.986 . S
Mg98 O107 2.114 1_554 S
Mg98 O108 2.251 . S
Mg98 O111 2.010 . S
O99 Mg98 2.028 1_556 S
O99 C102 1.250 . S
O100 Mg101 2.028 1_556 S
O100 C102 1.248 . S
Mg101 O100 2.028 1_554 S
Mg101 O106 2.032 . S
Mg101 O108 2.079 . S
C102 O99 1.250 . S
C102 O100 1.248 . S
C103 O104 1.264 . S
C103 O111 1.249 . S
O104 C103 1.264 . S
O105 Mg98 1.986 . S
O105 C109 1.246 . S
O106 Mg101 2.032 . S
O106 C109 1.259 . S
O107 Mg98 2.114 1_556 S
O107 C110 1.252 1_556 S
O108 Mg98 2.251 . S
O108 Mg101 2.079 . S
O108 C110 1.273 . S
C109 O105 1.246 . S
C109 O106 1.259 . S
C110 O107 1.252 1_554 S
C110 O108 1.273 . S
O111 Mg98 2.010 . S
O111 C103 1.249 . S
H112 C124 0.930 . S
H113 C126 0.930 . S
H114 C127 0.930 . S
H115 C131 0.959 . S
H116 C131 0.959 . S
H117 C131 0.961 . S
H118 C132 0.960 . S
H119 C132 0.961 . S
H120 C132 0.959 . S
H121 C135 0.929 . S
H122 C136 0.931 . S
H123 C138 0.930 . S
C124 H112 0.930 . S
C124 C125 1.399 . S
C124 C129 1.399 . S
C125 C124 1.399 . S
C125 C126 1.376 . S
C126 H113 0.930 . S
C126 C125 1.376 . S
C126 C127 1.388 . S
C127 H114 0.930 . S
C127 C126 1.388 . S
C127 C128 1.390 . S
C128 C127 1.390 . S
C128 C129 1.394 . S
C128 C134 1.465 . S
C129 C124 1.399 . S
C129 C128 1.394 . S
C129 C130 1.516 . S
C130 C129 1.516 . S
C130 C131 1.502 . S
C130 C132 1.561 . S
C130 C133 1.526 . S
C131 H115 0.959 . S
C131 H116 0.959 . S
C131 H117 0.961 . S
C131 C130 1.502 . S
C132 H118 0.960 . S
C132 H119 0.961 . S
C132 H120 0.959 . S
C132 C130 1.561 . S
C133 C130 1.526 . S
C133 C134 1.396 . S
C133 C138 1.390 . S
C134 C128 1.465 . S
C134 C133 1.396 . S
C134 C135 1.399 . S
C135 H121 0.929 . S
C135 C134 1.399 . S
C135 C136 1.385 . S
C136 H122 0.931 . S
C136 C135 1.385 . S
C136 C137 1.389 . S
C137 C136 1.389 . S
C137 C138 1.387 . S
C138 H123 0.930 . S
C138 C133 1.390 . S
C138 C137 1.387 . S
H139 C151 0.930 . S
H140 C153 0.930 . S
H141 C154 0.930 . S
H142 C158 0.959 . S
H143 C158 0.959 . S
H144 C158 0.961 . S
H145 C159 0.960 . S
H146 C159 0.961 . S
H147 C159 0.959 . S
H148 C162 0.929 . S
H149 C163 0.931 . S
H150 C165 0.930 . S
C151 H139 0.930 . S
C151 C152 1.399 . S
C151 C156 1.399 . S
C152 C151 1.399 . S
C152 C153 1.376 . S
C153 H140 0.930 . S
C153 C152 1.376 . S
C153 C154 1.388 . S
C154 H141 0.930 . S
C154 C153 1.388 . S
C154 C155 1.390 . S
C155 C154 1.390 . S
C155 C156 1.394 . S
C155 C161 1.465 . S
C156 C151 1.399 . S
C156 C155 1.394 . S
C156 C157 1.516 . S
C157 C156 1.516 . S
C157 C158 1.502 . S
C157 C159 1.561 . S
C157 C160 1.526 . S
C158 H142 0.959 . S
C158 H143 0.959 . S
C158 H144 0.961 . S
C158 C157 1.502 . S
C159 H145 0.960 . S
C159 H146 0.961 . S
C159 H147 0.959 . S
C159 C157 1.561 . S
C160 C157 1.526 . S
C160 C161 1.396 . S
C160 C165 1.390 . S
C161 C155 1.465 . S
C161 C160 1.396 . S
C161 C162 1.399 . S
C162 H148 0.929 . S
C162 C161 1.399 . S
C162 C163 1.385 . S
C163 H149 0.931 . S
C163 C162 1.385 . S
C163 C164 1.389 . S
C164 C163 1.389 . S
C164 C165 1.387 . S
C165 H150 0.930 . S
C165 C160 1.390 . S
C165 C164 1.387 . S
H166 C178 0.930 . S
H167 C180 0.930 . S
H168 C181 0.930 . S
H169 C185 0.959 . S
H170 C185 0.959 . S
H171 C185 0.961 . S
H172 C186 0.952 1_554 S
H173 C186 0.967 . S
H174 C186 0.966 . S
H175 C189 0.929 . S
H176 C190 0.931 . S
H177 C192 0.930 . S
C178 H166 0.930 . S
C178 C179 1.399 . S
C178 C183 1.399 . S
C179 C178 1.399 . S
C179 C180 1.376 . S
C180 H167 0.930 . S
C180 C179 1.376 . S
C180 C181 1.388 . S
C181 H168 0.930 . S
C181 C180 1.388 . S
C181 C182 1.390 . S
C182 C181 1.390 . S
C182 C183 1.394 . S
C182 C188 1.465 1_554 S
C183 C178 1.399 . S
C183 C182 1.394 . S
C183 C184 1.516 . S
C184 C183 1.516 . S
C184 C185 1.502 . S
C184 C186 1.556 1_554 S
C184 C187 1.526 1_554 S
C185 H169 0.959 . S
C185 H170 0.959 . S
C185 H171 0.961 . S
C185 C184 1.502 . S
C186 H172 0.952 1_556 S
C186 H173 0.967 . S
C186 H174 0.966 . S
C186 C184 1.556 1_556 S
C187 C184 1.526 1_556 S
C187 C188 1.396 . S
C187 C192 1.390 . S
C188 C182 1.465 1_556 S
C188 C187 1.396 . S
C188 C189 1.399 . S
C189 H175 0.929 . S
C189 C188 1.399 . S
C189 C190 1.385 . S
C190 H176 0.931 . S
C190 C189 1.385 . S
C190 C191 1.389 . S
C191 C190 1.389 . S
C191 C192 1.387 . S
C192 H177 0.930 . S
C192 C187 1.390 . S
C192 C191 1.387 . S
H193 C205 0.930 . S
H194 C207 0.930 . S
H195 C208 0.930 . S
H196 C212 0.959 . S
H197 C212 0.959 . S
H198 C212 0.961 . S
H199 C213 0.960 . S
H200 C213 0.961 . S
H201 C213 0.959 . S
H202 C216 0.929 . S
H203 C217 0.931 . S
H204 C219 0.930 . S
C205 H193 0.930 . S
C205 C206 1.399 . S
C205 C210 1.399 . S
C206 C205 1.399 . S
C206 C207 1.376 . S
C207 H194 0.930 . S
C207 C206 1.376 . S
C207 C208 1.388 . S
C208 H195 0.930 . S
C208 C207 1.388 . S
C208 C209 1.390 . S
C209 C208 1.390 . S
C209 C210 1.394 . S
C209 C215 1.465 . S
C210 C205 1.399 . S
C210 C209 1.394 . S
C210 C211 1.516 . S
C211 C210 1.516 . S
C211 C212 1.502 . S
C211 C213 1.561 . S
C211 C214 1.526 . S
C212 H196 0.959 . S
C212 H197 0.959 . S
C212 H198 0.961 . S
C212 C211 1.502 . S
C213 H199 0.960 . S
C213 H200 0.961 . S
C213 H201 0.959 . S
C213 C211 1.561 . S
C214 C211 1.526 . S
C214 C215 1.396 . S
C214 C219 1.390 . S
C215 C209 1.465 . S
C215 C214 1.396 . S
C215 C216 1.399 . S
C216 H202 0.929 . S
C216 C215 1.399 . S
C216 C217 1.385 . S
C217 H203 0.931 . S
C217 C216 1.385 . S
C217 C218 1.389 . S
C218 C217 1.389 . S
C218 C219 1.387 . S
C219 H204 0.930 . S
C219 C214 1.390 . S
C219 C218 1.387 . S
H220 C232 0.930 . S
H221 C234 0.930 . S
H222 C235 0.930 . S
H223 C239 0.959 . S
H224 C239 0.959 . S
H225 C239 0.961 . S
H226 C240 0.960 . S
H227 C240 0.961 . S
H228 C240 0.959 . S
H229 C243 0.929 . S
H230 C244 0.931 . S
H231 C246 0.930 . S
C232 H220 0.930 . S
C232 C233 1.399 . S
C232 C237 1.399 . S
C233 C232 1.399 . S
C233 C234 1.376 . S
C234 H221 0.930 . S
C234 C233 1.376 . S
C234 C235 1.388 . S
C235 H222 0.930 . S
C235 C234 1.388 . S
C235 C236 1.390 . S
C236 C235 1.390 . S
C236 C237 1.394 . S
C236 C242 1.465 . S
C237 C232 1.399 . S
C237 C236 1.394 . S
C237 C238 1.516 . S
C238 C237 1.516 . S
C238 C239 1.502 . S
C238 C240 1.561 . S
C238 C241 1.526 . S
C239 H223 0.959 . S
C239 H224 0.959 . S
C239 H225 0.961 . S
C239 C238 1.502 . S
C240 H226 0.960 . S
C240 H227 0.961 . S
C240 H228 0.959 . S
C240 C238 1.561 . S
C241 C238 1.526 . S
C241 C242 1.396 . S
C241 C246 1.390 . S
C242 C236 1.465 . S
C242 C241 1.396 . S
C242 C243 1.399 . S
C243 H229 0.929 . S
C243 C242 1.399 . S
C243 C244 1.385 . S
C244 H230 0.931 . S
C244 C243 1.385 . S
C244 C245 1.389 . S
C245 C244 1.389 . S
C245 C246 1.387 . S
C246 H231 0.930 . S
C246 C241 1.390 . S
C246 C245 1.387 . S
H247 C259 0.930 . S
H248 C261 0.930 . S
H249 C262 0.930 . S
H250 C266 0.959 . S
H251 C266 0.959 . S
H252 C266 0.961 . S
H253 C267 0.960 . S
H254 C267 0.961 . S
H255 C267 0.959 . S
H256 C270 0.929 . S
H257 C271 0.931 . S
H258 C273 0.930 . S
C259 H247 0.930 . S
C259 C260 1.399 . S
C259 C264 1.399 . S
C260 C259 1.399 . S
C260 C261 1.376 . S
C261 H248 0.930 . S
C261 C260 1.376 . S
C261 C262 1.388 . S
C262 H249 0.930 . S
C262 C261 1.388 . S
C262 C263 1.390 . S
C263 C262 1.390 . S
C263 C264 1.394 . S
C263 C269 1.465 . S
C264 C259 1.399 . S
C264 C263 1.394 . S
C264 C265 1.516 . S
C265 C264 1.516 . S
C265 C266 1.502 . S
C265 C267 1.561 . S
C265 C268 1.526 . S
C266 H250 0.959 . S
C266 H251 0.959 . S
C266 H252 0.961 . S
C266 C265 1.502 . S
C267 H253 0.960 . S
C267 H254 0.961 . S
C267 H255 0.959 . S
C267 C265 1.561 . S
C268 C265 1.526 . S
C268 C269 1.396 . S
C268 C273 1.390 . S
C269 C263 1.465 . S
C269 C268 1.396 . S
C269 C270 1.399 . S
C270 H256 0.929 . S
C270 C269 1.399 . S
C270 C271 1.385 . S
C271 H257 0.931 . S
C271 C270 1.385 . S
C271 C272 1.389 . S
C272 C271 1.389 . S
C272 C273 1.387 . S
C273 H258 0.930 . S
C273 C268 1.390 . S
C273 C272 1.387 . S
H274 C286 0.930 1_554 S
H275 C288 0.930 . S
H276 C289 0.930 . S
H277 C293 0.959 1_556 S
H278 C293 0.959 . S
H279 C293 0.961 . S
H280 C294 0.960 1_554 S
H281 C294 0.961 . S
H282 C294 0.959 . S
H283 C297 0.929 . S
H284 C298 0.931 . S
H285 C300 0.930 . S
C286 H274 0.930 1_556 S
C286 C287 1.399 . S
C286 C291 1.399 . S
C287 C286 1.399 . S
C287 C288 1.376 . S
C288 H275 0.930 . S
C288 C287 1.376 . S
C288 C289 1.388 . S
C289 H276 0.930 . S
C289 C288 1.388 . S
C289 C290 1.390 . S
C290 C289 1.390 . S
C290 C291 1.394 . S
C290 C296 1.465 . S
C291 C286 1.399 . S
C291 C290 1.394 . S
C291 C292 1.516 . S
C292 C291 1.516 . S
C292 C293 1.502 1_556 S
C292 C294 1.561 . S
C292 C295 1.526 . S
C293 H277 0.959 1_554 S
C293 H278 0.959 . S
C293 H279 0.961 . S
C293 C292 1.502 1_554 S
C294 H280 0.960 1_556 S
C294 H281 0.961 . S
C294 H282 0.959 . S
C294 C292 1.561 . S
C295 C292 1.526 . S
C295 C296 1.396 . S
C295 C300 1.390 . S
C296 C290 1.465 . S
C296 C295 1.396 . S
C296 C297 1.399 . S
C297 H283 0.929 . S
C297 C296 1.399 . S
C297 C298 1.385 . S
C298 H284 0.931 . S
C298 C297 1.385 . S
C298 C299 1.389 . S
C299 C298 1.389 . S
C299 C300 1.387 . S
C300 H285 0.930 . S
C300 C295 1.390 . S
C300 C299 1.387 . S
H301 C313 0.930 . S
H302 C315 0.930 . S
H303 C316 0.930 . S
H304 C320 0.959 . S
H305 C320 0.959 . S
H306 C320 0.961 . S
H307 C321 0.960 . S
H308 C321 0.961 . S
H309 C321 0.959 . S
H310 C324 0.929 . S
H311 C325 0.931 . S
H312 C327 0.930 . S
C313 H301 0.930 . S
C313 C314 1.399 . S
C313 C318 1.399 . S
C314 C313 1.399 . S
C314 C315 1.376 . S
C315 H302 0.930 . S
C315 C314 1.376 . S
C315 C316 1.388 . S
C316 H303 0.930 . S
C316 C315 1.388 . S
C316 C317 1.390 . S
C317 C316 1.390 . S
C317 C318 1.394 . S
C317 C323 1.465 . S
C318 C313 1.399 . S
C318 C317 1.394 . S
C318 C319 1.516 . S
C319 C318 1.516 . S
C319 C320 1.502 . S
C319 C321 1.561 . S
C319 C322 1.526 . S
C320 H304 0.959 . S
C320 H305 0.959 . S
C320 H306 0.961 . S
C320 C319 1.502 . S
C321 H307 0.960 . S
C321 H308 0.961 . S
C321 H309 0.959 . S
C321 C319 1.561 . S
C322 C319 1.526 . S
C322 C323 1.396 . S
C322 C327 1.390 . S
C323 C317 1.465 . S
C323 C322 1.396 . S
C323 C324 1.399 . S
C324 H310 0.929 . S
C324 C323 1.399 . S
C324 C325 1.385 . S
C325 H311 0.931 . S
C325 C324 1.385 . S
C325 C326 1.389 . S
C326 C325 1.389 . S
C326 C327 1.387 . S
C327 H312 0.930 . S
C327 C322 1.390 . S
C327 C326 1.387 . S
H328 C340 0.930 . S
H329 C342 0.930 . S
H330 C343 0.930 . S
H331 C347 0.959 . S
H332 C347 0.949 1_545 S
H333 C347 0.972 . S
H334 C348 0.960 1_565 S
H335 C348 0.961 . S
H336 C348 0.959 . S
H337 C351 0.929 . S
H338 C352 0.931 . S
H339 C354 0.930 . S
C340 H328 0.930 . S
C340 C341 1.399 . S
C340 C345 1.399 . S
C341 C340 1.399 . S
C341 C342 1.376 . S
C342 H329 0.930 . S
C342 C341 1.376 . S
C342 C343 1.388 . S
C343 H330 0.930 . S
C343 C342 1.388 . S
C343 C344 1.390 . S
C344 C343 1.390 . S
C344 C345 1.394 . S
C344 C350 1.465 1_565 S
C345 C340 1.399 . S
C345 C344 1.394 . S
C345 C346 1.499 1_565 S
C346 C345 1.499 1_545 S
C346 C347 1.501 1_545 S
C346 C348 1.563 . S
C346 C349 1.542 . S
C347 H331 0.959 . S
C347 H332 0.949 1_565 S
C347 H333 0.972 . S
C347 C346 1.501 1_565 S
C348 H334 0.960 1_545 S
C348 H335 0.961 . S
C348 H336 0.959 . S
C348 C346 1.563 . S
C349 C346 1.542 . S
C349 C350 1.396 . S
C349 C354 1.390 . S
C350 C344 1.465 1_545 S
C350 C349 1.396 . S
C350 C351 1.399 . S
C351 H337 0.929 . S
C351 C350 1.399 . S
C351 C352 1.385 . S
C352 H338 0.931 . S
C352 C351 1.385 . S
C352 C353 1.389 . S
C353 C352 1.389 . S
C353 C354 1.387 . S
C354 H339 0.930 . S
C354 C349 1.390 . S
C354 C353 1.387 . S
H355 C367 0.930 . S
H356 C369 0.930 . S
H357 C370 0.930 . S
H358 C374 0.959 . S
H359 C374 0.959 . S
H360 C374 0.961 1_655 S
H361 C375 0.978 . S
H362 C375 0.944 1_455 S
H363 C375 0.959 . S
H364 C378 0.929 . S
H365 C379 0.931 . S
H366 C381 0.930 . S
C367 H355 0.930 . S
C367 C368 1.399 . S
C367 C372 1.399 . S
C368 C367 1.399 . S
C368 C369 1.376 . S
C369 H356 0.930 . S
C369 C368 1.376 . S
C369 C370 1.388 . S
C370 H357 0.930 . S
C370 C369 1.388 . S
C370 C371 1.390 . S
C371 C370 1.390 . S
C371 C372 1.394 . S
C371 C377 1.465 1_655 S
C372 C367 1.399 . S
C372 C371 1.394 . S
C372 C373 1.489 1_655 S
C373 C372 1.489 1_455 S
C373 C374 1.505 . S
C373 C375 1.560 1_455 S
C373 C376 1.552 . S
C374 H358 0.959 . S
C374 H359 0.959 . S
C374 H360 0.961 1_455 S
C374 C373 1.505 . S
C375 H361 0.978 . S
C375 H362 0.944 1_655 S
C375 H363 0.959 . S
C375 C373 1.560 1_655 S
C376 C373 1.552 . S
C376 C377 1.396 . S
C376 C381 1.390 . S
C377 C371 1.465 1_455 S
C377 C376 1.396 . S
C377 C378 1.399 . S
C378 H364 0.929 . S
C378 C377 1.399 . S
C378 C379 1.385 . S
C379 H365 0.931 . S
C379 C378 1.385 . S
C379 C380 1.389 . S
C380 C379 1.389 . S
C380 C381 1.387 . S
C381 H366 0.930 . S
C381 C376 1.390 . S
C381 C380 1.387 . S
H382 C394 0.930 . S
H383 C396 0.930 . S
H384 C397 0.930 . S
H385 C401 0.964 . S
H386 C401 0.959 1_545 S
H387 C401 0.961 . S
H388 C402 0.960 . S
H389 C402 0.961 1_545 S
H390 C402 0.963 . S
H391 C405 0.929 . S
H392 C406 0.931 . S
H393 C408 0.930 . S
C394 H382 0.930 . S
C394 C395 1.399 . S
C394 C399 1.399 . S
C395 C394 1.399 . S
C395 C396 1.376 . S
C396 H383 0.930 . S
C396 C395 1.376 . S
C396 C397 1.388 . S
C397 H384 0.930 . S
C397 C396 1.388 . S
C397 C398 1.390 . S
C398 C397 1.390 . S
C398 C399 1.394 . S
C398 C404 1.465 1_565 S
C399 C394 1.399 . S
C399 C398 1.394 . S
C399 C400 1.516 . S
C400 C399 1.516 . S
C400 C401 1.502 . S
C400 C402 1.561 . S
C400 C403 1.526 1_565 S
C401 H385 0.964 . S
C401 H386 0.959 1_565 S
C401 H387 0.961 . S
C401 C400 1.502 . S
C402 H388 0.960 . S
C402 H389 0.961 1_565 S
C402 H390 0.963 . S
C402 C400 1.561 . S
C403 C400 1.526 1_545 S
C403 C404 1.396 . S
C403 C408 1.390 . S
C404 C398 1.465 1_545 S
C404 C403 1.396 . S
C404 C405 1.399 . S
C405 H391 0.929 . S
C405 C404 1.399 . S
C405 C406 1.385 . S
C406 H392 0.931 . S
C406 C405 1.385 . S
C406 C407 1.389 . S
C407 C406 1.389 . S
C407 C408 1.387 . S
C408 H393 0.930 . S
C408 C403 1.390 . S
C408 C407 1.387 . S
H409 C421 0.930 . S
H410 C423 0.930 . S
H411 C424 0.930 . S
H412 C428 0.959 . S
H413 C428 0.959 1_455 S
H414 C428 0.961 . S
H415 C429 0.960 . S
H416 C429 0.961 1_455 S
H417 C429 0.959 1_455 S
H418 C432 0.929 . S
H419 C433 0.931 . S
H420 C435 0.930 . S
C421 H409 0.930 . S
C421 C422 1.399 . S
C421 C426 1.399 . S
C422 C421 1.399 . S
C422 C423 1.376 1_554 S
C423 H410 0.930 . S
C423 C422 1.376 1_556 S
C423 C424 1.388 . S
C424 H411 0.930 . S
C424 C423 1.388 . S
C424 C425 1.390 . S
C425 C424 1.390 . S
C425 C426 1.394 1_556 S
C425 C431 1.465 1_655 S
C426 C421 1.399 . S
C426 C425 1.394 1_554 S
C426 C427 1.516 . S
C427 C426 1.516 . S
C427 C428 1.502 . S
C427 C429 1.561 . S
C427 C430 1.526 1_655 S
C428 H412 0.959 . S
C428 H413 0.959 1_655 S
C428 H414 0.961 . S
C428 C427 1.502 . S
C429 H415 0.960 . S
C429 H416 0.961 1_655 S
C429 H417 0.959 1_655 S
C429 C427 1.561 . S
C430 C427 1.526 1_455 S
C430 C431 1.396 1_554 S
C430 C435 1.390 . S
C431 C425 1.465 1_455 S
C431 C430 1.396 1_556 S
C431 C432 1.399 . S
C432 H418 0.929 . S
C432 C431 1.399 . S
C432 C433 1.385 . S
C433 H419 0.931 . S
C433 C432 1.385 . S
C433 C434 1.389 1_556 S
C434 C433 1.389 1_554 S
C434 C435 1.387 . S
C435 H420 0.930 . S
C435 C430 1.390 . S
C435 C434 1.387 . S
H436 C448 0.930 . S
H437 C450 0.930 . S
H438 C451 0.930 1_554 S
H439 C455 0.959 . S
H440 C455 0.959 1_554 S
H441 C455 0.961 . S
H442 C456 0.960 . S
H443 C456 0.961 . S
H444 C456 0.959 . S
H445 C459 0.929 . S
H446 C460 0.931 . S
H447 C462 0.930 . S
C448 H436 0.930 . S
C448 C449 1.399 . S
C448 C453 1.399 . S
C449 C448 1.399 . S
C449 C450 1.376 . S
C450 H437 0.930 . S
C450 C449 1.376 . S
C450 C451 1.388 . S
C451 H438 0.930 1_556 S
C451 C450 1.388 . S
C451 C452 1.390 1_556 S
C452 C451 1.390 1_554 S
C452 C453 1.394 1_554 S
C452 C458 1.465 . S
C453 C448 1.399 . S
C453 C452 1.394 1_556 S
C453 C454 1.516 1_556 S
C454 C453 1.516 1_554 S
C454 C455 1.502 1_554 S
C454 C456 1.561 . S
C454 C457 1.526 . S
C455 H439 0.959 . S
C455 H440 0.959 1_556 S
C455 H441 0.961 . S
C455 C454 1.502 1_556 S
C456 H442 0.960 . S
C456 H443 0.961 . S
C456 H444 0.959 . S
C456 C454 1.561 . S
C457 C454 1.526 . S
C457 C458 1.396 . S
C457 C462 1.390 . S
C458 C452 1.465 . S
C458 C457 1.396 . S
C458 C459 1.399 . S
C459 H445 0.929 . S
C459 C458 1.399 . S
C459 C460 1.385 . S
C460 H446 0.931 . S
C460 C459 1.385 . S
C460 C461 1.389 . S
C461 C460 1.389 . S
C461 C462 1.387 . S
C462 H447 0.930 . S
C462 C457 1.390 . S
C462 C461 1.387 . S
H463 C475 0.930 . S
H464 C477 0.930 . S
H465 C478 0.930 . S
H466 C482 0.959 . S
H467 C482 0.959 . S
H468 C482 0.961 . S
H469 C483 0.960 . S
H470 C483 0.961 . S
H471 C483 0.959 . S
H472 C486 0.929 . S
H473 C487 0.931 . S
H474 C489 0.930 . S
C475 H463 0.930 . S
C475 C476 1.399 . S
C475 C480 1.399 . S
C476 C475 1.399 . S
C476 C477 1.376 . S
C477 H464 0.930 . S
C477 C476 1.376 . S
C477 C478 1.388 . S
C478 H465 0.930 . S
C478 C477 1.388 . S
C478 C479 1.390 . S
C479 C478 1.390 . S
C479 C480 1.394 . S
C479 C485 1.465 . S
C480 C475 1.399 . S
C480 C479 1.394 . S
C480 C481 1.516 . S
C481 C480 1.516 . S
C481 C482 1.502 . S
C481 C483 1.561 . S
C481 C484 1.526 . S
C482 H466 0.959 . S
C482 H467 0.959 . S
C482 H468 0.961 . S
C482 C481 1.502 . S
C483 H469 0.960 . S
C483 H470 0.961 . S
C483 H471 0.959 . S
C483 C481 1.561 . S
C484 C481 1.526 . S
C484 C485 1.396 . S
C484 C489 1.390 . S
C485 C479 1.465 . S
C485 C484 1.396 . S
C485 C486 1.399 . S
C486 H472 0.929 . S
C486 C485 1.399 . S
C486 C487 1.385 . S
C487 H473 0.931 . S
C487 C486 1.385 . S
C487 C488 1.389 . S
C488 C487 1.389 . S
C488 C489 1.387 . S
C489 H474 0.930 . S
C489 C484 1.390 . S
C489 C488 1.387 . S
H490 C502 0.930 . S
H491 C504 0.930 . S
H492 C505 0.930 . S
H493 C509 0.959 . S
H494 C509 0.959 . S
H495 C509 0.961 . S
H496 C510 0.960 . S
H497 C510 0.961 . S
H498 C510 0.959 . S
H499 C513 0.929 . S
H500 C514 0.931 . S
H501 C516 0.930 . S
C502 H490 0.930 . S
C502 C503 1.399 . S
C502 C507 1.399 . S
C503 C502 1.399 . S
C503 C504 1.376 . S
C504 H491 0.930 . S
C504 C503 1.376 . S
C504 C505 1.388 . S
C505 H492 0.930 . S
C505 C504 1.388 . S
C505 C506 1.390 . S
C506 C505 1.390 . S
C506 C507 1.394 . S
C506 C512 1.465 . S
C507 C502 1.399 . S
C507 C506 1.394 . S
C507 C508 1.516 . S
C508 C507 1.516 . S
C508 C509 1.502 . S
C508 C510 1.561 . S
C508 C511 1.526 . S
C509 H493 0.959 . S
C509 H494 0.959 . S
C509 H495 0.961 . S
C509 C508 1.502 . S
C510 H496 0.960 . S
C510 H497 0.961 . S
C510 H498 0.959 . S
C510 C508 1.561 . S
C511 C508 1.526 . S
C511 C512 1.396 . S
C511 C516 1.390 . S
C512 C506 1.465 . S
C512 C511 1.396 . S
C512 C513 1.399 . S
C513 H499 0.929 . S
C513 C512 1.399 . S
C513 C514 1.385 . S
C514 H500 0.931 . S
C514 C513 1.385 . S
C514 C515 1.389 . S
C515 C514 1.389 . S
C515 C516 1.387 . S
C516 H501 0.930 . S
C516 C511 1.390 . S
C516 C515 1.387 . S
H517 C529 0.930 . S
H518 C531 0.930 . S
H519 C532 0.930 . S
H520 C536 0.959 . S
H521 C536 0.959 . S
H522 C536 0.961 . S
H523 C537 0.960 . S
H524 C537 0.961 . S
H525 C537 0.959 . S
H526 C540 0.929 . S
H527 C541 0.931 . S
H528 C543 0.930 . S
C529 H517 0.930 . S
C529 C530 1.399 . S
C529 C534 1.399 . S
C530 C529 1.399 . S
C530 C531 1.376 . S
C531 H518 0.930 . S
C531 C530 1.376 . S
C531 C532 1.388 . S
C532 H519 0.930 . S
C532 C531 1.388 . S
C532 C533 1.390 . S
C533 C532 1.390 . S
C533 C534 1.394 . S
C533 C539 1.465 . S
C534 C529 1.399 . S
C534 C533 1.394 . S
C534 C535 1.516 . S
C535 C534 1.516 . S
C535 C536 1.502 . S
C535 C537 1.561 . S
C535 C538 1.526 . S
C536 H520 0.959 . S
C536 H521 0.959 . S
C536 H522 0.961 . S
C536 C535 1.502 . S
C537 H523 0.960 . S
C537 H524 0.961 . S
C537 H525 0.959 . S
C537 C535 1.561 . S
C538 C535 1.526 . S
C538 C539 1.396 . S
C538 C543 1.390 . S
C539 C533 1.465 . S
C539 C538 1.396 . S
C539 C540 1.399 . S
C540 H526 0.929 . S
C540 C539 1.399 . S
C540 C541 1.385 . S
C541 H527 0.931 . S
C541 C540 1.385 . S
C541 C542 1.389 . S
C542 C541 1.389 . S
C542 C543 1.387 . S
C543 H528 0.930 . S
C543 C538 1.390 . S
C543 C542 1.387 . S
C125 C4 1.356 . S
C137 C88 1.393 . S
C152 C18 1.319 . S
C164 C102 1.375 . S
C179 C60 1.346 . S
C191 C32 1.316 . S
C206 C74 1.391 . S
C218 C46 1.338 . S
C233 C5 1.164 . S
C245 C75 1.066 . S
C260 C19 1.057 . S
C272 C89 1.151 . S
C287 C103 1.171 1_556 S
C299 C33 1.071 . S
C314 C47 1.144 . S
C326 C61 1.056 . S
C341 C68 1.329 . S
C353 C12 1.328 . S
C368 C26 1.292 . S
C380 C82 1.296 . S
C395 C40 1.305 . S
C407 C96 1.301 . S
C422 C110 1.316 . S
C434 C54 1.312 . S
C449 C95 1.326 . S
C461 C11 1.301 . S
C476 C109 1.252 . S
C488 C25 1.228 . S
C503 C39 1.255 . S
C515 C67 1.228 . S
C530 C53 1.279 . S
C542 C81 1.319 . S
