# Generated by pormake.
# Topology umx, (4)-cn, num edge types: 1
# Building blocks:
#     Node 0, Type 0, BuildingBlock: KUFVIS_clean_sbu_0, # of connection points: 4
#     Node 1, Type 0, BuildingBlock: KUFVIS_clean_sbu_0, # of connection points: 4
#     Node 2, Type 0, BuildingBlock: KUFVIS_clean_sbu_0, # of connection points: 4
#     Node 3, Type 0, BuildingBlock: KUFVIS_clean_sbu_0, # of connection points: 4
#     Node 4, Type 0, BuildingBlock: KUFVIS_clean_sbu_0, # of connection points: 4
#     Node 5, Type 0, BuildingBlock: KUFVIS_clean_sbu_0, # of connection points: 4
#     Node 6, Type 0, BuildingBlock: KUFVIS_clean_sbu_0, # of connection points: 4
#     Node 7, Type 0, BuildingBlock: KUFVIS_clean_sbu_0, # of connection points: 4
#     Edge 8, Type (0, 0), BuildingBlock: MIFKUJ_clean_linker_0, # of connection points: 2
#     Edge 9, Type (0, 0), BuildingBlock: MIFKUJ_clean_linker_0, # of connection points: 2
#     Edge 10, Type (0, 0), BuildingBlock: MIFKUJ_clean_linker_0, # of connection points: 2
#     Edge 11, Type (0, 0), BuildingBlock: MIFKUJ_clean_linker_0, # of connection points: 2
#     Edge 12, Type (0, 0), BuildingBlock: MIFKUJ_clean_linker_0, # of connection points: 2
#     Edge 13, Type (0, 0), BuildingBlock: MIFKUJ_clean_linker_0, # of connection points: 2
#     Edge 14, Type (0, 0), BuildingBlock: MIFKUJ_clean_linker_0, # of connection points: 2
#     Edge 15, Type (0, 0), BuildingBlock: MIFKUJ_clean_linker_0, # of connection points: 2
#     Edge 16, Type (0, 0), BuildingBlock: MIFKUJ_clean_linker_0, # of connection points: 2
#     Edge 17, Type (0, 0), BuildingBlock: MIFKUJ_clean_linker_0, # of connection points: 2
#     Edge 18, Type (0, 0), BuildingBlock: MIFKUJ_clean_linker_0, # of connection points: 2
#     Edge 19, Type (0, 0), BuildingBlock: MIFKUJ_clean_linker_0, # of connection points: 2
#     Edge 20, Type (0, 0), BuildingBlock: MIFKUJ_clean_linker_0, # of connection points: 2
#     Edge 21, Type (0, 0), BuildingBlock: MIFKUJ_clean_linker_0, # of connection points: 2
#     Edge 22, Type (0, 0), BuildingBlock: MIFKUJ_clean_linker_0, # of connection points: 2
#     Edge 23, Type (0, 0), BuildingBlock: MIFKUJ_clean_linker_0, # of connection points: 2
# Relax obj value: 0.121
# Max RMSD: 0.266
# Mean RMSD: 0.231
data_MOF--net-umx--node1-KUFVIS_clean_sbu_0--edge1-MIFKUJ_clean_linker_0
_symmetry_space_group_name_H-M    P1
_symmetry_Int_Tables_number       1
_symmetry_cell_setting            triclinic
loop_
_symmetry_equiv_pos_as_xyz
'x, y, z'
_cell_length_a     44.834798
_cell_length_b     53.923293
_cell_length_c     36.521304
_cell_angle_alpha  89.957718
_cell_angle_beta   89.991008
_cell_angle_gamma 90.006345
loop_
_atom_site_label
_atom_site_type_symbol
_atom_site_fract_x
_atom_site_fract_y
_atom_site_fract_z
_atom_type_partial_charge
Mn0 Mn 0.20499 0.45429 0.0153 0.0
Mn1 Mn 0.16294 0.42111 0.95646 0.0
C2 C 0.15721 0.46715 0.00275 0.0
C3 C 0.22246 0.45957 0.07485 0.0
C4 C 0.21257 0.45599 0.93256 0.0
O5 O 0.22738 0.42185 0.00992 0.0
O6 O 0.19445 0.39935 0.97734 0.0
C7 C 0.13468 0.38642 0.00884 0.0
N8 N 0.13209 0.40401 0.98225 0.0
C9 C 0.07851 0.40161 0.98404 0.0
C10 C 0.0806 0.38335 0.01128 0.0
C11 C 0.10881 0.37578 0.0238 0.0
C12 C 0.10507 0.41151 0.97013 0.0
H13 H 0.15633 0.38061 0.01858 0.0
C14 C 0.21871 0.40154 0.99558 0.0
O15 O 0.2371 0.46841 0.04703 0.0
O16 O 0.19816 0.44743 0.06793 0.0
N17 N 0.13137 0.43967 0.93418 0.0
C18 C 0.13319 0.45821 0.90889 0.0
C19 C 0.10691 0.46814 0.89395 0.0
C20 C 0.07907 0.45877 0.90488 0.0
C21 C 0.07775 0.43956 0.9307 0.0
C22 C 0.1047 0.43022 0.94438 0.0
H23 H 0.15451 0.46541 0.90018 0.0
O24 O 0.17625 0.48236 0.01725 0.0
O25 O 0.16641 0.44457 0.99724 0.0
O26 O 0.21845 0.46508 0.96403 0.0
O27 O 0.1936 0.43863 0.92731 0.0
C28 C 0.05075 0.42956 0.94384 0.0
C29 C 0.05113 0.41066 0.97058 0.0
H30 H 0.0607 0.37516 0.02299 0.0
H31 H 0.11059 0.36178 0.04494 0.0
H32 H 0.10811 0.48298 0.87403 0.0
H33 H 0.05886 0.4665 0.89333 0.0
H34 H 0.02957 0.43653 0.93394 0.0
H35 H 0.03023 0.40336 0.98084 0.0
Mn36 Mn 0.52898 0.1736 0.52815 0.0
Mn37 Mn 0.48942 0.22653 0.51939 0.0
C38 C 0.51987 0.19713 0.5789 0.0
C39 C 0.52882 0.13069 0.53225 0.0
C40 C 0.55544 0.22315 0.50305 0.0
O41 O 0.51244 0.17132 0.4772 0.0
O42 O 0.48569 0.20637 0.47383 0.0
C43 C 0.42983 0.20292 0.51904 0.0
N44 N 0.44939 0.21938 0.53395 0.0
C45 C 0.41352 0.23191 0.57931 0.0
C46 C 0.3929 0.21521 0.5643 0.0
C47 C 0.40113 0.20061 0.53408 0.0
C48 C 0.4418 0.23335 0.56319 0.0
H49 H 0.4361 0.19161 0.4959 0.0
C50 C 0.49565 0.18622 0.45995 0.0
O51 O 0.55194 0.14254 0.51977 0.0
O52 O 0.5062 0.14382 0.5429 0.0
N53 N 0.4904 0.24844 0.56052 0.0
C54 C 0.51269 0.26402 0.57124 0.0
C55 C 0.50794 0.28007 0.60092 0.0
C56 C 0.48022 0.28023 0.61879 0.0
C57 C 0.45744 0.26443 0.60683 0.0
C58 C 0.46337 0.24898 0.57693 0.0
H59 H 0.53396 0.26411 0.55735 0.0
O60 O 0.54026 0.18007 0.57937 0.0
O61 O 0.50351 0.19865 0.54937 0.0
O62 O 0.55854 0.20015 0.51079 0.0
O63 O 0.53062 0.23481 0.50524 0.0
C64 C 0.42909 0.26341 0.62339 0.0
C65 C 0.40717 0.24709 0.60972 0.0
H66 H 0.37075 0.21337 0.57582 0.0
H67 H 0.38538 0.18761 0.52242 0.0
H68 H 0.52548 0.2924 0.60987 0.0
H69 H 0.47647 0.2928 0.64133 0.0
H70 H 0.42395 0.27505 0.64673 0.0
H71 H 0.38549 0.24638 0.62277 0.0
Mn72 Mn 0.80548 0.54913 0.0065 0.0
Mn73 Mn 0.83693 0.59204 0.95182 0.0
C74 C 0.853 0.54253 0.98445 0.0
C75 C 0.79453 0.53629 0.06586 0.0
C76 C 0.78934 0.55582 0.92637 0.0
O77 O 0.77912 0.57937 0.01238 0.0
O78 O 0.80544 0.60827 0.98177 0.0
C79 C 0.86634 0.62354 0.00748 0.0
N80 N 0.86811 0.60912 0.97697 0.0
C81 C 0.92087 0.61645 0.97168 0.0
C82 C 0.91961 0.6315 0.00294 0.0
C83 C 0.89223 0.635 0.02097 0.0
C84 C 0.89433 0.60557 0.95947 0.0
H85 H 0.84533 0.62622 0.02141 0.0
C86 C 0.78353 0.60165 0.00208 0.0
O87 O 0.77812 0.52934 0.03838 0.0
O88 O 0.81703 0.55059 0.05873 0.0
N89 N 0.8678 0.57893 0.92141 0.0
C90 C 0.86546 0.56266 0.89302 0.0
C91 C 0.8909 0.55681 0.87241 0.0
C92 C 0.91834 0.56782 0.88111 0.0
C93 C 0.92029 0.58432 0.91064 0.0
C94 C 0.89412 0.58969 0.92991 0.0
H95 H 0.84436 0.55429 0.88602 0.0
O96 O 0.83736 0.52417 0.99715 0.0
O97 O 0.84061 0.56433 0.98625 0.0
O98 O 0.78791 0.54288 0.9556 0.0
O99 O 0.80564 0.57514 0.92309 0.0
C100 C 0.94717 0.59551 0.92189 0.0
C101 C 0.94749 0.61146 0.9525 0.0
H102 H 0.93955 0.64029 0.01351 0.0
H103 H 0.89111 0.64649 0.04521 0.0
H104 H 0.88932 0.54398 0.84972 0.0
H105 H 0.93768 0.56358 0.86477 0.0
H106 H 0.96778 0.59176 0.90746 0.0
H107 H 0.96837 0.61965 0.96124 0.0
Mn108 Mn 0.49105 0.82382 0.519 0.0
Mn109 Mn 0.52147 0.76657 0.52091 0.0
C110 C 0.49759 0.80444 0.57415 0.0
C111 C 0.49745 0.86645 0.51588 0.0
C112 C 0.45666 0.77595 0.50276 0.0
O113 O 0.50726 0.81968 0.46794 0.0
O114 O 0.52802 0.78187 0.47178 0.0
C115 C 0.58437 0.78291 0.517 0.0
N116 N 0.56233 0.7703 0.53467 0.0
C117 C 0.59569 0.75868 0.58334 0.0
C118 C 0.61883 0.77137 0.56552 0.0
C119 C 0.61312 0.78358 0.53224 0.0
C120 C 0.56752 0.75865 0.56681 0.0
H121 H 0.57999 0.79245 0.49155 0.0
C122 C 0.52108 0.80146 0.45384 0.0
O123 O 0.47281 0.85609 0.50506 0.0
O124 O 0.51831 0.85202 0.52818 0.0
N125 N 0.51699 0.74889 0.56601 0.0
C126 C 0.49238 0.73705 0.57923 0.0
C127 C 0.49428 0.72391 0.61238 0.0
C128 C 0.52156 0.72273 0.63122 0.0
C129 C 0.54682 0.73433 0.6164 0.0
C130 C 0.5436 0.74701 0.58315 0.0
H131 H 0.47137 0.73788 0.5648 0.0
O132 O 0.47965 0.82318 0.57126 0.0
O133 O 0.51263 0.79835 0.54487 0.0
O134 O 0.45734 0.79951 0.50669 0.0
O135 O 0.47925 0.7618 0.50755 0.0
C136 C 0.57501 0.73401 0.63345 0.0
C137 C 0.59941 0.74623 0.61698 0.0
H138 H 0.64101 0.77198 0.57723 0.0
H139 H 0.63082 0.79352 0.51843 0.0
H140 H 0.47474 0.71483 0.62347 0.0
H141 H 0.52287 0.7128 0.65696 0.0
H142 H 0.57813 0.7245 0.6593 0.0
H143 H 0.62093 0.74596 0.63044 0.0
Mn144 Mn 0.19773 0.55652 0.50067 0.0
Mn145 Mn 0.15837 0.59743 0.5513 0.0
C146 C 0.14921 0.54767 0.51631 0.0
C147 C 0.21384 0.54447 0.4426 0.0
C148 C 0.20462 0.56233 0.58349 0.0
O149 O 0.22262 0.58784 0.49808 0.0
O150 O 0.19264 0.61453 0.5278 0.0
C151 C 0.13579 0.62841 0.49037 0.0
N152 N 0.13038 0.61396 0.52025 0.0
C153 C 0.07738 0.61944 0.51384 0.0
C154 C 0.08239 0.63453 0.48316 0.0
C155 C 0.11172 0.63898 0.47134 0.0
C156 C 0.10225 0.60942 0.53172 0.0
H157 H 0.15829 0.63178 0.48106 0.0
C158 C 0.21611 0.60955 0.50923 0.0
O159 O 0.22832 0.5377 0.47181 0.0
O160 O 0.19047 0.5582 0.44735 0.0
N161 N 0.12415 0.58387 0.57554 0.0
C162 C 0.12306 0.56864 0.60532 0.0
C163 C 0.09526 0.56236 0.62048 0.0
C164 C 0.06897 0.57199 0.60526 0.0
C165 C 0.07065 0.58791 0.57501 0.0
C166 C 0.09896 0.59376 0.56128 0.0
H167 H 0.14321 0.56129 0.61735 0.0
O168 O 0.16692 0.53012 0.50554 0.0
O169 O 0.16012 0.57001 0.51634 0.0
O170 O 0.21098 0.55077 0.5539 0.0
O171 O 0.18618 0.58044 0.58507 0.0
C172 C 0.04531 0.59801 0.55775 0.0
C173 C 0.04867 0.61369 0.52709 0.0
H174 H 0.06388 0.64266 0.46835 0.0
H175 H 0.11577 0.6505 0.44757 0.0
H176 H 0.09396 0.55009 0.6438 0.0
H177 H 0.04761 0.56705 0.61705 0.0
H178 H 0.02313 0.59364 0.56761 0.0
H179 H 0.02902 0.62114 0.5138 0.0
Mn180 Mn 0.46748 0.161 0.99861 0.0
Mn181 Mn 0.50605 0.21465 0.0042 0.0
C182 C 0.48414 0.1791 0.94575 0.0
C183 C 0.46847 0.11811 0.00437 0.0
C184 C 0.43854 0.21142 0.01005 0.0
O185 O 0.47635 0.16467 0.05234 0.0
O186 O 0.50718 0.19753 0.05262 0.0
C187 C 0.56627 0.19334 0.01439 0.0
N188 N 0.5473 0.20823 0.99528 0.0
C189 C 0.58615 0.2199 0.95322 0.0
C190 C 0.60618 0.20485 0.97261 0.0
C191 C 0.59617 0.19146 0.00327 0.0
C192 C 0.55663 0.22106 0.96562 0.0
H193 H 0.55859 0.18296 0.03787 0.0
C194 C 0.49352 0.17975 0.06872 0.0
O195 O 0.44385 0.13047 0.00888 0.0
O196 O 0.49223 0.13066 0.9962 0.0
N197 N 0.50723 0.23376 0.96002 0.0
C198 C 0.48498 0.24715 0.944 0.0
C199 C 0.4912 0.26125 0.91256 0.0
C200 C 0.52031 0.2619 0.89841 0.0
C201 C 0.54302 0.24857 0.91598 0.0
C202 C 0.53551 0.23487 0.94726 0.0
H203 H 0.46257 0.24686 0.95485 0.0
O204 O 0.46412 0.16175 0.94466 0.0
O205 O 0.49552 0.18416 0.97778 0.0
O206 O 0.43584 0.1883 0.00299 0.0
O207 O 0.46366 0.22259 0.01256 0.0
C208 C 0.57268 0.24793 0.90328 0.0
C209 C 0.59421 0.23356 0.92183 0.0
H210 H 0.62925 0.2033 0.96407 0.0
H211 H 0.61146 0.17971 0.01827 0.0
H212 H 0.4736 0.27149 0.89911 0.0
H213 H 0.52494 0.2726 0.87394 0.0
H214 H 0.57911 0.25822 0.87904 0.0
H215 H 0.61688 0.23302 0.91158 0.0
Mn216 Mn 0.80041 0.45654 0.50098 0.0
Mn217 Mn 0.83633 0.41808 0.55913 0.0
C218 C 0.84632 0.46793 0.52368 0.0
C219 C 0.78887 0.46728 0.44089 0.0
C220 C 0.78559 0.45196 0.58222 0.0
O221 O 0.77782 0.42429 0.49602 0.0
O222 O 0.80555 0.39929 0.53162 0.0
C223 C 0.86645 0.38648 0.50416 0.0
N224 N 0.86794 0.40153 0.53403 0.0
C225 C 0.9209 0.39535 0.53921 0.0
C226 C 0.91994 0.37966 0.50863 0.0
C227 C 0.89261 0.37528 0.49095 0.0
C228 C 0.89413 0.40603 0.55104 0.0
H229 H 0.84547 0.38305 0.49054 0.0
C230 C 0.78396 0.40312 0.50944 0.0
O231 O 0.77129 0.4733 0.46777 0.0
O232 O 0.81281 0.45498 0.44903 0.0
N233 N 0.86703 0.43311 0.58788 0.0
C234 C 0.86426 0.44933 0.61627 0.0
C235 C 0.88946 0.45536 0.63725 0.0
C236 C 0.91719 0.44468 0.62882 0.0
C237 C 0.91958 0.4283 0.59923 0.0
C238 C 0.89358 0.42253 0.57984 0.0
H239 H 0.8429 0.45726 0.62328 0.0
O240 O 0.82852 0.48433 0.50958 0.0
O241 O 0.8372 0.44497 0.52275 0.0
O242 O 0.78154 0.46247 0.55128 0.0
O243 O 0.80469 0.43472 0.58756 0.0
C244 C 0.94671 0.41738 0.58832 0.0
C245 C 0.94741 0.40106 0.55815 0.0
H246 H 0.94007 0.371 0.49836 0.0
H247 H 0.8917 0.36328 0.46724 0.0
H248 H 0.88745 0.46789 0.66022 0.0
H249 H 0.93648 0.44897 0.64545 0.0
H250 H 0.96721 0.4216 0.60272 0.0
H251 H 0.96846 0.39303 0.5497 0.0
Mn252 Mn 0.50006 0.81041 0.00731 0.0
Mn253 Mn 0.46814 0.75381 0.00383 0.0
C254 C 0.49548 0.79104 0.9519 0.0
C255 C 0.49505 0.8532 0.01072 0.0
C256 C 0.53295 0.76125 0.02202 0.0
O257 O 0.4818 0.80691 0.05737 0.0
O258 O 0.46366 0.76826 0.05385 0.0
C259 C 0.40635 0.77254 0.011 0.0
N260 N 0.42718 0.75944 0.99196 0.0
C261 C 0.39182 0.74989 0.94447 0.0
C262 C 0.36993 0.76313 0.96368 0.0
C263 C 0.37726 0.77455 0.99706 0.0
C264 C 0.42045 0.7486 0.95967 0.0
H265 H 0.41192 0.78143 0.03657 0.0
C266 C 0.46918 0.78819 0.07157 0.0
O267 O 0.51892 0.84215 0.02261 0.0
O268 O 0.47427 0.83937 0.99679 0.0
N269 N 0.4703 0.73665 0.95817 0.0
C270 C 0.49365 0.72365 0.94394 0.0
C271 C 0.48996 0.71094 0.91073 0.0
C272 C 0.46214 0.71121 0.89305 0.0
C273 C 0.43818 0.72395 0.90888 0.0
C274 C 0.44316 0.73623 0.94205 0.0
H275 H 0.515 0.72324 0.95763 0.0
O276 O 0.51354 0.8096 0.95602 0.0
O277 O 0.4786 0.78539 0.97997 0.0
O278 O 0.53251 0.785 0.0211 0.0
O279 O 0.51032 0.74755 0.01505 0.0
C280 C 0.40954 0.72494 0.89306 0.0
C281 C 0.3864 0.73797 0.91079 0.0
H282 H 0.34746 0.76471 0.95303 0.0
H283 H 0.36052 0.78489 0.01199 0.0
H284 H 0.50848 0.70093 0.89889 0.0
H285 H 0.45924 0.70139 0.86755 0.0
H286 H 0.40509 0.71574 0.86727 0.0
H287 H 0.36448 0.73866 0.89833 0.0
H288 H 0.20664 0.4335 0.13547 0.0
H289 H 0.21387 0.44551 0.1993 0.0
H290 H 0.26422 0.50954 0.1646 0.0
H291 H 0.25793 0.49705 0.10049 0.0
H292 H 0.28531 0.49191 0.22937 0.0
H293 H 0.18973 0.51423 0.17866 0.0
H294 H 0.14218 0.50591 0.14692 0.0
H295 H 0.11729 0.45444 0.23132 0.0
H296 H 0.16486 0.46222 0.26332 0.0
H297 H 0.19394 0.56345 0.3784 0.0
H298 H 0.20338 0.54826 0.31679 0.0
H299 H 0.26168 0.49178 0.36022 0.0
H300 H 0.2527 0.50738 0.42248 0.0
H301 H 0.18802 0.50516 0.29113 0.0
H302 H 0.31204 0.4754 0.29097 0.0
H303 H 0.35964 0.48752 0.3198 0.0
H304 H 0.32717 0.56181 0.33387 0.0
H305 H 0.27957 0.55023 0.3047 0.0
C306 C 0.21981 0.44985 0.14147 0.0
C307 C 0.23136 0.46456 0.11306 0.0
C308 C 0.22391 0.4567 0.17795 0.0
C309 C 0.23897 0.47874 0.18668 0.0
C310 C 0.25242 0.49251 0.15848 0.0
C311 C 0.24875 0.4854 0.12188 0.0
C312 C 0.23758 0.48881 0.22448 0.0
C313 C 0.26408 0.49472 0.24301 0.0
C314 C 0.20984 0.49296 0.24199 0.0
C315 C 0.18096 0.48863 0.22318 0.0
C316 C 0.17416 0.50106 0.19035 0.0
C317 C 0.14722 0.49644 0.17232 0.0
C318 C 0.12678 0.4796 0.18704 0.0
C319 C 0.13317 0.46745 0.21993 0.0
C320 C 0.1601 0.47197 0.23803 0.0
C321 C 0.20906 0.54796 0.37492 0.0
C322 C 0.2224 0.53648 0.40533 0.0
C323 C 0.21441 0.53928 0.33962 0.0
C324 C 0.23312 0.51881 0.3338 0.0
C325 C 0.24735 0.50774 0.36399 0.0
C326 C 0.24216 0.51662 0.39953 0.0
C327 C 0.23577 0.5083 0.29634 0.0
C328 C 0.20935 0.50222 0.27777 0.0
C329 C 0.26353 0.50463 0.27866 0.0
C330 C 0.29212 0.51185 0.29606 0.0
C331 C 0.3151 0.49433 0.30015 0.0
C332 C 0.34207 0.50111 0.31655 0.0
C333 C 0.34638 0.52539 0.32879 0.0
C334 C 0.32375 0.54298 0.32454 0.0
C335 C 0.29675 0.53631 0.30813 0.0
H336 H 0.36727 0.5306 0.34148 0.0
H337 H 0.106 0.47597 0.17297 0.0
H338 H 0.46943 0.20081 0.61975 0.0
H339 H 0.46739 0.2137 0.68407 0.0
H340 H 0.55976 0.23561 0.67904 0.0
H341 H 0.56153 0.22363 0.61443 0.0
H342 H 0.53486 0.18764 0.72209 0.0
H343 H 0.53578 0.27666 0.71278 0.0
H344 H 0.51918 0.31813 0.69283 0.0
H345 H 0.43176 0.30389 0.73612 0.0
H346 H 0.44799 0.26241 0.75668 0.0
H347 H 0.53921 0.18161 0.91457 0.0
H348 H 0.55114 0.19777 0.85339 0.0
H349 H 0.45848 0.21689 0.83747 0.0
H350 H 0.44705 0.20193 0.89907 0.0
H351 H 0.49202 0.25071 0.80572 0.0
H352 H 0.48855 0.16058 0.80857 0.0
H353 H 0.50402 0.11913 0.83001 0.0
H354 H 0.59397 0.13386 0.7959 0.0
H355 H 0.57905 0.17553 0.77465 0.0
C356 C 0.48867 0.2098 0.63182 0.0
C357 C 0.51544 0.21174 0.61223 0.0
C358 C 0.48754 0.21713 0.66848 0.0
C359 C 0.51337 0.2258 0.68603 0.0
C360 C 0.53949 0.22943 0.66571 0.0
C361 C 0.54051 0.22244 0.62899 0.0
C362 C 0.51527 0.22397 0.72617 0.0
C363 C 0.52616 0.20165 0.74055 0.0
C364 C 0.50333 0.24207 0.74978 0.0
C365 C 0.49302 0.26641 0.73598 0.0
C366 C 0.51295 0.28231 0.71776 0.0
C367 C 0.5037 0.3059 0.70668 0.0
C368 C 0.47445 0.31367 0.71329 0.0
C369 C 0.45442 0.29787 0.73107 0.0
C370 C 0.46368 0.27437 0.74261 0.0
C371 C 0.52174 0.19003 0.89828 0.0
C372 C 0.49248 0.19135 0.91156 0.0
C373 C 0.52843 0.199 0.86331 0.0
C374 C 0.50564 0.2084 0.84077 0.0
C375 C 0.47647 0.21 0.85447 0.0
C376 C 0.46992 0.20132 0.88946 0.0
C377 C 0.51113 0.21409 0.80169 0.0
C378 C 0.50141 0.23693 0.78741 0.0
C379 C 0.52385 0.1963 0.77788 0.0
C380 C 0.53278 0.17123 0.79045 0.0
C381 C 0.51166 0.15501 0.80587 0.0
C382 C 0.52032 0.13149 0.81795 0.0
C383 C 0.54998 0.1239 0.81443 0.0
C384 C 0.57102 0.13979 0.79869 0.0
C385 C 0.56248 0.16335 0.78662 0.0
H386 H 0.55665 0.10567 0.8238 0.0
H387 H 0.46728 0.33189 0.70451 0.0
H388 H 0.82773 0.46707 0.38399 0.0
H389 H 0.8186 0.47993 0.3209 0.0
H390 H 0.72696 0.49604 0.34739 0.0
H391 H 0.73607 0.48368 0.41136 0.0
H392 H 0.74897 0.46301 0.27416 0.0
H393 H 0.75004 0.54237 0.33795 0.0
H394 H 0.77063 0.57168 0.38319 0.0
H395 H 0.85545 0.56973 0.32866 0.0
H396 H 0.83546 0.5401 0.28342 0.0
H397 H 0.74196 0.51877 0.09452 0.0
H398 H 0.73179 0.50818 0.15873 0.0
H399 H 0.82322 0.52507 0.18629 0.0
H400 H 0.83296 0.53661 0.12301 0.0
H401 H 0.78975 0.54432 0.23487 0.0
H402 H 0.79376 0.46367 0.17644 0.0
H403 H 0.77826 0.43149 0.13238 0.0
H404 H 0.68944 0.43284 0.17638 0.0
H405 H 0.70436 0.46524 0.22044 0.0
C406 C 0.80557 0.47325 0.37648 0.0
C407 C 0.78262 0.47446 0.40263 0.0
C408 C 0.80042 0.48054 0.34043 0.0
C409 C 0.77216 0.48886 0.32969 0.0
C410 C 0.7489 0.4896 0.35536 0.0
C411 C 0.75418 0.48267 0.39178 0.0
C412 C 0.76793 0.49765 0.29177 0.0
C413 C 0.75709 0.48103 0.26545 0.0
C414 C 0.77934 0.52084 0.28065 0.0
C415 C 0.79131 0.53887 0.30752 0.0
C416 C 0.77315 0.54803 0.33581 0.0
C417 C 0.78469 0.56473 0.36141 0.0
C418 C 0.81435 0.57252 0.35885 0.0
C419 C 0.83249 0.56367 0.33062 0.0
C420 C 0.82105 0.54695 0.30498 0.0
C421 C 0.75982 0.52011 0.11438 0.0
C422 C 0.78822 0.52855 0.10385 0.0
C423 C 0.75404 0.514 0.15101 0.0
C424 C 0.77677 0.51571 0.17744 0.0
C425 C 0.8052 0.5238 0.1666 0.0
C426 C 0.8108 0.53031 0.13033 0.0
C427 C 0.77143 0.50945 0.21657 0.0
C428 C 0.78072 0.52654 0.24328 0.0
C429 C 0.75903 0.4865 0.22788 0.0
C430 C 0.75006 0.46709 0.20137 0.0
C431 C 0.77086 0.45724 0.1765 0.0
C432 C 0.7622 0.43894 0.15158 0.0
C433 C 0.73286 0.43019 0.15149 0.0
C434 C 0.71214 0.43968 0.17641 0.0
C435 C 0.72069 0.458 0.20137 0.0
H436 H 0.72619 0.41602 0.13218 0.0
H437 H 0.82325 0.58545 0.3787 0.0
H438 H 0.4484 0.78601 0.90518 0.0
H439 H 0.45168 0.77581 0.83969 0.0
H440 H 0.54584 0.76187 0.85146 0.0
H441 H 0.54243 0.77122 0.9169 0.0
H442 H 0.51319 0.80809 0.80436 0.0
H443 H 0.53522 0.72089 0.81907 0.0
H444 H 0.52854 0.67721 0.8373 0.0
H445 H 0.44353 0.67546 0.7832 0.0
H446 H 0.44972 0.71921 0.76476 0.0
H447 H 0.54813 0.80208 0.61511 0.0
H448 H 0.55154 0.78983 0.67987 0.0
H449 H 0.45798 0.77108 0.67952 0.0
H450 H 0.45458 0.78351 0.6151 0.0
H451 H 0.49502 0.73717 0.7208 0.0
H452 H 0.47489 0.82543 0.70595 0.0
H453 H 0.48613 0.86711 0.68172 0.0
H454 H 0.57127 0.86598 0.73552 0.0
H455 H 0.56069 0.82409 0.7596 0.0
C456 C 0.46938 0.77946 0.89408 0.0
C457 C 0.49499 0.7787 0.91607 0.0
C458 C 0.47128 0.7737 0.85676 0.0
C459 C 0.49891 0.76762 0.84098 0.0
C460 C 0.52421 0.76583 0.8633 0.0
C461 C 0.52225 0.77132 0.90056 0.0
C462 C 0.50262 0.76919 0.80088 0.0
C463 C 0.50963 0.79249 0.78611 0.0
C464 C 0.4978 0.74887 0.77724 0.0
C465 C 0.49269 0.72344 0.79115 0.0
C466 C 0.51485 0.71135 0.81169 0.0
C467 C 0.51131 0.68648 0.82169 0.0
C468 C 0.48565 0.67355 0.81138 0.0
C469 C 0.46341 0.68548 0.79115 0.0
C470 C 0.46692 0.71031 0.78093 0.0
C471 C 0.52863 0.79462 0.62872 0.0
C472 C 0.50131 0.79296 0.6102 0.0
C473 C 0.53052 0.78776 0.66559 0.0
C474 C 0.505 0.77947 0.68431 0.0
C475 C 0.47795 0.77713 0.6654 0.0
C476 C 0.47601 0.78427 0.62878 0.0
C477 C 0.50539 0.77607 0.72445 0.0
C478 C 0.49888 0.75264 0.73917 0.0
C479 C 0.51099 0.79622 0.74821 0.0
C480 C 0.51714 0.82154 0.73422 0.0
C481 C 0.4961 0.834 0.71238 0.0
C482 C 0.50233 0.85766 0.69871 0.0
C483 C 0.52944 0.86916 0.70698 0.0
C484 C 0.55031 0.85703 0.72907 0.0
C485 C 0.54421 0.83334 0.74275 0.0
H486 H 0.53423 0.88747 0.69636 0.0
H487 H 0.48294 0.65431 0.81917 0.0
H488 H 0.75851 0.49721 0.58976 0.0
H489 H 0.74373 0.51698 0.64723 0.0
H490 H 0.76377 0.4496 0.70591 0.0
H491 H 0.7785 0.42966 0.64878 0.0
H492 H 0.71467 0.47607 0.73553 0.0
H493 H 0.81696 0.48981 0.69456 0.0
H494 H 0.85501 0.50403 0.65043 0.0
H495 H 0.8182 0.57744 0.65301 0.0
H496 H 0.77955 0.5636 0.69663 0.0
H497 H 0.77353 0.50827 0.90917 0.0
H498 H 0.7579 0.49296 0.84927 0.0
H499 H 0.75459 0.56806 0.80845 0.0
H500 H 0.7712 0.58336 0.86793 0.0
H501 H 0.78764 0.542 0.76631 0.0
H502 H 0.69066 0.53028 0.81571 0.0
H503 H 0.65262 0.51646 0.85999 0.0
H504 H 0.67805 0.44064 0.84241 0.0
H505 H 0.71656 0.454 0.79841 0.0
C506 C 0.75889 0.48634 0.6147 0.0
C507 C 0.77016 0.46199 0.6148 0.0
C508 C 0.75048 0.49769 0.64751 0.0
C509 C 0.75309 0.48483 0.68078 0.0
C510 C 0.76164 0.45983 0.6805 0.0
C511 C 0.77024 0.44853 0.64782 0.0
C512 C 0.7514 0.49814 0.7161 0.0
C513 C 0.73052 0.49053 0.74244 0.0
C514 C 0.77177 0.51731 0.72462 0.0
C515 C 0.79512 0.5256 0.69849 0.0
C516 C 0.8168 0.50893 0.68547 0.0
C517 C 0.83851 0.51691 0.6606 0.0
C518 C 0.83898 0.54157 0.64888 0.0
C519 C 0.81777 0.55833 0.66205 0.0
C520 C 0.79594 0.55042 0.68682 0.0
C521 C 0.76868 0.52155 0.88772 0.0
C522 C 0.77387 0.54698 0.89312 0.0
C523 C 0.75961 0.51279 0.85346 0.0
C524 C 0.75499 0.52936 0.82425 0.0
C525 C 0.75815 0.55491 0.83047 0.0
C526 C 0.76762 0.56363 0.86449 0.0
C527 C 0.75095 0.51992 0.78637 0.0
C528 C 0.77109 0.52807 0.75946 0.0
C529 C 0.72982 0.50135 0.77744 0.0
C530 C 0.70666 0.49318 0.8039 0.0
C531 C 0.68831 0.51067 0.82148 0.0
C532 C 0.66662 0.50291 0.8465 0.0
C533 C 0.66295 0.47769 0.85406 0.0
C534 C 0.68092 0.46017 0.83654 0.0
C535 C 0.70266 0.46782 0.81151 0.0
H536 H 0.64615 0.47172 0.87344 0.0
H537 H 0.85584 0.5477 0.62968 0.0
H538 H 0.45847 0.82814 0.11535 0.0
H539 H 0.46499 0.82999 0.18172 0.0
H540 H 0.47987 0.75096 0.18456 0.0
H541 H 0.47212 0.74886 0.11838 0.0
H542 H 0.45357 0.76579 0.24648 0.0
H543 H 0.53848 0.79197 0.17489 0.0
H544 H 0.56334 0.81702 0.12729 0.0
H545 H 0.54074 0.88372 0.18517 0.0
H546 H 0.5154 0.85905 0.23289 0.0
H547 H 0.53569 0.76229 0.40951 0.0
H548 H 0.52822 0.75993 0.34336 0.0
H549 H 0.50589 0.83768 0.34066 0.0
H550 H 0.51367 0.84039 0.40661 0.0
H551 H 0.53644 0.82284 0.27895 0.0
H552 H 0.45176 0.79613 0.35102 0.0
H553 H 0.42874 0.77062 0.39951 0.0
H554 H 0.45189 0.70438 0.34091 0.0
H555 H 0.47555 0.72948 0.29237 0.0
C556 C 0.46219 0.81106 0.13031 0.0
C557 C 0.46515 0.7884 0.11168 0.0
C558 C 0.46611 0.81215 0.16818 0.0
C559 C 0.47393 0.79074 0.18789 0.0
C560 C 0.47414 0.76775 0.16986 0.0
C561 C 0.46962 0.76657 0.13201 0.0
C562 C 0.48502 0.79269 0.22607 0.0
C563 C 0.47185 0.77808 0.25349 0.0
C564 C 0.50881 0.80886 0.23534 0.0
C565 C 0.52487 0.82368 0.2073 0.0
C566 C 0.53876 0.81198 0.17741 0.0
C567 C 0.55292 0.82611 0.1504 0.0
C568 C 0.55357 0.85195 0.15317 0.0
C569 C 0.5402 0.86371 0.18305 0.0
C570 C 0.52597 0.84966 0.21011 0.0
C571 C 0.53011 0.77909 0.39477 0.0
C572 C 0.52472 0.80143 0.41353 0.0
C573 C 0.52565 0.77765 0.35696 0.0
C574 C 0.51572 0.79848 0.33739 0.0
C575 C 0.51324 0.82133 0.35538 0.0
C576 C 0.51768 0.82281 0.39313 0.0
C577 C 0.50495 0.79602 0.29923 0.0
C578 C 0.51818 0.81054 0.27187 0.0
C579 C 0.48131 0.77973 0.29005 0.0
C580 C 0.46574 0.76468 0.31827 0.0
C581 C 0.45207 0.77612 0.34855 0.0
C582 C 0.439 0.76174 0.3761 0.0
C583 C 0.43917 0.7359 0.37346 0.0
C584 C 0.45202 0.7244 0.34304 0.0
C585 C 0.46523 0.73869 0.31548 0.0
H586 H 0.42902 0.72478 0.39477 0.0
H587 H 0.56447 0.86287 0.1322 0.0
H588 H 0.22485 0.43387 0.86722 0.0
H589 H 0.2369 0.45448 0.80936 0.0
H590 H 0.24029 0.52494 0.86489 0.0
H591 H 0.22887 0.50436 0.92313 0.0
H592 H 0.1963 0.51911 0.80632 0.0
H593 H 0.30083 0.50769 0.82932 0.0
H594 H 0.34582 0.48359 0.84478 0.0
H595 H 0.33283 0.43806 0.74971 0.0
H596 H 0.28748 0.46165 0.73396 0.0
H597 H 0.21019 0.58817 0.64725 0.0
H598 H 0.22349 0.57198 0.7074 0.0
H599 H 0.23998 0.49998 0.66019 0.0
H600 H 0.22735 0.51626 0.59945 0.0
H601 H 0.27826 0.50853 0.7163 0.0
H602 H 0.17313 0.50953 0.69969 0.0
H603 H 0.12406 0.52643 0.683 0.0
H604 H 0.1341 0.58411 0.76317 0.0
H605 H 0.1833 0.56719 0.78068 0.0
C606 C 0.22903 0.45366 0.86729 0.0
C607 C 0.22581 0.46754 0.89964 0.0
C608 C 0.23604 0.46537 0.83426 0.0
C609 C 0.23953 0.49119 0.83294 0.0
C610 C 0.2379 0.50495 0.86549 0.0
C611 C 0.23145 0.49317 0.89871 0.0
C612 C 0.24007 0.50397 0.79707 0.0
C613 C 0.2146 0.51738 0.78703 0.0
C614 C 0.26326 0.50051 0.77129 0.0
C615 C 0.29059 0.48633 0.78062 0.0
C616 C 0.3074 0.4924 0.81188 0.0
C617 C 0.33301 0.47886 0.82066 0.0
C618 C 0.34214 0.45927 0.79828 0.0
C619 C 0.32572 0.45323 0.76703 0.0
C620 C 0.30008 0.4667 0.75814 0.0
C621 C 0.21713 0.56898 0.64947 0.0
C622 C 0.21731 0.55341 0.6186 0.0
C623 C 0.22472 0.55975 0.68393 0.0
C624 C 0.23213 0.53464 0.68844 0.0
C625 C 0.23426 0.51941 0.65737 0.0
C626 C 0.22698 0.52873 0.62267 0.0
C627 C 0.23463 0.52396 0.72585 0.0
C628 C 0.26034 0.51074 0.73598 0.0
C629 C 0.21127 0.52681 0.75158 0.0
C630 C 0.18196 0.53731 0.74113 0.0
C631 C 0.16495 0.52593 0.71355 0.0
C632 C 0.13709 0.53549 0.704 0.0
C633 C 0.12602 0.55653 0.72174 0.0
C634 C 0.14274 0.56788 0.74934 0.0
C635 C 0.17057 0.55825 0.75922 0.0
H636 H 0.10444 0.56394 0.71423 0.0
H637 H 0.36198 0.44881 0.80513 0.0
H638 H 0.52102 0.14994 0.41824 0.0
H639 H 0.52042 0.14658 0.35199 0.0
H640 H 0.45763 0.2071 0.3457 0.0
H641 H 0.45903 0.21134 0.41235 0.0
H642 H 0.48427 0.13748 0.30009 0.0
H643 H 0.47329 0.24329 0.2729 0.0
H644 H 0.48488 0.28277 0.30393 0.0
H645 H 0.55379 0.24686 0.36605 0.0
H646 H 0.54291 0.20728 0.335 0.0
H647 H 0.45401 0.15764 0.11462 0.0
H648 H 0.4552 0.15643 0.18106 0.0
H649 H 0.5396 0.19501 0.18061 0.0
H650 H 0.53782 0.19731 0.1136 0.0
H651 H 0.50664 0.2141 0.22994 0.0
H652 H 0.5332 0.13131 0.20131 0.0
H653 H 0.52969 0.09052 0.17115 0.0
H654 H 0.44466 0.07786 0.22193 0.0
H655 H 0.44745 0.11874 0.252 0.0
C656 C 0.50672 0.16239 0.40296 0.0
C657 C 0.49048 0.18125 0.42064 0.0
C658 C 0.50637 0.16037 0.36495 0.0
C659 C 0.48957 0.17697 0.34382 0.0
C660 C 0.47141 0.19452 0.36148 0.0
C661 C 0.47207 0.19682 0.39958 0.0
C662 C 0.49259 0.17676 0.30342 0.0
C663 C 0.48907 0.15423 0.28472 0.0
C664 C 0.50001 0.19844 0.2835 0.0
C665 C 0.50704 0.22227 0.3019 0.0
C666 C 0.49099 0.24385 0.29307 0.0
C667 C 0.49743 0.26624 0.31067 0.0
C668 C 0.51999 0.2673 0.33703 0.0
C669 C 0.53626 0.246 0.34572 0.0
C670 C 0.52995 0.22358 0.32814 0.0
C671 C 0.47304 0.16564 0.12855 0.0
C672 C 0.49594 0.17747 0.10887 0.0
C673 C 0.47374 0.16484 0.16663 0.0
C674 C 0.49773 0.17523 0.18588 0.0
C675 C 0.52087 0.18682 0.16631 0.0
C676 C 0.5199 0.18806 0.12808 0.0
C677 C 0.4978 0.17487 0.22647 0.0
C678 C 0.50189 0.19731 0.24525 0.0
C679 C 0.49218 0.15288 0.24658 0.0
C680 C 0.49044 0.1282 0.22869 0.0
C681 C 0.51365 0.1199 0.20586 0.0
C682 C 0.51181 0.09675 0.1888 0.0
C683 C 0.48694 0.08163 0.19456 0.0
C684 C 0.4639 0.0896 0.21747 0.0
C685 C 0.46562 0.11275 0.23457 0.0
H686 H 0.48554 0.06372 0.18132 0.0
H687 H 0.52491 0.28464 0.35066 0.0
H688 H 0.89942 0.56806 0.01306 0.0
H689 H 0.95244 0.55794 0.00824 0.0
H690 H 0.93065 0.49498 0.94053 0.0
H691 H 0.8779 0.50645 0.94281 0.0
H692 H 0.97321 0.51568 0.03583 0.0
H693 H 0.96835 0.48241 0.89846 0.0
H694 H 0.95897 0.49031 0.83288 0.0
H695 H -0.0006 0.56221 0.84257 0.0
H696 H 0.00753 0.55512 0.90865 0.0
H697 H 0.10787 0.4458 0.03184 0.0
H698 H 0.05608 0.45978 0.02526 0.0
H699 H 0.08608 0.52194 0.9603 0.0
H700 H 0.13764 0.50734 0.96585 0.0
H701 H 0.03981 0.50216 0.9294 0.0
H702 H 0.0646 0.52749 0.05149 0.0
H703 H 0.08202 0.52197 0.11504 0.0
H704 H 0.01058 0.47077 0.13555 0.0
H705 H 0.99304 0.47565 0.07192 0.0
C706 C 0.90622 0.55295 0.99543 0.0
C707 C 0.88487 0.53871 0.9769 0.0
C708 C 0.93644 0.54696 0.99302 0.0
C709 C 0.94577 0.52606 0.97312 0.0
C710 C 0.92437 0.51185 0.95449 0.0
C711 C 0.89416 0.51819 0.95627 0.0
C712 C 0.9769 0.51709 0.97697 0.0
C713 C 0.98773 0.51261 0.01249 0.0
C714 C 0.99601 0.51319 0.94675 0.0
C715 C 0.98733 0.51868 0.90865 0.0
C716 C 0.9742 0.50024 0.88683 0.0
C717 C 0.96929 0.5045 0.84955 0.0
C718 C 0.97835 0.52684 0.83361 0.0
C719 C 0.99219 0.545 0.85498 0.0
C720 C 0.99646 0.54104 0.89245 0.0
C721 C 0.10314 0.46219 0.0157 0.0
C722 C 0.12623 0.47503 0.99806 0.0
C723 C 0.07373 0.47039 0.01241 0.0
C724 C 0.06721 0.49195 0.99232 0.0
C725 C 0.09056 0.50514 0.97562 0.0
C726 C 0.1199 0.49686 0.97879 0.0
C727 C 0.03608 0.50069 0.98816 0.0
C728 C 0.02525 0.50504 0.95273 0.0
C729 C 0.01713 0.50472 0.01854 0.0
C730 C 0.02765 0.50178 0.05683 0.0
C731 C 0.05274 0.5149 0.06946 0.0
C732 C 0.06262 0.51191 0.10551 0.0
C733 C 0.04743 0.49601 0.12929 0.0
C734 C 0.02234 0.48306 0.11708 0.0
C735 C 0.01241 0.48594 0.08104 0.0
H736 H 0.05502 0.49379 0.15723 0.0
H737 H 0.97482 0.53002 0.80467 0.0
H738 H 0.5493 0.89204 0.52433 0.0
H739 H 0.55595 0.93693 0.52607 0.0
H740 H 0.46148 0.94705 0.5089 0.0
H741 H 0.45485 0.90203 0.50586 0.0
H742 H 0.49103 0.97955 0.47021 0.0
H743 H 0.49379 0.95248 0.59468 0.0
H744 H 0.51058 0.92729 0.64716 0.0
H745 H 0.59935 0.95604 0.63516 0.0
H746 H 0.58321 0.98111 0.58221 0.0
H747 H 0.47939 0.10203 0.53996 0.0
H748 H 0.47614 0.05687 0.53652 0.0
H749 H 0.57142 0.05236 0.52195 0.0
H750 H 0.57488 0.09779 0.52464 0.0
H751 H 0.54277 0.0176 0.57642 0.0
H752 H 0.53671 0.04571 0.4508 0.0
H753 H 0.51649 0.07174 0.40113 0.0
H754 H 0.42912 0.04156 0.41954 0.0
H755 H 0.44876 0.01566 0.46979 0.0
C756 C 0.52996 0.90383 0.52077 0.0
C757 C 0.50151 0.89357 0.51521 0.0
C758 C 0.53377 0.92948 0.52194 0.0
C759 C 0.50913 0.94534 0.51836 0.0
C760 C 0.48079 0.93514 0.51187 0.0
C761 C 0.47702 0.90945 0.5102 0.0
C762 C 0.51289 0.97255 0.52179 0.0
C763 C 0.50208 0.98783 0.49363 0.0
C764 C 0.52761 0.98339 0.55218 0.0
C765 C 0.53735 0.96849 0.58423 0.0
C766 C 0.51695 0.95329 0.60306 0.0
C767 C 0.52634 0.93905 0.63291 0.0
C768 C 0.55603 0.94001 0.64442 0.0
C769 C 0.57637 0.95528 0.62617 0.0
C770 C 0.56711 0.96953 0.59625 0.0
C771 C 0.49971 0.09145 0.53628 0.0
C772 C 0.52741 0.10339 0.53247 0.0
C773 C 0.49777 0.0657 0.53426 0.0
C774 C 0.52352 0.05145 0.52883 0.0
C775 C 0.55135 0.06318 0.52614 0.0
C776 C 0.55326 0.08904 0.52757 0.0
C777 C 0.52101 0.02432 0.52487 0.0
C778 C 0.53193 0.00915 0.55298 0.0
C779 C 0.50592 0.01361 0.49482 0.0
C780 C 0.49416 0.02893 0.4643 0.0
C781 C 0.51314 0.04479 0.44448 0.0
C782 C 0.50179 0.05949 0.41618 0.0
C783 C 0.47152 0.05835 0.40724 0.0
C784 C 0.45256 0.04245 0.42652 0.0
C785 C 0.46379 0.02774 0.4549 0.0
H786 H 0.46278 0.06975 0.38533 0.0
H787 H 0.56326 0.92897 0.66754 0.0
H788 H 0.12509 0.5149 0.56387 0.0
H789 H 0.07217 0.50375 0.56971 0.0
H790 H 0.05007 0.55589 0.48421 0.0
H791 H 0.10297 0.56712 0.47857 0.0
H792 H 0.02059 0.53383 0.58451 0.0
H793 H 0.99762 0.52552 0.43098 0.0
H794 H 0.02478 0.51786 0.37328 0.0
H795 H 0.08988 0.47464 0.43134 0.0
H796 H 0.06288 0.48176 0.48923 0.0
H797 H 0.86445 0.50981 0.55799 0.0
H798 H 0.91509 0.52625 0.56048 0.0
H799 H 0.94807 0.45872 0.5112 0.0
H800 H 0.89696 0.44444 0.50335 0.0
H801 H 0.97229 0.49218 0.47909 0.0
H802 H 0.96215 0.4823 0.61499 0.0
H803 H 0.93663 0.49041 0.67407 0.0
H804 H 0.93941 0.56863 0.65285 0.0
H805 H 0.96522 0.56095 0.5942 0.0
C806 C 0.10875 0.52413 0.54677 0.0
C807 C 0.11758 0.54232 0.52161 0.0
C808 C 0.07869 0.51787 0.55017 0.0
C809 C 0.05735 0.52914 0.52754 0.0
C810 C 0.06627 0.54711 0.50199 0.0
C811 C 0.09629 0.55358 0.49892 0.0
C812 C 0.02603 0.52093 0.52922 0.0
C813 C 0.00992 0.52466 0.56158 0.0
C814 C 0.01225 0.50917 0.49917 0.0
C815 C 0.02841 0.50443 0.46444 0.0
C816 C 0.01768 0.51432 0.43137 0.0
C817 C 0.03305 0.51008 0.39865 0.0
C818 C 0.0591 0.49585 0.39867 0.0
C819 C 0.06977 0.48574 0.43138 0.0
C820 C 0.05446 0.48991 0.46416 0.0
C821 C 0.88272 0.49839 0.54834 0.0
C822 C 0.87709 0.47525 0.53218 0.0
C823 C 0.91179 0.50765 0.55022 0.0
C824 C 0.93589 0.49355 0.53702 0.0
C825 C 0.9301 0.47005 0.52184 0.0
C826 C 0.90094 0.46144 0.51829 0.0
C827 C 0.96666 0.50391 0.5353 0.0
C828 C 0.98272 0.50109 0.50243 0.0
C829 C 0.9804 0.51643 0.56501 0.0
C830 C 0.96502 0.52097 0.60017 0.0
C831 C 0.95698 0.50114 0.62296 0.0
C832 C 0.9426 0.50567 0.65631 0.0
C833 C 0.93608 0.52996 0.66694 0.0
C834 C 0.94431 0.54981 0.64451 0.0
C835 C 0.95895 0.54539 0.61135 0.0
H836 H 0.92483 0.5334 0.69266 0.0
H837 H 0.07097 0.4926 0.37331 0.0
H838 H 0.53726 0.88776 0.02842 0.0
H839 H 0.53115 0.93281 0.03051 0.0
H840 H 0.43837 0.92483 0.00122 0.0
H841 H 0.4446 0.87992 0.99791 0.0
H842 H 0.462 0.96032 0.96284 0.0
H843 H 0.46149 0.93884 0.08991 0.0
H844 H 0.48049 0.91931 0.14636 0.0
H845 H 0.55958 0.96404 0.14063 0.0
H846 H 0.5413 0.98354 0.08378 0.0
H847 H 0.42197 0.08524 0.0056 0.0
H848 H 0.42499 0.0399 0.01021 0.0
H849 H 0.52081 0.04453 0.01793 0.0
H850 H 0.51806 0.08967 0.01285 0.0
H851 H 0.49361 0.01108 0.06927 0.0
H852 H 0.49438 0.03037 0.93999 0.0
H853 H 0.47477 0.04961 0.88366 0.0
H854 H 0.39322 0.00858 0.89526 0.0
H855 H 0.41221 0.98936 0.95201 0.0
C856 C 0.51556 0.89563 0.02253 0.0
C857 C 0.49142 0.88035 0.01298 0.0
C858 C 0.51204 0.92136 0.02393 0.0
C859 C 0.48418 0.9322 0.01648 0.0
C860 C 0.46006 0.9169 0.00706 0.0
C861 C 0.46365 0.89123 0.00525 0.0
C862 C 0.48033 0.95951 0.01743 0.0
C863 C 0.46846 0.97132 0.98641 0.0
C864 C 0.48922 0.97397 0.04791 0.0
C865 C 0.50012 0.9625 0.08238 0.0
C866 C 0.48303 0.94439 0.10054 0.0
C867 C 0.49366 0.93333 0.13262 0.0
C868 C 0.52125 0.94039 0.14702 0.0
C869 C 0.53823 0.95857 0.12942 0.0
C870 C 0.52773 0.96965 0.09728 0.0
C871 C 0.44364 0.07657 0.00846 0.0
C872 C 0.46979 0.09093 0.00861 0.0
C873 C 0.44533 0.05074 0.01108 0.0
C874 C 0.47314 0.03897 0.0143 0.0
C875 C 0.49917 0.05332 0.01553 0.0
C876 C 0.49754 0.07907 0.0124 0.0
C877 C 0.47531 0.01163 0.01479 0.0
C878 C 0.48693 -9e-05 0.04598 0.0
C879 C 0.46597 0.99719 0.98463 0.0
C880 C 0.45457 0.00866 0.95047 0.0
C881 C 0.47216 0.02563 0.93072 0.0
C882 C 0.46118 0.03649 0.89867 0.0
C883 C 0.43273 0.03038 0.88595 0.0
C884 C 0.41523 0.01333 0.90519 0.0
C885 C 0.42609 0.00244 0.93728 0.0
H886 H 0.42427 0.0388 0.86112 0.0
H887 H 0.52944 0.93181 0.17186 0.0
H888 H 0.20662 0.35369 0.97482 0.0
H889 H 0.23971 0.31775 0.979 0.0
H890 H 0.30713 0.36321 0.02986 0.0
H891 H 0.27446 0.39922 0.02568 0.0
H892 H 0.32854 0.33624 0.97216 0.0
H893 H 0.26793 0.32255 0.07976 0.0
H894 H 0.22067 0.31646 0.11312 0.0
H895 H 0.20211 0.25157 0.04895 0.0
H896 H 0.24909 0.25749 0.01483 0.0
H897 H 0.43437 0.25689 0.04162 0.0
H898 H 0.392 0.28501 0.04052 0.0
H899 H 0.33898 0.22956 0.98579 0.0
H900 H 0.38155 0.20089 0.98698 0.0
H901 H 0.30695 0.25822 0.0394 0.0
H902 H 0.3687 0.27033 0.93425 0.0
H903 H 0.41614 0.27602 0.90122 0.0
H904 H 0.43205 0.34377 0.95977 0.0
H905 H 0.38488 0.33828 0.9936 0.0
C906 C 0.22843 0.35605 0.98706 0.0
C907 C 0.23795 0.37941 -0.0003 0.0
C908 C 0.24722 0.33545 0.98958 0.0
C909 C 0.27578 0.33787 0.00481 0.0
C910 C 0.28515 0.36102 0.01796 0.0
C911 C 0.2664 0.38157 0.01559 0.0
C912 C 0.29666 0.31668 0.00554 0.0
C913 C 0.3239 0.31927 0.9871 0.0
C914 C 0.29006 0.29421 0.02392 0.0
C915 C 0.26185 0.29064 0.04445 0.0
C916 C 0.25364 0.30712 0.07252 0.0
C917 C 0.22693 0.30367 0.09162 0.0
C918 C 0.20835 0.28369 0.08308 0.0
C919 C 0.21649 0.26707 0.05548 0.0
C920 C 0.24316 0.27046 0.03628 0.0
C921 C 0.41364 0.25046 0.02971 0.0
C922 C 0.41146 0.22679 0.01383 0.0
C923 C 0.38943 0.26657 0.02919 0.0
C924 C 0.36264 0.25946 0.01249 0.0
C925 C 0.3596 0.23533 0.99867 0.0
C926 C 0.38392 0.21904 0.99933 0.0
C927 C 0.33906 0.2782 0.00695 0.0
C928 C 0.31137 0.27511 0.02418 0.0
C929 C 0.34509 0.30025 0.98727 0.0
C930 C 0.37332 0.3038 0.96664 0.0
C931 C 0.3824 0.28636 0.94027 0.0
C932 C 0.40925 0.28956 0.92138 0.0
C933 C 0.42713 0.31023 0.92843 0.0
C934 C 0.41818 0.32777 0.95434 0.0
C935 C 0.39137 0.32463 0.97335 0.0
H936 H 0.44789 0.31272 0.91375 0.0
H937 H 0.18769 0.28104 0.0979 0.0
H938 H 0.79596 0.35358 0.51624 0.0
H939 H 0.76109 0.31908 0.50744 0.0
H940 H 0.69259 0.37065 0.47473 0.0
H941 H 0.72721 0.40517 0.48289 0.0
H942 H 0.67929 0.33739 0.53639 0.0
H943 H 0.71793 0.33745 0.41229 0.0
H944 H 0.75801 0.33504 0.3662 0.0
H945 H 0.78209 0.26262 0.40522 0.0
H946 H 0.7424 0.26477 0.45195 0.0
H947 H 0.55742 0.27108 0.47937 0.0
H948 H 0.60124 0.29735 0.47362 0.0
H949 H 0.65809 0.23528 0.49945 0.0
H950 H 0.61416 0.20853 0.50544 0.0
H951 H 0.68154 0.26985 0.44406 0.0
H952 H 0.6438 0.26758 0.56565 0.0
H953 H 0.60579 0.26872 0.61438 0.0
H954 H 0.5833 0.34349 0.58484 0.0
H955 H 0.6207 0.3426 0.53529 0.0
C956 C 0.77358 0.35753 0.50672 0.0
C957 C 0.76422 0.3821 0.50053 0.0
C958 C 0.75381 0.33783 0.50156 0.0
C959 C 0.72442 0.34247 0.49051 0.0
C960 C 0.71529 0.36683 0.48322 0.0
C961 C 0.7351 0.38648 0.48784 0.0
C962 C 0.70229 0.32231 0.48969 0.0
C963 C 0.67959 0.32275 0.51601 0.0
C964 C 0.70367 0.30272 0.46405 0.0
C965 C 0.72744 0.3014 0.43591 0.0
C966 C 0.73197 0.32112 0.4113 0.0
C967 C 0.75457 0.31978 0.385 0.0
C968 C 0.77265 0.29872 0.38286 0.0
C969 C 0.7681 0.27894 0.40696 0.0
C970 C 0.74555 0.2802 0.43334 0.0
C971 C 0.5792 0.26278 0.48329 0.0
C972 C 0.58223 0.23778 0.4936 0.0
C973 C 0.60421 0.27785 0.47984 0.0
C974 C 0.6327 0.26825 0.48664 0.0
C975 C 0.63617 0.24293 0.49417 0.0
C976 C 0.61104 0.22775 0.49773 0.0
C977 C 0.65803 0.28548 0.49003 0.0
C978 C 0.68139 0.28441 0.46455 0.0
C979 C 0.65767 0.30434 0.51691 0.0
C980 C 0.63492 0.30494 0.54651 0.0
C981 C 0.63052 0.28417 0.56923 0.0
C982 C 0.60911 0.28478 0.59705 0.0
C983 C 0.59218 0.30618 0.60273 0.0
C984 C 0.59646 0.32694 0.58042 0.0
C985 C 0.61776 0.32639 0.55245 0.0
H986 H 0.57587 0.30672 0.62455 0.0
H987 H 0.79013 0.29771 0.36247 0.0
H988 H 0.78793 0.65222 0.9957 0.0
H989 H 0.74843 0.6828 0.00602 0.0
H990 H 0.68898 0.62452 0.04085 0.0
H991 H 0.72814 0.59388 0.03093 0.0
H992 H 0.66691 0.65474 0.98361 0.0
H993 H 0.71349 0.66243 0.10228 0.0
H994 H 0.75545 0.67004 0.14442 0.0
H995 H 0.76648 0.74322 0.1 0.0
H996 H 0.72482 0.73591 0.05719 0.0
H997 H 0.54047 0.71371 0.04498 0.0
H998 H 0.58692 0.69046 0.04827 0.0
H999 H 0.6364 0.75612 0.01887 0.0
H1000 H 0.58974 0.77983 0.01592 0.0
H1001 H 0.66619 0.72547 0.07057 0.0
H1002 H 0.61896 0.71915 0.95382 0.0
H1003 H 0.57688 0.71234 0.91151 0.0
H1004 H 0.56839 0.63735 0.94969 0.0
H1005 H 0.60994 0.64388 0.99289 0.0
C1006 C 0.76657 0.64594 0.006 0.0
C1007 C 0.76112 0.62057 0.01219 0.0
C1008 C 0.74411 0.66345 0.012 0.0
C1009 C 0.71588 0.65582 0.02407 0.0
C1010 C 0.71068 0.63069 0.03146 0.0
C1011 C 0.73314 0.61323 0.02585 0.0
C1012 C 0.69095 0.67364 0.02634 0.0
C1013 C 0.6666 0.67006 0.00287 0.0
C1014 C 0.69123 0.69411 0.05052 0.0
C1015 C 0.71627 0.69851 0.07622 0.0
C1016 C 0.72505 0.68006 0.10122 0.0
C1017 C 0.74874 0.68433 0.1253 0.0
C1018 C 0.76368 0.70707 0.12481 0.0
C1019 C 0.75492 0.7256 0.1003 0.0
C1020 C 0.73126 0.72141 0.07615 0.0
C1021 C 0.56122 0.72336 0.03972 0.0
C1022 C 0.56142 0.7485 0.02952 0.0
C1023 C 0.58774 0.71005 0.04172 0.0
C1024 C 0.61491 0.7215 0.0331 0.0
C1025 C 0.61555 0.74699 0.02546 0.0
C1026 C 0.58891 0.76046 0.02371 0.0
C1027 C 0.64187 0.7061 0.02853 0.0
C1028 C 0.66662 0.71022 0.05121 0.0
C1029 C 0.6422 0.68621 0.00328 0.0
C1030 C 0.61747 0.68207 0.97684 0.0
C1031 C 0.60798 0.70126 0.95342 0.0
C1032 C 0.58422 0.69746 0.92926 0.0
C1033 C 0.56998 0.67443 0.92793 0.0
C1034 C 0.57945 0.65518 0.95076 0.0
C1035 C 0.60311 0.65892 0.9751 0.0
H1036 H 0.55167 0.67147 0.90914 0.0
H1037 H 0.78201 0.71035 0.14348 0.0
H1038 H 0.44849 0.73085 0.47083 0.0
H1039 H 0.40146 0.70914 0.46104 0.0
H1040 H 0.35317 0.77216 0.50314 0.0
H1041 H 0.40031 0.79418 0.51292 0.0
H1042 H 0.34065 0.7286 0.53917 0.0
H1043 H 0.34293 0.75737 0.41688 0.0
H1044 H 0.36286 0.76639 0.35541 0.0
H1045 H 0.37667 0.68866 0.33663 0.0
H1046 H 0.35718 0.67914 0.39821 0.0
H1047 H 0.20801 0.65905 0.52237 0.0
H1048 H 0.24338 0.69266 0.51165 0.0
H1049 H 0.30627 0.6406 0.46611 0.0
H1050 H 0.27093 0.60682 0.47623 0.0
H1051 H 0.30546 0.68463 0.42796 0.0
H1052 H 0.3117 0.65735 0.55409 0.0
H1053 H 0.29148 0.64805 0.61539 0.0
H1054 H 0.26262 0.72359 0.62661 0.0
H1055 H 0.28233 0.73326 0.56511 0.0
C1056 C 0.42786 0.74024 0.4776 0.0
C1057 C 0.42808 0.76409 0.49311 0.0
C1058 C 0.40099 0.72791 0.4716 0.0
C1059 C 0.37389 0.73912 0.4812 0.0
C1060 C 0.37391 0.7633 0.49538 0.0
C1061 C 0.40082 0.77581 0.50096 0.0
C1062 C 0.34626 0.72422 0.48093 0.0
C1063 C 0.33244 0.7195 0.51466 0.0
C1064 C 0.33614 0.71193 0.44908 0.0
C1065 C 0.34867 0.71755 0.41232 0.0
C1066 C 0.35045 0.74219 0.39981 0.0
C1067 C 0.36153 0.74739 0.36485 0.0
C1068 C 0.37083 0.72809 0.34204 0.0
C1069 C 0.36926 0.70357 0.35425 0.0
C1070 C 0.35818 0.69826 0.38918 0.0
C1071 C 0.22928 0.6547 0.50987 0.0
C1072 C 0.2368 0.63014 0.50067 0.0
C1073 C 0.24942 0.67397 0.50368 0.0
C1074 C 0.27752 0.66903 0.4885 0.0
C1075 C 0.28464 0.64476 0.47785 0.0
C1076 C 0.26448 0.62546 0.48389 0.0
C1077 C 0.30037 0.68875 0.48626 0.0
C1078 C 0.31333 0.69421 0.45222 0.0
C1079 C 0.30988 0.70171 0.51784 0.0
C1080 C 0.29815 0.69595 0.55486 0.0
C1081 C 0.30083 0.67193 0.56952 0.0
C1082 C 0.2895 0.66659 0.60431 0.0
C1083 C 0.27569 0.6852 0.62483 0.0
C1084 C 0.27326 0.70919 0.61065 0.0
C1085 C 0.28451 0.71461 0.57584 0.0
H1086 H 0.26693 0.68104 0.65177 0.0
H1087 H 0.37948 0.73217 0.31503 0.0
loop_
_geom_bond_atom_site_label_1
_geom_bond_atom_site_label_2
_geom_bond_distance
_geom_bond_site_symmetry_2
_ccdc_geom_bond_type
Mn0 O5 2.095 . S
Mn0 O15 2.162 . S
Mn0 O16 2.297 . S
Mn0 O24 2.385 . S
Mn0 O25 2.209 . S
Mn0 O26 2.094 1_554 S
Mn1 O6 2.121 . S
Mn1 N8 2.257 . S
Mn1 N17 2.282 . S
Mn1 O25 2.215 1_556 S
Mn1 O27 2.117 . S
C2 O24 1.234 . S
C2 O25 1.283 . S
C3 O15 1.281 . S
C3 O16 1.236 . S
C4 O26 1.240 . S
C4 O27 1.264 . S
O5 Mn0 2.095 . S
O5 C14 1.250 1_554 S
O6 Mn1 2.121 . S
O6 C14 1.257 . S
C7 N8 1.326 . S
C7 C11 1.460 . S
C7 H13 0.929 . S
N8 Mn1 2.257 . S
N8 C7 1.326 . S
N8 C12 1.362 . S
C9 C10 1.258 . S
C9 C12 1.431 . S
C9 C29 1.449 . S
C10 C9 1.258 . S
C10 C11 1.477 . S
C10 H30 0.931 . S
C11 C7 1.460 . S
C11 C10 1.477 . S
C11 H31 0.930 . S
C12 N8 1.362 . S
C12 C9 1.431 . S
C12 C22 1.476 . S
H13 C7 0.929 . S
C14 O5 1.250 1_556 S
C14 O6 1.257 . S
O15 Mn0 2.162 . S
O15 C3 1.281 . S
O16 Mn0 2.297 . S
O16 C3 1.236 . S
N17 Mn1 2.282 . S
N17 C18 1.328 . S
N17 C22 1.318 . S
C18 N17 1.328 . S
C18 C19 1.457 . S
C18 H23 0.929 . S
C19 C18 1.457 . S
C19 C20 1.291 . S
C19 H32 0.931 . S
C20 C19 1.291 . S
C20 C21 1.373 . S
C20 H33 0.929 . S
C21 C20 1.373 . S
C21 C22 1.396 . S
C21 C28 1.403 . S
C22 C12 1.476 . S
C22 N17 1.318 . S
C22 C21 1.396 . S
H23 C18 0.929 . S
O24 Mn0 2.385 . S
O24 C2 1.234 . S
O25 Mn0 2.209 . S
O25 Mn1 2.215 1_554 S
O25 C2 1.283 . S
O26 Mn0 2.094 1_556 S
O26 C4 1.240 . S
O27 Mn1 2.117 . S
O27 C4 1.264 . S
C28 C21 1.403 . S
C28 C29 1.399 . S
C28 H34 0.929 . S
C29 C9 1.449 . S
C29 C28 1.399 . S
C29 H35 0.930 . S
H30 C10 0.931 . S
H31 C11 0.930 . S
H32 C19 0.931 . S
H33 C20 0.929 . S
H34 C28 0.929 . S
H35 C29 0.930 . S
Mn36 O41 2.095 . S
Mn36 O51 2.162 . S
Mn36 O52 2.297 . S
Mn36 O60 2.385 . S
Mn36 O61 2.209 . S
Mn36 O62 2.094 . S
Mn37 O42 2.121 . S
Mn37 N44 2.257 . S
Mn37 N53 2.282 . S
Mn37 O61 2.215 . S
Mn37 O63 2.117 . S
C38 O60 1.234 . S
C38 O61 1.283 . S
C39 O51 1.281 . S
C39 O52 1.236 . S
C40 O62 1.240 . S
C40 O63 1.264 . S
O41 Mn36 2.095 . S
O41 C50 1.250 . S
O42 Mn37 2.121 . S
O42 C50 1.258 . S
C43 N44 1.326 . S
C43 C47 1.460 . S
C43 H49 0.929 . S
N44 Mn37 2.257 . S
N44 C43 1.326 . S
N44 C48 1.362 . S
C45 C46 1.258 . S
C45 C48 1.431 . S
C45 C65 1.449 . S
C46 C45 1.258 . S
C46 C47 1.477 . S
C46 H66 0.931 . S
C47 C43 1.460 . S
C47 C46 1.477 . S
C47 H67 0.930 . S
C48 N44 1.362 . S
C48 C45 1.431 . S
C48 C58 1.476 . S
H49 C43 0.929 . S
C50 O41 1.250 . S
C50 O42 1.258 . S
O51 Mn36 2.162 . S
O51 C39 1.281 . S
O52 Mn36 2.297 . S
O52 C39 1.236 . S
N53 Mn37 2.282 . S
N53 C54 1.328 . S
N53 C58 1.318 . S
C54 N53 1.328 . S
C54 C55 1.457 . S
C54 H59 0.929 . S
C55 C54 1.457 . S
C55 C56 1.291 . S
C55 H68 0.931 . S
C56 C55 1.291 . S
C56 C57 1.373 . S
C56 H69 0.929 . S
C57 C56 1.373 . S
C57 C58 1.396 . S
C57 C64 1.403 . S
C58 C48 1.476 . S
C58 N53 1.318 . S
C58 C57 1.396 . S
H59 C54 0.929 . S
O60 Mn36 2.385 . S
O60 C38 1.234 . S
O61 Mn36 2.209 . S
O61 Mn37 2.215 . S
O61 C38 1.283 . S
O62 Mn36 2.094 . S
O62 C40 1.240 . S
O63 Mn37 2.117 . S
O63 C40 1.264 . S
C64 C57 1.403 . S
C64 C65 1.399 . S
C64 H70 0.929 . S
C65 C45 1.449 . S
C65 C64 1.399 . S
C65 H71 0.930 . S
H66 C46 0.931 . S
H67 C47 0.930 . S
H68 C55 0.931 . S
H69 C56 0.929 . S
H70 C64 0.929 . S
H71 C65 0.930 . S
Mn72 O77 2.095 . S
Mn72 O87 2.162 . S
Mn72 O88 2.297 . S
Mn72 O96 2.385 . S
Mn72 O97 2.209 . S
Mn72 O98 2.094 1_554 S
Mn73 O78 2.121 . S
Mn73 N80 2.257 . S
Mn73 N89 2.282 . S
Mn73 O97 2.215 1_556 S
Mn73 O99 2.117 . S
C74 O96 1.234 . S
C74 O97 1.283 . S
C75 O87 1.281 . S
C75 O88 1.236 . S
C76 O98 1.240 . S
C76 O99 1.264 . S
O77 Mn72 2.095 . S
O77 C86 1.250 1_554 S
O78 Mn73 2.121 . S
O78 C86 1.257 . S
C79 N80 1.326 . S
C79 C83 1.460 . S
C79 H85 0.929 . S
N80 Mn73 2.257 . S
N80 C79 1.326 . S
N80 C84 1.362 . S
C81 C82 1.258 . S
C81 C84 1.431 . S
C81 C101 1.449 . S
C82 C81 1.258 . S
C82 C83 1.477 . S
C82 H102 0.931 . S
C83 C79 1.460 . S
C83 C82 1.477 . S
C83 H103 0.930 . S
C84 N80 1.362 . S
C84 C81 1.431 . S
C84 C94 1.476 . S
H85 C79 0.929 . S
C86 O77 1.250 1_556 S
C86 O78 1.257 . S
O87 Mn72 2.162 . S
O87 C75 1.281 . S
O88 Mn72 2.297 . S
O88 C75 1.236 . S
N89 Mn73 2.282 . S
N89 C90 1.328 . S
N89 C94 1.318 . S
C90 N89 1.328 . S
C90 C91 1.457 . S
C90 H95 0.929 . S
C91 C90 1.457 . S
C91 C92 1.291 . S
C91 H104 0.931 . S
C92 C91 1.291 . S
C92 C93 1.373 . S
C92 H105 0.929 . S
C93 C92 1.373 . S
C93 C94 1.396 . S
C93 C100 1.403 . S
C94 C84 1.476 . S
C94 N89 1.318 . S
C94 C93 1.396 . S
H95 C90 0.929 . S
O96 Mn72 2.385 . S
O96 C74 1.234 . S
O97 Mn72 2.209 . S
O97 Mn73 2.215 1_554 S
O97 C74 1.283 . S
O98 Mn72 2.094 1_556 S
O98 C76 1.240 . S
O99 Mn73 2.117 . S
O99 C76 1.264 . S
C100 C93 1.403 . S
C100 C101 1.399 . S
C100 H106 0.929 . S
C101 C81 1.449 . S
C101 C100 1.399 . S
C101 H107 0.930 . S
H102 C82 0.931 . S
H103 C83 0.930 . S
H104 C91 0.931 . S
H105 C92 0.929 . S
H106 C100 0.929 . S
H107 C101 0.930 . S
Mn108 O113 2.095 . S
Mn108 O123 2.162 . S
Mn108 O124 2.297 . S
Mn108 O132 2.385 . S
Mn108 O133 2.209 . S
Mn108 O134 2.094 . S
Mn109 O114 2.121 . S
Mn109 N116 2.257 . S
Mn109 N125 2.282 . S
Mn109 O133 2.215 . S
Mn109 O135 2.117 . S
C110 O132 1.234 . S
C110 O133 1.283 . S
C111 O123 1.281 . S
C111 O124 1.236 . S
C112 O134 1.240 . S
C112 O135 1.264 . S
O113 Mn108 2.095 . S
O113 C122 1.250 . S
O114 Mn109 2.121 . S
O114 C122 1.258 . S
C115 N116 1.326 . S
C115 C119 1.460 . S
C115 H121 0.929 . S
N116 Mn109 2.257 . S
N116 C115 1.326 . S
N116 C120 1.362 . S
C117 C118 1.258 . S
C117 C120 1.431 . S
C117 C137 1.449 . S
C118 C117 1.258 . S
C118 C119 1.477 . S
C118 H138 0.931 . S
C119 C115 1.460 . S
C119 C118 1.477 . S
C119 H139 0.930 . S
C120 N116 1.362 . S
C120 C117 1.431 . S
C120 C130 1.476 . S
H121 C115 0.929 . S
C122 O113 1.250 . S
C122 O114 1.258 . S
O123 Mn108 2.162 . S
O123 C111 1.281 . S
O124 Mn108 2.297 . S
O124 C111 1.236 . S
N125 Mn109 2.282 . S
N125 C126 1.328 . S
N125 C130 1.318 . S
C126 N125 1.328 . S
C126 C127 1.457 . S
C126 H131 0.929 . S
C127 C126 1.457 . S
C127 C128 1.291 . S
C127 H140 0.931 . S
C128 C127 1.291 . S
C128 C129 1.373 . S
C128 H141 0.929 . S
C129 C128 1.373 . S
C129 C130 1.396 . S
C129 C136 1.403 . S
C130 C120 1.476 . S
C130 N125 1.318 . S
C130 C129 1.396 . S
H131 C126 0.929 . S
O132 Mn108 2.385 . S
O132 C110 1.234 . S
O133 Mn108 2.209 . S
O133 Mn109 2.215 . S
O133 C110 1.283 . S
O134 Mn108 2.094 . S
O134 C112 1.240 . S
O135 Mn109 2.117 . S
O135 C112 1.264 . S
C136 C129 1.403 . S
C136 C137 1.399 . S
C136 H142 0.929 . S
C137 C117 1.449 . S
C137 C136 1.399 . S
C137 H143 0.930 . S
H138 C118 0.931 . S
H139 C119 0.930 . S
H140 C127 0.931 . S
H141 C128 0.929 . S
H142 C136 0.929 . S
H143 C137 0.930 . S
Mn144 O149 2.095 . S
Mn144 O159 2.162 . S
Mn144 O160 2.297 . S
Mn144 O168 2.385 . S
Mn144 O169 2.209 . S
Mn144 O170 2.094 . S
Mn145 O150 2.121 . S
Mn145 N152 2.257 . S
Mn145 N161 2.282 . S
Mn145 O169 2.215 . S
Mn145 O171 2.117 . S
C146 O168 1.234 . S
C146 O169 1.283 . S
C147 O159 1.281 . S
C147 O160 1.236 . S
C148 O170 1.240 . S
C148 O171 1.264 . S
O149 Mn144 2.095 . S
O149 C158 1.250 . S
O150 Mn145 2.121 . S
O150 C158 1.258 . S
C151 N152 1.326 . S
C151 C155 1.460 . S
C151 H157 0.929 . S
N152 Mn145 2.257 . S
N152 C151 1.326 . S
N152 C156 1.362 . S
C153 C154 1.258 . S
C153 C156 1.431 . S
C153 C173 1.449 . S
C154 C153 1.258 . S
C154 C155 1.477 . S
C154 H174 0.931 . S
C155 C151 1.460 . S
C155 C154 1.477 . S
C155 H175 0.930 . S
C156 N152 1.362 . S
C156 C153 1.431 . S
C156 C166 1.476 . S
H157 C151 0.929 . S
C158 O149 1.250 . S
C158 O150 1.258 . S
O159 Mn144 2.162 . S
O159 C147 1.281 . S
O160 Mn144 2.297 . S
O160 C147 1.236 . S
N161 Mn145 2.282 . S
N161 C162 1.328 . S
N161 C166 1.318 . S
C162 N161 1.328 . S
C162 C163 1.457 . S
C162 H167 0.929 . S
C163 C162 1.457 . S
C163 C164 1.291 . S
C163 H176 0.931 . S
C164 C163 1.291 . S
C164 C165 1.373 . S
C164 H177 0.929 . S
C165 C164 1.373 . S
C165 C166 1.396 . S
C165 C172 1.403 . S
C166 C156 1.476 . S
C166 N161 1.318 . S
C166 C165 1.396 . S
H167 C162 0.929 . S
O168 Mn144 2.385 . S
O168 C146 1.234 . S
O169 Mn144 2.209 . S
O169 Mn145 2.215 . S
O169 C146 1.283 . S
O170 Mn144 2.094 . S
O170 C148 1.240 . S
O171 Mn145 2.117 . S
O171 C148 1.264 . S
C172 C165 1.403 . S
C172 C173 1.399 . S
C172 H178 0.929 . S
C173 C153 1.449 . S
C173 C172 1.399 . S
C173 H179 0.930 . S
H174 C154 0.931 . S
H175 C155 0.930 . S
H176 C163 0.931 . S
H177 C164 0.929 . S
H178 C172 0.929 . S
H179 C173 0.930 . S
Mn180 O185 2.095 . S
Mn180 O195 2.162 . S
Mn180 O196 2.297 . S
Mn180 O204 2.385 1_554 S
Mn180 O205 2.209 1_554 S
Mn180 O206 2.094 . S
Mn181 O186 2.121 . S
Mn181 N188 2.257 1_554 S
Mn181 N197 2.282 1_554 S
Mn181 O205 2.215 1_554 S
Mn181 O207 2.117 . S
C182 O204 1.234 . S
C182 O205 1.283 . S
C183 O195 1.281 . S
C183 O196 1.236 . S
C184 O206 1.240 . S
C184 O207 1.264 . S
O185 Mn180 2.095 . S
O185 C194 1.250 . S
O186 Mn181 2.121 . S
O186 C194 1.258 . S
C187 N188 1.326 1_554 S
C187 C191 1.460 1_554 S
C187 H193 0.929 . S
N188 Mn181 2.257 1_556 S
N188 C187 1.326 1_556 S
N188 C192 1.362 . S
C189 C190 1.258 . S
C189 C192 1.431 . S
C189 C209 1.449 . S
C190 C189 1.258 . S
C190 C191 1.477 . S
C190 H210 0.931 . S
C191 C187 1.460 1_556 S
C191 C190 1.477 . S
C191 H211 0.930 1_556 S
C192 N188 1.362 . S
C192 C189 1.431 . S
C192 C202 1.476 . S
H193 C187 0.929 . S
C194 O185 1.250 . S
C194 O186 1.258 . S
O195 Mn180 2.162 . S
O195 C183 1.281 . S
O196 Mn180 2.297 . S
O196 C183 1.236 . S
N197 Mn181 2.282 1_556 S
N197 C198 1.328 . S
N197 C202 1.318 . S
C198 N197 1.328 . S
C198 C199 1.457 . S
C198 H203 0.929 . S
C199 C198 1.457 . S
C199 C200 1.291 . S
C199 H212 0.931 . S
C200 C199 1.291 . S
C200 C201 1.373 . S
C200 H213 0.929 . S
C201 C200 1.373 . S
C201 C202 1.396 . S
C201 C208 1.403 . S
C202 C192 1.476 . S
C202 N197 1.318 . S
C202 C201 1.396 . S
H203 C198 0.929 . S
O204 Mn180 2.385 1_556 S
O204 C182 1.234 . S
O205 Mn180 2.209 1_556 S
O205 Mn181 2.215 1_556 S
O205 C182 1.283 . S
O206 Mn180 2.094 . S
O206 C184 1.240 . S
O207 Mn181 2.117 . S
O207 C184 1.264 . S
C208 C201 1.403 . S
C208 C209 1.399 . S
C208 H214 0.929 . S
C209 C189 1.449 . S
C209 C208 1.399 . S
C209 H215 0.930 . S
H210 C190 0.931 . S
H211 C191 0.930 1_554 S
H212 C199 0.931 . S
H213 C200 0.929 . S
H214 C208 0.929 . S
H215 C209 0.930 . S
Mn216 O221 2.095 . S
Mn216 O231 2.162 . S
Mn216 O232 2.297 . S
Mn216 O240 2.385 . S
Mn216 O241 2.209 . S
Mn216 O242 2.094 . S
Mn217 O222 2.121 . S
Mn217 N224 2.257 . S
Mn217 N233 2.282 . S
Mn217 O241 2.215 . S
Mn217 O243 2.117 . S
C218 O240 1.234 . S
C218 O241 1.283 . S
C219 O231 1.281 . S
C219 O232 1.236 . S
C220 O242 1.240 . S
C220 O243 1.264 . S
O221 Mn216 2.095 . S
O221 C230 1.250 . S
O222 Mn217 2.121 . S
O222 C230 1.258 . S
C223 N224 1.326 . S
C223 C227 1.460 . S
C223 H229 0.929 . S
N224 Mn217 2.257 . S
N224 C223 1.326 . S
N224 C228 1.362 . S
C225 C226 1.258 . S
C225 C228 1.431 . S
C225 C245 1.449 . S
C226 C225 1.258 . S
C226 C227 1.477 . S
C226 H246 0.931 . S
C227 C223 1.460 . S
C227 C226 1.477 . S
C227 H247 0.930 . S
C228 N224 1.362 . S
C228 C225 1.431 . S
C228 C238 1.476 . S
H229 C223 0.929 . S
C230 O221 1.250 . S
C230 O222 1.258 . S
O231 Mn216 2.162 . S
O231 C219 1.281 . S
O232 Mn216 2.297 . S
O232 C219 1.236 . S
N233 Mn217 2.282 . S
N233 C234 1.328 . S
N233 C238 1.318 . S
C234 N233 1.328 . S
C234 C235 1.457 . S
C234 H239 0.929 . S
C235 C234 1.457 . S
C235 C236 1.291 . S
C235 H248 0.931 . S
C236 C235 1.291 . S
C236 C237 1.373 . S
C236 H249 0.929 . S
C237 C236 1.373 . S
C237 C238 1.396 . S
C237 C244 1.403 . S
C238 C228 1.476 . S
C238 N233 1.318 . S
C238 C237 1.396 . S
H239 C234 0.929 . S
O240 Mn216 2.385 . S
O240 C218 1.234 . S
O241 Mn216 2.209 . S
O241 Mn217 2.215 . S
O241 C218 1.283 . S
O242 Mn216 2.094 . S
O242 C220 1.240 . S
O243 Mn217 2.117 . S
O243 C220 1.264 . S
C244 C237 1.403 . S
C244 C245 1.399 . S
C244 H250 0.929 . S
C245 C225 1.449 . S
C245 C244 1.399 . S
C245 H251 0.930 . S
H246 C226 0.931 . S
H247 C227 0.930 . S
H248 C235 0.931 . S
H249 C236 0.929 . S
H250 C244 0.929 . S
H251 C245 0.930 . S
Mn252 O257 2.095 . S
Mn252 O267 2.162 . S
Mn252 O268 2.297 . S
Mn252 O276 2.385 1_554 S
Mn252 O277 2.209 1_554 S
Mn252 O278 2.094 . S
Mn253 O258 2.121 . S
Mn253 N260 2.257 1_554 S
Mn253 N269 2.282 1_554 S
Mn253 O277 2.215 1_554 S
Mn253 O279 2.117 . S
C254 O276 1.234 . S
C254 O277 1.283 . S
C255 O267 1.281 . S
C255 O268 1.236 . S
C256 O278 1.240 . S
C256 O279 1.264 . S
O257 Mn252 2.095 . S
O257 C266 1.250 . S
O258 Mn253 2.121 . S
O258 C266 1.258 . S
C259 N260 1.326 1_554 S
C259 C263 1.460 1_554 S
C259 H265 0.929 . S
N260 Mn253 2.257 1_556 S
N260 C259 1.326 1_556 S
N260 C264 1.362 . S
C261 C262 1.258 . S
C261 C264 1.431 . S
C261 C281 1.449 . S
C262 C261 1.258 . S
C262 C263 1.477 . S
C262 H282 0.931 . S
C263 C259 1.460 1_556 S
C263 C262 1.477 . S
C263 H283 0.930 1_556 S
C264 N260 1.362 . S
C264 C261 1.431 . S
C264 C274 1.476 . S
H265 C259 0.929 . S
C266 O257 1.250 . S
C266 O258 1.258 . S
O267 Mn252 2.162 . S
O267 C255 1.281 . S
O268 Mn252 2.297 . S
O268 C255 1.236 . S
N269 Mn253 2.282 1_556 S
N269 C270 1.328 . S
N269 C274 1.318 . S
C270 N269 1.328 . S
C270 C271 1.457 . S
C270 H275 0.929 . S
C271 C270 1.457 . S
C271 C272 1.291 . S
C271 H284 0.931 . S
C272 C271 1.291 . S
C272 C273 1.373 . S
C272 H285 0.929 . S
C273 C272 1.373 . S
C273 C274 1.396 . S
C273 C280 1.403 . S
C274 C264 1.476 . S
C274 N269 1.318 . S
C274 C273 1.396 . S
H275 C270 0.929 . S
O276 Mn252 2.385 1_556 S
O276 C254 1.234 . S
O277 Mn252 2.209 1_556 S
O277 Mn253 2.215 1_556 S
O277 C254 1.283 . S
O278 Mn252 2.094 . S
O278 C256 1.240 . S
O279 Mn253 2.117 . S
O279 C256 1.264 . S
C280 C273 1.403 . S
C280 C281 1.399 . S
C280 H286 0.929 . S
C281 C261 1.449 . S
C281 C280 1.399 . S
C281 H287 0.930 . S
H282 C262 0.931 . S
H283 C263 0.930 1_554 S
H284 C271 0.931 . S
H285 C272 0.929 . S
H286 C280 0.929 . S
H287 C281 0.930 . S
H288 C306 0.951 . S
H289 C308 0.951 . S
H290 C310 0.950 . S
H291 C311 0.950 . S
H292 C313 0.950 . S
H293 C316 0.950 . S
H294 C317 0.950 . S
H295 C319 0.950 . S
H296 C320 0.950 . S
H297 C321 0.951 . S
H298 C323 0.951 . S
H299 C325 0.950 . S
H300 C326 0.950 . S
H301 C328 0.950 . S
H302 C331 0.950 . S
H303 C332 0.950 . S
H304 C334 0.950 . S
H305 C335 0.950 . S
C306 H288 0.951 . S
C306 C307 1.366 . S
C306 C308 1.388 . S
C307 C306 1.366 . S
C307 C311 1.385 . S
C308 H289 0.951 . S
C308 C306 1.388 . S
C308 C309 1.366 . S
C309 C308 1.366 . S
C309 C310 1.414 . S
C309 C312 1.499 . S
C310 H290 0.950 . S
C310 C309 1.414 . S
C310 C311 1.374 . S
C311 H291 0.950 . S
C311 C307 1.385 . S
C311 C310 1.374 . S
C312 C309 1.499 . S
C312 C313 1.373 . S
C312 C314 1.389 . S
C313 H292 0.950 . S
C313 C312 1.373 . S
C313 C329 1.377 . S
C314 C312 1.389 . S
C314 C315 1.524 . S
C314 C328 1.377 . S
C315 C314 1.524 . S
C315 C316 1.397 . S
C315 C320 1.363 . S
C316 H293 0.950 . S
C316 C315 1.397 . S
C316 C317 1.334 . S
C317 H294 0.950 . S
C317 C316 1.334 . S
C317 C318 1.287 . S
C318 C317 1.287 . S
C318 C319 1.524 . S
C318 H337 0.913 . S
C319 H295 0.950 . S
C319 C318 1.524 . S
C319 C320 1.415 . S
C320 H296 0.950 . S
C320 C315 1.363 . S
C320 C319 1.415 . S
C321 H297 0.951 . S
C321 C322 1.366 . S
C321 C323 1.388 . S
C322 C321 1.366 . S
C322 C326 1.385 . S
C323 H298 0.951 . S
C323 C321 1.388 . S
C323 C324 1.366 . S
C324 C323 1.366 . S
C324 C325 1.414 . S
C324 C327 1.499 . S
C325 H299 0.950 . S
C325 C324 1.414 . S
C325 C326 1.374 . S
C326 H300 0.950 . S
C326 C322 1.385 . S
C326 C325 1.374 . S
C327 C324 1.499 . S
C327 C328 1.373 . S
C327 C329 1.389 . S
C328 H301 0.950 . S
C328 C314 1.377 . S
C328 C327 1.373 . S
C329 C313 1.377 . S
C329 C327 1.389 . S
C329 C330 1.524 . S
C330 C329 1.524 . S
C330 C331 1.397 . S
C330 C335 1.363 . S
C331 H302 0.950 . S
C331 C330 1.397 . S
C331 C332 1.334 . S
C332 H303 0.950 . S
C332 C331 1.334 . S
C332 C333 1.287 . S
C333 C332 1.287 . S
C333 C334 1.524 . S
C333 H336 0.999 . S
C334 H304 0.950 . S
C334 C333 1.524 . S
C334 C335 1.415 . S
C335 H305 0.950 . S
C335 C330 1.363 . S
C335 C334 1.415 . S
H336 C333 0.999 . S
H337 C318 0.913 . S
H338 C356 0.951 . S
H339 C358 0.951 . S
H340 C360 0.950 . S
H341 C361 0.950 . S
H342 C363 0.950 . S
H343 C366 0.950 . S
H344 C367 0.950 . S
H345 C369 0.950 . S
H346 C370 0.950 . S
H347 C371 0.951 . S
H348 C373 0.951 . S
H349 C375 0.950 . S
H350 C376 0.950 . S
H351 C378 0.950 . S
H352 C381 0.950 . S
H353 C382 0.950 . S
H354 C384 0.950 . S
H355 C385 0.950 . S
C356 H338 0.951 . S
C356 C357 1.366 . S
C356 C358 1.388 . S
C357 C356 1.366 . S
C357 C361 1.385 . S
C358 H339 0.951 . S
C358 C356 1.388 . S
C358 C359 1.366 . S
C359 C358 1.366 . S
C359 C360 1.414 . S
C359 C362 1.499 . S
C360 H340 0.950 . S
C360 C359 1.414 . S
C360 C361 1.374 . S
C361 H341 0.950 . S
C361 C357 1.385 . S
C361 C360 1.374 . S
C362 C359 1.499 . S
C362 C363 1.373 . S
C362 C364 1.389 . S
C363 H342 0.950 . S
C363 C362 1.373 . S
C363 C379 1.377 . S
C364 C362 1.389 . S
C364 C365 1.524 . S
C364 C378 1.377 . S
C365 C364 1.524 . S
C365 C366 1.397 . S
C365 C370 1.363 . S
C366 H343 0.950 . S
C366 C365 1.397 . S
C366 C367 1.334 . S
C367 H344 0.950 . S
C367 C366 1.334 . S
C367 C368 1.287 . S
C368 C367 1.287 . S
C368 C369 1.524 . S
C368 H387 0.913 . S
C369 H345 0.950 . S
C369 C368 1.524 . S
C369 C370 1.415 . S
C370 H346 0.950 . S
C370 C365 1.363 . S
C370 C369 1.415 . S
C371 H347 0.951 . S
C371 C372 1.366 . S
C371 C373 1.388 . S
C372 C371 1.366 . S
C372 C376 1.385 . S
C373 H348 0.951 . S
C373 C371 1.388 . S
C373 C374 1.366 . S
C374 C373 1.366 . S
C374 C375 1.414 . S
C374 C377 1.499 . S
C375 H349 0.950 . S
C375 C374 1.414 . S
C375 C376 1.374 . S
C376 H350 0.950 . S
C376 C372 1.385 . S
C376 C375 1.374 . S
C377 C374 1.499 . S
C377 C378 1.373 . S
C377 C379 1.389 . S
C378 H351 0.950 . S
C378 C364 1.377 . S
C378 C377 1.373 . S
C379 C363 1.377 . S
C379 C377 1.389 . S
C379 C380 1.524 . S
C380 C379 1.524 . S
C380 C381 1.397 . S
C380 C385 1.363 . S
C381 H352 0.950 . S
C381 C380 1.397 . S
C381 C382 1.334 . S
C382 H353 0.950 . S
C382 C381 1.334 . S
C382 C383 1.287 . S
C383 C382 1.287 . S
C383 C384 1.524 . S
C383 H386 0.999 . S
C384 H354 0.950 . S
C384 C383 1.524 . S
C384 C385 1.415 . S
C385 H355 0.950 . S
C385 C380 1.363 . S
C385 C384 1.415 . S
H386 C383 0.999 . S
H387 C368 0.913 . S
H388 C406 0.951 . S
H389 C408 0.951 . S
H390 C410 0.950 . S
H391 C411 0.950 . S
H392 C413 0.950 . S
H393 C416 0.950 . S
H394 C417 0.950 . S
H395 C419 0.950 . S
H396 C420 0.950 . S
H397 C421 0.951 . S
H398 C423 0.951 . S
H399 C425 0.950 . S
H400 C426 0.950 . S
H401 C428 0.950 . S
H402 C431 0.950 . S
H403 C432 0.950 . S
H404 C434 0.950 . S
H405 C435 0.950 . S
C406 H388 0.951 . S
C406 C407 1.366 . S
C406 C408 1.388 . S
C407 C406 1.366 . S
C407 C411 1.385 . S
C408 H389 0.951 . S
C408 C406 1.388 . S
C408 C409 1.366 . S
C409 C408 1.366 . S
C409 C410 1.414 . S
C409 C412 1.499 . S
C410 H390 0.950 . S
C410 C409 1.414 . S
C410 C411 1.374 . S
C411 H391 0.950 . S
C411 C407 1.385 . S
C411 C410 1.374 . S
C412 C409 1.499 . S
C412 C413 1.373 . S
C412 C414 1.389 . S
C413 H392 0.950 . S
C413 C412 1.373 . S
C413 C429 1.377 . S
C414 C412 1.389 . S
C414 C415 1.524 . S
C414 C428 1.377 . S
C415 C414 1.524 . S
C415 C416 1.397 . S
C415 C420 1.363 . S
C416 H393 0.950 . S
C416 C415 1.397 . S
C416 C417 1.334 . S
C417 H394 0.950 . S
C417 C416 1.334 . S
C417 C418 1.287 . S
C418 C417 1.287 . S
C418 C419 1.524 . S
C418 H437 0.913 . S
C419 H395 0.950 . S
C419 C418 1.524 . S
C419 C420 1.415 . S
C420 H396 0.950 . S
C420 C415 1.363 . S
C420 C419 1.415 . S
C421 H397 0.951 . S
C421 C422 1.366 . S
C421 C423 1.388 . S
C422 C421 1.366 . S
C422 C426 1.385 . S
C423 H398 0.951 . S
C423 C421 1.388 . S
C423 C424 1.366 . S
C424 C423 1.366 . S
C424 C425 1.414 . S
C424 C427 1.499 . S
C425 H399 0.950 . S
C425 C424 1.414 . S
C425 C426 1.374 . S
C426 H400 0.950 . S
C426 C422 1.385 . S
C426 C425 1.374 . S
C427 C424 1.499 . S
C427 C428 1.373 . S
C427 C429 1.389 . S
C428 H401 0.950 . S
C428 C414 1.377 . S
C428 C427 1.373 . S
C429 C413 1.377 . S
C429 C427 1.389 . S
C429 C430 1.524 . S
C430 C429 1.524 . S
C430 C431 1.397 . S
C430 C435 1.363 . S
C431 H402 0.950 . S
C431 C430 1.397 . S
C431 C432 1.334 . S
C432 H403 0.950 . S
C432 C431 1.334 . S
C432 C433 1.287 . S
C433 C432 1.287 . S
C433 C434 1.524 . S
C433 H436 0.999 . S
C434 H404 0.950 . S
C434 C433 1.524 . S
C434 C435 1.415 . S
C435 H405 0.950 . S
C435 C430 1.363 . S
C435 C434 1.415 . S
H436 C433 0.999 . S
H437 C418 0.913 . S
H438 C456 0.951 . S
H439 C458 0.951 . S
H440 C460 0.950 . S
H441 C461 0.950 . S
H442 C463 0.950 . S
H443 C466 0.950 . S
H444 C467 0.950 . S
H445 C469 0.950 . S
H446 C470 0.950 . S
H447 C471 0.951 . S
H448 C473 0.951 . S
H449 C475 0.950 . S
H450 C476 0.950 . S
H451 C478 0.950 . S
H452 C481 0.950 . S
H453 C482 0.950 . S
H454 C484 0.950 . S
H455 C485 0.950 . S
C456 H438 0.951 . S
C456 C457 1.366 . S
C456 C458 1.388 . S
C457 C456 1.366 . S
C457 C461 1.385 . S
C458 H439 0.951 . S
C458 C456 1.388 . S
C458 C459 1.366 . S
C459 C458 1.366 . S
C459 C460 1.414 . S
C459 C462 1.499 . S
C460 H440 0.950 . S
C460 C459 1.414 . S
C460 C461 1.374 . S
C461 H441 0.950 . S
C461 C457 1.385 . S
C461 C460 1.374 . S
C462 C459 1.499 . S
C462 C463 1.373 . S
C462 C464 1.389 . S
C463 H442 0.950 . S
C463 C462 1.373 . S
C463 C479 1.377 . S
C464 C462 1.389 . S
C464 C465 1.524 . S
C464 C478 1.377 . S
C465 C464 1.524 . S
C465 C466 1.397 . S
C465 C470 1.363 . S
C466 H443 0.950 . S
C466 C465 1.397 . S
C466 C467 1.334 . S
C467 H444 0.950 . S
C467 C466 1.334 . S
C467 C468 1.287 . S
C468 C467 1.287 . S
C468 C469 1.524 . S
C468 H487 0.913 . S
C469 H445 0.950 . S
C469 C468 1.524 . S
C469 C470 1.415 . S
C470 H446 0.950 . S
C470 C465 1.363 . S
C470 C469 1.415 . S
C471 H447 0.951 . S
C471 C472 1.366 . S
C471 C473 1.388 . S
C472 C471 1.366 . S
C472 C476 1.385 . S
C473 H448 0.951 . S
C473 C471 1.388 . S
C473 C474 1.366 . S
C474 C473 1.366 . S
C474 C475 1.414 . S
C474 C477 1.499 . S
C475 H449 0.950 . S
C475 C474 1.414 . S
C475 C476 1.374 . S
C476 H450 0.950 . S
C476 C472 1.385 . S
C476 C475 1.374 . S
C477 C474 1.499 . S
C477 C478 1.373 . S
C477 C479 1.389 . S
C478 H451 0.950 . S
C478 C464 1.377 . S
C478 C477 1.373 . S
C479 C463 1.377 . S
C479 C477 1.389 . S
C479 C480 1.524 . S
C480 C479 1.524 . S
C480 C481 1.397 . S
C480 C485 1.363 . S
C481 H452 0.950 . S
C481 C480 1.397 . S
C481 C482 1.334 . S
C482 H453 0.950 . S
C482 C481 1.334 . S
C482 C483 1.287 . S
C483 C482 1.287 . S
C483 C484 1.524 . S
C483 H486 0.999 . S
C484 H454 0.950 . S
C484 C483 1.524 . S
C484 C485 1.415 . S
C485 H455 0.950 . S
C485 C480 1.363 . S
C485 C484 1.415 . S
H486 C483 0.999 . S
H487 C468 0.913 . S
H488 C506 0.951 . S
H489 C508 0.951 . S
H490 C510 0.950 . S
H491 C511 0.950 . S
H492 C513 0.950 . S
H493 C516 0.950 . S
H494 C517 0.950 . S
H495 C519 0.950 . S
H496 C520 0.950 . S
H497 C521 0.951 . S
H498 C523 0.951 . S
H499 C525 0.950 . S
H500 C526 0.950 . S
H501 C528 0.950 . S
H502 C531 0.950 . S
H503 C532 0.950 . S
H504 C534 0.950 . S
H505 C535 0.950 . S
C506 H488 0.951 . S
C506 C507 1.366 . S
C506 C508 1.388 . S
C507 C506 1.366 . S
C507 C511 1.385 . S
C508 H489 0.951 . S
C508 C506 1.388 . S
C508 C509 1.366 . S
C509 C508 1.366 . S
C509 C510 1.414 . S
C509 C512 1.499 . S
C510 H490 0.950 . S
C510 C509 1.414 . S
C510 C511 1.374 . S
C511 H491 0.950 . S
C511 C507 1.385 . S
C511 C510 1.374 . S
C512 C509 1.499 . S
C512 C513 1.373 . S
C512 C514 1.389 . S
C513 H492 0.950 . S
C513 C512 1.373 . S
C513 C529 1.377 . S
C514 C512 1.389 . S
C514 C515 1.524 . S
C514 C528 1.377 . S
C515 C514 1.524 . S
C515 C516 1.397 . S
C515 C520 1.363 . S
C516 H493 0.950 . S
C516 C515 1.397 . S
C516 C517 1.334 . S
C517 H494 0.950 . S
C517 C516 1.334 . S
C517 C518 1.287 . S
C518 C517 1.287 . S
C518 C519 1.524 . S
C518 H537 0.913 . S
C519 H495 0.950 . S
C519 C518 1.524 . S
C519 C520 1.415 . S
C520 H496 0.950 . S
C520 C515 1.363 . S
C520 C519 1.415 . S
C521 H497 0.951 . S
C521 C522 1.366 . S
C521 C523 1.388 . S
C522 C521 1.366 . S
C522 C526 1.385 . S
C523 H498 0.951 . S
C523 C521 1.388 . S
C523 C524 1.366 . S
C524 C523 1.366 . S
C524 C525 1.414 . S
C524 C527 1.499 . S
C525 H499 0.950 . S
C525 C524 1.414 . S
C525 C526 1.374 . S
C526 H500 0.950 . S
C526 C522 1.385 . S
C526 C525 1.374 . S
C527 C524 1.499 . S
C527 C528 1.373 . S
C527 C529 1.389 . S
C528 H501 0.950 . S
C528 C514 1.377 . S
C528 C527 1.373 . S
C529 C513 1.377 . S
C529 C527 1.389 . S
C529 C530 1.524 . S
C530 C529 1.524 . S
C530 C531 1.397 . S
C530 C535 1.363 . S
C531 H502 0.950 . S
C531 C530 1.397 . S
C531 C532 1.334 . S
C532 H503 0.950 . S
C532 C531 1.334 . S
C532 C533 1.287 . S
C533 C532 1.287 . S
C533 C534 1.524 . S
C533 H536 0.999 . S
C534 H504 0.950 . S
C534 C533 1.524 . S
C534 C535 1.415 . S
C535 H505 0.950 . S
C535 C530 1.363 . S
C535 C534 1.415 . S
H536 C533 0.999 . S
H537 C518 0.913 . S
H538 C556 0.951 . S
H539 C558 0.951 . S
H540 C560 0.950 . S
H541 C561 0.950 . S
H542 C563 0.950 . S
H543 C566 0.950 . S
H544 C567 0.950 . S
H545 C569 0.950 . S
H546 C570 0.950 . S
H547 C571 0.951 . S
H548 C573 0.951 . S
H549 C575 0.950 . S
H550 C576 0.950 . S
H551 C578 0.950 . S
H552 C581 0.950 . S
H553 C582 0.950 . S
H554 C584 0.950 . S
H555 C585 0.950 . S
C556 H538 0.951 . S
C556 C557 1.366 . S
C556 C558 1.388 . S
C557 C556 1.366 . S
C557 C561 1.385 . S
C558 H539 0.951 . S
C558 C556 1.388 . S
C558 C559 1.366 . S
C559 C558 1.366 . S
C559 C560 1.414 . S
C559 C562 1.499 . S
C560 H540 0.950 . S
C560 C559 1.414 . S
C560 C561 1.374 . S
C561 H541 0.950 . S
C561 C557 1.385 . S
C561 C560 1.374 . S
C562 C559 1.499 . S
C562 C563 1.373 . S
C562 C564 1.389 . S
C563 H542 0.950 . S
C563 C562 1.373 . S
C563 C579 1.377 . S
C564 C562 1.389 . S
C564 C565 1.524 . S
C564 C578 1.377 . S
C565 C564 1.524 . S
C565 C566 1.397 . S
C565 C570 1.363 . S
C566 H543 0.950 . S
C566 C565 1.397 . S
C566 C567 1.334 . S
C567 H544 0.950 . S
C567 C566 1.334 . S
C567 C568 1.287 . S
C568 C567 1.287 . S
C568 C569 1.524 . S
C568 H587 0.913 . S
C569 H545 0.950 . S
C569 C568 1.524 . S
C569 C570 1.415 . S
C570 H546 0.950 . S
C570 C565 1.363 . S
C570 C569 1.415 . S
C571 H547 0.951 . S
C571 C572 1.366 . S
C571 C573 1.388 . S
C572 C571 1.366 . S
C572 C576 1.385 . S
C573 H548 0.951 . S
C573 C571 1.388 . S
C573 C574 1.366 . S
C574 C573 1.366 . S
C574 C575 1.414 . S
C574 C577 1.499 . S
C575 H549 0.950 . S
C575 C574 1.414 . S
C575 C576 1.374 . S
C576 H550 0.950 . S
C576 C572 1.385 . S
C576 C575 1.374 . S
C577 C574 1.499 . S
C577 C578 1.373 . S
C577 C579 1.389 . S
C578 H551 0.950 . S
C578 C564 1.377 . S
C578 C577 1.373 . S
C579 C563 1.377 . S
C579 C577 1.389 . S
C579 C580 1.524 . S
C580 C579 1.524 . S
C580 C581 1.397 . S
C580 C585 1.363 . S
C581 H552 0.950 . S
C581 C580 1.397 . S
C581 C582 1.334 . S
C582 H553 0.950 . S
C582 C581 1.334 . S
C582 C583 1.287 . S
C583 C582 1.287 . S
C583 C584 1.524 . S
C583 H586 0.999 . S
C584 H554 0.950 . S
C584 C583 1.524 . S
C584 C585 1.415 . S
C585 H555 0.950 . S
C585 C580 1.363 . S
C585 C584 1.415 . S
H586 C583 0.999 . S
H587 C568 0.913 . S
H588 C606 0.951 . S
H589 C608 0.951 . S
H590 C610 0.950 . S
H591 C611 0.950 . S
H592 C613 0.950 . S
H593 C616 0.950 . S
H594 C617 0.950 . S
H595 C619 0.950 . S
H596 C620 0.950 . S
H597 C621 0.951 . S
H598 C623 0.951 . S
H599 C625 0.950 . S
H600 C626 0.950 . S
H601 C628 0.950 . S
H602 C631 0.950 . S
H603 C632 0.950 . S
H604 C634 0.950 . S
H605 C635 0.950 . S
C606 H588 0.951 . S
C606 C607 1.366 . S
C606 C608 1.388 . S
C607 C606 1.366 . S
C607 C611 1.385 . S
C608 H589 0.951 . S
C608 C606 1.388 . S
C608 C609 1.366 . S
C609 C608 1.366 . S
C609 C610 1.414 . S
C609 C612 1.499 . S
C610 H590 0.950 . S
C610 C609 1.414 . S
C610 C611 1.374 . S
C611 H591 0.950 . S
C611 C607 1.385 . S
C611 C610 1.374 . S
C612 C609 1.499 . S
C612 C613 1.373 . S
C612 C614 1.389 . S
C613 H592 0.950 . S
C613 C612 1.373 . S
C613 C629 1.377 . S
C614 C612 1.389 . S
C614 C615 1.524 . S
C614 C628 1.377 . S
C615 C614 1.524 . S
C615 C616 1.397 . S
C615 C620 1.363 . S
C616 H593 0.950 . S
C616 C615 1.397 . S
C616 C617 1.334 . S
C617 H594 0.950 . S
C617 C616 1.334 . S
C617 C618 1.287 . S
C618 C617 1.287 . S
C618 C619 1.524 . S
C618 H637 0.913 . S
C619 H595 0.950 . S
C619 C618 1.524 . S
C619 C620 1.415 . S
C620 H596 0.950 . S
C620 C615 1.363 . S
C620 C619 1.415 . S
C621 H597 0.951 . S
C621 C622 1.366 . S
C621 C623 1.388 . S
C622 C621 1.366 . S
C622 C626 1.385 . S
C623 H598 0.951 . S
C623 C621 1.388 . S
C623 C624 1.366 . S
C624 C623 1.366 . S
C624 C625 1.414 . S
C624 C627 1.499 . S
C625 H599 0.950 . S
C625 C624 1.414 . S
C625 C626 1.374 . S
C626 H600 0.950 . S
C626 C622 1.385 . S
C626 C625 1.374 . S
C627 C624 1.499 . S
C627 C628 1.373 . S
C627 C629 1.389 . S
C628 H601 0.950 . S
C628 C614 1.377 . S
C628 C627 1.373 . S
C629 C613 1.377 . S
C629 C627 1.389 . S
C629 C630 1.524 . S
C630 C629 1.524 . S
C630 C631 1.397 . S
C630 C635 1.363 . S
C631 H602 0.950 . S
C631 C630 1.397 . S
C631 C632 1.334 . S
C632 H603 0.950 . S
C632 C631 1.334 . S
C632 C633 1.287 . S
C633 C632 1.287 . S
C633 C634 1.524 . S
C633 H636 0.999 . S
C634 H604 0.950 . S
C634 C633 1.524 . S
C634 C635 1.415 . S
C635 H605 0.950 . S
C635 C630 1.363 . S
C635 C634 1.415 . S
H636 C633 0.999 . S
H637 C618 0.913 . S
H638 C656 0.951 . S
H639 C658 0.951 . S
H640 C660 0.950 . S
H641 C661 0.950 . S
H642 C663 0.950 . S
H643 C666 0.950 . S
H644 C667 0.950 . S
H645 C669 0.950 . S
H646 C670 0.950 . S
H647 C671 0.951 . S
H648 C673 0.951 . S
H649 C675 0.950 . S
H650 C676 0.950 . S
H651 C678 0.950 . S
H652 C681 0.950 . S
H653 C682 0.950 . S
H654 C684 0.950 . S
H655 C685 0.950 . S
C656 H638 0.951 . S
C656 C657 1.366 . S
C656 C658 1.388 . S
C657 C656 1.366 . S
C657 C661 1.385 . S
C658 H639 0.951 . S
C658 C656 1.388 . S
C658 C659 1.366 . S
C659 C658 1.366 . S
C659 C660 1.414 . S
C659 C662 1.499 . S
C660 H640 0.950 . S
C660 C659 1.414 . S
C660 C661 1.374 . S
C661 H641 0.950 . S
C661 C657 1.385 . S
C661 C660 1.374 . S
C662 C659 1.499 . S
C662 C663 1.373 . S
C662 C664 1.389 . S
C663 H642 0.950 . S
C663 C662 1.373 . S
C663 C679 1.377 . S
C664 C662 1.389 . S
C664 C665 1.524 . S
C664 C678 1.377 . S
C665 C664 1.524 . S
C665 C666 1.397 . S
C665 C670 1.363 . S
C666 H643 0.950 . S
C666 C665 1.397 . S
C666 C667 1.334 . S
C667 H644 0.950 . S
C667 C666 1.334 . S
C667 C668 1.287 . S
C668 C667 1.287 . S
C668 C669 1.524 . S
C668 H687 0.913 . S
C669 H645 0.950 . S
C669 C668 1.524 . S
C669 C670 1.415 . S
C670 H646 0.950 . S
C670 C665 1.363 . S
C670 C669 1.415 . S
C671 H647 0.951 . S
C671 C672 1.366 . S
C671 C673 1.388 . S
C672 C671 1.366 . S
C672 C676 1.385 . S
C673 H648 0.951 . S
C673 C671 1.388 . S
C673 C674 1.366 . S
C674 C673 1.366 . S
C674 C675 1.414 . S
C674 C677 1.499 . S
C675 H649 0.950 . S
C675 C674 1.414 . S
C675 C676 1.374 . S
C676 H650 0.950 . S
C676 C672 1.385 . S
C676 C675 1.374 . S
C677 C674 1.499 . S
C677 C678 1.373 . S
C677 C679 1.389 . S
C678 H651 0.950 . S
C678 C664 1.377 . S
C678 C677 1.373 . S
C679 C663 1.377 . S
C679 C677 1.389 . S
C679 C680 1.524 . S
C680 C679 1.524 . S
C680 C681 1.397 . S
C680 C685 1.363 . S
C681 H652 0.950 . S
C681 C680 1.397 . S
C681 C682 1.334 . S
C682 H653 0.950 . S
C682 C681 1.334 . S
C682 C683 1.287 . S
C683 C682 1.287 . S
C683 C684 1.524 . S
C683 H686 0.999 . S
C684 H654 0.950 . S
C684 C683 1.524 . S
C684 C685 1.415 . S
C685 H655 0.950 . S
C685 C680 1.363 . S
C685 C684 1.415 . S
H686 C683 0.999 . S
H687 C668 0.913 . S
H688 C706 0.951 1_556 S
H689 C708 0.951 1_556 S
H690 C710 0.950 . S
H691 C711 0.950 . S
H692 C713 0.950 . S
H693 C716 0.950 . S
H694 C717 0.950 . S
H695 C719 0.950 . S
H696 C720 0.950 1_455 S
H697 C721 0.951 . S
H698 C723 0.951 . S
H699 C725 0.950 1_556 S
H700 C726 0.950 1_556 S
H701 C728 0.950 . S
H702 C731 0.950 . S
H703 C732 0.950 . S
H704 C734 0.950 . S
H705 C735 0.950 1_655 S
C706 H688 0.951 1_554 S
C706 C707 1.366 . S
C706 C708 1.388 . S
C707 C706 1.366 . S
C707 C711 1.385 . S
C708 H689 0.951 1_554 S
C708 C706 1.388 . S
C708 C709 1.366 . S
C709 C708 1.366 . S
C709 C710 1.414 . S
C709 C712 1.499 . S
C710 H690 0.950 . S
C710 C709 1.414 . S
C710 C711 1.374 . S
C711 H691 0.950 . S
C711 C707 1.385 . S
C711 C710 1.374 . S
C712 C709 1.499 . S
C712 C713 1.373 . S
C712 C714 1.389 1_554 S
C713 H692 0.950 . S
C713 C712 1.373 . S
C713 C729 1.377 1_655 S
C714 C712 1.389 1_556 S
C714 C715 1.524 . S
C714 C728 1.377 1_655 S
C715 C714 1.524 . S
C715 C716 1.397 . S
C715 C720 1.363 . S
C716 H693 0.950 . S
C716 C715 1.397 . S
C716 C717 1.334 . S
C717 H694 0.950 . S
C717 C716 1.334 . S
C717 C718 1.287 . S
C718 C717 1.287 . S
C718 C719 1.524 . S
C718 H737 0.913 . S
C719 H695 0.950 . S
C719 C718 1.524 . S
C719 C720 1.415 . S
C720 H696 0.950 1_655 S
C720 C715 1.363 . S
C720 C719 1.415 . S
C721 H697 0.951 . S
C721 C722 1.366 . S
C721 C723 1.388 . S
C722 C721 1.366 . S
C722 C726 1.385 . S
C723 H698 0.951 . S
C723 C721 1.388 . S
C723 C724 1.366 . S
C724 C723 1.366 . S
C724 C725 1.414 . S
C724 C727 1.499 . S
C725 H699 0.950 1_554 S
C725 C724 1.414 . S
C725 C726 1.374 . S
C726 H700 0.950 1_554 S
C726 C722 1.385 . S
C726 C725 1.374 . S
C727 C724 1.499 . S
C727 C728 1.373 1_554 S
C727 C729 1.389 . S
C728 H701 0.950 . S
C728 C714 1.377 1_455 S
C728 C727 1.373 1_556 S
C729 C713 1.377 1_455 S
C729 C727 1.389 . S
C729 C730 1.524 . S
C730 C729 1.524 . S
C730 C731 1.397 . S
C730 C735 1.363 . S
C731 H702 0.950 . S
C731 C730 1.397 . S
C731 C732 1.334 . S
C732 H703 0.950 . S
C732 C731 1.334 . S
C732 C733 1.287 . S
C733 C732 1.287 . S
C733 C734 1.524 . S
C733 H736 0.999 . S
C734 H704 0.950 . S
C734 C733 1.524 . S
C734 C735 1.415 . S
C735 H705 0.950 1_455 S
C735 C730 1.363 . S
C735 C734 1.415 . S
H736 C733 0.999 . S
H737 C718 0.913 . S
H738 C756 0.951 . S
H739 C758 0.951 . S
H740 C760 0.950 . S
H741 C761 0.950 . S
H742 C763 0.950 . S
H743 C766 0.950 . S
H744 C767 0.950 . S
H745 C769 0.950 . S
H746 C770 0.950 . S
H747 C771 0.951 . S
H748 C773 0.951 . S
H749 C775 0.950 . S
H750 C776 0.950 . S
H751 C778 0.950 . S
H752 C781 0.950 . S
H753 C782 0.950 . S
H754 C784 0.950 . S
H755 C785 0.950 . S
C756 H738 0.951 . S
C756 C757 1.366 . S
C756 C758 1.388 . S
C757 C756 1.366 . S
C757 C761 1.385 . S
C758 H739 0.951 . S
C758 C756 1.388 . S
C758 C759 1.366 . S
C759 C758 1.366 . S
C759 C760 1.414 . S
C759 C762 1.499 . S
C760 H740 0.950 . S
C760 C759 1.414 . S
C760 C761 1.374 . S
C761 H741 0.950 . S
C761 C757 1.385 . S
C761 C760 1.374 . S
C762 C759 1.499 . S
C762 C763 1.373 . S
C762 C764 1.389 . S
C763 H742 0.950 . S
C763 C762 1.373 . S
C763 C779 1.377 1_565 S
C764 C762 1.389 . S
C764 C765 1.524 . S
C764 C778 1.377 1_565 S
C765 C764 1.524 . S
C765 C766 1.397 . S
C765 C770 1.363 . S
C766 H743 0.950 . S
C766 C765 1.397 . S
C766 C767 1.334 . S
C767 H744 0.950 . S
C767 C766 1.334 . S
C767 C768 1.287 . S
C768 C767 1.287 . S
C768 C769 1.524 . S
C768 H787 0.913 . S
C769 H745 0.950 . S
C769 C768 1.524 . S
C769 C770 1.415 . S
C770 H746 0.950 . S
C770 C765 1.363 . S
C770 C769 1.415 . S
C771 H747 0.951 . S
C771 C772 1.366 . S
C771 C773 1.388 . S
C772 C771 1.366 . S
C772 C776 1.385 . S
C773 H748 0.951 . S
C773 C771 1.388 . S
C773 C774 1.366 . S
C774 C773 1.366 . S
C774 C775 1.414 . S
C774 C777 1.499 . S
C775 H749 0.950 . S
C775 C774 1.414 . S
C775 C776 1.374 . S
C776 H750 0.950 . S
C776 C772 1.385 . S
C776 C775 1.374 . S
C777 C774 1.499 . S
C777 C778 1.373 . S
C777 C779 1.389 . S
C778 H751 0.950 . S
C778 C764 1.377 1_545 S
C778 C777 1.373 . S
C779 C763 1.377 1_545 S
C779 C777 1.389 . S
C779 C780 1.524 . S
C780 C779 1.524 . S
C780 C781 1.397 . S
C780 C785 1.363 . S
C781 H752 0.950 . S
C781 C780 1.397 . S
C781 C782 1.334 . S
C782 H753 0.950 . S
C782 C781 1.334 . S
C782 C783 1.287 . S
C783 C782 1.287 . S
C783 C784 1.524 . S
C783 H786 0.999 . S
C784 H754 0.950 . S
C784 C783 1.524 . S
C784 C785 1.415 . S
C785 H755 0.950 . S
C785 C780 1.363 . S
C785 C784 1.415 . S
H786 C783 0.999 . S
H787 C768 0.913 . S
H788 C806 0.951 . S
H789 C808 0.951 . S
H790 C810 0.950 . S
H791 C811 0.950 . S
H792 C813 0.950 . S
H793 C816 0.950 . S
H794 C817 0.950 . S
H795 C819 0.950 . S
H796 C820 0.950 . S
H797 C821 0.951 . S
H798 C823 0.951 . S
H799 C825 0.950 . S
H800 C826 0.950 . S
H801 C828 0.950 . S
H802 C831 0.950 . S
H803 C832 0.950 . S
H804 C834 0.950 . S
H805 C835 0.950 . S
C806 H788 0.951 . S
C806 C807 1.366 . S
C806 C808 1.388 . S
C807 C806 1.366 . S
C807 C811 1.385 . S
C808 H789 0.951 . S
C808 C806 1.388 . S
C808 C809 1.366 . S
C809 C808 1.366 . S
C809 C810 1.414 . S
C809 C812 1.499 . S
C810 H790 0.950 . S
C810 C809 1.414 . S
C810 C811 1.374 . S
C811 H791 0.950 . S
C811 C807 1.385 . S
C811 C810 1.374 . S
C812 C809 1.499 . S
C812 C813 1.373 . S
C812 C814 1.389 . S
C813 H792 0.950 . S
C813 C812 1.373 . S
C813 C829 1.377 1_455 S
C814 C812 1.389 . S
C814 C815 1.524 . S
C814 C828 1.377 1_455 S
C815 C814 1.524 . S
C815 C816 1.397 . S
C815 C820 1.363 . S
C816 H793 0.950 . S
C816 C815 1.397 . S
C816 C817 1.334 . S
C817 H794 0.950 . S
C817 C816 1.334 . S
C817 C818 1.287 . S
C818 C817 1.287 . S
C818 C819 1.524 . S
C818 H837 0.913 . S
C819 H795 0.950 . S
C819 C818 1.524 . S
C819 C820 1.415 . S
C820 H796 0.950 . S
C820 C815 1.363 . S
C820 C819 1.415 . S
C821 H797 0.951 . S
C821 C822 1.366 . S
C821 C823 1.388 . S
C822 C821 1.366 . S
C822 C826 1.385 . S
C823 H798 0.951 . S
C823 C821 1.388 . S
C823 C824 1.366 . S
C824 C823 1.366 . S
C824 C825 1.414 . S
C824 C827 1.499 . S
C825 H799 0.950 . S
C825 C824 1.414 . S
C825 C826 1.374 . S
C826 H800 0.950 . S
C826 C822 1.385 . S
C826 C825 1.374 . S
C827 C824 1.499 . S
C827 C828 1.373 . S
C827 C829 1.389 . S
C828 H801 0.950 . S
C828 C814 1.377 1_655 S
C828 C827 1.373 . S
C829 C813 1.377 1_655 S
C829 C827 1.389 . S
C829 C830 1.524 . S
C830 C829 1.524 . S
C830 C831 1.397 . S
C830 C835 1.363 . S
C831 H802 0.950 . S
C831 C830 1.397 . S
C831 C832 1.334 . S
C832 H803 0.950 . S
C832 C831 1.334 . S
C832 C833 1.287 . S
C833 C832 1.287 . S
C833 C834 1.524 . S
C833 H836 0.999 . S
C834 H804 0.950 . S
C834 C833 1.524 . S
C834 C835 1.415 . S
C835 H805 0.950 . S
C835 C830 1.363 . S
C835 C834 1.415 . S
H836 C833 0.999 . S
H837 C818 0.913 . S
H838 C856 0.951 . S
H839 C858 0.951 . S
H840 C860 0.950 . S
H841 C861 0.950 . S
H842 C863 0.950 . S
H843 C866 0.950 . S
H844 C867 0.950 . S
H845 C869 0.950 . S
H846 C870 0.950 . S
H847 C871 0.951 . S
H848 C873 0.951 . S
H849 C875 0.950 . S
H850 C876 0.950 . S
H851 C878 0.950 . S
H852 C881 0.950 . S
H853 C882 0.950 . S
H854 C884 0.950 . S
H855 C885 0.950 . S
C856 H838 0.951 . S
C856 C857 1.366 . S
C856 C858 1.388 . S
C857 C856 1.366 . S
C857 C861 1.385 1_554 S
C858 H839 0.951 . S
C858 C856 1.388 . S
C858 C859 1.366 . S
C859 C858 1.366 . S
C859 C860 1.414 1_554 S
C859 C862 1.499 . S
C860 H840 0.950 . S
C860 C859 1.414 1_556 S
C860 C861 1.374 . S
C861 H841 0.950 . S
C861 C857 1.385 1_556 S
C861 C860 1.374 . S
C862 C859 1.499 . S
C862 C863 1.373 1_554 S
C862 C864 1.389 . S
C863 H842 0.950 . S
C863 C862 1.373 1_556 S
C863 C879 1.377 1_565 S
C864 C862 1.389 . S
C864 C865 1.524 . S
C864 C878 1.377 1_565 S
C865 C864 1.524 . S
C865 C866 1.397 . S
C865 C870 1.363 . S
C866 H843 0.950 . S
C866 C865 1.397 . S
C866 C867 1.334 . S
C867 H844 0.950 . S
C867 C866 1.334 . S
C867 C868 1.287 . S
C868 C867 1.287 . S
C868 C869 1.524 . S
C868 H887 0.913 . S
C869 H845 0.950 . S
C869 C868 1.524 . S
C869 C870 1.415 . S
C870 H846 0.950 . S
C870 C865 1.363 . S
C870 C869 1.415 . S
C871 H847 0.951 . S
C871 C872 1.366 1_556 S
C871 C873 1.388 . S
C872 C871 1.366 1_554 S
C872 C876 1.385 . S
C873 H848 0.951 . S
C873 C871 1.388 . S
C873 C874 1.366 1_556 S
C874 C873 1.366 1_554 S
C874 C875 1.414 . S
C874 C877 1.499 . S
C875 H849 0.950 . S
C875 C874 1.414 . S
C875 C876 1.374 . S
C876 H850 0.950 . S
C876 C872 1.385 . S
C876 C875 1.374 . S
C877 C874 1.499 . S
C877 C878 1.373 . S
C877 C879 1.389 1_554 S
C878 H851 0.950 . S
C878 C864 1.377 1_545 S
C878 C877 1.373 . S
C879 C863 1.377 1_545 S
C879 C877 1.389 1_556 S
C879 C880 1.524 . S
C880 C879 1.524 . S
C880 C881 1.397 . S
C880 C885 1.363 . S
C881 H852 0.950 . S
C881 C880 1.397 . S
C881 C882 1.334 . S
C882 H853 0.950 . S
C882 C881 1.334 . S
C882 C883 1.287 . S
C883 C882 1.287 . S
C883 C884 1.524 . S
C883 H886 0.999 . S
C884 H854 0.950 . S
C884 C883 1.524 . S
C884 C885 1.415 . S
C885 H855 0.950 . S
C885 C880 1.363 . S
C885 C884 1.415 . S
H886 C883 0.999 . S
H887 C868 0.913 . S
H888 C906 0.955 . S
H889 C908 0.951 1_556 S
H890 C910 0.950 . S
H891 C911 0.950 . S
H892 C913 0.950 . S
H893 C916 0.950 . S
H894 C917 0.950 . S
H895 C919 0.950 . S
H896 C920 0.950 . S
H897 C921 0.951 . S
H898 C923 0.951 . S
H899 C925 0.950 . S
H900 C926 0.950 . S
H901 C928 0.950 . S
H902 C931 0.950 . S
H903 C932 0.950 . S
H904 C934 0.950 . S
H905 C935 0.950 . S
C906 H888 0.955 . S
C906 C907 1.362 1_556 S
C906 C908 1.388 1_556 S
C907 C906 1.362 1_554 S
C907 C911 1.385 . S
C908 H889 0.951 1_554 S
C908 C906 1.388 1_554 S
C908 C909 1.365 . S
C909 C908 1.365 . S
C909 C910 1.414 . S
C909 C912 1.499 . S
C910 H890 0.950 . S
C910 C909 1.414 . S
C910 C911 1.374 . S
C911 H891 0.950 . S
C911 C907 1.385 . S
C911 C910 1.374 . S
C912 C909 1.499 . S
C912 C913 1.373 1_554 S
C912 C914 1.389 . S
C913 H892 0.950 . S
C913 C912 1.373 1_556 S
C913 C929 1.377 . S
C914 C912 1.389 . S
C914 C915 1.524 . S
C914 C928 1.377 . S
C915 C914 1.524 . S
C915 C916 1.397 . S
C915 C920 1.363 . S
C916 H893 0.950 . S
C916 C915 1.397 . S
C916 C917 1.334 . S
C917 H894 0.950 . S
C917 C916 1.334 . S
C917 C918 1.287 . S
C918 C917 1.287 . S
C918 C919 1.524 . S
C918 H937 0.913 . S
C919 H895 0.950 . S
C919 C918 1.524 . S
C919 C920 1.415 . S
C920 H896 0.950 . S
C920 C915 1.363 . S
C920 C919 1.415 . S
C921 H897 0.951 . S
C921 C922 1.366 . S
C921 C923 1.388 . S
C922 C921 1.366 . S
C922 C926 1.385 1_554 S
C923 H898 0.951 . S
C923 C921 1.388 . S
C923 C924 1.366 . S
C924 C923 1.366 . S
C924 C925 1.414 1_554 S
C924 C927 1.499 . S
C925 H899 0.950 . S
C925 C924 1.414 1_556 S
C925 C926 1.374 . S
C926 H900 0.950 . S
C926 C922 1.385 1_556 S
C926 C925 1.374 . S
C927 C924 1.499 . S
C927 C928 1.373 . S
C927 C929 1.389 1_554 S
C928 H901 0.950 . S
C928 C914 1.377 . S
C928 C927 1.373 . S
C929 C913 1.377 . S
C929 C927 1.389 1_556 S
C929 C930 1.524 . S
C930 C929 1.524 . S
C930 C931 1.397 . S
C930 C935 1.363 . S
C931 H902 0.950 . S
C931 C930 1.397 . S
C931 C932 1.334 . S
C932 H903 0.950 . S
C932 C931 1.334 . S
C932 C933 1.287 . S
C933 C932 1.287 . S
C933 C934 1.524 . S
C933 H936 0.999 . S
C934 H904 0.950 . S
C934 C933 1.524 . S
C934 C935 1.415 . S
C935 H905 0.950 . S
C935 C930 1.363 . S
C935 C934 1.415 . S
H936 C933 0.999 . S
H937 C918 0.913 . S
H938 C956 0.951 . S
H939 C958 0.951 . S
H940 C960 0.950 . S
H941 C961 0.950 . S
H942 C963 0.950 . S
H943 C966 0.950 . S
H944 C967 0.950 . S
H945 C969 0.950 . S
H946 C970 0.950 . S
H947 C971 0.951 . S
H948 C973 0.951 . S
H949 C975 0.950 . S
H950 C976 0.950 . S
H951 C978 0.950 . S
H952 C981 0.950 . S
H953 C982 0.950 . S
H954 C984 0.950 . S
H955 C985 0.950 . S
C956 H938 0.951 . S
C956 C957 1.366 . S
C956 C958 1.388 . S
C957 C956 1.366 . S
C957 C961 1.385 . S
C958 H939 0.951 . S
C958 C956 1.388 . S
C958 C959 1.366 . S
C959 C958 1.366 . S
C959 C960 1.414 . S
C959 C962 1.499 . S
C960 H940 0.950 . S
C960 C959 1.414 . S
C960 C961 1.374 . S
C961 H941 0.950 . S
C961 C957 1.385 . S
C961 C960 1.374 . S
C962 C959 1.499 . S
C962 C963 1.373 . S
C962 C964 1.389 . S
C963 H942 0.950 . S
C963 C962 1.373 . S
C963 C979 1.377 . S
C964 C962 1.389 . S
C964 C965 1.524 . S
C964 C978 1.377 . S
C965 C964 1.524 . S
C965 C966 1.397 . S
C965 C970 1.363 . S
C966 H943 0.950 . S
C966 C965 1.397 . S
C966 C967 1.334 . S
C967 H944 0.950 . S
C967 C966 1.334 . S
C967 C968 1.287 . S
C968 C967 1.287 . S
C968 C969 1.524 . S
C968 H987 0.913 . S
C969 H945 0.950 . S
C969 C968 1.524 . S
C969 C970 1.415 . S
C970 H946 0.950 . S
C970 C965 1.363 . S
C970 C969 1.415 . S
C971 H947 0.951 . S
C971 C972 1.366 . S
C971 C973 1.388 . S
C972 C971 1.366 . S
C972 C976 1.385 . S
C973 H948 0.951 . S
C973 C971 1.388 . S
C973 C974 1.366 . S
C974 C973 1.366 . S
C974 C975 1.414 . S
C974 C977 1.499 . S
C975 H949 0.950 . S
C975 C974 1.414 . S
C975 C976 1.374 . S
C976 H950 0.950 . S
C976 C972 1.385 . S
C976 C975 1.374 . S
C977 C974 1.499 . S
C977 C978 1.373 . S
C977 C979 1.389 . S
C978 H951 0.950 . S
C978 C964 1.377 . S
C978 C977 1.373 . S
C979 C963 1.377 . S
C979 C977 1.389 . S
C979 C980 1.524 . S
C980 C979 1.524 . S
C980 C981 1.397 . S
C980 C985 1.363 . S
C981 H952 0.950 . S
C981 C980 1.397 . S
C981 C982 1.334 . S
C982 H953 0.950 . S
C982 C981 1.334 . S
C982 C983 1.287 . S
C983 C982 1.287 . S
C983 C984 1.524 . S
C983 H986 0.999 . S
C984 H954 0.950 . S
C984 C983 1.524 . S
C984 C985 1.415 . S
C985 H955 0.950 . S
C985 C980 1.363 . S
C985 C984 1.415 . S
H986 C983 0.999 . S
H987 C968 0.913 . S
H988 C1006 0.951 . S
H989 C1008 0.951 . S
H990 C1010 0.950 . S
H991 C1011 0.950 . S
H992 C1013 0.950 . S
H993 C1016 0.950 . S
H994 C1017 0.950 . S
H995 C1019 0.950 . S
H996 C1020 0.950 . S
H997 C1021 0.951 . S
H998 C1023 0.951 . S
H999 C1025 0.950 . S
H1000 C1026 0.950 . S
H1001 C1028 0.950 . S
H1002 C1031 0.950 . S
H1003 C1032 0.950 . S
H1004 C1034 0.950 . S
H1005 C1035 0.950 . S
C1006 H988 0.951 . S
C1006 C1007 1.366 . S
C1006 C1008 1.388 . S
C1007 C1006 1.366 . S
C1007 C1011 1.385 . S
C1008 H989 0.951 . S
C1008 C1006 1.388 . S
C1008 C1009 1.366 . S
C1009 C1008 1.366 . S
C1009 C1010 1.414 . S
C1009 C1012 1.499 . S
C1010 H990 0.950 . S
C1010 C1009 1.414 . S
C1010 C1011 1.374 . S
C1011 H991 0.950 . S
C1011 C1007 1.385 . S
C1011 C1010 1.374 . S
C1012 C1009 1.499 . S
C1012 C1013 1.373 1_554 S
C1012 C1014 1.389 . S
C1013 H992 0.950 . S
C1013 C1012 1.373 1_556 S
C1013 C1029 1.377 . S
C1014 C1012 1.389 . S
C1014 C1015 1.524 . S
C1014 C1028 1.377 . S
C1015 C1014 1.524 . S
C1015 C1016 1.397 . S
C1015 C1020 1.363 . S
C1016 H993 0.950 . S
C1016 C1015 1.397 . S
C1016 C1017 1.334 . S
C1017 H994 0.950 . S
C1017 C1016 1.334 . S
C1017 C1018 1.287 . S
C1018 C1017 1.287 . S
C1018 C1019 1.524 . S
C1018 H1037 0.913 . S
C1019 H995 0.950 . S
C1019 C1018 1.524 . S
C1019 C1020 1.415 . S
C1020 H996 0.950 . S
C1020 C1015 1.363 . S
C1020 C1019 1.415 . S
C1021 H997 0.951 . S
C1021 C1022 1.366 . S
C1021 C1023 1.388 . S
C1022 C1021 1.366 . S
C1022 C1026 1.385 . S
C1023 H998 0.951 . S
C1023 C1021 1.388 . S
C1023 C1024 1.366 . S
C1024 C1023 1.366 . S
C1024 C1025 1.414 . S
C1024 C1027 1.499 . S
C1025 H999 0.950 . S
C1025 C1024 1.414 . S
C1025 C1026 1.374 . S
C1026 H1000 0.950 . S
C1026 C1022 1.385 . S
C1026 C1025 1.374 . S
C1027 C1024 1.499 . S
C1027 C1028 1.373 . S
C1027 C1029 1.389 1_554 S
C1028 H1001 0.950 . S
C1028 C1014 1.377 . S
C1028 C1027 1.373 . S
C1029 C1013 1.377 . S
C1029 C1027 1.389 1_556 S
C1029 C1030 1.524 . S
C1030 C1029 1.524 . S
C1030 C1031 1.397 . S
C1030 C1035 1.363 . S
C1031 H1002 0.950 . S
C1031 C1030 1.397 . S
C1031 C1032 1.334 . S
C1032 H1003 0.950 . S
C1032 C1031 1.334 . S
C1032 C1033 1.287 . S
C1033 C1032 1.287 . S
C1033 C1034 1.524 . S
C1033 H1036 0.999 . S
C1034 H1004 0.950 . S
C1034 C1033 1.524 . S
C1034 C1035 1.415 . S
C1035 H1005 0.950 . S
C1035 C1030 1.363 . S
C1035 C1034 1.415 . S
H1036 C1033 0.999 . S
H1037 C1018 0.913 . S
H1038 C1056 0.951 . S
H1039 C1058 0.951 . S
H1040 C1060 0.950 . S
H1041 C1061 0.950 . S
H1042 C1063 0.950 . S
H1043 C1066 0.950 . S
H1044 C1067 0.950 . S
H1045 C1069 0.950 . S
H1046 C1070 0.950 . S
H1047 C1071 0.951 . S
H1048 C1073 0.951 . S
H1049 C1075 0.950 . S
H1050 C1076 0.950 . S
H1051 C1078 0.950 . S
H1052 C1081 0.950 . S
H1053 C1082 0.950 . S
H1054 C1084 0.950 . S
H1055 C1085 0.950 . S
C1056 H1038 0.951 . S
C1056 C1057 1.366 . S
C1056 C1058 1.388 . S
C1057 C1056 1.366 . S
C1057 C1061 1.385 . S
C1058 H1039 0.951 . S
C1058 C1056 1.388 . S
C1058 C1059 1.366 . S
C1059 C1058 1.366 . S
C1059 C1060 1.414 . S
C1059 C1062 1.499 . S
C1060 H1040 0.950 . S
C1060 C1059 1.414 . S
C1060 C1061 1.374 . S
C1061 H1041 0.950 . S
C1061 C1057 1.385 . S
C1061 C1060 1.374 . S
C1062 C1059 1.499 . S
C1062 C1063 1.373 . S
C1062 C1064 1.389 . S
C1063 H1042 0.950 . S
C1063 C1062 1.373 . S
C1063 C1079 1.377 . S
C1064 C1062 1.389 . S
C1064 C1065 1.524 . S
C1064 C1078 1.377 . S
C1065 C1064 1.524 . S
C1065 C1066 1.397 . S
C1065 C1070 1.363 . S
C1066 H1043 0.950 . S
C1066 C1065 1.397 . S
C1066 C1067 1.334 . S
C1067 H1044 0.950 . S
C1067 C1066 1.334 . S
C1067 C1068 1.287 . S
C1068 C1067 1.287 . S
C1068 C1069 1.524 . S
C1068 H1087 0.913 . S
C1069 H1045 0.950 . S
C1069 C1068 1.524 . S
C1069 C1070 1.415 . S
C1070 H1046 0.950 . S
C1070 C1065 1.363 . S
C1070 C1069 1.415 . S
C1071 H1047 0.951 . S
C1071 C1072 1.366 . S
C1071 C1073 1.388 . S
C1072 C1071 1.366 . S
C1072 C1076 1.385 . S
C1073 H1048 0.951 . S
C1073 C1071 1.388 . S
C1073 C1074 1.366 . S
C1074 C1073 1.366 . S
C1074 C1075 1.414 . S
C1074 C1077 1.499 . S
C1075 H1049 0.950 . S
C1075 C1074 1.414 . S
C1075 C1076 1.374 . S
C1076 H1050 0.950 . S
C1076 C1072 1.385 . S
C1076 C1075 1.374 . S
C1077 C1074 1.499 . S
C1077 C1078 1.373 . S
C1077 C1079 1.389 . S
C1078 H1051 0.950 . S
C1078 C1064 1.377 . S
C1078 C1077 1.373 . S
C1079 C1063 1.377 . S
C1079 C1077 1.389 . S
C1079 C1080 1.524 . S
C1080 C1079 1.524 . S
C1080 C1081 1.397 . S
C1080 C1085 1.363 . S
C1081 H1052 0.950 . S
C1081 C1080 1.397 . S
C1081 C1082 1.334 . S
C1082 H1053 0.950 . S
C1082 C1081 1.334 . S
C1082 C1083 1.287 . S
C1083 C1082 1.287 . S
C1083 C1084 1.524 . S
C1083 H1086 0.999 . S
C1084 H1054 0.950 . S
C1084 C1083 1.524 . S
C1084 C1085 1.415 . S
C1085 H1055 0.950 . S
C1085 C1080 1.363 . S
C1085 C1084 1.415 . S
H1086 C1083 0.999 . S
H1087 C1068 0.913 . S
C307 C3 0.895 . S
C322 C147 0.895 . S
C357 C38 1.238 . S
C372 C182 1.239 . S
C407 C219 0.895 . S
C422 C75 0.894 . S
C457 C254 1.238 . S
C472 C110 1.239 . S
C507 C220 0.922 . S
C522 C76 0.922 . S
C557 C266 1.360 . S
C572 C122 1.360 . S
C607 C4 0.922 . S
C622 C148 0.924 . S
C657 C50 1.360 . S
C672 C194 1.359 . S
C707 C74 1.283 . S
C722 C2 1.283 . S
C757 C111 1.239 . S
C772 C39 1.239 . S
C807 C146 1.283 . S
C822 C218 1.283 . S
C857 C255 1.242 . S
C872 C183 1.242 . S
C907 C14 1.192 1_554 S
C922 C184 1.199 . S
C957 C230 1.192 . S
C972 C40 1.200 . S
C1007 C86 1.192 1_554 S
C1022 C256 1.199 . S
C1057 C112 1.200 . S
C1072 C158 1.192 . S
