# Generated by pormake.
# Topology uku, (4)-cn, num edge types: 1
# Building blocks:
#     Node 0, Type 0, BuildingBlock: ESEHIV_clean_sbu_0, # of connection points: 4
#     Node 1, Type 0, BuildingBlock: ESEHIV_clean_sbu_0, # of connection points: 4
#     Node 2, Type 0, BuildingBlock: ESEHIV_clean_sbu_0, # of connection points: 4
#     Node 3, Type 0, BuildingBlock: ESEHIV_clean_sbu_0, # of connection points: 4
#     Node 4, Type 0, BuildingBlock: ESEHIV_clean_sbu_0, # of connection points: 4
#     Node 5, Type 0, BuildingBlock: ESEHIV_clean_sbu_0, # of connection points: 4
#     Node 6, Type 0, BuildingBlock: ESEHIV_clean_sbu_0, # of connection points: 4
#     Node 7, Type 0, BuildingBlock: ESEHIV_clean_sbu_0, # of connection points: 4
#     Node 8, Type 0, BuildingBlock: ESEHIV_clean_sbu_0, # of connection points: 4
#     Node 9, Type 0, BuildingBlock: ESEHIV_clean_sbu_0, # of connection points: 4
#     Node 10, Type 0, BuildingBlock: ESEHIV_clean_sbu_0, # of connection points: 4
#     Node 11, Type 0, BuildingBlock: ESEHIV_clean_sbu_0, # of connection points: 4
#     Edge 12, Type (0, 0), BuildingBlock: UVAHIK_clean_linker_0, # of connection points: 2
#     Edge 13, Type (0, 0), BuildingBlock: UVAHIK_clean_linker_0, # of connection points: 2
#     Edge 14, Type (0, 0), BuildingBlock: UVAHIK_clean_linker_0, # of connection points: 2
#     Edge 15, Type (0, 0), BuildingBlock: UVAHIK_clean_linker_0, # of connection points: 2
#     Edge 16, Type (0, 0), BuildingBlock: UVAHIK_clean_linker_0, # of connection points: 2
#     Edge 17, Type (0, 0), BuildingBlock: UVAHIK_clean_linker_0, # of connection points: 2
#     Edge 18, Type (0, 0), BuildingBlock: UVAHIK_clean_linker_0, # of connection points: 2
#     Edge 19, Type (0, 0), BuildingBlock: UVAHIK_clean_linker_0, # of connection points: 2
#     Edge 20, Type (0, 0), BuildingBlock: UVAHIK_clean_linker_0, # of connection points: 2
#     Edge 21, Type (0, 0), BuildingBlock: UVAHIK_clean_linker_0, # of connection points: 2
#     Edge 22, Type (0, 0), BuildingBlock: UVAHIK_clean_linker_0, # of connection points: 2
#     Edge 23, Type (0, 0), BuildingBlock: UVAHIK_clean_linker_0, # of connection points: 2
#     Edge 24, Type (0, 0), BuildingBlock: UVAHIK_clean_linker_0, # of connection points: 2
#     Edge 25, Type (0, 0), BuildingBlock: UVAHIK_clean_linker_0, # of connection points: 2
#     Edge 26, Type (0, 0), BuildingBlock: UVAHIK_clean_linker_0, # of connection points: 2
#     Edge 27, Type (0, 0), BuildingBlock: UVAHIK_clean_linker_0, # of connection points: 2
#     Edge 28, Type (0, 0), BuildingBlock: UVAHIK_clean_linker_0, # of connection points: 2
#     Edge 29, Type (0, 0), BuildingBlock: UVAHIK_clean_linker_0, # of connection points: 2
#     Edge 30, Type (0, 0), BuildingBlock: UVAHIK_clean_linker_0, # of connection points: 2
#     Edge 31, Type (0, 0), BuildingBlock: UVAHIK_clean_linker_0, # of connection points: 2
#     Edge 32, Type (0, 0), BuildingBlock: UVAHIK_clean_linker_0, # of connection points: 2
#     Edge 33, Type (0, 0), BuildingBlock: UVAHIK_clean_linker_0, # of connection points: 2
#     Edge 34, Type (0, 0), BuildingBlock: UVAHIK_clean_linker_0, # of connection points: 2
#     Edge 35, Type (0, 0), BuildingBlock: UVAHIK_clean_linker_0, # of connection points: 2
# Relax obj value: 0.122
# Max RMSD: 0.250
# Mean RMSD: 0.250
data_MOF--net-uku--node1-ESEHIV_clean_sbu_0--edge1-UVAHIK_clean_linker_0
_symmetry_space_group_name_H-M    P1
_symmetry_Int_Tables_number       1
_symmetry_cell_setting            triclinic
loop_
_symmetry_equiv_pos_as_xyz
'x, y, z'
_cell_length_a     60.113809
_cell_length_b     60.117658
_cell_length_c     60.091821
_cell_angle_alpha  89.998613
_cell_angle_beta   89.997678
_cell_angle_gamma 90.006736
loop_
_atom_site_label
_atom_site_type_symbol
_atom_site_fract_x
_atom_site_fract_y
_atom_site_fract_z
_atom_type_partial_charge
Cu0 Cu 0.1011 0.12821 0.6495 0.0
N1 N 0.13079 0.11987 0.65148 0.0
N2 N 0.16347 0.11106 0.66677 0.0
C3 C 0.14227 0.11747 0.67051 0.0
C4 C 0.16531 0.10933 0.64443 0.0
C5 C 0.14508 0.11482 0.63503 0.0
O6 O 0.09556 0.14922 0.67335 0.0
C7 C 0.06209 0.10242 0.65542 0.0
O8 O 0.05196 0.12178 0.65586 0.0
H9 H 0.13502 0.12005 0.68679 0.0
H10 H 0.14106 0.11512 0.61749 0.0
N11 N 0.09563 0.14133 0.62196 0.0
N12 N 0.07932 0.14987 0.5897 0.0
C13 C 0.07964 0.13586 0.60727 0.0
C14 C 0.10591 0.15925 0.61336 0.0
C15 C 0.09583 0.16461 0.59347 0.0
C16 C 0.08255 0.16584 0.67192 0.0
O17 O 0.07099 0.16894 0.65363 0.0
H18 H 0.06799 0.12238 0.60979 0.0
H19 H 0.11946 0.16805 0.62129 0.0
O20 O 0.08308 0.10178 0.65296 0.0
H21 H 0.18023 0.10471 0.63548 0.0
H22 H 0.10025 0.17834 0.58268 0.0
Cu23 Cu 0.89959 0.87112 0.6497 0.0
N24 N 0.86986 0.87915 0.65232 0.0
N25 N 0.83714 0.88707 0.66802 0.0
C26 C 0.8583 0.88036 0.67143 0.0
C27 C 0.8354 0.89023 0.64583 0.0
C28 C 0.85564 0.88529 0.63618 0.0
O29 O 0.90593 0.84974 0.67307 0.0
C30 C 0.93837 0.89716 0.65574 0.0
O31 O 0.94866 0.87789 0.65606 0.0
H32 H 0.86548 0.87675 0.68755 0.0
H33 H 0.85974 0.88615 0.61868 0.0
N34 N 0.90461 0.8588 0.62168 0.0
N35 N 0.9206 0.85089 0.58911 0.0
C36 C 0.92091 0.86411 0.60727 0.0
C37 C 0.89347 0.84182 0.61227 0.0
C38 C 0.90337 0.83683 0.59219 0.0
C39 C 0.91734 0.83211 0.67037 0.0
O40 O 0.92661 0.82812 0.65099 0.0
H41 H 0.93318 0.8769 0.61038 0.0
H42 H 0.87944 0.8334 0.61975 0.0
O43 O 0.91737 0.89765 0.65333 0.0
H44 H 0.82053 0.89547 0.63713 0.0
H45 H 0.89832 0.82384 0.58079 0.0
Cu46 Cu 0.09812 0.87247 0.34972 0.0
N47 N 0.12679 0.88385 0.34792 0.0
N48 N 0.15956 0.89332 0.33318 0.0
C49 C 0.13947 0.88397 0.32951 0.0
C50 C 0.15941 0.89937 0.35483 0.0
C51 C 0.13915 0.89347 0.3639 0.0
O52 O 0.09488 0.85067 0.3263 0.0
C53 C 0.07542 0.90742 0.32823 0.0
O54 O 0.08825 0.90221 0.31131 0.0
H55 H 0.13383 0.87756 0.31365 0.0
H56 H 0.13381 0.89592 0.38092 0.0
N57 N 0.09353 0.85892 0.37715 0.0
N58 N 0.07785 0.85024 0.40967 0.0
C59 C 0.07826 0.86468 0.39248 0.0
C60 C 0.1032 0.8403 0.38489 0.0
C61 C 0.09352 0.83486 0.40497 0.0
C62 C 0.07886 0.83691 0.32531 0.0
O63 O 0.06308 0.8377 0.34042 0.0
H64 H 0.06707 0.87866 0.39058 0.0
H65 H 0.11597 0.83104 0.37622 0.0
O66 O 0.07695 0.89636 0.34618 0.0
H67 H 0.17305 0.90718 0.36361 0.0
H68 H 0.09755 0.82059 0.4152 0.0
Cu69 Cu 0.90213 0.12877 0.34996 0.0
N70 N 0.87333 0.11775 0.34813 0.0
N71 N 0.84066 0.10818 0.33324 0.0
C72 C 0.86109 0.11672 0.32945 0.0
C73 C 0.84014 0.10358 0.35524 0.0
C74 C 0.86035 0.10955 0.3644 0.0
O75 O 0.90553 0.15058 0.32655 0.0
C76 C 0.93065 0.09821 0.32801 0.0
O77 O 0.92485 0.10888 0.30984 0.0
H78 H 0.86724 0.122 0.31337 0.0
H79 H 0.86519 0.10818 0.38168 0.0
N80 N 0.90676 0.14226 0.37741 0.0
N81 N 0.92239 0.15082 0.40998 0.0
C82 C 0.92219 0.1366 0.3926 0.0
C83 C 0.89678 0.1606 0.38541 0.0
C84 C 0.90642 0.16597 0.40552 0.0
C85 C 0.9213 0.16464 0.32572 0.0
O86 O 0.93687 0.16425 0.34107 0.0
H87 H 0.93359 0.12282 0.39052 0.0
H88 H 0.88375 0.16968 0.37693 0.0
O89 O 0.92284 0.10441 0.34666 0.0
H90 H 0.82606 0.09681 0.3642 0.0
H91 H 0.90212 0.18 0.41596 0.0
Cu92 Cu 0.64776 0.10263 0.12891 0.0
N93 N 0.64952 0.13215 0.11998 0.0
N94 N 0.66477 0.1648 0.11105 0.0
C95 C 0.66843 0.14396 0.11854 0.0
C96 C 0.6426 0.16609 0.1076 0.0
C97 C 0.63321 0.14587 0.11318 0.0
O98 O 0.67144 0.09795 0.15028 0.0
C99 C 0.65439 0.06323 0.1039 0.0
O100 O 0.65469 0.05341 0.12343 0.0
H101 H 0.68462 0.13715 0.12248 0.0
H102 H 0.6158 0.14143 0.11225 0.0
N103 N 0.62018 0.09704 0.14184 0.0
N104 N 0.58789 0.0806 0.14995 0.0
C105 C 0.60553 0.08113 0.13606 0.0
C106 C 0.61148 0.10706 0.15986 0.0
C107 C 0.59156 0.0969 0.16496 0.0
C108 C 0.67029 0.08514 0.16709 0.0
O109 O 0.65239 0.07299 0.1702 0.0
H110 H 0.60815 0.06966 0.12242 0.0
H111 H 0.61935 0.12047 0.16891 0.0
O112 O 0.65175 0.08417 0.10287 0.0
H113 H 0.63377 0.1806 0.10164 0.0
H114 H 0.5807 0.1011 0.1787 0.0
Cu115 Cu 0.35135 0.89826 0.12757 0.0
N116 N 0.34995 0.86879 0.11839 0.0
N117 N 0.33539 0.83564 0.11016 0.0
C118 C 0.33152 0.85614 0.11846 0.0
C119 C 0.35717 0.83546 0.10463 0.0
C120 C 0.36613 0.85597 0.10978 0.0
O121 O 0.32776 0.90252 0.14914 0.0
C122 C 0.34471 0.93787 0.10279 0.0
O123 O 0.34481 0.94766 0.12233 0.0
H124 H 0.31547 0.86212 0.12402 0.0
H125 H 0.38315 0.86124 0.10729 0.0
N126 N 0.37891 0.90397 0.14049 0.0
N127 N 0.41105 0.92058 0.14881 0.0
C128 C 0.39346 0.92003 0.13486 0.0
C129 C 0.38763 0.89389 0.15847 0.0
C130 C 0.40745 0.90415 0.1637 0.0
C131 C 0.32883 0.91555 0.16578 0.0
O132 O 0.34647 0.92816 0.16849 0.0
H133 H 0.3908 0.93158 0.12131 0.0
H134 H 0.37981 0.88036 0.16741 0.0
O135 O 0.34709 0.91689 0.10169 0.0
H136 H 0.36603 0.82149 0.09752 0.0
H137 H 0.41829 0.89994 0.17745 0.0
Cu138 Cu 0.64751 0.89698 0.8755 0.0
N139 N 0.64861 0.86749 0.8846 0.0
N140 N 0.66286 0.8342 0.89279 0.0
C141 C 0.66689 0.85465 0.88444 0.0
C142 C 0.64111 0.83425 0.89847 0.0
C143 C 0.63234 0.85485 0.89334 0.0
O144 O 0.67139 0.90116 0.85423 0.0
C145 C 0.65402 0.93644 0.90059 0.0
O146 O 0.65391 0.94644 0.88115 0.0
H147 H 0.68297 0.86046 0.8788 0.0
H148 H 0.6154 0.86032 0.89595 0.0
N149 N 0.62011 0.90288 0.86234 0.0
N150 N 0.5881 0.91964 0.85384 0.0
C151 C 0.60558 0.91896 0.86793 0.0
C152 C 0.61149 0.89291 0.84425 0.0
C153 C 0.59175 0.90327 0.83891 0.0
C154 C 0.67041 0.91385 0.83733 0.0
O155 O 0.65266 0.92619 0.83413 0.0
H156 H 0.60816 0.93043 0.88156 0.0
H157 H 0.61931 0.87939 0.83532 0.0
O158 O 0.65167 0.91545 0.90148 0.0
H159 H 0.63216 0.8204 0.90568 0.0
H160 H 0.581 0.89917 0.82505 0.0
Cu161 Cu 0.35242 0.1029 0.87334 0.0
N162 N 0.35051 0.13253 0.88181 0.0
N163 N 0.33523 0.16515 0.89082 0.0
C164 C 0.33151 0.1441 0.88394 0.0
C165 C 0.35752 0.16682 0.89315 0.0
C166 C 0.36692 0.14663 0.88753 0.0
O167 O 0.32886 0.09761 0.85194 0.0
C168 C 0.3458 0.06388 0.89901 0.0
O169 O 0.34559 0.05369 0.87968 0.0
H170 H 0.31526 0.13698 0.8809 0.0
H171 H 0.38443 0.14247 0.88768 0.0
N172 N 0.38011 0.09731 0.86065 0.0
N173 N 0.41237 0.08079 0.85266 0.0
C174 C 0.3946 0.08123 0.86638 0.0
C175 C 0.38906 0.10751 0.84285 0.0
C176 C 0.40896 0.09729 0.83782 0.0
C177 C 0.33051 0.08484 0.83514 0.0
O178 O 0.34883 0.07332 0.83212 0.0
H179 H 0.39177 0.06961 0.87983 0.0
H180 H 0.38136 0.12109 0.8339 0.0
O181 O 0.34841 0.08485 0.89965 0.0
H182 H 0.36642 0.18158 0.89833 0.0
H183 H 0.41999 0.1016 0.82425 0.0
Cu184 Cu 0.12637 0.64815 0.10196 0.0
N185 N 0.11459 0.64966 0.13051 0.0
N186 N 0.10212 0.66453 0.16217 0.0
C187 C 0.10905 0.66851 0.14118 0.0
C188 C 0.10337 0.64225 0.16477 0.0
C189 C 0.11104 0.6331 0.14513 0.0
O190 O 0.14828 0.67154 0.09931 0.0
C191 C 0.09379 0.67056 0.07641 0.0
O192 O 0.10119 0.68844 0.08657 0.0
H193 H 0.11085 0.68488 0.13391 0.0
H194 H 0.11418 0.61569 0.14187 0.0
N195 N 0.13988 0.62073 0.09724 0.0
N196 N 0.14881 0.58855 0.08105 0.0
C197 C 0.13453 0.60587 0.0814 0.0
C198 C 0.15809 0.61257 0.10737 0.0
C199 C 0.16368 0.59269 0.09737 0.0
C200 C 0.16355 0.67165 0.08468 0.0
O201 O 0.16426 0.65568 0.06977 0.0
H202 H 0.12097 0.60819 0.06977 0.0
H203 H 0.16696 0.62082 0.12068 0.0
O204 O 0.10267 0.65184 0.08058 0.0
H205 H 0.09917 0.63323 0.17978 0.0
H206 H 0.17769 0.58222 0.10164 0.0
Cu207 Cu 0.12686 0.35157 0.90124 0.0
N208 N 0.11579 0.34899 0.87249 0.0
N209 N 0.10533 0.33317 0.84053 0.0
C210 C 0.11348 0.32983 0.86121 0.0
C211 C 0.10234 0.35538 0.83886 0.0
C212 C 0.10885 0.36511 0.85863 0.0
O213 O 0.14874 0.32833 0.90526 0.0
C214 C 0.09541 0.32971 0.92864 0.0
O215 O 0.10488 0.31143 0.9213 0.0
H216 H 0.11758 0.31376 0.8682 0.0
H217 H 0.10872 0.38266 0.86257 0.0
N218 N 0.14004 0.37926 0.90529 0.0
N219 N 0.14867 0.41182 0.92088 0.0
C220 C 0.13472 0.39423 0.92105 0.0
C221 C 0.15787 0.38764 0.89468 0.0
C222 C 0.16328 0.40775 0.90431 0.0
C223 C 0.16462 0.32932 0.9192 0.0
O224 O 0.16623 0.34661 0.93247 0.0
H225 H 0.12146 0.3918 0.93299 0.0
H226 H 0.16662 0.3794 0.88129 0.0
O227 O 0.10262 0.34847 0.92211 0.0
H228 H 0.09631 0.36407 0.82429 0.0
H229 H 0.17701 0.41843 0.89963 0.0
Cu230 Cu 0.8737 0.6492 0.90182 0.0
N231 N 0.88696 0.65185 0.87402 0.0
N232 N 0.89876 0.66748 0.84239 0.0
C233 C 0.88641 0.67004 0.86102 0.0
C234 C 0.9073 0.64672 0.84383 0.0
C235 C 0.90001 0.63715 0.86339 0.0
O236 O 0.85117 0.67199 0.90422 0.0
C237 C 0.90461 0.67141 0.92949 0.0
O238 O 0.89701 0.68949 0.91982 0.0
H239 H 0.87715 0.68485 0.86532 0.0
H240 H 0.90427 0.62083 0.86966 0.0
N241 N 0.86066 0.62135 0.90505 0.0
N242 N 0.8518 0.58854 0.91997 0.0
C243 C 0.86579 0.60609 0.92058 0.0
C244 C 0.84289 0.61323 0.89415 0.0
C245 C 0.83734 0.59295 0.90336 0.0
C246 C 0.83572 0.67163 0.91865 0.0
O247 O 0.83522 0.65557 0.93348 0.0
H248 H 0.87891 0.6083 0.93272 0.0
H249 H 0.83422 0.62177 0.88089 0.0
O250 O 0.89637 0.65265 0.92431 0.0
H251 H 0.9185 0.63913 0.83197 0.0
H252 H 0.8236 0.58242 0.8984 0.0
Cu253 Cu 0.87312 0.35198 0.10084 0.0
N254 N 0.88451 0.35048 0.12955 0.0
N255 N 0.89672 0.33575 0.16139 0.0
C256 C 0.89001 0.33168 0.14035 0.0
C257 C 0.89536 0.35803 0.1639 0.0
C258 C 0.88786 0.36709 0.14417 0.0
O259 O 0.8515 0.32837 0.09764 0.0
C260 C 0.90653 0.33 0.07605 0.0
O261 O 0.89962 0.31219 0.08667 0.0
H262 H 0.88837 0.31528 0.13311 0.0
H263 H 0.88473 0.38449 0.14081 0.0
N264 N 0.8595 0.37933 0.09603 0.0
N265 N 0.85055 0.41144 0.0797 0.0
C266 C 0.86487 0.39416 0.08015 0.0
C267 C 0.84124 0.38748 0.10607 0.0
C268 C 0.83563 0.40732 0.09598 0.0
C269 C 0.83609 0.3286 0.08316 0.0
O270 O 0.83495 0.34516 0.06894 0.0
H271 H 0.87847 0.39183 0.06857 0.0
H272 H 0.83234 0.37926 0.11938 0.0
O273 O 0.89709 0.34856 0.07972 0.0
H274 H 0.89942 0.36712 0.17891 0.0
H275 H 0.82158 0.41777 0.10016 0.0
C276 C 0.94423 0.17057 0.43871 0.0
C277 C 0.93746 0.15058 0.42863 0.0
C278 C 0.95949 0.17037 0.45625 0.0
C279 C 0.98248 0.135 0.50042 0.0
H280 H 0.03227 0.17597 0.49873 0.0
C281 C 0.05452 0.12972 0.56381 0.0
C282 C 0.0638 0.14977 0.57143 0.0
C283 C 0.03923 0.12967 0.54628 0.0
C284 C 0.01831 0.16462 0.49967 0.0
H285 H 0.94096 0.11472 0.42941 0.0
H286 H 0.96757 0.11437 0.46017 0.0
H287 H 0.00492 0.17638 0.4688 0.0
H288 H 0.06403 0.18551 0.56689 0.0
H289 H 0.03706 0.18555 0.53665 0.0
H290 H 0.99555 0.12347 0.53145 0.0
C291 C 0.96109 0.13017 0.45443 0.0
C292 C 0.00267 0.16484 0.48246 0.0
C293 C 0.94602 0.13038 0.43671 0.0
C294 C 0.05744 0.16977 0.56115 0.0
C295 C 0.04199 0.16975 0.54378 0.0
C296 C 0.998 0.13492 0.51775 0.0
C297 C 0.96812 0.15018 0.46427 0.0
C298 C 0.98461 0.15001 0.48264 0.0
C299 C 0.03268 0.1497 0.53609 0.0
C300 C 0.01615 0.14972 0.5176 0.0
H301 H 0.93809 0.18639 0.43272 0.0
H302 H 0.96447 0.18604 0.46364 0.0
H303 H 0.96858 0.12355 0.50112 0.0
H304 H 0.05933 0.11403 0.57122 0.0
H305 H 0.03275 0.11386 0.54057 0.0
C306 C 0.05544 0.83042 0.43789 0.0
C307 C 0.06276 0.85045 0.42829 0.0
C308 C 0.04013 0.83061 0.45539 0.0
C309 C 0.01806 0.86537 0.50042 0.0
H310 H 0.96692 0.82618 0.49735 0.0
C311 C 0.94623 0.87099 0.56402 0.0
C312 C 0.93615 0.85105 0.57087 0.0
C313 C 0.96154 0.87111 0.5465 0.0
C314 C 0.98125 0.83701 0.49868 0.0
H315 H 0.06018 0.88636 0.42986 0.0
H316 H 0.03351 0.8867 0.4606 0.0
H317 H 0.99434 0.82577 0.46748 0.0
H318 H 0.9345 0.81555 0.56499 0.0
H319 H 0.96153 0.81557 0.5348 0.0
H320 H 0.00534 0.87632 0.53179 0.0
C321 C 0.03959 0.87087 0.4545 0.0
C322 C 0.99693 0.8368 0.4815 0.0
C323 C 0.0547 0.87067 0.43681 0.0
C324 C 0.94173 0.83122 0.55985 0.0
C325 C 0.95721 0.83128 0.5425 0.0
C326 C 0.00252 0.86541 0.51773 0.0
C327 C 0.03201 0.85083 0.46385 0.0
C328 C 0.01547 0.851 0.48218 0.0
C329 C 0.96732 0.85122 0.53556 0.0
C330 C 0.98388 0.85125 0.51709 0.0
H331 H 0.06119 0.81458 0.43155 0.0
H332 H 0.0347 0.81491 0.46239 0.0
H333 H 0.03234 0.87632 0.50149 0.0
H334 H 0.94203 0.88657 0.57202 0.0
H335 H 0.96863 0.88685 0.54138 0.0
C336 C 0.43921 0.94305 0.16862 0.0
C337 C 0.42912 0.93631 0.14862 0.0
C338 C 0.45628 0.95883 0.1685 0.0
C339 C 0.49955 0.98333 0.1332 0.0
H340 H 0.49717 0.03238 0.17503 0.0
C341 C 0.56215 0.05611 0.12928 0.0
C342 C 0.56966 0.06506 0.14953 0.0
C343 C 0.54472 0.04071 0.1289 0.0
C344 C 0.4983 0.01864 0.16343 0.0
H345 H 0.42934 0.94048 0.11281 0.0
H346 H 0.45932 0.96799 0.11258 0.0
H347 H 0.46769 0.00454 0.17505 0.0
H348 H 0.56502 0.06462 0.18527 0.0
H349 H 0.53498 0.03746 0.18474 0.0
H350 H 0.53035 0.99705 0.12185 0.0
C351 C 0.45394 0.96108 0.12834 0.0
C352 C 0.48135 0.00273 0.16342 0.0
C353 C 0.43668 0.94549 0.12848 0.0
C354 C 0.55937 0.05829 0.16939 0.0
C355 C 0.5421 0.04273 0.16905 0.0
C356 C 0.51664 0.99911 0.13335 0.0
C357 C 0.46381 0.96802 0.14837 0.0
C358 C 0.4818 0.98491 0.14831 0.0
C359 C 0.53454 0.03372 0.1488 0.0
C360 C 0.51624 0.01699 0.14848 0.0
H361 H 0.4336 0.93645 0.18441 0.0
H362 H 0.4637 0.96374 0.18418 0.0
H363 H 0.50045 0.96962 0.12153 0.0
H364 H 0.56957 0.06123 0.11369 0.0
H365 H 0.5391 0.03447 0.11296 0.0
C366 C 0.56022 0.94235 0.83394 0.0
C367 C 0.57008 0.93543 0.85398 0.0
C368 C 0.54322 0.95821 0.83401 0.0
C369 C 0.49976 0.98266 0.86909 0.0
H370 H 0.5029 0.03212 0.82779 0.0
C371 C 0.43776 0.05588 0.87326 0.0
C372 C 0.43049 0.06511 0.85306 0.0
C373 C 0.45505 0.04034 0.87361 0.0
C374 C 0.50156 0.01827 0.83923 0.0
H375 H 0.56956 0.93934 0.88981 0.0
H376 H 0.53971 0.96698 0.88997 0.0
H377 H 0.53217 0.00407 0.82776 0.0
H378 H 0.4354 0.06504 0.81735 0.0
H379 H 0.46522 0.03762 0.81782 0.0
H380 H 0.46897 0.99649 0.88029 0.0
C381 C 0.5452 0.96016 0.87421 0.0
C382 C 0.51839 0.00224 0.83924 0.0
C383 C 0.56239 0.94449 0.87411 0.0
C384 C 0.44088 0.05848 0.83321 0.0
C385 C 0.45802 0.04278 0.83351 0.0
C386 C 0.4828 0.99857 0.86894 0.0
C387 C 0.53556 0.96729 0.85414 0.0
C388 C 0.51767 0.98428 0.85417 0.0
C389 C 0.46533 0.03348 0.85372 0.0
C390 C 0.48348 0.0166 0.85401 0.0
H391 H 0.56594 0.93584 0.81815 0.0
H392 H 0.53597 0.96327 0.81831 0.0
H393 H 0.49866 0.96885 0.88062 0.0
H394 H 0.43024 0.06089 0.88884 0.0
H395 H 0.46049 0.03389 0.88953 0.0
C396 C 0.16877 0.44041 0.94256 0.0
C397 C 0.14871 0.43024 0.93621 0.0
C398 C 0.16886 0.45762 0.95821 0.0
C399 C 0.13413 0.48263 0.00286 0.0
H400 H 0.17557 0.53174 0.99728 0.0
C401 C 0.12883 0.56231 0.05653 0.0
C402 C 0.14888 0.57029 0.06553 0.0
C403 C 0.12889 0.54499 0.04102 0.0
C404 C 0.16404 0.51802 0.99914 0.0
H405 H 0.11297 0.43061 0.9407 0.0
H406 H 0.11298 0.46097 0.96757 0.0
H407 H 0.17529 0.50247 0.96918 0.0
H408 H 0.18472 0.56644 0.06521 0.0
H409 H 0.18485 0.53619 0.03803 0.0
H410 H 0.12263 0.49851 0.03263 0.0
C411 C 0.12875 0.45527 0.961 0.0
C412 C 0.16389 0.5012 0.98308 0.0
C413 C 0.12871 0.43792 0.94553 0.0
C414 C 0.16901 0.56051 0.05873 0.0
C415 C 0.16909 0.54336 0.04302 0.0
C416 C 0.13414 0.49956 0.01879 0.0
C417 C 0.14885 0.46522 0.96772 0.0
C418 C 0.14895 0.48326 0.98473 0.0
C419 C 0.14904 0.53544 0.03398 0.0
C420 C 0.14911 0.51741 0.01712 0.0
H421 H 0.18447 0.43464 0.9359 0.0
H422 H 0.18469 0.46461 0.96321 0.0
H423 H 0.12268 0.46888 0.00496 0.0
H424 H 0.11307 0.5694 0.06159 0.0
H425 H 0.11319 0.53932 0.03423 0.0
C426 C 0.83131 0.55979 0.94109 0.0
C427 C 0.85151 0.56991 0.93505 0.0
C428 C 0.83097 0.54239 0.95652 0.0
C429 C 0.86574 0.49877 0.98142 0.0
H430 H 0.82337 0.50105 0.03002 0.0
C431 C 0.8304 0.43934 0.05718 0.0
C432 C 0.8505 0.42963 0.06409 0.0
C433 C 0.83033 0.45639 0.04135 0.0
C434 C 0.8351 0.49995 0.0164 0.0
H435 H 0.8872 0.56934 0.93997 0.0
H436 H 0.88664 0.53884 0.96684 0.0
H437 H 0.82335 0.53034 0.00195 0.0
H438 H 0.88631 0.43062 0.06036 0.0
H439 H 0.88633 0.46069 0.03317 0.0
H440 H 0.8773 0.46825 0.99553 0.0
C441 C 0.87108 0.54442 0.95969 0.0
C442 C 0.83511 0.51678 0.00034 0.0
C443 C 0.87138 0.56199 0.94445 0.0
C444 C 0.87055 0.43757 0.0551 0.0
C445 C 0.87052 0.45475 0.03945 0.0
C446 C 0.8656 0.48182 0.99734 0.0
C447 C 0.85085 0.53457 0.96602 0.0
C448 C 0.85049 0.51641 0.98275 0.0
C449 C 0.8504 0.46428 0.03222 0.0
C450 C 0.85036 0.48224 0.01512 0.0
H451 H 0.81571 0.56567 0.93428 0.0
H452 H 0.81515 0.53499 0.96098 0.0
H453 H 0.87761 0.49791 0.96788 0.0
H454 H 0.81467 0.43336 0.06357 0.0
H455 H 0.81449 0.46304 0.03595 0.0
C456 C 0.1982 0.09238 0.67886 0.0
C457 C 0.18039 0.1069 0.6833 0.0
C458 C 0.21429 0.08808 0.69512 0.0
C459 C 0.22348 0.09087 0.75593 0.0
H460 H 0.28603 0.08972 0.7402 0.0
C461 C 0.29313 0.09705 0.8214 0.0
C462 C 0.3125 0.0843 0.81834 0.0
C463 C 0.27671 0.09773 0.80498 0.0
C464 C 0.26861 0.08965 0.74482 0.0
H465 H 0.16602 0.12877 0.70816 0.0
H466 H 0.19396 0.12127 0.7364 0.0
H467 H 0.25813 0.09505 0.71119 0.0
H468 H 0.32953 0.06184 0.79579 0.0
H469 H 0.30071 0.06291 0.76717 0.0
H470 H 0.23394 0.08573 0.78958 0.0
C471 C 0.19525 0.11284 0.72052 0.0
C472 C 0.25263 0.09273 0.72819 0.0
C473 C 0.17921 0.11715 0.70429 0.0
C474 C 0.31484 0.07187 0.79866 0.0
C475 C 0.2984 0.07259 0.78219 0.0
C476 C 0.23945 0.08779 0.77254 0.0
C477 C 0.21293 0.09818 0.71618 0.0
C478 C 0.22989 0.09366 0.7336 0.0
C479 C 0.27923 0.08568 0.78509 0.0
C480 C 0.26221 0.08743 0.76723 0.0
H481 H 0.19949 0.08401 0.66298 0.0
H482 H 0.2276 0.07654 0.69133 0.0
H483 H 0.20608 0.09107 0.7606 0.0
H484 H 0.29079 0.10686 0.83634 0.0
H485 H 0.2623 0.1082 0.80764 0.0
C486 C 0.68683 0.92575 0.80079 0.0
C487 C 0.68839 0.91322 0.82049 0.0
C488 C 0.70308 0.92382 0.78423 0.0
C489 C 0.74579 0.88482 0.76382 0.0
H490 H 0.768 0.93587 0.73122 0.0
C491 C 0.82104 0.8786 0.70493 0.0
C492 C 0.82013 0.89026 0.68467 0.0
C493 C 0.80478 0.8818 0.7212 0.0
C494 C 0.76176 0.92142 0.74 0.0
H495 H 0.70865 0.88935 0.8385 0.0
H496 H 0.737 0.8862 0.80978 0.0
H497 H 0.74029 0.94118 0.76048 0.0
H498 H 0.80136 0.91457 0.66575 0.0
H499 H 0.77271 0.91989 0.69403 0.0
H500 H 0.76717 0.86504 0.74339 0.0
C501 C 0.72304 0.89724 0.80695 0.0
C502 C 0.74591 0.92447 0.75677 0.0
C503 C 0.70685 0.89917 0.82349 0.0
C504 C 0.80247 0.90517 0.68106 0.0
C505 C 0.78619 0.90841 0.69738 0.0
C506 C 0.76159 0.88178 0.74707 0.0
C507 C 0.7212 0.90929 0.787 0.0
C508 C 0.73785 0.90621 0.76897 0.0
C509 C 0.78715 0.89674 0.71764 0.0
C510 C 0.76988 0.90004 0.73504 0.0
H511 H 0.67283 0.93671 0.79794 0.0
H512 H 0.7011 0.93323 0.76899 0.0
H513 H 0.73959 0.87035 0.77257 0.0
H514 H 0.83423 0.86679 0.70819 0.0
H515 H 0.80616 0.87272 0.7367 0.0
C516 C 0.2934 0.89986 0.18105 0.0
C517 C 0.31103 0.91513 0.18283 0.0
C518 C 0.27738 0.89831 0.19779 0.0
C519 C 0.25232 0.92829 0.24499 0.0
H520 H 0.23511 0.86907 0.26394 0.0
C521 C 0.19349 0.91272 0.31995 0.0
C522 C 0.17732 0.89602 0.31723 0.0
C523 C 0.21044 0.91548 0.30422 0.0
C524 C 0.23954 0.88573 0.2587 0.0
H525 H 0.32528 0.94116 0.20337 0.0
H526 H 0.29717 0.93845 0.23263 0.0
H527 H 0.263 0.8735 0.2349 0.0
H528 H 0.1667 0.86885 0.29596 0.0
H529 H 0.19574 0.87399 0.26841 0.0
H530 H 0.22863 0.9405 0.26866 0.0
C531 C 0.29579 0.92773 0.21822 0.0
C532 C 0.25554 0.88826 0.24206 0.0
C533 C 0.31193 0.92922 0.20149 0.0
C534 C 0.17863 0.88208 0.29849 0.0
C535 C 0.19552 0.88484 0.2828 0.0
C536 C 0.23621 0.92575 0.26162 0.0
C537 C 0.27852 0.91204 0.21668 0.0
C538 C 0.26197 0.90955 0.23486 0.0
C539 C 0.21164 0.90156 0.28544 0.0
C540 C 0.22949 0.90442 0.26852 0.0
H541 H 0.29214 0.88879 0.16687 0.0
H542 H 0.26407 0.8863 0.19594 0.0
H543 H 0.25682 0.94491 0.23968 0.0
H544 H 0.19291 0.92387 0.33407 0.0
H545 H 0.22272 0.9284 0.30686 0.0
C546 C 0.70658 0.09977 0.18131 0.0
C547 C 0.68834 0.08537 0.18388 0.0
C548 C 0.72286 0.10128 0.1978 0.0
C549 C 0.747 0.07234 0.2462 0.0
H550 H 0.76683 0.13159 0.26227 0.0
C551 C 0.80625 0.08924 0.32059 0.0
C552 C 0.82309 0.10513 0.31714 0.0
C553 C 0.78934 0.08628 0.30484 0.0
C554 C 0.76167 0.11491 0.25783 0.0
H555 H 0.67325 0.06076 0.20555 0.0
H556 H 0.70178 0.06341 0.23441 0.0
H557 H 0.73865 0.127 0.23356 0.0
H558 H 0.83502 0.13059 0.29448 0.0
H559 H 0.80602 0.12509 0.26695 0.0
H560 H 0.77022 0.06025 0.2704 0.0
C561 C 0.70346 0.07348 0.21956 0.0
C562 C 0.7455 0.11228 0.24137 0.0
C563 C 0.68708 0.07203 0.20306 0.0
C564 C 0.82255 0.118 0.29762 0.0
C565 C 0.8057 0.11505 0.28192 0.0
C566 C 0.76327 0.07496 0.26266 0.0
C567 C 0.72135 0.08838 0.21725 0.0
C568 C 0.73812 0.09097 0.23521 0.0
C569 C 0.78886 0.0992 0.28533 0.0
C570 C 0.77093 0.09628 0.26852 0.0
H571 H 0.70815 0.11022 0.16671 0.0
H572 H 0.73664 0.11263 0.19535 0.0
H573 H 0.74176 0.05569 0.2417 0.0
H574 H 0.80624 0.0789 0.33533 0.0
H575 H 0.77651 0.07405 0.30808 0.0
C576 C 0.6779 0.19847 0.09118 0.0
C577 C 0.68131 0.18176 0.1072 0.0
C578 C 0.69441 0.21433 0.08693 0.0
C579 C 0.7549 0.22358 0.09334 0.0
H580 H 0.73997 0.28585 0.08565 0.0
C581 C 0.82053 0.29304 0.09821 0.0
C582 C 0.81886 0.311 0.08332 0.0
C583 C 0.80379 0.27698 0.09927 0.0
C584 C 0.74438 0.26847 0.08744 0.0
H585 H 0.70442 0.16922 0.13191 0.0
H586 H 0.73307 0.19678 0.12457 0.0
H587 H 0.71035 0.25863 0.09129 0.0
H588 H 0.79842 0.32596 0.05761 0.0
H589 H 0.76918 0.29777 0.05941 0.0
H590 H 0.78892 0.23341 0.08977 0.0
C591 C 0.71787 0.19735 0.11491 0.0
C592 C 0.72741 0.25288 0.09069 0.0
C593 C 0.70142 0.18153 0.11913 0.0
C594 C 0.8002 0.31234 0.06927 0.0
C595 C 0.78339 0.29628 0.0704 0.0
C596 C 0.77184 0.23914 0.09012 0.0
C597 C 0.71467 0.21382 0.09863 0.0
C598 C 0.73251 0.2303 0.09397 0.0
C599 C 0.78495 0.27849 0.0855 0.0
C600 C 0.76681 0.2618 0.08742 0.0
H601 H 0.6627 0.19899 0.08155 0.0
H602 H 0.6915 0.22671 0.07416 0.0
H603 H 0.75936 0.20624 0.09534 0.0
H604 H 0.83465 0.2915 0.1093 0.0
H605 H 0.80537 0.26365 0.11129 0.0
C606 C 0.18054 0.7055 0.10194 0.0
C607 C 0.18124 0.68877 0.08561 0.0
C608 C 0.19784 0.72086 0.10388 0.0
C609 C 0.24529 0.74571 0.07387 0.0
H610 H 0.26534 0.76036 0.13344 0.0
C611 C 0.32193 0.80188 0.0907 0.0
C612 C 0.31935 0.818 0.10746 0.0
C613 C 0.3059 0.78526 0.0877 0.0
C614 C 0.25982 0.75659 0.1167 0.0
H615 H 0.20049 0.6754 0.05816 0.0
H616 H 0.23082 0.70223 0.06164 0.0
H617 H 0.23554 0.73339 0.12841 0.0
H618 H 0.29817 0.82887 0.13458 0.0
H619 H 0.27016 0.80023 0.12916 0.0
H620 H 0.26954 0.76909 0.06221 0.0
C621 C 0.21677 0.7035 0.07285 0.0
C622 C 0.24272 0.74115 0.11382 0.0
C623 C 0.19943 0.68809 0.07091 0.0
C624 C 0.30056 0.81692 0.12133 0.0
C625 C 0.28461 0.80031 0.11839 0.0
C626 C 0.26242 0.7612 0.07676 0.0
C627 C 0.2163 0.71988 0.08955 0.0
C628 C 0.23507 0.73571 0.09239 0.0
C629 C 0.28703 0.78433 0.10149 0.0
C630 C 0.26971 0.76699 0.09824 0.0
H631 H 0.16672 0.70662 0.11346 0.0
H632 H 0.19676 0.73353 0.11665 0.0
H633 H 0.23965 0.742 0.05716 0.0
H634 H 0.33612 0.80234 0.07962 0.0
H635 H 0.30834 0.77307 0.07465 0.0
C636 C 0.81803 0.70499 0.90118 0.0
C637 C 0.81767 0.68835 0.91762 0.0
C638 C 0.80045 0.72 0.8992 0.0
C639 C 0.75291 0.74442 0.92924 0.0
H640 H 0.73233 0.75831 0.86966 0.0
C641 C 0.67618 0.80048 0.91239 0.0
C642 C 0.67875 0.81644 0.89547 0.0
C643 C 0.69214 0.78379 0.91542 0.0
C644 C 0.73798 0.75475 0.8864 0.0
H645 H 0.79874 0.67479 0.94521 0.0
H646 H 0.76793 0.70108 0.94166 0.0
H647 H 0.76233 0.73158 0.87476 0.0
H648 H 0.69978 0.82696 0.8681 0.0
H649 H 0.72767 0.79822 0.87357 0.0
H650 H 0.72863 0.7678 0.94083 0.0
C651 C 0.78191 0.70251 0.93039 0.0
C652 C 0.75519 0.73944 0.88932 0.0
C653 C 0.79953 0.68741 0.93237 0.0
C654 C 0.69742 0.81513 0.88146 0.0
C655 C 0.71329 0.79846 0.88444 0.0
C656 C 0.73566 0.75978 0.92631 0.0
C657 C 0.78206 0.71879 0.91359 0.0
C658 C 0.76305 0.73431 0.91074 0.0
C659 C 0.71091 0.78265 0.9015 0.0
C660 C 0.72821 0.76532 0.90482 0.0
H661 H 0.83179 0.70629 0.88962 0.0
H662 H 0.80127 0.73261 0.88635 0.0
H663 H 0.75871 0.74094 0.94594 0.0
H664 H 0.66209 0.80112 0.92357 0.0
H665 H 0.68973 0.77174 0.92859 0.0
C666 C 0.298 0.18122 0.88414 0.0
C667 C 0.31867 0.182 0.89504 0.0
C668 C 0.28164 0.19705 0.88865 0.0
C669 C 0.273 0.25341 0.91114 0.0
H670 H 0.21167 0.23386 0.91559 0.0
C671 C 0.20097 0.31374 0.93264 0.0
C672 C 0.18183 0.31171 0.91936 0.0
C673 C 0.21775 0.29763 0.9317 0.0
C674 C 0.2287 0.2396 0.91426 0.0
H675 H 0.33835 0.2002 0.91919 0.0
H676 H 0.30973 0.22795 0.92704 0.0
H677 H 0.24105 0.20654 0.90988 0.0
H678 H 0.1651 0.29092 0.89501 0.0
H679 H 0.1943 0.263 0.89334 0.0
H680 H 0.26055 0.28653 0.91528 0.0
C681 C 0.30629 0.21512 0.91486 0.0
C682 C 0.24553 0.22396 0.91096 0.0
C683 C 0.3227 0.19924 0.91034 0.0
C684 C 0.17962 0.29301 0.90549 0.0
C685 C 0.19631 0.27691 0.90462 0.0
C686 C 0.25613 0.26909 0.91446 0.0
C687 C 0.28551 0.21409 0.90417 0.0
C688 C 0.26785 0.23069 0.90903 0.0
C689 C 0.21566 0.2791 0.91757 0.0
C690 C 0.23376 0.26238 0.91574 0.0
H691 H 0.29448 0.16848 0.87192 0.0
H692 H 0.26599 0.19606 0.87975 0.0
H693 H 0.29 0.25916 0.90952 0.0
H694 H 0.20318 0.32793 0.94352 0.0
H695 H 0.23236 0.29966 0.94205 0.0
C696 C 0.06138 0.8039 0.30655 0.0
C697 C 0.07871 0.81956 0.30781 0.0
C698 C 0.06178 0.7871 0.29043 0.0
C699 C 0.088 0.77193 0.23666 0.0
H700 H 0.07134 0.71181 0.25309 0.0
C701 C 0.08698 0.70143 0.17199 0.0
C702 C 0.09611 0.68095 0.17858 0.0
C703 C 0.08255 0.718 0.18766 0.0
C704 C 0.07614 0.72849 0.24827 0.0
H705 H 0.11 0.82988 0.29303 0.0
H706 H 0.11083 0.80054 0.26524 0.0
H707 H 0.06848 0.74164 0.28049 0.0
H708 H 0.10734 0.66166 0.20689 0.0
H709 H 0.09987 0.69066 0.23427 0.0
H710 H 0.09644 0.75875 0.20475 0.0
C711 C 0.09674 0.80139 0.27644 0.0
C712 C 0.07424 0.74564 0.26389 0.0
C713 C 0.09632 0.81816 0.29249 0.0
C714 C 0.10011 0.67717 0.20131 0.0
C715 C 0.09579 0.69381 0.217 0.0
C716 C 0.08993 0.75481 0.22108 0.0
C717 C 0.07952 0.78561 0.27522 0.0
C718 C 0.08036 0.76753 0.25833 0.0
C719 C 0.08725 0.71455 0.21032 0.0
C720 C 0.08418 0.73284 0.22672 0.0
H721 H 0.04754 0.80453 0.31808 0.0
H722 H 0.04813 0.77536 0.28978 0.0
H723 H 0.09258 0.78864 0.23172 0.0
H724 H 0.08331 0.70468 0.15466 0.0
H725 H 0.07553 0.73359 0.18197 0.0
C726 C 0.09489 0.17954 0.7093 0.0
C727 C 0.08169 0.18236 0.69019 0.0
C728 C 0.09518 0.19572 0.72597 0.0
C729 C 0.08447 0.25535 0.73522 0.0
H730 H 0.08824 0.2387 0.79745 0.0
C731 C 0.08572 0.32029 0.80659 0.0
C732 C 0.10115 0.31647 0.82377 0.0
C733 C 0.08166 0.30399 0.79046 0.0
C734 C 0.08735 0.24361 0.78013 0.0
H735 H 0.05803 0.20421 0.6739 0.0
H736 H 0.05838 0.23237 0.70317 0.0
H737 H 0.08366 0.20993 0.76923 0.0
H738 H 0.12479 0.29261 0.83701 0.0
H739 H 0.11765 0.26431 0.80906 0.0
H740 H 0.08838 0.28903 0.74616 0.0
C741 C 0.06874 0.21775 0.70508 0.0
C742 C 0.08473 0.22713 0.76396 0.0
C743 C 0.06843 0.20154 0.68837 0.0
C744 C 0.11247 0.296 0.82434 0.0
C745 C 0.10838 0.27974 0.80828 0.0
C746 C 0.08706 0.27185 0.75142 0.0
C747 C 0.08227 0.21511 0.72399 0.0
C748 C 0.08354 0.23277 0.74128 0.0
C749 C 0.0929 0.2835 0.79117 0.0
C750 C 0.08882 0.26614 0.77404 0.0
H751 H 0.10535 0.165 0.71123 0.0
H752 H 0.10602 0.19328 0.74016 0.0
H753 H 0.0839 0.26025 0.71789 0.0
H754 H 0.07651 0.33572 0.80577 0.0
H755 H 0.06947 0.30732 0.77761 0.0
C756 C 0.91013 0.67726 0.80391 0.0
C757 C 0.90253 0.68376 0.82508 0.0
C758 C 0.91368 0.69305 0.78718 0.0
C759 C 0.9214 0.75384 0.77831 0.0
H760 H 0.90419 0.73991 0.7177 0.0
C761 C 0.91055 0.82044 0.70983 0.0
C762 C 0.91872 0.81546 0.68848 0.0
C763 C 0.91057 0.80429 0.72656 0.0
C764 C 0.90933 0.74394 0.7345 0.0
H765 H 0.8931 0.71231 0.84514 0.0
H766 H 0.89845 0.73952 0.81592 0.0
H767 H 0.90015 0.71179 0.74666 0.0
H768 H 0.93369 0.78971 0.66809 0.0
H769 H 0.93357 0.76148 0.69732 0.0
H770 H 0.93001 0.78622 0.76615 0.0
C771 C 0.90206 0.72225 0.81231 0.0
C772 C 0.90706 0.72782 0.75111 0.0
C773 C 0.89865 0.7065 0.82905 0.0
C774 C 0.92727 0.79409 0.68436 0.0
C775 C 0.92709 0.77787 0.70104 0.0
C776 C 0.92349 0.77001 0.76173 0.0
C777 C 0.90963 0.71575 0.79115 0.0
C778 C 0.91291 0.73261 0.77327 0.0
C779 C 0.91858 0.78275 0.72226 0.0
C780 C 0.91735 0.76528 0.73968 0.0
H781 H 0.91315 0.65994 0.8001 0.0
H782 H 0.91975 0.68745 0.77117 0.0
H783 H 0.9265 0.75799 0.79508 0.0
H784 H 0.90384 0.83674 0.71357 0.0
H785 H 0.90372 0.80848 0.7427 0.0
C786 C 0.93843 0.19783 0.30694 0.0
C787 C 0.92138 0.18187 0.30811 0.0
C788 C 0.93792 0.21451 0.29068 0.0
C789 C 0.91197 0.22887 0.23654 0.0
H790 H 0.92744 0.28936 0.25271 0.0
C791 C 0.91214 0.29903 0.17145 0.0
C792 C 0.90274 0.31944 0.1779 0.0
C793 C 0.9167 0.28259 0.18722 0.0
C794 C 0.92297 0.27257 0.24796 0.0
H795 H 0.89045 0.17089 0.29303 0.0
H796 H 0.88942 0.20001 0.26503 0.0
H797 H 0.93061 0.25976 0.28032 0.0
H798 H 0.89112 0.33872 0.20605 0.0
H799 H 0.8988 0.30994 0.23361 0.0
H800 H 0.90352 0.2417 0.20449 0.0
C801 C 0.9034 0.19949 0.27639 0.0
C802 C 0.92505 0.25555 0.2637 0.0
C803 C 0.90393 0.18285 0.29256 0.0
C804 C 0.89856 0.32326 0.20058 0.0
C805 C 0.903 0.30676 0.21638 0.0
C806 C 0.90984 0.24586 0.22084 0.0
C807 C 0.92035 0.21557 0.27526 0.0
C808 C 0.91935 0.23352 0.25824 0.0
C809 C 0.91186 0.2861 0.20985 0.0
C810 C 0.91515 0.26795 0.22638 0.0
H811 H 0.95214 0.19753 0.31863 0.0
H812 H 0.95137 0.22648 0.29012 0.0
H813 H 0.90772 0.21205 0.23166 0.0
H814 H 0.91595 0.29575 0.15415 0.0
H815 H 0.92397 0.26708 0.18165 0.0
C816 C 0.06017 0.06082 0.65701 0.0
C817 C 0.04922 0.08149 0.65702 0.0
C818 C 0.04805 0.04101 0.65797 0.0
C819 C 0.99257 0.01795 0.6462 0.0
H820 H 0.01264 0.96879 0.68285 0.0
C821 C 0.93986 0.93874 0.65777 0.0
C822 C 0.95106 0.91822 0.65733 0.0
C823 C 0.95175 0.95868 0.65861 0.0
C824 C 0.00695 0.98227 0.67235 0.0
H825 H 0.01692 0.09753 0.65827 0.0
H826 H 0.99577 0.06293 0.66004 0.0
H827 H 0.03346 0.00364 0.68282 0.0
H828 H 0.98356 0.90256 0.65762 0.0
H829 H 0.00434 0.9374 0.65881 0.0
H830 H 0.96619 0.99659 0.63555 0.0
C831 C 0.01374 0.06207 0.65908 0.0
C832 C 0.01886 0.00225 0.67235 0.0
C833 C 0.02587 0.0819 0.65819 0.0
C834 C 0.97443 0.91808 0.658 0.0
C835 C 0.98633 0.93806 0.6588 0.0
C836 C 0.98069 0.99798 0.64616 0.0
C837 C 0.0247 0.0414 0.65889 0.0
C838 C 0.01182 0.0203 0.65925 0.0
C839 C 0.97513 0.9586 0.65898 0.0
C840 C 0.98774 0.97989 0.65921 0.0
H841 H 0.07814 0.05989 0.6561 0.0
H842 H 0.05698 0.02537 0.65753 0.0
H843 H 0.98692 0.03142 0.63564 0.0
H844 H 0.92186 0.93945 0.6574 0.0
H845 H 0.94259 0.97418 0.6591 0.0
C846 C 0.9496 0.06578 0.34595 0.0
C847 C 0.94562 0.07869 0.32685 0.0
C848 C 0.96325 0.04703 0.34489 0.0
C849 C 0.0082 0.02117 0.31261 0.0
H850 H 0.98908 0.96733 0.34258 0.0
C851 C 0.05775 0.93873 0.30698 0.0
C852 C 0.05981 0.92641 0.32676 0.0
C853 C 0.04332 0.95696 0.30587 0.0
C854 C 0.99478 0.98229 0.33431 0.0
H855 H 0.95312 0.08216 0.29171 0.0
H856 H 0.97711 0.04937 0.28992 0.0
H857 H 0.9651 1.0 0.34283 0.0
H858 H 0.0483 0.92359 0.36088 0.0
H859 H 0.02349 0.95546 0.35904 0.0
H860 H 0.03806 0.00358 0.30441 0.0
C861 C 0.96964 0.05385 0.3057 0.0
C862 C 0.98102 0.00099 0.33443 0.0
C863 C 0.95583 0.07256 0.30672 0.0
C864 C 0.04706 0.93264 0.34534 0.0
C865 C 0.0327 0.95086 0.34425 0.0
C866 C 0.02204 0.00247 0.31258 0.0
C867 C 0.97335 0.0408 0.32476 0.0
C868 C 0.98766 0.0207 0.32377 0.0
C869 C 0.03066 0.96327 0.32452 0.0
C870 C 0.01558 0.98286 0.32361 0.0
H871 H 0.94205 0.07005 0.36175 0.0
H872 H 0.96605 0.03749 0.35993 0.0
H873 H 0.01385 0.0362 0.30442 0.0
H874 H 0.0673 0.93434 0.29234 0.0
H875 H 0.04196 0.966 0.29034 0.0
C876 C 0.65691 0.93856 0.94209 0.0
C877 C 0.65597 0.94945 0.92142 0.0
C878 C 0.658 0.95073 0.96185 0.0
C879 C 0.67145 0.00638 0.9845 0.0
H880 H 0.63549 0.98668 0.03434 0.0
C881 C 0.65609 0.06064 0.06233 0.0
C882 C 0.65624 0.05003 0.08319 0.0
C883 C 0.65716 0.04821 0.04272 0.0
C884 C 0.64585 0.99225 0.02068 0.0
H885 H 0.65567 0.98173 0.90528 0.0
H886 H 0.6573 0.00301 0.93982 0.0
H887 H 0.63525 0.96545 0.99982 0.0
H888 H 0.65795 0.01802 0.09978 0.0
H889 H 0.65995 0.99633 0.06551 0.0
H890 H 0.68187 0.03331 0.00536 0.0
C891 C 0.65748 0.98502 0.94073 0.0
C892 C 0.64572 0.98008 0.00088 0.0
C893 C 0.65643 0.97282 0.92093 0.0
C894 C 0.65774 0.02671 0.08399 0.0
C895 C 0.65876 0.01427 0.06435 0.0
C896 C 0.67155 0.01858 0.0043 0.0
C897 C 0.65812 0.97411 0.96143 0.0
C898 C 0.6585 0.987 0.98254 0.0
C899 C 0.65837 0.02488 0.0435 0.0
C900 C 0.65872 0.01167 0.02261 0.0
H901 H 0.65672 0.92057 0.94308 0.0
H902 H 0.65885 0.9418 0.97748 0.0
H903 H 0.68173 0.01199 0.9708 0.0
H904 H 0.65492 0.07858 0.0611 0.0
H905 H 0.65656 0.05687 0.02693 0.0
C906 C 0.34189 0.97447 0.08295 0.0
C907 C 0.34279 0.95113 0.08212 0.0
C908 C 0.34088 0.98695 0.06333 0.0
C909 C 0.3271 0.983 0.00347 0.0
H910 H 0.3649 0.03501 0.99834 0.0
C911 C 0.3427 0.02775 0.91969 0.0
C912 C 0.34382 0.0511 0.91998 0.0
C913 C 0.34151 0.01574 0.9396 0.0
C914 C 0.35401 0.02071 0.99959 0.0
H915 H 0.34301 0.92257 0.06001 0.0
H916 H 0.34138 0.94433 0.02587 0.0
H917 H 0.36445 0.01391 0.03295 0.0
H918 H 0.34417 0.08016 0.94142 0.0
H919 H 0.34184 0.05926 0.97602 0.0
H920 H 0.31672 0.98977 0.97007 0.0
C921 C 0.34125 0.953 0.04167 0.0
C922 C 0.35376 0.00862 0.01944 0.0
C923 C 0.34232 0.94053 0.06126 0.0
C924 C 0.34345 0.06218 0.94058 0.0
C925 C 0.34224 0.05019 0.96045 0.0
C926 C 0.32732 0.99513 0.98362 0.0
C927 C 0.34067 0.97635 0.04247 0.0
C928 C 0.34037 0.98957 0.02158 0.0
C929 C 0.34141 0.02682 0.96022 0.0
C930 C 0.34084 0.01409 0.98142 0.0
H931 H 0.34216 0.98316 0.09874 0.0
H932 H 0.34018 0.00492 0.06451 0.0
H933 H 0.31638 0.96857 0.0047 0.0
H934 H 0.343 0.0187 0.90411 0.0
H935 H 0.34115 0.99775 0.93883 0.0
C936 C 0.9322 0.69318 0.95209 0.0
C937 C 0.92348 0.67258 0.94527 0.0
C938 C 0.95066 0.69409 0.96626 0.0
C939 C 0.99904 0.66102 0.98356 0.0
H940 H 0.00093 0.70042 0.03461 0.0
C941 C 0.06605 0.6525 0.05118 0.0
C942 C 0.07485 0.67194 0.06072 0.0
C943 C 0.04791 0.65358 0.03673 0.0
C944 C 0.00081 0.68956 0.02024 0.0
H945 H 0.92708 0.63677 0.94831 0.0
H946 H 0.95921 0.6384 0.97289 0.0
H947 H 0.9684 0.7006 0.01023 0.0
H948 H 0.07156 0.70783 0.06241 0.0
H949 H 0.04005 0.70976 0.03684 0.0
H950 H 0.03139 0.65002 0.99335 0.0
C951 C 0.95191 0.65384 0.96715 0.0
C952 C 0.98215 0.68964 0.00632 0.0
C953 C 0.9334 0.65293 0.95317 0.0
C954 C 0.06515 0.69254 0.05538 0.0
C955 C 0.047 0.69363 0.04083 0.0
C956 C 0.01771 0.66103 0.99737 0.0
C957 C 0.96086 0.67441 0.9737 0.0
C958 C 0.98097 0.67516 0.988 0.0
C959 C 0.03816 0.67414 0.03134 0.0
C960 C 0.01873 0.67508 0.01604 0.0
H961 H 0.92491 0.70862 0.94633 0.0
H962 H 0.95727 0.71018 0.97097 0.0
H963 H 0.99878 0.64998 0.96932 0.0
H964 H 0.07303 0.63634 0.05502 0.0
H965 H 0.04131 0.6382 0.03006 0.0
C966 C 0.06477 0.34814 0.94995 0.0
C967 C 0.0761 0.3286 0.9439 0.0
C968 C 0.0462 0.3472 0.96388 0.0
C969 C 0.01843 0.31266 0.00601 0.0
H970 H 0.96698 0.34861 0.9911 0.0
C971 C 0.93607 0.30835 0.05596 0.0
C972 C 0.92542 0.32872 0.0603 0.0
C973 C 0.95412 0.30735 0.04129 0.0
C974 C 0.98128 0.33864 0.99564 0.0
H975 H 0.07696 0.29276 0.94798 0.0
H976 H 0.04448 0.29115 0.97241 0.0
H977 H 0.99928 0.34874 0.96663 0.0
H978 H 0.92544 0.364 0.05264 0.0
H979 H 0.95699 0.36229 0.0274 0.0
H980 H 0.00053 0.3028 0.0352 0.0
C981 C 0.05006 0.30719 0.96638 0.0
C982 C 0.99978 0.3387 0.98159 0.0
C983 C 0.06859 0.30811 0.95232 0.0
C984 C 0.93318 0.34802 0.04962 0.0
C985 C 0.95121 0.34701 0.03501 0.0
C986 C 0.99993 0.31266 0.02013 0.0
C987 C 0.03858 0.32672 0.97217 0.0
C988 C 0.01864 0.32588 0.98672 0.0
C989 C 0.96191 0.32668 0.03066 0.0
C990 C 0.98121 0.32582 0.01521 0.0
H991 H 0.07013 0.36422 0.94383 0.0
H992 H 0.03791 0.36257 0.9683 0.0
H993 H 0.0328 0.30276 0.0105 0.0
H994 H 0.93048 0.29317 0.06389 0.0
H995 H 0.96183 0.29138 0.03812 0.0
loop_
_geom_bond_atom_site_label_1
_geom_bond_atom_site_label_2
_geom_bond_distance
_geom_bond_site_symmetry_2
_ccdc_geom_bond_type
Cu0 N1 1.999 . S
Cu0 O6 1.974 . S
Cu0 N11 1.985 . S
Cu0 O20 1.959 . S
N1 Cu0 1.999 . S
N1 C3 1.263 . S
N1 C5 1.389 . S
N2 C3 1.358 . S
N2 C4 1.400 . S
C3 N1 1.263 . S
C3 N2 1.358 . S
C3 H9 0.930 . S
C4 N2 1.400 . S
C4 C5 1.351 . S
C4 H21 0.930 . S
C5 N1 1.389 . S
C5 C4 1.351 . S
C5 H10 0.930 . S
O6 Cu0 1.974 . S
O6 C16 1.282 . S
C7 O8 1.261 . S
C7 O20 1.251 . S
O8 C7 1.261 . S
H9 C3 0.930 . S
H10 C5 0.930 . S
N11 Cu0 1.985 . S
N11 C13 1.335 . S
N11 C14 1.390 . S
N12 C13 1.345 . S
N12 C15 1.336 . S
C13 N11 1.335 . S
C13 N12 1.345 . S
C13 H18 0.930 . S
C14 N11 1.390 . S
C14 C15 1.346 . S
C14 H19 0.930 . S
C15 N12 1.336 . S
C15 C14 1.346 . S
C15 H22 0.929 . S
C16 O6 1.282 . S
C16 O17 1.216 . S
O17 C16 1.216 . S
H18 C13 0.930 . S
H19 C14 0.930 . S
O20 Cu0 1.959 . S
O20 C7 1.251 . S
H21 C4 0.930 . S
H22 C15 0.929 . S
Cu23 N24 1.999 . S
Cu23 O29 1.974 . S
Cu23 N34 1.985 . S
Cu23 O43 1.959 . S
N24 Cu23 1.999 . S
N24 C26 1.263 . S
N24 C28 1.389 . S
N25 C26 1.358 . S
N25 C27 1.400 . S
C26 N24 1.263 . S
C26 N25 1.358 . S
C26 H32 0.930 . S
C27 N25 1.400 . S
C27 C28 1.351 . S
C27 H44 0.930 . S
C28 N24 1.389 . S
C28 C27 1.351 . S
C28 H33 0.930 . S
O29 Cu23 1.974 . S
O29 C39 1.282 . S
C30 O31 1.261 . S
C30 O43 1.251 . S
O31 C30 1.261 . S
H32 C26 0.930 . S
H33 C28 0.930 . S
N34 Cu23 1.985 . S
N34 C36 1.335 . S
N34 C37 1.390 . S
N35 C36 1.345 . S
N35 C38 1.336 . S
C36 N34 1.335 . S
C36 N35 1.345 . S
C36 H41 0.930 . S
C37 N34 1.390 . S
C37 C38 1.346 . S
C37 H42 0.930 . S
C38 N35 1.336 . S
C38 C37 1.346 . S
C38 H45 0.929 . S
C39 O29 1.282 . S
C39 O40 1.216 . S
O40 C39 1.216 . S
H41 C36 0.930 . S
H42 C37 0.930 . S
O43 Cu23 1.959 . S
O43 C30 1.251 . S
H44 C27 0.930 . S
H45 C38 0.929 . S
Cu46 N47 1.999 . S
Cu46 O52 1.974 . S
Cu46 N57 1.985 . S
Cu46 O66 1.959 . S
N47 Cu46 1.999 . S
N47 C49 1.263 . S
N47 C51 1.389 . S
N48 C49 1.358 . S
N48 C50 1.400 . S
C49 N47 1.263 . S
C49 N48 1.358 . S
C49 H55 0.930 . S
C50 N48 1.400 . S
C50 C51 1.351 . S
C50 H67 0.930 . S
C51 N47 1.389 . S
C51 C50 1.351 . S
C51 H56 0.930 . S
O52 Cu46 1.974 . S
O52 C62 1.282 . S
C53 O54 1.261 . S
C53 O66 1.251 . S
O54 C53 1.261 . S
H55 C49 0.930 . S
H56 C51 0.930 . S
N57 Cu46 1.985 . S
N57 C59 1.335 . S
N57 C60 1.390 . S
N58 C59 1.345 . S
N58 C61 1.336 . S
C59 N57 1.335 . S
C59 N58 1.345 . S
C59 H64 0.930 . S
C60 N57 1.390 . S
C60 C61 1.346 . S
C60 H65 0.930 . S
C61 N58 1.336 . S
C61 C60 1.346 . S
C61 H68 0.929 . S
C62 O52 1.282 . S
C62 O63 1.216 . S
O63 C62 1.216 . S
H64 C59 0.930 . S
H65 C60 0.930 . S
O66 Cu46 1.959 . S
O66 C53 1.251 . S
H67 C50 0.930 . S
H68 C61 0.929 . S
Cu69 N70 1.999 . S
Cu69 O75 1.974 . S
Cu69 N80 1.985 . S
Cu69 O89 1.959 . S
N70 Cu69 1.999 . S
N70 C72 1.263 . S
N70 C74 1.389 . S
N71 C72 1.358 . S
N71 C73 1.400 . S
C72 N70 1.263 . S
C72 N71 1.358 . S
C72 H78 0.930 . S
C73 N71 1.400 . S
C73 C74 1.351 . S
C73 H90 0.930 . S
C74 N70 1.389 . S
C74 C73 1.351 . S
C74 H79 0.930 . S
O75 Cu69 1.974 . S
O75 C85 1.282 . S
C76 O77 1.261 . S
C76 O89 1.251 . S
O77 C76 1.261 . S
H78 C72 0.930 . S
H79 C74 0.930 . S
N80 Cu69 1.985 . S
N80 C82 1.335 . S
N80 C83 1.390 . S
N81 C82 1.345 . S
N81 C84 1.336 . S
C82 N80 1.335 . S
C82 N81 1.345 . S
C82 H87 0.930 . S
C83 N80 1.390 . S
C83 C84 1.346 . S
C83 H88 0.930 . S
C84 N81 1.336 . S
C84 C83 1.346 . S
C84 H91 0.929 . S
C85 O75 1.282 . S
C85 O86 1.216 . S
O86 C85 1.216 . S
H87 C82 0.930 . S
H88 C83 0.930 . S
O89 Cu69 1.959 . S
O89 C76 1.251 . S
H90 C73 0.930 . S
H91 C84 0.929 . S
Cu92 N93 1.999 . S
Cu92 O98 1.974 . S
Cu92 N103 1.985 . S
Cu92 O112 1.959 . S
N93 Cu92 1.999 . S
N93 C95 1.263 . S
N93 C97 1.389 . S
N94 C95 1.358 . S
N94 C96 1.400 . S
C95 N93 1.263 . S
C95 N94 1.358 . S
C95 H101 0.930 . S
C96 N94 1.400 . S
C96 C97 1.351 . S
C96 H113 0.930 . S
C97 N93 1.389 . S
C97 C96 1.351 . S
C97 H102 0.930 . S
O98 Cu92 1.974 . S
O98 C108 1.282 . S
C99 O100 1.261 . S
C99 O112 1.251 . S
O100 C99 1.261 . S
H101 C95 0.930 . S
H102 C97 0.930 . S
N103 Cu92 1.985 . S
N103 C105 1.335 . S
N103 C106 1.390 . S
N104 C105 1.345 . S
N104 C107 1.336 . S
C105 N103 1.335 . S
C105 N104 1.345 . S
C105 H110 0.930 . S
C106 N103 1.390 . S
C106 C107 1.346 . S
C106 H111 0.930 . S
C107 N104 1.336 . S
C107 C106 1.346 . S
C107 H114 0.929 . S
C108 O98 1.282 . S
C108 O109 1.216 . S
O109 C108 1.216 . S
H110 C105 0.930 . S
H111 C106 0.930 . S
O112 Cu92 1.959 . S
O112 C99 1.251 . S
H113 C96 0.930 . S
H114 C107 0.929 . S
Cu115 N116 1.999 . S
Cu115 O121 1.974 . S
Cu115 N126 1.985 . S
Cu115 O135 1.959 . S
N116 Cu115 1.999 . S
N116 C118 1.263 . S
N116 C120 1.389 . S
N117 C118 1.358 . S
N117 C119 1.400 . S
C118 N116 1.263 . S
C118 N117 1.358 . S
C118 H124 0.930 . S
C119 N117 1.400 . S
C119 C120 1.351 . S
C119 H136 0.930 . S
C120 N116 1.389 . S
C120 C119 1.351 . S
C120 H125 0.930 . S
O121 Cu115 1.974 . S
O121 C131 1.282 . S
C122 O123 1.261 . S
C122 O135 1.251 . S
O123 C122 1.261 . S
H124 C118 0.930 . S
H125 C120 0.930 . S
N126 Cu115 1.985 . S
N126 C128 1.335 . S
N126 C129 1.390 . S
N127 C128 1.345 . S
N127 C130 1.336 . S
C128 N126 1.335 . S
C128 N127 1.345 . S
C128 H133 0.930 . S
C129 N126 1.390 . S
C129 C130 1.346 . S
C129 H134 0.930 . S
C130 N127 1.336 . S
C130 C129 1.346 . S
C130 H137 0.929 . S
C131 O121 1.282 . S
C131 O132 1.216 . S
O132 C131 1.216 . S
H133 C128 0.930 . S
H134 C129 0.930 . S
O135 Cu115 1.959 . S
O135 C122 1.251 . S
H136 C119 0.930 . S
H137 C130 0.929 . S
Cu138 N139 1.999 . S
Cu138 O144 1.974 . S
Cu138 N149 1.985 . S
Cu138 O158 1.959 . S
N139 Cu138 1.999 . S
N139 C141 1.263 . S
N139 C143 1.389 . S
N140 C141 1.358 . S
N140 C142 1.400 . S
C141 N139 1.263 . S
C141 N140 1.358 . S
C141 H147 0.930 . S
C142 N140 1.400 . S
C142 C143 1.351 . S
C142 H159 0.930 . S
C143 N139 1.389 . S
C143 C142 1.351 . S
C143 H148 0.930 . S
O144 Cu138 1.974 . S
O144 C154 1.282 . S
C145 O146 1.261 . S
C145 O158 1.251 . S
O146 C145 1.261 . S
H147 C141 0.930 . S
H148 C143 0.930 . S
N149 Cu138 1.985 . S
N149 C151 1.335 . S
N149 C152 1.390 . S
N150 C151 1.345 . S
N150 C153 1.336 . S
C151 N149 1.335 . S
C151 N150 1.345 . S
C151 H156 0.930 . S
C152 N149 1.390 . S
C152 C153 1.346 . S
C152 H157 0.930 . S
C153 N150 1.336 . S
C153 C152 1.346 . S
C153 H160 0.929 . S
C154 O144 1.282 . S
C154 O155 1.216 . S
O155 C154 1.216 . S
H156 C151 0.930 . S
H157 C152 0.930 . S
O158 Cu138 1.959 . S
O158 C145 1.251 . S
H159 C142 0.930 . S
H160 C153 0.929 . S
Cu161 N162 1.999 . S
Cu161 O167 1.974 . S
Cu161 N172 1.985 . S
Cu161 O181 1.959 . S
N162 Cu161 1.999 . S
N162 C164 1.263 . S
N162 C166 1.389 . S
N163 C164 1.358 . S
N163 C165 1.400 . S
C164 N162 1.263 . S
C164 N163 1.358 . S
C164 H170 0.930 . S
C165 N163 1.400 . S
C165 C166 1.351 . S
C165 H182 0.930 . S
C166 N162 1.389 . S
C166 C165 1.351 . S
C166 H171 0.930 . S
O167 Cu161 1.974 . S
O167 C177 1.282 . S
C168 O169 1.261 . S
C168 O181 1.251 . S
O169 C168 1.261 . S
H170 C164 0.930 . S
H171 C166 0.930 . S
N172 Cu161 1.985 . S
N172 C174 1.335 . S
N172 C175 1.390 . S
N173 C174 1.345 . S
N173 C176 1.336 . S
C174 N172 1.335 . S
C174 N173 1.345 . S
C174 H179 0.930 . S
C175 N172 1.390 . S
C175 C176 1.346 . S
C175 H180 0.930 . S
C176 N173 1.336 . S
C176 C175 1.346 . S
C176 H183 0.929 . S
C177 O167 1.282 . S
C177 O178 1.216 . S
O178 C177 1.216 . S
H179 C174 0.930 . S
H180 C175 0.930 . S
O181 Cu161 1.959 . S
O181 C168 1.251 . S
H182 C165 0.930 . S
H183 C176 0.929 . S
Cu184 N185 1.999 . S
Cu184 O190 1.974 . S
Cu184 N195 1.985 . S
Cu184 O204 1.959 . S
N185 Cu184 1.999 . S
N185 C187 1.263 . S
N185 C189 1.389 . S
N186 C187 1.358 . S
N186 C188 1.400 . S
C187 N185 1.263 . S
C187 N186 1.358 . S
C187 H193 0.930 . S
C188 N186 1.400 . S
C188 C189 1.351 . S
C188 H205 0.930 . S
C189 N185 1.389 . S
C189 C188 1.351 . S
C189 H194 0.930 . S
O190 Cu184 1.974 . S
O190 C200 1.282 . S
C191 O192 1.261 . S
C191 O204 1.251 . S
O192 C191 1.261 . S
H193 C187 0.930 . S
H194 C189 0.930 . S
N195 Cu184 1.985 . S
N195 C197 1.335 . S
N195 C198 1.390 . S
N196 C197 1.345 . S
N196 C199 1.336 . S
C197 N195 1.335 . S
C197 N196 1.345 . S
C197 H202 0.930 . S
C198 N195 1.390 . S
C198 C199 1.346 . S
C198 H203 0.930 . S
C199 N196 1.336 . S
C199 C198 1.346 . S
C199 H206 0.929 . S
C200 O190 1.282 . S
C200 O201 1.216 . S
O201 C200 1.216 . S
H202 C197 0.930 . S
H203 C198 0.930 . S
O204 Cu184 1.959 . S
O204 C191 1.251 . S
H205 C188 0.930 . S
H206 C199 0.929 . S
Cu207 N208 1.999 . S
Cu207 O213 1.974 . S
Cu207 N218 1.985 . S
Cu207 O227 1.959 . S
N208 Cu207 1.999 . S
N208 C210 1.263 . S
N208 C212 1.389 . S
N209 C210 1.358 . S
N209 C211 1.400 . S
C210 N208 1.263 . S
C210 N209 1.358 . S
C210 H216 0.930 . S
C211 N209 1.400 . S
C211 C212 1.351 . S
C211 H228 0.930 . S
C212 N208 1.389 . S
C212 C211 1.351 . S
C212 H217 0.930 . S
O213 Cu207 1.974 . S
O213 C223 1.282 . S
C214 O215 1.261 . S
C214 O227 1.251 . S
O215 C214 1.261 . S
H216 C210 0.930 . S
H217 C212 0.930 . S
N218 Cu207 1.985 . S
N218 C220 1.335 . S
N218 C221 1.390 . S
N219 C220 1.345 . S
N219 C222 1.336 . S
C220 N218 1.335 . S
C220 N219 1.345 . S
C220 H225 0.930 . S
C221 N218 1.390 . S
C221 C222 1.346 . S
C221 H226 0.930 . S
C222 N219 1.336 . S
C222 C221 1.346 . S
C222 H229 0.929 . S
C223 O213 1.282 . S
C223 O224 1.216 . S
O224 C223 1.216 . S
H225 C220 0.930 . S
H226 C221 0.930 . S
O227 Cu207 1.959 . S
O227 C214 1.251 . S
H228 C211 0.930 . S
H229 C222 0.929 . S
Cu230 N231 1.999 . S
Cu230 O236 1.974 . S
Cu230 N241 1.985 . S
Cu230 O250 1.959 . S
N231 Cu230 1.999 . S
N231 C233 1.263 . S
N231 C235 1.389 . S
N232 C233 1.358 . S
N232 C234 1.400 . S
C233 N231 1.263 . S
C233 N232 1.358 . S
C233 H239 0.930 . S
C234 N232 1.400 . S
C234 C235 1.351 . S
C234 H251 0.930 . S
C235 N231 1.389 . S
C235 C234 1.351 . S
C235 H240 0.930 . S
O236 Cu230 1.974 . S
O236 C246 1.282 . S
C237 O238 1.261 . S
C237 O250 1.251 . S
O238 C237 1.261 . S
H239 C233 0.930 . S
H240 C235 0.930 . S
N241 Cu230 1.985 . S
N241 C243 1.335 . S
N241 C244 1.390 . S
N242 C243 1.345 . S
N242 C245 1.336 . S
C243 N241 1.335 . S
C243 N242 1.345 . S
C243 H248 0.930 . S
C244 N241 1.390 . S
C244 C245 1.346 . S
C244 H249 0.930 . S
C245 N242 1.336 . S
C245 C244 1.346 . S
C245 H252 0.929 . S
C246 O236 1.282 . S
C246 O247 1.216 . S
O247 C246 1.216 . S
H248 C243 0.930 . S
H249 C244 0.930 . S
O250 Cu230 1.959 . S
O250 C237 1.251 . S
H251 C234 0.930 . S
H252 C245 0.929 . S
Cu253 N254 1.999 . S
Cu253 O259 1.974 . S
Cu253 N264 1.985 . S
Cu253 O273 1.959 . S
N254 Cu253 1.999 . S
N254 C256 1.263 . S
N254 C258 1.389 . S
N255 C256 1.358 . S
N255 C257 1.400 . S
C256 N254 1.263 . S
C256 N255 1.358 . S
C256 H262 0.930 . S
C257 N255 1.400 . S
C257 C258 1.351 . S
C257 H274 0.930 . S
C258 N254 1.389 . S
C258 C257 1.351 . S
C258 H263 0.930 . S
O259 Cu253 1.974 . S
O259 C269 1.282 . S
C260 O261 1.261 . S
C260 O273 1.251 . S
O261 C260 1.261 . S
H262 C256 0.930 . S
H263 C258 0.930 . S
N264 Cu253 1.985 . S
N264 C266 1.335 . S
N264 C267 1.390 . S
N265 C266 1.345 . S
N265 C268 1.336 . S
C266 N264 1.335 . S
C266 N265 1.345 . S
C266 H271 0.930 . S
C267 N264 1.390 . S
C267 C268 1.346 . S
C267 H272 0.930 . S
C268 N265 1.336 . S
C268 C267 1.346 . S
C268 H275 0.929 . S
C269 O259 1.282 . S
C269 O270 1.216 . S
O270 C269 1.216 . S
H271 C266 0.930 . S
H272 C267 0.930 . S
O273 Cu253 1.959 . S
O273 C260 1.251 . S
H274 C257 0.930 . S
H275 C268 0.929 . S
C276 C277 1.349 . S
C276 C278 1.327 . S
C276 H301 0.950 . S
C277 C276 1.349 . S
C277 C293 1.349 . S
C278 C276 1.327 . S
C278 C297 1.429 . S
C278 H302 0.950 . S
C279 C296 1.574 . S
C279 C298 1.368 1_455 S
C279 H303 0.949 . S
H280 C284 0.949 . S
C281 C282 1.349 . S
C281 C283 1.327 . S
C281 H304 0.950 . S
C282 C281 1.349 . S
C282 C294 1.349 . S
C283 C281 1.327 . S
C283 C299 1.429 . S
C283 H305 0.950 . S
C284 H280 0.949 . S
C284 C292 1.574 . S
C284 C300 1.368 1_655 S
H285 C293 0.950 . S
H286 C291 0.950 . S
H287 C292 0.949 . S
H288 C294 0.950 . S
H289 C295 0.950 . S
H290 C296 0.949 . S
C291 H286 0.950 . S
C291 C293 1.327 . S
C291 C297 1.429 . S
C292 C284 1.574 . S
C292 H287 0.949 . S
C292 C298 1.368 . S
C293 C277 1.349 . S
C293 H285 0.950 . S
C293 C291 1.327 . S
C294 C282 1.349 . S
C294 H288 0.950 . S
C294 C295 1.327 . S
C295 H289 0.950 . S
C295 C294 1.327 . S
C295 C299 1.429 . S
C296 C279 1.574 . S
C296 H290 0.949 . S
C296 C300 1.368 . S
C297 C278 1.429 . S
C297 C291 1.429 . S
C297 C298 1.523 . S
C298 C279 1.368 1_655 S
C298 C292 1.368 . S
C298 C297 1.523 . S
C299 C283 1.429 . S
C299 C295 1.429 . S
C299 C300 1.523 . S
C300 C284 1.368 1_455 S
C300 C296 1.368 . S
C300 C299 1.523 . S
H301 C276 0.950 . S
H302 C278 0.950 . S
H303 C279 0.949 . S
H304 C281 0.950 . S
H305 C283 0.950 . S
C306 C307 1.349 . S
C306 C308 1.327 . S
C306 H331 0.950 . S
C307 C306 1.349 . S
C307 C323 1.349 . S
C308 C306 1.327 . S
C308 C327 1.429 . S
C308 H332 0.950 . S
C309 C326 1.574 . S
C309 C328 1.368 1_655 S
C309 H333 0.949 . S
H310 C314 0.949 . S
C311 C312 1.349 . S
C311 C313 1.327 . S
C311 H334 0.950 . S
C312 C311 1.349 . S
C312 C324 1.349 . S
C313 C311 1.327 . S
C313 C329 1.429 . S
C313 H335 0.950 . S
C314 H310 0.949 . S
C314 C322 1.574 . S
C314 C330 1.368 1_455 S
H315 C323 0.950 . S
H316 C321 0.950 . S
H317 C322 0.949 . S
H318 C324 0.950 . S
H319 C325 0.950 . S
H320 C326 0.949 . S
C321 H316 0.950 . S
C321 C323 1.327 . S
C321 C327 1.429 . S
C322 C314 1.574 . S
C322 H317 0.949 . S
C322 C328 1.368 . S
C323 C307 1.349 . S
C323 H315 0.950 . S
C323 C321 1.327 . S
C324 C312 1.349 . S
C324 H318 0.950 . S
C324 C325 1.327 . S
C325 H319 0.950 . S
C325 C324 1.327 . S
C325 C329 1.429 . S
C326 C309 1.574 . S
C326 H320 0.949 . S
C326 C330 1.368 . S
C327 C308 1.429 . S
C327 C321 1.429 . S
C327 C328 1.523 . S
C328 C309 1.368 1_455 S
C328 C322 1.368 . S
C328 C327 1.523 . S
C329 C313 1.429 . S
C329 C325 1.429 . S
C329 C330 1.523 . S
C330 C314 1.368 1_655 S
C330 C326 1.368 . S
C330 C329 1.523 . S
H331 C306 0.950 . S
H332 C308 0.950 . S
H333 C309 0.949 . S
H334 C311 0.950 . S
H335 C313 0.950 . S
C336 C337 1.349 . S
C336 C338 1.327 . S
C336 H361 0.950 . S
C337 C336 1.349 . S
C337 C353 1.349 . S
C338 C336 1.327 . S
C338 C357 1.429 . S
C338 H362 0.950 . S
C339 C356 1.574 . S
C339 C358 1.368 1_545 S
C339 H363 0.949 . S
H340 C344 0.949 . S
C341 C342 1.349 . S
C341 C343 1.327 . S
C341 H364 0.950 . S
C342 C341 1.349 . S
C342 C354 1.349 . S
C343 C341 1.327 . S
C343 C359 1.429 . S
C343 H365 0.950 . S
C344 H340 0.949 . S
C344 C352 1.574 . S
C344 C360 1.368 1_565 S
H345 C353 0.950 . S
H346 C351 0.950 . S
H347 C352 0.949 . S
H348 C354 0.950 . S
H349 C355 0.950 . S
H350 C356 0.949 . S
C351 H346 0.950 . S
C351 C353 1.327 . S
C351 C357 1.429 . S
C352 C344 1.574 . S
C352 H347 0.949 . S
C352 C358 1.368 . S
C353 C337 1.349 . S
C353 H345 0.950 . S
C353 C351 1.327 . S
C354 C342 1.349 . S
C354 H348 0.950 . S
C354 C355 1.327 . S
C355 H349 0.950 . S
C355 C354 1.327 . S
C355 C359 1.429 . S
C356 C339 1.574 . S
C356 H350 0.949 . S
C356 C360 1.368 . S
C357 C338 1.429 . S
C357 C351 1.429 . S
C357 C358 1.523 . S
C358 C339 1.368 1_565 S
C358 C352 1.368 . S
C358 C357 1.523 . S
C359 C343 1.429 . S
C359 C355 1.429 . S
C359 C360 1.523 . S
C360 C344 1.368 1_545 S
C360 C356 1.368 . S
C360 C359 1.523 . S
H361 C336 0.950 . S
H362 C338 0.950 . S
H363 C339 0.949 . S
H364 C341 0.950 . S
H365 C343 0.950 . S
C366 C367 1.349 . S
C366 C368 1.327 . S
C366 H391 0.950 . S
C367 C366 1.349 . S
C367 C383 1.349 . S
C368 C366 1.327 . S
C368 C387 1.429 . S
C368 H392 0.950 . S
C369 C386 1.574 . S
C369 C388 1.368 1_545 S
C369 H393 0.949 . S
H370 C374 0.949 . S
C371 C372 1.349 . S
C371 C373 1.327 . S
C371 H394 0.950 . S
C372 C371 1.349 . S
C372 C384 1.349 . S
C373 C371 1.327 . S
C373 C389 1.429 . S
C373 H395 0.950 . S
C374 H370 0.949 . S
C374 C382 1.574 . S
C374 C390 1.368 1_565 S
H375 C383 0.950 . S
H376 C381 0.950 . S
H377 C382 0.949 . S
H378 C384 0.950 . S
H379 C385 0.950 . S
H380 C386 0.949 . S
C381 H376 0.950 . S
C381 C383 1.327 . S
C381 C387 1.429 . S
C382 C374 1.574 . S
C382 H377 0.949 . S
C382 C388 1.368 . S
C383 C367 1.349 . S
C383 H375 0.950 . S
C383 C381 1.327 . S
C384 C372 1.349 . S
C384 H378 0.950 . S
C384 C385 1.327 . S
C385 H379 0.950 . S
C385 C384 1.327 . S
C385 C389 1.429 . S
C386 C369 1.574 . S
C386 H380 0.949 . S
C386 C390 1.368 . S
C387 C368 1.429 . S
C387 C381 1.429 . S
C387 C388 1.523 . S
C388 C369 1.368 1_565 S
C388 C382 1.368 . S
C388 C387 1.523 . S
C389 C373 1.429 . S
C389 C385 1.429 . S
C389 C390 1.523 . S
C390 C374 1.368 1_545 S
C390 C386 1.368 . S
C390 C389 1.523 . S
H391 C366 0.950 . S
H392 C368 0.950 . S
H393 C369 0.949 . S
H394 C371 0.950 . S
H395 C373 0.950 . S
C396 C397 1.349 . S
C396 C398 1.327 . S
C396 H421 0.950 . S
C397 C396 1.349 . S
C397 C413 1.349 . S
C398 C396 1.327 . S
C398 C417 1.429 . S
C398 H422 0.950 . S
C399 C416 1.574 . S
C399 C418 1.368 . S
C399 H423 0.949 . S
H400 C404 0.949 . S
C401 C402 1.349 . S
C401 C403 1.327 . S
C401 H424 0.950 . S
C402 C401 1.349 . S
C402 C414 1.349 . S
C403 C401 1.327 . S
C403 C419 1.429 . S
C403 H425 0.950 . S
C404 H400 0.949 . S
C404 C412 1.574 . S
C404 C420 1.368 . S
H405 C413 0.950 . S
H406 C411 0.950 . S
H407 C412 0.949 . S
H408 C414 0.950 . S
H409 C415 0.950 . S
H410 C416 0.949 . S
C411 H406 0.950 . S
C411 C413 1.327 . S
C411 C417 1.429 . S
C412 C404 1.574 . S
C412 H407 0.949 . S
C412 C418 1.368 1_554 S
C413 C397 1.349 . S
C413 H405 0.950 . S
C413 C411 1.327 . S
C414 C402 1.349 . S
C414 H408 0.950 . S
C414 C415 1.327 . S
C415 H409 0.950 . S
C415 C414 1.327 . S
C415 C419 1.429 . S
C416 C399 1.574 . S
C416 H410 0.949 . S
C416 C420 1.368 1_556 S
C417 C398 1.429 . S
C417 C411 1.429 . S
C417 C418 1.523 . S
C418 C399 1.368 . S
C418 C412 1.368 1_556 S
C418 C417 1.523 . S
C419 C403 1.429 . S
C419 C415 1.429 . S
C419 C420 1.523 . S
C420 C404 1.368 . S
C420 C416 1.368 1_554 S
C420 C419 1.523 . S
H421 C396 0.950 . S
H422 C398 0.950 . S
H423 C399 0.949 . S
H424 C401 0.950 . S
H425 C403 0.950 . S
C426 C427 1.349 . S
C426 C428 1.327 . S
C426 H451 0.950 . S
C427 C426 1.349 . S
C427 C443 1.349 . S
C428 C426 1.327 . S
C428 C447 1.429 . S
C428 H452 0.981 . S
C429 C446 1.574 . S
C429 C448 1.368 . S
C429 H453 0.949 . S
H430 C434 0.949 . S
C431 C432 1.349 . S
C431 C433 1.327 . S
C431 H454 0.950 . S
C432 C431 1.349 . S
C432 C444 1.349 . S
C433 C431 1.327 . S
C433 C449 1.429 . S
C433 H455 0.981 . S
C434 H430 0.949 . S
C434 C442 1.574 . S
C434 C450 1.368 . S
H435 C443 0.950 . S
H436 C441 0.950 . S
H437 C442 0.949 . S
H438 C444 0.950 . S
H439 C445 0.950 . S
H440 C446 0.949 . S
C441 H436 0.950 . S
C441 C443 1.327 . S
C441 C447 1.429 . S
C442 C434 1.574 . S
C442 H437 0.949 . S
C442 C448 1.368 1_554 S
C443 C427 1.349 . S
C443 H435 0.950 . S
C443 C441 1.327 . S
C444 C432 1.349 . S
C444 H438 0.950 . S
C444 C445 1.327 . S
C445 H439 0.950 . S
C445 C444 1.327 . S
C445 C449 1.429 . S
C446 C429 1.574 . S
C446 H440 0.949 . S
C446 C450 1.368 1_556 S
C447 C428 1.429 . S
C447 C441 1.429 . S
C447 C448 1.523 . S
C448 C429 1.368 . S
C448 C442 1.368 1_556 S
C448 C447 1.523 . S
C449 C433 1.429 . S
C449 C445 1.429 . S
C449 C450 1.523 . S
C450 C434 1.368 . S
C450 C446 1.368 1_554 S
C450 C449 1.523 . S
H451 C426 0.950 . S
H452 C428 0.981 . S
H453 C429 0.949 . S
H454 C431 0.950 . S
H455 C433 0.981 . S
C456 C457 1.349 . S
C456 C458 1.327 . S
C456 H481 0.950 . S
C457 C456 1.349 . S
C457 C473 1.349 . S
C458 C456 1.327 . S
C458 C477 1.429 . S
C458 H482 0.950 . S
C459 C476 1.574 . S
C459 C478 1.368 . S
C459 H483 0.949 . S
H460 C464 0.949 . S
C461 C462 1.349 . S
C461 C463 1.327 . S
C461 H484 0.950 . S
C462 C461 1.349 . S
C462 C474 1.349 . S
C463 C461 1.327 . S
C463 C479 1.429 . S
C463 H485 0.950 . S
C464 H460 0.949 . S
C464 C472 1.574 . S
C464 C480 1.368 . S
H465 C473 0.950 . S
H466 C471 0.950 . S
H467 C472 0.949 . S
H468 C474 0.950 . S
H469 C475 0.950 . S
H470 C476 0.949 . S
C471 H466 0.950 . S
C471 C473 1.327 . S
C471 C477 1.429 . S
C472 C464 1.574 . S
C472 H467 0.949 . S
C472 C478 1.368 . S
C473 C457 1.349 . S
C473 H465 0.950 . S
C473 C471 1.327 . S
C474 C462 1.349 . S
C474 H468 0.950 . S
C474 C475 1.327 . S
C475 H469 0.950 . S
C475 C474 1.327 . S
C475 C479 1.429 . S
C476 C459 1.574 . S
C476 H470 0.949 . S
C476 C480 1.368 . S
C477 C458 1.429 . S
C477 C471 1.429 . S
C477 C478 1.523 . S
C478 C459 1.368 . S
C478 C472 1.368 . S
C478 C477 1.523 . S
C479 C463 1.429 . S
C479 C475 1.429 . S
C479 C480 1.523 . S
C480 C464 1.368 . S
C480 C476 1.368 . S
C480 C479 1.523 . S
H481 C456 0.950 . S
H482 C458 0.950 . S
H483 C459 0.949 . S
H484 C461 0.950 . S
H485 C463 0.950 . S
C486 C487 1.349 . S
C486 C488 1.327 . S
C486 H511 0.950 . S
C487 C486 1.349 . S
C487 C503 1.349 . S
C488 C486 1.327 . S
C488 C507 1.429 . S
C488 H512 0.950 . S
C489 C506 1.574 . S
C489 C508 1.368 . S
C489 H513 0.949 . S
H490 C494 0.949 . S
C491 C492 1.349 . S
C491 C493 1.327 . S
C491 H514 0.950 . S
C492 C491 1.349 . S
C492 C504 1.349 . S
C493 C491 1.327 . S
C493 C509 1.429 . S
C493 H515 0.950 . S
C494 H490 0.949 . S
C494 C502 1.574 . S
C494 C510 1.368 . S
H495 C503 0.950 . S
H496 C501 0.950 . S
H497 C502 0.949 . S
H498 C504 0.950 . S
H499 C505 0.950 . S
H500 C506 0.949 . S
C501 H496 0.950 . S
C501 C503 1.327 . S
C501 C507 1.429 . S
C502 C494 1.574 . S
C502 H497 0.949 . S
C502 C508 1.368 . S
C503 C487 1.349 . S
C503 H495 0.950 . S
C503 C501 1.327 . S
C504 C492 1.349 . S
C504 H498 0.950 . S
C504 C505 1.327 . S
C505 H499 0.950 . S
C505 C504 1.327 . S
C505 C509 1.429 . S
C506 C489 1.574 . S
C506 H500 0.949 . S
C506 C510 1.368 . S
C507 C488 1.429 . S
C507 C501 1.429 . S
C507 C508 1.523 . S
C508 C489 1.368 . S
C508 C502 1.368 . S
C508 C507 1.523 . S
C509 C493 1.429 . S
C509 C505 1.429 . S
C509 C510 1.523 . S
C510 C494 1.368 . S
C510 C506 1.368 . S
C510 C509 1.523 . S
H511 C486 0.950 . S
H512 C488 0.950 . S
H513 C489 0.949 . S
H514 C491 0.950 . S
H515 C493 0.950 . S
C516 C517 1.349 . S
C516 C518 1.327 . S
C516 H541 0.950 . S
C517 C516 1.349 . S
C517 C533 1.349 . S
C518 C516 1.327 . S
C518 C537 1.429 . S
C518 H542 0.950 . S
C519 C536 1.574 . S
C519 C538 1.368 . S
C519 H543 0.949 . S
H520 C524 0.949 . S
C521 C522 1.349 . S
C521 C523 1.327 . S
C521 H544 0.950 . S
C522 C521 1.349 . S
C522 C534 1.349 . S
C523 C521 1.327 . S
C523 C539 1.429 . S
C523 H545 0.950 . S
C524 H520 0.949 . S
C524 C532 1.574 . S
C524 C540 1.368 . S
H525 C533 0.950 . S
H526 C531 0.950 . S
H527 C532 0.949 . S
H528 C534 0.950 . S
H529 C535 0.950 . S
H530 C536 0.949 . S
C531 H526 0.950 . S
C531 C533 1.327 . S
C531 C537 1.429 . S
C532 C524 1.574 . S
C532 H527 0.949 . S
C532 C538 1.368 . S
C533 C517 1.349 . S
C533 H525 0.950 . S
C533 C531 1.327 . S
C534 C522 1.349 . S
C534 H528 0.950 . S
C534 C535 1.327 . S
C535 H529 0.950 . S
C535 C534 1.327 . S
C535 C539 1.429 . S
C536 C519 1.574 . S
C536 H530 0.949 . S
C536 C540 1.368 . S
C537 C518 1.429 . S
C537 C531 1.429 . S
C537 C538 1.523 . S
C538 C519 1.368 . S
C538 C532 1.368 . S
C538 C537 1.523 . S
C539 C523 1.429 . S
C539 C535 1.429 . S
C539 C540 1.523 . S
C540 C524 1.368 . S
C540 C536 1.368 . S
C540 C539 1.523 . S
H541 C516 0.950 . S
H542 C518 0.950 . S
H543 C519 0.949 . S
H544 C521 0.950 . S
H545 C523 0.950 . S
C546 C547 1.349 . S
C546 C548 1.327 . S
C546 H571 0.950 . S
C547 C546 1.349 . S
C547 C563 1.349 . S
C548 C546 1.327 . S
C548 C567 1.429 . S
C548 H572 0.950 . S
C549 C566 1.574 . S
C549 C568 1.368 . S
C549 H573 0.949 . S
H550 C554 0.949 . S
C551 C552 1.349 . S
C551 C553 1.327 . S
C551 H574 0.950 . S
C552 C551 1.349 . S
C552 C564 1.349 . S
C553 C551 1.327 . S
C553 C569 1.429 . S
C553 H575 0.950 . S
C554 H550 0.949 . S
C554 C562 1.574 . S
C554 C570 1.368 . S
H555 C563 0.950 . S
H556 C561 0.950 . S
H557 C562 0.949 . S
H558 C564 0.950 . S
H559 C565 0.950 . S
H560 C566 0.949 . S
C561 H556 0.950 . S
C561 C563 1.327 . S
C561 C567 1.429 . S
C562 C554 1.574 . S
C562 H557 0.949 . S
C562 C568 1.368 . S
C563 C547 1.349 . S
C563 H555 0.950 . S
C563 C561 1.327 . S
C564 C552 1.349 . S
C564 H558 0.950 . S
C564 C565 1.327 . S
C565 H559 0.950 . S
C565 C564 1.327 . S
C565 C569 1.429 . S
C566 C549 1.574 . S
C566 H560 0.949 . S
C566 C570 1.368 . S
C567 C548 1.429 . S
C567 C561 1.429 . S
C567 C568 1.523 . S
C568 C549 1.368 . S
C568 C562 1.368 . S
C568 C567 1.523 . S
C569 C553 1.429 . S
C569 C565 1.429 . S
C569 C570 1.523 . S
C570 C554 1.368 . S
C570 C566 1.368 . S
C570 C569 1.523 . S
H571 C546 0.950 . S
H572 C548 0.950 . S
H573 C549 0.949 . S
H574 C551 0.950 . S
H575 C553 0.950 . S
C576 C577 1.349 . S
C576 C578 1.327 . S
C576 H601 0.950 . S
C577 C576 1.349 . S
C577 C593 1.349 . S
C578 C576 1.327 . S
C578 C597 1.429 . S
C578 H602 0.950 . S
C579 C596 1.574 . S
C579 C598 1.368 . S
C579 H603 0.949 . S
H580 C584 0.949 . S
C581 C582 1.349 . S
C581 C583 1.327 . S
C581 H604 0.950 . S
C582 C581 1.349 . S
C582 C594 1.349 . S
C583 C581 1.327 . S
C583 C599 1.429 . S
C583 H605 0.950 . S
C584 H580 0.949 . S
C584 C592 1.574 . S
C584 C600 1.368 . S
H585 C593 0.950 . S
H586 C591 0.950 . S
H587 C592 0.949 . S
H588 C594 0.950 . S
H589 C595 0.950 . S
H590 C596 0.949 . S
C591 H586 0.950 . S
C591 C593 1.327 . S
C591 C597 1.429 . S
C592 C584 1.574 . S
C592 H587 0.949 . S
C592 C598 1.368 . S
C593 C577 1.349 . S
C593 H585 0.950 . S
C593 C591 1.327 . S
C594 C582 1.349 . S
C594 H588 0.950 . S
C594 C595 1.327 . S
C595 H589 0.950 . S
C595 C594 1.327 . S
C595 C599 1.429 . S
C596 C579 1.574 . S
C596 H590 0.949 . S
C596 C600 1.368 . S
C597 C578 1.429 . S
C597 C591 1.429 . S
C597 C598 1.523 . S
C598 C579 1.368 . S
C598 C592 1.368 . S
C598 C597 1.523 . S
C599 C583 1.429 . S
C599 C595 1.429 . S
C599 C600 1.523 . S
C600 C584 1.368 . S
C600 C596 1.368 . S
C600 C599 1.523 . S
H601 C576 0.950 . S
H602 C578 0.950 . S
H603 C579 0.949 . S
H604 C581 0.950 . S
H605 C583 0.950 . S
C606 C607 1.349 . S
C606 C608 1.327 . S
C606 H631 0.950 . S
C607 C606 1.349 . S
C607 C623 1.349 . S
C608 C606 1.327 . S
C608 C627 1.429 . S
C608 H632 0.950 . S
C609 C626 1.574 . S
C609 C628 1.368 . S
C609 H633 0.949 . S
H610 C614 0.949 . S
C611 C612 1.349 . S
C611 C613 1.327 . S
C611 H634 0.950 . S
C612 C611 1.349 . S
C612 C624 1.349 . S
C613 C611 1.327 . S
C613 C629 1.429 . S
C613 H635 0.950 . S
C614 H610 0.949 . S
C614 C622 1.574 . S
C614 C630 1.368 . S
H615 C623 0.950 . S
H616 C621 0.950 . S
H617 C622 0.949 . S
H618 C624 0.950 . S
H619 C625 0.950 . S
H620 C626 0.949 . S
C621 H616 0.950 . S
C621 C623 1.327 . S
C621 C627 1.429 . S
C622 C614 1.574 . S
C622 H617 0.949 . S
C622 C628 1.368 . S
C623 C607 1.349 . S
C623 H615 0.950 . S
C623 C621 1.327 . S
C624 C612 1.349 . S
C624 H618 0.950 . S
C624 C625 1.327 . S
C625 H619 0.950 . S
C625 C624 1.327 . S
C625 C629 1.429 . S
C626 C609 1.574 . S
C626 H620 0.949 . S
C626 C630 1.368 . S
C627 C608 1.429 . S
C627 C621 1.429 . S
C627 C628 1.523 . S
C628 C609 1.368 . S
C628 C622 1.368 . S
C628 C627 1.523 . S
C629 C613 1.429 . S
C629 C625 1.429 . S
C629 C630 1.523 . S
C630 C614 1.368 . S
C630 C626 1.368 . S
C630 C629 1.523 . S
H631 C606 0.950 . S
H632 C608 0.950 . S
H633 C609 0.949 . S
H634 C611 0.950 . S
H635 C613 0.950 . S
C636 C637 1.349 . S
C636 C638 1.327 . S
C636 H661 0.950 . S
C637 C636 1.349 . S
C637 C653 1.349 . S
C638 C636 1.327 . S
C638 C657 1.429 . S
C638 H662 0.950 . S
C639 C656 1.574 . S
C639 C658 1.368 . S
C639 H663 0.949 . S
H640 C644 0.949 . S
C641 C642 1.349 . S
C641 C643 1.327 . S
C641 H664 0.950 . S
C642 C641 1.349 . S
C642 C654 1.349 . S
C643 C641 1.327 . S
C643 C659 1.429 . S
C643 H665 0.950 . S
C644 H640 0.949 . S
C644 C652 1.574 . S
C644 C660 1.368 . S
H645 C653 0.950 . S
H646 C651 0.950 . S
H647 C652 0.949 . S
H648 C654 0.950 . S
H649 C655 0.950 . S
H650 C656 0.949 . S
C651 H646 0.950 . S
C651 C653 1.327 . S
C651 C657 1.429 . S
C652 C644 1.574 . S
C652 H647 0.949 . S
C652 C658 1.368 . S
C653 C637 1.349 . S
C653 H645 0.950 . S
C653 C651 1.327 . S
C654 C642 1.349 . S
C654 H648 0.950 . S
C654 C655 1.327 . S
C655 H649 0.950 . S
C655 C654 1.327 . S
C655 C659 1.429 . S
C656 C639 1.574 . S
C656 H650 0.949 . S
C656 C660 1.368 . S
C657 C638 1.429 . S
C657 C651 1.429 . S
C657 C658 1.523 . S
C658 C639 1.368 . S
C658 C652 1.368 . S
C658 C657 1.523 . S
C659 C643 1.429 . S
C659 C655 1.429 . S
C659 C660 1.523 . S
C660 C644 1.368 . S
C660 C656 1.368 . S
C660 C659 1.523 . S
H661 C636 0.950 . S
H662 C638 0.950 . S
H663 C639 0.949 . S
H664 C641 0.950 . S
H665 C643 0.950 . S
C666 C667 1.349 . S
C666 C668 1.327 . S
C666 H691 0.950 . S
C667 C666 1.349 . S
C667 C683 1.349 . S
C668 C666 1.327 . S
C668 C687 1.429 . S
C668 H692 0.950 . S
C669 C686 1.574 . S
C669 C688 1.368 . S
C669 H693 0.949 . S
H670 C674 0.949 . S
C671 C672 1.349 . S
C671 C673 1.327 . S
C671 H694 0.950 . S
C672 C671 1.349 . S
C672 C684 1.349 . S
C673 C671 1.327 . S
C673 C689 1.429 . S
C673 H695 0.950 . S
C674 H670 0.949 . S
C674 C682 1.574 . S
C674 C690 1.368 . S
H675 C683 0.950 . S
H676 C681 0.950 . S
H677 C682 0.949 . S
H678 C684 0.950 . S
H679 C685 0.950 . S
H680 C686 0.949 . S
C681 H676 0.950 . S
C681 C683 1.327 . S
C681 C687 1.429 . S
C682 C674 1.574 . S
C682 H677 0.949 . S
C682 C688 1.368 . S
C683 C667 1.349 . S
C683 H675 0.950 . S
C683 C681 1.327 . S
C684 C672 1.349 . S
C684 H678 0.950 . S
C684 C685 1.327 . S
C685 H679 0.950 . S
C685 C684 1.327 . S
C685 C689 1.429 . S
C686 C669 1.574 . S
C686 H680 0.949 . S
C686 C690 1.368 . S
C687 C668 1.429 . S
C687 C681 1.429 . S
C687 C688 1.523 . S
C688 C669 1.368 . S
C688 C682 1.368 . S
C688 C687 1.523 . S
C689 C673 1.429 . S
C689 C685 1.429 . S
C689 C690 1.523 . S
C690 C674 1.368 . S
C690 C686 1.368 . S
C690 C689 1.523 . S
H691 C666 0.950 . S
H692 C668 0.950 . S
H693 C669 0.949 . S
H694 C671 0.950 . S
H695 C673 0.950 . S
C696 C697 1.349 . S
C696 C698 1.327 . S
C696 H721 0.950 . S
C697 C696 1.349 . S
C697 C713 1.349 . S
C698 C696 1.327 . S
C698 C717 1.429 . S
C698 H722 0.950 . S
C699 C716 1.574 . S
C699 C718 1.368 . S
C699 H723 0.949 . S
H700 C704 0.949 . S
C701 C702 1.349 . S
C701 C703 1.327 . S
C701 H724 0.950 . S
C702 C701 1.349 . S
C702 C714 1.349 . S
C703 C701 1.327 . S
C703 C719 1.429 . S
C703 H725 0.950 . S
C704 H700 0.949 . S
C704 C712 1.574 . S
C704 C720 1.368 . S
H705 C713 0.950 . S
H706 C711 0.950 . S
H707 C712 0.949 . S
H708 C714 0.950 . S
H709 C715 0.950 . S
H710 C716 0.949 . S
C711 H706 0.950 . S
C711 C713 1.327 . S
C711 C717 1.429 . S
C712 C704 1.574 . S
C712 H707 0.949 . S
C712 C718 1.368 . S
C713 C697 1.349 . S
C713 H705 0.950 . S
C713 C711 1.327 . S
C714 C702 1.349 . S
C714 H708 0.950 . S
C714 C715 1.327 . S
C715 H709 0.950 . S
C715 C714 1.327 . S
C715 C719 1.429 . S
C716 C699 1.574 . S
C716 H710 0.949 . S
C716 C720 1.368 . S
C717 C698 1.429 . S
C717 C711 1.429 . S
C717 C718 1.523 . S
C718 C699 1.368 . S
C718 C712 1.368 . S
C718 C717 1.523 . S
C719 C703 1.429 . S
C719 C715 1.429 . S
C719 C720 1.523 . S
C720 C704 1.368 . S
C720 C716 1.368 . S
C720 C719 1.523 . S
H721 C696 0.950 . S
H722 C698 0.950 . S
H723 C699 0.949 . S
H724 C701 0.950 . S
H725 C703 0.950 . S
C726 C727 1.349 . S
C726 C728 1.327 . S
C726 H751 0.950 . S
C727 C726 1.349 . S
C727 C743 1.349 . S
C728 C726 1.327 . S
C728 C747 1.429 . S
C728 H752 0.950 . S
C729 C746 1.574 . S
C729 C748 1.368 . S
C729 H753 0.949 . S
H730 C734 0.949 . S
C731 C732 1.349 . S
C731 C733 1.327 . S
C731 H754 0.950 . S
C732 C731 1.349 . S
C732 C744 1.349 . S
C733 C731 1.327 . S
C733 C749 1.429 . S
C733 H755 0.950 . S
C734 H730 0.949 . S
C734 C742 1.574 . S
C734 C750 1.368 . S
H735 C743 0.950 . S
H736 C741 0.950 . S
H737 C742 0.949 . S
H738 C744 0.950 . S
H739 C745 0.950 . S
H740 C746 0.949 . S
C741 H736 0.950 . S
C741 C743 1.327 . S
C741 C747 1.429 . S
C742 C734 1.574 . S
C742 H737 0.949 . S
C742 C748 1.368 . S
C743 C727 1.349 . S
C743 H735 0.950 . S
C743 C741 1.327 . S
C744 C732 1.349 . S
C744 H738 0.950 . S
C744 C745 1.327 . S
C745 H739 0.950 . S
C745 C744 1.327 . S
C745 C749 1.429 . S
C746 C729 1.574 . S
C746 H740 0.949 . S
C746 C750 1.368 . S
C747 C728 1.429 . S
C747 C741 1.429 . S
C747 C748 1.523 . S
C748 C729 1.368 . S
C748 C742 1.368 . S
C748 C747 1.523 . S
C749 C733 1.429 . S
C749 C745 1.429 . S
C749 C750 1.523 . S
C750 C734 1.368 . S
C750 C746 1.368 . S
C750 C749 1.523 . S
H751 C726 0.950 . S
H752 C728 0.950 . S
H753 C729 0.949 . S
H754 C731 0.950 . S
H755 C733 0.950 . S
C756 C757 1.349 . S
C756 C758 1.327 . S
C756 H781 0.950 . S
C757 C756 1.349 . S
C757 C773 1.349 . S
C758 C756 1.327 . S
C758 C777 1.429 . S
C758 H782 0.950 . S
C759 C776 1.574 . S
C759 C778 1.368 . S
C759 H783 0.949 . S
H760 C764 0.949 . S
C761 C762 1.349 . S
C761 C763 1.327 . S
C761 H784 0.950 . S
C762 C761 1.349 . S
C762 C774 1.349 . S
C763 C761 1.327 . S
C763 C779 1.429 . S
C763 H785 0.950 . S
C764 H760 0.949 . S
C764 C772 1.574 . S
C764 C780 1.368 . S
H765 C773 0.950 . S
H766 C771 0.950 . S
H767 C772 0.949 . S
H768 C774 0.950 . S
H769 C775 0.950 . S
H770 C776 0.949 . S
C771 H766 0.950 . S
C771 C773 1.327 . S
C771 C777 1.429 . S
C772 C764 1.574 . S
C772 H767 0.949 . S
C772 C778 1.368 . S
C773 C757 1.349 . S
C773 H765 0.950 . S
C773 C771 1.327 . S
C774 C762 1.349 . S
C774 H768 0.950 . S
C774 C775 1.327 . S
C775 H769 0.950 . S
C775 C774 1.327 . S
C775 C779 1.429 . S
C776 C759 1.574 . S
C776 H770 0.949 . S
C776 C780 1.368 . S
C777 C758 1.429 . S
C777 C771 1.429 . S
C777 C778 1.523 . S
C778 C759 1.368 . S
C778 C772 1.368 . S
C778 C777 1.523 . S
C779 C763 1.429 . S
C779 C775 1.429 . S
C779 C780 1.523 . S
C780 C764 1.368 . S
C780 C776 1.368 . S
C780 C779 1.523 . S
H781 C756 0.950 . S
H782 C758 0.950 . S
H783 C759 0.949 . S
H784 C761 0.950 . S
H785 C763 0.950 . S
C786 C787 1.349 . S
C786 C788 1.327 . S
C786 H811 0.950 . S
C787 C786 1.349 . S
C787 C803 1.349 . S
C788 C786 1.327 . S
C788 C807 1.429 . S
C788 H812 0.950 . S
C789 C806 1.574 . S
C789 C808 1.368 . S
C789 H813 0.949 . S
H790 C794 0.949 . S
C791 C792 1.349 . S
C791 C793 1.327 . S
C791 H814 0.950 . S
C792 C791 1.349 . S
C792 C804 1.349 . S
C793 C791 1.327 . S
C793 C809 1.429 . S
C793 H815 0.950 . S
C794 H790 0.949 . S
C794 C802 1.574 . S
C794 C810 1.368 . S
H795 C803 0.950 . S
H796 C801 0.950 . S
H797 C802 0.949 . S
H798 C804 0.950 . S
H799 C805 0.950 . S
H800 C806 0.949 . S
C801 H796 0.950 . S
C801 C803 1.327 . S
C801 C807 1.429 . S
C802 C794 1.574 . S
C802 H797 0.949 . S
C802 C808 1.368 . S
C803 C787 1.349 . S
C803 H795 0.950 . S
C803 C801 1.327 . S
C804 C792 1.349 . S
C804 H798 0.950 . S
C804 C805 1.327 . S
C805 H799 0.950 . S
C805 C804 1.327 . S
C805 C809 1.429 . S
C806 C789 1.574 . S
C806 H800 0.949 . S
C806 C810 1.368 . S
C807 C788 1.429 . S
C807 C801 1.429 . S
C807 C808 1.523 . S
C808 C789 1.368 . S
C808 C802 1.368 . S
C808 C807 1.523 . S
C809 C793 1.429 . S
C809 C805 1.429 . S
C809 C810 1.523 . S
C810 C794 1.368 . S
C810 C806 1.368 . S
C810 C809 1.523 . S
H811 C786 0.950 . S
H812 C788 0.950 . S
H813 C789 0.949 . S
H814 C791 0.950 . S
H815 C793 0.950 . S
C816 C817 1.349 . S
C816 C818 1.327 . S
C816 H841 0.950 . S
C817 C816 1.349 . S
C817 C833 1.349 . S
C818 C816 1.327 . S
C818 C837 1.429 . S
C818 H842 0.950 . S
C819 C836 1.524 1_445 S
C819 C838 1.384 . S
C819 H843 0.950 . S
H820 C824 0.950 . S
C821 C822 1.349 . S
C821 C823 1.327 . S
C821 H844 0.950 . S
C822 C821 1.349 . S
C822 C834 1.349 . S
C823 C821 1.327 . S
C823 C839 1.429 . S
C823 H845 0.950 . S
C824 H820 0.950 . S
C824 C832 1.524 1_665 S
C824 C840 1.384 . S
H825 C833 0.950 . S
H826 C831 0.950 . S
H827 C832 0.953 . S
H828 C834 0.950 . S
H829 C835 0.950 . S
H830 C836 0.953 . S
C831 H826 0.950 . S
C831 C833 1.327 . S
C831 C837 1.429 . S
C832 C824 1.524 1_445 S
C832 H827 0.953 . S
C832 C838 1.398 . S
C833 C817 1.349 . S
C833 H825 0.950 . S
C833 C831 1.327 . S
C834 C822 1.349 . S
C834 H828 0.950 . S
C834 C835 1.327 . S
C835 H829 0.950 . S
C835 C834 1.327 . S
C835 C839 1.429 . S
C836 C819 1.524 1_665 S
C836 H830 0.953 . S
C836 C840 1.398 . S
C837 C818 1.429 . S
C837 C831 1.429 . S
C837 C838 1.523 . S
C838 C819 1.384 . S
C838 C832 1.398 . S
C838 C837 1.523 . S
C839 C823 1.429 . S
C839 C835 1.429 . S
C839 C840 1.523 . S
C840 C824 1.384 . S
C840 C836 1.398 . S
C840 C839 1.523 . S
H841 C816 0.950 . S
H842 C818 0.950 . S
H843 C819 0.950 . S
H844 C821 0.950 . S
H845 C823 0.950 . S
C846 C847 1.349 . S
C846 C848 1.327 . S
C846 H871 0.950 . S
C847 C846 1.349 . S
C847 C863 1.349 . S
C848 C846 1.327 . S
C848 C867 1.429 . S
C848 H872 0.950 . S
C849 C866 1.524 1_645 S
C849 C868 1.384 . S
C849 H873 0.950 . S
H850 C854 0.950 . S
C851 C852 1.349 . S
C851 C853 1.327 . S
C851 H874 0.950 . S
C852 C851 1.349 . S
C852 C864 1.349 . S
C853 C851 1.327 . S
C853 C869 1.429 . S
C853 H875 0.950 . S
C854 H850 0.950 . S
C854 C862 1.524 1_465 S
C854 C870 1.384 . S
H855 C863 0.950 . S
H856 C861 0.950 . S
H857 C862 0.953 . S
H858 C864 0.950 . S
H859 C865 0.950 . S
H860 C866 0.953 . S
C861 H856 0.950 . S
C861 C863 1.327 . S
C861 C867 1.429 . S
C862 C854 1.524 1_645 S
C862 H857 0.953 . S
C862 C868 1.398 . S
C863 C847 1.349 . S
C863 H855 0.950 . S
C863 C861 1.327 . S
C864 C852 1.349 . S
C864 H858 0.950 . S
C864 C865 1.327 . S
C865 H859 0.950 . S
C865 C864 1.327 . S
C865 C869 1.429 . S
C866 C849 1.524 1_465 S
C866 H860 0.953 . S
C866 C870 1.398 . S
C867 C848 1.429 . S
C867 C861 1.429 . S
C867 C868 1.523 . S
C868 C849 1.384 . S
C868 C862 1.398 . S
C868 C867 1.523 . S
C869 C853 1.429 . S
C869 C865 1.429 . S
C869 C870 1.523 . S
C870 C854 1.384 . S
C870 C866 1.398 . S
C870 C869 1.523 . S
H871 C846 0.950 . S
H872 C848 0.950 . S
H873 C849 0.950 . S
H874 C851 0.950 . S
H875 C853 0.950 . S
C876 C877 1.349 . S
C876 C878 1.327 . S
C876 H901 0.950 . S
C877 C876 1.349 . S
C877 C893 1.349 . S
C878 C876 1.327 . S
C878 C897 1.429 . S
C878 H902 0.950 . S
C879 C896 1.574 1_566 S
C879 C898 1.368 . S
C879 H903 0.949 . S
H880 C884 0.949 . S
C881 C882 1.349 . S
C881 C883 1.327 . S
C881 H904 0.950 . S
C882 C881 1.349 . S
C882 C894 1.349 . S
C883 C881 1.327 . S
C883 C899 1.429 . S
C883 H905 0.950 . S
C884 H880 0.949 . S
C884 C892 1.574 1_544 S
C884 C900 1.368 . S
H885 C893 0.950 . S
H886 C891 0.950 . S
H887 C892 0.949 . S
H888 C894 0.950 . S
H889 C895 0.950 . S
H890 C896 0.949 . S
C891 H886 0.950 . S
C891 C893 1.327 . S
C891 C897 1.429 . S
C892 C884 1.574 1_566 S
C892 H887 0.949 . S
C892 C898 1.368 . S
C893 C877 1.349 . S
C893 H885 0.950 . S
C893 C891 1.327 . S
C894 C882 1.349 . S
C894 H888 0.950 . S
C894 C895 1.327 . S
C895 H889 0.950 . S
C895 C894 1.327 . S
C895 C899 1.429 . S
C896 C879 1.574 1_544 S
C896 H890 0.949 . S
C896 C900 1.368 . S
C897 C878 1.429 . S
C897 C891 1.429 . S
C897 C898 1.523 . S
C898 C879 1.368 . S
C898 C892 1.368 . S
C898 C897 1.523 . S
C899 C883 1.429 . S
C899 C895 1.429 . S
C899 C900 1.523 . S
C900 C884 1.368 . S
C900 C896 1.368 . S
C900 C899 1.523 . S
H901 C876 0.950 . S
H902 C878 0.950 . S
H903 C879 0.949 . S
H904 C881 0.950 . S
H905 C883 0.950 . S
C906 C907 1.349 . S
C906 C908 1.327 . S
C906 H931 0.950 . S
C907 C906 1.349 . S
C907 C923 1.349 . S
C908 C906 1.327 . S
C908 C927 1.429 . S
C908 H932 0.950 . S
C909 C926 1.574 . S
C909 C928 1.368 1_556 S
C909 H933 0.949 . S
H910 C914 0.949 . S
C911 C912 1.349 . S
C911 C913 1.327 . S
C911 H934 0.950 . S
C912 C911 1.349 . S
C912 C924 1.349 . S
C913 C911 1.327 . S
C913 C929 1.429 . S
C913 H935 0.950 . S
C914 H910 0.949 . S
C914 C922 1.574 . S
C914 C930 1.368 1_554 S
H915 C923 0.950 . S
H916 C921 0.950 . S
H917 C922 0.949 . S
H918 C924 0.950 . S
H919 C925 0.950 . S
H920 C926 0.949 . S
C921 H916 0.950 . S
C921 C923 1.327 . S
C921 C927 1.429 . S
C922 C914 1.574 . S
C922 H917 0.949 . S
C922 C928 1.368 1_545 S
C923 C907 1.349 . S
C923 H915 0.950 . S
C923 C921 1.327 . S
C924 C912 1.349 . S
C924 H918 0.950 . S
C924 C925 1.327 . S
C925 H919 0.950 . S
C925 C924 1.327 . S
C925 C929 1.429 . S
C926 C909 1.574 . S
C926 H920 0.949 . S
C926 C930 1.368 1_565 S
C927 C908 1.429 . S
C927 C921 1.429 . S
C927 C928 1.523 . S
C928 C909 1.368 1_554 S
C928 C922 1.368 1_565 S
C928 C927 1.523 . S
C929 C913 1.429 . S
C929 C925 1.429 . S
C929 C930 1.523 . S
C930 C914 1.368 1_556 S
C930 C926 1.368 1_545 S
C930 C929 1.523 . S
H931 C906 0.950 . S
H932 C908 0.950 . S
H933 C909 0.949 . S
H934 C911 0.950 . S
H935 C913 0.950 . S
C936 C937 1.349 . S
C936 C938 1.327 . S
C936 H961 0.950 . S
C937 C936 1.349 . S
C937 C953 1.349 . S
C938 C936 1.327 . S
C938 C957 1.429 . S
C938 H962 0.950 . S
C939 C956 1.524 1_656 S
C939 C958 1.398 . S
C939 H963 0.953 . S
H940 C944 0.953 . S
C941 C942 1.349 . S
C941 C943 1.327 . S
C941 H964 0.950 . S
C942 C941 1.349 . S
C942 C954 1.349 . S
C943 C941 1.327 . S
C943 C959 1.429 . S
C943 H965 0.950 . S
C944 H940 0.953 . S
C944 C952 1.524 1_454 S
C944 C960 1.398 . S
H945 C953 0.950 . S
H946 C951 0.950 . S
H947 C952 0.950 . S
H948 C954 0.950 . S
H949 C955 0.950 . S
H950 C956 0.950 . S
C951 H946 0.950 . S
C951 C953 1.327 . S
C951 C957 1.429 . S
C952 C944 1.524 1_656 S
C952 H947 0.950 . S
C952 C958 1.384 . S
C953 C937 1.349 . S
C953 H945 0.950 . S
C953 C951 1.327 . S
C954 C942 1.349 . S
C954 H948 0.950 . S
C954 C955 1.327 . S
C955 H949 0.950 . S
C955 C954 1.327 . S
C955 C959 1.429 . S
C956 C939 1.524 1_454 S
C956 H950 0.950 . S
C956 C960 1.384 . S
C957 C938 1.429 . S
C957 C951 1.429 . S
C957 C958 1.523 . S
C958 C939 1.398 . S
C958 C952 1.384 . S
C958 C957 1.523 . S
C959 C943 1.429 . S
C959 C955 1.429 . S
C959 C960 1.523 . S
C960 C944 1.398 . S
C960 C956 1.384 . S
C960 C959 1.523 . S
H961 C936 0.950 . S
H962 C938 0.950 . S
H963 C939 0.953 . S
H964 C941 0.950 . S
H965 C943 0.950 . S
C966 C967 1.349 . S
C966 C968 1.327 . S
C966 H991 0.950 . S
C967 C966 1.349 . S
C967 C983 1.349 . S
C968 C966 1.327 . S
C968 C987 1.429 . S
C968 H992 0.950 . S
C969 C986 1.524 1_456 S
C969 C988 1.384 . S
C969 H993 0.950 . S
H970 C974 0.950 . S
C971 C972 1.349 . S
C971 C973 1.327 . S
C971 H994 0.950 . S
C972 C971 1.349 . S
C972 C984 1.349 . S
C973 C971 1.327 . S
C973 C989 1.429 . S
C973 H995 0.950 . S
C974 H970 0.950 . S
C974 C982 1.524 1_654 S
C974 C990 1.384 . S
H975 C983 0.950 . S
H976 C981 0.950 . S
H977 C982 0.953 . S
H978 C984 0.950 . S
H979 C985 0.950 . S
H980 C986 0.953 . S
C981 H976 0.950 . S
C981 C983 1.327 . S
C981 C987 1.429 . S
C982 C974 1.524 1_456 S
C982 H977 0.953 . S
C982 C988 1.398 . S
C983 C967 1.349 . S
C983 H975 0.950 . S
C983 C981 1.327 . S
C984 C972 1.349 . S
C984 H978 0.950 . S
C984 C985 1.327 . S
C985 H979 0.950 . S
C985 C984 1.327 . S
C985 C989 1.429 . S
C986 C969 1.524 1_654 S
C986 H980 0.953 . S
C986 C990 1.398 . S
C987 C968 1.429 . S
C987 C981 1.429 . S
C987 C988 1.523 . S
C988 C969 1.384 . S
C988 C982 1.398 . S
C988 C987 1.523 . S
C989 C973 1.429 . S
C989 C985 1.429 . S
C989 C990 1.523 . S
C990 C974 1.384 . S
C990 C986 1.398 . S
C990 C989 1.523 . S
H991 C966 0.950 . S
H992 C968 0.950 . S
H993 C969 0.950 . S
H994 C971 0.950 . S
H995 C973 0.950 . S
C277 N81 0.998 . S
C282 N12 0.998 . S
C307 N58 0.998 . S
C312 N35 0.998 . S
C337 N127 0.998 . S
C342 N104 0.998 . S
C367 N150 0.998 . S
C372 N173 0.998 . S
C397 N219 0.998 . S
C402 N196 0.998 . S
C427 N242 0.998 . S
C432 N265 0.998 . S
C457 N2 1.428 . S
C462 C177 1.362 . S
C487 C154 1.362 . S
C492 N25 1.428 . S
C517 C131 1.362 . S
C522 N48 1.428 . S
C547 C108 1.362 . S
C552 N71 1.428 . S
C577 N94 1.428 . S
C582 C269 1.362 . S
C607 C200 1.362 . S
C612 N117 1.428 . S
C637 C246 1.362 . S
C642 N140 1.428 . S
C667 N163 1.428 . S
C672 C223 1.362 . S
C697 C62 1.362 . S
C702 N186 1.428 . S
C727 C16 1.362 . S
C732 N209 1.428 . S
C757 N232 1.428 . S
C762 C39 1.362 . S
C787 C85 1.362 . S
C792 N255 1.428 . S
C817 C7 2.144 . S
C822 C30 2.144 . S
C847 C76 2.144 . S
C852 C53 2.144 . S
C877 C145 2.144 . S
C882 C99 2.144 . S
C907 C122 2.144 . S
C912 C168 2.144 . S
C937 C237 2.144 . S
C942 C191 2.144 . S
C967 C214 2.144 . S
C972 C260 2.144 . S
