# Generated by pormake.
# Topology sma, (6)-cn, num edge types: 1
# Building blocks:
#     Node 0, Type 0, BuildingBlock: CUWYAW_clean_sbu_0, # of connection points: 6
#     Node 1, Type 0, BuildingBlock: CUWYAW_clean_sbu_0, # of connection points: 6
#     Node 2, Type 0, BuildingBlock: CUWYAW_clean_sbu_0, # of connection points: 6
#     Edge 3, Type (0, 0), BuildingBlock: TEMPAE_clean_linker_10, # of connection points: 2
#     Edge 4, Type (0, 0), BuildingBlock: TEMPAE_clean_linker_10, # of connection points: 2
#     Edge 5, Type (0, 0), BuildingBlock: TEMPAE_clean_linker_10, # of connection points: 2
#     Edge 6, Type (0, 0), BuildingBlock: TEMPAE_clean_linker_10, # of connection points: 2
#     Edge 7, Type (0, 0), BuildingBlock: TEMPAE_clean_linker_10, # of connection points: 2
#     Edge 8, Type (0, 0), BuildingBlock: TEMPAE_clean_linker_10, # of connection points: 2
#     Edge 9, Type (0, 0), BuildingBlock: TEMPAE_clean_linker_10, # of connection points: 2
#     Edge 10, Type (0, 0), BuildingBlock: TEMPAE_clean_linker_10, # of connection points: 2
#     Edge 11, Type (0, 0), BuildingBlock: TEMPAE_clean_linker_10, # of connection points: 2
# Relax obj value: 0.070
# Max RMSD: 0.175
# Mean RMSD: 0.175
data_MOF--net-sma--node1-CUWYAW_clean_sbu_0--edge1-TEMPAE_clean_linker_10
_symmetry_space_group_name_H-M    P1
_symmetry_Int_Tables_number       1
_symmetry_cell_setting            triclinic
loop_
_symmetry_equiv_pos_as_xyz
'x, y, z'
_cell_length_a     39.838346
_cell_length_b     40.073086
_cell_length_c     14.105998
_cell_angle_alpha  89.349077
_cell_angle_beta   90.794942
_cell_angle_gamma 119.75861
loop_
_atom_site_label
_atom_site_type_symbol
_atom_site_fract_x
_atom_site_fract_y
_atom_site_fract_z
_atom_type_partial_charge
C0 C 0.96564 0.41956 -0.00247 0.0
Eu1 Eu 1.01909 0.48785 0.05149 0.0
C2 C 0.93856 0.38395 0.04845 0.0
C3 C 0.92548 0.386 0.13899 0.0
C4 C 0.89563 0.35327 0.18184 0.0
C5 C 0.87845 0.31738 0.13606 0.0
C6 C 0.89311 0.31515 0.04726 0.0
C7 C 0.92267 0.34816 0.00368 0.0
C8 C 1.03308 0.50221 0.23898 0.0
C9 C 0.98461 0.54684 0.03467 0.0
C10 C 0.10729 0.63885 0.2006 0.0
Eu11 Eu 0.07177 0.57414 0.10877 0.0
C12 C 0.14636 0.67094 0.2206 0.0
C13 C 0.17938 0.67225 0.18265 0.0
C14 C 0.21625 0.70306 0.20394 0.0
C15 C 0.22066 0.73295 0.2638 0.0
C16 C 0.18731 0.73126 0.30143 0.0
C17 C 0.15059 0.70056 0.28004 0.0
C18 C 0.07799 0.55829 0.9264 0.0
C19 C 0.10958 0.52035 0.07248 0.0
O20 O 1.00246 0.43005 -0.00054 0.0
O21 O 0.95978 0.44844 0.01042 0.0
O22 O 1.02861 0.47143 0.19957 0.0
O23 O 1.02697 0.52218 0.18001 0.0
O24 O 0.98199 0.51388 0.01001 0.0
O25 O 1.01509 0.57364 0.08118 0.0
O26 O 0.09868 0.60552 0.23841 0.0
O27 O 0.09417 0.636 0.11353 0.0
O28 O 0.10629 0.58625 -0.02742 0.0
O29 O 1.04794 0.54325 -0.02463 0.0
O30 O 0.11023 0.5474 0.12753 0.0
O31 O 0.07863 0.49724 0.021 0.0
H32 H 0.93727 0.41332 0.17513 0.0
H33 H 0.88502 0.35664 0.24924 0.0
H34 H 0.88136 0.28802 0.01046 0.0
H35 H 0.93236 0.34591 0.93389 0.0
H36 H 0.17662 0.64945 0.13698 0.0
H37 H 0.2413 0.70325 0.17451 0.0
H38 H 0.18951 0.75398 0.34649 0.0
H39 H 0.1254 0.69999 0.30996 0.0
C40 C 0.49895 0.10017 0.33776 0.0
Eu41 Eu 0.53481 0.06328 0.387 0.0
C42 C 0.50307 0.13727 0.36749 0.0
C43 C 0.47043 0.14187 0.37083 0.0
C44 C 0.47313 0.17532 0.40868 0.0
C45 C 0.50861 0.20489 0.44429 0.0
C46 C 0.54144 0.2004 0.43893 0.0
C47 C 0.53867 0.16691 0.4014 0.0
C48 C 0.55832 0.06676 0.56823 0.0
C49 C 0.62722 0.1029 0.39299 0.0
C50 C 0.59523 0.96781 0.51398 0.0
Eu51 Eu 0.57202 1.01282 0.43951 0.0
C52 C 0.58207 0.93001 0.55939 0.0
C53 C 0.6078 0.92506 0.61871 0.0
C54 C 0.59912 0.88832 0.64928 0.0
C55 C 0.56447 0.85565 0.62092 0.0
C56 C 0.53781 0.86096 0.56531 0.0
C57 C 0.54653 0.89779 0.53481 0.0
C58 C 0.57628 1.03306 0.25621 0.0
C59 C 0.47963 0.96981 0.39667 0.0
O60 O 0.52733 0.10149 0.2883 0.0
O61 O 0.48654 0.07362 0.40393 0.0
O62 O 0.56091 0.09593 0.52222 0.0
O63 O 0.54179 0.03686 0.51903 0.0
O64 O 0.59733 0.10298 0.35086 0.0
O65 O 0.6233 0.07365 0.4465 0.0
O66 O 0.59376 0.99484 0.56241 0.0
O67 O 0.58584 0.96732 0.42449 0.0
O68 O 0.60301 1.02917 0.29972 0.0
O69 O 0.54773 1.02376 0.30887 0.0
O70 O 0.50914 0.96663 0.43005 0.0
O71 O 0.48327 1.00332 0.37057 0.0
H72 H 0.44257 0.11911 0.34638 0.0
H73 H 0.44715 0.17748 0.4126 0.0
H74 H 0.56936 0.22273 0.46415 0.0
H75 H 0.56421 0.16386 0.4006 0.0
H76 H 0.63551 0.94948 0.6378 0.0
H77 H 0.62052 0.88539 0.69113 0.0
H78 H 0.5106 0.83654 0.54339 0.0
H79 H 0.5262 0.9009 0.48899 0.0
C80 C 0.66389 0.58466 0.67322 0.0
Eu81 Eu 0.59085 0.54603 0.71413 0.0
C82 C 0.69821 0.58379 0.71229 0.0
C83 C 0.7034 0.58235 0.8108 0.0
C84 C 0.73561 0.58129 0.84772 0.0
C85 C 0.76334 0.58114 0.78726 0.0
C86 C 0.75803 0.58252 0.68852 0.0
C87 C 0.72585 0.5839 0.65153 0.0
C88 C 0.57147 0.52046 0.89387 0.0
C89 C 0.54205 0.4543 0.7062 0.0
C90 C 0.43459 0.47861 0.8334 0.0
Eu91 Eu 0.50323 0.50552 0.76144 0.0
C92 C 0.40881 0.48901 0.88337 0.0
C93 C 0.41259 0.52564 0.87365 0.0
C94 C 0.38382 0.53269 0.90789 0.0
C95 C 0.35068 0.5032 0.95225 0.0
C96 C 0.3481 0.46713 -0.03438 0.0
C97 C 0.37686 0.46017 0.93152 0.0
C98 C 0.51925 0.50451 0.57754 0.0
C99 C 0.54879 0.59793 0.72718 0.0
O100 O 0.63899 0.55455 0.62444 0.0
O101 O 0.64706 0.59718 0.73073 0.0
O102 O 0.59885 0.51945 0.84874 0.0
O103 O 0.55702 0.53645 0.84472 0.0
O104 O 0.57062 0.48554 0.66724 0.0
O105 O 0.51651 0.45614 0.7627 0.0
O106 O 0.46348 0.4791 0.88055 0.0
O107 O 0.44346 0.49133 0.74626 0.0
O108 O 0.48929 0.47691 0.61869 0.0
O109 O 0.53782 0.5323 0.6329 0.0
O110 O 0.51734 0.5677 0.7604 0.0
O111 O 0.57899 0.59557 0.69793 0.0
H112 H 0.68253 0.58203 0.85976 0.0
H113 H 0.73885 0.58087 0.92399 0.0
H114 H 0.77839 0.58186 0.63956 0.0
H115 H 0.72241 0.58477 0.57538 0.0
H116 H 0.43702 0.54834 0.83653 0.0
H117 H 0.38712 0.56098 0.89769 0.0
H118 H 0.32291 0.44359 -0.00171 0.0
H119 H 0.3732 0.43161 0.93896 0.0
C120 C 0.14486 0.48762 0.01215 0.0
C121 C 0.14533 0.51764 0.0636 0.0
C122 C 0.17883 0.48583 -0.00124 0.0
C123 C 0.21435 0.51488 0.03711 0.0
C124 C 0.21496 0.54497 0.09022 0.0
C125 C 0.18049 0.54592 0.1031 0.0
C126 C 0.17681 0.45308 0.94227 0.0
C127 C 0.25221 0.57663 0.13182 0.0
C128 C 0.29645 0.49228 0.06132 0.0
C129 C 0.31766 0.50894 -0.0215 0.0
C130 C 0.26325 0.4946 0.08228 0.0
C131 C 0.25091 0.51423 0.01924 0.0
C132 C 0.27279 0.53208 0.93702 0.0
C133 C 0.30576 0.52915 0.91757 0.0
C134 C 0.24083 0.47525 0.17079 0.0
C135 C 0.26076 0.55339 0.86804 0.0
H136 H 0.11791 0.46556 -0.01851 0.0
H137 H 0.18132 0.56935 0.14264 0.0
H138 H 0.1948 0.46449 0.8779 0.0
H139 H 0.18867 0.43778 -0.0152 0.0
H140 H 0.14678 0.43204 0.92009 0.0
H141 H 0.24767 0.59736 0.17366 0.0
H142 H 0.26594 0.56422 0.17835 0.0
H143 H 0.27283 0.59254 0.07409 0.0
H144 H 0.30564 0.47707 0.1096 0.0
H145 H 0.32147 0.54165 0.85271 0.0
H146 H 0.21132 0.45218 0.15115 0.0
H147 H 0.23756 0.49623 0.21472 0.0
H148 H 0.25502 0.46242 0.21441 0.0
H149 H 0.2323 0.53312 0.83586 0.0
H150 H 0.28201 0.56748 0.81024 0.0
H151 H 0.25732 0.57565 0.90571 0.0
C152 C 0.6974 0.12755 0.36199 0.0
C153 C 0.66641 0.13459 0.36993 0.0
C154 C 0.73337 0.15603 0.32713 0.0
C155 C 0.7387 0.19266 0.30176 0.0
C156 C 0.7079 0.20032 0.31351 0.0
C157 C 0.67202 0.17106 0.34621 0.0
C158 C 0.7651 0.14637 0.31358 0.0
C159 C 0.71254 0.23919 0.28939 0.0
C160 C 0.84029 0.27845 0.27758 0.0
C161 C 0.8441 0.28326 0.17863 0.0
C162 C 0.80646 0.24886 0.31862 0.0
C163 C 0.77588 0.22262 0.2596 0.0
C164 C 0.78012 0.22611 0.15985 0.0
C165 C 0.81387 0.25655 0.12068 0.0
C166 C 0.80294 0.24644 0.42524 0.0
C167 C 0.74848 0.19831 0.09427 0.0
H168 H 0.693 0.0992 0.37874 0.0
H169 H 0.64812 0.1766 0.35231 0.0
H170 H 0.77168 0.14767 0.23699 0.0
H171 H 0.792 0.16776 0.34999 0.0
H172 H 0.75704 0.11725 0.34091 0.0
H173 H 0.68679 0.24137 0.30908 0.0
H174 H 0.73827 0.26216 0.32649 0.0
H175 H 0.71731 0.24471 0.21216 0.0
H176 H 0.86362 0.29817 0.32348 0.0
H177 H 0.8159 0.26001 0.04435 0.0
H178 H 0.79638 0.21754 0.45057 0.0
H179 H 0.77856 0.25058 0.44669 0.0
H180 H 0.8297 0.26838 0.46139 0.0
H181 H 0.73958 0.16825 0.11477 0.0
H182 H 0.7576 0.20278 0.01897 0.0
H183 H 0.72267 0.20181 0.10032 0.0
C184 C 0.54286 0.78758 0.57371 0.0
C185 C 0.55771 0.81627 0.64338 0.0
C186 C 0.53951 0.7514 0.59055 0.0
C187 C 0.55132 0.74357 0.67924 0.0
C188 C 0.5653 0.77198 0.75084 0.0
C189 C 0.56833 0.80793 0.73208 0.0
C190 C 0.52452 0.722 0.51217 0.0
C191 C 0.57805 0.76476 0.84647 0.0
C192 C 0.51753 0.6389 0.74307 0.0
C193 C 0.54971 0.63545 0.71829 0.0
C194 C 0.51776 0.67396 0.73187 0.0
C195 C 0.55094 0.70645 0.69507 0.0
C196 C 0.58366 0.70329 0.67116 0.0
C197 C 0.58265 0.66794 0.683 0.0
C198 C 0.48228 0.6761 0.75826 0.0
C199 C 0.61968 0.7372 0.63189 0.0
H200 H 0.53513 0.79383 0.50448 0.0
H201 H 0.57938 0.8297 0.78677 0.0
H202 H 0.54773 0.71625 0.48952 0.0
H203 H 0.50024 0.69442 0.53813 0.0
H204 H 0.5144 0.73166 0.44936 0.0
H205 H 0.58626 0.78897 0.89622 0.0
H206 H 0.55457 0.73812 0.87866 0.0
H207 H 0.60327 0.76043 0.83787 0.0
H208 H 0.49192 0.6141 0.77045 0.0
H209 H 0.60775 0.66578 0.66378 0.0
H210 H 0.47044 0.68334 0.69462 0.0
H211 H 0.49004 0.69931 0.81064 0.0
H212 H 0.45926 0.64863 0.78867 0.0
H213 H 0.6127 0.74689 0.56419 0.0
H214 H 0.64299 0.7303 0.61879 0.0
H215 H 0.6308 0.76166 0.68191 0.0
C216 C 0.79285 0.55606 0.90757 0.0
C217 C 0.79718 0.57894 0.82735 0.0
C218 C 0.82415 0.55321 0.94558 0.0
C219 C 0.86077 0.57331 0.90187 0.0
C220 C 0.86555 0.59679 0.82159 0.0
C221 C 0.83382 0.59944 0.78561 0.0
C222 C 0.81773 0.52787 0.03127 0.0
C223 C 0.90402 0.61846 0.77238 0.0
C224 C 0.94974 0.58501 0.03751 0.0
C225 C 0.95322 0.55431 0.00202 0.0
C226 C 0.91985 0.59168 0.00568 0.0
C227 C 0.89316 0.5674 0.93588 0.0
C228 C 0.89689 0.5367 0.89917 0.0
C229 C 0.9266 0.53043 0.93293 0.0
C230 C 0.91659 0.62447 0.04729 0.0
C231 C 0.86942 0.51034 0.82399 0.0
H232 H 0.76468 0.53955 0.93975 0.0
H233 H 0.83779 0.61771 0.72469 0.0
H234 H 0.82143 0.50318 0.01147 0.0
H235 H 0.83953 0.5441 0.08718 0.0
H236 H 0.78841 0.51654 0.06139 0.0
H237 H 0.9035 0.63684 0.71348 0.0
H238 H 0.92696 0.63686 0.82382 0.0
H239 H 0.91209 0.59782 0.74326 0.0
H240 H 0.97011 0.6036 0.09083 0.0
H241 H 0.92911 0.50683 0.90404 0.0
H242 H 0.88814 0.6132 0.08207 0.0
H243 H 0.91804 0.64438 -0.00985 0.0
H244 H 0.93978 0.64096 0.10023 0.0
H245 H 0.83945 0.49536 0.8513 0.0
H246 H 0.87684 0.48837 0.80107 0.0
H247 H 0.86978 0.52735 0.76101 0.0
C248 C 0.40903 0.93671 0.35351 0.0
C249 C 0.4416 0.93432 0.38288 0.0
C250 C 0.3733 0.90345 0.33639 0.0
C251 C 0.36993 0.86677 0.34839 0.0
C252 C 0.40253 0.8641 0.37905 0.0
C253 C 0.43788 0.89784 0.39614 0.0
C254 C 0.33918 0.90758 0.30461 0.0
C255 C 0.4002 0.82557 0.39256 0.0
C256 C 0.26866 0.78115 0.37856 0.0
C257 C 0.25968 0.76606 0.28642 0.0
C258 C 0.30458 0.8135 0.40005 0.0
C259 C 0.33237 0.83129 0.32777 0.0
C260 C 0.32382 0.81578 0.23507 0.0
C261 C 0.28764 0.7834 0.21553 0.0
C262 C 0.31256 0.82899 0.49986 0.0
C263 C 0.35265 0.83387 0.15599 0.0
H264 H 0.41142 0.96466 0.34334 0.0
H265 H 0.46278 0.89555 0.41858 0.0
H266 H 0.32897 0.89438 0.23377 0.0
H267 H 0.31483 0.89208 0.35439 0.0
H268 H 0.34631 0.93811 0.30048 0.0
H269 H 0.42791 0.82836 0.41879 0.0
H270 H 0.37712 0.80779 0.44372 0.0
H271 H 0.39243 0.80985 0.32433 0.0
H272 H 0.24752 0.76759 0.4342 0.0
H273 H 0.28086 0.77225 0.14397 0.0
H274 H 0.31759 0.85882 0.4997 0.0
H275 H 0.33921 0.83011 0.5282 0.0
H276 H 0.28833 0.81127 0.54853 0.0
H277 H 0.35859 0.86367 0.143 0.0
H278 H 0.3422 0.81752 0.08877 0.0
H279 H 0.38047 0.83565 0.17657 0.0
C280 C 0.50681 0.38174 0.71315 0.0
C281 C 0.53666 0.41638 0.67653 0.0
C282 C 0.50049 0.346 0.67984 0.0
C283 C 0.52444 0.34487 0.60793 0.0
C284 C 0.55472 0.37974 0.57132 0.0
C285 C 0.5605 0.41488 0.60609 0.0
C286 C 0.4679 0.30945 0.72069 0.0
C287 C 0.58084 0.37999 0.49431 0.0
C288 C 0.53431 0.25618 0.56972 0.0
C289 C 0.51129 0.23992 0.48845 0.0
C290 C 0.538 0.28967 0.61076 0.0
C291 C 0.51807 0.30744 0.5701 0.0
C292 C 0.49409 0.29075 0.48941 0.0
C293 C 0.49104 0.2573 0.44954 0.0
C294 C 0.56394 0.30654 0.69656 0.0
C295 C 0.4724 0.3088 0.44366 0.0
H296 H 0.48812 0.38249 0.76715 0.0
H297 H 0.5835 0.44132 0.57641 0.0
H298 H 0.44689 0.29272 0.66378 0.0
H299 H 0.47929 0.29122 0.75028 0.0
H300 H 0.45237 0.31513 0.77748 0.0
H301 H 0.60334 0.40957 0.47411 0.0
H302 H 0.59537 0.36382 0.5182 0.0
H303 H 0.56346 0.36541 0.43025 0.0
H304 H 0.54947 0.24264 0.60165 0.0
H305 H 0.47346 0.24529 0.38637 0.0
H306 H 0.54774 0.31029 0.7549 0.0
H307 H 0.58836 0.33541 0.67874 0.0
H308 H 0.57593 0.28827 0.72254 0.0
H309 H 0.4548 0.31314 0.49721 0.0
H310 H 0.45302 0.291 0.38519 0.0
H311 H 0.49323 0.33753 0.41468 0.0
C312 C 0.11018 0.57192 0.76915 0.0
C313 C 0.07802 0.54958 0.82594 0.0
C314 C 0.10827 0.5657 0.67106 0.0
C315 C 0.07337 0.5367 0.63026 0.0
C316 C 1.04148 0.51306 0.68836 0.0
C317 C 1.0443 0.51972 0.7857 0.0
C318 C 0.14292 0.59097 0.61085 0.0
C319 C 1.00377 0.48176 0.64738 0.0
C320 C 1.04246 0.54245 0.37984 0.0
C321 C 1.04667 0.51359 0.33642 0.0
C322 C 1.0533 0.55197 0.47475 0.0
C323 C 0.06877 0.53212 0.52644 0.0
C324 C 0.07489 0.50431 0.48126 0.0
C325 C 0.06342 0.49511 0.38655 0.0
C326 C 1.04614 0.58165 0.52102 0.0
C327 C 0.09178 0.48299 0.5341 0.0
H328 H 0.13632 0.59485 0.80083 0.0
H329 H 1.01956 0.50217 0.83005 0.0
H330 H 0.14939 0.5732 0.56279 0.0
H331 H 0.1365 0.60999 0.56566 0.0
H332 H 0.16906 0.60921 0.65448 0.0
H333 H 0.98237 0.46499 0.70313 0.0
H334 H 0.99098 0.49467 0.5993 0.0
H335 H 1.0089 0.46167 0.6047 0.0
H336 H 1.02953 0.5567 0.34052 0.0
H337 H 0.06709 0.47309 0.35211 0.0
H338 H 0.07244 0.60306 0.55944 0.0
H339 H 1.02276 0.56738 0.5739 0.0
H340 H 1.03752 0.59703 0.46873 0.0
H341 H 0.11787 0.5033 0.57506 0.0
H342 H 0.09968 0.46638 0.48559 0.0
H343 H 0.07036 0.46269 0.58554 0.0
C344 C 0.54762 0.04702 0.11556 0.0
C345 C 0.57934 0.04708 0.15921 0.0
C346 C 0.54878 0.05643 0.01967 0.0
C347 C 0.58249 0.06603 -0.03253 0.0
C348 C 0.61562 0.06895 0.01316 0.0
C349 C 0.61359 0.05925 0.10912 0.0
C350 C 0.51307 0.05353 -0.02701 0.0
C351 C 0.6522 0.07972 -0.04043 0.0
C352 C 0.56009 0.03333 0.71464 0.0
C353 C 0.56826 0.06749 0.66834 0.0
C354 C 0.56653 1.03296 0.81193 0.0
C355 C 0.5809 0.06755 0.86351 0.0
C356 C 0.59057 0.10245 0.81651 0.0
C357 C 0.58418 0.10201 0.71873 0.0
C358 C 0.55632 0.99524 0.86005 0.0
C359 C 0.6059 0.13975 0.86989 0.0
H360 H 0.52137 0.03813 0.15528 0.0
H361 H 0.63837 0.05998 0.14402 0.0
H362 H 0.52072 0.07938 0.92889 0.0
H363 H 0.49978 1.02825 0.92534 0.0
H364 H 0.49116 0.0503 0.02566 0.0
H365 H 0.67709 0.08704 0.00811 0.0
H366 H 0.64764 0.05517 0.91487 0.0
H367 H 0.65968 0.10453 0.91167 0.0
H368 H 0.54756 1.00665 0.6754 0.0
H369 H 0.59058 0.12847 0.6823 0.0
H370 H 0.53157 0.98682 0.90825 0.0
H371 H 0.58104 0.9983 0.90383 0.0
H372 H 0.54836 0.97168 0.80841 0.0
H373 H 0.58246 0.13891 0.91321 0.0
H374 H 0.61686 0.16497 0.82141 0.0
H375 H 0.62953 0.14381 0.91929 0.0
C376 C 0.5623 0.53395 0.44019 0.0
C377 C 0.53148 0.50185 0.48233 0.0
C378 C 0.57157 0.53271 0.34566 0.0
C379 C 0.54937 0.49852 0.29343 0.0
C380 C 0.52031 0.46511 0.33825 0.0
C381 C 0.51155 0.46725 0.43267 0.0
C382 C 0.60314 0.56874 0.29997 0.0
C383 C 0.49659 0.42801 0.28491 0.0
C384 C 0.53597 0.51751 0.0384 0.0
C385 C 0.5633 0.51095 -0.00587 0.0
C386 C 0.53003 0.51187 0.13574 0.0
C387 C 0.55238 0.49981 0.18956 0.0
C388 C 0.57899 0.49168 0.14471 0.0
C389 C 0.58415 0.49736 0.04675 0.0
C390 C 0.50098 0.52035 0.1814 0.0
C391 C 0.60309 0.47864 0.20044 0.0
H392 H 0.57809 0.56046 0.47975 0.0
H393 H 0.48826 0.44215 0.46657 0.0
H394 H 0.62248 0.56211 0.25818 0.0
H395 H 0.59 0.58079 0.25029 0.0
H396 H 0.62085 0.59107 0.35311 0.0
H397 H 0.47537 0.43069 0.23832 0.0
H398 H 0.51521 0.42184 0.23896 0.0
H399 H 0.48049 0.40322 0.33366 0.0
H400 H 0.52001 0.52818 -0.00256 0.0
H401 H 0.60525 0.49222 0.0119 0.0
H402 H 0.51617 0.54523 0.22979 0.0
H403 H 0.48034 0.4954 0.22457 0.0
H404 H 0.48429 0.52707 0.12831 0.0
H405 H 0.62525 0.50303 0.24262 0.0
H406 H 0.61806 0.46818 0.15358 0.0
H407 H 0.58491 0.45541 0.25106 0.0
loop_
_geom_bond_atom_site_label_1
_geom_bond_atom_site_label_2
_geom_bond_distance
_geom_bond_site_symmetry_2
_ccdc_geom_bond_type
C0 Eu1 2.835 . S
C0 C2 1.500 . S
C0 O20 1.257 . S
C0 O21 1.260 . S
Eu1 C0 2.835 . S
Eu1 O20 2.473 . S
Eu1 O21 2.480 . S
Eu1 O22 2.430 . S
Eu1 O23 2.670 1_655 S
Eu1 O24 2.394 . S
Eu1 O29 2.355 . S
Eu1 O31 2.374 1_655 S
C2 C0 1.500 . S
C2 C3 1.377 . S
C2 C7 1.377 . S
C3 C2 1.377 . S
C3 C4 1.395 . S
C3 H32 0.931 . S
C4 C3 1.395 . S
C4 C5 1.383 . S
C4 H33 0.931 . S
C5 C4 1.383 . S
C5 C6 1.394 . S
C6 C5 1.394 . S
C6 C7 1.378 . S
C6 H34 0.931 1_554 S
C7 C2 1.377 . S
C7 C6 1.378 . S
C7 H35 0.931 1_554 S
C8 O22 1.258 1_455 S
C8 O23 1.273 . S
C9 O24 1.251 . S
C9 O25 1.251 . S
C10 Eu11 2.835 . S
C10 C12 1.500 . S
C10 O26 1.257 . S
C10 O27 1.260 . S
Eu11 C10 2.835 . S
Eu11 O23 2.355 . S
Eu11 O25 2.374 1_455 S
Eu11 O26 2.473 . S
Eu11 O27 2.480 . S
Eu11 O28 2.430 1_554 S
Eu11 O29 2.670 1_455 S
Eu11 O30 2.394 . S
C12 C10 1.500 . S
C12 C13 1.377 . S
C12 C17 1.377 . S
C13 C12 1.377 . S
C13 C14 1.395 . S
C13 H36 0.931 . S
C14 C13 1.395 . S
C14 C15 1.383 . S
C14 H37 0.931 . S
C15 C14 1.383 . S
C15 C16 1.394 . S
C16 C15 1.394 . S
C16 C17 1.378 . S
C16 H38 0.931 . S
C17 C12 1.377 . S
C17 C16 1.378 . S
C17 H39 0.931 . S
C18 O28 1.259 . S
C18 O29 1.270 1_456 S
C19 O30 1.251 . S
C19 O31 1.251 . S
O20 C0 1.257 . S
O20 Eu1 2.473 . S
O21 C0 1.260 . S
O21 Eu1 2.480 . S
O22 Eu1 2.430 . S
O22 C8 1.258 1_655 S
O23 Eu1 2.670 1_455 S
O23 C8 1.273 . S
O23 Eu11 2.355 . S
O24 Eu1 2.394 . S
O24 C9 1.251 . S
O25 C9 1.251 . S
O25 Eu11 2.374 1_655 S
O26 C10 1.257 . S
O26 Eu11 2.473 . S
O27 C10 1.260 . S
O27 Eu11 2.480 . S
O28 Eu11 2.430 1_556 S
O28 C18 1.259 . S
O29 Eu1 2.355 . S
O29 Eu11 2.670 1_655 S
O29 C18 1.270 1_654 S
O30 Eu11 2.394 . S
O30 C19 1.251 . S
O31 Eu1 2.374 1_455 S
O31 C19 1.251 . S
H32 C3 0.931 . S
H33 C4 0.931 . S
H34 C6 0.931 1_556 S
H35 C7 0.931 1_556 S
H36 C13 0.931 . S
H37 C14 0.931 . S
H38 C16 0.931 . S
H39 C17 0.931 . S
C40 Eu41 2.835 . S
C40 C42 1.500 . S
C40 O60 1.257 . S
C40 O61 1.260 . S
Eu41 C40 2.835 . S
Eu41 O60 2.473 . S
Eu41 O61 2.480 . S
Eu41 O62 2.430 . S
Eu41 O63 2.670 1_545 S
Eu41 O64 2.394 . S
Eu41 O69 2.355 . S
Eu41 O71 2.374 1_545 S
C42 C40 1.500 . S
C42 C43 1.377 . S
C42 C47 1.377 . S
C43 C42 1.377 . S
C43 C44 1.395 . S
C43 H72 0.931 . S
C44 C43 1.395 . S
C44 C45 1.383 . S
C44 H73 0.931 . S
C45 C44 1.383 . S
C45 C46 1.394 . S
C46 C45 1.394 . S
C46 C47 1.378 . S
C46 H74 0.931 . S
C47 C42 1.377 . S
C47 C46 1.378 . S
C47 H75 0.931 . S
C48 O62 1.284 . S
C48 O63 1.257 1_545 S
C49 O64 1.251 . S
C49 O65 1.251 . S
C50 Eu51 2.835 . S
C50 C52 1.500 . S
C50 O66 1.257 . S
C50 O67 1.260 . S
Eu51 C50 2.835 . S
Eu51 O63 2.355 . S
Eu51 O65 2.374 1_565 S
Eu51 O66 2.473 . S
Eu51 O67 2.480 . S
Eu51 O68 2.430 . S
Eu51 O69 2.670 1_565 S
Eu51 O70 2.394 . S
C52 C50 1.500 . S
C52 C53 1.377 . S
C52 C57 1.377 . S
C53 C52 1.377 . S
C53 C54 1.395 . S
C53 H76 0.931 . S
C54 C53 1.395 . S
C54 C55 1.383 . S
C54 H77 0.931 . S
C55 C54 1.383 . S
C55 C56 1.394 . S
C56 C55 1.394 . S
C56 C57 1.378 . S
C56 H78 0.931 . S
C57 C52 1.377 . S
C57 C56 1.378 . S
C57 H79 0.931 . S
C58 O68 1.257 . S
C58 O69 1.271 1_565 S
C59 O70 1.251 . S
C59 O71 1.251 . S
O60 C40 1.257 . S
O60 Eu41 2.473 . S
O61 C40 1.260 . S
O61 Eu41 2.480 . S
O62 Eu41 2.430 . S
O62 C48 1.284 . S
O63 Eu41 2.670 1_565 S
O63 C48 1.257 1_565 S
O63 Eu51 2.355 . S
O64 Eu41 2.394 . S
O64 C49 1.251 . S
O65 C49 1.251 . S
O65 Eu51 2.374 1_545 S
O66 C50 1.257 . S
O66 Eu51 2.473 . S
O67 C50 1.260 . S
O67 Eu51 2.480 . S
O68 Eu51 2.430 . S
O68 C58 1.257 . S
O69 Eu41 2.355 . S
O69 Eu51 2.670 1_545 S
O69 C58 1.271 1_545 S
O70 Eu51 2.394 . S
O70 C59 1.251 . S
O71 Eu41 2.374 1_565 S
O71 C59 1.251 . S
H72 C43 0.931 . S
H73 C44 0.931 . S
H74 C46 0.931 . S
H75 C47 0.931 . S
H76 C53 0.931 . S
H77 C54 0.931 . S
H78 C56 0.931 . S
H79 C57 0.931 . S
C80 Eu81 2.835 . S
C80 C82 1.500 . S
C80 O100 1.257 . S
C80 O101 1.260 . S
Eu81 C80 2.835 . S
Eu81 O100 2.473 . S
Eu81 O101 2.480 . S
Eu81 O102 2.430 1_556 S
Eu81 O103 2.670 . S
Eu81 O104 2.394 . S
Eu81 O109 2.355 . S
Eu81 O111 2.374 . S
C82 C80 1.500 . S
C82 C83 1.377 . S
C82 C87 1.377 . S
C83 C82 1.377 . S
C83 C84 1.395 . S
C83 H112 0.931 . S
C84 C83 1.395 . S
C84 C85 1.383 . S
C84 H113 0.931 . S
C85 C84 1.383 . S
C85 C86 1.394 . S
C86 C85 1.394 . S
C86 C87 1.378 . S
C86 H114 0.931 . S
C87 C82 1.377 . S
C87 C86 1.378 . S
C87 H115 0.931 . S
C88 O102 1.259 . S
C88 O103 1.270 1_554 S
C89 O104 1.251 . S
C89 O105 1.251 . S
C90 Eu91 2.835 . S
C90 C92 1.500 . S
C90 O106 1.257 . S
C90 O107 1.260 . S
Eu91 C90 2.835 . S
Eu91 O103 2.355 . S
Eu91 O105 2.374 . S
Eu91 O106 2.473 . S
Eu91 O107 2.480 . S
Eu91 O108 2.430 . S
Eu91 O109 2.670 . S
Eu91 O110 2.394 . S
C92 C90 1.500 . S
C92 C93 1.377 . S
C92 C97 1.377 . S
C93 C92 1.377 . S
C93 C94 1.395 . S
C93 H116 0.931 . S
C94 C93 1.395 . S
C94 C95 1.383 . S
C94 H117 0.931 . S
C95 C94 1.383 . S
C95 C96 1.394 . S
C96 C95 1.394 . S
C96 C97 1.378 . S
C96 H118 0.931 1_556 S
C97 C92 1.377 . S
C97 C96 1.378 . S
C97 H119 0.931 1_556 S
C98 O108 1.259 . S
C98 O109 1.270 . S
C99 O110 1.251 . S
C99 O111 1.251 . S
O100 C80 1.257 . S
O100 Eu81 2.473 . S
O101 C80 1.260 . S
O101 Eu81 2.480 . S
O102 Eu81 2.430 1_554 S
O102 C88 1.259 . S
O103 Eu81 2.670 . S
O103 C88 1.270 1_556 S
O103 Eu91 2.355 . S
O104 Eu81 2.394 . S
O104 C89 1.251 . S
O105 C89 1.251 . S
O105 Eu91 2.374 . S
O106 C90 1.257 . S
O106 Eu91 2.473 . S
O107 C90 1.260 . S
O107 Eu91 2.480 . S
O108 Eu91 2.430 . S
O108 C98 1.259 . S
O109 Eu81 2.355 . S
O109 Eu91 2.670 . S
O109 C98 1.270 . S
O110 Eu91 2.394 . S
O110 C99 1.251 . S
O111 Eu81 2.374 . S
O111 C99 1.251 . S
H112 C83 0.931 . S
H113 C84 0.931 . S
H114 C86 0.931 . S
H115 C87 0.931 . S
H116 C93 0.931 . S
H117 C94 0.931 . S
H118 C96 0.931 1_554 S
H119 C97 0.931 1_554 S
C120 C121 1.391 . S
C120 C122 1.394 . S
C120 H136 0.931 . S
C121 C120 1.391 . S
C121 C125 1.376 . S
C122 C120 1.394 . S
C122 C123 1.369 . S
C122 C126 1.531 . S
C123 C122 1.369 . S
C123 C124 1.410 . S
C123 C131 1.503 1_554 S
C124 C123 1.410 . S
C124 C125 1.392 . S
C124 C127 1.511 1_554 S
C125 C121 1.376 . S
C125 C124 1.392 . S
C125 H137 0.929 . S
C126 C122 1.531 . S
C126 H138 0.960 . S
C126 H139 0.962 . S
C126 H140 0.960 . S
C127 C124 1.511 1_556 S
C127 H141 0.961 . S
C127 H142 0.961 . S
C127 H143 0.961 . S
C128 C129 1.370 1_554 S
C128 C130 1.363 . S
C128 H144 0.931 . S
C129 C128 1.370 1_556 S
C129 C133 1.408 . S
C130 C128 1.363 . S
C130 C131 1.370 1_554 S
C130 C134 1.524 . S
C131 C123 1.503 1_556 S
C131 C130 1.370 1_556 S
C131 C132 1.403 . S
C132 C131 1.403 . S
C132 C133 1.404 . S
C132 C135 1.539 . S
C133 C129 1.408 . S
C133 C132 1.404 . S
C133 H145 0.930 . S
C134 C130 1.524 . S
C134 H146 0.956 . S
C134 H147 0.961 . S
C134 H148 0.961 . S
C135 C132 1.539 . S
C135 H149 0.958 . S
C135 H150 0.961 . S
C135 H151 0.960 . S
H136 C120 0.931 . S
H137 C125 0.929 . S
H138 C126 0.960 . S
H139 C126 0.962 . S
H140 C126 0.960 . S
H141 C127 0.961 . S
H142 C127 0.961 . S
H143 C127 0.961 . S
H144 C128 0.931 . S
H145 C133 0.930 . S
H146 C134 0.956 . S
H147 C134 0.961 . S
H148 C134 0.961 . S
H149 C135 0.958 . S
H150 C135 0.961 . S
H151 C135 0.960 . S
C152 C153 1.391 . S
C152 C154 1.394 . S
C152 H168 0.931 . S
C153 C152 1.391 . S
C153 C157 1.376 . S
C154 C152 1.394 . S
C154 C155 1.369 . S
C154 C158 1.531 . S
C155 C154 1.369 . S
C155 C156 1.410 . S
C155 C163 1.503 . S
C156 C155 1.410 . S
C156 C157 1.392 . S
C156 C159 1.511 . S
C157 C153 1.376 . S
C157 C156 1.392 . S
C157 H169 0.929 . S
C158 C154 1.531 . S
C158 H170 0.960 . S
C158 H171 0.962 . S
C158 H172 0.960 . S
C159 C156 1.511 . S
C159 H173 0.961 . S
C159 H174 0.961 . S
C159 H175 0.961 . S
C160 C161 1.370 . S
C160 C162 1.363 . S
C160 H176 0.931 . S
C161 C160 1.370 . S
C161 C165 1.408 . S
C162 C160 1.363 . S
C162 C163 1.370 . S
C162 C166 1.524 . S
C163 C155 1.503 . S
C163 C162 1.370 . S
C163 C164 1.403 . S
C164 C163 1.403 . S
C164 C165 1.404 . S
C164 C167 1.539 . S
C165 C161 1.408 . S
C165 C164 1.404 . S
C165 H177 0.930 . S
C166 C162 1.524 . S
C166 H178 0.956 . S
C166 H179 0.961 . S
C166 H180 0.961 . S
C167 C164 1.539 . S
C167 H181 0.958 . S
C167 H182 0.961 . S
C167 H183 0.960 . S
H168 C152 0.931 . S
H169 C157 0.929 . S
H170 C158 0.960 . S
H171 C158 0.962 . S
H172 C158 0.960 . S
H173 C159 0.961 . S
H174 C159 0.961 . S
H175 C159 0.961 . S
H176 C160 0.931 . S
H177 C165 0.930 . S
H178 C166 0.956 . S
H179 C166 0.961 . S
H180 C166 0.961 . S
H181 C167 0.958 . S
H182 C167 0.961 . S
H183 C167 0.960 . S
C184 C185 1.391 . S
C184 C186 1.394 . S
C184 H200 0.931 . S
C185 C184 1.391 . S
C185 C189 1.376 . S
C186 C184 1.394 . S
C186 C187 1.369 . S
C186 C190 1.531 . S
C187 C186 1.369 . S
C187 C188 1.410 . S
C187 C195 1.503 . S
C188 C187 1.410 . S
C188 C189 1.392 . S
C188 C191 1.511 . S
C189 C185 1.376 . S
C189 C188 1.392 . S
C189 H201 0.929 . S
C190 C186 1.531 . S
C190 H202 0.960 . S
C190 H203 0.962 . S
C190 H204 0.960 . S
C191 C188 1.511 . S
C191 H205 0.961 . S
C191 H206 0.961 . S
C191 H207 0.961 . S
C192 C193 1.370 . S
C192 C194 1.363 . S
C192 H208 0.931 . S
C193 C192 1.370 . S
C193 C197 1.408 . S
C194 C192 1.363 . S
C194 C195 1.370 . S
C194 C198 1.524 . S
C195 C187 1.503 . S
C195 C194 1.370 . S
C195 C196 1.403 . S
C196 C195 1.403 . S
C196 C197 1.404 . S
C196 C199 1.539 . S
C197 C193 1.408 . S
C197 C196 1.404 . S
C197 H209 0.930 . S
C198 C194 1.524 . S
C198 H210 0.956 . S
C198 H211 0.961 . S
C198 H212 0.961 . S
C199 C196 1.539 . S
C199 H213 0.958 . S
C199 H214 0.961 . S
C199 H215 0.960 . S
H200 C184 0.931 . S
H201 C189 0.929 . S
H202 C190 0.960 . S
H203 C190 0.962 . S
H204 C190 0.960 . S
H205 C191 0.961 . S
H206 C191 0.961 . S
H207 C191 0.961 . S
H208 C192 0.931 . S
H209 C197 0.930 . S
H210 C198 0.956 . S
H211 C198 0.961 . S
H212 C198 0.961 . S
H213 C199 0.958 . S
H214 C199 0.961 . S
H215 C199 0.960 . S
C216 C217 1.391 . S
C216 C218 1.394 . S
C216 H232 0.931 . S
C217 C216 1.391 . S
C217 C221 1.376 . S
C218 C216 1.394 . S
C218 C219 1.369 . S
C218 C222 1.531 1_556 S
C219 C218 1.369 . S
C219 C220 1.410 . S
C219 C227 1.503 . S
C220 C219 1.410 . S
C220 C221 1.392 . S
C220 C223 1.511 . S
C221 C217 1.376 . S
C221 C220 1.392 . S
C221 H233 0.929 . S
C222 C218 1.531 1_554 S
C222 H234 0.960 . S
C222 H235 0.962 . S
C222 H236 0.960 . S
C223 C220 1.511 . S
C223 H237 0.961 . S
C223 H238 0.961 . S
C223 H239 0.961 . S
C224 C225 1.370 . S
C224 C226 1.363 . S
C224 H240 0.931 . S
C225 C224 1.370 . S
C225 C229 1.408 . S
C226 C224 1.363 . S
C226 C227 1.370 1_554 S
C226 C230 1.524 . S
C227 C219 1.503 . S
C227 C226 1.370 1_556 S
C227 C228 1.403 . S
C228 C227 1.403 . S
C228 C229 1.404 1_556 S
C228 C231 1.539 . S
C229 C225 1.408 . S
C229 C228 1.404 1_554 S
C229 H241 0.930 . S
C230 C226 1.524 . S
C230 H242 0.956 . S
C230 H243 0.961 . S
C230 H244 0.961 . S
C231 C228 1.539 . S
C231 H245 0.958 . S
C231 H246 0.961 . S
C231 H247 0.960 . S
H232 C216 0.931 . S
H233 C221 0.929 . S
H234 C222 0.960 . S
H235 C222 0.962 . S
H236 C222 0.960 . S
H237 C223 0.961 . S
H238 C223 0.961 . S
H239 C223 0.961 . S
H240 C224 0.931 . S
H241 C229 0.930 . S
H242 C230 0.956 . S
H243 C230 0.961 . S
H244 C230 0.961 . S
H245 C231 0.958 . S
H246 C231 0.961 . S
H247 C231 0.960 . S
C248 C249 1.391 . S
C248 C250 1.394 . S
C248 H264 0.931 . S
C249 C248 1.391 . S
C249 C253 1.376 . S
C250 C248 1.394 . S
C250 C251 1.369 . S
C250 C254 1.531 . S
C251 C250 1.369 . S
C251 C252 1.410 . S
C251 C259 1.503 . S
C252 C251 1.410 . S
C252 C253 1.392 . S
C252 C255 1.511 . S
C253 C249 1.376 . S
C253 C252 1.392 . S
C253 H265 0.929 . S
C254 C250 1.531 . S
C254 H266 0.960 . S
C254 H267 0.962 . S
C254 H268 0.960 . S
C255 C252 1.511 . S
C255 H269 0.961 . S
C255 H270 0.961 . S
C255 H271 0.961 . S
C256 C257 1.370 . S
C256 C258 1.363 . S
C256 H272 0.931 . S
C257 C256 1.370 . S
C257 C261 1.408 . S
C258 C256 1.363 . S
C258 C259 1.370 . S
C258 C262 1.524 . S
C259 C251 1.503 . S
C259 C258 1.370 . S
C259 C260 1.403 . S
C260 C259 1.403 . S
C260 C261 1.404 . S
C260 C263 1.539 . S
C261 C257 1.408 . S
C261 C260 1.404 . S
C261 H273 0.930 . S
C262 C258 1.524 . S
C262 H274 0.956 . S
C262 H275 0.961 . S
C262 H276 0.961 . S
C263 C260 1.539 . S
C263 H277 0.958 . S
C263 H278 0.961 . S
C263 H279 0.960 . S
H264 C248 0.931 . S
H265 C253 0.929 . S
H266 C254 0.960 . S
H267 C254 0.962 . S
H268 C254 0.960 . S
H269 C255 0.961 . S
H270 C255 0.961 . S
H271 C255 0.961 . S
H272 C256 0.931 . S
H273 C261 0.930 . S
H274 C262 0.956 . S
H275 C262 0.961 . S
H276 C262 0.961 . S
H277 C263 0.958 . S
H278 C263 0.961 . S
H279 C263 0.960 . S
C280 C281 1.391 . S
C280 C282 1.394 . S
C280 H296 0.931 . S
C281 C280 1.391 . S
C281 C285 1.376 . S
C282 C280 1.394 . S
C282 C283 1.369 . S
C282 C286 1.531 . S
C283 C282 1.369 . S
C283 C284 1.410 . S
C283 C291 1.503 . S
C284 C283 1.410 . S
C284 C285 1.392 . S
C284 C287 1.511 . S
C285 C281 1.376 . S
C285 C284 1.392 . S
C285 H297 0.929 . S
C286 C282 1.531 . S
C286 H298 0.960 . S
C286 H299 0.962 . S
C286 H300 0.960 . S
C287 C284 1.511 . S
C287 H301 0.961 . S
C287 H302 0.961 . S
C287 H303 0.961 . S
C288 C289 1.370 . S
C288 C290 1.363 . S
C288 H304 0.931 . S
C289 C288 1.370 . S
C289 C293 1.408 . S
C290 C288 1.363 . S
C290 C291 1.370 . S
C290 C294 1.524 . S
C291 C283 1.503 . S
C291 C290 1.370 . S
C291 C292 1.403 . S
C292 C291 1.403 . S
C292 C293 1.404 . S
C292 C295 1.539 . S
C293 C289 1.408 . S
C293 C292 1.404 . S
C293 H305 0.930 . S
C294 C290 1.524 . S
C294 H306 0.956 . S
C294 H307 0.961 . S
C294 H308 0.961 . S
C295 C292 1.539 . S
C295 H309 0.958 . S
C295 H310 0.961 . S
C295 H311 0.960 . S
H296 C280 0.931 . S
H297 C285 0.929 . S
H298 C286 0.960 . S
H299 C286 0.962 . S
H300 C286 0.960 . S
H301 C287 0.961 . S
H302 C287 0.961 . S
H303 C287 0.961 . S
H304 C288 0.931 . S
H305 C293 0.930 . S
H306 C294 0.956 . S
H307 C294 0.961 . S
H308 C294 0.961 . S
H309 C295 0.958 . S
H310 C295 0.961 . S
H311 C295 0.960 . S
C312 C313 1.391 1_455 S
C312 C314 1.394 . S
C312 H328 0.931 . S
C313 C312 1.391 1_655 S
C313 C317 1.376 . S
C314 C312 1.394 . S
C314 C315 1.369 1_455 S
C314 C318 1.531 . S
C315 C314 1.369 1_655 S
C315 C316 1.410 . S
C315 C323 1.503 . S
C316 C315 1.410 . S
C316 C317 1.392 . S
C316 C319 1.511 . S
C317 C313 1.376 . S
C317 C316 1.392 . S
C317 H329 0.929 . S
C318 C314 1.531 . S
C318 H330 0.960 . S
C318 H331 0.962 . S
C318 H332 0.960 . S
C319 C316 1.511 . S
C319 H333 0.961 . S
C319 H334 0.961 . S
C319 H335 0.961 . S
C320 C321 1.370 . S
C320 C322 1.363 . S
C320 H336 0.931 . S
C321 C320 1.370 . S
C321 C325 1.408 1_455 S
C322 C320 1.363 . S
C322 C323 1.370 1_455 S
C322 C326 1.524 . S
C323 C315 1.503 . S
C323 C322 1.370 1_655 S
C323 C324 1.403 . S
C324 C323 1.403 . S
C324 C325 1.404 . S
C324 C327 1.539 . S
C325 C321 1.408 1_655 S
C325 C324 1.404 . S
C325 H337 0.930 . S
C326 C322 1.524 . S
C326 H338 0.956 . S
C326 H339 0.961 . S
C326 H340 0.961 . S
C327 C324 1.539 . S
C327 H341 0.958 . S
C327 H342 0.961 . S
C327 H343 0.960 . S
H328 C312 0.931 . S
H329 C317 0.929 . S
H330 C318 0.960 . S
H331 C318 0.962 . S
H332 C318 0.960 . S
H333 C319 0.961 . S
H334 C319 0.961 . S
H335 C319 0.961 . S
H336 C320 0.931 . S
H337 C325 0.930 . S
H338 C326 0.956 . S
H339 C326 0.961 . S
H340 C326 0.961 . S
H341 C327 0.958 . S
H342 C327 0.961 . S
H343 C327 0.960 . S
C344 C345 1.391 1_565 S
C344 C346 1.394 . S
C344 H360 0.931 . S
C345 C344 1.391 1_545 S
C345 C349 1.376 . S
C346 C344 1.394 . S
C346 C347 1.369 . S
C346 C350 1.531 . S
C347 C346 1.369 . S
C347 C348 1.410 1_565 S
C347 C355 1.503 1_554 S
C348 C347 1.410 1_545 S
C348 C349 1.392 . S
C348 C351 1.511 . S
C349 C345 1.376 . S
C349 C348 1.392 . S
C349 H361 0.929 . S
C350 C346 1.531 . S
C350 H362 0.962 . S
C350 H363 0.962 . S
C350 H364 0.960 . S
C351 C348 1.511 . S
C351 H365 0.961 . S
C351 H366 0.961 1_554 S
C351 H367 0.961 . S
C352 C353 1.370 1_545 S
C352 C354 1.363 . S
C352 H368 0.931 . S
C353 C352 1.370 1_565 S
C353 C357 1.408 . S
C354 C352 1.363 . S
C354 C355 1.370 1_545 S
C354 C358 1.524 . S
C355 C347 1.503 1_556 S
C355 C354 1.370 1_565 S
C355 C356 1.403 . S
C356 C355 1.403 . S
C356 C357 1.404 . S
C356 C359 1.539 . S
C357 C353 1.408 . S
C357 C356 1.404 . S
C357 H369 0.930 . S
C358 C354 1.524 . S
C358 H370 0.956 1_556 S
C358 H371 0.961 1_556 S
C358 H372 0.961 . S
C359 C356 1.539 . S
C359 H373 0.958 . S
C359 H374 0.961 . S
C359 H375 0.960 . S
H360 C344 0.931 . S
H361 C349 0.929 . S
H362 C350 0.962 . S
H363 C350 0.962 . S
H364 C350 0.960 . S
H365 C351 0.961 . S
H366 C351 0.961 1_556 S
H367 C351 0.961 . S
H368 C352 0.931 . S
H369 C357 0.930 . S
H370 C358 0.956 1_554 S
H371 C358 0.961 1_554 S
H372 C358 0.961 . S
H373 C359 0.958 . S
H374 C359 0.961 . S
H375 C359 0.960 . S
C376 C377 1.391 . S
C376 C378 1.394 . S
C376 H392 0.931 . S
C377 C376 1.391 . S
C377 C381 1.376 . S
C378 C376 1.394 . S
C378 C379 1.369 . S
C378 C382 1.531 . S
C379 C378 1.369 . S
C379 C380 1.410 . S
C379 C387 1.503 . S
C380 C379 1.410 . S
C380 C381 1.392 . S
C380 C383 1.511 . S
C381 C377 1.376 . S
C381 C380 1.392 . S
C381 H393 0.929 . S
C382 C378 1.531 . S
C382 H394 0.960 . S
C382 H395 0.962 . S
C382 H396 0.960 . S
C383 C380 1.511 . S
C383 H397 0.961 . S
C383 H398 0.961 . S
C383 H399 0.961 . S
C384 C385 1.370 . S
C384 C386 1.363 . S
C384 H400 0.931 . S
C385 C384 1.370 . S
C385 C389 1.408 . S
C386 C384 1.363 . S
C386 C387 1.370 . S
C386 C390 1.524 . S
C387 C379 1.503 . S
C387 C386 1.370 . S
C387 C388 1.403 . S
C388 C387 1.403 . S
C388 C389 1.404 . S
C388 C391 1.539 . S
C389 C385 1.408 . S
C389 C388 1.404 . S
C389 H401 0.930 . S
C390 C386 1.524 . S
C390 H402 0.956 . S
C390 H403 0.961 . S
C390 H404 0.961 . S
C391 C388 1.539 . S
C391 H405 0.958 . S
C391 H406 0.961 . S
C391 H407 0.960 . S
H392 C376 0.931 . S
H393 C381 0.929 . S
H394 C382 0.960 . S
H395 C382 0.962 . S
H396 C382 0.960 . S
H397 C383 0.961 . S
H398 C383 0.961 . S
H399 C383 0.961 . S
H400 C384 0.931 . S
H401 C389 0.930 . S
H402 C390 0.956 . S
H403 C390 0.961 . S
H404 C390 0.961 . S
H405 C391 0.958 . S
H406 C391 0.961 . S
H407 C391 0.960 . S
C121 C19 1.767 . S
C129 C95 1.867 . S
C153 C49 2.205 . S
C161 C5 2.142 . S
C185 C55 1.870 . S
C193 C99 1.788 . S
C217 C85 2.148 . S
C225 C9 2.213 . S
C249 C59 1.782 . S
C257 C15 1.864 . S
C281 C89 2.207 . S
C289 C45 2.136 . S
C313 C18 0.654 1_655 S
C321 C8 0.534 . S
C345 C58 0.631 1_545 S
C353 C48 0.526 1_565 S
C377 C98 0.488 . S
C385 C88 0.606 . S
