# Generated by pormake.
# Topology wlu, (5)-cn, num edge types: 1
# Building blocks:
#     Node 0, Type 0, BuildingBlock: XOMCOT_clean_sbu_1, # of connection points: 5
#     Node 1, Type 0, BuildingBlock: XOMCOT_clean_sbu_1, # of connection points: 5
#     Node 2, Type 0, BuildingBlock: XOMCOT_clean_sbu_1, # of connection points: 5
#     Node 3, Type 0, BuildingBlock: XOMCOT_clean_sbu_1, # of connection points: 5
#     Node 4, Type 0, BuildingBlock: XOMCOT_clean_sbu_1, # of connection points: 5
#     Node 5, Type 0, BuildingBlock: XOMCOT_clean_sbu_1, # of connection points: 5
#     Node 6, Type 0, BuildingBlock: XOMCOT_clean_sbu_1, # of connection points: 5
#     Node 7, Type 0, BuildingBlock: XOMCOT_clean_sbu_1, # of connection points: 5
#     Node 8, Type 0, BuildingBlock: XOMCOT_clean_sbu_1, # of connection points: 5
#     Node 9, Type 0, BuildingBlock: XOMCOT_clean_sbu_1, # of connection points: 5
#     Node 10, Type 0, BuildingBlock: XOMCOT_clean_sbu_1, # of connection points: 5
#     Node 11, Type 0, BuildingBlock: XOMCOT_clean_sbu_1, # of connection points: 5
#     Node 12, Type 0, BuildingBlock: XOMCOT_clean_sbu_1, # of connection points: 5
#     Node 13, Type 0, BuildingBlock: XOMCOT_clean_sbu_1, # of connection points: 5
#     Node 14, Type 0, BuildingBlock: XOMCOT_clean_sbu_1, # of connection points: 5
#     Node 15, Type 0, BuildingBlock: XOMCOT_clean_sbu_1, # of connection points: 5
#     Node 16, Type 0, BuildingBlock: XOMCOT_clean_sbu_1, # of connection points: 5
#     Node 17, Type 0, BuildingBlock: XOMCOT_clean_sbu_1, # of connection points: 5
#     Node 18, Type 0, BuildingBlock: XOMCOT_clean_sbu_1, # of connection points: 5
#     Node 19, Type 0, BuildingBlock: XOMCOT_clean_sbu_1, # of connection points: 5
#     Node 20, Type 0, BuildingBlock: XOMCOT_clean_sbu_1, # of connection points: 5
#     Node 21, Type 0, BuildingBlock: XOMCOT_clean_sbu_1, # of connection points: 5
#     Node 22, Type 0, BuildingBlock: XOMCOT_clean_sbu_1, # of connection points: 5
#     Node 23, Type 0, BuildingBlock: XOMCOT_clean_sbu_1, # of connection points: 5
#     Node 24, Type 0, BuildingBlock: XOMCOT_clean_sbu_1, # of connection points: 5
#     Node 25, Type 0, BuildingBlock: XOMCOT_clean_sbu_1, # of connection points: 5
#     Node 26, Type 0, BuildingBlock: XOMCOT_clean_sbu_1, # of connection points: 5
#     Node 27, Type 0, BuildingBlock: XOMCOT_clean_sbu_1, # of connection points: 5
#     Node 28, Type 0, BuildingBlock: XOMCOT_clean_sbu_1, # of connection points: 5
#     Node 29, Type 0, BuildingBlock: XOMCOT_clean_sbu_1, # of connection points: 5
#     Node 30, Type 0, BuildingBlock: XOMCOT_clean_sbu_1, # of connection points: 5
#     Node 31, Type 0, BuildingBlock: XOMCOT_clean_sbu_1, # of connection points: 5
#     Node 32, Type 0, BuildingBlock: XOMCOT_clean_sbu_1, # of connection points: 5
#     Node 33, Type 0, BuildingBlock: XOMCOT_clean_sbu_1, # of connection points: 5
#     Node 34, Type 0, BuildingBlock: XOMCOT_clean_sbu_1, # of connection points: 5
#     Node 35, Type 0, BuildingBlock: XOMCOT_clean_sbu_1, # of connection points: 5
#     Edge 36, Type (0, 0), BuildingBlock: XIVTED_clean_linker_0, # of connection points: 2
#     Edge 37, Type (0, 0), BuildingBlock: XIVTED_clean_linker_0, # of connection points: 2
#     Edge 38, Type (0, 0), BuildingBlock: XIVTED_clean_linker_0, # of connection points: 2
#     Edge 39, Type (0, 0), BuildingBlock: XIVTED_clean_linker_0, # of connection points: 2
#     Edge 40, Type (0, 0), BuildingBlock: XIVTED_clean_linker_0, # of connection points: 2
#     Edge 41, Type (0, 0), BuildingBlock: XIVTED_clean_linker_0, # of connection points: 2
#     Edge 42, Type (0, 0), BuildingBlock: XIVTED_clean_linker_0, # of connection points: 2
#     Edge 43, Type (0, 0), BuildingBlock: XIVTED_clean_linker_0, # of connection points: 2
#     Edge 44, Type (0, 0), BuildingBlock: XIVTED_clean_linker_0, # of connection points: 2
#     Edge 45, Type (0, 0), BuildingBlock: XIVTED_clean_linker_0, # of connection points: 2
#     Edge 46, Type (0, 0), BuildingBlock: XIVTED_clean_linker_0, # of connection points: 2
#     Edge 47, Type (0, 0), BuildingBlock: XIVTED_clean_linker_0, # of connection points: 2
#     Edge 48, Type (0, 0), BuildingBlock: XIVTED_clean_linker_0, # of connection points: 2
#     Edge 49, Type (0, 0), BuildingBlock: XIVTED_clean_linker_0, # of connection points: 2
#     Edge 50, Type (0, 0), BuildingBlock: XIVTED_clean_linker_0, # of connection points: 2
#     Edge 51, Type (0, 0), BuildingBlock: XIVTED_clean_linker_0, # of connection points: 2
#     Edge 52, Type (0, 0), BuildingBlock: XIVTED_clean_linker_0, # of connection points: 2
#     Edge 53, Type (0, 0), BuildingBlock: XIVTED_clean_linker_0, # of connection points: 2
#     Edge 54, Type (0, 0), BuildingBlock: XIVTED_clean_linker_0, # of connection points: 2
#     Edge 55, Type (0, 0), BuildingBlock: XIVTED_clean_linker_0, # of connection points: 2
#     Edge 56, Type (0, 0), BuildingBlock: XIVTED_clean_linker_0, # of connection points: 2
#     Edge 57, Type (0, 0), BuildingBlock: XIVTED_clean_linker_0, # of connection points: 2
#     Edge 58, Type (0, 0), BuildingBlock: XIVTED_clean_linker_0, # of connection points: 2
#     Edge 59, Type (0, 0), BuildingBlock: XIVTED_clean_linker_0, # of connection points: 2
#     Edge 60, Type (0, 0), BuildingBlock: XIVTED_clean_linker_0, # of connection points: 2
#     Edge 61, Type (0, 0), BuildingBlock: XIVTED_clean_linker_0, # of connection points: 2
#     Edge 62, Type (0, 0), BuildingBlock: XIVTED_clean_linker_0, # of connection points: 2
#     Edge 63, Type (0, 0), BuildingBlock: XIVTED_clean_linker_0, # of connection points: 2
#     Edge 64, Type (0, 0), BuildingBlock: XIVTED_clean_linker_0, # of connection points: 2
#     Edge 65, Type (0, 0), BuildingBlock: XIVTED_clean_linker_0, # of connection points: 2
#     Edge 66, Type (0, 0), BuildingBlock: XIVTED_clean_linker_0, # of connection points: 2
#     Edge 67, Type (0, 0), BuildingBlock: XIVTED_clean_linker_0, # of connection points: 2
#     Edge 68, Type (0, 0), BuildingBlock: XIVTED_clean_linker_0, # of connection points: 2
#     Edge 69, Type (0, 0), BuildingBlock: XIVTED_clean_linker_0, # of connection points: 2
#     Edge 70, Type (0, 0), BuildingBlock: XIVTED_clean_linker_0, # of connection points: 2
#     Edge 71, Type (0, 0), BuildingBlock: XIVTED_clean_linker_0, # of connection points: 2
#     Edge 72, Type (0, 0), BuildingBlock: XIVTED_clean_linker_0, # of connection points: 2
#     Edge 73, Type (0, 0), BuildingBlock: XIVTED_clean_linker_0, # of connection points: 2
#     Edge 74, Type (0, 0), BuildingBlock: XIVTED_clean_linker_0, # of connection points: 2
#     Edge 75, Type (0, 0), BuildingBlock: XIVTED_clean_linker_0, # of connection points: 2
#     Edge 76, Type (0, 0), BuildingBlock: XIVTED_clean_linker_0, # of connection points: 2
#     Edge 77, Type (0, 0), BuildingBlock: XIVTED_clean_linker_0, # of connection points: 2
#     Edge 78, Type (0, 0), BuildingBlock: XIVTED_clean_linker_0, # of connection points: 2
#     Edge 79, Type (0, 0), BuildingBlock: XIVTED_clean_linker_0, # of connection points: 2
#     Edge 80, Type (0, 0), BuildingBlock: XIVTED_clean_linker_0, # of connection points: 2
#     Edge 81, Type (0, 0), BuildingBlock: XIVTED_clean_linker_0, # of connection points: 2
#     Edge 82, Type (0, 0), BuildingBlock: XIVTED_clean_linker_0, # of connection points: 2
#     Edge 83, Type (0, 0), BuildingBlock: XIVTED_clean_linker_0, # of connection points: 2
#     Edge 84, Type (0, 0), BuildingBlock: XIVTED_clean_linker_0, # of connection points: 2
#     Edge 85, Type (0, 0), BuildingBlock: XIVTED_clean_linker_0, # of connection points: 2
#     Edge 86, Type (0, 0), BuildingBlock: XIVTED_clean_linker_0, # of connection points: 2
#     Edge 87, Type (0, 0), BuildingBlock: XIVTED_clean_linker_0, # of connection points: 2
#     Edge 88, Type (0, 0), BuildingBlock: XIVTED_clean_linker_0, # of connection points: 2
#     Edge 89, Type (0, 0), BuildingBlock: XIVTED_clean_linker_0, # of connection points: 2
#     Edge 90, Type (0, 0), BuildingBlock: XIVTED_clean_linker_0, # of connection points: 2
#     Edge 91, Type (0, 0), BuildingBlock: XIVTED_clean_linker_0, # of connection points: 2
#     Edge 92, Type (0, 0), BuildingBlock: XIVTED_clean_linker_0, # of connection points: 2
#     Edge 93, Type (0, 0), BuildingBlock: XIVTED_clean_linker_0, # of connection points: 2
#     Edge 94, Type (0, 0), BuildingBlock: XIVTED_clean_linker_0, # of connection points: 2
#     Edge 95, Type (0, 0), BuildingBlock: XIVTED_clean_linker_0, # of connection points: 2
#     Edge 96, Type (0, 0), BuildingBlock: XIVTED_clean_linker_0, # of connection points: 2
#     Edge 97, Type (0, 0), BuildingBlock: XIVTED_clean_linker_0, # of connection points: 2
#     Edge 98, Type (0, 0), BuildingBlock: XIVTED_clean_linker_0, # of connection points: 2
#     Edge 99, Type (0, 0), BuildingBlock: XIVTED_clean_linker_0, # of connection points: 2
#     Edge 100, Type (0, 0), BuildingBlock: XIVTED_clean_linker_0, # of connection points: 2
#     Edge 101, Type (0, 0), BuildingBlock: XIVTED_clean_linker_0, # of connection points: 2
#     Edge 102, Type (0, 0), BuildingBlock: XIVTED_clean_linker_0, # of connection points: 2
#     Edge 103, Type (0, 0), BuildingBlock: XIVTED_clean_linker_0, # of connection points: 2
#     Edge 104, Type (0, 0), BuildingBlock: XIVTED_clean_linker_0, # of connection points: 2
#     Edge 105, Type (0, 0), BuildingBlock: XIVTED_clean_linker_0, # of connection points: 2
#     Edge 106, Type (0, 0), BuildingBlock: XIVTED_clean_linker_0, # of connection points: 2
#     Edge 107, Type (0, 0), BuildingBlock: XIVTED_clean_linker_0, # of connection points: 2
#     Edge 108, Type (0, 0), BuildingBlock: XIVTED_clean_linker_0, # of connection points: 2
#     Edge 109, Type (0, 0), BuildingBlock: XIVTED_clean_linker_0, # of connection points: 2
#     Edge 110, Type (0, 0), BuildingBlock: XIVTED_clean_linker_0, # of connection points: 2
#     Edge 111, Type (0, 0), BuildingBlock: XIVTED_clean_linker_0, # of connection points: 2
#     Edge 112, Type (0, 0), BuildingBlock: XIVTED_clean_linker_0, # of connection points: 2
#     Edge 113, Type (0, 0), BuildingBlock: XIVTED_clean_linker_0, # of connection points: 2
#     Edge 114, Type (0, 0), BuildingBlock: XIVTED_clean_linker_0, # of connection points: 2
#     Edge 115, Type (0, 0), BuildingBlock: XIVTED_clean_linker_0, # of connection points: 2
#     Edge 116, Type (0, 0), BuildingBlock: XIVTED_clean_linker_0, # of connection points: 2
#     Edge 117, Type (0, 0), BuildingBlock: XIVTED_clean_linker_0, # of connection points: 2
#     Edge 118, Type (0, 0), BuildingBlock: XIVTED_clean_linker_0, # of connection points: 2
#     Edge 119, Type (0, 0), BuildingBlock: XIVTED_clean_linker_0, # of connection points: 2
#     Edge 120, Type (0, 0), BuildingBlock: XIVTED_clean_linker_0, # of connection points: 2
#     Edge 121, Type (0, 0), BuildingBlock: XIVTED_clean_linker_0, # of connection points: 2
#     Edge 122, Type (0, 0), BuildingBlock: XIVTED_clean_linker_0, # of connection points: 2
#     Edge 123, Type (0, 0), BuildingBlock: XIVTED_clean_linker_0, # of connection points: 2
#     Edge 124, Type (0, 0), BuildingBlock: XIVTED_clean_linker_0, # of connection points: 2
#     Edge 125, Type (0, 0), BuildingBlock: XIVTED_clean_linker_0, # of connection points: 2
# Relax obj value: 0.195
# Max RMSD: 0.162
# Mean RMSD: 0.162
data_MOF--net-wlu--node1-XOMCOT_clean_sbu_1--edge1-XIVTED_clean_linker_0
_symmetry_space_group_name_H-M    P1
_symmetry_Int_Tables_number       1
_symmetry_cell_setting            triclinic
loop_
_symmetry_equiv_pos_as_xyz
'x, y, z'
_cell_length_a     68.170745
_cell_length_b     68.21463
_cell_length_c     54.306756
_cell_angle_alpha  89.987554
_cell_angle_beta   90.026546
_cell_angle_gamma 119.98804
loop_
_atom_site_label
_atom_site_type_symbol
_atom_site_fract_x
_atom_site_fract_y
_atom_site_fract_z
_atom_type_partial_charge
C0 C 0.24556 0.14961 0.0635 0.0
C1 C 0.23293 0.1264 0.06149 0.0
N2 N 0.24606 0.11888 0.05143 0.0
N3 N 0.26646 0.15667 0.05456 0.0
C4 C 0.26629 0.13768 0.04741 0.0
H5 H 0.24012 0.16055 0.07169 0.0
Co6 Co 0.29112 0.18562 0.05582 0.0
C7 C 0.31522 0.19277 1.00836 0.0
O8 O 0.31895 0.21362 1.00854 0.0
N9 N 0.3167 0.21493 0.05825 0.0
C10 C 0.35306 0.24194 0.06022 0.0
C11 C 0.33833 0.21934 0.05612 0.0
C12 C 0.31888 0.23502 0.06498 0.0
N13 N 0.34069 0.25162 0.06587 0.0
O14 O 0.30577 0.17511 0.07795 0.0
H15 H 0.34313 0.20678 0.05201 0.0
H16 H 0.30511 0.23774 0.06977 0.0
O17 O 0.3042 0.17926 0.02609 0.0
C18 C 0.30067 0.17799 0.09976 0.0
O19 O 0.28752 0.18682 0.10237 0.0
N20 N 0.27502 0.19567 0.03636 0.0
C21 C 0.2459 0.2083 0.01413 0.0
C22 C 0.25307 0.19506 1.00138 0.0
C23 C 0.26738 0.18867 0.01293 0.0
C24 C 0.2669 0.20705 0.0495 0.0
C25 C 0.25323 0.21437 0.03856 0.0
H26 H 0.27124 0.17715 1.00341 0.0
H27 H 0.27038 0.20978 0.06899 0.0
H28 H 0.28098 0.13773 0.03988 0.0
H29 H 0.21569 0.11591 0.06781 0.0
H30 H 0.37138 0.25044 0.06001 0.0
H31 H 0.247 0.18883 0.98301 0.0
H32 H 0.24821 0.22435 0.04953 0.0
C33 C 0.84391 0.08518 0.06883 0.0
C34 C 0.86647 0.09277 0.06433 0.0
N35 N 0.87451 0.11132 0.05003 0.0
N36 N 0.83794 0.09902 0.05752 0.0
C37 C 0.85692 0.11475 0.04617 0.0
H38 H 0.83277 0.07101 0.08036 0.0
Co39 Co 0.81059 0.09816 0.06147 0.0
C40 C 0.80247 0.11699 0.0158 0.0
O41 O 0.78083 0.10213 0.01806 0.0
N42 N 0.78307 0.09785 0.06671 0.0
C43 C 0.76057 0.11217 0.074 0.0
C44 C 0.7821 0.11715 0.06811 0.0
C45 C 0.76176 0.08132 0.07226 0.0
N46 N 0.74777 0.08961 0.07669 0.0
O47 O 0.82511 0.12387 0.08296 0.0
H48 H 0.79629 0.13396 0.06501 0.0
H49 H 0.75655 0.06364 0.07389 0.0
O50 O 0.81667 0.11751 0.03171 0.0
C51 C 0.82387 0.11695 0.10505 0.0
O52 O 0.81453 0.09505 0.10881 0.0
N53 N 0.79668 0.07148 0.04253 0.0
C54 C 0.78184 0.02901 0.02129 0.0
C55 C 0.79401 0.04884 1.00738 0.0
C56 C 0.80158 0.06993 0.01844 0.0
C57 C 0.78548 0.05237 0.05643 0.0
C58 C 0.77741 0.03097 0.04608 0.0
H59 H 0.81259 0.08485 1.00794 0.0
H60 H 0.78381 0.05379 0.07605 0.0
H61 H 0.85823 0.12919 0.0364 0.0
H62 H 0.8763 0.08551 0.07137 0.0
H63 H 0.75481 0.12426 0.07604 0.0
H64 H 0.79831 0.04809 0.98833 0.0
H65 H 0.76892 0.01616 0.05776 0.0
C66 C 0.90198 0.75193 0.06842 0.0
C67 C 0.89239 0.76534 0.06483 0.0
N68 N 0.87452 0.75425 0.04968 0.0
N69 N 0.89005 0.73249 0.05571 0.0
C70 C 0.87346 0.73443 0.04443 0.0
H71 H 0.91614 0.75566 0.08035 0.0
Co72 Co 0.89335 0.7072 0.05816 0.0
C73 C 0.87782 0.68266 0.01078 0.0
O74 O 0.8944 0.6782 0.0125 0.0
N75 N 0.89596 0.68096 0.06162 0.0
C76 C 0.88402 0.64414 0.0652 0.0
C77 C 0.87752 0.65998 0.06187 0.0
C78 C 0.91353 0.67728 0.06534 0.0
N79 N 0.90668 0.65504 0.06738 0.0
O80 O 0.86727 0.69342 0.07922 0.0
H81 H 0.86026 0.65636 0.05954 0.0
H82 H 0.93105 0.69037 0.06633 0.0
O83 O 0.87514 0.69436 0.02758 0.0
C84 C 0.8751 0.69874 0.10109 0.0
O85 O 0.89713 0.71145 0.10383 0.0
N86 N 0.92045 0.72268 0.04037 0.0
C87 C 0.9636 0.75401 0.02291 0.0
C88 C 0.94439 0.74638 1.00775 0.0
C89 C 0.9229 0.7309 0.01694 0.0
C90 C 0.93878 0.73047 0.05546 0.0
C91 C 0.96047 0.74538 0.04694 0.0
H92 H 0.90827 0.72676 1.00572 0.0
H93 H 0.93643 0.72559 0.07465 0.0
H94 H 0.86004 0.72108 0.03374 0.0
H95 H 0.89782 0.78172 0.07306 0.0
H96 H 0.87286 0.62601 0.06636 0.0
H97 H 0.94572 0.75315 0.98941 0.0
H98 H 0.97455 0.75049 0.05946 0.0
C99 C 0.15159 0.24662 0.45698 0.0
C100 C 0.12848 0.23362 0.45977 0.0
N101 N 0.12095 0.24631 0.47086 0.0
N102 N 0.15859 0.26732 0.46644 0.0
C103 C 0.13963 0.26668 0.47467 0.0
H104 H 0.16254 0.24153 0.44811 0.0
Co105 Co 0.18762 0.29183 0.46519 0.0
C106 C 0.19559 0.31433 0.5134 0.0
O107 O 0.21567 0.31606 0.51263 0.0
N108 N 0.217 0.31729 0.46288 0.0
C109 C 0.24367 0.3537 0.46076 0.0
C110 C 0.22126 0.3388 0.46552 0.0
C111 C 0.23706 0.31972 0.45558 0.0
N112 N 0.25354 0.34162 0.45442 0.0
O113 O 0.17723 0.30667 0.44295 0.0
H114 H 0.20865 0.34341 0.47008 0.0
H115 H 0.2397 0.30597 0.45043 0.0
O116 O 0.18181 0.3052 0.49527 0.0
C117 C 0.18042 0.30145 0.42129 0.0
O118 O 0.18948 0.28844 0.41925 0.0
N119 N 0.19743 0.27532 0.48451 0.0
C120 C 0.21049 0.24704 0.50764 0.0
C121 C 0.19644 0.2535 0.51975 0.0
C122 C 0.18954 0.26709 0.50758 0.0
C123 C 0.20935 0.2675 0.47181 0.0
C124 C 0.21659 0.2539 0.48316 0.0
H125 H 0.17734 0.27037 0.51652 0.0
H126 H 0.21239 0.27099 0.45236 0.0
H127 H 0.1396 0.28106 0.483 0.0
H128 H 0.11804 0.2164 0.45339 0.0
H129 H 0.25182 0.37199 0.46081 0.0
H130 H 0.19055 0.24789 0.53833 0.0
H131 H 0.22613 0.24808 0.4725 0.0
C132 C 0.7543 0.90882 0.45485 0.0
C133 C 0.76982 0.90194 0.45933 0.0
N134 N 0.75963 0.88302 0.4731 0.0
N135 N 0.73446 0.89414 0.46558 0.0
C136 C 0.73825 0.87865 0.47665 0.0
H137 H 0.75697 0.92301 0.44357 0.0
Co138 Co 0.70743 0.8938 0.46086 0.0
C139 C 0.67955 0.87354 0.50545 0.0
O140 O 0.67206 0.88782 0.50292 0.0
N141 N 0.67976 0.89292 0.45476 0.0
C142 C 0.64302 0.87758 0.44619 0.0
C143 C 0.65989 0.87324 0.45271 0.0
C144 C 0.67444 0.909 0.44891 0.0
N145 N 0.6522 0.90009 0.44374 0.0
O146 O 0.69768 0.86862 0.43919 0.0
H147 H 0.65779 0.85663 0.45576 0.0
H148 H 0.68655 0.92681 0.44755 0.0
O149 O 0.69403 0.87389 0.4901 0.0
C150 C 0.70383 0.87615 0.41739 0.0
O151 O 0.71626 0.89816 0.4143 0.0
N152 N 0.71875 0.92008 0.48016 0.0
C153 C 0.74491 0.96241 0.5021 0.0
C154 C 0.73731 0.94253 0.51588 0.0
C155 C 0.72455 0.9215 0.50447 0.0
C156 C 0.72648 0.93927 0.46645 0.0
C157 C 0.7391 0.9606 0.47713 0.0
H158 H 0.72085 0.90662 0.51489 0.0
H159 H 0.72395 0.93799 0.44673 0.0
H160 H 0.72528 0.86368 0.48585 0.0
H161 H 0.78704 0.90986 0.45255 0.0
H162 H 0.62536 0.86508 0.44353 0.0
H163 H 0.74197 0.94321 0.53506 0.0
H164 H 0.74545 0.97549 0.46558 0.0
C165 C 0.0857 0.84139 0.4528 0.0
C166 C 0.0936 0.86411 0.45658 0.0
N167 N 0.11246 0.87239 0.47044 0.0
N168 N 0.09966 0.83556 0.4641 0.0
C169 C 0.11577 0.85479 0.47474 0.0
H170 H 0.07127 0.83004 0.44169 0.0
Co171 Co 0.09876 0.80814 0.46069 0.0
C172 C 0.11876 0.80126 0.50589 0.0
O173 O 0.10385 0.77958 0.50439 0.0
N174 N 0.09845 0.78045 0.45599 0.0
C175 C 0.11255 0.75761 0.44947 0.0
C176 C 0.11773 0.77946 0.45395 0.0
C177 C 0.08175 0.75882 0.45214 0.0
N178 N 0.0899 0.74464 0.44831 0.0
O179 O 0.12376 0.82213 0.4386 0.0
H180 H 0.13464 0.79382 0.45569 0.0
H181 H 0.06394 0.75324 0.45214 0.0
O182 O 0.11885 0.81502 0.48973 0.0
C183 C 0.11609 0.81994 0.41674 0.0
O184 O 0.09403 0.80993 0.41368 0.0
N185 N 0.07273 0.7947 0.48046 0.0
C186 C 0.03057 0.77885 0.50314 0.0
C187 C 0.0508 0.7925 0.51607 0.0
C188 C 0.07168 0.80041 0.50434 0.0
C189 C 0.05333 0.78247 0.46733 0.0
C190 C 0.0322 0.77357 0.47848 0.0
H191 H 0.08679 0.81228 0.51407 0.0
H192 H 0.05427 0.78011 0.44777 0.0
H193 H 0.13039 0.85625 0.48425 0.0
H194 H 0.08635 0.87387 0.44934 0.0
H195 H 0.12457 0.75183 0.44675 0.0
H196 H 0.05063 0.79805 0.53469 0.0
H197 H 0.01734 0.76314 0.46747 0.0
C198 C 0.74933 0.84613 0.94988 0.0
C199 C 0.76093 0.86922 0.95336 0.0
N200 N 0.74724 0.87514 0.96519 0.0
N201 N 0.72847 0.83746 0.95959 0.0
C202 C 0.72765 0.85545 0.96867 0.0
H203 H 0.75551 0.83635 0.94038 0.0
Co204 Co 0.70506 0.80763 0.95798 0.0
C205 C 0.68137 0.79819 1.00569 0.0
O206 O 0.67909 0.77791 1.00522 0.0
N207 N 0.68062 0.77748 0.95557 0.0
C208 C 0.64464 0.74967 0.95348 0.0
C209 C 0.65876 0.77246 0.95683 0.0
C210 C 0.67919 0.75731 0.95074 0.0
N211 N 0.65753 0.74018 0.9496 0.0
O212 O 0.6886 0.81688 0.93712 0.0
H213 H 0.65337 0.78471 0.95992 0.0
H214 H 0.6935 0.75495 0.94783 0.0
O215 O 0.69168 0.8122 0.98819 0.0
C216 C 0.69442 0.81546 0.91517 0.0
O217 O 0.70977 0.80938 0.91206 0.0
N218 N 0.72298 0.7989 0.97592 0.0
C219 C 0.75663 0.79057 0.99387 0.0
C220 C 0.74775 0.80118 1.00871 0.0
C221 C 0.73113 0.80549 0.99927 0.0
C222 C 0.73206 0.78945 0.96106 0.0
C223 C 0.74822 0.78443 0.96982 0.0
H224 H 0.72591 0.81524 0.01026 0.0
H225 H 0.72726 0.78648 0.94186 0.0
H226 H 0.71273 0.85403 0.97733 0.0
H227 H 0.77793 0.88069 0.94698 0.0
H228 H 0.62632 0.74091 0.95307 0.0
H229 H 0.75429 0.80709 0.02704 0.0
H230 H 0.75436 0.77622 0.9575 0.0
C231 C 0.14802 0.90075 0.95175 0.0
C232 C 0.1249 0.88985 0.9549 0.0
N233 N 0.11886 0.87167 0.96934 0.0
N234 N 0.1564 0.88938 0.96406 0.0
C235 C 0.13824 0.87176 0.97466 0.0
H236 H 0.15802 0.91553 0.94047 0.0
Co237 Co 0.18593 0.89521 0.9618 0.0
C238 C 0.19607 0.87975 1.00814 0.0
O239 O 0.21623 0.89794 1.00757 0.0
N240 N 0.2159 0.90059 0.95829 0.0
C241 C 0.24356 0.89241 0.95391 0.0
C242 C 0.22095 0.88377 0.95868 0.0
C243 C 0.23579 0.91927 0.95247 0.0
N244 N 0.25285 0.91475 0.94993 0.0
O245 O 0.17607 0.87006 0.94019 0.0
H246 H 0.2088 0.86612 0.96194 0.0
H247 H 0.23795 0.93586 0.94964 0.0
O248 O 0.18158 0.87627 0.99121 0.0
C249 C 0.17792 0.87755 0.91831 0.0
O250 O 0.18502 0.89921 0.9153 0.0
N251 N 0.19523 0.92129 0.98089 0.0
C252 C 0.20706 0.9628 1.00242 0.0
C253 C 0.19533 0.94274 0.01603 0.0
C254 C 0.18924 0.92201 1.00477 0.0
C255 C 0.20491 0.94048 0.96703 0.0
C256 C 0.21162 0.96148 0.97755 0.0
H257 H 0.17905 0.90665 0.01503 0.0
H258 H 0.20698 0.93938 0.94743 0.0
H259 H 0.13896 0.85857 0.98499 0.0
H260 H 0.11337 0.89468 0.94692 0.0
H261 H 0.25228 0.88286 0.95252 0.0
H262 H 0.19074 0.94307 0.03505 0.0
H263 H 0.21962 0.9765 0.96612 0.0
C264 C 0.09655 0.23898 0.94906 0.0
C265 C 0.11103 0.23043 0.94735 0.0
N266 N 0.1321 0.24718 0.95269 0.0
N267 N 0.10844 0.26092 0.95582 0.0
C268 C 0.13012 0.26558 0.95706 0.0
H269 H 0.07843 0.22961 0.94619 0.0
Co270 Co 0.09745 0.28071 0.96104 0.0
C271 C 0.12595 0.28899 1.00856 0.0
O272 O 0.12741 0.27053 1.00763 0.0
N273 N 0.08635 0.3005 0.96607 0.0
C274 C 0.07063 0.31811 0.98497 0.0
C275 C 0.0807 0.30523 0.98823 0.0
C276 C 0.07957 0.31077 0.94959 0.0
N277 N 0.06986 0.32152 0.96068 0.0
O278 O 0.12152 0.30275 0.94072 0.0
H279 H 0.08281 0.29885 1.00566 0.0
H280 H 0.08064 0.30945 0.92985 0.0
O281 O 0.11539 0.2931 0.99161 0.0
C282 C 0.11465 0.29759 0.91848 0.0
O283 O 0.09411 0.28048 0.9148 0.0
N284 N 0.0723 0.25817 0.97799 0.0
C285 C 0.03054 0.22331 0.99463 0.0
C286 C 0.05036 0.23028 1.00853 0.0
C287 C 0.07113 0.24782 0.99989 0.0
C288 C 0.05329 0.25149 0.96425 0.0
C289 C 0.03228 0.23443 0.97232 0.0
H290 H 0.08602 0.25254 0.01067 0.0
H291 H 0.05449 0.25957 0.94673 0.0
H292 H 0.14413 0.28202 0.96204 0.0
H293 H 0.10623 0.21297 0.94386 0.0
H294 H 0.06398 0.32416 0.99935 0.0
H295 H 0.04997 0.22202 0.02569 0.0
H296 H 0.01755 0.23015 0.96111 0.0
C297 C 0.85456 0.75366 0.57269 0.0
C298 C 0.87734 0.76104 0.57489 0.0
N299 N 0.88064 0.74367 0.56932 0.0
N300 N 0.84365 0.73183 0.56541 0.0
C301 C 0.85989 0.72606 0.56437 0.0
H302 H 0.84664 0.76382 0.57546 0.0
Co303 Co 0.81291 0.71331 0.55863 0.0
C304 C 0.83439 0.70583 0.51226 0.0
O305 O 0.85358 0.72513 0.51331 0.0
N306 N 0.78216 0.69482 0.55202 0.0
C307 C 0.74952 0.6775 0.53174 0.0
C308 C 0.77263 0.68988 0.52941 0.0
C309 C 0.76452 0.68528 0.56781 0.0
N310 N 0.74445 0.67466 0.55589 0.0
O311 O 0.81276 0.69015 0.57887 0.0
H312 H 0.78182 0.69552 0.51225 0.0
H313 H 0.76626 0.68683 0.58761 0.0
O314 O 0.81921 0.70093 0.52875 0.0
C315 C 0.8105 0.69488 0.60108 0.0
O316 O 0.8085 0.71282 0.60499 0.0
N317 N 0.81214 0.73682 0.54164 0.0
C318 C 0.8063 0.77248 0.52549 0.0
C319 C 0.81651 0.76346 0.51022 0.0
C320 C 0.81911 0.74545 0.51856 0.0
C321 C 0.80222 0.74534 0.55662 0.0
C322 C 0.79893 0.76292 0.54891 0.0
H323 H 0.82648 0.73864 0.50627 0.0
H324 H 0.79657 0.73818 0.57476 0.0
H325 H 0.85668 0.70945 0.55887 0.0
H326 H 0.89059 0.7782 0.57871 0.0
H327 H 0.73739 0.67121 0.5168 0.0
H328 H 0.82257 0.77028 0.49202 0.0
H329 H 0.79032 0.76863 0.56119 0.0
C330 C 0.23885 0.09363 0.56246 0.0
C331 C 0.22922 0.10711 0.56443 0.0
N332 N 0.24562 0.12885 0.56145 0.0
N333 N 0.26117 0.10674 0.55783 0.0
C334 C 0.26488 0.12812 0.55813 0.0
H335 H 0.22998 0.07538 0.56378 0.0
Co336 Co 0.28224 0.09728 0.55291 0.0
C337 C 0.29061 0.127 0.50658 0.0
O338 O 0.27179 0.12785 0.50724 0.0
N339 N 0.30321 0.08766 0.54816 0.0
C340 C 0.32309 0.07421 0.52968 0.0
C341 C 0.31007 0.08411 0.52612 0.0
C342 C 0.31225 0.07975 0.56485 0.0
N343 N 0.32434 0.07137 0.55403 0.0
O344 O 0.30321 0.12136 0.57397 0.0
H345 H 0.30499 0.08738 0.50844 0.0
H346 H 0.30894 0.07891 0.58441 0.0
O347 O 0.29465 0.11614 0.52318 0.0
C348 C 0.2981 0.11434 0.59614 0.0
O349 O 0.28118 0.09369 0.5997 0.0
N350 N 0.26093 0.0721 0.53501 0.0
C351 C 0.22656 0.03028 0.51794 0.0
C352 C 0.23347 0.0501 0.50408 0.0
C353 C 0.25078 0.07094 0.51296 0.0
C354 C 0.25455 0.05303 0.54849 0.0
C355 C 0.23776 0.03201 0.54019 0.0
H356 H 0.25536 0.08593 0.50239 0.0
H357 H 0.26244 0.05423 0.56613 0.0
H358 H 0.2814 0.14282 0.55519 0.0
H359 H 0.21136 0.1012 0.56675 0.0
H360 H 0.33057 0.06898 0.51539 0.0
H361 H 0.2252 0.04967 0.4869 0.0
H362 H 0.23357 0.01726 0.55133 0.0
C363 C 0.89701 0.145 0.5699 0.0
C364 C 0.8847 0.1218 0.56794 0.0
N365 N 0.86575 0.11612 0.55484 0.0
N366 N 0.88598 0.15391 0.55798 0.0
C367 C 0.86703 0.13601 0.54907 0.0
H368 H 0.91271 0.15476 0.57988 0.0
Co369 Co 0.89409 0.1841 0.55726 0.0
C370 C 0.88563 0.1927 0.5064 0.0
O371 O 0.90574 0.21097 0.50764 0.0
N372 N 0.90155 0.21479 0.55739 0.0
C373 C 0.89637 0.24447 0.55364 0.0
C374 C 0.88689 0.22161 0.55011 0.0
C375 C 0.91931 0.23378 0.56673 0.0
N376 N 0.91669 0.25197 0.56412 0.0
O377 O 0.86805 0.17728 0.57686 0.0
H378 H 0.87001 0.21052 0.54313 0.0
H379 H 0.93361 0.2345 0.57605 0.0
O380 O 0.87768 0.17965 0.52527 0.0
C381 C 0.87559 0.18004 0.5989 0.0
O382 O 0.89704 0.1862 0.60201 0.0
N383 N 0.92108 0.19045 0.54094 0.0
C384 C 0.96309 0.20012 0.52235 0.0
C385 C 0.9432 0.18615 0.50917 0.0
C386 C 0.92224 0.18105 0.51911 0.0
C387 C 0.94002 0.20179 0.55505 0.0
C388 C 0.96126 0.20747 0.54585 0.0
H389 H 0.90701 0.16941 0.50933 0.0
H390 H 0.93857 0.20575 0.57394 0.0
H391 H 0.85431 0.13763 0.53884 0.0
H392 H 0.88912 0.1101 0.57622 0.0
H393 H 0.88858 0.25464 0.54988 0.0
H394 H 0.94383 0.17932 0.49138 0.0
H395 H 0.97608 0.21701 0.55731 0.0
C396 C 0.90597 0.48594 0.3957 0.0
C397 C 0.89079 0.4634 0.39151 0.0
N398 N 0.9011 0.45496 0.37748 0.0
N399 N 0.92573 0.49151 0.38451 0.0
C400 C 0.92222 0.47229 0.37348 0.0
H401 H 0.90315 0.49731 0.40708 0.0
Co402 Co 0.95248 0.5186 0.38869 0.0
C403 C 0.98021 0.52564 0.34397 0.0
O404 O 0.98798 0.54749 0.34595 0.0
N405 N 0.97989 0.54588 0.39423 0.0
C406 C 0.01654 0.56821 0.40255 0.0
C407 C 7e-05 0.54673 0.39633 0.0
C408 C 0.98461 0.56716 0.39976 0.0
N409 N 0.00679 0.58107 0.40479 0.0
O410 O 0.96294 0.50388 0.41044 0.0
H411 H 0.00267 0.53249 0.39357 0.0
H412 H 0.97211 0.57237 0.40109 0.0
O413 O 0.96579 0.51195 0.35962 0.0
C414 C 0.95721 0.50566 0.4323 0.0
O415 O 0.94498 0.51545 0.4355 0.0
N416 N 0.94051 0.53285 0.36926 0.0
C417 C 0.91436 0.54901 0.34723 0.0
C418 C 0.92219 0.53695 0.33341 0.0
C419 C 0.93499 0.5287 0.34486 0.0
C420 C 0.93238 0.54392 0.38302 0.0
C421 C 0.91977 0.55263 0.37231 0.0
H422 H 0.93908 0.51784 0.33435 0.0
H423 H 0.93481 0.54507 0.40276 0.0
H424 H 0.93524 0.4706 0.36396 0.0
H425 H 0.87371 0.45383 0.39864 0.0
H426 H 0.03432 0.57387 0.40522 0.0
H427 H 0.91783 0.53325 0.31413 0.0
H428 H 0.91323 0.56099 0.38387 0.0
C429 C 0.51328 0.42548 0.39716 0.0
C430 C 0.53649 0.43764 0.39946 0.0
N431 N 0.5434 0.45956 0.39504 0.0
N432 N 0.50569 0.43967 0.39092 0.0
C433 C 0.52435 0.46038 0.39064 0.0
H434 H 0.50272 0.40737 0.39925 0.0
Co435 Co 0.47582 0.43226 0.38526 0.0
C436 C 0.49918 0.46164 0.33911 0.0
O437 O 0.51777 0.46039 0.34005 0.0
N438 N 0.44586 0.42464 0.37992 0.0
C439 C 0.41301 0.41309 0.36095 0.0
C440 C 0.43579 0.42154 0.35771 0.0
C441 C 0.42886 0.41795 0.39638 0.0
N442 N 0.40869 0.41076 0.38527 0.0
O443 O 0.48029 0.45658 0.40678 0.0
H444 H 0.44423 0.42407 0.34018 0.0
H445 H 0.43096 0.41702 0.41601 0.0
O446 O 0.48385 0.45179 0.35559 0.0
C447 C 0.47755 0.44891 0.42877 0.0
O448 O 0.472 0.42762 0.43176 0.0
N449 N 0.47059 0.40677 0.36705 0.0
C450 C 0.46078 0.36444 0.34922 0.0
C451 C 0.47432 0.38419 0.33554 0.0
C452 C 0.47903 0.40526 0.34479 0.0
C453 C 0.45721 0.38775 0.38035 0.0
C454 C 0.45189 0.36648 0.37172 0.0
H455 H 0.48978 0.42006 0.3342 0.0
H456 H 0.45085 0.38921 0.3981 0.0
H457 H 0.52407 0.47572 0.38626 0.0
H458 H 0.54751 0.43071 0.40263 0.0
H459 H 0.4005 0.40838 0.34651 0.0
H460 H 0.48175 0.38349 0.31818 0.0
H461 H 0.44096 0.35178 0.38274 0.0
C462 C 0.57066 0.07776 0.39727 0.0
C463 C 0.56363 0.09324 0.39332 0.0
N464 N 0.54542 0.08362 0.37841 0.0
N465 N 0.55681 0.05851 0.38502 0.0
C466 C 0.54162 0.06261 0.37367 0.0
H467 H 0.58451 0.08007 0.40895 0.0
Co468 Co 0.55729 0.03175 0.38751 0.0
C469 C 0.53774 0.00628 0.34126 0.0
O470 O 0.55259 -0.0006 0.3426 0.0
N471 N 0.5573 0.0042 0.39124 0.0
C472 C 0.54332 0.9672 0.39696 0.0
C473 C 0.53807 0.98386 0.39258 0.0
C474 C 0.574 -0.00064 0.39535 0.0
N475 N 0.56596 0.97703 0.39877 0.0
O476 O 0.53216 0.02047 0.40987 0.0
H477 H 0.52115 0.9813 0.39063 0.0
H478 H 0.59177 0.0117 0.39599 0.0
O479 O 0.53737 0.01941 0.35797 0.0
C480 C 0.54049 0.02541 0.43157 0.0
O481 O 0.56265 0.03648 0.43386 0.0
N482 N 0.58355 0.04471 0.368 0.0
C483 C 0.62617 0.07246 0.34679 0.0
C484 C 0.60619 0.06585 0.33332 0.0
C485 C 0.58506 0.05216 0.34433 0.0
C486 C 0.60269 0.05175 0.38157 0.0
C487 C 0.62405 0.06468 0.37113 0.0
H488 H 0.57011 0.04902 0.33431 0.0
H489 H 0.60137 0.04795 0.40103 0.0
H490 H 0.52735 0.05011 0.36315 0.0
H491 H 0.57107 0.11009 0.40106 0.0
H492 H 0.53137 0.94935 0.39932 0.0
H493 H 0.6067 0.07215 0.31491 0.0
H494 H 0.63869 0.06904 0.38251 0.0
C495 C 0.81518 0.57188 0.78735 0.0
C496 C 0.79249 0.55738 0.79158 0.0
N497 N 0.78458 0.5685 0.80506 0.0
N498 N 0.82139 0.592 0.79802 0.0
C499 C 0.8024 0.58941 0.80874 0.0
H500 H 0.82621 0.56835 0.77621 0.0
Co501 Co 0.84882 0.6182 0.79325 0.0
C502 C 0.85828 0.64608 0.83849 0.0
O503 O 0.87986 0.65282 0.83553 0.0
N504 N 0.87639 0.64504 0.78711 0.0
C505 C 0.8992 0.68151 0.77849 0.0
C506 C 0.87777 0.66548 0.78545 0.0
C507 C 0.8973 0.64916 0.78064 0.0
N508 N 0.91147 0.67122 0.77538 0.0
O509 O 0.83408 0.62935 0.772 0.0
H510 H 0.86392 0.66854 0.78898 0.0
H511 H 0.90203 0.63633 0.77881 0.0
O512 O 0.84365 0.63207 0.82313 0.0
C513 C 0.83486 0.62297 0.75009 0.0
O514 O 0.84392 0.6101 0.74673 0.0
N515 N 0.86295 0.60546 0.81178 0.0
C516 C 0.8784 0.57798 0.83217 0.0
C517 C 0.86753 0.58662 0.84687 0.0
C518 C 0.85954 0.59998 0.83623 0.0
C519 C 0.87294 0.5967 0.7972 0.0
C520 C 0.88117 0.58334 0.80703 0.0
H521 H 0.84951 0.60465 0.84747 0.0
H522 H 0.87353 0.59921 0.7775 0.0
H523 H 0.80125 0.60297 0.81771 0.0
H524 H 0.78245 0.54024 0.78478 0.0
H525 H 0.90523 0.69936 0.77589 0.0
H526 H 0.86457 0.58251 0.86627 0.0
H527 H 0.88854 0.57627 0.79473 0.0
C528 C 0.41334 0.24147 0.783 0.0
C529 C 0.42931 0.23544 0.7885 0.0
N530 N 0.41986 0.21765 0.80398 0.0
N531 N 0.39393 0.22751 0.7949 0.0
C532 C 0.3984 0.21315 0.80753 0.0
H533 H 0.41561 0.25502 0.77086 0.0
Co534 Co 0.36745 0.22854 0.79171 0.0
C535 C 0.33895 0.20543 0.83583 0.0
O536 O 0.33035 0.21886 0.83458 0.0
N537 N 0.34058 0.22961 0.78719 0.0
C538 C 0.30432 0.21835 0.7795 0.0
C539 C 0.31974 0.21135 0.78398 0.0
C540 C 0.33741 0.24747 0.78382 0.0
N541 N 0.31557 0.24109 0.77933 0.0
O542 O 0.35636 0.20403 0.76849 0.0
H543 H 0.31598 0.19397 0.78473 0.0
H544 H 0.35072 0.26491 0.7842 0.0
O545 O 0.35383 0.2074 0.82003 0.0
C546 C 0.36172 0.21188 0.74665 0.0
O547 O 0.37356 0.23396 0.74384 0.0
N548 N 0.38005 0.25406 0.81254 0.0
C549 C 0.40565 0.29528 0.83704 0.0
C550 C 0.39623 0.27475 0.84995 0.0
C551 C 0.38382 0.25429 0.8373 0.0
C552 C 0.38989 0.27383 0.79963 0.0
C553 C 0.40232 0.29462 0.81152 0.0
H554 H 0.37842 0.23889 0.84741 0.0
H555 H 0.38847 0.2734 0.77977 0.0
H556 H 0.38602 0.19923 0.81853 0.0
H557 H 0.44653 0.24352 0.78168 0.0
H558 H 0.28644 0.20758 0.77576 0.0
H559 H 0.39885 0.27444 0.86959 0.0
H560 H 0.41006 0.30997 0.80061 0.0
C561 C 0.75784 0.17963 0.79375 0.0
C562 C 0.76877 0.20281 0.7964 0.0
N563 N 0.7898 0.20994 0.80522 0.0
N564 N 0.77183 0.17216 0.80106 0.0
C565 C 0.79106 0.1909 0.80793 0.0
H566 H 0.74115 0.16903 0.78604 0.0
Co567 Co 0.76777 0.14335 0.79773 0.0
C568 C 0.78521 0.134 0.84366 0.0
O569 O 0.76877 0.11288 0.84208 0.0
N570 N 0.76446 0.11433 0.79335 0.0
C571 C 0.77571 0.08907 0.788 0.0
C572 C 0.78267 0.11144 0.79182 0.0
C573 C 0.74654 0.09326 0.78985 0.0
N574 N 0.75298 0.07764 0.78678 0.0
O575 O 0.79302 0.15523 0.77554 0.0
H576 H 0.80008 0.12484 0.79361 0.0
H577 H 0.72908 0.08913 0.7897 0.0
O578 O 0.7871 0.14842 0.82729 0.0
C579 C 0.78518 0.15405 0.75389 0.0
O580 O 0.76335 0.14643 0.75151 0.0
N581 N 0.74147 0.13206 0.81701 0.0
C582 C 0.69951 0.12069 0.83766 0.0
C583 C 0.71946 0.13185 0.8517 0.0
C584 C 0.74035 0.1377 0.84092 0.0
C585 C 0.72236 0.12179 0.80304 0.0
C586 C 0.70122 0.11534 0.8131 0.0
H587 H 0.75555 0.14799 0.85137 0.0
H588 H 0.72365 0.11932 0.78356 0.0
H589 H 0.80592 0.19048 0.81405 0.0
H590 H 0.76196 0.21353 0.79119 0.0
H591 H 0.78659 0.08184 0.78586 0.0
H592 H 0.71915 0.13713 0.87043 0.0
H593 H 0.68644 0.10676 0.80141 0.0
C594 C 0.41627 0.17914 0.27403 0.0
C595 C 0.42846 0.20238 0.27548 0.0
N596 N 0.419 0.20896 0.29301 0.0
N597 N 0.39923 0.17122 0.29051 0.0
C598 C 0.4013 0.18976 0.3018 0.0
H599 H 0.4194 0.16864 0.26156 0.0
Co600 Co 0.3773 0.14114 0.29384 0.0
C601 C 0.36352 0.13555 0.3459 0.0
O602 O 0.36613 0.11771 0.34566 0.0
N603 N 0.35429 0.11041 0.29628 0.0
C604 C 0.31997 0.0805 0.30256 0.0
C605 C 0.33332 0.10347 0.30538 0.0
C606 C 0.35269 0.09133 0.28673 0.0
N607 N 0.33222 0.073 0.29075 0.0
O608 O 0.35682 0.14686 0.27515 0.0
H609 H 0.32774 0.11455 0.31286 0.0
H610 H 0.36564 0.09069 0.27602 0.0
O611 O 0.36716 0.14728 0.32614 0.0
C612 C 0.35938 0.14212 0.25303 0.0
O613 O 0.37328 0.13432 0.2492 0.0
N614 N 0.39915 0.13597 0.30907 0.0
C615 C 0.43508 0.13004 0.32416 0.0
C616 C 0.42895 0.1436 0.33788 0.0
C617 C 0.4113 0.14683 0.32968 0.0
C618 C 0.40623 0.12445 0.29456 0.0
C619 C 0.4235 0.12057 0.30209 0.0
H620 H 0.4079 0.15856 0.33953 0.0
H621 H 0.39925 0.11919 0.27637 0.0
H622 H 0.38969 0.1893 0.31568 0.0
H623 H 0.44315 0.21355 0.26458 0.0
H624 H 0.30227 0.07029 0.30751 0.0
H625 H 0.43817 0.15228 0.35435 0.0
H626 H 0.42784 0.11044 0.29042 0.0
C627 C 0.80289 0.22803 0.28291 0.0
C628 C 0.78012 0.21255 0.28083 0.0
N629 N 0.77694 0.19198 0.28671 0.0
N630 N 0.81391 0.21726 0.29039 0.0
C631 C 0.79773 0.19525 0.29178 0.0
H632 H 0.81077 0.24604 0.27973 0.0
Co633 Co 0.84483 0.22973 0.29637 0.0
C634 C 0.82456 0.20135 0.34345 0.0
O635 O 0.80505 0.20083 0.34269 0.0
N636 N 0.87575 0.24224 0.30213 0.0
C637 C 0.90892 0.25822 0.3214 0.0
C638 C 0.88587 0.24744 0.32443 0.0
C639 C 0.89298 0.25006 0.28581 0.0
N640 N 0.91336 0.2599 0.29711 0.0
O641 O 0.84467 0.20636 0.27648 0.0
H642 H 0.87712 0.24427 0.34185 0.0
H643 H 0.89072 0.24938 0.26606 0.0
O644 O 0.83938 0.2117 0.32663 0.0
C645 C 0.84634 0.21272 0.25408 0.0
O646 O 0.84797 0.23243 0.24963 0.0
N647 N 0.84584 0.25427 0.31303 0.0
C648 C 0.85252 0.29613 0.32907 0.0
C649 C 0.84201 0.27695 0.34439 0.0
C650 C 0.83897 0.25615 0.33608 0.0
C651 C 0.85584 0.27262 0.29793 0.0
C652 C 0.85957 0.29365 0.30559 0.0
H653 H 0.83131 0.24195 0.34837 0.0
H654 H 0.8613 0.27091 0.27975 0.0
H655 H 0.80103 0.18193 0.29734 0.0
H656 H 0.76681 0.21631 0.27668 0.0
H657 H 0.92144 0.26448 0.33597 0.0
H658 H 0.83611 0.27789 0.36261 0.0
H659 H 0.86833 0.30789 0.29323 0.0
C660 C 0.76314 0.5819 0.28211 0.0
C661 C 0.77559 0.57109 0.28298 0.0
N662 N 0.79446 0.58385 0.29638 0.0
N663 N 0.77402 0.60129 0.29503 0.0
C664 C 0.79302 0.6021 0.30341 0.0
H665 H 0.74742 0.57627 0.27228 0.0
Co666 Co 0.76535 0.6229 0.29748 0.0
C667 C 0.77435 0.63823 0.3489 0.0
O668 O 0.75394 0.63575 0.34862 0.0
N669 N 0.7572 0.64568 0.29897 0.0
C670 C 0.76098 0.67984 0.30452 0.0
C671 C 0.77098 0.66686 0.30769 0.0
C672 C 0.7396 0.64686 0.28902 0.0
N673 N 0.74129 0.66717 0.29274 0.0
O674 O 0.79083 0.64291 0.27769 0.0
H675 H 0.7877 0.67283 0.31524 0.0
H676 H 0.72623 0.63374 0.27823 0.0
O677 O 0.78232 0.63425 0.32926 0.0
C678 C 0.78304 0.63891 0.25572 0.0
O679 O 0.76149 0.62394 0.25262 0.0
N680 N 0.73894 0.60147 0.31412 0.0
C681 C 0.69777 0.56788 0.33353 0.0
C682 C 0.71829 0.57371 0.34538 0.0
C683 C 0.73875 0.59017 0.33504 0.0
C684 C 0.71945 0.59423 0.30116 0.0
C685 C 0.69866 0.57823 0.31089 0.0
H686 H 0.75442 0.5936 0.3437 0.0
H687 H 0.72004 0.60019 0.28268 0.0
H688 H 0.80562 0.61598 0.31427 0.0
H689 H 0.77129 0.55536 0.27382 0.0
H690 H 0.76811 0.69752 0.30929 0.0
H691 H 0.71865 0.5653 0.36214 0.0
H692 H 0.68351 0.57404 0.30052 0.0
C693 C 0.51791 0.08607 0.91546 0.0
C694 C 0.54113 0.0954 0.91519 0.0
N695 N 0.54638 0.08518 0.89726 0.0
N696 N 0.5087 0.07006 0.89781 0.0
C697 C 0.52647 0.0698 0.88723 0.0
H698 H 0.50835 0.09079 0.92755 0.0
Co699 Co 0.47802 0.05191 0.89051 0.0
C700 C 0.48887 0.04822 0.83638 0.0
O701 O 0.48863 0.06648 0.8295 0.0
N702 N 0.44705 0.03287 0.88307 0.0
C703 C 0.41421 0.01648 0.86297 0.0
C704 C 0.43721 0.03018 0.86076 0.0
C705 C 0.42958 0.02043 0.8985 0.0
N706 N 0.40944 0.01042 0.88673 0.0
O707 O 0.47831 0.02762 0.90805 0.0
H708 H 0.44593 0.03847 0.84404 0.0
H709 H 0.43137 0.01959 0.91818 0.0
O710 O 0.48501 0.04163 0.8589 0.0
C711 C 0.47492 0.03057 0.93056 0.0
O712 O 0.4713 0.04733 0.93575 0.0
N713 N 0.47742 0.07743 0.87693 0.0
C714 C 0.47385 0.11534 0.86422 0.0
C715 C 0.4933 0.1143 0.85813 0.0
C716 C 0.49507 0.09552 0.86541 0.0
C717 C 0.45936 0.07933 0.88469 0.0
C718 C 0.45693 0.09764 0.87798 0.0
H719 H 0.51058 0.09547 0.86144 0.0
H720 H 0.44673 0.06682 0.89673 0.0
H721 H 0.52496 0.05848 0.87249 0.0
H722 H 0.55321 0.10901 0.92678 0.0
H723 H 0.40191 0.01168 0.84827 0.0
H724 H 0.50719 0.12804 0.8483 0.0
H725 H 0.44178 0.09783 0.8836 0.0
C726 C 0.91174 0.42596 0.89272 0.0
C727 C 0.90024 0.43754 0.88893 0.0
N728 N 0.9151 0.45849 0.88071 0.0
N729 N 0.93368 0.43951 0.88675 0.0
C730 C 0.93522 0.45918 0.87966 0.0
H731 H 0.90462 0.4089 0.8997 0.0
Co732 Co 0.95739 0.43367 0.88988 0.0
C733 C 0.9842 0.45074 0.84412 0.0
O734 O 0.98803 0.4337 0.84478 0.0
N735 N 0.98206 0.42849 0.89388 0.0
C736 C 0.01792 0.43685 0.89871 0.0
C737 C 0.00385 0.44551 0.89468 0.0
C738 C 0.98343 0.40965 0.8982 0.0
N739 N 0.00502 0.41429 0.90097 0.0
O740 O 0.97224 0.45876 0.91173 0.0
H741 H 0.00924 0.46325 0.89244 0.0
H742 H 0.9691 0.39278 0.89954 0.0
O743 O 0.97203 0.45277 0.86075 0.0
C744 C 0.96546 0.45135 0.93342 0.0
O745 O 0.94988 0.42996 0.93606 0.0
N746 N 0.94112 0.40759 0.8706 0.0
C747 C 0.91117 0.36591 0.84947 0.0
C748 C 0.92015 0.38579 0.83542 0.0
C749 C 0.93502 0.40661 0.84644 0.0
C750 C 0.93129 0.38855 0.88472 0.0
C751 C 0.91683 0.36748 0.87443 0.0
H752 H 0.94068 0.42184 0.83579 0.0
H753 H 0.93437 0.38986 0.90435 0.0
H754 H 0.95104 0.474 0.87462 0.0
H755 H 0.88235 0.43099 0.892 0.0
H756 H 0.03617 0.44648 0.9006 0.0
H757 H 0.9155 0.38526 0.81626 0.0
H758 H 0.90945 0.35262 0.88613 0.0
C759 C 0.56133 0.47358 0.89571 0.0
C760 C 0.547 0.45058 0.89745 0.0
N761 N 0.52557 0.44626 0.89446 0.0
N762 N 0.54905 0.48373 0.89125 0.0
C763 C 0.52731 0.46673 0.89143 0.0
H764 H 0.5796 0.48224 0.89702 0.0
Co765 Co 0.55972 0.51456 0.88653 0.0
C766 C 0.53056 0.49407 0.83974 0.0
O767 O 0.52932 0.47425 0.84091 0.0
N768 N 0.57051 0.54546 0.88194 0.0
C769 C 0.58569 0.57893 0.86341 0.0
C770 C 0.57522 0.55599 0.85987 0.0
C771 C 0.57827 0.5624 0.89866 0.0
N772 N 0.58769 0.58294 0.88779 0.0
O773 O 0.53594 0.51226 0.9076 0.0
H774 H 0.57233 0.54763 0.84224 0.0
H775 H 0.57823 0.55987 0.91832 0.0
O776 O 0.54126 0.50899 0.8564 0.0
C777 C 0.54333 0.51405 0.92962 0.0
O778 O 0.56389 0.51733 0.93268 0.0
N779 N 0.58472 0.51761 0.86893 0.0
C780 C 0.62656 0.52478 0.85224 0.0
C781 C 0.60688 0.51249 0.83794 0.0
C782 C 0.58603 0.50911 0.84662 0.0
C783 C 0.60364 0.52957 0.88291 0.0
C784 C 0.62466 0.53365 0.87482 0.0
H785 H 0.57119 0.49935 0.83559 0.0
H786 H 0.60231 0.53595 0.90069 0.0
H787 H 0.51308 0.46932 0.88845 0.0
H788 H 0.55211 0.43799 0.89952 0.0
H789 H 0.59186 0.59172 0.84913 0.0
H790 H 0.60743 0.50512 0.82049 0.0
H791 H 0.6393 0.54375 0.88631 0.0
C792 C 0.57243 0.81778 0.72548 0.0
C793 C 0.55856 0.79518 0.72011 0.0
N794 N 0.57059 0.78823 0.70677 0.0
N795 N 0.59308 0.82485 0.71569 0.0
C796 C 0.59141 0.80648 0.70436 0.0
H797 H 0.56808 0.82817 0.73666 0.0
Co798 Co 0.6188 0.85251 0.72135 0.0
C799 C 0.64808 0.86229 0.67736 0.0
O800 O 0.65453 0.88383 0.67981 0.0
N801 N 0.64522 0.88029 0.72828 0.0
C802 C 0.68139 0.90314 0.73825 0.0
C803 C 0.66573 0.88187 0.73052 0.0
C804 C 0.64894 0.90096 0.7352 0.0
N805 N 0.6708 0.91513 0.7413 0.0
O806 O 0.62969 0.83813 0.74315 0.0
H807 H 0.66908 0.86821 0.72698 0.0
H808 H 0.63593 0.90547 0.73687 0.0
O809 O 0.63381 0.84777 0.69253 0.0
C810 C 0.62269 0.83842 0.76485 0.0
O811 O 0.60888 0.84644 0.76788 0.0
N812 N 0.60635 0.86632 0.70192 0.0
C813 C 0.57958 0.88166 0.6797 0.0
C814 C 0.58819 0.8703 0.66585 0.0
C815 C 0.60134 0.86248 0.67739 0.0
C816 C 0.59736 0.87658 0.71571 0.0
C817 C 0.58445 0.8849 0.70491 0.0
H818 H 0.60619 0.85222 0.66681 0.0
H819 H 0.59932 0.87732 0.7355 0.0
H820 H 0.60551 0.80604 0.69577 0.0
H821 H 0.54118 0.78456 0.72598 0.0
H822 H 0.69919 0.90925 0.74152 0.0
H823 H 0.58423 0.86688 0.64646 0.0
H824 H 0.57729 0.89268 0.71648 0.0
C825 C 0.17555 0.75458 0.72749 0.0
C826 C 0.19858 0.76442 0.72401 0.0
N827 N 0.20629 0.78525 0.71439 0.0
N828 N 0.16878 0.76906 0.7199 0.0
C829 C 0.1878 0.78752 0.71207 0.0
H830 H 0.16458 0.73826 0.73578 0.0
Co831 Co 0.14037 0.76612 0.72313 0.0
C832 C 0.13199 0.7841 0.67715 0.0
O833 O 0.11053 0.76845 0.67862 0.0
N834 N 0.11174 0.76386 0.72738 0.0
C835 C 0.08715 0.77599 0.73275 0.0
C836 C 0.10943 0.7824 0.72905 0.0
C837 C 0.09041 0.74631 0.73059 0.0
N838 N 0.07518 0.75327 0.73371 0.0
O839 O 0.15302 0.79166 0.7445 0.0
H840 H 0.12316 0.79967 0.72742 0.0
H841 H 0.08579 0.72872 0.73045 0.0
O842 O 0.14603 0.78517 0.69353 0.0
C843 C 0.15218 0.78438 0.76631 0.0
O844 O 0.14449 0.76261 0.7694 0.0
N845 N 0.12831 0.7396 0.7044 0.0
C846 C 0.11745 0.69734 0.68531 0.0
C847 C 0.12838 0.71689 0.67064 0.0
C848 C 0.13392 0.73795 0.68064 0.0
C849 C 0.11794 0.72085 0.71887 0.0
C850 C 0.11172 0.69954 0.70955 0.0
H851 H 0.14417 0.75291 0.66981 0.0
H852 H 0.11544 0.72259 0.73823 0.0
H853 H 0.18803 0.80253 0.70528 0.0
H854 H 0.20888 0.75708 0.72908 0.0
H855 H 0.08036 0.78723 0.73498 0.0
H856 H 0.13387 0.71619 0.65212 0.0
H857 H 0.1032 0.68506 0.72164 0.0
C858 C 0.23437 0.42429 0.73737 0.0
C859 C 0.22132 0.43441 0.73967 0.0
N860 N 0.19954 0.41859 0.73572 0.0
N861 N 0.22087 0.40227 0.73161 0.0
C862 C 0.19972 0.39917 0.73168 0.0
H863 H 0.25261 0.43269 0.73889 0.0
Co864 Co 0.22916 0.38056 0.7251 0.0
C865 C 0.19993 0.37543 0.67929 0.0
O866 O 0.20135 0.3953 0.68094 0.0
N867 N 0.23752 0.35888 0.71874 0.0
C868 C 0.24985 0.33901 0.69816 0.0
C869 C 0.24122 0.35326 0.69605 0.0
C870 C 0.24397 0.34775 0.7344 0.0
N871 N 0.25161 0.33561 0.72226 0.0
O872 O 0.20495 0.35976 0.74617 0.0
H873 H 0.2389 0.36 0.67898 0.0
H874 H 0.24429 0.34948 0.75421 0.0
O875 O 0.20969 0.36946 0.69539 0.0
C876 C 0.21234 0.36435 0.76828 0.0
O877 O 0.23351 0.38025 0.77167 0.0
N878 N 0.25456 0.4017 0.70725 0.0
C879 C 0.29696 0.43364 0.68883 0.0
C880 C 0.27716 0.42717 0.67512 0.0
C881 C 0.25609 0.41108 0.68462 0.0
C882 C 0.27358 0.40783 0.72078 0.0
C883 C 0.29489 0.42354 0.7119 0.0
H884 H 0.24135 0.40652 0.67367 0.0
H885 H 0.27213 0.40032 0.73872 0.0
H886 H 0.18479 0.38315 0.72742 0.0
H887 H 0.22755 0.4523 0.7423 0.0
H888 H 0.25503 0.33215 0.68317 0.0
H889 H 0.27784 0.43466 0.65734 0.0
H890 H 0.3096 0.42751 0.72302 0.0
C891 C 0.48385 0.91057 0.1136 0.0
C892 C 0.46137 0.89565 0.11852 0.0
N893 N 0.45382 0.90593 0.13385 0.0
N894 N 0.49026 0.93012 0.12567 0.0
C895 C 0.47161 0.92678 0.13789 0.0
H896 H 0.49467 0.90765 0.10141 0.0
Co897 Co 0.51795 0.95623 0.12204 0.0
C898 C 0.52563 0.98395 0.16719 0.0
O899 O 0.54737 0.99108 0.16518 0.0
N900 N 0.54598 0.98301 0.11715 0.0
C901 C 0.57001 0.01959 0.11027 0.0
C902 C 0.5478 0.00355 0.11418 0.0
C903 C 0.56746 0.98709 0.11447 0.0
N904 N 0.58236 0.0092 0.11047 0.0
O905 O 0.50421 0.96768 0.09977 0.0
H906 H 0.5338 0.00676 0.11507 0.0
H907 H 0.57239 0.97438 0.11567 0.0
O908 O 0.5117 0.96999 0.15129 0.0
C909 C 0.50642 0.96227 0.07786 0.0
O910 O 0.51654 0.95034 0.0748 0.0
N911 N 0.53096 0.94309 0.1417 0.0
C912 C 0.54497 0.91525 0.16396 0.0
C913 C 0.53331 0.92369 0.17754 0.0
C914 C 0.52615 0.93735 0.16597 0.0
C915 C 0.54153 0.93429 0.12812 0.0
C916 C 0.5492 0.92084 0.13897 0.0
H917 H 0.5156 0.94198 0.17627 0.0
H918 H 0.54335 0.93716 0.10845 0.0
H919 H 0.47069 0.93967 0.14859 0.0
H920 H 0.45129 0.87872 0.11117 0.0
H921 H 0.5765 0.03747 0.10718 0.0
H922 H 0.52916 0.91923 0.19673 0.0
H923 H 0.55734 0.91393 0.1276 0.0
C924 C 0.08589 0.57312 0.12467 0.0
C925 C 0.09986 0.56444 0.12984 0.0
N926 N 0.08788 0.54533 0.14297 0.0
N927 N 0.06525 0.55938 0.13437 0.0
C928 C 0.06701 0.54263 0.14546 0.0
H929 H 0.09019 0.58796 0.11369 0.0
Co930 Co 0.03951 0.56136 0.12884 0.0
C931 C 0.00973 0.54066 0.17227 0.0
O932 O 0.00281 0.55542 0.17 0.0
N933 N 0.0131 0.56281 0.12199 0.0
C934 C 0.97706 0.54978 0.11158 0.0
C935 C 0.99266 0.54395 0.119 0.0
C936 C 0.00941 0.57995 0.11584 0.0
N937 N 0.98762 0.57243 0.10949 0.0
O938 O 0.02889 0.53658 0.10651 0.0
H939 H 0.98931 0.52686 0.12185 0.0
H940 H 0.02238 0.59752 0.11494 0.0
O941 O 0.02432 0.541 0.15714 0.0
C942 C 0.03604 0.54414 0.08495 0.0
O943 O 0.04985 0.56599 0.08222 0.0
N944 N 0.05169 0.58712 0.14899 0.0
C945 C 0.07847 0.62844 0.17264 0.0
C946 C 0.06953 0.60807 0.18577 0.0
C947 C 0.05641 0.58753 0.17352 0.0
C948 C 0.0609 0.60677 0.13589 0.0
C949 C 0.07384 0.62764 0.14742 0.0
H950 H 0.05143 0.57213 0.18356 0.0
H951 H 0.05914 0.60616 0.11608 0.0
H952 H 0.05295 0.52799 0.15394 0.0
H953 H 0.11726 0.57132 0.12398 0.0
H954 H 0.95932 0.53818 0.10791 0.0
H955 H 0.07328 0.60798 0.20514 0.0
H956 H 0.08125 0.64292 0.1364 0.0
C957 C 0.42588 0.51486 0.10756 0.0
C958 C 0.43581 0.53797 0.11023 0.0
N959 N 0.45195 0.54459 0.12765 0.0
N960 N 0.43588 0.50711 0.12313 0.0
C961 C 0.45168 0.52561 0.13512 0.0
H962 H 0.41254 0.50439 0.09477 0.0
Co963 Co 0.43015 0.47763 0.12459 0.0
C964 C 0.43996 0.47105 0.17581 0.0
O965 O 0.42046 0.45203 0.17505 0.0
N966 N 0.4251 0.44771 0.12518 0.0
C967 C 0.43325 0.42002 0.1297 0.0
C968 C 0.44103 0.44268 0.13275 0.0
C969 C 0.40831 0.42785 0.11616 0.0
N970 N 0.41274 0.41086 0.11924 0.0
O971 O 0.45657 0.4862 0.10466 0.0
H972 H 0.45763 0.45489 0.13957 0.0
H973 H 0.39346 0.4257 0.10669 0.0
O974 O 0.44709 0.48379 0.1566 0.0
C975 C 0.44883 0.48213 0.08265 0.0
O976 O 0.42686 0.47322 0.07966 0.0
N977 N 0.40272 0.46959 0.14106 0.0
C978 C 0.36017 0.45926 0.15917 0.0
C979 C 0.38003 0.47402 0.17206 0.0
C980 C 0.40115 0.47941 0.16238 0.0
C981 C 0.38377 0.4569 0.12737 0.0
C982 C 0.36235 0.45087 0.13637 0.0
H983 H 0.41621 0.49194 0.17176 0.0
H984 H 0.38528 0.45225 0.1088 0.0
H985 H 0.46336 0.52538 0.14846 0.0
H986 H 0.43155 0.54904 0.10016 0.0
H987 H 0.44231 0.41113 0.13377 0.0
H988 H 0.37935 0.48195 0.18906 0.0
H989 H 0.34769 0.43995 0.12528 0.0
C990 C 0.08117 0.51484 0.60931 0.0
C991 C 0.0936 0.53807 0.61129 0.0
N992 N 0.08356 0.54452 0.62826 0.0
N993 N 0.06338 0.50686 0.62483 0.0
C994 C 0.06532 0.52534 0.63614 0.0
H995 H 0.0845 0.50444 0.59691 0.0
Co996 Co 0.04018 0.47715 0.62648 0.0
C997 C 0.0191 0.47139 0.67527 0.0
O998 O 0.01823 0.45175 0.67679 0.0
N999 N 0.01604 0.4469 0.62697 0.0
C1000 C 0.98049 0.41808 0.62842 0.0
C1001 C 0.99418 0.44102 0.63119 0.0
C1002 C 0.01488 0.42724 0.62029 0.0
N1003 N 0.99361 0.40957 0.6215 0.0
O1004 O 0.02257 0.48431 0.60501 0.0
H1005 H 0.98845 0.45282 0.63552 0.0
H1006 H 0.02892 0.42564 0.61373 0.0
O1007 O 0.0277 0.48392 0.65623 0.0
C1008 C 0.02598 0.47985 0.58315 0.0
O1009 O 0.03991 0.47199 0.58001 0.0
N1010 N 0.05905 0.47035 0.64549 0.0
C1011 C 0.0903 0.46082 0.66789 0.0
C1012 C 0.08324 0.47456 0.67971 0.0
C1013 C 0.0679 0.47945 0.668 0.0
C1014 C 0.06733 0.45883 0.63292 0.0
C1015 C 0.08214 0.45306 0.64403 0.0
H1016 H 0.06387 0.4912 0.67671 0.0
H1017 H 0.0629 0.45459 0.6138 0.0
H1018 H 0.05314 0.52498 0.64916 0.0
H1019 H 0.10869 0.54935 0.601 0.0
H1020 H 0.96222 0.40856 0.6301 0.0
H1021 H 0.08998 0.4821 0.69748 0.0
H1022 H 0.08718 0.44273 0.63373 0.0
C1023 C 0.48198 0.56652 0.60564 0.0
C1024 C 0.45887 0.55652 0.60829 0.0
N1025 N 0.45234 0.54074 0.62611 0.0
N1026 N 0.48987 0.557 0.62165 0.0
C1027 C 0.47144 0.54135 0.63389 0.0
H1028 H 0.49238 0.57967 0.59265 0.0
Co1029 Co 0.51967 0.56367 0.62329 0.0
C1030 C 0.52715 0.55448 0.67424 0.0
O1031 O 0.54597 0.57413 0.67299 0.0
N1032 N 0.55002 0.56981 0.62406 0.0
C1033 C 0.57829 0.56235 0.62678 0.0
C1034 C 0.55541 0.55369 0.6294 0.0
C1035 C 0.57004 0.58798 0.61753 0.0
N1036 N 0.58745 0.58392 0.61923 0.0
O1037 O 0.51184 0.5373 0.60355 0.0
H1038 H 0.54329 0.53644 0.63441 0.0
H1039 H 0.57207 0.60381 0.61109 0.0
O1040 O 0.51407 0.547 0.65532 0.0
C1041 C 0.51621 0.54489 0.5815 0.0
O1042 O 0.52516 0.56682 0.57828 0.0
N1043 N 0.52673 0.5909 0.6394 0.0
C1044 C 0.53379 0.633 0.65528 0.0
C1045 C 0.52073 0.61338 0.66933 0.0
C1046 C 0.517 0.59243 0.66081 0.0
C1047 C 0.53792 0.60946 0.62476 0.0
C1048 C 0.54241 0.63072 0.63267 0.0
H1049 H 0.5055 0.57739 0.67095 0.0
H1050 H 0.54253 0.60762 0.60625 0.0
H1051 H 0.47184 0.53012 0.64769 0.0
H1052 H 0.44775 0.56054 0.59797 0.0
H1053 H 0.58732 0.55317 0.62918 0.0
H1054 H 0.51265 0.61396 0.68624 0.0
H1055 H 0.55223 0.64511 0.6208 0.0
C1056 C 0.42778 0.91387 0.61455 0.0
C1057 C 0.44009 0.90289 0.61549 0.0
N1058 N 0.45923 0.91581 0.62844 0.0
N1059 N 0.43901 0.93351 0.62698 0.0
C1060 C 0.45807 0.93428 0.63513 0.0
H1061 H 0.41194 0.90819 0.60495 0.0
Co1062 Co 0.43117 0.95577 0.62925 0.0
C1063 C 0.44124 0.97189 0.68035 0.0
O1064 O 0.42112 0.97009 0.68054 0.0
N1065 N 0.42404 0.97929 0.63082 0.0
C1066 C 0.43052 0.01461 0.63452 0.0
C1067 C 0.43952 0.00071 0.63731 0.0
C1068 C 0.40598 0.98093 0.62323 0.0
N1069 N 0.40943 0.00215 0.62558 0.0
O1070 O 0.45686 0.97509 0.6092 0.0
H1071 H 0.4567 0.00613 0.64295 0.0
H1072 H 0.39085 0.96728 0.61525 0.0
O1073 O 0.44844 0.96703 0.66072 0.0
C1074 C 0.44898 0.9715 0.58727 0.0
O1075 O 0.42721 0.95733 0.58426 0.0
N1076 N 0.40452 0.93501 0.64593 0.0
C1077 C 0.36278 0.90202 0.66442 0.0
C1078 C 0.38282 0.90766 0.67714 0.0
C1079 C 0.40365 0.92389 0.66726 0.0
C1080 C 0.38542 0.92778 0.6322 0.0
C1081 C 0.36431 0.9119 0.6414 0.0
H1082 H 0.41902 0.92726 0.6766 0.0
H1083 H 0.38665 0.93374 0.61355 0.0
H1084 H 0.47094 0.94835 0.64553 0.0
H1085 H 0.43552 0.88695 0.60668 0.0
H1086 H 0.43928 0.03272 0.63753 0.0
H1087 H 0.38241 0.89965 0.69451 0.0
H1088 H 0.34935 0.9069 0.63026 0.0
C1089 C 0.17571 0.4101 0.24175 0.0
C1090 C 0.19883 0.42255 0.23863 0.0
N1091 N 0.20462 0.41266 0.22081 0.0
N1092 N 0.16707 0.39246 0.22603 0.0
C1093 C 0.18507 0.39445 0.21351 0.0
H1094 H 0.16582 0.41349 0.25484 0.0
Co1095 Co 0.13693 0.37004 0.22477 0.0
C1096 C 0.12861 0.35323 0.17387 0.0
O1097 O 0.11016 0.35473 0.17529 0.0
N1098 N 0.10623 0.3465 0.2243 0.0
C1099 C 0.07729 0.31112 0.22183 0.0
C1100 C 0.10021 0.32484 0.21891 0.0
C1101 C 0.08654 0.34526 0.23116 0.0
N1102 N 0.06873 0.324 0.22962 0.0
O1103 O 0.14406 0.35094 0.24449 0.0
H1104 H 0.11193 0.31924 0.2137 0.0
H1105 H 0.08504 0.35932 0.23777 0.0
O1106 O 0.14176 0.35847 0.19269 0.0
C1107 C 0.13976 0.35443 0.26648 0.0
O1108 O 0.13155 0.36809 0.26951 0.0
N1109 N 0.13058 0.39075 0.20875 0.0
C1110 C 0.12444 0.42644 0.19312 0.0
C1111 C 0.13699 0.41938 0.17885 0.0
C1112 C 0.14026 0.40182 0.18725 0.0
C1113 C 0.11991 0.39858 0.22358 0.0
C1114 C 0.11588 0.41569 0.2158 0.0
H1115 H 0.15136 0.39785 0.17692 0.0
H1116 H 0.11534 0.39219 0.24211 0.0
H1117 H 0.18402 0.38245 0.19981 0.0
H1118 H 0.21044 0.43771 0.24861 0.0
H1119 H 0.06785 0.29293 0.21951 0.0
H1120 H 0.145 0.42789 0.16185 0.0
H1121 H 0.10643 0.42061 0.22783 0.0
C1122 C 0.57481 0.76334 0.23477 0.0
C1123 C 0.56374 0.77549 0.23258 0.0
N1124 N 0.57723 0.79475 0.2201 0.0
N1125 N 0.5951 0.77479 0.22361 0.0
C1126 C 0.59614 0.79382 0.21495 0.0
H1127 H 0.5687 0.74743 0.24435 0.0
Co1128 Co 0.61759 0.76713 0.22304 0.0
C1129 C 0.63838 0.78006 0.17379 0.0
O1130 O 0.63864 0.76093 0.17326 0.0
N1131 N 0.6411 0.76007 0.22336 0.0
C1132 C 0.67639 0.7661 0.22185 0.0
C1133 C 0.66301 0.77567 0.21887 0.0
C1134 C 0.64189 0.74142 0.23033 0.0
N1135 N 0.66303 0.74462 0.2291 0.0
O1136 O 0.63592 0.79247 0.2436 0.0
H1137 H 0.669 0.79316 0.2141 0.0
H1138 H 0.62765 0.72593 0.23692 0.0
O1139 O 0.63018 0.78501 0.19244 0.0
C1140 C 0.63128 0.78493 0.26559 0.0
O1141 O 0.6158 0.76358 0.26881 0.0
N1142 N 0.59799 0.74086 0.20533 0.0
C1143 C 0.56427 0.69949 0.18643 0.0
C1144 C 0.57242 0.71948 0.17262 0.0
C1145 C 0.58897 0.74009 0.18262 0.0
C1146 C 0.58915 0.7219 0.21951 0.0
C1147 C 0.57291 0.70099 0.21024 0.0
H1148 H 0.59369 0.75542 0.17251 0.0
H1149 H 0.59416 0.72314 0.23857 0.0
H1150 H 0.61068 0.80682 0.20526 0.0
H1151 H 0.54729 0.7707 0.2402 0.0
H1152 H 0.69463 0.77452 0.21998 0.0
H1153 H 0.56549 0.71939 0.15465 0.0
H1154 H 0.56703 0.68622 0.22188 0.0
C1155 C 0.2321 0.80928 0.24184 0.0
C1156 C 0.21919 0.78602 0.24134 0.0
N1157 N 0.20015 0.7802 0.22836 0.0
N1158 N 0.22133 0.81803 0.22908 0.0
C1159 C 0.20196 0.8 0.22121 0.0
H1160 H 0.24809 0.81921 0.25124 0.0
Co1161 Co 0.23006 0.84827 0.22551 0.0
C1162 C 0.21944 0.85274 0.17397 0.0
O1163 O 0.23958 0.87089 0.1725 0.0
N1164 N 0.23818 0.87907 0.2227 0.0
C1165 C 0.23398 0.90914 0.21673 0.0
C1166 C 0.22409 0.88613 0.21411 0.0
C1167 C 0.256 0.89813 0.23184 0.0
N1168 N 0.25399 0.91656 0.22797 0.0
O1169 O 0.20456 0.84338 0.24462 0.0
H1170 H 0.20716 0.87511 0.20722 0.0
H1171 H 0.26972 0.89868 0.24225 0.0
O1172 O 0.21289 0.8415 0.19412 0.0
C1173 C 0.21191 0.84784 0.26669 0.0
O1174 O 0.23334 0.85434 0.27065 0.0
N1175 N 0.25647 0.85288 0.20934 0.0
C1176 C 0.29785 0.85908 0.19215 0.0
C1177 C 0.27769 0.84541 0.17915 0.0
C1178 C 0.25708 0.84209 0.18838 0.0
C1179 C 0.27554 0.86446 0.22317 0.0
C1180 C 0.29645 0.86846 0.2146 0.0
H1181 H 0.24163 0.83032 0.17906 0.0
H1182 H 0.27442 0.86983 0.24151 0.0
H1183 H 0.18937 0.80146 0.21054 0.0
H1184 H 0.22332 0.77439 0.25034 0.0
H1185 H 0.22649 0.91943 0.21216 0.0
H1186 H 0.27769 0.83679 0.16242 0.0
H1187 H 0.3113 0.87869 0.22573 0.0
H1188 H 0.37034 0.20192 0.86434 0.0
H1189 H 0.28664 0.15624 0.98016 0.0
H1190 H 0.29936 0.18097 0.86053 0.0
H1191 H 0.35509 0.21211 0.98372 0.0
H1192 H 0.29252 0.15108 0.93644 0.0
H1193 H 0.36553 0.19114 0.90809 0.0
C1194 C 0.35359 0.19424 0.87243 0.0
C1195 C 0.33524 0.19257 0.85894 0.0
C1196 C 0.30646 0.16394 0.94709 0.0
C1197 C 0.32964 0.18001 0.90863 0.0
C1198 C 0.30317 0.16679 0.97201 0.0
C1199 C 0.32041 0.18469 0.98541 0.0
C1200 C 0.32726 0.17879 0.93581 0.0
C1201 C 0.34141 0.19813 0.97392 0.0
C1202 C 0.35091 0.18824 0.89739 0.0
C1203 C 0.31395 0.18267 0.87039 0.0
N1204 N 0.34421 0.19504 0.94972 0.0
N1205 N 0.31175 0.17695 0.89463 0.0
H1206 H 0.83571 0.121 0.98429 0.0
H1207 H 0.79244 0.16864 0.87473 0.0
H1208 H 0.78498 0.14046 0.99358 0.0
H1209 H 0.80643 0.11405 0.86574 0.0
H1210 H 0.80425 0.17205 0.91813 0.0
H1211 H 0.83937 0.13234 0.94071 0.0
C1212 C 0.826 0.12846 0.9774 0.0
C1213 C 0.80993 0.12972 0.99242 0.0
C1214 C 0.80539 0.15984 0.90638 0.0
C1215 C 0.81417 0.14283 0.94296 0.0
C1216 C 0.79883 0.158 0.88163 0.0
C1217 C 0.79842 0.14099 0.86676 0.0
C1218 C 0.81202 0.1449 0.91602 0.0
C1219 C 0.80651 0.12737 0.87669 0.0
C1220 C 0.82798 0.13476 0.95255 0.0
C1221 C 0.79752 0.1392 0.98252 0.0
N1222 N 0.81285 0.1295 0.90073 0.0
N1223 N 0.79978 0.14526 0.95838 0.0
H1224 H 0.82568 0.6176 0.87105 0.0
H1225 H 0.87192 0.71038 0.97885 0.0
H1226 H 0.87669 0.68739 0.86004 0.0
H1227 H 0.85578 0.6413 0.98932 0.0
H1228 H 0.85989 0.70158 0.93553 0.0
H1229 H 0.82301 0.62611 0.91461 0.0
C1230 C 0.83567 0.63486 0.87757 0.0
C1231 C 0.8515 0.65183 0.86204 0.0
C1232 C 0.85835 0.68822 0.94757 0.0
C1233 C 0.84843 0.66165 0.9115 0.0
C1234 C 0.86502 0.69318 0.97228 0.0
C1235 C 0.86479 0.6765 0.98756 0.0
C1236 C 0.85102 0.66636 0.93837 0.0
C1237 C 0.85614 0.65458 0.97805 0.0
C1238 C 0.83427 0.63965 0.90241 0.0
C1239 C 0.86431 0.67385 0.87149 0.0
N1240 N 0.84971 0.65015 0.95404 0.0
N1241 N 0.86261 0.67811 0.89563 0.0
H1242 H 0.1965 0.2956 0.55661 0.0
H1243 H 0.18539 0.38688 0.63729 0.0
H1244 H 0.17891 0.34269 0.525 0.0
H1245 H 0.19633 0.33457 0.66745 0.0
H1246 H 0.1783 0.3686 0.59694 0.0
H1247 H 0.19165 0.30687 0.59768 0.0
C1248 C 0.19114 0.30805 0.5584 0.0
C1249 C 0.18804 0.31821 0.53746 0.0
C1250 C 0.18196 0.36096 0.61245 0.0
C1251 C 0.18311 0.33184 0.58462 0.0
C1252 C 0.18599 0.37138 0.63557 0.0
C1253 C 0.19189 0.36251 0.65583 0.0
C1254 C 0.18388 0.34154 0.60948 0.0
C1255 C 0.19223 0.34228 0.65238 0.0
C1256 C 0.18846 0.31457 0.58189 0.0
C1257 C 0.18127 0.33435 0.54075 0.0
N1258 N 0.18858 0.33269 0.62965 0.0
N1259 N 0.17937 0.34096 0.56396 0.0
H1260 H 0.68926 0.88234 0.65532 0.0
H1261 H 0.6384 0.84901 0.5268 0.0
H1262 H 0.621 0.82693 0.64687 0.0
H1263 H 0.70896 0.87072 0.53772 0.0
H1264 H 0.63118 0.83813 0.57022 0.0
H1265 H 0.69746 0.8766 0.61291 0.0
C1266 C 0.67618 0.86856 0.64468 0.0
C1267 C 0.65442 0.85515 0.65449 0.0
C1268 C 0.64813 0.84462 0.563 0.0
C1269 C 0.66342 0.84897 0.60575 0.0
C1270 C 0.65224 0.85078 0.53823 0.0
C1271 C 0.6743 0.86082 0.52877 0.0
C1272 C 0.66637 0.84934 0.57863 0.0
C1273 C 0.6917 0.863 0.54434 0.0
C1274 C 0.68087 0.86527 0.62051 0.0
C1275 C 0.63802 0.8376 0.63996 0.0
N1276 N 0.6875 0.85794 0.56873 0.0
N1277 N 0.64266 0.8354 0.61604 0.0
H1278 H 0.12342 0.83549 0.53606 0.0
H1279 H 0.16767 0.79143 0.64783 0.0
H1280 H 0.14249 0.78433 0.52858 0.0
H1281 H 0.11303 0.80573 0.65393 0.0
H1282 H 0.17304 0.80413 0.60465 0.0
H1283 H 0.13456 0.83979 0.57971 0.0
C1284 C 0.1308 0.82584 0.54335 0.0
C1285 C 0.13188 0.80937 0.5289 0.0
C1286 C 0.16039 0.80515 0.61576 0.0
C1287 C 0.14477 0.81435 0.57837 0.0
C1288 C 0.15741 0.79805 0.64035 0.0
C1289 C 0.13976 0.79741 0.65425 0.0
C1290 C 0.14595 0.81209 0.60536 0.0
C1291 C 0.12672 0.80588 0.64367 0.0
C1292 C 0.137 0.8282 0.56823 0.0
C1293 C 0.14132 0.79712 0.53925 0.0
N1294 N 0.12995 0.81272 0.61978 0.0
N1295 N 0.14723 0.79969 0.56343 0.0
H1296 H 0.70752 0.83273 0.03714 0.0
H1297 H 0.61126 0.78501 0.14064 0.0
H1298 H 0.63939 0.77808 0.02556 0.0
H1299 H 0.68077 0.80458 0.15529 0.0
H1300 H 0.62144 0.79725 0.09768 0.0
H1301 H 0.69723 0.83671 0.0796 0.0
C1302 C 0.6902 0.82219 0.04328 0.0
C1303 C 0.67422 0.80504 0.02806 0.0
C1304 C 0.63457 0.79959 0.11056 0.0
C1305 C 0.66239 0.80958 0.07605 0.0
C1306 C 0.62882 0.79279 0.13505 0.0
C1307 C 0.64528 0.79393 0.15137 0.0
C1308 C 0.65694 0.80778 0.1026 0.0
C1309 C 0.66771 0.80364 0.14318 0.0
C1310 C 0.6844 0.82436 0.06744 0.0
C1311 C 0.65212 0.7915 0.03686 0.0
N1312 N 0.6729 0.81004 0.11925 0.0
N1313 N 0.64685 0.79396 0.06036 0.0
H1314 H 0.16185 0.86844 0.04136 0.0
H1315 H 0.22439 0.82913 0.13703 0.0
H1316 H 0.21832 0.85898 0.02467 0.0
H1317 H 0.18578 0.86047 0.15888 0.0
H1318 H 0.21102 0.82672 0.0947 0.0
H1319 H 0.15993 0.85295 0.08288 0.0
C1320 C 0.17325 0.8623 0.04616 0.0
C1321 C 0.19028 0.86491 0.02977 0.0
C1322 C 0.20491 0.83354 0.10885 0.0
C1323 C 0.18831 0.84745 0.07683 0.0
C1324 C 0.21236 0.8347 0.13301 0.0
C1325 C 0.20594 0.8448 0.15132 0.0
C1326 C 0.19127 0.84294 0.10292 0.0
C1327 C 0.19081 0.8523 0.14519 0.0
C1328 C 0.17229 0.85367 0.06984 0.0
C1329 C 0.20496 0.85717 0.03689 0.0
N1330 N 0.18422 0.85154 0.12136 0.0
N1331 N 0.20376 0.84895 0.05993 0.0
H1332 H 0.12427 0.32761 0.01846 0.0
H1333 H 0.15088 0.32959 0.16298 0.0
H1334 H 0.14224 0.28125 0.05169 0.0
H1335 H 0.1191 0.36393 0.12931 0.0
H1336 H 0.15491 0.31672 0.12172 0.0
H1337 H 0.12965 0.34627 0.05822 0.0
C1338 C 0.12953 0.32144 0.03404 0.0
C1339 C 0.13239 0.30253 0.0317 0.0
C1340 C 0.14729 0.32729 0.12344 0.0
C1341 C 0.13862 0.32393 0.07757 0.0
C1342 C 0.14512 0.33471 0.14692 0.0
C1343 C 0.1344 0.34759 0.14956 0.0
C1344 C 0.13898 0.33314 0.10259 0.0
C1345 C 0.12716 0.35372 0.12818 0.0
C1346 C 0.13259 0.33212 0.05681 0.0
C1347 C 0.1396 0.29561 0.05261 0.0
N1348 N 0.1295 0.3464 0.10574 0.0
N1349 N 0.14224 0.30615 0.0747 0.0
H1350 H 0.79637 0.66499 0.50314 0.0
H1351 H 0.82005 0.66633 0.35824 0.0
H1352 H 0.85864 0.71517 0.46911 0.0
H1353 H 0.75593 0.62366 0.39373 0.0
H1354 H 0.83736 0.6801 0.39916 0.0
H1355 H 0.78429 0.64527 0.46383 0.0
C1356 C 0.80764 0.67176 0.48748 0.0
C1357 C 0.82842 0.69199 0.48944 0.0
C1358 C 0.81958 0.66747 0.39792 0.0
C1359 C 0.81456 0.66948 0.44404 0.0
C1360 C 0.80979 0.65953 0.37463 0.0
C1361 C 0.78653 0.64406 0.37268 0.0
C1362 C 0.80597 0.65961 0.41921 0.0
C1363 C 0.77388 0.63585 0.39442 0.0
C1364 C 0.80071 0.66049 0.46495 0.0
C1365 C 0.84238 0.69974 0.46845 0.0
N1366 N 0.7837 0.6438 0.41666 0.0
N1367 N 0.83509 0.68864 0.44655 0.0
H1368 H 0.33187 0.13013 0.49932 0.0
H1369 H 0.33566 0.15364 0.35399 0.0
H1370 H 0.28229 0.14145 0.46246 0.0
H1371 H 0.37582 0.13017 0.3915 0.0
H1372 H 0.3204 0.15662 0.39417 0.0
H1373 H 0.35266 0.13759 0.46071 0.0
C1374 C 0.32541 0.13436 0.48316 0.0
C1375 C 0.30504 0.13474 0.48413 0.0
C1376 C 0.3328 0.15113 0.39356 0.0
C1377 C 0.32887 0.14333 0.43958 0.0
C1378 C 0.3416 0.1496 0.37068 0.0
C1379 C 0.35684 0.14145 0.36946 0.0
C1380 C 0.33956 0.14473 0.41521 0.0
C1381 C 0.36388 0.13626 0.39159 0.0
C1382 C 0.33732 0.13863 0.46105 0.0
C1383 C 0.2978 0.14075 0.46258 0.0
N1384 N 0.35514 0.13787 0.41343 0.0
N1385 N 0.30955 0.14455 0.44113 0.0
H1386 H 0.83974 0.1729 0.49648 0.0
H1387 H 0.86371 0.20049 0.35224 0.0
H1388 H 0.90505 0.20054 0.46159 0.0
H1389 H 0.80054 0.18522 0.3866 0.0
H1390 H 0.87645 0.1931 0.39129 0.0
H1391 H 0.82256 0.17007 0.45562 0.0
C1392 C 0.85034 0.17794 0.48021 0.0
C1393 C 0.87384 0.1872 0.48237 0.0
C1394 C 0.85971 0.19118 0.39029 0.0
C1395 C 0.85452 0.18404 0.43589 0.0
C1396 C 0.8524 0.19538 0.36792 0.0
C1397 C 0.83114 0.19384 0.36614 0.0
C1398 C 0.84574 0.18541 0.41121 0.0
C1399 C 0.81716 0.18684 0.38713 0.0
C1400 C 0.84061 0.17647 0.45697 0.0
C1401 C 0.88689 0.1936 0.46078 0.0
N1402 N 0.82479 0.18312 0.40886 0.0
N1403 N 0.8771 0.19201 0.43857 0.0
H1404 H 0.95013 0.49146 0.31402 0.0
H1405 H 0.03787 0.53314 0.20186 0.0
H1406 H 0.02063 0.54216 0.32078 0.0
H1407 H 0.96909 0.51936 0.19556 0.0
H1408 H 0.03061 0.52107 0.24519 0.0
H1409 H 0.9566 0.48651 0.27045 0.0
C1410 C 0.96712 0.50089 0.30659 0.0
C1411 C 0.98487 0.51742 0.32082 0.0
C1412 C 0.01695 0.52003 0.23402 0.0
C1413 C 0.99236 0.51167 0.27144 0.0
C1414 C 0.02103 0.52678 0.20933 0.0
C1415 C 0.00409 0.52748 0.19532 0.0
C1416 C 0.99567 0.51346 0.24443 0.0
C1417 C 0.98262 0.51924 0.2059 0.0
C1418 C 0.97076 0.49816 0.28176 0.0
C1419 C 0.00651 0.52937 0.31029 0.0
N1420 N 0.97905 0.51275 0.2299 0.0
N1421 N 0.00964 0.52641 0.28616 0.0
H1422 H 0.42107 0.46903 0.21993 0.0
H1423 H 0.52417 0.47637 0.29644 0.0
H1424 H 0.48514 0.48698 0.18639 0.0
H1425 H 0.46193 0.4659 0.32904 0.0
H1426 H 0.51238 0.48449 0.25698 0.0
H1427 H 0.43772 0.47224 0.26048 0.0
C1428 C 0.43885 0.47407 0.22119 0.0
C1429 C 0.45176 0.47772 0.19982 0.0
C1430 C 0.50142 0.48068 0.27283 0.0
C1431 C 0.47093 0.48085 0.24638 0.0
C1432 C 0.50815 0.47605 0.29545 0.0
C1433 C 0.49385 0.47001 0.31614 0.0
C1434 C 0.4802 0.47922 0.27076 0.0
C1435 C 0.47337 0.47006 0.3136 0.0
C1436 C 0.44836 0.47584 0.24439 0.0
C1437 C 0.47468 0.48419 0.20247 0.0
N1438 N 0.46708 0.4743 0.29134 0.0
N1439 N 0.48348 0.48519 0.22536 0.0
H1440 H 0.54368 0.02406 0.19127 0.0
H1441 H 0.51439 0.96627 0.31729 0.0
H1442 H 0.49096 0.95431 0.19717 0.0
H1443 H 0.53375 0.03665 0.31155 0.0
H1444 H 0.50316 0.96101 0.2739 0.0
H1445 H 0.53833 0.02962 0.23474 0.0
C1446 C 0.53048 0.01008 0.20159 0.0
C1447 C 0.5178 0.98869 0.19066 0.0
C1448 C 0.50923 0.97747 0.28225 0.0
C1449 C 0.5122 0.99468 0.24068 0.0
C1450 C 0.51559 0.98046 0.30703 0.0
C1451 C 0.52499 0.00191 0.31797 0.0
C1452 C 0.5131 0.99626 0.26804 0.0
C1453 C 0.52648 0.01982 0.30382 0.0
C1454 C 0.52746 0.01325 0.22641 0.0
C1455 C 0.50107 0.97109 0.20488 0.0
N1456 N 0.52121 0.01675 0.27937 0.0
N1457 N 0.49919 0.9743 0.22937 0.0
H1458 H 0.48574 0.00429 0.68814 0.0
H1459 H 0.46486 0.00181 0.83366 0.0
H1460 H 0.42547 0.95457 0.72542 0.0
H1461 H 0.5126 0.06127 0.79359 0.0
H1462 H 0.45803 0.97927 0.79605 0.0
H1463 H 0.50307 0.0201 0.72847 0.0
C1464 C 0.47649 0.99629 0.70483 0.0
C1465 C 0.45416 0.97827 0.7036 0.0
C1466 C 0.47042 0.99716 0.79568 0.0
C1467 C 0.47362 0.99613 0.74949 0.0
C1468 C 0.47447 0.00996 0.81719 0.0
C1469 C 0.48914 0.03344 0.81661 0.0
C1470 C 0.48126 0.00793 0.77358 0.0
C1471 C 0.50095 0.04321 0.79469 0.0
C1472 C 0.48625 0.00538 0.72779 0.0
C1473 C 0.4427 0.96863 0.72569 0.0
N1474 N 0.49657 0.03049 0.77398 0.0
N1475 N 0.45246 0.97778 0.74769 0.0
H1476 H 0.97724 0.45434 0.69479 0.0
H1477 H 0.02561 0.47186 0.82286 0.0
H1478 H 0.04699 0.50505 0.70655 0.0
H1479 H 0.95784 0.46036 0.81421 0.0
H1480 H 0.03438 0.48664 0.7808 0.0
H1481 H 0.96894 0.45854 0.73774 0.0
C1482 C 0.99058 0.46703 0.70622 0.0
C1483 C 0.01276 0.47946 0.69725 0.0
C1484 C 0.01778 0.48154 0.7883 0.0
C1485 C 0.00373 0.48353 0.7465 0.0
C1486 C 0.0128 0.4731 0.81226 0.0
C1487 C 0.99101 0.4649 0.82184 0.0
C1488 C 0.00056 0.48088 0.77353 0.0
C1489 C 0.97487 0.46661 0.8074 0.0
C1490 C 0.98589 0.46936 0.73072 0.0
C1491 C 0.02964 0.49528 0.71283 0.0
N1492 N 0.97976 0.47381 0.78362 0.0
N1493 N 0.02493 0.49641 0.73697 0.0
H1494 H 0.53098 0.53375 0.82971 0.0
H1495 H 0.50564 0.50862 0.68508 0.0
H1496 H 0.51467 0.46981 0.79669 0.0
H1497 H 0.53511 0.57458 0.71872 0.0
H1498 H 0.50159 0.49185 0.72643 0.0
H1499 H 0.52511 0.54659 0.78989 0.0
C1500 C 0.52598 0.52231 0.81416 0.0
C1501 C 0.52374 0.50079 0.81658 0.0
C1502 C 0.50867 0.50996 0.72469 0.0
C1503 C 0.51696 0.51546 0.77063 0.0
C1504 C 0.51083 0.51947 0.70116 0.0
C1505 C 0.52093 0.54302 0.6985 0.0
C1506 C 0.5164 0.52414 0.74556 0.0
C1507 C 0.52751 0.55637 0.71989 0.0
C1508 C 0.52263 0.52966 0.79135 0.0
C1509 C 0.51683 0.48663 0.79572 0.0
N1510 N 0.52523 0.54679 0.74238 0.0
N1511 N 0.51392 0.49428 0.77358 0.0
H1512 H 0.39955 0.39665 0.07278 0.0
H1513 H 0.32831 0.26621 0.10581 0.0
H1514 H 0.39657 0.37352 0.14715 0.0
H1515 H 0.37201 0.289 0.04236 0.0
H1516 H 0.34404 0.30586 0.11884 0.0
H1517 H 0.37991 0.35696 0.0586 0.0
C1518 C 0.39435 0.38309 0.08605 0.0
C1519 C 0.39948 0.38798 0.11104 0.0
C1520 C 0.35002 0.3021 0.10199 0.0
C1521 C 0.37708 0.34322 0.09531 0.0
C1522 C 0.34105 0.27966 0.09457 0.0
C1523 C 0.34907 0.27462 0.07313 0.0
C1524 C 0.36658 0.31947 0.08743 0.0
C1525 C 0.36565 0.29242 0.05911 0.0
C1526 C 0.38338 0.36065 0.07804 0.0
C1527 C 0.39279 0.37013 0.12773 0.0
N1528 N 0.37382 0.31419 0.06641 0.0
N1529 N 0.38176 0.34841 0.1196 0.0
H1530 H 0.72467 0.10503 0.10335 0.0
H1531 H 0.60577 0.99023 0.09111 0.0
H1532 H 0.71695 0.04586 0.06573 0.0
H1533 H 0.61406 0.05215 0.12211 0.0
H1534 H 0.64674 0.009 0.08442 0.0
H1535 H 0.68444 0.08469 0.11293 0.0
C1536 C 0.7145 0.08777 0.097 0.0
C1537 C 0.7242 0.07723 0.08347 0.0
C1538 C 0.63957 0.01844 0.09273 0.0
C1539 C 0.67797 0.05365 0.09464 0.0
C1540 C 0.61622 0.0077 0.09668 0.0
C1541 C 0.60647 0.01969 0.10706 0.0
C1542 C 0.65325 0.04128 0.09933 0.0
C1543 C 0.62078 0.04238 0.11368 0.0
C1544 C 0.6915 0.07609 0.1026 0.0
C1545 C 0.71022 0.0546 0.07629 0.0
N1546 N 0.64341 0.05242 0.10968 0.0
N1547 N 0.68776 0.04358 0.08186 0.0
H1548 H 0.9469 0.67296 0.09172 0.0
H1549 H 0.95233 0.55898 0.07813 0.0
H1550 H 0.89793 0.61371 0.05213 0.0
H1551 H 0.00021 0.61586 0.12157 0.0
H1552 H 0.9341 0.58032 0.06597 0.0
H1553 H 0.96872 0.65402 0.10017 0.0
C1554 C 0.94086 0.65607 0.08461 0.0
C1555 C 0.92046 0.6448 0.07139 0.0
C1556 C 0.94862 0.58823 0.07812 0.0
C1557 C 0.94518 0.62303 0.08109 0.0
C1558 C 0.95897 0.57596 0.0852 0.0
C1559 C 0.97765 0.58554 0.10115 0.0
C1560 C 0.95691 0.61029 0.08709 0.0
C1561 C 0.98588 0.60787 0.10919 0.0
C1562 C 0.95324 0.64523 0.08955 0.0
C1563 C 0.91331 0.62286 0.06279 0.0
N1564 N 0.97535 0.61946 0.10221 0.0
N1565 N 0.92561 0.6127 0.06785 0.0
H1566 H 0.26826 0.32336 0.41987 0.0
H1567 H 0.39786 0.4211 0.42953 0.0
H1568 H 0.29082 0.38007 0.46935 0.0
H1569 H 0.36965 0.37653 0.36709 0.0
H1570 H 0.35998 0.40327 0.44821 0.0
H1571 H 0.30687 0.33953 0.40424 0.0
C1572 C 0.28141 0.33909 0.42764 0.0
C1573 C 0.27638 0.35044 0.44589 0.0
C1574 C 0.36215 0.39744 0.43042 0.0
C1575 C 0.32051 0.36913 0.42799 0.0
C1576 C 0.3837 0.40751 0.41985 0.0
C1577 C 0.38677 0.40038 0.39669 0.0
C1578 C 0.34371 0.37992 0.41783 0.0
C1579 C 0.36792 0.38278 0.38479 0.0
C1580 C 0.30339 0.34841 0.41858 0.0
C1581 C 0.29401 0.37096 0.45506 0.0
N1582 N 0.34721 0.37312 0.39552 0.0
N1583 N 0.31535 0.37967 0.44602 0.0
H1584 H 0.66404 0.94358 0.45435 0.0
H1585 H 0.55477 0.93392 0.38785 0.0
H1586 H 0.61392 0.88382 0.41631 0.0
H1587 H 0.60652 0.99508 0.42223 0.0
H1588 H 0.57637 0.91532 0.39814 0.0
H1589 H 0.64361 0.96303 0.44235 0.0
C1590 C 0.64885 0.93459 0.44334 0.0
C1591 C 0.64065 0.91198 0.43643 0.0
C1592 C 0.58305 0.93284 0.40338 0.0
C1593 C 0.61704 0.93404 0.42287 0.0
C1594 C 0.57065 0.94342 0.39762 0.0
C1595 C 0.57883 0.96607 0.40421 0.0
C1596 C 0.60375 0.94497 0.41593 0.0
C1597 C 0.5997 0.97769 0.41653 0.0
C1598 C 0.63712 0.94566 0.43661 0.0
C1599 C 0.62068 0.90109 0.42244 0.0
N1600 N 0.6114 0.96697 0.42207 0.0
N1601 N 0.60955 0.91221 0.41616 0.0
H1602 H 0.99353 0.61171 0.3942 0.0
H1603 H 0.10198 0.71342 0.45934 0.0
H1604 H 0.04511 0.60416 0.43195 0.0
H1605 H 0.04879 0.72118 0.42603 0.0
H1606 H 0.08103 0.67318 0.44952 0.0
H1607 H 0.01296 0.65164 0.40606 0.0
C1608 C 0.00883 0.61837 0.4051 0.0
C1609 C 0.01774 0.60453 0.41197 0.0
C1610 C 0.07387 0.68364 0.4444 0.0
C1611 C 0.04017 0.65026 0.42538 0.0
C1612 C 0.08591 0.70666 0.44989 0.0
C1613 C 0.07719 0.72072 0.4434 0.0
C1614 C 0.05295 0.67454 0.4322 0.0
C1615 C 0.05605 0.71094 0.43157 0.0
C1616 C 0.01997 0.64121 0.41177 0.0
C1617 C 0.0378 0.61421 0.42584 0.0
N1618 N 0.0447 0.68845 0.42623 0.0
N1619 N 0.04834 0.63644 0.43203 0.0
H1620 H 0.577 0.59518 0.93103 0.0
H1621 H 0.67762 0.72369 0.91953 0.0
H1622 H 0.62479 0.62042 0.87107 0.0
H1623 H 0.6191 0.70347 0.96566 0.0
H1624 H 0.6621 0.68427 0.90683 0.0
H1625 H 0.5958 0.63337 0.94904 0.0
C1626 C 0.59156 0.60873 0.92182 0.0
C1627 C 0.59922 0.60479 0.89942 0.0
C1628 C 0.65272 0.68845 0.91985 0.0
C1629 C 0.62078 0.64821 0.91981 0.0
C1630 C 0.66166 0.7109 0.92724 0.0
C1631 C 0.64954 0.71685 0.94353 0.0
C1632 C 0.63161 0.67179 0.92897 0.0
C1633 C 0.62879 0.69961 0.95276 0.0
C1634 C 0.60219 0.63047 0.93199 0.0
C1635 C 0.6181 0.62287 0.88812 0.0
N1636 N 0.62044 0.67785 0.94531 0.0
N1637 N 0.62823 0.64379 0.89842 0.0
H1638 H 0.26774 0.95148 0.92029 0.0
H1639 H 0.39751 0.98262 0.92642 0.0
H1640 H 0.2904 0.91299 0.96259 0.0
H1641 H 0.37083 0.00886 0.87167 0.0
H1642 H 0.35934 0.96018 0.94378 0.0
H1643 H 0.30658 0.97615 0.9063 0.0
C1644 C 0.28093 0.94837 0.92685 0.0
C1645 C 0.27583 0.93012 0.94256 0.0
C1646 C 0.36188 0.97087 0.92797 0.0
C1647 C 0.32029 0.95815 0.92648 0.0
C1648 C 0.38364 0.98373 0.91816 0.0
C1649 C 0.38727 0.99745 0.89747 0.0
C1650 C 0.34374 0.972 0.91716 0.0
C1651 C 0.36871 -0.0018 0.88735 0.0
C1652 C 0.30307 0.96235 0.91871 0.0
C1653 C 0.29357 0.9267 0.95022 0.0
N1654 N 0.34777 0.98568 0.89731 0.0
N1655 N 0.31504 0.94059 0.9421 0.0
H1656 H 0.08337 0.34728 0.91936 0.0
H1657 H 0.98307 0.37589 0.92804 0.0
H1658 H 0.0322 0.32154 0.97595 0.0
H1659 H 0.04464 0.41717 0.88743 0.0
H1660 H -0.00238 0.35101 0.9401 0.0
H1661 H 0.06618 0.36847 0.9019 0.0
C1662 C 0.06841 0.34596 0.92793 0.0
C1663 C 0.05931 0.3329 0.94924 0.0
C1664 C 0.0079 0.36545 0.92844 0.0
C1665 C 0.03958 0.3568 0.92948 0.0
C1666 C -0.00047 0.37955 0.92141 0.0
C1667 C 0.01274 0.39869 0.90685 0.0
C1668 C 0.02955 0.3704 0.92068 0.0
C1669 C 0.03408 0.40277 0.89899 0.0
C1670 C 0.0587 0.35808 0.91809 0.0
C1671 C 0.03996 0.33174 0.95976 0.0
N1672 N 0.04187 0.38876 0.90604 0.0
N1673 N 0.03075 0.34354 0.94978 0.0
H1674 H 0.62476 0.58494 0.63812 0.0
H1675 H 0.70663 0.67227 0.53696 0.0
H1676 H 0.60311 0.61656 0.58412 0.0
H1677 H 0.73139 0.65143 0.59895 0.0
H1678 H 0.66847 0.6515 0.55394 0.0
H1679 H 0.66388 0.60869 0.62414 0.0
C1680 C 0.62826 0.59692 0.62337 0.0
C1681 C 0.61066 0.59873 0.61222 0.0
C1682 C 0.68223 0.65153 0.56394 0.0
C1683 C 0.65527 0.62593 0.59615 0.0
C1684 C 0.704 0.66326 0.55415 0.0
C1685 C 0.72214 0.66339 0.56648 0.0
C1686 C 0.67848 0.63962 0.58613 0.0
C1687 C 0.71785 0.6518 0.58895 0.0
C1688 C 0.65058 0.61055 0.61549 0.0
C1689 C 0.61615 0.61474 0.5934 0.0
N1690 N 0.69639 0.6402 0.59798 0.0
N1691 N 0.63794 0.62759 0.58584 0.0
H1692 H 0.40648 0.03723 0.64475 0.0
H1693 H 0.32818 0.03668 0.53541 0.0
H1694 H 0.37936 0.9864 0.58778 0.0
H1695 H 0.34395 0.07965 0.59919 0.0
H1696 H 0.34715 0.01829 0.55445 0.0
H1697 H 0.38389 0.05319 0.6287 0.0
C1698 C 0.3957 0.02939 0.62893 0.0
C1699 C 0.39487 0.01053 0.61752 0.0
C1700 C 0.34641 0.03166 0.56438 0.0
C1701 C 0.36902 0.02865 0.59906 0.0
C1702 C 0.33573 0.0423 0.55342 0.0
C1703 C 0.33472 0.05988 0.56565 0.0
C1704 C 0.35637 0.03877 0.5877 0.0
C1705 C 0.34434 0.06613 0.5892 0.0
C1706 C 0.38273 0.03842 0.61986 0.0
C1707 C 0.38038 0.00081 0.59728 0.0
N1708 N 0.35496 0.05571 0.5994 0.0
N1709 N 0.36819 0.01011 0.58857 0.0
H1710 H 0.00445 0.3959 0.57971 0.0
H1711 H 0.93321 0.2645 0.61005 0.0
H1712 H 0.96519 0.37168 0.64628 0.0
H1713 H 0.93301 0.29021 0.5377 0.0
H1714 H 0.95531 0.30371 0.62533 0.0
H1715 H 0.98843 0.35652 0.56564 0.0
C1716 C 0.99275 0.3822 0.59147 0.0
C1717 C 0.98595 0.38675 0.61405 0.0
C1718 C 0.95064 0.30067 0.60606 0.0
C1719 C 0.96806 0.34221 0.59848 0.0
C1720 C 0.93824 0.27849 0.5974 0.0
C1721 C 0.93143 0.27447 0.57272 0.0
C1722 C 0.95664 0.3187 0.58968 0.0
C1723 C 0.938 0.2929 0.55688 0.0
C1724 C 0.9836 0.3599 0.58345 0.0
C1725 C 0.97061 0.36863 0.62867 0.0
N1726 N 0.95037 0.31433 0.56561 0.0
N1727 N 0.96218 0.34702 0.62067 0.0
H1728 H 0.93362 0.70826 0.7464 0.0
H1729 H 0.05259 0.71202 0.75583 0.0
H1730 H 0.94223 0.658 0.78551 0.0
H1731 H 0.04287 0.7632 0.72054 0.0
H1732 H 0.01185 0.69019 0.76423 0.0
H1733 H 0.97327 0.72699 0.73441 0.0
C1734 C 0.94389 0.7012 0.75256 0.0
C1735 C 0.93463 0.68167 0.76723 0.0
C1736 C 0.01865 0.70616 0.75456 0.0
C1737 C 0.98019 0.70297 0.75332 0.0
C1738 C 0.04187 0.71855 0.74965 0.0
C1739 C 0.05116 0.73956 0.73765 0.0
C1740 C 0.00467 0.71482 0.74732 0.0
C1741 C 0.03651 0.74732 0.73024 0.0
C1742 C 0.96654 0.71184 0.74557 0.0
C1743 C 0.94865 0.67297 0.77412 0.0
N1744 N 0.01405 0.735 0.73525 0.0
N1745 N 0.9708 0.68377 0.76723 0.0
H1746 H 0.2739 0.23447 0.79038 0.0
H1747 H 0.28849 0.3353 0.70514 0.0
H1748 H 0.33671 0.28069 0.75446 0.0
H1749 H 0.23804 0.30834 0.76241 0.0
H1750 H 0.30473 0.31301 0.72096 0.0
H1751 H 0.25854 0.25892 0.77844 0.0
C1752 C 0.28442 0.24977 0.78004 0.0
C1753 C 0.30657 0.2556 0.77337 0.0
C1754 C 0.29019 0.31203 0.73021 0.0
C1755 C 0.28922 0.28342 0.75963 0.0
C1756 C 0.28086 0.32462 0.72109 0.0
C1757 C 0.26186 0.32347 0.73245 0.0
C1758 C 0.28023 0.29785 0.75061 0.0
C1759 C 0.25276 0.30966 0.75327 0.0
C1760 C 0.27575 0.26375 0.7734 0.0
C1761 C 0.31965 0.2757 0.76018 0.0
N1762 N 0.26188 0.29712 0.76158 0.0
N1763 N 0.3107 0.28877 0.75355 0.0
H1764 H 0.71222 0.05605 0.76345 0.0
H1765 H 0.70628 0.93613 0.77255 0.0
H1766 H 0.76146 0.04459 0.80077 0.0
H1767 H 0.6581 0.94622 0.73098 0.0
H1768 H 0.72463 0.97538 0.78583 0.0
H1769 H 0.68993 0.01543 0.75437 0.0
C1770 C 0.71821 0.04496 0.76994 0.0
C1771 C 0.73883 0.05371 0.78266 0.0
C1772 C 0.71001 0.96908 0.77385 0.0
C1773 C 0.7136 0.00743 0.77226 0.0
C1774 C 0.6996 0.94665 0.76613 0.0
C1775 C 0.68081 0.93796 0.75035 0.0
C1776 C 0.70169 0.98308 0.7657 0.0
C1777 C 0.67252 0.95226 0.74318 0.0
C1778 C 0.70557 0.02183 0.76465 0.0
C1779 C 0.7459 0.03864 0.7905 0.0
N1780 N 0.68314 0.97421 0.75076 0.0
N1781 N 0.73337 0.0163 0.7851 0.0
H1782 H 0.33842 0.06091 0.24536 0.0
H1783 H 0.2726 0.92869 0.27323 0.0
H1784 H 0.3073 0.03414 0.31569 0.0
H1785 H 0.26796 0.95535 0.20293 0.0
H1786 H 0.29471 0.96757 0.28911 0.0
H1787 H 0.32174 0.02206 0.22945 0.0
C1788 C 0.32835 0.04678 0.25748 0.0
C1789 C 0.32407 0.05049 0.28177 0.0
C1790 C 0.28902 0.96484 0.27015 0.0
C1791 C 0.30536 0.00647 0.26399 0.0
C1792 C 0.27661 0.9428 0.2611 0.0
C1793 C 0.26855 0.93906 0.23683 0.0
C1794 C 0.29375 0.9831 0.25459 0.0
C1795 C 0.27386 0.95775 0.22179 0.0
C1796 C 0.31879 0.02476 0.24842 0.0
C1797 C 0.31076 0.03178 0.29681 0.0
N1798 N 0.28624 0.97906 0.23089 0.0
N1799 N 0.30189 0.01048 0.2877 0.0
H1800 H 0.03071 0.28818 0.21131 0.0
H1801 H 0.95166 0.29568 0.3147 0.0
H1802 H 0.0542 0.34171 0.26516 0.0
H1803 H 0.92534 0.24898 0.25379 0.0
H1804 H 0.98938 0.31272 0.29659 0.0
H1805 H 0.99198 0.27348 0.22623 0.0
C1806 C 0.0277 0.29686 0.22622 0.0
C1807 C 0.04571 0.31614 0.23707 0.0
C1808 C 0.97537 0.29882 0.28707 0.0
C1809 C 0.00151 0.29947 0.25422 0.0
C1810 C 0.95385 0.28899 0.29751 0.0
C1811 C 0.9354 0.27076 0.28583 0.0
C1812 C 0.97855 0.29025 0.26487 0.0
C1813 C 0.93911 0.26306 0.26332 0.0
C1814 C 0.00559 0.28855 0.23464 0.0
C1815 C 0.04083 0.32694 0.2561 0.0
N1816 N 0.96033 0.27272 0.25365 0.0
N1817 N 0.01922 0.31835 0.26419 0.0
H1818 H 0.7249 0.68946 0.31849 0.0
H1819 H 0.69071 0.73428 0.20417 0.0
H1820 H 0.72448 0.66237 0.24676 0.0
H1821 H 0.65289 0.72106 0.27156 0.0
H1822 H 0.70675 0.7113 0.2194 0.0
H1823 H 0.70172 0.70489 0.30222 0.0
C1824 C 0.71971 0.68668 0.29936 0.0
C1825 C 0.72643 0.67473 0.28384 0.0
C1826 C 0.69467 0.71316 0.23066 0.0
C1827 C 0.70059 0.6925 0.26513 0.0
C1828 C 0.68566 0.72626 0.22206 0.0
C1829 C 0.67054 0.72937 0.23671 0.0
C1830 C 0.689 0.7038 0.25436 0.0
C1831 C 0.6644 0.7188 0.25977 0.0
C1832 C 0.70647 0.69531 0.29016 0.0
C1833 C 0.71941 0.67142 0.2592 0.0
N1834 N 0.674 0.70677 0.26815 0.0
N1835 N 0.70714 0.68063 0.25042 0.0
H1836 H 0.32634 0.15711 0.10293 0.0
H1837 H 0.33387 0.16344 0.25081 0.0
H1838 H 0.29403 0.1852 0.1476 0.0
H1839 H 0.36057 0.13009 0.20567 0.0
H1840 H 0.31897 0.17171 0.21337 0.0
H1841 H 0.33946 0.14748 0.14066 0.0
C1842 C 0.32202 0.16125 0.12062 0.0
C1843 C 0.30907 0.17196 0.12206 0.0
C1844 C 0.32803 0.16249 0.21176 0.0
C1845 C 0.32398 0.16103 0.16532 0.0
C1846 C 0.33645 0.15772 0.23313 0.0
C1847 C 0.34856 0.14615 0.23142 0.0
C1848 C 0.33182 0.15566 0.1886 0.0
C1849 C 0.35146 0.13919 0.20797 0.0
C1850 C 0.32946 0.15573 0.14218 0.0
C1851 C 0.30395 0.17692 0.14554 0.0
N1852 N 0.34328 0.14413 0.18758 0.0
N1853 N 0.31143 0.17146 0.16618 0.0
H1854 H 0.83866 0.16267 0.10602 0.0
H1855 H 0.83749 0.16846 0.25382 0.0
H1856 H 0.82419 0.10616 0.15332 0.0
H1857 H 0.85401 0.22517 0.20595 0.0
H1858 H 0.83454 0.14572 0.21742 0.0
H1859 H 0.84652 0.18648 0.14265 0.0
C1860 C 0.83733 0.15533 0.12405 0.0
C1861 C 0.83064 0.13237 0.12656 0.0
C1862 C 0.83894 0.1632 0.21496 0.0
C1863 C 0.83941 0.1594 0.16861 0.0
C1864 C 0.84065 0.17616 0.23574 0.0
C1865 C 0.84584 0.19869 0.23296 0.0
C1866 C 0.84244 0.17287 0.19129 0.0
C1867 C 0.84977 0.20782 0.20905 0.0
C1868 C 0.84176 0.16888 0.14499 0.0
C1869 C 0.82916 0.12374 0.15045 0.0
N1870 N 0.84789 0.19489 0.18922 0.0
N1871 N 0.83336 0.13719 0.17049 0.0
H1872 H 0.82928 0.66818 0.2526 0.0
H1873 H 0.82872 0.67064 0.10447 0.0
H1874 H 0.76879 0.63381 0.20822 0.0
H1875 H 0.88878 0.7085 0.14876 0.0
H1876 H 0.80628 0.65718 0.14243 0.0
H1877 H 0.85152 0.68364 0.21475 0.0
C1878 C 0.82069 0.66399 0.23499 0.0
C1879 C 0.79717 0.64963 0.23364 0.0
C1880 C 0.82438 0.6685 0.14378 0.0
C1881 C 0.82238 0.66708 0.1903 0.0
C1882 C 0.83716 0.67617 0.12211 0.0
C1883 C 0.86065 0.69067 0.12338 0.0
C1884 C 0.83521 0.67534 0.16685 0.0
C1885 C 0.87071 0.69729 0.1468 0.0
C1886 C 0.83335 0.67277 0.21337 0.0
C1887 C 0.7869 0.64473 0.21025 0.0
N1888 N 0.85798 0.68955 0.16753 0.0
N1889 N 0.79953 0.65334 0.18959 0.0
H1890 H 0.1891 0.29495 0.37397 0.0
H1891 H 0.12731 0.35645 0.31345 0.0
H1892 H 0.15781 0.32549 0.41632 0.0
H1893 H 0.16295 0.33074 0.27071 0.0
H1894 H 0.13686 0.34359 0.35086 0.0
H1895 H 0.17863 0.30661 0.33618 0.0
C1896 C 0.18001 0.30415 0.37539 0.0
C1897 C 0.17432 0.30923 0.3985 0.0
C1898 C 0.14259 0.34067 0.33337 0.0
C1899 C 0.16217 0.32263 0.35489 0.0
C1900 C 0.13712 0.34799 0.31185 0.0
C1901 C 0.14443 0.34478 0.28875 0.0
C1902 C 0.15553 0.32996 0.33203 0.0
C1903 C 0.15694 0.33356 0.28805 0.0
C1904 C 0.17404 0.3108 0.35368 0.0
C1905 C 0.16258 0.32123 0.39898 0.0
N1906 N 0.16217 0.32661 0.30941 0.0
N1907 N 0.15687 0.32748 0.3775 0.0
H1908 H 0.67149 0.83102 0.41517 0.0
H1909 H 0.66647 0.82914 0.26736 0.0
H1910 H 0.71605 0.8879 0.36957 0.0
H1911 H 0.62315 0.77222 0.3136 0.0
H1912 H 0.68575 0.85084 0.30447 0.0
H1913 H 0.65475 0.80859 0.37789 0.0
C1914 C 0.67792 0.8387 0.39736 0.0
C1915 C 0.6951 0.86138 0.39549 0.0
C1916 C 0.67203 0.83357 0.30642 0.0
C1917 C 0.67589 0.83598 0.35276 0.0
C1918 C 0.661 0.82124 0.28526 0.0
C1919 C 0.64315 0.79888 0.28736 0.0
C1920 C 0.6651 0.82342 0.32977 0.0
C1921 C 0.63681 0.78942 0.31103 0.0
C1922 C 0.6683 0.82595 0.37605 0.0
C1923 C 0.70273 0.87051 0.3719 0.0
N1924 N 0.64773 0.80172 0.33124 0.0
N1925 N 0.693 0.85784 0.35148 0.0
H1926 H 0.16233 0.83836 0.41498 0.0
H1927 H 0.16589 0.83212 0.26757 0.0
H1928 H 0.10357 0.81653 0.36858 0.0
H1929 H 0.22489 0.85828 0.3144 0.0
H1930 H 0.14266 0.82716 0.30415 0.0
H1931 H 0.18575 0.84683 0.378 0.0
C1932 C 0.15439 0.8355 0.39705 0.0
C1933 C 0.13097 0.82665 0.39489 0.0
C1934 C 0.16073 0.83408 0.30633 0.0
C1935 C 0.15755 0.83612 0.3525 0.0
C1936 C 0.17395 0.83691 0.28546 0.0
C1937 C 0.19732 0.8455 0.28792 0.0
C1938 C 0.171 0.83985 0.32973 0.0
C1939 C 0.20692 0.85146 0.31157 0.0
C1940 C 0.16773 0.8403 0.37593 0.0
C1941 C 0.12156 0.82325 0.37115 0.0
N1942 N 0.19373 0.84844 0.3315 0.0
N1943 N 0.13485 0.82787 0.35092 0.0
H1944 H 0.60847 0.8351 0.81233 0.0
H1945 H 0.70634 0.81599 0.86734 0.0
H1946 H 0.65749 0.82903 0.76757 0.0
H1947 H 0.65819 0.82291 0.91276 0.0
H1948 H 0.68812 0.82005 0.83079 0.0
H1949 H 0.62546 0.82933 0.84911 0.0
C1950 C 0.62273 0.83238 0.81019 0.0
C1951 C 0.63163 0.83262 0.78678 0.0
C1952 C 0.6815 0.82071 0.84869 0.0
C1953 C 0.65128 0.82615 0.82901 0.0
C1954 C 0.69193 0.81843 0.86967 0.0
C1955 C 0.68378 0.81911 0.89323 0.0
C1956 C 0.66268 0.82368 0.85113 0.0
C1957 C 0.66507 0.82235 0.89498 0.0
C1958 C 0.63245 0.82914 0.83127 0.0
C1959 C 0.65005 0.82893 0.78521 0.0
N1960 N 0.65512 0.82449 0.87418 0.0
N1961 N 0.65934 0.82596 0.80606 0.0
H1962 H 0.1674 0.833 0.91622 0.0
H1963 H 0.16336 0.82909 0.76841 0.0
H1964 H 0.1789 0.88949 0.87036 0.0
H1965 H 0.15321 0.77296 0.8141 0.0
H1966 H 0.16969 0.85179 0.80565 0.0
H1967 H 0.16203 0.81055 0.87896 0.0
C1968 C 0.16869 0.84063 0.89836 0.0
C1969 C 0.17361 0.86312 0.8964 0.0
C1970 C 0.16615 0.83452 0.80749 0.0
C1971 C 0.16765 0.8377 0.85378 0.0
C1972 C 0.16263 0.82161 0.78623 0.0
C1973 C 0.1577 0.79911 0.78815 0.0
C1974 C 0.16471 0.82481 0.83078 0.0
C1975 C 0.15688 0.79023 0.81173 0.0
C1976 C 0.16571 0.82786 0.8771 0.0
C1977 C 0.17518 0.87221 0.87278 0.0
N1978 N 0.16026 0.80306 0.83208 0.0
N1979 N 0.17223 0.8595 0.85244 0.0
H1980 H 0.22584 0.36903 0.81611 0.0
H1981 H 0.10112 0.2935 0.87078 0.0
H1982 H 0.16593 0.33567 0.77076 0.0
H1983 H 0.1609 0.32733 0.91626 0.0
H1984 H 0.12449 0.30923 0.83426 0.0
H1985 H 0.20243 0.3539 0.8527 0.0
C1986 C 0.20771 0.35842 0.81378 0.0
C1987 C 0.19785 0.35366 0.7902 0.0
C1988 C 0.13256 0.31332 0.85217 0.0
C1989 C 0.1708 0.33628 0.83243 0.0
C1990 C 0.11921 0.30436 0.87314 0.0
C1991 C 0.12906 0.30902 0.89673 0.0
C1992 C 0.15607 0.32709 0.8546 0.0
C1993 C 0.15257 0.32333 0.8985 0.0
C1994 C 0.19435 0.34982 0.8348 0.0
C1995 C 0.17428 0.33974 0.78851 0.0
N1996 N 0.16529 0.33177 0.87769 0.0
N1997 N 0.16155 0.33159 0.80935 0.0
H1998 H 0.83353 0.6102 0.70232 0.0
H1999 H 0.80138 0.69957 0.64871 0.0
H2000 H 0.82055 0.65432 0.74788 0.0
H2001 H 0.82067 0.66036 0.60276 0.0
H2002 H 0.8047 0.68044 0.68486 0.0
H2003 H 0.82529 0.62559 0.66584 0.0
C2004 C 0.82879 0.62305 0.70472 0.0
C2005 C 0.82786 0.63107 0.72829 0.0
C2006 C 0.80813 0.6759 0.66691 0.0
C2007 C 0.81842 0.64884 0.6863 0.0
C2008 C 0.80624 0.68683 0.64615 0.0
C2009 C 0.81093 0.6817 0.62257 0.0
C2010 C 0.81481 0.65963 0.66427 0.0
C2011 C 0.81694 0.66488 0.62055 0.0
C2012 C 0.82411 0.63184 0.68378 0.0
C2013 C 0.8215 0.64764 0.73012 0.0
N2014 N 0.81883 0.65452 0.64117 0.0
N2015 N 0.81713 0.65606 0.70939 0.0
H2016 H 0.37231 0.22485 0.69873 0.0
H2017 H 0.29317 0.10085 0.64393 0.0
H2018 H 0.33392 0.16551 0.74377 0.0
H2019 H 0.32939 0.1602 0.59832 0.0
H2020 H 0.30985 0.12401 0.68036 0.0
H2021 H 0.35867 0.20132 0.66196 0.0
C2022 C 0.36106 0.20682 0.70095 0.0
C2023 C 0.35419 0.19717 0.72449 0.0
C2024 C 0.31427 0.13203 0.66244 0.0
C2025 C 0.33844 0.17004 0.68214 0.0
C2026 C 0.30473 0.1188 0.64151 0.0
C2027 C 0.30976 0.1286 0.61792 0.0
C2028 C 0.329 0.15537 0.65997 0.0
C2029 C 0.32501 0.15192 0.6161 0.0
C2030 C 0.35327 0.19339 0.67985 0.0
C2031 C 0.33965 0.1737 0.72606 0.0
N2032 N 0.33401 0.16455 0.63687 0.0
N2033 N 0.33221 0.16096 0.70518 0.0
H2034 H 0.83019 0.16749 0.60191 0.0
H2035 H 0.83052 0.16745 0.75011 0.0
H2036 H 0.88911 0.18505 0.64662 0.0
H2037 H 0.77188 0.15286 0.70633 0.0
H2038 H 0.8524 0.17438 0.71208 0.0
H2039 H 0.80829 0.16214 0.63981 0.0
C2040 C 0.83851 0.17023 0.61961 0.0
C2041 C 0.8615 0.17668 0.62103 0.0
C2042 C 0.83475 0.16973 0.71082 0.0
C2043 C 0.83669 0.17063 0.66435 0.0
C2044 C 0.82229 0.16582 0.73256 0.0
C2045 C 0.79934 0.15953 0.73146 0.0
C2046 C 0.82416 0.16727 0.68783 0.0
C2047 C 0.78953 0.15762 0.70813 0.0
C2048 C 0.82605 0.1672 0.64123 0.0
C2049 C 0.87143 0.18003 0.6445 0.0
N2050 N 0.80194 0.1614 0.6873 0.0
N2051 N 0.85901 0.17694 0.66512 0.0
H2052 H 0.99444 0.49386 0.5816 0.0
H2053 H 0.98733 0.48995 0.43399 0.0
H2054 H 0.03181 0.47263 0.53515 0.0
H2055 H 0.94672 0.50715 0.48037 0.0
H2056 H 0.00324 0.48264 0.471 0.0
H2057 H 0.97635 0.49849 0.54473 0.0
C2058 C -0.00117 0.49018 0.5637 0.0
C2059 C 0.01468 0.48291 0.56146 0.0
C2060 C 0.99075 0.4879 0.47305 0.0
C2061 C 0.9941 0.48809 0.51929 0.0
C2062 C 0.98162 0.49199 0.45192 0.0
C2063 C 0.96575 0.49924 0.45408 0.0
C2064 C 0.98398 0.49116 0.49646 0.0
C2065 C 0.959 0.50169 0.47779 0.0
C2066 C 0.98848 0.49277 0.54266 0.0
C2067 C 0.0197 0.47831 0.5378 0.0
N2068 N 0.96822 0.49777 0.49803 0.0
N2069 N 0.0095 0.48103 0.51768 0.0
H2070 H 0.52729 0.55867 0.53408 0.0
H2071 H 0.46614 0.43445 0.47602 0.0
H2072 H 0.49258 0.49799 0.57802 0.0
H2073 H 0.49828 0.49553 0.43249 0.0
H2074 H 0.47526 0.45721 0.51329 0.0
H2075 H 0.517 0.5357 0.49706 0.0
C2076 C 0.51752 0.54044 0.53603 0.0
C2077 C 0.51077 0.53027 0.55936 0.0
C2078 C 0.48026 0.46569 0.49563 0.0
C2079 C 0.49879 0.5037 0.51652 0.0
C2080 C 0.47505 0.45271 0.47424 0.0
C2081 C 0.48154 0.46309 0.45099 0.0
C2082 C 0.49218 0.48935 0.49395 0.0
C2083 C 0.49291 0.4868 0.44997 0.0
C2084 C 0.5116 0.52732 0.51473 0.0
C2085 C 0.4982 0.50656 0.56049 0.0
N2086 N 0.49797 0.49912 0.47116 0.0
N2087 N 0.49259 0.49408 0.53935 0.0
H2088 H 0.49387 0.00086 0.43567 0.0
H2089 H 0.49563 -0.00198 0.58377 0.0
H2090 H 0.55503 0.03432 0.4791 0.0
H2091 H 0.43458 0.96802 0.54 0.0
H2092 H 0.5179 0.01229 0.54571 0.0
H2093 H 0.47174 0.98916 0.47391 0.0
C2094 C 0.50262 0.0058 0.45319 0.0
C2095 C 0.52633 0.01853 0.45412 0.0
C2096 C 0.4996 0.00265 0.54452 0.0
C2097 C 0.50121 0.00519 0.49796 0.0
C2098 C 0.48693 0.99457 0.56625 0.0
C2099 C 0.46323 0.98173 0.56512 0.0
C2100 C 0.48846 -0.00219 0.52157 0.0
C2101 C 0.45282 0.97772 0.54185 0.0
C2102 C 0.49002 -0.00087 0.47503 0.0
C2103 C 0.53679 0.02446 0.4774 0.0
N2104 N 0.46546 0.98563 0.52109 0.0
N2105 N 0.5242 0.0177 0.49832 0.0
H2106 H 0.51049 0.95361 0.02969 0.0
H2107 H 0.46018 0.02886 0.97729 0.0
H2108 H 0.48601 0.98843 0.07569 0.0
H2109 H 0.49218 0.00143 0.93115 0.0
H2110 H 0.46564 0.01045 0.0128 0.0
H2111 H 0.50041 0.96753 0.99327 0.0
C2112 C 0.50288 0.96412 0.03219 0.0
C2113 C 0.49919 0.96994 0.05589 0.0
C2114 C 0.47138 0.0083 0.99495 0.0
C2115 C 0.48756 0.98595 0.01398 0.0
C2116 C 0.46825 0.0188 0.97455 0.0
C2117 C 0.47595 0.01688 0.95116 0.0
C2118 C 0.48236 0.99572 0.99212 0.0
C2119 C 0.48602 0.00338 0.94882 0.0
C2120 C 0.49715 0.97207 0.01129 0.0
C2121 C 0.48922 0.98355 0.05784 0.0
N2122 N 0.4891 0.99344 0.96912 0.0
N2123 N 0.48381 0.99114 0.03715 0.0
H2124 H 0.95231 0.43974 0.98099 0.0
H2125 H 0.05071 0.55542 0.03767 0.0
H2126 H 0.002 0.49463 0.93656 0.0
H2127 H 0.00105 0.50017 0.0817 0.0
H2128 H 0.03386 0.5331 1.00062 0.0
H2129 H 0.97023 0.46156 0.01792 0.0
C2130 C 0.96698 0.45646 0.97897 0.0
C2131 C 0.97568 0.46538 0.95559 0.0
C2132 C 0.0267 0.52579 0.01836 0.0
C2133 C 0.99641 0.49048 0.99805 0.0
C2134 C 0.03634 0.53849 0.03958 0.0
C2135 C 0.02722 0.52966 0.06285 0.0
C2136 C 0.00772 0.50406 0.02034 0.0
C2137 C 0.00865 0.50762 0.06416 0.0
C2138 C 0.97724 0.4689 1.00014 0.0
C2139 C 0.9947 0.48714 0.9542 0.0
N2140 N -0.00057 0.49561 0.04316 0.0
N2141 N 0.00446 0.49895 0.97517 0.0
H2142 H 0.43473 0.47394 0.03504 0.0
H2143 H 0.55823 0.52448 0.97683 0.0
H2144 H 0.49565 0.5026 0.07899 0.0
H2145 H 0.49721 0.49773 0.93334 0.0
H2146 H 0.53589 0.51759 0.01411 0.0
H2147 H 0.45746 0.48304 0.99795 0.0
C2148 C 0.45296 0.48216 0.03698 0.0
C2149 C 0.46326 0.48749 0.06035 0.0
C2150 C 0.52734 0.5133 0.99646 0.0
C2151 C 0.48957 0.49806 0.0174 0.0
C2152 C 0.54008 0.51723 0.97507 0.0
C2153 C 0.52957 0.51157 0.95182 0.0
C2154 C 0.50377 0.5035 0.9948 0.0
C2155 C 0.50603 0.5024 0.95081 0.0
C2156 C 0.46595 0.4874 0.01563 0.0
C2157 C 0.48696 0.49813 0.06143 0.0
N2158 N 0.49391 0.49853 0.97201 0.0
N2159 N 0.49932 0.50306 0.04025 0.0
H2160 H 0.20377 0.08171 0.04885 0.0
H2161 H 0.24832 0.00106 1.00073 0.0
H2162 H 0.27483 0.10254 0.04377 0.0
H2163 H 0.18049 0.97514 0.02835 0.0
H2164 H 0.25807 0.03882 0.01508 0.0
H2165 H 0.19441 0.04289 0.04017 0.0
C2166 C 0.21745 0.07824 0.0461 0.0
C2167 C 0.24018 0.0957 0.04688 0.0
C2168 C 0.24111 0.02486 0.01825 0.0
C2169 C 0.22947 0.05119 0.03659 0.0
C2170 C 0.23555 0.00336 0.01003 0.0
C2171 C 0.21359 0.98507 0.01336 0.0
C2172 C 0.22446 0.02818 0.02954 0.0
C2173 C 0.19766 0.98884 0.02559 0.0
C2174 C 0.21205 0.05601 0.0411 0.0
C2175 C 0.25707 0.08996 0.04287 0.0
N2176 N 0.20333 0.01007 0.03301 0.0
N2177 N 0.25136 0.06828 0.03774 0.0
H2178 H 0.91259 0.12368 0.07649 0.0
H2179 H 0.99565 0.19156 0.96635 0.0
H2180 H 0.88858 0.13194 1.006 0.0
H2181 H 0.0141 0.212 0.04209 0.0
H2182 H 0.95787 0.16329 0.97993 0.0
H2183 H 0.95169 0.14989 0.0633 0.0
C2184 C 0.91563 0.13085 0.05816 0.0
C2185 C 0.89749 0.12575 0.04224 0.0
C2186 C 0.97026 0.17396 0.99353 0.0
C2187 C 0.9418 0.15534 0.02708 0.0
C2188 C 0.99183 0.19025 0.98583 0.0
C2189 C 0.00812 0.20463 1.00303 0.0
C2190 C 0.96495 0.17161 0.01865 0.0
C2191 C 0.00224 0.20132 0.02812 0.0
C2192 C 0.93782 0.14585 0.05074 0.0
C2193 C 0.90218 0.13562 0.01879 0.0
N2194 N 0.9811 0.18516 0.03519 0.0
N2195 N 0.92392 0.14986 0.01183 0.0
H2196 H 0.79177 0.79246 0.96701 0.0
H2197 H 0.85716 0.7748 0.07765 0.0
H2198 H 0.76474 0.78079 0.04096 0.0
H2199 H 0.85546 0.74886 1.00488 0.0
H2200 H 0.82866 0.78483 0.06472 0.0
H2201 H 0.82073 0.78413 0.98093 0.0
C2202 C 0.79168 0.78796 0.98614 0.0
C2203 C 0.77528 0.78686 1.00268 0.0
C2204 C 0.83461 0.77699 0.05163 0.0
C2205 C 0.80924 0.77821 0.01884 0.0
C2206 C 0.85092 0.77145 0.05891 0.0
C2207 C 0.85858 0.76105 0.04223 0.0
C2208 C 0.82642 0.77257 0.02738 0.0
C2209 C 0.84984 0.75676 0.01824 0.0
C2210 C 0.80842 0.78339 0.99406 0.0
C2211 C 0.77696 0.78193 0.02749 0.0
N2212 N 0.83434 0.76271 0.01145 0.0
N2213 N 0.79366 0.7778 0.03484 0.0
H2214 H 0.97685 0.17303 0.49971 0.0
H2215 H 0.10368 0.2741 0.47948 0.0
H2216 H 0.00071 0.24198 0.52219 0.0
H2217 H 0.08489 0.20358 0.47535 0.0
H2218 H 0.06485 0.26279 0.49029 0.0
H2219 H 0.01516 0.18421 0.48535 0.0
C2220 C 0.99011 0.19054 0.50139 0.0
C2221 C 0.9857 0.2066 0.51225 0.0
C2222 C 0.06924 0.24979 0.48701 0.0
C2223 C 0.02938 0.21945 0.496 0.0
C2224 C 0.09152 0.25624 0.48096 0.0
C2225 C 0.09781 0.23981 0.47668 0.0
C2226 C 0.05297 0.22674 0.48866 0.0
C2227 C 0.08093 0.21689 0.47829 0.0
C2228 C 0.01196 0.19687 0.49337 0.0
C2229 C 0.00349 0.22903 0.5142 0.0
N2230 N 0.05929 0.21104 0.48419 0.0
N2231 N 0.02454 0.23479 0.50616 0.0
H2232 H 0.80742 0.80671 0.55333 0.0
H2233 H 0.78471 0.87091 0.44527 0.0
H2234 H 0.79713 0.78155 0.47861 0.0
H2235 H 0.75496 0.86301 0.51715 0.0
H2236 H 0.79852 0.84517 0.4575 0.0
H2237 H 0.79735 0.83476 0.5404 0.0
C2238 C 0.80302 0.80696 0.53422 0.0
C2239 C 0.80269 0.79127 0.51718 0.0
C2240 C 0.78908 0.84922 0.47057 0.0
C2241 C 0.79201 0.82407 0.50223 0.0
C2242 C 0.78136 0.86393 0.4637 0.0
C2243 C 0.76875 0.86896 0.48032 0.0
C2244 C 0.7846 0.84005 0.49439 0.0
C2245 C 0.76456 0.85937 0.50389 0.0
C2246 C 0.79743 0.82312 0.52689 0.0
C2247 C 0.79774 0.79325 0.49245 0.0
N2248 N 0.77261 0.84546 0.51033 0.0
N2249 N 0.79257 0.80934 0.48571 0.0
H2250 H 0.2149 0.01323 0.47068 0.0
H2251 H 0.1339 0.88734 0.51388 0.0
H2252 H 0.19473 0.99606 0.54665 0.0
H2253 H 0.12494 0.90989 0.44283 0.0
H2254 H 0.16041 0.92675 0.52517 0.0
H2255 H 0.18529 0.97508 0.45868 0.0
C2256 C 0.2042 0.00162 0.48482 0.0
C2257 C 0.20768 0.00787 0.5098 0.0
C2258 C 0.15253 0.92308 0.50717 0.0
C2259 C 0.17424 0.96416 0.49618 0.0
C2260 C 0.13754 0.90067 0.50073 0.0
C2261 C 0.12726 0.89551 0.47749 0.0
C2262 C 0.15765 0.9404 0.49002 0.0
C2263 C 0.13241 0.91331 0.46103 0.0
C2264 C 0.18739 0.97984 0.47794 0.0
C2265 C 0.1933 0.9919 0.52726 0.0
N2266 N 0.14749 0.93502 0.46749 0.0
N2267 N 0.17746 0.97075 0.52016 0.0
H2268 H 0.74164 0.98921 0.02592 0.0
H2269 H 0.78847 0.914 0.96564 0.0
H2270 H 0.80804 0.01757 0.99338 0.0
H2271 H 0.71748 0.88852 0.98064 0.0
H2272 H 0.79634 0.95166 0.97739 0.0
H2273 H 0.7328 0.95174 0.01118 0.0
C2274 C 0.7543 0.98754 0.01556 0.0
C2275 C 0.77558 0.00652 0.01083 0.0
C2276 C 0.77903 0.93778 0.97801 0.0
C2277 C 0.7657 0.96372 0.99409 0.0
C2278 C 0.77445 0.91615 0.97122 0.0
C2279 C 0.7522 0.89769 0.97206 0.0
C2280 C 0.76132 0.9411 0.98597 0.0
C2281 C 0.73494 0.90189 0.97989 0.0
C2282 C 0.74924 0.96619 1.0071 0.0
C2283 C 0.79134 0.00344 0.9972 0.0
N2284 N 0.73989 0.92307 0.98661 0.0
N2285 N 0.78614 0.98243 0.98949 0.0
H2286 H -0.00221 0.78754 0.05052 0.0
H2287 H 0.08108 0.85414 0.94113 0.0
H2288 H 0.98197 0.76191 0.97603 0.0
H2289 H 0.10543 0.85075 0.01335 0.0
H2290 H 0.04269 0.82503 0.95353 0.0
H2291 H 0.03559 0.81558 0.03712 0.0
C2292 C 0.00221 0.78751 0.03139 0.0
C2293 C 0.98655 0.77182 0.01452 0.0
C2294 C 0.05648 0.83068 0.96659 0.0
C2295 C 0.02983 0.80482 0.99896 0.0
C2296 C 0.07826 0.84733 0.95962 0.0
C2297 C 0.09631 0.85479 0.97632 0.0
C2298 C 0.05273 0.82191 0.99058 0.0
C2299 C 0.09192 0.84531 0.99997 0.0
C2300 C 0.02382 0.80374 0.02377 0.0
C2301 C 0.99327 0.77361 0.98974 0.0
N2302 N 0.07051 0.8295 1.0065 0.0
N2303 N 0.0144 0.78987 0.98268 0.0
H2304 H 0.24117 0.21614 0.96494 0.0
H2305 H 0.16263 0.26784 0.98915 0.0
H2306 H 0.21349 0.2148 0.03703 0.0
H2307 H 0.14507 0.22027 0.92942 0.0
H2308 H 0.19181 0.25927 1.00224 0.0
H2309 H 0.21466 0.22677 0.94727 0.0
C2310 C 0.22964 0.21799 0.97712 0.0
C2311 C 0.22996 0.21474 1.00272 0.0
C2312 C 0.18175 0.25097 0.98606 0.0
C2313 C 0.20041 0.22779 0.98255 0.0
C2314 C 0.16522 0.25594 0.97847 0.0
C2315 C 0.15132 0.2446 0.95827 0.0
C2316 C 0.18476 0.23496 0.97304 0.0
C2317 C 0.15534 0.22917 0.94523 0.0
C2318 C 0.21467 0.22421 0.96696 0.0
C2319 C 0.2147 0.21782 0.01741 0.0
N2320 N 0.17178 0.22475 0.95284 0.0
N2321 N 0.20079 0.22441 1.00715 0.0
H2322 H 0.92082 0.7689 0.59274 0.0
H2323 H 0.99131 0.77138 0.48021 0.0
H2324 H 0.88924 0.72258 0.53227 0.0
H2325 H 0.01789 0.77028 0.55229 0.0
H2326 H 0.95472 0.75945 0.49873 0.0
H2327 H 0.95798 0.7754 0.57858 0.0
C2328 C 0.92171 0.75991 0.57673 0.0
C2329 C 0.90199 0.74526 0.5636 0.0
C2330 C 0.9686 0.76169 0.51039 0.0
C2331 C 0.94403 0.75294 0.54718 0.0
C2332 C 0.98958 0.76832 0.49984 0.0
C2333 C 0.00798 0.77157 0.51452 0.0
C2334 C 0.96597 0.75893 0.53592 0.0
C2335 C 0.00445 0.76829 0.54013 0.0
C2336 C 0.94278 0.76355 0.56877 0.0
C2337 C 0.90395 0.73393 0.543 0.0
N2338 N 0.98389 0.76238 0.55008 0.0
N2339 N 0.92464 0.73835 0.53514 0.0
H2340 H 0.211 0.13392 0.57891 0.0
H2341 H 0.25167 0.2493 0.50484 0.0
H2342 H 0.27298 0.16802 0.53691 0.0
H2343 H 0.18545 0.21042 0.53772 0.0
H2344 H 0.262 0.22248 0.52164 0.0
H2345 H 0.20372 0.16468 0.56925 0.0
C2346 C 0.22315 0.14789 0.56779 0.0
C2347 C 0.24251 0.14815 0.5585 0.0
C2348 C 0.24526 0.2199 0.52534 0.0
C2349 C 0.23434 0.18355 0.54752 0.0
C2350 C 0.23932 0.23515 0.51566 0.0
C2351 C 0.21758 0.232 0.51965 0.0
C2352 C 0.22936 0.20129 0.53912 0.0
C2353 C 0.20244 0.21363 0.53427 0.0
C2354 C 0.21901 0.1655 0.56235 0.0
C2355 C 0.25789 0.16702 0.54462 0.0
N2356 N 0.20856 0.19887 0.54331 0.0
N2357 N 0.25337 0.18383 0.53939 0.0
H2358 H 0.74444 0.00216 0.49732 0.0
H2359 H 0.86713 0.07688 0.55602 0.0
H2360 H 0.78213 0.97369 0.53056 0.0
H2361 H 0.82271 0.10342 0.54 0.0
H2362 H 0.83658 0.03915 0.54568 0.0
H2363 H 0.77328 0.03968 0.51174 0.0
C2364 C 0.7587 0.00381 0.50782 0.0
C2365 C 0.7609 0.98482 0.51279 0.0
C2366 C 0.83352 0.05325 0.54454 0.0
C2367 C 0.79401 0.02761 0.5291 0.0
C2368 C 0.85099 0.07488 0.55052 0.0
C2369 C 0.8477 0.0936 0.54889 0.0
C2370 C 0.81258 0.05022 0.53662 0.0
C2371 C 0.82634 0.08974 0.54121 0.0
C2372 C 0.77512 0.02519 0.51608 0.0
C2373 C 0.77964 0.98785 0.52657 0.0
N2374 N 0.80966 0.06853 0.53526 0.0
N2375 N 0.79558 0.00887 0.53406 0.0
H2376 H 0.86233 0.31438 0.37594 0.0
H2377 H 0.90615 0.43976 0.33349 0.0
H2378 H 0.85246 0.32988 0.30133 0.0
H2379 H 0.87652 0.41768 0.40539 0.0
H2380 H 0.89204 0.4001 0.32191 0.0
H2381 H 0.87213 0.35276 0.38813 0.0
C2382 C 0.86194 0.32563 0.36214 0.0
C2383 C 0.85678 0.31877 0.33743 0.0
C2384 C 0.88852 0.40397 0.34016 0.0
C2385 C 0.86872 0.3629 0.35126 0.0
C2386 C 0.89663 0.42649 0.34676 0.0
C2387 C 0.89232 0.43181 0.37031 0.0
C2388 C 0.87658 0.38677 0.3575 0.0
C2389 C 0.87991 0.41412 0.38696 0.0
C2390 C 0.86768 0.34758 0.36914 0.0
C2391 C 0.85696 0.33444 0.32042 0.0
N2392 N 0.87267 0.39232 0.38034 0.0
N2393 N 0.86315 0.35582 0.32758 0.0
H2394 H 0.58189 0.46702 0.41809 0.0
H2395 H 0.65924 0.53719 0.30896 0.0
H2396 H 0.55694 0.49155 0.35965 0.0
H2397 H 0.68543 0.55912 0.38252 0.0
H2398 H 0.62201 0.51233 0.32638 0.0
H2399 H 0.62097 0.49402 0.40493 0.0
C2400 C 0.58466 0.47822 0.40271 0.0
C2401 C 0.56622 0.47705 0.38988 0.0
C2402 C 0.636 0.52261 0.33862 0.0
C2403 C 0.61029 0.50711 0.37454 0.0
C2404 C 0.65727 0.53698 0.32874 0.0
C2405 C 0.67557 0.55085 0.34419 0.0
C2406 C 0.633 0.52153 0.36417 0.0
C2407 C 0.67192 0.54878 0.36983 0.0
C2408 C 0.60682 0.49354 0.39531 0.0
C2409 C 0.5706 0.49192 0.37012 0.0
N2410 N 0.65099 0.53434 0.37908 0.0
N2411 N 0.59219 0.50605 0.36277 0.0
H2412 H 0.46632 0.12645 0.29537 0.0
H2413 H 0.53348 0.10938 0.40536 0.0
H2414 H 0.44693 0.12525 0.37136 0.0
H2415 H 0.52584 0.07875 0.334 0.0
H2416 H 0.50801 0.12323 0.39232 0.0
H2417 H 0.4946 0.1168 0.3086 0.0
C2418 C 0.46787 0.12407 0.31483 0.0
C2419 C 0.45378 0.12622 0.33222 0.0
C2420 C 0.51204 0.11358 0.37953 0.0
C2421 C 0.48676 0.11588 0.34744 0.0
C2422 C 0.52663 0.10584 0.38687 0.0
C2423 C 0.53163 0.09292 0.37068 0.0
C2424 C 0.50287 0.10872 0.35569 0.0
C2425 C 0.52219 0.08852 0.34701 0.0
C2426 C 0.48416 0.11872 0.32234 0.0
C2427 C 0.45738 0.12383 0.35727 0.0
N2428 N 0.50831 0.09649 0.34016 0.0
N2429 N 0.4735 0.11873 0.36415 0.0
H2430 H 0.64396 0.53127 0.80506 0.0
H2431 H 0.76979 0.57582 0.84818 0.0
H2432 H 0.66061 0.5265 0.88082 0.0
H2433 H 0.74706 0.54366 0.77746 0.0
H2434 H 0.73034 0.56313 0.85939 0.0
H2435 H 0.68222 0.54012 0.7931 0.0
C2436 C 0.65547 0.53185 0.81916 0.0
C2437 C 0.64903 0.52846 0.84409 0.0
C2438 C 0.734 0.55875 0.84147 0.0
C2439 C 0.69289 0.53917 0.83052 0.0
C2440 C 0.75642 0.56606 0.83508 0.0
C2441 C 0.7615 0.56063 0.81199 0.0
C2442 C 0.71665 0.54641 0.82438 0.0
C2443 C 0.74368 0.54792 0.79556 0.0
C2444 C 0.67732 0.53701 0.8123 0.0
C2445 C 0.6649 0.52969 0.8615 0.0
N2446 N 0.72198 0.54141 0.80196 0.0
N2447 N 0.68614 0.53523 0.85443 0.0
H2448 H 0.41133 0.19655 0.84811 0.0
H2449 H 0.48368 0.13692 0.81944 0.0
H2450 H 0.45189 0.21084 0.78251 0.0
H2451 H 0.45679 0.13726 0.89128 0.0
H2452 H 0.47319 0.16462 0.80546 0.0
H2453 H 0.42786 0.17451 0.86402 0.0
C2454 C 0.42373 0.19502 0.83707 0.0
C2455 C 0.43018 0.20541 0.81393 0.0
C2456 C 0.46981 0.15879 0.82435 0.0
C2457 C 0.44924 0.18029 0.83198 0.0
C2458 C 0.47592 0.14309 0.83238 0.0
C2459 C 0.47076 0.13448 0.85644 0.0
C2460 C 0.45838 0.16578 0.84049 0.0
C2461 C 0.46056 0.14298 0.87238 0.0
C2462 C 0.4333 0.1826 0.84622 0.0
C2463 C 0.44658 0.2032 0.80052 0.0
N2464 N 0.45448 0.15793 0.86405 0.0
N2465 N 0.4554 0.19069 0.80964 0.0
H2466 H 0.78606 0.248 0.80764 0.0
H2467 H 0.91301 0.32703 0.85183 0.0
H2468 H 0.83493 0.22533 0.81221 0.0
H2469 H 0.87213 0.35408 0.82401 0.0
H2470 H 0.88384 0.28921 0.83883 0.0
H2471 H 0.8165 0.28663 0.81509 0.0
C2472 C 0.80308 0.25098 0.81004 0.0
C2473 C 0.80765 0.23302 0.80939 0.0
C2474 C 0.88132 0.30342 0.83531 0.0
C2475 C 0.84262 0.27742 0.81827 0.0
C2476 C 0.89794 0.32496 0.84273 0.0
C2477 C 0.89489 0.34359 0.83895 0.0
C2478 C 0.86131 0.30041 0.82441 0.0
C2479 C 0.87513 0.3401 0.82707 0.0
C2480 C 0.82048 0.27313 0.81432 0.0
C2481 C 0.83021 0.23824 0.81294 0.0
N2482 N 0.85891 0.31884 0.82046 0.0
N2483 N 0.84674 0.25987 0.81737 0.0
H2484 H 0.43744 0.24653 0.26437 0.0
H2485 H 0.45771 0.32943 0.37696 0.0
H2486 H 0.41659 0.22327 0.33872 0.0
H2487 H 0.45371 0.34785 0.30176 0.0
H2488 H 0.44807 0.29175 0.36304 0.0
H2489 H 0.44896 0.28519 0.27764 0.0
C2490 C 0.43542 0.24962 0.2835 0.0
C2491 C 0.42603 0.23174 0.3005 0.0
C2492 C 0.44928 0.30404 0.3496 0.0
C2493 C 0.43918 0.27572 0.31575 0.0
C2494 C 0.45467 0.32557 0.35752 0.0
C2495 C 0.45619 0.34184 0.34057 0.0
C2496 C 0.44568 0.29872 0.32447 0.0
C2497 C 0.45284 0.33595 0.3155 0.0
C2498 C 0.44185 0.2716 0.291 0.0
C2499 C 0.42354 0.23656 0.32502 0.0
N2500 N 0.4477 0.31483 0.3082 0.0
N2501 N 0.43018 0.25811 0.33194 0.0
H2502 H 0.73736 0.17642 0.26185 0.0
H2503 H 0.66415 0.10418 0.37162 0.0
H2504 H 0.76782 0.16252 0.32406 0.0
H2505 H 0.64051 0.07891 0.29809 0.0
H2506 H 0.70107 0.13037 0.35483 0.0
H2507 H 0.70015 0.14491 0.27461 0.0
C2508 C 0.73622 0.16657 0.27798 0.0
C2509 C 0.75561 0.17204 0.29196 0.0
C2510 C 0.68778 0.11893 0.34245 0.0
C2511 C 0.71349 0.1367 0.3068 0.0
C2512 C 0.66662 0.10371 0.35201 0.0
C2513 C 0.64894 0.08873 0.33642 0.0
C2514 C 0.69133 0.11989 0.31701 0.0
C2515 C 0.65337 0.09013 0.31093 0.0
C2516 C 0.71512 0.14864 0.28515 0.0
C2517 C 0.75335 0.15879 0.31269 0.0
N2518 N 0.67409 0.1056 0.30197 0.0
N2519 N 0.7326 0.142 0.31974 0.0
H2520 H 0.79308 0.5433 0.29322 0.0
H2521 H 0.91528 0.58937 0.35245 0.0
H2522 H 0.83748 0.61368 0.31159 0.0
H2523 H 0.87748 0.52383 0.31799 0.0
H2524 H 0.88682 0.59863 0.33813 0.0
H2525 H 0.82358 0.53575 0.30271 0.0
C2526 C 0.80922 0.55725 0.29905 0.0
C2527 C 0.81251 0.57919 0.30164 0.0
C2528 C 0.88487 0.58231 0.33348 0.0
C2529 C 0.84755 0.57049 0.31292 0.0
C2530 C 0.90107 0.57702 0.34168 0.0
C2531 C 0.8987 0.55581 0.3364 0.0
C2532 C 0.86601 0.56616 0.32018 0.0
C2533 C 0.88007 0.54046 0.32226 0.0
C2534 C 0.82665 0.55287 0.30454 0.0
C2535 C 0.83386 0.59642 0.30968 0.0
N2536 N 0.86431 0.54585 0.31485 0.0
N2537 N 0.85049 0.59167 0.31514 0.0
H2538 H 0.55946 0.08437 0.85058 0.0
H2539 H 0.68296 0.10834 0.88502 0.0
H2540 H 0.58385 0.09808 0.92539 0.0
H2541 H 0.66521 0.12278 0.81358 0.0
H2542 H 0.64585 0.10027 0.90052 0.0
H2543 H 0.59711 0.09328 0.83678 0.0
C2544 C 0.57276 0.08913 0.86411 0.0
C2545 C 0.56858 0.09045 0.88915 0.0
C2546 C 0.6502 0.10522 0.88146 0.0
C2547 C 0.61173 0.10071 0.87352 0.0
C2548 C 0.67139 0.1099 0.8726 0.0
C2549 C 0.67724 0.11597 0.8478 0.0
C2550 C 0.63469 0.10636 0.86536 0.0
C2551 C 0.66136 0.11751 0.83259 0.0
C2552 C 0.59427 0.09438 0.85622 0.0
C2553 C 0.58649 0.09703 0.9059 0.0
N2554 N 0.64084 0.11258 0.84156 0.0
N2555 N 0.60732 0.10179 0.89781 0.0
H2556 H 0.8553 0.54339 0.86517 0.0
H2557 H 0.93951 0.49437 0.85042 0.0
H2558 H 0.91655 0.5756 0.82186 0.0
H2559 H 0.88055 0.46412 0.89739 0.0
H2560 H 0.9319 0.52481 0.84078 0.0
H2561 H 0.865 0.5151 0.87859 0.0
C2562 C 0.87097 0.54474 0.85876 0.0
C2563 C 0.8851 0.5619 0.84228 0.0
C2564 C 0.92065 0.51155 0.85326 0.0
C2565 C 0.89608 0.52923 0.85722 0.0
C2566 C 0.92505 0.49416 0.85888 0.0
C2567 C 0.91067 0.47656 0.8748 0.0
C2568 C 0.90167 0.5114 0.86353 0.0
C2569 C 0.89194 0.47711 0.8848 0.0
C2570 C 0.8764 0.52844 0.86628 0.0
C2571 C 0.90498 0.56249 0.83428 0.0
N2572 N 0.88798 0.49421 0.87897 0.0
N2573 N 0.90981 0.54635 0.84172 0.0
H2574 H 0.40695 0.3357 0.83003 0.0
H2575 H 0.51791 0.40584 0.91245 0.0
H2576 H 0.438 0.30492 0.87241 0.0
H2577 H 0.48778 0.43638 0.8681 0.0
H2578 H 0.4863 0.36849 0.90193 0.0
H2579 H 0.43393 0.37244 0.84763 0.0
C2580 C 0.41938 0.33666 0.84314 0.0
C2581 C 0.42033 0.31722 0.84958 0.0
C2582 C 0.4865 0.38339 0.8947 0.0
C2583 C 0.45128 0.35925 0.86988 0.0
C2584 C 0.5046 0.40473 0.90064 0.0
C2585 C 0.50569 0.42434 0.89098 0.0
C2586 C 0.46938 0.3816 0.87887 0.0
C2587 C 0.48769 0.42183 0.87613 0.0
C2588 C 0.43472 0.35762 0.85327 0.0
C2589 C 0.43653 0.3194 0.86701 0.0
N2590 N 0.47042 0.40088 0.87036 0.0
N2591 N 0.4515 0.34006 0.87637 0.0
H2592 H 0.53857 0.64953 0.70263 0.0
H2593 H 0.58049 0.77587 0.66351 0.0
H2594 H 0.53743 0.66809 0.62672 0.0
H2595 H 0.54539 0.74936 0.73212 0.0
H2596 H 0.5701 0.73732 0.65084 0.0
H2597 H 0.54571 0.68697 0.71524 0.0
C2598 C 0.53965 0.66129 0.68859 0.0
C2599 C 0.53759 0.65552 0.66348 0.0
C2600 C 0.56455 0.73995 0.6686 0.0
C2601 C 0.54638 0.69858 0.6779 0.0
C2602 C 0.57054 0.76186 0.67582 0.0
C2603 C 0.56366 0.76563 0.69878 0.0
C2604 C 0.55209 0.72181 0.68473 0.0
C2605 C 0.55076 0.747 0.71416 0.0
C2606 C 0.54383 0.68269 0.69585 0.0
C2607 C 0.53954 0.6718 0.64622 0.0
N2608 N 0.54557 0.72585 0.70698 0.0
N2609 N 0.54405 0.69262 0.65373 0.0
H2610 H 0.32526 0.90628 0.66708 0.0
H2611 H 0.24211 0.77851 0.70718 0.0
H2612 H 0.34922 0.86008 0.68413 0.0
H2613 H 0.22391 0.83076 0.70929 0.0
H2614 H 0.28101 0.80732 0.69734 0.0
H2615 H 0.28745 0.87798 0.68085 0.0
C2616 C 0.32252 0.89015 0.67382 0.0
C2617 C 0.34031 0.88544 0.67441 0.0
C2618 C 0.26845 0.81241 0.70006 0.0
C2619 C 0.29706 0.85289 0.69009 0.0
C2620 C 0.2462 0.79597 0.70574 0.0
C2621 C 0.22946 0.80204 0.70892 0.0
C2622 C 0.27399 0.83507 0.69734 0.0
C2623 C 0.23592 0.82501 0.70652 0.0
C2624 C 0.30097 0.87403 0.68176 0.0
C2625 C 0.33594 0.86438 0.68353 0.0
N2626 N 0.25759 0.8406 0.70077 0.0
N2627 N 0.31466 0.84876 0.69082 0.0
H2628 H 0.12273 0.454 0.64568 0.0
H2629 H 0.19076 0.4494 0.75709 0.0
H2630 H 0.09584 0.45528 0.71745 0.0
H2631 H 0.16714 0.39777 0.70098 0.0
H2632 H 0.16279 0.45979 0.74271 0.0
H2633 H 0.14714 0.44197 0.66496 0.0
C2634 C 0.12169 0.4516 0.66543 0.0
C2635 C 0.10661 0.4552 0.67979 0.0
C2636 C 0.16367 0.446 0.73391 0.0
C2637 C 0.13556 0.44247 0.70196 0.0
C2638 C 0.17955 0.44012 0.742 0.0
C2639 C 0.18134 0.42279 0.73013 0.0
C2640 C 0.15014 0.43487 0.71342 0.0
C2641 C 0.16639 0.41119 0.71071 0.0
C2642 C 0.13584 0.44493 0.67638 0.0
C2643 C 0.10715 0.45283 0.70554 0.0
N2644 N 0.15173 0.41775 0.70264 0.0
N2645 N 0.12149 0.44669 0.71587 0.0
H2646 H 0.3126 0.86398 0.14412 0.0
H2647 H 0.44122 0.91223 0.17886 0.0
H2648 H 0.33417 0.86353 0.21887 0.0
H2649 H 0.41488 0.88027 0.10872 0.0
H2650 H 0.4024 0.89865 0.19313 0.0
H2651 H 0.35032 0.87331 0.12972 0.0
C2652 C 0.3251 0.8656 0.15751 0.0
C2653 C 0.32015 0.86323 0.18283 0.0
C2654 C 0.40512 0.89449 0.17467 0.0
C2655 C 0.36344 0.87447 0.16643 0.0
C2656 C 0.4272 0.90231 0.16653 0.0
C2657 C 0.43112 0.89728 0.14266 0.0
C2658 C 0.3869 0.88197 0.15862 0.0
C2659 C 0.41245 0.88428 0.12734 0.0
C2660 C 0.34664 0.87104 0.14925 0.0
C2661 C 0.33726 0.86585 0.19927 0.0
N2662 N 0.39109 0.87725 0.13548 0.0
N2663 N 0.35818 0.87158 0.19081 0.0
H2664 H 0.07833 0.52298 0.18616 0.0
H2665 H 0.1194 0.43828 0.14589 0.0
H2666 H 0.113 0.53183 0.11719 0.0
H2667 H 0.12198 0.45845 0.22185 0.0
H2668 H 0.11248 0.46882 0.13356 0.0
H2669 H 0.08894 0.49488 0.19846 0.0
C2670 C 0.08823 0.51899 0.1737 0.0
C2671 C 0.09493 0.52969 0.15075 0.0
C2672 C 0.11464 0.46648 0.1529 0.0
C2673 C 0.10673 0.4975 0.16436 0.0
C2674 C 0.11869 0.44912 0.16 0.0
C2675 C 0.12104 0.44544 0.18505 0.0
C2676 C 0.1125 0.47997 0.17097 0.0
C2677 C 0.1196 0.45999 0.20241 0.0
C2678 C 0.09434 0.5031 0.1807 0.0
C2679 C 0.10778 0.52405 0.13515 0.0
N2680 N 0.11517 0.47641 0.19506 0.0
N2681 N 0.11306 0.5081 0.14212 0.0
H2682 H 0.55799 0.68362 0.13873 0.0
H2683 H 0.4669 0.5576 0.17405 0.0
H2684 H 0.52931 0.66463 0.2117 0.0
H2685 H 0.47131 0.58298 0.10037 0.0
H2686 H 0.49343 0.59611 0.18803 0.0
H2687 H 0.52932 0.64624 0.12379 0.0
C2688 C 0.54563 0.67175 0.1516 0.0
C2689 C 0.54635 0.6773 0.17663 0.0
C2690 C 0.4885 0.59327 0.16882 0.0
C2691 C 0.51389 0.6344 0.15969 0.0
C2692 C 0.47351 0.57134 0.16085 0.0
C2693 C 0.46698 0.56723 0.13608 0.0
C2694 C 0.49735 0.61114 0.15178 0.0
C2695 C 0.47583 0.58557 0.11967 0.0
C2696 C 0.52934 0.65039 0.14305 0.0
C2697 C 0.52996 0.66101 0.19243 0.0
N2698 N 0.49078 0.60678 0.12777 0.0
N2699 N 0.51459 0.64027 0.18374 0.0
H2700 H 0.12052 0.6646 0.71152 0.0
H2701 H 0.10022 0.58186 0.59942 0.0
H2702 H 0.10636 0.67937 0.63839 0.0
H2703 H 0.08141 0.55848 0.67405 0.0
H2704 H 0.10953 0.62008 0.61262 0.0
H2705 H 0.113 0.62774 0.69719 0.0
C2706 C 0.11558 0.66008 0.6925 0.0
C2707 C 0.1136 0.67508 0.6763 0.0
C2708 C 0.10339 0.60654 0.62604 0.0
C2709 C 0.1058 0.63299 0.65962 0.0
C2710 C 0.09828 0.58488 0.61859 0.0
C2711 C 0.09004 0.56714 0.63573 0.0
C2712 C 0.10069 0.61043 0.65085 0.0
C2713 C 0.08754 0.57173 0.6603 0.0
C2714 C 0.11149 0.63905 0.68432 0.0
C2715 C 0.10812 0.66845 0.65157 0.0
N2716 N 0.09297 0.59298 0.66718 0.0
N2717 N 0.10441 0.64786 0.64395 0.0
H2718 H 0.33337 0.46584 0.71499 0.0
H2719 H 0.41378 0.52225 0.59909 0.0
H2720 H 0.31255 0.44072 0.64097 0.0
H2721 H 0.43925 0.52548 0.67254 0.0
H2722 H 0.37526 0.49672 0.61407 0.0
H2723 H 0.37113 0.4922 0.69958 0.0
C2724 C 0.33669 0.46572 0.69552 0.0
C2725 C 0.31968 0.45073 0.67934 0.0
C2726 C 0.38931 0.50303 0.62687 0.0
C2727 C 0.3629 0.48142 0.66153 0.0
C2728 C 0.41121 0.51767 0.61839 0.0
C2729 C 0.42966 0.52591 0.63464 0.0
C2730 C 0.38584 0.49694 0.65184 0.0
C2731 C 0.42549 0.5193 0.65941 0.0
C2732 C 0.35827 0.4809 0.68674 0.0
C2733 C 0.32497 0.45202 0.65415 0.0
N2734 N 0.40399 0.50529 0.6673 0.0
N2735 N 0.34612 0.4671 0.64602 0.0
H2736 H 0.57996 0.9217 0.68504 0.0
H2737 H 0.45785 0.8752 0.62553 0.0
H2738 H 0.54305 0.85638 0.64997 0.0
H2739 H 0.50244 0.94574 0.64304 0.0
H2740 H 0.48842 0.86771 0.63505 0.0
H2741 H 0.55138 0.9307 0.6705 0.0
C2742 C 0.56592 0.90934 0.67409 0.0
C2743 C 0.56383 0.88827 0.6687 0.0
C2744 C 0.49151 0.88485 0.63668 0.0
C2745 C 0.53096 0.8983 0.65224 0.0
C2746 C 0.47403 0.88919 0.63118 0.0
C2747 C 0.47734 0.91116 0.63356 0.0
C2748 C 0.51246 0.90253 0.64486 0.0
C2749 C 0.49876 0.92845 0.64133 0.0
C2750 C 0.54965 0.91448 0.66576 0.0
C2751 C 0.54539 0.8729 0.65434 0.0
N2752 N 0.51541 0.92373 0.64682 0.0
N2753 N 0.52953 0.87813 0.64682 0.0
H2754 H 0.21643 0.40863 0.17432 0.0
H2755 H 0.34569 0.45252 0.20736 0.0
H2756 H 0.24385 0.43278 0.24673 0.0
H2757 H 0.32254 0.45247 0.13326 0.0
H2758 H 0.30793 0.4419 0.22266 0.0
H2759 H 0.25465 0.42057 0.15934 0.0
C2760 C 0.23051 0.41637 0.18706 0.0
C2761 C 0.22702 0.41975 0.21178 0.0
C2762 C 0.3112 0.44427 0.20306 0.0
C2763 C 0.27071 0.4334 0.19484 0.0
C2764 C 0.3328 0.45045 0.19429 0.0
C2765 C 0.33741 0.45329 0.16891 0.0
C2766 C 0.294 0.44064 0.18635 0.0
C2767 C 0.31978 0.44997 0.1529 0.0
C2768 C 0.25231 0.42332 0.17849 0.0
C2769 C 0.24588 0.43009 0.22749 0.0
N2770 N 0.29887 0.44371 0.16187 0.0
N2771 N 0.26692 0.43643 0.2188 0.0
H2772 H 0.53638 0.79308 0.22011 0.0
H2773 H 0.58493 0.91519 0.16 0.0
H2774 H 0.60761 0.83796 0.20595 0.0
H2775 H 0.51845 0.87829 0.19258 0.0
H2776 H 0.59329 0.88641 0.17537 0.0
H2777 H 0.52911 0.82345 0.2089 0.0
C2778 C 0.55056 0.80927 0.21484 0.0
C2779 C 0.57268 0.81272 0.21393 0.0
C2780 C 0.57694 0.88471 0.17936 0.0
C2781 C 0.5643 0.8476 0.20067 0.0
C2782 C 0.57216 0.90108 0.17053 0.0
C2783 C 0.55098 0.8991 0.17504 0.0
C2784 C 0.5603 0.86604 0.19248 0.0
C2785 C 0.53507 0.88057 0.18891 0.0
C2786 C 0.54634 0.82663 0.20837 0.0
C2787 C 0.59022 0.83416 0.20657 0.0
N2788 N 0.53998 0.86464 0.19695 0.0
N2789 N 0.58563 0.85069 0.20011 0.0
H2790 H 0.07892 0.66864 0.169 0.0
H2791 H 0.20067 0.74052 0.23035 0.0
H2792 H 0.11453 0.63804 0.20243 0.0
H2793 H 0.15707 0.76804 0.21459 0.0
H2794 H 0.16965 0.70294 0.21988 0.0
H2795 H 0.10771 0.70544 0.18504 0.0
C2796 C 0.09272 0.66968 0.1799 0.0
C2797 C 0.09438 0.65032 0.1844 0.0
C2798 C 0.16688 0.71723 0.21886 0.0
C2799 C 0.12747 0.69231 0.20258 0.0
C2800 C 0.1846 0.73875 0.22491 0.0
C2801 C 0.1817 0.7577 0.22318 0.0
C2802 C 0.14613 0.7146 0.21081 0.0
C2803 C 0.16042 0.75417 0.21571 0.0
C2804 C 0.10911 0.69064 0.1891 0.0
C2805 C 0.11252 0.65253 0.19874 0.0
N2806 N 0.14355 0.73311 0.20965 0.0
N2807 N 0.1285 0.6732 0.20711 0.0
loop_
_geom_bond_atom_site_label_1
_geom_bond_atom_site_label_2
_geom_bond_distance
_geom_bond_site_symmetry_2
_ccdc_geom_bond_type
C0 C1 1.351 . S
C0 N3 1.368 . S
C0 H5 0.931 . S
C1 C0 1.351 . S
C1 N2 1.373 . S
C1 H29 0.930 . S
N2 C1 1.373 . S
N2 C4 1.340 . S
N3 C0 1.368 . S
N3 C4 1.321 . S
N3 Co6 2.135 . S
C4 N2 1.340 . S
C4 N3 1.321 . S
C4 H28 0.930 . S
H5 C0 0.931 . S
Co6 N3 2.135 . S
Co6 N9 2.121 . S
Co6 O14 2.055 . S
Co6 O17 2.039 . S
Co6 N20 2.140 . S
C7 O8 1.227 . S
C7 O17 1.265 1_556 S
O8 C7 1.227 . S
N9 Co6 2.121 . S
N9 C11 1.375 . S
N9 C12 1.313 . S
C10 C11 1.338 . S
C10 N13 1.377 . S
C10 H30 0.930 . S
C11 N9 1.375 . S
C11 C10 1.338 . S
C11 H15 0.931 . S
C12 N9 1.313 . S
C12 N13 1.344 . S
C12 H16 0.930 . S
N13 C10 1.377 . S
N13 C12 1.344 . S
O14 Co6 2.055 . S
O14 C18 1.253 . S
H15 C11 0.931 . S
H16 C12 0.930 . S
O17 Co6 2.039 . S
O17 C7 1.265 1_554 S
C18 O14 1.253 . S
C18 O19 1.227 . S
O19 C18 1.227 . S
N20 Co6 2.140 . S
N20 C23 1.346 . S
N20 C24 1.345 . S
C21 C22 1.387 . S
C21 C25 1.391 . S
C22 C21 1.387 . S
C22 C23 1.369 . S
C22 H31 0.929 . S
C23 N20 1.346 . S
C23 C22 1.369 . S
C23 H26 0.928 . S
C24 N20 1.345 . S
C24 C25 1.371 . S
C24 H27 0.931 . S
C25 C21 1.391 . S
C25 C24 1.371 . S
C25 H32 0.930 . S
H26 C23 0.928 . S
H27 C24 0.931 . S
H28 C4 0.930 . S
H29 C1 0.930 . S
H30 C10 0.930 . S
H31 C22 0.929 . S
H32 C25 0.930 . S
C33 C34 1.351 . S
C33 N36 1.368 . S
C33 H38 0.931 . S
C34 C33 1.351 . S
C34 N35 1.373 . S
C34 H62 0.930 . S
N35 C34 1.373 . S
N35 C37 1.340 . S
N36 C33 1.368 . S
N36 C37 1.321 . S
N36 Co39 2.135 . S
C37 N35 1.340 . S
C37 N36 1.321 . S
C37 H61 0.930 . S
H38 C33 0.931 . S
Co39 N36 2.135 . S
Co39 N42 2.121 . S
Co39 O47 2.055 . S
Co39 O50 2.039 . S
Co39 N53 2.140 . S
C40 O41 1.227 . S
C40 O50 1.265 1_556 S
O41 C40 1.227 . S
N42 Co39 2.121 . S
N42 C44 1.375 . S
N42 C45 1.313 . S
C43 C44 1.338 . S
C43 N46 1.377 . S
C43 H63 0.930 . S
C44 N42 1.375 . S
C44 C43 1.338 . S
C44 H48 0.931 . S
C45 N42 1.313 . S
C45 N46 1.344 . S
C45 H49 0.930 . S
N46 C43 1.377 . S
N46 C45 1.344 . S
O47 Co39 2.055 . S
O47 C51 1.253 . S
H48 C44 0.931 . S
H49 C45 0.930 . S
O50 Co39 2.039 . S
O50 C40 1.265 1_554 S
C51 O47 1.253 . S
C51 O52 1.227 . S
O52 C51 1.227 . S
N53 Co39 2.140 . S
N53 C56 1.346 . S
N53 C57 1.345 . S
C54 C55 1.387 . S
C54 C58 1.391 . S
C55 C54 1.387 . S
C55 C56 1.369 . S
C55 H64 0.929 . S
C56 N53 1.346 . S
C56 C55 1.369 . S
C56 H59 0.928 . S
C57 N53 1.345 . S
C57 C58 1.371 . S
C57 H60 0.931 . S
C58 C54 1.391 . S
C58 C57 1.371 . S
C58 H65 0.930 . S
H59 C56 0.928 . S
H60 C57 0.931 . S
H61 C37 0.930 . S
H62 C34 0.930 . S
H63 C43 0.930 . S
H64 C55 0.929 . S
H65 C58 0.930 . S
C66 C67 1.351 . S
C66 N69 1.368 . S
C66 H71 0.931 . S
C67 C66 1.351 . S
C67 N68 1.373 . S
C67 H95 0.930 . S
N68 C67 1.373 . S
N68 C70 1.340 . S
N69 C66 1.368 . S
N69 C70 1.321 . S
N69 Co72 2.135 . S
C70 N68 1.340 . S
C70 N69 1.321 . S
C70 H94 0.930 . S
H71 C66 0.931 . S
Co72 N69 2.135 . S
Co72 N75 2.121 . S
Co72 O80 2.055 . S
Co72 O83 2.039 . S
Co72 N86 2.140 . S
C73 O74 1.227 . S
C73 O83 1.265 1_556 S
O74 C73 1.227 . S
N75 Co72 2.121 . S
N75 C77 1.375 . S
N75 C78 1.313 . S
C76 C77 1.338 . S
C76 N79 1.377 . S
C76 H96 0.930 . S
C77 N75 1.375 . S
C77 C76 1.338 . S
C77 H81 0.931 . S
C78 N75 1.313 . S
C78 N79 1.344 . S
C78 H82 0.930 . S
N79 C76 1.377 . S
N79 C78 1.344 . S
O80 Co72 2.055 . S
O80 C84 1.253 . S
H81 C77 0.931 . S
H82 C78 0.930 . S
O83 Co72 2.039 . S
O83 C73 1.265 1_554 S
C84 O80 1.253 . S
C84 O85 1.227 . S
O85 C84 1.227 . S
N86 Co72 2.140 . S
N86 C89 1.346 . S
N86 C90 1.345 . S
C87 C88 1.387 . S
C87 C91 1.391 . S
C88 C87 1.387 . S
C88 C89 1.369 . S
C88 H97 0.929 . S
C89 N86 1.346 . S
C89 C88 1.369 . S
C89 H92 0.928 . S
C90 N86 1.345 . S
C90 C91 1.371 . S
C90 H93 0.931 . S
C91 C87 1.391 . S
C91 C90 1.371 . S
C91 H98 0.930 . S
H92 C89 0.928 . S
H93 C90 0.931 . S
H94 C70 0.930 . S
H95 C67 0.930 . S
H96 C76 0.930 . S
H97 C88 0.929 . S
H98 C91 0.930 . S
C99 C100 1.351 . S
C99 N102 1.368 . S
C99 H104 0.931 . S
C100 C99 1.351 . S
C100 N101 1.373 . S
C100 H128 0.930 . S
N101 C100 1.373 . S
N101 C103 1.340 . S
N102 C99 1.368 . S
N102 C103 1.321 . S
N102 Co105 2.135 . S
C103 N101 1.340 . S
C103 N102 1.321 . S
C103 H127 0.930 . S
H104 C99 0.931 . S
Co105 N102 2.135 . S
Co105 N108 2.121 . S
Co105 O113 2.055 . S
Co105 O116 2.039 . S
Co105 N119 2.140 . S
C106 O107 1.227 . S
C106 O116 1.265 . S
O107 C106 1.227 . S
N108 Co105 2.121 . S
N108 C110 1.375 . S
N108 C111 1.313 . S
C109 C110 1.338 . S
C109 N112 1.377 . S
C109 H129 0.930 . S
C110 N108 1.375 . S
C110 C109 1.338 . S
C110 H114 0.931 . S
C111 N108 1.313 . S
C111 N112 1.344 . S
C111 H115 0.930 . S
N112 C109 1.377 . S
N112 C111 1.344 . S
O113 Co105 2.055 . S
O113 C117 1.253 . S
H114 C110 0.931 . S
H115 C111 0.930 . S
O116 Co105 2.039 . S
O116 C106 1.265 . S
C117 O113 1.253 . S
C117 O118 1.227 . S
O118 C117 1.227 . S
N119 Co105 2.140 . S
N119 C122 1.346 . S
N119 C123 1.345 . S
C120 C121 1.387 . S
C120 C124 1.391 . S
C121 C120 1.387 . S
C121 C122 1.369 . S
C121 H130 0.929 . S
C122 N119 1.346 . S
C122 C121 1.369 . S
C122 H125 0.928 . S
C123 N119 1.345 . S
C123 C124 1.371 . S
C123 H126 0.931 . S
C124 C120 1.391 . S
C124 C123 1.371 . S
C124 H131 0.930 . S
H125 C122 0.928 . S
H126 C123 0.931 . S
H127 C103 0.930 . S
H128 C100 0.930 . S
H129 C109 0.930 . S
H130 C121 0.929 . S
H131 C124 0.930 . S
C132 C133 1.351 . S
C132 N135 1.368 . S
C132 H137 0.931 . S
C133 C132 1.351 . S
C133 N134 1.373 . S
C133 H161 0.930 . S
N134 C133 1.373 . S
N134 C136 1.340 . S
N135 C132 1.368 . S
N135 C136 1.321 . S
N135 Co138 2.135 . S
C136 N134 1.340 . S
C136 N135 1.321 . S
C136 H160 0.930 . S
H137 C132 0.931 . S
Co138 N135 2.135 . S
Co138 N141 2.121 . S
Co138 O146 2.055 . S
Co138 O149 2.039 . S
Co138 N152 2.140 . S
C139 O140 1.227 . S
C139 O149 1.265 . S
O140 C139 1.227 . S
N141 Co138 2.121 . S
N141 C143 1.375 . S
N141 C144 1.313 . S
C142 C143 1.338 . S
C142 N145 1.377 . S
C142 H162 0.930 . S
C143 N141 1.375 . S
C143 C142 1.338 . S
C143 H147 0.931 . S
C144 N141 1.313 . S
C144 N145 1.344 . S
C144 H148 0.930 . S
N145 C142 1.377 . S
N145 C144 1.344 . S
O146 Co138 2.055 . S
O146 C150 1.253 . S
H147 C143 0.931 . S
H148 C144 0.930 . S
O149 Co138 2.039 . S
O149 C139 1.265 . S
C150 O146 1.253 . S
C150 O151 1.227 . S
O151 C150 1.227 . S
N152 Co138 2.140 . S
N152 C155 1.346 . S
N152 C156 1.345 . S
C153 C154 1.387 . S
C153 C157 1.391 . S
C154 C153 1.387 . S
C154 C155 1.369 . S
C154 H163 0.929 . S
C155 N152 1.346 . S
C155 C154 1.369 . S
C155 H158 0.928 . S
C156 N152 1.345 . S
C156 C157 1.371 . S
C156 H159 0.931 . S
C157 C153 1.391 . S
C157 C156 1.371 . S
C157 H164 0.930 . S
H158 C155 0.928 . S
H159 C156 0.931 . S
H160 C136 0.930 . S
H161 C133 0.930 . S
H162 C142 0.930 . S
H163 C154 0.929 . S
H164 C157 0.930 . S
C165 C166 1.351 . S
C165 N168 1.368 . S
C165 H170 0.931 . S
C166 C165 1.351 . S
C166 N167 1.373 . S
C166 H194 0.930 . S
N167 C166 1.373 . S
N167 C169 1.340 . S
N168 C165 1.368 . S
N168 C169 1.321 . S
N168 Co171 2.135 . S
C169 N167 1.340 . S
C169 N168 1.321 . S
C169 H193 0.930 . S
H170 C165 0.931 . S
Co171 N168 2.135 . S
Co171 N174 2.121 . S
Co171 O179 2.055 . S
Co171 O182 2.039 . S
Co171 N185 2.140 . S
C172 O173 1.227 . S
C172 O182 1.265 . S
O173 C172 1.227 . S
N174 Co171 2.121 . S
N174 C176 1.375 . S
N174 C177 1.313 . S
C175 C176 1.338 . S
C175 N178 1.377 . S
C175 H195 0.930 . S
C176 N174 1.375 . S
C176 C175 1.338 . S
C176 H180 0.931 . S
C177 N174 1.313 . S
C177 N178 1.344 . S
C177 H181 0.930 . S
N178 C175 1.377 . S
N178 C177 1.344 . S
O179 Co171 2.055 . S
O179 C183 1.253 . S
H180 C176 0.931 . S
H181 C177 0.930 . S
O182 Co171 2.039 . S
O182 C172 1.265 . S
C183 O179 1.253 . S
C183 O184 1.227 . S
O184 C183 1.227 . S
N185 Co171 2.140 . S
N185 C188 1.346 . S
N185 C189 1.345 . S
C186 C187 1.387 . S
C186 C190 1.391 . S
C187 C186 1.387 . S
C187 C188 1.369 . S
C187 H196 0.929 . S
C188 N185 1.346 . S
C188 C187 1.369 . S
C188 H191 0.928 . S
C189 N185 1.345 . S
C189 C190 1.371 . S
C189 H192 0.931 . S
C190 C186 1.391 . S
C190 C189 1.371 . S
C190 H197 0.930 . S
H191 C188 0.928 . S
H192 C189 0.931 . S
H193 C169 0.930 . S
H194 C166 0.930 . S
H195 C175 0.930 . S
H196 C187 0.929 . S
H197 C190 0.930 . S
C198 C199 1.351 . S
C198 N201 1.368 . S
C198 H203 0.931 . S
C199 C198 1.351 . S
C199 N200 1.373 . S
C199 H227 0.930 . S
N200 C199 1.373 . S
N200 C202 1.340 . S
N201 C198 1.368 . S
N201 C202 1.321 . S
N201 Co204 2.135 . S
C202 N200 1.340 . S
C202 N201 1.321 . S
C202 H226 0.930 . S
H203 C198 0.931 . S
Co204 N201 2.135 . S
Co204 N207 2.121 . S
Co204 O212 2.055 . S
Co204 O215 2.039 . S
Co204 N218 2.140 . S
C205 O206 1.227 . S
C205 O215 1.265 1_554 S
O206 C205 1.227 . S
N207 Co204 2.121 . S
N207 C209 1.375 . S
N207 C210 1.313 . S
C208 C209 1.338 . S
C208 N211 1.377 . S
C208 H228 0.930 . S
C209 N207 1.375 . S
C209 C208 1.338 . S
C209 H213 0.931 . S
C210 N207 1.313 . S
C210 N211 1.344 . S
C210 H214 0.930 . S
N211 C208 1.377 . S
N211 C210 1.344 . S
O212 Co204 2.055 . S
O212 C216 1.253 . S
H213 C209 0.931 . S
H214 C210 0.930 . S
O215 Co204 2.039 . S
O215 C205 1.265 1_556 S
C216 O212 1.253 . S
C216 O217 1.227 . S
O217 C216 1.227 . S
N218 Co204 2.140 . S
N218 C221 1.346 . S
N218 C222 1.345 . S
C219 C220 1.387 . S
C219 C223 1.391 . S
C220 C219 1.387 . S
C220 C221 1.369 . S
C220 H229 0.929 . S
C221 N218 1.346 . S
C221 C220 1.369 . S
C221 H224 0.928 . S
C222 N218 1.345 . S
C222 C223 1.371 . S
C222 H225 0.931 . S
C223 C219 1.391 . S
C223 C222 1.371 . S
C223 H230 0.930 . S
H224 C221 0.928 . S
H225 C222 0.931 . S
H226 C202 0.930 . S
H227 C199 0.930 . S
H228 C208 0.930 . S
H229 C220 0.929 . S
H230 C223 0.930 . S
C231 C232 1.351 . S
C231 N234 1.368 . S
C231 H236 0.931 . S
C232 C231 1.351 . S
C232 N233 1.373 . S
C232 H260 0.930 . S
N233 C232 1.373 . S
N233 C235 1.340 . S
N234 C231 1.368 . S
N234 C235 1.321 . S
N234 Co237 2.135 . S
C235 N233 1.340 . S
C235 N234 1.321 . S
C235 H259 0.930 . S
H236 C231 0.931 . S
Co237 N234 2.135 . S
Co237 N240 2.121 . S
Co237 O245 2.055 . S
Co237 O248 2.039 . S
Co237 N251 2.140 . S
C238 O239 1.227 . S
C238 O248 1.265 1_554 S
O239 C238 1.227 . S
N240 Co237 2.121 . S
N240 C242 1.375 . S
N240 C243 1.313 . S
C241 C242 1.338 . S
C241 N244 1.377 . S
C241 H261 0.930 . S
C242 N240 1.375 . S
C242 C241 1.338 . S
C242 H246 0.931 . S
C243 N240 1.313 . S
C243 N244 1.344 . S
C243 H247 0.930 . S
N244 C241 1.377 . S
N244 C243 1.344 . S
O245 Co237 2.055 . S
O245 C249 1.253 . S
H246 C242 0.931 . S
H247 C243 0.930 . S
O248 Co237 2.039 . S
O248 C238 1.265 1_556 S
C249 O245 1.253 . S
C249 O250 1.227 . S
O250 C249 1.227 . S
N251 Co237 2.140 . S
N251 C254 1.346 . S
N251 C255 1.345 . S
C252 C253 1.387 . S
C252 C256 1.391 . S
C253 C252 1.387 . S
C253 C254 1.369 . S
C253 H262 0.929 . S
C254 N251 1.346 . S
C254 C253 1.369 . S
C254 H257 0.928 . S
C255 N251 1.345 . S
C255 C256 1.371 . S
C255 H258 0.931 . S
C256 C252 1.391 . S
C256 C255 1.371 . S
C256 H263 0.930 . S
H257 C254 0.928 . S
H258 C255 0.931 . S
H259 C235 0.930 . S
H260 C232 0.930 . S
H261 C241 0.930 . S
H262 C253 0.929 . S
H263 C256 0.930 . S
C264 C265 1.351 . S
C264 N267 1.368 . S
C264 H269 0.931 . S
C265 C264 1.351 . S
C265 N266 1.373 . S
C265 H293 0.930 . S
N266 C265 1.373 . S
N266 C268 1.340 . S
N267 C264 1.368 . S
N267 C268 1.321 . S
N267 Co270 2.135 . S
C268 N266 1.340 . S
C268 N267 1.321 . S
C268 H292 0.930 . S
H269 C264 0.931 . S
Co270 N267 2.135 . S
Co270 N273 2.121 . S
Co270 O278 2.055 . S
Co270 O281 2.039 . S
Co270 N284 2.140 . S
C271 O272 1.227 . S
C271 O281 1.265 1_554 S
O272 C271 1.227 . S
N273 Co270 2.121 . S
N273 C275 1.375 . S
N273 C276 1.313 . S
C274 C275 1.338 . S
C274 N277 1.377 . S
C274 H294 0.930 . S
C275 N273 1.375 . S
C275 C274 1.338 . S
C275 H279 0.931 . S
C276 N273 1.313 . S
C276 N277 1.344 . S
C276 H280 0.930 . S
N277 C274 1.377 . S
N277 C276 1.344 . S
O278 Co270 2.055 . S
O278 C282 1.253 . S
H279 C275 0.931 . S
H280 C276 0.930 . S
O281 Co270 2.039 . S
O281 C271 1.265 1_556 S
C282 O278 1.253 . S
C282 O283 1.227 . S
O283 C282 1.227 . S
N284 Co270 2.140 . S
N284 C287 1.346 . S
N284 C288 1.345 . S
C285 C286 1.387 . S
C285 C289 1.391 . S
C286 C285 1.387 . S
C286 C287 1.369 . S
C286 H295 0.929 . S
C287 N284 1.346 . S
C287 C286 1.369 . S
C287 H290 0.928 . S
C288 N284 1.345 . S
C288 C289 1.371 . S
C288 H291 0.931 . S
C289 C285 1.391 . S
C289 C288 1.371 . S
C289 H296 0.930 . S
H290 C287 0.928 . S
H291 C288 0.931 . S
H292 C268 0.930 . S
H293 C265 0.930 . S
H294 C274 0.930 . S
H295 C286 0.929 . S
H296 C289 0.930 . S
C297 C298 1.351 . S
C297 N300 1.368 . S
C297 H302 0.931 . S
C298 C297 1.351 . S
C298 N299 1.373 . S
C298 H326 0.930 . S
N299 C298 1.373 . S
N299 C301 1.340 . S
N300 C297 1.368 . S
N300 C301 1.321 . S
N300 Co303 2.135 . S
C301 N299 1.340 . S
C301 N300 1.321 . S
C301 H325 0.930 . S
H302 C297 0.931 . S
Co303 N300 2.135 . S
Co303 N306 2.121 . S
Co303 O311 2.055 . S
Co303 O314 2.039 . S
Co303 N317 2.140 . S
C304 O305 1.227 . S
C304 O314 1.265 . S
O305 C304 1.227 . S
N306 Co303 2.121 . S
N306 C308 1.375 . S
N306 C309 1.313 . S
C307 C308 1.338 . S
C307 N310 1.377 . S
C307 H327 0.930 . S
C308 N306 1.375 . S
C308 C307 1.338 . S
C308 H312 0.931 . S
C309 N306 1.313 . S
C309 N310 1.344 . S
C309 H313 0.930 . S
N310 C307 1.377 . S
N310 C309 1.344 . S
O311 Co303 2.055 . S
O311 C315 1.253 . S
H312 C308 0.931 . S
H313 C309 0.930 . S
O314 Co303 2.039 . S
O314 C304 1.265 . S
C315 O311 1.253 . S
C315 O316 1.227 . S
O316 C315 1.227 . S
N317 Co303 2.140 . S
N317 C320 1.346 . S
N317 C321 1.345 . S
C318 C319 1.387 . S
C318 C322 1.391 . S
C319 C318 1.387 . S
C319 C320 1.369 . S
C319 H328 0.929 . S
C320 N317 1.346 . S
C320 C319 1.369 . S
C320 H323 0.928 . S
C321 N317 1.345 . S
C321 C322 1.371 . S
C321 H324 0.931 . S
C322 C318 1.391 . S
C322 C321 1.371 . S
C322 H329 0.930 . S
H323 C320 0.928 . S
H324 C321 0.931 . S
H325 C301 0.930 . S
H326 C298 0.930 . S
H327 C307 0.930 . S
H328 C319 0.929 . S
H329 C322 0.930 . S
C330 C331 1.351 . S
C330 N333 1.368 . S
C330 H335 0.931 . S
C331 C330 1.351 . S
C331 N332 1.373 . S
C331 H359 0.930 . S
N332 C331 1.373 . S
N332 C334 1.340 . S
N333 C330 1.368 . S
N333 C334 1.321 . S
N333 Co336 2.135 . S
C334 N332 1.340 . S
C334 N333 1.321 . S
C334 H358 0.930 . S
H335 C330 0.931 . S
Co336 N333 2.135 . S
Co336 N339 2.121 . S
Co336 O344 2.055 . S
Co336 O347 2.039 . S
Co336 N350 2.140 . S
C337 O338 1.227 . S
C337 O347 1.265 . S
O338 C337 1.227 . S
N339 Co336 2.121 . S
N339 C341 1.375 . S
N339 C342 1.313 . S
C340 C341 1.338 . S
C340 N343 1.377 . S
C340 H360 0.930 . S
C341 N339 1.375 . S
C341 C340 1.338 . S
C341 H345 0.931 . S
C342 N339 1.313 . S
C342 N343 1.344 . S
C342 H346 0.930 . S
N343 C340 1.377 . S
N343 C342 1.344 . S
O344 Co336 2.055 . S
O344 C348 1.253 . S
H345 C341 0.931 . S
H346 C342 0.930 . S
O347 Co336 2.039 . S
O347 C337 1.265 . S
C348 O344 1.253 . S
C348 O349 1.227 . S
O349 C348 1.227 . S
N350 Co336 2.140 . S
N350 C353 1.346 . S
N350 C354 1.345 . S
C351 C352 1.387 . S
C351 C355 1.391 . S
C352 C351 1.387 . S
C352 C353 1.369 . S
C352 H361 0.929 . S
C353 N350 1.346 . S
C353 C352 1.369 . S
C353 H356 0.928 . S
C354 N350 1.345 . S
C354 C355 1.371 . S
C354 H357 0.931 . S
C355 C351 1.391 . S
C355 C354 1.371 . S
C355 H362 0.930 . S
H356 C353 0.928 . S
H357 C354 0.931 . S
H358 C334 0.930 . S
H359 C331 0.930 . S
H360 C340 0.930 . S
H361 C352 0.929 . S
H362 C355 0.930 . S
C363 C364 1.351 . S
C363 N366 1.368 . S
C363 H368 0.931 . S
C364 C363 1.351 . S
C364 N365 1.373 . S
C364 H392 0.930 . S
N365 C364 1.373 . S
N365 C367 1.340 . S
N366 C363 1.368 . S
N366 C367 1.321 . S
N366 Co369 2.135 . S
C367 N365 1.340 . S
C367 N366 1.321 . S
C367 H391 0.930 . S
H368 C363 0.931 . S
Co369 N366 2.135 . S
Co369 N372 2.121 . S
Co369 O377 2.055 . S
Co369 O380 2.039 . S
Co369 N383 2.140 . S
C370 O371 1.227 . S
C370 O380 1.265 . S
O371 C370 1.227 . S
N372 Co369 2.121 . S
N372 C374 1.375 . S
N372 C375 1.313 . S
C373 C374 1.338 . S
C373 N376 1.377 . S
C373 H393 0.930 . S
C374 N372 1.375 . S
C374 C373 1.338 . S
C374 H378 0.931 . S
C375 N372 1.313 . S
C375 N376 1.344 . S
C375 H379 0.930 . S
N376 C373 1.377 . S
N376 C375 1.344 . S
O377 Co369 2.055 . S
O377 C381 1.253 . S
H378 C374 0.931 . S
H379 C375 0.930 . S
O380 Co369 2.039 . S
O380 C370 1.265 . S
C381 O377 1.253 . S
C381 O382 1.227 . S
O382 C381 1.227 . S
N383 Co369 2.140 . S
N383 C386 1.346 . S
N383 C387 1.345 . S
C384 C385 1.387 . S
C384 C388 1.391 . S
C385 C384 1.387 . S
C385 C386 1.369 . S
C385 H394 0.929 . S
C386 N383 1.346 . S
C386 C385 1.369 . S
C386 H389 0.928 . S
C387 N383 1.345 . S
C387 C388 1.371 . S
C387 H390 0.931 . S
C388 C384 1.391 . S
C388 C387 1.371 . S
C388 H395 0.930 . S
H389 C386 0.928 . S
H390 C387 0.931 . S
H391 C367 0.930 . S
H392 C364 0.930 . S
H393 C373 0.930 . S
H394 C385 0.929 . S
H395 C388 0.930 . S
C396 C397 1.351 . S
C396 N399 1.368 . S
C396 H401 0.931 . S
C397 C396 1.351 . S
C397 N398 1.373 . S
C397 H425 0.930 . S
N398 C397 1.373 . S
N398 C400 1.340 . S
N399 C396 1.368 . S
N399 C400 1.321 . S
N399 Co402 2.135 . S
C400 N398 1.340 . S
C400 N399 1.321 . S
C400 H424 0.930 . S
H401 C396 0.931 . S
Co402 N399 2.135 . S
Co402 N405 2.121 . S
Co402 O410 2.055 . S
Co402 O413 2.039 . S
Co402 N416 2.140 . S
C403 O404 1.227 . S
C403 O413 1.265 . S
O404 C403 1.227 . S
N405 Co402 2.121 . S
N405 C407 1.375 . S
N405 C408 1.313 . S
C406 C407 1.338 . S
C406 N409 1.377 . S
C406 H426 0.930 . S
C407 N405 1.375 . S
C407 C406 1.338 . S
C407 H411 0.931 . S
C408 N405 1.313 . S
C408 N409 1.344 . S
C408 H412 0.930 . S
N409 C406 1.377 . S
N409 C408 1.344 . S
O410 Co402 2.055 . S
O410 C414 1.253 . S
H411 C407 0.931 . S
H412 C408 0.930 . S
O413 Co402 2.039 . S
O413 C403 1.265 . S
C414 O410 1.253 . S
C414 O415 1.227 . S
O415 C414 1.227 . S
N416 Co402 2.140 . S
N416 C419 1.346 . S
N416 C420 1.345 . S
C417 C418 1.387 . S
C417 C421 1.391 . S
C418 C417 1.387 . S
C418 C419 1.369 . S
C418 H427 0.929 . S
C419 N416 1.346 . S
C419 C418 1.369 . S
C419 H422 0.928 . S
C420 N416 1.345 . S
C420 C421 1.371 . S
C420 H423 0.931 . S
C421 C417 1.391 . S
C421 C420 1.371 . S
C421 H428 0.930 . S
H422 C419 0.928 . S
H423 C420 0.931 . S
H424 C400 0.930 . S
H425 C397 0.930 . S
H426 C406 0.930 . S
H427 C418 0.929 . S
H428 C421 0.930 . S
C429 C430 1.351 . S
C429 N432 1.368 . S
C429 H434 0.931 . S
C430 C429 1.351 . S
C430 N431 1.373 . S
C430 H458 0.930 . S
N431 C430 1.373 . S
N431 C433 1.340 . S
N432 C429 1.368 . S
N432 C433 1.321 . S
N432 Co435 2.135 . S
C433 N431 1.340 . S
C433 N432 1.321 . S
C433 H457 0.930 . S
H434 C429 0.931 . S
Co435 N432 2.135 . S
Co435 N438 2.121 . S
Co435 O443 2.055 . S
Co435 O446 2.039 . S
Co435 N449 2.140 . S
C436 O437 1.227 . S
C436 O446 1.265 . S
O437 C436 1.227 . S
N438 Co435 2.121 . S
N438 C440 1.375 . S
N438 C441 1.313 . S
C439 C440 1.338 . S
C439 N442 1.377 . S
C439 H459 0.930 . S
C440 N438 1.375 . S
C440 C439 1.338 . S
C440 H444 0.931 . S
C441 N438 1.313 . S
C441 N442 1.344 . S
C441 H445 0.930 . S
N442 C439 1.377 . S
N442 C441 1.344 . S
O443 Co435 2.055 . S
O443 C447 1.253 . S
H444 C440 0.931 . S
H445 C441 0.930 . S
O446 Co435 2.039 . S
O446 C436 1.265 . S
C447 O443 1.253 . S
C447 O448 1.227 . S
O448 C447 1.227 . S
N449 Co435 2.140 . S
N449 C452 1.346 . S
N449 C453 1.345 . S
C450 C451 1.387 . S
C450 C454 1.391 . S
C451 C450 1.387 . S
C451 C452 1.369 . S
C451 H460 0.929 . S
C452 N449 1.346 . S
C452 C451 1.369 . S
C452 H455 0.928 . S
C453 N449 1.345 . S
C453 C454 1.371 . S
C453 H456 0.931 . S
C454 C450 1.391 . S
C454 C453 1.371 . S
C454 H461 0.930 . S
H455 C452 0.928 . S
H456 C453 0.931 . S
H457 C433 0.930 . S
H458 C430 0.930 . S
H459 C439 0.930 . S
H460 C451 0.929 . S
H461 C454 0.930 . S
C462 C463 1.351 . S
C462 N465 1.368 . S
C462 H467 0.931 . S
C463 C462 1.351 . S
C463 N464 1.373 . S
C463 H491 0.930 . S
N464 C463 1.373 . S
N464 C466 1.340 . S
N465 C462 1.368 . S
N465 C466 1.321 . S
N465 Co468 2.135 . S
C466 N464 1.340 . S
C466 N465 1.321 . S
C466 H490 0.930 . S
H467 C462 0.931 . S
Co468 N465 2.135 . S
Co468 N471 2.121 . S
Co468 O476 2.055 . S
Co468 O479 2.039 . S
Co468 N482 2.140 . S
C469 O470 1.227 . S
C469 O479 1.265 . S
O470 C469 1.227 . S
N471 Co468 2.121 . S
N471 C473 1.375 . S
N471 C474 1.313 . S
C472 C473 1.338 . S
C472 N475 1.377 . S
C472 H492 0.930 . S
C473 N471 1.375 . S
C473 C472 1.338 . S
C473 H477 0.931 . S
C474 N471 1.313 . S
C474 N475 1.344 . S
C474 H478 0.930 . S
N475 C472 1.377 . S
N475 C474 1.344 . S
O476 Co468 2.055 . S
O476 C480 1.253 . S
H477 C473 0.931 . S
H478 C474 0.930 . S
O479 Co468 2.039 . S
O479 C469 1.265 . S
C480 O476 1.253 . S
C480 O481 1.227 . S
O481 C480 1.227 . S
N482 Co468 2.140 . S
N482 C485 1.346 . S
N482 C486 1.345 . S
C483 C484 1.387 . S
C483 C487 1.391 . S
C484 C483 1.387 . S
C484 C485 1.369 . S
C484 H493 0.929 . S
C485 N482 1.346 . S
C485 C484 1.369 . S
C485 H488 0.928 . S
C486 N482 1.345 . S
C486 C487 1.371 . S
C486 H489 0.931 . S
C487 C483 1.391 . S
C487 C486 1.371 . S
C487 H494 0.930 . S
H488 C485 0.928 . S
H489 C486 0.931 . S
H490 C466 0.930 . S
H491 C463 0.930 . S
H492 C472 0.930 . S
H493 C484 0.929 . S
H494 C487 0.930 . S
C495 C496 1.351 . S
C495 N498 1.368 . S
C495 H500 0.931 . S
C496 C495 1.351 . S
C496 N497 1.373 . S
C496 H524 0.930 . S
N497 C496 1.373 . S
N497 C499 1.340 . S
N498 C495 1.368 . S
N498 C499 1.321 . S
N498 Co501 2.135 . S
C499 N497 1.340 . S
C499 N498 1.321 . S
C499 H523 0.930 . S
H500 C495 0.931 . S
Co501 N498 2.135 . S
Co501 N504 2.121 . S
Co501 O509 2.055 . S
Co501 O512 2.039 . S
Co501 N515 2.140 . S
C502 O503 1.227 . S
C502 O512 1.265 . S
O503 C502 1.227 . S
N504 Co501 2.121 . S
N504 C506 1.375 . S
N504 C507 1.313 . S
C505 C506 1.338 . S
C505 N508 1.377 . S
C505 H525 0.930 . S
C506 N504 1.375 . S
C506 C505 1.338 . S
C506 H510 0.931 . S
C507 N504 1.313 . S
C507 N508 1.344 . S
C507 H511 0.930 . S
N508 C505 1.377 . S
N508 C507 1.344 . S
O509 Co501 2.055 . S
O509 C513 1.253 . S
H510 C506 0.931 . S
H511 C507 0.930 . S
O512 Co501 2.039 . S
O512 C502 1.265 . S
C513 O509 1.253 . S
C513 O514 1.227 . S
O514 C513 1.227 . S
N515 Co501 2.140 . S
N515 C518 1.346 . S
N515 C519 1.345 . S
C516 C517 1.387 . S
C516 C520 1.391 . S
C517 C516 1.387 . S
C517 C518 1.369 . S
C517 H526 0.929 . S
C518 N515 1.346 . S
C518 C517 1.369 . S
C518 H521 0.928 . S
C519 N515 1.345 . S
C519 C520 1.371 . S
C519 H522 0.931 . S
C520 C516 1.391 . S
C520 C519 1.371 . S
C520 H527 0.930 . S
H521 C518 0.928 . S
H522 C519 0.931 . S
H523 C499 0.930 . S
H524 C496 0.930 . S
H525 C505 0.930 . S
H526 C517 0.929 . S
H527 C520 0.930 . S
C528 C529 1.351 . S
C528 N531 1.368 . S
C528 H533 0.931 . S
C529 C528 1.351 . S
C529 N530 1.373 . S
C529 H557 0.930 . S
N530 C529 1.373 . S
N530 C532 1.340 . S
N531 C528 1.368 . S
N531 C532 1.321 . S
N531 Co534 2.135 . S
C532 N530 1.340 . S
C532 N531 1.321 . S
C532 H556 0.930 . S
H533 C528 0.931 . S
Co534 N531 2.135 . S
Co534 N537 2.121 . S
Co534 O542 2.055 . S
Co534 O545 2.039 . S
Co534 N548 2.140 . S
C535 O536 1.227 . S
C535 O545 1.265 . S
O536 C535 1.227 . S
N537 Co534 2.121 . S
N537 C539 1.375 . S
N537 C540 1.313 . S
C538 C539 1.338 . S
C538 N541 1.377 . S
C538 H558 0.930 . S
C539 N537 1.375 . S
C539 C538 1.338 . S
C539 H543 0.931 . S
C540 N537 1.313 . S
C540 N541 1.344 . S
C540 H544 0.930 . S
N541 C538 1.377 . S
N541 C540 1.344 . S
O542 Co534 2.055 . S
O542 C546 1.253 . S
H543 C539 0.931 . S
H544 C540 0.930 . S
O545 Co534 2.039 . S
O545 C535 1.265 . S
C546 O542 1.253 . S
C546 O547 1.227 . S
O547 C546 1.227 . S
N548 Co534 2.140 . S
N548 C551 1.346 . S
N548 C552 1.345 . S
C549 C550 1.387 . S
C549 C553 1.391 . S
C550 C549 1.387 . S
C550 C551 1.369 . S
C550 H559 0.929 . S
C551 N548 1.346 . S
C551 C550 1.369 . S
C551 H554 0.928 . S
C552 N548 1.345 . S
C552 C553 1.371 . S
C552 H555 0.931 . S
C553 C549 1.391 . S
C553 C552 1.371 . S
C553 H560 0.930 . S
H554 C551 0.928 . S
H555 C552 0.931 . S
H556 C532 0.930 . S
H557 C529 0.930 . S
H558 C538 0.930 . S
H559 C550 0.929 . S
H560 C553 0.930 . S
C561 C562 1.351 . S
C561 N564 1.368 . S
C561 H566 0.931 . S
C562 C561 1.351 . S
C562 N563 1.373 . S
C562 H590 0.930 . S
N563 C562 1.373 . S
N563 C565 1.340 . S
N564 C561 1.368 . S
N564 C565 1.321 . S
N564 Co567 2.135 . S
C565 N563 1.340 . S
C565 N564 1.321 . S
C565 H589 0.930 . S
H566 C561 0.931 . S
Co567 N564 2.135 . S
Co567 N570 2.121 . S
Co567 O575 2.055 . S
Co567 O578 2.039 . S
Co567 N581 2.140 . S
C568 O569 1.227 . S
C568 O578 1.265 . S
O569 C568 1.227 . S
N570 Co567 2.121 . S
N570 C572 1.375 . S
N570 C573 1.313 . S
C571 C572 1.338 . S
C571 N574 1.377 . S
C571 H591 0.930 . S
C572 N570 1.375 . S
C572 C571 1.338 . S
C572 H576 0.931 . S
C573 N570 1.313 . S
C573 N574 1.344 . S
C573 H577 0.930 . S
N574 C571 1.377 . S
N574 C573 1.344 . S
O575 Co567 2.055 . S
O575 C579 1.253 . S
H576 C572 0.931 . S
H577 C573 0.930 . S
O578 Co567 2.039 . S
O578 C568 1.265 . S
C579 O575 1.253 . S
C579 O580 1.227 . S
O580 C579 1.227 . S
N581 Co567 2.140 . S
N581 C584 1.346 . S
N581 C585 1.345 . S
C582 C583 1.387 . S
C582 C586 1.391 . S
C583 C582 1.387 . S
C583 C584 1.369 . S
C583 H592 0.929 . S
C584 N581 1.346 . S
C584 C583 1.369 . S
C584 H587 0.928 . S
C585 N581 1.345 . S
C585 C586 1.371 . S
C585 H588 0.931 . S
C586 C582 1.391 . S
C586 C585 1.371 . S
C586 H593 0.930 . S
H587 C584 0.928 . S
H588 C585 0.931 . S
H589 C565 0.930 . S
H590 C562 0.930 . S
H591 C571 0.930 . S
H592 C583 0.929 . S
H593 C586 0.930 . S
C594 C595 1.351 . S
C594 N597 1.368 . S
C594 H599 0.931 . S
C595 C594 1.351 . S
C595 N596 1.373 . S
C595 H623 0.930 . S
N596 C595 1.373 . S
N596 C598 1.340 . S
N597 C594 1.368 . S
N597 C598 1.321 . S
N597 Co600 2.135 . S
C598 N596 1.340 . S
C598 N597 1.321 . S
C598 H622 0.930 . S
H599 C594 0.931 . S
Co600 N597 2.135 . S
Co600 N603 2.121 . S
Co600 O608 2.055 . S
Co600 O611 2.039 . S
Co600 N614 2.140 . S
C601 O602 1.227 . S
C601 O611 1.265 . S
O602 C601 1.227 . S
N603 Co600 2.121 . S
N603 C605 1.375 . S
N603 C606 1.313 . S
C604 C605 1.338 . S
C604 N607 1.377 . S
C604 H624 0.930 . S
C605 N603 1.375 . S
C605 C604 1.338 . S
C605 H609 0.931 . S
C606 N603 1.313 . S
C606 N607 1.344 . S
C606 H610 0.930 . S
N607 C604 1.377 . S
N607 C606 1.344 . S
O608 Co600 2.055 . S
O608 C612 1.253 . S
H609 C605 0.931 . S
H610 C606 0.930 . S
O611 Co600 2.039 . S
O611 C601 1.265 . S
C612 O608 1.253 . S
C612 O613 1.227 . S
O613 C612 1.227 . S
N614 Co600 2.140 . S
N614 C617 1.346 . S
N614 C618 1.345 . S
C615 C616 1.387 . S
C615 C619 1.391 . S
C616 C615 1.387 . S
C616 C617 1.369 . S
C616 H625 0.929 . S
C617 N614 1.346 . S
C617 C616 1.369 . S
C617 H620 0.928 . S
C618 N614 1.345 . S
C618 C619 1.371 . S
C618 H621 0.931 . S
C619 C615 1.391 . S
C619 C618 1.371 . S
C619 H626 0.930 . S
H620 C617 0.928 . S
H621 C618 0.931 . S
H622 C598 0.930 . S
H623 C595 0.930 . S
H624 C604 0.930 . S
H625 C616 0.929 . S
H626 C619 0.930 . S
C627 C628 1.351 . S
C627 N630 1.368 . S
C627 H632 0.931 . S
C628 C627 1.351 . S
C628 N629 1.373 . S
C628 H656 0.930 . S
N629 C628 1.373 . S
N629 C631 1.340 . S
N630 C627 1.368 . S
N630 C631 1.321 . S
N630 Co633 2.135 . S
C631 N629 1.340 . S
C631 N630 1.321 . S
C631 H655 0.930 . S
H632 C627 0.931 . S
Co633 N630 2.135 . S
Co633 N636 2.121 . S
Co633 O641 2.055 . S
Co633 O644 2.039 . S
Co633 N647 2.140 . S
C634 O635 1.227 . S
C634 O644 1.265 . S
O635 C634 1.227 . S
N636 Co633 2.121 . S
N636 C638 1.375 . S
N636 C639 1.313 . S
C637 C638 1.338 . S
C637 N640 1.377 . S
C637 H657 0.930 . S
C638 N636 1.375 . S
C638 C637 1.338 . S
C638 H642 0.931 . S
C639 N636 1.313 . S
C639 N640 1.344 . S
C639 H643 0.930 . S
N640 C637 1.377 . S
N640 C639 1.344 . S
O641 Co633 2.055 . S
O641 C645 1.253 . S
H642 C638 0.931 . S
H643 C639 0.930 . S
O644 Co633 2.039 . S
O644 C634 1.265 . S
C645 O641 1.253 . S
C645 O646 1.227 . S
O646 C645 1.227 . S
N647 Co633 2.140 . S
N647 C650 1.346 . S
N647 C651 1.345 . S
C648 C649 1.387 . S
C648 C652 1.391 . S
C649 C648 1.387 . S
C649 C650 1.369 . S
C649 H658 0.929 . S
C650 N647 1.346 . S
C650 C649 1.369 . S
C650 H653 0.928 . S
C651 N647 1.345 . S
C651 C652 1.371 . S
C651 H654 0.931 . S
C652 C648 1.391 . S
C652 C651 1.371 . S
C652 H659 0.930 . S
H653 C650 0.928 . S
H654 C651 0.931 . S
H655 C631 0.930 . S
H656 C628 0.930 . S
H657 C637 0.930 . S
H658 C649 0.929 . S
H659 C652 0.930 . S
C660 C661 1.351 . S
C660 N663 1.368 . S
C660 H665 0.931 . S
C661 C660 1.351 . S
C661 N662 1.373 . S
C661 H689 0.930 . S
N662 C661 1.373 . S
N662 C664 1.340 . S
N663 C660 1.368 . S
N663 C664 1.321 . S
N663 Co666 2.135 . S
C664 N662 1.340 . S
C664 N663 1.321 . S
C664 H688 0.930 . S
H665 C660 0.931 . S
Co666 N663 2.135 . S
Co666 N669 2.121 . S
Co666 O674 2.055 . S
Co666 O677 2.039 . S
Co666 N680 2.140 . S
C667 O668 1.227 . S
C667 O677 1.265 . S
O668 C667 1.227 . S
N669 Co666 2.121 . S
N669 C671 1.375 . S
N669 C672 1.313 . S
C670 C671 1.338 . S
C670 N673 1.377 . S
C670 H690 0.930 . S
C671 N669 1.375 . S
C671 C670 1.338 . S
C671 H675 0.931 . S
C672 N669 1.313 . S
C672 N673 1.344 . S
C672 H676 0.930 . S
N673 C670 1.377 . S
N673 C672 1.344 . S
O674 Co666 2.055 . S
O674 C678 1.253 . S
H675 C671 0.931 . S
H676 C672 0.930 . S
O677 Co666 2.039 . S
O677 C667 1.265 . S
C678 O674 1.253 . S
C678 O679 1.227 . S
O679 C678 1.227 . S
N680 Co666 2.140 . S
N680 C683 1.346 . S
N680 C684 1.345 . S
C681 C682 1.387 . S
C681 C685 1.391 . S
C682 C681 1.387 . S
C682 C683 1.369 . S
C682 H691 0.929 . S
C683 N680 1.346 . S
C683 C682 1.369 . S
C683 H686 0.928 . S
C684 N680 1.345 . S
C684 C685 1.371 . S
C684 H687 0.931 . S
C685 C681 1.391 . S
C685 C684 1.371 . S
C685 H692 0.930 . S
H686 C683 0.928 . S
H687 C684 0.931 . S
H688 C664 0.930 . S
H689 C661 0.930 . S
H690 C670 0.930 . S
H691 C682 0.929 . S
H692 C685 0.930 . S
C693 C694 1.351 . S
C693 N696 1.368 . S
C693 H698 0.931 . S
C694 C693 1.351 . S
C694 N695 1.373 . S
C694 H722 0.930 . S
N695 C694 1.373 . S
N695 C697 1.340 . S
N696 C693 1.368 . S
N696 C697 1.321 . S
N696 Co699 2.135 . S
C697 N695 1.340 . S
C697 N696 1.321 . S
C697 H721 0.930 . S
H698 C693 0.931 . S
Co699 N696 2.135 . S
Co699 N702 2.121 . S
Co699 O707 2.055 . S
Co699 O710 2.039 . S
Co699 N713 2.140 . S
C700 O701 1.227 . S
C700 O710 1.265 . S
O701 C700 1.227 . S
N702 Co699 2.121 . S
N702 C704 1.375 . S
N702 C705 1.313 . S
C703 C704 1.338 . S
C703 N706 1.377 . S
C703 H723 0.930 . S
C704 N702 1.375 . S
C704 C703 1.338 . S
C704 H708 0.931 . S
C705 N702 1.313 . S
C705 N706 1.344 . S
C705 H709 0.930 . S
N706 C703 1.377 . S
N706 C705 1.344 . S
O707 Co699 2.055 . S
O707 C711 1.253 . S
H708 C704 0.931 . S
H709 C705 0.930 . S
O710 Co699 2.039 . S
O710 C700 1.265 . S
C711 O707 1.253 . S
C711 O712 1.227 . S
O712 C711 1.227 . S
N713 Co699 2.140 . S
N713 C716 1.346 . S
N713 C717 1.345 . S
C714 C715 1.387 . S
C714 C718 1.391 . S
C715 C714 1.387 . S
C715 C716 1.369 . S
C715 H724 0.929 . S
C716 N713 1.346 . S
C716 C715 1.369 . S
C716 H719 0.928 . S
C717 N713 1.345 . S
C717 C718 1.371 . S
C717 H720 0.931 . S
C718 C714 1.391 . S
C718 C717 1.371 . S
C718 H725 0.930 . S
H719 C716 0.928 . S
H720 C717 0.931 . S
H721 C697 0.930 . S
H722 C694 0.930 . S
H723 C703 0.930 . S
H724 C715 0.929 . S
H725 C718 0.930 . S
C726 C727 1.351 . S
C726 N729 1.368 . S
C726 H731 0.931 . S
C727 C726 1.351 . S
C727 N728 1.373 . S
C727 H755 0.930 . S
N728 C727 1.373 . S
N728 C730 1.340 . S
N729 C726 1.368 . S
N729 C730 1.321 . S
N729 Co732 2.135 . S
C730 N728 1.340 . S
C730 N729 1.321 . S
C730 H754 0.930 . S
H731 C726 0.931 . S
Co732 N729 2.135 . S
Co732 N735 2.121 . S
Co732 O740 2.055 . S
Co732 O743 2.039 . S
Co732 N746 2.140 . S
C733 O734 1.227 . S
C733 O743 1.265 . S
O734 C733 1.227 . S
N735 Co732 2.121 . S
N735 C737 1.375 . S
N735 C738 1.313 . S
C736 C737 1.338 . S
C736 N739 1.377 . S
C736 H756 0.930 . S
C737 N735 1.375 . S
C737 C736 1.338 . S
C737 H741 0.931 . S
C738 N735 1.313 . S
C738 N739 1.344 . S
C738 H742 0.930 . S
N739 C736 1.377 . S
N739 C738 1.344 . S
O740 Co732 2.055 . S
O740 C744 1.253 . S
H741 C737 0.931 . S
H742 C738 0.930 . S
O743 Co732 2.039 . S
O743 C733 1.265 . S
C744 O740 1.253 . S
C744 O745 1.227 . S
O745 C744 1.227 . S
N746 Co732 2.140 . S
N746 C749 1.346 . S
N746 C750 1.345 . S
C747 C748 1.387 . S
C747 C751 1.391 . S
C748 C747 1.387 . S
C748 C749 1.369 . S
C748 H757 0.929 . S
C749 N746 1.346 . S
C749 C748 1.369 . S
C749 H752 0.928 . S
C750 N746 1.345 . S
C750 C751 1.371 . S
C750 H753 0.931 . S
C751 C747 1.391 . S
C751 C750 1.371 . S
C751 H758 0.930 . S
H752 C749 0.928 . S
H753 C750 0.931 . S
H754 C730 0.930 . S
H755 C727 0.930 . S
H756 C736 0.930 . S
H757 C748 0.929 . S
H758 C751 0.930 . S
C759 C760 1.351 . S
C759 N762 1.368 . S
C759 H764 0.931 . S
C760 C759 1.351 . S
C760 N761 1.373 . S
C760 H788 0.930 . S
N761 C760 1.373 . S
N761 C763 1.340 . S
N762 C759 1.368 . S
N762 C763 1.321 . S
N762 Co765 2.135 . S
C763 N761 1.340 . S
C763 N762 1.321 . S
C763 H787 0.930 . S
H764 C759 0.931 . S
Co765 N762 2.135 . S
Co765 N768 2.121 . S
Co765 O773 2.055 . S
Co765 O776 2.039 . S
Co765 N779 2.140 . S
C766 O767 1.227 . S
C766 O776 1.265 . S
O767 C766 1.227 . S
N768 Co765 2.121 . S
N768 C770 1.375 . S
N768 C771 1.313 . S
C769 C770 1.338 . S
C769 N772 1.377 . S
C769 H789 0.930 . S
C770 N768 1.375 . S
C770 C769 1.338 . S
C770 H774 0.931 . S
C771 N768 1.313 . S
C771 N772 1.344 . S
C771 H775 0.930 . S
N772 C769 1.377 . S
N772 C771 1.344 . S
O773 Co765 2.055 . S
O773 C777 1.253 . S
H774 C770 0.931 . S
H775 C771 0.930 . S
O776 Co765 2.039 . S
O776 C766 1.265 . S
C777 O773 1.253 . S
C777 O778 1.227 . S
O778 C777 1.227 . S
N779 Co765 2.140 . S
N779 C782 1.346 . S
N779 C783 1.345 . S
C780 C781 1.387 . S
C780 C784 1.391 . S
C781 C780 1.387 . S
C781 C782 1.369 . S
C781 H790 0.929 . S
C782 N779 1.346 . S
C782 C781 1.369 . S
C782 H785 0.928 . S
C783 N779 1.345 . S
C783 C784 1.371 . S
C783 H786 0.931 . S
C784 C780 1.391 . S
C784 C783 1.371 . S
C784 H791 0.930 . S
H785 C782 0.928 . S
H786 C783 0.931 . S
H787 C763 0.930 . S
H788 C760 0.930 . S
H789 C769 0.930 . S
H790 C781 0.929 . S
H791 C784 0.930 . S
C792 C793 1.351 . S
C792 N795 1.368 . S
C792 H797 0.931 . S
C793 C792 1.351 . S
C793 N794 1.373 . S
C793 H821 0.930 . S
N794 C793 1.373 . S
N794 C796 1.340 . S
N795 C792 1.368 . S
N795 C796 1.321 . S
N795 Co798 2.135 . S
C796 N794 1.340 . S
C796 N795 1.321 . S
C796 H820 0.930 . S
H797 C792 0.931 . S
Co798 N795 2.135 . S
Co798 N801 2.121 . S
Co798 O806 2.055 . S
Co798 O809 2.039 . S
Co798 N812 2.140 . S
C799 O800 1.227 . S
C799 O809 1.265 . S
O800 C799 1.227 . S
N801 Co798 2.121 . S
N801 C803 1.375 . S
N801 C804 1.313 . S
C802 C803 1.338 . S
C802 N805 1.377 . S
C802 H822 0.930 . S
C803 N801 1.375 . S
C803 C802 1.338 . S
C803 H807 0.931 . S
C804 N801 1.313 . S
C804 N805 1.344 . S
C804 H808 0.930 . S
N805 C802 1.377 . S
N805 C804 1.344 . S
O806 Co798 2.055 . S
O806 C810 1.253 . S
H807 C803 0.931 . S
H808 C804 0.930 . S
O809 Co798 2.039 . S
O809 C799 1.265 . S
C810 O806 1.253 . S
C810 O811 1.227 . S
O811 C810 1.227 . S
N812 Co798 2.140 . S
N812 C815 1.346 . S
N812 C816 1.345 . S
C813 C814 1.387 . S
C813 C817 1.391 . S
C814 C813 1.387 . S
C814 C815 1.369 . S
C814 H823 0.929 . S
C815 N812 1.346 . S
C815 C814 1.369 . S
C815 H818 0.928 . S
C816 N812 1.345 . S
C816 C817 1.371 . S
C816 H819 0.931 . S
C817 C813 1.391 . S
C817 C816 1.371 . S
C817 H824 0.930 . S
H818 C815 0.928 . S
H819 C816 0.931 . S
H820 C796 0.930 . S
H821 C793 0.930 . S
H822 C802 0.930 . S
H823 C814 0.929 . S
H824 C817 0.930 . S
C825 C826 1.351 . S
C825 N828 1.368 . S
C825 H830 0.931 . S
C826 C825 1.351 . S
C826 N827 1.373 . S
C826 H854 0.930 . S
N827 C826 1.373 . S
N827 C829 1.340 . S
N828 C825 1.368 . S
N828 C829 1.321 . S
N828 Co831 2.135 . S
C829 N827 1.340 . S
C829 N828 1.321 . S
C829 H853 0.930 . S
H830 C825 0.931 . S
Co831 N828 2.135 . S
Co831 N834 2.121 . S
Co831 O839 2.055 . S
Co831 O842 2.039 . S
Co831 N845 2.140 . S
C832 O833 1.227 . S
C832 O842 1.265 . S
O833 C832 1.227 . S
N834 Co831 2.121 . S
N834 C836 1.375 . S
N834 C837 1.313 . S
C835 C836 1.338 . S
C835 N838 1.377 . S
C835 H855 0.930 . S
C836 N834 1.375 . S
C836 C835 1.338 . S
C836 H840 0.931 . S
C837 N834 1.313 . S
C837 N838 1.344 . S
C837 H841 0.930 . S
N838 C835 1.377 . S
N838 C837 1.344 . S
O839 Co831 2.055 . S
O839 C843 1.253 . S
H840 C836 0.931 . S
H841 C837 0.930 . S
O842 Co831 2.039 . S
O842 C832 1.265 . S
C843 O839 1.253 . S
C843 O844 1.227 . S
O844 C843 1.227 . S
N845 Co831 2.140 . S
N845 C848 1.346 . S
N845 C849 1.345 . S
C846 C847 1.387 . S
C846 C850 1.391 . S
C847 C846 1.387 . S
C847 C848 1.369 . S
C847 H856 0.929 . S
C848 N845 1.346 . S
C848 C847 1.369 . S
C848 H851 0.928 . S
C849 N845 1.345 . S
C849 C850 1.371 . S
C849 H852 0.931 . S
C850 C846 1.391 . S
C850 C849 1.371 . S
C850 H857 0.930 . S
H851 C848 0.928 . S
H852 C849 0.931 . S
H853 C829 0.930 . S
H854 C826 0.930 . S
H855 C835 0.930 . S
H856 C847 0.929 . S
H857 C850 0.930 . S
C858 C859 1.351 . S
C858 N861 1.368 . S
C858 H863 0.931 . S
C859 C858 1.351 . S
C859 N860 1.373 . S
C859 H887 0.930 . S
N860 C859 1.373 . S
N860 C862 1.340 . S
N861 C858 1.368 . S
N861 C862 1.321 . S
N861 Co864 2.135 . S
C862 N860 1.340 . S
C862 N861 1.321 . S
C862 H886 0.930 . S
H863 C858 0.931 . S
Co864 N861 2.135 . S
Co864 N867 2.121 . S
Co864 O872 2.055 . S
Co864 O875 2.039 . S
Co864 N878 2.140 . S
C865 O866 1.227 . S
C865 O875 1.265 . S
O866 C865 1.227 . S
N867 Co864 2.121 . S
N867 C869 1.375 . S
N867 C870 1.313 . S
C868 C869 1.338 . S
C868 N871 1.377 . S
C868 H888 0.930 . S
C869 N867 1.375 . S
C869 C868 1.338 . S
C869 H873 0.931 . S
C870 N867 1.313 . S
C870 N871 1.344 . S
C870 H874 0.930 . S
N871 C868 1.377 . S
N871 C870 1.344 . S
O872 Co864 2.055 . S
O872 C876 1.253 . S
H873 C869 0.931 . S
H874 C870 0.930 . S
O875 Co864 2.039 . S
O875 C865 1.265 . S
C876 O872 1.253 . S
C876 O877 1.227 . S
O877 C876 1.227 . S
N878 Co864 2.140 . S
N878 C881 1.346 . S
N878 C882 1.345 . S
C879 C880 1.387 . S
C879 C883 1.391 . S
C880 C879 1.387 . S
C880 C881 1.369 . S
C880 H889 0.929 . S
C881 N878 1.346 . S
C881 C880 1.369 . S
C881 H884 0.928 . S
C882 N878 1.345 . S
C882 C883 1.371 . S
C882 H885 0.931 . S
C883 C879 1.391 . S
C883 C882 1.371 . S
C883 H890 0.930 . S
H884 C881 0.928 . S
H885 C882 0.931 . S
H886 C862 0.930 . S
H887 C859 0.930 . S
H888 C868 0.930 . S
H889 C880 0.929 . S
H890 C883 0.930 . S
C891 C892 1.351 . S
C891 N894 1.368 . S
C891 H896 0.931 . S
C892 C891 1.351 . S
C892 N893 1.373 . S
C892 H920 0.930 . S
N893 C892 1.373 . S
N893 C895 1.340 . S
N894 C891 1.368 . S
N894 C895 1.321 . S
N894 Co897 2.135 . S
C895 N893 1.340 . S
C895 N894 1.321 . S
C895 H919 0.930 . S
H896 C891 0.931 . S
Co897 N894 2.135 . S
Co897 N900 2.121 . S
Co897 O905 2.055 . S
Co897 O908 2.039 . S
Co897 N911 2.140 . S
C898 O899 1.227 . S
C898 O908 1.265 . S
O899 C898 1.227 . S
N900 Co897 2.121 . S
N900 C902 1.375 . S
N900 C903 1.313 . S
C901 C902 1.338 . S
C901 N904 1.377 . S
C901 H921 0.930 . S
C902 N900 1.375 . S
C902 C901 1.338 . S
C902 H906 0.931 . S
C903 N900 1.313 . S
C903 N904 1.344 . S
C903 H907 0.930 . S
N904 C901 1.377 . S
N904 C903 1.344 . S
O905 Co897 2.055 . S
O905 C909 1.253 . S
H906 C902 0.931 . S
H907 C903 0.930 . S
O908 Co897 2.039 . S
O908 C898 1.265 . S
C909 O905 1.253 . S
C909 O910 1.227 . S
O910 C909 1.227 . S
N911 Co897 2.140 . S
N911 C914 1.346 . S
N911 C915 1.345 . S
C912 C913 1.387 . S
C912 C916 1.391 . S
C913 C912 1.387 . S
C913 C914 1.369 . S
C913 H922 0.929 . S
C914 N911 1.346 . S
C914 C913 1.369 . S
C914 H917 0.928 . S
C915 N911 1.345 . S
C915 C916 1.371 . S
C915 H918 0.931 . S
C916 C912 1.391 . S
C916 C915 1.371 . S
C916 H923 0.930 . S
H917 C914 0.928 . S
H918 C915 0.931 . S
H919 C895 0.930 . S
H920 C892 0.930 . S
H921 C901 0.930 . S
H922 C913 0.929 . S
H923 C916 0.930 . S
C924 C925 1.351 . S
C924 N927 1.368 . S
C924 H929 0.931 . S
C925 C924 1.351 . S
C925 N926 1.373 . S
C925 H953 0.930 . S
N926 C925 1.373 . S
N926 C928 1.340 . S
N927 C924 1.368 . S
N927 C928 1.321 . S
N927 Co930 2.135 . S
C928 N926 1.340 . S
C928 N927 1.321 . S
C928 H952 0.930 . S
H929 C924 0.931 . S
Co930 N927 2.135 . S
Co930 N933 2.121 . S
Co930 O938 2.055 . S
Co930 O941 2.039 . S
Co930 N944 2.140 . S
C931 O932 1.227 . S
C931 O941 1.265 . S
O932 C931 1.227 . S
N933 Co930 2.121 . S
N933 C935 1.375 . S
N933 C936 1.313 . S
C934 C935 1.338 . S
C934 N937 1.377 . S
C934 H954 0.930 . S
C935 N933 1.375 . S
C935 C934 1.338 . S
C935 H939 0.931 . S
C936 N933 1.313 . S
C936 N937 1.344 . S
C936 H940 0.930 . S
N937 C934 1.377 . S
N937 C936 1.344 . S
O938 Co930 2.055 . S
O938 C942 1.253 . S
H939 C935 0.931 . S
H940 C936 0.930 . S
O941 Co930 2.039 . S
O941 C931 1.265 . S
C942 O938 1.253 . S
C942 O943 1.227 . S
O943 C942 1.227 . S
N944 Co930 2.140 . S
N944 C947 1.346 . S
N944 C948 1.345 . S
C945 C946 1.387 . S
C945 C949 1.391 . S
C946 C945 1.387 . S
C946 C947 1.369 . S
C946 H955 0.929 . S
C947 N944 1.346 . S
C947 C946 1.369 . S
C947 H950 0.928 . S
C948 N944 1.345 . S
C948 C949 1.371 . S
C948 H951 0.931 . S
C949 C945 1.391 . S
C949 C948 1.371 . S
C949 H956 0.930 . S
H950 C947 0.928 . S
H951 C948 0.931 . S
H952 C928 0.930 . S
H953 C925 0.930 . S
H954 C934 0.930 . S
H955 C946 0.929 . S
H956 C949 0.930 . S
C957 C958 1.351 . S
C957 N960 1.368 . S
C957 H962 0.931 . S
C958 C957 1.351 . S
C958 N959 1.373 . S
C958 H986 0.930 . S
N959 C958 1.373 . S
N959 C961 1.340 . S
N960 C957 1.368 . S
N960 C961 1.321 . S
N960 Co963 2.135 . S
C961 N959 1.340 . S
C961 N960 1.321 . S
C961 H985 0.930 . S
H962 C957 0.931 . S
Co963 N960 2.135 . S
Co963 N966 2.121 . S
Co963 O971 2.055 . S
Co963 O974 2.039 . S
Co963 N977 2.140 . S
C964 O965 1.227 . S
C964 O974 1.265 . S
O965 C964 1.227 . S
N966 Co963 2.121 . S
N966 C968 1.375 . S
N966 C969 1.313 . S
C967 C968 1.338 . S
C967 N970 1.377 . S
C967 H987 0.930 . S
C968 N966 1.375 . S
C968 C967 1.338 . S
C968 H972 0.931 . S
C969 N966 1.313 . S
C969 N970 1.344 . S
C969 H973 0.930 . S
N970 C967 1.377 . S
N970 C969 1.344 . S
O971 Co963 2.055 . S
O971 C975 1.253 . S
H972 C968 0.931 . S
H973 C969 0.930 . S
O974 Co963 2.039 . S
O974 C964 1.265 . S
C975 O971 1.253 . S
C975 O976 1.227 . S
O976 C975 1.227 . S
N977 Co963 2.140 . S
N977 C980 1.346 . S
N977 C981 1.345 . S
C978 C979 1.387 . S
C978 C982 1.391 . S
C979 C978 1.387 . S
C979 C980 1.369 . S
C979 H988 0.929 . S
C980 N977 1.346 . S
C980 C979 1.369 . S
C980 H983 0.928 . S
C981 N977 1.345 . S
C981 C982 1.371 . S
C981 H984 0.931 . S
C982 C978 1.391 . S
C982 C981 1.371 . S
C982 H989 0.930 . S
H983 C980 0.928 . S
H984 C981 0.931 . S
H985 C961 0.930 . S
H986 C958 0.930 . S
H987 C967 0.930 . S
H988 C979 0.929 . S
H989 C982 0.930 . S
C990 C991 1.351 . S
C990 N993 1.368 . S
C990 H995 0.931 . S
C991 C990 1.351 . S
C991 N992 1.373 . S
C991 H1019 0.930 . S
N992 C991 1.373 . S
N992 C994 1.340 . S
N993 C990 1.368 . S
N993 C994 1.321 . S
N993 Co996 2.135 . S
C994 N992 1.340 . S
C994 N993 1.321 . S
C994 H1018 0.930 . S
H995 C990 0.931 . S
Co996 N993 2.135 . S
Co996 N999 2.121 . S
Co996 O1004 2.055 . S
Co996 O1007 2.039 . S
Co996 N1010 2.140 . S
C997 O998 1.227 . S
C997 O1007 1.265 . S
O998 C997 1.227 . S
N999 Co996 2.121 . S
N999 C1001 1.375 . S
N999 C1002 1.313 . S
C1000 C1001 1.338 . S
C1000 N1003 1.377 . S
C1000 H1020 0.930 . S
C1001 N999 1.375 . S
C1001 C1000 1.338 . S
C1001 H1005 0.931 . S
C1002 N999 1.313 . S
C1002 N1003 1.344 . S
C1002 H1006 0.930 . S
N1003 C1000 1.377 . S
N1003 C1002 1.344 . S
O1004 Co996 2.055 . S
O1004 C1008 1.253 . S
H1005 C1001 0.931 . S
H1006 C1002 0.930 . S
O1007 Co996 2.039 . S
O1007 C997 1.265 . S
C1008 O1004 1.253 . S
C1008 O1009 1.227 . S
O1009 C1008 1.227 . S
N1010 Co996 2.140 . S
N1010 C1013 1.346 . S
N1010 C1014 1.345 . S
C1011 C1012 1.387 . S
C1011 C1015 1.391 . S
C1012 C1011 1.387 . S
C1012 C1013 1.369 . S
C1012 H1021 0.929 . S
C1013 N1010 1.346 . S
C1013 C1012 1.369 . S
C1013 H1016 0.928 . S
C1014 N1010 1.345 . S
C1014 C1015 1.371 . S
C1014 H1017 0.931 . S
C1015 C1011 1.391 . S
C1015 C1014 1.371 . S
C1015 H1022 0.930 . S
H1016 C1013 0.928 . S
H1017 C1014 0.931 . S
H1018 C994 0.930 . S
H1019 C991 0.930 . S
H1020 C1000 0.930 . S
H1021 C1012 0.929 . S
H1022 C1015 0.930 . S
C1023 C1024 1.351 . S
C1023 N1026 1.368 . S
C1023 H1028 0.931 . S
C1024 C1023 1.351 . S
C1024 N1025 1.373 . S
C1024 H1052 0.930 . S
N1025 C1024 1.373 . S
N1025 C1027 1.340 . S
N1026 C1023 1.368 . S
N1026 C1027 1.321 . S
N1026 Co1029 2.135 . S
C1027 N1025 1.340 . S
C1027 N1026 1.321 . S
C1027 H1051 0.930 . S
H1028 C1023 0.931 . S
Co1029 N1026 2.135 . S
Co1029 N1032 2.121 . S
Co1029 O1037 2.055 . S
Co1029 O1040 2.039 . S
Co1029 N1043 2.140 . S
C1030 O1031 1.227 . S
C1030 O1040 1.265 . S
O1031 C1030 1.227 . S
N1032 Co1029 2.121 . S
N1032 C1034 1.375 . S
N1032 C1035 1.313 . S
C1033 C1034 1.338 . S
C1033 N1036 1.377 . S
C1033 H1053 0.930 . S
C1034 N1032 1.375 . S
C1034 C1033 1.338 . S
C1034 H1038 0.931 . S
C1035 N1032 1.313 . S
C1035 N1036 1.344 . S
C1035 H1039 0.930 . S
N1036 C1033 1.377 . S
N1036 C1035 1.344 . S
O1037 Co1029 2.055 . S
O1037 C1041 1.253 . S
H1038 C1034 0.931 . S
H1039 C1035 0.930 . S
O1040 Co1029 2.039 . S
O1040 C1030 1.265 . S
C1041 O1037 1.253 . S
C1041 O1042 1.227 . S
O1042 C1041 1.227 . S
N1043 Co1029 2.140 . S
N1043 C1046 1.346 . S
N1043 C1047 1.345 . S
C1044 C1045 1.387 . S
C1044 C1048 1.391 . S
C1045 C1044 1.387 . S
C1045 C1046 1.369 . S
C1045 H1054 0.929 . S
C1046 N1043 1.346 . S
C1046 C1045 1.369 . S
C1046 H1049 0.928 . S
C1047 N1043 1.345 . S
C1047 C1048 1.371 . S
C1047 H1050 0.931 . S
C1048 C1044 1.391 . S
C1048 C1047 1.371 . S
C1048 H1055 0.930 . S
H1049 C1046 0.928 . S
H1050 C1047 0.931 . S
H1051 C1027 0.930 . S
H1052 C1024 0.930 . S
H1053 C1033 0.930 . S
H1054 C1045 0.929 . S
H1055 C1048 0.930 . S
C1056 C1057 1.351 . S
C1056 N1059 1.368 . S
C1056 H1061 0.931 . S
C1057 C1056 1.351 . S
C1057 N1058 1.373 . S
C1057 H1085 0.930 . S
N1058 C1057 1.373 . S
N1058 C1060 1.340 . S
N1059 C1056 1.368 . S
N1059 C1060 1.321 . S
N1059 Co1062 2.135 . S
C1060 N1058 1.340 . S
C1060 N1059 1.321 . S
C1060 H1084 0.930 . S
H1061 C1056 0.931 . S
Co1062 N1059 2.135 . S
Co1062 N1065 2.121 . S
Co1062 O1070 2.055 . S
Co1062 O1073 2.039 . S
Co1062 N1076 2.140 . S
C1063 O1064 1.227 . S
C1063 O1073 1.265 . S
O1064 C1063 1.227 . S
N1065 Co1062 2.121 . S
N1065 C1067 1.375 . S
N1065 C1068 1.313 . S
C1066 C1067 1.338 . S
C1066 N1069 1.377 . S
C1066 H1086 0.930 . S
C1067 N1065 1.375 . S
C1067 C1066 1.338 . S
C1067 H1071 0.931 . S
C1068 N1065 1.313 . S
C1068 N1069 1.344 . S
C1068 H1072 0.930 . S
N1069 C1066 1.377 . S
N1069 C1068 1.344 . S
O1070 Co1062 2.055 . S
O1070 C1074 1.253 . S
H1071 C1067 0.931 . S
H1072 C1068 0.930 . S
O1073 Co1062 2.039 . S
O1073 C1063 1.265 . S
C1074 O1070 1.253 . S
C1074 O1075 1.227 . S
O1075 C1074 1.227 . S
N1076 Co1062 2.140 . S
N1076 C1079 1.346 . S
N1076 C1080 1.345 . S
C1077 C1078 1.387 . S
C1077 C1081 1.391 . S
C1078 C1077 1.387 . S
C1078 C1079 1.369 . S
C1078 H1087 0.929 . S
C1079 N1076 1.346 . S
C1079 C1078 1.369 . S
C1079 H1082 0.928 . S
C1080 N1076 1.345 . S
C1080 C1081 1.371 . S
C1080 H1083 0.931 . S
C1081 C1077 1.391 . S
C1081 C1080 1.371 . S
C1081 H1088 0.930 . S
H1082 C1079 0.928 . S
H1083 C1080 0.931 . S
H1084 C1060 0.930 . S
H1085 C1057 0.930 . S
H1086 C1066 0.930 . S
H1087 C1078 0.929 . S
H1088 C1081 0.930 . S
C1089 C1090 1.351 . S
C1089 N1092 1.368 . S
C1089 H1094 0.931 . S
C1090 C1089 1.351 . S
C1090 N1091 1.373 . S
C1090 H1118 0.930 . S
N1091 C1090 1.373 . S
N1091 C1093 1.340 . S
N1092 C1089 1.368 . S
N1092 C1093 1.321 . S
N1092 Co1095 2.135 . S
C1093 N1091 1.340 . S
C1093 N1092 1.321 . S
C1093 H1117 0.930 . S
H1094 C1089 0.931 . S
Co1095 N1092 2.135 . S
Co1095 N1098 2.121 . S
Co1095 O1103 2.055 . S
Co1095 O1106 2.039 . S
Co1095 N1109 2.140 . S
C1096 O1097 1.227 . S
C1096 O1106 1.265 . S
O1097 C1096 1.227 . S
N1098 Co1095 2.121 . S
N1098 C1100 1.375 . S
N1098 C1101 1.313 . S
C1099 C1100 1.338 . S
C1099 N1102 1.377 . S
C1099 H1119 0.930 . S
C1100 N1098 1.375 . S
C1100 C1099 1.338 . S
C1100 H1104 0.931 . S
C1101 N1098 1.313 . S
C1101 N1102 1.344 . S
C1101 H1105 0.930 . S
N1102 C1099 1.377 . S
N1102 C1101 1.344 . S
O1103 Co1095 2.055 . S
O1103 C1107 1.253 . S
H1104 C1100 0.931 . S
H1105 C1101 0.930 . S
O1106 Co1095 2.039 . S
O1106 C1096 1.265 . S
C1107 O1103 1.253 . S
C1107 O1108 1.227 . S
O1108 C1107 1.227 . S
N1109 Co1095 2.140 . S
N1109 C1112 1.346 . S
N1109 C1113 1.345 . S
C1110 C1111 1.387 . S
C1110 C1114 1.391 . S
C1111 C1110 1.387 . S
C1111 C1112 1.369 . S
C1111 H1120 0.929 . S
C1112 N1109 1.346 . S
C1112 C1111 1.369 . S
C1112 H1115 0.928 . S
C1113 N1109 1.345 . S
C1113 C1114 1.371 . S
C1113 H1116 0.931 . S
C1114 C1110 1.391 . S
C1114 C1113 1.371 . S
C1114 H1121 0.930 . S
H1115 C1112 0.928 . S
H1116 C1113 0.931 . S
H1117 C1093 0.930 . S
H1118 C1090 0.930 . S
H1119 C1099 0.930 . S
H1120 C1111 0.929 . S
H1121 C1114 0.930 . S
C1122 C1123 1.351 . S
C1122 N1125 1.368 . S
C1122 H1127 0.931 . S
C1123 C1122 1.351 . S
C1123 N1124 1.373 . S
C1123 H1151 0.930 . S
N1124 C1123 1.373 . S
N1124 C1126 1.340 . S
N1125 C1122 1.368 . S
N1125 C1126 1.321 . S
N1125 Co1128 2.135 . S
C1126 N1124 1.340 . S
C1126 N1125 1.321 . S
C1126 H1150 0.930 . S
H1127 C1122 0.931 . S
Co1128 N1125 2.135 . S
Co1128 N1131 2.121 . S
Co1128 O1136 2.055 . S
Co1128 O1139 2.039 . S
Co1128 N1142 2.140 . S
C1129 O1130 1.227 . S
C1129 O1139 1.265 . S
O1130 C1129 1.227 . S
N1131 Co1128 2.121 . S
N1131 C1133 1.375 . S
N1131 C1134 1.313 . S
C1132 C1133 1.338 . S
C1132 N1135 1.377 . S
C1132 H1152 0.930 . S
C1133 N1131 1.375 . S
C1133 C1132 1.338 . S
C1133 H1137 0.931 . S
C1134 N1131 1.313 . S
C1134 N1135 1.344 . S
C1134 H1138 0.930 . S
N1135 C1132 1.377 . S
N1135 C1134 1.344 . S
O1136 Co1128 2.055 . S
O1136 C1140 1.253 . S
H1137 C1133 0.931 . S
H1138 C1134 0.930 . S
O1139 Co1128 2.039 . S
O1139 C1129 1.265 . S
C1140 O1136 1.253 . S
C1140 O1141 1.227 . S
O1141 C1140 1.227 . S
N1142 Co1128 2.140 . S
N1142 C1145 1.346 . S
N1142 C1146 1.345 . S
C1143 C1144 1.387 . S
C1143 C1147 1.391 . S
C1144 C1143 1.387 . S
C1144 C1145 1.369 . S
C1144 H1153 0.929 . S
C1145 N1142 1.346 . S
C1145 C1144 1.369 . S
C1145 H1148 0.928 . S
C1146 N1142 1.345 . S
C1146 C1147 1.371 . S
C1146 H1149 0.931 . S
C1147 C1143 1.391 . S
C1147 C1146 1.371 . S
C1147 H1154 0.930 . S
H1148 C1145 0.928 . S
H1149 C1146 0.931 . S
H1150 C1126 0.930 . S
H1151 C1123 0.930 . S
H1152 C1132 0.930 . S
H1153 C1144 0.929 . S
H1154 C1147 0.930 . S
C1155 C1156 1.351 . S
C1155 N1158 1.368 . S
C1155 H1160 0.931 . S
C1156 C1155 1.351 . S
C1156 N1157 1.373 . S
C1156 H1184 0.930 . S
N1157 C1156 1.373 . S
N1157 C1159 1.340 . S
N1158 C1155 1.368 . S
N1158 C1159 1.321 . S
N1158 Co1161 2.135 . S
C1159 N1157 1.340 . S
C1159 N1158 1.321 . S
C1159 H1183 0.930 . S
H1160 C1155 0.931 . S
Co1161 N1158 2.135 . S
Co1161 N1164 2.121 . S
Co1161 O1169 2.055 . S
Co1161 O1172 2.039 . S
Co1161 N1175 2.140 . S
C1162 O1163 1.227 . S
C1162 O1172 1.265 . S
O1163 C1162 1.227 . S
N1164 Co1161 2.121 . S
N1164 C1166 1.375 . S
N1164 C1167 1.313 . S
C1165 C1166 1.338 . S
C1165 N1168 1.377 . S
C1165 H1185 0.930 . S
C1166 N1164 1.375 . S
C1166 C1165 1.338 . S
C1166 H1170 0.931 . S
C1167 N1164 1.313 . S
C1167 N1168 1.344 . S
C1167 H1171 0.930 . S
N1168 C1165 1.377 . S
N1168 C1167 1.344 . S
O1169 Co1161 2.055 . S
O1169 C1173 1.253 . S
H1170 C1166 0.931 . S
H1171 C1167 0.930 . S
O1172 Co1161 2.039 . S
O1172 C1162 1.265 . S
C1173 O1169 1.253 . S
C1173 O1174 1.227 . S
O1174 C1173 1.227 . S
N1175 Co1161 2.140 . S
N1175 C1178 1.346 . S
N1175 C1179 1.345 . S
C1176 C1177 1.387 . S
C1176 C1180 1.391 . S
C1177 C1176 1.387 . S
C1177 C1178 1.369 . S
C1177 H1186 0.929 . S
C1178 N1175 1.346 . S
C1178 C1177 1.369 . S
C1178 H1181 0.928 . S
C1179 N1175 1.345 . S
C1179 C1180 1.371 . S
C1179 H1182 0.931 . S
C1180 C1176 1.391 . S
C1180 C1179 1.371 . S
C1180 H1187 0.930 . S
H1181 C1178 0.928 . S
H1182 C1179 0.931 . S
H1183 C1159 0.930 . S
H1184 C1156 0.930 . S
H1185 C1165 0.930 . S
H1186 C1177 0.929 . S
H1187 C1180 0.930 . S
H1188 C1194 0.930 . S
H1189 C1198 0.930 . S
H1190 C1203 0.929 . S
H1191 C1201 0.929 . S
H1192 C1196 0.929 . S
H1193 C1202 0.929 . S
C1194 H1188 0.930 . S
C1194 C1195 1.367 . S
C1194 C1202 1.378 . S
C1195 C1194 1.367 . S
C1195 C1203 1.433 . S
C1196 H1192 0.929 . S
C1196 C1198 1.378 . S
C1196 C1200 1.350 . S
C1197 C1200 1.463 . S
C1197 C1202 1.350 . S
C1197 N1205 1.427 . S
C1198 H1189 0.930 . S
C1198 C1196 1.378 . S
C1198 C1199 1.367 . S
C1199 C1198 1.367 . S
C1199 C1201 1.433 . S
C1200 C1196 1.350 . S
C1200 C1197 1.463 . S
C1200 N1204 1.427 . S
C1201 H1191 0.929 . S
C1201 C1199 1.433 . S
C1201 N1204 1.384 . S
C1202 H1193 0.929 . S
C1202 C1194 1.378 . S
C1202 C1197 1.350 . S
C1203 H1190 0.929 . S
C1203 C1195 1.433 . S
C1203 N1205 1.384 . S
N1204 C1200 1.427 . S
N1204 C1201 1.384 . S
N1205 C1197 1.427 . S
N1205 C1203 1.384 . S
H1206 C1212 0.930 . S
H1207 C1216 0.930 . S
H1208 C1221 0.929 . S
H1209 C1219 0.929 . S
H1210 C1214 0.929 . S
H1211 C1220 0.929 . S
C1212 H1206 0.930 . S
C1212 C1213 1.367 . S
C1212 C1220 1.378 . S
C1213 C1212 1.367 . S
C1213 C1221 1.433 . S
C1214 H1210 0.929 . S
C1214 C1216 1.378 . S
C1214 C1218 1.350 . S
C1215 C1218 1.463 . S
C1215 C1220 1.350 . S
C1215 N1223 1.427 . S
C1216 H1207 0.930 . S
C1216 C1214 1.378 . S
C1216 C1217 1.367 . S
C1217 C1216 1.367 . S
C1217 C1219 1.433 . S
C1218 C1214 1.350 . S
C1218 C1215 1.463 . S
C1218 N1222 1.427 . S
C1219 H1209 0.929 . S
C1219 C1217 1.433 . S
C1219 N1222 1.384 . S
C1220 H1211 0.929 . S
C1220 C1212 1.378 . S
C1220 C1215 1.350 . S
C1221 H1208 0.929 . S
C1221 C1213 1.433 . S
C1221 N1223 1.384 . S
N1222 C1218 1.427 . S
N1222 C1219 1.384 . S
N1223 C1215 1.427 . S
N1223 C1221 1.384 . S
H1224 C1230 0.930 . S
H1225 C1234 0.930 . S
H1226 C1239 0.929 . S
H1227 C1237 0.929 . S
H1228 C1232 0.929 . S
H1229 C1238 0.929 . S
C1230 H1224 0.930 . S
C1230 C1231 1.367 . S
C1230 C1238 1.378 . S
C1231 C1230 1.367 . S
C1231 C1239 1.433 . S
C1232 H1228 0.929 . S
C1232 C1234 1.378 . S
C1232 C1236 1.350 . S
C1233 C1236 1.463 . S
C1233 C1238 1.350 . S
C1233 N1241 1.427 . S
C1234 H1225 0.930 . S
C1234 C1232 1.378 . S
C1234 C1235 1.367 . S
C1235 C1234 1.367 . S
C1235 C1237 1.433 . S
C1236 C1232 1.350 . S
C1236 C1233 1.463 . S
C1236 N1240 1.427 . S
C1237 H1227 0.929 . S
C1237 C1235 1.433 . S
C1237 N1240 1.384 . S
C1238 H1229 0.929 . S
C1238 C1230 1.378 . S
C1238 C1233 1.350 . S
C1239 H1226 0.929 . S
C1239 C1231 1.433 . S
C1239 N1241 1.384 . S
N1240 C1236 1.427 . S
N1240 C1237 1.384 . S
N1241 C1233 1.427 . S
N1241 C1239 1.384 . S
H1242 C1248 0.930 . S
H1243 C1252 0.930 . S
H1244 C1257 0.929 . S
H1245 C1255 0.929 . S
H1246 C1250 0.929 . S
H1247 C1256 0.929 . S
C1248 H1242 0.930 . S
C1248 C1249 1.367 . S
C1248 C1256 1.378 . S
C1249 C1248 1.367 . S
C1249 C1257 1.433 . S
C1250 H1246 0.929 . S
C1250 C1252 1.378 . S
C1250 C1254 1.350 . S
C1251 C1254 1.463 . S
C1251 C1256 1.350 . S
C1251 N1259 1.427 . S
C1252 H1243 0.930 . S
C1252 C1250 1.378 . S
C1252 C1253 1.367 . S
C1253 C1252 1.367 . S
C1253 C1255 1.433 . S
C1254 C1250 1.350 . S
C1254 C1251 1.463 . S
C1254 N1258 1.427 . S
C1255 H1245 0.929 . S
C1255 C1253 1.433 . S
C1255 N1258 1.384 . S
C1256 H1247 0.929 . S
C1256 C1248 1.378 . S
C1256 C1251 1.350 . S
C1257 H1244 0.929 . S
C1257 C1249 1.433 . S
C1257 N1259 1.384 . S
N1258 C1254 1.427 . S
N1258 C1255 1.384 . S
N1259 C1251 1.427 . S
N1259 C1257 1.384 . S
H1260 C1266 0.930 . S
H1261 C1270 0.930 . S
H1262 C1275 0.929 . S
H1263 C1273 0.929 . S
H1264 C1268 0.929 . S
H1265 C1274 0.929 . S
C1266 H1260 0.930 . S
C1266 C1267 1.367 . S
C1266 C1274 1.378 . S
C1267 C1266 1.367 . S
C1267 C1275 1.433 . S
C1268 H1264 0.929 . S
C1268 C1270 1.378 . S
C1268 C1272 1.350 . S
C1269 C1272 1.463 . S
C1269 C1274 1.350 . S
C1269 N1277 1.427 . S
C1270 H1261 0.930 . S
C1270 C1268 1.378 . S
C1270 C1271 1.367 . S
C1271 C1270 1.367 . S
C1271 C1273 1.433 . S
C1272 C1268 1.350 . S
C1272 C1269 1.463 . S
C1272 N1276 1.427 . S
C1273 H1263 0.929 . S
C1273 C1271 1.433 . S
C1273 N1276 1.384 . S
C1274 H1265 0.929 . S
C1274 C1266 1.378 . S
C1274 C1269 1.350 . S
C1275 H1262 0.929 . S
C1275 C1267 1.433 . S
C1275 N1277 1.384 . S
N1276 C1272 1.427 . S
N1276 C1273 1.384 . S
N1277 C1269 1.427 . S
N1277 C1275 1.384 . S
H1278 C1284 0.930 . S
H1279 C1288 0.930 . S
H1280 C1293 0.929 . S
H1281 C1291 0.929 . S
H1282 C1286 0.929 . S
H1283 C1292 0.929 . S
C1284 H1278 0.930 . S
C1284 C1285 1.367 . S
C1284 C1292 1.378 . S
C1285 C1284 1.367 . S
C1285 C1293 1.433 . S
C1286 H1282 0.929 . S
C1286 C1288 1.378 . S
C1286 C1290 1.350 . S
C1287 C1290 1.463 . S
C1287 C1292 1.350 . S
C1287 N1295 1.427 . S
C1288 H1279 0.930 . S
C1288 C1286 1.378 . S
C1288 C1289 1.367 . S
C1289 C1288 1.367 . S
C1289 C1291 1.433 . S
C1290 C1286 1.350 . S
C1290 C1287 1.463 . S
C1290 N1294 1.427 . S
C1291 H1281 0.929 . S
C1291 C1289 1.433 . S
C1291 N1294 1.384 . S
C1292 H1283 0.929 . S
C1292 C1284 1.378 . S
C1292 C1287 1.350 . S
C1293 H1280 0.929 . S
C1293 C1285 1.433 . S
C1293 N1295 1.384 . S
N1294 C1290 1.427 . S
N1294 C1291 1.384 . S
N1295 C1287 1.427 . S
N1295 C1293 1.384 . S
H1296 C1302 0.930 . S
H1297 C1306 0.930 . S
H1298 C1311 0.929 . S
H1299 C1309 0.929 . S
H1300 C1304 0.929 . S
H1301 C1310 0.929 . S
C1302 H1296 0.930 . S
C1302 C1303 1.367 . S
C1302 C1310 1.378 . S
C1303 C1302 1.367 . S
C1303 C1311 1.433 . S
C1304 H1300 0.929 . S
C1304 C1306 1.378 . S
C1304 C1308 1.350 . S
C1305 C1308 1.463 . S
C1305 C1310 1.350 . S
C1305 N1313 1.427 . S
C1306 H1297 0.930 . S
C1306 C1304 1.378 . S
C1306 C1307 1.367 . S
C1307 C1306 1.367 . S
C1307 C1309 1.433 . S
C1308 C1304 1.350 . S
C1308 C1305 1.463 . S
C1308 N1312 1.427 . S
C1309 H1299 0.929 . S
C1309 C1307 1.433 . S
C1309 N1312 1.384 . S
C1310 H1301 0.929 . S
C1310 C1302 1.378 . S
C1310 C1305 1.350 . S
C1311 H1298 0.929 . S
C1311 C1303 1.433 . S
C1311 N1313 1.384 . S
N1312 C1308 1.427 . S
N1312 C1309 1.384 . S
N1313 C1305 1.427 . S
N1313 C1311 1.384 . S
H1314 C1320 0.930 . S
H1315 C1324 0.930 . S
H1316 C1329 0.929 . S
H1317 C1327 0.929 . S
H1318 C1322 0.929 . S
H1319 C1328 0.929 . S
C1320 H1314 0.930 . S
C1320 C1321 1.367 . S
C1320 C1328 1.378 . S
C1321 C1320 1.367 . S
C1321 C1329 1.433 . S
C1322 H1318 0.929 . S
C1322 C1324 1.378 . S
C1322 C1326 1.350 . S
C1323 C1326 1.463 . S
C1323 C1328 1.350 . S
C1323 N1331 1.427 . S
C1324 H1315 0.930 . S
C1324 C1322 1.378 . S
C1324 C1325 1.367 . S
C1325 C1324 1.367 . S
C1325 C1327 1.433 . S
C1326 C1322 1.350 . S
C1326 C1323 1.463 . S
C1326 N1330 1.427 . S
C1327 H1317 0.929 . S
C1327 C1325 1.433 . S
C1327 N1330 1.384 . S
C1328 H1319 0.929 . S
C1328 C1320 1.378 . S
C1328 C1323 1.350 . S
C1329 H1316 0.929 . S
C1329 C1321 1.433 . S
C1329 N1331 1.384 . S
N1330 C1326 1.427 . S
N1330 C1327 1.384 . S
N1331 C1323 1.427 . S
N1331 C1329 1.384 . S
H1332 C1338 0.930 . S
H1333 C1342 0.930 . S
H1334 C1347 0.929 . S
H1335 C1345 0.929 . S
H1336 C1340 0.929 . S
H1337 C1346 0.929 . S
C1338 H1332 0.930 . S
C1338 C1339 1.367 . S
C1338 C1346 1.378 . S
C1339 C1338 1.367 . S
C1339 C1347 1.433 . S
C1340 H1336 0.929 . S
C1340 C1342 1.378 . S
C1340 C1344 1.350 . S
C1341 C1344 1.463 . S
C1341 C1346 1.350 . S
C1341 N1349 1.427 . S
C1342 H1333 0.930 . S
C1342 C1340 1.378 . S
C1342 C1343 1.367 . S
C1343 C1342 1.367 . S
C1343 C1345 1.433 . S
C1344 C1340 1.350 . S
C1344 C1341 1.463 . S
C1344 N1348 1.427 . S
C1345 H1335 0.929 . S
C1345 C1343 1.433 . S
C1345 N1348 1.384 . S
C1346 H1337 0.929 . S
C1346 C1338 1.378 . S
C1346 C1341 1.350 . S
C1347 H1334 0.929 . S
C1347 C1339 1.433 . S
C1347 N1349 1.384 . S
N1348 C1344 1.427 . S
N1348 C1345 1.384 . S
N1349 C1341 1.427 . S
N1349 C1347 1.384 . S
H1350 C1356 0.930 . S
H1351 C1360 0.930 . S
H1352 C1365 0.929 . S
H1353 C1363 0.929 . S
H1354 C1358 0.929 . S
H1355 C1364 0.929 . S
C1356 H1350 0.930 . S
C1356 C1357 1.367 . S
C1356 C1364 1.378 . S
C1357 C1356 1.367 . S
C1357 C1365 1.433 . S
C1358 H1354 0.929 . S
C1358 C1360 1.378 . S
C1358 C1362 1.350 . S
C1359 C1362 1.463 . S
C1359 C1364 1.350 . S
C1359 N1367 1.427 . S
C1360 H1351 0.930 . S
C1360 C1358 1.378 . S
C1360 C1361 1.367 . S
C1361 C1360 1.367 . S
C1361 C1363 1.433 . S
C1362 C1358 1.350 . S
C1362 C1359 1.463 . S
C1362 N1366 1.427 . S
C1363 H1353 0.929 . S
C1363 C1361 1.433 . S
C1363 N1366 1.384 . S
C1364 H1355 0.929 . S
C1364 C1356 1.378 . S
C1364 C1359 1.350 . S
C1365 H1352 0.929 . S
C1365 C1357 1.433 . S
C1365 N1367 1.384 . S
N1366 C1362 1.427 . S
N1366 C1363 1.384 . S
N1367 C1359 1.427 . S
N1367 C1365 1.384 . S
H1368 C1374 0.930 . S
H1369 C1378 0.930 . S
H1370 C1383 0.929 . S
H1371 C1381 0.929 . S
H1372 C1376 0.929 . S
H1373 C1382 0.929 . S
C1374 H1368 0.930 . S
C1374 C1375 1.367 . S
C1374 C1382 1.378 . S
C1375 C1374 1.367 . S
C1375 C1383 1.433 . S
C1376 H1372 0.929 . S
C1376 C1378 1.378 . S
C1376 C1380 1.350 . S
C1377 C1380 1.463 . S
C1377 C1382 1.350 . S
C1377 N1385 1.427 . S
C1378 H1369 0.930 . S
C1378 C1376 1.378 . S
C1378 C1379 1.367 . S
C1379 C1378 1.367 . S
C1379 C1381 1.433 . S
C1380 C1376 1.350 . S
C1380 C1377 1.463 . S
C1380 N1384 1.427 . S
C1381 H1371 0.929 . S
C1381 C1379 1.433 . S
C1381 N1384 1.384 . S
C1382 H1373 0.929 . S
C1382 C1374 1.378 . S
C1382 C1377 1.350 . S
C1383 H1370 0.929 . S
C1383 C1375 1.433 . S
C1383 N1385 1.384 . S
N1384 C1380 1.427 . S
N1384 C1381 1.384 . S
N1385 C1377 1.427 . S
N1385 C1383 1.384 . S
H1386 C1392 0.930 . S
H1387 C1396 0.930 . S
H1388 C1401 0.929 . S
H1389 C1399 0.929 . S
H1390 C1394 0.929 . S
H1391 C1400 0.929 . S
C1392 H1386 0.930 . S
C1392 C1393 1.367 . S
C1392 C1400 1.378 . S
C1393 C1392 1.367 . S
C1393 C1401 1.433 . S
C1394 H1390 0.929 . S
C1394 C1396 1.378 . S
C1394 C1398 1.350 . S
C1395 C1398 1.463 . S
C1395 C1400 1.350 . S
C1395 N1403 1.427 . S
C1396 H1387 0.930 . S
C1396 C1394 1.378 . S
C1396 C1397 1.367 . S
C1397 C1396 1.367 . S
C1397 C1399 1.433 . S
C1398 C1394 1.350 . S
C1398 C1395 1.463 . S
C1398 N1402 1.427 . S
C1399 H1389 0.929 . S
C1399 C1397 1.433 . S
C1399 N1402 1.384 . S
C1400 H1391 0.929 . S
C1400 C1392 1.378 . S
C1400 C1395 1.350 . S
C1401 H1388 0.929 . S
C1401 C1393 1.433 . S
C1401 N1403 1.384 . S
N1402 C1398 1.427 . S
N1402 C1399 1.384 . S
N1403 C1395 1.427 . S
N1403 C1401 1.384 . S
H1404 C1410 0.930 . S
H1405 C1414 0.930 . S
H1406 C1419 0.929 . S
H1407 C1417 0.929 . S
H1408 C1412 0.929 . S
H1409 C1418 0.929 . S
C1410 H1404 0.930 . S
C1410 C1411 1.367 . S
C1410 C1418 1.378 . S
C1411 C1410 1.367 . S
C1411 C1419 1.433 . S
C1412 H1408 0.929 . S
C1412 C1414 1.378 . S
C1412 C1416 1.350 . S
C1413 C1416 1.463 1_655 S
C1413 C1418 1.350 . S
C1413 N1421 1.427 1_655 S
C1414 H1405 0.930 . S
C1414 C1412 1.378 . S
C1414 C1415 1.367 . S
C1415 C1414 1.367 . S
C1415 C1417 1.433 . S
C1416 C1412 1.350 . S
C1416 C1413 1.463 1_455 S
C1416 N1420 1.427 1_455 S
C1417 H1407 0.929 . S
C1417 C1415 1.433 . S
C1417 N1420 1.384 1_455 S
C1418 H1409 0.929 . S
C1418 C1410 1.378 . S
C1418 C1413 1.350 . S
C1419 H1406 0.929 . S
C1419 C1411 1.433 . S
C1419 N1421 1.384 1_655 S
N1420 C1416 1.427 1_655 S
N1420 C1417 1.384 1_655 S
N1421 C1413 1.427 1_455 S
N1421 C1419 1.384 1_455 S
H1422 C1428 0.930 . S
H1423 C1432 0.930 . S
H1424 C1437 0.929 . S
H1425 C1435 0.929 . S
H1426 C1430 0.929 . S
H1427 C1436 0.929 . S
C1428 H1422 0.930 . S
C1428 C1429 1.367 . S
C1428 C1436 1.378 . S
C1429 C1428 1.367 . S
C1429 C1437 1.433 . S
C1430 H1426 0.929 . S
C1430 C1432 1.378 . S
C1430 C1434 1.350 . S
C1431 C1434 1.463 . S
C1431 C1436 1.350 . S
C1431 N1439 1.427 . S
C1432 H1423 0.930 . S
C1432 C1430 1.378 . S
C1432 C1433 1.367 . S
C1433 C1432 1.367 . S
C1433 C1435 1.433 . S
C1434 C1430 1.350 . S
C1434 C1431 1.463 . S
C1434 N1438 1.427 . S
C1435 H1425 0.929 . S
C1435 C1433 1.433 . S
C1435 N1438 1.384 . S
C1436 H1427 0.929 . S
C1436 C1428 1.378 . S
C1436 C1431 1.350 . S
C1437 H1424 0.929 . S
C1437 C1429 1.433 . S
C1437 N1439 1.384 . S
N1438 C1434 1.427 . S
N1438 C1435 1.384 . S
N1439 C1431 1.427 . S
N1439 C1437 1.384 . S
H1440 C1446 0.930 1_545 S
H1441 C1450 0.930 1_565 S
H1442 C1455 0.929 . S
H1443 C1453 0.929 . S
H1444 C1448 0.929 . S
H1445 C1454 0.929 . S
C1446 H1440 0.930 1_565 S
C1446 C1447 1.367 . S
C1446 C1454 1.378 1_565 S
C1447 C1446 1.367 . S
C1447 C1455 1.433 . S
C1448 H1444 0.929 . S
C1448 C1450 1.378 1_565 S
C1448 C1452 1.350 1_565 S
C1449 C1452 1.463 1_565 S
C1449 C1454 1.350 1_565 S
C1449 N1457 1.427 . S
C1450 H1441 0.930 1_545 S
C1450 C1448 1.378 1_545 S
C1450 C1451 1.367 . S
C1451 C1450 1.367 . S
C1451 C1453 1.433 . S
C1452 C1448 1.350 1_545 S
C1452 C1449 1.463 1_545 S
C1452 N1456 1.427 . S
C1453 H1443 0.929 . S
C1453 C1451 1.433 . S
C1453 N1456 1.384 . S
C1454 H1445 0.929 . S
C1454 C1446 1.378 1_545 S
C1454 C1449 1.350 1_545 S
C1455 H1442 0.929 . S
C1455 C1447 1.433 . S
C1455 N1457 1.384 . S
N1456 C1452 1.427 . S
N1456 C1453 1.384 . S
N1457 C1449 1.427 . S
N1457 C1455 1.384 . S
H1458 C1464 0.917 1_545 S
H1459 C1468 0.916 1_565 S
H1460 C1473 0.929 . S
H1461 C1471 0.929 . S
H1462 C1466 0.929 . S
H1463 C1472 0.929 . S
C1464 H1458 0.917 1_565 S
C1464 C1465 1.367 . S
C1464 C1472 1.378 1_565 S
C1465 C1464 1.367 . S
C1465 C1473 1.433 . S
C1466 H1462 0.929 . S
C1466 C1468 1.378 1_565 S
C1466 C1470 1.350 1_565 S
C1467 C1470 1.463 1_565 S
C1467 C1472 1.350 1_565 S
C1467 N1475 1.427 . S
C1468 H1459 0.916 1_545 S
C1468 C1466 1.378 1_545 S
C1468 C1469 1.367 . S
C1469 C1468 1.367 . S
C1469 C1471 1.433 . S
C1470 C1466 1.350 1_545 S
C1470 C1467 1.463 1_545 S
C1470 N1474 1.427 . S
C1471 H1461 0.929 . S
C1471 C1469 1.433 . S
C1471 N1474 1.384 . S
C1472 H1463 0.929 . S
C1472 C1464 1.378 1_545 S
C1472 C1467 1.350 1_545 S
C1473 H1460 0.929 . S
C1473 C1465 1.433 . S
C1473 N1475 1.384 . S
N1474 C1470 1.427 . S
N1474 C1471 1.384 . S
N1475 C1467 1.427 . S
N1475 C1473 1.384 . S
H1476 C1482 0.930 1_655 S
H1477 C1486 0.930 1_455 S
H1478 C1491 0.929 . S
H1479 C1489 0.929 . S
H1480 C1484 0.929 . S
H1481 C1490 0.929 . S
C1482 H1476 0.930 1_455 S
C1482 C1483 1.367 . S
C1482 C1490 1.378 1_455 S
C1483 C1482 1.367 . S
C1483 C1491 1.433 . S
C1484 H1480 0.929 . S
C1484 C1486 1.378 1_455 S
C1484 C1488 1.350 1_455 S
C1485 C1488 1.463 1_455 S
C1485 C1490 1.350 1_455 S
C1485 N1493 1.427 . S
C1486 H1477 0.930 1_655 S
C1486 C1484 1.378 1_655 S
C1486 C1487 1.367 . S
C1487 C1486 1.367 . S
C1487 C1489 1.433 . S
C1488 C1484 1.350 1_655 S
C1488 C1485 1.463 1_655 S
C1488 N1492 1.427 . S
C1489 H1479 0.929 . S
C1489 C1487 1.433 . S
C1489 N1492 1.384 . S
C1490 H1481 0.929 . S
C1490 C1482 1.378 1_655 S
C1490 C1485 1.350 1_655 S
C1491 H1478 0.929 . S
C1491 C1483 1.433 . S
C1491 N1493 1.384 . S
N1492 C1488 1.427 . S
N1492 C1489 1.384 . S
N1493 C1485 1.427 . S
N1493 C1491 1.384 . S
H1494 C1500 0.930 . S
H1495 C1504 0.930 . S
H1496 C1509 0.929 . S
H1497 C1507 0.929 . S
H1498 C1502 0.929 . S
H1499 C1508 0.929 . S
C1500 H1494 0.930 . S
C1500 C1501 1.367 . S
C1500 C1508 1.378 . S
C1501 C1500 1.367 . S
C1501 C1509 1.433 . S
C1502 H1498 0.929 . S
C1502 C1504 1.378 . S
C1502 C1506 1.350 . S
C1503 C1506 1.463 . S
C1503 C1508 1.350 . S
C1503 N1511 1.427 . S
C1504 H1495 0.930 . S
C1504 C1502 1.378 . S
C1504 C1505 1.367 . S
C1505 C1504 1.367 . S
C1505 C1507 1.433 . S
C1506 C1502 1.350 . S
C1506 C1503 1.463 . S
C1506 N1510 1.427 . S
C1507 H1497 0.929 . S
C1507 C1505 1.433 . S
C1507 N1510 1.384 . S
C1508 H1499 0.929 . S
C1508 C1500 1.378 . S
C1508 C1503 1.350 . S
C1509 H1496 0.929 . S
C1509 C1501 1.433 . S
C1509 N1511 1.384 . S
N1510 C1506 1.427 . S
N1510 C1507 1.384 . S
N1511 C1503 1.427 . S
N1511 C1509 1.384 . S
H1512 C1518 0.930 . S
H1513 C1522 0.930 . S
H1514 C1527 0.929 . S
H1515 C1525 0.929 . S
H1516 C1520 0.929 . S
H1517 C1526 0.929 . S
C1518 H1512 0.930 . S
C1518 C1519 1.367 . S
C1518 C1526 1.378 . S
C1519 C1518 1.367 . S
C1519 C1527 1.433 . S
C1520 H1516 0.929 . S
C1520 C1522 1.378 . S
C1520 C1524 1.350 . S
C1521 C1524 1.463 . S
C1521 C1526 1.350 . S
C1521 N1529 1.427 . S
C1522 H1513 0.930 . S
C1522 C1520 1.378 . S
C1522 C1523 1.367 . S
C1523 C1522 1.367 . S
C1523 C1525 1.433 . S
C1524 C1520 1.350 . S
C1524 C1521 1.463 . S
C1524 N1528 1.427 . S
C1525 H1515 0.929 . S
C1525 C1523 1.433 . S
C1525 N1528 1.384 . S
C1526 H1517 0.929 . S
C1526 C1518 1.378 . S
C1526 C1521 1.350 . S
C1527 H1514 0.929 . S
C1527 C1519 1.433 . S
C1527 N1529 1.384 . S
N1528 C1524 1.427 . S
N1528 C1525 1.384 . S
N1529 C1521 1.427 . S
N1529 C1527 1.384 . S
H1530 C1536 0.930 . S
H1531 C1540 0.930 . S
H1532 C1545 0.929 . S
H1533 C1543 0.929 . S
H1534 C1538 0.929 . S
H1535 C1544 0.929 . S
C1536 H1530 0.930 . S
C1536 C1537 1.367 . S
C1536 C1544 1.378 . S
C1537 C1536 1.367 . S
C1537 C1545 1.433 . S
C1538 H1534 0.929 . S
C1538 C1540 1.378 . S
C1538 C1542 1.350 1_565 S
C1539 C1542 1.463 . S
C1539 C1544 1.350 . S
C1539 N1547 1.427 . S
C1540 H1531 0.930 . S
C1540 C1538 1.378 . S
C1540 C1541 1.367 . S
C1541 C1540 1.367 . S
C1541 C1543 1.433 1_565 S
C1542 C1538 1.350 1_545 S
C1542 C1539 1.463 . S
C1542 N1546 1.427 . S
C1543 H1533 0.929 . S
C1543 C1541 1.433 1_545 S
C1543 N1546 1.384 . S
C1544 H1535 0.929 . S
C1544 C1536 1.378 . S
C1544 C1539 1.350 . S
C1545 H1532 0.929 . S
C1545 C1537 1.433 . S
C1545 N1547 1.384 . S
N1546 C1542 1.427 . S
N1546 C1543 1.384 . S
N1547 C1539 1.427 . S
N1547 C1545 1.384 . S
H1548 C1554 0.930 . S
H1549 C1558 0.930 . S
H1550 C1563 0.929 . S
H1551 C1561 0.929 . S
H1552 C1556 0.929 . S
H1553 C1562 0.929 . S
C1554 H1548 0.930 . S
C1554 C1555 1.367 . S
C1554 C1562 1.378 . S
C1555 C1554 1.367 . S
C1555 C1563 1.433 . S
C1556 H1552 0.929 . S
C1556 C1558 1.378 . S
C1556 C1560 1.350 . S
C1557 C1560 1.463 . S
C1557 C1562 1.350 . S
C1557 N1565 1.427 . S
C1558 H1549 0.930 . S
C1558 C1556 1.378 . S
C1558 C1559 1.347 1_655 S
C1559 C1558 1.347 1_455 S
C1559 C1561 1.433 . S
C1560 C1556 1.350 . S
C1560 C1557 1.463 . S
C1560 N1564 1.438 . S
C1561 H1551 0.929 . S
C1561 C1559 1.433 . S
C1561 N1564 1.371 1_455 S
C1562 H1553 0.929 . S
C1562 C1554 1.378 . S
C1562 C1557 1.350 . S
C1563 H1550 0.929 . S
C1563 C1555 1.433 . S
C1563 N1565 1.384 . S
N1564 C1560 1.438 . S
N1564 C1561 1.371 1_655 S
N1565 C1557 1.427 . S
N1565 C1563 1.384 . S
H1566 C1572 0.930 . S
H1567 C1576 0.930 . S
H1568 C1581 0.929 . S
H1569 C1579 0.929 . S
H1570 C1574 0.929 . S
H1571 C1580 0.929 . S
C1572 H1566 0.930 . S
C1572 C1573 1.367 . S
C1572 C1580 1.378 . S
C1573 C1572 1.367 . S
C1573 C1581 1.433 . S
C1574 H1570 0.929 . S
C1574 C1576 1.378 . S
C1574 C1578 1.350 . S
C1575 C1578 1.463 . S
C1575 C1580 1.350 . S
C1575 N1583 1.427 . S
C1576 H1567 0.930 . S
C1576 C1574 1.378 . S
C1576 C1577 1.367 . S
C1577 C1576 1.367 . S
C1577 C1579 1.433 . S
C1578 C1574 1.350 . S
C1578 C1575 1.463 . S
C1578 N1582 1.427 . S
C1579 H1569 0.929 . S
C1579 C1577 1.433 . S
C1579 N1582 1.384 . S
C1580 H1571 0.929 . S
C1580 C1572 1.378 . S
C1580 C1575 1.350 . S
C1581 H1568 0.929 . S
C1581 C1573 1.433 . S
C1581 N1583 1.384 . S
N1582 C1578 1.427 . S
N1582 C1579 1.384 . S
N1583 C1575 1.427 . S
N1583 C1581 1.384 . S
H1584 C1590 0.930 . S
H1585 C1594 0.930 . S
H1586 C1599 0.929 . S
H1587 C1597 0.929 . S
H1588 C1592 0.929 . S
H1589 C1598 0.929 . S
C1590 H1584 0.930 . S
C1590 C1591 1.367 . S
C1590 C1598 1.378 . S
C1591 C1590 1.367 . S
C1591 C1599 1.433 . S
C1592 H1588 0.929 . S
C1592 C1594 1.378 . S
C1592 C1596 1.350 . S
C1593 C1596 1.463 . S
C1593 C1598 1.350 . S
C1593 N1601 1.427 . S
C1594 H1585 0.930 . S
C1594 C1592 1.378 . S
C1594 C1595 1.347 1_565 S
C1595 C1594 1.347 1_545 S
C1595 C1597 1.435 . S
C1596 C1592 1.350 . S
C1596 C1593 1.463 . S
C1596 N1600 1.427 1_565 S
C1597 H1587 0.929 . S
C1597 C1595 1.435 . S
C1597 N1600 1.384 . S
C1598 H1589 0.929 . S
C1598 C1590 1.378 . S
C1598 C1593 1.350 . S
C1599 H1586 0.929 . S
C1599 C1591 1.433 . S
C1599 N1601 1.384 . S
N1600 C1596 1.427 1_545 S
N1600 C1597 1.384 . S
N1601 C1593 1.427 . S
N1601 C1599 1.384 . S
H1602 C1608 0.930 . S
H1603 C1612 0.930 . S
H1604 C1617 0.929 . S
H1605 C1615 0.929 . S
H1606 C1610 0.929 . S
H1607 C1616 0.929 . S
C1608 H1602 0.930 . S
C1608 C1609 1.367 . S
C1608 C1616 1.378 1_655 S
C1609 C1608 1.367 . S
C1609 C1617 1.433 1_655 S
C1610 H1606 0.929 . S
C1610 C1612 1.378 . S
C1610 C1614 1.350 . S
C1611 C1614 1.463 . S
C1611 C1616 1.350 . S
C1611 N1619 1.427 . S
C1612 H1603 0.930 . S
C1612 C1610 1.378 . S
C1612 C1613 1.367 . S
C1613 C1612 1.367 . S
C1613 C1615 1.433 . S
C1614 C1610 1.350 . S
C1614 C1611 1.463 . S
C1614 N1618 1.427 . S
C1615 H1605 0.929 . S
C1615 C1613 1.433 . S
C1615 N1618 1.384 . S
C1616 H1607 0.929 . S
C1616 C1608 1.378 1_455 S
C1616 C1611 1.350 . S
C1617 H1604 0.929 . S
C1617 C1609 1.433 1_455 S
C1617 N1619 1.384 . S
N1618 C1614 1.427 . S
N1618 C1615 1.384 . S
N1619 C1611 1.427 . S
N1619 C1617 1.384 . S
H1620 C1626 0.930 . S
H1621 C1630 0.930 . S
H1622 C1635 0.929 . S
H1623 C1633 0.929 . S
H1624 C1628 0.929 . S
H1625 C1634 0.929 . S
C1626 H1620 0.930 . S
C1626 C1627 1.367 . S
C1626 C1634 1.378 . S
C1627 C1626 1.367 . S
C1627 C1635 1.433 . S
C1628 H1624 0.929 . S
C1628 C1630 1.378 . S
C1628 C1632 1.350 . S
C1629 C1632 1.463 . S
C1629 C1634 1.350 . S
C1629 N1637 1.427 . S
C1630 H1621 0.930 . S
C1630 C1628 1.378 . S
C1630 C1631 1.367 . S
C1631 C1630 1.367 . S
C1631 C1633 1.433 . S
C1632 C1628 1.350 . S
C1632 C1629 1.463 . S
C1632 N1636 1.427 . S
C1633 H1623 0.929 . S
C1633 C1631 1.433 . S
C1633 N1636 1.384 . S
C1634 H1625 0.929 . S
C1634 C1626 1.378 . S
C1634 C1629 1.350 . S
C1635 H1622 0.929 . S
C1635 C1627 1.433 . S
C1635 N1637 1.384 . S
N1636 C1632 1.427 . S
N1636 C1633 1.384 . S
N1637 C1629 1.427 . S
N1637 C1635 1.384 . S
H1638 C1644 0.930 . S
H1639 C1648 0.930 . S
H1640 C1653 0.929 . S
H1641 C1651 0.929 . S
H1642 C1646 0.929 . S
H1643 C1652 0.929 . S
C1644 H1638 0.930 . S
C1644 C1645 1.367 . S
C1644 C1652 1.378 . S
C1645 C1644 1.367 . S
C1645 C1653 1.433 . S
C1646 H1642 0.929 . S
C1646 C1648 1.378 . S
C1646 C1650 1.350 . S
C1647 C1650 1.463 . S
C1647 C1652 1.350 . S
C1647 N1655 1.427 . S
C1648 H1639 0.930 . S
C1648 C1646 1.378 . S
C1648 C1649 1.347 1_565 S
C1649 C1648 1.347 1_545 S
C1649 C1651 1.454 . S
C1650 C1646 1.350 . S
C1650 C1647 1.463 . S
C1650 N1654 1.427 . S
C1651 H1641 0.929 . S
C1651 C1649 1.454 . S
C1651 N1654 1.384 1_545 S
C1652 H1643 0.929 . S
C1652 C1644 1.378 . S
C1652 C1647 1.350 . S
C1653 H1640 0.929 . S
C1653 C1645 1.433 . S
C1653 N1655 1.384 . S
N1654 C1650 1.427 . S
N1654 C1651 1.384 1_565 S
N1655 C1647 1.427 . S
N1655 C1653 1.384 . S
H1656 C1662 0.930 . S
H1657 C1666 0.930 . S
H1658 C1671 0.929 . S
H1659 C1669 0.929 . S
H1660 C1664 0.929 . S
H1661 C1670 0.929 . S
C1662 H1656 0.930 . S
C1662 C1663 1.367 . S
C1662 C1670 1.378 . S
C1663 C1662 1.367 . S
C1663 C1671 1.433 . S
C1664 H1660 0.929 . S
C1664 C1666 1.378 . S
C1664 C1668 1.350 . S
C1665 C1668 1.463 . S
C1665 C1670 1.350 . S
C1665 N1673 1.427 . S
C1666 H1657 0.930 . S
C1666 C1664 1.378 . S
C1666 C1667 1.347 1_455 S
C1667 C1666 1.347 1_655 S
C1667 C1669 1.424 . S
C1668 C1664 1.350 . S
C1668 C1665 1.463 . S
C1668 N1672 1.427 . S
C1669 H1659 0.929 . S
C1669 C1667 1.424 . S
C1669 N1672 1.384 1_655 S
C1670 H1661 0.929 . S
C1670 C1662 1.378 . S
C1670 C1665 1.350 . S
C1671 H1658 0.929 . S
C1671 C1663 1.433 . S
C1671 N1673 1.384 . S
N1672 C1668 1.427 . S
N1672 C1669 1.384 1_455 S
N1673 C1665 1.427 . S
N1673 C1671 1.384 . S
H1674 C1680 0.930 . S
H1675 C1684 0.930 . S
H1676 C1689 0.929 . S
H1677 C1687 0.929 . S
H1678 C1682 0.929 . S
H1679 C1688 0.929 . S
C1680 H1674 0.930 . S
C1680 C1681 1.367 . S
C1680 C1688 1.378 . S
C1681 C1680 1.367 . S
C1681 C1689 1.433 . S
C1682 H1678 0.929 . S
C1682 C1684 1.378 . S
C1682 C1686 1.350 . S
C1683 C1686 1.463 . S
C1683 C1688 1.350 . S
C1683 N1691 1.427 . S
C1684 H1675 0.930 . S
C1684 C1682 1.378 . S
C1684 C1685 1.367 . S
C1685 C1684 1.367 . S
C1685 C1687 1.433 . S
C1686 C1682 1.350 . S
C1686 C1683 1.463 . S
C1686 N1690 1.427 . S
C1687 H1677 0.929 . S
C1687 C1685 1.433 . S
C1687 N1690 1.384 . S
C1688 H1679 0.929 . S
C1688 C1680 1.378 . S
C1688 C1683 1.350 . S
C1689 H1676 0.929 . S
C1689 C1681 1.433 . S
C1689 N1691 1.384 . S
N1690 C1686 1.427 . S
N1690 C1687 1.384 . S
N1691 C1683 1.427 . S
N1691 C1689 1.384 . S
H1692 C1698 0.930 . S
H1693 C1702 0.930 . S
H1694 C1707 0.929 . S
H1695 C1705 0.929 . S
H1696 C1700 0.929 . S
H1697 C1706 0.929 . S
C1698 H1692 0.930 . S
C1698 C1699 1.341 1_545 S
C1698 C1706 1.378 . S
C1699 C1698 1.341 1_565 S
C1699 C1707 1.429 . S
C1700 H1696 0.929 . S
C1700 C1702 1.378 . S
C1700 C1704 1.350 . S
C1701 C1704 1.463 . S
C1701 C1706 1.350 . S
C1701 N1709 1.427 . S
C1702 H1693 0.930 . S
C1702 C1700 1.378 . S
C1702 C1703 1.367 . S
C1703 C1702 1.367 . S
C1703 C1705 1.433 . S
C1704 C1700 1.350 . S
C1704 C1701 1.463 . S
C1704 N1708 1.427 . S
C1705 H1695 0.929 . S
C1705 C1703 1.433 . S
C1705 N1708 1.384 . S
C1706 H1697 0.929 . S
C1706 C1698 1.378 . S
C1706 C1701 1.350 . S
C1707 H1694 0.929 . S
C1707 C1699 1.429 . S
C1707 N1709 1.384 1_565 S
N1708 C1704 1.427 . S
N1708 C1705 1.384 . S
N1709 C1701 1.427 . S
N1709 C1707 1.384 1_545 S
H1710 C1716 0.930 . S
H1711 C1720 0.930 . S
H1712 C1725 0.929 . S
H1713 C1723 0.929 . S
H1714 C1718 0.929 . S
H1715 C1724 0.929 . S
C1716 H1710 0.930 . S
C1716 C1717 1.367 . S
C1716 C1724 1.378 . S
C1717 C1716 1.367 . S
C1717 C1725 1.433 1_455 S
C1718 H1714 0.929 . S
C1718 C1720 1.378 . S
C1718 C1722 1.350 . S
C1719 C1722 1.463 . S
C1719 C1724 1.350 1_655 S
C1719 N1727 1.427 . S
C1720 H1711 0.930 . S
C1720 C1718 1.378 . S
C1720 C1721 1.367 . S
C1721 C1720 1.367 . S
C1721 C1723 1.433 . S
C1722 C1718 1.350 . S
C1722 C1719 1.463 . S
C1722 N1726 1.427 . S
C1723 H1713 0.929 . S
C1723 C1721 1.433 . S
C1723 N1726 1.384 . S
C1724 H1715 0.929 . S
C1724 C1716 1.378 . S
C1724 C1719 1.350 1_455 S
C1725 H1712 0.929 . S
C1725 C1717 1.433 1_655 S
C1725 N1727 1.384 . S
N1726 C1722 1.427 . S
N1726 C1723 1.384 . S
N1727 C1719 1.427 . S
N1727 C1725 1.384 . S
H1728 C1734 0.930 . S
H1729 C1738 0.930 . S
H1730 C1743 0.929 . S
H1731 C1741 0.929 . S
H1732 C1736 0.929 . S
H1733 C1742 0.929 . S
C1734 H1728 0.930 . S
C1734 C1735 1.367 . S
C1734 C1742 1.378 . S
C1735 C1734 1.367 . S
C1735 C1743 1.433 . S
C1736 H1732 0.929 . S
C1736 C1738 1.378 . S
C1736 C1740 1.350 . S
C1737 C1740 1.463 1_655 S
C1737 C1742 1.350 . S
C1737 N1745 1.427 . S
C1738 H1729 0.930 . S
C1738 C1736 1.378 . S
C1738 C1739 1.367 . S
C1739 C1738 1.367 . S
C1739 C1741 1.433 . S
C1740 C1736 1.350 . S
C1740 C1737 1.463 1_455 S
C1740 N1744 1.427 . S
C1741 H1731 0.929 . S
C1741 C1739 1.433 . S
C1741 N1744 1.384 . S
C1742 H1733 0.929 . S
C1742 C1734 1.378 . S
C1742 C1737 1.350 . S
C1743 H1730 0.929 . S
C1743 C1735 1.433 . S
C1743 N1745 1.384 . S
N1744 C1740 1.427 . S
N1744 C1741 1.384 . S
N1745 C1737 1.427 . S
N1745 C1743 1.384 . S
H1746 C1752 0.930 . S
H1747 C1756 0.930 . S
H1748 C1761 0.929 . S
H1749 C1759 0.929 . S
H1750 C1754 0.929 . S
H1751 C1760 0.929 . S
C1752 H1746 0.930 . S
C1752 C1753 1.367 . S
C1752 C1760 1.378 . S
C1753 C1752 1.367 . S
C1753 C1761 1.433 . S
C1754 H1750 0.929 . S
C1754 C1756 1.378 . S
C1754 C1758 1.350 . S
C1755 C1758 1.463 . S
C1755 C1760 1.350 . S
C1755 N1763 1.427 . S
C1756 H1747 0.930 . S
C1756 C1754 1.378 . S
C1756 C1757 1.367 . S
C1757 C1756 1.367 . S
C1757 C1759 1.433 . S
C1758 C1754 1.350 . S
C1758 C1755 1.463 . S
C1758 N1762 1.427 . S
C1759 H1749 0.929 . S
C1759 C1757 1.433 . S
C1759 N1762 1.384 . S
C1760 H1751 0.929 . S
C1760 C1752 1.378 . S
C1760 C1755 1.350 . S
C1761 H1748 0.929 . S
C1761 C1753 1.433 . S
C1761 N1763 1.384 . S
N1762 C1758 1.427 . S
N1762 C1759 1.384 . S
N1763 C1755 1.427 . S
N1763 C1761 1.384 . S
H1764 C1770 0.930 . S
H1765 C1774 0.930 . S
H1766 C1779 0.929 . S
H1767 C1777 0.929 . S
H1768 C1772 0.929 . S
H1769 C1778 0.929 . S
C1770 H1764 0.930 . S
C1770 C1771 1.367 . S
C1770 C1778 1.378 . S
C1771 C1770 1.367 . S
C1771 C1779 1.433 . S
C1772 H1768 0.929 . S
C1772 C1774 1.378 . S
C1772 C1776 1.350 . S
C1773 C1776 1.463 1_545 S
C1773 C1778 1.350 . S
C1773 N1781 1.427 . S
C1774 H1765 0.930 . S
C1774 C1772 1.378 . S
C1774 C1775 1.367 . S
C1775 C1774 1.367 . S
C1775 C1777 1.433 . S
C1776 C1772 1.350 . S
C1776 C1773 1.463 1_565 S
C1776 N1780 1.427 . S
C1777 H1767 0.929 . S
C1777 C1775 1.433 . S
C1777 N1780 1.384 . S
C1778 H1769 0.929 . S
C1778 C1770 1.378 . S
C1778 C1773 1.350 . S
C1779 H1766 0.929 . S
C1779 C1771 1.433 . S
C1779 N1781 1.384 . S
N1780 C1776 1.427 . S
N1780 C1777 1.384 . S
N1781 C1773 1.427 . S
N1781 C1779 1.384 . S
H1782 C1788 0.930 . S
H1783 C1792 0.930 . S
H1784 C1797 0.929 . S
H1785 C1795 0.929 . S
H1786 C1790 0.929 . S
H1787 C1796 0.929 . S
C1788 H1782 0.930 . S
C1788 C1789 1.367 . S
C1788 C1796 1.378 . S
C1789 C1788 1.367 . S
C1789 C1797 1.433 . S
C1790 H1786 0.929 . S
C1790 C1792 1.378 . S
C1790 C1794 1.350 . S
C1791 C1794 1.463 1_545 S
C1791 C1796 1.350 . S
C1791 N1799 1.427 . S
C1792 H1783 0.930 . S
C1792 C1790 1.378 . S
C1792 C1793 1.367 . S
C1793 C1792 1.367 . S
C1793 C1795 1.433 . S
C1794 C1790 1.350 . S
C1794 C1791 1.463 1_565 S
C1794 N1798 1.427 . S
C1795 H1785 0.929 . S
C1795 C1793 1.433 . S
C1795 N1798 1.384 . S
C1796 H1787 0.929 . S
C1796 C1788 1.378 . S
C1796 C1791 1.350 . S
C1797 H1784 0.929 . S
C1797 C1789 1.433 . S
C1797 N1799 1.384 . S
N1798 C1794 1.427 . S
N1798 C1795 1.384 . S
N1799 C1791 1.427 . S
N1799 C1797 1.384 . S
H1800 C1806 0.930 . S
H1801 C1810 0.930 . S
H1802 C1815 0.929 . S
H1803 C1813 0.929 . S
H1804 C1808 0.929 . S
H1805 C1814 0.929 . S
C1806 H1800 0.930 . S
C1806 C1807 1.367 . S
C1806 C1814 1.378 . S
C1807 C1806 1.367 . S
C1807 C1815 1.433 . S
C1808 H1804 0.929 . S
C1808 C1810 1.378 . S
C1808 C1812 1.350 . S
C1809 C1812 1.463 1_455 S
C1809 C1814 1.350 . S
C1809 N1817 1.427 . S
C1810 H1801 0.930 . S
C1810 C1808 1.378 . S
C1810 C1811 1.367 . S
C1811 C1810 1.367 . S
C1811 C1813 1.433 . S
C1812 C1808 1.350 . S
C1812 C1809 1.463 1_655 S
C1812 N1816 1.427 . S
C1813 H1803 0.929 . S
C1813 C1811 1.433 . S
C1813 N1816 1.384 . S
C1814 H1805 0.929 . S
C1814 C1806 1.378 . S
C1814 C1809 1.350 . S
C1815 H1802 0.929 . S
C1815 C1807 1.433 . S
C1815 N1817 1.384 . S
N1816 C1812 1.427 . S
N1816 C1813 1.384 . S
N1817 C1809 1.427 . S
N1817 C1815 1.384 . S
H1818 C1824 0.930 . S
H1819 C1828 0.930 . S
H1820 C1833 0.929 . S
H1821 C1831 0.929 . S
H1822 C1826 0.929 . S
H1823 C1832 0.929 . S
C1824 H1818 0.930 . S
C1824 C1825 1.367 . S
C1824 C1832 1.378 . S
C1825 C1824 1.367 . S
C1825 C1833 1.433 . S
C1826 H1822 0.929 . S
C1826 C1828 1.378 . S
C1826 C1830 1.350 . S
C1827 C1830 1.463 . S
C1827 C1832 1.350 . S
C1827 N1835 1.427 . S
C1828 H1819 0.930 . S
C1828 C1826 1.378 . S
C1828 C1829 1.367 . S
C1829 C1828 1.367 . S
C1829 C1831 1.433 . S
C1830 C1826 1.350 . S
C1830 C1827 1.463 . S
C1830 N1834 1.427 . S
C1831 H1821 0.929 . S
C1831 C1829 1.433 . S
C1831 N1834 1.384 . S
C1832 H1823 0.929 . S
C1832 C1824 1.378 . S
C1832 C1827 1.350 . S
C1833 H1820 0.929 . S
C1833 C1825 1.433 . S
C1833 N1835 1.384 . S
N1834 C1830 1.427 . S
N1834 C1831 1.384 . S
N1835 C1827 1.427 . S
N1835 C1833 1.384 . S
H1836 C1842 0.930 . S
H1837 C1846 0.930 . S
H1838 C1851 0.929 . S
H1839 C1849 0.929 . S
H1840 C1844 0.929 . S
H1841 C1850 0.929 . S
C1842 H1836 0.930 . S
C1842 C1843 1.367 . S
C1842 C1850 1.378 . S
C1843 C1842 1.367 . S
C1843 C1851 1.433 . S
C1844 H1840 0.929 . S
C1844 C1846 1.378 . S
C1844 C1848 1.350 . S
C1845 C1848 1.463 . S
C1845 C1850 1.350 . S
C1845 N1853 1.427 . S
C1846 H1837 0.930 . S
C1846 C1844 1.378 . S
C1846 C1847 1.367 . S
C1847 C1846 1.367 . S
C1847 C1849 1.433 . S
C1848 C1844 1.350 . S
C1848 C1845 1.463 . S
C1848 N1852 1.427 . S
C1849 H1839 0.929 . S
C1849 C1847 1.433 . S
C1849 N1852 1.384 . S
C1850 H1841 0.929 . S
C1850 C1842 1.378 . S
C1850 C1845 1.350 . S
C1851 H1838 0.929 . S
C1851 C1843 1.433 . S
C1851 N1853 1.384 . S
N1852 C1848 1.427 . S
N1852 C1849 1.384 . S
N1853 C1845 1.427 . S
N1853 C1851 1.384 . S
H1854 C1860 0.930 . S
H1855 C1864 0.930 . S
H1856 C1869 0.929 . S
H1857 C1867 0.929 . S
H1858 C1862 0.929 . S
H1859 C1868 0.929 . S
C1860 H1854 0.930 . S
C1860 C1861 1.367 . S
C1860 C1868 1.378 . S
C1861 C1860 1.367 . S
C1861 C1869 1.433 . S
C1862 H1858 0.929 . S
C1862 C1864 1.378 . S
C1862 C1866 1.350 . S
C1863 C1866 1.463 . S
C1863 C1868 1.350 . S
C1863 N1871 1.427 . S
C1864 H1855 0.930 . S
C1864 C1862 1.378 . S
C1864 C1865 1.367 . S
C1865 C1864 1.367 . S
C1865 C1867 1.433 . S
C1866 C1862 1.350 . S
C1866 C1863 1.463 . S
C1866 N1870 1.427 . S
C1867 H1857 0.929 . S
C1867 C1865 1.433 . S
C1867 N1870 1.384 . S
C1868 H1859 0.929 . S
C1868 C1860 1.378 . S
C1868 C1863 1.350 . S
C1869 H1856 0.929 . S
C1869 C1861 1.433 . S
C1869 N1871 1.384 . S
N1870 C1866 1.427 . S
N1870 C1867 1.384 . S
N1871 C1863 1.427 . S
N1871 C1869 1.384 . S
H1872 C1878 0.930 . S
H1873 C1882 0.930 . S
H1874 C1887 0.929 . S
H1875 C1885 0.929 . S
H1876 C1880 0.929 . S
H1877 C1886 0.929 . S
C1878 H1872 0.930 . S
C1878 C1879 1.367 . S
C1878 C1886 1.378 . S
C1879 C1878 1.367 . S
C1879 C1887 1.433 . S
C1880 H1876 0.929 . S
C1880 C1882 1.378 . S
C1880 C1884 1.350 . S
C1881 C1884 1.463 . S
C1881 C1886 1.350 . S
C1881 N1889 1.427 . S
C1882 H1873 0.930 . S
C1882 C1880 1.378 . S
C1882 C1883 1.367 . S
C1883 C1882 1.367 . S
C1883 C1885 1.433 . S
C1884 C1880 1.350 . S
C1884 C1881 1.463 . S
C1884 N1888 1.427 . S
C1885 H1875 0.929 . S
C1885 C1883 1.433 . S
C1885 N1888 1.384 . S
C1886 H1877 0.929 . S
C1886 C1878 1.378 . S
C1886 C1881 1.350 . S
C1887 H1874 0.929 . S
C1887 C1879 1.433 . S
C1887 N1889 1.384 . S
N1888 C1884 1.427 . S
N1888 C1885 1.384 . S
N1889 C1881 1.427 . S
N1889 C1887 1.384 . S
H1890 C1896 0.930 . S
H1891 C1900 0.930 . S
H1892 C1905 0.929 . S
H1893 C1903 0.929 . S
H1894 C1898 0.929 . S
H1895 C1904 0.929 . S
C1896 H1890 0.930 . S
C1896 C1897 1.367 . S
C1896 C1904 1.378 . S
C1897 C1896 1.367 . S
C1897 C1905 1.433 . S
C1898 H1894 0.929 . S
C1898 C1900 1.378 . S
C1898 C1902 1.350 . S
C1899 C1902 1.463 . S
C1899 C1904 1.350 . S
C1899 N1907 1.427 . S
C1900 H1891 0.930 . S
C1900 C1898 1.378 . S
C1900 C1901 1.367 . S
C1901 C1900 1.367 . S
C1901 C1903 1.433 . S
C1902 C1898 1.350 . S
C1902 C1899 1.463 . S
C1902 N1906 1.427 . S
C1903 H1893 0.929 . S
C1903 C1901 1.433 . S
C1903 N1906 1.384 . S
C1904 H1895 0.929 . S
C1904 C1896 1.378 . S
C1904 C1899 1.350 . S
C1905 H1892 0.929 . S
C1905 C1897 1.433 . S
C1905 N1907 1.384 . S
N1906 C1902 1.427 . S
N1906 C1903 1.384 . S
N1907 C1899 1.427 . S
N1907 C1905 1.384 . S
H1908 C1914 0.930 . S
H1909 C1918 0.930 . S
H1910 C1923 0.929 . S
H1911 C1921 0.929 . S
H1912 C1916 0.929 . S
H1913 C1922 0.929 . S
C1914 H1908 0.930 . S
C1914 C1915 1.367 . S
C1914 C1922 1.378 . S
C1915 C1914 1.367 . S
C1915 C1923 1.433 . S
C1916 H1912 0.929 . S
C1916 C1918 1.378 . S
C1916 C1920 1.350 . S
C1917 C1920 1.463 . S
C1917 C1922 1.350 . S
C1917 N1925 1.427 . S
C1918 H1909 0.930 . S
C1918 C1916 1.378 . S
C1918 C1919 1.367 . S
C1919 C1918 1.367 . S
C1919 C1921 1.433 . S
C1920 C1916 1.350 . S
C1920 C1917 1.463 . S
C1920 N1924 1.427 . S
C1921 H1911 0.929 . S
C1921 C1919 1.433 . S
C1921 N1924 1.384 . S
C1922 H1913 0.929 . S
C1922 C1914 1.378 . S
C1922 C1917 1.350 . S
C1923 H1910 0.929 . S
C1923 C1915 1.433 . S
C1923 N1925 1.384 . S
N1924 C1920 1.427 . S
N1924 C1921 1.384 . S
N1925 C1917 1.427 . S
N1925 C1923 1.384 . S
H1926 C1932 0.930 . S
H1927 C1936 0.930 . S
H1928 C1941 0.929 . S
H1929 C1939 0.929 . S
H1930 C1934 0.929 . S
H1931 C1940 0.929 . S
C1932 H1926 0.930 . S
C1932 C1933 1.367 . S
C1932 C1940 1.378 . S
C1933 C1932 1.367 . S
C1933 C1941 1.433 . S
C1934 H1930 0.929 . S
C1934 C1936 1.378 . S
C1934 C1938 1.350 . S
C1935 C1938 1.463 . S
C1935 C1940 1.350 . S
C1935 N1943 1.427 . S
C1936 H1927 0.930 . S
C1936 C1934 1.378 . S
C1936 C1937 1.367 . S
C1937 C1936 1.367 . S
C1937 C1939 1.433 . S
C1938 C1934 1.350 . S
C1938 C1935 1.463 . S
C1938 N1942 1.427 . S
C1939 H1929 0.929 . S
C1939 C1937 1.433 . S
C1939 N1942 1.384 . S
C1940 H1931 0.929 . S
C1940 C1932 1.378 . S
C1940 C1935 1.350 . S
C1941 H1928 0.929 . S
C1941 C1933 1.433 . S
C1941 N1943 1.384 . S
N1942 C1938 1.427 . S
N1942 C1939 1.384 . S
N1943 C1935 1.427 . S
N1943 C1941 1.384 . S
H1944 C1950 0.930 . S
H1945 C1954 0.930 . S
H1946 C1959 0.929 . S
H1947 C1957 0.929 . S
H1948 C1952 0.929 . S
H1949 C1958 0.929 . S
C1950 H1944 0.930 . S
C1950 C1951 1.367 . S
C1950 C1958 1.378 . S
C1951 C1950 1.367 . S
C1951 C1959 1.433 . S
C1952 H1948 0.929 . S
C1952 C1954 1.378 . S
C1952 C1956 1.350 . S
C1953 C1956 1.463 . S
C1953 C1958 1.350 . S
C1953 N1961 1.427 . S
C1954 H1945 0.930 . S
C1954 C1952 1.378 . S
C1954 C1955 1.367 . S
C1955 C1954 1.367 . S
C1955 C1957 1.433 . S
C1956 C1952 1.350 . S
C1956 C1953 1.463 . S
C1956 N1960 1.427 . S
C1957 H1947 0.929 . S
C1957 C1955 1.433 . S
C1957 N1960 1.384 . S
C1958 H1949 0.929 . S
C1958 C1950 1.378 . S
C1958 C1953 1.350 . S
C1959 H1946 0.929 . S
C1959 C1951 1.433 . S
C1959 N1961 1.384 . S
N1960 C1956 1.427 . S
N1960 C1957 1.384 . S
N1961 C1953 1.427 . S
N1961 C1959 1.384 . S
H1962 C1968 0.930 . S
H1963 C1972 0.930 . S
H1964 C1977 0.929 . S
H1965 C1975 0.929 . S
H1966 C1970 0.929 . S
H1967 C1976 0.929 . S
C1968 H1962 0.930 . S
C1968 C1969 1.367 . S
C1968 C1976 1.378 . S
C1969 C1968 1.367 . S
C1969 C1977 1.433 . S
C1970 H1966 0.929 . S
C1970 C1972 1.378 . S
C1970 C1974 1.350 . S
C1971 C1974 1.463 . S
C1971 C1976 1.350 . S
C1971 N1979 1.427 . S
C1972 H1963 0.930 . S
C1972 C1970 1.378 . S
C1972 C1973 1.367 . S
C1973 C1972 1.367 . S
C1973 C1975 1.433 . S
C1974 C1970 1.350 . S
C1974 C1971 1.463 . S
C1974 N1978 1.427 . S
C1975 H1965 0.929 . S
C1975 C1973 1.433 . S
C1975 N1978 1.384 . S
C1976 H1967 0.929 . S
C1976 C1968 1.378 . S
C1976 C1971 1.350 . S
C1977 H1964 0.929 . S
C1977 C1969 1.433 . S
C1977 N1979 1.384 . S
N1978 C1974 1.427 . S
N1978 C1975 1.384 . S
N1979 C1971 1.427 . S
N1979 C1977 1.384 . S
H1980 C1986 0.930 . S
H1981 C1990 0.930 . S
H1982 C1995 0.929 . S
H1983 C1993 0.929 . S
H1984 C1988 0.929 . S
H1985 C1994 0.929 . S
C1986 H1980 0.930 . S
C1986 C1987 1.367 . S
C1986 C1994 1.378 . S
C1987 C1986 1.367 . S
C1987 C1995 1.433 . S
C1988 H1984 0.929 . S
C1988 C1990 1.378 . S
C1988 C1992 1.350 . S
C1989 C1992 1.463 . S
C1989 C1994 1.350 . S
C1989 N1997 1.427 . S
C1990 H1981 0.930 . S
C1990 C1988 1.378 . S
C1990 C1991 1.367 . S
C1991 C1990 1.367 . S
C1991 C1993 1.433 . S
C1992 C1988 1.350 . S
C1992 C1989 1.463 . S
C1992 N1996 1.427 . S
C1993 H1983 0.929 . S
C1993 C1991 1.433 . S
C1993 N1996 1.384 . S
C1994 H1985 0.929 . S
C1994 C1986 1.378 . S
C1994 C1989 1.350 . S
C1995 H1982 0.929 . S
C1995 C1987 1.433 . S
C1995 N1997 1.384 . S
N1996 C1992 1.427 . S
N1996 C1993 1.384 . S
N1997 C1989 1.427 . S
N1997 C1995 1.384 . S
H1998 C2004 0.930 . S
H1999 C2008 0.930 . S
H2000 C2013 0.929 . S
H2001 C2011 0.929 . S
H2002 C2006 0.929 . S
H2003 C2012 0.929 . S
C2004 H1998 0.930 . S
C2004 C2005 1.367 . S
C2004 C2012 1.378 . S
C2005 C2004 1.367 . S
C2005 C2013 1.433 . S
C2006 H2002 0.929 . S
C2006 C2008 1.378 . S
C2006 C2010 1.350 . S
C2007 C2010 1.463 . S
C2007 C2012 1.350 . S
C2007 N2015 1.427 . S
C2008 H1999 0.930 . S
C2008 C2006 1.378 . S
C2008 C2009 1.367 . S
C2009 C2008 1.367 . S
C2009 C2011 1.433 . S
C2010 C2006 1.350 . S
C2010 C2007 1.463 . S
C2010 N2014 1.427 . S
C2011 H2001 0.929 . S
C2011 C2009 1.433 . S
C2011 N2014 1.384 . S
C2012 H2003 0.929 . S
C2012 C2004 1.378 . S
C2012 C2007 1.350 . S
C2013 H2000 0.929 . S
C2013 C2005 1.433 . S
C2013 N2015 1.384 . S
N2014 C2010 1.427 . S
N2014 C2011 1.384 . S
N2015 C2007 1.427 . S
N2015 C2013 1.384 . S
H2016 C2022 0.930 . S
H2017 C2026 0.930 . S
H2018 C2031 0.929 . S
H2019 C2029 0.929 . S
H2020 C2024 0.929 . S
H2021 C2030 0.929 . S
C2022 H2016 0.930 . S
C2022 C2023 1.367 . S
C2022 C2030 1.378 . S
C2023 C2022 1.367 . S
C2023 C2031 1.433 . S
C2024 H2020 0.929 . S
C2024 C2026 1.378 . S
C2024 C2028 1.350 . S
C2025 C2028 1.463 . S
C2025 C2030 1.350 . S
C2025 N2033 1.427 . S
C2026 H2017 0.930 . S
C2026 C2024 1.378 . S
C2026 C2027 1.367 . S
C2027 C2026 1.367 . S
C2027 C2029 1.433 . S
C2028 C2024 1.350 . S
C2028 C2025 1.463 . S
C2028 N2032 1.427 . S
C2029 H2019 0.929 . S
C2029 C2027 1.433 . S
C2029 N2032 1.384 . S
C2030 H2021 0.929 . S
C2030 C2022 1.378 . S
C2030 C2025 1.350 . S
C2031 H2018 0.929 . S
C2031 C2023 1.433 . S
C2031 N2033 1.384 . S
N2032 C2028 1.427 . S
N2032 C2029 1.384 . S
N2033 C2025 1.427 . S
N2033 C2031 1.384 . S
H2034 C2040 0.930 . S
H2035 C2044 0.930 . S
H2036 C2049 0.929 . S
H2037 C2047 0.929 . S
H2038 C2042 0.929 . S
H2039 C2048 0.929 . S
C2040 H2034 0.930 . S
C2040 C2041 1.367 . S
C2040 C2048 1.378 . S
C2041 C2040 1.367 . S
C2041 C2049 1.433 . S
C2042 H2038 0.929 . S
C2042 C2044 1.378 . S
C2042 C2046 1.350 . S
C2043 C2046 1.463 . S
C2043 C2048 1.350 . S
C2043 N2051 1.427 . S
C2044 H2035 0.930 . S
C2044 C2042 1.378 . S
C2044 C2045 1.367 . S
C2045 C2044 1.367 . S
C2045 C2047 1.433 . S
C2046 C2042 1.350 . S
C2046 C2043 1.463 . S
C2046 N2050 1.427 . S
C2047 H2037 0.929 . S
C2047 C2045 1.433 . S
C2047 N2050 1.384 . S
C2048 H2039 0.929 . S
C2048 C2040 1.378 . S
C2048 C2043 1.350 . S
C2049 H2036 0.929 . S
C2049 C2041 1.433 . S
C2049 N2051 1.384 . S
N2050 C2046 1.427 . S
N2050 C2047 1.384 . S
N2051 C2043 1.427 . S
N2051 C2049 1.384 . S
H2052 C2058 0.930 . S
H2053 C2062 0.930 . S
H2054 C2067 0.929 . S
H2055 C2065 0.929 . S
H2056 C2060 0.929 . S
H2057 C2066 0.929 . S
C2058 H2052 0.930 . S
C2058 C2059 1.367 . S
C2058 C2066 1.378 . S
C2059 C2058 1.367 . S
C2059 C2067 1.433 . S
C2060 H2056 0.929 . S
C2060 C2062 1.378 . S
C2060 C2064 1.350 . S
C2061 C2064 1.463 1_455 S
C2061 C2066 1.350 . S
C2061 N2069 1.427 . S
C2062 H2053 0.930 . S
C2062 C2060 1.378 . S
C2062 C2063 1.367 . S
C2063 C2062 1.367 . S
C2063 C2065 1.433 . S
C2064 C2060 1.350 . S
C2064 C2061 1.463 1_655 S
C2064 N2068 1.427 . S
C2065 H2055 0.929 . S
C2065 C2063 1.433 . S
C2065 N2068 1.384 . S
C2066 H2057 0.929 . S
C2066 C2058 1.378 . S
C2066 C2061 1.350 . S
C2067 H2054 0.929 . S
C2067 C2059 1.433 . S
C2067 N2069 1.384 . S
N2068 C2064 1.427 . S
N2068 C2065 1.384 . S
N2069 C2061 1.427 . S
N2069 C2067 1.384 . S
H2070 C2076 0.930 . S
H2071 C2080 0.930 . S
H2072 C2085 0.929 . S
H2073 C2083 0.929 . S
H2074 C2078 0.929 . S
H2075 C2084 0.929 . S
C2076 H2070 0.930 . S
C2076 C2077 1.367 . S
C2076 C2084 1.378 . S
C2077 C2076 1.367 . S
C2077 C2085 1.433 . S
C2078 H2074 0.929 . S
C2078 C2080 1.378 . S
C2078 C2082 1.350 . S
C2079 C2082 1.463 . S
C2079 C2084 1.350 . S
C2079 N2087 1.427 . S
C2080 H2071 0.930 . S
C2080 C2078 1.378 . S
C2080 C2081 1.367 . S
C2081 C2080 1.367 . S
C2081 C2083 1.433 . S
C2082 C2078 1.350 . S
C2082 C2079 1.463 . S
C2082 N2086 1.427 . S
C2083 H2073 0.929 . S
C2083 C2081 1.433 . S
C2083 N2086 1.384 . S
C2084 H2075 0.929 . S
C2084 C2076 1.378 . S
C2084 C2079 1.350 . S
C2085 H2072 0.929 . S
C2085 C2077 1.433 . S
C2085 N2087 1.384 . S
N2086 C2082 1.427 . S
N2086 C2083 1.384 . S
N2087 C2079 1.427 . S
N2087 C2085 1.384 . S
H2088 C2094 0.915 1_565 S
H2089 C2098 0.915 1_545 S
H2090 C2103 0.929 . S
H2091 C2101 0.929 . S
H2092 C2096 0.929 . S
H2093 C2102 0.929 . S
C2094 H2088 0.915 1_545 S
C2094 C2095 1.367 . S
C2094 C2102 1.378 1_545 S
C2095 C2094 1.367 . S
C2095 C2103 1.433 . S
C2096 H2092 0.929 . S
C2096 C2098 1.378 1_545 S
C2096 C2100 1.350 1_545 S
C2097 C2100 1.463 1_545 S
C2097 C2102 1.350 1_545 S
C2097 N2105 1.427 . S
C2098 H2089 0.915 1_565 S
C2098 C2096 1.378 1_565 S
C2098 C2099 1.367 . S
C2099 C2098 1.367 . S
C2099 C2101 1.433 . S
C2100 C2096 1.350 1_565 S
C2100 C2097 1.463 1_565 S
C2100 N2104 1.427 . S
C2101 H2091 0.929 . S
C2101 C2099 1.433 . S
C2101 N2104 1.384 . S
C2102 H2093 0.929 . S
C2102 C2094 1.378 1_565 S
C2102 C2097 1.350 1_565 S
C2103 H2090 0.929 . S
C2103 C2095 1.433 . S
C2103 N2105 1.384 . S
N2104 C2100 1.427 . S
N2104 C2101 1.384 . S
N2105 C2097 1.427 . S
N2105 C2103 1.384 . S
H2106 C2112 0.930 . S
H2107 C2116 0.930 . S
H2108 C2121 0.929 . S
H2109 C2119 0.929 . S
H2110 C2114 0.912 1_565 S
H2111 C2120 0.912 1_545 S
C2112 H2106 0.930 . S
C2112 C2113 1.367 . S
C2112 C2120 1.411 . S
C2113 C2112 1.367 . S
C2113 C2121 1.433 . S
C2114 H2110 0.912 1_545 S
C2114 C2116 1.411 . S
C2114 C2118 1.336 . S
C2115 C2118 1.463 1_564 S
C2115 C2120 1.336 . S
C2115 N2123 1.427 . S
C2116 H2107 0.930 . S
C2116 C2114 1.411 . S
C2116 C2117 1.367 . S
C2117 C2116 1.367 . S
C2117 C2119 1.433 . S
C2118 C2114 1.336 . S
C2118 C2115 1.463 1_546 S
C2118 N2122 1.427 . S
C2119 H2109 0.929 . S
C2119 C2117 1.433 . S
C2119 N2122 1.384 . S
C2120 H2111 0.912 1_565 S
C2120 C2112 1.411 . S
C2120 C2115 1.336 . S
C2121 H2108 0.929 . S
C2121 C2113 1.433 . S
C2121 N2123 1.384 . S
N2122 C2118 1.427 . S
N2122 C2119 1.384 . S
N2123 C2115 1.427 . S
N2123 C2121 1.384 . S
H2124 C2130 0.930 . S
H2125 C2134 0.930 . S
H2126 C2139 0.929 . S
H2127 C2137 0.929 . S
H2128 C2132 0.934 . S
H2129 C2138 0.934 . S
C2130 H2124 0.930 . S
C2130 C2131 1.367 . S
C2130 C2138 1.378 . S
C2131 C2130 1.367 . S
C2131 C2139 1.433 . S
C2132 H2128 0.934 . S
C2132 C2134 1.378 . S
C2132 C2136 1.350 . S
C2133 C2136 1.463 1_656 S
C2133 C2138 1.350 . S
C2133 N2141 1.427 . S
C2134 H2125 0.930 . S
C2134 C2132 1.378 . S
C2134 C2135 1.367 . S
C2135 C2134 1.367 . S
C2135 C2137 1.433 . S
C2136 C2132 1.350 . S
C2136 C2133 1.463 1_454 S
C2136 N2140 1.427 . S
C2137 H2127 0.929 . S
C2137 C2135 1.433 . S
C2137 N2140 1.384 . S
C2138 H2129 0.934 . S
C2138 C2130 1.378 . S
C2138 C2133 1.350 . S
C2139 H2126 0.929 . S
C2139 C2131 1.433 . S
C2139 N2141 1.384 . S
N2140 C2136 1.427 . S
N2140 C2137 1.384 . S
N2141 C2133 1.427 . S
N2141 C2139 1.384 . S
H2142 C2148 0.930 . S
H2143 C2152 0.930 . S
H2144 C2157 0.929 . S
H2145 C2155 0.929 . S
H2146 C2150 0.929 . S
H2147 C2156 0.929 . S
C2148 H2142 0.930 . S
C2148 C2149 1.367 . S
C2148 C2156 1.378 . S
C2149 C2148 1.367 . S
C2149 C2157 1.433 . S
C2150 H2146 0.929 . S
C2150 C2152 1.378 . S
C2150 C2154 1.350 . S
C2151 C2154 1.463 1_554 S
C2151 C2156 1.350 . S
C2151 N2159 1.427 . S
C2152 H2143 0.930 . S
C2152 C2150 1.378 . S
C2152 C2153 1.367 . S
C2153 C2152 1.367 . S
C2153 C2155 1.433 . S
C2154 C2150 1.350 . S
C2154 C2151 1.463 1_556 S
C2154 N2158 1.427 . S
C2155 H2145 0.929 . S
C2155 C2153 1.433 . S
C2155 N2158 1.384 . S
C2156 H2147 0.929 . S
C2156 C2148 1.378 . S
C2156 C2151 1.350 . S
C2157 H2144 0.929 . S
C2157 C2149 1.433 . S
C2157 N2159 1.384 . S
N2158 C2154 1.427 . S
N2158 C2155 1.384 . S
N2159 C2151 1.427 . S
N2159 C2157 1.384 . S
H2160 C2166 0.930 . S
H2161 C2170 0.930 1_565 S
H2162 C2175 0.929 . S
H2163 C2173 0.929 . S
H2164 C2168 0.929 . S
H2165 C2174 0.929 . S
C2166 H2160 0.930 . S
C2166 C2167 1.367 . S
C2166 C2174 1.378 . S
C2167 C2166 1.367 . S
C2167 C2175 1.433 1_554 S
C2168 H2164 0.929 . S
C2168 C2170 1.378 . S
C2168 C2172 1.350 . S
C2169 C2172 1.463 . S
C2169 C2174 1.350 1_556 S
C2169 N2177 1.427 . S
C2170 H2161 0.930 1_545 S
C2170 C2168 1.378 . S
C2170 C2171 1.367 1_545 S
C2171 C2170 1.367 1_565 S
C2171 C2173 1.433 . S
C2172 C2168 1.350 . S
C2172 C2169 1.463 . S
C2172 N2176 1.427 . S
C2173 H2163 0.929 . S
C2173 C2171 1.433 . S
C2173 N2176 1.384 1_565 S
C2174 H2165 0.929 . S
C2174 C2166 1.378 . S
C2174 C2169 1.350 1_554 S
C2175 H2162 0.929 . S
C2175 C2167 1.433 1_556 S
C2175 N2177 1.384 . S
N2176 C2172 1.427 . S
N2176 C2173 1.384 1_545 S
N2177 C2169 1.427 . S
N2177 C2175 1.384 . S
H2178 C2184 0.930 . S
H2179 C2188 0.931 1_455 S
H2180 C2193 0.929 . S
H2181 C2191 0.908 1_554 S
H2182 C2186 0.929 . S
H2183 C2192 0.929 . S
C2184 H2178 0.930 . S
C2184 C2185 1.367 . S
C2184 C2192 1.378 . S
C2185 C2184 1.367 . S
C2185 C2193 1.433 1_554 S
C2186 H2182 0.929 . S
C2186 C2188 1.378 . S
C2186 C2190 1.350 . S
C2187 C2190 1.463 . S
C2187 C2192 1.350 1_556 S
C2187 N2195 1.427 . S
C2188 H2179 0.931 1_655 S
C2188 C2186 1.378 . S
C2188 C2189 1.367 1_655 S
C2189 C2188 1.367 1_455 S
C2189 C2191 1.433 . S
C2190 C2186 1.350 . S
C2190 C2187 1.463 . S
C2190 N2194 1.414 1_556 S
C2191 H2181 0.908 1_556 S
C2191 C2189 1.433 . S
C2191 N2194 1.376 1_456 S
C2192 H2183 0.929 . S
C2192 C2184 1.378 . S
C2192 C2187 1.350 1_554 S
C2193 H2180 0.929 . S
C2193 C2185 1.433 1_556 S
C2193 N2195 1.384 . S
N2194 C2190 1.414 1_554 S
N2194 C2191 1.376 1_654 S
N2195 C2187 1.427 . S
N2195 C2193 1.384 . S
H2196 C2202 0.930 . S
H2197 C2206 0.930 . S
H2198 C2211 0.929 1_554 S
H2199 C2209 0.929 . S
H2200 C2204 0.929 . S
H2201 C2210 0.929 . S
C2202 H2196 0.930 . S
C2202 C2203 1.367 . S
C2202 C2210 1.378 . S
C2203 C2202 1.367 . S
C2203 C2211 1.433 . S
C2204 H2200 0.929 . S
C2204 C2206 1.378 . S
C2204 C2208 1.350 1_554 S
C2205 C2208 1.463 . S
C2205 C2210 1.350 . S
C2205 N2213 1.427 1_556 S
C2206 H2197 0.930 . S
C2206 C2204 1.378 . S
C2206 C2207 1.367 . S
C2207 C2206 1.367 . S
C2207 C2209 1.433 1_554 S
C2208 C2204 1.350 1_556 S
C2208 C2205 1.463 . S
C2208 N2212 1.427 . S
C2209 H2199 0.929 . S
C2209 C2207 1.433 1_556 S
C2209 N2212 1.384 . S
C2210 H2201 0.929 . S
C2210 C2202 1.378 . S
C2210 C2205 1.350 . S
C2211 H2198 0.929 1_556 S
C2211 C2203 1.433 . S
C2211 N2213 1.384 1_556 S
N2212 C2208 1.427 . S
N2212 C2209 1.384 . S
N2213 C2205 1.427 1_554 S
N2213 C2211 1.384 1_554 S
H2214 C2220 0.930 . S
H2215 C2224 0.930 . S
H2216 C2229 0.929 1_655 S
H2217 C2227 0.929 . S
H2218 C2222 0.929 . S
H2219 C2228 0.929 . S
C2220 H2214 0.930 . S
C2220 C2221 1.367 . S
C2220 C2228 1.378 1_655 S
C2221 C2220 1.367 . S
C2221 C2229 1.433 1_655 S
C2222 H2218 0.929 . S
C2222 C2224 1.378 . S
C2222 C2226 1.350 . S
C2223 C2226 1.463 . S
C2223 C2228 1.350 . S
C2223 N2231 1.427 . S
C2224 H2215 0.930 . S
C2224 C2222 1.378 . S
C2224 C2225 1.367 . S
C2225 C2224 1.367 . S
C2225 C2227 1.433 . S
C2226 C2222 1.350 . S
C2226 C2223 1.463 . S
C2226 N2230 1.427 . S
C2227 H2217 0.929 . S
C2227 C2225 1.433 . S
C2227 N2230 1.384 . S
C2228 H2219 0.929 . S
C2228 C2220 1.378 1_455 S
C2228 C2223 1.350 . S
C2229 H2216 0.929 1_455 S
C2229 C2221 1.433 1_455 S
C2229 N2231 1.384 . S
N2230 C2226 1.427 . S
N2230 C2227 1.384 . S
N2231 C2223 1.427 . S
N2231 C2229 1.384 . S
H2232 C2238 0.930 . S
H2233 C2242 0.930 . S
H2234 C2247 0.929 . S
H2235 C2245 0.929 . S
H2236 C2240 0.929 . S
H2237 C2246 0.929 . S
C2238 H2232 0.930 . S
C2238 C2239 1.367 . S
C2238 C2246 1.378 . S
C2239 C2238 1.367 . S
C2239 C2247 1.433 . S
C2240 H2236 0.929 . S
C2240 C2242 1.378 . S
C2240 C2244 1.350 . S
C2241 C2244 1.463 . S
C2241 C2246 1.350 . S
C2241 N2249 1.427 . S
C2242 H2233 0.930 . S
C2242 C2240 1.378 . S
C2242 C2243 1.367 . S
C2243 C2242 1.367 . S
C2243 C2245 1.433 . S
C2244 C2240 1.350 . S
C2244 C2241 1.463 . S
C2244 N2248 1.427 . S
C2245 H2235 0.929 . S
C2245 C2243 1.433 . S
C2245 N2248 1.384 . S
C2246 H2237 0.929 . S
C2246 C2238 1.378 . S
C2246 C2241 1.350 . S
C2247 H2234 0.929 . S
C2247 C2239 1.433 . S
C2247 N2249 1.384 . S
N2248 C2244 1.427 . S
N2248 C2245 1.384 . S
N2249 C2241 1.427 . S
N2249 C2247 1.384 . S
H2250 C2256 0.930 . S
H2251 C2260 0.930 . S
H2252 C2265 0.929 1_545 S
H2253 C2263 0.929 . S
H2254 C2258 0.929 . S
H2255 C2264 0.929 . S
C2256 H2250 0.930 . S
C2256 C2257 1.367 . S
C2256 C2264 1.378 1_545 S
C2257 C2256 1.367 . S
C2257 C2265 1.433 1_545 S
C2258 H2254 0.929 . S
C2258 C2260 1.378 . S
C2258 C2262 1.350 . S
C2259 C2262 1.463 . S
C2259 C2264 1.350 . S
C2259 N2267 1.427 . S
C2260 H2251 0.930 . S
C2260 C2258 1.378 . S
C2260 C2261 1.367 . S
C2261 C2260 1.367 . S
C2261 C2263 1.433 . S
C2262 C2258 1.350 . S
C2262 C2259 1.463 . S
C2262 N2266 1.427 . S
C2263 H2253 0.929 . S
C2263 C2261 1.433 . S
C2263 N2266 1.384 . S
C2264 H2255 0.929 . S
C2264 C2256 1.378 1_565 S
C2264 C2259 1.350 . S
C2265 H2252 0.929 1_565 S
C2265 C2257 1.433 1_565 S
C2265 N2267 1.384 . S
N2266 C2262 1.427 . S
N2266 C2263 1.384 . S
N2267 C2259 1.427 . S
N2267 C2265 1.384 . S
H2268 C2274 0.930 1_545 S
H2269 C2278 0.930 . S
H2270 C2283 0.929 . S
H2271 C2281 0.929 . S
H2272 C2276 0.929 . S
H2273 C2282 0.929 . S
C2274 H2268 0.930 1_565 S
C2274 C2275 1.367 1_565 S
C2274 C2282 1.378 . S
C2275 C2274 1.367 1_545 S
C2275 C2283 1.433 . S
C2276 H2272 0.929 . S
C2276 C2278 1.378 . S
C2276 C2280 1.350 1_556 S
C2277 C2280 1.463 . S
C2277 C2282 1.350 . S
C2277 N2285 1.427 . S
C2278 H2269 0.930 . S
C2278 C2276 1.378 . S
C2278 C2279 1.367 . S
C2279 C2278 1.367 . S
C2279 C2281 1.433 1_556 S
C2280 C2276 1.350 1_554 S
C2280 C2277 1.463 . S
C2280 N2284 1.427 . S
C2281 H2271 0.929 . S
C2281 C2279 1.433 1_554 S
C2281 N2284 1.384 . S
C2282 H2273 0.929 . S
C2282 C2274 1.378 . S
C2282 C2277 1.350 . S
C2283 H2270 0.929 . S
C2283 C2275 1.433 . S
C2283 N2285 1.384 1_545 S
N2284 C2280 1.427 . S
N2284 C2281 1.384 . S
N2285 C2277 1.427 . S
N2285 C2283 1.384 1_565 S
H2286 C2292 0.930 . S
H2287 C2296 0.930 . S
H2288 C2301 0.929 1_556 S
H2289 C2299 0.929 . S
H2290 C2294 0.929 . S
H2291 C2300 0.929 . S
C2292 H2286 0.930 . S
C2292 C2293 1.367 1_455 S
C2292 C2300 1.378 . S
C2293 C2292 1.367 1_655 S
C2293 C2301 1.433 . S
C2294 H2290 0.929 . S
C2294 C2296 1.378 . S
C2294 C2298 1.350 1_556 S
C2295 C2298 1.463 . S
C2295 C2300 1.350 . S
C2295 N2303 1.427 1_554 S
C2296 H2287 0.930 . S
C2296 C2294 1.378 . S
C2296 C2297 1.367 . S
C2297 C2296 1.367 . S
C2297 C2299 1.433 1_556 S
C2298 C2294 1.350 1_554 S
C2298 C2295 1.463 . S
C2298 N2302 1.427 . S
C2299 H2289 0.929 . S
C2299 C2297 1.433 1_554 S
C2299 N2302 1.384 . S
C2300 H2291 0.929 . S
C2300 C2292 1.378 . S
C2300 C2295 1.350 . S
C2301 H2288 0.929 1_554 S
C2301 C2293 1.433 . S
C2301 N2303 1.384 1_654 S
N2302 C2298 1.427 . S
N2302 C2299 1.384 . S
N2303 C2295 1.427 1_556 S
N2303 C2301 1.384 1_456 S
H2304 C2310 0.930 . S
H2305 C2314 0.930 . S
H2306 C2319 0.929 . S
H2307 C2317 0.929 . S
H2308 C2312 0.929 . S
H2309 C2318 0.929 1_556 S
C2310 H2304 0.930 . S
C2310 C2311 1.367 . S
C2310 C2318 1.378 . S
C2311 C2310 1.367 . S
C2311 C2319 1.433 . S
C2312 H2308 0.929 . S
C2312 C2314 1.378 . S
C2312 C2316 1.350 . S
C2313 C2316 1.463 . S
C2313 C2318 1.350 . S
C2313 N2321 1.427 . S
C2314 H2305 0.930 . S
C2314 C2312 1.378 . S
C2314 C2315 1.367 1_554 S
C2315 C2314 1.367 1_556 S
C2315 C2317 1.433 . S
C2316 C2312 1.350 . S
C2316 C2313 1.463 . S
C2316 N2320 1.427 1_554 S
C2317 H2307 0.929 . S
C2317 C2315 1.433 . S
C2317 N2320 1.384 . S
C2318 H2309 0.929 1_554 S
C2318 C2310 1.378 . S
C2318 C2313 1.350 . S
C2319 H2306 0.929 . S
C2319 C2311 1.433 . S
C2319 N2321 1.384 . S
N2320 C2316 1.427 1_556 S
N2320 C2317 1.384 . S
N2321 C2313 1.427 . S
N2321 C2319 1.384 . S
H2322 C2328 0.930 . S
H2323 C2332 0.930 1_455 S
H2324 C2337 0.929 . S
H2325 C2335 0.929 . S
H2326 C2330 0.929 . S
H2327 C2336 0.929 . S
C2328 H2322 0.930 . S
C2328 C2329 1.367 . S
C2328 C2336 1.378 . S
C2329 C2328 1.367 . S
C2329 C2337 1.433 . S
C2330 H2326 0.929 . S
C2330 C2332 1.378 . S
C2330 C2334 1.350 . S
C2331 C2334 1.463 . S
C2331 C2336 1.350 . S
C2331 N2339 1.427 . S
C2332 H2323 0.930 1_655 S
C2332 C2330 1.378 . S
C2332 C2333 1.367 1_655 S
C2333 C2332 1.367 1_455 S
C2333 C2335 1.433 . S
C2334 C2330 1.350 . S
C2334 C2331 1.463 . S
C2334 N2338 1.427 . S
C2335 H2325 0.929 . S
C2335 C2333 1.433 . S
C2335 N2338 1.384 1_455 S
C2336 H2327 0.929 . S
C2336 C2328 1.378 . S
C2336 C2331 1.350 . S
C2337 H2324 0.929 . S
C2337 C2329 1.433 . S
C2337 N2339 1.384 . S
N2338 C2334 1.427 . S
N2338 C2335 1.384 1_655 S
N2339 C2331 1.427 . S
N2339 C2337 1.384 . S
H2340 C2346 0.930 . S
H2341 C2350 0.930 . S
H2342 C2355 0.929 . S
H2343 C2353 0.929 . S
H2344 C2348 0.929 . S
H2345 C2354 0.929 . S
C2346 H2340 0.930 . S
C2346 C2347 1.367 . S
C2346 C2354 1.378 . S
C2347 C2346 1.367 . S
C2347 C2355 1.433 . S
C2348 H2344 0.929 . S
C2348 C2350 1.378 . S
C2348 C2352 1.350 . S
C2349 C2352 1.463 . S
C2349 C2354 1.350 . S
C2349 N2357 1.427 . S
C2350 H2341 0.930 . S
C2350 C2348 1.378 . S
C2350 C2351 1.367 . S
C2351 C2350 1.367 . S
C2351 C2353 1.433 . S
C2352 C2348 1.350 . S
C2352 C2349 1.463 . S
C2352 N2356 1.427 . S
C2353 H2343 0.929 . S
C2353 C2351 1.433 . S
C2353 N2356 1.384 . S
C2354 H2345 0.929 . S
C2354 C2346 1.378 . S
C2354 C2349 1.350 . S
C2355 H2342 0.929 . S
C2355 C2347 1.433 . S
C2355 N2357 1.384 . S
N2356 C2352 1.427 . S
N2356 C2353 1.384 . S
N2357 C2349 1.427 . S
N2357 C2355 1.384 . S
H2358 C2364 0.930 1_565 S
H2359 C2368 0.930 . S
H2360 C2373 0.929 . S
H2361 C2371 0.929 . S
H2362 C2366 0.929 . S
H2363 C2372 0.929 . S
C2364 H2358 0.930 1_545 S
C2364 C2365 1.367 1_545 S
C2364 C2372 1.378 . S
C2365 C2364 1.367 1_565 S
C2365 C2373 1.433 . S
C2366 H2362 0.929 . S
C2366 C2368 1.378 . S
C2366 C2370 1.350 . S
C2367 C2370 1.463 . S
C2367 C2372 1.350 . S
C2367 N2375 1.427 . S
C2368 H2359 0.930 . S
C2368 C2366 1.378 . S
C2368 C2369 1.367 . S
C2369 C2368 1.367 . S
C2369 C2371 1.433 . S
C2370 C2366 1.350 . S
C2370 C2367 1.463 . S
C2370 N2374 1.427 . S
C2371 H2361 0.929 . S
C2371 C2369 1.433 . S
C2371 N2374 1.384 . S
C2372 H2363 0.929 . S
C2372 C2364 1.378 . S
C2372 C2367 1.350 . S
C2373 H2360 0.929 . S
C2373 C2365 1.433 . S
C2373 N2375 1.384 1_565 S
N2374 C2370 1.427 . S
N2374 C2371 1.384 . S
N2375 C2367 1.427 . S
N2375 C2373 1.384 1_545 S
H2376 C2382 0.930 . S
H2377 C2386 0.930 . S
H2378 C2391 0.929 . S
H2379 C2389 0.929 . S
H2380 C2384 0.929 . S
H2381 C2390 0.929 . S
C2382 H2376 0.930 . S
C2382 C2383 1.367 . S
C2382 C2390 1.378 . S
C2383 C2382 1.367 . S
C2383 C2391 1.433 . S
C2384 H2380 0.929 . S
C2384 C2386 1.378 . S
C2384 C2388 1.350 . S
C2385 C2388 1.463 . S
C2385 C2390 1.350 . S
C2385 N2393 1.427 . S
C2386 H2377 0.930 . S
C2386 C2384 1.378 . S
C2386 C2387 1.367 . S
C2387 C2386 1.367 . S
C2387 C2389 1.433 . S
C2388 C2384 1.350 . S
C2388 C2385 1.463 . S
C2388 N2392 1.427 . S
C2389 H2379 0.929 . S
C2389 C2387 1.433 . S
C2389 N2392 1.384 . S
C2390 H2381 0.929 . S
C2390 C2382 1.378 . S
C2390 C2385 1.350 . S
C2391 H2378 0.929 . S
C2391 C2383 1.433 . S
C2391 N2393 1.384 . S
N2392 C2388 1.427 . S
N2392 C2389 1.384 . S
N2393 C2385 1.427 . S
N2393 C2391 1.384 . S
H2394 C2400 0.930 . S
H2395 C2404 0.930 . S
H2396 C2409 0.929 . S
H2397 C2407 0.929 . S
H2398 C2402 0.929 . S
H2399 C2408 0.929 . S
C2400 H2394 0.930 . S
C2400 C2401 1.367 . S
C2400 C2408 1.378 . S
C2401 C2400 1.367 . S
C2401 C2409 1.433 . S
C2402 H2398 0.929 . S
C2402 C2404 1.378 . S
C2402 C2406 1.350 . S
C2403 C2406 1.463 . S
C2403 C2408 1.350 . S
C2403 N2411 1.427 . S
C2404 H2395 0.930 . S
C2404 C2402 1.378 . S
C2404 C2405 1.367 . S
C2405 C2404 1.367 . S
C2405 C2407 1.433 . S
C2406 C2402 1.350 . S
C2406 C2403 1.463 . S
C2406 N2410 1.427 . S
C2407 H2397 0.929 . S
C2407 C2405 1.433 . S
C2407 N2410 1.384 . S
C2408 H2399 0.929 . S
C2408 C2400 1.378 . S
C2408 C2403 1.350 . S
C2409 H2396 0.929 . S
C2409 C2401 1.433 . S
C2409 N2411 1.384 . S
N2410 C2406 1.427 . S
N2410 C2407 1.384 . S
N2411 C2403 1.427 . S
N2411 C2409 1.384 . S
H2412 C2418 0.930 . S
H2413 C2422 0.930 . S
H2414 C2427 0.929 . S
H2415 C2425 0.929 . S
H2416 C2420 0.929 . S
H2417 C2426 0.929 . S
C2418 H2412 0.930 . S
C2418 C2419 1.367 . S
C2418 C2426 1.378 . S
C2419 C2418 1.367 . S
C2419 C2427 1.433 . S
C2420 H2416 0.929 . S
C2420 C2422 1.378 . S
C2420 C2424 1.350 . S
C2421 C2424 1.463 . S
C2421 C2426 1.350 . S
C2421 N2429 1.427 . S
C2422 H2413 0.930 . S
C2422 C2420 1.378 . S
C2422 C2423 1.367 . S
C2423 C2422 1.367 . S
C2423 C2425 1.433 . S
C2424 C2420 1.350 . S
C2424 C2421 1.463 . S
C2424 N2428 1.427 . S
C2425 H2415 0.929 . S
C2425 C2423 1.433 . S
C2425 N2428 1.384 . S
C2426 H2417 0.929 . S
C2426 C2418 1.378 . S
C2426 C2421 1.350 . S
C2427 H2414 0.929 . S
C2427 C2419 1.433 . S
C2427 N2429 1.384 . S
N2428 C2424 1.427 . S
N2428 C2425 1.384 . S
N2429 C2421 1.427 . S
N2429 C2427 1.384 . S
H2430 C2436 0.930 . S
H2431 C2440 0.930 . S
H2432 C2445 0.929 . S
H2433 C2443 0.929 . S
H2434 C2438 0.929 . S
H2435 C2444 0.929 . S
C2436 H2430 0.930 . S
C2436 C2437 1.367 . S
C2436 C2444 1.378 . S
C2437 C2436 1.367 . S
C2437 C2445 1.433 . S
C2438 H2434 0.929 . S
C2438 C2440 1.378 . S
C2438 C2442 1.350 . S
C2439 C2442 1.463 . S
C2439 C2444 1.350 . S
C2439 N2447 1.427 . S
C2440 H2431 0.930 . S
C2440 C2438 1.378 . S
C2440 C2441 1.367 . S
C2441 C2440 1.367 . S
C2441 C2443 1.433 . S
C2442 C2438 1.350 . S
C2442 C2439 1.463 . S
C2442 N2446 1.427 . S
C2443 H2433 0.929 . S
C2443 C2441 1.433 . S
C2443 N2446 1.384 . S
C2444 H2435 0.929 . S
C2444 C2436 1.378 . S
C2444 C2439 1.350 . S
C2445 H2432 0.929 . S
C2445 C2437 1.433 . S
C2445 N2447 1.384 . S
N2446 C2442 1.427 . S
N2446 C2443 1.384 . S
N2447 C2439 1.427 . S
N2447 C2445 1.384 . S
H2448 C2454 0.930 . S
H2449 C2458 0.930 . S
H2450 C2463 0.929 . S
H2451 C2461 0.929 . S
H2452 C2456 0.929 . S
H2453 C2462 0.929 . S
C2454 H2448 0.930 . S
C2454 C2455 1.367 . S
C2454 C2462 1.378 . S
C2455 C2454 1.367 . S
C2455 C2463 1.433 . S
C2456 H2452 0.929 . S
C2456 C2458 1.378 . S
C2456 C2460 1.350 . S
C2457 C2460 1.463 . S
C2457 C2462 1.350 . S
C2457 N2465 1.427 . S
C2458 H2449 0.930 . S
C2458 C2456 1.378 . S
C2458 C2459 1.367 . S
C2459 C2458 1.367 . S
C2459 C2461 1.433 . S
C2460 C2456 1.350 . S
C2460 C2457 1.463 . S
C2460 N2464 1.427 . S
C2461 H2451 0.929 . S
C2461 C2459 1.433 . S
C2461 N2464 1.384 . S
C2462 H2453 0.929 . S
C2462 C2454 1.378 . S
C2462 C2457 1.350 . S
C2463 H2450 0.929 . S
C2463 C2455 1.433 . S
C2463 N2465 1.384 . S
N2464 C2460 1.427 . S
N2464 C2461 1.384 . S
N2465 C2457 1.427 . S
N2465 C2463 1.384 . S
H2466 C2472 0.930 . S
H2467 C2476 0.930 . S
H2468 C2481 0.929 . S
H2469 C2479 0.929 . S
H2470 C2474 0.929 . S
H2471 C2480 0.929 . S
C2472 H2466 0.930 . S
C2472 C2473 1.367 . S
C2472 C2480 1.378 . S
C2473 C2472 1.367 . S
C2473 C2481 1.433 . S
C2474 H2470 0.929 . S
C2474 C2476 1.378 . S
C2474 C2478 1.350 . S
C2475 C2478 1.463 . S
C2475 C2480 1.350 . S
C2475 N2483 1.427 . S
C2476 H2467 0.930 . S
C2476 C2474 1.378 . S
C2476 C2477 1.367 . S
C2477 C2476 1.367 . S
C2477 C2479 1.433 . S
C2478 C2474 1.350 . S
C2478 C2475 1.463 . S
C2478 N2482 1.427 . S
C2479 H2469 0.929 . S
C2479 C2477 1.433 . S
C2479 N2482 1.384 . S
C2480 H2471 0.929 . S
C2480 C2472 1.378 . S
C2480 C2475 1.350 . S
C2481 H2468 0.929 . S
C2481 C2473 1.433 . S
C2481 N2483 1.384 . S
N2482 C2478 1.427 . S
N2482 C2479 1.384 . S
N2483 C2475 1.427 . S
N2483 C2481 1.384 . S
H2484 C2490 0.930 . S
H2485 C2494 0.930 . S
H2486 C2499 0.929 . S
H2487 C2497 0.929 . S
H2488 C2492 0.929 . S
H2489 C2498 0.929 . S
C2490 H2484 0.930 . S
C2490 C2491 1.367 . S
C2490 C2498 1.378 . S
C2491 C2490 1.367 . S
C2491 C2499 1.433 . S
C2492 H2488 0.929 . S
C2492 C2494 1.378 . S
C2492 C2496 1.350 . S
C2493 C2496 1.463 . S
C2493 C2498 1.350 . S
C2493 N2501 1.427 . S
C2494 H2485 0.930 . S
C2494 C2492 1.378 . S
C2494 C2495 1.367 . S
C2495 C2494 1.367 . S
C2495 C2497 1.433 . S
C2496 C2492 1.350 . S
C2496 C2493 1.463 . S
C2496 N2500 1.427 . S
C2497 H2487 0.929 . S
C2497 C2495 1.433 . S
C2497 N2500 1.384 . S
C2498 H2489 0.929 . S
C2498 C2490 1.378 . S
C2498 C2493 1.350 . S
C2499 H2486 0.929 . S
C2499 C2491 1.433 . S
C2499 N2501 1.384 . S
N2500 C2496 1.427 . S
N2500 C2497 1.384 . S
N2501 C2493 1.427 . S
N2501 C2499 1.384 . S
H2502 C2508 0.930 . S
H2503 C2512 0.930 . S
H2504 C2517 0.929 . S
H2505 C2515 0.929 . S
H2506 C2510 0.929 . S
H2507 C2516 0.929 . S
C2508 H2502 0.930 . S
C2508 C2509 1.367 . S
C2508 C2516 1.378 . S
C2509 C2508 1.367 . S
C2509 C2517 1.433 . S
C2510 H2506 0.929 . S
C2510 C2512 1.378 . S
C2510 C2514 1.350 . S
C2511 C2514 1.463 . S
C2511 C2516 1.350 . S
C2511 N2519 1.427 . S
C2512 H2503 0.930 . S
C2512 C2510 1.378 . S
C2512 C2513 1.367 . S
C2513 C2512 1.367 . S
C2513 C2515 1.433 . S
C2514 C2510 1.350 . S
C2514 C2511 1.463 . S
C2514 N2518 1.427 . S
C2515 H2505 0.929 . S
C2515 C2513 1.433 . S
C2515 N2518 1.384 . S
C2516 H2507 0.929 . S
C2516 C2508 1.378 . S
C2516 C2511 1.350 . S
C2517 H2504 0.929 . S
C2517 C2509 1.433 . S
C2517 N2519 1.384 . S
N2518 C2514 1.427 . S
N2518 C2515 1.384 . S
N2519 C2511 1.427 . S
N2519 C2517 1.384 . S
H2520 C2526 0.930 . S
H2521 C2530 0.930 . S
H2522 C2535 0.929 . S
H2523 C2533 0.929 . S
H2524 C2528 0.929 . S
H2525 C2534 0.929 . S
C2526 H2520 0.930 . S
C2526 C2527 1.367 . S
C2526 C2534 1.378 . S
C2527 C2526 1.367 . S
C2527 C2535 1.433 . S
C2528 H2524 0.929 . S
C2528 C2530 1.378 . S
C2528 C2532 1.350 . S
C2529 C2532 1.463 . S
C2529 C2534 1.350 . S
C2529 N2537 1.427 . S
C2530 H2521 0.930 . S
C2530 C2528 1.378 . S
C2530 C2531 1.367 . S
C2531 C2530 1.367 . S
C2531 C2533 1.433 . S
C2532 C2528 1.350 . S
C2532 C2529 1.463 . S
C2532 N2536 1.427 . S
C2533 H2523 0.929 . S
C2533 C2531 1.433 . S
C2533 N2536 1.384 . S
C2534 H2525 0.929 . S
C2534 C2526 1.378 . S
C2534 C2529 1.350 . S
C2535 H2522 0.929 . S
C2535 C2527 1.433 . S
C2535 N2537 1.384 . S
N2536 C2532 1.427 . S
N2536 C2533 1.384 . S
N2537 C2529 1.427 . S
N2537 C2535 1.384 . S
H2538 C2544 0.930 . S
H2539 C2548 0.930 . S
H2540 C2553 0.929 . S
H2541 C2551 0.929 . S
H2542 C2546 0.929 . S
H2543 C2552 0.929 . S
C2544 H2538 0.930 . S
C2544 C2545 1.367 . S
C2544 C2552 1.378 . S
C2545 C2544 1.367 . S
C2545 C2553 1.433 . S
C2546 H2542 0.929 . S
C2546 C2548 1.378 . S
C2546 C2550 1.350 . S
C2547 C2550 1.463 . S
C2547 C2552 1.350 . S
C2547 N2555 1.427 . S
C2548 H2539 0.930 . S
C2548 C2546 1.378 . S
C2548 C2549 1.367 . S
C2549 C2548 1.367 . S
C2549 C2551 1.433 . S
C2550 C2546 1.350 . S
C2550 C2547 1.463 . S
C2550 N2554 1.427 . S
C2551 H2541 0.929 . S
C2551 C2549 1.433 . S
C2551 N2554 1.384 . S
C2552 H2543 0.929 . S
C2552 C2544 1.378 . S
C2552 C2547 1.350 . S
C2553 H2540 0.929 . S
C2553 C2545 1.433 . S
C2553 N2555 1.384 . S
N2554 C2550 1.427 . S
N2554 C2551 1.384 . S
N2555 C2547 1.427 . S
N2555 C2553 1.384 . S
H2556 C2562 0.930 . S
H2557 C2566 0.930 . S
H2558 C2571 0.929 . S
H2559 C2569 0.929 . S
H2560 C2564 0.929 . S
H2561 C2570 0.929 . S
C2562 H2556 0.930 . S
C2562 C2563 1.367 . S
C2562 C2570 1.378 . S
C2563 C2562 1.367 . S
C2563 C2571 1.433 . S
C2564 H2560 0.929 . S
C2564 C2566 1.378 . S
C2564 C2568 1.350 . S
C2565 C2568 1.463 . S
C2565 C2570 1.350 . S
C2565 N2573 1.427 . S
C2566 H2557 0.930 . S
C2566 C2564 1.378 . S
C2566 C2567 1.367 . S
C2567 C2566 1.367 . S
C2567 C2569 1.433 . S
C2568 C2564 1.350 . S
C2568 C2565 1.463 . S
C2568 N2572 1.427 . S
C2569 H2559 0.929 . S
C2569 C2567 1.433 . S
C2569 N2572 1.384 . S
C2570 H2561 0.929 . S
C2570 C2562 1.378 . S
C2570 C2565 1.350 . S
C2571 H2558 0.929 . S
C2571 C2563 1.433 . S
C2571 N2573 1.384 . S
N2572 C2568 1.427 . S
N2572 C2569 1.384 . S
N2573 C2565 1.427 . S
N2573 C2571 1.384 . S
H2574 C2580 0.930 . S
H2575 C2584 0.930 . S
H2576 C2589 0.929 . S
H2577 C2587 0.929 . S
H2578 C2582 0.929 . S
H2579 C2588 0.929 . S
C2580 H2574 0.930 . S
C2580 C2581 1.367 . S
C2580 C2588 1.378 . S
C2581 C2580 1.367 . S
C2581 C2589 1.433 . S
C2582 H2578 0.929 . S
C2582 C2584 1.378 . S
C2582 C2586 1.350 . S
C2583 C2586 1.463 . S
C2583 C2588 1.350 . S
C2583 N2591 1.427 . S
C2584 H2575 0.930 . S
C2584 C2582 1.378 . S
C2584 C2585 1.367 . S
C2585 C2584 1.367 . S
C2585 C2587 1.433 . S
C2586 C2582 1.350 . S
C2586 C2583 1.463 . S
C2586 N2590 1.427 . S
C2587 H2577 0.929 . S
C2587 C2585 1.433 . S
C2587 N2590 1.384 . S
C2588 H2579 0.929 . S
C2588 C2580 1.378 . S
C2588 C2583 1.350 . S
C2589 H2576 0.929 . S
C2589 C2581 1.433 . S
C2589 N2591 1.384 . S
N2590 C2586 1.427 . S
N2590 C2587 1.384 . S
N2591 C2583 1.427 . S
N2591 C2589 1.384 . S
H2592 C2598 0.930 . S
H2593 C2602 0.930 . S
H2594 C2607 0.929 . S
H2595 C2605 0.929 . S
H2596 C2600 0.929 . S
H2597 C2606 0.929 . S
C2598 H2592 0.930 . S
C2598 C2599 1.367 . S
C2598 C2606 1.378 . S
C2599 C2598 1.367 . S
C2599 C2607 1.433 . S
C2600 H2596 0.929 . S
C2600 C2602 1.378 . S
C2600 C2604 1.350 . S
C2601 C2604 1.463 . S
C2601 C2606 1.350 . S
C2601 N2609 1.427 . S
C2602 H2593 0.930 . S
C2602 C2600 1.378 . S
C2602 C2603 1.367 . S
C2603 C2602 1.367 . S
C2603 C2605 1.433 . S
C2604 C2600 1.350 . S
C2604 C2601 1.463 . S
C2604 N2608 1.427 . S
C2605 H2595 0.929 . S
C2605 C2603 1.433 . S
C2605 N2608 1.384 . S
C2606 H2597 0.929 . S
C2606 C2598 1.378 . S
C2606 C2601 1.350 . S
C2607 H2594 0.929 . S
C2607 C2599 1.433 . S
C2607 N2609 1.384 . S
N2608 C2604 1.427 . S
N2608 C2605 1.384 . S
N2609 C2601 1.427 . S
N2609 C2607 1.384 . S
H2610 C2616 0.930 . S
H2611 C2620 0.930 . S
H2612 C2625 0.929 . S
H2613 C2623 0.929 . S
H2614 C2618 0.929 . S
H2615 C2624 0.929 . S
C2616 H2610 0.930 . S
C2616 C2617 1.367 . S
C2616 C2624 1.378 . S
C2617 C2616 1.367 . S
C2617 C2625 1.433 . S
C2618 H2614 0.929 . S
C2618 C2620 1.378 . S
C2618 C2622 1.350 . S
C2619 C2622 1.463 . S
C2619 C2624 1.350 . S
C2619 N2627 1.427 . S
C2620 H2611 0.930 . S
C2620 C2618 1.378 . S
C2620 C2621 1.367 . S
C2621 C2620 1.367 . S
C2621 C2623 1.433 . S
C2622 C2618 1.350 . S
C2622 C2619 1.463 . S
C2622 N2626 1.427 . S
C2623 H2613 0.929 . S
C2623 C2621 1.433 . S
C2623 N2626 1.384 . S
C2624 H2615 0.929 . S
C2624 C2616 1.378 . S
C2624 C2619 1.350 . S
C2625 H2612 0.929 . S
C2625 C2617 1.433 . S
C2625 N2627 1.384 . S
N2626 C2622 1.427 . S
N2626 C2623 1.384 . S
N2627 C2619 1.427 . S
N2627 C2625 1.384 . S
H2628 C2634 0.930 . S
H2629 C2638 0.930 . S
H2630 C2643 0.929 . S
H2631 C2641 0.929 . S
H2632 C2636 0.929 . S
H2633 C2642 0.929 . S
C2634 H2628 0.930 . S
C2634 C2635 1.367 . S
C2634 C2642 1.378 . S
C2635 C2634 1.367 . S
C2635 C2643 1.433 . S
C2636 H2632 0.929 . S
C2636 C2638 1.378 . S
C2636 C2640 1.350 . S
C2637 C2640 1.463 . S
C2637 C2642 1.350 . S
C2637 N2645 1.427 . S
C2638 H2629 0.930 . S
C2638 C2636 1.378 . S
C2638 C2639 1.367 . S
C2639 C2638 1.367 . S
C2639 C2641 1.433 . S
C2640 C2636 1.350 . S
C2640 C2637 1.463 . S
C2640 N2644 1.427 . S
C2641 H2631 0.929 . S
C2641 C2639 1.433 . S
C2641 N2644 1.384 . S
C2642 H2633 0.929 . S
C2642 C2634 1.378 . S
C2642 C2637 1.350 . S
C2643 H2630 0.929 . S
C2643 C2635 1.433 . S
C2643 N2645 1.384 . S
N2644 C2640 1.427 . S
N2644 C2641 1.384 . S
N2645 C2637 1.427 . S
N2645 C2643 1.384 . S
H2646 C2652 0.930 . S
H2647 C2656 0.930 . S
H2648 C2661 0.929 . S
H2649 C2659 0.929 . S
H2650 C2654 0.929 . S
H2651 C2660 0.929 . S
C2652 H2646 0.930 . S
C2652 C2653 1.367 . S
C2652 C2660 1.378 . S
C2653 C2652 1.367 . S
C2653 C2661 1.433 . S
C2654 H2650 0.929 . S
C2654 C2656 1.378 . S
C2654 C2658 1.350 . S
C2655 C2658 1.463 . S
C2655 C2660 1.350 . S
C2655 N2663 1.427 . S
C2656 H2647 0.930 . S
C2656 C2654 1.378 . S
C2656 C2657 1.367 . S
C2657 C2656 1.367 . S
C2657 C2659 1.433 . S
C2658 C2654 1.350 . S
C2658 C2655 1.463 . S
C2658 N2662 1.427 . S
C2659 H2649 0.929 . S
C2659 C2657 1.433 . S
C2659 N2662 1.384 . S
C2660 H2651 0.929 . S
C2660 C2652 1.378 . S
C2660 C2655 1.350 . S
C2661 H2648 0.929 . S
C2661 C2653 1.433 . S
C2661 N2663 1.384 . S
N2662 C2658 1.427 . S
N2662 C2659 1.384 . S
N2663 C2655 1.427 . S
N2663 C2661 1.384 . S
H2664 C2670 0.930 . S
H2665 C2674 0.930 . S
H2666 C2679 0.929 . S
H2667 C2677 0.929 . S
H2668 C2672 0.929 . S
H2669 C2678 0.929 . S
C2670 H2664 0.930 . S
C2670 C2671 1.367 . S
C2670 C2678 1.378 . S
C2671 C2670 1.367 . S
C2671 C2679 1.433 . S
C2672 H2668 0.929 . S
C2672 C2674 1.378 . S
C2672 C2676 1.350 . S
C2673 C2676 1.463 . S
C2673 C2678 1.350 . S
C2673 N2681 1.427 . S
C2674 H2665 0.930 . S
C2674 C2672 1.378 . S
C2674 C2675 1.367 . S
C2675 C2674 1.367 . S
C2675 C2677 1.433 . S
C2676 C2672 1.350 . S
C2676 C2673 1.463 . S
C2676 N2680 1.427 . S
C2677 H2667 0.929 . S
C2677 C2675 1.433 . S
C2677 N2680 1.384 . S
C2678 H2669 0.929 . S
C2678 C2670 1.378 . S
C2678 C2673 1.350 . S
C2679 H2666 0.929 . S
C2679 C2671 1.433 . S
C2679 N2681 1.384 . S
N2680 C2676 1.427 . S
N2680 C2677 1.384 . S
N2681 C2673 1.427 . S
N2681 C2679 1.384 . S
H2682 C2688 0.930 . S
H2683 C2692 0.930 . S
H2684 C2697 0.929 . S
H2685 C2695 0.929 . S
H2686 C2690 0.929 . S
H2687 C2696 0.929 . S
C2688 H2682 0.930 . S
C2688 C2689 1.367 . S
C2688 C2696 1.378 . S
C2689 C2688 1.367 . S
C2689 C2697 1.433 . S
C2690 H2686 0.929 . S
C2690 C2692 1.378 . S
C2690 C2694 1.350 . S
C2691 C2694 1.463 . S
C2691 C2696 1.350 . S
C2691 N2699 1.427 . S
C2692 H2683 0.930 . S
C2692 C2690 1.378 . S
C2692 C2693 1.367 . S
C2693 C2692 1.367 . S
C2693 C2695 1.433 . S
C2694 C2690 1.350 . S
C2694 C2691 1.463 . S
C2694 N2698 1.427 . S
C2695 H2685 0.929 . S
C2695 C2693 1.433 . S
C2695 N2698 1.384 . S
C2696 H2687 0.929 . S
C2696 C2688 1.378 . S
C2696 C2691 1.350 . S
C2697 H2684 0.929 . S
C2697 C2689 1.433 . S
C2697 N2699 1.384 . S
N2698 C2694 1.427 . S
N2698 C2695 1.384 . S
N2699 C2691 1.427 . S
N2699 C2697 1.384 . S
H2700 C2706 0.930 . S
H2701 C2710 0.930 . S
H2702 C2715 0.929 . S
H2703 C2713 0.929 . S
H2704 C2708 0.929 . S
H2705 C2714 0.929 . S
C2706 H2700 0.930 . S
C2706 C2707 1.367 . S
C2706 C2714 1.378 . S
C2707 C2706 1.367 . S
C2707 C2715 1.433 . S
C2708 H2704 0.929 . S
C2708 C2710 1.378 . S
C2708 C2712 1.350 . S
C2709 C2712 1.463 . S
C2709 C2714 1.350 . S
C2709 N2717 1.427 . S
C2710 H2701 0.930 . S
C2710 C2708 1.378 . S
C2710 C2711 1.367 . S
C2711 C2710 1.367 . S
C2711 C2713 1.433 . S
C2712 C2708 1.350 . S
C2712 C2709 1.463 . S
C2712 N2716 1.427 . S
C2713 H2703 0.929 . S
C2713 C2711 1.433 . S
C2713 N2716 1.384 . S
C2714 H2705 0.929 . S
C2714 C2706 1.378 . S
C2714 C2709 1.350 . S
C2715 H2702 0.929 . S
C2715 C2707 1.433 . S
C2715 N2717 1.384 . S
N2716 C2712 1.427 . S
N2716 C2713 1.384 . S
N2717 C2709 1.427 . S
N2717 C2715 1.384 . S
H2718 C2724 0.930 . S
H2719 C2728 0.930 . S
H2720 C2733 0.929 . S
H2721 C2731 0.929 . S
H2722 C2726 0.929 . S
H2723 C2732 0.929 . S
C2724 H2718 0.930 . S
C2724 C2725 1.367 . S
C2724 C2732 1.378 . S
C2725 C2724 1.367 . S
C2725 C2733 1.433 . S
C2726 H2722 0.929 . S
C2726 C2728 1.378 . S
C2726 C2730 1.350 . S
C2727 C2730 1.463 . S
C2727 C2732 1.350 . S
C2727 N2735 1.427 . S
C2728 H2719 0.930 . S
C2728 C2726 1.378 . S
C2728 C2729 1.367 . S
C2729 C2728 1.367 . S
C2729 C2731 1.433 . S
C2730 C2726 1.350 . S
C2730 C2727 1.463 . S
C2730 N2734 1.427 . S
C2731 H2721 0.929 . S
C2731 C2729 1.433 . S
C2731 N2734 1.384 . S
C2732 H2723 0.929 . S
C2732 C2724 1.378 . S
C2732 C2727 1.350 . S
C2733 H2720 0.929 . S
C2733 C2725 1.433 . S
C2733 N2735 1.384 . S
N2734 C2730 1.427 . S
N2734 C2731 1.384 . S
N2735 C2727 1.427 . S
N2735 C2733 1.384 . S
H2736 C2742 0.930 . S
H2737 C2746 0.930 . S
H2738 C2751 0.929 . S
H2739 C2749 0.929 . S
H2740 C2744 0.929 . S
H2741 C2750 0.929 . S
C2742 H2736 0.930 . S
C2742 C2743 1.367 . S
C2742 C2750 1.378 . S
C2743 C2742 1.367 . S
C2743 C2751 1.433 . S
C2744 H2740 0.929 . S
C2744 C2746 1.378 . S
C2744 C2748 1.350 . S
C2745 C2748 1.463 . S
C2745 C2750 1.350 . S
C2745 N2753 1.427 . S
C2746 H2737 0.930 . S
C2746 C2744 1.378 . S
C2746 C2747 1.367 . S
C2747 C2746 1.367 . S
C2747 C2749 1.433 . S
C2748 C2744 1.350 . S
C2748 C2745 1.463 . S
C2748 N2752 1.427 . S
C2749 H2739 0.929 . S
C2749 C2747 1.433 . S
C2749 N2752 1.384 . S
C2750 H2741 0.929 . S
C2750 C2742 1.378 . S
C2750 C2745 1.350 . S
C2751 H2738 0.929 . S
C2751 C2743 1.433 . S
C2751 N2753 1.384 . S
N2752 C2748 1.427 . S
N2752 C2749 1.384 . S
N2753 C2745 1.427 . S
N2753 C2751 1.384 . S
H2754 C2760 0.930 . S
H2755 C2764 0.930 . S
H2756 C2769 0.929 . S
H2757 C2767 0.929 . S
H2758 C2762 0.929 . S
H2759 C2768 0.929 . S
C2760 H2754 0.930 . S
C2760 C2761 1.367 . S
C2760 C2768 1.378 . S
C2761 C2760 1.367 . S
C2761 C2769 1.433 . S
C2762 H2758 0.929 . S
C2762 C2764 1.378 . S
C2762 C2766 1.350 . S
C2763 C2766 1.463 . S
C2763 C2768 1.350 . S
C2763 N2771 1.427 . S
C2764 H2755 0.930 . S
C2764 C2762 1.378 . S
C2764 C2765 1.367 . S
C2765 C2764 1.367 . S
C2765 C2767 1.433 . S
C2766 C2762 1.350 . S
C2766 C2763 1.463 . S
C2766 N2770 1.427 . S
C2767 H2757 0.929 . S
C2767 C2765 1.433 . S
C2767 N2770 1.384 . S
C2768 H2759 0.929 . S
C2768 C2760 1.378 . S
C2768 C2763 1.350 . S
C2769 H2756 0.929 . S
C2769 C2761 1.433 . S
C2769 N2771 1.384 . S
N2770 C2766 1.427 . S
N2770 C2767 1.384 . S
N2771 C2763 1.427 . S
N2771 C2769 1.384 . S
H2772 C2778 0.930 . S
H2773 C2782 0.930 . S
H2774 C2787 0.929 . S
H2775 C2785 0.929 . S
H2776 C2780 0.929 . S
H2777 C2786 0.929 . S
C2778 H2772 0.930 . S
C2778 C2779 1.367 . S
C2778 C2786 1.378 . S
C2779 C2778 1.367 . S
C2779 C2787 1.433 . S
C2780 H2776 0.929 . S
C2780 C2782 1.378 . S
C2780 C2784 1.350 . S
C2781 C2784 1.463 . S
C2781 C2786 1.350 . S
C2781 N2789 1.427 . S
C2782 H2773 0.930 . S
C2782 C2780 1.378 . S
C2782 C2783 1.367 . S
C2783 C2782 1.367 . S
C2783 C2785 1.433 . S
C2784 C2780 1.350 . S
C2784 C2781 1.463 . S
C2784 N2788 1.427 . S
C2785 H2775 0.929 . S
C2785 C2783 1.433 . S
C2785 N2788 1.384 . S
C2786 H2777 0.929 . S
C2786 C2778 1.378 . S
C2786 C2781 1.350 . S
C2787 H2774 0.929 . S
C2787 C2779 1.433 . S
C2787 N2789 1.384 . S
N2788 C2784 1.427 . S
N2788 C2785 1.384 . S
N2789 C2781 1.427 . S
N2789 C2787 1.384 . S
H2790 C2796 0.930 . S
H2791 C2800 0.930 . S
H2792 C2805 0.929 . S
H2793 C2803 0.929 . S
H2794 C2798 0.929 . S
H2795 C2804 0.929 . S
C2796 H2790 0.930 . S
C2796 C2797 1.367 . S
C2796 C2804 1.378 . S
C2797 C2796 1.367 . S
C2797 C2805 1.433 . S
C2798 H2794 0.929 . S
C2798 C2800 1.378 . S
C2798 C2802 1.350 . S
C2799 C2802 1.463 . S
C2799 C2804 1.350 . S
C2799 N2807 1.427 . S
C2800 H2791 0.930 . S
C2800 C2798 1.378 . S
C2800 C2801 1.367 . S
C2801 C2800 1.367 . S
C2801 C2803 1.433 . S
C2802 C2798 1.350 . S
C2802 C2799 1.463 . S
C2802 N2806 1.427 . S
C2803 H2793 0.929 . S
C2803 C2801 1.433 . S
C2803 N2806 1.384 . S
C2804 H2795 0.929 . S
C2804 C2796 1.378 . S
C2804 C2799 1.350 . S
C2805 H2792 0.929 . S
C2805 C2797 1.433 . S
C2805 N2807 1.384 . S
N2806 C2802 1.427 . S
N2806 C2803 1.384 . S
N2807 C2799 1.427 . S
N2807 C2805 1.384 . S
C1195 C535 1.305 . S
C1199 C7 1.304 . S
C1213 C40 1.306 . S
C1217 C568 1.304 . S
C1231 C502 1.305 . S
C1235 C73 1.306 . S
C1249 C106 1.304 . S
C1253 C865 1.305 . S
C1267 C799 1.312 . S
C1271 C139 1.313 . S
C1285 C172 1.305 . S
C1289 C832 1.304 . S
C1303 C205 1.305 . S
C1307 C1129 1.304 . S
C1321 C238 1.305 . S
C1325 C1162 1.306 . S
C1339 C271 1.312 . S
C1343 C1096 1.313 . S
C1357 C304 1.311 . S
C1361 C667 1.312 . S
C1375 C337 1.313 . S
C1379 C601 1.311 . S
C1393 C370 1.310 . S
C1397 C634 1.308 . S
C1411 C403 1.307 . S
C1415 C931 1.305 . S
C1429 C964 1.306 . S
C1433 C436 1.305 . S
C1447 C898 1.313 . S
C1451 C469 1.312 . S
C1465 C1063 1.311 . S
C1469 C700 1.313 . S
C1483 C997 1.313 . S
C1487 C733 1.311 . S
C1501 C766 1.308 . S
C1505 C1030 1.311 . S
C1519 N970 1.542 . S
C1523 N13 1.543 . S
C1537 N46 1.542 . S
C1541 N904 1.541 . S
C1555 N79 1.543 . S
C1559 N937 1.565 . S
C1573 N112 1.541 . S
C1577 N442 1.542 . S
C1591 N145 1.539 . S
C1595 N475 1.558 . S
C1609 N409 1.535 . S
C1613 N178 1.536 . S
C1627 N772 1.547 . S
C1631 N211 1.548 . S
C1645 N244 1.546 . S
C1649 N706 1.549 . S
C1663 N277 1.547 . S
C1667 N739 1.577 . S
C1681 N1036 1.537 . S
C1685 N310 1.536 . S
C1699 N1069 1.566 . S
C1703 N343 1.534 . S
C1717 N1003 1.542 . S
C1721 N376 1.543 . S
C1735 N508 1.546 . S
C1739 N838 1.545 . S
C1753 N541 1.536 . S
C1757 N871 1.537 . S
C1771 N574 1.545 . S
C1775 N805 1.547 . S
C1789 N607 1.541 . S
C1793 N1168 1.542 . S
C1807 N1102 1.535 . S
C1811 N640 1.534 . S
C1825 N673 1.537 . S
C1829 N1135 1.536 . S
C1843 C18 1.924 . S
C1847 C612 1.924 . S
C1861 C51 1.924 . S
C1865 C645 1.924 . S
C1879 C678 1.924 . S
C1883 C84 1.924 . S
C1897 C117 1.925 . S
C1901 C1107 1.925 . S
C1915 C150 1.925 . S
C1919 C1140 1.925 . S
C1933 C183 1.927 . S
C1937 C1173 1.927 . S
C1951 C810 1.926 . S
C1955 C216 1.926 . S
C1969 C249 1.924 . S
C1973 C843 1.924 . S
C1987 C876 1.925 . S
C1991 C282 1.925 . S
C2005 C513 1.924 . S
C2009 C315 1.924 . S
C2023 C546 1.928 . S
C2027 C348 1.928 . S
C2041 C381 1.927 . S
C2045 C579 1.927 . S
C2059 C1008 1.925 . S
C2063 C414 1.925 . S
C2077 C1041 1.927 . S
C2081 C447 1.927 . S
C2095 C480 1.923 . S
C2099 C1074 1.923 . S
C2113 C909 1.925 . S
C2117 C711 1.925 . S
C2131 C744 1.926 . S
C2135 C942 1.926 . S
C2149 C975 1.925 . S
C2153 C777 1.925 . S
C2167 N2 1.026 . S
C2171 C252 1.016 . S
C2185 N35 1.025 . S
C2189 C285 1.018 . S
C2203 C219 1.026 . S
C2207 N68 1.022 . S
C2221 C384 1.021 . S
C2225 N101 1.036 . S
C2239 C318 1.019 . S
C2243 N134 1.024 . S
C2257 C351 1.010 . S
C2261 N167 1.038 . S
C2275 C54 1.014 . S
C2279 N200 1.027 . S
C2293 C87 1.023 . S
C2297 N233 1.023 . S
C2311 C21 1.009 . S
C2315 N266 1.037 . S
C2329 N299 1.023 . S
C2333 C186 1.028 . S
C2347 N332 1.034 . S
C2351 C120 1.008 . S
C2365 C153 1.015 . S
C2369 N365 1.027 . S
C2383 C648 1.016 . S
C2387 N398 1.038 . S
C2401 N431 1.023 . S
C2405 C681 1.022 . S
C2419 C615 1.021 . S
C2423 N464 1.023 . S
C2437 C780 1.015 . S
C2441 N497 1.038 . S
C2455 N530 1.037 . S
C2459 C714 1.018 . S
C2473 N563 1.032 . S
C2477 C747 1.009 . S
C2491 N596 1.023 . S
C2495 C450 1.026 . S
C2509 N629 1.023 . S
C2513 C483 1.026 . S
C2527 N662 1.027 . S
C2531 C417 1.015 . S
C2545 N695 1.038 . S
C2549 C582 1.010 . S
C2563 C516 1.029 . S
C2567 N728 1.025 . S
C2581 C549 1.015 . S
C2585 N761 1.026 . S
C2599 C1044 1.010 . S
C2603 N794 1.038 . S
C2617 C1077 1.014 . S
C2621 N827 1.027 . S
C2635 C1011 1.019 . S
C2639 N860 1.024 . S
C2653 C1176 1.020 . S
C2657 N893 1.036 . S
C2671 N926 1.039 . S
C2675 C1110 1.011 . S
C2689 C1143 1.009 . S
C2693 N959 1.038 . S
C2707 C846 1.026 . S
C2711 N992 1.022 . S
C2725 C879 1.025 . S
C2729 N1025 1.022 . S
C2743 C813 1.009 . S
C2747 N1058 1.032 . S
C2761 N1091 1.038 . S
C2765 C978 1.015 . S
C2779 N1124 1.036 . S
C2783 C912 1.008 . S
C2797 C945 1.009 . S
C2801 N1157 1.037 . S
