# Generated by pormake.
# Topology whz, (6)-cn, num edge types: 1
# Building blocks:
#     Node 0, Type 0, BuildingBlock: OJICUG_clean_sbu_0, # of connection points: 6
#     Node 1, Type 0, BuildingBlock: OJICUG_clean_sbu_0, # of connection points: 6
#     Node 2, Type 0, BuildingBlock: OJICUG_clean_sbu_0, # of connection points: 6
#     Node 3, Type 0, BuildingBlock: OJICUG_clean_sbu_0, # of connection points: 6
#     Node 4, Type 0, BuildingBlock: OJICUG_clean_sbu_0, # of connection points: 6
#     Node 5, Type 0, BuildingBlock: OJICUG_clean_sbu_0, # of connection points: 6
#     Node 6, Type 0, BuildingBlock: OJICUG_clean_sbu_0, # of connection points: 6
#     Node 7, Type 0, BuildingBlock: OJICUG_clean_sbu_0, # of connection points: 6
#     Node 8, Type 0, BuildingBlock: OJICUG_clean_sbu_0, # of connection points: 6
#     Node 9, Type 0, BuildingBlock: OJICUG_clean_sbu_0, # of connection points: 6
#     Node 10, Type 0, BuildingBlock: OJICUG_clean_sbu_0, # of connection points: 6
#     Node 11, Type 0, BuildingBlock: OJICUG_clean_sbu_0, # of connection points: 6
#     Node 12, Type 0, BuildingBlock: OJICUG_clean_sbu_0, # of connection points: 6
#     Node 13, Type 0, BuildingBlock: OJICUG_clean_sbu_0, # of connection points: 6
#     Node 14, Type 0, BuildingBlock: OJICUG_clean_sbu_0, # of connection points: 6
#     Node 15, Type 0, BuildingBlock: OJICUG_clean_sbu_0, # of connection points: 6
#     Edge 16, Type (0, 0), None
#     Edge 17, Type (0, 0), None
#     Edge 18, Type (0, 0), None
#     Edge 19, Type (0, 0), None
#     Edge 20, Type (0, 0), None
#     Edge 21, Type (0, 0), None
#     Edge 22, Type (0, 0), None
#     Edge 23, Type (0, 0), None
#     Edge 24, Type (0, 0), None
#     Edge 25, Type (0, 0), None
#     Edge 26, Type (0, 0), None
#     Edge 27, Type (0, 0), None
#     Edge 28, Type (0, 0), None
#     Edge 29, Type (0, 0), None
#     Edge 30, Type (0, 0), None
#     Edge 31, Type (0, 0), None
#     Edge 32, Type (0, 0), None
#     Edge 33, Type (0, 0), None
#     Edge 34, Type (0, 0), None
#     Edge 35, Type (0, 0), None
#     Edge 36, Type (0, 0), None
#     Edge 37, Type (0, 0), None
#     Edge 38, Type (0, 0), None
#     Edge 39, Type (0, 0), None
#     Edge 40, Type (0, 0), None
#     Edge 41, Type (0, 0), None
#     Edge 42, Type (0, 0), None
#     Edge 43, Type (0, 0), None
#     Edge 44, Type (0, 0), None
#     Edge 45, Type (0, 0), None
#     Edge 46, Type (0, 0), None
#     Edge 47, Type (0, 0), None
#     Edge 48, Type (0, 0), None
#     Edge 49, Type (0, 0), None
#     Edge 50, Type (0, 0), None
#     Edge 51, Type (0, 0), None
#     Edge 52, Type (0, 0), None
#     Edge 53, Type (0, 0), None
#     Edge 54, Type (0, 0), None
#     Edge 55, Type (0, 0), None
#     Edge 56, Type (0, 0), None
#     Edge 57, Type (0, 0), None
#     Edge 58, Type (0, 0), None
#     Edge 59, Type (0, 0), None
#     Edge 60, Type (0, 0), None
#     Edge 61, Type (0, 0), None
#     Edge 62, Type (0, 0), None
#     Edge 63, Type (0, 0), None
# Relax obj value: 0.452
# Max RMSD: 0.271
# Mean RMSD: 0.271
data_MOF--net-whz--node1-OJICUG_clean_sbu_0--edge1-none
_symmetry_space_group_name_H-M    P1
_symmetry_Int_Tables_number       1
_symmetry_cell_setting            triclinic
loop_
_symmetry_equiv_pos_as_xyz
'x, y, z'
_cell_length_a     16.602936
_cell_length_b     16.601453
_cell_length_c     25.670886
_cell_angle_alpha  90.0
_cell_angle_beta   90.0
_cell_angle_gamma 90.000483
loop_
_atom_site_label
_atom_site_type_symbol
_atom_site_fract_x
_atom_site_fract_y
_atom_site_fract_z
_atom_type_partial_charge
Sc0 Sc 0.3896 0.24083 0.17851 0.0
Sc1 Sc 0.19756 0.21092 0.12932 0.0
Sc2 Sc 0.34622 0.08138 0.0906 0.0
O3 O 0.30904 0.17733 0.13313 0.0
C4 C 0.48553 0.20086 0.08852 0.0
C5 C 0.28088 0.37447 0.13449 0.0
C6 C 0.22429 0.16126 1.00989 0.0
C7 C 0.25145 0.25039 0.24766 0.0
C8 C 0.40496 0.06372 0.21197 0.0
C9 C 0.17807 0.01887 0.13946 0.0
O10 O 0.47601 0.17567 0.13343 0.0
O11 O 0.24893 0.3226 0.10562 0.0
O12 O 0.28284 0.11324 1.01815 0.0
O13 O 0.31354 0.28745 0.23461 0.0
O14 O 0.40386 0.03567 0.16488 0.0
O15 O 0.15403 0.09165 0.14469 0.0
O16 O 0.39968 0.13769 0.22254 0.0
O17 O 0.20191 0.22194 0.21436 0.0
O18 O 0.24628 0.00132 0.11854 0.0
O19 O 0.35415 0.36237 0.14883 0.0
O20 O 0.43943 0.16641 0.05636 0.0
O21 O 0.18777 0.19619 0.04708 0.0
Sc22 Sc 0.49849 0.63961 0.42849 0.0
Sc23 Sc 0.52844 0.44755 0.37932 0.0
Sc24 Sc 0.65795 0.59625 0.3406 0.0
O25 O 0.56201 0.55904 0.38312 0.0
C26 C 0.53846 0.73554 0.33851 0.0
C27 C 0.36488 0.53083 0.38448 0.0
C28 C 0.57811 0.47429 0.25989 0.0
C29 C 0.48895 0.50144 0.49765 0.0
C30 C 0.67557 0.655 0.46197 0.0
C31 C 0.72046 0.42807 0.38947 0.0
O32 O 0.56364 0.72603 0.38342 0.0
O33 O 0.41673 0.49888 0.35562 0.0
O34 O 0.62613 0.53286 0.26816 0.0
O35 O 0.45189 0.56352 0.48459 0.0
O36 O 0.70364 0.65391 0.41488 0.0
O37 O 0.64771 0.40404 0.39468 0.0
O38 O 0.60162 0.6497 0.47253 0.0
O39 O 0.51741 0.45189 0.46436 0.0
O40 O 0.73803 0.49632 0.36855 0.0
O41 O 0.37698 0.60414 0.39882 0.0
O42 O 0.57293 0.68944 0.30635 0.0
O43 O 0.54317 0.43778 0.29708 0.0
Sc44 Sc 0.14306 0.90799 0.5906 0.0
Sc45 Sc 0.29172 0.77845 0.62932 0.0
Sc46 Sc 0.09968 0.74854 0.67851 0.0
O47 O 0.18025 0.81204 0.63313 0.0
C48 C 0.08433 0.92565 0.71197 0.0
C49 C 0.31122 0.9705 0.63946 0.0
C50 C 0.23783 0.73898 0.74766 0.0
C51 C 0.265 0.82811 0.50989 0.0
C52 C 0.00375 0.78851 0.58852 0.0
C53 C 0.20841 0.6149 0.63449 0.0
O54 O 0.08543 0.9537 0.66488 0.0
O55 O 0.33525 0.89772 0.64469 0.0
O56 O 0.17575 0.70192 0.73461 0.0
O57 O 0.20644 0.87613 0.51815 0.0
O58 O 0.01327 0.81371 0.63343 0.0
O59 O 0.24035 0.66678 0.60562 0.0
O60 O 0.04986 0.82297 0.55636 0.0
O61 O 0.30151 0.79318 0.54708 0.0
O62 O 0.13514 0.627 0.64883 0.0
O63 O 0.24301 0.98805 0.61854 0.0
O64 O 0.0896 0.85168 0.72254 0.0
O65 O 0.28737 0.76744 0.71436 0.0
Sc66 Sc 0.83133 0.39312 0.8406 0.0
Sc67 Sc 0.96084 0.54182 0.87932 0.0
Sc68 Sc 0.99079 0.34977 0.92849 0.0
O69 O 0.92727 0.43033 0.88312 0.0
C70 C 0.81371 0.33437 0.96197 0.0
C71 C 0.76882 0.5613 0.88947 0.0
C72 C 0.00034 0.48793 0.99765 0.0
C73 C 0.91118 0.51508 0.75989 0.0
C74 C 0.95083 0.25383 0.83851 0.0
C75 C 0.1244 0.45854 0.88448 0.0
O76 O 0.78565 0.33546 0.91488 0.0
O77 O 0.84157 0.58533 0.89468 0.0
O78 O 0.0374 0.42585 0.98459 0.0
O79 O 0.86315 0.45651 0.76816 0.0
O80 O 0.92564 0.26334 0.88342 0.0
O81 O 0.07255 0.49049 0.85562 0.0
O82 O 0.91636 0.29993 0.80635 0.0
O83 O 0.94611 0.55159 0.79708 0.0
O84 O 0.11231 0.38524 0.89882 0.0
O85 O 0.75126 0.49305 0.86855 0.0
O86 O 0.88767 0.33967 0.97253 0.0
O87 O 0.97187 0.53748 0.96436 0.0
Sc88 Sc 0.64303 0.90801 0.95994 0.0
Sc89 Sc 0.79182 0.77862 0.92122 0.0
Sc90 Sc 0.59981 0.74858 0.87201 0.0
O91 O 0.68031 0.81211 0.91741 0.0
C92 C 0.50381 0.78849 0.96194 0.0
C93 C 0.76497 0.82817 0.04066 0.0
C94 C 0.70862 0.61507 0.91599 0.0
C95 C 0.81117 0.97067 0.91109 0.0
C96 C 0.58438 0.92567 0.83856 0.0
C97 C 0.73799 0.73914 0.80288 0.0
O98 O 0.54986 0.8229 0.99415 0.0
O99 O 0.80154 0.79331 1.00346 0.0
O100 O 0.6353 0.62706 0.90171 0.0
O101 O 0.74294 0.98815 0.93201 0.0
O102 O 0.58974 0.85171 0.82799 0.0
O103 O 0.78751 0.76763 0.83618 0.0
O104 O 0.5854 0.9537 0.88566 0.0
O105 O 0.83528 0.89791 0.90588 0.0
O106 O 0.67595 0.702 0.81593 0.0
O107 O 0.7064 0.87618 0.03239 0.0
O108 O 0.51333 0.81373 0.91704 0.0
O109 O 0.74057 0.66689 0.94489 0.0
Sc110 Sc 0.33132 0.39311 0.70993 0.0
Sc111 Sc 0.46069 0.54195 0.67124 0.0
Sc112 Sc 0.49076 0.34993 0.62201 0.0
O113 O 0.42722 0.43042 0.66741 0.0
C114 C 0.45085 0.25391 0.71193 0.0
C115 C 0.41114 0.51505 0.79066 0.0
C116 C 0.62425 0.45875 0.66601 0.0
C117 C 0.26867 0.56129 0.6611 0.0
C118 C 0.3137 0.33447 0.58856 0.0
C119 C 0.5002 0.48814 0.5529 0.0
O120 O 0.41643 0.29994 0.74414 0.0
O121 O 0.44601 0.55163 0.75347 0.0
O122 O 0.61224 0.3854 0.65174 0.0
O123 O 0.25118 0.49301 0.682 0.0
O124 O 0.38764 0.33987 0.57798 0.0
O125 O 0.47169 0.53766 0.58619 0.0
O126 O 0.28566 0.33545 0.63566 0.0
O127 O 0.3414 0.5854 0.6559 0.0
O128 O 0.53734 0.42611 0.56596 0.0
O129 O 0.36312 0.45648 0.78238 0.0
O130 O 0.42562 0.26343 0.66703 0.0
O131 O 0.57244 0.4907 0.69489 0.0
Sc132 Sc 0.88948 0.2408 0.37201 0.0
Sc133 Sc 0.69746 0.21075 0.42122 0.0
Sc134 Sc 0.84625 0.08136 0.45994 0.0
O135 O 0.80897 0.17726 0.41741 0.0
C136 C 0.9049 0.0637 0.33856 0.0
C137 C 0.75129 0.25023 0.30288 0.0
C138 C 0.67811 0.0187 0.41109 0.0
C139 C 0.78067 0.3743 0.41599 0.0
C140 C 0.98547 0.20088 0.46194 0.0
C141 C 0.72432 0.1612 0.54066 0.0
O142 O 0.89954 0.13766 0.32799 0.0
O143 O 0.70177 0.22175 0.33618 0.0
O144 O 0.74634 0.00122 0.43201 0.0
O145 O 0.85398 0.36231 0.40171 0.0
O146 O 0.93943 0.16647 0.49415 0.0
O147 O 0.68774 0.19606 0.50346 0.0
O148 O 0.97595 0.17564 0.41704 0.0
O149 O 0.74871 0.32248 0.44489 0.0
O150 O 0.78288 0.11319 0.53239 0.0
O151 O 0.81333 0.28737 0.31593 0.0
O152 O 0.90389 0.03567 0.38566 0.0
O153 O 0.654 0.09146 0.40588 0.0
Sc154 Sc -0.00147 0.63944 0.12201 0.0
Sc155 Sc 0.02859 0.44742 0.17124 0.0
Sc156 Sc 0.15796 0.59626 0.20993 0.0
O157 O 0.06207 0.55895 0.16741 0.0
C158 C 0.17558 0.65491 0.08856 0.0
C159 C 0.98908 0.50123 0.0529 0.0
C160 C 0.22061 0.42808 0.1611 0.0
C161 C 0.86503 0.53062 0.16601 0.0
C162 C 0.03843 0.73547 0.21193 0.0
C163 C 0.07814 0.47433 0.29066 0.0
O164 O 0.10164 0.6495 0.07798 0.0
O165 O 0.01759 0.45171 0.08619 0.0
O166 O 0.2381 0.49636 0.182 0.0
O167 O 0.87704 0.60397 0.15174 0.0
O168 O 0.07285 0.68943 0.24414 0.0
O169 O 0.04328 0.43774 0.25347 0.0
O170 O 0.06366 0.72594 0.16703 0.0
O171 O 0.91684 0.49867 0.19489 0.0
O172 O 0.12616 0.53289 0.28238 0.0
O173 O 0.95194 0.56326 0.06596 0.0
O174 O 0.20362 0.65392 0.13566 0.0
O175 O 0.14789 0.40397 0.1559 0.0
Sc176 Sc 0.8895 0.74092 0.67853 0.0
Sc177 Sc 0.69749 0.71098 0.62928 0.0
Sc178 Sc 0.84618 0.58143 0.59061 0.0
O179 O 0.80897 0.6774 0.63312 0.0
C180 C 0.98542 0.70091 0.58857 0.0
C181 C 0.78082 0.87454 0.63449 0.0
C182 C 0.72433 0.66134 0.50987 0.0
C183 C 0.75129 0.75042 0.74763 0.0
C184 C 0.90488 0.56382 0.71199 0.0
C185 C 0.67799 0.51893 0.63943 0.0
O186 O 0.976 0.67581 0.6335 0.0
O187 O 0.74888 0.82268 0.60561 0.0
O188 O 0.78281 0.61323 0.51816 0.0
O189 O 0.81335 0.78753 0.73458 0.0
O190 O 0.90383 0.53576 0.6649 0.0
O191 O 0.65393 0.5917 0.64461 0.0
O192 O 0.89956 0.63778 0.72256 0.0
O193 O 0.70177 0.72195 0.71433 0.0
O194 O 0.74625 0.50137 0.61857 0.0
O195 O 0.85409 0.86244 0.64882 0.0
O196 O 0.93939 0.66644 0.55638 0.0
O197 O 0.68778 0.69631 0.54704 0.0
Sc198 Sc -0.00156 0.13965 0.92852 0.0
Sc199 Sc 0.02839 0.94761 0.8793 0.0
Sc200 Sc 0.15791 0.0963 0.8406 0.0
O201 O 0.06195 0.05911 0.88312 0.0
C202 C 0.03843 0.23554 0.83855 0.0
C203 C 0.86486 0.0309 0.88451 0.0
C204 C 0.07801 0.97441 0.75988 0.0
C205 C 0.98893 0.00145 0.99765 0.0
C206 C 0.17553 0.15501 0.96198 0.0
C207 C 0.22041 0.92812 0.88945 0.0
O208 O 0.06355 0.22613 0.88348 0.0
O209 O 0.91669 -0.00104 0.85563 0.0
O210 O 0.12609 0.03292 0.76815 0.0
O211 O 0.95185 0.06352 0.9846 0.0
O212 O 0.2036 0.15393 0.91489 0.0
O213 O 0.14766 0.90408 0.89464 0.0
O214 O 0.10158 0.14972 0.97255 0.0
O215 O 0.0174 0.95192 0.96434 0.0
O216 O 0.23798 -0.00363 0.86855 0.0
O217 O 0.87691 0.1042 0.89886 0.0
O218 O 0.07291 0.18951 0.80636 0.0
O219 O 0.04306 0.93786 0.79705 0.0
Sc220 Sc 0.6431 0.40794 0.09061 0.0
Sc221 Sc 0.79179 0.27839 0.12928 0.0
Sc222 Sc 0.59978 0.24845 0.17853 0.0
O223 O 0.68031 0.31197 0.13312 0.0
C224 C 0.5844 0.42555 0.21199 0.0
C225 C 0.81129 0.47045 0.13943 0.0
C226 C 0.73799 0.23895 0.24763 0.0
C227 C 0.76495 0.32803 1.00987 0.0
C228 C 0.50386 0.28846 0.08857 0.0
C229 C 0.70846 0.11483 0.13449 0.0
O230 O 0.58546 0.45361 0.1649 0.0
O231 O 0.83536 0.39767 0.14461 0.0
O232 O 0.67593 0.20185 0.23458 0.0
O233 O 0.70647 0.37614 1.01816 0.0
O234 O 0.51328 0.31357 0.1335 0.0
O235 O 0.74041 0.1667 0.10561 0.0
O236 O 0.54989 0.32294 0.05638 0.0
O237 O 0.80151 0.29306 0.04704 0.0
O238 O 0.63519 0.12693 0.14882 0.0
O239 O 0.74304 0.488 0.11857 0.0
O240 O 0.58973 0.35159 0.22256 0.0
O241 O 0.78751 0.26742 0.21433 0.0
Sc242 Sc 0.33137 0.89307 0.3406 0.0
Sc243 Sc 0.4609 0.04176 0.3793 0.0
Sc244 Sc 0.49085 0.84972 0.42852 0.0
O245 O 0.42733 0.93027 0.38312 0.0
C246 C 0.31375 0.83436 0.46198 0.0
C247 C 0.26887 0.06125 0.38945 0.0
C248 C 0.50035 0.98792 0.49765 0.0
C249 C 0.41128 0.01496 0.25988 0.0
C250 C 0.45086 0.75383 0.33855 0.0
C251 C 0.62443 0.95847 0.38451 0.0
O252 O 0.28569 0.83544 0.41489 0.0
O253 O 0.34163 0.08529 0.39464 0.0
O254 O 0.53743 0.92585 0.4846 0.0
O255 O 0.36319 0.95645 0.26815 0.0
O256 O 0.42574 0.76324 0.38348 0.0
O257 O 0.5726 0.99041 0.35563 0.0
O258 O 0.41638 0.79986 0.30636 0.0
O259 O 0.44622 0.05151 0.29705 0.0
O260 O 0.61238 0.88517 0.39886 0.0
O261 O 0.25131 0.993 0.36855 0.0
O262 O 0.38771 0.83965 0.47255 0.0
O263 O 0.47188 0.03745 0.46434 0.0
Sc264 Sc 0.14307 0.40797 0.45993 0.0
Sc265 Sc 0.29189 0.27856 0.42126 0.0
Sc266 Sc 0.09991 0.24849 0.37199 0.0
O267 O 0.18037 0.31204 0.41742 0.0
C268 C 0.00392 0.28844 0.46189 0.0
C269 C 0.26492 0.3281 0.54067 0.0
C270 C 0.20867 0.115 0.41599 0.0
C271 C 0.31124 0.47061 0.41112 0.0
C272 C 0.08446 0.42557 0.33855 0.0
C273 C 0.23815 0.23911 0.30291 0.0
O274 O 0.04989 0.32287 0.49413 0.0
O275 O 0.30154 0.29319 0.50351 0.0
O276 O 0.13535 0.12699 0.40172 0.0
O277 O 0.24297 0.4881 0.43198 0.0
O278 O 0.08987 0.35162 0.32797 0.0
O279 O 0.28765 0.26761 0.33622 0.0
O280 O 0.08543 0.45361 0.38565 0.0
O281 O 0.33538 0.39786 0.40595 0.0
O282 O 0.17614 0.20193 0.31596 0.0
O283 O 0.20644 0.37619 0.53238 0.0
O284 O 0.01335 0.31359 0.41697 0.0
O285 O 0.24063 0.16681 0.4449 0.0
Sc286 Sc 0.83136 0.89306 0.20994 0.0
Sc287 Sc 0.96075 0.04189 0.17125 0.0
Sc288 Sc 0.99081 0.84989 0.12198 0.0
O289 O 0.92727 0.93036 0.16742 0.0
C290 C 0.95088 0.7539 0.21189 0.0
C291 C 0.91124 0.01493 0.29067 0.0
C292 C 0.12428 0.95869 0.16599 0.0
C293 C 0.76872 0.06124 0.16112 0.0
C294 C 0.81374 0.83446 0.08854 0.0
C295 C 0.00021 0.98813 0.0529 0.0
O296 O 0.91645 0.79987 0.24414 0.0
O297 O 0.94611 0.05155 0.2535 0.0
O298 O 0.11231 0.88534 0.1517 0.0
O299 O 0.75123 0.99295 0.182 0.0
O300 O 0.88768 0.83985 0.07796 0.0
O301 O 0.9717 0.03763 0.08621 0.0
O302 O 0.7857 0.83543 0.13565 0.0
O303 O 0.84145 0.08537 0.15594 0.0
O304 O 0.03737 0.92611 0.06594 0.0
O305 O 0.86316 0.95642 0.28239 0.0
O306 O 0.92572 0.76333 0.16697 0.0
O307 O 0.07249 0.99062 0.19489 0.0
Sc308 Sc 0.38937 0.74088 0.87199 0.0
Sc309 Sc 0.19739 0.71081 0.92126 0.0
Sc310 Sc 0.34621 0.5814 0.95993 0.0
O311 O 0.30891 0.67733 0.91742 0.0
C312 C 0.40482 0.5638 0.83855 0.0
C313 C 0.25113 0.75026 0.80291 0.0
C314 C 0.17804 0.51876 0.91112 0.0
C315 C 0.28061 0.87437 0.91599 0.0
C316 C 0.48536 0.70094 0.96189 0.0
C317 C 0.22436 0.66127 0.04067 0.0
O318 O 0.39941 0.63775 0.82797 0.0
O319 O 0.20163 0.72176 0.83622 0.0
O320 O 0.24631 0.50127 0.93198 0.0
O321 O 0.35393 0.86238 0.90172 0.0
O322 O 0.43939 0.6665 0.99413 0.0
O323 O 0.18775 0.69618 1.00351 0.0
O324 O 0.47594 0.67578 0.91697 0.0
O325 O 0.24865 0.82256 0.9449 0.0
O326 O 0.28285 0.61318 0.03238 0.0
O327 O 0.31315 0.78745 0.81596 0.0
O328 O 0.40385 0.53576 0.88565 0.0
O329 O 0.1539 0.59152 0.90595 0.0
Sc330 Sc 0.49847 0.13948 0.62198 0.0
Sc331 Sc 0.52854 0.94748 0.67125 0.0
Sc332 Sc 0.65792 0.09631 0.70994 0.0
O333 O 0.56201 0.05901 0.66742 0.0
C334 C 0.67554 0.15491 0.58854 0.0
C335 C 0.48907 0.00124 0.5529 0.0
C336 C 0.72056 0.92813 0.66112 0.0
C337 C 0.365 0.03068 0.66599 0.0
C338 C 0.5384 0.23547 0.71189 0.0
C339 C 0.57804 0.97444 0.79067 0.0
O340 O 0.6016 0.14952 0.57796 0.0
O341 O 0.51758 0.95174 0.58621 0.0
O342 O 0.73806 -0.00358 0.682 0.0
O343 O 0.37698 0.10403 0.6517 0.0
O344 O 0.57283 0.1895 0.74414 0.0
O345 O 0.54317 0.93783 0.7535 0.0
O346 O 0.56356 0.22605 0.66697 0.0
O347 O 0.4168 -0.00125 0.69489 0.0
O348 O 0.62613 0.03295 0.78239 0.0
O349 O 0.45191 0.06326 0.56594 0.0
O350 O 0.70358 0.15394 0.63565 0.0
O351 O 0.64784 0.904 0.65594 0.0
loop_
_geom_bond_atom_site_label_1
_geom_bond_atom_site_label_2
_geom_bond_distance
_geom_bond_site_symmetry_2
_ccdc_geom_bond_type
Sc0 O3 2.025 . S
Sc0 O10 2.105 . S
Sc0 O13 2.105 . S
Sc0 O16 2.105 . S
Sc0 O19 2.105 . S
Sc1 O3 2.025 . S
Sc1 O11 2.105 . S
Sc1 O15 2.105 . S
Sc1 O17 2.105 . S
Sc1 O21 2.105 . S
Sc2 O3 2.025 . S
Sc2 O12 2.105 . S
Sc2 O14 2.105 . S
Sc2 O18 2.105 1_545 S
Sc2 O20 2.105 . S
O3 Sc0 2.025 . S
O3 Sc1 2.025 . S
O3 Sc2 2.025 . S
C4 O10 1.268 . S
C4 O20 1.268 . S
C5 O11 1.268 . S
C5 O19 1.268 . S
C6 O12 1.268 . S
C6 O21 1.268 . S
C7 O13 1.268 . S
C7 O17 1.268 . S
C8 O14 1.268 . S
C8 O16 1.268 . S
C9 O15 1.268 . S
C9 O18 1.268 1_545 S
O10 Sc0 2.105 . S
O10 C4 1.268 . S
O11 Sc1 2.105 . S
O11 C5 1.268 . S
O12 Sc2 2.105 . S
O12 C6 1.268 . S
O13 Sc0 2.105 . S
O13 C7 1.268 . S
O14 Sc2 2.105 . S
O14 C8 1.268 . S
O15 Sc1 2.105 . S
O15 C9 1.268 . S
O16 Sc0 2.105 . S
O16 C8 1.268 . S
O17 Sc1 2.105 . S
O17 C7 1.268 . S
O18 Sc2 2.105 1_565 S
O18 C9 1.268 1_565 S
O19 Sc0 2.105 . S
O19 C5 1.268 . S
O20 Sc2 2.105 . S
O20 C4 1.268 . S
O21 Sc1 2.105 . S
O21 C6 1.268 . S
Sc22 O25 2.025 . S
Sc22 O32 2.105 . S
Sc22 O35 2.105 . S
Sc22 O38 2.105 . S
Sc22 O41 2.105 . S
Sc23 O25 2.025 . S
Sc23 O33 2.105 . S
Sc23 O37 2.105 . S
Sc23 O39 2.105 . S
Sc23 O43 2.105 . S
Sc24 O25 2.025 . S
Sc24 O34 2.105 . S
Sc24 O36 2.105 . S
Sc24 O40 2.105 . S
Sc24 O42 2.105 . S
O25 Sc22 2.025 . S
O25 Sc23 2.025 . S
O25 Sc24 2.025 . S
C26 O32 1.268 . S
C26 O42 1.268 . S
C27 O33 1.268 . S
C27 O41 1.268 . S
C28 O34 1.268 . S
C28 O43 1.268 . S
C29 O35 1.268 . S
C29 O39 1.268 . S
C30 O36 1.268 . S
C30 O38 1.268 . S
C31 O37 1.268 . S
C31 O40 1.268 . S
O32 Sc22 2.105 . S
O32 C26 1.268 . S
O33 Sc23 2.105 . S
O33 C27 1.268 . S
O34 Sc24 2.105 . S
O34 C28 1.268 . S
O35 Sc22 2.105 . S
O35 C29 1.268 . S
O36 Sc24 2.105 . S
O36 C30 1.268 . S
O37 Sc23 2.105 . S
O37 C31 1.268 . S
O38 Sc22 2.105 . S
O38 C30 1.268 . S
O39 Sc23 2.105 . S
O39 C29 1.268 . S
O40 Sc24 2.105 . S
O40 C31 1.268 . S
O41 Sc22 2.105 . S
O41 C27 1.268 . S
O42 Sc24 2.105 . S
O42 C26 1.268 . S
O43 Sc23 2.105 . S
O43 C28 1.268 . S
Sc44 O47 2.025 . S
Sc44 O54 2.105 . S
Sc44 O57 2.105 . S
Sc44 O60 2.105 . S
Sc44 O63 2.105 1_565 S
Sc45 O47 2.025 . S
Sc45 O55 2.105 . S
Sc45 O59 2.105 . S
Sc45 O61 2.105 . S
Sc45 O65 2.105 . S
Sc46 O47 2.025 . S
Sc46 O56 2.105 . S
Sc46 O58 2.105 . S
Sc46 O62 2.105 . S
Sc46 O64 2.105 . S
O47 Sc44 2.025 . S
O47 Sc45 2.025 . S
O47 Sc46 2.025 . S
C48 O54 1.268 . S
C48 O64 1.268 . S
C49 O55 1.268 . S
C49 O63 1.268 1_565 S
C50 O56 1.268 . S
C50 O65 1.268 . S
C51 O57 1.268 . S
C51 O61 1.268 . S
C52 O58 1.268 1_655 S
C52 O60 1.268 1_655 S
C53 O59 1.268 . S
C53 O62 1.268 . S
O54 Sc44 2.105 . S
O54 C48 1.268 . S
O55 Sc45 2.105 . S
O55 C49 1.268 . S
O56 Sc46 2.105 . S
O56 C50 1.268 . S
O57 Sc44 2.105 . S
O57 C51 1.268 . S
O58 Sc46 2.105 . S
O58 C52 1.268 1_455 S
O59 Sc45 2.105 . S
O59 C53 1.268 . S
O60 Sc44 2.105 . S
O60 C52 1.268 1_455 S
O61 Sc45 2.105 . S
O61 C51 1.268 . S
O62 Sc46 2.105 . S
O62 C53 1.268 . S
O63 Sc44 2.105 1_545 S
O63 C49 1.268 1_545 S
O64 Sc46 2.105 . S
O64 C48 1.268 . S
O65 Sc45 2.105 . S
O65 C50 1.268 . S
Sc66 O69 2.025 . S
Sc66 O76 2.105 . S
Sc66 O79 2.105 . S
Sc66 O82 2.105 . S
Sc66 O85 2.105 . S
Sc67 O69 2.025 . S
Sc67 O77 2.105 . S
Sc67 O81 2.105 1_655 S
Sc67 O83 2.105 . S
Sc67 O87 2.105 . S
Sc68 O69 2.025 . S
Sc68 O78 2.105 . S
Sc68 O80 2.105 . S
Sc68 O84 2.105 1_655 S
Sc68 O86 2.105 . S
O69 Sc66 2.025 . S
O69 Sc67 2.025 . S
O69 Sc68 2.025 . S
C70 O76 1.268 . S
C70 O86 1.268 . S
C71 O77 1.268 . S
C71 O85 1.268 . S
C72 O78 1.268 . S
C72 O87 1.268 . S
C73 O79 1.268 . S
C73 O83 1.268 . S
C74 O80 1.268 . S
C74 O82 1.268 . S
C75 O81 1.268 . S
C75 O84 1.268 . S
O76 Sc66 2.105 . S
O76 C70 1.268 . S
O77 Sc67 2.105 . S
O77 C71 1.268 . S
O78 Sc68 2.105 . S
O78 C72 1.268 . S
O79 Sc66 2.105 . S
O79 C73 1.268 . S
O80 Sc68 2.105 . S
O80 C74 1.268 . S
O81 Sc67 2.105 1_455 S
O81 C75 1.268 . S
O82 Sc66 2.105 . S
O82 C74 1.268 . S
O83 Sc67 2.105 . S
O83 C73 1.268 . S
O84 Sc68 2.105 1_455 S
O84 C75 1.268 . S
O85 Sc66 2.105 . S
O85 C71 1.268 . S
O86 Sc68 2.105 . S
O86 C70 1.268 . S
O87 Sc67 2.105 . S
O87 C72 1.268 . S
Sc88 O91 2.025 . S
Sc88 O98 2.105 . S
Sc88 O101 2.105 1_565 S
Sc88 O104 2.105 . S
Sc88 O107 2.105 . S
Sc89 O91 2.025 . S
Sc89 O99 2.105 . S
Sc89 O103 2.105 . S
Sc89 O105 2.105 . S
Sc89 O109 2.105 . S
Sc90 O91 2.025 . S
Sc90 O100 2.105 . S
Sc90 O102 2.105 . S
Sc90 O106 2.105 . S
Sc90 O108 2.105 . S
O91 Sc88 2.025 . S
O91 Sc89 2.025 . S
O91 Sc90 2.025 . S
C92 O98 1.268 . S
C92 O108 1.268 . S
C93 O99 1.268 . S
C93 O107 1.268 . S
C94 O100 1.268 . S
C94 O109 1.268 . S
C95 O101 1.268 1_565 S
C95 O105 1.268 . S
C96 O102 1.268 . S
C96 O104 1.268 . S
C97 O103 1.268 . S
C97 O106 1.268 . S
O98 Sc88 2.105 . S
O98 C92 1.268 . S
O99 Sc89 2.105 . S
O99 C93 1.268 . S
O100 Sc90 2.105 . S
O100 C94 1.268 . S
O101 Sc88 2.105 1_545 S
O101 C95 1.268 1_545 S
O102 Sc90 2.105 . S
O102 C96 1.268 . S
O103 Sc89 2.105 . S
O103 C97 1.268 . S
O104 Sc88 2.105 . S
O104 C96 1.268 . S
O105 Sc89 2.105 . S
O105 C95 1.268 . S
O106 Sc90 2.105 . S
O106 C97 1.268 . S
O107 Sc88 2.105 . S
O107 C93 1.268 . S
O108 Sc90 2.105 . S
O108 C92 1.268 . S
O109 Sc89 2.105 . S
O109 C94 1.268 . S
Sc110 O113 2.025 . S
Sc110 O120 2.105 . S
Sc110 O123 2.105 . S
Sc110 O126 2.105 . S
Sc110 O129 2.105 . S
Sc111 O113 2.025 . S
Sc111 O121 2.105 . S
Sc111 O125 2.105 . S
Sc111 O127 2.105 . S
Sc111 O131 2.105 . S
Sc112 O113 2.025 . S
Sc112 O122 2.105 . S
Sc112 O124 2.105 . S
Sc112 O128 2.105 . S
Sc112 O130 2.105 . S
O113 Sc110 2.025 . S
O113 Sc111 2.025 . S
O113 Sc112 2.025 . S
C114 O120 1.268 . S
C114 O130 1.268 . S
C115 O121 1.268 . S
C115 O129 1.268 . S
C116 O122 1.268 . S
C116 O131 1.268 . S
C117 O123 1.268 . S
C117 O127 1.268 . S
C118 O124 1.268 . S
C118 O126 1.268 . S
C119 O125 1.268 . S
C119 O128 1.268 . S
O120 Sc110 2.105 . S
O120 C114 1.268 . S
O121 Sc111 2.105 . S
O121 C115 1.268 . S
O122 Sc112 2.105 . S
O122 C116 1.268 . S
O123 Sc110 2.105 . S
O123 C117 1.268 . S
O124 Sc112 2.105 . S
O124 C118 1.268 . S
O125 Sc111 2.105 . S
O125 C119 1.268 . S
O126 Sc110 2.105 . S
O126 C118 1.268 . S
O127 Sc111 2.105 . S
O127 C117 1.268 . S
O128 Sc112 2.105 . S
O128 C119 1.268 . S
O129 Sc110 2.105 . S
O129 C115 1.268 . S
O130 Sc112 2.105 . S
O130 C114 1.268 . S
O131 Sc111 2.105 . S
O131 C116 1.268 . S
Sc132 O135 2.025 . S
Sc132 O142 2.105 . S
Sc132 O145 2.105 . S
Sc132 O148 2.105 . S
Sc132 O151 2.105 . S
Sc133 O135 2.025 . S
Sc133 O143 2.105 . S
Sc133 O147 2.105 . S
Sc133 O149 2.105 . S
Sc133 O153 2.105 . S
Sc134 O135 2.025 . S
Sc134 O144 2.105 1_545 S
Sc134 O146 2.105 . S
Sc134 O150 2.105 . S
Sc134 O152 2.105 . S
O135 Sc132 2.025 . S
O135 Sc133 2.025 . S
O135 Sc134 2.025 . S
C136 O142 1.268 . S
C136 O152 1.268 . S
C137 O143 1.268 . S
C137 O151 1.268 . S
C138 O144 1.268 1_545 S
C138 O153 1.268 . S
C139 O145 1.268 . S
C139 O149 1.268 . S
C140 O146 1.268 1_455 S
C140 O148 1.268 1_455 S
C141 O147 1.268 . S
C141 O150 1.268 . S
O142 Sc132 2.105 . S
O142 C136 1.268 . S
O143 Sc133 2.105 . S
O143 C137 1.268 . S
O144 Sc134 2.105 1_565 S
O144 C138 1.268 1_565 S
O145 Sc132 2.105 . S
O145 C139 1.268 . S
O146 Sc134 2.105 . S
O146 C140 1.268 1_655 S
O147 Sc133 2.105 . S
O147 C141 1.268 . S
O148 Sc132 2.105 . S
O148 C140 1.268 1_655 S
O149 Sc133 2.105 . S
O149 C139 1.268 . S
O150 Sc134 2.105 . S
O150 C141 1.268 . S
O151 Sc132 2.105 . S
O151 C137 1.268 . S
O152 Sc134 2.105 . S
O152 C136 1.268 . S
O153 Sc133 2.105 . S
O153 C138 1.268 . S
Sc154 O157 2.025 . S
Sc154 O164 2.105 . S
Sc154 O167 2.105 1_455 S
Sc154 O170 2.105 . S
Sc154 O173 2.105 . S
Sc155 O157 2.025 . S
Sc155 O165 2.105 . S
Sc155 O169 2.105 . S
Sc155 O171 2.105 1_455 S
Sc155 O175 2.105 . S
Sc156 O157 2.025 . S
Sc156 O166 2.105 . S
Sc156 O168 2.105 . S
Sc156 O172 2.105 . S
Sc156 O174 2.105 . S
O157 Sc154 2.025 . S
O157 Sc155 2.025 . S
O157 Sc156 2.025 . S
C158 O164 1.268 . S
C158 O174 1.268 . S
C159 O165 1.268 . S
C159 O173 1.268 . S
C160 O166 1.268 . S
C160 O175 1.268 . S
C161 O167 1.268 . S
C161 O171 1.268 . S
C162 O168 1.268 . S
C162 O170 1.268 . S
C163 O169 1.268 . S
C163 O172 1.268 . S
O164 Sc154 2.105 . S
O164 C158 1.268 . S
O165 Sc155 2.105 . S
O165 C159 1.268 . S
O166 Sc156 2.105 . S
O166 C160 1.268 . S
O167 Sc154 2.105 1_655 S
O167 C161 1.268 . S
O168 Sc156 2.105 . S
O168 C162 1.268 . S
O169 Sc155 2.105 . S
O169 C163 1.268 . S
O170 Sc154 2.105 . S
O170 C162 1.268 . S
O171 Sc155 2.105 1_655 S
O171 C161 1.268 . S
O172 Sc156 2.105 . S
O172 C163 1.268 . S
O173 Sc154 2.105 . S
O173 C159 1.268 . S
O174 Sc156 2.105 . S
O174 C158 1.268 . S
O175 Sc155 2.105 . S
O175 C160 1.268 . S
Sc176 O179 2.025 . S
Sc176 O186 2.105 . S
Sc176 O189 2.105 . S
Sc176 O192 2.105 . S
Sc176 O195 2.105 . S
Sc177 O179 2.025 . S
Sc177 O187 2.105 . S
Sc177 O191 2.105 . S
Sc177 O193 2.105 . S
Sc177 O197 2.105 . S
Sc178 O179 2.025 . S
Sc178 O188 2.105 . S
Sc178 O190 2.105 . S
Sc178 O194 2.105 . S
Sc178 O196 2.105 . S
O179 Sc176 2.025 . S
O179 Sc177 2.025 . S
O179 Sc178 2.025 . S
C180 O186 1.268 1_455 S
C180 O196 1.268 1_455 S
C181 O187 1.268 . S
C181 O195 1.268 . S
C182 O188 1.268 . S
C182 O197 1.268 . S
C183 O189 1.268 . S
C183 O193 1.268 . S
C184 O190 1.268 . S
C184 O192 1.268 . S
C185 O191 1.268 . S
C185 O194 1.268 . S
O186 Sc176 2.105 . S
O186 C180 1.268 1_655 S
O187 Sc177 2.105 . S
O187 C181 1.268 . S
O188 Sc178 2.105 . S
O188 C182 1.268 . S
O189 Sc176 2.105 . S
O189 C183 1.268 . S
O190 Sc178 2.105 . S
O190 C184 1.268 . S
O191 Sc177 2.105 . S
O191 C185 1.268 . S
O192 Sc176 2.105 . S
O192 C184 1.268 . S
O193 Sc177 2.105 . S
O193 C183 1.268 . S
O194 Sc178 2.105 . S
O194 C185 1.268 . S
O195 Sc176 2.105 . S
O195 C181 1.268 . S
O196 Sc178 2.105 . S
O196 C180 1.268 1_655 S
O197 Sc177 2.105 . S
O197 C182 1.268 . S
Sc198 O201 2.025 . S
Sc198 O208 2.105 . S
Sc198 O211 2.105 . S
Sc198 O214 2.105 . S
Sc198 O217 2.105 1_455 S
Sc199 O201 2.025 1_565 S
Sc199 O209 2.105 1_455 S
Sc199 O213 2.105 . S
Sc199 O215 2.105 . S
Sc199 O219 2.105 . S
Sc200 O201 2.025 . S
Sc200 O210 2.105 . S
Sc200 O212 2.105 . S
Sc200 O216 2.105 . S
Sc200 O218 2.105 . S
O201 Sc198 2.025 . S
O201 Sc199 2.025 1_545 S
O201 Sc200 2.025 . S
C202 O208 1.268 . S
C202 O218 1.268 . S
C203 O209 1.268 1_545 S
C203 O217 1.268 . S
C204 O210 1.268 . S
C204 O219 1.268 1_545 S
C205 O211 1.268 1_565 S
C205 O215 1.268 . S
C206 O212 1.268 . S
C206 O214 1.268 . S
C207 O213 1.268 . S
C207 O216 1.268 1_565 S
O208 Sc198 2.105 . S
O208 C202 1.268 . S
O209 Sc199 2.105 1_655 S
O209 C203 1.268 1_565 S
O210 Sc200 2.105 . S
O210 C204 1.268 . S
O211 Sc198 2.105 . S
O211 C205 1.268 1_545 S
O212 Sc200 2.105 . S
O212 C206 1.268 . S
O213 Sc199 2.105 . S
O213 C207 1.268 . S
O214 Sc198 2.105 . S
O214 C206 1.268 . S
O215 Sc199 2.105 . S
O215 C205 1.268 . S
O216 Sc200 2.105 . S
O216 C207 1.268 1_545 S
O217 Sc198 2.105 1_655 S
O217 C203 1.268 . S
O218 Sc200 2.105 . S
O218 C202 1.268 . S
O219 Sc199 2.105 . S
O219 C204 1.268 1_565 S
Sc220 O223 2.025 . S
Sc220 O230 2.105 . S
Sc220 O233 2.105 . S
Sc220 O236 2.105 . S
Sc220 O239 2.105 . S
Sc221 O223 2.025 . S
Sc221 O231 2.105 . S
Sc221 O235 2.105 . S
Sc221 O237 2.105 . S
Sc221 O241 2.105 . S
Sc222 O223 2.025 . S
Sc222 O232 2.105 . S
Sc222 O234 2.105 . S
Sc222 O238 2.105 . S
Sc222 O240 2.105 . S
O223 Sc220 2.025 . S
O223 Sc221 2.025 . S
O223 Sc222 2.025 . S
C224 O230 1.268 . S
C224 O240 1.268 . S
C225 O231 1.268 . S
C225 O239 1.268 . S
C226 O232 1.268 . S
C226 O241 1.268 . S
C227 O233 1.268 . S
C227 O237 1.268 . S
C228 O234 1.268 . S
C228 O236 1.268 . S
C229 O235 1.268 . S
C229 O238 1.268 . S
O230 Sc220 2.105 . S
O230 C224 1.268 . S
O231 Sc221 2.105 . S
O231 C225 1.268 . S
O232 Sc222 2.105 . S
O232 C226 1.268 . S
O233 Sc220 2.105 . S
O233 C227 1.268 . S
O234 Sc222 2.105 . S
O234 C228 1.268 . S
O235 Sc221 2.105 . S
O235 C229 1.268 . S
O236 Sc220 2.105 . S
O236 C228 1.268 . S
O237 Sc221 2.105 . S
O237 C227 1.268 . S
O238 Sc222 2.105 . S
O238 C229 1.268 . S
O239 Sc220 2.105 . S
O239 C225 1.268 . S
O240 Sc222 2.105 . S
O240 C224 1.268 . S
O241 Sc221 2.105 . S
O241 C226 1.268 . S
Sc242 O245 2.025 . S
Sc242 O252 2.105 . S
Sc242 O255 2.105 . S
Sc242 O258 2.105 . S
Sc242 O261 2.105 . S
Sc243 O245 2.025 1_545 S
Sc243 O253 2.105 . S
Sc243 O257 2.105 . S
Sc243 O259 2.105 . S
Sc243 O263 2.105 . S
Sc244 O245 2.025 . S
Sc244 O254 2.105 . S
Sc244 O256 2.105 . S
Sc244 O260 2.105 . S
Sc244 O262 2.105 . S
O245 Sc242 2.025 . S
O245 Sc243 2.025 1_565 S
O245 Sc244 2.025 . S
C246 O252 1.268 . S
C246 O262 1.268 . S
C247 O253 1.268 . S
C247 O261 1.268 1_545 S
C248 O254 1.268 1_545 S
C248 O263 1.268 . S
C249 O255 1.268 . S
C249 O259 1.268 1_565 S
C250 O256 1.268 . S
C250 O258 1.268 . S
C251 O257 1.268 1_565 S
C251 O260 1.268 . S
O252 Sc242 2.105 . S
O252 C246 1.268 . S
O253 Sc243 2.105 . S
O253 C247 1.268 . S
O254 Sc244 2.105 . S
O254 C248 1.268 1_565 S
O255 Sc242 2.105 . S
O255 C249 1.268 . S
O256 Sc244 2.105 . S
O256 C250 1.268 . S
O257 Sc243 2.105 . S
O257 C251 1.268 1_545 S
O258 Sc242 2.105 . S
O258 C250 1.268 . S
O259 Sc243 2.105 . S
O259 C249 1.268 1_545 S
O260 Sc244 2.105 . S
O260 C251 1.268 . S
O261 Sc242 2.105 . S
O261 C247 1.268 1_565 S
O262 Sc244 2.105 . S
O262 C246 1.268 . S
O263 Sc243 2.105 . S
O263 C248 1.268 . S
Sc264 O267 2.025 . S
Sc264 O274 2.105 . S
Sc264 O277 2.105 . S
Sc264 O280 2.105 . S
Sc264 O283 2.105 . S
Sc265 O267 2.025 . S
Sc265 O275 2.105 . S
Sc265 O279 2.105 . S
Sc265 O281 2.105 . S
Sc265 O285 2.105 . S
Sc266 O267 2.025 . S
Sc266 O276 2.105 . S
Sc266 O278 2.105 . S
Sc266 O282 2.105 . S
Sc266 O284 2.105 . S
O267 Sc264 2.025 . S
O267 Sc265 2.025 . S
O267 Sc266 2.025 . S
C268 O274 1.268 1_655 S
C268 O284 1.268 1_655 S
C269 O275 1.268 . S
C269 O283 1.268 . S
C270 O276 1.268 . S
C270 O285 1.268 . S
C271 O277 1.268 . S
C271 O281 1.268 . S
C272 O278 1.268 . S
C272 O280 1.268 . S
C273 O279 1.268 . S
C273 O282 1.268 . S
O274 Sc264 2.105 . S
O274 C268 1.268 1_455 S
O275 Sc265 2.105 . S
O275 C269 1.268 . S
O276 Sc266 2.105 . S
O276 C270 1.268 . S
O277 Sc264 2.105 . S
O277 C271 1.268 . S
O278 Sc266 2.105 . S
O278 C272 1.268 . S
O279 Sc265 2.105 . S
O279 C273 1.268 . S
O280 Sc264 2.105 . S
O280 C272 1.268 . S
O281 Sc265 2.105 . S
O281 C271 1.268 . S
O282 Sc266 2.105 . S
O282 C273 1.268 . S
O283 Sc264 2.105 . S
O283 C269 1.268 . S
O284 Sc266 2.105 . S
O284 C268 1.268 1_455 S
O285 Sc265 2.105 . S
O285 C270 1.268 . S
Sc286 O289 2.025 . S
Sc286 O296 2.105 . S
Sc286 O299 2.105 . S
Sc286 O302 2.105 . S
Sc286 O305 2.105 . S
Sc287 O289 2.025 1_545 S
Sc287 O297 2.105 . S
Sc287 O301 2.105 . S
Sc287 O303 2.105 . S
Sc287 O307 2.105 1_655 S
Sc288 O289 2.025 . S
Sc288 O298 2.105 1_655 S
Sc288 O300 2.105 . S
Sc288 O304 2.105 . S
Sc288 O306 2.105 . S
O289 Sc286 2.025 . S
O289 Sc287 2.025 1_565 S
O289 Sc288 2.025 . S
C290 O296 1.268 . S
C290 O306 1.268 . S
C291 O297 1.268 1_565 S
C291 O305 1.268 . S
C292 O298 1.268 . S
C292 O307 1.268 1_565 S
C293 O299 1.268 1_545 S
C293 O303 1.268 . S
C294 O300 1.268 . S
C294 O302 1.268 . S
C295 O301 1.268 . S
C295 O304 1.268 1_545 S
O296 Sc286 2.105 . S
O296 C290 1.268 . S
O297 Sc287 2.105 . S
O297 C291 1.268 1_545 S
O298 Sc288 2.105 1_455 S
O298 C292 1.268 . S
O299 Sc286 2.105 . S
O299 C293 1.268 1_565 S
O300 Sc288 2.105 . S
O300 C294 1.268 . S
O301 Sc287 2.105 . S
O301 C295 1.268 . S
O302 Sc286 2.105 . S
O302 C294 1.268 . S
O303 Sc287 2.105 . S
O303 C293 1.268 . S
O304 Sc288 2.105 . S
O304 C295 1.268 1_565 S
O305 Sc286 2.105 . S
O305 C291 1.268 . S
O306 Sc288 2.105 . S
O306 C290 1.268 . S
O307 Sc287 2.105 1_455 S
O307 C292 1.268 1_545 S
Sc308 O311 2.025 . S
Sc308 O318 2.105 . S
Sc308 O321 2.105 . S
Sc308 O324 2.105 . S
Sc308 O327 2.105 . S
Sc309 O311 2.025 . S
Sc309 O319 2.105 . S
Sc309 O323 2.105 . S
Sc309 O325 2.105 . S
Sc309 O329 2.105 . S
Sc310 O311 2.025 . S
Sc310 O320 2.105 . S
Sc310 O322 2.105 . S
Sc310 O326 2.105 . S
Sc310 O328 2.105 . S
O311 Sc308 2.025 . S
O311 Sc309 2.025 . S
O311 Sc310 2.025 . S
C312 O318 1.268 . S
C312 O328 1.268 . S
C313 O319 1.268 . S
C313 O327 1.268 . S
C314 O320 1.268 . S
C314 O329 1.268 . S
C315 O321 1.268 . S
C315 O325 1.268 . S
C316 O322 1.268 . S
C316 O324 1.268 . S
C317 O323 1.268 . S
C317 O326 1.268 . S
O318 Sc308 2.105 . S
O318 C312 1.268 . S
O319 Sc309 2.105 . S
O319 C313 1.268 . S
O320 Sc310 2.105 . S
O320 C314 1.268 . S
O321 Sc308 2.105 . S
O321 C315 1.268 . S
O322 Sc310 2.105 . S
O322 C316 1.268 . S
O323 Sc309 2.105 . S
O323 C317 1.268 . S
O324 Sc308 2.105 . S
O324 C316 1.268 . S
O325 Sc309 2.105 . S
O325 C315 1.268 . S
O326 Sc310 2.105 . S
O326 C317 1.268 . S
O327 Sc308 2.105 . S
O327 C313 1.268 . S
O328 Sc310 2.105 . S
O328 C312 1.268 . S
O329 Sc309 2.105 . S
O329 C314 1.268 . S
Sc330 O333 2.025 . S
Sc330 O340 2.105 . S
Sc330 O343 2.105 . S
Sc330 O346 2.105 . S
Sc330 O349 2.105 . S
Sc331 O333 2.025 1_565 S
Sc331 O341 2.105 . S
Sc331 O345 2.105 . S
Sc331 O347 2.105 . S
Sc331 O351 2.105 . S
Sc332 O333 2.025 . S
Sc332 O342 2.105 . S
Sc332 O344 2.105 . S
Sc332 O348 2.105 . S
Sc332 O350 2.105 . S
O333 Sc330 2.025 . S
O333 Sc331 2.025 1_545 S
O333 Sc332 2.025 . S
C334 O340 1.268 . S
C334 O350 1.268 . S
C335 O341 1.268 . S
C335 O349 1.268 1_565 S
C336 O342 1.268 1_565 S
C336 O351 1.268 . S
C337 O343 1.268 . S
C337 O347 1.268 1_545 S
C338 O344 1.268 . S
C338 O346 1.268 . S
C339 O345 1.268 1_545 S
C339 O348 1.268 . S
O340 Sc330 2.105 . S
O340 C334 1.268 . S
O341 Sc331 2.105 . S
O341 C335 1.268 . S
O342 Sc332 2.105 . S
O342 C336 1.268 1_545 S
O343 Sc330 2.105 . S
O343 C337 1.268 . S
O344 Sc332 2.105 . S
O344 C338 1.268 . S
O345 Sc331 2.105 . S
O345 C339 1.268 1_565 S
O346 Sc330 2.105 . S
O346 C338 1.268 . S
O347 Sc331 2.105 . S
O347 C337 1.268 1_565 S
O348 Sc332 2.105 . S
O348 C339 1.268 . S
O349 Sc330 2.105 . S
O349 C335 1.268 1_545 S
O350 Sc332 2.105 . S
O350 C334 1.268 . S
O351 Sc331 2.105 . S
O351 C336 1.268 . S
C7 C273 1.771 . S
C119 C29 1.771 . S
C50 C313 1.771 . S
C72 C159 1.771 1_656 S
C97 C183 1.771 . S
C226 C137 1.771 . S
C295 C205 1.771 1_644 S
C248 C335 1.771 1_545 S
C206 C6 2.066 1_556 S
C28 C224 2.066 . S
C51 C246 2.066 . S
C184 C73 2.066 . S
C294 C93 2.066 1_554 S
C312 C115 2.066 . S
C141 C334 2.066 . S
C272 C163 2.066 . S
C182 C30 2.066 . S
C204 C48 2.066 1_545 S
C227 C70 2.066 1_554 S
C8 C249 2.066 1_545 S
C118 C269 2.066 . S
C291 C136 2.066 1_565 S
C158 C317 2.066 1_554 S
C339 C96 2.066 1_545 S
C4 C228 2.222 . S
C26 C250 2.222 . S
C180 C52 2.222 1_455 S
C74 C202 2.222 1_655 S
C92 C316 2.222 . S
C114 C338 2.222 . S
C268 C140 2.222 1_655 S
C162 C290 2.222 1_455 S
C5 C160 1.712 . S
C271 C27 1.712 . S
C53 C117 1.712 . S
C75 C314 1.712 . S
C94 C71 1.712 . S
C185 C116 1.712 . S
C139 C31 1.712 . S
C225 C161 1.712 . S
C181 C336 1.712 . S
C95 C203 1.712 1_565 S
C293 C229 1.712 . S
C251 C138 1.712 1_565 S
C270 C247 1.712 . S
C292 C9 1.712 1_565 S
C207 C315 1.712 . S
C49 C337 1.712 1_565 S
