# Generated by pormake.
# Topology une, (4)-cn, num edge types: 1
# Building blocks:
#     Node 0, Type 0, BuildingBlock: QUQFOY_clean_sbu_1, # of connection points: 4
#     Node 1, Type 0, BuildingBlock: QUQFOY_clean_sbu_1, # of connection points: 4
#     Node 2, Type 0, BuildingBlock: QUQFOY_clean_sbu_1, # of connection points: 4
#     Node 3, Type 0, BuildingBlock: QUQFOY_clean_sbu_1, # of connection points: 4
#     Node 4, Type 0, BuildingBlock: QUQFOY_clean_sbu_1, # of connection points: 4
#     Node 5, Type 0, BuildingBlock: QUQFOY_clean_sbu_1, # of connection points: 4
#     Node 6, Type 0, BuildingBlock: QUQFOY_clean_sbu_1, # of connection points: 4
#     Node 7, Type 0, BuildingBlock: QUQFOY_clean_sbu_1, # of connection points: 4
#     Node 8, Type 0, BuildingBlock: QUQFOY_clean_sbu_1, # of connection points: 4
#     Node 9, Type 0, BuildingBlock: QUQFOY_clean_sbu_1, # of connection points: 4
#     Node 10, Type 0, BuildingBlock: QUQFOY_clean_sbu_1, # of connection points: 4
#     Node 11, Type 0, BuildingBlock: QUQFOY_clean_sbu_1, # of connection points: 4
#     Node 12, Type 0, BuildingBlock: QUQFOY_clean_sbu_1, # of connection points: 4
#     Node 13, Type 0, BuildingBlock: QUQFOY_clean_sbu_1, # of connection points: 4
#     Node 14, Type 0, BuildingBlock: QUQFOY_clean_sbu_1, # of connection points: 4
#     Node 15, Type 0, BuildingBlock: QUQFOY_clean_sbu_1, # of connection points: 4
#     Node 16, Type 0, BuildingBlock: QUQFOY_clean_sbu_1, # of connection points: 4
#     Node 17, Type 0, BuildingBlock: QUQFOY_clean_sbu_1, # of connection points: 4
#     Edge 18, Type (0, 0), BuildingBlock: EZIPEK_clean_linker_0, # of connection points: 2
#     Edge 19, Type (0, 0), BuildingBlock: EZIPEK_clean_linker_0, # of connection points: 2
#     Edge 20, Type (0, 0), BuildingBlock: EZIPEK_clean_linker_0, # of connection points: 2
#     Edge 21, Type (0, 0), BuildingBlock: EZIPEK_clean_linker_0, # of connection points: 2
#     Edge 22, Type (0, 0), BuildingBlock: EZIPEK_clean_linker_0, # of connection points: 2
#     Edge 23, Type (0, 0), BuildingBlock: EZIPEK_clean_linker_0, # of connection points: 2
#     Edge 24, Type (0, 0), BuildingBlock: EZIPEK_clean_linker_0, # of connection points: 2
#     Edge 25, Type (0, 0), BuildingBlock: EZIPEK_clean_linker_0, # of connection points: 2
#     Edge 26, Type (0, 0), BuildingBlock: EZIPEK_clean_linker_0, # of connection points: 2
#     Edge 27, Type (0, 0), BuildingBlock: EZIPEK_clean_linker_0, # of connection points: 2
#     Edge 28, Type (0, 0), BuildingBlock: EZIPEK_clean_linker_0, # of connection points: 2
#     Edge 29, Type (0, 0), BuildingBlock: EZIPEK_clean_linker_0, # of connection points: 2
#     Edge 30, Type (0, 0), BuildingBlock: EZIPEK_clean_linker_0, # of connection points: 2
#     Edge 31, Type (0, 0), BuildingBlock: EZIPEK_clean_linker_0, # of connection points: 2
#     Edge 32, Type (0, 0), BuildingBlock: EZIPEK_clean_linker_0, # of connection points: 2
#     Edge 33, Type (0, 0), BuildingBlock: EZIPEK_clean_linker_0, # of connection points: 2
#     Edge 34, Type (0, 0), BuildingBlock: EZIPEK_clean_linker_0, # of connection points: 2
#     Edge 35, Type (0, 0), BuildingBlock: EZIPEK_clean_linker_0, # of connection points: 2
#     Edge 36, Type (0, 0), BuildingBlock: EZIPEK_clean_linker_0, # of connection points: 2
#     Edge 37, Type (0, 0), BuildingBlock: EZIPEK_clean_linker_0, # of connection points: 2
#     Edge 38, Type (0, 0), BuildingBlock: EZIPEK_clean_linker_0, # of connection points: 2
#     Edge 39, Type (0, 0), BuildingBlock: EZIPEK_clean_linker_0, # of connection points: 2
#     Edge 40, Type (0, 0), BuildingBlock: EZIPEK_clean_linker_0, # of connection points: 2
#     Edge 41, Type (0, 0), BuildingBlock: EZIPEK_clean_linker_0, # of connection points: 2
#     Edge 42, Type (0, 0), BuildingBlock: EZIPEK_clean_linker_0, # of connection points: 2
#     Edge 43, Type (0, 0), BuildingBlock: EZIPEK_clean_linker_0, # of connection points: 2
#     Edge 44, Type (0, 0), BuildingBlock: EZIPEK_clean_linker_0, # of connection points: 2
#     Edge 45, Type (0, 0), BuildingBlock: EZIPEK_clean_linker_0, # of connection points: 2
#     Edge 46, Type (0, 0), BuildingBlock: EZIPEK_clean_linker_0, # of connection points: 2
#     Edge 47, Type (0, 0), BuildingBlock: EZIPEK_clean_linker_0, # of connection points: 2
#     Edge 48, Type (0, 0), BuildingBlock: EZIPEK_clean_linker_0, # of connection points: 2
#     Edge 49, Type (0, 0), BuildingBlock: EZIPEK_clean_linker_0, # of connection points: 2
#     Edge 50, Type (0, 0), BuildingBlock: EZIPEK_clean_linker_0, # of connection points: 2
#     Edge 51, Type (0, 0), BuildingBlock: EZIPEK_clean_linker_0, # of connection points: 2
#     Edge 52, Type (0, 0), BuildingBlock: EZIPEK_clean_linker_0, # of connection points: 2
#     Edge 53, Type (0, 0), BuildingBlock: EZIPEK_clean_linker_0, # of connection points: 2
# Relax obj value: 0.110
# Max RMSD: 0.146
# Mean RMSD: 0.138
data_MOF--net-une--node1-QUQFOY_clean_sbu_1--edge1-EZIPEK_clean_linker_0
_symmetry_space_group_name_H-M    P1
_symmetry_Int_Tables_number       1
_symmetry_cell_setting            triclinic
loop_
_symmetry_equiv_pos_as_xyz
'x, y, z'
_cell_length_a     30.330671
_cell_length_b     30.132569
_cell_length_c     45.296853
_cell_angle_alpha  90.000305
_cell_angle_beta   89.951544
_cell_angle_gamma 119.82674
loop_
_atom_site_label
_atom_site_type_symbol
_atom_site_fract_x
_atom_site_fract_y
_atom_site_fract_z
_atom_type_partial_charge
O0 O 0.28754 0.1202 0.05701 0.0
Cd1 Cd 0.26691 0.07063 0.0924 0.0
Cd2 Cd 0.32613 0.03844 0.05936 0.0
O3 O 0.33997 0.10057 0.03399 0.0
O4 O 0.24484 0.101 0.12442 0.0
O5 O 0.30995 0.08738 0.12897 0.0
C6 C 0.2816 0.10394 0.14016 0.0
C7 C 0.38921 0.0157 0.05547 0.0
C8 C 0.31796 0.12683 0.03595 0.0
C9 C 0.21131 0.96746 0.06656 0.0
O10 O 0.25401 0.97752 0.05597 0.0
O11 O 0.20707 -0.00133 0.08353 0.0
O12 O 0.36056 0.01152 0.03363 0.0
O13 O 0.38251 0.03293 0.08012 0.0
O14 O 0.86016 0.20896 0.02832 0.0
Cd15 Cd 0.91062 0.24831 0.06186 0.0
Cd16 Cd 0.92964 0.32786 0.01765 0.0
O17 O 0.86394 0.27052 0.99976 0.0
O18 O 0.88933 0.19464 0.0932 0.0
O19 O 0.88501 0.26531 0.09892 0.0
C20 C 0.87662 0.22179 0.10921 0.0
C21 C 0.95029 0.41241 0.00986 0.0
C22 C 0.84444 0.2236 1.00644 0.0
C23 C 0.01077 0.29945 0.03168 0.0
O24 O -0.00757 0.31985 0.01489 0.0
O25 O -0.01352 0.27326 0.05408 0.0
O26 O 0.94904 0.38386 0.98845 0.0
O27 O 0.93739 0.39251 0.03587 0.0
O28 O 0.79218 0.68166 0.01688 0.0
Cd29 Cd 0.76183 0.68332 0.05736 0.0
Cd30 Cd 0.67236 0.64561 0.01491 0.0
O31 O 0.72633 0.64955 0.98629 0.0
O32 O 0.8206 0.70393 0.08457 0.0
O33 O 0.74877 0.63015 0.08842 0.0
C34 C 0.79398 0.66104 0.09803 0.0
C35 C 0.58922 0.58539 1.00324 0.0
C36 C 0.77307 0.66659 0.99139 0.0
C37 C 0.70789 0.74351 0.05132 0.0
O38 O 0.67978 0.71184 0.03183 0.0
O39 O 0.74148 0.73816 0.06496 0.0
O40 O 0.61425 0.62598 0.98761 0.0
O41 O 0.61137 0.57821 0.02556 0.0
O42 O 0.66638 0.89281 0.99631 0.0
Cd43 Cd 0.65047 0.92304 0.95971 0.0
Cd44 Cd 0.61197 0.95653 0.01253 0.0
O45 O 0.63297 0.91092 0.03485 0.0
O46 O 0.68019 0.90018 0.92777 0.0
O47 O 0.59813 0.87414 0.93066 0.0
C48 C 0.63506 0.87253 0.91748 0.0
C49 C 0.54184 0.96158 0.02807 0.0
C50 C 0.65615 0.88965 0.02371 0.0
C51 C 0.69196 0.03574 0.97098 0.0
O52 O 0.66725 0.02408 0.99506 0.0
O53 O 0.68813 0.00124 0.9534 0.0
O54 O 0.58294 0.98144 0.04341 0.0
O55 O 0.53933 0.93629 1.0045 0.0
O56 O 0.0689 0.8163 0.96424 0.0
Cd57 Cd 0.05406 0.777 0.9248 0.0
Cd58 Cd 0.03685 0.70416 0.96699 0.0
O59 O 0.09281 0.76821 0.98778 0.0
O60 O 0.0833 0.83082 0.8936 0.0
O61 O 0.11016 0.77562 0.90173 0.0
C62 C 0.11364 0.81395 0.88698 0.0
C63 C 0.02385 0.62396 0.9803 0.0
C64 C 0.09125 0.80942 0.98595 0.0
C65 C 0.94996 0.70848 0.93612 0.0
O66 O 0.96788 0.6998 0.95931 0.0
O67 O 0.97878 0.73261 0.91467 0.0
O68 O 0.01469 0.65113 0.99846 0.0
O69 O 0.04365 0.64345 0.955 0.0
O70 O 0.18865 0.30091 0.95652 0.0
Cd71 Cd 0.24075 0.30284 0.92609 0.0
Cd72 Cd 0.30304 0.36528 0.97108 0.0
O73 O 0.23937 0.36404 0.98624 0.0
O74 O 0.19862 0.27092 0.89 0.0
O75 O 0.2596 0.352 0.89191 0.0
C76 C 0.22314 0.31502 0.87743 0.0
C77 C 0.38226 0.43748 0.97555 0.0
C78 C 0.19516 0.33031 0.97826 0.0
C79 C 0.29677 0.26397 0.96097 0.0
O80 O 0.30582 0.30026 0.97848 0.0
O81 O 0.27675 0.2612 0.93588 0.0
O82 O 0.35715 0.41226 0.99841 0.0
O83 O 0.36108 0.42385 0.94992 0.0
O84 O 0.95892 0.44327 0.38438 0.0
Cd85 Cd 0.93789 0.39715 0.42047 0.0
Cd86 Cd 0.00864 0.36643 0.39417 0.0
O87 O 0.00373 0.41308 0.36213 0.0
O88 O 0.90449 0.42372 0.44777 0.0
O89 O 0.97565 0.42333 0.4587 0.0
C90 C 0.94167 0.43546 0.46573 0.0
C91 C 0.07501 0.34942 0.38594 0.0
C92 C 0.98343 0.44116 0.36224 0.0
C93 C 0.89914 0.28858 0.40376 0.0
O94 O 0.94497 0.29894 0.40569 0.0
O95 O 0.88712 0.32267 0.40872 0.0
O96 O 0.03728 0.33358 0.36824 0.0
O97 O 0.07682 0.37702 0.40817 0.0
O98 O 0.57471 0.53765 0.37694 0.0
Cd99 Cd 0.62348 0.59556 0.40428 0.0
Cd100 Cd 0.61431 0.64639 0.35663 0.0
O101 O 0.54646 0.57961 0.35042 0.0
O102 O 0.61252 0.55592 0.44158 0.0
O103 O 0.59395 0.61785 0.43724 0.0
C104 C 0.59192 0.58071 0.45257 0.0
C105 C 0.62321 0.72661 0.34864 0.0
C106 C 0.54293 0.53775 0.35881 0.0
C107 C 0.71035 0.64081 0.36543 0.0
O108 O 0.67958 0.64403 0.34776 0.0
O109 O 0.69886 0.62964 0.39247 0.0
O110 O 0.61712 0.69646 0.32694 0.0
O111 O 0.62117 0.71007 0.37522 0.0
O112 O 0.45408 0.00332 0.36254 0.0
Cd113 Cd 0.41854 -0.00722 0.40275 0.0
Cd114 Cd 0.3303 0.94264 0.3589 0.0
O115 O 0.39059 0.97406 0.33037 0.0
O116 O 0.4767 0.02267 0.43117 0.0
O117 O 0.41689 0.94122 0.43205 0.0
C118 C 0.45822 0.9781 0.443 0.0
C119 C 0.25781 0.87397 0.33813 0.0
C120 C 0.43758 -0.00501 0.33618 0.0
C121 C 0.33815 0.02439 0.40238 0.0
O122 O 0.31382 0.9894 0.38357 0.0
O123 O 0.38144 0.03325 0.41135 0.0
O124 O 0.27263 0.92055 0.33104 0.0
O125 O 0.28479 0.86597 0.3571 0.0
O126 O 0.32501 0.18224 0.33872 0.0
Cd127 Cd 0.33313 0.23033 0.30413 0.0
Cd128 Cd 0.27499 0.25458 0.34791 0.0
O129 O 0.2747 0.1942 0.36937 0.0
O130 O 0.35827 0.20637 0.27025 0.0
O131 O 0.28431 0.20445 0.26984 0.0
C132 C 0.31671 0.19521 0.25667 0.0
C133 C 0.21111 0.27347 0.35882 0.0
C134 C 0.29946 0.17193 0.36251 0.0
C135 C 0.38191 0.33623 0.32795 0.0
O136 O 0.34261 0.32095 0.34387 0.0
O137 O 0.38597 0.30671 0.30951 0.0
O138 O 0.24377 0.27805 0.37835 0.0
O139 O 0.21249 0.25516 0.3333 0.0
O140 O 0.76383 0.13832 0.30172 0.0
Cd141 Cd 0.72602 0.10236 0.26347 0.0
Cd142 Cd 0.69128 0.01621 0.30854 0.0
O143 O 0.74558 0.07502 0.33324 0.0
O144 O 0.75315 0.15935 0.23392 0.0
O145 O 0.76323 0.09185 0.22949 0.0
C146 C 0.77083 0.13508 0.21925 0.0
C147 C 0.67531 0.93377 0.31941 0.0
C148 C 0.76818 0.12232 0.32696 0.0
C149 C 0.61638 0.04416 0.28002 0.0
O150 O 0.62741 0.01982 0.29869 0.0
O151 O 0.64922 0.07619 0.26232 0.0
O152 O 0.66297 0.9586 0.33751 0.0
O153 O 0.69781 0.95581 0.29512 0.0
O154 O 0.85905 0.6085 0.28138 0.0
Cd155 Cd 0.90095 0.6024 0.24729 0.0
Cd156 Cd 0.97493 0.66947 0.28433 0.0
O157 O 0.91862 0.68401 0.29707 0.0
O158 O 0.85264 0.57374 0.21364 0.0
O159 O 0.91933 0.6524 0.21411 0.0
C160 C 0.8786 0.61788 0.2012 0.0
C161 C 0.05923 0.73094 0.29378 0.0
C162 C 0.87275 0.64821 0.29705 0.0
C163 C 0.95436 0.56173 0.27966 0.0
O164 O 0.96616 0.60016 0.29596 0.0
O165 O 0.93384 0.55773 0.25466 0.0
O166 O 0.0439 0.71824 0.26695 0.0
O167 O 0.02598 0.7115 0.31444 0.0
O168 O 0.60373 0.7443 0.73398 0.0
Cd169 Cd 0.60182 0.70391 0.77108 0.0
Cd170 Cd 0.67154 0.69399 0.73263 0.0
O171 O 0.67715 0.75946 0.71523 0.0
O172 O 0.56909 0.72638 0.80133 0.0
O173 O 0.64789 0.74052 0.80534 0.0
C174 C 0.61138 0.74646 0.81561 0.0
C175 C 0.7369 0.67667 0.72236 0.0
C176 C 0.63973 0.76728 0.71557 0.0
C177 C 0.56374 0.60514 0.74446 0.0
O178 O 0.60301 0.62827 0.7284 0.0
O179 O 0.55802 0.62606 0.76733 0.0
O180 O 0.70818 0.67757 0.70187 0.0
O181 O 0.7307 0.68836 0.74885 0.0
O182 O 0.24475 0.86432 0.71187 0.0
Cd183 Cd 0.29132 0.91535 0.74292 0.0
Cd184 Cd 0.2775 0.97683 0.70806 0.0
O185 O 0.20939 0.91039 0.70049 0.0
O186 O 0.27458 0.87537 0.7802 0.0
O187 O 0.25851 0.9389 0.77255 0.0
C188 C 0.25329 0.90116 0.78875 0.0
C189 C 0.28559 0.05665 0.70241 0.0
C190 C 0.20885 0.86798 0.70003 0.0
C191 C 0.37629 0.97353 0.70634 0.0
O192 O 0.34375 0.98141 0.69335 0.0
O193 O 0.36657 0.95233 0.73158 0.0
O194 O 0.27504 0.02622 0.68034 0.0
O195 O 0.28673 0.04006 0.72854 0.0
O196 O 0.15228 0.3396 0.68011 0.0
Cd197 Cd 0.11773 0.34552 0.71782 0.0
Cd198 Cd 0.025 0.27097 0.67901 0.0
O199 O 0.08641 0.28511 0.65293 0.0
O200 O 0.17262 0.3781 0.74826 0.0
O201 O 0.10625 0.30017 0.75306 0.0
C202 C 0.14828 0.33677 0.76358 0.0
C203 C 0.94599 0.20868 0.66077 0.0
C204 C 0.13391 0.31399 0.65655 0.0
C205 C 0.04012 0.37444 0.70306 0.0
O206 O 0.01505 0.33034 0.69173 0.0
O207 O 0.08372 0.38991 0.71428 0.0
O208 O 0.97428 0.24996 0.64648 0.0
O209 O 0.96368 0.20031 0.6847 0.0
O210 O -0.00428 0.53748 0.64942 0.0
Cd211 Cd -0.00973 0.58661 0.62046 0.0
Cd212 Cd 0.9392 0.59131 0.67302 0.0
O213 O 0.94061 0.52597 0.68472 0.0
O214 O 0.0159 0.56989 0.58379 0.0
O215 O 0.93767 0.55671 0.58793 0.0
C216 C 0.97105 0.5516 0.57285 0.0
C217 C 0.87334 0.60504 0.68688 0.0
C218 C 0.97201 0.51516 0.67282 0.0
C219 C 0.04116 0.68223 0.65405 0.0
O220 O 0.00732 0.65797 0.67344 0.0
O221 O 0.03927 0.66295 0.6288 0.0
O222 O 0.90346 0.60334 0.70624 0.0
O223 O 0.87835 0.59566 0.65963 0.0
O224 O 0.4491 0.47003 0.6399 0.0
Cd225 Cd 0.42193 0.44155 0.59833 0.0
Cd226 Cd 0.38266 0.34072 0.63947 0.0
O227 O 0.42585 0.40039 0.66716 0.0
O228 O 0.4501 0.50336 0.57214 0.0
O229 O 0.46939 0.442 0.56677 0.0
C230 C 0.47444 0.4851 0.55806 0.0
C231 C 0.35847 0.26121 0.66069 0.0
C232 C 0.44806 0.44858 0.66429 0.0
C233 C 0.3103 0.36308 0.60124 0.0
O234 O 0.32164 0.33695 0.61832 0.0
O235 O 0.34441 0.4062 0.59157 0.0
O236 O 0.34181 0.28995 0.67058 0.0
O237 O 0.39045 0.27786 0.6391 0.0
O238 O 0.53552 0.95721 0.62578 0.0
Cd239 Cd 0.57592 0.94279 0.59486 0.0
Cd240 Cd 0.65056 0.01778 0.62824 0.0
O241 O 0.5944 0.03441 0.63942 0.0
O242 O 0.5258 0.91065 0.5622 0.0
O243 O 0.59732 0.98488 0.55774 0.0
C244 C 0.55405 0.9511 0.54685 0.0
C245 C 0.73561 0.08051 0.63045 0.0
C246 C 0.54859 -0.00171 0.63986 0.0
C247 C 0.62386 0.90605 0.63437 0.0
O248 O 0.64217 0.95085 0.64483 0.0
O249 O 0.59983 0.89412 0.61005 0.0
O250 O 0.70762 0.06601 0.65367 0.0
O251 O 0.7148 0.06206 0.60522 0.0
C252 C 0.42983 0.96207 0.06576 0.0
C253 C 0.43059 0.00401 0.05104 0.0
C254 C 0.50056 0.01404 0.01954 0.0
C255 C 0.5018 0.974 0.0353 0.0
N256 N 0.47346 0.91453 0.07595 0.0
N257 N 0.47307 0.07696 0.01876 0.0
C258 C 0.46829 0.94952 0.05931 0.0
C259 C 0.4678 0.03199 0.02927 0.0
N260 N 0.39109 0.93284 0.0848 0.0
N261 N 0.53044 0.03468 0.9951 0.0
H262 H 0.45051 0.09202 0.02597 0.0
H263 H 0.50285 0.10195 1.00518 0.0
H264 H 0.55628 0.02385 0.98773 0.0
H265 H 0.52696 0.05975 0.98074 0.0
H266 H 0.38514 0.89842 0.09368 0.0
H267 H 0.36259 0.94119 0.09025 0.0
H268 H 0.45408 0.89954 0.09569 0.0
H269 H 0.49965 0.90275 0.07094 0.0
C270 C 0.93985 0.47987 0.98429 0.0
C271 C 0.96762 0.46697 1.00428 0.0
C272 C 0.03187 0.55764 0.00948 0.0
C273 C 0.00653 0.5699 0.98741 0.0
N274 N 0.93917 0.54308 0.95152 0.0
N275 N 0.04342 0.49183 0.03297 0.0
C276 C 0.96141 0.53106 0.97405 0.0
C277 C 0.01441 0.5054 0.0163 0.0
N278 N 0.89189 0.44344 0.97607 0.0
N279 N 0.07246 0.59595 0.02402 0.0
H280 H 0.03194 0.45408 0.03862 0.0
H281 H 0.08051 0.51745 0.03943 0.0
H282 H 0.0881 0.63448 0.01845 0.0
H283 H 0.08873 0.58992 0.04272 0.0
H284 H 0.86736 0.45131 0.96404 0.0
H285 H 0.87461 0.40574 0.9836 0.0
H286 H 0.90973 0.51588 0.93862 0.0
H287 H 0.95235 0.58039 0.94422 0.0
C288 C 0.44621 0.52389 0.99425 0.0
C289 C 0.43551 0.47846 0.97907 0.0
C290 C 0.52541 0.5022 0.98094 0.0
C291 C 0.53627 0.54822 0.99544 0.0
N292 N 0.50976 0.60703 0.01278 0.0
N293 N 0.46448 0.42703 0.95391 0.0
C294 C 0.49745 0.5604 1.00108 0.0
C295 C 0.47508 0.46854 0.97106 0.0
N296 N 0.40709 0.53144 1.00265 0.0
N297 N 0.56313 0.49032 0.97715 0.0
H298 H 0.42794 0.40069 0.94688 0.0
H299 H 0.49207 0.42033 0.94471 0.0
H300 H 0.6009 0.51501 0.98297 0.0
H301 H 0.55687 0.45486 0.96995 0.0
H302 H 0.41121 0.56035 0.01689 0.0
H303 H 0.3695 0.50714 0.9963 0.0
H304 H 0.48448 0.62082 0.01434 0.0
H305 H 0.54642 0.63361 0.01963 0.0
C306 C 0.11221 0.29407 0.39819 0.0
C307 C 0.11356 0.33398 0.38088 0.0
C308 C 0.18054 0.33567 0.34978 0.0
C309 C 0.17569 0.29251 0.36531 0.0
N310 N 0.13289 0.2261 0.40159 0.0
N311 N 0.14468 0.38988 0.33859 0.0
C312 C 0.14063 0.27064 0.38893 0.0
C313 C 0.14643 0.35387 0.35616 0.0
N314 N 0.08357 0.27845 0.42339 0.0
N315 N 0.21933 0.36086 0.33001 0.0
H316 H 0.12279 0.40677 0.34368 0.0
H317 H 0.1627 0.40101 0.31816 0.0
H318 H 0.24546 0.34913 0.3248 0.0
H319 H 0.22837 0.39586 0.32053 0.0
H320 H 0.08521 0.25352 0.43867 0.0
H321 H 0.06074 0.29333 0.4303 0.0
H322 H 0.10419 0.20513 0.41679 0.0
H323 H 0.15245 0.20744 0.39498 0.0
C324 C 0.68253 0.82147 0.35229 0.0
C325 C 0.63536 0.77991 0.34272 0.0
C326 C 0.61748 0.83928 0.31509 0.0
C327 C 0.66276 0.88089 0.32645 0.0
N328 N 0.73477 0.91311 0.35919 0.0
N329 N 0.55391 0.74946 0.31942 0.0
C330 C 0.69411 0.87242 0.34614 0.0
C331 C 0.60173 0.78886 0.32524 0.0
N332 N 0.71754 0.81233 0.36581 0.0
N333 N 0.58974 0.84796 0.29445 0.0
H334 H 0.54071 0.71232 0.32711 0.0
H335 H 0.52571 0.75427 0.30937 0.0
H336 H 0.59923 0.88453 0.28722 0.0
H337 H 0.5595 0.81892 0.28289 0.0
H338 H 0.75479 0.84074 0.37004 0.0
H339 H 0.71099 0.77576 0.37068 0.0
H340 H 0.75535 0.90935 0.37644 0.0
H341 H 0.74591 0.95105 0.35417 0.0
C342 C 0.1467 0.80844 0.28588 0.0
C343 C 0.11359 0.76336 0.30171 0.0
C344 C 0.17615 0.78838 0.34131 0.0
C345 C 0.21074 0.832 0.32473 0.0
N346 N 0.23455 0.87048 0.2762 0.0
N347 N 0.10741 0.70132 0.33783 0.0
C348 C 0.19788 0.83789 0.29534 0.0
C349 C 0.13179 0.75027 0.32724 0.0
N350 N 0.12939 0.82508 0.263 0.0
N351 N 0.1829 0.78426 0.37079 0.0
H352 H 0.07673 0.67138 0.32692 0.0
H353 H 0.12183 0.68954 0.35515 0.0
H354 H 0.21207 0.81277 0.38318 0.0
H355 H 0.15562 0.75466 0.38371 0.0
H356 H 0.15169 0.86048 0.25288 0.0
H357 H 0.09168 0.80642 0.25609 0.0
H358 H 0.22727 0.87304 0.25396 0.0
H359 H 0.27309 0.88972 0.28159 0.0
C360 C 0.79428 0.5907 0.71265 0.0
C361 C 0.83784 0.62289 0.69557 0.0
C362 C 0.81623 0.69122 0.69699 0.0
C363 C 0.77402 0.66002 0.71531 0.0
N364 N 0.72456 0.58225 0.74311 0.0
N365 N 0.89552 0.70606 0.67525 0.0
C366 C 0.76373 0.61046 0.72405 0.0
C367 C 0.8502 0.67375 0.68866 0.0
N368 N 0.78121 0.54068 0.71692 0.0
N369 N 0.82348 0.73739 0.6873 0.0
H370 H 0.92126 0.69467 0.66845 0.0
H371 H 0.9096 0.74516 0.67273 0.0
H372 H 0.80163 0.75318 0.6946 0.0
H373 H 0.84937 0.75895 0.67088 0.0
H374 H 0.74727 0.51341 0.72652 0.0
H375 H 0.80288 0.52519 0.70883 0.0
H376 H 0.71821 0.54831 0.75286 0.0
H377 H 0.69972 0.5942 0.75075 0.0
C378 C 0.37313 0.19826 0.68878 0.0
C379 C 0.33947 0.20975 0.67331 0.0
C380 C 0.26816 0.12455 0.68469 0.0
C381 C 0.30286 0.111 0.69671 0.0
N382 N 0.38931 0.13248 0.70748 0.0
N383 N 0.25592 0.18302 0.65364 0.0
C384 C 0.35559 0.1473 0.69834 0.0
C385 C 0.28706 0.17284 0.67069 0.0
N386 N 0.42142 0.23632 0.69501 0.0
N387 N 0.21711 0.0913 0.68701 0.0
H388 H 0.26842 0.21766 0.64264 0.0
H389 H 0.21872 0.15581 0.64833 0.0
H390 H 0.20241 0.05574 0.69732 0.0
H391 H 0.18949 0.10065 0.68127 0.0
H392 H 0.44589 0.23144 0.70903 0.0
H393 H 0.43566 0.27412 0.68824 0.0
H394 H 0.42856 0.15552 0.70555 0.0
H395 H 0.37827 0.09579 0.71515 0.0
C396 C 0.82303 0.0927 0.63535 0.0
C397 C 0.79087 0.11438 0.63364 0.0
C398 C 0.85959 0.19642 0.65122 0.0
C399 C 0.89265 0.17562 0.65157 0.0
N400 N 0.90913 0.10743 0.63928 0.0
N401 N 0.78003 0.18815 0.63415 0.0
C402 C 0.87533 0.12468 0.64228 0.0
C403 C 0.80975 0.16676 0.6397 0.0
N404 N 0.80311 0.04122 0.63147 0.0
N405 N 0.87488 0.24347 0.66335 0.0
H406 H 0.74321 0.16711 0.62576 0.0
H407 H 0.79327 0.2273 0.63521 0.0
H408 H 0.91059 0.26606 0.67281 0.0
H409 H 0.85072 0.25831 0.66655 0.0
H410 H 0.823 0.02209 0.63598 0.0
H411 H 0.76539 0.01684 0.62539 0.0
H412 H 0.89999 0.07254 0.62962 0.0
H413 H 0.94762 0.12981 0.64439 0.0
C414 C 0.2557 0.10049 0.19322 0.0
C415 C 0.29114 0.1266 0.17019 0.0
C416 C 0.34007 0.19974 0.20314 0.0
C417 C 0.30679 0.1721 0.22673 0.0
N418 N 0.23778 0.09332 0.24577 0.0
N419 N 0.37007 0.19844 0.15364 0.0
C420 C 0.26568 0.12178 0.22217 0.0
C421 C 0.3344 0.17535 0.17535 0.0
N422 N 0.21242 0.05527 0.1874 0.0
N423 N 0.37556 0.25021 0.20691 0.0
H424 H 0.36595 0.18344 0.13243 0.0
H425 H 0.40536 0.23082 0.15711 0.0
H426 H 0.38026 0.26964 0.22676 0.0
H427 H 0.39736 0.27419 0.18982 0.0
H428 H 0.1821 0.03762 0.20209 0.0
H429 H 0.20535 0.03659 0.16711 0.0
H430 H 0.21112 0.05452 0.24454 0.0
H431 H 0.24407 0.10732 0.26732 0.0
C432 C 0.79804 0.18636 0.14057 0.0
C433 C 0.85039 0.20163 0.13788 0.0
C434 C 0.85106 0.17455 0.18903 0.0
C435 C 0.79807 0.15628 0.19099 0.0
N436 N 0.7192 0.13734 0.16774 0.0
N437 N 0.92608 0.20611 0.15802 0.0
C438 C 0.77107 0.16044 0.16656 0.0
C439 C 0.87665 0.1943 0.16166 0.0
N440 N 0.77395 0.19637 0.1182 0.0
N441 N 0.87731 0.17515 0.21371 0.0
H442 H 0.94721 0.22399 0.13914 0.0
H443 H 0.94549 0.19585 0.17299 0.0
H444 H 0.85985 0.16078 0.23405 0.0
H445 H 0.91677 0.19316 0.21476 0.0
H446 H 0.7379 0.19219 0.12021 0.0
H447 H 0.79104 0.21191 0.09796 0.0
H448 H 0.69649 0.13384 0.14969 0.0
H449 H 0.69809 0.11758 0.18627 0.0
C450 C 0.84095 0.66554 0.17644 0.0
C451 C 0.85871 0.63003 0.1744 0.0
C452 C 0.82887 0.61068 0.12313 0.0
C453 C 0.81464 0.64897 0.12453 0.0
N454 N 0.81163 0.71687 0.1511 0.0
N455 N 0.87581 0.57332 0.14541 0.0
C456 C 0.82228 0.67776 0.15074 0.0
C457 C 0.85414 0.6036 0.14765 0.0
N458 N 0.83922 0.68542 0.20332 0.0
N459 N 0.81818 0.58112 0.09836 0.0
H460 H 0.89484 0.56766 0.16291 0.0
H461 H 0.87859 0.55699 0.12576 0.0
H462 H 0.80212 0.58691 0.07944 0.0
H463 H 0.82224 0.54886 0.09706 0.0
H464 H 0.82118 0.70665 0.20692 0.0
H465 H 0.85207 0.67727 0.22281 0.0
H466 H 0.82272 0.7436 0.16808 0.0
H467 H 0.79415 0.72463 0.13362 0.0
C468 C 0.65055 0.86322 0.86416 0.0
C469 C 0.62665 0.83989 0.89121 0.0
C470 C 0.59104 0.75495 0.86841 0.0
C471 C 0.61838 0.77819 0.84212 0.0
N472 N 0.67885 0.85385 0.81568 0.0
N473 N 0.58053 0.7638 0.92081 0.0
C474 C 0.64974 0.83217 0.84027 0.0
C475 C 0.59829 0.78578 0.89379 0.0
N476 N 0.67205 0.91505 0.8609 0.0
N477 N 0.55809 0.70338 0.86911 0.0
H478 H 0.58512 0.78498 0.93992 0.0
H479 H 0.56473 0.72481 0.92488 0.0
H480 H 0.55424 0.67907 0.85169 0.0
H481 H 0.53243 0.685 0.88623 0.0
H482 H 0.68523 0.934 0.84084 0.0
H483 H 0.67257 0.93893 0.87773 0.0
H484 H 0.70691 0.89217 0.8144 0.0
H485 H 0.67766 0.83292 0.79709 0.0
C486 C 0.20318 0.86311 0.8675 0.0
C487 C 0.15003 0.83707 0.86217 0.0
C488 C 0.1653 0.86134 0.80988 0.0
C489 C 0.2185 0.88331 0.81459 0.0
N490 N 0.28846 0.90184 0.84709 0.0
N491 N 0.08021 0.8036 0.82778 0.0
C492 C 0.23753 0.88309 0.8432 0.0
C493 C 0.13099 0.83439 0.83325 0.0
N494 N 0.22076 0.8706 0.89589 0.0
N495 N 0.14723 0.8658 0.78303 0.0
H496 H 0.05385 0.7825 0.84417 0.0
H497 H 0.06467 0.79501 0.80666 0.0
H498 H 0.17011 0.88219 0.76456 0.0
H499 H 0.10967 0.85642 0.77947 0.0
H500 H 0.25876 0.89392 0.90156 0.0
H501 H 0.19674 0.85664 0.91419 0.0
H502 H 0.30416 0.89717 0.86646 0.0
H503 H 0.31507 0.92003 0.83031 0.0
C504 C 0.18544 0.35533 0.84504 0.0
C505 C 0.20714 0.32322 0.84787 0.0
C506 C 0.18736 0.29753 0.79587 0.0
C507 C 0.1683 0.33185 0.79261 0.0
N508 N 0.15473 0.39827 0.81273 0.0
N509 N 0.23625 0.26998 0.82543 0.0
C510 C 0.16935 0.36245 0.81676 0.0
C511 C 0.21001 0.29587 0.82312 0.0
N512 N 0.17741 0.37665 0.86968 0.0
N513 N 0.18373 0.26644 0.77289 0.0
H514 H 0.25374 0.26852 0.84495 0.0
H515 H 0.24449 0.25356 0.8076 0.0
H516 H 0.17035 0.26868 0.75205 0.0
H517 H 0.19116 0.23637 0.7748 0.0
H518 H 0.15631 0.39531 0.86968 0.0
H519 H 0.18828 0.37228 0.89082 0.0
H520 H 0.16082 0.42623 0.82825 0.0
H521 H 0.13914 0.40222 0.79307 0.0
C522 C 0.97528 0.51954 0.49175 0.0
C523 C 0.94686 0.46529 0.49283 0.0
C524 C 0.92572 0.46868 0.54482 0.0
C525 C 0.95826 0.52272 0.54457 0.0
N526 N 0.01586 0.59996 0.5186 0.0
N527 N 0.89825 0.38731 0.52022 0.0
C528 C 0.98348 0.54825 0.5182 0.0
C529 C 0.92266 0.4396 0.51929 0.0
N530 N -0.00656 0.54359 0.46524 0.0
N531 N 0.89777 0.44512 0.56948 0.0
H532 H 0.89434 0.36493 0.50176 0.0
H533 H 0.88481 0.36598 0.53952 0.0
H534 H 0.90014 0.46453 0.58895 0.0
H535 H 0.86941 0.40688 0.57018 0.0
H536 H 0.0096 0.58286 0.46218 0.0
H537 H -0.01071 0.52386 0.44558 0.0
H538 H 0.04046 0.6202 0.50139 0.0
H539 H 0.01984 0.62272 0.53689 0.0
C540 C 0.58801 0.55888 0.50658 0.0
C541 C 0.56336 0.56341 0.48098 0.0
C542 C 0.48057 0.51523 0.50589 0.0
C543 C 0.50534 0.51209 0.53168 0.0
N544 N 0.58254 0.53767 0.55877 0.0
N545 N 0.48694 0.55431 0.45829 0.0
C546 C 0.5591 0.53576 0.53264 0.0
C547 C 0.50997 0.54458 0.48135 0.0
N548 N 0.63918 0.57664 0.5059 0.0
N549 N 0.42865 0.48765 0.5042 0.0
H550 H 0.5056 0.57304 0.43905 0.0
H551 H 0.4497 0.54727 0.45906 0.0
H552 H 0.40564 0.4655 0.52159 0.0
H553 H 0.40837 0.48284 0.48481 0.0
H554 H 0.65855 0.56872 0.52213 0.0
H555 H 0.66233 0.59811 0.48839 0.0
H556 H 0.62165 0.55889 0.56196 0.0
H557 H 0.56251 0.52086 0.57814 0.0
C558 C 0.5236 0.92781 0.49439 0.0
C559 C 0.53404 0.96063 0.51907 0.0
C560 C 0.49015 0.00068 0.49488 0.0
C561 C 0.4831 0.97067 0.46931 0.0
N562 N 0.50035 0.91173 0.4426 0.0
N563 N 0.53454 0.03409 0.54101 0.0
C564 C 0.50163 0.93568 0.46849 0.0
C565 C 0.51991 -0.00091 0.51864 0.0
N566 N 0.53458 0.88901 0.49574 0.0
N567 N 0.46582 0.0285 0.49722 0.0
H568 H 0.55415 0.03327 0.55966 0.0
H569 H 0.53072 0.06655 0.54005 0.0
H570 H 0.44234 0.02951 0.48075 0.0
H571 H 0.4646 0.04643 0.51661 0.0
H572 H 0.52229 0.85994 0.48009 0.0
H573 H 0.55386 0.88431 0.51344 0.0
H574 H 0.51811 0.89007 0.43965 0.0
H575 H 0.48504 0.91689 0.42316 0.0
C576 C 0.15472 0.93909 0.02385 0.0
C577 C 0.16641 0.9266 0.05164 0.0
C578 C 0.11509 0.83611 0.0393 0.0
C579 C 0.11517 0.84957 0.00906 0.0
N580 N 0.14725 0.91766 0.97242 0.0
N581 N 0.15895 0.86298 0.08634 0.0
C582 C 0.13757 0.9021 1.00121 0.0
C583 C 0.14675 0.8749 0.05965 0.0
N584 N 0.16217 0.98692 0.0187 0.0
N585 N 0.08355 0.78732 0.04888 0.0
H586 H 0.18008 0.89094 0.10205 0.0
H587 H 0.15014 0.82595 0.09206 0.0
H588 H 0.05647 0.75884 0.03536 0.0
H589 H 0.07994 0.77695 0.07108 0.0
H590 H 0.14997 -0.00374 0.99935 0.0
H591 H 0.17526 0.01506 0.03503 0.0
H592 H 0.16706 0.95616 0.96639 0.0
H593 H 0.1423 0.89318 0.95493 0.0
C594 C 0.10111 0.35754 0.01847 0.0
C595 C 0.06135 0.307 0.02402 0.0
C596 C 0.11533 0.2737 1.0062 0.0
C597 C 0.15064 0.32315 0.99543 0.0
N598 N 0.17376 0.41163 0.98804 0.0
N599 N 0.02804 0.21574 0.01978 0.0
C600 C 0.14303 0.3652 1.00094 0.0
C601 C 0.06782 0.2646 0.01732 0.0
N602 N 0.09876 0.39815 0.03013 0.0
N603 N 0.12762 0.23577 1.00657 0.0
H604 H -0.00775 0.20697 0.02751 0.0
H605 H 0.02943 0.18402 0.01181 0.0
H606 H 0.16283 0.2414 0.9996 0.0
H607 H 0.10507 0.20051 0.01675 0.0
H608 H 0.12871 0.4357 0.02894 0.0
H609 H 0.06896 0.39351 0.04373 0.0
H610 H 0.16641 0.44189 0.98896 0.0
H611 H 0.20373 0.41855 0.97398 0.0
C612 C 0.73872 0.83731 0.04727 0.0
C613 C 0.7011 0.78796 0.05679 0.0
C614 C 0.63575 0.81272 0.05463 0.0
C615 C 0.67234 0.86024 0.04235 0.0
N616 N 0.76003 0.92487 0.03703 0.0
N617 N 0.61999 0.73479 0.07958 0.0
C618 C 0.72452 0.87499 0.04233 0.0
C619 C 0.65169 0.77808 0.06416 0.0
N620 N 0.78664 0.84691 0.04065 0.0
N621 N 0.58551 0.79906 0.05503 0.0
H622 H 0.63159 0.70921 0.08669 0.0
H623 H 0.58469 0.7269 0.08769 0.0
H624 H 0.57244 0.82373 0.04872 0.0
H625 H 0.55644 0.76242 0.06027 0.0
H626 H 0.81361 0.87992 0.02994 0.0
H627 H 0.79896 0.8208 0.04469 0.0
H628 H 0.79901 0.93919 0.03899 0.0
H629 H 0.74997 0.95294 0.0335 0.0
C630 C 0.77953 0.10691 0.95778 0.0
C631 C 0.72859 0.09081 0.96565 0.0
C632 C 0.75458 0.17346 0.9889 0.0
C633 C 0.8056 0.18427 0.98716 0.0
N634 N 0.86884 0.16673 0.9669 0.0
N635 N 0.66634 0.11563 0.97556 0.0
C636 C 0.81882 0.15308 0.9701 0.0
C637 C 0.71581 0.12686 0.97677 0.0
N638 N 0.79002 0.07909 0.93808 0.0
N639 N 0.74315 0.20578 1.00395 0.0
H640 H 0.63851 0.08212 0.96554 0.0
H641 H 0.65378 0.14073 0.98174 0.0
H642 H 0.77102 0.24067 0.01254 0.0
H643 H 0.70632 0.19759 0.0088 0.0
H644 H 0.82629 0.09012 0.93026 0.0
H645 H 0.7617 0.04826 0.9265 0.0
H646 H 0.88116 0.14292 0.95802 0.0
H647 H 0.89844 0.20186 0.97415 0.0
C648 C 0.8169 0.63196 0.96026 0.0
C649 C 0.80733 0.67224 0.96695 0.0
C650 C 0.88309 0.73339 0.93998 0.0
C651 C 0.89599 0.69442 0.93652 0.0
N652 N 0.86902 0.60514 0.93324 0.0
N653 N 0.81958 0.75545 0.95531 0.0
C654 C 0.86023 0.64289 0.94304 0.0
C655 C 0.83639 0.72101 0.95385 0.0
N656 N 0.78622 0.58433 0.97174 0.0
N657 N 0.91711 0.78271 0.93233 0.0
H658 H 0.78546 0.74694 0.96561 0.0
H659 H 0.83672 0.79029 0.94417 0.0
H660 H 0.95063 0.79286 0.92092 0.0
H661 H 0.91297 0.81391 0.938 0.0
H662 H 0.79413 0.55451 0.97042 0.0
H663 H 0.75321 0.57518 0.98357 0.0
H664 H 0.84344 0.56625 0.9357 0.0
H665 H 0.90059 0.61339 0.92018 0.0
C666 C 0.27035 0.17224 0.97313 0.0
C667 C 0.30867 0.22458 0.97157 0.0
C668 C 0.35962 0.21011 0.00829 0.0
C669 C 0.32021 0.15881 0.01074 0.0
N670 N 0.2495 0.08666 0.98766 0.0
N671 N 0.39633 0.28822 0.97936 0.0
C672 C 0.27942 0.13841 0.99042 0.0
C673 C 0.35572 0.2417 0.98638 0.0
N674 N 0.2239 0.1553 0.96032 0.0
N675 N 0.39955 0.22898 0.02752 0.0
H676 H 0.39442 0.31106 0.96266 0.0
H677 H 0.43271 0.30157 0.98779 0.0
H678 H 0.40398 0.206 0.04312 0.0
H679 H 0.42668 0.26763 0.02896 0.0
H680 H 0.19296 0.11904 0.96427 0.0
H681 H 0.21475 0.17803 0.94736 0.0
H682 H 0.22226 0.06957 0.97113 0.0
H683 H 0.25606 0.06104 0.99977 0.0
C684 C 0.81701 0.20549 0.39615 0.0
C685 C 0.8649 0.24378 0.38551 0.0
C686 C 0.85255 0.19497 0.34013 0.0
C687 C 0.80217 0.16032 0.34881 0.0
N688 N 0.73331 0.13565 0.38359 0.0
N689 N 0.92134 0.28145 0.3436 0.0
C690 C 0.78347 0.16601 0.37657 0.0
C691 C 0.88093 0.24028 0.35649 0.0
N692 N 0.80396 0.20652 0.4249 0.0
N693 N 0.87364 0.18439 0.31638 0.0
H694 H 0.94115 0.31706 0.3537 0.0
H695 H 0.93117 0.28207 0.32148 0.0
H696 H 0.85427 0.15069 0.30417 0.0
H697 H 0.912 0.20635 0.3109 0.0
H698 H 0.77172 0.17688 0.43478 0.0
H699 H 0.82762 0.23538 0.43951 0.0
H700 H 0.71647 0.14168 0.40205 0.0
H701 H 0.70742 0.10678 0.36977 0.0
C702 C 0.82486 0.69055 0.31592 0.0
C703 C 0.83602 0.6502 0.31763 0.0
C704 C 0.76829 0.6058 0.35399 0.0
C705 C 0.75821 0.64702 0.35311 0.0
N706 N 0.78532 0.73417 0.3395 0.0
N707 N 0.82921 0.57787 0.34455 0.0
C708 C 0.7894 0.6913 0.33609 0.0
C709 C 0.81119 0.61049 0.3387 0.0
N710 N 0.84586 0.72653 0.29411 0.0
N711 N 0.73533 0.56085 0.36767 0.0
H712 H 0.86138 0.58084 0.33428 0.0
H713 H 0.81553 0.55146 0.36178 0.0
H714 H 0.70279 0.55489 0.37882 0.0
H715 H 0.73796 0.52778 0.36579 0.0
H716 H 0.83469 0.75348 0.28988 0.0
H717 H 0.87138 0.72684 0.27856 0.0
H718 H 0.81007 0.76914 0.32966 0.0
H719 H 0.76038 0.73604 0.35466 0.0
C720 C 0.26127 0.0847 0.38518 0.0
C721 C 0.30199 0.13578 0.38344 0.0
C722 C 0.35504 0.11325 0.41351 0.0
C723 C 0.31969 0.06121 0.40818 0.0
N724 N 0.23139 -0.00126 0.40417 0.0
N725 N 0.38491 0.20141 0.39944 0.0
C726 C 0.26983 0.04746 0.39918 0.0
C727 C 0.34779 0.15112 0.39924 0.0
N728 N 0.21608 0.07141 0.3717 0.0
N729 N 0.39393 0.12598 0.43289 0.0
H730 H 0.37949 0.23024 0.39047 0.0
H731 H 0.42143 0.21433 0.4075 0.0
H732 H 0.39617 0.09838 0.4457 0.0
H733 H 0.41967 0.16338 0.43906 0.0
H734 H 0.1867 0.03386 0.36937 0.0
H735 H 0.2086 0.09824 0.36183 0.0
H736 H 0.19329 0.98617 0.39981 0.0
H737 H 0.23784 0.97226 0.41546 0.0
C738 C 0.48901 0.4744 0.31947 0.0
C739 C 0.49984 0.48785 0.34974 0.0
C740 C 0.4412 0.39963 0.36403 0.0
C741 C 0.42538 0.38747 0.33427 0.0
N742 N 0.42845 0.41529 0.28396 0.0
N743 N 0.47606 0.46594 0.40088 0.0
C744 C 0.44768 0.42537 0.31196 0.0
C745 C 0.47285 0.45123 0.37204 0.0
N746 N 0.51929 0.50727 0.29796 0.0
N747 N 0.42756 0.36169 0.38455 0.0
H748 H 0.49715 0.50397 0.40759 0.0
H749 H 0.45329 0.44129 0.41753 0.0
H750 H 0.40642 0.32291 0.3793 0.0
H751 H 0.44217 0.36855 0.40593 0.0
H752 H 0.51625 0.49712 0.27576 0.0
H753 H 0.55035 0.54315 0.30252 0.0
H754 H 0.4398 0.44327 0.26765 0.0
H755 H 0.39816 0.37993 0.27768 0.0
C756 C 0.52365 0.98713 0.2788 0.0
C757 C 0.56495 0.03742 0.28174 0.0
C758 C 0.5109 0.06244 0.3086 0.0
C759 C 0.47469 0.01001 0.31198 0.0
N760 N 0.44308 0.92169 0.29865 0.0
N761 N 0.59798 0.12515 0.29689 0.0
C762 C 0.4792 0.97211 0.29587 0.0
C763 C 0.55817 0.07623 0.29506 0.0
N764 N 0.52818 0.9538 0.26033 0.0
N765 N 0.5 0.09861 0.31876 0.0
H766 H 0.63255 0.13718 0.28624 0.0
H767 H 0.59747 0.15347 0.3098 0.0
H768 H 0.46526 0.08889 0.32869 0.0
H769 H 0.52296 0.13764 0.31492 0.0
H770 H 0.49843 0.91739 0.25537 0.0
H771 H 0.56099 0.9649 0.24781 0.0
H772 H 0.44716 0.89179 0.29024 0.0
H773 H 0.40961 0.90937 0.31062 0.0
C774 C 0.92318 0.47402 0.30007 0.0
C775 C 0.96436 0.52196 0.29135 0.0
C776 C 0.0221 0.51078 0.32428 0.0
C777 C 0.98014 0.46484 0.33454 0.0
N778 N 0.89577 0.39421 0.32615 0.0
N779 N 0.05451 0.57868 0.28763 0.0
C780 C 0.93234 0.44351 0.32022 0.0
C781 C 0.01454 0.53761 0.30086 0.0
N782 N 0.87487 0.45949 0.29104 0.0
N783 N 0.06813 0.52998 0.33798 0.0
H784 H 0.04935 0.59839 0.27023 0.0
H785 H 0.09243 0.59032 0.29195 0.0
H786 H 0.0749 0.51028 0.35469 0.0
H787 H 0.09883 0.56622 0.33382 0.0
H788 H 0.84258 0.4284 0.29988 0.0
H789 H 0.86664 0.48 0.27564 0.0
H790 H 0.86188 0.37478 0.31441 0.0
H791 H 0.9014 0.37106 0.34103 0.0
C792 C 0.45014 0.51094 0.70108 0.0
C793 C 0.47069 0.4807 0.6906 0.0
C794 C 0.53722 0.51753 0.72808 0.0
C795 C 0.52345 0.55519 0.73377 0.0
N796 N 0.46625 0.58826 0.72639 0.0
N797 N 0.53336 0.45375 0.69399 0.0
C798 C 0.47893 0.55135 0.7211 0.0
C799 C 0.51348 0.48264 0.70451 0.0
N800 N 0.40299 0.50066 0.69203 0.0
N801 N 0.57395 0.51637 0.74496 0.0
H802 H 0.51718 0.4279 0.67662 0.0
H803 H 0.56777 0.45774 0.70112 0.0
H804 H 0.59147 0.54191 0.76238 0.0
H805 H 0.58346 0.48765 0.74361 0.0
H806 H 0.3839 0.51818 0.70106 0.0
H807 H 0.38082 0.47097 0.67748 0.0
H808 H 0.43847 0.59135 0.71456 0.0
H809 H 0.48511 0.61747 0.74173 0.0
C810 C 0.4614 0.98491 0.64243 0.0
C811 C 0.50873 0.0022 0.65655 0.0
C812 C 0.47132 0.0098 0.70296 0.0
C813 C 0.42244 0.98352 0.6898 0.0
N814 N 0.37086 0.93404 0.64832 0.0
N815 N 0.55716 0.02413 0.70201 0.0
C816 C 0.41734 0.96793 0.65982 0.0
C817 C 0.51363 0.01329 0.6873 0.0
N818 N 0.45847 0.98452 0.61233 0.0
N819 N 0.47772 0.0325 0.72992 0.0
H820 H 0.58884 0.02613 0.69177 0.0
H821 H 0.56015 0.02683 0.72494 0.0
H822 H 0.44787 0.03191 0.74169 0.0
H823 H 0.51338 0.05618 0.73914 0.0
H824 H 0.42522 0.97611 0.60108 0.0
H825 H 0.49055 -0.00176 0.59888 0.0
H826 H 0.36641 0.91853 0.62722 0.0
H827 H 0.33766 0.91631 0.66088 0.0
C828 C 0.00368 0.41157 0.66835 0.0
C829 C 0.02116 0.41037 0.69729 0.0
C830 C 0.00169 0.47688 0.71244 0.0
C831 C 0.9799 0.47376 0.68422 0.0
N832 N 0.94556 0.42616 0.63931 0.0
N833 N 0.02772 0.43484 0.74854 0.0
C834 C 0.9758 0.43678 0.66362 0.0
C835 C 0.01744 0.4409 0.71996 0.0
N836 N 0.01666 0.39183 0.64486 0.0
N837 N 0.00963 0.51536 0.73142 0.0
H838 H 0.03881 0.40852 0.75478 0.0
H839 H 0.02097 0.4527 0.76626 0.0
H840 H -0.00177 0.54205 0.72681 0.0
H841 H 0.03055 0.52278 0.75083 0.0
H842 H 0.008 0.39585 0.62311 0.0
H843 H 0.04158 0.37751 0.64653 0.0
H844 H 0.93832 0.39652 0.62473 0.0
H845 H 0.92329 0.44319 0.63582 0.0
C846 C 0.1445 0.77536 0.70396 0.0
C847 C 0.16537 0.82147 0.6875 0.0
C848 C 0.10323 0.77671 0.64817 0.0
C849 C 0.08665 0.72995 0.66341 0.0
N850 N 0.10275 0.68342 0.70139 0.0
N851 N 0.17167 0.86361 0.64092 0.0
C852 C 0.11079 0.72887 0.68995 0.0
C853 C 0.14674 0.82165 0.6587 0.0
N854 N 0.1549 0.7759 0.73337 0.0
N855 N 0.07665 0.77872 0.62437 0.0
H856 H 0.20468 0.89663 0.64733 0.0
H857 H 0.16243 0.86375 0.61879 0.0
H858 H 0.04457 0.74661 0.6161 0.0
H859 H 0.084 0.81291 0.61443 0.0
H860 H 0.13645 0.74356 0.74675 0.0
H861 H 0.17732 0.80938 0.74519 0.0
H862 H 0.12319 0.68127 0.7193 0.0
H863 H 0.08018 0.64834 0.69098 0.0
C864 C 0.19637 0.37095 0.61868 0.0
C865 C 0.16888 0.32171 0.63189 0.0
C866 C 0.22054 0.29408 0.60478 0.0
C867 C 0.25522 0.34596 0.59839 0.0
N868 N 0.26299 0.42622 0.58424 0.0
N869 N 0.14986 0.23391 0.63496 0.0
C870 C 0.23883 0.38224 0.60039 0.0
C871 C 0.17833 0.28188 0.62338 0.0
N872 N 0.18281 0.40705 0.62456 0.0
N873 N 0.22962 0.25735 0.59355 0.0
H874 H 0.11851 0.22369 0.64857 0.0
H875 H 0.15846 0.20477 0.63219 0.0
H876 H 0.2607 0.26697 0.57972 0.0
H877 H 0.20471 0.21823 0.59565 0.0
H878 H 0.20436 0.4453 0.61844 0.0
H879 H 0.14998 0.39873 0.63634 0.0
H880 H 0.25188 0.45377 0.58357 0.0
H881 H 0.29071 0.43205 0.56866 0.0
C882 C 0.62259 0.83831 0.70426 0.0
C883 C 0.63691 0.8028 0.69412 0.0
C884 C 0.6443 0.83559 0.64369 0.0
C885 C 0.62455 0.86683 0.65359 0.0
N886 N 0.58019 0.88539 0.69175 0.0
N887 N 0.64917 0.75906 0.65274 0.0
C888 C 0.60916 0.86434 0.68342 0.0
C889 C 0.64446 0.79893 0.6634 0.0
N890 N 0.62371 0.84888 0.73369 0.0
N891 N 0.66441 0.84189 0.616 0.0
H892 H 0.64696 0.72982 0.66606 0.0
H893 H 0.64984 0.75211 0.63026 0.0
H894 H 0.66526 0.86857 0.60101 0.0
H895 H 0.68413 0.82373 0.6089 0.0
H896 H 0.61795 0.87802 0.74173 0.0
H897 H 0.63615 0.8328 0.74972 0.0
H898 H 0.56445 0.88055 0.71279 0.0
H899 H 0.56686 0.90235 0.6768 0.0
loop_
_geom_bond_atom_site_label_1
_geom_bond_atom_site_label_2
_geom_bond_distance
_geom_bond_site_symmetry_2
_ccdc_geom_bond_type
O0 Cd1 2.223 . S
O0 C8 1.315 . S
Cd1 O0 2.223 . S
Cd1 O4 2.297 . S
Cd1 O5 2.439 . S
Cd1 O11 2.240 1_545 S
Cd2 O3 2.240 . S
Cd2 O10 2.223 1_554 S
Cd2 O12 2.297 . S
Cd2 O13 2.439 . S
O3 Cd2 2.240 . S
O3 C8 1.279 . S
O4 Cd1 2.297 . S
O4 C6 1.247 . S
O5 Cd1 2.439 . S
O5 C6 1.208 . S
C6 O4 1.247 . S
C6 O5 1.208 . S
C7 O12 1.246 . S
C7 O13 1.208 . S
C8 O0 1.315 . S
C8 O3 1.279 . S
C9 O10 1.315 1_564 S
C9 O11 1.279 . S
O10 Cd2 2.223 1_556 S
O10 C9 1.315 1_546 S
O11 Cd1 2.240 1_565 S
O11 C9 1.279 . S
O12 Cd2 2.297 . S
O12 C7 1.246 . S
O13 Cd2 2.439 . S
O13 C7 1.208 . S
O14 Cd15 2.223 . S
O14 C22 1.315 . S
Cd15 O14 2.223 . S
Cd15 O18 2.297 . S
Cd15 O19 2.439 . S
Cd15 O25 2.240 1_655 S
Cd16 O17 2.240 . S
Cd16 O24 2.223 1_554 S
Cd16 O26 2.302 . S
Cd16 O27 2.439 . S
O17 Cd16 2.240 . S
O17 C22 1.279 . S
O18 Cd15 2.297 . S
O18 C20 1.247 . S
O19 Cd15 2.439 . S
O19 C20 1.208 . S
C20 O18 1.247 . S
C20 O19 1.208 . S
C21 O26 1.271 . S
C21 O27 1.208 . S
C22 O14 1.315 . S
C22 O17 1.279 . S
C23 O24 1.315 1_454 S
C23 O25 1.279 . S
O24 Cd16 2.223 1_556 S
O24 C23 1.315 1_656 S
O25 Cd15 2.240 1_455 S
O25 C23 1.279 . S
O26 Cd16 2.302 . S
O26 C21 1.271 . S
O27 Cd16 2.439 . S
O27 C21 1.208 . S
O28 Cd29 2.223 . S
O28 C36 1.315 . S
Cd29 O28 2.223 . S
Cd29 O32 2.297 . S
Cd29 O33 2.439 . S
Cd29 O39 2.240 . S
Cd30 O31 2.240 . S
Cd30 O38 2.223 1_554 S
Cd30 O40 2.304 . S
Cd30 O41 2.439 . S
O31 Cd30 2.240 . S
O31 C36 1.279 . S
O32 Cd29 2.297 . S
O32 C34 1.247 . S
O33 Cd29 2.439 . S
O33 C34 1.208 . S
C34 O32 1.247 . S
C34 O33 1.208 . S
C35 O40 1.284 . S
C35 O41 1.208 . S
C36 O28 1.315 . S
C36 O31 1.279 . S
C37 O38 1.315 1_554 S
C37 O39 1.279 . S
O38 Cd30 2.223 1_556 S
O38 C37 1.315 1_556 S
O39 Cd29 2.240 . S
O39 C37 1.279 . S
O40 Cd30 2.304 . S
O40 C35 1.284 . S
O41 Cd30 2.439 . S
O41 C35 1.208 . S
O42 Cd43 2.223 . S
O42 C50 1.315 . S
Cd43 O42 2.223 . S
Cd43 O46 2.297 . S
Cd43 O47 2.439 . S
Cd43 O53 2.240 1_565 S
Cd44 O45 2.240 . S
Cd44 O52 2.223 1_556 S
Cd44 O54 2.297 . S
Cd44 O55 2.439 . S
O45 Cd44 2.240 . S
O45 C50 1.279 . S
O46 Cd43 2.297 . S
O46 C48 1.247 . S
O47 Cd43 2.439 . S
O47 C48 1.208 . S
C48 O46 1.247 . S
C48 O47 1.208 . S
C49 O54 1.246 . S
C49 O55 1.208 . S
C50 O42 1.315 . S
C50 O45 1.279 . S
C51 O52 1.315 1_546 S
C51 O53 1.279 . S
O52 Cd44 2.223 1_554 S
O52 C51 1.315 1_564 S
O53 Cd43 2.240 1_545 S
O53 C51 1.279 . S
O54 Cd44 2.297 . S
O54 C49 1.246 . S
O55 Cd44 2.439 . S
O55 C49 1.208 . S
O56 Cd57 2.223 . S
O56 C64 1.315 . S
Cd57 O56 2.223 . S
Cd57 O60 2.297 . S
Cd57 O61 2.439 . S
Cd57 O67 2.240 1_455 S
Cd58 O59 2.240 . S
Cd58 O66 2.223 1_556 S
Cd58 O68 2.302 . S
Cd58 O69 2.439 . S
O59 Cd58 2.240 . S
O59 C64 1.279 . S
O60 Cd57 2.297 . S
O60 C62 1.247 . S
O61 Cd57 2.439 . S
O61 C62 1.208 . S
C62 O60 1.247 . S
C62 O61 1.208 . S
C63 O68 1.271 . S
C63 O69 1.208 . S
C64 O56 1.315 . S
C64 O59 1.279 . S
C65 O66 1.315 1_656 S
C65 O67 1.279 . S
O66 Cd58 2.223 1_554 S
O66 C65 1.315 1_454 S
O67 Cd57 2.240 1_655 S
O67 C65 1.279 . S
O68 Cd58 2.302 . S
O68 C63 1.271 . S
O69 Cd58 2.439 . S
O69 C63 1.208 . S
O70 Cd71 2.223 . S
O70 C78 1.315 . S
Cd71 O70 2.223 . S
Cd71 O74 2.297 . S
Cd71 O75 2.439 . S
Cd71 O81 2.240 . S
Cd72 O73 2.240 . S
Cd72 O80 2.223 1_556 S
Cd72 O82 2.304 . S
Cd72 O83 2.439 . S
O73 Cd72 2.240 . S
O73 C78 1.279 . S
O74 Cd71 2.297 . S
O74 C76 1.247 . S
O75 Cd71 2.439 . S
O75 C76 1.208 . S
C76 O74 1.247 . S
C76 O75 1.208 . S
C77 O82 1.284 . S
C77 O83 1.208 . S
C78 O70 1.315 . S
C78 O73 1.279 . S
C79 O80 1.315 1_556 S
C79 O81 1.279 . S
O80 Cd72 2.223 1_554 S
O80 C79 1.315 1_554 S
O81 Cd71 2.240 . S
O81 C79 1.279 . S
O82 Cd72 2.304 . S
O82 C77 1.284 . S
O83 Cd72 2.439 . S
O83 C77 1.208 . S
O84 Cd85 2.223 . S
O84 C92 1.315 . S
Cd85 O84 2.223 . S
Cd85 O88 2.297 . S
Cd85 O89 2.439 1_655 S
Cd85 O95 2.240 . S
Cd86 O87 2.240 . S
Cd86 O94 2.223 1_455 S
Cd86 O96 2.297 . S
Cd86 O97 2.439 . S
O87 Cd86 2.240 . S
O87 C92 1.279 1_455 S
O88 Cd85 2.297 . S
O88 C90 1.247 1_655 S
O89 Cd85 2.439 1_455 S
O89 C90 1.208 . S
C90 O88 1.247 1_455 S
C90 O89 1.208 . S
C91 O96 1.247 . S
C91 O97 1.208 . S
C92 O84 1.315 . S
C92 O87 1.279 1_655 S
C93 O94 1.315 . S
C93 O95 1.279 . S
O94 Cd86 2.223 1_655 S
O94 C93 1.315 . S
O95 Cd85 2.240 . S
O95 C93 1.279 . S
O96 Cd86 2.297 . S
O96 C91 1.247 . S
O97 Cd86 2.439 . S
O97 C91 1.208 . S
O98 Cd99 2.223 . S
O98 C106 1.315 . S
Cd99 O98 2.223 . S
Cd99 O102 2.297 . S
Cd99 O103 2.439 . S
Cd99 O109 2.240 . S
Cd100 O101 2.240 . S
Cd100 O108 2.223 . S
Cd100 O110 2.297 . S
Cd100 O111 2.439 . S
O101 Cd100 2.240 . S
O101 C106 1.279 . S
O102 Cd99 2.297 . S
O102 C104 1.247 . S
O103 Cd99 2.439 . S
O103 C104 1.208 . S
C104 O102 1.247 . S
C104 O103 1.208 . S
C105 O110 1.247 . S
C105 O111 1.208 . S
C106 O98 1.315 . S
C106 O101 1.279 . S
C107 O108 1.315 . S
C107 O109 1.279 . S
O108 Cd100 2.223 . S
O108 C107 1.315 . S
O109 Cd99 2.240 . S
O109 C107 1.279 . S
O110 Cd100 2.297 . S
O110 C105 1.247 . S
O111 Cd100 2.439 . S
O111 C105 1.208 . S
O112 Cd113 2.223 . S
O112 C120 1.315 . S
Cd113 O112 2.223 . S
Cd113 O116 2.297 . S
Cd113 O117 2.439 1_545 S
Cd113 O123 2.240 . S
Cd114 O115 2.240 . S
Cd114 O122 2.223 1_565 S
Cd114 O124 2.297 . S
Cd114 O125 2.439 . S
O115 Cd114 2.240 . S
O115 C120 1.279 1_565 S
O116 Cd113 2.297 . S
O116 C118 1.247 1_545 S
O117 Cd113 2.439 1_565 S
O117 C118 1.208 . S
C118 O116 1.247 1_565 S
C118 O117 1.208 . S
C119 O124 1.247 . S
C119 O125 1.208 . S
C120 O112 1.315 . S
C120 O115 1.279 1_545 S
C121 O122 1.315 . S
C121 O123 1.279 . S
O122 Cd114 2.223 1_545 S
O122 C121 1.315 . S
O123 Cd113 2.240 . S
O123 C121 1.279 . S
O124 Cd114 2.297 . S
O124 C119 1.247 . S
O125 Cd114 2.439 . S
O125 C119 1.208 . S
O126 Cd127 2.223 . S
O126 C134 1.315 . S
Cd127 O126 2.223 . S
Cd127 O130 2.297 . S
Cd127 O131 2.439 . S
Cd127 O137 2.240 . S
Cd128 O129 2.240 . S
Cd128 O136 2.223 . S
Cd128 O138 2.297 . S
Cd128 O139 2.439 . S
O129 Cd128 2.240 . S
O129 C134 1.279 . S
O130 Cd127 2.297 . S
O130 C132 1.247 . S
O131 Cd127 2.439 . S
O131 C132 1.208 . S
C132 O130 1.247 . S
C132 O131 1.208 . S
C133 O138 1.247 . S
C133 O139 1.208 . S
C134 O126 1.315 . S
C134 O129 1.279 . S
C135 O136 1.315 . S
C135 O137 1.279 . S
O136 Cd128 2.223 . S
O136 C135 1.315 . S
O137 Cd127 2.240 . S
O137 C135 1.279 . S
O138 Cd128 2.297 . S
O138 C133 1.247 . S
O139 Cd128 2.439 . S
O139 C133 1.208 . S
O140 Cd141 2.223 . S
O140 C148 1.315 . S
Cd141 O140 2.223 . S
Cd141 O144 2.297 . S
Cd141 O145 2.439 . S
Cd141 O151 2.240 . S
Cd142 O143 2.240 . S
Cd142 O150 2.223 . S
Cd142 O152 2.297 1_545 S
Cd142 O153 2.439 1_545 S
O143 Cd142 2.240 . S
O143 C148 1.279 . S
O144 Cd141 2.297 . S
O144 C146 1.247 . S
O145 Cd141 2.439 . S
O145 C146 1.208 . S
C146 O144 1.247 . S
C146 O145 1.208 . S
C147 O152 1.247 . S
C147 O153 1.208 . S
C148 O140 1.315 . S
C148 O143 1.279 . S
C149 O150 1.315 . S
C149 O151 1.279 . S
O150 Cd142 2.223 . S
O150 C149 1.315 . S
O151 Cd141 2.240 . S
O151 C149 1.279 . S
O152 Cd142 2.297 1_565 S
O152 C147 1.247 . S
O153 Cd142 2.439 1_565 S
O153 C147 1.208 . S
O154 Cd155 2.223 . S
O154 C162 1.315 . S
Cd155 O154 2.223 . S
Cd155 O158 2.297 . S
Cd155 O159 2.439 . S
Cd155 O165 2.240 . S
Cd156 O157 2.240 . S
Cd156 O164 2.223 . S
Cd156 O166 2.297 1_655 S
Cd156 O167 2.439 1_655 S
O157 Cd156 2.240 . S
O157 C162 1.279 . S
O158 Cd155 2.297 . S
O158 C160 1.247 . S
O159 Cd155 2.439 . S
O159 C160 1.208 . S
C160 O158 1.247 . S
C160 O159 1.208 . S
C161 O166 1.247 . S
C161 O167 1.208 . S
C162 O154 1.315 . S
C162 O157 1.279 . S
C163 O164 1.315 . S
C163 O165 1.279 . S
O164 Cd156 2.223 . S
O164 C163 1.315 . S
O165 Cd155 2.240 . S
O165 C163 1.279 . S
O166 Cd156 2.297 1_455 S
O166 C161 1.247 . S
O167 Cd156 2.439 1_455 S
O167 C161 1.208 . S
O168 Cd169 2.223 . S
O168 C176 1.315 . S
Cd169 O168 2.223 . S
Cd169 O172 2.297 . S
Cd169 O173 2.439 . S
Cd169 O179 2.240 . S
Cd170 O171 2.240 . S
Cd170 O178 2.223 . S
Cd170 O180 2.297 . S
Cd170 O181 2.439 . S
O171 Cd170 2.240 . S
O171 C176 1.279 . S
O172 Cd169 2.297 . S
O172 C174 1.247 . S
O173 Cd169 2.439 . S
O173 C174 1.208 . S
C174 O172 1.247 . S
C174 O173 1.208 . S
C175 O180 1.247 . S
C175 O181 1.208 . S
C176 O168 1.315 . S
C176 O171 1.279 . S
C177 O178 1.315 . S
C177 O179 1.279 . S
O178 Cd170 2.223 . S
O178 C177 1.315 . S
O179 Cd169 2.240 . S
O179 C177 1.279 . S
O180 Cd170 2.297 . S
O180 C175 1.247 . S
O181 Cd170 2.439 . S
O181 C175 1.208 . S
O182 Cd183 2.223 . S
O182 C190 1.315 . S
Cd183 O182 2.223 . S
Cd183 O186 2.297 . S
Cd183 O187 2.439 . S
Cd183 O193 2.240 . S
Cd184 O185 2.240 . S
Cd184 O192 2.223 . S
Cd184 O194 2.297 1_565 S
Cd184 O195 2.439 1_565 S
O185 Cd184 2.240 . S
O185 C190 1.279 . S
O186 Cd183 2.297 . S
O186 C188 1.247 . S
O187 Cd183 2.439 . S
O187 C188 1.208 . S
C188 O186 1.247 . S
C188 O187 1.208 . S
C189 O194 1.247 . S
C189 O195 1.208 . S
C190 O182 1.315 . S
C190 O185 1.279 . S
C191 O192 1.315 . S
C191 O193 1.279 . S
O192 Cd184 2.223 . S
O192 C191 1.315 . S
O193 Cd183 2.240 . S
O193 C191 1.279 . S
O194 Cd184 2.297 1_545 S
O194 C189 1.247 . S
O195 Cd184 2.439 1_545 S
O195 C189 1.208 . S
O196 Cd197 2.223 . S
O196 C204 1.315 . S
Cd197 O196 2.223 . S
Cd197 O200 2.297 . S
Cd197 O201 2.439 . S
Cd197 O207 2.240 . S
Cd198 O199 2.240 . S
Cd198 O206 2.223 . S
Cd198 O208 2.297 1_455 S
Cd198 O209 2.439 1_455 S
O199 Cd198 2.240 . S
O199 C204 1.279 . S
O200 Cd197 2.297 . S
O200 C202 1.247 . S
O201 Cd197 2.439 . S
O201 C202 1.208 . S
C202 O200 1.247 . S
C202 O201 1.208 . S
C203 O208 1.247 . S
C203 O209 1.208 . S
C204 O196 1.315 . S
C204 O199 1.279 . S
C205 O206 1.315 . S
C205 O207 1.279 . S
O206 Cd198 2.223 . S
O206 C205 1.315 . S
O207 Cd197 2.240 . S
O207 C205 1.279 . S
O208 Cd198 2.297 1_655 S
O208 C203 1.247 . S
O209 Cd198 2.439 1_655 S
O209 C203 1.208 . S
O210 Cd211 2.223 . S
O210 C218 1.315 . S
Cd211 O210 2.223 . S
Cd211 O214 2.297 . S
Cd211 O215 2.439 1_455 S
Cd211 O221 2.240 . S
Cd212 O213 2.240 . S
Cd212 O220 2.223 1_655 S
Cd212 O222 2.297 . S
Cd212 O223 2.439 . S
O213 Cd212 2.240 . S
O213 C218 1.279 1_655 S
O214 Cd211 2.297 . S
O214 C216 1.247 1_455 S
O215 Cd211 2.439 1_655 S
O215 C216 1.208 . S
C216 O214 1.247 1_655 S
C216 O215 1.208 . S
C217 O222 1.247 . S
C217 O223 1.208 . S
C218 O210 1.315 . S
C218 O213 1.279 1_455 S
C219 O220 1.315 . S
C219 O221 1.279 . S
O220 Cd212 2.223 1_455 S
O220 C219 1.315 . S
O221 Cd211 2.240 . S
O221 C219 1.279 . S
O222 Cd212 2.297 . S
O222 C217 1.247 . S
O223 Cd212 2.439 . S
O223 C217 1.208 . S
O224 Cd225 2.223 . S
O224 C232 1.315 . S
Cd225 O224 2.223 . S
Cd225 O228 2.297 . S
Cd225 O229 2.439 . S
Cd225 O235 2.240 . S
Cd226 O227 2.240 . S
Cd226 O234 2.223 . S
Cd226 O236 2.297 . S
Cd226 O237 2.439 . S
O227 Cd226 2.240 . S
O227 C232 1.279 . S
O228 Cd225 2.297 . S
O228 C230 1.247 . S
O229 Cd225 2.439 . S
O229 C230 1.208 . S
C230 O228 1.247 . S
C230 O229 1.208 . S
C231 O236 1.247 . S
C231 O237 1.208 . S
C232 O224 1.315 . S
C232 O227 1.279 . S
C233 O234 1.315 . S
C233 O235 1.279 . S
O234 Cd226 2.223 . S
O234 C233 1.315 . S
O235 Cd225 2.240 . S
O235 C233 1.279 . S
O236 Cd226 2.297 . S
O236 C231 1.247 . S
O237 Cd226 2.439 . S
O237 C231 1.208 . S
O238 Cd239 2.223 . S
O238 C246 1.315 . S
Cd239 O238 2.223 . S
Cd239 O242 2.297 . S
Cd239 O243 2.439 1_565 S
Cd239 O249 2.240 . S
Cd240 O241 2.240 . S
Cd240 O248 2.223 1_545 S
Cd240 O250 2.297 . S
Cd240 O251 2.439 . S
O241 Cd240 2.240 . S
O241 C246 1.279 1_545 S
O242 Cd239 2.297 . S
O242 C244 1.247 1_565 S
O243 Cd239 2.439 1_545 S
O243 C244 1.208 . S
C244 O242 1.247 1_545 S
C244 O243 1.208 . S
C245 O250 1.247 . S
C245 O251 1.208 . S
C246 O238 1.315 . S
C246 O241 1.279 1_565 S
C247 O248 1.315 . S
C247 O249 1.279 . S
O248 Cd240 2.223 1_565 S
O248 C247 1.315 . S
O249 Cd239 2.240 . S
O249 C247 1.279 . S
O250 Cd240 2.297 . S
O250 C245 1.247 . S
O251 Cd240 2.439 . S
O251 C245 1.208 . S
C252 C253 1.363 1_565 S
C252 C258 1.379 . S
C252 N260 1.356 . S
C253 C252 1.363 1_545 S
C253 C259 1.363 1_554 S
C254 C255 1.363 1_545 S
C254 C259 1.379 . S
C254 N261 1.356 . S
C255 C254 1.363 1_565 S
C255 C258 1.363 1_556 S
N256 C258 1.354 1_556 S
N256 H268 0.973 1_556 S
N256 H269 0.999 . S
N257 C259 1.354 1_554 S
N257 H262 0.999 . S
N257 H263 0.973 1_554 S
C258 C252 1.379 . S
C258 C255 1.363 1_554 S
C258 N256 1.354 1_554 S
C259 C253 1.363 1_556 S
C259 C254 1.379 . S
C259 N257 1.354 1_556 S
N260 C252 1.356 . S
N260 H266 0.984 . S
N260 H267 0.984 . S
N261 C254 1.356 . S
N261 H264 0.984 . S
N261 H265 0.985 . S
H262 N257 0.999 . S
H263 N257 0.973 1_556 S
H264 N261 0.984 . S
H265 N261 0.985 . S
H266 N260 0.984 . S
H267 N260 0.984 . S
H268 N256 0.973 1_554 S
H269 N256 0.999 . S
C270 C271 1.363 . S
C270 C276 1.379 . S
C270 N278 1.356 . S
C271 C270 1.363 . S
C271 C277 1.363 1_654 S
C272 C273 1.363 . S
C272 C277 1.379 . S
C272 N279 1.356 . S
C273 C272 1.363 . S
C273 C276 1.363 1_456 S
N274 C276 1.356 1_556 S
N274 H286 0.984 1_556 S
N274 H287 0.985 . S
N275 C277 1.356 1_554 S
N275 H280 0.984 . S
N275 H281 0.985 1_554 S
C276 C270 1.379 . S
C276 C273 1.363 1_654 S
C276 N274 1.356 1_554 S
C277 C271 1.363 1_456 S
C277 C272 1.379 . S
C277 N275 1.356 1_556 S
N278 C270 1.356 . S
N278 H284 0.984 . S
N278 H285 0.984 . S
N279 C272 1.356 . S
N279 H282 0.984 . S
N279 H283 0.985 . S
H280 N275 0.984 . S
H281 N275 0.985 1_556 S
H282 N279 0.984 . S
H283 N279 0.985 . S
H284 N278 0.984 . S
H285 N278 0.984 . S
H286 N274 0.984 1_554 S
H287 N274 0.985 . S
C288 C289 1.363 . S
C288 C294 1.379 1_556 S
C288 N296 1.356 . S
C289 C288 1.363 . S
C289 C295 1.363 . S
C290 C291 1.363 . S
C290 C295 1.379 1_554 S
C290 N297 1.356 . S
C291 C290 1.363 . S
C291 C294 1.363 . S
N292 C294 1.356 . S
N292 H304 0.984 . S
N292 H305 0.985 . S
N293 C295 1.356 . S
N293 H298 0.984 . S
N293 H299 0.985 . S
C294 C288 1.379 1_554 S
C294 C291 1.363 . S
C294 N292 1.356 . S
C295 C289 1.363 . S
C295 C290 1.379 1_556 S
C295 N293 1.356 . S
N296 C288 1.356 . S
N296 H302 0.984 . S
N296 H303 0.984 . S
N297 C290 1.356 . S
N297 H300 0.984 . S
N297 H301 0.985 . S
H298 N293 0.984 . S
H299 N293 0.985 . S
H300 N297 0.984 . S
H301 N297 0.985 . S
H302 N296 0.984 . S
H303 N296 0.984 . S
H304 N292 0.984 . S
H305 N292 0.985 . S
C306 C307 1.363 . S
C306 C312 1.379 . S
C306 N314 1.356 . S
C307 C306 1.363 . S
C307 C313 1.363 . S
C308 C309 1.363 . S
C308 C313 1.379 . S
C308 N315 1.356 . S
C309 C308 1.363 . S
C309 C312 1.363 . S
N310 C312 1.356 . S
N310 H322 0.984 . S
N310 H323 0.985 . S
N311 C313 1.356 . S
N311 H316 0.984 . S
N311 H317 0.985 . S
C312 C306 1.379 . S
C312 C309 1.363 . S
C312 N310 1.356 . S
C313 C307 1.363 . S
C313 C308 1.379 . S
C313 N311 1.356 . S
N314 C306 1.356 . S
N314 H320 0.984 . S
N314 H321 0.984 . S
N315 C308 1.356 . S
N315 H318 0.984 . S
N315 H319 0.985 . S
H316 N311 0.984 . S
H317 N311 0.985 . S
H318 N315 0.984 . S
H319 N315 0.985 . S
H320 N314 0.984 . S
H321 N314 0.984 . S
H322 N310 0.984 . S
H323 N310 0.985 . S
C324 C325 1.363 . S
C324 C330 1.379 . S
C324 N332 1.356 . S
C325 C324 1.363 . S
C325 C331 1.363 . S
C326 C327 1.363 . S
C326 C331 1.379 . S
C326 N333 1.356 . S
C327 C326 1.363 . S
C327 C330 1.363 . S
N328 C330 1.356 . S
N328 H340 0.984 . S
N328 H341 0.985 . S
N329 C331 1.356 . S
N329 H334 0.984 . S
N329 H335 0.985 . S
C330 C324 1.379 . S
C330 C327 1.363 . S
C330 N328 1.356 . S
C331 C325 1.363 . S
C331 C326 1.379 . S
C331 N329 1.356 . S
N332 C324 1.356 . S
N332 H338 0.984 . S
N332 H339 0.984 . S
N333 C326 1.356 . S
N333 H336 0.984 . S
N333 H337 0.985 . S
H334 N329 0.984 . S
H335 N329 0.985 . S
H336 N333 0.984 . S
H337 N333 0.985 . S
H338 N332 0.984 . S
H339 N332 0.984 . S
H340 N328 0.984 . S
H341 N328 0.985 . S
C342 C343 1.363 . S
C342 C348 1.379 . S
C342 N350 1.356 . S
C343 C342 1.363 . S
C343 C349 1.363 . S
C344 C345 1.363 . S
C344 C349 1.379 . S
C344 N351 1.356 . S
C345 C344 1.363 . S
C345 C348 1.363 . S
N346 C348 1.356 . S
N346 H358 0.984 . S
N346 H359 0.985 . S
N347 C349 1.356 . S
N347 H352 0.984 . S
N347 H353 0.985 . S
C348 C342 1.379 . S
C348 C345 1.363 . S
C348 N346 1.356 . S
C349 C343 1.363 . S
C349 C344 1.379 . S
C349 N347 1.356 . S
N350 C342 1.356 . S
N350 H356 0.984 . S
N350 H357 0.984 . S
N351 C344 1.356 . S
N351 H354 0.984 . S
N351 H355 0.985 . S
H352 N347 0.984 . S
H353 N347 0.985 . S
H354 N351 0.984 . S
H355 N351 0.985 . S
H356 N350 0.984 . S
H357 N350 0.984 . S
H358 N346 0.984 . S
H359 N346 0.985 . S
C360 C361 1.363 . S
C360 C366 1.379 . S
C360 N368 1.356 . S
C361 C360 1.363 . S
C361 C367 1.363 . S
C362 C363 1.363 . S
C362 C367 1.379 . S
C362 N369 1.356 . S
C363 C362 1.363 . S
C363 C366 1.363 . S
N364 C366 1.356 . S
N364 H376 0.984 . S
N364 H377 0.985 . S
N365 C367 1.356 . S
N365 H370 0.984 . S
N365 H371 0.985 . S
C366 C360 1.379 . S
C366 C363 1.363 . S
C366 N364 1.356 . S
C367 C361 1.363 . S
C367 C362 1.379 . S
C367 N365 1.356 . S
N368 C360 1.356 . S
N368 H374 0.984 . S
N368 H375 0.984 . S
N369 C362 1.356 . S
N369 H372 0.984 . S
N369 H373 0.985 . S
H370 N365 0.984 . S
H371 N365 0.985 . S
H372 N369 0.984 . S
H373 N369 0.985 . S
H374 N368 0.984 . S
H375 N368 0.984 . S
H376 N364 0.984 . S
H377 N364 0.985 . S
C378 C379 1.363 . S
C378 C384 1.379 . S
C378 N386 1.356 . S
C379 C378 1.363 . S
C379 C385 1.363 . S
C380 C381 1.363 . S
C380 C385 1.379 . S
C380 N387 1.356 . S
C381 C380 1.363 . S
C381 C384 1.363 . S
N382 C384 1.356 . S
N382 H394 0.984 . S
N382 H395 0.985 . S
N383 C385 1.356 . S
N383 H388 0.984 . S
N383 H389 0.985 . S
C384 C378 1.379 . S
C384 C381 1.363 . S
C384 N382 1.356 . S
C385 C379 1.363 . S
C385 C380 1.379 . S
C385 N383 1.356 . S
N386 C378 1.356 . S
N386 H392 0.984 . S
N386 H393 0.984 . S
N387 C380 1.356 . S
N387 H390 0.984 . S
N387 H391 0.985 . S
H388 N383 0.984 . S
H389 N383 0.985 . S
H390 N387 0.984 . S
H391 N387 0.985 . S
H392 N386 0.984 . S
H393 N386 0.984 . S
H394 N382 0.984 . S
H395 N382 0.985 . S
C396 C397 1.363 . S
C396 C402 1.379 . S
C396 N404 1.356 . S
C397 C396 1.363 . S
C397 C403 1.363 . S
C398 C399 1.363 . S
C398 C403 1.379 . S
C398 N405 1.356 . S
C399 C398 1.363 . S
C399 C402 1.363 . S
N400 C402 1.356 . S
N400 H412 0.984 . S
N400 H413 0.985 . S
N401 C403 1.356 . S
N401 H406 0.984 . S
N401 H407 0.985 . S
C402 C396 1.379 . S
C402 C399 1.363 . S
C402 N400 1.356 . S
C403 C397 1.363 . S
C403 C398 1.379 . S
C403 N401 1.356 . S
N404 C396 1.356 . S
N404 H410 0.984 . S
N404 H411 0.984 . S
N405 C398 1.356 . S
N405 H408 0.984 . S
N405 H409 0.985 . S
H406 N401 0.984 . S
H407 N401 0.985 . S
H408 N405 0.984 . S
H409 N405 0.985 . S
H410 N404 0.984 . S
H411 N404 0.984 . S
H412 N400 0.984 . S
H413 N400 0.985 . S
C414 C415 1.363 . S
C414 C420 1.379 . S
C414 N422 1.356 . S
C415 C414 1.363 . S
C415 C421 1.363 . S
C416 C417 1.363 . S
C416 C421 1.379 . S
C416 N423 1.356 . S
C417 C416 1.363 . S
C417 C420 1.363 . S
N418 C420 1.356 . S
N418 H430 0.984 . S
N418 H431 0.985 . S
N419 C421 1.356 . S
N419 H424 0.984 . S
N419 H425 0.985 . S
C420 C414 1.379 . S
C420 C417 1.363 . S
C420 N418 1.356 . S
C421 C415 1.363 . S
C421 C416 1.379 . S
C421 N419 1.356 . S
N422 C414 1.356 . S
N422 H428 0.984 . S
N422 H429 0.984 . S
N423 C416 1.356 . S
N423 H426 0.984 . S
N423 H427 0.985 . S
H424 N419 0.984 . S
H425 N419 0.985 . S
H426 N423 0.984 . S
H427 N423 0.985 . S
H428 N422 0.984 . S
H429 N422 0.984 . S
H430 N418 0.984 . S
H431 N418 0.985 . S
C432 C433 1.363 . S
C432 C438 1.379 . S
C432 N440 1.356 . S
C433 C432 1.363 . S
C433 C439 1.363 . S
C434 C435 1.363 . S
C434 C439 1.379 . S
C434 N441 1.356 . S
C435 C434 1.363 . S
C435 C438 1.363 . S
N436 C438 1.356 . S
N436 H448 0.984 . S
N436 H449 0.985 . S
N437 C439 1.356 . S
N437 H442 0.984 . S
N437 H443 0.985 . S
C438 C432 1.379 . S
C438 C435 1.363 . S
C438 N436 1.356 . S
C439 C433 1.363 . S
C439 C434 1.379 . S
C439 N437 1.356 . S
N440 C432 1.356 . S
N440 H446 0.984 . S
N440 H447 0.984 . S
N441 C434 1.356 . S
N441 H444 0.984 . S
N441 H445 0.985 . S
H442 N437 0.984 . S
H443 N437 0.985 . S
H444 N441 0.984 . S
H445 N441 0.985 . S
H446 N440 0.984 . S
H447 N440 0.984 . S
H448 N436 0.984 . S
H449 N436 0.985 . S
C450 C451 1.363 . S
C450 C456 1.379 . S
C450 N458 1.356 . S
C451 C450 1.363 . S
C451 C457 1.363 . S
C452 C453 1.363 . S
C452 C457 1.379 . S
C452 N459 1.356 . S
C453 C452 1.363 . S
C453 C456 1.363 . S
N454 C456 1.356 . S
N454 H466 0.984 . S
N454 H467 0.985 . S
N455 C457 1.356 . S
N455 H460 0.984 . S
N455 H461 0.985 . S
C456 C450 1.379 . S
C456 C453 1.363 . S
C456 N454 1.356 . S
C457 C451 1.363 . S
C457 C452 1.379 . S
C457 N455 1.356 . S
N458 C450 1.356 . S
N458 H464 0.984 . S
N458 H465 0.984 . S
N459 C452 1.356 . S
N459 H462 0.984 . S
N459 H463 0.985 . S
H460 N455 0.984 . S
H461 N455 0.985 . S
H462 N459 0.984 . S
H463 N459 0.985 . S
H464 N458 0.984 . S
H465 N458 0.984 . S
H466 N454 0.984 . S
H467 N454 0.985 . S
C468 C469 1.363 . S
C468 C474 1.379 . S
C468 N476 1.356 . S
C469 C468 1.363 . S
C469 C475 1.363 . S
C470 C471 1.363 . S
C470 C475 1.379 . S
C470 N477 1.356 . S
C471 C470 1.363 . S
C471 C474 1.363 . S
N472 C474 1.356 . S
N472 H484 0.984 . S
N472 H485 0.985 . S
N473 C475 1.356 . S
N473 H478 0.984 . S
N473 H479 0.985 . S
C474 C468 1.379 . S
C474 C471 1.363 . S
C474 N472 1.356 . S
C475 C469 1.363 . S
C475 C470 1.379 . S
C475 N473 1.356 . S
N476 C468 1.356 . S
N476 H482 0.984 . S
N476 H483 0.984 . S
N477 C470 1.356 . S
N477 H480 0.984 . S
N477 H481 0.985 . S
H478 N473 0.984 . S
H479 N473 0.985 . S
H480 N477 0.984 . S
H481 N477 0.985 . S
H482 N476 0.984 . S
H483 N476 0.984 . S
H484 N472 0.984 . S
H485 N472 0.985 . S
C486 C487 1.363 . S
C486 C492 1.379 . S
C486 N494 1.356 . S
C487 C486 1.363 . S
C487 C493 1.363 . S
C488 C489 1.363 . S
C488 C493 1.379 . S
C488 N495 1.356 . S
C489 C488 1.363 . S
C489 C492 1.363 . S
N490 C492 1.356 . S
N490 H502 0.984 . S
N490 H503 0.985 . S
N491 C493 1.356 . S
N491 H496 0.984 . S
N491 H497 0.985 . S
C492 C486 1.379 . S
C492 C489 1.363 . S
C492 N490 1.356 . S
C493 C487 1.363 . S
C493 C488 1.379 . S
C493 N491 1.356 . S
N494 C486 1.356 . S
N494 H500 0.984 . S
N494 H501 0.984 . S
N495 C488 1.356 . S
N495 H498 0.984 . S
N495 H499 0.985 . S
H496 N491 0.984 . S
H497 N491 0.985 . S
H498 N495 0.984 . S
H499 N495 0.985 . S
H500 N494 0.984 . S
H501 N494 0.984 . S
H502 N490 0.984 . S
H503 N490 0.985 . S
C504 C505 1.363 . S
C504 C510 1.379 . S
C504 N512 1.356 . S
C505 C504 1.363 . S
C505 C511 1.363 . S
C506 C507 1.363 . S
C506 C511 1.379 . S
C506 N513 1.356 . S
C507 C506 1.363 . S
C507 C510 1.363 . S
N508 C510 1.356 . S
N508 H520 0.984 . S
N508 H521 0.985 . S
N509 C511 1.356 . S
N509 H514 0.984 . S
N509 H515 0.985 . S
C510 C504 1.379 . S
C510 C507 1.363 . S
C510 N508 1.356 . S
C511 C505 1.363 . S
C511 C506 1.379 . S
C511 N509 1.356 . S
N512 C504 1.356 . S
N512 H518 0.984 . S
N512 H519 0.984 . S
N513 C506 1.356 . S
N513 H516 0.984 . S
N513 H517 0.985 . S
H514 N509 0.984 . S
H515 N509 0.985 . S
H516 N513 0.984 . S
H517 N513 0.985 . S
H518 N512 0.984 . S
H519 N512 0.984 . S
H520 N508 0.984 . S
H521 N508 0.985 . S
C522 C523 1.363 1_655 S
C522 C528 1.379 . S
C522 N530 1.356 . S
C523 C522 1.363 1_455 S
C523 C529 1.363 . S
C524 C525 1.363 1_455 S
C524 C529 1.379 . S
C524 N531 1.356 . S
C525 C524 1.363 1_655 S
C525 C528 1.363 . S
N526 C528 1.356 . S
N526 H538 0.984 . S
N526 H539 0.985 . S
N527 C529 1.356 . S
N527 H532 0.984 . S
N527 H533 0.985 . S
C528 C522 1.379 . S
C528 C525 1.363 . S
C528 N526 1.356 . S
C529 C523 1.363 . S
C529 C524 1.379 . S
C529 N527 1.356 . S
N530 C522 1.356 . S
N530 H536 0.984 . S
N530 H537 0.984 . S
N531 C524 1.356 . S
N531 H534 0.984 . S
N531 H535 0.985 . S
H532 N527 0.984 . S
H533 N527 0.985 . S
H534 N531 0.984 . S
H535 N531 0.985 . S
H536 N530 0.984 . S
H537 N530 0.984 . S
H538 N526 0.984 . S
H539 N526 0.985 . S
C540 C541 1.363 . S
C540 C546 1.379 . S
C540 N548 1.356 . S
C541 C540 1.363 . S
C541 C547 1.363 . S
C542 C543 1.363 . S
C542 C547 1.379 . S
C542 N549 1.356 . S
C543 C542 1.363 . S
C543 C546 1.363 . S
N544 C546 1.356 . S
N544 H556 0.984 . S
N544 H557 0.985 . S
N545 C547 1.356 . S
N545 H550 0.984 . S
N545 H551 0.985 . S
C546 C540 1.379 . S
C546 C543 1.363 . S
C546 N544 1.356 . S
C547 C541 1.363 . S
C547 C542 1.379 . S
C547 N545 1.356 . S
N548 C540 1.356 . S
N548 H554 0.984 . S
N548 H555 0.984 . S
N549 C542 1.356 . S
N549 H552 0.984 . S
N549 H553 0.985 . S
H550 N545 0.984 . S
H551 N545 0.985 . S
H552 N549 0.984 . S
H553 N549 0.985 . S
H554 N548 0.984 . S
H555 N548 0.984 . S
H556 N544 0.984 . S
H557 N544 0.985 . S
C558 C559 1.363 1_565 S
C558 C564 1.379 . S
C558 N566 1.356 . S
C559 C558 1.363 1_545 S
C559 C565 1.363 . S
C560 C561 1.363 1_545 S
C560 C565 1.379 . S
C560 N567 1.356 . S
C561 C560 1.363 1_565 S
C561 C564 1.363 . S
N562 C564 1.356 . S
N562 H574 0.984 . S
N562 H575 0.985 . S
N563 C565 1.356 . S
N563 H568 0.984 . S
N563 H569 0.985 . S
C564 C558 1.379 . S
C564 C561 1.363 . S
C564 N562 1.356 . S
C565 C559 1.363 . S
C565 C560 1.379 . S
C565 N563 1.356 . S
N566 C558 1.356 . S
N566 H572 0.984 . S
N566 H573 0.984 . S
N567 C560 1.356 . S
N567 H570 0.984 . S
N567 H571 0.985 . S
H568 N563 0.984 . S
H569 N563 0.985 . S
H570 N567 0.984 . S
H571 N567 0.985 . S
H572 N566 0.984 . S
H573 N566 0.984 . S
H574 N562 0.984 . S
H575 N562 0.985 . S
C576 C577 1.363 1_556 S
C576 C582 1.379 . S
C576 N584 1.356 1_565 S
C577 C576 1.363 1_554 S
C577 C583 1.363 . S
C578 C579 1.363 1_554 S
C578 C583 1.379 . S
C578 N585 1.356 . S
C579 C578 1.363 1_556 S
C579 C582 1.363 . S
N580 C582 1.356 . S
N580 H592 0.984 . S
N580 H593 0.985 . S
N581 C583 1.356 . S
N581 H586 0.984 . S
N581 H587 0.985 . S
C582 C576 1.379 . S
C582 C579 1.363 . S
C582 N580 1.356 . S
C583 C577 1.363 . S
C583 C578 1.379 . S
C583 N581 1.356 . S
N584 C576 1.356 1_545 S
N584 H590 0.984 . S
N584 H591 0.984 1_556 S
N585 C578 1.356 . S
N585 H588 0.984 1_554 S
N585 H589 0.985 . S
H586 N581 0.984 . S
H587 N581 0.985 . S
H588 N585 0.984 1_556 S
H589 N585 0.985 . S
H590 N584 0.984 . S
H591 N584 0.984 1_554 S
H592 N580 0.984 . S
H593 N580 0.985 . S
C594 C595 1.363 1_556 S
C594 C600 1.379 . S
C594 N602 1.356 . S
C595 C594 1.363 1_554 S
C595 C601 1.363 . S
C596 C597 1.363 1_554 S
C596 C601 1.379 . S
C596 N603 1.356 . S
C597 C596 1.363 1_556 S
C597 C600 1.363 . S
N598 C600 1.356 . S
N598 H610 0.984 . S
N598 H611 0.985 . S
N599 C601 1.356 . S
N599 H604 0.984 . S
N599 H605 0.985 . S
C600 C594 1.379 . S
C600 C597 1.363 . S
C600 N598 1.356 . S
C601 C595 1.363 . S
C601 C596 1.379 . S
C601 N599 1.356 . S
N602 C594 1.356 . S
N602 H608 0.984 . S
N602 H609 0.984 . S
N603 C596 1.356 . S
N603 H606 0.984 . S
N603 H607 0.985 . S
H604 N599 0.984 . S
H605 N599 0.985 . S
H606 N603 0.984 . S
H607 N603 0.985 . S
H608 N602 0.984 . S
H609 N602 0.984 . S
H610 N598 0.984 . S
H611 N598 0.985 . S
C612 C613 1.363 1_556 S
C612 C618 1.379 . S
C612 N620 1.356 1_556 S
C613 C612 1.363 1_554 S
C613 C619 1.363 . S
C614 C615 1.375 . S
C614 C619 1.368 1_556 S
C614 N621 1.360 . S
C615 C614 1.375 . S
C615 C618 1.363 . S
N616 C618 1.356 . S
N616 H628 0.984 . S
N616 H629 0.985 . S
N617 C619 1.356 . S
N617 H622 0.984 . S
N617 H623 0.985 . S
C618 C612 1.379 . S
C618 C615 1.363 . S
C618 N616 1.356 . S
C619 C613 1.363 . S
C619 C614 1.368 1_554 S
C619 N617 1.356 . S
N620 C612 1.356 1_554 S
N620 H626 0.984 1_554 S
N620 H627 0.984 . S
N621 C614 1.360 . S
N621 H624 0.984 . S
N621 H625 0.985 1_556 S
H622 N617 0.984 . S
H623 N617 0.985 . S
H624 N621 0.984 . S
H625 N621 0.985 1_554 S
H626 N620 0.984 1_556 S
H627 N620 0.984 . S
H628 N616 0.984 . S
H629 N616 0.985 . S
C630 C631 1.363 . S
C630 C636 1.379 . S
C630 N638 1.356 . S
C631 C630 1.363 . S
C631 C637 1.363 1_556 S
C632 C633 1.363 . S
C632 C637 1.379 . S
C632 N639 1.356 . S
C633 C632 1.363 . S
C633 C636 1.363 1_554 S
N634 C636 1.356 . S
N634 H646 0.984 . S
N634 H647 0.985 . S
N635 C637 1.356 . S
N635 H640 0.984 . S
N635 H641 0.985 . S
C636 C630 1.379 . S
C636 C633 1.363 1_556 S
C636 N634 1.356 . S
C637 C631 1.363 1_554 S
C637 C632 1.379 . S
C637 N635 1.356 . S
N638 C630 1.356 . S
N638 H644 0.984 . S
N638 H645 0.984 . S
N639 C632 1.356 . S
N639 H642 0.984 . S
N639 H643 0.985 . S
H640 N635 0.984 . S
H641 N635 0.985 . S
H642 N639 0.984 . S
H643 N639 0.985 . S
H644 N638 0.984 . S
H645 N638 0.984 . S
H646 N634 0.984 . S
H647 N634 0.985 . S
C648 C649 1.363 . S
C648 C654 1.379 . S
C648 N656 1.356 . S
C649 C648 1.363 . S
C649 C655 1.363 1_554 S
C650 C651 1.363 . S
C650 C655 1.379 . S
C650 N657 1.356 . S
C651 C650 1.363 . S
C651 C654 1.363 1_556 S
N652 C654 1.356 . S
N652 H664 0.984 . S
N652 H665 0.985 . S
N653 C655 1.356 . S
N653 H658 0.984 1_556 S
N653 H659 0.985 . S
C654 C648 1.379 . S
C654 C651 1.363 1_554 S
C654 N652 1.356 . S
C655 C649 1.363 1_556 S
C655 C650 1.379 . S
C655 N653 1.356 . S
N656 C648 1.356 . S
N656 H662 0.984 . S
N656 H663 0.984 . S
N657 C650 1.356 . S
N657 H660 0.984 . S
N657 H661 0.985 . S
H658 N653 0.984 1_554 S
H659 N653 0.985 . S
H660 N657 0.984 . S
H661 N657 0.985 . S
H662 N656 0.984 . S
H663 N656 0.984 . S
H664 N652 0.984 . S
H665 N652 0.985 . S
C666 C667 1.363 . S
C666 C672 1.379 . S
C666 N674 1.356 . S
C667 C666 1.363 . S
C667 C673 1.363 1_556 S
C668 C669 1.363 . S
C668 C673 1.379 . S
C668 N675 1.356 . S
C669 C668 1.363 . S
C669 C672 1.363 1_554 S
N670 C672 1.356 . S
N670 H682 0.984 . S
N670 H683 0.985 . S
N671 C673 1.356 . S
N671 H676 0.984 . S
N671 H677 0.985 . S
C672 C666 1.379 . S
C672 C669 1.363 1_556 S
C672 N670 1.356 . S
C673 C667 1.363 1_554 S
C673 C668 1.379 . S
C673 N671 1.356 . S
N674 C666 1.356 . S
N674 H680 0.984 . S
N674 H681 0.984 . S
N675 C668 1.356 . S
N675 H678 0.984 . S
N675 H679 0.985 . S
H676 N671 0.984 . S
H677 N671 0.985 . S
H678 N675 0.984 . S
H679 N675 0.985 . S
H680 N674 0.984 . S
H681 N674 0.984 . S
H682 N670 0.984 . S
H683 N670 0.985 . S
C684 C685 1.363 . S
C684 C690 1.379 . S
C684 N692 1.356 . S
C685 C684 1.363 . S
C685 C691 1.363 . S
C686 C687 1.363 . S
C686 C691 1.379 . S
C686 N693 1.356 . S
C687 C686 1.363 . S
C687 C690 1.363 . S
N688 C690 1.356 . S
N688 H700 0.984 . S
N688 H701 0.985 . S
N689 C691 1.356 . S
N689 H694 0.984 . S
N689 H695 0.985 . S
C690 C684 1.379 . S
C690 C687 1.363 . S
C690 N688 1.356 . S
C691 C685 1.363 . S
C691 C686 1.379 . S
C691 N689 1.356 . S
N692 C684 1.356 . S
N692 H698 0.984 . S
N692 H699 0.984 . S
N693 C686 1.356 . S
N693 H696 0.984 . S
N693 H697 0.985 . S
H694 N689 0.984 . S
H695 N689 0.985 . S
H696 N693 0.984 . S
H697 N693 0.985 . S
H698 N692 0.984 . S
H699 N692 0.984 . S
H700 N688 0.984 . S
H701 N688 0.985 . S
C702 C703 1.363 . S
C702 C708 1.379 . S
C702 N710 1.356 . S
C703 C702 1.363 . S
C703 C709 1.363 . S
C704 C705 1.363 . S
C704 C709 1.379 . S
C704 N711 1.356 . S
C705 C704 1.363 . S
C705 C708 1.363 . S
N706 C708 1.356 . S
N706 H718 0.984 . S
N706 H719 0.985 . S
N707 C709 1.356 . S
N707 H712 0.984 . S
N707 H713 0.985 . S
C708 C702 1.379 . S
C708 C705 1.363 . S
C708 N706 1.356 . S
C709 C703 1.363 . S
C709 C704 1.379 . S
C709 N707 1.356 . S
N710 C702 1.356 . S
N710 H716 0.984 . S
N710 H717 0.984 . S
N711 C704 1.356 . S
N711 H714 0.984 . S
N711 H715 0.985 . S
H712 N707 0.984 . S
H713 N707 0.985 . S
H714 N711 0.984 . S
H715 N711 0.985 . S
H716 N710 0.984 . S
H717 N710 0.984 . S
H718 N706 0.984 . S
H719 N706 0.985 . S
C720 C721 1.363 . S
C720 C726 1.379 . S
C720 N728 1.356 . S
C721 C720 1.363 . S
C721 C727 1.363 . S
C722 C723 1.363 . S
C722 C727 1.379 . S
C722 N729 1.356 . S
C723 C722 1.363 . S
C723 C726 1.363 . S
N724 C726 1.356 . S
N724 H736 0.984 . S
N724 H737 0.985 . S
N725 C727 1.356 . S
N725 H730 0.984 . S
N725 H731 0.985 . S
C726 C720 1.379 . S
C726 C723 1.363 . S
C726 N724 1.356 . S
C727 C721 1.363 . S
C727 C722 1.379 . S
C727 N725 1.356 . S
N728 C720 1.356 . S
N728 H734 0.984 . S
N728 H735 0.984 . S
N729 C722 1.356 . S
N729 H732 0.984 . S
N729 H733 0.985 . S
H730 N725 0.984 . S
H731 N725 0.985 . S
H732 N729 0.984 . S
H733 N729 0.985 . S
H734 N728 0.984 . S
H735 N728 0.984 . S
H736 N724 0.984 . S
H737 N724 0.985 . S
C738 C739 1.363 . S
C738 C744 1.379 . S
C738 N746 1.356 . S
C739 C738 1.363 . S
C739 C745 1.363 . S
C740 C741 1.363 . S
C740 C745 1.379 . S
C740 N747 1.356 . S
C741 C740 1.363 . S
C741 C744 1.363 . S
N742 C744 1.356 . S
N742 H754 0.984 . S
N742 H755 0.985 . S
N743 C745 1.356 . S
N743 H748 0.984 . S
N743 H749 0.985 . S
C744 C738 1.379 . S
C744 C741 1.363 . S
C744 N742 1.356 . S
C745 C739 1.363 . S
C745 C740 1.379 . S
C745 N743 1.356 . S
N746 C738 1.356 . S
N746 H752 0.984 . S
N746 H753 0.984 . S
N747 C740 1.356 . S
N747 H750 0.984 . S
N747 H751 0.985 . S
H748 N743 0.984 . S
H749 N743 0.985 . S
H750 N747 0.984 . S
H751 N747 0.985 . S
H752 N746 0.984 . S
H753 N746 0.984 . S
H754 N742 0.984 . S
H755 N742 0.985 . S
C756 C757 1.363 . S
C756 C762 1.379 . S
C756 N764 1.356 . S
C757 C756 1.363 . S
C757 C763 1.363 . S
C758 C759 1.363 . S
C758 C763 1.379 . S
C758 N765 1.356 . S
C759 C758 1.363 . S
C759 C762 1.363 . S
N760 C762 1.356 1_565 S
N760 H772 0.984 . S
N760 H773 0.985 . S
N761 C763 1.356 . S
N761 H766 0.984 . S
N761 H767 0.985 . S
C762 C756 1.379 . S
C762 C759 1.363 . S
C762 N760 1.356 1_545 S
C763 C757 1.363 . S
C763 C758 1.379 . S
C763 N761 1.356 . S
N764 C756 1.356 . S
N764 H770 0.984 1_545 S
N764 H771 0.984 . S
N765 C758 1.356 . S
N765 H768 0.984 . S
N765 H769 0.985 . S
H766 N761 0.984 . S
H767 N761 0.985 . S
H768 N765 0.984 . S
H769 N765 0.985 . S
H770 N764 0.984 1_565 S
H771 N764 0.984 . S
H772 N760 0.984 . S
H773 N760 0.985 . S
C774 C775 1.363 . S
C774 C780 1.379 . S
C774 N782 1.356 . S
C775 C774 1.363 . S
C775 C781 1.363 . S
C776 C777 1.363 . S
C776 C781 1.379 . S
C776 N783 1.356 1_655 S
C777 C776 1.363 . S
C777 C780 1.363 . S
N778 C780 1.356 . S
N778 H790 0.984 . S
N778 H791 0.985 . S
N779 C781 1.356 1_455 S
N779 H784 0.984 1_455 S
N779 H785 0.985 . S
C780 C774 1.379 . S
C780 C777 1.363 . S
C780 N778 1.356 . S
C781 C775 1.363 . S
C781 C776 1.379 . S
C781 N779 1.356 1_655 S
N782 C774 1.356 . S
N782 H788 0.984 . S
N782 H789 0.984 . S
N783 C776 1.356 1_455 S
N783 H786 0.984 . S
N783 H787 0.985 . S
H784 N779 0.984 1_655 S
H785 N779 0.985 . S
H786 N783 0.984 . S
H787 N783 0.985 . S
H788 N782 0.984 . S
H789 N782 0.984 . S
H790 N778 0.984 . S
H791 N778 0.985 . S
C792 C793 1.363 . S
C792 C798 1.379 . S
C792 N800 1.356 . S
C793 C792 1.363 . S
C793 C799 1.363 . S
C794 C795 1.363 . S
C794 C799 1.379 . S
C794 N801 1.356 . S
C795 C794 1.363 . S
C795 C798 1.363 . S
N796 C798 1.356 . S
N796 H808 0.984 . S
N796 H809 0.985 . S
N797 C799 1.356 . S
N797 H802 0.984 . S
N797 H803 0.985 . S
C798 C792 1.379 . S
C798 C795 1.363 . S
C798 N796 1.356 . S
C799 C793 1.363 . S
C799 C794 1.379 . S
C799 N797 1.356 . S
N800 C792 1.356 . S
N800 H806 0.984 . S
N800 H807 0.984 . S
N801 C794 1.356 . S
N801 H804 0.984 . S
N801 H805 0.985 . S
H802 N797 0.984 . S
H803 N797 0.985 . S
H804 N801 0.984 . S
H805 N801 0.985 . S
H806 N800 0.984 . S
H807 N800 0.984 . S
H808 N796 0.984 . S
H809 N796 0.985 . S
C810 C811 1.363 . S
C810 C816 1.379 . S
C810 N818 1.356 . S
C811 C810 1.363 . S
C811 C817 1.363 . S
C812 C813 1.363 . S
C812 C817 1.379 . S
C812 N819 1.356 . S
C813 C812 1.363 . S
C813 C816 1.363 . S
N814 C816 1.356 . S
N814 H826 0.984 . S
N814 H827 0.985 . S
N815 C817 1.356 . S
N815 H820 0.984 . S
N815 H821 0.980 1_565 S
C816 C810 1.379 . S
C816 C813 1.363 . S
C816 N814 1.356 . S
C817 C811 1.363 . S
C817 C812 1.379 . S
C817 N815 1.356 . S
N818 C810 1.356 . S
N818 H824 0.984 . S
N818 H825 0.984 . S
N819 C812 1.356 . S
N819 H822 0.984 . S
N819 H823 0.985 . S
H820 N815 0.984 . S
H821 N815 0.980 1_545 S
H822 N819 0.984 . S
H823 N819 0.985 . S
H824 N818 0.984 . S
H825 N818 0.984 . S
H826 N814 0.984 . S
H827 N814 0.985 . S
C828 C829 1.363 . S
C828 C834 1.379 . S
C828 N836 1.356 . S
C829 C828 1.363 . S
C829 C835 1.363 . S
C830 C831 1.363 . S
C830 C835 1.379 . S
C830 N837 1.356 . S
C831 C830 1.363 . S
C831 C834 1.363 . S
N832 C834 1.356 . S
N832 H844 0.984 . S
N832 H845 0.985 . S
N833 C835 1.356 . S
N833 H838 0.984 . S
N833 H839 0.987 . S
C834 C828 1.379 . S
C834 C831 1.363 . S
C834 N832 1.356 . S
C835 C829 1.363 . S
C835 C830 1.379 . S
C835 N833 1.356 . S
N836 C828 1.356 . S
N836 H842 0.984 . S
N836 H843 0.984 . S
N837 C830 1.356 . S
N837 H840 0.984 . S
N837 H841 0.985 1_455 S
H838 N833 0.984 . S
H839 N833 0.987 . S
H840 N837 0.984 . S
H841 N837 0.985 1_655 S
H842 N836 0.984 . S
H843 N836 0.984 . S
H844 N832 0.984 . S
H845 N832 0.985 . S
C846 C847 1.363 . S
C846 C852 1.379 . S
C846 N854 1.356 . S
C847 C846 1.363 . S
C847 C853 1.363 . S
C848 C849 1.363 . S
C848 C853 1.379 . S
C848 N855 1.356 . S
C849 C848 1.363 . S
C849 C852 1.363 . S
N850 C852 1.356 . S
N850 H862 0.984 . S
N850 H863 0.985 . S
N851 C853 1.356 . S
N851 H856 0.984 . S
N851 H857 0.985 . S
C852 C846 1.379 . S
C852 C849 1.363 . S
C852 N850 1.356 . S
C853 C847 1.363 . S
C853 C848 1.379 . S
C853 N851 1.356 . S
N854 C846 1.356 . S
N854 H860 0.984 . S
N854 H861 0.984 . S
N855 C848 1.356 . S
N855 H858 0.984 . S
N855 H859 0.985 . S
H856 N851 0.984 . S
H857 N851 0.985 . S
H858 N855 0.984 . S
H859 N855 0.985 . S
H860 N854 0.984 . S
H861 N854 0.984 . S
H862 N850 0.984 . S
H863 N850 0.985 . S
C864 C865 1.363 . S
C864 C870 1.379 . S
C864 N872 1.356 . S
C865 C864 1.363 . S
C865 C871 1.363 . S
C866 C867 1.363 . S
C866 C871 1.379 . S
C866 N873 1.356 . S
C867 C866 1.363 . S
C867 C870 1.363 . S
N868 C870 1.356 . S
N868 H880 0.984 . S
N868 H881 0.985 . S
N869 C871 1.356 . S
N869 H874 0.984 . S
N869 H875 0.985 . S
C870 C864 1.379 . S
C870 C867 1.363 . S
C870 N868 1.356 . S
C871 C865 1.363 . S
C871 C866 1.379 . S
C871 N869 1.356 . S
N872 C864 1.356 . S
N872 H878 0.984 . S
N872 H879 0.984 . S
N873 C866 1.356 . S
N873 H876 0.984 . S
N873 H877 0.985 . S
H874 N869 0.984 . S
H875 N869 0.985 . S
H876 N873 0.984 . S
H877 N873 0.985 . S
H878 N872 0.984 . S
H879 N872 0.984 . S
H880 N868 0.984 . S
H881 N868 0.985 . S
C882 C883 1.363 . S
C882 C888 1.379 . S
C882 N890 1.356 . S
C883 C882 1.363 . S
C883 C889 1.363 . S
C884 C885 1.363 . S
C884 C889 1.379 . S
C884 N891 1.356 . S
C885 C884 1.363 . S
C885 C888 1.363 . S
N886 C888 1.356 . S
N886 H898 0.984 . S
N886 H899 0.985 . S
N887 C889 1.356 . S
N887 H892 0.984 . S
N887 H893 0.985 . S
C888 C882 1.379 . S
C888 C885 1.363 . S
C888 N886 1.356 . S
C889 C883 1.363 . S
C889 C884 1.379 . S
C889 N887 1.356 . S
N890 C882 1.356 . S
N890 H896 0.984 . S
N890 H897 0.984 . S
N891 C884 1.356 . S
N891 H894 0.984 . S
N891 H895 0.985 . S
H892 N887 0.984 . S
H893 N887 0.985 . S
H894 N891 0.984 . S
H895 N891 0.985 . S
H896 N890 0.984 . S
H897 N890 0.984 . S
H898 N886 0.984 . S
H899 N886 0.985 . S
C253 C7 1.765 . S
C255 C49 1.765 . S
C271 C21 1.776 . S
C273 C63 1.776 . S
C289 C77 1.768 . S
C291 C35 1.768 . S
C307 C91 1.741 . S
C309 C133 1.742 . S
C325 C105 1.771 . S
C327 C147 1.769 . S
C343 C161 1.729 . S
C345 C119 1.730 . S
C361 C217 1.741 . S
C363 C175 1.742 . S
C379 C231 1.771 . S
C381 C189 1.769 . S
C397 C245 1.731 . S
C399 C203 1.728 . S
C415 C6 1.466 . S
C417 C132 1.466 . S
C433 C20 1.472 . S
C435 C146 1.472 . S
C451 C160 1.483 . S
C453 C34 1.481 . S
C469 C48 1.466 . S
C471 C174 1.466 . S
C487 C62 1.472 . S
C489 C188 1.472 . S
C505 C76 1.481 . S
C507 C202 1.483 . S
C523 C90 1.492 . S
C525 C216 1.493 . S
C541 C104 1.479 . S
C543 C230 1.479 . S
C559 C244 1.468 . S
C561 C118 1.466 . S
C577 C9 1.115 . S
C579 C64 1.105 . S
C595 C23 1.106 . S
C597 C78 1.096 . S
C613 C37 1.112 . S
C615 C50 1.104 . S
C631 C51 1.115 . S
C633 C22 1.105 . S
C649 C36 1.096 . S
C651 C65 1.106 . S
C667 C79 1.112 . S
C669 C8 1.104 . S
C685 C93 1.188 . S
C687 C148 1.172 . S
C703 C162 1.096 . S
C705 C107 1.104 . S
C721 C134 1.161 . S
C723 C121 1.183 . S
C739 C106 1.106 . S
C741 C135 1.115 . S
C757 C149 1.118 . S
C759 C120 1.108 . S
C775 C163 1.067 . S
C777 C92 1.065 . S
C793 C232 1.106 . S
C795 C177 1.115 . S
C811 C246 1.109 . S
C813 C191 1.116 . S
C829 C205 1.067 . S
C831 C218 1.065 . S
C847 C190 1.171 . S
C849 C219 1.189 . S
C865 C204 1.096 . S
C867 C233 1.104 . S
C883 C176 1.161 . S
C885 C247 1.183 . S
