# Generated by pormake.
# Topology unm, (4)-cn, num edge types: 1
# Building blocks:
#     Node 0, Type 0, BuildingBlock: AZAVOO_clean_sbu_0, # of connection points: 4
#     Node 1, Type 0, BuildingBlock: AZAVOO_clean_sbu_0, # of connection points: 4
#     Node 2, Type 0, BuildingBlock: AZAVOO_clean_sbu_0, # of connection points: 4
#     Node 3, Type 0, BuildingBlock: AZAVOO_clean_sbu_0, # of connection points: 4
#     Node 4, Type 0, BuildingBlock: AZAVOO_clean_sbu_0, # of connection points: 4
#     Node 5, Type 0, BuildingBlock: AZAVOO_clean_sbu_0, # of connection points: 4
#     Node 6, Type 0, BuildingBlock: AZAVOO_clean_sbu_0, # of connection points: 4
#     Node 7, Type 0, BuildingBlock: AZAVOO_clean_sbu_0, # of connection points: 4
#     Edge 8, Type (0, 0), BuildingBlock: UVAHIK_clean_linker_0, # of connection points: 2
#     Edge 9, Type (0, 0), BuildingBlock: UVAHIK_clean_linker_0, # of connection points: 2
#     Edge 10, Type (0, 0), BuildingBlock: UVAHIK_clean_linker_0, # of connection points: 2
#     Edge 11, Type (0, 0), BuildingBlock: UVAHIK_clean_linker_0, # of connection points: 2
#     Edge 12, Type (0, 0), BuildingBlock: UVAHIK_clean_linker_0, # of connection points: 2
#     Edge 13, Type (0, 0), BuildingBlock: UVAHIK_clean_linker_0, # of connection points: 2
#     Edge 14, Type (0, 0), BuildingBlock: UVAHIK_clean_linker_0, # of connection points: 2
#     Edge 15, Type (0, 0), BuildingBlock: UVAHIK_clean_linker_0, # of connection points: 2
#     Edge 16, Type (0, 0), BuildingBlock: UVAHIK_clean_linker_0, # of connection points: 2
#     Edge 17, Type (0, 0), BuildingBlock: UVAHIK_clean_linker_0, # of connection points: 2
#     Edge 18, Type (0, 0), BuildingBlock: UVAHIK_clean_linker_0, # of connection points: 2
#     Edge 19, Type (0, 0), BuildingBlock: UVAHIK_clean_linker_0, # of connection points: 2
#     Edge 20, Type (0, 0), BuildingBlock: UVAHIK_clean_linker_0, # of connection points: 2
#     Edge 21, Type (0, 0), BuildingBlock: UVAHIK_clean_linker_0, # of connection points: 2
#     Edge 22, Type (0, 0), BuildingBlock: UVAHIK_clean_linker_0, # of connection points: 2
#     Edge 23, Type (0, 0), BuildingBlock: UVAHIK_clean_linker_0, # of connection points: 2
# Relax obj value: 0.175
# Max RMSD: 0.157
# Mean RMSD: 0.157
data_MOF--net-unm--node1-AZAVOO_clean_sbu_0--edge1-UVAHIK_clean_linker_0
_symmetry_space_group_name_H-M    P1
_symmetry_Int_Tables_number       1
_symmetry_cell_setting            triclinic
loop_
_symmetry_equiv_pos_as_xyz
'x, y, z'
_cell_length_a     33.650979
_cell_length_b     33.688544
_cell_length_c     57.447772
_cell_angle_alpha  89.688011
_cell_angle_beta   89.756313
_cell_angle_gamma 90.004797
loop_
_atom_site_label
_atom_site_type_symbol
_atom_site_fract_x
_atom_site_fract_y
_atom_site_fract_z
_atom_type_partial_charge
Mg0 Mg 0.05754 0.21727 0.12729 0.0
O1 O 0.04648 0.27969 0.1123 0.0
O2 O 0.09778 0.29637 0.08952 0.0
Mg3 Mg 0.14156 0.24467 0.08971 0.0
C4 C 0.0643 0.30436 0.0989 0.0
C5 C 0.99003 0.19408 0.16059 0.0
O6 O 0.00715 0.15979 0.15638 0.0
O7 O 0.10302 0.24258 0.1528 0.0
O8 O 0.15324 0.25651 0.12833 0.0
O9 O 0.03018 0.18838 0.0963 0.0
O10 O 0.09391 0.20295 0.0993 0.0
C11 C 0.13825 0.25525 0.1488 0.0
C12 C 0.06537 0.18866 0.0871 0.0
O13 O 0.0052 0.22543 0.15195 0.0
Mg14 Mg 0.29418 0.56315 0.6271 0.0
O15 O 0.23182 0.55482 0.61215 0.0
O16 O 0.21869 0.60348 0.58687 0.0
Mg17 Mg 0.27446 0.64241 0.58441 0.0
C18 C 0.2084 0.57219 0.59798 0.0
C19 C 0.26988 0.4815 0.64622 0.0
O20 O 0.26512 0.47783 0.62365 0.0
O21 O 0.27089 0.61467 0.6498 0.0
O22 O 0.26527 0.66136 0.62209 0.0
O23 O 0.32272 0.52971 0.59741 0.0
O24 O 0.31203 0.59417 0.5975 0.0
C25 C 0.26392 0.6505 0.64342 0.0
C26 C 0.32511 0.56354 0.58673 0.0
O27 O 0.28099 0.51486 0.65422 0.0
Mg28 Mg 0.92535 0.79367 0.12516 0.0
O29 O 0.936 0.73033 0.1117 0.0
O30 O 0.88995 0.71644 0.08502 0.0
Mg31 Mg 0.84974 0.77071 0.08098 0.0
C32 C 0.92019 0.70662 0.09711 0.0
C33 C 0.00415 0.79974 0.15177 0.0
O34 O 0.0095 0.82345 0.13382 0.0
O35 O 0.87201 0.77113 0.14687 0.0
O36 O 0.82818 0.76099 0.11834 0.0
O37 O 0.96215 0.81973 0.09603 0.0
O38 O 0.89776 0.80828 0.0938 0.0
C39 C 0.83731 0.7612 0.1399 0.0
C40 C 0.93008 0.81947 0.08378 0.0
O41 O 0.97062 0.78272 0.15434 0.0
Mg42 Mg 0.71496 0.43628 0.62448 0.0
O43 O 0.77945 0.44667 0.61207 0.0
O44 O 0.79769 0.39541 0.58993 0.0
Mg45 Mg 0.7458 0.35194 0.58833 0.0
C46 C 0.80514 0.42868 0.59951 0.0
C47 C 0.73014 0.52136 0.64137 0.0
O48 O 0.73877 0.52385 0.61908 0.0
O49 O 0.73653 0.39011 0.65106 0.0
O50 O 0.75307 0.34007 0.62737 0.0
O51 O 0.69005 0.46462 0.5923 0.0
O52 O 0.70483 0.40093 0.59566 0.0
C53 C 0.74944 0.35488 0.64769 0.0
C54 C 0.69278 0.42994 0.58287 0.0
O55 O 0.72009 0.48786 0.64986 0.0
Mg56 Mg 0.55906 0.26757 0.3182 0.0
O57 O 0.54514 0.20549 0.33318 0.0
O58 O 0.59609 0.18617 0.35526 0.0
Mg59 Mg 0.64296 0.23495 0.35431 0.0
C60 C 0.562 0.17995 0.34637 0.0
C61 C 0.47158 0.27069 0.30233 0.0
O62 O 0.46896 0.28164 0.32417 0.0
O63 O 0.60232 0.24019 0.2918 0.0
O64 O 0.65209 0.22253 0.31552 0.0
O65 O 0.53502 0.29755 0.35008 0.0
O66 O 0.5975 0.27944 0.34575 0.0
C67 C 0.63663 0.22501 0.2953 0.0
C68 C 0.57037 0.29488 0.35866 0.0
O69 O 0.50555 0.26198 0.29396 0.0
Mg70 Mg 0.2019 0.06163 0.81985 0.0
O71 O 0.26559 0.05155 0.83318 0.0
O72 O 0.28044 0.10017 0.858 0.0
Mg73 Mg 0.22673 0.14141 0.86084 0.0
C74 C 0.28975 0.0686 0.84704 0.0
C75 C 0.19279 0.98107 0.79567 0.0
O76 O 0.16875 0.97808 0.81365 0.0
O77 O 0.22429 0.11225 0.79609 0.0
O78 O 0.23571 0.15914 0.82267 0.0
O79 O 0.17619 0.02802 0.85022 0.0
O80 O 0.18829 0.0924 0.85026 0.0
C81 C 0.23473 0.14754 0.80154 0.0
C82 C 0.17691 0.06117 0.86137 0.0
O83 O 0.21126 0.01358 0.79224 0.0
Mg84 Mg 0.42448 0.69294 0.31701 0.0
O85 O 0.43334 0.75563 0.33146 0.0
O86 O 0.38718 0.76697 0.35868 0.0
Mg87 Mg 0.35022 0.71015 0.36296 0.0
C88 C 0.41681 0.77834 0.34638 0.0
C89 C 0.49652 0.68275 0.28532 0.0
O90 O 0.49633 0.65038 0.29819 0.0
O91 O 0.36949 0.71472 0.29694 0.0
O92 O 0.32556 0.71917 0.3262 0.0
O93 O 0.46393 0.66644 0.34441 0.0
O94 O 0.39925 0.67531 0.34849 0.0
C95 C 0.33422 0.72096 0.30453 0.0
C96 C 0.43253 0.66453 0.35739 0.0
O97 O 0.46809 0.70734 0.2876 0.0
Mg98 Mg 0.77739 0.93207 0.81666 0.0
O99 O 0.71603 0.9424 0.83303 0.0
O100 O 0.70082 0.89112 0.85612 0.0
Mg101 Mg 0.7535 0.84821 0.85533 0.0
C102 C 0.69211 0.92446 0.84681 0.0
C103 C 0.76528 0.01838 0.80104 0.0
O104 O 0.76962 0.02136 0.82367 0.0
O105 O 0.75062 0.88585 0.79204 0.0
O106 O 0.74022 0.83557 0.81698 0.0
O107 O 0.80848 0.95968 0.84702 0.0
O108 O 0.79416 0.89602 0.84453 0.0
C109 C 0.73956 0.85022 0.79641 0.0
C110 C 0.80904 0.92466 0.85635 0.0
O111 O 0.766 0.9841 0.79184 0.0
C112 C 0.11158 0.17376 0.05426 0.0
C113 C 0.07315 0.17195 0.0638 0.0
C114 C 0.12023 0.15535 0.03321 0.0
C115 C 0.07488 0.11474 -0.01988 0.0
H116 H 0.17971 0.06819 -0.02691 0.0
C117 C 0.13141 0.04399 0.89421 0.0
C118 C 0.16579 0.06323 0.88606 0.0
C119 C 0.11826 0.04989 0.91707 0.0
C120 C 0.15025 0.0808 -0.0251 0.0
H121 H 0.01344 0.14954 0.0586 0.0
H122 H 0.02877 0.11661 0.02181 0.0
H123 H 0.1587 0.09311 0.01095 0.0
H124 H 0.21502 0.10113 0.89554 0.0
H125 H 0.19258 0.11089 0.93553 0.0
H126 H 0.06683 0.10245 0.94385 0.0
C127 C 0.05207 0.13286 0.03053 0.0
C128 C 0.13828 0.09538 -0.00352 0.0
C129 C 0.0433 0.1517 0.05161 0.0
C130 C 0.18802 0.08664 0.90132 0.0
C131 C 0.17541 0.09185 0.92424 0.0
C132 C 0.08672 0.09965 0.95855 0.0
C133 C 0.09082 0.13409 0.02126 0.0
C134 C 0.10102 0.1138 -0.00085 0.0
C135 C 0.14 0.07423 0.93216 0.0
C136 C 0.12495 0.08371 0.95564 0.0
H137 H 0.13538 0.18885 0.06317 0.0
H138 H 0.15013 0.15783 0.02631 0.0
H139 H 0.04607 0.12887 -0.01846 0.0
H140 H 0.11383 0.02582 0.88264 0.0
H141 H 0.09093 0.03595 0.92287 0.0
C142 C 0.34686 0.60591 0.55346 0.0
C143 C 0.34273 0.56782 0.56322 0.0
C144 C 0.36522 0.61127 0.53196 0.0
C145 C 0.39159 0.56103 0.47761 0.0
H146 H 0.45205 0.65802 0.46834 0.0
C147 C 0.45341 0.616 0.38788 0.0
C148 C 0.4346 0.65176 0.38181 0.0
C149 C 0.45096 0.60151 0.41073 0.0
C150 C 0.43571 0.63058 0.47077 0.0
H151 H 0.35484 0.50529 0.55797 0.0
H152 H 0.38758 0.51477 0.52007 0.0
H153 H 0.4315 0.63858 0.50752 0.0
H154 H 0.40072 0.70167 0.39472 0.0
H155 H 0.39754 0.67711 0.43478 0.0
H156 H 0.39553 0.55371 0.44056 0.0
C157 C 0.37608 0.54043 0.52916 0.0
C158 C 0.42364 0.61956 0.49312 0.0
C159 C 0.35737 0.535 0.55083 0.0
C160 C 0.41505 0.67382 0.399 0.0
C161 C 0.41348 0.65993 0.42187 0.0
C162 C 0.40425 0.57182 0.45521 0.0
C163 C 0.38053 0.57877 0.51963 0.0
C164 C 0.39988 0.58566 0.49667 0.0
C165 C 0.43071 0.62332 0.42782 0.0
C166 C 0.42504 0.60748 0.45158 0.0
H167 H 0.33644 0.63198 0.56254 0.0
H168 H 0.36714 0.64111 0.52493 0.0
H169 H 0.37329 0.53481 0.47974 0.0
H170 H 0.46846 0.59848 0.37476 0.0
H171 H 0.4644 0.57319 0.41502 0.0
C172 C 0.91003 0.80654 0.043 0.0
C173 C 0.93043 0.83018 0.05899 0.0
C174 C 0.90633 0.81877 0.0199 0.0
C175 C 0.89614 0.90719 -0.01452 0.0
H176 H 0.90905 0.83574 0.93331 0.0
C177 C 0.84536 0.94804 0.89181 0.0
C178 C 0.82671 0.91735 0.87949 0.0
C179 C 0.86437 0.9401 0.91297 0.0
C180 C 0.90504 0.856 0.9477 0.0
H181 H 0.96421 0.88424 0.06357 0.0
H182 H 0.95672 0.90644 0.02296 0.0
H183 H 0.93305 0.81603 0.97166 0.0
H184 H 0.81321 0.85435 0.87982 0.0
H185 H 0.84462 0.84092 0.91682 0.0
H186 H 0.86609 0.94626 0.96191 0.0
C187 C 0.94397 0.8783 0.02833 0.0
C188 C 0.91909 0.8448 0.96957 0.0
C189 C 0.94839 0.86558 0.05141 0.0
C190 C 0.82698 0.87879 0.88887 0.0
C191 C 0.84562 0.87094 0.91 0.0
C192 C 0.88163 0.91825 0.96362 0.0
C193 C 0.92243 0.85518 0.01249 0.0
C194 C 0.91384 0.86984 -0.01124 0.0
C195 C 0.86497 0.90133 0.92219 0.0
C196 C 0.88487 0.89223 0.94464 0.0
H197 H 0.89656 0.77879 0.04838 0.0
H198 H 0.88941 0.8005 0.00805 0.0
H199 H 0.89148 0.92687 9e-05 0.0
H200 H 0.8459 0.97803 0.88494 0.0
H201 H 0.87917 0.96416 0.92186 0.0
C202 C 0.55101 0.32961 0.39555 0.0
C203 C 0.57952 0.30894 0.38236 0.0
C204 C 0.56074 0.34468 0.41746 0.0
C205 C 0.62831 0.32915 0.46593 0.0
H206 H 0.61485 0.44097 0.47965 0.0
C207 C 0.70366 0.39634 0.545 0.0
C208 C 0.68188 0.42325 0.55847 0.0
C209 C 0.6902 0.38526 0.52308 0.0
C210 C 0.61831 0.40959 0.47623 0.0
H211 H 0.64069 0.28844 0.38181 0.0
H212 H 0.65699 0.31335 0.42013 0.0
H213 H 0.59033 0.41439 0.4428 0.0
H214 H 0.63016 0.4614 0.55938 0.0
H215 H 0.60575 0.44124 0.52115 0.0
H216 H 0.65563 0.32373 0.4992 0.0
C217 C 0.62718 0.31784 0.41354 0.0
C218 C 0.60427 0.39444 0.45516 0.0
C219 C 0.61773 0.30343 0.39159 0.0
C220 C 0.64746 0.4406 0.5492 0.0
C221 C 0.63356 0.42904 0.52734 0.0
C222 C 0.64187 0.34409 0.48701 0.0
C223 C 0.59889 0.33871 0.42663 0.0
C224 C 0.60986 0.35425 0.44971 0.0
C225 C 0.65424 0.40036 0.51432 0.0
C226 C 0.63783 0.38464 0.49224 0.0
H227 H 0.52141 0.33465 0.38882 0.0
H228 H 0.53844 0.36068 0.42731 0.0
H229 H 0.63246 0.29792 0.46222 0.0
H230 H 0.73092 0.38346 0.55148 0.0
H231 H 0.70767 0.36423 0.51317 0.0
C232 C 0.16368 0.24326 0.18909 0.0
C233 C 0.16464 0.26538 0.16832 0.0
C234 C 0.19431 0.24704 0.20536 0.0
C235 C 0.2999 0.27792 0.20688 0.0
H236 H 0.28817 0.26114 0.27332 0.0
C237 C 0.43605 0.25256 0.26555 0.0
C238 C 0.43547 0.2698 0.28774 0.0
C239 C 0.4018 0.25236 0.25185 0.0
C240 C 0.29198 0.26629 0.25482 0.0
H241 H 0.19603 0.3113 0.14917 0.0
H242 H 0.2482 0.31941 0.17794 0.0
H243 H 0.22923 0.26443 0.2489 0.0
H244 H 0.39851 0.30043 0.31295 0.0
H245 H 0.33934 0.30114 0.28887 0.0
H246 H 0.3624 0.28112 0.21279 0.0
C247 C 0.225 0.29784 0.18133 0.0
C248 C 0.25814 0.26772 0.24078 0.0
C249 C 0.19488 0.29354 0.16494 0.0
C250 C 0.39993 0.2867 0.29597 0.0
C251 C 0.36584 0.28687 0.2822 0.0
C252 C 0.33361 0.27688 0.22092 0.0
C253 C 0.22608 0.27344 0.20126 0.0
C254 C 0.26167 0.27348 0.2166 0.0
C255 C 0.36631 0.26979 0.25993 0.0
C256 C 0.33018 0.27086 0.24506 0.0
H257 H 0.14082 0.22112 0.19203 0.0
H258 H 0.19417 0.22763 0.22044 0.0
H259 H 0.30399 0.28158 0.18829 0.0
H260 H 0.46291 0.23904 0.2588 0.0
H261 H 0.40311 0.23828 0.23496 0.0
C262 C 0.26368 0.72157 0.6547 0.0
C263 C 0.25601 0.68183 0.66081 0.0
C264 C 0.25572 0.75215 0.67018 0.0
C265 C 0.23689 0.77493 0.7321 0.0
H266 H 0.19776 0.87363 0.7056 0.0
C267 C 0.18435 0.90887 0.78725 0.0
C268 C 0.1991 0.94629 0.78046 0.0
C269 C 0.1905 0.87561 0.7733 0.0
C270 C 0.20894 0.84636 0.71321 0.0
H271 H 0.23465 0.64297 0.6883 0.0
H272 H 0.21954 0.69702 0.71547 0.0
H273 H 0.20809 0.81651 0.68057 0.0
H274 H 0.23181 0.97814 0.75367 0.0
H275 H 0.24205 0.91992 0.72904 0.0
H276 H 0.23686 0.80507 0.7649 0.0
C277 C 0.23229 0.70425 0.69864 0.0
C278 C 0.21496 0.81358 0.6989 0.0
C279 C 0.24079 0.67331 0.6831 0.0
C280 C 0.22003 0.94975 0.75935 0.0
C281 C 0.22577 0.91649 0.74523 0.0
C282 C 0.23037 0.80771 0.74651 0.0
C283 C 0.23928 0.74411 0.6922 0.0
C284 C 0.22975 0.77766 0.70804 0.0
C285 C 0.21113 0.8791 0.75212 0.0
C286 C 0.21691 0.8439 0.73711 0.0
H287 H 0.27619 0.72923 0.63785 0.0
H288 H 0.26276 0.78223 0.66484 0.0
H289 H 0.2486 0.74791 0.73971 0.0
H290 H 0.16819 0.90511 0.80345 0.0
H291 H 0.17861 0.84724 0.77892 0.0
C292 C 0.56281 0.66459 0.26866 0.0
C293 C 0.53127 0.69183 0.27029 0.0
C294 C 0.59689 0.67379 0.25577 0.0
C295 C 0.63347 0.73825 0.20843 0.0
H296 H 0.73722 0.7074 0.23161 0.0
C297 C 0.76951 0.73505 0.14871 0.0
C298 C 0.80543 0.75111 0.15685 0.0
C299 C 0.73754 0.72885 0.16376 0.0
C300 C 0.70852 0.71653 0.22502 0.0
H301 H 0.51074 0.75006 0.25947 0.0
H302 H 0.57037 0.76615 0.23691 0.0
H303 H 0.67809 0.69589 0.2556 0.0
H304 H 0.83628 0.77178 0.18755 0.0
H305 H 0.77992 0.76079 0.21407 0.0
H306 H 0.66375 0.759 0.17792 0.0
C307 C 0.56856 0.73753 0.24552 0.0
C308 C 0.6746 0.70957 0.23863 0.0
C309 C 0.5344 0.72833 0.25846 0.0
C310 C 0.80905 0.75939 0.18072 0.0
C311 C 0.7768 0.7531 0.19589 0.0
C312 C 0.66729 0.7451 0.19483 0.0
C313 C 0.60032 0.71044 0.24416 0.0
C314 C 0.63663 0.7199 0.23035 0.0
C315 C 0.74044 0.73852 0.18741 0.0
C316 C 0.70513 0.73377 0.2028 0.0
H317 H 0.56139 0.63615 0.27751 0.0
H318 H 0.62045 0.65195 0.25473 0.0
H319 H 0.60473 0.74637 0.20146 0.0
H320 H 0.76569 0.72773 0.13052 0.0
H321 H 0.71033 0.71661 0.15678 0.0
C322 C 0.73127 0.3272 0.68679 0.0
C323 C 0.75727 0.32834 0.66763 0.0
C324 C 0.73361 0.29615 0.70304 0.0
C325 C 0.77138 0.19268 0.70654 0.0
H326 H 0.74013 0.20097 0.7713 0.0
C327 C 0.74981 0.05281 0.7633 0.0
C328 C 0.76201 0.0547 0.78659 0.0
C329 C 0.74803 0.08728 0.74965 0.0
C330 C 0.74937 0.19812 0.75331 0.0
H331 H 0.80815 0.30031 0.65143 0.0
H332 H 0.81386 0.24767 0.68037 0.0
H333 H 0.74349 0.26059 0.74725 0.0
H334 H 0.78183 0.09422 0.81389 0.0
H335 H 0.78022 0.15383 0.78998 0.0
H336 H 0.77897 0.13064 0.71273 0.0
C337 C 0.7904 0.26938 0.6824 0.0
C338 C 0.7508 0.23235 0.73942 0.0
C339 C 0.7875 0.29983 0.66596 0.0
C340 C 0.77206 0.09176 0.79602 0.0
C341 C 0.77086 0.12609 0.78231 0.0
C342 C 0.77047 0.15863 0.72047 0.0
C343 C 0.76245 0.2661 0.7006 0.0
C344 C 0.76187 0.23009 0.71583 0.0
C345 C 0.75903 0.12435 0.75889 0.0
C346 C 0.75935 0.16079 0.74404 0.0
H347 H 0.70745 0.34867 0.68832 0.0
H348 H 0.71144 0.29461 0.71672 0.0
H349 H 0.77916 0.18942 0.68835 0.0
H350 H 0.74154 0.02472 0.75561 0.0
H351 H 0.73796 0.0848 0.73184 0.0
C352 C 0.68547 0.17911 0.27747 0.0
C353 C 0.66184 0.21323 0.27552 0.0
C354 C 0.71672 0.17263 0.26193 0.0
C355 C 0.76696 0.21107 0.20806 0.0
H356 H 0.86092 0.1731 0.24013 0.0
C357 C 0.92768 0.22955 0.17246 0.0
C358 C 0.95184 0.19552 0.1734 0.0
C359 C 0.89045 0.22983 0.18339 0.0
C360 C 0.83487 0.18338 0.23087 0.0
H361 H 0.65054 0.2662 0.25515 0.0
H362 H 0.70614 0.25584 0.22839 0.0
H363 H 0.79778 0.17516 0.26064 0.0
H364 H 0.95612 0.13534 0.18676 0.0
H365 H 0.89153 0.13619 0.20622 0.0
H366 H 0.80512 0.22069 0.17852 0.0
C367 C 0.7001 0.23343 0.24151 0.0
C368 C 0.79848 0.18431 0.24255 0.0
C369 C 0.66816 0.23943 0.25681 0.0
C370 C 0.93826 0.16204 0.18576 0.0
C371 C 0.90131 0.16251 0.19692 0.0
C372 C 0.80362 0.21058 0.19644 0.0
C373 C 0.7258 0.20078 0.24452 0.0
C374 C 0.76395 0.19809 0.23133 0.0
C375 C 0.87694 0.1963 0.19572 0.0
C376 C 0.8379 0.19672 0.20777 0.0
H377 H 0.68094 0.15838 0.29173 0.0
H378 H 0.73494 0.14644 0.26431 0.0
H379 H 0.74102 0.22153 0.19878 0.0
H380 H 0.93722 0.25576 0.16296 0.0
H381 H 0.87241 0.25641 0.18241 0.0
C382 C 0.25105 0.41035 0.65248 0.0
C383 C 0.26513 0.44636 0.6616 0.0
C384 C 0.24886 0.3763 0.66643 0.0
C385 C 0.29174 0.33186 0.71933 0.0
H386 H 0.20037 0.26181 0.71717 0.0
C387 C 0.26143 0.21367 0.78943 0.0
C388 C 0.24413 0.17726 0.78318 0.0
C389 C 0.26669 0.24385 0.77302 0.0
C390 C 0.22642 0.28066 0.71768 0.0
H391 H 0.28715 0.47499 0.6927 0.0
H392 H 0.28314 0.41551 0.71712 0.0
H393 H 0.20253 0.32069 0.69223 0.0
H394 H 0.22012 0.14359 0.75441 0.0
H395 H 0.2297 0.19654 0.7255 0.0
H396 H 0.3156 0.29207 0.74482 0.0
C397 C 0.27424 0.41357 0.69906 0.0
C398 C 0.22757 0.31451 0.70346 0.0
C399 C 0.27625 0.44773 0.68513 0.0
C400 C 0.23353 0.17127 0.75981 0.0
C401 C 0.23871 0.2017 0.74331 0.0
C402 C 0.29066 0.29799 0.73346 0.0
C403 C 0.26086 0.37738 0.6898 0.0
C404 C 0.26002 0.34077 0.70437 0.0
C405 C 0.25487 0.23855 0.74984 0.0
C406 C 0.25773 0.27228 0.73308 0.0
H407 H 0.2422 0.40824 0.63443 0.0
H408 H 0.2387 0.34886 0.65872 0.0
H409 H 0.31755 0.35102 0.72007 0.0
H410 H 0.27014 0.21938 0.80723 0.0
H411 H 0.27875 0.27193 0.77877 0.0
C412 C 0.3087 0.74232 0.26517 0.0
C413 C 0.30142 0.72929 0.28807 0.0
C414 C 0.27696 0.75051 0.25014 0.0
C415 C 0.1677 0.7702 0.25091 0.0
H416 H 0.17512 0.74534 0.18524 0.0
C417 C 0.032 0.77151 0.18894 0.0
C418 C 0.03768 0.79178 0.16774 0.0
C419 C 0.06428 0.76402 0.20365 0.0
C420 C 0.17274 0.75259 0.20354 0.0
H421 H 0.25508 0.71344 0.31286 0.0
H422 H 0.20042 0.72628 0.28669 0.0
H423 H 0.23178 0.73234 0.21055 0.0
H424 H 0.08173 0.81977 0.1453 0.0
H425 H 0.13775 0.80627 0.1708 0.0
H426 H 0.10828 0.78958 0.24388 0.0
C427 C 0.23034 0.73165 0.28043 0.0
C428 C 0.20528 0.74538 0.21803 0.0
C429 C 0.26186 0.72401 0.29545 0.0
C430 C 0.07624 0.80417 0.16154 0.0
C431 C 0.10845 0.79624 0.17605 0.0
C432 C 0.13505 0.7769 0.23647 0.0
C433 C 0.23732 0.74537 0.25764 0.0
C434 C 0.20318 0.75401 0.24194 0.0
C435 C 0.10284 0.77614 0.19726 0.0
C436 C 0.13723 0.7682 0.21266 0.0
H437 H 0.33883 0.74677 0.25899 0.0
H438 H 0.28351 0.76143 0.23279 0.0
H439 H 0.16517 0.77809 0.2691 0.0
H440 H 0.00268 0.76158 0.19419 0.0
H441 H 0.05919 0.74828 0.21989 0.0
C442 C 0.71493 0.55653 0.67875 0.0
C443 C 0.72954 0.55763 0.65581 0.0
C444 C 0.71246 0.59131 0.69185 0.0
C445 C 0.75342 0.69223 0.69641 0.0
H446 H 0.66 0.71083 0.73456 0.0
C447 C 0.74024 0.83144 0.75406 0.0
C448 C 0.72871 0.82329 0.77715 0.0
C449 C 0.73552 0.80267 0.73676 0.0
C450 C 0.68633 0.70604 0.72405 0.0
H451 H 0.75361 0.59604 0.62876 0.0
H452 H 0.74941 0.6566 0.65167 0.0
H453 H 0.66301 0.6523 0.70981 0.0
H454 H 0.70067 0.77963 0.79979 0.0
H455 H 0.69278 0.72983 0.76991 0.0
H456 H 0.77725 0.74533 0.71111 0.0
C457 C 0.73994 0.62886 0.65953 0.0
C458 C 0.68809 0.67245 0.70993 0.0
C459 C 0.74222 0.59414 0.64639 0.0
C460 C 0.71018 0.78683 0.78223 0.0
C461 C 0.70535 0.75828 0.76501 0.0
C462 C 0.75173 0.72577 0.71061 0.0
C463 C 0.72475 0.62789 0.68234 0.0
C464 C 0.72193 0.66482 0.69626 0.0
C465 C 0.7189 0.76538 0.74221 0.0
C466 C 0.71846 0.73269 0.72492 0.0
H467 H 0.70494 0.5289 0.68652 0.0
H468 H 0.70118 0.58951 0.70951 0.0
H469 H 0.78002 0.68703 0.6862 0.0
H470 H 0.75456 0.85926 0.74957 0.0
H471 H 0.74576 0.80924 0.71927 0.0
C472 C 0.96838 0.65305 0.10859 0.0
C473 C 0.93642 0.66585 0.09475 0.0
C474 C 0.98227 0.61401 0.10716 0.0
C475 C 0.01901 0.53578 0.09198 0.0
H476 H 0.94153 0.45077 0.08855 0.0
C477 C 0.06649 0.37253 0.08109 0.0
C478 C 0.047 0.34445 0.09531 0.0
C479 C 0.05214 0.41134 0.07923 0.0
C480 C 0.96353 0.47415 0.08959 0.0
H481 H 0.89465 0.64764 0.06814 0.0
H482 H 0.91916 0.57982 0.06554 0.0
H483 H 0.91911 0.5196 0.08916 0.0
H484 H -0.0037 0.33506 0.11819 0.0
H485 H 0.97151 0.40281 0.11505 0.0
H486 H 0.06337 0.49034 0.09305 0.0
C487 C 0.93307 0.59982 0.07775 0.0
C488 C 0.95072 0.51363 0.08969 0.0
C489 C 0.91919 0.63884 0.07916 0.0
C490 C 0.01209 0.35585 0.10706 0.0
C491 C -0.00226 0.39469 0.10519 0.0
C492 C 0.03182 0.49632 0.09185 0.0
C493 C 0.96455 0.58684 0.09187 0.0
C494 C 0.97829 0.54491 0.09102 0.0
C495 C 0.01794 0.42306 0.09153 0.0
C496 C 0.00423 0.46502 0.09078 0.0
H497 H 0.98235 0.67297 0.12083 0.0
H498 H 0.0063 0.60487 0.11846 0.0
H499 H 0.04104 0.55916 0.09279 0.0
H500 H 0.09331 0.36481 0.07167 0.0
H501 H 0.06802 0.43227 0.06824 0.0
C502 C 0.85693 0.47983 0.60915 0.0
C503 C 0.84544 0.44599 0.59661 0.0
C504 C 0.89578 0.49445 0.60743 0.0
C505 C 0.97498 0.53037 0.59216 0.0
H506 H 0.06028 0.45297 0.59138 0.0
C507 C 0.1398 0.57599 0.58089 0.0
C508 C 0.16741 0.55659 0.59534 0.0
C509 C 0.10054 0.56252 0.57955 0.0
C510 C 0.03684 0.475 0.5917 0.0
H511 H 0.86559 0.40193 0.57177 0.0
H512 H 0.93286 0.42772 0.56855 0.0
H513 H 0.99156 0.4305 0.59226 0.0
H514 H 0.17532 0.50731 0.61941 0.0
H515 H 0.10702 0.48422 0.6172 0.0
H516 H 0.02042 0.57486 0.59232 0.0
C517 C 0.91214 0.44249 0.58009 0.0
C518 C -0.00262 0.46212 0.59192 0.0
C519 C 0.87341 0.42782 0.58185 0.0
C520 C 0.15496 0.52299 0.60805 0.0
C521 C 0.11577 0.50957 0.6067 0.0
C522 C 0.0145 0.54327 0.59195 0.0
C523 C 0.92399 0.47563 0.5931 0.0
C524 C 0.96594 0.48962 0.59225 0.0
C525 C 0.08797 0.52933 0.59258 0.0
C526 C 0.04592 0.51572 0.59187 0.0
H527 H 0.83619 0.49458 0.6207 0.0
H528 H 0.90399 0.51981 0.61785 0.0
H529 H 0.95149 0.55235 0.59219 0.0
H530 H 0.14832 0.60188 0.5708 0.0
H531 H 0.08003 0.5781 0.56825 0.0
C532 C 0.50857 0.12988 0.3379 0.0
C533 C 0.54297 0.14068 0.35017 0.0
C534 C 0.4932 0.09137 0.33975 0.0
C535 C 0.45702 0.01191 0.35459 0.0
H536 H 0.53456 0.92675 0.35314 0.0
C537 C 0.4128 0.84637 0.36405 0.0
C538 C 0.43166 0.8196 0.34886 0.0
C539 C 0.42587 0.88568 0.36564 0.0
C540 C 0.5125 0.95016 0.35346 0.0
H541 H 0.58694 0.11981 0.37494 0.0
H542 H 0.55989 0.0531 0.37835 0.0
H543 H 0.55701 -0.00457 0.3534 0.0
H544 H 0.47942 0.81335 0.32361 0.0
H545 H 0.50196 0.88178 0.32634 0.0
H546 H 0.41251 0.96646 0.35403 0.0
C547 C 0.54527 0.07412 0.36691 0.0
C548 C 0.52537 0.98956 0.35389 0.0
C549 C 0.56064 0.11252 0.36505 0.0
C550 C 0.4642 0.83303 0.33554 0.0
C551 C 0.4773 0.87227 0.33718 0.0
C552 C 0.44413 0.97242 0.35421 0.0
C553 C 0.51186 0.06282 0.35393 0.0
C554 C 0.49782 0.02094 0.35435 0.0
C555 C 0.45818 0.89913 0.35216 0.0
C556 C 0.47174 0.94109 0.35347 0.0
H557 H 0.49417 0.15077 0.32627 0.0
H558 H 0.46758 0.08358 0.32939 0.0
H559 H 0.43504 0.03536 0.35512 0.0
H560 H 0.38769 0.8371 0.3746 0.0
H561 H 0.4108 0.9055 0.37756 0.0
C562 C 0.35717 0.06963 0.86558 0.0
C563 C 0.33036 0.05213 0.84994 0.0
C564 C 0.39605 0.05548 0.86753 0.0
C565 C 0.48245 0.03723 0.85665 0.0
H566 H 0.50582 0.92471 0.85355 0.0
C567 C 0.64034 0.97662 0.83936 0.0
C568 C 0.65198 0.94149 0.85079 0.0
C569 C 0.60144 0.99077 0.84142 0.0
C570 C 0.49982 0.95621 0.85471 0.0
H571 H 0.32348 0.00545 0.82438 0.0
H572 H 0.39143 0.98112 0.8276 0.0
H573 H 0.43692 0.947 0.85347 0.0
H574 H 0.63199 0.89456 0.87409 0.0
H575 H 0.56435 0.91955 0.87789 0.0
H576 H 0.54533 0.04643 0.85811 0.0
C577 C 0.38219 0.00551 0.83857 0.0
C578 C 0.46031 0.96902 0.85437 0.0
C579 C 0.34325 0.01963 0.83663 0.0
C580 C 0.62407 0.92158 0.86493 0.0
C581 C 0.58517 0.93576 0.86699 0.0
C582 C 0.52196 0.02443 0.85699 0.0
C583 C 0.40918 0.02352 0.85388 0.0
C584 C 0.45114 0.00971 0.85516 0.0
C585 C 0.57321 0.97018 0.85499 0.0
C586 C 0.53115 0.98378 0.85584 0.0
H587 H 0.34828 0.09454 0.87623 0.0
H588 H 0.41586 0.06962 0.87977 0.0
H589 H 0.4765 0.06882 0.85705 0.0
H590 H 0.66097 0.99276 0.82829 0.0
H591 H 0.59317 0.01715 0.83174 0.0
loop_
_geom_bond_atom_site_label_1
_geom_bond_atom_site_label_2
_geom_bond_distance
_geom_bond_site_symmetry_2
_ccdc_geom_bond_type
Mg0 O1 2.028 . S
Mg0 O7 1.986 . S
Mg0 O9 2.114 . S
Mg0 O10 2.251 . S
Mg0 O13 2.010 . S
O1 Mg0 2.028 . S
O1 C4 1.250 . S
O2 Mg3 2.028 . S
O2 C4 1.248 . S
Mg3 O2 2.028 . S
Mg3 O8 2.032 . S
Mg3 O10 2.079 . S
C4 O1 1.250 . S
C4 O2 1.248 . S
C5 O6 1.264 . S
C5 O13 1.249 1_655 S
O6 C5 1.264 . S
O7 Mg0 1.986 . S
O7 C11 1.246 . S
O8 Mg3 2.032 . S
O8 C11 1.259 . S
O9 Mg0 2.114 . S
O9 C12 1.252 . S
O10 Mg0 2.251 . S
O10 Mg3 2.079 . S
O10 C12 1.273 . S
C11 O7 1.246 . S
C11 O8 1.259 . S
C12 O9 1.252 . S
C12 O10 1.273 . S
O13 Mg0 2.010 . S
O13 C5 1.249 1_455 S
Mg14 O15 2.028 . S
Mg14 O21 1.986 . S
Mg14 O23 2.114 . S
Mg14 O24 2.251 . S
Mg14 O27 2.010 . S
O15 Mg14 2.028 . S
O15 C18 1.250 . S
O16 Mg17 2.028 . S
O16 C18 1.248 . S
Mg17 O16 2.028 . S
Mg17 O22 2.032 . S
Mg17 O24 2.079 . S
C18 O15 1.250 . S
C18 O16 1.248 . S
C19 O20 1.264 . S
C19 O27 1.249 . S
O20 C19 1.264 . S
O21 Mg14 1.986 . S
O21 C25 1.246 . S
O22 Mg17 2.032 . S
O22 C25 1.259 . S
O23 Mg14 2.114 . S
O23 C26 1.252 . S
O24 Mg14 2.251 . S
O24 Mg17 2.079 . S
O24 C26 1.273 . S
C25 O21 1.246 . S
C25 O22 1.259 . S
C26 O23 1.252 . S
C26 O24 1.273 . S
O27 Mg14 2.010 . S
O27 C19 1.249 . S
Mg28 O29 2.028 . S
Mg28 O35 1.986 . S
Mg28 O37 2.114 . S
Mg28 O38 2.251 . S
Mg28 O41 2.010 . S
O29 Mg28 2.028 . S
O29 C32 1.250 . S
O30 Mg31 2.028 . S
O30 C32 1.248 . S
Mg31 O30 2.028 . S
Mg31 O36 2.032 . S
Mg31 O38 2.079 . S
C32 O29 1.250 . S
C32 O30 1.248 . S
C33 O34 1.264 . S
C33 O41 1.249 1_455 S
O34 C33 1.264 . S
O35 Mg28 1.986 . S
O35 C39 1.246 . S
O36 Mg31 2.032 . S
O36 C39 1.259 . S
O37 Mg28 2.114 . S
O37 C40 1.252 . S
O38 Mg28 2.251 . S
O38 Mg31 2.079 . S
O38 C40 1.273 . S
C39 O35 1.246 . S
C39 O36 1.259 . S
C40 O37 1.252 . S
C40 O38 1.273 . S
O41 Mg28 2.010 . S
O41 C33 1.249 1_655 S
Mg42 O43 2.028 . S
Mg42 O49 1.986 . S
Mg42 O51 2.114 . S
Mg42 O52 2.251 . S
Mg42 O55 2.010 . S
O43 Mg42 2.028 . S
O43 C46 1.250 . S
O44 Mg45 2.028 . S
O44 C46 1.248 . S
Mg45 O44 2.028 . S
Mg45 O50 2.032 . S
Mg45 O52 2.079 . S
C46 O43 1.250 . S
C46 O44 1.248 . S
C47 O48 1.264 . S
C47 O55 1.249 . S
O48 C47 1.264 . S
O49 Mg42 1.986 . S
O49 C53 1.246 . S
O50 Mg45 2.032 . S
O50 C53 1.259 . S
O51 Mg42 2.114 . S
O51 C54 1.252 . S
O52 Mg42 2.251 . S
O52 Mg45 2.079 . S
O52 C54 1.273 . S
C53 O49 1.246 . S
C53 O50 1.259 . S
C54 O51 1.252 . S
C54 O52 1.273 . S
O55 Mg42 2.010 . S
O55 C47 1.249 . S
Mg56 O57 2.028 . S
Mg56 O63 1.986 . S
Mg56 O65 2.114 . S
Mg56 O66 2.251 . S
Mg56 O69 2.010 . S
O57 Mg56 2.028 . S
O57 C60 1.250 . S
O58 Mg59 2.028 . S
O58 C60 1.248 . S
Mg59 O58 2.028 . S
Mg59 O64 2.032 . S
Mg59 O66 2.079 . S
C60 O57 1.250 . S
C60 O58 1.248 . S
C61 O62 1.264 . S
C61 O69 1.249 . S
O62 C61 1.264 . S
O63 Mg56 1.986 . S
O63 C67 1.246 . S
O64 Mg59 2.032 . S
O64 C67 1.259 . S
O65 Mg56 2.114 . S
O65 C68 1.252 . S
O66 Mg56 2.251 . S
O66 Mg59 2.079 . S
O66 C68 1.273 . S
C67 O63 1.246 . S
C67 O64 1.259 . S
C68 O65 1.252 . S
C68 O66 1.273 . S
O69 Mg56 2.010 . S
O69 C61 1.249 . S
Mg70 O71 2.028 . S
Mg70 O77 1.986 . S
Mg70 O79 2.114 . S
Mg70 O80 2.251 . S
Mg70 O83 2.010 . S
O71 Mg70 2.028 . S
O71 C74 1.250 . S
O72 Mg73 2.028 . S
O72 C74 1.248 . S
Mg73 O72 2.028 . S
Mg73 O78 2.032 . S
Mg73 O80 2.079 . S
C74 O71 1.250 . S
C74 O72 1.248 . S
C75 O76 1.264 . S
C75 O83 1.249 1_565 S
O76 C75 1.264 . S
O77 Mg70 1.986 . S
O77 C81 1.246 . S
O78 Mg73 2.032 . S
O78 C81 1.259 . S
O79 Mg70 2.114 . S
O79 C82 1.252 . S
O80 Mg70 2.251 . S
O80 Mg73 2.079 . S
O80 C82 1.273 . S
C81 O77 1.246 . S
C81 O78 1.259 . S
C82 O79 1.252 . S
C82 O80 1.273 . S
O83 Mg70 2.010 . S
O83 C75 1.249 1_545 S
Mg84 O85 2.028 . S
Mg84 O91 1.986 . S
Mg84 O93 2.114 . S
Mg84 O94 2.251 . S
Mg84 O97 2.010 . S
O85 Mg84 2.028 . S
O85 C88 1.250 . S
O86 Mg87 2.028 . S
O86 C88 1.248 . S
Mg87 O86 2.028 . S
Mg87 O92 2.032 . S
Mg87 O94 2.079 . S
C88 O85 1.250 . S
C88 O86 1.248 . S
C89 O90 1.264 . S
C89 O97 1.249 . S
O90 C89 1.264 . S
O91 Mg84 1.986 . S
O91 C95 1.246 . S
O92 Mg87 2.032 . S
O92 C95 1.259 . S
O93 Mg84 2.114 . S
O93 C96 1.252 . S
O94 Mg84 2.251 . S
O94 Mg87 2.079 . S
O94 C96 1.273 . S
C95 O91 1.246 . S
C95 O92 1.259 . S
C96 O93 1.252 . S
C96 O94 1.273 . S
O97 Mg84 2.010 . S
O97 C89 1.249 . S
Mg98 O99 2.028 . S
Mg98 O105 1.986 . S
Mg98 O107 2.114 . S
Mg98 O108 2.251 . S
Mg98 O111 2.010 . S
O99 Mg98 2.028 . S
O99 C102 1.250 . S
O100 Mg101 2.028 . S
O100 C102 1.248 . S
Mg101 O100 2.028 . S
Mg101 O106 2.032 . S
Mg101 O108 2.079 . S
C102 O99 1.250 . S
C102 O100 1.248 . S
C103 O104 1.264 . S
C103 O111 1.249 1_545 S
O104 C103 1.264 . S
O105 Mg98 1.986 . S
O105 C109 1.246 . S
O106 Mg101 2.032 . S
O106 C109 1.259 . S
O107 Mg98 2.114 . S
O107 C110 1.252 . S
O108 Mg98 2.251 . S
O108 Mg101 2.079 . S
O108 C110 1.273 . S
C109 O105 1.246 . S
C109 O106 1.259 . S
C110 O107 1.252 . S
C110 O108 1.273 . S
O111 Mg98 2.010 . S
O111 C103 1.249 1_565 S
C112 C113 1.349 . S
C112 C114 1.327 . S
C112 H137 0.950 . S
C113 C112 1.349 . S
C113 C129 1.349 . S
C114 C112 1.327 . S
C114 C133 1.429 . S
C114 H138 0.950 . S
C115 C132 1.574 1_554 S
C115 C134 1.368 . S
C115 H139 0.949 . S
H116 C120 0.949 . S
C117 C118 1.349 . S
C117 C119 1.327 . S
C117 H140 0.950 . S
C118 C117 1.349 . S
C118 C130 1.349 . S
C119 C117 1.327 . S
C119 C135 1.429 . S
C119 H141 0.950 . S
C120 H116 0.949 . S
C120 C128 1.574 1_556 S
C120 C136 1.368 . S
H121 C129 0.950 . S
H122 C127 0.950 . S
H123 C128 0.949 . S
H124 C130 0.950 . S
H125 C131 0.950 . S
H126 C132 0.949 . S
C127 H122 0.950 . S
C127 C129 1.327 . S
C127 C133 1.429 . S
C128 C120 1.574 1_554 S
C128 H123 0.949 . S
C128 C134 1.368 . S
C129 C113 1.349 . S
C129 H121 0.950 . S
C129 C127 1.327 . S
C130 C118 1.349 . S
C130 H124 0.950 . S
C130 C131 1.327 . S
C131 H125 0.950 . S
C131 C130 1.327 . S
C131 C135 1.429 . S
C132 C115 1.574 1_556 S
C132 H126 0.949 . S
C132 C136 1.368 . S
C133 C114 1.429 . S
C133 C127 1.429 . S
C133 C134 1.523 . S
C134 C115 1.368 . S
C134 C128 1.368 . S
C134 C133 1.523 . S
C135 C119 1.429 . S
C135 C131 1.429 . S
C135 C136 1.523 . S
C136 C120 1.368 . S
C136 C132 1.368 . S
C136 C135 1.523 . S
H137 C112 0.950 . S
H138 C114 0.950 . S
H139 C115 0.949 . S
H140 C117 0.950 . S
H141 C119 0.950 . S
C142 C143 1.349 . S
C142 C144 1.327 . S
C142 H167 0.950 . S
C143 C142 1.349 . S
C143 C159 1.349 . S
C144 C142 1.327 . S
C144 C163 1.429 . S
C144 H168 0.950 . S
C145 C162 1.574 . S
C145 C164 1.368 . S
C145 H169 0.949 . S
H146 C150 0.949 . S
C147 C148 1.349 . S
C147 C149 1.327 . S
C147 H170 0.950 . S
C148 C147 1.349 . S
C148 C160 1.349 . S
C149 C147 1.327 . S
C149 C165 1.429 . S
C149 H171 0.950 . S
C150 H146 0.949 . S
C150 C158 1.574 . S
C150 C166 1.368 . S
H151 C159 0.950 . S
H152 C157 0.950 . S
H153 C158 0.949 . S
H154 C160 0.950 . S
H155 C161 0.950 . S
H156 C162 0.949 . S
C157 H152 0.950 . S
C157 C159 1.327 . S
C157 C163 1.429 . S
C158 C150 1.574 . S
C158 H153 0.949 . S
C158 C164 1.368 . S
C159 C143 1.349 . S
C159 H151 0.950 . S
C159 C157 1.327 . S
C160 C148 1.349 . S
C160 H154 0.950 . S
C160 C161 1.327 . S
C161 H155 0.950 . S
C161 C160 1.327 . S
C161 C165 1.429 . S
C162 C145 1.574 . S
C162 H156 0.949 . S
C162 C166 1.368 . S
C163 C144 1.429 . S
C163 C157 1.429 . S
C163 C164 1.523 . S
C164 C145 1.368 . S
C164 C158 1.368 . S
C164 C163 1.523 . S
C165 C149 1.429 . S
C165 C161 1.429 . S
C165 C166 1.523 . S
C166 C150 1.368 . S
C166 C162 1.368 . S
C166 C165 1.523 . S
H167 C142 0.950 . S
H168 C144 0.950 . S
H169 C145 0.949 . S
H170 C147 0.950 . S
H171 C149 0.950 . S
C172 C173 1.349 . S
C172 C174 1.327 . S
C172 H197 0.950 . S
C173 C172 1.349 . S
C173 C189 1.349 . S
C174 C172 1.327 . S
C174 C193 1.429 . S
C174 H198 0.950 . S
C175 C192 1.574 1_554 S
C175 C194 1.368 . S
C175 H199 0.949 . S
H176 C180 0.949 . S
C177 C178 1.349 . S
C177 C179 1.327 . S
C177 H200 0.950 . S
C178 C177 1.349 . S
C178 C190 1.349 . S
C179 C177 1.327 . S
C179 C195 1.429 . S
C179 H201 0.950 . S
C180 H176 0.949 . S
C180 C188 1.574 1_556 S
C180 C196 1.368 . S
H181 C189 0.950 . S
H182 C187 0.950 . S
H183 C188 0.949 . S
H184 C190 0.950 . S
H185 C191 0.950 . S
H186 C192 0.949 . S
C187 H182 0.950 . S
C187 C189 1.327 . S
C187 C193 1.429 . S
C188 C180 1.574 1_554 S
C188 H183 0.949 . S
C188 C194 1.368 . S
C189 C173 1.349 . S
C189 H181 0.950 . S
C189 C187 1.327 . S
C190 C178 1.349 . S
C190 H184 0.950 . S
C190 C191 1.327 . S
C191 H185 0.950 . S
C191 C190 1.327 . S
C191 C195 1.429 . S
C192 C175 1.574 1_556 S
C192 H186 0.949 . S
C192 C196 1.368 . S
C193 C174 1.429 . S
C193 C187 1.429 . S
C193 C194 1.523 . S
C194 C175 1.368 . S
C194 C188 1.368 . S
C194 C193 1.523 . S
C195 C179 1.429 . S
C195 C191 1.429 . S
C195 C196 1.523 . S
C196 C180 1.368 . S
C196 C192 1.368 . S
C196 C195 1.523 . S
H197 C172 0.950 . S
H198 C174 0.950 . S
H199 C175 0.949 . S
H200 C177 0.950 . S
H201 C179 0.950 . S
C202 C203 1.349 . S
C202 C204 1.327 . S
C202 H227 0.950 . S
C203 C202 1.349 . S
C203 C219 1.349 . S
C204 C202 1.327 . S
C204 C223 1.429 . S
C204 H228 0.950 . S
C205 C222 1.574 . S
C205 C224 1.368 . S
C205 H229 0.949 . S
H206 C210 0.949 . S
C207 C208 1.349 . S
C207 C209 1.327 . S
C207 H230 0.950 . S
C208 C207 1.349 . S
C208 C220 1.349 . S
C209 C207 1.327 . S
C209 C225 1.429 . S
C209 H231 0.950 . S
C210 H206 0.949 . S
C210 C218 1.574 . S
C210 C226 1.368 . S
H211 C219 0.950 . S
H212 C217 0.950 . S
H213 C218 0.949 . S
H214 C220 0.950 . S
H215 C221 0.950 . S
H216 C222 0.949 . S
C217 H212 0.950 . S
C217 C219 1.327 . S
C217 C223 1.429 . S
C218 C210 1.574 . S
C218 H213 0.949 . S
C218 C224 1.368 . S
C219 C203 1.349 . S
C219 H211 0.950 . S
C219 C217 1.327 . S
C220 C208 1.349 . S
C220 H214 0.950 . S
C220 C221 1.327 . S
C221 H215 0.950 . S
C221 C220 1.327 . S
C221 C225 1.429 . S
C222 C205 1.574 . S
C222 H216 0.949 . S
C222 C226 1.368 . S
C223 C204 1.429 . S
C223 C217 1.429 . S
C223 C224 1.523 . S
C224 C205 1.368 . S
C224 C218 1.368 . S
C224 C223 1.523 . S
C225 C209 1.429 . S
C225 C221 1.429 . S
C225 C226 1.523 . S
C226 C210 1.368 . S
C226 C222 1.368 . S
C226 C225 1.523 . S
H227 C202 0.950 . S
H228 C204 0.950 . S
H229 C205 0.949 . S
H230 C207 0.950 . S
H231 C209 0.950 . S
C232 C233 1.349 . S
C232 C234 1.327 . S
C232 H257 0.950 . S
C233 C232 1.349 . S
C233 C249 1.349 . S
C234 C232 1.327 . S
C234 C253 1.429 . S
C234 H258 0.950 . S
C235 C252 1.574 . S
C235 C254 1.368 . S
C235 H259 0.949 . S
H236 C240 0.949 . S
C237 C238 1.349 . S
C237 C239 1.327 . S
C237 H260 0.950 . S
C238 C237 1.349 . S
C238 C250 1.349 . S
C239 C237 1.327 . S
C239 C255 1.429 . S
C239 H261 0.950 . S
C240 H236 0.949 . S
C240 C248 1.574 . S
C240 C256 1.368 . S
H241 C249 0.950 . S
H242 C247 0.950 . S
H243 C248 0.949 . S
H244 C250 0.950 . S
H245 C251 0.950 . S
H246 C252 0.949 . S
C247 H242 0.950 . S
C247 C249 1.327 . S
C247 C253 1.429 . S
C248 C240 1.574 . S
C248 H243 0.949 . S
C248 C254 1.368 . S
C249 C233 1.349 . S
C249 H241 0.950 . S
C249 C247 1.327 . S
C250 C238 1.349 . S
C250 H244 0.950 . S
C250 C251 1.327 . S
C251 H245 0.950 . S
C251 C250 1.327 . S
C251 C255 1.429 . S
C252 C235 1.574 . S
C252 H246 0.949 . S
C252 C256 1.368 . S
C253 C234 1.429 . S
C253 C247 1.429 . S
C253 C254 1.523 . S
C254 C235 1.368 . S
C254 C248 1.368 . S
C254 C253 1.523 . S
C255 C239 1.429 . S
C255 C251 1.429 . S
C255 C256 1.523 . S
C256 C240 1.368 . S
C256 C252 1.368 . S
C256 C255 1.523 . S
H257 C232 0.950 . S
H258 C234 0.950 . S
H259 C235 0.949 . S
H260 C237 0.950 . S
H261 C239 0.950 . S
C262 C263 1.349 . S
C262 C264 1.327 . S
C262 H287 0.950 . S
C263 C262 1.349 . S
C263 C279 1.349 . S
C264 C262 1.327 . S
C264 C283 1.429 . S
C264 H288 0.950 . S
C265 C282 1.574 . S
C265 C284 1.368 . S
C265 H289 0.949 . S
H266 C270 0.949 . S
C267 C268 1.349 . S
C267 C269 1.327 . S
C267 H290 0.950 . S
C268 C267 1.349 . S
C268 C280 1.349 . S
C269 C267 1.327 . S
C269 C285 1.429 . S
C269 H291 0.950 . S
C270 H266 0.949 . S
C270 C278 1.574 . S
C270 C286 1.368 . S
H271 C279 0.950 . S
H272 C277 0.950 . S
H273 C278 0.949 . S
H274 C280 0.950 . S
H275 C281 0.950 . S
H276 C282 0.949 . S
C277 H272 0.950 . S
C277 C279 1.327 . S
C277 C283 1.429 . S
C278 C270 1.574 . S
C278 H273 0.949 . S
C278 C284 1.368 . S
C279 C263 1.349 . S
C279 H271 0.950 . S
C279 C277 1.327 . S
C280 C268 1.349 . S
C280 H274 0.950 . S
C280 C281 1.327 . S
C281 H275 0.950 . S
C281 C280 1.327 . S
C281 C285 1.429 . S
C282 C265 1.574 . S
C282 H276 0.949 . S
C282 C286 1.368 . S
C283 C264 1.429 . S
C283 C277 1.429 . S
C283 C284 1.523 . S
C284 C265 1.368 . S
C284 C278 1.368 . S
C284 C283 1.523 . S
C285 C269 1.429 . S
C285 C281 1.429 . S
C285 C286 1.523 . S
C286 C270 1.368 . S
C286 C282 1.368 . S
C286 C285 1.523 . S
H287 C262 0.950 . S
H288 C264 0.950 . S
H289 C265 0.949 . S
H290 C267 0.950 . S
H291 C269 0.950 . S
C292 C293 1.349 . S
C292 C294 1.327 . S
C292 H317 0.950 . S
C293 C292 1.349 . S
C293 C309 1.349 . S
C294 C292 1.327 . S
C294 C313 1.429 . S
C294 H318 0.950 . S
C295 C312 1.574 . S
C295 C314 1.368 . S
C295 H319 0.949 . S
H296 C300 0.949 . S
C297 C298 1.349 . S
C297 C299 1.327 . S
C297 H320 0.950 . S
C298 C297 1.349 . S
C298 C310 1.349 . S
C299 C297 1.327 . S
C299 C315 1.429 . S
C299 H321 0.950 . S
C300 H296 0.949 . S
C300 C308 1.574 . S
C300 C316 1.368 . S
H301 C309 0.950 . S
H302 C307 0.950 . S
H303 C308 0.949 . S
H304 C310 0.950 . S
H305 C311 0.950 . S
H306 C312 0.949 . S
C307 H302 0.950 . S
C307 C309 1.327 . S
C307 C313 1.429 . S
C308 C300 1.574 . S
C308 H303 0.949 . S
C308 C314 1.368 . S
C309 C293 1.349 . S
C309 H301 0.950 . S
C309 C307 1.327 . S
C310 C298 1.349 . S
C310 H304 0.950 . S
C310 C311 1.327 . S
C311 H305 0.950 . S
C311 C310 1.327 . S
C311 C315 1.429 . S
C312 C295 1.574 . S
C312 H306 0.949 . S
C312 C316 1.368 . S
C313 C294 1.429 . S
C313 C307 1.429 . S
C313 C314 1.523 . S
C314 C295 1.368 . S
C314 C308 1.368 . S
C314 C313 1.523 . S
C315 C299 1.429 . S
C315 C311 1.429 . S
C315 C316 1.523 . S
C316 C300 1.368 . S
C316 C312 1.368 . S
C316 C315 1.523 . S
H317 C292 0.950 . S
H318 C294 0.950 . S
H319 C295 0.949 . S
H320 C297 0.950 . S
H321 C299 0.950 . S
C322 C323 1.349 . S
C322 C324 1.327 . S
C322 H347 0.950 . S
C323 C322 1.349 . S
C323 C339 1.349 . S
C324 C322 1.327 . S
C324 C343 1.429 . S
C324 H348 0.950 . S
C325 C342 1.574 . S
C325 C344 1.368 . S
C325 H349 0.949 . S
H326 C330 0.949 . S
C327 C328 1.349 . S
C327 C329 1.327 . S
C327 H350 0.950 . S
C328 C327 1.349 . S
C328 C340 1.349 . S
C329 C327 1.327 . S
C329 C345 1.429 . S
C329 H351 0.950 . S
C330 H326 0.949 . S
C330 C338 1.574 . S
C330 C346 1.368 . S
H331 C339 0.950 . S
H332 C337 0.950 . S
H333 C338 0.949 . S
H334 C340 0.950 . S
H335 C341 0.950 . S
H336 C342 0.949 . S
C337 H332 0.950 . S
C337 C339 1.327 . S
C337 C343 1.429 . S
C338 C330 1.574 . S
C338 H333 0.949 . S
C338 C344 1.368 . S
C339 C323 1.349 . S
C339 H331 0.950 . S
C339 C337 1.327 . S
C340 C328 1.349 . S
C340 H334 0.950 . S
C340 C341 1.327 . S
C341 H335 0.950 . S
C341 C340 1.327 . S
C341 C345 1.429 . S
C342 C325 1.574 . S
C342 H336 0.949 . S
C342 C346 1.368 . S
C343 C324 1.429 . S
C343 C337 1.429 . S
C343 C344 1.523 . S
C344 C325 1.368 . S
C344 C338 1.368 . S
C344 C343 1.523 . S
C345 C329 1.429 . S
C345 C341 1.429 . S
C345 C346 1.523 . S
C346 C330 1.368 . S
C346 C342 1.368 . S
C346 C345 1.523 . S
H347 C322 0.950 . S
H348 C324 0.950 . S
H349 C325 0.949 . S
H350 C327 0.950 . S
H351 C329 0.950 . S
C352 C353 1.349 . S
C352 C354 1.327 . S
C352 H377 0.950 . S
C353 C352 1.349 . S
C353 C369 1.349 . S
C354 C352 1.327 . S
C354 C373 1.429 . S
C354 H378 0.950 . S
C355 C372 1.574 . S
C355 C374 1.368 . S
C355 H379 0.949 . S
H356 C360 0.949 . S
C357 C358 1.349 . S
C357 C359 1.327 . S
C357 H380 0.950 . S
C358 C357 1.349 . S
C358 C370 1.349 . S
C359 C357 1.327 . S
C359 C375 1.429 . S
C359 H381 0.950 . S
C360 H356 0.949 . S
C360 C368 1.574 . S
C360 C376 1.368 . S
H361 C369 0.950 . S
H362 C367 0.950 . S
H363 C368 0.949 . S
H364 C370 0.950 . S
H365 C371 0.950 . S
H366 C372 0.949 . S
C367 H362 0.950 . S
C367 C369 1.327 . S
C367 C373 1.429 . S
C368 C360 1.574 . S
C368 H363 0.949 . S
C368 C374 1.368 . S
C369 C353 1.349 . S
C369 H361 0.950 . S
C369 C367 1.327 . S
C370 C358 1.349 . S
C370 H364 0.950 . S
C370 C371 1.327 . S
C371 H365 0.950 . S
C371 C370 1.327 . S
C371 C375 1.429 . S
C372 C355 1.574 . S
C372 H366 0.949 . S
C372 C376 1.368 . S
C373 C354 1.429 . S
C373 C367 1.429 . S
C373 C374 1.523 . S
C374 C355 1.368 . S
C374 C368 1.368 . S
C374 C373 1.523 . S
C375 C359 1.429 . S
C375 C371 1.429 . S
C375 C376 1.523 . S
C376 C360 1.368 . S
C376 C372 1.368 . S
C376 C375 1.523 . S
H377 C352 0.950 . S
H378 C354 0.950 . S
H379 C355 0.949 . S
H380 C357 0.950 . S
H381 C359 0.950 . S
C382 C383 1.349 . S
C382 C384 1.327 . S
C382 H407 0.950 . S
C383 C382 1.349 . S
C383 C399 1.349 . S
C384 C382 1.327 . S
C384 C403 1.429 . S
C384 H408 0.950 . S
C385 C402 1.574 . S
C385 C404 1.368 . S
C385 H409 0.949 . S
H386 C390 0.949 . S
C387 C388 1.349 . S
C387 C389 1.327 . S
C387 H410 0.950 . S
C388 C387 1.349 . S
C388 C400 1.349 . S
C389 C387 1.327 . S
C389 C405 1.429 . S
C389 H411 0.950 . S
C390 H386 0.949 . S
C390 C398 1.574 . S
C390 C406 1.368 . S
H391 C399 0.950 . S
H392 C397 0.950 . S
H393 C398 0.949 . S
H394 C400 0.950 . S
H395 C401 0.950 . S
H396 C402 0.949 . S
C397 H392 0.950 . S
C397 C399 1.327 . S
C397 C403 1.429 . S
C398 C390 1.574 . S
C398 H393 0.949 . S
C398 C404 1.368 . S
C399 C383 1.349 . S
C399 H391 0.950 . S
C399 C397 1.327 . S
C400 C388 1.349 . S
C400 H394 0.950 . S
C400 C401 1.327 . S
C401 H395 0.950 . S
C401 C400 1.327 . S
C401 C405 1.429 . S
C402 C385 1.574 . S
C402 H396 0.949 . S
C402 C406 1.368 . S
C403 C384 1.429 . S
C403 C397 1.429 . S
C403 C404 1.523 . S
C404 C385 1.368 . S
C404 C398 1.368 . S
C404 C403 1.523 . S
C405 C389 1.429 . S
C405 C401 1.429 . S
C405 C406 1.523 . S
C406 C390 1.368 . S
C406 C402 1.368 . S
C406 C405 1.523 . S
H407 C382 0.950 . S
H408 C384 0.950 . S
H409 C385 0.949 . S
H410 C387 0.950 . S
H411 C389 0.950 . S
C412 C413 1.349 . S
C412 C414 1.327 . S
C412 H437 0.950 . S
C413 C412 1.349 . S
C413 C429 1.349 . S
C414 C412 1.327 . S
C414 C433 1.429 . S
C414 H438 0.950 . S
C415 C432 1.574 . S
C415 C434 1.368 . S
C415 H439 0.949 . S
H416 C420 0.949 . S
C417 C418 1.349 . S
C417 C419 1.327 . S
C417 H440 0.950 . S
C418 C417 1.349 . S
C418 C430 1.349 . S
C419 C417 1.327 . S
C419 C435 1.429 . S
C419 H441 0.950 . S
C420 H416 0.949 . S
C420 C428 1.574 . S
C420 C436 1.368 . S
H421 C429 0.950 . S
H422 C427 0.950 . S
H423 C428 0.949 . S
H424 C430 0.950 . S
H425 C431 0.950 . S
H426 C432 0.949 . S
C427 H422 0.950 . S
C427 C429 1.327 . S
C427 C433 1.429 . S
C428 C420 1.574 . S
C428 H423 0.949 . S
C428 C434 1.368 . S
C429 C413 1.349 . S
C429 H421 0.950 . S
C429 C427 1.327 . S
C430 C418 1.349 . S
C430 H424 0.950 . S
C430 C431 1.327 . S
C431 H425 0.950 . S
C431 C430 1.327 . S
C431 C435 1.429 . S
C432 C415 1.574 . S
C432 H426 0.949 . S
C432 C436 1.368 . S
C433 C414 1.429 . S
C433 C427 1.429 . S
C433 C434 1.523 . S
C434 C415 1.368 . S
C434 C428 1.368 . S
C434 C433 1.523 . S
C435 C419 1.429 . S
C435 C431 1.429 . S
C435 C436 1.523 . S
C436 C420 1.368 . S
C436 C432 1.368 . S
C436 C435 1.523 . S
H437 C412 0.950 . S
H438 C414 0.950 . S
H439 C415 0.949 . S
H440 C417 0.950 . S
H441 C419 0.950 . S
C442 C443 1.349 . S
C442 C444 1.327 . S
C442 H467 0.950 . S
C443 C442 1.349 . S
C443 C459 1.349 . S
C444 C442 1.327 . S
C444 C463 1.429 . S
C444 H468 0.950 . S
C445 C462 1.574 . S
C445 C464 1.368 . S
C445 H469 0.949 . S
H446 C450 0.949 . S
C447 C448 1.349 . S
C447 C449 1.327 . S
C447 H470 0.950 . S
C448 C447 1.349 . S
C448 C460 1.349 . S
C449 C447 1.327 . S
C449 C465 1.429 . S
C449 H471 0.950 . S
C450 H446 0.949 . S
C450 C458 1.574 . S
C450 C466 1.368 . S
H451 C459 0.950 . S
H452 C457 0.950 . S
H453 C458 0.949 . S
H454 C460 0.950 . S
H455 C461 0.950 . S
H456 C462 0.949 . S
C457 H452 0.950 . S
C457 C459 1.327 . S
C457 C463 1.429 . S
C458 C450 1.574 . S
C458 H453 0.949 . S
C458 C464 1.368 . S
C459 C443 1.349 . S
C459 H451 0.950 . S
C459 C457 1.327 . S
C460 C448 1.349 . S
C460 H454 0.950 . S
C460 C461 1.327 . S
C461 H455 0.950 . S
C461 C460 1.327 . S
C461 C465 1.429 . S
C462 C445 1.574 . S
C462 H456 0.949 . S
C462 C466 1.368 . S
C463 C444 1.429 . S
C463 C457 1.429 . S
C463 C464 1.523 . S
C464 C445 1.368 . S
C464 C458 1.368 . S
C464 C463 1.523 . S
C465 C449 1.429 . S
C465 C461 1.429 . S
C465 C466 1.523 . S
C466 C450 1.368 . S
C466 C462 1.368 . S
C466 C465 1.523 . S
H467 C442 0.950 . S
H468 C444 0.950 . S
H469 C445 0.949 . S
H470 C447 0.950 . S
H471 C449 0.950 . S
C472 C473 1.349 . S
C472 C474 1.327 . S
C472 H497 0.950 . S
C473 C472 1.349 . S
C473 C489 1.349 . S
C474 C472 1.327 . S
C474 C493 1.429 . S
C474 H498 0.950 . S
C475 C492 1.574 . S
C475 C494 1.368 1_455 S
C475 H499 0.949 . S
H476 C480 0.949 . S
C477 C478 1.349 . S
C477 C479 1.327 . S
C477 H500 0.950 . S
C478 C477 1.349 . S
C478 C490 1.349 . S
C479 C477 1.327 . S
C479 C495 1.429 . S
C479 H501 0.950 . S
C480 H476 0.949 . S
C480 C488 1.574 . S
C480 C496 1.368 1_655 S
H481 C489 0.950 . S
H482 C487 0.950 1_455 S
H483 C488 0.949 . S
H484 C490 0.950 . S
H485 C491 0.950 1_655 S
H486 C492 0.949 . S
C487 H482 0.950 1_655 S
C487 C489 1.327 . S
C487 C493 1.429 . S
C488 C480 1.574 . S
C488 H483 0.949 . S
C488 C494 1.368 . S
C489 C473 1.349 . S
C489 H481 0.950 . S
C489 C487 1.327 . S
C490 C478 1.349 . S
C490 H484 0.950 . S
C490 C491 1.327 . S
C491 H485 0.950 1_455 S
C491 C490 1.327 . S
C491 C495 1.429 . S
C492 C475 1.574 . S
C492 H486 0.949 . S
C492 C496 1.368 . S
C493 C474 1.429 . S
C493 C487 1.429 . S
C493 C494 1.523 . S
C494 C475 1.368 1_655 S
C494 C488 1.368 . S
C494 C493 1.523 . S
C495 C479 1.429 . S
C495 C491 1.429 . S
C495 C496 1.523 . S
C496 C480 1.368 1_455 S
C496 C492 1.368 . S
C496 C495 1.523 . S
H497 C472 0.950 . S
H498 C474 0.950 . S
H499 C475 0.949 . S
H500 C477 0.950 . S
H501 C479 0.950 . S
C502 C503 1.349 . S
C502 C504 1.327 . S
C502 H527 0.950 . S
C503 C502 1.349 . S
C503 C519 1.349 . S
C504 C502 1.327 . S
C504 C523 1.429 . S
C504 H528 0.950 . S
C505 C522 1.574 1_655 S
C505 C524 1.368 . S
C505 H529 0.949 . S
H506 C510 0.949 . S
C507 C508 1.349 . S
C507 C509 1.327 . S
C507 H530 0.950 . S
C508 C507 1.349 . S
C508 C520 1.349 . S
C509 C507 1.327 . S
C509 C525 1.429 . S
C509 H531 0.950 . S
C510 H506 0.949 . S
C510 C518 1.574 1_455 S
C510 C526 1.368 . S
H511 C519 0.950 . S
H512 C517 0.950 . S
H513 C518 0.949 . S
H514 C520 0.950 . S
H515 C521 0.950 . S
H516 C522 0.949 . S
C517 H512 0.950 . S
C517 C519 1.327 . S
C517 C523 1.429 . S
C518 C510 1.574 1_655 S
C518 H513 0.949 . S
C518 C524 1.368 . S
C519 C503 1.349 . S
C519 H511 0.950 . S
C519 C517 1.327 . S
C520 C508 1.349 . S
C520 H514 0.950 . S
C520 C521 1.327 . S
C521 H515 0.950 . S
C521 C520 1.327 . S
C521 C525 1.429 . S
C522 C505 1.574 1_455 S
C522 H516 0.949 . S
C522 C526 1.368 . S
C523 C504 1.429 . S
C523 C517 1.429 . S
C523 C524 1.523 . S
C524 C505 1.368 . S
C524 C518 1.368 . S
C524 C523 1.523 . S
C525 C509 1.429 . S
C525 C521 1.429 . S
C525 C526 1.523 . S
C526 C510 1.368 . S
C526 C522 1.368 . S
C526 C525 1.523 . S
H527 C502 0.950 . S
H528 C504 0.950 . S
H529 C505 0.949 . S
H530 C507 0.950 . S
H531 C509 0.950 . S
C532 C533 1.349 . S
C532 C534 1.327 . S
C532 H557 0.950 . S
C533 C532 1.349 . S
C533 C549 1.349 . S
C534 C532 1.327 . S
C534 C553 1.429 . S
C534 H558 0.950 . S
C535 C552 1.574 1_545 S
C535 C554 1.368 . S
C535 H559 0.949 . S
H536 C540 0.949 . S
C537 C538 1.349 . S
C537 C539 1.327 . S
C537 H560 0.950 . S
C538 C537 1.349 . S
C538 C550 1.349 . S
C539 C537 1.327 . S
C539 C555 1.429 . S
C539 H561 0.950 . S
C540 H536 0.949 . S
C540 C548 1.574 1_565 S
C540 C556 1.368 . S
H541 C549 0.950 . S
H542 C547 0.950 . S
H543 C548 0.949 . S
H544 C550 0.950 . S
H545 C551 0.950 . S
H546 C552 0.949 . S
C547 H542 0.950 . S
C547 C549 1.327 . S
C547 C553 1.429 . S
C548 C540 1.574 1_545 S
C548 H543 0.949 . S
C548 C554 1.368 . S
C549 C533 1.349 . S
C549 H541 0.950 . S
C549 C547 1.327 . S
C550 C538 1.349 . S
C550 H544 0.950 . S
C550 C551 1.327 . S
C551 H545 0.950 . S
C551 C550 1.327 . S
C551 C555 1.429 . S
C552 C535 1.574 1_565 S
C552 H546 0.949 . S
C552 C556 1.368 . S
C553 C534 1.429 . S
C553 C547 1.429 . S
C553 C554 1.523 . S
C554 C535 1.368 . S
C554 C548 1.368 . S
C554 C553 1.523 . S
C555 C539 1.429 . S
C555 C551 1.429 . S
C555 C556 1.523 . S
C556 C540 1.368 . S
C556 C552 1.368 . S
C556 C555 1.523 . S
H557 C532 0.950 . S
H558 C534 0.950 . S
H559 C535 0.949 . S
H560 C537 0.950 . S
H561 C539 0.950 . S
C562 C563 1.349 . S
C562 C564 1.327 . S
C562 H587 0.950 . S
C563 C562 1.349 . S
C563 C579 1.349 . S
C564 C562 1.327 . S
C564 C583 1.429 . S
C564 H588 0.950 1_545 S
C565 C582 1.574 . S
C565 C584 1.368 . S
C565 H589 0.949 . S
H566 C570 0.949 . S
C567 C568 1.349 . S
C567 C569 1.327 . S
C567 H590 0.950 . S
C568 C567 1.349 . S
C568 C580 1.349 . S
C569 C567 1.327 . S
C569 C585 1.429 . S
C569 H591 0.950 1_565 S
C570 H566 0.949 . S
C570 C578 1.574 . S
C570 C586 1.368 . S
H571 C579 0.950 . S
H572 C577 0.950 . S
H573 C578 0.949 . S
H574 C580 0.950 . S
H575 C581 0.950 . S
H576 C582 0.949 . S
C577 H572 0.950 . S
C577 C579 1.327 . S
C577 C583 1.429 . S
C578 C570 1.574 . S
C578 H573 0.949 . S
C578 C584 1.368 1_565 S
C579 C563 1.349 . S
C579 H571 0.950 . S
C579 C577 1.327 . S
C580 C568 1.349 . S
C580 H574 0.950 . S
C580 C581 1.327 . S
C581 H575 0.950 . S
C581 C580 1.327 . S
C581 C585 1.429 . S
C582 C565 1.574 . S
C582 H576 0.949 . S
C582 C586 1.368 1_545 S
C583 C564 1.429 . S
C583 C577 1.429 . S
C583 C584 1.523 . S
C584 C565 1.368 . S
C584 C578 1.368 1_545 S
C584 C583 1.523 . S
C585 C569 1.429 . S
C585 C581 1.429 . S
C585 C586 1.523 . S
C586 C570 1.368 . S
C586 C582 1.368 1_565 S
C586 C585 1.523 . S
H587 C562 0.950 . S
H588 C564 0.950 1_565 S
H589 C565 0.949 . S
H590 C567 0.950 . S
H591 C569 0.950 1_545 S
C113 C12 1.357 . S
C118 C82 1.357 . S
C143 C26 1.357 . S
C148 C96 1.357 . S
C173 C40 1.357 . S
C178 C110 1.357 . S
C203 C68 1.357 . S
C208 C54 1.357 . S
C233 C11 1.333 . S
C238 C61 1.280 . S
C263 C25 1.333 . S
C268 C75 1.280 . S
C293 C89 1.280 . S
C298 C39 1.333 . S
C323 C53 1.333 . S
C328 C103 1.280 . S
C353 C67 1.333 . S
C358 C5 1.280 . S
C383 C19 1.280 . S
C388 C81 1.333 . S
C413 C95 1.333 . S
C418 C33 1.280 . S
C443 C47 1.280 . S
C448 C109 1.333 . S
C473 C32 0.634 . S
C478 C4 0.634 . S
C503 C46 0.634 . S
C508 C18 0.634 . S
C533 C60 0.634 . S
C538 C88 0.634 . S
C563 C74 0.634 . S
C568 C102 0.634 . S
