# Generated by pormake.
# Topology wjh, (4)-cn, num edge types: 1
# Building blocks:
#     Node 0, Type 0, BuildingBlock: GALJAG_clean_sbu_0, # of connection points: 4
#     Node 1, Type 0, BuildingBlock: GALJAG_clean_sbu_0, # of connection points: 4
#     Node 2, Type 0, BuildingBlock: GALJAG_clean_sbu_0, # of connection points: 4
#     Node 3, Type 0, BuildingBlock: GALJAG_clean_sbu_0, # of connection points: 4
#     Node 4, Type 0, BuildingBlock: GALJAG_clean_sbu_0, # of connection points: 4
#     Node 5, Type 0, BuildingBlock: GALJAG_clean_sbu_0, # of connection points: 4
#     Node 6, Type 0, BuildingBlock: GALJAG_clean_sbu_0, # of connection points: 4
#     Node 7, Type 0, BuildingBlock: GALJAG_clean_sbu_0, # of connection points: 4
#     Node 8, Type 0, BuildingBlock: GALJAG_clean_sbu_0, # of connection points: 4
#     Node 9, Type 0, BuildingBlock: GALJAG_clean_sbu_0, # of connection points: 4
#     Node 10, Type 0, BuildingBlock: GALJAG_clean_sbu_0, # of connection points: 4
#     Node 11, Type 0, BuildingBlock: GALJAG_clean_sbu_0, # of connection points: 4
#     Edge 12, Type (0, 0), BuildingBlock: AJUNOK_clean_linker_0, # of connection points: 2
#     Edge 13, Type (0, 0), BuildingBlock: AJUNOK_clean_linker_0, # of connection points: 2
#     Edge 14, Type (0, 0), BuildingBlock: AJUNOK_clean_linker_0, # of connection points: 2
#     Edge 15, Type (0, 0), BuildingBlock: AJUNOK_clean_linker_0, # of connection points: 2
#     Edge 16, Type (0, 0), BuildingBlock: AJUNOK_clean_linker_0, # of connection points: 2
#     Edge 17, Type (0, 0), BuildingBlock: AJUNOK_clean_linker_0, # of connection points: 2
#     Edge 18, Type (0, 0), BuildingBlock: AJUNOK_clean_linker_0, # of connection points: 2
#     Edge 19, Type (0, 0), BuildingBlock: AJUNOK_clean_linker_0, # of connection points: 2
#     Edge 20, Type (0, 0), BuildingBlock: AJUNOK_clean_linker_0, # of connection points: 2
#     Edge 21, Type (0, 0), BuildingBlock: AJUNOK_clean_linker_0, # of connection points: 2
#     Edge 22, Type (0, 0), BuildingBlock: AJUNOK_clean_linker_0, # of connection points: 2
#     Edge 23, Type (0, 0), BuildingBlock: AJUNOK_clean_linker_0, # of connection points: 2
#     Edge 24, Type (0, 0), BuildingBlock: AJUNOK_clean_linker_0, # of connection points: 2
#     Edge 25, Type (0, 0), BuildingBlock: AJUNOK_clean_linker_0, # of connection points: 2
#     Edge 26, Type (0, 0), BuildingBlock: AJUNOK_clean_linker_0, # of connection points: 2
#     Edge 27, Type (0, 0), BuildingBlock: AJUNOK_clean_linker_0, # of connection points: 2
#     Edge 28, Type (0, 0), BuildingBlock: AJUNOK_clean_linker_0, # of connection points: 2
#     Edge 29, Type (0, 0), BuildingBlock: AJUNOK_clean_linker_0, # of connection points: 2
#     Edge 30, Type (0, 0), BuildingBlock: AJUNOK_clean_linker_0, # of connection points: 2
#     Edge 31, Type (0, 0), BuildingBlock: AJUNOK_clean_linker_0, # of connection points: 2
#     Edge 32, Type (0, 0), BuildingBlock: AJUNOK_clean_linker_0, # of connection points: 2
#     Edge 33, Type (0, 0), BuildingBlock: AJUNOK_clean_linker_0, # of connection points: 2
#     Edge 34, Type (0, 0), BuildingBlock: AJUNOK_clean_linker_0, # of connection points: 2
#     Edge 35, Type (0, 0), BuildingBlock: AJUNOK_clean_linker_0, # of connection points: 2
# Relax obj value: 0.053
# Max RMSD: 0.092
# Mean RMSD: 0.092
data_MOF--net-wjh--node1-GALJAG_clean_sbu_0--edge1-AJUNOK_clean_linker_0
_symmetry_space_group_name_H-M    P1
_symmetry_Int_Tables_number       1
_symmetry_cell_setting            triclinic
loop_
_symmetry_equiv_pos_as_xyz
'x, y, z'
_cell_length_a     44.61943
_cell_length_b     44.546997
_cell_length_c     20.538846
_cell_angle_alpha  90.02951
_cell_angle_beta   90.001953
_cell_angle_gamma 120.02856
loop_
_atom_site_label
_atom_site_type_symbol
_atom_site_fract_x
_atom_site_fract_y
_atom_site_fract_z
_atom_type_partial_charge
In0 In 0.51019 0.13653 0.05112 0.0
O1 O 0.55534 0.14717 0.98422 0.0
O2 O 0.50811 0.13711 0.93999 0.0
C3 C 0.53716 0.1444 0.17115 0.0
C4 C 0.46818 0.06747 0.05554 0.0
C5 C 0.50122 0.19142 0.0648 0.0
O6 O 0.55484 0.14801 0.12045 0.0
O7 O 0.5063 0.13672 0.16066 0.0
O8 O 0.476 0.16072 0.06887 0.0
O9 O 0.52975 0.19378 0.0499 0.0
C10 C 0.5389 0.14364 0.93197 0.0
O11 O 0.45658 0.08731 0.04028 0.0
O12 O 0.50024 0.08266 0.06659 0.0
In13 In 0.37184 0.51913 0.21879 0.0
O14 O 0.40449 0.56488 0.15218 0.0
O15 O 0.36521 0.51851 0.10832 0.0
C16 C 0.39546 0.54491 0.33812 0.0
C17 C 0.39983 0.47829 0.20799 0.0
C18 C 0.30859 0.50981 0.242 0.0
O19 O 0.40518 0.56372 0.2877 0.0
O20 O 0.37444 0.51326 0.32774 0.0
O21 O 0.3135 0.48425 0.23689 0.0
O22 O 0.33488 0.53894 0.23074 0.0
C23 C 0.38985 0.54921 0.10021 0.0
O24 O 0.36727 0.4654 0.20898 0.0
O25 O 0.41713 0.51083 0.21273 0.0
In26 In 0.84629 0.37487 0.38405 0.0
O27 O 0.83325 0.40631 0.31326 0.0
O28 O 0.84159 0.36697 0.27391 0.0
C29 C 0.84636 0.40077 0.50219 0.0
C30 C 0.91495 0.40047 0.38134 0.0
C31 C 0.79148 0.31279 0.41196 0.0
O32 O 0.84002 0.41242 0.45092 0.0
O33 O 0.85242 0.37629 0.49326 0.0
O34 O 0.82126 0.31653 0.40324 0.0
O35 O 0.78946 0.33967 0.40184 0.0
C36 C 0.83497 0.39096 0.26283 0.0
O37 O 0.89417 0.36819 0.37572 0.0
O38 O 0.90079 0.41877 0.38579 0.0
In39 In 0.47242 0.85177 0.54509 0.0
O40 O 0.42598 0.83699 0.47916 0.0
O41 O 0.47246 0.84446 0.43522 0.0
C42 C 0.45041 0.8535 0.66617 0.0
C43 C 0.51448 0.92002 0.52842 0.0
C44 C 0.47921 0.7962 0.56748 0.0
O45 O 0.43074 0.8461 0.61714 0.0
O46 O 0.48086 0.86053 0.65343 0.0
O47 O 0.50546 0.82627 0.56273 0.0
O48 O 0.45053 0.79458 0.55761 0.0
C49 C 0.44154 0.83761 0.42722 0.0
O50 O 0.52667 0.89987 0.53427 0.0
O51 O 0.48196 0.90557 0.53113 0.0
In52 In 0.61288 0.47132 0.71181 0.0
O53 O 0.581 0.42671 0.64186 0.0
O54 O 0.62216 0.47322 0.60216 0.0
C55 C 0.58734 0.4451 0.82986 0.0
C56 C 0.58659 0.51382 0.70409 0.0
C57 C 0.67514 0.4793 0.73986 0.0
O58 O 0.57708 0.42671 0.77883 0.0
O59 O 0.60986 0.47641 0.82063 0.0
O60 O 0.67115 0.50522 0.73079 0.0
O61 O 0.64844 0.45024 0.72995 0.0
C62 C 0.59737 0.44291 0.59149 0.0
O63 O 0.61899 0.52578 0.70587 0.0
O64 O 0.56855 0.48121 0.70472 0.0
In65 In 0.13445 0.6146 0.87977 0.0
O66 O 0.14483 0.58151 0.80856 0.0
O67 O 0.13708 0.62129 0.76937 0.0
C68 C 0.13613 0.58942 0.99735 0.0
C69 C 0.06639 0.59167 0.88617 0.0
C70 C 0.19254 0.6749 0.90293 0.0
O71 O 0.13838 0.57536 0.94533 0.0
O72 O 0.13345 0.61606 0.98947 0.0
O73 O 0.16344 0.67332 0.89819 0.0
O74 O 0.19194 0.64678 0.8916 0.0
C75 C 0.14304 0.59685 0.75821 0.0
O76 O 0.08765 0.62344 0.87549 0.0
O77 O 0.07953 0.57244 0.88934 0.0
In78 In 0.84994 0.47518 0.88481 0.0
O79 O 0.89679 0.5305 0.89315 0.0
O80 O 0.90442 0.48699 0.89995 0.0
C81 C 0.79421 0.48104 0.8587 0.0
C82 C 0.83643 0.44379 1.0024 0.0
C83 C 0.85161 0.4524 0.76424 0.0
O84 O 0.82351 0.50752 0.86943 0.0
O85 O 0.79313 0.4524 0.86613 0.0
O86 O 0.84355 0.43284 0.81355 0.0
O87 O 0.8598 0.48328 0.77655 0.0
C88 C 0.91781 0.51949 0.90062 0.0
O89 O 0.83773 0.42924 0.95046 0.0
O90 O 0.84087 0.47394 0.99462 0.0
In91 In 0.37413 0.84969 0.04667 0.0
O92 O 0.3646 0.8959 0.05286 0.0
O93 O 0.41591 0.90458 0.06263 0.0
C94 C 0.31387 0.79304 0.01623 0.0
C95 C 0.38929 0.83604 0.16657 0.0
C96 C 0.40209 0.85344 0.92887 0.0
O97 O 0.31556 0.8218 0.02778 0.0
O98 O 0.34184 0.79298 0.02456 0.0
O99 O 0.41265 0.84536 0.97949 0.0
O100 O 0.37811 0.86009 0.9384 0.0
C101 C 0.39645 0.91753 0.06095 0.0
O102 O 0.40662 0.83785 0.11651 0.0
O103 O 0.36368 0.84017 0.15566 0.0
In104 In 0.51508 0.37423 0.21232 0.0
O105 O 0.46201 0.37108 0.22199 0.0
O106 O 0.50765 0.4201 0.20878 0.0
C107 C 0.5063 0.31191 0.1825 0.0
C108 C 0.54517 0.39128 0.33111 0.0
C109 C 0.53908 0.39644 0.09198 0.0
O110 O 0.48054 0.31556 0.19574 0.0
O111 O 0.53551 0.33854 0.19129 0.0
O112 O 0.5582 0.409 0.14176 0.0
O113 O 0.50819 0.37356 0.10365 0.0
C114 C 0.47517 0.4035 0.21405 0.0
O115 O 0.56118 0.40551 0.27921 0.0
O116 O 0.51406 0.36765 0.32283 0.0
In117 In 0.13329 0.5155 0.37949 0.0
O118 O 0.0851 0.46116 0.38828 0.0
O119 O 0.07939 0.50594 0.38751 0.0
C120 C 0.18857 0.5088 0.3543 0.0
C121 C 0.14514 0.54582 0.4978 0.0
C122 C 0.13252 0.53839 0.25892 0.0
O123 O 0.1591 0.48247 0.36464 0.0
O124 O 0.18995 0.53758 0.36171 0.0
O125 O 0.14189 0.55832 0.30793 0.0
O126 O 0.12306 0.5072 0.27154 0.0
C127 C 0.06481 0.47335 0.39003 0.0
O128 O 0.14559 0.56122 0.44581 0.0
O129 O 0.1399 0.5154 0.48974 0.0
In130 In 0.61041 0.13793 0.54906 0.0
O131 O 0.57661 0.14702 0.62096 0.0
O132 O 0.61642 0.13939 0.65975 0.0
C133 C 0.58745 0.14441 0.43185 0.0
C134 C 0.58538 0.06932 0.54002 0.0
C135 C 0.6732 0.19323 0.52795 0.0
O136 O 0.57519 0.14882 0.48431 0.0
O137 O 0.6109 0.13676 0.43925 0.0
O138 O 0.66874 0.16287 0.5308 0.0
O139 O 0.64667 0.19537 0.54079 0.0
C140 C 0.5916 0.14465 0.67126 0.0
O141 O 0.61694 0.08975 0.55338 0.0
O142 O 0.56719 0.08353 0.5347 0.0
In143 In 0.46997 0.61627 0.71906 0.0
O144 O 0.52391 0.62135 0.72656 0.0
O145 O 0.47922 0.57148 0.71459 0.0
C146 C 0.47685 0.67782 0.68948 0.0
C147 C 0.44237 0.60053 0.83986 0.0
C148 C 0.4439 0.59333 0.60018 0.0
O149 O 0.50321 0.67472 0.69959 0.0
O150 O 0.44813 0.65106 0.70116 0.0
O151 O 0.42603 0.57993 0.65103 0.0
O152 O 0.4746 0.61718 0.61002 0.0
C153 C 0.5117 0.58902 0.71948 0.0
O154 O 0.42557 0.58473 0.78949 0.0
O155 O 0.47288 0.62476 0.82895 0.0
C156 C 0.58123 0.14588 0.24796 0.0
C157 C 0.55073 0.14709 0.23788 0.0
C158 C 0.5931 0.14561 0.31095 0.0
C159 C 0.57511 0.14688 0.3663 0.0
H160 H 0.59561 0.14421 0.20697 0.0
H161 H 0.61639 0.14397 0.31618 0.0
S162 S 0.49516 0.15291 0.36616 0.0
N163 N 0.50364 0.15138 0.28838 0.0
N164 N 0.52616 0.15112 0.40678 0.0
C165 C 0.5452 0.14928 0.35691 0.0
C166 C 0.53295 0.1493 0.2927 0.0
C167 C 0.39306 0.53616 0.45847 0.0
C168 C 0.40739 0.55845 0.40456 0.0
C169 C 0.40426 0.54784 0.52201 0.0
C170 C 0.4305 0.58208 0.53374 0.0
H171 H 0.37316 0.50934 0.45164 0.0
H172 H 0.39295 0.52969 0.56197 0.0
S173 S 0.47454 0.65161 0.41058 0.0
N174 N 0.44776 0.61704 0.36787 0.0
N175 N 0.46906 0.63885 0.48725 0.0
C176 C 0.44447 0.6049 0.48064 0.0
C177 C 0.43285 0.59312 0.41603 0.0
C178 C 0.84773 0.40759 0.6862 0.0
C179 C 0.85041 0.43998 0.69697 0.0
C180 C 0.84636 0.3952 0.62296 0.0
C181 C 0.84713 0.41451 0.56807 0.0
H182 H 0.84694 0.39174 0.72689 0.0
H183 H 0.84452 0.37016 0.61714 0.0
S184 S 0.85331 0.50067 0.56977 0.0
N185 N 0.85348 0.49111 0.64737 0.0
N186 N 0.85048 0.46752 0.52856 0.0
C187 C 0.84944 0.44678 0.57807 0.0
C188 C 0.85124 0.45961 0.6425 0.0
C189 C 0.40833 0.85471 0.74473 0.0
C190 C 0.43882 0.85363 0.73354 0.0
C191 C 0.39699 0.85506 0.80816 0.0
C192 C 0.41545 0.85386 0.86279 0.0
H193 H 0.3932 0.85554 0.70424 0.0
H194 H 0.37331 0.85592 0.8143 0.0
S195 S 0.49665 0.85017 0.85977 0.0
N196 N 0.48728 0.85115 0.78232 0.0
N197 N 0.46563 0.85135 0.90149 0.0
C198 C 0.44588 0.85257 0.85231 0.0
C199 C 0.45766 0.8526 0.78769 0.0
C200 C 0.58108 0.44006 0.0139 0.0
C201 C 0.5515 0.40767 0.02495 0.0
C202 C 0.59236 0.45184 0.95052 0.0
C203 C 0.57476 0.43146 0.8959 0.0
H204 H 0.59527 0.45672 0.05442 0.0
H205 H 0.61513 0.47717 0.9444 0.0
S206 S 0.49689 0.34375 0.89896 0.0
N207 N 0.5054 0.35477 0.97636 0.0
N208 N 0.52689 0.37683 0.8572 0.0
C209 C 0.54556 0.39868 0.90634 0.0
C210 C 0.53385 0.38682 0.97089 0.0
C211 C 0.14196 0.58518 0.18064 0.0
C212 C 0.13328 0.55063 0.19169 0.0
C213 C 0.14301 0.59745 0.11748 0.0
C214 C 0.13581 0.57576 0.06293 0.0
H215 H 0.14785 0.60291 0.22106 0.0
H216 H 0.14967 0.62425 0.1114 0.0
S217 S 0.11126 0.48302 0.0652 0.0
N218 N 0.11694 0.49468 0.14255 0.0
N219 N 0.1193 0.51804 0.02385 0.0
C220 C 0.12725 0.54122 0.07309 0.0
C221 C 0.12585 0.52857 0.13748 0.0
C222 C 0.47489 0.24782 0.1595 0.0
C223 C 0.50326 0.28118 0.14893 0.0
C224 C 0.47314 0.21868 0.12898 0.0
C225 C 0.49949 0.22219 0.08641 0.0
H226 H 0.45461 0.24409 0.19311 0.0
H227 H 0.45183 0.1932 0.14098 0.0
S228 S 0.57585 0.30474 0.03367 0.0
N229 N 0.55593 0.31647 0.08685 0.0
N230 N 0.55244 0.26209 0.02942 0.0
C231 C 0.5267 0.2557 0.07234 0.0
C232 C 0.52866 0.28511 0.10368 0.0
C233 C 0.27558 0.53818 0.2768 0.0
C234 C 0.27636 0.50732 0.26735 0.0
C235 C 0.24743 0.5381 0.30637 0.0
C236 C 0.21848 0.50711 0.32745 0.0
H237 H 0.29719 0.56295 0.2621 0.0
H238 H 0.2484 0.56275 0.31211 0.0
S239 S 0.20705 0.41894 0.31332 0.0
N240 N 0.24555 0.44467 0.28119 0.0
N241 N 0.19194 0.44445 0.33606 0.0
C242 C 0.21853 0.47586 0.31779 0.0
C243 C 0.24758 0.47597 0.28785 0.0
C244 C 0.70443 0.25413 0.48903 0.0
C245 C 0.70495 0.22339 0.50197 0.0
C246 C 0.73219 0.28226 0.45844 0.0
C247 C 0.76196 0.28115 0.43987 0.0
H248 H 0.68208 0.25643 0.50156 0.0
H249 H 0.73027 0.30523 0.44988 0.0
S250 S 0.77687 0.20709 0.46384 0.0
N251 N 0.73789 0.19349 0.49429 0.0
N252 N 0.79065 0.24694 0.43756 0.0
C253 C 0.76316 0.25077 0.45306 0.0
C254 C 0.73456 0.2218 0.48397 0.0
C255 C 0.5088 0.76979 0.62947 0.0
C256 C 0.48076 0.76571 0.59131 0.0
C257 C 0.50778 0.74127 0.66106 0.0
C258 C 0.47852 0.70797 0.65597 0.0
H259 H 0.53109 0.79531 0.63694 0.0
H260 H 0.52954 0.74545 0.69093 0.0
S261 S 0.40083 0.68282 0.55359 0.0
N262 N 0.42478 0.72519 0.54442 0.0
N263 N 0.42269 0.67195 0.60375 0.0
C264 C 0.45115 0.7034 0.61533 0.0
C265 C 0.45232 0.73219 0.58297 0.0
C266 C 0.70629 0.45073 0.78423 0.0
C267 C 0.70681 0.48164 0.76792 0.0
C268 C 0.73426 0.45115 0.8154 0.0
C269 C 0.76425 0.48249 0.83136 0.0
H270 H 0.68387 0.42574 0.77351 0.0
H271 H 0.73236 0.42646 0.82631 0.0
S272 S 0.77902 0.57086 0.79923 0.0
N273 N 0.73981 0.54469 0.77038 0.0
N274 N 0.79297 0.54547 0.82838 0.0
C275 C 0.76533 0.51374 0.81541 0.0
C276 C 0.73652 0.51331 0.78375 0.0
C277 C 0.22327 0.73551 0.94795 0.0
C278 C 0.22411 0.70568 0.92811 0.0
C279 C 0.25218 0.76355 0.97739 0.0
C280 C 0.28285 0.76263 0.98848 0.0
H281 H 0.2 0.73708 0.94142 0.0
H282 H 0.25045 0.78606 0.99154 0.0
S283 S 0.29859 0.69072 0.94455 0.0
N284 N 0.25858 0.67731 0.92064 0.0
N285 N 0.31236 0.72943 0.97639 0.0
C286 C 0.28401 0.73299 0.96855 0.0
C287 C 0.25483 0.7047 0.93818 0.0
C288 C 0.54832 0.14573 0.74761 0.0
C289 C 0.57986 0.14629 0.73828 0.0
C290 C 0.53556 0.14531 0.81028 0.0
C291 C 0.55394 0.14575 0.86634 0.0
H292 H 0.53296 0.14497 0.70614 0.0
H293 H 0.51091 0.14436 0.81472 0.0
S294 S 0.63858 0.14865 0.86883 0.0
N295 N 0.62966 0.14818 0.7907 0.0
N296 N 0.6059 0.14772 0.90828 0.0
C297 C 0.5859 0.14708 0.85777 0.0
C298 C 0.59878 0.14724 0.79388 0.0
C299 C 0.39672 0.55857 0.91596 0.0
C300 C 0.4281 0.58978 0.9066 0.0
C301 C 0.38409 0.54615 0.97865 0.0
C302 C 0.40218 0.56455 0.0346 0.0
H303 H 0.38217 0.54303 0.87455 0.0
H304 H 0.36026 0.52156 0.98318 0.0
S305 S 0.48446 0.64895 0.03683 0.0
N306 N 0.47615 0.6397 0.95876 0.0
N307 N 0.45236 0.61658 0.07637 0.0
C308 C 0.43298 0.59644 0.02594 0.0
C309 C 0.44595 0.60898 0.96207 0.0
C310 C 0.83149 0.44557 0.12383 0.0
C311 C 0.83269 0.42796 0.06784 0.0
C312 C 0.83106 0.4328 0.18653 0.0
C313 C 0.83203 0.40199 0.19591 0.0
H314 H 0.83161 0.46986 0.11938 0.0
H315 H 0.83093 0.44778 0.22799 0.0
S316 S 0.83306 0.34476 0.06547 0.0
N317 N 0.83303 0.37702 0.02599 0.0
N318 N 0.83245 0.35322 0.14356 0.0
C319 C 0.83213 0.38353 0.14033 0.0
C320 C 0.83239 0.39644 0.07644 0.0
C321 C 0.4452 0.83558 0.30572 0.0
C322 C 0.42587 0.83336 0.36153 0.0
C323 C 0.43256 0.83508 0.24294 0.0
C324 C 0.40012 0.83252 0.23326 0.0
H325 H 0.47075 0.83859 0.31044 0.0
H326 H 0.4489 0.83782 0.20174 0.0
S327 S 0.33798 0.82309 0.36284 0.0
N328 N 0.37155 0.82621 0.40273 0.0
N329 N 0.34793 0.82548 0.28488 0.0
C330 C 0.37992 0.82893 0.28851 0.0
C331 C 0.39274 0.82929 0.35253 0.0
C332 C 0.55403 0.39839 0.51543 0.0
C333 C 0.58641 0.42845 0.5249 0.0
C334 C 0.54138 0.38601 0.45271 0.0
C335 C 0.56069 0.40303 0.39683 0.0
H336 H 0.53775 0.38482 0.55672 0.0
H337 H 0.51588 0.36333 0.44808 0.0
S338 S 0.64843 0.48113 0.3951 0.0
N339 N 0.63849 0.47374 0.47309 0.0
N340 N 0.61493 0.45039 0.35538 0.0
C341 C 0.59376 0.43231 0.40567 0.0
C342 C 0.60655 0.44504 0.46959 0.0
C343 C 0.14714 0.54251 0.61938 0.0
C344 C 0.14771 0.56103 0.56343 0.0
C345 C 0.14651 0.55475 0.68205 0.0
C346 C 0.14618 0.58589 0.69141 0.0
H347 H 0.14652 0.51798 0.61485 0.0
H348 H 0.14546 0.53919 0.72344 0.0
S349 S 0.14958 0.64534 0.56127 0.0
N350 N 0.14961 0.61308 0.52171 0.0
N351 N 0.14819 0.63588 0.63931 0.0
C352 C 0.14771 0.60518 0.63598 0.0
C353 C 0.14857 0.59282 0.57211 0.0
C354 C 0.46203 0.01138 0.08955 0.0
C355 C 0.4469 0.02933 0.06109 0.0
C356 C 0.44462 0.97529 0.09161 0.0
C357 C 0.41123 0.95543 0.06546 0.0
H358 H 0.48799 0.02526 0.10947 0.0
H359 H 0.45791 0.96286 0.11268 0.0
S360 S 0.35897 0.98954 0.98915 0.0
N361 N 0.39572 0.0246 0.0091 0.0
N362 N 0.36272 0.95615 0.01303 0.0
C363 C 0.39497 0.97284 0.03937 0.0
C364 C 0.41289 0.00995 0.03712 0.0
C365 C 0.42011 0.40544 0.22906 0.0
C366 C 0.45481 0.42132 0.20835 0.0
C367 C 0.40161 0.42338 0.22659 0.0
C368 C 0.41734 0.45767 0.20338 0.0
H369 H 0.40749 0.37941 0.24879 0.0
H370 H 0.37535 0.41081 0.245 0.0
S371 S 0.50587 0.509 0.1349 0.0
N372 N 0.50283 0.4721 0.15779 0.0
N373 N 0.46827 0.50545 0.15341 0.0
C374 C 0.45139 0.47309 0.17972 0.0
C375 C 0.47009 0.455 0.18215 0.0
C376 C 0.00803 0.46874 0.40912 0.0
C377 C 0.02669 0.45215 0.39246 0.0
C378 C 0.97206 0.4514 0.40588 0.0
C379 C 0.95297 0.4166 0.38586 0.0
H380 H 0.02133 0.4957 0.424 0.0
H381 H 0.95918 0.46572 0.41882 0.0
S382 S 0.98924 0.36075 0.33916 0.0
N383 N 0.02356 0.39855 0.35693 0.0
N384 N 0.95525 0.36556 0.3511 0.0
C385 C 0.97108 0.39916 0.37082 0.0
C386 C 0.00811 0.41702 0.37411 0.0
C387 C 0.56761 0.9767 0.55492 0.0
C388 C 0.53578 0.95798 0.52216 0.0
C389 C 0.58462 0.01312 0.55867 0.0
C390 C 0.57015 0.03163 0.52981 0.0
H391 H 0.57846 0.9631 0.5806 0.0
H392 H 0.60831 0.02667 0.58667 0.0
S393 S 0.49058 0.99471 0.42848 0.0
N394 N 0.4929 0.96073 0.45347 0.0
N395 N 0.52464 0.02874 0.4601 0.0
C396 C 0.53961 0.01318 0.49314 0.0
C397 C 0.52246 0.97642 0.48941 0.0
C398 C 0.53412 0.51883 0.69213 0.0
C399 C 0.56987 0.53529 0.70424 0.0
C400 C 0.51606 0.53674 0.69699 0.0
C401 C 0.53285 0.57202 0.71415 0.0
H402 H 0.51963 0.49158 0.67943 0.0
H403 H 0.48848 0.52249 0.68743 0.0
S404 S 0.62652 0.62768 0.74912 0.0
N405 N 0.62185 0.58923 0.73283 0.0
N406 N 0.58762 0.62324 0.74173 0.0
C407 C 0.5688 0.58923 0.72507 0.0
C408 C 0.58737 0.57079 0.72011 0.0
C409 C 0.00998 0.59004 0.86527 0.0
C410 C 0.02903 0.57724 0.89778 0.0
C411 C 0.97359 0.57258 0.86958 0.0
C412 C 0.95557 0.54202 0.90659 0.0
H413 H 0.02303 0.61245 0.83376 0.0
H414 H 0.95948 0.58182 0.8409 0.0
S415 S -0.00587 0.50223 0.01083 0.0
N416 N 0.02754 0.5353 0.9755 0.0
N417 N 0.95963 0.50268 0.98316 0.0
C418 C 0.97463 0.53074 0.94312 0.0
C419 C 0.0113 0.54833 0.93883 0.0
loop_
_geom_bond_atom_site_label_1
_geom_bond_atom_site_label_2
_geom_bond_distance
_geom_bond_site_symmetry_2
_ccdc_geom_bond_type
In0 O1 2.294 1_554 S
In0 O2 2.326 1_554 S
In0 O6 2.266 . S
In0 O7 2.326 . S
In0 O8 2.266 . S
In0 O9 2.326 . S
In0 O11 2.294 . S
In0 O12 2.326 . S
O1 In0 2.294 1_556 S
O1 C10 1.240 . S
O2 In0 2.326 1_556 S
O2 C10 1.252 . S
C3 O6 1.252 . S
C3 O7 1.260 . S
C4 O11 1.240 . S
C4 O12 1.252 . S
C5 O8 1.252 . S
C5 O9 1.260 . S
O6 In0 2.266 . S
O6 C3 1.252 . S
O7 In0 2.326 . S
O7 C3 1.260 . S
O8 In0 2.266 . S
O8 C5 1.252 . S
O9 In0 2.326 . S
O9 C5 1.260 . S
C10 O1 1.240 . S
C10 O2 1.252 . S
O11 In0 2.294 . S
O11 C4 1.240 . S
O12 In0 2.326 . S
O12 C4 1.252 . S
In13 O14 2.294 . S
In13 O15 2.326 . S
In13 O19 2.266 . S
In13 O20 2.326 . S
In13 O21 2.266 . S
In13 O22 2.326 . S
In13 O24 2.294 . S
In13 O25 2.326 . S
O14 In13 2.294 . S
O14 C23 1.240 . S
O15 In13 2.326 . S
O15 C23 1.252 . S
C16 O19 1.252 . S
C16 O20 1.260 . S
C17 O24 1.240 . S
C17 O25 1.252 . S
C18 O21 1.252 . S
C18 O22 1.260 . S
O19 In13 2.266 . S
O19 C16 1.252 . S
O20 In13 2.326 . S
O20 C16 1.260 . S
O21 In13 2.266 . S
O21 C18 1.252 . S
O22 In13 2.326 . S
O22 C18 1.260 . S
C23 O14 1.240 . S
C23 O15 1.252 . S
O24 In13 2.294 . S
O24 C17 1.240 . S
O25 In13 2.326 . S
O25 C17 1.252 . S
In26 O27 2.294 . S
In26 O28 2.326 . S
In26 O32 2.266 . S
In26 O33 2.326 . S
In26 O34 2.266 . S
In26 O35 2.326 . S
In26 O37 2.294 . S
In26 O38 2.326 . S
O27 In26 2.294 . S
O27 C36 1.240 . S
O28 In26 2.326 . S
O28 C36 1.252 . S
C29 O32 1.252 . S
C29 O33 1.260 . S
C30 O37 1.240 . S
C30 O38 1.252 . S
C31 O34 1.252 . S
C31 O35 1.260 . S
O32 In26 2.266 . S
O32 C29 1.252 . S
O33 In26 2.326 . S
O33 C29 1.260 . S
O34 In26 2.266 . S
O34 C31 1.252 . S
O35 In26 2.326 . S
O35 C31 1.260 . S
C36 O27 1.240 . S
C36 O28 1.252 . S
O37 In26 2.294 . S
O37 C30 1.240 . S
O38 In26 2.326 . S
O38 C30 1.252 . S
In39 O40 2.294 . S
In39 O41 2.326 . S
In39 O45 2.266 . S
In39 O46 2.326 . S
In39 O47 2.266 . S
In39 O48 2.326 . S
In39 O50 2.294 . S
In39 O51 2.326 . S
O40 In39 2.294 . S
O40 C49 1.240 . S
O41 In39 2.326 . S
O41 C49 1.252 . S
C42 O45 1.252 . S
C42 O46 1.260 . S
C43 O50 1.240 . S
C43 O51 1.252 . S
C44 O47 1.252 . S
C44 O48 1.260 . S
O45 In39 2.266 . S
O45 C42 1.252 . S
O46 In39 2.326 . S
O46 C42 1.260 . S
O47 In39 2.266 . S
O47 C44 1.252 . S
O48 In39 2.326 . S
O48 C44 1.260 . S
C49 O40 1.240 . S
C49 O41 1.252 . S
O50 In39 2.294 . S
O50 C43 1.240 . S
O51 In39 2.326 . S
O51 C43 1.252 . S
In52 O53 2.294 . S
In52 O54 2.326 . S
In52 O58 2.266 . S
In52 O59 2.326 . S
In52 O60 2.266 . S
In52 O61 2.326 . S
In52 O63 2.294 . S
In52 O64 2.326 . S
O53 In52 2.294 . S
O53 C62 1.240 . S
O54 In52 2.326 . S
O54 C62 1.252 . S
C55 O58 1.252 . S
C55 O59 1.260 . S
C56 O63 1.240 . S
C56 O64 1.252 . S
C57 O60 1.252 . S
C57 O61 1.260 . S
O58 In52 2.266 . S
O58 C55 1.252 . S
O59 In52 2.326 . S
O59 C55 1.260 . S
O60 In52 2.266 . S
O60 C57 1.252 . S
O61 In52 2.326 . S
O61 C57 1.260 . S
C62 O53 1.240 . S
C62 O54 1.252 . S
O63 In52 2.294 . S
O63 C56 1.240 . S
O64 In52 2.326 . S
O64 C56 1.252 . S
In65 O66 2.294 . S
In65 O67 2.326 . S
In65 O71 2.266 . S
In65 O72 2.327 1_556 S
In65 O73 2.266 . S
In65 O74 2.326 . S
In65 O76 2.294 . S
In65 O77 2.326 . S
O66 In65 2.294 . S
O66 C75 1.240 . S
O67 In65 2.326 . S
O67 C75 1.252 . S
C68 O71 1.252 1_554 S
C68 O72 1.260 . S
C69 O76 1.240 . S
C69 O77 1.252 . S
C70 O73 1.252 . S
C70 O74 1.260 . S
O71 In65 2.266 . S
O71 C68 1.252 1_556 S
O72 In65 2.327 1_554 S
O72 C68 1.260 . S
O73 In65 2.266 . S
O73 C70 1.252 . S
O74 In65 2.326 . S
O74 C70 1.260 . S
C75 O66 1.240 . S
C75 O67 1.252 . S
O76 In65 2.294 . S
O76 C69 1.240 . S
O77 In65 2.326 . S
O77 C69 1.252 . S
In78 O79 2.294 . S
In78 O80 2.326 . S
In78 O84 2.266 . S
In78 O85 2.326 . S
In78 O86 2.266 . S
In78 O87 2.326 . S
In78 O89 2.294 . S
In78 O90 2.326 . S
O79 In78 2.294 . S
O79 C88 1.240 . S
O80 In78 2.326 . S
O80 C88 1.252 . S
C81 O84 1.252 . S
C81 O85 1.260 . S
C82 O89 1.240 . S
C82 O90 1.252 . S
C83 O86 1.252 . S
C83 O87 1.260 . S
O84 In78 2.266 . S
O84 C81 1.252 . S
O85 In78 2.326 . S
O85 C81 1.260 . S
O86 In78 2.266 . S
O86 C83 1.252 . S
O87 In78 2.326 . S
O87 C83 1.260 . S
C88 O79 1.240 . S
C88 O80 1.252 . S
O89 In78 2.294 . S
O89 C82 1.240 . S
O90 In78 2.326 . S
O90 C82 1.252 . S
In91 O92 2.294 . S
In91 O93 2.326 . S
In91 O97 2.266 . S
In91 O98 2.326 . S
In91 O99 2.266 1_554 S
In91 O100 2.326 1_554 S
In91 O102 2.294 . S
In91 O103 2.326 . S
O92 In91 2.294 . S
O92 C101 1.240 . S
O93 In91 2.326 . S
O93 C101 1.252 . S
C94 O97 1.252 . S
C94 O98 1.260 . S
C95 O102 1.240 . S
C95 O103 1.252 . S
C96 O99 1.252 . S
C96 O100 1.260 . S
O97 In91 2.266 . S
O97 C94 1.252 . S
O98 In91 2.326 . S
O98 C94 1.260 . S
O99 In91 2.266 1_556 S
O99 C96 1.252 . S
O100 In91 2.326 1_556 S
O100 C96 1.260 . S
C101 O92 1.240 . S
C101 O93 1.252 . S
O102 In91 2.294 . S
O102 C95 1.240 . S
O103 In91 2.326 . S
O103 C95 1.252 . S
In104 O105 2.294 . S
In104 O106 2.326 . S
In104 O110 2.266 . S
In104 O111 2.326 . S
In104 O112 2.266 . S
In104 O113 2.326 . S
In104 O115 2.294 . S
In104 O116 2.326 . S
O105 In104 2.294 . S
O105 C114 1.240 . S
O106 In104 2.326 . S
O106 C114 1.252 . S
C107 O110 1.252 . S
C107 O111 1.260 . S
C108 O115 1.240 . S
C108 O116 1.252 . S
C109 O112 1.252 . S
C109 O113 1.260 . S
O110 In104 2.266 . S
O110 C107 1.252 . S
O111 In104 2.326 . S
O111 C107 1.260 . S
O112 In104 2.266 . S
O112 C109 1.252 . S
O113 In104 2.326 . S
O113 C109 1.260 . S
C114 O105 1.240 . S
C114 O106 1.252 . S
O115 In104 2.294 . S
O115 C108 1.240 . S
O116 In104 2.326 . S
O116 C108 1.252 . S
In117 O118 2.294 . S
In117 O119 2.326 . S
In117 O123 2.266 . S
In117 O124 2.326 . S
In117 O125 2.266 . S
In117 O126 2.326 . S
In117 O128 2.294 . S
In117 O129 2.326 . S
O118 In117 2.294 . S
O118 C127 1.240 . S
O119 In117 2.326 . S
O119 C127 1.252 . S
C120 O123 1.252 . S
C120 O124 1.260 . S
C121 O128 1.240 . S
C121 O129 1.252 . S
C122 O125 1.252 . S
C122 O126 1.260 . S
O123 In117 2.266 . S
O123 C120 1.252 . S
O124 In117 2.326 . S
O124 C120 1.260 . S
O125 In117 2.266 . S
O125 C122 1.252 . S
O126 In117 2.326 . S
O126 C122 1.260 . S
C127 O118 1.240 . S
C127 O119 1.252 . S
O128 In117 2.294 . S
O128 C121 1.240 . S
O129 In117 2.326 . S
O129 C121 1.252 . S
In130 O131 2.294 . S
In130 O132 2.326 . S
In130 O136 2.266 . S
In130 O137 2.326 . S
In130 O138 2.266 . S
In130 O139 2.326 . S
In130 O141 2.294 . S
In130 O142 2.326 . S
O131 In130 2.294 . S
O131 C140 1.240 . S
O132 In130 2.326 . S
O132 C140 1.252 . S
C133 O136 1.252 . S
C133 O137 1.260 . S
C134 O141 1.240 . S
C134 O142 1.252 . S
C135 O138 1.252 . S
C135 O139 1.260 . S
O136 In130 2.266 . S
O136 C133 1.252 . S
O137 In130 2.326 . S
O137 C133 1.260 . S
O138 In130 2.266 . S
O138 C135 1.252 . S
O139 In130 2.326 . S
O139 C135 1.260 . S
C140 O131 1.240 . S
C140 O132 1.252 . S
O141 In130 2.294 . S
O141 C134 1.240 . S
O142 In130 2.326 . S
O142 C134 1.252 . S
In143 O144 2.294 . S
In143 O145 2.326 . S
In143 O149 2.266 . S
In143 O150 2.326 . S
In143 O151 2.266 . S
In143 O152 2.326 . S
In143 O154 2.294 . S
In143 O155 2.326 . S
O144 In143 2.294 . S
O144 C153 1.240 . S
O145 In143 2.326 . S
O145 C153 1.252 . S
C146 O149 1.252 . S
C146 O150 1.260 . S
C147 O154 1.240 . S
C147 O155 1.252 . S
C148 O151 1.252 . S
C148 O152 1.260 . S
O149 In143 2.266 . S
O149 C146 1.252 . S
O150 In143 2.326 . S
O150 C146 1.260 . S
O151 In143 2.266 . S
O151 C148 1.252 . S
O152 In143 2.326 . S
O152 C148 1.260 . S
C153 O144 1.240 . S
C153 O145 1.252 . S
O154 In143 2.294 . S
O154 C147 1.240 . S
O155 In143 2.326 . S
O155 C147 1.252 . S
C156 C157 1.369 . S
C156 C158 1.419 . S
C156 H160 0.930 . S
C157 C156 1.369 . S
C157 C166 1.429 . S
C158 C156 1.419 . S
C158 C159 1.363 . S
C158 H161 0.929 . S
C159 C158 1.363 . S
C159 C165 1.428 . S
H160 C156 0.930 . S
H161 C158 0.929 . S
S162 N163 1.613 . S
S162 N164 1.610 . S
N163 S162 1.613 . S
N163 C166 1.350 . S
N164 S162 1.610 . S
N164 C165 1.351 . S
C165 C159 1.428 . S
C165 N164 1.351 . S
C165 C166 1.434 . S
C166 C157 1.429 . S
C166 N163 1.350 . S
C166 C165 1.434 . S
C167 C168 1.369 . S
C167 C169 1.419 . S
C167 H171 0.930 . S
C168 C167 1.369 . S
C168 C177 1.429 . S
C169 C167 1.419 . S
C169 C170 1.363 . S
C169 H172 0.929 . S
C170 C169 1.363 . S
C170 C176 1.428 . S
H171 C167 0.930 . S
H172 C169 0.929 . S
S173 N174 1.613 . S
S173 N175 1.610 . S
N174 S173 1.613 . S
N174 C177 1.350 . S
N175 S173 1.610 . S
N175 C176 1.351 . S
C176 C170 1.428 . S
C176 N175 1.351 . S
C176 C177 1.434 . S
C177 C168 1.429 . S
C177 N174 1.350 . S
C177 C176 1.434 . S
C178 C179 1.369 . S
C178 C180 1.419 . S
C178 H182 0.930 . S
C179 C178 1.369 . S
C179 C188 1.429 . S
C180 C178 1.419 . S
C180 C181 1.363 . S
C180 H183 0.929 . S
C181 C180 1.363 . S
C181 C187 1.428 . S
H182 C178 0.930 . S
H183 C180 0.929 . S
S184 N185 1.613 . S
S184 N186 1.610 . S
N185 S184 1.613 . S
N185 C188 1.350 . S
N186 S184 1.610 . S
N186 C187 1.351 . S
C187 C181 1.428 . S
C187 N186 1.351 . S
C187 C188 1.434 . S
C188 C179 1.429 . S
C188 N185 1.350 . S
C188 C187 1.434 . S
C189 C190 1.369 . S
C189 C191 1.419 . S
C189 H193 0.930 . S
C190 C189 1.369 . S
C190 C199 1.429 . S
C191 C189 1.419 . S
C191 C192 1.363 . S
C191 H194 0.929 . S
C192 C191 1.363 . S
C192 C198 1.428 . S
H193 C189 0.930 . S
H194 C191 0.929 . S
S195 N196 1.613 . S
S195 N197 1.610 . S
N196 S195 1.613 . S
N196 C199 1.350 . S
N197 S195 1.610 . S
N197 C198 1.351 . S
C198 C192 1.428 . S
C198 N197 1.351 . S
C198 C199 1.434 . S
C199 C190 1.429 . S
C199 N196 1.350 . S
C199 C198 1.434 . S
C200 C201 1.369 . S
C200 C202 1.419 1_554 S
C200 H204 0.930 . S
C201 C200 1.369 . S
C201 C210 1.429 1_554 S
C202 C200 1.419 1_556 S
C202 C203 1.363 . S
C202 H205 0.929 . S
C203 C202 1.363 . S
C203 C209 1.428 . S
H204 C200 0.930 . S
H205 C202 0.929 . S
S206 N207 1.613 . S
S206 N208 1.610 . S
N207 S206 1.613 . S
N207 C210 1.350 . S
N208 S206 1.610 . S
N208 C209 1.351 . S
C209 C203 1.428 . S
C209 N208 1.351 . S
C209 C210 1.434 . S
C210 C201 1.429 1_556 S
C210 N207 1.350 . S
C210 C209 1.434 . S
C211 C212 1.369 . S
C211 C213 1.419 . S
C211 H215 0.930 . S
C212 C211 1.369 . S
C212 C221 1.429 . S
C213 C211 1.419 . S
C213 C214 1.363 . S
C213 H216 0.929 . S
C214 C213 1.363 . S
C214 C220 1.428 . S
H215 C211 0.930 . S
H216 C213 0.929 . S
S217 N218 1.613 . S
S217 N219 1.610 . S
N218 S217 1.613 . S
N218 C221 1.350 . S
N219 S217 1.610 . S
N219 C220 1.351 . S
C220 C214 1.428 . S
C220 N219 1.351 . S
C220 C221 1.434 . S
C221 C212 1.429 . S
C221 N218 1.350 . S
C221 C220 1.434 . S
C222 C223 1.369 . S
C222 C224 1.419 . S
C222 H226 0.930 . S
C223 C222 1.369 . S
C223 C232 1.429 . S
C224 C222 1.419 . S
C224 C225 1.363 . S
C224 H227 0.929 . S
C225 C224 1.363 . S
C225 C231 1.428 . S
H226 C222 0.930 . S
H227 C224 0.929 . S
S228 N229 1.613 . S
S228 N230 1.610 . S
N229 S228 1.613 . S
N229 C232 1.350 . S
N230 S228 1.610 . S
N230 C231 1.351 . S
C231 C225 1.428 . S
C231 N230 1.351 . S
C231 C232 1.434 . S
C232 C223 1.429 . S
C232 N229 1.350 . S
C232 C231 1.434 . S
C233 C234 1.369 . S
C233 C235 1.419 . S
C233 H237 0.930 . S
C234 C233 1.369 . S
C234 C243 1.429 . S
C235 C233 1.419 . S
C235 C236 1.363 . S
C235 H238 0.929 . S
C236 C235 1.363 . S
C236 C242 1.428 . S
H237 C233 0.930 . S
H238 C235 0.929 . S
S239 N240 1.613 . S
S239 N241 1.610 . S
N240 S239 1.613 . S
N240 C243 1.350 . S
N241 S239 1.610 . S
N241 C242 1.351 . S
C242 C236 1.428 . S
C242 N241 1.351 . S
C242 C243 1.434 . S
C243 C234 1.429 . S
C243 N240 1.350 . S
C243 C242 1.434 . S
C244 C245 1.369 . S
C244 C246 1.419 . S
C244 H248 0.930 . S
C245 C244 1.369 . S
C245 C254 1.429 . S
C246 C244 1.419 . S
C246 C247 1.363 . S
C246 H249 0.929 . S
C247 C246 1.363 . S
C247 C253 1.428 . S
H248 C244 0.930 . S
H249 C246 0.929 . S
S250 N251 1.613 . S
S250 N252 1.610 . S
N251 S250 1.613 . S
N251 C254 1.350 . S
N252 S250 1.610 . S
N252 C253 1.351 . S
C253 C247 1.428 . S
C253 N252 1.351 . S
C253 C254 1.434 . S
C254 C245 1.429 . S
C254 N251 1.350 . S
C254 C253 1.434 . S
C255 C256 1.369 . S
C255 C257 1.419 . S
C255 H259 0.930 . S
C256 C255 1.369 . S
C256 C265 1.429 . S
C257 C255 1.419 . S
C257 C258 1.363 . S
C257 H260 0.929 . S
C258 C257 1.363 . S
C258 C264 1.428 . S
H259 C255 0.930 . S
H260 C257 0.929 . S
S261 N262 1.613 . S
S261 N263 1.610 . S
N262 S261 1.613 . S
N262 C265 1.350 . S
N263 S261 1.610 . S
N263 C264 1.351 . S
C264 C258 1.428 . S
C264 N263 1.351 . S
C264 C265 1.434 . S
C265 C256 1.429 . S
C265 N262 1.350 . S
C265 C264 1.434 . S
C266 C267 1.369 . S
C266 C268 1.419 . S
C266 H270 0.930 . S
C267 C266 1.369 . S
C267 C276 1.429 . S
C268 C266 1.419 . S
C268 C269 1.363 . S
C268 H271 0.929 . S
C269 C268 1.363 . S
C269 C275 1.428 . S
H270 C266 0.930 . S
H271 C268 0.929 . S
S272 N273 1.613 . S
S272 N274 1.610 . S
N273 S272 1.613 . S
N273 C276 1.350 . S
N274 S272 1.610 . S
N274 C275 1.351 . S
C275 C269 1.428 . S
C275 N274 1.351 . S
C275 C276 1.434 . S
C276 C267 1.429 . S
C276 N273 1.350 . S
C276 C275 1.434 . S
C277 C278 1.369 . S
C277 C279 1.419 . S
C277 H281 0.930 . S
C278 C277 1.369 . S
C278 C287 1.429 . S
C279 C277 1.419 . S
C279 C280 1.363 . S
C279 H282 0.929 . S
C280 C279 1.363 . S
C280 C286 1.428 . S
H281 C277 0.930 . S
H282 C279 0.929 . S
S283 N284 1.613 . S
S283 N285 1.610 . S
N284 S283 1.613 . S
N284 C287 1.350 . S
N285 S283 1.610 . S
N285 C286 1.351 . S
C286 C280 1.428 . S
C286 N285 1.351 . S
C286 C287 1.434 . S
C287 C278 1.429 . S
C287 N284 1.350 . S
C287 C286 1.434 . S
C288 C289 1.369 . S
C288 C290 1.419 . S
C288 H292 0.930 . S
C289 C288 1.369 . S
C289 C298 1.429 . S
C290 C288 1.419 . S
C290 C291 1.363 . S
C290 H293 0.929 . S
C291 C290 1.363 . S
C291 C297 1.428 . S
H292 C288 0.930 . S
H293 C290 0.929 . S
S294 N295 1.613 . S
S294 N296 1.610 . S
N295 S294 1.613 . S
N295 C298 1.350 . S
N296 S294 1.610 . S
N296 C297 1.351 . S
C297 C291 1.428 . S
C297 N296 1.351 . S
C297 C298 1.434 . S
C298 C289 1.429 . S
C298 N295 1.350 . S
C298 C297 1.434 . S
C299 C300 1.369 . S
C299 C301 1.419 . S
C299 H303 0.930 . S
C300 C299 1.369 . S
C300 C309 1.429 . S
C301 C299 1.419 . S
C301 C302 1.363 1_556 S
C301 H304 0.929 . S
C302 C301 1.363 1_554 S
C302 C308 1.428 . S
H303 C299 0.930 . S
H304 C301 0.929 . S
S305 N306 1.613 1_554 S
S305 N307 1.610 . S
N306 S305 1.613 1_556 S
N306 C309 1.350 . S
N307 S305 1.610 . S
N307 C308 1.351 . S
C308 C302 1.428 . S
C308 N307 1.351 . S
C308 C309 1.434 1_554 S
C309 C300 1.429 . S
C309 N306 1.350 . S
C309 C308 1.434 1_556 S
C310 C311 1.369 . S
C310 C312 1.419 . S
C310 H314 0.930 . S
C311 C310 1.369 . S
C311 C320 1.429 . S
C312 C310 1.419 . S
C312 C313 1.363 . S
C312 H315 0.929 . S
C313 C312 1.363 . S
C313 C319 1.428 . S
H314 C310 0.930 . S
H315 C312 0.929 . S
S316 N317 1.613 . S
S316 N318 1.610 . S
N317 S316 1.613 . S
N317 C320 1.350 . S
N318 S316 1.610 . S
N318 C319 1.351 . S
C319 C313 1.428 . S
C319 N318 1.351 . S
C319 C320 1.434 . S
C320 C311 1.429 . S
C320 N317 1.350 . S
C320 C319 1.434 . S
C321 C322 1.369 . S
C321 C323 1.419 . S
C321 H325 0.930 . S
C322 C321 1.369 . S
C322 C331 1.429 . S
C323 C321 1.419 . S
C323 C324 1.363 . S
C323 H326 0.929 . S
C324 C323 1.363 . S
C324 C330 1.428 . S
H325 C321 0.930 . S
H326 C323 0.929 . S
S327 N328 1.613 . S
S327 N329 1.610 . S
N328 S327 1.613 . S
N328 C331 1.350 . S
N329 S327 1.610 . S
N329 C330 1.351 . S
C330 C324 1.428 . S
C330 N329 1.351 . S
C330 C331 1.434 . S
C331 C322 1.429 . S
C331 N328 1.350 . S
C331 C330 1.434 . S
C332 C333 1.369 . S
C332 C334 1.419 . S
C332 H336 0.930 . S
C333 C332 1.369 . S
C333 C342 1.429 . S
C334 C332 1.419 . S
C334 C335 1.363 . S
C334 H337 0.929 . S
C335 C334 1.363 . S
C335 C341 1.428 . S
H336 C332 0.930 . S
H337 C334 0.929 . S
S338 N339 1.613 . S
S338 N340 1.610 . S
N339 S338 1.613 . S
N339 C342 1.350 . S
N340 S338 1.610 . S
N340 C341 1.351 . S
C341 C335 1.428 . S
C341 N340 1.351 . S
C341 C342 1.434 . S
C342 C333 1.429 . S
C342 N339 1.350 . S
C342 C341 1.434 . S
C343 C344 1.369 . S
C343 C345 1.419 . S
C343 H347 0.930 . S
C344 C343 1.369 . S
C344 C353 1.429 . S
C345 C343 1.419 . S
C345 C346 1.363 . S
C345 H348 0.929 . S
C346 C345 1.363 . S
C346 C352 1.428 . S
H347 C343 0.930 . S
H348 C345 0.929 . S
S349 N350 1.613 . S
S349 N351 1.610 . S
N350 S349 1.613 . S
N350 C353 1.350 . S
N351 S349 1.610 . S
N351 C352 1.351 . S
C352 C346 1.428 . S
C352 N351 1.351 . S
C352 C353 1.434 . S
C353 C344 1.429 . S
C353 N350 1.350 . S
C353 C352 1.434 . S
C354 C355 1.369 . S
C354 C356 1.419 1_545 S
C354 H358 0.930 . S
C355 C354 1.369 . S
C355 C364 1.429 1_554 S
C356 C354 1.419 1_565 S
C356 C357 1.363 . S
C356 H359 0.929 . S
C357 C356 1.363 . S
C357 C363 1.428 1_554 S
H358 C354 0.930 . S
H359 C356 0.929 . S
S360 N361 1.613 1_565 S
S360 N362 1.610 . S
N361 S360 1.613 1_545 S
N361 C364 1.350 . S
N362 S360 1.610 . S
N362 C363 1.351 . S
C363 C357 1.428 1_556 S
C363 N362 1.351 . S
C363 C364 1.434 1_565 S
C364 C355 1.429 1_556 S
C364 N361 1.350 . S
C364 C363 1.434 1_545 S
C365 C366 1.369 . S
C365 C367 1.419 . S
C365 H369 0.930 . S
C366 C365 1.369 . S
C366 C375 1.429 . S
C367 C365 1.419 . S
C367 C368 1.363 . S
C367 H370 0.929 . S
C368 C367 1.363 . S
C368 C374 1.428 . S
H369 C365 0.930 . S
H370 C367 0.929 . S
S371 N372 1.613 . S
S371 N373 1.610 . S
N372 S371 1.613 . S
N372 C375 1.350 . S
N373 S371 1.610 . S
N373 C374 1.351 . S
C374 C368 1.428 . S
C374 N373 1.351 . S
C374 C375 1.434 . S
C375 C366 1.429 . S
C375 N372 1.350 . S
C375 C374 1.434 . S
C376 C377 1.369 . S
C376 C378 1.419 1_455 S
C376 H380 0.930 . S
C377 C376 1.369 . S
C377 C386 1.429 . S
C378 C376 1.419 1_655 S
C378 C379 1.363 . S
C378 H381 0.929 . S
C379 C378 1.363 . S
C379 C385 1.428 . S
H380 C376 0.930 . S
H381 C378 0.929 . S
S382 N383 1.613 . S
S382 N384 1.610 1_455 S
N383 S382 1.613 . S
N383 C386 1.350 . S
N384 S382 1.610 1_655 S
N384 C385 1.351 . S
C385 C379 1.428 . S
C385 N384 1.351 . S
C385 C386 1.434 1_655 S
C386 C377 1.429 . S
C386 N383 1.350 . S
C386 C385 1.434 1_455 S
C387 C388 1.369 . S
C387 C389 1.419 1_565 S
C387 H391 0.930 . S
C388 C387 1.369 . S
C388 C397 1.429 . S
C389 C387 1.419 1_545 S
C389 C390 1.363 . S
C389 H392 0.929 . S
C390 C389 1.363 . S
C390 C396 1.428 . S
H391 C387 0.930 . S
H392 C389 0.929 . S
S393 N394 1.613 1_545 S
S393 N395 1.610 . S
N394 S393 1.613 1_565 S
N394 C397 1.350 . S
N395 S393 1.610 . S
N395 C396 1.351 . S
C396 C390 1.428 . S
C396 N395 1.351 . S
C396 C397 1.434 1_545 S
C397 C388 1.429 . S
C397 N394 1.350 . S
C397 C396 1.434 1_565 S
C398 C399 1.369 . S
C398 C400 1.419 . S
C398 H402 0.930 . S
C399 C398 1.369 . S
C399 C408 1.429 . S
C400 C398 1.419 . S
C400 C401 1.363 . S
C400 H403 0.929 . S
C401 C400 1.363 . S
C401 C407 1.428 . S
H402 C398 0.930 . S
H403 C400 0.929 . S
S404 N405 1.613 . S
S404 N406 1.610 . S
N405 S404 1.613 . S
N405 C408 1.350 . S
N406 S404 1.610 . S
N406 C407 1.351 . S
C407 C401 1.428 . S
C407 N406 1.351 . S
C407 C408 1.434 . S
C408 C399 1.429 . S
C408 N405 1.350 . S
C408 C407 1.434 . S
C409 C410 1.369 . S
C409 C411 1.419 1_455 S
C409 H413 0.930 . S
C410 C409 1.369 . S
C410 C419 1.429 . S
C411 C409 1.419 1_655 S
C411 C412 1.363 . S
C411 H414 0.929 . S
C412 C411 1.363 . S
C412 C418 1.428 . S
H413 C409 0.930 . S
H414 C411 0.929 . S
S415 N416 1.613 1_554 S
S415 N417 1.610 1_455 S
N416 S415 1.613 1_556 S
N416 C419 1.350 . S
N417 S415 1.610 1_655 S
N417 C418 1.351 1_554 S
C418 C412 1.428 . S
C418 N417 1.351 1_556 S
C418 C419 1.434 1_655 S
C419 C410 1.429 . S
C419 N416 1.350 . S
C419 C418 1.434 1_455 S
C157 C3 1.236 . S
C159 C133 1.238 . S
C168 C16 1.239 . S
C170 C148 1.237 . S
C179 C83 1.235 . S
C181 C29 1.238 . S
C190 C42 1.236 . S
C192 C96 1.238 . S
C201 C109 1.236 . S
C203 C55 1.238 . S
C212 C122 1.235 . S
C214 C68 1.236 . S
C223 C107 1.396 . S
C225 C5 1.399 . S
C234 C18 1.400 . S
C236 C120 1.399 . S
C245 C135 1.400 . S
C247 C31 1.397 . S
C256 C44 1.399 . S
C258 C146 1.396 . S
C267 C57 1.400 . S
C269 C81 1.399 . S
C278 C70 1.396 . S
C280 C94 1.398 1_556 S
C289 C140 1.655 . S
C291 C10 1.655 . S
C300 C147 1.655 . S
C302 C23 1.655 . S
C311 C82 1.656 1_554 S
C313 C36 1.656 . S
C322 C49 1.656 . S
C324 C95 1.656 . S
C333 C62 1.656 . S
C335 C108 1.655 . S
C344 C121 1.656 . S
C346 C75 1.656 . S
C355 C4 1.475 . S
C357 C101 1.473 . S
C366 C114 1.472 . S
C368 C17 1.472 . S
C377 C127 1.471 . S
C379 C30 1.474 . S
C388 C43 1.475 . S
C390 C134 1.472 . S
C399 C56 1.471 . S
C401 C153 1.475 . S
C410 C69 1.471 . S
C412 C88 1.474 . S
