# Generated by pormake.
# Topology smc, (6)-cn, num edge types: 1
# Building blocks:
#     Node 0, Type 0, BuildingBlock: IZENUY_clean_sbu_0, # of connection points: 6
#     Node 1, Type 0, BuildingBlock: IZENUY_clean_sbu_0, # of connection points: 6
#     Node 2, Type 0, BuildingBlock: IZENUY_clean_sbu_0, # of connection points: 6
#     Node 3, Type 0, BuildingBlock: IZENUY_clean_sbu_0, # of connection points: 6
#     Node 4, Type 0, BuildingBlock: IZENUY_clean_sbu_0, # of connection points: 6
#     Node 5, Type 0, BuildingBlock: IZENUY_clean_sbu_0, # of connection points: 6
#     Node 6, Type 0, BuildingBlock: IZENUY_clean_sbu_0, # of connection points: 6
#     Node 7, Type 0, BuildingBlock: IZENUY_clean_sbu_0, # of connection points: 6
#     Node 8, Type 0, BuildingBlock: IZENUY_clean_sbu_0, # of connection points: 6
#     Edge 9, Type (0, 0), BuildingBlock: EYOCIG_clean_linker_4, # of connection points: 2
#     Edge 10, Type (0, 0), BuildingBlock: EYOCIG_clean_linker_4, # of connection points: 2
#     Edge 11, Type (0, 0), BuildingBlock: EYOCIG_clean_linker_4, # of connection points: 2
#     Edge 12, Type (0, 0), BuildingBlock: EYOCIG_clean_linker_4, # of connection points: 2
#     Edge 13, Type (0, 0), BuildingBlock: EYOCIG_clean_linker_4, # of connection points: 2
#     Edge 14, Type (0, 0), BuildingBlock: EYOCIG_clean_linker_4, # of connection points: 2
#     Edge 15, Type (0, 0), BuildingBlock: EYOCIG_clean_linker_4, # of connection points: 2
#     Edge 16, Type (0, 0), BuildingBlock: EYOCIG_clean_linker_4, # of connection points: 2
#     Edge 17, Type (0, 0), BuildingBlock: EYOCIG_clean_linker_4, # of connection points: 2
#     Edge 18, Type (0, 0), BuildingBlock: EYOCIG_clean_linker_4, # of connection points: 2
#     Edge 19, Type (0, 0), BuildingBlock: EYOCIG_clean_linker_4, # of connection points: 2
#     Edge 20, Type (0, 0), BuildingBlock: EYOCIG_clean_linker_4, # of connection points: 2
#     Edge 21, Type (0, 0), BuildingBlock: EYOCIG_clean_linker_4, # of connection points: 2
#     Edge 22, Type (0, 0), BuildingBlock: EYOCIG_clean_linker_4, # of connection points: 2
#     Edge 23, Type (0, 0), BuildingBlock: EYOCIG_clean_linker_4, # of connection points: 2
#     Edge 24, Type (0, 0), BuildingBlock: EYOCIG_clean_linker_4, # of connection points: 2
#     Edge 25, Type (0, 0), BuildingBlock: EYOCIG_clean_linker_4, # of connection points: 2
#     Edge 26, Type (0, 0), BuildingBlock: EYOCIG_clean_linker_4, # of connection points: 2
#     Edge 27, Type (0, 0), BuildingBlock: EYOCIG_clean_linker_4, # of connection points: 2
#     Edge 28, Type (0, 0), BuildingBlock: EYOCIG_clean_linker_4, # of connection points: 2
#     Edge 29, Type (0, 0), BuildingBlock: EYOCIG_clean_linker_4, # of connection points: 2
#     Edge 30, Type (0, 0), BuildingBlock: EYOCIG_clean_linker_4, # of connection points: 2
#     Edge 31, Type (0, 0), BuildingBlock: EYOCIG_clean_linker_4, # of connection points: 2
#     Edge 32, Type (0, 0), BuildingBlock: EYOCIG_clean_linker_4, # of connection points: 2
#     Edge 33, Type (0, 0), BuildingBlock: EYOCIG_clean_linker_4, # of connection points: 2
#     Edge 34, Type (0, 0), BuildingBlock: EYOCIG_clean_linker_4, # of connection points: 2
#     Edge 35, Type (0, 0), BuildingBlock: EYOCIG_clean_linker_4, # of connection points: 2
# Relax obj value: 0.289
# Max RMSD: 0.292
# Mean RMSD: 0.291
data_MOF--net-smc--node1-IZENUY_clean_sbu_0--edge1-EYOCIG_clean_linker_4
_symmetry_space_group_name_H-M    P1
_symmetry_Int_Tables_number       1
_symmetry_cell_setting            triclinic
loop_
_symmetry_equiv_pos_as_xyz
'x, y, z'
_cell_length_a     23.028974
_cell_length_b     23.038967
_cell_length_c     35.877903
_cell_angle_alpha  90.082349
_cell_angle_beta   90.083656
_cell_angle_gamma 120.00747
loop_
_atom_site_label
_atom_site_type_symbol
_atom_site_fract_x
_atom_site_fract_y
_atom_site_fract_z
_atom_type_partial_charge
Fe0 Fe 0.09083 0.49944 0.9837 0.0
Fe1 Fe 0.03504 0.35633 0.01284 0.0
O2 O 0.03508 0.43324 0.01286 0.0
Fe3 Fe 0.97937 0.44387 0.04204 0.0
O4 O 0.94007 0.4581 1.00278 0.0
O5 O 0.03293 0.53384 0.97627 0.0
O6 O 0.05513 0.4492 0.94245 0.0
C7 C 0.05377 0.39474 0.93668 0.0
C8 C 0.10005 0.57317 0.04354 0.0
O9 O 0.05989 0.36182 0.96326 0.0
C10 C 1.01636 0.37632 0.08902 0.0
O11 O 0.15884 0.47814 0.98729 0.0
O12 O 0.12088 0.39723 0.02895 0.0
O13 O 0.03733 0.53619 0.04948 0.0
O14 O 0.13016 0.55309 0.02298 0.0
C15 C 0.90104 0.31186 0.01292 0.0
O16 O 1.01018 0.33717 0.06242 0.0
O17 O 1.01506 0.42943 0.08328 0.0
C18 C 0.16906 0.44574 0.01278 0.0
O19 O 0.9492 0.31143 0.99673 0.0
O20 O 0.91131 0.35458 0.03843 0.0
C21 C 0.9702 0.50815 0.98217 0.0
Fe22 Fe 0.70289 0.69185 0.01279 0.0
Fe23 Fe 0.5596 0.6041 0.98347 0.0
O24 O 0.62602 0.61488 0.01276 0.0
Fe25 Fe 0.61566 0.54877 0.042 0.0
O26 O 0.63027 0.5991 0.0832 0.0
O27 O 0.72237 0.68649 0.06241 0.0
O28 O 0.6619 0.73667 0.02879 0.0
C29 C 0.61324 0.73613 0.01253 0.0
C30 C 0.74757 0.60254 0.01301 0.0
O31 O 0.58079 0.69337 0.98701 0.0
C32 C 0.55104 0.47485 0.98216 0.0
O33 O 0.6971 0.71091 0.96318 0.0
O34 O 0.60973 0.61854 0.9423 0.0
O35 O 0.70501 0.57016 0.03849 0.0
O36 O 0.74785 0.65101 0.9968 0.0
C37 C 0.48627 0.53994 0.04335 0.0
O38 O 0.52527 0.51177 0.97611 0.0
O39 O 0.60127 0.49502 1.00279 0.0
C40 C 0.66414 0.67168 0.93658 0.0
O41 O 0.50606 0.58985 0.02265 0.0
O42 O 0.52335 0.51432 0.04936 0.0
C43 C 0.68336 0.65361 0.08897 0.0
Fe44 Fe 0.45444 0.96816 0.98353 0.0
Fe45 Fe 0.36712 0.024 0.01282 0.0
O46 O 0.44402 0.02394 0.01283 0.0
Fe47 Fe 0.51039 0.07964 0.04215 0.0
O48 O 0.56397 0.11888 1.00301 0.0
O49 O 0.54675 0.02604 0.97621 0.0
O50 O 0.43983 1.00381 0.94237 0.0
C51 C 0.38674 1.00522 0.93662 0.0
C52 C 0.51901 0.95899 0.04337 0.0
O53 O 0.34768 0.99907 0.96318 0.0
C54 C 0.40579 0.0427 0.08903 0.0
O55 O 0.3651 0.90019 0.987 0.0
O56 O 0.3222 0.93825 0.02874 0.0
O57 O 0.54475 0.02169 0.04947 0.0
O58 O 0.46885 0.92889 0.02268 0.0
C59 C 0.45672 0.15793 0.01317 0.0
O60 O 0.37285 0.04894 0.06245 0.0
O61 O 0.46024 0.04402 0.0833 0.0
C62 C 0.32253 0.89004 0.01249 0.0
O63 O 0.40807 0.10977 0.99689 0.0
O64 O 0.48917 0.1477 0.03868 0.0
C65 C 0.58381 0.08874 0.98228 0.0
Fe66 Fe 0.64604 0.77731 0.37539 0.0
Fe67 Fe 0.7017 0.68977 0.34617 0.0
O68 O 0.70174 0.76668 0.3462 0.0
Fe69 Fe 0.75748 0.83289 0.31704 0.0
O70 O 0.79682 0.88654 0.35632 0.0
O71 O 0.704 0.86962 0.38283 0.0
O72 O 0.68174 0.76285 0.41662 0.0
C73 C 0.68305 0.70974 0.42235 0.0
C74 C 0.63686 0.84161 0.31555 0.0
O75 O 0.67685 0.67059 0.39575 0.0
C76 C 0.72042 0.7282 0.27001 0.0
O77 O 0.57798 0.68802 0.37178 0.0
O78 O 0.61585 0.64488 0.33007 0.0
O79 O 0.69957 0.86729 0.30962 0.0
O80 O 0.60672 0.79156 0.33614 0.0
C81 C 0.83572 0.77918 0.34611 0.0
O82 O 0.72654 0.69528 0.29658 0.0
O83 O 0.72178 0.78265 0.27579 0.0
C84 C 0.5677 0.6453 0.34627 0.0
O85 O 0.78754 0.73067 0.36228 0.0
O86 O 0.82549 0.81159 0.32062 0.0
C87 C 0.76672 0.9066 0.37691 0.0
Fe88 Fe 0.28231 0.88221 0.37531 0.0
Fe89 Fe 0.36952 0.02529 0.3461 0.0
O90 O 0.29266 0.94832 0.34607 0.0
Fe91 Fe 0.22623 0.93754 0.3168 0.0
O92 O 0.17271 0.92331 0.35599 0.0
O93 O 0.19 0.84777 0.38268 0.0
O94 O 0.29694 0.93254 0.41651 0.0
C95 C 0.35003 0.98705 0.42228 0.0
C96 C 0.21765 0.80829 0.31548 0.0
O97 O 0.38903 0.01993 0.39572 0.0
C98 C 0.33074 1.0051 0.26989 0.0
O99 O 0.37165 0.9036 0.37179 0.0
O100 O 0.41448 0.98445 0.3301 0.0
O101 O 0.19188 0.84521 0.30944 0.0
O102 O 0.2679 0.82846 0.3361 0.0
C103 C 0.27988 0.06958 0.34585 0.0
O104 O 0.36371 0.04434 0.29648 0.0
O105 O 0.27633 0.95197 0.27562 0.0
C106 C 0.4142 0.93598 0.34631 0.0
O107 O 0.32855 0.07012 0.3621 0.0
O108 O 0.24742 0.02681 0.32033 0.0
C109 C 0.15292 0.87339 0.37669 0.0
Fe110 Fe 0.03377 0.35744 0.34618 0.0
Fe111 Fe 0.1211 0.30162 0.31688 0.0
O112 O 0.11067 0.35739 0.34619 0.0
Fe113 Fe 0.17705 0.4131 0.3755 0.0
O114 O 0.12691 0.37748 0.41665 0.0
O115 O 0.03951 0.38238 0.39581 0.0
O116 O 0.98886 0.27169 0.3621 0.0
C117 C 0.9892 0.22348 0.34585 0.0
C118 C 0.12335 0.49137 0.34652 0.0
O119 O 0.03177 0.23364 0.32036 0.0
C120 C 0.25047 0.4222 0.31564 0.0
O121 O 1.01433 0.33251 0.29654 0.0
O122 O 0.10648 0.33725 0.27573 0.0
O123 O 0.15581 0.48115 0.37203 0.0
O124 O 0.07471 0.44321 0.33025 0.0
C125 C 0.18567 0.29246 0.37673 0.0
O126 O 0.21342 0.35951 0.30956 0.0
O127 O 0.23062 0.45235 0.33636 0.0
C128 C 0.05338 0.33865 0.26997 0.0
O129 O 0.13552 0.26235 0.35604 0.0
O130 O 0.21142 0.35516 0.38282 0.0
C131 C 0.07246 0.37614 0.42239 0.0
Fe132 Fe 0.42424 0.16618 0.65036 0.0
Fe133 Fe 0.36843 0.02305 0.67948 0.0
O134 O 0.36849 0.09997 0.67952 0.0
Fe135 Fe 0.31279 0.1106 0.70871 0.0
O136 O 0.27348 0.12485 0.66945 0.0
O137 O 0.36634 0.20058 0.64294 0.0
O138 O 0.38854 0.11595 0.6091 0.0
C139 C 0.38716 0.0615 0.60333 0.0
C140 C 0.43347 0.23989 0.71022 0.0
O141 O 0.39328 0.02856 0.6299 0.0
C142 C 0.34977 0.04301 0.75567 0.0
O143 O 0.49224 0.14487 0.65394 0.0
O144 O 0.45427 0.06394 0.69559 0.0
O145 O 0.37075 0.20292 0.71615 0.0
O146 O 0.46358 0.21981 0.68964 0.0
C147 C 0.23444 0.9786 0.67957 0.0
O148 O 0.34358 1.00387 0.72907 0.0
O149 O 0.34848 0.09613 0.74994 0.0
C150 C 0.50246 0.11245 0.67942 0.0
O151 O 0.28259 0.97817 0.66338 0.0
O152 O 0.24472 0.02131 0.70509 0.0
C153 C 0.30362 0.1749 0.64885 0.0
Fe154 Fe 0.94905 0.21546 0.70866 0.0
Fe155 Fe 0.03626 0.35855 0.67946 0.0
O156 O 0.9594 0.28158 0.67943 0.0
Fe157 Fe 0.89297 0.27081 0.65015 0.0
O158 O 0.83944 0.25656 0.68934 0.0
O159 O 0.85674 0.18101 0.71602 0.0
O160 O 0.96366 0.26577 0.74986 0.0
C161 C 1.01675 0.32028 0.75564 0.0
C162 C 0.88441 0.14157 0.64882 0.0
O163 O 0.05575 0.35318 0.72908 0.0
C164 C 0.99749 0.3384 0.60325 0.0
O165 O 0.03839 0.23686 0.70514 0.0
O166 O 0.08123 0.31772 0.66346 0.0
O167 O 0.85864 0.17849 0.64278 0.0
O168 O 0.93465 0.16174 0.66944 0.0
C169 C 0.94662 0.40284 0.67921 0.0
O170 O 0.03046 0.37763 0.62985 0.0
O171 O 0.94309 0.28526 0.60897 0.0
C172 C 0.08095 0.26925 0.67966 0.0
O173 O 0.99528 0.40337 0.69547 0.0
O174 O 0.91416 0.36008 0.65369 0.0
C175 C 0.81966 0.20663 0.71003 0.0
Fe176 Fe 0.78783 0.63491 0.65019 0.0
Fe177 Fe 0.70051 0.69073 0.67951 0.0
O178 O 0.77741 0.69067 0.67951 0.0
Fe179 Fe 0.84379 0.74637 0.70883 0.0
O180 O 0.89736 0.78563 0.66968 0.0
O181 O 0.88015 0.6928 0.64287 0.0
O182 O 0.7732 0.67056 0.60904 0.0
C183 C 0.72011 0.67197 0.6033 0.0
C184 C 0.85242 0.62573 0.71002 0.0
O185 O 0.68106 0.66581 0.62987 0.0
C186 C 0.7392 0.70941 0.75572 0.0
O187 O 0.6985 0.56693 0.65367 0.0
O188 O 0.6556 0.60497 0.69543 0.0
O189 O 0.87816 0.68842 0.71613 0.0
O190 O 0.80226 0.59563 0.68934 0.0
C191 C 0.7901 0.82466 0.67986 0.0
O192 O 0.70625 0.71565 0.72915 0.0
O193 O 0.79365 0.71074 0.74998 0.0
C194 C 0.65594 0.55677 0.67917 0.0
O195 O 0.74145 0.77649 0.66359 0.0
O196 O 0.82256 0.81443 0.70536 0.0
C197 C 0.9172 0.75549 0.64894 0.0
C198 C 0.35565 0.48486 0.04465 0.0
C199 C 0.41447 0.5019 0.04806 0.0
C200 C 0.2907 0.47176 0.03361 0.0
C201 C 0.23637 0.46193 0.0231 0.0
C202 C 0.57406 0.88343 0.04445 0.0
C203 C 0.55706 0.9252 0.04796 0.0
C204 C 0.5871 0.83161 0.03334 0.0
C205 C 0.59693 0.78714 0.0228 0.0
C206 C 0.22716 0.76858 0.03336 0.0
C207 C 0.27157 0.82279 0.0228 0.0
C208 C 0.17545 0.70379 0.04452 0.0
C209 C 0.13375 0.64503 0.04806 0.0
C210 C 0.48288 0.27945 0.99235 0.0
C211 C 0.47307 0.22522 1.00289 0.0
C212 C 0.49593 0.34424 0.98119 0.0
C213 C 0.51294 0.40298 0.97764 0.0
C214 C 0.71443 0.16434 0.98103 0.0
C215 C 0.65562 0.12253 0.97759 0.0
C216 C 0.77938 0.21622 0.99209 0.0
C217 C 0.83371 0.26074 1.00261 0.0
C218 C 0.89478 0.56334 0.98107 0.0
C219 C 0.93649 0.54627 0.97759 0.0
C220 C 0.84303 0.57646 0.99217 0.0
C221 C 0.79859 0.58629 1.0027 0.0
C222 C 0.95736 0.80521 0.36694 0.0
C223 C 0.90303 0.79538 0.35642 0.0
C224 C 1.0223 0.81831 0.37798 0.0
C225 C 0.08112 0.83535 0.38139 0.0
C226 C 0.24072 0.21689 0.37777 0.0
C227 C 0.22373 0.25866 0.38129 0.0
C228 C 0.25376 0.16507 0.36666 0.0
C229 C 0.26358 0.1206 0.35612 0.0
C230 C 0.89384 0.10201 0.36671 0.0
C231 C 0.93825 0.15623 0.35615 0.0
C232 C 0.84213 0.03722 0.37787 0.0
C233 C 0.80043 0.97846 0.38141 0.0
C234 C 0.16254 0.67767 0.31453 0.0
C235 C 0.17954 0.73642 0.31097 0.0
C236 C 0.1495 0.61289 0.3257 0.0
C237 C 0.13969 0.55866 0.33624 0.0
C238 C 0.38109 0.49779 0.31436 0.0
C239 C 0.32228 0.45599 0.31093 0.0
C240 C 0.44603 0.54967 0.32542 0.0
C241 C 0.50037 0.59419 0.33595 0.0
C242 C 0.50968 0.90991 0.32547 0.0
C243 C 0.46523 0.91974 0.336 0.0
C244 C 0.56143 0.89679 0.31439 0.0
C245 C 0.60315 0.87972 0.31093 0.0
C246 C 0.68903 0.15155 0.71131 0.0
C247 C 0.74785 0.16859 0.71472 0.0
C248 C 0.62409 0.13845 0.70026 0.0
C249 C 0.56976 0.12864 0.68974 0.0
C250 C 0.9205 0.49833 0.70002 0.0
C251 C 0.93032 0.45386 0.68949 0.0
C252 C 0.90746 0.55016 0.71113 0.0
C253 C 0.89047 0.59194 0.71462 0.0
C254 C 0.56059 0.4353 0.70003 0.0
C255 C 0.60499 0.48951 0.68947 0.0
C256 C 0.50888 0.37051 0.7112 0.0
C257 C 0.46717 0.31175 0.71474 0.0
C258 C 0.81625 0.94617 0.65903 0.0
C259 C 0.80644 0.89194 0.66958 0.0
C260 C 0.82929 1.01095 0.64786 0.0
C261 C 0.8463 0.0697 0.6443 0.0
C262 C 0.04782 0.83109 0.64768 0.0
C263 C 0.98901 0.78929 0.64425 0.0
C264 C 0.11277 0.88297 0.65874 0.0
C265 C 0.16711 0.92749 0.66926 0.0
C266 C 0.22819 0.23008 0.64773 0.0
C267 C 0.26991 0.21301 0.64426 0.0
C268 C 0.17644 0.2432 0.65882 0.0
C269 C 0.13199 0.25302 0.66935 0.0
C270 C 1.0257 0.34311 0.19898 0.0
C271 C 0.03482 0.34089 0.23196 0.0
C272 C 1.02044 0.34857 0.16 0.0
C273 C 1.0184 0.35779 0.12703 0.0
C274 C 0.71637 0.69633 0.19899 0.0
C275 C 0.71839 0.70756 0.23199 0.0
C276 C 0.71112 0.68568 0.16 0.0
C277 C 0.70198 0.6744 0.12699 0.0
C278 C 0.37366 0.03818 0.15999 0.0
C279 C 0.38507 0.04043 0.12703 0.0
C280 C 0.36275 0.0327 0.19894 0.0
C281 C 0.35137 0.02351 0.2319 0.0
C282 C 0.35908 1.00972 0.86562 0.0
C283 C 0.3682 1.00749 0.89861 0.0
C284 C 0.35383 1.01522 0.82665 0.0
C285 C 0.3518 0.02446 0.79367 0.0
C286 C 0.04976 0.3629 0.86566 0.0
C287 C 0.05177 0.37411 0.89866 0.0
C288 C 0.04452 0.3523 0.82666 0.0
C289 C 0.03539 0.34105 0.79366 0.0
C290 C 0.70706 0.70483 0.82668 0.0
C291 C 0.71848 0.70711 0.79372 0.0
C292 C 0.69615 0.69932 0.86563 0.0
C293 C 0.68477 0.69011 0.89859 0.0
C294 C 0.68715 0.68197 0.49333 0.0
C295 C 0.6851 0.6912 0.46036 0.0
C296 C 0.69242 0.67647 0.53231 0.0
C297 C 0.70155 0.67423 0.56529 0.0
C298 C 0.37784 1.01907 0.4933 0.0
C299 C 0.36869 1.00782 0.4603 0.0
C300 C 0.38311 0.02967 0.5323 0.0
C301 C 0.38514 0.04086 0.5653 0.0
C302 C 0.02946 0.36607 0.5323 0.0
C303 C 1.0181 0.35685 0.56526 0.0
C304 C 0.04034 0.37159 0.49335 0.0
C305 C 0.05174 0.37385 0.46039 0.0
loop_
_geom_bond_atom_site_label_1
_geom_bond_atom_site_label_2
_geom_bond_distance
_geom_bond_site_symmetry_2
_ccdc_geom_bond_type
Fe0 O2 1.918 1_556 S
Fe0 O5 1.997 1_455 S
Fe0 O6 2.002 . S
Fe0 O11 1.976 . S
Fe0 O14 2.000 . S
Fe1 O2 1.918 . S
Fe1 O9 1.997 1_454 S
Fe1 O12 1.996 1_554 S
Fe1 O16 1.976 . S
Fe1 O19 2.002 1_455 S
O2 Fe0 1.918 1_554 S
O2 Fe1 1.918 . S
O2 Fe3 1.918 1_455 S
Fe3 O2 1.918 1_655 S
Fe3 O4 2.002 . S
Fe3 O13 1.976 1_655 S
Fe3 O17 1.996 . S
Fe3 O20 1.997 . S
O4 Fe3 2.002 . S
O4 C21 1.295 1_554 S
O5 Fe0 1.997 1_655 S
O5 C21 1.235 . S
O6 Fe0 2.002 . S
O6 C7 1.295 1_455 S
C7 O6 1.295 1_655 S
C7 O9 1.235 . S
C8 O13 1.287 . S
C8 O14 1.247 1_554 S
O9 Fe1 1.997 1_656 S
O9 C7 1.235 . S
C10 O16 1.287 . S
C10 O17 1.255 1_455 S
O11 Fe0 1.976 . S
O11 C18 1.287 . S
O12 Fe1 1.996 1_556 S
O12 C18 1.255 . S
O13 Fe3 1.976 1_455 S
O13 C8 1.287 . S
O14 Fe0 2.000 . S
O14 C8 1.247 1_556 S
C15 O19 1.295 . S
C15 O20 1.235 . S
O16 Fe1 1.976 . S
O16 C10 1.287 . S
O17 Fe3 1.996 . S
O17 C10 1.255 1_655 S
C18 O11 1.287 . S
C18 O12 1.255 . S
O19 Fe1 2.002 1_655 S
O19 C15 1.295 . S
O20 Fe3 1.997 . S
O20 C15 1.235 . S
C21 O4 1.295 1_556 S
C21 O5 1.235 . S
Fe22 O24 1.918 . S
Fe22 O27 1.997 . S
Fe22 O28 2.002 1_554 S
Fe22 O33 1.976 1_554 S
Fe22 O36 1.996 . S
Fe23 O24 1.918 1_556 S
Fe23 O31 1.997 . S
Fe23 O34 1.996 . S
Fe23 O38 1.976 . S
Fe23 O41 2.002 . S
O24 Fe22 1.918 . S
O24 Fe23 1.918 1_554 S
O24 Fe25 1.918 . S
Fe25 O24 1.918 . S
Fe25 O26 2.002 . S
Fe25 O35 1.976 . S
Fe25 O39 1.996 . S
Fe25 O42 1.997 . S
O26 Fe25 2.002 . S
O26 C43 1.295 . S
O27 Fe22 1.997 . S
O27 C43 1.235 . S
O28 Fe22 2.002 1_556 S
O28 C29 1.295 . S
C29 O28 1.295 . S
C29 O31 1.235 . S
C30 O35 1.287 . S
C30 O36 1.255 . S
O31 Fe23 1.997 . S
O31 C29 1.235 . S
C32 O38 1.287 . S
C32 O39 1.255 1_556 S
O33 Fe22 1.976 1_556 S
O33 C40 1.287 . S
O34 Fe23 1.996 . S
O34 C40 1.255 . S
O35 Fe25 1.976 . S
O35 C30 1.287 . S
O36 Fe22 1.996 . S
O36 C30 1.255 . S
C37 O41 1.295 1_554 S
C37 O42 1.235 . S
O38 Fe23 1.976 . S
O38 C32 1.287 . S
O39 Fe25 1.996 . S
O39 C32 1.255 1_554 S
C40 O33 1.287 . S
C40 O34 1.255 . S
O41 Fe23 2.002 . S
O41 C37 1.295 1_556 S
O42 Fe25 1.997 . S
O42 C37 1.235 . S
C43 O26 1.295 . S
C43 O27 1.235 . S
Fe44 O46 1.913 1_566 S
Fe44 O49 1.997 1_565 S
Fe44 O50 2.002 . S
Fe44 O55 1.976 . S
Fe44 O58 1.983 1_556 S
Fe45 O46 1.922 . S
Fe45 O53 1.997 1_554 S
Fe45 O56 1.996 1_544 S
Fe45 O60 1.976 1_545 S
Fe45 O63 2.002 . S
O46 Fe44 1.913 1_544 S
O46 Fe45 1.922 . S
O46 Fe47 1.920 . S
Fe47 O46 1.920 . S
Fe47 O48 2.002 . S
Fe47 O57 1.976 1_545 S
Fe47 O61 1.996 . S
Fe47 O64 1.997 . S
O48 Fe47 2.002 . S
O48 C65 1.295 1_554 S
O49 Fe44 1.997 1_545 S
O49 C65 1.235 . S
O50 Fe44 2.002 . S
O50 C51 1.295 1_565 S
C51 O50 1.295 1_545 S
C51 O53 1.235 . S
C52 O57 1.287 . S
C52 O58 1.275 . S
O53 Fe45 1.997 1_556 S
O53 C51 1.235 . S
C54 O60 1.287 . S
C54 O61 1.255 1_565 S
O55 Fe44 1.976 . S
O55 C62 1.287 . S
O56 Fe45 1.996 1_566 S
O56 C62 1.255 . S
O57 Fe47 1.976 1_565 S
O57 C52 1.287 . S
O58 Fe44 1.983 1_554 S
O58 C52 1.275 . S
C59 O63 1.295 . S
C59 O64 1.235 . S
O60 Fe45 1.976 1_565 S
O60 C54 1.287 . S
O61 Fe47 1.996 . S
O61 C54 1.255 1_545 S
C62 O55 1.287 . S
C62 O56 1.255 . S
O63 Fe45 2.002 . S
O63 C59 1.295 . S
O64 Fe47 1.997 . S
O64 C59 1.235 . S
C65 O48 1.295 1_556 S
C65 O49 1.235 . S
Fe66 O68 1.918 . S
Fe66 O71 1.997 . S
Fe66 O72 2.002 . S
Fe66 O77 1.976 . S
Fe66 O80 1.996 . S
Fe67 O68 1.918 . S
Fe67 O75 1.997 . S
Fe67 O78 1.996 . S
Fe67 O82 1.976 . S
Fe67 O85 2.002 . S
O68 Fe66 1.918 . S
O68 Fe67 1.918 . S
O68 Fe69 1.918 . S
Fe69 O68 1.918 . S
Fe69 O70 2.002 . S
Fe69 O79 1.976 . S
Fe69 O83 1.996 . S
Fe69 O86 1.997 . S
O70 Fe69 2.002 . S
O70 C87 1.295 . S
O71 Fe66 1.997 . S
O71 C87 1.235 . S
O72 Fe66 2.002 . S
O72 C73 1.295 . S
C73 O72 1.295 . S
C73 O75 1.235 . S
C74 O79 1.287 . S
C74 O80 1.255 . S
O75 Fe67 1.997 . S
O75 C73 1.235 . S
C76 O82 1.287 . S
C76 O83 1.255 . S
O77 Fe66 1.976 . S
O77 C84 1.287 . S
O78 Fe67 1.996 . S
O78 C84 1.255 . S
O79 Fe69 1.976 . S
O79 C74 1.287 . S
O80 Fe66 1.996 . S
O80 C74 1.255 . S
C81 O85 1.295 . S
C81 O86 1.235 . S
O82 Fe67 1.976 . S
O82 C76 1.287 . S
O83 Fe69 1.996 . S
O83 C76 1.255 . S
C84 O77 1.287 . S
C84 O78 1.255 . S
O85 Fe67 2.002 . S
O85 C81 1.295 . S
O86 Fe69 1.997 . S
O86 C81 1.235 . S
C87 O70 1.295 . S
C87 O71 1.235 . S
Fe88 O90 1.918 . S
Fe88 O93 1.997 . S
Fe88 O94 2.002 . S
Fe88 O99 1.976 . S
Fe88 O102 1.996 . S
Fe89 O90 1.918 . S
Fe89 O97 1.997 1_565 S
Fe89 O100 1.996 . S
Fe89 O104 1.976 . S
Fe89 O107 2.002 1_565 S
O90 Fe88 1.918 . S
O90 Fe89 1.918 . S
O90 Fe91 1.918 . S
Fe91 O90 1.918 . S
Fe91 O92 2.002 . S
Fe91 O101 1.976 . S
Fe91 O105 1.996 . S
Fe91 O108 1.997 . S
O92 Fe91 2.002 . S
O92 C109 1.295 . S
O93 Fe88 1.997 . S
O93 C109 1.235 . S
O94 Fe88 2.002 . S
O94 C95 1.295 . S
C95 O94 1.295 . S
C95 O97 1.235 1_565 S
C96 O101 1.287 . S
C96 O102 1.255 . S
O97 Fe89 1.997 1_545 S
O97 C95 1.235 1_545 S
C98 O104 1.287 . S
C98 O105 1.255 . S
O99 Fe88 1.976 . S
O99 C106 1.287 . S
O100 Fe89 1.996 . S
O100 C106 1.255 . S
O101 Fe91 1.976 . S
O101 C96 1.287 . S
O102 Fe88 1.996 . S
O102 C96 1.255 . S
C103 O107 1.295 . S
C103 O108 1.235 1_545 S
O104 Fe89 1.976 . S
O104 C98 1.287 . S
O105 Fe91 1.996 . S
O105 C98 1.255 . S
C106 O99 1.287 . S
C106 O100 1.255 . S
O107 Fe89 2.002 1_545 S
O107 C103 1.295 . S
O108 Fe91 1.997 . S
O108 C103 1.235 1_565 S
C109 O92 1.295 . S
C109 O93 1.235 . S
Fe110 O112 1.918 . S
Fe110 O115 1.997 . S
Fe110 O116 2.002 1_455 S
Fe110 O121 1.976 . S
Fe110 O124 1.996 . S
Fe111 O112 1.918 . S
Fe111 O119 1.997 . S
Fe111 O122 1.996 . S
Fe111 O126 1.976 . S
Fe111 O129 2.002 . S
O112 Fe110 1.918 . S
O112 Fe111 1.918 . S
O112 Fe113 1.918 . S
Fe113 O112 1.918 . S
Fe113 O114 2.002 . S
Fe113 O123 1.976 . S
Fe113 O127 1.996 . S
Fe113 O130 1.997 . S
O114 Fe113 2.002 . S
O114 C131 1.295 . S
O115 Fe110 1.997 . S
O115 C131 1.235 . S
O116 Fe110 2.002 1_655 S
O116 C117 1.295 . S
C117 O116 1.295 . S
C117 O119 1.235 1_655 S
C118 O123 1.287 . S
C118 O124 1.255 . S
O119 Fe111 1.997 . S
O119 C117 1.235 1_455 S
C120 O126 1.287 . S
C120 O127 1.255 . S
O121 Fe110 1.976 . S
O121 C128 1.287 . S
O122 Fe111 1.996 . S
O122 C128 1.255 . S
O123 Fe113 1.976 . S
O123 C118 1.287 . S
O124 Fe110 1.996 . S
O124 C118 1.255 . S
C125 O129 1.295 . S
C125 O130 1.235 . S
O126 Fe111 1.976 . S
O126 C120 1.287 . S
O127 Fe113 1.996 . S
O127 C120 1.255 . S
C128 O121 1.287 . S
C128 O122 1.255 . S
O129 Fe111 2.002 . S
O129 C125 1.295 . S
O130 Fe113 1.997 . S
O130 C125 1.235 . S
C131 O114 1.295 . S
C131 O115 1.235 . S
Fe132 O134 1.918 . S
Fe132 O137 1.997 . S
Fe132 O138 2.002 . S
Fe132 O143 1.976 . S
Fe132 O146 1.996 . S
Fe133 O134 1.918 . S
Fe133 O141 1.997 . S
Fe133 O144 1.996 . S
Fe133 O148 1.976 . S
Fe133 O151 2.002 1_545 S
O134 Fe132 1.918 . S
O134 Fe133 1.918 . S
O134 Fe135 1.918 . S
Fe135 O134 1.918 . S
Fe135 O136 2.002 . S
Fe135 O145 1.976 . S
Fe135 O149 1.996 . S
Fe135 O152 1.997 . S
O136 Fe135 2.002 . S
O136 C153 1.295 . S
O137 Fe132 1.997 . S
O137 C153 1.235 . S
O138 Fe132 2.002 . S
O138 C139 1.295 . S
C139 O138 1.295 . S
C139 O141 1.235 . S
C140 O145 1.287 . S
C140 O146 1.255 . S
O141 Fe133 1.997 . S
O141 C139 1.235 . S
C142 O148 1.287 . S
C142 O149 1.255 . S
O143 Fe132 1.976 . S
O143 C150 1.287 . S
O144 Fe133 1.996 . S
O144 C150 1.255 . S
O145 Fe135 1.976 . S
O145 C140 1.287 . S
O146 Fe132 1.996 . S
O146 C140 1.255 . S
C147 O151 1.295 . S
C147 O152 1.235 1_565 S
O148 Fe133 1.976 . S
O148 C142 1.287 . S
O149 Fe135 1.996 . S
O149 C142 1.255 . S
C150 O143 1.287 . S
C150 O144 1.255 . S
O151 Fe133 2.002 1_565 S
O151 C147 1.295 . S
O152 Fe135 1.997 . S
O152 C147 1.235 1_545 S
C153 O136 1.295 . S
C153 O137 1.235 . S
Fe154 O156 1.918 . S
Fe154 O159 1.997 . S
Fe154 O160 2.002 . S
Fe154 O165 1.976 . S
Fe154 O168 1.996 . S
Fe155 O156 1.918 . S
Fe155 O163 1.997 . S
Fe155 O166 1.996 1_655 S
Fe155 O170 1.976 1_655 S
Fe155 O173 2.002 . S
O156 Fe154 1.918 . S
O156 Fe155 1.918 . S
O156 Fe157 1.918 . S
Fe157 O156 1.918 . S
Fe157 O158 2.002 . S
Fe157 O167 1.976 . S
Fe157 O171 1.996 . S
Fe157 O174 1.997 . S
O158 Fe157 2.002 . S
O158 C175 1.295 . S
O159 Fe154 1.997 . S
O159 C175 1.235 . S
O160 Fe154 2.002 . S
O160 C161 1.295 . S
C161 O160 1.295 . S
C161 O163 1.235 . S
C162 O167 1.287 . S
C162 O168 1.255 . S
O163 Fe155 1.997 . S
O163 C161 1.235 . S
C164 O170 1.287 1_655 S
C164 O171 1.255 . S
O165 Fe154 1.976 . S
O165 C172 1.287 1_655 S
O166 Fe155 1.996 1_455 S
O166 C172 1.255 . S
O167 Fe157 1.976 . S
O167 C162 1.287 . S
O168 Fe154 1.996 . S
O168 C162 1.255 . S
C169 O173 1.295 . S
C169 O174 1.235 . S
O170 Fe155 1.976 1_455 S
O170 C164 1.287 1_455 S
O171 Fe157 1.996 . S
O171 C164 1.255 . S
C172 O165 1.287 1_455 S
C172 O166 1.255 . S
O173 Fe155 2.002 . S
O173 C169 1.295 . S
O174 Fe157 1.997 . S
O174 C169 1.235 . S
C175 O158 1.295 . S
C175 O159 1.235 . S
Fe176 O178 1.918 . S
Fe176 O181 1.997 . S
Fe176 O182 2.002 . S
Fe176 O187 1.976 . S
Fe176 O190 1.996 . S
Fe177 O178 1.918 . S
Fe177 O185 1.997 . S
Fe177 O188 1.996 . S
Fe177 O192 1.976 . S
Fe177 O195 2.002 . S
O178 Fe176 1.918 . S
O178 Fe177 1.918 . S
O178 Fe179 1.918 . S
Fe179 O178 1.918 . S
Fe179 O180 2.002 . S
Fe179 O189 1.976 . S
Fe179 O193 1.996 . S
Fe179 O196 1.997 . S
O180 Fe179 2.002 . S
O180 C197 1.295 . S
O181 Fe176 1.997 . S
O181 C197 1.235 . S
O182 Fe176 2.002 . S
O182 C183 1.295 . S
C183 O182 1.295 . S
C183 O185 1.235 . S
C184 O189 1.287 . S
C184 O190 1.255 . S
O185 Fe177 1.997 . S
O185 C183 1.235 . S
C186 O192 1.287 . S
C186 O193 1.255 . S
O187 Fe176 1.976 . S
O187 C194 1.287 . S
O188 Fe177 1.996 . S
O188 C194 1.255 . S
O189 Fe179 1.976 . S
O189 C184 1.287 . S
O190 Fe176 1.996 . S
O190 C184 1.255 . S
C191 O195 1.295 . S
C191 O196 1.235 . S
O192 Fe177 1.976 . S
O192 C186 1.287 . S
O193 Fe179 1.996 . S
O193 C186 1.255 . S
C194 O187 1.287 . S
C194 O188 1.255 . S
O195 Fe177 2.002 . S
O195 C191 1.295 . S
O196 Fe179 1.997 . S
O196 C191 1.235 . S
C197 O180 1.295 . S
C197 O181 1.235 . S
C198 C199 1.170 . S
C198 C200 1.380 . S
C199 C198 1.170 . S
C200 C198 1.380 . S
C200 C201 1.170 1_554 S
C201 C200 1.170 1_556 S
C202 C203 1.170 . S
C202 C204 1.380 . S
C203 C202 1.170 . S
C204 C202 1.380 . S
C204 C205 1.170 1_554 S
C205 C204 1.170 1_556 S
C206 C207 1.179 . S
C206 C208 1.371 1_556 S
C207 C206 1.179 . S
C208 C206 1.371 1_554 S
C208 C209 1.170 . S
C209 C208 1.170 . S
C210 C211 1.170 . S
C210 C212 1.380 1_554 S
C211 C210 1.170 . S
C212 C210 1.380 1_556 S
C212 C213 1.170 . S
C213 C212 1.170 . S
C214 C215 1.170 . S
C214 C216 1.380 1_556 S
C215 C214 1.170 . S
C216 C214 1.380 1_554 S
C216 C217 1.170 . S
C217 C216 1.170 . S
C218 C219 1.170 . S
C218 C220 1.380 1_556 S
C219 C218 1.170 . S
C220 C218 1.380 1_554 S
C220 C221 1.170 . S
C221 C220 1.170 . S
C222 C223 1.170 . S
C222 C224 1.380 . S
C223 C222 1.170 . S
C224 C222 1.380 . S
C224 C225 1.170 1_655 S
C225 C224 1.170 1_455 S
C226 C227 1.170 . S
C226 C228 1.380 . S
C227 C226 1.170 . S
C228 C226 1.380 . S
C228 C229 1.170 . S
C229 C228 1.170 . S
C230 C231 1.170 . S
C230 C232 1.380 . S
C231 C230 1.170 . S
C232 C230 1.380 . S
C232 C233 1.170 1_545 S
C233 C232 1.170 1_565 S
C234 C235 1.170 . S
C234 C236 1.380 . S
C235 C234 1.170 . S
C236 C234 1.380 . S
C236 C237 1.170 . S
C237 C236 1.170 . S
C238 C239 1.170 . S
C238 C240 1.380 . S
C239 C238 1.170 . S
C240 C238 1.380 . S
C240 C241 1.170 . S
C241 C240 1.170 . S
C242 C243 1.170 . S
C242 C244 1.380 . S
C243 C242 1.170 . S
C244 C242 1.380 . S
C244 C245 1.170 . S
C245 C244 1.170 . S
C246 C247 1.170 . S
C246 C248 1.380 . S
C247 C246 1.170 . S
C248 C246 1.380 . S
C248 C249 1.170 . S
C249 C248 1.170 . S
C250 C251 1.170 . S
C250 C252 1.380 . S
C251 C250 1.170 . S
C252 C250 1.380 . S
C252 C253 1.170 . S
C253 C252 1.170 . S
C254 C255 1.170 . S
C254 C256 1.380 . S
C255 C254 1.170 . S
C256 C254 1.380 . S
C256 C257 1.170 . S
C257 C256 1.170 . S
C258 C259 1.170 . S
C258 C260 1.380 . S
C259 C258 1.170 . S
C260 C258 1.380 . S
C260 C261 1.170 1_565 S
C261 C260 1.170 1_545 S
C262 C263 1.170 1_455 S
C262 C264 1.380 . S
C263 C262 1.170 1_655 S
C264 C262 1.380 . S
C264 C265 1.170 . S
C265 C264 1.170 . S
C266 C267 1.170 . S
C266 C268 1.380 . S
C267 C266 1.170 . S
C268 C266 1.380 . S
C268 C269 1.170 . S
C269 C268 1.170 . S
C270 C271 1.170 . S
C270 C272 1.380 . S
C271 C270 1.170 . S
C272 C270 1.380 . S
C272 C273 1.170 . S
C273 C272 1.170 . S
C274 C275 1.170 . S
C274 C276 1.380 . S
C275 C274 1.170 . S
C276 C274 1.380 . S
C276 C277 1.170 . S
C277 C276 1.170 . S
C278 C279 1.170 . S
C278 C280 1.380 . S
C279 C278 1.170 . S
C280 C278 1.380 . S
C280 C281 1.170 . S
C281 C280 1.170 . S
C282 C283 1.170 . S
C282 C284 1.380 . S
C283 C282 1.170 . S
C284 C282 1.380 . S
C284 C285 1.170 . S
C285 C284 1.170 . S
C286 C287 1.170 . S
C286 C288 1.380 . S
C287 C286 1.170 . S
C288 C286 1.380 . S
C288 C289 1.170 . S
C289 C288 1.170 . S
C290 C291 1.170 . S
C290 C292 1.380 . S
C291 C290 1.170 . S
C292 C290 1.380 . S
C292 C293 1.170 . S
C293 C292 1.170 . S
C294 C295 1.170 . S
C294 C296 1.380 . S
C295 C294 1.170 . S
C296 C294 1.380 . S
C296 C297 1.170 . S
C297 C296 1.170 . S
C298 C299 1.170 1_545 S
C298 C300 1.380 . S
C299 C298 1.170 1_565 S
C300 C298 1.380 . S
C300 C301 1.170 . S
C301 C300 1.170 . S
C302 C303 1.171 . S
C302 C304 1.380 1_655 S
C303 C302 1.171 . S
C304 C302 1.380 1_455 S
C304 C305 1.170 . S
C305 C304 1.170 . S
C199 C37 1.486 . S
C201 C18 1.531 . S
C203 C52 1.484 . S
C205 C29 1.548 . S
C207 C62 1.506 . S
C209 C8 1.423 . S
C211 C59 1.557 . S
C213 C32 1.430 . S
C215 C65 1.453 . S
C217 C15 1.577 . S
C219 C21 1.423 . S
C221 C30 1.510 . S
C223 C81 1.573 . S
C225 C109 1.415 . S
C227 C125 1.471 . S
C229 C103 1.536 . S
C231 C117 1.559 . S
C233 C87 1.446 . S
C235 C96 1.417 . S
C237 C118 1.506 . S
C239 C120 1.449 . S
C241 C84 1.507 . S
C243 C106 1.500 . S
C245 C74 1.472 . S
C247 C175 1.443 . S
C249 C150 1.536 . S
C251 C169 1.536 . S
C253 C184 1.451 . S
C255 C194 1.477 . S
C257 C140 1.454 . S
C259 C191 1.511 . S
C261 C162 1.455 . S
C263 C197 1.493 . S
C265 C147 1.563 . S
C267 C153 1.453 . S
C269 C172 1.503 . S
C271 C128 1.331 . S
C273 C10 1.356 . S
C275 C76 1.407 . S
C277 C43 1.369 . S
C279 C54 1.352 . S
C281 C98 1.345 . S
C283 C51 1.336 . S
C285 C142 1.374 . S
C287 C7 1.407 . S
C289 C161 1.388 . S
C291 C186 1.301 . S
C293 C40 1.328 . S
C295 C73 1.368 . S
C297 C183 1.369 . S
C299 C95 1.371 . S
C301 C139 1.348 . S
C303 C164 1.321 . S
C305 C131 1.323 . S
