# Generated by pormake.
# Topology whk, (6)-cn, num edge types: 1
# Building blocks:
#     Node 0, Type 0, BuildingBlock: PAMTUU_clean_sbu_0, # of connection points: 6
#     Node 1, Type 0, BuildingBlock: PAMTUU_clean_sbu_0, # of connection points: 6
#     Node 2, Type 0, BuildingBlock: PAMTUU_clean_sbu_0, # of connection points: 6
#     Node 3, Type 0, BuildingBlock: PAMTUU_clean_sbu_0, # of connection points: 6
#     Node 4, Type 0, BuildingBlock: PAMTUU_clean_sbu_0, # of connection points: 6
#     Node 5, Type 0, BuildingBlock: PAMTUU_clean_sbu_0, # of connection points: 6
#     Node 6, Type 0, BuildingBlock: PAMTUU_clean_sbu_0, # of connection points: 6
#     Node 7, Type 0, BuildingBlock: PAMTUU_clean_sbu_0, # of connection points: 6
#     Node 8, Type 0, BuildingBlock: PAMTUU_clean_sbu_0, # of connection points: 6
#     Node 9, Type 0, BuildingBlock: PAMTUU_clean_sbu_0, # of connection points: 6
#     Node 10, Type 0, BuildingBlock: PAMTUU_clean_sbu_0, # of connection points: 6
#     Node 11, Type 0, BuildingBlock: PAMTUU_clean_sbu_0, # of connection points: 6
#     Node 12, Type 0, BuildingBlock: PAMTUU_clean_sbu_0, # of connection points: 6
#     Node 13, Type 0, BuildingBlock: PAMTUU_clean_sbu_0, # of connection points: 6
#     Node 14, Type 0, BuildingBlock: PAMTUU_clean_sbu_0, # of connection points: 6
#     Node 15, Type 0, BuildingBlock: PAMTUU_clean_sbu_0, # of connection points: 6
#     Edge 16, Type (0, 0), BuildingBlock: KIFKEQ_clean_linker_1, # of connection points: 2
#     Edge 17, Type (0, 0), BuildingBlock: KIFKEQ_clean_linker_1, # of connection points: 2
#     Edge 18, Type (0, 0), BuildingBlock: KIFKEQ_clean_linker_1, # of connection points: 2
#     Edge 19, Type (0, 0), BuildingBlock: KIFKEQ_clean_linker_1, # of connection points: 2
#     Edge 20, Type (0, 0), BuildingBlock: KIFKEQ_clean_linker_1, # of connection points: 2
#     Edge 21, Type (0, 0), BuildingBlock: KIFKEQ_clean_linker_1, # of connection points: 2
#     Edge 22, Type (0, 0), BuildingBlock: KIFKEQ_clean_linker_1, # of connection points: 2
#     Edge 23, Type (0, 0), BuildingBlock: KIFKEQ_clean_linker_1, # of connection points: 2
#     Edge 24, Type (0, 0), BuildingBlock: KIFKEQ_clean_linker_1, # of connection points: 2
#     Edge 25, Type (0, 0), BuildingBlock: KIFKEQ_clean_linker_1, # of connection points: 2
#     Edge 26, Type (0, 0), BuildingBlock: KIFKEQ_clean_linker_1, # of connection points: 2
#     Edge 27, Type (0, 0), BuildingBlock: KIFKEQ_clean_linker_1, # of connection points: 2
#     Edge 28, Type (0, 0), BuildingBlock: KIFKEQ_clean_linker_1, # of connection points: 2
#     Edge 29, Type (0, 0), BuildingBlock: KIFKEQ_clean_linker_1, # of connection points: 2
#     Edge 30, Type (0, 0), BuildingBlock: KIFKEQ_clean_linker_1, # of connection points: 2
#     Edge 31, Type (0, 0), BuildingBlock: KIFKEQ_clean_linker_1, # of connection points: 2
#     Edge 32, Type (0, 0), BuildingBlock: KIFKEQ_clean_linker_1, # of connection points: 2
#     Edge 33, Type (0, 0), BuildingBlock: KIFKEQ_clean_linker_1, # of connection points: 2
#     Edge 34, Type (0, 0), BuildingBlock: KIFKEQ_clean_linker_1, # of connection points: 2
#     Edge 35, Type (0, 0), BuildingBlock: KIFKEQ_clean_linker_1, # of connection points: 2
#     Edge 36, Type (0, 0), BuildingBlock: KIFKEQ_clean_linker_1, # of connection points: 2
#     Edge 37, Type (0, 0), BuildingBlock: KIFKEQ_clean_linker_1, # of connection points: 2
#     Edge 38, Type (0, 0), BuildingBlock: KIFKEQ_clean_linker_1, # of connection points: 2
#     Edge 39, Type (0, 0), BuildingBlock: KIFKEQ_clean_linker_1, # of connection points: 2
#     Edge 40, Type (0, 0), BuildingBlock: KIFKEQ_clean_linker_1, # of connection points: 2
#     Edge 41, Type (0, 0), BuildingBlock: KIFKEQ_clean_linker_1, # of connection points: 2
#     Edge 42, Type (0, 0), BuildingBlock: KIFKEQ_clean_linker_1, # of connection points: 2
#     Edge 43, Type (0, 0), BuildingBlock: KIFKEQ_clean_linker_1, # of connection points: 2
#     Edge 44, Type (0, 0), BuildingBlock: KIFKEQ_clean_linker_1, # of connection points: 2
#     Edge 45, Type (0, 0), BuildingBlock: KIFKEQ_clean_linker_1, # of connection points: 2
#     Edge 46, Type (0, 0), BuildingBlock: KIFKEQ_clean_linker_1, # of connection points: 2
#     Edge 47, Type (0, 0), BuildingBlock: KIFKEQ_clean_linker_1, # of connection points: 2
#     Edge 48, Type (0, 0), BuildingBlock: KIFKEQ_clean_linker_1, # of connection points: 2
#     Edge 49, Type (0, 0), BuildingBlock: KIFKEQ_clean_linker_1, # of connection points: 2
#     Edge 50, Type (0, 0), BuildingBlock: KIFKEQ_clean_linker_1, # of connection points: 2
#     Edge 51, Type (0, 0), BuildingBlock: KIFKEQ_clean_linker_1, # of connection points: 2
#     Edge 52, Type (0, 0), BuildingBlock: KIFKEQ_clean_linker_1, # of connection points: 2
#     Edge 53, Type (0, 0), BuildingBlock: KIFKEQ_clean_linker_1, # of connection points: 2
#     Edge 54, Type (0, 0), BuildingBlock: KIFKEQ_clean_linker_1, # of connection points: 2
#     Edge 55, Type (0, 0), BuildingBlock: KIFKEQ_clean_linker_1, # of connection points: 2
#     Edge 56, Type (0, 0), BuildingBlock: KIFKEQ_clean_linker_1, # of connection points: 2
#     Edge 57, Type (0, 0), BuildingBlock: KIFKEQ_clean_linker_1, # of connection points: 2
#     Edge 58, Type (0, 0), BuildingBlock: KIFKEQ_clean_linker_1, # of connection points: 2
#     Edge 59, Type (0, 0), BuildingBlock: KIFKEQ_clean_linker_1, # of connection points: 2
#     Edge 60, Type (0, 0), BuildingBlock: KIFKEQ_clean_linker_1, # of connection points: 2
#     Edge 61, Type (0, 0), BuildingBlock: KIFKEQ_clean_linker_1, # of connection points: 2
#     Edge 62, Type (0, 0), BuildingBlock: KIFKEQ_clean_linker_1, # of connection points: 2
#     Edge 63, Type (0, 0), BuildingBlock: KIFKEQ_clean_linker_1, # of connection points: 2
# Relax obj value: 0.596
# Max RMSD: 0.318
# Mean RMSD: 0.318
data_MOF--net-whk--node1-PAMTUU_clean_sbu_0--edge1-KIFKEQ_clean_linker_1
_symmetry_space_group_name_H-M    P1
_symmetry_Int_Tables_number       1
_symmetry_cell_setting            triclinic
loop_
_symmetry_equiv_pos_as_xyz
'x, y, z'
_cell_length_a     46.099389
_cell_length_b     46.174436
_cell_length_c     40.777296
_cell_angle_alpha  89.858743
_cell_angle_beta   90.357704
_cell_angle_gamma 89.961392
loop_
_atom_site_label
_atom_site_type_symbol
_atom_site_fract_x
_atom_site_fract_y
_atom_site_fract_z
_atom_type_partial_charge
Tb0 Tb 0.57522 0.21637 0.42946 0.0
Tb1 Tb 0.62542 0.25534 0.39481 0.0
C2 C 0.61271 0.26332 0.4696 0.0
C3 C 0.50809 0.16976 0.44324 0.0
C4 C 0.45785 0.13678 0.42695 0.0
C5 C 0.46086 0.14991 0.45795 0.0
C6 C 0.48561 0.16613 0.46593 0.0
C7 C 0.5051 0.1572 0.41202 0.0
C8 C 0.48029 0.14088 0.40399 0.0
C9 C 0.53477 0.18547 0.45348 0.0
O10 O 0.55315 0.24986 0.40027 0.0
O11 O 0.58896 0.28264 0.40782 0.0
O12 O 0.60673 0.23125 0.35451 0.0
O13 O 0.58784 0.1936 0.38409 0.0
O14 O 0.63398 0.28962 0.36221 0.0
O15 O 0.66873 0.26819 0.38859 0.0
O16 O 0.64548 0.2138 0.40648 0.0
O17 O 0.61677 0.20206 0.45032 0.0
O18 O 0.58758 0.24955 0.46659 0.0
O19 O 0.6322 0.2629 0.44645 0.0
C20 C 0.56168 0.27697 0.40194 0.0
O21 O 0.53421 0.21363 0.45215 0.0
O22 O 0.5595 0.17538 0.44331 0.0
C23 C 0.59821 0.20425 0.35647 0.0
C24 C 0.66748 0.31846 0.39123 0.0
C25 C 0.68267 0.35739 0.44111 0.0
C26 C 0.70402 0.34591 0.42032 0.0
C27 C 0.69649 0.32638 0.39568 0.0
C28 C 0.64597 0.33176 0.41053 0.0
C29 C 0.65351 0.35102 0.43548 0.0
C30 C 0.66049 0.29172 0.37341 0.0
C31 C 0.64126 0.19943 0.43398 0.0
H32 H 0.44442 0.147 0.47652 0.0
H33 H 0.48744 0.17545 0.49022 0.0
H34 H 0.52207 0.15971 0.39398 0.0
H35 H 0.47871 0.1315 0.37974 0.0
H36 H 0.72677 0.35059 0.42465 0.0
H37 H 0.71348 0.31577 0.38194 0.0
H38 H 0.62351 0.32562 0.4081 0.0
H39 H 0.63688 0.35949 0.4515 0.0
Tb40 Tb 0.34932 0.57484 0.42293 0.0
Tb41 Tb 0.31794 0.63471 0.39834 0.0
C42 C 0.30661 0.61006 0.46723 0.0
C43 C 0.3959 0.50469 0.43199 0.0
C44 C 0.43318 0.45592 0.42372 0.0
C45 C 0.42143 0.46266 0.45463 0.0
C46 C 0.403 0.48663 0.45863 0.0
C47 C 0.40867 0.49887 0.40143 0.0
C48 C 0.42703 0.47486 0.39737 0.0
C49 C 0.37128 0.52543 0.43512 0.0
O50 O 0.30914 0.56321 0.39677 0.0
O51 O 0.2816 0.60459 0.39963 0.0
O52 O 0.33385 0.61045 0.35675 0.0
O53 O 0.37401 0.59378 0.38208 0.0
O54 O 0.29298 0.67204 0.4072 0.0
O55 O 0.31265 0.66496 0.36015 0.0
O56 O 0.36237 0.64632 0.41221 0.0
O57 O 0.37316 0.60955 0.44843 0.0
O58 O 0.31385 0.58379 0.4576 0.0
O59 O 0.31601 0.63281 0.45133 0.0
C60 C 0.28367 0.57631 0.3966 0.0
O61 O 0.35747 0.53239 0.40827 0.0
O62 O 0.37255 0.54706 0.45571 0.0
C63 C 0.36152 0.60451 0.35566 0.0
C64 C 0.32139 0.70974 0.38614 0.0
C65 C 0.3642 0.74644 0.41314 0.0
C66 C 0.33527 0.74801 0.42385 0.0
C67 C 0.31407 0.72981 0.41052 0.0
C68 C 0.3497 0.71007 0.37339 0.0
C69 C 0.37083 0.7281 0.3868 0.0
C70 C 0.30271 0.68422 0.38057 0.0
C71 C 0.37768 0.63598 0.43697 0.0
H72 H 0.42602 0.44911 0.47573 0.0
H73 H 0.39325 0.49031 0.48237 0.0
H74 H 0.40342 0.51208 0.38023 0.0
H75 H 0.43533 0.47047 0.37311 0.0
H76 H 0.32914 0.7627 0.44321 0.0
H77 H 0.29247 0.73003 0.42086 0.0
H78 H 0.35631 0.69482 0.35471 0.0
H79 H 0.39275 0.72625 0.3777 0.0
Tb80 Tb 0.99905 0.34997 0.42308 0.0
Tb81 Tb 0.94235 0.31717 0.39311 0.0
C82 C 0.96219 0.30627 0.46495 0.0
C83 C 0.06383 0.40248 0.43479 0.0
C84 C 0.10725 0.44577 0.42634 0.0
C85 C 0.10386 0.43138 0.4566 0.0
C86 C 0.0825 0.41005 0.46071 0.0
C87 C 0.06609 0.41782 0.40502 0.0
C88 C 0.08746 0.43926 0.4009 0.0
C89 C 0.04617 0.37558 0.43768 0.0
O90 O 1.01493 0.30894 0.40245 0.0
O91 O 0.97352 0.28176 0.39489 0.0
O92 O 0.96872 0.3338 0.35373 0.0
O93 O 0.98063 0.37406 0.38112 0.0
O94 O 0.90911 0.28599 0.39435 0.0
O95 O 0.91108 0.31759 0.35541 0.0
O96 O 0.92749 0.35988 0.40966 0.0
O97 O 0.96252 0.3707 0.44806 0.0
O98 O 0.98883 0.31492 0.45818 0.0
O99 O 0.94028 0.31325 0.44591 0.0
C100 C 1.00191 0.28383 0.39743 0.0
O101 O 0.04154 0.36107 0.41077 0.0
O102 O 1.02373 0.37484 0.45711 0.0
C103 C 0.97295 0.36171 0.35344 0.0
C104 C 0.86745 0.3143 0.38492 0.0
C105 C 0.83108 0.34862 0.42437 0.0
C106 C 0.84326 0.36011 0.39569 0.0
C107 C 0.86098 0.3431 0.37601 0.0
C108 C 0.85329 0.30212 0.41207 0.0
C109 C 0.83535 0.31913 0.43165 0.0
C110 C 0.89427 0.30067 0.37256 0.0
C111 C 0.93618 0.37422 0.4358 0.0
H112 H 0.11823 0.43609 0.47701 0.0
H113 H 0.08147 0.39847 0.48382 0.0
H114 H 0.05222 0.41234 0.38441 0.0
H115 H 0.08937 0.44969 0.3772 0.0
H116 H 0.84022 0.38267 0.38918 0.0
H117 H 0.87142 0.35332 0.35526 0.0
H118 H 0.85773 0.28002 0.41956 0.0
H119 H 0.82533 0.30933 0.45291 0.0
Tb120 Tb 0.2216 0.99098 0.42253 0.0
Tb121 Tb 0.26222 0.93709 0.39813 0.0
C122 C 0.26787 0.96052 0.4692 0.0
C123 C 0.16623 0.05479 0.43237 0.0
C124 C 0.12523 0.10074 0.42421 0.0
C125 C 0.13666 0.09367 0.45538 0.0
C126 C 0.15687 0.0711 0.45935 0.0
C127 C 0.1537 0.0607 0.40146 0.0
C128 C 0.13342 0.08328 0.39747 0.0
C129 C 0.19282 0.03647 0.43588 0.0
O130 O 0.25897 1.009 0.39618 0.0
O131 O 0.29122 0.97319 0.40721 0.0
O132 O 0.23933 0.95283 0.35485 0.0
O133 O 0.19927 0.97101 0.38027 0.0
O134 O 0.29438 0.92404 0.36506 0.0
O135 O 0.27862 0.8948 0.4023 0.0
O136 O 0.22024 0.91722 0.40727 0.0
O137 O 0.20138 0.95141 0.44262 0.0
O138 O 0.25629 0.98558 0.46021 0.0
O139 O 0.26436 0.93736 0.45121 0.0
C140 C 0.28589 1.00023 0.40004 0.0
O141 O 0.20844 1.03276 0.40975 0.0
O142 O 0.19344 1.01372 0.45502 0.0
C143 C 0.21164 0.95931 0.3544 0.0
C144 C 0.32881 0.89824 0.39536 0.0
C145 C 0.38378 0.89246 0.42495 0.0
C146 C 0.3635 0.91199 0.43767 0.0
C147 C 0.33627 0.91486 0.42299 0.0
C148 C 0.34947 0.87996 0.38142 0.0
C149 C 0.37681 0.87708 0.39609 0.0
C150 C 0.29941 0.9004 0.38167 0.0
C151 C 0.20159 0.92492 0.43007 0.0
H152 H 0.13057 0.10609 0.47675 0.0
H153 H 0.16633 0.06737 0.48339 0.0
H154 H 0.16064 0.04885 0.38 0.0
H155 H 0.12536 0.08798 0.37304 0.0
H156 H 0.36815 0.92388 0.45993 0.0
H157 H 0.32065 0.92932 0.43394 0.0
H158 H 0.34413 0.86718 0.35996 0.0
H159 H 0.39172 0.86129 0.38613 0.0
Tb160 Tb 0.07657 0.85325 0.09763 0.0
Tb161 Tb 0.12802 0.80708 0.11885 0.0
C162 C 0.10307 0.80766 0.04912 0.0
C163 C 1.00673 0.90149 0.09004 0.0
C164 C 0.95286 0.93102 0.09915 0.0
C165 C 0.97186 0.93887 0.07366 0.0
C166 C 0.99835 0.92434 0.06922 0.0
C167 C 0.98718 0.89256 0.11449 0.0
C168 C 0.96056 0.90703 0.11887 0.0
C169 C 0.03768 0.89185 0.09008 0.0
O170 O 0.05265 0.81672 0.11901 0.0
O171 O 0.08821 0.78219 0.11496 0.0
O172 O 0.11604 0.82693 0.16494 0.0
O173 O 0.10203 0.869 0.14004 0.0
O174 O 0.13806 0.76279 0.12272 0.0
O175 O 0.17088 0.79509 0.13107 0.0
O176 O 0.15079 0.84667 0.10503 0.0
O177 O 0.11596 0.87083 0.07442 0.0
O178 O 0.07844 0.81922 0.05919 0.0
O179 O 0.12673 0.81106 0.06623 0.0
C180 C 0.06091 0.78938 0.11861 0.0
O181 O 0.04873 0.88377 0.11813 0.0
O182 O 0.04877 0.87745 0.06556 0.0
C183 C 0.11164 0.85497 0.16615 0.0
C184 C 0.18128 0.75667 0.09458 0.0
C185 C 0.20336 0.73501 0.03493 0.0
C186 C 0.19996 0.76497 0.03981 0.0
C187 C 0.18905 0.77561 0.06914 0.0
C188 C 0.18394 0.7267 0.08971 0.0
C189 C 0.19503 0.71594 0.06019 0.0
C190 C 0.16571 0.76817 0.12322 0.0
C191 C 0.14326 0.86709 0.08391 0.0
H192 H 0.9666 0.9568 0.05752 0.0
H193 H 1.01302 0.93201 0.05046 0.0
H194 H 0.99307 0.8753 0.13129 0.0
H195 H 0.94672 0.90031 0.13884 0.0
H196 H 0.20673 0.78046 0.02141 0.0
H197 H 0.18647 0.79882 0.07171 0.0
H198 H 0.17709 0.71165 0.10855 0.0
H199 H 0.19731 0.69275 0.0572 0.0
Tb200 Tb 0.71515 0.07966 0.10617 0.0
Tb201 Tb 0.75353 0.12459 0.15041 0.0
C202 C 0.77301 0.11182 0.0786 0.0
C203 C 0.66386 1.0177 0.08667 0.0
C204 C 0.63028 0.96687 0.09923 0.0
C205 C 0.66036 0.96506 0.09337 0.0
C206 C 0.67688 0.99008 0.08708 0.0
C207 C 0.63391 1.01952 0.09281 0.0
C208 C 0.61744 0.99459 0.09911 0.0
C209 C 0.68059 0.04445 0.07809 0.0
O210 O 0.75177 0.0524 0.11915 0.0
O211 O 0.77772 0.0835 0.15213 0.0
O212 O 0.70894 0.12473 0.16543 0.0
O213 O 0.70054 0.07748 0.15766 0.0
O214 O 0.77475 0.16228 0.16698 0.0
O215 O 0.76785 0.12524 0.19902 0.0
O216 O 0.73184 0.15446 0.11664 0.0
O217 O 0.69877 0.12287 0.09301 0.0
O218 O 0.74771 0.09895 0.07201 0.0
O219 O 0.78042 0.12076 0.10805 0.0
C220 C 0.77479 0.05854 0.13682 0.0
O221 O 0.6726 0.06849 0.09206 0.0
O222 O 0.70878 0.04275 0.07645 0.0
C223 C 0.69519 0.10148 0.17364 0.0
C224 C 0.76221 0.17131 0.22234 0.0
C225 C 0.73669 0.20872 0.26869 0.0
C226 C 0.72272 0.18289 0.25957 0.0
C227 C 0.7353 0.16444 0.23652 0.0
C228 C 0.77658 0.19654 0.23203 0.0
C229 C 0.76395 0.2151 0.25484 0.0
C230 C 0.77518 0.15254 0.19719 0.0
C231 C 0.70908 0.14928 0.0977 0.0
H232 H 0.67109 0.94421 0.09282 0.0
H233 H 0.69981 0.98768 0.08211 0.0
H234 H 0.62304 0.04032 0.09246 0.0
H235 H 0.59452 0.99714 0.104 0.0
H236 H 0.70184 0.17714 0.26973 0.0
H237 H 0.72373 0.14501 0.2295 0.0
H238 H 0.79728 0.20225 0.22136 0.0
H239 H 0.7751 0.23513 0.26045 0.0
Tb240 Tb 0.4929 0.7225 0.10502 0.0
Tb241 Tb 0.43739 0.76329 0.12447 0.0
C242 C 0.46278 0.76456 0.05574 0.0
C243 C 0.56177 0.66968 0.10081 0.0
C244 C 0.61016 0.63127 0.10426 0.0
C245 C 0.60058 0.6427 0.07392 0.0
C246 C 0.57656 0.66159 0.0722 0.0
C247 C 0.57145 0.65833 0.13103 0.0
C248 C 0.59519 0.63948 0.13272 0.0
C249 C 0.53644 0.68983 0.10004 0.0
O250 O 0.51306 0.76205 0.12402 0.0
O251 O 0.474 0.79296 0.12667 0.0
O252 O 0.45141 0.7457 0.1713 0.0
O253 O 0.46985 0.70485 0.14791 0.0
O254 O 0.41835 0.804 0.1162 0.0
O255 O 0.39584 0.77117 0.14384 0.0
O256 O 0.4191 0.72088 0.11282 0.0
O257 O 0.45567 0.70008 0.08241 0.0
O258 O 0.48852 0.75647 0.06671 0.0
O259 O 0.43984 0.75715 0.07213 0.0
C260 C 0.50209 0.78822 0.12721 0.0
O261 O 0.52814 0.70222 0.12712 0.0
O262 O 0.52028 0.69629 0.07447 0.0
C263 C 0.45848 0.71822 0.17333 0.0
C264 C 0.3722 0.79167 0.09736 0.0
C265 C 0.35044 0.77849 0.03433 0.0
C266 C 0.34835 0.7583 0.06002 0.0
C267 C 0.35887 0.76484 0.09116 0.0
C268 C 0.37229 0.81274 0.07227 0.0
C269 C 0.36133 0.80625 0.04101 0.0
C270 C 0.39312 0.79395 0.12487 0.0
C271 C 0.42841 0.70089 0.09239 0.0
H272 H 0.61138 0.63674 0.05142 0.0
H273 H 0.56966 0.66992 0.04856 0.0
H274 H 0.56062 0.66401 0.15362 0.0
H275 H 0.60206 0.63162 0.15658 0.0
H276 H 0.33885 0.73713 0.05595 0.0
H277 H 0.35833 0.74799 0.10967 0.0
H278 H 0.38271 0.83349 0.07616 0.0
H279 H 0.36244 0.82244 0.02179 0.0
Tb280 Tb 0.84989 0.48779 0.10034 0.0
Tb281 Tb 0.8114 0.43303 0.12766 0.0
C282 C 0.80646 0.45272 0.05535 0.0
C283 C 0.89508 0.56157 0.09083 0.0
C284 C 0.92743 0.61436 0.09211 0.0
C285 C 0.92922 0.59518 0.06521 0.0
C286 C 0.91318 0.56915 0.06455 0.0
C287 C 0.89298 0.58094 0.11734 0.0
C288 C 0.90883 0.60681 0.11799 0.0
C289 C 0.87919 0.53334 0.09217 0.0
O290 O 0.81109 0.50678 0.12235 0.0
O291 O 0.78007 0.46808 0.12373 0.0
O292 O 0.83119 0.45468 0.16941 0.0
O293 O 0.87171 0.4662 0.14168 0.0
O294 O 0.80757 0.39806 0.16022 0.0
O295 O 0.77361 0.40776 0.12506 0.0
O296 O 0.85216 0.41372 0.11145 0.0
O297 O 0.87251 0.45018 0.07976 0.0
O298 O 0.81575 0.47903 0.06304 0.0
O299 O 0.81172 0.43062 0.07469 0.0
C300 C 0.78473 0.49607 0.12412 0.0
O301 O 0.86904 0.52439 0.12018 0.0
O302 O 0.87309 0.51612 0.06751 0.0
C303 C 0.8593 0.45854 0.16923 0.0
C304 C 0.75929 0.38826 0.17568 0.0
C305 C 0.72033 0.37537 0.22665 0.0
C306 C 0.71981 0.35958 0.1971 0.0
C307 C 0.73909 0.36598 0.17196 0.0
C308 C 0.75879 0.40547 0.20404 0.0
C309 C 0.73944 0.39904 0.2294 0.0
C310 C 0.78131 0.39212 0.15024 0.0
C311 C 0.8716 0.42298 0.09018 0.0
H312 H 0.94302 0.60025 0.04461 0.0
H313 H 0.91532 0.55477 0.04376 0.0
H314 H 0.87927 0.57597 0.13808 0.0
H315 H 0.90706 0.62051 0.13939 0.0
H316 H 0.70596 0.34084 0.19407 0.0
H317 H 0.73906 0.35264 0.15012 0.0
H318 H 0.77403 0.42313 0.20707 0.0
H319 H 0.74028 0.4118 0.25162 0.0
Tb320 Tb 0.44539 0.81536 0.63406 0.0
Tb321 Tb 0.5 0.85024 0.60056 0.0
C322 C 0.47565 0.86305 0.67242 0.0
C323 C 0.37413 0.79171 0.62625 0.0
C324 C 0.34734 0.80094 0.56475 0.0
C325 C 0.34847 0.82324 0.5881 0.0
C326 C 0.36155 0.81865 0.61856 0.0
C327 C 0.36935 0.76837 0.60474 0.0
C328 C 0.35642 0.77302 0.57402 0.0
C329 C 0.39922 0.79073 0.64911 0.0
O330 O 0.42801 0.857 0.6175 0.0
O331 O 0.46157 0.87199 0.57937 0.0
O332 O 0.49007 0.81327 0.56757 0.0
O333 O 0.44256 0.8136 0.58117 0.0
O334 O 0.54323 0.86086 0.6095 0.0
O335 O 0.52205 0.87641 0.56546 0.0
O336 O 0.51893 0.81137 0.62323 0.0
O337 O 0.47932 0.78254 0.63301 0.0
O338 O 0.46822 0.83569 0.67449 0.0
O339 O 0.48439 0.87386 0.64414 0.0
C340 C 0.43554 0.87374 0.59274 0.0
O341 O 0.42158 0.7767 0.63787 0.0
O342 O 0.40711 0.81538 0.6621 0.0
C343 C 0.46351 0.80323 0.56322 0.0
C344 C 0.56404 0.90288 0.58599 0.0
C345 C 0.60925 0.94421 0.5955 0.0
C346 C 0.605 0.93066 0.56489 0.0
C347 C 0.58276 0.91027 0.56027 0.0
C348 C 0.56715 0.9175 0.61607 0.0
C349 C 0.58941 0.93792 0.62074 0.0
C350 C 0.54593 0.87631 0.58295 0.0
C351 C 0.50743 0.78589 0.62964 0.0
H352 H 0.3402 0.84465 0.58239 0.0
H353 H 0.36403 0.83699 0.63483 0.0
H354 H 0.37855 0.74726 0.61007 0.0
H355 H 0.35528 0.7552 0.55684 0.0
H356 H 0.61932 0.93528 0.5446 0.0
H357 H 0.58112 0.89917 0.53695 0.0
H358 H 0.55331 0.91206 0.63656 0.0
H359 H 0.59192 0.94766 0.64471 0.0
Tb360 Tb 0.75317 0.44862 0.64545 0.0
Tb361 Tb 0.71648 0.49307 0.59849 0.0
C362 C 0.69789 0.47595 0.67048 0.0
C363 C 0.77295 0.40897 0.72178 0.0
C364 C 0.76474 0.38598 0.78518 0.0
C365 C 0.7898 0.40205 0.77783 0.0
C366 C 0.79394 0.4132 0.74633 0.0
C367 C 0.74668 0.39547 0.72982 0.0
C368 C 0.74266 0.384 0.76118 0.0
C369 C 0.77915 0.41852 0.68807 0.0
O370 O 0.71626 0.42405 0.62525 0.0
O371 O 0.70733 0.45037 0.57819 0.0
O372 O 0.75274 0.47865 0.5664 0.0
O373 O 0.77372 0.44236 0.59851 0.0
O374 O 0.67613 0.50635 0.5788 0.0
O375 O 0.71378 0.53318 0.57376 0.0
O376 O 0.74763 0.51821 0.62789 0.0
O377 O 0.78222 0.48337 0.63222 0.0
O378 O 0.72562 0.47459 0.67628 0.0
O379 O 0.68902 0.47955 0.64009 0.0
C380 C 0.7046 0.42643 0.59562 0.0
O381 O 0.76361 0.40747 0.6643 0.0
O382 O 0.78282 0.44626 0.68451 0.0
C383 C 0.77246 0.45794 0.57139 0.0
C384 C 0.66816 0.55727 0.57854 0.0
C385 C 0.63355 0.60655 0.59435 0.0
C386 C 0.63054 0.59238 0.56392 0.0
C387 C 0.64757 0.56814 0.55618 0.0
C388 C 0.67137 0.5712 0.60898 0.0
C389 C 0.65434 0.59558 0.61675 0.0
C390 C 0.68582 0.53149 0.56947 0.0
C391 C 0.77514 0.51074 0.63053 0.0
H392 H 0.80699 0.40451 0.79582 0.0
H393 H 0.81408 0.42423 0.7408 0.0
H394 H 0.72979 0.39261 0.71153 0.0
H395 H 0.72312 0.37164 0.76563 0.0
H396 H 0.61524 0.60026 0.54572 0.0
H397 H 0.64469 0.55788 0.53251 0.0
H398 H 0.68699 0.5632 0.62677 0.0
H399 H 0.65719 0.60554 0.64056 0.0
Tb400 Tb 0.13182 0.76226 0.61396 0.0
Tb401 Tb 0.07576 0.72101 0.59772 0.0
C402 C 0.11176 0.71828 0.66512 0.0
C403 C 0.18589 0.80944 0.58377 0.0
C404 C 0.20502 0.83084 0.52239 0.0
C405 C 0.20616 0.80103 0.52976 0.0
C406 C 0.19666 0.79051 0.55984 0.0
C407 C 0.18384 0.8391 0.57633 0.0
C408 C 0.1933 0.84971 0.54598 0.0
C409 C 0.17283 0.79767 0.61405 0.0
O410 O 0.15 0.71942 0.6057 0.0
O411 O 0.11285 0.69714 0.57693 0.0
O412 O 0.07941 0.75364 0.55787 0.0
O413 O 0.12833 0.75488 0.56188 0.0
O414 O 0.03997 0.70255 0.62033 0.0
O415 O 0.04691 0.6955 0.56788 0.0
O416 O 0.05827 0.76014 0.6204 0.0
O417 O 0.09492 0.79111 0.60772 0.0
O418 O 0.11918 0.7456 0.66161 0.0
O419 O 0.09939 0.704 0.64076 0.0
C420 C 0.14032 0.69849 0.58662 0.0
O421 O 0.14605 0.80535 0.61882 0.0
O422 O 0.17654 0.7701 0.61972 0.0
C423 C 0.10475 0.76133 0.54575 0.0
C424 C 1.00258 0.67424 0.59364 0.0
C425 C 0.94983 0.64215 0.59664 0.0
C426 C 0.96861 0.63954 0.56956 0.0
C427 C 0.99462 0.65548 0.56803 0.0
C428 C 0.9837 0.67701 0.62046 0.0
C429 C 0.9578 0.66127 0.62194 0.0
C430 C 1.03037 0.69079 0.59336 0.0
C431 C 0.06785 0.78654 0.61559 0.0
H432 H 0.21561 0.78566 0.51292 0.0
H433 H 0.1978 0.76739 0.56423 0.0
H434 H 0.17473 0.85405 0.59393 0.0
H435 H 0.19193 0.87276 0.54129 0.0
H436 H 0.96315 0.62525 0.54943 0.0
H437 H 1.00861 0.65291 0.547 0.0
H438 H 0.98902 0.6913 0.64065 0.0
H439 H 0.94432 0.66363 0.64342 0.0
Tb440 Tb 0.81259 0.1366 0.6399 0.0
Tb441 Tb 0.85072 0.08371 0.60968 0.0
C442 C 0.86359 0.11151 0.67812 0.0
C443 C 0.77852 0.18657 0.70125 0.0
C444 C 0.76742 0.21257 0.76238 0.0
C445 C 0.74637 0.19512 0.74725 0.0
C446 C 0.75186 0.18225 0.717 0.0
C447 C 0.80002 0.2032 0.71688 0.0
C448 C 0.79443 0.21621 0.7471 0.0
C449 C 0.78256 0.17503 0.66786 0.0
O450 O 0.85224 0.15711 0.62203 0.0
O451 O 0.87149 0.12191 0.58812 0.0
O452 O 0.81746 0.09273 0.57178 0.0
O453 O 0.80615 0.1396 0.58729 0.0
O454 O 0.87035 0.04702 0.62872 0.0
O455 O 0.87394 0.05629 0.57616 0.0
O456 O 0.81186 0.06463 0.63206 0.0
O457 O 0.78126 0.10312 0.62794 0.0
O458 O 0.83563 0.11578 0.6802 0.0
O459 O 0.87463 0.10474 0.64965 0.0
C460 C 0.87039 0.14891 0.59886 0.0
O461 O 0.80702 0.18025 0.65314 0.0
O462 O 0.77398 0.14854 0.66318 0.0
C463 C 0.80511 0.11822 0.56604 0.0
C464 C 0.89848 1.01196 0.59881 0.0
C465 C 0.93271 0.96059 0.59806 0.0
C466 C 0.92674 0.976 0.56882 0.0
C467 C 0.90975 1.0014 0.56919 0.0
C468 C 0.90459 0.99656 0.62788 0.0
C469 C 0.9214 0.9714 0.62752 0.0
C470 C 0.88074 0.03893 0.60054 0.0
C471 C 0.78539 0.07518 0.6303 0.0
H472 H 0.72532 0.19219 0.75827 0.0
H473 H 0.73488 0.16961 0.70541 0.0
H474 H 0.8208 0.20696 0.70538 0.0
H475 H 0.81085 0.23007 0.75787 0.0
H476 H 0.93494 0.96829 0.5456 0.0
H477 H 0.90549 1.01274 0.54638 0.0
H478 H 0.89653 1.00404 0.65128 0.0
H479 H 0.92596 0.96069 0.65065 0.0
Tb480 Tb 0.9532 0.25064 0.89526 0.0
Tb481 Tb 1.00206 0.21156 0.9323 0.0
C482 C 0.97411 0.19388 0.86762 0.0
C483 C 0.89215 0.24871 0.84467 0.0
C484 C 0.85879 0.19826 0.83447 0.0
C485 C 0.87987 0.20637 0.81157 0.0
C486 C 0.89652 0.23133 0.8167 0.0
C487 C 0.86912 0.24189 0.86572 0.0
C488 C 0.85285 0.21688 0.86082 0.0
C489 C 0.91553 0.26823 0.85637 0.0
O490 O 0.92764 0.22811 0.9321 0.0
O491 O 0.96039 0.19275 0.94794 0.0
O492 O 0.98338 0.24109 0.9698 0.0
O493 O 0.96422 0.27727 0.9365 0.0
O494 O 0.04103 0.20606 0.95928 0.0
O495 O 1.01732 0.1693 0.9413 0.0
O496 O 1.02542 0.251 0.92037 0.0
O497 O 0.99436 0.27155 0.88264 0.0
O498 O 0.95183 0.20599 0.8808 0.0
O499 O 0.99976 0.19993 0.87978 0.0
C500 C 0.93383 0.20372 0.94746 0.0
O501 O 0.91508 0.2748 0.88765 0.0
O502 O 0.94158 0.26089 0.8468 0.0
C503 C 0.97285 0.26768 0.96526 0.0
C504 C 0.06865 0.16403 0.94549 0.0
C505 C 0.12037 0.13392 0.92794 0.0
C506 C 0.11413 0.14027 0.96097 0.0
C507 C 0.08866 0.15508 0.96956 0.0
C508 C 0.07486 0.15819 0.91243 0.0
C509 C 0.10037 0.14332 0.90378 0.0
C510 C 0.04102 0.17804 0.95571 0.0
C511 C 1.01892 0.27164 0.89938 0.0
H512 H 0.88424 0.1929 0.79048 0.0
H513 H 0.91405 0.23595 0.79991 0.0
H514 H 0.86483 0.2548 0.8873 0.0
H515 H 0.83571 0.2119 0.87801 0.0
H516 H 0.12855 0.13314 0.98042 0.0
H517 H 0.08435 0.15912 0.99523 0.0
H518 H 0.05985 0.16487 0.89331 0.0
H519 H 0.10443 0.13927 0.87807 0.0
Tb520 Tb 0.32458 0.9447 0.87752 0.0
Tb521 Tb 0.35696 0.99452 0.92174 0.0
C522 C 0.37755 0.97615 0.85127 0.0
C523 C 0.32564 0.88893 0.81665 0.0
C524 C 0.36988 0.85241 0.79378 0.0
C525 C 0.37413 0.88239 0.79487 0.0
C526 C 0.35216 0.9005 0.8061 0.0
C527 C 0.32031 0.8593 0.81265 0.0
C528 C 0.34226 0.84114 0.80106 0.0
C529 C 0.30733 0.90613 0.83863 0.0
O530 O 0.36489 0.92636 0.89755 0.0
O531 O 0.36934 0.95333 0.94446 0.0
O532 O 0.32243 0.97817 0.95461 0.0
O533 O 0.30451 0.93899 0.92487 0.0
O534 O 0.35535 1.03523 0.94524 0.0
O535 O 0.39571 1.0126 0.94022 0.0
O536 O 0.32397 1.01497 0.89011 0.0
O537 O 0.29179 0.97761 0.88599 0.0
O538 O 0.35001 0.97225 0.84558 0.0
O539 O 0.38598 0.98164 0.8814 0.0
C540 C 0.37474 0.9295 0.92778 0.0
O541 O 0.31255 0.90145 0.86964 0.0
O542 O 0.30556 0.93378 0.83216 0.0
C543 C 0.30522 0.95524 0.95133 0.0
C544 C 0.39807 0.06416 0.94078 0.0
C545 C 0.4283 0.11656 0.92614 0.0
C546 C 0.42078 0.10933 0.95862 0.0
C547 C 0.40592 0.08355 0.96577 0.0
C548 C 0.40517 0.07125 0.90826 0.0
C549 C 0.42009 0.0971 0.90103 0.0
C550 C 0.38333 0.03651 0.94953 0.0
C551 C 0.29704 1.00552 0.88744 0.0
H552 H 0.39512 0.8915 0.78948 0.0
H553 H 0.35679 0.92323 0.80922 0.0
H554 H 0.30017 0.84987 0.82108 0.0
H555 H 0.33847 0.81799 0.80087 0.0
H556 H 0.42699 0.12325 0.97879 0.0
H557 H 0.40085 0.07856 0.99107 0.0
H558 H 0.39933 0.05672 0.88848 0.0
H559 H 0.42505 0.10189 0.87568 0.0
Tb560 Tb 0.62065 0.31609 0.88012 0.0
Tb561 Tb 0.5752 0.35391 0.92371 0.0
C562 C 0.59264 0.37062 0.85127 0.0
C563 C 0.65829 0.25406 0.84258 0.0
C564 C 0.68148 0.19764 0.8429 0.0
C565 C 0.67733 0.21282 0.8132 0.0
C566 C 0.66589 0.2408 0.81311 0.0
C567 C 0.65886 0.23789 0.87171 0.0
C568 C 0.67007 0.20977 0.87181 0.0
C569 C 0.65035 0.2848 0.84261 0.0
O570 O 0.64458 0.35489 0.89586 0.0
O571 O 0.61814 0.36591 0.94202 0.0
O572 O 0.59308 0.32184 0.95945 0.0
O573 O 0.63012 0.30091 0.92908 0.0
O574 O 0.5354 0.35627 0.94922 0.0
O575 O 0.56068 0.39446 0.94041 0.0
O576 O 0.551 0.32052 0.89639 0.0
O577 O 0.58689 0.28696 0.89658 0.0
O578 O 0.5955 0.34285 0.84682 0.0
O579 O 0.58755 0.38032 0.88089 0.0
C580 C 0.64206 0.36804 0.92452 0.0
O581 O 0.6229 0.29015 0.83806 0.0
O582 O 0.66148 0.30058 0.86604 0.0
C583 C 0.61593 0.30436 0.95666 0.0
C584 C 0.50941 0.40079 0.94239 0.0
C585 C 0.45938 0.43526 0.92818 0.0
C586 C 0.4634 0.42233 0.95926 0.0
C587 C 0.48804 0.4054 0.96621 0.0
C588 C 0.50538 0.4132 0.91115 0.0
C589 C 0.48072 0.43022 0.90415 0.0
C590 C 0.53622 0.3844 0.95135 0.0
C591 C 0.55923 0.29318 0.89609 0.0
H592 H 0.68511 0.20435 0.79023 0.0
H593 H 0.66462 0.25273 0.79022 0.0
H594 H 0.65184 0.24743 0.89459 0.0
H595 H 0.67142 0.1983 0.89496 0.0
H596 H 0.44788 0.42589 0.97865 0.0
H597 H 0.49065 0.39628 0.99056 0.0
H598 H 0.52145 0.41 0.89223 0.0
H599 H 0.47837 0.43935 0.8798 0.0
Tb600 Tb 0.26032 0.63451 0.89464 0.0
Tb601 Tb 0.22031 0.58085 0.92039 0.0
C602 C 0.2098 0.61242 0.85388 0.0
C603 C 0.32328 0.67845 0.86731 0.0
C604 C 0.3821 0.6934 0.85956 0.0
C605 C 0.36351 0.69096 0.83217 0.0
C606 C 0.33446 0.68375 0.83607 0.0
C607 C 0.34209 0.67864 0.89459 0.0
C608 C 0.37128 0.6863 0.89077 0.0
C609 C 0.29193 0.67334 0.8703 0.0
O610 O 0.21908 0.6544 0.90844 0.0
O611 O 0.20084 0.61936 0.94341 0.0
O612 O 0.25374 0.58558 0.95911 0.0
O613 O 0.26803 0.63244 0.94695 0.0
O614 O 0.20088 0.54542 0.89846 0.0
O615 O 0.19527 0.5523 0.9512 0.0
O616 O 0.25944 0.56229 0.89767 0.0
O617 O 0.29148 0.59983 0.90212 0.0
O618 O 0.23796 0.61456 0.85349 0.0
O619 O 0.19741 0.60448 0.88121 0.0
C620 C 0.20125 0.6463 0.93202 0.0
O621 O 0.28201 0.65131 0.85387 0.0
O622 O 0.28041 0.67519 0.89934 0.0
C623 C 0.26794 0.60972 0.96635 0.0
C624 C 0.17244 0.50844 0.92508 0.0
C625 C 0.13841 0.45692 0.92039 0.0
C626 C 0.13807 0.47409 0.94904 0.0
C627 C 0.15486 0.49958 0.95133 0.0
C628 C 0.17317 0.49091 0.89687 0.0
C629 C 0.15652 0.46567 0.89458 0.0
C630 C 0.18949 0.53601 0.92564 0.0
C631 C 0.28629 0.57207 0.89914 0.0
H632 H 0.37073 0.69684 0.80782 0.0
H633 H 0.32039 0.6834 0.81467 0.0
H634 H 0.33407 0.6738 0.91889 0.0
H635 H 0.38502 0.68801 0.91233 0.0
H636 H 0.12435 0.46818 0.96944 0.0
H637 H 0.15374 0.51254 0.97339 0.0
H638 H 0.18663 0.49673 0.8762 0.0
H639 H 0.15805 0.45286 0.87245 0.0
H640 H 0.6113 0.21981 0.29349 0.0
H641 H 0.6019 0.14452 0.35549 0.0
H642 H 0.62949 0.18942 0.24959 0.0
H643 H 0.62023 0.11384 0.3111 0.0
H644 H 0.69623 0.08416 0.23792 0.0
H645 H 0.6678 0.10602 0.28219 0.0
H646 H 0.61608 0.1518 0.21028 0.0
H647 H 0.64469 0.13021 0.16648 0.0
C648 C 0.61252 0.19665 0.29761 0.0
C649 C 0.60482 0.18473 0.32816 0.0
C650 C 0.62294 0.17911 0.27225 0.0
C651 C 0.62632 0.14901 0.27657 0.0
C652 C 0.61805 0.1369 0.30687 0.0
C653 C 0.60723 0.15449 0.33224 0.0
C654 C 0.67782 0.0977 0.23163 0.0
C655 C 0.67219 0.10481 0.19865 0.0
C656 C 0.66168 0.11055 0.25701 0.0
C657 C 0.6398 0.13106 0.24995 0.0
C658 C 0.63297 0.13647 0.21679 0.0
C659 C 0.64902 0.12366 0.19158 0.0
H660 H 0.44551 0.73589 0.23627 0.0
H661 H 0.44663 0.66025 0.17427 0.0
H662 H 0.42463 0.7067 0.28081 0.0
H663 H 0.42508 0.63158 0.21825 0.0
H664 H 0.41437 0.63144 0.36024 0.0
H665 H 0.43966 0.65894 0.31738 0.0
H666 H 0.37304 0.63552 0.24769 0.0
H667 H 0.34725 0.60895 0.29073 0.0
C668 C 0.44155 0.71306 0.23219 0.0
C669 C 0.44798 0.70048 0.20166 0.0
C670 C 0.42963 0.69633 0.25772 0.0
C671 C 0.42313 0.66681 0.25303 0.0
C672 C 0.42975 0.65424 0.22263 0.0
C673 C 0.4423 0.67072 0.19748 0.0
C674 C 0.4054 0.63173 0.33562 0.0
C675 C 0.379 0.61759 0.32876 0.0
C676 C 0.41972 0.64777 0.31119 0.0
C677 C 0.40838 0.64941 0.27911 0.0
C678 C 0.38244 0.63455 0.27208 0.0
C679 C 0.36772 0.61924 0.2967 0.0
H680 H 0.9466 0.41496 0.35656 0.0
H681 H 0.96864 0.34705 0.28864 0.0
H682 H 0.91972 0.44025 0.31295 0.0
H683 H 0.94246 0.37273 0.24487 0.0
H684 H 0.91668 0.44329 0.16864 0.0
H685 H 0.94563 0.42182 0.21282 0.0
H686 H 0.8726 0.42812 0.27797 0.0
H687 H 0.84319 0.44904 0.2334 0.0
C688 C 0.9463 0.40575 0.33215 0.0
C689 C 0.9601 0.37909 0.32602 0.0
C690 C 0.93061 0.4201 0.30725 0.0
C691 C 0.9289 0.40853 0.27539 0.0
C692 C 0.94349 0.38236 0.26905 0.0
C693 C 0.95854 0.36765 0.29412 0.0
C694 C 0.90677 0.44044 0.19244 0.0
C695 C 0.87752 0.44807 0.19737 0.0
C696 C 0.92339 0.42792 0.21774 0.0
C697 C 0.91148 0.4232 0.24896 0.0
C698 C 0.88251 0.43163 0.25428 0.0
C699 C 0.86564 0.44359 0.22871 0.0
H700 H 0.15656 0.93689 0.35578 0.0
H701 H 0.227 0.95542 0.28988 0.0
H702 H 0.13041 0.91221 0.31118 0.0
H703 H 0.20049 0.93165 0.24517 0.0
H704 H 0.12848 0.91178 0.16734 0.0
H705 H 0.1506 0.9388 0.2125 0.0
H706 H 0.14241 0.86416 0.27546 0.0
H707 H 0.12095 0.83662 0.22985 0.0
C708 C 0.16613 0.93638 0.33159 0.0
C709 C 0.19376 0.94847 0.32633 0.0
C710 C 0.15129 0.92194 0.30615 0.0
C711 C 0.16336 0.91991 0.2746 0.0
C712 C 0.19049 0.93294 0.26909 0.0
C713 C 0.20566 0.94664 0.2947 0.0
C714 C 0.13108 0.9011 0.19086 0.0
C715 C 0.1228 0.87193 0.19485 0.0
C716 C 0.14393 0.91662 0.21671 0.0
C717 C 0.14827 0.9037 0.24762 0.0
C718 C 0.1392 0.87482 0.25202 0.0
C719 C 0.12697 0.85902 0.22586 0.0
H720 H 0.42892 0.94688 0.85971 0.0
H721 H 0.37272 0.98205 0.7847 0.0
H722 H 0.45755 0.92237 0.81759 0.0
H723 H 0.40126 0.95775 0.7426 0.0
H724 H 0.4667 0.92187 0.67038 0.0
H725 H 0.44795 0.95314 0.71369 0.0
H726 H 0.44883 0.88083 0.78084 0.0
H727 H 0.4668 0.84937 0.73736 0.0
C728 C 0.42322 0.95017 0.83416 0.0
C729 C 0.39861 0.96668 0.82563 0.0
C730 C 0.43945 0.93581 0.80997 0.0
C731 C 0.43181 0.93789 0.77649 0.0
C732 C 0.40816 0.95582 0.76794 0.0
C733 C 0.39172 0.96982 0.79213 0.0
C734 C 0.46332 0.91267 0.69451 0.0
C735 C 0.46833 0.88296 0.7002 0.0
C736 C 0.45232 0.93062 0.71936 0.0
C737 C 0.4465 0.9196 0.75089 0.0
C738 C 0.45296 0.89021 0.757 0.0
C739 C 0.46332 0.87209 0.73197 0.0
H740 H 0.59449 0.35899 0.78545 0.0
H741 H 0.61142 0.42711 0.85522 0.0
H742 H 0.61615 0.38822 0.74206 0.0
H743 H 0.6333 0.45637 0.81171 0.0
H744 H 0.70841 0.47452 0.73658 0.0
H745 H 0.67895 0.45257 0.77941 0.0
H746 H 0.61232 0.43321 0.70801 0.0
H747 H 0.64191 0.45536 0.66494 0.0
C748 C 0.60229 0.38047 0.79145 0.0
C749 C 0.60104 0.39063 0.82396 0.0
C750 C 0.6147 0.39731 0.76645 0.0
C751 C 0.6267 0.42469 0.77325 0.0
C752 C 0.62453 0.43531 0.80554 0.0
C753 C 0.61169 0.41862 0.83049 0.0
C754 C 0.68721 0.46617 0.73002 0.0
C755 C 0.67757 0.46693 0.69716 0.0
C756 C 0.67023 0.45358 0.75471 0.0
C757 C 0.64318 0.44098 0.74734 0.0
C758 C 0.6331 0.44251 0.71464 0.0
C759 C 0.64996 0.45549 0.68994 0.0
H760 H 0.12514 0.73863 0.7269 0.0
H761 H 0.1236 0.66039 0.66918 0.0
H762 H 0.14644 0.71145 0.77304 0.0
H763 H 0.14559 0.63366 0.7148 0.0
H764 H 0.2239 0.61427 0.78887 0.0
H765 H 0.19781 0.63884 0.7442 0.0
H766 H 0.13171 0.66564 0.81207 0.0
H767 H 0.15732 0.64024 0.85664 0.0
C768 C 0.12911 0.71565 0.72412 0.0
C769 C 0.12245 0.70173 0.69433 0.0
C770 C 0.14126 0.70008 0.75055 0.0
C771 C 0.14777 0.67041 0.74753 0.0
C772 C 0.14091 0.65648 0.71788 0.0
C773 C 0.12812 0.67183 0.6918 0.0
C774 C 0.20356 0.62499 0.79416 0.0
C775 C 0.19255 0.62498 0.82625 0.0
C776 C 0.18864 0.63909 0.76859 0.0
C777 C 0.16273 0.65426 0.77461 0.0
C778 C 0.15165 0.65422 0.80668 0.0
C779 C 0.16618 0.63944 0.83212 0.0
H780 H 0.92289 0.11736 0.67843 0.0
H781 H 0.84849 0.12236 0.74197 0.0
H782 H 0.95437 0.13242 0.72373 0.0
H783 H 0.87991 0.1371 0.78717 0.0
H784 H 0.94121 0.14599 0.87041 0.0
H785 H 0.91683 0.12226 0.82464 0.0
H786 H 0.96541 0.17506 0.75684 0.0
H787 H 0.99027 0.19838 0.80315 0.0
C788 C 0.91323 0.12137 0.70213 0.0
C789 C 0.88305 0.11856 0.70644 0.0
C790 C 0.93133 0.13024 0.7281 0.0
C791 C 0.91983 0.13616 0.75927 0.0
C792 C 0.88972 0.13259 0.7637 0.0
C793 C 0.87159 0.12416 0.73766 0.0
C794 C 0.94764 0.15158 0.84566 0.0
C795 C 0.96824 0.1735 0.84039 0.0
C796 C 0.93321 0.13839 0.81936 0.0
C797 C 0.93867 0.14698 0.78685 0.0
C798 C 0.96074 0.16763 0.78144 0.0
C799 C 0.9753 0.18082 0.80796 0.0
H800 H 0.45575 0.08597 0.39172 0.0
H801 H 0.40081 0.14518 0.4447 0.0
H802 H 0.41418 0.05462 0.38154 0.0
H803 H 0.35947 0.1132 0.43569 0.0
H804 H 0.28452 0.05981 0.39305 0.0
H805 H 0.32535 0.09361 0.39646 0.0
H806 H 0.38404 1.0217 0.41092 0.0
H807 H 0.34367 0.98818 0.40685 0.0
C808 C 0.43479 0.0925 0.40102 0.0
C809 C 0.4319 0.11822 0.41921 0.0
C810 C 0.41091 0.07425 0.39551 0.0
C811 C 0.38329 0.08109 0.40797 0.0
C812 C 0.38022 0.10718 0.42544 0.0
C813 C 0.40413 0.12542 0.43099 0.0
C814 C 0.30618 0.05122 0.39655 0.0
C815 C 0.31064 1.02117 0.39954 0.0
C816 C 0.32964 0.07064 0.3988 0.0
C817 C 0.35821 0.06055 0.404 0.0
C818 C 0.36258 1.03044 0.40639 0.0
C819 C 0.33924 1.01111 0.4042 0.0
H820 H 0.4264 0.40207 0.45245 0.0
H821 H 0.48025 0.44787 0.38328 0.0
H822 H 0.45563 0.35859 0.44497 0.0
H823 H 0.50833 0.40408 0.37443 0.0
H824 H 0.57482 0.33412 0.39611 0.0
H825 H 0.54344 0.3757 0.4007 0.0
H826 H 0.46923 0.3192 0.40958 0.0
H827 H 0.50146 0.27688 0.40629 0.0
C828 C 0.44447 0.403 0.43565 0.0
C829 C 0.45094 0.42889 0.41875 0.0
C830 C 0.46101 0.37776 0.43094 0.0
C831 C 0.48458 0.37753 0.40912 0.0
C832 C 0.49072 0.40329 0.39184 0.0
C833 C 0.47428 0.4285 0.39665 0.0
C834 C 0.55185 0.3303 0.39899 0.0
C835 C 0.54088 0.3019 0.40102 0.0
C836 C 0.53363 0.35441 0.40129 0.0
C837 C 0.50355 0.35117 0.40545 0.0
C838 C 0.4923 0.32271 0.40677 0.0
C839 C 0.51073 0.29837 0.40452 0.0
H840 H 0.10847 0.49745 0.3918 0.0
H841 H 0.16342 0.4399 0.44809 0.0
H842 H 0.15008 0.52918 0.38186 0.0
H843 H 0.20455 0.4718 0.43894 0.0
H844 H 0.27958 0.51733 0.39005 0.0
H845 H 0.23685 0.48687 0.39574 0.0
H846 H 0.18376 0.5629 0.40922 0.0
H847 H 0.22666 0.59358 0.40317 0.0
C848 C 0.12935 0.49152 0.4021 0.0
C849 C 0.13236 0.46601 0.42088 0.0
C850 C 0.15322 0.50989 0.39662 0.0
C851 C 0.18089 0.50312 0.40942 0.0
C852 C 0.18379 0.47766 0.42825 0.0
C853 C 0.15998 0.45947 0.4339 0.0
C854 C 0.2588 0.52771 0.39381 0.0
C855 C 0.25679 0.55808 0.39606 0.0
C856 C 0.23421 0.51013 0.3974 0.0
C857 C 0.20671 0.52226 0.40334 0.0
C858 C 0.20446 0.55269 0.40446 0.0
C859 C 0.22915 0.57034 0.40097 0.0
H860 H 0.07784 0.10808 0.38286 0.0
H861 H 0.12982 0.15388 0.45424 0.0
H862 H 0.04866 0.15166 0.37395 0.0
H863 H 0.10015 0.19692 0.44621 0.0
H864 H 0.06124 0.27882 0.40273 0.0
H865 H 0.09027 0.23493 0.40783 0.0
H866 H 1.01282 0.18302 0.39851 0.0
H867 H 0.98376 0.22702 0.39286 0.0
C868 C 0.08309 0.12736 0.39673 0.0
C869 C 0.10633 0.12714 0.41939 0.0
C870 C 0.06611 0.15239 0.39182 0.0
C871 C 0.07193 0.17813 0.40922 0.0
C872 C 0.09509 0.17782 0.43193 0.0
C873 C 0.11195 0.15282 0.43693 0.0
C874 C 0.05032 0.2581 0.4014 0.0
C875 C 1.01998 0.25674 0.39729 0.0
C876 C 0.06704 0.23278 0.40466 0.0
C877 C 0.05405 0.20515 0.40394 0.0
C878 C 1.02379 0.20375 0.39894 0.0
C879 C 1.00703 0.22912 0.39573 0.0
H880 H 0.94644 0.99024 0.09658 0.0
H881 H 0.89837 0.91238 0.11814 0.0
H882 H 0.9036 1.0193 0.10801 0.0
H883 H 0.85553 0.94164 0.13043 0.0
H884 H 0.77643 1.00305 0.11209 0.0
H885 H 0.81867 0.97196 0.10443 0.0
H886 H 0.87277 1.0357 0.15203 0.0
H887 H 0.8306 0.06695 0.15939 0.0
C888 C 0.92671 0.97921 0.1036 0.0
C889 C 0.92609 0.94875 0.10614 0.0
C890 C 0.90211 0.99601 0.11065 0.0
C891 C 0.87587 0.98302 0.12037 0.0
C892 C 0.87516 0.95255 0.12283 0.0
C893 C 0.8999 0.93571 0.11601 0.0
C894 C 0.79723 1.01034 0.1214 0.0
C895 C 0.79984 0.03769 0.13647 0.0
C896 C 0.82157 0.99238 0.11702 0.0
C897 C 0.84942 1.00124 0.1273 0.0
C898 C 0.85187 1.0282 0.14326 0.0
C899 C 0.8275 0.04607 0.14785 0.0
H900 H 0.48758 0.8456 0.13349 0.0
H901 H 0.5618 0.78957 0.12164 0.0
H902 H 0.51874 0.88781 0.12843 0.0
H903 H 0.59304 0.83203 0.11596 0.0
H904 H 0.64468 0.91675 0.13302 0.0
H905 H 0.61485 0.87378 0.14221 0.0
H906 H 0.54496 0.91317 0.08702 0.0
H907 H 0.57464 0.95586 0.07778 0.0
C908 C 0.5106 0.84217 0.13008 0.0
C909 C 0.52199 0.81392 0.128 0.0
C910 C 0.52853 0.86654 0.12682 0.0
C911 C 0.55853 0.86359 0.12133 0.0
C912 C 0.57014 0.83534 0.12037 0.0
C913 C 0.55214 0.81088 0.12361 0.0
C914 C 0.62303 0.91621 0.12261 0.0
C915 C 0.61219 0.94014 0.1048 0.0
C916 C 0.60584 0.89146 0.12793 0.0
C917 C 0.57723 0.88985 0.11565 0.0
C918 C 0.56655 0.91368 0.0976 0.0
C919 C 0.5837 0.93833 0.09226 0.0
H920 H 0.61616 0.58303 0.14332 0.0
H921 H 0.66202 0.6333 0.07086 0.0
H922 H 0.65813 0.55145 0.14973 0.0
H923 H 0.70383 0.601 0.07649 0.0
H924 H 0.7845 0.55559 0.1191 0.0
H925 H 0.74268 0.58785 0.11422 0.0
H926 H 0.68522 0.51441 0.1223 0.0
H927 H 0.72688 0.48228 0.12772 0.0
C928 C 0.6352 0.5874 0.12869 0.0
C929 C 0.63558 0.61096 0.10666 0.0
C930 C 0.65926 0.56901 0.13214 0.0
C931 C 0.6846 0.57355 0.11372 0.0
C932 C 0.68492 0.59696 0.09145 0.0
C933 C 0.66075 0.61532 0.08789 0.0
C934 C 0.76296 0.5463 0.12021 0.0
C935 C 0.75925 0.5162 0.124 0.0
C936 C 0.7389 0.56484 0.11705 0.0
C937 C 0.71039 0.55387 0.11768 0.0
C938 C 0.70672 0.52382 0.12205 0.0
C939 C 0.73075 0.5053 0.1251 0.0
H940 H 0.07149 0.73177 0.12742 0.0
H941 H 1.00137 0.79153 0.10793 0.0
H942 H 0.03873 0.69125 0.12026 0.0
H943 H 0.96827 0.75046 0.10014 0.0
H944 H 0.91244 0.66775 0.11749 0.0
H945 H 0.9431 0.71024 0.12535 0.0
H946 H 1.01384 0.66588 0.07806 0.0
H947 H 0.98364 0.62302 0.07152 0.0
C948 C 0.04896 0.73637 0.12176 0.0
C949 C 0.03924 0.76517 0.11826 0.0
C950 C 1.03012 0.71292 0.11727 0.0
C951 C 1.00077 0.71726 0.10898 0.0
C952 C 0.99067 0.7461 0.10658 0.0
C953 C 1.00966 0.76974 0.11114 0.0
C954 C 0.93459 0.66691 0.1089 0.0
C955 C 0.94547 0.64154 0.09412 0.0
C956 C 0.95215 0.69155 0.11311 0.0
C957 C 0.98122 0.69166 0.10274 0.0
C958 C 0.9918 0.66661 0.08704 0.0
C959 C 0.97426 0.64201 0.08282 0.0
H960 H 0.72801 0.0902 0.62548 0.0
H961 H 0.78414 1.01536 0.6296 0.0
H962 H 0.68617 0.05886 0.61782 0.0
H963 H 0.74197 0.9838 0.62257 0.0
H964 H 0.66496 0.93811 0.57246 0.0
H965 H 0.70687 0.96907 0.58216 0.0
H966 H 0.6548 1.02449 0.64339 0.0
H967 H 0.61253 0.99413 0.6326 0.0
C968 C 0.73147 0.067 0.62518 0.0
C969 C 0.75966 0.05544 0.62827 0.0
C970 C 0.7073 0.04892 0.6209 0.0
C971 C 0.71042 1.01862 0.6195 0.0
C972 C 0.7386 1.007 0.62306 0.0
C973 C 0.76285 1.02513 0.6274 0.0
C974 C 0.66223 0.9571 0.58766 0.0
C975 C 0.63503 0.96356 0.60148 0.0
C976 C 0.68653 0.9747 0.59365 0.0
C977 C 0.6845 0.99942 0.61367 0.0
C978 C 0.65732 1.00588 0.62756 0.0
C979 C 0.63302 0.98823 0.62161 0.0
H980 H 0.64888 0.65613 0.62822 0.0
H981 H 0.57606 0.61634 0.57889 0.0
H982 H 0.61907 0.69851 0.64023 0.0
H983 H 0.54668 0.65902 0.58976 0.0
H984 H 0.4918 0.7287 0.63704 0.0
H985 H 0.52203 0.68573 0.63113 0.0
H986 H 0.59683 0.73999 0.61487 0.0
H987 H 0.56669 0.783 0.62142 0.0
C988 C 0.6265 0.65626 0.62002 0.0
C989 C 0.6151 0.63256 0.60243 0.0
C990 C 0.60941 0.68084 0.62661 0.0
C991 C 0.58027 0.6825 0.616 0.0
C992 C 0.56882 0.65864 0.59876 0.0
C993 C 0.5859 0.63416 0.5921 0.0
C994 C 0.51477 0.73158 0.63268 0.0
C995 C 0.52663 0.75959 0.62982 0.0
C996 C 0.53216 0.70678 0.62892 0.0
C997 C 0.56204 0.70908 0.62218 0.0
C998 C 0.57406 0.73711 0.62034 0.0
C999 C 0.55666 0.76193 0.62404 0.0
H1000 H 0.94117 0.58532 0.57901 0.0
H1001 H 0.89649 0.65861 0.62069 0.0
H1002 H 0.8981 0.55562 0.58688 0.0
H1003 H 0.85368 0.62854 0.62964 0.0
H1004 H 0.77254 0.56895 0.61362 0.0
H1005 H 0.81357 0.60174 0.60386 0.0
H1006 H 0.87309 0.53375 0.63209 0.0
H1007 H 0.83268 0.50132 0.64138 0.0
C1008 C 0.92212 0.59524 0.5896 0.0
C1009 C 0.9226 0.62444 0.59937 0.0
C1010 C 0.89743 0.57805 0.59453 0.0
C1011 C 0.87235 0.58947 0.60935 0.0
C1012 C 0.87245 0.61893 0.61812 0.0
C1013 C 0.89721 0.63612 0.61327 0.0
C1014 C 0.79438 0.56119 0.61812 0.0
C1015 C 0.79915 0.53239 0.62822 0.0
C1016 C 0.81795 0.57996 0.61246 0.0
C1017 C 0.84683 0.57034 0.61663 0.0
C1018 C 0.85134 0.54184 0.62776 0.0
C1019 C 0.82798 0.52324 0.63342 0.0
H1020 H 0.98195 0.94871 0.56246 0.0
H1021 H 0.92515 0.91125 0.63488 0.0
H1022 H 1.01336 0.90626 0.56629 0.0
H1023 H 0.95719 0.8696 0.63991 0.0
H1024 H 1.00824 0.78601 0.62065 0.0
H1025 H 0.97489 0.82683 0.61445 0.0
H1026 H 0.04772 0.88468 0.60267 0.0
H1027 H 0.08084 0.84396 0.608 0.0
C1028 C 0.976 0.93139 0.57905 0.0
C1029 C 0.95102 0.9337 0.59851 0.0
C1030 C 0.99429 0.90714 0.58162 0.0
C1031 C 0.98814 0.88444 0.60373 0.0
C1032 C 0.96269 0.88641 0.62247 0.0
C1033 C 0.94442 0.91059 0.61986 0.0
C1034 C 1.01715 0.80747 0.61702 0.0
C1035 C 0.04732 0.81156 0.61494 0.0
C1036 C 0.99798 0.83097 0.61347 0.0
C1037 C 1.00846 0.85923 0.60779 0.0
C1038 C 0.03868 0.86328 0.60631 0.0
C1039 C 0.05777 0.83985 0.60977 0.0
H1040 H 0.12685 0.09244 0.87988 0.0
H1041 H 0.17511 0.13661 0.95579 0.0
H1042 H 0.16965 0.06379 0.86687 0.0
H1043 H 0.21755 0.1071 0.94368 0.0
H1044 H 0.29745 0.0646 0.89833 0.0
H1045 H 0.25578 0.09679 0.90561 0.0
H1046 H 0.19783 1.0249 0.88848 0.0
H1047 H 0.2392 0.9931 0.88058 0.0
C1048 C 0.14659 0.09627 0.89372 0.0
C1049 C 0.14719 0.11698 0.91904 0.0
C1050 C 0.17119 0.07947 0.88649 0.0
C1051 C 0.19731 0.0828 0.90428 0.0
C1052 C 0.19809 0.10393 0.92915 0.0
C1053 C 0.17347 0.12069 0.93642 0.0
C1054 C 0.27582 0.05575 0.89563 0.0
C1055 C 0.2719 1.02614 0.88869 0.0
C1056 C 0.25181 0.0742 0.90015 0.0
C1057 C 0.22315 0.06363 0.89778 0.0
C1058 C 0.21936 1.03414 0.89008 0.0
C1059 C 0.24328 1.01575 0.88566 0.0
H1060 H 0.47114 0.125 0.88008 0.0
H1061 H 0.42425 0.17037 0.95556 0.0
H1062 H 0.49996 0.16821 0.86987 0.0
H1063 H 0.45401 0.21325 0.94631 0.0
H1064 H 0.49959 0.29456 0.90559 0.0
H1065 H 0.46644 0.25317 0.91048 0.0
H1066 H 0.53812 0.19469 0.89475 0.0
H1067 H 0.57068 0.23554 0.88925 0.0
C1068 C 0.46673 0.14419 0.89441 0.0
C1069 C 0.44524 0.14379 0.91883 0.0
C1070 C 0.48363 0.16904 0.88882 0.0
C1071 C 0.47972 0.19445 0.90742 0.0
C1072 C 0.45771 0.19433 0.93126 0.0
C1073 C 0.44081 0.16945 0.93688 0.0
C1074 C 0.50815 0.27287 0.90279 0.0
C1075 C 0.53792 0.26861 0.89693 0.0
C1076 C 0.48917 0.24903 0.90588 0.0
C1077 C 0.49939 0.22029 0.90299 0.0
C1078 C 0.52909 0.21627 0.89661 0.0
C1079 C 0.54795 0.23992 0.89366 0.0
H1080 H 0.40297 0.42885 0.94959 0.0
H1081 H 0.45656 0.48538 0.89119 0.0
H1082 H 0.36172 0.46107 0.94089 0.0
H1083 H 0.41501 0.51698 0.88139 0.0
H1084 H 0.3444 0.58472 0.90291 0.0
H1085 H 0.38516 0.55155 0.90838 0.0
H1086 H 0.32649 0.47887 0.90231 0.0
H1087 H 0.28547 0.51224 0.89749 0.0
C1088 C 0.40605 0.4481 0.93481 0.0
C1089 C 0.43344 0.45436 0.9213 0.0
C1090 C 0.38215 0.4665 0.92944 0.0
C1091 C 0.38474 0.49189 0.91042 0.0
C1092 C 0.41203 0.49793 0.89653 0.0
C1093 C 0.43592 0.4795 0.90184 0.0
C1094 C 0.34007 0.56167 0.9024 0.0
C1095 C 0.3114 0.55134 0.89962 0.0
C1096 C 0.36364 0.54252 0.90544 0.0
C1097 C 0.35943 0.51229 0.90584 0.0
C1098 C 0.33076 0.50193 0.90256 0.0
C1099 C 0.30714 0.52113 0.89948 0.0
H1100 H 0.12606 0.41518 0.96694 0.0
H1101 H 0.10905 0.43749 0.86576 0.0
H1102 H 0.0979 0.37076 0.96019 0.0
H1103 H 0.08193 0.39271 0.85868 0.0
H1104 H 1.00987 0.3235 0.86713 0.0
H1105 H 0.0379 0.36811 0.87224 0.0
H1106 H 0.09969 0.32395 0.93474 0.0
H1107 H 0.07149 0.27959 0.9301 0.0
C1108 C 0.11627 0.41074 0.94328 0.0
C1109 C 0.12013 0.43007 0.91691 0.0
C1110 C 0.10037 0.38498 0.93924 0.0
C1111 C 0.08768 0.37777 0.90874 0.0
C1112 C 0.09112 0.39739 0.88258 0.0
C1113 C 0.10704 0.42306 0.88659 0.0
C1114 C 1.02968 0.32311 0.88153 0.0
C1115 C 0.03829 0.29769 0.89809 0.0
C1116 C 0.04582 0.34883 0.88454 0.0
C1117 C 0.07106 0.34997 0.90424 0.0
C1118 C 0.08012 0.32427 0.91991 0.0
C1119 C 0.06404 0.2986 0.91689 0.0
H1120 H 0.70225 0.33331 0.49725 0.0
H1121 H 0.68554 0.41594 0.45156 0.0
H1122 H 0.74305 0.35372 0.52631 0.0
H1123 H 0.72703 0.43623 0.4808 0.0
H1124 H 0.82936 0.34957 0.49179 0.0
H1125 H 0.79158 0.37153 0.52544 0.0
H1126 H 0.75547 0.41181 0.43822 0.0
H1127 H 0.79209 0.38971 0.40551 0.0
C1128 C 0.70623 0.35634 0.49507 0.0
C1129 C 0.69212 0.37269 0.47073 0.0
C1130 C 0.7297 0.36832 0.51187 0.0
C1131 C 0.74074 0.39493 0.50069 0.0
C1132 C 0.72052 0.41428 0.48659 0.0
C1133 C 0.69687 0.40265 0.46943 0.0
C1134 C 0.81342 0.36348 0.48012 0.0
C1135 C 0.81287 0.36689 0.44582 0.0
C1136 C 0.79205 0.37636 0.49945 0.0
C1137 C 0.76965 0.39264 0.48469 0.0
C1138 C 0.77183 0.39919 0.45094 0.0
C1139 C 0.793 0.3863 0.43178 0.0
H1140 H 0.41242 0.77085 0.38533 0.0
H1141 H 0.37001 0.75951 0.47861 0.0
H1142 H 0.44601 0.8037 0.40959 0.0
H1143 H 0.40265 0.79411 0.50314 0.0
H1144 H 0.38404 0.87996 0.49026 0.0
H1145 H 0.41143 0.83984 0.51248 0.0
H1146 H 0.46814 0.84216 0.4298 0.0
H1147 H 0.44092 0.88284 0.40683 0.0
C1148 C 0.41039 0.77515 0.41129 0.0
C1149 C 0.38733 0.76373 0.42947 0.0
C1150 C 0.42993 0.79438 0.42561 0.0
C1151 C 0.42614 0.80404 0.45819 0.0
C1152 C 0.40559 0.78915 0.4775 0.0
C1153 C 0.38636 0.76941 0.46328 0.0
C1154 C 0.40306 0.87281 0.4772 0.0
C1155 C 0.40863 0.88266 0.44525 0.0
C1156 C 0.41866 0.84927 0.48965 0.0
C1157 C 0.43655 0.83377 0.46798 0.0
C1158 C 0.45012 0.8507 0.44365 0.0
C1159 C 0.43474 0.8742 0.4305 0.0
H1160 H 0.36148 0.72985 0.99824 0.0
H1161 H 0.3123 0.80929 0.99679 0.0
H1162 H 0.32504 0.70696 0.96362 0.0
H1163 H 0.27613 0.78685 0.96244 0.0
H1164 H 0.20049 0.75429 0.97085 0.0
H1165 H 0.2424 0.75616 0.93518 0.0
H1166 H 0.28619 0.69464 0.99811 0.0
H1167 H 0.24471 0.69273 0.03321 0.0
C1168 C 0.34359 0.74285 0.98907 0.0
C1169 C 0.33852 0.77066 1.0018 0.0
C1170 C 0.32278 0.7298 0.96893 0.0
C1171 C 0.29639 0.74417 0.96265 0.0
C1172 C 0.29539 0.77436 0.96816 0.0
C1173 C 0.3162 0.78746 0.98818 0.0
C1174 C 0.21853 0.74005 0.97612 0.0
C1175 C 0.22005 0.72485 1.00605 0.0
C1176 C 0.24258 0.74096 0.95546 0.0
C1177 C 0.26864 0.72774 0.96552 0.0
C1178 C 0.26709 0.70647 0.99034 0.0
C1179 C 0.24305 0.7054 1.0109 0.0
H1180 H 0.73901 0.37398 0.29098 0.0
H1181 H 0.66643 0.34979 0.22972 0.0
H1182 H 0.72717 0.33587 0.32881 0.0
H1183 H 0.65607 0.30993 0.26554 0.0
H1184 H 0.76053 0.24509 0.31465 0.0
H1185 H 0.74171 0.29165 0.32897 0.0
H1186 H 0.65815 0.26772 0.28802 0.0
H1187 H 0.67831 0.22208 0.27085 0.0
C1188 C 0.72001 0.36095 0.28586 0.0
C1189 C 0.70518 0.36327 0.25577 0.0
C1190 C 0.71348 0.33833 0.30741 0.0
C1191 C 0.69328 0.31682 0.29816 0.0
C1192 C 0.67369 0.32401 0.27261 0.0
C1193 C 0.67963 0.34714 0.2516 0.0
C1194 C 0.73808 0.24982 0.30871 0.0
C1195 C 0.72179 0.23088 0.28906 0.0
C1196 C 0.72688 0.27681 0.31723 0.0
C1197 C 0.69905 0.28543 0.30619 0.0
C1198 C 0.68064 0.26348 0.29392 0.0
C1199 C 0.6921 0.23671 0.28458 0.0
H1200 H 0.21122 0.80653 0.46033 0.0
H1201 H 0.23623 0.88151 0.51672 0.0
H1202 H 0.25874 0.80595 0.43516 0.0
H1203 H 0.28274 0.88128 0.49058 0.0
H1204 H 0.35808 0.84829 0.52632 0.0
H1205 H 0.32937 0.86454 0.47936 0.0
H1206 H 0.28264 0.78327 0.48127 0.0
H1207 H 0.31166 0.76724 0.527 0.0
C1208 C 0.22618 0.8238 0.46627 0.0
C1209 C 0.22129 0.84195 0.49345 0.0
C1210 C 0.25344 0.82371 0.45138 0.0
C1211 C 0.27565 0.84083 0.46501 0.0
C1212 C 0.26691 0.86565 0.48233 0.0
C1213 C 0.23991 0.86574 0.49763 0.0
C1214 C 0.34226 0.83364 0.51581 0.0
C1215 C 0.33606 0.80712 0.53129 0.0
C1216 C 0.32599 0.84282 0.48868 0.0
C1217 C 0.3024 0.8261 0.47756 0.0
C1218 C 0.29991 0.79743 0.48945 0.0
C1219 C 0.31648 0.78812 0.51619 0.0
H1220 H 0.79848 0.22109 0.81934 0.0
H1221 H 0.71982 0.24594 0.76904 0.0
H1222 H 0.79365 0.2627 0.85572 0.0
H1223 H 0.71482 0.28708 0.80449 0.0
H1224 H 0.71845 0.36986 0.8242 0.0
H1225 H 0.71408 0.32147 0.84758 0.0
H1226 H 0.80604 0.30837 0.83436 0.0
H1227 H 0.81037 0.35585 0.8115 0.0
C1228 C 0.77957 0.23478 0.81694 0.0
C1229 C 0.7599 0.23075 0.79092 0.0
C1230 C 0.77667 0.25857 0.83786 0.0
C1231 C 0.75449 0.27906 0.83235 0.0
C1232 C 0.73241 0.27217 0.80964 0.0
C1233 C 0.73529 0.24845 0.78893 0.0
C1234 C 0.73792 0.35704 0.82765 0.0
C1235 C 0.76435 0.3659 0.81379 0.0
C1236 C 0.73545 0.32932 0.84127 0.0
C1237 C 0.75922 0.31019 0.84035 0.0
C1238 C 0.78685 0.3219 0.83428 0.0
C1239 C 0.78938 0.34954 0.82084 0.0
H1240 H 0.83116 0.17914 0.77916 0.0
H1241 H 0.8469 0.15653 0.88016 0.0
H1242 H 0.78507 0.15383 0.78064 0.0
H1243 H 0.80182 0.12917 0.88125 0.0
H1244 H 0.69436 0.1559 0.79598 0.0
H1245 H 0.741 0.13148 0.79126 0.0
H1246 H 0.7631 0.15936 0.88952 0.0
H1247 H 0.71813 0.18388 0.89368 0.0
C1248 C 0.8252 0.16771 0.80128 0.0
C1249 C 0.84095 0.17188 0.83035 0.0
C1250 C 0.7988 0.15286 0.80219 0.0
C1251 C 0.78833 0.14203 0.83224 0.0
C1252 C 0.8082 0.13933 0.85844 0.0
C1253 C 0.8341 0.15493 0.85785 0.0
C1254 C 0.70901 0.15624 0.81683 0.0
C1255 C 0.70286 0.17333 0.84454 0.0
C1256 C 0.73575 0.14199 0.81417 0.0
C1257 C 0.75665 0.14439 0.83933 0.0
C1258 C 0.74812 0.15702 0.86917 0.0
C1259 C 0.72174 0.17143 0.87165 0.0
H1260 H 0.41992 0.85585 0.8292 0.0
H1261 H 0.37619 0.80388 0.75636 0.0
H1262 H 0.45086 0.81497 0.84353 0.0
H1263 H 0.40653 0.76294 0.77087 0.0
H1264 H 0.40304 0.73657 0.89851 0.0
H1265 H 0.426 0.77864 0.87572 0.0
H1266 H 0.4463 0.73085 0.78787 0.0
H1267 H 0.42338 0.68807 0.81127 0.0
C1268 C 0.41792 0.83611 0.81505 0.0
C1269 C 0.39506 0.8326 0.79239 0.0
C1270 C 0.4357 0.81266 0.8233 0.0
C1271 C 0.43047 0.78533 0.80938 0.0
C1272 C 0.41108 0.78349 0.78255 0.0
C1273 C 0.39332 0.8069 0.77434 0.0
C1274 C 0.41405 0.73424 0.87527 0.0
C1275 C 0.40962 0.70968 0.85565 0.0
C1276 C 0.42742 0.75864 0.86199 0.0
C1277 C 0.43605 0.75863 0.8289 0.0
C1278 C 0.43854 0.73183 0.81287 0.0
C1279 C 0.42531 0.70732 0.82627 0.0
H1280 H 0.64102 0.16447 0.48875 0.0
H1281 H 0.69704 0.19497 0.41149 0.0
H1282 H 0.68223 0.13987 0.51458 0.0
H1283 H 0.73808 0.17034 0.4373 0.0
H1284 H 0.80524 0.16395 0.52454 0.0
H1285 H 0.76588 0.17941 0.48829 0.0
H1286 H 0.71957 0.10037 0.50953 0.0
H1287 H 0.75946 0.08481 0.54579 0.0
C1288 C 0.662 0.16565 0.477 0.0
C1289 C 0.66562 0.18196 0.44811 0.0
C1290 C 0.68563 0.15133 0.49173 0.0
C1291 C 0.71357 0.15316 0.47811 0.0
C1292 C 0.71696 0.16867 0.44864 0.0
C1293 C 0.69333 0.18275 0.43377 0.0
C1294 C 0.78716 0.14938 0.52044 0.0
C1295 C 0.78566 0.12296 0.53749 0.0
C1296 C 0.76449 0.15827 0.49975 0.0
C1297 C 0.73939 0.14125 0.49609 0.0
C1298 C 0.7385 0.11409 0.51195 0.0
C1299 C 0.76153 0.10494 0.53227 0.0
H1300 H 0.42167 0.76442 0.57528 0.0
H1301 H 0.48987 0.78154 0.50628 0.0
H1302 H 0.40665 0.72251 0.54459 0.0
H1303 H 0.4749 0.73825 0.47477 0.0
H1304 H 0.40726 0.68198 0.4108 0.0
H1305 H 0.43342 0.72022 0.44021 0.0
H1306 H 0.42083 0.6739 0.53103 0.0
H1307 H 0.39458 0.63593 0.50162 0.0
C1308 C 0.43356 0.75922 0.55341 0.0
C1309 C 0.45672 0.77683 0.54324 0.0
C1310 C 0.42518 0.73467 0.53592 0.0
C1311 C 0.43966 0.72646 0.50724 0.0
C1312 C 0.46321 0.7438 0.49683 0.0
C1313 C 0.47189 0.76857 0.51489 0.0
C1314 C 0.41031 0.6799 0.43703 0.0
C1315 C 0.39826 0.65614 0.4539 0.0
C1316 C 0.42552 0.70177 0.45389 0.0
C1317 C 0.42869 0.70072 0.48821 0.0
C1318 C 0.4183 0.6759 0.5047 0.0
C1319 C 0.40343 0.6539 0.4878 0.0
H1320 H 0.92973 0.37842 0.5017 0.0
H1321 H 0.8921 0.40823 0.41086 0.0
H1322 H 0.89141 0.40131 0.53188 0.0
H1323 H 0.85461 0.43402 0.44093 0.0
H1324 H 0.77402 0.45741 0.50278 0.0
H1325 H 0.81448 0.44138 0.46876 0.0
H1326 H 0.86871 0.43596 0.55561 0.0
H1327 H 0.82822 0.44977 0.58869 0.0
C1328 C 0.91369 0.39092 0.48823 0.0
C1329 C 0.91435 0.39184 0.45391 0.0
C1330 C 0.89142 0.40456 0.50566 0.0
C1331 C 0.86938 0.42078 0.48959 0.0
C1332 C 0.87053 0.42197 0.45493 0.0
C1333 C 0.89238 0.40735 0.43742 0.0
C1334 C 0.79468 0.45261 0.51434 0.0
C1335 C 0.79739 0.45354 0.54862 0.0
C1336 C 0.8182 0.44331 0.49482 0.0
C1337 C 0.84514 0.43503 0.50908 0.0
C1338 C 0.84827 0.43945 0.54315 0.0
C1339 C 0.82485 0.44799 0.56244 0.0
H1340 H 0.14153 0.75861 0.49479 0.0
H1341 H 0.07893 0.81468 0.54023 0.0
H1342 H 0.16035 0.79904 0.4635 0.0
H1343 H 0.09784 0.85584 0.50876 0.0
H1344 H 0.16945 0.92512 0.48695 0.0
H1345 H 0.14001 0.88586 0.50936 0.0
H1346 H 0.15726 0.83458 0.42319 0.0
H1347 H 0.18727 0.87328 0.40149 0.0
C1348 C 0.13093 0.77947 0.49695 0.0
C1349 C 0.10829 0.78324 0.51942 0.0
C1350 C 0.14195 0.80292 0.47917 0.0
C1351 C 0.13107 0.83115 0.4837 0.0
C1352 C 0.10717 0.83462 0.50485 0.0
C1353 C 0.09584 0.8109 0.52241 0.0
C1354 C 0.16664 0.9056 0.47261 0.0
C1355 C 0.18102 0.90242 0.44248 0.0
C1356 C 0.14954 0.88304 0.48538 0.0
C1357 C 0.14622 0.85667 0.46835 0.0
C1358 C 0.15963 0.85414 0.43753 0.0
C1359 C 0.17685 0.87652 0.42493 0.0
H1360 H 0.2997 0.90201 0.97792 0.0
H1361 H 0.26336 0.98793 0.98195 0.0
H1362 H 0.26082 0.88387 1.01255 0.0
H1363 H 0.22378 0.96968 0.01677 0.0
H1364 H 0.13989 0.91101 0.03739 0.0
H1365 H 0.18025 0.93554 1.00977 0.0
H1366 H 0.24128 0.88677 0.06852 0.0
H1367 H 0.20153 0.86244 0.09586 0.0
C1368 C 0.28371 0.91719 0.98699 0.0
C1369 C 0.28492 0.94649 0.97774 0.0
C1370 C 0.26131 0.90678 1.0068 0.0
C1371 C 0.23901 0.92525 0.01753 0.0
C1372 C 0.2405 0.95481 1.00885 0.0
C1373 C 0.26338 0.96538 0.98936 0.0
C1374 C 0.16191 0.90578 0.04469 0.0
C1375 C 0.16722 0.88448 0.06881 0.0
C1376 C 0.18508 0.91997 0.02894 0.0
C1377 C 0.21412 0.91301 0.0367 0.0
C1378 C 0.21929 0.89246 0.06154 0.0
C1379 C 0.1963 0.87852 0.07736 0.0
H1380 H 0.72521 0.20677 0.09573 0.0
H1381 H 0.65825 0.14847 0.06195 0.0
H1382 H 0.70097 0.24683 0.06751 0.0
H1383 H 0.63426 0.18844 0.03349 0.0
H1384 H 0.58605 0.2703 1.00101 0.0
H1385 H 0.60724 0.23429 0.03885 0.0
H1386 H 0.69312 0.26233 1.01151 0.0
H1387 H 0.67204 0.29793 0.97434 0.0
C1388 C 0.70531 0.20242 0.08239 0.0
C1389 C 0.69395 0.17414 0.08106 0.0
C1390 C 0.69138 0.22547 0.06607 0.0
C1391 C 0.66554 0.22105 0.04806 0.0
C1392 C 0.65385 0.1929 0.04738 0.0
C1393 C 0.66786 0.16982 0.06352 0.0
C1394 C 0.6094 0.26928 1.00396 0.0
C1395 C 0.62734 0.28715 0.98489 0.0
C1396 C 0.62162 0.24837 0.02526 0.0
C1397 C 0.65203 0.24514 0.02824 0.0
C1398 C 0.66972 0.26419 1.01033 0.0
C1399 C 0.65759 0.28468 0.98891 0.0
H1400 H 0.26279 0.6439 0.01952 0.0
H1401 H 0.32015 0.58289 0.97375 0.0
H1402 H 0.3027 0.6622 0.05285 0.0
H1403 H 0.36038 0.60018 1.00799 0.0
H1404 H 0.43024 0.66933 0.03505 0.0
H1405 H 0.39093 0.64144 1.00993 0.0
H1406 H 0.33726 0.65804 0.09435 0.0
H1407 H 0.37598 0.68668 0.11858 0.0
C1408 C 0.28376 0.63346 0.01784 0.0
C1409 C 0.28819 0.61167 0.99453 0.0
C1410 C 0.30685 0.644 0.03687 0.0
C1411 C 0.3352 0.63302 0.03308 0.0
C1412 C 0.33912 0.60964 1.01131 0.0
C1413 C 0.31589 0.59916 0.99221 0.0
C1414 C 0.41019 0.66663 0.04842 0.0
C1415 C 0.40632 0.68045 0.07878 0.0
C1416 C 0.38756 0.65049 0.03407 0.0
C1417 C 0.36053 0.64747 0.04985 0.0
C1418 C 0.35733 0.66025 0.08094 0.0
C1419 C 0.37974 0.6766 0.09503 0.0
H1420 H 0.9032 0.42579 0.03329 0.0
H1421 H 0.88609 0.37017 0.11614 0.0
H1422 H 0.93213 0.38761 1.00846 0.0
H1423 H 0.91593 0.33237 0.0921 0.0
H1424 H 0.9364 0.2595 0.01685 0.0
H1425 H 0.91513 0.2977 0.0504 0.0
H1426 H 0.97423 0.35976 1.00776 0.0
H1427 H 0.99423 0.32164 0.97329 0.0
C1428 C 0.9061 0.40563 0.04655 0.0
C1429 C 0.89209 0.40109 0.07662 0.0
C1430 C 0.92289 0.38363 0.03238 0.0
C1431 C 0.9265 0.35654 0.04808 0.0
C1432 C 0.91332 0.35253 0.07881 0.0
C1433 C 0.89628 0.37439 0.09276 0.0
C1434 C 0.94554 0.28109 0.01572 0.0
C1435 C 0.96726 0.28753 0.99291 0.0
C1436 C 0.93322 0.30319 0.03478 0.0
C1437 C 0.94249 0.33223 0.03158 0.0
C1438 C 0.96585 0.33799 1.01044 0.0
C1439 C 0.9778 0.31602 0.99111 0.0
H1440 H 0.43653 0.90735 0.53607 0.0
H1441 H 0.38204 0.88547 0.61811 0.0
H1442 H 0.39631 0.93438 0.51126 0.0
H1443 H 0.34226 0.9122 0.59373 0.0
H1444 H 0.26681 0.9245 0.52152 0.0
H1445 H 0.30834 0.90713 0.55276 0.0
H1446 H 0.36212 0.97225 0.50712 0.0
H1447 H 0.32026 0.98828 0.47433 0.0
C1448 C 0.41616 0.90855 0.54907 0.0
C1449 C 0.4126 0.89352 0.57885 0.0
C1450 C 0.39293 0.92422 0.53486 0.0
C1451 C 0.36534 0.92501 0.54979 0.0
C1452 C 0.36255 0.91138 0.58055 0.0
C1453 C 0.38566 0.896 0.59475 0.0
C1454 C 0.28732 0.93562 0.51889 0.0
C1455 C 0.29004 0.95796 0.49576 0.0
C1456 C 0.31138 0.9257 0.53692 0.0
C1457 C 0.33912 0.93806 0.53275 0.0
C1458 C 0.34142 0.96177 0.51093 0.0
C1459 C 0.31722 0.97151 0.49262 0.0
H1460 H 0.70366 0.36963 0.61619 0.0
H1461 H 0.66662 0.42686 0.54332 0.0
H1462 H 0.67718 0.32897 0.5922 0.0
H1463 H 0.64005 0.3863 0.51943 0.0
H1464 H 0.58274 0.31104 0.49029 0.0
H1465 H 0.60188 0.35035 0.52463 0.0
H1466 H 0.67921 0.3 0.5434 0.0
H1467 H 0.66008 0.26122 0.50908 0.0
C1468 C 0.68971 0.37365 0.59521 0.0
C1469 C 0.68753 0.40165 0.58168 0.0
C1470 C 0.67451 0.35023 0.58133 0.0
C1471 C 0.65629 0.3541 0.55375 0.0
C1472 C 0.65339 0.38235 0.54093 0.0
C1473 C 0.66898 0.40567 0.55446 0.0
C1474 C 0.60324 0.30797 0.50295 0.0
C1475 C 0.61952 0.28266 0.49771 0.0
C1476 C 0.61454 0.33072 0.52215 0.0
C1477 C 0.6423 0.32863 0.53683 0.0
C1478 C 0.65767 0.30249 0.53303 0.0
C1479 C 0.64663 0.28007 0.51344 0.0
H1480 H 0.25622 0.57962 0.47754 0.0
H1481 H 0.30464 0.65382 0.51111 0.0
H1482 H 0.2142 0.59569 0.5097 0.0
H1483 H 0.26322 0.66979 0.54297 0.0
H1484 H 0.19296 0.68592 0.6137 0.0
H1485 H 0.23274 0.65891 0.58971 0.0
H1486 H 0.1785 0.63706 0.50674 0.0
H1487 H 0.13816 0.66408 0.53118 0.0
C1488 C 0.25822 0.59877 0.49267 0.0
C1489 C 0.2839 0.61523 0.49222 0.0
C1490 C 0.23401 0.60824 0.51067 0.0
C1491 C 0.23521 0.63409 0.52898 0.0
C1492 C 0.26148 0.64961 0.52963 0.0
C1493 C 0.28534 0.64043 0.51137 0.0
C1494 C 0.18923 0.67504 0.59055 0.0
C1495 C 0.16235 0.67755 0.5742 0.0
C1496 C 0.21218 0.65958 0.57671 0.0
C1497 C 0.20911 0.64616 0.54598 0.0
C1498 C 0.18166 0.64702 0.53051 0.0
C1499 C 0.1585 0.66254 0.5445 0.0
H1500 H 0.90706 0.1442 0.54574 0.0
H1501 H 0.87703 0.20533 0.61802 0.0
H1502 H 0.93398 0.183 0.51848 0.0
H1503 H 0.90408 0.24371 0.59117 0.0
H1504 H 0.91575 0.30823 0.50492 0.0
H1505 H 0.89764 0.27001 0.5404 0.0
H1506 H 0.97419 0.21905 0.52088 0.0
H1507 H 0.99233 0.2578 0.4849 0.0
C1508 C 0.90651 0.16574 0.55615 0.0
C1509 C 0.88949 0.17153 0.58396 0.0
C1510 C 0.92212 0.18801 0.54059 0.0
C1511 C 0.92107 0.21667 0.55238 0.0
C1512 C 0.90506 0.22209 0.58099 0.0
C1513 C 0.88955 0.19993 0.5965 0.0
C1514 C 0.92916 0.28925 0.50898 0.0
C1515 C 0.95566 0.28623 0.49247 0.0
C1516 C 0.91875 0.26722 0.52934 0.0
C1517 C 0.93433 0.24124 0.53355 0.0
C1518 C 0.9615 0.23865 0.51805 0.0
C1519 C 0.97215 0.26102 0.49788 0.0
H1520 H 0.87669 0.22008 0.95386 0.0
H1521 H 0.9355 0.14993 0.97662 0.0
H1522 H 0.83735 0.19388 0.98033 0.0
H1523 H 0.89598 0.12329 1.00207 0.0
H1524 H 0.83069 0.10408 0.08403 0.0
H1525 H 0.86854 0.12407 0.04988 0.0
H1526 H 0.80378 0.15429 0.98072 0.0
H1527 H 0.76543 0.13468 0.01616 0.0
C1528 C 0.88129 0.19899 0.96438 0.0
C1529 C 0.9096 0.18744 0.96349 0.0
C1530 C 0.8585 0.18373 0.97928 0.0
C1531 C 0.8632 0.15634 0.99367 0.0
C1532 C 0.8914 0.14451 0.99195 0.0
C1533 C 0.91421 0.15983 0.97723 0.0
C1534 C 0.82449 0.1144 0.06113 0.0
C1535 C 0.795 0.11767 0.0528 0.0
C1536 C 0.84633 0.12588 0.04134 0.0
C1537 C 0.83954 0.14115 1.01239 0.0
C1538 C 0.80998 0.1431 1.00305 0.0
C1539 C 0.78794 0.13142 0.02302 0.0
H1540 H 0.40251 0.92867 0.98789 0.0
H1541 H 0.38638 0.87556 0.90268 0.0
H1542 H 0.4285 0.88844 0.01391 0.0
H1543 H 0.41238 0.83549 0.92867 0.0
H1544 H 0.42171 0.76239 1.0082 0.0
H1545 H 0.40372 0.80238 0.97474 0.0
H1546 H 0.47245 0.85692 1.01186 0.0
H1547 H 0.49062 0.81637 0.0454 0.0
C1548 C 0.40468 0.90855 0.97453 0.0
C1549 C 0.39212 0.90552 0.94315 0.0
C1550 C 0.41982 0.88547 0.98941 0.0
C1551 C 0.42265 0.85857 0.97349 0.0
C1552 C 0.4105 0.85573 0.94187 0.0
C1553 C 0.39561 0.87884 0.92689 0.0
C1554 C 0.43374 0.78256 1.00819 0.0
C1555 C 0.45806 0.78594 0.02887 0.0
C1556 C 0.42328 0.80564 0.98911 0.0
C1557 C 0.43644 0.8331 0.99061 0.0
C1558 C 0.4616 0.83618 1.01024 0.0
C1559 C 0.4724 0.8128 0.029 0.0
H1560 H 0.75948 0.48462 0.03414 0.0
H1561 H 0.80726 0.40631 0.01481 0.0
H1562 H 0.72018 0.46766 0.998 0.0
H1563 H 0.76839 0.38936 0.97895 0.0
H1564 H 0.69872 0.36997 0.90306 0.0
H1565 H 0.73996 0.39487 0.92843 0.0
H1566 H 0.68344 0.42912 1.00291 0.0
H1567 H 0.64234 0.40444 0.9776 0.0
C1568 C 0.76209 0.46432 0.02122 0.0
C1569 C 0.78667 0.44699 0.02707 0.0
C1570 C 0.73936 0.45433 1.0009 0.0
C1571 C 0.74086 0.42693 0.98564 0.0
C1572 C 0.7664 0.41061 0.98989 0.0
C1573 C 0.7888 0.42038 1.01048 0.0
C1574 C 0.69499 0.38306 0.92463 0.0
C1575 C 0.66706 0.38495 0.93829 0.0
C1576 C 0.71873 0.3973 0.93931 0.0
C1577 C 0.7152 0.41412 0.96785 0.0
C1578 C 0.68708 0.41675 0.98078 0.0
C1579 C 0.66345 0.40232 0.96634 0.0
H1580 H 0.1339 0.81197 0.99322 0.0
H1581 H 0.08082 0.75303 0.04846 0.0
H1582 H 0.15325 0.77185 0.96176 0.0
H1583 H 0.10039 0.71226 0.01726 0.0
H1584 H 0.17437 0.64731 0.99223 0.0
H1585 H 0.14447 0.68584 0.01533 0.0
H1586 H 0.1511 0.73376 0.92456 0.0
H1587 H 0.18191 0.6959 0.90222 0.0
C1588 C 0.12531 0.79046 0.9975 0.0
C1589 C 0.10512 0.78586 0.02261 0.0
C1590 C 0.13679 0.76717 0.97977 0.0
C1591 C 0.12907 0.73834 0.98722 0.0
C1592 C 0.10742 0.73395 1.01107 0.0
C1593 C 0.09557 0.75742 0.02848 0.0
C1594 C 0.16917 0.66594 0.9771 0.0
C1595 C 0.18077 0.66846 0.9454 0.0
C1596 C 0.15177 0.68808 0.99028 0.0
C1597 C 0.14517 0.71329 0.97201 0.0
C1598 C 0.15595 0.71514 0.9398 0.0
C1599 C 0.17364 0.69325 0.92686 0.0
loop_
_geom_bond_atom_site_label_1
_geom_bond_atom_site_label_2
_geom_bond_distance
_geom_bond_site_symmetry_2
_ccdc_geom_bond_type
Tb0 C9 2.764 . S
Tb0 O10 2.325 . S
Tb0 O13 2.303 . S
Tb0 O17 2.322 . S
Tb0 O18 2.349 . S
Tb0 O21 2.415 . S
Tb0 O22 2.399 . S
Tb1 O11 2.322 . S
Tb1 O12 2.349 . S
Tb1 O14 2.415 . S
Tb1 O15 2.399 . S
Tb1 O16 2.325 . S
Tb1 O19 2.303 . S
Tb1 C30 2.764 . S
C2 O18 1.261 . S
C2 O19 1.257 . S
C3 C6 1.358 . S
C3 C7 1.332 . S
C3 C9 1.504 . S
C4 C5 1.373 . S
C4 C8 1.308 . S
C5 C4 1.373 . S
C5 C6 1.429 . S
C5 H32 0.932 . S
C6 C3 1.358 . S
C6 C5 1.429 . S
C6 H33 0.930 . S
C7 C3 1.332 . S
C7 C8 1.394 . S
C7 H34 0.932 . S
C8 C4 1.308 . S
C8 C7 1.394 . S
C8 H35 0.929 . S
C9 Tb0 2.764 . S
C9 C3 1.504 . S
C9 O21 1.239 . S
C9 O22 1.263 . S
O10 Tb0 2.325 . S
O10 C20 1.236 . S
O11 Tb1 2.322 . S
O11 C20 1.257 . S
O12 Tb1 2.349 . S
O12 C23 1.261 . S
O13 Tb0 2.303 . S
O13 C23 1.257 . S
O14 Tb1 2.415 . S
O14 C30 1.239 . S
O15 Tb1 2.399 . S
O15 C30 1.263 . S
O16 Tb1 2.325 . S
O16 C31 1.236 . S
O17 Tb0 2.322 . S
O17 C31 1.257 . S
O18 Tb0 2.349 . S
O18 C2 1.261 . S
O19 Tb1 2.303 . S
O19 C2 1.257 . S
C20 O10 1.236 . S
C20 O11 1.257 . S
O21 Tb0 2.415 . S
O21 C9 1.239 . S
O22 Tb0 2.399 . S
O22 C9 1.263 . S
C23 O12 1.261 . S
C23 O13 1.257 . S
C24 C27 1.358 . S
C24 C28 1.332 . S
C24 C30 1.504 . S
C25 C26 1.373 . S
C25 C29 1.308 . S
C26 C25 1.373 . S
C26 C27 1.429 . S
C26 H36 0.932 . S
C27 C24 1.358 . S
C27 C26 1.429 . S
C27 H37 0.930 . S
C28 C24 1.332 . S
C28 C29 1.394 . S
C28 H38 0.932 . S
C29 C25 1.308 . S
C29 C28 1.394 . S
C29 H39 0.929 . S
C30 Tb1 2.764 . S
C30 O14 1.239 . S
C30 O15 1.263 . S
C30 C24 1.504 . S
C31 O16 1.236 . S
C31 O17 1.257 . S
H32 C5 0.932 . S
H33 C6 0.930 . S
H34 C7 0.932 . S
H35 C8 0.929 . S
H36 C26 0.932 . S
H37 C27 0.930 . S
H38 C28 0.932 . S
H39 C29 0.929 . S
Tb40 C49 2.764 . S
Tb40 O50 2.325 . S
Tb40 O53 2.303 . S
Tb40 O57 2.322 . S
Tb40 O58 2.349 . S
Tb40 O61 2.415 . S
Tb40 O62 2.399 . S
Tb41 O51 2.322 . S
Tb41 O52 2.349 . S
Tb41 O54 2.415 . S
Tb41 O55 2.399 . S
Tb41 O56 2.325 . S
Tb41 O59 2.303 . S
Tb41 C70 2.764 . S
C42 O58 1.261 . S
C42 O59 1.257 . S
C43 C46 1.358 . S
C43 C47 1.332 . S
C43 C49 1.504 . S
C44 C45 1.373 . S
C44 C48 1.308 . S
C45 C44 1.373 . S
C45 C46 1.429 . S
C45 H72 0.932 . S
C46 C43 1.358 . S
C46 C45 1.429 . S
C46 H73 0.930 . S
C47 C43 1.332 . S
C47 C48 1.394 . S
C47 H74 0.932 . S
C48 C44 1.308 . S
C48 C47 1.394 . S
C48 H75 0.929 . S
C49 Tb40 2.764 . S
C49 C43 1.504 . S
C49 O61 1.239 . S
C49 O62 1.263 . S
O50 Tb40 2.325 . S
O50 C60 1.236 . S
O51 Tb41 2.322 . S
O51 C60 1.257 . S
O52 Tb41 2.349 . S
O52 C63 1.261 . S
O53 Tb40 2.303 . S
O53 C63 1.257 . S
O54 Tb41 2.415 . S
O54 C70 1.239 . S
O55 Tb41 2.399 . S
O55 C70 1.263 . S
O56 Tb41 2.325 . S
O56 C71 1.236 . S
O57 Tb40 2.322 . S
O57 C71 1.257 . S
O58 Tb40 2.349 . S
O58 C42 1.261 . S
O59 Tb41 2.303 . S
O59 C42 1.257 . S
C60 O50 1.236 . S
C60 O51 1.257 . S
O61 Tb40 2.415 . S
O61 C49 1.239 . S
O62 Tb40 2.399 . S
O62 C49 1.263 . S
C63 O52 1.261 . S
C63 O53 1.257 . S
C64 C67 1.358 . S
C64 C68 1.332 . S
C64 C70 1.504 . S
C65 C66 1.373 . S
C65 C69 1.308 . S
C66 C65 1.373 . S
C66 C67 1.429 . S
C66 H76 0.932 . S
C67 C64 1.358 . S
C67 C66 1.429 . S
C67 H77 0.930 . S
C68 C64 1.332 . S
C68 C69 1.394 . S
C68 H78 0.932 . S
C69 C65 1.308 . S
C69 C68 1.394 . S
C69 H79 0.929 . S
C70 Tb41 2.764 . S
C70 O54 1.239 . S
C70 O55 1.263 . S
C70 C64 1.504 . S
C71 O56 1.236 . S
C71 O57 1.257 . S
H72 C45 0.932 . S
H73 C46 0.930 . S
H74 C47 0.932 . S
H75 C48 0.929 . S
H76 C66 0.932 . S
H77 C67 0.930 . S
H78 C68 0.932 . S
H79 C69 0.929 . S
Tb80 C89 2.764 1_655 S
Tb80 O90 2.325 1_655 S
Tb80 O93 2.303 . S
Tb80 O97 2.322 . S
Tb80 O98 2.349 . S
Tb80 O101 2.415 1_655 S
Tb80 O102 2.399 1_655 S
Tb81 O91 2.322 . S
Tb81 O92 2.349 . S
Tb81 O94 2.415 . S
Tb81 O95 2.399 . S
Tb81 O96 2.325 . S
Tb81 O99 2.303 . S
Tb81 C110 2.764 . S
C82 O98 1.261 . S
C82 O99 1.257 . S
C83 C86 1.358 . S
C83 C87 1.332 . S
C83 C89 1.504 . S
C84 C85 1.373 . S
C84 C88 1.308 . S
C85 C84 1.373 . S
C85 C86 1.429 . S
C85 H112 0.932 . S
C86 C83 1.358 . S
C86 C85 1.429 . S
C86 H113 0.930 . S
C87 C83 1.332 . S
C87 C88 1.394 . S
C87 H114 0.932 . S
C88 C84 1.308 . S
C88 C87 1.394 . S
C88 H115 0.929 . S
C89 Tb80 2.764 1_455 S
C89 C83 1.504 . S
C89 O101 1.239 . S
C89 O102 1.263 . S
O90 Tb80 2.325 1_455 S
O90 C100 1.236 1_455 S
O91 Tb81 2.322 . S
O91 C100 1.257 . S
O92 Tb81 2.349 . S
O92 C103 1.261 . S
O93 Tb80 2.303 . S
O93 C103 1.257 . S
O94 Tb81 2.415 . S
O94 C110 1.239 . S
O95 Tb81 2.399 . S
O95 C110 1.263 . S
O96 Tb81 2.325 . S
O96 C111 1.236 . S
O97 Tb80 2.322 . S
O97 C111 1.257 . S
O98 Tb80 2.349 . S
O98 C82 1.261 . S
O99 Tb81 2.303 . S
O99 C82 1.257 . S
C100 O90 1.236 1_655 S
C100 O91 1.257 . S
O101 Tb80 2.415 1_455 S
O101 C89 1.239 . S
O102 Tb80 2.399 1_455 S
O102 C89 1.263 . S
C103 O92 1.261 . S
C103 O93 1.257 . S
C104 C107 1.358 . S
C104 C108 1.332 . S
C104 C110 1.504 . S
C105 C106 1.373 . S
C105 C109 1.308 . S
C106 C105 1.373 . S
C106 C107 1.429 . S
C106 H116 0.932 . S
C107 C104 1.358 . S
C107 C106 1.429 . S
C107 H117 0.930 . S
C108 C104 1.332 . S
C108 C109 1.394 . S
C108 H118 0.932 . S
C109 C105 1.308 . S
C109 C108 1.394 . S
C109 H119 0.929 . S
C110 Tb81 2.764 . S
C110 O94 1.239 . S
C110 O95 1.263 . S
C110 C104 1.504 . S
C111 O96 1.236 . S
C111 O97 1.257 . S
H112 C85 0.932 . S
H113 C86 0.930 . S
H114 C87 0.932 . S
H115 C88 0.929 . S
H116 C106 0.932 . S
H117 C107 0.930 . S
H118 C108 0.932 . S
H119 C109 0.929 . S
Tb120 C129 2.764 1_565 S
Tb120 O130 2.325 1_565 S
Tb120 O133 2.303 . S
Tb120 O137 2.322 . S
Tb120 O138 2.349 . S
Tb120 O141 2.415 1_565 S
Tb120 O142 2.399 1_565 S
Tb121 O131 2.322 . S
Tb121 O132 2.349 . S
Tb121 O134 2.415 . S
Tb121 O135 2.399 . S
Tb121 O136 2.325 . S
Tb121 O139 2.303 . S
Tb121 C150 2.764 . S
C122 O138 1.261 . S
C122 O139 1.257 . S
C123 C126 1.358 . S
C123 C127 1.332 . S
C123 C129 1.504 . S
C124 C125 1.373 . S
C124 C128 1.308 . S
C125 C124 1.373 . S
C125 C126 1.429 . S
C125 H152 0.932 . S
C126 C123 1.358 . S
C126 C125 1.429 . S
C126 H153 0.930 . S
C127 C123 1.332 . S
C127 C128 1.394 . S
C127 H154 0.932 . S
C128 C124 1.308 . S
C128 C127 1.394 . S
C128 H155 0.929 . S
C129 Tb120 2.764 1_545 S
C129 C123 1.504 . S
C129 O141 1.239 . S
C129 O142 1.263 . S
O130 Tb120 2.325 1_545 S
O130 C140 1.236 1_545 S
O131 Tb121 2.322 . S
O131 C140 1.257 . S
O132 Tb121 2.349 . S
O132 C143 1.261 . S
O133 Tb120 2.303 . S
O133 C143 1.257 . S
O134 Tb121 2.415 . S
O134 C150 1.239 . S
O135 Tb121 2.399 . S
O135 C150 1.263 . S
O136 Tb121 2.325 . S
O136 C151 1.236 . S
O137 Tb120 2.322 . S
O137 C151 1.257 . S
O138 Tb120 2.349 . S
O138 C122 1.261 . S
O139 Tb121 2.303 . S
O139 C122 1.257 . S
C140 O130 1.236 1_565 S
C140 O131 1.257 . S
O141 Tb120 2.415 1_545 S
O141 C129 1.239 . S
O142 Tb120 2.399 1_545 S
O142 C129 1.263 . S
C143 O132 1.261 . S
C143 O133 1.257 . S
C144 C147 1.358 . S
C144 C148 1.332 . S
C144 C150 1.504 . S
C145 C146 1.373 . S
C145 C149 1.308 . S
C146 C145 1.373 . S
C146 C147 1.429 . S
C146 H156 0.932 . S
C147 C144 1.358 . S
C147 C146 1.429 . S
C147 H157 0.930 . S
C148 C144 1.332 . S
C148 C149 1.394 . S
C148 H158 0.932 . S
C149 C145 1.308 . S
C149 C148 1.394 . S
C149 H159 0.929 . S
C150 Tb121 2.764 . S
C150 O134 1.239 . S
C150 O135 1.263 . S
C150 C144 1.504 . S
C151 O136 1.236 . S
C151 O137 1.257 . S
H152 C125 0.932 . S
H153 C126 0.930 . S
H154 C127 0.932 . S
H155 C128 0.929 . S
H156 C146 0.932 . S
H157 C147 0.930 . S
H158 C148 0.932 . S
H159 C149 0.929 . S
Tb160 C169 2.764 1_455 S
Tb160 O170 2.325 1_455 S
Tb160 O173 2.303 . S
Tb160 O177 2.322 . S
Tb160 O178 2.349 . S
Tb160 O181 2.415 1_455 S
Tb160 O182 2.399 1_455 S
Tb161 O171 2.322 . S
Tb161 O172 2.349 . S
Tb161 O174 2.415 . S
Tb161 O175 2.399 . S
Tb161 O176 2.325 . S
Tb161 O179 2.303 . S
Tb161 C190 2.764 . S
C162 O178 1.261 . S
C162 O179 1.257 . S
C163 C166 1.358 . S
C163 C167 1.332 . S
C163 C169 1.504 . S
C164 C165 1.373 . S
C164 C168 1.308 . S
C165 C164 1.373 . S
C165 C166 1.429 . S
C165 H192 0.932 . S
C166 C163 1.358 . S
C166 C165 1.429 . S
C166 H193 0.930 . S
C167 C163 1.332 . S
C167 C168 1.394 . S
C167 H194 0.932 . S
C168 C164 1.308 . S
C168 C167 1.394 . S
C168 H195 0.929 . S
C169 Tb160 2.764 1_655 S
C169 C163 1.504 . S
C169 O181 1.239 . S
C169 O182 1.263 . S
O170 Tb160 2.325 1_655 S
O170 C180 1.236 1_655 S
O171 Tb161 2.322 . S
O171 C180 1.257 . S
O172 Tb161 2.349 . S
O172 C183 1.261 . S
O173 Tb160 2.303 . S
O173 C183 1.257 . S
O174 Tb161 2.415 . S
O174 C190 1.239 . S
O175 Tb161 2.399 . S
O175 C190 1.263 . S
O176 Tb161 2.325 . S
O176 C191 1.236 . S
O177 Tb160 2.322 . S
O177 C191 1.257 . S
O178 Tb160 2.349 . S
O178 C162 1.261 . S
O179 Tb161 2.303 . S
O179 C162 1.257 . S
C180 O170 1.236 1_455 S
C180 O171 1.257 . S
O181 Tb160 2.415 1_655 S
O181 C169 1.239 . S
O182 Tb160 2.399 1_655 S
O182 C169 1.263 . S
C183 O172 1.261 . S
C183 O173 1.257 . S
C184 C187 1.358 . S
C184 C188 1.332 . S
C184 C190 1.504 . S
C185 C186 1.373 . S
C185 C189 1.308 . S
C186 C185 1.373 . S
C186 C187 1.429 . S
C186 H196 0.932 . S
C187 C184 1.358 . S
C187 C186 1.429 . S
C187 H197 0.930 . S
C188 C184 1.332 . S
C188 C189 1.394 . S
C188 H198 0.932 . S
C189 C185 1.308 . S
C189 C188 1.394 . S
C189 H199 0.929 . S
C190 Tb161 2.764 . S
C190 O174 1.239 . S
C190 O175 1.263 . S
C190 C184 1.504 . S
C191 O176 1.236 . S
C191 O177 1.257 . S
H192 C165 0.932 . S
H193 C166 0.930 . S
H194 C167 0.932 . S
H195 C168 0.929 . S
H196 C186 0.932 . S
H197 C187 0.930 . S
H198 C188 0.932 . S
H199 C189 0.929 . S
Tb200 C209 2.764 1_545 S
Tb200 O210 2.325 1_545 S
Tb200 O213 2.303 . S
Tb200 O217 2.322 . S
Tb200 O218 2.349 . S
Tb200 O221 2.415 1_545 S
Tb200 O222 2.399 1_545 S
Tb201 O211 2.322 . S
Tb201 O212 2.349 . S
Tb201 O214 2.415 . S
Tb201 O215 2.399 . S
Tb201 O216 2.325 . S
Tb201 O219 2.303 . S
Tb201 C230 2.764 . S
C202 O218 1.261 . S
C202 O219 1.257 . S
C203 C206 1.358 . S
C203 C207 1.332 . S
C203 C209 1.504 . S
C204 C205 1.373 . S
C204 C208 1.308 . S
C205 C204 1.373 . S
C205 C206 1.429 . S
C205 H232 0.932 . S
C206 C203 1.358 . S
C206 C205 1.429 . S
C206 H233 0.930 . S
C207 C203 1.332 . S
C207 C208 1.394 . S
C207 H234 0.932 . S
C208 C204 1.308 . S
C208 C207 1.394 . S
C208 H235 0.929 . S
C209 Tb200 2.764 1_565 S
C209 C203 1.504 . S
C209 O221 1.239 . S
C209 O222 1.263 . S
O210 Tb200 2.325 1_565 S
O210 C220 1.236 1_565 S
O211 Tb201 2.322 . S
O211 C220 1.257 . S
O212 Tb201 2.349 . S
O212 C223 1.261 . S
O213 Tb200 2.303 . S
O213 C223 1.257 . S
O214 Tb201 2.415 . S
O214 C230 1.239 . S
O215 Tb201 2.399 . S
O215 C230 1.263 . S
O216 Tb201 2.325 . S
O216 C231 1.236 . S
O217 Tb200 2.322 . S
O217 C231 1.257 . S
O218 Tb200 2.349 . S
O218 C202 1.261 . S
O219 Tb201 2.303 . S
O219 C202 1.257 . S
C220 O210 1.236 1_545 S
C220 O211 1.257 . S
O221 Tb200 2.415 1_565 S
O221 C209 1.239 . S
O222 Tb200 2.399 1_565 S
O222 C209 1.263 . S
C223 O212 1.261 . S
C223 O213 1.257 . S
C224 C227 1.358 . S
C224 C228 1.332 . S
C224 C230 1.504 . S
C225 C226 1.373 . S
C225 C229 1.308 . S
C226 C225 1.373 . S
C226 C227 1.429 . S
C226 H236 0.932 . S
C227 C224 1.358 . S
C227 C226 1.429 . S
C227 H237 0.930 . S
C228 C224 1.332 . S
C228 C229 1.394 . S
C228 H238 0.932 . S
C229 C225 1.308 . S
C229 C228 1.394 . S
C229 H239 0.929 . S
C230 Tb201 2.764 . S
C230 O214 1.239 . S
C230 O215 1.263 . S
C230 C224 1.504 . S
C231 O216 1.236 . S
C231 O217 1.257 . S
H232 C205 0.932 . S
H233 C206 0.930 . S
H234 C207 0.932 . S
H235 C208 0.929 . S
H236 C226 0.932 . S
H237 C227 0.930 . S
H238 C228 0.932 . S
H239 C229 0.929 . S
Tb240 C249 2.764 . S
Tb240 O250 2.325 . S
Tb240 O253 2.303 . S
Tb240 O257 2.322 . S
Tb240 O258 2.349 . S
Tb240 O261 2.415 . S
Tb240 O262 2.399 . S
Tb241 O251 2.322 . S
Tb241 O252 2.349 . S
Tb241 O254 2.415 . S
Tb241 O255 2.399 . S
Tb241 O256 2.325 . S
Tb241 O259 2.303 . S
Tb241 C270 2.764 . S
C242 O258 1.261 . S
C242 O259 1.257 . S
C243 C246 1.358 . S
C243 C247 1.332 . S
C243 C249 1.504 . S
C244 C245 1.373 . S
C244 C248 1.308 . S
C245 C244 1.373 . S
C245 C246 1.429 . S
C245 H272 0.932 . S
C246 C243 1.358 . S
C246 C245 1.429 . S
C246 H273 0.930 . S
C247 C243 1.332 . S
C247 C248 1.394 . S
C247 H274 0.932 . S
C248 C244 1.308 . S
C248 C247 1.394 . S
C248 H275 0.929 . S
C249 Tb240 2.764 . S
C249 C243 1.504 . S
C249 O261 1.239 . S
C249 O262 1.263 . S
O250 Tb240 2.325 . S
O250 C260 1.236 . S
O251 Tb241 2.322 . S
O251 C260 1.257 . S
O252 Tb241 2.349 . S
O252 C263 1.261 . S
O253 Tb240 2.303 . S
O253 C263 1.257 . S
O254 Tb241 2.415 . S
O254 C270 1.239 . S
O255 Tb241 2.399 . S
O255 C270 1.263 . S
O256 Tb241 2.325 . S
O256 C271 1.236 . S
O257 Tb240 2.322 . S
O257 C271 1.257 . S
O258 Tb240 2.349 . S
O258 C242 1.261 . S
O259 Tb241 2.303 . S
O259 C242 1.257 . S
C260 O250 1.236 . S
C260 O251 1.257 . S
O261 Tb240 2.415 . S
O261 C249 1.239 . S
O262 Tb240 2.399 . S
O262 C249 1.263 . S
C263 O252 1.261 . S
C263 O253 1.257 . S
C264 C267 1.358 . S
C264 C268 1.332 . S
C264 C270 1.504 . S
C265 C266 1.373 . S
C265 C269 1.308 . S
C266 C265 1.373 . S
C266 C267 1.429 . S
C266 H276 0.932 . S
C267 C264 1.358 . S
C267 C266 1.429 . S
C267 H277 0.930 . S
C268 C264 1.332 . S
C268 C269 1.394 . S
C268 H278 0.932 . S
C269 C265 1.308 . S
C269 C268 1.394 . S
C269 H279 0.929 . S
C270 Tb241 2.764 . S
C270 O254 1.239 . S
C270 O255 1.263 . S
C270 C264 1.504 . S
C271 O256 1.236 . S
C271 O257 1.257 . S
H272 C245 0.932 . S
H273 C246 0.930 . S
H274 C247 0.932 . S
H275 C248 0.929 . S
H276 C266 0.932 . S
H277 C267 0.930 . S
H278 C268 0.932 . S
H279 C269 0.929 . S
Tb280 C289 2.764 . S
Tb280 O290 2.325 . S
Tb280 O293 2.303 . S
Tb280 O297 2.322 . S
Tb280 O298 2.349 . S
Tb280 O301 2.415 . S
Tb280 O302 2.399 . S
Tb281 O291 2.322 . S
Tb281 O292 2.349 . S
Tb281 O294 2.415 . S
Tb281 O295 2.399 . S
Tb281 O296 2.325 . S
Tb281 O299 2.303 . S
Tb281 C310 2.764 . S
C282 O298 1.261 . S
C282 O299 1.257 . S
C283 C286 1.358 . S
C283 C287 1.332 . S
C283 C289 1.504 . S
C284 C285 1.373 . S
C284 C288 1.308 . S
C285 C284 1.373 . S
C285 C286 1.429 . S
C285 H312 0.932 . S
C286 C283 1.358 . S
C286 C285 1.429 . S
C286 H313 0.930 . S
C287 C283 1.332 . S
C287 C288 1.394 . S
C287 H314 0.932 . S
C288 C284 1.308 . S
C288 C287 1.394 . S
C288 H315 0.929 . S
C289 Tb280 2.764 . S
C289 C283 1.504 . S
C289 O301 1.239 . S
C289 O302 1.263 . S
O290 Tb280 2.325 . S
O290 C300 1.236 . S
O291 Tb281 2.322 . S
O291 C300 1.257 . S
O292 Tb281 2.349 . S
O292 C303 1.261 . S
O293 Tb280 2.303 . S
O293 C303 1.257 . S
O294 Tb281 2.415 . S
O294 C310 1.239 . S
O295 Tb281 2.399 . S
O295 C310 1.263 . S
O296 Tb281 2.325 . S
O296 C311 1.236 . S
O297 Tb280 2.322 . S
O297 C311 1.257 . S
O298 Tb280 2.349 . S
O298 C282 1.261 . S
O299 Tb281 2.303 . S
O299 C282 1.257 . S
C300 O290 1.236 . S
C300 O291 1.257 . S
O301 Tb280 2.415 . S
O301 C289 1.239 . S
O302 Tb280 2.399 . S
O302 C289 1.263 . S
C303 O292 1.261 . S
C303 O293 1.257 . S
C304 C307 1.358 . S
C304 C308 1.332 . S
C304 C310 1.504 . S
C305 C306 1.373 . S
C305 C309 1.308 . S
C306 C305 1.373 . S
C306 C307 1.429 . S
C306 H316 0.932 . S
C307 C304 1.358 . S
C307 C306 1.429 . S
C307 H317 0.930 . S
C308 C304 1.332 . S
C308 C309 1.394 . S
C308 H318 0.932 . S
C309 C305 1.308 . S
C309 C308 1.394 . S
C309 H319 0.929 . S
C310 Tb281 2.764 . S
C310 O294 1.239 . S
C310 O295 1.263 . S
C310 C304 1.504 . S
C311 O296 1.236 . S
C311 O297 1.257 . S
H312 C285 0.932 . S
H313 C286 0.930 . S
H314 C287 0.932 . S
H315 C288 0.929 . S
H316 C306 0.932 . S
H317 C307 0.930 . S
H318 C308 0.932 . S
H319 C309 0.929 . S
Tb320 C329 2.764 . S
Tb320 O330 2.325 . S
Tb320 O333 2.303 . S
Tb320 O337 2.322 . S
Tb320 O338 2.349 . S
Tb320 O341 2.415 . S
Tb320 O342 2.399 . S
Tb321 O331 2.322 . S
Tb321 O332 2.349 . S
Tb321 O334 2.415 . S
Tb321 O335 2.399 . S
Tb321 O336 2.325 . S
Tb321 O339 2.303 . S
Tb321 C350 2.764 . S
C322 O338 1.261 . S
C322 O339 1.257 . S
C323 C326 1.358 . S
C323 C327 1.332 . S
C323 C329 1.504 . S
C324 C325 1.373 . S
C324 C328 1.308 . S
C325 C324 1.373 . S
C325 C326 1.429 . S
C325 H352 0.932 . S
C326 C323 1.358 . S
C326 C325 1.429 . S
C326 H353 0.930 . S
C327 C323 1.332 . S
C327 C328 1.394 . S
C327 H354 0.932 . S
C328 C324 1.308 . S
C328 C327 1.394 . S
C328 H355 0.929 . S
C329 Tb320 2.764 . S
C329 C323 1.504 . S
C329 O341 1.239 . S
C329 O342 1.263 . S
O330 Tb320 2.325 . S
O330 C340 1.236 . S
O331 Tb321 2.322 . S
O331 C340 1.257 . S
O332 Tb321 2.349 . S
O332 C343 1.261 . S
O333 Tb320 2.303 . S
O333 C343 1.257 . S
O334 Tb321 2.415 . S
O334 C350 1.239 . S
O335 Tb321 2.399 . S
O335 C350 1.263 . S
O336 Tb321 2.325 . S
O336 C351 1.236 . S
O337 Tb320 2.322 . S
O337 C351 1.257 . S
O338 Tb320 2.349 . S
O338 C322 1.261 . S
O339 Tb321 2.303 . S
O339 C322 1.257 . S
C340 O330 1.236 . S
C340 O331 1.257 . S
O341 Tb320 2.415 . S
O341 C329 1.239 . S
O342 Tb320 2.399 . S
O342 C329 1.263 . S
C343 O332 1.261 . S
C343 O333 1.257 . S
C344 C347 1.358 . S
C344 C348 1.332 . S
C344 C350 1.504 . S
C345 C346 1.373 . S
C345 C349 1.308 . S
C346 C345 1.373 . S
C346 C347 1.429 . S
C346 H356 0.932 . S
C347 C344 1.358 . S
C347 C346 1.429 . S
C347 H357 0.930 . S
C348 C344 1.332 . S
C348 C349 1.394 . S
C348 H358 0.932 . S
C349 C345 1.308 . S
C349 C348 1.394 . S
C349 H359 0.929 . S
C350 Tb321 2.764 . S
C350 O334 1.239 . S
C350 O335 1.263 . S
C350 C344 1.504 . S
C351 O336 1.236 . S
C351 O337 1.257 . S
H352 C325 0.932 . S
H353 C326 0.930 . S
H354 C327 0.932 . S
H355 C328 0.929 . S
H356 C346 0.932 . S
H357 C347 0.930 . S
H358 C348 0.932 . S
H359 C349 0.929 . S
Tb360 C369 2.764 . S
Tb360 O370 2.325 . S
Tb360 O373 2.303 . S
Tb360 O377 2.322 . S
Tb360 O378 2.349 . S
Tb360 O381 2.415 . S
Tb360 O382 2.399 . S
Tb361 O371 2.322 . S
Tb361 O372 2.349 . S
Tb361 O374 2.415 . S
Tb361 O375 2.399 . S
Tb361 O376 2.325 . S
Tb361 O379 2.303 . S
Tb361 C390 2.764 . S
C362 O378 1.261 . S
C362 O379 1.257 . S
C363 C366 1.358 . S
C363 C367 1.332 . S
C363 C369 1.504 . S
C364 C365 1.373 . S
C364 C368 1.308 . S
C365 C364 1.373 . S
C365 C366 1.429 . S
C365 H392 0.932 . S
C366 C363 1.358 . S
C366 C365 1.429 . S
C366 H393 0.930 . S
C367 C363 1.332 . S
C367 C368 1.394 . S
C367 H394 0.932 . S
C368 C364 1.308 . S
C368 C367 1.394 . S
C368 H395 0.929 . S
C369 Tb360 2.764 . S
C369 C363 1.504 . S
C369 O381 1.239 . S
C369 O382 1.263 . S
O370 Tb360 2.325 . S
O370 C380 1.236 . S
O371 Tb361 2.322 . S
O371 C380 1.257 . S
O372 Tb361 2.349 . S
O372 C383 1.261 . S
O373 Tb360 2.303 . S
O373 C383 1.257 . S
O374 Tb361 2.415 . S
O374 C390 1.239 . S
O375 Tb361 2.399 . S
O375 C390 1.263 . S
O376 Tb361 2.325 . S
O376 C391 1.236 . S
O377 Tb360 2.322 . S
O377 C391 1.257 . S
O378 Tb360 2.349 . S
O378 C362 1.261 . S
O379 Tb361 2.303 . S
O379 C362 1.257 . S
C380 O370 1.236 . S
C380 O371 1.257 . S
O381 Tb360 2.415 . S
O381 C369 1.239 . S
O382 Tb360 2.399 . S
O382 C369 1.263 . S
C383 O372 1.261 . S
C383 O373 1.257 . S
C384 C387 1.358 . S
C384 C388 1.332 . S
C384 C390 1.504 . S
C385 C386 1.373 . S
C385 C389 1.308 . S
C386 C385 1.373 . S
C386 C387 1.429 . S
C386 H396 0.932 . S
C387 C384 1.358 . S
C387 C386 1.429 . S
C387 H397 0.930 . S
C388 C384 1.332 . S
C388 C389 1.394 . S
C388 H398 0.932 . S
C389 C385 1.308 . S
C389 C388 1.394 . S
C389 H399 0.929 . S
C390 Tb361 2.764 . S
C390 O374 1.239 . S
C390 O375 1.263 . S
C390 C384 1.504 . S
C391 O376 1.236 . S
C391 O377 1.257 . S
H392 C365 0.932 . S
H393 C366 0.930 . S
H394 C367 0.932 . S
H395 C368 0.929 . S
H396 C386 0.932 . S
H397 C387 0.930 . S
H398 C388 0.932 . S
H399 C389 0.929 . S
Tb400 C409 2.764 . S
Tb400 O410 2.325 . S
Tb400 O413 2.303 . S
Tb400 O417 2.322 . S
Tb400 O418 2.349 . S
Tb400 O421 2.415 . S
Tb400 O422 2.399 . S
Tb401 O411 2.322 . S
Tb401 O412 2.349 . S
Tb401 O414 2.415 1_455 S
Tb401 O415 2.399 1_455 S
Tb401 O416 2.325 1_455 S
Tb401 O419 2.303 . S
Tb401 C430 2.764 1_455 S
C402 O418 1.261 . S
C402 O419 1.257 . S
C403 C406 1.358 . S
C403 C407 1.332 . S
C403 C409 1.504 . S
C404 C405 1.373 . S
C404 C408 1.308 . S
C405 C404 1.373 . S
C405 C406 1.429 . S
C405 H432 0.932 . S
C406 C403 1.358 . S
C406 C405 1.429 . S
C406 H433 0.930 . S
C407 C403 1.332 . S
C407 C408 1.394 . S
C407 H434 0.932 . S
C408 C404 1.308 . S
C408 C407 1.394 . S
C408 H435 0.929 . S
C409 Tb400 2.764 . S
C409 C403 1.504 . S
C409 O421 1.239 . S
C409 O422 1.263 . S
O410 Tb400 2.325 . S
O410 C420 1.236 . S
O411 Tb401 2.322 . S
O411 C420 1.257 . S
O412 Tb401 2.349 . S
O412 C423 1.261 . S
O413 Tb400 2.303 . S
O413 C423 1.257 . S
O414 Tb401 2.415 1_655 S
O414 C430 1.239 . S
O415 Tb401 2.399 1_655 S
O415 C430 1.263 . S
O416 Tb401 2.325 1_655 S
O416 C431 1.236 1_655 S
O417 Tb400 2.322 . S
O417 C431 1.257 . S
O418 Tb400 2.349 . S
O418 C402 1.261 . S
O419 Tb401 2.303 . S
O419 C402 1.257 . S
C420 O410 1.236 . S
C420 O411 1.257 . S
O421 Tb400 2.415 . S
O421 C409 1.239 . S
O422 Tb400 2.399 . S
O422 C409 1.263 . S
C423 O412 1.261 . S
C423 O413 1.257 . S
C424 C427 1.358 . S
C424 C428 1.332 . S
C424 C430 1.504 . S
C425 C426 1.373 . S
C425 C429 1.308 . S
C426 C425 1.373 . S
C426 C427 1.429 . S
C426 H436 0.932 . S
C427 C424 1.358 . S
C427 C426 1.429 . S
C427 H437 0.930 . S
C428 C424 1.332 . S
C428 C429 1.394 . S
C428 H438 0.932 . S
C429 C425 1.308 . S
C429 C428 1.394 . S
C429 H439 0.929 . S
C430 Tb401 2.764 1_655 S
C430 O414 1.239 . S
C430 O415 1.263 . S
C430 C424 1.504 . S
C431 O416 1.236 1_455 S
C431 O417 1.257 . S
H432 C405 0.932 . S
H433 C406 0.930 . S
H434 C407 0.932 . S
H435 C408 0.929 . S
H436 C426 0.932 . S
H437 C427 0.930 . S
H438 C428 0.932 . S
H439 C429 0.929 . S
Tb440 C449 2.764 . S
Tb440 O450 2.325 . S
Tb440 O453 2.303 . S
Tb440 O457 2.322 . S
Tb440 O458 2.349 . S
Tb440 O461 2.415 . S
Tb440 O462 2.399 . S
Tb441 O451 2.322 . S
Tb441 O452 2.349 . S
Tb441 O454 2.415 1_545 S
Tb441 O455 2.399 1_545 S
Tb441 O456 2.325 1_545 S
Tb441 O459 2.303 . S
Tb441 C470 2.764 1_545 S
C442 O458 1.261 . S
C442 O459 1.257 . S
C443 C446 1.358 . S
C443 C447 1.332 . S
C443 C449 1.504 . S
C444 C445 1.373 . S
C444 C448 1.308 . S
C445 C444 1.373 . S
C445 C446 1.429 . S
C445 H472 0.932 . S
C446 C443 1.358 . S
C446 C445 1.429 . S
C446 H473 0.930 . S
C447 C443 1.332 . S
C447 C448 1.394 . S
C447 H474 0.932 . S
C448 C444 1.308 . S
C448 C447 1.394 . S
C448 H475 0.929 . S
C449 Tb440 2.764 . S
C449 C443 1.504 . S
C449 O461 1.239 . S
C449 O462 1.263 . S
O450 Tb440 2.325 . S
O450 C460 1.236 . S
O451 Tb441 2.322 . S
O451 C460 1.257 . S
O452 Tb441 2.349 . S
O452 C463 1.261 . S
O453 Tb440 2.303 . S
O453 C463 1.257 . S
O454 Tb441 2.415 1_565 S
O454 C470 1.239 . S
O455 Tb441 2.399 1_565 S
O455 C470 1.263 . S
O456 Tb441 2.325 1_565 S
O456 C471 1.236 1_565 S
O457 Tb440 2.322 . S
O457 C471 1.257 . S
O458 Tb440 2.349 . S
O458 C442 1.261 . S
O459 Tb441 2.303 . S
O459 C442 1.257 . S
C460 O450 1.236 . S
C460 O451 1.257 . S
O461 Tb440 2.415 . S
O461 C449 1.239 . S
O462 Tb440 2.399 . S
O462 C449 1.263 . S
C463 O452 1.261 . S
C463 O453 1.257 . S
C464 C467 1.358 . S
C464 C468 1.332 . S
C464 C470 1.504 . S
C465 C466 1.373 . S
C465 C469 1.308 . S
C466 C465 1.373 . S
C466 C467 1.429 . S
C466 H476 0.932 . S
C467 C464 1.358 . S
C467 C466 1.429 . S
C467 H477 0.930 . S
C468 C464 1.332 . S
C468 C469 1.394 . S
C468 H478 0.932 . S
C469 C465 1.308 . S
C469 C468 1.394 . S
C469 H479 0.929 . S
C470 Tb441 2.764 1_565 S
C470 O454 1.239 . S
C470 O455 1.263 . S
C470 C464 1.504 . S
C471 O456 1.236 1_545 S
C471 O457 1.257 . S
H472 C445 0.932 . S
H473 C446 0.930 . S
H474 C447 0.932 . S
H475 C448 0.929 . S
H476 C466 0.932 . S
H477 C467 0.930 . S
H478 C468 0.932 . S
H479 C469 0.929 . S
Tb480 C489 2.764 . S
Tb480 O490 2.325 . S
Tb480 O493 2.303 . S
Tb480 O497 2.322 . S
Tb480 O498 2.349 . S
Tb480 O501 2.415 . S
Tb480 O502 2.399 . S
Tb481 O491 2.322 . S
Tb481 O492 2.349 . S
Tb481 O494 2.415 1_655 S
Tb481 O495 2.399 1_655 S
Tb481 O496 2.325 1_655 S
Tb481 O499 2.303 . S
Tb481 C510 2.764 1_655 S
C482 O498 1.261 . S
C482 O499 1.257 . S
C483 C486 1.358 . S
C483 C487 1.332 . S
C483 C489 1.504 . S
C484 C485 1.373 . S
C484 C488 1.308 . S
C485 C484 1.373 . S
C485 C486 1.429 . S
C485 H512 0.932 . S
C486 C483 1.358 . S
C486 C485 1.429 . S
C486 H513 0.930 . S
C487 C483 1.332 . S
C487 C488 1.394 . S
C487 H514 0.932 . S
C488 C484 1.308 . S
C488 C487 1.394 . S
C488 H515 0.929 . S
C489 Tb480 2.764 . S
C489 C483 1.504 . S
C489 O501 1.239 . S
C489 O502 1.263 . S
O490 Tb480 2.325 . S
O490 C500 1.236 . S
O491 Tb481 2.322 . S
O491 C500 1.257 . S
O492 Tb481 2.349 . S
O492 C503 1.261 . S
O493 Tb480 2.303 . S
O493 C503 1.257 . S
O494 Tb481 2.415 1_455 S
O494 C510 1.239 . S
O495 Tb481 2.399 1_455 S
O495 C510 1.263 . S
O496 Tb481 2.325 1_455 S
O496 C511 1.236 1_455 S
O497 Tb480 2.322 . S
O497 C511 1.257 . S
O498 Tb480 2.349 . S
O498 C482 1.261 . S
O499 Tb481 2.303 . S
O499 C482 1.257 . S
C500 O490 1.236 . S
C500 O491 1.257 . S
O501 Tb480 2.415 . S
O501 C489 1.239 . S
O502 Tb480 2.399 . S
O502 C489 1.263 . S
C503 O492 1.261 . S
C503 O493 1.257 . S
C504 C507 1.358 . S
C504 C508 1.332 . S
C504 C510 1.504 . S
C505 C506 1.373 . S
C505 C509 1.308 . S
C506 C505 1.373 . S
C506 C507 1.429 . S
C506 H516 0.932 . S
C507 C504 1.358 . S
C507 C506 1.429 . S
C507 H517 0.930 . S
C508 C504 1.332 . S
C508 C509 1.394 . S
C508 H518 0.932 . S
C509 C505 1.308 . S
C509 C508 1.394 . S
C509 H519 0.929 . S
C510 Tb481 2.764 1_455 S
C510 O494 1.239 . S
C510 O495 1.263 . S
C510 C504 1.504 . S
C511 O496 1.236 1_655 S
C511 O497 1.257 . S
H512 C485 0.932 . S
H513 C486 0.930 . S
H514 C487 0.932 . S
H515 C488 0.929 . S
H516 C506 0.932 . S
H517 C507 0.930 . S
H518 C508 0.932 . S
H519 C509 0.929 . S
Tb520 C529 2.764 . S
Tb520 O530 2.325 . S
Tb520 O533 2.303 . S
Tb520 O537 2.322 . S
Tb520 O538 2.349 . S
Tb520 O541 2.415 . S
Tb520 O542 2.399 . S
Tb521 O531 2.322 . S
Tb521 O532 2.349 . S
Tb521 O534 2.415 1_565 S
Tb521 O535 2.399 1_565 S
Tb521 O536 2.325 1_565 S
Tb521 O539 2.303 . S
Tb521 C550 2.764 1_565 S
C522 O538 1.261 . S
C522 O539 1.257 . S
C523 C526 1.358 . S
C523 C527 1.332 . S
C523 C529 1.504 . S
C524 C525 1.373 . S
C524 C528 1.308 . S
C525 C524 1.373 . S
C525 C526 1.429 . S
C525 H552 0.932 . S
C526 C523 1.358 . S
C526 C525 1.429 . S
C526 H553 0.930 . S
C527 C523 1.332 . S
C527 C528 1.394 . S
C527 H554 0.932 . S
C528 C524 1.308 . S
C528 C527 1.394 . S
C528 H555 0.929 . S
C529 Tb520 2.764 . S
C529 C523 1.504 . S
C529 O541 1.239 . S
C529 O542 1.263 . S
O530 Tb520 2.325 . S
O530 C540 1.236 . S
O531 Tb521 2.322 . S
O531 C540 1.257 . S
O532 Tb521 2.349 . S
O532 C543 1.261 . S
O533 Tb520 2.303 . S
O533 C543 1.257 . S
O534 Tb521 2.415 1_545 S
O534 C550 1.239 . S
O535 Tb521 2.399 1_545 S
O535 C550 1.263 . S
O536 Tb521 2.325 1_545 S
O536 C551 1.236 1_545 S
O537 Tb520 2.322 . S
O537 C551 1.257 . S
O538 Tb520 2.349 . S
O538 C522 1.261 . S
O539 Tb521 2.303 . S
O539 C522 1.257 . S
C540 O530 1.236 . S
C540 O531 1.257 . S
O541 Tb520 2.415 . S
O541 C529 1.239 . S
O542 Tb520 2.399 . S
O542 C529 1.263 . S
C543 O532 1.261 . S
C543 O533 1.257 . S
C544 C547 1.358 . S
C544 C548 1.332 . S
C544 C550 1.504 . S
C545 C546 1.373 . S
C545 C549 1.308 . S
C546 C545 1.373 . S
C546 C547 1.429 . S
C546 H556 0.932 . S
C547 C544 1.358 . S
C547 C546 1.429 . S
C547 H557 0.930 . S
C548 C544 1.332 . S
C548 C549 1.394 . S
C548 H558 0.932 . S
C549 C545 1.308 . S
C549 C548 1.394 . S
C549 H559 0.929 . S
C550 Tb521 2.764 1_545 S
C550 O534 1.239 . S
C550 O535 1.263 . S
C550 C544 1.504 . S
C551 O536 1.236 1_565 S
C551 O537 1.257 . S
H552 C525 0.932 . S
H553 C526 0.930 . S
H554 C527 0.932 . S
H555 C528 0.929 . S
H556 C546 0.932 . S
H557 C547 0.930 . S
H558 C548 0.932 . S
H559 C549 0.929 . S
Tb560 C569 2.764 . S
Tb560 O570 2.325 . S
Tb560 O573 2.303 . S
Tb560 O577 2.322 . S
Tb560 O578 2.349 . S
Tb560 O581 2.415 . S
Tb560 O582 2.399 . S
Tb561 O571 2.322 . S
Tb561 O572 2.349 . S
Tb561 O574 2.415 . S
Tb561 O575 2.399 . S
Tb561 O576 2.325 . S
Tb561 O579 2.303 . S
Tb561 C590 2.764 . S
C562 O578 1.261 . S
C562 O579 1.257 . S
C563 C566 1.358 . S
C563 C567 1.332 . S
C563 C569 1.504 . S
C564 C565 1.373 . S
C564 C568 1.308 . S
C565 C564 1.373 . S
C565 C566 1.429 . S
C565 H592 0.932 . S
C566 C563 1.358 . S
C566 C565 1.429 . S
C566 H593 0.930 . S
C567 C563 1.332 . S
C567 C568 1.394 . S
C567 H594 0.932 . S
C568 C564 1.308 . S
C568 C567 1.394 . S
C568 H595 0.929 . S
C569 Tb560 2.764 . S
C569 C563 1.504 . S
C569 O581 1.239 . S
C569 O582 1.263 . S
O570 Tb560 2.325 . S
O570 C580 1.236 . S
O571 Tb561 2.322 . S
O571 C580 1.257 . S
O572 Tb561 2.349 . S
O572 C583 1.261 . S
O573 Tb560 2.303 . S
O573 C583 1.257 . S
O574 Tb561 2.415 . S
O574 C590 1.239 . S
O575 Tb561 2.399 . S
O575 C590 1.263 . S
O576 Tb561 2.325 . S
O576 C591 1.236 . S
O577 Tb560 2.322 . S
O577 C591 1.257 . S
O578 Tb560 2.349 . S
O578 C562 1.261 . S
O579 Tb561 2.303 . S
O579 C562 1.257 . S
C580 O570 1.236 . S
C580 O571 1.257 . S
O581 Tb560 2.415 . S
O581 C569 1.239 . S
O582 Tb560 2.399 . S
O582 C569 1.263 . S
C583 O572 1.261 . S
C583 O573 1.257 . S
C584 C587 1.358 . S
C584 C588 1.332 . S
C584 C590 1.504 . S
C585 C586 1.373 . S
C585 C589 1.308 . S
C586 C585 1.373 . S
C586 C587 1.429 . S
C586 H596 0.932 . S
C587 C584 1.358 . S
C587 C586 1.429 . S
C587 H597 0.930 . S
C588 C584 1.332 . S
C588 C589 1.394 . S
C588 H598 0.932 . S
C589 C585 1.308 . S
C589 C588 1.394 . S
C589 H599 0.929 . S
C590 Tb561 2.764 . S
C590 O574 1.239 . S
C590 O575 1.263 . S
C590 C584 1.504 . S
C591 O576 1.236 . S
C591 O577 1.257 . S
H592 C565 0.932 . S
H593 C566 0.930 . S
H594 C567 0.932 . S
H595 C568 0.929 . S
H596 C586 0.932 . S
H597 C587 0.930 . S
H598 C588 0.932 . S
H599 C589 0.929 . S
Tb600 C609 2.764 . S
Tb600 O610 2.325 . S
Tb600 O613 2.303 . S
Tb600 O617 2.322 . S
Tb600 O618 2.349 . S
Tb600 O621 2.415 . S
Tb600 O622 2.399 . S
Tb601 O611 2.322 . S
Tb601 O612 2.349 . S
Tb601 O614 2.415 . S
Tb601 O615 2.399 . S
Tb601 O616 2.325 . S
Tb601 O619 2.303 . S
Tb601 C630 2.764 . S
C602 O618 1.261 . S
C602 O619 1.257 . S
C603 C606 1.358 . S
C603 C607 1.332 . S
C603 C609 1.504 . S
C604 C605 1.373 . S
C604 C608 1.308 . S
C605 C604 1.373 . S
C605 C606 1.429 . S
C605 H632 0.932 . S
C606 C603 1.358 . S
C606 C605 1.429 . S
C606 H633 0.930 . S
C607 C603 1.332 . S
C607 C608 1.394 . S
C607 H634 0.932 . S
C608 C604 1.308 . S
C608 C607 1.394 . S
C608 H635 0.929 . S
C609 Tb600 2.764 . S
C609 C603 1.504 . S
C609 O621 1.239 . S
C609 O622 1.263 . S
O610 Tb600 2.325 . S
O610 C620 1.236 . S
O611 Tb601 2.322 . S
O611 C620 1.257 . S
O612 Tb601 2.349 . S
O612 C623 1.261 . S
O613 Tb600 2.303 . S
O613 C623 1.257 . S
O614 Tb601 2.415 . S
O614 C630 1.239 . S
O615 Tb601 2.399 . S
O615 C630 1.263 . S
O616 Tb601 2.325 . S
O616 C631 1.236 . S
O617 Tb600 2.322 . S
O617 C631 1.257 . S
O618 Tb600 2.349 . S
O618 C602 1.261 . S
O619 Tb601 2.303 . S
O619 C602 1.257 . S
C620 O610 1.236 . S
C620 O611 1.257 . S
O621 Tb600 2.415 . S
O621 C609 1.239 . S
O622 Tb600 2.399 . S
O622 C609 1.263 . S
C623 O612 1.261 . S
C623 O613 1.257 . S
C624 C627 1.358 . S
C624 C628 1.332 . S
C624 C630 1.504 . S
C625 C626 1.373 . S
C625 C629 1.308 . S
C626 C625 1.373 . S
C626 C627 1.429 . S
C626 H636 0.932 . S
C627 C624 1.358 . S
C627 C626 1.429 . S
C627 H637 0.930 . S
C628 C624 1.332 . S
C628 C629 1.394 . S
C628 H638 0.932 . S
C629 C625 1.308 . S
C629 C628 1.394 . S
C629 H639 0.929 . S
C630 Tb601 2.764 . S
C630 O614 1.239 . S
C630 O615 1.263 . S
C630 C624 1.504 . S
C631 O616 1.236 . S
C631 O617 1.257 . S
H632 C605 0.932 . S
H633 C606 0.930 . S
H634 C607 0.932 . S
H635 C608 0.929 . S
H636 C626 0.932 . S
H637 C627 0.930 . S
H638 C628 0.932 . S
H639 C629 0.929 . S
H640 C648 0.950 . S
H641 C653 0.950 . S
H642 C650 0.950 . S
H643 C652 0.950 . S
H644 C654 0.950 . S
H645 C656 0.950 . S
H646 C658 0.950 . S
H647 C659 0.950 . S
C648 H640 0.950 . S
C648 C649 1.386 . S
C648 C650 1.391 . S
C649 C648 1.386 . S
C649 C653 1.393 . S
C650 H642 0.950 . S
C650 C648 1.391 . S
C650 C651 1.400 . S
C651 C650 1.400 . S
C651 C652 1.398 . S
C651 C657 1.491 . S
C652 H643 0.950 . S
C652 C651 1.398 . S
C652 C653 1.391 . S
C653 H641 0.950 . S
C653 C649 1.393 . S
C653 C652 1.391 . S
C654 H644 0.950 . S
C654 C655 1.386 . S
C654 C656 1.391 . S
C655 C654 1.386 . S
C655 C659 1.393 . S
C656 H645 0.950 . S
C656 C654 1.391 . S
C656 C657 1.400 . S
C657 C651 1.491 . S
C657 C656 1.400 . S
C657 C658 1.398 . S
C658 H646 0.950 . S
C658 C657 1.398 . S
C658 C659 1.391 . S
C659 H647 0.950 . S
C659 C655 1.393 . S
C659 C658 1.391 . S
H660 C668 0.950 . S
H661 C673 0.950 . S
H662 C670 0.950 . S
H663 C672 0.950 . S
H664 C674 0.950 . S
H665 C676 0.950 . S
H666 C678 0.950 . S
H667 C679 0.950 . S
C668 H660 0.950 . S
C668 C669 1.386 . S
C668 C670 1.391 . S
C669 C668 1.386 . S
C669 C673 1.393 . S
C670 H662 0.950 . S
C670 C668 1.391 . S
C670 C671 1.400 . S
C671 C670 1.400 . S
C671 C672 1.398 . S
C671 C677 1.491 . S
C672 H663 0.950 . S
C672 C671 1.398 . S
C672 C673 1.391 . S
C673 H661 0.950 . S
C673 C669 1.393 . S
C673 C672 1.391 . S
C674 H664 0.950 . S
C674 C675 1.386 . S
C674 C676 1.391 . S
C675 C674 1.386 . S
C675 C679 1.393 . S
C676 H665 0.950 . S
C676 C674 1.391 . S
C676 C677 1.400 . S
C677 C671 1.491 . S
C677 C676 1.400 . S
C677 C678 1.398 . S
C678 H666 0.950 . S
C678 C677 1.398 . S
C678 C679 1.391 . S
C679 H667 0.950 . S
C679 C675 1.393 . S
C679 C678 1.391 . S
H680 C688 0.950 . S
H681 C693 0.950 . S
H682 C690 0.950 . S
H683 C692 0.950 . S
H684 C694 0.950 . S
H685 C696 0.950 . S
H686 C698 0.950 . S
H687 C699 0.950 . S
C688 H680 0.950 . S
C688 C689 1.386 . S
C688 C690 1.391 . S
C689 C688 1.386 . S
C689 C693 1.393 . S
C690 H682 0.950 . S
C690 C688 1.391 . S
C690 C691 1.400 . S
C691 C690 1.400 . S
C691 C692 1.398 . S
C691 C697 1.491 . S
C692 H683 0.950 . S
C692 C691 1.398 . S
C692 C693 1.391 . S
C693 H681 0.950 . S
C693 C689 1.393 . S
C693 C692 1.391 . S
C694 H684 0.950 . S
C694 C695 1.386 . S
C694 C696 1.391 . S
C695 C694 1.386 . S
C695 C699 1.393 . S
C696 H685 0.950 . S
C696 C694 1.391 . S
C696 C697 1.400 . S
C697 C691 1.491 . S
C697 C696 1.400 . S
C697 C698 1.398 . S
C698 H686 0.950 . S
C698 C697 1.398 . S
C698 C699 1.391 . S
C699 H687 0.950 . S
C699 C695 1.393 . S
C699 C698 1.391 . S
H700 C708 0.950 . S
H701 C713 0.950 . S
H702 C710 0.950 . S
H703 C712 0.950 . S
H704 C714 0.950 . S
H705 C716 0.950 . S
H706 C718 0.950 . S
H707 C719 0.950 . S
C708 H700 0.950 . S
C708 C709 1.386 . S
C708 C710 1.391 . S
C709 C708 1.386 . S
C709 C713 1.393 . S
C710 H702 0.950 . S
C710 C708 1.391 . S
C710 C711 1.400 . S
C711 C710 1.400 . S
C711 C712 1.398 . S
C711 C717 1.491 . S
C712 H703 0.950 . S
C712 C711 1.398 . S
C712 C713 1.391 . S
C713 H701 0.950 . S
C713 C709 1.393 . S
C713 C712 1.391 . S
C714 H704 0.950 . S
C714 C715 1.386 . S
C714 C716 1.391 . S
C715 C714 1.386 . S
C715 C719 1.393 . S
C716 H705 0.950 . S
C716 C714 1.391 . S
C716 C717 1.400 . S
C717 C711 1.491 . S
C717 C716 1.400 . S
C717 C718 1.398 . S
C718 H706 0.950 . S
C718 C717 1.398 . S
C718 C719 1.391 . S
C719 H707 0.950 . S
C719 C715 1.393 . S
C719 C718 1.391 . S
H720 C728 0.950 . S
H721 C733 0.950 . S
H722 C730 0.950 . S
H723 C732 0.950 . S
H724 C734 0.950 . S
H725 C736 0.950 . S
H726 C738 0.950 . S
H727 C739 0.950 . S
C728 H720 0.950 . S
C728 C729 1.386 . S
C728 C730 1.391 . S
C729 C728 1.386 . S
C729 C733 1.393 . S
C730 H722 0.950 . S
C730 C728 1.391 . S
C730 C731 1.400 . S
C731 C730 1.400 . S
C731 C732 1.398 . S
C731 C737 1.491 . S
C732 H723 0.950 . S
C732 C731 1.398 . S
C732 C733 1.391 . S
C733 H721 0.950 . S
C733 C729 1.393 . S
C733 C732 1.391 . S
C734 H724 0.950 . S
C734 C735 1.386 . S
C734 C736 1.391 . S
C735 C734 1.386 . S
C735 C739 1.393 . S
C736 H725 0.950 . S
C736 C734 1.391 . S
C736 C737 1.400 . S
C737 C731 1.491 . S
C737 C736 1.400 . S
C737 C738 1.398 . S
C738 H726 0.950 . S
C738 C737 1.398 . S
C738 C739 1.391 . S
C739 H727 0.950 . S
C739 C735 1.393 . S
C739 C738 1.391 . S
H740 C748 0.950 . S
H741 C753 0.950 . S
H742 C750 0.950 . S
H743 C752 0.950 . S
H744 C754 0.950 . S
H745 C756 0.950 . S
H746 C758 0.950 . S
H747 C759 0.950 . S
C748 H740 0.950 . S
C748 C749 1.386 . S
C748 C750 1.391 . S
C749 C748 1.386 . S
C749 C753 1.393 . S
C750 H742 0.950 . S
C750 C748 1.391 . S
C750 C751 1.400 . S
C751 C750 1.400 . S
C751 C752 1.398 . S
C751 C757 1.491 . S
C752 H743 0.950 . S
C752 C751 1.398 . S
C752 C753 1.391 . S
C753 H741 0.950 . S
C753 C749 1.393 . S
C753 C752 1.391 . S
C754 H744 0.950 . S
C754 C755 1.386 . S
C754 C756 1.391 . S
C755 C754 1.386 . S
C755 C759 1.393 . S
C756 H745 0.950 . S
C756 C754 1.391 . S
C756 C757 1.400 . S
C757 C751 1.491 . S
C757 C756 1.400 . S
C757 C758 1.398 . S
C758 H746 0.950 . S
C758 C757 1.398 . S
C758 C759 1.391 . S
C759 H747 0.950 . S
C759 C755 1.393 . S
C759 C758 1.391 . S
H760 C768 0.950 . S
H761 C773 0.950 . S
H762 C770 0.950 . S
H763 C772 0.950 . S
H764 C774 0.950 . S
H765 C776 0.950 . S
H766 C778 0.950 . S
H767 C779 0.950 . S
C768 H760 0.950 . S
C768 C769 1.386 . S
C768 C770 1.391 . S
C769 C768 1.386 . S
C769 C773 1.393 . S
C770 H762 0.950 . S
C770 C768 1.391 . S
C770 C771 1.400 . S
C771 C770 1.400 . S
C771 C772 1.398 . S
C771 C777 1.491 . S
C772 H763 0.950 . S
C772 C771 1.398 . S
C772 C773 1.391 . S
C773 H761 0.950 . S
C773 C769 1.393 . S
C773 C772 1.391 . S
C774 H764 0.950 . S
C774 C775 1.386 . S
C774 C776 1.391 . S
C775 C774 1.386 . S
C775 C779 1.393 . S
C776 H765 0.950 . S
C776 C774 1.391 . S
C776 C777 1.400 . S
C777 C771 1.491 . S
C777 C776 1.400 . S
C777 C778 1.398 . S
C778 H766 0.950 . S
C778 C777 1.398 . S
C778 C779 1.391 . S
C779 H767 0.950 . S
C779 C775 1.393 . S
C779 C778 1.391 . S
H780 C788 0.950 . S
H781 C793 0.950 . S
H782 C790 0.950 . S
H783 C792 0.950 . S
H784 C794 0.950 . S
H785 C796 0.950 . S
H786 C798 0.950 . S
H787 C799 0.950 . S
C788 H780 0.950 . S
C788 C789 1.386 . S
C788 C790 1.391 . S
C789 C788 1.386 . S
C789 C793 1.393 . S
C790 H782 0.950 . S
C790 C788 1.391 . S
C790 C791 1.400 . S
C791 C790 1.400 . S
C791 C792 1.398 . S
C791 C797 1.491 . S
C792 H783 0.950 . S
C792 C791 1.398 . S
C792 C793 1.391 . S
C793 H781 0.950 . S
C793 C789 1.393 . S
C793 C792 1.391 . S
C794 H784 0.950 . S
C794 C795 1.386 . S
C794 C796 1.391 . S
C795 C794 1.386 . S
C795 C799 1.393 . S
C796 H785 0.950 . S
C796 C794 1.391 . S
C796 C797 1.400 . S
C797 C791 1.491 . S
C797 C796 1.400 . S
C797 C798 1.398 . S
C798 H786 0.950 . S
C798 C797 1.398 . S
C798 C799 1.391 . S
C799 H787 0.950 . S
C799 C795 1.393 . S
C799 C798 1.391 . S
H800 C808 0.950 . S
H801 C813 0.950 . S
H802 C810 0.950 . S
H803 C812 0.950 . S
H804 C814 0.950 . S
H805 C816 0.950 . S
H806 C818 0.950 . S
H807 C819 0.950 . S
C808 H800 0.950 . S
C808 C809 1.386 . S
C808 C810 1.391 . S
C809 C808 1.386 . S
C809 C813 1.393 . S
C810 H802 0.950 . S
C810 C808 1.391 . S
C810 C811 1.400 . S
C811 C810 1.400 . S
C811 C812 1.398 . S
C811 C817 1.491 . S
C812 H803 0.950 . S
C812 C811 1.398 . S
C812 C813 1.391 . S
C813 H801 0.950 . S
C813 C809 1.393 . S
C813 C812 1.391 . S
C814 H804 0.950 . S
C814 C815 1.386 . S
C814 C816 1.391 . S
C815 C814 1.386 . S
C815 C819 1.393 . S
C816 H805 0.950 . S
C816 C814 1.391 . S
C816 C817 1.400 . S
C817 C811 1.491 . S
C817 C816 1.400 . S
C817 C818 1.398 . S
C818 H806 0.950 . S
C818 C817 1.398 . S
C818 C819 1.391 . S
C819 H807 0.950 . S
C819 C815 1.393 . S
C819 C818 1.391 . S
H820 C828 0.950 . S
H821 C833 0.950 . S
H822 C830 0.950 . S
H823 C832 0.950 . S
H824 C834 0.950 . S
H825 C836 0.950 . S
H826 C838 0.950 . S
H827 C839 0.950 . S
C828 H820 0.950 . S
C828 C829 1.386 . S
C828 C830 1.391 . S
C829 C828 1.386 . S
C829 C833 1.393 . S
C830 H822 0.950 . S
C830 C828 1.391 . S
C830 C831 1.400 . S
C831 C830 1.400 . S
C831 C832 1.398 . S
C831 C837 1.491 . S
C832 H823 0.950 . S
C832 C831 1.398 . S
C832 C833 1.391 . S
C833 H821 0.950 . S
C833 C829 1.393 . S
C833 C832 1.391 . S
C834 H824 0.950 . S
C834 C835 1.386 . S
C834 C836 1.391 . S
C835 C834 1.386 . S
C835 C839 1.393 . S
C836 H825 0.950 . S
C836 C834 1.391 . S
C836 C837 1.400 . S
C837 C831 1.491 . S
C837 C836 1.400 . S
C837 C838 1.398 . S
C838 H826 0.950 . S
C838 C837 1.398 . S
C838 C839 1.391 . S
C839 H827 0.950 . S
C839 C835 1.393 . S
C839 C838 1.391 . S
H840 C848 0.950 . S
H841 C853 0.950 . S
H842 C850 0.950 . S
H843 C852 0.950 . S
H844 C854 0.950 . S
H845 C856 0.950 . S
H846 C858 0.950 . S
H847 C859 0.950 . S
C848 H840 0.950 . S
C848 C849 1.386 . S
C848 C850 1.391 . S
C849 C848 1.386 . S
C849 C853 1.393 . S
C850 H842 0.950 . S
C850 C848 1.391 . S
C850 C851 1.400 . S
C851 C850 1.400 . S
C851 C852 1.398 . S
C851 C857 1.491 . S
C852 H843 0.950 . S
C852 C851 1.398 . S
C852 C853 1.391 . S
C853 H841 0.950 . S
C853 C849 1.393 . S
C853 C852 1.391 . S
C854 H844 0.950 . S
C854 C855 1.386 . S
C854 C856 1.391 . S
C855 C854 1.386 . S
C855 C859 1.393 . S
C856 H845 0.950 . S
C856 C854 1.391 . S
C856 C857 1.400 . S
C857 C851 1.491 . S
C857 C856 1.400 . S
C857 C858 1.398 . S
C858 H846 0.950 . S
C858 C857 1.398 . S
C858 C859 1.391 . S
C859 H847 0.950 . S
C859 C855 1.393 . S
C859 C858 1.391 . S
H860 C868 0.950 . S
H861 C873 0.950 . S
H862 C870 0.950 . S
H863 C872 0.950 . S
H864 C874 0.950 . S
H865 C876 0.950 . S
H866 C878 0.950 . S
H867 C879 0.950 . S
C868 H860 0.950 . S
C868 C869 1.386 . S
C868 C870 1.391 . S
C869 C868 1.386 . S
C869 C873 1.393 . S
C870 H862 0.950 . S
C870 C868 1.391 . S
C870 C871 1.400 . S
C871 C870 1.400 . S
C871 C872 1.398 . S
C871 C877 1.491 . S
C872 H863 0.950 . S
C872 C871 1.398 . S
C872 C873 1.391 . S
C873 H861 0.950 . S
C873 C869 1.393 . S
C873 C872 1.391 . S
C874 H864 0.950 . S
C874 C875 1.386 . S
C874 C876 1.391 . S
C875 C874 1.386 . S
C875 C879 1.393 . S
C876 H865 0.950 . S
C876 C874 1.391 . S
C876 C877 1.400 . S
C877 C871 1.491 . S
C877 C876 1.400 . S
C877 C878 1.398 . S
C878 H866 0.950 . S
C878 C877 1.398 . S
C878 C879 1.391 . S
C879 H867 0.950 . S
C879 C875 1.393 . S
C879 C878 1.391 . S
H880 C888 0.950 . S
H881 C893 0.950 . S
H882 C890 0.950 . S
H883 C892 0.950 . S
H884 C894 0.950 . S
H885 C896 0.950 . S
H886 C898 0.950 . S
H887 C899 0.950 1_545 S
C888 H880 0.950 . S
C888 C889 1.386 . S
C888 C890 1.391 . S
C889 C888 1.386 . S
C889 C893 1.393 . S
C890 H882 0.950 . S
C890 C888 1.391 . S
C890 C891 1.400 . S
C891 C890 1.400 . S
C891 C892 1.398 . S
C891 C897 1.491 . S
C892 H883 0.950 . S
C892 C891 1.398 . S
C892 C893 1.391 . S
C893 H881 0.950 . S
C893 C889 1.393 . S
C893 C892 1.391 . S
C894 H884 0.950 . S
C894 C895 1.386 . S
C894 C896 1.391 . S
C895 C894 1.386 . S
C895 C899 1.393 . S
C896 H885 0.950 . S
C896 C894 1.391 . S
C896 C897 1.400 . S
C897 C891 1.491 . S
C897 C896 1.400 . S
C897 C898 1.398 . S
C898 H886 0.950 . S
C898 C897 1.398 . S
C898 C899 1.391 . S
C899 H887 0.950 1_565 S
C899 C895 1.393 . S
C899 C898 1.391 . S
H900 C908 0.950 . S
H901 C913 0.950 . S
H902 C910 0.950 . S
H903 C912 0.950 . S
H904 C914 0.950 . S
H905 C916 0.950 . S
H906 C918 0.950 . S
H907 C919 0.950 . S
C908 H900 0.950 . S
C908 C909 1.386 . S
C908 C910 1.391 . S
C909 C908 1.386 . S
C909 C913 1.393 . S
C910 H902 0.950 . S
C910 C908 1.391 . S
C910 C911 1.400 . S
C911 C910 1.400 . S
C911 C912 1.398 . S
C911 C917 1.491 . S
C912 H903 0.950 . S
C912 C911 1.398 . S
C912 C913 1.391 . S
C913 H901 0.950 . S
C913 C909 1.393 . S
C913 C912 1.391 . S
C914 H904 0.950 . S
C914 C915 1.386 . S
C914 C916 1.391 . S
C915 C914 1.386 . S
C915 C919 1.393 . S
C916 H905 0.950 . S
C916 C914 1.391 . S
C916 C917 1.400 . S
C917 C911 1.491 . S
C917 C916 1.400 . S
C917 C918 1.398 . S
C918 H906 0.950 . S
C918 C917 1.398 . S
C918 C919 1.391 . S
C919 H907 0.950 . S
C919 C915 1.393 . S
C919 C918 1.391 . S
H920 C928 0.950 . S
H921 C933 0.950 . S
H922 C930 0.950 . S
H923 C932 0.950 . S
H924 C934 0.950 . S
H925 C936 0.950 . S
H926 C938 0.950 . S
H927 C939 0.950 . S
C928 H920 0.950 . S
C928 C929 1.386 . S
C928 C930 1.391 . S
C929 C928 1.386 . S
C929 C933 1.393 . S
C930 H922 0.950 . S
C930 C928 1.391 . S
C930 C931 1.400 . S
C931 C930 1.400 . S
C931 C932 1.398 . S
C931 C937 1.491 . S
C932 H923 0.950 . S
C932 C931 1.398 . S
C932 C933 1.391 . S
C933 H921 0.950 . S
C933 C929 1.393 . S
C933 C932 1.391 . S
C934 H924 0.950 . S
C934 C935 1.386 . S
C934 C936 1.391 . S
C935 C934 1.386 . S
C935 C939 1.393 . S
C936 H925 0.950 . S
C936 C934 1.391 . S
C936 C937 1.400 . S
C937 C931 1.491 . S
C937 C936 1.400 . S
C937 C938 1.398 . S
C938 H926 0.950 . S
C938 C937 1.398 . S
C938 C939 1.391 . S
C939 H927 0.950 . S
C939 C935 1.393 . S
C939 C938 1.391 . S
H940 C948 0.950 1_455 S
H941 C953 0.950 . S
H942 C950 0.950 . S
H943 C952 0.950 . S
H944 C954 0.950 . S
H945 C956 0.950 . S
H946 C958 0.950 . S
H947 C959 0.950 . S
C948 H940 0.950 1_655 S
C948 C949 1.386 . S
C948 C950 1.391 . S
C949 C948 1.386 . S
C949 C953 1.393 . S
C950 H942 0.950 . S
C950 C948 1.391 . S
C950 C951 1.400 . S
C951 C950 1.400 . S
C951 C952 1.398 . S
C951 C957 1.491 . S
C952 H943 0.950 . S
C952 C951 1.398 . S
C952 C953 1.391 . S
C953 H941 0.950 . S
C953 C949 1.393 . S
C953 C952 1.391 . S
C954 H944 0.950 . S
C954 C955 1.386 . S
C954 C956 1.391 . S
C955 C954 1.386 . S
C955 C959 1.393 . S
C956 H945 0.950 . S
C956 C954 1.391 . S
C956 C957 1.400 . S
C957 C951 1.491 . S
C957 C956 1.400 . S
C957 C958 1.398 . S
C958 H946 0.950 . S
C958 C957 1.398 . S
C958 C959 1.391 . S
C959 H947 0.950 . S
C959 C955 1.393 . S
C959 C958 1.391 . S
H960 C968 0.950 . S
H961 C973 0.950 . S
H962 C970 0.950 . S
H963 C972 0.950 . S
H964 C974 0.950 . S
H965 C976 0.950 . S
H966 C978 0.950 . S
H967 C979 0.950 . S
C968 H960 0.950 . S
C968 C969 1.386 . S
C968 C970 1.391 . S
C969 C968 1.386 . S
C969 C973 1.393 . S
C970 H962 0.950 . S
C970 C968 1.391 . S
C970 C971 1.400 . S
C971 C970 1.400 . S
C971 C972 1.398 . S
C971 C977 1.491 . S
C972 H963 0.950 . S
C972 C971 1.398 . S
C972 C973 1.391 . S
C973 H961 0.950 . S
C973 C969 1.393 . S
C973 C972 1.391 . S
C974 H964 0.950 . S
C974 C975 1.386 . S
C974 C976 1.391 . S
C975 C974 1.386 . S
C975 C979 1.393 . S
C976 H965 0.950 . S
C976 C974 1.391 . S
C976 C977 1.400 . S
C977 C971 1.491 . S
C977 C976 1.400 . S
C977 C978 1.398 . S
C978 H966 0.950 . S
C978 C977 1.398 . S
C978 C979 1.391 . S
C979 H967 0.950 . S
C979 C975 1.393 . S
C979 C978 1.391 . S
H980 C988 0.950 . S
H981 C993 0.950 . S
H982 C990 0.950 . S
H983 C992 0.950 . S
H984 C994 0.950 . S
H985 C996 0.950 . S
H986 C998 0.950 . S
H987 C999 0.950 . S
C988 H980 0.950 . S
C988 C989 1.386 . S
C988 C990 1.391 . S
C989 C988 1.386 . S
C989 C993 1.393 . S
C990 H982 0.950 . S
C990 C988 1.391 . S
C990 C991 1.400 . S
C991 C990 1.400 . S
C991 C992 1.398 . S
C991 C997 1.491 . S
C992 H983 0.950 . S
C992 C991 1.398 . S
C992 C993 1.391 . S
C993 H981 0.950 . S
C993 C989 1.393 . S
C993 C992 1.391 . S
C994 H984 0.950 . S
C994 C995 1.386 . S
C994 C996 1.391 . S
C995 C994 1.386 . S
C995 C999 1.393 . S
C996 H985 0.950 . S
C996 C994 1.391 . S
C996 C997 1.400 . S
C997 C991 1.491 . S
C997 C996 1.400 . S
C997 C998 1.398 . S
C998 H986 0.950 . S
C998 C997 1.398 . S
C998 C999 1.391 . S
C999 H987 0.950 . S
C999 C995 1.393 . S
C999 C998 1.391 . S
H1000 C1008 0.950 . S
H1001 C1013 0.950 . S
H1002 C1010 0.950 . S
H1003 C1012 0.950 . S
H1004 C1014 0.950 . S
H1005 C1016 0.950 . S
H1006 C1018 0.950 . S
H1007 C1019 0.950 . S
C1008 H1000 0.950 . S
C1008 C1009 1.386 . S
C1008 C1010 1.391 . S
C1009 C1008 1.386 . S
C1009 C1013 1.393 . S
C1010 H1002 0.950 . S
C1010 C1008 1.391 . S
C1010 C1011 1.400 . S
C1011 C1010 1.400 . S
C1011 C1012 1.398 . S
C1011 C1017 1.491 . S
C1012 H1003 0.950 . S
C1012 C1011 1.398 . S
C1012 C1013 1.391 . S
C1013 H1001 0.950 . S
C1013 C1009 1.393 . S
C1013 C1012 1.391 . S
C1014 H1004 0.950 . S
C1014 C1015 1.386 . S
C1014 C1016 1.391 . S
C1015 C1014 1.386 . S
C1015 C1019 1.393 . S
C1016 H1005 0.950 . S
C1016 C1014 1.391 . S
C1016 C1017 1.400 . S
C1017 C1011 1.491 . S
C1017 C1016 1.400 . S
C1017 C1018 1.398 . S
C1018 H1006 0.950 . S
C1018 C1017 1.398 . S
C1018 C1019 1.391 . S
C1019 H1007 0.950 . S
C1019 C1015 1.393 . S
C1019 C1018 1.391 . S
H1020 C1028 0.950 . S
H1021 C1033 0.950 . S
H1022 C1030 0.950 . S
H1023 C1032 0.950 . S
H1024 C1034 0.950 . S
H1025 C1036 0.950 . S
H1026 C1038 0.950 . S
H1027 C1039 0.950 1_455 S
C1028 H1020 0.950 . S
C1028 C1029 1.386 . S
C1028 C1030 1.391 . S
C1029 C1028 1.386 . S
C1029 C1033 1.393 . S
C1030 H1022 0.950 . S
C1030 C1028 1.391 . S
C1030 C1031 1.400 . S
C1031 C1030 1.400 . S
C1031 C1032 1.398 . S
C1031 C1037 1.491 . S
C1032 H1023 0.950 . S
C1032 C1031 1.398 . S
C1032 C1033 1.391 . S
C1033 H1021 0.950 . S
C1033 C1029 1.393 . S
C1033 C1032 1.391 . S
C1034 H1024 0.950 . S
C1034 C1035 1.386 . S
C1034 C1036 1.391 . S
C1035 C1034 1.386 . S
C1035 C1039 1.393 . S
C1036 H1025 0.950 . S
C1036 C1034 1.391 . S
C1036 C1037 1.400 . S
C1037 C1031 1.491 . S
C1037 C1036 1.400 . S
C1037 C1038 1.398 . S
C1038 H1026 0.950 . S
C1038 C1037 1.398 . S
C1038 C1039 1.391 . S
C1039 H1027 0.950 1_655 S
C1039 C1035 1.393 . S
C1039 C1038 1.391 . S
H1040 C1048 0.950 . S
H1041 C1053 0.950 . S
H1042 C1050 0.950 . S
H1043 C1052 0.950 . S
H1044 C1054 0.950 . S
H1045 C1056 0.950 . S
H1046 C1058 0.950 . S
H1047 C1059 0.950 . S
C1048 H1040 0.950 . S
C1048 C1049 1.386 . S
C1048 C1050 1.391 . S
C1049 C1048 1.386 . S
C1049 C1053 1.393 . S
C1050 H1042 0.950 . S
C1050 C1048 1.391 . S
C1050 C1051 1.400 . S
C1051 C1050 1.400 . S
C1051 C1052 1.398 . S
C1051 C1057 1.491 . S
C1052 H1043 0.950 . S
C1052 C1051 1.398 . S
C1052 C1053 1.391 . S
C1053 H1041 0.950 . S
C1053 C1049 1.393 . S
C1053 C1052 1.391 . S
C1054 H1044 0.950 . S
C1054 C1055 1.386 . S
C1054 C1056 1.391 . S
C1055 C1054 1.386 . S
C1055 C1059 1.393 . S
C1056 H1045 0.950 . S
C1056 C1054 1.391 . S
C1056 C1057 1.400 . S
C1057 C1051 1.491 . S
C1057 C1056 1.400 . S
C1057 C1058 1.398 . S
C1058 H1046 0.950 . S
C1058 C1057 1.398 . S
C1058 C1059 1.391 . S
C1059 H1047 0.950 . S
C1059 C1055 1.393 . S
C1059 C1058 1.391 . S
H1060 C1068 0.950 . S
H1061 C1073 0.950 . S
H1062 C1070 0.950 . S
H1063 C1072 0.950 . S
H1064 C1074 0.950 . S
H1065 C1076 0.950 . S
H1066 C1078 0.950 . S
H1067 C1079 0.950 . S
C1068 H1060 0.950 . S
C1068 C1069 1.386 . S
C1068 C1070 1.391 . S
C1069 C1068 1.386 . S
C1069 C1073 1.393 . S
C1070 H1062 0.950 . S
C1070 C1068 1.391 . S
C1070 C1071 1.400 . S
C1071 C1070 1.400 . S
C1071 C1072 1.398 . S
C1071 C1077 1.491 . S
C1072 H1063 0.950 . S
C1072 C1071 1.398 . S
C1072 C1073 1.391 . S
C1073 H1061 0.950 . S
C1073 C1069 1.393 . S
C1073 C1072 1.391 . S
C1074 H1064 0.950 . S
C1074 C1075 1.386 . S
C1074 C1076 1.391 . S
C1075 C1074 1.386 . S
C1075 C1079 1.393 . S
C1076 H1065 0.950 . S
C1076 C1074 1.391 . S
C1076 C1077 1.400 . S
C1077 C1071 1.491 . S
C1077 C1076 1.400 . S
C1077 C1078 1.398 . S
C1078 H1066 0.950 . S
C1078 C1077 1.398 . S
C1078 C1079 1.391 . S
C1079 H1067 0.950 . S
C1079 C1075 1.393 . S
C1079 C1078 1.391 . S
H1080 C1088 0.950 . S
H1081 C1093 0.950 . S
H1082 C1090 0.950 . S
H1083 C1092 0.950 . S
H1084 C1094 0.950 . S
H1085 C1096 0.950 . S
H1086 C1098 0.950 . S
H1087 C1099 0.950 . S
C1088 H1080 0.950 . S
C1088 C1089 1.386 . S
C1088 C1090 1.391 . S
C1089 C1088 1.386 . S
C1089 C1093 1.393 . S
C1090 H1082 0.950 . S
C1090 C1088 1.391 . S
C1090 C1091 1.400 . S
C1091 C1090 1.400 . S
C1091 C1092 1.398 . S
C1091 C1097 1.491 . S
C1092 H1083 0.950 . S
C1092 C1091 1.398 . S
C1092 C1093 1.391 . S
C1093 H1081 0.950 . S
C1093 C1089 1.393 . S
C1093 C1092 1.391 . S
C1094 H1084 0.950 . S
C1094 C1095 1.386 . S
C1094 C1096 1.391 . S
C1095 C1094 1.386 . S
C1095 C1099 1.393 . S
C1096 H1085 0.950 . S
C1096 C1094 1.391 . S
C1096 C1097 1.400 . S
C1097 C1091 1.491 . S
C1097 C1096 1.400 . S
C1097 C1098 1.398 . S
C1098 H1086 0.950 . S
C1098 C1097 1.398 . S
C1098 C1099 1.391 . S
C1099 H1087 0.950 . S
C1099 C1095 1.393 . S
C1099 C1098 1.391 . S
H1100 C1108 0.950 . S
H1101 C1113 0.950 . S
H1102 C1110 0.950 . S
H1103 C1112 0.950 . S
H1104 C1114 0.950 . S
H1105 C1116 0.950 . S
H1106 C1118 0.950 . S
H1107 C1119 0.950 . S
C1108 H1100 0.950 . S
C1108 C1109 1.386 . S
C1108 C1110 1.391 . S
C1109 C1108 1.386 . S
C1109 C1113 1.393 . S
C1110 H1102 0.950 . S
C1110 C1108 1.391 . S
C1110 C1111 1.400 . S
C1111 C1110 1.400 . S
C1111 C1112 1.398 . S
C1111 C1117 1.491 . S
C1112 H1103 0.950 . S
C1112 C1111 1.398 . S
C1112 C1113 1.391 . S
C1113 H1101 0.950 . S
C1113 C1109 1.393 . S
C1113 C1112 1.391 . S
C1114 H1104 0.950 . S
C1114 C1115 1.386 . S
C1114 C1116 1.391 . S
C1115 C1114 1.386 . S
C1115 C1119 1.393 . S
C1116 H1105 0.950 . S
C1116 C1114 1.391 . S
C1116 C1117 1.400 . S
C1117 C1111 1.491 . S
C1117 C1116 1.400 . S
C1117 C1118 1.398 . S
C1118 H1106 0.950 . S
C1118 C1117 1.398 . S
C1118 C1119 1.391 . S
C1119 H1107 0.950 . S
C1119 C1115 1.393 . S
C1119 C1118 1.391 . S
H1120 C1128 0.950 . S
H1121 C1133 0.950 . S
H1122 C1130 0.950 . S
H1123 C1132 0.950 . S
H1124 C1134 0.950 . S
H1125 C1136 0.950 . S
H1126 C1138 0.950 . S
H1127 C1139 0.950 . S
C1128 H1120 0.950 . S
C1128 C1129 1.386 . S
C1128 C1130 1.391 . S
C1129 C1128 1.386 . S
C1129 C1133 1.393 . S
C1130 H1122 0.950 . S
C1130 C1128 1.391 . S
C1130 C1131 1.400 . S
C1131 C1130 1.400 . S
C1131 C1132 1.398 . S
C1131 C1137 1.491 . S
C1132 H1123 0.950 . S
C1132 C1131 1.398 . S
C1132 C1133 1.391 . S
C1133 H1121 0.950 . S
C1133 C1129 1.393 . S
C1133 C1132 1.391 . S
C1134 H1124 0.950 . S
C1134 C1135 1.386 . S
C1134 C1136 1.391 . S
C1135 C1134 1.386 . S
C1135 C1139 1.393 . S
C1136 H1125 0.950 . S
C1136 C1134 1.391 . S
C1136 C1137 1.400 . S
C1137 C1131 1.491 . S
C1137 C1136 1.400 . S
C1137 C1138 1.398 . S
C1138 H1126 0.950 . S
C1138 C1137 1.398 . S
C1138 C1139 1.391 . S
C1139 H1127 0.950 . S
C1139 C1135 1.393 . S
C1139 C1138 1.391 . S
H1140 C1148 0.950 . S
H1141 C1153 0.950 . S
H1142 C1150 0.950 . S
H1143 C1152 0.950 . S
H1144 C1154 0.950 . S
H1145 C1156 0.950 . S
H1146 C1158 0.950 . S
H1147 C1159 0.950 . S
C1148 H1140 0.950 . S
C1148 C1149 1.386 . S
C1148 C1150 1.391 . S
C1149 C1148 1.386 . S
C1149 C1153 1.393 . S
C1150 H1142 0.950 . S
C1150 C1148 1.391 . S
C1150 C1151 1.400 . S
C1151 C1150 1.400 . S
C1151 C1152 1.398 . S
C1151 C1157 1.491 . S
C1152 H1143 0.950 . S
C1152 C1151 1.398 . S
C1152 C1153 1.391 . S
C1153 H1141 0.950 . S
C1153 C1149 1.393 . S
C1153 C1152 1.391 . S
C1154 H1144 0.950 . S
C1154 C1155 1.386 . S
C1154 C1156 1.391 . S
C1155 C1154 1.386 . S
C1155 C1159 1.393 . S
C1156 H1145 0.950 . S
C1156 C1154 1.391 . S
C1156 C1157 1.400 . S
C1157 C1151 1.491 . S
C1157 C1156 1.400 . S
C1157 C1158 1.398 . S
C1158 H1146 0.950 . S
C1158 C1157 1.398 . S
C1158 C1159 1.391 . S
C1159 H1147 0.950 . S
C1159 C1155 1.393 . S
C1159 C1158 1.391 . S
H1160 C1168 0.950 . S
H1161 C1173 0.950 . S
H1162 C1170 0.950 . S
H1163 C1172 0.950 . S
H1164 C1174 0.950 . S
H1165 C1176 0.950 . S
H1166 C1178 0.950 . S
H1167 C1179 0.950 . S
C1168 H1160 0.950 . S
C1168 C1169 1.386 . S
C1168 C1170 1.391 . S
C1169 C1168 1.386 . S
C1169 C1173 1.393 . S
C1170 H1162 0.950 . S
C1170 C1168 1.391 . S
C1170 C1171 1.400 . S
C1171 C1170 1.400 . S
C1171 C1172 1.398 . S
C1171 C1177 1.491 . S
C1172 H1163 0.950 . S
C1172 C1171 1.398 . S
C1172 C1173 1.391 . S
C1173 H1161 0.950 . S
C1173 C1169 1.393 . S
C1173 C1172 1.391 . S
C1174 H1164 0.950 . S
C1174 C1175 1.386 . S
C1174 C1176 1.391 . S
C1175 C1174 1.386 . S
C1175 C1179 1.393 . S
C1176 H1165 0.950 . S
C1176 C1174 1.391 . S
C1176 C1177 1.400 . S
C1177 C1171 1.491 . S
C1177 C1176 1.400 . S
C1177 C1178 1.398 . S
C1178 H1166 0.950 . S
C1178 C1177 1.398 . S
C1178 C1179 1.391 . S
C1179 H1167 0.950 . S
C1179 C1175 1.393 . S
C1179 C1178 1.391 . S
H1180 C1188 0.950 . S
H1181 C1193 0.950 . S
H1182 C1190 0.950 . S
H1183 C1192 0.950 . S
H1184 C1194 0.950 . S
H1185 C1196 0.950 . S
H1186 C1198 0.950 . S
H1187 C1199 0.950 . S
C1188 H1180 0.950 . S
C1188 C1189 1.386 . S
C1188 C1190 1.391 . S
C1189 C1188 1.386 . S
C1189 C1193 1.393 . S
C1190 H1182 0.950 . S
C1190 C1188 1.391 . S
C1190 C1191 1.400 . S
C1191 C1190 1.400 . S
C1191 C1192 1.398 . S
C1191 C1197 1.491 . S
C1192 H1183 0.950 . S
C1192 C1191 1.398 . S
C1192 C1193 1.391 . S
C1193 H1181 0.950 . S
C1193 C1189 1.393 . S
C1193 C1192 1.391 . S
C1194 H1184 0.950 . S
C1194 C1195 1.386 . S
C1194 C1196 1.391 . S
C1195 C1194 1.386 . S
C1195 C1199 1.393 . S
C1196 H1185 0.950 . S
C1196 C1194 1.391 . S
C1196 C1197 1.400 . S
C1197 C1191 1.491 . S
C1197 C1196 1.400 . S
C1197 C1198 1.398 . S
C1198 H1186 0.950 . S
C1198 C1197 1.398 . S
C1198 C1199 1.391 . S
C1199 H1187 0.950 . S
C1199 C1195 1.393 . S
C1199 C1198 1.391 . S
H1200 C1208 0.950 . S
H1201 C1213 0.950 . S
H1202 C1210 0.950 . S
H1203 C1212 0.950 . S
H1204 C1214 0.950 . S
H1205 C1216 0.950 . S
H1206 C1218 0.950 . S
H1207 C1219 0.950 . S
C1208 H1200 0.950 . S
C1208 C1209 1.386 . S
C1208 C1210 1.391 . S
C1209 C1208 1.386 . S
C1209 C1213 1.393 . S
C1210 H1202 0.950 . S
C1210 C1208 1.391 . S
C1210 C1211 1.400 . S
C1211 C1210 1.400 . S
C1211 C1212 1.398 . S
C1211 C1217 1.491 . S
C1212 H1203 0.950 . S
C1212 C1211 1.398 . S
C1212 C1213 1.391 . S
C1213 H1201 0.950 . S
C1213 C1209 1.393 . S
C1213 C1212 1.391 . S
C1214 H1204 0.950 . S
C1214 C1215 1.386 . S
C1214 C1216 1.391 . S
C1215 C1214 1.386 . S
C1215 C1219 1.393 . S
C1216 H1205 0.950 . S
C1216 C1214 1.391 . S
C1216 C1217 1.400 . S
C1217 C1211 1.491 . S
C1217 C1216 1.400 . S
C1217 C1218 1.398 . S
C1218 H1206 0.950 . S
C1218 C1217 1.398 . S
C1218 C1219 1.391 . S
C1219 H1207 0.950 . S
C1219 C1215 1.393 . S
C1219 C1218 1.391 . S
H1220 C1228 0.950 . S
H1221 C1233 0.950 . S
H1222 C1230 0.950 . S
H1223 C1232 0.950 . S
H1224 C1234 0.950 . S
H1225 C1236 0.950 . S
H1226 C1238 0.950 . S
H1227 C1239 0.950 . S
C1228 H1220 0.950 . S
C1228 C1229 1.386 . S
C1228 C1230 1.391 . S
C1229 C1228 1.386 . S
C1229 C1233 1.393 . S
C1230 H1222 0.950 . S
C1230 C1228 1.391 . S
C1230 C1231 1.400 . S
C1231 C1230 1.400 . S
C1231 C1232 1.398 . S
C1231 C1237 1.491 . S
C1232 H1223 0.950 . S
C1232 C1231 1.398 . S
C1232 C1233 1.391 . S
C1233 H1221 0.950 . S
C1233 C1229 1.393 . S
C1233 C1232 1.391 . S
C1234 H1224 0.950 . S
C1234 C1235 1.386 . S
C1234 C1236 1.391 . S
C1235 C1234 1.386 . S
C1235 C1239 1.393 . S
C1236 H1225 0.950 . S
C1236 C1234 1.391 . S
C1236 C1237 1.400 . S
C1237 C1231 1.491 . S
C1237 C1236 1.400 . S
C1237 C1238 1.398 . S
C1238 H1226 0.950 . S
C1238 C1237 1.398 . S
C1238 C1239 1.391 . S
C1239 H1227 0.950 . S
C1239 C1235 1.393 . S
C1239 C1238 1.391 . S
H1240 C1248 0.950 . S
H1241 C1253 0.950 . S
H1242 C1250 0.950 . S
H1243 C1252 0.950 . S
H1244 C1254 0.950 . S
H1245 C1256 0.950 . S
H1246 C1258 0.950 . S
H1247 C1259 0.950 . S
C1248 H1240 0.950 . S
C1248 C1249 1.386 . S
C1248 C1250 1.391 . S
C1249 C1248 1.386 . S
C1249 C1253 1.393 . S
C1250 H1242 0.950 . S
C1250 C1248 1.391 . S
C1250 C1251 1.400 . S
C1251 C1250 1.400 . S
C1251 C1252 1.398 . S
C1251 C1257 1.491 . S
C1252 H1243 0.950 . S
C1252 C1251 1.398 . S
C1252 C1253 1.391 . S
C1253 H1241 0.950 . S
C1253 C1249 1.393 . S
C1253 C1252 1.391 . S
C1254 H1244 0.950 . S
C1254 C1255 1.386 . S
C1254 C1256 1.391 . S
C1255 C1254 1.386 . S
C1255 C1259 1.393 . S
C1256 H1245 0.950 . S
C1256 C1254 1.391 . S
C1256 C1257 1.400 . S
C1257 C1251 1.491 . S
C1257 C1256 1.400 . S
C1257 C1258 1.398 . S
C1258 H1246 0.950 . S
C1258 C1257 1.398 . S
C1258 C1259 1.391 . S
C1259 H1247 0.950 . S
C1259 C1255 1.393 . S
C1259 C1258 1.391 . S
H1260 C1268 0.950 . S
H1261 C1273 0.950 . S
H1262 C1270 0.950 . S
H1263 C1272 0.950 . S
H1264 C1274 0.950 . S
H1265 C1276 0.950 . S
H1266 C1278 0.950 . S
H1267 C1279 0.950 . S
C1268 H1260 0.950 . S
C1268 C1269 1.386 . S
C1268 C1270 1.391 . S
C1269 C1268 1.386 . S
C1269 C1273 1.393 . S
C1270 H1262 0.950 . S
C1270 C1268 1.391 . S
C1270 C1271 1.400 . S
C1271 C1270 1.400 . S
C1271 C1272 1.398 . S
C1271 C1277 1.491 . S
C1272 H1263 0.950 . S
C1272 C1271 1.398 . S
C1272 C1273 1.391 . S
C1273 H1261 0.950 . S
C1273 C1269 1.393 . S
C1273 C1272 1.391 . S
C1274 H1264 0.950 . S
C1274 C1275 1.386 . S
C1274 C1276 1.391 . S
C1275 C1274 1.386 . S
C1275 C1279 1.393 . S
C1276 H1265 0.950 . S
C1276 C1274 1.391 . S
C1276 C1277 1.400 . S
C1277 C1271 1.491 . S
C1277 C1276 1.400 . S
C1277 C1278 1.398 . S
C1278 H1266 0.950 . S
C1278 C1277 1.398 . S
C1278 C1279 1.391 . S
C1279 H1267 0.950 . S
C1279 C1275 1.393 . S
C1279 C1278 1.391 . S
H1280 C1288 0.950 . S
H1281 C1293 0.950 . S
H1282 C1290 0.950 . S
H1283 C1292 0.950 . S
H1284 C1294 0.950 . S
H1285 C1296 0.950 . S
H1286 C1298 0.950 . S
H1287 C1299 0.950 . S
C1288 H1280 0.950 . S
C1288 C1289 1.386 . S
C1288 C1290 1.391 . S
C1289 C1288 1.386 . S
C1289 C1293 1.393 . S
C1290 H1282 0.950 . S
C1290 C1288 1.391 . S
C1290 C1291 1.400 . S
C1291 C1290 1.400 . S
C1291 C1292 1.398 . S
C1291 C1297 1.491 . S
C1292 H1283 0.950 . S
C1292 C1291 1.398 . S
C1292 C1293 1.391 . S
C1293 H1281 0.950 . S
C1293 C1289 1.393 . S
C1293 C1292 1.391 . S
C1294 H1284 0.950 . S
C1294 C1295 1.386 . S
C1294 C1296 1.391 . S
C1295 C1294 1.386 . S
C1295 C1299 1.393 . S
C1296 H1285 0.950 . S
C1296 C1294 1.391 . S
C1296 C1297 1.400 . S
C1297 C1291 1.491 . S
C1297 C1296 1.400 . S
C1297 C1298 1.398 . S
C1298 H1286 0.950 . S
C1298 C1297 1.398 . S
C1298 C1299 1.391 . S
C1299 H1287 0.950 . S
C1299 C1295 1.393 . S
C1299 C1298 1.391 . S
H1300 C1308 0.950 . S
H1301 C1313 0.950 . S
H1302 C1310 0.950 . S
H1303 C1312 0.950 . S
H1304 C1314 0.950 . S
H1305 C1316 0.950 . S
H1306 C1318 0.950 . S
H1307 C1319 0.950 . S
C1308 H1300 0.950 . S
C1308 C1309 1.386 . S
C1308 C1310 1.391 . S
C1309 C1308 1.386 . S
C1309 C1313 1.393 . S
C1310 H1302 0.950 . S
C1310 C1308 1.391 . S
C1310 C1311 1.400 . S
C1311 C1310 1.400 . S
C1311 C1312 1.398 . S
C1311 C1317 1.491 . S
C1312 H1303 0.950 . S
C1312 C1311 1.398 . S
C1312 C1313 1.391 . S
C1313 H1301 0.950 . S
C1313 C1309 1.393 . S
C1313 C1312 1.391 . S
C1314 H1304 0.950 . S
C1314 C1315 1.386 . S
C1314 C1316 1.391 . S
C1315 C1314 1.386 . S
C1315 C1319 1.393 . S
C1316 H1305 0.950 . S
C1316 C1314 1.391 . S
C1316 C1317 1.400 . S
C1317 C1311 1.491 . S
C1317 C1316 1.400 . S
C1317 C1318 1.398 . S
C1318 H1306 0.950 . S
C1318 C1317 1.398 . S
C1318 C1319 1.391 . S
C1319 H1307 0.950 . S
C1319 C1315 1.393 . S
C1319 C1318 1.391 . S
H1320 C1328 0.950 . S
H1321 C1333 0.950 . S
H1322 C1330 0.950 . S
H1323 C1332 0.950 . S
H1324 C1334 0.950 . S
H1325 C1336 0.950 . S
H1326 C1338 0.950 . S
H1327 C1339 0.950 . S
C1328 H1320 0.950 . S
C1328 C1329 1.386 . S
C1328 C1330 1.391 . S
C1329 C1328 1.386 . S
C1329 C1333 1.393 . S
C1330 H1322 0.950 . S
C1330 C1328 1.391 . S
C1330 C1331 1.400 . S
C1331 C1330 1.400 . S
C1331 C1332 1.398 . S
C1331 C1337 1.491 . S
C1332 H1323 0.950 . S
C1332 C1331 1.398 . S
C1332 C1333 1.391 . S
C1333 H1321 0.950 . S
C1333 C1329 1.393 . S
C1333 C1332 1.391 . S
C1334 H1324 0.950 . S
C1334 C1335 1.386 . S
C1334 C1336 1.391 . S
C1335 C1334 1.386 . S
C1335 C1339 1.393 . S
C1336 H1325 0.950 . S
C1336 C1334 1.391 . S
C1336 C1337 1.400 . S
C1337 C1331 1.491 . S
C1337 C1336 1.400 . S
C1337 C1338 1.398 . S
C1338 H1326 0.950 . S
C1338 C1337 1.398 . S
C1338 C1339 1.391 . S
C1339 H1327 0.950 . S
C1339 C1335 1.393 . S
C1339 C1338 1.391 . S
H1340 C1348 0.950 . S
H1341 C1353 0.950 . S
H1342 C1350 0.950 . S
H1343 C1352 0.950 . S
H1344 C1354 0.950 . S
H1345 C1356 0.950 . S
H1346 C1358 0.950 . S
H1347 C1359 0.950 . S
C1348 H1340 0.950 . S
C1348 C1349 1.386 . S
C1348 C1350 1.391 . S
C1349 C1348 1.386 . S
C1349 C1353 1.393 . S
C1350 H1342 0.950 . S
C1350 C1348 1.391 . S
C1350 C1351 1.400 . S
C1351 C1350 1.400 . S
C1351 C1352 1.398 . S
C1351 C1357 1.491 . S
C1352 H1343 0.950 . S
C1352 C1351 1.398 . S
C1352 C1353 1.391 . S
C1353 H1341 0.950 . S
C1353 C1349 1.393 . S
C1353 C1352 1.391 . S
C1354 H1344 0.950 . S
C1354 C1355 1.386 . S
C1354 C1356 1.391 . S
C1355 C1354 1.386 . S
C1355 C1359 1.393 . S
C1356 H1345 0.950 . S
C1356 C1354 1.391 . S
C1356 C1357 1.400 . S
C1357 C1351 1.491 . S
C1357 C1356 1.400 . S
C1357 C1358 1.398 . S
C1358 H1346 0.950 . S
C1358 C1357 1.398 . S
C1358 C1359 1.391 . S
C1359 H1347 0.950 . S
C1359 C1355 1.393 . S
C1359 C1358 1.391 . S
H1360 C1368 0.950 . S
H1361 C1373 0.950 . S
H1362 C1370 0.950 . S
H1363 C1372 0.950 . S
H1364 C1374 0.950 . S
H1365 C1376 0.950 . S
H1366 C1378 0.950 . S
H1367 C1379 0.950 . S
C1368 H1360 0.950 . S
C1368 C1369 1.377 1_554 S
C1368 C1370 1.400 . S
C1369 C1368 1.377 1_556 S
C1369 C1373 1.393 . S
C1370 H1362 0.950 . S
C1370 C1368 1.400 . S
C1370 C1371 1.400 . S
C1371 C1370 1.400 . S
C1371 C1372 1.398 . S
C1371 C1377 1.491 . S
C1372 H1363 0.950 . S
C1372 C1371 1.398 . S
C1372 C1373 1.391 1_554 S
C1373 H1361 0.950 . S
C1373 C1369 1.393 . S
C1373 C1372 1.391 1_556 S
C1374 H1364 0.950 . S
C1374 C1375 1.386 . S
C1374 C1376 1.391 . S
C1375 C1374 1.386 . S
C1375 C1379 1.393 . S
C1376 H1365 0.950 . S
C1376 C1374 1.391 . S
C1376 C1377 1.400 . S
C1377 C1371 1.491 . S
C1377 C1376 1.400 . S
C1377 C1378 1.398 . S
C1378 H1366 0.950 . S
C1378 C1377 1.398 . S
C1378 C1379 1.391 . S
C1379 H1367 0.950 . S
C1379 C1375 1.393 . S
C1379 C1378 1.391 . S
H1380 C1388 0.950 . S
H1381 C1393 0.950 . S
H1382 C1390 0.950 . S
H1383 C1392 0.950 . S
H1384 C1394 0.950 . S
H1385 C1396 0.950 . S
H1386 C1398 0.950 . S
H1387 C1399 0.950 . S
C1388 H1380 0.950 . S
C1388 C1389 1.386 . S
C1388 C1390 1.391 . S
C1389 C1388 1.386 . S
C1389 C1393 1.393 . S
C1390 H1382 0.950 . S
C1390 C1388 1.391 . S
C1390 C1391 1.400 . S
C1391 C1390 1.400 . S
C1391 C1392 1.398 . S
C1391 C1397 1.491 . S
C1392 H1383 0.950 . S
C1392 C1391 1.398 . S
C1392 C1393 1.391 . S
C1393 H1381 0.950 . S
C1393 C1389 1.393 . S
C1393 C1392 1.391 . S
C1394 H1384 0.950 . S
C1394 C1395 1.386 . S
C1394 C1396 1.391 . S
C1395 C1394 1.386 . S
C1395 C1399 1.393 1_556 S
C1396 H1385 0.950 . S
C1396 C1394 1.391 . S
C1396 C1397 1.400 1_556 S
C1397 C1391 1.491 . S
C1397 C1396 1.400 1_554 S
C1397 C1398 1.398 . S
C1398 H1386 0.950 . S
C1398 C1397 1.398 . S
C1398 C1399 1.391 . S
C1399 H1387 0.950 . S
C1399 C1395 1.393 1_554 S
C1399 C1398 1.391 . S
H1400 C1408 0.950 . S
H1401 C1413 0.950 . S
H1402 C1410 0.950 . S
H1403 C1412 0.950 . S
H1404 C1414 0.950 1_556 S
H1405 C1416 0.950 . S
H1406 C1418 0.950 . S
H1407 C1419 0.950 . S
C1408 H1400 0.950 . S
C1408 C1409 1.386 1_554 S
C1408 C1410 1.391 . S
C1409 C1408 1.386 1_556 S
C1409 C1413 1.393 . S
C1410 H1402 0.950 . S
C1410 C1408 1.391 . S
C1410 C1411 1.400 . S
C1411 C1410 1.400 . S
C1411 C1412 1.398 1_554 S
C1411 C1417 1.491 . S
C1412 H1403 0.950 . S
C1412 C1411 1.398 1_556 S
C1412 C1413 1.391 . S
C1413 H1401 0.950 . S
C1413 C1409 1.393 . S
C1413 C1412 1.391 . S
C1414 H1404 0.950 1_554 S
C1414 C1415 1.386 . S
C1414 C1416 1.391 1_554 S
C1415 C1414 1.386 . S
C1415 C1419 1.393 . S
C1416 H1405 0.950 . S
C1416 C1414 1.391 1_556 S
C1416 C1417 1.400 1_556 S
C1417 C1411 1.491 . S
C1417 C1416 1.400 1_554 S
C1417 C1418 1.398 . S
C1418 H1406 0.950 . S
C1418 C1417 1.398 . S
C1418 C1419 1.391 . S
C1419 H1407 0.950 . S
C1419 C1415 1.393 . S
C1419 C1418 1.391 . S
H1420 C1428 0.950 . S
H1421 C1433 0.950 . S
H1422 C1430 0.950 . S
H1423 C1432 0.950 . S
H1424 C1434 0.950 . S
H1425 C1436 0.950 . S
H1426 C1438 0.950 . S
H1427 C1439 0.950 . S
C1428 H1420 0.950 . S
C1428 C1429 1.386 . S
C1428 C1430 1.391 . S
C1429 C1428 1.386 . S
C1429 C1433 1.393 . S
C1430 H1422 0.950 . S
C1430 C1428 1.391 . S
C1430 C1431 1.400 . S
C1431 C1430 1.400 . S
C1431 C1432 1.398 . S
C1431 C1437 1.491 . S
C1432 H1423 0.950 . S
C1432 C1431 1.398 . S
C1432 C1433 1.391 . S
C1433 H1421 0.950 . S
C1433 C1429 1.393 . S
C1433 C1432 1.391 . S
C1434 H1424 0.950 . S
C1434 C1435 1.386 1_554 S
C1434 C1436 1.391 . S
C1435 C1434 1.386 1_556 S
C1435 C1439 1.393 . S
C1436 H1425 0.950 . S
C1436 C1434 1.391 . S
C1436 C1437 1.400 . S
C1437 C1431 1.491 . S
C1437 C1436 1.400 . S
C1437 C1438 1.398 1_554 S
C1438 H1426 0.950 . S
C1438 C1437 1.398 1_556 S
C1438 C1439 1.391 . S
C1439 H1427 0.950 . S
C1439 C1435 1.393 . S
C1439 C1438 1.391 . S
H1440 C1448 0.950 . S
H1441 C1453 0.950 . S
H1442 C1450 0.950 . S
H1443 C1452 0.950 . S
H1444 C1454 0.950 . S
H1445 C1456 0.950 . S
H1446 C1458 0.950 . S
H1447 C1459 0.950 . S
C1448 H1440 0.950 . S
C1448 C1449 1.386 . S
C1448 C1450 1.391 . S
C1449 C1448 1.386 . S
C1449 C1453 1.393 . S
C1450 H1442 0.950 . S
C1450 C1448 1.391 . S
C1450 C1451 1.400 . S
C1451 C1450 1.400 . S
C1451 C1452 1.398 . S
C1451 C1457 1.491 . S
C1452 H1443 0.950 . S
C1452 C1451 1.398 . S
C1452 C1453 1.391 . S
C1453 H1441 0.950 . S
C1453 C1449 1.393 . S
C1453 C1452 1.391 . S
C1454 H1444 0.950 . S
C1454 C1455 1.386 . S
C1454 C1456 1.391 . S
C1455 C1454 1.386 . S
C1455 C1459 1.393 . S
C1456 H1445 0.950 . S
C1456 C1454 1.391 . S
C1456 C1457 1.400 . S
C1457 C1451 1.491 . S
C1457 C1456 1.400 . S
C1457 C1458 1.398 . S
C1458 H1446 0.950 . S
C1458 C1457 1.398 . S
C1458 C1459 1.391 . S
C1459 H1447 0.950 . S
C1459 C1455 1.393 . S
C1459 C1458 1.391 . S
H1460 C1468 0.950 . S
H1461 C1473 0.950 . S
H1462 C1470 0.950 . S
H1463 C1472 0.950 . S
H1464 C1474 0.950 . S
H1465 C1476 0.950 . S
H1466 C1478 0.950 . S
H1467 C1479 0.950 . S
C1468 H1460 0.950 . S
C1468 C1469 1.386 . S
C1468 C1470 1.391 . S
C1469 C1468 1.386 . S
C1469 C1473 1.393 . S
C1470 H1462 0.950 . S
C1470 C1468 1.391 . S
C1470 C1471 1.400 . S
C1471 C1470 1.400 . S
C1471 C1472 1.398 . S
C1471 C1477 1.491 . S
C1472 H1463 0.950 . S
C1472 C1471 1.398 . S
C1472 C1473 1.391 . S
C1473 H1461 0.950 . S
C1473 C1469 1.393 . S
C1473 C1472 1.391 . S
C1474 H1464 0.950 . S
C1474 C1475 1.386 . S
C1474 C1476 1.391 . S
C1475 C1474 1.386 . S
C1475 C1479 1.393 . S
C1476 H1465 0.950 . S
C1476 C1474 1.391 . S
C1476 C1477 1.400 . S
C1477 C1471 1.491 . S
C1477 C1476 1.400 . S
C1477 C1478 1.398 . S
C1478 H1466 0.950 . S
C1478 C1477 1.398 . S
C1478 C1479 1.391 . S
C1479 H1467 0.950 . S
C1479 C1475 1.393 . S
C1479 C1478 1.391 . S
H1480 C1488 0.950 . S
H1481 C1493 0.950 . S
H1482 C1490 0.950 . S
H1483 C1492 0.950 . S
H1484 C1494 0.950 . S
H1485 C1496 0.950 . S
H1486 C1498 0.950 . S
H1487 C1499 0.950 . S
C1488 H1480 0.950 . S
C1488 C1489 1.386 . S
C1488 C1490 1.391 . S
C1489 C1488 1.386 . S
C1489 C1493 1.393 . S
C1490 H1482 0.950 . S
C1490 C1488 1.391 . S
C1490 C1491 1.400 . S
C1491 C1490 1.400 . S
C1491 C1492 1.398 . S
C1491 C1497 1.491 . S
C1492 H1483 0.950 . S
C1492 C1491 1.398 . S
C1492 C1493 1.391 . S
C1493 H1481 0.950 . S
C1493 C1489 1.393 . S
C1493 C1492 1.391 . S
C1494 H1484 0.950 . S
C1494 C1495 1.386 . S
C1494 C1496 1.391 . S
C1495 C1494 1.386 . S
C1495 C1499 1.393 . S
C1496 H1485 0.950 . S
C1496 C1494 1.391 . S
C1496 C1497 1.400 . S
C1497 C1491 1.491 . S
C1497 C1496 1.400 . S
C1497 C1498 1.398 . S
C1498 H1486 0.950 . S
C1498 C1497 1.398 . S
C1498 C1499 1.391 . S
C1499 H1487 0.950 . S
C1499 C1495 1.393 . S
C1499 C1498 1.391 . S
H1500 C1508 0.950 . S
H1501 C1513 0.950 . S
H1502 C1510 0.950 . S
H1503 C1512 0.950 . S
H1504 C1514 0.950 . S
H1505 C1516 0.950 . S
H1506 C1518 0.950 . S
H1507 C1519 0.950 . S
C1508 H1500 0.950 . S
C1508 C1509 1.386 . S
C1508 C1510 1.391 . S
C1509 C1508 1.386 . S
C1509 C1513 1.393 . S
C1510 H1502 0.950 . S
C1510 C1508 1.391 . S
C1510 C1511 1.400 . S
C1511 C1510 1.400 . S
C1511 C1512 1.398 . S
C1511 C1517 1.491 . S
C1512 H1503 0.950 . S
C1512 C1511 1.398 . S
C1512 C1513 1.391 . S
C1513 H1501 0.950 . S
C1513 C1509 1.393 . S
C1513 C1512 1.391 . S
C1514 H1504 0.950 . S
C1514 C1515 1.386 . S
C1514 C1516 1.391 . S
C1515 C1514 1.386 . S
C1515 C1519 1.393 . S
C1516 H1505 0.950 . S
C1516 C1514 1.391 . S
C1516 C1517 1.400 . S
C1517 C1511 1.491 . S
C1517 C1516 1.400 . S
C1517 C1518 1.398 . S
C1518 H1506 0.950 . S
C1518 C1517 1.398 . S
C1518 C1519 1.391 . S
C1519 H1507 0.950 . S
C1519 C1515 1.393 . S
C1519 C1518 1.391 . S
H1520 C1528 0.950 . S
H1521 C1533 0.950 . S
H1522 C1530 0.950 . S
H1523 C1532 0.950 . S
H1524 C1534 0.950 . S
H1525 C1536 0.950 . S
H1526 C1538 0.950 . S
H1527 C1539 0.950 . S
C1528 H1520 0.950 . S
C1528 C1529 1.386 . S
C1528 C1530 1.391 . S
C1529 C1528 1.386 . S
C1529 C1533 1.393 . S
C1530 H1522 0.950 . S
C1530 C1528 1.391 . S
C1530 C1531 1.400 . S
C1531 C1530 1.400 . S
C1531 C1532 1.398 . S
C1531 C1537 1.491 . S
C1532 H1523 0.950 . S
C1532 C1531 1.398 . S
C1532 C1533 1.391 . S
C1533 H1521 0.950 . S
C1533 C1529 1.393 . S
C1533 C1532 1.391 . S
C1534 H1524 0.950 . S
C1534 C1535 1.386 . S
C1534 C1536 1.391 1_554 S
C1535 C1534 1.386 . S
C1535 C1539 1.393 . S
C1536 H1525 0.950 . S
C1536 C1534 1.391 1_556 S
C1536 C1537 1.400 . S
C1537 C1531 1.491 . S
C1537 C1536 1.400 . S
C1537 C1538 1.398 . S
C1538 H1526 0.950 . S
C1538 C1537 1.398 . S
C1538 C1539 1.391 1_556 S
C1539 H1527 0.950 . S
C1539 C1535 1.393 . S
C1539 C1538 1.391 1_554 S
H1540 C1548 0.950 1_554 S
H1541 C1553 0.950 . S
H1542 C1550 0.950 . S
H1543 C1552 0.950 . S
H1544 C1554 0.950 . S
H1545 C1556 0.950 . S
H1546 C1558 0.950 . S
H1547 C1559 0.950 . S
C1548 H1540 0.950 1_556 S
C1548 C1549 1.386 . S
C1548 C1550 1.391 1_556 S
C1549 C1548 1.386 . S
C1549 C1553 1.393 . S
C1550 H1542 0.950 . S
C1550 C1548 1.391 1_554 S
C1550 C1551 1.400 1_554 S
C1551 C1550 1.400 1_556 S
C1551 C1552 1.398 . S
C1551 C1557 1.491 . S
C1552 H1543 0.950 . S
C1552 C1551 1.398 . S
C1552 C1553 1.391 . S
C1553 H1541 0.950 . S
C1553 C1549 1.393 . S
C1553 C1552 1.391 . S
C1554 H1544 0.950 . S
C1554 C1555 1.386 1_556 S
C1554 C1556 1.391 . S
C1555 C1554 1.386 1_554 S
C1555 C1559 1.393 . S
C1556 H1545 0.950 . S
C1556 C1554 1.391 . S
C1556 C1557 1.400 . S
C1557 C1551 1.491 . S
C1557 C1556 1.400 . S
C1557 C1558 1.398 1_556 S
C1558 H1546 0.950 . S
C1558 C1557 1.398 1_554 S
C1558 C1559 1.391 . S
C1559 H1547 0.950 . S
C1559 C1555 1.393 . S
C1559 C1558 1.391 . S
H1560 C1568 0.950 . S
H1561 C1573 0.950 . S
H1562 C1570 0.950 . S
H1563 C1572 0.950 . S
H1564 C1574 0.950 . S
H1565 C1576 0.950 . S
H1566 C1578 0.950 . S
H1567 C1579 0.950 . S
C1568 H1560 0.950 . S
C1568 C1569 1.386 . S
C1568 C1570 1.391 1_554 S
C1569 C1568 1.386 . S
C1569 C1573 1.393 . S
C1570 H1562 0.950 . S
C1570 C1568 1.391 1_556 S
C1570 C1571 1.400 . S
C1571 C1570 1.400 . S
C1571 C1572 1.398 . S
C1571 C1577 1.491 . S
C1572 H1563 0.950 . S
C1572 C1571 1.398 . S
C1572 C1573 1.391 1_556 S
C1573 H1561 0.950 . S
C1573 C1569 1.393 . S
C1573 C1572 1.391 1_554 S
C1574 H1564 0.950 . S
C1574 C1575 1.386 . S
C1574 C1576 1.391 . S
C1575 C1574 1.386 . S
C1575 C1579 1.393 . S
C1576 H1565 0.950 . S
C1576 C1574 1.391 . S
C1576 C1577 1.400 . S
C1577 C1571 1.491 . S
C1577 C1576 1.400 . S
C1577 C1578 1.398 . S
C1578 H1566 0.950 . S
C1578 C1577 1.398 . S
C1578 C1579 1.391 . S
C1579 H1567 0.950 . S
C1579 C1575 1.393 . S
C1579 C1578 1.391 . S
H1580 C1588 0.950 . S
H1581 C1593 0.950 . S
H1582 C1590 0.950 . S
H1583 C1592 0.950 . S
H1584 C1594 0.950 1_554 S
H1585 C1596 0.950 . S
H1586 C1598 0.950 . S
H1587 C1599 0.950 . S
C1588 H1580 0.950 . S
C1588 C1589 1.386 1_556 S
C1588 C1590 1.391 . S
C1589 C1588 1.386 1_554 S
C1589 C1593 1.393 . S
C1590 H1582 0.950 . S
C1590 C1588 1.391 . S
C1590 C1591 1.400 . S
C1591 C1590 1.400 . S
C1591 C1592 1.398 1_556 S
C1591 C1597 1.491 . S
C1592 H1583 0.950 . S
C1592 C1591 1.398 1_554 S
C1592 C1593 1.391 . S
C1593 H1581 0.950 . S
C1593 C1589 1.393 . S
C1593 C1592 1.391 . S
C1594 H1584 0.950 1_556 S
C1594 C1595 1.386 . S
C1594 C1596 1.391 1_556 S
C1595 C1594 1.386 . S
C1595 C1599 1.393 . S
C1596 H1585 0.950 . S
C1596 C1594 1.391 1_554 S
C1596 C1597 1.400 1_554 S
C1597 C1591 1.491 . S
C1597 C1596 1.400 1_556 S
C1597 C1598 1.398 . S
C1598 H1586 0.950 . S
C1598 C1597 1.398 . S
C1598 C1599 1.391 . S
C1599 H1587 0.950 . S
C1599 C1595 1.393 . S
C1599 C1598 1.391 . S
C649 C23 2.336 . S
C655 C223 2.357 . S
C669 C263 2.346 . S
C675 C63 2.345 . S
C689 C103 2.359 . S
C695 C303 2.336 . S
C709 C143 2.353 . S
C715 C183 2.340 . S
C729 C522 2.346 . S
C735 C322 2.359 . S
C749 C562 2.350 . S
C755 C362 2.342 . S
C769 C402 2.361 . S
C775 C602 2.343 . S
C789 C442 2.340 . S
C795 C482 2.353 . S
C809 C4 1.890 . S
C815 C140 1.784 1_545 S
C829 C44 1.905 . S
C835 C20 1.781 . S
C849 C84 1.891 . S
C855 C60 1.787 . S
C869 C124 1.893 . S
C875 C100 1.789 1_455 S
C889 C164 1.904 . S
C895 C220 1.792 1_565 S
C909 C260 1.794 . S
C915 C204 1.903 . S
C929 C244 1.894 . S
C935 C300 1.791 . S
C949 C180 1.786 1_655 S
C955 C284 1.906 . S
C969 C471 1.766 1_565 S
C975 C345 1.899 . S
C989 C385 1.905 . S
C995 C351 1.790 . S
C1009 C425 1.889 . S
C1015 C391 1.764 . S
C1029 C465 1.888 . S
C1035 C431 1.767 1_655 S
C1049 C505 1.905 . S
C1055 C551 1.780 1_545 S
C1069 C545 1.903 . S
C1075 C591 1.775 . S
C1089 C585 1.903 . S
C1095 C631 1.794 . S
C1109 C625 1.896 . S
C1115 C511 1.792 1_455 S
C1129 C25 1.386 . S
C1135 C105 1.389 . S
C1149 C65 1.394 . S
C1155 C145 1.387 . S
C1169 C265 1.397 . S
C1175 C185 1.392 . S
C1189 C305 1.393 . S
C1195 C225 1.397 . S
C1209 C404 1.389 . S
C1215 C324 1.396 . S
C1229 C444 1.388 . S
C1235 C364 1.396 . S
C1249 C484 1.397 . S
C1255 C564 1.393 . S
C1269 C524 1.386 . S
C1275 C604 1.393 . S
C1289 C31 2.689 . S
C1295 C463 2.666 . S
C1309 C343 2.674 . S
C1315 C71 2.694 . S
C1329 C111 2.692 . S
C1335 C383 2.670 . S
C1349 C423 2.668 . S
C1355 C151 2.690 . S
C1369 C543 2.675 . S
C1375 C191 2.695 . S
C1389 C231 2.695 . S
C1395 C583 2.676 . S
C1409 C623 2.670 . S
C1415 C271 2.691 . S
C1429 C311 2.689 . S
C1435 C503 2.666 . S
C1449 C340 2.691 . S
C1455 C122 2.669 . S
C1469 C380 2.690 . S
C1475 C2 2.668 . S
C1489 C42 2.676 . S
C1495 C420 2.695 . S
C1509 C460 2.693 . S
C1515 C82 2.673 . S
C1529 C500 2.689 . S
C1535 C202 2.666 . S
C1549 C540 2.692 . S
C1555 C242 2.671 . S
C1569 C282 2.676 . S
C1575 C580 2.695 . S
C1589 C162 2.673 . S
C1595 C620 2.694 . S
