# Generated by pormake.
# Topology upb, (4)-cn, num edge types: 1
# Building blocks:
#     Node 0, Type 0, BuildingBlock: NAHDIM_clean_sbu_0, # of connection points: 4
#     Node 1, Type 0, BuildingBlock: NAHDIM_clean_sbu_0, # of connection points: 4
#     Node 2, Type 0, BuildingBlock: NAHDIM_clean_sbu_0, # of connection points: 4
#     Node 3, Type 0, BuildingBlock: NAHDIM_clean_sbu_0, # of connection points: 4
#     Node 4, Type 0, BuildingBlock: NAHDIM_clean_sbu_0, # of connection points: 4
#     Node 5, Type 0, BuildingBlock: NAHDIM_clean_sbu_0, # of connection points: 4
#     Node 6, Type 0, BuildingBlock: NAHDIM_clean_sbu_0, # of connection points: 4
#     Node 7, Type 0, BuildingBlock: NAHDIM_clean_sbu_0, # of connection points: 4
#     Node 8, Type 0, BuildingBlock: NAHDIM_clean_sbu_0, # of connection points: 4
#     Node 9, Type 0, BuildingBlock: NAHDIM_clean_sbu_0, # of connection points: 4
#     Node 10, Type 0, BuildingBlock: NAHDIM_clean_sbu_0, # of connection points: 4
#     Node 11, Type 0, BuildingBlock: NAHDIM_clean_sbu_0, # of connection points: 4
#     Node 12, Type 0, BuildingBlock: NAHDIM_clean_sbu_0, # of connection points: 4
#     Node 13, Type 0, BuildingBlock: NAHDIM_clean_sbu_0, # of connection points: 4
#     Node 14, Type 0, BuildingBlock: NAHDIM_clean_sbu_0, # of connection points: 4
#     Node 15, Type 0, BuildingBlock: NAHDIM_clean_sbu_0, # of connection points: 4
#     Edge 16, Type (0, 0), BuildingBlock: XIVTED_clean_linker_0, # of connection points: 2
#     Edge 17, Type (0, 0), BuildingBlock: XIVTED_clean_linker_0, # of connection points: 2
#     Edge 18, Type (0, 0), BuildingBlock: XIVTED_clean_linker_0, # of connection points: 2
#     Edge 19, Type (0, 0), BuildingBlock: XIVTED_clean_linker_0, # of connection points: 2
#     Edge 20, Type (0, 0), BuildingBlock: XIVTED_clean_linker_0, # of connection points: 2
#     Edge 21, Type (0, 0), BuildingBlock: XIVTED_clean_linker_0, # of connection points: 2
#     Edge 22, Type (0, 0), BuildingBlock: XIVTED_clean_linker_0, # of connection points: 2
#     Edge 23, Type (0, 0), BuildingBlock: XIVTED_clean_linker_0, # of connection points: 2
#     Edge 24, Type (0, 0), BuildingBlock: XIVTED_clean_linker_0, # of connection points: 2
#     Edge 25, Type (0, 0), BuildingBlock: XIVTED_clean_linker_0, # of connection points: 2
#     Edge 26, Type (0, 0), BuildingBlock: XIVTED_clean_linker_0, # of connection points: 2
#     Edge 27, Type (0, 0), BuildingBlock: XIVTED_clean_linker_0, # of connection points: 2
#     Edge 28, Type (0, 0), BuildingBlock: XIVTED_clean_linker_0, # of connection points: 2
#     Edge 29, Type (0, 0), BuildingBlock: XIVTED_clean_linker_0, # of connection points: 2
#     Edge 30, Type (0, 0), BuildingBlock: XIVTED_clean_linker_0, # of connection points: 2
#     Edge 31, Type (0, 0), BuildingBlock: XIVTED_clean_linker_0, # of connection points: 2
#     Edge 32, Type (0, 0), BuildingBlock: XIVTED_clean_linker_0, # of connection points: 2
#     Edge 33, Type (0, 0), BuildingBlock: XIVTED_clean_linker_0, # of connection points: 2
#     Edge 34, Type (0, 0), BuildingBlock: XIVTED_clean_linker_0, # of connection points: 2
#     Edge 35, Type (0, 0), BuildingBlock: XIVTED_clean_linker_0, # of connection points: 2
#     Edge 36, Type (0, 0), BuildingBlock: XIVTED_clean_linker_0, # of connection points: 2
#     Edge 37, Type (0, 0), BuildingBlock: XIVTED_clean_linker_0, # of connection points: 2
#     Edge 38, Type (0, 0), BuildingBlock: XIVTED_clean_linker_0, # of connection points: 2
#     Edge 39, Type (0, 0), BuildingBlock: XIVTED_clean_linker_0, # of connection points: 2
#     Edge 40, Type (0, 0), BuildingBlock: XIVTED_clean_linker_0, # of connection points: 2
#     Edge 41, Type (0, 0), BuildingBlock: XIVTED_clean_linker_0, # of connection points: 2
#     Edge 42, Type (0, 0), BuildingBlock: XIVTED_clean_linker_0, # of connection points: 2
#     Edge 43, Type (0, 0), BuildingBlock: XIVTED_clean_linker_0, # of connection points: 2
#     Edge 44, Type (0, 0), BuildingBlock: XIVTED_clean_linker_0, # of connection points: 2
#     Edge 45, Type (0, 0), BuildingBlock: XIVTED_clean_linker_0, # of connection points: 2
#     Edge 46, Type (0, 0), BuildingBlock: XIVTED_clean_linker_0, # of connection points: 2
#     Edge 47, Type (0, 0), BuildingBlock: XIVTED_clean_linker_0, # of connection points: 2
# Relax obj value: 0.223
# Max RMSD: 0.104
# Mean RMSD: 0.104
data_MOF--net-upb--node1-NAHDIM_clean_sbu_0--edge1-XIVTED_clean_linker_0
_symmetry_space_group_name_H-M    P1
_symmetry_Int_Tables_number       1
_symmetry_cell_setting            triclinic
loop_
_symmetry_equiv_pos_as_xyz
'x, y, z'
_cell_length_a     39.46494
_cell_length_b     39.464647
_cell_length_c     45.132482
_cell_angle_alpha  89.990631
_cell_angle_beta   90.004482
_cell_angle_gamma 89.98571
loop_
_atom_site_label
_atom_site_type_symbol
_atom_site_fract_x
_atom_site_fract_y
_atom_site_fract_z
_atom_type_partial_charge
C0 C 0.01846 0.34465 0.31689 0.0
O1 O 0.02357 0.34542 0.34562 0.0
O2 O 0.9946 0.28552 0.37272 0.0
Zn3 Zn 0.00046 0.27514 0.32925 0.0
O4 O 0.04232 0.24635 0.32487 0.0
C5 C 0.93147 0.25117 0.32822 0.0
O6 O 0.92771 0.27441 0.3488 0.0
O7 O 0.00712 0.31767 0.30509 0.0
C8 C 0.04561 0.22349 0.30526 0.0
O9 O 0.02084 0.21815 0.28638 0.0
C10 C 0.01976 0.28603 0.3903 0.0
O11 O 0.05038 0.28117 0.37971 0.0
O12 O 0.96011 0.24791 0.31566 0.0
C13 C 0.65716 0.01841 0.32255 0.0
O14 O 0.65321 0.0224 0.35123 0.0
O15 O 0.712 0.99964 0.38261 0.0
Zn16 Zn 0.72626 0.00653 0.34013 0.0
O17 O 0.75225 0.05035 0.33697 0.0
C18 C 0.78488 0.96855 0.34581 0.0
O19 O 0.78845 0.99247 0.36583 0.0
O20 O 0.68604 0.0097 0.31263 0.0
C21 C 0.77087 0.05637 0.3146 0.0
O22 O 0.77264 0.03383 0.29324 0.0
C23 C 0.70888 0.0243 0.40052 0.0
O24 O 0.71346 0.05534 0.39081 0.0
O25 O 0.75824 0.9684 0.32995 0.0
C26 C 0.98317 0.65797 0.30292 0.0
O27 O 0.98684 0.65259 0.33145 0.0
O28 O 0.00452 0.71433 0.36126 0.0
Zn29 Zn 0.99844 0.72784 0.31852 0.0
O30 O 0.95991 0.76126 0.31665 0.0
C31 C 0.06823 0.75009 0.31837 0.0
O32 O 0.07083 0.72871 0.34056 0.0
O33 O 0.98778 0.68762 0.29263 0.0
C34 C 0.96358 0.7882 0.33172 0.0
O35 O 0.99157 0.7923 0.34709 0.0
C36 C 0.97926 0.71013 0.37833 0.0
O37 O 0.9485 0.71325 0.36754 0.0
O38 O 0.04019 0.75256 0.30469 0.0
C39 C 0.33958 0.98512 0.31654 0.0
O40 O 0.34197 0.98388 0.34553 0.0
O41 O 0.2792 0.00554 0.37241 0.0
Zn42 Zn 0.26877 0.99768 0.3292 0.0
O43 O 0.24231 0.95433 0.32596 0.0
C44 C 0.24229 0.06551 0.32482 0.0
O45 O 0.26653 0.07182 0.34399 0.0
O46 O 0.31119 0.9923 0.30476 0.0
C47 C 0.22583 0.94654 0.30277 0.0
O48 O 0.22589 0.96742 0.28009 0.0
C49 C 0.2828 0.98071 0.39007 0.0
O50 O 0.281 0.94968 0.37965 0.0
O51 O 0.23926 0.03573 0.31447 0.0
C52 C 0.01323 0.65528 0.67449 0.0
O53 O 0.01895 0.65183 0.64599 0.0
O54 O 0.99344 0.70992 0.6141 0.0
Zn55 Zn 0.99938 0.72389 0.65678 0.0
O56 O 0.04291 0.7502 0.66053 0.0
C57 C 0.96071 0.78205 0.65079 0.0
O58 O 0.98451 0.78575 0.63068 0.0
O59 O 0.00262 0.68361 0.6842 0.0
C60 C 0.04854 0.76897 0.68287 0.0
O61 O 0.02566 0.77087 0.70395 0.0
C62 C 0.01865 0.70701 0.59676 0.0
O63 O 0.04938 0.71138 0.60727 0.0
O64 O 0.96088 0.7555 0.66676 0.0
C65 C 0.33894 0.01294 0.68371 0.0
O66 O 0.34116 0.01607 0.65482 0.0
O67 O 0.28048 0.99092 0.62695 0.0
Zn68 Zn 0.26909 0.99708 0.67019 0.0
O69 O 0.24062 0.03922 0.6739 0.0
C70 C 0.24453 0.92832 0.6712 0.0
O71 O 0.26824 0.92419 0.65109 0.0
O72 O 0.31102 0.00353 0.69513 0.0
C73 C 0.21806 0.04315 0.69368 0.0
O74 O 0.21277 0.01886 0.71305 0.0
C75 C 0.28216 0.01608 0.60942 0.0
O76 O 0.2778 0.0468 0.61996 0.0
O77 O 0.24119 0.9571 0.6835 0.0
C78 C 0.98422 0.34093 0.6819 0.0
O79 O 0.98292 0.34291 0.65288 0.0
O80 O 0.00349 0.27977 0.62658 0.0
Zn81 Zn 0.99575 0.26983 0.66989 0.0
O82 O 0.95213 0.24383 0.67347 0.0
C83 C 0.06322 0.24234 0.67388 0.0
O84 O 0.06965 0.26616 0.65434 0.0
O85 O 0.99104 0.31262 0.69398 0.0
C86 C 0.94488 0.22651 0.69633 0.0
O87 O 0.96645 0.22547 0.71849 0.0
C88 C 0.97864 0.28364 0.60897 0.0
O89 O 0.94763 0.28231 0.61948 0.0
O90 O 0.03355 0.23999 0.68462 0.0
C91 C 0.65573 0.98269 0.69505 0.0
O92 O 0.6508 0.98349 0.66629 0.0
O93 O 0.71092 0.00761 0.63655 0.0
Zn94 Zn 0.72485 0.00028 0.67907 0.0
O95 O 0.75785 0.96133 0.68002 0.0
C96 C 0.74766 0.06989 0.68027 0.0
O97 O 0.72573 0.07326 0.65857 0.0
O98 O 0.68488 0.98976 0.70535 0.0
C99 C 0.78457 0.96498 0.66463 0.0
O100 O 0.7887 0.99319 0.64958 0.0
C101 C 0.7076 0.98299 0.61864 0.0
O102 O 0.71166 0.95189 0.62842 0.0
O103 O 0.75029 0.04144 0.69328 0.0
C104 C 0.50956 0.84167 0.82222 0.0
O105 O 0.50525 0.84591 0.85083 0.0
O106 O 0.49128 0.78123 0.87882 0.0
Zn107 Zn 0.49905 0.77026 0.83574 0.0
O108 O 0.54146 0.7422 0.83304 0.0
C109 C 0.43063 0.74487 0.83163 0.0
O110 O 0.42505 0.76778 0.85217 0.0
O111 O 0.50645 0.8122 0.81116 0.0
C112 C 0.54807 0.72409 0.81049 0.0
O113 O 0.52655 0.72347 0.78829 0.0
C114 C 0.5162 0.78678 0.89599 0.0
O115 O 0.54705 0.78665 0.88505 0.0
O116 O 0.46013 0.74223 0.82057 0.0
C117 C 0.15415 0.52181 0.81139 0.0
O118 O 0.15345 0.52934 0.83972 0.0
O119 O 0.2105 0.49377 0.86867 0.0
Zn120 Zn 0.22247 0.50237 0.82583 0.0
O121 O 0.24998 0.54527 0.82384 0.0
C122 C 0.24861 0.43424 0.82207 0.0
O123 O 0.22416 0.4282 0.8411 0.0
O124 O 0.18077 0.50856 0.80052 0.0
C125 C 0.27119 0.55106 0.80327 0.0
O126 O 0.27523 0.52855 0.78213 0.0
C127 C 0.20897 0.51796 0.88723 0.0
O128 O 0.21383 0.54916 0.87801 0.0
O129 O 0.25183 0.46391 0.81149 0.0
C130 C 0.47625 0.15491 0.81644 0.0
O131 O 0.47319 0.15234 0.84532 0.0
O132 O 0.49511 0.21225 0.87398 0.0
Zn133 Zn 0.49061 0.2247 0.83083 0.0
O134 O 0.44885 0.25362 0.82639 0.0
C135 C 0.55882 0.249 0.83468 0.0
O136 O 0.56029 0.22534 0.85511 0.0
O137 O 0.48498 0.18316 0.80523 0.0
C138 C 0.4456 0.27599 0.80634 0.0
O139 O 0.47032 0.28068 0.78728 0.0
C140 C 0.4704 0.21157 0.89201 0.0
O141 O 0.43965 0.21785 0.88228 0.0
O142 O 0.53174 0.25246 0.81971 0.0
C143 C 0.83947 0.48563 0.8056 0.0
O144 O 0.84417 0.4895 0.8342 0.0
O145 O 0.78041 0.50091 0.86349 0.0
Zn146 Zn 0.76815 0.4946 0.8204 0.0
O147 O 0.73851 0.45315 0.81636 0.0
C148 C 0.74314 0.56319 0.82021 0.0
O149 O 0.76607 0.56697 0.84105 0.0
O150 O 0.8097 0.48809 0.795 0.0
C151 C 0.71726 0.44594 0.83656 0.0
O152 O 0.71466 0.46583 0.85979 0.0
C153 C 0.78862 0.47675 0.88068 0.0
O154 O 0.79072 0.44582 0.87007 0.0
O155 O 0.74051 0.53474 0.80722 0.0
C156 C 0.52056 0.15533 0.18499 0.0
O157 O 0.52655 0.15451 0.15638 0.0
O158 O 0.49143 0.21207 0.12861 0.0
Zn159 Zn 0.50046 0.22382 0.1714 0.0
O160 O 0.54295 0.25207 0.17296 0.0
C161 C 0.4319 0.24835 0.17561 0.0
O162 O 0.42648 0.22405 0.15629 0.0
O163 O 0.50795 0.18201 0.19632 0.0
C164 C 0.5481 0.27484 0.19235 0.0
O165 O 0.52503 0.28037 0.21277 0.0
C166 C 0.51535 0.21071 0.10979 0.0
O167 O 0.54667 0.21556 0.11869 0.0
O168 O 0.46147 0.25211 0.18627 0.0
C169 C 0.84006 0.51793 0.17274 0.0
O170 O 0.84085 0.5221 0.14389 0.0
O171 O 0.78059 0.49301 0.11759 0.0
Zn172 Zn 0.77022 0.50174 0.16078 0.0
O173 O 0.74378 0.54519 0.16366 0.0
C174 C 0.7426 0.4343 0.16557 0.0
O175 O 0.76535 0.42781 0.14509 0.0
O176 O 0.81286 0.50762 0.18485 0.0
C177 C 0.72753 0.55354 0.18684 0.0
O178 O 0.72767 0.53311 0.20983 0.0
C179 C 0.78224 0.51743 0.09928 0.0
O180 O 0.77817 0.54857 0.10892 0.0
O181 O 0.7409 0.46397 0.17641 0.0
C182 C 0.48229 0.84216 0.18864 0.0
O183 O 0.48406 0.84578 0.15977 0.0
O184 O 0.50427 0.78376 0.13214 0.0
Zn185 Zn 0.49934 0.77216 0.17546 0.0
O186 O 0.46134 0.73834 0.17915 0.0
C187 C 0.56913 0.74986 0.17471 0.0
O188 O 0.57086 0.76985 0.15148 0.0
O189 O 0.48869 0.81343 0.20012 0.0
C190 C 0.46564 0.71048 0.16556 0.0
O191 O 0.4938 0.70588 0.15053 0.0
C192 C 0.47869 0.78559 0.11511 0.0
O193 O 0.44823 0.78127 0.12624 0.0
O194 O 0.54168 0.74841 0.18938 0.0
C195 C 0.15742 0.4824 0.18245 0.0
O196 O 0.15388 0.47893 0.15369 0.0
O197 O 0.21334 0.49957 0.12319 0.0
Zn198 Zn 0.22699 0.49321 0.16587 0.0
O199 O 0.25298 0.44944 0.16965 0.0
C200 C 0.28547 0.53121 0.16011 0.0
O201 O 0.28921 0.50693 0.14045 0.0
O202 O 0.1863 0.4904 0.19285 0.0
C203 C 0.27278 0.44418 0.19138 0.0
O204 O 0.27585 0.46753 0.21195 0.0
C205 C 0.21091 0.47488 0.10524 0.0
O206 O 0.21589 0.4439 0.11495 0.0
O207 O 0.25875 0.53159 0.17586 0.0
H208 H 0.05859 0.16796 0.27051 0.0
H209 H 0.23766 0.12986 0.34713 0.0
H210 H 0.10302 0.23052 0.3387 0.0
H211 H 0.18782 0.06051 0.28734 0.0
H212 H 0.19172 0.17038 0.33955 0.0
H213 H 0.10871 0.13153 0.27197 0.0
C214 C 0.07895 0.17417 0.28566 0.0
C215 C 0.07648 0.20221 0.30466 0.0
C216 C 0.19093 0.14639 0.32794 0.0
C217 C 0.13392 0.16065 0.3064 0.0
C218 C 0.21723 0.12325 0.33218 0.0
C219 C 0.21648 0.0916 0.31804 0.0
C220 C 0.16365 0.13787 0.30938 0.0
C221 C 0.18936 0.08452 0.29885 0.0
C222 C 0.10754 0.15333 0.2865 0.0
C223 C 0.1037 0.20905 0.32378 0.0
N224 N 0.16393 0.10739 0.29523 0.0
N225 N 0.1312 0.18835 0.32423 0.0
H226 H 0.87031 0.24556 0.35644 0.0
H227 H 0.81908 0.07363 0.27362 0.0
H228 H 0.93055 0.19976 0.28733 0.0
H229 H 0.77004 0.11016 0.35294 0.0
H230 H 0.85538 0.12383 0.27381 0.0
H231 H 0.82844 0.2005 0.35058 0.0
C232 C 0.87459 0.22625 0.3398 0.0
C233 C 0.90417 0.22629 0.32253 0.0
C234 C 0.83656 0.12093 0.29108 0.0
C235 C 0.85634 0.17452 0.31582 0.0
C236 C 0.81578 0.0923 0.29097 0.0
C237 C 0.79164 0.08755 0.31343 0.0
C238 C 0.83309 0.14508 0.31373 0.0
C239 C 0.78846 0.11264 0.3353 0.0
C240 C 0.8507 0.20044 0.33655 0.0
C241 C 0.90824 0.20062 0.30128 0.0
N242 N 0.80902 0.14026 0.33495 0.0
N243 N 0.8847 0.17566 0.29864 0.0
H244 H 0.84552 0.96523 0.37442 0.0
H245 H 0.9026 0.78897 0.30216 0.0
H246 H 0.78477 0.91209 0.30985 0.0
H247 H 0.96366 0.84741 0.36288 0.0
H248 H 0.85887 0.83304 0.30439 0.0
H249 H 0.88877 0.92166 0.37014 0.0
C250 C 0.84125 0.94438 0.35927 0.0
C251 C 0.81139 0.94231 0.34251 0.0
C252 C 0.88188 0.83618 0.31716 0.0
C253 C 0.86107 0.89201 0.33751 0.0
C254 C 0.90684 0.81104 0.31593 0.0
C255 C 0.93685 0.81448 0.33239 0.0
C256 C 0.88698 0.86488 0.33504 0.0
C257 C 0.94098 0.84362 0.34982 0.0
C258 C 0.86605 0.91945 0.35682 0.0
C259 C 0.80741 0.91468 0.3232 0.0
N260 N 0.91635 0.86759 0.3507 0.0
N261 N 0.83196 0.89052 0.32128 0.0
H262 H 0.12793 0.75801 0.34848 0.0
H263 H 0.18098 0.9257 0.26009 0.0
H264 H 0.07114 0.79823 0.27463 0.0
H265 H 0.2252 0.89513 0.34342 0.0
H266 H 0.14599 0.87454 0.26065 0.0
H267 H 0.16954 0.80319 0.34207 0.0
C268 C 0.1244 0.77608 0.33067 0.0
C269 C 0.09579 0.77451 0.31225 0.0
C270 C 0.16349 0.87897 0.27872 0.0
C271 C 0.14328 0.82645 0.30492 0.0
C272 C 0.1835 0.90815 0.2784 0.0
C273 C 0.20584 0.91486 0.30188 0.0
C274 C 0.16597 0.85626 0.30259 0.0
C275 C 0.20811 0.89114 0.32498 0.0
C276 C 0.14812 0.80197 0.32711 0.0
C277 C 0.09266 0.7986 0.2895 0.0
N278 N 0.18834 0.86298 0.3248 0.0
N279 N 0.11598 0.82372 0.28661 0.0
H280 H 0.06516 0.81754 0.72375 0.0
H281 H 0.23911 0.86695 0.64333 0.0
H282 H 0.10306 0.76758 0.64536 0.0
H283 H 0.19225 0.92813 0.71124 0.0
H284 H 0.19366 0.82543 0.64876 0.0
H285 H 0.11555 0.85358 0.72408 0.0
C286 C 0.08416 0.81399 0.70671 0.0
C287 C 0.07975 0.78966 0.68436 0.0
C288 C 0.19345 0.84783 0.66262 0.0
C289 C 0.1375 0.83079 0.68467 0.0
C290 C 0.21947 0.87151 0.65962 0.0
C291 C 0.21935 0.90125 0.67667 0.0
C292 C 0.16712 0.85383 0.68288 0.0
C293 C 0.19326 0.9057 0.69747 0.0
C294 C 0.1129 0.83461 0.7069 0.0
C295 C 0.10527 0.78615 0.6629 0.0
N296 N 0.16809 0.88235 0.69987 0.0
N297 N 0.13298 0.80656 0.66354 0.0
H298 H 0.16316 0.05746 0.7288 0.0
H299 H 0.12712 0.23622 0.65087 0.0
H300 H 0.2254 0.09987 0.65941 0.0
H301 H 0.05778 0.18842 0.71193 0.0
H302 H 0.16686 0.1896 0.65837 0.0
H303 H 0.12753 0.10816 0.72719 0.0
C304 C 0.16946 0.07749 0.71334 0.0
C305 C 0.19719 0.07429 0.69407 0.0
C306 C 0.14304 0.1894 0.67028 0.0
C307 C 0.15655 0.13239 0.69216 0.0
C308 C 0.12035 0.2161 0.66608 0.0
C309 C 0.08892 0.21613 0.68061 0.0
C310 C 0.13429 0.1625 0.68917 0.0
C311 C 0.08163 0.18937 0.70013 0.0
C312 C 0.14908 0.10641 0.71242 0.0
C313 C 0.20416 0.10111 0.67455 0.0
N314 N 0.10406 0.16354 0.7037 0.0
N315 N 0.18393 0.12895 0.67404 0.0
H316 H 0.92495 0.18023 0.73815 0.0
H317 H 0.75513 0.13046 0.65143 0.0
H318 H 0.89242 0.22753 0.6567 0.0
H319 H 0.79686 0.07126 0.72316 0.0
H320 H 0.80055 0.17177 0.65807 0.0
H321 H 0.87372 0.14534 0.73758 0.0
C322 C 0.90695 0.18345 0.72026 0.0
C323 C 0.91314 0.20663 0.6973 0.0
C324 C 0.79961 0.14987 0.67251 0.0
C325 C 0.85445 0.16688 0.69657 0.0
C326 C 0.77359 0.12632 0.66882 0.0
C327 C 0.77236 0.09715 0.68657 0.0
C328 C 0.82456 0.14429 0.69416 0.0
C329 C 0.79695 0.09324 0.70881 0.0
C330 C 0.87773 0.1635 0.71993 0.0
C331 C 0.88885 0.20979 0.67473 0.0
N332 N 0.82218 0.11641 0.71184 0.0
N333 N 0.86066 0.19005 0.67488 0.0
H334 H 0.84287 0.96473 0.63221 0.0
H335 H 0.90517 0.78219 0.68782 0.0
H336 H 0.78558 0.90377 0.69385 0.0
H337 H 0.95631 0.84224 0.62152 0.0
H338 H 0.86192 0.82663 0.69202 0.0
H339 H 0.88553 0.92032 0.62968 0.0
C340 C 0.83924 0.94198 0.64526 0.0
C341 C 0.81055 0.93799 0.66325 0.0
C342 C 0.88264 0.83 0.67658 0.0
C343 C 0.85953 0.88679 0.66046 0.0
C344 C 0.90734 0.80469 0.6742 0.0
C345 C 0.93439 0.80846 0.65425 0.0
C346 C 0.88514 0.85927 0.65896 0.0
C347 C 0.93593 0.83813 0.63716 0.0
C348 C 0.86366 0.91656 0.64379 0.0
C349 C 0.8073 0.9079 0.67965 0.0
N350 N 0.9117 0.86231 0.63992 0.0
N351 N 0.83152 0.88341 0.67787 0.0
H352 H 0.60085 0.72464 0.84979 0.0
H353 H 0.69297 0.56443 0.77819 0.0
H354 H 0.56635 0.67619 0.7695 0.0
H355 H 0.73515 0.62301 0.85007 0.0
H356 H 0.64749 0.6061 0.7734 0.0
H357 H 0.65097 0.68843 0.84939 0.0
C358 C 0.60385 0.70645 0.832 0.0
C359 C 0.57923 0.70329 0.80974 0.0
C360 C 0.66687 0.61001 0.79003 0.0
C361 C 0.63661 0.66165 0.8092 0.0
C362 C 0.69288 0.58623 0.79277 0.0
C363 C 0.71778 0.59008 0.81473 0.0
C364 C 0.66559 0.6377 0.80954 0.0
C365 C 0.71643 0.6189 0.83291 0.0
C366 C 0.63256 0.68584 0.83174 0.0
C367 C 0.58462 0.67943 0.78716 0.0
N368 N 0.69058 0.64141 0.8301 0.0
N369 N 0.61261 0.65934 0.78759 0.0
H370 H 0.36725 0.73847 0.85566 0.0
H371 H 0.32407 0.56821 0.76684 0.0
H372 H 0.43358 0.69418 0.79017 0.0
H373 H 0.26635 0.60455 0.84165 0.0
H374 H 0.36058 0.61809 0.77064 0.0
H375 H 0.32603 0.69365 0.84608 0.0
C376 C 0.37304 0.71952 0.83906 0.0
C377 C 0.40407 0.71994 0.82388 0.0
C378 C 0.33982 0.61521 0.78612 0.0
C379 C 0.35701 0.66843 0.8129 0.0
C380 C 0.31892 0.58676 0.78394 0.0
C381 C 0.29226 0.58205 0.8041 0.0
C382 C 0.33393 0.63919 0.80853 0.0
C383 C 0.28675 0.607 0.82575 0.0
C384 C 0.34951 0.69386 0.83367 0.0
C385 C 0.41009 0.69474 0.80255 0.0
N386 N 0.30747 0.63441 0.82746 0.0
N387 N 0.38686 0.6699 0.79782 0.0
H388 H 0.25303 0.37029 0.84527 0.0
H389 H 0.43269 0.33054 0.77038 0.0
H390 H 0.30347 0.43858 0.78493 0.0
H391 H 0.3882 0.27005 0.83996 0.0
H392 H 0.38253 0.36697 0.77091 0.0
H393 H 0.29911 0.3297 0.8387 0.0
C394 C 0.27362 0.37665 0.83041 0.0
C395 C 0.27449 0.40804 0.81582 0.0
C396 C 0.3837 0.34563 0.78596 0.0
C397 C 0.32749 0.36168 0.80833 0.0
C398 C 0.41232 0.32479 0.78565 0.0
C399 C 0.41477 0.29732 0.8053 0.0
C400 C 0.35728 0.33888 0.80597 0.0
C401 C 0.38753 0.29107 0.82455 0.0
C402 C 0.3 0.35347 0.82675 0.0
C403 C 0.30182 0.41478 0.79677 0.0
N404 N 0.36 0.31174 0.82445 0.0
N405 N 0.32732 0.39188 0.79371 0.0
H406 H 0.69726 0.41201 0.78654 0.0
H407 H 0.60892 0.26154 0.87477 0.0
H408 H 0.68969 0.4098 0.88189 0.0
H409 H 0.57064 0.29483 0.79 0.0
H410 H 0.6499 0.30791 0.87393 0.0
H411 H 0.66097 0.3614 0.78411 0.0
C412 C 0.68813 0.40075 0.80692 0.0
C413 C 0.69625 0.41513 0.83446 0.0
C414 C 0.63269 0.30483 0.85542 0.0
C415 C 0.65561 0.3573 0.83182 0.0
C416 C 0.60944 0.27828 0.85576 0.0
C417 C 0.58617 0.27446 0.83249 0.0
C418 C 0.63311 0.3274 0.83144 0.0
C419 C 0.588 0.29704 0.80848 0.0
C420 C 0.66743 0.37206 0.80549 0.0
C421 C 0.68377 0.39967 0.86021 0.0
N422 N 0.61111 0.32263 0.80854 0.0
N423 N 0.66423 0.37145 0.85828 0.0
H424 H 0.69175 0.43926 0.20676 0.0
H425 H 0.60256 0.26729 0.1554 0.0
H426 H 0.7345 0.37082 0.14217 0.0
H427 H 0.56439 0.33024 0.22616 0.0
H428 H 0.65223 0.30385 0.15173 0.0
H429 H 0.64632 0.39852 0.21592 0.0
C430 C 0.69177 0.41555 0.19468 0.0
C431 C 0.71687 0.40857 0.1735 0.0
C432 C 0.63311 0.30958 0.16819 0.0
C433 C 0.66475 0.36192 0.18373 0.0
C434 C 0.60467 0.28873 0.17027 0.0
C435 C 0.57914 0.29582 0.19101 0.0
C436 C 0.63601 0.33792 0.18684 0.0
C437 C 0.58338 0.32386 0.20978 0.0
C438 C 0.66579 0.3923 0.19992 0.0
C439 C 0.71563 0.37737 0.1586 0.0
N440 N 0.61116 0.34402 0.20711 0.0
N441 N 0.68986 0.35534 0.16383 0.0
H442 H 0.5735 0.7039 0.22015 0.0
H443 H 0.72721 0.60429 0.14557 0.0
H444 H 0.6272 0.73948 0.14283 0.0
H445 H 0.68302 0.5755 0.22938 0.0
H446 H 0.69243 0.65539 0.14556 0.0
H447 H 0.61527 0.65862 0.22569 0.0
C448 C 0.5943 0.70247 0.20454 0.0
C449 C 0.59665 0.72536 0.18081 0.0
C450 C 0.69048 0.63804 0.16407 0.0
C451 C 0.64434 0.67333 0.18684 0.0
C452 C 0.71027 0.60877 0.16405 0.0
C453 C 0.70783 0.58542 0.18741 0.0
C454 C 0.66781 0.64396 0.18749 0.0
C455 C 0.68562 0.59272 0.21085 0.0
C456 C 0.61812 0.67656 0.2077 0.0
C457 C 0.62423 0.72232 0.16135 0.0
N458 N 0.66625 0.62121 0.21018 0.0
N459 N 0.64677 0.69656 0.16462 0.0
H460 H 0.46734 0.64914 0.13781 0.0
H461 H 0.28459 0.58892 0.19452 0.0
H462 H 0.40418 0.71074 0.19439 0.0
H463 H 0.34657 0.53364 0.13224 0.0
H464 H 0.32867 0.6327 0.19721 0.0
H465 H 0.42393 0.60541 0.13795 0.0
C466 C 0.44433 0.65349 0.15032 0.0
C467 C 0.43939 0.68373 0.16606 0.0
C468 C 0.33256 0.61093 0.18302 0.0
C469 C 0.38932 0.63353 0.16631 0.0
C470 C 0.30746 0.58593 0.18151 0.0
C471 C 0.31185 0.55762 0.16305 0.0
C472 C 0.36222 0.60746 0.16604 0.0
C473 C 0.34197 0.55505 0.14669 0.0
C474 C 0.41947 0.62845 0.15038 0.0
C475 C 0.40902 0.68783 0.1819 0.0
N476 N 0.3659 0.5796 0.14856 0.0
N477 N 0.38507 0.663 0.1816 0.0
H478 H 0.32376 0.42858 0.23028 0.0
H479 H 0.3687 0.2528 0.15092 0.0
H480 H 0.26917 0.38871 0.15507 0.0
H481 H 0.43423 0.30177 0.21443 0.0
H482 H 0.32738 0.29822 0.15757 0.0
H483 H 0.35999 0.3783 0.22981 0.0
C484 C 0.31923 0.40916 0.2138 0.0
C485 C 0.29354 0.41299 0.19254 0.0
C486 C 0.3507 0.29891 0.1702 0.0
C487 C 0.33488 0.35537 0.19193 0.0
C488 C 0.37427 0.2729 0.16651 0.0
C489 C 0.40514 0.27361 0.18195 0.0
C490 C 0.35794 0.32581 0.18956 0.0
C491 C 0.41088 0.30029 0.20191 0.0
C492 C 0.33997 0.38049 0.21352 0.0
C493 C 0.28881 0.38696 0.17175 0.0
N494 N 0.38759 0.32543 0.20501 0.0
N495 N 0.30935 0.35932 0.17191 0.0
H496 H 0.05409 0.40083 0.33401 0.0
H497 H 0.09619 0.45476 0.1675 0.0
H498 H 0.01133 0.35236 0.25682 0.0
H499 H 0.15609 0.48453 0.24322 0.0
H500 H 0.0555 0.42801 0.20086 0.0
H501 H 0.08185 0.44206 0.30175 0.0
C502 C 0.05008 0.39913 0.31031 0.0
C503 C 0.0308 0.37273 0.29805 0.0
C504 C 0.07732 0.44078 0.21018 0.0
C505 C 0.06257 0.41984 0.26107 0.0
C506 C 0.10055 0.45617 0.19116 0.0
C507 C 0.12994 0.47141 0.20256 0.0
C508 C 0.08345 0.44072 0.24081 0.0
C509 C 0.13403 0.47268 0.23343 0.0
C510 C 0.06604 0.42265 0.29192 0.0
C511 C 0.02634 0.37201 0.26721 0.0
N512 N 0.11123 0.45717 0.25148 0.0
N513 N 0.0424 0.395 0.24975 0.0
H514 H 0.59595 0.04689 0.33639 0.0
H515 H 0.55746 0.09958 0.16887 0.0
H516 H 0.65703 0.01585 0.26179 0.0
H517 H 0.51232 0.1481 0.245 0.0
H518 H 0.58485 0.05884 0.20184 0.0
H519 H 0.55615 0.0737 0.30223 0.0
C520 C 0.60076 0.04523 0.3128 0.0
C521 C 0.63021 0.02957 0.30196 0.0
C522 C 0.56863 0.07816 0.21128 0.0
C523 C 0.58475 0.06035 0.2628 0.0
C524 C 0.55289 0.10141 0.19248 0.0
C525 C 0.53298 0.12766 0.20424 0.0
C526 C 0.56434 0.08109 0.24204 0.0
C527 C 0.5278 0.12855 0.23499 0.0
C528 C 0.57805 0.06066 0.29333 0.0
C529 C 0.6349 0.02801 0.27116 0.0
N530 N 0.54366 0.10582 0.25286 0.0
N531 N 0.6126 0.04355 0.25267 0.0
H532 H 0.89665 0.55207 0.15456 0.0
H533 H 0.95522 0.59732 0.31935 0.0
H534 H 0.84779 0.5128 0.23299 0.0
H535 H 0.98034 0.6572 0.24235 0.0
H536 H 0.92649 0.55653 0.28717 0.0
H537 H 0.93821 0.58055 0.18595 0.0
C538 C 0.89494 0.54896 0.17836 0.0
C539 C 0.86834 0.53046 0.1912 0.0
C540 C 0.93865 0.5784 0.27734 0.0
C541 C 0.91583 0.56306 0.22718 0.0
C542 C 0.95514 0.60165 0.29565 0.0
C543 C 0.96978 0.63096 0.28353 0.0
C544 C 0.93707 0.58439 0.24672 0.0
C545 C 0.969 0.63518 0.25267 0.0
C546 C 0.91862 0.56535 0.19625 0.0
C547 C 0.8676 0.52716 0.22216 0.0
N548 N 0.95269 0.61227 0.23534 0.0
N549 N 0.89081 0.54361 0.23914 0.0
H550 H 0.39822 0.95446 0.33464 0.0
H551 H 0.45181 0.9009 0.17046 0.0
H552 H 0.3449 0.98675 0.256 0.0
H553 H 0.48198 0.84654 0.24919 0.0
H554 H 0.42315 0.94272 0.20164 0.0
H555 H 0.43965 0.92551 0.30338 0.0
C556 C 0.39551 0.95597 0.31079 0.0
C557 C 0.36772 0.9726 0.29791 0.0
C558 C 0.4364 0.92184 0.21205 0.0
C559 C 0.41503 0.93947 0.2621 0.0
C560 C 0.45285 0.89801 0.19431 0.0
C561 C 0.46889 0.86991 0.20725 0.0
C562 C 0.43625 0.91768 0.24293 0.0
C563 C 0.46953 0.86756 0.23827 0.0
C564 C 0.41911 0.93931 0.29299 0.0
C565 C 0.36567 0.97385 0.26688 0.0
N566 N 0.45321 0.891 0.25506 0.0
N567 N 0.38883 0.95721 0.25002 0.0
H568 H 0.14681 0.5106 0.75176 0.0
H569 H 0.00749 0.65443 0.73508 0.0
H570 H 0.09837 0.55935 0.82619 0.0
H571 H 0.04581 0.59591 0.66152 0.0
H572 H 0.03532 0.61525 0.76919 0.0
H573 H 0.10527 0.53674 0.71878 0.0
C574 C 0.12718 0.52644 0.76122 0.0
C575 C 0.1264 0.53321 0.79174 0.0
C576 C 0.03724 0.61069 0.7456 0.0
C577 C 0.07895 0.5635 0.75407 0.0
C578 C 0.02131 0.63306 0.72609 0.0
C579 C 0.02477 0.62878 0.69537 0.0
C580 C 0.05704 0.58405 0.7343 0.0
C581 C 0.04277 0.60046 0.68502 0.0
C582 C 0.10343 0.54136 0.74237 0.0
C583 C 0.10019 0.5537 0.80277 0.0
N584 N 0.05866 0.57948 0.70443 0.0
N585 N 0.07782 0.56851 0.78391 0.0
H586 H 0.44593 0.0955 0.83299 0.0
H587 H 0.39687 0.04586 0.66688 0.0
H588 H 0.47961 0.15076 0.75585 0.0
H589 H 0.34397 0.00907 0.74421 0.0
H590 H 0.43752 0.07434 0.69922 0.0
H591 H 0.41897 0.05396 0.80055 0.0
C592 C 0.44812 0.09866 0.80923 0.0
C593 C 0.46458 0.12699 0.79712 0.0
C594 C 0.41726 0.05967 0.70908 0.0
C595 C 0.43372 0.07952 0.75992 0.0
C596 C 0.39408 0.0433 0.69065 0.0
C597 C 0.36662 0.02551 0.70287 0.0
C598 C 0.41306 0.05811 0.73993 0.0
C599 C 0.36448 0.02289 0.73383 0.0
C600 C 0.43262 0.07496 0.79074 0.0
C601 C 0.4668 0.12957 0.76616 0.0
N602 N 0.38719 0.03932 0.7513 0.0
N603 N 0.45122 0.10632 0.74862 0.0
H604 H 0.98766 0.34798 0.74224 0.0
H605 H 0.84224 0.48437 0.74505 0.0
H606 H 0.95233 0.39863 0.66326 0.0
H607 H 0.89997 0.45827 0.82302 0.0
H608 H 0.88464 0.4559 0.71447 0.0
H609 H 0.95868 0.39059 0.77229 0.0
C610 C 0.97425 0.36835 0.73121 0.0
C611 C 0.97198 0.36946 0.7002 0.0
C612 C 0.88834 0.45687 0.73823 0.0
C613 C 0.93842 0.41798 0.73443 0.0
C614 C 0.86409 0.47304 0.7557 0.0
C615 C 0.86737 0.47329 0.78664 0.0
C616 C 0.91573 0.44029 0.75185 0.0
C617 C 0.89633 0.45849 0.79925 0.0
C618 C 0.95775 0.39271 0.74838 0.0
C619 C 0.95451 0.39659 0.6871 0.0
N620 N 0.91911 0.44204 0.78184 0.0
N621 N 0.93788 0.41944 0.70429 0.0
H622 H 0.65448 0.98376 0.75569 0.0
H623 H 0.53198 0.90399 0.84051 0.0
H624 H 0.59622 0.95176 0.67973 0.0
H625 H 0.5187 0.84272 0.76211 0.0
H626 H 0.56253 0.9458 0.81084 0.0
H627 H 0.61353 0.95596 0.78799 0.0
C628 C 0.63272 0.97141 0.74583 0.0
C629 C 0.6289 0.96988 0.71495 0.0
C630 C 0.55303 0.92317 0.80016 0.0
C631 C 0.58157 0.93831 0.75184 0.0
C632 C 0.53523 0.89944 0.81701 0.0
C633 C 0.52335 0.86947 0.80388 0.0
C634 C 0.559 0.91679 0.76999 0.0
C635 C 0.52791 0.86518 0.77326 0.0
C636 C 0.6091 0.9558 0.76434 0.0
C637 C 0.60021 0.95351 0.70341 0.0
N638 N 0.5456 0.88846 0.7574 0.0
N639 N 0.57796 0.93786 0.72184 0.0
H640 H 0.06769 0.28739 0.43413 0.0
H641 H 0.93138 0.29255 0.56528 0.0
H642 H 0.95968 0.29389 0.41992 0.0
H643 H 0.03933 0.28514 0.57951 0.0
H644 H 0.9415 0.29695 0.51205 0.0
H645 H 0.05804 0.29048 0.48749 0.0
C646 C 0.04195 0.28967 0.44221 0.0
C647 C 0.01443 0.29017 0.42252 0.0
C648 C 0.96299 0.29453 0.52682 0.0
C649 C 0.00321 0.29359 0.48363 0.0
C650 C 0.95723 0.29201 0.55724 0.0
C651 C 0.98454 0.28826 0.57688 0.0
C652 C 0.9963 0.29319 0.51592 0.0
C653 C 0.01749 0.28786 0.56518 0.0
C654 C 0.03646 0.29141 0.4727 0.0
C655 C 0.98165 0.29327 0.43427 0.0
N656 N 0.02243 0.29011 0.53545 0.0
N657 N 0.97694 0.29469 0.46406 0.0
H658 H 0.70041 0.04422 0.59076 0.0
H659 H 0.70069 0.96315 0.42834 0.0
H660 H 0.70184 0.93654 0.57385 0.0
H661 H 0.70321 0.07081 0.44528 0.0
H662 H 0.6953 0.95298 0.48149 0.0
H663 H 0.69564 0.05444 0.53757 0.0
C664 C 0.69946 0.02269 0.57589 0.0
C665 C 0.70181 0.98945 0.58677 0.0
C666 C 0.6968 0.97884 0.47358 0.0
C667 C 0.69649 0.00102 0.5258 0.0
C668 C 0.69985 0.98468 0.44321 0.0
C669 C 0.7027 0.01789 0.43234 0.0
C670 C 0.69667 0.00639 0.49327 0.0
C671 C 0.70131 0.04478 0.45266 0.0
C672 C 0.69676 0.02856 0.5455 0.0
C673 C 0.7003 0.96258 0.56645 0.0
N674 N 0.69862 0.03843 0.48215 0.0
N675 N 0.69796 0.96896 0.53693 0.0
H676 H 0.06668 0.70084 0.55333 0.0
H677 H 0.93116 0.70219 0.42152 0.0
H678 H 0.9584 0.70083 0.56706 0.0
H679 H 0.03946 0.7043 0.40805 0.0
H680 H 0.94062 0.69639 0.47478 0.0
H681 H 0.05718 0.69671 0.50001 0.0
C682 C 0.04089 0.69971 0.54517 0.0
C683 C 0.01329 0.70147 0.5647 0.0
C684 C 0.96232 0.6979 0.46015 0.0
C685 C 0.00223 0.69691 0.50361 0.0
C686 C 0.95694 0.70119 0.42972 0.0
C687 C 0.98456 0.70401 0.41031 0.0
C688 C 0.99557 0.69749 0.47127 0.0
C689 C 0.0174 0.70242 0.4222 0.0
C690 C 0.03549 0.69738 0.51469 0.0
C691 C 0.98045 0.69973 0.55283 0.0
N692 N 0.02197 0.69949 0.45192 0.0
N693 N 0.97583 0.69779 0.52304 0.0
H694 H 0.29056 0.95592 0.58006 0.0
H695 H 0.28579 0.04147 0.41934 0.0
H696 H 0.2847 0.06391 0.56554 0.0
H697 H 0.28997 0.93342 0.43398 0.0
H698 H 0.28968 0.05041 0.47278 0.0
H699 H 0.29472 0.94741 0.5266 0.0
C700 C 0.29036 0.97787 0.56565 0.0
C701 C 0.28704 0.01068 0.5773 0.0
C702 C 0.28993 0.02474 0.4643 0.0
C703 C 0.29167 0.0011 0.51603 0.0
C704 C 0.28773 0.01962 0.43377 0.0
C705 C 0.28732 0.98662 0.42217 0.0
C706 C 0.29168 0.99669 0.4834 0.0
C707 C 0.29001 0.95929 0.44194 0.0
C708 C 0.29271 0.97299 0.53511 0.0
C709 C 0.28705 0.03816 0.55755 0.0
N710 N 0.29189 0.96493 0.47158 0.0
N711 N 0.28912 0.03273 0.52788 0.0
H712 H 0.56387 0.79719 0.9391 0.0
H713 H 0.42989 0.78801 0.072 0.0
H714 H 0.45596 0.78671 0.9262 0.0
H715 H 0.53816 0.79413 0.08475 0.0
H716 H 0.43854 0.79231 0.01854 0.0
H717 H 0.55451 0.80094 0.99247 0.0
C718 C 0.53817 0.79588 0.94746 0.0
C719 C 0.51068 0.79139 0.92814 0.0
C720 C 0.4604 0.7929 0.03304 0.0
C721 C 0.49979 0.79557 0.98928 0.0
C722 C 0.45547 0.79047 0.06359 0.0
C723 C 0.48335 0.79049 0.08289 0.0
C724 C 0.49345 0.79532 0.02168 0.0
C725 C 0.51592 0.79385 0.07071 0.0
C726 C 0.53285 0.79799 0.97796 0.0
C727 C 0.47794 0.79 0.94026 0.0
N728 N 0.52006 0.79596 0.04088 0.0
N729 N 0.47343 0.7919 0.97006 0.0
H730 H 0.2027 0.45623 0.91458 0.0
H731 H 0.20166 0.53593 0.07759 0.0
H732 H 0.20375 0.5637 0.93251 0.0
H733 H 0.20693 0.42846 0.06021 0.0
H734 H 0.19652 0.54629 0.02449 0.0
H735 H 0.19845 0.44535 0.96776 0.0
C736 C 0.20178 0.47756 0.92967 0.0
C737 C 0.20385 0.51094 0.91908 0.0
C738 C 0.1986 0.52042 0.03228 0.0
C739 C 0.19908 0.49864 0.97998 0.0
C740 C 0.2015 0.51447 0.06263 0.0
C741 C 0.20501 0.48127 0.07337 0.0
C742 C 0.19927 0.493 0.01246 0.0
C743 C 0.20448 0.45448 0.05292 0.0
C744 C 0.1994 0.47131 0.96004 0.0
C745 C 0.20245 0.53755 0.93967 0.0
N746 N 0.20189 0.46094 0.02343 0.0
N747 N 0.20034 0.53082 0.96912 0.0
H748 H 0.4532 0.20558 0.083 0.0
H749 H 0.53116 0.20019 0.91941 0.0
H750 H 0.56046 0.20457 0.06411 0.0
H751 H 0.4242 0.21066 0.9374 0.0
H752 H 0.54178 0.19553 0.97246 0.0
H753 H 0.44162 0.20133 0.02992 0.0
C754 C 0.47433 0.20422 0.06772 0.0
C755 C 0.50787 0.20568 0.078 0.0
C756 C 0.51595 0.19867 0.96483 0.0
C757 C 0.49477 0.20088 0.01725 0.0
C758 C 0.50984 0.20128 0.9345 0.0
C759 C 0.47673 0.2061 0.92393 0.0
C760 C 0.48879 0.20088 0.98482 0.0
C761 C 0.45014 0.20717 0.94456 0.0
C762 C 0.46769 0.20185 0.03742 0.0
C763 C 0.53421 0.20374 0.05719 0.0
N764 N 0.45677 0.20478 0.97405 0.0
N765 N 0.52709 0.2016 0.02782 0.0
H766 H 0.78864 0.53785 0.90921 0.0
H767 H 0.79076 0.45623 0.0714 0.0
H768 H 0.79772 0.43036 0.92525 0.0
H769 H 0.78572 0.56379 0.05438 0.0
H770 H 0.79648 0.4462 0.01816 0.0
H771 H 0.79091 0.54783 0.96247 0.0
C772 C 0.79134 0.51633 0.92393 0.0
C773 C 0.79277 0.48318 0.91274 0.0
C774 C 0.79431 0.472 0.0261 0.0
C775 C 0.79518 0.49445 0.97389 0.0
C776 C 0.79103 0.47775 0.0565 0.0
C777 C 0.78754 0.5109 0.06736 0.0
C778 C 0.79401 0.49958 0.00643 0.0
C779 C 0.78817 0.5378 0.04702 0.0
C780 C 0.79262 0.52206 0.95438 0.0
C781 C 0.79643 0.45633 0.93289 0.0
N782 N 0.79115 0.53153 0.01756 0.0
N783 N 0.79726 0.46253 0.96251 0.0
loop_
_geom_bond_atom_site_label_1
_geom_bond_atom_site_label_2
_geom_bond_distance
_geom_bond_site_symmetry_2
_ccdc_geom_bond_type
C0 O1 1.160 . S
C0 O7 1.185 . S
O1 C0 1.160 . S
O2 Zn3 1.899 . S
O2 C10 1.284 . S
Zn3 O2 1.899 . S
Zn3 O4 2.032 . S
Zn3 O7 2.086 . S
Zn3 O12 1.977 1_455 S
O4 Zn3 2.032 . S
O4 C8 1.278 . S
C5 O6 1.203 . S
C5 O12 1.267 . S
O6 C5 1.203 . S
O7 C0 1.185 . S
O7 Zn3 2.086 . S
C8 O4 1.278 . S
C8 O9 1.211 . S
O9 C8 1.211 . S
C10 O2 1.284 . S
C10 O11 1.273 . S
O11 C10 1.273 . S
O12 Zn3 1.977 1_655 S
O12 C5 1.267 . S
C13 O14 1.160 . S
C13 O20 1.185 . S
O14 C13 1.160 . S
O15 Zn16 1.899 . S
O15 C23 1.284 . S
Zn16 O15 1.899 . S
Zn16 O17 2.032 . S
Zn16 O20 2.086 . S
Zn16 O25 1.977 1_545 S
O17 Zn16 2.032 . S
O17 C21 1.278 . S
C18 O19 1.203 . S
C18 O25 1.267 . S
O19 C18 1.203 . S
O20 C13 1.185 . S
O20 Zn16 2.086 . S
C21 O17 1.278 . S
C21 O22 1.211 . S
O22 C21 1.211 . S
C23 O15 1.284 . S
C23 O24 1.273 . S
O24 C23 1.273 . S
O25 Zn16 1.977 1_565 S
O25 C18 1.267 . S
C26 O27 1.160 . S
C26 O33 1.185 . S
O27 C26 1.160 . S
O28 Zn29 1.899 . S
O28 C36 1.284 . S
Zn29 O28 1.899 . S
Zn29 O30 2.032 . S
Zn29 O33 2.086 . S
Zn29 O38 1.977 1_655 S
O30 Zn29 2.032 . S
O30 C34 1.278 . S
C31 O32 1.203 . S
C31 O38 1.267 . S
O32 C31 1.203 . S
O33 C26 1.185 . S
O33 Zn29 2.086 . S
C34 O30 1.278 . S
C34 O35 1.211 . S
O35 C34 1.211 . S
C36 O28 1.284 . S
C36 O37 1.273 . S
O37 C36 1.273 . S
O38 Zn29 1.977 1_455 S
O38 C31 1.267 . S
C39 O40 1.160 . S
C39 O46 1.185 . S
O40 C39 1.160 . S
O41 Zn42 1.899 . S
O41 C49 1.284 . S
Zn42 O41 1.899 . S
Zn42 O43 2.032 . S
Zn42 O46 2.086 . S
Zn42 O51 1.977 1_565 S
O43 Zn42 2.032 . S
O43 C47 1.278 . S
C44 O45 1.203 . S
C44 O51 1.267 . S
O45 C44 1.203 . S
O46 C39 1.185 . S
O46 Zn42 2.086 . S
C47 O43 1.278 . S
C47 O48 1.211 . S
O48 C47 1.211 . S
C49 O41 1.284 . S
C49 O50 1.273 . S
O50 C49 1.273 . S
O51 Zn42 1.977 1_545 S
O51 C44 1.267 . S
C52 O53 1.160 . S
C52 O59 1.185 . S
O53 C52 1.160 . S
O54 Zn55 1.899 . S
O54 C62 1.284 . S
Zn55 O54 1.899 . S
Zn55 O56 2.032 . S
Zn55 O59 2.086 . S
Zn55 O64 1.977 1_455 S
O56 Zn55 2.032 . S
O56 C60 1.278 . S
C57 O58 1.203 . S
C57 O64 1.267 . S
O58 C57 1.203 . S
O59 C52 1.185 . S
O59 Zn55 2.086 . S
C60 O56 1.278 . S
C60 O61 1.211 . S
O61 C60 1.211 . S
C62 O54 1.284 . S
C62 O63 1.273 . S
O63 C62 1.273 . S
O64 Zn55 1.977 1_655 S
O64 C57 1.267 . S
C65 O66 1.160 . S
C65 O72 1.185 . S
O66 C65 1.160 . S
O67 Zn68 1.899 . S
O67 C75 1.284 . S
Zn68 O67 1.899 . S
Zn68 O69 2.032 . S
Zn68 O72 2.086 . S
Zn68 O77 1.977 1_545 S
O69 Zn68 2.032 . S
O69 C73 1.278 . S
C70 O71 1.203 . S
C70 O77 1.267 . S
O71 C70 1.203 . S
O72 C65 1.185 . S
O72 Zn68 2.086 . S
C73 O69 1.278 . S
C73 O74 1.211 . S
O74 C73 1.211 . S
C75 O67 1.284 . S
C75 O76 1.273 . S
O76 C75 1.273 . S
O77 Zn68 1.977 1_565 S
O77 C70 1.267 . S
C78 O79 1.160 . S
C78 O85 1.185 . S
O79 C78 1.160 . S
O80 Zn81 1.899 . S
O80 C88 1.284 . S
Zn81 O80 1.899 . S
Zn81 O82 2.032 . S
Zn81 O85 2.086 . S
Zn81 O90 1.977 1_655 S
O82 Zn81 2.032 . S
O82 C86 1.278 . S
C83 O84 1.203 . S
C83 O90 1.267 . S
O84 C83 1.203 . S
O85 C78 1.185 . S
O85 Zn81 2.086 . S
C86 O82 1.278 . S
C86 O87 1.211 . S
O87 C86 1.211 . S
C88 O80 1.284 . S
C88 O89 1.273 . S
O89 C88 1.273 . S
O90 Zn81 1.977 1_455 S
O90 C83 1.267 . S
C91 O92 1.160 . S
C91 O98 1.185 . S
O92 C91 1.160 . S
O93 Zn94 1.899 . S
O93 C101 1.284 . S
Zn94 O93 1.899 . S
Zn94 O95 2.032 . S
Zn94 O98 2.086 . S
Zn94 O103 1.977 1_565 S
O95 Zn94 2.032 . S
O95 C99 1.278 . S
C96 O97 1.203 . S
C96 O103 1.267 . S
O97 C96 1.203 . S
O98 C91 1.185 . S
O98 Zn94 2.086 . S
C99 O95 1.278 . S
C99 O100 1.211 . S
O100 C99 1.211 . S
C101 O93 1.284 . S
C101 O102 1.273 . S
O102 C101 1.273 . S
O103 Zn94 1.977 1_545 S
O103 C96 1.267 . S
C104 O105 1.160 . S
C104 O111 1.185 . S
O105 C104 1.160 . S
O106 Zn107 1.899 . S
O106 C114 1.284 . S
Zn107 O106 1.899 . S
Zn107 O108 2.032 . S
Zn107 O111 2.086 . S
Zn107 O116 1.977 . S
O108 Zn107 2.032 . S
O108 C112 1.278 . S
C109 O110 1.203 . S
C109 O116 1.267 . S
O110 C109 1.203 . S
O111 C104 1.185 . S
O111 Zn107 2.086 . S
C112 O108 1.278 . S
C112 O113 1.211 . S
O113 C112 1.211 . S
C114 O106 1.284 . S
C114 O115 1.273 . S
O115 C114 1.273 . S
O116 Zn107 1.977 . S
O116 C109 1.267 . S
C117 O118 1.160 . S
C117 O124 1.185 . S
O118 C117 1.160 . S
O119 Zn120 1.899 . S
O119 C127 1.284 . S
Zn120 O119 1.899 . S
Zn120 O121 2.032 . S
Zn120 O124 2.086 . S
Zn120 O129 1.977 . S
O121 Zn120 2.032 . S
O121 C125 1.278 . S
C122 O123 1.203 . S
C122 O129 1.267 . S
O123 C122 1.203 . S
O124 C117 1.185 . S
O124 Zn120 2.086 . S
C125 O121 1.278 . S
C125 O126 1.211 . S
O126 C125 1.211 . S
C127 O119 1.284 . S
C127 O128 1.273 . S
O128 C127 1.273 . S
O129 Zn120 1.977 . S
O129 C122 1.267 . S
C130 O131 1.160 . S
C130 O137 1.185 . S
O131 C130 1.160 . S
O132 Zn133 1.899 . S
O132 C140 1.284 . S
Zn133 O132 1.899 . S
Zn133 O134 2.032 . S
Zn133 O137 2.086 . S
Zn133 O142 1.977 . S
O134 Zn133 2.032 . S
O134 C138 1.278 . S
C135 O136 1.203 . S
C135 O142 1.267 . S
O136 C135 1.203 . S
O137 C130 1.185 . S
O137 Zn133 2.086 . S
C138 O134 1.278 . S
C138 O139 1.211 . S
O139 C138 1.211 . S
C140 O132 1.284 . S
C140 O141 1.273 . S
O141 C140 1.273 . S
O142 Zn133 1.977 . S
O142 C135 1.267 . S
C143 O144 1.160 . S
C143 O150 1.185 . S
O144 C143 1.160 . S
O145 Zn146 1.899 . S
O145 C153 1.284 . S
Zn146 O145 1.899 . S
Zn146 O147 2.032 . S
Zn146 O150 2.086 . S
Zn146 O155 1.977 . S
O147 Zn146 2.032 . S
O147 C151 1.278 . S
C148 O149 1.203 . S
C148 O155 1.267 . S
O149 C148 1.203 . S
O150 C143 1.185 . S
O150 Zn146 2.086 . S
C151 O147 1.278 . S
C151 O152 1.211 . S
O152 C151 1.211 . S
C153 O145 1.284 . S
C153 O154 1.273 . S
O154 C153 1.273 . S
O155 Zn146 1.977 . S
O155 C148 1.267 . S
C156 O157 1.160 . S
C156 O163 1.185 . S
O157 C156 1.160 . S
O158 Zn159 1.899 . S
O158 C166 1.284 . S
Zn159 O158 1.899 . S
Zn159 O160 2.032 . S
Zn159 O163 2.086 . S
Zn159 O168 1.977 . S
O160 Zn159 2.032 . S
O160 C164 1.278 . S
C161 O162 1.203 . S
C161 O168 1.267 . S
O162 C161 1.203 . S
O163 C156 1.185 . S
O163 Zn159 2.086 . S
C164 O160 1.278 . S
C164 O165 1.211 . S
O165 C164 1.211 . S
C166 O158 1.284 . S
C166 O167 1.273 . S
O167 C166 1.273 . S
O168 Zn159 1.977 . S
O168 C161 1.267 . S
C169 O170 1.160 . S
C169 O176 1.185 . S
O170 C169 1.160 . S
O171 Zn172 1.899 . S
O171 C179 1.284 . S
Zn172 O171 1.899 . S
Zn172 O173 2.032 . S
Zn172 O176 2.086 . S
Zn172 O181 1.977 . S
O173 Zn172 2.032 . S
O173 C177 1.278 . S
C174 O175 1.203 . S
C174 O181 1.267 . S
O175 C174 1.203 . S
O176 C169 1.185 . S
O176 Zn172 2.086 . S
C177 O173 1.278 . S
C177 O178 1.211 . S
O178 C177 1.211 . S
C179 O171 1.284 . S
C179 O180 1.273 . S
O180 C179 1.273 . S
O181 Zn172 1.977 . S
O181 C174 1.267 . S
C182 O183 1.160 . S
C182 O189 1.185 . S
O183 C182 1.160 . S
O184 Zn185 1.899 . S
O184 C192 1.284 . S
Zn185 O184 1.899 . S
Zn185 O186 2.032 . S
Zn185 O189 2.086 . S
Zn185 O194 1.977 . S
O186 Zn185 2.032 . S
O186 C190 1.278 . S
C187 O188 1.203 . S
C187 O194 1.267 . S
O188 C187 1.203 . S
O189 C182 1.185 . S
O189 Zn185 2.086 . S
C190 O186 1.278 . S
C190 O191 1.211 . S
O191 C190 1.211 . S
C192 O184 1.284 . S
C192 O193 1.273 . S
O193 C192 1.273 . S
O194 Zn185 1.977 . S
O194 C187 1.267 . S
C195 O196 1.160 . S
C195 O202 1.185 . S
O196 C195 1.160 . S
O197 Zn198 1.899 . S
O197 C205 1.284 . S
Zn198 O197 1.899 . S
Zn198 O199 2.032 . S
Zn198 O202 2.086 . S
Zn198 O207 1.977 . S
O199 Zn198 2.032 . S
O199 C203 1.278 . S
C200 O201 1.203 . S
C200 O207 1.267 . S
O201 C200 1.203 . S
O202 C195 1.185 . S
O202 Zn198 2.086 . S
C203 O199 1.278 . S
C203 O204 1.211 . S
O204 C203 1.211 . S
C205 O197 1.284 . S
C205 O206 1.273 . S
O206 C205 1.273 . S
O207 Zn198 1.977 . S
O207 C200 1.267 . S
H208 C214 0.930 . S
H209 C218 0.930 . S
H210 C223 0.929 . S
H211 C221 0.929 . S
H212 C216 0.929 . S
H213 C222 0.929 . S
C214 H208 0.930 . S
C214 C215 1.367 . S
C214 C222 1.378 . S
C215 C214 1.367 . S
C215 C223 1.433 . S
C216 H212 0.929 . S
C216 C218 1.378 . S
C216 C220 1.350 . S
C217 C220 1.463 . S
C217 C222 1.350 . S
C217 N225 1.427 . S
C218 H209 0.930 . S
C218 C216 1.378 . S
C218 C219 1.367 . S
C219 C218 1.367 . S
C219 C221 1.433 . S
C220 C216 1.350 . S
C220 C217 1.463 . S
C220 N224 1.427 . S
C221 H211 0.929 . S
C221 C219 1.433 . S
C221 N224 1.384 . S
C222 H213 0.929 . S
C222 C214 1.378 . S
C222 C217 1.350 . S
C223 H210 0.929 . S
C223 C215 1.433 . S
C223 N225 1.384 . S
N224 C220 1.427 . S
N224 C221 1.384 . S
N225 C217 1.427 . S
N225 C223 1.384 . S
H226 C232 0.930 . S
H227 C236 0.930 . S
H228 C241 0.929 . S
H229 C239 0.929 . S
H230 C234 0.929 . S
H231 C240 0.929 . S
C232 H226 0.930 . S
C232 C233 1.367 . S
C232 C240 1.378 . S
C233 C232 1.367 . S
C233 C241 1.433 . S
C234 H230 0.929 . S
C234 C236 1.378 . S
C234 C238 1.350 . S
C235 C238 1.463 . S
C235 C240 1.350 . S
C235 N243 1.427 . S
C236 H227 0.930 . S
C236 C234 1.378 . S
C236 C237 1.367 . S
C237 C236 1.367 . S
C237 C239 1.433 . S
C238 C234 1.350 . S
C238 C235 1.463 . S
C238 N242 1.427 . S
C239 H229 0.929 . S
C239 C237 1.433 . S
C239 N242 1.384 . S
C240 H231 0.929 . S
C240 C232 1.378 . S
C240 C235 1.350 . S
C241 H228 0.929 . S
C241 C233 1.433 . S
C241 N243 1.384 . S
N242 C238 1.427 . S
N242 C239 1.384 . S
N243 C235 1.427 . S
N243 C241 1.384 . S
H244 C250 0.930 . S
H245 C254 0.930 . S
H246 C259 0.929 . S
H247 C257 0.929 . S
H248 C252 0.929 . S
H249 C258 0.929 . S
C250 H244 0.930 . S
C250 C251 1.367 . S
C250 C258 1.378 . S
C251 C250 1.367 . S
C251 C259 1.433 . S
C252 H248 0.929 . S
C252 C254 1.378 . S
C252 C256 1.350 . S
C253 C256 1.463 . S
C253 C258 1.350 . S
C253 N261 1.427 . S
C254 H245 0.930 . S
C254 C252 1.378 . S
C254 C255 1.367 . S
C255 C254 1.367 . S
C255 C257 1.433 . S
C256 C252 1.350 . S
C256 C253 1.463 . S
C256 N260 1.427 . S
C257 H247 0.929 . S
C257 C255 1.433 . S
C257 N260 1.384 . S
C258 H249 0.929 . S
C258 C250 1.378 . S
C258 C253 1.350 . S
C259 H246 0.929 . S
C259 C251 1.433 . S
C259 N261 1.384 . S
N260 C256 1.427 . S
N260 C257 1.384 . S
N261 C253 1.427 . S
N261 C259 1.384 . S
H262 C268 0.930 . S
H263 C272 0.930 . S
H264 C277 0.929 . S
H265 C275 0.929 . S
H266 C270 0.929 . S
H267 C276 0.929 . S
C268 H262 0.930 . S
C268 C269 1.367 . S
C268 C276 1.378 . S
C269 C268 1.367 . S
C269 C277 1.433 . S
C270 H266 0.929 . S
C270 C272 1.378 . S
C270 C274 1.350 . S
C271 C274 1.463 . S
C271 C276 1.350 . S
C271 N279 1.427 . S
C272 H263 0.930 . S
C272 C270 1.378 . S
C272 C273 1.367 . S
C273 C272 1.367 . S
C273 C275 1.433 . S
C274 C270 1.350 . S
C274 C271 1.463 . S
C274 N278 1.427 . S
C275 H265 0.929 . S
C275 C273 1.433 . S
C275 N278 1.384 . S
C276 H267 0.929 . S
C276 C268 1.378 . S
C276 C271 1.350 . S
C277 H264 0.929 . S
C277 C269 1.433 . S
C277 N279 1.384 . S
N278 C274 1.427 . S
N278 C275 1.384 . S
N279 C271 1.427 . S
N279 C277 1.384 . S
H280 C286 0.930 . S
H281 C290 0.930 . S
H282 C295 0.929 . S
H283 C293 0.929 . S
H284 C288 0.929 . S
H285 C294 0.929 . S
C286 H280 0.930 . S
C286 C287 1.367 . S
C286 C294 1.378 . S
C287 C286 1.367 . S
C287 C295 1.433 . S
C288 H284 0.929 . S
C288 C290 1.378 . S
C288 C292 1.350 . S
C289 C292 1.463 . S
C289 C294 1.350 . S
C289 N297 1.427 . S
C290 H281 0.930 . S
C290 C288 1.378 . S
C290 C291 1.367 . S
C291 C290 1.367 . S
C291 C293 1.433 . S
C292 C288 1.350 . S
C292 C289 1.463 . S
C292 N296 1.427 . S
C293 H283 0.929 . S
C293 C291 1.433 . S
C293 N296 1.384 . S
C294 H285 0.929 . S
C294 C286 1.378 . S
C294 C289 1.350 . S
C295 H282 0.929 . S
C295 C287 1.433 . S
C295 N297 1.384 . S
N296 C292 1.427 . S
N296 C293 1.384 . S
N297 C289 1.427 . S
N297 C295 1.384 . S
H298 C304 0.930 . S
H299 C308 0.930 . S
H300 C313 0.929 . S
H301 C311 0.929 . S
H302 C306 0.929 . S
H303 C312 0.929 . S
C304 H298 0.930 . S
C304 C305 1.367 . S
C304 C312 1.378 . S
C305 C304 1.367 . S
C305 C313 1.433 . S
C306 H302 0.929 . S
C306 C308 1.378 . S
C306 C310 1.350 . S
C307 C310 1.463 . S
C307 C312 1.350 . S
C307 N315 1.427 . S
C308 H299 0.930 . S
C308 C306 1.378 . S
C308 C309 1.367 . S
C309 C308 1.367 . S
C309 C311 1.433 . S
C310 C306 1.350 . S
C310 C307 1.463 . S
C310 N314 1.427 . S
C311 H301 0.929 . S
C311 C309 1.433 . S
C311 N314 1.384 . S
C312 H303 0.929 . S
C312 C304 1.378 . S
C312 C307 1.350 . S
C313 H300 0.929 . S
C313 C305 1.433 . S
C313 N315 1.384 . S
N314 C310 1.427 . S
N314 C311 1.384 . S
N315 C307 1.427 . S
N315 C313 1.384 . S
H316 C322 0.930 . S
H317 C326 0.930 . S
H318 C331 0.929 . S
H319 C329 0.929 . S
H320 C324 0.929 . S
H321 C330 0.929 . S
C322 H316 0.930 . S
C322 C323 1.367 . S
C322 C330 1.378 . S
C323 C322 1.367 . S
C323 C331 1.433 . S
C324 H320 0.929 . S
C324 C326 1.378 . S
C324 C328 1.350 . S
C325 C328 1.463 . S
C325 C330 1.350 . S
C325 N333 1.427 . S
C326 H317 0.930 . S
C326 C324 1.378 . S
C326 C327 1.367 . S
C327 C326 1.367 . S
C327 C329 1.433 . S
C328 C324 1.350 . S
C328 C325 1.463 . S
C328 N332 1.427 . S
C329 H319 0.929 . S
C329 C327 1.433 . S
C329 N332 1.384 . S
C330 H321 0.929 . S
C330 C322 1.378 . S
C330 C325 1.350 . S
C331 H318 0.929 . S
C331 C323 1.433 . S
C331 N333 1.384 . S
N332 C328 1.427 . S
N332 C329 1.384 . S
N333 C325 1.427 . S
N333 C331 1.384 . S
H334 C340 0.930 . S
H335 C344 0.930 . S
H336 C349 0.929 . S
H337 C347 0.929 . S
H338 C342 0.929 . S
H339 C348 0.929 . S
C340 H334 0.930 . S
C340 C341 1.367 . S
C340 C348 1.378 . S
C341 C340 1.367 . S
C341 C349 1.433 . S
C342 H338 0.929 . S
C342 C344 1.378 . S
C342 C346 1.350 . S
C343 C346 1.463 . S
C343 C348 1.350 . S
C343 N351 1.427 . S
C344 H335 0.930 . S
C344 C342 1.378 . S
C344 C345 1.367 . S
C345 C344 1.367 . S
C345 C347 1.433 . S
C346 C342 1.350 . S
C346 C343 1.463 . S
C346 N350 1.427 . S
C347 H337 0.929 . S
C347 C345 1.433 . S
C347 N350 1.384 . S
C348 H339 0.929 . S
C348 C340 1.378 . S
C348 C343 1.350 . S
C349 H336 0.929 . S
C349 C341 1.433 . S
C349 N351 1.384 . S
N350 C346 1.427 . S
N350 C347 1.384 . S
N351 C343 1.427 . S
N351 C349 1.384 . S
H352 C358 0.930 . S
H353 C362 0.930 . S
H354 C367 0.929 . S
H355 C365 0.929 . S
H356 C360 0.929 . S
H357 C366 0.929 . S
C358 H352 0.930 . S
C358 C359 1.367 . S
C358 C366 1.378 . S
C359 C358 1.367 . S
C359 C367 1.433 . S
C360 H356 0.929 . S
C360 C362 1.378 . S
C360 C364 1.350 . S
C361 C364 1.463 . S
C361 C366 1.350 . S
C361 N369 1.427 . S
C362 H353 0.930 . S
C362 C360 1.378 . S
C362 C363 1.367 . S
C363 C362 1.367 . S
C363 C365 1.433 . S
C364 C360 1.350 . S
C364 C361 1.463 . S
C364 N368 1.427 . S
C365 H355 0.929 . S
C365 C363 1.433 . S
C365 N368 1.384 . S
C366 H357 0.929 . S
C366 C358 1.378 . S
C366 C361 1.350 . S
C367 H354 0.929 . S
C367 C359 1.433 . S
C367 N369 1.384 . S
N368 C364 1.427 . S
N368 C365 1.384 . S
N369 C361 1.427 . S
N369 C367 1.384 . S
H370 C376 0.930 . S
H371 C380 0.930 . S
H372 C385 0.929 . S
H373 C383 0.929 . S
H374 C378 0.929 . S
H375 C384 0.929 . S
C376 H370 0.930 . S
C376 C377 1.367 . S
C376 C384 1.378 . S
C377 C376 1.367 . S
C377 C385 1.433 . S
C378 H374 0.929 . S
C378 C380 1.378 . S
C378 C382 1.350 . S
C379 C382 1.463 . S
C379 C384 1.350 . S
C379 N387 1.427 . S
C380 H371 0.930 . S
C380 C378 1.378 . S
C380 C381 1.367 . S
C381 C380 1.367 . S
C381 C383 1.433 . S
C382 C378 1.350 . S
C382 C379 1.463 . S
C382 N386 1.427 . S
C383 H373 0.929 . S
C383 C381 1.433 . S
C383 N386 1.384 . S
C384 H375 0.929 . S
C384 C376 1.378 . S
C384 C379 1.350 . S
C385 H372 0.929 . S
C385 C377 1.433 . S
C385 N387 1.384 . S
N386 C382 1.427 . S
N386 C383 1.384 . S
N387 C379 1.427 . S
N387 C385 1.384 . S
H388 C394 0.930 . S
H389 C398 0.930 . S
H390 C403 0.929 . S
H391 C401 0.929 . S
H392 C396 0.929 . S
H393 C402 0.929 . S
C394 H388 0.930 . S
C394 C395 1.367 . S
C394 C402 1.378 . S
C395 C394 1.367 . S
C395 C403 1.433 . S
C396 H392 0.929 . S
C396 C398 1.378 . S
C396 C400 1.350 . S
C397 C400 1.463 . S
C397 C402 1.350 . S
C397 N405 1.427 . S
C398 H389 0.930 . S
C398 C396 1.378 . S
C398 C399 1.367 . S
C399 C398 1.367 . S
C399 C401 1.433 . S
C400 C396 1.350 . S
C400 C397 1.463 . S
C400 N404 1.427 . S
C401 H391 0.929 . S
C401 C399 1.433 . S
C401 N404 1.384 . S
C402 H393 0.929 . S
C402 C394 1.378 . S
C402 C397 1.350 . S
C403 H390 0.929 . S
C403 C395 1.433 . S
C403 N405 1.384 . S
N404 C400 1.427 . S
N404 C401 1.384 . S
N405 C397 1.427 . S
N405 C403 1.384 . S
H406 C412 0.930 . S
H407 C416 0.930 . S
H408 C421 0.929 . S
H409 C419 0.929 . S
H410 C414 0.929 . S
H411 C420 0.929 . S
C412 H406 0.930 . S
C412 C413 1.367 . S
C412 C420 1.378 . S
C413 C412 1.367 . S
C413 C421 1.433 . S
C414 H410 0.929 . S
C414 C416 1.378 . S
C414 C418 1.350 . S
C415 C418 1.463 . S
C415 C420 1.350 . S
C415 N423 1.427 . S
C416 H407 0.930 . S
C416 C414 1.378 . S
C416 C417 1.367 . S
C417 C416 1.367 . S
C417 C419 1.433 . S
C418 C414 1.350 . S
C418 C415 1.463 . S
C418 N422 1.427 . S
C419 H409 0.929 . S
C419 C417 1.433 . S
C419 N422 1.384 . S
C420 H411 0.929 . S
C420 C412 1.378 . S
C420 C415 1.350 . S
C421 H408 0.929 . S
C421 C413 1.433 . S
C421 N423 1.384 . S
N422 C418 1.427 . S
N422 C419 1.384 . S
N423 C415 1.427 . S
N423 C421 1.384 . S
H424 C430 0.930 . S
H425 C434 0.930 . S
H426 C439 0.929 . S
H427 C437 0.929 . S
H428 C432 0.929 . S
H429 C438 0.929 . S
C430 H424 0.930 . S
C430 C431 1.367 . S
C430 C438 1.378 . S
C431 C430 1.367 . S
C431 C439 1.433 . S
C432 H428 0.929 . S
C432 C434 1.378 . S
C432 C436 1.350 . S
C433 C436 1.463 . S
C433 C438 1.350 . S
C433 N441 1.427 . S
C434 H425 0.930 . S
C434 C432 1.378 . S
C434 C435 1.367 . S
C435 C434 1.367 . S
C435 C437 1.433 . S
C436 C432 1.350 . S
C436 C433 1.463 . S
C436 N440 1.427 . S
C437 H427 0.929 . S
C437 C435 1.433 . S
C437 N440 1.384 . S
C438 H429 0.929 . S
C438 C430 1.378 . S
C438 C433 1.350 . S
C439 H426 0.929 . S
C439 C431 1.433 . S
C439 N441 1.384 . S
N440 C436 1.427 . S
N440 C437 1.384 . S
N441 C433 1.427 . S
N441 C439 1.384 . S
H442 C448 0.930 . S
H443 C452 0.930 . S
H444 C457 0.929 . S
H445 C455 0.929 . S
H446 C450 0.929 . S
H447 C456 0.929 . S
C448 H442 0.930 . S
C448 C449 1.367 . S
C448 C456 1.378 . S
C449 C448 1.367 . S
C449 C457 1.433 . S
C450 H446 0.929 . S
C450 C452 1.378 . S
C450 C454 1.350 . S
C451 C454 1.463 . S
C451 C456 1.350 . S
C451 N459 1.427 . S
C452 H443 0.930 . S
C452 C450 1.378 . S
C452 C453 1.367 . S
C453 C452 1.367 . S
C453 C455 1.433 . S
C454 C450 1.350 . S
C454 C451 1.463 . S
C454 N458 1.427 . S
C455 H445 0.929 . S
C455 C453 1.433 . S
C455 N458 1.384 . S
C456 H447 0.929 . S
C456 C448 1.378 . S
C456 C451 1.350 . S
C457 H444 0.929 . S
C457 C449 1.433 . S
C457 N459 1.384 . S
N458 C454 1.427 . S
N458 C455 1.384 . S
N459 C451 1.427 . S
N459 C457 1.384 . S
H460 C466 0.930 . S
H461 C470 0.930 . S
H462 C475 0.929 . S
H463 C473 0.929 . S
H464 C468 0.929 . S
H465 C474 0.929 . S
C466 H460 0.930 . S
C466 C467 1.367 . S
C466 C474 1.378 . S
C467 C466 1.367 . S
C467 C475 1.433 . S
C468 H464 0.929 . S
C468 C470 1.378 . S
C468 C472 1.350 . S
C469 C472 1.463 . S
C469 C474 1.350 . S
C469 N477 1.427 . S
C470 H461 0.930 . S
C470 C468 1.378 . S
C470 C471 1.367 . S
C471 C470 1.367 . S
C471 C473 1.433 . S
C472 C468 1.350 . S
C472 C469 1.463 . S
C472 N476 1.427 . S
C473 H463 0.929 . S
C473 C471 1.433 . S
C473 N476 1.384 . S
C474 H465 0.929 . S
C474 C466 1.378 . S
C474 C469 1.350 . S
C475 H462 0.929 . S
C475 C467 1.433 . S
C475 N477 1.384 . S
N476 C472 1.427 . S
N476 C473 1.384 . S
N477 C469 1.427 . S
N477 C475 1.384 . S
H478 C484 0.930 . S
H479 C488 0.930 . S
H480 C493 0.929 . S
H481 C491 0.929 . S
H482 C486 0.929 . S
H483 C492 0.929 . S
C484 H478 0.930 . S
C484 C485 1.367 . S
C484 C492 1.378 . S
C485 C484 1.367 . S
C485 C493 1.433 . S
C486 H482 0.929 . S
C486 C488 1.378 . S
C486 C490 1.350 . S
C487 C490 1.463 . S
C487 C492 1.350 . S
C487 N495 1.427 . S
C488 H479 0.930 . S
C488 C486 1.378 . S
C488 C489 1.367 . S
C489 C488 1.367 . S
C489 C491 1.433 . S
C490 C486 1.350 . S
C490 C487 1.463 . S
C490 N494 1.427 . S
C491 H481 0.929 . S
C491 C489 1.433 . S
C491 N494 1.384 . S
C492 H483 0.929 . S
C492 C484 1.378 . S
C492 C487 1.350 . S
C493 H480 0.929 . S
C493 C485 1.433 . S
C493 N495 1.384 . S
N494 C490 1.427 . S
N494 C491 1.384 . S
N495 C487 1.427 . S
N495 C493 1.384 . S
H496 C502 0.930 . S
H497 C506 0.930 . S
H498 C511 0.929 . S
H499 C509 0.929 . S
H500 C504 0.929 . S
H501 C510 0.929 . S
C502 H496 0.930 . S
C502 C503 1.367 . S
C502 C510 1.378 . S
C503 C502 1.367 . S
C503 C511 1.433 . S
C504 H500 0.929 . S
C504 C506 1.378 . S
C504 C508 1.350 . S
C505 C508 1.463 . S
C505 C510 1.350 . S
C505 N513 1.427 . S
C506 H497 0.930 . S
C506 C504 1.378 . S
C506 C507 1.367 . S
C507 C506 1.367 . S
C507 C509 1.433 . S
C508 C504 1.350 . S
C508 C505 1.463 . S
C508 N512 1.427 . S
C509 H499 0.929 . S
C509 C507 1.433 . S
C509 N512 1.384 . S
C510 H501 0.929 . S
C510 C502 1.378 . S
C510 C505 1.350 . S
C511 H498 0.929 . S
C511 C503 1.433 . S
C511 N513 1.384 . S
N512 C508 1.427 . S
N512 C509 1.384 . S
N513 C505 1.427 . S
N513 C511 1.384 . S
H514 C520 0.930 . S
H515 C524 0.930 . S
H516 C529 0.929 . S
H517 C527 0.929 . S
H518 C522 0.929 . S
H519 C528 0.929 . S
C520 H514 0.930 . S
C520 C521 1.367 . S
C520 C528 1.378 . S
C521 C520 1.367 . S
C521 C529 1.433 . S
C522 H518 0.929 . S
C522 C524 1.378 . S
C522 C526 1.350 . S
C523 C526 1.463 . S
C523 C528 1.350 . S
C523 N531 1.427 . S
C524 H515 0.930 . S
C524 C522 1.378 . S
C524 C525 1.367 . S
C525 C524 1.367 . S
C525 C527 1.433 . S
C526 C522 1.350 . S
C526 C523 1.463 . S
C526 N530 1.427 . S
C527 H517 0.929 . S
C527 C525 1.433 . S
C527 N530 1.384 . S
C528 H519 0.929 . S
C528 C520 1.378 . S
C528 C523 1.350 . S
C529 H516 0.929 . S
C529 C521 1.433 . S
C529 N531 1.384 . S
N530 C526 1.427 . S
N530 C527 1.384 . S
N531 C523 1.427 . S
N531 C529 1.384 . S
H532 C538 0.930 . S
H533 C542 0.930 . S
H534 C547 0.929 . S
H535 C545 0.929 . S
H536 C540 0.929 . S
H537 C546 0.929 . S
C538 H532 0.930 . S
C538 C539 1.367 . S
C538 C546 1.378 . S
C539 C538 1.367 . S
C539 C547 1.433 . S
C540 H536 0.929 . S
C540 C542 1.378 . S
C540 C544 1.350 . S
C541 C544 1.463 . S
C541 C546 1.350 . S
C541 N549 1.427 . S
C542 H533 0.930 . S
C542 C540 1.378 . S
C542 C543 1.367 . S
C543 C542 1.367 . S
C543 C545 1.433 . S
C544 C540 1.350 . S
C544 C541 1.463 . S
C544 N548 1.427 . S
C545 H535 0.929 . S
C545 C543 1.433 . S
C545 N548 1.384 . S
C546 H537 0.929 . S
C546 C538 1.378 . S
C546 C541 1.350 . S
C547 H534 0.929 . S
C547 C539 1.433 . S
C547 N549 1.384 . S
N548 C544 1.427 . S
N548 C545 1.384 . S
N549 C541 1.427 . S
N549 C547 1.384 . S
H550 C556 0.930 . S
H551 C560 0.930 . S
H552 C565 0.929 . S
H553 C563 0.929 . S
H554 C558 0.929 . S
H555 C564 0.929 . S
C556 H550 0.930 . S
C556 C557 1.367 . S
C556 C564 1.378 . S
C557 C556 1.367 . S
C557 C565 1.433 . S
C558 H554 0.929 . S
C558 C560 1.378 . S
C558 C562 1.350 . S
C559 C562 1.463 . S
C559 C564 1.350 . S
C559 N567 1.427 . S
C560 H551 0.930 . S
C560 C558 1.378 . S
C560 C561 1.367 . S
C561 C560 1.367 . S
C561 C563 1.433 . S
C562 C558 1.350 . S
C562 C559 1.463 . S
C562 N566 1.427 . S
C563 H553 0.929 . S
C563 C561 1.433 . S
C563 N566 1.384 . S
C564 H555 0.929 . S
C564 C556 1.378 . S
C564 C559 1.350 . S
C565 H552 0.929 . S
C565 C557 1.433 . S
C565 N567 1.384 . S
N566 C562 1.427 . S
N566 C563 1.384 . S
N567 C559 1.427 . S
N567 C565 1.384 . S
H568 C574 0.930 . S
H569 C578 0.930 . S
H570 C583 0.929 . S
H571 C581 0.929 . S
H572 C576 0.929 . S
H573 C582 0.929 . S
C574 H568 0.930 . S
C574 C575 1.367 . S
C574 C582 1.378 . S
C575 C574 1.367 . S
C575 C583 1.433 . S
C576 H572 0.929 . S
C576 C578 1.378 . S
C576 C580 1.350 . S
C577 C580 1.463 . S
C577 C582 1.350 . S
C577 N585 1.427 . S
C578 H569 0.930 . S
C578 C576 1.378 . S
C578 C579 1.367 . S
C579 C578 1.367 . S
C579 C581 1.433 . S
C580 C576 1.350 . S
C580 C577 1.463 . S
C580 N584 1.427 . S
C581 H571 0.929 . S
C581 C579 1.433 . S
C581 N584 1.384 . S
C582 H573 0.929 . S
C582 C574 1.378 . S
C582 C577 1.350 . S
C583 H570 0.929 . S
C583 C575 1.433 . S
C583 N585 1.384 . S
N584 C580 1.427 . S
N584 C581 1.384 . S
N585 C577 1.427 . S
N585 C583 1.384 . S
H586 C592 0.930 . S
H587 C596 0.930 . S
H588 C601 0.929 . S
H589 C599 0.929 . S
H590 C594 0.929 . S
H591 C600 0.929 . S
C592 H586 0.930 . S
C592 C593 1.367 . S
C592 C600 1.378 . S
C593 C592 1.367 . S
C593 C601 1.433 . S
C594 H590 0.929 . S
C594 C596 1.378 . S
C594 C598 1.350 . S
C595 C598 1.463 . S
C595 C600 1.350 . S
C595 N603 1.427 . S
C596 H587 0.930 . S
C596 C594 1.378 . S
C596 C597 1.367 . S
C597 C596 1.367 . S
C597 C599 1.433 . S
C598 C594 1.350 . S
C598 C595 1.463 . S
C598 N602 1.427 . S
C599 H589 0.929 . S
C599 C597 1.433 . S
C599 N602 1.384 . S
C600 H591 0.929 . S
C600 C592 1.378 . S
C600 C595 1.350 . S
C601 H588 0.929 . S
C601 C593 1.433 . S
C601 N603 1.384 . S
N602 C598 1.427 . S
N602 C599 1.384 . S
N603 C595 1.427 . S
N603 C601 1.384 . S
H604 C610 0.930 . S
H605 C614 0.930 . S
H606 C619 0.929 . S
H607 C617 0.929 . S
H608 C612 0.929 . S
H609 C618 0.929 . S
C610 H604 0.930 . S
C610 C611 1.367 . S
C610 C618 1.378 . S
C611 C610 1.367 . S
C611 C619 1.433 . S
C612 H608 0.929 . S
C612 C614 1.378 . S
C612 C616 1.350 . S
C613 C616 1.463 . S
C613 C618 1.350 . S
C613 N621 1.427 . S
C614 H605 0.930 . S
C614 C612 1.378 . S
C614 C615 1.367 . S
C615 C614 1.367 . S
C615 C617 1.433 . S
C616 C612 1.350 . S
C616 C613 1.463 . S
C616 N620 1.427 . S
C617 H607 0.929 . S
C617 C615 1.433 . S
C617 N620 1.384 . S
C618 H609 0.929 . S
C618 C610 1.378 . S
C618 C613 1.350 . S
C619 H606 0.929 . S
C619 C611 1.433 . S
C619 N621 1.384 . S
N620 C616 1.427 . S
N620 C617 1.384 . S
N621 C613 1.427 . S
N621 C619 1.384 . S
H622 C628 0.930 . S
H623 C632 0.930 . S
H624 C637 0.929 . S
H625 C635 0.929 . S
H626 C630 0.929 . S
H627 C636 0.929 . S
C628 H622 0.930 . S
C628 C629 1.367 . S
C628 C636 1.378 . S
C629 C628 1.367 . S
C629 C637 1.433 . S
C630 H626 0.929 . S
C630 C632 1.378 . S
C630 C634 1.350 . S
C631 C634 1.463 . S
C631 C636 1.350 . S
C631 N639 1.427 . S
C632 H623 0.930 . S
C632 C630 1.378 . S
C632 C633 1.367 . S
C633 C632 1.367 . S
C633 C635 1.433 . S
C634 C630 1.350 . S
C634 C631 1.463 . S
C634 N638 1.427 . S
C635 H625 0.929 . S
C635 C633 1.433 . S
C635 N638 1.384 . S
C636 H627 0.929 . S
C636 C628 1.378 . S
C636 C631 1.350 . S
C637 H624 0.929 . S
C637 C629 1.433 . S
C637 N639 1.384 . S
N638 C634 1.427 . S
N638 C635 1.384 . S
N639 C631 1.427 . S
N639 C637 1.384 . S
H640 C646 0.930 . S
H641 C650 0.930 . S
H642 C655 0.929 . S
H643 C653 0.929 . S
H644 C648 0.929 . S
H645 C654 0.929 . S
C646 H640 0.930 . S
C646 C647 1.367 . S
C646 C654 1.378 . S
C647 C646 1.367 . S
C647 C655 1.433 1_455 S
C648 H644 0.929 . S
C648 C650 1.378 . S
C648 C652 1.350 . S
C649 C652 1.463 1_455 S
C649 C654 1.350 . S
C649 N657 1.427 1_455 S
C650 H641 0.930 . S
C650 C648 1.378 . S
C650 C651 1.367 . S
C651 C650 1.367 . S
C651 C653 1.433 1_655 S
C652 C648 1.350 . S
C652 C649 1.463 1_655 S
C652 N656 1.427 1_655 S
C653 H643 0.929 . S
C653 C651 1.433 1_455 S
C653 N656 1.384 . S
C654 H645 0.929 . S
C654 C646 1.378 . S
C654 C649 1.350 . S
C655 H642 0.929 . S
C655 C647 1.433 1_655 S
C655 N657 1.384 . S
N656 C652 1.427 1_455 S
N656 C653 1.384 . S
N657 C649 1.427 1_655 S
N657 C655 1.384 . S
H658 C664 0.930 . S
H659 C668 0.930 . S
H660 C673 0.929 . S
H661 C671 0.929 . S
H662 C666 0.929 . S
H663 C672 0.929 . S
C664 H658 0.930 . S
C664 C665 1.367 1_545 S
C664 C672 1.378 . S
C665 C664 1.367 1_565 S
C665 C673 1.433 . S
C666 H662 0.929 . S
C666 C668 1.378 . S
C666 C670 1.344 1_565 S
C667 C670 1.462 1_565 S
C667 C672 1.344 1_565 S
C667 N675 1.433 . S
C668 H659 0.930 . S
C668 C666 1.378 . S
C668 C669 1.367 1_565 S
C669 C668 1.367 1_545 S
C669 C671 1.433 . S
C670 C666 1.344 1_545 S
C670 C667 1.462 1_545 S
C670 N674 1.433 . S
C671 H661 0.929 . S
C671 C669 1.433 . S
C671 N674 1.384 . S
C672 H663 0.929 . S
C672 C664 1.378 . S
C672 C667 1.344 1_545 S
C673 H660 0.929 . S
C673 C665 1.433 . S
C673 N675 1.384 . S
N674 C670 1.433 . S
N674 C671 1.384 . S
N675 C667 1.433 . S
N675 C673 1.384 . S
H676 C682 0.930 . S
H677 C686 0.930 . S
H678 C691 0.929 . S
H679 C689 0.929 . S
H680 C684 0.929 . S
H681 C690 0.929 . S
C682 H676 0.930 . S
C682 C683 1.367 . S
C682 C690 1.378 . S
C683 C682 1.367 . S
C683 C691 1.433 1_455 S
C684 H680 0.929 . S
C684 C686 1.378 . S
C684 C688 1.350 . S
C685 C688 1.463 1_455 S
C685 C690 1.350 . S
C685 N693 1.427 1_455 S
C686 H677 0.930 . S
C686 C684 1.378 . S
C686 C687 1.367 . S
C687 C686 1.367 . S
C687 C689 1.433 1_655 S
C688 C684 1.350 . S
C688 C685 1.463 1_655 S
C688 N692 1.427 1_655 S
C689 H679 0.929 . S
C689 C687 1.433 1_455 S
C689 N692 1.384 . S
C690 H681 0.929 . S
C690 C682 1.378 . S
C690 C685 1.350 . S
C691 H678 0.929 . S
C691 C683 1.433 1_655 S
C691 N693 1.384 . S
N692 C688 1.427 1_455 S
N692 C689 1.384 . S
N693 C685 1.427 1_655 S
N693 C691 1.384 . S
H694 C700 0.930 . S
H695 C704 0.930 . S
H696 C709 0.929 . S
H697 C707 0.929 . S
H698 C702 0.929 . S
H699 C708 0.929 . S
C700 H694 0.930 . S
C700 C701 1.367 1_565 S
C700 C708 1.378 . S
C701 C700 1.367 1_545 S
C701 C709 1.433 . S
C702 H698 0.929 . S
C702 C704 1.378 . S
C702 C706 1.344 1_545 S
C703 C706 1.462 1_545 S
C703 C708 1.344 1_545 S
C703 N711 1.433 . S
C704 H695 0.930 . S
C704 C702 1.378 . S
C704 C705 1.367 1_545 S
C705 C704 1.367 1_565 S
C705 C707 1.433 . S
C706 C702 1.344 1_565 S
C706 C703 1.462 1_565 S
C706 N710 1.433 . S
C707 H697 0.929 . S
C707 C705 1.433 . S
C707 N710 1.384 . S
C708 H699 0.929 . S
C708 C700 1.378 . S
C708 C703 1.344 1_565 S
C709 H696 0.929 . S
C709 C701 1.433 . S
C709 N711 1.384 . S
N710 C706 1.433 . S
N710 C707 1.384 . S
N711 C703 1.433 . S
N711 C709 1.384 . S
H712 C718 0.930 . S
H713 C722 0.930 . S
H714 C727 0.929 . S
H715 C725 0.929 . S
H716 C720 0.929 . S
H717 C726 0.929 . S
C718 H712 0.930 . S
C718 C719 1.367 . S
C718 C726 1.378 . S
C719 C718 1.367 . S
C719 C727 1.433 . S
C720 H716 0.929 . S
C720 C722 1.378 . S
C720 C724 1.350 . S
C721 C724 1.463 1_556 S
C721 C726 1.350 . S
C721 N729 1.427 . S
C722 H713 0.930 . S
C722 C720 1.378 . S
C722 C723 1.367 . S
C723 C722 1.367 . S
C723 C725 1.433 . S
C724 C720 1.350 . S
C724 C721 1.463 1_554 S
C724 N728 1.427 . S
C725 H715 0.929 . S
C725 C723 1.433 . S
C725 N728 1.384 . S
C726 H717 0.929 . S
C726 C718 1.378 . S
C726 C721 1.350 . S
C727 H714 0.929 . S
C727 C719 1.433 . S
C727 N729 1.384 . S
N728 C724 1.427 . S
N728 C725 1.384 . S
N729 C721 1.427 . S
N729 C727 1.384 . S
H730 C736 0.930 . S
H731 C740 0.930 . S
H732 C745 0.929 . S
H733 C743 0.929 . S
H734 C738 0.929 . S
H735 C744 0.929 . S
C736 H730 0.930 . S
C736 C737 1.367 . S
C736 C744 1.378 . S
C737 C736 1.367 . S
C737 C745 1.433 . S
C738 H734 0.929 . S
C738 C740 1.378 . S
C738 C742 1.350 . S
C739 C742 1.463 1_556 S
C739 C744 1.350 . S
C739 N747 1.427 . S
C740 H731 0.930 . S
C740 C738 1.378 . S
C740 C741 1.367 . S
C741 C740 1.367 . S
C741 C743 1.433 . S
C742 C738 1.350 . S
C742 C739 1.463 1_554 S
C742 N746 1.427 . S
C743 H733 0.929 . S
C743 C741 1.433 . S
C743 N746 1.384 . S
C744 H735 0.929 . S
C744 C736 1.378 . S
C744 C739 1.350 . S
C745 H732 0.929 . S
C745 C737 1.433 . S
C745 N747 1.384 . S
N746 C742 1.427 . S
N746 C743 1.384 . S
N747 C739 1.427 . S
N747 C745 1.384 . S
H748 C754 0.930 . S
H749 C758 0.930 . S
H750 C763 0.929 . S
H751 C761 0.929 . S
H752 C756 0.929 . S
H753 C762 0.929 . S
C754 H748 0.930 . S
C754 C755 1.367 . S
C754 C762 1.378 . S
C755 C754 1.367 . S
C755 C763 1.433 . S
C756 H752 0.929 . S
C756 C758 1.378 . S
C756 C760 1.350 . S
C757 C760 1.463 1_554 S
C757 C762 1.350 . S
C757 N765 1.427 . S
C758 H749 0.930 . S
C758 C756 1.378 . S
C758 C759 1.367 . S
C759 C758 1.367 . S
C759 C761 1.433 . S
C760 C756 1.350 . S
C760 C757 1.463 1_556 S
C760 N764 1.427 . S
C761 H751 0.929 . S
C761 C759 1.433 . S
C761 N764 1.384 . S
C762 H753 0.929 . S
C762 C754 1.378 . S
C762 C757 1.350 . S
C763 H750 0.929 . S
C763 C755 1.433 . S
C763 N765 1.384 . S
N764 C760 1.427 . S
N764 C761 1.384 . S
N765 C757 1.427 . S
N765 C763 1.384 . S
H766 C772 0.930 . S
H767 C776 0.930 . S
H768 C781 0.929 . S
H769 C779 0.929 . S
H770 C774 0.929 . S
H771 C780 0.929 . S
C772 H766 0.930 . S
C772 C773 1.367 . S
C772 C780 1.378 . S
C773 C772 1.367 . S
C773 C781 1.433 . S
C774 H770 0.929 . S
C774 C776 1.378 . S
C774 C778 1.350 . S
C775 C778 1.463 1_556 S
C775 C780 1.350 . S
C775 N783 1.427 . S
C776 H767 0.930 . S
C776 C774 1.378 . S
C776 C777 1.367 . S
C777 C776 1.367 . S
C777 C779 1.433 . S
C778 C774 1.350 . S
C778 C775 1.463 1_554 S
C778 N782 1.427 . S
C779 H769 0.929 . S
C779 C777 1.433 . S
C779 N782 1.384 . S
C780 H771 0.929 . S
C780 C772 1.378 . S
C780 C775 1.350 . S
C781 H768 0.929 . S
C781 C773 1.433 . S
C781 N783 1.384 . S
N782 C778 1.427 . S
N782 C779 1.384 . S
N783 C775 1.427 . S
N783 C781 1.384 . S
C215 C8 1.397 . S
C219 C44 1.326 . S
C233 C5 1.306 . S
C237 C21 1.400 . S
C251 C18 1.306 . S
C255 C34 1.400 . S
C269 C31 1.314 . S
C273 C47 1.397 . S
C287 C60 1.397 . S
C291 C70 1.326 . S
C305 C73 1.397 . S
C309 C83 1.325 . S
C323 C86 1.396 . S
C327 C96 1.317 . S
C341 C99 1.400 . S
C345 C57 1.326 . S
C359 C112 1.406 . S
C363 C148 1.311 . S
C377 C109 1.321 . S
C381 C125 1.396 . S
C395 C122 1.320 . S
C399 C138 1.396 . S
C413 C151 1.403 . S
C417 C135 1.304 . S
C431 C174 1.311 . S
C435 C164 1.406 . S
C449 C187 1.319 . S
C453 C177 1.405 . S
C467 C190 1.399 . S
C471 C200 1.327 . S
C485 C203 1.396 . S
C489 C161 1.318 . S
C503 C0 1.030 . S
C507 C195 1.033 . S
C521 C13 1.031 . S
C525 C156 1.035 . S
C539 C169 1.029 . S
C543 C26 1.030 . S
C557 C39 1.034 . S
C561 C182 1.030 . S
C575 C117 1.047 . S
C579 C52 1.044 . S
C593 C130 1.030 . S
C597 C65 1.033 . S
C611 C78 1.042 . S
C615 C143 1.046 . S
C629 C91 1.039 . S
C633 C104 1.034 . S
C647 C10 1.387 . S
C651 C88 1.395 . S
C665 C101 1.394 . S
C669 C23 1.400 . S
C683 C62 1.386 . S
C687 C36 1.399 . S
C701 C75 1.394 . S
C705 C49 1.400 . S
C719 C114 1.389 . S
C723 C192 1.392 . S
C737 C127 1.389 . S
C741 C205 1.402 . S
C755 C166 1.402 . S
C759 C140 1.390 . S
C773 C153 1.399 . S
C777 C179 1.395 . S
