# Generated by pormake.
# Topology ukb, (4)-cn, num edge types: 1
# Building blocks:
#     Node 0, Type 0, BuildingBlock: AZAVOO_clean_sbu_0, # of connection points: 4
#     Node 1, Type 0, BuildingBlock: AZAVOO_clean_sbu_0, # of connection points: 4
#     Node 2, Type 0, BuildingBlock: AZAVOO_clean_sbu_0, # of connection points: 4
#     Node 3, Type 0, BuildingBlock: AZAVOO_clean_sbu_0, # of connection points: 4
#     Node 4, Type 0, BuildingBlock: AZAVOO_clean_sbu_0, # of connection points: 4
#     Node 5, Type 0, BuildingBlock: AZAVOO_clean_sbu_0, # of connection points: 4
#     Node 6, Type 0, BuildingBlock: AZAVOO_clean_sbu_0, # of connection points: 4
#     Node 7, Type 0, BuildingBlock: AZAVOO_clean_sbu_0, # of connection points: 4
#     Node 8, Type 0, BuildingBlock: AZAVOO_clean_sbu_0, # of connection points: 4
#     Node 9, Type 0, BuildingBlock: AZAVOO_clean_sbu_0, # of connection points: 4
#     Node 10, Type 0, BuildingBlock: AZAVOO_clean_sbu_0, # of connection points: 4
#     Node 11, Type 0, BuildingBlock: AZAVOO_clean_sbu_0, # of connection points: 4
#     Node 12, Type 0, BuildingBlock: AZAVOO_clean_sbu_0, # of connection points: 4
#     Node 13, Type 0, BuildingBlock: AZAVOO_clean_sbu_0, # of connection points: 4
#     Node 14, Type 0, BuildingBlock: AZAVOO_clean_sbu_0, # of connection points: 4
#     Node 15, Type 0, BuildingBlock: AZAVOO_clean_sbu_0, # of connection points: 4
#     Edge 16, Type (0, 0), BuildingBlock: UVAHIK_clean_linker_0, # of connection points: 2
#     Edge 17, Type (0, 0), BuildingBlock: UVAHIK_clean_linker_0, # of connection points: 2
#     Edge 18, Type (0, 0), BuildingBlock: UVAHIK_clean_linker_0, # of connection points: 2
#     Edge 19, Type (0, 0), BuildingBlock: UVAHIK_clean_linker_0, # of connection points: 2
#     Edge 20, Type (0, 0), BuildingBlock: UVAHIK_clean_linker_0, # of connection points: 2
#     Edge 21, Type (0, 0), BuildingBlock: UVAHIK_clean_linker_0, # of connection points: 2
#     Edge 22, Type (0, 0), BuildingBlock: UVAHIK_clean_linker_0, # of connection points: 2
#     Edge 23, Type (0, 0), BuildingBlock: UVAHIK_clean_linker_0, # of connection points: 2
#     Edge 24, Type (0, 0), BuildingBlock: UVAHIK_clean_linker_0, # of connection points: 2
#     Edge 25, Type (0, 0), BuildingBlock: UVAHIK_clean_linker_0, # of connection points: 2
#     Edge 26, Type (0, 0), BuildingBlock: UVAHIK_clean_linker_0, # of connection points: 2
#     Edge 27, Type (0, 0), BuildingBlock: UVAHIK_clean_linker_0, # of connection points: 2
#     Edge 28, Type (0, 0), BuildingBlock: UVAHIK_clean_linker_0, # of connection points: 2
#     Edge 29, Type (0, 0), BuildingBlock: UVAHIK_clean_linker_0, # of connection points: 2
#     Edge 30, Type (0, 0), BuildingBlock: UVAHIK_clean_linker_0, # of connection points: 2
#     Edge 31, Type (0, 0), BuildingBlock: UVAHIK_clean_linker_0, # of connection points: 2
#     Edge 32, Type (0, 0), BuildingBlock: UVAHIK_clean_linker_0, # of connection points: 2
#     Edge 33, Type (0, 0), BuildingBlock: UVAHIK_clean_linker_0, # of connection points: 2
#     Edge 34, Type (0, 0), BuildingBlock: UVAHIK_clean_linker_0, # of connection points: 2
#     Edge 35, Type (0, 0), BuildingBlock: UVAHIK_clean_linker_0, # of connection points: 2
#     Edge 36, Type (0, 0), BuildingBlock: UVAHIK_clean_linker_0, # of connection points: 2
#     Edge 37, Type (0, 0), BuildingBlock: UVAHIK_clean_linker_0, # of connection points: 2
#     Edge 38, Type (0, 0), BuildingBlock: UVAHIK_clean_linker_0, # of connection points: 2
#     Edge 39, Type (0, 0), BuildingBlock: UVAHIK_clean_linker_0, # of connection points: 2
#     Edge 40, Type (0, 0), BuildingBlock: UVAHIK_clean_linker_0, # of connection points: 2
#     Edge 41, Type (0, 0), BuildingBlock: UVAHIK_clean_linker_0, # of connection points: 2
#     Edge 42, Type (0, 0), BuildingBlock: UVAHIK_clean_linker_0, # of connection points: 2
#     Edge 43, Type (0, 0), BuildingBlock: UVAHIK_clean_linker_0, # of connection points: 2
#     Edge 44, Type (0, 0), BuildingBlock: UVAHIK_clean_linker_0, # of connection points: 2
#     Edge 45, Type (0, 0), BuildingBlock: UVAHIK_clean_linker_0, # of connection points: 2
#     Edge 46, Type (0, 0), BuildingBlock: UVAHIK_clean_linker_0, # of connection points: 2
#     Edge 47, Type (0, 0), BuildingBlock: UVAHIK_clean_linker_0, # of connection points: 2
# Relax obj value: 0.173
# Max RMSD: 0.198
# Mean RMSD: 0.178
data_MOF--net-ukb--node1-AZAVOO_clean_sbu_0--edge1-UVAHIK_clean_linker_0
_symmetry_space_group_name_H-M    P1
_symmetry_Int_Tables_number       1
_symmetry_cell_setting            triclinic
loop_
_symmetry_equiv_pos_as_xyz
'x, y, z'
_cell_length_a     52.021879
_cell_length_b     55.411233
_cell_length_c     52.203226
_cell_angle_alpha  90.006217
_cell_angle_beta   90.004367
_cell_angle_gamma 89.990158
loop_
_atom_site_label
_atom_site_type_symbol
_atom_site_fract_x
_atom_site_fract_y
_atom_site_fract_z
_atom_type_partial_charge
Mg0 Mg 0.50747 0.13883 0.16814 0.0
O1 O 0.52128 0.17036 0.19357 0.0
O2 O 0.52736 0.15526 0.23285 0.0
Mg3 Mg 0.51631 0.11558 0.2332 0.0
C4 C 0.52805 0.17279 0.217 0.0
C5 C 0.49796 0.15621 0.11345 0.0
O6 O 0.50501 0.1336 0.11054 0.0
O7 O 0.46749 0.14104 0.18564 0.0
O8 O 0.4742 0.12577 0.22466 0.0
O9 O 0.54809 0.12964 0.15974 0.0
O10 O 0.52637 0.1144 0.1923 0.0
C11 C 0.45927 0.13469 0.20767 0.0
C12 C 0.548 0.11687 0.18051 0.0
O13 O 0.49648 0.16477 0.13601 0.0
Mg14 Mg 0.26613 0.51013 0.68113 0.0
O15 O 0.22795 0.52487 0.6982 0.0
O16 O 0.23751 0.53285 0.73921 0.0
Mg17 Mg 0.27987 0.52663 0.74754 0.0
C18 C 0.22153 0.53196 0.72068 0.0
C19 C 0.2641 0.4826 0.63277 0.0
O20 O 0.28699 0.47953 0.64292 0.0
O21 O 0.26283 0.47457 0.70301 0.0
O22 O 0.27427 0.48584 0.74253 0.0
O23 O 0.27756 0.54706 0.66875 0.0
O24 O 0.28703 0.53126 0.7064 0.0
C25 C 0.26789 0.46961 0.72636 0.0
C26 C 0.28804 0.54947 0.69109 0.0
O27 O 0.24744 0.49439 0.64548 0.0
Mg28 Mg 0.98669 0.3321 0.16369 0.0
O29 O 0.97554 0.29986 0.18945 0.0
O30 O 0.97054 0.31451 0.22907 0.0
Mg31 Mg 0.97975 0.3546 0.22929 0.0
C32 C 0.96997 0.29704 0.21314 0.0
C33 C 0.98761 0.31324 0.10922 0.0
O34 O 0.9744 0.33343 0.10807 0.0
O35 O 0.02756 0.33137 0.1793 0.0
O36 O 0.02183 0.34605 0.21874 0.0
O37 O 0.94535 0.33949 0.15731 0.0
O38 O 0.9677 0.35561 0.18895 0.0
C39 C 0.03641 0.33787 0.20104 0.0
C40 C 0.9457 0.35212 0.17816 0.0
O41 O 0.99686 0.30677 0.13069 0.0
Mg42 Mg 0.22639 0.96049 0.6875 0.0
O43 O 0.2621 0.94314 0.70707 0.0
O44 O 0.2484 0.93412 0.74654 0.0
Mg45 Mg 0.20639 0.94374 0.75223 0.0
C46 C 0.26601 0.93453 0.72952 0.0
C47 C 0.23501 0.98999 0.641 0.0
O48 O 0.21246 0.99604 0.65035 0.0
O49 O 0.23067 0.99534 0.71036 0.0
O50 O 0.21581 0.98408 0.74871 0.0
O51 O 0.2133 0.92452 0.67347 0.0
O52 O 0.20203 0.94036 0.7106 0.0
C53 C 0.2245 0.00015 0.73347 0.0
C54 C 0.20102 0.92244 0.69491 0.0
O55 O 0.24891 0.97544 0.65379 0.0
Mg56 Mg 0.50929 0.3248 0.83804 0.0
O57 O 0.52038 0.29484 0.80937 0.0
O58 O 0.52804 0.31286 0.77178 0.0
Mg59 Mg 0.5196 0.35298 0.77544 0.0
C60 C 0.5272 0.29401 0.78583 0.0
C61 C 0.489 0.30558 0.88901 0.0
O62 O 0.48701 0.32912 0.89143 0.0
O63 O 0.46903 0.32681 0.82103 0.0
O64 O 0.47697 0.34431 0.78328 0.0
O65 O 0.55073 0.33006 0.84618 0.0
O66 O 0.52956 0.35 0.81614 0.0
C67 C 0.4614 0.33515 0.79954 0.0
C68 C 0.55116 0.34463 0.8268 0.0
O69 O 0.49698 0.29703 0.86785 0.0
Mg70 Mg 0.23194 0.50885 0.31031 0.0
O71 O 0.27 0.52509 0.29493 0.0
O72 O 0.26227 0.53268 0.25351 0.0
Mg73 Mg 0.22061 0.52449 0.24326 0.0
C74 C 0.2773 0.53249 0.27285 0.0
C75 C 0.23132 0.49008 0.36247 0.0
O76 O 0.20767 0.49328 0.35427 0.0
O77 O 0.23792 0.47331 0.28901 0.0
O78 O 0.22744 0.48389 0.24901 0.0
O79 O 0.21778 0.5453 0.32164 0.0
O80 O 0.21089 0.52855 0.28392 0.0
C81 C 0.2338 0.46798 0.26556 0.0
C82 C 0.20779 0.54672 0.29898 0.0
O83 O 0.24972 0.49455 0.34713 0.0
Mg84 Mg 0.98071 0.13833 0.83423 0.0
O85 O 0.96956 0.1703 0.80814 0.0
O86 O 0.96511 0.15545 0.76854 0.0
Mg87 Mg 0.97459 0.1154 0.76871 0.0
C88 C 0.96426 0.17299 0.78438 0.0
C89 C 0.98109 0.15815 0.88858 0.0
O90 O 0.96707 0.13848 0.89006 0.0
O91 O 0.02165 0.13928 0.81894 0.0
O92 O 0.01652 0.1243 0.77954 0.0
O93 O 0.93938 0.13043 0.84036 0.0
O94 O 0.96223 0.11449 0.80899 0.0
C95 C 0.0308 0.13272 0.79735 0.0
C96 C 0.94012 0.11756 0.81969 0.0
O97 O 0.99072 0.16391 0.86705 0.0
Mg98 Mg 0.2712 0.95985 0.31834 0.0
O99 O 0.23264 0.94428 0.30329 0.0
O100 O 0.23956 0.93762 0.26153 0.0
Mg101 Mg 0.2809 0.94604 0.25057 0.0
C102 C 0.22492 0.9374 0.28116 0.0
C103 C 0.27263 0.97425 0.37206 0.0
O104 O 0.29576 0.96799 0.36441 0.0
O105 O 0.26487 0.99591 0.2983 0.0
O106 O 0.27399 0.98646 0.25766 0.0
O107 O 0.28477 0.92301 0.32838 0.0
O108 O 0.29127 0.9404 0.29088 0.0
C109 C 0.26811 0.00189 0.27489 0.0
C110 C 0.29392 0.92173 0.30536 0.0
O111 O 0.25435 0.97344 0.35589 0.0
Mg112 Mg 0.51166 0.73306 0.80195 0.0
O113 O 0.47863 0.76071 0.79888 0.0
O114 O 0.44295 0.74301 0.81356 0.0
Mg115 Mg 0.45284 0.70476 0.82638 0.0
C116 C 0.45459 0.76111 0.80387 0.0
C117 C 0.55336 0.76227 0.77325 0.0
O118 O 0.55039 0.74378 0.75776 0.0
O119 O 0.51477 0.73844 0.84566 0.0
O120 O 0.47859 0.71992 0.85777 0.0
O121 O 0.49996 0.71908 0.76321 0.0
O122 O 0.48557 0.70481 0.79999 0.0
C123 C 0.49929 0.73123 0.86309 0.0
C124 C 0.48446 0.70489 0.77542 0.0
O125 O 0.54029 0.76311 0.79381 0.0
Mg126 Mg 0.65865 0.43177 0.32868 0.0
O127 O 0.69415 0.42116 0.3047 0.0
O128 O 0.68052 0.41524 0.26456 0.0
Mg129 Mg 0.63753 0.42285 0.26239 0.0
C130 C 0.6984 0.41556 0.28132 0.0
C131 C 0.67381 0.44066 0.38425 0.0
O132 O 0.64984 0.43329 0.38567 0.0
O133 O 0.65966 0.46965 0.31168 0.0
O134 O 0.64529 0.46266 0.27201 0.0
O135 O 0.64993 0.39293 0.33582 0.0
O136 O 0.63457 0.41368 0.30313 0.0
C137 C 0.65316 0.47708 0.28944 0.0
C138 C 0.63684 0.39328 0.31472 0.0
O139 O 0.68415 0.44264 0.36229 0.0
Mg140 Mg 0.98177 0.73374 0.80335 0.0
O141 O 0.01589 0.70779 0.79761 0.0
O142 O 0.05187 0.7266 0.80957 0.0
Mg143 Mg 0.04059 0.7637 0.82504 0.0
C144 C 0.04028 0.70822 0.80039 0.0
C145 C 0.93392 0.70472 0.78397 0.0
O146 O 0.92703 0.72627 0.77602 0.0
O147 O 0.98177 0.72706 0.84677 0.0
O148 O 0.01822 0.74588 0.85767 0.0
O149 O 0.9903 0.74915 0.76449 0.0
O150 O 0.00606 0.76321 0.80087 0.0
C151 C 0.99821 0.73374 0.86355 0.0
C152 C 0.00571 0.76378 0.77627 0.0
O153 O 0.95491 0.70227 0.79614 0.0
Mg154 Mg 0.83807 0.03931 0.326 0.0
O155 O 0.80181 0.04931 0.30267 0.0
O156 O 0.81472 0.05421 0.26213 0.0
Mg157 Mg 0.85759 0.04672 0.25897 0.0
C158 C 0.79713 0.05427 0.27919 0.0
C159 C 0.8242 0.03673 0.38192 0.0
O160 O 0.84629 0.04818 0.38075 0.0
O161 O 0.83649 0.00102 0.30999 0.0
O162 O 0.84966 0.00721 0.26974 0.0
O163 O 0.84721 0.07824 0.33199 0.0
O164 O 0.86146 0.05683 0.29933 0.0
C165 C 0.84219 0.99318 0.28769 0.0
C166 C 0.85981 0.07741 0.31064 0.0
O167 O 0.81407 0.02943 0.36113 0.0
Mg168 Mg 0.51706 0.73452 0.19254 0.0
O169 O 0.48425 0.70704 0.1986 0.0
O170 O 0.44786 0.72366 0.18429 0.0
Mg171 Mg 0.45773 0.75997 0.16613 0.0
C172 C 0.45994 0.70638 0.19508 0.0
C173 C 0.55798 0.706 0.22395 0.0
O174 O 0.55393 0.72416 0.23963 0.0
O175 O 0.51964 0.72536 0.14985 0.0
O176 O 0.48268 0.74128 0.13586 0.0
O177 O 0.50581 0.75167 0.2298 0.0
O178 O 0.49083 0.76275 0.19198 0.0
C179 C 0.50371 0.72999 0.13187 0.0
C180 C 0.49005 0.7647 0.21649 0.0
O181 O 0.5459 0.70525 0.2028 0.0
Mg182 Mg 0.83391 0.43137 0.67216 0.0
O183 O 0.79931 0.42015 0.69727 0.0
O184 O 0.81402 0.4162 0.73735 0.0
Mg185 Mg 0.85689 0.42397 0.73811 0.0
C186 C 0.79577 0.41558 0.72103 0.0
C187 C 0.81786 0.44878 0.61866 0.0
O188 O 0.84295 0.45149 0.6183 0.0
O189 O 0.83229 0.46952 0.68864 0.0
O190 O 0.84705 0.46324 0.72838 0.0
O191 O 0.84358 0.39276 0.66523 0.0
O192 O 0.85901 0.41418 0.69741 0.0
C193 C 0.83844 0.47718 0.71088 0.0
C194 C 0.85713 0.39363 0.68602 0.0
O195 O 0.80726 0.44123 0.63909 0.0
Mg196 Mg 0.98568 0.73798 0.19463 0.0
O197 O 0.01999 0.76306 0.20214 0.0
O198 O 0.05615 0.74442 0.19051 0.0
Mg199 Mg 0.04463 0.70816 0.1729 0.0
C200 C 0.04443 0.76252 0.20012 0.0
C201 C 0.93576 0.76731 0.20862 0.0
O202 O 0.92506 0.7459 0.20696 0.0
O203 O 0.98636 0.74637 0.15151 0.0
O204 O 0.02258 0.72709 0.14074 0.0
O205 O 0.9933 0.72051 0.23274 0.0
O206 O 0.00935 0.70791 0.19589 0.0
C207 C 0.0029 0.73971 0.13481 0.0
C208 C 0.00832 0.70596 0.22037 0.0
O209 O 0.95955 0.76961 0.20371 0.0
Mg210 Mg 0.65524 0.03684 0.66682 0.0
O211 O 0.69015 0.04659 0.69211 0.0
O212 O 0.6755 0.05273 0.73184 0.0
Mg213 Mg 0.63229 0.0461 0.73256 0.0
C214 C 0.69387 0.05201 0.71563 0.0
C215 C 0.70015 0.03868 0.62688 0.0
O216 O 0.70541 0.05823 0.64012 0.0
O217 O 0.65498 -0.00115 0.68383 0.0
O218 O 0.63967 0.00626 0.72307 0.0
O219 O 0.64733 0.07596 0.65965 0.0
O220 O 0.63082 0.05522 0.69175 0.0
C221 C 0.64774 0.99163 0.70594 0.0
C222 C 0.63359 0.07562 0.68033 0.0
O223 O 0.68134 0.02552 0.63369 0.0
C224 C 0.41339 0.13746 0.19301 0.0
C225 C 0.43132 0.13549 0.21307 0.0
C226 C 0.3872 0.13371 0.19762 0.0
C227 C 0.34304 0.10007 0.21034 0.0
H228 H 0.30666 0.11478 0.27324 0.0
C229 C 0.28143 0.04384 0.28563 0.0
C230 C 0.27033 0.02768 0.26813 0.0
C231 C 0.29185 0.06565 0.2771 0.0
C232 C 0.31647 0.11051 0.25552 0.0
H233 H 0.43551 0.13045 0.25408 0.0
H234 H 0.39003 0.12382 0.26205 0.0
H235 H 0.34449 0.13839 0.26134 0.0
H236 H 0.25775 0.02318 0.22888 0.0
H237 H 0.27449 0.06186 0.21422 0.0
H238 H 0.31688 0.07101 0.20534 0.0
C239 C 0.3961 0.12824 0.24276 0.0
C240 C 0.33807 0.12413 0.24867 0.0
C241 C 0.42226 0.13178 0.23813 0.0
C242 C 0.26664 0.03515 0.24269 0.0
C243 C 0.27649 0.05723 0.23427 0.0
C244 C 0.32173 0.0863 0.2173 0.0
C245 C 0.37843 0.12816 0.22241 0.0
C246 C 0.3522 0.11835 0.22655 0.0
C247 C 0.29093 0.07191 0.25095 0.0
C248 C 0.30884 0.09057 0.2406 0.0
H249 H 0.41969 0.14048 0.17349 0.0
H250 H 0.37397 0.13397 0.1816 0.0
H251 H 0.35361 0.09497 0.1933 0.0
H252 H 0.28454 0.03858 0.30538 0.0
H253 H 0.30274 0.07632 0.29065 0.0
C254 C 0.26846 0.43757 0.75989 0.0
C255 C 0.2714 0.4442 0.73411 0.0
C256 C 0.2792 0.41611 0.76901 0.0
C257 C 0.31976 0.36277 0.74919 0.0
H258 H 0.35676 0.37991 0.81104 0.0
C259 C 0.42511 0.34002 0.76856 0.0
C260 C 0.43354 0.336 0.79378 0.0
C261 C 0.39922 0.34453 0.76343 0.0
C262 C 0.34623 0.37441 0.79411 0.0
H263 H 0.28551 0.43254 0.6971 0.0
H264 H 0.30527 0.39586 0.71301 0.0
H265 H 0.32018 0.40374 0.79802 0.0
H266 H 0.42108 0.33184 0.83319 0.0
H267 H 0.37578 0.34019 0.82423 0.0
H268 H 0.34763 0.33457 0.74444 0.0
C269 C 0.29423 0.40668 0.7263 0.0
C270 C 0.32503 0.3881 0.78659 0.0
C271 C 0.2829 0.42785 0.71708 0.0
C272 C 0.41522 0.335 0.81357 0.0
C273 C 0.38931 0.33981 0.80846 0.0
C274 C 0.34126 0.34926 0.75658 0.0
C275 C 0.29382 0.40125 0.75268 0.0
C276 C 0.3121 0.38312 0.76346 0.0
C277 C 0.3812 0.34535 0.78345 0.0
C278 C 0.35527 0.35555 0.7786 0.0
H279 H 0.25934 0.44974 0.77336 0.0
H280 H 0.2776 0.4121 0.78925 0.0
H281 H 0.30995 0.35797 0.73162 0.0
H282 H 0.43869 0.34066 0.75284 0.0
H283 H 0.39365 0.34896 0.744 0.0
C284 C 0.08183 0.33681 0.18472 0.0
C285 C 0.06457 0.33783 0.20542 0.0
C286 C 0.10811 0.34084 0.1886 0.0
C287 C 0.15891 0.34845 0.23831 0.0
H288 H 0.1796 0.40259 0.1962 0.0
C289 C 0.23299 0.43558 0.23235 0.0
C290 C 0.23071 0.4424 0.25816 0.0
C291 C 0.22189 0.41413 0.22365 0.0
C292 C 0.17485 0.38701 0.20777 0.0
H293 H 0.06168 0.3417 0.24669 0.0
H294 H 0.10731 0.34874 0.25339 0.0
H295 H 0.14184 0.37974 0.18474 0.0
H296 H 0.21773 0.43083 0.29563 0.0
H297 H 0.19747 0.39416 0.28048 0.0
H298 H 0.1915 0.35633 0.26192 0.0
C299 C 0.10064 0.34486 0.23416 0.0
C300 C 0.15295 0.3739 0.20115 0.0
C301 C 0.0744 0.34107 0.23028 0.0
C302 C 0.21979 0.42607 0.2756 0.0
C303 C 0.20816 0.40489 0.26682 0.0
C304 C 0.18108 0.36142 0.2448 0.0
C305 C 0.11765 0.34568 0.21328 0.0
C306 C 0.14407 0.3552 0.21698 0.0
C307 C 0.20765 0.39943 0.24046 0.0
C308 C 0.18863 0.38164 0.2303 0.0
H309 H 0.07492 0.33421 0.16534 0.0
H310 H 0.12081 0.34119 0.17216 0.0
H311 H 0.1527 0.33386 0.25066 0.0
H312 H 0.24167 0.44769 0.21854 0.0
H313 H 0.2228 0.41006 0.20338 0.0
C314 C 0.21255 0.04275 0.72439 0.0
C315 C 0.22221 0.02556 0.74161 0.0
C316 C 0.20168 0.06416 0.7335 0.0
C317 C 0.16795 0.082 0.79242 0.0
H318 H 0.14831 0.13636 0.75001 0.0
C319 C 0.07593 0.13384 0.81436 0.0
C320 C 0.05901 0.13288 0.79338 0.0
C321 C 0.10224 0.12968 0.81091 0.0
C322 C 0.15385 0.12145 0.76224 0.0
H323 H 0.2318 0.01872 0.7813 0.0
H324 H 0.21448 0.05678 0.79711 0.0
H325 H 0.18664 0.113 0.73914 0.0
H326 H 0.05675 0.12914 0.75206 0.0
H327 H 0.10248 0.1219 0.7461 0.0
H328 H 0.13478 0.08991 0.81496 0.0
C329 C 0.21385 0.05327 0.77671 0.0
C330 C 0.17572 0.10796 0.75596 0.0
C331 C 0.22408 0.03156 0.76766 0.0
C332 C 0.06922 0.1297 0.76867 0.0
C333 C 0.09551 0.12581 0.76521 0.0
C334 C 0.1464 0.09567 0.79886 0.0
C335 C 0.20075 0.06899 0.76 0.0
C336 C 0.1823 0.08726 0.77022 0.0
C337 C 0.11214 0.1248 0.78639 0.0
C338 C 0.1384 0.1148 0.78316 0.0
H339 H 0.21083 0.03857 0.70418 0.0
H340 H 0.19187 0.07565 0.71988 0.0
H341 H 0.17192 0.06612 0.80381 0.0
H342 H 0.06872 0.13639 0.83363 0.0
H343 H 0.11466 0.12917 0.82755 0.0
C344 C 0.58188 0.78325 0.74164 0.0
C345 C 0.57038 0.78253 0.76601 0.0
C346 C 0.59642 0.80322 0.7341 0.0
C347 C 0.63029 0.85721 0.75859 0.0
H348 H 0.61159 0.88552 0.69326 0.0
C349 C 0.64192 0.95773 0.73693 0.0
C350 C 0.64723 0.96548 0.71183 0.0
C351 C 0.63854 0.93331 0.74234 0.0
C352 C 0.61753 0.87762 0.71128 0.0
H353 H 0.56592 0.80182 0.8019 0.0
H354 H 0.59125 0.83666 0.78872 0.0
H355 H 0.59439 0.84623 0.70519 0.0
H356 H 0.65449 0.95342 0.67296 0.0
H357 H 0.64867 0.91055 0.6825 0.0
H358 H 0.65288 0.88891 0.765 0.0
C359 C 0.58914 0.82172 0.77549 0.0
C360 C 0.60762 0.85511 0.71815 0.0
C361 C 0.57447 0.80183 0.78298 0.0
C362 C 0.65029 0.94807 0.69247 0.0
C363 C 0.64682 0.92353 0.6979 0.0
C364 C 0.64031 0.87967 0.75168 0.0
C365 C 0.59994 0.8228 0.75083 0.0
C366 C 0.61331 0.84499 0.74218 0.0
C367 C 0.6404 0.91595 0.72282 0.0
C368 C 0.63342 0.89047 0.72828 0.0
H369 H 0.57917 0.76863 0.72814 0.0
H370 H 0.6047 0.80347 0.71506 0.0
H371 H 0.63537 0.84965 0.77704 0.0
H372 H 0.63959 0.97059 0.75238 0.0
H373 H 0.63329 0.92819 0.76166 0.0
C374 C 0.5804 0.66712 0.21418 0.0
C375 C 0.57525 0.68599 0.2314 0.0
C376 C 0.59535 0.64744 0.22171 0.0
C377 C 0.61292 0.61341 0.27892 0.0
H378 H 0.65967 0.58098 0.23241 0.0
C379 C 0.65581 0.52041 0.30359 0.0
C380 C 0.65304 0.5033 0.28387 0.0
C381 C 0.65247 0.54502 0.29853 0.0
C382 C 0.6467 0.58984 0.24563 0.0
H383 H 0.58244 0.69937 0.26981 0.0
H384 H 0.6085 0.66487 0.28297 0.0
H385 H 0.642 0.62031 0.22083 0.0
H386 H 0.64616 0.49881 0.24312 0.0
H387 H 0.64011 0.5414 0.23446 0.0
H388 H 0.6167 0.58256 0.30322 0.0
C389 C 0.60082 0.6653 0.26369 0.0
C390 C 0.63658 0.61234 0.239 0.0
C391 C 0.58597 0.68508 0.25611 0.0
C392 C 0.64825 0.51144 0.25882 0.0
C393 C 0.64501 0.53595 0.25378 0.0
C394 C 0.62297 0.59087 0.28552 0.0
C395 C 0.60541 0.64613 0.24666 0.0
C396 C 0.61903 0.62404 0.25525 0.0
C397 C 0.64647 0.55299 0.27366 0.0
C398 C 0.63939 0.57852 0.26861 0.0
H399 H 0.57248 0.66729 0.19499 0.0
H400 H 0.59824 0.63281 0.20824 0.0
H401 H 0.59925 0.62187 0.29174 0.0
H402 H 0.65961 0.51476 0.32308 0.0
H403 H 0.654 0.55776 0.3142 0.0
C404 C 0.92733 0.66009 0.78386 0.0
C405 C 0.91824 0.68324 0.77773 0.0
C406 C 0.91325 0.63965 0.77718 0.0
C407 C 0.86331 0.61796 0.7327 0.0
H408 H 0.86512 0.56263 0.77803 0.0
C409 C 0.84538 0.52028 0.69864 0.0
C410 C 0.83715 0.50315 0.71664 0.0
C411 C 0.84915 0.5443 0.70602 0.0
C412 C 0.86383 0.57796 0.76525 0.0
H413 H 0.88699 0.70311 0.76004 0.0
H414 H 0.86207 0.66725 0.74872 0.0
H415 H 0.88315 0.60057 0.79216 0.0
H416 H 0.82382 0.49789 0.75553 0.0
H417 H 0.82895 0.53992 0.76806 0.0
H418 H 0.84364 0.59527 0.70587 0.0
C419 C 0.88033 0.66497 0.75839 0.0
C420 C 0.87463 0.59969 0.77325 0.0
C421 C 0.89454 0.68551 0.765 0.0
C422 C 0.83059 0.51075 0.74142 0.0
C423 C 0.83374 0.5348 0.74862 0.0
C424 C 0.85222 0.59619 0.72474 0.0
C425 C 0.88958 0.6418 0.76436 0.0
C426 C 0.87518 0.61975 0.75684 0.0
C427 C 0.84427 0.55165 0.73141 0.0
C428 C 0.85287 0.57574 0.74071 0.0
H429 H 0.9456 0.65767 0.79349 0.0
H430 H 0.92125 0.6221 0.78161 0.0
H431 H 0.86346 0.63306 0.71954 0.0
H432 H 0.85064 0.51478 0.67943 0.0
H433 H 0.85742 0.55667 0.69224 0.0
C434 C 0.84242 0.9585 0.25715 0.0
C435 C 0.8419 0.96692 0.28255 0.0
C436 C 0.8459 0.93404 0.25195 0.0
C437 C 0.84673 0.87954 0.24566 0.0
H438 H 0.90655 0.8542 0.2809 0.0
C439 C 0.89421 0.78694 0.22164 0.0
C440 C 0.92099 0.78827 0.2182 0.0
C441 C 0.88064 0.8066 0.23172 0.0
C442 C 0.8897 0.86096 0.27103 0.0
H443 H 0.843 0.95605 0.32245 0.0
H444 H 0.84937 0.91315 0.31328 0.0
H445 H 0.88761 0.89218 0.29499 0.0
H446 H 0.95448 0.81129 0.22253 0.0
H447 H 0.93089 0.84534 0.24013 0.0
H448 H 0.84963 0.84871 0.22099 0.0
C449 C 0.84716 0.92561 0.29745 0.0
C450 C 0.87867 0.88256 0.27927 0.0
C451 C 0.84341 0.95013 0.30268 0.0
C452 C 0.93387 0.80964 0.22491 0.0
C453 C 0.9204 0.8291 0.23521 0.0
C454 C 0.85766 0.85778 0.23753 0.0
C455 C 0.84912 0.91743 0.27201 0.0
C456 C 0.85756 0.89246 0.26619 0.0
C457 C 0.8937 0.82775 0.23886 0.0
C458 C 0.87976 0.84873 0.24964 0.0
H459 H 0.84106 0.97094 0.2412 0.0
H460 H 0.84755 0.92836 0.23216 0.0
H461 H 0.83033 0.88667 0.23535 0.0
H462 H 0.88375 0.77071 0.21664 0.0
H463 H 0.86005 0.80513 0.23432 0.0
C464 C 0.55006 0.19786 0.25023 0.0
C465 C 0.5382 0.19627 0.22607 0.0
C466 C 0.56076 0.21953 0.25861 0.0
C467 C 0.5582 0.28494 0.25049 0.0
H468 H 0.6262 0.28316 0.28095 0.0
C469 C 0.61163 0.37171 0.28084 0.0
C470 C 0.62598 0.37092 0.30364 0.0
C471 C 0.60127 0.35065 0.27039 0.0
C472 C 0.60707 0.28396 0.2728 0.0
H473 H 0.52791 0.21647 0.19196 0.0
H474 H 0.54648 0.25458 0.20687 0.0
H475 H 0.60712 0.24615 0.26444 0.0
H476 H 0.64036 0.3474 0.33358 0.0
H477 H 0.62176 0.31073 0.31574 0.0
H478 H 0.55783 0.32262 0.25935 0.0
C479 C 0.54746 0.23888 0.2192 0.0
C480 C 0.5962 0.26276 0.26325 0.0
C481 C 0.53692 0.21706 0.21065 0.0
C482 C 0.62956 0.34861 0.31589 0.0
C483 C 0.61903 0.32755 0.30554 0.0
C484 C 0.56899 0.30614 0.26024 0.0
C485 C 0.55972 0.24022 0.24316 0.0
C486 C 0.57159 0.263 0.25217 0.0
C487 C 0.60479 0.3283 0.28263 0.0
C488 C 0.59351 0.30589 0.27167 0.0
H489 H 0.55143 0.18226 0.26265 0.0
H490 H 0.56977 0.22012 0.27731 0.0
H491 H 0.53909 0.28558 0.24226 0.0
H492 H 0.60824 0.38861 0.27103 0.0
H493 H 0.59068 0.35189 0.25258 0.0
C494 C 0.18496 0.54006 0.75009 0.0
C495 C 0.19567 0.54203 0.7255 0.0
C496 C 0.16388 0.55415 0.75712 0.0
C497 C 0.1383 0.60016 0.77329 0.0
H498 H 0.08247 0.62198 0.72992 0.0
C499 C 0.0826 0.68707 0.79531 0.0
C500 C 0.05578 0.68713 0.79199 0.0
C501 C 0.09742 0.6676 0.78691 0.0
C502 C 0.09782 0.61587 0.74236 0.0
H503 H 0.19164 0.55899 0.68835 0.0
H504 H 0.155 0.58413 0.70077 0.0
H505 H 0.11064 0.58936 0.71521 0.0
H506 H 0.02356 0.66657 0.77705 0.0
H507 H 0.04954 0.63244 0.76254 0.0
H508 H 0.12566 0.62648 0.80041 0.0
C509 C 0.16267 0.57142 0.71456 0.0
C510 C 0.11408 0.59734 0.73383 0.0
C511 C 0.18364 0.557 0.70739 0.0
C512 C 0.04416 0.66714 0.78 0.0
C513 C 0.05905 0.64764 0.7715 0.0
C514 C 0.12215 0.6186 0.78175 0.0
C515 C 0.15327 0.57089 0.73987 0.0
C516 C 0.13465 0.58937 0.74916 0.0
C517 C 0.08586 0.64763 0.77494 0.0
C518 C 0.10191 0.62693 0.76629 0.0
H519 H 0.19369 0.52846 0.76435 0.0
H520 H 0.15667 0.55273 0.77653 0.0
H521 H 0.15417 0.59485 0.78548 0.0
H522 H 0.09229 0.70215 0.80431 0.0
H523 H 0.11806 0.66837 0.7895 0.0
C524 C 0.88462 0.09833 0.27593 0.0
C525 C 0.87139 0.09938 0.2994 0.0
C526 C 0.89622 0.11895 0.26575 0.0
C527 C 0.92338 0.17711 0.28475 0.0
H528 H 0.91338 0.19534 0.21371 0.0
C529 C 0.95168 0.27075 0.24752 0.0
C530 C 0.96132 0.27311 0.22247 0.0
C531 C 0.94228 0.24868 0.25625 0.0
C532 C 0.91675 0.19029 0.23347 0.0
H533 H 0.86002 0.12296 0.33059 0.0
H534 H 0.88053 0.15889 0.31291 0.0
H535 H 0.89346 0.15853 0.2301 0.0
H536 H 0.96904 0.25385 0.18712 0.0
H537 H 0.95308 0.21503 0.20264 0.0
H538 H 0.94685 0.20856 0.28822 0.0
C539 C 0.88187 0.14207 0.30242 0.0
C540 C 0.90523 0.16928 0.24286 0.0
C541 C 0.87002 0.12152 0.31246 0.0
C542 C 0.96169 0.25268 0.20649 0.0
C543 C 0.9524 0.23047 0.21533 0.0
C544 C 0.93509 0.19796 0.27533 0.0
C545 C 0.89515 0.14097 0.27901 0.0
C546 C 0.90815 0.16268 0.26868 0.0
C547 C 0.94244 0.22826 0.2403 0.0
C548 C 0.9316 0.20504 0.24968 0.0
H549 H 0.88635 0.08154 0.26552 0.0
H550 H 0.90655 0.11755 0.24779 0.0
H551 H 0.92634 0.1722 0.30462 0.0
H552 H 0.95088 0.28609 0.26035 0.0
H553 H 0.93431 0.24783 0.27539 0.0
C554 C 0.30915 0.91699 0.71699 0.0
C555 C 0.29071 0.92244 0.73589 0.0
C556 C 0.33029 0.90219 0.72286 0.0
C557 C 0.34408 0.851 0.76138 0.0
H558 H 0.41689 0.86591 0.76102 0.0
C559 C 0.4153 0.78662 0.80863 0.0
C560 C 0.43915 0.78258 0.79683 0.0
C561 C 0.39934 0.80532 0.80041 0.0
C562 C 0.39666 0.86132 0.76085 0.0
H563 H 0.28123 0.918 0.7762 0.0
H564 H 0.31751 0.89207 0.78598 0.0
H565 H 0.38571 0.89632 0.74658 0.0
H566 H 0.46535 0.79549 0.76758 0.0
H567 H 0.43709 0.82782 0.75264 0.0
H568 H 0.35444 0.81609 0.77506 0.0
C569 C 0.31557 0.89914 0.76672 0.0
C570 C 0.3789 0.87875 0.75262 0.0
C571 C 0.29475 0.91399 0.76101 0.0
C572 C 0.44709 0.79821 0.77713 0.0
C573 C 0.4309 0.81678 0.76861 0.0
C574 C 0.3617 0.83356 0.76922 0.0
C575 C 0.3331 0.89258 0.7476 0.0
C576 C 0.35245 0.87382 0.75335 0.0
C577 C 0.40656 0.82024 0.77981 0.0
C578 C 0.3882 0.83863 0.7697 0.0
H579 H 0.30666 0.92321 0.69749 0.0
H580 H 0.34364 0.89727 0.70782 0.0
H581 H 0.32375 0.84674 0.76183 0.0
H582 H 0.40877 0.77512 0.8241 0.0
H583 H 0.38114 0.80787 0.8101 0.0
C584 C 0.53338 0.24904 0.78825 0.0
C585 C 0.53577 0.27079 0.77461 0.0
C586 C 0.54274 0.22745 0.77792 0.0
C587 C 0.56445 0.19965 0.71669 0.0
H588 H 0.59942 0.15469 0.7617 0.0
C589 C 0.62638 0.12039 0.67928 0.0
C590 C 0.62235 0.09794 0.69115 0.0
C591 C 0.61534 0.14134 0.68941 0.0
C592 C 0.58953 0.16701 0.74894 0.0
H593 H 0.54982 0.28681 0.7393 0.0
H594 H 0.56652 0.2495 0.7217 0.0
H595 H 0.5803 0.19122 0.77948 0.0
H596 H 0.60314 0.07991 0.72272 0.0
H597 H 0.58438 0.11643 0.74056 0.0
H598 H 0.57422 0.17557 0.68609 0.0
C599 C 0.55694 0.24891 0.74011 0.0
C600 C 0.57846 0.18788 0.75913 0.0
C601 C 0.54745 0.27039 0.75032 0.0
C602 C 0.60706 0.09691 0.71333 0.0
C603 C 0.59625 0.11785 0.72357 0.0
C604 C 0.57573 0.17889 0.70648 0.0
C605 C 0.55484 0.22717 0.7538 0.0
C606 C 0.56583 0.20451 0.74312 0.0
C607 C 0.60022 0.14026 0.7117 0.0
C608 C 0.58841 0.16238 0.7225 0.0
H609 H 0.5244 0.24867 0.80697 0.0
H610 H 0.54045 0.21097 0.78883 0.0
H611 H 0.55449 0.21181 0.70384 0.0
H612 H 0.63801 0.12178 0.66214 0.0
H613 H 0.61885 0.15843 0.67997 0.0
C614 C 0.41805 0.68725 0.20719 0.0
C615 C 0.44495 0.68562 0.20512 0.0
C616 C 0.40381 0.66838 0.21778 0.0
C617 C 0.40385 0.60344 0.2291 0.0
H618 H 0.34922 0.61887 0.27698 0.0
C619 C 0.31406 0.54474 0.24502 0.0
C620 C 0.30303 0.5435 0.26958 0.0
C621 C 0.33586 0.55883 0.24059 0.0
C622 C 0.36465 0.61416 0.26398 0.0
H623 H 0.4779 0.66256 0.21227 0.0
H624 H 0.45278 0.62928 0.23038 0.0
H625 H 0.37826 0.6506 0.26242 0.0
H626 H 0.30711 0.55496 0.30906 0.0
H627 H 0.34521 0.5799 0.30122 0.0
H628 H 0.38962 0.56712 0.23001 0.0
C629 C 0.44286 0.64535 0.2239 0.0
C630 C 0.3811 0.63239 0.25542 0.0
C631 C 0.45722 0.66442 0.21358 0.0
C632 C 0.3152 0.55551 0.28995 0.0
C633 C 0.33688 0.56992 0.28543 0.0
C634 C 0.3872 0.58522 0.23746 0.0
C635 C 0.41603 0.64726 0.22635 0.0
C636 C 0.40051 0.62734 0.23747 0.0
C637 C 0.347 0.57224 0.26054 0.0
C638 C 0.36709 0.59049 0.2546 0.0
H639 H 0.40792 0.70329 0.20097 0.0
H640 H 0.38312 0.67023 0.21906 0.0
H641 H 0.41861 0.59904 0.21523 0.0
H642 H 0.3052 0.5356 0.22894 0.0
H643 H 0.34303 0.56035 0.22117 0.0
C644 C 0.88326 0.37275 0.71976 0.0
C645 C 0.86912 0.37166 0.69683 0.0
C646 C 0.89476 0.35203 0.72982 0.0
C647 C 0.91953 0.29278 0.7113 0.0
H648 H 0.91039 0.27606 0.78287 0.0
C649 C 0.94577 0.19903 0.74989 0.0
C650 C 0.95581 0.19689 0.77479 0.0
C651 C 0.9368 0.22116 0.74087 0.0
C652 C 0.91353 0.28066 0.76295 0.0
H653 H 0.85623 0.34798 0.66633 0.0
H654 H 0.87661 0.31185 0.68378 0.0
H655 H 0.89144 0.31318 0.76618 0.0
H656 H 0.96467 0.21656 0.80962 0.0
H657 H 0.94949 0.25546 0.79361 0.0
H658 H 0.94182 0.26055 0.70797 0.0
C659 C 0.87869 0.32877 0.69397 0.0
C660 C 0.90257 0.30187 0.75339 0.0
C661 C 0.86693 0.34943 0.68406 0.0
C662 C 0.95697 0.21756 0.79037 0.0
C663 C 0.94813 0.23983 0.78124 0.0
C664 C 0.9307 0.27173 0.72089 0.0
C665 C 0.89269 0.32987 0.71696 0.0
C666 C 0.90518 0.30795 0.7274 0.0
C667 C 0.93782 0.24185 0.7564 0.0
C668 C 0.92752 0.2652 0.74675 0.0
H669 H 0.88568 0.38961 0.7299 0.0
H670 H 0.90568 0.35343 0.74743 0.0
H671 H 0.92222 0.29726 0.69128 0.0
H672 H 0.94436 0.18349 0.73738 0.0
H673 H 0.92852 0.22188 0.72186 0.0
C674 C 0.04755 0.80426 0.21886 0.0
C675 C 0.05969 0.78299 0.2104 0.0
C676 C 0.06191 0.82312 0.22952 0.0
C677 C 0.12389 0.83577 0.26114 0.0
H678 H 0.11305 0.90164 0.23849 0.0
C679 C 0.18767 0.92589 0.25372 0.0
C680 C 0.19925 0.92628 0.27805 0.0
C681 C 0.16627 0.91137 0.249 0.0
C682 C 0.11616 0.88336 0.24516 0.0
H683 H 0.09658 0.76505 0.20649 0.0
H684 H 0.12152 0.79789 0.22501 0.0
H685 H 0.08501 0.86951 0.22264 0.0
H686 H 0.19649 0.9129 0.31696 0.0
H687 H 0.159 0.88728 0.30864 0.0
H688 H 0.15557 0.8494 0.28293 0.0
C689 C 0.10085 0.79988 0.22359 0.0
C690 C 0.10003 0.86499 0.23618 0.0
C691 C 0.08655 0.78113 0.21275 0.0
C692 C 0.18793 0.91304 0.29804 0.0
C693 C 0.16663 0.89822 0.29322 0.0
C694 C 0.13987 0.85414 0.27026 0.0
C695 C 0.0887 0.82104 0.2322 0.0
C696 C 0.10413 0.84091 0.2436 0.0
C697 C 0.15608 0.89669 0.26843 0.0
C698 C 0.13657 0.87806 0.26191 0.0
H699 H 0.02689 0.80633 0.21738 0.0
H700 H 0.052 0.83917 0.23606 0.0
H701 H 0.1273 0.81744 0.26749 0.0
H702 H 0.19589 0.93599 0.23795 0.0
H703 H 0.15876 0.91052 0.22967 0.0
C704 C 0.30773 0.5892 0.67949 0.0
C705 C 0.30204 0.57168 0.69814 0.0
C706 C 0.32405 0.60851 0.68527 0.0
C707 C 0.35383 0.64157 0.73916 0.0
H708 H 0.41257 0.64865 0.69395 0.0
C709 C 0.45016 0.67382 0.77611 0.0
C710 C 0.46365 0.69157 0.76243 0.0
C711 C 0.42857 0.66287 0.76558 0.0
C712 C 0.39605 0.64724 0.70649 0.0
H713 H 0.30804 0.56132 0.73775 0.0
H714 H 0.33611 0.59494 0.74787 0.0
H715 H 0.37608 0.62372 0.68069 0.0
H716 H 0.46589 0.71095 0.72641 0.0
H717 H 0.42795 0.69125 0.70764 0.0
H718 H 0.37418 0.66419 0.7654 0.0
C719 C 0.32797 0.59387 0.7288 0.0
C720 C 0.37516 0.63303 0.69891 0.0
C721 C 0.31192 0.57449 0.72297 0.0
C722 C 0.45581 0.69734 0.73739 0.0
C723 C 0.43411 0.68617 0.72671 0.0
C724 C 0.37464 0.65571 0.7467 0.0
C725 C 0.33466 0.61078 0.70989 0.0
C726 C 0.35428 0.62937 0.7156 0.0
C727 C 0.41999 0.66925 0.74103 0.0
C728 C 0.39634 0.65793 0.73086 0.0
H729 H 0.30043 0.58751 0.66014 0.0
H730 H 0.32878 0.62138 0.67038 0.0
H731 H 0.33778 0.63943 0.75219 0.0
H732 H 0.45603 0.66858 0.79522 0.0
H733 H 0.4185 0.64937 0.77676 0.0
C734 C 0.89775 0.35403 0.17874 0.0
C735 C 0.92133 0.35985 0.19032 0.0
C736 C 0.87457 0.36016 0.19049 0.0
C737 C 0.84555 0.40012 0.23935 0.0
H738 H 0.78962 0.35403 0.23482 0.0
C739 C 0.74615 0.41334 0.289 0.0
C740 C 0.72478 0.40898 0.27314 0.0
C741 C 0.77097 0.40723 0.28083 0.0
C742 C 0.80504 0.36711 0.23617 0.0
H743 H 0.93897 0.3774 0.22302 0.0
H744 H 0.8984 0.38766 0.24388 0.0
H745 H 0.83147 0.34377 0.21703 0.0
H746 H 0.71282 0.39461 0.2363 0.0
H747 H 0.75586 0.38389 0.22229 0.0
H748 H 0.81884 0.42342 0.25858 0.0
C749 C 0.8979 0.37847 0.22558 0.0
C750 C 0.829 0.36129 0.22589 0.0
C751 C 0.92117 0.37241 0.21372 0.0
C752 C 0.72878 0.39827 0.24904 0.0
C753 C 0.75346 0.39196 0.24104 0.0
C754 C 0.82153 0.40589 0.2498 0.0
C755 C 0.87431 0.37217 0.21421 0.0
C756 C 0.84942 0.37789 0.22688 0.0
C757 C 0.77481 0.39635 0.25681 0.0
C758 C 0.80091 0.3896 0.24787 0.0
H759 H 0.89713 0.34455 0.1606 0.0
H760 H 0.8568 0.35552 0.18087 0.0
H761 H 0.8608 0.41339 0.2403 0.0
H762 H 0.74375 0.42162 0.30765 0.0
H763 H 0.7871 0.41072 0.29341 0.0
C764 C 0.03276 0.77282 0.73745 0.0
C765 C 0.02515 0.77826 0.76265 0.0
C766 C 0.05379 0.78479 0.72642 0.0
C767 C 0.1127 0.81572 0.74621 0.0
H768 H 0.11067 0.84942 0.68117 0.0
C769 C 0.1748 0.89771 0.72516 0.0
C770 C 0.18566 0.90072 0.70077 0.0
C771 C 0.15831 0.87848 0.73011 0.0
C772 C 0.11172 0.83964 0.6991 0.0
H773 H 0.03225 0.80157 0.79529 0.0
H774 H 0.06862 0.82218 0.77621 0.0
H775 H 0.07437 0.82387 0.69391 0.0
H776 H 0.18812 0.88559 0.66249 0.0
H777 H 0.15883 0.85196 0.67117 0.0
H778 H 0.14944 0.8321 0.75199 0.0
C779 C 0.05888 0.80838 0.76517 0.0
C780 C 0.09097 0.82509 0.70638 0.0
C781 C 0.03798 0.79662 0.77604 0.0
C782 C 0.18012 0.8837 0.68154 0.0
C783 C 0.16329 0.86454 0.68642 0.0
C784 C 0.13334 0.83018 0.73897 0.0
C785 C 0.06744 0.80216 0.74057 0.0
C786 C 0.09091 0.8138 0.73045 0.0
C787 C 0.15207 0.86191 0.71072 0.0
C788 C 0.13263 0.84301 0.71582 0.0
H789 H 0.02316 0.75874 0.7267 0.0
H790 H 0.05996 0.77986 0.70731 0.0
H791 H 0.11331 0.80677 0.76465 0.0
H792 H 0.17848 0.9105 0.74035 0.0
H793 H 0.14964 0.87712 0.74893 0.0
C794 C 0.59566 0.1115 0.17843 0.0
C795 C 0.57236 0.10758 0.19139 0.0
C796 C 0.61887 0.10361 0.18891 0.0
C797 C 0.65008 0.08899 0.24971 0.0
H798 H 0.7008 0.05831 0.20611 0.0
C799 C 0.74938 0.05582 0.28729 0.0
C800 C 0.77049 0.05985 0.271 0.0
C801 C 0.72427 0.06013 0.2787 0.0
C802 C 0.68696 0.06706 0.21852 0.0
H803 H 0.5552 0.09165 0.22529 0.0
H804 H 0.59589 0.07825 0.24382 0.0
H805 H 0.65866 0.06829 0.1888 0.0
H806 H 0.78169 0.07236 0.23318 0.0
H807 H 0.73831 0.08028 0.21856 0.0
H808 H 0.67865 0.08834 0.27928 0.0
C809 C 0.59609 0.0876 0.22559 0.0
C810 C 0.66279 0.0727 0.20859 0.0
C811 C 0.57279 0.09528 0.21496 0.0
C812 C 0.76593 0.06876 0.24619 0.0
C813 C 0.74097 0.07316 0.23771 0.0
C814 C 0.67438 0.08348 0.25964 0.0
C815 C 0.61936 0.09173 0.21268 0.0
C816 C 0.64424 0.08406 0.22394 0.0
C817 C 0.71979 0.06863 0.25369 0.0
C818 C 0.69326 0.07284 0.244 0.0
H819 H 0.59606 0.12089 0.16024 0.0
H820 H 0.63653 0.10726 0.17863 0.0
H821 H 0.63618 0.09789 0.26194 0.0
H822 H 0.75221 0.04891 0.3065 0.0
H823 H 0.70836 0.05634 0.29146 0.0
C824 C 0.45584 0.79583 0.21368 0.0
C825 C 0.46942 0.77901 0.22853 0.0
C826 C 0.43472 0.80795 0.22377 0.0
C827 C 0.40364 0.82654 0.28354 0.0
H828 H 0.34513 0.83602 0.2385 0.0
C829 C 0.31494 0.88203 0.31422 0.0
C830 C 0.3084 0.90031 0.29672 0.0
C831 C 0.33169 0.8635 0.30708 0.0
C832 C 0.3613 0.83347 0.2513 0.0
H833 H 0.47209 0.7622 0.26593 0.0
H834 H 0.43488 0.78359 0.28376 0.0
H835 H 0.38095 0.8109 0.22451 0.0
H836 H 0.31333 0.91285 0.25767 0.0
H837 H 0.34227 0.88046 0.24516 0.0
H838 H 0.38411 0.84959 0.31011 0.0
C839 C 0.44069 0.78731 0.26424 0.0
C840 C 0.38183 0.81917 0.24329 0.0
C841 C 0.46198 0.77513 0.25407 0.0
C842 C 0.31789 0.89903 0.27158 0.0
C843 C 0.33443 0.8804 0.26439 0.0
C844 C 0.383 0.8408 0.29161 0.0
C845 C 0.4266 0.80354 0.24898 0.0
C846 C 0.40355 0.81613 0.259 0.0
C847 C 0.34197 0.86278 0.28223 0.0
C848 C 0.36196 0.84492 0.27527 0.0
H849 H 0.46137 0.79953 0.19406 0.0
H850 H 0.42474 0.82085 0.21176 0.0
H851 H 0.42015 0.82462 0.29601 0.0
H852 H 0.30793 0.88251 0.33375 0.0
H853 H 0.33702 0.85001 0.32113 0.0
C854 C 0.76344 0.41382 0.75621 0.0
C855 C 0.76968 0.40972 0.7304 0.0
C856 C 0.73928 0.40765 0.76569 0.0
C857 C 0.69422 0.37976 0.78565 0.0
H858 H 0.63227 0.38453 0.74476 0.0
C859 C 0.59861 0.34021 0.82138 0.0
C860 C 0.57579 0.35253 0.8155 0.0
C861 C 0.62184 0.3471 0.81019 0.0
C862 C 0.64932 0.38334 0.75658 0.0
H863 H 0.75536 0.39622 0.69416 0.0
H864 H 0.71331 0.3845 0.71095 0.0
H865 H 0.67311 0.39777 0.72685 0.0
H866 H 0.55937 0.38188 0.7935 0.0
H867 H 0.6001 0.39462 0.77471 0.0
H868 H 0.67045 0.36645 0.81578 0.0
C869 C 0.72691 0.39305 0.72376 0.0
C870 C 0.67286 0.3906 0.74614 0.0
C871 C 0.75105 0.39964 0.71413 0.0
C872 C 0.57667 0.37199 0.7983 0.0
C873 C 0.60001 0.37915 0.78738 0.0
C874 C 0.67071 0.37284 0.79619 0.0
C875 C 0.72081 0.39676 0.74977 0.0
C876 C 0.69563 0.38893 0.76056 0.0
C877 C 0.62293 0.36677 0.79316 0.0
C878 C 0.64792 0.37443 0.7818 0.0
H879 H 0.77723 0.42194 0.76914 0.0
H880 H 0.73511 0.41149 0.7856 0.0
H881 H 0.71133 0.37773 0.79725 0.0
H882 H 0.59849 0.32492 0.83432 0.0
H883 H 0.63891 0.33675 0.81469 0.0
C884 C 0.18464 0.58504 0.3097 0.0
C885 C 0.19085 0.567 0.29178 0.0
C886 C 0.16495 0.60156 0.3046 0.0
C887 C 0.10566 0.60474 0.26724 0.0
H888 H 0.10772 0.67372 0.27965 0.0
C889 C 0.0361 0.66972 0.21951 0.0
C890 C 0.02601 0.68923 0.23339 0.0
C891 C 0.0547 0.65483 0.23025 0.0
C892 C 0.10673 0.65441 0.27658 0.0
H893 H 0.18255 0.55322 0.25376 0.0
H894 H 0.14858 0.58214 0.24479 0.0
H895 H 0.14517 0.64877 0.29033 0.0
H896 H 0.02705 0.70826 0.26964 0.0
H897 H 0.06009 0.68199 0.28863 0.0
H898 H 0.06756 0.61024 0.25315 0.0
C899 C 0.15854 0.58321 0.26298 0.0
C900 C 0.12817 0.64019 0.28255 0.0
C901 C 0.17818 0.56678 0.26804 0.0
C902 C 0.03444 0.69324 0.2586 0.0
C903 C 0.05342 0.67837 0.26935 0.0
C904 C 0.08432 0.61886 0.26138 0.0
C905 C 0.15114 0.60022 0.28154 0.0
C906 C 0.12804 0.61532 0.27724 0.0
C907 C 0.06381 0.65912 0.25514 0.0
C908 C 0.08488 0.64392 0.26531 0.0
H909 H 0.19409 0.58568 0.32818 0.0
H910 H 0.15967 0.61453 0.31921 0.0
H911 H 0.10476 0.5855 0.26363 0.0
H912 H 0.02991 0.66616 0.20005 0.0
H913 H 0.06256 0.64037 0.21869 0.0
C914 C 0.89244 0.11219 0.82042 0.0
C915 C 0.91607 0.10845 0.80798 0.0
C916 C 0.86955 0.1041 0.80944 0.0
C917 C 0.83957 0.08885 0.7482 0.0
H918 H 0.78893 0.05718 0.79109 0.0
C919 C 0.7418 0.05386 0.70887 0.0
C920 C 0.72026 0.05748 0.72472 0.0
C921 C 0.76663 0.05852 0.71802 0.0
C922 C 0.80274 0.06621 0.77888 0.0
H923 H 0.93411 0.09287 0.77435 0.0
H924 H 0.89394 0.0791 0.75495 0.0
H925 H 0.83055 0.06807 0.80901 0.0
H926 H 0.70802 0.0694 0.76243 0.0
H927 H 0.75094 0.07793 0.77803 0.0
H928 H 0.81147 0.08758 0.71823 0.0
C929 C 0.89326 0.08841 0.77319 0.0
C930 C 0.82661 0.07237 0.78915 0.0
C931 C 0.91626 0.09629 0.78433 0.0
C932 C 0.72412 0.06616 0.74973 0.0
C933 C 0.74883 0.07091 0.75878 0.0
C934 C 0.81554 0.08284 0.73793 0.0
C935 C 0.86968 0.09221 0.78568 0.0
C936 C 0.84514 0.08408 0.77406 0.0
C937 C 0.77043 0.06696 0.74316 0.0
C938 C 0.79668 0.0718 0.75329 0.0
H939 H 0.89156 0.12147 0.83866 0.0
H940 H 0.85164 0.10752 0.81939 0.0
H941 H 0.85344 0.09801 0.73617 0.0
H942 H 0.73953 0.04715 0.68951 0.0
H943 H 0.78286 0.05513 0.70553 0.0
C944 C 0.48568 0.19582 0.0934 0.0
C945 C 0.49292 0.17151 0.09071 0.0
C946 C 0.48198 0.21034 0.07177 0.0
C947 C 0.47165 0.20767 0.00129 0.0
H948 H 0.49976 0.27244 0.00272 0.0
C949 C 0.48922 0.26476 0.90998 0.0
C950 C 0.48456 0.28971 0.91143 0.0
C951 C 0.48727 0.25028 0.93186 0.0
C952 C 0.49146 0.25452 0.0021 0.0
H953 H 0.50157 0.14332 0.06316 0.0
H954 H 0.49551 0.16865 0.02562 0.0
H955 H 0.50177 0.2475 0.04105 0.0
H956 H 0.47314 0.31882 0.93682 0.0
H957 H 0.46956 0.29357 0.97482 0.0
H958 H 0.46181 0.21462 0.96212 0.0
C959 C 0.4923 0.17646 0.04436 0.0
C960 C 0.49259 0.24021 0.02411 0.0
C961 C 0.49596 0.16196 0.06594 0.0
C962 C 0.47705 0.2997 0.93503 0.0
C963 C 0.47514 0.28525 0.95688 0.0
C964 C 0.47059 0.22197 0.97924 0.0
C965 C 0.48546 0.20088 0.04698 0.0
C966 C 0.48289 0.21653 0.02394 0.0
C967 C 0.48065 0.26045 0.95566 0.0
C968 C 0.48064 0.24551 0.97934 0.0
H969 H 0.48306 0.2037 0.1122 0.0
H970 H 0.47638 0.22899 0.07447 0.0
H971 H 0.46363 0.18964 0.0006 0.0
H972 H 0.49506 0.25649 0.8921 0.0
H973 H 0.49183 0.23126 0.93031 0.0
C974 C 0.26059 0.47852 0.3989 0.0
C975 C 0.2358 0.48328 0.38952 0.0
C976 C 0.2644 0.47348 0.42493 0.0
C977 C 0.22891 0.45808 0.48526 0.0
H978 H 0.28774 0.48793 0.51798 0.0
C979 C 0.23596 0.48033 0.59366 0.0
C980 C 0.25965 0.47582 0.60569 0.0
C981 C 0.2332 0.47678 0.56725 0.0
C982 C 0.27138 0.47922 0.50906 0.0
H983 H 0.19552 0.48608 0.40005 0.0
H984 H 0.20219 0.47816 0.4451 0.0
H985 H 0.28335 0.48995 0.47162 0.0
H986 H 0.29859 0.46284 0.59963 0.0
H987 H 0.29376 0.45699 0.55367 0.0
H988 H 0.21644 0.44843 0.52307 0.0
C989 C 0.21871 0.47763 0.43249 0.0
C990 C 0.26891 0.48026 0.48244 0.0
C991 C 0.21491 0.48241 0.40656 0.0
C992 C 0.28011 0.46665 0.59098 0.0
C993 C 0.27742 0.46337 0.56462 0.0
C994 C 0.23122 0.45735 0.51193 0.0
C995 C 0.24351 0.4733 0.44213 0.0
C996 C 0.24744 0.47002 0.47019 0.0
C997 C 0.25414 0.4689 0.5524 0.0
C998 C 0.25234 0.46813 0.52409 0.0
H999 H 0.27706 0.47892 0.3862 0.0
H1000 H 0.28373 0.46987 0.43159 0.0
H1001 H 0.2124 0.44953 0.47649 0.0
H1002 H 0.21984 0.48736 0.60447 0.0
H1003 H 0.21505 0.48126 0.55825 0.0
C1004 C 0.00593 0.27728 0.08603 0.0
C1005 C 0.99009 0.29786 0.08614 0.0
C1006 C 0.00711 0.26239 0.06436 0.0
C1007 C 0.9682 0.24408 0.00953 0.0
H1008 H 0.0319 0.22085 0.97976 0.0
C1009 C 0.97005 0.16904 0.93369 0.0
C1010 C 0.98452 0.17361 0.91148 0.0
C1011 C 0.97226 0.18397 0.9551 0.0
C1012 C 0.014 0.22729 0.98787 0.0
H1013 H 0.96349 0.31915 0.0634 0.0
H1014 H 0.96535 0.29307 0.02595 0.0
H1015 H 0.03319 0.24776 0.01712 0.0
H1016 H 0.01321 0.19712 0.89458 0.0
H1017 H 0.01727 0.22319 0.93232 0.0
H1018 H 0.94896 0.22363 0.98055 0.0
C1019 C 0.9768 0.28844 0.04258 0.0
C1020 C 0.01473 0.24249 0.00931 0.0
C1021 C 0.97584 0.30342 0.06403 0.0
C1022 C 0.00174 0.19318 0.91138 0.0
C1023 C 0.00417 0.208 0.93299 0.0
C1024 C 0.96747 0.22868 0.98841 0.0
C1025 C 0.99222 0.26765 0.04259 0.0
C1026 C 0.99181 0.25113 0.02023 0.0
C1027 C 0.98918 0.2037 0.95493 0.0
C1028 C 0.99033 0.22015 0.97732 0.0
H1029 H 0.01719 0.27256 0.10274 0.0
H1030 H 0.01907 0.24639 0.06489 0.0
H1031 H 0.95024 0.25031 0.01769 0.0
H1032 H 0.95665 0.1541 0.93447 0.0
H1033 H 0.96068 0.18009 0.97184 0.0
C1034 C 0.24485 0.99046 0.40763 0.0
C1035 C 0.26845 0.98111 0.39913 0.0
C1036 C 0.24135 0.99639 0.4335 0.0
C1037 C 0.27777 0.00649 0.4944 0.0
H1038 H 0.21316 0.98892 0.52629 0.0
C1039 C 0.26428 0.98802 0.60277 0.0
C1040 C 0.24152 0.99639 0.61425 0.0
C1041 C 0.26826 0.99094 0.57644 0.0
C1042 C 0.2312 0.99425 0.51759 0.0
H1043 H 0.30686 0.97069 0.41107 0.0
H1044 H 0.30054 0.98019 0.45584 0.0
H1045 H 0.21806 0.98483 0.48011 0.0
H1046 H 0.20586 0.01573 0.60735 0.0
H1047 H 0.21278 0.02055 0.5615 0.0
H1048 H 0.29118 0.01479 0.53225 0.0
C1049 C 0.2849 0.98367 0.44266 0.0
C1050 C 0.23399 0.99199 0.49109 0.0
C1051 C 0.28845 0.97798 0.41691 0.0
C1052 C 0.22353 0.0089 0.59912 0.0
C1053 C 0.2274 0.01159 0.57282 0.0
C1054 C 0.27506 0.00845 0.52096 0.0
C1055 C 0.26132 0.9929 0.45137 0.0
C1056 C 0.25746 0.99769 0.47918 0.0
C1057 C 0.24946 0.0021 0.56112 0.0
C1058 C 0.25186 0.00205 0.53283 0.0
H1059 H 0.22913 0.9932 0.39435 0.0
H1060 H 0.223 0.00372 0.43947 0.0
H1061 H 0.29594 0.01157 0.48585 0.0
H1062 H 0.27853 0.97837 0.6139 0.0
H1063 H 0.28542 0.98338 0.56787 0.0
C1064 C 0.53123 0.73626 0.89916 0.0
C1065 C 0.50569 0.73402 0.89058 0.0
C1066 C 0.53696 0.73432 0.92539 0.0
C1067 C 0.51091 0.70497 0.98227 0.0
H1068 H 0.54752 0.75171 0.02375 0.0
C1069 C 0.48998 0.71901 0.08783 0.0
C1070 C 0.51001 0.72371 0.10512 0.0
C1071 C 0.49498 0.71657 0.06175 0.0
C1072 C 0.53779 0.7382 0.01231 0.0
H1073 H 0.46604 0.7301 0.90291 0.0
H1074 H 0.47602 0.72681 0.94812 0.0
H1075 H 0.54617 0.75657 0.977 0.0
H1076 H 0.55113 0.72886 0.10887 0.0
H1077 H 0.55991 0.72494 0.06275 0.0
H1078 H 0.50154 0.68711 0.01735 0.0
C1079 C 0.49166 0.72946 0.9347 0.0
C1080 C 0.53698 0.74104 0.98563 0.0
C1081 C 0.48597 0.73147 0.90878 0.0
C1082 C 0.53538 0.72504 0.09593 0.0
C1083 C 0.54036 0.723 0.0696 0.0
C1084 C 0.51175 0.70212 0.00877 0.0
C1085 C 0.51722 0.73002 0.94321 0.0
C1086 C 0.52261 0.72496 0.97055 0.0
C1087 C 0.52011 0.71907 0.05226 0.0
C1088 C 0.52429 0.71922 0.02416 0.0
H1089 H 0.54683 0.73823 0.88558 0.0
H1090 H 0.55682 0.73502 0.93158 0.0
H1091 H 0.50011 0.69205 0.97099 0.0
H1092 H 0.47025 0.7179 0.09439 0.0
H1093 H 0.47893 0.71382 0.04886 0.0
C1094 C 0.81483 0.45978 0.57224 0.0
C1095 C 0.80263 0.45253 0.595 0.0
C1096 C 0.80099 0.46157 0.54938 0.0
C1097 C 0.73515 0.46566 0.52271 0.0
H1098 H 0.76654 0.43754 0.46229 0.0
C1099 C 0.67706 0.44207 0.43205 0.0
C1100 C 0.68862 0.44543 0.40797 0.0
C1101 C 0.69113 0.44546 0.45454 0.0
C1102 C 0.75763 0.44584 0.47885 0.0
H1103 H 0.7661 0.44217 0.61173 0.0
H1104 H 0.74196 0.44515 0.57178 0.0
H1105 H 0.79061 0.43912 0.50226 0.0
H1106 H 0.72393 0.45553 0.38867 0.0
H1107 H 0.74847 0.46171 0.42803 0.0
H1108 H 0.70205 0.47215 0.49933 0.0
C1109 C 0.76222 0.44963 0.57166 0.0
C1110 C 0.77144 0.44672 0.50179 0.0
C1111 C 0.77609 0.44781 0.59454 0.0
C1112 C 0.71448 0.45269 0.40691 0.0
C1113 C 0.72858 0.45611 0.42947 0.0
C1114 C 0.72135 0.46483 0.49974 0.0
C1115 C 0.7746 0.45618 0.54873 0.0
C1116 C 0.76028 0.45644 0.52406 0.0
C1117 C 0.71712 0.45234 0.45356 0.0
C1118 C 0.73233 0.45467 0.47758 0.0
H1119 H 0.83523 0.4637 0.57192 0.0
H1120 H 0.81101 0.46703 0.53214 0.0
H1121 H 0.72615 0.47359 0.53942 0.0
H1122 H 0.65719 0.43643 0.43358 0.0
H1123 H 0.68178 0.44205 0.47272 0.0
C1124 C 0.97325 0.74549 0.09719 0.0
C1125 C 0.99831 0.74395 0.1072 0.0
C1126 C 0.96914 0.74388 0.07066 0.0
C1127 C 0.00039 0.71667 0.01483 0.0
H1128 H 0.95691 0.75745 0.97285 0.0
C1129 C 0.01511 0.72692 0.90744 0.0
C1130 C 0.99385 0.72877 0.891 0.0
C1131 C 0.01172 0.72576 0.93386 0.0
C1132 C 0.9687 0.74561 0.98444 0.0
H1133 H 0.03874 0.74187 0.09726 0.0
H1134 H 0.03161 0.73946 0.05135 0.0
H1135 H 0.95848 0.76378 0.01938 0.0
H1136 H 0.95225 0.73014 0.88926 0.0
H1137 H 0.94628 0.72833 0.93596 0.0
H1138 H 0.01117 0.69887 0.98014 0.0
C1139 C 0.01509 0.74118 0.06388 0.0
C1140 C 0.96967 0.74931 0.01101 0.0
C1141 C 0.01918 0.74274 0.09017 0.0
C1142 C 0.96897 0.72853 0.90152 0.0
C1143 C 0.96556 0.72773 0.92817 0.0
C1144 C 0.99939 0.71296 0.98846 0.0
C1145 C 0.99004 0.74072 0.05389 0.0
C1146 C 0.98622 0.73537 0.0263 0.0
C1147 C 0.98698 0.72665 0.94459 0.0
C1148 C 0.9842 0.72787 0.97286 0.0
H1149 H 0.9568 0.74635 0.10986 0.0
H1150 H 0.94963 0.74374 0.06342 0.0
H1151 H 0.01279 0.70521 0.02624 0.0
H1152 H 0.03451 0.72704 0.89989 0.0
H1153 H 0.02863 0.72521 0.94597 0.0
C1154 C 0.73703 0.04609 0.5971 0.0
C1155 C 0.71438 0.03343 0.60293 0.0
C1156 C 0.74941 0.04262 0.57362 0.0
C1157 C 0.73646 0.02542 0.50735 0.0
H1158 H 0.81067 0.02126 0.50229 0.0
C1159 C 0.78892 0.01933 0.40935 0.0
C1160 C 0.81152 0.03306 0.40704 0.0
C1161 C 0.77715 0.0163 0.4333 0.0
C1162 C 0.78993 0.02262 0.50332 0.0
H1163 H 0.68725 0.00679 0.5889 0.0
H1164 H 0.7088 0.00095 0.54773 0.0
H1165 H 0.7903 0.02149 0.54434 0.0
H1166 H 0.83937 0.05448 0.42805 0.0
H1167 H 0.8187 0.04972 0.46934 0.0
H1168 H 0.73607 0.02742 0.4664 0.0
C1169 C 0.71692 0.01356 0.56137 0.0
C1170 C 0.77828 0.02266 0.52743 0.0
C1171 C 0.70469 0.01681 0.585 0.0
C1172 C 0.82207 0.04364 0.42912 0.0
C1173 C 0.8103 0.04075 0.45292 0.0
C1174 C 0.74813 0.02559 0.48319 0.0
C1175 C 0.73927 0.02661 0.55535 0.0
C1176 C 0.75145 0.02443 0.52973 0.0
C1177 C 0.78771 0.02702 0.4554 0.0
C1178 C 0.77505 0.02462 0.48089 0.0
H1179 H 0.74502 0.05899 0.6105 0.0
H1180 H 0.76649 0.05309 0.56944 0.0
H1181 H 0.71574 0.02702 0.50853 0.0
H1182 H 0.78035 0.01088 0.39271 0.0
H1183 H 0.7599 0.00543 0.43452 0.0
loop_
_geom_bond_atom_site_label_1
_geom_bond_atom_site_label_2
_geom_bond_distance
_geom_bond_site_symmetry_2
_ccdc_geom_bond_type
Mg0 O1 2.028 . S
Mg0 O7 1.986 . S
Mg0 O9 2.114 . S
Mg0 O10 2.251 . S
Mg0 O13 2.010 . S
O1 Mg0 2.028 . S
O1 C4 1.250 . S
O2 Mg3 2.028 . S
O2 C4 1.248 . S
Mg3 O2 2.028 . S
Mg3 O8 2.032 . S
Mg3 O10 2.079 . S
C4 O1 1.250 . S
C4 O2 1.248 . S
C5 O6 1.264 . S
C5 O13 1.249 . S
O6 C5 1.264 . S
O7 Mg0 1.986 . S
O7 C11 1.246 . S
O8 Mg3 2.032 . S
O8 C11 1.259 . S
O9 Mg0 2.114 . S
O9 C12 1.252 . S
O10 Mg0 2.251 . S
O10 Mg3 2.079 . S
O10 C12 1.273 . S
C11 O7 1.246 . S
C11 O8 1.259 . S
C12 O9 1.252 . S
C12 O10 1.273 . S
O13 Mg0 2.010 . S
O13 C5 1.249 . S
Mg14 O15 2.028 . S
Mg14 O21 1.986 . S
Mg14 O23 2.114 . S
Mg14 O24 2.251 . S
Mg14 O27 2.010 . S
O15 Mg14 2.028 . S
O15 C18 1.250 . S
O16 Mg17 2.028 . S
O16 C18 1.248 . S
Mg17 O16 2.028 . S
Mg17 O22 2.032 . S
Mg17 O24 2.079 . S
C18 O15 1.250 . S
C18 O16 1.248 . S
C19 O20 1.264 . S
C19 O27 1.249 . S
O20 C19 1.264 . S
O21 Mg14 1.986 . S
O21 C25 1.246 . S
O22 Mg17 2.032 . S
O22 C25 1.259 . S
O23 Mg14 2.114 . S
O23 C26 1.252 . S
O24 Mg14 2.251 . S
O24 Mg17 2.079 . S
O24 C26 1.273 . S
C25 O21 1.246 . S
C25 O22 1.259 . S
C26 O23 1.252 . S
C26 O24 1.273 . S
O27 Mg14 2.010 . S
O27 C19 1.249 . S
Mg28 O29 2.028 . S
Mg28 O35 1.986 1_655 S
Mg28 O37 2.114 . S
Mg28 O38 2.251 . S
Mg28 O41 2.010 . S
O29 Mg28 2.028 . S
O29 C32 1.250 . S
O30 Mg31 2.028 . S
O30 C32 1.248 . S
Mg31 O30 2.028 . S
Mg31 O36 2.032 1_655 S
Mg31 O38 2.079 . S
C32 O29 1.250 . S
C32 O30 1.248 . S
C33 O34 1.264 . S
C33 O41 1.249 . S
O34 C33 1.264 . S
O35 Mg28 1.986 1_455 S
O35 C39 1.246 . S
O36 Mg31 2.032 1_455 S
O36 C39 1.259 . S
O37 Mg28 2.114 . S
O37 C40 1.252 . S
O38 Mg28 2.251 . S
O38 Mg31 2.079 . S
O38 C40 1.273 . S
C39 O35 1.246 . S
C39 O36 1.259 . S
C40 O37 1.252 . S
C40 O38 1.273 . S
O41 Mg28 2.010 . S
O41 C33 1.249 . S
Mg42 O43 2.028 . S
Mg42 O49 1.986 . S
Mg42 O51 2.114 . S
Mg42 O52 2.251 . S
Mg42 O55 2.010 . S
O43 Mg42 2.028 . S
O43 C46 1.250 . S
O44 Mg45 2.028 . S
O44 C46 1.248 . S
Mg45 O44 2.028 . S
Mg45 O50 2.032 . S
Mg45 O52 2.079 . S
C46 O43 1.250 . S
C46 O44 1.248 . S
C47 O48 1.264 . S
C47 O55 1.249 . S
O48 C47 1.264 . S
O49 Mg42 1.986 . S
O49 C53 1.246 . S
O50 Mg45 2.032 . S
O50 C53 1.259 . S
O51 Mg42 2.114 . S
O51 C54 1.252 . S
O52 Mg42 2.251 . S
O52 Mg45 2.079 . S
O52 C54 1.273 . S
C53 O49 1.246 . S
C53 O50 1.259 . S
C54 O51 1.252 . S
C54 O52 1.273 . S
O55 Mg42 2.010 . S
O55 C47 1.249 . S
Mg56 O57 2.028 . S
Mg56 O63 1.986 . S
Mg56 O65 2.114 . S
Mg56 O66 2.251 . S
Mg56 O69 2.010 . S
O57 Mg56 2.028 . S
O57 C60 1.250 . S
O58 Mg59 2.028 . S
O58 C60 1.248 . S
Mg59 O58 2.028 . S
Mg59 O64 2.032 . S
Mg59 O66 2.079 . S
C60 O57 1.250 . S
C60 O58 1.248 . S
C61 O62 1.264 . S
C61 O69 1.249 . S
O62 C61 1.264 . S
O63 Mg56 1.986 . S
O63 C67 1.246 . S
O64 Mg59 2.032 . S
O64 C67 1.259 . S
O65 Mg56 2.114 . S
O65 C68 1.252 . S
O66 Mg56 2.251 . S
O66 Mg59 2.079 . S
O66 C68 1.273 . S
C67 O63 1.246 . S
C67 O64 1.259 . S
C68 O65 1.252 . S
C68 O66 1.273 . S
O69 Mg56 2.010 . S
O69 C61 1.249 . S
Mg70 O71 2.028 . S
Mg70 O77 1.986 . S
Mg70 O79 2.114 . S
Mg70 O80 2.251 . S
Mg70 O83 2.010 . S
O71 Mg70 2.028 . S
O71 C74 1.250 . S
O72 Mg73 2.028 . S
O72 C74 1.248 . S
Mg73 O72 2.028 . S
Mg73 O78 2.032 . S
Mg73 O80 2.079 . S
C74 O71 1.250 . S
C74 O72 1.248 . S
C75 O76 1.264 . S
C75 O83 1.249 . S
O76 C75 1.264 . S
O77 Mg70 1.986 . S
O77 C81 1.246 . S
O78 Mg73 2.032 . S
O78 C81 1.259 . S
O79 Mg70 2.114 . S
O79 C82 1.252 . S
O80 Mg70 2.251 . S
O80 Mg73 2.079 . S
O80 C82 1.273 . S
C81 O77 1.246 . S
C81 O78 1.259 . S
C82 O79 1.252 . S
C82 O80 1.273 . S
O83 Mg70 2.010 . S
O83 C75 1.249 . S
Mg84 O85 2.028 . S
Mg84 O91 1.986 1_655 S
Mg84 O93 2.114 . S
Mg84 O94 2.251 . S
Mg84 O97 2.010 . S
O85 Mg84 2.028 . S
O85 C88 1.250 . S
O86 Mg87 2.028 . S
O86 C88 1.248 . S
Mg87 O86 2.028 . S
Mg87 O92 2.032 1_655 S
Mg87 O94 2.079 . S
C88 O85 1.250 . S
C88 O86 1.248 . S
C89 O90 1.264 . S
C89 O97 1.249 . S
O90 C89 1.264 . S
O91 Mg84 1.986 1_455 S
O91 C95 1.246 . S
O92 Mg87 2.032 1_455 S
O92 C95 1.259 . S
O93 Mg84 2.114 . S
O93 C96 1.252 . S
O94 Mg84 2.251 . S
O94 Mg87 2.079 . S
O94 C96 1.273 . S
C95 O91 1.246 . S
C95 O92 1.259 . S
C96 O93 1.252 . S
C96 O94 1.273 . S
O97 Mg84 2.010 . S
O97 C89 1.249 . S
Mg98 O99 2.028 . S
Mg98 O105 1.986 . S
Mg98 O107 2.114 . S
Mg98 O108 2.251 . S
Mg98 O111 2.010 . S
O99 Mg98 2.028 . S
O99 C102 1.250 . S
O100 Mg101 2.028 . S
O100 C102 1.248 . S
Mg101 O100 2.028 . S
Mg101 O106 2.032 . S
Mg101 O108 2.079 . S
C102 O99 1.250 . S
C102 O100 1.248 . S
C103 O104 1.264 . S
C103 O111 1.249 . S
O104 C103 1.264 . S
O105 Mg98 1.986 . S
O105 C109 1.246 . S
O106 Mg101 2.032 . S
O106 C109 1.259 . S
O107 Mg98 2.114 . S
O107 C110 1.252 . S
O108 Mg98 2.251 . S
O108 Mg101 2.079 . S
O108 C110 1.273 . S
C109 O105 1.246 . S
C109 O106 1.259 . S
C110 O107 1.252 . S
C110 O108 1.273 . S
O111 Mg98 2.010 . S
O111 C103 1.249 . S
Mg112 O113 2.028 . S
Mg112 O119 1.986 . S
Mg112 O121 2.114 . S
Mg112 O122 2.251 . S
Mg112 O125 2.010 . S
O113 Mg112 2.028 . S
O113 C116 1.250 . S
O114 Mg115 2.028 . S
O114 C116 1.248 . S
Mg115 O114 2.028 . S
Mg115 O120 2.032 . S
Mg115 O122 2.079 . S
C116 O113 1.250 . S
C116 O114 1.248 . S
C117 O118 1.264 . S
C117 O125 1.249 . S
O118 C117 1.264 . S
O119 Mg112 1.986 . S
O119 C123 1.246 . S
O120 Mg115 2.032 . S
O120 C123 1.259 . S
O121 Mg112 2.114 . S
O121 C124 1.252 . S
O122 Mg112 2.251 . S
O122 Mg115 2.079 . S
O122 C124 1.273 . S
C123 O119 1.246 . S
C123 O120 1.259 . S
C124 O121 1.252 . S
C124 O122 1.273 . S
O125 Mg112 2.010 . S
O125 C117 1.249 . S
Mg126 O127 2.028 . S
Mg126 O133 1.986 . S
Mg126 O135 2.114 . S
Mg126 O136 2.251 . S
Mg126 O139 2.010 . S
O127 Mg126 2.028 . S
O127 C130 1.250 . S
O128 Mg129 2.028 . S
O128 C130 1.248 . S
Mg129 O128 2.028 . S
Mg129 O134 2.032 . S
Mg129 O136 2.079 . S
C130 O127 1.250 . S
C130 O128 1.248 . S
C131 O132 1.264 . S
C131 O139 1.249 . S
O132 C131 1.264 . S
O133 Mg126 1.986 . S
O133 C137 1.246 . S
O134 Mg129 2.032 . S
O134 C137 1.259 . S
O135 Mg126 2.114 . S
O135 C138 1.252 . S
O136 Mg126 2.251 . S
O136 Mg129 2.079 . S
O136 C138 1.273 . S
C137 O133 1.246 . S
C137 O134 1.259 . S
C138 O135 1.252 . S
C138 O136 1.273 . S
O139 Mg126 2.010 . S
O139 C131 1.249 . S
Mg140 O141 2.028 . S
Mg140 O147 1.986 . S
Mg140 O149 2.114 . S
Mg140 O150 2.251 . S
Mg140 O153 2.010 1_455 S
O141 Mg140 2.028 . S
O141 C144 1.250 . S
O142 Mg143 2.028 . S
O142 C144 1.248 . S
Mg143 O142 2.028 . S
Mg143 O148 2.032 . S
Mg143 O150 2.079 . S
C144 O141 1.250 . S
C144 O142 1.248 . S
C145 O146 1.264 . S
C145 O153 1.249 . S
O146 C145 1.264 . S
O147 Mg140 1.986 . S
O147 C151 1.246 . S
O148 Mg143 2.032 . S
O148 C151 1.259 . S
O149 Mg140 2.114 . S
O149 C152 1.252 . S
O150 Mg140 2.251 . S
O150 Mg143 2.079 . S
O150 C152 1.273 . S
C151 O147 1.246 . S
C151 O148 1.259 . S
C152 O149 1.252 . S
C152 O150 1.273 . S
O153 Mg140 2.010 1_655 S
O153 C145 1.249 . S
Mg154 O155 2.028 . S
Mg154 O161 1.986 . S
Mg154 O163 2.114 . S
Mg154 O164 2.251 . S
Mg154 O167 2.010 . S
O155 Mg154 2.028 . S
O155 C158 1.250 . S
O156 Mg157 2.028 . S
O156 C158 1.248 . S
Mg157 O156 2.028 . S
Mg157 O162 2.032 . S
Mg157 O164 2.079 . S
C158 O155 1.250 . S
C158 O156 1.248 . S
C159 O160 1.264 . S
C159 O167 1.249 . S
O160 C159 1.264 . S
O161 Mg154 1.986 . S
O161 C165 1.246 1_545 S
O162 Mg157 2.032 . S
O162 C165 1.259 1_545 S
O163 Mg154 2.114 . S
O163 C166 1.252 . S
O164 Mg154 2.251 . S
O164 Mg157 2.079 . S
O164 C166 1.273 . S
C165 O161 1.246 1_565 S
C165 O162 1.259 1_565 S
C166 O163 1.252 . S
C166 O164 1.273 . S
O167 Mg154 2.010 . S
O167 C159 1.249 . S
Mg168 O169 2.028 . S
Mg168 O175 1.986 . S
Mg168 O177 2.114 . S
Mg168 O178 2.251 . S
Mg168 O181 2.010 . S
O169 Mg168 2.028 . S
O169 C172 1.250 . S
O170 Mg171 2.028 . S
O170 C172 1.248 . S
Mg171 O170 2.028 . S
Mg171 O176 2.032 . S
Mg171 O178 2.079 . S
C172 O169 1.250 . S
C172 O170 1.248 . S
C173 O174 1.264 . S
C173 O181 1.249 . S
O174 C173 1.264 . S
O175 Mg168 1.986 . S
O175 C179 1.246 . S
O176 Mg171 2.032 . S
O176 C179 1.259 . S
O177 Mg168 2.114 . S
O177 C180 1.252 . S
O178 Mg168 2.251 . S
O178 Mg171 2.079 . S
O178 C180 1.273 . S
C179 O175 1.246 . S
C179 O176 1.259 . S
C180 O177 1.252 . S
C180 O178 1.273 . S
O181 Mg168 2.010 . S
O181 C173 1.249 . S
Mg182 O183 2.028 . S
Mg182 O189 1.986 . S
Mg182 O191 2.114 . S
Mg182 O192 2.251 . S
Mg182 O195 2.010 . S
O183 Mg182 2.028 . S
O183 C186 1.250 . S
O184 Mg185 2.028 . S
O184 C186 1.248 . S
Mg185 O184 2.028 . S
Mg185 O190 2.032 . S
Mg185 O192 2.079 . S
C186 O183 1.250 . S
C186 O184 1.248 . S
C187 O188 1.264 . S
C187 O195 1.249 . S
O188 C187 1.264 . S
O189 Mg182 1.986 . S
O189 C193 1.246 . S
O190 Mg185 2.032 . S
O190 C193 1.259 . S
O191 Mg182 2.114 . S
O191 C194 1.252 . S
O192 Mg182 2.251 . S
O192 Mg185 2.079 . S
O192 C194 1.273 . S
C193 O189 1.246 . S
C193 O190 1.259 . S
C194 O191 1.252 . S
C194 O192 1.273 . S
O195 Mg182 2.010 . S
O195 C187 1.249 . S
Mg196 O197 2.028 . S
Mg196 O203 1.986 . S
Mg196 O205 2.114 . S
Mg196 O206 2.251 . S
Mg196 O209 2.010 1_455 S
O197 Mg196 2.028 . S
O197 C200 1.250 . S
O198 Mg199 2.028 . S
O198 C200 1.248 . S
Mg199 O198 2.028 . S
Mg199 O204 2.032 . S
Mg199 O206 2.079 . S
C200 O197 1.250 . S
C200 O198 1.248 . S
C201 O202 1.264 . S
C201 O209 1.249 . S
O202 C201 1.264 . S
O203 Mg196 1.986 . S
O203 C207 1.246 . S
O204 Mg199 2.032 . S
O204 C207 1.259 . S
O205 Mg196 2.114 . S
O205 C208 1.252 . S
O206 Mg196 2.251 . S
O206 Mg199 2.079 . S
O206 C208 1.273 . S
C207 O203 1.246 . S
C207 O204 1.259 . S
C208 O205 1.252 . S
C208 O206 1.273 . S
O209 Mg196 2.010 1_655 S
O209 C201 1.249 . S
Mg210 O211 2.028 . S
Mg210 O217 1.986 . S
Mg210 O219 2.114 . S
Mg210 O220 2.251 . S
Mg210 O223 2.010 . S
O211 Mg210 2.028 . S
O211 C214 1.250 . S
O212 Mg213 2.028 . S
O212 C214 1.248 . S
Mg213 O212 2.028 . S
Mg213 O218 2.032 . S
Mg213 O220 2.079 . S
C214 O211 1.250 . S
C214 O212 1.248 . S
C215 O216 1.264 . S
C215 O223 1.249 . S
O216 C215 1.264 . S
O217 Mg210 1.986 . S
O217 C221 1.246 1_545 S
O218 Mg213 2.032 . S
O218 C221 1.259 1_545 S
O219 Mg210 2.114 . S
O219 C222 1.252 . S
O220 Mg210 2.251 . S
O220 Mg213 2.079 . S
O220 C222 1.273 . S
C221 O217 1.246 1_565 S
C221 O218 1.259 1_565 S
C222 O219 1.252 . S
C222 O220 1.273 . S
O223 Mg210 2.010 . S
O223 C215 1.249 . S
C224 C225 1.349 . S
C224 C226 1.327 . S
C224 H249 0.950 . S
C225 C224 1.349 . S
C225 C241 1.349 . S
C226 C224 1.327 . S
C226 C245 1.429 . S
C226 H250 0.950 . S
C227 C244 1.574 . S
C227 C246 1.368 . S
C227 H251 0.949 . S
H228 C232 0.949 . S
C229 C230 1.353 . S
C229 C231 1.344 . S
C229 H252 0.929 1_545 S
C230 C229 1.353 . S
C230 C242 1.349 . S
C231 C229 1.344 . S
C231 C247 1.429 . S
C231 H253 0.950 . S
C232 H228 0.949 . S
C232 C240 1.574 . S
C232 C248 1.368 . S
H233 C241 0.950 . S
H234 C239 0.950 . S
H235 C240 0.949 . S
H236 C242 0.950 . S
H237 C243 0.950 . S
H238 C244 0.949 . S
C239 H234 0.950 . S
C239 C241 1.327 . S
C239 C245 1.429 . S
C240 C232 1.574 . S
C240 H235 0.949 . S
C240 C246 1.368 . S
C241 C225 1.349 . S
C241 H233 0.950 . S
C241 C239 1.327 . S
C242 C230 1.349 . S
C242 H236 0.950 . S
C242 C243 1.327 . S
C243 H237 0.950 . S
C243 C242 1.327 . S
C243 C247 1.429 . S
C244 C227 1.574 . S
C244 H238 0.949 . S
C244 C248 1.368 . S
C245 C226 1.429 . S
C245 C239 1.429 . S
C245 C246 1.523 . S
C246 C227 1.368 . S
C246 C240 1.368 . S
C246 C245 1.523 . S
C247 C231 1.429 . S
C247 C243 1.429 . S
C247 C248 1.523 . S
C248 C232 1.368 . S
C248 C244 1.368 . S
C248 C247 1.523 . S
H249 C224 0.950 . S
H250 C226 0.950 . S
H251 C227 0.949 . S
H252 C229 0.929 1_565 S
H253 C231 0.950 . S
C254 C255 1.349 . S
C254 C256 1.327 . S
C254 H279 0.950 . S
C255 C254 1.349 . S
C255 C271 1.349 . S
C256 C254 1.327 . S
C256 C275 1.429 . S
C256 H280 0.950 . S
C257 C274 1.574 . S
C257 C276 1.368 . S
C257 H281 0.949 . S
H258 C262 0.949 . S
C259 C260 1.349 . S
C259 C261 1.327 . S
C259 H282 0.950 . S
C260 C259 1.349 . S
C260 C272 1.349 . S
C261 C259 1.327 . S
C261 C277 1.429 . S
C261 H283 0.950 . S
C262 H258 0.949 . S
C262 C270 1.574 . S
C262 C278 1.368 . S
H263 C271 0.950 . S
H264 C269 0.950 . S
H265 C270 0.949 . S
H266 C272 0.950 . S
H267 C273 0.950 . S
H268 C274 0.949 . S
C269 H264 0.950 . S
C269 C271 1.327 . S
C269 C275 1.429 . S
C270 C262 1.574 . S
C270 H265 0.949 . S
C270 C276 1.368 . S
C271 C255 1.349 . S
C271 H263 0.950 . S
C271 C269 1.327 . S
C272 C260 1.349 . S
C272 H266 0.950 . S
C272 C273 1.327 . S
C273 H267 0.950 . S
C273 C272 1.327 . S
C273 C277 1.429 . S
C274 C257 1.574 . S
C274 H268 0.949 . S
C274 C278 1.368 . S
C275 C256 1.429 . S
C275 C269 1.429 . S
C275 C276 1.523 . S
C276 C257 1.368 . S
C276 C270 1.368 . S
C276 C275 1.523 . S
C277 C261 1.429 . S
C277 C273 1.429 . S
C277 C278 1.523 . S
C278 C262 1.368 . S
C278 C274 1.368 . S
C278 C277 1.523 . S
H279 C254 0.950 . S
H280 C256 0.950 . S
H281 C257 0.949 . S
H282 C259 0.950 . S
H283 C261 0.950 . S
C284 C285 1.349 . S
C284 C286 1.327 . S
C284 H309 0.950 . S
C285 C284 1.349 . S
C285 C301 1.349 . S
C286 C284 1.327 . S
C286 C305 1.429 . S
C286 H310 0.950 . S
C287 C304 1.574 . S
C287 C306 1.368 . S
C287 H311 0.949 . S
H288 C292 0.949 . S
C289 C290 1.349 . S
C289 C291 1.327 . S
C289 H312 0.950 . S
C290 C289 1.349 . S
C290 C302 1.349 . S
C291 C289 1.327 . S
C291 C307 1.429 . S
C291 H313 0.950 . S
C292 H288 0.949 . S
C292 C300 1.574 . S
C292 C308 1.368 . S
H293 C301 0.950 . S
H294 C299 0.950 . S
H295 C300 0.949 . S
H296 C302 0.950 . S
H297 C303 0.950 . S
H298 C304 0.949 . S
C299 H294 0.950 . S
C299 C301 1.327 . S
C299 C305 1.429 . S
C300 C292 1.574 . S
C300 H295 0.949 . S
C300 C306 1.368 . S
C301 C285 1.349 . S
C301 H293 0.950 . S
C301 C299 1.327 . S
C302 C290 1.349 . S
C302 H296 0.950 . S
C302 C303 1.327 . S
C303 H297 0.950 . S
C303 C302 1.327 . S
C303 C307 1.429 . S
C304 C287 1.574 . S
C304 H298 0.949 . S
C304 C308 1.368 . S
C305 C286 1.429 . S
C305 C299 1.429 . S
C305 C306 1.523 . S
C306 C287 1.368 . S
C306 C300 1.368 . S
C306 C305 1.523 . S
C307 C291 1.429 . S
C307 C303 1.429 . S
C307 C308 1.523 . S
C308 C292 1.368 . S
C308 C304 1.368 . S
C308 C307 1.523 . S
H309 C284 0.950 . S
H310 C286 0.950 . S
H311 C287 0.949 . S
H312 C289 0.950 . S
H313 C291 0.950 . S
C314 C315 1.349 . S
C314 C316 1.327 . S
C314 H339 0.950 . S
C315 C314 1.349 . S
C315 C331 1.349 . S
C316 C314 1.327 . S
C316 C335 1.429 . S
C316 H340 0.950 . S
C317 C334 1.574 . S
C317 C336 1.368 . S
C317 H341 0.949 . S
H318 C322 0.949 . S
C319 C320 1.349 . S
C319 C321 1.327 . S
C319 H342 0.950 . S
C320 C319 1.349 . S
C320 C332 1.349 . S
C321 C319 1.327 . S
C321 C337 1.429 . S
C321 H343 0.950 . S
C322 H318 0.949 . S
C322 C330 1.574 . S
C322 C338 1.368 . S
H323 C331 0.950 . S
H324 C329 0.950 . S
H325 C330 0.949 . S
H326 C332 0.950 . S
H327 C333 0.950 . S
H328 C334 0.949 . S
C329 H324 0.950 . S
C329 C331 1.327 . S
C329 C335 1.429 . S
C330 C322 1.574 . S
C330 H325 0.949 . S
C330 C336 1.368 . S
C331 C315 1.349 . S
C331 H323 0.950 . S
C331 C329 1.327 . S
C332 C320 1.349 . S
C332 H326 0.950 . S
C332 C333 1.327 . S
C333 H327 0.950 . S
C333 C332 1.327 . S
C333 C337 1.429 . S
C334 C317 1.574 . S
C334 H328 0.949 . S
C334 C338 1.368 . S
C335 C316 1.429 . S
C335 C329 1.429 . S
C335 C336 1.523 . S
C336 C317 1.368 . S
C336 C330 1.368 . S
C336 C335 1.523 . S
C337 C321 1.429 . S
C337 C333 1.429 . S
C337 C338 1.523 . S
C338 C322 1.368 . S
C338 C334 1.368 . S
C338 C337 1.523 . S
H339 C314 0.950 . S
H340 C316 0.950 . S
H341 C317 0.949 . S
H342 C319 0.950 . S
H343 C321 0.950 . S
C344 C345 1.349 . S
C344 C346 1.327 . S
C344 H369 0.950 . S
C345 C344 1.349 . S
C345 C361 1.349 . S
C346 C344 1.327 . S
C346 C365 1.429 . S
C346 H370 0.950 . S
C347 C364 1.574 . S
C347 C366 1.368 . S
C347 H371 0.949 . S
H348 C352 0.949 . S
C349 C350 1.349 . S
C349 C351 1.327 . S
C349 H372 0.950 . S
C350 C349 1.349 . S
C350 C362 1.349 . S
C351 C349 1.327 . S
C351 C367 1.429 . S
C351 H373 0.950 . S
C352 H348 0.949 . S
C352 C360 1.574 . S
C352 C368 1.368 . S
H353 C361 0.950 . S
H354 C359 0.950 . S
H355 C360 0.949 . S
H356 C362 0.950 . S
H357 C363 0.950 . S
H358 C364 0.949 . S
C359 H354 0.950 . S
C359 C361 1.327 . S
C359 C365 1.429 . S
C360 C352 1.574 . S
C360 H355 0.949 . S
C360 C366 1.368 . S
C361 C345 1.349 . S
C361 H353 0.950 . S
C361 C359 1.327 . S
C362 C350 1.349 . S
C362 H356 0.950 . S
C362 C363 1.327 . S
C363 H357 0.950 . S
C363 C362 1.327 . S
C363 C367 1.429 . S
C364 C347 1.574 . S
C364 H358 0.949 . S
C364 C368 1.368 . S
C365 C346 1.429 . S
C365 C359 1.429 . S
C365 C366 1.523 . S
C366 C347 1.368 . S
C366 C360 1.368 . S
C366 C365 1.523 . S
C367 C351 1.429 . S
C367 C363 1.429 . S
C367 C368 1.523 . S
C368 C352 1.368 . S
C368 C364 1.368 . S
C368 C367 1.523 . S
H369 C344 0.950 . S
H370 C346 0.950 . S
H371 C347 0.949 . S
H372 C349 0.950 . S
H373 C351 0.950 . S
C374 C375 1.349 . S
C374 C376 1.327 . S
C374 H399 0.950 . S
C375 C374 1.349 . S
C375 C391 1.349 . S
C376 C374 1.327 . S
C376 C395 1.429 . S
C376 H400 0.950 . S
C377 C394 1.574 . S
C377 C396 1.368 . S
C377 H401 0.949 . S
H378 C382 0.949 . S
C379 C380 1.349 . S
C379 C381 1.327 . S
C379 H402 0.950 . S
C380 C379 1.349 . S
C380 C392 1.349 . S
C381 C379 1.327 . S
C381 C397 1.429 . S
C381 H403 0.950 . S
C382 H378 0.949 . S
C382 C390 1.574 . S
C382 C398 1.368 . S
H383 C391 0.950 . S
H384 C389 0.950 . S
H385 C390 0.949 . S
H386 C392 0.950 . S
H387 C393 0.950 . S
H388 C394 0.949 . S
C389 H384 0.950 . S
C389 C391 1.327 . S
C389 C395 1.429 . S
C390 C382 1.574 . S
C390 H385 0.949 . S
C390 C396 1.368 . S
C391 C375 1.349 . S
C391 H383 0.950 . S
C391 C389 1.327 . S
C392 C380 1.349 . S
C392 H386 0.950 . S
C392 C393 1.327 . S
C393 H387 0.950 . S
C393 C392 1.327 . S
C393 C397 1.429 . S
C394 C377 1.574 . S
C394 H388 0.949 . S
C394 C398 1.368 . S
C395 C376 1.429 . S
C395 C389 1.429 . S
C395 C396 1.523 . S
C396 C377 1.368 . S
C396 C390 1.368 . S
C396 C395 1.523 . S
C397 C381 1.429 . S
C397 C393 1.429 . S
C397 C398 1.523 . S
C398 C382 1.368 . S
C398 C394 1.368 . S
C398 C397 1.523 . S
H399 C374 0.950 . S
H400 C376 0.950 . S
H401 C377 0.949 . S
H402 C379 0.950 . S
H403 C381 0.950 . S
C404 C405 1.349 . S
C404 C406 1.327 . S
C404 H429 0.950 . S
C405 C404 1.349 . S
C405 C421 1.349 . S
C406 C404 1.327 . S
C406 C425 1.429 . S
C406 H430 0.950 . S
C407 C424 1.574 . S
C407 C426 1.368 . S
C407 H431 0.949 . S
H408 C412 0.949 . S
C409 C410 1.349 . S
C409 C411 1.327 . S
C409 H432 0.950 . S
C410 C409 1.349 . S
C410 C422 1.349 . S
C411 C409 1.327 . S
C411 C427 1.429 . S
C411 H433 0.950 . S
C412 H408 0.949 . S
C412 C420 1.574 . S
C412 C428 1.368 . S
H413 C421 0.950 . S
H414 C419 0.950 . S
H415 C420 0.949 . S
H416 C422 0.950 . S
H417 C423 0.950 . S
H418 C424 0.949 . S
C419 H414 0.950 . S
C419 C421 1.327 . S
C419 C425 1.429 . S
C420 C412 1.574 . S
C420 H415 0.949 . S
C420 C426 1.368 . S
C421 C405 1.349 . S
C421 H413 0.950 . S
C421 C419 1.327 . S
C422 C410 1.349 . S
C422 H416 0.950 . S
C422 C423 1.327 . S
C423 H417 0.950 . S
C423 C422 1.327 . S
C423 C427 1.429 . S
C424 C407 1.574 . S
C424 H418 0.949 . S
C424 C428 1.368 . S
C425 C406 1.429 . S
C425 C419 1.429 . S
C425 C426 1.523 . S
C426 C407 1.368 . S
C426 C420 1.368 . S
C426 C425 1.523 . S
C427 C411 1.429 . S
C427 C423 1.429 . S
C427 C428 1.523 . S
C428 C412 1.368 . S
C428 C424 1.368 . S
C428 C427 1.523 . S
H429 C404 0.950 . S
H430 C406 0.950 . S
H431 C407 0.949 . S
H432 C409 0.950 . S
H433 C411 0.950 . S
C434 C435 1.349 . S
C434 C436 1.327 . S
C434 H459 0.950 . S
C435 C434 1.349 . S
C435 C451 1.349 . S
C436 C434 1.327 . S
C436 C455 1.429 . S
C436 H460 0.950 . S
C437 C454 1.574 . S
C437 C456 1.368 . S
C437 H461 0.949 . S
H438 C442 0.949 . S
C439 C440 1.349 . S
C439 C441 1.327 . S
C439 H462 0.950 . S
C440 C439 1.349 . S
C440 C452 1.349 . S
C441 C439 1.327 . S
C441 C457 1.429 . S
C441 H463 0.950 . S
C442 H438 0.949 . S
C442 C450 1.574 . S
C442 C458 1.368 . S
H443 C451 0.950 . S
H444 C449 0.950 . S
H445 C450 0.949 . S
H446 C452 0.950 . S
H447 C453 0.950 . S
H448 C454 0.949 . S
C449 H444 0.950 . S
C449 C451 1.327 . S
C449 C455 1.429 . S
C450 C442 1.574 . S
C450 H445 0.949 . S
C450 C456 1.368 . S
C451 C435 1.349 . S
C451 H443 0.950 . S
C451 C449 1.327 . S
C452 C440 1.349 . S
C452 H446 0.950 . S
C452 C453 1.327 . S
C453 H447 0.950 . S
C453 C452 1.327 . S
C453 C457 1.429 . S
C454 C437 1.574 . S
C454 H448 0.949 . S
C454 C458 1.368 . S
C455 C436 1.429 . S
C455 C449 1.429 . S
C455 C456 1.523 . S
C456 C437 1.368 . S
C456 C450 1.368 . S
C456 C455 1.523 . S
C457 C441 1.429 . S
C457 C453 1.429 . S
C457 C458 1.523 . S
C458 C442 1.368 . S
C458 C454 1.368 . S
C458 C457 1.523 . S
H459 C434 0.950 . S
H460 C436 0.950 . S
H461 C437 0.949 . S
H462 C439 0.950 . S
H463 C441 0.950 . S
C464 C465 1.349 . S
C464 C466 1.327 . S
C464 H489 0.950 . S
C465 C464 1.349 . S
C465 C481 1.349 . S
C466 C464 1.327 . S
C466 C485 1.429 . S
C466 H490 0.950 . S
C467 C484 1.574 . S
C467 C486 1.368 . S
C467 H491 0.949 . S
H468 C472 0.949 . S
C469 C470 1.349 . S
C469 C471 1.327 . S
C469 H492 0.950 . S
C470 C469 1.349 . S
C470 C482 1.349 . S
C471 C469 1.327 . S
C471 C487 1.429 . S
C471 H493 0.950 . S
C472 H468 0.949 . S
C472 C480 1.574 . S
C472 C488 1.368 . S
H473 C481 0.950 . S
H474 C479 0.950 . S
H475 C480 0.949 . S
H476 C482 0.950 . S
H477 C483 0.950 . S
H478 C484 0.949 . S
C479 H474 0.950 . S
C479 C481 1.327 . S
C479 C485 1.429 . S
C480 C472 1.574 . S
C480 H475 0.949 . S
C480 C486 1.368 . S
C481 C465 1.349 . S
C481 H473 0.950 . S
C481 C479 1.327 . S
C482 C470 1.349 . S
C482 H476 0.950 . S
C482 C483 1.327 . S
C483 H477 0.950 . S
C483 C482 1.327 . S
C483 C487 1.429 . S
C484 C467 1.574 . S
C484 H478 0.949 . S
C484 C488 1.368 . S
C485 C466 1.429 . S
C485 C479 1.429 . S
C485 C486 1.523 . S
C486 C467 1.368 . S
C486 C480 1.368 . S
C486 C485 1.523 . S
C487 C471 1.429 . S
C487 C483 1.429 . S
C487 C488 1.523 . S
C488 C472 1.368 . S
C488 C484 1.368 . S
C488 C487 1.523 . S
H489 C464 0.950 . S
H490 C466 0.950 . S
H491 C467 0.949 . S
H492 C469 0.950 . S
H493 C471 0.950 . S
C494 C495 1.349 . S
C494 C496 1.327 . S
C494 H519 0.950 . S
C495 C494 1.349 . S
C495 C511 1.349 . S
C496 C494 1.327 . S
C496 C515 1.429 . S
C496 H520 0.950 . S
C497 C514 1.574 . S
C497 C516 1.368 . S
C497 H521 0.949 . S
H498 C502 0.949 . S
C499 C500 1.349 . S
C499 C501 1.327 . S
C499 H522 0.950 . S
C500 C499 1.349 . S
C500 C512 1.349 . S
C501 C499 1.327 . S
C501 C517 1.429 . S
C501 H523 0.950 . S
C502 H498 0.949 . S
C502 C510 1.574 . S
C502 C518 1.368 . S
H503 C511 0.950 . S
H504 C509 0.950 . S
H505 C510 0.949 . S
H506 C512 0.950 . S
H507 C513 0.950 . S
H508 C514 0.949 . S
C509 H504 0.950 . S
C509 C511 1.327 . S
C509 C515 1.429 . S
C510 C502 1.574 . S
C510 H505 0.949 . S
C510 C516 1.368 . S
C511 C495 1.349 . S
C511 H503 0.950 . S
C511 C509 1.327 . S
C512 C500 1.349 . S
C512 H506 0.950 . S
C512 C513 1.327 . S
C513 H507 0.950 . S
C513 C512 1.327 . S
C513 C517 1.429 . S
C514 C497 1.574 . S
C514 H508 0.949 . S
C514 C518 1.368 . S
C515 C496 1.429 . S
C515 C509 1.429 . S
C515 C516 1.523 . S
C516 C497 1.368 . S
C516 C510 1.368 . S
C516 C515 1.523 . S
C517 C501 1.429 . S
C517 C513 1.429 . S
C517 C518 1.523 . S
C518 C502 1.368 . S
C518 C514 1.368 . S
C518 C517 1.523 . S
H519 C494 0.950 . S
H520 C496 0.950 . S
H521 C497 0.949 . S
H522 C499 0.950 . S
H523 C501 0.950 . S
C524 C525 1.349 . S
C524 C526 1.327 . S
C524 H549 0.950 . S
C525 C524 1.349 . S
C525 C541 1.349 . S
C526 C524 1.327 . S
C526 C545 1.429 . S
C526 H550 0.950 . S
C527 C544 1.574 . S
C527 C546 1.368 . S
C527 H551 0.949 . S
H528 C532 0.949 . S
C529 C530 1.349 . S
C529 C531 1.327 . S
C529 H552 0.950 . S
C530 C529 1.349 . S
C530 C542 1.349 . S
C531 C529 1.327 . S
C531 C547 1.429 . S
C531 H553 0.950 . S
C532 H528 0.949 . S
C532 C540 1.574 . S
C532 C548 1.368 . S
H533 C541 0.950 . S
H534 C539 0.950 . S
H535 C540 0.949 . S
H536 C542 0.950 . S
H537 C543 0.950 . S
H538 C544 0.949 . S
C539 H534 0.950 . S
C539 C541 1.327 . S
C539 C545 1.429 . S
C540 C532 1.574 . S
C540 H535 0.949 . S
C540 C546 1.368 . S
C541 C525 1.349 . S
C541 H533 0.950 . S
C541 C539 1.327 . S
C542 C530 1.349 . S
C542 H536 0.950 . S
C542 C543 1.327 . S
C543 H537 0.950 . S
C543 C542 1.327 . S
C543 C547 1.429 . S
C544 C527 1.574 . S
C544 H538 0.949 . S
C544 C548 1.368 . S
C545 C526 1.429 . S
C545 C539 1.429 . S
C545 C546 1.523 . S
C546 C527 1.368 . S
C546 C540 1.368 . S
C546 C545 1.523 . S
C547 C531 1.429 . S
C547 C543 1.429 . S
C547 C548 1.523 . S
C548 C532 1.368 . S
C548 C544 1.368 . S
C548 C547 1.523 . S
H549 C524 0.950 . S
H550 C526 0.950 . S
H551 C527 0.949 . S
H552 C529 0.950 . S
H553 C531 0.950 . S
C554 C555 1.349 . S
C554 C556 1.327 . S
C554 H579 0.950 . S
C555 C554 1.349 . S
C555 C571 1.349 . S
C556 C554 1.327 . S
C556 C575 1.429 . S
C556 H580 0.950 . S
C557 C574 1.574 . S
C557 C576 1.368 . S
C557 H581 0.949 . S
H558 C562 0.949 . S
C559 C560 1.349 . S
C559 C561 1.327 . S
C559 H582 0.950 . S
C560 C559 1.349 . S
C560 C572 1.349 . S
C561 C559 1.327 . S
C561 C577 1.429 . S
C561 H583 0.950 . S
C562 H558 0.949 . S
C562 C570 1.574 . S
C562 C578 1.368 . S
H563 C571 0.950 . S
H564 C569 0.950 . S
H565 C570 0.949 . S
H566 C572 0.950 . S
H567 C573 0.950 . S
H568 C574 0.949 . S
C569 H564 0.950 . S
C569 C571 1.327 . S
C569 C575 1.429 . S
C570 C562 1.574 . S
C570 H565 0.949 . S
C570 C576 1.368 . S
C571 C555 1.349 . S
C571 H563 0.950 . S
C571 C569 1.327 . S
C572 C560 1.349 . S
C572 H566 0.950 . S
C572 C573 1.327 . S
C573 H567 0.950 . S
C573 C572 1.327 . S
C573 C577 1.429 . S
C574 C557 1.574 . S
C574 H568 0.949 . S
C574 C578 1.368 . S
C575 C556 1.429 . S
C575 C569 1.429 . S
C575 C576 1.523 . S
C576 C557 1.368 . S
C576 C570 1.368 . S
C576 C575 1.523 . S
C577 C561 1.429 . S
C577 C573 1.429 . S
C577 C578 1.523 . S
C578 C562 1.368 . S
C578 C574 1.368 . S
C578 C577 1.523 . S
H579 C554 0.950 . S
H580 C556 0.950 . S
H581 C557 0.949 . S
H582 C559 0.950 . S
H583 C561 0.950 . S
C584 C585 1.349 . S
C584 C586 1.327 . S
C584 H609 0.950 . S
C585 C584 1.349 . S
C585 C601 1.349 . S
C586 C584 1.327 . S
C586 C605 1.429 . S
C586 H610 0.950 . S
C587 C604 1.574 . S
C587 C606 1.368 . S
C587 H611 0.949 . S
H588 C592 0.949 . S
C589 C590 1.349 . S
C589 C591 1.327 . S
C589 H612 0.950 . S
C590 C589 1.349 . S
C590 C602 1.349 . S
C591 C589 1.327 . S
C591 C607 1.429 . S
C591 H613 0.950 . S
C592 H588 0.949 . S
C592 C600 1.574 . S
C592 C608 1.368 . S
H593 C601 0.950 . S
H594 C599 0.950 . S
H595 C600 0.949 . S
H596 C602 0.950 . S
H597 C603 0.950 . S
H598 C604 0.949 . S
C599 H594 0.950 . S
C599 C601 1.327 . S
C599 C605 1.429 . S
C600 C592 1.574 . S
C600 H595 0.949 . S
C600 C606 1.368 . S
C601 C585 1.349 . S
C601 H593 0.950 . S
C601 C599 1.327 . S
C602 C590 1.349 . S
C602 H596 0.950 . S
C602 C603 1.327 . S
C603 H597 0.950 . S
C603 C602 1.327 . S
C603 C607 1.429 . S
C604 C587 1.574 . S
C604 H598 0.949 . S
C604 C608 1.368 . S
C605 C586 1.429 . S
C605 C599 1.429 . S
C605 C606 1.523 . S
C606 C587 1.368 . S
C606 C600 1.368 . S
C606 C605 1.523 . S
C607 C591 1.429 . S
C607 C603 1.429 . S
C607 C608 1.523 . S
C608 C592 1.368 . S
C608 C604 1.368 . S
C608 C607 1.523 . S
H609 C584 0.950 . S
H610 C586 0.950 . S
H611 C587 0.949 . S
H612 C589 0.950 . S
H613 C591 0.950 . S
C614 C615 1.349 . S
C614 C616 1.327 . S
C614 H639 0.950 . S
C615 C614 1.349 . S
C615 C631 1.349 . S
C616 C614 1.327 . S
C616 C635 1.429 . S
C616 H640 0.950 . S
C617 C634 1.574 . S
C617 C636 1.368 . S
C617 H641 0.949 . S
H618 C622 0.949 . S
C619 C620 1.349 . S
C619 C621 1.327 . S
C619 H642 0.950 . S
C620 C619 1.349 . S
C620 C632 1.349 . S
C621 C619 1.327 . S
C621 C637 1.429 . S
C621 H643 0.950 . S
C622 H618 0.949 . S
C622 C630 1.574 . S
C622 C638 1.368 . S
H623 C631 0.950 . S
H624 C629 0.950 . S
H625 C630 0.949 . S
H626 C632 0.950 . S
H627 C633 0.950 . S
H628 C634 0.949 . S
C629 H624 0.950 . S
C629 C631 1.327 . S
C629 C635 1.429 . S
C630 C622 1.574 . S
C630 H625 0.949 . S
C630 C636 1.368 . S
C631 C615 1.349 . S
C631 H623 0.950 . S
C631 C629 1.327 . S
C632 C620 1.349 . S
C632 H626 0.950 . S
C632 C633 1.327 . S
C633 H627 0.950 . S
C633 C632 1.327 . S
C633 C637 1.429 . S
C634 C617 1.574 . S
C634 H628 0.949 . S
C634 C638 1.368 . S
C635 C616 1.429 . S
C635 C629 1.429 . S
C635 C636 1.523 . S
C636 C617 1.368 . S
C636 C630 1.368 . S
C636 C635 1.523 . S
C637 C621 1.429 . S
C637 C633 1.429 . S
C637 C638 1.523 . S
C638 C622 1.368 . S
C638 C634 1.368 . S
C638 C637 1.523 . S
H639 C614 0.950 . S
H640 C616 0.950 . S
H641 C617 0.949 . S
H642 C619 0.950 . S
H643 C621 0.950 . S
C644 C645 1.349 . S
C644 C646 1.327 . S
C644 H669 0.950 . S
C645 C644 1.349 . S
C645 C661 1.349 . S
C646 C644 1.327 . S
C646 C665 1.429 . S
C646 H670 0.950 . S
C647 C664 1.574 . S
C647 C666 1.368 . S
C647 H671 0.949 . S
H648 C652 0.949 . S
C649 C650 1.349 . S
C649 C651 1.327 . S
C649 H672 0.950 . S
C650 C649 1.349 . S
C650 C662 1.349 . S
C651 C649 1.327 . S
C651 C667 1.429 . S
C651 H673 0.950 . S
C652 H648 0.949 . S
C652 C660 1.574 . S
C652 C668 1.368 . S
H653 C661 0.950 . S
H654 C659 0.950 . S
H655 C660 0.949 . S
H656 C662 0.950 . S
H657 C663 0.950 . S
H658 C664 0.949 . S
C659 H654 0.950 . S
C659 C661 1.327 . S
C659 C665 1.429 . S
C660 C652 1.574 . S
C660 H655 0.949 . S
C660 C666 1.368 . S
C661 C645 1.349 . S
C661 H653 0.950 . S
C661 C659 1.327 . S
C662 C650 1.349 . S
C662 H656 0.950 . S
C662 C663 1.327 . S
C663 H657 0.950 . S
C663 C662 1.327 . S
C663 C667 1.429 . S
C664 C647 1.574 . S
C664 H658 0.949 . S
C664 C668 1.368 . S
C665 C646 1.429 . S
C665 C659 1.429 . S
C665 C666 1.523 . S
C666 C647 1.368 . S
C666 C660 1.368 . S
C666 C665 1.523 . S
C667 C651 1.429 . S
C667 C663 1.429 . S
C667 C668 1.523 . S
C668 C652 1.368 . S
C668 C664 1.368 . S
C668 C667 1.523 . S
H669 C644 0.950 . S
H670 C646 0.950 . S
H671 C647 0.949 . S
H672 C649 0.950 . S
H673 C651 0.950 . S
C674 C675 1.349 . S
C674 C676 1.327 . S
C674 H699 0.950 . S
C675 C674 1.349 . S
C675 C691 1.349 . S
C676 C674 1.327 . S
C676 C695 1.429 . S
C676 H700 0.950 . S
C677 C694 1.574 . S
C677 C696 1.368 . S
C677 H701 0.949 . S
H678 C682 0.949 . S
C679 C680 1.349 . S
C679 C681 1.327 . S
C679 H702 0.950 . S
C680 C679 1.349 . S
C680 C692 1.349 . S
C681 C679 1.327 . S
C681 C697 1.429 . S
C681 H703 0.950 . S
C682 H678 0.949 . S
C682 C690 1.574 . S
C682 C698 1.368 . S
H683 C691 0.950 . S
H684 C689 0.950 . S
H685 C690 0.949 . S
H686 C692 0.950 . S
H687 C693 0.950 . S
H688 C694 0.949 . S
C689 H684 0.950 . S
C689 C691 1.327 . S
C689 C695 1.429 . S
C690 C682 1.574 . S
C690 H685 0.949 . S
C690 C696 1.368 . S
C691 C675 1.349 . S
C691 H683 0.950 . S
C691 C689 1.327 . S
C692 C680 1.349 . S
C692 H686 0.950 . S
C692 C693 1.327 . S
C693 H687 0.950 . S
C693 C692 1.327 . S
C693 C697 1.429 . S
C694 C677 1.574 . S
C694 H688 0.949 . S
C694 C698 1.368 . S
C695 C676 1.429 . S
C695 C689 1.429 . S
C695 C696 1.523 . S
C696 C677 1.368 . S
C696 C690 1.368 . S
C696 C695 1.523 . S
C697 C681 1.429 . S
C697 C693 1.429 . S
C697 C698 1.523 . S
C698 C682 1.368 . S
C698 C694 1.368 . S
C698 C697 1.523 . S
H699 C674 0.950 . S
H700 C676 0.950 . S
H701 C677 0.949 . S
H702 C679 0.950 . S
H703 C681 0.950 . S
C704 C705 1.349 . S
C704 C706 1.327 . S
C704 H729 0.950 . S
C705 C704 1.349 . S
C705 C721 1.349 . S
C706 C704 1.327 . S
C706 C725 1.429 . S
C706 H730 0.950 . S
C707 C724 1.574 . S
C707 C726 1.368 . S
C707 H731 0.949 . S
H708 C712 0.949 . S
C709 C710 1.349 . S
C709 C711 1.327 . S
C709 H732 0.950 . S
C710 C709 1.349 . S
C710 C722 1.349 . S
C711 C709 1.327 . S
C711 C727 1.429 . S
C711 H733 0.950 . S
C712 H708 0.949 . S
C712 C720 1.574 . S
C712 C728 1.368 . S
H713 C721 0.950 . S
H714 C719 0.950 . S
H715 C720 0.949 . S
H716 C722 0.950 . S
H717 C723 0.950 . S
H718 C724 0.949 . S
C719 H714 0.950 . S
C719 C721 1.327 . S
C719 C725 1.429 . S
C720 C712 1.574 . S
C720 H715 0.949 . S
C720 C726 1.368 . S
C721 C705 1.349 . S
C721 H713 0.950 . S
C721 C719 1.327 . S
C722 C710 1.349 . S
C722 H716 0.950 . S
C722 C723 1.327 . S
C723 H717 0.950 . S
C723 C722 1.327 . S
C723 C727 1.429 . S
C724 C707 1.574 . S
C724 H718 0.949 . S
C724 C728 1.368 . S
C725 C706 1.429 . S
C725 C719 1.429 . S
C725 C726 1.523 . S
C726 C707 1.368 . S
C726 C720 1.368 . S
C726 C725 1.523 . S
C727 C711 1.429 . S
C727 C723 1.429 . S
C727 C728 1.523 . S
C728 C712 1.368 . S
C728 C724 1.368 . S
C728 C727 1.523 . S
H729 C704 0.950 . S
H730 C706 0.950 . S
H731 C707 0.949 . S
H732 C709 0.950 . S
H733 C711 0.950 . S
C734 C735 1.349 . S
C734 C736 1.327 . S
C734 H759 0.950 . S
C735 C734 1.349 . S
C735 C751 1.349 . S
C736 C734 1.327 . S
C736 C755 1.429 . S
C736 H760 0.950 . S
C737 C754 1.574 . S
C737 C756 1.368 . S
C737 H761 0.949 . S
H738 C742 0.949 . S
C739 C740 1.349 . S
C739 C741 1.327 . S
C739 H762 0.950 . S
C740 C739 1.349 . S
C740 C752 1.349 . S
C741 C739 1.327 . S
C741 C757 1.429 . S
C741 H763 0.950 . S
C742 H738 0.949 . S
C742 C750 1.574 . S
C742 C758 1.368 . S
H743 C751 0.950 . S
H744 C749 0.950 . S
H745 C750 0.949 . S
H746 C752 0.950 . S
H747 C753 0.950 . S
H748 C754 0.949 . S
C749 H744 0.950 . S
C749 C751 1.327 . S
C749 C755 1.429 . S
C750 C742 1.574 . S
C750 H745 0.949 . S
C750 C756 1.368 . S
C751 C735 1.349 . S
C751 H743 0.950 . S
C751 C749 1.327 . S
C752 C740 1.349 . S
C752 H746 0.950 . S
C752 C753 1.327 . S
C753 H747 0.950 . S
C753 C752 1.327 . S
C753 C757 1.429 . S
C754 C737 1.574 . S
C754 H748 0.949 . S
C754 C758 1.368 . S
C755 C736 1.429 . S
C755 C749 1.429 . S
C755 C756 1.523 . S
C756 C737 1.368 . S
C756 C750 1.368 . S
C756 C755 1.523 . S
C757 C741 1.429 . S
C757 C753 1.429 . S
C757 C758 1.523 . S
C758 C742 1.368 . S
C758 C754 1.368 . S
C758 C757 1.523 . S
H759 C734 0.950 . S
H760 C736 0.950 . S
H761 C737 0.949 . S
H762 C739 0.950 . S
H763 C741 0.950 . S
C764 C765 1.349 . S
C764 C766 1.327 . S
C764 H789 0.950 . S
C765 C764 1.349 . S
C765 C781 1.349 . S
C766 C764 1.327 . S
C766 C785 1.429 . S
C766 H790 0.950 . S
C767 C784 1.574 . S
C767 C786 1.368 . S
C767 H791 0.949 . S
H768 C772 0.949 . S
C769 C770 1.349 . S
C769 C771 1.327 . S
C769 H792 0.950 . S
C770 C769 1.349 . S
C770 C782 1.349 . S
C771 C769 1.327 . S
C771 C787 1.429 . S
C771 H793 0.950 . S
C772 H768 0.949 . S
C772 C780 1.574 . S
C772 C788 1.368 . S
H773 C781 0.950 . S
H774 C779 0.950 . S
H775 C780 0.949 . S
H776 C782 0.950 . S
H777 C783 0.950 . S
H778 C784 0.949 . S
C779 H774 0.950 . S
C779 C781 1.327 . S
C779 C785 1.429 . S
C780 C772 1.574 . S
C780 H775 0.949 . S
C780 C786 1.368 . S
C781 C765 1.349 . S
C781 H773 0.950 . S
C781 C779 1.327 . S
C782 C770 1.349 . S
C782 H776 0.950 . S
C782 C783 1.327 . S
C783 H777 0.950 . S
C783 C782 1.327 . S
C783 C787 1.429 . S
C784 C767 1.574 . S
C784 H778 0.949 . S
C784 C788 1.368 . S
C785 C766 1.429 . S
C785 C779 1.429 . S
C785 C786 1.523 . S
C786 C767 1.368 . S
C786 C780 1.368 . S
C786 C785 1.523 . S
C787 C771 1.429 . S
C787 C783 1.429 . S
C787 C788 1.523 . S
C788 C772 1.368 . S
C788 C784 1.368 . S
C788 C787 1.523 . S
H789 C764 0.950 . S
H790 C766 0.950 . S
H791 C767 0.949 . S
H792 C769 0.950 . S
H793 C771 0.950 . S
C794 C795 1.349 . S
C794 C796 1.327 . S
C794 H819 0.950 . S
C795 C794 1.349 . S
C795 C811 1.349 . S
C796 C794 1.327 . S
C796 C815 1.429 . S
C796 H820 0.950 . S
C797 C814 1.574 . S
C797 C816 1.368 . S
C797 H821 0.949 . S
H798 C802 0.949 . S
C799 C800 1.349 . S
C799 C801 1.327 . S
C799 H822 0.950 . S
C800 C799 1.349 . S
C800 C812 1.349 . S
C801 C799 1.327 . S
C801 C817 1.429 . S
C801 H823 0.950 . S
C802 H798 0.949 . S
C802 C810 1.574 . S
C802 C818 1.368 . S
H803 C811 0.950 . S
H804 C809 0.950 . S
H805 C810 0.949 . S
H806 C812 0.950 . S
H807 C813 0.950 . S
H808 C814 0.949 . S
C809 H804 0.950 . S
C809 C811 1.327 . S
C809 C815 1.429 . S
C810 C802 1.574 . S
C810 H805 0.949 . S
C810 C816 1.368 . S
C811 C795 1.349 . S
C811 H803 0.950 . S
C811 C809 1.327 . S
C812 C800 1.349 . S
C812 H806 0.950 . S
C812 C813 1.327 . S
C813 H807 0.950 . S
C813 C812 1.327 . S
C813 C817 1.429 . S
C814 C797 1.574 . S
C814 H808 0.949 . S
C814 C818 1.368 . S
C815 C796 1.429 . S
C815 C809 1.429 . S
C815 C816 1.523 . S
C816 C797 1.368 . S
C816 C810 1.368 . S
C816 C815 1.523 . S
C817 C801 1.429 . S
C817 C813 1.429 . S
C817 C818 1.523 . S
C818 C802 1.368 . S
C818 C814 1.368 . S
C818 C817 1.523 . S
H819 C794 0.950 . S
H820 C796 0.950 . S
H821 C797 0.949 . S
H822 C799 0.950 . S
H823 C801 0.950 . S
C824 C825 1.349 . S
C824 C826 1.327 . S
C824 H849 0.950 . S
C825 C824 1.349 . S
C825 C841 1.349 . S
C826 C824 1.327 . S
C826 C845 1.429 . S
C826 H850 0.950 . S
C827 C844 1.574 . S
C827 C846 1.368 . S
C827 H851 0.949 . S
H828 C832 0.949 . S
C829 C830 1.349 . S
C829 C831 1.327 . S
C829 H852 0.950 . S
C830 C829 1.349 . S
C830 C842 1.349 . S
C831 C829 1.327 . S
C831 C847 1.429 . S
C831 H853 0.950 . S
C832 H828 0.949 . S
C832 C840 1.574 . S
C832 C848 1.368 . S
H833 C841 0.950 . S
H834 C839 0.950 . S
H835 C840 0.949 . S
H836 C842 0.950 . S
H837 C843 0.950 . S
H838 C844 0.949 . S
C839 H834 0.950 . S
C839 C841 1.327 . S
C839 C845 1.429 . S
C840 C832 1.574 . S
C840 H835 0.949 . S
C840 C846 1.368 . S
C841 C825 1.349 . S
C841 H833 0.950 . S
C841 C839 1.327 . S
C842 C830 1.349 . S
C842 H836 0.950 . S
C842 C843 1.327 . S
C843 H837 0.950 . S
C843 C842 1.327 . S
C843 C847 1.429 . S
C844 C827 1.574 . S
C844 H838 0.949 . S
C844 C848 1.368 . S
C845 C826 1.429 . S
C845 C839 1.429 . S
C845 C846 1.523 . S
C846 C827 1.368 . S
C846 C840 1.368 . S
C846 C845 1.523 . S
C847 C831 1.429 . S
C847 C843 1.429 . S
C847 C848 1.523 . S
C848 C832 1.368 . S
C848 C844 1.368 . S
C848 C847 1.523 . S
H849 C824 0.950 . S
H850 C826 0.950 . S
H851 C827 0.949 . S
H852 C829 0.950 . S
H853 C831 0.950 . S
C854 C855 1.349 . S
C854 C856 1.327 . S
C854 H879 0.950 . S
C855 C854 1.349 . S
C855 C871 1.349 . S
C856 C854 1.327 . S
C856 C875 1.429 . S
C856 H880 0.950 . S
C857 C874 1.574 . S
C857 C876 1.368 . S
C857 H881 0.949 . S
H858 C862 0.949 . S
C859 C860 1.349 . S
C859 C861 1.327 . S
C859 H882 0.950 . S
C860 C859 1.349 . S
C860 C872 1.349 . S
C861 C859 1.327 . S
C861 C877 1.429 . S
C861 H883 0.950 . S
C862 H858 0.949 . S
C862 C870 1.574 . S
C862 C878 1.368 . S
H863 C871 0.950 . S
H864 C869 0.950 . S
H865 C870 0.949 . S
H866 C872 0.950 . S
H867 C873 0.950 . S
H868 C874 0.949 . S
C869 H864 0.950 . S
C869 C871 1.327 . S
C869 C875 1.429 . S
C870 C862 1.574 . S
C870 H865 0.949 . S
C870 C876 1.368 . S
C871 C855 1.349 . S
C871 H863 0.950 . S
C871 C869 1.327 . S
C872 C860 1.349 . S
C872 H866 0.950 . S
C872 C873 1.327 . S
C873 H867 0.950 . S
C873 C872 1.327 . S
C873 C877 1.429 . S
C874 C857 1.574 . S
C874 H868 0.949 . S
C874 C878 1.368 . S
C875 C856 1.429 . S
C875 C869 1.429 . S
C875 C876 1.523 . S
C876 C857 1.368 . S
C876 C870 1.368 . S
C876 C875 1.523 . S
C877 C861 1.429 . S
C877 C873 1.429 . S
C877 C878 1.523 . S
C878 C862 1.368 . S
C878 C874 1.368 . S
C878 C877 1.523 . S
H879 C854 0.950 . S
H880 C856 0.950 . S
H881 C857 0.949 . S
H882 C859 0.950 . S
H883 C861 0.950 . S
C884 C885 1.349 . S
C884 C886 1.327 . S
C884 H909 0.950 . S
C885 C884 1.349 . S
C885 C901 1.349 . S
C886 C884 1.327 . S
C886 C905 1.429 . S
C886 H910 0.950 . S
C887 C904 1.574 . S
C887 C906 1.368 . S
C887 H911 0.949 . S
H888 C892 0.949 . S
C889 C890 1.349 . S
C889 C891 1.327 . S
C889 H912 0.950 . S
C890 C889 1.349 . S
C890 C902 1.349 . S
C891 C889 1.327 . S
C891 C907 1.429 . S
C891 H913 0.950 . S
C892 H888 0.949 . S
C892 C900 1.574 . S
C892 C908 1.368 . S
H893 C901 0.950 . S
H894 C899 0.950 . S
H895 C900 0.949 . S
H896 C902 0.950 . S
H897 C903 0.950 . S
H898 C904 0.949 . S
C899 H894 0.950 . S
C899 C901 1.327 . S
C899 C905 1.429 . S
C900 C892 1.574 . S
C900 H895 0.949 . S
C900 C906 1.368 . S
C901 C885 1.349 . S
C901 H893 0.950 . S
C901 C899 1.327 . S
C902 C890 1.349 . S
C902 H896 0.950 . S
C902 C903 1.327 . S
C903 H897 0.950 . S
C903 C902 1.327 . S
C903 C907 1.429 . S
C904 C887 1.574 . S
C904 H898 0.949 . S
C904 C908 1.368 . S
C905 C886 1.429 . S
C905 C899 1.429 . S
C905 C906 1.523 . S
C906 C887 1.368 . S
C906 C900 1.368 . S
C906 C905 1.523 . S
C907 C891 1.429 . S
C907 C903 1.429 . S
C907 C908 1.523 . S
C908 C892 1.368 . S
C908 C904 1.368 . S
C908 C907 1.523 . S
H909 C884 0.950 . S
H910 C886 0.950 . S
H911 C887 0.949 . S
H912 C889 0.950 . S
H913 C891 0.950 . S
C914 C915 1.349 . S
C914 C916 1.327 . S
C914 H939 0.950 . S
C915 C914 1.349 . S
C915 C931 1.349 . S
C916 C914 1.327 . S
C916 C935 1.429 . S
C916 H940 0.950 . S
C917 C934 1.574 . S
C917 C936 1.368 . S
C917 H941 0.949 . S
H918 C922 0.949 . S
C919 C920 1.349 . S
C919 C921 1.327 . S
C919 H942 0.950 . S
C920 C919 1.349 . S
C920 C932 1.349 . S
C921 C919 1.327 . S
C921 C937 1.429 . S
C921 H943 0.950 . S
C922 H918 0.949 . S
C922 C930 1.574 . S
C922 C938 1.368 . S
H923 C931 0.950 . S
H924 C929 0.950 . S
H925 C930 0.949 . S
H926 C932 0.950 . S
H927 C933 0.950 . S
H928 C934 0.949 . S
C929 H924 0.950 . S
C929 C931 1.327 . S
C929 C935 1.429 . S
C930 C922 1.574 . S
C930 H925 0.949 . S
C930 C936 1.368 . S
C931 C915 1.349 . S
C931 H923 0.950 . S
C931 C929 1.327 . S
C932 C920 1.349 . S
C932 H926 0.950 . S
C932 C933 1.327 . S
C933 H927 0.950 . S
C933 C932 1.327 . S
C933 C937 1.429 . S
C934 C917 1.574 . S
C934 H928 0.949 . S
C934 C938 1.368 . S
C935 C916 1.429 . S
C935 C929 1.429 . S
C935 C936 1.523 . S
C936 C917 1.368 . S
C936 C930 1.368 . S
C936 C935 1.523 . S
C937 C921 1.429 . S
C937 C933 1.429 . S
C937 C938 1.523 . S
C938 C922 1.368 . S
C938 C934 1.368 . S
C938 C937 1.523 . S
H939 C914 0.950 . S
H940 C916 0.950 . S
H941 C917 0.949 . S
H942 C919 0.950 . S
H943 C921 0.950 . S
C944 C945 1.349 . S
C944 C946 1.327 . S
C944 H969 0.950 . S
C945 C944 1.349 . S
C945 C961 1.349 . S
C946 C944 1.327 . S
C946 C965 1.429 . S
C946 H970 0.950 . S
C947 C964 1.574 1_554 S
C947 C966 1.368 . S
C947 H971 0.949 . S
H948 C952 0.949 . S
C949 C950 1.349 . S
C949 C951 1.327 . S
C949 H972 0.950 . S
C950 C949 1.349 . S
C950 C962 1.349 . S
C951 C949 1.327 . S
C951 C967 1.429 . S
C951 H973 0.950 . S
C952 H948 0.949 . S
C952 C960 1.574 1_556 S
C952 C968 1.368 . S
H953 C961 0.950 . S
H954 C959 0.950 . S
H955 C960 0.949 . S
H956 C962 0.950 . S
H957 C963 0.950 . S
H958 C964 0.949 . S
C959 H954 0.950 . S
C959 C961 1.327 . S
C959 C965 1.429 . S
C960 C952 1.574 1_554 S
C960 H955 0.949 . S
C960 C966 1.368 . S
C961 C945 1.349 . S
C961 H953 0.950 . S
C961 C959 1.327 . S
C962 C950 1.349 . S
C962 H956 0.950 . S
C962 C963 1.327 . S
C963 H957 0.950 . S
C963 C962 1.327 . S
C963 C967 1.429 . S
C964 C947 1.574 1_556 S
C964 H958 0.949 . S
C964 C968 1.368 . S
C965 C946 1.429 . S
C965 C959 1.429 . S
C965 C966 1.523 . S
C966 C947 1.368 . S
C966 C960 1.368 . S
C966 C965 1.523 . S
C967 C951 1.429 . S
C967 C963 1.429 . S
C967 C968 1.523 . S
C968 C952 1.368 . S
C968 C964 1.368 . S
C968 C967 1.523 . S
H969 C944 0.950 . S
H970 C946 0.950 . S
H971 C947 0.949 . S
H972 C949 0.950 . S
H973 C951 0.950 . S
C974 C975 1.349 . S
C974 C976 1.327 . S
C974 H999 0.950 . S
C975 C974 1.349 . S
C975 C991 1.349 . S
C976 C974 1.327 . S
C976 C995 1.429 . S
C976 H1000 0.950 . S
C977 C994 1.574 . S
C977 C996 1.368 . S
C977 H1001 0.949 . S
H978 C982 0.949 . S
C979 C980 1.349 . S
C979 C981 1.327 . S
C979 H1002 0.950 . S
C980 C979 1.349 . S
C980 C992 1.349 . S
C981 C979 1.327 . S
C981 C997 1.429 . S
C981 H1003 0.950 . S
C982 H978 0.949 . S
C982 C990 1.574 . S
C982 C998 1.368 . S
H983 C991 0.950 . S
H984 C989 0.950 . S
H985 C990 0.949 . S
H986 C992 0.950 . S
H987 C993 0.950 . S
H988 C994 0.949 . S
C989 H984 0.950 . S
C989 C991 1.327 . S
C989 C995 1.429 . S
C990 C982 1.574 . S
C990 H985 0.949 . S
C990 C996 1.368 . S
C991 C975 1.349 . S
C991 H983 0.950 . S
C991 C989 1.327 . S
C992 C980 1.349 . S
C992 H986 0.950 . S
C992 C993 1.327 . S
C993 H987 0.950 . S
C993 C992 1.327 . S
C993 C997 1.429 . S
C994 C977 1.574 . S
C994 H988 0.949 . S
C994 C998 1.368 . S
C995 C976 1.429 . S
C995 C989 1.429 . S
C995 C996 1.523 . S
C996 C977 1.368 . S
C996 C990 1.368 . S
C996 C995 1.523 . S
C997 C981 1.429 . S
C997 C993 1.429 . S
C997 C998 1.523 . S
C998 C982 1.368 . S
C998 C994 1.368 . S
C998 C997 1.523 . S
H999 C974 0.950 . S
H1000 C976 0.950 . S
H1001 C977 0.949 . S
H1002 C979 0.950 . S
H1003 C981 0.950 . S
C1004 C1005 1.349 1_455 S
C1004 C1006 1.327 . S
C1004 H1029 0.950 . S
C1005 C1004 1.349 1_655 S
C1005 C1021 1.349 . S
C1006 C1004 1.327 . S
C1006 C1025 1.429 1_455 S
C1006 H1030 0.950 . S
C1007 C1024 1.574 1_554 S
C1007 C1026 1.368 . S
C1007 H1031 0.949 . S
H1008 C1012 0.949 . S
C1009 C1010 1.349 . S
C1009 C1011 1.327 . S
C1009 H1032 0.950 . S
C1010 C1009 1.349 . S
C1010 C1022 1.349 1_655 S
C1011 C1009 1.327 . S
C1011 C1027 1.429 . S
C1011 H1033 0.950 . S
C1012 H1008 0.949 . S
C1012 C1020 1.574 1_556 S
C1012 C1028 1.368 1_455 S
H1013 C1021 0.950 . S
H1014 C1019 0.950 . S
H1015 C1020 0.949 . S
H1016 C1022 0.950 . S
H1017 C1023 0.950 . S
H1018 C1024 0.949 . S
C1019 H1014 0.950 . S
C1019 C1021 1.327 . S
C1019 C1025 1.429 . S
C1020 C1012 1.574 1_554 S
C1020 H1015 0.949 . S
C1020 C1026 1.368 1_455 S
C1021 C1005 1.349 . S
C1021 H1013 0.950 . S
C1021 C1019 1.327 . S
C1022 C1010 1.349 1_455 S
C1022 H1016 0.950 . S
C1022 C1023 1.327 . S
C1023 H1017 0.950 . S
C1023 C1022 1.327 . S
C1023 C1027 1.429 1_455 S
C1024 C1007 1.574 1_556 S
C1024 H1018 0.949 . S
C1024 C1028 1.368 . S
C1025 C1006 1.429 1_655 S
C1025 C1019 1.429 . S
C1025 C1026 1.523 . S
C1026 C1007 1.368 . S
C1026 C1020 1.368 1_655 S
C1026 C1025 1.523 . S
C1027 C1011 1.429 . S
C1027 C1023 1.429 1_655 S
C1027 C1028 1.523 . S
C1028 C1012 1.368 1_655 S
C1028 C1024 1.368 . S
C1028 C1027 1.523 . S
H1029 C1004 0.950 . S
H1030 C1006 0.950 . S
H1031 C1007 0.949 . S
H1032 C1009 0.950 . S
H1033 C1011 0.950 . S
C1034 C1035 1.349 . S
C1034 C1036 1.327 . S
C1034 H1059 0.950 . S
C1035 C1034 1.349 . S
C1035 C1051 1.349 . S
C1036 C1034 1.327 . S
C1036 C1055 1.429 . S
C1036 H1060 0.950 . S
C1037 C1054 1.574 . S
C1037 C1056 1.368 . S
C1037 H1061 0.949 . S
H1038 C1042 0.949 . S
C1039 C1040 1.349 . S
C1039 C1041 1.327 . S
C1039 H1062 0.950 . S
C1040 C1039 1.349 . S
C1040 C1052 1.349 . S
C1041 C1039 1.327 . S
C1041 C1057 1.429 . S
C1041 H1063 0.950 . S
C1042 H1038 0.949 . S
C1042 C1050 1.574 . S
C1042 C1058 1.368 . S
H1043 C1051 0.950 . S
H1044 C1049 0.950 . S
H1045 C1050 0.949 . S
H1046 C1052 0.950 . S
H1047 C1053 0.950 . S
H1048 C1054 0.949 . S
C1049 H1044 0.950 . S
C1049 C1051 1.327 . S
C1049 C1055 1.429 . S
C1050 C1042 1.574 . S
C1050 H1045 0.949 . S
C1050 C1056 1.368 . S
C1051 C1035 1.349 . S
C1051 H1043 0.950 . S
C1051 C1049 1.327 . S
C1052 C1040 1.349 . S
C1052 H1046 0.950 . S
C1052 C1053 1.327 . S
C1053 H1047 0.950 . S
C1053 C1052 1.327 . S
C1053 C1057 1.429 . S
C1054 C1037 1.574 . S
C1054 H1048 0.949 . S
C1054 C1058 1.368 . S
C1055 C1036 1.429 . S
C1055 C1049 1.429 . S
C1055 C1056 1.523 . S
C1056 C1037 1.368 . S
C1056 C1050 1.368 . S
C1056 C1055 1.523 . S
C1057 C1041 1.429 . S
C1057 C1053 1.429 . S
C1057 C1058 1.523 . S
C1058 C1042 1.368 . S
C1058 C1054 1.368 . S
C1058 C1057 1.523 . S
H1059 C1034 0.950 . S
H1060 C1036 0.950 . S
H1061 C1037 0.949 . S
H1062 C1039 0.950 . S
H1063 C1041 0.950 . S
C1064 C1065 1.349 . S
C1064 C1066 1.327 . S
C1064 H1089 0.950 . S
C1065 C1064 1.349 . S
C1065 C1081 1.349 . S
C1066 C1064 1.327 . S
C1066 C1085 1.429 . S
C1066 H1090 0.950 . S
C1067 C1084 1.574 1_556 S
C1067 C1086 1.368 . S
C1067 H1091 0.949 . S
H1068 C1072 0.949 . S
C1069 C1070 1.349 . S
C1069 C1071 1.327 . S
C1069 H1092 0.950 . S
C1070 C1069 1.349 . S
C1070 C1082 1.349 . S
C1071 C1069 1.327 . S
C1071 C1087 1.429 . S
C1071 H1093 0.950 . S
C1072 H1068 0.949 . S
C1072 C1080 1.574 1_554 S
C1072 C1088 1.368 . S
H1073 C1081 0.950 . S
H1074 C1079 0.950 . S
H1075 C1080 0.949 . S
H1076 C1082 0.950 . S
H1077 C1083 0.950 . S
H1078 C1084 0.949 . S
C1079 H1074 0.950 . S
C1079 C1081 1.327 . S
C1079 C1085 1.429 . S
C1080 C1072 1.574 1_556 S
C1080 H1075 0.949 . S
C1080 C1086 1.368 . S
C1081 C1065 1.349 . S
C1081 H1073 0.950 . S
C1081 C1079 1.327 . S
C1082 C1070 1.349 . S
C1082 H1076 0.950 . S
C1082 C1083 1.327 . S
C1083 H1077 0.950 . S
C1083 C1082 1.327 . S
C1083 C1087 1.429 . S
C1084 C1067 1.574 1_554 S
C1084 H1078 0.949 . S
C1084 C1088 1.368 . S
C1085 C1066 1.429 . S
C1085 C1079 1.429 . S
C1085 C1086 1.523 . S
C1086 C1067 1.368 . S
C1086 C1080 1.368 . S
C1086 C1085 1.523 . S
C1087 C1071 1.429 . S
C1087 C1083 1.429 . S
C1087 C1088 1.523 . S
C1088 C1072 1.368 . S
C1088 C1084 1.368 . S
C1088 C1087 1.523 . S
H1089 C1064 0.950 . S
H1090 C1066 0.950 . S
H1091 C1067 0.949 . S
H1092 C1069 0.950 . S
H1093 C1071 0.950 . S
C1094 C1095 1.349 . S
C1094 C1096 1.327 . S
C1094 H1119 0.950 . S
C1095 C1094 1.349 . S
C1095 C1111 1.349 . S
C1096 C1094 1.327 . S
C1096 C1115 1.429 . S
C1096 H1120 0.950 . S
C1097 C1114 1.574 . S
C1097 C1116 1.368 . S
C1097 H1121 0.949 . S
H1098 C1102 0.949 . S
C1099 C1100 1.349 . S
C1099 C1101 1.327 . S
C1099 H1122 0.950 . S
C1100 C1099 1.349 . S
C1100 C1112 1.349 . S
C1101 C1099 1.327 . S
C1101 C1117 1.429 . S
C1101 H1123 0.950 . S
C1102 H1098 0.949 . S
C1102 C1110 1.574 . S
C1102 C1118 1.368 . S
H1103 C1111 0.950 . S
H1104 C1109 0.950 . S
H1105 C1110 0.949 . S
H1106 C1112 0.950 . S
H1107 C1113 0.950 . S
H1108 C1114 0.949 . S
C1109 H1104 0.950 . S
C1109 C1111 1.327 . S
C1109 C1115 1.429 . S
C1110 C1102 1.574 . S
C1110 H1105 0.949 . S
C1110 C1116 1.368 . S
C1111 C1095 1.349 . S
C1111 H1103 0.950 . S
C1111 C1109 1.327 . S
C1112 C1100 1.349 . S
C1112 H1106 0.950 . S
C1112 C1113 1.327 . S
C1113 H1107 0.950 . S
C1113 C1112 1.327 . S
C1113 C1117 1.429 . S
C1114 C1097 1.574 . S
C1114 H1108 0.949 . S
C1114 C1118 1.368 . S
C1115 C1096 1.429 . S
C1115 C1109 1.429 . S
C1115 C1116 1.523 . S
C1116 C1097 1.368 . S
C1116 C1110 1.368 . S
C1116 C1115 1.523 . S
C1117 C1101 1.429 . S
C1117 C1113 1.429 . S
C1117 C1118 1.523 . S
C1118 C1102 1.368 . S
C1118 C1114 1.368 . S
C1118 C1117 1.523 . S
H1119 C1094 0.950 . S
H1120 C1096 0.950 . S
H1121 C1097 0.949 . S
H1122 C1099 0.950 . S
H1123 C1101 0.950 . S
C1124 C1125 1.349 . S
C1124 C1126 1.327 . S
C1124 H1149 0.933 1_455 S
C1125 C1124 1.349 . S
C1125 C1141 1.349 . S
C1126 C1124 1.327 . S
C1126 C1145 1.429 . S
C1126 H1150 0.950 1_455 S
C1127 C1144 1.574 1_554 S
C1127 C1146 1.368 . S
C1127 H1151 0.949 . S
H1128 C1132 0.949 1_655 S
C1129 C1130 1.349 . S
C1129 C1131 1.327 . S
C1129 H1152 0.950 . S
C1130 C1129 1.349 . S
C1130 C1142 1.349 . S
C1131 C1129 1.327 . S
C1131 C1147 1.429 . S
C1131 H1153 0.950 . S
C1132 H1128 0.949 1_455 S
C1132 C1140 1.574 1_556 S
C1132 C1148 1.368 . S
H1133 C1141 0.950 . S
H1134 C1139 0.950 . S
H1135 C1140 0.949 1_655 S
H1136 C1142 0.933 1_655 S
H1137 C1143 0.950 1_655 S
H1138 C1144 0.949 . S
C1139 H1134 0.950 . S
C1139 C1141 1.327 . S
C1139 C1145 1.429 . S
C1140 C1132 1.574 1_554 S
C1140 H1135 0.949 1_455 S
C1140 C1146 1.368 . S
C1141 C1125 1.349 . S
C1141 H1133 0.950 . S
C1141 C1139 1.327 . S
C1142 C1130 1.349 . S
C1142 H1136 0.933 1_455 S
C1142 C1143 1.327 . S
C1143 H1137 0.950 1_455 S
C1143 C1142 1.327 . S
C1143 C1147 1.429 . S
C1144 C1127 1.574 1_556 S
C1144 H1138 0.949 . S
C1144 C1148 1.368 . S
C1145 C1126 1.429 . S
C1145 C1139 1.429 . S
C1145 C1146 1.523 . S
C1146 C1127 1.368 . S
C1146 C1140 1.368 . S
C1146 C1145 1.523 . S
C1147 C1131 1.429 . S
C1147 C1143 1.429 . S
C1147 C1148 1.523 . S
C1148 C1132 1.368 . S
C1148 C1144 1.368 . S
C1148 C1147 1.523 . S
H1149 C1124 0.933 1_655 S
H1150 C1126 0.950 1_655 S
H1151 C1127 0.949 . S
H1152 C1129 0.950 . S
H1153 C1131 0.950 . S
C1154 C1155 1.349 . S
C1154 C1156 1.327 . S
C1154 H1179 0.950 . S
C1155 C1154 1.349 . S
C1155 C1171 1.349 . S
C1156 C1154 1.327 . S
C1156 C1175 1.429 . S
C1156 H1180 0.950 . S
C1157 C1174 1.574 . S
C1157 C1176 1.368 . S
C1157 H1181 0.974 . S
H1158 C1162 0.949 . S
C1159 C1160 1.349 . S
C1159 C1161 1.327 . S
C1159 H1182 0.950 . S
C1160 C1159 1.349 . S
C1160 C1172 1.349 . S
C1161 C1159 1.327 . S
C1161 C1177 1.429 . S
C1161 H1183 0.985 . S
C1162 H1158 0.949 . S
C1162 C1170 1.574 . S
C1162 C1178 1.368 . S
H1163 C1171 0.950 . S
H1164 C1169 0.985 . S
H1165 C1170 0.949 . S
H1166 C1172 0.950 . S
H1167 C1173 0.950 . S
H1168 C1174 0.974 . S
C1169 H1164 0.985 . S
C1169 C1171 1.327 . S
C1169 C1175 1.429 . S
C1170 C1162 1.574 . S
C1170 H1165 0.949 . S
C1170 C1176 1.368 . S
C1171 C1155 1.349 . S
C1171 H1163 0.950 . S
C1171 C1169 1.327 . S
C1172 C1160 1.349 . S
C1172 H1166 0.950 . S
C1172 C1173 1.327 . S
C1173 H1167 0.950 . S
C1173 C1172 1.327 . S
C1173 C1177 1.429 . S
C1174 C1157 1.574 . S
C1174 H1168 0.974 . S
C1174 C1178 1.368 . S
C1175 C1156 1.429 . S
C1175 C1169 1.429 . S
C1175 C1176 1.523 . S
C1176 C1157 1.368 . S
C1176 C1170 1.368 . S
C1176 C1175 1.523 . S
C1177 C1161 1.429 . S
C1177 C1173 1.429 . S
C1177 C1178 1.523 . S
C1178 C1162 1.368 . S
C1178 C1174 1.368 . S
C1178 C1177 1.523 . S
H1179 C1154 0.950 . S
H1180 C1156 0.950 . S
H1181 C1157 0.974 . S
H1182 C1159 0.950 . S
H1183 C1161 0.985 . S
C225 C11 1.029 . S
C230 C109 1.032 1_545 S
C255 C25 1.032 . S
C260 C67 1.028 . S
C285 C39 1.028 . S
C290 C81 1.032 . S
C315 C53 1.032 1_545 S
C320 C95 1.028 . S
C345 C117 0.982 . S
C350 C221 1.039 . S
C375 C173 0.982 . S
C380 C137 1.039 . S
C405 C145 0.982 . S
C410 C193 1.039 . S
C435 C165 1.039 . S
C440 C201 0.982 . S
C465 C4 1.082 . S
C470 C138 1.130 . S
C495 C18 1.227 . S
C500 C144 1.259 . S
C525 C166 1.130 . S
C530 C32 1.082 . S
C555 C46 1.227 . S
C560 C116 1.259 . S
C585 C60 1.082 . S
C590 C222 1.130 . S
C615 C172 1.259 . S
C620 C74 1.227 . S
C645 C194 1.130 . S
C650 C88 1.082 . S
C675 C200 1.259 . S
C680 C102 1.227 . S
C705 C26 1.029 . S
C710 C124 1.014 . S
C735 C40 1.120 . S
C740 C130 1.085 . S
C765 C152 1.014 . S
C770 C54 1.029 . S
C795 C12 1.120 . S
C800 C158 1.085 . S
C825 C180 1.014 . S
C830 C110 1.029 . S
C855 C186 1.085 . S
C860 C68 1.120 . S
C885 C82 1.029 . S
C890 C208 1.014 . S
C915 C96 1.120 . S
C920 C214 1.085 . S
C945 C5 1.253 . S
C950 C61 1.253 . S
C975 C75 1.327 . S
C980 C19 1.327 . S
C1005 C33 1.253 . S
C1010 C89 1.253 . S
C1035 C103 1.327 . S
C1040 C47 1.327 . S
C1065 C123 1.543 . S
C1070 C179 1.543 . S
C1095 C187 1.321 . S
C1100 C131 1.321 . S
C1125 C207 1.543 . S
C1130 C151 1.543 . S
C1155 C215 1.321 . S
C1160 C159 1.321 . S
