# Generated by pormake.
# Topology can, (4)-cn, num edge types: 1
# Building blocks:
#     Node 0, Type 0, BuildingBlock: NAHDIM_clean_sbu_0, # of connection points: 4
#     Node 1, Type 0, BuildingBlock: NAHDIM_clean_sbu_0, # of connection points: 4
#     Node 2, Type 0, BuildingBlock: NAHDIM_clean_sbu_0, # of connection points: 4
#     Node 3, Type 0, BuildingBlock: NAHDIM_clean_sbu_0, # of connection points: 4
#     Node 4, Type 0, BuildingBlock: NAHDIM_clean_sbu_0, # of connection points: 4
#     Node 5, Type 0, BuildingBlock: NAHDIM_clean_sbu_0, # of connection points: 4
#     Node 6, Type 0, BuildingBlock: NAHDIM_clean_sbu_0, # of connection points: 4
#     Node 7, Type 0, BuildingBlock: NAHDIM_clean_sbu_0, # of connection points: 4
#     Node 8, Type 0, BuildingBlock: NAHDIM_clean_sbu_0, # of connection points: 4
#     Node 9, Type 0, BuildingBlock: NAHDIM_clean_sbu_0, # of connection points: 4
#     Node 10, Type 0, BuildingBlock: NAHDIM_clean_sbu_0, # of connection points: 4
#     Node 11, Type 0, BuildingBlock: NAHDIM_clean_sbu_0, # of connection points: 4
#     Edge 12, Type (0, 0), BuildingBlock: XUDNAN_clean_linker_2, # of connection points: 2
#     Edge 13, Type (0, 0), BuildingBlock: XUDNAN_clean_linker_2, # of connection points: 2
#     Edge 14, Type (0, 0), BuildingBlock: XUDNAN_clean_linker_2, # of connection points: 2
#     Edge 15, Type (0, 0), BuildingBlock: XUDNAN_clean_linker_2, # of connection points: 2
#     Edge 16, Type (0, 0), BuildingBlock: XUDNAN_clean_linker_2, # of connection points: 2
#     Edge 17, Type (0, 0), BuildingBlock: XUDNAN_clean_linker_2, # of connection points: 2
#     Edge 18, Type (0, 0), BuildingBlock: XUDNAN_clean_linker_2, # of connection points: 2
#     Edge 19, Type (0, 0), BuildingBlock: XUDNAN_clean_linker_2, # of connection points: 2
#     Edge 20, Type (0, 0), BuildingBlock: XUDNAN_clean_linker_2, # of connection points: 2
#     Edge 21, Type (0, 0), BuildingBlock: XUDNAN_clean_linker_2, # of connection points: 2
#     Edge 22, Type (0, 0), BuildingBlock: XUDNAN_clean_linker_2, # of connection points: 2
#     Edge 23, Type (0, 0), BuildingBlock: XUDNAN_clean_linker_2, # of connection points: 2
#     Edge 24, Type (0, 0), BuildingBlock: XUDNAN_clean_linker_2, # of connection points: 2
#     Edge 25, Type (0, 0), BuildingBlock: XUDNAN_clean_linker_2, # of connection points: 2
#     Edge 26, Type (0, 0), BuildingBlock: XUDNAN_clean_linker_2, # of connection points: 2
#     Edge 27, Type (0, 0), BuildingBlock: XUDNAN_clean_linker_2, # of connection points: 2
#     Edge 28, Type (0, 0), BuildingBlock: XUDNAN_clean_linker_2, # of connection points: 2
#     Edge 29, Type (0, 0), BuildingBlock: XUDNAN_clean_linker_2, # of connection points: 2
#     Edge 30, Type (0, 0), BuildingBlock: XUDNAN_clean_linker_2, # of connection points: 2
#     Edge 31, Type (0, 0), BuildingBlock: XUDNAN_clean_linker_2, # of connection points: 2
#     Edge 32, Type (0, 0), BuildingBlock: XUDNAN_clean_linker_2, # of connection points: 2
#     Edge 33, Type (0, 0), BuildingBlock: XUDNAN_clean_linker_2, # of connection points: 2
#     Edge 34, Type (0, 0), BuildingBlock: XUDNAN_clean_linker_2, # of connection points: 2
#     Edge 35, Type (0, 0), BuildingBlock: XUDNAN_clean_linker_2, # of connection points: 2
# Relax obj value: 0.093
# Max RMSD: 0.085
# Mean RMSD: 0.085
data_MOF--net-can--node1-NAHDIM_clean_sbu_0--edge1-XUDNAN_clean_linker_2
_symmetry_space_group_name_H-M    P1
_symmetry_Int_Tables_number       1
_symmetry_cell_setting            triclinic
loop_
_symmetry_equiv_pos_as_xyz
'x, y, z'
_cell_length_a     59.510877
_cell_length_b     59.425546
_cell_length_c     25.18815
_cell_angle_alpha  89.926973
_cell_angle_beta   90.11854
_cell_angle_gamma 119.9533
loop_
_atom_site_label
_atom_site_type_symbol
_atom_site_fract_x
_atom_site_fract_y
_atom_site_fract_z
_atom_type_partial_charge
C0 C 0.11242 0.4028 0.2415 0.0
O1 O 0.09323 0.38058 0.22437 0.0
O2 O 0.05998 0.39976 0.16389 0.0
Zn3 Zn 0.07375 0.4177 0.23363 0.0
O4 O 0.04987 0.39619 0.29197 0.0
C5 C 0.09491 0.47167 0.20841 0.0
O6 O 0.1118 0.46778 0.18241 0.0
O7 O 0.1087 0.42187 0.24793 0.0
C8 C 0.05587 0.40449 0.33923 0.0
O9 O 0.07716 0.42676 0.34768 0.0
C10 C 0.03988 0.3989 0.14434 0.0
O11 O 0.02887 0.41006 0.17008 0.0
O12 O 0.07658 0.45283 0.23318 0.0
C13 C 0.70405 0.11353 0.76812 0.0
O14 O 0.70796 0.09401 0.77767 0.0
O15 O 0.65705 0.05395 0.69579 0.0
Zn16 Zn 0.65259 0.07191 0.75908 0.0
O17 O 0.65381 0.05505 0.82753 0.0
C18 C 0.59966 0.05087 0.72803 0.0
O19 O 0.60446 0.03386 0.70522 0.0
O20 O 0.68113 0.10891 0.75903 0.0
C21 C 0.63627 0.032 0.83842 0.0
O22 O 0.61773 0.01899 0.80374 0.0
C23 C 0.66361 0.03662 0.69677 0.0
O24 O 0.66944 0.02997 0.74227 0.0
O25 O 0.61772 0.0698 0.75332 0.0
C26 C 0.61398 0.72008 0.24805 0.0
O27 O 0.63352 0.71583 0.25357 0.0
O28 O 0.60686 0.6572 0.21563 0.0
Zn29 Zn 0.58599 0.66571 0.26611 0.0
O30 O 0.59609 0.66519 0.34192 0.0
C31 C 0.54358 0.61501 0.26739 0.0
O32 O 0.56266 0.61094 0.28042 0.0
O33 O 0.59097 0.70104 0.25104 0.0
C34 C 0.6154 0.66322 0.35713 0.0
O35 O 0.63061 0.66152 0.32161 0.0
C36 C 0.60993 0.66514 0.16791 0.0
O37 O 0.60017 0.67967 0.15282 0.0
O38 O 0.54865 0.63812 0.25831 0.0
C39 C 0.88324 0.60273 0.7629 0.0
O40 O 0.90236 0.62691 0.76258 0.0
O41 O 0.94159 0.61279 0.6932 0.0
Zn42 Zn 0.92474 0.59132 0.7579 0.0
O43 O 0.94408 0.60852 0.82448 0.0
C44 C 0.91109 0.54215 0.71254 0.0
O45 O 0.89934 0.54939 0.67803 0.0
O46 O 0.88836 0.58441 0.76198 0.0
C47 C 0.95875 0.63284 0.83032 0.0
O48 O 0.96181 0.64852 0.79071 0.0
C49 C 0.96123 0.61304 0.67295 0.0
O50 O 0.97108 0.60017 0.69653 0.0
O51 O 0.92351 0.55721 0.75077 0.0
C52 C 0.27941 0.89479 0.27323 0.0
O53 O 0.28459 0.91902 0.27477 0.0
O54 O 0.33045 0.935 0.17699 0.0
Zn55 Zn 0.33255 0.9209 0.24888 0.0
O56 O 0.33999 0.9463 0.30858 0.0
C57 C 0.38107 0.92318 0.22542 0.0
O58 O 0.38511 0.94367 0.19794 0.0
O59 O 0.29759 0.89015 0.26287 0.0
C60 C 0.36101 0.96764 0.31483 0.0
O61 O 0.37982 0.97479 0.28014 0.0
C62 C 0.33575 0.95818 0.16792 0.0
O63 O 0.3437 0.97512 0.2068 0.0
O64 O 0.35963 0.90996 0.24953 0.0
C65 C 0.40563 0.28784 0.72919 0.0
O66 O 0.40624 0.29587 0.68033 0.0
O67 O 0.38044 0.33088 0.69175 0.0
Zn68 Zn 0.39877 0.33149 0.75939 0.0
O69 O 0.38076 0.33451 0.82407 0.0
C70 C 0.44866 0.36809 0.71691 0.0
O71 O 0.44006 0.35246 0.67575 0.0
O72 O 0.40234 0.29979 0.76746 0.0
C73 C 0.35977 0.3352 0.82467 0.0
O74 O 0.34777 0.33358 0.77979 0.0
C75 C 0.36062 0.31118 0.67259 0.0
O76 O 0.35025 0.28901 0.6984 0.0
O77 O 0.4343 0.36292 0.75756 0.0
C78 C 0.61266 0.88416 0.24939 0.0
O79 O 0.63195 0.90826 0.24895 0.0
O80 O 0.60327 0.92649 0.34155 0.0
Zn81 Zn 0.58654 0.91137 0.27136 0.0
O82 O 0.60521 0.93688 0.21278 0.0
C83 C 0.54383 0.92011 0.2587 0.0
O84 O 0.56297 0.94332 0.24652 0.0
O85 O 0.58984 0.8799 0.25824 0.0
C86 C 0.59642 0.93017 0.166 0.0
O87 O 0.57604 0.9071 0.15832 0.0
C88 C 0.61199 0.95028 0.35259 0.0
O89 O 0.60987 0.96543 0.31737 0.0
O90 O 0.549 0.90249 0.27173 0.0
C91 C 0.71533 0.59652 0.75925 0.0
O92 O 0.71837 0.6197 0.76764 0.0
O93 O 0.658 0.59078 0.83423 0.0
Zn94 Zn 0.66062 0.57987 0.75992 0.0
O95 O 0.66035 0.60421 0.70495 0.0
C96 C 0.60953 0.53389 0.77054 0.0
O97 O 0.6072 0.54595 0.812 0.0
O98 O 0.69262 0.57721 0.75412 0.0
C99 C 0.64189 0.60915 0.70545 0.0
O100 O 0.62456 0.5994 0.74355 0.0
C101 C 0.66448 0.61393 0.84689 0.0
O102 O 0.67356 0.63215 0.81039 0.0
O103 O 0.6304 0.54462 0.74384 0.0
C104 C 0.11287 0.73234 0.27834 0.0
O105 O 0.08912 0.72836 0.28097 0.0
O106 O 0.06196 0.66902 0.32082 0.0
Zn107 Zn 0.08482 0.67843 0.25634 0.0
O108 O 0.06651 0.68092 0.19151 0.0
C109 C 0.08162 0.6284 0.2605 0.0
O110 O 0.06061 0.62231 0.28803 0.0
O111 O 0.11629 0.71331 0.26828 0.0
C112 C 0.04676 0.661 0.17295 0.0
O113 O 0.03792 0.63863 0.19746 0.0
C114 C 0.04277 0.67276 0.32431 0.0
O115 O 0.03693 0.6829 0.28391 0.0
O116 O 0.09536 0.6515 0.24342 0.0
C117 C 0.41631 0.12848 0.73048 0.0
O118 O 0.416 0.12074 0.68151 0.0
O119 O 0.38434 0.05449 0.81647 0.0
Zn120 Zn 0.40626 0.07694 0.7562 0.0
O121 O 0.39089 0.06515 0.68301 0.0
C122 C 0.43593 0.0526 0.75509 0.0
O123 O 0.41215 0.03285 0.75668 0.0
O124 O 0.41329 0.11324 0.76869 0.0
C125 C 0.37632 0.04208 0.66658 0.0
O126 O 0.36761 0.02267 0.70031 0.0
C127 C 0.35995 0.03977 0.82012 0.0
O128 O 0.34482 0.03749 0.78003 0.0
O129 O 0.43939 0.0755 0.75647 0.0
C130 C 0.2723 0.39441 0.26934 0.0
O131 O 0.26923 0.37367 0.24433 0.0
O132 O 0.33062 0.38767 0.33074 0.0
Zn133 Zn 0.32586 0.40751 0.2712 0.0
O134 O 0.32098 0.3898 0.20079 0.0
C135 C 0.37973 0.44887 0.27586 0.0
O136 O 0.38417 0.43014 0.28995 0.0
O137 O 0.29475 0.41121 0.28542 0.0
C138 C 0.33571 0.38154 0.18445 0.0
O139 O 0.3546 0.38383 0.2152 0.0
C140 C 0.31588 0.36333 0.33659 0.0
O141 O 0.29725 0.35045 0.30198 0.0
O142 O 0.35662 0.44355 0.26636 0.0
C143 C 0.8709 0.27603 0.75329 0.0
O144 O 0.89009 0.27189 0.76466 0.0
O145 O 0.93132 0.33482 0.80256 0.0
Zn146 Zn 0.91139 0.32959 0.73483 0.0
O147 O 0.93062 0.32664 0.67247 0.0
C148 C 0.91883 0.38165 0.74641 0.0
O149 O 0.93483 0.38403 0.78485 0.0
O150 O 0.87583 0.29863 0.73988 0.0
C151 C 0.95311 0.34583 0.66394 0.0
O152 O 0.96279 0.36531 0.69764 0.0
C153 C 0.94718 0.32665 0.80952 0.0
O154 O 0.95038 0.31332 0.77169 0.0
O155 O 0.90697 0.36041 0.72096 0.0
H156 H -0.00086 0.39642 0.08869 0.0
H157 H 0.05584 0.37077 0.08511 0.0
H158 H 0.03738 0.34815 0.00027 0.0
H159 H 0.9457 0.33812 0.03382 0.0
H160 H 0.93348 0.35543 0.99573 0.0
H161 H 0.95079 0.36905 0.05678 0.0
H162 H 0.98318 0.41107 0.00693 0.0
H163 H 0.96594 0.39761 0.94579 0.0
H164 H 0.00018 0.40883 0.94983 0.0
H165 H 0.01296 0.32877 0.91504 0.0
H166 H 0.98524 0.31522 0.83488 0.0
H167 H 0.94497 0.35398 0.8948 0.0
C168 C 0.00764 0.38598 0.07024 0.0
C169 C 0.0289 0.38532 0.09358 0.0
C170 C 0.03954 0.37154 0.06794 0.0
C171 C 0.02916 0.35858 0.01982 0.0
C172 C 0.00819 0.35963 -0.0021 0.0
C173 C -0.0024 0.37303 0.02223 0.0
C174 C 0.9755 0.37167 0.98993 0.0
C175 C 0.94985 0.35773 0.02092 0.0
C176 C 0.98158 0.39891 0.97206 0.0
C177 C 0.97539 0.35554 0.94345 0.0
C178 C 0.99429 0.34866 0.94885 0.0
C179 C -0.00195 0.334 0.91044 0.0
C180 C 0.9822 0.32637 0.86509 0.0
C181 C 0.96293 0.33351 0.85855 0.0
C182 C 0.95947 0.34814 0.89859 0.0
H183 H 0.62429 0.99727 0.39589 0.0
H184 H 0.62567 0.92621 0.42846 0.0
H185 H 0.64329 0.94257 0.51792 0.0
H186 H 0.68328 0.04147 0.4704 0.0
H187 H 0.66966 0.06072 0.49403 0.0
H188 H 0.6597 0.04455 0.43073 0.0
H189 H 0.61166 0.02156 0.46099 0.0
H190 H 0.62146 0.03767 0.52421 0.0
H191 H 0.60244 0.00274 0.52137 0.0
H192 H 0.6581 0.96552 0.60593 0.0
H193 H 0.66682 0.99231 0.68661 0.0
H194 H 0.65497 0.04778 0.59613 0.0
C195 C 0.62869 0.98531 0.42147 0.0
C196 C 0.62372 0.96053 0.40513 0.0
C197 C 0.62935 0.94529 0.44015 0.0
C198 C 0.63948 0.95446 0.49094 0.0
C199 C 0.64388 0.97888 0.50603 0.0
C200 C 0.63863 0.99407 0.47233 0.0
C201 C 0.64329 0.01875 0.49937 0.0
C202 C 0.66529 0.04279 0.47199 0.0
C203 C 0.61822 0.02025 0.50162 0.0
C204 C 0.65139 0.01479 0.55393 0.0
C205 C 0.652 0.99188 0.55685 0.0
C206 C 0.65792 0.98363 0.604 0.0
C207 C 0.66288 -0.00102 0.64959 0.0
C208 C 0.66158 0.02213 0.64768 0.0
C209 C 0.65622 0.03025 0.59889 0.0
H210 H 0.62554 0.68368 0.06725 0.0
H211 H 0.62194 0.62653 0.17968 0.0
H212 H 0.63878 0.60917 0.1111 0.0
H213 H 0.60426 0.64342 0.95627 0.0
H214 H 0.62556 0.66778 0.90966 0.0
H215 H 0.61558 0.67729 0.96884 0.0
H216 H 0.66367 0.70773 0.99484 0.0
H217 H 0.67383 0.6984 0.93549 0.0
H218 H 0.6853 0.69478 -0.00054 0.0
H219 H 0.65101 0.59486 0.02771 0.0
H220 H 0.66059 0.58648 0.9368 0.0
H221 H 0.65819 0.65422 0.88003 0.0
C222 C 0.62867 0.66777 0.07772 0.0
C223 C 0.6224 0.65642 0.12874 0.0
C224 C 0.62672 0.6356 0.14088 0.0
C225 C 0.63626 0.6256 0.1022 0.0
C226 C 0.64175 0.6369 0.05193 0.0
C227 C 0.63845 0.65775 0.03982 0.0
C228 C 0.64484 0.66572 0.98226 0.0
C229 C 0.62115 0.6634 0.95253 0.0
C230 C 0.66831 0.6933 0.97777 0.0
C231 C 0.65148 0.64557 0.96345 0.0
C232 C 0.64963 0.62915 0.00426 0.0
C233 C 0.653 0.60787 0.99565 0.0
C234 C 0.65831 0.6032 0.94391 0.0
C235 C 0.66038 0.61986 0.90164 0.0
C236 C 0.65722 0.64147 0.91181 0.0
H237 H 0.04777 0.64844 0.41219 0.0
H238 H 0.00375 0.68275 0.34897 0.0
H239 H 0.97914 0.67269 0.43286 0.0
H240 H 0.99504 0.59589 0.4803 0.0
H241 H 0.01461 0.5967 0.53578 0.0
H242 H 0.02909 0.60722 0.47124 0.0
H243 H 0.06308 0.65163 0.5109 0.0
H244 H 0.04862 0.64129 0.57555 0.0
H245 H 0.05227 0.67072 0.54677 0.0
H246 H 0.95914 0.65854 0.52341 0.0
H247 H 0.94404 0.63984 0.61259 0.0
H248 H 0.00115 0.61468 0.61582 0.0
C249 C 0.03301 0.65392 0.41594 0.0
C250 C 0.02772 0.66645 0.37407 0.0
C251 C 0.00813 0.67313 0.38052 0.0
C252 C 0.9941 0.66757 0.42805 0.0
C253 C -0.0001 0.6553 0.4686 0.0
C254 C 0.01881 0.64847 0.46293 0.0
C255 C 0.02088 0.6349 0.512 0.0
C256 C 0.01452 0.60703 0.49904 0.0
C257 C 0.04781 0.65058 0.53783 0.0
C258 C 9e-05 0.63506 0.54615 0.0
C259 C 0.9883 0.64702 0.52053 0.0
C260 C 0.96826 0.64917 0.54391 0.0
C261 C 0.95985 0.63851 0.5946 0.0
C262 C 0.97143 0.62581 0.62122 0.0
C263 C 0.99197 0.62435 0.59667 0.0
H264 H 0.37922 0.05331 0.9201 0.0
H265 H 0.31704 0.99143 0.82968 0.0
H266 H 0.30254 0.96389 0.91046 0.0
H267 H 0.39542 0.01508 -0.00172 0.0
H268 H 0.40152 0.03396 0.058 0.0
H269 H 0.40579 0.04919 0.99417 0.0
H270 H 0.37383 0.06495 0.02049 0.0
H271 H 0.36963 0.04996 0.0847 0.0
H272 H 0.34179 0.04171 0.04343 0.0
H273 H 0.29856 0.94162 -0.00123 0.0
H274 H 0.30199 0.92812 0.09014 0.0
H275 H 0.3647 0.00601 0.12343 0.0
C276 C 0.36232 0.03408 0.91751 0.0
C277 C 0.34925 0.02435 0.86886 0.0
C278 C 0.32717 -0.00079 0.86683 0.0
C279 C 0.3189 0.98345 0.91237 0.0
C280 C 0.33262 0.99345 0.95959 0.0
C281 C 0.35353 0.0184 0.96264 0.0
C282 C 0.36516 0.02455 0.01779 0.0
C283 C 0.39365 0.03107 0.01697 0.0
C284 C 0.36243 0.0466 0.04309 0.0
C285 C 0.34801 -0.00108 0.0451 0.0
C286 C 0.32944 0.98114 0.01087 0.0
C287 C 0.31267 0.95553 0.02619 0.0
C288 C 0.31485 0.94801 0.07794 0.0
C289 C 0.3334 0.96615 0.11375 0.0
C290 C 0.35001 0.99192 0.0971 0.0
H291 H 0.35271 0.38455 0.41477 0.0
H292 H 0.28601 0.31202 0.36435 0.0
H293 H 0.29034 0.29036 0.4444 0.0
H294 H 0.38952 0.35652 0.46935 0.0
H295 H 0.4022 0.37932 0.52355 0.0
H296 H 0.39415 0.38873 0.46154 0.0
H297 H 0.36378 0.40116 0.51116 0.0
H298 H 0.37164 0.3917 0.57327 0.0
H299 H 0.33827 0.37739 0.5526 0.0
H300 H 0.30142 0.27701 0.53185 0.0
H301 H 0.31887 0.27297 0.61835 0.0
H302 H 0.37812 0.35441 0.61017 0.0
C303 C 0.33906 0.36407 0.42029 0.0
C304 C 0.319 0.34998 0.38326 0.0
C305 C 0.30156 0.32321 0.39213 0.0
C306 C 0.30385 0.31074 0.4375 0.0
C307 C 0.32372 0.3253 0.47345 0.0
C308 C 0.34107 0.35135 0.46518 0.0
C309 C 0.36051 0.36275 0.51004 0.0
C310 C 0.38823 0.37239 0.4899 0.0
C311 C 0.35841 0.38453 0.53844 0.0
C312 C 0.35126 0.3391 0.54513 0.0
C313 C 0.33006 0.31765 0.52342 0.0
C314 C 0.31807 0.29366 0.54914 0.0
C315 C 0.32809 0.29157 0.59827 0.0
C316 C 0.34985 0.31335 0.62109 0.0
C317 C 0.36147 0.33736 0.59391 0.0
H318 H 0.95621 0.60503 0.91881 0.0
H319 H 0.99344 0.68355 0.85602 0.0
H320 H 0.01839 0.69986 0.93947 0.0
H321 H 0.95164 0.62169 0.05606 0.0
H322 H 0.95825 0.59738 0.08247 0.0
H323 H 0.94223 0.59231 0.01921 0.0
H324 H 0.97763 0.58532 0.97525 0.0
H325 H 0.99377 0.5904 0.03826 0.0
H326 H 0.01125 0.61001 0.98187 0.0
H327 H 0.04101 0.70705 0.02797 0.0
H328 H 0.05952 0.70464 0.11422 0.0
H329 H 0.00706 0.62127 0.11809 0.0
C330 C 0.96941 0.62571 0.92265 0.0
C331 C 0.97287 0.64304 0.88088 0.0
C332 C 0.99044 0.66993 0.88754 0.0
C333 C 0.00466 0.67936 0.9348 0.0
C334 C 0.00094 0.66166 0.97495 0.0
C335 C 0.98367 0.63542 0.96937 0.0
C336 C 0.98392 0.62026 0.01744 0.0
C337 C 0.95744 0.60715 0.04545 0.0
C338 C 0.99214 0.60033 0.00228 0.0
C339 C 0.0044 0.64203 0.05067 0.0
C340 C 0.01388 0.66579 0.02571 0.0
C341 C 0.03358 0.68859 0.04806 0.0
C342 C 0.04399 0.687 0.09702 0.0
C343 C 0.03471 0.66277 0.12294 0.0
C344 C 0.01447 0.6401 0.09951 0.0
H345 H 0.33648 0.95231 0.41047 0.0
H346 H 0.39316 0.02008 0.32367 0.0
H347 H 0.39928 0.04753 0.4022 0.0
H348 H 0.30853 0.98432 0.48952 0.0
H349 H 0.30557 0.96557 0.54808 0.0
H350 H 0.30329 0.95183 0.48318 0.0
H351 H 0.34037 0.94272 0.50744 0.0
H352 H 0.34267 0.9563 0.57235 0.0
H353 H 0.37095 0.96903 0.53052 0.0
H354 H 0.40068 0.06708 0.49103 0.0
H355 H 0.40096 0.07679 0.58617 0.0
H356 H 0.34501 0.99571 0.61646 0.0
C357 C 0.34983 0.97301 0.40773 0.0
C358 C 0.36418 0.9842 0.36098 0.0
C359 C 0.38196 0.0112 0.35919 0.0
C360 C 0.38541 0.02694 0.4034 0.0
C361 C 0.37108 0.01528 0.44909 0.0
C362 C 0.35383 0.98889 0.45174 0.0
C363 C 0.34275 0.98077 0.50704 0.0
C364 C 0.31328 0.96999 0.50692 0.0
C365 C 0.34961 0.96105 0.53072 0.0
C366 C 0.35686 0.00663 0.5354 0.0
C367 C 0.37268 0.02637 0.501 0.0
C368 C 0.38828 0.05182 0.5183 0.0
C369 C 0.38824 0.05713 0.57247 0.0
C370 C 0.37304 0.03698 0.60884 0.0
C371 C 0.35676 0.01154 0.58967 0.0
H372 H 0.381 0.34033 0.92346 0.0
H373 H 0.31626 0.33916 0.84107 0.0
H374 H 0.30121 0.34792 0.92589 0.0
H375 H 0.34651 0.31012 0.04662 0.0
H376 H 0.37433 0.33024 0.08748 0.0
H377 H 0.37876 0.32192 0.02105 0.0
H378 H 0.40744 0.37079 -0.00155 0.0
H379 H 0.40309 0.37925 0.06468 0.0
H380 H 0.39472 0.39237 0.00837 0.0
H381 H 0.29493 0.35955 0.01872 0.0
H382 H 0.298 0.37348 0.11201 0.0
H383 H 0.36697 0.36693 0.13298 0.0
C384 C 0.36347 0.34159 0.9232 0.0
C385 C 0.34977 0.33901 0.87558 0.0
C386 C 0.32703 0.341 0.87706 0.0
C387 C 0.31831 0.34592 0.92505 0.0
C388 C 0.33248 0.34865 0.97113 0.0
C389 C 0.35452 0.34647 0.97058 0.0
C390 C 0.36696 0.35139 0.02497 0.0
C391 C 0.36661 0.32696 0.04628 0.0
C392 C 0.39468 0.37485 0.02403 0.0
C393 C 0.34879 0.35727 0.05608 0.0
C394 C 0.32889 0.35536 0.02446 0.0
C395 C 0.31029 0.36088 0.04396 0.0
C396 C 0.31223 0.36881 0.09699 0.0
C397 C 0.33271 0.37126 0.12986 0.0
C398 C 0.35098 0.36507 0.10907 0.0
H399 H 0.00029 0.38549 0.63232 0.0
H400 H 0.93697 0.31054 0.58243 0.0
H401 H 0.95813 0.31599 0.49537 0.0
H402 H 0.00743 0.41755 0.5128 0.0
H403 H 0.04229 0.43696 0.51581 0.0
H404 H 0.02378 0.4259 0.57613 0.0
H405 H 0.05027 0.40416 0.60529 0.0
H406 H 0.06904 0.41534 0.54515 0.0
H407 H 0.05237 0.38127 0.56161 0.0
H408 H 0.98394 0.33164 0.41098 0.0
H409 H 0.0133 0.3556 0.3367 0.0
H410 H 0.05974 0.42006 0.44263 0.0
C411 C 0.99108 0.36997 0.60353 0.0
C412 C 0.96699 0.34758 0.61418 0.0
C413 C 0.95548 0.32784 0.5752 0.0
C414 C 0.96735 0.33075 0.52565 0.0
C415 C 0.99079 0.35339 0.51598 0.0
C416 C 0.00265 0.37254 0.55403 0.0
C417 C 0.02703 0.39565 0.53278 0.0
C418 C 0.02499 0.42047 0.53448 0.0
C419 C 0.0511 0.39931 0.563 0.0
C420 C 0.02667 0.38682 0.47637 0.0
C421 C 0.00572 0.36232 0.46751 0.0
C422 C 0.0006 0.35068 0.41762 0.0
C423 C 0.01732 0.36449 0.37566 0.0
C424 C 0.03885 0.38965 0.38393 0.0
C425 C 0.04361 0.40076 0.43512 0.0
H426 H 0.6008 0.98362 0.87437 0.0
H427 H 0.67133 0.05392 0.91978 0.0
H428 H 0.66984 0.03483 0.00779 0.0
H429 H 0.56921 0.97244 -0.00152 0.0
H430 H 0.55438 0.9376 0.99522 0.0
H431 H 0.56179 0.9563 0.935 0.0
H432 H 0.58898 0.93602 0.90185 0.0
H433 H 0.58162 0.91721 0.96198 0.0
H434 H 0.6149 0.93821 0.94275 0.0
H435 H 0.65936 0.00883 0.09236 0.0
H436 H 0.64102 0.97758 0.16656 0.0
H437 H 0.57773 0.92437 0.06469 0.0
C438 C 0.61609 0.99495 0.90257 0.0
C439 C 0.63619 0.02025 0.89019 0.0
C440 C 0.65574 0.03447 0.92838 0.0
C441 C 0.65508 0.0238 0.97845 0.0
C442 C 0.63482 -0.00111 0.98951 0.0
C443 C 0.61574 0.98462 0.95258 0.0
C444 C 0.59568 0.95858 0.97478 0.0
C445 C 0.56868 0.9561 0.97594 0.0
C446 C 0.59529 0.93619 0.94347 0.0
C447 C 0.60631 0.96052 0.03018 0.0
C448 C 0.62891 0.98388 0.03795 0.0
C449 C 0.64178 0.99038 0.08662 0.0
C450 C 0.6312 0.97254 0.12852 0.0
C451 C 0.60802 0.9485 0.12132 0.0
C452 C 0.5956 0.94246 0.07134 0.0
H453 H 0.64999 0.65148 0.40406 0.0
H454 H 0.5895 0.66973 0.43978 0.0
H455 H 0.59336 0.66257 0.53491 0.0
H456 H 0.62953 0.60022 0.49244 0.0
H457 H 0.66148 0.60705 0.51203 0.0
H458 H 0.65651 0.61694 0.44763 0.0
H459 H 0.6917 0.66448 0.46789 0.0
H460 H 0.69683 0.6547 0.53248 0.0
H461 H 0.68891 0.68019 0.52666 0.0
H462 H 0.60006 0.6487 0.62411 0.0
H463 H 0.60941 0.62919 0.70155 0.0
H464 H 0.66593 0.62048 0.60855 0.0
C465 C 0.63795 0.65451 0.43199 0.0
C466 C 0.61948 0.66121 0.41446 0.0
C467 C 0.60381 0.66461 0.45223 0.0
C468 C 0.60592 0.6607 0.50643 0.0
C469 C 0.62393 0.65358 0.52229 0.0
C470 C 0.6398 0.65067 0.48629 0.0
C471 C 0.65612 0.64097 0.51329 0.0
C472 C 0.65056 0.61474 0.48996 0.0
C473 C 0.68511 0.6613 0.50988 0.0
C474 C 0.64627 0.63803 0.56969 0.0
C475 C 0.62793 0.6457 0.57414 0.0
C476 C 0.6147 0.64303 0.6214 0.0
C477 C 0.62007 0.63185 0.66509 0.0
C478 C 0.63849 0.62347 0.66114 0.0
C479 C 0.65207 0.62709 0.61305 0.0
H480 H 0.05579 0.57717 0.28988 0.0
H481 H 0.12308 0.6342 0.20223 0.0
H482 H 0.13392 0.60032 0.17935 0.0
H483 H 0.08527 0.54179 0.34352 0.0
H484 H 0.05614 0.51065 0.33747 0.0
H485 H 0.05395 0.5395 0.34735 0.0
H486 H 0.02583 0.52902 0.26235 0.0
H487 H 0.02799 0.50018 0.25211 0.0
H488 H 0.03799 0.52426 0.20037 0.0
H489 H 0.13701 0.55995 0.16503 0.0
H490 H 0.13249 0.51634 0.16154 0.0
H491 H 0.06316 0.48601 0.25866 0.0
C492 C 0.07287 0.58261 0.26603 0.0
C493 C 0.0886 0.60836 0.24788 0.0
C494 C 0.11075 0.6146 0.21666 0.0
C495 C 0.11706 0.5955 0.20341 0.0
C496 C 0.10104 0.57027 0.22173 0.0
C497 C 0.07945 0.56382 0.25246 0.0
C498 C 0.06534 0.53529 0.26691 0.0
C499 C 0.06518 0.5316 0.3274 0.0
C500 C 0.03765 0.52138 0.24406 0.0
C501 C 0.08234 0.52666 0.2394 0.0
C502 C 0.10283 0.5471 0.21354 0.0
C503 C 0.12106 0.5438 0.1852 0.0
C504 C 0.11831 0.51895 0.18341 0.0
C505 C 0.09748 0.49775 0.20982 0.0
C506 C 0.0793 0.50178 0.23805 0.0
H507 H 0.48797 0.08671 0.77147 0.0
H508 H 0.4333 0.00772 0.72283 0.0
H509 H 0.46938 -0.00067 0.70887 0.0
H510 H 0.53904 0.09775 0.68003 0.0
H511 H 0.56484 0.1158 0.72684 0.0
H512 H 0.53478 0.11604 0.73216 0.0
H513 H 0.52962 0.09985 0.82936 0.0
H514 H 0.55969 0.09963 0.82439 0.0
H515 H 0.53046 0.07055 0.84369 0.0
H516 H 0.51086 -0.00053 0.69825 0.0
H517 H 0.55554 0.00721 0.69736 0.0
H518 H 0.58375 0.08547 0.75643 0.0
C519 C 0.48365 0.06769 0.7578 0.0
C520 C 0.45785 0.04788 0.74812 0.0
C521 C 0.45291 0.02316 0.7307 0.0
C522 C 0.47327 0.01821 0.72243 0.0
C523 C 0.49845 0.0381 0.73222 0.0
C524 C 0.50377 0.06227 0.74998 0.0
C525 C 0.53262 0.07992 0.75892 0.0
C526 C 0.54345 0.10379 0.72229 0.0
C527 C 0.53843 0.08795 0.81758 0.0
C528 C 0.54259 0.06186 0.74326 0.0
C529 C 0.52252 0.03793 0.72756 0.0
C530 C 0.52677 0.01808 0.71063 0.0
C531 C 0.55224 0.02271 0.71014 0.0
C532 C 0.57312 0.04691 0.72696 0.0
C533 C 0.56817 0.06674 0.74359 0.0
H534 H 0.52683 0.56366 0.28619 0.0
H535 H 0.49951 0.61658 0.24204 0.0
H536 H 0.45457 0.57971 0.23858 0.0
H537 H 0.48276 0.51032 0.20313 0.0
H538 H 0.47842 0.48591 0.25101 0.0
H539 H 0.5084 0.51643 0.24924 0.0
H540 H 0.503 0.52382 0.3487 0.0
H541 H 0.47299 0.49335 0.35077 0.0
H542 H 0.47368 0.52283 0.37054 0.0
H543 H 0.41262 0.53711 0.24103 0.0
H544 H 0.37668 0.49194 0.24895 0.0
H545 H 0.43166 0.46706 0.29174 0.0
C546 C 0.51144 0.56755 0.27564 0.0
C547 C 0.51668 0.59302 0.26437 0.0
C548 C 0.49595 0.59722 0.25081 0.0
C549 C 0.47038 0.57641 0.24873 0.0
C550 C 0.46591 0.55157 0.26028 0.0
C551 C 0.48586 0.54705 0.2734 0.0
C552 C 0.47587 0.51856 0.2845 0.0
C553 C 0.48702 0.50714 0.24458 0.0
C554 C 0.48173 0.51441 0.34205 0.0
C555 C 0.44713 0.50774 0.27582 0.0
C556 C 0.44178 0.52708 0.26178 0.0
C557 C 0.41658 0.5218 0.25193 0.0
C558 C 0.39629 0.49607 0.25656 0.0
C559 C 0.40133 0.47593 0.27099 0.0
C560 C 0.42714 0.48197 0.28066 0.0
H561 H 0.93419 0.52215 0.77634 0.0
H562 H 0.88456 0.50451 0.63785 0.0
H563 H 0.88144 0.46159 0.63099 0.0
H564 H 0.96934 0.49105 0.73048 0.0
H565 H 0.97111 0.47925 0.79543 0.0
H566 H 0.96966 0.50868 0.78894 0.0
H567 H 0.92927 0.48942 0.85006 0.0
H568 H 0.93057 0.45991 0.85666 0.0
H569 H 0.90132 0.45865 0.83327 0.0
H570 H 0.88305 0.42035 0.64037 0.0
H571 H 0.88981 0.3839 0.66431 0.0
H572 H 0.93867 0.42879 0.79636 0.0
C573 C 0.92271 0.50932 0.74445 0.0
C574 C 0.90959 0.51667 0.70763 0.0
C575 C 0.89478 0.4993 0.6665 0.0
C576 C 0.89289 0.47488 0.66228 0.0
C577 C 0.90596 0.46822 0.69941 0.0
C578 C 0.92064 0.48495 0.7396 0.0
C579 C 0.93268 0.47305 0.77458 0.0
C580 C 0.96246 0.48895 0.77218 0.0
C581 C 0.92286 0.47008 0.83204 0.0
C582 C 0.92238 0.44693 0.7479 0.0
C583 C 0.90701 0.44453 0.70464 0.0
C584 C 0.8951 0.42202 0.67407 0.0
C585 C 0.89904 0.40142 0.68807 0.0
C586 C 0.91479 0.4035 0.73221 0.0
C587 C 0.92658 0.42661 0.76234 0.0
H588 H 0.43209 0.95309 0.19768 0.0
H589 H 0.3773 0.87883 0.26759 0.0
H590 H 0.41274 0.86911 0.28135 0.0
H591 H 0.47219 0.93185 0.13044 0.0
H592 H 0.50187 0.96161 0.1443 0.0
H593 H 0.47188 0.96188 0.13728 0.0
H594 H 0.47879 0.98312 0.23018 0.0
H595 H 0.50873 0.98282 0.23758 0.0
H596 H 0.48364 0.96748 0.28689 0.0
H597 H 0.45469 0.8681 0.28934 0.0
H598 H 0.49975 0.87635 0.29248 0.0
H599 H 0.52668 0.95177 0.21954 0.0
C600 C 0.42744 0.93463 0.21529 0.0
C601 C 0.4019 0.91665 0.23129 0.0
C602 C 0.39673 0.89288 0.25492 0.0
C603 C 0.41672 0.88717 0.26283 0.0
C604 C 0.44175 0.90548 0.2471 0.0
C605 C 0.44715 0.92873 0.22388 0.0
C606 C 0.4758 0.94559 0.21251 0.0
C607 C 0.48071 0.95051 0.15257 0.0
C608 C 0.48741 0.97126 0.24366 0.0
C609 C 0.48573 0.92827 0.23322 0.0
C610 C 0.46583 0.90513 0.25269 0.0
C611 C 0.47042 0.88614 0.27412 0.0
C612 C 0.49606 0.891 0.27574 0.0
C613 C 0.51674 0.91472 0.25641 0.0
C614 C 0.51135 0.93347 0.23483 0.0
H615 H 0.5633 0.50377 0.82184 0.0
H616 H 0.60688 0.5062 0.6817 0.0
H617 H 0.57059 0.46389 0.65307 0.0
H618 H 0.53431 0.43494 0.84567 0.0
H619 H 0.50376 0.43123 0.86712 0.0
H620 H 0.53325 0.4617 0.87676 0.0
H621 H 0.51342 0.48553 0.8255 0.0
H622 H 0.48389 0.45513 0.81567 0.0
H623 H 0.50097 0.47506 0.75934 0.0
H624 H 0.52927 0.4218 0.63861 0.0
H625 H 0.48603 0.38231 0.64053 0.0
H626 H 0.46984 0.40713 0.79075 0.0
C627 C 0.56525 0.4954 0.78518 0.0
C628 C 0.58793 0.50831 0.75402 0.0
C629 C 0.58971 0.49666 0.70632 0.0
C630 C 0.5692 0.47264 0.68965 0.0
C631 C 0.54711 0.46048 0.72122 0.0
C632 C 0.54503 0.47139 0.76805 0.0
C633 C 0.51916 0.45429 0.79464 0.0
C634 C 0.52285 0.44499 0.84928 0.0
C635 C 0.50344 0.46835 0.79902 0.0
C636 C 0.507 0.43212 0.7553 0.0
C637 C 0.52341 0.43608 0.71318 0.0
C638 C 0.51627 0.41842 0.67148 0.0
C639 C 0.49167 0.39608 0.6729 0.0
C640 C 0.4746 0.3916 0.71583 0.0
C641 C 0.48249 0.40991 0.7575 0.0
H642 H 0.12893 0.36819 0.22002 0.0
H643 H 0.15376 0.44386 0.28972 0.0
H644 H 0.19668 0.44883 0.30893 0.0
H645 H 0.16341 0.34857 0.31129 0.0
H646 H 0.17172 0.3327 0.2604 0.0
H647 H 0.14246 0.33447 0.25456 0.0
H648 H 0.15736 0.35641 0.1624 0.0
H649 H 0.18661 0.35465 0.1679 0.0
H650 H 0.18853 0.38549 0.15616 0.0
H651 H 0.23715 0.44615 0.31829 0.0
H652 H 0.27307 0.43675 0.31406 0.0
H653 H 0.22198 0.36308 0.23715 0.0
C654 C 0.14331 0.38572 0.2397 0.0
C655 C 0.13798 0.40561 0.25351 0.0
C656 C 0.15742 0.42837 0.27875 0.0
C657 C 0.18182 0.43134 0.29 0.0
C658 C 0.18646 0.4114 0.27571 0.0
C659 C 0.1678 0.38907 0.25098 0.0
C660 C 0.17811 0.37105 0.23777 0.0
C661 C 0.16303 0.34517 0.26781 0.0
C662 C 0.17763 0.36666 0.17748 0.0
C663 C 0.20558 0.38688 0.2584 0.0
C664 C 0.20992 0.40998 0.28055 0.0
C665 C 0.23397 0.42808 0.30124 0.0
C666 C 0.25424 0.42255 0.29866 0.0
C667 C 0.25034 0.39918 0.27526 0.0
C668 C 0.22557 0.38106 0.25543 0.0
H669 H 0.85285 0.22458 0.77642 0.0
H670 H 0.82734 0.27929 0.73497 0.0
H671 H 0.78189 0.24387 0.73704 0.0
H672 H 0.80632 0.17203 0.69785 0.0
H673 H 0.80151 0.14729 0.74532 0.0
H674 H 0.83212 0.17712 0.74263 0.0
H675 H 0.82822 0.18499 0.84254 0.0
H676 H 0.79758 0.15516 0.84554 0.0
H677 H 0.79975 0.18523 0.86607 0.0
H678 H 0.73939 0.20263 0.74134 0.0
H679 H 0.70245 0.15789 0.74686 0.0
H680 H 0.75548 0.12992 0.78522 0.0
C681 C 0.83771 0.22914 0.76804 0.0
C682 C 0.84368 0.25471 0.75556 0.0
C683 C 0.82328 0.25985 0.74464 0.0
C684 C 0.79737 0.23987 0.74578 0.0
C685 C 0.79217 0.21489 0.75799 0.0
C686 C 0.81171 0.20942 0.76896 0.0
C687 C 0.80081 0.18076 0.77981 0.0
C688 C 0.81078 0.16859 0.73895 0.0
C689 C 0.80696 0.17628 0.83689 0.0
C690 C 0.77214 0.17098 0.7726 0.0
C691 C 0.76758 0.19101 0.76032 0.0
C692 C 0.74268 0.18677 0.75112 0.0
C693 C 0.72183 0.16129 0.75433 0.0
C694 C 0.72607 0.14041 0.76647 0.0
C695 C 0.75158 0.14545 0.77595 0.0
H696 H 0.57824 0.73632 0.25007 0.0
H697 H 0.66049 0.76421 0.23045 0.0
H698 H 0.66872 0.80913 0.22312 0.0
H699 H 0.5745 0.78272 0.15987 0.0
H700 H 0.55176 0.78616 0.2014 0.0
H701 H 0.55212 0.75601 0.20087 0.0
H702 H 0.55846 0.75883 0.30299 0.0
H703 H 0.5582 0.78898 0.30382 0.0
H704 H 0.5853 0.78742 0.33174 0.0
H705 H 0.6683 0.85108 0.22293 0.0
H706 H 0.65939 0.88726 0.23091 0.0
H707 H 0.57743 0.83193 0.25163 0.0
C708 C 0.59795 0.75181 0.24349 0.0
C709 C 0.61873 0.74676 0.24067 0.0
C710 C 0.64427 0.76762 0.23269 0.0
C711 C 0.64913 0.79319 0.22834 0.0
C712 C 0.62824 0.79752 0.232 0.0
C713 C 0.60315 0.77743 0.23931 0.0
C714 C 0.58434 0.78743 0.24464 0.0
C715 C 0.56451 0.77749 0.19896 0.0
C716 C 0.57079 0.78024 0.29903 0.0
C717 C 0.60283 0.81635 0.24011 0.0
C718 C 0.62803 0.82174 0.23236 0.0
C719 C 0.64863 0.8471 0.22861 0.0
C720 C 0.64336 0.86752 0.23328 0.0
C721 C 0.61771 0.86243 0.24188 0.0
C722 C 0.59722 0.83646 0.24484 0.0
H723 H 0.86499 0.63694 0.76949 0.0
H724 H 0.83987 0.55488 0.75463 0.0
H725 H 0.79435 0.54465 0.75129 0.0
H726 H 0.81246 0.62877 0.85366 0.0
H727 H 0.80988 0.65484 0.82312 0.0
H728 H 0.84062 0.65582 0.82431 0.0
H729 H 0.84365 0.6608 0.72191 0.0
H730 H 0.81288 0.65974 0.72039 0.0
H731 H 0.81763 0.63708 0.68127 0.0
H732 H 0.75189 0.5432 0.74825 0.0
H733 H 0.7146 0.55043 0.74863 0.0
H734 H 0.76701 0.6334 0.7665 0.0
C735 C 0.84992 0.61682 0.76562 0.0
C736 C 0.85599 0.59672 0.76228 0.0
C737 C 0.8357 0.57062 0.75734 0.0
C738 C 0.80978 0.56459 0.7553 0.0
C739 C 0.80448 0.58486 0.75843 0.0
C740 C 0.82391 0.61043 0.76371 0.0
C741 C 0.81284 0.62847 0.76657 0.0
C742 C 0.81933 0.64282 0.8201 0.0
C743 C 0.82231 0.64765 0.71974 0.0
C744 C 0.78416 0.60902 0.76195 0.0
C745 C 0.77983 0.584 0.75714 0.0
C746 C 0.75499 0.56269 0.7521 0.0
C747 C 0.73395 0.56703 0.75229 0.0
C748 C 0.73788 0.59249 0.75766 0.0
C749 C 0.76337 0.61372 0.76238 0.0
H750 H 0.26149 0.84254 0.26511 0.0
H751 H 0.23675 0.89851 0.29903 0.0
H752 H 0.19163 0.86272 0.30861 0.0
H753 H 0.20748 0.80055 0.18661 0.0
H754 H 0.20576 0.77113 0.21055 0.0
H755 H 0.23636 0.801 0.20993 0.0
H756 H 0.24198 0.79607 0.31061 0.0
H757 H 0.21138 0.76613 0.31152 0.0
H758 H 0.21689 0.79213 0.35605 0.0
H759 H 0.14904 0.82116 0.30993 0.0
H760 H 0.11182 0.77663 0.30285 0.0
H761 H 0.16448 0.7479 0.26802 0.0
C762 C 0.24665 0.84728 0.27513 0.0
C763 C 0.25264 0.87331 0.28141 0.0
C764 C 0.23262 0.8787 0.29408 0.0
C765 C 0.20694 0.85851 0.2997 0.0
C766 C 0.20167 0.83309 0.29269 0.0
C767 C 0.22095 0.8274 0.28082 0.0
C768 C 0.20999 0.79852 0.27325 0.0
C769 C 0.2152 0.79246 0.21672 0.0
C770 C 0.2207 0.78757 0.31538 0.0
C771 C 0.18146 0.7889 0.28189 0.0
C772 C 0.17709 0.80912 0.29338 0.0
C773 C 0.15221 0.80513 0.30134 0.0
C774 C 0.13121 0.77977 0.29714 0.0
C775 C 0.13524 0.75878 0.28496 0.0
C776 C 0.16076 0.76349 0.27768 0.0
H777 H 0.40946 0.25539 0.65681 0.0
H778 H 0.40928 0.2691 0.82612 0.0
H779 H 0.41451 0.23121 0.84458 0.0
H780 H 0.3726 0.18651 0.66355 0.0
H781 H 0.39039 0.18134 0.61175 0.0
H782 H 0.38796 0.21034 0.61175 0.0
H783 H 0.4381 0.2385 0.6098 0.0
H784 H 0.44068 0.20955 0.60996 0.0
H785 H 0.457 0.23397 0.6603 0.0
H786 H 0.41821 0.19112 0.84494 0.0
H787 H 0.41895 0.15069 0.82712 0.0
H788 H 0.4167 0.16303 0.65763 0.0
C789 C 0.41069 0.25055 0.69776 0.0
C790 C 0.409 0.26525 0.74 0.0
C791 C 0.41052 0.25813 0.79307 0.0
C792 C 0.41357 0.23669 0.804 0.0
C793 C 0.41511 0.22259 0.76146 0.0
C794 C 0.41368 0.22917 0.70942 0.0
C795 C 0.4149 0.2102 0.67108 0.0
C796 C 0.38998 0.19628 0.63758 0.0
C797 C 0.43912 0.22388 0.63571 0.0
C798 C 0.41692 0.19177 0.70977 0.0
C799 C 0.41718 0.19938 0.76168 0.0
C800 C 0.41817 0.18503 0.80446 0.0
C801 C 0.41857 0.16209 0.79391 0.0
C802 C 0.41793 0.15371 0.74099 0.0
C803 C 0.4174 0.16899 0.6985 0.0
loop_
_geom_bond_atom_site_label_1
_geom_bond_atom_site_label_2
_geom_bond_distance
_geom_bond_site_symmetry_2
_ccdc_geom_bond_type
C0 O1 1.160 . S
C0 O7 1.185 . S
O1 C0 1.160 . S
O2 Zn3 1.899 . S
O2 C10 1.284 . S
Zn3 O2 1.899 . S
Zn3 O4 2.032 . S
Zn3 O7 2.086 . S
Zn3 O12 1.977 . S
O4 Zn3 2.032 . S
O4 C8 1.278 . S
C5 O6 1.203 . S
C5 O12 1.267 . S
O6 C5 1.203 . S
O7 C0 1.185 . S
O7 Zn3 2.086 . S
C8 O4 1.278 . S
C8 O9 1.211 . S
O9 C8 1.211 . S
C10 O2 1.284 . S
C10 O11 1.273 . S
O11 C10 1.273 . S
O12 Zn3 1.977 . S
O12 C5 1.267 . S
C13 O14 1.160 . S
C13 O20 1.185 . S
O14 C13 1.160 . S
O15 Zn16 1.899 . S
O15 C23 1.284 . S
Zn16 O15 1.899 . S
Zn16 O17 2.032 . S
Zn16 O20 2.086 . S
Zn16 O25 1.977 . S
O17 Zn16 2.032 . S
O17 C21 1.278 . S
C18 O19 1.203 . S
C18 O25 1.267 . S
O19 C18 1.203 . S
O20 C13 1.185 . S
O20 Zn16 2.086 . S
C21 O17 1.278 . S
C21 O22 1.211 . S
O22 C21 1.211 . S
C23 O15 1.284 . S
C23 O24 1.273 . S
O24 C23 1.273 . S
O25 Zn16 1.977 . S
O25 C18 1.267 . S
C26 O27 1.160 . S
C26 O33 1.185 . S
O27 C26 1.160 . S
O28 Zn29 1.899 . S
O28 C36 1.284 . S
Zn29 O28 1.899 . S
Zn29 O30 2.032 . S
Zn29 O33 2.086 . S
Zn29 O38 1.977 . S
O30 Zn29 2.032 . S
O30 C34 1.278 . S
C31 O32 1.203 . S
C31 O38 1.267 . S
O32 C31 1.203 . S
O33 C26 1.185 . S
O33 Zn29 2.086 . S
C34 O30 1.278 . S
C34 O35 1.211 . S
O35 C34 1.211 . S
C36 O28 1.284 . S
C36 O37 1.273 . S
O37 C36 1.273 . S
O38 Zn29 1.977 . S
O38 C31 1.267 . S
C39 O40 1.160 . S
C39 O46 1.185 . S
O40 C39 1.160 . S
O41 Zn42 1.899 . S
O41 C49 1.284 . S
Zn42 O41 1.899 . S
Zn42 O43 2.032 . S
Zn42 O46 2.086 . S
Zn42 O51 1.977 . S
O43 Zn42 2.032 . S
O43 C47 1.278 . S
C44 O45 1.203 . S
C44 O51 1.267 . S
O45 C44 1.203 . S
O46 C39 1.185 . S
O46 Zn42 2.086 . S
C47 O43 1.278 . S
C47 O48 1.211 . S
O48 C47 1.211 . S
C49 O41 1.284 . S
C49 O50 1.273 . S
O50 C49 1.273 . S
O51 Zn42 1.977 . S
O51 C44 1.267 . S
C52 O53 1.160 . S
C52 O59 1.185 . S
O53 C52 1.160 . S
O54 Zn55 1.899 . S
O54 C62 1.284 . S
Zn55 O54 1.899 . S
Zn55 O56 2.032 . S
Zn55 O59 2.086 . S
Zn55 O64 1.977 . S
O56 Zn55 2.032 . S
O56 C60 1.278 . S
C57 O58 1.203 . S
C57 O64 1.267 . S
O58 C57 1.203 . S
O59 C52 1.185 . S
O59 Zn55 2.086 . S
C60 O56 1.278 . S
C60 O61 1.211 . S
O61 C60 1.211 . S
C62 O54 1.284 . S
C62 O63 1.273 . S
O63 C62 1.273 . S
O64 Zn55 1.977 . S
O64 C57 1.267 . S
C65 O66 1.160 . S
C65 O72 1.185 . S
O66 C65 1.160 . S
O67 Zn68 1.899 . S
O67 C75 1.284 . S
Zn68 O67 1.899 . S
Zn68 O69 2.032 . S
Zn68 O72 2.086 . S
Zn68 O77 1.977 . S
O69 Zn68 2.032 . S
O69 C73 1.278 . S
C70 O71 1.203 . S
C70 O77 1.267 . S
O71 C70 1.203 . S
O72 C65 1.185 . S
O72 Zn68 2.086 . S
C73 O69 1.278 . S
C73 O74 1.211 . S
O74 C73 1.211 . S
C75 O67 1.284 . S
C75 O76 1.273 . S
O76 C75 1.273 . S
O77 Zn68 1.977 . S
O77 C70 1.267 . S
C78 O79 1.160 . S
C78 O85 1.185 . S
O79 C78 1.160 . S
O80 Zn81 1.899 . S
O80 C88 1.284 . S
Zn81 O80 1.899 . S
Zn81 O82 2.032 . S
Zn81 O85 2.086 . S
Zn81 O90 1.977 . S
O82 Zn81 2.032 . S
O82 C86 1.278 . S
C83 O84 1.203 . S
C83 O90 1.267 . S
O84 C83 1.203 . S
O85 C78 1.185 . S
O85 Zn81 2.086 . S
C86 O82 1.278 . S
C86 O87 1.211 . S
O87 C86 1.211 . S
C88 O80 1.284 . S
C88 O89 1.273 . S
O89 C88 1.273 . S
O90 Zn81 1.977 . S
O90 C83 1.267 . S
C91 O92 1.160 . S
C91 O98 1.185 . S
O92 C91 1.160 . S
O93 Zn94 1.899 . S
O93 C101 1.284 . S
Zn94 O93 1.899 . S
Zn94 O95 2.032 . S
Zn94 O98 2.086 . S
Zn94 O103 1.977 . S
O95 Zn94 2.032 . S
O95 C99 1.278 . S
C96 O97 1.203 . S
C96 O103 1.267 . S
O97 C96 1.203 . S
O98 C91 1.185 . S
O98 Zn94 2.086 . S
C99 O95 1.278 . S
C99 O100 1.211 . S
O100 C99 1.211 . S
C101 O93 1.284 . S
C101 O102 1.273 . S
O102 C101 1.273 . S
O103 Zn94 1.977 . S
O103 C96 1.267 . S
C104 O105 1.160 . S
C104 O111 1.185 . S
O105 C104 1.160 . S
O106 Zn107 1.899 . S
O106 C114 1.284 . S
Zn107 O106 1.899 . S
Zn107 O108 2.032 . S
Zn107 O111 2.086 . S
Zn107 O116 1.977 . S
O108 Zn107 2.032 . S
O108 C112 1.278 . S
C109 O110 1.203 . S
C109 O116 1.267 . S
O110 C109 1.203 . S
O111 C104 1.185 . S
O111 Zn107 2.086 . S
C112 O108 1.278 . S
C112 O113 1.211 . S
O113 C112 1.211 . S
C114 O106 1.284 . S
C114 O115 1.273 . S
O115 C114 1.273 . S
O116 Zn107 1.977 . S
O116 C109 1.267 . S
C117 O118 1.160 . S
C117 O124 1.185 . S
O118 C117 1.160 . S
O119 Zn120 1.899 . S
O119 C127 1.284 . S
Zn120 O119 1.899 . S
Zn120 O121 2.032 . S
Zn120 O124 2.086 . S
Zn120 O129 1.977 . S
O121 Zn120 2.032 . S
O121 C125 1.278 . S
C122 O123 1.203 . S
C122 O129 1.267 . S
O123 C122 1.203 . S
O124 C117 1.185 . S
O124 Zn120 2.086 . S
C125 O121 1.278 . S
C125 O126 1.211 . S
O126 C125 1.211 . S
C127 O119 1.284 . S
C127 O128 1.273 . S
O128 C127 1.273 . S
O129 Zn120 1.977 . S
O129 C122 1.267 . S
C130 O131 1.160 . S
C130 O137 1.185 . S
O131 C130 1.160 . S
O132 Zn133 1.899 . S
O132 C140 1.284 . S
Zn133 O132 1.899 . S
Zn133 O134 2.032 . S
Zn133 O137 2.086 . S
Zn133 O142 1.977 . S
O134 Zn133 2.032 . S
O134 C138 1.278 . S
C135 O136 1.203 . S
C135 O142 1.267 . S
O136 C135 1.203 . S
O137 C130 1.185 . S
O137 Zn133 2.086 . S
C138 O134 1.278 . S
C138 O139 1.211 . S
O139 C138 1.211 . S
C140 O132 1.284 . S
C140 O141 1.273 . S
O141 C140 1.273 . S
O142 Zn133 1.977 . S
O142 C135 1.267 . S
C143 O144 1.160 . S
C143 O150 1.185 . S
O144 C143 1.160 . S
O145 Zn146 1.899 . S
O145 C153 1.284 . S
Zn146 O145 1.899 . S
Zn146 O147 2.032 . S
Zn146 O150 2.086 . S
Zn146 O155 1.977 . S
O147 Zn146 2.032 . S
O147 C151 1.278 . S
C148 O149 1.203 . S
C148 O155 1.267 . S
O149 C148 1.203 . S
O150 C143 1.185 . S
O150 Zn146 2.086 . S
C151 O147 1.278 . S
C151 O152 1.211 . S
O152 C151 1.211 . S
C153 O145 1.284 . S
C153 O154 1.273 . S
O154 C153 1.273 . S
O155 Zn146 1.977 . S
O155 C148 1.267 . S
H156 C168 0.930 . S
H157 C170 0.930 . S
H158 C171 0.930 . S
H159 C175 0.959 . S
H160 C175 0.959 . S
H161 C175 0.961 . S
H162 C176 0.960 . S
H163 C176 0.961 1_556 S
H164 C176 0.959 1_456 S
H165 C179 0.929 . S
H166 C180 0.931 . S
H167 C182 0.930 . S
C168 H156 0.930 . S
C168 C169 1.399 . S
C168 C173 1.399 . S
C169 C168 1.399 . S
C169 C170 1.376 . S
C170 H157 0.930 . S
C170 C169 1.376 . S
C170 C171 1.388 . S
C171 H158 0.930 . S
C171 C170 1.388 . S
C171 C172 1.390 . S
C172 C171 1.390 . S
C172 C173 1.394 . S
C172 C178 1.465 1_554 S
C173 C168 1.399 . S
C173 C172 1.394 . S
C173 C174 1.516 1_455 S
C174 C173 1.516 1_655 S
C174 C175 1.502 . S
C174 C176 1.561 . S
C174 C177 1.526 1_554 S
C175 H159 0.959 . S
C175 H160 0.959 . S
C175 H161 0.961 . S
C175 C174 1.502 . S
C176 H162 0.960 . S
C176 H163 0.961 1_554 S
C176 H164 0.959 1_654 S
C176 C174 1.561 . S
C177 C174 1.526 1_556 S
C177 C178 1.396 1_655 S
C177 C182 1.390 . S
C178 C172 1.465 1_556 S
C178 C177 1.396 1_455 S
C178 C179 1.399 . S
C179 H165 0.929 . S
C179 C178 1.399 . S
C179 C180 1.385 1_455 S
C180 H166 0.931 . S
C180 C179 1.385 1_655 S
C180 C181 1.389 . S
C181 C180 1.389 . S
C181 C182 1.387 . S
C182 H167 0.930 . S
C182 C177 1.390 . S
C182 C181 1.387 . S
H183 C195 0.930 . S
H184 C197 0.930 . S
H185 C198 0.930 . S
H186 C202 0.959 1_565 S
H187 C202 0.959 . S
H188 C202 0.961 . S
H189 C203 0.960 . S
H190 C203 0.961 . S
H191 C203 0.959 . S
H192 C206 0.929 1_565 S
H193 C207 0.931 . S
H194 C209 0.930 . S
C195 H183 0.930 . S
C195 C196 1.399 . S
C195 C200 1.399 . S
C196 C195 1.399 . S
C196 C197 1.376 . S
C197 H184 0.930 . S
C197 C196 1.376 . S
C197 C198 1.388 . S
C198 H185 0.930 . S
C198 C197 1.388 . S
C198 C199 1.390 . S
C199 C198 1.390 . S
C199 C200 1.394 . S
C199 C205 1.465 1_565 S
C200 C195 1.399 . S
C200 C199 1.394 . S
C200 C201 1.516 1_565 S
C201 C200 1.516 1_545 S
C201 C202 1.502 . S
C201 C203 1.561 . S
C201 C204 1.526 . S
C202 H186 0.959 1_545 S
C202 H187 0.959 . S
C202 H188 0.961 . S
C202 C201 1.502 . S
C203 H189 0.960 . S
C203 H190 0.961 . S
C203 H191 0.959 . S
C203 C201 1.561 . S
C204 C201 1.526 . S
C204 C205 1.396 . S
C204 C209 1.390 . S
C205 C199 1.465 1_545 S
C205 C204 1.396 . S
C205 C206 1.399 . S
C206 H192 0.929 1_545 S
C206 C205 1.399 . S
C206 C207 1.385 . S
C207 H193 0.931 . S
C207 C206 1.385 . S
C207 C208 1.389 . S
C208 C207 1.389 . S
C208 C209 1.387 . S
C209 H194 0.930 . S
C209 C204 1.390 . S
C209 C208 1.387 . S
H210 C222 0.930 . S
H211 C224 0.930 . S
H212 C225 0.930 . S
H213 C229 0.959 . S
H214 C229 0.959 . S
H215 C229 0.961 . S
H216 C230 0.960 1_554 S
H217 C230 0.961 . S
H218 C230 0.959 1_554 S
H219 C233 0.929 . S
H220 C234 0.931 . S
H221 C236 0.930 . S
C222 H210 0.930 . S
C222 C223 1.399 . S
C222 C227 1.399 . S
C223 C222 1.399 . S
C223 C224 1.376 . S
C224 H211 0.930 . S
C224 C223 1.376 . S
C224 C225 1.388 . S
C225 H212 0.930 . S
C225 C224 1.388 . S
C225 C226 1.390 . S
C226 C225 1.390 . S
C226 C227 1.394 . S
C226 C232 1.465 1_554 S
C227 C222 1.399 . S
C227 C226 1.394 . S
C227 C228 1.516 1_554 S
C228 C227 1.516 1_556 S
C228 C229 1.502 . S
C228 C230 1.561 . S
C228 C231 1.526 . S
C229 H213 0.959 . S
C229 H214 0.959 . S
C229 H215 0.961 . S
C229 C228 1.502 . S
C230 H216 0.960 1_556 S
C230 H217 0.961 . S
C230 H218 0.959 1_556 S
C230 C228 1.561 . S
C231 C228 1.526 . S
C231 C232 1.396 . S
C231 C236 1.390 . S
C232 C226 1.465 1_556 S
C232 C231 1.396 . S
C232 C233 1.399 . S
C233 H219 0.929 . S
C233 C232 1.399 . S
C233 C234 1.385 . S
C234 H220 0.931 . S
C234 C233 1.385 . S
C234 C235 1.389 . S
C235 C234 1.389 . S
C235 C236 1.387 . S
C236 H221 0.930 . S
C236 C231 1.390 . S
C236 C235 1.387 . S
H237 C249 0.930 . S
H238 C251 0.930 . S
H239 C252 0.930 . S
H240 C256 0.959 . S
H241 C256 0.959 . S
H242 C256 0.950 1_455 S
H243 C257 0.960 . S
H244 C257 0.961 . S
H245 C257 0.959 . S
H246 C260 0.929 . S
H247 C261 0.931 . S
H248 C263 0.930 . S
C249 H237 0.930 . S
C249 C250 1.399 . S
C249 C254 1.399 . S
C250 C249 1.399 . S
C250 C251 1.376 . S
C251 H238 0.930 . S
C251 C250 1.376 . S
C251 C252 1.388 . S
C252 H239 0.930 . S
C252 C251 1.388 . S
C252 C253 1.390 . S
C253 C252 1.390 . S
C253 C254 1.394 . S
C253 C259 1.465 1_455 S
C254 C249 1.399 . S
C254 C253 1.394 . S
C254 C255 1.516 . S
C255 C254 1.516 . S
C255 C256 1.502 1_455 S
C255 C257 1.561 . S
C255 C258 1.526 1_455 S
C256 H240 0.959 . S
C256 H241 0.959 . S
C256 H242 0.950 1_655 S
C256 C255 1.502 1_655 S
C257 H243 0.960 . S
C257 H244 0.961 . S
C257 H245 0.959 . S
C257 C255 1.561 . S
C258 C255 1.526 1_655 S
C258 C259 1.396 . S
C258 C263 1.390 . S
C259 C253 1.465 1_655 S
C259 C258 1.396 . S
C259 C260 1.399 . S
C260 H246 0.929 . S
C260 C259 1.399 . S
C260 C261 1.385 . S
C261 H247 0.931 . S
C261 C260 1.385 . S
C261 C262 1.389 . S
C262 C261 1.389 . S
C262 C263 1.387 . S
C263 H248 0.930 . S
C263 C258 1.390 . S
C263 C262 1.387 . S
H264 C276 0.930 . S
H265 C278 0.931 . S
H266 C279 0.930 . S
H267 C283 0.959 . S
H268 C283 0.959 . S
H269 C283 0.961 . S
H270 C284 0.960 . S
H271 C284 0.961 . S
H272 C284 0.959 . S
H273 C287 0.929 . S
H274 C288 0.931 . S
H275 C290 0.930 1_545 S
C276 H264 0.930 . S
C276 C277 1.399 . S
C276 C281 1.399 . S
C277 C276 1.399 . S
C277 C278 1.376 . S
C278 H265 0.931 . S
C278 C277 1.376 . S
C278 C279 1.388 1_545 S
C279 H266 0.930 . S
C279 C278 1.388 1_565 S
C279 C280 1.390 . S
C280 C279 1.390 . S
C280 C281 1.394 1_565 S
C280 C286 1.465 1_556 S
C281 C276 1.399 . S
C281 C280 1.394 1_545 S
C281 C282 1.516 1_556 S
C282 C281 1.516 1_554 S
C282 C283 1.502 . S
C282 C284 1.561 . S
C282 C285 1.530 1_545 S
C283 H267 0.959 . S
C283 H268 0.959 . S
C283 H269 0.961 . S
C283 C282 1.502 . S
C284 H270 0.960 . S
C284 H271 0.961 . S
C284 H272 0.959 . S
C284 C282 1.561 . S
C285 C282 1.530 1_565 S
C285 C286 1.394 . S
C285 C290 1.388 . S
C286 C280 1.465 1_554 S
C286 C285 1.394 . S
C286 C287 1.399 . S
C287 H273 0.929 . S
C287 C286 1.399 . S
C287 C288 1.385 . S
C288 H274 0.931 . S
C288 C287 1.385 . S
C288 C289 1.389 . S
C289 C288 1.389 . S
C289 C290 1.387 . S
C290 H275 0.930 1_565 S
C290 C285 1.388 . S
C290 C289 1.387 . S
H291 C303 0.930 . S
H292 C305 0.930 . S
H293 C306 0.930 . S
H294 C310 0.959 . S
H295 C310 0.959 . S
H296 C310 0.961 . S
H297 C311 0.960 . S
H298 C311 0.961 . S
H299 C311 0.959 . S
H300 C314 0.929 . S
H301 C315 0.931 . S
H302 C317 0.930 . S
C303 H291 0.930 . S
C303 C304 1.399 . S
C303 C308 1.399 . S
C304 C303 1.399 . S
C304 C305 1.376 . S
C305 H292 0.930 . S
C305 C304 1.376 . S
C305 C306 1.388 . S
C306 H293 0.930 . S
C306 C305 1.388 . S
C306 C307 1.390 . S
C307 C306 1.390 . S
C307 C308 1.394 . S
C307 C313 1.465 . S
C308 C303 1.399 . S
C308 C307 1.394 . S
C308 C309 1.516 . S
C309 C308 1.516 . S
C309 C310 1.502 . S
C309 C311 1.561 . S
C309 C312 1.526 . S
C310 H294 0.959 . S
C310 H295 0.959 . S
C310 H296 0.961 . S
C310 C309 1.502 . S
C311 H297 0.960 . S
C311 H298 0.961 . S
C311 H299 0.959 . S
C311 C309 1.561 . S
C312 C309 1.526 . S
C312 C313 1.396 . S
C312 C317 1.390 . S
C313 C307 1.465 . S
C313 C312 1.396 . S
C313 C314 1.399 . S
C314 H300 0.929 . S
C314 C313 1.399 . S
C314 C315 1.385 . S
C315 H301 0.931 . S
C315 C314 1.385 . S
C315 C316 1.389 . S
C316 C315 1.389 . S
C316 C317 1.387 . S
C317 H302 0.930 . S
C317 C312 1.390 . S
C317 C316 1.387 . S
H318 C330 0.930 . S
H319 C332 0.930 1_455 S
H320 C333 0.930 . S
H321 C337 0.959 . S
H322 C337 0.959 . S
H323 C337 0.961 . S
H324 C338 0.960 . S
H325 C338 0.961 . S
H326 C338 0.959 . S
H327 C341 0.929 1_556 S
H328 C342 0.931 . S
H329 C344 0.930 1_655 S
C330 H318 0.930 . S
C330 C331 1.399 . S
C330 C335 1.399 . S
C331 C330 1.399 . S
C331 C332 1.376 . S
C332 H319 0.930 1_655 S
C332 C331 1.376 . S
C332 C333 1.388 1_655 S
C333 H320 0.930 . S
C333 C332 1.388 1_455 S
C333 C334 1.390 . S
C334 C333 1.390 . S
C334 C335 1.394 1_455 S
C334 C340 1.465 1_556 S
C335 C330 1.399 . S
C335 C334 1.394 1_655 S
C335 C336 1.516 1_556 S
C336 C335 1.516 1_554 S
C336 C337 1.502 . S
C336 C338 1.561 . S
C336 C339 1.509 1_655 S
C337 H321 0.959 . S
C337 H322 0.959 . S
C337 H323 0.961 . S
C337 C336 1.502 . S
C338 H324 0.960 . S
C338 H325 0.961 . S
C338 H326 0.959 . S
C338 C336 1.561 . S
C339 C336 1.509 1_455 S
C339 C340 1.409 . S
C339 C344 1.395 . S
C340 C334 1.465 1_554 S
C340 C339 1.409 . S
C340 C341 1.399 . S
C341 H327 0.929 1_554 S
C341 C340 1.399 . S
C341 C342 1.385 . S
C342 H328 0.931 . S
C342 C341 1.385 . S
C342 C343 1.389 . S
C343 C342 1.389 . S
C343 C344 1.387 . S
C344 H329 0.930 1_455 S
C344 C339 1.395 . S
C344 C343 1.387 . S
H345 C357 0.930 . S
H346 C359 0.930 . S
H347 C360 0.930 1_545 S
H348 C364 0.959 1_545 S
H349 C364 0.959 . S
H350 C364 0.961 . S
H351 C365 0.960 . S
H352 C365 0.961 . S
H353 C365 0.959 . S
H354 C368 0.929 . S
H355 C369 0.931 . S
H356 C371 0.930 . S
C357 H345 0.930 . S
C357 C358 1.399 . S
C357 C362 1.399 . S
C358 C357 1.399 . S
C358 C359 1.376 . S
C359 H346 0.930 . S
C359 C358 1.376 . S
C359 C360 1.388 . S
C360 H347 0.930 1_565 S
C360 C359 1.388 . S
C360 C361 1.390 . S
C361 C360 1.390 . S
C361 C362 1.394 . S
C361 C367 1.465 1_565 S
C362 C357 1.399 . S
C362 C361 1.394 . S
C362 C363 1.516 . S
C363 C362 1.516 . S
C363 C364 1.502 . S
C363 C365 1.561 . S
C363 C366 1.526 1_565 S
C364 H348 0.959 1_565 S
C364 H349 0.959 . S
C364 H350 0.961 . S
C364 C363 1.502 . S
C365 H351 0.960 . S
C365 H352 0.961 . S
C365 H353 0.959 . S
C365 C363 1.561 . S
C366 C363 1.526 1_545 S
C366 C367 1.396 . S
C366 C371 1.390 . S
C367 C361 1.465 1_545 S
C367 C366 1.396 . S
C367 C368 1.399 . S
C368 H354 0.929 . S
C368 C367 1.399 . S
C368 C369 1.385 . S
C369 H355 0.931 . S
C369 C368 1.385 . S
C369 C370 1.389 . S
C370 C369 1.389 . S
C370 C371 1.387 . S
C371 H356 0.930 . S
C371 C366 1.390 . S
C371 C370 1.387 . S
H372 C384 0.930 . S
H373 C386 0.930 . S
H374 C387 0.930 . S
H375 C391 0.959 1_556 S
H376 C391 0.959 . S
H377 C391 0.961 1_556 S
H378 C392 0.960 . S
H379 C392 0.961 . S
H380 C392 0.959 . S
H381 C395 0.929 . S
H382 C396 0.931 . S
H383 C398 0.930 . S
C384 H372 0.930 . S
C384 C385 1.399 . S
C384 C389 1.399 . S
C385 C384 1.399 . S
C385 C386 1.376 . S
C386 H373 0.930 . S
C386 C385 1.376 . S
C386 C387 1.388 . S
C387 H374 0.930 . S
C387 C386 1.388 . S
C387 C388 1.390 . S
C388 C387 1.390 . S
C388 C389 1.394 . S
C388 C394 1.465 1_556 S
C389 C384 1.399 . S
C389 C388 1.394 . S
C389 C390 1.516 1_556 S
C390 C389 1.516 1_554 S
C390 C391 1.502 . S
C390 C392 1.561 . S
C390 C393 1.526 . S
C391 H375 0.959 1_554 S
C391 H376 0.959 . S
C391 H377 0.961 1_554 S
C391 C390 1.502 . S
C392 H378 0.960 . S
C392 H379 0.961 . S
C392 H380 0.959 . S
C392 C390 1.561 . S
C393 C390 1.526 . S
C393 C394 1.396 . S
C393 C398 1.390 . S
C394 C388 1.465 1_554 S
C394 C393 1.396 . S
C394 C395 1.399 . S
C395 H381 0.929 . S
C395 C394 1.399 . S
C395 C396 1.385 . S
C396 H382 0.931 . S
C396 C395 1.385 . S
C396 C397 1.389 . S
C397 C396 1.389 . S
C397 C398 1.387 . S
C398 H383 0.930 . S
C398 C393 1.390 . S
C398 C397 1.387 . S
H399 C411 0.930 . S
H400 C413 0.930 . S
H401 C414 0.930 . S
H402 C418 0.997 . S
H403 C418 0.959 . S
H404 C418 0.961 . S
H405 C419 0.960 . S
H406 C419 0.961 . S
H407 C419 0.959 . S
H408 C422 0.929 . S
H409 C423 0.931 . S
H410 C425 0.930 . S
C411 H399 0.930 . S
C411 C412 1.399 . S
C411 C416 1.399 . S
C412 C411 1.399 . S
C412 C413 1.376 . S
C413 H400 0.930 . S
C413 C412 1.376 . S
C413 C414 1.388 . S
C414 H401 0.930 . S
C414 C413 1.388 . S
C414 C415 1.390 . S
C415 C414 1.390 . S
C415 C416 1.394 . S
C415 C421 1.465 1_655 S
C416 C411 1.399 . S
C416 C415 1.394 . S
C416 C417 1.516 1_655 S
C417 C416 1.516 1_455 S
C417 C418 1.502 . S
C417 C419 1.561 . S
C417 C420 1.526 . S
C418 H402 0.997 . S
C418 H403 0.959 . S
C418 H404 0.961 . S
C418 C417 1.502 . S
C419 H405 0.960 . S
C419 H406 0.961 . S
C419 H407 0.959 . S
C419 C417 1.561 . S
C420 C417 1.526 . S
C420 C421 1.396 . S
C420 C425 1.390 . S
C421 C415 1.465 1_455 S
C421 C420 1.396 . S
C421 C422 1.399 1_455 S
C422 H408 0.929 . S
C422 C421 1.399 1_655 S
C422 C423 1.385 1_655 S
C423 H409 0.931 . S
C423 C422 1.385 1_455 S
C423 C424 1.389 . S
C424 C423 1.389 . S
C424 C425 1.387 . S
C425 H410 0.930 . S
C425 C420 1.390 . S
C425 C424 1.387 . S
H426 C438 0.930 . S
H427 C440 0.930 . S
H428 C441 0.930 . S
H429 C445 0.959 1_544 S
H430 C445 0.959 1_554 S
H431 C445 0.961 . S
H432 C446 0.960 . S
H433 C446 0.961 . S
H434 C446 0.959 . S
H435 C449 0.929 1_545 S
H436 C450 0.931 . S
H437 C452 0.930 . S
C438 H426 0.930 . S
C438 C439 1.399 . S
C438 C443 1.399 . S
C439 C438 1.399 . S
C439 C440 1.376 . S
C440 H427 0.930 . S
C440 C439 1.376 . S
C440 C441 1.388 . S
C441 H428 0.930 . S
C441 C440 1.388 . S
C441 C442 1.390 . S
C442 C441 1.390 . S
C442 C443 1.394 . S
C442 C448 1.465 1_546 S
C443 C438 1.399 . S
C443 C442 1.394 . S
C443 C444 1.516 1_545 S
C444 C443 1.516 1_565 S
C444 C445 1.502 . S
C444 C446 1.561 . S
C444 C447 1.526 1_556 S
C445 H429 0.959 1_566 S
C445 H430 0.959 1_556 S
C445 H431 0.961 . S
C445 C444 1.502 . S
C446 H432 0.960 . S
C446 H433 0.961 . S
C446 H434 0.959 . S
C446 C444 1.561 . S
C447 C444 1.526 1_554 S
C447 C448 1.396 . S
C447 C452 1.390 . S
C448 C442 1.465 1_564 S
C448 C447 1.396 . S
C448 C449 1.399 . S
C449 H435 0.929 1_565 S
C449 C448 1.399 . S
C449 C450 1.385 . S
C450 H436 0.931 . S
C450 C449 1.385 . S
C450 C451 1.389 . S
C451 C450 1.389 . S
C451 C452 1.387 . S
C452 H437 0.930 . S
C452 C447 1.390 . S
C452 C451 1.387 . S
H453 C465 0.930 . S
H454 C467 0.930 . S
H455 C468 0.930 . S
H456 C472 0.959 . S
H457 C472 0.959 . S
H458 C472 0.961 . S
H459 C473 0.960 . S
H460 C473 0.961 . S
H461 C473 0.959 . S
H462 C476 0.929 . S
H463 C477 0.931 . S
H464 C479 0.930 . S
C465 H453 0.930 . S
C465 C466 1.399 . S
C465 C470 1.399 . S
C466 C465 1.399 . S
C466 C467 1.376 . S
C467 H454 0.930 . S
C467 C466 1.376 . S
C467 C468 1.388 . S
C468 H455 0.930 . S
C468 C467 1.388 . S
C468 C469 1.390 . S
C469 C468 1.390 . S
C469 C470 1.394 . S
C469 C475 1.465 . S
C470 C465 1.399 . S
C470 C469 1.394 . S
C470 C471 1.516 . S
C471 C470 1.516 . S
C471 C472 1.502 . S
C471 C473 1.561 . S
C471 C474 1.526 . S
C472 H456 0.959 . S
C472 H457 0.959 . S
C472 H458 0.961 . S
C472 C471 1.502 . S
C473 H459 0.960 . S
C473 H460 0.961 . S
C473 H461 0.959 . S
C473 C471 1.561 . S
C474 C471 1.526 . S
C474 C475 1.396 . S
C474 C479 1.390 . S
C475 C469 1.465 . S
C475 C474 1.396 . S
C475 C476 1.399 . S
C476 H462 0.929 . S
C476 C475 1.399 . S
C476 C477 1.385 . S
C477 H463 0.931 . S
C477 C476 1.385 . S
C477 C478 1.389 . S
C478 C477 1.389 . S
C478 C479 1.387 . S
C479 H464 0.930 . S
C479 C474 1.390 . S
C479 C478 1.387 . S
H480 C492 0.930 . S
H481 C494 0.930 . S
H482 C495 0.930 . S
H483 C499 0.959 . S
H484 C499 0.959 . S
H485 C499 0.961 . S
H486 C500 0.960 . S
H487 C500 0.961 . S
H488 C500 0.959 . S
H489 C503 0.929 . S
H490 C504 0.931 . S
H491 C506 0.930 . S
C492 H480 0.930 . S
C492 C493 1.399 . S
C492 C497 1.399 . S
C493 C492 1.399 . S
C493 C494 1.376 . S
C494 H481 0.930 . S
C494 C493 1.376 . S
C494 C495 1.388 . S
C495 H482 0.930 . S
C495 C494 1.388 . S
C495 C496 1.390 . S
C496 C495 1.390 . S
C496 C497 1.394 . S
C496 C502 1.465 . S
C497 C492 1.399 . S
C497 C496 1.394 . S
C497 C498 1.516 . S
C498 C497 1.516 . S
C498 C499 1.502 . S
C498 C500 1.561 . S
C498 C501 1.526 . S
C499 H483 0.959 . S
C499 H484 0.959 . S
C499 H485 0.961 . S
C499 C498 1.502 . S
C500 H486 0.960 . S
C500 H487 0.961 . S
C500 H488 0.959 . S
C500 C498 1.561 . S
C501 C498 1.526 . S
C501 C502 1.396 . S
C501 C506 1.390 . S
C502 C496 1.465 . S
C502 C501 1.396 . S
C502 C503 1.399 . S
C503 H489 0.929 . S
C503 C502 1.399 . S
C503 C504 1.385 . S
C504 H490 0.931 . S
C504 C503 1.385 . S
C504 C505 1.389 . S
C505 C504 1.389 . S
C505 C506 1.387 . S
C506 H491 0.930 . S
C506 C501 1.390 . S
C506 C505 1.387 . S
H507 C519 0.930 . S
H508 C521 0.930 . S
H509 C522 0.930 . S
H510 C526 0.959 . S
H511 C526 0.959 . S
H512 C526 0.961 . S
H513 C527 0.960 . S
H514 C527 0.961 . S
H515 C527 0.959 . S
H516 C530 0.929 . S
H517 C531 0.931 . S
H518 C533 0.930 . S
C519 H507 0.930 . S
C519 C520 1.399 . S
C519 C524 1.399 . S
C520 C519 1.399 . S
C520 C521 1.376 . S
C521 H508 0.930 . S
C521 C520 1.376 . S
C521 C522 1.388 . S
C522 H509 0.930 . S
C522 C521 1.388 . S
C522 C523 1.390 . S
C523 C522 1.390 . S
C523 C524 1.394 . S
C523 C529 1.465 . S
C524 C519 1.399 . S
C524 C523 1.394 . S
C524 C525 1.516 . S
C525 C524 1.516 . S
C525 C526 1.502 . S
C525 C527 1.561 . S
C525 C528 1.526 . S
C526 H510 0.959 . S
C526 H511 0.959 . S
C526 H512 0.961 . S
C526 C525 1.502 . S
C527 H513 0.960 . S
C527 H514 0.961 . S
C527 H515 0.959 . S
C527 C525 1.561 . S
C528 C525 1.526 . S
C528 C529 1.396 . S
C528 C533 1.390 . S
C529 C523 1.465 . S
C529 C528 1.396 . S
C529 C530 1.399 . S
C530 H516 0.929 . S
C530 C529 1.399 . S
C530 C531 1.385 . S
C531 H517 0.931 . S
C531 C530 1.385 . S
C531 C532 1.389 . S
C532 C531 1.389 . S
C532 C533 1.387 . S
C533 H518 0.930 . S
C533 C528 1.390 . S
C533 C532 1.387 . S
H534 C546 0.930 . S
H535 C548 0.930 . S
H536 C549 0.930 . S
H537 C553 0.959 . S
H538 C553 0.959 . S
H539 C553 0.961 . S
H540 C554 0.960 . S
H541 C554 0.961 . S
H542 C554 0.959 . S
H543 C557 0.929 . S
H544 C558 0.931 . S
H545 C560 0.930 . S
C546 H534 0.930 . S
C546 C547 1.399 . S
C546 C551 1.399 . S
C547 C546 1.399 . S
C547 C548 1.376 . S
C548 H535 0.930 . S
C548 C547 1.376 . S
C548 C549 1.388 . S
C549 H536 0.930 . S
C549 C548 1.388 . S
C549 C550 1.390 . S
C550 C549 1.390 . S
C550 C551 1.394 . S
C550 C556 1.465 . S
C551 C546 1.399 . S
C551 C550 1.394 . S
C551 C552 1.516 . S
C552 C551 1.516 . S
C552 C553 1.502 . S
C552 C554 1.561 . S
C552 C555 1.526 . S
C553 H537 0.959 . S
C553 H538 0.959 . S
C553 H539 0.961 . S
C553 C552 1.502 . S
C554 H540 0.960 . S
C554 H541 0.961 . S
C554 H542 0.959 . S
C554 C552 1.561 . S
C555 C552 1.526 . S
C555 C556 1.396 . S
C555 C560 1.390 . S
C556 C550 1.465 . S
C556 C555 1.396 . S
C556 C557 1.399 . S
C557 H543 0.929 . S
C557 C556 1.399 . S
C557 C558 1.385 . S
C558 H544 0.931 . S
C558 C557 1.385 . S
C558 C559 1.389 . S
C559 C558 1.389 . S
C559 C560 1.387 . S
C560 H545 0.930 . S
C560 C555 1.390 . S
C560 C559 1.387 . S
H561 C573 0.930 . S
H562 C575 0.930 . S
H563 C576 0.930 . S
H564 C580 0.959 . S
H565 C580 0.959 . S
H566 C580 0.961 . S
H567 C581 0.960 . S
H568 C581 0.961 . S
H569 C581 0.959 . S
H570 C584 0.929 . S
H571 C585 0.931 . S
H572 C587 0.930 . S
C573 H561 0.930 . S
C573 C574 1.399 . S
C573 C578 1.399 . S
C574 C573 1.399 . S
C574 C575 1.376 . S
C575 H562 0.930 . S
C575 C574 1.376 . S
C575 C576 1.388 . S
C576 H563 0.930 . S
C576 C575 1.388 . S
C576 C577 1.390 . S
C577 C576 1.390 . S
C577 C578 1.394 . S
C577 C583 1.465 . S
C578 C573 1.399 . S
C578 C577 1.394 . S
C578 C579 1.516 . S
C579 C578 1.516 . S
C579 C580 1.502 . S
C579 C581 1.561 . S
C579 C582 1.526 . S
C580 H564 0.959 . S
C580 H565 0.959 . S
C580 H566 0.961 . S
C580 C579 1.502 . S
C581 H567 0.960 . S
C581 H568 0.961 . S
C581 H569 0.959 . S
C581 C579 1.561 . S
C582 C579 1.526 . S
C582 C583 1.396 . S
C582 C587 1.390 . S
C583 C577 1.465 . S
C583 C582 1.396 . S
C583 C584 1.399 . S
C584 H570 0.929 . S
C584 C583 1.399 . S
C584 C585 1.385 . S
C585 H571 0.931 . S
C585 C584 1.385 . S
C585 C586 1.389 . S
C586 C585 1.389 . S
C586 C587 1.387 . S
C587 H572 0.930 . S
C587 C582 1.390 . S
C587 C586 1.387 . S
H588 C600 0.930 . S
H589 C602 0.930 . S
H590 C603 0.930 . S
H591 C607 0.959 . S
H592 C607 0.959 . S
H593 C607 0.961 . S
H594 C608 0.960 . S
H595 C608 0.961 . S
H596 C608 0.959 . S
H597 C611 0.929 . S
H598 C612 0.931 . S
H599 C614 0.930 . S
C600 H588 0.930 . S
C600 C601 1.399 . S
C600 C605 1.399 . S
C601 C600 1.399 . S
C601 C602 1.376 . S
C602 H589 0.930 . S
C602 C601 1.376 . S
C602 C603 1.388 . S
C603 H590 0.930 . S
C603 C602 1.388 . S
C603 C604 1.390 . S
C604 C603 1.390 . S
C604 C605 1.394 . S
C604 C610 1.465 . S
C605 C600 1.399 . S
C605 C604 1.394 . S
C605 C606 1.516 . S
C606 C605 1.516 . S
C606 C607 1.502 . S
C606 C608 1.561 . S
C606 C609 1.526 . S
C607 H591 0.959 . S
C607 H592 0.959 . S
C607 H593 0.961 . S
C607 C606 1.502 . S
C608 H594 0.960 . S
C608 H595 0.961 . S
C608 H596 0.959 . S
C608 C606 1.561 . S
C609 C606 1.526 . S
C609 C610 1.396 . S
C609 C614 1.390 . S
C610 C604 1.465 . S
C610 C609 1.396 . S
C610 C611 1.399 . S
C611 H597 0.929 . S
C611 C610 1.399 . S
C611 C612 1.385 . S
C612 H598 0.931 . S
C612 C611 1.385 . S
C612 C613 1.389 . S
C613 C612 1.389 . S
C613 C614 1.387 . S
C614 H599 0.930 . S
C614 C609 1.390 . S
C614 C613 1.387 . S
H615 C627 0.930 . S
H616 C629 0.930 . S
H617 C630 0.930 . S
H618 C634 0.959 . S
H619 C634 0.959 . S
H620 C634 0.961 . S
H621 C635 0.960 . S
H622 C635 0.961 . S
H623 C635 0.959 . S
H624 C638 0.929 . S
H625 C639 0.931 . S
H626 C641 0.930 . S
C627 H615 0.930 . S
C627 C628 1.399 . S
C627 C632 1.399 . S
C628 C627 1.399 . S
C628 C629 1.376 . S
C629 H616 0.930 . S
C629 C628 1.376 . S
C629 C630 1.388 . S
C630 H617 0.930 . S
C630 C629 1.388 . S
C630 C631 1.390 . S
C631 C630 1.390 . S
C631 C632 1.394 . S
C631 C637 1.465 . S
C632 C627 1.399 . S
C632 C631 1.394 . S
C632 C633 1.516 . S
C633 C632 1.516 . S
C633 C634 1.502 . S
C633 C635 1.561 . S
C633 C636 1.526 . S
C634 H618 0.959 . S
C634 H619 0.959 . S
C634 H620 0.961 . S
C634 C633 1.502 . S
C635 H621 0.960 . S
C635 H622 0.961 . S
C635 H623 0.959 . S
C635 C633 1.561 . S
C636 C633 1.526 . S
C636 C637 1.396 . S
C636 C641 1.390 . S
C637 C631 1.465 . S
C637 C636 1.396 . S
C637 C638 1.399 . S
C638 H624 0.929 . S
C638 C637 1.399 . S
C638 C639 1.385 . S
C639 H625 0.931 . S
C639 C638 1.385 . S
C639 C640 1.389 . S
C640 C639 1.389 . S
C640 C641 1.387 . S
C641 H626 0.930 . S
C641 C636 1.390 . S
C641 C640 1.387 . S
H642 C654 0.930 . S
H643 C656 0.930 . S
H644 C657 0.930 . S
H645 C661 0.959 . S
H646 C661 0.959 . S
H647 C661 0.961 . S
H648 C662 0.960 . S
H649 C662 0.961 . S
H650 C662 0.959 . S
H651 C665 0.929 . S
H652 C666 0.931 . S
H653 C668 0.930 . S
C654 H642 0.930 . S
C654 C655 1.399 . S
C654 C659 1.399 . S
C655 C654 1.399 . S
C655 C656 1.376 . S
C656 H643 0.930 . S
C656 C655 1.376 . S
C656 C657 1.388 . S
C657 H644 0.930 . S
C657 C656 1.388 . S
C657 C658 1.390 . S
C658 C657 1.390 . S
C658 C659 1.394 . S
C658 C664 1.465 . S
C659 C654 1.399 . S
C659 C658 1.394 . S
C659 C660 1.516 . S
C660 C659 1.516 . S
C660 C661 1.502 . S
C660 C662 1.561 . S
C660 C663 1.526 . S
C661 H645 0.959 . S
C661 H646 0.959 . S
C661 H647 0.961 . S
C661 C660 1.502 . S
C662 H648 0.960 . S
C662 H649 0.961 . S
C662 H650 0.959 . S
C662 C660 1.561 . S
C663 C660 1.526 . S
C663 C664 1.396 . S
C663 C668 1.390 . S
C664 C658 1.465 . S
C664 C663 1.396 . S
C664 C665 1.399 . S
C665 H651 0.929 . S
C665 C664 1.399 . S
C665 C666 1.385 . S
C666 H652 0.931 . S
C666 C665 1.385 . S
C666 C667 1.389 . S
C667 C666 1.389 . S
C667 C668 1.387 . S
C668 H653 0.930 . S
C668 C663 1.390 . S
C668 C667 1.387 . S
H669 C681 0.930 . S
H670 C683 0.930 . S
H671 C684 0.930 . S
H672 C688 0.959 . S
H673 C688 0.959 . S
H674 C688 0.961 . S
H675 C689 0.960 . S
H676 C689 0.961 . S
H677 C689 0.959 . S
H678 C692 0.929 . S
H679 C693 0.931 . S
H680 C695 0.930 . S
C681 H669 0.930 . S
C681 C682 1.399 . S
C681 C686 1.399 . S
C682 C681 1.399 . S
C682 C683 1.376 . S
C683 H670 0.930 . S
C683 C682 1.376 . S
C683 C684 1.388 . S
C684 H671 0.930 . S
C684 C683 1.388 . S
C684 C685 1.390 . S
C685 C684 1.390 . S
C685 C686 1.394 . S
C685 C691 1.465 . S
C686 C681 1.399 . S
C686 C685 1.394 . S
C686 C687 1.516 . S
C687 C686 1.516 . S
C687 C688 1.502 . S
C687 C689 1.561 . S
C687 C690 1.526 . S
C688 H672 0.959 . S
C688 H673 0.959 . S
C688 H674 0.961 . S
C688 C687 1.502 . S
C689 H675 0.960 . S
C689 H676 0.961 . S
C689 H677 0.959 . S
C689 C687 1.561 . S
C690 C687 1.526 . S
C690 C691 1.396 . S
C690 C695 1.390 . S
C691 C685 1.465 . S
C691 C690 1.396 . S
C691 C692 1.399 . S
C692 H678 0.929 . S
C692 C691 1.399 . S
C692 C693 1.385 . S
C693 H679 0.931 . S
C693 C692 1.385 . S
C693 C694 1.389 . S
C694 C693 1.389 . S
C694 C695 1.387 . S
C695 H680 0.930 . S
C695 C690 1.390 . S
C695 C694 1.387 . S
H696 C708 0.930 . S
H697 C710 0.930 . S
H698 C711 0.930 . S
H699 C715 0.959 . S
H700 C715 0.959 . S
H701 C715 0.961 . S
H702 C716 0.960 . S
H703 C716 0.961 . S
H704 C716 0.959 . S
H705 C719 0.929 . S
H706 C720 0.931 . S
H707 C722 0.930 . S
C708 H696 0.930 . S
C708 C709 1.399 . S
C708 C713 1.399 . S
C709 C708 1.399 . S
C709 C710 1.376 . S
C710 H697 0.930 . S
C710 C709 1.376 . S
C710 C711 1.388 . S
C711 H698 0.930 . S
C711 C710 1.388 . S
C711 C712 1.390 . S
C712 C711 1.390 . S
C712 C713 1.394 . S
C712 C718 1.465 . S
C713 C708 1.399 . S
C713 C712 1.394 . S
C713 C714 1.516 . S
C714 C713 1.516 . S
C714 C715 1.502 . S
C714 C716 1.561 . S
C714 C717 1.526 . S
C715 H699 0.959 . S
C715 H700 0.959 . S
C715 H701 0.961 . S
C715 C714 1.502 . S
C716 H702 0.960 . S
C716 H703 0.961 . S
C716 H704 0.959 . S
C716 C714 1.561 . S
C717 C714 1.526 . S
C717 C718 1.396 . S
C717 C722 1.390 . S
C718 C712 1.465 . S
C718 C717 1.396 . S
C718 C719 1.399 . S
C719 H705 0.929 . S
C719 C718 1.399 . S
C719 C720 1.385 . S
C720 H706 0.931 . S
C720 C719 1.385 . S
C720 C721 1.389 . S
C721 C720 1.389 . S
C721 C722 1.387 . S
C722 H707 0.930 . S
C722 C717 1.390 . S
C722 C721 1.387 . S
H723 C735 0.930 . S
H724 C737 0.930 . S
H725 C738 0.930 . S
H726 C742 0.959 . S
H727 C742 0.959 . S
H728 C742 0.961 . S
H729 C743 0.960 . S
H730 C743 0.961 . S
H731 C743 0.959 . S
H732 C746 0.929 . S
H733 C747 0.931 . S
H734 C749 0.930 . S
C735 H723 0.930 . S
C735 C736 1.399 . S
C735 C740 1.399 . S
C736 C735 1.399 . S
C736 C737 1.376 . S
C737 H724 0.930 . S
C737 C736 1.376 . S
C737 C738 1.388 . S
C738 H725 0.930 . S
C738 C737 1.388 . S
C738 C739 1.390 . S
C739 C738 1.390 . S
C739 C740 1.394 . S
C739 C745 1.465 . S
C740 C735 1.399 . S
C740 C739 1.394 . S
C740 C741 1.516 . S
C741 C740 1.516 . S
C741 C742 1.502 . S
C741 C743 1.561 . S
C741 C744 1.526 . S
C742 H726 0.959 . S
C742 H727 0.959 . S
C742 H728 0.961 . S
C742 C741 1.502 . S
C743 H729 0.960 . S
C743 H730 0.961 . S
C743 H731 0.959 . S
C743 C741 1.561 . S
C744 C741 1.526 . S
C744 C745 1.396 . S
C744 C749 1.390 . S
C745 C739 1.465 . S
C745 C744 1.396 . S
C745 C746 1.399 . S
C746 H732 0.929 . S
C746 C745 1.399 . S
C746 C747 1.385 . S
C747 H733 0.931 . S
C747 C746 1.385 . S
C747 C748 1.389 . S
C748 C747 1.389 . S
C748 C749 1.387 . S
C749 H734 0.930 . S
C749 C744 1.390 . S
C749 C748 1.387 . S
H750 C762 0.930 . S
H751 C764 0.930 . S
H752 C765 0.930 . S
H753 C769 0.959 . S
H754 C769 0.959 . S
H755 C769 0.961 . S
H756 C770 0.960 . S
H757 C770 0.961 . S
H758 C770 0.959 . S
H759 C773 0.929 . S
H760 C774 0.931 . S
H761 C776 0.930 . S
C762 H750 0.930 . S
C762 C763 1.399 . S
C762 C767 1.399 . S
C763 C762 1.399 . S
C763 C764 1.376 . S
C764 H751 0.930 . S
C764 C763 1.376 . S
C764 C765 1.388 . S
C765 H752 0.930 . S
C765 C764 1.388 . S
C765 C766 1.390 . S
C766 C765 1.390 . S
C766 C767 1.394 . S
C766 C772 1.465 . S
C767 C762 1.399 . S
C767 C766 1.394 . S
C767 C768 1.516 . S
C768 C767 1.516 . S
C768 C769 1.502 . S
C768 C770 1.561 . S
C768 C771 1.526 . S
C769 H753 0.959 . S
C769 H754 0.959 . S
C769 H755 0.961 . S
C769 C768 1.502 . S
C770 H756 0.960 . S
C770 H757 0.961 . S
C770 H758 0.959 . S
C770 C768 1.561 . S
C771 C768 1.526 . S
C771 C772 1.396 . S
C771 C776 1.390 . S
C772 C766 1.465 . S
C772 C771 1.396 . S
C772 C773 1.399 . S
C773 H759 0.929 . S
C773 C772 1.399 . S
C773 C774 1.385 . S
C774 H760 0.931 . S
C774 C773 1.385 . S
C774 C775 1.389 . S
C775 C774 1.389 . S
C775 C776 1.387 . S
C776 H761 0.930 . S
C776 C771 1.390 . S
C776 C775 1.387 . S
H777 C789 0.930 . S
H778 C791 0.930 . S
H779 C792 0.930 . S
H780 C796 0.959 . S
H781 C796 0.959 . S
H782 C796 0.961 . S
H783 C797 0.960 . S
H784 C797 0.961 . S
H785 C797 0.959 . S
H786 C800 0.929 . S
H787 C801 0.931 . S
H788 C803 0.930 . S
C789 H777 0.930 . S
C789 C790 1.399 . S
C789 C794 1.399 . S
C790 C789 1.399 . S
C790 C791 1.376 . S
C791 H778 0.930 . S
C791 C790 1.376 . S
C791 C792 1.388 . S
C792 H779 0.930 . S
C792 C791 1.388 . S
C792 C793 1.390 . S
C793 C792 1.390 . S
C793 C794 1.394 . S
C793 C799 1.465 . S
C794 C789 1.399 . S
C794 C793 1.394 . S
C794 C795 1.516 . S
C795 C794 1.516 . S
C795 C796 1.502 . S
C795 C797 1.561 . S
C795 C798 1.526 . S
C796 H780 0.959 . S
C796 H781 0.959 . S
C796 H782 0.961 . S
C796 C795 1.502 . S
C797 H783 0.960 . S
C797 H784 0.961 . S
C797 H785 0.959 . S
C797 C795 1.561 . S
C798 C795 1.526 . S
C798 C799 1.396 . S
C798 C803 1.390 . S
C799 C793 1.465 . S
C799 C798 1.396 . S
C799 C800 1.399 . S
C800 H786 0.929 . S
C800 C799 1.399 . S
C800 C801 1.385 . S
C801 H787 0.931 . S
C801 C800 1.385 . S
C801 C802 1.389 . S
C802 C801 1.389 . S
C802 C803 1.387 . S
C803 H788 0.930 . S
C803 C798 1.390 . S
C803 C802 1.387 . S
C169 C10 1.345 . S
C181 C153 1.324 . S
C196 C88 1.322 . S
C208 C23 1.316 . S
C223 C36 1.314 . S
C235 C101 1.334 . S
C250 C114 1.343 . S
C262 C49 1.340 . S
C277 C127 1.328 . S
C289 C62 1.346 . S
C304 C140 1.344 . S
C316 C75 1.339 . S
C331 C47 1.329 . S
C343 C112 1.343 . S
C358 C60 1.304 . S
C370 C125 1.308 . S
C385 C73 1.304 . S
C397 C138 1.308 . S
C412 C151 1.397 . S
C424 C8 1.391 . S
C439 C21 1.398 . S
C451 C86 1.395 . S
C466 C34 1.318 . S
C478 C99 1.311 . S
C493 C109 1.470 . S
C505 C5 1.459 . S
C520 C122 1.436 . S
C532 C18 1.441 . S
C547 C31 1.495 . S
C559 C135 1.499 . S
C574 C44 1.486 . S
C586 C148 1.494 . S
C601 C57 1.498 . S
C613 C83 1.491 . S
C628 C96 1.471 . S
C640 C70 1.460 . S
C655 C0 1.286 . S
C667 C130 1.337 . S
C682 C143 1.339 . S
C694 C13 1.284 . S
C709 C26 1.282 . S
C721 C78 1.331 . S
C736 C39 1.292 . S
C748 C91 1.333 . S
C763 C52 1.283 . S
C775 C104 1.330 . S
C790 C65 1.340 . S
C802 C117 1.282 . S
