# Generated by pormake.
# Topology ukf, (4)-cn, num edge types: 1
# Building blocks:
#     Node 0, Type 0, BuildingBlock: QUQFOY_clean_sbu_1, # of connection points: 4
#     Node 1, Type 0, BuildingBlock: QUQFOY_clean_sbu_1, # of connection points: 4
#     Node 2, Type 0, BuildingBlock: QUQFOY_clean_sbu_1, # of connection points: 4
#     Node 3, Type 0, BuildingBlock: QUQFOY_clean_sbu_1, # of connection points: 4
#     Node 4, Type 0, BuildingBlock: QUQFOY_clean_sbu_1, # of connection points: 4
#     Node 5, Type 0, BuildingBlock: QUQFOY_clean_sbu_1, # of connection points: 4
#     Node 6, Type 0, BuildingBlock: QUQFOY_clean_sbu_1, # of connection points: 4
#     Node 7, Type 0, BuildingBlock: QUQFOY_clean_sbu_1, # of connection points: 4
#     Node 8, Type 0, BuildingBlock: QUQFOY_clean_sbu_1, # of connection points: 4
#     Node 9, Type 0, BuildingBlock: QUQFOY_clean_sbu_1, # of connection points: 4
#     Node 10, Type 0, BuildingBlock: QUQFOY_clean_sbu_1, # of connection points: 4
#     Node 11, Type 0, BuildingBlock: QUQFOY_clean_sbu_1, # of connection points: 4
#     Edge 12, Type (0, 0), BuildingBlock: CIFDUS_clean_linker_0, # of connection points: 2
#     Edge 13, Type (0, 0), BuildingBlock: CIFDUS_clean_linker_0, # of connection points: 2
#     Edge 14, Type (0, 0), BuildingBlock: CIFDUS_clean_linker_0, # of connection points: 2
#     Edge 15, Type (0, 0), BuildingBlock: CIFDUS_clean_linker_0, # of connection points: 2
#     Edge 16, Type (0, 0), BuildingBlock: CIFDUS_clean_linker_0, # of connection points: 2
#     Edge 17, Type (0, 0), BuildingBlock: CIFDUS_clean_linker_0, # of connection points: 2
#     Edge 18, Type (0, 0), BuildingBlock: CIFDUS_clean_linker_0, # of connection points: 2
#     Edge 19, Type (0, 0), BuildingBlock: CIFDUS_clean_linker_0, # of connection points: 2
#     Edge 20, Type (0, 0), BuildingBlock: CIFDUS_clean_linker_0, # of connection points: 2
#     Edge 21, Type (0, 0), BuildingBlock: CIFDUS_clean_linker_0, # of connection points: 2
#     Edge 22, Type (0, 0), BuildingBlock: CIFDUS_clean_linker_0, # of connection points: 2
#     Edge 23, Type (0, 0), BuildingBlock: CIFDUS_clean_linker_0, # of connection points: 2
#     Edge 24, Type (0, 0), BuildingBlock: CIFDUS_clean_linker_0, # of connection points: 2
#     Edge 25, Type (0, 0), BuildingBlock: CIFDUS_clean_linker_0, # of connection points: 2
#     Edge 26, Type (0, 0), BuildingBlock: CIFDUS_clean_linker_0, # of connection points: 2
#     Edge 27, Type (0, 0), BuildingBlock: CIFDUS_clean_linker_0, # of connection points: 2
#     Edge 28, Type (0, 0), BuildingBlock: CIFDUS_clean_linker_0, # of connection points: 2
#     Edge 29, Type (0, 0), BuildingBlock: CIFDUS_clean_linker_0, # of connection points: 2
#     Edge 30, Type (0, 0), BuildingBlock: CIFDUS_clean_linker_0, # of connection points: 2
#     Edge 31, Type (0, 0), BuildingBlock: CIFDUS_clean_linker_0, # of connection points: 2
#     Edge 32, Type (0, 0), BuildingBlock: CIFDUS_clean_linker_0, # of connection points: 2
#     Edge 33, Type (0, 0), BuildingBlock: CIFDUS_clean_linker_0, # of connection points: 2
#     Edge 34, Type (0, 0), BuildingBlock: CIFDUS_clean_linker_0, # of connection points: 2
#     Edge 35, Type (0, 0), BuildingBlock: CIFDUS_clean_linker_0, # of connection points: 2
# Relax obj value: 0.115
# Max RMSD: 0.129
# Mean RMSD: 0.129
data_MOF--net-ukf--node1-QUQFOY_clean_sbu_1--edge1-CIFDUS_clean_linker_0
_symmetry_space_group_name_H-M    P1
_symmetry_Int_Tables_number       1
_symmetry_cell_setting            triclinic
loop_
_symmetry_equiv_pos_as_xyz
'x, y, z'
_cell_length_a     28.099942
_cell_length_b     28.037796
_cell_length_c     64.61748
_cell_angle_alpha  90.167978
_cell_angle_beta   90.037092
_cell_angle_gamma 119.65475
loop_
_atom_site_label
_atom_site_type_symbol
_atom_site_fract_x
_atom_site_fract_y
_atom_site_fract_z
_atom_type_partial_charge
O0 O 0.47266 0.32854 0.07697 0.0
Cd1 Cd 0.46009 0.25186 0.08475 0.0
Cd2 Cd 0.3889 0.22907 0.05039 0.0
O3 O 0.39966 0.30596 0.05755 0.0
O4 O 0.50503 0.26802 0.11045 0.0
O5 O 0.41545 0.21405 0.11039 0.0
C6 C 0.46086 0.23795 0.12065 0.0
C7 C 0.30796 0.15564 0.03715 0.0
C8 C 0.44196 0.34197 0.06711 0.0
C9 C 0.4905 0.21851 0.04576 0.0
O10 O 0.45473 0.22726 0.03733 0.0
O11 O 0.49513 0.21945 0.06534 0.0
O12 O 0.33612 0.20004 0.02674 0.0
O13 O 0.32274 0.15499 0.05605 0.0
O14 O 0.16872 0.49084 0.41178 0.0
Cd15 Cd 0.22542 0.46942 0.42169 0.0
Cd16 Cd 0.1824 0.40643 0.38539 0.0
O17 O 0.11963 0.42446 0.38944 0.0
O18 O 0.2517 0.51359 0.44769 0.0
O19 O 0.21101 0.42338 0.44775 0.0
C20 C 0.23339 0.46886 0.45804 0.0
C21 C 0.17322 0.32165 0.3759 0.0
C22 C 0.12759 0.46652 0.3998 0.0
C23 C 0.29817 0.50116 0.38514 0.0
O24 O 0.25528 0.46999 0.37484 0.0
O25 O 0.29677 0.5017 0.40479 0.0
O26 O 0.16264 0.35021 0.363 0.0
O27 O 0.18396 0.33884 0.39484 0.0
O28 O 0.67989 0.14514 0.74464 0.0
Cd29 Cd 0.7565 0.20709 0.75323 0.0
Cd30 Cd 0.77925 0.16856 0.71609 0.0
O31 O 0.70257 0.10134 0.72162 0.0
O32 O 0.7422 0.2271 0.78128 0.0
O33 O 0.79825 0.19435 0.77619 0.0
C34 C 0.77451 0.21144 0.78894 0.0
C35 C 0.85236 0.16241 0.70142 0.0
C36 C 0.66671 0.10436 0.73271 0.0
C37 C 0.78911 0.28137 0.71721 0.0
O38 O 0.7818 0.23997 0.70666 0.0
O39 O 0.7869 0.27912 0.73684 0.0
O40 O 0.80887 0.15069 0.69095 0.0
O41 O 0.85244 0.17296 0.72091 0.0
O42 O 0.54781 0.68276 0.07262 0.0
Cd43 Cd 0.56355 0.7615 0.07865 0.0
Cd44 Cd 0.62922 0.77851 0.04611 0.0
O45 O 0.62044 0.70269 0.05359 0.0
O46 O 0.52718 0.75347 0.10589 0.0
O47 O 0.61644 0.80503 0.10169 0.0
C48 C 0.57468 0.78477 0.11392 0.0
C49 C 0.71036 0.85953 0.03964 0.0
C50 C 0.57816 0.66782 0.06335 0.0
C51 C 0.52948 0.78896 0.03946 0.0
O52 O 0.56406 0.77798 0.03131 0.0
O53 O 0.52679 0.79155 0.05904 0.0
O54 O 0.691 0.8195 0.0265 0.0
O55 O 0.68635 0.85131 0.05741 0.0
O56 O 0.85167 0.52678 0.4031 0.0
Cd57 Cd 0.79509 0.55086 0.41002 0.0
Cd58 Cd 0.8451 0.6125 0.37599 0.0
O59 O 0.90766 0.59605 0.38332 0.0
O60 O 0.76736 0.51587 0.4375 0.0
O61 O 0.81063 0.60562 0.43323 0.0
C62 C 0.78753 0.5641 0.44555 0.0
C63 C 0.85327 0.69539 0.36473 0.0
C64 C 0.89642 0.55254 0.39325 0.0
C65 C 0.73057 0.51781 0.37171 0.0
O66 O 0.77618 0.54842 0.36298 0.0
O67 O 0.72672 0.51769 0.3913 0.0
O68 O 0.86966 0.66827 0.35346 0.0
O69 O 0.83794 0.67856 0.38345 0.0
O70 O 0.3301 0.86703 0.74245 0.0
Cd71 Cd 0.25347 0.80343 0.7498 0.0
Cd72 Cd 0.23092 0.84842 0.71562 0.0
O73 O 0.30603 0.91619 0.72292 0.0
O74 O 0.26552 0.77939 0.77742 0.0
O75 O 0.21038 0.81351 0.77288 0.0
C76 C 0.23317 0.79474 0.78533 0.0
C77 C 0.1545 0.85152 0.70286 0.0
C78 C 0.34254 0.91084 0.73263 0.0
C79 C 0.22457 0.73808 0.71149 0.0
O80 O 0.23273 0.78204 0.70279 0.0
O81 O 0.22423 0.73491 0.73111 0.0
O82 O 0.19887 0.86968 0.69223 0.0
O83 O 0.1554 0.83672 0.72172 0.0
O84 O 0.68024 0.53368 0.61511 0.0
Cd85 Cd 0.75484 0.54449 0.60535 0.0
Cd86 Cd 0.7818 0.61024 0.64328 0.0
O87 O 0.70479 0.60081 0.63801 0.0
O88 O 0.73226 0.49892 0.57962 0.0
O89 O 0.78968 0.58786 0.57905 0.0
C90 C 0.76237 0.54229 0.56902 0.0
C91 C 0.85366 0.6887 0.6589 0.0
C92 C 0.66814 0.56192 0.62719 0.0
C93 C 0.79101 0.50661 0.64204 0.0
O94 O 0.78473 0.54147 0.65253 0.0
O95 O 0.78735 0.50549 0.62243 0.0
O96 O 0.80993 0.6561 0.66891 0.0
O97 O 0.85481 0.67946 0.63935 0.0
O98 O 0.14764 0.67991 0.95269 0.0
Cd99 Cd 0.21213 0.7556 0.94473 0.0
Cd100 Cd 0.16523 0.78021 0.97985 0.0
O101 O 0.09908 0.70392 0.97272 0.0
O102 O 0.24031 0.7372 0.91934 0.0
O103 O 0.20625 0.79304 0.91869 0.0
C104 C 0.22709 0.76772 0.90878 0.0
C105 C 0.15804 0.85385 0.99364 0.0
C106 C 0.10433 0.66742 0.96285 0.0
C107 C 0.27673 0.78889 0.98365 0.0
O108 O 0.23301 0.78113 0.99237 0.0
O109 O 0.27943 0.78729 0.96405 0.0
O110 O 0.14253 0.80926 1.0039 0.0
O111 O 0.17263 0.85467 0.97462 0.0
O112 O 0.45772 0.13568 0.2873 0.0
Cd113 Cd 0.44298 0.19853 0.27954 0.0
Cd114 Cd 0.37656 0.15458 0.31255 0.0
O115 O 0.3842 0.08589 0.30624 0.0
O116 O 0.48022 0.22317 0.25222 0.0
O117 O 0.39103 0.18795 0.25595 0.0
C118 C 0.43309 0.20737 0.24388 0.0
C119 C 0.29731 0.15896 0.31931 0.0
C120 C 0.42681 0.09172 0.29702 0.0
C121 C 0.47703 0.26395 0.31788 0.0
O122 O 0.44272 0.21952 0.32656 0.0
O123 O 0.47946 0.26717 0.29826 0.0
O124 O 0.31605 0.13781 0.3325 0.0
O125 O 0.32023 0.17196 0.30129 0.0
O126 O 0.33015 0.46316 0.62316 0.0
Cd127 Cd 0.25233 0.44904 0.61679 0.0
Cd128 Cd 0.23406 0.38261 0.65019 0.0
O129 O 0.30854 0.3895 0.64188 0.0
O130 O 0.26259 0.48668 0.58968 0.0
O131 O 0.20923 0.39734 0.59333 0.0
C132 C 0.23097 0.4396 0.58133 0.0
C133 C 0.15655 0.30284 0.66137 0.0
C134 C 0.34397 0.43173 0.63223 0.0
C135 C 0.22622 0.48483 0.65587 0.0
O136 O 0.23694 0.45016 0.66412 0.0
O137 O 0.22294 0.48676 0.6363 0.0
O138 O 0.20052 0.32648 0.67244 0.0
O139 O 0.15849 0.3214 0.64291 0.0
O140 O 0.86556 0.32954 0.95506 0.0
Cd141 Cd 0.80126 0.25261 0.94808 0.0
Cd142 Cd 0.85092 0.23043 0.98029 0.0
O143 O 0.9175 0.30606 0.97312 0.0
O144 O 0.76941 0.26774 0.92304 0.0
O145 O 0.80583 0.21388 0.92214 0.0
C146 C 0.7829 0.23739 0.91242 0.0
C147 C 0.852 0.14915 0.98645 0.0
C148 C 0.9106 0.34245 0.96405 0.0
C149 C 0.74191 0.22136 0.98795 0.0
O150 O 0.78732 0.23115 0.99578 0.0
O151 O 0.7363 0.2207 0.96842 0.0
O152 O 0.87263 0.1891 0.99961 0.0
O153 O 0.83556 0.15753 0.96882 0.0
O154 O 0.53679 0.86134 0.28363 0.0
Cd155 Cd 0.55111 0.79967 0.2735 0.0
Cd156 Cd 0.61647 0.83875 0.31098 0.0
O157 O 0.604 0.90512 0.30625 0.0
O158 O 0.50605 0.77597 0.24772 0.0
O159 O 0.59546 0.8103 0.24728 0.0
C160 C 0.54992 0.79076 0.23719 0.0
C161 C 0.69632 0.84505 0.32525 0.0
C162 C 0.56409 0.90173 0.29571 0.0
C163 C 0.51654 0.72499 0.30977 0.0
O164 O 0.54979 0.7664 0.32038 0.0
O165 O 0.5152 0.72789 0.29019 0.0
O166 O 0.6645 0.85638 0.33596 0.0
O167 O 0.68573 0.83526 0.30574 0.0
H168 H 0.19004 0.95479 0.97696 0.0
H169 H 0.14888 0.86753 0.03495 0.0
H170 H 0.18535 0.95386 0.05388 0.0
H171 H 0.24186 0.05463 0.05407 0.0
H172 H 0.28214 0.14189 0.99608 0.0
H173 H 0.23242 0.0555 0.97724 0.0
C174 C 0.18782 0.95455 0.99372 0.0
C175 C 0.16756 0.90467 1.00446 0.0
C176 C 0.20937 0.00459 1.00461 0.0
C177 C 0.16458 0.90521 0.02621 0.0
C178 C 0.18576 0.95472 0.03711 0.0
C179 C 0.23863 0.05486 0.03735 0.0
C180 C 0.2666 0.10476 0.02655 0.0
C181 C 0.21026 0.00479 0.0265 0.0
C182 C 0.26147 0.10418 1.00486 0.0
C183 C 0.23323 0.05465 0.994 0.0
H184 H 0.17405 0.29032 0.33602 0.0
H185 H 0.1921 0.251 0.39903 0.0
H186 H 0.22406 0.18931 0.38664 0.0
H187 H 0.25955 0.15751 0.35823 0.0
H188 H 0.24744 0.20202 0.29535 0.0
H189 H 0.1997 0.2498 0.30735 0.0
C190 C 0.18375 0.26733 0.34707 0.0
C191 C 0.18108 0.27577 0.36847 0.0
C192 C 0.20376 0.23318 0.33984 0.0
C193 C 0.19397 0.2456 0.3825 0.0
C194 C 0.21252 0.21045 0.37542 0.0
C195 C 0.24532 0.17648 0.34706 0.0
C196 C 0.25756 0.17646 0.3259 0.0
C197 C 0.21949 0.2055 0.35415 0.0
C198 C 0.23883 0.20148 0.31171 0.0
C199 C 0.21177 0.22914 0.31859 0.0
H200 H 0.95047 0.18537 0.71858 0.0
H201 H 0.86832 0.16155 0.65984 0.0
H202 H 0.95523 0.19644 0.64176 0.0
H203 H 0.05598 0.24636 0.64292 0.0
H204 H 0.13814 0.26948 0.70161 0.0
H205 H 0.05016 0.2215 0.7192 0.0
C206 C 0.9514 0.18665 0.70181 0.0
C207 C 0.90293 0.17164 0.69067 0.0
C208 C 1.00179 0.20722 0.69141 0.0
C209 C 0.90493 0.17314 0.66889 0.0
C210 C 0.95478 0.1934 0.65848 0.0
C211 C 0.05466 0.23976 0.65948 0.0
C212 C 0.10375 0.26237 0.67091 0.0
C213 C 1.00373 0.21249 0.66962 0.0
C214 C 0.10113 0.25295 0.69238 0.0
C215 C 0.05071 0.22573 0.70253 0.0
H216 H 0.74498 0.8956 1.00061 0.0
H217 H 0.7694 0.94955 0.06429 0.0
H218 H 0.82404 0.04491 0.05313 0.0
H219 H 0.85288 0.11305 0.02532 0.0
H220 H 0.82088 0.0591 0.96168 0.0
H221 H 0.78198 0.96374 0.97277 0.0
C222 C 0.76337 0.92806 1.0121 0.0
C223 C 0.75284 0.9154 0.03328 0.0
C224 C 0.7929 0.98295 1.00553 0.0
C225 C 0.77668 0.95811 0.0479 0.0
C226 C 0.80773 0.01271 0.04152 0.0
C227 C 0.83864 0.08059 1.01382 0.0
C228 C 0.83956 0.09325 0.99268 0.0
C229 C 0.81436 0.0257 0.02036 0.0
C230 C 0.82052 0.05055 0.97803 0.0
C231 C 0.79802 0.99595 0.98438 0.0
H232 H 0.76873 0.81828 0.30773 0.0
H233 H 0.71569 0.84762 0.36672 0.0
H234 H 0.76658 0.8106 0.3846 0.0
H235 H 0.81424 0.75692 0.38331 0.0
H236 H 0.86768 0.72788 0.32436 0.0
H237 H 0.82968 0.77848 0.30687 0.0
C238 C 0.76935 0.8178 0.32451 0.0
C239 C 0.73758 0.83494 0.33578 0.0
C240 C 0.79844 0.79588 0.33479 0.0
C241 C 0.73933 0.83437 0.35755 0.0
C242 C 0.76828 0.81288 0.36786 0.0
C243 C 0.81884 0.76283 0.3667 0.0
C244 C 0.84306 0.73774 0.3552 0.0
C245 C 0.79622 0.79154 0.35662 0.0
C246 C 0.84893 0.74628 0.33367 0.0
C247 C 0.82685 0.77501 0.32358 0.0
H248 H 0.95296 0.76354 0.64286 0.0
H249 H 0.86634 0.70527 0.7006 0.0
H250 H 0.95169 0.75712 0.71976 0.0
H251 H 0.05247 0.80786 0.71993 0.0
H252 H 0.13913 0.86646 0.66222 0.0
H253 H 0.05257 0.82672 0.64345 0.0
C254 C 0.95256 0.76315 0.65964 0.0
C255 C 0.9033 0.72976 0.6702 0.0
C256 C 1.00207 0.79282 0.67066 0.0
C257 C 0.9036 0.7302 0.69199 0.0
C258 C 0.95255 0.75971 0.70302 0.0
C259 C 0.05243 0.81312 0.70331 0.0
C260 C 0.10241 0.83941 0.69253 0.0
C261 C 1.00232 0.78952 0.6925 0.0
C262 C 0.10142 0.84611 0.67097 0.0
C263 C 0.05181 0.82307 0.66015 0.0
H264 H 0.64252 0.20737 0.97666 0.0
H265 H 0.7397 0.21896 0.03023 0.0
H266 H 0.66856 0.21495 0.05296 0.0
H267 H 0.5817 0.21466 0.05757 0.0
H268 H 0.48579 0.20514 1.00385 0.0
H269 H 0.55335 0.20142 0.98133 0.0
C270 C 0.64801 0.20853 0.9933 0.0
C271 C 0.69663 0.21396 1.00168 0.0
C272 C 0.60724 0.20682 1.00631 0.0
C273 C 0.70285 0.21517 0.02332 0.0
C274 C 0.66219 0.21292 0.03636 0.0
C275 C 0.57526 0.21117 0.04096 0.0
C276 C 0.52895 0.21068 0.03245 0.0
C277 C 0.61465 0.20974 0.02802 0.0
C278 C 0.52126 0.20606 1.01086 0.0
C279 C 0.55991 0.20395 0.99793 0.0
H280 H 0.31487 0.50996 0.3436 0.0
H281 H 0.39412 0.58194 0.40177 0.0
H282 H 0.47131 0.65518 0.38331 0.0
H283 H 0.51174 0.70341 0.35092 0.0
H284 H 0.43126 0.63264 0.2928 0.0
H285 H 0.35925 0.55398 0.31107 0.0
C286 C 0.34927 0.54128 0.35228 0.0
C287 C 0.34829 0.5408 0.37405 0.0
C288 C 0.3931 0.58373 0.34159 0.0
C289 C 0.39356 0.58143 0.38501 0.0
C290 C 0.43767 0.62348 0.37447 0.0
C291 C 0.47874 0.67058 0.34219 0.0
C292 C 0.47655 0.67436 0.32053 0.0
C293 C 0.43714 0.6258 0.35279 0.0
C294 C 0.43382 0.63105 0.30949 0.0
C295 C 0.39252 0.58607 0.31992 0.0
H296 H 0.79873 0.30013 0.67579 0.0
H297 H 0.79716 0.3747 0.73419 0.0
H298 H 0.80182 0.45305 0.71597 0.0
H299 H 0.79974 0.49701 0.68354 0.0
H300 H 0.79927 0.42135 0.62515 0.0
H301 H 0.80249 0.34692 0.6434 0.0
C302 C 0.79979 0.33366 0.68459 0.0
C303 C 0.79704 0.3312 0.70634 0.0
C304 C 0.80191 0.37828 0.67403 0.0
C305 C 0.79896 0.37532 0.71745 0.0
C306 C 0.80152 0.42012 0.70704 0.0
C307 C 0.8008 0.46453 0.67476 0.0
C308 C 0.79873 0.46458 0.65298 0.0
C309 C 0.80199 0.42152 0.68534 0.0
C310 C 0.80056 0.42229 0.6419 0.0
C311 C 0.80226 0.3796 0.65233 0.0
H312 H 0.37101 0.79237 0.97115 0.0
H313 H 0.28726 0.80271 0.02554 0.0
H314 H 0.35993 0.80735 0.0475 0.0
H315 H 0.44402 0.80236 0.0515 0.0
H316 H 0.52687 0.78994 0.99722 0.0
H317 H 0.45799 0.79264 0.97506 0.0
C318 C 0.36889 0.79618 0.98778 0.0
C319 C 0.32348 0.79672 0.99665 0.0
C320 C 0.41054 0.79819 1.0004 0.0
C321 C 0.32151 0.80177 0.01826 0.0
C322 C 0.36306 0.80441 0.03088 0.0
C323 C 0.44735 0.80075 0.03483 0.0
C324 C 0.49034 0.7955 0.02609 0.0
C325 C 0.40727 0.80168 0.02214 0.0
C326 C 0.49401 0.79361 1.00441 0.0
C327 C 0.45461 0.79511 0.99169 0.0
H328 H 0.56321 0.36026 0.3049 0.0
H329 H 0.47835 0.27273 0.35999 0.0
H330 H 0.54688 0.34609 0.38155 0.0
H331 H 0.63453 0.43161 0.38483 0.0
H332 H 0.72081 0.51759 0.32972 0.0
H333 H 0.6478 0.4486 0.30818 0.0
C334 C 0.55937 0.35744 0.32161 0.0
C335 C 0.51598 0.3108 0.33078 0.0
C336 C 0.59931 0.39943 0.33396 0.0
C337 C 0.51159 0.30795 0.35249 0.0
C338 C 0.55077 0.3499 0.36486 0.0
C339 C 0.63703 0.43566 0.36812 0.0
C340 C 0.68327 0.47943 0.35892 0.0
C341 C 0.59536 0.39532 0.35577 0.0
C342 C 0.68587 0.48402 0.33723 0.0
C343 C 0.64416 0.44456 0.32487 0.0
H344 H 0.21404 0.57107 0.6437 0.0
H345 H 0.22539 0.4881 0.6981 0.0
H346 H 0.22252 0.55726 0.72018 0.0
H347 H 0.22209 0.64415 0.72405 0.0
H348 H 0.21276 0.728 0.66955 0.0
H349 H 0.20921 0.65548 0.64762 0.0
C350 C 0.21544 0.56782 0.66039 0.0
C351 C 0.2203 0.52463 0.66918 0.0
C352 C 0.21436 0.60805 0.67303 0.0
C353 C 0.22198 0.52109 0.69087 0.0
C354 C 0.22036 0.56065 0.70355 0.0
C355 C 0.21878 0.64633 0.70739 0.0
C356 C 0.21809 0.69167 0.69849 0.0
C357 C 0.21737 0.60476 0.69479 0.0
C358 C 0.21378 0.69379 0.67685 0.0
C359 C 0.21175 0.65232 0.66426 0.0
H360 H 0.37587 0.19718 0.14837 0.0
H361 H 0.55144 0.26876 0.14423 0.0
H362 H 0.55799 0.26624 0.18171 0.0
H363 H 0.51485 0.24507 0.21568 0.0
H364 H 0.33969 0.17436 0.22075 0.0
H365 H 0.33212 0.1756 0.18299 0.0
C366 C 0.41545 0.21185 0.15569 0.0
C367 C 0.46306 0.23305 0.14345 0.0
C368 C 0.41913 0.21088 0.17745 0.0
C369 C 0.5141 0.2523 0.15321 0.0
C370 C 0.51798 0.25097 0.17469 0.0
C371 C 0.47492 0.23002 0.20859 0.0
C372 C 0.42794 0.20977 0.22108 0.0
C373 C 0.47089 0.23069 0.18696 0.0
C374 C 0.37659 0.19036 0.21153 0.0
C375 C 0.37222 0.19091 0.18992 0.0
H376 H 0.18693 0.38331 0.48561 0.0
H377 H 0.28902 0.55944 0.48208 0.0
H378 H 0.29536 0.5656 0.51959 0.0
H379 H 0.27302 0.52195 0.55339 0.0
H380 H 0.1713 0.34621 0.55798 0.0
H381 H 0.16334 0.33908 0.52018 0.0
C382 C 0.21069 0.42294 0.49308 0.0
C383 C 0.23756 0.47079 0.48096 0.0
C384 C 0.21401 0.42641 0.51487 0.0
C385 C 0.26789 0.52189 0.49092 0.0
C386 C 0.27155 0.52556 0.51243 0.0
C387 C 0.24882 0.48199 0.54619 0.0
C388 C 0.22278 0.43471 0.55855 0.0
C389 C 0.24479 0.4782 0.52455 0.0
C390 C 0.19168 0.38334 0.54887 0.0
C391 C 0.18728 0.37922 0.52723 0.0
H392 H 0.82713 0.19853 0.88361 0.0
H393 H 0.71853 0.26529 0.89019 0.0
H394 H 0.70681 0.26313 0.85283 0.0
H395 H 0.72847 0.24454 0.8183 0.0
H396 H 0.83774 0.17906 0.81074 0.0
H397 H 0.84834 0.17878 0.84839 0.0
C398 C 0.80057 0.21213 0.87684 0.0
C399 C 0.77374 0.232 0.88973 0.0
C400 C 0.79446 0.21148 0.85516 0.0
C401 C 0.7398 0.24991 0.88069 0.0
C402 C 0.73308 0.24878 0.85929 0.0
C403 C 0.75472 0.23022 0.82482 0.0
C404 C 0.78239 0.21201 0.81167 0.0
C405 C 0.76053 0.23014 0.84638 0.0
C406 C 0.8161 0.1935 0.82048 0.0
C407 C 0.82206 0.19321 0.84202 0.0
H408 H 0.49332 0.74812 0.1422 0.0
H409 H 0.66919 0.84208 0.13674 0.0
H410 H 0.67767 0.85195 0.17447 0.0
H411 H 0.63453 0.83207 0.20923 0.0
H412 H 0.45823 0.73804 0.21365 0.0
H413 H 0.45076 0.72981 0.17619 0.0
C414 C 0.53362 0.77104 0.14919 0.0
C415 C 0.58053 0.7943 0.13662 0.0
C416 C 0.53815 0.77623 0.1708 0.0
C417 C 0.63234 0.82386 0.14603 0.0
C418 C 0.63722 0.82933 0.16763 0.0
C419 C 0.59456 0.80967 0.20196 0.0
C420 C 0.54706 0.7856 0.21431 0.0
C421 C 0.59036 0.80532 0.1802 0.0
C422 C 0.49553 0.75703 0.20462 0.0
C423 C 0.49112 0.75228 0.18314 0.0
H424 H 0.80817 0.62657 0.54089 0.0
H425 H 0.71942 0.44979 0.54561 0.0
H426 H 0.71826 0.4415 0.50814 0.0
H427 H 0.74207 0.4834 0.47406 0.0
H428 H 0.83053 0.65972 0.46827 0.0
H429 H 0.83171 0.66914 0.50603 0.0
C430 C 0.78881 0.5863 0.53369 0.0
C431 C 0.76403 0.53891 0.54613 0.0
C432 C 0.78788 0.58164 0.51193 0.0
C433 C 0.7388 0.48702 0.53651 0.0
C434 C 0.73802 0.48214 0.51503 0.0
C435 C 0.76148 0.52401 0.48098 0.0
C436 C 0.78612 0.57077 0.46831 0.0
C437 C 0.76227 0.52906 0.5026 0.0
C438 C 0.81108 0.62299 0.47764 0.0
C439 C 0.81193 0.62839 0.49925 0.0
H440 H 0.1836 0.80812 0.88033 0.0
H441 H 0.28692 0.73507 0.88597 0.0
H442 H 0.29685 0.73624 0.84854 0.0
H443 H 0.27601 0.75687 0.81421 0.0
H444 H 0.17209 0.82884 0.80765 0.0
H445 H 0.16226 0.82878 0.84533 0.0
C446 C 0.20855 0.79283 0.87334 0.0
C447 C 0.23455 0.77165 0.88599 0.0
C448 C 0.21367 0.79298 0.85162 0.0
C449 C 0.26636 0.75154 0.87666 0.0
C450 C 0.27206 0.7521 0.85522 0.0
C451 C 0.25102 0.77244 0.82096 0.0
C452 C 0.22477 0.79274 0.80807 0.0
C453 C 0.24571 0.77242 0.84255 0.0
C454 C 0.19262 0.81277 0.81717 0.0
C455 C 0.18714 0.81292 0.83874 0.0
H456 H 0.47534 0.58156 0.06415 0.0
H457 H 0.64484 0.62258 0.06245 0.0
H458 H 0.61722 0.5249 0.06398 0.0
H459 H 0.54478 0.4282 0.06627 0.0
H460 H 0.37519 0.38694 0.06504 0.0
H461 H 0.40283 0.48468 0.06415 0.0
C462 C 0.50622 0.56905 0.06414 0.0
C463 C 0.56207 0.60907 0.06343 0.0
C464 C 0.48995 0.51299 0.06451 0.0
C465 C 0.60165 0.59244 0.06302 0.0
C466 C 0.58585 0.53669 0.06395 0.0
C467 C 0.5139 0.44069 0.06586 0.0
C468 C 0.45802 0.40063 0.06599 0.0
C469 C 0.53015 0.49669 0.0648 0.0
C470 C 0.41839 0.41714 0.06501 0.0
C471 C 0.43421 0.47292 0.06454 0.0
H472 H 0.00811 0.60668 0.3938 0.0
H473 H 0.86634 0.44491 0.39154 0.0
H474 H 0.92496 0.40341 0.39183 0.0
H475 H 0.01683 0.41282 0.39415 0.0
H476 H 0.15792 0.57432 0.3999 0.0
H477 H 0.09985 0.61603 0.39678 0.0
C478 C 0.99029 0.56243 0.39321 0.0
C479 C 0.93316 0.52892 0.3926 0.0
C480 C 0.02421 0.53869 0.3941 0.0
C481 C 0.91035 0.47154 0.39212 0.0
C482 C 0.9438 0.44774 0.39225 0.0
C483 C 0.03468 0.45709 0.39457 0.0
C484 C 0.09142 0.49042 0.39722 0.0
C485 C 1.0008 0.48084 0.39346 0.0
C486 C 0.11417 0.54777 0.39799 0.0
C487 C 0.08104 0.57171 0.39617 0.0
H488 H 0.57882 0.11905 0.7343 0.0
H489 H 0.62462 0.99393 0.72794 0.0
H490 H 0.52777 0.9228 0.72763 0.0
H491 H 0.43038 0.8965 0.73004 0.0
H492 H 0.38435 0.02196 0.73326 0.0
H493 H 0.48125 0.09313 0.73384 0.0
C494 C 0.56747 0.07615 0.73283 0.0
C495 C 0.60856 0.06146 0.7314 0.0
C496 C 0.5119 0.03585 0.73211 0.0
C497 C 0.59358 0.00601 0.72909 0.0
C498 C 0.53832 0.96547 0.72897 0.0
C499 C 0.44169 0.93949 0.73086 0.0
C500 C 0.40056 0.95419 0.73188 0.0
C501 C 0.49721 0.97993 0.73062 0.0
C502 C 0.41545 0.00987 0.7325 0.0
C503 C 0.47073 0.05042 0.73289 0.0
H504 H 0.58063 0.45984 0.62644 0.0
H505 H 0.62588 0.63025 0.63283 0.0
H506 H 0.52894 0.6046 0.63472 0.0
H507 H 0.43155 0.53366 0.63379 0.0
H508 H 0.38654 0.36281 0.63047 0.0
H509 H 0.48346 0.38849 0.62823 0.0
C510 C 0.56915 0.49131 0.62823 0.0
C511 C 0.61007 0.5469 0.62922 0.0
C512 C 0.51361 0.4761 0.62987 0.0
C513 C 0.59496 0.58727 0.63198 0.0
C514 C 0.53965 0.57259 0.63302 0.0
C515 C 0.44307 0.5021 0.63259 0.0
C516 C 0.40218 0.44645 0.63204 0.0
C517 C 0.49869 0.51718 0.63185 0.0
C518 C 0.41743 0.40585 0.63089 0.0
C519 C 0.47272 0.42056 0.62955 0.0
H520 H 0.11862 0.57903 0.96245 0.0
H521 H 0.99368 0.62554 0.96566 0.0
H522 H 0.92258 0.52856 0.96599 0.0
H523 H 0.89634 0.43086 0.96481 0.0
H524 H 0.02152 0.38442 0.96443 0.0
H525 H 0.09257 0.48138 0.96362 0.0
C526 C 0.07577 0.56786 0.96318 0.0
C527 C 0.06119 0.60919 0.96377 0.0
C528 C 0.03544 0.51224 0.96389 0.0
C529 C 0.00573 0.59435 0.96515 0.0
C530 C 0.96519 0.539 0.96529 0.0
C531 C 0.93922 0.44203 0.96452 0.0
C532 C 0.95384 0.40071 0.96443 0.0
C533 C 0.97961 0.49767 0.96456 0.0
C534 C 0.00942 0.41559 0.96448 0.0
C535 C 0.04993 0.47093 0.96396 0.0
H536 H 0.46099 0.88553 0.29485 0.0
H537 H 0.62974 0.01222 0.30125 0.0
H538 H 0.60169 0.08227 0.30223 0.0
H539 H 0.52929 0.10731 0.30002 0.0
H540 H 0.36004 0.98028 0.29651 0.0
H541 H 0.38799 0.91009 0.29575 0.0
C542 C 0.49157 0.92853 0.2965 0.0
C543 C 0.54742 0.94395 0.2977 0.0
C544 C 0.47498 0.96822 0.29755 0.0
C545 C 0.58659 0.99952 0.30026 0.0
C546 C 0.57054 0.03947 0.30076 0.0
C547 C 0.49855 0.06419 0.29914 0.0
C548 C 0.44271 0.04881 0.29805 0.0
C549 C 0.51492 0.02429 0.29921 0.0
C550 C 0.4032 0.99294 0.29733 0.0
C551 C 0.41922 0.95294 0.29683 0.0
loop_
_geom_bond_atom_site_label_1
_geom_bond_atom_site_label_2
_geom_bond_distance
_geom_bond_site_symmetry_2
_ccdc_geom_bond_type
O0 Cd1 2.223 . S
O0 C8 1.315 . S
Cd1 O0 2.223 . S
Cd1 O4 2.297 . S
Cd1 O5 2.439 . S
Cd1 O11 2.240 . S
Cd2 O3 2.240 . S
Cd2 O10 2.223 . S
Cd2 O12 2.297 . S
Cd2 O13 2.439 . S
O3 Cd2 2.240 . S
O3 C8 1.279 . S
O4 Cd1 2.297 . S
O4 C6 1.247 . S
O5 Cd1 2.439 . S
O5 C6 1.208 . S
C6 O4 1.247 . S
C6 O5 1.208 . S
C7 O12 1.247 . S
C7 O13 1.208 . S
C8 O0 1.315 . S
C8 O3 1.279 . S
C9 O10 1.315 . S
C9 O11 1.279 . S
O10 Cd2 2.223 . S
O10 C9 1.315 . S
O11 Cd1 2.240 . S
O11 C9 1.279 . S
O12 Cd2 2.297 . S
O12 C7 1.247 . S
O13 Cd2 2.439 . S
O13 C7 1.208 . S
O14 Cd15 2.223 . S
O14 C22 1.315 . S
Cd15 O14 2.223 . S
Cd15 O18 2.297 . S
Cd15 O19 2.439 . S
Cd15 O25 2.240 . S
Cd16 O17 2.240 . S
Cd16 O24 2.223 . S
Cd16 O26 2.297 . S
Cd16 O27 2.439 . S
O17 Cd16 2.240 . S
O17 C22 1.279 . S
O18 Cd15 2.297 . S
O18 C20 1.247 . S
O19 Cd15 2.439 . S
O19 C20 1.208 . S
C20 O18 1.247 . S
C20 O19 1.208 . S
C21 O26 1.247 . S
C21 O27 1.208 . S
C22 O14 1.315 . S
C22 O17 1.279 . S
C23 O24 1.315 . S
C23 O25 1.279 . S
O24 Cd16 2.223 . S
O24 C23 1.315 . S
O25 Cd15 2.240 . S
O25 C23 1.279 . S
O26 Cd16 2.297 . S
O26 C21 1.247 . S
O27 Cd16 2.439 . S
O27 C21 1.208 . S
O28 Cd29 2.223 . S
O28 C36 1.315 . S
Cd29 O28 2.223 . S
Cd29 O32 2.297 . S
Cd29 O33 2.439 . S
Cd29 O39 2.240 . S
Cd30 O31 2.240 . S
Cd30 O38 2.223 . S
Cd30 O40 2.297 . S
Cd30 O41 2.439 . S
O31 Cd30 2.240 . S
O31 C36 1.279 . S
O32 Cd29 2.297 . S
O32 C34 1.247 . S
O33 Cd29 2.439 . S
O33 C34 1.208 . S
C34 O32 1.247 . S
C34 O33 1.208 . S
C35 O40 1.247 . S
C35 O41 1.208 . S
C36 O28 1.315 . S
C36 O31 1.279 . S
C37 O38 1.315 . S
C37 O39 1.279 . S
O38 Cd30 2.223 . S
O38 C37 1.315 . S
O39 Cd29 2.240 . S
O39 C37 1.279 . S
O40 Cd30 2.297 . S
O40 C35 1.247 . S
O41 Cd30 2.439 . S
O41 C35 1.208 . S
O42 Cd43 2.223 . S
O42 C50 1.315 . S
Cd43 O42 2.223 . S
Cd43 O46 2.297 . S
Cd43 O47 2.439 . S
Cd43 O53 2.240 . S
Cd44 O45 2.240 . S
Cd44 O52 2.223 . S
Cd44 O54 2.297 . S
Cd44 O55 2.439 . S
O45 Cd44 2.240 . S
O45 C50 1.279 . S
O46 Cd43 2.297 . S
O46 C48 1.247 . S
O47 Cd43 2.439 . S
O47 C48 1.208 . S
C48 O46 1.247 . S
C48 O47 1.208 . S
C49 O54 1.247 . S
C49 O55 1.208 . S
C50 O42 1.315 . S
C50 O45 1.279 . S
C51 O52 1.315 . S
C51 O53 1.279 . S
O52 Cd44 2.223 . S
O52 C51 1.315 . S
O53 Cd43 2.240 . S
O53 C51 1.279 . S
O54 Cd44 2.297 . S
O54 C49 1.247 . S
O55 Cd44 2.439 . S
O55 C49 1.208 . S
O56 Cd57 2.223 . S
O56 C64 1.315 . S
Cd57 O56 2.223 . S
Cd57 O60 2.297 . S
Cd57 O61 2.439 . S
Cd57 O67 2.240 . S
Cd58 O59 2.240 . S
Cd58 O66 2.223 . S
Cd58 O68 2.297 . S
Cd58 O69 2.439 . S
O59 Cd58 2.240 . S
O59 C64 1.279 . S
O60 Cd57 2.297 . S
O60 C62 1.247 . S
O61 Cd57 2.439 . S
O61 C62 1.208 . S
C62 O60 1.247 . S
C62 O61 1.208 . S
C63 O68 1.247 . S
C63 O69 1.208 . S
C64 O56 1.315 . S
C64 O59 1.279 . S
C65 O66 1.315 . S
C65 O67 1.279 . S
O66 Cd58 2.223 . S
O66 C65 1.315 . S
O67 Cd57 2.240 . S
O67 C65 1.279 . S
O68 Cd58 2.297 . S
O68 C63 1.247 . S
O69 Cd58 2.439 . S
O69 C63 1.208 . S
O70 Cd71 2.223 . S
O70 C78 1.315 . S
Cd71 O70 2.223 . S
Cd71 O74 2.297 . S
Cd71 O75 2.439 . S
Cd71 O81 2.240 . S
Cd72 O73 2.240 . S
Cd72 O80 2.223 . S
Cd72 O82 2.297 . S
Cd72 O83 2.439 . S
O73 Cd72 2.240 . S
O73 C78 1.279 . S
O74 Cd71 2.297 . S
O74 C76 1.247 . S
O75 Cd71 2.439 . S
O75 C76 1.208 . S
C76 O74 1.247 . S
C76 O75 1.208 . S
C77 O82 1.247 . S
C77 O83 1.208 . S
C78 O70 1.315 . S
C78 O73 1.279 . S
C79 O80 1.315 . S
C79 O81 1.279 . S
O80 Cd72 2.223 . S
O80 C79 1.315 . S
O81 Cd71 2.240 . S
O81 C79 1.279 . S
O82 Cd72 2.297 . S
O82 C77 1.247 . S
O83 Cd72 2.439 . S
O83 C77 1.208 . S
O84 Cd85 2.223 . S
O84 C92 1.315 . S
Cd85 O84 2.223 . S
Cd85 O88 2.297 . S
Cd85 O89 2.439 . S
Cd85 O95 2.240 . S
Cd86 O87 2.240 . S
Cd86 O94 2.223 . S
Cd86 O96 2.297 . S
Cd86 O97 2.439 . S
O87 Cd86 2.240 . S
O87 C92 1.279 . S
O88 Cd85 2.297 . S
O88 C90 1.247 . S
O89 Cd85 2.439 . S
O89 C90 1.208 . S
C90 O88 1.247 . S
C90 O89 1.208 . S
C91 O96 1.247 . S
C91 O97 1.208 . S
C92 O84 1.315 . S
C92 O87 1.279 . S
C93 O94 1.315 . S
C93 O95 1.279 . S
O94 Cd86 2.223 . S
O94 C93 1.315 . S
O95 Cd85 2.240 . S
O95 C93 1.279 . S
O96 Cd86 2.297 . S
O96 C91 1.247 . S
O97 Cd86 2.439 . S
O97 C91 1.208 . S
O98 Cd99 2.223 . S
O98 C106 1.315 . S
Cd99 O98 2.223 . S
Cd99 O102 2.297 . S
Cd99 O103 2.439 . S
Cd99 O109 2.240 . S
Cd100 O101 2.240 . S
Cd100 O108 2.223 . S
Cd100 O110 2.297 . S
Cd100 O111 2.439 . S
O101 Cd100 2.240 . S
O101 C106 1.279 . S
O102 Cd99 2.297 . S
O102 C104 1.247 . S
O103 Cd99 2.439 . S
O103 C104 1.208 . S
C104 O102 1.247 . S
C104 O103 1.208 . S
C105 O110 1.247 . S
C105 O111 1.208 . S
C106 O98 1.315 . S
C106 O101 1.279 . S
C107 O108 1.315 . S
C107 O109 1.279 . S
O108 Cd100 2.223 . S
O108 C107 1.315 . S
O109 Cd99 2.240 . S
O109 C107 1.279 . S
O110 Cd100 2.297 . S
O110 C105 1.247 . S
O111 Cd100 2.439 . S
O111 C105 1.208 . S
O112 Cd113 2.223 . S
O112 C120 1.315 . S
Cd113 O112 2.223 . S
Cd113 O116 2.297 . S
Cd113 O117 2.439 . S
Cd113 O123 2.240 . S
Cd114 O115 2.240 . S
Cd114 O122 2.223 . S
Cd114 O124 2.297 . S
Cd114 O125 2.439 . S
O115 Cd114 2.240 . S
O115 C120 1.279 . S
O116 Cd113 2.297 . S
O116 C118 1.247 . S
O117 Cd113 2.439 . S
O117 C118 1.208 . S
C118 O116 1.247 . S
C118 O117 1.208 . S
C119 O124 1.247 . S
C119 O125 1.208 . S
C120 O112 1.315 . S
C120 O115 1.279 . S
C121 O122 1.315 . S
C121 O123 1.279 . S
O122 Cd114 2.223 . S
O122 C121 1.315 . S
O123 Cd113 2.240 . S
O123 C121 1.279 . S
O124 Cd114 2.297 . S
O124 C119 1.247 . S
O125 Cd114 2.439 . S
O125 C119 1.208 . S
O126 Cd127 2.223 . S
O126 C134 1.315 . S
Cd127 O126 2.223 . S
Cd127 O130 2.297 . S
Cd127 O131 2.439 . S
Cd127 O137 2.240 . S
Cd128 O129 2.240 . S
Cd128 O136 2.223 . S
Cd128 O138 2.297 . S
Cd128 O139 2.439 . S
O129 Cd128 2.240 . S
O129 C134 1.279 . S
O130 Cd127 2.297 . S
O130 C132 1.247 . S
O131 Cd127 2.439 . S
O131 C132 1.208 . S
C132 O130 1.247 . S
C132 O131 1.208 . S
C133 O138 1.247 . S
C133 O139 1.208 . S
C134 O126 1.315 . S
C134 O129 1.279 . S
C135 O136 1.315 . S
C135 O137 1.279 . S
O136 Cd128 2.223 . S
O136 C135 1.315 . S
O137 Cd127 2.240 . S
O137 C135 1.279 . S
O138 Cd128 2.297 . S
O138 C133 1.247 . S
O139 Cd128 2.439 . S
O139 C133 1.208 . S
O140 Cd141 2.223 . S
O140 C148 1.315 . S
Cd141 O140 2.223 . S
Cd141 O144 2.297 . S
Cd141 O145 2.439 . S
Cd141 O151 2.240 . S
Cd142 O143 2.240 . S
Cd142 O150 2.223 . S
Cd142 O152 2.297 . S
Cd142 O153 2.439 . S
O143 Cd142 2.240 . S
O143 C148 1.279 . S
O144 Cd141 2.297 . S
O144 C146 1.247 . S
O145 Cd141 2.439 . S
O145 C146 1.208 . S
C146 O144 1.247 . S
C146 O145 1.208 . S
C147 O152 1.247 . S
C147 O153 1.208 . S
C148 O140 1.315 . S
C148 O143 1.279 . S
C149 O150 1.315 . S
C149 O151 1.279 . S
O150 Cd142 2.223 . S
O150 C149 1.315 . S
O151 Cd141 2.240 . S
O151 C149 1.279 . S
O152 Cd142 2.297 . S
O152 C147 1.247 . S
O153 Cd142 2.439 . S
O153 C147 1.208 . S
O154 Cd155 2.223 . S
O154 C162 1.315 . S
Cd155 O154 2.223 . S
Cd155 O158 2.297 . S
Cd155 O159 2.439 . S
Cd155 O165 2.240 . S
Cd156 O157 2.240 . S
Cd156 O164 2.223 . S
Cd156 O166 2.297 . S
Cd156 O167 2.439 . S
O157 Cd156 2.240 . S
O157 C162 1.279 . S
O158 Cd155 2.297 . S
O158 C160 1.247 . S
O159 Cd155 2.439 . S
O159 C160 1.208 . S
C160 O158 1.247 . S
C160 O159 1.208 . S
C161 O166 1.247 . S
C161 O167 1.208 . S
C162 O154 1.315 . S
C162 O157 1.279 . S
C163 O164 1.315 . S
C163 O165 1.279 . S
O164 Cd156 2.223 . S
O164 C163 1.315 . S
O165 Cd155 2.240 . S
O165 C163 1.279 . S
O166 Cd156 2.297 . S
O166 C161 1.247 . S
O167 Cd156 2.439 . S
O167 C161 1.208 . S
H168 C174 0.930 . S
H169 C177 0.930 . S
H170 C178 0.945 . S
H171 C179 0.930 . S
H172 C182 0.930 . S
H173 C183 0.946 . S
C174 H168 0.930 . S
C174 C175 1.355 . S
C174 C176 1.415 . S
C175 C174 1.355 . S
C175 C177 1.419 . S
C176 C174 1.415 . S
C176 C181 1.425 1_566 S
C176 C183 1.416 1_565 S
C177 H169 0.930 . S
C177 C175 1.419 . S
C177 C178 1.341 1_556 S
C178 H170 0.945 . S
C178 C177 1.341 1_554 S
C178 C181 1.416 1_565 S
C179 H171 0.930 . S
C179 C180 1.355 . S
C179 C181 1.415 . S
C180 C179 1.355 . S
C180 C182 1.419 . S
C181 C176 1.425 1_544 S
C181 C178 1.416 1_545 S
C181 C179 1.415 . S
C182 H172 0.930 . S
C182 C180 1.419 . S
C182 C183 1.341 1_554 S
C183 H173 0.946 . S
C183 C176 1.416 1_545 S
C183 C182 1.341 1_556 S
H184 C190 0.930 . S
H185 C193 0.930 . S
H186 C194 0.930 . S
H187 C195 0.930 . S
H188 C198 0.930 . S
H189 C199 0.930 . S
C190 H184 0.930 . S
C190 C191 1.355 . S
C190 C192 1.415 . S
C191 C190 1.355 . S
C191 C193 1.419 . S
C192 C190 1.415 . S
C192 C197 1.425 . S
C192 C199 1.409 . S
C193 H185 0.930 . S
C193 C191 1.419 . S
C193 C194 1.362 . S
C194 H186 0.930 . S
C194 C193 1.362 . S
C194 C197 1.409 . S
C195 H187 0.930 . S
C195 C196 1.355 . S
C195 C197 1.415 . S
C196 C195 1.355 . S
C196 C198 1.419 . S
C197 C192 1.425 . S
C197 C194 1.409 . S
C197 C195 1.415 . S
C198 H188 0.930 . S
C198 C196 1.419 . S
C198 C199 1.362 . S
C199 H189 0.930 . S
C199 C192 1.409 . S
C199 C198 1.362 . S
H200 C206 0.930 . S
H201 C209 0.930 . S
H202 C210 0.930 . S
H203 C211 0.930 . S
H204 C214 0.930 . S
H205 C215 0.930 . S
C206 H200 0.930 . S
C206 C207 1.355 . S
C206 C208 1.410 1_655 S
C207 C206 1.355 . S
C207 C209 1.419 . S
C208 C206 1.410 1_455 S
C208 C213 1.419 1_455 S
C208 C215 1.417 . S
C209 H201 0.930 . S
C209 C207 1.419 . S
C209 C210 1.362 . S
C210 H202 0.930 . S
C210 C209 1.362 . S
C210 C213 1.417 . S
C211 H203 0.930 . S
C211 C212 1.355 . S
C211 C213 1.410 1_455 S
C212 C211 1.355 . S
C212 C214 1.419 . S
C213 C208 1.419 1_655 S
C213 C210 1.417 . S
C213 C211 1.410 1_655 S
C214 H204 0.930 . S
C214 C212 1.419 . S
C214 C215 1.362 . S
C215 H205 0.930 . S
C215 C208 1.417 . S
C215 C214 1.362 . S
H216 C222 0.930 1_556 S
H217 C225 0.930 . S
H218 C226 0.930 . S
H219 C227 0.930 1_554 S
H220 C230 0.930 . S
H221 C231 0.930 . S
C222 H216 0.930 1_554 S
C222 C223 1.355 . S
C222 C224 1.415 1_554 S
C223 C222 1.355 . S
C223 C225 1.419 . S
C224 C222 1.415 1_556 S
C224 C229 1.425 1_566 S
C224 C231 1.409 . S
C225 H217 0.930 . S
C225 C223 1.419 . S
C225 C226 1.362 1_565 S
C226 H218 0.930 . S
C226 C225 1.362 1_545 S
C226 C229 1.409 . S
C227 H219 0.930 1_556 S
C227 C228 1.355 . S
C227 C229 1.415 1_556 S
C228 C227 1.355 . S
C228 C230 1.419 . S
C229 C224 1.425 1_544 S
C229 C226 1.409 . S
C229 C227 1.415 1_554 S
C230 H220 0.930 . S
C230 C228 1.419 . S
C230 C231 1.362 1_545 S
C231 H221 0.930 . S
C231 C224 1.409 . S
C231 C230 1.362 1_565 S
H232 C238 0.930 . S
H233 C241 0.930 . S
H234 C242 0.930 . S
H235 C243 0.930 . S
H236 C246 0.930 . S
H237 C247 0.930 . S
C238 H232 0.930 . S
C238 C239 1.355 . S
C238 C240 1.415 . S
C239 C238 1.355 . S
C239 C241 1.419 . S
C240 C238 1.415 . S
C240 C245 1.425 . S
C240 C247 1.409 . S
C241 H233 0.930 . S
C241 C239 1.419 . S
C241 C242 1.362 . S
C242 H234 0.930 . S
C242 C241 1.362 . S
C242 C245 1.409 . S
C243 H235 0.930 . S
C243 C244 1.355 . S
C243 C245 1.415 . S
C244 C243 1.355 . S
C244 C246 1.419 . S
C245 C240 1.425 . S
C245 C242 1.409 . S
C245 C243 1.415 . S
C246 H236 0.930 . S
C246 C244 1.419 . S
C246 C247 1.362 . S
C247 H237 0.930 . S
C247 C240 1.409 . S
C247 C246 1.362 . S
H248 C254 0.930 . S
H249 C257 0.930 . S
H250 C258 0.930 . S
H251 C259 0.930 . S
H252 C262 0.930 . S
H253 C263 0.930 . S
C254 H248 0.930 . S
C254 C255 1.355 . S
C254 C256 1.415 1_655 S
C255 C254 1.355 . S
C255 C257 1.419 . S
C256 C254 1.415 1_455 S
C256 C261 1.425 1_455 S
C256 C263 1.409 . S
C257 H249 0.930 . S
C257 C255 1.419 . S
C257 C258 1.362 . S
C258 H250 0.930 . S
C258 C257 1.362 . S
C258 C261 1.409 . S
C259 H251 0.930 . S
C259 C260 1.355 . S
C259 C261 1.415 1_455 S
C260 C259 1.355 . S
C260 C262 1.419 . S
C261 C256 1.425 1_655 S
C261 C258 1.409 . S
C261 C259 1.415 1_655 S
C262 H252 0.930 . S
C262 C260 1.419 . S
C262 C263 1.362 . S
C263 H253 0.930 . S
C263 C256 1.409 . S
C263 C262 1.362 . S
H264 C270 0.930 . S
H265 C273 0.930 . S
H266 C274 0.930 . S
H267 C275 0.930 . S
H268 C278 0.930 . S
H269 C279 0.930 . S
C270 H264 0.930 . S
C270 C271 1.355 . S
C270 C272 1.415 . S
C271 C270 1.355 . S
C271 C273 1.419 1_556 S
C272 C270 1.415 . S
C272 C277 1.425 1_556 S
C272 C279 1.409 . S
C273 H265 0.930 . S
C273 C271 1.419 1_554 S
C273 C274 1.362 . S
C274 H266 0.930 . S
C274 C273 1.362 . S
C274 C277 1.409 . S
C275 H267 0.930 . S
C275 C276 1.355 . S
C275 C277 1.415 . S
C276 C275 1.355 . S
C276 C278 1.419 1_554 S
C277 C272 1.425 1_554 S
C277 C274 1.409 . S
C277 C275 1.415 . S
C278 H268 0.930 . S
C278 C276 1.419 1_556 S
C278 C279 1.362 . S
C279 H269 0.930 . S
C279 C272 1.409 . S
C279 C278 1.362 . S
H280 C286 0.930 . S
H281 C289 0.930 . S
H282 C290 0.930 . S
H283 C291 0.930 . S
H284 C294 0.930 . S
H285 C295 0.930 . S
C286 H280 0.930 . S
C286 C287 1.355 . S
C286 C288 1.415 . S
C287 C286 1.355 . S
C287 C289 1.419 . S
C288 C286 1.415 . S
C288 C293 1.425 . S
C288 C295 1.409 . S
C289 H281 0.930 . S
C289 C287 1.419 . S
C289 C290 1.362 . S
C290 H282 0.930 . S
C290 C289 1.362 . S
C290 C293 1.409 . S
C291 H283 0.930 . S
C291 C292 1.355 . S
C291 C293 1.415 . S
C292 C291 1.355 . S
C292 C294 1.419 . S
C293 C288 1.425 . S
C293 C290 1.409 . S
C293 C291 1.415 . S
C294 H284 0.930 . S
C294 C292 1.419 . S
C294 C295 1.362 . S
C295 H285 0.930 . S
C295 C288 1.409 . S
C295 C294 1.362 . S
H296 C302 0.930 . S
H297 C305 0.930 . S
H298 C306 0.930 . S
H299 C307 0.930 . S
H300 C310 0.930 . S
H301 C311 0.930 . S
C302 H296 0.930 . S
C302 C303 1.355 . S
C302 C304 1.415 . S
C303 C302 1.355 . S
C303 C305 1.419 . S
C304 C302 1.415 . S
C304 C309 1.425 . S
C304 C311 1.409 . S
C305 H297 0.930 . S
C305 C303 1.419 . S
C305 C306 1.362 . S
C306 H298 0.930 . S
C306 C305 1.362 . S
C306 C309 1.409 . S
C307 H299 0.930 . S
C307 C308 1.355 . S
C307 C309 1.415 . S
C308 C307 1.355 . S
C308 C310 1.419 . S
C309 C304 1.425 . S
C309 C306 1.409 . S
C309 C307 1.415 . S
C310 H300 0.930 . S
C310 C308 1.419 . S
C310 C311 1.362 . S
C311 H301 0.930 . S
C311 C304 1.409 . S
C311 C310 1.362 . S
H312 C318 0.930 . S
H313 C321 0.930 . S
H314 C322 0.930 . S
H315 C323 0.930 . S
H316 C326 0.930 . S
H317 C327 0.930 . S
C318 H312 0.930 . S
C318 C319 1.355 . S
C318 C320 1.415 . S
C319 C318 1.355 . S
C319 C321 1.419 1_556 S
C320 C318 1.415 . S
C320 C325 1.425 1_556 S
C320 C327 1.409 . S
C321 H313 0.930 . S
C321 C319 1.419 1_554 S
C321 C322 1.362 . S
C322 H314 0.930 . S
C322 C321 1.362 . S
C322 C325 1.409 . S
C323 H315 0.930 . S
C323 C324 1.355 . S
C323 C325 1.415 . S
C324 C323 1.355 . S
C324 C326 1.419 1_554 S
C325 C320 1.425 1_554 S
C325 C322 1.409 . S
C325 C323 1.415 . S
C326 H316 0.930 . S
C326 C324 1.419 1_556 S
C326 C327 1.362 . S
C327 H317 0.930 . S
C327 C320 1.409 . S
C327 C326 1.362 . S
H328 C334 0.930 . S
H329 C337 0.930 . S
H330 C338 0.930 . S
H331 C339 0.930 . S
H332 C342 0.930 . S
H333 C343 0.930 . S
C334 H328 0.930 . S
C334 C335 1.355 . S
C334 C336 1.415 . S
C335 C334 1.355 . S
C335 C337 1.419 . S
C336 C334 1.415 . S
C336 C341 1.425 . S
C336 C343 1.409 . S
C337 H329 0.930 . S
C337 C335 1.419 . S
C337 C338 1.362 . S
C338 H330 0.930 . S
C338 C337 1.362 . S
C338 C341 1.409 . S
C339 H331 0.930 . S
C339 C340 1.355 . S
C339 C341 1.415 . S
C340 C339 1.355 . S
C340 C342 1.419 . S
C341 C336 1.425 . S
C341 C338 1.409 . S
C341 C339 1.415 . S
C342 H332 0.930 . S
C342 C340 1.419 . S
C342 C343 1.362 . S
C343 H333 0.930 . S
C343 C336 1.409 . S
C343 C342 1.362 . S
H344 C350 0.930 . S
H345 C353 0.930 . S
H346 C354 0.930 . S
H347 C355 0.930 . S
H348 C358 0.930 . S
H349 C359 0.930 . S
C350 H344 0.930 . S
C350 C351 1.355 . S
C350 C352 1.415 . S
C351 C350 1.355 . S
C351 C353 1.419 . S
C352 C350 1.415 . S
C352 C357 1.425 . S
C352 C359 1.409 . S
C353 H345 0.930 . S
C353 C351 1.419 . S
C353 C354 1.362 . S
C354 H346 0.930 . S
C354 C353 1.362 . S
C354 C357 1.409 . S
C355 H347 0.930 . S
C355 C356 1.355 . S
C355 C357 1.415 . S
C356 C355 1.355 . S
C356 C358 1.419 . S
C357 C352 1.425 . S
C357 C354 1.409 . S
C357 C355 1.415 . S
C358 H348 0.930 . S
C358 C356 1.419 . S
C358 C359 1.362 . S
C359 H349 0.930 . S
C359 C352 1.409 . S
C359 C358 1.362 . S
H360 C366 0.930 . S
H361 C369 0.930 . S
H362 C370 0.930 . S
H363 C371 0.930 . S
H364 C374 0.930 . S
H365 C375 0.930 . S
C366 H360 0.930 . S
C366 C367 1.355 . S
C366 C368 1.415 . S
C367 C366 1.355 . S
C367 C369 1.419 . S
C368 C366 1.415 . S
C368 C373 1.425 . S
C368 C375 1.409 . S
C369 H361 0.930 . S
C369 C367 1.419 . S
C369 C370 1.362 . S
C370 H362 0.930 . S
C370 C369 1.362 . S
C370 C373 1.409 . S
C371 H363 0.930 . S
C371 C372 1.355 . S
C371 C373 1.415 . S
C372 C371 1.355 . S
C372 C374 1.419 . S
C373 C368 1.425 . S
C373 C370 1.409 . S
C373 C371 1.415 . S
C374 H364 0.930 . S
C374 C372 1.419 . S
C374 C375 1.362 . S
C375 H365 0.930 . S
C375 C368 1.409 . S
C375 C374 1.362 . S
H376 C382 0.930 . S
H377 C385 0.930 . S
H378 C386 0.930 . S
H379 C387 0.930 . S
H380 C390 0.930 . S
H381 C391 0.930 . S
C382 H376 0.930 . S
C382 C383 1.355 . S
C382 C384 1.415 . S
C383 C382 1.355 . S
C383 C385 1.419 . S
C384 C382 1.415 . S
C384 C389 1.425 . S
C384 C391 1.409 . S
C385 H377 0.930 . S
C385 C383 1.419 . S
C385 C386 1.362 . S
C386 H378 0.930 . S
C386 C385 1.362 . S
C386 C389 1.409 . S
C387 H379 0.930 . S
C387 C388 1.355 . S
C387 C389 1.415 . S
C388 C387 1.355 . S
C388 C390 1.419 . S
C389 C384 1.425 . S
C389 C386 1.409 . S
C389 C387 1.415 . S
C390 H380 0.930 . S
C390 C388 1.419 . S
C390 C391 1.362 . S
C391 H381 0.930 . S
C391 C384 1.409 . S
C391 C390 1.362 . S
H392 C398 0.930 . S
H393 C401 0.930 . S
H394 C402 0.930 . S
H395 C403 0.930 . S
H396 C406 0.930 . S
H397 C407 0.930 . S
C398 H392 0.930 . S
C398 C399 1.355 . S
C398 C400 1.415 . S
C399 C398 1.355 . S
C399 C401 1.419 . S
C400 C398 1.415 . S
C400 C405 1.425 . S
C400 C407 1.409 . S
C401 H393 0.930 . S
C401 C399 1.419 . S
C401 C402 1.362 . S
C402 H394 0.930 . S
C402 C401 1.362 . S
C402 C405 1.409 . S
C403 H395 0.930 . S
C403 C404 1.355 . S
C403 C405 1.415 . S
C404 C403 1.355 . S
C404 C406 1.419 . S
C405 C400 1.425 . S
C405 C402 1.409 . S
C405 C403 1.415 . S
C406 H396 0.930 . S
C406 C404 1.419 . S
C406 C407 1.362 . S
C407 H397 0.930 . S
C407 C400 1.409 . S
C407 C406 1.362 . S
H408 C414 0.930 . S
H409 C417 0.930 . S
H410 C418 0.930 . S
H411 C419 0.930 . S
H412 C422 0.930 . S
H413 C423 0.930 . S
C414 H408 0.930 . S
C414 C415 1.355 . S
C414 C416 1.415 . S
C415 C414 1.355 . S
C415 C417 1.419 . S
C416 C414 1.415 . S
C416 C421 1.425 . S
C416 C423 1.409 . S
C417 H409 0.930 . S
C417 C415 1.419 . S
C417 C418 1.362 . S
C418 H410 0.930 . S
C418 C417 1.362 . S
C418 C421 1.409 . S
C419 H411 0.930 . S
C419 C420 1.355 . S
C419 C421 1.415 . S
C420 C419 1.355 . S
C420 C422 1.419 . S
C421 C416 1.425 . S
C421 C418 1.409 . S
C421 C419 1.415 . S
C422 H412 0.930 . S
C422 C420 1.419 . S
C422 C423 1.362 . S
C423 H413 0.930 . S
C423 C416 1.409 . S
C423 C422 1.362 . S
H424 C430 0.930 . S
H425 C433 0.930 . S
H426 C434 0.930 . S
H427 C435 0.930 . S
H428 C438 0.930 . S
H429 C439 0.930 . S
C430 H424 0.930 . S
C430 C431 1.355 . S
C430 C432 1.415 . S
C431 C430 1.355 . S
C431 C433 1.419 . S
C432 C430 1.415 . S
C432 C437 1.425 . S
C432 C439 1.409 . S
C433 H425 0.930 . S
C433 C431 1.419 . S
C433 C434 1.362 . S
C434 H426 0.930 . S
C434 C433 1.362 . S
C434 C437 1.409 . S
C435 H427 0.930 . S
C435 C436 1.355 . S
C435 C437 1.415 . S
C436 C435 1.355 . S
C436 C438 1.419 . S
C437 C432 1.425 . S
C437 C434 1.409 . S
C437 C435 1.415 . S
C438 H428 0.930 . S
C438 C436 1.419 . S
C438 C439 1.362 . S
C439 H429 0.930 . S
C439 C432 1.409 . S
C439 C438 1.362 . S
H440 C446 0.930 . S
H441 C449 0.930 . S
H442 C450 0.930 . S
H443 C451 0.930 . S
H444 C454 0.930 . S
H445 C455 0.930 . S
C446 H440 0.930 . S
C446 C447 1.355 . S
C446 C448 1.415 . S
C447 C446 1.355 . S
C447 C449 1.419 . S
C448 C446 1.415 . S
C448 C453 1.425 . S
C448 C455 1.409 . S
C449 H441 0.930 . S
C449 C447 1.419 . S
C449 C450 1.362 . S
C450 H442 0.930 . S
C450 C449 1.362 . S
C450 C453 1.409 . S
C451 H443 0.930 . S
C451 C452 1.355 . S
C451 C453 1.415 . S
C452 C451 1.355 . S
C452 C454 1.419 . S
C453 C448 1.425 . S
C453 C450 1.409 . S
C453 C451 1.415 . S
C454 H444 0.930 . S
C454 C452 1.419 . S
C454 C455 1.362 . S
C455 H445 0.930 . S
C455 C448 1.409 . S
C455 C454 1.362 . S
H456 C462 0.930 . S
H457 C465 0.930 . S
H458 C466 0.930 . S
H459 C467 0.930 . S
H460 C470 0.930 . S
H461 C471 0.930 . S
C462 H456 0.930 . S
C462 C463 1.355 . S
C462 C464 1.415 . S
C463 C462 1.355 . S
C463 C465 1.419 . S
C464 C462 1.415 . S
C464 C469 1.425 . S
C464 C471 1.409 . S
C465 H457 0.930 . S
C465 C463 1.419 . S
C465 C466 1.362 . S
C466 H458 0.930 . S
C466 C465 1.362 . S
C466 C469 1.409 . S
C467 H459 0.930 . S
C467 C468 1.355 . S
C467 C469 1.415 . S
C468 C467 1.355 . S
C468 C470 1.419 . S
C469 C464 1.425 . S
C469 C466 1.409 . S
C469 C467 1.415 . S
C470 H460 0.930 . S
C470 C468 1.419 . S
C470 C471 1.362 . S
C471 H461 0.930 . S
C471 C464 1.409 . S
C471 C470 1.362 . S
H472 C478 0.929 . S
H473 C481 0.930 . S
H474 C482 0.930 . S
H475 C483 0.929 . S
H476 C486 0.930 . S
H477 C487 0.930 . S
C478 H472 0.929 . S
C478 C479 1.355 . S
C478 C480 1.415 1_655 S
C479 C478 1.355 . S
C479 C481 1.419 . S
C480 C478 1.415 1_455 S
C480 C485 1.425 1_455 S
C480 C487 1.409 . S
C481 H473 0.930 . S
C481 C479 1.419 . S
C481 C482 1.362 . S
C482 H474 0.930 . S
C482 C481 1.362 . S
C482 C485 1.409 . S
C483 H475 0.929 . S
C483 C484 1.355 . S
C483 C485 1.415 1_455 S
C484 C483 1.355 . S
C484 C486 1.419 . S
C485 C480 1.425 1_655 S
C485 C482 1.409 . S
C485 C483 1.415 1_655 S
C486 H476 0.930 . S
C486 C484 1.419 . S
C486 C487 1.362 . S
C487 H477 0.930 . S
C487 C480 1.409 . S
C487 C486 1.362 . S
H488 C494 0.930 . S
H489 C497 0.930 . S
H490 C498 0.930 . S
H491 C499 0.930 . S
H492 C502 0.930 . S
H493 C503 0.930 . S
C494 H488 0.930 . S
C494 C495 1.355 . S
C494 C496 1.415 . S
C495 C494 1.355 . S
C495 C497 1.419 . S
C496 C494 1.415 . S
C496 C501 1.425 1_545 S
C496 C503 1.409 . S
C497 H489 0.930 . S
C497 C495 1.419 . S
C497 C498 1.362 1_545 S
C498 H490 0.930 . S
C498 C497 1.362 1_565 S
C498 C501 1.409 . S
C499 H491 0.930 . S
C499 C500 1.355 . S
C499 C501 1.415 . S
C500 C499 1.355 . S
C500 C502 1.419 . S
C501 C496 1.425 1_565 S
C501 C498 1.409 . S
C501 C499 1.415 . S
C502 H492 0.930 . S
C502 C500 1.419 . S
C502 C503 1.362 1_565 S
C503 H493 0.930 . S
C503 C496 1.409 . S
C503 C502 1.362 1_545 S
H504 C510 0.930 . S
H505 C513 0.930 . S
H506 C514 0.930 . S
H507 C515 0.930 . S
H508 C518 0.930 . S
H509 C519 0.930 . S
C510 H504 0.930 . S
C510 C511 1.355 . S
C510 C512 1.415 . S
C511 C510 1.355 . S
C511 C513 1.419 . S
C512 C510 1.415 . S
C512 C517 1.425 . S
C512 C519 1.409 . S
C513 H505 0.930 . S
C513 C511 1.419 . S
C513 C514 1.362 . S
C514 H506 0.930 . S
C514 C513 1.362 . S
C514 C517 1.409 . S
C515 H507 0.930 . S
C515 C516 1.355 . S
C515 C517 1.415 . S
C516 C515 1.355 . S
C516 C518 1.419 . S
C517 C512 1.425 . S
C517 C514 1.409 . S
C517 C515 1.415 . S
C518 H508 0.930 . S
C518 C516 1.419 . S
C518 C519 1.362 . S
C519 H509 0.930 . S
C519 C512 1.409 . S
C519 C518 1.362 . S
H520 C526 0.930 . S
H521 C529 0.930 . S
H522 C530 0.930 . S
H523 C531 0.930 . S
H524 C534 0.930 . S
H525 C535 0.930 . S
C526 H520 0.930 . S
C526 C527 1.355 . S
C526 C528 1.415 . S
C527 C526 1.355 . S
C527 C529 1.419 . S
C528 C526 1.415 . S
C528 C533 1.425 1_455 S
C528 C535 1.409 . S
C529 H521 0.930 . S
C529 C527 1.419 . S
C529 C530 1.362 1_455 S
C530 H522 0.930 . S
C530 C529 1.362 1_655 S
C530 C533 1.409 . S
C531 H523 0.930 . S
C531 C532 1.355 . S
C531 C533 1.415 . S
C532 C531 1.355 . S
C532 C534 1.419 . S
C533 C528 1.425 1_655 S
C533 C530 1.409 . S
C533 C531 1.415 . S
C534 H524 0.930 . S
C534 C532 1.419 . S
C534 C535 1.362 1_655 S
C535 H525 0.930 . S
C535 C528 1.409 . S
C535 C534 1.362 1_455 S
H536 C542 0.930 . S
H537 C545 0.930 . S
H538 C546 0.930 . S
H539 C547 0.930 . S
H540 C550 0.930 . S
H541 C551 0.930 . S
C542 H536 0.930 . S
C542 C543 1.355 . S
C542 C544 1.415 . S
C543 C542 1.355 . S
C543 C545 1.419 . S
C544 C542 1.415 . S
C544 C549 1.425 1_565 S
C544 C551 1.409 . S
C545 H537 0.930 . S
C545 C543 1.419 . S
C545 C546 1.362 1_565 S
C546 H538 0.930 . S
C546 C545 1.362 1_545 S
C546 C549 1.409 . S
C547 H539 0.930 . S
C547 C548 1.355 . S
C547 C549 1.415 . S
C548 C547 1.355 . S
C548 C550 1.419 . S
C549 C544 1.425 1_545 S
C549 C546 1.409 . S
C549 C547 1.415 . S
C550 H540 0.930 . S
C550 C548 1.419 . S
C550 C551 1.362 1_545 S
C551 H541 0.930 . S
C551 C544 1.409 . S
C551 C550 1.362 1_565 S
C175 C105 1.220 . S
C180 C7 1.229 . S
C191 C21 1.253 . S
C196 C119 1.256 . S
C207 C35 1.210 . S
C212 C133 1.218 . S
C223 C49 1.254 . S
C228 C147 1.250 . S
C239 C161 1.224 . S
C244 C63 1.232 . S
C255 C91 1.205 . S
C260 C77 1.213 . S
C271 C149 1.695 . S
C276 C9 1.675 . S
C287 C23 1.708 . S
C292 C163 1.680 . S
C303 C37 1.670 . S
C308 C93 1.708 . S
C319 C107 1.691 . S
C324 C51 1.678 . S
C335 C121 1.707 . S
C340 C65 1.669 . S
C351 C135 1.702 . S
C356 C79 1.671 . S
C367 C6 1.694 . S
C372 C118 1.737 . S
C383 C20 1.717 . S
C388 C132 1.754 . S
C399 C146 1.714 . S
C404 C34 1.755 . S
C415 C48 1.709 . S
C420 C160 1.713 . S
C431 C90 1.693 . S
C436 C62 1.744 . S
C447 C104 1.692 . S
C452 C76 1.743 . S
C463 C50 1.331 . S
C468 C8 1.361 . S
C479 C64 1.320 . S
C484 C22 1.296 . S
C495 C36 1.352 . S
C500 C78 1.349 . S
C511 C92 1.352 . S
C516 C134 1.349 . S
C527 C106 1.310 . S
C532 C148 1.360 . S
C543 C162 1.336 . S
C548 C120 1.360 . S
