# Generated by pormake.
# Topology uni, (4)-cn, num edge types: 1
# Building blocks:
#     Node 0, Type 0, BuildingBlock: CEKHIL_clean_sbu_0, # of connection points: 4
#     Node 1, Type 0, BuildingBlock: CEKHIL_clean_sbu_0, # of connection points: 4
#     Node 2, Type 0, BuildingBlock: CEKHIL_clean_sbu_0, # of connection points: 4
#     Node 3, Type 0, BuildingBlock: CEKHIL_clean_sbu_0, # of connection points: 4
#     Node 4, Type 0, BuildingBlock: CEKHIL_clean_sbu_0, # of connection points: 4
#     Node 5, Type 0, BuildingBlock: CEKHIL_clean_sbu_0, # of connection points: 4
#     Edge 6, Type (0, 0), BuildingBlock: TEMPAE_clean_linker_10, # of connection points: 2
#     Edge 7, Type (0, 0), BuildingBlock: TEMPAE_clean_linker_10, # of connection points: 2
#     Edge 8, Type (0, 0), BuildingBlock: TEMPAE_clean_linker_10, # of connection points: 2
#     Edge 9, Type (0, 0), BuildingBlock: TEMPAE_clean_linker_10, # of connection points: 2
#     Edge 10, Type (0, 0), BuildingBlock: TEMPAE_clean_linker_10, # of connection points: 2
#     Edge 11, Type (0, 0), BuildingBlock: TEMPAE_clean_linker_10, # of connection points: 2
#     Edge 12, Type (0, 0), BuildingBlock: TEMPAE_clean_linker_10, # of connection points: 2
#     Edge 13, Type (0, 0), BuildingBlock: TEMPAE_clean_linker_10, # of connection points: 2
#     Edge 14, Type (0, 0), BuildingBlock: TEMPAE_clean_linker_10, # of connection points: 2
#     Edge 15, Type (0, 0), BuildingBlock: TEMPAE_clean_linker_10, # of connection points: 2
#     Edge 16, Type (0, 0), BuildingBlock: TEMPAE_clean_linker_10, # of connection points: 2
#     Edge 17, Type (0, 0), BuildingBlock: TEMPAE_clean_linker_10, # of connection points: 2
# Relax obj value: 0.073
# Max RMSD: 0.102
# Mean RMSD: 0.095
data_MOF--net-uni--node1-CEKHIL_clean_sbu_0--edge1-TEMPAE_clean_linker_10
_symmetry_space_group_name_H-M    P1
_symmetry_Int_Tables_number       1
_symmetry_cell_setting            triclinic
loop_
_symmetry_equiv_pos_as_xyz
'x, y, z'
_cell_length_a     39.052801
_cell_length_b     38.636078
_cell_length_c     23.329391
_cell_angle_alpha  89.975041
_cell_angle_beta   90.016147
_cell_angle_gamma 121.03349
loop_
_atom_site_label
_atom_site_type_symbol
_atom_site_fract_x
_atom_site_fract_y
_atom_site_fract_z
_atom_type_partial_charge
Co0 Co 0.66368 0.03265 0.07204 0.0
O1 O 0.68619 0.00987 0.12281 0.0
O2 O 0.6383 0.97504 0.05967 0.0
C3 C 0.72291 0.08635 0.04369 0.0
O4 O 0.63383 0.04444 0.01017 0.0
Co5 Co 0.67475 0.11729 0.09029 0.0
O6 O 0.64737 0.10839 0.01567 0.0
C7 C 0.61544 0.04846 0.16014 0.0
C8 C 0.66201 0.97525 0.09896 0.0
C9 C 0.63053 0.07397 0.9914 0.0
O10 O 0.62238 0.02394 0.13213 0.0
O11 O 0.6344 0.08664 0.1517 0.0
O12 O 0.70915 0.05115 0.02004 0.0
O13 O 0.70211 0.08737 0.086 0.0
Co14 Co 0.66266 0.66604 0.23838 0.0
O15 O 0.70995 0.68955 0.28624 0.0
O16 O 0.69399 0.64147 0.22212 0.0
C17 C 0.66731 0.72485 0.21206 0.0
O18 O 0.61862 0.63543 0.17918 0.0
Co19 Co 0.58955 0.6745 0.26592 0.0
O20 O 0.56811 0.64674 0.19143 0.0
C21 C 0.60479 0.6203 0.33544 0.0
C22 C 0.71897 0.66536 0.26079 0.0
C23 C 0.58494 0.63107 0.16378 0.0
O24 O 0.6312 0.62373 0.29908 0.0
O25 O 0.58778 0.64104 0.33297 0.0
O26 O 0.68851 0.71243 0.18615 0.0
O27 O 0.64702 0.70344 0.25556 0.0
Co28 Co 0.02713 0.66505 0.38933 0.0
O29 O 1.00423 0.68653 0.33674 0.0
O30 O 0.97031 0.63988 0.40236 0.0
C31 C 0.08064 0.72547 0.41462 0.0
O32 O 0.03886 0.63603 0.45279 0.0
Co33 Co 0.11095 0.67553 0.37506 0.0
O34 O 0.10442 0.65798 0.45625 0.0
C35 C 0.04282 0.61447 0.30561 0.0
C36 C 0.97017 0.66275 0.36163 0.0
C37 C 0.06941 0.63809 0.47735 0.0
O38 O 0.01836 0.62204 0.33182 0.0
O39 O 0.08052 0.63345 0.31489 0.0
O40 O 0.04608 0.71255 0.43866 0.0
O41 O 0.08115 0.70298 0.37414 0.0
Co42 Co 0.39515 0.02853 0.57205 0.0
O43 O 0.37163 0.05087 0.62153 0.0
O44 O 0.42155 0.08647 0.56157 0.0
C45 C 0.33612 0.97594 0.54088 0.0
O46 O 0.42628 0.01713 0.51222 0.0
Co47 Co 0.38157 0.9426 0.58781 0.0
O48 O 0.40514 0.95094 0.5099 0.0
C49 C 0.43593 0.00866 0.66623 0.0
C50 C 0.39658 0.08577 0.59908 0.0
C51 C 0.42568 0.98646 0.48936 0.0
O52 O 0.43434 0.03502 0.63417 0.0
O53 O 0.41449 0.97051 0.65763 0.0
O54 O 0.35098 0.01142 0.51758 0.0
O55 O 0.35596 0.97407 0.58375 0.0
Co56 Co 0.39405 0.39353 0.73949 0.0
O57 O 0.34661 0.37035 0.78714 0.0
O58 O 0.36391 0.41956 0.72448 0.0
C59 C 0.38777 0.33421 0.71177 0.0
O60 O 0.43828 0.42433 0.68068 0.0
Co61 Co 0.46597 0.38238 0.76313 0.0
O62 O 0.48588 0.40843 0.68715 0.0
C63 C 0.45203 0.43584 0.83729 0.0
C64 C 0.33846 0.39548 0.76255 0.0
C65 C 0.4704 0.42649 0.66222 0.0
O66 O 0.42621 0.43444 0.80142 0.0
O67 O 0.46789 0.41408 0.83247 0.0
O68 O 0.36745 0.34777 0.686 0.0
O69 O 0.40846 0.35509 0.75526 0.0
Co70 Co 0.03087 0.39755 0.88917 0.0
O71 O 0.0541 0.37673 0.83604 0.0
O72 O 0.0878 0.42322 0.90187 0.0
C73 C 0.9778 0.3368 0.91474 0.0
O74 O 0.01881 0.42577 0.95339 0.0
Co75 Co 0.94648 0.38583 0.87522 0.0
O76 O 0.95353 0.40497 0.95551 0.0
C77 C 0.01427 0.44847 0.8068 0.0
C78 C 0.08813 0.4006 0.86095 0.0
C79 C 0.98837 0.42436 0.97733 0.0
O80 O 0.039 0.44077 0.83205 0.0
O81 O 0.97659 0.42891 0.81639 0.0
O82 O 0.01256 0.34998 0.93828 0.0
O83 O 0.97693 0.3591 0.87426 0.0
C84 C 0.55519 0.04438 0.20248 0.0
C85 C 0.58355 0.0325 0.20378 0.0
C86 C 0.5272 0.03373 0.24677 0.0
C87 C 0.52853 0.01188 0.2946 0.0
C88 C 0.55662 0.99899 0.29546 0.0
C89 C 0.58347 0.00895 0.24945 0.0
C90 C 0.49702 0.04699 0.24312 0.0
C91 C 0.55968 0.97654 0.34626 0.0
C92 C 0.48854 0.02902 0.43372 0.0
C93 C 0.45156 0.99303 0.4391 0.0
C94 C 0.51426 0.03502 0.38773 0.0
C95 C 0.50218 1.00483 0.34502 0.0
C96 C 0.46453 0.96869 0.34975 0.0
C97 C 0.43994 0.96294 0.39723 0.0
C98 C 0.55451 0.0736 0.38507 0.0
C99 C 0.44996 0.93639 0.3042 0.0
H100 H 0.55526 0.06251 0.16692 0.0
H101 H 0.60574 1.00018 0.25061 0.0
H102 H 0.46652 0.0211 0.25178 0.0
H103 H 0.50371 0.07026 0.27619 0.0
H104 H 0.49714 0.05984 0.20046 0.0
H105 H 0.58164 0.96686 0.33909 0.0
H106 H 0.56893 0.99629 0.38468 0.0
H107 H 0.53016 0.94949 0.35589 0.0
H108 H 0.49782 0.05216 0.46634 0.0
H109 H 0.41126 0.93517 0.40109 0.0
H110 H 0.55628 0.09108 0.34631 0.0
H111 H 0.57858 0.06648 0.38166 0.0
H112 H 0.56034 0.093 0.42331 0.0
H113 H 0.44895 0.94923 0.26211 0.0
H114 H 0.41975 0.91025 0.31387 0.0
H115 H 0.47103 0.92537 0.29989 0.0
C116 C 0.60045 0.60195 0.43829 0.0
C117 C 0.59143 0.58975 0.38109 0.0
C118 C 0.5828 0.57393 0.48316 0.0
C119 C 0.55459 0.53297 0.47038 0.0
C120 C 0.54623 0.5204 0.41237 0.0
C121 C 0.56504 0.54898 0.36831 0.0
C122 C 0.59311 0.58849 0.54429 0.0
C123 C 0.51589 0.47724 0.39687 0.0
C124 C 0.52605 0.45535 0.5896 0.0
C125 C 0.49099 0.45222 0.61132 0.0
C126 C 0.54671 0.48095 0.54319 0.0
C127 C 0.53205 0.50405 0.51771 0.0
C128 C 0.49633 0.50051 0.53866 0.0
C129 C 0.47627 0.4747 0.58508 0.0
C130 C 0.58466 0.48387 0.52211 0.0
C131 C 0.47958 0.5245 0.51258 0.0
H132 H 0.6206 0.63366 0.44788 0.0
H133 H 0.55763 0.53986 0.32391 0.0
H134 H 0.5666 0.58612 0.56567 0.0
H135 H 0.60144 0.56923 0.5686 0.0
H136 H 0.61814 0.62036 0.54687 0.0
H137 H 0.51491 0.47171 0.35 0.0
H138 H 0.5227 0.45619 0.41937 0.0
H139 H 0.48577 0.46997 0.41105 0.0
H140 H 0.53772 0.43811 0.60926 0.0
H141 H 0.44925 0.47259 0.60125 0.0
H142 H 0.61016 0.5152 0.52773 0.0
H143 H 0.58227 0.47691 0.47564 0.0
H144 H 0.59142 0.46295 0.54525 0.0
H145 H 0.50121 0.55728 0.51802 0.0
H146 H 0.45073 0.51721 0.53236 0.0
H147 H 0.47493 0.5185 0.46587 0.0
C148 C 0.01328 0.50684 0.76404 0.0
C149 C 0.02916 0.48154 0.7644 0.0
C150 C 0.02284 0.53534 0.72036 0.0
C151 C 0.04795 0.53779 0.67485 0.0
C152 C 0.06514 0.51317 0.67595 0.0
C153 C 0.05596 0.48566 0.7213 0.0
C154 C 1.00485 0.5618 0.72192 0.0
C155 C 0.09139 0.51426 0.62767 0.0
C156 C 0.03003 0.57413 0.5327 0.0
C157 C 0.06325 0.6134 0.52908 0.0
C158 C 0.02527 0.54897 0.57925 0.0
C159 C 0.0537 0.56393 0.62431 0.0
C160 C 0.08677 0.604 0.62154 0.0
C161 C 0.09156 0.62801 0.57338 0.0
C162 C 0.99009 0.50614 0.57981 0.0
C163 C 0.11686 0.62158 0.66964 0.0
H164 H 0.99278 0.50386 0.7977 0.0
H165 H 0.06798 0.46585 0.72137 0.0
H166 H 0.02828 0.59385 0.71461 0.0
H167 H 0.98251 0.55285 0.68707 0.0
H168 H 0.98982 0.55948 0.76339 0.0
H169 H 0.1044 0.49514 0.63661 0.0
H170 H 0.07355 0.5034 0.58764 0.0
H171 H 0.11607 0.54567 0.61978 0.0
H172 H 1.0084 0.56261 0.49808 0.0
H173 H 0.1172 0.65845 0.57064 0.0
H174 H 0.97059 0.50166 0.61706 0.0
H175 H 1.00073 0.48462 0.58456 0.0
H176 H 0.97188 0.49852 0.54012 0.0
H177 H 0.10149 0.61987 0.71047 0.0
H178 H 0.14029 0.65358 0.66162 0.0
H179 H 0.13153 0.60372 0.67545 0.0
C180 C 0.58148 0.08598 0.94021 0.0
C181 C 0.60415 0.06726 0.94176 0.0
C182 C 0.55471 0.07866 0.89518 0.0
C183 C 0.55139 0.05295 0.84956 0.0
C184 C 0.57515 0.03493 0.85001 0.0
C185 C 0.60074 0.04173 0.89666 0.0
C186 C 0.52901 0.09737 0.89743 0.0
C187 C 0.57325 0.00817 0.80147 0.0
C188 C 0.45509 0.99803 0.76366 0.0
C189 C 0.46459 0.02228 0.71458 0.0
C190 C 0.48274 0.00822 0.8083 0.0
C191 C 0.52134 0.04301 0.80323 0.0
C192 C 0.53104 0.06792 0.75402 0.0
C193 C 0.50231 0.05754 0.71055 0.0
C194 C 0.47071 0.98144 0.86068 0.0
C195 C 0.57212 0.10479 0.7465 0.0
H196 H 0.58371 0.1054 0.97535 0.0
H197 H 0.61842 0.02743 0.89757 0.0
H198 H 0.53339 0.11539 0.85818 0.0
H199 H 0.497 0.0732 0.89891 0.0
H200 H 0.53571 0.11722 0.93539 0.0
H201 H 0.59594 0.99918 0.80593 0.0
H202 H 0.5432 0.98043 0.80001 0.0
H203 H 0.57794 0.02398 0.75988 0.0
H204 H 0.42585 0.97088 0.76713 0.0
H205 H 0.5099 0.07611 0.67239 0.0
H206 H 0.47579 0.99965 0.89998 0.0
H207 H 0.48944 0.96762 0.8642 0.0
H208 H 0.43883 0.95685 0.85941 0.0
H209 H 0.57928 0.12578 0.78305 0.0
H210 H 0.5748 0.12125 0.7061 0.0
H211 H 0.59483 0.09569 0.74619 0.0
C212 C 0.58531 0.59884 0.07062 0.0
C213 C 0.56396 0.60534 0.11333 0.0
C214 C 0.5655 0.57315 0.02396 0.0
C215 C 0.52325 0.55268 0.0206 0.0
C216 C 0.5016 0.55951 0.06323 0.0
C217 C 0.52223 0.58607 0.10869 0.0
C218 C 0.58978 0.56729 0.97883 0.0
C219 C 0.45652 0.53757 0.06204 0.0
C220 C 0.47314 0.50397 0.87847 0.0
C221 C 0.46579 0.46469 0.88569 0.0
C222 C 0.49149 0.53299 0.92222 0.0
C223 C 0.50167 0.52204 0.97476 0.0
C224 C 0.49245 0.48182 0.98302 0.0
C225 C 0.47514 0.45385 0.93818 0.0
C226 C 0.50154 0.57573 0.91135 0.0
C227 C 0.5018 0.46851 0.03878 0.0
H228 H 0.61756 0.61385 0.07365 0.0
H229 H 0.50547 0.59068 0.14174 0.0
H230 H 0.58316 0.53571 0.98014 0.0
H231 H 0.5815 0.57245 0.93551 0.0
H232 H 0.62243 0.58794 0.98499 0.0
H233 H 0.44421 0.54758 0.09691 0.0
H234 H 0.44601 0.5424 0.0203 0.0
H235 H 0.44412 0.50461 0.06658 0.0
H236 H 0.46632 0.51252 0.8377 0.0
H237 H 0.46925 0.4234 0.94397 0.0
H238 H 0.53446 0.59634 0.91205 0.0
H239 H 0.489 0.58574 0.94578 0.0
H240 H 0.49 0.57896 0.8694 0.0
H241 H 0.53462 0.48454 0.04517 0.0
H242 H 0.48992 0.43548 0.03986 0.0
H243 H 0.48898 0.47645 0.07534 0.0
C244 C 0.03265 0.4799 0.04553 0.0
C245 C 0.99434 0.44854 0.02994 0.0
C246 C 0.03823 0.50519 0.09233 0.0
C247 C 1.00479 0.49866 0.12493 0.0
C248 C 0.96623 0.46628 0.11058 0.0
C249 C 0.96142 0.44181 0.0631 0.0
C250 C 0.07984 0.53959 0.10598 0.0
C251 C 0.92995 0.45784 0.14494 0.0
C252 C 0.02899 0.5475 0.27237 0.0
C253 C 0.0274 0.58234 0.26221 0.0
C254 C 0.01988 0.519 0.22874 0.0
C255 C 1.01023 0.5263 0.17326 0.0
C256 C 1.00774 0.56116 0.16331 0.0
C257 C 0.01599 0.58863 0.20823 0.0
C258 C 0.02194 0.48181 0.24155 0.0
C259 C 0.99825 0.57043 0.10458 0.0
H260 H 0.05825 0.48549 0.02013 0.0
H261 H 0.93173 0.41749 0.05172 0.0
H262 H 0.08089 0.56877 0.10247 0.0
H263 H 0.08782 0.53697 0.15074 0.0
H264 H 0.10273 0.54038 0.07684 0.0
H265 H 0.90235 0.43023 0.13008 0.0
H266 H 0.93461 0.45414 0.19093 0.0
H267 H 0.92538 0.48382 0.14167 0.0
H268 H 0.03815 0.54299 0.31424 0.0
H269 H 0.01544 0.61602 0.20045 0.0
H270 H 0.04731 0.4833 0.21791 0.0
H271 H 0.99428 0.45431 0.2268 0.0
H272 H 0.02599 0.47866 0.28801 0.0
H273 H 0.02201 0.57507 0.07397 0.0
H274 H 0.99589 0.59789 0.10448 0.0
H275 H 0.96973 0.54457 0.08862 0.0
C276 C 0.68937 0.7847 0.14727 0.0
C277 C 0.66581 0.76075 0.19309 0.0
C278 C 0.6888 0.81939 0.13032 0.0
C279 C 0.66402 0.83033 0.15979 0.0
C280 C 0.63985 0.80593 0.20563 0.0
C281 C 0.64108 0.77155 0.22173 0.0
C282 C 0.71504 0.8446 0.08127 0.0
C283 C 0.6129 0.81636 0.23808 0.0
C284 C 0.68934 0.93966 0.1557 0.0
C285 C 0.66226 0.9381 0.11474 0.0
C286 C 0.69046 0.90495 0.17035 0.0
C287 C 0.6638 0.86763 0.14351 0.0
C288 C 0.63639 0.86585 0.1021 0.0
C289 C 0.63597 0.90107 0.08819 0.0
C290 C 0.72016 0.90819 0.21468 0.0
C291 C 0.60739 0.82667 0.07263 0.0
H292 H 0.70855 0.77657 0.12493 0.0
H293 H 0.62272 0.7532 0.25713 0.0
H294 H 0.69657 0.84717 0.04733 0.0
H295 H 0.73655 0.87564 0.09647 0.0
H296 H 0.73207 0.83167 0.06212 0.0
H297 H 0.59534 0.79382 0.27188 0.0
H298 H 0.631 0.84644 0.25849 0.0
H299 H 0.59184 0.8182 0.20807 0.0
H300 H 0.70985 0.96813 0.17633 0.0
H301 H 0.61499 0.89956 0.05641 0.0
H302 H 0.73969 0.89807 0.1961 0.0
H303 H 0.70414 0.88804 0.25146 0.0
H304 H 0.73927 0.93951 0.23095 0.0
H305 H 0.62393 0.81443 0.05022 0.0
H306 H 0.58826 0.83039 0.04097 0.0
H307 H 0.58783 0.8039 0.1049 0.0
C308 C 0.89847 0.64116 0.37891 0.0
C309 C 0.9332 0.66252 0.34562 0.0
C310 C 0.86357 0.64156 0.36539 0.0
C311 C 0.86318 0.66358 0.31708 0.0
C312 C 0.89806 0.68494 0.28303 0.0
C313 C 0.93266 0.68429 0.29783 0.0
C314 C 0.82717 0.61858 0.40305 0.0
C315 C 0.89885 0.70859 0.231 0.0
C316 C 0.76248 0.63542 0.25198 0.0
C317 C 0.75589 0.66502 0.27509 0.0
C318 C 0.79718 0.63458 0.26528 0.0
C319 C 0.82627 0.66426 0.30227 0.0
C320 C 0.8199 0.69438 0.32548 0.0
C321 C 0.78476 0.69431 0.3118 0.0
C322 C 0.80265 0.60179 0.23993 0.0
C323 C 0.85022 0.7267 0.36483 0.0
H324 H 0.89864 0.6244 0.41608 0.0
H325 H 0.95933 0.70085 0.27183 0.0
H326 H 0.81855 0.63958 0.42112 0.0
H327 H 0.80153 0.59582 0.37722 0.0
H328 H 0.83227 0.6029 0.43899 0.0
H329 H 0.92817 0.7233 0.2087 0.0
H330 H 0.87528 0.68831 0.20029 0.0
H331 H 0.89228 0.73223 0.24382 0.0
H332 H 0.74033 0.61262 0.22368 0.0
H333 H 0.78001 0.71738 0.32972 0.0
H334 H 0.80544 0.58382 0.27474 0.0
H335 H 0.83069 0.61546 0.2146 0.0
H336 H 0.77736 0.58104 0.21173 0.0
H337 H 0.85458 0.71259 0.40339 0.0
H338 H 0.84105 0.74823 0.37883 0.0
H339 H 0.87954 0.74388 0.34285 0.0
C340 C 0.1546 0.77235 0.40968 0.0
C341 C 0.11762 0.76267 0.43321 0.0
C342 C 0.19008 0.8075 0.42607 0.0
C343 C 0.18865 0.8339 0.46674 0.0
C344 C 0.15138 0.82445 0.49045 0.0
C345 C 0.1163 0.78884 0.47356 0.0
C346 C 0.22919 0.8162 0.40016 0.0
C347 C 0.14861 0.85189 0.5338 0.0
C348 C 0.28375 0.90292 0.54982 0.0
C349 C 0.29874 0.93979 0.52081 0.0
C350 C 0.24788 0.86842 0.53292 0.0
C351 C 0.22637 0.87068 0.48569 0.0
C352 C 0.24138 0.90778 0.45602 0.0
C353 C 0.2774 0.94194 0.47397 0.0
C354 C 0.23303 0.82948 0.56565 0.0
C355 C 0.21937 0.91135 0.40531 0.0
H356 H 0.15592 0.75231 0.37848 0.0
H357 H 0.08783 0.78163 0.49173 0.0
H358 H 0.24412 0.84606 0.37857 0.0
H359 H 0.24957 0.81762 0.43445 0.0
H360 H 0.22514 0.79291 0.36851 0.0
H361 H 0.11731 0.8408 0.54713 0.0
H362 H 0.16636 0.85447 0.57242 0.0
H363 H 0.16149 0.8827 0.51567 0.0
H364 H 0.29999 0.90099 0.58615 0.0
H365 H 0.28877 0.97033 0.45141 0.0
H366 H 0.23045 0.80562 0.5364 0.0
H367 H 0.20278 0.81891 0.58311 0.0
H368 H 0.25312 0.83284 0.6017 0.0
H369 H 0.21648 0.89004 0.37115 0.0
H370 H 0.23475 0.94239 0.38721 0.0
H371 H 0.18868 0.90293 0.4182 0.0
C372 C 0.40725 0.28267 0.72694 0.0
C373 C 0.38872 0.29809 0.69245 0.0
C374 C 0.40853 0.24842 0.71049 0.0
C375 C 0.39114 0.22908 0.65787 0.0
C376 C 0.37263 0.24465 0.6225 0.0
C377 C 0.37146 0.27889 0.64034 0.0
C378 C 0.42829 0.23275 0.74974 0.0
C379 C 0.35397 0.22505 0.56594 0.0
C380 C 0.42573 0.16086 0.59566 0.0
C381 C 0.39535 0.12253 0.61384 0.0
C382 C 0.42451 0.19574 0.60899 0.0
C383 C 0.3919 0.19221 0.6407 0.0
C384 C 0.36088 0.1535 0.65844 0.0
C385 C 0.3631 0.11923 0.64511 0.0
C386 C 0.45838 0.23645 0.58979 0.0
C387 C 0.32546 0.14832 0.69198 0.0
H388 H 0.42057 0.29722 0.76737 0.0
H389 H 0.35722 0.29071 0.61339 0.0
H390 H 0.40635 0.20129 0.76285 0.0
H391 H 0.45283 0.23211 0.72678 0.0
H392 H 0.44075 0.25146 0.78896 0.0
H393 H 0.3413 0.24114 0.54299 0.0
H394 H 0.37661 0.22438 0.53801 0.0
H395 H 0.32979 0.19328 0.57307 0.0
H396 H 0.45072 0.16368 0.57141 0.0
H397 H 0.33931 0.08971 0.65891 0.0
H398 H 0.47341 0.2557 0.62772 0.0
H399 H 0.44661 0.25207 0.56374 0.0
H400 H 0.48099 0.23402 0.56409 0.0
H401 H 0.33568 0.16447 0.73351 0.0
H402 H 0.30309 0.11607 0.70065 0.0
H403 H 0.31062 0.16185 0.66811 0.0
C404 C 0.12582 0.3791 0.79747 0.0
C405 C 0.12519 0.40096 0.84507 0.0
C406 C 0.16039 0.37826 0.78312 0.0
C407 C 0.19517 0.3995 0.81742 0.0
C408 C 0.19472 0.42173 0.86542 0.0
C409 C 0.15986 0.42232 0.8785 0.0
C410 C 0.15965 0.35443 0.73136 0.0
C411 C 0.23102 0.44462 0.90332 0.0
C412 C 0.27273 0.36754 0.81356 0.0
C413 C 0.30189 0.39653 0.77685 0.0
C414 C 0.23783 0.36803 0.8269 0.0
C415 C 0.23196 0.39839 0.80328 0.0
C416 C 0.26137 0.42782 0.76635 0.0
C417 C 0.29585 0.42646 0.75347 0.0
C418 C 0.20719 0.33601 0.86628 0.0
C419 C 0.25644 0.46083 0.7405 0.0
H420 H 0.09921 0.36254 0.77135 0.0
H421 H 0.15965 0.43915 0.91551 0.0
H422 H 0.18353 0.37451 0.70089 0.0
H423 H 0.16575 0.33054 0.74462 0.0
H424 H 0.13049 0.34001 0.70864 0.0
H425 H 0.22596 0.46062 0.93883 0.0
H426 H 0.23927 0.4235 0.922 0.0
H427 H 0.25686 0.4671 0.87754 0.0
H428 H 0.27705 0.34423 0.83171 0.0
H429 H 0.31821 0.44904 0.72514 0.0
H430 H 0.17797 0.31892 0.84403 0.0
H431 H 0.20278 0.35038 0.90447 0.0
H432 H 0.21606 0.31436 0.88088 0.0
H433 H 0.22858 0.44736 0.71479 0.0
H434 H 0.28198 0.4814 0.71255 0.0
H435 H 0.25363 0.47895 0.77503 0.0
C436 C 0.90402 0.28888 0.90931 0.0
C437 C 0.94091 0.29992 0.93452 0.0
C438 C 0.86862 0.25407 0.92686 0.0
C439 C 0.87002 0.22946 0.97065 0.0
C440 C 0.90717 0.24038 0.99631 0.0
C441 C 0.94219 0.27554 0.978 0.0
C442 C 0.82966 0.24366 0.89855 0.0
C443 C 0.9099 0.2149 0.04308 0.0
C444 C 0.77362 0.16017 0.05137 0.0
C445 C 0.76026 0.1229 0.02437 0.0
C446 C 0.80938 0.19497 0.03462 0.0
C447 C 0.83246 0.1925 0.98977 0.0
C448 C 0.81913 0.15494 0.96232 0.0
C449 C 0.78318 0.12061 0.9799 0.0
C450 C 0.8224 0.23442 0.06482 0.0
C451 C 0.84285 0.15106 0.91431 0.0
H452 H 0.90271 0.30753 0.87567 0.0
H453 H 0.97058 0.28385 0.99763 0.0
H454 H 0.81584 0.21337 0.87844 0.0
H455 H 0.80835 0.24234 0.93119 0.0
H456 H 0.83365 0.26596 0.86516 0.0
H457 H 0.94103 0.22735 0.05842 0.0
H458 H 0.891 0.21279 0.07997 0.0
H459 H 0.89832 0.18373 0.0272 0.0
H460 H 0.75612 0.16221 0.08582 0.0
H461 H 0.77311 0.09191 0.95893 0.0
H462 H 0.82479 0.25719 0.03351 0.0
H463 H 0.85244 0.24638 0.08397 0.0
H464 H 0.8013 0.23121 0.09925 0.0
H465 H 0.84579 0.17116 0.87827 0.0
H466 H 0.82875 0.11962 0.89796 0.0
H467 H 0.87349 0.16083 0.92933 0.0
loop_
_geom_bond_atom_site_label_1
_geom_bond_atom_site_label_2
_geom_bond_distance
_geom_bond_site_symmetry_2
_ccdc_geom_bond_type
Co0 O1 2.216 1_545 S
Co0 O2 2.091 1_545 S
Co0 O4 2.004 1_554 S
Co0 O10 2.021 . S
Co0 O12 2.137 . S
Co0 O13 2.244 . S
O1 Co0 2.216 1_565 S
O1 C8 1.247 . S
O2 Co0 2.091 1_565 S
O2 C8 1.261 . S
C3 O12 1.247 . S
C3 O13 1.272 . S
O4 Co0 2.004 1_556 S
O4 C9 1.259 . S
Co5 O6 2.061 . S
Co5 O11 2.052 . S
Co5 O13 2.135 . S
O6 Co5 2.061 . S
O6 C9 1.235 1_554 S
C7 O10 1.238 . S
C7 O11 1.241 . S
C8 O1 1.247 . S
C8 O2 1.261 . S
C9 O4 1.259 . S
C9 O6 1.235 1_556 S
O10 Co0 2.021 . S
O10 C7 1.238 . S
O11 Co5 2.052 . S
O11 C7 1.241 . S
O12 Co0 2.137 . S
O12 C3 1.247 . S
O13 Co0 2.244 . S
O13 C3 1.272 . S
O13 Co5 2.135 . S
Co14 O15 2.216 . S
Co14 O16 2.091 . S
Co14 O18 2.004 . S
Co14 O24 2.021 . S
Co14 O26 2.137 . S
Co14 O27 2.244 . S
O15 Co14 2.216 . S
O15 C22 1.247 . S
O16 Co14 2.091 . S
O16 C22 1.261 . S
C17 O26 1.247 . S
C17 O27 1.272 . S
O18 Co14 2.004 . S
O18 C23 1.259 . S
Co19 O20 2.061 . S
Co19 O25 2.052 . S
Co19 O27 2.135 . S
O20 Co19 2.061 . S
O20 C23 1.235 . S
C21 O24 1.238 . S
C21 O25 1.241 . S
C22 O15 1.247 . S
C22 O16 1.261 . S
C23 O18 1.259 . S
C23 O20 1.235 . S
O24 Co14 2.021 . S
O24 C21 1.238 . S
O25 Co19 2.052 . S
O25 C21 1.241 . S
O26 Co14 2.137 . S
O26 C17 1.247 . S
O27 Co14 2.244 . S
O27 C17 1.272 . S
O27 Co19 2.135 . S
Co28 O29 2.216 1_455 S
Co28 O30 2.091 1_455 S
Co28 O32 2.004 . S
Co28 O38 2.026 1_455 S
Co28 O40 2.137 . S
Co28 O41 2.244 . S
O29 Co28 2.216 1_655 S
O29 C36 1.247 . S
O30 Co28 2.091 1_655 S
O30 C36 1.261 . S
C31 O40 1.247 . S
C31 O41 1.272 . S
O32 Co28 2.004 . S
O32 C37 1.259 . S
Co33 O34 2.061 . S
Co33 O39 2.052 . S
Co33 O41 2.135 . S
O34 Co33 2.061 . S
O34 C37 1.235 . S
C35 O38 1.218 1_455 S
C35 O39 1.241 . S
C36 O29 1.247 . S
C36 O30 1.261 . S
C37 O32 1.259 . S
C37 O34 1.235 . S
O38 Co28 2.026 1_655 S
O38 C35 1.218 1_655 S
O39 Co33 2.052 . S
O39 C35 1.241 . S
O40 Co28 2.137 . S
O40 C31 1.247 . S
O41 Co28 2.244 . S
O41 C31 1.272 . S
O41 Co33 2.135 . S
Co42 O43 2.216 . S
Co42 O44 2.091 . S
Co42 O46 2.004 . S
Co42 O52 2.021 . S
Co42 O54 2.137 . S
Co42 O55 2.244 1_545 S
O43 Co42 2.216 . S
O43 C50 1.247 . S
O44 Co42 2.091 . S
O44 C50 1.261 . S
C45 O54 1.247 1_565 S
C45 O55 1.272 . S
O46 Co42 2.004 . S
O46 C51 1.259 . S
Co47 O48 2.061 . S
Co47 O53 2.052 . S
Co47 O55 2.135 . S
O48 Co47 2.061 . S
O48 C51 1.235 1_565 S
C49 O52 1.238 . S
C49 O53 1.241 1_545 S
C50 O43 1.247 . S
C50 O44 1.261 . S
C51 O46 1.259 . S
C51 O48 1.235 1_545 S
O52 Co42 2.021 . S
O52 C49 1.238 . S
O53 Co47 2.052 . S
O53 C49 1.241 1_565 S
O54 Co42 2.137 . S
O54 C45 1.247 1_545 S
O55 Co42 2.244 1_565 S
O55 C45 1.272 . S
O55 Co47 2.135 . S
Co56 O57 2.216 . S
Co56 O58 2.091 . S
Co56 O60 2.004 . S
Co56 O66 2.021 . S
Co56 O68 2.137 . S
Co56 O69 2.244 . S
O57 Co56 2.216 . S
O57 C64 1.247 . S
O58 Co56 2.091 . S
O58 C64 1.261 . S
C59 O68 1.247 . S
C59 O69 1.272 . S
O60 Co56 2.004 . S
O60 C65 1.259 . S
Co61 O62 2.061 . S
Co61 O67 2.052 . S
Co61 O69 2.135 . S
O62 Co61 2.061 . S
O62 C65 1.235 . S
C63 O66 1.238 . S
C63 O67 1.241 . S
C64 O57 1.247 . S
C64 O58 1.261 . S
C65 O60 1.259 . S
C65 O62 1.235 . S
O66 Co56 2.021 . S
O66 C63 1.238 . S
O67 Co61 2.052 . S
O67 C63 1.241 . S
O68 Co56 2.137 . S
O68 C59 1.247 . S
O69 Co56 2.244 . S
O69 C59 1.272 . S
O69 Co61 2.135 . S
Co70 O71 2.216 . S
Co70 O72 2.091 . S
Co70 O74 2.004 . S
Co70 O80 2.021 . S
Co70 O82 2.137 1_455 S
Co70 O83 2.244 1_455 S
O71 Co70 2.216 . S
O71 C78 1.247 . S
O72 Co70 2.091 . S
O72 C78 1.261 . S
C73 O82 1.247 . S
C73 O83 1.272 . S
O74 Co70 2.004 . S
O74 C79 1.258 1_556 S
Co75 O76 2.061 . S
Co75 O81 2.052 . S
Co75 O83 2.135 . S
O76 Co75 2.061 . S
O76 C79 1.233 1_656 S
C77 O80 1.238 . S
C77 O81 1.241 1_455 S
C78 O71 1.247 . S
C78 O72 1.261 . S
C79 O74 1.258 1_554 S
C79 O76 1.233 1_454 S
O80 Co70 2.021 . S
O80 C77 1.238 . S
O81 Co75 2.052 . S
O81 C77 1.241 1_655 S
O82 Co70 2.137 1_655 S
O82 C73 1.247 . S
O83 Co70 2.244 1_655 S
O83 C73 1.272 . S
O83 Co75 2.135 . S
C84 C85 1.391 . S
C84 C86 1.394 . S
C84 H100 0.931 . S
C85 C84 1.391 . S
C85 C89 1.376 1_545 S
C86 C84 1.394 . S
C86 C87 1.369 . S
C86 C90 1.531 . S
C87 C86 1.369 . S
C87 C88 1.410 1_545 S
C87 C95 1.503 . S
C88 C87 1.410 1_565 S
C88 C89 1.392 . S
C88 C91 1.511 . S
C89 C85 1.376 1_565 S
C89 C88 1.392 . S
C89 H101 0.929 . S
C90 C86 1.531 . S
C90 H102 0.960 . S
C90 H103 0.962 . S
C90 H104 0.960 . S
C91 C88 1.511 . S
C91 H105 0.961 . S
C91 H106 0.961 . S
C91 H107 0.961 . S
C92 C93 1.370 . S
C92 C94 1.363 . S
C92 H108 0.931 . S
C93 C92 1.370 . S
C93 C97 1.408 1_545 S
C94 C92 1.363 . S
C94 C95 1.370 . S
C94 C98 1.524 . S
C95 C87 1.503 . S
C95 C94 1.370 . S
C95 C96 1.403 1_545 S
C96 C95 1.403 1_565 S
C96 C97 1.404 . S
C96 C99 1.539 . S
C97 C93 1.408 1_565 S
C97 C96 1.404 . S
C97 H109 0.930 . S
C98 C94 1.524 . S
C98 H110 0.956 . S
C98 H111 0.961 . S
C98 H112 0.961 . S
C99 C96 1.539 . S
C99 H113 0.958 . S
C99 H114 0.961 . S
C99 H115 0.960 . S
H100 C84 0.931 . S
H101 C89 0.929 . S
H102 C90 0.960 . S
H103 C90 0.962 . S
H104 C90 0.960 . S
H105 C91 0.961 . S
H106 C91 0.961 . S
H107 C91 0.961 . S
H108 C92 0.931 . S
H109 C97 0.930 . S
H110 C98 0.956 . S
H111 C98 0.961 . S
H112 C98 0.961 . S
H113 C99 0.958 . S
H114 C99 0.961 . S
H115 C99 0.960 . S
C116 C117 1.391 . S
C116 C118 1.394 . S
C116 H132 0.931 . S
C117 C116 1.391 . S
C117 C121 1.376 . S
C118 C116 1.394 . S
C118 C119 1.369 . S
C118 C122 1.531 . S
C119 C118 1.369 . S
C119 C120 1.410 . S
C119 C127 1.503 . S
C120 C119 1.410 . S
C120 C121 1.392 . S
C120 C123 1.511 . S
C121 C117 1.376 . S
C121 C120 1.392 . S
C121 H133 0.929 . S
C122 C118 1.531 . S
C122 H134 0.960 . S
C122 H135 0.962 . S
C122 H136 0.960 . S
C123 C120 1.511 . S
C123 H137 0.961 . S
C123 H138 0.961 . S
C123 H139 0.961 . S
C124 C125 1.370 . S
C124 C126 1.363 . S
C124 H140 0.931 . S
C125 C124 1.370 . S
C125 C129 1.408 . S
C126 C124 1.363 . S
C126 C127 1.370 . S
C126 C130 1.524 . S
C127 C119 1.503 . S
C127 C126 1.370 . S
C127 C128 1.403 . S
C128 C127 1.403 . S
C128 C129 1.404 . S
C128 C131 1.539 . S
C129 C125 1.408 . S
C129 C128 1.404 . S
C129 H141 0.930 . S
C130 C126 1.524 . S
C130 H142 0.956 . S
C130 H143 0.961 . S
C130 H144 0.961 . S
C131 C128 1.539 . S
C131 H145 0.958 . S
C131 H146 0.961 . S
C131 H147 0.960 . S
H132 C116 0.931 . S
H133 C121 0.929 . S
H134 C122 0.960 . S
H135 C122 0.962 . S
H136 C122 0.960 . S
H137 C123 0.961 . S
H138 C123 0.961 . S
H139 C123 0.961 . S
H140 C124 0.931 . S
H141 C129 0.930 . S
H142 C130 0.956 . S
H143 C130 0.961 . S
H144 C130 0.961 . S
H145 C131 0.958 . S
H146 C131 0.961 . S
H147 C131 0.960 . S
C148 C149 1.391 1_655 S
C148 C150 1.394 . S
C148 H164 0.931 . S
C149 C148 1.391 1_455 S
C149 C153 1.376 . S
C150 C148 1.394 . S
C150 C151 1.369 1_655 S
C150 C154 1.531 . S
C151 C150 1.369 1_455 S
C151 C152 1.410 . S
C151 C159 1.503 . S
C152 C151 1.410 . S
C152 C153 1.392 . S
C152 C155 1.511 . S
C153 C149 1.376 . S
C153 C152 1.392 . S
C153 H165 0.929 . S
C154 C150 1.531 . S
C154 H166 0.960 . S
C154 H167 0.962 . S
C154 H168 0.960 . S
C155 C152 1.511 . S
C155 H169 0.961 . S
C155 H170 0.961 . S
C155 H171 0.961 . S
C156 C157 1.370 . S
C156 C158 1.363 . S
C156 H172 0.931 1_455 S
C157 C156 1.370 . S
C157 C161 1.408 . S
C158 C156 1.363 . S
C158 C159 1.370 . S
C158 C162 1.524 1_455 S
C159 C151 1.503 . S
C159 C158 1.370 . S
C159 C160 1.403 . S
C160 C159 1.403 . S
C160 C161 1.404 . S
C160 C163 1.539 . S
C161 C157 1.408 . S
C161 C160 1.404 . S
C161 H173 0.930 . S
C162 C158 1.524 1_655 S
C162 H174 0.956 . S
C162 H175 0.961 1_655 S
C162 H176 0.961 . S
C163 C160 1.539 . S
C163 H177 0.958 . S
C163 H178 0.961 . S
C163 H179 0.960 . S
H164 C148 0.931 . S
H165 C153 0.929 . S
H166 C154 0.960 . S
H167 C154 0.962 . S
H168 C154 0.960 . S
H169 C155 0.961 . S
H170 C155 0.961 . S
H171 C155 0.961 . S
H172 C156 0.931 1_655 S
H173 C161 0.930 . S
H174 C162 0.956 . S
H175 C162 0.961 1_455 S
H176 C162 0.961 . S
H177 C163 0.958 . S
H178 C163 0.961 . S
H179 C163 0.960 . S
C180 C181 1.391 . S
C180 C182 1.394 . S
C180 H196 0.931 . S
C181 C180 1.391 . S
C181 C185 1.376 . S
C182 C180 1.394 . S
C182 C183 1.369 . S
C182 C186 1.531 . S
C183 C182 1.369 . S
C183 C184 1.410 . S
C183 C191 1.503 . S
C184 C183 1.410 . S
C184 C185 1.392 . S
C184 C187 1.511 . S
C185 C181 1.376 . S
C185 C184 1.392 . S
C185 H197 0.929 . S
C186 C182 1.531 . S
C186 H198 0.960 . S
C186 H199 0.962 . S
C186 H200 0.960 . S
C187 C184 1.511 . S
C187 H201 0.961 . S
C187 H202 0.961 . S
C187 H203 0.961 . S
C188 C189 1.370 1_565 S
C188 C190 1.372 1_565 S
C188 H204 0.931 . S
C189 C188 1.370 1_545 S
C189 C193 1.408 . S
C190 C188 1.372 1_545 S
C190 C191 1.385 . S
C190 C194 1.501 1_545 S
C191 C183 1.503 . S
C191 C190 1.385 . S
C191 C192 1.403 . S
C192 C191 1.403 . S
C192 C193 1.404 . S
C192 C195 1.539 . S
C193 C189 1.408 . S
C193 C192 1.404 . S
C193 H205 0.930 . S
C194 C190 1.501 1_565 S
C194 H206 0.956 . S
C194 H207 0.961 . S
C194 H208 0.961 . S
C195 C192 1.539 . S
C195 H209 0.958 . S
C195 H210 0.961 . S
C195 H211 0.960 . S
H196 C180 0.931 . S
H197 C185 0.929 . S
H198 C186 0.960 . S
H199 C186 0.962 . S
H200 C186 0.960 . S
H201 C187 0.961 . S
H202 C187 0.961 . S
H203 C187 0.961 . S
H204 C188 0.931 . S
H205 C193 0.930 . S
H206 C194 0.956 . S
H207 C194 0.961 . S
H208 C194 0.961 . S
H209 C195 0.958 . S
H210 C195 0.961 . S
H211 C195 0.960 . S
C212 C213 1.391 . S
C212 C214 1.394 . S
C212 H228 0.931 . S
C213 C212 1.391 . S
C213 C217 1.376 . S
C214 C212 1.394 . S
C214 C215 1.369 . S
C214 C218 1.531 1_554 S
C215 C214 1.369 . S
C215 C216 1.410 . S
C215 C223 1.503 1_554 S
C216 C215 1.410 . S
C216 C217 1.392 . S
C216 C219 1.511 . S
C217 C213 1.376 . S
C217 C216 1.392 . S
C217 H229 0.929 . S
C218 C214 1.531 1_556 S
C218 H230 0.960 . S
C218 H231 0.962 . S
C218 H232 0.960 . S
C219 C216 1.511 . S
C219 H233 0.961 . S
C219 H234 0.961 . S
C219 H235 0.961 . S
C220 C221 1.370 . S
C220 C222 1.363 . S
C220 H236 0.931 . S
C221 C220 1.370 . S
C221 C225 1.408 . S
C222 C220 1.363 . S
C222 C223 1.370 . S
C222 C226 1.524 . S
C223 C215 1.503 1_556 S
C223 C222 1.370 . S
C223 C224 1.403 . S
C224 C223 1.403 . S
C224 C225 1.404 . S
C224 C227 1.539 1_556 S
C225 C221 1.408 . S
C225 C224 1.404 . S
C225 H237 0.930 . S
C226 C222 1.524 . S
C226 H238 0.956 . S
C226 H239 0.961 . S
C226 H240 0.961 . S
C227 C224 1.539 1_554 S
C227 H241 0.958 1_554 S
C227 H242 0.961 . S
C227 H243 0.960 . S
H228 C212 0.931 . S
H229 C217 0.929 . S
H230 C218 0.960 . S
H231 C218 0.962 . S
H232 C218 0.960 . S
H233 C219 0.961 . S
H234 C219 0.961 . S
H235 C219 0.961 . S
H236 C220 0.931 . S
H237 C225 0.930 . S
H238 C226 0.956 . S
H239 C226 0.961 . S
H240 C226 0.961 . S
H241 C227 0.958 1_556 S
H242 C227 0.961 . S
H243 C227 0.960 . S
C244 C245 1.391 . S
C244 C246 1.394 . S
C244 H260 0.931 . S
C245 C244 1.391 . S
C245 C249 1.376 1_455 S
C246 C244 1.394 . S
C246 C247 1.369 . S
C246 C250 1.531 . S
C247 C246 1.369 . S
C247 C248 1.410 1_455 S
C247 C255 1.503 . S
C248 C247 1.410 1_655 S
C248 C249 1.392 . S
C248 C251 1.511 . S
C249 C245 1.376 1_655 S
C249 C248 1.392 . S
C249 H261 0.929 . S
C250 C246 1.531 . S
C250 H262 0.960 . S
C250 H263 0.962 . S
C250 H264 0.960 . S
C251 C248 1.511 . S
C251 H265 0.961 . S
C251 H266 0.961 . S
C251 H267 0.961 . S
C252 C253 1.370 . S
C252 C254 1.363 . S
C252 H268 0.931 . S
C253 C252 1.370 . S
C253 C257 1.408 . S
C254 C252 1.363 . S
C254 C255 1.370 . S
C254 C258 1.524 . S
C255 C247 1.503 . S
C255 C254 1.370 . S
C255 C256 1.403 . S
C256 C255 1.403 . S
C256 C257 1.404 . S
C256 C259 1.539 . S
C257 C253 1.408 . S
C257 C256 1.404 . S
C257 H269 0.930 . S
C258 C254 1.524 . S
C258 H270 0.956 . S
C258 H271 0.961 1_455 S
C258 H272 0.961 . S
C259 C256 1.539 . S
C259 H273 0.958 . S
C259 H274 0.961 . S
C259 H275 0.960 . S
H260 C244 0.931 . S
H261 C249 0.929 . S
H262 C250 0.960 . S
H263 C250 0.962 . S
H264 C250 0.960 . S
H265 C251 0.961 . S
H266 C251 0.961 . S
H267 C251 0.961 . S
H268 C252 0.931 . S
H269 C257 0.930 . S
H270 C258 0.956 . S
H271 C258 0.961 1_655 S
H272 C258 0.961 . S
H273 C259 0.958 . S
H274 C259 0.961 . S
H275 C259 0.960 . S
C276 C277 1.391 . S
C276 C278 1.394 . S
C276 H292 0.931 . S
C277 C276 1.391 . S
C277 C281 1.376 . S
C278 C276 1.394 . S
C278 C279 1.369 . S
C278 C282 1.531 . S
C279 C278 1.369 . S
C279 C280 1.410 . S
C279 C287 1.503 . S
C280 C279 1.410 . S
C280 C281 1.392 . S
C280 C283 1.511 . S
C281 C277 1.376 . S
C281 C280 1.392 . S
C281 H293 0.929 . S
C282 C278 1.531 . S
C282 H294 0.960 . S
C282 H295 0.962 . S
C282 H296 0.960 . S
C283 C280 1.511 . S
C283 H297 0.961 . S
C283 H298 0.961 . S
C283 H299 0.961 . S
C284 C285 1.370 . S
C284 C286 1.363 . S
C284 H300 0.931 . S
C285 C284 1.370 . S
C285 C289 1.408 . S
C286 C284 1.363 . S
C286 C287 1.370 . S
C286 C290 1.524 . S
C287 C279 1.503 . S
C287 C286 1.370 . S
C287 C288 1.403 . S
C288 C287 1.403 . S
C288 C289 1.404 . S
C288 C291 1.539 . S
C289 C285 1.408 . S
C289 C288 1.404 . S
C289 H301 0.930 . S
C290 C286 1.524 . S
C290 H302 0.956 . S
C290 H303 0.961 . S
C290 H304 0.961 . S
C291 C288 1.539 . S
C291 H305 0.958 . S
C291 H306 0.961 . S
C291 H307 0.960 . S
H292 C276 0.931 . S
H293 C281 0.929 . S
H294 C282 0.960 . S
H295 C282 0.962 . S
H296 C282 0.960 . S
H297 C283 0.961 . S
H298 C283 0.961 . S
H299 C283 0.961 . S
H300 C284 0.931 . S
H301 C289 0.930 . S
H302 C290 0.956 . S
H303 C290 0.961 . S
H304 C290 0.961 . S
H305 C291 0.958 . S
H306 C291 0.961 . S
H307 C291 0.960 . S
C308 C309 1.391 . S
C308 C310 1.394 . S
C308 H324 0.931 . S
C309 C308 1.391 . S
C309 C313 1.376 . S
C310 C308 1.394 . S
C310 C311 1.369 . S
C310 C314 1.531 . S
C311 C310 1.369 . S
C311 C312 1.410 . S
C311 C319 1.503 . S
C312 C311 1.410 . S
C312 C313 1.392 . S
C312 C315 1.511 . S
C313 C309 1.376 . S
C313 C312 1.392 . S
C313 H325 0.929 . S
C314 C310 1.531 . S
C314 H326 0.960 . S
C314 H327 0.962 . S
C314 H328 0.960 . S
C315 C312 1.511 . S
C315 H329 0.961 . S
C315 H330 0.961 . S
C315 H331 0.961 . S
C316 C317 1.370 . S
C316 C318 1.363 . S
C316 H332 0.931 . S
C317 C316 1.370 . S
C317 C321 1.408 . S
C318 C316 1.363 . S
C318 C319 1.370 . S
C318 C322 1.524 . S
C319 C311 1.503 . S
C319 C318 1.370 . S
C319 C320 1.403 . S
C320 C319 1.403 . S
C320 C321 1.404 . S
C320 C323 1.539 . S
C321 C317 1.408 . S
C321 C320 1.404 . S
C321 H333 0.930 . S
C322 C318 1.524 . S
C322 H334 0.956 . S
C322 H335 0.961 . S
C322 H336 0.961 . S
C323 C320 1.539 . S
C323 H337 0.958 . S
C323 H338 0.961 . S
C323 H339 0.960 . S
H324 C308 0.931 . S
H325 C313 0.929 . S
H326 C314 0.960 . S
H327 C314 0.962 . S
H328 C314 0.960 . S
H329 C315 0.961 . S
H330 C315 0.961 . S
H331 C315 0.961 . S
H332 C316 0.931 . S
H333 C321 0.930 . S
H334 C322 0.956 . S
H335 C322 0.961 . S
H336 C322 0.961 . S
H337 C323 0.958 . S
H338 C323 0.961 . S
H339 C323 0.960 . S
C340 C341 1.391 . S
C340 C342 1.394 . S
C340 H356 0.931 . S
C341 C340 1.391 . S
C341 C345 1.376 . S
C342 C340 1.394 . S
C342 C343 1.369 . S
C342 C346 1.531 . S
C343 C342 1.369 . S
C343 C344 1.410 . S
C343 C351 1.503 . S
C344 C343 1.410 . S
C344 C345 1.392 . S
C344 C347 1.511 . S
C345 C341 1.376 . S
C345 C344 1.392 . S
C345 H357 0.929 . S
C346 C342 1.531 . S
C346 H358 0.960 . S
C346 H359 0.962 . S
C346 H360 0.960 . S
C347 C344 1.511 . S
C347 H361 0.961 . S
C347 H362 0.961 . S
C347 H363 0.961 . S
C348 C349 1.370 . S
C348 C350 1.363 . S
C348 H364 0.931 . S
C349 C348 1.370 . S
C349 C353 1.408 . S
C350 C348 1.363 . S
C350 C351 1.370 . S
C350 C354 1.524 . S
C351 C343 1.503 . S
C351 C350 1.370 . S
C351 C352 1.403 . S
C352 C351 1.403 . S
C352 C353 1.404 . S
C352 C355 1.539 . S
C353 C349 1.408 . S
C353 C352 1.404 . S
C353 H365 0.930 . S
C354 C350 1.524 . S
C354 H366 0.956 . S
C354 H367 0.961 . S
C354 H368 0.961 . S
C355 C352 1.539 . S
C355 H369 0.958 . S
C355 H370 0.961 . S
C355 H371 0.960 . S
H356 C340 0.931 . S
H357 C345 0.929 . S
H358 C346 0.960 . S
H359 C346 0.962 . S
H360 C346 0.960 . S
H361 C347 0.961 . S
H362 C347 0.961 . S
H363 C347 0.961 . S
H364 C348 0.931 . S
H365 C353 0.930 . S
H366 C354 0.956 . S
H367 C354 0.961 . S
H368 C354 0.961 . S
H369 C355 0.958 . S
H370 C355 0.961 . S
H371 C355 0.960 . S
C372 C373 1.391 . S
C372 C374 1.394 . S
C372 H388 0.931 . S
C373 C372 1.391 . S
C373 C377 1.376 . S
C374 C372 1.394 . S
C374 C375 1.369 . S
C374 C378 1.531 . S
C375 C374 1.369 . S
C375 C376 1.410 . S
C375 C383 1.503 . S
C376 C375 1.410 . S
C376 C377 1.392 . S
C376 C379 1.511 . S
C377 C373 1.376 . S
C377 C376 1.392 . S
C377 H389 0.929 . S
C378 C374 1.531 . S
C378 H390 0.960 . S
C378 H391 0.962 . S
C378 H392 0.960 . S
C379 C376 1.511 . S
C379 H393 0.961 . S
C379 H394 0.961 . S
C379 H395 0.961 . S
C380 C381 1.370 . S
C380 C382 1.363 . S
C380 H396 0.931 . S
C381 C380 1.370 . S
C381 C385 1.408 . S
C382 C380 1.363 . S
C382 C383 1.370 . S
C382 C386 1.524 . S
C383 C375 1.503 . S
C383 C382 1.370 . S
C383 C384 1.403 . S
C384 C383 1.403 . S
C384 C385 1.404 . S
C384 C387 1.539 . S
C385 C381 1.408 . S
C385 C384 1.404 . S
C385 H397 0.930 . S
C386 C382 1.524 . S
C386 H398 0.956 . S
C386 H399 0.961 . S
C386 H400 0.961 . S
C387 C384 1.539 . S
C387 H401 0.958 . S
C387 H402 0.961 . S
C387 H403 0.960 . S
H388 C372 0.931 . S
H389 C377 0.929 . S
H390 C378 0.960 . S
H391 C378 0.962 . S
H392 C378 0.960 . S
H393 C379 0.961 . S
H394 C379 0.961 . S
H395 C379 0.961 . S
H396 C380 0.931 . S
H397 C385 0.930 . S
H398 C386 0.956 . S
H399 C386 0.961 . S
H400 C386 0.961 . S
H401 C387 0.958 . S
H402 C387 0.961 . S
H403 C387 0.960 . S
C404 C405 1.391 . S
C404 C406 1.394 . S
C404 H420 0.931 . S
C405 C404 1.391 . S
C405 C409 1.376 . S
C406 C404 1.394 . S
C406 C407 1.369 . S
C406 C410 1.531 . S
C407 C406 1.369 . S
C407 C408 1.410 . S
C407 C415 1.503 . S
C408 C407 1.410 . S
C408 C409 1.392 . S
C408 C411 1.511 . S
C409 C405 1.376 . S
C409 C408 1.392 . S
C409 H421 0.929 . S
C410 C406 1.531 . S
C410 H422 0.960 . S
C410 H423 0.962 . S
C410 H424 0.960 . S
C411 C408 1.511 . S
C411 H425 0.961 . S
C411 H426 0.961 . S
C411 H427 0.961 . S
C412 C413 1.370 . S
C412 C414 1.363 . S
C412 H428 0.931 . S
C413 C412 1.370 . S
C413 C417 1.408 . S
C414 C412 1.363 . S
C414 C415 1.370 . S
C414 C418 1.524 . S
C415 C407 1.503 . S
C415 C414 1.370 . S
C415 C416 1.403 . S
C416 C415 1.403 . S
C416 C417 1.404 . S
C416 C419 1.539 . S
C417 C413 1.408 . S
C417 C416 1.404 . S
C417 H429 0.930 . S
C418 C414 1.524 . S
C418 H430 0.956 . S
C418 H431 0.961 . S
C418 H432 0.961 . S
C419 C416 1.539 . S
C419 H433 0.958 . S
C419 H434 0.961 . S
C419 H435 0.960 . S
H420 C404 0.931 . S
H421 C409 0.929 . S
H422 C410 0.960 . S
H423 C410 0.962 . S
H424 C410 0.960 . S
H425 C411 0.961 . S
H426 C411 0.961 . S
H427 C411 0.961 . S
H428 C412 0.931 . S
H429 C417 0.930 . S
H430 C418 0.956 . S
H431 C418 0.961 . S
H432 C418 0.961 . S
H433 C419 0.958 . S
H434 C419 0.961 . S
H435 C419 0.960 . S
C436 C437 1.391 . S
C436 C438 1.394 . S
C436 H452 0.931 . S
C437 C436 1.391 . S
C437 C441 1.376 . S
C438 C436 1.394 . S
C438 C439 1.369 . S
C438 C442 1.531 . S
C439 C438 1.369 . S
C439 C440 1.410 . S
C439 C447 1.503 . S
C440 C439 1.410 . S
C440 C441 1.392 . S
C440 C443 1.511 1_556 S
C441 C437 1.376 . S
C441 C440 1.392 . S
C441 H453 0.929 1_556 S
C442 C438 1.531 . S
C442 H454 0.960 . S
C442 H455 0.962 . S
C442 H456 0.960 . S
C443 C440 1.511 1_554 S
C443 H457 0.961 . S
C443 H458 0.961 . S
C443 H459 0.961 . S
C444 C445 1.370 . S
C444 C446 1.363 . S
C444 H460 0.931 . S
C445 C444 1.370 . S
C445 C449 1.408 1_554 S
C446 C444 1.363 . S
C446 C447 1.370 1_554 S
C446 C450 1.524 . S
C447 C439 1.503 . S
C447 C446 1.370 1_556 S
C447 C448 1.403 . S
C448 C447 1.403 . S
C448 C449 1.404 . S
C448 C451 1.539 . S
C449 C445 1.408 1_556 S
C449 C448 1.404 . S
C449 H461 0.930 . S
C450 C446 1.524 . S
C450 H462 0.956 . S
C450 H463 0.961 . S
C450 H464 0.961 . S
C451 C448 1.539 . S
C451 H465 0.958 . S
C451 H466 0.961 . S
C451 H467 0.960 . S
H452 C436 0.931 . S
H453 C441 0.929 1_554 S
H454 C442 0.960 . S
H455 C442 0.962 . S
H456 C442 0.960 . S
H457 C443 0.961 . S
H458 C443 0.961 . S
H459 C443 0.961 . S
H460 C444 0.931 . S
H461 C449 0.930 . S
H462 C450 0.956 . S
H463 C450 0.961 . S
H464 C450 0.961 . S
H465 C451 0.958 . S
H466 C451 0.961 . S
H467 C451 0.960 . S
C85 C7 1.665 . S
C93 C51 1.684 . S
C117 C21 1.586 . S
C125 C65 1.640 . S
C149 C77 1.633 . S
C157 C37 1.661 . S
C181 C9 1.674 . S
C189 C49 1.664 . S
C213 C23 1.635 . S
C221 C63 1.609 . S
C245 C79 1.655 . S
C253 C35 1.642 . S
C277 C17 1.372 . S
C285 C8 1.372 . S
C309 C36 1.363 . S
C317 C22 1.356 . S
C341 C31 1.408 . S
C349 C45 1.409 . S
C373 C59 1.384 . S
C381 C50 1.378 . S
C405 C78 1.339 . S
C413 C64 1.349 . S
C437 C73 1.410 . S
C445 C3 1.410 . S
