# Generated by pormake.
# Topology unn, (4)-cn, num edge types: 1
# Building blocks:
#     Node 0, Type 0, BuildingBlock: ESEHIV_clean_sbu_0, # of connection points: 4
#     Node 1, Type 0, BuildingBlock: ESEHIV_clean_sbu_0, # of connection points: 4
#     Node 2, Type 0, BuildingBlock: ESEHIV_clean_sbu_0, # of connection points: 4
#     Node 3, Type 0, BuildingBlock: ESEHIV_clean_sbu_0, # of connection points: 4
#     Node 4, Type 0, BuildingBlock: ESEHIV_clean_sbu_0, # of connection points: 4
#     Node 5, Type 0, BuildingBlock: ESEHIV_clean_sbu_0, # of connection points: 4
#     Node 6, Type 0, BuildingBlock: ESEHIV_clean_sbu_0, # of connection points: 4
#     Node 7, Type 0, BuildingBlock: ESEHIV_clean_sbu_0, # of connection points: 4
#     Node 8, Type 0, BuildingBlock: ESEHIV_clean_sbu_0, # of connection points: 4
#     Node 9, Type 0, BuildingBlock: ESEHIV_clean_sbu_0, # of connection points: 4
#     Node 10, Type 0, BuildingBlock: ESEHIV_clean_sbu_0, # of connection points: 4
#     Node 11, Type 0, BuildingBlock: ESEHIV_clean_sbu_0, # of connection points: 4
#     Node 12, Type 0, BuildingBlock: ESEHIV_clean_sbu_0, # of connection points: 4
#     Node 13, Type 0, BuildingBlock: ESEHIV_clean_sbu_0, # of connection points: 4
#     Node 14, Type 0, BuildingBlock: ESEHIV_clean_sbu_0, # of connection points: 4
#     Node 15, Type 0, BuildingBlock: ESEHIV_clean_sbu_0, # of connection points: 4
#     Node 16, Type 0, BuildingBlock: ESEHIV_clean_sbu_0, # of connection points: 4
#     Node 17, Type 0, BuildingBlock: ESEHIV_clean_sbu_0, # of connection points: 4
#     Edge 18, Type (0, 0), BuildingBlock: XIVTED_clean_linker_0, # of connection points: 2
#     Edge 19, Type (0, 0), BuildingBlock: XIVTED_clean_linker_0, # of connection points: 2
#     Edge 20, Type (0, 0), BuildingBlock: XIVTED_clean_linker_0, # of connection points: 2
#     Edge 21, Type (0, 0), BuildingBlock: XIVTED_clean_linker_0, # of connection points: 2
#     Edge 22, Type (0, 0), BuildingBlock: XIVTED_clean_linker_0, # of connection points: 2
#     Edge 23, Type (0, 0), BuildingBlock: XIVTED_clean_linker_0, # of connection points: 2
#     Edge 24, Type (0, 0), BuildingBlock: XIVTED_clean_linker_0, # of connection points: 2
#     Edge 25, Type (0, 0), BuildingBlock: XIVTED_clean_linker_0, # of connection points: 2
#     Edge 26, Type (0, 0), BuildingBlock: XIVTED_clean_linker_0, # of connection points: 2
#     Edge 27, Type (0, 0), BuildingBlock: XIVTED_clean_linker_0, # of connection points: 2
#     Edge 28, Type (0, 0), BuildingBlock: XIVTED_clean_linker_0, # of connection points: 2
#     Edge 29, Type (0, 0), BuildingBlock: XIVTED_clean_linker_0, # of connection points: 2
#     Edge 30, Type (0, 0), BuildingBlock: XIVTED_clean_linker_0, # of connection points: 2
#     Edge 31, Type (0, 0), BuildingBlock: XIVTED_clean_linker_0, # of connection points: 2
#     Edge 32, Type (0, 0), BuildingBlock: XIVTED_clean_linker_0, # of connection points: 2
#     Edge 33, Type (0, 0), BuildingBlock: XIVTED_clean_linker_0, # of connection points: 2
#     Edge 34, Type (0, 0), BuildingBlock: XIVTED_clean_linker_0, # of connection points: 2
#     Edge 35, Type (0, 0), BuildingBlock: XIVTED_clean_linker_0, # of connection points: 2
#     Edge 36, Type (0, 0), BuildingBlock: XIVTED_clean_linker_0, # of connection points: 2
#     Edge 37, Type (0, 0), BuildingBlock: XIVTED_clean_linker_0, # of connection points: 2
#     Edge 38, Type (0, 0), BuildingBlock: XIVTED_clean_linker_0, # of connection points: 2
#     Edge 39, Type (0, 0), BuildingBlock: XIVTED_clean_linker_0, # of connection points: 2
#     Edge 40, Type (0, 0), BuildingBlock: XIVTED_clean_linker_0, # of connection points: 2
#     Edge 41, Type (0, 0), BuildingBlock: XIVTED_clean_linker_0, # of connection points: 2
#     Edge 42, Type (0, 0), BuildingBlock: XIVTED_clean_linker_0, # of connection points: 2
#     Edge 43, Type (0, 0), BuildingBlock: XIVTED_clean_linker_0, # of connection points: 2
#     Edge 44, Type (0, 0), BuildingBlock: XIVTED_clean_linker_0, # of connection points: 2
#     Edge 45, Type (0, 0), BuildingBlock: XIVTED_clean_linker_0, # of connection points: 2
#     Edge 46, Type (0, 0), BuildingBlock: XIVTED_clean_linker_0, # of connection points: 2
#     Edge 47, Type (0, 0), BuildingBlock: XIVTED_clean_linker_0, # of connection points: 2
#     Edge 48, Type (0, 0), BuildingBlock: XIVTED_clean_linker_0, # of connection points: 2
#     Edge 49, Type (0, 0), BuildingBlock: XIVTED_clean_linker_0, # of connection points: 2
#     Edge 50, Type (0, 0), BuildingBlock: XIVTED_clean_linker_0, # of connection points: 2
#     Edge 51, Type (0, 0), BuildingBlock: XIVTED_clean_linker_0, # of connection points: 2
#     Edge 52, Type (0, 0), BuildingBlock: XIVTED_clean_linker_0, # of connection points: 2
#     Edge 53, Type (0, 0), BuildingBlock: XIVTED_clean_linker_0, # of connection points: 2
# Relax obj value: 0.007
# Max RMSD: 0.148
# Mean RMSD: 0.146
data_MOF--net-unn--node1-ESEHIV_clean_sbu_0--edge1-XIVTED_clean_linker_0
_symmetry_space_group_name_H-M    P1
_symmetry_Int_Tables_number       1
_symmetry_cell_setting            triclinic
loop_
_symmetry_equiv_pos_as_xyz
'x, y, z'
_cell_length_a     54.80169
_cell_length_b     54.548744
_cell_length_c     42.441435
_cell_angle_alpha  90.165953
_cell_angle_beta   90.128514
_cell_angle_gamma 120.01285
loop_
_atom_site_label
_atom_site_type_symbol
_atom_site_fract_x
_atom_site_fract_y
_atom_site_fract_z
_atom_type_partial_charge
Cu0 Cu 0.02569 0.74622 0.2692 0.0
N1 N 0.05759 0.78108 0.27807 0.0
N2 N 0.10018 0.81192 0.29737 0.0
C3 C 0.07919 0.78466 0.29645 0.0
C4 C 0.09132 0.82603 0.2788 0.0
C5 C 0.0651 0.80691 0.26678 0.0
O6 O 0.0184 0.72353 0.30715 0.0
C7 C 0.01917 0.70686 0.21994 0.0
O8 O 0.99774 0.68757 0.23605 0.0
H9 H 0.07947 0.76746 0.30877 0.0
H10 H 0.05271 0.81141 0.25042 0.0
N11 N 0.99442 0.75024 0.25966 0.0
N12 N 0.95224 0.7401 0.24052 0.0
C13 C 0.97099 0.73112 0.24427 0.0
C14 C 0.99036 0.77213 0.26597 0.0
C15 C 0.96436 0.76593 0.25426 0.0
C16 C 1.01028 0.73184 0.33095 0.0
O17 O 1.00594 0.75329 0.32757 0.0
H18 H 0.96759 0.71084 0.23631 0.0
H19 H 1.00523 0.79126 0.27827 0.0
O20 O 0.03419 0.73154 0.23156 0.0
H21 H 0.10327 0.84839 0.27345 0.0
H22 H 0.95533 0.77959 0.25541 0.0
Cu23 Cu 0.29604 0.29236 0.27326 0.0
N24 N 0.29483 0.25784 0.26772 0.0
N25 N 0.3071 0.2268 0.25018 0.0
C26 C 0.31209 0.25366 0.24878 0.0
C27 C 0.28578 0.21361 0.27095 0.0
C28 C 0.27826 0.23283 0.28173 0.0
O29 O 0.31193 0.31413 0.23486 0.0
C30 C 0.33819 0.31053 0.32252 0.0
O31 O 0.35182 0.30167 0.3047 0.0
H32 H 0.32846 0.27032 0.23483 0.0
H33 H 0.26204 0.22893 0.29871 0.0
N34 N 0.26028 0.28769 0.27996 0.0
N35 N 0.22807 0.29778 0.29832 0.0
C36 C 0.25577 0.30653 0.29561 0.0
C37 C 0.23455 0.2661 0.27249 0.0
C38 C 0.21459 0.27236 0.28365 0.0
C39 C 0.29642 0.30447 0.21037 0.0
O40 O 0.27135 0.28193 0.21311 0.0
H41 H 0.27263 0.32635 0.3048 0.0
H42 H 0.23058 0.24706 0.26016 0.0
O43 O 0.31622 0.31 0.31195 0.0
H44 H 0.27614 0.19162 0.27779 0.0
H45 H 0.19196 0.25893 0.28177 0.0
Cu46 Cu 0.7527 0.02306 0.27428 0.0
N47 N 0.75631 0.99148 0.28424 0.0
N48 N 0.74592 0.94872 0.30206 0.0
C49 C 0.73635 0.96686 0.29671 0.0
C50 C 0.77292 0.96237 0.29217 0.0
C51 C 0.77924 0.98869 0.28123 0.0
O52 O 0.74002 0.0341 0.3118 0.0
C53 C 0.73575 1.00513 0.21334 0.0
O54 O 0.75606 0.99918 0.2167 0.0
H55 H 0.7151 0.96213 0.30141 0.0
H56 H 0.79924 1.00469 0.27185 0.0
N57 N 0.78764 0.05414 0.26418 0.0
N58 N 0.81909 0.09554 0.24293 0.0
C59 C 0.79212 0.07402 0.24262 0.0
C60 C 0.81256 0.06332 0.27875 0.0
C61 C 0.83203 0.08878 0.26562 0.0
C62 C 0.71718 0.01918 0.32678 0.0
O63 O 0.69776 0.99493 0.31489 0.0
H64 H 0.77553 0.07327 0.22804 0.0
H65 H 0.8161 0.0527 0.2982 0.0
O66 O 0.72917 0.0152 0.23686 0.0
H67 H 0.7873 0.95423 0.29337 0.0
H68 H 0.85389 0.10148 0.27262 0.0
Cu69 Cu 0.02652 0.28959 0.76656 0.0
N70 N 0.9946 0.25388 0.76286 0.0
N71 N 0.95145 0.22123 0.74673 0.0
C72 C 0.9716 0.24882 0.74628 0.0
C73 C 0.96231 0.20845 0.76456 0.0
C74 C 0.98902 0.22869 0.77444 0.0
O75 O 0.02743 0.30867 0.72768 0.0
C76 C 1.00311 0.3073 0.81687 0.0
O77 O 0.98024 0.29822 0.79962 0.0
H78 H 0.9697 0.26531 0.73442 0.0
H79 H 1.00336 0.22527 0.78881 0.0
N80 N 0.05944 0.28772 0.77014 0.0
N81 N 0.1025 0.29936 0.7875 0.0
C82 C 0.08083 0.30443 0.78957 0.0
C83 C 0.06769 0.27142 0.75501 0.0
C84 C 0.09434 0.2786 0.76566 0.0
C85 C 0.04838 0.33047 0.71609 0.0
O86 O 0.07149 0.34478 0.73287 0.0
H87 H 0.08063 0.32044 0.80448 0.0
H88 H 0.05527 0.25556 0.73748 0.0
O89 O 0.02447 0.30709 0.80561 0.0
H90 H 0.95197 0.18606 0.76971 0.0
H91 H 0.10657 0.26907 0.7581 0.0
Cu92 Cu 0.74971 0.74444 0.77173 0.0
N93 N 0.75367 0.77934 0.78361 0.0
N94 N 0.74344 0.81115 0.80366 0.0
C95 C 0.73595 0.78353 0.80179 0.0
C96 C 0.76689 0.82489 0.78593 0.0
C97 C 0.77311 0.80522 0.77359 0.0
O98 O 0.73652 0.71933 0.80795 0.0
C99 C 0.71673 0.70841 0.71982 0.0
O100 O 0.72084 0.6886 0.73186 0.0
H101 H 0.71729 0.76661 0.81245 0.0
H102 H 0.79022 0.80942 0.75779 0.0
N103 N 0.78489 0.74906 0.76101 0.0
N104 N 0.81725 0.73963 0.74145 0.0
C105 C 0.78986 0.73261 0.74137 0.0
C106 C 0.81004 0.76722 0.77395 0.0
C107 C 0.83005 0.7615 0.76191 0.0
C108 C 0.71302 0.70982 0.82201 0.0
O109 O 0.6933 0.71389 0.8098 0.0
H110 H 0.77354 0.71501 0.72834 0.0
H111 H 0.81342 0.78294 0.79164 0.0
O112 O 0.72561 0.73173 0.73452 0.0
H113 H 0.77861 0.84749 0.78191 0.0
H114 H 0.85218 0.77235 0.76814 0.0
Cu115 Cu 0.29907 0.01809 0.76614 0.0
N116 N 0.29662 0.05017 0.75539 0.0
N117 N 0.3087 0.09321 0.73698 0.0
C118 C 0.31737 0.0745 0.74327 0.0
C119 C 0.28144 0.08022 0.74592 0.0
C120 C 0.27408 0.05373 0.75725 0.0
O121 O 0.31189 1.00639 0.72933 0.0
C122 C 0.31535 0.03614 0.82717 0.0
O123 O 0.29536 0.04246 0.82316 0.0
H124 H 0.33852 0.07857 0.73945 0.0
H125 H 0.25365 0.03815 0.76608 0.0
N126 N 0.26368 0.98749 0.77575 0.0
N127 N 0.23168 0.94581 0.79597 0.0
C128 C 0.25877 0.96707 0.79674 0.0
C129 C 0.23893 0.97893 0.76105 0.0
C130 C 0.21912 0.9533 0.77357 0.0
C131 C 0.33518 0.02065 0.71493 0.0
O132 O 0.3549 0.04463 0.72703 0.0
H133 H 0.27517 0.9672 0.81112 0.0
H134 H 0.23576 0.99001 0.74182 0.0
O135 O 0.32197 0.0257 0.80403 0.0
H136 H 0.26756 0.0889 0.74378 0.0
H137 H 0.1973 0.94097 0.76626 0.0
Cu138 Cu 0.68971 0.07343 0.61166 0.0
N139 N 0.65846 0.07727 0.60265 0.0
N140 N 0.61647 0.06686 0.58281 0.0
C141 C 0.63728 0.0604 0.583 0.0
C142 C 0.62507 0.08878 0.60317 0.0
C143 C 0.6509 0.09504 0.61548 0.0
O144 O 0.69694 0.05788 0.57365 0.0
C145 C 0.69499 0.04036 0.66135 0.0
O146 O 0.71657 0.04228 0.64579 0.0
H147 H 0.63714 0.04355 0.56936 0.0
H148 H 0.66297 0.11093 0.63312 0.0
N149 N 0.72136 0.1085 0.62154 0.0
N150 N 0.76379 0.14021 0.64059 0.0
C151 C 0.74466 0.11249 0.63681 0.0
C152 C 0.72589 0.13465 0.6154 0.0
C153 C 0.75208 0.15425 0.62703 0.0
C154 C 0.70519 0.07436 0.54994 0.0
O155 O 0.70944 0.10014 0.55343 0.0
H156 H 0.74776 0.09542 0.64458 0.0
H157 H 0.71123 0.13916 0.60324 0.0
O158 O 0.68037 0.05013 0.64921 0.0
H159 H 0.61317 0.09897 0.60958 0.0
H160 H 0.76154 0.17703 0.62594 0.0
Cu161 Cu 0.96732 0.63023 0.60292 0.0
N162 N 0.96323 0.59538 0.59059 0.0
N163 N 0.97325 0.56361 0.56998 0.0
C164 C 0.98116 0.59128 0.57267 0.0
C165 C 0.94933 0.54973 0.58693 0.0
C166 C 0.94324 0.56937 0.59962 0.0
O167 O 0.98042 0.65543 0.56681 0.0
C168 C 1.00057 0.6659 0.65493 0.0
O169 O 0.99618 0.68571 0.64345 0.0
H170 H 1.0002 0.60829 0.56275 0.0
H171 H 0.92579 0.56503 0.61493 0.0
N172 N 0.93219 0.62564 0.61388 0.0
N173 N 0.89987 0.63506 0.63359 0.0
C174 C 0.92723 0.64197 0.63372 0.0
C175 C 0.90707 0.60767 0.60076 0.0
C176 C 0.88708 0.61337 0.6129 0.0
C177 C 1.00388 0.66492 0.55269 0.0
O178 O 0.02364 0.6609 0.56487 0.0
H179 H 0.94354 0.65945 0.64691 0.0
H180 H 0.90369 0.59214 0.58283 0.0
O181 O 0.99168 0.64272 0.63993 0.0
H182 H 0.93715 0.52704 0.59014 0.0
H183 H 0.86498 0.60267 0.60653 0.0
Cu184 Cu 0.42243 0.35591 0.603 0.0
N185 N 0.4585 0.38568 0.59465 0.0
N186 N 0.49135 0.427 0.57468 0.0
C187 C 0.46373 0.40731 0.57543 0.0
C188 C 0.50403 0.41732 0.59437 0.0
C189 C 0.48365 0.39173 0.60664 0.0
O190 O 0.40135 0.35333 0.56513 0.0
C191 C 0.38709 0.35089 0.65605 0.0
O192 O 0.36799 0.32644 0.64418 0.0
H193 H 0.44732 0.40893 0.56304 0.0
H194 H 0.48686 0.37871 0.62344 0.0
N195 N 0.42266 0.32202 0.60861 0.0
N196 N 0.41131 0.27911 0.62674 0.0
C197 C 0.41087 0.30331 0.63225 0.0
C198 C 0.43128 0.30948 0.5876 0.0
C199 C 0.42437 0.28306 0.59871 0.0
C200 C 0.38031 0.33113 0.55404 0.0
O201 O 0.36829 0.30791 0.57094 0.0
H202 H 0.40164 0.30711 0.6528 0.0
H203 H 0.44073 0.31843 0.56511 0.0
O204 O 0.4099 0.3661 0.64114 0.0
H205 H 0.52636 0.42794 0.59958 0.0
H206 H 0.42743 0.26746 0.58628 0.0
Cu207 Cu 0.69083 0.62661 0.10501 0.0
N208 N 0.65938 0.59131 0.09645 0.0
N209 N 0.61718 0.55928 0.07716 0.0
C210 C 0.63776 0.58676 0.0775 0.0
C211 C 0.62639 0.54611 0.09679 0.0
C212 C 0.65235 0.56593 0.10871 0.0
O213 O 0.69749 0.64909 0.06698 0.0
C214 C 0.69706 0.66571 0.15448 0.0
O215 O 0.71841 0.68514 0.13841 0.0
H216 H 0.63689 0.60357 0.06501 0.0
H217 H 0.66498 0.56219 0.12552 0.0
N218 N 0.72255 0.62325 0.11421 0.0
N219 N 0.76498 0.63384 0.13296 0.0
C220 C 0.74599 0.64255 0.12943 0.0
C221 C 0.72685 0.60153 0.10778 0.0
C222 C 0.75299 0.608 0.11925 0.0
C223 C 0.70546 0.64078 0.04304 0.0
O224 O 0.7099 0.61939 0.0463 0.0
H225 H 0.74922 0.66275 0.13746 0.0
H226 H 0.71202 0.58231 0.0956 0.0
O227 O 0.68217 0.64104 0.14277 0.0
H228 H 0.61521 0.52378 0.10231 0.0
H229 H 0.7622 0.59451 0.11798 0.0
Cu230 Cu 0.41745 0.08269 0.10093 0.0
N231 N 0.45225 0.08574 0.09101 0.0
N232 N 0.48388 0.07454 0.07308 0.0
C233 C 0.45627 0.06585 0.07696 0.0
C234 C 0.49781 0.10092 0.08541 0.0
C235 C 0.47827 0.10776 0.09639 0.0
O236 O 0.39375 0.07011 0.0634 0.0
C237 C 0.4179 0.06596 0.16185 0.0
O238 O 0.44393 0.08689 0.15905 0.0
H239 H 0.43933 0.04519 0.07023 0.0
H240 H 0.48276 0.12739 0.10767 0.0
N241 N 0.42184 0.11793 0.11147 0.0
N242 N 0.41185 0.14961 0.13232 0.0
C243 C 0.40554 0.12228 0.13181 0.0
C244 C 0.43908 0.14331 0.09855 0.0
C245 C 0.43305 0.16292 0.11144 0.0
C246 C 0.38444 0.04655 0.04907 0.0
O247 O 0.38793 0.02653 0.06159 0.0
H248 H 0.38854 0.1054 0.14489 0.0
H249 H 0.45437 0.14711 0.08038 0.0
O250 O 0.40154 0.05899 0.13801 0.0
H251 H 0.52047 0.1145 0.08608 0.0
H252 H 0.44326 0.18515 0.10551 0.0
Cu253 Cu 0.96564 0.3525 0.0985 0.0
N254 N 0.96085 0.3836 0.09148 0.0
N255 N 0.97096 0.42603 0.07305 0.0
C256 C 0.98012 0.40743 0.07715 0.0
C257 C 0.9448 0.41334 0.08552 0.0
C258 C 0.93856 0.38707 0.09674 0.0
O259 O 0.98353 0.34999 0.06014 0.0
C260 C 0.97777 0.36499 0.16142 0.0
O261 O 0.95559 0.36802 0.15815 0.0
H262 H 1.00047 0.41086 0.06973 0.0
H263 H 0.91902 0.37143 0.10741 0.0
N264 N 0.9313 0.31915 0.10371 0.0
N265 N 0.9002 0.27625 0.12194 0.0
C266 C 0.92676 0.29839 0.124 0.0
C267 C 0.90685 0.30997 0.08811 0.0
C268 C 0.88759 0.28347 0.09931 0.0
C269 C 0.98192 0.3278 0.04831 0.0
O270 O 0.97057 0.30425 0.06464 0.0
H271 H 0.94296 0.29933 0.13941 0.0
H272 H 0.90337 0.32161 0.06976 0.0
O273 O 0.98722 0.35856 0.13724 0.0
H274 H 0.93084 0.422 0.08572 0.0
H275 H 0.86598 0.27066 0.09147 0.0
Cu276 Cu 0.3565 0.40814 0.93833 0.0
N277 N 0.3881 0.44312 0.94892 0.0
N278 N 0.43042 0.47488 0.96826 0.0
C279 C 0.41144 0.44715 0.96413 0.0
C280 C 0.41861 0.4889 0.95491 0.0
C281 C 0.39252 0.46928 0.94307 0.0
O282 O 0.34481 0.38424 0.97559 0.0
C283 C 0.37376 0.40859 0.87756 0.0
O284 O 0.37854 0.4346 0.88054 0.0
H285 H 0.41475 0.43014 0.97155 0.0
H286 H 0.37786 0.4738 0.93092 0.0
N287 N 0.32597 0.41252 0.92713 0.0
N288 N 0.28478 0.40244 0.90526 0.0
C289 C 0.30565 0.3961 0.90636 0.0
C290 C 0.31778 0.42989 0.93973 0.0
C291 C 0.29241 0.42378 0.92622 0.0
C292 C 0.35881 0.37496 0.99024 0.0
O293 O 0.38244 0.37855 0.97826 0.0
H294 H 0.30564 0.379 0.89336 0.0
H295 H 0.32904 0.44532 0.95806 0.0
O296 O 0.3646 0.39222 0.90131 0.0
H297 H 0.42794 0.51168 0.95412 0.0
H298 H 0.28039 0.43403 0.93176 0.0
Cu299 Cu 0.63207 0.96011 0.94061 0.0
N300 N 0.62754 0.92476 0.92991 0.0
N301 N 0.63723 0.8925 0.91005 0.0
C302 C 0.64421 0.92002 0.91055 0.0
C303 C 0.61516 0.8794 0.92987 0.0
C304 C 0.60929 0.89935 0.94212 0.0
O305 O 0.64663 0.98406 0.90365 0.0
C306 C 0.66548 0.99641 0.99232 0.0
O307 O 0.66188 0.01646 0.98007 0.0
H308 H 0.66187 0.93661 0.8981 0.0
H309 H 0.59336 0.89573 0.9594 0.0
N310 N 0.59715 0.95657 0.95053 0.0
N311 N 0.56496 0.96672 0.96912 0.0
C312 C 0.59262 0.97488 0.9674 0.0
C313 C 0.57147 0.93612 0.94111 0.0
C314 C 0.55158 0.94227 0.95256 0.0
C315 C 0.67115 0.99337 0.89226 0.0
O316 O 0.68995 0.99027 0.90831 0.0
H317 H 0.60932 0.99423 0.97746 0.0
H318 H 0.5675 0.91817 0.92658 0.0
O319 O 0.65603 0.97286 0.97792 0.0
H320 H 0.60422 0.85709 0.93552 0.0
H321 H 0.52905 0.92964 0.94894 0.0
Cu322 Cu 0.08183 0.68901 0.9396 0.0
N323 N 0.08493 0.6571 0.94898 0.0
N324 N 0.07414 0.61459 0.96798 0.0
C325 C 0.06542 0.63354 0.96364 0.0
C326 C 0.10018 0.62672 0.95532 0.0
C327 C 0.10679 0.65293 0.94371 0.0
O328 O 0.06781 0.69822 0.97722 0.0
C329 C 0.06739 0.67403 0.87752 0.0
O330 O 0.08848 0.66924 0.88085 0.0
H331 H 0.04512 0.63024 0.97079 0.0
H332 H 0.12624 0.66795 0.93239 0.0
N333 N 0.11704 0.72037 0.93125 0.0
N334 N 0.14895 0.76242 0.9118 0.0
C335 C 0.12181 0.7413 0.9111 0.0
C336 C 0.14195 0.72841 0.94532 0.0
C337 C 0.16171 0.75434 0.93332 0.0
C338 C 0.04336 0.68348 0.98899 0.0
O339 O 0.02381 0.66188 0.97303 0.0
H340 H 0.10535 0.74145 0.89712 0.0
H341 H 0.14535 0.71658 0.96351 0.0
O342 O 0.05934 0.68224 0.90148 0.0
H343 H 0.11376 0.61761 0.95501 0.0
H344 H 0.18368 0.76634 0.94014 0.0
Cu345 Cu 0.36219 0.95962 0.43339 0.0
N346 N 0.33034 0.92482 0.42287 0.0
N347 N 0.28741 0.89333 0.40464 0.0
C348 C 0.30656 0.92101 0.40896 0.0
C349 C 0.2997 0.87916 0.41649 0.0
C350 C 0.32609 0.8986 0.42773 0.0
O351 O 0.37366 0.98381 0.39641 0.0
C352 C 0.34468 0.95873 0.49429 0.0
O353 O 0.33892 0.93242 0.49085 0.0
H354 H 0.30345 0.93823 0.40192 0.0
H355 H 0.34098 0.8939 0.43899 0.0
N356 N 0.39276 0.95501 0.44371 0.0
N357 N 0.43427 0.96499 0.46463 0.0
C358 C 0.41344 0.97142 0.46413 0.0
C359 C 0.40069 0.9376 0.43068 0.0
C360 C 0.42621 0.94358 0.44367 0.0
C361 C 0.35975 0.99338 0.38212 0.0
O362 O 0.33616 0.98975 0.39427 0.0
H363 H 0.41332 0.98807 0.47792 0.0
H364 H 0.38923 0.92233 0.41227 0.0
O365 O 0.35457 0.97541 0.47087 0.0
H366 H 0.29024 0.85639 0.41747 0.0
H367 H 0.43837 0.93368 0.4372 0.0
Cu368 Cu 0.08078 0.41173 0.43472 0.0
N369 N 0.08656 0.44776 0.44334 0.0
N370 N 0.07744 0.48045 0.46285 0.0
C371 C 0.06914 0.45265 0.4611 0.0
C372 C 0.10112 0.49358 0.44533 0.0
C373 C 0.10672 0.47331 0.43333 0.0
O374 O 0.06311 0.3907 0.47279 0.0
C375 C 0.0482 0.37521 0.38262 0.0
O376 O 0.05124 0.35502 0.39548 0.0
H377 H 0.05027 0.4359 0.47184 0.0
H378 H 0.12405 0.4769 0.41821 0.0
N379 N 0.11516 0.41304 0.42796 0.0
N380 N 0.14701 0.40198 0.4104 0.0
C381 C 0.12006 0.39637 0.40859 0.0
C382 C 0.13987 0.42993 0.44248 0.0
C383 C 0.15954 0.4232 0.43172 0.0
C384 C 0.06595 0.37089 0.48464 0.0
O385 O 0.07846 0.35982 0.46838 0.0
H386 H 0.104 0.37996 0.39407 0.0
H387 H 0.14323 0.44581 0.45995 0.0
O388 O 0.05778 0.39892 0.39667 0.0
H389 H 0.11358 0.51617 0.44152 0.0
H390 H 0.18136 0.43324 0.43911 0.0
Cu391 Cu 0.63758 0.6867 0.43489 0.0
N392 N 0.63306 0.71779 0.42539 0.0
N393 N 0.64232 0.75985 0.4064 0.0
C394 C 0.65201 0.74168 0.41077 0.0
C395 C 0.61623 0.74686 0.41897 0.0
C396 C 0.61057 0.72095 0.43059 0.0
O397 O 0.65213 0.67809 0.39727 0.0
C398 C 0.65185 0.70254 0.4968 0.0
O399 O 0.63055 0.70695 0.49311 0.0
H400 H 0.67262 0.74578 0.40373 0.0
H401 H 0.59136 0.70546 0.44194 0.0
N402 N 0.60298 0.65457 0.44335 0.0
N403 N 0.57224 0.61191 0.46245 0.0
C404 C 0.59915 0.63353 0.46286 0.0
C405 C 0.57771 0.64609 0.42999 0.0
C406 C 0.55867 0.61981 0.44179 0.0
C407 C 0.6764 0.69341 0.38531 0.0
O408 O 0.69557 0.71545 0.40107 0.0
H409 H 0.61611 0.63371 0.47616 0.0
H410 H 0.57358 0.65786 0.41239 0.0
O411 O 0.66015 0.69427 0.47312 0.0
H412 H 0.60198 0.75519 0.41928 0.0
H413 H 0.53662 0.60746 0.4354 0.0
H414 H 0.98529 0.66069 0.18276 0.0
H415 H 0.07826 0.72755 0.02764 0.0
H416 H 0.06226 0.7415 0.18067 0.0
H417 H 0.99823 0.64972 0.02683 0.0
H418 H 0.07277 0.73249 0.08391 0.0
H419 H 0.99031 0.65516 0.12625 0.0
C420 C 1.0034 0.67713 0.17055 0.0
C421 C 0.02337 0.70161 0.18658 0.0
C422 C 0.05631 0.71438 0.07145 0.0
C423 C 0.02906 0.69555 0.12175 0.0
C424 C 0.05938 0.7116 0.03922 0.0
C425 C 0.03866 0.68818 0.02237 0.0
C426 C 0.03241 0.69353 0.0872 0.0
C427 C 1.01469 0.66818 0.03878 0.0
C428 C 1.00615 0.67403 0.13821 0.0
C429 C 0.0463 0.72227 0.16938 0.0
N430 N 1.01229 0.67124 0.07029 0.0
N431 N 0.04846 0.71879 0.13799 0.0
H432 H 0.39032 0.3683 0.03633 0.0
H433 H 0.26399 0.29943 0.15964 0.0
H434 H 0.30733 0.35563 1.01766 0.0
H435 H 0.35091 0.33698 0.18876 0.0
H436 H 0.27934 0.31611 0.1062 0.0
H437 H 0.37602 0.3525 0.09072 0.0
C438 C 0.36902 0.36192 0.04354 0.0
C439 C 0.34996 0.36322 0.02235 0.0
C440 C 0.29512 0.32089 0.12424 0.0
C441 C 0.33358 0.34529 0.08449 0.0
C442 C 0.28638 0.31135 0.15481 0.0
C443 C 0.30621 0.31687 0.17873 0.0
C444 C 0.32398 0.33575 0.11722 0.0
C445 C 0.33494 0.33246 0.17106 0.0
C446 C 0.36098 0.35316 0.07465 0.0
C447 C 0.32274 0.35498 0.03312 0.0
N448 N 0.343 0.34117 0.14084 0.0
N449 N 0.31537 0.34631 0.06334 0.0
H450 H 0.73566 0.97293 0.16437 0.0
H451 H 0.67425 0.03633 0.0375 0.0
H452 H 0.70782 0.03158 0.18992 0.0
H453 H 0.68306 0.96305 0.02085 0.0
H454 H 0.69 0.03807 0.09208 0.0
H455 H 0.7192 0.97156 0.11071 0.0
C456 C 0.72587 0.9854 0.15873 0.0
C457 C 0.72307 1.00236 0.18172 0.0
C458 C 0.68852 0.02167 0.07641 0.0
C459 C 0.70445 1.0012 0.11988 0.0
C460 C 0.67977 0.0208 0.04518 0.0
C461 C 0.67736 0.99952 0.0245 0.0
C462 C 0.69518 1.0013 0.08692 0.0
C463 C 0.68454 0.97981 0.03589 0.0
C464 C 0.71648 0.98462 0.12801 0.0
C465 C 0.71019 0.01805 0.17298 0.0
N466 N 0.69314 0.98122 0.06622 0.0
N467 N 0.70154 0.01728 0.14264 0.0
H468 H 0.68231 0.01984 0.5268 0.0
H469 H 0.74872 0.07087 0.35507 0.0
H470 H 0.73429 0.10739 0.50038 0.0
H471 H 0.67972 0.98663 0.37272 0.0
H472 H 0.7465 0.08351 0.40977 0.0
H473 H 0.68447 1.00589 0.47211 0.0
C474 C 0.69442 0.03607 0.50963 0.0
C475 C 0.70811 0.06481 0.51815 0.0
C476 C 0.73173 0.06228 0.40169 0.0
C477 C 0.71057 0.0491 0.45577 0.0
C478 C 0.73295 0.05506 0.37039 0.0
C479 C 0.71431 0.02767 0.35919 0.0
C480 C 0.71193 0.04191 0.42221 0.0
C481 C 0.69437 1.00806 0.38025 0.0
C482 C 0.69545 0.02813 0.47841 0.0
C483 C 0.72329 0.08499 0.49489 0.0
N484 N 0.69381 0.0155 0.41081 0.0
N485 N 0.72413 0.07676 0.46488 0.0
H486 H 0.04249 0.6719 0.50719 0.0
H487 H 0.98056 0.73478 0.38043 0.0
H488 H 0.97158 0.6839 0.52453 0.0
H489 H 0.03498 0.70215 0.35425 0.0
H490 H 0.97989 0.71932 0.43434 0.0
H491 H 0.04363 0.68685 0.45244 0.0
C492 C 0.0274 0.67801 0.49963 0.0
C493 C 1.00693 0.6767 0.52054 0.0
C494 C 0.99187 0.71534 0.41685 0.0
C495 C 1.00801 0.69357 0.45794 0.0
C496 C 0.99224 0.72415 0.38599 0.0
C497 C 1.00781 0.71971 0.36276 0.0
C498 C 1.00749 0.70226 0.42486 0.0
C499 C 0.02253 0.7058 0.37139 0.0
C500 C 0.02791 0.68627 0.46831 0.0
C501 C 0.98771 0.68455 0.5093 0.0
N502 N 0.0222 0.69775 0.40186 0.0
N503 N 0.98876 0.69267 0.47887 0.0
H504 H 0.32988 0.29579 0.52471 0.0
H505 H 0.38937 0.32889 0.35157 0.0
H506 H 0.41407 0.36426 0.50655 0.0
H507 H 0.30319 0.30587 0.37058 0.0
H508 H 0.39943 0.33603 0.40844 0.0
H509 H 0.31967 0.29294 0.46792 0.0
C510 C 0.34611 0.31031 0.50884 0.0
C511 C 0.37278 0.33038 0.52037 0.0
C512 C 0.3784 0.32962 0.39999 0.0
C513 C 0.36154 0.32669 0.45562 0.0
C514 C 0.37265 0.3255 0.36765 0.0
C515 C 0.34547 0.31693 0.35633 0.0
C516 C 0.35661 0.32429 0.42113 0.0
C517 C 0.32452 0.31273 0.37824 0.0
C518 C 0.34028 0.3087 0.47653 0.0
C519 C 0.39312 0.34863 0.49872 0.0
N520 N 0.33042 0.31608 0.40961 0.0
N521 N 0.38722 0.3461 0.46734 0.0
H522 H 0.03464 0.30279 0.86388 0.0
H523 H 0.98136 0.36205 1.00194 0.0
H524 H 0.9706 0.32531 0.84734 0.0
H525 H 0.99662 0.29271 1.0175 0.0
H526 H 0.98792 0.35887 0.94528 0.0
H527 H 0.03137 0.30917 0.92057 0.0
C528 C 0.02015 0.30945 0.87212 0.0
C529 C 1.00283 0.31353 0.85083 0.0
C530 C 0.99001 0.34453 0.96119 0.0
C531 C 0.99933 0.32113 0.91558 0.0
C532 C 0.9865 0.34642 0.99351 0.0
C533 C 0.98847 0.32759 1.01449 0.0
C534 C 0.99626 0.32416 0.94981 0.0
C535 C 0.99487 0.30757 1.00215 0.0
C536 C 1.0182 0.31287 0.90445 0.0
C537 C 0.98427 0.32189 0.86293 0.0
N538 N 0.99874 0.3065 0.97059 0.0
N539 N 0.98314 0.32561 0.89454 0.0
H540 H 0.73493 0.63776 0.99333 0.0
H541 H 0.67423 0.70255 0.86742 0.0
H542 H 0.681 0.67083 1.02009 0.0
H543 H 0.7451 0.69049 0.85002 0.0
H544 H 0.67269 0.68697 0.92197 0.0
H545 H 0.73583 0.65371 0.9396 0.0
C546 C 0.72338 0.64857 0.98793 0.0
C547 C 0.7079 0.65301 1.01129 0.0
C548 C 0.6885 0.68768 0.90613 0.0
C549 C 0.70852 0.67106 0.94938 0.0
C550 C 0.68924 0.69631 0.87492 0.0
C551 C 0.7098 0.69779 0.85405 0.0
C552 C 0.70825 0.68016 0.91643 0.0
C553 C 0.72889 0.68973 0.86522 0.0
C554 C 0.7239 0.65768 0.95718 0.0
C555 C 0.69338 0.66718 1.00286 0.0
N556 N 0.72761 0.68125 0.89554 0.0
N557 N 0.69386 0.67552 0.97248 0.0
H558 H 0.37555 1.00615 1.00452 0.0
H559 H 0.31519 0.06878 0.87553 0.0
H560 H 0.36747 0.08005 1.01961 0.0
H561 H 0.34291 1.00969 0.85161 0.0
H562 H 0.3314 0.07063 0.92943 0.0
H563 H 0.36004 1.00398 0.94979 0.0
C564 C 0.37025 0.02174 0.99646 0.0
C565 C 0.37278 0.0433 1.01676 0.0
C566 C 0.33413 0.05737 0.91243 0.0
C567 C 0.35521 0.04101 0.95414 0.0
C568 C 0.32488 0.0563 0.88158 0.0
C569 C 0.32773 0.03908 0.85898 0.0
C570 C 0.34607 0.04081 0.92107 0.0
C571 C 0.34049 0.02341 0.86823 0.0
C572 C 0.36163 0.02061 0.96514 0.0
C573 C 0.36587 0.06306 1.00488 0.0
N574 N 0.34901 0.02447 0.89868 0.0
N575 N 0.35738 0.06141 0.97446 0.0
H576 H 0.37475 0.05182 0.6701 0.0
H577 H 0.31284 0.92643 0.54295 0.0
H578 H 0.30226 0.96939 0.68626 0.0
H579 H 0.37042 0.01326 0.51788 0.0
H580 H 0.31121 0.94157 0.59656 0.0
H581 H 0.37662 0.03767 0.61564 0.0
C582 C 0.35942 0.03067 0.66234 0.0
C583 C 0.33833 1.01175 0.68285 0.0
C584 C 0.32409 0.95741 0.57937 0.0
C585 C 0.34027 0.99555 0.62053 0.0
C586 C 0.32503 0.94877 0.54869 0.0
C587 C 0.34177 0.96862 0.52586 0.0
C588 C 0.3403 0.98613 0.58762 0.0
C589 C 0.35708 0.99729 0.5347 0.0
C590 C 0.36037 0.02271 0.63117 0.0
C591 C 0.31887 0.98471 0.67135 0.0
N592 N 0.35616 1.00518 0.565 0.0
N593 N 0.32035 0.97744 0.64106 0.0
H594 H 1.01699 0.2935 0.66943 0.0
H595 H 0.06493 0.40505 0.53109 0.0
H596 H 0.07923 0.3812 0.68537 0.0
H597 H 0.05351 0.32174 0.5154 0.0
H598 H 0.05916 0.39555 0.5878 0.0
H599 H 0.01924 0.30274 0.61274 0.0
C600 C 0.03085 0.31481 0.66107 0.0
C601 C 0.04799 0.33667 0.68217 0.0
C602 C 0.05772 0.37934 0.57185 0.0
C603 C 0.05029 0.34728 0.61744 0.0
C604 C 0.06077 0.38459 0.5395 0.0
C605 C 0.05967 0.3641 0.51847 0.0
C606 C 0.05278 0.35316 0.58321 0.0
C607 C 0.05455 0.3381 0.53079 0.0
C608 C 0.03222 0.31995 0.62873 0.0
C609 C 0.06574 0.36376 0.66992 0.0
N610 N 0.05109 0.33327 0.56238 0.0
N611 N 0.0663 0.36838 0.63833 0.0
H612 H 0.64867 0.73238 0.54635 0.0
H613 H 0.71056 0.67001 0.67386 0.0
H614 H 0.68122 0.67766 0.52049 0.0
H615 H 0.69804 0.74091 0.69143 0.0
H616 H 0.69615 0.66903 0.61883 0.0
H617 H 0.66374 0.73298 0.60051 0.0
C618 C 0.65921 0.72062 0.55204 0.0
C619 C 0.66374 0.70499 0.52881 0.0
C620 C 0.69651 0.68473 0.6348 0.0
C621 C 0.68076 0.70523 0.5912 0.0
C622 C 0.70447 0.68515 0.66628 0.0
C623 C 0.70546 0.70555 0.68736 0.0
C624 C 0.68919 0.70465 0.62443 0.0
C625 C 0.69763 0.72482 0.67608 0.0
C626 C 0.6678 0.72095 0.58304 0.0
C627 C 0.67752 0.69017 0.53762 0.0
N628 N 0.68981 0.72386 0.6455 0.0
N629 N 0.68535 0.69046 0.56822 0.0
H630 H 0.3505 0.35375 0.85533 0.0
H631 H 0.41785 0.4029 0.68367 0.0
H632 H 0.40358 0.44086 0.82788 0.0
H633 H 0.34982 0.31835 0.70225 0.0
H634 H 0.41528 0.41606 0.73797 0.0
H635 H 0.35293 0.33903 0.80109 0.0
C636 C 0.36291 0.36972 0.83804 0.0
C637 C 0.37684 0.39858 0.84613 0.0
C638 C 0.40079 0.39464 0.73021 0.0
C639 C 0.37958 0.38197 0.78425 0.0
C640 C 0.40222 0.38711 0.69913 0.0
C641 C 0.38396 0.35949 0.6883 0.0
C642 C 0.38113 0.37437 0.75092 0.0
C643 C 0.36417 0.33994 0.70952 0.0
C644 C 0.36409 0.36134 0.80707 0.0
C645 C 0.3924 0.41839 0.82272 0.0
N646 N 0.36338 0.34771 0.73989 0.0
N647 N 0.39334 0.40974 0.79297 0.0
H648 H 0.65122 0.03192 0.69944 0.0
H649 H 0.71696 1.00496 0.85559 0.0
H650 H 0.72828 0.02859 0.6998 0.0
H651 H 0.63716 1.00277 0.85265 0.0
H652 H 0.7226 0.01542 0.79913 0.0
H653 H 0.64621 0.02178 0.75574 0.0
C654 C 0.66699 0.0288 0.71128 0.0
C655 C 0.69022 0.03111 0.69475 0.0
C656 C 0.70392 0.01278 0.81089 0.0
C657 C 0.68476 0.01982 0.75961 0.0
C658 C 0.70077 1.007 0.84321 0.0
C659 C 0.67653 1.00295 0.85899 0.0
C660 C 0.6827 0.01459 0.79419 0.0
C661 C 0.65619 1.00568 0.84156 0.0
C662 C 0.66416 0.02312 0.74353 0.0
C663 C 0.70996 0.0269 0.71149 0.0
N664 N 0.65971 1.01123 0.81018 0.0
N665 N 0.70687 0.0216 0.743 0.0
H666 H 0.03644 0.69778 0.85555 0.0
H667 H 0.02097 0.63418 0.68155 0.0
H668 H 0.07152 0.64596 0.82667 0.0
H669 H 1.00603 0.7031 0.70202 0.0
H670 H 0.03605 0.6357 0.73601 0.0
H671 H 0.02076 0.69688 0.80094 0.0
C672 C 0.04056 0.68598 0.83785 0.0
C673 C 0.05531 0.67193 0.84568 0.0
C674 C 0.02964 0.65063 0.7286 0.0
C675 C 0.03763 0.67092 0.78336 0.0
C676 C 0.02106 0.6498 0.69745 0.0
C677 C 1.01231 0.66861 0.68712 0.0
C678 C 0.02917 0.67017 0.74988 0.0
C679 C 1.01282 0.68835 0.70888 0.0
C680 C 0.03183 0.68567 0.80668 0.0
C681 C 0.06032 0.65719 0.82173 0.0
N682 N 0.02091 0.68849 0.73931 0.0
N683 N 0.05149 0.65704 0.79179 0.0
H684 H 0.72168 0.72721 0.34766 0.0
H685 H 0.65378 0.63103 0.19353 0.0
H686 H 0.64171 0.6493 0.34652 0.0
H687 H 0.73094 0.71168 0.19193 0.0
H688 H 0.64949 0.63738 0.24975 0.0
H689 H 0.72653 0.72131 0.2912 0.0
C690 C 0.70528 0.70871 0.33567 0.0
C691 C 0.68124 0.68873 0.35196 0.0
C692 C 0.66731 0.65378 0.23713 0.0
C693 C 0.68652 0.68202 0.28717 0.0
C694 C 0.66973 0.65022 0.20492 0.0
C695 C 0.69276 0.67086 0.18786 0.0
C696 C 0.68814 0.67811 0.25264 0.0
C697 C 0.71276 0.69525 0.20404 0.0
C698 C 0.70799 0.70546 0.30335 0.0
C699 C 0.66061 0.66528 0.33503 0.0
N700 N 0.71006 0.69814 0.23553 0.0
N701 N 0.66371 0.66264 0.30365 0.0
H702 H 0.36336 0.0355 0.18384 0.0
H703 H 0.41098 0.01214 0.35441 0.0
H704 H 0.4499 0.06715 0.21144 0.0
H705 H 0.32865 1.00153 0.3367 0.0
H706 H 0.42433 0.02838 0.30037 0.0
H707 H 0.34869 0.01813 0.23785 0.0
C708 C 0.37921 0.0385 0.20112 0.0
C709 C 0.40789 0.05281 0.19315 0.0
C710 C 0.40337 0.02265 0.3083 0.0
C711 C 0.39135 0.03319 0.25476 0.0
C712 C 0.39574 0.0134 0.33921 0.0
C713 C 0.36868 1.00554 0.35019 0.0
C714 C 0.38373 0.02378 0.28792 0.0
C715 C 0.34982 1.00758 0.32932 0.0
C716 C 0.37086 0.02881 0.23196 0.0
C717 C 0.42757 0.05635 0.21654 0.0
N718 N 0.35763 0.01632 0.2991 0.0
N719 N 0.41894 0.0466 0.24616 0.0
H720 H 0.04126 0.33607 0.33724 0.0
H721 H 0.97291 0.39305 0.2117 0.0
H722 H 0.02915 0.40731 0.35413 0.0
H723 H 1.00976 0.34256 0.18396 0.0
H724 H 0.9895 0.39474 0.26538 0.0
H725 H 0.02535 0.33388 0.28259 0.0
C726 C 0.03499 0.35104 0.32959 0.0
C727 C 0.03648 0.37188 0.35034 0.0
C728 C 0.99414 0.3834 0.24759 0.0
C729 C 0.01841 0.36953 0.28795 0.0
C730 C 0.98465 0.38241 0.21689 0.0
C731 C 0.99001 0.36769 0.19327 0.0
C732 C 1.00881 0.36922 0.25508 0.0
C733 C 1.00537 0.35433 0.20141 0.0
C734 C 0.02616 0.34992 0.29834 0.0
C735 C 0.02837 0.39091 0.33901 0.0
N736 N 1.01406 0.3552 0.23176 0.0
N737 N 0.01963 0.38921 0.3087 0.0
H738 H 0.25601 0.91899 0.39647 0.0
H739 H 0.12784 0.78394 0.31325 0.0
H740 H 0.25529 0.84054 0.37938 0.0
H741 H 0.13385 0.8658 0.31848 0.0
H742 H 0.17311 0.80347 0.34041 0.0
H743 H 0.21025 0.89917 0.37059 0.0
C744 C 0.24642 0.89767 0.3872 0.0
C745 C 0.25987 0.88156 0.3901 0.0
C746 C 0.16454 0.81718 0.33564 0.0
C747 C 0.20692 0.85852 0.36066 0.0
C748 C 0.13854 0.80598 0.32029 0.0
C749 C 0.1269 0.82322 0.31356 0.0
C750 C 0.17907 0.84585 0.34454 0.0
C751 C 0.1421 0.85178 0.32285 0.0
C752 C 0.22012 0.8863 0.3725 0.0
C753 C 0.24582 0.85377 0.37807 0.0
N754 N 0.16733 0.86217 0.33791 0.0
N755 N 0.22019 0.84318 0.36389 0.0
H756 H 0.17764 0.29421 0.28613 0.0
H757 H 0.19447 0.4004 0.42625 0.0
H758 H 0.25032 0.3347 0.34733 0.0
H759 H 0.12777 0.36999 0.3568 0.0
H760 H 0.21423 0.37505 0.39879 0.0
H761 H 0.15763 0.31975 0.31336 0.0
C762 C 0.18933 0.30836 0.30536 0.0
C763 C 0.21577 0.31238 0.31433 0.0
C764 C 0.19527 0.37396 0.38954 0.0
C765 C 0.19306 0.3418 0.34554 0.0
C766 C 0.18401 0.38861 0.40516 0.0
C767 C 0.15928 0.38746 0.394 0.0
C768 C 0.18175 0.35785 0.36254 0.0
C769 C 0.14658 0.37129 0.3667 0.0
C770 C 0.17798 0.32307 0.32078 0.0
C771 C 0.2301 0.33123 0.33925 0.0
N772 N 0.1579 0.35713 0.35199 0.0
N773 N 0.21856 0.34516 0.35398 0.0
H774 H 0.75559 0.90472 0.29483 0.0
H775 H 0.63294 0.80406 0.41396 0.0
H776 H 0.70154 0.92933 0.3423 0.0
H777 H 0.6848 0.77829 0.36356 0.0
H778 H 0.65773 0.84999 0.3879 0.0
H779 H 0.73017 0.85843 0.3201 0.0
C780 C 0.73846 0.90047 0.31062 0.0
C781 C 0.73075 0.92106 0.31636 0.0
C782 C 0.66368 0.83427 0.38254 0.0
C783 C 0.70134 0.86788 0.34533 0.0
C784 C 0.64941 0.80793 0.39733 0.0
C785 C 0.65675 0.78713 0.39111 0.0
C786 C 0.6855 0.83999 0.36129 0.0
C787 C 0.67862 0.79368 0.36957 0.0
C788 C 0.72383 0.87394 0.32495 0.0
C789 C 0.70804 0.91409 0.33677 0.0
N790 N 0.69218 0.81947 0.35549 0.0
N791 N 0.69422 0.88817 0.35054 0.0
H792 H 0.80086 0.10333 0.1861 0.0
H793 H 0.91734 0.26803 0.17918 0.0
H794 H 0.86428 0.14684 0.25779 0.0
H795 H 0.85571 0.22478 0.10571 0.0
H796 H 0.89791 0.22377 0.20824 0.0
H797 H 0.82023 0.14746 0.15644 0.0
C798 C 0.81879 0.12213 0.1957 0.0
C799 C 0.83087 0.12124 0.22461 0.0
C800 C 0.88861 0.22392 0.18575 0.0
C801 C 0.85333 0.17195 0.19055 0.0
C802 C 0.89982 0.24923 0.169 0.0
C803 C 0.8883 0.25026 0.13975 0.0
C804 C 0.86563 0.19927 0.1733 0.0
C805 C 0.86517 0.22517 0.12823 0.0
C806 C 0.82993 0.14733 0.17864 0.0
C807 C 0.85441 0.14629 0.23552 0.0
N808 N 0.85465 0.20074 0.14498 0.0
N809 N 0.86477 0.17056 0.21855 0.0
H810 H 0.8106 0.62744 0.12341 0.0
H811 H 0.90678 0.74685 0.24977 0.0
H812 H 0.78181 0.67494 0.17793 0.0
H813 H 0.9354 0.69908 0.19548 0.0
H814 H 0.86104 0.72109 0.22337 0.0
H815 H 0.85637 0.65333 0.1497 0.0
C816 C 0.81379 0.64318 0.14099 0.0
C817 C 0.79218 0.64896 0.14834 0.0
C818 C 0.87734 0.71623 0.21725 0.0
C819 C 0.84482 0.67899 0.17843 0.0
C820 C 0.90356 0.73108 0.23222 0.0
C821 C 0.9251 0.72517 0.22498 0.0
C822 C 0.87251 0.6953 0.19476 0.0
C823 C 0.91942 0.70414 0.20225 0.0
C824 C 0.84004 0.6581 0.15589 0.0
C825 C 0.79784 0.66997 0.17108 0.0
N826 N 0.89374 0.69003 0.18799 0.0
N827 N 0.82354 0.68417 0.18528 0.0
H828 H 0.31175 0.18096 0.26631 0.0
H829 H 0.40854 0.19647 0.11784 0.0
H830 H 0.33651 0.24573 0.19553 0.0
H831 H 0.38205 0.1299 0.18665 0.0
H832 H 0.38318 0.21539 0.14683 0.0
H833 H 0.33753 0.16207 0.23786 0.0
C834 C 0.32243 0.19116 0.24474 0.0
C835 C 0.32192 0.21508 0.23344 0.0
C836 C 0.38292 0.19665 0.15563 0.0
C837 C 0.35183 0.19366 0.20083 0.0
C838 C 0.3976 0.18591 0.13916 0.0
C839 C 0.3975 0.16147 0.14972 0.0
C840 C 0.36798 0.18295 0.18298 0.0
C841 C 0.38247 0.14854 0.17733 0.0
C842 C 0.33732 0.18043 0.22858 0.0
C843 C 0.33658 0.22755 0.20549 0.0
N844 N 0.36835 0.15942 0.19297 0.0
N845 N 0.35089 0.21672 0.19022 0.0
H846 H 0.81029 0.19126 0.62944 0.0
H847 H 0.90406 0.17155 0.76122 0.0
H848 H 0.77961 0.1164 0.68671 0.0
H849 H 0.93639 0.24167 0.69641 0.0
H850 H 0.85808 0.15129 0.73521 0.0
H851 H 0.8562 0.2108 0.65527 0.0
C852 C 0.81313 0.17897 0.64755 0.0
C853 C 0.79099 0.1521 0.65582 0.0
C854 C 0.87528 0.17112 0.72671 0.0
C855 C 0.84371 0.17429 0.68545 0.0
C856 C 0.90163 0.18265 0.74148 0.0
C857 C 0.92427 0.20852 0.73123 0.0
C858 C 0.87146 0.18555 0.7015 0.0
C859 C 0.91959 0.22202 0.70565 0.0
C860 C 0.83944 0.19007 0.66218 0.0
C861 C 0.79611 0.13702 0.67923 0.0
N862 N 0.89379 0.21042 0.69177 0.0
N863 N 0.82188 0.14833 0.69325 0.0
H864 H 0.91868 0.66595 0.68768 0.0
H865 H 0.79839 0.70859 0.68749 0.0
H866 H 0.85312 0.63762 0.61715 0.0
H867 H 0.8641 0.73725 0.75786 0.0
H868 H 0.8181 0.68245 0.66147 0.0
H869 H 0.89899 0.69209 0.71375 0.0
C870 C 0.9002 0.66525 0.67758 0.0
C871 C 0.88765 0.64956 0.65003 0.0
C872 C 0.82824 0.69448 0.68259 0.0
C873 C 0.8648 0.67941 0.68001 0.0
C874 C 0.81691 0.70936 0.69756 0.0
C875 C 0.82949 0.72514 0.72505 0.0
C876 C 0.85238 0.69529 0.69513 0.0
C877 C 0.85381 0.72567 0.73661 0.0
C878 C 0.88888 0.68013 0.69259 0.0
C879 C 0.86339 0.64912 0.63845 0.0
N880 N 0.86438 0.71092 0.72166 0.0
N881 N 0.85283 0.66387 0.65342 0.0
H882 H 0.35466 0.11157 0.69925 0.0
H883 H 0.36782 0.26237 0.66802 0.0
H884 H 0.29973 0.13793 0.74117 0.0
H885 H 0.42345 0.23643 0.62711 0.0
H886 H 0.34388 0.21778 0.69655 0.0
H887 H 0.38107 0.15773 0.67419 0.0
C888 C 0.34824 0.12709 0.70347 0.0
C889 C 0.32484 0.1207 0.72248 0.0
C890 C 0.3614 0.22187 0.68143 0.0
C891 C 0.35496 0.17375 0.69334 0.0
C892 C 0.37528 0.24751 0.66523 0.0
C893 C 0.3978 0.25333 0.64498 0.0
C894 C 0.36999 0.20174 0.67743 0.0
C895 C 0.40603 0.23282 0.64207 0.0
C896 C 0.36329 0.15347 0.68895 0.0
C897 C 0.31735 0.14168 0.72648 0.0
N898 N 0.39211 0.20797 0.65803 0.0
N899 N 0.33233 0.1672 0.71203 0.0
H900 H 0.24964 0.9363 0.85204 0.0
H901 H 0.13077 0.77229 0.85615 0.0
H902 H 0.18595 0.89517 0.78004 0.0
H903 H 0.19496 0.81284 0.92773 0.0
H904 H 0.15056 0.81721 0.82818 0.0
H905 H 0.22988 0.89143 0.88022 0.0
C906 C 0.23157 0.91787 0.84206 0.0
C907 C 0.21955 0.91965 0.81348 0.0
C908 C 0.16035 0.8163 0.85 0.0
C909 C 0.19662 0.86808 0.84588 0.0
C910 C 0.14895 0.79063 0.8661 0.0
C911 C 0.1611 0.78868 0.89449 0.0
C912 C 0.18411 0.84035 0.8623 0.0
C913 C 0.18501 0.81316 0.90583 0.0
C914 C 0.22021 0.89224 0.85827 0.0
C915 C 0.1958 0.89504 0.80208 0.0
N916 N 0.19566 0.83795 0.88977 0.0
N917 N 0.1852 0.87032 0.81825 0.0
H918 H 0.11202 0.32641 0.84394 0.0
H919 H 0.27565 0.37304 0.85042 0.0
H920 H 0.15318 0.30496 0.77122 0.0
H921 H 0.23442 0.39835 0.91904 0.0
H922 H 0.23112 0.34718 0.82152 0.0
H923 H 0.15665 0.35197 0.87206 0.0
C924 C 0.13044 0.32717 0.83371 0.0
C925 C 0.12873 0.31362 0.8049 0.0
C926 C 0.23185 0.35845 0.84288 0.0
C927 C 0.1802 0.34278 0.83746 0.0
C928 C 0.25726 0.37313 0.85949 0.0
C929 C 0.25888 0.38793 0.88732 0.0
C930 C 0.20776 0.35841 0.85418 0.0
C931 C 0.23437 0.38759 0.89759 0.0
C932 C 0.15599 0.34171 0.84994 0.0
C933 C 0.15336 0.31488 0.79338 0.0
N934 N 0.20988 0.37303 0.88111 0.0
N935 N 0.17807 0.32925 0.80965 0.0
H936 H 0.70867 0.78938 0.85411 0.0
H937 H 0.67003 0.91289 0.85781 0.0
H938 H 0.74354 0.85993 0.78986 0.0
H939 H 0.63815 0.84434 0.92469 0.0
H940 H 0.69637 0.89337 0.83205 0.0
H941 H 0.68201 0.8087 0.87958 0.0
C942 C 0.71068 0.80888 0.84525 0.0
C943 C 0.72838 0.82295 0.81966 0.0
C944 C 0.68359 0.88258 0.85235 0.0
C945 C 0.69793 0.84538 0.84899 0.0
C946 C 0.66858 0.8938 0.8672 0.0
C947 C 0.65185 0.88039 0.89367 0.0
C948 C 0.68191 0.85769 0.86393 0.0
C949 C 0.65048 0.85533 0.90426 0.0
C950 C 0.69551 0.81999 0.85993 0.0
C951 C 0.73044 0.84845 0.80965 0.0
N952 N 0.66535 0.84488 0.88942 0.0
N953 N 0.71535 0.85878 0.82426 0.0
H954 H 0.47212 0.43801 0.52062 0.0
H955 H 0.59251 0.60131 0.51627 0.0
H956 H 0.53939 0.47622 0.58912 0.0
H957 H 0.52613 0.56149 0.44687 0.0
H958 H 0.57378 0.55593 0.54319 0.0
H959 H 0.49196 0.48316 0.49332 0.0
C960 C 0.49104 0.45592 0.53002 0.0
C961 C 0.50395 0.45328 0.55742 0.0
C962 C 0.56333 0.55714 0.52206 0.0
C963 C 0.52702 0.50527 0.52597 0.0
C964 C 0.57409 0.58307 0.50655 0.0
C965 C 0.56096 0.58538 0.47912 0.0
C966 C 0.53922 0.53324 0.51012 0.0
C967 C 0.53682 0.56096 0.46807 0.0
C968 C 0.50245 0.48173 0.51429 0.0
C969 C 0.52881 0.47717 0.56802 0.0
N970 N 0.5268 0.53599 0.48356 0.0
N971 N 0.53945 0.50219 0.55237 0.0
H972 H 0.58243 0.0878 0.56621 0.0
H973 H 0.46818 0.94399 0.48145 0.0
H974 H 0.58983 0.01277 0.56021 0.0
H975 H 0.46052 0.01883 0.48795 0.0
H976 H 0.51282 0.96886 0.51017 0.0
H977 H 0.53763 0.06283 0.53784 0.0
C978 C 0.57465 0.06607 0.55908 0.0
C979 C 0.5901 0.05247 0.56569 0.0
C980 C 0.50134 0.97983 0.50535 0.0
C981 C 0.53873 0.02372 0.53285 0.0
C982 C 0.47586 0.96565 0.48879 0.0
C983 C 0.46041 0.97924 0.48218 0.0
C984 C 0.51159 1.00789 0.51539 0.0
C985 C 0.47136 1.00727 0.49278 0.0
C986 C 0.54908 0.05184 0.54271 0.0
C987 C 0.579 0.02435 0.55535 0.0
N988 N 0.49624 0.02064 0.50876 0.0
N989 N 0.55404 1.01094 0.53952 0.0
H990 H 0.04252 0.45906 0.51319 0.0
H991 H 1.0097 0.58646 0.52099 0.0
H992 H 0.07971 0.53052 0.45023 0.0
H993 H 0.97134 0.51369 0.58205 0.0
H994 H 0.03604 0.56685 0.49529 0.0
H995 H 1.01688 0.47922 0.53905 0.0
C996 C 0.04524 0.47894 0.50466 0.0
C997 C 0.06321 0.49295 0.47924 0.0
C998 C 0.02184 0.55516 0.5143 0.0
C999 C 0.03397 0.51642 0.50915 0.0
C1000 C 1.00686 0.56642 0.52912 0.0
C1001 C 0.98825 0.55179 0.55388 0.0
C1002 C 1.0183 0.52905 0.52425 0.0
C1003 C 0.98515 0.52562 0.56292 0.0
C1004 C 0.03065 0.49053 0.51959 0.0
C1005 C 0.06629 0.51902 0.46981 0.0
N1006 N 1.00004 0.51516 0.54818 0.0
N1007 N 0.05175 0.52985 0.48469 0.0
H1008 H 0.44568 0.4508 1.0145 0.0
H1009 H 0.60398 0.58051 0.0259 0.0
H1010 H 0.47699 0.52624 0.95812 0.0
H1011 H 0.56902 0.50978 0.09002 0.0
H1012 H 0.55846 0.5601 0.99921 0.0
H1013 H 0.49153 0.47103 0.04049 0.0
C1014 C 0.46223 0.47155 1.00741 0.0
C1015 C 0.45741 0.48678 0.98396 0.0
C1016 C 0.56077 0.54905 1.01913 0.0
C1017 C 0.5101 0.51025 1.01394 0.0
C1018 C 0.5868 0.56078 0.03454 0.0
C1019 C 0.59054 0.547 0.0605 0.0
C1020 C 0.5382 0.52325 0.02956 0.0
C1021 C 0.56742 0.52113 0.07003 0.0
C1022 C 0.4884 0.48318 0.02244 0.0
C1023 C 0.47961 0.51383 0.97624 0.0
N1024 N 0.54231 0.51015 0.05461 0.0
N1025 N 0.50498 0.52466 0.99111 0.0
H1026 H 0.51401 0.96221 0.9569 0.0
H1027 H 0.53561 0.08062 0.08377 0.0
H1028 H 0.58746 1.00547 1.01675 0.0
H1029 H 0.45956 0.0327 0.02904 0.0
H1030 H 0.55541 0.05408 0.05867 0.0
H1031 H 0.49393 0.9881 0.98269 0.0
C1032 C 0.52589 0.97698 0.97556 0.0
C1033 C 0.55258 0.98159 0.98451 0.0
C1034 C 0.53436 0.04934 0.05219 0.0
C1035 C 0.52973 1.0117 1.01402 0.0
C1036 C 0.52309 0.06462 0.0664 0.0
C1037 C 0.49582 0.05893 0.05859 0.0
C1038 C 0.51834 0.02824 0.02982 0.0
C1039 C 0.48049 0.03762 0.03616 0.0
C1040 C 0.51444 0.9919 0.9902 0.0
C1041 C 0.56706 1.00142 1.00863 0.0
N1042 N 0.49197 0.02313 0.02256 0.0
N1043 N 0.55548 0.01572 0.02247 0.0
H1044 H 0.03245 0.598 1.01157 0.0
H1045 H 1.01227 0.44281 0.02906 0.0
H1046 H 0.08094 0.56884 0.95991 0.0
H1047 H 0.96348 0.47141 0.08102 0.0
H1048 H 0.03754 0.48884 1.00365 0.0
H1049 H 1.00676 0.55186 0.03693 0.0
C1050 C 0.03763 0.58189 1.00535 0.0
C1051 C 0.05893 0.58743 0.98338 0.0
C1052 C 0.02133 0.4851 0.02063 0.0
C1053 C 0.02965 0.53442 1.01277 0.0
C1054 C 1.00695 0.45879 0.03536 0.0
C1055 C 0.98574 0.45314 0.05748 0.0
C1056 C 1.01456 0.50611 0.02795 0.0
C1057 C 0.97946 0.47466 0.064 0.0
C1058 C 0.02301 0.55554 1.02003 0.0
C1059 C 0.06495 0.56575 0.97685 0.0
N1060 N 0.99384 0.50017 0.04938 0.0
N1061 N 0.05039 0.54025 0.99143 0.0
loop_
_geom_bond_atom_site_label_1
_geom_bond_atom_site_label_2
_geom_bond_distance
_geom_bond_site_symmetry_2
_ccdc_geom_bond_type
Cu0 N1 1.999 . S
Cu0 O6 1.969 1_455 S
Cu0 N11 1.985 1_455 S
Cu0 O20 1.959 . S
N1 Cu0 1.999 . S
N1 C3 1.263 . S
N1 C5 1.389 . S
N2 C3 1.358 . S
N2 C4 1.400 . S
C3 N1 1.263 . S
C3 N2 1.358 . S
C3 H9 0.930 . S
C4 N2 1.400 . S
C4 C5 1.351 . S
C4 H21 0.930 . S
C5 N1 1.389 . S
C5 C4 1.351 . S
C5 H10 0.930 . S
O6 Cu0 1.969 1_655 S
O6 C16 1.269 . S
C7 O8 1.261 . S
C7 O20 1.251 . S
O8 C7 1.261 . S
H9 C3 0.930 . S
H10 C5 0.930 . S
N11 Cu0 1.985 1_655 S
N11 C13 1.335 . S
N11 C14 1.390 . S
N12 C13 1.345 . S
N12 C15 1.336 . S
C13 N11 1.335 . S
C13 N12 1.345 . S
C13 H18 0.930 . S
C14 N11 1.390 . S
C14 C15 1.346 . S
C14 H19 0.930 . S
C15 N12 1.336 . S
C15 C14 1.346 . S
C15 H22 0.929 . S
C16 O6 1.269 . S
C16 O17 1.216 . S
O17 C16 1.216 . S
H18 C13 0.930 . S
H19 C14 0.930 . S
O20 Cu0 1.959 . S
O20 C7 1.251 . S
H21 C4 0.930 . S
H22 C15 0.929 . S
Cu23 N24 1.999 . S
Cu23 O29 1.974 . S
Cu23 N34 1.985 . S
Cu23 O43 1.959 . S
N24 Cu23 1.999 . S
N24 C26 1.263 . S
N24 C28 1.389 . S
N25 C26 1.358 . S
N25 C27 1.400 . S
C26 N24 1.263 . S
C26 N25 1.358 . S
C26 H32 0.930 . S
C27 N25 1.400 . S
C27 C28 1.351 . S
C27 H44 0.930 . S
C28 N24 1.389 . S
C28 C27 1.351 . S
C28 H33 0.930 . S
O29 Cu23 1.974 . S
O29 C39 1.282 . S
C30 O31 1.261 . S
C30 O43 1.251 . S
O31 C30 1.261 . S
H32 C26 0.930 . S
H33 C28 0.930 . S
N34 Cu23 1.985 . S
N34 C36 1.335 . S
N34 C37 1.390 . S
N35 C36 1.345 . S
N35 C38 1.336 . S
C36 N34 1.335 . S
C36 N35 1.345 . S
C36 H41 0.930 . S
C37 N34 1.390 . S
C37 C38 1.346 . S
C37 H42 0.930 . S
C38 N35 1.336 . S
C38 C37 1.346 . S
C38 H45 0.929 . S
C39 O29 1.282 . S
C39 O40 1.216 . S
O40 C39 1.216 . S
H41 C36 0.930 . S
H42 C37 0.930 . S
O43 Cu23 1.959 . S
O43 C30 1.251 . S
H44 C27 0.930 . S
H45 C38 0.929 . S
Cu46 N47 1.999 1_545 S
Cu46 O52 1.974 . S
Cu46 N57 1.985 . S
Cu46 O66 1.959 1_545 S
N47 Cu46 1.999 1_565 S
N47 C49 1.263 . S
N47 C51 1.389 . S
N48 C49 1.358 . S
N48 C50 1.400 . S
C49 N47 1.263 . S
C49 N48 1.358 . S
C49 H55 0.930 . S
C50 N48 1.400 . S
C50 C51 1.351 . S
C50 H67 0.930 . S
C51 N47 1.389 . S
C51 C50 1.351 . S
C51 H56 0.930 . S
O52 Cu46 1.974 . S
O52 C62 1.282 . S
C53 O54 1.261 . S
C53 O66 1.251 . S
O54 C53 1.261 . S
H55 C49 0.930 . S
H56 C51 0.930 . S
N57 Cu46 1.985 . S
N57 C59 1.335 . S
N57 C60 1.390 . S
N58 C59 1.345 . S
N58 C61 1.336 . S
C59 N57 1.335 . S
C59 N58 1.345 . S
C59 H64 0.930 . S
C60 N57 1.390 . S
C60 C61 1.346 . S
C60 H65 0.930 . S
C61 N58 1.336 . S
C61 C60 1.346 . S
C61 H68 0.929 . S
C62 O52 1.282 . S
C62 O63 1.216 . S
O63 C62 1.216 . S
H64 C59 0.930 . S
H65 C60 0.930 . S
O66 Cu46 1.959 1_565 S
O66 C53 1.251 . S
H67 C50 0.930 . S
H68 C61 0.929 . S
Cu69 N70 1.999 1_455 S
Cu69 O75 1.974 . S
Cu69 N80 1.985 . S
Cu69 O89 1.958 . S
N70 Cu69 1.999 1_655 S
N70 C72 1.263 . S
N70 C74 1.389 . S
N71 C72 1.358 . S
N71 C73 1.400 . S
C72 N70 1.263 . S
C72 N71 1.358 . S
C72 H78 0.930 . S
C73 N71 1.400 . S
C73 C74 1.351 . S
C73 H90 0.930 . S
C74 N70 1.389 . S
C74 C73 1.351 . S
C74 H79 0.930 . S
O75 Cu69 1.974 . S
O75 C85 1.282 . S
C76 O77 1.261 . S
C76 O89 1.254 1_655 S
O77 C76 1.261 . S
H78 C72 0.930 . S
H79 C74 0.930 . S
N80 Cu69 1.985 . S
N80 C82 1.335 . S
N80 C83 1.390 . S
N81 C82 1.345 . S
N81 C84 1.336 . S
C82 N80 1.335 . S
C82 N81 1.345 . S
C82 H87 0.930 . S
C83 N80 1.390 . S
C83 C84 1.346 . S
C83 H88 0.930 . S
C84 N81 1.336 . S
C84 C83 1.346 . S
C84 H91 0.929 . S
C85 O75 1.282 . S
C85 O86 1.216 . S
O86 C85 1.216 . S
H87 C82 0.930 . S
H88 C83 0.930 . S
O89 Cu69 1.958 . S
O89 C76 1.254 1_455 S
H90 C73 0.930 . S
H91 C84 0.929 . S
Cu92 N93 1.999 . S
Cu92 O98 1.974 . S
Cu92 N103 1.985 . S
Cu92 O112 1.959 . S
N93 Cu92 1.999 . S
N93 C95 1.263 . S
N93 C97 1.389 . S
N94 C95 1.358 . S
N94 C96 1.400 . S
C95 N93 1.263 . S
C95 N94 1.358 . S
C95 H101 0.930 . S
C96 N94 1.400 . S
C96 C97 1.351 . S
C96 H113 0.930 . S
C97 N93 1.389 . S
C97 C96 1.351 . S
C97 H102 0.930 . S
O98 Cu92 1.974 . S
O98 C108 1.282 . S
C99 O100 1.261 . S
C99 O112 1.251 . S
O100 C99 1.261 . S
H101 C95 0.930 . S
H102 C97 0.930 . S
N103 Cu92 1.985 . S
N103 C105 1.335 . S
N103 C106 1.390 . S
N104 C105 1.345 . S
N104 C107 1.336 . S
C105 N103 1.335 . S
C105 N104 1.345 . S
C105 H110 0.930 . S
C106 N103 1.390 . S
C106 C107 1.346 . S
C106 H111 0.930 . S
C107 N104 1.336 . S
C107 C106 1.346 . S
C107 H114 0.929 . S
C108 O98 1.282 . S
C108 O109 1.216 . S
O109 C108 1.216 . S
H110 C105 0.930 . S
H111 C106 0.930 . S
O112 Cu92 1.959 . S
O112 C99 1.251 . S
H113 C96 0.930 . S
H114 C107 0.929 . S
Cu115 N116 1.999 . S
Cu115 O121 1.974 1_545 S
Cu115 N126 1.985 1_545 S
Cu115 O135 1.959 . S
N116 Cu115 1.999 . S
N116 C118 1.263 . S
N116 C120 1.389 . S
N117 C118 1.358 . S
N117 C119 1.400 . S
C118 N116 1.263 . S
C118 N117 1.358 . S
C118 H124 0.930 . S
C119 N117 1.400 . S
C119 C120 1.351 . S
C119 H136 0.930 . S
C120 N116 1.389 . S
C120 C119 1.351 . S
C120 H125 0.930 . S
O121 Cu115 1.974 1_565 S
O121 C131 1.282 . S
C122 O123 1.261 . S
C122 O135 1.251 . S
O123 C122 1.261 . S
H124 C118 0.930 . S
H125 C120 0.930 . S
N126 Cu115 1.985 1_565 S
N126 C128 1.335 . S
N126 C129 1.390 . S
N127 C128 1.345 . S
N127 C130 1.336 . S
C128 N126 1.335 . S
C128 N127 1.345 . S
C128 H133 0.930 . S
C129 N126 1.390 . S
C129 C130 1.346 . S
C129 H134 0.930 . S
C130 N127 1.336 . S
C130 C129 1.346 . S
C130 H137 0.929 . S
C131 O121 1.282 . S
C131 O132 1.216 . S
O132 C131 1.216 . S
H133 C128 0.930 . S
H134 C129 0.930 . S
O135 Cu115 1.959 . S
O135 C122 1.251 . S
H136 C119 0.930 . S
H137 C130 0.929 . S
Cu138 N139 1.999 . S
Cu138 O144 1.974 . S
Cu138 N149 1.985 . S
Cu138 O158 1.959 . S
N139 Cu138 1.999 . S
N139 C141 1.263 . S
N139 C143 1.389 . S
N140 C141 1.358 . S
N140 C142 1.400 . S
C141 N139 1.263 . S
C141 N140 1.358 . S
C141 H147 0.930 . S
C142 N140 1.400 . S
C142 C143 1.351 . S
C142 H159 0.930 . S
C143 N139 1.389 . S
C143 C142 1.351 . S
C143 H148 0.930 . S
O144 Cu138 1.974 . S
O144 C154 1.282 . S
C145 O146 1.261 . S
C145 O158 1.251 . S
O146 C145 1.261 . S
H147 C141 0.930 . S
H148 C143 0.930 . S
N149 Cu138 1.985 . S
N149 C151 1.335 . S
N149 C152 1.390 . S
N150 C151 1.345 . S
N150 C153 1.336 . S
C151 N149 1.335 . S
C151 N150 1.345 . S
C151 H156 0.930 . S
C152 N149 1.390 . S
C152 C153 1.346 . S
C152 H157 0.930 . S
C153 N150 1.336 . S
C153 C152 1.346 . S
C153 H160 0.929 . S
C154 O144 1.282 . S
C154 O155 1.216 . S
O155 C154 1.216 . S
H156 C151 0.930 . S
H157 C152 0.930 . S
O158 Cu138 1.959 . S
O158 C145 1.251 . S
H159 C142 0.930 . S
H160 C153 0.929 . S
Cu161 N162 1.999 . S
Cu161 O167 1.974 . S
Cu161 N172 1.985 . S
Cu161 O181 1.959 . S
N162 Cu161 1.999 . S
N162 C164 1.263 . S
N162 C166 1.389 . S
N163 C164 1.358 . S
N163 C165 1.400 . S
C164 N162 1.263 . S
C164 N163 1.358 . S
C164 H170 0.930 . S
C165 N163 1.400 . S
C165 C166 1.351 . S
C165 H182 0.930 . S
C166 N162 1.389 . S
C166 C165 1.351 . S
C166 H171 0.930 . S
O167 Cu161 1.974 . S
O167 C177 1.282 . S
C168 O169 1.261 . S
C168 O181 1.251 . S
O169 C168 1.261 . S
H170 C164 0.930 . S
H171 C166 0.930 . S
N172 Cu161 1.985 . S
N172 C174 1.335 . S
N172 C175 1.390 . S
N173 C174 1.345 . S
N173 C176 1.336 . S
C174 N172 1.335 . S
C174 N173 1.345 . S
C174 H179 0.930 . S
C175 N172 1.390 . S
C175 C176 1.346 . S
C175 H180 0.930 . S
C176 N173 1.336 . S
C176 C175 1.346 . S
C176 H183 0.929 . S
C177 O167 1.282 . S
C177 O178 1.216 . S
O178 C177 1.216 . S
H179 C174 0.930 . S
H180 C175 0.930 . S
O181 Cu161 1.959 . S
O181 C168 1.251 . S
H182 C165 0.930 . S
H183 C176 0.929 . S
Cu184 N185 1.999 . S
Cu184 O190 1.974 . S
Cu184 N195 1.985 . S
Cu184 O204 1.959 . S
N185 Cu184 1.999 . S
N185 C187 1.263 . S
N185 C189 1.389 . S
N186 C187 1.358 . S
N186 C188 1.400 . S
C187 N185 1.263 . S
C187 N186 1.358 . S
C187 H193 0.930 . S
C188 N186 1.400 . S
C188 C189 1.351 . S
C188 H205 0.930 . S
C189 N185 1.389 . S
C189 C188 1.351 . S
C189 H194 0.930 . S
O190 Cu184 1.974 . S
O190 C200 1.282 . S
C191 O192 1.261 . S
C191 O204 1.251 . S
O192 C191 1.261 . S
H193 C187 0.930 . S
H194 C189 0.930 . S
N195 Cu184 1.985 . S
N195 C197 1.335 . S
N195 C198 1.390 . S
N196 C197 1.345 . S
N196 C199 1.336 . S
C197 N195 1.335 . S
C197 N196 1.345 . S
C197 H202 0.930 . S
C198 N195 1.390 . S
C198 C199 1.346 . S
C198 H203 0.930 . S
C199 N196 1.336 . S
C199 C198 1.346 . S
C199 H206 0.929 . S
C200 O190 1.282 . S
C200 O201 1.216 . S
O201 C200 1.216 . S
H202 C197 0.930 . S
H203 C198 0.930 . S
O204 Cu184 1.959 . S
O204 C191 1.251 . S
H205 C188 0.930 . S
H206 C199 0.929 . S
Cu207 N208 1.999 . S
Cu207 O213 1.974 . S
Cu207 N218 1.985 . S
Cu207 O227 1.959 . S
N208 Cu207 1.999 . S
N208 C210 1.263 . S
N208 C212 1.389 . S
N209 C210 1.358 . S
N209 C211 1.400 . S
C210 N208 1.263 . S
C210 N209 1.358 . S
C210 H216 0.930 . S
C211 N209 1.400 . S
C211 C212 1.351 . S
C211 H228 0.930 . S
C212 N208 1.389 . S
C212 C211 1.351 . S
C212 H217 0.930 . S
O213 Cu207 1.974 . S
O213 C223 1.282 . S
C214 O215 1.261 . S
C214 O227 1.251 . S
O215 C214 1.261 . S
H216 C210 0.930 . S
H217 C212 0.930 . S
N218 Cu207 1.985 . S
N218 C220 1.335 . S
N218 C221 1.390 . S
N219 C220 1.345 . S
N219 C222 1.336 . S
C220 N218 1.335 . S
C220 N219 1.345 . S
C220 H225 0.930 . S
C221 N218 1.390 . S
C221 C222 1.346 . S
C221 H226 0.930 . S
C222 N219 1.336 . S
C222 C221 1.346 . S
C222 H229 0.929 . S
C223 O213 1.282 . S
C223 O224 1.216 . S
O224 C223 1.216 . S
H225 C220 0.930 . S
H226 C221 0.930 . S
O227 Cu207 1.959 . S
O227 C214 1.251 . S
H228 C211 0.930 . S
H229 C222 0.929 . S
Cu230 N231 1.999 . S
Cu230 O236 1.974 . S
Cu230 N241 1.985 . S
Cu230 O250 1.959 . S
N231 Cu230 1.999 . S
N231 C233 1.263 . S
N231 C235 1.389 . S
N232 C233 1.358 . S
N232 C234 1.400 . S
C233 N231 1.263 . S
C233 N232 1.358 . S
C233 H239 0.930 . S
C234 N232 1.400 . S
C234 C235 1.351 . S
C234 H251 0.930 . S
C235 N231 1.389 . S
C235 C234 1.351 . S
C235 H240 0.930 . S
O236 Cu230 1.974 . S
O236 C246 1.282 . S
C237 O238 1.261 . S
C237 O250 1.251 . S
O238 C237 1.261 . S
H239 C233 0.930 . S
H240 C235 0.930 . S
N241 Cu230 1.985 . S
N241 C243 1.335 . S
N241 C244 1.390 . S
N242 C243 1.345 . S
N242 C245 1.336 . S
C243 N241 1.335 . S
C243 N242 1.345 . S
C243 H248 0.930 . S
C244 N241 1.390 . S
C244 C245 1.346 . S
C244 H249 0.930 . S
C245 N242 1.336 . S
C245 C244 1.346 . S
C245 H252 0.929 . S
C246 O236 1.282 . S
C246 O247 1.216 . S
O247 C246 1.216 . S
H248 C243 0.930 . S
H249 C244 0.930 . S
O250 Cu230 1.959 . S
O250 C237 1.251 . S
H251 C234 0.930 . S
H252 C245 0.929 . S
Cu253 N254 1.999 . S
Cu253 O259 1.974 . S
Cu253 N264 1.985 . S
Cu253 O273 1.959 . S
N254 Cu253 1.999 . S
N254 C256 1.263 . S
N254 C258 1.389 . S
N255 C256 1.358 . S
N255 C257 1.400 . S
C256 N254 1.263 . S
C256 N255 1.358 . S
C256 H262 0.930 . S
C257 N255 1.400 . S
C257 C258 1.351 . S
C257 H274 0.930 . S
C258 N254 1.389 . S
C258 C257 1.351 . S
C258 H263 0.930 . S
O259 Cu253 1.974 . S
O259 C269 1.282 . S
C260 O261 1.261 . S
C260 O273 1.251 . S
O261 C260 1.261 . S
H262 C256 0.930 . S
H263 C258 0.930 . S
N264 Cu253 1.985 . S
N264 C266 1.335 . S
N264 C267 1.390 . S
N265 C266 1.345 . S
N265 C268 1.336 . S
C266 N264 1.335 . S
C266 N265 1.345 . S
C266 H271 0.930 . S
C267 N264 1.390 . S
C267 C268 1.346 . S
C267 H272 0.930 . S
C268 N265 1.336 . S
C268 C267 1.346 . S
C268 H275 0.929 . S
C269 O259 1.282 . S
C269 O270 1.216 . S
O270 C269 1.216 . S
H271 C266 0.930 . S
H272 C267 0.930 . S
O273 Cu253 1.959 . S
O273 C260 1.251 . S
H274 C257 0.930 . S
H275 C268 0.929 . S
Cu276 N277 1.999 . S
Cu276 O282 1.974 . S
Cu276 N287 1.985 . S
Cu276 O296 1.959 . S
N277 Cu276 1.999 . S
N277 C279 1.263 . S
N277 C281 1.389 . S
N278 C279 1.358 . S
N278 C280 1.400 . S
C279 N277 1.263 . S
C279 N278 1.358 . S
C279 H285 0.930 . S
C280 N278 1.400 . S
C280 C281 1.351 . S
C280 H297 0.930 . S
C281 N277 1.389 . S
C281 C280 1.351 . S
C281 H286 0.930 . S
O282 Cu276 1.974 . S
O282 C292 1.282 . S
C283 O284 1.261 . S
C283 O296 1.251 . S
O284 C283 1.261 . S
H285 C279 0.930 . S
H286 C281 0.930 . S
N287 Cu276 1.985 . S
N287 C289 1.335 . S
N287 C290 1.390 . S
N288 C289 1.345 . S
N288 C291 1.336 . S
C289 N287 1.335 . S
C289 N288 1.345 . S
C289 H294 0.930 . S
C290 N287 1.390 . S
C290 C291 1.346 . S
C290 H295 0.930 . S
C291 N288 1.336 . S
C291 C290 1.346 . S
C291 H298 0.929 . S
C292 O282 1.282 . S
C292 O293 1.216 . S
O293 C292 1.216 . S
H294 C289 0.930 . S
H295 C290 0.930 . S
O296 Cu276 1.959 . S
O296 C283 1.251 . S
H297 C280 0.930 . S
H298 C291 0.929 . S
Cu299 N300 1.999 . S
Cu299 O305 1.974 . S
Cu299 N310 1.985 . S
Cu299 O319 1.959 . S
N300 Cu299 1.999 . S
N300 C302 1.263 . S
N300 C304 1.389 . S
N301 C302 1.358 . S
N301 C303 1.400 . S
C302 N300 1.263 . S
C302 N301 1.358 . S
C302 H308 0.930 . S
C303 N301 1.400 . S
C303 C304 1.351 . S
C303 H320 0.930 . S
C304 N300 1.389 . S
C304 C303 1.351 . S
C304 H309 0.930 . S
O305 Cu299 1.974 . S
O305 C315 1.282 . S
C306 O307 1.261 . S
C306 O319 1.251 . S
O307 C306 1.261 . S
H308 C302 0.930 . S
H309 C304 0.930 . S
N310 Cu299 1.985 . S
N310 C312 1.335 . S
N310 C313 1.390 . S
N311 C312 1.345 . S
N311 C314 1.333 1_565 S
C312 N310 1.335 . S
C312 N311 1.345 . S
C312 H317 0.930 . S
C313 N310 1.390 . S
C313 C314 1.338 1_565 S
C313 H318 0.930 . S
C314 N311 1.333 1_545 S
C314 C313 1.338 1_545 S
C314 H321 0.940 . S
C315 O305 1.282 . S
C315 O316 1.216 . S
O316 C315 1.216 . S
H317 C312 0.930 . S
H318 C313 0.930 . S
O319 Cu299 1.959 . S
O319 C306 1.251 . S
H320 C303 0.930 . S
H321 C314 0.940 . S
Cu322 N323 1.999 . S
Cu322 O328 1.974 . S
Cu322 N333 1.985 . S
Cu322 O342 1.959 . S
N323 Cu322 1.999 . S
N323 C325 1.263 . S
N323 C327 1.389 . S
N324 C325 1.358 . S
N324 C326 1.400 . S
C325 N323 1.263 . S
C325 N324 1.358 . S
C325 H331 0.930 . S
C326 N324 1.400 . S
C326 C327 1.351 . S
C326 H343 0.930 . S
C327 N323 1.389 . S
C327 C326 1.351 . S
C327 H332 0.930 . S
O328 Cu322 1.974 . S
O328 C338 1.282 . S
C329 O330 1.261 . S
C329 O342 1.251 . S
O330 C329 1.261 . S
H331 C325 0.930 . S
H332 C327 0.930 . S
N333 Cu322 1.985 . S
N333 C335 1.335 . S
N333 C336 1.390 . S
N334 C335 1.345 . S
N334 C337 1.336 . S
C335 N333 1.335 . S
C335 N334 1.345 . S
C335 H340 0.930 . S
C336 N333 1.390 . S
C336 C337 1.346 . S
C336 H341 0.930 . S
C337 N334 1.336 . S
C337 C336 1.346 . S
C337 H344 0.929 . S
C338 O328 1.282 . S
C338 O339 1.216 . S
O339 C338 1.216 . S
H340 C335 0.930 . S
H341 C336 0.930 . S
O342 Cu322 1.959 . S
O342 C329 1.251 . S
H343 C326 0.930 . S
H344 C337 0.929 . S
Cu345 N346 1.999 . S
Cu345 O351 1.974 . S
Cu345 N356 1.985 . S
Cu345 O365 1.959 . S
N346 Cu345 1.999 . S
N346 C348 1.263 . S
N346 C350 1.389 . S
N347 C348 1.358 . S
N347 C349 1.400 . S
C348 N346 1.263 . S
C348 N347 1.358 . S
C348 H354 0.930 . S
C349 N347 1.400 . S
C349 C350 1.351 . S
C349 H366 0.930 . S
C350 N346 1.389 . S
C350 C349 1.351 . S
C350 H355 0.930 . S
O351 Cu345 1.974 . S
O351 C361 1.282 . S
C352 O353 1.261 . S
C352 O365 1.251 . S
O353 C352 1.261 . S
H354 C348 0.930 . S
H355 C350 0.930 . S
N356 Cu345 1.985 . S
N356 C358 1.335 . S
N356 C359 1.390 . S
N357 C358 1.345 . S
N357 C360 1.336 1_565 S
C358 N356 1.335 . S
C358 N357 1.345 . S
C358 H363 0.930 . S
C359 N356 1.390 . S
C359 C360 1.346 1_565 S
C359 H364 0.930 . S
C360 N357 1.336 1_545 S
C360 C359 1.346 1_545 S
C360 H367 0.929 . S
C361 O351 1.282 . S
C361 O362 1.216 . S
O362 C361 1.216 . S
H363 C358 0.930 . S
H364 C359 0.930 . S
O365 Cu345 1.959 . S
O365 C352 1.251 . S
H366 C349 0.930 . S
H367 C360 0.929 . S
Cu368 N369 1.999 . S
Cu368 O374 1.974 . S
Cu368 N379 1.985 . S
Cu368 O388 1.959 . S
N369 Cu368 1.999 . S
N369 C371 1.263 . S
N369 C373 1.389 . S
N370 C371 1.358 . S
N370 C372 1.400 . S
C371 N369 1.263 . S
C371 N370 1.358 . S
C371 H377 0.930 . S
C372 N370 1.400 . S
C372 C373 1.351 . S
C372 H389 0.930 . S
C373 N369 1.389 . S
C373 C372 1.351 . S
C373 H378 0.930 . S
O374 Cu368 1.974 . S
O374 C384 1.282 . S
C375 O376 1.261 . S
C375 O388 1.251 . S
O376 C375 1.261 . S
H377 C371 0.930 . S
H378 C373 0.930 . S
N379 Cu368 1.985 . S
N379 C381 1.335 . S
N379 C382 1.390 . S
N380 C381 1.345 . S
N380 C383 1.336 . S
C381 N379 1.335 . S
C381 N380 1.345 . S
C381 H386 0.930 . S
C382 N379 1.390 . S
C382 C383 1.346 . S
C382 H387 0.930 . S
C383 N380 1.336 . S
C383 C382 1.346 . S
C383 H390 0.929 . S
C384 O374 1.282 . S
C384 O385 1.216 . S
O385 C384 1.216 . S
H386 C381 0.930 . S
H387 C382 0.930 . S
O388 Cu368 1.959 . S
O388 C375 1.251 . S
H389 C372 0.930 . S
H390 C383 0.929 . S
Cu391 N392 1.999 . S
Cu391 O397 1.974 . S
Cu391 N402 1.985 . S
Cu391 O411 1.959 . S
N392 Cu391 1.999 . S
N392 C394 1.263 . S
N392 C396 1.389 . S
N393 C394 1.358 . S
N393 C395 1.400 . S
C394 N392 1.263 . S
C394 N393 1.358 . S
C394 H400 0.930 . S
C395 N393 1.400 . S
C395 C396 1.351 . S
C395 H412 0.930 . S
C396 N392 1.389 . S
C396 C395 1.351 . S
C396 H401 0.930 . S
O397 Cu391 1.974 . S
O397 C407 1.282 . S
C398 O399 1.261 . S
C398 O411 1.251 . S
O399 C398 1.261 . S
H400 C394 0.930 . S
H401 C396 0.930 . S
N402 Cu391 1.985 . S
N402 C404 1.335 . S
N402 C405 1.390 . S
N403 C404 1.345 . S
N403 C406 1.336 . S
C404 N402 1.335 . S
C404 N403 1.345 . S
C404 H409 0.930 . S
C405 N402 1.390 . S
C405 C406 1.346 . S
C405 H410 0.930 . S
C406 N403 1.336 . S
C406 C405 1.346 . S
C406 H413 0.929 . S
C407 O397 1.282 . S
C407 O408 1.216 . S
O408 C407 1.216 . S
H409 C404 0.930 . S
H410 C405 0.930 . S
O411 Cu391 1.959 . S
O411 C398 1.251 . S
H412 C395 0.930 . S
H413 C406 0.929 . S
H414 C420 0.930 1_655 S
H415 C424 0.930 . S
H416 C429 0.929 . S
H417 C427 0.929 . S
H418 C422 0.929 . S
H419 C428 0.918 1_655 S
C420 H414 0.930 1_455 S
C420 C421 1.367 . S
C420 C428 1.378 . S
C421 C420 1.367 . S
C421 C429 1.433 . S
C422 H418 0.929 . S
C422 C424 1.378 . S
C422 C426 1.350 . S
C423 C426 1.463 . S
C423 C428 1.350 . S
C423 N431 1.427 . S
C424 H415 0.930 . S
C424 C422 1.378 . S
C424 C425 1.367 . S
C425 C424 1.367 . S
C425 C427 1.433 . S
C426 C422 1.350 . S
C426 C423 1.463 . S
C426 N430 1.427 . S
C427 H417 0.929 . S
C427 C425 1.433 . S
C427 N430 1.384 . S
C428 H419 0.918 1_455 S
C428 C420 1.378 . S
C428 C423 1.350 . S
C429 H416 0.929 . S
C429 C421 1.433 . S
C429 N431 1.384 . S
N430 C426 1.427 . S
N430 C427 1.384 . S
N431 C423 1.427 . S
N431 C429 1.384 . S
H432 C438 0.910 1_556 S
H433 C442 0.930 . S
H434 C447 0.929 . S
H435 C445 0.929 . S
H436 C440 0.929 . S
H437 C446 0.929 . S
C438 H432 0.910 1_554 S
C438 C439 1.367 . S
C438 C446 1.378 . S
C439 C438 1.367 . S
C439 C447 1.433 . S
C440 H436 0.929 . S
C440 C442 1.378 . S
C440 C444 1.350 . S
C441 C444 1.463 . S
C441 C446 1.350 . S
C441 N449 1.427 . S
C442 H433 0.930 . S
C442 C440 1.378 . S
C442 C443 1.367 . S
C443 C442 1.367 . S
C443 C445 1.433 . S
C444 C440 1.350 . S
C444 C441 1.463 . S
C444 N448 1.427 . S
C445 H435 0.929 . S
C445 C443 1.433 . S
C445 N448 1.384 . S
C446 H437 0.929 . S
C446 C438 1.378 . S
C446 C441 1.350 . S
C447 H434 0.929 . S
C447 C439 1.433 . S
C447 N449 1.384 . S
N448 C444 1.427 . S
N448 C445 1.384 . S
N449 C441 1.427 . S
N449 C447 1.384 . S
H450 C456 0.930 . S
H451 C460 0.927 1_545 S
H452 C465 0.929 . S
H453 C463 0.929 . S
H454 C458 0.929 1_545 S
H455 C464 0.929 . S
C456 H450 0.930 . S
C456 C457 1.367 . S
C456 C464 1.378 . S
C457 C456 1.367 . S
C457 C465 1.433 1_565 S
C458 H454 0.929 1_565 S
C458 C460 1.378 . S
C458 C462 1.350 . S
C459 C462 1.463 . S
C459 C464 1.350 . S
C459 N467 1.427 1_565 S
C460 H451 0.927 1_565 S
C460 C458 1.378 . S
C460 C461 1.367 . S
C461 C460 1.367 . S
C461 C463 1.433 . S
C462 C458 1.350 . S
C462 C459 1.463 . S
C462 N466 1.427 . S
C463 H453 0.929 . S
C463 C461 1.433 . S
C463 N466 1.384 . S
C464 H455 0.929 . S
C464 C456 1.378 . S
C464 C459 1.350 . S
C465 H452 0.929 . S
C465 C457 1.433 1_545 S
C465 N467 1.384 . S
N466 C462 1.427 . S
N466 C463 1.384 . S
N467 C459 1.427 1_545 S
N467 C465 1.384 . S
H468 C474 0.930 . S
H469 C478 0.930 . S
H470 C483 0.929 . S
H471 C481 0.929 . S
H472 C476 0.929 . S
H473 C482 0.929 . S
C474 H468 0.930 . S
C474 C475 1.367 . S
C474 C482 1.378 . S
C475 C474 1.367 . S
C475 C483 1.433 . S
C476 H472 0.929 . S
C476 C478 1.378 . S
C476 C480 1.350 . S
C477 C480 1.463 . S
C477 C482 1.350 . S
C477 N485 1.427 . S
C478 H469 0.930 . S
C478 C476 1.378 . S
C478 C479 1.367 . S
C479 C478 1.367 . S
C479 C481 1.433 . S
C480 C476 1.350 . S
C480 C477 1.463 . S
C480 N484 1.427 . S
C481 H471 0.929 . S
C481 C479 1.433 . S
C481 N484 1.384 . S
C482 H473 0.929 . S
C482 C474 1.378 . S
C482 C477 1.350 . S
C483 H470 0.929 . S
C483 C475 1.433 . S
C483 N485 1.384 . S
N484 C480 1.427 . S
N484 C481 1.384 . S
N485 C477 1.427 . S
N485 C483 1.384 . S
H486 C492 0.930 . S
H487 C496 0.930 . S
H488 C501 0.929 . S
H489 C499 0.929 . S
H490 C494 0.929 . S
H491 C500 0.929 1_455 S
C492 H486 0.930 . S
C492 C493 1.367 . S
C492 C500 1.378 . S
C493 C492 1.367 . S
C493 C501 1.433 . S
C494 H490 0.929 . S
C494 C496 1.378 . S
C494 C498 1.350 . S
C495 C498 1.463 . S
C495 C500 1.350 . S
C495 N503 1.427 . S
C496 H487 0.930 . S
C496 C494 1.378 . S
C496 C497 1.367 . S
C497 C496 1.367 . S
C497 C499 1.433 1_655 S
C498 C494 1.350 . S
C498 C495 1.463 . S
C498 N502 1.427 1_655 S
C499 H489 0.929 . S
C499 C497 1.433 1_455 S
C499 N502 1.384 . S
C500 H491 0.929 1_655 S
C500 C492 1.378 . S
C500 C495 1.350 . S
C501 H488 0.929 . S
C501 C493 1.433 . S
C501 N503 1.384 . S
N502 C498 1.427 1_455 S
N502 C499 1.384 . S
N503 C495 1.427 . S
N503 C501 1.384 . S
H504 C510 0.930 . S
H505 C514 0.930 . S
H506 C519 0.929 . S
H507 C517 0.929 . S
H508 C512 0.929 . S
H509 C518 0.929 . S
C510 H504 0.930 . S
C510 C511 1.367 . S
C510 C518 1.378 . S
C511 C510 1.367 . S
C511 C519 1.433 . S
C512 H508 0.929 . S
C512 C514 1.378 . S
C512 C516 1.350 . S
C513 C516 1.463 . S
C513 C518 1.350 . S
C513 N521 1.427 . S
C514 H505 0.930 . S
C514 C512 1.378 . S
C514 C515 1.367 . S
C515 C514 1.367 . S
C515 C517 1.433 . S
C516 C512 1.350 . S
C516 C513 1.463 . S
C516 N520 1.427 . S
C517 H507 0.929 . S
C517 C515 1.433 . S
C517 N520 1.384 . S
C518 H509 0.929 . S
C518 C510 1.378 . S
C518 C513 1.350 . S
C519 H506 0.929 . S
C519 C511 1.433 . S
C519 N521 1.384 . S
N520 C516 1.427 . S
N520 C517 1.384 . S
N521 C513 1.427 . S
N521 C519 1.384 . S
H522 C528 0.930 1_455 S
H523 C532 0.930 . S
H524 C537 0.929 . S
H525 C535 0.929 1_554 S
H526 C530 0.929 . S
H527 C536 0.929 . S
C528 H522 0.930 1_655 S
C528 C529 1.367 . S
C528 C536 1.378 . S
C529 C528 1.367 . S
C529 C537 1.433 . S
C530 H526 0.929 . S
C530 C532 1.378 . S
C530 C534 1.350 . S
C531 C534 1.463 . S
C531 C536 1.350 . S
C531 N539 1.427 . S
C532 H523 0.930 . S
C532 C530 1.378 . S
C532 C533 1.367 . S
C533 C532 1.367 . S
C533 C535 1.433 . S
C534 C530 1.350 . S
C534 C531 1.463 . S
C534 N538 1.427 . S
C535 H525 0.929 1_556 S
C535 C533 1.433 . S
C535 N538 1.384 . S
C536 H527 0.929 . S
C536 C528 1.378 . S
C536 C531 1.350 . S
C537 H524 0.929 . S
C537 C529 1.433 . S
C537 N539 1.384 . S
N538 C534 1.427 . S
N538 C535 1.384 . S
N539 C531 1.427 . S
N539 C537 1.384 . S
H540 C546 0.930 . S
H541 C550 0.930 . S
H542 C555 0.929 . S
H543 C553 0.929 . S
H544 C548 0.929 . S
H545 C554 0.929 . S
C546 H540 0.930 . S
C546 C547 1.367 . S
C546 C554 1.378 . S
C547 C546 1.367 . S
C547 C555 1.433 . S
C548 H544 0.929 . S
C548 C550 1.378 . S
C548 C552 1.350 . S
C549 C552 1.463 . S
C549 C554 1.350 . S
C549 N557 1.427 . S
C550 H541 0.930 . S
C550 C548 1.378 . S
C550 C551 1.367 . S
C551 C550 1.367 . S
C551 C553 1.433 . S
C552 C548 1.350 . S
C552 C549 1.463 . S
C552 N556 1.427 . S
C553 H543 0.929 . S
C553 C551 1.433 . S
C553 N556 1.384 . S
C554 H545 0.929 . S
C554 C546 1.378 . S
C554 C549 1.350 . S
C555 H542 0.929 . S
C555 C547 1.433 . S
C555 N557 1.384 . S
N556 C552 1.427 . S
N556 C553 1.384 . S
N557 C549 1.427 . S
N557 C555 1.384 . S
H558 C564 0.930 . S
H559 C568 0.930 . S
H560 C573 0.929 . S
H561 C571 0.929 1_565 S
H562 C566 0.929 . S
H563 C572 0.929 . S
C564 H558 0.930 . S
C564 C565 1.367 . S
C564 C572 1.378 . S
C565 C564 1.367 . S
C565 C573 1.433 . S
C566 H562 0.929 . S
C566 C568 1.378 . S
C566 C570 1.350 . S
C567 C570 1.463 . S
C567 C572 1.350 . S
C567 N575 1.427 . S
C568 H559 0.930 . S
C568 C566 1.378 . S
C568 C569 1.367 . S
C569 C568 1.367 . S
C569 C571 1.433 . S
C570 C566 1.350 . S
C570 C567 1.463 . S
C570 N574 1.427 . S
C571 H561 0.929 1_545 S
C571 C569 1.433 . S
C571 N574 1.384 . S
C572 H563 0.929 . S
C572 C564 1.378 . S
C572 C567 1.350 . S
C573 H560 0.929 . S
C573 C565 1.433 . S
C573 N575 1.384 . S
N574 C570 1.427 . S
N574 C571 1.384 . S
N575 C567 1.427 . S
N575 C573 1.384 . S
H576 C582 0.930 . S
H577 C586 0.930 . S
H578 C591 0.929 . S
H579 C589 0.929 . S
H580 C584 0.929 . S
H581 C590 0.929 . S
C582 H576 0.930 . S
C582 C583 1.367 . S
C582 C590 1.378 . S
C583 C582 1.367 . S
C583 C591 1.433 . S
C584 H580 0.929 . S
C584 C586 1.378 . S
C584 C588 1.350 . S
C585 C588 1.463 . S
C585 C590 1.350 . S
C585 N593 1.427 . S
C586 H577 0.930 . S
C586 C584 1.378 . S
C586 C587 1.367 . S
C587 C586 1.367 . S
C587 C589 1.433 . S
C588 C584 1.350 . S
C588 C585 1.463 . S
C588 N592 1.427 . S
C589 H579 0.929 . S
C589 C587 1.433 . S
C589 N592 1.384 . S
C590 H581 0.929 . S
C590 C582 1.378 . S
C590 C585 1.350 . S
C591 H578 0.929 . S
C591 C583 1.433 . S
C591 N593 1.384 . S
N592 C588 1.427 . S
N592 C589 1.384 . S
N593 C585 1.427 . S
N593 C591 1.384 . S
H594 C600 0.930 1_655 S
H595 C604 0.930 . S
H596 C609 0.929 . S
H597 C607 0.929 . S
H598 C602 0.929 . S
H599 C608 0.929 . S
C600 H594 0.930 1_455 S
C600 C601 1.367 . S
C600 C608 1.378 . S
C601 C600 1.367 . S
C601 C609 1.433 . S
C602 H598 0.929 . S
C602 C604 1.378 . S
C602 C606 1.350 . S
C603 C606 1.463 . S
C603 C608 1.350 . S
C603 N611 1.427 . S
C604 H595 0.930 . S
C604 C602 1.378 . S
C604 C605 1.367 . S
C605 C604 1.367 . S
C605 C607 1.433 . S
C606 C602 1.350 . S
C606 C603 1.463 . S
C606 N610 1.427 . S
C607 H597 0.929 . S
C607 C605 1.433 . S
C607 N610 1.384 . S
C608 H599 0.929 . S
C608 C600 1.378 . S
C608 C603 1.350 . S
C609 H596 0.929 . S
C609 C601 1.433 . S
C609 N611 1.384 . S
N610 C606 1.427 . S
N610 C607 1.384 . S
N611 C603 1.427 . S
N611 C609 1.384 . S
H612 C618 0.930 . S
H613 C622 0.930 . S
H614 C627 0.929 . S
H615 C625 0.929 . S
H616 C620 0.929 . S
H617 C626 0.929 . S
C618 H612 0.930 . S
C618 C619 1.367 . S
C618 C626 1.378 . S
C619 C618 1.367 . S
C619 C627 1.433 . S
C620 H616 0.929 . S
C620 C622 1.378 . S
C620 C624 1.350 . S
C621 C624 1.463 . S
C621 C626 1.350 . S
C621 N629 1.427 . S
C622 H613 0.930 . S
C622 C620 1.378 . S
C622 C623 1.367 . S
C623 C622 1.367 . S
C623 C625 1.433 . S
C624 C620 1.350 . S
C624 C621 1.463 . S
C624 N628 1.427 . S
C625 H615 0.929 . S
C625 C623 1.433 . S
C625 N628 1.384 . S
C626 H617 0.929 . S
C626 C618 1.378 . S
C626 C621 1.350 . S
C627 H614 0.929 . S
C627 C619 1.433 . S
C627 N629 1.384 . S
N628 C624 1.427 . S
N628 C625 1.384 . S
N629 C621 1.427 . S
N629 C627 1.384 . S
H630 C636 0.930 . S
H631 C640 0.930 . S
H632 C645 0.929 . S
H633 C643 0.929 . S
H634 C638 0.929 . S
H635 C644 0.929 . S
C636 H630 0.930 . S
C636 C637 1.367 . S
C636 C644 1.378 . S
C637 C636 1.367 . S
C637 C645 1.433 . S
C638 H634 0.929 . S
C638 C640 1.378 . S
C638 C642 1.350 . S
C639 C642 1.463 . S
C639 C644 1.350 . S
C639 N647 1.427 . S
C640 H631 0.930 . S
C640 C638 1.378 . S
C640 C641 1.367 . S
C641 C640 1.367 . S
C641 C643 1.433 . S
C642 C638 1.350 . S
C642 C639 1.463 . S
C642 N646 1.427 . S
C643 H633 0.929 . S
C643 C641 1.433 . S
C643 N646 1.384 . S
C644 H635 0.929 . S
C644 C636 1.378 . S
C644 C639 1.350 . S
C645 H632 0.929 . S
C645 C637 1.433 . S
C645 N647 1.384 . S
N646 C642 1.427 . S
N646 C643 1.384 . S
N647 C639 1.427 . S
N647 C645 1.384 . S
H648 C654 0.930 . S
H649 C658 0.930 . S
H650 C663 0.929 . S
H651 C661 0.929 . S
H652 C656 0.931 1_545 S
H653 C662 0.929 . S
C654 H648 0.930 . S
C654 C655 1.367 . S
C654 C662 1.378 . S
C655 C654 1.367 . S
C655 C663 1.433 . S
C656 H652 0.931 1_565 S
C656 C658 1.378 . S
C656 C660 1.371 . S
C657 C660 1.449 1_545 S
C657 C662 1.350 . S
C657 N665 1.427 . S
C658 H649 0.930 . S
C658 C656 1.378 . S
C658 C659 1.367 . S
C659 C658 1.367 . S
C659 C661 1.433 . S
C660 C656 1.371 . S
C660 C657 1.449 1_565 S
C660 N664 1.420 . S
C661 H651 0.929 . S
C661 C659 1.433 . S
C661 N664 1.384 . S
C662 H653 0.929 . S
C662 C654 1.378 . S
C662 C657 1.350 . S
C663 H650 0.929 . S
C663 C655 1.433 . S
C663 N665 1.384 . S
N664 C660 1.420 . S
N664 C661 1.384 . S
N665 C657 1.427 . S
N665 C663 1.384 . S
H666 C672 0.930 . S
H667 C676 0.930 . S
H668 C681 0.929 . S
H669 C679 0.929 . S
H670 C674 0.929 . S
H671 C680 0.929 . S
C672 H666 0.930 . S
C672 C673 1.367 . S
C672 C680 1.378 . S
C673 C672 1.367 . S
C673 C681 1.433 . S
C674 H670 0.929 . S
C674 C676 1.378 . S
C674 C678 1.350 1_655 S
C675 C678 1.462 . S
C675 C680 1.350 . S
C675 N683 1.426 1_455 S
C676 H667 0.930 . S
C676 C674 1.378 . S
C676 C677 1.367 . S
C677 C676 1.367 . S
C677 C679 1.433 1_655 S
C678 C674 1.350 1_455 S
C678 C675 1.462 . S
C678 N682 1.427 . S
C679 H669 0.929 . S
C679 C677 1.433 1_455 S
C679 N682 1.384 . S
C680 H671 0.929 . S
C680 C672 1.378 . S
C680 C675 1.350 . S
C681 H668 0.929 . S
C681 C673 1.433 . S
C681 N683 1.381 1_455 S
N682 C678 1.427 . S
N682 C679 1.384 . S
N683 C675 1.426 1_655 S
N683 C681 1.381 1_655 S
H684 C690 0.930 . S
H685 C694 0.930 . S
H686 C699 0.929 . S
H687 C697 0.929 . S
H688 C692 0.929 . S
H689 C698 0.929 . S
C690 H684 0.930 . S
C690 C691 1.367 . S
C690 C698 1.378 . S
C691 C690 1.367 . S
C691 C699 1.433 . S
C692 H688 0.929 . S
C692 C694 1.378 . S
C692 C696 1.350 . S
C693 C696 1.463 . S
C693 C698 1.350 . S
C693 N701 1.427 . S
C694 H685 0.930 . S
C694 C692 1.378 . S
C694 C695 1.367 . S
C695 C694 1.367 . S
C695 C697 1.433 . S
C696 C692 1.350 . S
C696 C693 1.463 . S
C696 N700 1.427 . S
C697 H687 0.929 . S
C697 C695 1.433 . S
C697 N700 1.384 . S
C698 H689 0.929 . S
C698 C690 1.378 . S
C698 C693 1.350 . S
C699 H686 0.929 . S
C699 C691 1.433 . S
C699 N701 1.384 . S
N700 C696 1.427 . S
N700 C697 1.384 . S
N701 C693 1.427 . S
N701 C699 1.384 . S
H702 C708 0.930 . S
H703 C712 0.930 . S
H704 C717 0.929 . S
H705 C715 0.934 . S
H706 C710 0.929 . S
H707 C716 0.929 . S
C708 H702 0.930 . S
C708 C709 1.367 . S
C708 C716 1.378 . S
C709 C708 1.367 . S
C709 C717 1.433 . S
C710 H706 0.929 . S
C710 C712 1.378 . S
C710 C714 1.363 . S
C711 C714 1.457 1_545 S
C711 C716 1.350 . S
C711 N719 1.427 . S
C712 H703 0.930 . S
C712 C710 1.378 . S
C712 C713 1.367 . S
C713 C712 1.367 . S
C713 C715 1.433 . S
C714 C710 1.363 . S
C714 C711 1.457 1_565 S
C714 N718 1.419 1_565 S
C715 H705 0.934 . S
C715 C713 1.433 . S
C715 N718 1.384 1_565 S
C716 H707 0.929 . S
C716 C708 1.378 . S
C716 C711 1.350 . S
C717 H704 0.929 . S
C717 C709 1.433 . S
C717 N719 1.384 . S
N718 C714 1.419 1_545 S
N718 C715 1.384 1_545 S
N719 C711 1.427 . S
N719 C717 1.384 . S
H720 C726 0.930 . S
H721 C730 0.934 . S
H722 C735 0.929 . S
H723 C733 0.929 . S
H724 C728 0.929 . S
H725 C734 0.932 . S
C726 H720 0.930 . S
C726 C727 1.367 . S
C726 C734 1.375 1_455 S
C727 C726 1.367 . S
C727 C735 1.433 . S
C728 H724 0.929 . S
C728 C730 1.388 . S
C728 C732 1.352 . S
C729 C732 1.469 . S
C729 C734 1.349 1_455 S
C729 N737 1.427 . S
C730 H721 0.934 . S
C730 C728 1.388 . S
C730 C731 1.354 1_455 S
C731 C730 1.354 1_655 S
C731 C733 1.433 . S
C732 C728 1.352 . S
C732 C729 1.469 . S
C732 N736 1.418 1_455 S
C733 H723 0.929 . S
C733 C731 1.433 . S
C733 N736 1.384 . S
C734 H725 0.932 . S
C734 C726 1.375 1_655 S
C734 C729 1.349 1_655 S
C735 H722 0.929 . S
C735 C727 1.433 . S
C735 N737 1.384 . S
N736 C732 1.418 1_655 S
N736 C733 1.384 . S
N737 C729 1.427 . S
N737 C735 1.384 . S
H738 C744 0.930 . S
H739 C748 0.930 . S
H740 C753 0.929 . S
H741 C751 0.929 . S
H742 C746 0.929 . S
H743 C752 0.929 . S
C744 H738 0.930 . S
C744 C745 1.367 . S
C744 C752 1.378 . S
C745 C744 1.367 . S
C745 C753 1.433 . S
C746 H742 0.929 . S
C746 C748 1.378 . S
C746 C750 1.350 . S
C747 C750 1.463 . S
C747 C752 1.350 . S
C747 N755 1.427 . S
C748 H739 0.930 . S
C748 C746 1.378 . S
C748 C749 1.367 . S
C749 C748 1.367 . S
C749 C751 1.433 . S
C750 C746 1.350 . S
C750 C747 1.463 . S
C750 N754 1.427 . S
C751 H741 0.929 . S
C751 C749 1.433 . S
C751 N754 1.384 . S
C752 H743 0.929 . S
C752 C744 1.378 . S
C752 C747 1.350 . S
C753 H740 0.929 . S
C753 C745 1.433 . S
C753 N755 1.384 . S
N754 C750 1.427 . S
N754 C751 1.384 . S
N755 C747 1.427 . S
N755 C753 1.384 . S
H756 C762 0.930 . S
H757 C766 0.930 . S
H758 C771 0.929 . S
H759 C769 0.929 . S
H760 C764 0.929 . S
H761 C770 0.929 . S
C762 H756 0.930 . S
C762 C763 1.367 . S
C762 C770 1.378 . S
C763 C762 1.367 . S
C763 C771 1.433 . S
C764 H760 0.929 . S
C764 C766 1.378 . S
C764 C768 1.350 . S
C765 C768 1.463 . S
C765 C770 1.350 . S
C765 N773 1.427 . S
C766 H757 0.930 . S
C766 C764 1.378 . S
C766 C767 1.367 . S
C767 C766 1.367 . S
C767 C769 1.433 . S
C768 C764 1.350 . S
C768 C765 1.463 . S
C768 N772 1.427 . S
C769 H759 0.929 . S
C769 C767 1.433 . S
C769 N772 1.384 . S
C770 H761 0.929 . S
C770 C762 1.378 . S
C770 C765 1.350 . S
C771 H758 0.929 . S
C771 C763 1.433 . S
C771 N773 1.384 . S
N772 C768 1.427 . S
N772 C769 1.384 . S
N773 C765 1.427 . S
N773 C771 1.384 . S
H774 C780 0.930 . S
H775 C784 0.930 . S
H776 C789 0.929 . S
H777 C787 0.929 . S
H778 C782 0.929 . S
H779 C788 0.929 . S
C780 H774 0.930 . S
C780 C781 1.367 . S
C780 C788 1.378 . S
C781 C780 1.367 . S
C781 C789 1.433 . S
C782 H778 0.929 . S
C782 C784 1.378 . S
C782 C786 1.350 . S
C783 C786 1.463 . S
C783 C788 1.350 . S
C783 N791 1.427 . S
C784 H775 0.930 . S
C784 C782 1.378 . S
C784 C785 1.367 . S
C785 C784 1.367 . S
C785 C787 1.433 . S
C786 C782 1.350 . S
C786 C783 1.463 . S
C786 N790 1.427 . S
C787 H777 0.929 . S
C787 C785 1.433 . S
C787 N790 1.384 . S
C788 H779 0.929 . S
C788 C780 1.378 . S
C788 C783 1.350 . S
C789 H776 0.929 . S
C789 C781 1.433 . S
C789 N791 1.384 . S
N790 C786 1.427 . S
N790 C787 1.384 . S
N791 C783 1.427 . S
N791 C789 1.384 . S
H792 C798 0.930 . S
H793 C802 0.930 . S
H794 C807 0.929 . S
H795 C805 0.929 . S
H796 C800 0.929 . S
H797 C806 0.929 . S
C798 H792 0.930 . S
C798 C799 1.367 . S
C798 C806 1.378 . S
C799 C798 1.367 . S
C799 C807 1.433 . S
C800 H796 0.929 . S
C800 C802 1.378 . S
C800 C804 1.350 . S
C801 C804 1.463 . S
C801 C806 1.350 . S
C801 N809 1.427 . S
C802 H793 0.930 . S
C802 C800 1.378 . S
C802 C803 1.367 . S
C803 C802 1.367 . S
C803 C805 1.433 . S
C804 C800 1.350 . S
C804 C801 1.463 . S
C804 N808 1.427 . S
C805 H795 0.929 . S
C805 C803 1.433 . S
C805 N808 1.384 . S
C806 H797 0.929 . S
C806 C798 1.378 . S
C806 C801 1.350 . S
C807 H794 0.929 . S
C807 C799 1.433 . S
C807 N809 1.384 . S
N808 C804 1.427 . S
N808 C805 1.384 . S
N809 C801 1.427 . S
N809 C807 1.384 . S
H810 C816 0.930 . S
H811 C820 0.930 . S
H812 C825 0.929 . S
H813 C823 0.929 . S
H814 C818 0.929 . S
H815 C824 0.929 . S
C816 H810 0.930 . S
C816 C817 1.367 . S
C816 C824 1.378 . S
C817 C816 1.367 . S
C817 C825 1.433 . S
C818 H814 0.929 . S
C818 C820 1.378 . S
C818 C822 1.350 . S
C819 C822 1.463 . S
C819 C824 1.350 . S
C819 N827 1.427 . S
C820 H811 0.930 . S
C820 C818 1.378 . S
C820 C821 1.367 . S
C821 C820 1.367 . S
C821 C823 1.433 . S
C822 C818 1.350 . S
C822 C819 1.463 . S
C822 N826 1.427 . S
C823 H813 0.929 . S
C823 C821 1.433 . S
C823 N826 1.384 . S
C824 H815 0.929 . S
C824 C816 1.378 . S
C824 C819 1.350 . S
C825 H812 0.929 . S
C825 C817 1.433 . S
C825 N827 1.384 . S
N826 C822 1.427 . S
N826 C823 1.384 . S
N827 C819 1.427 . S
N827 C825 1.384 . S
H828 C834 0.930 . S
H829 C838 0.930 . S
H830 C843 0.929 . S
H831 C841 0.929 . S
H832 C836 0.929 . S
H833 C842 0.929 . S
C834 H828 0.930 . S
C834 C835 1.367 . S
C834 C842 1.378 . S
C835 C834 1.367 . S
C835 C843 1.433 . S
C836 H832 0.929 . S
C836 C838 1.378 . S
C836 C840 1.350 . S
C837 C840 1.463 . S
C837 C842 1.350 . S
C837 N845 1.427 . S
C838 H829 0.930 . S
C838 C836 1.378 . S
C838 C839 1.367 . S
C839 C838 1.367 . S
C839 C841 1.433 . S
C840 C836 1.350 . S
C840 C837 1.463 . S
C840 N844 1.427 . S
C841 H831 0.929 . S
C841 C839 1.433 . S
C841 N844 1.384 . S
C842 H833 0.929 . S
C842 C834 1.378 . S
C842 C837 1.350 . S
C843 H830 0.929 . S
C843 C835 1.433 . S
C843 N845 1.384 . S
N844 C840 1.427 . S
N844 C841 1.384 . S
N845 C837 1.427 . S
N845 C843 1.384 . S
H846 C852 0.930 . S
H847 C856 0.930 . S
H848 C861 0.929 . S
H849 C859 0.929 . S
H850 C854 0.929 . S
H851 C860 0.929 . S
C852 H846 0.930 . S
C852 C853 1.367 . S
C852 C860 1.378 . S
C853 C852 1.367 . S
C853 C861 1.433 . S
C854 H850 0.929 . S
C854 C856 1.378 . S
C854 C858 1.350 . S
C855 C858 1.463 . S
C855 C860 1.350 . S
C855 N863 1.427 . S
C856 H847 0.930 . S
C856 C854 1.378 . S
C856 C857 1.367 . S
C857 C856 1.367 . S
C857 C859 1.433 . S
C858 C854 1.350 . S
C858 C855 1.463 . S
C858 N862 1.427 . S
C859 H849 0.929 . S
C859 C857 1.433 . S
C859 N862 1.384 . S
C860 H851 0.929 . S
C860 C852 1.378 . S
C860 C855 1.350 . S
C861 H848 0.929 . S
C861 C853 1.433 . S
C861 N863 1.384 . S
N862 C858 1.427 . S
N862 C859 1.384 . S
N863 C855 1.427 . S
N863 C861 1.384 . S
H864 C870 0.930 . S
H865 C874 0.930 . S
H866 C879 0.929 . S
H867 C877 0.929 . S
H868 C872 0.929 . S
H869 C878 0.929 . S
C870 H864 0.930 . S
C870 C871 1.367 . S
C870 C878 1.378 . S
C871 C870 1.367 . S
C871 C879 1.433 . S
C872 H868 0.929 . S
C872 C874 1.378 . S
C872 C876 1.350 . S
C873 C876 1.463 . S
C873 C878 1.350 . S
C873 N881 1.427 . S
C874 H865 0.930 . S
C874 C872 1.378 . S
C874 C875 1.367 . S
C875 C874 1.367 . S
C875 C877 1.433 . S
C876 C872 1.350 . S
C876 C873 1.463 . S
C876 N880 1.427 . S
C877 H867 0.929 . S
C877 C875 1.433 . S
C877 N880 1.384 . S
C878 H869 0.929 . S
C878 C870 1.378 . S
C878 C873 1.350 . S
C879 H866 0.929 . S
C879 C871 1.433 . S
C879 N881 1.384 . S
N880 C876 1.427 . S
N880 C877 1.384 . S
N881 C873 1.427 . S
N881 C879 1.384 . S
H882 C888 0.930 . S
H883 C892 0.930 . S
H884 C897 0.929 . S
H885 C895 0.929 . S
H886 C890 0.929 . S
H887 C896 0.929 . S
C888 H882 0.930 . S
C888 C889 1.367 . S
C888 C896 1.378 . S
C889 C888 1.367 . S
C889 C897 1.433 . S
C890 H886 0.929 . S
C890 C892 1.378 . S
C890 C894 1.350 . S
C891 C894 1.463 . S
C891 C896 1.350 . S
C891 N899 1.427 . S
C892 H883 0.930 . S
C892 C890 1.378 . S
C892 C893 1.367 . S
C893 C892 1.367 . S
C893 C895 1.433 . S
C894 C890 1.350 . S
C894 C891 1.463 . S
C894 N898 1.427 . S
C895 H885 0.929 . S
C895 C893 1.433 . S
C895 N898 1.384 . S
C896 H887 0.929 . S
C896 C888 1.378 . S
C896 C891 1.350 . S
C897 H884 0.929 . S
C897 C889 1.433 . S
C897 N899 1.384 . S
N898 C894 1.427 . S
N898 C895 1.384 . S
N899 C891 1.427 . S
N899 C897 1.384 . S
H900 C906 0.930 . S
H901 C910 0.930 . S
H902 C915 0.929 . S
H903 C913 0.929 . S
H904 C908 0.929 . S
H905 C914 0.929 . S
C906 H900 0.930 . S
C906 C907 1.367 . S
C906 C914 1.378 . S
C907 C906 1.367 . S
C907 C915 1.433 . S
C908 H904 0.929 . S
C908 C910 1.378 . S
C908 C912 1.350 . S
C909 C912 1.463 . S
C909 C914 1.350 . S
C909 N917 1.427 . S
C910 H901 0.930 . S
C910 C908 1.378 . S
C910 C911 1.367 . S
C911 C910 1.367 . S
C911 C913 1.433 . S
C912 C908 1.350 . S
C912 C909 1.463 . S
C912 N916 1.427 . S
C913 H903 0.929 . S
C913 C911 1.433 . S
C913 N916 1.384 . S
C914 H905 0.929 . S
C914 C906 1.378 . S
C914 C909 1.350 . S
C915 H902 0.929 . S
C915 C907 1.433 . S
C915 N917 1.384 . S
N916 C912 1.427 . S
N916 C913 1.384 . S
N917 C909 1.427 . S
N917 C915 1.384 . S
H918 C924 0.930 . S
H919 C928 0.930 . S
H920 C933 0.929 . S
H921 C931 0.929 . S
H922 C926 0.929 . S
H923 C932 0.929 . S
C924 H918 0.930 . S
C924 C925 1.367 . S
C924 C932 1.378 . S
C925 C924 1.367 . S
C925 C933 1.433 . S
C926 H922 0.929 . S
C926 C928 1.378 . S
C926 C930 1.350 . S
C927 C930 1.463 . S
C927 C932 1.350 . S
C927 N935 1.427 . S
C928 H919 0.930 . S
C928 C926 1.378 . S
C928 C929 1.367 . S
C929 C928 1.367 . S
C929 C931 1.433 . S
C930 C926 1.350 . S
C930 C927 1.463 . S
C930 N934 1.427 . S
C931 H921 0.929 . S
C931 C929 1.433 . S
C931 N934 1.384 . S
C932 H923 0.929 . S
C932 C924 1.378 . S
C932 C927 1.350 . S
C933 H920 0.929 . S
C933 C925 1.433 . S
C933 N935 1.384 . S
N934 C930 1.427 . S
N934 C931 1.384 . S
N935 C927 1.427 . S
N935 C933 1.384 . S
H936 C942 0.930 . S
H937 C946 0.930 . S
H938 C951 0.929 . S
H939 C949 0.929 . S
H940 C944 0.929 . S
H941 C950 0.929 . S
C942 H936 0.930 . S
C942 C943 1.367 . S
C942 C950 1.378 . S
C943 C942 1.367 . S
C943 C951 1.433 . S
C944 H940 0.929 . S
C944 C946 1.378 . S
C944 C948 1.350 . S
C945 C948 1.463 . S
C945 C950 1.350 . S
C945 N953 1.427 . S
C946 H937 0.930 . S
C946 C944 1.378 . S
C946 C947 1.367 . S
C947 C946 1.367 . S
C947 C949 1.433 . S
C948 C944 1.350 . S
C948 C945 1.463 . S
C948 N952 1.427 . S
C949 H939 0.929 . S
C949 C947 1.433 . S
C949 N952 1.384 . S
C950 H941 0.929 . S
C950 C942 1.378 . S
C950 C945 1.350 . S
C951 H938 0.929 . S
C951 C943 1.433 . S
C951 N953 1.384 . S
N952 C948 1.427 . S
N952 C949 1.384 . S
N953 C945 1.427 . S
N953 C951 1.384 . S
H954 C960 0.930 . S
H955 C964 0.930 . S
H956 C969 0.929 . S
H957 C967 0.929 . S
H958 C962 0.929 . S
H959 C968 0.929 . S
C960 H954 0.930 . S
C960 C961 1.367 . S
C960 C968 1.378 . S
C961 C960 1.367 . S
C961 C969 1.433 . S
C962 H958 0.929 . S
C962 C964 1.378 . S
C962 C966 1.350 . S
C963 C966 1.463 . S
C963 C968 1.350 . S
C963 N971 1.427 . S
C964 H955 0.930 . S
C964 C962 1.378 . S
C964 C965 1.367 . S
C965 C964 1.367 . S
C965 C967 1.433 . S
C966 C962 1.350 . S
C966 C963 1.463 . S
C966 N970 1.427 . S
C967 H957 0.929 . S
C967 C965 1.433 . S
C967 N970 1.384 . S
C968 H959 0.929 . S
C968 C960 1.378 . S
C968 C963 1.350 . S
C969 H956 0.929 . S
C969 C961 1.433 . S
C969 N971 1.384 . S
N970 C966 1.427 . S
N970 C967 1.384 . S
N971 C963 1.427 . S
N971 C969 1.384 . S
H972 C978 0.930 . S
H973 C982 0.930 . S
H974 C987 0.929 . S
H975 C985 0.929 . S
H976 C980 0.929 . S
H977 C986 0.929 . S
C978 H972 0.930 . S
C978 C979 1.367 . S
C978 C986 1.378 . S
C979 C978 1.367 . S
C979 C987 1.433 1_545 S
C980 H976 0.929 . S
C980 C982 1.378 . S
C980 C984 1.350 1_565 S
C981 C984 1.463 . S
C981 C986 1.350 . S
C981 N989 1.427 1_545 S
C982 H973 0.930 . S
C982 C980 1.378 . S
C982 C983 1.367 . S
C983 C982 1.367 . S
C983 C985 1.433 1_565 S
C984 C980 1.350 1_545 S
C984 C981 1.463 . S
C984 N988 1.427 . S
C985 H975 0.929 . S
C985 C983 1.433 1_545 S
C985 N988 1.384 . S
C986 H977 0.929 . S
C986 C978 1.378 . S
C986 C981 1.350 . S
C987 H974 0.929 . S
C987 C979 1.433 1_565 S
C987 N989 1.384 . S
N988 C984 1.427 . S
N988 C985 1.384 . S
N989 C981 1.427 1_565 S
N989 C987 1.384 . S
H990 C996 0.930 . S
H991 C1000 0.930 . S
H992 C1005 0.929 . S
H993 C1003 0.929 . S
H994 C998 0.929 . S
H995 C1004 0.929 . S
C996 H990 0.930 . S
C996 C997 1.367 . S
C996 C1004 1.378 . S
C997 C996 1.367 . S
C997 C1005 1.433 . S
C998 H994 0.929 . S
C998 C1000 1.378 . S
C998 C1002 1.350 . S
C999 C1002 1.463 . S
C999 C1004 1.350 . S
C999 N1007 1.427 . S
C1000 H991 0.930 . S
C1000 C998 1.378 . S
C1000 C1001 1.367 1_455 S
C1001 C1000 1.367 1_655 S
C1001 C1003 1.433 . S
C1002 C998 1.350 . S
C1002 C999 1.463 . S
C1002 N1006 1.423 1_455 S
C1003 H993 0.929 . S
C1003 C1001 1.433 . S
C1003 N1006 1.398 . S
C1004 H995 0.929 . S
C1004 C996 1.378 . S
C1004 C999 1.350 . S
C1005 H992 0.929 . S
C1005 C997 1.433 . S
C1005 N1007 1.384 . S
N1006 C1002 1.423 1_655 S
N1006 C1003 1.398 . S
N1007 C999 1.427 . S
N1007 C1005 1.384 . S
H1008 C1014 0.930 1_554 S
H1009 C1018 0.930 1_556 S
H1010 C1023 0.929 . S
H1011 C1021 0.929 . S
H1012 C1016 0.929 . S
H1013 C1022 0.929 . S
C1014 H1008 0.930 1_556 S
C1014 C1015 1.367 . S
C1014 C1022 1.378 1_556 S
C1015 C1014 1.367 . S
C1015 C1023 1.433 . S
C1016 H1012 0.929 . S
C1016 C1018 1.378 1_556 S
C1016 C1020 1.350 1_556 S
C1017 C1020 1.463 1_556 S
C1017 C1022 1.350 1_556 S
C1017 N1025 1.427 . S
C1018 H1009 0.930 1_554 S
C1018 C1016 1.378 1_554 S
C1018 C1019 1.367 . S
C1019 C1018 1.367 . S
C1019 C1021 1.433 . S
C1020 C1016 1.350 1_554 S
C1020 C1017 1.463 1_554 S
C1020 N1024 1.427 . S
C1021 H1011 0.929 . S
C1021 C1019 1.433 . S
C1021 N1024 1.384 . S
C1022 H1013 0.929 . S
C1022 C1014 1.378 1_554 S
C1022 C1017 1.350 1_554 S
C1023 H1010 0.929 . S
C1023 C1015 1.433 . S
C1023 N1025 1.384 . S
N1024 C1020 1.427 . S
N1024 C1021 1.384 . S
N1025 C1017 1.427 . S
N1025 C1023 1.384 . S
H1026 C1032 0.930 . S
H1027 C1036 0.930 . S
H1028 C1041 0.929 1_554 S
H1029 C1039 0.929 1_556 S
H1030 C1034 0.929 . S
H1031 C1040 0.929 . S
C1032 H1026 0.930 . S
C1032 C1033 1.367 1_545 S
C1032 C1040 1.378 . S
C1033 C1032 1.367 1_565 S
C1033 C1041 1.433 . S
C1034 H1030 0.929 . S
C1034 C1036 1.378 . S
C1034 C1038 1.350 1_565 S
C1035 C1038 1.463 1_556 S
C1035 C1040 1.350 . S
C1035 N1043 1.427 1_546 S
C1036 H1027 0.930 . S
C1036 C1034 1.378 . S
C1036 C1037 1.367 1_565 S
C1037 C1036 1.367 1_545 S
C1037 C1039 1.433 . S
C1038 C1034 1.350 1_545 S
C1038 C1035 1.463 1_554 S
C1038 N1042 1.427 1_554 S
C1039 H1029 0.929 1_554 S
C1039 C1037 1.433 . S
C1039 N1042 1.384 1_554 S
C1040 H1031 0.929 . S
C1040 C1032 1.378 . S
C1040 C1035 1.350 . S
C1041 H1028 0.929 1_556 S
C1041 C1033 1.433 . S
C1041 N1043 1.384 1_556 S
N1042 C1038 1.427 1_556 S
N1042 C1039 1.384 1_556 S
N1043 C1035 1.427 1_564 S
N1043 C1041 1.384 1_554 S
H1044 C1050 0.932 . S
H1045 C1054 0.937 1_556 S
H1046 C1059 0.929 . S
H1047 C1057 0.929 . S
H1048 C1052 0.929 . S
H1049 C1058 0.929 . S
C1050 H1044 0.932 . S
C1050 C1051 1.365 1_554 S
C1050 C1058 1.379 . S
C1051 C1050 1.365 1_556 S
C1051 C1059 1.433 . S
C1052 H1048 0.929 . S
C1052 C1054 1.351 1_556 S
C1052 C1056 1.350 1_556 S
C1053 C1056 1.463 1_556 S
C1053 C1058 1.350 1_556 S
C1053 N1061 1.427 . S
C1054 H1045 0.937 1_554 S
C1054 C1052 1.351 1_554 S
C1054 C1055 1.391 1_455 S
C1055 C1054 1.391 1_655 S
C1055 C1057 1.433 . S
C1056 C1052 1.350 1_554 S
C1056 C1053 1.463 1_554 S
C1056 N1060 1.427 . S
C1057 H1047 0.929 . S
C1057 C1055 1.433 . S
C1057 N1060 1.382 1_655 S
C1058 H1049 0.929 . S
C1058 C1050 1.379 . S
C1058 C1053 1.350 1_554 S
C1059 H1046 0.929 . S
C1059 C1051 1.433 . S
C1059 N1061 1.384 . S
N1060 C1056 1.427 . S
N1060 C1057 1.382 1_455 S
N1061 C1053 1.427 . S
N1061 C1059 1.384 . S
C421 C7 1.724 . S
C425 C338 1.688 1_554 S
C439 C292 1.644 1_554 S
C443 C39 1.646 . S
C457 C53 1.761 . S
C461 C306 1.758 1_554 S
C475 C154 1.658 . S
C479 C62 1.659 . S
C493 C177 1.644 . S
C497 C16 1.645 . S
C511 C200 1.672 . S
C515 C30 1.713 . S
C529 C76 1.717 . S
C533 C269 1.681 1_556 S
C547 C223 1.645 1_556 S
C551 C108 1.642 . S
C565 C246 1.671 1_556 S
C569 C122 1.711 . S
C583 C131 1.681 . S
C587 C352 1.721 . S
C601 C85 1.657 . S
C605 C384 1.658 . S
C619 C398 1.760 . S
C623 C99 1.758 . S
C637 C283 1.762 . S
C641 C191 1.763 . S
C655 C145 1.733 . S
C659 C315 1.692 . S
C673 C329 1.765 . S
C677 C168 1.766 . S
C691 C407 1.700 . S
C695 C214 1.740 . S
C709 C237 1.737 . S
C713 C361 1.702 . S
C727 C375 1.760 . S
C731 C260 1.761 . S
C745 N347 1.565 . S
C749 N2 1.565 . S
C763 N35 1.604 . S
C767 N380 1.604 . S
C781 N48 1.543 . S
C785 N393 1.544 . S
C799 N58 1.601 . S
C803 N265 1.602 . S
C817 N219 1.598 . S
C821 N12 1.599 . S
C835 N25 1.539 . S
C839 N242 1.607 . S
C853 N150 1.604 . S
C857 N71 1.534 . S
C871 N173 1.598 . S
C875 N104 1.599 . S
C889 N117 1.547 . S
C893 N196 1.609 . S
C907 N127 1.594 . S
C911 N334 1.594 . S
C925 N81 1.600 . S
C929 N288 1.600 . S
C943 N94 1.547 . S
C947 N301 1.547 . S
C961 N186 1.540 . S
C965 N403 1.609 . S
C979 N140 1.532 . S
C983 N357 1.605 . S
C997 N370 1.555 . S
C1001 N163 1.556 . S
C1015 N278 1.556 . S
C1019 N209 1.555 . S
C1033 N311 1.599 . S
C1037 N232 1.537 . S
C1051 N324 1.551 . S
C1055 N255 1.551 . S
