# Generated by pormake.
# Topology uox, (4)-cn, num edge types: 1
# Building blocks:
#     Node 0, Type 0, BuildingBlock: CEKHIL_clean_sbu_0, # of connection points: 4
#     Node 1, Type 0, BuildingBlock: CEKHIL_clean_sbu_0, # of connection points: 4
#     Node 2, Type 0, BuildingBlock: CEKHIL_clean_sbu_0, # of connection points: 4
#     Node 3, Type 0, BuildingBlock: CEKHIL_clean_sbu_0, # of connection points: 4
#     Node 4, Type 0, BuildingBlock: CEKHIL_clean_sbu_0, # of connection points: 4
#     Node 5, Type 0, BuildingBlock: CEKHIL_clean_sbu_0, # of connection points: 4
#     Node 6, Type 0, BuildingBlock: CEKHIL_clean_sbu_0, # of connection points: 4
#     Node 7, Type 0, BuildingBlock: CEKHIL_clean_sbu_0, # of connection points: 4
#     Node 8, Type 0, BuildingBlock: CEKHIL_clean_sbu_0, # of connection points: 4
#     Node 9, Type 0, BuildingBlock: CEKHIL_clean_sbu_0, # of connection points: 4
#     Node 10, Type 0, BuildingBlock: CEKHIL_clean_sbu_0, # of connection points: 4
#     Node 11, Type 0, BuildingBlock: CEKHIL_clean_sbu_0, # of connection points: 4
#     Node 12, Type 0, BuildingBlock: CEKHIL_clean_sbu_0, # of connection points: 4
#     Node 13, Type 0, BuildingBlock: CEKHIL_clean_sbu_0, # of connection points: 4
#     Node 14, Type 0, BuildingBlock: CEKHIL_clean_sbu_0, # of connection points: 4
#     Node 15, Type 0, BuildingBlock: CEKHIL_clean_sbu_0, # of connection points: 4
#     Node 16, Type 0, BuildingBlock: CEKHIL_clean_sbu_0, # of connection points: 4
#     Node 17, Type 0, BuildingBlock: CEKHIL_clean_sbu_0, # of connection points: 4
#     Node 18, Type 0, BuildingBlock: CEKHIL_clean_sbu_0, # of connection points: 4
#     Node 19, Type 0, BuildingBlock: CEKHIL_clean_sbu_0, # of connection points: 4
#     Node 20, Type 0, BuildingBlock: CEKHIL_clean_sbu_0, # of connection points: 4
#     Node 21, Type 0, BuildingBlock: CEKHIL_clean_sbu_0, # of connection points: 4
#     Node 22, Type 0, BuildingBlock: CEKHIL_clean_sbu_0, # of connection points: 4
#     Node 23, Type 0, BuildingBlock: CEKHIL_clean_sbu_0, # of connection points: 4
#     Node 24, Type 0, BuildingBlock: CEKHIL_clean_sbu_0, # of connection points: 4
#     Node 25, Type 0, BuildingBlock: CEKHIL_clean_sbu_0, # of connection points: 4
#     Node 26, Type 0, BuildingBlock: CEKHIL_clean_sbu_0, # of connection points: 4
#     Node 27, Type 0, BuildingBlock: CEKHIL_clean_sbu_0, # of connection points: 4
#     Node 28, Type 0, BuildingBlock: CEKHIL_clean_sbu_0, # of connection points: 4
#     Node 29, Type 0, BuildingBlock: CEKHIL_clean_sbu_0, # of connection points: 4
#     Node 30, Type 0, BuildingBlock: CEKHIL_clean_sbu_0, # of connection points: 4
#     Node 31, Type 0, BuildingBlock: CEKHIL_clean_sbu_0, # of connection points: 4
#     Edge 32, Type (0, 0), BuildingBlock: OJICUG_clean_linker_0, # of connection points: 2
#     Edge 33, Type (0, 0), BuildingBlock: OJICUG_clean_linker_0, # of connection points: 2
#     Edge 34, Type (0, 0), BuildingBlock: OJICUG_clean_linker_0, # of connection points: 2
#     Edge 35, Type (0, 0), BuildingBlock: OJICUG_clean_linker_0, # of connection points: 2
#     Edge 36, Type (0, 0), BuildingBlock: OJICUG_clean_linker_0, # of connection points: 2
#     Edge 37, Type (0, 0), BuildingBlock: OJICUG_clean_linker_0, # of connection points: 2
#     Edge 38, Type (0, 0), BuildingBlock: OJICUG_clean_linker_0, # of connection points: 2
#     Edge 39, Type (0, 0), BuildingBlock: OJICUG_clean_linker_0, # of connection points: 2
#     Edge 40, Type (0, 0), BuildingBlock: OJICUG_clean_linker_0, # of connection points: 2
#     Edge 41, Type (0, 0), BuildingBlock: OJICUG_clean_linker_0, # of connection points: 2
#     Edge 42, Type (0, 0), BuildingBlock: OJICUG_clean_linker_0, # of connection points: 2
#     Edge 43, Type (0, 0), BuildingBlock: OJICUG_clean_linker_0, # of connection points: 2
#     Edge 44, Type (0, 0), BuildingBlock: OJICUG_clean_linker_0, # of connection points: 2
#     Edge 45, Type (0, 0), BuildingBlock: OJICUG_clean_linker_0, # of connection points: 2
#     Edge 46, Type (0, 0), BuildingBlock: OJICUG_clean_linker_0, # of connection points: 2
#     Edge 47, Type (0, 0), BuildingBlock: OJICUG_clean_linker_0, # of connection points: 2
#     Edge 48, Type (0, 0), BuildingBlock: OJICUG_clean_linker_0, # of connection points: 2
#     Edge 49, Type (0, 0), BuildingBlock: OJICUG_clean_linker_0, # of connection points: 2
#     Edge 50, Type (0, 0), BuildingBlock: OJICUG_clean_linker_0, # of connection points: 2
#     Edge 51, Type (0, 0), BuildingBlock: OJICUG_clean_linker_0, # of connection points: 2
#     Edge 52, Type (0, 0), BuildingBlock: OJICUG_clean_linker_0, # of connection points: 2
#     Edge 53, Type (0, 0), BuildingBlock: OJICUG_clean_linker_0, # of connection points: 2
#     Edge 54, Type (0, 0), BuildingBlock: OJICUG_clean_linker_0, # of connection points: 2
#     Edge 55, Type (0, 0), BuildingBlock: OJICUG_clean_linker_0, # of connection points: 2
#     Edge 56, Type (0, 0), BuildingBlock: OJICUG_clean_linker_0, # of connection points: 2
#     Edge 57, Type (0, 0), BuildingBlock: OJICUG_clean_linker_0, # of connection points: 2
#     Edge 58, Type (0, 0), BuildingBlock: OJICUG_clean_linker_0, # of connection points: 2
#     Edge 59, Type (0, 0), BuildingBlock: OJICUG_clean_linker_0, # of connection points: 2
#     Edge 60, Type (0, 0), BuildingBlock: OJICUG_clean_linker_0, # of connection points: 2
#     Edge 61, Type (0, 0), BuildingBlock: OJICUG_clean_linker_0, # of connection points: 2
#     Edge 62, Type (0, 0), BuildingBlock: OJICUG_clean_linker_0, # of connection points: 2
#     Edge 63, Type (0, 0), BuildingBlock: OJICUG_clean_linker_0, # of connection points: 2
#     Edge 64, Type (0, 0), BuildingBlock: OJICUG_clean_linker_0, # of connection points: 2
#     Edge 65, Type (0, 0), BuildingBlock: OJICUG_clean_linker_0, # of connection points: 2
#     Edge 66, Type (0, 0), BuildingBlock: OJICUG_clean_linker_0, # of connection points: 2
#     Edge 67, Type (0, 0), BuildingBlock: OJICUG_clean_linker_0, # of connection points: 2
#     Edge 68, Type (0, 0), BuildingBlock: OJICUG_clean_linker_0, # of connection points: 2
#     Edge 69, Type (0, 0), BuildingBlock: OJICUG_clean_linker_0, # of connection points: 2
#     Edge 70, Type (0, 0), BuildingBlock: OJICUG_clean_linker_0, # of connection points: 2
#     Edge 71, Type (0, 0), BuildingBlock: OJICUG_clean_linker_0, # of connection points: 2
#     Edge 72, Type (0, 0), BuildingBlock: OJICUG_clean_linker_0, # of connection points: 2
#     Edge 73, Type (0, 0), BuildingBlock: OJICUG_clean_linker_0, # of connection points: 2
#     Edge 74, Type (0, 0), BuildingBlock: OJICUG_clean_linker_0, # of connection points: 2
#     Edge 75, Type (0, 0), BuildingBlock: OJICUG_clean_linker_0, # of connection points: 2
#     Edge 76, Type (0, 0), BuildingBlock: OJICUG_clean_linker_0, # of connection points: 2
#     Edge 77, Type (0, 0), BuildingBlock: OJICUG_clean_linker_0, # of connection points: 2
#     Edge 78, Type (0, 0), BuildingBlock: OJICUG_clean_linker_0, # of connection points: 2
#     Edge 79, Type (0, 0), BuildingBlock: OJICUG_clean_linker_0, # of connection points: 2
#     Edge 80, Type (0, 0), BuildingBlock: OJICUG_clean_linker_0, # of connection points: 2
#     Edge 81, Type (0, 0), BuildingBlock: OJICUG_clean_linker_0, # of connection points: 2
#     Edge 82, Type (0, 0), BuildingBlock: OJICUG_clean_linker_0, # of connection points: 2
#     Edge 83, Type (0, 0), BuildingBlock: OJICUG_clean_linker_0, # of connection points: 2
#     Edge 84, Type (0, 0), BuildingBlock: OJICUG_clean_linker_0, # of connection points: 2
#     Edge 85, Type (0, 0), BuildingBlock: OJICUG_clean_linker_0, # of connection points: 2
#     Edge 86, Type (0, 0), BuildingBlock: OJICUG_clean_linker_0, # of connection points: 2
#     Edge 87, Type (0, 0), BuildingBlock: OJICUG_clean_linker_0, # of connection points: 2
#     Edge 88, Type (0, 0), BuildingBlock: OJICUG_clean_linker_0, # of connection points: 2
#     Edge 89, Type (0, 0), BuildingBlock: OJICUG_clean_linker_0, # of connection points: 2
#     Edge 90, Type (0, 0), BuildingBlock: OJICUG_clean_linker_0, # of connection points: 2
#     Edge 91, Type (0, 0), BuildingBlock: OJICUG_clean_linker_0, # of connection points: 2
#     Edge 92, Type (0, 0), BuildingBlock: OJICUG_clean_linker_0, # of connection points: 2
#     Edge 93, Type (0, 0), BuildingBlock: OJICUG_clean_linker_0, # of connection points: 2
#     Edge 94, Type (0, 0), BuildingBlock: OJICUG_clean_linker_0, # of connection points: 2
#     Edge 95, Type (0, 0), BuildingBlock: OJICUG_clean_linker_0, # of connection points: 2
# Relax obj value: 0.060
# Max RMSD: 0.090
# Mean RMSD: 0.090
data_MOF--net-uox--node1-CEKHIL_clean_sbu_0--edge1-OJICUG_clean_linker_0
_symmetry_space_group_name_H-M    P1
_symmetry_Int_Tables_number       1
_symmetry_cell_setting            triclinic
loop_
_symmetry_equiv_pos_as_xyz
'x, y, z'
_cell_length_a     33.281652
_cell_length_b     33.296402
_cell_length_c     56.109588
_cell_angle_alpha  90.002244
_cell_angle_beta   89.992562
_cell_angle_gamma 90.003271
loop_
_atom_site_label
_atom_site_type_symbol
_atom_site_fract_x
_atom_site_fract_y
_atom_site_fract_z
_atom_type_partial_charge
Co0 Co 0.42588 0.05676 0.17006 0.0
O1 O 0.44603 0.01896 0.19325 0.0
O2 O 0.39421 0.05914 0.19931 0.0
C3 C 0.48669 0.08218 0.15967 0.0
O4 O 0.39847 0.10194 0.15095 0.0
Co5 Co 0.44807 0.04816 0.11692 0.0
O6 O 0.42957 0.10462 0.11545 0.0
C7 C 0.38557 0.99534 0.13672 0.0
C8 C 0.41837 0.03178 0.20763 0.0
C9 C 0.40613 0.11978 0.131 0.0
O10 O 0.38822 0.01447 0.15664 0.0
O11 O 0.40831 1.00284 0.11886 0.0
O12 O 0.46809 0.09456 0.17865 0.0
O13 O 0.47 0.05211 0.14889 0.0
Co14 Co 0.20123 0.17573 0.42 0.0
O15 O 0.23901 0.19586 0.44322 0.0
O16 O 0.19879 0.14407 0.44925 0.0
C17 C 0.17583 0.23652 0.4096 0.0
O18 O 0.15605 0.14834 0.40087 0.0
Co19 Co 0.2099 0.19789 0.36687 0.0
O20 O 0.15341 0.1794 0.36537 0.0
C21 C 0.26268 0.1354 0.38668 0.0
C22 C 0.22616 0.16821 0.45758 0.0
C23 C 0.13822 0.15598 0.38091 0.0
O24 O 0.24354 0.13807 0.40659 0.0
O25 O 0.2552 0.15812 0.36881 0.0
O26 O 0.16341 0.21793 0.42858 0.0
O27 O 0.20592 0.21983 0.39883 0.0
Co28 Co 0.08216 0.95095 0.67007 0.0
O29 O 0.06203 0.98873 0.69328 0.0
O30 O 0.11385 0.94854 0.69931 0.0
C31 C 0.02134 0.92554 0.65969 0.0
O32 O 0.10955 0.90577 0.65094 0.0
Co33 Co 0.05995 0.95957 0.61694 0.0
O34 O 0.07844 0.9031 0.61545 0.0
C35 C 0.12247 0.01236 0.63672 0.0
C36 C 0.0897 0.97591 0.70764 0.0
C37 C 0.10188 0.88793 0.63099 0.0
O38 O 0.11983 0.99324 0.65664 0.0
O39 O 0.09972 0.00487 0.61887 0.0
O40 O 0.03995 0.91315 0.67867 0.0
O41 O 0.03804 0.95561 0.64891 0.0
Co42 Co 0.30694 0.83185 0.92002 0.0
O43 O 0.26915 0.81173 0.94324 0.0
O44 O 0.30937 0.86352 0.94927 0.0
C45 C 0.33235 0.77106 0.90963 0.0
O46 O 0.35213 0.85924 0.90089 0.0
Co47 Co 0.29829 0.80967 0.86689 0.0
O48 O 0.35478 0.82816 0.86539 0.0
C49 C 0.2455 0.87217 0.8867 0.0
C50 C 0.282 0.83939 0.9576 0.0
C51 C 0.36996 0.85159 0.88093 0.0
O52 O 0.26463 0.8695 0.90662 0.0
O53 O 0.25298 0.84944 0.86884 0.0
O54 O 0.34476 0.78965 0.92861 0.0
O55 O 0.30226 0.78775 0.89886 0.0
Co56 Co 0.42596 0.95099 0.34312 0.0
O57 O 0.4461 0.98877 0.31991 0.0
O58 O 0.39428 0.94858 0.31387 0.0
C59 C 0.48676 0.92557 0.35351 0.0
O60 O 0.39854 0.90582 0.36224 0.0
Co61 Co 0.44813 0.95963 0.39625 0.0
O62 O 0.42963 0.90316 0.39774 0.0
C63 C 0.38564 0.01242 0.37645 0.0
C64 C 0.41843 0.97594 0.30555 0.0
C65 C 0.4062 0.88799 0.3822 0.0
O66 O 0.38829 0.99329 0.35653 0.0
O67 O 0.40837 0.00493 0.39431 0.0
O68 O 0.46816 0.91318 0.33453 0.0
O69 O 0.47007 0.95565 0.36428 0.0
Co70 Co 0.30683 0.17569 0.5931 0.0
O71 O 0.26903 0.19582 0.5699 0.0
O72 O 0.30925 0.14404 0.56385 0.0
C73 C 0.33223 0.23649 0.60349 0.0
O74 O 0.35203 0.14831 0.61221 0.0
Co75 Co 0.29821 0.19786 0.64623 0.0
O76 O 0.3547 0.17938 0.64771 0.0
C77 C 0.24542 0.13535 0.62644 0.0
C78 C 0.28187 0.16817 0.55552 0.0
C79 C 0.36988 0.15596 0.63217 0.0
O80 O 0.26453 0.13802 0.60652 0.0
O81 O 0.25291 0.15808 0.6443 0.0
O82 O 0.34464 0.2179 0.58451 0.0
O83 O 0.30215 0.21979 0.61427 0.0
Co84 Co 0.08225 0.0566 0.84316 0.0
O85 O 0.0621 0.01883 0.81995 0.0
O86 O 0.11393 0.059 0.8139 0.0
C87 C 0.02146 0.08203 0.85355 0.0
O88 O 0.10967 0.10176 0.86228 0.0
Co89 Co 0.06006 0.04796 0.89629 0.0
O90 O 0.07857 0.10442 0.89778 0.0
C91 C 0.12256 0.99516 0.87648 0.0
C92 C 0.08977 0.03165 0.80558 0.0
C93 C 0.10201 0.11959 0.88224 0.0
O94 O 0.11991 0.01429 0.85656 0.0
O95 O 0.09982 1.00265 0.89434 0.0
O96 O 0.04007 0.09442 0.83457 0.0
O97 O 0.03813 0.05195 0.86432 0.0
Co98 Co 0.20124 0.83198 0.09311 0.0
O99 O 0.23905 0.81184 0.06992 0.0
O100 O 0.19884 0.86362 0.06386 0.0
C101 C 0.17581 0.7712 0.10351 0.0
O102 O 0.15602 0.85939 0.11221 0.0
Co103 Co 0.20982 0.80985 0.14625 0.0
O104 O 0.15333 0.82833 0.14772 0.0
C105 C 0.26263 0.87234 0.12645 0.0
C106 C 0.22622 0.83948 0.05554 0.0
C107 C 0.13816 0.85174 0.13217 0.0
O108 O 0.24353 0.86966 0.10653 0.0
O109 O 0.25513 0.84963 0.14432 0.0
O110 O 0.16343 0.78978 0.08453 0.0
O111 O 0.20589 0.7879 0.11429 0.0
Co112 Co 0.58223 0.95094 0.84307 0.0
O113 O 0.56208 0.98873 0.81988 0.0
O114 O 0.6139 0.94856 0.81382 0.0
C115 C 0.52142 0.92552 0.85346 0.0
O116 O 0.60964 0.90576 0.86218 0.0
Co117 Co 0.56004 0.95955 0.89621 0.0
O118 O 0.57854 0.90308 0.89768 0.0
C119 C 0.62255 0.01235 0.87641 0.0
C120 C 0.58975 0.97591 0.8055 0.0
C121 C 0.60197 0.88792 0.88214 0.0
O122 O 0.6199 0.99323 0.8565 0.0
O123 O 0.59981 0.00485 0.89427 0.0
O124 O 0.54003 0.91314 0.83448 0.0
O125 O 0.53812 0.95559 0.86425 0.0
Co126 Co 0.80687 0.83187 0.59313 0.0
O127 O 0.76909 0.81174 0.56992 0.0
O128 O 0.80931 0.86353 0.56389 0.0
C129 C 0.83227 0.77109 0.60353 0.0
O130 O 0.85205 0.85927 0.61226 0.0
Co131 Co 0.79819 0.80971 0.64626 0.0
O132 O 0.85468 0.8282 0.64777 0.0
C133 C 0.74541 0.8722 0.62645 0.0
C134 C 0.78194 0.83939 0.55555 0.0
C135 C 0.86987 0.85162 0.63223 0.0
O136 O 0.76455 0.86953 0.60654 0.0
O137 O 0.75289 0.84948 0.64432 0.0
O138 O 0.84469 0.78968 0.58456 0.0
O139 O 0.80218 0.78778 0.6143 0.0
Co140 Co 0.92592 0.05667 0.34309 0.0
O141 O 0.94606 0.01889 0.31987 0.0
O142 O 0.89424 0.05908 0.31385 0.0
C143 C 0.98674 0.08208 0.35347 0.0
O144 O 0.89852 0.10184 0.36221 0.0
Co145 Co 0.94812 0.04805 0.39621 0.0
O146 O 0.92962 0.10452 0.3977 0.0
C147 C 0.88561 0.99525 0.37643 0.0
C148 C 0.91838 0.03172 0.30551 0.0
C149 C 0.90618 0.11968 0.38216 0.0
O150 O 0.88826 0.01437 0.35651 0.0
O151 O 0.90836 1.00274 0.39428 0.0
O152 O 0.96813 0.09448 0.33449 0.0
O153 O 0.97004 0.05201 0.36425 0.0
Co154 Co 0.70119 0.17583 0.09312 0.0
O155 O 0.73898 0.19595 0.0699 0.0
O156 O 0.69876 0.14416 0.06387 0.0
C157 C 0.67578 0.23662 0.1035 0.0
O158 O 0.656 0.14845 0.11224 0.0
Co159 Co 0.70984 0.19802 0.14624 0.0
O160 O 0.65335 0.17953 0.14775 0.0
C161 C 0.76263 0.13552 0.12644 0.0
C162 C 0.72613 0.16829 0.05554 0.0
C163 C 0.63817 0.1561 0.13221 0.0
O164 O 0.7435 0.13818 0.10653 0.0
O165 O 0.75514 0.15825 0.1443 0.0
O166 O 0.66337 0.21802 0.08453 0.0
O167 O 0.70587 0.21994 0.11428 0.0
Co168 Co 0.58215 0.05663 0.67 0.0
O169 O 0.56201 0.01886 0.69322 0.0
O170 O 0.61383 0.05905 0.69924 0.0
C171 C 0.52135 0.08205 0.65961 0.0
O172 O 0.60956 0.10179 0.65087 0.0
Co173 Co 0.55997 0.04798 0.61687 0.0
O174 O 0.57847 0.10444 0.61537 0.0
C175 C 0.62246 0.99518 0.63667 0.0
C176 C 0.58968 0.03169 0.70757 0.0
C177 C 0.6019 0.11962 0.63091 0.0
O178 O 0.61981 0.01433 0.65659 0.0
O179 O 0.59972 1.00267 0.61881 0.0
O180 O 0.53995 0.09445 0.67859 0.0
O181 O 0.53803 0.05196 0.64884 0.0
Co182 Co 0.70126 0.83191 0.42004 0.0
O183 O 0.73906 0.81178 0.44324 0.0
O184 O 0.69884 0.86356 0.44929 0.0
C185 C 0.67585 0.77112 0.40965 0.0
O186 O 0.65606 0.85929 0.40092 0.0
Co187 Co 0.70989 0.80974 0.3669 0.0
O188 O 0.6534 0.82822 0.36542 0.0
C189 C 0.76268 0.87225 0.3867 0.0
C190 C 0.72622 0.83943 0.45761 0.0
C191 C 0.63822 0.85164 0.38097 0.0
O192 O 0.74356 0.86958 0.40662 0.0
O193 O 0.75519 0.84952 0.36884 0.0
O194 O 0.66345 0.78971 0.42863 0.0
O195 O 0.70593 0.78781 0.39887 0.0
Co196 Co 0.92587 0.95109 0.16999 0.0
O197 O 0.94602 0.98885 0.1932 0.0
O198 O 0.89419 0.94868 0.19923 0.0
C199 C 0.98668 0.92566 0.15959 0.0
O200 O 0.89846 0.90593 0.15086 0.0
Co201 Co 0.94807 0.95974 0.11686 0.0
O202 O 0.92957 0.90327 0.11536 0.0
C203 C 0.88558 0.01254 0.13667 0.0
C204 C 0.91835 0.97602 0.20757 0.0
C205 C 0.90612 0.8881 0.1309 0.0
O206 O 0.88822 0.9934 0.15658 0.0
O207 O 0.90832 0.00505 0.1188 0.0
O208 O 0.96806 0.91326 0.17857 0.0
O209 O 0.97 0.95575 0.14882 0.0
Co210 Co 0.80689 0.1757 0.92003 0.0
O211 O 0.76907 0.19583 0.94322 0.0
O212 O 0.80928 0.14405 0.94928 0.0
C213 C 0.83231 0.23648 0.90963 0.0
O214 O 0.85211 0.1483 0.90093 0.0
Co215 Co 0.79831 0.19784 0.86689 0.0
O216 O 0.85481 0.17937 0.86542 0.0
C217 C 0.7455 0.13534 0.88669 0.0
C218 C 0.7819 0.16819 0.9576 0.0
C219 C 0.86997 0.15595 0.88097 0.0
O220 O 0.7646 0.13802 0.90661 0.0
O221 O 0.75301 0.15806 0.86882 0.0
O222 O 0.8447 0.2179 0.92862 0.0
O223 O 0.80224 0.21978 0.89885 0.0
Co224 Co 0.92586 0.5566 0.67003 0.0
O225 O 0.94601 0.51881 0.69322 0.0
O226 O 0.89419 0.55898 0.69928 0.0
C227 C 0.98667 0.58202 0.65964 0.0
O228 O 0.89846 0.60178 0.65092 0.0
Co229 Co 0.94805 0.548 0.61689 0.0
O230 O 0.92957 0.60446 0.61542 0.0
C231 C 0.88554 0.49519 0.63668 0.0
C232 C 0.91835 0.53162 0.7076 0.0
C233 C 0.90613 0.61963 0.63097 0.0
O234 O 0.8882 0.51431 0.6566 0.0
O235 O 0.90829 0.50269 0.61883 0.0
O236 O 0.96807 0.59441 0.67862 0.0
O237 O 0.96998 0.55195 0.64886 0.0
Co238 Co 0.70127 0.6757 0.91998 0.0
O239 O 0.73906 0.69585 0.94319 0.0
O240 O 0.69885 0.64406 0.94924 0.0
C241 C 0.67585 0.73648 0.90958 0.0
O242 O 0.65608 0.64829 0.90087 0.0
Co243 Co 0.70991 0.69783 0.86684 0.0
O244 O 0.65342 0.67934 0.86536 0.0
C245 C 0.76271 0.63535 0.88666 0.0
C246 C 0.72622 0.6682 0.95756 0.0
C247 C 0.63824 0.65593 0.88091 0.0
O248 O 0.74358 0.63803 0.90657 0.0
O249 O 0.75522 0.65807 0.86879 0.0
O250 O 0.66345 0.71789 0.92856 0.0
O251 O 0.70594 0.71978 0.8988 0.0
Co252 Co 0.58218 0.4511 0.17001 0.0
O253 O 0.56205 0.48888 0.19323 0.0
O254 O 0.61387 0.44869 0.19925 0.0
C255 C 0.52137 0.42568 0.15963 0.0
O256 O 0.60958 0.40593 0.15089 0.0
Co257 Co 0.55998 0.45972 0.11689 0.0
O258 O 0.57848 0.40325 0.1154 0.0
C259 C 0.62249 0.51252 0.13667 0.0
C260 C 0.58972 0.47605 0.20759 0.0
C261 C 0.60192 0.38809 0.13094 0.0
O262 O 0.61984 0.49339 0.15659 0.0
O263 O 0.59975 0.50502 0.11882 0.0
O264 O 0.53998 0.41329 0.17861 0.0
O265 O 0.53806 0.45575 0.14885 0.0
Co266 Co 0.80688 0.33191 0.41999 0.0
O267 O 0.76907 0.31177 0.4432 0.0
O268 O 0.80929 0.36357 0.44924 0.0
C269 C 0.83229 0.27113 0.4096 0.0
O270 O 0.85208 0.35931 0.40088 0.0
Co271 Co 0.79826 0.30975 0.36686 0.0
O272 O 0.85475 0.32824 0.36538 0.0
C273 C 0.74546 0.37225 0.38666 0.0
C274 C 0.78191 0.33943 0.45757 0.0
C275 C 0.86992 0.35166 0.38092 0.0
O276 O 0.76458 0.36957 0.40658 0.0
O277 O 0.75295 0.34952 0.3688 0.0
O278 O 0.84469 0.28972 0.42858 0.0
O279 O 0.80221 0.28782 0.39882 0.0
Co280 Co 0.92595 0.45091 0.8431 0.0
O281 O 0.9461 0.48868 0.81988 0.0
O282 O 0.89427 0.44849 0.81386 0.0
C283 C 0.98676 0.4255 0.85349 0.0
O284 O 0.89854 0.40575 0.86223 0.0
Co285 Co 0.94814 0.45957 0.89623 0.0
O286 O 0.92963 0.4031 0.89773 0.0
C287 C 0.88564 0.51236 0.87643 0.0
C288 C 0.91842 0.47585 0.80553 0.0
C289 C 0.9062 0.38793 0.88219 0.0
O290 O 0.88829 0.49322 0.85652 0.0
O291 O 0.90838 0.50488 0.89429 0.0
O292 O 0.96816 0.4131 0.83451 0.0
O293 O 0.97007 0.45558 0.86426 0.0
Co294 Co 0.80688 0.67583 0.09308 0.0
O295 O 0.76909 0.69594 0.06986 0.0
O296 O 0.80932 0.64416 0.06383 0.0
C297 C 0.83228 0.73663 0.10346 0.0
O298 O 0.85207 0.64846 0.1122 0.0
Co299 Co 0.79822 0.69803 0.1462 0.0
O300 O 0.85471 0.67954 0.14771 0.0
C301 C 0.74544 0.63551 0.12641 0.0
C302 C 0.78194 0.66828 0.0555 0.0
C303 C 0.8699 0.65611 0.13217 0.0
O304 O 0.76457 0.63817 0.10649 0.0
O305 O 0.75292 0.65825 0.14427 0.0
O306 O 0.8447 0.71803 0.08449 0.0
O307 O 0.80219 0.71994 0.11424 0.0
Co308 Co 0.58222 0.55668 0.34311 0.0
O309 O 0.56207 0.51892 0.3199 0.0
O310 O 0.6139 0.5591 0.31387 0.0
C311 C 0.52142 0.5821 0.35351 0.0
O312 O 0.60964 0.60184 0.36224 0.0
Co313 Co 0.56002 0.54803 0.39624 0.0
O314 O 0.57853 0.60449 0.39774 0.0
C315 C 0.62252 0.49523 0.37643 0.0
C316 C 0.58974 0.53175 0.30553 0.0
C317 C 0.60197 0.61966 0.3822 0.0
O318 O 0.61987 0.51437 0.35652 0.0
O319 O 0.59978 0.50272 0.39429 0.0
O320 O 0.54003 0.5945 0.33453 0.0
O321 O 0.5381 0.55202 0.36428 0.0
Co322 Co 0.70118 0.33187 0.59308 0.0
O323 O 0.73899 0.31175 0.56987 0.0
O324 O 0.69877 0.36353 0.56384 0.0
C325 C 0.67577 0.27108 0.60347 0.0
O326 O 0.65597 0.35925 0.6122 0.0
Co327 Co 0.70979 0.3097 0.64621 0.0
O328 O 0.6533 0.32817 0.6477 0.0
C329 C 0.76259 0.37221 0.62642 0.0
C330 C 0.72614 0.3394 0.55551 0.0
C331 C 0.63813 0.3516 0.63216 0.0
O332 O 0.74347 0.36954 0.6065 0.0
O333 O 0.7551 0.34948 0.64428 0.0
O334 O 0.66337 0.28967 0.58449 0.0
O335 O 0.70585 0.28778 0.61425 0.0
Co336 Co 0.08222 0.45101 0.34311 0.0
O337 O 0.06207 0.4888 0.31991 0.0
O338 O 0.1139 0.44862 0.31385 0.0
C339 C 0.02142 0.42558 0.35349 0.0
O340 O 0.10964 0.40582 0.36221 0.0
Co341 Co 0.06004 0.4596 0.39624 0.0
O342 O 0.07853 0.40314 0.39771 0.0
C343 C 0.12254 0.51241 0.37645 0.0
C344 C 0.08974 0.47598 0.30554 0.0
C345 C 0.10197 0.38797 0.38217 0.0
O346 O 0.11989 0.49329 0.35653 0.0
O347 O 0.0998 0.50491 0.39431 0.0
O348 O 0.04002 0.4132 0.33451 0.0
O349 O 0.03811 0.45564 0.36428 0.0
Co350 Co 0.30684 0.332 0.09315 0.0
O351 O 0.26904 0.31186 0.06995 0.0
O352 O 0.30926 0.36364 0.06389 0.0
C353 C 0.33225 0.27122 0.10355 0.0
O354 O 0.35203 0.35941 0.11226 0.0
Co355 Co 0.2982 0.30987 0.14629 0.0
O356 O 0.3547 0.32836 0.14777 0.0
C357 C 0.24541 0.37236 0.12648 0.0
C358 C 0.28189 0.3395 0.05557 0.0
C359 C 0.36987 0.35177 0.13222 0.0
O360 O 0.26453 0.36967 0.10656 0.0
O361 O 0.2529 0.34964 0.14434 0.0
O362 O 0.34466 0.2898 0.08457 0.0
O363 O 0.30216 0.28792 0.11433 0.0
Co364 Co 0.42594 0.55659 0.8431 0.0
O365 O 0.44607 0.51881 0.81989 0.0
O366 O 0.39425 0.559 0.81386 0.0
C367 C 0.48676 0.58201 0.85347 0.0
O368 O 0.39855 0.60177 0.86222 0.0
Co369 Co 0.44815 0.54797 0.89623 0.0
O370 O 0.42966 0.60444 0.89772 0.0
C371 C 0.38563 0.49518 0.87644 0.0
C372 C 0.4184 0.53164 0.80553 0.0
C373 C 0.40622 0.61961 0.88218 0.0
O374 O 0.38828 0.5143 0.85652 0.0
O375 O 0.40838 0.50267 0.8943 0.0
O376 O 0.46815 0.5944 0.8345 0.0
O377 O 0.47007 0.55194 0.86426 0.0
Co378 Co 0.2012 0.67572 0.59313 0.0
O379 O 0.239 0.69586 0.56992 0.0
O380 O 0.19878 0.64407 0.56388 0.0
C381 C 0.17578 0.7365 0.60353 0.0
O382 O 0.156 0.64831 0.61224 0.0
Co383 Co 0.20982 0.69787 0.64627 0.0
O384 O 0.15333 0.67937 0.64775 0.0
C385 C 0.26262 0.63538 0.62646 0.0
C386 C 0.22616 0.66821 0.55555 0.0
C387 C 0.13816 0.65596 0.63221 0.0
O388 O 0.2435 0.63806 0.60654 0.0
O389 O 0.25512 0.6581 0.64432 0.0
O390 O 0.16338 0.71791 0.58455 0.0
O391 O 0.20586 0.71981 0.61431 0.0
Co392 Co 0.08214 0.55677 0.17004 0.0
O393 O 0.062 0.51899 0.19325 0.0
O394 O 0.11382 0.55918 0.19929 0.0
C395 C 0.02134 0.58218 0.15965 0.0
O396 O 0.10955 0.60194 0.15092 0.0
Co397 Co 0.05997 0.54813 0.11691 0.0
O398 O 0.07847 0.6046 0.11542 0.0
C399 C 0.12246 0.49534 0.13671 0.0
C400 C 0.08967 0.53182 0.20762 0.0
C401 C 0.1019 0.61977 0.13097 0.0
O402 O 0.11981 0.51448 0.15663 0.0
O403 O 0.09973 0.50283 0.11885 0.0
O404 O 0.03993 0.59458 0.17863 0.0
O405 O 0.03803 0.55211 0.14888 0.0
Co406 Co 0.20124 0.33187 0.92005 0.0
O407 O 0.23903 0.31177 0.94327 0.0
O408 O 0.1988 0.36355 0.94929 0.0
C409 C 0.17585 0.27107 0.90967 0.0
O410 O 0.15605 0.35925 0.90093 0.0
Co411 Co 0.20989 0.30968 0.86692 0.0
O412 O 0.1534 0.32816 0.86542 0.0
C413 C 0.26268 0.3722 0.88672 0.0
C414 C 0.22618 0.33943 0.95763 0.0
C415 C 0.13822 0.35159 0.88097 0.0
O416 O 0.24354 0.36954 0.90663 0.0
O417 O 0.25519 0.34946 0.86886 0.0
O418 O 0.16343 0.28967 0.92864 0.0
O419 O 0.20593 0.28777 0.89889 0.0
Co420 Co 0.42586 0.45095 0.67001 0.0
O421 O 0.44601 0.48871 0.69322 0.0
O422 O 0.39418 0.44854 0.69926 0.0
C423 C 0.48666 0.42552 0.65961 0.0
O424 O 0.39844 0.40578 0.65089 0.0
Co425 Co 0.44805 0.45958 0.61688 0.0
O426 O 0.42954 0.40312 0.61539 0.0
C427 C 0.38555 0.51238 0.63669 0.0
C428 C 0.41834 0.47589 0.70759 0.0
C429 C 0.4061 0.38795 0.63093 0.0
O430 O 0.3882 0.49325 0.6566 0.0
O431 O 0.40829 0.50489 0.61883 0.0
O432 O 0.46805 0.41312 0.67859 0.0
O433 O 0.46997 0.4556 0.64884 0.0
Co434 Co 0.30689 0.67575 0.42004 0.0
O435 O 0.26909 0.69588 0.44325 0.0
O436 O 0.30931 0.6441 0.44929 0.0
C437 C 0.33231 0.73654 0.40965 0.0
O438 O 0.3521 0.64837 0.40092 0.0
Co439 Co 0.29828 0.69792 0.36691 0.0
O440 O 0.35477 0.67944 0.36542 0.0
C441 C 0.24548 0.63541 0.38671 0.0
C442 C 0.28193 0.66823 0.45762 0.0
C443 C 0.36994 0.65602 0.38096 0.0
O444 O 0.2646 0.63809 0.40663 0.0
O445 O 0.25297 0.65814 0.36884 0.0
O446 O 0.34471 0.71796 0.42863 0.0
O447 O 0.30223 0.71985 0.39887 0.0
C448 C 0.38062 0.9966 0.26839 0.0
C449 C 0.41708 0.99002 0.28047 0.0
H450 H 0.35223 0.0164 0.23589 0.0
C451 C 0.45332 0.99739 0.26842 0.0
H452 H 0.35226 0.99127 0.27732 0.0
C453 C 0.45331 0.01036 0.24473 0.0
C454 C 0.41705 0.0177 0.2327 0.0
H455 H 0.48187 0.99246 0.27723 0.0
H456 H 0.48185 0.01531 0.23591 0.0
C457 C 0.3806 0.0111 0.2448 0.0
C458 C 0.26047 0.20309 0.51841 0.0
C459 C 0.26782 0.16685 0.53044 0.0
H460 H 0.2426 0.23163 0.4859 0.0
C461 C 0.26126 0.13042 0.51834 0.0
H462 H 0.26539 0.23161 0.52723 0.0
C463 C 0.24678 0.13042 0.49475 0.0
C464 C 0.24021 0.16687 0.48266 0.0
H465 H 0.26656 0.10206 0.52726 0.0
H466 H 0.24149 0.10207 0.48582 0.0
C467 C 0.24754 0.2031 0.49471 0.0
C468 C 0.12753 0.01099 0.7684 0.0
C469 C 0.09108 0.0176 0.78049 0.0
H470 H 0.15588 0.99117 0.73588 0.0
C471 C 0.05483 0.0103 0.76846 0.0
H472 H 0.15591 0.01626 0.77732 0.0
C473 C 0.05481 0.99736 0.74476 0.0
C474 C 0.09105 0.98997 0.73272 0.0
H475 H 0.02629 0.01526 0.77728 0.0
H476 H 0.02626 0.99245 0.73595 0.0
C477 C 0.12752 0.99651 0.7448 0.0
C478 C 0.26135 0.87719 0.99476 0.0
C479 C 0.26794 0.84074 0.98268 0.0
H480 H 0.24155 0.90558 0.02727 0.0
C481 C 0.2606 0.80452 0.99474 0.0
H482 H 0.26665 0.90554 0.98583 0.0
C483 C 0.24765 0.80454 0.01843 0.0
C484 C 0.24029 0.84078 0.03046 0.0
H485 H 0.26554 0.77598 0.98593 0.0
H486 H 0.24272 0.77602 0.02726 0.0
C487 C 0.24686 0.87721 0.01836 0.0
C488 C 0.55481 0.99733 0.7684 0.0
C489 C 0.59106 0.98998 0.78042 0.0
H490 H 0.52624 0.01523 0.7359 0.0
C491 C 0.62751 0.99656 0.76832 0.0
H492 H 0.52627 0.9924 0.77722 0.0
C493 C 0.6275 0.01105 0.74473 0.0
C494 C 0.59103 0.01763 0.73265 0.0
H495 H 0.65589 0.99125 0.77723 0.0
H496 H 0.65586 0.01635 0.7358 0.0
C497 C 0.55479 0.01029 0.74471 0.0
C498 C 0.74684 0.87719 0.49479 0.0
C499 C 0.74027 0.84075 0.48269 0.0
H500 H 0.76661 0.90553 0.52732 0.0
C501 C 0.74762 0.80451 0.49473 0.0
H502 H 0.74153 0.90554 0.48587 0.0
C503 C 0.76056 0.80451 0.51842 0.0
C504 C 0.76789 0.84073 0.53047 0.0
H505 H 0.74269 0.77599 0.4859 0.0
H506 H 0.76549 0.77597 0.52724 0.0
C507 C 0.76132 0.87718 0.51839 0.0
C508 C 0.95329 0.01031 0.26839 0.0
C509 C 0.91705 0.01767 0.28043 0.0
H510 H 0.98182 0.99243 0.23587 0.0
C511 C 0.88058 0.01112 0.26834 0.0
H512 H 0.98183 0.01522 0.2772 0.0
C513 C 0.88057 0.99665 0.24474 0.0
C514 C 0.91703 0.99006 0.23265 0.0
H515 H 0.85222 0.01644 0.27727 0.0
H516 H 0.8522 0.99137 0.23582 0.0
C517 C 0.95328 0.99738 0.24469 0.0
C518 C 0.76127 0.13046 0.99478 0.0
C519 C 0.76783 0.16689 0.98268 0.0
H520 H 0.7415 0.10213 0.02732 0.0
C521 C 0.76046 0.20313 0.9947 0.0
H522 H 0.7666 0.1021 0.98588 0.0
C523 C 0.74751 0.20315 0.0184 0.0
C524 C 0.74019 0.16693 0.03046 0.0
H525 H 0.76538 0.23165 0.98587 0.0
H526 H 0.74256 0.23169 0.02721 0.0
C527 C 0.74679 0.13048 0.01838 0.0
C528 C 0.88059 0.51098 0.74478 0.0
C529 C 0.91703 0.51756 0.73268 0.0
H530 H 0.85224 0.49119 0.7773 0.0
C531 C 0.95329 0.51021 0.7447 0.0
H532 H 0.85221 0.51629 0.73587 0.0
C533 C 0.95331 0.49725 0.76839 0.0
C534 C 0.91707 0.48991 0.78045 0.0
H535 H 0.98183 0.51514 0.73587 0.0
H536 H 0.98186 0.49232 0.7772 0.0
C537 C 0.8806 0.49649 0.76837 0.0
C538 C 0.76132 0.63048 0.01834 0.0
C539 C 0.76789 0.66693 0.03042 0.0
H540 H 0.74154 0.6021 0.98583 0.0
C541 C 0.76056 0.70315 0.01837 0.0
H542 H 0.76662 0.60213 0.02727 0.0
C543 C 0.74762 0.70314 0.99467 0.0
C544 C 0.74027 0.66689 0.98264 0.0
H545 H 0.76549 0.73169 0.02718 0.0
H546 H 0.74269 0.73166 0.98585 0.0
C547 C 0.74684 0.63046 0.99474 0.0
C548 C 0.55482 0.5104 0.26841 0.0
C549 C 0.59107 0.51771 0.28045 0.0
H550 H 0.52627 0.49255 0.23589 0.0
C551 C 0.62752 0.51112 0.26836 0.0
H552 H 0.52628 0.51534 0.27723 0.0
C553 C 0.62752 0.49665 0.24476 0.0
C554 C 0.59105 0.4901 0.23267 0.0
H555 H 0.65589 0.5164 0.27728 0.0
H556 H 0.65588 0.49133 0.23583 0.0
C557 C 0.55481 0.49746 0.24471 0.0
C558 C 0.74678 0.37718 0.51834 0.0
C559 C 0.74021 0.34074 0.53043 0.0
H560 H 0.76656 0.40554 0.48582 0.0
C561 C 0.74756 0.30451 0.51838 0.0
H562 H 0.74147 0.40553 0.52726 0.0
C563 C 0.76051 0.30451 0.49469 0.0
C564 C 0.76785 0.34075 0.48265 0.0
H565 H 0.74263 0.27598 0.5272 0.0
H566 H 0.76544 0.27599 0.48587 0.0
C567 C 0.76127 0.37719 0.49474 0.0
C568 C 0.0548 0.4974 0.26843 0.0
C569 C 0.09105 0.49006 0.28046 0.0
H570 H 0.02623 0.5153 0.23593 0.0
C571 C 0.1275 0.49666 0.26836 0.0
H572 H 0.02626 0.49245 0.27725 0.0
C573 C 0.12749 0.51117 0.24477 0.0
C574 C 0.09102 0.51774 0.23269 0.0
H575 H 0.15588 0.49136 0.27728 0.0
H576 H 0.15585 0.51649 0.23585 0.0
C577 C 0.05478 0.51037 0.24474 0.0
C578 C 0.26049 0.30457 0.01846 0.0
C579 C 0.26783 0.34081 0.03049 0.0
H580 H 0.24262 0.27601 0.98595 0.0
C581 C 0.26127 0.37724 0.01839 0.0
H582 H 0.26541 0.27604 0.02729 0.0
C583 C 0.2468 0.37722 0.99479 0.0
C584 C 0.24022 0.34077 0.98271 0.0
H585 H 0.26658 0.4056 0.0273 0.0
H586 H 0.24151 0.40557 0.98586 0.0
C587 C 0.24755 0.30455 0.99476 0.0
C588 C 0.45329 0.5102 0.7684 0.0
C589 C 0.41705 0.51757 0.78045 0.0
H590 H 0.48182 0.4923 0.73589 0.0
C591 C 0.38059 0.51102 0.76836 0.0
H592 H 0.48184 0.51511 0.77722 0.0
C593 C 0.38057 0.49654 0.74476 0.0
C594 C 0.41702 0.48994 0.73267 0.0
H595 H 0.35223 0.51635 0.77729 0.0
H596 H 0.3522 0.49126 0.73585 0.0
C597 C 0.45328 0.49726 0.74471 0.0
C598 C 0.24756 0.70312 0.51843 0.0
C599 C 0.24022 0.66689 0.53047 0.0
H600 H 0.26543 0.73166 0.48592 0.0
C601 C 0.24681 0.63045 0.51838 0.0
H602 H 0.24261 0.73165 0.52725 0.0
C603 C 0.2613 0.63045 0.49478 0.0
C604 C 0.26786 0.6669 0.4827 0.0
H605 H 0.24151 0.60209 0.5273 0.0
H606 H 0.26661 0.6021 0.48586 0.0
C607 C 0.2605 0.70312 0.49474 0.0
C608 C 0.34186 0.95078 0.11139 0.0
C609 C 0.35436 0.9636 0.13413 0.0
H610 H 0.303 0.91245 0.0911 0.0
C611 C 0.33651 0.94597 0.15429 0.0
H612 H 0.35479 0.96381 0.09545 0.0
C613 C 0.30715 0.9161 0.15178 0.0
C614 C 0.29436 0.90357 0.12904 0.0
H615 H 0.34544 0.955 0.17207 0.0
H616 H 0.29411 0.90318 0.16772 0.0
C617 C 0.31201 0.9214 0.10888 0.0
C618 C 0.31205 0.08635 0.40427 0.0
C619 C 0.29442 0.10418 0.3841 0.0
H620 H 0.35482 0.04395 0.41771 0.0
C621 C 0.30723 0.09165 0.36136 0.0
H622 H 0.30301 0.09531 0.42204 0.0
C623 C 0.3366 0.06179 0.35886 0.0
C624 C 0.35443 0.04416 0.37903 0.0
H625 H 0.29421 0.10457 0.34542 0.0
H626 H 0.34555 0.05275 0.34109 0.0
C627 C 0.3419 0.05698 0.40177 0.0
C628 C 0.16619 0.05691 0.61139 0.0
C629 C 0.15369 0.0441 0.63413 0.0
H630 H 0.20506 0.09524 0.5911 0.0
C631 C 0.17153 0.06174 0.65429 0.0
H632 H 0.15326 0.04388 0.59545 0.0
C633 C 0.20089 0.0916 0.65177 0.0
C634 C 0.21369 0.10413 0.62903 0.0
H635 H 0.1626 0.05271 0.67207 0.0
H636 H 0.21394 0.10453 0.66771 0.0
C637 C 0.19604 0.08629 0.60887 0.0
C638 C 0.16628 0.95059 0.90179 0.0
C639 C 0.15376 0.96341 0.87906 0.0
H640 H 0.20516 0.91226 0.92206 0.0
C641 C 0.17159 0.94578 0.85889 0.0
H642 H 0.15336 0.96362 0.91773 0.0
C643 C 0.20095 0.91591 0.86139 0.0
C644 C 0.21376 0.90339 0.88412 0.0
H645 H 0.16265 0.95481 0.84112 0.0
H646 H 0.21399 0.90299 0.84545 0.0
C647 C 0.19613 0.92122 0.90429 0.0
C648 C 0.70098 0.09159 0.86135 0.0
C649 C 0.71377 0.10412 0.88409 0.0
H650 H 0.66268 0.05269 0.84107 0.0
C651 C 0.69612 0.08628 0.90426 0.0
H652 H 0.71402 0.10451 0.84542 0.0
C653 C 0.66627 0.05691 0.90174 0.0
C654 C 0.65377 0.04409 0.879 0.0
H655 H 0.70513 0.09524 0.92203 0.0
H656 H 0.65333 0.04387 0.91768 0.0
C657 C 0.67162 0.06173 0.85884 0.0
C658 C 0.66619 0.95061 0.61136 0.0
C659 C 0.65367 0.96344 0.6341 0.0
H660 H 0.70508 0.91228 0.59109 0.0
C661 C 0.67149 0.94582 0.65426 0.0
H662 H 0.65328 0.96364 0.59542 0.0
C663 C 0.70086 0.91595 0.65176 0.0
C664 C 0.71367 0.90341 0.62903 0.0
H665 H 0.66254 0.95486 0.67204 0.0
H666 H 0.71388 0.90304 0.66771 0.0
C667 C 0.69605 0.92124 0.60886 0.0
C668 C 0.81205 0.92131 0.40427 0.0
C669 C 0.79441 0.90347 0.38411 0.0
H670 H 0.85482 0.96373 0.41769 0.0
C671 C 0.80721 0.916 0.36137 0.0
H672 H 0.80303 0.91236 0.42205 0.0
C673 C 0.83656 0.94586 0.35885 0.0
C674 C 0.8544 0.9635 0.37902 0.0
H675 H 0.79417 0.90307 0.34543 0.0
H676 H 0.8455 0.9549 0.34108 0.0
C677 C 0.8419 0.95069 0.40176 0.0
C678 C 0.812 0.08647 0.10885 0.0
C679 C 0.79437 0.1043 0.12902 0.0
H680 H 0.85477 0.04407 0.09541 0.0
C681 C 0.80717 0.09178 0.15176 0.0
H682 H 0.80297 0.09542 0.09108 0.0
C683 C 0.83654 0.06191 0.15426 0.0
C684 C 0.85437 0.04428 0.13409 0.0
H685 H 0.79414 0.10469 0.1677 0.0
H686 H 0.84548 0.05288 0.17203 0.0
C687 C 0.84185 0.0571 0.11135 0.0
C688 C 0.80713 0.41595 0.65175 0.0
C689 C 0.79433 0.40343 0.62901 0.0
H690 H 0.84543 0.45484 0.67203 0.0
C691 C 0.81197 0.42127 0.60885 0.0
H692 H 0.79409 0.40302 0.66769 0.0
C693 C 0.84182 0.45064 0.61136 0.0
C694 C 0.85433 0.46345 0.6341 0.0
H695 H 0.80295 0.41232 0.59107 0.0
H696 H 0.85475 0.46368 0.59542 0.0
C697 C 0.83649 0.44581 0.65426 0.0
C698 C 0.8366 0.56172 0.85884 0.0
C699 C 0.85444 0.5441 0.87901 0.0
H700 H 0.79421 0.6045 0.8454 0.0
C701 C 0.84193 0.55694 0.90174 0.0
H702 H 0.84555 0.55267 0.84107 0.0
C703 C 0.81207 0.58631 0.90425 0.0
C704 C 0.79444 0.60413 0.88408 0.0
H705 H 0.85485 0.54391 0.91768 0.0
H706 H 0.80305 0.59528 0.92202 0.0
C707 C 0.80724 0.59159 0.86134 0.0
C708 C 0.7009 0.59177 0.15174 0.0
C709 C 0.7137 0.60429 0.129 0.0
H710 H 0.66259 0.55288 0.17202 0.0
C711 C 0.69607 0.58645 0.10883 0.0
H712 H 0.71393 0.6047 0.16768 0.0
C713 C 0.66622 0.55707 0.11135 0.0
C714 C 0.6537 0.54426 0.13409 0.0
H715 H 0.7051 0.59539 0.09106 0.0
H716 H 0.6533 0.54403 0.09541 0.0
C717 C 0.67153 0.56191 0.15425 0.0
C718 C 0.69608 0.42129 0.40425 0.0
C719 C 0.71372 0.40346 0.38408 0.0
H720 H 0.65331 0.46369 0.41769 0.0
C721 C 0.70093 0.416 0.36135 0.0
H722 H 0.7051 0.41233 0.42202 0.0
C723 C 0.67157 0.44586 0.35884 0.0
C724 C 0.65372 0.46349 0.37901 0.0
H725 H 0.71397 0.40308 0.34541 0.0
H726 H 0.66263 0.4549 0.34107 0.0
C727 C 0.66623 0.45066 0.40175 0.0
C728 C 0.16626 0.55697 0.40177 0.0
C729 C 0.15375 0.54416 0.37904 0.0
H730 H 0.20513 0.5953 0.42206 0.0
C731 C 0.17159 0.5618 0.35887 0.0
H732 H 0.15333 0.54393 0.41771 0.0
C733 C 0.20095 0.59167 0.36138 0.0
C734 C 0.21375 0.60419 0.38412 0.0
H735 H 0.16265 0.55277 0.3411 0.0
H736 H 0.21399 0.60459 0.34544 0.0
C737 C 0.19611 0.58635 0.40428 0.0
C738 C 0.20087 0.41611 0.15179 0.0
C739 C 0.21368 0.40357 0.12906 0.0
H740 H 0.16257 0.45502 0.17207 0.0
C741 C 0.19604 0.4214 0.10889 0.0
H742 H 0.21391 0.4032 0.16774 0.0
C743 C 0.16619 0.45077 0.11139 0.0
C744 C 0.15367 0.4636 0.13413 0.0
H745 H 0.20507 0.41244 0.09112 0.0
H746 H 0.15327 0.4638 0.09545 0.0
C747 C 0.17151 0.44598 0.1543 0.0
C748 C 0.33658 0.4458 0.85887 0.0
C749 C 0.35441 0.46344 0.87903 0.0
H750 H 0.29418 0.40301 0.84545 0.0
C751 C 0.3419 0.45063 0.90177 0.0
H752 H 0.34552 0.45483 0.8411 0.0
C753 C 0.31204 0.42126 0.90429 0.0
C754 C 0.29441 0.40342 0.88412 0.0
H755 H 0.35482 0.46367 0.91771 0.0
H756 H 0.30302 0.41232 0.92206 0.0
C757 C 0.30721 0.41594 0.86138 0.0
C758 C 0.33651 0.56176 0.65428 0.0
C759 C 0.35435 0.54413 0.63411 0.0
H760 H 0.29411 0.60454 0.66771 0.0
C761 C 0.34184 0.55695 0.61137 0.0
H762 H 0.34545 0.55272 0.67205 0.0
C763 C 0.31199 0.58633 0.60887 0.0
C764 C 0.29435 0.60416 0.62904 0.0
H765 H 0.35476 0.54393 0.59543 0.0
H766 H 0.30297 0.59529 0.5911 0.0
C767 C 0.30715 0.59163 0.65177 0.0
C768 C 0.35599 0.17591 0.13884 0.0
C769 C 0.38722 0.1592 0.12509 0.0
H770 H 0.31382 0.22453 0.14285 0.0
C771 C 0.40052 0.18046 0.10488 0.0
H772 H 0.34503 0.16048 0.15453 0.0
C773 C 0.3829 0.2168 0.09831 0.0
C774 C 0.35127 0.23321 0.11166 0.0
H775 H 0.4247 0.169 0.09389 0.0
H776 H 0.39399 0.23187 0.08251 0.0
C777 C 0.3381 0.21256 0.13214 0.0
C778 C 0.08207 0.10586 0.38875 0.0
C779 C 0.0988 0.13706 0.375 0.0
H780 H 0.03343 0.06372 0.39277 0.0
C781 C 0.07755 0.15033 0.35477 0.0
H782 H 0.09749 0.09494 0.40446 0.0
C783 C 0.0412 0.1327 0.3482 0.0
C784 C 0.02477 0.1011 0.36156 0.0
H785 H 0.08902 0.17447 0.34377 0.0
H786 H 0.02614 0.14375 0.33239 0.0
C787 C 0.04541 0.08797 0.38205 0.0
C788 C 0.15203 0.83181 0.63882 0.0
C789 C 0.1208 0.84852 0.62508 0.0
H790 H 0.19419 0.78319 0.64283 0.0
C791 C 0.1075 0.82726 0.60486 0.0
H792 H 0.16298 0.84723 0.65452 0.0
C793 C 0.12513 0.79092 0.59829 0.0
C794 C 0.15676 0.77451 0.61164 0.0
H795 H 0.08333 0.83872 0.59387 0.0
H796 H 0.11405 0.77586 0.58249 0.0
C797 C 0.16992 0.79516 0.63212 0.0
C798 C 0.46698 0.87489 0.84821 0.0
C799 C 0.4834 0.90649 0.86157 0.0
H800 H 0.41916 0.8331 0.84378 0.0
C801 C 0.46276 0.91962 0.88206 0.0
H802 H 0.48204 0.86384 0.8324 0.0
C803 C 0.4261 0.90171 0.88877 0.0
C804 C 0.40937 0.87052 0.87502 0.0
H805 H 0.47474 0.94387 0.89278 0.0
H806 H 0.41068 0.91264 0.90448 0.0
C807 C 0.43063 0.85725 0.85478 0.0
C808 C 0.38294 0.79099 0.4149 0.0
C809 C 0.35132 0.77456 0.40154 0.0
H810 H 0.42472 0.8388 0.41933 0.0
C811 C 0.33817 0.7952 0.38106 0.0
H812 H 0.39401 0.77593 0.43071 0.0
C813 C 0.35607 0.83185 0.37436 0.0
C814 C 0.38728 0.84858 0.38811 0.0
H815 H 0.31391 0.78322 0.37034 0.0
H816 H 0.34512 0.84727 0.35866 0.0
C817 C 0.40056 0.82733 0.40833 0.0
C818 C 0.43058 0.15034 0.65829 0.0
C819 C 0.4093 0.13704 0.63807 0.0
H820 H 0.482 0.14378 0.68065 0.0
C821 C 0.42601 0.10582 0.62433 0.0
H822 H 0.41913 0.17451 0.66927 0.0
C823 C 0.46266 0.08792 0.63103 0.0
C824 C 0.48333 0.10107 0.65151 0.0
H825 H 0.41057 0.09487 0.60863 0.0
H826 H 0.47462 0.06365 0.62032 0.0
C827 C 0.46692 0.1327 0.66485 0.0
C828 C 0.10764 0.18025 0.90837 0.0
C829 C 0.12093 0.15901 0.88814 0.0
H830 H 0.11418 0.23166 0.93074 0.0
C831 C 0.15213 0.17575 0.87439 0.0
H832 H 0.08348 0.16877 0.91937 0.0
C833 C 0.17001 0.21241 0.88109 0.0
C834 C 0.15685 0.23304 0.90157 0.0
H835 H 0.16308 0.16033 0.85868 0.0
H836 H 0.19426 0.22439 0.87036 0.0
C837 C 0.12525 0.2166 0.91494 0.0
C838 C 0.07744 0.85737 0.15828 0.0
C839 C 0.09874 0.87066 0.13807 0.0
H840 H 0.02599 0.86392 0.18063 0.0
C841 C 0.08204 0.90189 0.12432 0.0
H842 H 0.08888 0.83319 0.16926 0.0
C843 C 0.04538 0.91979 0.13102 0.0
C844 C 0.0247 0.90663 0.15149 0.0
H845 H 0.0975 0.91284 0.10863 0.0
H846 H 0.03343 0.94407 0.12031 0.0
C847 C 0.04109 0.875 0.16484 0.0
C848 C 0.6252 0.7909 0.91482 0.0
C849 C 0.65684 0.77449 0.90147 0.0
H850 H 0.58339 0.83869 0.91924 0.0
C851 C 0.67001 0.79514 0.881 0.0
H852 H 0.61411 0.77583 0.93061 0.0
C853 C 0.65212 0.83179 0.8743 0.0
C854 C 0.62089 0.84851 0.88804 0.0
H855 H 0.69429 0.78318 0.87029 0.0
H856 H 0.66309 0.84722 0.8586 0.0
C857 C 0.60758 0.82724 0.90825 0.0
C858 C 0.96688 0.87493 0.66495 0.0
C859 C 0.98331 0.90652 0.65159 0.0
H860 H 0.91905 0.83315 0.66938 0.0
C861 C 0.96268 0.91964 0.6311 0.0
H862 H 0.98193 0.86388 0.68076 0.0
C863 C 0.92603 0.90174 0.62439 0.0
C864 C 0.90928 0.87055 0.63814 0.0
H865 H 0.97467 0.94389 0.62037 0.0
H866 H 0.91061 0.91267 0.60868 0.0
C867 C 0.93053 0.8573 0.65838 0.0
C868 C 0.88292 0.21669 0.41486 0.0
C869 C 0.85131 0.23311 0.4015 0.0
H870 H 0.92471 0.16888 0.41929 0.0
C871 C 0.83816 0.21246 0.38102 0.0
H872 H 0.89399 0.23175 0.43066 0.0
C873 C 0.85605 0.17581 0.37432 0.0
C874 C 0.88726 0.15909 0.38807 0.0
H875 H 0.8139 0.22443 0.3703 0.0
H876 H 0.84511 0.16039 0.35862 0.0
C877 C 0.90054 0.18034 0.4083 0.0
C878 C 0.57749 0.15044 0.15835 0.0
C879 C 0.59875 0.13718 0.13812 0.0
H880 H 0.52608 0.14386 0.18074 0.0
C881 C 0.58202 0.10598 0.12437 0.0
H882 H 0.58896 0.17459 0.16935 0.0
C883 C 0.54536 0.08808 0.13107 0.0
C884 C 0.52471 0.10121 0.15156 0.0
H885 H 0.59744 0.09505 0.10866 0.0
H886 H 0.53338 0.06383 0.12035 0.0
C887 C 0.54114 0.13281 0.16493 0.0
C888 C 0.62517 0.21661 0.5982 0.0
C889 C 0.65677 0.23305 0.61157 0.0
H890 H 0.5834 0.16879 0.59377 0.0
C891 C 0.66991 0.21242 0.63205 0.0
H892 H 0.61411 0.23166 0.58239 0.0
C893 C 0.65202 0.17577 0.63875 0.0
C894 C 0.62083 0.15902 0.625 0.0
H895 H 0.69416 0.22441 0.64278 0.0
H896 H 0.66296 0.16036 0.65446 0.0
C897 C 0.60755 0.18026 0.60477 0.0
C898 C 0.54119 0.87492 0.34826 0.0
C899 C 0.52478 0.90654 0.36161 0.0
H900 H 0.58899 0.83312 0.34384 0.0
C901 C 0.54543 0.91969 0.3821 0.0
H902 H 0.52612 0.86386 0.33246 0.0
C903 C 0.58208 0.90179 0.3888 0.0
C904 C 0.5988 0.87057 0.37506 0.0
H905 H 0.53346 0.94395 0.39281 0.0
H906 H 0.59751 0.91273 0.4045 0.0
C907 C 0.57754 0.85729 0.35483 0.0
C908 C 0.83812 0.7953 0.13204 0.0
C909 C 0.85127 0.77466 0.11156 0.0
H910 H 0.84505 0.84737 0.15445 0.0
C911 C 0.88288 0.7911 0.09819 0.0
H912 H 0.81386 0.78331 0.14276 0.0
C913 C 0.90049 0.82745 0.10476 0.0
C914 C 0.8872 0.84869 0.12499 0.0
H915 H 0.89395 0.77604 0.08239 0.0
H916 H 0.92465 0.83892 0.09376 0.0
C917 C 0.856 0.83195 0.13874 0.0
C918 C 0.96705 0.1327 0.84831 0.0
C919 C 0.98343 0.10106 0.86165 0.0
H920 H 0.91926 0.17451 0.84389 0.0
C921 C 0.96275 0.0879 0.88212 0.0
H922 H 0.98215 0.14378 0.83252 0.0
C923 C 0.92609 0.1058 0.88882 0.0
C924 C 0.9094 0.13703 0.87508 0.0
H925 H 0.97469 0.06362 0.89283 0.0
H926 H 0.91063 0.09484 0.90451 0.0
C927 C 0.9307 0.15033 0.85487 0.0
C928 C 0.88292 0.71666 0.59829 0.0
C929 C 0.85128 0.73307 0.61164 0.0
H930 H 0.92472 0.66886 0.59387 0.0
C931 C 0.8381 0.71241 0.63211 0.0
H932 H 0.89402 0.73173 0.58249 0.0
C933 C 0.85598 0.67576 0.6388 0.0
C934 C 0.88721 0.65904 0.62506 0.0
H935 H 0.81381 0.72437 0.64281 0.0
H936 H 0.84501 0.66032 0.6545 0.0
C937 C 0.90054 0.68031 0.60485 0.0
C938 C 0.5821 0.6058 0.88876 0.0
C939 C 0.59882 0.637 0.875 0.0
H940 H 0.53346 0.56365 0.89278 0.0
C941 C 0.57756 0.65026 0.85477 0.0
H942 H 0.59752 0.59487 0.90446 0.0
C943 C 0.54121 0.63263 0.84821 0.0
C944 C 0.52479 0.60103 0.86157 0.0
H945 H 0.58903 0.67442 0.84377 0.0
H946 H 0.52614 0.64369 0.8324 0.0
C947 C 0.54544 0.5879 0.88206 0.0
C948 C 0.65205 0.33195 0.13878 0.0
C949 C 0.62084 0.34868 0.12503 0.0
H950 H 0.6942 0.28332 0.1428 0.0
C951 C 0.60755 0.32742 0.10481 0.0
H952 H 0.663 0.34738 0.15448 0.0
C953 C 0.62516 0.29107 0.09824 0.0
C954 C 0.65678 0.27465 0.1116 0.0
H955 H 0.58338 0.33888 0.09381 0.0
H956 H 0.61409 0.276 0.08244 0.0
C957 C 0.66993 0.2953 0.13208 0.0
C958 C 0.93062 0.35731 0.35479 0.0
C959 C 0.90935 0.37058 0.37502 0.0
H960 H 0.98205 0.36389 0.33243 0.0
C961 C 0.92607 0.40178 0.38877 0.0
H962 H 0.91916 0.33316 0.34379 0.0
C963 C 0.96273 0.41968 0.38208 0.0
C964 C 0.98339 0.40655 0.36159 0.0
H965 H 0.91064 0.41272 0.40448 0.0
H966 H 0.9747 0.44394 0.3928 0.0
C967 C 0.96698 0.37494 0.34823 0.0
C968 C 0.90054 0.32729 0.90834 0.0
C969 C 0.88727 0.34852 0.8881 0.0
H970 H 0.89397 0.27589 0.93071 0.0
C971 C 0.85608 0.33178 0.87434 0.0
H972 H 0.92469 0.33876 0.91934 0.0
C973 C 0.83819 0.29513 0.88104 0.0
C974 C 0.85132 0.2745 0.90154 0.0
H975 H 0.84515 0.34718 0.85863 0.0
H976 H 0.81394 0.28314 0.87032 0.0
C977 C 0.88291 0.29094 0.9149 0.0
C978 C 0.96268 0.58807 0.13106 0.0
C979 C 0.98332 0.60121 0.15154 0.0
H980 H 0.91062 0.59504 0.10864 0.0
C981 C 0.9669 0.63283 0.16489 0.0
H982 H 0.97466 0.56381 0.12034 0.0
C983 C 0.93056 0.65046 0.15832 0.0
C984 C 0.90931 0.63719 0.13809 0.0
H985 H 0.98196 0.64389 0.1807 0.0
H986 H 0.91909 0.67463 0.16931 0.0
C987 C 0.92604 0.60597 0.12434 0.0
C988 C 0.60762 0.68031 0.40835 0.0
C989 C 0.6209 0.65907 0.38811 0.0
H990 H 0.61417 0.73171 0.43072 0.0
C991 C 0.6521 0.67581 0.37436 0.0
H992 H 0.58346 0.66884 0.41935 0.0
C993 C 0.66999 0.71246 0.38106 0.0
C994 C 0.65684 0.73309 0.40155 0.0
H995 H 0.66304 0.6604 0.35865 0.0
H996 H 0.69425 0.72445 0.37034 0.0
C997 C 0.62524 0.71666 0.41491 0.0
C998 C 0.582 0.40174 0.62432 0.0
C999 C 0.5987 0.37052 0.63806 0.0
H1000 H 0.53339 0.44391 0.62032 0.0
C1001 C 0.57742 0.35722 0.65828 0.0
H1002 H 0.59744 0.41269 0.60863 0.0
C1003 C 0.54107 0.37486 0.66485 0.0
C1004 C 0.52468 0.40649 0.65151 0.0
H1005 H 0.58887 0.33305 0.66927 0.0
H1006 H 0.52599 0.36378 0.68065 0.0
C1007 C 0.54534 0.41964 0.63103 0.0
C1008 C 0.15212 0.33185 0.37433 0.0
C1009 C 0.12088 0.34856 0.38807 0.0
H1010 H 0.19428 0.28323 0.37032 0.0
C1011 C 0.10756 0.32729 0.40828 0.0
H1012 H 0.16309 0.34728 0.35863 0.0
C1013 C 0.12518 0.29095 0.41485 0.0
C1014 C 0.15682 0.27454 0.4015 0.0
H1015 H 0.08338 0.33874 0.41927 0.0
H1016 H 0.11409 0.27587 0.43064 0.0
C1017 C 0.17 0.29519 0.38103 0.0
C1018 C 0.42602 0.4019 0.12437 0.0
C1019 C 0.4093 0.37069 0.13812 0.0
H1020 H 0.47465 0.44405 0.12034 0.0
C1021 C 0.43057 0.35742 0.15834 0.0
H1022 H 0.41059 0.41283 0.10866 0.0
C1023 C 0.46692 0.37505 0.1649 0.0
C1024 C 0.48334 0.40666 0.15154 0.0
H1025 H 0.41911 0.33326 0.16934 0.0
H1026 H 0.482 0.36399 0.1807 0.0
C1027 C 0.46268 0.41979 0.13106 0.0
C1028 C 0.33819 0.71239 0.88105 0.0
C1029 C 0.35136 0.73304 0.90153 0.0
H1030 H 0.34512 0.66032 0.85865 0.0
C1031 C 0.38298 0.71662 0.91488 0.0
H1032 H 0.31392 0.72436 0.87034 0.0
C1033 C 0.4006 0.68028 0.90831 0.0
C1034 C 0.3873 0.65902 0.88809 0.0
H1035 H 0.39406 0.73169 0.93067 0.0
H1036 H 0.42477 0.66882 0.9193 0.0
C1037 C 0.35608 0.67574 0.87434 0.0
C1038 C 0.04535 0.58793 0.63105 0.0
C1039 C 0.0247 0.60105 0.65154 0.0
H1040 H 0.09745 0.5949 0.60865 0.0
C1041 C 0.04111 0.63266 0.6649 0.0
H1042 H 0.03339 0.56367 0.62033 0.0
C1043 C 0.07747 0.65029 0.65834 0.0
C1044 C 0.09873 0.63703 0.63811 0.0
H1045 H 0.02604 0.64371 0.68071 0.0
H1046 H 0.08892 0.67445 0.66934 0.0
C1047 C 0.08201 0.60583 0.62435 0.0
C1048 C 0.15204 0.67591 0.13881 0.0
C1049 C 0.12083 0.65918 0.12506 0.0
H1050 H 0.1942 0.72453 0.14282 0.0
C1051 C 0.10755 0.68042 0.10483 0.0
H1052 H 0.16298 0.66049 0.15451 0.0
C1053 C 0.12518 0.71677 0.09826 0.0
C1054 C 0.15679 0.73319 0.11162 0.0
H1055 H 0.08338 0.66896 0.09383 0.0
H1056 H 0.11411 0.73182 0.08245 0.0
C1057 C 0.16993 0.71255 0.1321 0.0
C1058 C 0.08208 0.40173 0.88879 0.0
C1059 C 0.0988 0.37051 0.87505 0.0
H1060 H 0.03345 0.44389 0.89279 0.0
C1061 C 0.07754 0.35722 0.85483 0.0
H1062 H 0.0975 0.41267 0.90449 0.0
C1063 C 0.04119 0.37485 0.84825 0.0
C1064 C 0.02478 0.40648 0.8616 0.0
H1065 H 0.089 0.33305 0.84384 0.0
H1066 H 0.02613 0.36378 0.83245 0.0
C1067 C 0.04542 0.41962 0.88208 0.0
C1068 C 0.33809 0.29515 0.63207 0.0
C1069 C 0.35124 0.27451 0.61159 0.0
H1070 H 0.34503 0.34721 0.65448 0.0
C1071 C 0.38284 0.29095 0.59822 0.0
H1072 H 0.31383 0.28316 0.6428 0.0
C1073 C 0.40046 0.3273 0.60479 0.0
C1074 C 0.38718 0.34854 0.62502 0.0
H1075 H 0.39391 0.2759 0.58241 0.0
H1076 H 0.42461 0.33877 0.59379 0.0
C1077 C 0.35597 0.3318 0.63877 0.0
C1078 C 0.46273 0.58798 0.38209 0.0
C1079 C 0.4834 0.60113 0.36162 0.0
H1080 H 0.41063 0.59492 0.40449 0.0
C1081 C 0.467 0.63276 0.34827 0.0
H1082 H 0.47468 0.5637 0.3928 0.0
C1083 C 0.43065 0.65039 0.35484 0.0
C1084 C 0.40937 0.6371 0.37506 0.0
H1085 H 0.48208 0.64384 0.33247 0.0
H1086 H 0.4192 0.67457 0.34385 0.0
C1087 C 0.42607 0.60588 0.3888 0.0
loop_
_geom_bond_atom_site_label_1
_geom_bond_atom_site_label_2
_geom_bond_distance
_geom_bond_site_symmetry_2
_ccdc_geom_bond_type
Co0 O1 2.216 . S
Co0 O2 2.091 . S
Co0 O4 2.004 . S
Co0 O10 2.021 . S
Co0 O12 2.137 . S
Co0 O13 2.244 . S
O1 Co0 2.216 . S
O1 C8 1.247 . S
O2 Co0 2.091 . S
O2 C8 1.261 . S
C3 O12 1.247 . S
C3 O13 1.272 . S
O4 Co0 2.004 . S
O4 C9 1.259 . S
Co5 O6 2.061 . S
Co5 O11 2.052 . S
Co5 O13 2.135 . S
O6 Co5 2.061 . S
O6 C9 1.235 . S
C7 O10 1.238 . S
C7 O11 1.241 . S
C8 O1 1.247 . S
C8 O2 1.261 . S
C9 O4 1.259 . S
C9 O6 1.235 . S
O10 Co0 2.021 . S
O10 C7 1.238 . S
O11 Co5 2.052 . S
O11 C7 1.241 . S
O12 Co0 2.137 . S
O12 C3 1.247 . S
O13 Co0 2.244 . S
O13 C3 1.272 . S
O13 Co5 2.135 . S
Co14 O15 2.216 . S
Co14 O16 2.091 . S
Co14 O18 2.004 . S
Co14 O24 2.021 . S
Co14 O26 2.137 . S
Co14 O27 2.244 . S
O15 Co14 2.216 . S
O15 C22 1.247 . S
O16 Co14 2.091 . S
O16 C22 1.261 . S
C17 O26 1.247 . S
C17 O27 1.272 . S
O18 Co14 2.004 . S
O18 C23 1.259 . S
Co19 O20 2.061 . S
Co19 O25 2.052 . S
Co19 O27 2.135 . S
O20 Co19 2.061 . S
O20 C23 1.235 . S
C21 O24 1.238 . S
C21 O25 1.241 . S
C22 O15 1.247 . S
C22 O16 1.261 . S
C23 O18 1.259 . S
C23 O20 1.235 . S
O24 Co14 2.021 . S
O24 C21 1.238 . S
O25 Co19 2.052 . S
O25 C21 1.241 . S
O26 Co14 2.137 . S
O26 C17 1.247 . S
O27 Co14 2.244 . S
O27 C17 1.272 . S
O27 Co19 2.135 . S
Co28 O29 2.216 . S
Co28 O30 2.091 . S
Co28 O32 2.004 . S
Co28 O38 2.021 . S
Co28 O40 2.137 . S
Co28 O41 2.244 . S
O29 Co28 2.216 . S
O29 C36 1.247 . S
O30 Co28 2.091 . S
O30 C36 1.261 . S
C31 O40 1.247 . S
C31 O41 1.272 . S
O32 Co28 2.004 . S
O32 C37 1.259 . S
Co33 O34 2.061 . S
Co33 O39 2.052 . S
Co33 O41 2.135 . S
O34 Co33 2.061 . S
O34 C37 1.235 . S
C35 O38 1.238 . S
C35 O39 1.241 . S
C36 O29 1.247 . S
C36 O30 1.261 . S
C37 O32 1.259 . S
C37 O34 1.235 . S
O38 Co28 2.021 . S
O38 C35 1.238 . S
O39 Co33 2.052 . S
O39 C35 1.241 . S
O40 Co28 2.137 . S
O40 C31 1.247 . S
O41 Co28 2.244 . S
O41 C31 1.272 . S
O41 Co33 2.135 . S
Co42 O43 2.216 . S
Co42 O44 2.091 . S
Co42 O46 2.004 . S
Co42 O52 2.021 . S
Co42 O54 2.137 . S
Co42 O55 2.244 . S
O43 Co42 2.216 . S
O43 C50 1.247 . S
O44 Co42 2.091 . S
O44 C50 1.261 . S
C45 O54 1.247 . S
C45 O55 1.272 . S
O46 Co42 2.004 . S
O46 C51 1.259 . S
Co47 O48 2.061 . S
Co47 O53 2.052 . S
Co47 O55 2.135 . S
O48 Co47 2.061 . S
O48 C51 1.235 . S
C49 O52 1.238 . S
C49 O53 1.241 . S
C50 O43 1.247 . S
C50 O44 1.261 . S
C51 O46 1.259 . S
C51 O48 1.235 . S
O52 Co42 2.021 . S
O52 C49 1.238 . S
O53 Co47 2.052 . S
O53 C49 1.241 . S
O54 Co42 2.137 . S
O54 C45 1.247 . S
O55 Co42 2.244 . S
O55 C45 1.272 . S
O55 Co47 2.135 . S
Co56 O57 2.216 . S
Co56 O58 2.091 . S
Co56 O60 2.004 . S
Co56 O66 2.021 . S
Co56 O68 2.137 . S
Co56 O69 2.244 . S
O57 Co56 2.216 . S
O57 C64 1.247 . S
O58 Co56 2.091 . S
O58 C64 1.261 . S
C59 O68 1.247 . S
C59 O69 1.272 . S
O60 Co56 2.004 . S
O60 C65 1.259 . S
Co61 O62 2.061 . S
Co61 O67 2.052 . S
Co61 O69 2.135 . S
O62 Co61 2.061 . S
O62 C65 1.235 . S
C63 O66 1.238 . S
C63 O67 1.241 . S
C64 O57 1.247 . S
C64 O58 1.261 . S
C65 O60 1.259 . S
C65 O62 1.235 . S
O66 Co56 2.021 . S
O66 C63 1.238 . S
O67 Co61 2.052 . S
O67 C63 1.241 . S
O68 Co56 2.137 . S
O68 C59 1.247 . S
O69 Co56 2.244 . S
O69 C59 1.272 . S
O69 Co61 2.135 . S
Co70 O71 2.216 . S
Co70 O72 2.091 . S
Co70 O74 2.004 . S
Co70 O80 2.021 . S
Co70 O82 2.137 . S
Co70 O83 2.244 . S
O71 Co70 2.216 . S
O71 C78 1.247 . S
O72 Co70 2.091 . S
O72 C78 1.261 . S
C73 O82 1.247 . S
C73 O83 1.272 . S
O74 Co70 2.004 . S
O74 C79 1.259 . S
Co75 O76 2.061 . S
Co75 O81 2.052 . S
Co75 O83 2.135 . S
O76 Co75 2.061 . S
O76 C79 1.235 . S
C77 O80 1.238 . S
C77 O81 1.241 . S
C78 O71 1.247 . S
C78 O72 1.261 . S
C79 O74 1.259 . S
C79 O76 1.235 . S
O80 Co70 2.021 . S
O80 C77 1.238 . S
O81 Co75 2.052 . S
O81 C77 1.241 . S
O82 Co70 2.137 . S
O82 C73 1.247 . S
O83 Co70 2.244 . S
O83 C73 1.272 . S
O83 Co75 2.135 . S
Co84 O85 2.216 . S
Co84 O86 2.091 . S
Co84 O88 2.004 . S
Co84 O94 2.021 . S
Co84 O96 2.137 . S
Co84 O97 2.244 . S
O85 Co84 2.216 . S
O85 C92 1.247 . S
O86 Co84 2.091 . S
O86 C92 1.261 . S
C87 O96 1.247 . S
C87 O97 1.272 . S
O88 Co84 2.004 . S
O88 C93 1.259 . S
Co89 O90 2.061 . S
Co89 O95 2.052 . S
Co89 O97 2.135 . S
O90 Co89 2.061 . S
O90 C93 1.235 . S
C91 O94 1.238 . S
C91 O95 1.241 . S
C92 O85 1.247 . S
C92 O86 1.261 . S
C93 O88 1.259 . S
C93 O90 1.235 . S
O94 Co84 2.021 . S
O94 C91 1.238 . S
O95 Co89 2.052 . S
O95 C91 1.241 . S
O96 Co84 2.137 . S
O96 C87 1.247 . S
O97 Co84 2.244 . S
O97 C87 1.272 . S
O97 Co89 2.135 . S
Co98 O99 2.216 . S
Co98 O100 2.091 . S
Co98 O102 2.004 . S
Co98 O108 2.021 . S
Co98 O110 2.137 . S
Co98 O111 2.244 . S
O99 Co98 2.216 . S
O99 C106 1.247 . S
O100 Co98 2.091 . S
O100 C106 1.261 . S
C101 O110 1.247 . S
C101 O111 1.272 . S
O102 Co98 2.004 . S
O102 C107 1.259 . S
Co103 O104 2.061 . S
Co103 O109 2.052 . S
Co103 O111 2.135 . S
O104 Co103 2.061 . S
O104 C107 1.235 . S
C105 O108 1.238 . S
C105 O109 1.241 . S
C106 O99 1.247 . S
C106 O100 1.261 . S
C107 O102 1.259 . S
C107 O104 1.235 . S
O108 Co98 2.021 . S
O108 C105 1.238 . S
O109 Co103 2.052 . S
O109 C105 1.241 . S
O110 Co98 2.137 . S
O110 C101 1.247 . S
O111 Co98 2.244 . S
O111 C101 1.272 . S
O111 Co103 2.135 . S
Co112 O113 2.216 . S
Co112 O114 2.091 . S
Co112 O116 2.004 . S
Co112 O122 2.021 . S
Co112 O124 2.137 . S
Co112 O125 2.244 . S
O113 Co112 2.216 . S
O113 C120 1.247 . S
O114 Co112 2.091 . S
O114 C120 1.261 . S
C115 O124 1.247 . S
C115 O125 1.272 . S
O116 Co112 2.004 . S
O116 C121 1.259 . S
Co117 O118 2.061 . S
Co117 O123 2.052 . S
Co117 O125 2.135 . S
O118 Co117 2.061 . S
O118 C121 1.235 . S
C119 O122 1.238 . S
C119 O123 1.241 . S
C120 O113 1.247 . S
C120 O114 1.261 . S
C121 O116 1.259 . S
C121 O118 1.235 . S
O122 Co112 2.021 . S
O122 C119 1.238 . S
O123 Co117 2.052 . S
O123 C119 1.241 . S
O124 Co112 2.137 . S
O124 C115 1.247 . S
O125 Co112 2.244 . S
O125 C115 1.272 . S
O125 Co117 2.135 . S
Co126 O127 2.216 . S
Co126 O128 2.091 . S
Co126 O130 2.004 . S
Co126 O136 2.021 . S
Co126 O138 2.137 . S
Co126 O139 2.244 . S
O127 Co126 2.216 . S
O127 C134 1.247 . S
O128 Co126 2.091 . S
O128 C134 1.261 . S
C129 O138 1.247 . S
C129 O139 1.272 . S
O130 Co126 2.004 . S
O130 C135 1.259 . S
Co131 O132 2.061 . S
Co131 O137 2.052 . S
Co131 O139 2.135 . S
O132 Co131 2.061 . S
O132 C135 1.235 . S
C133 O136 1.238 . S
C133 O137 1.241 . S
C134 O127 1.247 . S
C134 O128 1.261 . S
C135 O130 1.259 . S
C135 O132 1.235 . S
O136 Co126 2.021 . S
O136 C133 1.238 . S
O137 Co131 2.052 . S
O137 C133 1.241 . S
O138 Co126 2.137 . S
O138 C129 1.247 . S
O139 Co126 2.244 . S
O139 C129 1.272 . S
O139 Co131 2.135 . S
Co140 O141 2.216 . S
Co140 O142 2.091 . S
Co140 O144 2.004 . S
Co140 O150 2.021 . S
Co140 O152 2.137 . S
Co140 O153 2.244 . S
O141 Co140 2.216 . S
O141 C148 1.247 . S
O142 Co140 2.091 . S
O142 C148 1.261 . S
C143 O152 1.247 . S
C143 O153 1.272 . S
O144 Co140 2.004 . S
O144 C149 1.259 . S
Co145 O146 2.061 . S
Co145 O151 2.052 . S
Co145 O153 2.135 . S
O146 Co145 2.061 . S
O146 C149 1.235 . S
C147 O150 1.238 . S
C147 O151 1.241 . S
C148 O141 1.247 . S
C148 O142 1.261 . S
C149 O144 1.259 . S
C149 O146 1.235 . S
O150 Co140 2.021 . S
O150 C147 1.238 . S
O151 Co145 2.052 . S
O151 C147 1.241 . S
O152 Co140 2.137 . S
O152 C143 1.247 . S
O153 Co140 2.244 . S
O153 C143 1.272 . S
O153 Co145 2.135 . S
Co154 O155 2.216 . S
Co154 O156 2.091 . S
Co154 O158 2.004 . S
Co154 O164 2.021 . S
Co154 O166 2.137 . S
Co154 O167 2.244 . S
O155 Co154 2.216 . S
O155 C162 1.247 . S
O156 Co154 2.091 . S
O156 C162 1.261 . S
C157 O166 1.247 . S
C157 O167 1.272 . S
O158 Co154 2.004 . S
O158 C163 1.259 . S
Co159 O160 2.061 . S
Co159 O165 2.052 . S
Co159 O167 2.135 . S
O160 Co159 2.061 . S
O160 C163 1.235 . S
C161 O164 1.238 . S
C161 O165 1.241 . S
C162 O155 1.247 . S
C162 O156 1.261 . S
C163 O158 1.259 . S
C163 O160 1.235 . S
O164 Co154 2.021 . S
O164 C161 1.238 . S
O165 Co159 2.052 . S
O165 C161 1.241 . S
O166 Co154 2.137 . S
O166 C157 1.247 . S
O167 Co154 2.244 . S
O167 C157 1.272 . S
O167 Co159 2.135 . S
Co168 O169 2.216 . S
Co168 O170 2.091 . S
Co168 O172 2.004 . S
Co168 O178 2.021 . S
Co168 O180 2.137 . S
Co168 O181 2.244 . S
O169 Co168 2.216 . S
O169 C176 1.247 . S
O170 Co168 2.091 . S
O170 C176 1.261 . S
C171 O180 1.247 . S
C171 O181 1.272 . S
O172 Co168 2.004 . S
O172 C177 1.259 . S
Co173 O174 2.061 . S
Co173 O179 2.052 . S
Co173 O181 2.135 . S
O174 Co173 2.061 . S
O174 C177 1.235 . S
C175 O178 1.238 . S
C175 O179 1.241 . S
C176 O169 1.247 . S
C176 O170 1.261 . S
C177 O172 1.259 . S
C177 O174 1.235 . S
O178 Co168 2.021 . S
O178 C175 1.238 . S
O179 Co173 2.052 . S
O179 C175 1.241 . S
O180 Co168 2.137 . S
O180 C171 1.247 . S
O181 Co168 2.244 . S
O181 C171 1.272 . S
O181 Co173 2.135 . S
Co182 O183 2.216 . S
Co182 O184 2.091 . S
Co182 O186 2.004 . S
Co182 O192 2.021 . S
Co182 O194 2.137 . S
Co182 O195 2.244 . S
O183 Co182 2.216 . S
O183 C190 1.247 . S
O184 Co182 2.091 . S
O184 C190 1.261 . S
C185 O194 1.247 . S
C185 O195 1.272 . S
O186 Co182 2.004 . S
O186 C191 1.259 . S
Co187 O188 2.061 . S
Co187 O193 2.052 . S
Co187 O195 2.135 . S
O188 Co187 2.061 . S
O188 C191 1.235 . S
C189 O192 1.238 . S
C189 O193 1.241 . S
C190 O183 1.247 . S
C190 O184 1.261 . S
C191 O186 1.259 . S
C191 O188 1.235 . S
O192 Co182 2.021 . S
O192 C189 1.238 . S
O193 Co187 2.052 . S
O193 C189 1.241 . S
O194 Co182 2.137 . S
O194 C185 1.247 . S
O195 Co182 2.244 . S
O195 C185 1.272 . S
O195 Co187 2.135 . S
Co196 O197 2.216 . S
Co196 O198 2.091 . S
Co196 O200 2.004 . S
Co196 O206 2.021 . S
Co196 O208 2.137 . S
Co196 O209 2.244 . S
O197 Co196 2.216 . S
O197 C204 1.247 . S
O198 Co196 2.091 . S
O198 C204 1.261 . S
C199 O208 1.247 . S
C199 O209 1.272 . S
O200 Co196 2.004 . S
O200 C205 1.259 . S
Co201 O202 2.061 . S
Co201 O207 2.052 . S
Co201 O209 2.135 . S
O202 Co201 2.061 . S
O202 C205 1.235 . S
C203 O206 1.238 . S
C203 O207 1.241 . S
C204 O197 1.247 . S
C204 O198 1.261 . S
C205 O200 1.259 . S
C205 O202 1.235 . S
O206 Co196 2.021 . S
O206 C203 1.238 . S
O207 Co201 2.052 . S
O207 C203 1.241 . S
O208 Co196 2.137 . S
O208 C199 1.247 . S
O209 Co196 2.244 . S
O209 C199 1.272 . S
O209 Co201 2.135 . S
Co210 O211 2.216 . S
Co210 O212 2.091 . S
Co210 O214 2.004 . S
Co210 O220 2.021 . S
Co210 O222 2.137 . S
Co210 O223 2.244 . S
O211 Co210 2.216 . S
O211 C218 1.247 . S
O212 Co210 2.091 . S
O212 C218 1.261 . S
C213 O222 1.247 . S
C213 O223 1.272 . S
O214 Co210 2.004 . S
O214 C219 1.259 . S
Co215 O216 2.061 . S
Co215 O221 2.052 . S
Co215 O223 2.135 . S
O216 Co215 2.061 . S
O216 C219 1.235 . S
C217 O220 1.238 . S
C217 O221 1.241 . S
C218 O211 1.247 . S
C218 O212 1.261 . S
C219 O214 1.259 . S
C219 O216 1.235 . S
O220 Co210 2.021 . S
O220 C217 1.238 . S
O221 Co215 2.052 . S
O221 C217 1.241 . S
O222 Co210 2.137 . S
O222 C213 1.247 . S
O223 Co210 2.244 . S
O223 C213 1.272 . S
O223 Co215 2.135 . S
Co224 O225 2.216 . S
Co224 O226 2.091 . S
Co224 O228 2.004 . S
Co224 O234 2.021 . S
Co224 O236 2.137 . S
Co224 O237 2.244 . S
O225 Co224 2.216 . S
O225 C232 1.247 . S
O226 Co224 2.091 . S
O226 C232 1.261 . S
C227 O236 1.247 . S
C227 O237 1.272 . S
O228 Co224 2.004 . S
O228 C233 1.259 . S
Co229 O230 2.061 . S
Co229 O235 2.052 . S
Co229 O237 2.135 . S
O230 Co229 2.061 . S
O230 C233 1.235 . S
C231 O234 1.238 . S
C231 O235 1.241 . S
C232 O225 1.247 . S
C232 O226 1.261 . S
C233 O228 1.259 . S
C233 O230 1.235 . S
O234 Co224 2.021 . S
O234 C231 1.238 . S
O235 Co229 2.052 . S
O235 C231 1.241 . S
O236 Co224 2.137 . S
O236 C227 1.247 . S
O237 Co224 2.244 . S
O237 C227 1.272 . S
O237 Co229 2.135 . S
Co238 O239 2.216 . S
Co238 O240 2.091 . S
Co238 O242 2.004 . S
Co238 O248 2.021 . S
Co238 O250 2.137 . S
Co238 O251 2.244 . S
O239 Co238 2.216 . S
O239 C246 1.247 . S
O240 Co238 2.091 . S
O240 C246 1.261 . S
C241 O250 1.247 . S
C241 O251 1.272 . S
O242 Co238 2.004 . S
O242 C247 1.259 . S
Co243 O244 2.061 . S
Co243 O249 2.052 . S
Co243 O251 2.135 . S
O244 Co243 2.061 . S
O244 C247 1.235 . S
C245 O248 1.238 . S
C245 O249 1.241 . S
C246 O239 1.247 . S
C246 O240 1.261 . S
C247 O242 1.259 . S
C247 O244 1.235 . S
O248 Co238 2.021 . S
O248 C245 1.238 . S
O249 Co243 2.052 . S
O249 C245 1.241 . S
O250 Co238 2.137 . S
O250 C241 1.247 . S
O251 Co238 2.244 . S
O251 C241 1.272 . S
O251 Co243 2.135 . S
Co252 O253 2.216 . S
Co252 O254 2.091 . S
Co252 O256 2.004 . S
Co252 O262 2.021 . S
Co252 O264 2.137 . S
Co252 O265 2.244 . S
O253 Co252 2.216 . S
O253 C260 1.247 . S
O254 Co252 2.091 . S
O254 C260 1.261 . S
C255 O264 1.247 . S
C255 O265 1.272 . S
O256 Co252 2.004 . S
O256 C261 1.259 . S
Co257 O258 2.061 . S
Co257 O263 2.052 . S
Co257 O265 2.135 . S
O258 Co257 2.061 . S
O258 C261 1.235 . S
C259 O262 1.238 . S
C259 O263 1.241 . S
C260 O253 1.247 . S
C260 O254 1.261 . S
C261 O256 1.259 . S
C261 O258 1.235 . S
O262 Co252 2.021 . S
O262 C259 1.238 . S
O263 Co257 2.052 . S
O263 C259 1.241 . S
O264 Co252 2.137 . S
O264 C255 1.247 . S
O265 Co252 2.244 . S
O265 C255 1.272 . S
O265 Co257 2.135 . S
Co266 O267 2.216 . S
Co266 O268 2.091 . S
Co266 O270 2.004 . S
Co266 O276 2.021 . S
Co266 O278 2.137 . S
Co266 O279 2.244 . S
O267 Co266 2.216 . S
O267 C274 1.247 . S
O268 Co266 2.091 . S
O268 C274 1.261 . S
C269 O278 1.247 . S
C269 O279 1.272 . S
O270 Co266 2.004 . S
O270 C275 1.259 . S
Co271 O272 2.061 . S
Co271 O277 2.052 . S
Co271 O279 2.135 . S
O272 Co271 2.061 . S
O272 C275 1.235 . S
C273 O276 1.238 . S
C273 O277 1.241 . S
C274 O267 1.247 . S
C274 O268 1.261 . S
C275 O270 1.259 . S
C275 O272 1.235 . S
O276 Co266 2.021 . S
O276 C273 1.238 . S
O277 Co271 2.052 . S
O277 C273 1.241 . S
O278 Co266 2.137 . S
O278 C269 1.247 . S
O279 Co266 2.244 . S
O279 C269 1.272 . S
O279 Co271 2.135 . S
Co280 O281 2.216 . S
Co280 O282 2.091 . S
Co280 O284 2.004 . S
Co280 O290 2.021 . S
Co280 O292 2.137 . S
Co280 O293 2.244 . S
O281 Co280 2.216 . S
O281 C288 1.247 . S
O282 Co280 2.091 . S
O282 C288 1.261 . S
C283 O292 1.247 . S
C283 O293 1.272 . S
O284 Co280 2.004 . S
O284 C289 1.259 . S
Co285 O286 2.061 . S
Co285 O291 2.052 . S
Co285 O293 2.135 . S
O286 Co285 2.061 . S
O286 C289 1.235 . S
C287 O290 1.238 . S
C287 O291 1.241 . S
C288 O281 1.247 . S
C288 O282 1.261 . S
C289 O284 1.259 . S
C289 O286 1.235 . S
O290 Co280 2.021 . S
O290 C287 1.238 . S
O291 Co285 2.052 . S
O291 C287 1.241 . S
O292 Co280 2.137 . S
O292 C283 1.247 . S
O293 Co280 2.244 . S
O293 C283 1.272 . S
O293 Co285 2.135 . S
Co294 O295 2.216 . S
Co294 O296 2.091 . S
Co294 O298 2.004 . S
Co294 O304 2.021 . S
Co294 O306 2.137 . S
Co294 O307 2.244 . S
O295 Co294 2.216 . S
O295 C302 1.247 . S
O296 Co294 2.091 . S
O296 C302 1.261 . S
C297 O306 1.247 . S
C297 O307 1.272 . S
O298 Co294 2.004 . S
O298 C303 1.259 . S
Co299 O300 2.061 . S
Co299 O305 2.052 . S
Co299 O307 2.135 . S
O300 Co299 2.061 . S
O300 C303 1.235 . S
C301 O304 1.238 . S
C301 O305 1.241 . S
C302 O295 1.247 . S
C302 O296 1.261 . S
C303 O298 1.259 . S
C303 O300 1.235 . S
O304 Co294 2.021 . S
O304 C301 1.238 . S
O305 Co299 2.052 . S
O305 C301 1.241 . S
O306 Co294 2.137 . S
O306 C297 1.247 . S
O307 Co294 2.244 . S
O307 C297 1.272 . S
O307 Co299 2.135 . S
Co308 O309 2.216 . S
Co308 O310 2.091 . S
Co308 O312 2.004 . S
Co308 O318 2.021 . S
Co308 O320 2.137 . S
Co308 O321 2.244 . S
O309 Co308 2.216 . S
O309 C316 1.247 . S
O310 Co308 2.091 . S
O310 C316 1.261 . S
C311 O320 1.247 . S
C311 O321 1.272 . S
O312 Co308 2.004 . S
O312 C317 1.259 . S
Co313 O314 2.061 . S
Co313 O319 2.052 . S
Co313 O321 2.135 . S
O314 Co313 2.061 . S
O314 C317 1.235 . S
C315 O318 1.238 . S
C315 O319 1.241 . S
C316 O309 1.247 . S
C316 O310 1.261 . S
C317 O312 1.259 . S
C317 O314 1.235 . S
O318 Co308 2.021 . S
O318 C315 1.238 . S
O319 Co313 2.052 . S
O319 C315 1.241 . S
O320 Co308 2.137 . S
O320 C311 1.247 . S
O321 Co308 2.244 . S
O321 C311 1.272 . S
O321 Co313 2.135 . S
Co322 O323 2.216 . S
Co322 O324 2.091 . S
Co322 O326 2.004 . S
Co322 O332 2.021 . S
Co322 O334 2.137 . S
Co322 O335 2.244 . S
O323 Co322 2.216 . S
O323 C330 1.247 . S
O324 Co322 2.091 . S
O324 C330 1.261 . S
C325 O334 1.247 . S
C325 O335 1.272 . S
O326 Co322 2.004 . S
O326 C331 1.259 . S
Co327 O328 2.061 . S
Co327 O333 2.052 . S
Co327 O335 2.135 . S
O328 Co327 2.061 . S
O328 C331 1.235 . S
C329 O332 1.238 . S
C329 O333 1.241 . S
C330 O323 1.247 . S
C330 O324 1.261 . S
C331 O326 1.259 . S
C331 O328 1.235 . S
O332 Co322 2.021 . S
O332 C329 1.238 . S
O333 Co327 2.052 . S
O333 C329 1.241 . S
O334 Co322 2.137 . S
O334 C325 1.247 . S
O335 Co322 2.244 . S
O335 C325 1.272 . S
O335 Co327 2.135 . S
Co336 O337 2.216 . S
Co336 O338 2.091 . S
Co336 O340 2.004 . S
Co336 O346 2.021 . S
Co336 O348 2.137 . S
Co336 O349 2.244 . S
O337 Co336 2.216 . S
O337 C344 1.247 . S
O338 Co336 2.091 . S
O338 C344 1.261 . S
C339 O348 1.247 . S
C339 O349 1.272 . S
O340 Co336 2.004 . S
O340 C345 1.259 . S
Co341 O342 2.061 . S
Co341 O347 2.052 . S
Co341 O349 2.135 . S
O342 Co341 2.061 . S
O342 C345 1.235 . S
C343 O346 1.238 . S
C343 O347 1.241 . S
C344 O337 1.247 . S
C344 O338 1.261 . S
C345 O340 1.259 . S
C345 O342 1.235 . S
O346 Co336 2.021 . S
O346 C343 1.238 . S
O347 Co341 2.052 . S
O347 C343 1.241 . S
O348 Co336 2.137 . S
O348 C339 1.247 . S
O349 Co336 2.244 . S
O349 C339 1.272 . S
O349 Co341 2.135 . S
Co350 O351 2.216 . S
Co350 O352 2.091 . S
Co350 O354 2.004 . S
Co350 O360 2.021 . S
Co350 O362 2.137 . S
Co350 O363 2.244 . S
O351 Co350 2.216 . S
O351 C358 1.247 . S
O352 Co350 2.091 . S
O352 C358 1.261 . S
C353 O362 1.247 . S
C353 O363 1.272 . S
O354 Co350 2.004 . S
O354 C359 1.259 . S
Co355 O356 2.061 . S
Co355 O361 2.052 . S
Co355 O363 2.135 . S
O356 Co355 2.061 . S
O356 C359 1.235 . S
C357 O360 1.238 . S
C357 O361 1.241 . S
C358 O351 1.247 . S
C358 O352 1.261 . S
C359 O354 1.259 . S
C359 O356 1.235 . S
O360 Co350 2.021 . S
O360 C357 1.238 . S
O361 Co355 2.052 . S
O361 C357 1.241 . S
O362 Co350 2.137 . S
O362 C353 1.247 . S
O363 Co350 2.244 . S
O363 C353 1.272 . S
O363 Co355 2.135 . S
Co364 O365 2.216 . S
Co364 O366 2.091 . S
Co364 O368 2.004 . S
Co364 O374 2.021 . S
Co364 O376 2.137 . S
Co364 O377 2.244 . S
O365 Co364 2.216 . S
O365 C372 1.247 . S
O366 Co364 2.091 . S
O366 C372 1.261 . S
C367 O376 1.247 . S
C367 O377 1.272 . S
O368 Co364 2.004 . S
O368 C373 1.259 . S
Co369 O370 2.061 . S
Co369 O375 2.052 . S
Co369 O377 2.135 . S
O370 Co369 2.061 . S
O370 C373 1.235 . S
C371 O374 1.238 . S
C371 O375 1.241 . S
C372 O365 1.247 . S
C372 O366 1.261 . S
C373 O368 1.259 . S
C373 O370 1.235 . S
O374 Co364 2.021 . S
O374 C371 1.238 . S
O375 Co369 2.052 . S
O375 C371 1.241 . S
O376 Co364 2.137 . S
O376 C367 1.247 . S
O377 Co364 2.244 . S
O377 C367 1.272 . S
O377 Co369 2.135 . S
Co378 O379 2.216 . S
Co378 O380 2.091 . S
Co378 O382 2.004 . S
Co378 O388 2.021 . S
Co378 O390 2.137 . S
Co378 O391 2.244 . S
O379 Co378 2.216 . S
O379 C386 1.247 . S
O380 Co378 2.091 . S
O380 C386 1.261 . S
C381 O390 1.247 . S
C381 O391 1.272 . S
O382 Co378 2.004 . S
O382 C387 1.259 . S
Co383 O384 2.061 . S
Co383 O389 2.052 . S
Co383 O391 2.135 . S
O384 Co383 2.061 . S
O384 C387 1.235 . S
C385 O388 1.238 . S
C385 O389 1.241 . S
C386 O379 1.247 . S
C386 O380 1.261 . S
C387 O382 1.259 . S
C387 O384 1.235 . S
O388 Co378 2.021 . S
O388 C385 1.238 . S
O389 Co383 2.052 . S
O389 C385 1.241 . S
O390 Co378 2.137 . S
O390 C381 1.247 . S
O391 Co378 2.244 . S
O391 C381 1.272 . S
O391 Co383 2.135 . S
Co392 O393 2.216 . S
Co392 O394 2.091 . S
Co392 O396 2.004 . S
Co392 O402 2.021 . S
Co392 O404 2.137 . S
Co392 O405 2.244 . S
O393 Co392 2.216 . S
O393 C400 1.247 . S
O394 Co392 2.091 . S
O394 C400 1.261 . S
C395 O404 1.247 . S
C395 O405 1.272 . S
O396 Co392 2.004 . S
O396 C401 1.259 . S
Co397 O398 2.061 . S
Co397 O403 2.052 . S
Co397 O405 2.135 . S
O398 Co397 2.061 . S
O398 C401 1.235 . S
C399 O402 1.238 . S
C399 O403 1.241 . S
C400 O393 1.247 . S
C400 O394 1.261 . S
C401 O396 1.259 . S
C401 O398 1.235 . S
O402 Co392 2.021 . S
O402 C399 1.238 . S
O403 Co397 2.052 . S
O403 C399 1.241 . S
O404 Co392 2.137 . S
O404 C395 1.247 . S
O405 Co392 2.244 . S
O405 C395 1.272 . S
O405 Co397 2.135 . S
Co406 O407 2.216 . S
Co406 O408 2.091 . S
Co406 O410 2.004 . S
Co406 O416 2.021 . S
Co406 O418 2.137 . S
Co406 O419 2.244 . S
O407 Co406 2.216 . S
O407 C414 1.247 . S
O408 Co406 2.091 . S
O408 C414 1.261 . S
C409 O418 1.247 . S
C409 O419 1.272 . S
O410 Co406 2.004 . S
O410 C415 1.259 . S
Co411 O412 2.061 . S
Co411 O417 2.052 . S
Co411 O419 2.135 . S
O412 Co411 2.061 . S
O412 C415 1.235 . S
C413 O416 1.238 . S
C413 O417 1.241 . S
C414 O407 1.247 . S
C414 O408 1.261 . S
C415 O410 1.259 . S
C415 O412 1.235 . S
O416 Co406 2.021 . S
O416 C413 1.238 . S
O417 Co411 2.052 . S
O417 C413 1.241 . S
O418 Co406 2.137 . S
O418 C409 1.247 . S
O419 Co406 2.244 . S
O419 C409 1.272 . S
O419 Co411 2.135 . S
Co420 O421 2.216 . S
Co420 O422 2.091 . S
Co420 O424 2.004 . S
Co420 O430 2.021 . S
Co420 O432 2.137 . S
Co420 O433 2.244 . S
O421 Co420 2.216 . S
O421 C428 1.247 . S
O422 Co420 2.091 . S
O422 C428 1.261 . S
C423 O432 1.247 . S
C423 O433 1.272 . S
O424 Co420 2.004 . S
O424 C429 1.259 . S
Co425 O426 2.061 . S
Co425 O431 2.052 . S
Co425 O433 2.135 . S
O426 Co425 2.061 . S
O426 C429 1.235 . S
C427 O430 1.238 . S
C427 O431 1.241 . S
C428 O421 1.247 . S
C428 O422 1.261 . S
C429 O424 1.259 . S
C429 O426 1.235 . S
O430 Co420 2.021 . S
O430 C427 1.238 . S
O431 Co425 2.052 . S
O431 C427 1.241 . S
O432 Co420 2.137 . S
O432 C423 1.247 . S
O433 Co420 2.244 . S
O433 C423 1.272 . S
O433 Co425 2.135 . S
Co434 O435 2.216 . S
Co434 O436 2.091 . S
Co434 O438 2.004 . S
Co434 O444 2.021 . S
Co434 O446 2.137 . S
Co434 O447 2.244 . S
O435 Co434 2.216 . S
O435 C442 1.247 . S
O436 Co434 2.091 . S
O436 C442 1.261 . S
C437 O446 1.247 . S
C437 O447 1.272 . S
O438 Co434 2.004 . S
O438 C443 1.259 . S
Co439 O440 2.061 . S
Co439 O445 2.052 . S
Co439 O447 2.135 . S
O440 Co439 2.061 . S
O440 C443 1.235 . S
C441 O444 1.238 . S
C441 O445 1.241 . S
C442 O435 1.247 . S
C442 O436 1.261 . S
C443 O438 1.259 . S
C443 O440 1.235 . S
O444 Co434 2.021 . S
O444 C441 1.238 . S
O445 Co439 2.052 . S
O445 C441 1.241 . S
O446 Co434 2.137 . S
O446 C437 1.247 . S
O447 Co434 2.244 . S
O447 C437 1.272 . S
O447 Co439 2.135 . S
C448 C449 1.387 . S
C448 H452 0.950 . S
C448 C457 1.390 1_565 S
C449 C448 1.387 . S
C449 C451 1.387 . S
H450 C457 0.950 . S
C451 C449 1.387 . S
C451 C453 1.390 1_565 S
C451 H455 0.950 . S
H452 C448 0.950 . S
C453 C451 1.390 1_545 S
C453 C454 1.387 . S
C453 H456 0.950 . S
C454 C453 1.387 . S
C454 C457 1.387 . S
H455 C451 0.950 . S
H456 C453 0.950 . S
C457 C448 1.390 1_545 S
C457 H450 0.950 . S
C457 C454 1.387 . S
C458 C459 1.387 . S
C458 H462 0.950 . S
C458 C467 1.390 . S
C459 C458 1.387 . S
C459 C461 1.387 . S
H460 C467 0.950 . S
C461 C459 1.387 . S
C461 C463 1.390 . S
C461 H465 0.950 . S
H462 C458 0.950 . S
C463 C461 1.390 . S
C463 C464 1.387 . S
C463 H466 0.950 . S
C464 C463 1.387 . S
C464 C467 1.387 . S
H465 C461 0.950 . S
H466 C463 0.950 . S
C467 C458 1.390 . S
C467 H460 0.950 . S
C467 C464 1.387 . S
C468 C469 1.387 . S
C468 H472 0.950 . S
C468 C477 1.390 1_545 S
C469 C468 1.387 . S
C469 C471 1.387 . S
H470 C477 0.950 . S
C471 C469 1.387 . S
C471 C473 1.390 1_545 S
C471 H475 0.950 . S
H472 C468 0.950 . S
C473 C471 1.390 1_565 S
C473 C474 1.387 . S
C473 H476 0.950 . S
C474 C473 1.387 . S
C474 C477 1.387 . S
H475 C471 0.950 . S
H476 C473 0.950 . S
C477 C468 1.390 1_565 S
C477 H470 0.950 . S
C477 C474 1.387 . S
C478 C479 1.387 . S
C478 H482 0.950 . S
C478 C487 1.390 1_556 S
C479 C478 1.387 . S
C479 C481 1.387 . S
H480 C487 0.950 . S
C481 C479 1.387 . S
C481 C483 1.390 1_556 S
C481 H485 0.950 . S
H482 C478 0.950 . S
C483 C481 1.390 1_554 S
C483 C484 1.387 . S
C483 H486 0.950 . S
C484 C483 1.387 . S
C484 C487 1.387 . S
H485 C481 0.950 . S
H486 C483 0.950 . S
C487 C478 1.390 1_554 S
C487 H480 0.950 . S
C487 C484 1.387 . S
C488 C489 1.387 . S
C488 H492 0.950 . S
C488 C497 1.390 1_565 S
C489 C488 1.387 . S
C489 C491 1.387 . S
H490 C497 0.950 . S
C491 C489 1.387 . S
C491 C493 1.390 1_565 S
C491 H495 0.950 . S
H492 C488 0.950 . S
C493 C491 1.390 1_545 S
C493 C494 1.387 . S
C493 H496 0.950 . S
C494 C493 1.387 . S
C494 C497 1.387 . S
H495 C491 0.950 . S
H496 C493 0.950 . S
C497 C488 1.390 1_545 S
C497 H490 0.950 . S
C497 C494 1.387 . S
C498 C499 1.387 . S
C498 H502 0.950 . S
C498 C507 1.390 . S
C499 C498 1.387 . S
C499 C501 1.387 . S
H500 C507 0.950 . S
C501 C499 1.387 . S
C501 C503 1.390 . S
C501 H505 0.950 . S
H502 C498 0.950 . S
C503 C501 1.390 . S
C503 C504 1.387 . S
C503 H506 0.950 . S
C504 C503 1.387 . S
C504 C507 1.387 . S
H505 C501 0.950 . S
H506 C503 0.950 . S
C507 C498 1.390 . S
C507 H500 0.950 . S
C507 C504 1.387 . S
C508 C509 1.387 . S
C508 H512 0.950 . S
C508 C517 1.390 1_545 S
C509 C508 1.387 . S
C509 C511 1.387 . S
H510 C517 0.950 . S
C511 C509 1.387 . S
C511 C513 1.390 1_545 S
C511 H515 0.950 . S
H512 C508 0.950 . S
C513 C511 1.390 1_565 S
C513 C514 1.387 . S
C513 H516 0.950 . S
C514 C513 1.387 . S
C514 C517 1.387 . S
H515 C511 0.950 . S
H516 C513 0.950 . S
C517 C508 1.390 1_565 S
C517 H510 0.950 . S
C517 C514 1.387 . S
C518 C519 1.387 . S
C518 H522 0.950 . S
C518 C527 1.390 1_556 S
C519 C518 1.387 . S
C519 C521 1.387 . S
H520 C527 0.950 . S
C521 C519 1.387 . S
C521 C523 1.390 1_556 S
C521 H525 0.950 . S
H522 C518 0.950 . S
C523 C521 1.390 1_554 S
C523 C524 1.387 . S
C523 H526 0.950 . S
C524 C523 1.387 . S
C524 C527 1.387 . S
H525 C521 0.950 . S
H526 C523 0.950 . S
C527 C518 1.390 1_554 S
C527 H520 0.950 . S
C527 C524 1.387 . S
C528 C529 1.387 . S
C528 H532 0.950 . S
C528 C537 1.390 . S
C529 C528 1.387 . S
C529 C531 1.387 . S
H530 C537 0.950 . S
C531 C529 1.387 . S
C531 C533 1.390 . S
C531 H535 0.950 . S
H532 C528 0.950 . S
C533 C531 1.390 . S
C533 C534 1.387 . S
C533 H536 0.950 . S
C534 C533 1.387 . S
C534 C537 1.387 . S
H535 C531 0.950 . S
H536 C533 0.950 . S
C537 C528 1.390 . S
C537 H530 0.950 . S
C537 C534 1.387 . S
C538 C539 1.387 . S
C538 H542 0.950 . S
C538 C547 1.390 1_554 S
C539 C538 1.387 . S
C539 C541 1.387 . S
H540 C547 0.950 . S
C541 C539 1.387 . S
C541 C543 1.390 1_554 S
C541 H545 0.950 . S
H542 C538 0.950 . S
C543 C541 1.390 1_556 S
C543 C544 1.387 . S
C543 H546 0.950 . S
C544 C543 1.387 . S
C544 C547 1.387 . S
H545 C541 0.950 . S
H546 C543 0.950 . S
C547 C538 1.390 1_556 S
C547 H540 0.950 . S
C547 C544 1.387 . S
C548 C549 1.387 . S
C548 H552 0.950 . S
C548 C557 1.390 . S
C549 C548 1.387 . S
C549 C551 1.387 . S
H550 C557 0.950 . S
C551 C549 1.387 . S
C551 C553 1.390 . S
C551 H555 0.950 . S
H552 C548 0.950 . S
C553 C551 1.390 . S
C553 C554 1.387 . S
C553 H556 0.950 . S
C554 C553 1.387 . S
C554 C557 1.387 . S
H555 C551 0.950 . S
H556 C553 0.950 . S
C557 C548 1.390 . S
C557 H550 0.950 . S
C557 C554 1.387 . S
C558 C559 1.387 . S
C558 H562 0.950 . S
C558 C567 1.390 . S
C559 C558 1.387 . S
C559 C561 1.387 . S
H560 C567 0.950 . S
C561 C559 1.387 . S
C561 C563 1.390 . S
C561 H565 0.950 . S
H562 C558 0.950 . S
C563 C561 1.390 . S
C563 C564 1.387 . S
C563 H566 0.950 . S
C564 C563 1.387 . S
C564 C567 1.387 . S
H565 C561 0.950 . S
H566 C563 0.950 . S
C567 C558 1.390 . S
C567 H560 0.950 . S
C567 C564 1.387 . S
C568 C569 1.387 . S
C568 H572 0.950 . S
C568 C577 1.390 . S
C569 C568 1.387 . S
C569 C571 1.387 . S
H570 C577 0.950 . S
C571 C569 1.387 . S
C571 C573 1.390 . S
C571 H575 0.950 . S
H572 C568 0.950 . S
C573 C571 1.390 . S
C573 C574 1.387 . S
C573 H576 0.950 . S
C574 C573 1.387 . S
C574 C577 1.387 . S
H575 C571 0.950 . S
H576 C573 0.950 . S
C577 C568 1.390 . S
C577 H570 0.950 . S
C577 C574 1.387 . S
C578 C579 1.387 . S
C578 H582 0.950 . S
C578 C587 1.390 1_554 S
C579 C578 1.387 . S
C579 C581 1.387 . S
H580 C587 0.950 . S
C581 C579 1.387 . S
C581 C583 1.390 1_554 S
C581 H585 0.950 . S
H582 C578 0.950 . S
C583 C581 1.390 1_556 S
C583 C584 1.387 . S
C583 H586 0.950 . S
C584 C583 1.387 . S
C584 C587 1.387 . S
H585 C581 0.950 . S
H586 C583 0.950 . S
C587 C578 1.390 1_556 S
C587 H580 0.950 . S
C587 C584 1.387 . S
C588 C589 1.387 . S
C588 H592 0.950 . S
C588 C597 1.390 . S
C589 C588 1.387 . S
C589 C591 1.387 . S
H590 C597 0.950 . S
C591 C589 1.387 . S
C591 C593 1.390 . S
C591 H595 0.950 . S
H592 C588 0.950 . S
C593 C591 1.390 . S
C593 C594 1.387 . S
C593 H596 0.950 . S
C594 C593 1.387 . S
C594 C597 1.387 . S
H595 C591 0.950 . S
H596 C593 0.950 . S
C597 C588 1.390 . S
C597 H590 0.950 . S
C597 C594 1.387 . S
C598 C599 1.387 . S
C598 H602 0.950 . S
C598 C607 1.390 . S
C599 C598 1.387 . S
C599 C601 1.387 . S
H600 C607 0.950 . S
C601 C599 1.387 . S
C601 C603 1.390 . S
C601 H605 0.950 . S
H602 C598 0.950 . S
C603 C601 1.390 . S
C603 C604 1.387 . S
C603 H606 0.950 . S
C604 C603 1.387 . S
C604 C607 1.387 . S
H605 C601 0.950 . S
H606 C603 0.950 . S
C607 C598 1.390 . S
C607 H600 0.950 . S
C607 C604 1.387 . S
C608 C609 1.387 . S
C608 H612 0.950 . S
C608 C617 1.390 . S
C609 C608 1.387 . S
C609 C611 1.387 . S
H610 C617 0.950 . S
C611 C609 1.387 . S
C611 C613 1.390 . S
C611 H615 0.950 1_565 S
H612 C608 0.950 . S
C613 C611 1.390 . S
C613 C614 1.387 . S
C613 H616 0.950 . S
C614 C613 1.387 . S
C614 C617 1.387 . S
H615 C611 0.950 1_545 S
H616 C613 0.950 . S
C617 C608 1.390 . S
C617 H610 0.950 . S
C617 C614 1.387 . S
C618 C619 1.387 . S
C618 H622 0.950 . S
C618 C627 1.390 . S
C619 C618 1.387 . S
C619 C621 1.387 . S
H620 C627 0.950 1_565 S
C621 C619 1.387 . S
C621 C623 1.390 . S
C621 H625 0.950 . S
H622 C618 0.950 . S
C623 C621 1.390 . S
C623 C624 1.387 . S
C623 H626 0.950 . S
C624 C623 1.387 . S
C624 C627 1.387 . S
H625 C621 0.950 . S
H626 C623 0.950 . S
C627 C618 1.390 . S
C627 H620 0.950 1_545 S
C627 C624 1.387 . S
C628 C629 1.387 . S
C628 H632 0.950 . S
C628 C637 1.390 . S
C629 C628 1.387 . S
C629 C631 1.387 . S
H630 C637 0.950 . S
C631 C629 1.387 . S
C631 C633 1.390 . S
C631 H635 0.950 . S
H632 C628 0.950 . S
C633 C631 1.390 . S
C633 C634 1.387 . S
C633 H636 0.950 . S
C634 C633 1.387 . S
C634 C637 1.387 . S
H635 C631 0.950 . S
H636 C633 0.950 . S
C637 C628 1.390 . S
C637 H630 0.950 . S
C637 C634 1.387 . S
C638 C639 1.387 . S
C638 H642 0.950 . S
C638 C647 1.390 . S
C639 C638 1.387 . S
C639 C641 1.387 . S
H640 C647 0.950 . S
C641 C639 1.387 . S
C641 C643 1.390 . S
C641 H645 0.950 . S
H642 C638 0.950 . S
C643 C641 1.390 . S
C643 C644 1.387 . S
C643 H646 0.950 . S
C644 C643 1.387 . S
C644 C647 1.387 . S
H645 C641 0.950 . S
H646 C643 0.950 . S
C647 C638 1.390 . S
C647 H640 0.950 . S
C647 C644 1.387 . S
C648 C649 1.387 . S
C648 H652 0.950 . S
C648 C657 1.390 . S
C649 C648 1.387 . S
C649 C651 1.387 . S
H650 C657 0.950 . S
C651 C649 1.387 . S
C651 C653 1.390 . S
C651 H655 0.950 . S
H652 C648 0.950 . S
C653 C651 1.390 . S
C653 C654 1.387 . S
C653 H656 0.950 1_545 S
C654 C653 1.387 . S
C654 C657 1.387 . S
H655 C651 0.950 . S
H656 C653 0.950 1_565 S
C657 C648 1.390 . S
C657 H650 0.950 . S
C657 C654 1.387 . S
C658 C659 1.387 . S
C658 H662 0.950 . S
C658 C667 1.390 . S
C659 C658 1.387 . S
C659 C661 1.387 . S
H660 C667 0.950 . S
C661 C659 1.387 . S
C661 C663 1.390 . S
C661 H665 0.950 1_565 S
H662 C658 0.950 . S
C663 C661 1.390 . S
C663 C664 1.387 . S
C663 H666 0.950 . S
C664 C663 1.387 . S
C664 C667 1.387 . S
H665 C661 0.950 1_545 S
H666 C663 0.950 . S
C667 C658 1.390 . S
C667 H660 0.950 . S
C667 C664 1.387 . S
C668 C669 1.387 . S
C668 H672 0.950 . S
C668 C677 1.390 . S
C669 C668 1.387 . S
C669 C671 1.387 . S
H670 C677 0.950 1_545 S
C671 C669 1.387 . S
C671 C673 1.390 . S
C671 H675 0.950 . S
H672 C668 0.950 . S
C673 C671 1.390 . S
C673 C674 1.387 . S
C673 H676 0.950 . S
C674 C673 1.387 . S
C674 C677 1.387 . S
H675 C671 0.950 . S
H676 C673 0.950 . S
C677 C668 1.390 . S
C677 H670 0.950 1_565 S
C677 C674 1.387 . S
C678 C679 1.387 . S
C678 H682 0.950 . S
C678 C687 1.390 . S
C679 C678 1.387 . S
C679 C681 1.387 . S
H680 C687 0.950 1_565 S
C681 C679 1.387 . S
C681 C683 1.390 . S
C681 H685 0.950 . S
H682 C678 0.950 . S
C683 C681 1.390 . S
C683 C684 1.387 . S
C683 H686 0.950 . S
C684 C683 1.387 . S
C684 C687 1.387 . S
H685 C681 0.950 . S
H686 C683 0.950 . S
C687 C678 1.390 . S
C687 H680 0.950 1_545 S
C687 C684 1.387 . S
C688 C689 1.387 . S
C688 H692 0.950 . S
C688 C697 1.390 . S
C689 C688 1.387 . S
C689 C691 1.387 . S
H690 C697 0.950 . S
C691 C689 1.387 . S
C691 C693 1.390 . S
C691 H695 0.950 . S
H692 C688 0.950 . S
C693 C691 1.390 . S
C693 C694 1.387 . S
C693 H696 0.950 . S
C694 C693 1.387 . S
C694 C697 1.387 . S
H695 C691 0.950 . S
H696 C693 0.950 . S
C697 C688 1.390 . S
C697 H690 0.950 . S
C697 C694 1.387 . S
C698 C699 1.387 . S
C698 H702 0.950 . S
C698 C707 1.390 . S
C699 C698 1.387 . S
C699 C701 1.387 . S
H700 C707 0.950 . S
C701 C699 1.387 . S
C701 C703 1.390 . S
C701 H705 0.950 . S
H702 C698 0.950 . S
C703 C701 1.390 . S
C703 C704 1.387 . S
C703 H706 0.950 . S
C704 C703 1.387 . S
C704 C707 1.387 . S
H705 C701 0.950 . S
H706 C703 0.950 . S
C707 C698 1.390 . S
C707 H700 0.950 . S
C707 C704 1.387 . S
C708 C709 1.387 . S
C708 H712 0.950 . S
C708 C717 1.390 . S
C709 C708 1.387 . S
C709 C711 1.387 . S
H710 C717 0.950 . S
C711 C709 1.387 . S
C711 C713 1.390 . S
C711 H715 0.950 . S
H712 C708 0.950 . S
C713 C711 1.390 . S
C713 C714 1.387 . S
C713 H716 0.950 . S
C714 C713 1.387 . S
C714 C717 1.387 . S
H715 C711 0.950 . S
H716 C713 0.950 . S
C717 C708 1.390 . S
C717 H710 0.950 . S
C717 C714 1.387 . S
C718 C719 1.387 . S
C718 H722 0.950 . S
C718 C727 1.390 . S
C719 C718 1.387 . S
C719 C721 1.387 . S
H720 C727 0.950 . S
C721 C719 1.387 . S
C721 C723 1.390 . S
C721 H725 0.950 . S
H722 C718 0.950 . S
C723 C721 1.390 . S
C723 C724 1.387 . S
C723 H726 0.950 . S
C724 C723 1.387 . S
C724 C727 1.387 . S
H725 C721 0.950 . S
H726 C723 0.950 . S
C727 C718 1.390 . S
C727 H720 0.950 . S
C727 C724 1.387 . S
C728 C729 1.387 . S
C728 H732 0.950 . S
C728 C737 1.390 . S
C729 C728 1.387 . S
C729 C731 1.387 . S
H730 C737 0.950 . S
C731 C729 1.387 . S
C731 C733 1.390 . S
C731 H735 0.950 . S
H732 C728 0.950 . S
C733 C731 1.390 . S
C733 C734 1.387 . S
C733 H736 0.950 . S
C734 C733 1.387 . S
C734 C737 1.387 . S
H735 C731 0.950 . S
H736 C733 0.950 . S
C737 C728 1.390 . S
C737 H730 0.950 . S
C737 C734 1.387 . S
C738 C739 1.387 . S
C738 H742 0.950 . S
C738 C747 1.390 . S
C739 C738 1.387 . S
C739 C741 1.387 . S
H740 C747 0.950 . S
C741 C739 1.387 . S
C741 C743 1.390 . S
C741 H745 0.950 . S
H742 C738 0.950 . S
C743 C741 1.390 . S
C743 C744 1.387 . S
C743 H746 0.950 . S
C744 C743 1.387 . S
C744 C747 1.387 . S
H745 C741 0.950 . S
H746 C743 0.950 . S
C747 C738 1.390 . S
C747 H740 0.950 . S
C747 C744 1.387 . S
C748 C749 1.387 . S
C748 H752 0.950 . S
C748 C757 1.390 . S
C749 C748 1.387 . S
C749 C751 1.387 . S
H750 C757 0.950 . S
C751 C749 1.387 . S
C751 C753 1.390 . S
C751 H755 0.950 . S
H752 C748 0.950 . S
C753 C751 1.390 . S
C753 C754 1.387 . S
C753 H756 0.950 . S
C754 C753 1.387 . S
C754 C757 1.387 . S
H755 C751 0.950 . S
H756 C753 0.950 . S
C757 C748 1.390 . S
C757 H750 0.950 . S
C757 C754 1.387 . S
C758 C759 1.387 . S
C758 H762 0.950 . S
C758 C767 1.390 . S
C759 C758 1.387 . S
C759 C761 1.387 . S
H760 C767 0.950 . S
C761 C759 1.387 . S
C761 C763 1.390 . S
C761 H765 0.950 . S
H762 C758 0.950 . S
C763 C761 1.390 . S
C763 C764 1.387 . S
C763 H766 0.950 . S
C764 C763 1.387 . S
C764 C767 1.387 . S
H765 C761 0.950 . S
H766 C763 0.950 . S
C767 C758 1.390 . S
C767 H760 0.950 . S
C767 C764 1.387 . S
C768 C769 1.387 . S
C768 H772 0.950 . S
C768 C777 1.390 . S
C769 C768 1.387 . S
C769 C771 1.387 . S
H770 C777 0.950 . S
C771 C769 1.387 . S
C771 C773 1.390 . S
C771 H775 0.950 . S
H772 C768 0.950 . S
C773 C771 1.390 . S
C773 C774 1.387 . S
C773 H776 0.950 . S
C774 C773 1.387 . S
C774 C777 1.387 . S
H775 C771 0.950 . S
H776 C773 0.950 . S
C777 C768 1.390 . S
C777 H770 0.950 . S
C777 C774 1.387 . S
C778 C779 1.387 . S
C778 H782 0.950 . S
C778 C787 1.390 . S
C779 C778 1.387 . S
C779 C781 1.387 . S
H780 C787 0.950 . S
C781 C779 1.387 . S
C781 C783 1.390 . S
C781 H785 0.950 . S
H782 C778 0.950 . S
C783 C781 1.390 . S
C783 C784 1.387 . S
C783 H786 0.950 . S
C784 C783 1.387 . S
C784 C787 1.387 . S
H785 C781 0.950 . S
H786 C783 0.950 . S
C787 C778 1.390 . S
C787 H780 0.950 . S
C787 C784 1.387 . S
C788 C789 1.387 . S
C788 H792 0.950 . S
C788 C797 1.390 . S
C789 C788 1.387 . S
C789 C791 1.387 . S
H790 C797 0.950 . S
C791 C789 1.387 . S
C791 C793 1.390 . S
C791 H795 0.950 . S
H792 C788 0.950 . S
C793 C791 1.390 . S
C793 C794 1.387 . S
C793 H796 0.950 . S
C794 C793 1.387 . S
C794 C797 1.387 . S
H795 C791 0.950 . S
H796 C793 0.950 . S
C797 C788 1.390 . S
C797 H790 0.950 . S
C797 C794 1.387 . S
C798 C799 1.387 . S
C798 H802 0.950 . S
C798 C807 1.390 . S
C799 C798 1.387 . S
C799 C801 1.387 . S
H800 C807 0.950 . S
C801 C799 1.387 . S
C801 C803 1.390 . S
C801 H805 0.950 . S
H802 C798 0.950 . S
C803 C801 1.390 . S
C803 C804 1.387 . S
C803 H806 0.950 . S
C804 C803 1.387 . S
C804 C807 1.387 . S
H805 C801 0.950 . S
H806 C803 0.950 . S
C807 C798 1.390 . S
C807 H800 0.950 . S
C807 C804 1.387 . S
C808 C809 1.387 . S
C808 H812 0.950 . S
C808 C817 1.390 . S
C809 C808 1.387 . S
C809 C811 1.387 . S
H810 C817 0.950 . S
C811 C809 1.387 . S
C811 C813 1.390 . S
C811 H815 0.950 . S
H812 C808 0.950 . S
C813 C811 1.390 . S
C813 C814 1.387 . S
C813 H816 0.950 . S
C814 C813 1.387 . S
C814 C817 1.387 . S
H815 C811 0.950 . S
H816 C813 0.950 . S
C817 C808 1.390 . S
C817 H810 0.950 . S
C817 C814 1.387 . S
C818 C819 1.387 . S
C818 H822 0.950 . S
C818 C827 1.390 . S
C819 C818 1.387 . S
C819 C821 1.387 . S
H820 C827 0.950 . S
C821 C819 1.387 . S
C821 C823 1.390 . S
C821 H825 0.950 . S
H822 C818 0.950 . S
C823 C821 1.390 . S
C823 C824 1.387 . S
C823 H826 0.950 . S
C824 C823 1.387 . S
C824 C827 1.387 . S
H825 C821 0.950 . S
H826 C823 0.950 . S
C827 C818 1.390 . S
C827 H820 0.950 . S
C827 C824 1.387 . S
C828 C829 1.387 . S
C828 H832 0.950 . S
C828 C837 1.390 . S
C829 C828 1.387 . S
C829 C831 1.387 . S
H830 C837 0.950 . S
C831 C829 1.387 . S
C831 C833 1.390 . S
C831 H835 0.950 . S
H832 C828 0.950 . S
C833 C831 1.390 . S
C833 C834 1.387 . S
C833 H836 0.950 . S
C834 C833 1.387 . S
C834 C837 1.387 . S
H835 C831 0.950 . S
H836 C833 0.950 . S
C837 C828 1.390 . S
C837 H830 0.950 . S
C837 C834 1.387 . S
C838 C839 1.387 . S
C838 H842 0.950 . S
C838 C847 1.390 . S
C839 C838 1.387 . S
C839 C841 1.387 . S
H840 C847 0.950 . S
C841 C839 1.387 . S
C841 C843 1.390 . S
C841 H845 0.950 . S
H842 C838 0.950 . S
C843 C841 1.390 . S
C843 C844 1.387 . S
C843 H846 0.950 . S
C844 C843 1.387 . S
C844 C847 1.387 . S
H845 C841 0.950 . S
H846 C843 0.950 . S
C847 C838 1.390 . S
C847 H840 0.950 . S
C847 C844 1.387 . S
C848 C849 1.387 . S
C848 H852 0.950 . S
C848 C857 1.390 . S
C849 C848 1.387 . S
C849 C851 1.387 . S
H850 C857 0.950 . S
C851 C849 1.387 . S
C851 C853 1.390 . S
C851 H855 0.950 . S
H852 C848 0.950 . S
C853 C851 1.390 . S
C853 C854 1.387 . S
C853 H856 0.950 . S
C854 C853 1.387 . S
C854 C857 1.387 . S
H855 C851 0.950 . S
H856 C853 0.950 . S
C857 C848 1.390 . S
C857 H850 0.950 . S
C857 C854 1.387 . S
C858 C859 1.387 . S
C858 H862 0.950 . S
C858 C867 1.390 . S
C859 C858 1.387 . S
C859 C861 1.387 . S
H860 C867 0.950 . S
C861 C859 1.387 . S
C861 C863 1.390 . S
C861 H865 0.950 . S
H862 C858 0.950 . S
C863 C861 1.390 . S
C863 C864 1.387 . S
C863 H866 0.950 . S
C864 C863 1.387 . S
C864 C867 1.387 . S
H865 C861 0.950 . S
H866 C863 0.950 . S
C867 C858 1.390 . S
C867 H860 0.950 . S
C867 C864 1.387 . S
C868 C869 1.387 . S
C868 H872 0.950 . S
C868 C877 1.390 . S
C869 C868 1.387 . S
C869 C871 1.387 . S
H870 C877 0.950 . S
C871 C869 1.387 . S
C871 C873 1.390 . S
C871 H875 0.950 . S
H872 C868 0.950 . S
C873 C871 1.390 . S
C873 C874 1.387 . S
C873 H876 0.950 . S
C874 C873 1.387 . S
C874 C877 1.387 . S
H875 C871 0.950 . S
H876 C873 0.950 . S
C877 C868 1.390 . S
C877 H870 0.950 . S
C877 C874 1.387 . S
C878 C879 1.387 . S
C878 H882 0.950 . S
C878 C887 1.390 . S
C879 C878 1.387 . S
C879 C881 1.387 . S
H880 C887 0.950 . S
C881 C879 1.387 . S
C881 C883 1.390 . S
C881 H885 0.950 . S
H882 C878 0.950 . S
C883 C881 1.390 . S
C883 C884 1.387 . S
C883 H886 0.950 . S
C884 C883 1.387 . S
C884 C887 1.387 . S
H885 C881 0.950 . S
H886 C883 0.950 . S
C887 C878 1.390 . S
C887 H880 0.950 . S
C887 C884 1.387 . S
C888 C889 1.387 . S
C888 H892 0.950 . S
C888 C897 1.390 . S
C889 C888 1.387 . S
C889 C891 1.387 . S
H890 C897 0.950 . S
C891 C889 1.387 . S
C891 C893 1.390 . S
C891 H895 0.950 . S
H892 C888 0.950 . S
C893 C891 1.390 . S
C893 C894 1.387 . S
C893 H896 0.950 . S
C894 C893 1.387 . S
C894 C897 1.387 . S
H895 C891 0.950 . S
H896 C893 0.950 . S
C897 C888 1.390 . S
C897 H890 0.950 . S
C897 C894 1.387 . S
C898 C899 1.387 . S
C898 H902 0.950 . S
C898 C907 1.390 . S
C899 C898 1.387 . S
C899 C901 1.387 . S
H900 C907 0.950 . S
C901 C899 1.387 . S
C901 C903 1.390 . S
C901 H905 0.950 . S
H902 C898 0.950 . S
C903 C901 1.390 . S
C903 C904 1.387 . S
C903 H906 0.950 . S
C904 C903 1.387 . S
C904 C907 1.387 . S
H905 C901 0.950 . S
H906 C903 0.950 . S
C907 C898 1.390 . S
C907 H900 0.950 . S
C907 C904 1.387 . S
C908 C909 1.387 . S
C908 H912 0.950 . S
C908 C917 1.390 . S
C909 C908 1.387 . S
C909 C911 1.387 . S
H910 C917 0.950 . S
C911 C909 1.387 . S
C911 C913 1.390 . S
C911 H915 0.950 . S
H912 C908 0.950 . S
C913 C911 1.390 . S
C913 C914 1.387 . S
C913 H916 0.950 . S
C914 C913 1.387 . S
C914 C917 1.387 . S
H915 C911 0.950 . S
H916 C913 0.950 . S
C917 C908 1.390 . S
C917 H910 0.950 . S
C917 C914 1.387 . S
C918 C919 1.387 . S
C918 H922 0.950 . S
C918 C927 1.390 . S
C919 C918 1.387 . S
C919 C921 1.387 . S
H920 C927 0.950 . S
C921 C919 1.387 . S
C921 C923 1.390 . S
C921 H925 0.950 . S
H922 C918 0.950 . S
C923 C921 1.390 . S
C923 C924 1.387 . S
C923 H926 0.950 . S
C924 C923 1.387 . S
C924 C927 1.387 . S
H925 C921 0.950 . S
H926 C923 0.950 . S
C927 C918 1.390 . S
C927 H920 0.950 . S
C927 C924 1.387 . S
C928 C929 1.387 . S
C928 H932 0.950 . S
C928 C937 1.390 . S
C929 C928 1.387 . S
C929 C931 1.387 . S
H930 C937 0.950 . S
C931 C929 1.387 . S
C931 C933 1.390 . S
C931 H935 0.950 . S
H932 C928 0.950 . S
C933 C931 1.390 . S
C933 C934 1.387 . S
C933 H936 0.950 . S
C934 C933 1.387 . S
C934 C937 1.387 . S
H935 C931 0.950 . S
H936 C933 0.950 . S
C937 C928 1.390 . S
C937 H930 0.950 . S
C937 C934 1.387 . S
C938 C939 1.387 . S
C938 H942 0.950 . S
C938 C947 1.390 . S
C939 C938 1.387 . S
C939 C941 1.387 . S
H940 C947 0.950 . S
C941 C939 1.387 . S
C941 C943 1.390 . S
C941 H945 0.950 . S
H942 C938 0.950 . S
C943 C941 1.390 . S
C943 C944 1.387 . S
C943 H946 0.950 . S
C944 C943 1.387 . S
C944 C947 1.387 . S
H945 C941 0.950 . S
H946 C943 0.950 . S
C947 C938 1.390 . S
C947 H940 0.950 . S
C947 C944 1.387 . S
C948 C949 1.387 . S
C948 H952 0.950 . S
C948 C957 1.390 . S
C949 C948 1.387 . S
C949 C951 1.387 . S
H950 C957 0.950 . S
C951 C949 1.387 . S
C951 C953 1.390 . S
C951 H955 0.950 . S
H952 C948 0.950 . S
C953 C951 1.390 . S
C953 C954 1.387 . S
C953 H956 0.950 . S
C954 C953 1.387 . S
C954 C957 1.387 . S
H955 C951 0.950 . S
H956 C953 0.950 . S
C957 C948 1.390 . S
C957 H950 0.950 . S
C957 C954 1.387 . S
C958 C959 1.387 . S
C958 H962 0.950 . S
C958 C967 1.390 . S
C959 C958 1.387 . S
C959 C961 1.387 . S
H960 C967 0.950 . S
C961 C959 1.387 . S
C961 C963 1.390 . S
C961 H965 0.950 . S
H962 C958 0.950 . S
C963 C961 1.390 . S
C963 C964 1.387 . S
C963 H966 0.950 . S
C964 C963 1.387 . S
C964 C967 1.387 . S
H965 C961 0.950 . S
H966 C963 0.950 . S
C967 C958 1.390 . S
C967 H960 0.950 . S
C967 C964 1.387 . S
C968 C969 1.387 . S
C968 H972 0.950 . S
C968 C977 1.390 . S
C969 C968 1.387 . S
C969 C971 1.387 . S
H970 C977 0.950 . S
C971 C969 1.387 . S
C971 C973 1.390 . S
C971 H975 0.950 . S
H972 C968 0.950 . S
C973 C971 1.390 . S
C973 C974 1.387 . S
C973 H976 0.950 . S
C974 C973 1.387 . S
C974 C977 1.387 . S
H975 C971 0.950 . S
H976 C973 0.950 . S
C977 C968 1.390 . S
C977 H970 0.950 . S
C977 C974 1.387 . S
C978 C979 1.387 . S
C978 H982 0.950 . S
C978 C987 1.390 . S
C979 C978 1.387 . S
C979 C981 1.387 . S
H980 C987 0.950 . S
C981 C979 1.387 . S
C981 C983 1.390 . S
C981 H985 0.950 . S
H982 C978 0.950 . S
C983 C981 1.390 . S
C983 C984 1.387 . S
C983 H986 0.950 . S
C984 C983 1.387 . S
C984 C987 1.387 . S
H985 C981 0.950 . S
H986 C983 0.950 . S
C987 C978 1.390 . S
C987 H980 0.950 . S
C987 C984 1.387 . S
C988 C989 1.387 . S
C988 H992 0.950 . S
C988 C997 1.390 . S
C989 C988 1.387 . S
C989 C991 1.387 . S
H990 C997 0.950 . S
C991 C989 1.387 . S
C991 C993 1.390 . S
C991 H995 0.950 . S
H992 C988 0.950 . S
C993 C991 1.390 . S
C993 C994 1.387 . S
C993 H996 0.950 . S
C994 C993 1.387 . S
C994 C997 1.387 . S
H995 C991 0.950 . S
H996 C993 0.950 . S
C997 C988 1.390 . S
C997 H990 0.950 . S
C997 C994 1.387 . S
C998 C999 1.387 . S
C998 H1002 0.950 . S
C998 C1007 1.390 . S
C999 C998 1.387 . S
C999 C1001 1.387 . S
H1000 C1007 0.950 . S
C1001 C999 1.387 . S
C1001 C1003 1.390 . S
C1001 H1005 0.950 . S
H1002 C998 0.950 . S
C1003 C1001 1.390 . S
C1003 C1004 1.387 . S
C1003 H1006 0.950 . S
C1004 C1003 1.387 . S
C1004 C1007 1.387 . S
H1005 C1001 0.950 . S
H1006 C1003 0.950 . S
C1007 C998 1.390 . S
C1007 H1000 0.950 . S
C1007 C1004 1.387 . S
C1008 C1009 1.387 . S
C1008 H1012 0.950 . S
C1008 C1017 1.390 . S
C1009 C1008 1.387 . S
C1009 C1011 1.387 . S
H1010 C1017 0.950 . S
C1011 C1009 1.387 . S
C1011 C1013 1.390 . S
C1011 H1015 0.950 . S
H1012 C1008 0.950 . S
C1013 C1011 1.390 . S
C1013 C1014 1.387 . S
C1013 H1016 0.950 . S
C1014 C1013 1.387 . S
C1014 C1017 1.387 . S
H1015 C1011 0.950 . S
H1016 C1013 0.950 . S
C1017 C1008 1.390 . S
C1017 H1010 0.950 . S
C1017 C1014 1.387 . S
C1018 C1019 1.387 . S
C1018 H1022 0.950 . S
C1018 C1027 1.390 . S
C1019 C1018 1.387 . S
C1019 C1021 1.387 . S
H1020 C1027 0.950 . S
C1021 C1019 1.387 . S
C1021 C1023 1.390 . S
C1021 H1025 0.950 . S
H1022 C1018 0.950 . S
C1023 C1021 1.390 . S
C1023 C1024 1.387 . S
C1023 H1026 0.950 . S
C1024 C1023 1.387 . S
C1024 C1027 1.387 . S
H1025 C1021 0.950 . S
H1026 C1023 0.950 . S
C1027 C1018 1.390 . S
C1027 H1020 0.950 . S
C1027 C1024 1.387 . S
C1028 C1029 1.387 . S
C1028 H1032 0.950 . S
C1028 C1037 1.390 . S
C1029 C1028 1.387 . S
C1029 C1031 1.387 . S
H1030 C1037 0.950 . S
C1031 C1029 1.387 . S
C1031 C1033 1.390 . S
C1031 H1035 0.950 . S
H1032 C1028 0.950 . S
C1033 C1031 1.390 . S
C1033 C1034 1.387 . S
C1033 H1036 0.950 . S
C1034 C1033 1.387 . S
C1034 C1037 1.387 . S
H1035 C1031 0.950 . S
H1036 C1033 0.950 . S
C1037 C1028 1.390 . S
C1037 H1030 0.950 . S
C1037 C1034 1.387 . S
C1038 C1039 1.387 . S
C1038 H1042 0.950 . S
C1038 C1047 1.390 . S
C1039 C1038 1.387 . S
C1039 C1041 1.387 . S
H1040 C1047 0.950 . S
C1041 C1039 1.387 . S
C1041 C1043 1.390 . S
C1041 H1045 0.950 . S
H1042 C1038 0.950 . S
C1043 C1041 1.390 . S
C1043 C1044 1.387 . S
C1043 H1046 0.950 . S
C1044 C1043 1.387 . S
C1044 C1047 1.387 . S
H1045 C1041 0.950 . S
H1046 C1043 0.950 . S
C1047 C1038 1.390 . S
C1047 H1040 0.950 . S
C1047 C1044 1.387 . S
C1048 C1049 1.387 . S
C1048 H1052 0.950 . S
C1048 C1057 1.390 . S
C1049 C1048 1.387 . S
C1049 C1051 1.387 . S
H1050 C1057 0.950 . S
C1051 C1049 1.387 . S
C1051 C1053 1.390 . S
C1051 H1055 0.950 . S
H1052 C1048 0.950 . S
C1053 C1051 1.390 . S
C1053 C1054 1.387 . S
C1053 H1056 0.950 . S
C1054 C1053 1.387 . S
C1054 C1057 1.387 . S
H1055 C1051 0.950 . S
H1056 C1053 0.950 . S
C1057 C1048 1.390 . S
C1057 H1050 0.950 . S
C1057 C1054 1.387 . S
C1058 C1059 1.387 . S
C1058 H1062 0.950 . S
C1058 C1067 1.390 . S
C1059 C1058 1.387 . S
C1059 C1061 1.387 . S
H1060 C1067 0.950 . S
C1061 C1059 1.387 . S
C1061 C1063 1.390 . S
C1061 H1065 0.950 . S
H1062 C1058 0.950 . S
C1063 C1061 1.390 . S
C1063 C1064 1.387 . S
C1063 H1066 0.950 . S
C1064 C1063 1.387 . S
C1064 C1067 1.387 . S
H1065 C1061 0.950 . S
H1066 C1063 0.950 . S
C1067 C1058 1.390 . S
C1067 H1060 0.950 . S
C1067 C1064 1.387 . S
C1068 C1069 1.387 . S
C1068 H1072 0.950 . S
C1068 C1077 1.390 . S
C1069 C1068 1.387 . S
C1069 C1071 1.387 . S
H1070 C1077 0.950 . S
C1071 C1069 1.387 . S
C1071 C1073 1.390 . S
C1071 H1075 0.950 . S
H1072 C1068 0.950 . S
C1073 C1071 1.390 . S
C1073 C1074 1.387 . S
C1073 H1076 0.950 . S
C1074 C1073 1.387 . S
C1074 C1077 1.387 . S
H1075 C1071 0.950 . S
H1076 C1073 0.950 . S
C1077 C1068 1.390 . S
C1077 H1070 0.950 . S
C1077 C1074 1.387 . S
C1078 C1079 1.387 . S
C1078 H1082 0.950 . S
C1078 C1087 1.390 . S
C1079 C1078 1.387 . S
C1079 C1081 1.387 . S
H1080 C1087 0.950 . S
C1081 C1079 1.387 . S
C1081 C1083 1.390 . S
C1081 H1085 0.950 . S
H1082 C1078 0.950 . S
C1083 C1081 1.390 . S
C1083 C1084 1.387 . S
C1083 H1086 0.950 . S
C1084 C1083 1.387 . S
C1084 C1087 1.387 . S
H1085 C1081 0.950 . S
H1086 C1083 0.950 . S
C1087 C1078 1.390 . S
C1087 H1080 0.950 . S
C1087 C1084 1.387 . S
C449 C64 1.515 . S
C454 C8 1.515 . S
C459 C78 1.517 . S
C464 C22 1.517 . S
C469 C92 1.515 . S
C474 C36 1.515 . S
C479 C50 1.515 . S
C484 C106 1.515 . S
C489 C120 1.515 . S
C494 C176 1.515 . S
C499 C190 1.517 . S
C504 C134 1.517 . S
C509 C148 1.515 . S
C514 C204 1.515 . S
C519 C218 1.516 . S
C524 C162 1.516 . S
C529 C232 1.515 . S
C534 C288 1.515 . S
C539 C302 1.515 . S
C544 C246 1.515 . S
C549 C316 1.517 . S
C554 C260 1.517 . S
C559 C330 1.515 . S
C564 C274 1.515 . S
C569 C344 1.515 . S
C574 C400 1.515 . S
C579 C358 1.515 . S
C584 C414 1.515 . S
C589 C372 1.515 . S
C594 C428 1.515 . S
C599 C386 1.515 . S
C604 C442 1.515 . S
C609 C7 1.337 1_565 S
C614 C105 1.337 . S
C619 C21 1.339 . S
C624 C63 1.338 1_545 S
C629 C35 1.338 1_545 S
C634 C77 1.338 . S
C639 C91 1.338 1_565 S
C644 C49 1.338 . S
C649 C217 1.338 . S
C654 C119 1.338 1_545 S
C659 C175 1.339 1_565 S
C664 C133 1.339 . S
C669 C189 1.337 . S
C674 C147 1.337 1_565 S
C679 C161 1.338 . S
C684 C203 1.338 1_545 S
C689 C329 1.338 . S
C694 C231 1.338 . S
C699 C287 1.338 . S
C704 C245 1.338 . S
C709 C301 1.338 . S
C714 C259 1.338 . S
C719 C273 1.338 . S
C724 C315 1.338 . S
C729 C343 1.338 . S
C734 C441 1.338 . S
C739 C357 1.338 . S
C744 C399 1.338 . S
C749 C371 1.338 . S
C754 C413 1.338 . S
C759 C427 1.338 . S
C764 C385 1.338 . S
C769 C9 1.473 . S
C774 C353 1.474 . S
C779 C23 1.472 . S
C784 C143 1.474 1_455 S
C789 C37 1.473 . S
C794 C381 1.474 . S
C799 C115 1.475 . S
C804 C51 1.473 . S
C809 C437 1.475 . S
C814 C65 1.472 . S
C819 C79 1.473 . S
C824 C171 1.475 . S
C829 C93 1.472 . S
C834 C409 1.475 . S
C839 C107 1.472 . S
C844 C199 1.475 1_455 S
C849 C241 1.474 . S
C854 C121 1.473 . S
C859 C31 1.474 1_655 S
C864 C135 1.473 . S
C869 C269 1.474 . S
C874 C149 1.473 . S
C879 C163 1.473 . S
C884 C3 1.474 . S
C889 C325 1.474 . S
C894 C177 1.473 . S
C899 C59 1.474 . S
C904 C191 1.473 . S
C909 C297 1.475 . S
C914 C205 1.472 . S
C919 C87 1.475 1_655 S
C924 C219 1.472 . S
C929 C129 1.475 . S
C934 C233 1.472 . S
C939 C247 1.472 . S
C944 C367 1.475 . S
C949 C261 1.473 . S
C954 C157 1.474 . S
C959 C275 1.472 . S
C964 C339 1.475 1_655 S
C969 C289 1.472 . S
C974 C213 1.475 . S
C979 C395 1.474 1_655 S
C984 C303 1.473 . S
C989 C317 1.472 . S
C994 C185 1.475 . S
C999 C331 1.472 . S
C1004 C423 1.474 . S
C1009 C345 1.472 . S
C1014 C17 1.475 . S
C1019 C359 1.473 . S
C1024 C255 1.475 . S
C1029 C45 1.475 . S
C1034 C373 1.472 . S
C1039 C227 1.475 1_455 S
C1044 C387 1.472 . S
C1049 C401 1.472 . S
C1054 C101 1.475 . S
C1059 C415 1.472 . S
C1064 C283 1.475 1_455 S
C1069 C73 1.475 . S
C1074 C429 1.472 . S
C1079 C311 1.475 . S
C1084 C443 1.473 . S
