# Generated by pormake.
# Topology umc, (4)-cn, num edge types: 1
# Building blocks:
#     Node 0, Type 0, BuildingBlock: ESEHIV_clean_sbu_0, # of connection points: 4
#     Node 1, Type 0, BuildingBlock: ESEHIV_clean_sbu_0, # of connection points: 4
#     Node 2, Type 0, BuildingBlock: ESEHIV_clean_sbu_0, # of connection points: 4
#     Node 3, Type 0, BuildingBlock: ESEHIV_clean_sbu_0, # of connection points: 4
#     Node 4, Type 0, BuildingBlock: ESEHIV_clean_sbu_0, # of connection points: 4
#     Node 5, Type 0, BuildingBlock: ESEHIV_clean_sbu_0, # of connection points: 4
#     Node 6, Type 0, BuildingBlock: ESEHIV_clean_sbu_0, # of connection points: 4
#     Node 7, Type 0, BuildingBlock: ESEHIV_clean_sbu_0, # of connection points: 4
#     Node 8, Type 0, BuildingBlock: ESEHIV_clean_sbu_0, # of connection points: 4
#     Node 9, Type 0, BuildingBlock: ESEHIV_clean_sbu_0, # of connection points: 4
#     Node 10, Type 0, BuildingBlock: ESEHIV_clean_sbu_0, # of connection points: 4
#     Node 11, Type 0, BuildingBlock: ESEHIV_clean_sbu_0, # of connection points: 4
#     Node 12, Type 0, BuildingBlock: ESEHIV_clean_sbu_0, # of connection points: 4
#     Node 13, Type 0, BuildingBlock: ESEHIV_clean_sbu_0, # of connection points: 4
#     Node 14, Type 0, BuildingBlock: ESEHIV_clean_sbu_0, # of connection points: 4
#     Node 15, Type 0, BuildingBlock: ESEHIV_clean_sbu_0, # of connection points: 4
#     Edge 16, Type (0, 0), BuildingBlock: OJICUG_clean_linker_0, # of connection points: 2
#     Edge 17, Type (0, 0), BuildingBlock: OJICUG_clean_linker_0, # of connection points: 2
#     Edge 18, Type (0, 0), BuildingBlock: OJICUG_clean_linker_0, # of connection points: 2
#     Edge 19, Type (0, 0), BuildingBlock: OJICUG_clean_linker_0, # of connection points: 2
#     Edge 20, Type (0, 0), BuildingBlock: OJICUG_clean_linker_0, # of connection points: 2
#     Edge 21, Type (0, 0), BuildingBlock: OJICUG_clean_linker_0, # of connection points: 2
#     Edge 22, Type (0, 0), BuildingBlock: OJICUG_clean_linker_0, # of connection points: 2
#     Edge 23, Type (0, 0), BuildingBlock: OJICUG_clean_linker_0, # of connection points: 2
#     Edge 24, Type (0, 0), BuildingBlock: OJICUG_clean_linker_0, # of connection points: 2
#     Edge 25, Type (0, 0), BuildingBlock: OJICUG_clean_linker_0, # of connection points: 2
#     Edge 26, Type (0, 0), BuildingBlock: OJICUG_clean_linker_0, # of connection points: 2
#     Edge 27, Type (0, 0), BuildingBlock: OJICUG_clean_linker_0, # of connection points: 2
#     Edge 28, Type (0, 0), BuildingBlock: OJICUG_clean_linker_0, # of connection points: 2
#     Edge 29, Type (0, 0), BuildingBlock: OJICUG_clean_linker_0, # of connection points: 2
#     Edge 30, Type (0, 0), BuildingBlock: OJICUG_clean_linker_0, # of connection points: 2
#     Edge 31, Type (0, 0), BuildingBlock: OJICUG_clean_linker_0, # of connection points: 2
#     Edge 32, Type (0, 0), BuildingBlock: OJICUG_clean_linker_0, # of connection points: 2
#     Edge 33, Type (0, 0), BuildingBlock: OJICUG_clean_linker_0, # of connection points: 2
#     Edge 34, Type (0, 0), BuildingBlock: OJICUG_clean_linker_0, # of connection points: 2
#     Edge 35, Type (0, 0), BuildingBlock: OJICUG_clean_linker_0, # of connection points: 2
#     Edge 36, Type (0, 0), BuildingBlock: OJICUG_clean_linker_0, # of connection points: 2
#     Edge 37, Type (0, 0), BuildingBlock: OJICUG_clean_linker_0, # of connection points: 2
#     Edge 38, Type (0, 0), BuildingBlock: OJICUG_clean_linker_0, # of connection points: 2
#     Edge 39, Type (0, 0), BuildingBlock: OJICUG_clean_linker_0, # of connection points: 2
#     Edge 40, Type (0, 0), BuildingBlock: OJICUG_clean_linker_0, # of connection points: 2
#     Edge 41, Type (0, 0), BuildingBlock: OJICUG_clean_linker_0, # of connection points: 2
#     Edge 42, Type (0, 0), BuildingBlock: OJICUG_clean_linker_0, # of connection points: 2
#     Edge 43, Type (0, 0), BuildingBlock: OJICUG_clean_linker_0, # of connection points: 2
#     Edge 44, Type (0, 0), BuildingBlock: OJICUG_clean_linker_0, # of connection points: 2
#     Edge 45, Type (0, 0), BuildingBlock: OJICUG_clean_linker_0, # of connection points: 2
#     Edge 46, Type (0, 0), BuildingBlock: OJICUG_clean_linker_0, # of connection points: 2
#     Edge 47, Type (0, 0), BuildingBlock: OJICUG_clean_linker_0, # of connection points: 2
# Relax obj value: 0.038
# Max RMSD: 0.094
# Mean RMSD: 0.093
data_MOF--net-umc--node1-ESEHIV_clean_sbu_0--edge1-OJICUG_clean_linker_0
_symmetry_space_group_name_H-M    P1
_symmetry_Int_Tables_number       1
_symmetry_cell_setting            triclinic
loop_
_symmetry_equiv_pos_as_xyz
'x, y, z'
_cell_length_a     45.300068
_cell_length_b     26.009632
_cell_length_c     39.825006
_cell_angle_alpha  90.072469
_cell_angle_beta   89.968986
_cell_angle_gamma 90.009948
loop_
_atom_site_label
_atom_site_type_symbol
_atom_site_fract_x
_atom_site_fract_y
_atom_site_fract_z
_atom_type_partial_charge
Cu0 Cu 0.39772 0.09744 0.3974 0.0
N1 N 0.43868 0.10259 0.39521 0.0
N2 N 0.4858 0.07706 0.39333 0.0
C3 C 0.45722 0.06226 0.39344 0.0
C4 C 0.48509 0.12895 0.3951 0.0
C5 C 0.45598 0.14457 0.39628 0.0
O6 O 0.38705 0.05012 0.36197 0.0
C7 C 0.36429 0.06206 0.45565 0.0
O8 O 0.34015 0.06209 0.4374 0.0
H9 H 0.44974 0.02274 0.39314 0.0
H10 H 0.44801 0.18367 0.39813 0.0
N11 N 0.38017 0.16076 0.38822 0.0
N12 N 0.34447 0.2189 0.38126 0.0
C13 C 0.3537 0.17777 0.39899 0.0
C14 C 0.38807 0.19266 0.36321 0.0
C15 C 0.36606 0.22854 0.35881 0.0
C16 C 0.36317 0.05178 0.34521 0.0
O17 O 0.34135 0.08113 0.35543 0.0
H18 H 0.34026 0.15775 0.41721 0.0
H19 H 0.40742 0.18776 0.34762 0.0
O20 O 0.38887 0.07427 0.44246 0.0
H21 H 0.50417 0.15396 0.39544 0.0
H22 H 0.36521 0.25762 0.33941 0.0
Cu23 Cu 0.67488 0.9231 0.39713 0.0
N24 N 0.63389 0.91852 0.39499 0.0
N25 N 0.58697 0.94507 0.39331 0.0
C26 C 0.61564 0.95927 0.3939 0.0
C27 C 0.5873 0.89312 0.39399 0.0
C28 C 0.61631 0.87686 0.39514 0.0
O29 O 0.68571 0.97026 0.36174 0.0
C30 C 0.70836 0.95844 0.45541 0.0
O31 O 0.73252 0.95831 0.43716 0.0
H32 H 0.62339 0.99862 0.39341 0.0
H33 H 0.624 0.83754 0.39642 0.0
N34 N 0.69229 0.85962 0.38792 0.0
N35 N 0.72803 0.80152 0.38092 0.0
C36 C 0.71872 0.84258 0.39874 0.0
C37 C 0.6845 0.8278 0.36278 0.0
C38 C 0.70653 0.79195 0.35836 0.0
C39 C 0.70954 0.9683 0.34487 0.0
O40 O 0.73126 0.93869 0.35495 0.0
H41 H 0.73209 0.86257 0.41705 0.0
H42 H 0.66523 0.8328 0.34709 0.0
O43 O 0.68377 0.94629 0.4422 0.0
H44 H 0.56801 0.8686 0.39441 0.0
H45 H 0.70747 0.76297 0.33885 0.0
Cu46 Cu 0.39781 0.92291 0.15847 0.0
N47 N 0.4388 0.91835 0.1606 0.0
N48 N 0.48573 0.94489 0.16227 0.0
C49 C 0.45707 0.95911 0.16155 0.0
C50 C 0.48538 0.89294 0.16181 0.0
C51 C 0.45637 0.87668 0.16066 0.0
O52 O 0.387 0.97019 0.19387 0.0
C53 C 0.36432 0.95805 0.10021 0.0
O54 O 0.34016 0.95796 0.11847 0.0
H55 H 0.44933 0.99847 0.16188 0.0
H56 H 0.44867 0.83735 0.15955 0.0
N57 N 0.38041 0.85947 0.1677 0.0
N58 N 0.34467 0.8014 0.17476 0.0
C59 C 0.35399 0.84235 0.1569 0.0
C60 C 0.3882 0.82782 0.19288 0.0
C61 C 0.36617 0.79199 0.19734 0.0
C62 C 0.36315 0.96829 0.21072 0.0
O63 O 0.34142 0.9387 0.20059 0.0
H64 H 0.34061 0.86223 0.13857 0.0
H65 H 0.40746 0.83295 0.20858 0.0
O66 O 0.38891 0.94594 0.1134 0.0
H67 H 0.50467 0.86841 0.16155 0.0
H68 H 0.36522 0.76314 0.21688 0.0
Cu69 Cu 0.67503 0.09702 0.15822 0.0
N70 N 0.63407 0.10225 0.16031 0.0
N71 N 0.58693 0.07681 0.16213 0.0
C72 C 0.61551 0.06197 0.16222 0.0
C73 C 0.58768 0.12867 0.16009 0.0
C74 C 0.61681 0.14423 0.15894 0.0
O75 O 0.68563 0.04991 0.19371 0.0
C76 C 0.70852 0.06136 0.10002 0.0
O77 O 0.73266 0.06158 0.11828 0.0
H78 H 0.62296 0.02246 0.16274 0.0
H79 H 0.6248 0.18329 0.1569 0.0
N80 N 0.69258 0.16039 0.16737 0.0
N81 N 0.72826 0.21862 0.1743 0.0
C82 C 0.71907 0.17734 0.15663 0.0
C83 C 0.68464 0.19248 0.19231 0.0
C84 C 0.70663 0.22841 0.19669 0.0
C85 C 0.70952 0.05156 0.21046 0.0
O86 O 0.73137 0.08078 0.2002 0.0
H87 H 0.73253 0.15721 0.13846 0.0
H88 H 0.66525 0.18769 0.20785 0.0
O89 O 0.68392 0.07357 0.1132 0.0
H90 H 0.56861 0.1537 0.15952 0.0
H91 H 0.70745 0.25765 0.21604 0.0
Cu92 Cu 0.67469 0.9232 0.65822 0.0
N93 N 0.6337 0.91869 0.66036 0.0
N94 N 0.58678 0.94529 0.66215 0.0
C95 C 0.61545 0.95946 0.66157 0.0
C96 C 0.5871 0.89334 0.66134 0.0
C97 C 0.6161 0.87705 0.66012 0.0
O98 O 0.68553 0.97037 0.69366 0.0
C99 C 0.70825 0.95843 0.6 0.0
O100 O 0.73238 0.9583 0.61826 0.0
H101 H 0.62322 0.9988 0.66215 0.0
H102 H 0.62377 0.83773 0.65874 0.0
N103 N 0.69204 0.8597 0.66737 0.0
N104 N 0.72775 0.80157 0.67439 0.0
C105 C 0.7185 0.84262 0.6566 0.0
C106 C 0.68417 0.82792 0.69245 0.0
C107 C 0.70617 0.79204 0.69689 0.0
C108 C 0.70939 0.96844 0.71045 0.0
O109 O 0.73111 0.93886 0.70025 0.0
H110 H 0.73193 0.86259 0.63835 0.0
H111 H 0.66486 0.83295 0.7081 0.0
O112 O 0.68364 0.94631 0.61317 0.0
H113 H 0.56779 0.86883 0.66087 0.0
H114 H 0.70705 0.76309 0.71637 0.0
Cu115 Cu 0.39754 0.09758 0.65856 0.0
N116 N 0.4385 0.10279 0.66073 0.0
N117 N 0.48562 0.07729 0.66253 0.0
C118 C 0.45704 0.06247 0.66241 0.0
C119 C 0.4849 0.12918 0.66085 0.0
C120 C 0.45578 0.14479 0.65972 0.0
O121 O 0.38688 0.05028 0.69394 0.0
C122 C 0.36418 0.06209 0.60025 0.0
O123 O 0.34001 0.06213 0.61849 0.0
H124 H 0.44957 0.02296 0.66265 0.0
H125 H 0.44781 0.18388 0.65794 0.0
N126 N 0.37994 0.16089 0.6678 0.0
N127 N 0.34421 0.219 0.6748 0.0
C128 C 0.35348 0.17785 0.65704 0.0
C129 C 0.3878 0.19284 0.69285 0.0
C130 C 0.36577 0.2287 0.69726 0.0
C131 C 0.36302 0.05194 0.71076 0.0
O132 O 0.3412 0.0813 0.70064 0.0
H133 H 0.34008 0.15779 0.63879 0.0
H134 H 0.40713 0.188 0.70844 0.0
O135 O 0.38875 0.07434 0.61347 0.0
H136 H 0.50398 0.15421 0.66053 0.0
H137 H 0.36488 0.25782 0.71669 0.0
Cu138 Cu 0.67508 0.09724 0.89737 0.0
N139 N 0.63412 0.10253 0.89535 0.0
N140 N 0.58697 0.07712 0.89355 0.0
C141 C 0.61554 0.06227 0.89338 0.0
C142 C 0.58774 0.12898 0.89572 0.0
C143 C 0.61687 0.14452 0.89685 0.0
O144 O 0.68563 0.05009 0.8618 0.0
C145 C 0.70855 0.06149 0.95547 0.0
O146 O 0.73269 0.06166 0.93719 0.0
H147 H 0.62299 0.02275 0.89275 0.0
H148 H 0.62487 0.18357 0.89898 0.0
N149 N 0.69267 0.16057 0.88829 0.0
N150 N 0.72841 0.21866 0.88128 0.0
C151 C 0.71922 0.1774 0.89891 0.0
C152 C 0.68469 0.19273 0.86346 0.0
C153 C 0.70672 0.22857 0.85903 0.0
C154 C 0.70951 0.05168 0.845 0.0
O155 O 0.73139 0.08086 0.85525 0.0
H156 H 0.73272 0.15719 0.91696 0.0
H157 H 0.66525 0.18804 0.84801 0.0
O158 O 0.68396 0.07378 0.94234 0.0
H159 H 0.56867 0.15402 0.89639 0.0
H160 H 0.7075 0.25784 0.83975 0.0
Cu161 Cu 0.39785 0.92318 0.89724 0.0
N162 N 0.43884 0.91866 0.89503 0.0
N163 N 0.48576 0.94522 0.89331 0.0
C164 C 0.4571 0.95943 0.89414 0.0
C165 C 0.48541 0.89327 0.89363 0.0
C166 C 0.45641 0.87699 0.89481 0.0
O167 O 0.38698 0.97041 0.86192 0.0
C168 C 0.36435 0.95824 0.9556 0.0
O169 O 0.3402 0.9581 0.93737 0.0
H170 H 0.44936 0.99878 0.89393 0.0
H171 H 0.44871 0.83766 0.89582 0.0
N172 N 0.38048 0.8597 0.88797 0.0
N173 N 0.34478 0.8015 0.88103 0.0
C174 C 0.35413 0.84245 0.89893 0.0
C175 C 0.38819 0.82814 0.86265 0.0
C176 C 0.36618 0.79222 0.85827 0.0
C177 C 0.36313 0.96844 0.84511 0.0
O178 O 0.34143 0.93877 0.85523 0.0
H179 H 0.34082 0.86223 0.91741 0.0
H180 H 0.40736 0.83337 0.84682 0.0
O181 O 0.38895 0.9462 0.94236 0.0
H182 H 0.5047 0.86874 0.89378 0.0
H183 H 0.36517 0.76342 0.83865 0.0
Cu184 Cu 0.89765 0.59761 0.39719 0.0
N185 N 0.93865 0.60218 0.3951 0.0
N186 N 0.98557 0.57563 0.39343 0.0
C187 C 0.9569 0.56143 0.39397 0.0
C188 C 0.98524 0.62758 0.39418 0.0
C189 C 0.95623 0.64385 0.39533 0.0
O190 O 0.88689 0.55043 0.36172 0.0
C191 C 0.86407 0.56231 0.45539 0.0
O192 O 0.83995 0.56242 0.43712 0.0
H193 H 0.94915 0.52208 0.39342 0.0
H194 H 0.94854 0.68316 0.39666 0.0
N195 N 0.88027 0.66108 0.38804 0.0
N196 N 0.84453 0.71916 0.38102 0.0
C197 C 0.8538 0.67812 0.39881 0.0
C198 C 0.88813 0.69289 0.36296 0.0
C199 C 0.8661 0.72873 0.35853 0.0
C200 C 0.86307 0.55234 0.34485 0.0
O201 O 0.84132 0.58191 0.35498 0.0
H202 H 0.84038 0.65812 0.41705 0.0
H203 H 0.90744 0.68788 0.34731 0.0
O204 O 0.88868 0.57446 0.44222 0.0
H205 H 1.00453 0.6521 0.39467 0.0
H206 H 0.86522 0.7577 0.33906 0.0
Cu207 Cu 0.17483 0.42333 0.39751 0.0
N208 N 0.13387 0.41816 0.39528 0.0
N209 N 0.08675 0.44367 0.39338 0.0
C210 C 0.11533 0.45848 0.39354 0.0
C211 C 0.08747 0.39178 0.39509 0.0
C212 C 0.11658 0.37617 0.39628 0.0
O213 O 0.18555 0.47065 0.36217 0.0
C214 C 0.20816 0.45874 0.45585 0.0
O215 O 0.23233 0.45871 0.43763 0.0
H216 H 0.1228 0.49799 0.39329 0.0
H217 H 0.12455 0.33708 0.39809 0.0
N218 N 0.1924 0.36001 0.38826 0.0
N219 N 0.22813 0.30188 0.38125 0.0
C220 C 0.21886 0.34301 0.39903 0.0
C221 C 0.18456 0.3281 0.36319 0.0
C222 C 0.20658 0.29223 0.35876 0.0
C223 C 0.20946 0.46899 0.34543 0.0
O224 O 0.23126 0.43964 0.35562 0.0
H225 H 0.23226 0.36303 0.4173 0.0
H226 H 0.16523 0.33299 0.34758 0.0
O227 O 0.18359 0.44651 0.44262 0.0
H228 H 0.06839 0.36675 0.39538 0.0
H229 H 0.20747 0.26315 0.33931 0.0
Cu230 Cu 0.89783 0.42316 0.15819 0.0
N231 N 0.93879 0.418 0.16034 0.0
N232 N 0.98592 0.44349 0.16225 0.0
C233 C 0.95734 0.45831 0.16214 0.0
C234 C 0.98518 0.3916 0.16042 0.0
C235 C 0.95607 0.37601 0.15922 0.0
O236 O 0.88716 0.47049 0.19362 0.0
C237 C 0.86438 0.45846 0.09998 0.0
O238 O 0.84025 0.45837 0.11827 0.0
H239 H 0.94988 0.49783 0.16249 0.0
H240 H 0.94809 0.33692 0.15735 0.0
N241 N 0.88029 0.35984 0.1674 0.0
N242 N 0.84459 0.30167 0.17437 0.0
C243 C 0.85385 0.34275 0.1566 0.0
C244 C 0.88813 0.32804 0.19248 0.0
C245 C 0.86613 0.29215 0.19688 0.0
C246 C 0.86325 0.46885 0.21037 0.0
O247 O 0.84144 0.43951 0.20013 0.0
H248 H 0.84045 0.36268 0.13832 0.0
H249 H 0.90745 0.33303 0.2081 0.0
O250 O 0.88898 0.44631 0.11313 0.0
H251 H 1.00426 0.36658 0.16006 0.0
H252 H 0.86523 0.26314 0.21633 0.0
Cu253 Cu 0.17504 0.59735 0.15871 0.0
N254 N 0.13406 0.60195 0.16082 0.0
N255 N 0.08712 0.57541 0.16244 0.0
C256 C 0.11579 0.5612 0.16188 0.0
C257 C 0.08747 0.62736 0.16177 0.0
C258 C 0.11649 0.64362 0.16065 0.0
O259 O 0.18581 0.55028 0.19416 0.0
C260 C 0.20856 0.56188 0.10044 0.0
O261 O 0.23272 0.56209 0.11866 0.0
H262 H 0.12353 0.52185 0.16236 0.0
H263 H 0.12419 0.68293 0.15938 0.0
N264 N 0.19244 0.66085 0.16785 0.0
N265 N 0.22817 0.719 0.17482 0.0
C266 C 0.21889 0.67787 0.15705 0.0
C267 C 0.18459 0.69276 0.19293 0.0
C268 C 0.20661 0.72865 0.19733 0.0
C269 C 0.20964 0.55225 0.21102 0.0
O270 O 0.23139 0.5818 0.2009 0.0
H271 H 0.23231 0.65781 0.1388 0.0
H272 H 0.16529 0.68781 0.2086 0.0
O273 O 0.18397 0.57404 0.11366 0.0
H274 H 0.06819 0.65189 0.16133 0.0
H275 H 0.20751 0.75771 0.21679 0.0
Cu276 Cu 0.17456 0.42328 0.65867 0.0
N277 N 0.13359 0.41813 0.66083 0.0
N278 N 0.08647 0.44367 0.66261 0.0
C279 C 0.11505 0.45847 0.66249 0.0
C280 C 0.08719 0.39176 0.66096 0.0
C281 C 0.1163 0.37614 0.65984 0.0
O282 O 0.18522 0.47056 0.69412 0.0
C283 C 0.20801 0.45872 0.60045 0.0
O284 O 0.23215 0.45867 0.61871 0.0
H285 H 0.12253 0.49798 0.66271 0.0
H286 H 0.12427 0.33704 0.65808 0.0
N287 N 0.19211 0.35995 0.66783 0.0
N288 N 0.22784 0.30186 0.67479 0.0
C289 C 0.21858 0.34295 0.65705 0.0
C290 C 0.18424 0.32808 0.69287 0.0
C291 C 0.20626 0.29223 0.69727 0.0
C292 C 0.20912 0.46888 0.71086 0.0
O293 O 0.23093 0.43955 0.70058 0.0
H294 H 0.232 0.36296 0.63881 0.0
H295 H 0.16491 0.333 0.70849 0.0
O296 O 0.18342 0.44649 0.61362 0.0
H297 H 0.06811 0.36674 0.66065 0.0
H298 H 0.20714 0.26319 0.71669 0.0
Cu299 Cu 0.89737 0.59751 0.6583 0.0
N300 N 0.93836 0.60212 0.66047 0.0
N301 N 0.98529 0.57561 0.66225 0.0
C302 C 0.95662 0.56139 0.66166 0.0
C303 C 0.98494 0.62755 0.66147 0.0
C304 C 0.95593 0.6438 0.66026 0.0
O305 O 0.88655 0.55029 0.69366 0.0
C306 C 0.86393 0.56223 0.59998 0.0
O307 O 0.83977 0.56232 0.61822 0.0
H308 H 0.94888 0.52204 0.66221 0.0
H309 H 0.94824 0.6831 0.6589 0.0
N310 N 0.87995 0.66097 0.66753 0.0
N311 N 0.84422 0.71909 0.67454 0.0
C312 C 0.85352 0.67802 0.65672 0.0
C313 C 0.88775 0.69279 0.69267 0.0
C314 C 0.86573 0.72866 0.69709 0.0
C315 C 0.86273 0.55221 0.71056 0.0
O316 O 0.841 0.58183 0.70053 0.0
H317 H 0.84015 0.65803 0.63841 0.0
H318 H 0.90703 0.6878 0.70835 0.0
O319 O 0.88851 0.57438 0.61321 0.0
H320 H 1.00423 0.65209 0.66102 0.0
H321 H 0.8648 0.75766 0.71659 0.0
Cu322 Cu 0.17492 0.5977 0.89779 0.0
N323 N 0.13397 0.60299 0.89575 0.0
N324 N 0.08683 0.57758 0.89383 0.0
C325 C 0.1154 0.56273 0.8937 0.0
C326 C 0.08758 0.62943 0.89606 0.0
C327 C 0.11671 0.64498 0.89727 0.0
O328 O 0.18547 0.55051 0.86223 0.0
C329 C 0.20842 0.56197 0.95587 0.0
O330 O 0.23253 0.56207 0.93756 0.0
H331 H 0.12285 0.52322 0.89303 0.0
H332 H 0.12471 0.68402 0.89945 0.0
N333 N 0.19253 0.66101 0.88868 0.0
N334 N 0.22832 0.719 0.88162 0.0
C335 C 0.21909 0.67779 0.89929 0.0
C336 C 0.18456 0.69315 0.86385 0.0
C337 C 0.20662 0.72894 0.85939 0.0
C338 C 0.20933 0.55215 0.8454 0.0
O339 O 0.2312 0.58137 0.85561 0.0
H340 H 0.23259 0.65756 0.91734 0.0
H341 H 0.16511 0.68848 0.8484 0.0
O342 O 0.18382 0.57428 0.94278 0.0
H343 H 0.06852 0.65446 0.89672 0.0
H344 H 0.20742 0.75817 0.84008 0.0
Cu345 Cu 0.89774 0.42346 0.897 0.0
N346 N 0.93872 0.419 0.8948 0.0
N347 N 0.98564 0.44562 0.89319 0.0
C348 C 0.95697 0.45979 0.89397 0.0
C349 C 0.98532 0.39367 0.89348 0.0
C350 C 0.95631 0.37736 0.8946 0.0
O351 O 0.88684 0.47065 0.86167 0.0
C352 C 0.86424 0.45851 0.95538 0.0
O353 O 0.84007 0.4583 0.93718 0.0
H354 H 0.94922 0.49914 0.89378 0.0
H355 H 0.94864 0.33801 0.89559 0.0
N356 N 0.88041 0.35994 0.88774 0.0
N357 N 0.84477 0.30162 0.8808 0.0
C358 C 0.85406 0.34263 0.89867 0.0
C359 C 0.88817 0.32834 0.86246 0.0
C360 C 0.86621 0.29235 0.85808 0.0
C361 C 0.86296 0.46871 0.84491 0.0
O362 O 0.84126 0.43908 0.85507 0.0
H363 H 0.84071 0.36242 0.91712 0.0
H364 H 0.90736 0.33359 0.84666 0.0
O365 O 0.88884 0.4465 0.94212 0.0
H366 H 1.00462 0.36916 0.89366 0.0
H367 H 0.86525 0.2635 0.83849 0.0
C368 C 0.33634 0.05616 0.51031 0.0
C369 C 0.36311 0.05385 0.49245 0.0
H370 H 0.31552 0.06039 0.55873 0.0
C371 C 0.38958 0.04824 0.51046 0.0
H372 H 0.31557 0.06038 0.49714 0.0
C373 C 0.38955 0.04824 0.54544 0.0
C374 C 0.36306 0.05386 0.56344 0.0
H375 H 0.41058 0.04564 0.49756 0.0
H376 H 0.41054 0.04565 0.55836 0.0
C377 C 0.33631 0.05616 0.54557 0.0
C378 C 0.683 0.97245 0.54519 0.0
C379 C 0.70945 0.96666 0.5632 0.0
H380 H 0.66204 0.97519 0.4973 0.0
C381 C 0.73622 0.96418 0.54535 0.0
H382 H 0.66199 0.97519 0.5581 0.0
C383 C 0.73625 0.96419 0.51009 0.0
C384 C 0.7095 0.96667 0.49222 0.0
H385 H 0.75698 0.95982 0.55851 0.0
H386 H 0.75703 0.95983 0.49693 0.0
C387 C 0.68302 0.97246 0.51022 0.0
C388 C 0.38964 0.97201 0.0454 0.0
C389 C 0.36317 0.96627 0.06341 0.0
H390 H 0.41065 0.97477 0.99751 0.0
C391 C 0.33641 0.96386 0.04555 0.0
H392 H 0.41063 0.97469 0.05832 0.0
C393 C 0.33642 0.96391 1.01029 0.0
C394 C 0.36318 0.96636 0.99242 0.0
H395 H 0.31563 0.95954 0.05872 0.0
H396 H 0.31565 0.95962 0.99713 0.0
C397 C 0.38965 0.97206 1.01043 0.0
C398 C 0.68327 0.04716 1.01025 0.0
C399 C 0.70973 0.05311 0.99224 0.0
H400 H 0.66227 0.0443 0.05814 0.0
C401 C 0.73648 0.05566 1.0101 0.0
H402 H 0.66228 0.04436 0.99734 0.0
C403 C 0.73648 0.05563 0.04536 0.0
C404 C 0.70971 0.05304 0.06322 0.0
H405 H 0.75725 0.06014 0.99693 0.0
H406 H 0.75724 0.06009 0.05852 0.0
C407 C 0.68326 0.04712 0.04522 0.0
C408 C 0.83606 0.55648 0.54529 0.0
C409 C 0.8628 0.55403 0.56317 0.0
H410 H 0.81534 0.56083 0.49686 0.0
C411 C 0.88929 0.5483 0.54517 0.0
H412 H 0.81528 0.5608 0.55845 0.0
C413 C 0.88932 0.54831 0.5102 0.0
C414 C 0.86287 0.55407 0.49218 0.0
H415 H 0.91027 0.54559 0.5581 0.0
H416 H 0.91033 0.54562 0.4973 0.0
C417 C 0.8361 0.5565 0.51003 0.0
C418 C 0.18274 0.47258 0.54563 0.0
C419 C 0.2092 0.46695 0.56365 0.0
H420 H 0.16179 0.47519 0.49773 0.0
C421 C 0.23598 0.46463 0.5458 0.0
H422 H 0.16173 0.47518 0.55854 0.0
C423 C 0.23602 0.46464 0.51054 0.0
C424 C 0.20927 0.46695 0.49267 0.0
H425 H 0.25675 0.4604 0.55898 0.0
H426 H 0.25681 0.46041 0.49739 0.0
C427 C 0.18278 0.47258 0.51066 0.0
C428 C 0.8896 0.47244 1.01016 0.0
C429 C 0.86312 0.46669 0.9922 0.0
H430 H 0.91064 0.47513 0.05801 0.0
C431 C 0.83637 0.46423 1.01011 0.0
H432 H 0.91058 0.47516 0.99721 0.0
C433 C 0.83641 0.46423 0.04537 0.0
C434 C 0.86319 0.46667 0.06318 0.0
H435 H 0.81559 0.45991 0.99698 0.0
H436 H 0.81565 0.45989 0.05857 0.0
C437 C 0.88964 0.47243 0.04513 0.0
C438 C 0.23644 0.55614 0.04573 0.0
C439 C 0.2097 0.5536 0.06364 0.0
H440 H 0.25716 0.5606 0.99727 0.0
C441 C 0.18323 0.54772 0.04568 0.0
H442 H 0.25722 0.56057 0.05886 0.0
C443 C 0.18319 0.54775 1.0107 0.0
C444 C 0.20963 0.55364 0.99265 0.0
H445 H 0.16225 0.54492 0.05863 0.0
H446 H 0.16219 0.54497 0.99782 0.0
C447 C 0.23641 0.55616 1.01047 0.0
C448 C 0.56331 0.02884 0.40578 0.0
C449 C 0.56151 0.97853 0.39292 0.0
H450 H 0.54077 0.09922 0.41641 0.0
C451 C 0.53442 0.9615 0.37979 0.0
H452 H 0.58364 0.04306 0.41659 0.0
C453 C 0.50975 0.99387 0.37963 0.0
C454 C 0.51149 0.04409 0.3927 0.0
H455 H 0.53234 0.92333 0.36921 0.0
H456 H 0.4894 0.97961 0.36891 0.0
C457 C 0.53864 0.06118 0.40567 0.0
C458 C 0.50947 0.02844 0.14948 0.0
C459 C 0.51119 0.97834 0.16262 0.0
H460 H 0.53209 0.09862 0.1386 0.0
C461 C 0.53821 0.96152 0.17602 0.0
H462 H 0.4892 0.04248 0.13847 0.0
C463 C 0.56289 0.99388 0.17615 0.0
C464 C 0.56123 0.04388 0.16279 0.0
H465 H 0.54023 0.92353 0.18681 0.0
H466 H 0.58319 0.97979 0.18708 0.0
C467 C 0.53415 0.06076 0.14957 0.0
C468 C 0.56313 0.02909 0.6499 0.0
C469 C 0.56133 0.97876 0.66265 0.0
H470 H 0.54059 0.09948 0.63945 0.0
C471 C 0.53424 0.96173 0.67579 0.0
H472 H 0.58346 0.04331 0.6391 0.0
C473 C 0.50957 0.9941 0.67605 0.0
C474 C 0.51132 0.04433 0.66307 0.0
H475 H 0.53215 0.92355 0.68629 0.0
H476 H 0.48922 0.97983 0.68676 0.0
C477 C 0.53847 0.06143 0.65011 0.0
C478 C 0.56291 0.99423 0.87937 0.0
C479 C 0.56126 0.04421 0.89285 0.0
H480 H 0.54024 0.9239 0.8686 0.0
C481 C 0.53419 0.06108 0.90617 0.0
H482 H 0.58321 0.98015 0.86838 0.0
C483 C 0.50951 0.02876 0.90623 0.0
C484 C 0.51123 0.97867 0.89297 0.0
H485 H 0.53214 0.09892 0.91722 0.0
H486 H 0.48924 0.04278 0.91731 0.0
C487 C 0.53823 0.96187 0.87948 0.0
C488 C 0.03814 0.5592 0.37993 0.0
C489 C 1.01103 0.54218 0.39302 0.0
H490 H 0.08319 0.54109 0.36907 0.0
C491 C 1.00922 0.49187 0.40581 0.0
H492 H 0.04024 0.59736 0.36941 0.0
C493 C 1.03388 0.45954 0.40568 0.0
C494 C 0.06106 0.47662 0.39276 0.0
H495 H 0.98887 0.47766 0.41658 0.0
H496 H 1.03175 0.42151 0.41637 0.0
C497 C 0.06282 0.52683 0.37976 0.0
C498 C 1.03456 0.55898 0.17594 0.0
C499 C 0.06166 0.54197 0.16279 0.0
H500 H 0.98952 0.54086 0.18679 0.0
C501 C 0.06345 0.49169 0.14987 0.0
H502 H 1.03248 0.59712 0.18656 0.0
C503 C 0.03877 0.45937 0.14994 0.0
C504 C 1.01162 0.47643 0.16292 0.0
H505 H 0.08379 0.47749 0.13905 0.0
H506 H 0.04089 0.42136 0.13915 0.0
C507 C 1.00988 0.52662 0.17605 0.0
C508 C 0.03783 0.55927 0.67585 0.0
C509 C 1.01075 0.54217 0.66273 0.0
H510 H 0.08285 0.54124 0.68681 0.0
C511 C 1.00897 0.49179 0.64998 0.0
H512 H 0.0399 0.5975 0.68635 0.0
C513 C 1.03364 0.45946 0.65018 0.0
C514 C 0.06078 0.47663 0.66314 0.0
H515 H 0.98866 0.47751 0.63918 0.0
H516 H 1.03153 0.42137 0.63952 0.0
C517 C 0.0625 0.52691 0.67611 0.0
C518 C 0.06281 0.49472 0.87949 0.0
C519 C 0.06112 0.54466 0.89303 0.0
H520 H 0.04017 0.4244 0.86858 0.0
C521 C 1.03402 0.56148 0.90629 0.0
H522 H 0.08312 0.48068 0.86853 0.0
C523 C 1.00935 0.52915 0.90625 0.0
C524 C 1.0111 0.4791 0.89294 0.0
H525 H 1.03194 0.59929 0.91738 0.0
H526 H 0.98905 0.54313 0.9173 0.0
C527 C 0.03813 0.46235 0.8795 0.0
C528 C 0.27195 0.27058 0.41194 0.0
C529 C 0.25732 0.2802 0.3815 0.0
H530 H 0.31142 0.24249 0.43563 0.0
C531 C 0.27194 0.26997 0.35112 0.0
H532 H 0.26107 0.2783 0.43562 0.0
C533 C 0.30072 0.25082 0.35112 0.0
C534 C 0.31527 0.24058 0.38151 0.0
H535 H 0.26127 0.27769 0.32734 0.0
H536 H 0.31143 0.24309 0.32734 0.0
C537 C 0.30058 0.2502 0.41194 0.0
C538 C 0.77191 0.76979 0.35081 0.0
C539 C 0.75726 0.77995 0.38118 0.0
H540 H 0.81148 0.74316 0.32707 0.0
C541 C 0.7719 0.77043 0.41163 0.0
H542 H 0.76124 0.77744 0.32702 0.0
C543 C 0.80057 0.75026 0.41165 0.0
C544 C 0.81531 0.74072 0.38123 0.0
H545 H 0.76099 0.77809 0.43531 0.0
H546 H 0.81141 0.74263 0.43535 0.0
C547 C 0.80074 0.75083 0.35084 0.0
C548 C 0.27211 0.74992 0.14413 0.0
C549 C 0.25739 0.7406 0.17457 0.0
H550 H 0.3117 0.77759 0.12042 0.0
C551 C 0.27196 0.75094 0.20494 0.0
H552 H 0.26127 0.74211 0.12044 0.0
C553 C 0.30079 0.76992 0.20493 0.0
C554 C 0.31544 0.77984 0.17454 0.0
H555 H 0.26123 0.74344 0.22873 0.0
H556 H 0.31146 0.77775 0.2287 0.0
C557 C 0.30079 0.7701 0.14411 0.0
C558 C 0.77218 0.24973 0.14365 0.0
C559 C 0.75745 0.24033 0.17408 0.0
H560 H 0.81172 0.27767 0.11999 0.0
C561 C 0.77197 0.25079 0.20446 0.0
H562 H 0.76137 0.24184 0.11995 0.0
C563 C 0.80075 0.26995 0.20448 0.0
C564 C 0.8154 0.27997 0.17411 0.0
H565 H 0.76122 0.24324 0.22824 0.0
H566 H 0.81139 0.27786 0.22827 0.0
C567 C 0.80081 0.27012 0.14367 0.0
C568 C 0.77153 0.76989 0.70459 0.0
C569 C 0.75697 0.77999 0.67419 0.0
H570 H 0.81102 0.74326 0.72842 0.0
C571 C 0.7717 0.77039 0.64378 0.0
H572 H 0.76079 0.77761 0.72836 0.0
C573 C 0.80036 0.75019 0.64381 0.0
C574 C 0.815 0.74069 0.67427 0.0
H575 H 0.76086 0.77801 0.62007 0.0
H576 H 0.81127 0.74249 0.62014 0.0
C577 C 0.80035 0.7509 0.70463 0.0
C578 C 0.27172 0.27053 0.64411 0.0
C579 C 0.25704 0.28022 0.67455 0.0
H580 H 0.31122 0.24241 0.62043 0.0
C581 C 0.27163 0.27009 0.70493 0.0
H582 H 0.26086 0.27817 0.62042 0.0
C583 C 0.30041 0.25097 0.70493 0.0
C584 C 0.31501 0.24066 0.67455 0.0
H585 H 0.26092 0.27787 0.72871 0.0
H586 H 0.3111 0.24332 0.72871 0.0
C587 C 0.30035 0.25018 0.64411 0.0
C588 C 0.77247 0.24953 0.91177 0.0
C589 C 0.75762 0.24029 0.8814 0.0
H590 H 0.81211 0.27733 0.9353 0.0
C591 C 0.77204 0.25085 0.85097 0.0
H592 H 0.76174 0.24156 0.93551 0.0
C593 C 0.80083 0.26998 0.85084 0.0
C594 C 0.8156 0.27985 0.88116 0.0
H595 H 0.7612 0.24342 0.82723 0.0
H596 H 0.81138 0.27799 0.82702 0.0
C597 C 0.80111 0.26988 0.91166 0.0
C598 C 0.27196 0.75104 0.85126 0.0
C599 C 0.25755 0.74052 0.88172 0.0
H600 H 0.31131 0.77802 0.82727 0.0
C601 C 0.27244 0.7497 0.91207 0.0
H602 H 0.26109 0.74366 0.82754 0.0
C603 C 0.30111 0.76992 0.91192 0.0
C604 C 0.31558 0.77984 0.88141 0.0
H605 H 0.26172 0.74176 0.93582 0.0
H606 H 0.31214 0.77731 0.93556 0.0
C607 C 0.30077 0.77004 0.85111 0.0
C608 C 0.38915 0.01906 0.29441 0.0
C609 C 0.36247 0.02872 0.31127 0.0
H610 H 0.41018 0.99399 0.24935 0.0
C611 C 0.33569 0.01958 0.29446 0.0
H612 H 0.41019 0.02631 0.30645 0.0
C613 C 0.33569 1.00032 0.26154 0.0
C614 C 0.36246 0.99133 0.24466 0.0
H615 H 0.31481 0.02703 0.3068 0.0
H616 H 0.3148 0.99276 0.24927 0.0
C617 C 0.38915 1.00114 0.26144 0.0
C618 C 0.737 0.01937 0.26114 0.0
C619 C 0.71021 0.0286 0.24438 0.0
H620 H 0.75789 0.99252 0.30628 0.0
C621 C 0.68353 0.01909 0.26127 0.0
H622 H 0.75788 0.0267 0.24878 0.0
C623 C 0.68355 1.00122 0.29422 0.0
C624 C 0.71023 0.99131 0.31095 0.0
H625 H 0.66249 0.02642 0.24927 0.0
H626 H 0.66251 0.99418 0.30634 0.0
C627 C 0.73701 1.00017 0.29404 0.0
C628 C 0.68347 0.01921 0.79421 0.0
C629 C 0.71016 0.02872 0.81104 0.0
H630 H 0.6624 0.99431 0.74915 0.0
C631 C 0.73693 0.01949 0.79419 0.0
H632 H 0.66244 0.02654 0.80628 0.0
C633 C 0.7369 1.0003 0.76126 0.0
C634 C 0.71011 0.99145 0.74441 0.0
H635 H 0.75783 0.02682 0.80651 0.0
H636 H 0.75778 0.99265 0.74895 0.0
C637 C 0.68344 1.00135 0.76123 0.0
C638 C 0.33562 1.00043 0.7944 0.0
C639 C 0.36241 0.99148 0.81121 0.0
H640 H 0.31469 0.02712 0.74923 0.0
C641 C 0.38908 1.00133 0.79439 0.0
H642 H 0.31474 0.99283 0.80671 0.0
C643 C 0.38905 0.01925 0.76145 0.0
C644 C 0.36236 0.02888 0.74466 0.0
H645 H 0.41012 0.99421 0.80642 0.0
H646 H 0.41008 0.02654 0.74938 0.0
C647 C 0.33559 0.01969 0.76151 0.0
C648 C 0.88918 0.50159 0.26117 0.0
C649 C 0.86252 0.49192 0.2443 0.0
H650 H 0.91015 0.52666 0.30624 0.0
C651 C 0.83571 0.50107 0.26109 0.0
H652 H 0.91023 0.49433 0.24914 0.0
C653 C 0.83567 0.52033 0.29401 0.0
C654 C 0.86242 0.52932 0.31091 0.0
H655 H 0.81484 0.49362 0.24874 0.0
H656 H 0.81476 0.5279 0.30627 0.0
C657 C 0.88913 0.51951 0.29414 0.0
C658 C 0.18354 0.50171 0.29467 0.0
C659 C 0.21019 0.49203 0.31152 0.0
H660 H 0.16256 0.52672 0.24963 0.0
C661 C 0.237 0.50113 0.29473 0.0
H662 H 0.16248 0.49449 0.3067 0.0
C663 C 0.23704 0.52033 0.26183 0.0
C664 C 0.21029 0.52931 0.24495 0.0
H665 H 0.25787 0.49367 0.30706 0.0
H666 H 0.25794 0.52785 0.24955 0.0
C667 C 0.18358 0.51957 0.26172 0.0
C668 C 0.18325 0.51958 0.79465 0.0
C669 C 0.20995 0.52918 0.81144 0.0
H670 H 0.16214 0.49461 0.74963 0.0
C671 C 0.23671 0.52004 0.79454 0.0
H672 H 0.16223 0.52684 0.80676 0.0
C673 C 0.23666 0.50086 0.76161 0.0
C674 C 0.20986 0.49191 0.7448 0.0
H675 H 0.25761 0.52745 0.80682 0.0
H676 H 0.25753 0.49329 0.74927 0.0
C677 C 0.1832 0.50172 0.76167 0.0
C678 C 0.8888 0.51943 0.76119 0.0
C679 C 0.86209 0.52916 0.74446 0.0
H680 H 0.90991 0.49431 0.80612 0.0
C681 C 0.83534 0.52008 0.76137 0.0
H682 H 0.90981 0.52665 0.74908 0.0
C683 C 0.83539 0.50081 0.79425 0.0
C684 C 0.8622 0.49175 0.811 0.0
H685 H 0.81443 0.52758 0.74913 0.0
H686 H 0.81453 0.49328 0.80661 0.0
C687 C 0.88886 0.5015 0.79413 0.0
loop_
_geom_bond_atom_site_label_1
_geom_bond_atom_site_label_2
_geom_bond_distance
_geom_bond_site_symmetry_2
_ccdc_geom_bond_type
Cu0 N1 1.999 . S
Cu0 O6 1.974 . S
Cu0 N11 1.985 . S
Cu0 O20 1.959 . S
N1 Cu0 1.999 . S
N1 C3 1.263 . S
N1 C5 1.389 . S
N2 C3 1.358 . S
N2 C4 1.400 . S
C3 N1 1.263 . S
C3 N2 1.358 . S
C3 H9 0.930 . S
C4 N2 1.400 . S
C4 C5 1.351 . S
C4 H21 0.930 . S
C5 N1 1.389 . S
C5 C4 1.351 . S
C5 H10 0.930 . S
O6 Cu0 1.974 . S
O6 C16 1.282 . S
C7 O8 1.261 . S
C7 O20 1.251 . S
O8 C7 1.261 . S
H9 C3 0.930 . S
H10 C5 0.930 . S
N11 Cu0 1.985 . S
N11 C13 1.335 . S
N11 C14 1.390 . S
N12 C13 1.345 . S
N12 C15 1.336 . S
C13 N11 1.335 . S
C13 N12 1.345 . S
C13 H18 0.930 . S
C14 N11 1.390 . S
C14 C15 1.346 . S
C14 H19 0.930 . S
C15 N12 1.336 . S
C15 C14 1.346 . S
C15 H22 0.929 . S
C16 O6 1.282 . S
C16 O17 1.216 . S
O17 C16 1.216 . S
H18 C13 0.930 . S
H19 C14 0.930 . S
O20 Cu0 1.959 . S
O20 C7 1.251 . S
H21 C4 0.930 . S
H22 C15 0.929 . S
Cu23 N24 1.999 . S
Cu23 O29 1.974 . S
Cu23 N34 1.985 . S
Cu23 O43 1.959 . S
N24 Cu23 1.999 . S
N24 C26 1.263 . S
N24 C28 1.389 . S
N25 C26 1.358 . S
N25 C27 1.400 . S
C26 N24 1.263 . S
C26 N25 1.358 . S
C26 H32 0.930 . S
C27 N25 1.400 . S
C27 C28 1.351 . S
C27 H44 0.930 . S
C28 N24 1.389 . S
C28 C27 1.351 . S
C28 H33 0.930 . S
O29 Cu23 1.974 . S
O29 C39 1.282 . S
C30 O31 1.261 . S
C30 O43 1.251 . S
O31 C30 1.261 . S
H32 C26 0.930 . S
H33 C28 0.930 . S
N34 Cu23 1.985 . S
N34 C36 1.335 . S
N34 C37 1.390 . S
N35 C36 1.345 . S
N35 C38 1.336 . S
C36 N34 1.335 . S
C36 N35 1.345 . S
C36 H41 0.930 . S
C37 N34 1.390 . S
C37 C38 1.346 . S
C37 H42 0.930 . S
C38 N35 1.336 . S
C38 C37 1.346 . S
C38 H45 0.929 . S
C39 O29 1.282 . S
C39 O40 1.216 . S
O40 C39 1.216 . S
H41 C36 0.930 . S
H42 C37 0.930 . S
O43 Cu23 1.959 . S
O43 C30 1.251 . S
H44 C27 0.930 . S
H45 C38 0.929 . S
Cu46 N47 1.999 . S
Cu46 O52 1.974 . S
Cu46 N57 1.985 . S
Cu46 O66 1.959 . S
N47 Cu46 1.999 . S
N47 C49 1.263 . S
N47 C51 1.389 . S
N48 C49 1.358 . S
N48 C50 1.400 . S
C49 N47 1.263 . S
C49 N48 1.358 . S
C49 H55 0.930 . S
C50 N48 1.400 . S
C50 C51 1.351 . S
C50 H67 0.930 . S
C51 N47 1.389 . S
C51 C50 1.351 . S
C51 H56 0.930 . S
O52 Cu46 1.974 . S
O52 C62 1.282 . S
C53 O54 1.261 . S
C53 O66 1.251 . S
O54 C53 1.261 . S
H55 C49 0.930 . S
H56 C51 0.930 . S
N57 Cu46 1.985 . S
N57 C59 1.335 . S
N57 C60 1.390 . S
N58 C59 1.345 . S
N58 C61 1.336 . S
C59 N57 1.335 . S
C59 N58 1.345 . S
C59 H64 0.930 . S
C60 N57 1.390 . S
C60 C61 1.346 . S
C60 H65 0.930 . S
C61 N58 1.336 . S
C61 C60 1.346 . S
C61 H68 0.929 . S
C62 O52 1.282 . S
C62 O63 1.216 . S
O63 C62 1.216 . S
H64 C59 0.930 . S
H65 C60 0.930 . S
O66 Cu46 1.959 . S
O66 C53 1.251 . S
H67 C50 0.930 . S
H68 C61 0.929 . S
Cu69 N70 1.999 . S
Cu69 O75 1.974 . S
Cu69 N80 1.985 . S
Cu69 O89 1.959 . S
N70 Cu69 1.999 . S
N70 C72 1.263 . S
N70 C74 1.389 . S
N71 C72 1.358 . S
N71 C73 1.400 . S
C72 N70 1.263 . S
C72 N71 1.358 . S
C72 H78 0.930 . S
C73 N71 1.400 . S
C73 C74 1.351 . S
C73 H90 0.930 . S
C74 N70 1.389 . S
C74 C73 1.351 . S
C74 H79 0.930 . S
O75 Cu69 1.974 . S
O75 C85 1.282 . S
C76 O77 1.261 . S
C76 O89 1.251 . S
O77 C76 1.261 . S
H78 C72 0.930 . S
H79 C74 0.930 . S
N80 Cu69 1.985 . S
N80 C82 1.335 . S
N80 C83 1.390 . S
N81 C82 1.345 . S
N81 C84 1.336 . S
C82 N80 1.335 . S
C82 N81 1.345 . S
C82 H87 0.930 . S
C83 N80 1.390 . S
C83 C84 1.346 . S
C83 H88 0.930 . S
C84 N81 1.336 . S
C84 C83 1.346 . S
C84 H91 0.929 . S
C85 O75 1.282 . S
C85 O86 1.216 . S
O86 C85 1.216 . S
H87 C82 0.930 . S
H88 C83 0.930 . S
O89 Cu69 1.959 . S
O89 C76 1.251 . S
H90 C73 0.930 . S
H91 C84 0.929 . S
Cu92 N93 1.999 . S
Cu92 O98 1.974 . S
Cu92 N103 1.985 . S
Cu92 O112 1.959 . S
N93 Cu92 1.999 . S
N93 C95 1.263 . S
N93 C97 1.389 . S
N94 C95 1.358 . S
N94 C96 1.400 . S
C95 N93 1.263 . S
C95 N94 1.358 . S
C95 H101 0.930 . S
C96 N94 1.400 . S
C96 C97 1.351 . S
C96 H113 0.930 . S
C97 N93 1.389 . S
C97 C96 1.351 . S
C97 H102 0.930 . S
O98 Cu92 1.974 . S
O98 C108 1.282 . S
C99 O100 1.261 . S
C99 O112 1.251 . S
O100 C99 1.261 . S
H101 C95 0.930 . S
H102 C97 0.930 . S
N103 Cu92 1.985 . S
N103 C105 1.335 . S
N103 C106 1.390 . S
N104 C105 1.345 . S
N104 C107 1.336 . S
C105 N103 1.335 . S
C105 N104 1.345 . S
C105 H110 0.930 . S
C106 N103 1.390 . S
C106 C107 1.346 . S
C106 H111 0.930 . S
C107 N104 1.336 . S
C107 C106 1.346 . S
C107 H114 0.929 . S
C108 O98 1.282 . S
C108 O109 1.216 . S
O109 C108 1.216 . S
H110 C105 0.930 . S
H111 C106 0.930 . S
O112 Cu92 1.959 . S
O112 C99 1.251 . S
H113 C96 0.930 . S
H114 C107 0.929 . S
Cu115 N116 1.999 . S
Cu115 O121 1.974 . S
Cu115 N126 1.985 . S
Cu115 O135 1.959 . S
N116 Cu115 1.999 . S
N116 C118 1.263 . S
N116 C120 1.389 . S
N117 C118 1.358 . S
N117 C119 1.400 . S
C118 N116 1.263 . S
C118 N117 1.358 . S
C118 H124 0.930 . S
C119 N117 1.400 . S
C119 C120 1.351 . S
C119 H136 0.930 . S
C120 N116 1.389 . S
C120 C119 1.351 . S
C120 H125 0.930 . S
O121 Cu115 1.974 . S
O121 C131 1.282 . S
C122 O123 1.261 . S
C122 O135 1.251 . S
O123 C122 1.261 . S
H124 C118 0.930 . S
H125 C120 0.930 . S
N126 Cu115 1.985 . S
N126 C128 1.335 . S
N126 C129 1.390 . S
N127 C128 1.345 . S
N127 C130 1.336 . S
C128 N126 1.335 . S
C128 N127 1.345 . S
C128 H133 0.930 . S
C129 N126 1.390 . S
C129 C130 1.346 . S
C129 H134 0.930 . S
C130 N127 1.336 . S
C130 C129 1.346 . S
C130 H137 0.929 . S
C131 O121 1.282 . S
C131 O132 1.216 . S
O132 C131 1.216 . S
H133 C128 0.930 . S
H134 C129 0.930 . S
O135 Cu115 1.959 . S
O135 C122 1.251 . S
H136 C119 0.930 . S
H137 C130 0.929 . S
Cu138 N139 1.999 . S
Cu138 O144 1.974 . S
Cu138 N149 1.985 . S
Cu138 O158 1.959 . S
N139 Cu138 1.999 . S
N139 C141 1.263 . S
N139 C143 1.389 . S
N140 C141 1.358 . S
N140 C142 1.400 . S
C141 N139 1.263 . S
C141 N140 1.358 . S
C141 H147 0.930 . S
C142 N140 1.400 . S
C142 C143 1.351 . S
C142 H159 0.930 . S
C143 N139 1.389 . S
C143 C142 1.351 . S
C143 H148 0.930 . S
O144 Cu138 1.974 . S
O144 C154 1.282 . S
C145 O146 1.261 . S
C145 O158 1.251 . S
O146 C145 1.261 . S
H147 C141 0.930 . S
H148 C143 0.930 . S
N149 Cu138 1.985 . S
N149 C151 1.335 . S
N149 C152 1.390 . S
N150 C151 1.345 . S
N150 C153 1.336 . S
C151 N149 1.335 . S
C151 N150 1.345 . S
C151 H156 0.930 . S
C152 N149 1.390 . S
C152 C153 1.346 . S
C152 H157 0.930 . S
C153 N150 1.336 . S
C153 C152 1.346 . S
C153 H160 0.929 . S
C154 O144 1.282 . S
C154 O155 1.216 . S
O155 C154 1.216 . S
H156 C151 0.930 . S
H157 C152 0.930 . S
O158 Cu138 1.959 . S
O158 C145 1.251 . S
H159 C142 0.930 . S
H160 C153 0.929 . S
Cu161 N162 1.999 . S
Cu161 O167 1.974 . S
Cu161 N172 1.985 . S
Cu161 O181 1.959 . S
N162 Cu161 1.999 . S
N162 C164 1.263 . S
N162 C166 1.389 . S
N163 C164 1.358 . S
N163 C165 1.400 . S
C164 N162 1.263 . S
C164 N163 1.358 . S
C164 H170 0.930 . S
C165 N163 1.400 . S
C165 C166 1.351 . S
C165 H182 0.930 . S
C166 N162 1.389 . S
C166 C165 1.351 . S
C166 H171 0.930 . S
O167 Cu161 1.974 . S
O167 C177 1.282 . S
C168 O169 1.261 . S
C168 O181 1.251 . S
O169 C168 1.261 . S
H170 C164 0.930 . S
H171 C166 0.930 . S
N172 Cu161 1.985 . S
N172 C174 1.335 . S
N172 C175 1.390 . S
N173 C174 1.345 . S
N173 C176 1.336 . S
C174 N172 1.335 . S
C174 N173 1.345 . S
C174 H179 0.930 . S
C175 N172 1.390 . S
C175 C176 1.346 . S
C175 H180 0.930 . S
C176 N173 1.336 . S
C176 C175 1.346 . S
C176 H183 0.929 . S
C177 O167 1.282 . S
C177 O178 1.216 . S
O178 C177 1.216 . S
H179 C174 0.930 . S
H180 C175 0.930 . S
O181 Cu161 1.959 . S
O181 C168 1.251 . S
H182 C165 0.930 . S
H183 C176 0.929 . S
Cu184 N185 1.999 . S
Cu184 O190 1.974 . S
Cu184 N195 1.985 . S
Cu184 O204 1.959 . S
N185 Cu184 1.999 . S
N185 C187 1.263 . S
N185 C189 1.389 . S
N186 C187 1.358 . S
N186 C188 1.400 . S
C187 N185 1.263 . S
C187 N186 1.358 . S
C187 H193 0.930 . S
C188 N186 1.400 . S
C188 C189 1.351 . S
C188 H205 0.930 . S
C189 N185 1.389 . S
C189 C188 1.351 . S
C189 H194 0.930 . S
O190 Cu184 1.974 . S
O190 C200 1.282 . S
C191 O192 1.261 . S
C191 O204 1.251 . S
O192 C191 1.261 . S
H193 C187 0.930 . S
H194 C189 0.930 . S
N195 Cu184 1.985 . S
N195 C197 1.335 . S
N195 C198 1.390 . S
N196 C197 1.345 . S
N196 C199 1.336 . S
C197 N195 1.335 . S
C197 N196 1.345 . S
C197 H202 0.930 . S
C198 N195 1.390 . S
C198 C199 1.346 . S
C198 H203 0.930 . S
C199 N196 1.336 . S
C199 C198 1.346 . S
C199 H206 0.929 . S
C200 O190 1.282 . S
C200 O201 1.216 . S
O201 C200 1.216 . S
H202 C197 0.930 . S
H203 C198 0.930 . S
O204 Cu184 1.959 . S
O204 C191 1.251 . S
H205 C188 0.930 . S
H206 C199 0.929 . S
Cu207 N208 1.999 . S
Cu207 O213 1.974 . S
Cu207 N218 1.985 . S
Cu207 O227 1.959 . S
N208 Cu207 1.999 . S
N208 C210 1.263 . S
N208 C212 1.389 . S
N209 C210 1.358 . S
N209 C211 1.400 . S
C210 N208 1.263 . S
C210 N209 1.358 . S
C210 H216 0.930 . S
C211 N209 1.400 . S
C211 C212 1.351 . S
C211 H228 0.930 . S
C212 N208 1.389 . S
C212 C211 1.351 . S
C212 H217 0.930 . S
O213 Cu207 1.974 . S
O213 C223 1.282 . S
C214 O215 1.261 . S
C214 O227 1.251 . S
O215 C214 1.261 . S
H216 C210 0.930 . S
H217 C212 0.930 . S
N218 Cu207 1.985 . S
N218 C220 1.335 . S
N218 C221 1.390 . S
N219 C220 1.345 . S
N219 C222 1.336 . S
C220 N218 1.335 . S
C220 N219 1.345 . S
C220 H225 0.930 . S
C221 N218 1.390 . S
C221 C222 1.346 . S
C221 H226 0.930 . S
C222 N219 1.336 . S
C222 C221 1.346 . S
C222 H229 0.929 . S
C223 O213 1.282 . S
C223 O224 1.216 . S
O224 C223 1.216 . S
H225 C220 0.930 . S
H226 C221 0.930 . S
O227 Cu207 1.959 . S
O227 C214 1.251 . S
H228 C211 0.930 . S
H229 C222 0.929 . S
Cu230 N231 1.999 . S
Cu230 O236 1.974 . S
Cu230 N241 1.985 . S
Cu230 O250 1.959 . S
N231 Cu230 1.999 . S
N231 C233 1.263 . S
N231 C235 1.389 . S
N232 C233 1.358 . S
N232 C234 1.400 . S
C233 N231 1.263 . S
C233 N232 1.358 . S
C233 H239 0.930 . S
C234 N232 1.400 . S
C234 C235 1.351 . S
C234 H251 0.930 . S
C235 N231 1.389 . S
C235 C234 1.351 . S
C235 H240 0.930 . S
O236 Cu230 1.974 . S
O236 C246 1.282 . S
C237 O238 1.261 . S
C237 O250 1.251 . S
O238 C237 1.261 . S
H239 C233 0.930 . S
H240 C235 0.930 . S
N241 Cu230 1.985 . S
N241 C243 1.335 . S
N241 C244 1.390 . S
N242 C243 1.345 . S
N242 C245 1.336 . S
C243 N241 1.335 . S
C243 N242 1.345 . S
C243 H248 0.930 . S
C244 N241 1.390 . S
C244 C245 1.346 . S
C244 H249 0.930 . S
C245 N242 1.336 . S
C245 C244 1.346 . S
C245 H252 0.929 . S
C246 O236 1.282 . S
C246 O247 1.216 . S
O247 C246 1.216 . S
H248 C243 0.930 . S
H249 C244 0.930 . S
O250 Cu230 1.959 . S
O250 C237 1.251 . S
H251 C234 0.930 . S
H252 C245 0.929 . S
Cu253 N254 1.999 . S
Cu253 O259 1.974 . S
Cu253 N264 1.985 . S
Cu253 O273 1.959 . S
N254 Cu253 1.999 . S
N254 C256 1.263 . S
N254 C258 1.389 . S
N255 C256 1.358 . S
N255 C257 1.400 . S
C256 N254 1.263 . S
C256 N255 1.358 . S
C256 H262 0.930 . S
C257 N255 1.400 . S
C257 C258 1.351 . S
C257 H274 0.930 . S
C258 N254 1.389 . S
C258 C257 1.351 . S
C258 H263 0.930 . S
O259 Cu253 1.974 . S
O259 C269 1.282 . S
C260 O261 1.261 . S
C260 O273 1.251 . S
O261 C260 1.261 . S
H262 C256 0.930 . S
H263 C258 0.930 . S
N264 Cu253 1.985 . S
N264 C266 1.335 . S
N264 C267 1.390 . S
N265 C266 1.345 . S
N265 C268 1.336 . S
C266 N264 1.335 . S
C266 N265 1.345 . S
C266 H271 0.930 . S
C267 N264 1.390 . S
C267 C268 1.346 . S
C267 H272 0.930 . S
C268 N265 1.336 . S
C268 C267 1.346 . S
C268 H275 0.929 . S
C269 O259 1.282 . S
C269 O270 1.216 . S
O270 C269 1.216 . S
H271 C266 0.930 . S
H272 C267 0.930 . S
O273 Cu253 1.959 . S
O273 C260 1.251 . S
H274 C257 0.930 . S
H275 C268 0.929 . S
Cu276 N277 1.999 . S
Cu276 O282 1.974 . S
Cu276 N287 1.985 . S
Cu276 O296 1.959 . S
N277 Cu276 1.999 . S
N277 C279 1.263 . S
N277 C281 1.389 . S
N278 C279 1.358 . S
N278 C280 1.400 . S
C279 N277 1.263 . S
C279 N278 1.358 . S
C279 H285 0.930 . S
C280 N278 1.400 . S
C280 C281 1.351 . S
C280 H297 0.930 . S
C281 N277 1.389 . S
C281 C280 1.351 . S
C281 H286 0.930 . S
O282 Cu276 1.974 . S
O282 C292 1.282 . S
C283 O284 1.261 . S
C283 O296 1.251 . S
O284 C283 1.261 . S
H285 C279 0.930 . S
H286 C281 0.930 . S
N287 Cu276 1.985 . S
N287 C289 1.335 . S
N287 C290 1.390 . S
N288 C289 1.345 . S
N288 C291 1.336 . S
C289 N287 1.335 . S
C289 N288 1.345 . S
C289 H294 0.930 . S
C290 N287 1.390 . S
C290 C291 1.346 . S
C290 H295 0.930 . S
C291 N288 1.336 . S
C291 C290 1.346 . S
C291 H298 0.929 . S
C292 O282 1.282 . S
C292 O293 1.216 . S
O293 C292 1.216 . S
H294 C289 0.930 . S
H295 C290 0.930 . S
O296 Cu276 1.959 . S
O296 C283 1.251 . S
H297 C280 0.930 . S
H298 C291 0.929 . S
Cu299 N300 1.999 . S
Cu299 O305 1.974 . S
Cu299 N310 1.985 . S
Cu299 O319 1.959 . S
N300 Cu299 1.999 . S
N300 C302 1.263 . S
N300 C304 1.389 . S
N301 C302 1.358 . S
N301 C303 1.400 . S
C302 N300 1.263 . S
C302 N301 1.358 . S
C302 H308 0.930 . S
C303 N301 1.400 . S
C303 C304 1.351 . S
C303 H320 0.930 . S
C304 N300 1.389 . S
C304 C303 1.351 . S
C304 H309 0.930 . S
O305 Cu299 1.974 . S
O305 C315 1.282 . S
C306 O307 1.261 . S
C306 O319 1.251 . S
O307 C306 1.261 . S
H308 C302 0.930 . S
H309 C304 0.930 . S
N310 Cu299 1.985 . S
N310 C312 1.335 . S
N310 C313 1.390 . S
N311 C312 1.345 . S
N311 C314 1.336 . S
C312 N310 1.335 . S
C312 N311 1.345 . S
C312 H317 0.930 . S
C313 N310 1.390 . S
C313 C314 1.346 . S
C313 H318 0.930 . S
C314 N311 1.336 . S
C314 C313 1.346 . S
C314 H321 0.929 . S
C315 O305 1.282 . S
C315 O316 1.216 . S
O316 C315 1.216 . S
H317 C312 0.930 . S
H318 C313 0.930 . S
O319 Cu299 1.959 . S
O319 C306 1.251 . S
H320 C303 0.930 . S
H321 C314 0.929 . S
Cu322 N323 1.999 . S
Cu322 O328 1.974 . S
Cu322 N333 1.985 . S
Cu322 O342 1.959 . S
N323 Cu322 1.999 . S
N323 C325 1.263 . S
N323 C327 1.389 . S
N324 C325 1.358 . S
N324 C326 1.400 . S
C325 N323 1.263 . S
C325 N324 1.358 . S
C325 H331 0.930 . S
C326 N324 1.400 . S
C326 C327 1.351 . S
C326 H343 0.930 . S
C327 N323 1.389 . S
C327 C326 1.351 . S
C327 H332 0.930 . S
O328 Cu322 1.974 . S
O328 C338 1.282 . S
C329 O330 1.261 . S
C329 O342 1.251 . S
O330 C329 1.261 . S
H331 C325 0.930 . S
H332 C327 0.930 . S
N333 Cu322 1.985 . S
N333 C335 1.335 . S
N333 C336 1.390 . S
N334 C335 1.345 . S
N334 C337 1.336 . S
C335 N333 1.335 . S
C335 N334 1.345 . S
C335 H340 0.930 . S
C336 N333 1.390 . S
C336 C337 1.346 . S
C336 H341 0.930 . S
C337 N334 1.336 . S
C337 C336 1.346 . S
C337 H344 0.929 . S
C338 O328 1.282 . S
C338 O339 1.216 . S
O339 C338 1.216 . S
H340 C335 0.930 . S
H341 C336 0.930 . S
O342 Cu322 1.959 . S
O342 C329 1.251 . S
H343 C326 0.930 . S
H344 C337 0.929 . S
Cu345 N346 1.999 . S
Cu345 O351 1.974 . S
Cu345 N356 1.985 . S
Cu345 O365 1.959 . S
N346 Cu345 1.999 . S
N346 C348 1.263 . S
N346 C350 1.389 . S
N347 C348 1.358 . S
N347 C349 1.400 . S
C348 N346 1.263 . S
C348 N347 1.358 . S
C348 H354 0.930 . S
C349 N347 1.400 . S
C349 C350 1.351 . S
C349 H366 0.930 . S
C350 N346 1.389 . S
C350 C349 1.351 . S
C350 H355 0.930 . S
O351 Cu345 1.974 . S
O351 C361 1.282 . S
C352 O353 1.261 . S
C352 O365 1.251 . S
O353 C352 1.261 . S
H354 C348 0.930 . S
H355 C350 0.930 . S
N356 Cu345 1.985 . S
N356 C358 1.335 . S
N356 C359 1.390 . S
N357 C358 1.345 . S
N357 C360 1.336 . S
C358 N356 1.335 . S
C358 N357 1.345 . S
C358 H363 0.930 . S
C359 N356 1.390 . S
C359 C360 1.346 . S
C359 H364 0.930 . S
C360 N357 1.336 . S
C360 C359 1.346 . S
C360 H367 0.929 . S
C361 O351 1.282 . S
C361 O362 1.216 . S
O362 C361 1.216 . S
H363 C358 0.930 . S
H364 C359 0.930 . S
O365 Cu345 1.959 . S
O365 C352 1.251 . S
H366 C349 0.930 . S
H367 C360 0.929 . S
C368 C369 1.387 . S
C368 H372 0.950 . S
C368 C377 1.390 . S
C369 C368 1.387 . S
C369 C371 1.387 . S
H370 C377 0.950 . S
C371 C369 1.387 . S
C371 C373 1.390 . S
C371 H375 0.950 . S
H372 C368 0.950 . S
C373 C371 1.390 . S
C373 C374 1.387 . S
C373 H376 0.950 . S
C374 C373 1.387 . S
C374 C377 1.387 . S
H375 C371 0.950 . S
H376 C373 0.950 . S
C377 C368 1.390 . S
C377 H370 0.950 . S
C377 C374 1.387 . S
C378 C379 1.387 . S
C378 H382 0.950 . S
C378 C387 1.390 . S
C379 C378 1.387 . S
C379 C381 1.387 . S
H380 C387 0.950 . S
C381 C379 1.387 . S
C381 C383 1.390 . S
C381 H385 0.950 . S
H382 C378 0.950 . S
C383 C381 1.390 . S
C383 C384 1.387 . S
C383 H386 0.950 . S
C384 C383 1.387 . S
C384 C387 1.387 . S
H385 C381 0.950 . S
H386 C383 0.950 . S
C387 C378 1.390 . S
C387 H380 0.950 . S
C387 C384 1.387 . S
C388 C389 1.387 . S
C388 H392 0.950 . S
C388 C397 1.390 1_554 S
C389 C388 1.387 . S
C389 C391 1.387 . S
H390 C397 0.950 . S
C391 C389 1.387 . S
C391 C393 1.390 1_554 S
C391 H395 0.950 . S
H392 C388 0.950 . S
C393 C391 1.390 1_556 S
C393 C394 1.387 . S
C393 H396 0.950 . S
C394 C393 1.387 . S
C394 C397 1.387 . S
H395 C391 0.950 . S
H396 C393 0.950 . S
C397 C388 1.390 1_556 S
C397 H390 0.950 . S
C397 C394 1.387 . S
C398 C399 1.387 . S
C398 H402 0.950 . S
C398 C407 1.390 1_556 S
C399 C398 1.387 . S
C399 C401 1.387 . S
H400 C407 0.950 . S
C401 C399 1.387 . S
C401 C403 1.390 1_556 S
C401 H405 0.950 . S
H402 C398 0.950 . S
C403 C401 1.390 1_554 S
C403 C404 1.387 . S
C403 H406 0.950 . S
C404 C403 1.387 . S
C404 C407 1.387 . S
H405 C401 0.950 . S
H406 C403 0.950 . S
C407 C398 1.390 1_554 S
C407 H400 0.950 . S
C407 C404 1.387 . S
C408 C409 1.387 . S
C408 H412 0.950 . S
C408 C417 1.390 . S
C409 C408 1.387 . S
C409 C411 1.387 . S
H410 C417 0.950 . S
C411 C409 1.387 . S
C411 C413 1.390 . S
C411 H415 0.950 . S
H412 C408 0.950 . S
C413 C411 1.390 . S
C413 C414 1.387 . S
C413 H416 0.950 . S
C414 C413 1.387 . S
C414 C417 1.387 . S
H415 C411 0.950 . S
H416 C413 0.950 . S
C417 C408 1.390 . S
C417 H410 0.950 . S
C417 C414 1.387 . S
C418 C419 1.387 . S
C418 H422 0.950 . S
C418 C427 1.390 . S
C419 C418 1.387 . S
C419 C421 1.387 . S
H420 C427 0.950 . S
C421 C419 1.387 . S
C421 C423 1.390 . S
C421 H425 0.950 . S
H422 C418 0.950 . S
C423 C421 1.390 . S
C423 C424 1.387 . S
C423 H426 0.950 . S
C424 C423 1.387 . S
C424 C427 1.387 . S
H425 C421 0.950 . S
H426 C423 0.950 . S
C427 C418 1.390 . S
C427 H420 0.950 . S
C427 C424 1.387 . S
C428 C429 1.387 . S
C428 H432 0.950 . S
C428 C437 1.390 1_556 S
C429 C428 1.387 . S
C429 C431 1.387 . S
H430 C437 0.950 . S
C431 C429 1.387 . S
C431 C433 1.390 1_556 S
C431 H435 0.950 . S
H432 C428 0.950 . S
C433 C431 1.390 1_554 S
C433 C434 1.387 . S
C433 H436 0.950 . S
C434 C433 1.387 . S
C434 C437 1.387 . S
H435 C431 0.950 . S
H436 C433 0.950 . S
C437 C428 1.390 1_554 S
C437 H430 0.950 . S
C437 C434 1.387 . S
C438 C439 1.387 . S
C438 H442 0.950 . S
C438 C447 1.390 1_554 S
C439 C438 1.387 . S
C439 C441 1.387 . S
H440 C447 0.950 . S
C441 C439 1.387 . S
C441 C443 1.390 1_554 S
C441 H445 0.950 . S
H442 C438 0.950 . S
C443 C441 1.390 1_556 S
C443 C444 1.387 . S
C443 H446 0.950 . S
C444 C443 1.387 . S
C444 C447 1.387 . S
H445 C441 0.950 . S
H446 C443 0.950 . S
C447 C438 1.390 1_556 S
C447 H440 0.950 . S
C447 C444 1.387 . S
C448 C449 1.387 . S
C448 H452 0.950 . S
C448 C457 1.390 1_565 S
C449 C448 1.387 . S
C449 C451 1.387 . S
H450 C457 0.950 . S
C451 C449 1.387 . S
C451 C453 1.390 1_565 S
C451 H455 0.950 . S
H452 C448 0.950 . S
C453 C451 1.390 1_545 S
C453 C454 1.387 . S
C453 H456 0.950 . S
C454 C453 1.387 . S
C454 C457 1.387 . S
H455 C451 0.950 . S
H456 C453 0.950 . S
C457 C448 1.390 1_545 S
C457 H450 0.950 . S
C457 C454 1.387 . S
C458 C459 1.387 . S
C458 H462 0.950 . S
C458 C467 1.390 1_565 S
C459 C458 1.387 . S
C459 C461 1.387 . S
H460 C467 0.950 . S
C461 C459 1.387 . S
C461 C463 1.390 1_565 S
C461 H465 0.950 . S
H462 C458 0.950 . S
C463 C461 1.390 1_545 S
C463 C464 1.387 . S
C463 H466 0.950 . S
C464 C463 1.387 . S
C464 C467 1.387 . S
H465 C461 0.950 . S
H466 C463 0.950 . S
C467 C458 1.390 1_545 S
C467 H460 0.950 . S
C467 C464 1.387 . S
C468 C469 1.387 . S
C468 H472 0.950 . S
C468 C477 1.390 1_565 S
C469 C468 1.387 . S
C469 C471 1.387 . S
H470 C477 0.950 . S
C471 C469 1.387 . S
C471 C473 1.390 1_565 S
C471 H475 0.950 . S
H472 C468 0.950 . S
C473 C471 1.390 1_545 S
C473 C474 1.387 . S
C473 H476 0.950 . S
C474 C473 1.387 . S
C474 C477 1.387 . S
H475 C471 0.950 . S
H476 C473 0.950 . S
C477 C468 1.390 1_545 S
C477 H470 0.950 . S
C477 C474 1.387 . S
C478 C479 1.387 . S
C478 H482 0.950 . S
C478 C487 1.390 1_545 S
C479 C478 1.387 . S
C479 C481 1.387 . S
H480 C487 0.950 . S
C481 C479 1.387 . S
C481 C483 1.390 1_545 S
C481 H485 0.950 . S
H482 C478 0.950 . S
C483 C481 1.390 1_565 S
C483 C484 1.387 . S
C483 H486 0.950 . S
C484 C483 1.387 . S
C484 C487 1.387 . S
H485 C481 0.950 . S
H486 C483 0.950 . S
C487 C478 1.390 1_565 S
C487 H480 0.950 . S
C487 C484 1.387 . S
C488 C489 1.387 . S
C488 H492 0.950 . S
C488 C497 1.390 1_655 S
C489 C488 1.387 . S
C489 C491 1.387 . S
H490 C497 0.950 . S
C491 C489 1.387 . S
C491 C493 1.390 1_655 S
C491 H495 0.950 . S
H492 C488 0.950 . S
C493 C491 1.390 1_455 S
C493 C494 1.387 . S
C493 H496 0.950 . S
C494 C493 1.387 . S
C494 C497 1.387 . S
H495 C491 0.950 . S
H496 C493 0.950 . S
C497 C488 1.390 1_455 S
C497 H490 0.950 . S
C497 C494 1.387 . S
C498 C499 1.387 . S
C498 H502 0.950 . S
C498 C507 1.390 1_455 S
C499 C498 1.387 . S
C499 C501 1.387 . S
H500 C507 0.950 . S
C501 C499 1.387 . S
C501 C503 1.390 1_455 S
C501 H505 0.950 . S
H502 C498 0.950 . S
C503 C501 1.390 1_655 S
C503 C504 1.387 . S
C503 H506 0.950 . S
C504 C503 1.387 . S
C504 C507 1.387 . S
H505 C501 0.950 . S
H506 C503 0.950 . S
C507 C498 1.390 1_655 S
C507 H500 0.950 . S
C507 C504 1.387 . S
C508 C509 1.387 . S
C508 H512 0.950 . S
C508 C517 1.390 1_655 S
C509 C508 1.387 . S
C509 C511 1.387 . S
H510 C517 0.950 . S
C511 C509 1.387 . S
C511 C513 1.390 1_655 S
C511 H515 0.950 . S
H512 C508 0.950 . S
C513 C511 1.390 1_455 S
C513 C514 1.387 . S
C513 H516 0.950 . S
C514 C513 1.387 . S
C514 C517 1.387 . S
H515 C511 0.950 . S
H516 C513 0.950 . S
C517 C508 1.390 1_455 S
C517 H510 0.950 . S
C517 C514 1.387 . S
C518 C519 1.387 . S
C518 H522 0.950 . S
C518 C527 1.390 1_455 S
C519 C518 1.387 . S
C519 C521 1.387 . S
H520 C527 0.950 . S
C521 C519 1.387 . S
C521 C523 1.390 1_455 S
C521 H525 0.950 . S
H522 C518 0.950 . S
C523 C521 1.390 1_655 S
C523 C524 1.387 . S
C523 H526 0.950 . S
C524 C523 1.387 . S
C524 C527 1.387 . S
H525 C521 0.950 . S
H526 C523 0.950 . S
C527 C518 1.390 1_655 S
C527 H520 0.950 . S
C527 C524 1.387 . S
C528 C529 1.387 . S
C528 H532 0.950 . S
C528 C537 1.390 . S
C529 C528 1.387 . S
C529 C531 1.387 . S
H530 C537 0.950 . S
C531 C529 1.387 . S
C531 C533 1.390 . S
C531 H535 0.950 . S
H532 C528 0.950 . S
C533 C531 1.390 . S
C533 C534 1.387 . S
C533 H536 0.950 . S
C534 C533 1.387 . S
C534 C537 1.387 . S
H535 C531 0.950 . S
H536 C533 0.950 . S
C537 C528 1.390 . S
C537 H530 0.950 . S
C537 C534 1.387 . S
C538 C539 1.387 . S
C538 H542 0.950 . S
C538 C547 1.390 . S
C539 C538 1.387 . S
C539 C541 1.387 . S
H540 C547 0.950 . S
C541 C539 1.387 . S
C541 C543 1.390 . S
C541 H545 0.950 . S
H542 C538 0.950 . S
C543 C541 1.390 . S
C543 C544 1.387 . S
C543 H546 0.950 . S
C544 C543 1.387 . S
C544 C547 1.387 . S
H545 C541 0.950 . S
H546 C543 0.950 . S
C547 C538 1.390 . S
C547 H540 0.950 . S
C547 C544 1.387 . S
C548 C549 1.387 . S
C548 H552 0.950 . S
C548 C557 1.390 . S
C549 C548 1.387 . S
C549 C551 1.387 . S
H550 C557 0.950 . S
C551 C549 1.387 . S
C551 C553 1.390 . S
C551 H555 0.950 . S
H552 C548 0.950 . S
C553 C551 1.390 . S
C553 C554 1.387 . S
C553 H556 0.950 . S
C554 C553 1.387 . S
C554 C557 1.387 . S
H555 C551 0.950 . S
H556 C553 0.950 . S
C557 C548 1.390 . S
C557 H550 0.950 . S
C557 C554 1.387 . S
C558 C559 1.387 . S
C558 H562 0.950 . S
C558 C567 1.390 . S
C559 C558 1.387 . S
C559 C561 1.387 . S
H560 C567 0.950 . S
C561 C559 1.387 . S
C561 C563 1.390 . S
C561 H565 0.950 . S
H562 C558 0.950 . S
C563 C561 1.390 . S
C563 C564 1.387 . S
C563 H566 0.950 . S
C564 C563 1.387 . S
C564 C567 1.387 . S
H565 C561 0.950 . S
H566 C563 0.950 . S
C567 C558 1.390 . S
C567 H560 0.950 . S
C567 C564 1.387 . S
C568 C569 1.387 . S
C568 H572 0.950 . S
C568 C577 1.390 . S
C569 C568 1.387 . S
C569 C571 1.387 . S
H570 C577 0.950 . S
C571 C569 1.387 . S
C571 C573 1.390 . S
C571 H575 0.950 . S
H572 C568 0.950 . S
C573 C571 1.390 . S
C573 C574 1.387 . S
C573 H576 0.950 . S
C574 C573 1.387 . S
C574 C577 1.387 . S
H575 C571 0.950 . S
H576 C573 0.950 . S
C577 C568 1.390 . S
C577 H570 0.950 . S
C577 C574 1.387 . S
C578 C579 1.387 . S
C578 H582 0.950 . S
C578 C587 1.390 . S
C579 C578 1.387 . S
C579 C581 1.387 . S
H580 C587 0.950 . S
C581 C579 1.387 . S
C581 C583 1.390 . S
C581 H585 0.950 . S
H582 C578 0.950 . S
C583 C581 1.390 . S
C583 C584 1.387 . S
C583 H586 0.950 . S
C584 C583 1.387 . S
C584 C587 1.387 . S
H585 C581 0.950 . S
H586 C583 0.950 . S
C587 C578 1.390 . S
C587 H580 0.950 . S
C587 C584 1.387 . S
C588 C589 1.387 . S
C588 H592 0.950 . S
C588 C597 1.390 . S
C589 C588 1.387 . S
C589 C591 1.387 . S
H590 C597 0.950 . S
C591 C589 1.387 . S
C591 C593 1.390 . S
C591 H595 0.950 . S
H592 C588 0.950 . S
C593 C591 1.390 . S
C593 C594 1.387 . S
C593 H596 0.950 . S
C594 C593 1.387 . S
C594 C597 1.387 . S
H595 C591 0.950 . S
H596 C593 0.950 . S
C597 C588 1.390 . S
C597 H590 0.950 . S
C597 C594 1.387 . S
C598 C599 1.387 . S
C598 H602 0.950 . S
C598 C607 1.390 . S
C599 C598 1.387 . S
C599 C601 1.387 . S
H600 C607 0.950 . S
C601 C599 1.387 . S
C601 C603 1.390 . S
C601 H605 0.950 . S
H602 C598 0.950 . S
C603 C601 1.390 . S
C603 C604 1.387 . S
C603 H606 0.950 . S
C604 C603 1.387 . S
C604 C607 1.387 . S
H605 C601 0.950 . S
H606 C603 0.950 . S
C607 C598 1.390 . S
C607 H600 0.950 . S
C607 C604 1.387 . S
C608 C609 1.387 . S
C608 H612 0.950 . S
C608 C617 1.390 1_545 S
C609 C608 1.387 . S
C609 C611 1.387 . S
H610 C617 0.950 . S
C611 C609 1.387 . S
C611 C613 1.390 1_545 S
C611 H615 0.950 . S
H612 C608 0.950 . S
C613 C611 1.390 1_565 S
C613 C614 1.387 . S
C613 H616 0.950 . S
C614 C613 1.387 . S
C614 C617 1.387 . S
H615 C611 0.950 . S
H616 C613 0.950 . S
C617 C608 1.390 1_565 S
C617 H610 0.950 . S
C617 C614 1.387 . S
C618 C619 1.387 . S
C618 H622 0.950 . S
C618 C627 1.390 1_545 S
C619 C618 1.387 . S
C619 C621 1.387 . S
H620 C627 0.950 . S
C621 C619 1.387 . S
C621 C623 1.390 1_545 S
C621 H625 0.950 . S
H622 C618 0.950 . S
C623 C621 1.390 1_565 S
C623 C624 1.387 . S
C623 H626 0.950 . S
C624 C623 1.387 . S
C624 C627 1.387 . S
H625 C621 0.950 . S
H626 C623 0.950 . S
C627 C618 1.390 1_565 S
C627 H620 0.950 . S
C627 C624 1.387 . S
C628 C629 1.387 . S
C628 H632 0.950 . S
C628 C637 1.390 1_545 S
C629 C628 1.387 . S
C629 C631 1.387 . S
H630 C637 0.950 . S
C631 C629 1.387 . S
C631 C633 1.390 1_545 S
C631 H635 0.950 . S
H632 C628 0.950 . S
C633 C631 1.390 1_565 S
C633 C634 1.387 . S
C633 H636 0.950 . S
C634 C633 1.387 . S
C634 C637 1.387 . S
H635 C631 0.950 . S
H636 C633 0.950 . S
C637 C628 1.390 1_565 S
C637 H630 0.950 . S
C637 C634 1.387 . S
C638 C639 1.387 . S
C638 H642 0.950 . S
C638 C647 1.390 1_565 S
C639 C638 1.387 . S
C639 C641 1.387 . S
H640 C647 0.950 . S
C641 C639 1.387 . S
C641 C643 1.390 1_565 S
C641 H645 0.950 . S
H642 C638 0.950 . S
C643 C641 1.390 1_545 S
C643 C644 1.387 . S
C643 H646 0.950 . S
C644 C643 1.387 . S
C644 C647 1.387 . S
H645 C641 0.950 . S
H646 C643 0.950 . S
C647 C638 1.390 1_545 S
C647 H640 0.950 . S
C647 C644 1.387 . S
C648 C649 1.387 . S
C648 H652 0.950 . S
C648 C657 1.390 . S
C649 C648 1.387 . S
C649 C651 1.387 . S
H650 C657 0.950 . S
C651 C649 1.387 . S
C651 C653 1.390 . S
C651 H655 0.950 . S
H652 C648 0.950 . S
C653 C651 1.390 . S
C653 C654 1.387 . S
C653 H656 0.950 . S
C654 C653 1.387 . S
C654 C657 1.387 . S
H655 C651 0.950 . S
H656 C653 0.950 . S
C657 C648 1.390 . S
C657 H650 0.950 . S
C657 C654 1.387 . S
C658 C659 1.387 . S
C658 H662 0.950 . S
C658 C667 1.390 . S
C659 C658 1.387 . S
C659 C661 1.387 . S
H660 C667 0.950 . S
C661 C659 1.387 . S
C661 C663 1.390 . S
C661 H665 0.950 . S
H662 C658 0.950 . S
C663 C661 1.390 . S
C663 C664 1.387 . S
C663 H666 0.950 . S
C664 C663 1.387 . S
C664 C667 1.387 . S
H665 C661 0.950 . S
H666 C663 0.950 . S
C667 C658 1.390 . S
C667 H660 0.950 . S
C667 C664 1.387 . S
C668 C669 1.387 . S
C668 H672 0.950 . S
C668 C677 1.390 . S
C669 C668 1.387 . S
C669 C671 1.387 . S
H670 C677 0.950 . S
C671 C669 1.387 . S
C671 C673 1.390 . S
C671 H675 0.950 . S
H672 C668 0.950 . S
C673 C671 1.390 . S
C673 C674 1.387 . S
C673 H676 0.950 . S
C674 C673 1.387 . S
C674 C677 1.387 . S
H675 C671 0.950 . S
H676 C673 0.950 . S
C677 C668 1.390 . S
C677 H670 0.950 . S
C677 C674 1.387 . S
C678 C679 1.387 . S
C678 H682 0.950 . S
C678 C687 1.390 . S
C679 C678 1.387 . S
C679 C681 1.387 . S
H680 C687 0.950 . S
C681 C679 1.387 . S
C681 C683 1.390 . S
C681 H685 0.950 . S
H682 C678 0.950 . S
C683 C681 1.390 . S
C683 C684 1.387 . S
C683 H686 0.950 . S
C684 C683 1.387 . S
C684 C687 1.387 . S
H685 C681 0.950 . S
H686 C683 0.950 . S
C687 C678 1.390 . S
C687 H680 0.950 . S
C687 C684 1.387 . S
C369 C7 1.645 . S
C374 C122 1.646 . S
C379 C99 1.646 . S
C384 C30 1.645 . S
C389 C53 1.646 . S
C394 C168 1.646 . S
C399 C145 1.646 . S
C404 C76 1.646 . S
C409 C306 1.645 . S
C414 C191 1.646 . S
C419 C283 1.646 . S
C424 C214 1.646 . S
C429 C352 1.646 . S
C434 C237 1.646 . S
C439 C260 1.646 . S
C444 C329 1.646 . S
C449 N25 1.454 . S
C454 N2 1.454 . S
C459 N48 1.453 . S
C464 N71 1.453 . S
C469 N94 1.456 . S
C474 N117 1.456 . S
C479 N140 1.453 . S
C484 N163 1.453 . S
C489 N186 1.456 . S
C494 N209 1.456 . S
C499 N255 1.456 . S
C504 N232 1.456 . S
C509 N301 1.454 . S
C514 N278 1.454 . S
C519 N324 1.453 . S
C524 N347 1.453 . S
C529 N219 1.467 . S
C534 N12 1.467 . S
C539 N35 1.468 . S
C544 N196 1.468 . S
C549 N265 1.467 . S
C554 N58 1.467 . S
C559 N81 1.467 . S
C564 N242 1.467 . S
C569 N104 1.467 . S
C574 N311 1.467 . S
C579 N288 1.468 . S
C584 N127 1.468 . S
C589 N150 1.468 . S
C594 N357 1.468 . S
C599 N334 1.467 . S
C604 N173 1.467 . S
C609 C16 1.618 . S
C614 C62 1.618 . S
C619 C85 1.616 . S
C624 C39 1.616 . S
C629 C154 1.616 . S
C634 C108 1.616 . S
C639 C177 1.618 . S
C644 C131 1.618 . S
C649 C246 1.618 . S
C654 C200 1.618 . S
C659 C223 1.618 . S
C664 C269 1.618 . S
C669 C338 1.616 . S
C674 C292 1.616 . S
C679 C315 1.616 . S
C684 C361 1.616 . S
