# Generated by pormake.
# Topology wkl, (6)-cn, num edge types: 1
# Building blocks:
#     Node 0, Type 0, BuildingBlock: IZENUY_clean_sbu_0, # of connection points: 6
#     Node 1, Type 0, BuildingBlock: IZENUY_clean_sbu_0, # of connection points: 6
#     Node 2, Type 0, BuildingBlock: IZENUY_clean_sbu_0, # of connection points: 6
#     Node 3, Type 0, BuildingBlock: IZENUY_clean_sbu_0, # of connection points: 6
#     Node 4, Type 0, BuildingBlock: IZENUY_clean_sbu_0, # of connection points: 6
#     Node 5, Type 0, BuildingBlock: IZENUY_clean_sbu_0, # of connection points: 6
#     Node 6, Type 0, BuildingBlock: IZENUY_clean_sbu_0, # of connection points: 6
#     Node 7, Type 0, BuildingBlock: IZENUY_clean_sbu_0, # of connection points: 6
#     Node 8, Type 0, BuildingBlock: IZENUY_clean_sbu_0, # of connection points: 6
#     Node 9, Type 0, BuildingBlock: IZENUY_clean_sbu_0, # of connection points: 6
#     Node 10, Type 0, BuildingBlock: IZENUY_clean_sbu_0, # of connection points: 6
#     Node 11, Type 0, BuildingBlock: IZENUY_clean_sbu_0, # of connection points: 6
#     Edge 12, Type (0, 0), BuildingBlock: CIFDUS_clean_linker_0, # of connection points: 2
#     Edge 13, Type (0, 0), BuildingBlock: CIFDUS_clean_linker_0, # of connection points: 2
#     Edge 14, Type (0, 0), BuildingBlock: CIFDUS_clean_linker_0, # of connection points: 2
#     Edge 15, Type (0, 0), BuildingBlock: CIFDUS_clean_linker_0, # of connection points: 2
#     Edge 16, Type (0, 0), BuildingBlock: CIFDUS_clean_linker_0, # of connection points: 2
#     Edge 17, Type (0, 0), BuildingBlock: CIFDUS_clean_linker_0, # of connection points: 2
#     Edge 18, Type (0, 0), BuildingBlock: CIFDUS_clean_linker_0, # of connection points: 2
#     Edge 19, Type (0, 0), BuildingBlock: CIFDUS_clean_linker_0, # of connection points: 2
#     Edge 20, Type (0, 0), BuildingBlock: CIFDUS_clean_linker_0, # of connection points: 2
#     Edge 21, Type (0, 0), BuildingBlock: CIFDUS_clean_linker_0, # of connection points: 2
#     Edge 22, Type (0, 0), BuildingBlock: CIFDUS_clean_linker_0, # of connection points: 2
#     Edge 23, Type (0, 0), BuildingBlock: CIFDUS_clean_linker_0, # of connection points: 2
#     Edge 24, Type (0, 0), BuildingBlock: CIFDUS_clean_linker_0, # of connection points: 2
#     Edge 25, Type (0, 0), BuildingBlock: CIFDUS_clean_linker_0, # of connection points: 2
#     Edge 26, Type (0, 0), BuildingBlock: CIFDUS_clean_linker_0, # of connection points: 2
#     Edge 27, Type (0, 0), BuildingBlock: CIFDUS_clean_linker_0, # of connection points: 2
#     Edge 28, Type (0, 0), BuildingBlock: CIFDUS_clean_linker_0, # of connection points: 2
#     Edge 29, Type (0, 0), BuildingBlock: CIFDUS_clean_linker_0, # of connection points: 2
#     Edge 30, Type (0, 0), BuildingBlock: CIFDUS_clean_linker_0, # of connection points: 2
#     Edge 31, Type (0, 0), BuildingBlock: CIFDUS_clean_linker_0, # of connection points: 2
#     Edge 32, Type (0, 0), BuildingBlock: CIFDUS_clean_linker_0, # of connection points: 2
#     Edge 33, Type (0, 0), BuildingBlock: CIFDUS_clean_linker_0, # of connection points: 2
#     Edge 34, Type (0, 0), BuildingBlock: CIFDUS_clean_linker_0, # of connection points: 2
#     Edge 35, Type (0, 0), BuildingBlock: CIFDUS_clean_linker_0, # of connection points: 2
#     Edge 36, Type (0, 0), BuildingBlock: CIFDUS_clean_linker_0, # of connection points: 2
#     Edge 37, Type (0, 0), BuildingBlock: CIFDUS_clean_linker_0, # of connection points: 2
#     Edge 38, Type (0, 0), BuildingBlock: CIFDUS_clean_linker_0, # of connection points: 2
#     Edge 39, Type (0, 0), BuildingBlock: CIFDUS_clean_linker_0, # of connection points: 2
#     Edge 40, Type (0, 0), BuildingBlock: CIFDUS_clean_linker_0, # of connection points: 2
#     Edge 41, Type (0, 0), BuildingBlock: CIFDUS_clean_linker_0, # of connection points: 2
#     Edge 42, Type (0, 0), BuildingBlock: CIFDUS_clean_linker_0, # of connection points: 2
#     Edge 43, Type (0, 0), BuildingBlock: CIFDUS_clean_linker_0, # of connection points: 2
#     Edge 44, Type (0, 0), BuildingBlock: CIFDUS_clean_linker_0, # of connection points: 2
#     Edge 45, Type (0, 0), BuildingBlock: CIFDUS_clean_linker_0, # of connection points: 2
#     Edge 46, Type (0, 0), BuildingBlock: CIFDUS_clean_linker_0, # of connection points: 2
#     Edge 47, Type (0, 0), BuildingBlock: CIFDUS_clean_linker_0, # of connection points: 2
# Relax obj value: 0.387
# Max RMSD: 0.287
# Mean RMSD: 0.287
data_MOF--net-wkl--node1-IZENUY_clean_sbu_0--edge1-CIFDUS_clean_linker_0
_symmetry_space_group_name_H-M    P1
_symmetry_Int_Tables_number       1
_symmetry_cell_setting            triclinic
loop_
_symmetry_equiv_pos_as_xyz
'x, y, z'
_cell_length_a     62.832217
_cell_length_b     62.835768
_cell_length_c     13.205645
_cell_angle_alpha  89.937954
_cell_angle_beta   90.089283
_cell_angle_gamma 119.8915
loop_
_atom_site_label
_atom_site_type_symbol
_atom_site_fract_x
_atom_site_fract_y
_atom_site_fract_z
_atom_type_partial_charge
Fe0 Fe 0.49516 0.11884 0.13558 0.0
Fe1 Fe 0.49964 0.15766 0.98442 0.0
O2 O 0.48135 0.13231 0.06356 0.0
Fe3 Fe 0.44925 0.12065 0.0693 0.0
O4 O 0.4509 0.12719 0.20296 0.0
O5 O 0.47406 0.11127 0.24405 0.0
O6 O 0.51519 0.14764 0.19887 0.0
C7 C 0.53188 0.16552 0.15134 0.0
C8 C 0.45344 0.07762 0.07384 0.0
O9 O 0.52801 0.16936 0.06072 0.0
C10 C 0.45789 0.12917 0.86747 0.0
O11 O 0.51845 0.12402 0.03829 0.0
O12 O 0.50852 0.13953 0.90891 0.0
O13 O 0.44105 0.08819 0.0911 0.0
O14 O 0.47648 0.08955 0.07691 0.0
C15 C 0.46973 0.17262 0.06547 0.0
O16 O 0.47511 0.15033 0.89116 0.0
O17 O 0.44635 0.1135 0.93523 0.0
C18 C 0.51953 0.12903 0.94448 0.0
O19 O 0.49152 0.17689 0.05657 0.0
O20 O 0.4517 0.15112 0.0496 0.0
C21 C 0.46062 0.12022 0.26881 0.0
Fe22 Fe 0.31347 0.43032 0.21986 0.0
Fe23 Fe 0.36325 0.47129 0.29838 0.0
O24 O 0.33757 0.46131 0.21744 0.0
Fe25 Fe 0.33582 0.48238 0.13334 0.0
O26 O 0.30822 0.47811 0.19471 0.0
O27 O 0.28908 0.43775 0.19122 0.0
O28 O 0.30733 0.43255 0.35229 0.0
C29 C 0.3231 0.43946 0.422 0.0
C30 C 0.31745 0.43942 0.01713 0.0
O31 O 0.34586 0.45066 0.40288 0.0
C32 C 0.3842 0.49648 0.11325 0.0
O33 O 0.33338 0.41724 0.24951 0.0
O34 O 0.37064 0.44925 0.24612 0.0
O35 O 0.31806 0.45941 0.03625 0.0
O36 O 0.31842 0.42638 0.08742 0.0
C37 C 0.35941 0.51229 0.30564 0.0
O38 O 0.38514 0.49354 0.20779 0.0
O39 O 0.36375 0.48811 0.06825 0.0
C40 C 0.35642 0.42639 0.24148 0.0
O41 O 0.35794 0.49454 0.35622 0.0
O42 O 0.35348 0.50942 0.21312 0.0
C43 C 0.28876 0.45765 0.20383 0.0
Fe44 Fe 0.89561 0.3762 0.44065 0.0
Fe45 Fe 0.8537 0.34744 0.29071 0.0
O46 O 0.87772 0.34934 0.36803 0.0
Fe47 Fe 0.8836 0.32444 0.37174 0.0
O48 O 0.87925 0.32111 0.5099 0.0
O49 O 0.90068 0.36047 0.54652 0.0
O50 O 0.86872 0.37306 0.50719 0.0
C51 C 0.85181 0.37431 0.46054 0.0
C52 C 0.9315 0.36686 0.37374 0.0
O53 O 0.84699 0.3671 0.36998 0.0
C54 C 0.87311 0.3245 0.16875 0.0
O55 O 0.89415 0.39695 0.34758 0.0
O56 O 0.87513 0.3739 0.21542 0.0
O57 O 0.9173 0.34393 0.38513 0.0
O58 O 0.92351 0.38165 0.37962 0.0
C59 C 0.83129 0.30159 0.37399 0.0
O60 O 0.85541 0.32737 0.19479 0.0
O61 O 0.88862 0.32605 0.23381 0.0
C62 C 0.88858 0.39486 0.25461 0.0
O63 O 0.83118 0.32147 0.36218 0.0
O64 O 0.85079 0.30056 0.35947 0.0
C65 C 0.89025 0.33825 0.57372 0.0
Fe66 Fe 0.57389 0.88102 0.56785 0.0
Fe67 Fe 0.53348 0.89049 0.64759 0.0
O68 O 0.54297 0.87443 0.56664 0.0
Fe69 Fe 0.52151 0.85161 0.48398 0.0
O70 O 0.52579 0.82822 0.54565 0.0
O71 O 0.56613 0.84911 0.5399 0.0
O72 O 0.57194 0.8728 0.70048 0.0
C73 C 0.56537 0.88196 0.77014 0.0
C74 C 0.56418 0.87566 0.36561 0.0
O75 O 0.55452 0.89389 0.75084 0.0
C76 C 0.50776 0.88623 0.46413 0.0
O77 O 0.58726 0.91409 0.59631 0.0
O78 O 0.55534 0.91955 0.59272 0.0
O79 O 0.54413 0.85646 0.38563 0.0
O80 O 0.57749 0.88966 0.43523 0.0
C81 C 0.49233 0.84607 0.65803 0.0
O82 O 0.51095 0.89011 0.5585 0.0
O83 O 0.51571 0.87384 0.41871 0.0
C84 C 0.57816 0.92804 0.58647 0.0
O85 O 0.51042 0.86222 0.70734 0.0
O86 O 0.49479 0.84268 0.56544 0.0
C87 C 0.54622 0.82906 0.55415 0.0
Fe88 Fe 0.66494 0.51443 0.63275 0.0
Fe89 Fe 0.68743 0.56604 0.72218 0.0
O90 O 0.66285 0.5354 0.71524 0.0
Fe91 Fe 0.63617 0.52563 0.78858 0.0
O92 O 0.64 0.5018 0.84913 0.0
O93 O 0.64471 0.48682 0.70723 0.0
O94 O 0.69058 0.51691 0.7035 0.0
C95 C 0.71046 0.53678 0.71649 0.0
C96 C 0.61816 0.50359 0.59617 0.0
O97 O 0.71148 0.55736 0.70141 0.0
C98 C 0.64494 0.57106 0.72828 0.0
O99 O 0.68524 0.53779 0.54138 0.0
O100 O 0.68425 0.57061 0.5884 0.0
O101 O 0.6153 0.50431 0.69115 0.0
O102 O 0.63923 0.5112 0.55901 0.0
C103 C 0.675 0.55578 0.92173 0.0
O104 O 0.66772 0.57989 0.74549 0.0
O105 O 0.63043 0.5483 0.73233 0.0
C106 C 0.68557 0.55752 0.51948 0.0
O107 O 0.69157 0.56296 0.85556 0.0
O108 O 0.65248 0.54548 0.89754 0.0
C109 C 0.63839 0.48395 0.79944 0.0
Fe110 Fe 0.12767 0.69293 0.88816 0.0
Fe111 Fe 0.11705 0.6419 0.95436 0.0
O112 O 0.13479 0.66901 0.88477 0.0
Fe113 Fe 0.15965 0.67238 0.81056 0.0
O114 O 0.18106 0.6987 0.88425 0.0
O115 O 0.15981 0.71769 0.87003 0.0
O116 O 0.13389 0.69696 0.02238 0.0
C117 C 0.12416 0.68005 0.08726 0.0
C118 C 0.13628 0.6908 0.68766 0.0
O119 O 0.11147 0.65771 0.06046 0.0
C120 C 0.12507 0.62531 0.76561 0.0
O121 O 0.09425 0.67265 0.90785 0.0
O122 O 0.08948 0.6359 0.88872 0.0
O123 O 0.15614 0.69168 0.71393 0.0
O124 O 0.12118 0.68944 0.75363 0.0
C125 C 0.16207 0.64699 0.98513 0.0
O126 O 0.11974 0.62156 0.85933 0.0
O127 O 0.13949 0.64656 0.73319 0.0
C128 C 0.08082 0.65012 0.88589 0.0
O129 O 0.14353 0.64621 0.02467 0.0
O130 O 0.16716 0.653 0.89277 0.0
C131 C 0.17965 0.71797 0.89231 0.0
Fe132 Fe 0.89258 0.56865 0.79968 0.0
Fe133 Fe 0.89595 0.52454 0.71954 0.0
O134 O 0.88258 0.5368 0.80146 0.0
Fe135 Fe 0.859 0.51712 0.88572 0.0
O136 O 0.83749 0.52432 0.82531 0.0
O137 O 0.86187 0.56442 0.82859 0.0
O138 O 0.88438 0.56749 0.66728 0.0
C139 C 0.89188 0.55931 0.59721 0.0
C140 C 0.88687 0.55949 1.00236 0.0
O141 O 0.90135 0.54607 0.61582 0.0
C142 C 0.88978 0.49853 0.90369 0.0
O143 O 0.925 0.57854 0.76994 0.0
O144 O 0.92596 0.54405 0.77198 0.0
O145 O 0.86651 0.54059 0.98328 0.0
O146 O 0.90143 0.57163 0.93212 0.0
C147 C 0.84965 0.48644 0.71301 0.0
O148 O 0.89323 0.50104 0.80897 0.0
O149 O 0.87939 0.50856 0.94977 0.0
C150 C 0.93683 0.5671 0.77782 0.0
O151 O 0.86641 0.50366 0.66227 0.0
O152 O 0.84712 0.48975 0.80559 0.0
C153 C 0.84066 0.54574 0.8167 0.0
Fe154 Fe 0.33461 0.88418 1.01105 0.0
Fe155 Fe 0.38523 0.8951 0.93462 0.0
O156 O 0.35955 0.87847 0.01428 0.0
Fe157 Fe 0.35868 0.85606 0.09814 0.0
O158 O 0.33163 0.83219 0.03599 0.0
O159 O 0.3111 0.85208 0.03922 0.0
O160 O 0.32892 0.87576 0.87855 0.0
C161 C 0.34475 0.88526 0.8095 0.0
C162 C 0.33877 0.87931 0.21395 0.0
O163 O 0.36744 0.89775 0.82973 0.0
C164 C 0.40658 0.89129 0.11968 0.0
O165 O 0.35346 0.91723 0.98163 0.0
O166 O 0.39123 0.92394 0.9889 0.0
O167 O 0.34025 0.86039 0.19488 0.0
O168 O 0.33912 0.89303 0.14363 0.0
C169 C 0.38313 0.85099 0.926 0.0
O170 O 0.40748 0.89541 0.02541 0.0
O171 O 0.38616 0.87879 0.16405 0.0
C172 C 0.37628 0.93176 0.9933 0.0
O173 O 0.38134 0.86715 0.87561 0.0
O174 O 0.37711 0.84767 0.01836 0.0
C175 C 0.31174 0.83237 0.02617 0.0
Fe176 Fe 0.44751 0.3253 0.17076 0.0
Fe177 Fe 0.48796 0.37745 0.11441 0.0
O178 O 0.47836 0.34947 0.17829 0.0
Fe179 Fe 0.49985 0.34578 0.25189 0.0
O180 O 0.49635 0.32123 0.1708 0.0
O181 O 0.45587 0.30072 0.17597 0.0
O182 O 0.44914 0.32374 0.03193 0.0
C183 C 0.45606 0.3418 0.97207 0.0
C184 C 0.45784 0.32321 0.37283 0.0
O185 O 0.46715 0.36359 1.00572 0.0
C186 C 0.51146 0.39196 0.30598 0.0
O187 O 0.434 0.34571 0.16354 0.0
O188 O 0.46614 0.38254 0.18175 0.0
O189 O 0.47734 0.32411 0.34282 0.0
O190 O 0.44411 0.32575 0.30952 0.0
C191 C 0.52899 0.37466 0.08643 0.0
O192 O 0.51021 0.39637 0.21293 0.0
O193 O 0.50414 0.37033 0.33611 0.0
C194 C 0.44337 0.36822 0.18744 0.0
O195 O 0.51095 0.37432 0.04314 0.0
O196 O 0.52686 0.36697 0.17655 0.0
C197 C 0.47622 0.30173 0.15594 0.0
Fe198 Fe 0.12328 0.45327 0.31648 0.0
Fe199 Fe 0.11398 0.49465 0.24996 0.0
O200 O 0.13108 0.4845 0.32009 0.0
Fe201 Fe 0.15599 0.50556 0.39507 0.0
O202 O 0.17704 0.50021 0.32171 0.0
O203 O 0.15545 0.45997 0.33354 0.0
O204 O 0.12926 0.45522 0.18224 0.0
C205 C 0.11987 0.46279 0.11736 0.0
C206 C 0.13216 0.46383 0.51722 0.0
O207 O 0.10771 0.47304 0.14411 0.0
C208 C 0.12225 0.51919 0.43888 0.0
O209 O 0.08976 0.44096 0.29796 0.0
O210 O 0.08632 0.47383 0.3156 0.0
O211 O 0.15214 0.48257 0.49125 0.0
O212 O 0.11695 0.45035 0.45106 0.0
C213 C 0.15941 0.53365 0.22025 0.0
O214 O 0.11735 0.51802 0.34476 0.0
O215 O 0.13602 0.51159 0.4721 0.0
C216 C 0.07704 0.45092 0.32026 0.0
O217 O 0.14079 0.51617 0.17996 0.0
O218 O 0.16406 0.53261 0.31317 0.0
C219 C 0.17549 0.4795 0.31296 0.0
Fe220 Fe 0.68391 0.11765 0.48237 0.0
Fe221 Fe 0.63337 0.11134 0.42903 0.0
O222 O 0.66196 0.12745 0.49157 0.0
Fe223 Fe 0.66858 0.15347 0.56649 0.0
O224 O 0.69385 0.17301 0.48447 0.0
O225 O 0.71055 0.14935 0.48792 0.0
O226 O 0.68548 0.12098 0.34363 0.0
C227 C 0.66721 0.11173 0.2839 0.0
C228 C 0.68774 0.13017 0.68479 0.0
O229 O 0.64557 0.10344 0.3174 0.0
C230 C 0.6217 0.12131 0.62407 0.0
O231 O 0.66125 0.08439 0.47437 0.0
O232 O 0.626 0.08324 0.49264 0.0
O233 O 0.68917 0.14995 0.65526 0.0
O234 O 0.68322 0.11339 0.62108 0.0
C235 C 0.64003 0.15706 0.40619 0.0
O236 O 0.6163 0.11605 0.53137 0.0
O237 O 0.64363 0.13499 0.65199 0.0
C238 C 0.63862 0.07282 0.49684 0.0
O239 O 0.63832 0.13864 0.36082 0.0
O240 O 0.6489 0.16208 0.49469 0.0
C241 C 0.71208 0.17003 0.47006 0.0
Fe242 Fe 0.55305 0.66987 0.65539 0.0
Fe243 Fe 0.51171 0.62025 0.57745 0.0
O244 O 0.52198 0.64591 0.65822 0.0
Fe245 Fe 0.50106 0.64772 0.74266 0.0
O246 O 0.50527 0.67521 0.6807 0.0
O247 O 0.54567 0.69442 0.68321 0.0
O248 O 0.55084 0.67602 0.52288 0.0
C249 C 0.54374 0.66024 0.4533 0.0
C250 C 0.54413 0.6661 0.85822 0.0
O251 O 0.53226 0.63749 0.47255 0.0
C252 C 0.48687 0.59938 0.76322 0.0
O253 O 0.56597 0.64969 0.62603 0.0
O254 O 0.53358 0.61268 0.6295 0.0
O255 O 0.52418 0.66559 0.83908 0.0
O256 O 0.55705 0.66497 0.78796 0.0
C257 C 0.47084 0.62423 0.57097 0.0
O258 O 0.48951 0.59845 0.66847 0.0
O259 O 0.49541 0.61983 0.80817 0.0
C260 C 0.55651 0.62656 0.63305 0.0
O261 O 0.48856 0.62582 0.52002 0.0
O262 O 0.47383 0.63002 0.66361 0.0
C263 C 0.52569 0.69466 0.67064 0.0
H264 H 0.45966 0.15755 0.70947 0.0
H265 H 0.44673 0.08531 0.78515 0.0
H266 H 0.44607 0.07564 0.60531 0.0
H267 H 0.45237 0.08907 0.42637 0.0
H268 H 0.46179 0.16005 0.35114 0.0
H269 H 0.46056 0.16891 0.53051 0.0
C270 C 0.45629 0.13957 0.6862 0.0
C271 C 0.45334 0.1222 0.75984 0.0
C272 C 0.45554 0.13402 0.58287 0.0
C273 C 0.44884 0.09889 0.72937 0.0
C274 C 0.44867 0.09344 0.62671 0.0
C275 C 0.45391 0.10634 0.44968 0.0
C276 C 0.4574 0.12399 0.37643 0.0
C277 C 0.45251 0.11105 0.55281 0.0
C278 C 0.45905 0.1462 0.40669 0.0
C279 C 0.45843 0.15131 0.50908 0.0
H280 H 0.29039 0.44307 0.86627 0.0
H281 H 0.34346 0.42045 0.9307 0.0
H282 H 0.34883 0.41667 0.74918 0.0
H283 H 0.34186 0.42463 0.57276 0.0
H284 H 0.28693 0.44478 0.50831 0.0
H285 H 0.27853 0.44445 0.68951 0.0
C286 C 0.30272 0.43682 0.84022 0.0
C287 C 0.3167 0.43224 0.91079 0.0
C288 C 0.30549 0.43447 0.73619 0.0
C289 C 0.33247 0.42394 0.87715 0.0
C290 C 0.33568 0.42199 0.77359 0.0
C291 C 0.32777 0.42852 0.59871 0.0
C292 C 0.31521 0.43502 0.52832 0.0
C293 C 0.32282 0.42793 0.70252 0.0
C294 C 0.29676 0.43972 0.56174 0.0
C295 C 0.29207 0.43967 0.66511 0.0
H296 H 0.85463 0.30472 0.70028 0.0
H297 H 0.93056 0.36166 0.69249 0.0
H298 H 0.93331 0.3598 0.87643 0.0
H299 H 0.91274 0.34585 0.04226 0.0
H300 H 0.83588 0.29165 0.05093 0.0
H301 H 0.83492 0.28825 0.86634 0.0
C302 C 0.8719 0.31622 0.73882 0.0
C303 C 0.89237 0.33324 0.68249 0.0
C304 C 0.87313 0.31569 0.8458 0.0
C305 C 0.91451 0.34839 0.73396 0.0
C306 C 0.9161 0.34741 0.83941 0.0
C307 C 0.89602 0.33278 1.00371 0.0
C308 C 0.87449 0.31884 0.0604 0.0
C309 C 0.89535 0.33167 0.89667 0.0
C310 C 0.85276 0.30246 1.00907 0.0
C311 C 0.85215 0.30061 0.90329 0.0
H312 H 0.55976 0.84472 0.21453 0.0
H313 H 0.58383 0.92063 0.27905 0.0
H314 H 0.58821 0.92998 0.09769 0.0
H315 H 0.58055 0.91535 0.92113 0.0
H316 H 0.55903 0.84004 0.85642 0.0
H317 H 0.55859 0.83159 0.03775 0.0
C318 C 0.56642 0.86337 0.18854 0.0
C319 C 0.57125 0.88195 0.25908 0.0
C320 C 0.56917 0.86862 0.08456 0.0
C321 C 0.5801 0.90611 0.22553 0.0
C322 C 0.58243 0.91141 0.12205 0.0
C323 C 0.57622 0.89723 0.94706 0.0
C324 C 0.56957 0.87824 0.87654 0.0
C325 C 0.57633 0.89265 0.05095 0.0
C326 C 0.56425 0.85489 0.90997 0.0
C327 C 0.56384 0.85004 0.01341 0.0
H328 H 0.65547 0.56868 0.07757 0.0
H329 H 0.71038 0.54901 1.00565 0.0
H330 H 0.71992 0.54941 0.18535 0.0
H331 H 0.71032 0.5522 0.36358 0.0
H332 H 0.65773 0.57486 0.43622 0.0
H333 H 0.64982 0.57687 0.25579 0.0
C334 C 0.66966 0.56473 0.10164 0.0
C335 C 0.68204 0.55857 0.02928 0.0
C336 C 0.67548 0.5656 0.20491 0.0
C337 C 0.70065 0.55381 0.0605 0.0
C338 C 0.70606 0.55397 0.16306 0.0
C339 C 0.69752 0.55805 0.33948 0.0
C340 C 0.68459 0.56334 0.41229 0.0
C341 C 0.69331 0.55943 0.23598 0.0
C342 C 0.66807 0.57097 0.38096 0.0
C343 C 0.66338 0.57188 0.27801 0.0
H344 H 0.16607 0.71413 0.52773 0.0
H345 H 0.09139 0.66149 0.60642 0.0
H346 H 0.08062 0.65318 0.42713 0.0
H347 H 0.09308 0.65949 0.24722 0.0
H348 H 0.16687 0.7148 0.16891 0.0
H349 H 0.17735 0.72359 0.34798 0.0
C350 C 0.1474 0.70111 0.50522 0.0
C351 C 0.12955 0.68846 0.57961 0.0
C352 C 0.14121 0.69683 0.40203 0.0
C353 C 0.10537 0.67165 0.55007 0.0
C354 C 0.09924 0.66676 0.44769 0.0
C355 C 0.11135 0.67359 0.26975 0.0
C356 C 0.1292 0.68641 0.19546 0.0
C357 C 0.11708 0.67902 0.37292 0.0
C358 C 0.15278 0.70481 0.22506 0.0
C359 C 0.15882 0.70977 0.32736 0.0
H360 H 0.85752 0.55923 0.15214 0.0
H361 H 0.93121 0.5747 0.08983 0.0
H362 H 0.94018 0.57803 0.27153 0.0
H363 H 0.92521 0.57147 0.44757 0.0
H364 H 0.85236 0.55843 0.51002 0.0
H365 H 0.84487 0.55952 0.32848 0.0
C366 C 0.87568 0.56384 0.17868 0.0
C367 C 0.89364 0.56649 0.10867 0.0
C368 C 0.88072 0.56595 0.28281 0.0
C369 C 0.91718 0.57269 0.14292 0.0
C370 C 0.92224 0.5744 0.24659 0.0
C371 C 0.9079 0.56934 0.42112 0.0
C372 C 0.88922 0.56459 0.49102 0.0
C373 C 0.90389 0.57031 0.31714 0.0
C374 C 0.86695 0.56214 0.45696 0.0
C375 C 0.86263 0.56261 0.3534 0.0
H376 H 0.36258 0.91877 0.65834 0.0
H377 H 0.30971 0.84321 0.72293 0.0
H378 H 0.30133 0.83492 0.54182 0.0
H379 H 0.31263 0.84828 0.36502 0.0
H380 H 0.36351 0.92437 0.30029 0.0
H381 H 0.36886 0.93358 0.48181 0.0
C382 C 0.34895 0.90062 0.63244 0.0
C383 C 0.33698 0.88152 0.70289 0.0
C384 C 0.34397 0.89613 0.52863 0.0
C385 C 0.31911 0.85814 0.66948 0.0
C386 C 0.31442 0.85338 0.56615 0.0
C387 C 0.32447 0.86695 0.39101 0.0
C388 C 0.33783 0.88562 0.32033 0.0
C389 C 0.32723 0.87209 0.49504 0.0
C390 C 0.35297 0.90979 0.35391 0.0
C391 C 0.35619 0.915 0.45747 0.0
H392 H 0.45562 0.30646 0.84724 0.0
H393 H 0.44594 0.36972 0.84493 0.0
H394 H 0.44235 0.36766 0.66054 0.0
H395 H 0.4456 0.35022 0.49709 0.0
H396 H 0.4594 0.28963 0.49813 0.0
H397 H 0.4574 0.28806 0.6834 0.0
C398 C 0.45224 0.31948 0.80645 0.0
C399 C 0.4509 0.33813 0.86065 0.0
C400 C 0.451 0.31871 0.69909 0.0
C401 C 0.44704 0.35515 0.80576 0.0
C402 C 0.445 0.35402 0.6999 0.0
C403 C 0.44749 0.33626 0.53794 0.0
C404 C 0.45214 0.31972 0.48343 0.0
C405 C 0.4474 0.33617 0.64529 0.0
C406 C 0.45544 0.30233 0.53795 0.0
C407 C 0.45446 0.30153 0.64417 0.0
H408 H 0.08896 0.45295 0.9568 0.0
H409 H 0.16229 0.46977 0.03652 0.0
H410 H 0.17277 0.47117 0.85769 0.0
H411 H 0.16167 0.4696 0.67773 0.0
H412 H 0.08738 0.4492 0.59757 0.0
H413 H 0.07659 0.447 0.77663 0.0
C414 C 0.10712 0.4567 0.93462 0.0
C415 C 0.12485 0.46134 1.00924 0.0
C416 C 0.11285 0.45684 0.83157 0.0
C417 C 0.14829 0.46598 0.9801 0.0
C418 C 0.15435 0.4669 0.87794 0.0
C419 C 0.14307 0.46436 0.69988 0.0
C420 C 0.12534 0.45955 0.62513 0.0
C421 C 0.13686 0.46261 0.80294 0.0
C422 C 0.10125 0.4527 0.6542 0.0
C423 C 0.09512 0.45162 0.75645 0.0
H424 H 0.65703 0.09255 0.80919 0.0
H425 H 0.7239 0.16237 0.80979 0.0
H426 H 0.72513 0.16185 0.99515 0.0
H427 H 0.705 0.14339 0.15905 0.0
H428 H 0.63589 0.07553 0.15682 0.0
H429 H 0.63774 0.07337 0.97267 0.0
C430 C 0.67222 0.10728 0.84999 0.0
C431 C 0.69065 0.12723 0.79533 0.0
C432 C 0.67219 0.10738 0.95734 0.0
C433 C 0.70971 0.14662 0.84975 0.0
C434 C 0.71031 0.14641 0.95601 0.0
C435 C 0.69059 0.12792 0.11835 0.0
C436 C 0.67038 0.1096 0.17251 0.0
C437 C 0.69135 0.12716 1.01105 0.0
C438 C 0.65165 0.08993 0.1177 0.0
C439 C 0.65268 0.08866 1.01196 0.0
H440 H 0.55833 0.64124 0.30304 0.0
H441 H 0.53895 0.69673 0.3665 0.0
H442 H 0.53955 0.70529 0.18525 0.0
H443 H 0.54088 0.69341 1.00863 0.0
H444 H 0.56275 0.63977 0.94521 0.0
H445 H 0.56634 0.63426 0.12687 0.0
C446 C 0.55467 0.65548 0.27687 0.0
C447 C 0.54829 0.66815 0.34697 0.0
C448 C 0.55542 0.66052 0.17302 0.0
C449 C 0.54389 0.6868 0.31328 0.0
C450 C 0.54411 0.69158 0.20988 0.0
C451 C 0.54694 0.68093 0.03494 0.0
C452 C 0.55134 0.66683 0.9646 0.0
C453 C 0.54917 0.67807 0.13905 0.0
C454 C 0.55939 0.65086 0.99857 0.0
C455 C 0.56124 0.64757 0.10221 0.0
H456 H 0.40395 0.04266 0.06835 0.0
H457 H 0.47654 0.05178 0.03643 0.0
H458 H 0.45907 0.00827 1.00823 0.0
H459 H 0.42391 0.9675 0.99435 0.0
H460 H 0.35068 0.95639 0.02348 0.0
H461 H 0.36768 1.00057 0.05049 0.0
C462 C 0.41589 0.0351 0.05519 0.0
C463 C 0.44159 0.05071 0.05545 0.0
C464 C 0.40567 0.00961 0.03837 0.0
C465 C 0.45673 0.04046 0.03758 0.0
C466 C 0.44678 0.01544 0.02118 0.0
C467 C 0.41154 0.97461 1.00647 0.0
C468 C 0.38604 0.95854 1.00699 0.0
C469 C 0.42137 0.99986 0.0218 0.0
C470 C 0.37041 0.9683 0.02247 0.0
C471 C 0.38014 0.99359 0.03813 0.0
H472 H 0.39433 0.35188 0.14658 0.0
H473 H 0.45843 0.40967 0.29523 0.0
H474 H 0.43686 0.43189 0.32812 0.0
H475 H 0.40128 0.43682 0.30526 0.0
H476 H 0.33619 0.37991 0.16074 0.0
H477 H 0.35649 0.35546 0.13649 0.0
C478 C 0.40338 0.36915 0.18733 0.0
C479 C 0.42814 0.37923 0.21673 0.0
C480 C 0.39079 0.38216 0.2061 0.0
C481 C 0.43956 0.40162 0.26992 0.0
C482 C 0.42724 0.41442 0.28905 0.0
C483 C 0.39144 0.41901 0.2687 0.0
C484 C 0.3674 0.41033 0.23371 0.0
C485 C 0.40312 0.40518 0.25554 0.0
C486 C 0.35477 0.38702 0.18823 0.0
C487 C 0.3664 0.37309 0.17409 0.0
H488 H 0.04348 0.40206 0.27897 0.0
H489 H 0.05099 0.46725 0.42255 0.0
H490 H 0.00724 0.44673 0.45346 0.0
H491 H 0.9666 0.41171 0.43229 0.0
H492 H 0.95692 0.34543 0.29338 0.0
H493 H 1.00158 0.3648 0.26882 0.0
C494 C 0.03551 0.4116 0.31793 0.0
C495 C 0.05057 0.43636 0.34667 0.0
C496 C 0.0099 0.3996 0.3357 0.0
C497 C 0.03991 0.44839 0.39769 0.0
C498 C 0.01481 0.43667 0.41575 0.0
C499 C 0.97417 0.40141 0.39649 0.0
C500 C 0.95842 0.3773 0.3633 0.0
C501 C 0.99961 0.41253 0.38337 0.0
C502 C 0.96867 0.36408 0.31923 0.0
C503 C 0.99419 0.37519 0.30502 0.0
H504 H 0.56543 0.96281 0.6119 0.0
H505 H 0.62689 0.95385 0.52942 0.0
H506 H 0.65176 0.99815 0.49699 0.0
H507 H 0.6552 0.03944 0.48561 0.0
H508 H 0.59252 0.04638 0.5711 0.0
H509 H 0.56919 1.00299 0.60848 0.0
C510 C 0.58429 0.97043 0.58699 0.0
C511 C 0.59418 0.95494 0.5725 0.0
C512 C 0.59832 0.99569 0.56851 0.0
C513 C 0.61878 0.96535 0.54132 0.0
C514 C 0.63298 0.99067 0.52244 0.0
C515 C 0.63651 0.03145 0.51289 0.0
C516 C 0.62567 0.04631 0.52402 0.0
C517 C 0.62285 0.00606 0.5348 0.0
C518 C 0.60139 0.03555 0.56018 0.0
C519 C 0.58792 0.01063 0.58201 0.0
H520 H 0.6014 0.55695 0.64076 0.0
H521 H 0.66379 0.62069 0.76836 0.0
H522 H 0.64263 0.64444 0.74506 0.0
H523 H 0.60467 0.64588 0.69737 0.0
H524 H 0.54294 0.58039 0.57473 0.0
H525 H 0.5656 0.55866 0.5877 0.0
C526 C 0.61052 0.57607 0.66378 0.0
C527 C 0.63403 0.58689 0.70771 0.0
C528 C 0.59823 0.58931 0.65143 0.0
C529 C 0.64565 0.61184 0.73472 0.0
C530 C 0.63349 0.62538 0.72175 0.0
C531 C 0.59635 0.62694 0.67278 0.0
C532 C 0.57197 0.61478 0.6361 0.0
C533 C 0.60952 0.61416 0.68153 0.0
C534 C 0.56147 0.5902 0.60458 0.0
C535 C 0.57444 0.57768 0.61164 0.0
H536 H 0.04955 0.60401 0.82304 0.0
H537 H 0.05217 0.67205 0.89909 0.0
H538 H 0.00781 0.65281 0.86868 0.0
H539 H 0.96785 0.61576 0.82589 0.0
H540 H 0.96704 0.54828 0.75333 0.0
H541 H 0.01106 0.56831 0.77724 0.0
C542 C 0.04054 0.61477 0.83322 0.0
C543 C 0.05421 0.63941 0.86428 0.0
C544 C 0.01524 0.60363 0.81633 0.0
C545 C 0.04211 0.65301 0.87563 0.0
C546 C 0.01673 0.642 0.85835 0.0
C547 C 0.97737 0.60554 0.81469 0.0
C548 C 0.96398 0.58047 0.78821 0.0
C549 C 1.00302 0.61719 0.82942 0.0
C550 C 0.97667 0.5675 0.77434 0.0
C551 C 1.00195 0.57894 0.78789 0.0
H552 H 0.52956 0.09242 0.90131 0.0
H553 H 0.55454 0.16922 0.85299 0.0
H554 H 0.59011 0.17403 0.76011 0.0
H555 H 0.6139 0.15653 0.69131 0.0
H556 H 0.5861 0.07871 0.70899 0.0
H557 H 0.55207 0.07392 0.81725 0.0
C558 C 0.54284 0.11008 0.8699 0.0
C559 C 0.53975 0.1305 0.88419 0.0
C560 C 0.56273 0.11248 0.81219 0.0
C561 C 0.55671 0.1533 0.84247 0.0
C562 C 0.57706 0.1561 0.78989 0.0
C563 C 0.60025 0.13854 0.71848 0.0
C564 C 0.60223 0.11803 0.69343 0.0
C565 C 0.58021 0.13585 0.77421 0.0
C566 C 0.58473 0.09472 0.72867 0.0
C567 C 0.56533 0.09202 0.78983 0.0
H568 H 0.39396 0.50212 0.91068 0.0
H569 H 0.42538 0.5328 0.20224 0.0
H570 H 0.46061 0.56681 0.12067 0.0
H571 H 0.4812 0.58973 0.96611 0.0
H572 H 0.45074 0.55801 0.67464 0.0
H573 H 0.41686 0.52272 0.75629 0.0
C574 C 0.40869 0.51609 0.95615 0.0
C575 C 0.4069 0.51496 0.06214 0.0
C576 C 0.42916 0.53559 0.90883 0.0
C577 C 0.42626 0.5331 0.12028 0.0
C578 C 0.44643 0.55271 0.07379 0.0
C579 C 0.46731 0.57493 0.92068 0.0
C580 C 0.46847 0.57667 0.81465 0.0
C581 C 0.44787 0.55441 0.96808 0.0
C582 C 0.45042 0.5572 0.75661 0.0
C583 C 0.43089 0.53698 0.80314 0.0
H584 H 0.89537 0.49326 0.10517 0.0
H585 H 0.89054 0.45997 0.81406 0.0
H586 H 0.89025 0.42508 0.89534 0.0
H587 H 0.88892 0.4026 0.05053 0.0
H588 H 0.897 0.4376 0.34046 0.0
H589 H 0.89869 0.47299 0.25853 0.0
C590 C 0.8945 0.47847 0.05972 0.0
C591 C 0.89264 0.4791 0.95413 0.0
C592 C 0.89489 0.4586 0.10671 0.0
C593 C 0.8919 0.45996 0.89583 0.0
C594 C 0.89166 0.43989 0.94214 0.0
C595 C 0.89133 0.4181 0.0954 0.0
C596 C 0.89258 0.41726 0.20125 0.0
C597 C 0.89277 0.43881 0.04771 0.0
C598 C 0.896 0.43766 0.25856 0.0
C599 C 0.89686 0.45797 0.21196 0.0
H600 H 0.50265 0.89217 0.26228 0.0
H601 H 0.47159 0.8909 0.55513 0.0
H602 H 0.43825 0.89386 0.47561 0.0
H603 H 0.41598 0.89364 0.32219 0.0
H604 H 0.44811 0.89723 0.02949 0.0
H605 H 0.48285 0.89691 0.10938 0.0
C606 C 0.48873 0.89284 0.30845 0.0
C607 C 0.48952 0.89108 0.41415 0.0
C608 C 0.46967 0.89496 0.26235 0.0
C609 C 0.47149 0.89225 0.47335 0.0
C610 C 0.45229 0.89385 0.42805 0.0
C611 C 0.43078 0.89474 0.27616 0.0
C612 C 0.42929 0.89526 0.17027 0.0
C613 C 0.45094 0.89478 0.32253 0.0
C614 C 0.44876 0.89691 0.11144 0.0
C615 C 0.46863 0.89655 0.15692 0.0
H616 H 0.57565 0.46364 0.65277 0.0
H617 H 0.61351 0.50872 0.39435 0.0
H618 H 0.58156 0.47908 0.28169 0.0
H619 H 0.54592 0.43829 0.25548 0.0
H620 H 0.51021 0.39146 0.5125 0.0
H621 H 0.53828 0.42391 0.62733 0.0
C622 C 0.57657 0.46724 0.57205 0.0
C623 C 0.59682 0.48825 0.53158 0.0
C624 C 0.55874 0.44965 0.5076 0.0
C625 C 0.59804 0.49258 0.42684 0.0
C626 C 0.57987 0.47562 0.36253 0.0
C627 C 0.54396 0.43535 0.33671 0.0
C628 C 0.52613 0.41251 0.37556 0.0
C629 C 0.56057 0.45375 0.40182 0.0
C630 C 0.52395 0.40886 0.4809 0.0
C631 C 0.53996 0.42739 0.54649 0.0
H632 H 0.11572 0.5581 0.39775 0.0
H633 H 0.11477 0.51173 0.64082 0.0
H634 H 0.11202 0.53892 0.7653 0.0
H635 H 0.11564 0.57881 0.80606 0.0
H636 H 0.11888 0.62624 0.56296 0.0
H637 H 0.11465 0.59575 0.4383 0.0
C638 C 0.11426 0.55366 0.47777 0.0
C639 C 0.11567 0.53311 0.51009 0.0
C640 C 0.11339 0.56978 0.54936 0.0
C641 C 0.11397 0.52765 0.61418 0.0
C642 C 0.11245 0.5432 0.68552 0.0
C643 C 0.11479 0.58215 0.72594 0.0
C644 C 0.11782 0.6048 0.69377 0.0
C645 C 0.11301 0.56478 0.65425 0.0
C646 C 0.11688 0.60901 0.58955 0.0
C647 C 0.11448 0.5916 0.51809 0.0
H648 H 0.50306 0.22071 0.04311 0.0
H649 H 0.42739 0.17216 0.12394 0.0
H650 H 0.42199 0.20773 0.15495 0.0
H651 H 0.43963 0.25308 0.16478 0.0
H652 H 0.51551 0.30027 0.08041 0.0
H653 H 0.51977 0.26475 0.04466 0.0
C654 C 0.48532 0.21777 0.06762 0.0
C655 C 0.46572 0.19375 0.08199 0.0
C656 C 0.48236 0.23815 0.08462 0.0
C657 C 0.44282 0.19045 0.11241 0.0
C658 C 0.43974 0.21079 0.13024 0.0
C659 C 0.457 0.25554 0.13772 0.0
C660 C 0.47727 0.27943 0.12652 0.0
C661 C 0.45948 0.23481 0.11726 0.0
C662 C 0.49964 0.28222 0.0911 0.0
C663 C 0.50216 0.26187 0.07045 0.0
H664 H 0.18186 0.43927 0.29924 0.0
H665 H 0.22056 0.51828 0.27019 0.0
H666 H 0.25839 0.51831 0.23347 0.0
H667 H 0.281 0.49646 0.21186 0.0
H668 H 0.24329 0.41754 0.23891 0.0
H669 H 0.20479 0.41702 0.2738 0.0
C670 C 0.19855 0.45647 0.28474 0.0
C671 C 0.19821 0.47872 0.2883 0.0
C672 C 0.22055 0.45645 0.26327 0.0
C673 C 0.22011 0.50083 0.26873 0.0
C674 C 0.24187 0.50092 0.24755 0.0
C675 C 0.26439 0.47908 0.22515 0.0
C676 C 0.26515 0.45709 0.22267 0.0
C677 C 0.24236 0.4789 0.24508 0.0
C678 C 0.24332 0.43479 0.24002 0.0
C679 C 0.22126 0.43447 0.26018 0.0
H680 H 0.72274 0.21748 0.45888 0.0
H681 H 0.75603 0.17204 0.43022 0.0
H682 H 0.79597 0.20859 0.39911 0.0
H683 H 0.82156 0.25378 0.38141 0.0
H684 H 0.78727 0.29833 0.41349 0.0
H685 H 0.74779 0.26181 0.44246 0.0
C686 C 0.73866 0.21543 0.4455 0.0
C687 C 0.73627 0.19194 0.44692 0.0
C688 C 0.76153 0.23647 0.42872 0.0
C689 C 0.75725 0.18985 0.42965 0.0
C690 C 0.78014 0.21078 0.412 0.0
C691 C 0.80547 0.25549 0.39502 0.0
C692 C 0.80755 0.27891 0.39487 0.0
C693 C 0.78254 0.23424 0.4118 0.0
C694 C 0.78639 0.28067 0.41268 0.0
C695 C 0.76369 0.25975 0.42927 0.0
H696 H 0.50733 0.78323 0.5849 0.0
H697 H 0.58648 0.82303 0.57018 0.0
H698 H 0.5873 0.78525 0.60558 0.0
H699 H 0.56543 0.74065 0.64074 0.0
H700 H 0.4862 0.70145 0.65465 0.0
H701 H 0.48568 0.73917 0.61972 0.0
C702 C 0.52481 0.78371 0.58913 0.0
C703 C 0.5468 0.80604 0.57442 0.0
C704 C 0.52518 0.76194 0.60968 0.0
C705 C 0.56923 0.80617 0.58078 0.0
C706 C 0.56973 0.78453 0.60118 0.0
C707 C 0.54806 0.74036 0.63643 0.0
C708 C 0.52592 0.7181 0.65076 0.0
C709 C 0.5478 0.76227 0.61586 0.0
C710 C 0.50358 0.71819 0.64429 0.0
C711 C 0.50322 0.73981 0.62416 0.0
H712 H 0.79282 0.50999 0.80936 0.0
H713 H 0.83957 0.5885 0.78521 0.0
H714 H 0.8036 0.59302 0.75369 0.0
H715 H 0.75853 0.57435 0.73017 0.0
H716 H 0.71284 0.4956 0.7561 0.0
H717 H 0.74867 0.49171 0.78977 0.0
C718 C 0.79526 0.52816 0.79742 0.0
C719 C 0.81895 0.54885 0.79969 0.0
C720 C 0.77458 0.53063 0.7794 0.0
C721 C 0.82157 0.57221 0.78413 0.0
C722 C 0.80098 0.57482 0.76594 0.0
C723 C 0.75644 0.55637 0.7434 0.0
C724 C 0.73289 0.53533 0.73971 0.0
C725 C 0.77734 0.55412 0.76302 0.0
C726 C 0.73062 0.51218 0.75754 0.0
C727 C 0.75115 0.50986 0.77702 0.0
H728 H 0.22527 0.72526 0.9331 0.0
H729 H 0.18444 0.76363 0.91095 0.0
H730 H 0.22147 0.80228 0.95213 0.0
H731 H 0.26569 0.82534 0.99214 0.0
H732 H 0.30615 0.78652 0.01239 0.0
H733 H 0.26901 0.74801 0.97427 0.0
C734 C 0.22439 0.74205 0.93719 0.0
C735 C 0.20205 0.74147 0.91837 0.0
C736 C 0.24574 0.76421 0.96064 0.0
C737 C 0.20137 0.76347 0.92459 0.0
C738 C 0.22256 0.78562 0.94823 0.0
C739 C 0.26638 0.80845 0.98867 0.0
C740 C 0.28877 0.80894 1.00542 0.0
C741 C 0.24488 0.78623 0.9661 0.0
C742 C 0.28925 0.78681 1.00001 0.0
C743 C 0.26799 0.76471 0.97811 0.0
H744 H 0.55001 0.17258 0.34357 0.0
H745 H 0.57118 0.17639 0.031 0.0
H746 H 0.60812 0.17562 0.08103 0.0
H747 H 0.63087 0.16701 0.2137 0.0
H748 H 0.61213 0.16812 0.52666 0.0
H749 H 0.57822 0.17413 0.47708 0.0
C750 C 0.56316 0.17413 0.2867 0.0
C751 C 0.5575 0.17394 0.18363 0.0
C752 C 0.5847 0.17414 0.31616 0.0
C753 C 0.57487 0.17622 0.11084 0.0
C754 C 0.59599 0.17559 0.13939 0.0
C755 C 0.61974 0.16923 0.27082 0.0
C756 C 0.62376 0.16662 0.37371 0.0
C757 C 0.60054 0.17343 0.24174 0.0
C758 C 0.60938 0.16986 0.44701 0.0
C759 C 0.58985 0.17322 0.4187 0.0
H760 H 0.36929 0.52978 0.49958 0.0
H761 H 0.38896 0.55153 0.18813 0.0
H762 H 0.42432 0.5898 0.24191 0.0
H763 H 0.45311 0.61443 0.37742 0.0
H764 H 0.43187 0.59426 0.68894 0.0
H765 H 0.3938 0.55861 0.63525 0.0
C766 C 0.38094 0.54322 0.44375 0.0
C767 C 0.3766 0.53759 0.34032 0.0
C768 C 0.40123 0.56553 0.47503 0.0
C769 C 0.39177 0.55531 0.26856 0.0
C770 C 0.41221 0.57722 0.29908 0.0
C771 C 0.43981 0.6026 0.43331 0.0
C772 C 0.44554 0.60689 0.53669 0.0
C773 C 0.41763 0.58214 0.4021 0.0
C774 C 0.42801 0.59149 0.60854 0.0
C775 C 0.40622 0.57089 0.57806 0.0
H776 H 0.8436 0.385 0.6532 0.0
H777 H 0.84451 0.40479 0.33943 0.0
H778 H 0.84104 0.44012 0.38817 0.0
H779 H 0.84331 0.46861 0.52057 0.0
H780 H 0.83807 0.44696 0.83388 0.0
H781 H 0.83694 0.40916 0.78468 0.0
C782 C 0.84247 0.39676 0.5958 0.0
C783 C 0.84474 0.39245 0.49326 0.0
C784 C 0.83972 0.41687 0.62401 0.0
C785 C 0.84292 0.40767 0.41928 0.0
C786 C 0.84101 0.42803 0.44686 0.0
C787 C 0.84114 0.45526 0.57773 0.0
C788 C 0.84125 0.46091 0.68045 0.0
C789 C 0.84015 0.43325 0.54909 0.0
C790 C 0.83812 0.44324 0.75384 0.0
C791 C 0.83771 0.42161 0.72601 0.0
H792 H 0.39219 0.84223 0.7322 0.0
H793 H 0.41351 0.8424 0.04323 0.0
H794 H 0.44818 0.83828 0.98911 0.0
H795 H 0.47577 0.84027 0.85268 0.0
H796 H 0.45281 0.83671 0.54197 0.0
H797 H 0.41555 0.83598 0.59661 0.0
C798 C 0.40409 0.84074 0.7879 0.0
C799 C 0.40038 0.84294 0.89122 0.0
C800 C 0.42392 0.83789 0.75649 0.0
C801 C 0.41585 0.84075 0.96289 0.0
C802 C 0.43587 0.83854 0.93217 0.0
C803 C 0.46226 0.83862 0.79726 0.0
C804 C 0.4673 0.83888 0.69369 0.0
C805 C 0.44055 0.83789 0.82907 0.0
C806 C 0.44949 0.83652 0.62253 0.0
C807 C 0.42817 0.83632 0.65352 0.0
H808 H 0.6307 0.46732 0.99384 0.0
H809 H 0.60647 0.4447 0.68685 0.0
H810 H 0.57112 0.40711 0.74795 0.0
H811 H 0.54402 0.3835 0.88981 0.0
H812 H 0.56937 0.40503 0.19646 0.0
H813 H 0.60735 0.43977 0.13462 0.0
C814 C 0.61803 0.45381 0.94048 0.0
C815 C 0.6211 0.45891 0.83626 0.0
C816 C 0.59776 0.43205 0.97608 0.0
C817 C 0.60463 0.4412 0.76763 0.0
C818 C 0.58424 0.41974 0.80249 0.0
C819 C 0.55818 0.39545 0.94275 0.0
C820 C 0.55382 0.39177 0.04732 0.0
C821 C 0.58015 0.41538 0.90667 0.0
C822 C 0.57232 0.40732 0.11542 0.0
C823 C 0.594 0.42737 0.08019 0.0
H824 H 0.17294 0.57884 0.29531 0.0
H825 H 0.16973 0.5407 0.01968 0.0
H826 H 0.17612 0.57612 0.91952 0.0
H827 H 0.17381 0.61401 0.91003 0.0
H828 H 0.17252 0.65 0.1856 0.0
H829 H 0.17727 0.61991 0.28583 0.0
C830 C 0.17467 0.57873 0.2136 0.0
C831 C 0.17088 0.55724 0.16484 0.0
C832 C 0.17716 0.59875 0.15626 0.0
C833 C 0.17263 0.5571 0.05873 0.0
C834 C 0.17609 0.57728 1.00141 0.0
C835 C 0.17564 0.61583 0.99174 0.0
C836 C 0.17286 0.63417 0.04047 0.0
C837 C 0.17713 0.59771 0.0491 0.0
C838 C 0.17468 0.63603 0.14658 0.0
C839 C 0.17719 0.6187 0.20394 0.0
loop_
_geom_bond_atom_site_label_1
_geom_bond_atom_site_label_2
_geom_bond_distance
_geom_bond_site_symmetry_2
_ccdc_geom_bond_type
Fe0 O2 1.918 . S
Fe0 O5 1.997 . S
Fe0 O6 2.002 . S
Fe0 O11 1.976 1_554 S
Fe0 O14 1.996 . S
Fe1 O2 1.918 1_556 S
Fe1 O9 1.997 1_556 S
Fe1 O12 1.996 . S
Fe1 O16 1.976 . S
Fe1 O19 2.002 . S
O2 Fe0 1.918 . S
O2 Fe1 1.918 1_554 S
O2 Fe3 1.918 . S
Fe3 O2 1.918 . S
Fe3 O4 2.002 . S
Fe3 O13 1.976 1_554 S
Fe3 O17 1.996 1_554 S
Fe3 O20 1.997 . S
O4 Fe3 2.002 . S
O4 C21 1.295 . S
O5 Fe0 1.997 . S
O5 C21 1.235 . S
O6 Fe0 2.002 . S
O6 C7 1.295 . S
C7 O6 1.295 . S
C7 O9 1.235 . S
C8 O13 1.287 1_554 S
C8 O14 1.255 . S
O9 Fe1 1.997 1_554 S
O9 C7 1.235 . S
C10 O16 1.287 . S
C10 O17 1.255 . S
O11 Fe0 1.976 1_556 S
O11 C18 1.287 . S
O12 Fe1 1.996 . S
O12 C18 1.255 . S
O13 Fe3 1.976 1_556 S
O13 C8 1.287 1_556 S
O14 Fe0 1.996 . S
O14 C8 1.255 . S
C15 O19 1.295 1_554 S
C15 O20 1.235 . S
O16 Fe1 1.976 . S
O16 C10 1.287 . S
O17 Fe3 1.996 1_556 S
O17 C10 1.255 . S
C18 O11 1.287 . S
C18 O12 1.255 . S
O19 Fe1 2.002 . S
O19 C15 1.295 1_556 S
O20 Fe3 1.997 . S
O20 C15 1.235 . S
C21 O4 1.295 . S
C21 O5 1.235 . S
Fe22 O24 1.918 . S
Fe22 O27 1.997 . S
Fe22 O28 2.002 . S
Fe22 O33 1.976 . S
Fe22 O36 1.996 . S
Fe23 O24 1.918 . S
Fe23 O31 1.997 . S
Fe23 O34 1.996 . S
Fe23 O38 1.976 . S
Fe23 O41 2.002 . S
O24 Fe22 1.918 . S
O24 Fe23 1.918 . S
O24 Fe25 1.918 . S
Fe25 O24 1.918 . S
Fe25 O26 2.002 . S
Fe25 O35 1.976 1_554 S
Fe25 O39 1.996 . S
Fe25 O42 1.997 . S
O26 Fe25 2.002 . S
O26 C43 1.295 . S
O27 Fe22 1.997 . S
O27 C43 1.235 . S
O28 Fe22 2.002 . S
O28 C29 1.295 . S
C29 O28 1.295 . S
C29 O31 1.235 . S
C30 O35 1.287 . S
C30 O36 1.255 1_556 S
O31 Fe23 1.997 . S
O31 C29 1.235 . S
C32 O38 1.287 . S
C32 O39 1.255 . S
O33 Fe22 1.976 . S
O33 C40 1.287 . S
O34 Fe23 1.996 . S
O34 C40 1.255 . S
O35 Fe25 1.976 1_556 S
O35 C30 1.287 . S
O36 Fe22 1.996 . S
O36 C30 1.255 1_554 S
C37 O41 1.295 . S
C37 O42 1.235 . S
O38 Fe23 1.976 . S
O38 C32 1.287 . S
O39 Fe25 1.996 . S
O39 C32 1.255 . S
C40 O33 1.287 . S
C40 O34 1.255 . S
O41 Fe23 2.002 . S
O41 C37 1.295 . S
O42 Fe25 1.997 . S
O42 C37 1.235 . S
C43 O26 1.295 . S
C43 O27 1.235 . S
Fe44 O46 1.918 . S
Fe44 O49 1.997 . S
Fe44 O50 2.002 . S
Fe44 O55 1.976 . S
Fe44 O58 1.996 . S
Fe45 O46 1.918 . S
Fe45 O53 1.997 . S
Fe45 O56 1.996 . S
Fe45 O60 1.976 . S
Fe45 O63 2.002 . S
O46 Fe44 1.918 . S
O46 Fe45 1.918 . S
O46 Fe47 1.918 . S
Fe47 O46 1.918 . S
Fe47 O48 2.002 . S
Fe47 O57 1.976 . S
Fe47 O61 1.996 . S
Fe47 O64 1.997 . S
O48 Fe47 2.002 . S
O48 C65 1.295 . S
O49 Fe44 1.997 . S
O49 C65 1.235 . S
O50 Fe44 2.002 . S
O50 C51 1.295 . S
C51 O50 1.295 . S
C51 O53 1.235 . S
C52 O57 1.287 . S
C52 O58 1.255 . S
O53 Fe45 1.997 . S
O53 C51 1.235 . S
C54 O60 1.287 . S
C54 O61 1.255 . S
O55 Fe44 1.976 . S
O55 C62 1.287 . S
O56 Fe45 1.996 . S
O56 C62 1.255 . S
O57 Fe47 1.976 . S
O57 C52 1.287 . S
O58 Fe44 1.996 . S
O58 C52 1.255 . S
C59 O63 1.295 . S
C59 O64 1.235 . S
O60 Fe45 1.976 . S
O60 C54 1.287 . S
O61 Fe47 1.996 . S
O61 C54 1.255 . S
C62 O55 1.287 . S
C62 O56 1.255 . S
O63 Fe45 2.002 . S
O63 C59 1.295 . S
O64 Fe47 1.997 . S
O64 C59 1.235 . S
C65 O48 1.295 . S
C65 O49 1.235 . S
Fe66 O68 1.918 . S
Fe66 O71 1.997 . S
Fe66 O72 2.002 . S
Fe66 O77 1.976 . S
Fe66 O80 1.996 . S
Fe67 O68 1.918 . S
Fe67 O75 1.997 . S
Fe67 O78 1.996 . S
Fe67 O82 1.976 . S
Fe67 O85 2.002 . S
O68 Fe66 1.918 . S
O68 Fe67 1.918 . S
O68 Fe69 1.918 . S
Fe69 O68 1.918 . S
Fe69 O70 2.002 . S
Fe69 O79 1.976 . S
Fe69 O83 1.996 . S
Fe69 O86 1.997 . S
O70 Fe69 2.002 . S
O70 C87 1.295 . S
O71 Fe66 1.997 . S
O71 C87 1.235 . S
O72 Fe66 2.002 . S
O72 C73 1.295 . S
C73 O72 1.295 . S
C73 O75 1.235 . S
C74 O79 1.287 . S
C74 O80 1.255 . S
O75 Fe67 1.997 . S
O75 C73 1.235 . S
C76 O82 1.287 . S
C76 O83 1.255 . S
O77 Fe66 1.976 . S
O77 C84 1.287 . S
O78 Fe67 1.996 . S
O78 C84 1.255 . S
O79 Fe69 1.976 . S
O79 C74 1.287 . S
O80 Fe66 1.996 . S
O80 C74 1.255 . S
C81 O85 1.295 . S
C81 O86 1.235 . S
O82 Fe67 1.976 . S
O82 C76 1.287 . S
O83 Fe69 1.996 . S
O83 C76 1.255 . S
C84 O77 1.287 . S
C84 O78 1.255 . S
O85 Fe67 2.002 . S
O85 C81 1.295 . S
O86 Fe69 1.997 . S
O86 C81 1.235 . S
C87 O70 1.295 . S
C87 O71 1.235 . S
Fe88 O90 1.918 . S
Fe88 O93 1.997 . S
Fe88 O94 2.002 . S
Fe88 O99 1.976 . S
Fe88 O102 1.996 . S
Fe89 O90 1.918 . S
Fe89 O97 1.997 . S
Fe89 O100 1.996 . S
Fe89 O104 1.976 . S
Fe89 O107 2.002 . S
O90 Fe88 1.918 . S
O90 Fe89 1.918 . S
O90 Fe91 1.918 . S
Fe91 O90 1.918 . S
Fe91 O92 2.002 . S
Fe91 O101 1.976 . S
Fe91 O105 1.996 . S
Fe91 O108 1.997 . S
O92 Fe91 2.002 . S
O92 C109 1.295 . S
O93 Fe88 1.997 . S
O93 C109 1.235 . S
O94 Fe88 2.002 . S
O94 C95 1.295 . S
C95 O94 1.295 . S
C95 O97 1.235 . S
C96 O101 1.287 . S
C96 O102 1.255 . S
O97 Fe89 1.997 . S
O97 C95 1.235 . S
C98 O104 1.287 . S
C98 O105 1.255 . S
O99 Fe88 1.976 . S
O99 C106 1.287 . S
O100 Fe89 1.996 . S
O100 C106 1.255 . S
O101 Fe91 1.976 . S
O101 C96 1.287 . S
O102 Fe88 1.996 . S
O102 C96 1.255 . S
C103 O107 1.295 . S
C103 O108 1.235 . S
O104 Fe89 1.976 . S
O104 C98 1.287 . S
O105 Fe91 1.996 . S
O105 C98 1.255 . S
C106 O99 1.287 . S
C106 O100 1.255 . S
O107 Fe89 2.002 . S
O107 C103 1.295 . S
O108 Fe91 1.997 . S
O108 C103 1.235 . S
C109 O92 1.295 . S
C109 O93 1.235 . S
Fe110 O112 1.918 . S
Fe110 O115 1.997 . S
Fe110 O116 1.996 1_556 S
Fe110 O121 1.976 . S
Fe110 O124 1.996 . S
Fe111 O112 1.918 . S
Fe111 O119 1.997 1_556 S
Fe111 O122 1.996 . S
Fe111 O126 1.976 . S
Fe111 O129 2.002 . S
O112 Fe110 1.918 . S
O112 Fe111 1.918 . S
O112 Fe113 1.918 . S
Fe113 O112 1.918 . S
Fe113 O114 2.002 . S
Fe113 O123 1.976 . S
Fe113 O127 1.996 . S
Fe113 O130 1.997 . S
O114 Fe113 2.002 . S
O114 C131 1.295 . S
O115 Fe110 1.997 . S
O115 C131 1.235 . S
O116 Fe110 1.996 1_554 S
O116 C117 1.300 . S
C117 O116 1.300 . S
C117 O119 1.235 . S
C118 O123 1.287 . S
C118 O124 1.255 . S
O119 Fe111 1.997 1_554 S
O119 C117 1.235 . S
C120 O126 1.287 . S
C120 O127 1.255 . S
O121 Fe110 1.976 . S
O121 C128 1.287 . S
O122 Fe111 1.996 . S
O122 C128 1.255 . S
O123 Fe113 1.976 . S
O123 C118 1.287 . S
O124 Fe110 1.996 . S
O124 C118 1.255 . S
C125 O129 1.295 . S
C125 O130 1.235 . S
O126 Fe111 1.976 . S
O126 C120 1.287 . S
O127 Fe113 1.996 . S
O127 C120 1.255 . S
C128 O121 1.287 . S
C128 O122 1.255 . S
O129 Fe111 2.002 . S
O129 C125 1.295 . S
O130 Fe113 1.997 . S
O130 C125 1.235 . S
C131 O114 1.295 . S
C131 O115 1.235 . S
Fe132 O134 1.918 . S
Fe132 O137 1.997 . S
Fe132 O138 2.002 . S
Fe132 O143 1.976 . S
Fe132 O146 1.996 . S
Fe133 O134 1.918 . S
Fe133 O141 1.997 . S
Fe133 O144 1.996 . S
Fe133 O148 1.976 . S
Fe133 O151 2.002 . S
O134 Fe132 1.918 . S
O134 Fe133 1.918 . S
O134 Fe135 1.918 . S
Fe135 O134 1.918 . S
Fe135 O136 2.002 . S
Fe135 O145 1.976 1_556 S
Fe135 O149 1.996 . S
Fe135 O152 1.997 . S
O136 Fe135 2.002 . S
O136 C153 1.295 . S
O137 Fe132 1.997 . S
O137 C153 1.235 . S
O138 Fe132 2.002 . S
O138 C139 1.295 . S
C139 O138 1.295 . S
C139 O141 1.235 . S
C140 O145 1.287 . S
C140 O146 1.255 1_554 S
O141 Fe133 1.997 . S
O141 C139 1.235 . S
C142 O148 1.287 . S
C142 O149 1.255 . S
O143 Fe132 1.976 . S
O143 C150 1.287 . S
O144 Fe133 1.996 . S
O144 C150 1.255 . S
O145 Fe135 1.976 1_554 S
O145 C140 1.287 . S
O146 Fe132 1.996 . S
O146 C140 1.255 1_556 S
C147 O151 1.295 . S
C147 O152 1.235 . S
O148 Fe133 1.976 . S
O148 C142 1.287 . S
O149 Fe135 1.996 . S
O149 C142 1.255 . S
C150 O143 1.287 . S
C150 O144 1.255 . S
O151 Fe133 2.002 . S
O151 C147 1.295 . S
O152 Fe135 1.997 . S
O152 C147 1.235 . S
C153 O136 1.295 . S
C153 O137 1.235 . S
Fe154 O156 1.918 . S
Fe154 O159 1.997 1_554 S
Fe154 O160 2.002 1_554 S
Fe154 O165 1.976 . S
Fe154 O168 1.996 . S
Fe155 O156 1.918 1_556 S
Fe155 O163 1.997 . S
Fe155 O166 1.996 . S
Fe155 O170 1.976 1_556 S
Fe155 O173 2.002 . S
O156 Fe154 1.918 . S
O156 Fe155 1.918 1_554 S
O156 Fe157 1.918 . S
Fe157 O156 1.918 . S
Fe157 O158 2.002 . S
Fe157 O167 1.976 . S
Fe157 O171 1.996 . S
Fe157 O174 1.997 1_554 S
O158 Fe157 2.002 . S
O158 C175 1.295 1_554 S
O159 Fe154 1.997 1_556 S
O159 C175 1.235 . S
O160 Fe154 2.002 1_556 S
O160 C161 1.295 . S
C161 O160 1.295 . S
C161 O163 1.235 . S
C162 O167 1.287 . S
C162 O168 1.255 . S
O163 Fe155 1.997 . S
O163 C161 1.235 . S
C164 O170 1.287 . S
C164 O171 1.255 . S
O165 Fe154 1.976 . S
O165 C172 1.287 . S
O166 Fe155 1.996 . S
O166 C172 1.255 1_556 S
O167 Fe157 1.976 . S
O167 C162 1.287 . S
O168 Fe154 1.996 . S
O168 C162 1.255 . S
C169 O173 1.295 . S
C169 O174 1.235 . S
O170 Fe155 1.976 1_554 S
O170 C164 1.287 . S
O171 Fe157 1.996 . S
O171 C164 1.255 . S
C172 O165 1.287 . S
C172 O166 1.255 1_554 S
O173 Fe155 2.002 . S
O173 C169 1.295 . S
O174 Fe157 1.997 1_556 S
O174 C169 1.235 . S
C175 O158 1.295 1_556 S
C175 O159 1.235 . S
Fe176 O178 1.918 . S
Fe176 O181 1.997 . S
Fe176 O182 2.002 . S
Fe176 O187 1.976 . S
Fe176 O190 1.996 . S
Fe177 O178 1.918 . S
Fe177 O185 1.997 1_554 S
Fe177 O188 1.996 . S
Fe177 O192 1.976 . S
Fe177 O195 2.002 . S
O178 Fe176 1.918 . S
O178 Fe177 1.918 . S
O178 Fe179 1.918 . S
Fe179 O178 1.918 . S
Fe179 O180 2.002 . S
Fe179 O189 1.976 . S
Fe179 O193 1.996 . S
Fe179 O196 1.997 . S
O180 Fe179 2.002 . S
O180 C197 1.295 . S
O181 Fe176 1.997 . S
O181 C197 1.235 . S
O182 Fe176 2.002 . S
O182 C183 1.295 1_554 S
C183 O182 1.295 1_556 S
C183 O185 1.235 . S
C184 O189 1.287 . S
C184 O190 1.255 . S
O185 Fe177 1.997 1_556 S
O185 C183 1.235 . S
C186 O192 1.287 . S
C186 O193 1.255 . S
O187 Fe176 1.976 . S
O187 C194 1.287 . S
O188 Fe177 1.996 . S
O188 C194 1.255 . S
O189 Fe179 1.976 . S
O189 C184 1.287 . S
O190 Fe176 1.996 . S
O190 C184 1.255 . S
C191 O195 1.295 . S
C191 O196 1.235 . S
O192 Fe177 1.976 . S
O192 C186 1.287 . S
O193 Fe179 1.996 . S
O193 C186 1.255 . S
C194 O187 1.287 . S
C194 O188 1.255 . S
O195 Fe177 2.002 . S
O195 C191 1.295 . S
O196 Fe179 1.997 . S
O196 C191 1.235 . S
C197 O180 1.295 . S
C197 O181 1.235 . S
Fe198 O200 1.918 . S
Fe198 O203 1.997 . S
Fe198 O204 2.002 . S
Fe198 O209 1.976 . S
Fe198 O212 1.996 . S
Fe199 O200 1.918 . S
Fe199 O207 1.997 . S
Fe199 O210 1.996 . S
Fe199 O214 1.976 . S
Fe199 O217 2.002 . S
O200 Fe198 1.918 . S
O200 Fe199 1.918 . S
O200 Fe201 1.918 . S
Fe201 O200 1.918 . S
Fe201 O202 2.002 . S
Fe201 O211 1.976 . S
Fe201 O215 1.996 . S
Fe201 O218 1.997 . S
O202 Fe201 2.002 . S
O202 C219 1.295 . S
O203 Fe198 1.997 . S
O203 C219 1.235 . S
O204 Fe198 2.002 . S
O204 C205 1.295 . S
C205 O204 1.295 . S
C205 O207 1.235 . S
C206 O211 1.287 . S
C206 O212 1.255 . S
O207 Fe199 1.997 . S
O207 C205 1.235 . S
C208 O214 1.287 . S
C208 O215 1.255 . S
O209 Fe198 1.976 . S
O209 C216 1.287 . S
O210 Fe199 1.996 . S
O210 C216 1.255 . S
O211 Fe201 1.976 . S
O211 C206 1.287 . S
O212 Fe198 1.996 . S
O212 C206 1.255 . S
C213 O217 1.295 . S
C213 O218 1.235 . S
O214 Fe199 1.976 . S
O214 C208 1.287 . S
O215 Fe201 1.996 . S
O215 C208 1.255 . S
C216 O209 1.287 . S
C216 O210 1.255 . S
O217 Fe199 2.002 . S
O217 C213 1.295 . S
O218 Fe201 1.997 . S
O218 C213 1.235 . S
C219 O202 1.295 . S
C219 O203 1.235 . S
Fe220 O222 1.918 . S
Fe220 O225 1.997 . S
Fe220 O226 2.002 . S
Fe220 O231 1.976 . S
Fe220 O234 1.996 . S
Fe221 O222 1.918 . S
Fe221 O229 1.997 . S
Fe221 O232 1.996 . S
Fe221 O236 1.976 . S
Fe221 O239 2.002 . S
O222 Fe220 1.918 . S
O222 Fe221 1.918 . S
O222 Fe223 1.918 . S
Fe223 O222 1.918 . S
Fe223 O224 2.002 . S
Fe223 O233 1.976 . S
Fe223 O237 1.996 . S
Fe223 O240 1.997 . S
O224 Fe223 2.002 . S
O224 C241 1.295 . S
O225 Fe220 1.997 . S
O225 C241 1.235 . S
O226 Fe220 2.002 . S
O226 C227 1.295 . S
C227 O226 1.295 . S
C227 O229 1.235 . S
C228 O233 1.287 . S
C228 O234 1.255 . S
O229 Fe221 1.997 . S
O229 C227 1.235 . S
C230 O236 1.287 . S
C230 O237 1.255 . S
O231 Fe220 1.976 . S
O231 C238 1.287 . S
O232 Fe221 1.996 . S
O232 C238 1.255 . S
O233 Fe223 1.976 . S
O233 C228 1.287 . S
O234 Fe220 1.996 . S
O234 C228 1.255 . S
C235 O239 1.295 . S
C235 O240 1.235 . S
O236 Fe221 1.976 . S
O236 C230 1.287 . S
O237 Fe223 1.996 . S
O237 C230 1.255 . S
C238 O231 1.287 . S
C238 O232 1.255 . S
O239 Fe221 2.002 . S
O239 C235 1.295 . S
O240 Fe223 1.997 . S
O240 C235 1.235 . S
C241 O224 1.295 . S
C241 O225 1.235 . S
Fe242 O244 1.918 . S
Fe242 O247 1.997 . S
Fe242 O248 2.002 . S
Fe242 O253 1.976 . S
Fe242 O256 1.996 . S
Fe243 O244 1.918 . S
Fe243 O251 1.997 . S
Fe243 O254 1.996 . S
Fe243 O258 1.976 . S
Fe243 O261 2.002 . S
O244 Fe242 1.918 . S
O244 Fe243 1.918 . S
O244 Fe245 1.918 . S
Fe245 O244 1.918 . S
Fe245 O246 2.002 . S
Fe245 O255 1.976 . S
Fe245 O259 1.996 . S
Fe245 O262 1.997 . S
O246 Fe245 2.002 . S
O246 C263 1.295 . S
O247 Fe242 1.997 . S
O247 C263 1.235 . S
O248 Fe242 2.002 . S
O248 C249 1.295 . S
C249 O248 1.295 . S
C249 O251 1.235 . S
C250 O255 1.287 . S
C250 O256 1.255 . S
O251 Fe243 1.997 . S
O251 C249 1.235 . S
C252 O258 1.287 . S
C252 O259 1.255 . S
O253 Fe242 1.976 . S
O253 C260 1.287 . S
O254 Fe243 1.996 . S
O254 C260 1.255 . S
O255 Fe245 1.976 . S
O255 C250 1.287 . S
O256 Fe242 1.996 . S
O256 C250 1.255 . S
C257 O261 1.295 . S
C257 O262 1.235 . S
O258 Fe243 1.976 . S
O258 C252 1.287 . S
O259 Fe245 1.996 . S
O259 C252 1.255 . S
C260 O253 1.287 . S
C260 O254 1.255 . S
O261 Fe243 2.002 . S
O261 C257 1.295 . S
O262 Fe245 1.997 . S
O262 C257 1.235 . S
C263 O246 1.295 . S
C263 O247 1.235 . S
H264 C270 0.930 . S
H265 C273 0.930 . S
H266 C274 0.930 . S
H267 C275 0.930 . S
H268 C278 0.930 . S
H269 C279 0.930 . S
C270 H264 0.930 . S
C270 C271 1.355 . S
C270 C272 1.415 . S
C271 C270 1.355 . S
C271 C273 1.419 . S
C272 C270 1.415 . S
C272 C277 1.425 . S
C272 C279 1.409 . S
C273 H265 0.930 . S
C273 C271 1.419 . S
C273 C274 1.362 . S
C274 H266 0.930 . S
C274 C273 1.362 . S
C274 C277 1.409 . S
C275 H267 0.930 . S
C275 C276 1.355 . S
C275 C277 1.415 . S
C276 C275 1.355 . S
C276 C278 1.419 . S
C277 C272 1.425 . S
C277 C274 1.409 . S
C277 C275 1.415 . S
C278 H268 0.930 . S
C278 C276 1.419 . S
C278 C279 1.362 . S
C279 H269 0.930 . S
C279 C272 1.409 . S
C279 C278 1.362 . S
H280 C286 0.930 . S
H281 C289 0.930 . S
H282 C290 0.930 . S
H283 C291 0.930 . S
H284 C294 0.930 . S
H285 C295 0.930 . S
C286 H280 0.930 . S
C286 C287 1.355 . S
C286 C288 1.415 . S
C287 C286 1.355 . S
C287 C289 1.419 . S
C288 C286 1.415 . S
C288 C293 1.425 . S
C288 C295 1.409 . S
C289 H281 0.930 . S
C289 C287 1.419 . S
C289 C290 1.362 . S
C290 H282 0.930 . S
C290 C289 1.362 . S
C290 C293 1.409 . S
C291 H283 0.930 . S
C291 C292 1.355 . S
C291 C293 1.415 . S
C292 C291 1.355 . S
C292 C294 1.419 . S
C293 C288 1.425 . S
C293 C290 1.409 . S
C293 C291 1.415 . S
C294 H284 0.930 . S
C294 C292 1.419 . S
C294 C295 1.362 . S
C295 H285 0.930 . S
C295 C288 1.409 . S
C295 C294 1.362 . S
H296 C302 0.930 . S
H297 C305 0.930 . S
H298 C306 0.930 . S
H299 C307 0.930 1_554 S
H300 C310 0.930 1_554 S
H301 C311 0.930 . S
C302 H296 0.930 . S
C302 C303 1.355 . S
C302 C304 1.415 . S
C303 C302 1.355 . S
C303 C305 1.419 . S
C304 C302 1.415 . S
C304 C309 1.425 . S
C304 C311 1.409 . S
C305 H297 0.930 . S
C305 C303 1.419 . S
C305 C306 1.362 . S
C306 H298 0.930 . S
C306 C305 1.362 . S
C306 C309 1.409 . S
C307 H299 0.930 1_556 S
C307 C308 1.355 1_556 S
C307 C309 1.415 . S
C308 C307 1.355 1_554 S
C308 C310 1.419 1_554 S
C309 C304 1.425 . S
C309 C306 1.409 . S
C309 C307 1.415 . S
C310 H300 0.930 1_556 S
C310 C308 1.419 1_556 S
C310 C311 1.362 . S
C311 H301 0.930 . S
C311 C304 1.409 . S
C311 C310 1.362 . S
H312 C318 0.930 . S
H313 C321 0.930 . S
H314 C322 0.930 . S
H315 C323 0.930 . S
H316 C326 0.930 . S
H317 C327 0.930 . S
C318 H312 0.930 . S
C318 C319 1.355 . S
C318 C320 1.415 . S
C319 C318 1.355 . S
C319 C321 1.419 . S
C320 C318 1.415 . S
C320 C325 1.425 . S
C320 C327 1.409 1_554 S
C321 H313 0.930 . S
C321 C319 1.419 . S
C321 C322 1.362 . S
C322 H314 0.930 . S
C322 C321 1.362 . S
C322 C325 1.409 . S
C323 H315 0.930 . S
C323 C324 1.355 . S
C323 C325 1.415 1_556 S
C324 C323 1.355 . S
C324 C326 1.419 . S
C325 C320 1.425 . S
C325 C322 1.409 . S
C325 C323 1.415 1_554 S
C326 H316 0.930 . S
C326 C324 1.419 . S
C326 C327 1.362 . S
C327 H317 0.930 . S
C327 C320 1.409 1_556 S
C327 C326 1.362 . S
H328 C334 0.930 . S
H329 C337 0.930 1_556 S
H330 C338 0.930 . S
H331 C339 0.930 . S
H332 C342 0.930 . S
H333 C343 0.930 . S
C334 H328 0.930 . S
C334 C335 1.355 . S
C334 C336 1.415 . S
C335 C334 1.355 . S
C335 C337 1.419 . S
C336 C334 1.415 . S
C336 C341 1.425 . S
C336 C343 1.409 . S
C337 H329 0.930 1_554 S
C337 C335 1.419 . S
C337 C338 1.362 . S
C338 H330 0.930 . S
C338 C337 1.362 . S
C338 C341 1.409 . S
C339 H331 0.930 . S
C339 C340 1.355 . S
C339 C341 1.415 . S
C340 C339 1.355 . S
C340 C342 1.419 . S
C341 C336 1.425 . S
C341 C338 1.409 . S
C341 C339 1.415 . S
C342 H332 0.930 . S
C342 C340 1.419 . S
C342 C343 1.362 . S
C343 H333 0.930 . S
C343 C336 1.409 . S
C343 C342 1.362 . S
H344 C350 0.930 . S
H345 C353 0.930 . S
H346 C354 0.930 . S
H347 C355 0.930 . S
H348 C358 0.930 . S
H349 C359 0.930 . S
C350 H344 0.930 . S
C350 C351 1.355 . S
C350 C352 1.415 . S
C351 C350 1.355 . S
C351 C353 1.419 . S
C352 C350 1.415 . S
C352 C357 1.425 . S
C352 C359 1.409 . S
C353 H345 0.930 . S
C353 C351 1.419 . S
C353 C354 1.362 . S
C354 H346 0.930 . S
C354 C353 1.362 . S
C354 C357 1.409 . S
C355 H347 0.930 . S
C355 C356 1.355 . S
C355 C357 1.415 . S
C356 C355 1.355 . S
C356 C358 1.419 . S
C357 C352 1.425 . S
C357 C354 1.409 . S
C357 C355 1.415 . S
C358 H348 0.930 . S
C358 C356 1.419 . S
C358 C359 1.362 . S
C359 H349 0.930 . S
C359 C352 1.409 . S
C359 C358 1.362 . S
H360 C366 0.930 . S
H361 C369 0.930 . S
H362 C370 0.930 . S
H363 C371 0.930 . S
H364 C374 0.930 . S
H365 C375 0.930 . S
C366 H360 0.930 . S
C366 C367 1.355 . S
C366 C368 1.415 . S
C367 C366 1.355 . S
C367 C369 1.419 . S
C368 C366 1.415 . S
C368 C373 1.425 . S
C368 C375 1.409 . S
C369 H361 0.930 . S
C369 C367 1.419 . S
C369 C370 1.362 . S
C370 H362 0.930 . S
C370 C369 1.362 . S
C370 C373 1.409 . S
C371 H363 0.930 . S
C371 C372 1.355 . S
C371 C373 1.415 . S
C372 C371 1.355 . S
C372 C374 1.419 . S
C373 C368 1.425 . S
C373 C370 1.409 . S
C373 C371 1.415 . S
C374 H364 0.930 . S
C374 C372 1.419 . S
C374 C375 1.362 . S
C375 H365 0.930 . S
C375 C368 1.409 . S
C375 C374 1.362 . S
H376 C382 0.930 . S
H377 C385 0.930 . S
H378 C386 0.930 . S
H379 C387 0.930 . S
H380 C390 0.930 . S
H381 C391 0.930 . S
C382 H376 0.930 . S
C382 C383 1.355 . S
C382 C384 1.415 . S
C383 C382 1.355 . S
C383 C385 1.419 . S
C384 C382 1.415 . S
C384 C389 1.425 . S
C384 C391 1.409 . S
C385 H377 0.930 . S
C385 C383 1.419 . S
C385 C386 1.362 . S
C386 H378 0.930 . S
C386 C385 1.362 . S
C386 C389 1.409 . S
C387 H379 0.930 . S
C387 C388 1.355 . S
C387 C389 1.415 . S
C388 C387 1.355 . S
C388 C390 1.419 . S
C389 C384 1.425 . S
C389 C386 1.409 . S
C389 C387 1.415 . S
C390 H380 0.930 . S
C390 C388 1.419 . S
C390 C391 1.362 . S
C391 H381 0.930 . S
C391 C384 1.409 . S
C391 C390 1.362 . S
H392 C398 0.930 . S
H393 C401 0.930 . S
H394 C402 0.930 . S
H395 C403 0.930 . S
H396 C406 0.930 . S
H397 C407 0.930 . S
C398 H392 0.930 . S
C398 C399 1.355 . S
C398 C400 1.415 . S
C399 C398 1.355 . S
C399 C401 1.419 . S
C400 C398 1.415 . S
C400 C405 1.425 . S
C400 C407 1.409 . S
C401 H393 0.930 . S
C401 C399 1.419 . S
C401 C402 1.362 . S
C402 H394 0.930 . S
C402 C401 1.362 . S
C402 C405 1.409 . S
C403 H395 0.930 . S
C403 C404 1.355 . S
C403 C405 1.415 . S
C404 C403 1.355 . S
C404 C406 1.419 . S
C405 C400 1.425 . S
C405 C402 1.409 . S
C405 C403 1.415 . S
C406 H396 0.930 . S
C406 C404 1.419 . S
C406 C407 1.362 . S
C407 H397 0.930 . S
C407 C400 1.409 . S
C407 C406 1.362 . S
H408 C414 0.930 . S
H409 C417 0.930 1_554 S
H410 C418 0.930 . S
H411 C419 0.930 . S
H412 C422 0.930 . S
H413 C423 0.930 . S
C414 H408 0.930 . S
C414 C415 1.355 1_556 S
C414 C416 1.415 . S
C415 C414 1.355 1_554 S
C415 C417 1.419 1_554 S
C416 C414 1.415 . S
C416 C421 1.425 . S
C416 C423 1.409 . S
C417 H409 0.930 1_556 S
C417 C415 1.419 1_556 S
C417 C418 1.362 . S
C418 H410 0.930 . S
C418 C417 1.362 . S
C418 C421 1.409 . S
C419 H411 0.930 . S
C419 C420 1.355 . S
C419 C421 1.415 . S
C420 C419 1.355 . S
C420 C422 1.419 . S
C421 C416 1.425 . S
C421 C418 1.409 . S
C421 C419 1.415 . S
C422 H412 0.930 . S
C422 C420 1.419 . S
C422 C423 1.362 . S
C423 H413 0.930 . S
C423 C416 1.409 . S
C423 C422 1.362 . S
H424 C430 0.930 . S
H425 C433 0.930 . S
H426 C434 0.930 1_554 S
H427 C435 0.930 . S
H428 C438 0.930 . S
H429 C439 0.930 1_556 S
C430 H424 0.930 . S
C430 C431 1.355 . S
C430 C432 1.415 . S
C431 C430 1.355 . S
C431 C433 1.419 . S
C432 C430 1.415 . S
C432 C437 1.425 1_556 S
C432 C439 1.409 1_556 S
C433 H425 0.930 . S
C433 C431 1.419 . S
C433 C434 1.362 . S
C434 H426 0.930 1_556 S
C434 C433 1.362 . S
C434 C437 1.409 1_556 S
C435 H427 0.930 . S
C435 C436 1.355 . S
C435 C437 1.415 . S
C436 C435 1.355 . S
C436 C438 1.419 . S
C437 C432 1.425 1_554 S
C437 C434 1.409 1_554 S
C437 C435 1.415 . S
C438 H428 0.930 . S
C438 C436 1.419 . S
C438 C439 1.362 . S
C439 H429 0.930 1_554 S
C439 C432 1.409 1_554 S
C439 C438 1.362 . S
H440 C446 0.930 . S
H441 C449 0.930 . S
H442 C450 0.930 . S
H443 C451 0.930 . S
H444 C454 0.930 . S
H445 C455 0.930 . S
C446 H440 0.930 . S
C446 C447 1.355 . S
C446 C448 1.415 . S
C447 C446 1.355 . S
C447 C449 1.419 . S
C448 C446 1.415 . S
C448 C453 1.425 . S
C448 C455 1.409 . S
C449 H441 0.930 . S
C449 C447 1.419 . S
C449 C450 1.362 . S
C450 H442 0.930 . S
C450 C449 1.362 . S
C450 C453 1.409 . S
C451 H443 0.930 . S
C451 C452 1.355 1_554 S
C451 C453 1.415 . S
C452 C451 1.355 1_556 S
C452 C454 1.419 . S
C453 C448 1.425 . S
C453 C450 1.409 . S
C453 C451 1.415 . S
C454 H444 0.930 . S
C454 C452 1.419 . S
C454 C455 1.362 1_556 S
C455 H445 0.930 . S
C455 C448 1.409 . S
C455 C454 1.362 1_554 S
H456 C462 0.930 . S
H457 C465 0.930 . S
H458 C466 0.930 . S
H459 C467 0.930 . S
H460 C470 0.930 . S
H461 C471 0.930 . S
C462 H456 0.930 . S
C462 C463 1.357 . S
C462 C464 1.415 . S
C463 C462 1.357 . S
C463 C465 1.417 1_554 S
C464 C462 1.415 . S
C464 C469 1.425 1_544 S
C464 C471 1.409 1_545 S
C465 H457 0.930 . S
C465 C463 1.417 1_556 S
C465 C466 1.362 . S
C466 H458 0.930 . S
C466 C465 1.362 . S
C466 C469 1.409 1_545 S
C467 H459 0.930 . S
C467 C468 1.355 1_556 S
C467 C469 1.415 . S
C468 C467 1.355 1_554 S
C468 C470 1.419 . S
C469 C464 1.425 1_566 S
C469 C466 1.409 1_565 S
C469 C467 1.415 . S
C470 H460 0.930 . S
C470 C468 1.419 . S
C470 C471 1.362 . S
C471 H461 0.930 . S
C471 C464 1.409 1_565 S
C471 C470 1.362 . S
H472 C478 0.930 . S
H473 C481 0.930 . S
H474 C482 0.930 . S
H475 C483 0.930 . S
H476 C486 0.930 . S
H477 C487 0.930 . S
C478 H472 0.930 . S
C478 C479 1.355 . S
C478 C480 1.415 . S
C479 C478 1.355 . S
C479 C481 1.419 . S
C480 C478 1.415 . S
C480 C485 1.425 . S
C480 C487 1.409 . S
C481 H473 0.930 . S
C481 C479 1.419 . S
C481 C482 1.362 . S
C482 H474 0.930 . S
C482 C481 1.362 . S
C482 C485 1.409 . S
C483 H475 0.930 . S
C483 C484 1.355 . S
C483 C485 1.415 . S
C484 C483 1.355 . S
C484 C486 1.419 . S
C485 C480 1.425 . S
C485 C482 1.409 . S
C485 C483 1.415 . S
C486 H476 0.930 . S
C486 C484 1.419 . S
C486 C487 1.362 . S
C487 H477 0.930 . S
C487 C480 1.409 . S
C487 C486 1.362 . S
H488 C494 0.930 . S
H489 C497 0.930 . S
H490 C498 0.930 . S
H491 C499 0.930 . S
H492 C502 0.930 . S
H493 C503 0.930 . S
C494 H488 0.930 . S
C494 C495 1.355 . S
C494 C496 1.415 . S
C495 C494 1.355 . S
C495 C497 1.419 . S
C496 C494 1.415 . S
C496 C501 1.425 1_455 S
C496 C503 1.409 1_455 S
C497 H489 0.930 . S
C497 C495 1.419 . S
C497 C498 1.362 . S
C498 H490 0.930 . S
C498 C497 1.362 . S
C498 C501 1.409 1_455 S
C499 H491 0.930 . S
C499 C500 1.355 . S
C499 C501 1.415 . S
C500 C499 1.355 . S
C500 C502 1.419 . S
C501 C496 1.425 1_655 S
C501 C498 1.409 1_655 S
C501 C499 1.415 . S
C502 H492 0.930 . S
C502 C500 1.419 . S
C502 C503 1.362 . S
C503 H493 0.930 . S
C503 C496 1.409 1_655 S
C503 C502 1.362 . S
H504 C510 0.930 . S
H505 C513 0.930 . S
H506 C514 0.930 . S
H507 C515 0.930 . S
H508 C518 0.930 . S
H509 C519 0.930 . S
C510 H504 0.930 . S
C510 C511 1.355 . S
C510 C512 1.415 . S
C511 C510 1.355 . S
C511 C513 1.419 . S
C512 C510 1.415 . S
C512 C517 1.425 1_565 S
C512 C519 1.409 1_565 S
C513 H505 0.930 . S
C513 C511 1.419 . S
C513 C514 1.362 . S
C514 H506 0.930 . S
C514 C513 1.362 . S
C514 C517 1.409 1_565 S
C515 H507 0.930 . S
C515 C516 1.355 . S
C515 C517 1.415 . S
C516 C515 1.355 . S
C516 C518 1.419 . S
C517 C512 1.425 1_545 S
C517 C514 1.409 1_545 S
C517 C515 1.415 . S
C518 H508 0.930 . S
C518 C516 1.419 . S
C518 C519 1.362 . S
C519 H509 0.930 . S
C519 C512 1.409 1_545 S
C519 C518 1.362 . S
H520 C526 0.930 . S
H521 C529 0.930 . S
H522 C530 0.930 . S
H523 C531 0.930 . S
H524 C534 0.930 . S
H525 C535 0.930 . S
C526 H520 0.930 . S
C526 C527 1.355 . S
C526 C528 1.415 . S
C527 C526 1.355 . S
C527 C529 1.419 . S
C528 C526 1.415 . S
C528 C533 1.425 . S
C528 C535 1.409 . S
C529 H521 0.930 . S
C529 C527 1.419 . S
C529 C530 1.362 . S
C530 H522 0.930 . S
C530 C529 1.362 . S
C530 C533 1.409 . S
C531 H523 0.930 . S
C531 C532 1.355 . S
C531 C533 1.415 . S
C532 C531 1.355 . S
C532 C534 1.419 . S
C533 C528 1.425 . S
C533 C530 1.409 . S
C533 C531 1.415 . S
C534 H524 0.930 . S
C534 C532 1.419 . S
C534 C535 1.362 . S
C535 H525 0.930 . S
C535 C528 1.409 . S
C535 C534 1.362 . S
H536 C542 0.930 . S
H537 C545 0.930 . S
H538 C546 0.930 . S
H539 C547 0.930 . S
H540 C550 0.930 . S
H541 C551 0.930 . S
C542 H536 0.930 . S
C542 C543 1.355 . S
C542 C544 1.415 . S
C543 C542 1.355 . S
C543 C545 1.419 . S
C544 C542 1.415 . S
C544 C549 1.425 1_455 S
C544 C551 1.409 1_455 S
C545 H537 0.930 . S
C545 C543 1.419 . S
C545 C546 1.362 . S
C546 H538 0.930 . S
C546 C545 1.362 . S
C546 C549 1.409 1_455 S
C547 H539 0.930 . S
C547 C548 1.355 . S
C547 C549 1.415 . S
C548 C547 1.355 . S
C548 C550 1.419 . S
C549 C544 1.425 1_655 S
C549 C546 1.409 1_655 S
C549 C547 1.415 . S
C550 H540 0.930 . S
C550 C548 1.419 . S
C550 C551 1.362 . S
C551 H541 0.930 . S
C551 C544 1.409 1_655 S
C551 C550 1.362 . S
H552 C558 0.930 . S
H553 C561 0.930 . S
H554 C562 0.930 . S
H555 C563 0.930 . S
H556 C566 0.930 . S
H557 C567 0.930 . S
C558 H552 0.930 . S
C558 C559 1.355 . S
C558 C560 1.415 . S
C559 C558 1.355 . S
C559 C561 1.419 . S
C560 C558 1.415 . S
C560 C565 1.425 . S
C560 C567 1.409 . S
C561 H553 0.930 . S
C561 C559 1.419 . S
C561 C562 1.362 . S
C562 H554 0.930 . S
C562 C561 1.362 . S
C562 C565 1.409 . S
C563 H555 0.930 . S
C563 C564 1.355 . S
C563 C565 1.415 . S
C564 C563 1.355 . S
C564 C566 1.419 . S
C565 C560 1.425 . S
C565 C562 1.409 . S
C565 C563 1.415 . S
C566 H556 0.930 . S
C566 C564 1.419 . S
C566 C567 1.362 . S
C567 H557 0.930 . S
C567 C560 1.409 . S
C567 C566 1.362 . S
H568 C574 0.930 . S
H569 C577 0.930 . S
H570 C578 0.930 . S
H571 C579 0.930 . S
H572 C582 0.930 . S
H573 C583 0.930 . S
C574 H568 0.930 . S
C574 C575 1.355 1_556 S
C574 C576 1.415 . S
C575 C574 1.355 1_554 S
C575 C577 1.419 . S
C576 C574 1.415 . S
C576 C581 1.425 . S
C576 C583 1.409 . S
C577 H569 0.930 . S
C577 C575 1.419 . S
C577 C578 1.362 . S
C578 H570 0.930 . S
C578 C577 1.362 . S
C578 C581 1.409 1_554 S
C579 H571 0.930 . S
C579 C580 1.355 . S
C579 C581 1.415 . S
C580 C579 1.355 . S
C580 C582 1.419 . S
C581 C576 1.425 . S
C581 C578 1.409 1_556 S
C581 C579 1.415 . S
C582 H572 0.930 . S
C582 C580 1.419 . S
C582 C583 1.362 . S
C583 H573 0.930 . S
C583 C576 1.409 . S
C583 C582 1.362 . S
H584 C590 0.930 . S
H585 C593 0.930 . S
H586 C594 0.930 . S
H587 C595 0.930 . S
H588 C598 0.930 . S
H589 C599 0.930 . S
C590 H584 0.930 . S
C590 C591 1.355 1_554 S
C590 C592 1.415 . S
C591 C590 1.355 1_556 S
C591 C593 1.419 . S
C592 C590 1.415 . S
C592 C597 1.425 . S
C592 C599 1.409 . S
C593 H585 0.930 . S
C593 C591 1.419 . S
C593 C594 1.362 . S
C594 H586 0.930 . S
C594 C593 1.362 . S
C594 C597 1.409 1_556 S
C595 H587 0.930 . S
C595 C596 1.355 . S
C595 C597 1.415 . S
C596 C595 1.355 . S
C596 C598 1.419 . S
C597 C592 1.425 . S
C597 C594 1.409 1_554 S
C597 C595 1.415 . S
C598 H588 0.930 . S
C598 C596 1.419 . S
C598 C599 1.362 . S
C599 H589 0.930 . S
C599 C592 1.409 . S
C599 C598 1.362 . S
H600 C606 0.930 . S
H601 C609 0.930 . S
H602 C610 0.930 . S
H603 C611 0.930 . S
H604 C614 0.930 . S
H605 C615 0.930 . S
C606 H600 0.930 . S
C606 C607 1.355 . S
C606 C608 1.415 . S
C607 C606 1.355 . S
C607 C609 1.419 . S
C608 C606 1.415 . S
C608 C613 1.425 . S
C608 C615 1.409 . S
C609 H601 0.930 . S
C609 C607 1.419 . S
C609 C610 1.362 . S
C610 H602 0.930 . S
C610 C609 1.362 . S
C610 C613 1.409 . S
C611 H603 0.930 . S
C611 C612 1.355 . S
C611 C613 1.415 . S
C612 C611 1.355 . S
C612 C614 1.419 . S
C613 C608 1.425 . S
C613 C610 1.409 . S
C613 C611 1.415 . S
C614 H604 0.930 . S
C614 C612 1.419 . S
C614 C615 1.362 . S
C615 H605 0.930 . S
C615 C608 1.409 . S
C615 C614 1.362 . S
H616 C622 0.930 . S
H617 C625 0.930 . S
H618 C626 0.930 . S
H619 C627 0.930 . S
H620 C630 0.930 . S
H621 C631 0.930 . S
C622 H616 0.930 . S
C622 C623 1.355 . S
C622 C624 1.415 . S
C623 C622 1.355 . S
C623 C625 1.419 . S
C624 C622 1.415 . S
C624 C629 1.425 . S
C624 C631 1.409 . S
C625 H617 0.930 . S
C625 C623 1.419 . S
C625 C626 1.362 . S
C626 H618 0.930 . S
C626 C625 1.362 . S
C626 C629 1.409 . S
C627 H619 0.930 . S
C627 C628 1.355 . S
C627 C629 1.415 . S
C628 C627 1.355 . S
C628 C630 1.419 . S
C629 C624 1.425 . S
C629 C626 1.409 . S
C629 C627 1.415 . S
C630 H620 0.930 . S
C630 C628 1.419 . S
C630 C631 1.362 . S
C631 H621 0.930 . S
C631 C624 1.409 . S
C631 C630 1.362 . S
H632 C638 0.930 . S
H633 C641 0.930 . S
H634 C642 0.930 . S
H635 C643 0.930 . S
H636 C646 0.930 . S
H637 C647 0.930 . S
C638 H632 0.930 . S
C638 C639 1.355 . S
C638 C640 1.415 . S
C639 C638 1.355 . S
C639 C641 1.419 . S
C640 C638 1.415 . S
C640 C645 1.425 . S
C640 C647 1.409 . S
C641 H633 0.930 . S
C641 C639 1.419 . S
C641 C642 1.362 . S
C642 H634 0.930 . S
C642 C641 1.362 . S
C642 C645 1.409 . S
C643 H635 0.930 . S
C643 C644 1.355 . S
C643 C645 1.415 . S
C644 C643 1.355 . S
C644 C646 1.419 . S
C645 C640 1.425 . S
C645 C642 1.409 . S
C645 C643 1.415 . S
C646 H636 0.930 . S
C646 C644 1.419 . S
C646 C647 1.362 . S
C647 H637 0.930 . S
C647 C640 1.409 . S
C647 C646 1.362 . S
H648 C654 0.930 1_556 S
H649 C657 0.930 . S
H650 C658 0.930 . S
H651 C659 0.930 . S
H652 C662 0.930 . S
H653 C663 0.930 1_556 S
C654 H648 0.930 1_554 S
C654 C655 1.355 . S
C654 C656 1.415 . S
C655 C654 1.355 . S
C655 C657 1.419 . S
C656 C654 1.415 . S
C656 C661 1.425 . S
C656 C663 1.409 . S
C657 H649 0.930 . S
C657 C655 1.419 . S
C657 C658 1.362 . S
C658 H650 0.930 . S
C658 C657 1.362 . S
C658 C661 1.409 . S
C659 H651 0.930 . S
C659 C660 1.355 . S
C659 C661 1.415 . S
C660 C659 1.355 . S
C660 C662 1.419 . S
C661 C656 1.425 . S
C661 C658 1.409 . S
C661 C659 1.415 . S
C662 H652 0.930 . S
C662 C660 1.419 . S
C662 C663 1.362 . S
C663 H653 0.930 1_554 S
C663 C656 1.409 . S
C663 C662 1.362 . S
H664 C670 0.930 . S
H665 C673 0.930 . S
H666 C674 0.930 . S
H667 C675 0.930 . S
H668 C678 0.930 . S
H669 C679 0.930 . S
C670 H664 0.930 . S
C670 C671 1.355 . S
C670 C672 1.415 . S
C671 C670 1.355 . S
C671 C673 1.419 . S
C672 C670 1.415 . S
C672 C677 1.425 . S
C672 C679 1.409 . S
C673 H665 0.930 . S
C673 C671 1.419 . S
C673 C674 1.362 . S
C674 H666 0.930 . S
C674 C673 1.362 . S
C674 C677 1.409 . S
C675 H667 0.930 . S
C675 C676 1.355 . S
C675 C677 1.415 . S
C676 C675 1.355 . S
C676 C678 1.419 . S
C677 C672 1.425 . S
C677 C674 1.409 . S
C677 C675 1.415 . S
C678 H668 0.930 . S
C678 C676 1.419 . S
C678 C679 1.362 . S
C679 H669 0.930 . S
C679 C672 1.409 . S
C679 C678 1.362 . S
H680 C686 0.930 . S
H681 C689 0.930 . S
H682 C690 0.930 . S
H683 C691 0.930 . S
H684 C694 0.930 . S
H685 C695 0.930 . S
C686 H680 0.930 . S
C686 C687 1.355 . S
C686 C688 1.415 . S
C687 C686 1.355 . S
C687 C689 1.419 . S
C688 C686 1.415 . S
C688 C693 1.425 . S
C688 C695 1.409 . S
C689 H681 0.930 . S
C689 C687 1.419 . S
C689 C690 1.362 . S
C690 H682 0.930 . S
C690 C689 1.362 . S
C690 C693 1.409 . S
C691 H683 0.930 . S
C691 C692 1.355 . S
C691 C693 1.415 . S
C692 C691 1.355 . S
C692 C694 1.419 . S
C693 C688 1.425 . S
C693 C690 1.409 . S
C693 C691 1.415 . S
C694 H684 0.930 . S
C694 C692 1.419 . S
C694 C695 1.362 . S
C695 H685 0.930 . S
C695 C688 1.409 . S
C695 C694 1.362 . S
H696 C702 0.930 . S
H697 C705 0.930 . S
H698 C706 0.930 . S
H699 C707 0.930 . S
H700 C710 0.930 . S
H701 C711 0.930 . S
C702 H696 0.930 . S
C702 C703 1.355 . S
C702 C704 1.415 . S
C703 C702 1.355 . S
C703 C705 1.419 . S
C704 C702 1.415 . S
C704 C709 1.425 . S
C704 C711 1.409 . S
C705 H697 0.930 . S
C705 C703 1.419 . S
C705 C706 1.362 . S
C706 H698 0.930 . S
C706 C705 1.362 . S
C706 C709 1.409 . S
C707 H699 0.930 . S
C707 C708 1.355 . S
C707 C709 1.415 . S
C708 C707 1.355 . S
C708 C710 1.419 . S
C709 C704 1.425 . S
C709 C706 1.409 . S
C709 C707 1.415 . S
C710 H700 0.930 . S
C710 C708 1.419 . S
C710 C711 1.362 . S
C711 H701 0.930 . S
C711 C704 1.409 . S
C711 C710 1.362 . S
H712 C718 0.930 . S
H713 C721 0.930 . S
H714 C722 0.930 . S
H715 C723 0.930 . S
H716 C726 0.930 . S
H717 C727 0.930 . S
C718 H712 0.930 . S
C718 C719 1.355 . S
C718 C720 1.415 . S
C719 C718 1.355 . S
C719 C721 1.419 . S
C720 C718 1.415 . S
C720 C725 1.425 . S
C720 C727 1.409 . S
C721 H713 0.930 . S
C721 C719 1.419 . S
C721 C722 1.362 . S
C722 H714 0.930 . S
C722 C721 1.362 . S
C722 C725 1.409 . S
C723 H715 0.930 . S
C723 C724 1.355 . S
C723 C725 1.415 . S
C724 C723 1.355 . S
C724 C726 1.419 . S
C725 C720 1.425 . S
C725 C722 1.409 . S
C725 C723 1.415 . S
C726 H716 0.930 . S
C726 C724 1.419 . S
C726 C727 1.362 . S
C727 H717 0.930 . S
C727 C720 1.409 . S
C727 C726 1.362 . S
H728 C734 0.930 . S
H729 C737 0.930 . S
H730 C738 0.930 1_554 S
H731 C739 0.930 1_554 S
H732 C742 0.930 . S
H733 C743 0.930 . S
C734 H728 0.930 . S
C734 C735 1.355 . S
C734 C736 1.415 . S
C735 C734 1.355 . S
C735 C737 1.419 . S
C736 C734 1.415 . S
C736 C741 1.425 . S
C736 C743 1.409 . S
C737 H729 0.930 . S
C737 C735 1.419 . S
C737 C738 1.362 . S
C738 H730 0.930 1_556 S
C738 C737 1.362 . S
C738 C741 1.409 . S
C739 H731 0.930 1_556 S
C739 C740 1.355 . S
C739 C741 1.415 . S
C740 C739 1.355 . S
C740 C742 1.419 . S
C741 C736 1.425 . S
C741 C738 1.409 . S
C741 C739 1.415 . S
C742 H732 0.930 . S
C742 C740 1.419 . S
C742 C743 1.362 . S
C743 H733 0.930 . S
C743 C736 1.409 . S
C743 C742 1.362 . S
H744 C750 0.930 . S
H745 C753 0.930 . S
H746 C754 0.930 . S
H747 C755 0.930 . S
H748 C758 0.930 . S
H749 C759 0.930 . S
C750 H744 0.930 . S
C750 C751 1.355 . S
C750 C752 1.415 . S
C751 C750 1.355 . S
C751 C753 1.419 . S
C752 C750 1.415 . S
C752 C757 1.425 . S
C752 C759 1.409 . S
C753 H745 0.930 . S
C753 C751 1.419 . S
C753 C754 1.362 . S
C754 H746 0.930 . S
C754 C753 1.362 . S
C754 C757 1.409 . S
C755 H747 0.930 . S
C755 C756 1.355 . S
C755 C757 1.415 . S
C756 C755 1.355 . S
C756 C758 1.419 . S
C757 C752 1.425 . S
C757 C754 1.409 . S
C757 C755 1.415 . S
C758 H748 0.930 . S
C758 C756 1.419 . S
C758 C759 1.362 . S
C759 H749 0.930 . S
C759 C752 1.409 . S
C759 C758 1.362 . S
H760 C766 0.930 . S
H761 C769 0.930 . S
H762 C770 0.930 . S
H763 C771 0.930 . S
H764 C774 0.930 . S
H765 C775 0.930 . S
C766 H760 0.930 . S
C766 C767 1.355 . S
C766 C768 1.415 . S
C767 C766 1.355 . S
C767 C769 1.419 . S
C768 C766 1.415 . S
C768 C773 1.425 . S
C768 C775 1.409 . S
C769 H761 0.930 . S
C769 C767 1.419 . S
C769 C770 1.362 . S
C770 H762 0.930 . S
C770 C769 1.362 . S
C770 C773 1.409 . S
C771 H763 0.930 . S
C771 C772 1.355 . S
C771 C773 1.415 . S
C772 C771 1.355 . S
C772 C774 1.419 . S
C773 C768 1.425 . S
C773 C770 1.409 . S
C773 C771 1.415 . S
C774 H764 0.930 . S
C774 C772 1.419 . S
C774 C775 1.362 . S
C775 H765 0.930 . S
C775 C768 1.409 . S
C775 C774 1.362 . S
H776 C782 0.930 . S
H777 C785 0.930 . S
H778 C786 0.930 . S
H779 C787 0.930 . S
H780 C790 0.930 . S
H781 C791 0.930 . S
C782 H776 0.930 . S
C782 C783 1.355 . S
C782 C784 1.415 . S
C783 C782 1.355 . S
C783 C785 1.419 . S
C784 C782 1.415 . S
C784 C789 1.425 . S
C784 C791 1.409 . S
C785 H777 0.930 . S
C785 C783 1.419 . S
C785 C786 1.362 . S
C786 H778 0.930 . S
C786 C785 1.362 . S
C786 C789 1.409 . S
C787 H779 0.930 . S
C787 C788 1.355 . S
C787 C789 1.415 . S
C788 C787 1.355 . S
C788 C790 1.419 . S
C789 C784 1.425 . S
C789 C786 1.409 . S
C789 C787 1.415 . S
C790 H780 0.930 . S
C790 C788 1.419 . S
C790 C791 1.362 . S
C791 H781 0.930 . S
C791 C784 1.409 . S
C791 C790 1.362 . S
H792 C798 0.930 . S
H793 C801 0.930 . S
H794 C802 0.930 . S
H795 C803 0.930 . S
H796 C806 0.930 . S
H797 C807 0.930 . S
C798 H792 0.930 . S
C798 C799 1.355 . S
C798 C800 1.415 . S
C799 C798 1.355 . S
C799 C801 1.419 . S
C800 C798 1.415 . S
C800 C805 1.425 . S
C800 C807 1.409 . S
C801 H793 0.930 . S
C801 C799 1.419 . S
C801 C802 1.362 . S
C802 H794 0.930 . S
C802 C801 1.362 . S
C802 C805 1.409 . S
C803 H795 0.930 . S
C803 C804 1.355 . S
C803 C805 1.415 . S
C804 C803 1.355 . S
C804 C806 1.419 . S
C805 C800 1.425 . S
C805 C802 1.409 . S
C805 C803 1.415 . S
C806 H796 0.930 . S
C806 C804 1.419 . S
C806 C807 1.362 . S
C807 H797 0.930 . S
C807 C800 1.409 . S
C807 C806 1.362 . S
H808 C814 0.930 . S
H809 C817 0.930 . S
H810 C818 0.930 . S
H811 C819 0.930 . S
H812 C822 0.930 . S
H813 C823 0.930 . S
C814 H808 0.930 . S
C814 C815 1.355 . S
C814 C816 1.415 . S
C815 C814 1.355 . S
C815 C817 1.419 . S
C816 C814 1.415 . S
C816 C821 1.425 . S
C816 C823 1.409 1_556 S
C817 H809 0.930 . S
C817 C815 1.419 . S
C817 C818 1.362 . S
C818 H810 0.930 . S
C818 C817 1.362 . S
C818 C821 1.409 . S
C819 H811 0.930 . S
C819 C820 1.355 1_556 S
C819 C821 1.415 . S
C820 C819 1.355 1_554 S
C820 C822 1.419 . S
C821 C816 1.425 . S
C821 C818 1.409 . S
C821 C819 1.415 . S
C822 H812 0.930 . S
C822 C820 1.419 . S
C822 C823 1.362 . S
C823 H813 0.930 . S
C823 C816 1.409 1_554 S
C823 C822 1.362 . S
H824 C830 0.930 . S
H825 C833 0.930 . S
H826 C834 0.930 . S
H827 C835 0.930 1_556 S
H828 C838 0.930 . S
H829 C839 0.930 . S
C830 H824 0.930 . S
C830 C831 1.355 . S
C830 C832 1.415 . S
C831 C830 1.355 . S
C831 C833 1.419 . S
C832 C830 1.415 . S
C832 C837 1.425 . S
C832 C839 1.409 . S
C833 H825 0.930 . S
C833 C831 1.419 . S
C833 C834 1.362 . S
C834 H826 0.930 . S
C834 C833 1.362 . S
C834 C837 1.409 . S
C835 H827 0.930 1_554 S
C835 C836 1.355 . S
C835 C837 1.415 . S
C836 C835 1.355 . S
C836 C838 1.419 . S
C837 C832 1.425 . S
C837 C834 1.409 . S
C837 C835 1.415 . S
C838 H828 0.930 . S
C838 C836 1.419 . S
C838 C839 1.362 . S
C839 H829 0.930 . S
C839 C832 1.409 . S
C839 C838 1.362 . S
C271 C10 1.475 . S
C276 C21 1.535 . S
C287 C30 1.541 . S
C292 C29 1.544 . S
C303 C65 1.559 . S
C308 C54 1.525 . S
C319 C74 1.531 . S
C324 C73 1.526 . S
C335 C103 1.522 1_554 S
C340 C106 1.501 . S
C351 C118 1.534 . S
C356 C117 1.528 . S
C367 C140 1.528 . S
C372 C139 1.525 . S
C383 C161 1.563 . S
C388 C162 1.510 . S
C399 C183 1.551 . S
C404 C184 1.536 . S
C415 C205 1.521 . S
C420 C206 1.508 . S
C431 C228 1.538 . S
C436 C227 1.549 . S
C447 C249 1.542 . S
C452 C250 1.472 . S
C463 C8 1.446 . S
C468 C172 1.480 . S
C479 C194 1.433 . S
C484 C40 1.464 . S
C495 C216 1.433 . S
C500 C52 1.466 . S
C511 C84 1.466 . S
C516 C238 1.434 . S
C527 C98 1.476 . S
C532 C260 1.439 . S
C543 C128 1.480 . S
C548 C150 1.445 . S
C559 C18 1.152 . S
C564 C230 1.206 . S
C575 C32 1.176 . S
C580 C252 1.172 . S
C591 C142 1.180 . S
C596 C62 1.168 . S
C607 C76 1.172 . S
C612 C164 1.175 . S
C623 C96 1.153 . S
C628 C186 1.208 . S
C639 C208 1.196 . S
C644 C120 1.175 . S
C655 C15 1.189 . S
C660 C197 1.190 . S
C671 C219 1.176 . S
C676 C43 1.172 . S
C687 C241 1.187 . S
C692 C59 1.189 . S
C703 C87 1.163 . S
C708 C263 1.166 . S
C719 C153 1.189 . S
C724 C95 1.189 . S
C735 C131 1.186 . S
C740 C175 1.188 . S
C751 C7 1.367 . S
C756 C235 1.419 . S
C767 C37 1.436 . S
C772 C257 1.364 . S
C783 C51 1.367 . S
C788 C147 1.417 . S
C799 C169 1.385 . S
C804 C81 1.392 . S
C815 C109 1.372 . S
C820 C191 1.408 . S
C831 C213 1.458 . S
C836 C125 1.402 1_554 S
