# Generated by pormake.
# Topology som, (6)-cn, num edge types: 1
# Building blocks:
#     Node 0, Type 0, BuildingBlock: VOLQOD_clean_sbu_1, # of connection points: 6
#     Node 1, Type 0, BuildingBlock: VOLQOD_clean_sbu_1, # of connection points: 6
#     Node 2, Type 0, BuildingBlock: VOLQOD_clean_sbu_1, # of connection points: 6
#     Node 3, Type 0, BuildingBlock: VOLQOD_clean_sbu_1, # of connection points: 6
#     Node 4, Type 0, BuildingBlock: VOLQOD_clean_sbu_1, # of connection points: 6
#     Node 5, Type 0, BuildingBlock: VOLQOD_clean_sbu_1, # of connection points: 6
#     Node 6, Type 0, BuildingBlock: VOLQOD_clean_sbu_1, # of connection points: 6
#     Node 7, Type 0, BuildingBlock: VOLQOD_clean_sbu_1, # of connection points: 6
#     Node 8, Type 0, BuildingBlock: VOLQOD_clean_sbu_1, # of connection points: 6
#     Node 9, Type 0, BuildingBlock: VOLQOD_clean_sbu_1, # of connection points: 6
#     Node 10, Type 0, BuildingBlock: VOLQOD_clean_sbu_1, # of connection points: 6
#     Node 11, Type 0, BuildingBlock: VOLQOD_clean_sbu_1, # of connection points: 6
#     Node 12, Type 0, BuildingBlock: VOLQOD_clean_sbu_1, # of connection points: 6
#     Node 13, Type 0, BuildingBlock: VOLQOD_clean_sbu_1, # of connection points: 6
#     Node 14, Type 0, BuildingBlock: VOLQOD_clean_sbu_1, # of connection points: 6
#     Node 15, Type 0, BuildingBlock: VOLQOD_clean_sbu_1, # of connection points: 6
#     Node 16, Type 0, BuildingBlock: VOLQOD_clean_sbu_1, # of connection points: 6
#     Node 17, Type 0, BuildingBlock: VOLQOD_clean_sbu_1, # of connection points: 6
#     Node 18, Type 0, BuildingBlock: VOLQOD_clean_sbu_1, # of connection points: 6
#     Node 19, Type 0, BuildingBlock: VOLQOD_clean_sbu_1, # of connection points: 6
#     Node 20, Type 0, BuildingBlock: VOLQOD_clean_sbu_1, # of connection points: 6
#     Node 21, Type 0, BuildingBlock: VOLQOD_clean_sbu_1, # of connection points: 6
#     Node 22, Type 0, BuildingBlock: VOLQOD_clean_sbu_1, # of connection points: 6
#     Node 23, Type 0, BuildingBlock: VOLQOD_clean_sbu_1, # of connection points: 6
#     Node 24, Type 0, BuildingBlock: VOLQOD_clean_sbu_1, # of connection points: 6
#     Node 25, Type 0, BuildingBlock: VOLQOD_clean_sbu_1, # of connection points: 6
#     Node 26, Type 0, BuildingBlock: VOLQOD_clean_sbu_1, # of connection points: 6
#     Node 27, Type 0, BuildingBlock: VOLQOD_clean_sbu_1, # of connection points: 6
#     Node 28, Type 0, BuildingBlock: VOLQOD_clean_sbu_1, # of connection points: 6
#     Node 29, Type 0, BuildingBlock: VOLQOD_clean_sbu_1, # of connection points: 6
#     Node 30, Type 0, BuildingBlock: VOLQOD_clean_sbu_1, # of connection points: 6
#     Node 31, Type 0, BuildingBlock: VOLQOD_clean_sbu_1, # of connection points: 6
#     Edge 32, Type (0, 0), None
#     Edge 33, Type (0, 0), None
#     Edge 34, Type (0, 0), None
#     Edge 35, Type (0, 0), None
#     Edge 36, Type (0, 0), None
#     Edge 37, Type (0, 0), None
#     Edge 38, Type (0, 0), None
#     Edge 39, Type (0, 0), None
#     Edge 40, Type (0, 0), None
#     Edge 41, Type (0, 0), None
#     Edge 42, Type (0, 0), None
#     Edge 43, Type (0, 0), None
#     Edge 44, Type (0, 0), None
#     Edge 45, Type (0, 0), None
#     Edge 46, Type (0, 0), None
#     Edge 47, Type (0, 0), None
#     Edge 48, Type (0, 0), None
#     Edge 49, Type (0, 0), None
#     Edge 50, Type (0, 0), None
#     Edge 51, Type (0, 0), None
#     Edge 52, Type (0, 0), None
#     Edge 53, Type (0, 0), None
#     Edge 54, Type (0, 0), None
#     Edge 55, Type (0, 0), None
#     Edge 56, Type (0, 0), None
#     Edge 57, Type (0, 0), None
#     Edge 58, Type (0, 0), None
#     Edge 59, Type (0, 0), None
#     Edge 60, Type (0, 0), None
#     Edge 61, Type (0, 0), None
#     Edge 62, Type (0, 0), None
#     Edge 63, Type (0, 0), None
#     Edge 64, Type (0, 0), None
#     Edge 65, Type (0, 0), None
#     Edge 66, Type (0, 0), None
#     Edge 67, Type (0, 0), None
#     Edge 68, Type (0, 0), None
#     Edge 69, Type (0, 0), None
#     Edge 70, Type (0, 0), None
#     Edge 71, Type (0, 0), None
#     Edge 72, Type (0, 0), None
#     Edge 73, Type (0, 0), None
#     Edge 74, Type (0, 0), None
#     Edge 75, Type (0, 0), None
#     Edge 76, Type (0, 0), None
#     Edge 77, Type (0, 0), None
#     Edge 78, Type (0, 0), None
#     Edge 79, Type (0, 0), None
#     Edge 80, Type (0, 0), None
#     Edge 81, Type (0, 0), None
#     Edge 82, Type (0, 0), None
#     Edge 83, Type (0, 0), None
#     Edge 84, Type (0, 0), None
#     Edge 85, Type (0, 0), None
#     Edge 86, Type (0, 0), None
#     Edge 87, Type (0, 0), None
#     Edge 88, Type (0, 0), None
#     Edge 89, Type (0, 0), None
#     Edge 90, Type (0, 0), None
#     Edge 91, Type (0, 0), None
#     Edge 92, Type (0, 0), None
#     Edge 93, Type (0, 0), None
#     Edge 94, Type (0, 0), None
#     Edge 95, Type (0, 0), None
#     Edge 96, Type (0, 0), None
#     Edge 97, Type (0, 0), None
#     Edge 98, Type (0, 0), None
#     Edge 99, Type (0, 0), None
#     Edge 100, Type (0, 0), None
#     Edge 101, Type (0, 0), None
#     Edge 102, Type (0, 0), None
#     Edge 103, Type (0, 0), None
#     Edge 104, Type (0, 0), None
#     Edge 105, Type (0, 0), None
#     Edge 106, Type (0, 0), None
#     Edge 107, Type (0, 0), None
#     Edge 108, Type (0, 0), None
#     Edge 109, Type (0, 0), None
#     Edge 110, Type (0, 0), None
#     Edge 111, Type (0, 0), None
#     Edge 112, Type (0, 0), None
#     Edge 113, Type (0, 0), None
#     Edge 114, Type (0, 0), None
#     Edge 115, Type (0, 0), None
#     Edge 116, Type (0, 0), None
#     Edge 117, Type (0, 0), None
#     Edge 118, Type (0, 0), None
#     Edge 119, Type (0, 0), None
#     Edge 120, Type (0, 0), None
#     Edge 121, Type (0, 0), None
#     Edge 122, Type (0, 0), None
#     Edge 123, Type (0, 0), None
#     Edge 124, Type (0, 0), None
#     Edge 125, Type (0, 0), None
#     Edge 126, Type (0, 0), None
#     Edge 127, Type (0, 0), None
# Relax obj value: 0.131
# Max RMSD: 0.145
# Mean RMSD: 0.144
data_MOF--net-som--node1-VOLQOD_clean_sbu_1--edge1-none
_symmetry_space_group_name_H-M    P1
_symmetry_Int_Tables_number       1
_symmetry_cell_setting            triclinic
loop_
_symmetry_equiv_pos_as_xyz
'x, y, z'
_cell_length_a     8.4731643
_cell_length_b     34.020244
_cell_length_c     69.807189
_cell_angle_alpha  89.999252
_cell_angle_beta   90.000178
_cell_angle_gamma 90.000178
loop_
_atom_site_label
_atom_site_type_symbol
_atom_site_fract_x
_atom_site_fract_y
_atom_site_fract_z
_atom_type_partial_charge
O0 O 0.6842 0.48744 0.05559 0.0
Zn1 Zn 0.9219 0.50411 0.05842 0.0
O2 O 0.02916 0.47181 0.03976 0.0
Zn3 Zn 0.14372 0.42982 0.05225 0.0
Zn4 Zn 0.87744 0.44795 0.02323 0.0
Zn5 Zn 0.14961 0.50331 0.02233 0.0
O6 O 0.37876 0.44337 0.04828 0.0
O7 O 0.37144 0.492 0.02675 0.0
O8 O 0.00687 0.49116 0.08485 0.0
O9 O 0.13437 0.43467 0.08084 0.0
O10 O 0.03636 0.37539 0.04577 0.0
O11 O 0.81176 0.39555 0.0325 0.0
O12 O 0.93115 0.44635 -0.00453 0.0
O13 O 0.98919 0.56273 0.05474 0.0
O14 O 0.08148 0.49962 -0.00556 0.0
O15 O 0.15141 0.55838 0.02983 0.0
C16 C 0.61476 0.47772 0.03993 0.0
C17 C 0.44527 0.47112 0.03883 0.0
C18 C 0.89328 0.36889 0.04033 0.0
C19 C 0.08721 0.46256 0.09145 0.0
C20 C -0.00184 0.4736 -0.01389 0.0
C21 C 0.09206 0.57784 0.04344 0.0
O22 O 0.68758 0.47824 0.0242 0.0
O23 O 0.53481 0.71037 0.05559 0.0
Zn24 Zn 0.29711 0.69369 0.05841 0.0
O25 O 0.18984 0.72599 0.03976 0.0
Zn26 Zn 0.07529 0.76799 0.05225 0.0
Zn27 Zn 0.34155 0.74986 0.02323 0.0
Zn28 Zn 0.06939 0.6945 0.02233 0.0
O29 O 0.84025 0.75443 0.04828 0.0
O30 O 0.84756 0.70582 0.02674 0.0
O31 O 0.21215 0.70664 0.08484 0.0
O32 O 0.08464 0.76312 0.08083 0.0
O33 O 0.18264 0.82241 0.04577 0.0
O34 O 0.40722 0.80225 0.0325 0.0
O35 O 0.28784 0.75146 -0.00454 0.0
O36 O 0.22982 0.63507 0.05474 0.0
O37 O 0.13757 0.69818 -0.00556 0.0
O38 O 0.06754 0.63943 0.02983 0.0
C39 C 0.60424 0.72009 0.03993 0.0
C40 C 0.77374 0.72668 0.03882 0.0
C41 C 0.32571 0.82891 0.04033 0.0
C42 C 0.13181 0.73523 0.09145 0.0
C43 C 0.22087 0.7242 -0.01389 0.0
C44 C 0.12688 0.61997 0.04344 0.0
O45 O 0.53142 0.71957 0.0242 0.0
O46 O 0.68419 0.71035 0.14755 0.0
Zn47 Zn 0.92189 0.69368 0.14472 0.0
O48 O 0.02915 0.72598 0.16338 0.0
Zn49 Zn 0.14371 0.76797 0.15089 0.0
Zn50 Zn 0.87743 0.74984 0.17991 0.0
Zn51 Zn 0.1496 0.69448 0.18081 0.0
O52 O 0.37875 0.75442 0.15486 0.0
O53 O 0.37143 0.70579 0.17639 0.0
O54 O 0.00685 0.70663 0.11829 0.0
O55 O 0.13436 0.76312 0.1223 0.0
O56 O 0.03635 0.8224 0.15737 0.0
O57 O 0.81176 0.80224 0.17064 0.0
O58 O 0.93114 0.75145 0.20767 0.0
O59 O 0.98918 0.63506 0.1484 0.0
O60 O 0.08146 0.69817 0.2087 0.0
O61 O 0.15141 0.63941 0.17331 0.0
C62 C 0.61475 0.72007 0.16321 0.0
C63 C 0.44526 0.72667 0.16431 0.0
C64 C 0.89328 0.8289 0.1628 0.0
C65 C 0.08718 0.73523 0.11169 0.0
C66 C -0.00185 0.72419 0.21703 0.0
C67 C 0.09206 0.61995 0.1597 0.0
O68 O 0.68757 0.71955 0.17894 0.0
O69 O 0.53482 0.48743 0.14756 0.0
Zn70 Zn 0.29712 0.5041 0.14473 0.0
O71 O 0.18985 0.4718 0.16338 0.0
Zn72 Zn 0.07529 0.4298 0.15089 0.0
Zn73 Zn 0.34155 0.44793 0.17991 0.0
Zn74 Zn 0.0694 0.50329 0.18081 0.0
O75 O 0.84025 0.44336 0.15486 0.0
O76 O 0.84756 0.49197 0.1764 0.0
O77 O 0.21217 0.49115 0.1183 0.0
O78 O 0.08464 0.43467 0.1223 0.0
O79 O 0.18264 0.37538 0.15737 0.0
O80 O 0.40722 0.39554 0.17064 0.0
O81 O 0.28784 0.44633 0.20768 0.0
O82 O 0.22982 0.56272 0.1484 0.0
O83 O 0.13757 0.49961 0.2087 0.0
O84 O 0.06753 0.55836 0.17331 0.0
C85 C 0.60425 0.4777 0.16321 0.0
C86 C 0.77374 0.47111 0.16432 0.0
C87 C 0.32571 0.36888 0.16281 0.0
C88 C 0.13183 0.46256 0.11169 0.0
C89 C 0.22087 0.47359 0.21703 0.0
C90 C 0.12688 0.57782 0.1597 0.0
O91 O 0.53143 0.47822 0.17894 0.0
O92 O 0.31192 0.44364 0.9251 0.0
Zn93 Zn 0.07627 0.43515 0.92847 0.0
O94 O 0.97704 0.47488 0.91328 0.0
Zn95 Zn 0.86875 0.51321 0.92852 0.0
Zn96 Zn 0.10665 0.49904 0.89412 0.0
Zn97 Zn 0.82862 0.44595 0.89866 0.0
O98 O 0.62804 0.50483 0.9217 0.0
O99 O 0.63687 0.44186 0.91318 0.0
O100 O 0.04669 0.44559 0.95614 0.0
O101 O 0.91135 0.50163 0.95683 0.0
O102 O 0.9782 0.56742 0.92369 0.0
O103 O 0.11927 0.55656 0.89734 0.0
O104 O 0.02603 0.48748 0.86672 0.0
O105 O 0.96725 0.38155 0.92368 0.0
O106 O 0.77897 0.47127 0.8738 0.0
O107 O 0.87717 0.39007 0.89424 0.0
C108 C 0.38987 0.46872 0.91523 0.0
C109 C 0.55968 0.47184 0.91793 0.0
C110 C 0.07786 0.57875 0.911 0.0
C111 C 0.98453 0.47378 0.96528 0.0
C112 C 0.88209 0.48189 0.86172 0.0
C113 C 0.89422 0.36868 0.90893 0.0
O114 O 0.32856 0.48789 0.90146 0.0
O115 O 0.40714 0.25416 0.9251 0.0
Zn116 Zn 0.6428 0.26265 0.92847 0.0
O117 O 0.74202 0.22292 0.91327 0.0
Zn118 Zn 0.85031 0.18459 0.92851 0.0
Zn119 Zn 0.61242 0.19875 0.89412 0.0
Zn120 Zn 0.89044 0.25185 0.89866 0.0
O121 O 0.09102 0.19297 0.9217 0.0
O122 O 0.0822 0.25594 0.91318 0.0
O123 O 0.67236 0.2522 0.95614 0.0
O124 O 0.80771 0.19617 0.95682 0.0
O125 O 0.74086 0.13038 0.92369 0.0
O126 O 0.5998 0.14124 0.89734 0.0
O127 O 0.69304 0.21031 0.86672 0.0
O128 O 0.75181 0.31625 0.92368 0.0
O129 O 0.94009 0.22653 0.8738 0.0
O130 O 0.8419 0.30774 0.89424 0.0
C131 C 0.3292 0.22908 0.91523 0.0
C132 C 0.15938 0.22596 0.91793 0.0
C133 C 0.64121 0.11904 0.911 0.0
C134 C 0.73453 0.22402 0.96528 0.0
C135 C 0.83697 0.2159 0.86172 0.0
C136 C 0.82485 0.32911 0.90893 0.0
O137 O 0.39051 0.20991 0.90146 0.0
O138 O 0.31191 0.25416 0.77804 0.0
Zn139 Zn 0.07626 0.26264 0.77467 0.0
O140 O 0.97704 0.22292 0.78986 0.0
Zn141 Zn 0.86875 0.18458 0.77462 0.0
Zn142 Zn 0.10664 0.19875 0.80902 0.0
Zn143 Zn 0.82861 0.25184 0.80448 0.0
O144 O 0.62803 0.19296 0.78144 0.0
O145 O 0.63687 0.25594 0.78996 0.0
O146 O 0.04668 0.2522 0.747 0.0
O147 O 0.91134 0.19617 0.74631 0.0
O148 O 0.9782 0.13038 0.77945 0.0
O149 O 0.11926 0.14124 0.8058 0.0
O150 O 0.02601 0.21031 0.83642 0.0
O151 O 0.96725 0.31624 0.77946 0.0
O152 O 0.77895 0.22652 0.82934 0.0
O153 O 0.87716 0.30773 0.8089 0.0
C154 C 0.38986 0.22908 0.78791 0.0
C155 C 0.55968 0.22595 0.78521 0.0
C156 C 0.07786 0.11904 0.79214 0.0
C157 C 0.98451 0.22402 0.73786 0.0
C158 C 0.88207 0.21589 0.84142 0.0
C159 C 0.89422 0.32911 0.79421 0.0
O160 O 0.32855 0.20991 0.80168 0.0
O161 O 0.40715 0.44363 0.77804 0.0
Zn162 Zn 0.6428 0.43515 0.77467 0.0
O163 O 0.74203 0.47487 0.78987 0.0
Zn164 Zn 0.85032 0.51321 0.77463 0.0
Zn165 Zn 0.61243 0.49904 0.80902 0.0
Zn166 Zn 0.89046 0.44595 0.80448 0.0
O167 O 0.09103 0.50483 0.78144 0.0
O168 O 0.0822 0.44185 0.78996 0.0
O169 O 0.67238 0.44559 0.747 0.0
O170 O 0.80772 0.50162 0.74631 0.0
O171 O 0.74086 0.56741 0.77945 0.0
O172 O 0.59981 0.55656 0.8058 0.0
O173 O 0.69306 0.48748 0.83642 0.0
O174 O 0.75181 0.38155 0.77946 0.0
O175 O 0.94011 0.47127 0.82934 0.0
O176 O 0.84191 0.39006 0.8089 0.0
C177 C 0.3292 0.46872 0.78791 0.0
C178 C 0.15939 0.47184 0.78521 0.0
C179 C 0.64121 0.57875 0.79214 0.0
C180 C 0.73454 0.47377 0.73786 0.0
C181 C 0.837 0.4819 0.84142 0.0
C182 C 0.82485 0.36868 0.79421 0.0
O183 O 0.39051 0.48789 0.80168 0.0
O184 O 0.6842 -0.01256 0.55559 0.0
Zn185 Zn 0.9219 0.00411 0.55842 0.0
O186 O 0.02916 0.97182 0.53976 0.0
Zn187 Zn 0.14372 0.92982 0.55225 0.0
Zn188 Zn 0.87744 0.94795 0.52323 0.0
Zn189 Zn 0.14961 0.00331 0.52233 0.0
O190 O 0.37876 0.94337 0.54828 0.0
O191 O 0.37144 -0.008 0.52675 0.0
O192 O 0.00687 -0.00884 0.58485 0.0
O193 O 0.13437 0.93468 0.58084 0.0
O194 O 0.03636 0.8754 0.54577 0.0
O195 O 0.81176 0.89556 0.5325 0.0
O196 O 0.93115 0.94635 0.49547 0.0
O197 O 0.98919 0.06274 0.55474 0.0
O198 O 0.08148 -0.00038 0.49444 0.0
O199 O 0.15141 0.05839 0.52983 0.0
C200 C 0.61476 -0.02228 0.53993 0.0
C201 C 0.44527 0.97113 0.53883 0.0
C202 C 0.89328 0.8689 0.54033 0.0
C203 C 0.08721 0.96257 0.59145 0.0
C204 C -0.00184 0.9736 0.48611 0.0
C205 C 0.09207 0.07785 0.54344 0.0
O206 O 0.68758 -0.02176 0.5242 0.0
O207 O 0.53481 0.21037 0.55559 0.0
Zn208 Zn 0.29711 0.19369 0.55841 0.0
O209 O 0.18985 0.22599 0.53976 0.0
Zn210 Zn 0.07529 0.26799 0.55225 0.0
Zn211 Zn 0.34155 0.24986 0.52323 0.0
Zn212 Zn 0.06939 0.1945 0.52233 0.0
O213 O 0.84025 0.25444 0.54828 0.0
O214 O 0.84756 0.20582 0.52674 0.0
O215 O 0.21215 0.20664 0.58484 0.0
O216 O 0.08464 0.26313 0.58084 0.0
O217 O 0.18264 0.32241 0.54577 0.0
O218 O 0.40722 0.30226 0.5325 0.0
O219 O 0.28784 0.25146 0.49546 0.0
O220 O 0.22982 0.13507 0.55474 0.0
O221 O 0.13756 0.19818 0.49444 0.0
O222 O 0.06754 0.13943 0.52983 0.0
C223 C 0.60424 0.22009 0.53993 0.0
C224 C 0.77374 0.22669 0.53882 0.0
C225 C 0.32571 0.32891 0.54033 0.0
C226 C 0.13181 0.23523 0.59145 0.0
C227 C 0.22087 0.2242 0.48611 0.0
C228 C 0.12688 0.11997 0.54344 0.0
O229 O 0.53142 0.21958 0.5242 0.0
O230 O 0.6842 0.21035 0.64755 0.0
Zn231 Zn 0.9219 0.19368 0.64472 0.0
O232 O 0.02916 0.22598 0.66338 0.0
Zn233 Zn 0.14372 0.26798 0.65089 0.0
Zn234 Zn 0.87744 0.24984 0.67991 0.0
Zn235 Zn 0.14961 0.19448 0.68081 0.0
O236 O 0.37876 0.25442 0.65486 0.0
O237 O 0.37144 0.2058 0.67639 0.0
O238 O 0.00686 0.20664 0.61829 0.0
O239 O 0.13437 0.26312 0.6223 0.0
O240 O 0.03636 0.3224 0.65737 0.0
O241 O 0.81177 0.30224 0.67064 0.0
O242 O 0.93115 0.25145 0.70767 0.0
O243 O 0.98919 0.13506 0.6484 0.0
O244 O 0.08146 0.19818 0.7087 0.0
O245 O 0.15142 0.13941 0.67331 0.0
C246 C 0.61476 0.22007 0.66321 0.0
C247 C 0.44527 0.22667 0.66431 0.0
C248 C 0.89329 0.3289 0.6628 0.0
C249 C 0.08719 0.23523 0.61169 0.0
C250 C -0.00185 0.22419 0.71703 0.0
C251 C 0.09207 0.11995 0.6597 0.0
O252 O 0.68758 0.21956 0.67894 0.0
O253 O 0.53482 -0.01257 0.64756 0.0
Zn254 Zn 0.29713 0.0041 0.64473 0.0
O255 O 0.18986 0.9718 0.66338 0.0
Zn256 Zn 0.0753 0.92981 0.65089 0.0
Zn257 Zn 0.34156 0.94794 0.67991 0.0
Zn258 Zn 0.06941 0.00329 0.68081 0.0
O259 O 0.84026 0.94336 0.65486 0.0
O260 O 0.84757 -0.00802 0.6764 0.0
O261 O 0.21217 -0.00885 0.6183 0.0
O262 O 0.08465 0.93467 0.6223 0.0
O263 O 0.18265 0.87538 0.65737 0.0
O264 O 0.40723 0.89554 0.67064 0.0
O265 O 0.28785 0.94633 0.70768 0.0
O266 O 0.22983 0.06273 0.6484 0.0
O267 O 0.13758 -0.00039 0.7087 0.0
O268 O 0.06755 0.05837 0.67331 0.0
C269 C 0.60425 -0.02229 0.66321 0.0
C270 C 0.77375 0.97111 0.66432 0.0
C271 C 0.32572 0.86888 0.66281 0.0
C272 C 0.13184 0.96256 0.61169 0.0
C273 C 0.22088 0.97359 0.71703 0.0
C274 C 0.12689 0.07783 0.6597 0.0
O275 O 0.53144 -0.02178 0.67894 0.0
O276 O 0.31191 0.94364 0.4251 0.0
Zn277 Zn 0.07626 0.93515 0.42847 0.0
O278 O 0.97703 -0.02512 0.41328 0.0
Zn279 Zn 0.86875 0.01321 0.42852 0.0
Zn280 Zn 0.10664 -0.00096 0.39412 0.0
Zn281 Zn 0.82861 0.94595 0.39866 0.0
O282 O 0.62803 0.00483 0.4217 0.0
O283 O 0.63686 0.94186 0.41318 0.0
O284 O 0.04668 0.94559 0.45614 0.0
O285 O 0.91134 0.00163 0.45683 0.0
O286 O 0.97819 0.06742 0.42369 0.0
O287 O 0.11926 0.05656 0.39734 0.0
O288 O 0.02602 -0.01252 0.36672 0.0
O289 O 0.96725 0.88155 0.42368 0.0
O290 O 0.77896 0.97127 0.3738 0.0
O291 O 0.87716 0.89007 0.39424 0.0
C292 C 0.38986 0.96872 0.41523 0.0
C293 C 0.55967 0.97184 0.41793 0.0
C294 C 0.07785 0.07875 0.411 0.0
C295 C 0.98452 0.97378 0.46528 0.0
C296 C 0.88208 -0.01811 0.36172 0.0
C297 C 0.89421 0.86869 0.40893 0.0
O298 O 0.32855 -0.01211 0.40146 0.0
O299 O 0.40714 0.75416 0.4251 0.0
Zn300 Zn 0.64279 0.76265 0.42847 0.0
O301 O 0.74202 0.72292 0.41327 0.0
Zn302 Zn 0.85031 0.68459 0.42851 0.0
Zn303 Zn 0.61242 0.69875 0.39412 0.0
Zn304 Zn 0.89044 0.75185 0.39866 0.0
O305 O 0.09102 0.69297 0.4217 0.0
O306 O 0.0822 0.75594 0.41317 0.0
O307 O 0.67236 0.7522 0.45614 0.0
O308 O 0.80771 0.69617 0.45682 0.0
O309 O 0.74086 0.63038 0.42369 0.0
O310 O 0.5998 0.64124 0.39734 0.0
O311 O 0.69303 0.71031 0.36672 0.0
O312 O 0.7518 0.81625 0.42368 0.0
O313 O 0.94008 0.72653 0.3738 0.0
O314 O 0.8419 0.80774 0.39424 0.0
C315 C 0.3292 0.72908 0.41523 0.0
C316 C 0.15938 0.72596 0.41793 0.0
C317 C 0.64121 0.61904 0.411 0.0
C318 C 0.73453 0.72402 0.46528 0.0
C319 C 0.83697 0.7159 0.36172 0.0
C320 C 0.82484 0.82911 0.40893 0.0
O321 O 0.39051 0.70991 0.40146 0.0
O322 O 0.3119 0.75415 0.27804 0.0
Zn323 Zn 0.07625 0.76264 0.27467 0.0
O324 O 0.97703 0.72291 0.28986 0.0
Zn325 Zn 0.86874 0.68458 0.27462 0.0
Zn326 Zn 0.10663 0.69875 0.30902 0.0
Zn327 Zn 0.8286 0.75184 0.30448 0.0
O328 O 0.62802 0.69296 0.28144 0.0
O329 O 0.63686 0.75593 0.28996 0.0
O330 O 0.04667 0.7522 0.247 0.0
O331 O 0.91133 0.69616 0.24631 0.0
O332 O 0.97819 0.63038 0.27945 0.0
O333 O 0.11925 0.64123 0.3058 0.0
O334 O 0.026 0.71031 0.33642 0.0
O335 O 0.96725 0.81624 0.27946 0.0
O336 O 0.77894 0.72652 0.32934 0.0
O337 O 0.87715 0.80773 0.3089 0.0
C338 C 0.38985 0.72907 0.28791 0.0
C339 C 0.55967 0.72595 0.28521 0.0
C340 C 0.07785 0.61904 0.29214 0.0
C341 C 0.98451 0.72401 0.23786 0.0
C342 C 0.88206 0.71589 0.34142 0.0
C343 C 0.89421 0.82911 0.29421 0.0
O344 O 0.32854 0.7099 0.30168 0.0
O345 O 0.40714 0.94363 0.27804 0.0
Zn346 Zn 0.64279 0.93514 0.27467 0.0
O347 O 0.74202 -0.02513 0.28987 0.0
Zn348 Zn 0.85031 0.0132 0.27463 0.0
Zn349 Zn 0.61242 -0.00096 0.30902 0.0
Zn350 Zn 0.89045 0.94594 0.30448 0.0
O351 O 0.09102 0.00483 0.28144 0.0
O352 O 0.08219 0.94185 0.28996 0.0
O353 O 0.67237 0.94559 0.247 0.0
O354 O 0.80771 0.00162 0.24632 0.0
O355 O 0.74086 0.06741 0.27945 0.0
O356 O 0.5998 0.05655 0.3058 0.0
O357 O 0.69305 -0.01252 0.33642 0.0
O358 O 0.7518 0.88155 0.27946 0.0
O359 O 0.9401 0.97126 0.32934 0.0
O360 O 0.84191 0.89006 0.3089 0.0
C361 C 0.3292 0.96871 0.28791 0.0
C362 C 0.15938 0.97183 0.28521 0.0
C363 C 0.6412 0.07875 0.29214 0.0
C364 C 0.73453 0.97377 0.23786 0.0
C365 C 0.83699 -0.0181 0.34142 0.0
C366 C 0.82484 0.86868 0.29421 0.0
O367 O 0.39051 -0.01212 0.30168 0.0
O368 O 0.1842 0.48744 0.55559 0.0
Zn369 Zn 0.42191 0.50411 0.55842 0.0
O370 O 0.52916 0.47182 0.53976 0.0
Zn371 Zn 0.64372 0.42982 0.55225 0.0
Zn372 Zn 0.37744 0.44796 0.52323 0.0
Zn373 Zn 0.64961 0.50331 0.52233 0.0
O374 O 0.87877 0.44337 0.54828 0.0
O375 O 0.87145 0.492 0.52675 0.0
O376 O 0.50688 0.49116 0.58485 0.0
O377 O 0.63437 0.43467 0.58084 0.0
O378 O 0.53635 0.3754 0.54577 0.0
O379 O 0.31175 0.39556 0.5325 0.0
O380 O 0.43114 0.44635 0.49547 0.0
O381 O 0.48919 0.56274 0.55474 0.0
O382 O 0.58148 0.49962 0.49444 0.0
O383 O 0.65141 0.55839 0.52983 0.0
C384 C 0.11477 0.47772 0.53993 0.0
C385 C 0.94527 0.47113 0.53883 0.0
C386 C 0.39327 0.3689 0.54034 0.0
C387 C 0.58721 0.46256 0.59145 0.0
C388 C 0.49816 0.4736 0.48611 0.0
C389 C 0.59207 0.57785 0.54344 0.0
O390 O 0.18758 0.47825 0.5242 0.0
O391 O 0.03482 0.71037 0.55559 0.0
Zn392 Zn 0.79712 0.69369 0.55841 0.0
O393 O 0.68985 0.72599 0.53976 0.0
Zn394 Zn 0.57529 0.76799 0.55225 0.0
Zn395 Zn 0.84156 0.74986 0.52323 0.0
Zn396 Zn 0.5694 0.6945 0.52233 0.0
O397 O 0.34025 0.75444 0.54828 0.0
O398 O 0.34756 0.70582 0.52674 0.0
O399 O 0.71216 0.70664 0.58484 0.0
O400 O 0.58465 0.76313 0.58084 0.0
O401 O 0.68265 0.82241 0.54577 0.0
O402 O 0.90724 0.80225 0.5325 0.0
O403 O 0.78785 0.75146 0.49546 0.0
O404 O 0.72982 0.63507 0.55474 0.0
O405 O 0.63757 0.69818 0.49444 0.0
O406 O 0.56754 0.63943 0.52983 0.0
C407 C 0.10425 0.72009 0.53993 0.0
C408 C 0.27374 0.72669 0.53882 0.0
C409 C 0.82573 0.82891 0.54034 0.0
C410 C 0.63182 0.73523 0.59145 0.0
C411 C 0.72089 0.7242 0.48611 0.0
C412 C 0.62689 0.61997 0.54344 0.0
O413 O 0.03143 0.71957 0.5242 0.0
O414 O 0.1842 0.71036 0.64755 0.0
Zn415 Zn 0.4219 0.69368 0.64472 0.0
O416 O 0.52916 0.72598 0.66338 0.0
Zn417 Zn 0.64372 0.76798 0.65089 0.0
Zn418 Zn 0.37744 0.74984 0.67991 0.0
Zn419 Zn 0.64961 0.69448 0.68081 0.0
O420 O 0.87876 0.75442 0.65486 0.0
O421 O 0.87144 0.70579 0.67639 0.0
O422 O 0.50686 0.70664 0.61829 0.0
O423 O 0.63437 0.76312 0.6223 0.0
O424 O 0.53636 0.8224 0.65737 0.0
O425 O 0.31176 0.80223 0.67064 0.0
O426 O 0.43115 0.75145 0.70767 0.0
O427 O 0.48919 0.63506 0.6484 0.0
O428 O 0.58148 0.69818 0.7087 0.0
O429 O 0.65142 0.63941 0.67331 0.0
C430 C 0.11476 0.72007 0.66321 0.0
C431 C 0.94527 0.72667 0.66431 0.0
C432 C 0.39327 0.82889 0.6628 0.0
C433 C 0.58719 0.73523 0.61169 0.0
C434 C 0.49816 0.72419 0.71703 0.0
C435 C 0.59207 0.61995 0.6597 0.0
O436 O 0.18758 0.71955 0.67894 0.0
O437 O 0.03483 0.48743 0.64755 0.0
Zn438 Zn 0.79713 0.5041 0.64473 0.0
O439 O 0.68986 0.4718 0.66338 0.0
Zn440 Zn 0.5753 0.42981 0.65089 0.0
Zn441 Zn 0.84157 0.44794 0.67991 0.0
Zn442 Zn 0.56941 0.50329 0.68081 0.0
O443 O 0.34026 0.44336 0.65486 0.0
O444 O 0.34757 0.49198 0.6764 0.0
O445 O 0.71218 0.49115 0.6183 0.0
O446 O 0.58466 0.43467 0.6223 0.0
O447 O 0.68266 0.37538 0.65737 0.0
O448 O 0.90725 0.39554 0.67064 0.0
O449 O 0.78786 0.44633 0.70768 0.0
O450 O 0.72983 0.56273 0.6484 0.0
O451 O 0.63759 0.49961 0.7087 0.0
O452 O 0.56755 0.55837 0.67331 0.0
C453 C 0.10426 0.47771 0.66321 0.0
C454 C 0.27375 0.47111 0.66432 0.0
C455 C 0.82574 0.36889 0.6628 0.0
C456 C 0.63184 0.46256 0.61169 0.0
C457 C 0.7209 0.47359 0.71703 0.0
C458 C 0.62689 0.57783 0.6597 0.0
O459 O 0.03144 0.47823 0.67894 0.0
O460 O 0.81192 0.44364 0.4251 0.0
Zn461 Zn 0.57626 0.43515 0.42847 0.0
O462 O 0.47704 0.47488 0.41328 0.0
Zn463 Zn 0.36875 0.51321 0.42852 0.0
Zn464 Zn 0.60664 0.49904 0.39412 0.0
Zn465 Zn 0.32862 0.44595 0.39866 0.0
O466 O 0.12804 0.50483 0.4217 0.0
O467 O 0.13687 0.44186 0.41318 0.0
O468 O 0.54669 0.44559 0.45614 0.0
O469 O 0.41134 0.50163 0.45683 0.0
O470 O 0.47821 0.56742 0.42369 0.0
O471 O 0.61927 0.55656 0.39734 0.0
O472 O 0.52602 0.48748 0.36672 0.0
O473 O 0.46725 0.38155 0.42368 0.0
O474 O 0.27896 0.47127 0.3738 0.0
O475 O 0.37717 0.39007 0.39424 0.0
C476 C 0.88987 0.46872 0.41523 0.0
C477 C 0.05968 0.47184 0.41793 0.0
C478 C 0.57787 0.57875 0.411 0.0
C479 C 0.48452 0.47378 0.46528 0.0
C480 C 0.38208 0.48189 0.36172 0.0
C481 C 0.39422 0.36869 0.40893 0.0
O482 O 0.82856 0.48789 0.40146 0.0
O483 O 0.90713 0.25416 0.4251 0.0
Zn484 Zn 0.14278 0.26265 0.42847 0.0
O485 O 0.24201 0.22292 0.41327 0.0
Zn486 Zn 0.35029 0.18459 0.42851 0.0
Zn487 Zn 0.11241 0.19875 0.39412 0.0
Zn488 Zn 0.39043 0.25185 0.39866 0.0
O489 O 0.59101 0.19297 0.4217 0.0
O490 O 0.58218 0.25594 0.41318 0.0
O491 O 0.17235 0.25221 0.45613 0.0
O492 O 0.3077 0.19617 0.45682 0.0
O493 O 0.24084 0.13038 0.42369 0.0
O494 O 0.09978 0.14124 0.39734 0.0
O495 O 0.19302 0.21031 0.36672 0.0
O496 O 0.2518 0.31625 0.42368 0.0
O497 O 0.44007 0.22653 0.3738 0.0
O498 O 0.34189 0.30774 0.39424 0.0
C499 C 0.82918 0.22908 0.41523 0.0
C500 C 0.65937 0.22596 0.41793 0.0
C501 C 0.14118 0.11905 0.411 0.0
C502 C 0.23451 0.22402 0.46528 0.0
C503 C 0.33696 0.2159 0.36172 0.0
C504 C 0.32484 0.32911 0.40893 0.0
O505 O 0.89049 0.20991 0.40146 0.0
O506 O 0.81191 0.25415 0.27804 0.0
Zn507 Zn 0.57625 0.26264 0.27467 0.0
O508 O 0.47703 0.22292 0.28986 0.0
Zn509 Zn 0.36874 0.18458 0.27462 0.0
Zn510 Zn 0.60663 0.19875 0.30902 0.0
Zn511 Zn 0.3286 0.25184 0.30448 0.0
O512 O 0.12803 0.19296 0.28144 0.0
O513 O 0.13686 0.25594 0.28996 0.0
O514 O 0.54667 0.2522 0.247 0.0
O515 O 0.41133 0.19616 0.24631 0.0
O516 O 0.47821 0.13038 0.27945 0.0
O517 O 0.61926 0.14123 0.3058 0.0
O518 O 0.526 0.21031 0.33642 0.0
O519 O 0.46725 0.31624 0.27946 0.0
O520 O 0.27894 0.22652 0.32934 0.0
O521 O 0.37716 0.30772 0.3089 0.0
C522 C 0.88986 0.22907 0.28791 0.0
C523 C 0.05967 0.22595 0.28521 0.0
C524 C 0.57787 0.11904 0.29214 0.0
C525 C 0.4845 0.22401 0.23786 0.0
C526 C 0.38206 0.21589 0.34142 0.0
C527 C 0.39421 0.32911 0.29421 0.0
O528 O 0.82855 0.20991 0.30168 0.0
O529 O 0.90713 0.44363 0.27804 0.0
Zn530 Zn 0.14278 0.43514 0.27467 0.0
O531 O 0.24201 0.47487 0.28987 0.0
Zn532 Zn 0.3503 0.5132 0.27463 0.0
Zn533 Zn 0.11241 0.49904 0.30902 0.0
Zn534 Zn 0.39044 0.44594 0.30448 0.0
O535 O 0.59101 0.50483 0.28144 0.0
O536 O 0.58218 0.44185 0.28996 0.0
O537 O 0.17235 0.44559 0.247 0.0
O538 O 0.3077 0.50162 0.24632 0.0
O539 O 0.24084 0.56741 0.27945 0.0
O540 O 0.09978 0.55655 0.3058 0.0
O541 O 0.19304 0.48748 0.33642 0.0
O542 O 0.25179 0.38154 0.27946 0.0
O543 O 0.4401 0.47126 0.32934 0.0
O544 O 0.3419 0.39006 0.3089 0.0
C545 C 0.82918 0.46871 0.28791 0.0
C546 C 0.65937 0.47183 0.28521 0.0
C547 C 0.14118 0.57875 0.29214 0.0
C548 C 0.23452 0.47377 0.23786 0.0
C549 C 0.33698 0.4819 0.34142 0.0
C550 C 0.32484 0.36868 0.29421 0.0
O551 O 0.89049 0.48788 0.30168 0.0
O552 O 0.1842 -0.01256 0.05559 0.0
Zn553 Zn 0.4219 0.00411 0.05842 0.0
O554 O 0.52916 0.97181 0.03976 0.0
Zn555 Zn 0.64372 0.92981 0.05225 0.0
Zn556 Zn 0.37744 0.94795 0.02323 0.0
Zn557 Zn 0.64961 0.00331 0.02233 0.0
O558 O 0.87876 0.94337 0.04828 0.0
O559 O 0.87144 -0.008 0.02675 0.0
O560 O 0.50687 -0.00885 0.08485 0.0
O561 O 0.63437 0.93467 0.08084 0.0
O562 O 0.53635 0.87539 0.04577 0.0
O563 O 0.31175 0.89556 0.0325 0.0
O564 O 0.43114 0.94635 -0.00453 0.0
O565 O 0.48919 0.06273 0.05474 0.0
O566 O 0.58148 -0.00038 -0.00556 0.0
O567 O 0.65141 0.05838 0.02983 0.0
C568 C 0.11476 -0.02228 0.03993 0.0
C569 C 0.94527 0.97112 0.03883 0.0
C570 C 0.39326 0.8689 0.04034 0.0
C571 C 0.58721 0.96256 0.09145 0.0
C572 C 0.49816 0.9736 -0.01389 0.0
C573 C 0.59206 0.07784 0.04344 0.0
O574 O 0.18758 -0.02176 0.0242 0.0
O575 O 0.03481 0.21037 0.05559 0.0
Zn576 Zn 0.79711 0.19369 0.05841 0.0
O577 O 0.68985 0.22599 0.03976 0.0
Zn578 Zn 0.57529 0.26799 0.05225 0.0
Zn579 Zn 0.84156 0.24986 0.02323 0.0
Zn580 Zn 0.56939 0.1945 0.02233 0.0
O581 O 0.34025 0.25443 0.04828 0.0
O582 O 0.34756 0.20582 0.02674 0.0
O583 O 0.71215 0.20664 0.08484 0.0
O584 O 0.58464 0.26312 0.08084 0.0
O585 O 0.68265 0.32241 0.04577 0.0
O586 O 0.90724 0.30225 0.0325 0.0
O587 O 0.78785 0.25146 -0.00454 0.0
O588 O 0.72982 0.13507 0.05474 0.0
O589 O 0.63757 0.19818 -0.00556 0.0
O590 O 0.56754 0.13943 0.02983 0.0
C591 C 0.10424 0.22009 0.03993 0.0
C592 C 0.27374 0.22668 0.03882 0.0
C593 C 0.82573 0.32891 0.04034 0.0
C594 C 0.63181 0.23523 0.09145 0.0
C595 C 0.72088 0.2242 -0.01389 0.0
C596 C 0.62688 0.11997 0.04344 0.0
O597 O 0.03142 0.21957 0.0242 0.0
O598 O 0.18419 0.21035 0.14755 0.0
Zn599 Zn 0.42189 0.19368 0.14472 0.0
O600 O 0.52915 0.22598 0.16338 0.0
Zn601 Zn 0.64371 0.26797 0.15089 0.0
Zn602 Zn 0.37743 0.24984 0.17991 0.0
Zn603 Zn 0.6496 0.19448 0.18081 0.0
O604 O 0.87875 0.25442 0.15486 0.0
O605 O 0.87143 0.20579 0.17639 0.0
O606 O 0.50685 0.20664 0.11829 0.0
O607 O 0.63436 0.26312 0.1223 0.0
O608 O 0.53635 0.3224 0.15737 0.0
O609 O 0.31175 0.30223 0.17064 0.0
O610 O 0.43114 0.25144 0.20767 0.0
O611 O 0.48918 0.13506 0.1484 0.0
O612 O 0.58146 0.19817 0.2087 0.0
O613 O 0.65141 0.13941 0.17331 0.0
C614 C 0.11475 0.22007 0.16321 0.0
C615 C 0.94526 0.22667 0.16431 0.0
C616 C 0.39326 0.32889 0.1628 0.0
C617 C 0.58718 0.23523 0.11169 0.0
C618 C 0.49814 0.22419 0.21703 0.0
C619 C 0.59206 0.11995 0.1597 0.0
O620 O 0.18757 0.21955 0.17894 0.0
O621 O 0.03482 -0.01257 0.14755 0.0
Zn622 Zn 0.79712 0.0041 0.14473 0.0
O623 O 0.68985 0.9718 0.16338 0.0
Zn624 Zn 0.57529 0.92981 0.15089 0.0
Zn625 Zn 0.84156 0.94793 0.17991 0.0
Zn626 Zn 0.5694 0.00329 0.18081 0.0
O627 O 0.34025 0.94336 0.15486 0.0
O628 O 0.34757 -0.00803 0.1764 0.0
O629 O 0.71217 -0.00885 0.1183 0.0
O630 O 0.58465 0.93467 0.1223 0.0
O631 O 0.68265 0.87538 0.15737 0.0
O632 O 0.90724 0.89554 0.17064 0.0
O633 O 0.78785 0.94633 0.20768 0.0
O634 O 0.72982 0.06272 0.1484 0.0
O635 O 0.63758 -0.00039 0.2087 0.0
O636 O 0.56754 0.05836 0.17331 0.0
C637 C 0.10425 -0.0223 0.16321 0.0
C638 C 0.27374 0.97111 0.16432 0.0
C639 C 0.82573 0.86888 0.1628 0.0
C640 C 0.63184 0.96256 0.11169 0.0
C641 C 0.72089 0.97359 0.21703 0.0
C642 C 0.62688 0.07782 0.1597 0.0
O643 O 0.03143 -0.02178 0.17894 0.0
O644 O 0.81192 0.94364 0.9251 0.0
Zn645 Zn 0.57627 0.93515 0.92847 0.0
O646 O 0.47705 -0.02512 0.91328 0.0
Zn647 Zn 0.36876 0.01321 0.92852 0.0
Zn648 Zn 0.60665 -0.00096 0.89412 0.0
Zn649 Zn 0.32862 0.94595 0.89866 0.0
O650 O 0.12804 0.00483 0.9217 0.0
O651 O 0.13688 0.94186 0.91318 0.0
O652 O 0.54669 0.94559 0.95614 0.0
O653 O 0.41135 0.00163 0.95683 0.0
O654 O 0.47821 0.06741 0.92369 0.0
O655 O 0.61928 0.05656 0.89734 0.0
O656 O 0.52602 -0.01252 0.86672 0.0
O657 O 0.46726 0.88155 0.92368 0.0
O658 O 0.27897 0.97127 0.8738 0.0
O659 O 0.37718 0.89007 0.89424 0.0
C660 C 0.88987 0.96872 0.91523 0.0
C661 C 0.05968 0.97184 0.91793 0.0
C662 C 0.57788 0.07875 0.911 0.0
C663 C 0.48453 0.97378 0.96528 0.0
C664 C 0.38209 -0.01811 0.86172 0.0
C665 C 0.39422 0.86869 0.90893 0.0
O666 O 0.82856 -0.01211 0.90146 0.0
O667 O 0.90714 0.75416 0.9251 0.0
Zn668 Zn 0.14279 0.76265 0.92847 0.0
O669 O 0.24202 0.72292 0.91327 0.0
Zn670 Zn 0.3503 0.68459 0.92851 0.0
Zn671 Zn 0.11242 0.69875 0.89412 0.0
Zn672 Zn 0.39044 0.75185 0.89866 0.0
O673 O 0.59102 0.69297 0.9217 0.0
O674 O 0.58219 0.75594 0.91318 0.0
O675 O 0.17236 0.7522 0.95613 0.0
O676 O 0.3077 0.69617 0.95682 0.0
O677 O 0.24085 0.63038 0.92369 0.0
O678 O 0.09979 0.64124 0.89734 0.0
O679 O 0.19304 0.71031 0.86672 0.0
O680 O 0.2518 0.81625 0.92368 0.0
O681 O 0.44009 0.72653 0.8738 0.0
O682 O 0.3419 0.80774 0.89424 0.0
C683 C 0.82919 0.72908 0.91523 0.0
C684 C 0.65938 0.72596 0.91793 0.0
C685 C 0.14119 0.61905 0.911 0.0
C686 C 0.23452 0.72402 0.96528 0.0
C687 C 0.33697 0.7159 0.86172 0.0
C688 C 0.32484 0.82911 0.90893 0.0
O689 O 0.8905 0.70991 0.90146 0.0
O690 O 0.81192 0.75416 0.77804 0.0
Zn691 Zn 0.57627 0.76265 0.77467 0.0
O692 O 0.47704 0.72292 0.78986 0.0
Zn693 Zn 0.36875 0.68458 0.77462 0.0
Zn694 Zn 0.60664 0.69875 0.80902 0.0
Zn695 Zn 0.32862 0.75184 0.80448 0.0
O696 O 0.12804 0.69296 0.78144 0.0
O697 O 0.13688 0.75594 0.78996 0.0
O698 O 0.54669 0.7522 0.747 0.0
O699 O 0.41134 0.69617 0.74631 0.0
O700 O 0.47822 0.63038 0.77945 0.0
O701 O 0.61927 0.64124 0.8058 0.0
O702 O 0.52601 0.71031 0.83642 0.0
O703 O 0.46726 0.81624 0.77946 0.0
O704 O 0.27895 0.72652 0.82934 0.0
O705 O 0.37717 0.80773 0.8089 0.0
C706 C 0.88987 0.72908 0.78791 0.0
C707 C 0.05968 0.72595 0.78521 0.0
C708 C 0.57788 0.61904 0.79214 0.0
C709 C 0.48452 0.72402 0.73786 0.0
C710 C 0.38207 0.71589 0.84142 0.0
C711 C 0.39422 0.82911 0.79421 0.0
O712 O 0.82856 0.70991 0.80168 0.0
O713 O 0.90714 0.94363 0.77804 0.0
Zn714 Zn 0.14279 0.93514 0.77467 0.0
O715 O 0.24202 -0.02513 0.78987 0.0
Zn716 Zn 0.35031 0.0132 0.77463 0.0
Zn717 Zn 0.11242 -0.00096 0.80902 0.0
Zn718 Zn 0.39045 0.94595 0.80448 0.0
O719 O 0.59102 0.00483 0.78144 0.0
O720 O 0.58219 0.94185 0.78996 0.0
O721 O 0.17236 0.94559 0.747 0.0
O722 O 0.30771 0.00162 0.74632 0.0
O723 O 0.24085 0.06741 0.77945 0.0
O724 O 0.0998 0.05655 0.8058 0.0
O725 O 0.19305 -0.01252 0.83642 0.0
O726 O 0.2518 0.88155 0.77946 0.0
O727 O 0.4401 0.97127 0.82934 0.0
O728 O 0.34191 0.89006 0.8089 0.0
C729 C 0.82919 0.96872 0.78791 0.0
C730 C 0.65938 0.97184 0.78521 0.0
C731 C 0.14119 0.07875 0.79214 0.0
C732 C 0.23453 0.97377 0.73786 0.0
C733 C 0.33699 -0.0181 0.84142 0.0
C734 C 0.32485 0.86868 0.79421 0.0
O735 O 0.8905 -0.01212 0.80168 0.0
loop_
_geom_bond_atom_site_label_1
_geom_bond_atom_site_label_2
_geom_bond_distance
_geom_bond_site_symmetry_2
_ccdc_geom_bond_type
O0 Zn1 1.953 . S
O0 C16 1.225 . S
Zn1 O0 1.953 . S
Zn1 O2 1.949 1_655 S
Zn1 O8 1.919 . S
Zn1 O13 1.924 . S
O2 Zn1 1.949 1_455 S
O2 Zn3 1.923 . S
O2 Zn4 1.950 1_455 S
O2 Zn5 1.945 . S
Zn3 O2 1.923 . S
Zn3 O6 1.933 . S
Zn3 O9 1.941 . S
Zn3 O10 1.965 . S
Zn4 O2 1.950 1_655 S
Zn4 O11 1.938 . S
Zn4 O12 1.906 . S
Zn4 O22 1.953 . S
Zn5 O2 1.945 . S
Zn5 O7 1.932 . S
Zn5 O14 1.977 . S
Zn5 O15 1.910 . S
O6 Zn3 1.933 . S
O6 C17 1.226 . S
O7 Zn5 1.932 . S
O7 C17 1.307 . S
O8 Zn1 1.919 . S
O8 C19 1.253 1_655 S
O9 Zn3 1.941 . S
O9 C19 1.283 . S
O10 Zn3 1.965 . S
O10 C18 1.303 1_455 S
O11 Zn4 1.938 . S
O11 C18 1.247 . S
O12 Zn4 1.906 . S
O12 C20 1.304 1_655 S
O13 Zn1 1.924 . S
O13 C21 1.311 1_655 S
O14 Zn5 1.977 . S
O14 C20 1.272 . S
O15 Zn5 1.910 . S
O15 C21 1.231 . S
C16 O0 1.225 . S
C16 O22 1.298 . S
C17 O6 1.226 . S
C17 O7 1.307 . S
C18 O10 1.303 1_655 S
C18 O11 1.247 . S
C19 O8 1.253 1_455 S
C19 O9 1.283 . S
C20 O12 1.304 1_455 S
C20 O14 1.272 . S
C21 O13 1.311 1_455 S
C21 O15 1.231 . S
O22 Zn4 1.953 . S
O22 C16 1.298 . S
O23 Zn24 1.953 . S
O23 C39 1.225 . S
Zn24 O23 1.953 . S
Zn24 O25 1.949 . S
Zn24 O31 1.919 . S
Zn24 O36 1.924 . S
O25 Zn24 1.949 . S
O25 Zn26 1.923 . S
O25 Zn27 1.950 . S
O25 Zn28 1.945 . S
Zn26 O25 1.923 . S
Zn26 O29 1.933 1_455 S
Zn26 O32 1.941 . S
Zn26 O33 1.965 . S
Zn27 O25 1.950 . S
Zn27 O34 1.938 . S
Zn27 O35 1.906 . S
Zn27 O45 1.953 . S
Zn28 O25 1.945 . S
Zn28 O30 1.932 1_455 S
Zn28 O37 1.977 . S
Zn28 O38 1.910 . S
O29 Zn26 1.933 1_655 S
O29 C40 1.226 . S
O30 Zn28 1.932 1_655 S
O30 C40 1.307 . S
O31 Zn24 1.919 . S
O31 C42 1.253 . S
O32 Zn26 1.941 . S
O32 C42 1.283 . S
O33 Zn26 1.965 . S
O33 C41 1.303 . S
O34 Zn27 1.938 . S
O34 C41 1.247 . S
O35 Zn27 1.906 . S
O35 C43 1.304 . S
O36 Zn24 1.924 . S
O36 C44 1.311 . S
O37 Zn28 1.977 . S
O37 C43 1.272 . S
O38 Zn28 1.910 . S
O38 C44 1.231 . S
C39 O23 1.225 . S
C39 O45 1.298 . S
C40 O29 1.226 . S
C40 O30 1.307 . S
C41 O33 1.303 . S
C41 O34 1.247 . S
C42 O31 1.253 . S
C42 O32 1.283 . S
C43 O35 1.304 . S
C43 O37 1.272 . S
C44 O36 1.311 . S
C44 O38 1.231 . S
O45 Zn27 1.953 . S
O45 C39 1.298 . S
O46 Zn47 1.953 . S
O46 C62 1.225 . S
Zn47 O46 1.953 . S
Zn47 O48 1.949 1_655 S
Zn47 O54 1.919 . S
Zn47 O59 1.924 . S
O48 Zn47 1.949 1_455 S
O48 Zn49 1.923 . S
O48 Zn50 1.950 1_455 S
O48 Zn51 1.945 . S
Zn49 O48 1.923 . S
Zn49 O52 1.933 . S
Zn49 O55 1.941 . S
Zn49 O56 1.965 . S
Zn50 O48 1.950 1_655 S
Zn50 O57 1.938 . S
Zn50 O58 1.906 . S
Zn50 O68 1.953 . S
Zn51 O48 1.945 . S
Zn51 O53 1.932 . S
Zn51 O60 1.977 . S
Zn51 O61 1.910 . S
O52 Zn49 1.933 . S
O52 C63 1.226 . S
O53 Zn51 1.932 . S
O53 C63 1.307 . S
O54 Zn47 1.919 . S
O54 C65 1.253 1_655 S
O55 Zn49 1.941 . S
O55 C65 1.283 . S
O56 Zn49 1.965 . S
O56 C64 1.303 1_455 S
O57 Zn50 1.938 . S
O57 C64 1.247 . S
O58 Zn50 1.906 . S
O58 C66 1.304 1_655 S
O59 Zn47 1.924 . S
O59 C67 1.311 1_655 S
O60 Zn51 1.977 . S
O60 C66 1.272 . S
O61 Zn51 1.910 . S
O61 C67 1.231 . S
C62 O46 1.225 . S
C62 O68 1.298 . S
C63 O52 1.226 . S
C63 O53 1.307 . S
C64 O56 1.303 1_655 S
C64 O57 1.247 . S
C65 O54 1.253 1_455 S
C65 O55 1.283 . S
C66 O58 1.304 1_455 S
C66 O60 1.272 . S
C67 O59 1.311 1_455 S
C67 O61 1.231 . S
O68 Zn50 1.953 . S
O68 C62 1.298 . S
O69 Zn70 1.953 . S
O69 C85 1.225 . S
Zn70 O69 1.953 . S
Zn70 O71 1.949 . S
Zn70 O77 1.919 . S
Zn70 O82 1.924 . S
O71 Zn70 1.949 . S
O71 Zn72 1.923 . S
O71 Zn73 1.950 . S
O71 Zn74 1.945 . S
Zn72 O71 1.923 . S
Zn72 O75 1.933 1_455 S
Zn72 O78 1.941 . S
Zn72 O79 1.965 . S
Zn73 O71 1.950 . S
Zn73 O80 1.938 . S
Zn73 O81 1.906 . S
Zn73 O91 1.953 . S
Zn74 O71 1.945 . S
Zn74 O76 1.932 1_455 S
Zn74 O83 1.977 . S
Zn74 O84 1.910 . S
O75 Zn72 1.933 1_655 S
O75 C86 1.226 . S
O76 Zn74 1.932 1_655 S
O76 C86 1.307 . S
O77 Zn70 1.919 . S
O77 C88 1.253 . S
O78 Zn72 1.941 . S
O78 C88 1.283 . S
O79 Zn72 1.965 . S
O79 C87 1.303 . S
O80 Zn73 1.938 . S
O80 C87 1.247 . S
O81 Zn73 1.906 . S
O81 C89 1.304 . S
O82 Zn70 1.924 . S
O82 C90 1.311 . S
O83 Zn74 1.977 . S
O83 C89 1.272 . S
O84 Zn74 1.910 . S
O84 C90 1.231 . S
C85 O69 1.225 . S
C85 O91 1.298 . S
C86 O75 1.226 . S
C86 O76 1.307 . S
C87 O79 1.303 . S
C87 O80 1.247 . S
C88 O77 1.253 . S
C88 O78 1.283 . S
C89 O81 1.304 . S
C89 O83 1.272 . S
C90 O82 1.311 . S
C90 O84 1.231 . S
O91 Zn73 1.953 . S
O91 C85 1.298 . S
O92 Zn93 1.953 . S
O92 C108 1.225 . S
Zn93 O92 1.953 . S
Zn93 O94 1.949 1_455 S
Zn93 O100 1.919 . S
Zn93 O105 1.924 . S
O94 Zn93 1.949 1_655 S
O94 Zn95 1.923 . S
O94 Zn96 1.950 1_655 S
O94 Zn97 1.945 . S
Zn95 O94 1.923 . S
Zn95 O98 1.933 . S
Zn95 O101 1.941 . S
Zn95 O102 1.965 . S
Zn96 O94 1.950 1_455 S
Zn96 O103 1.938 . S
Zn96 O104 1.906 . S
Zn96 O114 1.953 . S
Zn97 O94 1.945 . S
Zn97 O99 1.932 . S
Zn97 O106 1.977 . S
Zn97 O107 1.910 . S
O98 Zn95 1.933 . S
O98 C109 1.226 . S
O99 Zn97 1.932 . S
O99 C109 1.307 . S
O100 Zn93 1.919 . S
O100 C111 1.253 1_455 S
O101 Zn95 1.941 . S
O101 C111 1.283 . S
O102 Zn95 1.965 . S
O102 C110 1.303 1_655 S
O103 Zn96 1.938 . S
O103 C110 1.247 . S
O104 Zn96 1.906 . S
O104 C112 1.304 1_455 S
O105 Zn93 1.924 . S
O105 C113 1.311 1_455 S
O106 Zn97 1.977 . S
O106 C112 1.272 . S
O107 Zn97 1.910 . S
O107 C113 1.231 . S
C108 O92 1.225 . S
C108 O114 1.298 . S
C109 O98 1.226 . S
C109 O99 1.307 . S
C110 O102 1.303 1_455 S
C110 O103 1.247 . S
C111 O100 1.253 1_655 S
C111 O101 1.283 . S
C112 O104 1.304 1_655 S
C112 O106 1.272 . S
C113 O105 1.311 1_655 S
C113 O107 1.231 . S
O114 Zn96 1.953 . S
O114 C108 1.298 . S
O115 Zn116 1.953 . S
O115 C131 1.225 . S
Zn116 O115 1.953 . S
Zn116 O117 1.949 . S
Zn116 O123 1.919 . S
Zn116 O128 1.924 . S
O117 Zn116 1.949 . S
O117 Zn118 1.923 . S
O117 Zn119 1.950 . S
O117 Zn120 1.945 . S
Zn118 O117 1.923 . S
Zn118 O121 1.933 1_655 S
Zn118 O124 1.941 . S
Zn118 O125 1.965 . S
Zn119 O117 1.950 . S
Zn119 O126 1.938 . S
Zn119 O127 1.906 . S
Zn119 O137 1.953 . S
Zn120 O117 1.945 . S
Zn120 O122 1.932 1_655 S
Zn120 O129 1.977 . S
Zn120 O130 1.910 . S
O121 Zn118 1.933 1_455 S
O121 C132 1.226 . S
O122 Zn120 1.932 1_455 S
O122 C132 1.307 . S
O123 Zn116 1.919 . S
O123 C134 1.253 . S
O124 Zn118 1.941 . S
O124 C134 1.283 . S
O125 Zn118 1.965 . S
O125 C133 1.303 . S
O126 Zn119 1.938 . S
O126 C133 1.247 . S
O127 Zn119 1.906 . S
O127 C135 1.304 . S
O128 Zn116 1.924 . S
O128 C136 1.311 . S
O129 Zn120 1.977 . S
O129 C135 1.272 . S
O130 Zn120 1.910 . S
O130 C136 1.231 . S
C131 O115 1.225 . S
C131 O137 1.298 . S
C132 O121 1.226 . S
C132 O122 1.307 . S
C133 O125 1.303 . S
C133 O126 1.247 . S
C134 O123 1.253 . S
C134 O124 1.283 . S
C135 O127 1.304 . S
C135 O129 1.272 . S
C136 O128 1.311 . S
C136 O130 1.231 . S
O137 Zn119 1.953 . S
O137 C131 1.298 . S
O138 Zn139 1.953 . S
O138 C154 1.225 . S
Zn139 O138 1.953 . S
Zn139 O140 1.949 1_455 S
Zn139 O146 1.919 . S
Zn139 O151 1.924 . S
O140 Zn139 1.949 1_655 S
O140 Zn141 1.923 . S
O140 Zn142 1.950 1_655 S
O140 Zn143 1.945 . S
Zn141 O140 1.923 . S
Zn141 O144 1.933 . S
Zn141 O147 1.941 . S
Zn141 O148 1.965 . S
Zn142 O140 1.950 1_455 S
Zn142 O149 1.938 . S
Zn142 O150 1.906 . S
Zn142 O160 1.953 . S
Zn143 O140 1.945 . S
Zn143 O145 1.932 . S
Zn143 O152 1.977 . S
Zn143 O153 1.910 . S
O144 Zn141 1.933 . S
O144 C155 1.226 . S
O145 Zn143 1.932 . S
O145 C155 1.307 . S
O146 Zn139 1.919 . S
O146 C157 1.253 1_455 S
O147 Zn141 1.941 . S
O147 C157 1.283 . S
O148 Zn141 1.965 . S
O148 C156 1.303 1_655 S
O149 Zn142 1.938 . S
O149 C156 1.247 . S
O150 Zn142 1.906 . S
O150 C158 1.304 1_455 S
O151 Zn139 1.924 . S
O151 C159 1.311 1_455 S
O152 Zn143 1.977 . S
O152 C158 1.272 . S
O153 Zn143 1.910 . S
O153 C159 1.231 . S
C154 O138 1.225 . S
C154 O160 1.298 . S
C155 O144 1.226 . S
C155 O145 1.307 . S
C156 O148 1.303 1_455 S
C156 O149 1.247 . S
C157 O146 1.253 1_655 S
C157 O147 1.283 . S
C158 O150 1.304 1_655 S
C158 O152 1.272 . S
C159 O151 1.311 1_655 S
C159 O153 1.231 . S
O160 Zn142 1.953 . S
O160 C154 1.298 . S
O161 Zn162 1.953 . S
O161 C177 1.225 . S
Zn162 O161 1.953 . S
Zn162 O163 1.949 . S
Zn162 O169 1.919 . S
Zn162 O174 1.924 . S
O163 Zn162 1.949 . S
O163 Zn164 1.923 . S
O163 Zn165 1.950 . S
O163 Zn166 1.945 . S
Zn164 O163 1.923 . S
Zn164 O167 1.933 1_655 S
Zn164 O170 1.941 . S
Zn164 O171 1.965 . S
Zn165 O163 1.950 . S
Zn165 O172 1.938 . S
Zn165 O173 1.906 . S
Zn165 O183 1.953 . S
Zn166 O163 1.945 . S
Zn166 O168 1.932 1_655 S
Zn166 O175 1.977 . S
Zn166 O176 1.910 . S
O167 Zn164 1.933 1_455 S
O167 C178 1.226 . S
O168 Zn166 1.932 1_455 S
O168 C178 1.307 . S
O169 Zn162 1.919 . S
O169 C180 1.253 . S
O170 Zn164 1.941 . S
O170 C180 1.283 . S
O171 Zn164 1.965 . S
O171 C179 1.303 . S
O172 Zn165 1.938 . S
O172 C179 1.247 . S
O173 Zn165 1.906 . S
O173 C181 1.304 . S
O174 Zn162 1.924 . S
O174 C182 1.311 . S
O175 Zn166 1.977 . S
O175 C181 1.272 . S
O176 Zn166 1.910 . S
O176 C182 1.231 . S
C177 O161 1.225 . S
C177 O183 1.298 . S
C178 O167 1.226 . S
C178 O168 1.307 . S
C179 O171 1.303 . S
C179 O172 1.247 . S
C180 O169 1.253 . S
C180 O170 1.283 . S
C181 O173 1.304 . S
C181 O175 1.272 . S
C182 O174 1.311 . S
C182 O176 1.231 . S
O183 Zn165 1.953 . S
O183 C177 1.298 . S
O184 Zn185 1.953 . S
O184 C200 1.225 . S
Zn185 O184 1.953 . S
Zn185 O186 1.949 1_645 S
Zn185 O192 1.919 . S
Zn185 O197 1.924 . S
O186 Zn185 1.949 1_465 S
O186 Zn187 1.923 . S
O186 Zn188 1.950 1_455 S
O186 Zn189 1.945 1_565 S
Zn187 O186 1.923 . S
Zn187 O190 1.933 . S
Zn187 O193 1.941 . S
Zn187 O194 1.965 . S
Zn188 O186 1.950 1_655 S
Zn188 O195 1.938 . S
Zn188 O196 1.906 . S
Zn188 O206 1.953 . S
Zn189 O186 1.945 1_545 S
Zn189 O191 1.932 . S
Zn189 O198 1.977 . S
Zn189 O199 1.910 . S
O190 Zn187 1.933 . S
O190 C201 1.226 . S
O191 Zn189 1.932 . S
O191 C201 1.307 1_545 S
O192 Zn185 1.919 . S
O192 C203 1.253 1_645 S
O193 Zn187 1.941 . S
O193 C203 1.283 . S
O194 Zn187 1.965 . S
O194 C202 1.303 1_455 S
O195 Zn188 1.938 . S
O195 C202 1.247 . S
O196 Zn188 1.906 . S
O196 C204 1.296 1_665 S
O197 Zn185 1.924 . S
O197 C205 1.311 1_655 S
O198 Zn189 1.977 . S
O198 C204 1.283 . S
O199 Zn189 1.910 . S
O199 C205 1.231 . S
C200 O184 1.225 . S
C200 O206 1.298 1_545 S
C201 O190 1.226 . S
C201 O191 1.307 1_565 S
C202 O194 1.303 1_655 S
C202 O195 1.247 . S
C203 O192 1.253 1_465 S
C203 O193 1.283 . S
C204 O196 1.296 1_445 S
C204 O198 1.283 . S
C205 O197 1.311 1_455 S
C205 O199 1.231 . S
O206 Zn188 1.953 . S
O206 C200 1.298 1_565 S
O207 Zn208 1.953 . S
O207 C223 1.225 . S
Zn208 O207 1.953 . S
Zn208 O209 1.949 . S
Zn208 O215 1.919 . S
Zn208 O220 1.924 . S
O209 Zn208 1.949 . S
O209 Zn210 1.923 . S
O209 Zn211 1.950 . S
O209 Zn212 1.945 . S
Zn210 O209 1.923 . S
Zn210 O213 1.933 1_455 S
Zn210 O216 1.941 . S
Zn210 O217 1.965 . S
Zn211 O209 1.950 . S
Zn211 O218 1.938 . S
Zn211 O219 1.906 . S
Zn211 O229 1.953 . S
Zn212 O209 1.945 . S
Zn212 O214 1.932 1_455 S
Zn212 O221 1.977 . S
Zn212 O222 1.910 . S
O213 Zn210 1.933 1_655 S
O213 C224 1.226 . S
O214 Zn212 1.932 1_655 S
O214 C224 1.307 . S
O215 Zn208 1.919 . S
O215 C226 1.253 . S
O216 Zn210 1.941 . S
O216 C226 1.283 . S
O217 Zn210 1.965 . S
O217 C225 1.303 . S
O218 Zn211 1.938 . S
O218 C225 1.247 . S
O219 Zn211 1.906 . S
O219 C227 1.304 . S
O220 Zn208 1.924 . S
O220 C228 1.311 . S
O221 Zn212 1.977 . S
O221 C227 1.272 . S
O222 Zn212 1.910 . S
O222 C228 1.231 . S
C223 O207 1.225 . S
C223 O229 1.298 . S
C224 O213 1.226 . S
C224 O214 1.307 . S
C225 O217 1.303 . S
C225 O218 1.247 . S
C226 O215 1.253 . S
C226 O216 1.283 . S
C227 O219 1.304 . S
C227 O221 1.272 . S
C228 O220 1.311 . S
C228 O222 1.231 . S
O229 Zn211 1.953 . S
O229 C223 1.298 . S
O230 Zn231 1.953 . S
O230 C246 1.225 . S
Zn231 O230 1.953 . S
Zn231 O232 1.949 1_655 S
Zn231 O238 1.919 . S
Zn231 O243 1.924 . S
O232 Zn231 1.949 1_455 S
O232 Zn233 1.923 . S
O232 Zn234 1.950 1_455 S
O232 Zn235 1.945 . S
Zn233 O232 1.923 . S
Zn233 O236 1.933 . S
Zn233 O239 1.941 . S
Zn233 O240 1.965 . S
Zn234 O232 1.950 1_655 S
Zn234 O241 1.938 . S
Zn234 O242 1.906 . S
Zn234 O252 1.953 . S
Zn235 O232 1.945 . S
Zn235 O237 1.932 . S
Zn235 O244 1.977 . S
Zn235 O245 1.910 . S
O236 Zn233 1.933 . S
O236 C247 1.226 . S
O237 Zn235 1.932 . S
O237 C247 1.307 . S
O238 Zn231 1.919 . S
O238 C249 1.253 1_655 S
O239 Zn233 1.941 . S
O239 C249 1.283 . S
O240 Zn233 1.965 . S
O240 C248 1.303 1_455 S
O241 Zn234 1.938 . S
O241 C248 1.247 . S
O242 Zn234 1.906 . S
O242 C250 1.304 1_655 S
O243 Zn231 1.924 . S
O243 C251 1.311 1_655 S
O244 Zn235 1.977 . S
O244 C250 1.272 . S
O245 Zn235 1.910 . S
O245 C251 1.231 . S
C246 O230 1.225 . S
C246 O252 1.298 . S
C247 O236 1.226 . S
C247 O237 1.307 . S
C248 O240 1.303 1_655 S
C248 O241 1.247 . S
C249 O238 1.253 1_455 S
C249 O239 1.283 . S
C250 O242 1.304 1_455 S
C250 O244 1.272 . S
C251 O243 1.311 1_455 S
C251 O245 1.231 . S
O252 Zn234 1.953 . S
O252 C246 1.298 . S
O253 Zn254 1.953 . S
O253 C269 1.225 . S
Zn254 O253 1.953 . S
Zn254 O255 1.949 1_545 S
Zn254 O261 1.919 . S
Zn254 O266 1.924 . S
O255 Zn254 1.949 1_565 S
O255 Zn256 1.923 . S
O255 Zn257 1.950 . S
O255 Zn258 1.945 1_565 S
Zn256 O255 1.923 . S
Zn256 O259 1.933 1_455 S
Zn256 O262 1.941 . S
Zn256 O263 1.965 . S
Zn257 O255 1.950 . S
Zn257 O264 1.938 . S
Zn257 O265 1.906 . S
Zn257 O275 1.953 . S
Zn258 O255 1.945 1_545 S
Zn258 O260 1.932 1_455 S
Zn258 O267 1.977 . S
Zn258 O268 1.910 . S
O259 Zn256 1.933 1_655 S
O259 C270 1.226 . S
O260 Zn258 1.932 1_655 S
O260 C270 1.307 1_545 S
O261 Zn254 1.919 . S
O261 C272 1.253 1_545 S
O262 Zn256 1.941 . S
O262 C272 1.283 . S
O263 Zn256 1.965 . S
O263 C271 1.303 . S
O264 Zn257 1.938 . S
O264 C271 1.247 . S
O265 Zn257 1.906 . S
O265 C273 1.296 1_565 S
O266 Zn254 1.924 . S
O266 C274 1.311 . S
O267 Zn258 1.977 . S
O267 C273 1.282 . S
O268 Zn258 1.910 . S
O268 C274 1.231 . S
C269 O253 1.225 . S
C269 O275 1.298 1_545 S
C270 O259 1.226 . S
C270 O260 1.307 1_565 S
C271 O263 1.303 . S
C271 O264 1.247 . S
C272 O261 1.253 1_565 S
C272 O262 1.283 . S
C273 O265 1.296 1_545 S
C273 O267 1.282 . S
C274 O266 1.311 . S
C274 O268 1.231 . S
O275 Zn257 1.953 . S
O275 C269 1.298 1_565 S
O276 Zn277 1.953 . S
O276 C292 1.225 . S
Zn277 O276 1.953 . S
Zn277 O278 1.949 1_465 S
Zn277 O284 1.919 . S
Zn277 O289 1.924 . S
O278 Zn277 1.949 1_645 S
O278 Zn279 1.923 . S
O278 Zn280 1.950 1_655 S
O278 Zn281 1.945 1_545 S
Zn279 O278 1.923 . S
Zn279 O282 1.933 . S
Zn279 O285 1.941 . S
Zn279 O286 1.965 . S
Zn280 O278 1.950 1_455 S
Zn280 O287 1.938 . S
Zn280 O288 1.906 . S
Zn280 O298 1.953 . S
Zn281 O278 1.945 1_565 S
Zn281 O283 1.932 . S
Zn281 O290 1.977 . S
Zn281 O291 1.910 . S
O282 Zn279 1.933 . S
O282 C293 1.226 . S
O283 Zn281 1.932 . S
O283 C293 1.307 1_565 S
O284 Zn277 1.919 . S
O284 C295 1.253 1_465 S
O285 Zn279 1.941 . S
O285 C295 1.283 . S
O286 Zn279 1.965 . S
O286 C294 1.303 1_655 S
O287 Zn280 1.938 . S
O287 C294 1.247 . S
O288 Zn280 1.906 . S
O288 C296 1.304 1_455 S
O289 Zn277 1.924 . S
O289 C297 1.311 1_455 S
O290 Zn281 1.977 . S
O290 C296 1.272 1_565 S
O291 Zn281 1.910 . S
O291 C297 1.231 . S
C292 O276 1.225 . S
C292 O298 1.298 1_565 S
C293 O282 1.226 . S
C293 O283 1.307 1_545 S
C294 O286 1.303 1_455 S
C294 O287 1.247 . S
C295 O284 1.253 1_645 S
C295 O285 1.283 . S
C296 O288 1.304 1_655 S
C296 O290 1.272 1_545 S
C297 O289 1.311 1_655 S
C297 O291 1.231 . S
O298 Zn280 1.953 . S
O298 C292 1.298 1_545 S
O299 Zn300 1.953 . S
O299 C315 1.225 . S
Zn300 O299 1.953 . S
Zn300 O301 1.949 . S
Zn300 O307 1.919 . S
Zn300 O312 1.924 . S
O301 Zn300 1.949 . S
O301 Zn302 1.923 . S
O301 Zn303 1.950 . S
O301 Zn304 1.945 . S
Zn302 O301 1.923 . S
Zn302 O305 1.933 1_655 S
Zn302 O308 1.941 . S
Zn302 O309 1.965 . S
Zn303 O301 1.950 . S
Zn303 O310 1.938 . S
Zn303 O311 1.906 . S
Zn303 O321 1.953 . S
Zn304 O301 1.945 . S
Zn304 O306 1.932 1_655 S
Zn304 O313 1.977 . S
Zn304 O314 1.910 . S
O305 Zn302 1.933 1_455 S
O305 C316 1.226 . S
O306 Zn304 1.932 1_455 S
O306 C316 1.307 . S
O307 Zn300 1.919 . S
O307 C318 1.253 . S
O308 Zn302 1.941 . S
O308 C318 1.283 . S
O309 Zn302 1.965 . S
O309 C317 1.303 . S
O310 Zn303 1.938 . S
O310 C317 1.247 . S
O311 Zn303 1.906 . S
O311 C319 1.304 . S
O312 Zn300 1.924 . S
O312 C320 1.311 . S
O313 Zn304 1.977 . S
O313 C319 1.272 . S
O314 Zn304 1.910 . S
O314 C320 1.231 . S
C315 O299 1.225 . S
C315 O321 1.298 . S
C316 O305 1.226 . S
C316 O306 1.307 . S
C317 O309 1.303 . S
C317 O310 1.247 . S
C318 O307 1.253 . S
C318 O308 1.283 . S
C319 O311 1.304 . S
C319 O313 1.272 . S
C320 O312 1.311 . S
C320 O314 1.231 . S
O321 Zn303 1.953 . S
O321 C315 1.298 . S
O322 Zn323 1.953 . S
O322 C338 1.225 . S
Zn323 O322 1.953 . S
Zn323 O324 1.949 1_455 S
Zn323 O330 1.919 . S
Zn323 O335 1.924 . S
O324 Zn323 1.949 1_655 S
O324 Zn325 1.923 . S
O324 Zn326 1.950 1_655 S
O324 Zn327 1.945 . S
Zn325 O324 1.923 . S
Zn325 O328 1.933 . S
Zn325 O331 1.941 . S
Zn325 O332 1.965 . S
Zn326 O324 1.950 1_455 S
Zn326 O333 1.938 . S
Zn326 O334 1.906 . S
Zn326 O344 1.953 . S
Zn327 O324 1.945 . S
Zn327 O329 1.932 . S
Zn327 O336 1.977 . S
Zn327 O337 1.910 . S
O328 Zn325 1.933 . S
O328 C339 1.226 . S
O329 Zn327 1.932 . S
O329 C339 1.307 . S
O330 Zn323 1.919 . S
O330 C341 1.253 1_455 S
O331 Zn325 1.941 . S
O331 C341 1.283 . S
O332 Zn325 1.965 . S
O332 C340 1.303 1_655 S
O333 Zn326 1.938 . S
O333 C340 1.247 . S
O334 Zn326 1.906 . S
O334 C342 1.304 1_455 S
O335 Zn323 1.924 . S
O335 C343 1.311 1_455 S
O336 Zn327 1.977 . S
O336 C342 1.272 . S
O337 Zn327 1.910 . S
O337 C343 1.231 . S
C338 O322 1.225 . S
C338 O344 1.298 . S
C339 O328 1.226 . S
C339 O329 1.307 . S
C340 O332 1.303 1_455 S
C340 O333 1.247 . S
C341 O330 1.253 1_655 S
C341 O331 1.283 . S
C342 O334 1.304 1_655 S
C342 O336 1.272 . S
C343 O335 1.311 1_655 S
C343 O337 1.231 . S
O344 Zn326 1.953 . S
O344 C338 1.298 . S
O345 Zn346 1.953 . S
O345 C361 1.225 . S
Zn346 O345 1.953 . S
Zn346 O347 1.949 1_565 S
Zn346 O353 1.919 . S
Zn346 O358 1.924 . S
O347 Zn346 1.949 1_545 S
O347 Zn348 1.923 . S
O347 Zn349 1.950 . S
O347 Zn350 1.945 1_545 S
Zn348 O347 1.923 . S
Zn348 O351 1.933 1_655 S
Zn348 O354 1.941 . S
Zn348 O355 1.965 . S
Zn349 O347 1.950 . S
Zn349 O356 1.938 . S
Zn349 O357 1.906 . S
Zn349 O367 1.953 . S
Zn350 O347 1.945 1_565 S
Zn350 O352 1.932 1_655 S
Zn350 O359 1.977 . S
Zn350 O360 1.910 . S
O351 Zn348 1.933 1_455 S
O351 C362 1.226 . S
O352 Zn350 1.932 1_455 S
O352 C362 1.307 1_565 S
O353 Zn346 1.919 . S
O353 C364 1.253 1_565 S
O354 Zn348 1.941 . S
O354 C364 1.283 . S
O355 Zn348 1.965 . S
O355 C363 1.303 . S
O356 Zn349 1.938 . S
O356 C363 1.247 . S
O357 Zn349 1.906 . S
O357 C365 1.304 . S
O358 Zn346 1.924 . S
O358 C366 1.311 . S
O359 Zn350 1.977 . S
O359 C365 1.272 1_565 S
O360 Zn350 1.910 . S
O360 C366 1.231 . S
C361 O345 1.225 . S
C361 O367 1.298 1_565 S
C362 O351 1.226 . S
C362 O352 1.307 1_545 S
C363 O355 1.303 . S
C363 O356 1.247 . S
C364 O353 1.253 1_545 S
C364 O354 1.283 . S
C365 O357 1.304 . S
C365 O359 1.272 1_545 S
C366 O358 1.311 . S
C366 O360 1.231 . S
O367 Zn349 1.953 . S
O367 C361 1.298 1_545 S
O368 Zn369 1.953 . S
O368 C384 1.225 . S
Zn369 O368 1.953 . S
Zn369 O370 1.949 . S
Zn369 O376 1.919 . S
Zn369 O381 1.924 . S
O370 Zn369 1.949 . S
O370 Zn371 1.923 . S
O370 Zn372 1.950 . S
O370 Zn373 1.945 . S
Zn371 O370 1.923 . S
Zn371 O374 1.933 . S
Zn371 O377 1.941 . S
Zn371 O378 1.965 . S
Zn372 O370 1.950 . S
Zn372 O379 1.938 . S
Zn372 O380 1.906 . S
Zn372 O390 1.953 . S
Zn373 O370 1.945 . S
Zn373 O375 1.932 . S
Zn373 O382 1.977 . S
Zn373 O383 1.910 . S
O374 Zn371 1.933 . S
O374 C385 1.226 . S
O375 Zn373 1.932 . S
O375 C385 1.307 . S
O376 Zn369 1.919 . S
O376 C387 1.253 . S
O377 Zn371 1.941 . S
O377 C387 1.283 . S
O378 Zn371 1.965 . S
O378 C386 1.303 . S
O379 Zn372 1.938 . S
O379 C386 1.247 . S
O380 Zn372 1.906 . S
O380 C388 1.304 . S
O381 Zn369 1.924 . S
O381 C389 1.311 . S
O382 Zn373 1.977 . S
O382 C388 1.272 . S
O383 Zn373 1.910 . S
O383 C389 1.231 . S
C384 O368 1.225 . S
C384 O390 1.298 . S
C385 O374 1.226 . S
C385 O375 1.307 . S
C386 O378 1.303 . S
C386 O379 1.247 . S
C387 O376 1.253 . S
C387 O377 1.283 . S
C388 O380 1.304 . S
C388 O382 1.272 . S
C389 O381 1.311 . S
C389 O383 1.231 . S
O390 Zn372 1.953 . S
O390 C384 1.298 . S
O391 Zn392 1.953 1_455 S
O391 C407 1.225 . S
Zn392 O391 1.953 1_655 S
Zn392 O393 1.949 . S
Zn392 O399 1.919 . S
Zn392 O404 1.924 . S
O393 Zn392 1.949 . S
O393 Zn394 1.923 . S
O393 Zn395 1.950 . S
O393 Zn396 1.945 . S
Zn394 O393 1.923 . S
Zn394 O397 1.933 . S
Zn394 O400 1.941 . S
Zn394 O401 1.965 . S
Zn395 O393 1.950 . S
Zn395 O402 1.938 . S
Zn395 O403 1.906 . S
Zn395 O413 1.953 1_655 S
Zn396 O393 1.945 . S
Zn396 O398 1.932 . S
Zn396 O405 1.977 . S
Zn396 O406 1.910 . S
O397 Zn394 1.933 . S
O397 C408 1.226 . S
O398 Zn396 1.932 . S
O398 C408 1.307 . S
O399 Zn392 1.919 . S
O399 C410 1.253 . S
O400 Zn394 1.941 . S
O400 C410 1.283 . S
O401 Zn394 1.965 . S
O401 C409 1.303 . S
O402 Zn395 1.938 . S
O402 C409 1.247 . S
O403 Zn395 1.906 . S
O403 C411 1.304 . S
O404 Zn392 1.924 . S
O404 C412 1.311 . S
O405 Zn396 1.977 . S
O405 C411 1.272 . S
O406 Zn396 1.910 . S
O406 C412 1.231 . S
C407 O391 1.225 . S
C407 O413 1.298 . S
C408 O397 1.226 . S
C408 O398 1.307 . S
C409 O401 1.303 . S
C409 O402 1.247 . S
C410 O399 1.253 . S
C410 O400 1.283 . S
C411 O403 1.304 . S
C411 O405 1.272 . S
C412 O404 1.311 . S
C412 O406 1.231 . S
O413 Zn395 1.953 1_455 S
O413 C407 1.298 . S
O414 Zn415 1.953 . S
O414 C430 1.225 . S
Zn415 O414 1.953 . S
Zn415 O416 1.949 . S
Zn415 O422 1.919 . S
Zn415 O427 1.924 . S
O416 Zn415 1.949 . S
O416 Zn417 1.923 . S
O416 Zn418 1.950 . S
O416 Zn419 1.945 . S
Zn417 O416 1.923 . S
Zn417 O420 1.933 . S
Zn417 O423 1.941 . S
Zn417 O424 1.965 . S
Zn418 O416 1.950 . S
Zn418 O425 1.938 . S
Zn418 O426 1.906 . S
Zn418 O436 1.953 . S
Zn419 O416 1.945 . S
Zn419 O421 1.932 . S
Zn419 O428 1.977 . S
Zn419 O429 1.910 . S
O420 Zn417 1.933 . S
O420 C431 1.226 . S
O421 Zn419 1.932 . S
O421 C431 1.307 . S
O422 Zn415 1.919 . S
O422 C433 1.253 . S
O423 Zn417 1.941 . S
O423 C433 1.283 . S
O424 Zn417 1.965 . S
O424 C432 1.303 . S
O425 Zn418 1.938 . S
O425 C432 1.247 . S
O426 Zn418 1.906 . S
O426 C434 1.304 . S
O427 Zn415 1.924 . S
O427 C435 1.311 . S
O428 Zn419 1.977 . S
O428 C434 1.272 . S
O429 Zn419 1.910 . S
O429 C435 1.231 . S
C430 O414 1.225 . S
C430 O436 1.298 . S
C431 O420 1.226 . S
C431 O421 1.307 . S
C432 O424 1.303 . S
C432 O425 1.247 . S
C433 O422 1.253 . S
C433 O423 1.283 . S
C434 O426 1.304 . S
C434 O428 1.272 . S
C435 O427 1.311 . S
C435 O429 1.231 . S
O436 Zn418 1.953 . S
O436 C430 1.298 . S
O437 Zn438 1.953 1_455 S
O437 C453 1.225 . S
Zn438 O437 1.953 1_655 S
Zn438 O439 1.949 . S
Zn438 O445 1.919 . S
Zn438 O450 1.924 . S
O439 Zn438 1.949 . S
O439 Zn440 1.923 . S
O439 Zn441 1.950 . S
O439 Zn442 1.945 . S
Zn440 O439 1.923 . S
Zn440 O443 1.933 . S
Zn440 O446 1.941 . S
Zn440 O447 1.965 . S
Zn441 O439 1.950 . S
Zn441 O448 1.938 . S
Zn441 O449 1.906 . S
Zn441 O459 1.953 1_655 S
Zn442 O439 1.945 . S
Zn442 O444 1.932 . S
Zn442 O451 1.977 . S
Zn442 O452 1.910 . S
O443 Zn440 1.933 . S
O443 C454 1.226 . S
O444 Zn442 1.932 . S
O444 C454 1.307 . S
O445 Zn438 1.919 . S
O445 C456 1.253 . S
O446 Zn440 1.941 . S
O446 C456 1.283 . S
O447 Zn440 1.965 . S
O447 C455 1.303 . S
O448 Zn441 1.938 . S
O448 C455 1.247 . S
O449 Zn441 1.906 . S
O449 C457 1.304 . S
O450 Zn438 1.924 . S
O450 C458 1.311 . S
O451 Zn442 1.977 . S
O451 C457 1.272 . S
O452 Zn442 1.910 . S
O452 C458 1.231 . S
C453 O437 1.225 . S
C453 O459 1.298 . S
C454 O443 1.226 . S
C454 O444 1.307 . S
C455 O447 1.303 . S
C455 O448 1.247 . S
C456 O445 1.253 . S
C456 O446 1.283 . S
C457 O449 1.304 . S
C457 O451 1.272 . S
C458 O450 1.311 . S
C458 O452 1.231 . S
O459 Zn441 1.953 1_455 S
O459 C453 1.298 . S
O460 Zn461 1.953 . S
O460 C476 1.225 . S
Zn461 O460 1.953 . S
Zn461 O462 1.949 . S
Zn461 O468 1.919 . S
Zn461 O473 1.924 . S
O462 Zn461 1.949 . S
O462 Zn463 1.923 . S
O462 Zn464 1.950 . S
O462 Zn465 1.945 . S
Zn463 O462 1.923 . S
Zn463 O466 1.933 . S
Zn463 O469 1.941 . S
Zn463 O470 1.965 . S
Zn464 O462 1.950 . S
Zn464 O471 1.938 . S
Zn464 O472 1.906 . S
Zn464 O482 1.953 . S
Zn465 O462 1.945 . S
Zn465 O467 1.932 . S
Zn465 O474 1.977 . S
Zn465 O475 1.910 . S
O466 Zn463 1.933 . S
O466 C477 1.226 . S
O467 Zn465 1.932 . S
O467 C477 1.307 . S
O468 Zn461 1.919 . S
O468 C479 1.253 . S
O469 Zn463 1.941 . S
O469 C479 1.283 . S
O470 Zn463 1.965 . S
O470 C478 1.303 . S
O471 Zn464 1.938 . S
O471 C478 1.247 . S
O472 Zn464 1.906 . S
O472 C480 1.304 . S
O473 Zn461 1.924 . S
O473 C481 1.311 . S
O474 Zn465 1.977 . S
O474 C480 1.272 . S
O475 Zn465 1.910 . S
O475 C481 1.231 . S
C476 O460 1.225 . S
C476 O482 1.298 . S
C477 O466 1.226 . S
C477 O467 1.307 . S
C478 O470 1.303 . S
C478 O471 1.247 . S
C479 O468 1.253 . S
C479 O469 1.283 . S
C480 O472 1.304 . S
C480 O474 1.272 . S
C481 O473 1.311 . S
C481 O475 1.231 . S
O482 Zn464 1.953 . S
O482 C476 1.298 . S
O483 Zn484 1.953 1_655 S
O483 C499 1.225 . S
Zn484 O483 1.953 1_455 S
Zn484 O485 1.949 . S
Zn484 O491 1.919 . S
Zn484 O496 1.924 . S
O485 Zn484 1.949 . S
O485 Zn486 1.923 . S
O485 Zn487 1.950 . S
O485 Zn488 1.945 . S
Zn486 O485 1.923 . S
Zn486 O489 1.933 . S
Zn486 O492 1.941 . S
Zn486 O493 1.965 . S
Zn487 O485 1.950 . S
Zn487 O494 1.938 . S
Zn487 O495 1.906 . S
Zn487 O505 1.953 1_455 S
Zn488 O485 1.945 . S
Zn488 O490 1.932 . S
Zn488 O497 1.977 . S
Zn488 O498 1.910 . S
O489 Zn486 1.933 . S
O489 C500 1.226 . S
O490 Zn488 1.932 . S
O490 C500 1.307 . S
O491 Zn484 1.919 . S
O491 C502 1.253 . S
O492 Zn486 1.941 . S
O492 C502 1.283 . S
O493 Zn486 1.965 . S
O493 C501 1.303 . S
O494 Zn487 1.938 . S
O494 C501 1.247 . S
O495 Zn487 1.906 . S
O495 C503 1.304 . S
O496 Zn484 1.924 . S
O496 C504 1.311 . S
O497 Zn488 1.977 . S
O497 C503 1.272 . S
O498 Zn488 1.910 . S
O498 C504 1.231 . S
C499 O483 1.225 . S
C499 O505 1.298 . S
C500 O489 1.226 . S
C500 O490 1.307 . S
C501 O493 1.303 . S
C501 O494 1.247 . S
C502 O491 1.253 . S
C502 O492 1.283 . S
C503 O495 1.304 . S
C503 O497 1.272 . S
C504 O496 1.311 . S
C504 O498 1.231 . S
O505 Zn487 1.953 1_655 S
O505 C499 1.298 . S
O506 Zn507 1.953 . S
O506 C522 1.225 . S
Zn507 O506 1.953 . S
Zn507 O508 1.949 . S
Zn507 O514 1.919 . S
Zn507 O519 1.924 . S
O508 Zn507 1.949 . S
O508 Zn509 1.923 . S
O508 Zn510 1.950 . S
O508 Zn511 1.945 . S
Zn509 O508 1.923 . S
Zn509 O512 1.933 . S
Zn509 O515 1.941 . S
Zn509 O516 1.965 . S
Zn510 O508 1.950 . S
Zn510 O517 1.938 . S
Zn510 O518 1.906 . S
Zn510 O528 1.953 . S
Zn511 O508 1.945 . S
Zn511 O513 1.932 . S
Zn511 O520 1.977 . S
Zn511 O521 1.910 . S
O512 Zn509 1.933 . S
O512 C523 1.226 . S
O513 Zn511 1.932 . S
O513 C523 1.307 . S
O514 Zn507 1.919 . S
O514 C525 1.253 . S
O515 Zn509 1.941 . S
O515 C525 1.283 . S
O516 Zn509 1.965 . S
O516 C524 1.303 . S
O517 Zn510 1.938 . S
O517 C524 1.247 . S
O518 Zn510 1.906 . S
O518 C526 1.304 . S
O519 Zn507 1.924 . S
O519 C527 1.311 . S
O520 Zn511 1.977 . S
O520 C526 1.272 . S
O521 Zn511 1.910 . S
O521 C527 1.231 . S
C522 O506 1.225 . S
C522 O528 1.298 . S
C523 O512 1.226 . S
C523 O513 1.307 . S
C524 O516 1.303 . S
C524 O517 1.247 . S
C525 O514 1.253 . S
C525 O515 1.283 . S
C526 O518 1.304 . S
C526 O520 1.272 . S
C527 O519 1.311 . S
C527 O521 1.231 . S
O528 Zn510 1.953 . S
O528 C522 1.298 . S
O529 Zn530 1.953 1_655 S
O529 C545 1.225 . S
Zn530 O529 1.953 1_455 S
Zn530 O531 1.949 . S
Zn530 O537 1.919 . S
Zn530 O542 1.924 . S
O531 Zn530 1.949 . S
O531 Zn532 1.923 . S
O531 Zn533 1.950 . S
O531 Zn534 1.945 . S
Zn532 O531 1.923 . S
Zn532 O535 1.933 . S
Zn532 O538 1.941 . S
Zn532 O539 1.965 . S
Zn533 O531 1.950 . S
Zn533 O540 1.938 . S
Zn533 O541 1.906 . S
Zn533 O551 1.953 1_455 S
Zn534 O531 1.945 . S
Zn534 O536 1.932 . S
Zn534 O543 1.977 . S
Zn534 O544 1.910 . S
O535 Zn532 1.933 . S
O535 C546 1.226 . S
O536 Zn534 1.932 . S
O536 C546 1.307 . S
O537 Zn530 1.919 . S
O537 C548 1.253 . S
O538 Zn532 1.941 . S
O538 C548 1.283 . S
O539 Zn532 1.965 . S
O539 C547 1.303 . S
O540 Zn533 1.938 . S
O540 C547 1.247 . S
O541 Zn533 1.906 . S
O541 C549 1.304 . S
O542 Zn530 1.924 . S
O542 C550 1.311 . S
O543 Zn534 1.977 . S
O543 C549 1.272 . S
O544 Zn534 1.910 . S
O544 C550 1.231 . S
C545 O529 1.225 . S
C545 O551 1.298 . S
C546 O535 1.226 . S
C546 O536 1.307 . S
C547 O539 1.303 . S
C547 O540 1.247 . S
C548 O537 1.253 . S
C548 O538 1.283 . S
C549 O541 1.304 . S
C549 O543 1.272 . S
C550 O542 1.311 . S
C550 O544 1.231 . S
O551 Zn533 1.953 1_655 S
O551 C545 1.298 . S
O552 Zn553 1.953 . S
O552 C568 1.225 . S
Zn553 O552 1.953 . S
Zn553 O554 1.949 1_545 S
Zn553 O560 1.919 . S
Zn553 O565 1.924 . S
O554 Zn553 1.949 1_565 S
O554 Zn555 1.923 . S
O554 Zn556 1.950 . S
O554 Zn557 1.945 1_565 S
Zn555 O554 1.923 . S
Zn555 O558 1.933 . S
Zn555 O561 1.941 . S
Zn555 O562 1.965 . S
Zn556 O554 1.950 . S
Zn556 O563 1.938 . S
Zn556 O564 1.906 . S
Zn556 O574 1.953 . S
Zn557 O554 1.945 1_545 S
Zn557 O559 1.932 . S
Zn557 O566 1.977 . S
Zn557 O567 1.910 . S
O558 Zn555 1.933 . S
O558 C569 1.226 . S
O559 Zn557 1.932 . S
O559 C569 1.307 1_545 S
O560 Zn553 1.919 . S
O560 C571 1.253 1_545 S
O561 Zn555 1.941 . S
O561 C571 1.283 . S
O562 Zn555 1.965 . S
O562 C570 1.303 . S
O563 Zn556 1.938 . S
O563 C570 1.247 . S
O564 Zn556 1.906 . S
O564 C572 1.296 1_565 S
O565 Zn553 1.924 . S
O565 C573 1.311 . S
O566 Zn557 1.977 . S
O566 C572 1.283 . S
O567 Zn557 1.910 . S
O567 C573 1.231 . S
C568 O552 1.225 . S
C568 O574 1.298 1_545 S
C569 O558 1.226 . S
C569 O559 1.307 1_565 S
C570 O562 1.303 . S
C570 O563 1.247 . S
C571 O560 1.253 1_565 S
C571 O561 1.283 . S
C572 O564 1.296 1_545 S
C572 O566 1.283 . S
C573 O565 1.311 . S
C573 O567 1.231 . S
O574 Zn556 1.953 . S
O574 C568 1.298 1_565 S
O575 Zn576 1.953 1_455 S
O575 C591 1.225 . S
Zn576 O575 1.953 1_655 S
Zn576 O577 1.949 . S
Zn576 O583 1.919 . S
Zn576 O588 1.924 . S
O577 Zn576 1.949 . S
O577 Zn578 1.923 . S
O577 Zn579 1.950 . S
O577 Zn580 1.945 . S
Zn578 O577 1.923 . S
Zn578 O581 1.933 . S
Zn578 O584 1.941 . S
Zn578 O585 1.965 . S
Zn579 O577 1.950 . S
Zn579 O586 1.938 . S
Zn579 O587 1.906 . S
Zn579 O597 1.953 1_655 S
Zn580 O577 1.945 . S
Zn580 O582 1.932 . S
Zn580 O589 1.977 . S
Zn580 O590 1.910 . S
O581 Zn578 1.933 . S
O581 C592 1.226 . S
O582 Zn580 1.932 . S
O582 C592 1.307 . S
O583 Zn576 1.919 . S
O583 C594 1.253 . S
O584 Zn578 1.941 . S
O584 C594 1.283 . S
O585 Zn578 1.965 . S
O585 C593 1.303 . S
O586 Zn579 1.938 . S
O586 C593 1.247 . S
O587 Zn579 1.906 . S
O587 C595 1.304 . S
O588 Zn576 1.924 . S
O588 C596 1.311 . S
O589 Zn580 1.977 . S
O589 C595 1.272 . S
O590 Zn580 1.910 . S
O590 C596 1.231 . S
C591 O575 1.225 . S
C591 O597 1.298 . S
C592 O581 1.226 . S
C592 O582 1.307 . S
C593 O585 1.303 . S
C593 O586 1.247 . S
C594 O583 1.253 . S
C594 O584 1.283 . S
C595 O587 1.304 . S
C595 O589 1.272 . S
C596 O588 1.311 . S
C596 O590 1.231 . S
O597 Zn579 1.953 1_455 S
O597 C591 1.298 . S
O598 Zn599 1.953 . S
O598 C614 1.225 . S
Zn599 O598 1.953 . S
Zn599 O600 1.949 . S
Zn599 O606 1.919 . S
Zn599 O611 1.924 . S
O600 Zn599 1.949 . S
O600 Zn601 1.923 . S
O600 Zn602 1.950 . S
O600 Zn603 1.945 . S
Zn601 O600 1.923 . S
Zn601 O604 1.933 . S
Zn601 O607 1.941 . S
Zn601 O608 1.965 . S
Zn602 O600 1.950 . S
Zn602 O609 1.938 . S
Zn602 O610 1.906 . S
Zn602 O620 1.953 . S
Zn603 O600 1.945 . S
Zn603 O605 1.932 . S
Zn603 O612 1.977 . S
Zn603 O613 1.910 . S
O604 Zn601 1.933 . S
O604 C615 1.226 . S
O605 Zn603 1.932 . S
O605 C615 1.307 . S
O606 Zn599 1.919 . S
O606 C617 1.253 . S
O607 Zn601 1.941 . S
O607 C617 1.283 . S
O608 Zn601 1.965 . S
O608 C616 1.303 . S
O609 Zn602 1.938 . S
O609 C616 1.247 . S
O610 Zn602 1.906 . S
O610 C618 1.304 . S
O611 Zn599 1.924 . S
O611 C619 1.311 . S
O612 Zn603 1.977 . S
O612 C618 1.272 . S
O613 Zn603 1.910 . S
O613 C619 1.231 . S
C614 O598 1.225 . S
C614 O620 1.298 . S
C615 O604 1.226 . S
C615 O605 1.307 . S
C616 O608 1.303 . S
C616 O609 1.247 . S
C617 O606 1.253 . S
C617 O607 1.283 . S
C618 O610 1.304 . S
C618 O612 1.272 . S
C619 O611 1.311 . S
C619 O613 1.231 . S
O620 Zn602 1.953 . S
O620 C614 1.298 . S
O621 Zn622 1.953 1_455 S
O621 C637 1.225 . S
Zn622 O621 1.953 1_655 S
Zn622 O623 1.949 1_545 S
Zn622 O629 1.919 . S
Zn622 O634 1.924 . S
O623 Zn622 1.949 1_565 S
O623 Zn624 1.923 . S
O623 Zn625 1.950 . S
O623 Zn626 1.945 1_565 S
Zn624 O623 1.923 . S
Zn624 O627 1.933 . S
Zn624 O630 1.941 . S
Zn624 O631 1.965 . S
Zn625 O623 1.950 . S
Zn625 O632 1.938 . S
Zn625 O633 1.906 . S
Zn625 O643 1.953 1_655 S
Zn626 O623 1.945 1_545 S
Zn626 O628 1.932 . S
Zn626 O635 1.977 . S
Zn626 O636 1.910 . S
O627 Zn624 1.933 . S
O627 C638 1.226 . S
O628 Zn626 1.932 . S
O628 C638 1.307 1_545 S
O629 Zn622 1.919 . S
O629 C640 1.253 1_545 S
O630 Zn624 1.941 . S
O630 C640 1.283 . S
O631 Zn624 1.965 . S
O631 C639 1.303 . S
O632 Zn625 1.938 . S
O632 C639 1.247 . S
O633 Zn625 1.906 . S
O633 C641 1.296 1_565 S
O634 Zn622 1.924 . S
O634 C642 1.311 . S
O635 Zn626 1.977 . S
O635 C641 1.282 . S
O636 Zn626 1.910 . S
O636 C642 1.231 . S
C637 O621 1.225 . S
C637 O643 1.298 1_545 S
C638 O627 1.226 . S
C638 O628 1.307 1_565 S
C639 O631 1.303 . S
C639 O632 1.247 . S
C640 O629 1.253 1_565 S
C640 O630 1.283 . S
C641 O633 1.296 1_545 S
C641 O635 1.282 . S
C642 O634 1.311 . S
C642 O636 1.231 . S
O643 Zn625 1.953 1_455 S
O643 C637 1.298 1_565 S
O644 Zn645 1.953 . S
O644 C660 1.225 . S
Zn645 O644 1.953 . S
Zn645 O646 1.949 1_565 S
Zn645 O652 1.919 . S
Zn645 O657 1.924 . S
O646 Zn645 1.949 1_545 S
O646 Zn647 1.923 . S
O646 Zn648 1.950 . S
O646 Zn649 1.945 1_545 S
Zn647 O646 1.923 . S
Zn647 O650 1.933 . S
Zn647 O653 1.941 . S
Zn647 O654 1.965 . S
Zn648 O646 1.950 . S
Zn648 O655 1.938 . S
Zn648 O656 1.906 . S
Zn648 O666 1.953 . S
Zn649 O646 1.945 1_565 S
Zn649 O651 1.932 . S
Zn649 O658 1.977 . S
Zn649 O659 1.910 . S
O650 Zn647 1.933 . S
O650 C661 1.226 . S
O651 Zn649 1.932 . S
O651 C661 1.307 1_565 S
O652 Zn645 1.919 . S
O652 C663 1.253 1_565 S
O653 Zn647 1.941 . S
O653 C663 1.283 . S
O654 Zn647 1.965 . S
O654 C662 1.303 . S
O655 Zn648 1.938 . S
O655 C662 1.247 . S
O656 Zn648 1.906 . S
O656 C664 1.304 . S
O657 Zn645 1.924 . S
O657 C665 1.311 . S
O658 Zn649 1.977 . S
O658 C664 1.272 1_565 S
O659 Zn649 1.910 . S
O659 C665 1.231 . S
C660 O644 1.225 . S
C660 O666 1.298 1_565 S
C661 O650 1.226 . S
C661 O651 1.307 1_545 S
C662 O654 1.303 . S
C662 O655 1.247 . S
C663 O652 1.253 1_545 S
C663 O653 1.283 . S
C664 O656 1.304 . S
C664 O658 1.272 1_545 S
C665 O657 1.311 . S
C665 O659 1.231 . S
O666 Zn648 1.953 . S
O666 C660 1.298 1_545 S
O667 Zn668 1.953 1_655 S
O667 C683 1.225 . S
Zn668 O667 1.953 1_455 S
Zn668 O669 1.949 . S
Zn668 O675 1.919 . S
Zn668 O680 1.924 . S
O669 Zn668 1.949 . S
O669 Zn670 1.923 . S
O669 Zn671 1.950 . S
O669 Zn672 1.945 . S
Zn670 O669 1.923 . S
Zn670 O673 1.933 . S
Zn670 O676 1.941 . S
Zn670 O677 1.965 . S
Zn671 O669 1.950 . S
Zn671 O678 1.938 . S
Zn671 O679 1.906 . S
Zn671 O689 1.953 1_455 S
Zn672 O669 1.945 . S
Zn672 O674 1.932 . S
Zn672 O681 1.977 . S
Zn672 O682 1.910 . S
O673 Zn670 1.933 . S
O673 C684 1.226 . S
O674 Zn672 1.932 . S
O674 C684 1.307 . S
O675 Zn668 1.919 . S
O675 C686 1.253 . S
O676 Zn670 1.941 . S
O676 C686 1.283 . S
O677 Zn670 1.965 . S
O677 C685 1.303 . S
O678 Zn671 1.938 . S
O678 C685 1.247 . S
O679 Zn671 1.906 . S
O679 C687 1.304 . S
O680 Zn668 1.924 . S
O680 C688 1.311 . S
O681 Zn672 1.977 . S
O681 C687 1.272 . S
O682 Zn672 1.910 . S
O682 C688 1.231 . S
C683 O667 1.225 . S
C683 O689 1.298 . S
C684 O673 1.226 . S
C684 O674 1.307 . S
C685 O677 1.303 . S
C685 O678 1.247 . S
C686 O675 1.253 . S
C686 O676 1.283 . S
C687 O679 1.304 . S
C687 O681 1.272 . S
C688 O680 1.311 . S
C688 O682 1.231 . S
O689 Zn671 1.953 1_655 S
O689 C683 1.298 . S
O690 Zn691 1.953 . S
O690 C706 1.225 . S
Zn691 O690 1.953 . S
Zn691 O692 1.949 . S
Zn691 O698 1.919 . S
Zn691 O703 1.924 . S
O692 Zn691 1.949 . S
O692 Zn693 1.923 . S
O692 Zn694 1.950 . S
O692 Zn695 1.945 . S
Zn693 O692 1.923 . S
Zn693 O696 1.933 . S
Zn693 O699 1.941 . S
Zn693 O700 1.965 . S
Zn694 O692 1.950 . S
Zn694 O701 1.938 . S
Zn694 O702 1.906 . S
Zn694 O712 1.953 . S
Zn695 O692 1.945 . S
Zn695 O697 1.932 . S
Zn695 O704 1.977 . S
Zn695 O705 1.910 . S
O696 Zn693 1.933 . S
O696 C707 1.226 . S
O697 Zn695 1.932 . S
O697 C707 1.307 . S
O698 Zn691 1.919 . S
O698 C709 1.253 . S
O699 Zn693 1.941 . S
O699 C709 1.283 . S
O700 Zn693 1.965 . S
O700 C708 1.303 . S
O701 Zn694 1.938 . S
O701 C708 1.247 . S
O702 Zn694 1.906 . S
O702 C710 1.304 . S
O703 Zn691 1.924 . S
O703 C711 1.311 . S
O704 Zn695 1.977 . S
O704 C710 1.272 . S
O705 Zn695 1.910 . S
O705 C711 1.231 . S
C706 O690 1.225 . S
C706 O712 1.298 . S
C707 O696 1.226 . S
C707 O697 1.307 . S
C708 O700 1.303 . S
C708 O701 1.247 . S
C709 O698 1.253 . S
C709 O699 1.283 . S
C710 O702 1.304 . S
C710 O704 1.272 . S
C711 O703 1.311 . S
C711 O705 1.231 . S
O712 Zn694 1.953 . S
O712 C706 1.298 . S
O713 Zn714 1.953 1_655 S
O713 C729 1.225 . S
Zn714 O713 1.953 1_455 S
Zn714 O715 1.949 1_565 S
Zn714 O721 1.919 . S
Zn714 O726 1.924 . S
O715 Zn714 1.949 1_545 S
O715 Zn716 1.923 . S
O715 Zn717 1.950 . S
O715 Zn718 1.945 1_545 S
Zn716 O715 1.923 . S
Zn716 O719 1.933 . S
Zn716 O722 1.941 . S
Zn716 O723 1.965 . S
Zn717 O715 1.950 . S
Zn717 O724 1.938 . S
Zn717 O725 1.906 . S
Zn717 O735 1.953 1_455 S
Zn718 O715 1.945 1_565 S
Zn718 O720 1.932 . S
Zn718 O727 1.977 . S
Zn718 O728 1.910 . S
O719 Zn716 1.933 . S
O719 C730 1.226 . S
O720 Zn718 1.932 . S
O720 C730 1.307 1_565 S
O721 Zn714 1.919 . S
O721 C732 1.253 1_565 S
O722 Zn716 1.941 . S
O722 C732 1.283 . S
O723 Zn716 1.965 . S
O723 C731 1.303 . S
O724 Zn717 1.938 . S
O724 C731 1.247 . S
O725 Zn717 1.906 . S
O725 C733 1.304 . S
O726 Zn714 1.924 . S
O726 C734 1.311 . S
O727 Zn718 1.977 . S
O727 C733 1.272 1_565 S
O728 Zn718 1.910 . S
O728 C734 1.231 . S
C729 O713 1.225 . S
C729 O735 1.298 1_565 S
C730 O719 1.226 . S
C730 O720 1.307 1_545 S
C731 O723 1.303 . S
C731 O724 1.247 . S
C732 O721 1.253 1_545 S
C732 O722 1.283 . S
C733 O725 1.304 . S
C733 O727 1.272 1_545 S
C734 O726 1.311 . S
C734 O728 1.231 . S
O735 Zn717 1.953 1_655 S
O735 C729 1.298 1_545 S
C18 C593 1.424 . S
C570 C41 1.424 . S
C639 C64 1.424 . S
C87 C616 1.424 . S
C110 C685 1.421 . S
C133 C662 1.421 . S
C156 C731 1.421 . S
C708 C179 1.421 . S
C202 C409 1.424 . S
C225 C386 1.424 . S
C248 C455 1.424 . S
C432 C271 1.424 . S
C294 C501 1.420 . S
C317 C478 1.421 . S
C547 C340 1.421 . S
C363 C524 1.421 . S
C19 C88 1.362 . S
C42 C65 1.362 . S
C181 C112 1.368 . S
C158 C135 1.368 . S
C203 C272 1.362 . S
C226 C249 1.362 . S
C296 C365 1.368 . S
C342 C319 1.368 . S
C387 C456 1.362 . S
C410 C433 1.362 . S
C549 C480 1.368 . S
C503 C526 1.368 . S
C640 C571 1.362 . S
C594 C617 1.362 . S
C733 C664 1.368 . S
C710 C687 1.368 . S
C44 C21 1.858 . S
C67 C90 1.858 . S
C136 C113 1.892 . S
C182 C159 1.892 . S
C205 C228 1.858 . S
C251 C274 1.858 . S
C320 C297 1.892 . S
C343 C366 1.892 . S
C389 C412 1.858 . S
C458 C435 1.858 . S
C481 C504 1.892 . S
C527 C550 1.892 . S
C573 C596 1.858 . S
C619 C642 1.859 . S
C688 C665 1.892 . S
C711 C734 1.892 . S
C16 C17 1.598 . S
C39 C40 1.598 . S
C62 C63 1.598 . S
C86 C85 1.599 . S
C109 C108 1.571 . S
C131 C132 1.571 . S
C155 C154 1.571 . S
C178 C177 1.571 . S
C201 C200 1.598 1_565 S
C223 C224 1.598 . S
C246 C247 1.598 . S
C270 C269 1.599 1_565 S
C293 C292 1.571 1_545 S
C315 C316 1.571 . S
C338 C339 1.571 . S
C362 C361 1.571 1_545 S
C384 C385 1.598 1_455 S
C408 C407 1.599 . S
C431 C430 1.599 1_655 S
C453 C454 1.599 . S
C476 C477 1.571 1_655 S
C499 C500 1.571 . S
C523 C522 1.571 1_455 S
C545 C546 1.571 . S
C569 C568 1.598 1_665 S
C591 C592 1.599 . S
C615 C614 1.599 1_655 S
C638 C637 1.599 1_565 S
C660 C661 1.571 1_665 S
C683 C684 1.571 . S
C707 C706 1.571 1_455 S
C730 C729 1.571 1_545 S
C20 C111 1.688 1_454 S
C686 C43 1.689 1_556 S
C341 C66 1.688 1_655 S
C89 C548 1.688 . S
C134 C595 1.689 1_556 S
C157 C250 1.688 1_655 S
C180 C457 1.689 . S
C204 C295 1.691 1_455 S
C502 C227 1.689 . S
C732 C273 1.692 . S
C318 C411 1.689 . S
C641 C364 1.692 . S
C388 C479 1.688 . S
C709 C434 1.688 . S
C525 C618 1.688 . S
C572 C663 1.691 1_554 S
