# Generated by pormake.
# Topology msp, (4)-cn, num edge types: 1
# Building blocks:
#     Node 0, Type 0, BuildingBlock: ESEHIV_clean_sbu_0, # of connection points: 4
#     Node 1, Type 0, BuildingBlock: ESEHIV_clean_sbu_0, # of connection points: 4
#     Node 2, Type 0, BuildingBlock: ESEHIV_clean_sbu_0, # of connection points: 4
#     Node 3, Type 0, BuildingBlock: ESEHIV_clean_sbu_0, # of connection points: 4
#     Node 4, Type 0, BuildingBlock: ESEHIV_clean_sbu_0, # of connection points: 4
#     Node 5, Type 0, BuildingBlock: ESEHIV_clean_sbu_0, # of connection points: 4
#     Node 6, Type 0, BuildingBlock: ESEHIV_clean_sbu_0, # of connection points: 4
#     Node 7, Type 0, BuildingBlock: ESEHIV_clean_sbu_0, # of connection points: 4
#     Edge 8, Type (0, 0), BuildingBlock: AJUNOK_clean_linker_0, # of connection points: 2
#     Edge 9, Type (0, 0), BuildingBlock: AJUNOK_clean_linker_0, # of connection points: 2
#     Edge 10, Type (0, 0), BuildingBlock: AJUNOK_clean_linker_0, # of connection points: 2
#     Edge 11, Type (0, 0), BuildingBlock: AJUNOK_clean_linker_0, # of connection points: 2
#     Edge 12, Type (0, 0), BuildingBlock: AJUNOK_clean_linker_0, # of connection points: 2
#     Edge 13, Type (0, 0), BuildingBlock: AJUNOK_clean_linker_0, # of connection points: 2
#     Edge 14, Type (0, 0), BuildingBlock: AJUNOK_clean_linker_0, # of connection points: 2
#     Edge 15, Type (0, 0), BuildingBlock: AJUNOK_clean_linker_0, # of connection points: 2
#     Edge 16, Type (0, 0), BuildingBlock: AJUNOK_clean_linker_0, # of connection points: 2
#     Edge 17, Type (0, 0), BuildingBlock: AJUNOK_clean_linker_0, # of connection points: 2
#     Edge 18, Type (0, 0), BuildingBlock: AJUNOK_clean_linker_0, # of connection points: 2
#     Edge 19, Type (0, 0), BuildingBlock: AJUNOK_clean_linker_0, # of connection points: 2
#     Edge 20, Type (0, 0), BuildingBlock: AJUNOK_clean_linker_0, # of connection points: 2
#     Edge 21, Type (0, 0), BuildingBlock: AJUNOK_clean_linker_0, # of connection points: 2
#     Edge 22, Type (0, 0), BuildingBlock: AJUNOK_clean_linker_0, # of connection points: 2
#     Edge 23, Type (0, 0), BuildingBlock: AJUNOK_clean_linker_0, # of connection points: 2
# Relax obj value: 0.062
# Max RMSD: 0.182
# Mean RMSD: 0.158
data_MOF--net-msp--node1-ESEHIV_clean_sbu_0--edge1-AJUNOK_clean_linker_0
_symmetry_space_group_name_H-M    P1
_symmetry_Int_Tables_number       1
_symmetry_cell_setting            triclinic
loop_
_symmetry_equiv_pos_as_xyz
'x, y, z'
_cell_length_a     17.007584
_cell_length_b     17.289325
_cell_length_c     36.583515
_cell_angle_alpha  90.134837
_cell_angle_beta   98.928095
_cell_angle_gamma 89.295903
loop_
_atom_site_label
_atom_site_type_symbol
_atom_site_fract_x
_atom_site_fract_y
_atom_site_fract_z
_atom_type_partial_charge
Cu0 Cu 0.96073 0.26625 0.4033 0.0
N1 N 1.01844 0.19329 0.43495 0.0
N2 N 0.11167 0.14735 0.47997 0.0
C3 C 0.07727 0.21084 0.46268 0.0
C4 C 0.07198 0.08699 0.4627 0.0
C5 C 1.01448 0.11559 0.43488 0.0
O6 O 0.94138 0.3541 0.43414 0.0
C7 C 0.08834 0.27153 0.36083 0.0
O8 O 0.13441 0.25497 0.39211 0.0
H9 H 0.09655 0.26921 0.46926 0.0
H10 H 0.97327 0.08214 0.41577 0.0
N11 N 0.85903 0.23167 0.38407 0.0
N12 N 0.74668 0.22108 0.34276 0.0
C13 C 0.82755 0.22366 0.34808 0.0
C14 C 0.79677 0.2339 0.40244 0.0
C15 C 0.72802 0.22789 0.37738 0.0
C16 C 0.98991 0.40292 0.45058 0.0
O17 O 0.06233 0.40607 0.44239 0.0
H18 H 0.86358 0.22479 0.32626 0.0
H19 H 0.80075 0.24622 0.43167 0.0
O20 O 1.01482 0.28588 0.36107 0.0
H21 H 0.08304 0.02667 0.46972 0.0
H22 H 0.66948 0.2348 0.3848 0.0
Cu23 Cu 0.54313 0.30821 0.65385 0.0
N24 N 0.48478 0.22638 0.63005 0.0
N25 N 0.38808 0.16759 0.59188 0.0
C26 C 0.42382 0.23521 0.60207 0.0
C27 C 0.42856 0.11368 0.61419 0.0
C28 C 0.48821 0.15023 0.63781 0.0
O29 O 0.54942 0.38402 0.61502 0.0
C30 C 0.41379 0.34455 0.69278 0.0
O31 O 0.36853 0.33554 0.66061 0.0
H32 H 0.40481 0.29075 0.58997 0.0
H33 H 0.52951 0.12358 0.65978 0.0
N34 N 0.64524 0.27543 0.6756 0.0
N35 N 0.75648 0.26256 0.71691 0.0
C36 C 0.68684 0.30142 0.70765 0.0
C37 C 0.6905 0.21885 0.66403 0.0
C38 C 0.75913 0.21075 0.68945 0.0
C39 C 0.60753 0.42899 0.61358 0.0
O40 O 0.66522 0.43248 0.6419 0.0
H41 H 0.6656 0.34661 0.72433 0.0
H42 H 0.67422 0.18522 0.63909 0.0
O43 O 0.48912 0.3428 0.6943 0.0
H44 H 0.41404 0.05293 0.6145 0.0
H45 H 0.80737 0.1701 0.6878 0.0
Cu46 Cu 0.9343 0.70142 0.66757 0.0
N47 N 0.85155 0.70048 0.69612 0.0
N48 N 0.77259 0.73009 0.73778 0.0
C49 C 0.84013 0.74731 0.7245 0.0
C50 C 0.74122 0.66957 0.71754 0.0
C51 C 0.78997 0.65145 0.69205 0.0
O52 O 0.03533 0.69869 0.70058 0.0
C53 C 0.85223 0.81492 0.6198 0.0
O54 O 0.79393 0.80228 0.63864 0.0
H55 H 0.88008 0.79311 0.73514 0.0
H56 H 0.78173 0.60469 0.67238 0.0
N57 N 0.93167 0.61173 0.63878 0.0
N58 N 0.93524 0.53481 0.58989 0.0
C59 C 0.94374 0.60754 0.60323 0.0
C60 C 0.91696 0.53888 0.64845 0.0
C61 C 0.91863 0.49135 0.61825 0.0
C62 C 0.06377 0.75305 0.72185 0.0
O63 O 1.02676 0.82041 0.71986 0.0
H64 H 0.95684 0.65703 0.58722 0.0
H65 H 0.90559 0.52162 0.67552 0.0
O66 O 0.92065 0.78542 0.63142 0.0
H67 H 0.68815 0.639 0.72172 0.0
H68 H 0.90947 0.42948 0.61734 0.0
Cu69 Cu 0.67956 0.74463 0.40646 0.0
N70 N 0.76223 0.74076 0.3781 0.0
N71 N 0.83805 0.76679 0.33497 0.0
C72 C 0.77143 0.78576 0.34902 0.0
C73 C 0.87208 0.7079 0.35614 0.0
C74 C 0.82505 0.69174 0.38256 0.0
O75 O 0.57988 0.75947 0.37298 0.0
C76 C 0.77264 0.83353 0.46147 0.0
O77 O 0.83025 0.81327 0.44323 0.0
H78 H 0.73077 0.83204 0.3387 0.0
H79 H 0.83593 0.64749 0.40365 0.0
N80 N 0.67224 0.64975 0.42996 0.0
N81 N 0.65375 0.56581 0.47419 0.0
C82 C 0.65807 0.64101 0.46491 0.0
C83 C 0.67644 0.57763 0.41643 0.0
C84 C 0.66492 0.52564 0.44369 0.0
C85 C 0.55663 0.81993 0.35441 0.0
O86 O 0.59815 0.88354 0.36023 0.0
H87 H 0.64917 0.68915 0.48284 0.0
H88 H 0.68672 0.56393 0.38868 0.0
O89 O 0.70109 0.81863 0.4472 0.0
H90 H 0.92644 0.67781 0.35237 0.0
H91 H 0.66541 0.4632 0.44139 0.0
Cu92 Cu 0.51959 0.76949 0.90956 0.0
N93 N 0.58621 0.70009 0.93916 0.0
N94 N 0.67921 0.65905 0.98526 0.0
C95 C 0.63502 0.71965 0.97023 0.0
C96 C 0.65762 0.59883 0.96248 0.0
C97 C 0.59996 0.62431 0.93407 0.0
O98 O 0.48167 0.84393 0.94284 0.0
C99 C 0.64907 0.80515 0.87107 0.0
O100 O 0.69558 0.78554 0.90181 0.0
H101 H 0.64086 0.7783 0.98047 0.0
H102 H 0.57149 0.59049 0.91095 0.0
N103 N 0.43049 0.71974 0.88449 0.0
N104 N 0.32392 0.69891 0.84176 0.0
C105 C 0.38455 0.74678 0.85377 0.0
C106 C 0.39753 0.65273 0.89247 0.0
C107 C 0.33166 0.63966 0.86609 0.0
C108 C 0.52075 0.89933 0.95946 0.0
O109 O 0.58989 0.91765 0.95033 0.0
H110 H 0.3955 0.8006 0.84045 0.0
H111 H 0.41916 0.61653 0.91606 0.0
O112 O 0.57432 0.81063 0.871 0.0
H113 H 0.68249 0.54088 0.9658 0.0
H114 H 0.29135 0.59156 0.86552 0.0
Cu115 Cu 0.09534 0.82895 0.16548 0.0
N116 N 0.03848 0.74763 0.14049 0.0
N117 N 0.9442 0.68803 0.10164 0.0
C118 C 0.97626 0.75641 0.11317 0.0
C119 C 0.98849 0.63371 0.12199 0.0
C120 C 0.04637 0.6708 0.14628 0.0
O121 O 0.10432 0.90882 0.12867 0.0
C122 C 0.96513 0.85967 0.20463 0.0
O123 O 0.92033 0.85414 0.17214 0.0
H124 H 0.95434 0.81207 0.10221 0.0
H125 H 0.09 0.64374 0.16713 0.0
N126 N 0.19711 0.79576 0.18698 0.0
N127 N 0.30897 0.78497 0.2278 0.0
C128 C 0.24046 0.82513 0.21776 0.0
C129 C 0.23984 0.73522 0.17718 0.0
C130 C 0.30868 0.72819 0.20244 0.0
C131 C 0.13874 0.88663 0.10179 0.0
O132 O 0.16737 0.81564 0.10248 0.0
H133 H 0.22071 0.87312 0.23325 0.0
H134 H 0.22155 0.69786 0.15374 0.0
O135 O 0.04051 0.85896 0.20637 0.0
H136 H 0.97816 0.57206 0.12015 0.0
H137 H 0.35472 0.68441 0.20239 0.0
Cu138 Cu 0.37886 0.20504 0.15934 0.0
N139 N 0.29461 0.18449 0.18466 0.0
N140 N 0.21289 0.19506 0.22667 0.0
C141 C 0.28143 0.21863 0.21629 0.0
C142 C 0.18215 0.14341 0.20074 0.0
C143 C 0.23277 0.13713 0.17477 0.0
O144 O 0.46462 0.23975 0.19734 0.0
C145 C 0.37634 0.30903 0.09761 0.0
O146 O 0.45414 0.30056 0.10258 0.0
H147 H 0.32052 0.26116 0.23102 0.0
H148 H 0.22497 0.10103 0.15032 0.0
N149 N 0.40807 0.11407 0.13694 0.0
N150 N 0.43724 0.03017 0.09431 0.0
C151 C 0.41978 0.10444 0.10158 0.0
C152 C 0.4189 0.04363 0.15259 0.0
C153 C 0.43707 0.99173 0.12637 0.0
C154 C 0.53737 0.21857 0.20043 0.0
O155 O 0.56268 0.18145 0.17305 0.0
H156 H 0.4142 0.15045 0.08133 0.0
H157 H 0.41368 0.03103 0.18106 0.0
O158 O 0.33726 0.27812 0.12056 0.0
H159 H 0.12765 0.11176 0.20079 0.0
H160 H 0.45022 0.93073 0.13072 0.0
Cu161 Cu 0.13243 0.24317 0.89782 0.0
N162 N 0.21585 0.2431 0.86995 0.0
N163 N 0.29114 0.26913 0.82658 0.0
C164 C 0.222 0.28435 0.83928 0.0
C165 C 0.32981 0.21665 0.85034 0.0
C166 C 0.28323 0.20061 0.87693 0.0
O167 O 1.03159 0.2512 0.86404 0.0
C168 C 0.21814 0.35046 0.94734 0.0
O169 O 0.26453 0.35635 0.92199 0.0
H170 H 0.17736 0.32544 0.82692 0.0
H171 H 0.29729 0.16062 0.89977 0.0
N172 N 0.13145 0.14709 0.92095 0.0
N173 N 0.13282 0.05713 0.96499 0.0
C174 C 0.14391 0.1325 0.95764 0.0
C175 C 0.11231 0.07889 0.90449 0.0
C176 C 0.11339 0.02333 0.93151 0.0
C177 C 1.00463 0.30738 0.84314 0.0
O178 O 0.04171 0.37382 0.84649 0.0
H179 H 0.16107 0.17628 0.97839 0.0
H180 H 0.09708 0.07061 0.87493 0.0
O181 O 0.15168 0.3163 0.93898 0.0
H182 H 0.3871 0.19052 0.84822 0.0
H183 H 0.09894 0.96294 0.92686 0.0
C184 C 1.02207 0.49863 0.50269 0.0
C185 C 0.96912 0.44469 0.48363 0.0
C186 C 1.00904 0.53042 0.53671 0.0
C187 C 0.94345 0.50838 0.55327 0.0
H188 H 0.07524 0.51485 0.49181 0.0
H189 H 0.05232 0.56994 0.55097 0.0
S190 S 0.78278 0.37594 0.51379 0.0
N191 N 0.84418 0.37633 0.48302 0.0
N192 N 0.82185 0.43477 0.54712 0.0
C193 C 0.88839 0.4574 0.53397 0.0
C194 C 0.9006 0.42602 0.49912 0.0
C195 C 0.59234 0.46896 0.51037 0.0
C196 C 0.63975 0.53476 0.5092 0.0
C197 C 0.57985 0.43681 0.54422 0.0
C198 C 0.61525 0.46859 0.57826 0.0
H199 H 0.56482 0.44206 0.48489 0.0
H200 H 0.544 0.38534 0.54365 0.0
S201 S 0.74197 0.64239 0.59017 0.0
N202 N 0.72076 0.63144 0.54496 0.0
N203 N 0.69693 0.57144 0.60841 0.0
C204 C 0.66161 0.53508 0.57737 0.0
C205 C 0.67382 0.56813 0.54294 0.0
C206 C 0.5024 0.03905 0.03854 0.0
C207 C 0.45376 -0.00115 0.05968 0.0
C208 C 0.52279 0.00726 1.0058 0.0
C209 C 0.49383 0.93484 0.99257 0.0
H210 H 0.52675 0.09445 0.04801 0.0
H211 H 0.56201 0.03942 0.99093 0.0
S212 S 0.36104 0.80829 0.0371 0.0
N213 N 0.37485 0.88445 0.06452 0.0
N214 N 0.41212 0.82474 1.00312 0.0
C215 C 0.44317 0.89518 1.01304 0.0
C216 C 0.42348 0.92711 0.04656 0.0
C217 C 0.16534 0.9005 0.03695 0.0
C218 C 0.14103 0.93511 0.06834 0.0
C219 C 0.16452 0.94143 1.00396 0.0
C220 C 0.13904 0.01905 1.00054 0.0
H221 H 0.18373 0.84031 0.03741 0.0
H222 H 0.18349 0.91159 0.98072 0.0
S223 S 0.07217 0.13849 0.0748 0.0
N224 N 0.0934 0.05314 0.0943 0.0
N225 N 0.09064 0.13013 1.03194 0.0
C226 C 0.11639 0.05547 1.03193 0.0
C227 C 0.11736 0.01347 0.0658 0.0
C228 C 0.67195 0.23189 0.23936 0.0
C229 C 0.58934 0.22337 0.23701 0.0
C230 C 0.72233 0.23165 0.27371 0.0
C231 C 0.69283 0.2207 0.30745 0.0
H232 H 0.69798 0.23934 0.2144 0.0
H233 H 0.78494 0.24028 0.27334 0.0
S234 S 0.47953 0.18845 0.31534 0.0
N235 N 0.47961 0.20135 0.27072 0.0
N236 N 0.5733 0.19544 0.33476 0.0
C237 C 0.60968 0.21003 0.30504 0.0
C238 C 0.55837 0.21274 0.27007 0.0
C239 C 0.83994 0.34757 0.76137 0.0
C240 C 0.81514 0.27304 0.74957 0.0
C241 C 0.90015 0.35834 0.79197 0.0
C242 C 0.93688 0.295 0.81243 0.0
H243 H 0.81411 0.39777 0.74617 0.0
H244 H 0.91849 0.41681 0.79939 0.0
S245 S 0.8881 0.08791 0.79415 0.0
N246 N 0.82858 0.13527 0.76158 0.0
N247 N 0.94045 0.15465 0.8191 0.0
C248 C 0.9104 0.22016 0.80143 0.0
C249 C 0.85002 0.2094 0.77002 0.0
C250 C 0.16616 0.79899 0.77407 0.0
C251 C 0.13397 0.73823 0.75094 0.0
C252 C 0.22891 0.7859 0.80323 0.0
C253 C 0.26155 0.71142 0.81074 0.0
H254 H 0.14215 0.85718 0.76998 0.0
H255 H 0.25077 0.83417 0.82064 0.0
S256 S 0.20358 0.53306 0.75735 0.0
N257 N 0.1431 0.60072 0.73678 0.0
N258 N 0.26068 0.57691 0.79161 0.0
C259 C 0.23144 0.6504 0.7875 0.0
C260 C 0.16793 0.66362 0.75759 0.0
C261 C 0.45787 0.74111 0.31245 0.0
C262 C 0.48898 0.81439 0.32327 0.0
C263 C 0.39899 0.73217 0.28144 0.0
C264 C 0.36768 0.79613 0.26021 0.0
H265 H 0.48032 0.68955 0.32753 0.0
H266 H 0.3776 0.67465 0.27398 0.0
S267 S 0.42661 0.00039 0.27615 0.0
N268 N 0.4826 0.95254 0.30983 0.0
N269 N 0.37105 0.93502 0.25179 0.0
C270 C 0.39655 0.86983 0.27089 0.0
C271 C 0.4574 0.87912 0.3023 0.0
C272 C 0.23157 0.22803 0.29308 0.0
C273 C 0.18088 0.21911 0.25919 0.0
C274 C 0.20139 0.24784 0.32547 0.0
C275 C 0.11927 0.26055 0.32521 0.0
H276 H 0.29484 0.21723 0.29474 0.0
H277 H 0.2428 0.25158 0.35107 0.0
S278 S 0.96245 0.25192 0.24233 0.0
N279 N 0.04565 0.2296 0.22652 0.0
N280 N 0.98841 0.26748 0.2871 0.0
C281 C 0.06832 0.25497 0.29101 0.0
C282 C 0.09917 0.23389 0.25812 0.0
C283 C 0.4299 0.33047 0.76175 0.0
C284 C 0.37905 0.33922 0.7277 0.0
C285 C 0.40025 0.31069 0.79412 0.0
C286 C 0.31847 0.29935 0.79402 0.0
H287 H 0.49375 0.33546 0.76326 0.0
H288 H 0.44205 0.30226 0.81933 0.0
S289 S 0.15862 0.32346 0.71326 0.0
N290 N 0.24147 0.34181 0.69676 0.0
N291 N 0.18623 0.30376 0.75755 0.0
C292 C 0.26627 0.31254 0.76078 0.0
C293 C 0.29644 0.33267 0.72767 0.0
C294 C 0.76346 0.79238 0.8354 0.0
C295 C 0.68093 0.80224 0.83535 0.0
C296 C 0.7939 0.7736 0.80287 0.0
C297 C 0.74289 0.76318 0.76921 0.0
H298 H 0.80472 0.79556 0.86106 0.0
H299 H 0.85715 0.76256 0.80448 0.0
S300 S 0.52426 0.79368 0.7524 0.0
N301 N 0.55004 0.80909 0.79718 0.0
N302 N 0.60777 0.77288 0.73654 0.0
C303 C 0.66126 0.77807 0.76813 0.0
C304 C 0.63017 0.79802 0.80104 0.0
C305 C 0.98019 0.83272 0.27269 0.0
C306 C 0.9299 0.84883 0.23911 0.0
C307 C 0.94946 0.80843 0.30412 0.0
C308 C 0.86717 0.80011 0.30356 0.0
H309 H 0.04425 0.83548 0.27441 0.0
H310 H 0.99063 0.79443 0.32893 0.0
S311 S 0.70889 0.84148 0.22396 0.0
N312 N 0.79262 0.85994 0.20823 0.0
N313 N 0.73536 0.81416 0.26739 0.0
C314 C 0.81576 0.82002 0.27093 0.0
C315 C 0.84701 0.84439 0.23873 0.0
C316 C 0.25536 0.21346 0.56251 0.0
C317 C 0.31697 0.1578 0.56515 0.0
C318 C 0.18761 0.208 0.53546 0.0
C319 C 0.17861 0.14688 0.50969 0.0
H320 H 0.25969 0.26186 0.58152 0.0
H321 H 0.14204 0.25253 0.53454 0.0
S322 S 0.32394 0.9868 0.50438 0.0
N323 N 0.36498 0.03954 0.53982 0.0
N324 N 0.23809 0.0296 0.48853 0.0
C325 C 0.23924 0.08994 0.51242 0.0
C326 C 0.30826 0.09536 0.54022 0.0
C327 C 0.75272 0.84229 0.56315 0.0
C328 C 0.83268 0.84145 0.58068 0.0
C329 C 0.73297 0.84663 0.5245 0.0
C330 C 0.79233 0.85118 0.50175 0.0
H331 H 0.70488 0.83361 0.57904 0.0
H332 H 0.67102 0.84093 0.51241 0.0
S333 S 1.00926 0.87134 0.53442 0.0
N334 N 0.97046 0.85962 0.57267 0.0
N335 N 0.93357 0.86958 0.5002 0.0
C336 C 0.87181 0.85957 0.5192 0.0
C337 C 0.89194 0.85427 0.55857 0.0
C338 C 0.87708 0.62329 0.04534 0.0
C339 C 0.87502 0.67646 0.07427 0.0
C340 C 0.81196 0.61607 1.01683 0.0
C341 C 0.74235 0.6613 1.01656 0.0
H342 H 0.93046 0.58922 0.04411 0.0
H343 H 0.81728 0.57687 0.99422 0.0
S344 S 0.70331 0.79945 0.08972 0.0
N345 N 0.79566 0.76902 0.10318 0.0
N346 N 0.67242 0.75413 0.05042 0.0
C347 C 0.73831 0.71151 0.0466 0.0
C348 C 0.80486 0.71943 0.07525 0.0
C349 C 0.25146 0.31983 0.05123 0.0
C350 C 0.33265 0.33746 0.06153 0.0
C351 C 0.21254 0.33081 1.01487 0.0
C352 C 0.25304 0.35986 0.98713 0.0
H353 H 0.21861 0.29273 0.07075 0.0
H354 H 0.15165 0.31158 1.00807 0.0
S355 S 0.46071 0.43176 1.00168 0.0
N356 N 0.4483 0.39742 0.04245 0.0
N357 N 0.37527 0.41861 0.97423 0.0
C358 C 0.33181 0.38516 0.99797 0.0
C359 C 0.37158 0.37366 0.03506 0.0
loop_
_geom_bond_atom_site_label_1
_geom_bond_atom_site_label_2
_geom_bond_distance
_geom_bond_site_symmetry_2
_ccdc_geom_bond_type
Cu0 N1 1.999 1_655 S
Cu0 O6 1.974 . S
Cu0 N11 1.985 . S
Cu0 O20 1.959 1_655 S
N1 Cu0 1.999 1_455 S
N1 C3 1.263 . S
N1 C5 1.389 . S
N2 C3 1.358 . S
N2 C4 1.400 . S
C3 N1 1.263 . S
C3 N2 1.358 . S
C3 H9 0.930 . S
C4 N2 1.400 . S
C4 C5 1.351 . S
C4 H21 0.930 . S
C5 N1 1.389 . S
C5 C4 1.351 . S
C5 H10 0.930 . S
O6 Cu0 1.974 . S
O6 C16 1.282 . S
C7 O8 1.261 . S
C7 O20 1.251 . S
O8 C7 1.261 . S
H9 C3 0.930 . S
H10 C5 0.930 . S
N11 Cu0 1.985 . S
N11 C13 1.335 . S
N11 C14 1.390 . S
N12 C13 1.345 . S
N12 C15 1.336 . S
C13 N11 1.335 . S
C13 N12 1.345 . S
C13 H18 0.930 . S
C14 N11 1.390 . S
C14 C15 1.346 . S
C14 H19 0.930 . S
C15 N12 1.336 . S
C15 C14 1.346 . S
C15 H22 0.929 . S
C16 O6 1.282 . S
C16 O17 1.216 . S
O17 C16 1.216 . S
H18 C13 0.930 . S
H19 C14 0.930 . S
O20 Cu0 1.959 1_455 S
O20 C7 1.251 . S
H21 C4 0.930 . S
H22 C15 0.929 . S
Cu23 N24 1.999 . S
Cu23 O29 1.974 . S
Cu23 N34 1.985 . S
Cu23 O43 1.959 . S
N24 Cu23 1.999 . S
N24 C26 1.263 . S
N24 C28 1.389 . S
N25 C26 1.358 . S
N25 C27 1.400 . S
C26 N24 1.263 . S
C26 N25 1.358 . S
C26 H32 0.930 . S
C27 N25 1.400 . S
C27 C28 1.351 . S
C27 H44 0.930 . S
C28 N24 1.389 . S
C28 C27 1.351 . S
C28 H33 0.930 . S
O29 Cu23 1.974 . S
O29 C39 1.282 . S
C30 O31 1.261 . S
C30 O43 1.251 . S
O31 C30 1.261 . S
H32 C26 0.930 . S
H33 C28 0.930 . S
N34 Cu23 1.985 . S
N34 C36 1.335 . S
N34 C37 1.390 . S
N35 C36 1.345 . S
N35 C38 1.336 . S
C36 N34 1.335 . S
C36 N35 1.345 . S
C36 H41 0.930 . S
C37 N34 1.390 . S
C37 C38 1.346 . S
C37 H42 0.930 . S
C38 N35 1.336 . S
C38 C37 1.346 . S
C38 H45 0.929 . S
C39 O29 1.282 . S
C39 O40 1.216 . S
O40 C39 1.216 . S
H41 C36 0.930 . S
H42 C37 0.930 . S
O43 Cu23 1.959 . S
O43 C30 1.251 . S
H44 C27 0.930 . S
H45 C38 0.929 . S
Cu46 N47 1.999 . S
Cu46 O52 1.974 . S
Cu46 N57 1.985 . S
Cu46 O66 1.959 . S
N47 Cu46 1.999 . S
N47 C49 1.263 . S
N47 C51 1.389 . S
N48 C49 1.358 . S
N48 C50 1.400 . S
C49 N47 1.263 . S
C49 N48 1.358 . S
C49 H55 0.930 . S
C50 N48 1.400 . S
C50 C51 1.351 . S
C50 H67 0.930 . S
C51 N47 1.389 . S
C51 C50 1.351 . S
C51 H56 0.930 . S
O52 Cu46 1.974 . S
O52 C62 1.282 1_655 S
C53 O54 1.261 . S
C53 O66 1.251 . S
O54 C53 1.261 . S
H55 C49 0.930 . S
H56 C51 0.930 . S
N57 Cu46 1.985 . S
N57 C59 1.335 . S
N57 C60 1.390 1_655 S
N58 C59 1.345 1_455 S
N58 C61 1.336 . S
C59 N57 1.335 . S
C59 N58 1.345 1_655 S
C59 H64 0.930 . S
C60 N57 1.390 1_455 S
C60 C61 1.346 . S
C60 H65 0.930 . S
C61 N58 1.336 . S
C61 C60 1.346 . S
C61 H68 0.929 . S
C62 O52 1.282 1_455 S
C62 O63 1.216 . S
O63 C62 1.216 . S
H64 C59 0.930 . S
H65 C60 0.930 . S
O66 Cu46 1.959 . S
O66 C53 1.251 . S
H67 C50 0.930 . S
H68 C61 0.929 . S
Cu69 N70 1.999 . S
Cu69 O75 1.974 . S
Cu69 N80 1.985 . S
Cu69 O89 1.959 . S
N70 Cu69 1.999 . S
N70 C72 1.263 . S
N70 C74 1.389 . S
N71 C72 1.358 . S
N71 C73 1.400 . S
C72 N70 1.263 . S
C72 N71 1.358 . S
C72 H78 0.930 . S
C73 N71 1.400 . S
C73 C74 1.351 . S
C73 H90 0.930 . S
C74 N70 1.389 . S
C74 C73 1.351 . S
C74 H79 0.930 . S
O75 Cu69 1.974 . S
O75 C85 1.282 . S
C76 O77 1.261 . S
C76 O89 1.251 . S
O77 C76 1.261 . S
H78 C72 0.930 . S
H79 C74 0.930 . S
N80 Cu69 1.985 . S
N80 C82 1.335 . S
N80 C83 1.390 . S
N81 C82 1.345 . S
N81 C84 1.336 . S
C82 N80 1.335 . S
C82 N81 1.345 . S
C82 H87 0.930 . S
C83 N80 1.390 . S
C83 C84 1.346 . S
C83 H88 0.930 . S
C84 N81 1.336 . S
C84 C83 1.346 . S
C84 H91 0.929 . S
C85 O75 1.282 . S
C85 O86 1.216 . S
O86 C85 1.216 . S
H87 C82 0.930 . S
H88 C83 0.930 . S
O89 Cu69 1.959 . S
O89 C76 1.251 . S
H90 C73 0.930 . S
H91 C84 0.929 . S
Cu92 N93 1.999 . S
Cu92 O98 1.974 . S
Cu92 N103 1.985 . S
Cu92 O112 1.959 . S
N93 Cu92 1.999 . S
N93 C95 1.263 . S
N93 C97 1.389 . S
N94 C95 1.358 . S
N94 C96 1.400 . S
C95 N93 1.263 . S
C95 N94 1.358 . S
C95 H101 0.930 . S
C96 N94 1.400 . S
C96 C97 1.351 . S
C96 H113 0.930 . S
C97 N93 1.389 . S
C97 C96 1.351 . S
C97 H102 0.930 . S
O98 Cu92 1.974 . S
O98 C108 1.282 . S
C99 O100 1.261 . S
C99 O112 1.251 . S
O100 C99 1.261 . S
H101 C95 0.930 . S
H102 C97 0.930 . S
N103 Cu92 1.985 . S
N103 C105 1.335 . S
N103 C106 1.390 . S
N104 C105 1.345 . S
N104 C107 1.336 . S
C105 N103 1.335 . S
C105 N104 1.345 . S
C105 H110 0.930 . S
C106 N103 1.390 . S
C106 C107 1.346 . S
C106 H111 0.930 . S
C107 N104 1.336 . S
C107 C106 1.346 . S
C107 H114 0.929 . S
C108 O98 1.282 . S
C108 O109 1.216 . S
O109 C108 1.216 . S
H110 C105 0.930 . S
H111 C106 0.930 . S
O112 Cu92 1.959 . S
O112 C99 1.251 . S
H113 C96 0.930 . S
H114 C107 0.929 . S
Cu115 N116 1.999 1_455 S
Cu115 O121 1.974 . S
Cu115 N126 1.985 . S
Cu115 O135 1.959 1_455 S
N116 Cu115 1.999 1_655 S
N116 C118 1.263 . S
N116 C120 1.389 . S
N117 C118 1.358 . S
N117 C119 1.400 . S
C118 N116 1.263 . S
C118 N117 1.358 . S
C118 H124 0.930 . S
C119 N117 1.400 . S
C119 C120 1.351 . S
C119 H136 0.930 . S
C120 N116 1.389 . S
C120 C119 1.351 . S
C120 H125 0.930 . S
O121 Cu115 1.974 . S
O121 C131 1.282 . S
C122 O123 1.261 . S
C122 O135 1.251 . S
O123 C122 1.261 . S
H124 C118 0.930 . S
H125 C120 0.930 . S
N126 Cu115 1.985 . S
N126 C128 1.335 . S
N126 C129 1.390 . S
N127 C128 1.345 . S
N127 C130 1.336 . S
C128 N126 1.335 . S
C128 N127 1.345 . S
C128 H133 0.930 . S
C129 N126 1.390 . S
C129 C130 1.346 . S
C129 H134 0.930 . S
C130 N127 1.336 . S
C130 C129 1.346 . S
C130 H137 0.929 . S
C131 O121 1.282 . S
C131 O132 1.216 . S
O132 C131 1.216 . S
H133 C128 0.930 . S
H134 C129 0.930 . S
O135 Cu115 1.959 1_655 S
O135 C122 1.251 . S
H136 C119 0.930 . S
H137 C130 0.929 . S
Cu138 N139 1.999 . S
Cu138 O144 1.974 . S
Cu138 N149 1.985 . S
Cu138 O158 1.959 . S
N139 Cu138 1.999 . S
N139 C141 1.263 . S
N139 C143 1.389 . S
N140 C141 1.358 . S
N140 C142 1.400 . S
C141 N139 1.263 . S
C141 N140 1.358 . S
C141 H147 0.930 . S
C142 N140 1.400 . S
C142 C143 1.351 . S
C142 H159 0.930 . S
C143 N139 1.389 . S
C143 C142 1.351 . S
C143 H148 0.930 . S
O144 Cu138 1.974 . S
O144 C154 1.282 . S
C145 O146 1.261 . S
C145 O158 1.251 . S
O146 C145 1.261 . S
H147 C141 0.930 . S
H148 C143 0.930 . S
N149 Cu138 1.985 . S
N149 C151 1.335 . S
N149 C152 1.390 . S
N150 C151 1.345 . S
N150 C153 1.336 . S
C151 N149 1.335 . S
C151 N150 1.345 . S
C151 H156 0.930 . S
C152 N149 1.390 . S
C152 C153 1.346 . S
C152 H157 0.930 . S
C153 N150 1.336 . S
C153 C152 1.346 . S
C153 H160 0.929 . S
C154 O144 1.282 . S
C154 O155 1.216 . S
O155 C154 1.216 . S
H156 C151 0.930 . S
H157 C152 0.930 . S
O158 Cu138 1.959 . S
O158 C145 1.251 . S
H159 C142 0.930 . S
H160 C153 0.929 . S
Cu161 N162 1.999 . S
Cu161 O167 1.974 . S
Cu161 N172 1.985 . S
Cu161 O181 1.959 . S
N162 Cu161 1.999 . S
N162 C164 1.263 . S
N162 C166 1.389 . S
N163 C164 1.358 . S
N163 C165 1.400 . S
C164 N162 1.263 . S
C164 N163 1.358 . S
C164 H170 0.930 . S
C165 N163 1.400 . S
C165 C166 1.351 . S
C165 H182 0.930 . S
C166 N162 1.389 . S
C166 C165 1.351 . S
C166 H171 0.930 . S
O167 Cu161 1.974 . S
O167 C177 1.282 1_455 S
C168 O169 1.261 . S
C168 O181 1.251 . S
O169 C168 1.261 . S
H170 C164 0.930 . S
H171 C166 0.930 . S
N172 Cu161 1.985 . S
N172 C174 1.335 . S
N172 C175 1.390 1_455 S
N173 C174 1.345 1_655 S
N173 C176 1.336 . S
C174 N172 1.335 . S
C174 N173 1.345 1_455 S
C174 H179 0.930 . S
C175 N172 1.390 1_655 S
C175 C176 1.346 . S
C175 H180 0.930 . S
C176 N173 1.336 . S
C176 C175 1.346 . S
C176 H183 0.929 . S
C177 O167 1.282 1_655 S
C177 O178 1.216 . S
O178 C177 1.216 . S
H179 C174 0.930 . S
H180 C175 0.930 . S
O181 Cu161 1.959 . S
O181 C168 1.251 . S
H182 C165 0.930 . S
H183 C176 0.929 . S
C184 C185 1.369 . S
C184 C186 1.419 . S
C184 H188 0.930 . S
C185 C184 1.369 . S
C185 C194 1.429 . S
C186 C184 1.419 . S
C186 C187 1.363 . S
C186 H189 0.929 . S
C187 C186 1.363 . S
C187 C193 1.428 . S
H188 C184 0.930 . S
H189 C186 0.929 . S
S190 N191 1.613 . S
S190 N192 1.610 . S
N191 S190 1.613 . S
N191 C194 1.350 . S
N192 S190 1.610 . S
N192 C193 1.351 . S
C193 C187 1.428 . S
C193 N192 1.351 . S
C193 C194 1.434 . S
C194 C185 1.429 . S
C194 N191 1.350 . S
C194 C193 1.434 . S
C195 C196 1.369 . S
C195 C197 1.419 . S
C195 H199 0.930 . S
C196 C195 1.369 . S
C196 C205 1.429 . S
C197 C195 1.419 . S
C197 C198 1.363 . S
C197 H200 0.929 . S
C198 C197 1.363 . S
C198 C204 1.428 . S
H199 C195 0.930 . S
H200 C197 0.929 . S
S201 N202 1.613 . S
S201 N203 1.610 . S
N202 S201 1.613 . S
N202 C205 1.350 . S
N203 S201 1.610 . S
N203 C204 1.351 . S
C204 C198 1.428 . S
C204 N203 1.351 . S
C204 C205 1.434 . S
C205 C196 1.429 . S
C205 N202 1.350 . S
C205 C204 1.434 . S
C206 C207 1.369 . S
C206 C208 1.419 1_545 S
C206 H210 0.930 . S
C207 C206 1.369 . S
C207 C216 1.429 1_546 S
C208 C206 1.419 1_565 S
C208 C209 1.363 . S
C208 H211 0.929 . S
C209 C208 1.363 . S
C209 C215 1.428 . S
H210 C206 0.930 . S
H211 C208 0.929 . S
S212 N213 1.613 . S
S212 N214 1.610 1_554 S
N213 S212 1.613 . S
N213 C216 1.350 . S
N214 S212 1.610 1_556 S
N214 C215 1.351 . S
C215 C209 1.428 . S
C215 N214 1.351 . S
C215 C216 1.434 1_556 S
C216 C207 1.429 1_564 S
C216 N213 1.350 . S
C216 C215 1.434 1_554 S
C217 C218 1.369 . S
C217 C219 1.419 1_454 S
C217 H221 0.930 1_455 S
C218 C217 1.369 . S
C218 C227 1.429 1_565 S
C219 C217 1.419 1_656 S
C219 C220 1.363 1_666 S
C219 H222 0.929 . S
C220 C219 1.363 1_444 S
C220 C226 1.428 . S
H221 C217 0.930 1_655 S
H222 C219 0.929 . S
S223 N224 1.613 . S
S223 N225 1.610 . S
N224 S223 1.613 . S
N224 C227 1.350 . S
N225 S223 1.610 . S
N225 C226 1.351 . S
C226 C220 1.428 . S
C226 N225 1.351 . S
C226 C227 1.434 . S
C227 C218 1.429 1_545 S
C227 N224 1.350 . S
C227 C226 1.434 . S
C228 C229 1.369 . S
C228 C230 1.419 . S
C228 H232 0.930 . S
C229 C228 1.369 . S
C229 C238 1.429 . S
C230 C228 1.419 . S
C230 C231 1.363 . S
C230 H233 0.929 . S
C231 C230 1.363 . S
C231 C237 1.428 . S
H232 C228 0.930 . S
H233 C230 0.929 . S
S234 N235 1.613 . S
S234 N236 1.610 . S
N235 S234 1.613 . S
N235 C238 1.350 . S
N236 S234 1.610 . S
N236 C237 1.351 . S
C237 C231 1.428 . S
C237 N236 1.351 . S
C237 C238 1.434 . S
C238 C229 1.429 . S
C238 N235 1.350 . S
C238 C237 1.434 . S
C239 C240 1.369 . S
C239 C241 1.419 . S
C239 H243 0.930 . S
C240 C239 1.369 . S
C240 C249 1.429 . S
C241 C239 1.419 . S
C241 C242 1.363 . S
C241 H244 0.929 . S
C242 C241 1.363 . S
C242 C248 1.428 . S
H243 C239 0.930 . S
H244 C241 0.929 . S
S245 N246 1.613 . S
S245 N247 1.610 . S
N246 S245 1.613 . S
N246 C249 1.350 . S
N247 S245 1.610 . S
N247 C248 1.351 . S
C248 C242 1.428 . S
C248 N247 1.351 . S
C248 C249 1.434 . S
C249 C240 1.429 . S
C249 N246 1.350 . S
C249 C248 1.434 . S
C250 C251 1.369 . S
C250 C252 1.419 . S
C250 H254 0.930 . S
C251 C250 1.369 . S
C251 C260 1.429 . S
C252 C250 1.419 . S
C252 C253 1.363 . S
C252 H255 0.929 . S
C253 C252 1.363 . S
C253 C259 1.428 . S
H254 C250 0.930 . S
H255 C252 0.929 . S
S256 N257 1.613 . S
S256 N258 1.610 . S
N257 S256 1.613 . S
N257 C260 1.350 . S
N258 S256 1.610 . S
N258 C259 1.351 . S
C259 C253 1.428 . S
C259 N258 1.351 . S
C259 C260 1.434 . S
C260 C251 1.429 . S
C260 N257 1.350 . S
C260 C259 1.434 . S
C261 C262 1.369 . S
C261 C263 1.419 . S
C261 H265 0.930 . S
C262 C261 1.369 . S
C262 C271 1.429 . S
C263 C261 1.419 . S
C263 C264 1.363 . S
C263 H266 0.929 . S
C264 C263 1.363 . S
C264 C270 1.428 . S
H265 C261 0.930 . S
H266 C263 0.929 . S
S267 N268 1.613 . S
S267 N269 1.610 . S
N268 S267 1.613 . S
N268 C271 1.350 . S
N269 S267 1.610 . S
N269 C270 1.351 . S
C270 C264 1.428 . S
C270 N269 1.351 . S
C270 C271 1.434 . S
C271 C262 1.429 . S
C271 N268 1.350 . S
C271 C270 1.434 . S
C272 C273 1.369 . S
C272 C274 1.419 . S
C272 H276 0.930 . S
C273 C272 1.369 . S
C273 C282 1.429 . S
C274 C272 1.419 . S
C274 C275 1.363 . S
C274 H277 0.929 . S
C275 C274 1.363 . S
C275 C281 1.428 . S
H276 C272 0.930 . S
H277 C274 0.929 . S
S278 N279 1.613 . S
S278 N280 1.610 . S
N279 S278 1.613 . S
N279 C282 1.350 . S
N280 S278 1.610 . S
N280 C281 1.351 . S
C281 C275 1.428 . S
C281 N280 1.351 . S
C281 C282 1.434 . S
C282 C273 1.429 . S
C282 N279 1.350 . S
C282 C281 1.434 . S
C283 C284 1.369 . S
C283 C285 1.419 . S
C283 H287 0.930 . S
C284 C283 1.369 . S
C284 C293 1.429 . S
C285 C283 1.419 . S
C285 C286 1.363 . S
C285 H288 0.929 . S
C286 C285 1.363 . S
C286 C292 1.428 . S
H287 C283 0.930 . S
H288 C285 0.929 . S
S289 N290 1.613 . S
S289 N291 1.610 . S
N290 S289 1.613 . S
N290 C293 1.350 . S
N291 S289 1.610 . S
N291 C292 1.351 . S
C292 C286 1.428 . S
C292 N291 1.351 . S
C292 C293 1.434 . S
C293 C284 1.429 . S
C293 N290 1.350 . S
C293 C292 1.434 . S
C294 C295 1.369 . S
C294 C296 1.419 . S
C294 H298 0.930 . S
C295 C294 1.369 . S
C295 C304 1.429 . S
C296 C294 1.419 . S
C296 C297 1.363 . S
C296 H299 0.929 . S
C297 C296 1.363 . S
C297 C303 1.428 . S
H298 C294 0.930 . S
H299 C296 0.929 . S
S300 N301 1.613 . S
S300 N302 1.610 . S
N301 S300 1.613 . S
N301 C304 1.350 . S
N302 S300 1.610 . S
N302 C303 1.351 . S
C303 C297 1.428 . S
C303 N302 1.351 . S
C303 C304 1.434 . S
C304 C295 1.429 . S
C304 N301 1.350 . S
C304 C303 1.434 . S
C305 C306 1.369 . S
C305 C307 1.419 . S
C305 H309 0.930 . S
C306 C305 1.369 . S
C306 C315 1.429 . S
C307 C305 1.419 . S
C307 C308 1.363 . S
C307 H310 0.929 . S
C308 C307 1.363 . S
C308 C314 1.428 . S
H309 C305 0.930 . S
H310 C307 0.929 . S
S311 N312 1.613 . S
S311 N313 1.610 . S
N312 S311 1.613 . S
N312 C315 1.350 . S
N313 S311 1.610 . S
N313 C314 1.351 . S
C314 C308 1.428 . S
C314 N313 1.351 . S
C314 C315 1.434 . S
C315 C306 1.429 . S
C315 N312 1.350 . S
C315 C314 1.434 . S
C316 C317 1.369 . S
C316 C318 1.419 . S
C316 H320 0.930 . S
C317 C316 1.369 . S
C317 C326 1.429 . S
C318 C316 1.419 . S
C318 C319 1.363 . S
C318 H321 0.929 . S
C319 C318 1.363 . S
C319 C325 1.428 . S
H320 C316 0.930 . S
H321 C318 0.929 . S
S322 N323 1.613 . S
S322 N324 1.610 . S
N323 S322 1.613 . S
N323 C326 1.350 . S
N324 S322 1.610 . S
N324 C325 1.351 . S
C325 C319 1.428 . S
C325 N324 1.351 . S
C325 C326 1.434 . S
C326 C317 1.429 . S
C326 N323 1.350 . S
C326 C325 1.434 . S
C327 C328 1.369 . S
C327 C329 1.419 . S
C327 H331 0.930 . S
C328 C327 1.369 . S
C328 C337 1.429 . S
C329 C327 1.419 . S
C329 C330 1.363 . S
C329 H332 0.929 . S
C330 C329 1.363 . S
C330 C336 1.428 . S
H331 C327 0.930 . S
H332 C329 0.929 . S
S333 N334 1.613 . S
S333 N335 1.610 . S
N334 S333 1.613 . S
N334 C337 1.350 . S
N335 S333 1.610 . S
N335 C336 1.351 . S
C336 C330 1.428 . S
C336 N335 1.351 . S
C336 C337 1.434 . S
C337 C328 1.429 . S
C337 N334 1.350 . S
C337 C336 1.434 . S
C338 C339 1.369 . S
C338 C340 1.419 1_554 S
C338 H342 0.930 . S
C339 C338 1.369 . S
C339 C348 1.429 . S
C340 C338 1.419 1_556 S
C340 C341 1.363 . S
C340 H343 0.929 . S
C341 C340 1.363 . S
C341 C347 1.428 . S
H342 C338 0.930 . S
H343 C340 0.929 . S
S344 N345 1.613 . S
S344 N346 1.610 1_554 S
N345 S344 1.613 . S
N345 C348 1.350 . S
N346 S344 1.610 1_556 S
N346 C347 1.351 . S
C347 C341 1.428 . S
C347 N346 1.351 . S
C347 C348 1.434 1_556 S
C348 C339 1.429 . S
C348 N345 1.350 . S
C348 C347 1.434 1_554 S
C349 C350 1.369 . S
C349 C351 1.419 1_554 S
C349 H353 0.930 . S
C350 C349 1.369 . S
C350 C359 1.429 . S
C351 C349 1.419 1_556 S
C351 C352 1.363 . S
C351 H354 0.929 . S
C352 C351 1.363 . S
C352 C358 1.428 . S
H353 C349 0.930 . S
H354 C351 0.929 . S
S355 N356 1.613 1_556 S
S355 N357 1.610 . S
N356 S355 1.613 1_554 S
N356 C359 1.350 . S
N357 S355 1.610 . S
N357 C358 1.351 . S
C358 C352 1.428 . S
C358 N357 1.351 . S
C358 C359 1.434 1_556 S
C359 C350 1.429 . S
C359 N356 1.350 . S
C359 C358 1.434 1_554 S
C185 C16 1.736 . S
C187 N58 1.845 1_655 S
C196 N81 1.845 . S
C198 C39 1.734 . S
C207 N150 1.844 1_556 S
C209 C108 1.734 . S
C218 C131 1.726 . S
C220 N173 1.849 1_454 S
C229 C154 1.765 . S
C231 N12 1.738 . S
C240 N35 1.743 . S
C242 C177 1.764 . S
C251 C62 1.764 . S
C253 N104 1.742 . S
C262 C85 1.761 . S
C264 N127 1.740 . S
C273 N140 1.768 . S
C275 C7 1.933 . S
C284 C30 1.931 . S
C286 N163 1.772 . S
C295 C99 1.936 . S
C297 N48 1.766 . S
C306 C122 1.929 . S
C308 N71 1.774 . S
C317 N25 1.026 . S
C319 N2 1.030 . S
C328 C53 0.813 . S
C330 C76 0.824 . S
C339 N117 1.033 . S
C341 N94 1.029 . S
C350 C145 0.819 . S
C352 C168 0.820 . S
