# Generated by pormake.
# Topology yfg, (5)-cn, num edge types: 1
# Building blocks:
#     Node 0, Type 0, BuildingBlock: XOMCOT_clean_sbu_1, # of connection points: 5
#     Node 1, Type 0, BuildingBlock: XOMCOT_clean_sbu_1, # of connection points: 5
#     Node 2, Type 0, BuildingBlock: XOMCOT_clean_sbu_1, # of connection points: 5
#     Node 3, Type 0, BuildingBlock: XOMCOT_clean_sbu_1, # of connection points: 5
#     Node 4, Type 0, BuildingBlock: XOMCOT_clean_sbu_1, # of connection points: 5
#     Node 5, Type 0, BuildingBlock: XOMCOT_clean_sbu_1, # of connection points: 5
#     Node 6, Type 0, BuildingBlock: XOMCOT_clean_sbu_1, # of connection points: 5
#     Node 7, Type 0, BuildingBlock: XOMCOT_clean_sbu_1, # of connection points: 5
#     Edge 8, Type (0, 0), BuildingBlock: AJUNOK_clean_linker_0, # of connection points: 2
#     Edge 9, Type (0, 0), BuildingBlock: AJUNOK_clean_linker_0, # of connection points: 2
#     Edge 10, Type (0, 0), BuildingBlock: AJUNOK_clean_linker_0, # of connection points: 2
#     Edge 11, Type (0, 0), BuildingBlock: AJUNOK_clean_linker_0, # of connection points: 2
#     Edge 12, Type (0, 0), BuildingBlock: AJUNOK_clean_linker_0, # of connection points: 2
#     Edge 13, Type (0, 0), BuildingBlock: AJUNOK_clean_linker_0, # of connection points: 2
#     Edge 14, Type (0, 0), BuildingBlock: AJUNOK_clean_linker_0, # of connection points: 2
#     Edge 15, Type (0, 0), BuildingBlock: AJUNOK_clean_linker_0, # of connection points: 2
#     Edge 16, Type (0, 0), BuildingBlock: AJUNOK_clean_linker_0, # of connection points: 2
#     Edge 17, Type (0, 0), BuildingBlock: AJUNOK_clean_linker_0, # of connection points: 2
#     Edge 18, Type (0, 0), BuildingBlock: AJUNOK_clean_linker_0, # of connection points: 2
#     Edge 19, Type (0, 0), BuildingBlock: AJUNOK_clean_linker_0, # of connection points: 2
#     Edge 20, Type (0, 0), BuildingBlock: AJUNOK_clean_linker_0, # of connection points: 2
#     Edge 21, Type (0, 0), BuildingBlock: AJUNOK_clean_linker_0, # of connection points: 2
#     Edge 22, Type (0, 0), BuildingBlock: AJUNOK_clean_linker_0, # of connection points: 2
#     Edge 23, Type (0, 0), BuildingBlock: AJUNOK_clean_linker_0, # of connection points: 2
#     Edge 24, Type (0, 0), BuildingBlock: AJUNOK_clean_linker_0, # of connection points: 2
#     Edge 25, Type (0, 0), BuildingBlock: AJUNOK_clean_linker_0, # of connection points: 2
#     Edge 26, Type (0, 0), BuildingBlock: AJUNOK_clean_linker_0, # of connection points: 2
#     Edge 27, Type (0, 0), BuildingBlock: AJUNOK_clean_linker_0, # of connection points: 2
# Relax obj value: 0.433
# Max RMSD: 0.206
# Mean RMSD: 0.206
data_MOF--net-yfg--node1-XOMCOT_clean_sbu_1--edge1-AJUNOK_clean_linker_0
_symmetry_space_group_name_H-M    P1
_symmetry_Int_Tables_number       1
_symmetry_cell_setting            triclinic
loop_
_symmetry_equiv_pos_as_xyz
'x, y, z'
_cell_length_a     26.839651
_cell_length_b     27.564759
_cell_length_c     30.354238
_cell_angle_alpha  89.847874
_cell_angle_beta   89.90642
_cell_angle_gamma 88.523425
loop_
_atom_site_label
_atom_site_type_symbol
_atom_site_fract_x
_atom_site_fract_y
_atom_site_fract_z
_atom_type_partial_charge
C0 C 0.19272 0.51704 0.10022 0.0
C1 C 0.17965 0.51654 0.14398 0.0
N2 N 0.21912 0.49993 0.16762 0.0
N3 N 0.23996 0.50001 0.09605 0.0
C4 C 0.25528 0.4905 0.13759 0.0
H5 H 0.16939 0.52919 0.07314 0.0
Co6 Co 0.27677 0.49539 0.04415 0.0
C7 C 0.32543 0.39518 0.06928 0.0
O8 O 0.30053 0.36441 0.04545 0.0
N9 N 0.31504 0.49195 0.9921 0.0
C10 C 0.35277 0.4676 0.93028 0.0
C11 C 0.32115 0.45443 0.96393 0.0
C12 C 0.34375 0.52719 0.97512 0.0
N13 N 0.36743 0.51317 0.9378 0.0
O14 O 0.32466 0.5347 0.0703 0.0
H15 H 0.3033 0.4199 0.9673 0.0
H16 H 0.34634 0.56307 0.98913 0.0
O17 O 0.31491 0.44049 0.06754 0.0
C18 C 0.31145 0.57877 0.076 0.0
O19 O 0.27092 0.59546 0.05627 0.0
N20 N 0.22528 0.45896 0.01906 0.0
C21 C 0.12353 0.44437 1.0044 0.0
C22 C 0.15059 0.41542 0.0347 0.0
C23 C 0.20149 0.42328 0.04162 0.0
C24 C 0.20076 0.4843 0.98671 0.0
C25 C 0.15001 0.47768 0.97892 0.0
H26 H 0.21941 0.40561 0.06938 0.0
H27 H 0.21887 0.51417 0.97064 0.0
H28 H 0.29296 0.47884 0.14546 0.0
H29 H 0.14371 0.52764 0.15724 0.0
H30 H 0.36388 0.44558 0.90229 0.0
H31 H 0.13177 0.38949 0.0553 0.0
H32 H 0.13088 0.50189 0.95605 0.0
C33 C 0.51371 0.19917 0.36784 0.0
C34 C 0.52415 0.18692 0.41042 0.0
N35 N 0.55984 0.21609 0.42502 0.0
N36 N 0.54294 0.23581 0.3548 0.0
C37 C 0.57081 0.24547 0.39076 0.0
H38 H 0.48504 0.18319 0.34803 0.0
Co39 Co 0.53439 0.26576 0.29927 0.0
C40 C 0.59205 0.3382 0.32554 0.0
O41 O 0.6232 0.30766 0.3059 0.0
N42 N 0.52295 0.29541 0.24423 0.0
C43 C 0.53483 0.32821 0.17803 0.0
C44 C 0.55786 0.30785 0.21458 0.0
C45 C 0.47908 0.30822 0.22482 0.0
N46 N 0.48518 0.32838 0.18467 0.0
O47 O 0.46493 0.27223 0.31506 0.0
H48 H 0.59752 0.30196 0.21899 0.0
H49 H 0.44298 0.30318 0.23951 0.0
O50 O 0.54584 0.32833 0.32543 0.0
C51 C 0.41797 0.26765 0.3183 0.0
O52 O 0.39538 0.23571 0.29392 0.0
N53 N 0.52963 0.20394 0.27346 0.0
C54 C 0.53514 0.10441 0.25547 0.0
C55 C 0.57598 0.1284 0.27306 0.0
C56 C 0.57296 0.17819 0.28033 0.0
C57 C 0.49074 0.18282 0.25275 0.0
C58 C 0.49259 0.13272 0.24379 0.0
H59 H 0.60428 0.19586 0.29518 0.0
H60 H 0.45809 0.2041 0.24387 0.0
H61 H 0.59787 0.27373 0.39225 0.0
H62 H 0.50522 0.16006 0.42992 0.0
H63 H 0.55317 0.34076 0.1485 0.0
H64 H 0.60926 0.10879 0.28372 0.0
H65 H 0.46063 0.11614 0.22888 0.0
C66 C 0.84056 0.4946 0.60696 0.0
C67 C 0.85059 0.49699 0.65138 0.0
N68 N 0.81005 0.51595 0.67192 0.0
N69 N 0.79398 0.51221 0.5996 0.0
C70 C 0.77615 0.52432 0.63983 0.0
H71 H 0.86539 0.48066 0.58162 0.0
Co72 Co 0.76019 0.51406 0.54596 0.0
C73 C 0.70546 0.61163 0.56832 0.0
O74 O 0.73178 0.64308 0.54632 0.0
N75 N 0.72499 0.51401 0.49248 0.0
C76 C 0.67576 0.53246 0.43548 0.0
C77 C 0.70398 0.551 0.46923 0.0
C78 C 0.7098 0.4736 0.47178 0.0
N79 N 0.6793 0.48368 0.43742 0.0
O80 O 0.71403 0.47162 0.57018 0.0
H81 H 0.70799 0.58898 0.47667 0.0
H82 H 0.71955 0.43718 0.48265 0.0
O83 O 0.71702 0.56652 0.56738 0.0
C84 C 0.72956 0.42836 0.57671 0.0
O85 O 0.77261 0.41433 0.55968 0.0
N86 N 0.8098 0.55409 0.52256 0.0
C87 C 0.90998 0.57651 0.50925 0.0
C88 C 0.88072 0.60198 0.54035 0.0
C89 C 0.8307 0.59015 0.54663 0.0
C90 C 0.83633 0.53214 0.48948 0.0
C91 C 0.88639 0.54278 0.48227 0.0
H92 H 0.81138 0.60516 0.57491 0.0
H93 H 0.82075 0.50187 0.47214 0.0
H94 H 0.73835 0.53736 0.64562 0.0
H95 H 0.8851 0.48588 0.66733 0.0
H96 H 0.65456 0.55323 0.41132 0.0
H97 H 0.89741 0.62801 0.56215 0.0
H98 H 0.9075 0.52113 0.45871 0.0
C99 C 0.52727 0.80185 0.8693 0.0
C100 C 0.51968 0.81069 0.91322 0.0
N101 N 0.48808 0.77767 0.92849 0.0
N102 N 0.5007 0.76313 0.85693 0.0
C103 C 0.47698 0.7492 0.89402 0.0
H104 H 0.55212 0.82147 0.84804 0.0
Co105 Co 0.50405 0.73448 0.80111 0.0
C106 C 0.46191 0.65153 0.82511 0.0
O107 O 0.42764 0.67351 0.80087 0.0
N108 N 0.50987 0.70589 0.74503 0.0
C109 C 0.49707 0.6847 0.67522 0.0
C110 C 0.47547 0.70456 0.7127 0.0
C111 C 0.55176 0.68649 0.72653 0.0
N112 N 0.54518 0.67379 0.68417 0.0
O113 O 0.57556 0.73969 0.80286 0.0
H114 H 0.43773 0.71893 0.71565 0.0
H115 H 0.58722 0.68265 0.74314 0.0
O116 O 0.50429 0.67126 0.8286 0.0
C117 C 0.61601 0.73054 0.82333 0.0
O118 O 0.6575 0.74768 0.8073 0.0
N119 N 0.49837 0.79613 0.7751 0.0
C120 C 0.48977 0.89538 0.75811 0.0
C121 C 0.45089 0.87081 0.77864 0.0
C122 C 0.45556 0.82094 0.78595 0.0
C123 C 0.53481 0.81817 0.75156 0.0
C124 C 0.53122 0.868 0.7428 0.0
H125 H 0.42666 0.80265 0.80391 0.0
H126 H 0.56791 0.79798 0.7414 0.0
H127 H 0.45339 0.7181 0.89621 0.0
H128 H 0.53746 0.83795 0.93295 0.0
H129 H 0.47956 0.68094 0.64335 0.0
H130 H 0.41855 0.89018 0.79168 0.0
H131 H 0.56158 0.88532 0.7259 0.0
C132 C 0.18714 0.4678 0.42177 0.0
C133 C 0.17523 0.47228 0.37794 0.0
N134 N 0.21747 0.48015 0.35548 0.0
N135 N 0.23652 0.47413 0.42693 0.0
C136 C 0.25414 0.48092 0.38573 0.0
H137 H 0.1614 0.46035 0.4482 0.0
Co138 Co 0.27086 0.47111 0.48025 0.0
C139 C 0.33638 0.56009 0.47281 0.0
O140 O 0.32692 0.57638 0.51254 0.0
N141 N 0.30517 0.46581 0.5349 0.0
C142 C 0.33317 0.47652 0.60337 0.0
C143 C 0.30562 0.49676 0.56944 0.0
C144 C 0.33129 0.4262 0.54966 0.0
N145 N 0.34901 0.43206 0.59087 0.0
O146 O 0.31639 0.42485 0.45465 0.0
H147 H 0.2853 0.53104 0.57105 0.0
H148 H 0.3364 0.39301 0.5311 0.0
O149 O 0.31529 0.52196 0.45896 0.0
C150 C 0.30066 0.38401 0.44203 0.0
O151 O 0.25413 0.37304 0.44995 0.0
N152 N 0.22312 0.51511 0.50412 0.0
C153 C 0.12679 0.5543 0.5151 0.0
C154 C 0.1621 0.57846 0.48944 0.0
C155 C 0.21019 0.55815 0.4842 0.0
C156 C 0.191 0.49383 0.53266 0.0
C157 C 0.14273 0.51298 0.53883 0.0
H158 H 0.23459 0.574 0.46011 0.0
H159 H 0.2009 0.45892 0.54697 0.0
H160 H 0.293 0.48614 0.37801 0.0
H161 H 0.13858 0.46925 0.3635 0.0
H162 H 0.33909 0.49222 0.63554 0.0
H163 H 0.15162 0.61087 0.47109 0.0
H164 H 0.1168 0.49302 0.55885 0.0
C165 C 0.60071 0.187 0.67846 0.0
C166 C 0.61171 0.17766 0.6351 0.0
N167 N 0.5905 0.21313 0.61028 0.0
N168 N 0.57221 0.22785 0.68094 0.0
C169 C 0.56649 0.24301 0.63892 0.0
H170 H 0.61373 0.16621 0.70664 0.0
Co171 Co 0.55625 0.25848 0.73344 0.0
C172 C 0.45237 0.29669 0.70703 0.0
O173 O 0.42708 0.27021 0.73478 0.0
N174 N 0.54423 0.28959 0.78735 0.0
C175 C 0.51911 0.31958 0.85214 0.0
C176 C 0.50495 0.29401 0.81512 0.0
C177 C 0.58146 0.31199 0.80837 0.0
N178 N 0.5672 0.3311 0.84719 0.0
O179 O 0.59493 0.31088 0.71498 0.0
H180 H 0.46884 0.2788 0.80959 0.0
H181 H 0.61912 0.31362 0.79593 0.0
O182 O 0.49987 0.2931 0.70572 0.0
C183 C 0.64143 0.30548 0.7084 0.0
O184 O 0.66418 0.26483 0.72052 0.0
N185 N 0.51895 0.2045 0.75015 0.0
C186 C 0.49457 0.10724 0.7609 0.0
C187 C 0.47608 0.13434 0.72506 0.0
C188 C 0.48848 0.18291 0.7204 0.0
C189 C 0.53491 0.17968 0.78659 0.0
C190 C 0.52255 0.13117 0.79292 0.0
H191 H 0.47816 0.20137 0.69019 0.0
H192 H 0.5608 0.1961 0.80899 0.0
H193 H 0.54532 0.27537 0.62968 0.0
H194 H 0.6342 0.14747 0.62278 0.0
H195 H 0.49595 0.32924 0.88015 0.0
H196 H 0.45592 0.1173 0.69867 0.0
H197 H 0.53757 0.1117 0.82116 0.0
C198 C 0.79598 0.59156 0.92061 0.0
C199 C 0.80767 0.59538 0.87666 0.0
N200 N 0.79657 0.55331 0.85712 0.0
N201 N 0.77684 0.54764 0.92856 0.0
C202 C 0.77891 0.52467 0.8893 0.0
H203 H 0.79915 0.61987 0.94494 0.0
Co204 Co 0.74634 0.53305 0.98189 0.0
C205 C 0.70525 0.43266 0.95787 0.0
O206 O 0.72835 0.40764 0.98898 0.0
N207 N 0.71492 0.52292 0.03699 0.0
C208 C 0.65872 0.5063 0.08873 0.0
C209 C 0.68286 0.48938 0.05161 0.0
C210 C 0.70966 0.55959 0.06654 0.0
N211 N 0.67478 0.55103 0.09756 0.0
O212 O 0.69022 0.57177 0.96381 0.0
H213 H 0.67298 0.45681 0.03487 0.0
H214 H 0.72787 0.5939 0.06309 0.0
O215 O 0.7118 0.47832 0.95431 0.0
C216 C 0.68582 0.6175 0.9682 0.0
O217 O 0.71848 0.64001 0.99238 0.0
N218 N 0.80412 0.49605 0.99828 0.0
C219 C 0.90517 0.46734 1.00566 0.0
C220 C 0.87328 0.44389 0.97647 0.0
C221 C 0.8234 0.45939 0.97261 0.0
C222 C 0.83354 0.51693 0.02917 0.0
C223 C 0.88407 0.50305 0.03351 0.0
H224 H 0.80192 0.44443 0.94624 0.0
H225 H 0.81898 0.54735 0.04805 0.0
H226 H 0.76656 0.48831 0.88393 0.0
H227 H 0.82193 0.62695 0.86006 0.0
H228 H 0.62903 0.48837 0.10601 0.0
H229 H 0.88732 0.41539 0.95496 0.0
H230 H 0.9071 0.52245 0.05643 0.0
C231 C 0.4478 0.81304 0.17976 0.0
C232 C 0.44323 0.82075 0.13514 0.0
N233 N 0.46071 0.78082 0.11405 0.0
N234 N 0.46867 0.76868 0.1867 0.0
C235 C 0.47529 0.74971 0.14617 0.0
H236 H 0.43671 0.83809 0.20556 0.0
Co237 Co 0.48038 0.73887 0.24096 0.0
C238 C 0.58382 0.69363 0.21607 0.0
O239 O 0.61226 0.71859 0.24237 0.0
N240 N 0.48914 0.70832 0.2958 0.0
C241 C 0.51536 0.67476 0.3587 0.0
C242 C 0.52928 0.70079 0.32188 0.0
C243 C 0.45144 0.68725 0.31771 0.0
N244 N 0.46622 0.66626 0.35587 0.0
O245 O 0.44039 0.68747 0.22267 0.0
H246 H 0.56622 0.71331 0.31486 0.0
H247 H 0.41342 0.68744 0.30594 0.0
O248 O 0.53674 0.70174 0.21588 0.0
C249 C 0.39471 0.69554 0.21397 0.0
O250 O 0.37421 0.73791 0.22396 0.0
N251 N 0.51865 0.79208 0.2579 0.0
C252 C 0.53765 0.89137 0.26288 0.0
C253 C 0.56021 0.86208 0.23024 0.0
C254 C 0.55107 0.81238 0.22886 0.0
C255 C 0.49952 0.81887 0.29192 0.0
C256 C 0.50923 0.86835 0.29543 0.0
H257 H 0.56425 0.79207 0.20058 0.0
H258 H 0.47259 0.80315 0.31394 0.0
H259 H 0.48881 0.71311 0.14054 0.0
H260 H 0.42879 0.85349 0.11945 0.0
H261 H 0.53981 0.66219 0.38488 0.0
H262 H 0.58096 0.8777 0.20338 0.0
H263 H 0.49164 0.88903 0.32173 0.0
C264 C 0.18992 0.52055 0.28745 0.0
C265 C 0.22152 0.48679 0.30877 0.0
C266 C 0.19045 0.52539 0.24159 0.0
C267 C 0.22186 0.49583 0.21508 0.0
H268 H 0.16452 0.54332 0.30655 0.0
H269 H 0.16578 0.5525 0.22689 0.0
S270 S 0.31079 0.40029 0.25608 0.0
N271 N 0.28519 0.42343 0.30113 0.0
N272 N 0.28505 0.43051 0.21453 0.0
C273 C 0.25407 0.46192 0.23637 0.0
C274 C 0.25411 0.45784 0.28332 0.0
C275 C 0.58199 0.17296 0.49306 0.0
C276 C 0.57712 0.21696 0.46979 0.0
C277 C 0.58822 0.17216 0.53866 0.0
C278 C 0.58996 0.2154 0.56292 0.0
H279 H 0.57876 0.13876 0.47596 0.0
H280 H 0.58919 0.13734 0.55523 0.0
S281 S 0.58693 0.34035 0.51692 0.0
N282 N 0.57947 0.305 0.47368 0.0
N283 N 0.59279 0.30355 0.55976 0.0
C284 C 0.58871 0.25978 0.53981 0.0
C285 C 0.58216 0.26056 0.49309 0.0
C286 C 0.82624 0.49261 0.74938 0.0
C287 C 0.80433 0.52485 0.71847 0.0
C288 C 0.82259 0.50145 0.79481 0.0
C289 C 0.79777 0.54327 0.81074 0.0
H290 H 0.84622 0.46026 0.73831 0.0
H291 H 0.84021 0.47613 0.81765 0.0
S292 S 0.73162 0.63765 0.74436 0.0
N293 N 0.75523 0.59941 0.70758 0.0
N294 N 0.74851 0.61569 0.79292 0.0
C295 C 0.7748 0.57521 0.78047 0.0
C296 C 0.778 0.56606 0.73432 0.0
C297 C 0.43608 0.79631 0.99287 0.0
C298 C 0.47629 0.77056 0.9739 0.0
C299 C 0.43001 0.79779 0.03873 0.0
C300 C 0.46437 0.77399 0.06704 0.0
H301 H 0.41049 0.81698 0.97211 0.0
H302 H 0.39894 0.81878 0.05214 0.0
S303 S 0.57555 0.70059 0.03208 0.0
N304 N 0.5498 0.71959 0.98554 0.0
N305 N 0.53963 0.72274 0.07179 0.0
C306 C 0.50386 0.7466 0.04795 0.0
C307 C 0.50959 0.74495 1.0013 0.0
C308 C 0.04034 0.44694 0.04343 0.0
C309 C 0.06756 0.44491 1.00362 0.0
C310 C 0.98808 0.45326 0.04387 0.0
C311 C 0.96052 0.4576 1.00453 0.0
H312 H 0.05972 0.44537 0.0747 0.0
H313 H 0.96915 0.45523 0.07538 0.0
S314 S 1.01355 0.45354 0.89128 0.0
N315 N 0.06243 0.44593 0.92373 0.0
N316 N 0.96497 0.45941 0.92442 0.0
C317 C 0.98723 0.45476 0.96445 0.0
C318 C 0.04039 0.44813 0.96404 0.0
C319 C 0.49375 0.02441 0.26663 0.0
C320 C 0.53585 0.05006 0.25318 0.0
C321 C 0.49494 0.97356 0.26971 0.0
C322 C 0.53851 0.94575 0.26015 0.0
H323 H 0.45976 0.04377 0.27598 0.0
H324 H 0.46105 0.95597 0.27952 0.0
S325 S 0.65855 0.99495 0.22133 0.0
N326 N 0.62149 0.04325 0.22687 0.0
N327 N 0.62499 0.94833 0.23622 0.0
C328 C 0.58079 0.97091 0.24613 0.0
C329 C 0.57918 0.02271 0.24188 0.0
C330 C 0.04358 0.56939 0.55183 0.0
C331 C 0.07247 0.56773 0.51309 0.0
C332 C 0.99139 0.57502 0.55027 0.0
C333 C 0.96568 0.57887 0.50986 0.0
H334 H 0.06136 0.56486 0.58365 0.0
H335 H 0.97088 0.57386 0.581 0.0
S336 S 0.02392 0.57908 0.39888 0.0
N337 N 0.07137 0.57192 0.43303 0.0
N338 N 0.97367 0.58357 0.43022 0.0
C339 C 0.99428 0.5792 0.47094 0.0
C340 C 0.04746 0.57349 0.47252 0.0
C341 C 0.53365 0.02453 0.77125 0.0
C342 C 0.49097 0.05333 0.76149 0.0
C343 C 0.53293 0.97381 0.76925 0.0
C344 C 0.48963 0.94948 0.75704 0.0
H345 H 0.56837 0.04127 0.77984 0.0
H346 H 0.56659 0.9535 0.77799 0.0
S347 S 0.36781 0.00773 0.72776 0.0
N348 N 0.40373 0.05356 0.73985 0.0
N349 N 0.40307 0.95823 0.73401 0.0
C350 C 0.44668 0.97773 0.74687 0.0
C351 C 0.44723 0.02954 0.74946 0.0
C352 C 0.34012 0.68514 0.14906 0.0
C353 C 0.37087 0.66415 0.18169 0.0
C354 C 0.32231 0.65737 0.11432 0.0
C355 C 0.33451 0.6076 0.11101 0.0
H356 H 0.33091 0.72364 0.14954 0.0
H357 H 0.29886 0.67518 0.08982 0.0
S358 S 0.41094 0.53485 0.19045 0.0
N359 N 0.41114 0.59064 0.21007 0.0
N360 N 0.37746 0.53796 0.1449 0.0
C361 C 0.36475 0.586 0.14395 0.0
C362 C 0.38291 0.61441 0.1793 0.0
C363 C 0.33681 0.29779 0.34982 0.0
C364 C 0.38923 0.2968 0.35114 0.0
C365 C 0.30855 0.32515 0.38011 0.0
C366 C 0.33156 0.35292 0.4127 0.0
H367 H 0.31726 0.27772 0.32487 0.0
H368 H 0.26831 0.32548 0.37718 0.0
S369 S 0.46727 0.35988 0.43315 0.0
N370 N 0.46289 0.32382 0.39008 0.0
N371 N 0.40948 0.37603 0.44622 0.0
C372 C 0.38379 0.35181 0.41501 0.0
C373 C 0.41268 0.32356 0.38445 0.0
C374 C 0.70284 0.32049 0.64912 0.0
C375 C 0.66565 0.33864 0.67766 0.0
C376 C 0.72218 0.34948 0.61574 0.0
C377 C 0.7052 0.39774 0.60984 0.0
H378 H 0.71619 0.28315 0.65169 0.0
H379 H 0.7507 0.33382 0.59443 0.0
S380 S 0.6099 0.4631 0.6779 0.0
N381 N 0.61344 0.40795 0.69915 0.0
N382 N 0.65 0.46296 0.63661 0.0
C383 C 0.66828 0.41654 0.63861 0.0
C384 C 0.64853 0.38687 0.67254 0.0
C385 C 0.65526 0.69689 0.93765 0.0
C386 C 0.65429 0.64585 0.93676 0.0
C387 C 0.63766 0.72473 0.90206 0.0
C388 C 0.61848 0.70259 0.8644 0.0
H389 H 0.67264 0.71549 0.96475 0.0
H390 H 0.64224 0.76368 0.90275 0.0
S391 S 0.60227 0.57123 0.84695 0.0
N392 N 0.62653 0.57484 0.89674 0.0
N393 N 0.59701 0.62752 0.82869 0.0
C394 C 0.61404 0.65213 0.86408 0.0
C395 C 0.63088 0.62365 0.90071 0.0
C396 C 0.364 0.33418 0.12156 0.0
C397 C 0.36724 0.37786 0.09779 0.0
C398 C 0.40249 0.31843 0.15006 0.0
C399 C 0.44621 0.34513 0.15501 0.0
H400 H 0.33106 0.3125 0.11881 0.0
H401 H 0.39828 0.28481 0.16804 0.0
S402 S 0.47386 0.46099 0.09875 0.0
N403 N 0.41809 0.44713 0.08048 0.0
N404 N 0.4905 0.41712 0.13329 0.0
C405 C 0.45019 0.38846 0.13087 0.0
C406 C 0.41068 0.40494 0.10253 0.0
C407 C 0.66272 0.37329 0.36712 0.0
C408 C 0.61259 0.37736 0.35342 0.0
C409 C 0.68391 0.40802 0.39447 0.0
C410 C 0.65629 0.44892 0.40883 0.0
H411 H 0.68594 0.34247 0.35724 0.0
H412 H 0.72251 0.40306 0.40419 0.0
S413 S 0.52353 0.47724 0.38301 0.0
N414 N 0.53568 0.42578 0.3568 0.0
N415 N 0.57583 0.4915 0.40798 0.0
C416 C 0.60618 0.45388 0.39535 0.0
C417 C 0.58425 0.41797 0.36783 0.0
C418 C 0.62866 0.68399 0.65166 0.0
C419 C 0.58382 0.65865 0.65376 0.0
C420 C 0.66729 0.66949 0.6229 0.0
C421 C 0.66297 0.62831 0.59611 0.0
H422 H 0.6337 0.71544 0.67233 0.0
H423 H 0.70127 0.68986 0.62255 0.0
S424 S 0.55317 0.54958 0.58924 0.0
N425 N 0.53698 0.59114 0.62608 0.0
N426 N 0.61015 0.56263 0.57316 0.0
C427 C 0.61836 0.60259 0.59798 0.0
C428 C 0.57859 0.61812 0.62645 0.0
C429 C 0.38479 0.54676 0.86417 0.0
C430 C 0.39689 0.54287 0.90904 0.0
C431 C 0.40877 0.57983 0.83662 0.0
C432 C 0.44668 0.60959 0.85251 0.0
H433 H 0.3547 0.52589 0.85086 0.0
H434 H 0.39608 0.5835 0.80288 0.0
S435 S 0.49714 0.60786 0.96625 0.0
N436 N 0.45217 0.56801 0.96744 0.0
N437 N 0.49865 0.62908 0.9153 0.0
C438 C 0.46174 0.60339 0.89662 0.0
C439 C 0.43636 0.57045 0.92501 0.0
C440 C 0.36654 0.58353 0.39743 0.0
C441 C 0.37103 0.58669 0.44352 0.0
C442 C 0.39786 0.60938 0.36918 0.0
C443 C 0.4355 0.63896 0.38577 0.0
H444 H 0.33798 0.56166 0.38294 0.0
H445 H 0.39272 0.60598 0.33396 0.0
S446 S 0.46431 0.6583 0.50385 0.0
N447 N 0.41722 0.62091 0.50445 0.0
N448 N 0.47591 0.66928 0.45136 0.0
C449 C 0.44107 0.64176 0.43175 0.0
C450 C 0.40884 0.61582 0.46057 0.0
C451 C 0.42137 0.40822 0.63695 0.0
C452 C 0.37539 0.39692 0.61791 0.0
C453 C 0.44658 0.37515 0.665 0.0
C454 C 0.42582 0.33031 0.67617 0.0
H455 H 0.43789 0.44283 0.62992 0.0
H456 H 0.48201 0.38526 0.67885 0.0
S457 S 0.30625 0.2838 0.6346 0.0
N458 N 0.31061 0.33774 0.61125 0.0
N459 N 0.35679 0.27624 0.66513 0.0
C460 C 0.37979 0.31874 0.65726 0.0
C461 C 0.35489 0.35187 0.62782 0.0
C462 C 0.64107 0.36912 0.94597 0.0
C463 C 0.66799 0.4086 0.9295 0.0
C464 C 0.60618 0.34521 0.9197 0.0
C465 C 0.59802 0.35916 0.87572 0.0
H466 H 0.64694 0.35659 0.97946 0.0
H467 H 0.58681 0.31458 0.93324 0.0
S468 S 0.65826 0.45944 0.81624 0.0
N469 N 0.68199 0.46111 0.86635 0.0
N470 N 0.6189 0.41444 0.81675 0.0
C471 C 0.62418 0.39856 0.85895 0.0
C472 C 0.65846 0.42377 0.8859 0.0
C473 C 0.65877 0.65111 0.18161 0.0
C474 C 0.60649 0.65644 0.18565 0.0
C475 C 0.6809 0.61685 0.15273 0.0
C476 C 0.65171 0.58617 0.12704 0.0
H477 H 0.68299 0.67374 0.20075 0.0
H478 H 0.72114 0.61395 0.15074 0.0
S479 S 0.5135 0.58711 0.1225 0.0
N480 N 0.52635 0.62807 0.16003 0.0
N481 N 0.56792 0.56549 0.10513 0.0
C482 C 0.59954 0.59153 0.13012 0.0
C483 C 0.57699 0.62612 0.15955 0.0
loop_
_geom_bond_atom_site_label_1
_geom_bond_atom_site_label_2
_geom_bond_distance
_geom_bond_site_symmetry_2
_ccdc_geom_bond_type
C0 C1 1.351 . S
C0 N3 1.368 . S
C0 H5 0.931 . S
C1 C0 1.351 . S
C1 N2 1.373 . S
C1 H29 0.930 . S
N2 C1 1.373 . S
N2 C4 1.340 . S
N3 C0 1.368 . S
N3 C4 1.321 . S
N3 Co6 2.135 . S
C4 N2 1.340 . S
C4 N3 1.321 . S
C4 H28 0.930 . S
H5 C0 0.931 . S
Co6 N3 2.135 . S
Co6 N9 2.121 . S
Co6 O14 2.055 . S
Co6 O17 2.039 . S
Co6 N20 2.140 . S
C7 O8 1.227 . S
C7 O17 1.265 . S
O8 C7 1.227 . S
N9 Co6 2.121 . S
N9 C11 1.375 1_554 S
N9 C12 1.313 1_554 S
C10 C11 1.338 . S
C10 N13 1.377 . S
C10 H30 0.930 . S
C11 N9 1.375 1_556 S
C11 C10 1.338 . S
C11 H15 0.931 . S
C12 N9 1.313 1_556 S
C12 N13 1.344 . S
C12 H16 0.930 . S
N13 C10 1.377 . S
N13 C12 1.344 . S
O14 Co6 2.055 . S
O14 C18 1.253 . S
H15 C11 0.931 . S
H16 C12 0.930 . S
O17 Co6 2.039 . S
O17 C7 1.265 . S
C18 O14 1.253 . S
C18 O19 1.227 . S
O19 C18 1.227 . S
N20 Co6 2.140 . S
N20 C23 1.346 . S
N20 C24 1.345 . S
C21 C22 1.387 . S
C21 C25 1.391 1_554 S
C22 C21 1.387 . S
C22 C23 1.369 . S
C22 H31 0.929 . S
C23 N20 1.346 . S
C23 C22 1.369 . S
C23 H26 0.928 . S
C24 N20 1.345 . S
C24 C25 1.371 1_554 S
C24 H27 0.931 1_554 S
C25 C21 1.391 1_556 S
C25 C24 1.371 1_556 S
C25 H32 0.930 . S
H26 C23 0.928 . S
H27 C24 0.931 1_556 S
H28 C4 0.930 . S
H29 C1 0.930 . S
H30 C10 0.930 . S
H31 C22 0.929 . S
H32 C25 0.930 . S
C33 C34 1.351 . S
C33 N36 1.368 . S
C33 H38 0.931 . S
C34 C33 1.351 . S
C34 N35 1.373 . S
C34 H62 0.930 . S
N35 C34 1.373 . S
N35 C37 1.340 . S
N36 C33 1.368 . S
N36 C37 1.321 . S
N36 Co39 2.135 . S
C37 N35 1.340 . S
C37 N36 1.321 . S
C37 H61 0.930 . S
H38 C33 0.931 . S
Co39 N36 2.135 . S
Co39 N42 2.121 . S
Co39 O47 2.055 . S
Co39 O50 2.039 . S
Co39 N53 2.140 . S
C40 O41 1.227 . S
C40 O50 1.265 . S
O41 C40 1.227 . S
N42 Co39 2.121 . S
N42 C44 1.375 . S
N42 C45 1.313 . S
C43 C44 1.338 . S
C43 N46 1.377 . S
C43 H63 0.930 . S
C44 N42 1.375 . S
C44 C43 1.338 . S
C44 H48 0.931 . S
C45 N42 1.313 . S
C45 N46 1.344 . S
C45 H49 0.930 . S
N46 C43 1.377 . S
N46 C45 1.344 . S
O47 Co39 2.055 . S
O47 C51 1.253 . S
H48 C44 0.931 . S
H49 C45 0.930 . S
O50 Co39 2.039 . S
O50 C40 1.265 . S
C51 O47 1.253 . S
C51 O52 1.227 . S
O52 C51 1.227 . S
N53 Co39 2.140 . S
N53 C56 1.346 . S
N53 C57 1.345 . S
C54 C55 1.387 . S
C54 C58 1.391 . S
C55 C54 1.387 . S
C55 C56 1.369 . S
C55 H64 0.929 . S
C56 N53 1.346 . S
C56 C55 1.369 . S
C56 H59 0.928 . S
C57 N53 1.345 . S
C57 C58 1.371 . S
C57 H60 0.931 . S
C58 C54 1.391 . S
C58 C57 1.371 . S
C58 H65 0.930 . S
H59 C56 0.928 . S
H60 C57 0.931 . S
H61 C37 0.930 . S
H62 C34 0.930 . S
H63 C43 0.930 . S
H64 C55 0.929 . S
H65 C58 0.930 . S
C66 C67 1.351 . S
C66 N69 1.368 . S
C66 H71 0.931 . S
C67 C66 1.351 . S
C67 N68 1.373 . S
C67 H95 0.930 . S
N68 C67 1.373 . S
N68 C70 1.340 . S
N69 C66 1.368 . S
N69 C70 1.321 . S
N69 Co72 2.135 . S
C70 N68 1.340 . S
C70 N69 1.321 . S
C70 H94 0.930 . S
H71 C66 0.931 . S
Co72 N69 2.135 . S
Co72 N75 2.121 . S
Co72 O80 2.055 . S
Co72 O83 2.039 . S
Co72 N86 2.140 . S
C73 O74 1.227 . S
C73 O83 1.265 . S
O74 C73 1.227 . S
N75 Co72 2.121 . S
N75 C77 1.375 . S
N75 C78 1.313 . S
C76 C77 1.338 . S
C76 N79 1.377 . S
C76 H96 0.930 . S
C77 N75 1.375 . S
C77 C76 1.338 . S
C77 H81 0.931 . S
C78 N75 1.313 . S
C78 N79 1.344 . S
C78 H82 0.930 . S
N79 C76 1.377 . S
N79 C78 1.344 . S
O80 Co72 2.055 . S
O80 C84 1.253 . S
H81 C77 0.931 . S
H82 C78 0.930 . S
O83 Co72 2.039 . S
O83 C73 1.265 . S
C84 O80 1.253 . S
C84 O85 1.227 . S
O85 C84 1.227 . S
N86 Co72 2.140 . S
N86 C89 1.346 . S
N86 C90 1.345 . S
C87 C88 1.387 . S
C87 C91 1.391 . S
C88 C87 1.387 . S
C88 C89 1.369 . S
C88 H97 0.929 . S
C89 N86 1.346 . S
C89 C88 1.369 . S
C89 H92 0.928 . S
C90 N86 1.345 . S
C90 C91 1.371 . S
C90 H93 0.931 . S
C91 C87 1.391 . S
C91 C90 1.371 . S
C91 H98 0.930 . S
H92 C89 0.928 . S
H93 C90 0.931 . S
H94 C70 0.930 . S
H95 C67 0.930 . S
H96 C76 0.930 . S
H97 C88 0.929 . S
H98 C91 0.930 . S
C99 C100 1.351 . S
C99 N102 1.368 . S
C99 H104 0.931 . S
C100 C99 1.351 . S
C100 N101 1.373 . S
C100 H128 0.930 . S
N101 C100 1.373 . S
N101 C103 1.340 . S
N102 C99 1.368 . S
N102 C103 1.321 . S
N102 Co105 2.135 . S
C103 N101 1.340 . S
C103 N102 1.321 . S
C103 H127 0.930 . S
H104 C99 0.931 . S
Co105 N102 2.135 . S
Co105 N108 2.121 . S
Co105 O113 2.055 . S
Co105 O116 2.039 . S
Co105 N119 2.140 . S
C106 O107 1.227 . S
C106 O116 1.265 . S
O107 C106 1.227 . S
N108 Co105 2.121 . S
N108 C110 1.375 . S
N108 C111 1.313 . S
C109 C110 1.338 . S
C109 N112 1.377 . S
C109 H129 0.930 . S
C110 N108 1.375 . S
C110 C109 1.338 . S
C110 H114 0.931 . S
C111 N108 1.313 . S
C111 N112 1.344 . S
C111 H115 0.930 . S
N112 C109 1.377 . S
N112 C111 1.344 . S
O113 Co105 2.055 . S
O113 C117 1.253 . S
H114 C110 0.931 . S
H115 C111 0.930 . S
O116 Co105 2.039 . S
O116 C106 1.265 . S
C117 O113 1.253 . S
C117 O118 1.227 . S
O118 C117 1.227 . S
N119 Co105 2.140 . S
N119 C122 1.346 . S
N119 C123 1.345 . S
C120 C121 1.387 . S
C120 C124 1.391 . S
C121 C120 1.387 . S
C121 C122 1.369 . S
C121 H130 0.929 . S
C122 N119 1.346 . S
C122 C121 1.369 . S
C122 H125 0.928 . S
C123 N119 1.345 . S
C123 C124 1.371 . S
C123 H126 0.931 . S
C124 C120 1.391 . S
C124 C123 1.371 . S
C124 H131 0.930 . S
H125 C122 0.928 . S
H126 C123 0.931 . S
H127 C103 0.930 . S
H128 C100 0.930 . S
H129 C109 0.930 . S
H130 C121 0.929 . S
H131 C124 0.930 . S
C132 C133 1.351 . S
C132 N135 1.368 . S
C132 H137 0.931 . S
C133 C132 1.351 . S
C133 N134 1.373 . S
C133 H161 0.930 . S
N134 C133 1.373 . S
N134 C136 1.340 . S
N135 C132 1.368 . S
N135 C136 1.321 . S
N135 Co138 2.135 . S
C136 N134 1.340 . S
C136 N135 1.321 . S
C136 H160 0.930 . S
H137 C132 0.931 . S
Co138 N135 2.135 . S
Co138 N141 2.121 . S
Co138 O146 2.055 . S
Co138 O149 2.039 . S
Co138 N152 2.140 . S
C139 O140 1.227 . S
C139 O149 1.265 . S
O140 C139 1.227 . S
N141 Co138 2.121 . S
N141 C143 1.375 . S
N141 C144 1.313 . S
C142 C143 1.338 . S
C142 N145 1.377 . S
C142 H162 0.930 . S
C143 N141 1.375 . S
C143 C142 1.338 . S
C143 H147 0.931 . S
C144 N141 1.313 . S
C144 N145 1.344 . S
C144 H148 0.930 . S
N145 C142 1.377 . S
N145 C144 1.344 . S
O146 Co138 2.055 . S
O146 C150 1.253 . S
H147 C143 0.931 . S
H148 C144 0.930 . S
O149 Co138 2.039 . S
O149 C139 1.265 . S
C150 O146 1.253 . S
C150 O151 1.227 . S
O151 C150 1.227 . S
N152 Co138 2.140 . S
N152 C155 1.346 . S
N152 C156 1.345 . S
C153 C154 1.387 . S
C153 C157 1.391 . S
C154 C153 1.387 . S
C154 C155 1.369 . S
C154 H163 0.929 . S
C155 N152 1.346 . S
C155 C154 1.369 . S
C155 H158 0.928 . S
C156 N152 1.345 . S
C156 C157 1.371 . S
C156 H159 0.931 . S
C157 C153 1.391 . S
C157 C156 1.371 . S
C157 H164 0.930 . S
H158 C155 0.928 . S
H159 C156 0.931 . S
H160 C136 0.930 . S
H161 C133 0.930 . S
H162 C142 0.930 . S
H163 C154 0.929 . S
H164 C157 0.930 . S
C165 C166 1.351 . S
C165 N168 1.368 . S
C165 H170 0.931 . S
C166 C165 1.351 . S
C166 N167 1.373 . S
C166 H194 0.930 . S
N167 C166 1.373 . S
N167 C169 1.340 . S
N168 C165 1.368 . S
N168 C169 1.321 . S
N168 Co171 2.135 . S
C169 N167 1.340 . S
C169 N168 1.321 . S
C169 H193 0.930 . S
H170 C165 0.931 . S
Co171 N168 2.135 . S
Co171 N174 2.121 . S
Co171 O179 2.055 . S
Co171 O182 2.039 . S
Co171 N185 2.140 . S
C172 O173 1.227 . S
C172 O182 1.265 . S
O173 C172 1.227 . S
N174 Co171 2.121 . S
N174 C176 1.375 . S
N174 C177 1.313 . S
C175 C176 1.338 . S
C175 N178 1.377 . S
C175 H195 0.930 . S
C176 N174 1.375 . S
C176 C175 1.338 . S
C176 H180 0.931 . S
C177 N174 1.313 . S
C177 N178 1.344 . S
C177 H181 0.930 . S
N178 C175 1.377 . S
N178 C177 1.344 . S
O179 Co171 2.055 . S
O179 C183 1.253 . S
H180 C176 0.931 . S
H181 C177 0.930 . S
O182 Co171 2.039 . S
O182 C172 1.265 . S
C183 O179 1.253 . S
C183 O184 1.227 . S
O184 C183 1.227 . S
N185 Co171 2.140 . S
N185 C188 1.346 . S
N185 C189 1.345 . S
C186 C187 1.387 . S
C186 C190 1.391 . S
C187 C186 1.387 . S
C187 C188 1.369 . S
C187 H196 0.929 . S
C188 N185 1.346 . S
C188 C187 1.369 . S
C188 H191 0.928 . S
C189 N185 1.345 . S
C189 C190 1.371 . S
C189 H192 0.931 . S
C190 C186 1.391 . S
C190 C189 1.371 . S
C190 H197 0.930 . S
H191 C188 0.928 . S
H192 C189 0.931 . S
H193 C169 0.930 . S
H194 C166 0.930 . S
H195 C175 0.930 . S
H196 C187 0.929 . S
H197 C190 0.930 . S
C198 C199 1.351 . S
C198 N201 1.368 . S
C198 H203 0.931 . S
C199 C198 1.351 . S
C199 N200 1.373 . S
C199 H227 0.930 . S
N200 C199 1.373 . S
N200 C202 1.340 . S
N201 C198 1.368 . S
N201 C202 1.321 . S
N201 Co204 2.135 . S
C202 N200 1.340 . S
C202 N201 1.321 . S
C202 H226 0.930 . S
H203 C198 0.931 . S
Co204 N201 2.135 . S
Co204 N207 2.121 . S
Co204 O212 2.055 . S
Co204 O215 2.039 . S
Co204 N218 2.140 . S
C205 O206 1.227 . S
C205 O215 1.265 . S
O206 C205 1.227 . S
N207 Co204 2.121 . S
N207 C209 1.375 1_556 S
N207 C210 1.313 1_556 S
C208 C209 1.338 . S
C208 N211 1.377 . S
C208 H228 0.930 . S
C209 N207 1.375 1_554 S
C209 C208 1.338 . S
C209 H213 0.931 . S
C210 N207 1.313 1_554 S
C210 N211 1.344 . S
C210 H214 0.930 . S
N211 C208 1.377 . S
N211 C210 1.344 . S
O212 Co204 2.055 . S
O212 C216 1.253 . S
H213 C209 0.931 . S
H214 C210 0.930 . S
O215 Co204 2.039 . S
O215 C205 1.265 . S
C216 O212 1.253 . S
C216 O217 1.227 . S
O217 C216 1.227 . S
N218 Co204 2.140 . S
N218 C221 1.346 . S
N218 C222 1.345 . S
C219 C220 1.387 . S
C219 C223 1.391 1_556 S
C220 C219 1.387 . S
C220 C221 1.369 . S
C220 H229 0.929 . S
C221 N218 1.346 . S
C221 C220 1.369 . S
C221 H224 0.928 . S
C222 N218 1.345 . S
C222 C223 1.371 1_556 S
C222 H225 0.931 1_556 S
C223 C219 1.391 1_554 S
C223 C222 1.371 1_554 S
C223 H230 0.930 . S
H224 C221 0.928 . S
H225 C222 0.931 1_554 S
H226 C202 0.930 . S
H227 C199 0.930 . S
H228 C208 0.930 . S
H229 C220 0.929 . S
H230 C223 0.930 . S
C231 C232 1.351 . S
C231 N234 1.368 . S
C231 H236 0.931 . S
C232 C231 1.351 . S
C232 N233 1.373 . S
C232 H260 0.930 . S
N233 C232 1.373 . S
N233 C235 1.340 . S
N234 C231 1.368 . S
N234 C235 1.321 . S
N234 Co237 2.135 . S
C235 N233 1.340 . S
C235 N234 1.321 . S
C235 H259 0.930 . S
H236 C231 0.931 . S
Co237 N234 2.135 . S
Co237 N240 2.121 . S
Co237 O245 2.055 . S
Co237 O248 2.039 . S
Co237 N251 2.140 . S
C238 O239 1.227 . S
C238 O248 1.265 . S
O239 C238 1.227 . S
N240 Co237 2.121 . S
N240 C242 1.375 . S
N240 C243 1.313 . S
C241 C242 1.338 . S
C241 N244 1.377 . S
C241 H261 0.930 . S
C242 N240 1.375 . S
C242 C241 1.338 . S
C242 H246 0.931 . S
C243 N240 1.313 . S
C243 N244 1.344 . S
C243 H247 0.930 . S
N244 C241 1.377 . S
N244 C243 1.344 . S
O245 Co237 2.055 . S
O245 C249 1.253 . S
H246 C242 0.931 . S
H247 C243 0.930 . S
O248 Co237 2.039 . S
O248 C238 1.265 . S
C249 O245 1.253 . S
C249 O250 1.227 . S
O250 C249 1.227 . S
N251 Co237 2.140 . S
N251 C254 1.346 . S
N251 C255 1.345 . S
C252 C253 1.387 . S
C252 C256 1.391 . S
C253 C252 1.387 . S
C253 C254 1.369 . S
C253 H262 0.929 . S
C254 N251 1.346 . S
C254 C253 1.369 . S
C254 H257 0.928 . S
C255 N251 1.345 . S
C255 C256 1.371 . S
C255 H258 0.931 . S
C256 C252 1.391 . S
C256 C255 1.371 . S
C256 H263 0.930 . S
H257 C254 0.928 . S
H258 C255 0.931 . S
H259 C235 0.930 . S
H260 C232 0.930 . S
H261 C241 0.930 . S
H262 C253 0.929 . S
H263 C256 0.930 . S
C264 C265 1.369 . S
C264 C266 1.419 . S
C264 H268 0.930 . S
C265 C264 1.369 . S
C265 C274 1.429 . S
C266 C264 1.419 . S
C266 C267 1.363 . S
C266 H269 0.929 . S
C267 C266 1.363 . S
C267 C273 1.428 . S
H268 C264 0.930 . S
H269 C266 0.929 . S
S270 N271 1.613 . S
S270 N272 1.610 . S
N271 S270 1.613 . S
N271 C274 1.350 . S
N272 S270 1.610 . S
N272 C273 1.351 . S
C273 C267 1.428 . S
C273 N272 1.351 . S
C273 C274 1.434 . S
C274 C265 1.429 . S
C274 N271 1.350 . S
C274 C273 1.434 . S
C275 C276 1.369 . S
C275 C277 1.419 . S
C275 H279 0.930 . S
C276 C275 1.369 . S
C276 C285 1.429 . S
C277 C275 1.419 . S
C277 C278 1.363 . S
C277 H280 0.929 . S
C278 C277 1.363 . S
C278 C284 1.428 . S
H279 C275 0.930 . S
H280 C277 0.929 . S
S281 N282 1.613 . S
S281 N283 1.610 . S
N282 S281 1.613 . S
N282 C285 1.350 . S
N283 S281 1.610 . S
N283 C284 1.351 . S
C284 C278 1.428 . S
C284 N283 1.351 . S
C284 C285 1.434 . S
C285 C276 1.429 . S
C285 N282 1.350 . S
C285 C284 1.434 . S
C286 C287 1.369 . S
C286 C288 1.419 . S
C286 H290 0.930 . S
C287 C286 1.369 . S
C287 C296 1.429 . S
C288 C286 1.419 . S
C288 C289 1.363 . S
C288 H291 0.929 . S
C289 C288 1.363 . S
C289 C295 1.428 . S
H290 C286 0.930 . S
H291 C288 0.929 . S
S292 N293 1.613 . S
S292 N294 1.610 . S
N293 S292 1.613 . S
N293 C296 1.350 . S
N294 S292 1.610 . S
N294 C295 1.351 . S
C295 C289 1.428 . S
C295 N294 1.351 . S
C295 C296 1.434 . S
C296 C287 1.429 . S
C296 N293 1.350 . S
C296 C295 1.434 . S
C297 C298 1.369 . S
C297 C299 1.419 1_556 S
C297 H301 0.930 . S
C298 C297 1.369 . S
C298 C307 1.429 . S
C299 C297 1.419 1_554 S
C299 C300 1.363 . S
C299 H302 0.929 . S
C300 C299 1.363 . S
C300 C306 1.428 . S
H301 C297 0.930 . S
H302 C299 0.929 . S
S303 N304 1.613 1_554 S
S303 N305 1.610 . S
N304 S303 1.613 1_556 S
N304 C307 1.350 . S
N305 S303 1.610 . S
N305 C306 1.351 . S
C306 C300 1.428 . S
C306 N305 1.351 . S
C306 C307 1.434 1_554 S
C307 C298 1.429 . S
C307 N304 1.350 . S
C307 C306 1.434 1_556 S
C308 C309 1.369 1_554 S
C308 C310 1.419 1_455 S
C308 H312 0.930 . S
C309 C308 1.369 1_556 S
C309 C318 1.429 . S
C310 C308 1.419 1_655 S
C310 C311 1.363 . S
C310 H313 0.929 . S
C311 C310 1.363 . S
C311 C317 1.428 1_554 S
H312 C308 0.930 . S
H313 C310 0.929 . S
S314 N315 1.613 1_655 S
S314 N316 1.610 . S
N315 S314 1.613 1_455 S
N315 C318 1.350 . S
N316 S314 1.610 . S
N316 C317 1.351 . S
C317 C311 1.428 1_556 S
C317 N316 1.351 . S
C317 C318 1.434 1_655 S
C318 C309 1.429 . S
C318 N315 1.350 . S
C318 C317 1.434 1_455 S
C319 C320 1.369 . S
C319 C321 1.419 1_545 S
C319 H323 0.930 . S
C320 C319 1.369 . S
C320 C329 1.429 . S
C321 C319 1.419 1_565 S
C321 C322 1.363 . S
C321 H324 0.929 . S
C322 C321 1.363 . S
C322 C328 1.428 . S
H323 C319 0.930 . S
H324 C321 0.929 . S
S325 N326 1.613 1_565 S
S325 N327 1.610 . S
N326 S325 1.613 1_545 S
N326 C329 1.350 . S
N327 S325 1.610 . S
N327 C328 1.351 . S
C328 C322 1.428 . S
C328 N327 1.351 . S
C328 C329 1.434 1_565 S
C329 C320 1.429 . S
C329 N326 1.350 . S
C329 C328 1.434 1_545 S
C330 C331 1.369 . S
C330 C332 1.419 1_455 S
C330 H334 0.930 . S
C331 C330 1.369 . S
C331 C340 1.429 . S
C332 C330 1.419 1_655 S
C332 C333 1.363 . S
C332 H335 0.929 . S
C333 C332 1.363 . S
C333 C339 1.428 . S
H334 C330 0.930 . S
H335 C332 0.929 . S
S336 N337 1.613 . S
S336 N338 1.610 1_455 S
N337 S336 1.613 . S
N337 C340 1.350 . S
N338 S336 1.610 1_655 S
N338 C339 1.351 . S
C339 C333 1.428 . S
C339 N338 1.351 . S
C339 C340 1.434 1_655 S
C340 C331 1.429 . S
C340 N337 1.350 . S
C340 C339 1.434 1_455 S
C341 C342 1.369 . S
C341 C343 1.419 1_545 S
C341 H345 0.930 . S
C342 C341 1.369 . S
C342 C351 1.429 . S
C343 C341 1.419 1_565 S
C343 C344 1.363 . S
C343 H346 0.929 . S
C344 C343 1.363 . S
C344 C350 1.428 . S
H345 C341 0.930 . S
H346 C343 0.929 . S
S347 N348 1.613 1_565 S
S347 N349 1.610 . S
N348 S347 1.613 1_545 S
N348 C351 1.350 . S
N349 S347 1.610 . S
N349 C350 1.351 . S
C350 C344 1.428 . S
C350 N349 1.351 . S
C350 C351 1.434 1_565 S
C351 C342 1.429 . S
C351 N348 1.350 . S
C351 C350 1.434 1_545 S
C352 C353 1.369 . S
C352 C354 1.419 . S
C352 H356 0.930 . S
C353 C352 1.369 . S
C353 C362 1.429 . S
C354 C352 1.419 . S
C354 C355 1.363 . S
C354 H357 0.929 . S
C355 C354 1.363 . S
C355 C361 1.428 . S
H356 C352 0.930 . S
H357 C354 0.929 . S
S358 N359 1.613 . S
S358 N360 1.610 . S
N359 S358 1.613 . S
N359 C362 1.350 . S
N360 S358 1.610 . S
N360 C361 1.351 . S
C361 C355 1.428 . S
C361 N360 1.351 . S
C361 C362 1.434 . S
C362 C353 1.429 . S
C362 N359 1.350 . S
C362 C361 1.434 . S
C363 C364 1.369 . S
C363 C365 1.419 . S
C363 H367 0.930 . S
C364 C363 1.369 . S
C364 C373 1.429 . S
C365 C363 1.419 . S
C365 C366 1.363 . S
C365 H368 0.929 . S
C366 C365 1.363 . S
C366 C372 1.428 . S
H367 C363 0.930 . S
H368 C365 0.929 . S
S369 N370 1.613 . S
S369 N371 1.610 . S
N370 S369 1.613 . S
N370 C373 1.350 . S
N371 S369 1.610 . S
N371 C372 1.351 . S
C372 C366 1.428 . S
C372 N371 1.351 . S
C372 C373 1.434 . S
C373 C364 1.429 . S
C373 N370 1.350 . S
C373 C372 1.434 . S
C374 C375 1.369 . S
C374 C376 1.419 . S
C374 H378 0.930 . S
C375 C374 1.369 . S
C375 C384 1.429 . S
C376 C374 1.419 . S
C376 C377 1.363 . S
C376 H379 0.929 . S
C377 C376 1.363 . S
C377 C383 1.428 . S
H378 C374 0.930 . S
H379 C376 0.929 . S
S380 N381 1.613 . S
S380 N382 1.610 . S
N381 S380 1.613 . S
N381 C384 1.350 . S
N382 S380 1.610 . S
N382 C383 1.351 . S
C383 C377 1.428 . S
C383 N382 1.351 . S
C383 C384 1.434 . S
C384 C375 1.429 . S
C384 N381 1.350 . S
C384 C383 1.434 . S
C385 C386 1.369 . S
C385 C387 1.419 . S
C385 H389 0.930 . S
C386 C385 1.369 . S
C386 C395 1.429 . S
C387 C385 1.419 . S
C387 C388 1.363 . S
C387 H390 0.929 . S
C388 C387 1.363 . S
C388 C394 1.428 . S
H389 C385 0.930 . S
H390 C387 0.929 . S
S391 N392 1.613 . S
S391 N393 1.610 . S
N392 S391 1.613 . S
N392 C395 1.350 . S
N393 S391 1.610 . S
N393 C394 1.351 . S
C394 C388 1.428 . S
C394 N393 1.351 . S
C394 C395 1.434 . S
C395 C386 1.429 . S
C395 N392 1.350 . S
C395 C394 1.434 . S
C396 C397 1.369 . S
C396 C398 1.419 . S
C396 H400 0.930 . S
C397 C396 1.369 . S
C397 C406 1.429 . S
C398 C396 1.419 . S
C398 C399 1.363 . S
C398 H401 0.929 . S
C399 C398 1.363 . S
C399 C405 1.428 . S
H400 C396 0.930 . S
H401 C398 0.929 . S
S402 N403 1.613 . S
S402 N404 1.610 . S
N403 S402 1.613 . S
N403 C406 1.350 . S
N404 S402 1.610 . S
N404 C405 1.351 . S
C405 C399 1.428 . S
C405 N404 1.351 . S
C405 C406 1.434 . S
C406 C397 1.429 . S
C406 N403 1.350 . S
C406 C405 1.434 . S
C407 C408 1.369 . S
C407 C409 1.419 . S
C407 H411 0.930 . S
C408 C407 1.369 . S
C408 C417 1.429 . S
C409 C407 1.419 . S
C409 C410 1.363 . S
C409 H412 0.929 . S
C410 C409 1.363 . S
C410 C416 1.428 . S
H411 C407 0.930 . S
H412 C409 0.929 . S
S413 N414 1.613 . S
S413 N415 1.610 . S
N414 S413 1.613 . S
N414 C417 1.350 . S
N415 S413 1.610 . S
N415 C416 1.351 . S
C416 C410 1.428 . S
C416 N415 1.351 . S
C416 C417 1.434 . S
C417 C408 1.429 . S
C417 N414 1.350 . S
C417 C416 1.434 . S
C418 C419 1.369 . S
C418 C420 1.419 . S
C418 H422 0.930 . S
C419 C418 1.369 . S
C419 C428 1.429 . S
C420 C418 1.419 . S
C420 C421 1.363 . S
C420 H423 0.929 . S
C421 C420 1.363 . S
C421 C427 1.428 . S
H422 C418 0.930 . S
H423 C420 0.929 . S
S424 N425 1.613 . S
S424 N426 1.610 . S
N425 S424 1.613 . S
N425 C428 1.350 . S
N426 S424 1.610 . S
N426 C427 1.351 . S
C427 C421 1.428 . S
C427 N426 1.351 . S
C427 C428 1.434 . S
C428 C419 1.429 . S
C428 N425 1.350 . S
C428 C427 1.434 . S
C429 C430 1.369 . S
C429 C431 1.419 . S
C429 H433 0.930 . S
C430 C429 1.369 . S
C430 C439 1.429 . S
C431 C429 1.419 . S
C431 C432 1.363 . S
C431 H434 0.929 . S
C432 C431 1.363 . S
C432 C438 1.428 . S
H433 C429 0.930 . S
H434 C431 0.929 . S
S435 N436 1.613 . S
S435 N437 1.610 . S
N436 S435 1.613 . S
N436 C439 1.350 . S
N437 S435 1.610 . S
N437 C438 1.351 . S
C438 C432 1.428 . S
C438 N437 1.351 . S
C438 C439 1.434 . S
C439 C430 1.429 . S
C439 N436 1.350 . S
C439 C438 1.434 . S
C440 C441 1.369 . S
C440 C442 1.419 . S
C440 H444 0.930 . S
C441 C440 1.369 . S
C441 C450 1.429 . S
C442 C440 1.419 . S
C442 C443 1.363 . S
C442 H445 0.929 . S
C443 C442 1.363 . S
C443 C449 1.428 . S
H444 C440 0.930 . S
H445 C442 0.929 . S
S446 N447 1.613 . S
S446 N448 1.610 . S
N447 S446 1.613 . S
N447 C450 1.350 . S
N448 S446 1.610 . S
N448 C449 1.351 . S
C449 C443 1.428 . S
C449 N448 1.351 . S
C449 C450 1.434 . S
C450 C441 1.429 . S
C450 N447 1.350 . S
C450 C449 1.434 . S
C451 C452 1.369 . S
C451 C453 1.419 . S
C451 H455 0.930 . S
C452 C451 1.369 . S
C452 C461 1.429 . S
C453 C451 1.419 . S
C453 C454 1.363 . S
C453 H456 0.929 . S
C454 C453 1.363 . S
C454 C460 1.428 . S
H455 C451 0.930 . S
H456 C453 0.929 . S
S457 N458 1.613 . S
S457 N459 1.610 . S
N458 S457 1.613 . S
N458 C461 1.350 . S
N459 S457 1.610 . S
N459 C460 1.351 . S
C460 C454 1.428 . S
C460 N459 1.351 . S
C460 C461 1.434 . S
C461 C452 1.429 . S
C461 N458 1.350 . S
C461 C460 1.434 . S
C462 C463 1.369 . S
C462 C464 1.419 . S
C462 H466 0.930 . S
C463 C462 1.369 . S
C463 C472 1.429 . S
C464 C462 1.419 . S
C464 C465 1.363 . S
C464 H467 0.929 . S
C465 C464 1.363 . S
C465 C471 1.428 . S
H466 C462 0.930 . S
H467 C464 0.929 . S
S468 N469 1.613 . S
S468 N470 1.610 . S
N469 S468 1.613 . S
N469 C472 1.350 . S
N470 S468 1.610 . S
N470 C471 1.351 . S
C471 C465 1.428 . S
C471 N470 1.351 . S
C471 C472 1.434 . S
C472 C463 1.429 . S
C472 N469 1.350 . S
C472 C471 1.434 . S
C473 C474 1.369 . S
C473 C475 1.419 . S
C473 H477 0.930 . S
C474 C473 1.369 . S
C474 C483 1.429 . S
C475 C473 1.419 . S
C475 C476 1.363 . S
C475 H478 0.929 . S
C476 C475 1.363 . S
C476 C482 1.428 . S
H477 C473 0.930 . S
H478 C475 0.929 . S
S479 N480 1.613 . S
S479 N481 1.610 . S
N480 S479 1.613 . S
N480 C483 1.350 . S
N481 S479 1.610 . S
N481 C482 1.351 . S
C482 C476 1.428 . S
C482 N481 1.351 . S
C482 C483 1.434 . S
C483 C474 1.429 . S
C483 N480 1.350 . S
C483 C482 1.434 . S
C265 N134 0.681 . S
C267 N2 0.696 . S
C276 N35 0.695 . S
C278 N167 0.684 . S
C287 N68 0.699 . S
C289 N200 0.685 . S
C298 N101 0.681 . S
C300 N233 0.692 . S
C309 C21 1.199 1_556 S
C311 C219 1.191 1_554 S
C320 C54 1.200 . S
C322 C252 1.191 . S
C331 C153 1.190 . S
C333 C87 1.199 . S
C342 C186 1.199 . S
C344 C120 1.192 . S
C353 C249 0.836 . S
C355 C18 0.819 . S
C364 C51 0.817 . S
C366 C150 0.830 . S
C375 C183 0.833 . S
C377 C84 0.819 . S
C386 C216 0.822 . S
C388 C117 0.825 . S
C397 C7 1.876 . S
C399 N46 1.970 . S
C408 C40 1.883 . S
C410 N79 1.972 . S
C419 N112 1.970 . S
C421 C73 1.877 . S
C430 N13 1.970 . S
C432 C106 1.877 . S
C441 C139 1.884 . S
C443 N244 1.972 . S
C452 N145 1.971 . S
C454 C172 1.882 . S
C463 C205 1.876 . S
C465 N178 1.970 . S
C474 C238 1.881 . S
C476 N211 1.971 . S
