# Generated by pormake.
# Topology uks, (4)-cn, num edge types: 1
# Building blocks:
#     Node 0, Type 0, BuildingBlock: NAWXER_clean_sbu_0, # of connection points: 4
#     Node 1, Type 0, BuildingBlock: NAWXER_clean_sbu_0, # of connection points: 4
#     Node 2, Type 0, BuildingBlock: NAWXER_clean_sbu_0, # of connection points: 4
#     Node 3, Type 0, BuildingBlock: NAWXER_clean_sbu_0, # of connection points: 4
#     Node 4, Type 0, BuildingBlock: NAWXER_clean_sbu_0, # of connection points: 4
#     Node 5, Type 0, BuildingBlock: NAWXER_clean_sbu_0, # of connection points: 4
#     Node 6, Type 0, BuildingBlock: NAWXER_clean_sbu_0, # of connection points: 4
#     Node 7, Type 0, BuildingBlock: NAWXER_clean_sbu_0, # of connection points: 4
#     Node 8, Type 0, BuildingBlock: NAWXER_clean_sbu_0, # of connection points: 4
#     Node 9, Type 0, BuildingBlock: NAWXER_clean_sbu_0, # of connection points: 4
#     Node 10, Type 0, BuildingBlock: NAWXER_clean_sbu_0, # of connection points: 4
#     Node 11, Type 0, BuildingBlock: NAWXER_clean_sbu_0, # of connection points: 4
#     Node 12, Type 0, BuildingBlock: NAWXER_clean_sbu_0, # of connection points: 4
#     Node 13, Type 0, BuildingBlock: NAWXER_clean_sbu_0, # of connection points: 4
#     Node 14, Type 0, BuildingBlock: NAWXER_clean_sbu_0, # of connection points: 4
#     Node 15, Type 0, BuildingBlock: NAWXER_clean_sbu_0, # of connection points: 4
#     Node 16, Type 0, BuildingBlock: NAWXER_clean_sbu_0, # of connection points: 4
#     Node 17, Type 0, BuildingBlock: NAWXER_clean_sbu_0, # of connection points: 4
#     Node 18, Type 0, BuildingBlock: NAWXER_clean_sbu_0, # of connection points: 4
#     Node 19, Type 0, BuildingBlock: NAWXER_clean_sbu_0, # of connection points: 4
#     Node 20, Type 0, BuildingBlock: NAWXER_clean_sbu_0, # of connection points: 4
#     Node 21, Type 0, BuildingBlock: NAWXER_clean_sbu_0, # of connection points: 4
#     Node 22, Type 0, BuildingBlock: NAWXER_clean_sbu_0, # of connection points: 4
#     Node 23, Type 0, BuildingBlock: NAWXER_clean_sbu_0, # of connection points: 4
#     Edge 24, Type (0, 0), BuildingBlock: CIFDUS_clean_linker_0, # of connection points: 2
#     Edge 25, Type (0, 0), BuildingBlock: CIFDUS_clean_linker_0, # of connection points: 2
#     Edge 26, Type (0, 0), BuildingBlock: CIFDUS_clean_linker_0, # of connection points: 2
#     Edge 27, Type (0, 0), BuildingBlock: CIFDUS_clean_linker_0, # of connection points: 2
#     Edge 28, Type (0, 0), BuildingBlock: CIFDUS_clean_linker_0, # of connection points: 2
#     Edge 29, Type (0, 0), BuildingBlock: CIFDUS_clean_linker_0, # of connection points: 2
#     Edge 30, Type (0, 0), BuildingBlock: CIFDUS_clean_linker_0, # of connection points: 2
#     Edge 31, Type (0, 0), BuildingBlock: CIFDUS_clean_linker_0, # of connection points: 2
#     Edge 32, Type (0, 0), BuildingBlock: CIFDUS_clean_linker_0, # of connection points: 2
#     Edge 33, Type (0, 0), BuildingBlock: CIFDUS_clean_linker_0, # of connection points: 2
#     Edge 34, Type (0, 0), BuildingBlock: CIFDUS_clean_linker_0, # of connection points: 2
#     Edge 35, Type (0, 0), BuildingBlock: CIFDUS_clean_linker_0, # of connection points: 2
#     Edge 36, Type (0, 0), BuildingBlock: CIFDUS_clean_linker_0, # of connection points: 2
#     Edge 37, Type (0, 0), BuildingBlock: CIFDUS_clean_linker_0, # of connection points: 2
#     Edge 38, Type (0, 0), BuildingBlock: CIFDUS_clean_linker_0, # of connection points: 2
#     Edge 39, Type (0, 0), BuildingBlock: CIFDUS_clean_linker_0, # of connection points: 2
#     Edge 40, Type (0, 0), BuildingBlock: CIFDUS_clean_linker_0, # of connection points: 2
#     Edge 41, Type (0, 0), BuildingBlock: CIFDUS_clean_linker_0, # of connection points: 2
#     Edge 42, Type (0, 0), BuildingBlock: CIFDUS_clean_linker_0, # of connection points: 2
#     Edge 43, Type (0, 0), BuildingBlock: CIFDUS_clean_linker_0, # of connection points: 2
#     Edge 44, Type (0, 0), BuildingBlock: CIFDUS_clean_linker_0, # of connection points: 2
#     Edge 45, Type (0, 0), BuildingBlock: CIFDUS_clean_linker_0, # of connection points: 2
#     Edge 46, Type (0, 0), BuildingBlock: CIFDUS_clean_linker_0, # of connection points: 2
#     Edge 47, Type (0, 0), BuildingBlock: CIFDUS_clean_linker_0, # of connection points: 2
#     Edge 48, Type (0, 0), BuildingBlock: CIFDUS_clean_linker_0, # of connection points: 2
#     Edge 49, Type (0, 0), BuildingBlock: CIFDUS_clean_linker_0, # of connection points: 2
#     Edge 50, Type (0, 0), BuildingBlock: CIFDUS_clean_linker_0, # of connection points: 2
#     Edge 51, Type (0, 0), BuildingBlock: CIFDUS_clean_linker_0, # of connection points: 2
#     Edge 52, Type (0, 0), BuildingBlock: CIFDUS_clean_linker_0, # of connection points: 2
#     Edge 53, Type (0, 0), BuildingBlock: CIFDUS_clean_linker_0, # of connection points: 2
#     Edge 54, Type (0, 0), BuildingBlock: CIFDUS_clean_linker_0, # of connection points: 2
#     Edge 55, Type (0, 0), BuildingBlock: CIFDUS_clean_linker_0, # of connection points: 2
#     Edge 56, Type (0, 0), BuildingBlock: CIFDUS_clean_linker_0, # of connection points: 2
#     Edge 57, Type (0, 0), BuildingBlock: CIFDUS_clean_linker_0, # of connection points: 2
#     Edge 58, Type (0, 0), BuildingBlock: CIFDUS_clean_linker_0, # of connection points: 2
#     Edge 59, Type (0, 0), BuildingBlock: CIFDUS_clean_linker_0, # of connection points: 2
#     Edge 60, Type (0, 0), BuildingBlock: CIFDUS_clean_linker_0, # of connection points: 2
#     Edge 61, Type (0, 0), BuildingBlock: CIFDUS_clean_linker_0, # of connection points: 2
#     Edge 62, Type (0, 0), BuildingBlock: CIFDUS_clean_linker_0, # of connection points: 2
#     Edge 63, Type (0, 0), BuildingBlock: CIFDUS_clean_linker_0, # of connection points: 2
#     Edge 64, Type (0, 0), BuildingBlock: CIFDUS_clean_linker_0, # of connection points: 2
#     Edge 65, Type (0, 0), BuildingBlock: CIFDUS_clean_linker_0, # of connection points: 2
#     Edge 66, Type (0, 0), BuildingBlock: CIFDUS_clean_linker_0, # of connection points: 2
#     Edge 67, Type (0, 0), BuildingBlock: CIFDUS_clean_linker_0, # of connection points: 2
#     Edge 68, Type (0, 0), BuildingBlock: CIFDUS_clean_linker_0, # of connection points: 2
#     Edge 69, Type (0, 0), BuildingBlock: CIFDUS_clean_linker_0, # of connection points: 2
#     Edge 70, Type (0, 0), BuildingBlock: CIFDUS_clean_linker_0, # of connection points: 2
#     Edge 71, Type (0, 0), BuildingBlock: CIFDUS_clean_linker_0, # of connection points: 2
# Relax obj value: 0.065
# Max RMSD: 0.064
# Mean RMSD: 0.064
data_MOF--net-uks--node1-NAWXER_clean_sbu_0--edge1-CIFDUS_clean_linker_0
_symmetry_space_group_name_H-M    P1
_symmetry_Int_Tables_number       1
_symmetry_cell_setting            triclinic
loop_
_symmetry_equiv_pos_as_xyz
'x, y, z'
_cell_length_a     46.568303
_cell_length_b     46.753308
_cell_length_c     46.687991
_cell_angle_alpha  89.707379
_cell_angle_beta   90.113357
_cell_angle_gamma 89.79928
loop_
_atom_site_label
_atom_site_type_symbol
_atom_site_fract_x
_atom_site_fract_y
_atom_site_fract_z
_atom_type_partial_charge
C0 C 0.08826 0.39278 0.72836 0.0
C1 C 0.18614 0.41338 0.76106 0.0
O2 O 0.10762 0.39 0.70916 0.0
Zn3 Zn 0.15248 0.39456 0.70391 0.0
O4 O 0.09519 0.40131 0.75328 0.0
Zn5 Zn 0.13645 0.40427 0.74619 0.0
O6 O 0.13868 0.44002 0.71747 0.0
O7 O 0.15517 0.42523 0.6758 0.0
O8 O 0.16364 0.4144 0.77648 0.0
O9 O 0.18417 0.40653 0.73459 0.0
O10 O 0.16308 0.35523 0.69456 0.0
O11 O 0.14789 0.36065 0.7391 0.0
C12 C 0.14596 0.44543 0.69153 0.0
C13 C 0.15733 0.34464 0.71904 0.0
C14 C 0.5934 0.65507 0.1788 0.0
C15 C 0.68422 0.64294 0.23306 0.0
O16 O 0.59078 0.64312 0.20342 0.0
Zn17 Zn 0.61664 0.62997 0.23921 0.0
O18 O 0.61832 0.6619 0.16982 0.0
Zn19 Zn 0.63974 0.64856 0.20355 0.0
O20 O 0.6338 0.60363 0.20151 0.0
O21 O 0.61069 0.58829 0.23975 0.0
O22 O 0.68159 0.65257 0.20762 0.0
O23 O 0.66182 0.63413 0.2463 0.0
O24 O 0.60132 0.65548 0.26867 0.0
O25 O 0.62378 0.67824 0.23378 0.0
C26 C 0.62267 0.58304 0.21584 0.0
C27 C 0.60942 0.67885 0.25709 0.0
C28 C 0.35748 0.13753 0.76261 0.0
C29 C 0.45157 0.14635 0.71761 0.0
O30 O 0.35651 0.14465 0.73606 0.0
Zn31 Zn 0.38494 0.15284 0.70107 0.0
O32 O 0.3816 0.13289 0.77464 0.0
Zn33 Zn 0.40486 0.14003 0.74075 0.0
O34 O 0.39795 0.18493 0.73517 0.0
O35 O 0.37749 0.19343 0.69328 0.0
O36 O 0.44632 0.13771 0.74293 0.0
O37 O 0.43072 0.15214 0.70058 0.0
O38 O 0.37395 0.12332 0.67388 0.0
O39 O 0.3937 0.10547 0.71307 0.0
C40 C 0.38761 0.20269 0.71683 0.0
C41 C 0.38207 0.10168 0.68847 0.0
C42 C 0.92205 0.87025 0.16863 0.0
C43 C 0.83279 0.86024 0.22499 0.0
O44 O 0.92396 0.87778 0.19489 0.0
Zn45 Zn 0.89822 0.88049 0.23244 0.0
O46 O 0.89814 0.86122 0.15893 0.0
Zn47 Zn 0.87629 0.86501 0.1946 0.0
O48 O 0.87491 0.90997 0.20012 0.0
O49 O 0.89835 0.92176 0.23941 0.0
O50 O 0.83558 0.85493 0.19839 0.0
O51 O 0.85437 0.86959 0.23912 0.0
O52 O 0.91753 0.85263 0.25744 0.0
O53 O 0.8969 0.83306 0.21974 0.0
C54 C 0.88375 0.92916 0.21746 0.0
C55 C 0.91189 0.83053 0.24261 0.0
C56 C 0.12783 0.09175 0.8183 0.0
C57 C 0.1322 0.1869 0.77422 0.0
O58 O 0.11742 0.09933 0.79419 0.0
Zn59 Zn 0.12702 0.13949 0.79651 0.0
O60 O 0.13919 0.11065 0.83462 0.0
Zn61 Zn 0.14815 0.15585 0.83396 0.0
O62 O 0.12419 0.17201 0.86445 0.0
O63 O 0.09882 0.15426 0.8288 0.0
O64 O 0.14305 0.18578 0.79946 0.0
O65 O 0.11953 0.16507 0.76418 0.0
O66 O 0.1729 0.13745 0.79661 0.0
O67 O 0.19005 0.15497 0.83701 0.0
C68 C 0.09995 0.16629 0.85335 0.0
C69 C 0.19438 0.1437 0.81259 0.0
C70 C 0.94218 0.62353 0.3374 0.0
C71 C 0.8472 0.63079 0.2893 0.0
O72 O 0.94181 0.61632 0.31099 0.0
Zn73 Zn 0.91262 0.61274 0.2761 0.0
O74 O 0.91887 0.6312 0.34949 0.0
Zn75 Zn 0.89345 0.62657 0.31615 0.0
O76 O 0.89414 0.58165 0.31001 0.0
O77 O 0.9139 0.57164 0.26818 0.0
O78 O 0.85175 0.63519 0.31586 0.0
O79 O 0.86802 0.62247 0.27349 0.0
O80 O 0.92782 0.64186 0.24991 0.0
O81 O 0.9096 0.65979 0.28963 0.0
C82 C 0.9024 0.56334 0.29148 0.0
C83 C 0.92209 0.66344 0.26551 0.0
C84 C 0.44354 0.3889 0.85221 0.0
C85 C 0.34288 0.40835 0.82797 0.0
O86 O 0.42206 0.38725 0.86891 0.0
Zn87 Zn 0.39318 0.3993 0.84121 0.0
O88 O 0.43985 0.39689 0.82611 0.0
Zn89 Zn 0.40513 0.4089 0.79801 0.0
O90 O 0.41467 0.44779 0.78723 0.0
O91 O 0.40343 0.44353 0.83293 0.0
O92 O 0.3602 0.412 0.80696 0.0
O93 O 0.35279 0.40071 0.85224 0.0
O94 O 0.39395 0.36374 0.81253 0.0
O95 O 0.40589 0.37863 0.76925 0.0
C96 C 0.41117 0.45921 0.81165 0.0
C97 C 0.39896 0.35835 0.78611 0.0
C98 C 0.60671 0.85804 0.38449 0.0
C99 C 0.6977 0.8592 0.33049 0.0
O100 O 0.60599 0.87258 0.36115 0.0
Zn101 Zn 0.63361 0.8849 0.32669 0.0
O102 O 0.63044 0.84734 0.39308 0.0
Zn103 Zn 0.65385 0.86014 0.36065 0.0
O104 O 0.65682 0.90504 0.36569 0.0
O105 O 0.6353 0.92696 0.32968 0.0
O106 O 0.69403 0.84873 0.35546 0.0
O107 O 0.67709 0.87289 0.31837 0.0
O108 O 0.61449 0.86453 0.29513 0.0
O109 O 0.63342 0.83619 0.32824 0.0
C110 C 0.64943 0.92829 0.35301 0.0
C111 C 0.61911 0.83944 0.30507 0.0
C112 C 0.78154 0.1053 0.37715 0.0
C113 C 0.73877 0.11204 0.47279 0.0
O114 O 0.79199 0.09459 0.40005 0.0
Zn115 Zn 0.76102 0.10756 0.42491 0.0
O116 O 0.7575 0.11864 0.37761 0.0
Zn117 Zn 0.72514 0.13091 0.4078 0.0
O118 O 0.72752 0.1726 0.40465 0.0
O119 O 0.76726 0.15275 0.42127 0.0
O120 O 0.72328 0.12363 0.45313 0.0
O121 O 0.76254 0.10047 0.46606 0.0
O122 O 0.72611 0.08172 0.40984 0.0
O123 O 0.69216 0.11006 0.39267 0.0
C124 C 0.75341 0.17507 0.41307 0.0
C125 C 0.70153 0.08493 0.39774 0.0
C126 C 0.88753 0.18493 0.95424 0.0
C127 C 0.88354 0.23185 0.85924 0.0
O128 O 0.89687 0.21069 0.95382 0.0
Zn129 Zn 0.9034 0.24507 0.92389 0.0
O130 O 0.88 0.17313 0.93086 0.0
Zn131 Zn 0.88724 0.20596 0.9058 0.0
O132 O 0.93266 0.20942 0.90615 0.0
O133 O 0.94507 0.25078 0.9248 0.0
O134 O 0.87801 0.20576 0.86483 0.0
O135 O 0.89298 0.24799 0.87925 0.0
O136 O 0.87655 0.27308 0.93956 0.0
O137 O 0.85579 0.23432 0.92237 0.0
C138 C 0.95226 0.22704 0.91363 0.0
C139 C 0.85392 0.25854 0.93487 0.0
C140 C 0.839 0.39861 0.45437 0.0
C141 C 0.79011 0.40497 0.36065 0.0
O142 O 0.81589 0.41205 0.44867 0.0
Zn143 Zn 0.81288 0.40223 0.4077 0.0
O144 O 0.85171 0.38503 0.43425 0.0
Zn145 Zn 0.8463 0.37624 0.38993 0.0
O146 O 0.87963 0.39403 0.37203 0.0
O147 O 0.84687 0.4251 0.38649 0.0
O148 O 0.8133 0.39014 0.36057 0.0
O149 O 0.78086 0.41555 0.38404 0.0
O150 O 0.80399 0.35731 0.40762 0.0
O151 O 0.8414 0.33487 0.3894 0.0
C152 C 0.87051 0.41966 0.37353 0.0
C153 C 0.81628 0.33398 0.40004 0.0
C154 C 0.65965 0.30339 0.85533 0.0
C155 C 0.66036 0.36507 0.94102 0.0
O156 O 0.64916 0.29195 0.87796 0.0
Zn157 Zn 0.63957 0.30257 0.92112 0.0
O158 O 0.66722 0.32955 0.85584 0.0
Zn159 Zn 0.65842 0.33728 0.89633 0.0
O160 O 0.68769 0.30971 0.91758 0.0
O161 O 0.66495 0.27558 0.94132 0.0
O162 O 0.66892 0.37281 0.91623 0.0
O163 O 0.64898 0.3404 0.94441 0.0
O164 O 0.5977 0.30072 0.92317 0.0
O165 O 0.61282 0.33737 0.89744 0.0
C166 C 0.6883 0.2878 0.93406 0.0
C167 C 0.59211 0.32279 0.90804 0.0
C168 C 0.73555 0.40508 0.19943 0.0
C169 C 0.69133 0.39529 0.10427 0.0
O170 O 0.7459 0.41419 0.17586 0.0
Zn171 Zn 0.71538 0.39986 0.15116 0.0
O172 O 0.71214 0.39079 0.19939 0.0
Zn173 Zn 0.68049 0.37589 0.16985 0.0
O174 O 0.68475 0.334 0.17276 0.0
O175 O 0.72278 0.35508 0.15436 0.0
O176 O 0.67717 0.38337 0.12462 0.0
O177 O 0.7152 0.40721 0.10987 0.0
O178 O 0.67979 0.42457 0.16594 0.0
O179 O 0.64704 0.39628 0.18519 0.0
C180 C 0.71013 0.33228 0.16281 0.0
C181 C 0.65564 0.42132 0.17864 0.0
C182 C 0.66581 0.22479 0.70326 0.0
C183 C 0.67009 0.1618 0.61867 0.0
O184 O 0.65419 0.23516 0.68058 0.0
Zn185 Zn 0.64512 0.22309 0.63754 0.0
O186 O 0.67567 0.19933 0.70294 0.0
Zn187 Zn 0.66683 0.19066 0.66267 0.0
O188 O 0.69342 0.22043 0.64083 0.0
O189 O 0.66693 0.25182 0.61679 0.0
O190 O 0.67964 0.15545 0.6435 0.0
O191 O 0.65683 0.18553 0.6147 0.0
O192 O 0.60378 0.22282 0.63594 0.0
O193 O 0.62112 0.18798 0.66307 0.0
C194 C 0.69148 0.24213 0.62411 0.0
C195 C 0.59958 0.2014 0.65227 0.0
C196 C 0.78067 0.17554 0.15866 0.0
C197 C 0.82736 0.08168 0.16297 0.0
O198 O 0.80745 0.17712 0.16498 0.0
Zn199 Zn 0.8433 0.14836 0.17025 0.0
O200 O 0.76991 0.15128 0.15303 0.0
Zn201 Zn 0.80468 0.12851 0.15795 0.0
O202 O 0.81255 0.13143 0.20368 0.0
O203 O 0.85334 0.15466 0.20996 0.0
O204 O 0.80219 0.08757 0.15404 0.0
O205 O 0.84466 0.10205 0.16914 0.0
O206 O 0.87008 0.16028 0.1411 0.0
O207 O 0.83165 0.14053 0.12229 0.0
C208 C 0.83184 0.14159 0.22043 0.0
C209 C 0.85618 0.15252 0.11907 0.0
C210 C 0.87203 0.32278 0.7136 0.0
C211 C 0.87182 0.37315 0.62006 0.0
O212 O 0.88439 0.30888 0.69348 0.0
Zn213 Zn 0.89502 0.3148 0.64913 0.0
O214 O 0.86214 0.34772 0.70839 0.0
Zn215 Zn 0.8731 0.35026 0.66799 0.0
O216 O 0.84667 0.31832 0.64887 0.0
O217 O 0.87415 0.28382 0.63156 0.0
O218 O 0.86226 0.38302 0.64358 0.0
O219 O 0.88467 0.34887 0.62003 0.0
O220 O 0.93625 0.31398 0.64924 0.0
O221 O 0.91892 0.35197 0.67122 0.0
C222 C 0.84936 0.29464 0.63544 0.0
C223 C 0.94043 0.33675 0.66337 0.0
C224 C 0.33694 0.74098 0.13345 0.0
C225 C 0.43363 0.69849 0.13542 0.0
O226 O 0.3561 0.75718 0.12226 0.0
Zn227 Zn 0.40148 0.75576 0.11316 0.0
O228 O 0.34399 0.71613 0.14229 0.0
Zn229 Zn 0.38453 0.71821 0.13304 0.0
O230 O 0.39867 0.75092 0.16129 0.0
O231 O 0.41406 0.78813 0.13626 0.0
O232 O 0.41009 0.68712 0.14316 0.0
O233 O 0.43322 0.72353 0.124 0.0
O234 O 0.40263 0.75737 0.0714 0.0
O235 O 0.38369 0.71737 0.08769 0.0
C236 C 0.40917 0.77619 0.16033 0.0
C237 C 0.39097 0.7333 0.06658 0.0
C238 C 0.35924 0.84541 0.41509 0.0
C239 C 0.39865 0.81233 0.32443 0.0
O240 O 0.35619 0.85636 0.39034 0.0
Zn241 Zn 0.37887 0.82879 0.3695 0.0
O242 O 0.37418 0.82245 0.41811 0.0
Zn243 Zn 0.39777 0.79345 0.39117 0.0
O244 O 0.43692 0.79582 0.40596 0.0
O245 O 0.42219 0.83535 0.38452 0.0
O246 O 0.40497 0.7957 0.34551 0.0
O247 O 0.3836 0.83461 0.32883 0.0
O248 O 0.35281 0.79075 0.37071 0.0
O249 O 0.37649 0.75773 0.39502 0.0
C250 C 0.44196 0.82128 0.39771 0.0
C251 C 0.35428 0.76525 0.38094 0.0
C252 C 0.23711 0.85108 0.85639 0.0
C253 C 0.17764 0.93617 0.86598 0.0
O254 O 0.24389 0.87559 0.86573 0.0
Zn255 Zn 0.20627 0.89266 0.86346 0.0
O256 O 0.21084 0.84613 0.84958 0.0
Zn257 Zn 0.1705 0.8697 0.8488 0.0
O258 O 0.16048 0.8673 0.80873 0.0
O259 O 0.19822 0.89441 0.81769 0.0
O260 O 0.16287 0.9151 0.85641 0.0
O261 O 0.2034 0.93203 0.87394 0.0
O262 O 0.18286 0.8712 0.89662 0.0
O263 O 0.14639 0.84949 0.87624 0.0
C264 C 0.18011 0.88394 0.79982 0.0
C265 C 0.16048 0.85543 0.89871 0.0
C266 C 0.20425 0.68996 0.35282 0.0
C267 C 0.10769 0.64717 0.36292 0.0
O268 O 0.18405 0.70739 0.35928 0.0
Zn269 Zn 0.13927 0.70768 0.36867 0.0
O270 O 0.19878 0.66346 0.34967 0.0
Zn271 Zn 0.15724 0.66621 0.35745 0.0
O272 O 0.14219 0.69115 0.32226 0.0
O273 O 0.12464 0.73214 0.33776 0.0
O274 O 0.13055 0.63374 0.35618 0.0
O275 O 0.10895 0.67399 0.36802 0.0
O276 O 0.13939 0.71879 0.40919 0.0
O277 O 0.15902 0.6765 0.40138 0.0
C278 C 0.1302 0.71532 0.31707 0.0
C279 C 0.15225 0.69656 0.41864 0.0
C280 C 0.34106 0.66112 0.91995 0.0
C281 C 0.30521 0.62928 0.82688 0.0
O282 O 0.35707 0.66886 0.89901 0.0
Zn283 Zn 0.3583 0.66444 0.85349 0.0
O284 O 0.31903 0.64587 0.91514 0.0
Zn285 Zn 0.32234 0.64365 0.87396 0.0
O286 O 0.35869 0.61708 0.86767 0.0
O287 O 0.39277 0.64148 0.84567 0.0
O288 O 0.29361 0.62413 0.85105 0.0
O289 O 0.3285 0.64373 0.82567 0.0
O290 O 0.35407 0.70449 0.84103 0.0
O291 O 0.31478 0.68641 0.86039 0.0
C292 C 0.38373 0.61816 0.85653 0.0
C293 C 0.32785 0.70722 0.84831 0.0
C294 C 0.08513 0.85669 0.1259 0.0
C295 C 0.18434 0.81982 0.13181 0.0
O296 O 0.08801 0.83071 0.11778 0.0
Zn297 Zn 0.12112 0.79954 0.11236 0.0
O298 O 0.10729 0.87084 0.13316 0.0
Zn299 Zn 0.13575 0.84058 0.12814 0.0
O300 O 0.13837 0.8356 0.08333 0.0
O301 O 0.12164 0.79348 0.0705 0.0
O302 O 0.1764 0.84522 0.13776 0.0
O303 O 0.16586 0.8019 0.12242 0.0
O304 O 0.10944 0.77032 0.14043 0.0
O305 O 0.12252 0.81117 0.16007 0.0
C306 C 0.13287 0.81738 0.06374 0.0
C307 C 0.1131 0.78563 0.16268 0.0
C308 C 0.25334 0.62756 0.66614 0.0
C309 C 0.21577 0.65161 0.57118 0.0
O310 O 0.22739 0.63677 0.66641 0.0
Zn311 Zn 0.19518 0.65104 0.6367 0.0
O312 O 0.26663 0.62541 0.64244 0.0
Zn313 Zn 0.23541 0.63866 0.61834 0.0
O314 O 0.23259 0.68237 0.63098 0.0
O315 O 0.18941 0.69058 0.64864 0.0
O316 O 0.24033 0.64135 0.57743 0.0
O317 O 0.1974 0.65587 0.59113 0.0
O318 O 0.16583 0.62191 0.64272 0.0
O319 O 0.20539 0.60478 0.62322 0.0
C320 C 0.21437 0.69956 0.64217 0.0
C321 C 0.18001 0.60081 0.63293 0.0
C322 C 0.28805 0.85264 0.64003 0.0
C323 C 0.32274 0.95137 0.63398 0.0
O324 O 0.27242 0.86888 0.62416 0.0
Zn325 Zn 0.27185 0.91229 0.60874 0.0
O326 O 0.31112 0.86232 0.6509 0.0
Zn327 Zn 0.30742 0.90099 0.63584 0.0
O328 O 0.26944 0.91479 0.6572 0.0
O329 O 0.23533 0.9243 0.62536 0.0
O330 O 0.33475 0.93021 0.64641 0.0
O331 O 0.29971 0.94731 0.61943 0.0
O332 O 0.2763 0.90771 0.56733 0.0
O333 O 0.31461 0.89404 0.5916 0.0
C334 C 0.24377 0.92269 0.65128 0.0
C335 C 0.30147 0.89708 0.56766 0.0
H336 H 0.17202 0.22782 0.78189 0.0
H337 H 0.10037 0.20541 0.72791 0.0
H338 H 0.10449 0.2514 0.70265 0.0
H339 H 0.12569 0.3001 0.69948 0.0
H340 H 0.19616 0.32189 0.75506 0.0
H341 H 0.19575 0.27379 0.77579 0.0
C342 C 0.15733 0.23289 0.76451 0.0
C343 C 0.13559 0.21346 0.75712 0.0
C344 C 0.15985 0.25919 0.75022 0.0
C345 C 0.11715 0.22012 0.73415 0.0
C346 C 0.11951 0.2464 0.71973 0.0
C347 C 0.14149 0.29384 0.71544 0.0
C348 C 0.1613 0.31411 0.72548 0.0
C349 C 0.14045 0.26636 0.72795 0.0
C350 C 0.18114 0.30631 0.74677 0.0
C351 C 0.18068 0.27897 0.75881 0.0
H352 H 0.738 0.64814 0.20977 0.0
H353 H 0.69434 0.63496 0.29013 0.0
H354 H 0.74031 0.63156 0.31507 0.0
H355 H 0.7935 0.63077 0.31411 0.0
H356 H 0.83674 0.64181 0.23318 0.0
H357 H 0.79083 0.64769 0.20882 0.0
C358 C 0.73853 0.64467 0.23275 0.0
C359 C 0.71261 0.64178 0.24791 0.0
C360 C 0.76518 0.64228 0.24704 0.0
C361 C 0.71386 0.63713 0.27775 0.0
C362 C 0.74022 0.63521 0.29213 0.0
C363 C 0.79283 0.63467 0.2912 0.0
C364 C 0.81865 0.63575 0.2756 0.0
C365 C 0.7661 0.63754 0.27701 0.0
C366 C 0.81729 0.64063 0.24582 0.0
C367 C 0.79097 0.64405 0.23177 0.0
H368 H 0.39113 0.33773 0.73137 0.0
H369 H 0.40341 0.31122 0.81934 0.0
H370 H 0.40049 0.26139 0.80547 0.0
H371 H 0.39461 0.22526 0.76914 0.0
H372 H 0.3809 0.24948 0.6809 0.0
H373 H 0.38387 0.30024 0.69412 0.0
C374 C 0.39325 0.32099 0.74739 0.0
C375 C 0.39751 0.32827 0.77637 0.0
C376 C 0.39114 0.29199 0.7393 0.0
C377 C 0.39997 0.30633 0.79694 0.0
C378 C 0.39834 0.27775 0.78905 0.0
C379 C 0.39229 0.24155 0.75265 0.0
C380 C 0.38774 0.23356 0.72403 0.0
C381 C 0.3939 0.27036 0.7604 0.0
C382 C 0.38439 0.25506 0.70311 0.0
C383 C 0.38621 0.28406 0.71067 0.0
H384 H 0.70593 0.86045 0.27295 0.0
H385 H 0.75143 0.85039 0.35296 0.0
H386 H 0.79715 0.84868 0.32712 0.0
H387 H 0.82423 0.8526 0.282 0.0
H388 H 0.77864 0.86062 0.20182 0.0
H389 H 0.7328 0.86029 0.22751 0.0
C390 C 0.72585 0.85779 0.28475 0.0
C391 C 0.7253 0.8559 0.31492 0.0
C392 C 0.75198 0.85646 0.26971 0.0
C393 C 0.75125 0.85195 0.32981 0.0
C394 C 0.77739 0.85105 0.31502 0.0
C395 C 0.80425 0.85409 0.2701 0.0
C396 C 0.80488 0.85691 0.24 0.0
C397 C 0.77803 0.85367 0.28501 0.0
C398 C 0.77879 0.8584 0.22493 0.0
C399 C 0.75259 0.85836 0.23965 0.0
H400 H 0.80739 0.09644 0.24684 0.0
H401 H 0.85085 0.17586 0.26383 0.0
H402 H 0.8426 0.16946 0.31533 0.0
H403 H 0.81835 0.14357 0.35482 0.0
H404 H 0.77521 0.06423 0.33736 0.0
H405 H 0.78847 0.06784 0.28672 0.0
C406 C 0.81519 0.11227 0.26186 0.0
C407 C 0.8292 0.13687 0.25163 0.0
C408 C 0.81065 0.10825 0.2913 0.0
C409 C 0.83981 0.15688 0.27127 0.0
C410 C 0.83509 0.15322 0.30067 0.0
C411 C 0.81286 0.12663 0.34 0.0
C412 C 0.79643 0.10336 0.34961 0.0
C413 C 0.82004 0.12926 0.31087 0.0
C414 C 0.78849 0.08191 0.33034 0.0
C415 C 0.79573 0.0842 0.3014 0.0
H416 H 0.87598 0.2664 0.72807 0.0
H417 H 0.86526 0.35021 0.76486 0.0
H418 H 0.86748 0.32937 0.81303 0.0
H419 H 0.87467 0.28759 0.84471 0.0
H420 H 0.88305 0.2035 0.80801 0.0
H421 H 0.87945 0.22416 0.75981 0.0
C422 C 0.87397 0.28011 0.74662 0.0
C423 C 0.87069 0.30992 0.7428 0.0
C424 C 0.87497 0.26792 0.77428 0.0
C425 C 0.86776 0.32726 0.76712 0.0
C426 C 0.86915 0.31535 0.79469 0.0
C427 C 0.87563 0.27375 0.82616 0.0
C428 C 0.87944 0.24402 0.82999 0.0
C429 C 0.87312 0.28576 0.79853 0.0
C430 C 0.88016 0.2264 0.80572 0.0
C431 C 0.87818 0.23824 0.77814 0.0
H432 H 0.81461 0.4107 0.30873 0.0
H433 H 0.73228 0.40988 0.35084 0.0
H434 H 0.70804 0.4116 0.30413 0.0
H435 H 0.71061 0.40929 0.25148 0.0
H436 H 0.79301 0.412 0.20951 0.0
H437 H 0.81706 0.41397 0.25619 0.0
C438 C 0.79134 0.41116 0.30766 0.0
C439 C 0.77516 0.40975 0.3331 0.0
C440 C 0.7777 0.41239 0.28086 0.0
C441 C 0.7451 0.41089 0.33153 0.0
C442 C 0.73131 0.41173 0.30486 0.0
C443 C 0.73384 0.41055 0.25257 0.0
C444 C 0.7501 0.41008 0.22713 0.0
C445 C 0.74742 0.41185 0.27941 0.0
C446 C 0.78009 0.41228 0.22878 0.0
C447 C 0.79381 0.41325 0.25545 0.0
H448 H 0.66877 0.20825 0.75959 0.0
H449 H 0.66632 0.28281 0.70487 0.0
H450 H 0.66594 0.31393 0.74664 0.0
H451 H 0.66399 0.32023 0.79907 0.0
H452 H 0.66353 0.24548 0.85363 0.0
H453 H 0.66741 0.21455 0.81198 0.0
C454 C 0.66844 0.2313 0.75686 0.0
C455 C 0.66754 0.2431 0.72913 0.0
C456 C 0.66751 0.2492 0.78108 0.0
C457 C 0.66683 0.27308 0.72598 0.0
C458 C 0.66663 0.29097 0.74988 0.0
C459 C 0.66495 0.2972 0.80181 0.0
C460 C 0.66336 0.28529 0.82948 0.0
C461 C 0.66659 0.27931 0.77759 0.0
C462 C 0.66446 0.25532 0.83259 0.0
C463 C 0.66675 0.23752 0.80875 0.0
H464 H 0.31817 0.79621 0.13236 0.0
H465 H 0.28824 0.70924 0.13998 0.0
H466 H 0.23856 0.72625 0.14123 0.0
H467 H 0.20363 0.76552 0.13811 0.0
H468 H 0.23309 0.85272 0.13224 0.0
H469 H 0.28306 0.83594 0.13266 0.0
C470 C 0.30076 0.78097 0.13433 0.0
C471 C 0.30691 0.75143 0.13575 0.0
C472 C 0.27223 0.79095 0.13539 0.0
C473 C 0.28414 0.73203 0.13878 0.0
C474 C 0.25572 0.74176 0.13945 0.0
C475 C 0.22098 0.78091 0.13704 0.0
C476 C 0.21464 0.81034 0.13485 0.0
C477 C 0.24952 0.77112 0.13746 0.0
C478 C 0.23737 0.82998 0.13394 0.0
C479 C 0.26592 0.82037 0.13405 0.0
H480 H 0.30983 0.77171 0.34385 0.0
H481 H 0.3441 0.71343 0.40725 0.0
H482 H 0.30221 0.68237 0.40137 0.0
H483 H 0.25341 0.67411 0.38107 0.0
H484 H 0.21949 0.73399 0.31913 0.0
H485 H 0.26377 0.76169 0.3211 0.0
C486 C 0.3083 0.75214 0.35633 0.0
C487 C 0.32999 0.74516 0.37624 0.0
C488 C 0.28418 0.73449 0.35289 0.0
C489 C 0.32769 0.71946 0.39188 0.0
C490 C 0.30371 0.70167 0.38852 0.0
C491 C 0.25621 0.69272 0.36741 0.0
C492 C 0.23344 0.70184 0.34965 0.0
C493 C 0.28154 0.70918 0.3694 0.0
C494 C 0.2369 0.72644 0.33266 0.0
C495 C 0.2621 0.74242 0.33398 0.0
H496 H 0.23061 0.79861 0.8327 0.0
H497 H 0.29339 0.85224 0.8739 0.0
H498 H 0.32876 0.81351 0.87183 0.0
H499 H 0.34062 0.76267 0.86174 0.0
H500 H 0.27653 0.70935 0.82238 0.0
H501 H 0.24323 0.74968 0.81977 0.0
C502 C 0.25206 0.80194 0.84111 0.0
C503 C 0.25916 0.82823 0.85371 0.0
C504 C 0.27221 0.77957 0.84001 0.0
C505 C 0.28722 0.83217 0.86423 0.0
C506 C 0.30751 0.81002 0.86303 0.0
C507 C 0.31963 0.76024 0.85196 0.0
C508 C 0.311 0.73326 0.84207 0.0
C509 C 0.30014 0.78342 0.85136 0.0
C510 C 0.28357 0.73005 0.82999 0.0
C511 C 0.26447 0.75302 0.82866 0.0
H512 H 0.26798 0.71986 0.65051 0.0
H513 H 0.17966 0.74695 0.64265 0.0
H514 H 0.19482 0.7971 0.64271 0.0
H515 H 0.23354 0.83286 0.64106 0.0
H516 H 0.32169 0.80574 0.65065 0.0
H517 H 0.30623 0.7558 0.65403 0.0
C518 C 0.25202 0.73676 0.64906 0.0
C519 C 0.22276 0.72976 0.6462 0.0
C520 C 0.2609 0.76542 0.64923 0.0
C521 C 0.20228 0.75182 0.64485 0.0
C522 C 0.21097 0.78046 0.64472 0.0
C523 C 0.24935 0.81599 0.64405 0.0
C524 C 0.27876 0.82285 0.64516 0.0
C525 C 0.24026 0.78745 0.64625 0.0
C526 C 0.29897 0.80094 0.64965 0.0
C527 C 0.29013 0.77242 0.65147 0.0
H528 H 0.92057 0.78506 0.20818 0.0
H529 H 0.9236 0.81072 0.29677 0.0
H530 H 0.93054 0.76075 0.31139 0.0
H531 H 0.92971 0.70965 0.29917 0.0
H532 H 0.92635 0.68399 0.21059 0.0
H533 H 0.92603 0.73431 0.19564 0.0
C534 C 0.92311 0.77976 0.2307 0.0
C535 C 0.9211 0.80147 0.25146 0.0
C536 C 0.92688 0.75106 0.23886 0.0
C537 C 0.92498 0.7944 0.28044 0.0
C538 C 0.92878 0.76582 0.28878 0.0
C539 C 0.92933 0.71507 0.27655 0.0
C540 C 0.92761 0.69315 0.25597 0.0
C541 C 0.92884 0.74395 0.26822 0.0
C542 C 0.92764 0.70044 0.22679 0.0
C543 C 0.92724 0.7292 0.21828 0.0
H544 H 0.2077 0.40088 0.81451 0.0
H545 H 0.2294 0.43922 0.73316 0.0
H546 H 0.27932 0.44348 0.748 0.0
H547 H 0.31748 0.43222 0.78168 0.0
H548 H 0.29784 0.39189 0.86256 0.0
H549 H 0.24653 0.39276 0.85052 0.0
C550 C 0.22333 0.41067 0.80037 0.0
C551 C 0.21495 0.41961 0.77273 0.0
C552 C 0.2524 0.41239 0.8088 0.0
C553 C 0.2354 0.43199 0.75444 0.0
C554 C 0.26397 0.4344 0.76288 0.0
C555 C 0.30204 0.42379 0.79687 0.0
C556 C 0.31157 0.41169 0.82284 0.0
C557 C 0.27283 0.42395 0.78963 0.0
C558 C 0.29112 0.40124 0.84236 0.0
C559 C 0.26177 0.40165 0.83543 0.0
H560 H 0.6029 0.79056 0.33064 0.0
H561 H 0.614 0.82933 0.24739 0.0
H562 H 0.60861 0.78233 0.22483 0.0
H563 H 0.60759 0.72991 0.22971 0.0
H564 H 0.59771 0.69121 0.31323 0.0
H565 H 0.59554 0.73878 0.33494 0.0
C566 C 0.60364 0.78878 0.30748 0.0
C567 C 0.60926 0.81322 0.29063 0.0
C568 C 0.60112 0.76176 0.29489 0.0
C569 C 0.60968 0.81082 0.26072 0.0
C570 C 0.60688 0.78393 0.24791 0.0
C571 C 0.60465 0.73187 0.25266 0.0
C572 C 0.60339 0.70708 0.26998 0.0
C573 C 0.6037 0.75919 0.26491 0.0
C574 C 0.59892 0.70993 0.29953 0.0
C575 C 0.5978 0.73711 0.31191 0.0
H576 H 0.3064 0.12344 0.74081 0.0
H577 H 0.34738 0.14774 0.8198 0.0
H578 H 0.30023 0.15101 0.84325 0.0
H579 H 0.24675 0.1503 0.83969 0.0
H580 H 0.20784 0.1252 0.7595 0.0
H581 H 0.25473 0.11903 0.73827 0.0
C582 C 0.30507 0.12924 0.76325 0.0
C583 C 0.33018 0.13564 0.7785 0.0
C584 C 0.27818 0.1312 0.77633 0.0
C585 C 0.32824 0.14266 0.80766 0.0
C586 C 0.30129 0.14473 0.82096 0.0
C587 C 0.24861 0.14333 0.81766 0.0
C588 C 0.22365 0.13856 0.80124 0.0
C589 C 0.276 0.13962 0.8053 0.0
C590 C 0.2265 0.12925 0.77275 0.0
C591 C 0.25339 0.12566 0.76045 0.0
H592 H 0.2006 0.88786 0.66687 0.0
H593 H 0.2461 0.96405 0.69106 0.0
H594 H 0.22715 0.96035 0.73972 0.0
H595 H 0.20489 0.93084 0.7769 0.0
H596 H 0.16126 0.85306 0.75382 0.0
H597 H 0.17204 0.86188 0.7032 0.0
C598 C 0.20516 0.90432 0.68253 0.0
C599 C 0.22419 0.9265 0.67549 0.0
C600 C 0.19527 0.90121 0.71082 0.0
C601 C 0.23095 0.9472 0.69603 0.0
C602 C 0.2205 0.94481 0.72392 0.0
C603 C 0.19743 0.916 0.76074 0.0
C604 C 0.18285 0.89104 0.76906 0.0
C605 C 0.20384 0.92113 0.73185 0.0
C606 C 0.17276 0.8723 0.74791 0.0
C607 C 0.17895 0.87733 0.71899 0.0
H608 H 0.10953 0.76612 0.29581 0.0
H609 H 0.13644 0.68163 0.27005 0.0
H610 H 0.12995 0.69455 0.21993 0.0
H611 H 0.12092 0.73121 0.18284 0.0
H612 H 0.09571 0.81607 0.20858 0.0
H613 H 0.09668 0.80154 0.25881 0.0
C614 C 0.1137 0.75046 0.27926 0.0
C615 C 0.1238 0.7231 0.28683 0.0
C616 C 0.11018 0.75808 0.25024 0.0
C617 C 0.12895 0.70303 0.26498 0.0
C618 C 0.12519 0.71033 0.23618 0.0
C619 C 0.11498 0.74624 0.19944 0.0
C620 C 0.10836 0.77464 0.19204 0.0
C621 C 0.11637 0.73797 0.22848 0.0
C622 C 0.10105 0.79407 0.21379 0.0
C623 C 0.10171 0.78583 0.24256 0.0
H624 H 0.33118 0.6223 0.77581 0.0
H625 H 0.24832 0.6184 0.81682 0.0
H626 H 0.22499 0.61441 0.76995 0.0
H627 H 0.22802 0.61825 0.71753 0.0
H628 H 0.31098 0.62305 0.6767 0.0
H629 H 0.33452 0.62021 0.72349 0.0
C630 C 0.30802 0.62016 0.77452 0.0
C631 C 0.2914 0.6211 0.79966 0.0
C632 C 0.29483 0.61834 0.7476 0.0
C633 C 0.26152 0.61779 0.79776 0.0
C634 C 0.2482 0.61573 0.77097 0.0
C635 C 0.25128 0.61836 0.71883 0.0
C636 C 0.26775 0.62138 0.69372 0.0
C637 C 0.2646 0.61698 0.74577 0.0
C638 C 0.29783 0.62092 0.6957 0.0
C639 C 0.31128 0.61941 0.72245 0.0
H640 H 0.39254 0.84334 0.27472 0.0
H641 H 0.42538 0.76331 0.30825 0.0
H642 H 0.4356 0.74704 0.26001 0.0
H643 H 0.42991 0.7529 0.20844 0.0
H644 H 0.39698 0.83197 0.17362 0.0
H645 H 0.39276 0.8516 0.22217 0.0
C646 C 0.40222 0.82248 0.27145 0.0
C647 C 0.40767 0.80439 0.29511 0.0
C648 C 0.40808 0.81311 0.24345 0.0
C649 C 0.42063 0.7776 0.29052 0.0
C650 C 0.42653 0.76822 0.26289 0.0
C651 C 0.42244 0.7747 0.21149 0.0
C652 C 0.41358 0.79097 0.18773 0.0
C653 C 0.4196 0.78544 0.23925 0.0
C654 C 0.40412 0.81919 0.19172 0.0
C655 C 0.40139 0.83023 0.21946 0.0
H656 H 0.73479 0.32001 0.9439 0.0
H657 H 0.70563 0.23255 0.94442 0.0
H658 H 0.75549 0.21585 0.94861 0.0
H659 H 0.80701 0.22633 0.94474 0.0
H660 H 0.83601 0.31389 0.94243 0.0
H661 H 0.78626 0.33055 0.94666 0.0
C662 C 0.73934 0.29727 0.94543 0.0
C663 C 0.71675 0.27742 0.94336 0.0
C664 C 0.7679 0.28799 0.94717 0.0
C665 C 0.72272 0.24812 0.94593 0.0
C666 C 0.7512 0.23864 0.94806 0.0
C667 C 0.80248 0.24909 0.94552 0.0
C668 C 0.82503 0.26894 0.94266 0.0
C669 C 0.77392 0.25839 0.94752 0.0
C670 C 0.81899 0.29828 0.94439 0.0
C671 C 0.79057 0.30776 0.94666 0.0
H672 H 0.79915 0.31998 0.62181 0.0
H673 H 0.84112 0.23762 0.62584 0.0
H674 H 0.79514 0.21394 0.61707 0.0
H675 H 0.74259 0.21681 0.61618 0.0
H676 H 0.70041 0.29907 0.61405 0.0
H677 H 0.74718 0.32291 0.61336 0.0
C678 C 0.79826 0.29684 0.62041 0.0
C679 C 0.82321 0.28042 0.62518 0.0
C680 C 0.77183 0.28351 0.61575 0.0
C681 C 0.82207 0.25059 0.62254 0.0
C682 C 0.79582 0.2371 0.61763 0.0
C683 C 0.7437 0.23997 0.61494 0.0
C684 C 0.7183 0.2563 0.61573 0.0
C685 C 0.77048 0.25335 0.61537 0.0
C686 C 0.71976 0.28617 0.61354 0.0
C687 C 0.74646 0.29974 0.61345 0.0
H688 H 0.6894 0.27698 0.16265 0.0
H689 H 0.76779 0.32604 0.16132 0.0
H690 H 0.79605 0.28235 0.15982 0.0
H691 H 0.79913 0.23038 0.15896 0.0
H692 H 0.72172 0.18003 0.15836 0.0
H693 H 0.69266 0.22381 0.16032 0.0
C694 C 0.71264 0.27802 0.16209 0.0
C695 C 0.72636 0.30485 0.16211 0.0
C696 C 0.72905 0.25255 0.16077 0.0
C697 C 0.75655 0.30579 0.16115 0.0
C698 C 0.77284 0.28076 0.16035 0.0
C699 C 0.77589 0.22889 0.15925 0.0
C700 C 0.76269 0.2019 0.15864 0.0
C701 C 0.75938 0.25406 0.16011 0.0
C702 C 0.7325 0.20051 0.15875 0.0
C703 C 0.71585 0.22557 0.15997 0.0
H704 H 0.83833 0.27983 0.40209 0.0
H705 H 0.75847 0.32676 0.40435 0.0
H706 H 0.73172 0.28211 0.40827 0.0
H707 H 0.73084 0.22933 0.41082 0.0
H708 H 0.81108 0.18285 0.41105 0.0
H709 H 0.83759 0.22741 0.40649 0.0
C710 C 0.81509 0.28025 0.40341 0.0
C711 C 0.80048 0.3066 0.40284 0.0
C712 C 0.79978 0.25447 0.40619 0.0
C713 C 0.77032 0.30678 0.40486 0.0
C714 C 0.75494 0.28123 0.40704 0.0
C715 C 0.75411 0.22901 0.40993 0.0
C716 C 0.76886 0.20274 0.41133 0.0
C717 C 0.76942 0.25489 0.40772 0.0
C718 C 0.79908 0.20274 0.41028 0.0
C719 C 0.81435 0.22825 0.40755 0.0
H720 H 0.14362 0.5791 0.67303 0.0
H721 H 0.19426 0.55557 0.59955 0.0
H722 H 0.18578 0.505 0.60948 0.0
H723 H 0.16893 0.4674 0.64232 0.0
H724 H 0.1205 0.49108 0.71733 0.0
H725 H 0.12305 0.54132 0.7035 0.0
C726 C 0.15214 0.56291 0.65879 0.0
C727 C 0.16957 0.57106 0.63565 0.0
C728 C 0.148 0.53376 0.6652 0.0
C729 C 0.18082 0.54982 0.61759 0.0
C730 C 0.17612 0.52086 0.62333 0.0
C731 C 0.15858 0.4835 0.65542 0.0
C732 C 0.14485 0.47542 0.68099 0.0
C733 C 0.16055 0.51255 0.64762 0.0
C734 C 0.13152 0.49665 0.69768 0.0
C735 C 0.13292 0.52546 0.68979 0.0
H736 H 0.48747 0.71498 0.11871 0.0
H737 H 0.44265 0.64957 0.16637 0.0
H738 H 0.48835 0.62884 0.18151 0.0
H739 H 0.5407 0.6317 0.18487 0.0
H740 H 0.58621 0.69675 0.13762 0.0
H741 H 0.54062 0.71486 0.11827 0.0
C742 C 0.48768 0.696 0.13215 0.0
C743 C 0.46152 0.68409 0.14162 0.0
C744 C 0.51417 0.68414 0.14091 0.0
C745 C 0.46231 0.65932 0.15882 0.0
C746 C 0.48849 0.64745 0.16757 0.0
C747 C 0.54074 0.64963 0.17003 0.0
C748 C 0.56685 0.66302 0.16292 0.0
C749 C 0.5145 0.66005 0.15928 0.0
C750 C 0.56647 0.68599 0.1434 0.0
C751 C 0.54036 0.69649 0.13251 0.0
H752 H 0.36515 0.96918 0.67006 0.0
H753 H 0.30476 1.00019 0.6068 0.0
H754 H 0.31928 0.04934 0.61637 0.0
H755 H 0.3467 0.08393 0.64518 0.0
H756 H 0.40577 0.05261 0.70953 0.0
H757 H 0.39434 1.00345 0.6969 0.0
C758 C 0.35539 0.98663 0.6581 0.0
C759 C 0.33379 0.98089 0.63784 0.0
C760 C 0.36349 1.01496 0.66403 0.0
C761 C 0.32135 1.0039 0.62263 0.0
C762 C 0.32961 0.03209 0.62811 0.0
C763 C 0.35733 0.06635 0.65617 0.0
C764 C 0.37695 0.07205 0.67838 0.0
C765 C 0.3503 0.03794 0.64913 0.0
C766 C 0.39042 0.04894 0.69249 0.0
C767 C 0.3839 0.02074 0.6853 0.0
H768 H 0.03506 0.8359 0.10436 0.0
H769 H 0.06891 0.90298 0.15776 0.0
H770 H 0.02027 0.91554 0.17284 0.0
H771 H 0.96918 0.90305 0.17597 0.0
H772 H 0.93515 0.83571 0.12317 0.0
H773 H 0.98279 0.82795 0.10235 0.0
C774 C 0.03179 0.85363 0.11891 0.0
C775 C 0.0557 0.86821 0.13025 0.0
C776 C 1.00375 0.86051 0.12775 0.0
C777 C 0.05099 0.89134 0.14876 0.0
C778 C 0.02316 0.89842 0.15754 0.0
C779 C 0.97207 0.88701 0.1595 0.0
C780 C 0.94874 0.86969 0.15139 0.0
C781 C 0.99953 0.88248 0.14796 0.0
C782 C 0.95271 0.84931 0.12976 0.0
C783 C 0.98002 0.84473 0.11804 0.0
H784 H 0.13731 0.95737 0.82932 0.0
H785 H 0.19321 0.98139 0.8989 0.0
H786 H 0.18008 0.03158 0.89206 0.0
H787 H 0.15669 0.06884 0.86345 0.0
H788 H 0.10344 0.04563 0.7915 0.0
H789 H 0.11137 0.99492 0.80227 0.0
C790 C 0.14612 0.97355 0.84336 0.0
C791 C 0.16618 0.96569 0.86462 0.0
C792 C 0.13921 1.00253 0.83866 0.0
C793 C 0.17778 0.98692 0.88236 0.0
C794 C 0.17034 0.01562 0.87841 0.0
C795 C 0.14644 0.05276 0.8503 0.0
C796 C 0.1296 0.0611 0.82659 0.0
C797 C 0.15169 0.02373 0.85616 0.0
C798 C 0.11661 0.03985 0.8098 0.0
C799 C 0.12118 1.01084 0.81593 0.0
H800 H 0.99038 0.59337 0.32525 0.0
H801 H 0.95784 0.65888 0.38135 0.0
H802 H 1.00685 0.66956 0.39709 0.0
H803 H 0.05902 0.66481 0.38957 0.0
H804 H 0.0915 0.59946 0.3332 0.0
H805 H 0.04238 0.58385 0.32322 0.0
C806 C 0.99397 0.60962 0.34136 0.0
C807 C 0.97051 0.62559 0.35186 0.0
C808 C 0.0222 0.61582 0.35002 0.0
C809 C 0.97546 0.64628 0.37297 0.0
C810 C 1.00352 0.65254 0.38178 0.0
C811 C 0.0554 0.64678 0.37551 0.0
C812 C 0.07893 0.63356 0.36182 0.0
C813 C 0.02708 0.63814 0.36966 0.0
C814 C 0.07386 0.61001 0.34399 0.0
C815 C 0.04573 0.60123 0.33811 0.0
H816 H 0.4035 0.59391 0.80771 0.0
H817 H 0.39628 0.58067 0.89878 0.0
H818 H 0.40771 0.52998 0.89307 0.0
H819 H 0.41208 0.4885 0.86169 0.0
H820 H 0.41637 0.50065 0.77013 0.0
H821 H 0.41395 0.55252 0.77643 0.0
C822 C 0.40563 0.58007 0.82632 0.0
C823 C 0.39948 0.59095 0.85367 0.0
C824 C 0.41091 0.5506 0.82269 0.0
C825 C 0.40135 0.57273 0.8776 0.0
C826 C 0.40753 0.54371 0.87429 0.0
C827 C 0.41289 0.50246 0.84309 0.0
C828 C 0.41394 0.49062 0.81545 0.0
C829 C 0.41108 0.53221 0.84685 0.0
C830 C 0.41535 0.50913 0.79165 0.0
C831 C 0.41392 0.53884 0.79523 0.0
H832 H 0.49192 0.79613 0.41735 0.0
H833 H 0.45749 0.87578 0.3846 0.0
H834 H 0.50555 0.89566 0.38198 0.0
H835 H 0.55751 0.88862 0.38289 0.0
H836 H 0.59311 0.80932 0.41456 0.0
H837 H 0.54464 0.7915 0.4244 0.0
C838 C 0.49489 0.818 0.41012 0.0
C839 C 0.47099 0.83419 0.40073 0.0
C840 C 0.52289 0.82941 0.4084 0.0
C841 C 0.47535 0.86259 0.39161 0.0
C842 C 0.50292 0.87406 0.3901 0.0
C843 C 0.55471 0.86768 0.39261 0.0
C844 C 0.57888 0.85027 0.3978 0.0
C845 C 0.52686 0.85739 0.39755 0.0
C846 C 0.57491 0.82326 0.41054 0.0
C847 C 0.54713 0.81293 0.41583 0.0
H848 H 0.72035 0.13471 0.60489 0.0
H849 H 0.63455 0.15173 0.57426 0.0
H850 H 0.6477 0.13504 0.52665 0.0
H851 H 0.68496 0.12208 0.49229 0.0
H852 H 0.77145 0.10614 0.52155 0.0
H853 H 0.75674 0.1157 0.57097 0.0
C854 C 0.70436 0.1338 0.588 0.0
C855 C 0.67648 0.14437 0.59308 0.0
C856 C 0.71238 0.12498 0.56024 0.0
C857 C 0.6561 0.14364 0.57086 0.0
C858 C 0.66368 0.13432 0.54356 0.0
C859 C 0.70057 0.12035 0.5095 0.0
C860 C 0.72936 0.11383 0.50314 0.0
C861 C 0.692 0.12603 0.53774 0.0
C862 C 0.74917 0.11125 0.5258 0.0
C863 C 0.74077 0.1168 0.55408 0.0
H864 H 0.83802 0.13053 0.06785 0.0
H865 H 0.9004 0.18777 0.10471 0.0
H866 H 0.91738 0.20057 0.05702 0.0
H867 H 0.91226 0.19839 1.00491 0.0
H868 H 0.85059 0.14108 0.96726 0.0
H869 H 0.83605 0.12501 1.01511 0.0
C870 C 0.85545 0.14567 0.06544 0.0
C871 C 0.86767 0.1584 0.08993 0.0
C872 C 0.86532 0.15287 0.03779 0.0
C873 C 0.89049 0.1777 0.08636 0.0
C874 C 0.90023 0.18508 0.05904 0.0
C875 C 0.89591 0.18206 1.00711 0.0
C876 C 0.88241 0.17111 0.98249 0.0
C877 C 0.8875 0.17318 0.03462 0.0
C878 C 0.86144 0.14979 0.98579 0.0
C879 C 0.85294 0.14079 1.01319 0.0
H880 H 0.90054 0.36616 0.5704 0.0
H881 H 0.82754 0.40999 0.60629 0.0
H882 H 0.81154 0.42378 0.55801 0.0
H883 H 0.81577 0.4187 0.50502 0.0
H884 H 0.88937 0.37408 0.47068 0.0
H885 H 0.90745 0.36542 0.51871 0.0
C886 C 0.88137 0.37917 0.56775 0.0
C887 C 0.8652 0.38687 0.59197 0.0
C888 C 0.87212 0.38657 0.54003 0.0
C889 C 0.84053 0.4039 0.58808 0.0
C890 C 0.83121 0.41154 0.56041 0.0
C891 C 0.83593 0.40741 0.50806 0.0
C892 C 0.85088 0.39676 0.48404 0.0
C893 C 0.84641 0.40229 0.53611 0.0
C894 C 0.8771 0.38231 0.48854 0.0
C895 C 0.88758 0.3773 0.51611 0.0
H896 H 0.62845 0.3669 0.98871 0.0
H897 H 0.7073 0.39864 0.95268 0.0
H898 H 0.72343 0.41338 1.0005 0.0
H899 H 0.71758 0.4108 0.05352 0.0
H900 H 0.63856 0.37704 0.0881 0.0
H901 H 0.62022 0.36952 0.04007 0.0
C902 C 0.64888 0.37773 0.99122 0.0
C903 C 0.66669 0.3816 0.96725 0.0
C904 C 0.65828 0.38522 0.01871 0.0
C905 C 0.69305 0.3957 0.97076 0.0
C906 C 0.70244 0.40374 0.99819 0.0
C907 C 0.69622 0.40215 0.05051 0.0
C908 C 0.67975 0.39404 0.07457 0.0
C909 C 0.68567 0.39758 0.0225 0.0
C910 C 0.65199 0.38308 0.07016 0.0
C911 C 0.64136 0.37881 0.04261 0.0
H912 H 0.93612 0.52451 0.31908 0.0
H913 H 0.85341 0.53601 0.27911 0.0
H914 H 0.8367 0.49101 0.30008 0.0
H915 H 0.84374 0.45184 0.3344 0.0
H916 H 0.92635 0.43865 0.374 0.0
H917 H 0.94529 0.48081 0.34856 0.0
C918 C 0.91484 0.51649 0.31422 0.0
C919 C 0.89608 0.53309 0.29722 0.0
C920 C 0.90528 0.49075 0.32676 0.0
C921 C 0.86829 0.52314 0.29162 0.0
C922 C 0.85866 0.49765 0.30388 0.0
C923 C 0.86601 0.45805 0.33715 0.0
C924 C 0.8836 0.44266 0.35628 0.0
C925 C 0.87665 0.48184 0.32223 0.0
C926 C 0.91248 0.45043 0.35946 0.0
C927 C 0.92321 0.47449 0.34496 0.0
H928 H 0.45912 0.35014 0.89372 0.0
H929 H 0.49364 0.40964 0.83188 0.0
H930 H 0.54231 0.39482 0.8443 0.0
H931 H 0.57496 0.3641 0.87108 0.0
H932 H 0.54179 0.30259 0.93166 0.0
H933 H 0.49271 0.31891 0.92127 0.0
C934 C 0.47736 0.36003 0.88327 0.0
C935 C 0.47279 0.38104 0.86197 0.0
C936 C 0.50547 0.35087 0.89005 0.0
C937 C 0.49658 0.3934 0.84828 0.0
C938 C 0.52442 0.38492 0.85534 0.0
C939 C 0.55708 0.35422 0.88217 0.0
C940 C 0.56213 0.33213 0.90216 0.0
C941 C 0.5291 0.36348 0.87591 0.0
C942 C 0.53856 0.31958 0.91611 0.0
C943 C 0.51048 0.32896 0.91022 0.0
H944 H 0.70855 0.03089 0.41711 0.0
H945 H 0.65921 0.08083 0.35661 0.0
H946 H 0.63786 0.03693 0.33746 0.0
H947 H 0.63555 0.98361 0.33626 0.0
H948 H 0.68521 0.93531 0.39822 0.0
H949 H 0.70394 0.97915 0.41819 0.0
C950 C 0.69295 0.03227 0.39986 0.0
C951 C 0.68567 0.05912 0.38822 0.0
C952 C 0.68091 1.00708 0.38899 0.0
C953 C 0.66516 0.06045 0.36607 0.0
C954 C 0.65308 0.03531 0.35498 0.0
C955 C 0.65034 0.98273 0.3542 0.0
C956 C 0.65901 0.95597 0.36545 0.0
C957 C 0.66115 1.00838 0.36598 0.0
C958 C 0.67808 0.95538 0.38891 0.0
C959 C 0.68892 0.98054 0.40046 0.0
H960 H 0.08472 0.21403 0.88399 0.0
H961 H 0.05376 0.13223 0.85507 0.0
H962 H 1.00605 0.14311 0.87333 0.0
H963 H 0.97233 0.1768 0.89368 0.0
H964 H 1.00083 0.26014 0.9207 0.0
H965 H 0.05026 0.24774 0.90721 0.0
C966 C 0.06757 0.1985 0.88223 0.0
C967 C 0.07266 0.17236 0.86821 0.0
C968 C 0.03972 0.20529 0.89209 0.0
C969 C 0.05026 0.15252 0.86566 0.0
C970 C 0.02297 0.15873 0.87604 0.0
C971 C 0.98928 0.19234 0.89684 0.0
C972 C 0.98275 0.21949 0.90797 0.0
C973 C 0.01731 0.18526 0.88865 0.0
C974 C 1.00519 0.23912 0.91208 0.0
C975 C 0.03346 0.23203 0.90432 0.0
H976 H 0.86806 0.06274 0.20037 0.0
H977 H 0.80507 0.0333 0.13943 0.0
H978 H 0.81719 0.98367 0.15111 0.0
H979 H 0.84491 0.94889 0.17897 0.0
H980 H 0.9066 0.97766 0.24155 0.0
H981 H 0.89552 0.02751 0.22905 0.0
C982 C 0.85721 0.04545 0.18942 0.0
C983 C 0.83588 0.05168 0.16881 0.0
C984 C 0.86384 0.01695 0.19673 0.0
C985 C 0.82161 0.02906 0.15525 0.0
C986 C 0.8285 1.00071 0.16197 0.0
C987 C 0.85604 0.966 0.18992 0.0
C988 C 0.87668 0.95951 0.21112 0.0
C989 C 0.84944 0.99444 0.18277 0.0
C990 C 0.8906 0.98204 0.22522 0.0
C991 C 0.88434 1.01052 0.21799 0.0
H992 H 0.07178 0.35902 0.6849 0.0
H993 H 0.03799 0.40841 0.7551 0.0
H994 H 0.98892 0.39599 0.74053 0.0
H995 H 0.95591 0.3713 0.70741 0.0
H996 H 0.99076 0.32047 0.63869 0.0
H997 H 0.03939 0.3335 0.65308 0.0
C998 C 0.05371 0.36721 0.69703 0.0
C999 C 0.05847 0.38486 0.7209 0.0
C1000 C 0.02585 0.3598 0.68872 0.0
C1001 C 0.03485 0.39482 0.73665 0.0
C1002 C 1.00685 0.38779 0.72826 0.0
C1003 C 0.97417 0.36323 0.69549 0.0
C1004 C 0.96977 0.34513 0.67185 0.0
C1005 C 1.00212 0.3704 0.70423 0.0
C1006 C 0.9936 0.33445 0.65691 0.0
C1007 C 0.02138 0.34189 0.66513 0.0
H1008 H 0.65251 0.47049 0.1493 0.0
H1009 H 0.62501 0.43096 0.22806 0.0
H1010 H 0.60995 0.47786 0.24647 0.0
H1011 H 0.61038 0.53116 0.24191 0.0
H1012 H 0.63919 0.56883 0.16229 0.0
H1013 H 0.64789 0.52179 0.14266 0.0
C1014 C 0.64265 0.47206 0.17029 0.0
C1015 C 0.63999 0.44743 0.18736 0.0
C1016 C 0.63473 0.49893 0.18081 0.0
C1017 C 0.62704 0.44965 0.21442 0.0
C1018 C 0.61877 0.47652 0.22506 0.0
C1019 C 0.61822 0.529 0.22018 0.0
C1020 C 0.62462 0.55368 0.2039 0.0
C1021 C 0.62341 0.5015 0.20877 0.0
C1022 C 0.63453 0.5504 0.17563 0.0
C1023 C 0.63947 0.52342 0.16422 0.0
H1024 H 0.46797 0.17738 0.67146 0.0
H1025 H 0.5019 0.12854 0.74266 0.0
H1026 H 0.55086 0.14036 0.72781 0.0
H1027 H 0.58371 0.16595 0.6956 0.0
H1028 H 0.54933 0.2167 0.62593 0.0
H1029 H 0.50065 0.20266 0.63926 0.0
C1030 C 0.48605 0.16906 0.68364 0.0
C1031 C 0.4813 0.15198 0.70809 0.0
C1032 C 0.51398 0.17641 0.67533 0.0
C1033 C 0.50498 0.14171 0.72377 0.0
C1034 C 0.53295 0.14849 0.7153 0.0
C1035 C 0.56559 0.17381 0.68319 0.0
C1036 C 0.57014 0.19232 0.65975 0.0
C1037 C 0.53766 0.16603 0.69126 0.0
C1038 C 0.54641 0.2025 0.64409 0.0
C1039 C 0.51858 0.19446 0.65169 0.0
H1040 H 0.37305 0.83664 0.47071 0.0
H1041 H 0.31485 0.88415 0.41632 0.0
H1042 H 0.2915 0.90453 0.45859 0.0
H1043 H 0.28717 0.90808 0.51144 0.0
H1044 H 0.34733 0.86145 0.56472 0.0
H1045 H 0.37021 0.84165 0.52253 0.0
C1046 C 0.35525 0.85145 0.46805 0.0
C1047 C 0.3456 0.8587 0.44042 0.0
C1048 C 0.34221 0.8633 0.49233 0.0
C1049 C 0.32273 0.87822 0.43739 0.0
C1050 C 0.30931 0.88983 0.46155 0.0
C1051 C 0.30531 0.89365 0.51375 0.0
C1052 C 0.31541 0.88629 0.54128 0.0
C1053 C 0.31878 0.88242 0.48919 0.0
C1054 C 0.3391 0.86766 0.54387 0.0
C1055 C 0.35223 0.85619 0.51972 0.0
H1056 H 0.10894 0.8003 1.01236 0.0
H1057 H 0.17728 0.85072 0.04874 0.0
H1058 H 0.19192 0.86625 1.00133 0.0
H1059 H 0.18483 0.86718 0.94989 0.0
H1060 H 0.1162 0.81861 0.9118 0.0
H1061 H 0.10218 0.80088 0.95926 0.0
C1062 C 0.12714 0.81446 1.00976 0.0
C1063 C 0.14187 0.82442 0.03411 0.0
C1064 C 0.13531 0.82389 0.98213 0.0
C1065 C 0.16534 0.84294 0.03044 0.0
C1066 C 0.17381 0.85186 1.00329 0.0
C1067 C 0.16681 0.85267 0.95183 0.0
C1068 C 0.1516 0.84434 0.92724 0.0
C1069 C 0.1588 0.84278 0.97905 0.0
C1070 C 0.12828 0.8255 0.93035 0.0
C1071 C 0.12027 0.8153 0.95752 0.0
H1072 H 0.17263 0.68647 0.55225 0.0
H1073 H 0.24211 0.63285 0.52271 0.0
H1074 H 0.22878 0.643 0.47311 0.0
H1075 H 0.19679 0.66564 0.43836 0.0
H1076 H 0.12807 0.72065 0.46672 0.0
H1077 H 0.14192 0.71166 0.51681 0.0
C1078 C 0.18484 0.677 0.53494 0.0
C1079 C 0.20818 0.65867 0.54117 0.0
C1080 C 0.17723 0.68321 0.5064 0.0
C1081 C 0.22406 0.64695 0.51853 0.0
C1082 C 0.21642 0.65271 0.49016 0.0
C1083 C 0.18476 0.6757 0.45548 0.0
C1084 C 0.16117 0.69348 0.44892 0.0
C1085 C 0.19295 0.67058 0.48391 0.0
C1086 C 0.14625 0.70684 0.47128 0.0
C1087 C 0.15411 0.70159 0.49985 0.0
H1088 H 0.35635 0.68968 0.05096 0.0
H1089 H 0.41174 0.75483 0.01588 0.0
H1090 H 0.40166 0.73766 0.96741 0.0
H1091 H 0.37695 0.7042 0.9352 0.0
H1092 H 0.32022 0.64036 0.9706 0.0
H1093 H 0.33111 0.657 0.01894 0.0
C1094 C 0.36635 0.70013 0.03275 0.0
C1095 C 0.38493 0.72344 0.03706 0.0
C1096 C 0.36022 0.69036 1.00507 0.0
C1097 C 0.39738 0.73687 1.01317 0.0
C1098 C 0.39164 0.72702 0.98548 0.0
C1099 C 0.36707 0.69381 0.95349 0.0
C1100 C 0.34791 0.67093 0.94929 0.0
C1101 C 0.37311 0.70377 0.9812 0.0
C1102 C 0.33502 0.65798 0.97322 0.0
C1103 C 0.34126 0.66748 1.00086 0.0
loop_
_geom_bond_atom_site_label_1
_geom_bond_atom_site_label_2
_geom_bond_distance
_geom_bond_site_symmetry_2
_ccdc_geom_bond_type
C0 O2 1.247 . S
C0 O4 1.258 . S
C1 O8 1.247 . S
C1 O9 1.258 . S
O2 C0 1.247 . S
O2 Zn3 2.028 . S
Zn3 O2 2.028 . S
Zn3 O7 2.035 . S
Zn3 O9 2.035 . S
Zn3 O10 2.028 . S
O4 C0 1.258 . S
O4 Zn5 2.035 . S
Zn5 O4 2.035 . S
Zn5 O6 2.028 . S
Zn5 O8 2.028 . S
Zn5 O11 2.035 . S
O6 Zn5 2.028 . S
O6 C12 1.247 . S
O7 Zn3 2.035 . S
O7 C12 1.258 . S
O8 C1 1.247 . S
O8 Zn5 2.028 . S
O9 C1 1.258 . S
O9 Zn3 2.035 . S
O10 Zn3 2.028 . S
O10 C13 1.247 . S
O11 Zn5 2.035 . S
O11 C13 1.258 . S
C12 O6 1.247 . S
C12 O7 1.258 . S
C13 O10 1.247 . S
C13 O11 1.258 . S
C14 O16 1.247 . S
C14 O18 1.258 . S
C15 O22 1.247 . S
C15 O23 1.258 . S
O16 C14 1.247 . S
O16 Zn17 2.028 . S
Zn17 O16 2.028 . S
Zn17 O21 2.035 . S
Zn17 O23 2.035 . S
Zn17 O24 2.028 . S
O18 C14 1.258 . S
O18 Zn19 2.035 . S
Zn19 O18 2.035 . S
Zn19 O20 2.028 . S
Zn19 O22 2.028 . S
Zn19 O25 2.035 . S
O20 Zn19 2.028 . S
O20 C26 1.247 . S
O21 Zn17 2.035 . S
O21 C26 1.258 . S
O22 C15 1.247 . S
O22 Zn19 2.028 . S
O23 C15 1.258 . S
O23 Zn17 2.035 . S
O24 Zn17 2.028 . S
O24 C27 1.247 . S
O25 Zn19 2.035 . S
O25 C27 1.258 . S
C26 O20 1.247 . S
C26 O21 1.258 . S
C27 O24 1.247 . S
C27 O25 1.258 . S
C28 O30 1.247 . S
C28 O32 1.258 . S
C29 O36 1.247 . S
C29 O37 1.258 . S
O30 C28 1.247 . S
O30 Zn31 2.028 . S
Zn31 O30 2.028 . S
Zn31 O35 2.035 . S
Zn31 O37 2.035 . S
Zn31 O38 2.028 . S
O32 C28 1.258 . S
O32 Zn33 2.035 . S
Zn33 O32 2.035 . S
Zn33 O34 2.028 . S
Zn33 O36 2.028 . S
Zn33 O39 2.035 . S
O34 Zn33 2.028 . S
O34 C40 1.247 . S
O35 Zn31 2.035 . S
O35 C40 1.258 . S
O36 C29 1.247 . S
O36 Zn33 2.028 . S
O37 C29 1.258 . S
O37 Zn31 2.035 . S
O38 Zn31 2.028 . S
O38 C41 1.247 . S
O39 Zn33 2.035 . S
O39 C41 1.258 . S
C40 O34 1.247 . S
C40 O35 1.258 . S
C41 O38 1.247 . S
C41 O39 1.258 . S
C42 O44 1.247 . S
C42 O46 1.258 . S
C43 O50 1.247 . S
C43 O51 1.258 . S
O44 C42 1.247 . S
O44 Zn45 2.028 . S
Zn45 O44 2.028 . S
Zn45 O49 2.035 . S
Zn45 O51 2.035 . S
Zn45 O52 2.028 . S
O46 C42 1.258 . S
O46 Zn47 2.035 . S
Zn47 O46 2.035 . S
Zn47 O48 2.028 . S
Zn47 O50 2.028 . S
Zn47 O53 2.035 . S
O48 Zn47 2.028 . S
O48 C54 1.247 . S
O49 Zn45 2.035 . S
O49 C54 1.258 . S
O50 C43 1.247 . S
O50 Zn47 2.028 . S
O51 C43 1.258 . S
O51 Zn45 2.035 . S
O52 Zn45 2.028 . S
O52 C55 1.247 . S
O53 Zn47 2.035 . S
O53 C55 1.258 . S
C54 O48 1.247 . S
C54 O49 1.258 . S
C55 O52 1.247 . S
C55 O53 1.258 . S
C56 O58 1.247 . S
C56 O60 1.258 . S
C57 O64 1.247 . S
C57 O65 1.258 . S
O58 C56 1.247 . S
O58 Zn59 2.028 . S
Zn59 O58 2.028 . S
Zn59 O63 2.035 . S
Zn59 O65 2.035 . S
Zn59 O66 2.028 . S
O60 C56 1.258 . S
O60 Zn61 2.035 . S
Zn61 O60 2.035 . S
Zn61 O62 2.028 . S
Zn61 O64 2.028 . S
Zn61 O67 2.035 . S
O62 Zn61 2.028 . S
O62 C68 1.247 . S
O63 Zn59 2.035 . S
O63 C68 1.258 . S
O64 C57 1.247 . S
O64 Zn61 2.028 . S
O65 C57 1.258 . S
O65 Zn59 2.035 . S
O66 Zn59 2.028 . S
O66 C69 1.247 . S
O67 Zn61 2.035 . S
O67 C69 1.258 . S
C68 O62 1.247 . S
C68 O63 1.258 . S
C69 O66 1.247 . S
C69 O67 1.258 . S
C70 O72 1.247 . S
C70 O74 1.258 . S
C71 O78 1.247 . S
C71 O79 1.258 . S
O72 C70 1.247 . S
O72 Zn73 2.028 . S
Zn73 O72 2.028 . S
Zn73 O77 2.035 . S
Zn73 O79 2.035 . S
Zn73 O80 2.028 . S
O74 C70 1.258 . S
O74 Zn75 2.035 . S
Zn75 O74 2.035 . S
Zn75 O76 2.028 . S
Zn75 O78 2.028 . S
Zn75 O81 2.035 . S
O76 Zn75 2.028 . S
O76 C82 1.247 . S
O77 Zn73 2.035 . S
O77 C82 1.258 . S
O78 C71 1.247 . S
O78 Zn75 2.028 . S
O79 C71 1.258 . S
O79 Zn73 2.035 . S
O80 Zn73 2.028 . S
O80 C83 1.247 . S
O81 Zn75 2.035 . S
O81 C83 1.258 . S
C82 O76 1.247 . S
C82 O77 1.258 . S
C83 O80 1.247 . S
C83 O81 1.258 . S
C84 O86 1.247 . S
C84 O88 1.258 . S
C85 O92 1.247 . S
C85 O93 1.258 . S
O86 C84 1.247 . S
O86 Zn87 2.028 . S
Zn87 O86 2.028 . S
Zn87 O91 2.035 . S
Zn87 O93 2.035 . S
Zn87 O94 2.028 . S
O88 C84 1.258 . S
O88 Zn89 2.035 . S
Zn89 O88 2.035 . S
Zn89 O90 2.028 . S
Zn89 O92 2.028 . S
Zn89 O95 2.035 . S
O90 Zn89 2.028 . S
O90 C96 1.247 . S
O91 Zn87 2.035 . S
O91 C96 1.258 . S
O92 C85 1.247 . S
O92 Zn89 2.028 . S
O93 C85 1.258 . S
O93 Zn87 2.035 . S
O94 Zn87 2.028 . S
O94 C97 1.247 . S
O95 Zn89 2.035 . S
O95 C97 1.258 . S
C96 O90 1.247 . S
C96 O91 1.258 . S
C97 O94 1.247 . S
C97 O95 1.258 . S
C98 O100 1.247 . S
C98 O102 1.258 . S
C99 O106 1.247 . S
C99 O107 1.258 . S
O100 C98 1.247 . S
O100 Zn101 2.028 . S
Zn101 O100 2.028 . S
Zn101 O105 2.035 . S
Zn101 O107 2.035 . S
Zn101 O108 2.028 . S
O102 C98 1.258 . S
O102 Zn103 2.035 . S
Zn103 O102 2.035 . S
Zn103 O104 2.028 . S
Zn103 O106 2.028 . S
Zn103 O109 2.035 . S
O104 Zn103 2.028 . S
O104 C110 1.247 . S
O105 Zn101 2.035 . S
O105 C110 1.258 . S
O106 C99 1.247 . S
O106 Zn103 2.028 . S
O107 C99 1.258 . S
O107 Zn101 2.035 . S
O108 Zn101 2.028 . S
O108 C111 1.247 . S
O109 Zn103 2.035 . S
O109 C111 1.258 . S
C110 O104 1.247 . S
C110 O105 1.258 . S
C111 O108 1.247 . S
C111 O109 1.258 . S
C112 O114 1.247 . S
C112 O116 1.258 . S
C113 O120 1.247 . S
C113 O121 1.258 . S
O114 C112 1.247 . S
O114 Zn115 2.028 . S
Zn115 O114 2.028 . S
Zn115 O119 2.035 . S
Zn115 O121 2.035 . S
Zn115 O122 2.028 . S
O116 C112 1.258 . S
O116 Zn117 2.035 . S
Zn117 O116 2.035 . S
Zn117 O118 2.028 . S
Zn117 O120 2.028 . S
Zn117 O123 2.035 . S
O118 Zn117 2.028 . S
O118 C124 1.247 . S
O119 Zn115 2.035 . S
O119 C124 1.258 . S
O120 C113 1.247 . S
O120 Zn117 2.028 . S
O121 C113 1.258 . S
O121 Zn115 2.035 . S
O122 Zn115 2.028 . S
O122 C125 1.247 . S
O123 Zn117 2.035 . S
O123 C125 1.258 . S
C124 O118 1.247 . S
C124 O119 1.258 . S
C125 O122 1.247 . S
C125 O123 1.258 . S
C126 O128 1.247 . S
C126 O130 1.258 . S
C127 O134 1.247 . S
C127 O135 1.258 . S
O128 C126 1.247 . S
O128 Zn129 2.028 . S
Zn129 O128 2.028 . S
Zn129 O133 2.035 . S
Zn129 O135 2.035 . S
Zn129 O136 2.028 . S
O130 C126 1.258 . S
O130 Zn131 2.035 . S
Zn131 O130 2.035 . S
Zn131 O132 2.028 . S
Zn131 O134 2.028 . S
Zn131 O137 2.035 . S
O132 Zn131 2.028 . S
O132 C138 1.247 . S
O133 Zn129 2.035 . S
O133 C138 1.258 . S
O134 C127 1.247 . S
O134 Zn131 2.028 . S
O135 C127 1.258 . S
O135 Zn129 2.035 . S
O136 Zn129 2.028 . S
O136 C139 1.247 . S
O137 Zn131 2.035 . S
O137 C139 1.258 . S
C138 O132 1.247 . S
C138 O133 1.258 . S
C139 O136 1.247 . S
C139 O137 1.258 . S
C140 O142 1.247 . S
C140 O144 1.258 . S
C141 O148 1.247 . S
C141 O149 1.258 . S
O142 C140 1.247 . S
O142 Zn143 2.028 . S
Zn143 O142 2.028 . S
Zn143 O147 2.035 . S
Zn143 O149 2.035 . S
Zn143 O150 2.028 . S
O144 C140 1.258 . S
O144 Zn145 2.035 . S
Zn145 O144 2.035 . S
Zn145 O146 2.028 . S
Zn145 O148 2.028 . S
Zn145 O151 2.035 . S
O146 Zn145 2.028 . S
O146 C152 1.247 . S
O147 Zn143 2.035 . S
O147 C152 1.258 . S
O148 C141 1.247 . S
O148 Zn145 2.028 . S
O149 C141 1.258 . S
O149 Zn143 2.035 . S
O150 Zn143 2.028 . S
O150 C153 1.247 . S
O151 Zn145 2.035 . S
O151 C153 1.258 . S
C152 O146 1.247 . S
C152 O147 1.258 . S
C153 O150 1.247 . S
C153 O151 1.258 . S
C154 O156 1.247 . S
C154 O158 1.258 . S
C155 O162 1.247 . S
C155 O163 1.258 . S
O156 C154 1.247 . S
O156 Zn157 2.028 . S
Zn157 O156 2.028 . S
Zn157 O161 2.035 . S
Zn157 O163 2.035 . S
Zn157 O164 2.028 . S
O158 C154 1.258 . S
O158 Zn159 2.035 . S
Zn159 O158 2.035 . S
Zn159 O160 2.028 . S
Zn159 O162 2.028 . S
Zn159 O165 2.035 . S
O160 Zn159 2.028 . S
O160 C166 1.247 . S
O161 Zn157 2.035 . S
O161 C166 1.258 . S
O162 C155 1.247 . S
O162 Zn159 2.028 . S
O163 C155 1.258 . S
O163 Zn157 2.035 . S
O164 Zn157 2.028 . S
O164 C167 1.247 . S
O165 Zn159 2.035 . S
O165 C167 1.258 . S
C166 O160 1.247 . S
C166 O161 1.258 . S
C167 O164 1.247 . S
C167 O165 1.258 . S
C168 O170 1.247 . S
C168 O172 1.258 . S
C169 O176 1.247 . S
C169 O177 1.258 . S
O170 C168 1.247 . S
O170 Zn171 2.028 . S
Zn171 O170 2.028 . S
Zn171 O175 2.035 . S
Zn171 O177 2.035 . S
Zn171 O178 2.028 . S
O172 C168 1.258 . S
O172 Zn173 2.035 . S
Zn173 O172 2.035 . S
Zn173 O174 2.028 . S
Zn173 O176 2.028 . S
Zn173 O179 2.035 . S
O174 Zn173 2.028 . S
O174 C180 1.247 . S
O175 Zn171 2.035 . S
O175 C180 1.258 . S
O176 C169 1.247 . S
O176 Zn173 2.028 . S
O177 C169 1.258 . S
O177 Zn171 2.035 . S
O178 Zn171 2.028 . S
O178 C181 1.247 . S
O179 Zn173 2.035 . S
O179 C181 1.258 . S
C180 O174 1.247 . S
C180 O175 1.258 . S
C181 O178 1.247 . S
C181 O179 1.258 . S
C182 O184 1.247 . S
C182 O186 1.258 . S
C183 O190 1.247 . S
C183 O191 1.258 . S
O184 C182 1.247 . S
O184 Zn185 2.028 . S
Zn185 O184 2.028 . S
Zn185 O189 2.035 . S
Zn185 O191 2.035 . S
Zn185 O192 2.028 . S
O186 C182 1.258 . S
O186 Zn187 2.035 . S
Zn187 O186 2.035 . S
Zn187 O188 2.028 . S
Zn187 O190 2.028 . S
Zn187 O193 2.035 . S
O188 Zn187 2.028 . S
O188 C194 1.247 . S
O189 Zn185 2.035 . S
O189 C194 1.258 . S
O190 C183 1.247 . S
O190 Zn187 2.028 . S
O191 C183 1.258 . S
O191 Zn185 2.035 . S
O192 Zn185 2.028 . S
O192 C195 1.247 . S
O193 Zn187 2.035 . S
O193 C195 1.258 . S
C194 O188 1.247 . S
C194 O189 1.258 . S
C195 O192 1.247 . S
C195 O193 1.258 . S
C196 O198 1.247 . S
C196 O200 1.258 . S
C197 O204 1.247 . S
C197 O205 1.258 . S
O198 C196 1.247 . S
O198 Zn199 2.028 . S
Zn199 O198 2.028 . S
Zn199 O203 2.035 . S
Zn199 O205 2.035 . S
Zn199 O206 2.028 . S
O200 C196 1.258 . S
O200 Zn201 2.035 . S
Zn201 O200 2.035 . S
Zn201 O202 2.028 . S
Zn201 O204 2.028 . S
Zn201 O207 2.035 . S
O202 Zn201 2.028 . S
O202 C208 1.247 . S
O203 Zn199 2.035 . S
O203 C208 1.258 . S
O204 C197 1.247 . S
O204 Zn201 2.028 . S
O205 C197 1.258 . S
O205 Zn199 2.035 . S
O206 Zn199 2.028 . S
O206 C209 1.247 . S
O207 Zn201 2.035 . S
O207 C209 1.258 . S
C208 O202 1.247 . S
C208 O203 1.258 . S
C209 O206 1.247 . S
C209 O207 1.258 . S
C210 O212 1.247 . S
C210 O214 1.258 . S
C211 O218 1.247 . S
C211 O219 1.258 . S
O212 C210 1.247 . S
O212 Zn213 2.028 . S
Zn213 O212 2.028 . S
Zn213 O217 2.035 . S
Zn213 O219 2.035 . S
Zn213 O220 2.028 . S
O214 C210 1.258 . S
O214 Zn215 2.035 . S
Zn215 O214 2.035 . S
Zn215 O216 2.028 . S
Zn215 O218 2.028 . S
Zn215 O221 2.035 . S
O216 Zn215 2.028 . S
O216 C222 1.247 . S
O217 Zn213 2.035 . S
O217 C222 1.258 . S
O218 C211 1.247 . S
O218 Zn215 2.028 . S
O219 C211 1.258 . S
O219 Zn213 2.035 . S
O220 Zn213 2.028 . S
O220 C223 1.247 . S
O221 Zn215 2.035 . S
O221 C223 1.258 . S
C222 O216 1.247 . S
C222 O217 1.258 . S
C223 O220 1.247 . S
C223 O221 1.258 . S
C224 O226 1.247 . S
C224 O228 1.258 . S
C225 O232 1.247 . S
C225 O233 1.258 . S
O226 C224 1.247 . S
O226 Zn227 2.028 . S
Zn227 O226 2.028 . S
Zn227 O231 2.035 . S
Zn227 O233 2.035 . S
Zn227 O234 2.028 . S
O228 C224 1.258 . S
O228 Zn229 2.035 . S
Zn229 O228 2.035 . S
Zn229 O230 2.028 . S
Zn229 O232 2.028 . S
Zn229 O235 2.035 . S
O230 Zn229 2.028 . S
O230 C236 1.247 . S
O231 Zn227 2.035 . S
O231 C236 1.258 . S
O232 C225 1.247 . S
O232 Zn229 2.028 . S
O233 C225 1.258 . S
O233 Zn227 2.035 . S
O234 Zn227 2.028 . S
O234 C237 1.247 . S
O235 Zn229 2.035 . S
O235 C237 1.258 . S
C236 O230 1.247 . S
C236 O231 1.258 . S
C237 O234 1.247 . S
C237 O235 1.258 . S
C238 O240 1.247 . S
C238 O242 1.258 . S
C239 O246 1.247 . S
C239 O247 1.258 . S
O240 C238 1.247 . S
O240 Zn241 2.028 . S
Zn241 O240 2.028 . S
Zn241 O245 2.035 . S
Zn241 O247 2.035 . S
Zn241 O248 2.028 . S
O242 C238 1.258 . S
O242 Zn243 2.035 . S
Zn243 O242 2.035 . S
Zn243 O244 2.028 . S
Zn243 O246 2.028 . S
Zn243 O249 2.035 . S
O244 Zn243 2.028 . S
O244 C250 1.247 . S
O245 Zn241 2.035 . S
O245 C250 1.258 . S
O246 C239 1.247 . S
O246 Zn243 2.028 . S
O247 C239 1.258 . S
O247 Zn241 2.035 . S
O248 Zn241 2.028 . S
O248 C251 1.247 . S
O249 Zn243 2.035 . S
O249 C251 1.258 . S
C250 O244 1.247 . S
C250 O245 1.258 . S
C251 O248 1.247 . S
C251 O249 1.258 . S
C252 O254 1.247 . S
C252 O256 1.258 . S
C253 O260 1.247 . S
C253 O261 1.258 . S
O254 C252 1.247 . S
O254 Zn255 2.028 . S
Zn255 O254 2.028 . S
Zn255 O259 2.035 . S
Zn255 O261 2.035 . S
Zn255 O262 2.028 . S
O256 C252 1.258 . S
O256 Zn257 2.035 . S
Zn257 O256 2.035 . S
Zn257 O258 2.028 . S
Zn257 O260 2.028 . S
Zn257 O263 2.035 . S
O258 Zn257 2.028 . S
O258 C264 1.247 . S
O259 Zn255 2.035 . S
O259 C264 1.258 . S
O260 C253 1.247 . S
O260 Zn257 2.028 . S
O261 C253 1.258 . S
O261 Zn255 2.035 . S
O262 Zn255 2.028 . S
O262 C265 1.247 . S
O263 Zn257 2.035 . S
O263 C265 1.258 . S
C264 O258 1.247 . S
C264 O259 1.258 . S
C265 O262 1.247 . S
C265 O263 1.258 . S
C266 O268 1.247 . S
C266 O270 1.258 . S
C267 O274 1.247 . S
C267 O275 1.258 . S
O268 C266 1.247 . S
O268 Zn269 2.028 . S
Zn269 O268 2.028 . S
Zn269 O273 2.035 . S
Zn269 O275 2.035 . S
Zn269 O276 2.028 . S
O270 C266 1.258 . S
O270 Zn271 2.035 . S
Zn271 O270 2.035 . S
Zn271 O272 2.028 . S
Zn271 O274 2.028 . S
Zn271 O277 2.035 . S
O272 Zn271 2.028 . S
O272 C278 1.247 . S
O273 Zn269 2.035 . S
O273 C278 1.258 . S
O274 C267 1.247 . S
O274 Zn271 2.028 . S
O275 C267 1.258 . S
O275 Zn269 2.035 . S
O276 Zn269 2.028 . S
O276 C279 1.247 . S
O277 Zn271 2.035 . S
O277 C279 1.258 . S
C278 O272 1.247 . S
C278 O273 1.258 . S
C279 O276 1.247 . S
C279 O277 1.258 . S
C280 O282 1.247 . S
C280 O284 1.258 . S
C281 O288 1.247 . S
C281 O289 1.258 . S
O282 C280 1.247 . S
O282 Zn283 2.028 . S
Zn283 O282 2.028 . S
Zn283 O287 2.035 . S
Zn283 O289 2.035 . S
Zn283 O290 2.028 . S
O284 C280 1.258 . S
O284 Zn285 2.035 . S
Zn285 O284 2.035 . S
Zn285 O286 2.028 . S
Zn285 O288 2.028 . S
Zn285 O291 2.035 . S
O286 Zn285 2.028 . S
O286 C292 1.247 . S
O287 Zn283 2.035 . S
O287 C292 1.258 . S
O288 C281 1.247 . S
O288 Zn285 2.028 . S
O289 C281 1.258 . S
O289 Zn283 2.035 . S
O290 Zn283 2.028 . S
O290 C293 1.247 . S
O291 Zn285 2.035 . S
O291 C293 1.258 . S
C292 O286 1.247 . S
C292 O287 1.258 . S
C293 O290 1.247 . S
C293 O291 1.258 . S
C294 O296 1.247 . S
C294 O298 1.258 . S
C295 O302 1.247 . S
C295 O303 1.258 . S
O296 C294 1.247 . S
O296 Zn297 2.028 . S
Zn297 O296 2.028 . S
Zn297 O301 2.035 . S
Zn297 O303 2.035 . S
Zn297 O304 2.028 . S
O298 C294 1.258 . S
O298 Zn299 2.035 . S
Zn299 O298 2.035 . S
Zn299 O300 2.028 . S
Zn299 O302 2.028 . S
Zn299 O305 2.035 . S
O300 Zn299 2.028 . S
O300 C306 1.247 . S
O301 Zn297 2.035 . S
O301 C306 1.258 . S
O302 C295 1.247 . S
O302 Zn299 2.028 . S
O303 C295 1.258 . S
O303 Zn297 2.035 . S
O304 Zn297 2.028 . S
O304 C307 1.247 . S
O305 Zn299 2.035 . S
O305 C307 1.258 . S
C306 O300 1.247 . S
C306 O301 1.258 . S
C307 O304 1.247 . S
C307 O305 1.258 . S
C308 O310 1.247 . S
C308 O312 1.258 . S
C309 O316 1.247 . S
C309 O317 1.258 . S
O310 C308 1.247 . S
O310 Zn311 2.028 . S
Zn311 O310 2.028 . S
Zn311 O315 2.035 . S
Zn311 O317 2.035 . S
Zn311 O318 2.028 . S
O312 C308 1.258 . S
O312 Zn313 2.035 . S
Zn313 O312 2.035 . S
Zn313 O314 2.028 . S
Zn313 O316 2.028 . S
Zn313 O319 2.035 . S
O314 Zn313 2.028 . S
O314 C320 1.247 . S
O315 Zn311 2.035 . S
O315 C320 1.258 . S
O316 C309 1.247 . S
O316 Zn313 2.028 . S
O317 C309 1.258 . S
O317 Zn311 2.035 . S
O318 Zn311 2.028 . S
O318 C321 1.247 . S
O319 Zn313 2.035 . S
O319 C321 1.258 . S
C320 O314 1.247 . S
C320 O315 1.258 . S
C321 O318 1.247 . S
C321 O319 1.258 . S
C322 O324 1.247 . S
C322 O326 1.258 . S
C323 O330 1.247 . S
C323 O331 1.258 . S
O324 C322 1.247 . S
O324 Zn325 2.028 . S
Zn325 O324 2.028 . S
Zn325 O329 2.035 . S
Zn325 O331 2.035 . S
Zn325 O332 2.028 . S
O326 C322 1.258 . S
O326 Zn327 2.035 . S
Zn327 O326 2.035 . S
Zn327 O328 2.028 . S
Zn327 O330 2.028 . S
Zn327 O333 2.035 . S
O328 Zn327 2.028 . S
O328 C334 1.247 . S
O329 Zn325 2.035 . S
O329 C334 1.258 . S
O330 C323 1.247 . S
O330 Zn327 2.028 . S
O331 C323 1.258 . S
O331 Zn325 2.035 . S
O332 Zn325 2.028 . S
O332 C335 1.247 . S
O333 Zn327 2.035 . S
O333 C335 1.258 . S
C334 O328 1.247 . S
C334 O329 1.258 . S
C335 O332 1.247 . S
C335 O333 1.258 . S
H336 C342 0.930 . S
H337 C345 0.930 . S
H338 C346 0.930 . S
H339 C347 0.930 . S
H340 C350 0.930 . S
H341 C351 0.930 . S
C342 H336 0.930 . S
C342 C343 1.355 . S
C342 C344 1.415 . S
C343 C342 1.355 . S
C343 C345 1.419 . S
C344 C342 1.415 . S
C344 C349 1.425 . S
C344 C351 1.409 . S
C345 H337 0.930 . S
C345 C343 1.419 . S
C345 C346 1.362 . S
C346 H338 0.930 . S
C346 C345 1.362 . S
C346 C349 1.409 . S
C347 H339 0.930 . S
C347 C348 1.355 . S
C347 C349 1.415 . S
C348 C347 1.355 . S
C348 C350 1.419 . S
C349 C344 1.425 . S
C349 C346 1.409 . S
C349 C347 1.415 . S
C350 H340 0.930 . S
C350 C348 1.419 . S
C350 C351 1.362 . S
C351 H341 0.930 . S
C351 C344 1.409 . S
C351 C350 1.362 . S
H352 C358 0.930 . S
H353 C361 0.930 . S
H354 C362 0.930 . S
H355 C363 0.930 . S
H356 C366 0.930 . S
H357 C367 0.930 . S
C358 H352 0.930 . S
C358 C359 1.355 . S
C358 C360 1.415 . S
C359 C358 1.355 . S
C359 C361 1.419 . S
C360 C358 1.415 . S
C360 C365 1.425 . S
C360 C367 1.409 . S
C361 H353 0.930 . S
C361 C359 1.419 . S
C361 C362 1.362 . S
C362 H354 0.930 . S
C362 C361 1.362 . S
C362 C365 1.409 . S
C363 H355 0.930 . S
C363 C364 1.355 . S
C363 C365 1.415 . S
C364 C363 1.355 . S
C364 C366 1.419 . S
C365 C360 1.425 . S
C365 C362 1.409 . S
C365 C363 1.415 . S
C366 H356 0.930 . S
C366 C364 1.419 . S
C366 C367 1.362 . S
C367 H357 0.930 . S
C367 C360 1.409 . S
C367 C366 1.362 . S
H368 C374 0.930 . S
H369 C377 0.930 . S
H370 C378 0.930 . S
H371 C379 0.930 . S
H372 C382 0.930 . S
H373 C383 0.930 . S
C374 H368 0.930 . S
C374 C375 1.355 . S
C374 C376 1.415 . S
C375 C374 1.355 . S
C375 C377 1.419 . S
C376 C374 1.415 . S
C376 C381 1.425 . S
C376 C383 1.409 . S
C377 H369 0.930 . S
C377 C375 1.419 . S
C377 C378 1.362 . S
C378 H370 0.930 . S
C378 C377 1.362 . S
C378 C381 1.409 . S
C379 H371 0.930 . S
C379 C380 1.355 . S
C379 C381 1.415 . S
C380 C379 1.355 . S
C380 C382 1.419 . S
C381 C376 1.425 . S
C381 C378 1.409 . S
C381 C379 1.415 . S
C382 H372 0.930 . S
C382 C380 1.419 . S
C382 C383 1.362 . S
C383 H373 0.930 . S
C383 C376 1.409 . S
C383 C382 1.362 . S
H384 C390 0.930 . S
H385 C393 0.930 . S
H386 C394 0.930 . S
H387 C395 0.930 . S
H388 C398 0.930 . S
H389 C399 0.930 . S
C390 H384 0.930 . S
C390 C391 1.355 . S
C390 C392 1.415 . S
C391 C390 1.355 . S
C391 C393 1.419 . S
C392 C390 1.415 . S
C392 C397 1.425 . S
C392 C399 1.409 . S
C393 H385 0.930 . S
C393 C391 1.419 . S
C393 C394 1.362 . S
C394 H386 0.930 . S
C394 C393 1.362 . S
C394 C397 1.409 . S
C395 H387 0.930 . S
C395 C396 1.355 . S
C395 C397 1.415 . S
C396 C395 1.355 . S
C396 C398 1.419 . S
C397 C392 1.425 . S
C397 C394 1.409 . S
C397 C395 1.415 . S
C398 H388 0.930 . S
C398 C396 1.419 . S
C398 C399 1.362 . S
C399 H389 0.930 . S
C399 C392 1.409 . S
C399 C398 1.362 . S
H400 C406 0.930 . S
H401 C409 0.930 . S
H402 C410 0.930 . S
H403 C411 0.930 . S
H404 C414 0.930 . S
H405 C415 0.930 . S
C406 H400 0.930 . S
C406 C407 1.355 . S
C406 C408 1.415 . S
C407 C406 1.355 . S
C407 C409 1.419 . S
C408 C406 1.415 . S
C408 C413 1.425 . S
C408 C415 1.409 . S
C409 H401 0.930 . S
C409 C407 1.419 . S
C409 C410 1.362 . S
C410 H402 0.930 . S
C410 C409 1.362 . S
C410 C413 1.409 . S
C411 H403 0.930 . S
C411 C412 1.355 . S
C411 C413 1.415 . S
C412 C411 1.355 . S
C412 C414 1.419 . S
C413 C408 1.425 . S
C413 C410 1.409 . S
C413 C411 1.415 . S
C414 H404 0.930 . S
C414 C412 1.419 . S
C414 C415 1.362 . S
C415 H405 0.930 . S
C415 C408 1.409 . S
C415 C414 1.362 . S
H416 C422 0.930 . S
H417 C425 0.930 . S
H418 C426 0.930 . S
H419 C427 0.930 . S
H420 C430 0.930 . S
H421 C431 0.930 . S
C422 H416 0.930 . S
C422 C423 1.355 . S
C422 C424 1.415 . S
C423 C422 1.355 . S
C423 C425 1.419 . S
C424 C422 1.415 . S
C424 C429 1.425 . S
C424 C431 1.409 . S
C425 H417 0.930 . S
C425 C423 1.419 . S
C425 C426 1.362 . S
C426 H418 0.930 . S
C426 C425 1.362 . S
C426 C429 1.409 . S
C427 H419 0.930 . S
C427 C428 1.355 . S
C427 C429 1.415 . S
C428 C427 1.355 . S
C428 C430 1.419 . S
C429 C424 1.425 . S
C429 C426 1.409 . S
C429 C427 1.415 . S
C430 H420 0.930 . S
C430 C428 1.419 . S
C430 C431 1.362 . S
C431 H421 0.930 . S
C431 C424 1.409 . S
C431 C430 1.362 . S
H432 C438 0.930 . S
H433 C441 0.930 . S
H434 C442 0.930 . S
H435 C443 0.930 . S
H436 C446 0.930 . S
H437 C447 0.930 . S
C438 H432 0.930 . S
C438 C439 1.355 . S
C438 C440 1.415 . S
C439 C438 1.355 . S
C439 C441 1.419 . S
C440 C438 1.415 . S
C440 C445 1.425 . S
C440 C447 1.409 . S
C441 H433 0.930 . S
C441 C439 1.419 . S
C441 C442 1.362 . S
C442 H434 0.930 . S
C442 C441 1.362 . S
C442 C445 1.409 . S
C443 H435 0.930 . S
C443 C444 1.355 . S
C443 C445 1.415 . S
C444 C443 1.355 . S
C444 C446 1.419 . S
C445 C440 1.425 . S
C445 C442 1.409 . S
C445 C443 1.415 . S
C446 H436 0.930 . S
C446 C444 1.419 . S
C446 C447 1.362 . S
C447 H437 0.930 . S
C447 C440 1.409 . S
C447 C446 1.362 . S
H448 C454 0.930 . S
H449 C457 0.930 . S
H450 C458 0.930 . S
H451 C459 0.930 . S
H452 C462 0.930 . S
H453 C463 0.930 . S
C454 H448 0.930 . S
C454 C455 1.355 . S
C454 C456 1.415 . S
C455 C454 1.355 . S
C455 C457 1.419 . S
C456 C454 1.415 . S
C456 C461 1.425 . S
C456 C463 1.409 . S
C457 H449 0.930 . S
C457 C455 1.419 . S
C457 C458 1.362 . S
C458 H450 0.930 . S
C458 C457 1.362 . S
C458 C461 1.409 . S
C459 H451 0.930 . S
C459 C460 1.355 . S
C459 C461 1.415 . S
C460 C459 1.355 . S
C460 C462 1.419 . S
C461 C456 1.425 . S
C461 C458 1.409 . S
C461 C459 1.415 . S
C462 H452 0.930 . S
C462 C460 1.419 . S
C462 C463 1.362 . S
C463 H453 0.930 . S
C463 C456 1.409 . S
C463 C462 1.362 . S
H464 C470 0.930 . S
H465 C473 0.930 . S
H466 C474 0.930 . S
H467 C475 0.930 . S
H468 C478 0.930 . S
H469 C479 0.930 . S
C470 H464 0.930 . S
C470 C471 1.355 . S
C470 C472 1.415 . S
C471 C470 1.355 . S
C471 C473 1.419 . S
C472 C470 1.415 . S
C472 C477 1.425 . S
C472 C479 1.409 . S
C473 H465 0.930 . S
C473 C471 1.419 . S
C473 C474 1.362 . S
C474 H466 0.930 . S
C474 C473 1.362 . S
C474 C477 1.409 . S
C475 H467 0.930 . S
C475 C476 1.355 . S
C475 C477 1.415 . S
C476 C475 1.355 . S
C476 C478 1.419 . S
C477 C472 1.425 . S
C477 C474 1.409 . S
C477 C475 1.415 . S
C478 H468 0.930 . S
C478 C476 1.419 . S
C478 C479 1.362 . S
C479 H469 0.930 . S
C479 C472 1.409 . S
C479 C478 1.362 . S
H480 C486 0.930 . S
H481 C489 0.930 . S
H482 C490 0.930 . S
H483 C491 0.930 . S
H484 C494 0.930 . S
H485 C495 0.930 . S
C486 H480 0.930 . S
C486 C487 1.355 . S
C486 C488 1.415 . S
C487 C486 1.355 . S
C487 C489 1.419 . S
C488 C486 1.415 . S
C488 C493 1.425 . S
C488 C495 1.409 . S
C489 H481 0.930 . S
C489 C487 1.419 . S
C489 C490 1.362 . S
C490 H482 0.930 . S
C490 C489 1.362 . S
C490 C493 1.409 . S
C491 H483 0.930 . S
C491 C492 1.355 . S
C491 C493 1.415 . S
C492 C491 1.355 . S
C492 C494 1.419 . S
C493 C488 1.425 . S
C493 C490 1.409 . S
C493 C491 1.415 . S
C494 H484 0.930 . S
C494 C492 1.419 . S
C494 C495 1.362 . S
C495 H485 0.930 . S
C495 C488 1.409 . S
C495 C494 1.362 . S
H496 C502 0.930 . S
H497 C505 0.930 . S
H498 C506 0.930 . S
H499 C507 0.930 . S
H500 C510 0.930 . S
H501 C511 0.930 . S
C502 H496 0.930 . S
C502 C503 1.355 . S
C502 C504 1.415 . S
C503 C502 1.355 . S
C503 C505 1.419 . S
C504 C502 1.415 . S
C504 C509 1.425 . S
C504 C511 1.409 . S
C505 H497 0.930 . S
C505 C503 1.419 . S
C505 C506 1.362 . S
C506 H498 0.930 . S
C506 C505 1.362 . S
C506 C509 1.409 . S
C507 H499 0.930 . S
C507 C508 1.355 . S
C507 C509 1.415 . S
C508 C507 1.355 . S
C508 C510 1.419 . S
C509 C504 1.425 . S
C509 C506 1.409 . S
C509 C507 1.415 . S
C510 H500 0.930 . S
C510 C508 1.419 . S
C510 C511 1.362 . S
C511 H501 0.930 . S
C511 C504 1.409 . S
C511 C510 1.362 . S
H512 C518 0.930 . S
H513 C521 0.930 . S
H514 C522 0.930 . S
H515 C523 0.930 . S
H516 C526 0.930 . S
H517 C527 0.930 . S
C518 H512 0.930 . S
C518 C519 1.355 . S
C518 C520 1.415 . S
C519 C518 1.355 . S
C519 C521 1.419 . S
C520 C518 1.415 . S
C520 C525 1.425 . S
C520 C527 1.409 . S
C521 H513 0.930 . S
C521 C519 1.419 . S
C521 C522 1.362 . S
C522 H514 0.930 . S
C522 C521 1.362 . S
C522 C525 1.409 . S
C523 H515 0.930 . S
C523 C524 1.355 . S
C523 C525 1.415 . S
C524 C523 1.355 . S
C524 C526 1.419 . S
C525 C520 1.425 . S
C525 C522 1.409 . S
C525 C523 1.415 . S
C526 H516 0.930 . S
C526 C524 1.419 . S
C526 C527 1.362 . S
C527 H517 0.930 . S
C527 C520 1.409 . S
C527 C526 1.362 . S
H528 C534 0.930 . S
H529 C537 0.930 . S
H530 C538 0.930 . S
H531 C539 0.930 . S
H532 C542 0.930 . S
H533 C543 0.930 . S
C534 H528 0.930 . S
C534 C535 1.355 . S
C534 C536 1.415 . S
C535 C534 1.355 . S
C535 C537 1.419 . S
C536 C534 1.415 . S
C536 C541 1.425 . S
C536 C543 1.409 . S
C537 H529 0.930 . S
C537 C535 1.419 . S
C537 C538 1.362 . S
C538 H530 0.930 . S
C538 C537 1.362 . S
C538 C541 1.409 . S
C539 H531 0.930 . S
C539 C540 1.355 . S
C539 C541 1.415 . S
C540 C539 1.355 . S
C540 C542 1.419 . S
C541 C536 1.425 . S
C541 C538 1.409 . S
C541 C539 1.415 . S
C542 H532 0.930 . S
C542 C540 1.419 . S
C542 C543 1.362 . S
C543 H533 0.930 . S
C543 C536 1.409 . S
C543 C542 1.362 . S
H544 C550 0.930 . S
H545 C553 0.930 . S
H546 C554 0.930 . S
H547 C555 0.930 . S
H548 C558 0.930 . S
H549 C559 0.930 . S
C550 H544 0.930 . S
C550 C551 1.355 . S
C550 C552 1.415 . S
C551 C550 1.355 . S
C551 C553 1.419 . S
C552 C550 1.415 . S
C552 C557 1.425 . S
C552 C559 1.409 . S
C553 H545 0.930 . S
C553 C551 1.419 . S
C553 C554 1.362 . S
C554 H546 0.930 . S
C554 C553 1.362 . S
C554 C557 1.409 . S
C555 H547 0.930 . S
C555 C556 1.355 . S
C555 C557 1.415 . S
C556 C555 1.355 . S
C556 C558 1.419 . S
C557 C552 1.425 . S
C557 C554 1.409 . S
C557 C555 1.415 . S
C558 H548 0.930 . S
C558 C556 1.419 . S
C558 C559 1.362 . S
C559 H549 0.930 . S
C559 C552 1.409 . S
C559 C558 1.362 . S
H560 C566 0.930 . S
H561 C569 0.930 . S
H562 C570 0.930 . S
H563 C571 0.930 . S
H564 C574 0.930 . S
H565 C575 0.930 . S
C566 H560 0.930 . S
C566 C567 1.355 . S
C566 C568 1.415 . S
C567 C566 1.355 . S
C567 C569 1.419 . S
C568 C566 1.415 . S
C568 C573 1.425 . S
C568 C575 1.409 . S
C569 H561 0.930 . S
C569 C567 1.419 . S
C569 C570 1.362 . S
C570 H562 0.930 . S
C570 C569 1.362 . S
C570 C573 1.409 . S
C571 H563 0.930 . S
C571 C572 1.355 . S
C571 C573 1.415 . S
C572 C571 1.355 . S
C572 C574 1.419 . S
C573 C568 1.425 . S
C573 C570 1.409 . S
C573 C571 1.415 . S
C574 H564 0.930 . S
C574 C572 1.419 . S
C574 C575 1.362 . S
C575 H565 0.930 . S
C575 C568 1.409 . S
C575 C574 1.362 . S
H576 C582 0.930 . S
H577 C585 0.930 . S
H578 C586 0.930 . S
H579 C587 0.930 . S
H580 C590 0.930 . S
H581 C591 0.930 . S
C582 H576 0.930 . S
C582 C583 1.355 . S
C582 C584 1.415 . S
C583 C582 1.355 . S
C583 C585 1.419 . S
C584 C582 1.415 . S
C584 C589 1.425 . S
C584 C591 1.409 . S
C585 H577 0.930 . S
C585 C583 1.419 . S
C585 C586 1.362 . S
C586 H578 0.930 . S
C586 C585 1.362 . S
C586 C589 1.409 . S
C587 H579 0.930 . S
C587 C588 1.355 . S
C587 C589 1.415 . S
C588 C587 1.355 . S
C588 C590 1.419 . S
C589 C584 1.425 . S
C589 C586 1.409 . S
C589 C587 1.415 . S
C590 H580 0.930 . S
C590 C588 1.419 . S
C590 C591 1.362 . S
C591 H581 0.930 . S
C591 C584 1.409 . S
C591 C590 1.362 . S
H592 C598 0.930 . S
H593 C601 0.930 . S
H594 C602 0.930 . S
H595 C603 0.930 . S
H596 C606 0.930 . S
H597 C607 0.930 . S
C598 H592 0.930 . S
C598 C599 1.355 . S
C598 C600 1.415 . S
C599 C598 1.355 . S
C599 C601 1.419 . S
C600 C598 1.415 . S
C600 C605 1.425 . S
C600 C607 1.409 . S
C601 H593 0.930 . S
C601 C599 1.419 . S
C601 C602 1.362 . S
C602 H594 0.930 . S
C602 C601 1.362 . S
C602 C605 1.409 . S
C603 H595 0.930 . S
C603 C604 1.355 . S
C603 C605 1.415 . S
C604 C603 1.355 . S
C604 C606 1.419 . S
C605 C600 1.425 . S
C605 C602 1.409 . S
C605 C603 1.415 . S
C606 H596 0.930 . S
C606 C604 1.419 . S
C606 C607 1.362 . S
C607 H597 0.930 . S
C607 C600 1.409 . S
C607 C606 1.362 . S
H608 C614 0.930 . S
H609 C617 0.930 . S
H610 C618 0.930 . S
H611 C619 0.930 . S
H612 C622 0.930 . S
H613 C623 0.930 . S
C614 H608 0.930 . S
C614 C615 1.355 . S
C614 C616 1.415 . S
C615 C614 1.355 . S
C615 C617 1.419 . S
C616 C614 1.415 . S
C616 C621 1.425 . S
C616 C623 1.409 . S
C617 H609 0.930 . S
C617 C615 1.419 . S
C617 C618 1.362 . S
C618 H610 0.930 . S
C618 C617 1.362 . S
C618 C621 1.409 . S
C619 H611 0.930 . S
C619 C620 1.355 . S
C619 C621 1.415 . S
C620 C619 1.355 . S
C620 C622 1.419 . S
C621 C616 1.425 . S
C621 C618 1.409 . S
C621 C619 1.415 . S
C622 H612 0.930 . S
C622 C620 1.419 . S
C622 C623 1.362 . S
C623 H613 0.930 . S
C623 C616 1.409 . S
C623 C622 1.362 . S
H624 C630 0.930 . S
H625 C633 0.930 . S
H626 C634 0.930 . S
H627 C635 0.930 . S
H628 C638 0.930 . S
H629 C639 0.930 . S
C630 H624 0.930 . S
C630 C631 1.355 . S
C630 C632 1.415 . S
C631 C630 1.355 . S
C631 C633 1.419 . S
C632 C630 1.415 . S
C632 C637 1.425 . S
C632 C639 1.409 . S
C633 H625 0.930 . S
C633 C631 1.419 . S
C633 C634 1.362 . S
C634 H626 0.930 . S
C634 C633 1.362 . S
C634 C637 1.409 . S
C635 H627 0.930 . S
C635 C636 1.355 . S
C635 C637 1.415 . S
C636 C635 1.355 . S
C636 C638 1.419 . S
C637 C632 1.425 . S
C637 C634 1.409 . S
C637 C635 1.415 . S
C638 H628 0.930 . S
C638 C636 1.419 . S
C638 C639 1.362 . S
C639 H629 0.930 . S
C639 C632 1.409 . S
C639 C638 1.362 . S
H640 C646 0.930 . S
H641 C649 0.930 . S
H642 C650 0.930 . S
H643 C651 0.930 . S
H644 C654 0.930 . S
H645 C655 0.930 . S
C646 H640 0.930 . S
C646 C647 1.355 . S
C646 C648 1.415 . S
C647 C646 1.355 . S
C647 C649 1.419 . S
C648 C646 1.415 . S
C648 C653 1.425 . S
C648 C655 1.409 . S
C649 H641 0.930 . S
C649 C647 1.419 . S
C649 C650 1.362 . S
C650 H642 0.930 . S
C650 C649 1.362 . S
C650 C653 1.409 . S
C651 H643 0.930 . S
C651 C652 1.355 . S
C651 C653 1.415 . S
C652 C651 1.355 . S
C652 C654 1.419 . S
C653 C648 1.425 . S
C653 C650 1.409 . S
C653 C651 1.415 . S
C654 H644 0.930 . S
C654 C652 1.419 . S
C654 C655 1.362 . S
C655 H645 0.930 . S
C655 C648 1.409 . S
C655 C654 1.362 . S
H656 C662 0.930 . S
H657 C665 0.930 . S
H658 C666 0.930 . S
H659 C667 0.930 . S
H660 C670 0.930 . S
H661 C671 0.930 . S
C662 H656 0.930 . S
C662 C663 1.355 . S
C662 C664 1.415 . S
C663 C662 1.355 . S
C663 C665 1.419 . S
C664 C662 1.415 . S
C664 C669 1.425 . S
C664 C671 1.409 . S
C665 H657 0.930 . S
C665 C663 1.419 . S
C665 C666 1.362 . S
C666 H658 0.930 . S
C666 C665 1.362 . S
C666 C669 1.409 . S
C667 H659 0.930 . S
C667 C668 1.355 . S
C667 C669 1.415 . S
C668 C667 1.355 . S
C668 C670 1.419 . S
C669 C664 1.425 . S
C669 C666 1.409 . S
C669 C667 1.415 . S
C670 H660 0.930 . S
C670 C668 1.419 . S
C670 C671 1.362 . S
C671 H661 0.930 . S
C671 C664 1.409 . S
C671 C670 1.362 . S
H672 C678 0.930 . S
H673 C681 0.930 . S
H674 C682 0.930 . S
H675 C683 0.930 . S
H676 C686 0.930 . S
H677 C687 0.930 . S
C678 H672 0.930 . S
C678 C679 1.355 . S
C678 C680 1.415 . S
C679 C678 1.355 . S
C679 C681 1.419 . S
C680 C678 1.415 . S
C680 C685 1.425 . S
C680 C687 1.409 . S
C681 H673 0.930 . S
C681 C679 1.419 . S
C681 C682 1.362 . S
C682 H674 0.930 . S
C682 C681 1.362 . S
C682 C685 1.409 . S
C683 H675 0.930 . S
C683 C684 1.355 . S
C683 C685 1.415 . S
C684 C683 1.355 . S
C684 C686 1.419 . S
C685 C680 1.425 . S
C685 C682 1.409 . S
C685 C683 1.415 . S
C686 H676 0.930 . S
C686 C684 1.419 . S
C686 C687 1.362 . S
C687 H677 0.930 . S
C687 C680 1.409 . S
C687 C686 1.362 . S
H688 C694 0.930 . S
H689 C697 0.930 . S
H690 C698 0.930 . S
H691 C699 0.930 . S
H692 C702 0.930 . S
H693 C703 0.930 . S
C694 H688 0.930 . S
C694 C695 1.355 . S
C694 C696 1.415 . S
C695 C694 1.355 . S
C695 C697 1.419 . S
C696 C694 1.415 . S
C696 C701 1.425 . S
C696 C703 1.409 . S
C697 H689 0.930 . S
C697 C695 1.419 . S
C697 C698 1.362 . S
C698 H690 0.930 . S
C698 C697 1.362 . S
C698 C701 1.409 . S
C699 H691 0.930 . S
C699 C700 1.355 . S
C699 C701 1.415 . S
C700 C699 1.355 . S
C700 C702 1.419 . S
C701 C696 1.425 . S
C701 C698 1.409 . S
C701 C699 1.415 . S
C702 H692 0.930 . S
C702 C700 1.419 . S
C702 C703 1.362 . S
C703 H693 0.930 . S
C703 C696 1.409 . S
C703 C702 1.362 . S
H704 C710 0.930 . S
H705 C713 0.930 . S
H706 C714 0.930 . S
H707 C715 0.930 . S
H708 C718 0.930 . S
H709 C719 0.930 . S
C710 H704 0.930 . S
C710 C711 1.355 . S
C710 C712 1.415 . S
C711 C710 1.355 . S
C711 C713 1.419 . S
C712 C710 1.415 . S
C712 C717 1.425 . S
C712 C719 1.409 . S
C713 H705 0.930 . S
C713 C711 1.419 . S
C713 C714 1.362 . S
C714 H706 0.930 . S
C714 C713 1.362 . S
C714 C717 1.409 . S
C715 H707 0.930 . S
C715 C716 1.355 . S
C715 C717 1.415 . S
C716 C715 1.355 . S
C716 C718 1.419 . S
C717 C712 1.425 . S
C717 C714 1.409 . S
C717 C715 1.415 . S
C718 H708 0.930 . S
C718 C716 1.419 . S
C718 C719 1.362 . S
C719 H709 0.930 . S
C719 C712 1.409 . S
C719 C718 1.362 . S
H720 C726 0.930 . S
H721 C729 0.930 . S
H722 C730 0.930 . S
H723 C731 0.930 . S
H724 C734 0.930 . S
H725 C735 0.930 . S
C726 H720 0.930 . S
C726 C727 1.355 . S
C726 C728 1.415 . S
C727 C726 1.355 . S
C727 C729 1.419 . S
C728 C726 1.415 . S
C728 C733 1.425 . S
C728 C735 1.409 . S
C729 H721 0.930 . S
C729 C727 1.419 . S
C729 C730 1.362 . S
C730 H722 0.930 . S
C730 C729 1.362 . S
C730 C733 1.409 . S
C731 H723 0.930 . S
C731 C732 1.355 . S
C731 C733 1.415 . S
C732 C731 1.355 . S
C732 C734 1.419 . S
C733 C728 1.425 . S
C733 C730 1.409 . S
C733 C731 1.415 . S
C734 H724 0.930 . S
C734 C732 1.419 . S
C734 C735 1.362 . S
C735 H725 0.930 . S
C735 C728 1.409 . S
C735 C734 1.362 . S
H736 C742 0.930 . S
H737 C745 0.930 . S
H738 C746 0.930 . S
H739 C747 0.930 . S
H740 C750 0.930 . S
H741 C751 0.930 . S
C742 H736 0.930 . S
C742 C743 1.355 . S
C742 C744 1.415 . S
C743 C742 1.355 . S
C743 C745 1.419 . S
C744 C742 1.415 . S
C744 C749 1.425 . S
C744 C751 1.409 . S
C745 H737 0.930 . S
C745 C743 1.419 . S
C745 C746 1.362 . S
C746 H738 0.930 . S
C746 C745 1.362 . S
C746 C749 1.409 . S
C747 H739 0.930 . S
C747 C748 1.355 . S
C747 C749 1.415 . S
C748 C747 1.355 . S
C748 C750 1.419 . S
C749 C744 1.425 . S
C749 C746 1.409 . S
C749 C747 1.415 . S
C750 H740 0.930 . S
C750 C748 1.419 . S
C750 C751 1.362 . S
C751 H741 0.930 . S
C751 C744 1.409 . S
C751 C750 1.362 . S
H752 C758 0.930 . S
H753 C761 0.930 . S
H754 C762 0.945 . S
H755 C763 0.930 . S
H756 C766 0.930 . S
H757 C767 0.945 . S
C758 H752 0.930 . S
C758 C759 1.355 . S
C758 C760 1.415 . S
C759 C758 1.355 . S
C759 C761 1.419 . S
C760 C758 1.415 . S
C760 C765 1.425 1_565 S
C760 C767 1.416 . S
C761 H753 0.930 . S
C761 C759 1.419 . S
C761 C762 1.341 1_565 S
C762 H754 0.945 . S
C762 C761 1.341 1_545 S
C762 C765 1.416 . S
C763 H755 0.930 . S
C763 C764 1.355 . S
C763 C765 1.415 . S
C764 C763 1.355 . S
C764 C766 1.419 . S
C765 C760 1.425 1_545 S
C765 C762 1.416 . S
C765 C763 1.415 . S
C766 H756 0.930 . S
C766 C764 1.419 . S
C766 C767 1.341 1_545 S
C767 H757 0.945 . S
C767 C760 1.416 . S
C767 C766 1.341 1_565 S
H768 C774 0.930 . S
H769 C777 0.930 . S
H770 C778 0.930 . S
H771 C779 0.930 . S
H772 C782 0.930 . S
H773 C783 0.930 . S
C774 H768 0.930 . S
C774 C775 1.355 . S
C774 C776 1.415 . S
C775 C774 1.355 . S
C775 C777 1.419 . S
C776 C774 1.415 . S
C776 C781 1.425 1_455 S
C776 C783 1.409 1_455 S
C777 H769 0.930 . S
C777 C775 1.419 . S
C777 C778 1.362 . S
C778 H770 0.930 . S
C778 C777 1.362 . S
C778 C781 1.409 1_455 S
C779 H771 0.930 . S
C779 C780 1.355 . S
C779 C781 1.415 . S
C780 C779 1.355 . S
C780 C782 1.419 . S
C781 C776 1.425 1_655 S
C781 C778 1.409 1_655 S
C781 C779 1.415 . S
C782 H772 0.930 . S
C782 C780 1.419 . S
C782 C783 1.362 . S
C783 H773 0.930 . S
C783 C776 1.409 1_655 S
C783 C782 1.362 . S
H784 C790 0.930 . S
H785 C793 0.930 . S
H786 C794 0.930 . S
H787 C795 0.930 . S
H788 C798 0.930 . S
H789 C799 0.930 . S
C790 H784 0.930 . S
C790 C791 1.355 . S
C790 C792 1.415 . S
C791 C790 1.355 . S
C791 C793 1.419 . S
C792 C790 1.415 . S
C792 C797 1.425 1_565 S
C792 C799 1.409 . S
C793 H785 0.930 . S
C793 C791 1.419 . S
C793 C794 1.362 1_565 S
C794 H786 0.930 . S
C794 C793 1.362 1_545 S
C794 C797 1.409 . S
C795 H787 0.930 . S
C795 C796 1.355 . S
C795 C797 1.415 . S
C796 C795 1.355 . S
C796 C798 1.419 . S
C797 C792 1.425 1_545 S
C797 C794 1.409 . S
C797 C795 1.415 . S
C798 H788 0.930 . S
C798 C796 1.419 . S
C798 C799 1.362 1_545 S
C799 H789 0.930 . S
C799 C792 1.409 . S
C799 C798 1.362 1_565 S
H800 C806 0.930 . S
H801 C809 0.930 . S
H802 C810 0.930 . S
H803 C811 0.930 . S
H804 C814 0.930 . S
H805 C815 0.930 . S
C806 H800 0.930 . S
C806 C807 1.355 . S
C806 C808 1.415 1_655 S
C807 C806 1.355 . S
C807 C809 1.419 . S
C808 C806 1.415 1_455 S
C808 C813 1.425 1_455 S
C808 C815 1.409 . S
C809 H801 0.930 . S
C809 C807 1.419 . S
C809 C810 1.362 . S
C810 H802 0.930 . S
C810 C809 1.362 . S
C810 C813 1.409 . S
C811 H803 0.930 . S
C811 C812 1.355 . S
C811 C813 1.415 1_455 S
C812 C811 1.355 . S
C812 C814 1.419 . S
C813 C808 1.425 1_655 S
C813 C810 1.409 . S
C813 C811 1.415 1_655 S
C814 H804 0.930 . S
C814 C812 1.419 . S
C814 C815 1.362 . S
C815 H805 0.930 . S
C815 C808 1.409 . S
C815 C814 1.362 . S
H816 C822 0.930 . S
H817 C825 0.930 . S
H818 C826 0.930 . S
H819 C827 0.930 . S
H820 C830 0.930 . S
H821 C831 0.930 . S
C822 H816 0.930 . S
C822 C823 1.355 . S
C822 C824 1.415 . S
C823 C822 1.355 . S
C823 C825 1.419 . S
C824 C822 1.415 . S
C824 C829 1.425 . S
C824 C831 1.409 . S
C825 H817 0.930 . S
C825 C823 1.419 . S
C825 C826 1.362 . S
C826 H818 0.930 . S
C826 C825 1.362 . S
C826 C829 1.409 . S
C827 H819 0.930 . S
C827 C828 1.355 . S
C827 C829 1.415 . S
C828 C827 1.355 . S
C828 C830 1.419 . S
C829 C824 1.425 . S
C829 C826 1.409 . S
C829 C827 1.415 . S
C830 H820 0.930 . S
C830 C828 1.419 . S
C830 C831 1.362 . S
C831 H821 0.930 . S
C831 C824 1.409 . S
C831 C830 1.362 . S
H832 C838 0.930 . S
H833 C841 0.930 . S
H834 C842 0.930 . S
H835 C843 0.930 . S
H836 C846 0.930 . S
H837 C847 0.930 . S
C838 H832 0.930 . S
C838 C839 1.355 . S
C838 C840 1.415 . S
C839 C838 1.355 . S
C839 C841 1.419 . S
C840 C838 1.415 . S
C840 C845 1.425 . S
C840 C847 1.409 . S
C841 H833 0.930 . S
C841 C839 1.419 . S
C841 C842 1.362 . S
C842 H834 0.930 . S
C842 C841 1.362 . S
C842 C845 1.409 . S
C843 H835 0.930 . S
C843 C844 1.355 . S
C843 C845 1.415 . S
C844 C843 1.355 . S
C844 C846 1.419 . S
C845 C840 1.425 . S
C845 C842 1.409 . S
C845 C843 1.415 . S
C846 H836 0.930 . S
C846 C844 1.419 . S
C846 C847 1.362 . S
C847 H837 0.930 . S
C847 C840 1.409 . S
C847 C846 1.362 . S
H848 C854 0.930 . S
H849 C857 0.930 . S
H850 C858 0.930 . S
H851 C859 0.930 . S
H852 C862 0.930 . S
H853 C863 0.930 . S
C854 H848 0.930 . S
C854 C855 1.355 . S
C854 C856 1.415 . S
C855 C854 1.355 . S
C855 C857 1.419 . S
C856 C854 1.415 . S
C856 C861 1.425 . S
C856 C863 1.409 . S
C857 H849 0.930 . S
C857 C855 1.419 . S
C857 C858 1.362 . S
C858 H850 0.930 . S
C858 C857 1.362 . S
C858 C861 1.409 . S
C859 H851 0.930 . S
C859 C860 1.355 . S
C859 C861 1.415 . S
C860 C859 1.355 . S
C860 C862 1.419 . S
C861 C856 1.425 . S
C861 C858 1.409 . S
C861 C859 1.415 . S
C862 H852 0.930 . S
C862 C860 1.419 . S
C862 C863 1.362 . S
C863 H853 0.930 . S
C863 C856 1.409 . S
C863 C862 1.362 . S
H864 C870 0.930 . S
H865 C873 0.930 . S
H866 C874 0.930 . S
H867 C875 0.930 . S
H868 C878 0.930 . S
H869 C879 0.930 . S
C870 H864 0.930 . S
C870 C871 1.355 . S
C870 C872 1.447 . S
C871 C870 1.355 . S
C871 C873 1.419 . S
C872 C870 1.447 . S
C872 C877 1.423 1_554 S
C872 C879 1.379 1_554 S
C873 H865 0.930 . S
C873 C871 1.419 . S
C873 C874 1.362 . S
C874 H866 0.930 . S
C874 C873 1.362 . S
C874 C877 1.379 1_554 S
C875 H867 0.930 . S
C875 C876 1.355 . S
C875 C877 1.447 . S
C876 C875 1.355 . S
C876 C878 1.419 . S
C877 C872 1.423 1_556 S
C877 C874 1.379 1_556 S
C877 C875 1.447 . S
C878 H868 0.930 . S
C878 C876 1.419 . S
C878 C879 1.362 . S
C879 H869 0.930 . S
C879 C872 1.379 1_556 S
C879 C878 1.362 . S
H880 C886 0.930 . S
H881 C889 0.930 . S
H882 C890 0.930 . S
H883 C891 0.930 . S
H884 C894 0.930 . S
H885 C895 0.930 . S
C886 H880 0.930 . S
C886 C887 1.355 . S
C886 C888 1.415 . S
C887 C886 1.355 . S
C887 C889 1.419 . S
C888 C886 1.415 . S
C888 C893 1.425 . S
C888 C895 1.409 . S
C889 H881 0.930 . S
C889 C887 1.419 . S
C889 C890 1.362 . S
C890 H882 0.930 . S
C890 C889 1.362 . S
C890 C893 1.409 . S
C891 H883 0.930 . S
C891 C892 1.355 . S
C891 C893 1.415 . S
C892 C891 1.355 . S
C892 C894 1.419 . S
C893 C888 1.425 . S
C893 C890 1.409 . S
C893 C891 1.415 . S
C894 H884 0.930 . S
C894 C892 1.419 . S
C894 C895 1.362 . S
C895 H885 0.930 . S
C895 C888 1.409 . S
C895 C894 1.362 . S
H896 C902 0.930 . S
H897 C905 0.930 . S
H898 C906 0.930 . S
H899 C907 0.930 . S
H900 C910 0.930 . S
H901 C911 0.930 . S
C902 H896 0.930 . S
C902 C903 1.355 . S
C902 C904 1.415 . S
C903 C902 1.355 . S
C903 C905 1.419 . S
C904 C902 1.415 . S
C904 C909 1.425 1_556 S
C904 C911 1.409 1_556 S
C905 H897 0.930 . S
C905 C903 1.419 . S
C905 C906 1.362 . S
C906 H898 0.930 . S
C906 C905 1.362 . S
C906 C909 1.409 1_556 S
C907 H899 0.930 . S
C907 C908 1.355 . S
C907 C909 1.415 . S
C908 C907 1.355 . S
C908 C910 1.419 . S
C909 C904 1.425 1_554 S
C909 C906 1.409 1_554 S
C909 C907 1.415 . S
C910 H900 0.930 . S
C910 C908 1.419 . S
C910 C911 1.362 . S
C911 H901 0.930 . S
C911 C904 1.409 1_554 S
C911 C910 1.362 . S
H912 C918 0.930 . S
H913 C921 0.930 . S
H914 C922 0.930 . S
H915 C923 0.930 . S
H916 C926 0.930 . S
H917 C927 0.930 . S
C918 H912 0.930 . S
C918 C919 1.355 . S
C918 C920 1.415 . S
C919 C918 1.355 . S
C919 C921 1.419 . S
C920 C918 1.415 . S
C920 C925 1.425 . S
C920 C927 1.409 . S
C921 H913 0.930 . S
C921 C919 1.419 . S
C921 C922 1.362 . S
C922 H914 0.930 . S
C922 C921 1.362 . S
C922 C925 1.409 . S
C923 H915 0.930 . S
C923 C924 1.355 . S
C923 C925 1.415 . S
C924 C923 1.355 . S
C924 C926 1.419 . S
C925 C920 1.425 . S
C925 C922 1.409 . S
C925 C923 1.415 . S
C926 H916 0.930 . S
C926 C924 1.419 . S
C926 C927 1.362 . S
C927 H917 0.930 . S
C927 C920 1.409 . S
C927 C926 1.362 . S
H928 C934 0.930 . S
H929 C937 0.930 . S
H930 C938 0.930 . S
H931 C939 0.930 . S
H932 C942 0.930 . S
H933 C943 0.930 . S
C934 H928 0.930 . S
C934 C935 1.355 . S
C934 C936 1.415 . S
C935 C934 1.355 . S
C935 C937 1.419 . S
C936 C934 1.415 . S
C936 C941 1.425 . S
C936 C943 1.409 . S
C937 H929 0.930 . S
C937 C935 1.419 . S
C937 C938 1.362 . S
C938 H930 0.930 . S
C938 C937 1.362 . S
C938 C941 1.409 . S
C939 H931 0.930 . S
C939 C940 1.355 . S
C939 C941 1.415 . S
C940 C939 1.355 . S
C940 C942 1.419 . S
C941 C936 1.425 . S
C941 C938 1.409 . S
C941 C939 1.415 . S
C942 H932 0.930 . S
C942 C940 1.419 . S
C942 C943 1.362 . S
C943 H933 0.930 . S
C943 C936 1.409 . S
C943 C942 1.362 . S
H944 C950 0.930 . S
H945 C953 0.930 . S
H946 C954 0.930 . S
H947 C955 0.930 . S
H948 C958 0.930 . S
H949 C959 0.930 . S
C950 H944 0.930 . S
C950 C951 1.355 . S
C950 C952 1.415 . S
C951 C950 1.355 . S
C951 C953 1.419 . S
C952 C950 1.415 . S
C952 C957 1.425 1_545 S
C952 C959 1.409 1_545 S
C953 H945 0.930 . S
C953 C951 1.419 . S
C953 C954 1.362 . S
C954 H946 0.930 . S
C954 C953 1.362 . S
C954 C957 1.409 1_545 S
C955 H947 0.930 . S
C955 C956 1.355 . S
C955 C957 1.415 . S
C956 C955 1.355 . S
C956 C958 1.419 . S
C957 C952 1.425 1_565 S
C957 C954 1.409 1_565 S
C957 C955 1.415 . S
C958 H948 0.930 . S
C958 C956 1.419 . S
C958 C959 1.362 . S
C959 H949 0.930 . S
C959 C952 1.409 1_565 S
C959 C958 1.362 . S
H960 C966 0.930 . S
H961 C969 0.930 . S
H962 C970 0.930 . S
H963 C971 0.930 . S
H964 C974 0.930 . S
H965 C975 0.930 . S
C966 H960 0.930 . S
C966 C967 1.355 . S
C966 C968 1.415 . S
C967 C966 1.355 . S
C967 C969 1.419 . S
C968 C966 1.415 . S
C968 C973 1.425 1_455 S
C968 C975 1.409 . S
C969 H961 0.930 . S
C969 C967 1.419 . S
C969 C970 1.362 1_455 S
C970 H962 0.930 . S
C970 C969 1.362 1_655 S
C970 C973 1.409 . S
C971 H963 0.930 . S
C971 C972 1.355 . S
C971 C973 1.415 . S
C972 C971 1.355 . S
C972 C974 1.419 . S
C973 C968 1.425 1_655 S
C973 C970 1.409 . S
C973 C971 1.415 . S
C974 H964 0.930 . S
C974 C972 1.419 . S
C974 C975 1.362 1_655 S
C975 H965 0.930 . S
C975 C968 1.409 . S
C975 C974 1.362 1_455 S
H976 C982 0.930 . S
H977 C985 0.930 . S
H978 C986 0.930 . S
H979 C987 0.930 . S
H980 C990 0.930 . S
H981 C991 0.930 . S
C982 H976 0.930 . S
C982 C983 1.355 . S
C982 C984 1.415 . S
C983 C982 1.355 . S
C983 C985 1.419 . S
C984 C982 1.415 . S
C984 C989 1.425 1_545 S
C984 C991 1.409 1_545 S
C985 H977 0.930 . S
C985 C983 1.419 . S
C985 C986 1.362 . S
C986 H978 0.930 . S
C986 C985 1.362 . S
C986 C989 1.409 1_545 S
C987 H979 0.930 . S
C987 C988 1.355 . S
C987 C989 1.415 . S
C988 C987 1.355 . S
C988 C990 1.419 . S
C989 C984 1.425 1_565 S
C989 C986 1.409 1_565 S
C989 C987 1.415 . S
C990 H980 0.930 . S
C990 C988 1.419 . S
C990 C991 1.362 . S
C991 H981 0.930 . S
C991 C984 1.409 1_565 S
C991 C990 1.362 . S
H992 C998 0.930 . S
H993 C1001 0.930 . S
H994 C1002 0.930 . S
H995 C1003 0.930 . S
H996 C1006 0.930 . S
H997 C1007 0.930 . S
C998 H992 0.930 . S
C998 C999 1.355 . S
C998 C1000 1.415 . S
C999 C998 1.355 . S
C999 C1001 1.419 . S
C1000 C998 1.415 . S
C1000 C1005 1.425 1_455 S
C1000 C1007 1.409 . S
C1001 H993 0.930 . S
C1001 C999 1.419 . S
C1001 C1002 1.362 1_455 S
C1002 H994 0.930 . S
C1002 C1001 1.362 1_655 S
C1002 C1005 1.409 . S
C1003 H995 0.930 . S
C1003 C1004 1.355 . S
C1003 C1005 1.415 . S
C1004 C1003 1.355 . S
C1004 C1006 1.419 . S
C1005 C1000 1.425 1_655 S
C1005 C1002 1.409 . S
C1005 C1003 1.415 . S
C1006 H996 0.930 . S
C1006 C1004 1.419 . S
C1006 C1007 1.362 1_655 S
C1007 H997 0.930 . S
C1007 C1000 1.409 . S
C1007 C1006 1.362 1_455 S
H1008 C1014 0.930 . S
H1009 C1017 0.930 . S
H1010 C1018 0.930 . S
H1011 C1019 0.930 . S
H1012 C1022 0.930 . S
H1013 C1023 0.930 . S
C1014 H1008 0.930 . S
C1014 C1015 1.355 . S
C1014 C1016 1.415 . S
C1015 C1014 1.355 . S
C1015 C1017 1.419 . S
C1016 C1014 1.415 . S
C1016 C1021 1.425 . S
C1016 C1023 1.409 . S
C1017 H1009 0.930 . S
C1017 C1015 1.419 . S
C1017 C1018 1.362 . S
C1018 H1010 0.930 . S
C1018 C1017 1.362 . S
C1018 C1021 1.409 . S
C1019 H1011 0.930 . S
C1019 C1020 1.355 . S
C1019 C1021 1.415 . S
C1020 C1019 1.355 . S
C1020 C1022 1.419 . S
C1021 C1016 1.425 . S
C1021 C1018 1.409 . S
C1021 C1019 1.415 . S
C1022 H1012 0.930 . S
C1022 C1020 1.419 . S
C1022 C1023 1.362 . S
C1023 H1013 0.930 . S
C1023 C1016 1.409 . S
C1023 C1022 1.362 . S
H1024 C1030 0.930 . S
H1025 C1033 0.930 . S
H1026 C1034 0.930 . S
H1027 C1035 0.930 . S
H1028 C1038 0.930 . S
H1029 C1039 0.930 . S
C1030 H1024 0.930 . S
C1030 C1031 1.355 . S
C1030 C1032 1.415 . S
C1031 C1030 1.355 . S
C1031 C1033 1.419 . S
C1032 C1030 1.415 . S
C1032 C1037 1.425 . S
C1032 C1039 1.409 . S
C1033 H1025 0.930 . S
C1033 C1031 1.419 . S
C1033 C1034 1.362 . S
C1034 H1026 0.930 . S
C1034 C1033 1.362 . S
C1034 C1037 1.409 . S
C1035 H1027 0.930 . S
C1035 C1036 1.355 . S
C1035 C1037 1.415 . S
C1036 C1035 1.355 . S
C1036 C1038 1.419 . S
C1037 C1032 1.425 . S
C1037 C1034 1.409 . S
C1037 C1035 1.415 . S
C1038 H1028 0.930 . S
C1038 C1036 1.419 . S
C1038 C1039 1.362 . S
C1039 H1029 0.930 . S
C1039 C1032 1.409 . S
C1039 C1038 1.362 . S
H1040 C1046 0.930 . S
H1041 C1049 0.930 . S
H1042 C1050 0.930 . S
H1043 C1051 0.930 . S
H1044 C1054 0.930 . S
H1045 C1055 0.930 . S
C1046 H1040 0.930 . S
C1046 C1047 1.355 . S
C1046 C1048 1.415 . S
C1047 C1046 1.355 . S
C1047 C1049 1.419 . S
C1048 C1046 1.415 . S
C1048 C1053 1.425 . S
C1048 C1055 1.409 . S
C1049 H1041 0.930 . S
C1049 C1047 1.419 . S
C1049 C1050 1.362 . S
C1050 H1042 0.930 . S
C1050 C1049 1.362 . S
C1050 C1053 1.409 . S
C1051 H1043 0.930 . S
C1051 C1052 1.355 . S
C1051 C1053 1.415 . S
C1052 C1051 1.355 . S
C1052 C1054 1.419 . S
C1053 C1048 1.425 . S
C1053 C1050 1.409 . S
C1053 C1051 1.415 . S
C1054 H1044 0.930 . S
C1054 C1052 1.419 . S
C1054 C1055 1.362 . S
C1055 H1045 0.930 . S
C1055 C1048 1.409 . S
C1055 C1054 1.362 . S
H1056 C1062 0.930 . S
H1057 C1065 0.930 . S
H1058 C1066 0.930 . S
H1059 C1067 0.930 . S
H1060 C1070 0.930 . S
H1061 C1071 0.930 . S
C1062 H1056 0.930 . S
C1062 C1063 1.355 . S
C1062 C1064 1.410 1_554 S
C1063 C1062 1.355 . S
C1063 C1065 1.419 . S
C1064 C1062 1.410 1_556 S
C1064 C1069 1.425 1_556 S
C1064 C1071 1.414 . S
C1065 H1057 0.930 . S
C1065 C1063 1.419 . S
C1065 C1066 1.362 . S
C1066 H1058 0.930 . S
C1066 C1065 1.362 . S
C1066 C1069 1.414 . S
C1067 H1059 0.930 . S
C1067 C1068 1.355 . S
C1067 C1069 1.410 1_556 S
C1068 C1067 1.355 . S
C1068 C1070 1.419 . S
C1069 C1064 1.425 1_554 S
C1069 C1066 1.414 . S
C1069 C1067 1.410 1_554 S
C1070 H1060 0.930 . S
C1070 C1068 1.419 . S
C1070 C1071 1.362 . S
C1071 H1061 0.930 . S
C1071 C1064 1.414 . S
C1071 C1070 1.362 . S
H1072 C1078 0.930 . S
H1073 C1081 0.930 . S
H1074 C1082 0.930 . S
H1075 C1083 0.930 . S
H1076 C1086 0.930 . S
H1077 C1087 0.930 . S
C1078 H1072 0.930 . S
C1078 C1079 1.355 . S
C1078 C1080 1.415 . S
C1079 C1078 1.355 . S
C1079 C1081 1.419 . S
C1080 C1078 1.415 . S
C1080 C1085 1.425 . S
C1080 C1087 1.409 . S
C1081 H1073 0.930 . S
C1081 C1079 1.419 . S
C1081 C1082 1.362 . S
C1082 H1074 0.930 . S
C1082 C1081 1.362 . S
C1082 C1085 1.409 . S
C1083 H1075 0.930 . S
C1083 C1084 1.355 . S
C1083 C1085 1.415 . S
C1084 C1083 1.355 . S
C1084 C1086 1.419 . S
C1085 C1080 1.425 . S
C1085 C1082 1.409 . S
C1085 C1083 1.415 . S
C1086 H1076 0.930 . S
C1086 C1084 1.419 . S
C1086 C1087 1.362 . S
C1087 H1077 0.930 . S
C1087 C1080 1.409 . S
C1087 C1086 1.362 . S
H1088 C1094 0.930 . S
H1089 C1097 0.930 . S
H1090 C1098 0.928 1_556 S
H1091 C1099 0.930 . S
H1092 C1102 0.930 . S
H1093 C1103 0.928 1_554 S
C1094 H1088 0.930 . S
C1094 C1095 1.355 . S
C1094 C1096 1.415 . S
C1095 C1094 1.355 . S
C1095 C1097 1.419 . S
C1096 C1094 1.415 . S
C1096 C1101 1.425 1_554 S
C1096 C1103 1.408 1_554 S
C1097 H1089 0.930 . S
C1097 C1095 1.419 . S
C1097 C1098 1.366 . S
C1098 H1090 0.928 1_554 S
C1098 C1097 1.366 . S
C1098 C1101 1.408 1_554 S
C1099 H1091 0.930 . S
C1099 C1100 1.355 . S
C1099 C1101 1.415 . S
C1100 C1099 1.355 . S
C1100 C1102 1.419 . S
C1101 C1096 1.425 1_556 S
C1101 C1098 1.408 1_556 S
C1101 C1099 1.415 . S
C1102 H1092 0.930 . S
C1102 C1100 1.419 . S
C1102 C1103 1.366 . S
C1103 H1093 0.928 1_556 S
C1103 C1096 1.408 1_556 S
C1103 C1102 1.366 . S
C343 C57 1.477 . S
C348 C13 1.451 . S
C359 C15 1.462 . S
C364 C71 1.458 . S
C375 C97 1.457 . S
C380 C40 1.485 . S
C391 C99 1.481 . S
C396 C43 1.452 . S
C407 C208 1.481 . S
C412 C112 1.476 . S
C423 C210 1.451 . S
C428 C127 1.479 . S
C439 C141 1.457 . S
C444 C168 1.463 . S
C455 C182 1.465 . S
C460 C154 1.454 . S
C471 C224 1.470 . S
C476 C295 1.485 . S
C487 C251 1.471 . S
C492 C266 1.452 . S
C503 C252 1.461 . S
C508 C293 1.458 . S
C519 C320 1.475 . S
C524 C322 1.451 . S
C535 C55 1.458 . S
C540 C83 1.486 . S
C551 C1 1.486 . S
C556 C85 1.460 . S
C567 C111 1.478 . S
C572 C27 1.451 . S
C583 C28 1.452 . S
C588 C69 1.471 . S
C599 C334 1.477 . S
C604 C264 1.452 . S
C615 C278 1.481 . S
C620 C307 1.476 . S
C631 C281 1.484 . S
C636 C308 1.455 . S
C647 C239 1.453 . S
C652 C236 1.482 . S
C663 C166 1.457 . S
C668 C139 1.462 . S
C679 C222 1.452 . S
C684 C194 1.477 . S
C695 C180 1.453 . S
C700 C196 1.469 . S
C711 C153 1.459 . S
C716 C124 1.460 . S
C727 C321 1.489 . S
C732 C12 1.497 . S
C743 C225 1.486 . S
C748 C14 1.487 . S
C759 C323 1.493 . S
C764 C41 1.498 . S
C775 C294 1.486 . S
C780 C42 1.493 . S
C791 C253 1.497 . S
C796 C56 1.496 . S
C807 C70 1.487 . S
C812 C267 1.486 . S
C823 C292 1.497 . S
C828 C96 1.490 . S
C839 C250 1.492 . S
C844 C98 1.485 . S
C855 C183 1.493 . S
C860 C113 1.498 . S
C871 C209 1.493 . S
C876 C126 1.486 . S
C887 C211 1.496 . S
C892 C140 1.488 . S
C903 C155 1.485 . S
C908 C169 1.492 . S
C919 C82 1.486 . S
C924 C152 1.486 . S
C935 C84 1.497 . S
C940 C167 1.490 . S
C951 C125 1.493 . S
C956 C110 1.485 . S
C967 C68 1.497 . S
C972 C138 1.496 . S
C983 C197 1.491 . S
C988 C54 1.485 . S
C999 C0 1.497 . S
C1004 C223 1.496 . S
C1015 C181 1.489 . S
C1020 C26 1.485 . S
C1031 C29 1.498 . S
C1036 C195 1.493 . S
C1047 C238 1.486 . S
C1052 C335 1.494 . S
C1063 C306 1.485 . S
C1068 C265 1.493 . S
C1079 C309 1.497 . S
C1084 C279 1.490 . S
C1095 C237 1.495 . S
C1100 C280 1.497 . S
