# Generated by pormake.
# Topology cha, (4)-cn, num edge types: 1
# Building blocks:
#     Node 0, Type 0, BuildingBlock: CEKHIL_clean_sbu_0, # of connection points: 4
#     Node 1, Type 0, BuildingBlock: CEKHIL_clean_sbu_0, # of connection points: 4
#     Node 2, Type 0, BuildingBlock: CEKHIL_clean_sbu_0, # of connection points: 4
#     Node 3, Type 0, BuildingBlock: CEKHIL_clean_sbu_0, # of connection points: 4
#     Node 4, Type 0, BuildingBlock: CEKHIL_clean_sbu_0, # of connection points: 4
#     Node 5, Type 0, BuildingBlock: CEKHIL_clean_sbu_0, # of connection points: 4
#     Node 6, Type 0, BuildingBlock: CEKHIL_clean_sbu_0, # of connection points: 4
#     Node 7, Type 0, BuildingBlock: CEKHIL_clean_sbu_0, # of connection points: 4
#     Node 8, Type 0, BuildingBlock: CEKHIL_clean_sbu_0, # of connection points: 4
#     Node 9, Type 0, BuildingBlock: CEKHIL_clean_sbu_0, # of connection points: 4
#     Node 10, Type 0, BuildingBlock: CEKHIL_clean_sbu_0, # of connection points: 4
#     Node 11, Type 0, BuildingBlock: CEKHIL_clean_sbu_0, # of connection points: 4
#     Node 12, Type 0, BuildingBlock: CEKHIL_clean_sbu_0, # of connection points: 4
#     Node 13, Type 0, BuildingBlock: CEKHIL_clean_sbu_0, # of connection points: 4
#     Node 14, Type 0, BuildingBlock: CEKHIL_clean_sbu_0, # of connection points: 4
#     Node 15, Type 0, BuildingBlock: CEKHIL_clean_sbu_0, # of connection points: 4
#     Node 16, Type 0, BuildingBlock: CEKHIL_clean_sbu_0, # of connection points: 4
#     Node 17, Type 0, BuildingBlock: CEKHIL_clean_sbu_0, # of connection points: 4
#     Node 18, Type 0, BuildingBlock: CEKHIL_clean_sbu_0, # of connection points: 4
#     Node 19, Type 0, BuildingBlock: CEKHIL_clean_sbu_0, # of connection points: 4
#     Node 20, Type 0, BuildingBlock: CEKHIL_clean_sbu_0, # of connection points: 4
#     Node 21, Type 0, BuildingBlock: CEKHIL_clean_sbu_0, # of connection points: 4
#     Node 22, Type 0, BuildingBlock: CEKHIL_clean_sbu_0, # of connection points: 4
#     Node 23, Type 0, BuildingBlock: CEKHIL_clean_sbu_0, # of connection points: 4
#     Node 24, Type 0, BuildingBlock: CEKHIL_clean_sbu_0, # of connection points: 4
#     Node 25, Type 0, BuildingBlock: CEKHIL_clean_sbu_0, # of connection points: 4
#     Node 26, Type 0, BuildingBlock: CEKHIL_clean_sbu_0, # of connection points: 4
#     Node 27, Type 0, BuildingBlock: CEKHIL_clean_sbu_0, # of connection points: 4
#     Node 28, Type 0, BuildingBlock: CEKHIL_clean_sbu_0, # of connection points: 4
#     Node 29, Type 0, BuildingBlock: CEKHIL_clean_sbu_0, # of connection points: 4
#     Node 30, Type 0, BuildingBlock: CEKHIL_clean_sbu_0, # of connection points: 4
#     Node 31, Type 0, BuildingBlock: CEKHIL_clean_sbu_0, # of connection points: 4
#     Node 32, Type 0, BuildingBlock: CEKHIL_clean_sbu_0, # of connection points: 4
#     Node 33, Type 0, BuildingBlock: CEKHIL_clean_sbu_0, # of connection points: 4
#     Node 34, Type 0, BuildingBlock: CEKHIL_clean_sbu_0, # of connection points: 4
#     Node 35, Type 0, BuildingBlock: CEKHIL_clean_sbu_0, # of connection points: 4
#     Edge 36, Type (0, 0), BuildingBlock: MIFKUJ_clean_linker_0, # of connection points: 2
#     Edge 37, Type (0, 0), BuildingBlock: MIFKUJ_clean_linker_0, # of connection points: 2
#     Edge 38, Type (0, 0), BuildingBlock: MIFKUJ_clean_linker_0, # of connection points: 2
#     Edge 39, Type (0, 0), BuildingBlock: MIFKUJ_clean_linker_0, # of connection points: 2
#     Edge 40, Type (0, 0), BuildingBlock: MIFKUJ_clean_linker_0, # of connection points: 2
#     Edge 41, Type (0, 0), BuildingBlock: MIFKUJ_clean_linker_0, # of connection points: 2
#     Edge 42, Type (0, 0), BuildingBlock: MIFKUJ_clean_linker_0, # of connection points: 2
#     Edge 43, Type (0, 0), BuildingBlock: MIFKUJ_clean_linker_0, # of connection points: 2
#     Edge 44, Type (0, 0), BuildingBlock: MIFKUJ_clean_linker_0, # of connection points: 2
#     Edge 45, Type (0, 0), BuildingBlock: MIFKUJ_clean_linker_0, # of connection points: 2
#     Edge 46, Type (0, 0), BuildingBlock: MIFKUJ_clean_linker_0, # of connection points: 2
#     Edge 47, Type (0, 0), BuildingBlock: MIFKUJ_clean_linker_0, # of connection points: 2
#     Edge 48, Type (0, 0), BuildingBlock: MIFKUJ_clean_linker_0, # of connection points: 2
#     Edge 49, Type (0, 0), BuildingBlock: MIFKUJ_clean_linker_0, # of connection points: 2
#     Edge 50, Type (0, 0), BuildingBlock: MIFKUJ_clean_linker_0, # of connection points: 2
#     Edge 51, Type (0, 0), BuildingBlock: MIFKUJ_clean_linker_0, # of connection points: 2
#     Edge 52, Type (0, 0), BuildingBlock: MIFKUJ_clean_linker_0, # of connection points: 2
#     Edge 53, Type (0, 0), BuildingBlock: MIFKUJ_clean_linker_0, # of connection points: 2
#     Edge 54, Type (0, 0), BuildingBlock: MIFKUJ_clean_linker_0, # of connection points: 2
#     Edge 55, Type (0, 0), BuildingBlock: MIFKUJ_clean_linker_0, # of connection points: 2
#     Edge 56, Type (0, 0), BuildingBlock: MIFKUJ_clean_linker_0, # of connection points: 2
#     Edge 57, Type (0, 0), BuildingBlock: MIFKUJ_clean_linker_0, # of connection points: 2
#     Edge 58, Type (0, 0), BuildingBlock: MIFKUJ_clean_linker_0, # of connection points: 2
#     Edge 59, Type (0, 0), BuildingBlock: MIFKUJ_clean_linker_0, # of connection points: 2
#     Edge 60, Type (0, 0), BuildingBlock: MIFKUJ_clean_linker_0, # of connection points: 2
#     Edge 61, Type (0, 0), BuildingBlock: MIFKUJ_clean_linker_0, # of connection points: 2
#     Edge 62, Type (0, 0), BuildingBlock: MIFKUJ_clean_linker_0, # of connection points: 2
#     Edge 63, Type (0, 0), BuildingBlock: MIFKUJ_clean_linker_0, # of connection points: 2
#     Edge 64, Type (0, 0), BuildingBlock: MIFKUJ_clean_linker_0, # of connection points: 2
#     Edge 65, Type (0, 0), BuildingBlock: MIFKUJ_clean_linker_0, # of connection points: 2
#     Edge 66, Type (0, 0), BuildingBlock: MIFKUJ_clean_linker_0, # of connection points: 2
#     Edge 67, Type (0, 0), BuildingBlock: MIFKUJ_clean_linker_0, # of connection points: 2
#     Edge 68, Type (0, 0), BuildingBlock: MIFKUJ_clean_linker_0, # of connection points: 2
#     Edge 69, Type (0, 0), BuildingBlock: MIFKUJ_clean_linker_0, # of connection points: 2
#     Edge 70, Type (0, 0), BuildingBlock: MIFKUJ_clean_linker_0, # of connection points: 2
#     Edge 71, Type (0, 0), BuildingBlock: MIFKUJ_clean_linker_0, # of connection points: 2
#     Edge 72, Type (0, 0), BuildingBlock: MIFKUJ_clean_linker_0, # of connection points: 2
#     Edge 73, Type (0, 0), BuildingBlock: MIFKUJ_clean_linker_0, # of connection points: 2
#     Edge 74, Type (0, 0), BuildingBlock: MIFKUJ_clean_linker_0, # of connection points: 2
#     Edge 75, Type (0, 0), BuildingBlock: MIFKUJ_clean_linker_0, # of connection points: 2
#     Edge 76, Type (0, 0), BuildingBlock: MIFKUJ_clean_linker_0, # of connection points: 2
#     Edge 77, Type (0, 0), BuildingBlock: MIFKUJ_clean_linker_0, # of connection points: 2
#     Edge 78, Type (0, 0), BuildingBlock: MIFKUJ_clean_linker_0, # of connection points: 2
#     Edge 79, Type (0, 0), BuildingBlock: MIFKUJ_clean_linker_0, # of connection points: 2
#     Edge 80, Type (0, 0), BuildingBlock: MIFKUJ_clean_linker_0, # of connection points: 2
#     Edge 81, Type (0, 0), BuildingBlock: MIFKUJ_clean_linker_0, # of connection points: 2
#     Edge 82, Type (0, 0), BuildingBlock: MIFKUJ_clean_linker_0, # of connection points: 2
#     Edge 83, Type (0, 0), BuildingBlock: MIFKUJ_clean_linker_0, # of connection points: 2
#     Edge 84, Type (0, 0), BuildingBlock: MIFKUJ_clean_linker_0, # of connection points: 2
#     Edge 85, Type (0, 0), BuildingBlock: MIFKUJ_clean_linker_0, # of connection points: 2
#     Edge 86, Type (0, 0), BuildingBlock: MIFKUJ_clean_linker_0, # of connection points: 2
#     Edge 87, Type (0, 0), BuildingBlock: MIFKUJ_clean_linker_0, # of connection points: 2
#     Edge 88, Type (0, 0), BuildingBlock: MIFKUJ_clean_linker_0, # of connection points: 2
#     Edge 89, Type (0, 0), BuildingBlock: MIFKUJ_clean_linker_0, # of connection points: 2
#     Edge 90, Type (0, 0), BuildingBlock: MIFKUJ_clean_linker_0, # of connection points: 2
#     Edge 91, Type (0, 0), BuildingBlock: MIFKUJ_clean_linker_0, # of connection points: 2
#     Edge 92, Type (0, 0), BuildingBlock: MIFKUJ_clean_linker_0, # of connection points: 2
#     Edge 93, Type (0, 0), BuildingBlock: MIFKUJ_clean_linker_0, # of connection points: 2
#     Edge 94, Type (0, 0), BuildingBlock: MIFKUJ_clean_linker_0, # of connection points: 2
#     Edge 95, Type (0, 0), BuildingBlock: MIFKUJ_clean_linker_0, # of connection points: 2
#     Edge 96, Type (0, 0), BuildingBlock: MIFKUJ_clean_linker_0, # of connection points: 2
#     Edge 97, Type (0, 0), BuildingBlock: MIFKUJ_clean_linker_0, # of connection points: 2
#     Edge 98, Type (0, 0), BuildingBlock: MIFKUJ_clean_linker_0, # of connection points: 2
#     Edge 99, Type (0, 0), BuildingBlock: MIFKUJ_clean_linker_0, # of connection points: 2
#     Edge 100, Type (0, 0), BuildingBlock: MIFKUJ_clean_linker_0, # of connection points: 2
#     Edge 101, Type (0, 0), BuildingBlock: MIFKUJ_clean_linker_0, # of connection points: 2
#     Edge 102, Type (0, 0), BuildingBlock: MIFKUJ_clean_linker_0, # of connection points: 2
#     Edge 103, Type (0, 0), BuildingBlock: MIFKUJ_clean_linker_0, # of connection points: 2
#     Edge 104, Type (0, 0), BuildingBlock: MIFKUJ_clean_linker_0, # of connection points: 2
#     Edge 105, Type (0, 0), BuildingBlock: MIFKUJ_clean_linker_0, # of connection points: 2
#     Edge 106, Type (0, 0), BuildingBlock: MIFKUJ_clean_linker_0, # of connection points: 2
#     Edge 107, Type (0, 0), BuildingBlock: MIFKUJ_clean_linker_0, # of connection points: 2
# Relax obj value: 0.071
# Max RMSD: 0.095
# Mean RMSD: 0.095
data_MOF--net-cha--node1-CEKHIL_clean_sbu_0--edge1-MIFKUJ_clean_linker_0
_symmetry_space_group_name_H-M    P1
_symmetry_Int_Tables_number       1
_symmetry_cell_setting            triclinic
loop_
_symmetry_equiv_pos_as_xyz
'x, y, z'
_cell_length_a     69.959507
_cell_length_b     69.944998
_cell_length_c     110.18114
_cell_angle_alpha  89.998478
_cell_angle_beta   90.001984
_cell_angle_gamma 119.98526
loop_
_atom_site_label
_atom_site_type_symbol
_atom_site_fract_x
_atom_site_fract_y
_atom_site_fract_z
_atom_type_partial_charge
Co0 Co 0.03513 0.30601 0.09007 0.0
O1 O 0.03671 0.30764 0.10741 0.0
O2 O 0.02043 0.32155 0.09607 0.0
C3 C 0.07084 0.31576 0.0874 0.0
O4 O 0.03174 0.30816 0.07172 0.0
Co5 Co 0.04399 0.27136 0.07735 0.0
O6 O 0.0441 0.28755 0.06258 0.0
C7 C 0.00176 0.2567 0.08986 0.0
C8 C 0.0261 0.31836 0.10681 0.0
C9 C 0.037 0.30116 0.06214 0.0
O10 O 0.0064 0.27692 0.09096 0.0
O11 O 0.01549 0.25124 0.08576 0.0
O12 O 0.06547 0.33089 0.089 0.0
O13 O 0.05493 0.29573 0.08856 0.0
Co14 Co 0.74714 0.75782 0.08957 0.0
O15 O 0.75029 0.76155 0.10681 0.0
O16 O 0.73314 0.72915 0.09757 0.0
C17 C 0.73703 0.78344 0.08664 0.0
O18 O 0.74016 0.74828 0.07174 0.0
Co19 Co 0.77781 0.7976 0.07304 0.0
O20 O 0.75536 0.77957 0.06069 0.0
C21 C 0.79566 0.77265 0.0856 0.0
C22 C 0.73942 0.74025 0.1077 0.0
C23 C 0.74262 0.75877 0.06169 0.0
O24 O 0.77599 0.75783 0.08868 0.0
O25 O 0.79999 0.79059 0.0802 0.0
O26 O 0.72242 0.76354 0.08991 0.0
O27 O 0.75713 0.78748 0.08633 0.0
Co28 Co 0.29669 0.0201 0.09126 0.0
O29 O 0.29315 0.02128 0.10845 0.0
O30 O 0.32538 0.03473 0.09921 0.0
C31 C 0.2703 0.98436 0.08937 0.0
O32 O 0.30621 0.02099 0.07354 0.0
Co33 Co 0.25745 0.0097 0.07398 0.0
O34 O 0.27536 0.00397 0.06215 0.0
C35 C 0.28333 0.05414 0.08499 0.0
C36 C 0.31444 0.03116 0.10933 0.0
C37 C 0.2961 0.01228 0.06349 0.0
O38 O 0.29742 0.04913 0.08924 0.0
O39 O 0.26565 0.04024 0.07947 0.0
O40 O 0.29015 0.98945 0.09261 0.0
O41 O 0.26686 0.00074 0.08826 0.0
Co42 Co 0.30625 0.03759 0.91333 0.0
O43 O 0.30332 0.03863 0.89609 0.0
O44 O 0.32051 0.02329 0.90519 0.0
C45 C 0.31604 0.07321 0.91642 0.0
O46 O 0.31299 0.03456 0.93112 0.0
Co47 Co 0.27561 0.04648 0.93007 0.0
O48 O 0.29797 0.05057 0.94242 0.0
C49 C 0.25782 0.00402 0.91707 0.0
C50 C 0.31438 0.0284 0.89511 0.0
C51 C 0.31053 0.04233 0.94127 0.0
O52 O 0.27746 0.0087 0.91405 0.0
O53 O 0.25357 0.01765 0.92252 0.0
O54 O 0.33085 0.06816 0.91321 0.0
O55 O 0.29604 0.05699 0.91668 0.0
Co56 Co 0.02221 0.29957 0.91312 0.0
O57 O 0.02425 0.29489 0.89614 0.0
O58 O 0.03628 0.32764 0.90458 0.0
C59 C 0.98679 0.27254 0.91501 0.0
O60 O 0.02194 0.31024 0.93044 0.0
Co61 Co 0.01254 0.26218 0.93163 0.0
O62 O 0.00394 0.27978 0.94198 0.0
C63 C 0.05761 0.28942 0.92172 0.0
C64 C 0.03341 0.31606 0.89479 0.0
C65 C 0.0121 0.30045 0.94036 0.0
O66 O 0.05173 0.30168 0.91598 0.0
O67 O 0.04427 0.27245 0.92794 0.0
O68 O 0.99137 0.29186 0.91104 0.0
O69 O 0.0035 0.26982 0.91674 0.0
Co70 Co 0.7654 0.75807 0.91281 0.0
O71 O 0.76797 0.76138 0.89556 0.0
O72 O 0.73624 0.74268 0.9053 0.0
C73 C 0.79224 0.74948 0.9151 0.0
O74 O 0.75758 0.75122 0.93088 0.0
Co75 Co 0.80661 0.79131 0.92787 0.0
O76 O 0.78967 0.77051 0.94106 0.0
C77 C 0.77727 0.8059 0.91746 0.0
C78 C 0.7467 0.74961 0.89501 0.0
C79 C 0.76908 0.7564 0.94077 0.0
O80 O 0.76367 0.786 0.91408 0.0
O81 O 0.79605 0.81167 0.92226 0.0
O82 O 0.77246 0.73427 0.91207 0.0
O83 O 0.79547 0.76931 0.91528 0.0
Co84 Co 0.02396 0.75022 0.91506 0.0
O85 O 0.02121 0.7531 0.89793 0.0
O86 O 0.03742 0.73598 0.90612 0.0
C87 C 0.98883 0.74027 0.91967 0.0
O88 O 0.0288 0.74355 0.93254 0.0
Co89 Co 0.01724 0.78174 0.9324 0.0
O90 O 0.01885 0.76261 0.94513 0.0
C91 C 0.05728 0.79894 0.91743 0.0
C92 C 0.03145 0.74216 0.89636 0.0
C93 C 0.0251 0.74861 0.94321 0.0
O94 O 0.05287 0.77911 0.91509 0.0
O95 O 0.04394 0.80338 0.92304 0.0
O96 O 0.99347 0.72554 0.91574 0.0
O97 O 0.00492 0.76034 0.91949 0.0
Co98 Co 0.30847 0.30258 0.91565 0.0
O99 O 0.30299 0.2979 0.89856 0.0
O100 O 0.32242 0.33073 0.90712 0.0
C101 C 0.31762 0.27612 0.91799 0.0
O102 O 0.31803 0.31317 0.93316 0.0
Co103 Co 0.28009 0.26468 0.93374 0.0
O104 O 0.30524 0.28262 0.94467 0.0
C105 C 0.26209 0.29139 0.92325 0.0
C106 C 0.31462 0.3191 0.89724 0.0
C107 C 0.31751 0.30335 0.94319 0.0
O108 O 0.28046 0.30391 0.91778 0.0
O109 O 0.25843 0.27449 0.92954 0.0
O110 O 0.33228 0.29568 0.91427 0.0
O111 O 0.29788 0.27287 0.91924 0.0
Co112 Co 0.75521 0.03586 0.91396 0.0
O113 O 0.76046 0.0339 0.89703 0.0
O114 O 0.72747 0.02226 0.90507 0.0
C115 C 0.78237 0.07114 0.91617 0.0
O116 O 0.74403 0.03591 0.93118 0.0
Co117 Co 0.79194 0.04463 0.93276 0.0
O118 O 0.77393 0.05243 0.94331 0.0
C119 C 0.76529 0.00017 0.92198 0.0
C120 C 0.73936 0.0249 0.89544 0.0
C121 C 0.75346 0.04488 0.94133 0.0
O122 O 0.75265 0.00617 0.91678 0.0
O123 O 0.7825 0.01342 0.92806 0.0
O124 O 0.76327 0.06681 0.91195 0.0
O125 O 0.78486 0.05428 0.9179 0.0
Co126 Co 0.75204 0.0216 0.09019 0.0
O127 O 0.75525 0.02037 0.10741 0.0
O128 O 0.73826 0.03612 0.09852 0.0
C129 C 0.74148 0.9859 0.08677 0.0
O130 O 0.74504 0.02502 0.07255 0.0
Co131 Co 0.78221 0.01287 0.0731 0.0
O132 O 0.75981 0.00927 0.06087 0.0
C133 C 0.80054 0.05518 0.08619 0.0
C134 C 0.74447 0.03087 0.10853 0.0
C135 C 0.74731 0.01751 0.06227 0.0
O136 O 0.78096 0.0503 0.08945 0.0
O137 O 0.80475 0.04172 0.08052 0.0
O138 O 0.72713 0.99137 0.09028 0.0
O139 O 0.76171 0.00176 0.08651 0.0
Co140 Co 0.03211 0.75987 0.09277 0.0
O141 O 0.03231 0.76297 0.11005 0.0
O142 O 0.0174 0.73092 0.10048 0.0
C143 C 0.06792 0.78552 0.09017 0.0
O144 O 0.03003 0.75102 0.07485 0.0
Co145 Co 0.04172 0.80032 0.07669 0.0
O146 O 0.04648 0.78276 0.06418 0.0
C147 C 0.99851 0.77486 0.08878 0.0
C148 C 0.02206 0.74165 0.11073 0.0
C149 C 0.0384 0.76192 0.06494 0.0
O150 O 0.00329 0.75996 0.09181 0.0
O151 O 0.01229 0.79298 0.08359 0.0
O152 O 0.06248 0.76547 0.09319 0.0
O153 O 0.05191 0.78965 0.08992 0.0
Co154 Co 0.29827 0.30514 0.09198 0.0
O155 O 0.29327 0.29949 0.10907 0.0
O156 O 0.32624 0.31876 0.10064 0.0
C157 C 0.27215 0.31472 0.08947 0.0
O158 O 0.30937 0.31469 0.07459 0.0
Co159 Co 0.26056 0.27728 0.07367 0.0
O160 O 0.27967 0.30127 0.0623 0.0
C161 C 0.28506 0.25792 0.08545 0.0
C162 C 0.31448 0.31083 0.11045 0.0
C163 C 0.30024 0.31369 0.06426 0.0
O164 O 0.29906 0.27686 0.08991 0.0
O165 O 0.26783 0.2545 0.07957 0.0
O166 O 0.29171 0.32924 0.09326 0.0
O167 O 0.26875 0.29493 0.08822 0.0
Co168 Co 0.70504 0.64228 0.42341 0.0
O169 O 0.7069 0.63938 0.44062 0.0
O170 O 0.69095 0.65636 0.4319 0.0
C171 C 0.74047 0.65229 0.41959 0.0
O172 O 0.70122 0.64916 0.40578 0.0
Co173 Co 0.7128 0.61155 0.40615 0.0
O174 O 0.71692 0.63433 0.39407 0.0
C175 C 0.6711 0.59375 0.41982 0.0
C176 C 0.69656 0.6503 0.44184 0.0
C177 C 0.70887 0.64698 0.39553 0.0
O178 O 0.67615 0.61345 0.42298 0.0
O179 O 0.68429 0.58939 0.41397 0.0
O180 O 0.73551 0.66696 0.42322 0.0
O181 O 0.72437 0.63219 0.41948 0.0
Co182 Co 0.41581 0.09083 0.42453 0.0
O183 O 0.4226 0.09567 0.44153 0.0
O184 O 0.40137 0.06291 0.43324 0.0
C185 C 0.40804 0.11829 0.42244 0.0
O186 O 0.40483 0.07996 0.40723 0.0
Co187 Co 0.44371 0.1277 0.40579 0.0
O188 O 0.41762 0.1101 0.39538 0.0
C189 C 0.46087 0.09987 0.41581 0.0
C190 C 0.41034 0.07454 0.44299 0.0
C191 C 0.40499 0.0895 0.39716 0.0
O192 O 0.44287 0.0881 0.42176 0.0
O193 O 0.46465 0.11673 0.40944 0.0
O194 O 0.39305 0.09911 0.42644 0.0
O195 O 0.42733 0.12062 0.42077 0.0
Co196 Co 0.96371 0.35782 0.42329 0.0
O197 O 0.96038 0.35729 0.44055 0.0
O198 O 0.99248 0.37098 0.4311 0.0
C199 C 0.93671 0.32261 0.42043 0.0
O200 O 0.97283 0.35995 0.40542 0.0
Co201 Co 0.92452 0.35091 0.40697 0.0
O202 O 0.94146 0.34526 0.39448 0.0
C203 C 0.95207 0.3939 0.41899 0.0
C204 C 0.98164 0.36655 0.4413 0.0
C205 C 0.9621 0.35234 0.3954 0.0
O206 O 0.96553 0.38755 0.42258 0.0
O207 O 0.93405 0.38121 0.41338 0.0
O208 O 0.95641 0.32691 0.42348 0.0
O209 O 0.93368 0.33935 0.42025 0.0
Co210 Co 0.9715 0.36485 0.24649 0.0
O211 O 0.96603 0.36316 0.22933 0.0
O212 O 0.9862 0.35102 0.23842 0.0
C213 C 0.97997 0.40036 0.24839 0.0
O214 O 0.98086 0.36429 0.26407 0.0
Co215 Co 0.94239 0.37442 0.26408 0.0
O216 O 0.96455 0.3778 0.2763 0.0
C217 C 0.92464 0.33003 0.25315 0.0
C218 C 0.97801 0.35388 0.22842 0.0
C219 C 0.97806 0.37091 0.27451 0.0
O220 O 0.94367 0.3354 0.24865 0.0
O221 O 0.92061 0.34365 0.25878 0.0
O222 O 0.99496 0.39571 0.24497 0.0
O223 O 0.96038 0.38368 0.24965 0.0
Co224 Co 0.68977 0.63422 0.24699 0.0
O225 O 0.69217 0.62954 0.23003 0.0
O226 O 0.70416 0.6623 0.23844 0.0
C227 C 0.65421 0.60732 0.24858 0.0
O228 O 0.68934 0.64497 0.26426 0.0
Co229 Co 0.67906 0.59682 0.26566 0.0
O230 O 0.67087 0.6148 0.27597 0.0
C231 C 0.72436 0.62314 0.25573 0.0
C232 C 0.70148 0.65073 0.22866 0.0
C233 C 0.67942 0.63548 0.27422 0.0
O234 O 0.71904 0.63594 0.25009 0.0
O235 O 0.71055 0.60617 0.2618 0.0
O236 O 0.65903 0.62677 0.2447 0.0
O237 O 0.6708 0.60449 0.25052 0.0
Co238 Co 0.42409 0.08349 0.2482 0.0
O239 O 0.42907 0.08757 0.23103 0.0
O240 O 0.39608 0.07003 0.23958 0.0
C241 C 0.44933 0.07298 0.2515 0.0
O242 O 0.41302 0.07553 0.26574 0.0
Co243 Co 0.46219 0.11231 0.26608 0.0
O244 O 0.44309 0.0889 0.27774 0.0
C245 C 0.43862 0.13162 0.25329 0.0
C246 C 0.40784 0.07679 0.22969 0.0
C247 C 0.4224 0.07679 0.27603 0.0
O248 O 0.42428 0.1124 0.24931 0.0
O249 O 0.45572 0.13517 0.25936 0.0
O250 O 0.42963 0.05867 0.2478 0.0
O251 O 0.45348 0.09311 0.25212 0.0
Co252 Co 0.68505 0.08253 0.24664 0.0
O253 O 0.68577 0.08711 0.22945 0.0
O254 O 0.69969 0.06861 0.2386 0.0
C255 C 0.64931 0.07277 0.24904 0.0
O256 O 0.68644 0.07399 0.26429 0.0
Co257 Co 0.67521 0.1116 0.26403 0.0
O258 O 0.6695 0.08781 0.27572 0.0
C259 C 0.71935 0.13002 0.2528 0.0
C260 C 0.69588 0.0759 0.22853 0.0
C261 C 0.67782 0.07536 0.27438 0.0
O262 O 0.71405 0.11097 0.24837 0.0
O263 O 0.70578 0.13387 0.25863 0.0
O264 O 0.65454 0.05822 0.24554 0.0
O265 O 0.66552 0.09274 0.24992 0.0
Co266 Co 0.97195 0.63015 0.24884 0.0
O267 O 0.96619 0.62595 0.23173 0.0
O268 O 0.98575 0.65851 0.24056 0.0
C269 C 0.98119 0.60365 0.25072 0.0
O270 O 0.98171 0.6404 0.26635 0.0
Co271 Co 0.94391 0.59179 0.26674 0.0
O272 O 0.96848 0.60995 0.27798 0.0
C273 C 0.92519 0.61779 0.25614 0.0
C274 C 0.9777 0.6472 0.23061 0.0
C275 C 0.98088 0.63066 0.27645 0.0
O276 O 0.94389 0.63123 0.25124 0.0
O277 O 0.92162 0.60048 0.26199 0.0
O278 O 0.99579 0.62333 0.24714 0.0
O279 O 0.96148 0.60037 0.25215 0.0
Co280 Co 0.42633 0.36867 0.2486 0.0
O281 O 0.4288 0.36826 0.23131 0.0
O282 O 0.39709 0.35396 0.24119 0.0
C283 C 0.45244 0.40448 0.25064 0.0
O284 O 0.41823 0.36744 0.26663 0.0
Co285 Co 0.46734 0.37849 0.26424 0.0
O286 O 0.45045 0.38392 0.27684 0.0
C287 C 0.44089 0.33476 0.25281 0.0
C288 C 0.40748 0.35825 0.23085 0.0
C289 C 0.42963 0.37609 0.27636 0.0
O290 O 0.42611 0.33968 0.24972 0.0
O291 O 0.45918 0.34858 0.25782 0.0
O292 O 0.43234 0.3992 0.24787 0.0
O293 O 0.45626 0.38827 0.25103 0.0
Co294 Co 0.42325 0.3569 0.42534 0.0
O295 O 0.42576 0.35417 0.4425 0.0
O296 O 0.40877 0.37032 0.43409 0.0
C297 C 0.41324 0.32165 0.42085 0.0
O298 O 0.41697 0.36185 0.40779 0.0
Co299 Co 0.45513 0.35033 0.40839 0.0
O300 O 0.43742 0.35348 0.39535 0.0
C301 C 0.47199 0.39093 0.42284 0.0
C302 C 0.4148 0.36442 0.44394 0.0
C303 C 0.42302 0.35927 0.39714 0.0
O304 O 0.45207 0.38586 0.42545 0.0
O305 O 0.47675 0.37786 0.41718 0.0
O306 O 0.39856 0.32657 0.4245 0.0
O307 O 0.43338 0.33765 0.42114 0.0
Co308 Co 0.70039 0.09103 0.42209 0.0
O309 O 0.69978 0.09673 0.43909 0.0
O310 O 0.68732 0.06354 0.43115 0.0
C311 C 0.73552 0.11833 0.41934 0.0
O312 O 0.69903 0.07904 0.40494 0.0
Co313 Co 0.70847 0.12675 0.4028 0.0
O314 O 0.7147 0.10784 0.39205 0.0
C315 C 0.66433 0.10049 0.41415 0.0
C316 C 0.69088 0.07565 0.44079 0.0
C317 C 0.70704 0.08751 0.39447 0.0
O318 O 0.67058 0.08853 0.4199 0.0
O319 O 0.67721 0.11697 0.40749 0.0
O320 O 0.7315 0.09921 0.42339 0.0
O321 O 0.7185 0.1206 0.41782 0.0
Co322 Co 0.96857 0.64403 0.42476 0.0
O323 O 0.96209 0.63925 0.44179 0.0
O324 O 0.99576 0.65787 0.4341 0.0
C325 C 0.94277 0.65343 0.42061 0.0
O326 O 0.98119 0.65289 0.40757 0.0
Co327 Co 0.93246 0.61491 0.40589 0.0
O328 O 0.95264 0.63806 0.39444 0.0
C329 C 0.95678 0.59676 0.41899 0.0
C330 C 0.98318 0.65051 0.44366 0.0
C331 C 0.97294 0.65094 0.39687 0.0
O332 O 0.96972 0.6158 0.42371 0.0
O333 O 0.94012 0.59279 0.4124 0.0
O334 O 0.96184 0.6681 0.42492 0.0
O335 O 0.93945 0.6336 0.41997 0.0
Co336 Co 0.36799 0.96756 0.75781 0.0
O337 O 0.36561 0.96358 0.77502 0.0
O338 O 0.35341 0.98256 0.76483 0.0
C339 C 0.40364 0.97643 0.7568 0.0
O340 O 0.36874 0.97528 0.73976 0.0
Co341 Co 0.37816 0.93597 0.74278 0.0
O342 O 0.38391 0.9579 0.72988 0.0
C343 C 0.3333 0.91979 0.75238 0.0
C344 C 0.35605 0.97531 0.77525 0.0
C345 C 0.37689 0.97159 0.73009 0.0
O346 O 0.33871 0.93948 0.75575 0.0
O347 O 0.34714 0.91478 0.74792 0.0
O348 O 0.39859 0.99149 0.75936 0.0
O349 O 0.38723 0.95656 0.75607 0.0
Co350 Co 0.08204 0.42245 0.75544 0.0
O351 O 0.08786 0.42738 0.77251 0.0
O352 O 0.06897 0.39442 0.764 0.0
C353 C 0.07191 0.44818 0.7531 0.0
O354 O 0.07228 0.41144 0.73806 0.0
Co355 Co 0.10931 0.46029 0.73711 0.0
O356 O 0.08426 0.44156 0.72624 0.0
C357 C 0.12917 0.43586 0.74837 0.0
C358 C 0.07683 0.40614 0.77384 0.0
C359 C 0.07233 0.42086 0.72798 0.0
O360 O 0.11049 0.42208 0.75317 0.0
O361 O 0.13231 0.45287 0.74235 0.0
O362 O 0.0577 0.42857 0.75697 0.0
O363 O 0.0918 0.45191 0.75172 0.0
Co364 Co 0.62859 0.68699 0.7586 0.0
O365 O 0.62694 0.68678 0.77591 0.0
O366 O 0.65821 0.70142 0.76559 0.0
C367 C 0.60251 0.6513 0.75626 0.0
O368 O 0.63547 0.68883 0.74035 0.0
Co369 Co 0.58633 0.67813 0.74447 0.0
O370 O 0.60258 0.67432 0.73087 0.0
C371 C 0.61493 0.72196 0.75522 0.0
C372 C 0.64825 0.69679 0.77609 0.0
C373 C 0.62334 0.68164 0.73071 0.0
O374 O 0.62913 0.71615 0.75812 0.0
O375 O 0.59613 0.70866 0.75053 0.0
O376 O 0.62272 0.65655 0.75868 0.0
O377 O 0.59851 0.6674 0.75658 0.0
Co378 Co 0.64026 0.70032 0.58036 0.0
O379 O 0.63562 0.69778 0.56317 0.0
O380 O 0.65478 0.68548 0.57315 0.0
C381 C 0.64943 0.73605 0.58153 0.0
O382 O 0.64858 0.70096 0.59832 0.0
Co383 Co 0.60944 0.7109 0.59602 0.0
O384 O 0.6317 0.71623 0.60864 0.0
C385 C 0.59226 0.66666 0.5853 0.0
C386 C 0.64722 0.68805 0.56283 0.0
C387 C 0.64534 0.70919 0.6081 0.0
O388 O 0.61201 0.67123 0.58261 0.0
O389 O 0.58773 0.68092 0.58965 0.0
O390 O 0.66426 0.73095 0.57848 0.0
O391 O 0.62961 0.71969 0.58256 0.0
Co392 Co 0.35464 0.9666 0.58204 0.0
O393 O 0.35448 0.96313 0.56479 0.0
O394 O 0.36877 0.99538 0.57412 0.0
C395 C 0.31905 0.94038 0.58469 0.0
O396 O 0.35656 0.97577 0.59993 0.0
Co397 Co 0.34601 0.92681 0.59843 0.0
O398 O 0.34076 0.94425 0.61077 0.0
C399 C 0.38988 0.95408 0.5873 0.0
C400 C 0.36427 0.98441 0.56396 0.0
C401 C 0.34856 0.96502 0.60993 0.0
O402 O 0.38391 0.96751 0.58316 0.0
O403 O 0.3768 0.93626 0.59296 0.0
O404 O 0.32404 0.96023 0.58151 0.0
O405 O 0.33536 0.9367 0.58507 0.0
Co406 Co 0.09206 0.41703 0.57966 0.0
O407 O 0.09658 0.42199 0.56253 0.0
O408 O 0.06384 0.40324 0.57129 0.0
C409 C 0.11805 0.40738 0.58226 0.0
O410 O 0.08152 0.40818 0.59718 0.0
Co411 Co 0.13032 0.44564 0.59751 0.0
O412 O 0.11184 0.42143 0.60893 0.0
C413 C 0.10561 0.46458 0.5856 0.0
C414 C 0.07533 0.41078 0.56135 0.0
C415 C 0.09113 0.4091 0.60733 0.0
O416 O 0.09147 0.44545 0.58142 0.0
O417 O 0.12296 0.46825 0.59143 0.0
O418 O 0.0984 0.39277 0.57864 0.0
O419 O 0.12164 0.42727 0.58322 0.0
Co420 Co 0.35345 0.41797 0.58098 0.0
O421 O 0.35298 0.41886 0.56365 0.0
O422 O 0.36815 0.40292 0.57414 0.0
C423 C 0.31766 0.40801 0.58348 0.0
O424 O 0.35574 0.41361 0.59925 0.0
Co425 Co 0.34402 0.45144 0.59472 0.0
O426 O 0.34218 0.43288 0.60874 0.0
C427 C 0.38732 0.46702 0.58323 0.0
C428 C 0.36336 0.4079 0.56358 0.0
C429 C 0.34945 0.41939 0.60893 0.0
O430 O 0.38235 0.44692 0.58119 0.0
O431 O 0.37352 0.47225 0.5875 0.0
O432 O 0.32305 0.39309 0.5812 0.0
O433 O 0.33362 0.42812 0.58291 0.0
Co434 Co 0.63699 0.96393 0.57881 0.0
O435 O 0.63311 0.9613 0.56158 0.0
O436 O 0.65179 0.99305 0.57132 0.0
C437 C 0.64602 0.93739 0.58072 0.0
O438 O 0.64481 0.97218 0.59676 0.0
Co439 Co 0.60535 0.92324 0.59462 0.0
O440 O 0.62745 0.9403 0.60726 0.0
C441 C 0.58926 0.95138 0.58417 0.0
C442 C 0.64484 0.9826 0.56103 0.0
C443 C 0.64123 0.96094 0.60665 0.0
O444 O 0.60888 0.96521 0.58049 0.0
O445 O 0.58419 0.93296 0.58922 0.0
O446 O 0.66094 0.95721 0.57756 0.0
O447 O 0.62612 0.93388 0.58138 0.0
Co448 Co 0.09501 0.70232 0.58118 0.0
O449 O 0.0966 0.70153 0.56385 0.0
O450 O 0.06542 0.68715 0.57426 0.0
C451 C 0.1207 0.73827 0.58323 0.0
O452 O 0.08782 0.70103 0.59935 0.0
Co453 Co 0.13727 0.71261 0.59583 0.0
O454 O 0.12016 0.71522 0.60938 0.0
C455 C 0.11049 0.66893 0.58454 0.0
C456 C 0.07525 0.69094 0.56375 0.0
C457 C 0.0994 0.70786 0.60919 0.0
O458 O 0.09526 0.67358 0.58214 0.0
O459 O 0.12922 0.68297 0.58902 0.0
O460 O 0.10046 0.73266 0.5806 0.0
O461 O 0.12496 0.72234 0.58326 0.0
Co462 Co 0.08147 0.68631 0.75674 0.0
O463 O 0.08643 0.68744 0.77389 0.0
O464 O 0.06727 0.70069 0.76487 0.0
C465 C 0.07231 0.65065 0.75467 0.0
O466 O 0.0726 0.68704 0.73905 0.0
Co467 Co 0.11109 0.67656 0.73965 0.0
O468 O 0.08744 0.67077 0.72785 0.0
C469 C 0.12892 0.72076 0.75069 0.0
C470 C 0.07487 0.69713 0.7749 0.0
C471 C 0.07452 0.67859 0.72901 0.0
O472 O 0.10963 0.71555 0.75472 0.0
O473 O 0.13308 0.70701 0.74532 0.0
O474 O 0.05752 0.65557 0.75811 0.0
O475 O 0.09207 0.66712 0.75364 0.0
Co476 Co 0.36742 0.42484 0.75767 0.0
O477 O 0.36604 0.42912 0.77476 0.0
O478 O 0.35257 0.39647 0.76598 0.0
C479 C 0.40324 0.45083 0.75565 0.0
O480 O 0.36688 0.41471 0.74012 0.0
Co481 Co 0.37827 0.46388 0.74006 0.0
O482 O 0.38454 0.4456 0.72884 0.0
C483 C 0.33364 0.43832 0.75076 0.0
C484 C 0.35611 0.40788 0.77592 0.0
C485 C 0.37617 0.42482 0.73015 0.0
O486 O 0.33849 0.4243 0.75531 0.0
O487 O 0.34767 0.45582 0.74517 0.0
O488 O 0.39794 0.43112 0.7593 0.0
O489 O 0.38703 0.45447 0.7544 0.0
Co490 Co 0.63466 0.97395 0.7559 0.0
O491 O 0.63264 0.97162 0.77321 0.0
O492 O 0.66411 0.98932 0.7631 0.0
C493 C 0.60787 0.98273 0.75391 0.0
O494 O 0.6421 0.98032 0.73778 0.0
Co495 Co 0.59337 0.94153 0.7408 0.0
O496 O 0.60953 0.96354 0.72794 0.0
C497 C 0.62182 0.92587 0.75144 0.0
C498 C 0.65393 0.98341 0.77351 0.0
C499 C 0.6303 0.97688 0.72813 0.0
O500 O 0.63578 0.94562 0.75491 0.0
O501 O 0.60334 0.92072 0.74644 0.0
O502 O 0.62792 0.99799 0.75644 0.0
O503 O 0.60452 0.96286 0.75374 0.0
H504 H 0.08444 0.28659 0.08214 0.0
H505 H 0.12216 0.29353 0.08146 0.0
H506 H 0.14694 0.36293 0.08749 0.0
H507 H 0.10887 0.3561 0.08814 0.0
H508 H 0.17248 0.35245 0.07024 0.0
H509 H 0.14532 0.33687 0.11086 0.0
H510 H 0.11802 0.31682 0.12695 0.0
H511 H 0.11943 0.25766 0.11835 0.0
H512 H 0.14647 0.27727 0.10207 0.0
H513 H 0.27415 0.35491 0.09097 0.0
H514 H 0.24302 0.36184 0.0894 0.0
H515 H 0.19904 0.29279 0.08204 0.0
H516 H 0.22975 0.28581 0.08343 0.0
H517 H 0.18686 0.31088 0.10202 0.0
H518 H 0.21102 0.32603 0.05998 0.0
H519 H 0.23807 0.34611 0.0438 0.0
H520 H 0.24301 0.40696 0.05554 0.0
H521 H 0.21622 0.38726 0.07194 0.0
C522 C 0.09786 0.3034 0.08315 0.0
C523 C 0.09372 0.32077 0.08536 0.0
C524 C 0.11941 0.30733 0.08274 0.0
C525 C 0.13725 0.32867 0.0846 0.0
C526 C 0.13333 0.34634 0.08607 0.0
C527 C 0.11163 0.3424 0.08647 0.0
C528 C 0.15961 0.33171 0.08605 0.0
C529 C 0.17587 0.3438 0.07733 0.0
C530 C 0.16392 0.32036 0.0953 0.0
C531 C 0.14784 0.30853 0.10519 0.0
C532 C 0.1397 0.31955 0.11234 0.0
C533 C 0.12428 0.30827 0.1215 0.0
C534 C 0.11697 0.28597 0.12366 0.0
C535 C 0.12511 0.27493 0.11667 0.0
C536 C 0.1405 0.28613 0.10748 0.0
C537 C 0.25787 0.34131 0.08885 0.0
C538 C 0.25433 0.3198 0.08741 0.0
C539 C 0.24018 0.3453 0.08795 0.0
C540 C 0.2188 0.32778 0.08567 0.0
C541 C 0.21543 0.30649 0.08386 0.0
C542 C 0.23302 0.30255 0.08464 0.0
C543 C 0.19944 0.33091 0.08596 0.0
C544 C 0.18371 0.31998 0.09508 0.0
C545 C 0.19579 0.34343 0.07714 0.0
C546 C 0.21187 0.35523 0.06729 0.0
C547 C 0.21806 0.34373 0.0592 0.0
C548 C 0.2333 0.35503 0.04997 0.0
C549 C 0.24232 0.37781 0.04867 0.0
C550 C 0.23606 0.38932 0.05658 0.0
C551 C 0.22084 0.3781 0.06584 0.0
H552 H 0.2541 0.38653 0.04151 0.0
H553 H 0.10503 0.27727 0.13075 0.0
H554 H 0.70174 0.94843 0.09044 0.0
H555 H 0.69322 0.91017 0.08766 0.0
H556 H 0.75898 0.93342 0.07397 0.0
H557 H 0.7676 0.97156 0.07672 0.0
H558 H 0.72731 0.89716 0.06121 0.0
H559 H 0.74845 0.92017 0.10298 0.0
H560 H 0.74505 0.93434 0.12288 0.0
H561 H 0.67888 0.88004 0.1265 0.0
H562 H 0.6818 0.86571 0.10652 0.0
H563 H 0.76358 0.82339 0.07629 0.0
H564 H 0.75599 0.85351 0.07346 0.0
H565 H 0.69051 0.81304 0.08803 0.0
H566 H 0.69805 0.78259 0.0909 0.0
H567 H 0.71305 0.85354 0.09904 0.0
H568 H 0.69575 0.82655 0.05879 0.0
H569 H 0.70074 0.81243 0.03925 0.0
H570 H 0.76033 0.87382 0.03278 0.0
H571 H 0.75593 0.88821 0.05238 0.0
C572 C 0.71426 0.94535 0.08668 0.0
C573 C 0.7354 0.96294 0.08391 0.0
C574 C 0.70937 0.92352 0.08511 0.0
C575 C 0.72554 0.919 0.0807 0.0
C576 C 0.74627 0.93656 0.07736 0.0
C577 C 0.75121 0.95834 0.07901 0.0
C578 C 0.7217 0.89618 0.08047 0.0
C579 C 0.72416 0.88757 0.06946 0.0
C580 C 0.71699 0.88347 0.09119 0.0
C581 C 0.71523 0.89205 0.10319 0.0
C582 C 0.73311 0.91137 0.10797 0.0
C583 C 0.73128 0.91941 0.11927 0.0
C584 C 0.71173 0.90815 0.12593 0.0
C585 C 0.69399 0.88878 0.12131 0.0
C586 C 0.69572 0.88069 0.11001 0.0
C587 C 0.74744 0.82075 0.07874 0.0
C588 C 0.73142 0.80068 0.08386 0.0
C589 C 0.74308 0.83795 0.07705 0.0
C590 C 0.72262 0.83544 0.08044 0.0
C591 C 0.70636 0.81524 0.0853 0.0
C592 C 0.71067 0.79789 0.08691 0.0
C593 C 0.71924 0.8547 0.07982 0.0
C594 C 0.71552 0.86275 0.0907 0.0
C595 C 0.72288 0.8669 0.06898 0.0
C596 C 0.72555 0.85842 0.0571 0.0
C597 C 0.71001 0.837 0.05324 0.0
C598 C 0.71272 0.82895 0.04215 0.0
C599 C 0.73085 0.84221 0.03478 0.0
C600 C 0.74629 0.86357 0.03849 0.0
C601 C 0.74367 0.87169 0.04959 0.0
H602 H 0.73293 0.83595 0.0262 0.0
H603 H 0.71035 0.91439 0.13468 0.0
H604 H 0.10512 0.78179 0.09032 0.0
H605 H 0.14333 0.81144 0.08717 0.0
H606 H 0.12035 0.85756 0.08106 0.0
H607 H 0.0824 0.82813 0.08394 0.0
H608 H 0.15239 0.865 0.06558 0.0
H609 H 0.13962 0.8517 0.1091 0.0
H610 H 0.13028 0.82874 0.12754 0.0
H611 H 0.18418 0.8173 0.12068 0.0
H612 H 0.19365 0.84 0.10211 0.0
H613 H 0.22752 0.97079 0.08431 0.0
H614 H 0.19724 0.93323 0.08187 0.0
H615 H 0.24196 0.90832 0.08723 0.0
H616 H 0.27259 0.94628 0.09003 0.0
H617 H 0.20425 0.88518 0.10024 0.0
H618 H 0.22175 0.90814 0.0591 0.0
H619 H 0.23102 0.93434 0.04219 0.0
H620 H 0.16745 0.92931 0.04509 0.0
H621 H 0.15801 0.90355 0.06225 0.0
C622 C 0.10827 0.79822 0.08818 0.0
C623 C 0.09082 0.80271 0.08747 0.0
C624 C 0.13007 0.81513 0.08641 0.0
C625 C 0.1347 0.83676 0.084 0.0
C626 C 0.11718 0.841 0.08288 0.0
C627 C 0.09548 0.82417 0.08459 0.0
C628 C 0.15767 0.85547 0.08329 0.0
C629 C 0.16378 0.86939 0.07312 0.0
C630 C 0.17281 0.86083 0.09298 0.0
C631 C 0.16715 0.84728 0.10415 0.0
C632 C 0.14936 0.84415 0.11148 0.0
C633 C 0.14407 0.83121 0.12196 0.0
C634 C 0.15658 0.8215 0.12526 0.0
C635 C 0.17446 0.82478 0.1181 0.0
C636 C 0.17981 0.83768 0.1076 0.0
C637 C 0.23103 0.95738 0.08489 0.0
C638 C 0.25245 0.96147 0.08731 0.0
C639 C 0.21368 0.93589 0.08343 0.0
C640 C 0.2174 0.91798 0.08413 0.0
C641 C 0.23879 0.92194 0.08656 0.0
C642 C 0.25624 0.94358 0.08812 0.0
C643 C 0.19852 0.89523 0.08277 0.0
C644 C 0.19321 0.8805 0.0925 0.0
C645 C 0.18399 0.88924 0.07273 0.0
C646 C 0.18919 0.9039 0.062 0.0
C647 C 0.20975 0.91263 0.05615 0.0
C648 C 0.21505 0.92746 0.04652 0.0
C649 C 0.19982 0.93348 0.04255 0.0
C650 C 0.17922 0.92461 0.04816 0.0
C651 C 0.17388 0.90988 0.05784 0.0
H652 H 0.20396 0.94506 0.03515 0.0
H653 H 0.15246 0.8115 0.13338 0.0
H654 H 0.35564 0.11173 0.91388 0.0
H655 H 0.36197 0.14952 0.91562 0.0
H656 H 0.29404 0.1235 0.92619 0.0
H657 H 0.28762 0.08606 0.92446 0.0
H658 H 0.3063 0.15153 0.90653 0.0
H659 H 0.3336 0.14878 0.94644 0.0
H660 H 0.35805 0.14431 0.96085 0.0
H661 H 0.41466 0.19887 0.94437 0.0
H662 H 0.39054 0.20345 0.92973 0.0
H663 H 0.28986 0.23518 0.92681 0.0
H664 H 0.29607 0.20392 0.92784 0.0
H665 H 0.36258 0.24488 0.91482 0.0
H666 H 0.35651 0.27657 0.91379 0.0
H667 H 0.35686 0.2125 0.93378 0.0
H668 H 0.32905 0.21664 0.8947 0.0
H669 H 0.30426 0.22115 0.88056 0.0
H670 H 0.24853 0.1635 0.89546 0.0
H671 H 0.27297 0.15886 0.90983 0.0
C672 C 0.34221 0.11415 0.91676 0.0
C673 C 0.32109 0.09598 0.91891 0.0
C674 C 0.34585 0.1357 0.91777 0.0
C675 C 0.32841 0.13922 0.92096 0.0
C676 C 0.30766 0.12109 0.92364 0.0
C677 C 0.30403 0.0997 0.92265 0.0
C678 C 0.3309 0.16149 0.92056 0.0
C679 C 0.3173 0.16482 0.91253 0.0
C680 C 0.34581 0.17901 0.92809 0.0
C681 C 0.36029 0.17627 0.93689 0.0
C682 C 0.35128 0.15968 0.94581 0.0
C683 C 0.36507 0.15715 0.95404 0.0
C684 C 0.3879 0.17124 0.9535 0.0
C685 C 0.39698 0.18793 0.94476 0.0
C686 C 0.38325 0.1905 0.9365 0.0
C687 C 0.30594 0.2377 0.92433 0.0
C688 C 0.32261 0.25824 0.92006 0.0
C689 C 0.30946 0.21982 0.92495 0.0
C690 C 0.32968 0.22209 0.92127 0.0
C691 C 0.34687 0.24287 0.91769 0.0
C692 C 0.34334 0.26088 0.91706 0.0
C693 C 0.33169 0.20213 0.92005 0.0
C694 C 0.34614 0.19928 0.92767 0.0
C695 C 0.31758 0.18493 0.91212 0.0
C696 C 0.30284 0.18751 0.9034 0.0
C697 C 0.31149 0.20502 0.89502 0.0
C698 C 0.29751 0.20759 0.88696 0.0
C699 C 0.27483 0.19264 0.88713 0.0
C700 C 0.2661 0.17507 0.89534 0.0
C701 C 0.28002 0.17245 0.90344 0.0
H702 H 0.26402 0.19465 0.88088 0.0
H703 H 0.39855 0.16927 0.95988 0.0
H704 H 0.94806 0.27021 0.90808 0.0
H705 H 0.91077 0.23815 0.90984 0.0
H706 H 0.93722 0.20254 0.92886 0.0
H707 H 0.9743 0.2341 0.92687 0.0
H708 H 0.91255 0.1794 0.91035 0.0
H709 H 0.9057 0.22131 0.94316 0.0
H710 H 0.90661 0.25381 0.95246 0.0
H711 H 0.85635 0.24786 0.92783 0.0
H712 H 0.85536 0.21548 0.91826 0.0
H713 H 0.82002 0.08344 0.92885 0.0
H714 H 0.85227 0.12026 0.93031 0.0
H715 H 0.81857 0.14685 0.90959 0.0
H716 H 0.78581 0.1099 0.90836 0.0
H717 H 0.8453 0.17566 0.92769 0.0
H718 H 0.85189 0.13377 0.8951 0.0
H719 H 0.85084 0.10124 0.88573 0.0
H720 H 0.90206 0.10776 0.90978 0.0
H721 H 0.9032 0.14016 0.91942 0.0
C722 C 0.94581 0.25562 0.91278 0.0
C723 C 0.96406 0.25454 0.91723 0.0
C724 C 0.92452 0.23738 0.91382 0.0
C725 C 0.92123 0.21796 0.91948 0.0
C726 C 0.93939 0.21731 0.9244 0.0
C727 C 0.96059 0.23537 0.92326 0.0
C728 C 0.89934 0.19759 0.91942 0.0
C729 C 0.89793 0.17857 0.91429 0.0
C730 C 0.88009 0.1967 0.92414 0.0
C731 C 0.88063 0.21611 0.92991 0.0
C732 C 0.89498 0.22704 0.93966 0.0
C733 C 0.89548 0.24542 0.94499 0.0
C734 C 0.88159 0.25293 0.94072 0.0
C735 C 0.86713 0.24204 0.93112 0.0
C736 C 0.86657 0.22366 0.92575 0.0
C737 C 0.81931 0.09715 0.92476 0.0
C738 C 0.80055 0.09379 0.91833 0.0
C739 C 0.83775 0.11818 0.9256 0.0
C740 C 0.83794 0.13616 0.91984 0.0
C741 C 0.81875 0.13314 0.91405 0.0
C742 C 0.80012 0.11205 0.91332 0.0
C743 C 0.85883 0.15748 0.91898 0.0
C744 C 0.85998 0.17662 0.92377 0.0
C745 C 0.87796 0.15861 0.91392 0.0
C746 C 0.87751 0.13929 0.90804 0.0
C747 C 0.86284 0.12819 0.89844 0.0
C748 C 0.86223 0.10978 0.89308 0.0
C749 C 0.87634 0.10241 0.89718 0.0
C750 C 0.89113 0.11348 0.90662 0.0
C751 C 0.89178 0.13188 0.91203 0.0
H752 H 0.87585 0.08815 0.89302 0.0
H753 H 0.88201 0.26716 0.94486 0.0
H754 H 0.79358 0.71191 0.9101 0.0
H755 H 0.82463 0.7056 0.91339 0.0
H756 H 0.86125 0.7695 0.93048 0.0
H757 H 0.83074 0.77618 0.92679 0.0
H758 H 0.88514 0.76551 0.91398 0.0
H759 H 0.83938 0.71897 0.94643 0.0
H760 H 0.80548 0.68871 0.95547 0.0
H761 H 0.81063 0.64188 0.93251 0.0
H762 H 0.84442 0.67192 0.92321 0.0
H763 H 0.97753 0.76452 0.93399 0.0
H764 H 0.94102 0.76054 0.93613 0.0
H765 H 0.91298 0.70115 0.91456 0.0
H766 H 0.94963 0.70476 0.91265 0.0
H767 H 0.88392 0.70052 0.93292 0.0
H768 H 0.92901 0.74736 0.90029 0.0
H769 H 0.96315 0.77764 0.89145 0.0
H770 H 0.9587 0.82409 0.91506 0.0
H771 H 0.92471 0.79402 0.92418 0.0
C772 C 0.80819 0.72447 0.91468 0.0
C773 C 0.80987 0.74461 0.9181 0.0
C774 C 0.82585 0.7208 0.91662 0.0
C775 C 0.84525 0.73704 0.92224 0.0
C776 C 0.8465 0.75677 0.92608 0.0
C777 C 0.82905 0.76058 0.92397 0.0
C778 C 0.86504 0.73455 0.92318 0.0
C779 C 0.88485 0.75143 0.91831 0.0
C780 C 0.86457 0.71581 0.92842 0.0
C781 C 0.84431 0.69773 0.93404 0.0
C782 C 0.83319 0.70225 0.94324 0.0
C783 C 0.81401 0.68513 0.94843 0.0
C784 C 0.80588 0.66339 0.94455 0.0
C785 C 0.81694 0.65873 0.9355 0.0
C786 C 0.83612 0.67579 0.93028 0.0
C787 C 0.96352 0.75031 0.92995 0.0
C788 C 0.96639 0.73516 0.92297 0.0
C789 C 0.94267 0.74803 0.93121 0.0
C790 C 0.92445 0.73083 0.92527 0.0
C791 C 0.9269 0.71458 0.91916 0.0
C792 C 0.94781 0.71669 0.91805 0.0
C793 C 0.90389 0.73178 0.92406 0.0
C794 C 0.88403 0.71458 0.92869 0.0
C795 C 0.9042 0.75025 0.91861 0.0
C796 C 0.92442 0.76841 0.91298 0.0
C797 C 0.93539 0.76401 0.90364 0.0
C798 C 0.9547 0.78114 0.89858 0.0
C799 C 0.96311 0.80277 0.90271 0.0
C800 C 0.95218 0.80733 0.91188 0.0
C801 C 0.93288 0.79025 0.917 0.0
H802 H 0.97808 0.816 0.89878 0.0
H803 H 0.79102 0.65017 0.94857 0.0
H804 H 0.75272 0.62764 0.40623 0.0
H805 H 0.78983 0.63336 0.4037 0.0
H806 H 0.81654 0.69426 0.42385 0.0
H807 H 0.77925 0.68895 0.42608 0.0
H808 H 0.84491 0.69633 0.40548 0.0
H809 H 0.8047 0.64828 0.43864 0.0
H810 H 0.77273 0.61672 0.44834 0.0
H811 H 0.77918 0.57205 0.42422 0.0
H812 H 0.81101 0.60339 0.41426 0.0
H813 H 0.94011 0.69014 0.42643 0.0
H814 H 0.90803 0.69509 0.42364 0.0
H815 H 0.87415 0.63292 0.40461 0.0
H816 H 0.90576 0.62772 0.40757 0.0
H817 H 0.85045 0.63399 0.42312 0.0
H818 H 0.89138 0.6823 0.39009 0.0
H819 H 0.92343 0.71401 0.38056 0.0
H820 H 0.91645 0.75834 0.4047 0.0
H821 H 0.88452 0.72685 0.41449 0.0
C822 C 0.76652 0.64247 0.40993 0.0
C823 C 0.76312 0.65768 0.41652 0.0
C824 C 0.78772 0.64572 0.40847 0.0
C825 C 0.80586 0.66397 0.41383 0.0
C826 C 0.80273 0.68002 0.41969 0.0
C827 C 0.78145 0.67693 0.42099 0.0
C828 C 0.82741 0.66478 0.41443 0.0
C829 C 0.84625 0.68285 0.40945 0.0
C830 C 0.82906 0.64711 0.41955 0.0
C831 C 0.81013 0.6282 0.42565 0.0
C832 C 0.79922 0.63174 0.43536 0.0
C833 C 0.78114 0.61389 0.44091 0.0
C834 C 0.7739 0.5924 0.43688 0.0
C835 C 0.78479 0.58871 0.42732 0.0
C836 C 0.80287 0.6065 0.42173 0.0
C837 C 0.92597 0.67778 0.42144 0.0
C838 C 0.92528 0.65842 0.41735 0.0
C839 C 0.9077 0.68065 0.41982 0.0
C840 C 0.88868 0.66432 0.41395 0.0
C841 C 0.8886 0.64565 0.40923 0.0
C842 C 0.90668 0.6427 0.41094 0.0
C843 C 0.86796 0.66523 0.41384 0.0
C844 C 0.84922 0.6475 0.41909 0.0
C845 C 0.86656 0.68324 0.40902 0.0
C846 C 0.88569 0.70219 0.40311 0.0
C847 C 0.89679 0.69879 0.39344 0.0
C848 C 0.91491 0.71673 0.38797 0.0
C849 C 0.92201 0.73817 0.39205 0.0
C850 C 0.91095 0.74172 0.40157 0.0
C851 C 0.89283 0.72383 0.40707 0.0
H852 H 0.93605 0.75204 0.3878 0.0
H853 H 0.75989 0.5786 0.44119 0.0
H854 H 0.44123 0.30796 0.41291 0.0
H855 H 0.43317 0.27013 0.40994 0.0
H856 H 0.36472 0.24605 0.41862 0.0
H857 H 0.3728 0.28408 0.4218 0.0
H858 H 0.38119 0.22529 0.43161 0.0
H859 H 0.37978 0.24078 0.38961 0.0
H860 H 0.39298 0.26215 0.37066 0.0
H861 H 0.45205 0.25792 0.37216 0.0
H862 H 0.43932 0.23665 0.3912 0.0
H863 H 0.36883 0.11807 0.42443 0.0
H864 H 0.36261 0.14922 0.42101 0.0
H865 H 0.43117 0.19038 0.41132 0.0
H866 H 0.43732 0.15942 0.41444 0.0
H867 H 0.40605 0.19845 0.39671 0.0
H868 H 0.41153 0.1905 0.44019 0.0
H869 H 0.40029 0.17049 0.45968 0.0
H870 H 0.33546 0.16211 0.45574 0.0
H871 H 0.34627 0.18185 0.43614 0.0
C872 C 0.42439 0.29466 0.41401 0.0
C873 C 0.40766 0.29896 0.41765 0.0
C874 C 0.41976 0.27302 0.41222 0.0
C875 C 0.39829 0.25525 0.41394 0.0
C876 C 0.38139 0.25953 0.41721 0.0
C877 C 0.38602 0.28124 0.419 0.0
C878 C 0.39418 0.23232 0.41341 0.0
C879 C 0.38607 0.21917 0.42385 0.0
C880 C 0.40094 0.22451 0.40337 0.0
C881 C 0.40862 0.23719 0.39187 0.0
C882 C 0.39565 0.24451 0.38595 0.0
C883 C 0.40304 0.2566 0.37518 0.0
C884 C 0.42335 0.26146 0.37022 0.0
C885 C 0.43631 0.25415 0.37601 0.0
C886 C 0.42899 0.24202 0.38677 0.0
C887 C 0.38249 0.13373 0.42147 0.0
C888 C 0.40359 0.13638 0.41979 0.0
C889 C 0.37893 0.1515 0.41954 0.0
C890 C 0.39649 0.17219 0.41603 0.0
C891 C 0.41736 0.17457 0.414 0.0
C892 C 0.42088 0.15687 0.41585 0.0
C893 C 0.39377 0.19184 0.41505 0.0
C894 C 0.40061 0.20435 0.40433 0.0
C895 C 0.38608 0.19919 0.42487 0.0
C896 C 0.3796 0.18738 0.43664 0.0
C897 C 0.39483 0.18423 0.44344 0.0
C898 C 0.38855 0.17297 0.45451 0.0
C899 C 0.36715 0.16496 0.45892 0.0
C900 C 0.35201 0.16827 0.45229 0.0
C901 C 0.3582 0.17949 0.44121 0.0
H902 H 0.36232 0.15626 0.46749 0.0
H903 H 0.42904 0.27086 0.36189 0.0
H904 H 0.89451 0.31026 0.41428 0.0
H905 H 0.8632 0.27284 0.41278 0.0
H906 H 0.90604 0.2463 0.41985 0.0
H907 H 0.9377 0.28394 0.42137 0.0
H908 H 0.8718 0.22246 0.40153 0.0
H909 H 0.88006 0.24802 0.44256 0.0
H910 H 0.88574 0.27469 0.45874 0.0
H911 H 0.82585 0.27328 0.44844 0.0
H912 H 0.82 0.24685 0.43206 0.0
H913 H 0.77494 0.11879 0.42113 0.0
H914 H 0.81217 0.15132 0.41987 0.0
H915 H 0.78376 0.19239 0.41235 0.0
H916 H 0.74687 0.16027 0.41341 0.0
H917 H 0.8138 0.20623 0.43231 0.0
H918 H 0.80677 0.18264 0.39061 0.0
H919 H 0.80073 0.15601 0.37438 0.0
H920 H 0.85801 0.15343 0.38592 0.0
H921 H 0.8641 0.17969 0.40246 0.0
C922 C 0.89738 0.2965 0.41536 0.0
C923 C 0.9185 0.30001 0.4181 0.0
C924 C 0.87947 0.27514 0.41448 0.0
C925 C 0.88232 0.25689 0.41635 0.0
C926 C 0.90357 0.26023 0.4184 0.0
C927 C 0.92157 0.2817 0.41931 0.0
C928 C 0.86269 0.2346 0.41718 0.0
C929 C 0.85927 0.21868 0.40839 0.0
C930 C 0.84636 0.22984 0.42609 0.0
C931 C 0.84969 0.24558 0.43602 0.0
C932 C 0.86819 0.25352 0.44368 0.0
C933 C 0.87143 0.26858 0.4529 0.0
C934 C 0.85619 0.27571 0.4546 0.0
C935 C 0.83765 0.26775 0.44711 0.0
C936 C 0.83435 0.25272 0.43786 0.0
C937 C 0.77671 0.13473 0.41905 0.0
C938 C 0.75802 0.13703 0.41745 0.0
C939 C 0.79792 0.15323 0.41832 0.0
C940 C 0.8006 0.17419 0.41608 0.0
C941 C 0.78198 0.17634 0.41414 0.0
C942 C 0.76091 0.15794 0.41472 0.0
C943 C 0.82258 0.19427 0.41647 0.0
C944 C 0.82646 0.20981 0.42556 0.0
C945 C 0.83924 0.19855 0.40786 0.0
C946 C 0.8357 0.18288 0.39789 0.0
C947 C 0.81793 0.1762 0.38979 0.0
C948 C 0.81453 0.16121 0.38051 0.0
C949 C 0.82894 0.15298 0.37912 0.0
C950 C 0.84683 0.15977 0.38702 0.0
C951 C 0.85025 0.1747 0.39636 0.0
H952 H 0.82629 0.14139 0.37192 0.0
H953 H 0.85872 0.28737 0.46175 0.0
H954 H 0.01962 0.43903 0.2467 0.0
H955 H 0.02566 0.47677 0.24783 0.0
H956 H 0.95626 0.45055 0.25465 0.0
H957 H 0.95014 0.41312 0.25363 0.0
H958 H 0.97256 0.48094 0.23576 0.0
H959 H 0.99062 0.47259 0.27683 0.0
H960 H 0.01107 0.46508 0.29249 0.0
H961 H 0.07175 0.52085 0.28045 0.0
H962 H 0.05164 0.52837 0.26446 0.0
H963 H 0.95274 0.56168 0.25785 0.0
H964 H 0.95902 0.53043 0.2581 0.0
H965 H 0.02674 0.57303 0.24746 0.0
H966 H 0.02056 0.6047 0.24712 0.0
H967 H 0.01769 0.53791 0.26637 0.0
H968 H 0.99765 0.54755 0.22604 0.0
H969 H 0.97558 0.55415 0.21094 0.0
H970 H 0.91729 0.49505 0.22231 0.0
H971 H 0.93896 0.48829 0.23763 0.0
C972 C 0.00573 0.44138 0.24856 0.0
C973 C 0.98439 0.42315 0.25002 0.0
C974 C 0.00921 0.4629 0.24921 0.0
C975 C 0.99137 0.46637 0.25126 0.0
C976 C 0.9702 0.44818 0.25299 0.0
C977 C 0.96676 0.4268 0.25244 0.0
C978 C 0.99423 0.4888 0.25114 0.0
C979 C 0.98243 0.49339 0.24245 0.0
C980 C 0.00757 0.50518 0.25969 0.0
C981 C 0.01967 0.50085 0.26934 0.0
C982 C 0.00836 0.48312 0.27743 0.0
C983 C 0.01989 0.47888 0.28639 0.0
C984 C 0.04273 0.49245 0.28747 0.0
C985 C 0.05407 0.51032 0.27959 0.0
C986 C 0.04261 0.51456 0.27056 0.0
C987 C 0.96908 0.56455 0.25572 0.0
C988 C 0.9861 0.5856 0.25232 0.0
C989 C 0.97263 0.54666 0.25589 0.0
C990 C 0.99326 0.54945 0.25269 0.0
C991 C 0.01071 0.57063 0.24996 0.0
C992 C 0.00713 0.58863 0.24972 0.0
C993 C 0.99558 0.52972 0.25118 0.0
C994 C 0.00827 0.52563 0.25952 0.0
C995 C 0.98298 0.51365 0.24234 0.0
C996 C 0.96992 0.51751 0.23304 0.0
C997 C 0.9801 0.53606 0.22539 0.0
C998 C 0.96766 0.53981 0.21678 0.0
C999 C 0.94504 0.52505 0.21568 0.0
C1000 C 0.93481 0.50648 0.22317 0.0
C1001 C 0.94717 0.50266 0.23181 0.0
H1002 H 0.93543 0.52799 0.20901 0.0
H1003 H 0.05162 0.48915 0.29442 0.0
H1004 H 0.61557 0.60793 0.24529 0.0
H1005 H 0.57783 0.57623 0.24654 0.0
H1006 H 0.60394 0.53427 0.25685 0.0
H1007 H 0.64133 0.56554 0.2557 0.0
H1008 H 0.57524 0.51901 0.23685 0.0
H1009 H 0.57986 0.54813 0.27737 0.0
H1010 H 0.58493 0.57684 0.29209 0.0
H1011 H 0.52957 0.57897 0.2768 0.0
H1012 H 0.52439 0.55049 0.26184 0.0
H1013 H 0.49442 0.41831 0.25785 0.0
H1014 H 0.52533 0.45601 0.2583 0.0
H1015 H 0.48212 0.48052 0.24779 0.0
H1016 H 0.45078 0.44252 0.24739 0.0
H1017 H 0.51586 0.50754 0.26566 0.0
H1018 H 0.50915 0.47602 0.22632 0.0
H1019 H 0.50394 0.44708 0.21173 0.0
H1020 H 0.56335 0.45002 0.22448 0.0
H1021 H 0.56872 0.47873 0.2393 0.0
C1022 C 0.61318 0.59197 0.24796 0.0
C1023 C 0.63137 0.58915 0.25031 0.0
C1024 C 0.59167 0.57395 0.24869 0.0
C1025 C 0.5882 0.55296 0.25174 0.0
C1026 C 0.60632 0.55034 0.25443 0.0
C1027 C 0.62768 0.56825 0.25378 0.0
C1028 C 0.56594 0.53322 0.25143 0.0
C1029 C 0.56227 0.51649 0.24317 0.0
C1030 C 0.54883 0.53033 0.25939 0.0
C1031 C 0.55193 0.54741 0.26838 0.0
C1032 C 0.56892 0.55489 0.27706 0.0
C1033 C 0.57178 0.57108 0.28546 0.0
C1034 C 0.55763 0.57979 0.28535 0.0
C1035 C 0.54055 0.57226 0.27685 0.0
C1036 C 0.53764 0.55609 0.26841 0.0
C1037 C 0.49136 0.43169 0.2558 0.0
C1038 C 0.47025 0.42747 0.25242 0.0
C1039 C 0.50905 0.45322 0.25607 0.0
C1040 C 0.50601 0.47094 0.2529 0.0
C1041 C 0.48474 0.46699 0.25023 0.0
C1042 C 0.46692 0.44533 0.24997 0.0
C1043 C 0.52557 0.49312 0.25138 0.0
C1044 C 0.5287 0.51027 0.25921 0.0
C1045 C 0.54226 0.49655 0.24297 0.0
C1046 C 0.53925 0.47944 0.23398 0.0
C1047 C 0.52102 0.47039 0.22608 0.0
C1048 C 0.51805 0.45403 0.21776 0.0
C1049 C 0.53329 0.44669 0.21719 0.0
C1050 C 0.55156 0.45572 0.22493 0.0
C1051 C 0.55459 0.47206 0.23328 0.0
H1052 H 0.53096 0.43402 0.21075 0.0
H1053 H 0.55986 0.59231 0.29187 0.0
H1054 H 0.49054 0.10003 0.26029 0.0
H1055 H 0.52031 0.09186 0.26278 0.0
H1056 H 0.47672 0.02453 0.25168 0.0
H1057 H 0.44674 0.03274 0.24898 0.0
H1058 H 0.52738 0.06371 0.27612 0.0
H1059 H 0.50766 0.00895 0.23412 0.0
H1060 H 0.48716 0.00103 0.21482 0.0
H1061 H 0.49783 0.06706 0.21413 0.0
H1062 H 0.51862 0.07541 0.23334 0.0
H1063 H 0.61146 0.0328 0.2464 0.0
H1064 H 0.57343 0.02456 0.24996 0.0
H1065 H 0.59783 0.0919 0.26128 0.0
H1066 H 0.63557 0.10013 0.25787 0.0
H1067 H 0.5521 0.04291 0.2387 0.0
H1068 H 0.56557 0.09509 0.28243 0.0
H1069 H 0.58786 0.10478 0.30112 0.0
H1070 H 0.59196 0.04575 0.29801 0.0
H1071 H 0.56937 0.03548 0.27941 0.0
C1072 C 0.48717 0.08341 0.2585 0.0
C1073 C 0.46638 0.06709 0.2543 0.0
C1074 C 0.50419 0.07872 0.26 0.0
C1075 C 0.50082 0.05766 0.2573 0.0
C1076 C 0.47974 0.04097 0.25368 0.0
C1077 C 0.46264 0.04567 0.25216 0.0
C1078 C 0.51996 0.05402 0.25739 0.0
C1079 C 0.53279 0.0591 0.26797 0.0
C1080 C 0.52666 0.04739 0.24684 0.0
C1081 C 0.51439 0.04267 0.23524 0.0
C1082 C 0.50564 0.02176 0.22983 0.0
C1083 C 0.49398 0.01721 0.21891 0.0
C1084 C 0.49111 0.0335 0.21328 0.0
C1085 C 0.49998 0.05442 0.21853 0.0
C1086 C 0.51168 0.05907 0.22944 0.0
C1087 C 0.60866 0.04573 0.24979 0.0
C1088 C 0.62646 0.06711 0.25185 0.0
C1089 C 0.58697 0.04101 0.25181 0.0
C1090 C 0.58282 0.05753 0.25603 0.0
C1091 C 0.60064 0.07877 0.25825 0.0
C1092 C 0.62222 0.08349 0.25622 0.0
C1093 C 0.55996 0.05336 0.25732 0.0
C1094 C 0.54642 0.04685 0.24699 0.0
C1095 C 0.5527 0.0588 0.26809 0.0
C1096 C 0.56582 0.06456 0.27947 0.0
C1097 C 0.57105 0.08407 0.28578 0.0
C1098 C 0.58378 0.08969 0.29635 0.0
C1099 C 0.59135 0.07591 0.30074 0.0
C1100 C 0.58613 0.05644 0.29459 0.0
C1101 C 0.57337 0.05071 0.28402 0.0
H1102 H 0.60124 0.08032 0.30891 0.0
H1103 H 0.48206 0.02994 0.20483 0.0
H1104 H 0.44025 0.01657 0.75236 0.0
H1105 H 0.47854 0.02446 0.75031 0.0
H1106 H 0.45673 0.95551 0.75579 0.0
H1107 H 0.4186 0.94744 0.75753 0.0
H1108 H 0.49329 0.98784 0.77134 0.0
H1109 H 0.46812 0.96988 0.72971 0.0
H1110 H 0.45229 0.97461 0.71073 0.0
H1111 H 0.50551 0.0415 0.70789 0.0
H1112 H 0.52148 0.03725 0.727 0.0
H1113 H 0.56452 0.95276 0.75098 0.0
H1114 H 0.53372 0.95972 0.74994 0.0
H1115 H 0.57897 0.02984 0.75123 0.0
H1116 H 0.61019 0.02303 0.7525 0.0
H1117 H 0.53515 0.00592 0.73263 0.0
H1118 H 0.56201 0.02185 0.77417 0.0
H1119 H 0.57695 0.01461 0.79278 0.0
H1120 H 0.51963 0.95011 0.79551 0.0
H1121 H 0.50453 0.95685 0.77678 0.0
C1122 C 0.44368 0.00313 0.75305 0.0
C1123 C 0.42655 0.98141 0.75513 0.0
C1124 C 0.46546 0.00765 0.75186 0.0
C1125 C 0.47031 0.99054 0.75295 0.0
C1126 C 0.45322 0.96889 0.75496 0.0
C1127 C 0.43148 0.96431 0.75591 0.0
C1128 C 0.49323 0.99499 0.75233 0.0
C1129 C 0.50255 0.99203 0.76291 0.0
C1130 C 0.50531 0.00077 0.74136 0.0
C1131 C 0.49581 0.00335 0.72987 0.0
C1132 C 0.47631 0.98568 0.72512 0.0
C1133 C 0.46734 0.98825 0.71432 0.0
C1134 C 0.47784 0.00836 0.70813 0.0
C1135 C 0.49737 0.02594 0.71271 0.0
C1136 C 0.50639 0.02346 0.72353 0.0
C1137 C 0.56802 0.9697 0.75088 0.0
C1138 C 0.58974 0.98736 0.75194 0.0
C1139 C 0.55041 0.97362 0.75024 0.0
C1140 C 0.55418 0.99525 0.75052 0.0
C1141 C 0.57586 0.01305 0.75096 0.0
C1142 C 0.59359 0.00912 0.75174 0.0
C1143 C 0.53506 0.9986 0.75163 0.0
C1144 C 0.52628 0.00268 0.74115 0.0
C1145 C 0.52338 0.99385 0.7627 0.0
C1146 C 0.53225 0.98979 0.77402 0.0
C1147 C 0.5527 0.00605 0.77868 0.0
C1148 C 0.56117 0.00205 0.78926 0.0
C1149 C 0.54927 0.98189 0.79531 0.0
C1150 C 0.52884 0.96571 0.7908 0.0
C1151 C 0.52031 0.96962 0.78021 0.0
H1152 H 0.55586 0.97883 0.8035 0.0
H1153 H 0.47089 0.01028 0.69976 0.0
H1154 H 0.09785 0.48805 0.74262 0.0
H1155 H 0.09142 0.51917 0.74173 0.0
H1156 H 0.02742 0.47956 0.75815 0.0
H1157 H 0.03368 0.44797 0.75898 0.0
H1158 H 0.02975 0.51036 0.73921 0.0
H1159 H 0.06494 0.50951 0.77642 0.0
H1160 H 0.09236 0.50613 0.7889 0.0
H1161 H 0.14486 0.56229 0.77089 0.0
H1162 H 0.11776 0.56579 0.75815 0.0
H1163 H 0.03355 0.61205 0.75888 0.0
H1164 H 0.0275 0.57436 0.75738 0.0
H1165 H 0.094 0.60038 0.74417 0.0
H1166 H 0.10019 0.63776 0.74573 0.0
H1167 H 0.08522 0.57348 0.76359 0.0
H1168 H 0.05044 0.57308 0.72558 0.0
H1169 H 0.02335 0.57638 0.71275 0.0
H1170 H 0.97024 0.52309 0.73218 0.0
H1171 H 0.99703 0.5197 0.74526 0.0
C1172 C 0.08223 0.48578 0.74586 0.0
C1173 C 0.06639 0.46569 0.75104 0.0
C1174 C 0.07858 0.50357 0.74532 0.0
C1175 C 0.05909 0.5017 0.75003 0.0
C1176 C 0.04257 0.48127 0.75449 0.0
C1177 C 0.0462 0.46332 0.755 0.0
C1178 C 0.0574 0.52182 0.7514 0.0
C1179 C 0.04158 0.52407 0.7447 0.0
C1180 C 0.07296 0.53967 0.75851 0.0
C1181 C 0.08931 0.53781 0.76627 0.0
C1182 C 0.08234 0.52105 0.77506 0.0
C1183 C 0.09782 0.51912 0.78219 0.0
C1184 C 0.12034 0.53396 0.78067 0.0
C1185 C 0.12741 0.5508 0.77205 0.0
C1186 C 0.11199 0.55278 0.76488 0.0
C1187 C 0.04673 0.60964 0.75549 0.0
C1188 C 0.0674 0.62782 0.75253 0.0
C1189 C 0.04324 0.58814 0.75462 0.0
C1190 C 0.06035 0.58463 0.75071 0.0
C1191 C 0.08064 0.60275 0.74728 0.0
C1192 C 0.08413 0.62411 0.74817 0.0
C1193 C 0.05808 0.56244 0.75105 0.0
C1194 C 0.07315 0.55974 0.7582 0.0
C1195 C 0.04183 0.54431 0.74436 0.0
C1196 C 0.02574 0.54632 0.7365 0.0
C1197 C 0.03298 0.56221 0.7272 0.0
C1198 C 0.01769 0.56407 0.71986 0.0
C1199 C 0.99509 0.55 0.72167 0.0
C1200 C 0.98775 0.53401 0.7308 0.0
C1201 C 0.00298 0.5321 0.73817 0.0
H1202 H 0.98327 0.55146 0.71598 0.0
H1203 H 0.1323 0.53244 0.7862 0.0
H1204 H 0.44101 0.44825 0.75747 0.0
H1205 H 0.47907 0.47826 0.75428 0.0
H1206 H 0.45479 0.52221 0.74487 0.0
H1207 H 0.41706 0.49244 0.74778 0.0
H1208 H 0.48828 0.52934 0.73049 0.0
H1209 H 0.47227 0.51966 0.77392 0.0
H1210 H 0.46192 0.49836 0.793 0.0
H1211 H 0.51721 0.48802 0.78936 0.0
H1212 H 0.52771 0.50906 0.77016 0.0
H1213 H 0.5603 0.63732 0.74923 0.0
H1214 H 0.53084 0.59944 0.74593 0.0
H1215 H 0.57587 0.57579 0.75375 0.0
H1216 H 0.60558 0.61386 0.75715 0.0
H1217 H 0.5374 0.55371 0.76652 0.0
H1218 H 0.55785 0.57233 0.72528 0.0
H1219 H 0.56793 0.59547 0.7069 0.0
H1220 H 0.50417 0.59036 0.70667 0.0
H1221 H 0.49381 0.56751 0.72518 0.0
C1222 C 0.44386 0.46427 0.75459 0.0
C1223 C 0.42611 0.46808 0.75298 0.0
C1224 C 0.46556 0.48137 0.75279 0.0
C1225 C 0.46975 0.50252 0.74945 0.0
C1226 C 0.45196 0.50602 0.7474 0.0
C1227 C 0.43038 0.489 0.74915 0.0
C1228 C 0.4925 0.52161 0.74887 0.0
C1229 C 0.49909 0.53466 0.73834 0.0
C1230 C 0.50685 0.52819 0.759 0.0
C1231 C 0.50059 0.51565 0.77055 0.0
C1232 C 0.48211 0.5127 0.77715 0.0
C1233 C 0.47623 0.5007 0.78799 0.0
C1234 C 0.48885 0.49177 0.79237 0.0
C1235 C 0.50742 0.49489 0.78594 0.0
C1236 C 0.51334 0.50685 0.77508 0.0
C1237 C 0.56402 0.6241 0.75013 0.0
C1238 C 0.58521 0.62851 0.75348 0.0
C1239 C 0.5472 0.60246 0.74816 0.0
C1240 C 0.55125 0.58484 0.74946 0.0
C1241 C 0.57248 0.58919 0.75264 0.0
C1242 C 0.58939 0.61091 0.75457 0.0
C1243 C 0.53276 0.56189 0.74831 0.0
C1244 C 0.52697 0.5481 0.75852 0.0
C1245 C 0.51907 0.55475 0.73792 0.0
C1246 C 0.52508 0.56823 0.72666 0.0
C1247 C 0.54601 0.57623 0.72135 0.0
C1248 C 0.55177 0.5893 0.71091 0.0
C1249 C 0.53671 0.59439 0.70563 0.0
C1250 C 0.51582 0.58639 0.71077 0.0
C1251 C 0.50998 0.57334 0.72123 0.0
H1252 H 0.54121 0.60453 0.69754 0.0
H1253 H 0.48427 0.48248 0.80076 0.0
H1254 H 0.67904 0.77287 0.56925 0.0
H1255 H 0.68298 0.80966 0.57048 0.0
H1256 H 0.63577 0.78734 0.59986 0.0
H1257 H 0.63063 0.75038 0.59795 0.0
H1258 H 0.62441 0.80602 0.5844 0.0
H1259 H 0.69535 0.82649 0.60252 0.0
H1260 H 0.73212 0.82972 0.60303 0.0
H1261 H 0.75047 0.86887 0.57054 0.0
H1262 H 0.71374 0.86566 0.56977 0.0
H1263 H 0.62765 0.90468 0.5975 0.0
H1264 H 0.63364 0.87337 0.59982 0.0
H1265 H 0.68044 0.89792 0.57027 0.0
H1266 H 0.67582 0.93034 0.56867 0.0
H1267 H 0.69313 0.87881 0.5855 0.0
H1268 H 0.62269 0.85722 0.56672 0.0
H1269 H 0.58587 0.85376 0.56546 0.0
H1270 H 0.56652 0.81598 0.59844 0.0
H1271 H 0.6033 0.81942 0.59996 0.0
C1272 C 0.66982 0.77603 0.57608 0.0
C1273 C 0.65448 0.75888 0.58348 0.0
C1274 C 0.67217 0.79708 0.57684 0.0
C1275 C 0.6598 0.80141 0.58534 0.0
C1276 C 0.6454 0.78444 0.59317 0.0
C1277 C 0.64252 0.76332 0.59212 0.0
C1278 C 0.65994 0.82273 0.58536 0.0
C1279 C 0.63949 0.8219 0.58488 0.0
C1280 C 0.67957 0.84354 0.58546 0.0
C1281 C 0.70174 0.8457 0.58604 0.0
C1282 C 0.7072 0.8357 0.59545 0.0
C1283 C 0.72803 0.83754 0.59579 0.0
C1284 C 0.7436 0.84946 0.58681 0.0
C1285 C 0.7384 0.85963 0.57749 0.0
C1286 C 0.71759 0.85783 0.57711 0.0
C1287 C 0.6395 0.90357 0.59166 0.0
C1288 C 0.65114 0.91971 0.58284 0.0
C1289 C 0.6428 0.88559 0.59292 0.0
C1290 C 0.65691 0.88284 0.58493 0.0
C1291 C 0.66934 0.89956 0.57648 0.0
C1292 C 0.66665 0.91801 0.57554 0.0
C1293 C 0.6576 0.86195 0.58488 0.0
C1294 C 0.67812 0.86287 0.58518 0.0
C1295 C 0.63803 0.84111 0.58454 0.0
C1296 C 0.61578 0.83871 0.58349 0.0
C1297 C 0.61059 0.84824 0.57372 0.0
C1298 C 0.58974 0.84628 0.57296 0.0
C1299 C 0.57388 0.83469 0.58188 0.0
C1300 C 0.57882 0.82496 0.59154 0.0
C1301 C 0.59965 0.82688 0.59235 0.0
H1302 H 0.55776 0.83323 0.58128 0.0
H1303 H 0.75971 0.85084 0.58708 0.0
H1304 H 0.11796 0.7758 0.58091 0.0
H1305 H 0.14768 0.814 0.58403 0.0
H1306 H 0.19157 0.79043 0.59478 0.0
H1307 H 0.16214 0.75245 0.5917 0.0
H1308 H 0.19632 0.82496 0.60913 0.0
H1309 H 0.19192 0.80632 0.56621 0.0
H1310 H 0.17295 0.79437 0.54646 0.0
H1311 H 0.16101 0.84892 0.54667 0.0
H1312 H 0.17968 0.86102 0.56651 0.0
H1313 H 0.30567 0.8994 0.59365 0.0
H1314 H 0.26795 0.86925 0.59636 0.0
H1315 H 0.24302 0.91136 0.5843 0.0
H1316 H 0.28097 0.94177 0.58149 0.0
H1317 H 0.22381 0.87217 0.5724 0.0
H1318 H 0.2361 0.89529 0.61338 0.0
H1319 H 0.25626 0.90743 0.63277 0.0
H1320 H 0.25391 0.84517 0.63637 0.0
H1321 H 0.23407 0.83277 0.6169 0.0
C1322 C 0.13389 0.7788 0.58407 0.0
C1323 C 0.13781 0.76119 0.58597 0.0
C1324 C 0.15081 0.80059 0.58584 0.0
C1325 C 0.17183 0.805 0.58957 0.0
C1326 C 0.17545 0.78737 0.59194 0.0
C1327 C 0.15864 0.76567 0.5901 0.0
C1328 C 0.19066 0.82786 0.59018 0.0
C1329 C 0.20236 0.83535 0.60112 0.0
C1330 C 0.19809 0.84164 0.57982 0.0
C1331 C 0.18691 0.83439 0.5679 0.0
C1332 C 0.18508 0.81565 0.56209 0.0
C1333 C 0.17441 0.80887 0.55087 0.0
C1334 C 0.1657 0.82083 0.54534 0.0
C1335 C 0.16771 0.83964 0.55099 0.0
C1336 C 0.17833 0.84646 0.56221 0.0
C1337 C 0.29219 0.90237 0.59171 0.0
C1338 C 0.29624 0.9229 0.58732 0.0
C1339 C 0.27062 0.88515 0.59334 0.0
C1340 C 0.25268 0.88813 0.59065 0.0
C1341 C 0.25665 0.90877 0.58648 0.0
C1342 C 0.2783 0.9261 0.58491 0.0
C1343 C 0.22995 0.86902 0.59126 0.0
C1344 C 0.21751 0.86217 0.58053 0.0
C1345 C 0.22188 0.85586 0.60183 0.0
C1346 C 0.23366 0.86313 0.61363 0.0
C1347 C 0.24 0.88423 0.61826 0.0
C1348 C 0.25136 0.89115 0.62927 0.0
C1349 C 0.25638 0.87709 0.63579 0.0
C1350 C 0.25001 0.85605 0.63131 0.0
C1351 C 0.23867 0.84904 0.62029 0.0
H1352 H 0.26518 0.88248 0.64432 0.0
H1353 H 0.15746 0.81557 0.53665 0.0
H1354 H 0.28093 0.3671 0.58617 0.0
H1355 H 0.24298 0.35885 0.59001 0.0
H1356 H 0.26548 0.42862 0.59104 0.0
H1357 H 0.30318 0.4369 0.58751 0.0
H1358 H 0.23559 0.40746 0.60834 0.0
H1359 H 0.24309 0.39598 0.56488 0.0
H1360 H 0.25002 0.37715 0.54794 0.0
H1361 H 0.19752 0.31465 0.56043 0.0
H1362 H 0.19044 0.33313 0.57751 0.0
H1363 H 0.161 0.43629 0.58702 0.0
H1364 H 0.19045 0.42831 0.59092 0.0
H1365 H 0.14415 0.35846 0.58823 0.0
H1366 H 0.11439 0.36648 0.58387 0.0
H1367 H 0.18032 0.3687 0.57589 0.0
H1368 H 0.16675 0.38273 0.61607 0.0
H1369 H 0.15945 0.40232 0.63241 0.0
H1370 H 0.22281 0.45982 0.62646 0.0
H1371 H 0.23037 0.44075 0.60996 0.0
C1372 C 0.27774 0.38063 0.58733 0.0
C1373 C 0.29496 0.40264 0.58645 0.0
C1374 C 0.25608 0.3759 0.5895 0.0
C1375 C 0.25137 0.39312 0.5907 0.0
C1376 C 0.26871 0.41506 0.59019 0.0
C1377 C 0.29027 0.41977 0.58811 0.0
C1378 C 0.22843 0.38882 0.59177 0.0
C1379 C 0.22343 0.39892 0.60129 0.0
C1380 C 0.21224 0.37688 0.58284 0.0
C1381 C 0.21642 0.36588 0.57253 0.0
C1382 C 0.23312 0.37821 0.56404 0.0
C1383 C 0.23706 0.36761 0.55441 0.0
C1384 C 0.22427 0.34471 0.55313 0.0
C1385 C 0.20745 0.33238 0.56145 0.0
C1386 C 0.20346 0.3429 0.57109 0.0
C1387 C 0.15697 0.41919 0.58736 0.0
C1388 C 0.13539 0.40199 0.58518 0.0
C1389 C 0.17383 0.41464 0.58969 0.0
C1390 C 0.16945 0.39276 0.59016 0.0
C1391 C 0.14785 0.37546 0.58802 0.0
C1392 C 0.13091 0.38005 0.58554 0.0
C1393 C 0.18795 0.38847 0.59209 0.0
C1394 C 0.19209 0.37666 0.58319 0.0
C1395 C 0.20335 0.39884 0.60161 0.0
C1396 C 0.19912 0.41026 0.61175 0.0
C1397 C 0.17911 0.39958 0.61822 0.0
C1398 C 0.17492 0.4106 0.62751 0.0
C1399 C 0.19066 0.4323 0.63047 0.0
C1400 C 0.21065 0.443 0.62417 0.0
C1401 C 0.21491 0.43207 0.61486 0.0
H1402 H 0.18736 0.44081 0.63766 0.0
H1403 H 0.22735 0.33653 0.54568 0.0
H1404 H 0.05495 0.34169 0.12448 0.0
H1405 H 0.04662 0.34937 0.14482 0.0
H1406 H 0.97763 0.31877 0.13535 0.0
H1407 H 0.9863 0.31223 0.11464 0.0
H1408 H 0.98831 0.35226 0.15025 0.0
H1409 H 0.00062 0.29006 0.15046 0.0
H1410 H 0.02211 0.27161 0.14618 0.0
H1411 H 0.07495 0.31867 0.1686 0.0
H1412 H 0.05387 0.33755 0.1729 0.0
H1413 H 0.94873 0.33481 0.21013 0.0
H1414 H 0.95619 0.32822 0.18935 0.0
H1415 H 0.02481 0.35416 0.19853 0.0
H1416 H 0.01688 0.35923 0.21961 0.0
H1417 H 0.01392 0.3228 0.18358 0.0
H1418 H 0.00268 0.38543 0.18333 0.0
H1419 H 0.98223 0.40503 0.18743 0.0
H1420 H 0.92875 0.35875 0.16507 0.0
H1421 H 0.94877 0.33874 0.16096 0.0
C1422 C 0.0381 0.33712 0.12667 0.0
C1423 C 0.02124 0.3264 0.11807 0.0
C1424 C 0.0333 0.34129 0.13833 0.0
C1425 C 0.01139 0.33397 0.14177 0.0
C1426 C 0.99464 0.32439 0.13294 0.0
C1427 C -0.00043 0.32073 0.12112 0.0
C1428 C 0.00593 0.3353 0.1547 0.0
C1429 C 0.99367 0.34558 0.15753 0.0
C1430 C 0.01333 0.32701 0.16426 0.0
C1431 C 0.02572 0.31528 0.16194 0.0
C1432 C 0.01684 0.29649 0.15445 0.0
C1433 C 0.02895 0.28597 0.15202 0.0
C1434 C 0.04989 0.29398 0.1571 0.0
C1435 C 0.05873 0.31248 0.16467 0.0
C1436 C 0.0467 0.32307 0.16713 0.0
C1437 C 0.96533 0.33876 0.20772 0.0
C1438 C 0.98227 0.34758 0.2164 0.0
C1439 C 0.96966 0.33525 0.19581 0.0
C1440 C 0.99125 0.34142 0.19219 0.0
C1441 C 0.00804 0.34942 0.20102 0.0
C1442 C 0.00354 0.35228 0.21307 0.0
C1443 C 0.99637 0.3399 0.17919 0.0
C1444 C 0.00854 0.32952 0.17634 0.0
C1445 C 0.98903 0.34825 0.16962 0.0
C1446 C 0.97716 0.3605 0.17192 0.0
C1447 C 0.98653 0.3794 0.17933 0.0
C1448 C 0.97501 0.39057 0.18165 0.0
C1449 C 0.95419 0.38311 0.17653 0.0
C1450 C 0.94487 0.3645 0.16904 0.0
C1451 C 0.95631 0.35326 0.16669 0.0
H1452 H 0.94529 0.39177 0.17835 0.0
H1453 H 0.05927 0.28585 0.15518 0.0
H1454 H 0.74294 0.76 0.12938 0.0
H1455 H 0.73708 0.74398 0.14956 0.0
H1456 H 0.72007 0.68087 0.13393 0.0
H1457 H 0.72535 0.69685 0.11346 0.0
H1458 H 0.69315 0.67576 0.15229 0.0
H1459 H 0.77138 0.71458 0.14695 0.0
H1460 H 0.80776 0.7463 0.1418 0.0
H1461 H 0.80107 0.78429 0.17038 0.0
H1462 H 0.76449 0.75288 0.1756 0.0
H1463 H 0.70141 0.6301 0.20776 0.0
H1464 H 0.70881 0.64499 0.18722 0.0
H1465 H 0.72265 0.70836 0.20101 0.0
H1466 H 0.71554 0.69356 0.22177 0.0
H1467 H 0.75188 0.71236 0.18336 0.0
H1468 H 0.67286 0.67325 0.18814 0.0
H1469 H 0.63668 0.64111 0.19318 0.0
H1470 H 0.64547 0.60304 0.16546 0.0
H1471 H 0.68185 0.63488 0.16036 0.0
C1472 C 0.73793 0.74268 0.13019 0.0
C1473 C 0.73479 0.72971 0.11981 0.0
C1474 C 0.7347 0.73357 0.14177 0.0
C1475 C 0.72866 0.71135 0.14331 0.0
C1476 C 0.72491 0.69812 0.13296 0.0
C1477 C 0.72792 0.70723 0.12129 0.0
C1478 C 0.72622 0.70214 0.15575 0.0
C1479 C 0.70614 0.68355 0.15902 0.0
C1480 C 0.743 0.71256 0.16464 0.0
C1481 C 0.76511 0.73142 0.16161 0.0
C1482 C 0.7776 0.72974 0.15209 0.0
C1483 C 0.79827 0.74767 0.14916 0.0
C1484 C 0.80671 0.76732 0.15574 0.0
C1485 C 0.79451 0.76906 0.16529 0.0
C1486 C 0.77382 0.75119 0.16824 0.0
C1487 C 0.70615 0.64726 0.20647 0.0
C1488 C 0.70772 0.66062 0.2164 0.0
C1489 C 0.71029 0.65572 0.19469 0.0
C1490 C 0.71586 0.67766 0.19253 0.0
C1491 C 0.71824 0.69132 0.20246 0.0
C1492 C 0.71418 0.68286 0.21431 0.0
C1493 C 0.71878 0.68611 0.17989 0.0
C1494 C 0.73895 0.70455 0.17661 0.0
C1495 C 0.70214 0.67548 0.17097 0.0
C1496 C 0.68016 0.65639 0.17394 0.0
C1497 C 0.66714 0.65798 0.18317 0.0
C1498 C 0.64659 0.63982 0.18603 0.0
C1499 C 0.6388 0.62003 0.17966 0.0
C1500 C 0.65153 0.61837 0.17039 0.0
C1501 C 0.67211 0.63648 0.16751 0.0
H1502 H 0.62289 0.60598 0.1819 0.0
H1503 H 0.8227 0.78119 0.15347 0.0
H1504 H 0.35879 0.05205 0.11486 0.0
H1505 H 0.37555 0.06113 0.13517 0.0
H1506 H 0.31083 0.03293 0.15128 0.0
H1507 H 0.29416 0.0243 0.1312 0.0
H1508 H 0.33783 0.07009 0.1623 0.0
H1509 H 0.34002 0.00493 0.15044 0.0
H1510 H 0.3496 0.98242 0.13729 0.0
H1511 H 0.41849 0.02973 0.14137 0.0
H1512 H 0.40929 0.05267 0.15442 0.0
H1513 H 0.36392 0.05626 0.22332 0.0
H1514 H 0.34848 0.04939 0.20272 0.0
H1515 H 0.41424 0.08086 0.18775 0.0
H1516 H 0.42967 0.08759 0.20815 0.0
H1517 H 0.38759 0.04298 0.17604 0.0
H1518 H 0.38512 0.10756 0.18848 0.0
H1519 H 0.37523 0.12951 0.20189 0.0
H1520 H 0.30642 0.08271 0.1969 0.0
H1521 H 0.31592 0.06029 0.1836 0.0
C1522 C 0.34819 0.04789 0.12275 0.0
C1523 C 0.32516 0.0374 0.12141 0.0
C1524 C 0.35776 0.05299 0.13434 0.0
C1525 C 0.34443 0.04751 0.14478 0.0
C1526 C 0.32148 0.03736 0.1434 0.0
C1527 C 0.31197 0.03237 0.13187 0.0
C1528 C 0.35411 0.05203 0.1572 0.0
C1529 C 0.34854 0.06396 0.16533 0.0
C1530 C 0.36839 0.0444 0.16113 0.0
C1531 C 0.37395 0.03063 0.15329 0.0
C1532 C 0.3572 0.01062 0.14845 0.0
C1533 C 0.36256 0.99777 0.14103 0.0
C1534 C 0.38464 0.00468 0.13846 0.0
C1535 C 0.4014 0.02442 0.14334 0.0
C1536 C 0.39612 0.03735 0.15076 0.0
C1537 C 0.37504 0.06171 0.21563 0.0
C1538 C 0.39801 0.07251 0.21738 0.0
C1539 C 0.36623 0.05785 0.20387 0.0
C1540 C 0.38023 0.06475 0.19368 0.0
C1541 C 0.40311 0.07536 0.19545 0.0
C1542 C 0.4119 0.07926 0.20715 0.0
C1543 C 0.37121 0.06092 0.18113 0.0
C1544 C 0.37692 0.04914 0.17299 0.0
C1545 C 0.35699 0.06862 0.1772 0.0
C1546 C 0.35124 0.08213 0.18515 0.0
C1547 C 0.36788 0.10186 0.19032 0.0
C1548 C 0.36235 0.1144 0.19789 0.0
C1549 C 0.34021 0.10748 0.20027 0.0
C1550 C 0.32356 0.08803 0.19506 0.0
C1551 C 0.32901 0.07541 0.1875 0.0
H1552 H 0.33596 0.11722 0.20613 0.0
H1553 H 0.38876 0.9947 0.13272 0.0
H1554 H 0.32707 0.99823 0.88889 0.0
H1555 H 0.33356 0.98906 0.86834 0.0
H1556 H 0.32048 0.03849 0.85347 0.0
H1557 H 0.31321 0.047 0.87377 0.0
H1558 H 0.30049 0.00377 0.84033 0.0
H1559 H 0.37426 0.04559 0.85619 0.0
H1560 H 0.40445 0.05474 0.87073 0.0
H1561 H 0.39894 0.99155 0.86455 0.0
H1562 H 0.36853 0.98192 0.85009 0.0
H1563 H 0.34436 0.0067 0.78059 0.0
H1564 H 0.33672 0.0162 0.80084 0.0
H1565 H 0.34482 0.96421 0.8166 0.0
H1566 H 0.35271 0.95499 0.79667 0.0
H1567 H 0.36773 0.00112 0.82906 0.0
H1568 H 0.29356 0.95957 0.81318 0.0
H1569 H 0.26384 0.95112 0.79844 0.0
H1570 H 0.27089 0.01501 0.80441 0.0
H1571 H 0.30086 0.02394 0.81908 0.0
C1572 C 0.32571 0.00716 0.88122 0.0
C1573 C 0.3196 0.02329 0.88294 0.0
C1574 C 0.32949 0.00199 0.86948 0.0
C1575 C 0.3277 0.01322 0.85931 0.0
C1576 C 0.32185 0.02949 0.86111 0.0
C1577 C 0.31777 0.03439 0.87276 0.0
C1578 C 0.33148 0.00793 0.84675 0.0
C1579 C 0.31535 0.00348 0.83785 0.0
C1580 C 0.35066 0.00717 0.84348 0.0
C1581 C 0.36898 0.01296 0.85215 0.0
C1582 C 0.37939 0.03359 0.858 0.0
C1583 C 0.39656 0.03887 0.86622 0.0
C1584 C 0.40357 0.02371 0.86859 0.0
C1585 C 0.39347 0.00327 0.86272 0.0
C1586 C 0.37628 0.9979 0.85451 0.0
C1587 C 0.34425 0.9972 0.78838 0.0
C1588 C 0.34925 0.9802 0.78704 0.0
C1589 C 0.33989 0.00261 0.79994 0.0
C1590 C 0.34023 0.99092 0.81027 0.0
C1591 C 0.34464 0.97359 0.80882 0.0
C1592 C 0.3491 0.96831 0.79737 0.0
C1593 C 0.33672 0.9969 0.82269 0.0
C1594 C 0.35291 0.00149 0.83155 0.0
C1595 C 0.31767 0.99791 0.8259 0.0
C1596 C 0.2996 0.9925 0.81713 0.0
C1597 C 0.28888 0.97187 0.81128 0.0
C1598 C 0.27197 0.96698 0.80295 0.0
C1599 C 0.26552 0.98254 0.80046 0.0
C1600 C 0.27593 0.00299 0.80633 0.0
C1601 C 0.29286 0.00796 0.81466 0.0
H1602 H 0.25243 0.97872 0.79401 0.0
H1603 H 0.41686 0.02783 0.87495 0.0
H1604 H 0.05579 0.36219 0.78011 0.0
H1605 H 0.04947 0.34663 0.80066 0.0
H1606 H 0.083 0.41238 0.81572 0.0
H1607 H 0.08977 0.42791 0.79536 0.0
H1608 H 0.09534 0.38768 0.82738 0.0
H1609 H 0.02596 0.38035 0.81529 0.0
H1610 H 0.99341 0.36858 0.80216 0.0
H1611 H 0.97578 0.30077 0.80689 0.0
H1612 H 0.00841 0.31217 0.81993 0.0
H1613 H 0.05432 0.36 0.88843 0.0
H1614 H 0.0628 0.37547 0.86782 0.0
H1615 H 0.03429 0.3098 0.85294 0.0
H1616 H 0.02581 0.29433 0.87333 0.0
H1617 H 0.01957 0.33431 0.84129 0.0
H1618 H 0.08904 0.34224 0.8539 0.0
H1619 H 0.12115 0.35456 0.86744 0.0
H1620 H 0.1382 0.42207 0.86209 0.0
H1621 H 0.10597 0.41012 0.84866 0.0
C1622 C 0.06186 0.37328 0.78781 0.0
C1623 C 0.0732 0.39626 0.7861 0.0
C1624 C 0.05818 0.3644 0.79955 0.0
C1625 C 0.06555 0.37835 0.80976 0.0
C1626 C 0.07717 0.40127 0.80802 0.0
C1627 C 0.08096 0.41012 0.79634 0.0
C1628 C 0.061 0.36927 0.82231 0.0
C1629 C 0.07873 0.37619 0.83045 0.0
C1630 C 0.03939 0.35403 0.8263 0.0
C1631 C 0.01976 0.34713 0.81847 0.0
C1632 C 0.01524 0.36294 0.81345 0.0
C1633 C 0.99676 0.35633 0.80604 0.0
C1634 C 0.98257 0.33394 0.80367 0.0
C1635 C 0.98681 0.31811 0.80872 0.0
C1636 C 0.00528 0.32463 0.81613 0.0
C1637 C 0.04997 0.34892 0.88076 0.0
C1638 C 0.03942 0.32596 0.88252 0.0
C1639 C 0.05485 0.35775 0.869 0.0
C1640 C 0.04922 0.34376 0.85885 0.0
C1641 C 0.03873 0.32089 0.86063 0.0
C1642 C 0.03397 0.31209 0.87232 0.0
C1643 C 0.05389 0.35273 0.84632 0.0
C1644 C 0.03617 0.34579 0.83819 0.0
C1645 C 0.07547 0.36804 0.84237 0.0
C1646 C 0.09496 0.37527 0.85037 0.0
C1647 C 0.09953 0.3597 0.85569 0.0
C1648 C 0.11777 0.36662 0.86333 0.0
C1649 C 0.13167 0.38908 0.86565 0.0
C1650 C 0.1274 0.40468 0.8603 0.0
C1651 C 0.10916 0.39784 0.85266 0.0
H1652 H 0.14578 0.3944 0.87158 0.0
H1653 H 0.96827 0.32886 0.79793 0.0
H1654 H 0.63032 0.67967 0.79793 0.0
H1655 H 0.64773 0.68913 0.81777 0.0
H1656 H 0.70972 0.73563 0.80123 0.0
H1657 H 0.69227 0.72573 0.78103 0.0
H1658 H 0.71537 0.71241 0.81922 0.0
H1659 H 0.67774 0.75338 0.81532 0.0
H1660 H 0.64618 0.75876 0.81093 0.0
H1661 H 0.60908 0.71401 0.83967 0.0
H1662 H 0.64031 0.70812 0.84412 0.0
H1663 H 0.76542 0.76774 0.8734 0.0
H1664 H 0.74878 0.7588 0.85335 0.0
H1665 H 0.68645 0.71105 0.86905 0.0
H1666 H 0.70311 0.72028 0.88943 0.0
H1667 H 0.68144 0.73557 0.85137 0.0
H1668 H 0.71927 0.69447 0.85506 0.0
H1669 H 0.75099 0.6893 0.85935 0.0
H1670 H 0.78805 0.73485 0.83091 0.0
H1671 H 0.75664 0.74052 0.82656 0.0
C1672 C 0.64769 0.69192 0.79845 0.0
C1673 C 0.65988 0.70215 0.7879 0.0
C1674 C 0.6576 0.69737 0.80984 0.0
C1675 C 0.67989 0.71348 0.81104 0.0
C1676 C 0.69242 0.72327 0.80051 0.0
C1677 C 0.68247 0.71763 0.789 0.0
C1678 C 0.68978 0.71994 0.82335 0.0
C1679 C 0.70818 0.71783 0.82619 0.0
C1680 C 0.68006 0.72648 0.83256 0.0
C1681 C 0.66132 0.73018 0.82999 0.0
C1682 C 0.6628 0.74458 0.82066 0.0
C1683 C 0.64498 0.74774 0.81816 0.0
C1684 C 0.62562 0.73671 0.825 0.0
C1685 C 0.62408 0.72254 0.83437 0.0
C1686 C 0.64185 0.71931 0.8369 0.0
C1687 C 0.74814 0.75533 0.87266 0.0
C1688 C 0.73562 0.74455 0.88303 0.0
C1689 C 0.73867 0.75018 0.86114 0.0
C1690 C 0.7165 0.73393 0.85965 0.0
C1691 C 0.70367 0.72355 0.87 0.0
C1692 C 0.71317 0.72881 0.88162 0.0
C1693 C 0.70697 0.72795 0.84724 0.0
C1694 C 0.68864 0.73017 0.84439 0.0
C1695 C 0.71681 0.72159 0.83802 0.0
C1696 C 0.73566 0.71806 0.84055 0.0
C1697 C 0.73423 0.7035 0.84978 0.0
C1698 C 0.75215 0.70046 0.85221 0.0
C1699 C 0.77154 0.71178 0.84543 0.0
C1700 C 0.77302 0.72611 0.83617 0.0
C1701 C 0.75516 0.72922 0.8337 0.0
H1702 H 0.78539 0.70941 0.84733 0.0
H1703 H 0.61184 0.73916 0.82305 0.0
H1704 H 0.05466 0.72172 0.88942 0.0
H1705 H 0.06203 0.71454 0.8686 0.0
H1706 H 0.0258 0.74467 0.85452 0.0
H1707 H 0.01825 0.75166 0.87513 0.0
H1708 H 0.01489 0.70706 0.84266 0.0
H1709 H 0.08174 0.7725 0.85452 0.0
H1710 H 0.11401 0.7949 0.86757 0.0
H1711 H 0.13701 0.74904 0.86182 0.0
H1712 H 0.1047 0.72619 0.84887 0.0
H1713 H 0.0508 0.71725 0.78089 0.0
H1714 H 0.04342 0.72592 0.80138 0.0
H1715 H 0.08144 0.69874 0.81676 0.0
H1716 H 0.08915 0.6905 0.79653 0.0
H1717 H 0.0914 0.7358 0.82785 0.0
H1718 H 0.02436 0.66984 0.8165 0.0
H1719 H 0.99193 0.64692 0.80367 0.0
H1720 H 0.96915 0.69315 0.8086 0.0
H1721 H 0.00163 0.7165 0.82134 0.0
C1722 C 0.04826 0.72676 0.88187 0.0
C1723 C 0.03594 0.73732 0.88393 0.0
C1724 C 0.05253 0.72273 0.86999 0.0
C1725 C 0.0446 0.72924 0.86 0.0
C1726 C 0.03207 0.73948 0.86207 0.0
C1727 C 0.02785 0.74354 0.87389 0.0
C1728 C 0.04938 0.72557 0.84733 0.0
C1729 C 0.03163 0.71356 0.83938 0.0
C1730 C 0.07119 0.73375 0.84309 0.0
C1731 C 0.09069 0.74752 0.85082 0.0
C1732 C 0.09359 0.7671 0.85611 0.0
C1733 C 0.1119 0.77989 0.86348 0.0
C1734 C 0.12752 0.77337 0.86555 0.0
C1735 C 0.12488 0.75406 0.86023 0.0
C1736 C 0.10658 0.74119 0.85287 0.0
C1737 C 0.05763 0.71323 0.78866 0.0
C1738 C 0.07051 0.70315 0.78707 0.0
C1739 C 0.05333 0.71809 0.80036 0.0
C1740 C 0.06172 0.7128 0.81064 0.0
C1741 C 0.07482 0.70303 0.80901 0.0
C1742 C 0.07915 0.69826 0.79739 0.0
C1743 C 0.05689 0.71715 0.82317 0.0
C1744 C 0.07464 0.72932 0.83111 0.0
C1745 C 0.03508 0.70905 0.8274 0.0
C1746 C 0.01555 0.69503 0.81975 0.0
C1747 C 0.01253 0.6752 0.81476 0.0
C1748 C 0.99412 0.66212 0.80752 0.0
C1749 C 0.97853 0.66861 0.80529 0.0
C1750 C 0.98127 0.68817 0.81032 0.0
C1751 C -0.00033 0.70133 0.81755 0.0
H1752 H 0.96428 0.65845 0.79968 0.0
H1753 H 0.14168 0.78329 0.87125 0.0
H1754 H 0.36013 0.42891 0.79728 0.0
H1755 H 0.35244 0.41347 0.81766 0.0
H1756 H 0.33088 0.34869 0.80296 0.0
H1757 H 0.33841 0.36413 0.7823 0.0
H1758 H 0.30358 0.34822 0.82124 0.0
H1759 H 0.38136 0.37762 0.81547 0.0
H1760 H 0.41922 0.4062 0.81002 0.0
H1761 H 0.41868 0.44824 0.83825 0.0
H1762 H 0.38067 0.42003 0.84376 0.0
H1763 H 0.30596 0.29738 0.87577 0.0
H1764 H 0.3126 0.31262 0.85537 0.0
H1765 H 0.33923 0.37818 0.87018 0.0
H1766 H 0.33316 0.36292 0.89084 0.0
H1767 H 0.36383 0.37842 0.85177 0.0
H1768 H 0.28645 0.3496 0.85768 0.0
H1769 H 0.24838 0.32158 0.86314 0.0
H1770 H 0.24776 0.27921 0.83475 0.0
H1771 H 0.28596 0.30686 0.82923 0.0
C1772 C 0.35368 0.41134 0.79832 0.0
C1773 C 0.35002 0.39775 0.78815 0.0
C1774 C 0.34937 0.40256 0.81001 0.0
C1775 C 0.34146 0.38 0.81186 0.0
C1776 C 0.33711 0.36619 0.80173 0.0
C1777 C 0.34142 0.37501 0.78995 0.0
C1778 C 0.338 0.3711 0.82441 0.0
C1779 C 0.31681 0.35457 0.82787 0.0
C1780 C 0.35514 0.37988 0.83316 0.0
C1781 C 0.37809 0.39678 0.82996 0.0
C1782 C 0.38926 0.39302 0.82046 0.0
C1783 C 0.41075 0.40915 0.81737 0.0
C1784 C 0.42133 0.42905 0.82377 0.0
C1785 C 0.41046 0.43283 0.8333 0.0
C1786 C 0.38894 0.41676 0.83642 0.0
C1787 C 0.31318 0.31506 0.87474 0.0
C1788 C 0.31888 0.32894 0.88494 0.0
C1789 C 0.31687 0.32375 0.86303 0.0
C1790 C 0.32598 0.34651 0.86119 0.0
C1791 C 0.33204 0.36053 0.87136 0.0
C1792 C 0.32854 0.35182 0.88315 0.0
C1793 C 0.32937 0.35549 0.84863 0.0
C1794 C 0.35056 0.37206 0.84516 0.0
C1795 C 0.3122 0.34682 0.83988 0.0
C1796 C 0.28914 0.33024 0.84311 0.0
C1797 C 0.27825 0.33425 0.85265 0.0
C1798 C 0.25664 0.31844 0.85575 0.0
C1799 C 0.24567 0.29861 0.84931 0.0
C1800 C 0.25628 0.29457 0.83974 0.0
C1801 C 0.2779 0.31032 0.83661 0.0
H1802 H 0.22894 0.28638 0.85173 0.0
H1803 H 0.43797 0.44152 0.82135 0.0
H1804 H 0.69926 0.01785 0.88726 0.0
H1805 H 0.68566 0.01073 0.86629 0.0
H1806 H 0.7445 0.01032 0.85492 0.0
H1807 H 0.75843 0.01826 0.87567 0.0
H1808 H 0.73664 0.03341 0.83963 0.0
H1809 H 0.69198 0.96177 0.85771 0.0
H1810 H 0.66617 0.93525 0.8727 0.0
H1811 H 0.61728 0.95243 0.86279 0.0
H1812 H 0.64291 0.97925 0.84783 0.0
H1813 H 0.69535 0.99096 0.77973 0.0
H1814 H 0.71123 0.99765 0.80029 0.0
H1815 H 0.6537 0.9978 0.81435 0.0
H1816 H 0.6376 0.9902 0.79414 0.0
H1817 H 0.66197 0.97358 0.82811 0.0
H1818 H 0.70707 0.04625 0.81061 0.0
H1819 H 0.73296 0.07301 0.79572 0.0
H1820 H 0.78091 0.05396 0.80454 0.0
H1821 H 0.7552 0.02691 0.81938 0.0
C1822 C 0.70914 0.01602 0.88029 0.0
C1823 C 0.72989 0.01862 0.8831 0.0
C1824 C 0.70136 0.01189 0.8683 0.0
C1825 C 0.71396 0.00979 0.85898 0.0
C1826 C 0.73449 0.01197 0.86189 0.0
C1827 C 0.74239 0.01642 0.87378 0.0
C1828 C 0.7062 0.00596 0.84614 0.0
C1829 C 0.7204 0.02013 0.83709 0.0
C1830 C 0.68491 0.9889 0.8428 0.0
C1831 C 0.66943 0.97264 0.85172 0.0
C1832 C 0.67577 0.95998 0.85878 0.0
C1833 C 0.66117 0.94488 0.86726 0.0
C1834 C 0.64012 0.94219 0.86872 0.0
C1835 C 0.6336 0.95454 0.86166 0.0
C1836 C 0.64815 0.96967 0.85317 0.0
C1837 C 0.68632 0.9927 0.78723 0.0
C1838 C 0.66524 0.98997 0.78538 0.0
C1839 C 0.69537 0.99655 0.79897 0.0
C1840 C 0.68369 0.99829 0.80893 0.0
C1841 C 0.66298 0.99632 0.8069 0.0
C1842 C 0.65382 0.99205 0.79531 0.0
C1843 C 0.69225 0.00125 0.8216 0.0
C1844 C 0.67823 0.98685 0.83062 0.0
C1845 C 0.71368 0.01811 0.82491 0.0
C1846 C 0.72913 0.0344 0.81601 0.0
C1847 C 0.72308 0.04767 0.80931 0.0
C1848 C 0.73773 0.0629 0.80089 0.0
C1849 C 0.75854 0.06514 0.79916 0.0
C1850 C 0.76477 0.05219 0.80587 0.0
C1851 C 0.75018 0.03692 0.81429 0.0
H1852 H 0.76986 0.07694 0.79264 0.0
H1853 H 0.62884 0.9305 0.87529 0.0
H1854 H 0.75218 0.01747 0.13019 0.0
H1855 H 0.74422 0.02551 0.15045 0.0
H1856 H 0.7177 0.06409 0.13506 0.0
H1857 H 0.7257 0.05607 0.11455 0.0
H1858 H 0.74627 0.08474 0.15474 0.0
H1859 H 0.68308 0.01434 0.14563 0.0
H1860 H 0.66373 0.97547 0.139 0.0
H1861 H 0.69308 0.95866 0.16831 0.0
H1862 H 0.71286 0.99752 0.17501 0.0
H1863 H 0.69174 0.0919 0.20684 0.0
H1864 H 0.70114 0.08462 0.18676 0.0
H1865 H 0.72409 0.04328 0.20256 0.0
H1866 H 0.71444 0.05039 0.22287 0.0
H1867 H 0.69792 0.02406 0.18276 0.0
H1868 H 0.76071 0.09372 0.19217 0.0
H1869 H 0.78064 0.13249 0.19895 0.0
H1870 H 0.75313 0.15072 0.16933 0.0
H1871 H 0.73275 0.11198 0.16247 0.0
C1872 C 0.74464 0.02768 0.13106 0.0
C1873 C 0.73951 0.0361 0.12074 0.0
C1874 C 0.74004 0.03219 0.14268 0.0
C1875 C 0.73017 0.0452 0.14427 0.0
C1876 C 0.72527 0.05394 0.13401 0.0
C1877 C 0.72978 0.04931 0.12232 0.0
C1878 C 0.72514 0.04964 0.15669 0.0
C1879 C 0.73542 0.07153 0.16081 0.0
C1880 C 0.71158 0.0323 0.16473 0.0
C1881 C 0.69962 0.00889 0.16075 0.0
C1882 C 0.68555 0.00239 0.1506 0.0
C1883 C 0.67448 0.98036 0.14684 0.0
C1884 C 0.67722 0.96462 0.15321 0.0
C1885 C 0.691 0.97088 0.16337 0.0
C1886 C 0.70212 0.9929 0.16716 0.0
C1887 C 0.69886 0.08131 0.2061 0.0
C1888 C 0.70238 0.07173 0.21647 0.0
C1889 C 0.70432 0.07725 0.19459 0.0
C1890 C 0.71355 0.06361 0.19316 0.0
C1891 C 0.71704 0.05392 0.20348 0.0
C1892 C 0.7116 0.05804 0.21506 0.0
C1893 C 0.71897 0.0592 0.18082 0.0
C1894 C 0.70878 0.0373 0.1767 0.0
C1895 C 0.73271 0.07653 0.17281 0.0
C1896 C 0.74503 0.09989 0.17687 0.0
C1897 C 0.75876 0.10596 0.18716 0.0
C1898 C 0.77017 0.12794 0.19101 0.0
C1899 C 0.76812 0.14405 0.18459 0.0
C1900 C 0.75469 0.13822 0.1743 0.0
C1901 C 0.74322 0.11625 0.17042 0.0
H1902 H 0.77696 0.16106 0.18759 0.0
H1903 H 0.66864 0.94756 0.15029 0.0
H1904 H 0.03552 0.76144 0.13268 0.0
H1905 H 0.02739 0.7444 0.15266 0.0
H1906 H 0.9883 0.68021 0.13634 0.0
H1907 H 0.99648 0.69731 0.11606 0.0
H1908 H 0.96795 0.68792 0.15659 0.0
H1909 H 0.03712 0.69326 0.14673 0.0
H1910 H 0.0758 0.71186 0.13981 0.0
H1911 H 0.09462 0.7577 0.16941 0.0
H1912 H 0.05597 0.73956 0.17642 0.0
H1913 H 0.96019 0.62659 0.2092 0.0
H1914 H 0.96716 0.64258 0.18895 0.0
H1915 H 0.01078 0.707 0.20396 0.0
H1916 H 0.004 0.69094 0.22443 0.0
H1917 H 0.02866 0.69859 0.18414 0.0
H1918 H 0.96006 0.6941 0.19397 0.0
H1919 H 0.92146 0.67628 0.20098 0.0
H1920 H 0.90157 0.62986 0.1716 0.0
H1921 H 0.94013 0.6472 0.16452 0.0
C1922 C 0.02517 0.74367 0.13327 0.0
C1923 C 0.01667 0.7307 0.12275 0.0
C1924 C 0.02062 0.73396 0.14473 0.0
C1925 C 0.00743 0.71104 0.14599 0.0
C1926 C 0.99859 0.69796 0.13555 0.0
C1927 C 0.00331 0.70771 0.12399 0.0
C1928 C 0.00296 0.70105 0.15829 0.0
C1929 C 0.98115 0.68988 0.16255 0.0
C1930 C 0.02031 0.70427 0.16618 0.0
C1931 C 0.0436 0.71516 0.16203 0.0
C1932 C 0.04947 0.70741 0.15171 0.0
C1933 C 0.0714 0.71786 0.14778 0.0
C1934 C 0.08765 0.73599 0.15415 0.0
C1935 C 0.08201 0.74367 0.16448 0.0
C1936 C 0.0601 0.7333 0.16844 0.0
C1937 C 0.9712 0.6442 0.20825 0.0
C1938 C 0.98152 0.65752 0.21845 0.0
C1939 C 0.97509 0.65333 0.19664 0.0
C1940 C 0.9893 0.67602 0.19493 0.0
C1941 C -0.00031 0.68944 0.20508 0.0
C1942 C 0.99575 0.68028 0.21676 0.0
C1943 C 0.99361 0.68545 0.18247 0.0
C1944 C 0.01541 0.69654 0.17818 0.0
C1945 C 0.97626 0.68225 0.17457 0.0
C1946 C 0.95303 0.67182 0.17878 0.0
C1947 C 0.94749 0.67997 0.18906 0.0
C1948 C 0.92561 0.66998 0.19304 0.0
C1949 C 0.90908 0.65192 0.18676 0.0
C1950 C 0.91439 0.64384 0.17647 0.0
C1951 C 0.93626 0.65376 0.17246 0.0
H1952 H 0.89215 0.64421 0.18985 0.0
H1953 H 0.10462 0.74405 0.15109 0.0
H1954 H 0.35729 0.33942 0.11736 0.0
H1955 H 0.37227 0.34656 0.13805 0.0
H1956 H 0.30867 0.29763 0.1519 0.0
H1957 H 0.29357 0.29089 0.13141 0.0
H1958 H 0.32488 0.33283 0.16564 0.0
H1959 H 0.35283 0.28784 0.14914 0.0
H1960 H 0.37263 0.27767 0.13431 0.0
H1961 H 0.43247 0.33861 0.14124 0.0
H1962 H 0.41294 0.34927 0.156 0.0
H1963 H 0.36374 0.32907 0.22559 0.0
H1964 H 0.34664 0.31943 0.20535 0.0
H1965 H 0.40898 0.36605 0.18913 0.0
H1966 H 0.42609 0.37505 0.20906 0.0
H1967 H 0.3921 0.33005 0.17681 0.0
H1968 H 0.36416 0.37583 0.19264 0.0
H1969 H 0.3445 0.38653 0.20728 0.0
H1970 H 0.28497 0.32473 0.20151 0.0
H1971 H 0.30436 0.31355 0.18694 0.0
C1972 C 0.34658 0.33012 0.12482 0.0
C1973 C 0.32427 0.3146 0.12275 0.0
C1974 C 0.35515 0.33416 0.13664 0.0
C1975 C 0.34164 0.32249 0.14655 0.0
C1976 C 0.31942 0.30689 0.14444 0.0
C1977 C 0.31083 0.30301 0.13269 0.0
C1978 C 0.35041 0.32669 0.15918 0.0
C1979 C 0.33943 0.33194 0.16811 0.0
C1980 C 0.36958 0.32591 0.1624 0.0
C1981 C 0.38137 0.31943 0.1536 0.0
C1982 C 0.37017 0.29913 0.14744 0.0
C1983 C 0.38136 0.29327 0.13906 0.0
C1984 C 0.40378 0.3075 0.13681 0.0
C1985 C 0.41509 0.32761 0.14298 0.0
C1986 C 0.40398 0.33356 0.15136 0.0
C1987 C 0.37368 0.33726 0.21768 0.0
C1988 C 0.39625 0.35272 0.21891 0.0
C1989 C 0.36392 0.33182 0.20613 0.0
C1990 C 0.3765 0.3421 0.19567 0.0
C1991 C 0.39893 0.35775 0.197 0.0
C1992 C 0.40869 0.36292 0.20844 0.0
C1993 C 0.36676 0.33649 0.18326 0.0
C1994 C 0.37752 0.33089 0.17436 0.0
C1995 C 0.34744 0.33704 0.18007 0.0
C1996 C 0.33577 0.34376 0.18881 0.0
C1997 C 0.34692 0.36446 0.19457 0.0
C1998 C 0.33582 0.37062 0.20283 0.0
C1999 C 0.31351 0.35629 0.20535 0.0
C2000 C 0.30225 0.3358 0.19957 0.0
C2001 C 0.31329 0.32954 0.1913 0.0
H2002 H 0.30494 0.3611 0.21175 0.0
H2003 H 0.41241 0.30294 0.13031 0.0
H2004 H 0.62309 0.67932 0.54229 0.0
H2005 H 0.63164 0.67126 0.52214 0.0
H2006 H 0.69011 0.67324 0.53625 0.0
H2007 H 0.68144 0.68117 0.55667 0.0
H2008 H 0.69761 0.69926 0.51524 0.0
H2009 H 0.64942 0.62549 0.52821 0.0
H2010 H 0.6158 0.59455 0.53703 0.0
H2011 H 0.57665 0.6003 0.50881 0.0
H2012 H 0.61002 0.63154 0.49991 0.0
H2013 H 0.71856 0.65318 0.46259 0.0
H2014 H 0.71009 0.65959 0.48317 0.0
H2015 H 0.65493 0.66459 0.46963 0.0
H2016 H 0.66369 0.65865 0.4488 0.0
H2017 H 0.64617 0.63447 0.49047 0.0
H2018 H 0.69455 0.70901 0.47791 0.0
H2019 H 0.72836 0.73983 0.46915 0.0
H2020 H 0.76734 0.73217 0.49675 0.0
H2021 H 0.73377 0.70105 0.50557 0.0
C2022 C 0.63766 0.67779 0.54116 0.0
C2023 C 0.65163 0.68089 0.55105 0.0
C2024 C 0.64247 0.67311 0.52964 0.0
C2025 C 0.66147 0.67159 0.5277 0.0
C2026 C 0.67534 0.67433 0.53758 0.0
C2027 C 0.67032 0.67871 0.54922 0.0
C2028 C 0.66712 0.66821 0.5152 0.0
C2029 C 0.68657 0.6849 0.50989 0.0
C2030 C 0.65237 0.64977 0.50813 0.0
C2031 C 0.63222 0.63102 0.51346 0.0
C2032 C 0.63362 0.62031 0.52395 0.0
C2033 C 0.61461 0.60268 0.52895 0.0
C2034 C 0.59409 0.5955 0.52351 0.0
C2035 C 0.59255 0.6059 0.51303 0.0
C2036 C 0.61152 0.62356 0.50799 0.0
C2037 C 0.7047 0.65579 0.46396 0.0
C2038 C 0.69176 0.65542 0.45409 0.0
C2039 C 0.69993 0.65949 0.47572 0.0
C2040 C 0.68192 0.66256 0.47791 0.0
C2041 C 0.66892 0.66225 0.4681 0.0
C2042 C 0.67398 0.65898 0.45623 0.0
C2043 C 0.67657 0.66556 0.49053 0.0
C2044 C 0.6572 0.64878 0.49584 0.0
C2045 C 0.69142 0.68388 0.49762 0.0
C2046 C 0.71167 0.70252 0.49231 0.0
C2047 C 0.71036 0.71373 0.48203 0.0
C2048 C 0.72947 0.7313 0.47707 0.0
C2049 C 0.74999 0.73791 0.48237 0.0
C2050 C 0.75144 0.727 0.49265 0.0
C2051 C 0.73237 0.7094 0.49764 0.0
H2052 H 0.76477 0.75153 0.47852 0.0
H2053 H 0.57939 0.58184 0.52739 0.0
H2054 H 0.38116 0.03191 0.44999 0.0
H2055 H 0.37394 0.01702 0.47072 0.0
H2056 H 0.42369 0.08032 0.48444 0.0
H2057 H 0.43105 0.09518 0.46388 0.0
H2058 H 0.42657 0.04728 0.49533 0.0
H2059 H 0.36988 0.0649 0.48663 0.0
H2060 H 0.3392 0.06374 0.475 0.0
H2061 H 0.30099 0.99354 0.48 0.0
H2062 H 0.33158 0.99424 0.49152 0.0
H2063 H 0.39284 0.02796 0.55805 0.0
H2064 H 0.4015 0.04418 0.53755 0.0
H2065 H 0.35553 0.98081 0.52221 0.0
H2066 H 0.34705 0.9646 0.54243 0.0
H2067 H 0.35108 0.0149 0.51243 0.0
H2068 H 0.40794 0.99715 0.52073 0.0
H2069 H 0.43844 0.99819 0.53249 0.0
H2070 H 0.47613 0.06862 0.5284 0.0
H2071 H 0.4457 0.06802 0.51675 0.0
C2072 C 0.39065 0.04257 0.45742 0.0
C2073 C 0.40658 0.06474 0.45529 0.0
C2074 C 0.38646 0.03409 0.46926 0.0
C2075 C 0.39813 0.04764 0.47916 0.0
C2076 C 0.41447 0.06957 0.47698 0.0
C2077 C 0.41859 0.07805 0.46519 0.0
C2078 C 0.39305 0.03925 0.49183 0.0
C2079 C 0.41012 0.04044 0.49911 0.0
C2080 C 0.37154 0.03007 0.49674 0.0
C2081 C 0.35311 0.0296 0.48982 0.0
C2082 C 0.35501 0.04919 0.48516 0.0
C2083 C 0.33762 0.04862 0.4786 0.0
C2084 C 0.31818 0.02857 0.47673 0.0
C2085 C 0.31607 0.00905 0.48144 0.0
C2086 C 0.33342 0.00953 0.48799 0.0
C2087 C 0.38457 0.01758 0.5503 0.0
C2088 C 0.36936 0.99501 0.55185 0.0
C2089 C 0.38955 0.02681 0.53861 0.0
C2090 C 0.37919 0.01365 0.52836 0.0
C2091 C 0.36369 0.99127 0.52997 0.0
C2092 C 0.35895 0.98202 0.54156 0.0
C2093 C 0.38455 0.02286 0.51589 0.0
C2094 C 0.36754 0.02182 0.50865 0.0
C2095 C 0.40609 0.03217 0.51103 0.0
C2096 C 0.42444 0.03257 0.518 0.0
C2097 C 0.42265 0.01288 0.52244 0.0
C2098 C 0.43994 0.01338 0.52906 0.0
C2099 C 0.45918 0.03346 0.53123 0.0
C2100 C 0.46119 0.05308 0.52673 0.0
C2101 C 0.44394 0.05267 0.52011 0.0
H2102 H 0.47255 0.03382 0.53636 0.0
H2103 H 0.30473 0.02816 0.47166 0.0
H2104 H 0.96175 0.35071 0.46299 0.0
H2105 H 0.97835 0.35885 0.48307 0.0
H2106 H 0.04228 0.40167 0.46726 0.0
H2107 H 0.02567 0.39298 0.44688 0.0
H2108 H 0.04518 0.37714 0.48497 0.0
H2109 H 0.01226 0.42262 0.48125 0.0
H2110 H 0.98243 0.43069 0.47688 0.0
H2111 H 0.94302 0.38652 0.5053 0.0
H2112 H 0.9725 0.37794 0.50974 0.0
H2113 H 0.0961 0.4287 0.54005 0.0
H2114 H 0.08038 0.4216 0.51973 0.0
H2115 H 0.01608 0.37671 0.53446 0.0
H2116 H 0.03176 0.3841 0.55503 0.0
H2117 H 0.01398 0.40317 0.51717 0.0
H2118 H 0.04691 0.35738 0.52061 0.0
H2119 H 0.07686 0.34945 0.52491 0.0
H2120 H 0.11655 0.39472 0.49695 0.0
H2121 H 0.08694 0.40314 0.49259 0.0
C2122 C 0.97936 0.36189 0.46373 0.0
C2123 C 0.9924 0.37138 0.45334 0.0
C2124 C 0.98881 0.3666 0.47526 0.0
C2125 C 0.01147 0.38127 0.47672 0.0
C2126 C 0.02471 0.39042 0.46635 0.0
C2127 C 0.01523 0.38548 0.45473 0.0
C2128 C 0.02114 0.38682 0.48911 0.0
C2129 C 0.0386 0.38318 0.49196 0.0
C2130 C 0.0122 0.3942 0.49832 0.0
C2131 C 0.99453 0.39952 0.49577 0.0
C2132 C 0.99718 0.41453 0.48652 0.0
C2133 C 0.98034 0.4192 0.48404 0.0
C2134 C 0.96083 0.40909 0.49079 0.0
C2135 C 0.95814 0.39433 0.50007 0.0
C2136 C 0.97492 0.38958 0.50258 0.0
C2137 C 0.07859 0.41732 0.53901 0.0
C2138 C 0.06518 0.40682 0.54916 0.0
C2139 C 0.06964 0.41321 0.52736 0.0
C2140 C 0.04714 0.39831 0.52554 0.0
C2141 C 0.03354 0.38818 0.53566 0.0
C2142 C 0.04249 0.39239 0.54739 0.0
C2143 C 0.03795 0.3934 0.51304 0.0
C2144 C 0.02058 0.39717 0.51018 0.0
C2145 C 0.04702 0.38621 0.50381 0.0
C2146 C 0.06478 0.38103 0.50635 0.0
C2147 C 0.06209 0.36576 0.51544 0.0
C2148 C 0.07899 0.36116 0.51788 0.0
C2149 C 0.09861 0.37162 0.51123 0.0
C2150 C 0.10135 0.38665 0.5021 0.0
C2151 C 0.0845 0.39132 0.49964 0.0
H2152 H 0.11168 0.36804 0.51314 0.0
H2153 H 0.94781 0.41272 0.48885 0.0
H2154 H 0.35065 0.41335 0.54126 0.0
H2155 H 0.35969 0.40412 0.52167 0.0
H2156 H 0.39783 0.3791 0.53924 0.0
H2157 H 0.38884 0.38854 0.5592 0.0
H2158 H 0.41938 0.4062 0.51938 0.0
H2159 H 0.34903 0.34332 0.5275 0.0
H2160 H 0.30987 0.32337 0.53356 0.0
H2161 H 0.29371 0.35215 0.50369 0.0
H2162 H 0.33284 0.37254 0.49754 0.0
H2163 H 0.42909 0.35665 0.46531 0.0
H2164 H 0.42068 0.36317 0.48581 0.0
H2165 H 0.38065 0.38878 0.47135 0.0
H2166 H 0.38898 0.38216 0.45061 0.0
H2167 H 0.36026 0.35942 0.49018 0.0
H2168 H 0.43071 0.4235 0.48264 0.0
H2169 H 0.46987 0.4437 0.47659 0.0
H2170 H 0.48581 0.4127 0.50539 0.0
H2171 H 0.44666 0.39204 0.51151 0.0
C2172 C 0.36094 0.40583 0.54105 0.0
C2173 C 0.369 0.40163 0.55183 0.0
C2174 C 0.366 0.40047 0.52979 0.0
C2175 C 0.37918 0.39066 0.52898 0.0
C2176 C 0.38751 0.38657 0.53969 0.0
C2177 C 0.38233 0.39189 0.55106 0.0
C2178 C 0.38439 0.38525 0.51683 0.0
C2179 C 0.4065 0.39561 0.51307 0.0
C2180 C 0.36752 0.37191 0.50849 0.0
C2181 C 0.34392 0.3596 0.51212 0.0
C2182 C 0.33716 0.34553 0.52228 0.0
C2183 C 0.31496 0.33412 0.52572 0.0
C2184 C 0.29932 0.33653 0.51903 0.0
C2185 C 0.30585 0.35031 0.50887 0.0
C2186 C 0.32803 0.36178 0.50539 0.0
C2187 C 0.41853 0.36373 0.46644 0.0
C2188 C 0.40972 0.36894 0.45631 0.0
C2189 C 0.41381 0.36752 0.4782 0.0
C2190 C 0.40022 0.37666 0.48013 0.0
C2191 C 0.39123 0.38176 0.47005 0.0
C2192 C 0.39605 0.37804 0.45822 0.0
C2193 C 0.39523 0.38053 0.4927 0.0
C2194 C 0.37316 0.36988 0.49652 0.0
C2195 C 0.41214 0.39358 0.50109 0.0
C2196 C 0.43571 0.40605 0.49746 0.0
C2197 C 0.44253 0.42084 0.48762 0.0
C2198 C 0.46473 0.4324 0.48419 0.0
C2199 C 0.48031 0.42944 0.49058 0.0
C2200 C 0.47372 0.41495 0.50044 0.0
C2201 C 0.45153 0.40332 0.5039 0.0
H2202 H 0.49749 0.43841 0.48791 0.0
H2203 H 0.28214 0.32768 0.52171 0.0
H2204 H 0.66682 0.02725 0.55607 0.0
H2205 H 0.67557 0.04475 0.5359 0.0
H2206 H 0.64364 0.9805 0.51904 0.0
H2207 H 0.63495 0.96308 0.53891 0.0
H2208 H 0.68354 0.00791 0.50879 0.0
H2209 H 0.61802 0.01006 0.52039 0.0
H2210 H 0.59585 0.01986 0.53368 0.0
H2211 H 0.64369 0.08864 0.52973 0.0
H2212 H 0.66631 0.07921 0.51655 0.0
H2213 H 0.67134 0.03214 0.44771 0.0
H2214 H 0.66405 0.01752 0.46847 0.0
H2215 H 0.69206 0.08367 0.48262 0.0
H2216 H 0.6989 0.09827 0.46201 0.0
H2217 H 0.65606 0.0572 0.49475 0.0
H2218 H 0.72112 0.05576 0.48273 0.0
H2219 H 0.74406 0.04651 0.46974 0.0
H2220 H 0.69847 0.97741 0.47479 0.0
H2221 H 0.67508 0.98624 0.48769 0.0
C2222 C 0.66167 0.01693 0.54804 0.0
C2223 C 0.65018 0.9938 0.54909 0.0
C2224 C 0.66663 0.02691 0.53655 0.0
C2225 C 0.6602 0.01389 0.52597 0.0
C2226 C 0.64883 0.99086 0.52706 0.0
C2227 C 0.64379 0.98094 0.53846 0.0
C2228 C 0.66519 0.02395 0.51369 0.0
C2229 C 0.67739 0.01855 0.50568 0.0
C2230 C 0.6576 0.03823 0.50973 0.0
C2231 C 0.64397 0.04392 0.5176 0.0
C2232 C 0.6239 0.02726 0.52244 0.0
C2233 C 0.61124 0.03275 0.52994 0.0
C2234 C 0.61839 0.05486 0.53258 0.0
C2235 C 0.63819 0.07152 0.52769 0.0
C2236 C 0.65093 0.06612 0.52021 0.0
C2237 C 0.67585 0.04353 0.45525 0.0
C2238 C 0.68575 0.06635 0.45321 0.0
C2239 C 0.67179 0.03518 0.46711 0.0
C2240 C 0.67777 0.04953 0.47713 0.0
C2241 C 0.6873 0.07227 0.47506 0.0
C2242 C 0.69126 0.08059 0.46325 0.0
C2243 C 0.67423 0.04097 0.48977 0.0
C2244 C 0.66234 0.04666 0.49786 0.0
C2245 C 0.68221 0.02704 0.49383 0.0
C2246 C 0.69624 0.02167 0.48608 0.0
C2247 C 0.71589 0.03859 0.48099 0.0
C2248 C 0.72899 0.03342 0.47366 0.0
C2249 C 0.72269 0.01139 0.47142 0.0
C2250 C 0.70331 0.99447 0.47652 0.0
C2251 C 0.69013 -0.00045 0.48386 0.0
H2252 H 0.73286 0.00742 0.46574 0.0
H2253 H 0.60856 0.05908 0.53838 0.0
H2254 H 0.02524 0.66288 0.45113 0.0
H2255 H 0.03876 0.66772 0.47213 0.0
H2256 H 0.97457 0.65225 0.48532 0.0
H2257 H 0.9609 0.64706 0.46448 0.0
H2258 H 0.00987 0.6896 0.49655 0.0
H2259 H 0.98664 0.61429 0.48749 0.0
H2260 H 0.98493 0.58373 0.47549 0.0
H2261 H 0.05452 0.61009 0.48053 0.0
H2262 H 0.05673 0.64107 0.49238 0.0
H2263 H 0.03171 0.67776 0.55893 0.0
H2264 H 0.01354 0.66867 0.53894 0.0
H2265 H 0.07382 0.67899 0.52236 0.0
H2266 H 0.09192 0.68807 0.54209 0.0
H2267 H 0.03767 0.6422 0.51331 0.0
H2268 H 0.06112 0.7187 0.52118 0.0
H2269 H 0.06294 0.7497 0.53279 0.0
H2270 H 0.99267 0.72096 0.52983 0.0
H2271 H 0.9904 0.6896 0.51834 0.0
C2272 C 0.01408 0.66061 0.45851 0.0
C2273 C 0.99201 0.65452 0.45617 0.0
C2274 C 0.02177 0.6633 0.47048 0.0
C2275 C 0.0076 0.66022 0.48026 0.0
C2276 C 0.98575 0.65468 0.47791 0.0
C2277 C 0.97797 0.65165 0.46599 0.0
C2278 C 0.01543 0.66249 0.49297 0.0
C2279 C 0.01566 0.67904 0.50028 0.0
C2280 C 0.02315 0.64883 0.49777 0.0
C2281 C 0.02189 0.63015 0.49072 0.0
C2282 C 0.00163 0.61369 0.48595 0.0
C2283 C 0.00055 0.59627 0.47919 0.0
C2284 C 0.01961 0.59499 0.47722 0.0
C2285 C 0.03977 0.61112 0.48204 0.0
C2286 C 0.04094 0.62862 0.48879 0.0
C2287 C 0.04096 0.67787 0.55102 0.0
C2288 C 0.06327 0.68379 0.55206 0.0
C2289 C 0.03062 0.67276 0.53962 0.0
C2290 C 0.0424 0.6733 0.52915 0.0
C2291 C 0.06441 0.67844 0.53029 0.0
C2292 C 0.07475 0.68375 0.54159 0.0
C2293 C 0.03236 0.66949 0.51687 0.0
C2294 C 0.03171 0.65264 0.50962 0.0
C2295 C 0.02424 0.68287 0.51212 0.0
C2296 C 0.02556 0.70167 0.51904 0.0
C2297 C 0.04603 0.71888 0.52311 0.0
C2298 C 0.04715 0.73654 0.52965 0.0
C2299 C 0.02792 0.73726 0.53209 0.0
C2300 C 0.00754 0.72035 0.52796 0.0
C2301 C 0.00633 0.70263 0.52143 0.0
H2302 H 0.02882 0.75095 0.53714 0.0
H2303 H 0.01874 0.58149 0.47198 0.0
H2304 H 0.03532 0.33854 0.05564 0.0
H2305 H 0.03357 0.35076 0.03489 0.0
H2306 H 0.03074 0.29201 0.02051 0.0
H2307 H 0.03295 0.28016 0.04084 0.0
H2308 H 0.05942 0.32599 0.0082 0.0
H2309 H 0.98443 0.29898 0.02322 0.0
H2310 H 0.95691 0.29952 0.03701 0.0
H2311 H 0.97878 0.36669 0.02702 0.0
H2312 H 0.0066 0.3666 0.01327 0.0
H2313 H 0.9811 0.28799 0.95794 0.0
H2314 H 0.98734 0.30201 0.97862 0.0
H2315 H 0.05126 0.35568 0.96826 0.0
H2316 H 0.04516 0.34136 0.94744 0.0
H2317 H 0.99864 0.33687 0.99327 0.0
H2318 H 0.08778 0.35652 0.9888 0.0
H2319 H 0.11149 0.35008 0.97473 0.0
H2320 H 0.05575 0.28854 0.96366 0.0
H2321 H 0.03184 0.29449 0.97779 0.0
C2322 C 0.03422 0.32826 0.04802 0.0
C2323 C 0.03447 0.30848 0.0499 0.0
C2324 C 0.03325 0.33525 0.03618 0.0
C2325 C 0.0322 0.32239 0.0261 0.0
C2326 C 0.03191 0.30244 0.02807 0.0
C2327 C 0.0331 0.29563 0.03977 0.0
C2328 C 0.03136 0.32908 0.01337 0.0
C2329 C 0.04638 0.32884 0.00499 0.0
C2330 C 0.01443 0.33285 0.00911 0.0
C2331 C 0.99776 0.33288 0.01736 0.0
C2332 C 0.98347 0.31391 0.02405 0.0
C2333 C 0.9678 0.31413 0.03184 0.0
C2334 C 0.96615 0.33316 0.03293 0.0
C2335 C 0.98012 0.35199 0.0262 0.0
C2336 C 0.99583 0.35186 0.01841 0.0
C2337 C 0.99615 0.30326 0.95995 0.0
C2338 C 0.01284 0.31334 0.95116 0.0
C2339 C -0.00034 0.31136 0.97179 0.0
C2340 C 0.01998 0.3296 0.97508 0.0
C2341 C 0.03555 0.3414 0.96595 0.0
C2342 C 0.03202 0.33327 0.95403 0.0
C2343 C 0.02615 0.33286 0.98815 0.0
C2344 C 0.01223 0.33501 0.99656 0.0
C2345 C 0.04369 0.33012 0.99248 0.0
C2346 C 0.05803 0.32612 0.9842 0.0
C2347 C 0.08064 0.3416 0.98338 0.0
C2348 C 0.0941 0.33803 0.97541 0.0
C2349 C 0.08512 0.31895 0.96827 0.0
C2350 C 0.06268 0.30333 0.96917 0.0
C2351 C 0.04918 0.30679 0.97716 0.0
H2352 H 0.09554 0.31625 0.96207 0.0
H2353 H 0.95401 0.33329 0.03896 0.0
H2354 H 0.72718 0.72103 0.94585 0.0
H2355 H 0.71135 0.70694 0.96613 0.0
H2356 H 0.77147 0.75738 0.98266 0.0
H2357 H 0.78723 0.77089 0.96297 0.0
H2358 H 0.75924 0.72047 0.99374 0.0
H2359 H 0.7226 0.76108 0.97928 0.0
H2360 H 0.6978 0.76621 0.9654 0.0
H2361 H 0.645 0.70114 0.97398 0.0
H2362 H 0.66958 0.6956 0.98783 0.0
H2363 H 0.73063 0.77423 0.04233 0.0
H2364 H 0.7225 0.75902 0.02194 0.0
H2365 H 0.72255 0.70069 0.03467 0.0
H2366 H 0.73127 0.71627 0.05527 0.0
H2367 H 0.69479 0.72517 0.00853 0.0
H2368 H 0.75125 0.68878 0.01387 0.0
H2369 H 0.7801 0.6906 0.02755 0.0
H2370 H 0.79923 0.75742 0.0369 0.0
H2371 H 0.77069 0.75604 0.02317 0.0
C2372 C 0.73697 0.72895 0.95385 0.0
C2373 C 0.75855 0.74701 0.9527 0.0
C2374 C 0.72792 0.7209 0.96542 0.0
C2375 C 0.74028 0.73098 0.97597 0.0
C2376 C 0.76168 0.74899 0.97473 0.0
C2377 C 0.77067 0.7568 0.96334 0.0
C2378 C 0.73149 0.72401 0.9885 0.0
C2379 C 0.74478 0.72091 0.99693 0.0
C2380 C 0.71262 0.72447 0.99274 0.0
C2381 C 0.69795 0.72783 0.98444 0.0
C2382 C 0.70573 0.74783 0.97813 0.0
C2383 C 0.69172 0.75082 0.97029 0.0
C2384 C 0.66986 0.73398 0.96878 0.0
C2385 C 0.66195 0.71414 0.97513 0.0
C2386 C 0.6759 0.71107 0.98298 0.0
C2387 C 0.72841 0.75792 0.04088 0.0
C2388 C 0.73208 0.74666 0.05035 0.0
C2389 C 0.72354 0.74911 0.0292 0.0
C2390 C 0.7223 0.72887 0.02667 0.0
C2391 C 0.72371 0.71649 0.03636 0.0
C2392 C 0.72861 0.72535 0.04814 0.0
C2393 C 0.72343 0.72315 0.01376 0.0
C2394 C 0.70861 0.72363 0.0053 0.0
C2395 C 0.74141 0.72114 0.00945 0.0
C2396 C 0.75865 0.72216 0.01767 0.0
C2397 C 0.76163 0.70383 0.01886 0.0
C2398 C 0.77793 0.7048 0.0266 0.0
C2399 C 0.79141 0.72408 0.03314 0.0
C2400 C 0.78872 0.74247 0.03188 0.0
C2401 C 0.77249 0.74161 0.02412 0.0
H2402 H 0.804 0.72478 0.03914 0.0
H2403 H 0.65904 0.73632 0.96271 0.0
H2404 H 0.32667 0.07127 0.95998 0.0
H2405 H 0.33533 0.06433 0.98037 0.0
H2406 H 0.32505 0.00095 0.96879 0.0
H2407 H 0.31649 0.00799 0.94819 0.0
H2408 H 0.29856 0.99814 0.98769 0.0
H2409 H 0.37518 0.03885 0.97932 0.0
H2410 H 0.40991 0.06995 0.9716 0.0
H2411 H 0.40438 0.11373 0.99682 0.0
H2412 H 0.36944 0.08298 0.00458 0.0
H2413 H 0.29647 0.97961 0.0503 0.0
H2414 H 0.30961 0.98253 0.02938 0.0
H2415 H 0.33418 0.05278 0.03015 0.0
H2416 H 0.32257 0.04994 0.05132 0.0
H2417 H 0.35871 0.04686 0.0158 0.0
H2418 H 0.27859 0.0096 0.01995 0.0
H2419 H 0.24134 0.98024 0.02595 0.0
H2420 H 0.25167 0.93201 0.00758 0.0
H2421 H 0.28907 0.96102 1.00162 0.0
C2422 C 0.32692 0.05614 0.96167 0.0
C2423 C 0.3208 0.04011 0.95253 0.0
C2424 C 0.33201 0.05224 0.97333 0.0
C2425 C 0.33092 0.03214 0.97613 0.0
C2426 C 0.32613 0.01663 0.96681 0.0
C2427 C 0.32134 0.02069 0.95505 0.0
C2428 C 0.33123 0.02624 0.98907 0.0
C2429 C 0.31199 0.00841 0.99381 0.0
C2430 C 0.34849 0.04 0.99708 0.0
C2431 C 0.36961 0.05858 0.9925 0.0
C2432 C 0.38128 0.05513 0.98317 0.0
C2433 C 0.40103 0.0727 0.9788 0.0
C2434 C 0.40934 0.0938 0.98371 0.0
C2435 C 0.39794 0.09737 0.99303 0.0
C2436 C 0.37817 0.07986 0.99744 0.0
C2437 C 0.3055 0.99574 0.04611 0.0
C2438 C 0.30877 0.0146 0.05239 0.0
C2439 C 0.3127 0.9974 0.03409 0.0
C2440 C 0.32226 0.01778 0.02796 0.0
C2441 C 0.32682 0.03682 0.03457 0.0
C2442 C 0.32025 0.03525 0.0467 0.0
C2443 C 0.32561 0.0192 0.01451 0.0
C2444 C 0.3455 0.03621 0.00968 0.0
C2445 C 0.30874 0.00493 0.00636 0.0
C2446 C 0.2867 0.98741 0.01048 0.0
C2447 C 0.273 0.99269 0.01732 0.0
C2448 C 0.25184 0.97612 0.02068 0.0
C2449 C 0.24416 0.95429 0.01713 0.0
C2450 C 0.25766 0.94893 0.01032 0.0
C2451 C 0.27883 0.9654 0.00697 0.0
H2452 H 0.22769 0.94151 0.01957 0.0
H2453 H 0.42463 0.10738 0.98031 0.0
H2454 H 0.99834 0.70797 0.95295 0.0
H2455 H -0.00014 0.697 0.97398 0.0
H2456 H 0.06128 0.75781 0.97928 0.0
H2457 H 0.05977 0.76854 0.95834 0.0
H2458 H 0.06046 0.72448 0.99251 0.0
H2459 H 0.01185 0.75471 0.98469 0.0
H2460 H 0.98004 0.75434 0.97479 0.0
H2461 H 0.93665 0.69011 0.98964 0.0
H2462 H 0.9683 0.69 0.9995 0.0
H2463 H 0.0683 0.77796 0.04675 0.0
H2464 H 0.06513 0.76259 0.02659 0.0
H2465 H 0.00425 0.70461 0.03691 0.0
H2466 H 0.00738 0.72019 0.05736 0.0
H2467 H -0.00038 0.72306 0.01638 0.0
H2468 H 0.0489 0.69955 0.02927 0.0
H2469 H 0.08146 0.70196 0.0394 0.0
H2470 H 0.12425 0.75455 0.01547 0.0
H2471 H 0.09199 0.7527 0.00531 0.0
C2472 C 0.0126 0.71844 0.95849 0.0
C2473 C 0.0291 0.73893 0.95407 0.0
C2474 C 0.01338 0.71229 0.97051 0.0
C2475 C 0.03055 0.72672 0.97827 0.0
C2476 C 0.04792 0.74636 0.97349 0.0
C2477 C 0.0471 0.75248 0.96152 0.0
C2478 C 0.02918 0.72333 0.99164 0.0
C2479 C 0.04711 0.724 0.99776 0.0
C2480 C 0.01144 0.72205 0.9985 0.0
C2481 C 0.99243 0.72222 0.99269 0.0
C2482 C 0.99553 0.74046 0.98578 0.0
C2483 C 0.97754 0.74034 0.98018 0.0
C2484 C 0.95634 0.72218 0.98155 0.0
C2485 C 0.95309 0.70413 0.98856 0.0
C2486 C 0.97104 0.70415 0.99415 0.0
C2487 C 0.05445 0.76171 0.04484 0.0
C2488 C 0.03802 0.75033 0.05362 0.0
C2489 C 0.05274 0.75284 0.03331 0.0
C2490 C 0.03455 0.73233 0.03022 0.0
C2491 C 0.01851 0.7204 0.03912 0.0
C2492 C 0.02035 0.72925 0.0508 0.0
C2493 C 0.03135 0.72511 0.0173 0.0
C2494 C 0.0126 0.7226 0.01123 0.0
C2495 C 0.04841 0.72485 0.01051 0.0
C2496 C 0.06796 0.72599 0.01653 0.0
C2497 C 0.06525 0.71171 0.02621 0.0
C2498 C 0.08367 0.71298 0.03195 0.0
C2499 C 0.10491 0.7284 0.02808 0.0
C2500 C 0.10778 0.74258 0.01845 0.0
C2501 C 0.08943 0.7414 0.01267 0.0
H2502 H 0.11914 0.72936 0.03255 0.0
H2503 H 0.94243 0.72212 0.97721 0.0
H2504 H 0.32792 0.3035 0.0526 0.0
H2505 H 0.34165 0.31402 0.0319 0.0
H2506 H 0.31655 0.35927 0.031 0.0
H2507 H 0.30144 0.34739 0.05145 0.0
H2508 H 0.30246 0.33588 0.01269 0.0
H2509 H 0.37528 0.37544 0.02861 0.0
H2510 H 0.40714 0.38204 0.04121 0.0
H2511 H 0.40994 0.32903 0.02323 0.0
H2512 H 0.37792 0.3219 0.01063 0.0
H2513 H 0.32453 0.34404 0.95018 0.0
H2514 H 0.33346 0.35924 0.97084 0.0
H2515 H 0.34409 0.30601 0.98169 0.0
H2516 H 0.33541 0.291 0.96119 0.0
H2517 H 0.37089 0.34388 0.99446 0.0
H2518 H 0.29294 0.29973 0.98297 0.0
H2519 H 0.26079 0.29237 0.97037 0.0
H2520 H 0.26852 0.35514 0.98051 0.0
H2521 H 0.30093 0.36298 0.99302 0.0
C2522 C 0.32611 0.31629 0.04811 0.0
C2523 C 0.31396 0.32491 0.05361 0.0
C2524 C 0.33403 0.32241 0.03626 0.0
C2525 C 0.33044 0.33771 0.0298 0.0
C2526 C 0.31958 0.34745 0.03571 0.0
C2527 C 0.31113 0.34086 0.04744 0.0
C2528 C 0.33496 0.34094 0.01647 0.0
C2529 C 0.31777 0.33837 0.00879 0.0
C2530 C 0.35471 0.34375 0.0112 0.0
C2531 C 0.37412 0.3481 0.01869 0.0
C2532 C 0.38261 0.36511 0.02738 0.0
C2533 C 0.40072 0.36895 0.03452 0.0
C2534 C 0.41054 0.35595 0.03303 0.0
C2535 C 0.40232 0.3391 0.02437 0.0
C2536 C 0.38422 0.33519 0.01721 0.0
C2537 C 0.32965 0.33614 0.95685 0.0
C2538 C 0.329 0.3162 0.95414 0.0
C2539 C 0.33462 0.34474 0.96867 0.0
C2540 C 0.33902 0.3335 0.97787 0.0
C2541 C 0.34068 0.31494 0.97478 0.0
C2542 C 0.33561 0.30631 0.96306 0.0
C2543 C 0.33833 0.3385 0.99093 0.0
C2544 C 0.35603 0.34232 0.9985 0.0
C2545 C 0.31912 0.33692 0.99616 0.0
C2546 C 0.29947 0.33205 0.98879 0.0
C2547 C 0.28784 0.312 0.98245 0.0
C2548 C 0.26958 0.30774 0.97533 0.0
C2549 C 0.26266 0.32331 0.97461 0.0
C2550 C 0.27393 0.34313 0.98105 0.0
C2551 C 0.29225 0.34749 0.98815 0.0
H2552 H 0.24853 0.31999 0.96909 0.0
H2553 H 0.42454 0.35894 0.03857 0.0
H2554 H 0.72276 0.00802 0.95274 0.0
H2555 H 0.71136 0.00592 0.97384 0.0
H2556 H 0.74365 0.07708 0.97533 0.0
H2557 H 0.75636 0.07903 0.95443 0.0
H2558 H 0.75823 0.06561 0.99238 0.0
H2559 H 0.68456 0.0398 0.98042 0.0
H2560 H 0.64964 0.01787 0.9693 0.0
H2561 H 0.64187 0.95839 0.98526 0.0
H2562 H 0.67691 0.9799 0.99634 0.0
H2563 H 0.74124 0.052 0.05592 0.0
H2564 H 0.73146 0.05914 0.03565 0.0
H2565 H 0.72014 0.99571 0.02348 0.0
H2566 H 0.73021 0.98871 0.04355 0.0
H2567 H 0.69038 0.00894 0.01298 0.0
H2568 H 0.76941 0.03678 0.02039 0.0
H2569 H 0.80389 0.05959 0.03177 0.0
H2570 H 0.79949 0.11753 0.0243 0.0
H2571 H 0.76479 0.09497 0.01301 0.0
C2572 C 0.72655 0.02313 0.95743 0.0
C2573 C 0.74019 0.04367 0.95197 0.0
C2574 C 0.72001 0.02197 0.96954 0.0
C2575 C 0.72653 0.04136 0.97631 0.0
C2576 C 0.73847 0.06186 0.97041 0.0
C2577 C 0.74553 0.06301 0.95841 0.0
C2578 C 0.72417 0.04032 0.98982 0.0
C2579 C 0.74307 0.05366 0.99682 0.0
C2580 C 0.7046 0.02459 0.99581 0.0
C2581 C 0.68347 0.0115 0.98918 0.0
C2582 C 0.6755 0.02203 0.9815 0.0
C2583 C 0.65566 0.00967 0.97521 0.0
C2584 C 0.64356 0.98675 0.97656 0.0
C2585 C 0.65126 0.97615 0.98422 0.0
C2586 C 0.67109 0.98843 0.99053 0.0
C2587 C 0.73598 0.03933 0.04902 0.0
C2588 C 0.73666 0.0199 0.05124 0.0
C2589 C 0.73044 0.04343 0.03745 0.0
C2590 C 0.72521 0.02799 0.02805 0.0
C2591 C 0.72404 0.0078 0.0306 0.0
C2592 C 0.72992 0.00388 0.04205 0.0
C2593 C 0.7244 0.03393 0.01521 0.0
C2594 C 0.7051 0.02139 0.00841 0.0
C2595 C 0.74343 0.05062 0.00937 0.0
C2596 C 0.76442 0.06418 0.01599 0.0
C2597 C 0.77573 0.05436 0.02125 0.0
C2598 C 0.79531 0.06724 0.02767 0.0
C2599 C 0.80384 0.08998 0.02879 0.0
C2600 C 0.79284 0.09991 0.02345 0.0
C2601 C 0.77323 0.08709 0.01704 0.0
H2602 H 0.819 0.09993 0.03375 0.0
H2603 H 0.6282 0.97722 0.97169 0.0
H2604 H 0.71463 0.67438 0.28166 0.0
H2605 H 0.72093 0.68887 0.30244 0.0
H2606 H 0.65413 0.64045 0.31194 0.0
H2607 H 0.64789 0.6257 0.2913 0.0
H2608 H 0.67306 0.68301 0.3255 0.0
H2609 H 0.68723 0.62331 0.31431 0.0
H2610 H 0.70459 0.60771 0.30118 0.0
H2611 H 0.76867 0.66219 0.30979 0.0
H2612 H 0.75159 0.67832 0.3228 0.0
H2613 H 0.67179 0.64355 0.38534 0.0
H2614 H 0.66829 0.65326 0.36441 0.0
H2615 H 0.739 0.68491 0.36007 0.0
H2616 H 0.74221 0.67405 0.38072 0.0
H2617 H 0.72163 0.65751 0.34326 0.0
H2618 H 0.70812 0.71334 0.3582 0.0
H2619 H 0.69113 0.72996 0.37081 0.0
H2620 H 0.62766 0.6856 0.35545 0.0
H2621 H 0.64421 0.66849 0.34287 0.0
C2622 C 0.701 0.66752 0.28803 0.0
C2623 C 0.68085 0.6488 0.28494 0.0
C2624 C 0.70463 0.67578 0.2999 0.0
C2625 C 0.68805 0.66557 0.30874 0.0
C2626 C 0.6671 0.64861 0.30526 0.0
C2627 C 0.66359 0.64013 0.29347 0.0
C2628 C 0.69368 0.66897 0.32184 0.0
C2629 C 0.68372 0.67755 0.32946 0.0
C2630 C 0.70784 0.66213 0.32691 0.0
C2631 C 0.71814 0.65214 0.31939 0.0
C2632 C 0.70501 0.63202 0.31333 0.0
C2633 C 0.71479 0.62309 0.30592 0.0
C2634 C 0.73772 0.63399 0.30462 0.0
C2635 C 0.75091 0.6538 0.31078 0.0
C2636 C 0.74119 0.66284 0.31817 0.0
C2637 C 0.68659 0.65326 0.38002 0.0
C2638 C 0.70726 0.65816 0.38458 0.0
C2639 C 0.68462 0.65887 0.36804 0.0
C2640 C 0.70339 0.66988 0.36057 0.0
C2641 C 0.72424 0.67631 0.36556 0.0
C2642 C 0.72612 0.67026 0.37739 0.0
C2643 C 0.70112 0.67174 0.34721 0.0
C2644 C 0.71148 0.66372 0.33945 0.0
C2645 C 0.68748 0.67931 0.34209 0.0
C2646 C 0.67741 0.68952 0.34965 0.0
C2647 C 0.69051 0.70701 0.35758 0.0
C2648 C 0.68096 0.71654 0.36471 0.0
C2649 C 0.65832 0.70881 0.36395 0.0
C2650 C 0.64519 0.69156 0.35603 0.0
C2651 C 0.65466 0.68196 0.34888 0.0
H2652 H 0.65096 0.71622 0.36948 0.0
H2653 H 0.74527 0.62706 0.29886 0.0
H2654 H 0.39919 0.04942 0.39015 0.0
H2655 H 0.39064 0.03441 0.36947 0.0
H2656 H 0.37656 0.08553 0.35903 0.0
H2657 H 0.3852 0.1006 0.37957 0.0
H2658 H 0.35101 0.04513 0.34593 0.0
H2659 H 0.42745 0.0971 0.35748 0.0
H2660 H 0.46014 0.10856 0.37047 0.0
H2661 H 0.46102 0.04942 0.36109 0.0
H2662 H 0.42807 0.03744 0.34821 0.0
H2663 H 0.39154 0.0839 0.28672 0.0
H2664 H 0.37811 0.07422 0.30757 0.0
H2665 H 0.41035 0.03548 0.31068 0.0
H2666 H 0.42489 0.04643 0.29009 0.0
H2667 H 0.42271 0.06134 0.32813 0.0
H2668 H 0.35091 0.01314 0.31273 0.0
H2669 H 0.31779 0.00122 0.30007 0.0
H2670 H 0.30702 0.05084 0.31632 0.0
H2671 H 0.34025 0.06329 0.32896 0.0
C2672 C 0.39331 0.05682 0.38358 0.0
C2673 C 0.39307 0.07629 0.3864 0.0
C2674 C 0.38852 0.0483 0.37176 0.0
C2675 C 0.38328 0.05907 0.36267 0.0
C2676 C 0.38056 0.07696 0.36588 0.0
C2677 C 0.38558 0.08561 0.37762 0.0
C2678 C 0.38483 0.05474 0.34961 0.0
C2679 C 0.3666 0.04852 0.34197 0.0
C2680 C 0.40508 0.05881 0.34452 0.0
C2681 C 0.42518 0.06626 0.35201 0.0
C2682 C 0.43455 0.08649 0.35825 0.0
C2683 C 0.45311 0.09308 0.36559 0.0
C2684 C 0.46261 0.07969 0.36664 0.0
C2685 C 0.45361 0.05974 0.3603 0.0
C2686 C 0.43499 0.05304 0.35298 0.0
C2687 C 0.39501 0.07265 0.29174 0.0
C2688 C 0.40904 0.06572 0.28683 0.0
C2689 C 0.38731 0.06706 0.30368 0.0
C2690 C 0.39307 0.05397 0.3108 0.0
C2691 C 0.4057 0.04566 0.30547 0.0
C2692 C 0.41386 0.05173 0.29367 0.0
C2693 C 0.38882 0.05172 0.32417 0.0
C2694 C 0.40677 0.05709 0.33194 0.0
C2695 C 0.36823 0.04668 0.32932 0.0
C2696 C 0.34818 0.03923 0.32175 0.0
C2697 C 0.34157 0.02162 0.31355 0.0
C2698 C 0.32275 0.01475 0.30639 0.0
C2699 C 0.31033 0.02529 0.30738 0.0
C2700 C 0.31666 0.04269 0.31556 0.0
C2701 C 0.33547 0.04964 0.32274 0.0
H2702 H 0.29577 0.01994 0.30182 0.0
H2703 H 0.47697 0.08481 0.37234 0.0
H2704 H 0.94466 0.32534 0.37599 0.0
H2705 H 0.96104 0.32896 0.35612 0.0
H2706 H 0.02227 0.38374 0.36895 0.0
H2707 H 0.00561 0.38031 0.3891 0.0
H2708 H 0.00906 0.39409 0.34845 0.0
H2709 H 0.02055 0.3357 0.35975 0.0
H2710 H 0.01196 0.30011 0.36889 0.0
H2711 H 0.95892 0.26576 0.34354 0.0
H2712 H 0.96694 0.30112 0.33435 0.0
H2713 H 0.01941 0.3968 0.2841 0.0
H2714 H 0.03089 0.39416 0.3049 0.0
H2715 H 0.9682 0.33484 0.3106 0.0
H2716 H 0.9573 0.33715 0.28989 0.0
H2717 H 0.99824 0.33137 0.32264 0.0
H2718 H 0.98023 0.39109 0.31711 0.0
H2719 H 0.98733 0.427 0.30902 0.0
H2720 H 0.0526 0.45861 0.32419 0.0
H2721 H 0.04595 0.42285 0.33224 0.0
C2722 C 0.96175 0.33794 0.3747 0.0
C2723 C 0.97378 0.35265 0.38411 0.0
C2724 C 0.97121 0.33986 0.36332 0.0
C2725 C 0.99301 0.35646 0.36102 0.0
C2726 C 0.00546 0.37069 0.37053 0.0
C2727 C 0.99597 0.36867 0.38204 0.0
C2728 C 0.00133 0.36017 0.34831 0.0
C2729 C 0.00738 0.38056 0.34286 0.0
C2730 C -0.00083 0.34257 0.34097 0.0
C2731 C 0.99439 0.32114 0.34635 0.0
C2732 C 0.00699 0.32057 0.35615 0.0
C2733 C 0.00222 0.30042 0.36134 0.0
C2734 C 0.98491 0.28069 0.3568 0.0
C2735 C 0.97236 0.28105 0.34703 0.0
C2736 C 0.97705 0.30116 0.34181 0.0
C2737 C 0.00857 0.38281 0.28971 0.0
C2738 C 0.98762 0.36702 0.28546 0.0
C2739 C 0.01498 0.38142 0.30162 0.0
C2740 C 0.00027 0.3645 0.30944 0.0
C2741 C 0.97993 0.34802 0.3048 0.0
C2742 C 0.97368 0.3493 0.29296 0.0
C2743 C 0.00438 0.36475 0.32274 0.0
C2744 C 0.00076 0.34513 0.32829 0.0
C2745 C 0.00869 0.38302 0.33018 0.0
C2746 C 0.01271 0.40432 0.32513 0.0
C2747 C 0.99615 0.40569 0.31863 0.0
C2748 C 8e-05 0.426 0.31406 0.0
C2749 C 0.02042 0.44506 0.31608 0.0
C2750 C 0.03688 0.44383 0.32262 0.0
C2751 C 0.03305 0.42356 0.32717 0.0
H2752 H 0.02341 0.4608 0.31264 0.0
H2753 H 0.98123 0.26511 0.36084 0.0
H2754 H 0.73759 0.08061 0.38299 0.0
H2755 H 0.73403 0.06541 0.36249 0.0
H2756 H 0.6661 0.05008 0.36134 0.0
H2757 H 0.66935 0.06375 0.38205 0.0
H2758 H 0.66897 0.02225 0.34782 0.0
H2759 H 0.71403 0.10267 0.35178 0.0
H2760 H 0.7461 0.13743 0.35882 0.0
H2761 H 0.79005 0.11887 0.3423 0.0
H2762 H 0.75821 0.0839 0.33527 0.0
H2763 H 0.64941 0.06061 0.29339 0.0
H2764 H 0.65562 0.0499 0.31336 0.0
H2765 H 0.71617 0.0546 0.30067 0.0
H2766 H 0.70998 0.06549 0.28048 0.0
H2767 H 0.72263 0.08027 0.32021 0.0
H2768 H 0.67417 0.00495 0.31091 0.0
H2769 H 0.64057 0.97281 0.3029 0.0
H2770 H 0.60107 0.98369 0.32875 0.0
H2771 H 0.63437 0.01608 0.33681 0.0
C2772 C 0.72169 0.07303 0.37851 0.0
C2773 C 0.70366 0.07307 0.38405 0.0
C2774 C 0.71971 0.06464 0.36674 0.0
C2775 C 0.69998 0.05721 0.36015 0.0
C2776 C 0.68152 0.05572 0.36614 0.0
C2777 C 0.68334 0.0635 0.378 0.0
C2778 C 0.69902 0.05364 0.34676 0.0
C2779 C 0.68074 0.03491 0.34178 0.0
C2780 C 0.71471 0.06977 0.33876 0.0
C2781 C 0.7338 0.0906 0.34314 0.0
C2782 C 0.73054 0.10596 0.34973 0.0
C2783 C 0.74867 0.12569 0.3537 0.0
C2784 C 0.77009 0.13033 0.35102 0.0
C2785 C 0.77345 0.11523 0.34438 0.0
C2786 C 0.75538 0.09546 0.34041 0.0
C2787 C 0.66375 0.05878 0.29473 0.0
C2788 C 0.6793 0.06405 0.2854 0.0
C2789 C 0.66721 0.05247 0.30616 0.0
C2790 C 0.68632 0.05132 0.30854 0.0
C2791 C 0.70125 0.05526 0.29902 0.0
C2792 C 0.69766 0.06139 0.28748 0.0
C2793 C 0.69202 0.04945 0.32132 0.0
C2794 C 0.71122 0.0672 0.32619 0.0
C2795 C 0.67694 0.03266 0.32918 0.0
C2796 C 0.65682 0.01301 0.32446 0.0
C2797 C 0.65831 0.00057 0.31485 0.0
C2798 C 0.63931 0.98229 0.3103 0.0
C2799 C 0.6187 0.97621 0.31531 0.0
C2800 C 0.61705 0.98839 0.32489 0.0
C2801 C 0.636 0.00669 0.32947 0.0
H2802 H 0.60401 0.96207 0.31177 0.0
H2803 H 0.7841 0.14568 0.35401 0.0
H2804 H 0.98049 0.68828 0.38513 0.0
H2805 H 0.99467 0.69862 0.36437 0.0
H2806 H 0.00905 0.64536 0.36366 0.0
H2807 H 0.996 0.63591 0.38457 0.0
H2808 H 0.03688 0.67676 0.34929 0.0
H2809 H 0.95715 0.63876 0.35518 0.0
H2810 H 0.92285 0.63515 0.36367 0.0
H2811 H 0.9367 0.69588 0.3465 0.0
H2812 H 0.97124 0.69995 0.33803 0.0
H2813 H 0.99764 0.61799 0.29493 0.0
H2814 H 0.00861 0.63485 0.31493 0.0
H2815 H 0.00049 0.68912 0.30301 0.0
H2816 H 0.98941 0.67214 0.28281 0.0
H2817 H 0.97589 0.66877 0.32287 0.0
H2818 H 0.05121 0.69896 0.31222 0.0
H2819 H 0.08388 0.69931 0.30358 0.0
H2820 H 0.07696 0.65005 0.32925 0.0
H2821 H 0.04406 0.64915 0.33794 0.0
C2822 C 0.98771 0.67955 0.3807 0.0
C2823 C 0.98745 0.6615 0.38641 0.0
C2824 C 0.99555 0.68526 0.3688 0.0
C2825 C 0.00238 0.67239 0.36229 0.0
C2826 C 0.00386 0.65555 0.36842 0.0
C2827 C 0.99646 0.65016 0.38039 0.0
C2828 C 0.00486 0.67407 0.34883 0.0
C2829 C 0.0236 0.6751 0.3435 0.0
C2830 C 0.98777 0.67242 0.3412 0.0
C2831 C 0.96686 0.66979 0.34611 0.0
C2832 C 0.9529 0.65138 0.35326 0.0
C2833 C 0.93344 0.64925 0.35807 0.0
C2834 C 0.92764 0.66532 0.35566 0.0
C2835 C 0.94125 0.68348 0.34838 0.0
C2836 C 0.96076 0.68571 0.34358 0.0
C2837 C -0.00118 0.63385 0.29645 0.0
C2838 C 0.99256 0.64369 0.28733 0.0
C2839 C 0.00524 0.64357 0.30788 0.0
C2840 C 0.00547 0.66332 0.31049 0.0
C2841 C 0.00053 0.67392 0.30118 0.0
C2842 C 0.99433 0.66429 0.28963 0.0
C2843 C 0.0076 0.67073 0.32333 0.0
C2844 C 0.98958 0.67124 0.32858 0.0
C2845 C 0.02518 0.67339 0.33085 0.0
C2846 C 0.04509 0.67396 0.32572 0.0
C2847 C 0.05657 0.68811 0.31599 0.0
C2848 C 0.07515 0.68841 0.31108 0.0
C2849 C 0.08248 0.6747 0.31586 0.0
C2850 C 0.07127 0.66068 0.32556 0.0
C2851 C 0.05268 0.6603 0.3305 0.0
H2852 H 0.09686 0.67495 0.31204 0.0
H2853 H 0.91258 0.66366 0.3594 0.0
H2854 H 0.37995 0.34019 0.38955 0.0
H2855 H 0.36736 0.34352 0.36913 0.0
H2856 H 0.43417 0.3923 0.35974 0.0
H2857 H 0.44663 0.38876 0.37986 0.0
H2858 H 0.40275 0.4019 0.35002 0.0
H2859 H 0.41457 0.33766 0.35452 0.0
H2860 H 0.40452 0.3015 0.36348 0.0
H2861 H 0.3378 0.27512 0.35108 0.0
H2862 H 0.34745 0.31124 0.34218 0.0
H2863 H 0.44855 0.4041 0.29521 0.0
H2864 H 0.43395 0.4016 0.31539 0.0
H2865 H 0.37144 0.34656 0.30423 0.0
H2866 H 0.38648 0.34864 0.28374 0.0
H2867 H 0.38396 0.33656 0.32434 0.0
H2868 H 0.37558 0.39665 0.31377 0.0
H2869 H 0.38421 0.4322 0.30457 0.0
H2870 H 0.44034 0.46617 0.32805 0.0
H2871 H 0.4323 0.43083 0.33727 0.0
C2872 C 0.39171 0.35207 0.3832 0.0
C2873 C 0.41421 0.36429 0.38621 0.0
C2874 C 0.38457 0.35389 0.37155 0.0
C2875 C 0.39986 0.3681 0.36289 0.0
C2876 C 0.42205 0.38133 0.36626 0.0
C2877 C 0.42918 0.37928 0.37775 0.0
C2878 C 0.39395 0.36773 0.3499 0.0
C2879 C 0.39841 0.3876 0.34436 0.0
C2880 C 0.38724 0.34879 0.34258 0.0
C2881 C 0.38164 0.32715 0.34784 0.0
C2882 C 0.39774 0.32416 0.35378 0.0
C2883 C 0.39212 0.30368 0.35884 0.0
C2884 C 0.3705 0.28604 0.35789 0.0
C2885 C 0.35451 0.28882 0.35184 0.0
C2886 C 0.36004 0.30928 0.34679 0.0
C2887 C 0.43155 0.39163 0.29692 0.0
C2888 C 0.41875 0.37642 0.28786 0.0
C2889 C 0.42308 0.39039 0.3085 0.0
C2890 C 0.40142 0.3741 0.31138 0.0
C2891 C 0.38816 0.35939 0.30222 0.0
C2892 C 0.39671 0.36065 0.2905 0.0
C2893 C 0.39421 0.37122 0.32432 0.0
C2894 C 0.38734 0.35073 0.32989 0.0
C2895 C 0.39834 0.38955 0.33166 0.0
C2896 C 0.40328 0.411 0.32623 0.0
C2897 C 0.38983 0.41168 0.31694 0.0
C2898 C 0.39462 0.43181 0.31172 0.0
C2899 C 0.4128 0.45143 0.31573 0.0
C2900 C 0.42622 0.45096 0.32497 0.0
C2901 C 0.42152 0.43088 0.33023 0.0
H2902 H 0.41649 0.467 0.31167 0.0
H2903 H 0.36611 0.27019 0.36181 0.0
H2904 H 0.39337 0.96722 0.70858 0.0
H2905 H 0.39074 0.98058 0.68887 0.0
H2906 H 0.35929 0.01432 0.70465 0.0
H2907 H 0.36095 -0.00012 0.72475 0.0
H2908 H 0.3381 0.995 0.68557 0.0
H2909 H 0.41286 0.04384 0.6912 0.0
H2910 H 0.45141 0.05769 0.69744 0.0
H2911 H 0.45743 0.01559 0.67124 0.0
H2912 H 0.41883 0.00122 0.66494 0.0
H2913 H 0.37656 0.00879 0.61594 0.0
H2914 H 0.38239 0.02514 0.63633 0.0
H2915 H 0.33 0.96325 0.65017 0.0
H2916 H 0.3236 0.94745 0.63007 0.0
H2917 H 0.39705 0.01564 0.65483 0.0
H2918 H 0.30669 0.96494 0.67463 0.0
H2919 H 0.26921 0.95579 0.66845 0.0
H2920 H 0.29627 0.01099 0.64401 0.0
H2921 H 0.33393 0.02071 0.65017 0.0
C2922 C 0.38605 0.97767 0.70802 0.0
C2923 C 0.37725 0.98232 0.71835 0.0
C2924 C 0.38483 0.9856 0.69664 0.0
C2925 C 0.37528 0.99896 0.69519 0.0
C2926 C 0.36692 0.0042 0.70551 0.0
C2927 C 0.36792 0.99598 0.71701 0.0
C2928 C 0.37233 0.00521 0.68267 0.0
C2929 C 0.35107 -0.00013 0.67887 0.0
C2930 C 0.38949 0.01281 0.67393 0.0
C2931 C 0.41288 0.02148 0.67757 0.0
C2932 C 0.42236 0.03747 0.68678 0.0
C2933 C 0.44424 0.04541 0.69034 0.0
C2934 C 0.45687 0.03757 0.68472 0.0
C2935 C 0.44764 0.02172 0.67554 0.0
C2936 C 0.42577 0.01371 0.67195 0.0
C2937 C 0.36584 0.999 0.62329 0.0
C2938 C 0.34976 0.97676 0.62139 0.0
C2939 C 0.36926 0.00829 0.63496 0.0
C2940 C 0.35654 0.99556 0.64487 0.0
C2941 C 0.33973 0.97376 0.64274 0.0
C2942 C 0.33626 0.96458 0.63118 0.0
C2943 C 0.36237 0.00342 0.65767 0.0
C2944 C 0.38421 0.01151 0.66153 0.0
C2945 C 0.34593 -0.00078 0.66647 0.0
C2946 C 0.32321 0.99357 0.66288 0.0
C2947 C 0.30469 0.97528 0.66803 0.0
C2948 C 0.28339 0.96995 0.6645 0.0
C2949 C 0.28036 0.98279 0.65584 0.0
C2950 C 0.29864 0.00103 0.6507 0.0
C2951 C 0.31997 0.00644 0.6542 0.0
H2952 H 0.26386 0.97862 0.65312 0.0
H2953 H 0.47381 0.04376 0.68748 0.0
H2954 H 0.04283 0.42493 0.71396 0.0
H2955 H 0.03207 0.41112 0.69325 0.0
H2956 H 0.06769 0.37568 0.69654 0.0
H2957 H 0.07717 0.38842 0.7175 0.0
H2958 H 0.05962 0.42386 0.67659 0.0
H2959 H 0.05649 0.33876 0.67449 0.0
H2960 H 0.04087 0.30422 0.68627 0.0
H2961 H 0.99218 0.31744 0.70153 0.0
H2962 H 0.00727 0.3519 0.68972 0.0
H2963 H 0.102 0.38995 0.62541 0.0
H2964 H 0.08551 0.38021 0.64563 0.0
H2965 H 0.03482 0.39431 0.63436 0.0
H2966 H 0.05107 0.40369 0.61396 0.0
H2967 H 0.04193 0.35279 0.65732 0.0
H2968 H 0.03876 0.43222 0.65578 0.0
H2969 H 0.05381 0.46667 0.64387 0.0
H2970 H 0.11262 0.46378 0.63659 0.0
H2971 H 0.09806 0.42957 0.64861 0.0
C2972 C 0.04741 0.41332 0.71041 0.0
C2973 C 0.06063 0.40754 0.71729 0.0
C2974 C 0.04143 0.40557 0.69854 0.0
C2975 C 0.04911 0.3924 0.69321 0.0
C2976 C 0.06109 0.3854 0.70043 0.0
C2977 C 0.06656 0.3927 0.71243 0.0
C2978 C 0.04792 0.38926 0.67977 0.0
C2979 C 0.05502 0.40807 0.67244 0.0
C2980 C 0.04245 0.36886 0.6742 0.0
C2981 C 0.03314 0.34803 0.68126 0.0
C2982 C 0.04237 0.33425 0.6803 0.0
C2983 C 0.03363 0.31469 0.68701 0.0
C2984 C 0.01558 0.30866 0.69467 0.0
C2985 C 0.00621 0.32216 0.69562 0.0
C2986 C 0.01488 0.34173 0.68894 0.0
C2987 C 0.08686 0.39018 0.62712 0.0
C2988 C 0.07789 0.39775 0.61818 0.0
C2989 C 0.07739 0.38448 0.63865 0.0
C2990 C 0.05907 0.3867 0.64151 0.0
C2991 C 0.04894 0.39243 0.6323 0.0
C2992 C 0.05821 0.39777 0.62066 0.0
C2993 C 0.05358 0.38729 0.65445 0.0
C2994 C 0.04563 0.36822 0.6616 0.0
C2995 C 0.05802 0.40736 0.65993 0.0
C2996 C 0.06719 0.42822 0.65294 0.0
C2997 C 0.05493 0.43901 0.65166 0.0
C2998 C 0.06337 0.45848 0.6449 0.0
C2999 C 0.08412 0.46736 0.63943 0.0
C3000 C 0.09652 0.45685 0.64078 0.0
C3001 C 0.08818 0.43742 0.64756 0.0
H3002 H 0.0906 0.4824 0.63417 0.0
H3003 H 0.00885 0.29352 0.69985 0.0
H3004 H 0.66731 0.69739 0.72455 0.0
H3005 H 0.68244 0.70047 0.704 0.0
H3006 H 0.61672 0.67183 0.68912 0.0
H3007 H 0.60169 0.66789 0.7092 0.0
H3008 H 0.63643 0.65641 0.67717 0.0
H3009 H 0.65544 0.73026 0.69072 0.0
H3010 H 0.67385 0.76286 0.70409 0.0
H3011 H 0.73679 0.76926 0.69585 0.0
H3012 H 0.71868 0.73654 0.68252 0.0
H3013 H 0.65317 0.73624 0.62731 0.0
H3014 H 0.66145 0.73094 0.64795 0.0
H3015 H 0.6709 0.67735 0.6362 0.0
H3016 H 0.66148 0.68204 0.61532 0.0
H3017 H 0.69011 0.73095 0.66185 0.0
H3018 H 0.64954 0.63701 0.65751 0.0
H3019 H 0.62383 0.60656 0.64416 0.0
H3020 H 0.59275 0.64379 0.63391 0.0
H3021 H 0.61813 0.67432 0.64729 0.0
C3022 C 0.65613 0.69151 0.71688 0.0
C3023 C 0.63328 0.68256 0.71861 0.0
C3024 C 0.6648 0.69335 0.70513 0.0
C3025 C 0.65077 0.68652 0.69492 0.0
C3026 C 0.62799 0.67707 0.69676 0.0
C3027 C 0.61939 0.675 0.70836 0.0
C3028 C 0.65916 0.69013 0.68218 0.0
C3029 C 0.64851 0.67265 0.67387 0.0
C3030 C 0.67484 0.71127 0.67775 0.0
C3031 C 0.68571 0.73082 0.68578 0.0
C3032 C 0.67319 0.73854 0.69184 0.0
C3033 C 0.68356 0.75705 0.69939 0.0
C3034 C 0.70647 0.76807 0.70085 0.0
C3035 C 0.71905 0.76066 0.69474 0.0
C3036 C 0.70874 0.74214 0.68719 0.0
C3037 C 0.65736 0.72352 0.62903 0.0
C3038 C 0.65611 0.70919 0.61971 0.0
C3039 C 0.66233 0.72063 0.64089 0.0
C3040 C 0.66634 0.70341 0.64377 0.0
C3041 C 0.66739 0.69048 0.63426 0.0
C3042 C 0.66218 0.69326 0.62231 0.0
C3043 C 0.66623 0.69757 0.65682 0.0
C3044 C 0.67866 0.71452 0.66519 0.0
C3045 C 0.65119 0.67624 0.6613 0.0
C3046 C 0.63593 0.65802 0.65323 0.0
C3047 C 0.63722 0.63866 0.65239 0.0
C3048 C 0.62271 0.6214 0.64483 0.0
C3049 C 0.60674 0.62329 0.63815 0.0
C3050 C 0.60518 0.64239 0.63905 0.0
C3051 C 0.61963 0.65967 0.64661 0.0
H3052 H 0.59553 0.60992 0.6323 0.0
H3053 H 0.71447 0.7824 0.7067 0.0
H3054 H 0.40482 0.43961 0.7113 0.0
H3055 H 0.39847 0.42418 0.69102 0.0
H3056 H 0.33957 0.36608 0.70344 0.0
H3057 H 0.34555 0.38202 0.72391 0.0
H3058 H 0.39281 0.39112 0.67767 0.0
H3059 H 0.29993 0.35302 0.68222 0.0
H3060 H 0.27213 0.35363 0.6958 0.0
H3061 H 0.31805 0.4208 0.70549 0.0
H3062 H 0.34597 0.42061 0.69186 0.0
H3063 H 0.35712 0.38511 0.61478 0.0
H3064 H 0.35906 0.3721 0.63531 0.0
H3065 H 0.34804 0.42244 0.65081 0.0
H3066 H 0.34569 0.43499 0.63079 0.0
H3067 H 0.32367 0.38559 0.66222 0.0
H3068 H 0.40064 0.42723 0.64824 0.0
H3069 H 0.43135 0.43342 0.63472 0.0
H3070 H 0.42149 0.36938 0.64378 0.0
H3071 H 0.39056 0.36276 0.65726 0.0
C3072 C 0.39077 0.42329 0.70982 0.0
C3073 C 0.37537 0.41229 0.71913 0.0
C3074 C 0.38724 0.41436 0.69819 0.0
C3075 C 0.36825 0.39417 0.69557 0.0
C3076 C 0.35415 0.38189 0.70518 0.0
C3077 C 0.35763 0.39095 0.7169 0.0
C3078 C 0.36177 0.3885 0.68261 0.0
C3079 C 0.37745 0.38938 0.67429 0.0
C3080 C 0.34179 0.38629 0.67811 0.0
C3081 C 0.32506 0.38667 0.68618 0.0
C3082 C 0.30403 0.3679 0.68724 0.0
C3083 C 0.28827 0.36818 0.69494 0.0
C3084 C 0.29335 0.38721 0.70154 0.0
C3085 C 0.31415 0.40605 0.7004 0.0
C3086 C 0.32994 0.40587 0.69269 0.0
C3087 C 0.35507 0.39329 0.6226 0.0
C3088 C 0.35112 0.41102 0.62107 0.0
C3089 C 0.35616 0.38585 0.63432 0.0
C3090 C 0.35352 0.39618 0.64464 0.0
C3091 C 0.34976 0.4139 0.64304 0.0
C3092 C 0.34852 0.42115 0.63149 0.0
C3093 C 0.3553 0.38966 0.65729 0.0
C3094 C 0.33859 0.38627 0.66555 0.0
C3095 C 0.37466 0.39041 0.66171 0.0
C3096 C 0.39315 0.39438 0.6536 0.0
C3097 C 0.40494 0.41442 0.64726 0.0
C3098 C 0.42239 0.41802 0.63963 0.0
C3099 C 0.42831 0.40177 0.63836 0.0
C3100 C 0.41684 0.38192 0.64475 0.0
C3101 C 0.39935 0.37823 0.65238 0.0
H3102 H 0.44183 0.40459 0.63245 0.0
H3103 H 0.28115 0.38737 0.70752 0.0
H3104 H 0.60932 0.97802 0.70766 0.0
H3105 H 0.62419 0.98864 0.68748 0.0
H3106 H 0.68985 0.01122 0.70122 0.0
H3107 H 0.67463 -0.00066 0.72174 0.0
H3108 H 0.6496 0.02142 0.67491 0.0
H3109 H 0.71901 0.00156 0.67957 0.0
H3110 H 0.73081 0.98075 0.69274 0.0
H3111 H 0.66319 0.93505 0.70164 0.0
H3112 H 0.65104 0.95547 0.68844 0.0
H3113 H 0.66423 0.00561 0.61233 0.0
H3114 H 0.6767 0.02183 0.63262 0.0
H3115 H 0.65382 0.95672 0.64735 0.0
H3116 H 0.6427 0.9409 0.6274 0.0
H3117 H 0.6872 0.98232 0.65928 0.0
H3118 H 0.6213 0.98483 0.64617 0.0
H3119 H 0.60123 0.99741 0.63295 0.0
H3120 H 0.64882 0.06491 0.64096 0.0
H3121 H 0.66923 0.05268 0.65415 0.0
C3122 C 0.62699 0.98537 0.70652 0.0
C3123 C 0.64069 0.98729 0.71635 0.0
C3124 C 0.63556 0.99172 0.69488 0.0
C3125 C 0.65816 0.00046 0.69267 0.0
C3126 C 0.67227 0.00411 0.70261 0.0
C3127 C 0.66358 0.99743 0.71436 0.0
C3128 C 0.66579 0.00317 0.6798 0.0
C3129 C 0.65819 0.0132 0.67152 0.0
C3130 C 0.67706 0.99257 0.67525 0.0
C3131 C 0.68419 0.98023 0.6832 0.0
C3132 C 0.7067 0.98708 0.68436 0.0
C3133 C 0.71344 0.97535 0.69181 0.0
C3134 C 0.69776 0.95665 0.69807 0.0
C3135 C 0.67531 0.94958 0.69684 0.0
C3136 C 0.6685 0.96123 0.68938 0.0
C3137 C 0.6624 0.99491 0.61987 0.0
C3138 C 0.65207 0.9719 0.61824 0.0
C3139 C 0.66939 0.00416 0.6315 0.0
C3140 C 0.66586 0.9905 0.64164 0.0
C3141 C 0.65684 0.96776 0.63978 0.0
C3142 C 0.65021 0.95865 0.62828 0.0
C3143 C 0.66921 0.99879 0.6544 0.0
C3144 C 0.67932 0.99126 0.66267 0.0
C3145 C 0.65907 0.01052 0.65893 0.0
C3146 C 0.64692 0.01788 0.65098 0.0
C3147 C 0.62752 0.00235 0.64504 0.0
C3148 C 0.61609 0.00941 0.63757 0.0
C3149 C 0.6238 0.03195 0.63608 0.0
C3150 C 0.64291 0.04747 0.64209 0.0
C3151 C 0.65442 0.04049 0.64956 0.0
H3152 H 0.61492 0.03738 0.6303 0.0
H3153 H 0.70301 0.94761 0.70384 0.0
H3154 H 0.06122 0.70841 0.72294 0.0
H3155 H 0.05096 0.7145 0.70256 0.0
H3156 H 0.05392 0.65791 0.68938 0.0
H3157 H 0.06329 0.65146 0.70953 0.0
H3158 H 0.07623 0.72662 0.68439 0.0
H3159 H 0.02793 0.63614 0.6646 0.0
H3160 H 0.99663 0.60015 0.67068 0.0
H3161 H 0.97352 0.6325 0.69476 0.0
H3162 H 0.00447 0.66873 0.6887 0.0
H3163 H 0.11864 0.71611 0.63144 0.0
H3164 H 0.10225 0.71335 0.65106 0.0
H3165 H 0.03955 0.6942 0.63423 0.0
H3166 H 0.05598 0.69638 0.61411 0.0
H3167 H 0.03361 0.66924 0.65351 0.0
H3168 H 0.06914 0.74562 0.64786 0.0
H3169 H 0.09836 0.78274 0.6417 0.0
H3170 H 0.14192 0.78081 0.6685 0.0
H3171 H 0.11313 0.74354 0.67469 0.0
C3172 C 0.05882 0.69683 0.71577 0.0
C3173 C 0.06331 0.67961 0.71781 0.0
C3174 C 0.05308 0.70038 0.7041 0.0
C3175 C 0.05154 0.68664 0.69435 0.0
C3176 C 0.05446 0.66853 0.69669 0.0
C3177 C 0.06011 0.66499 0.70826 0.0
C3178 C 0.0507 0.69292 0.68149 0.0
C3179 C 0.06657 0.71417 0.67767 0.0
C3180 C 0.03747 0.67706 0.67264 0.0
C3181 C 0.0186 0.65523 0.67618 0.0
C3182 C 0.01608 0.63563 0.6711 0.0
C3183 C 0.99842 0.61516 0.67457 0.0
C3184 C 0.98311 0.61404 0.6831 0.0
C3185 C 0.98541 0.63339 0.68817 0.0
C3186 C 0.00304 0.6539 0.68473 0.0
C3187 C 0.10138 0.71147 0.63175 0.0
C3188 C 0.0887 0.7066 0.62108 0.0
C3189 C 0.09203 0.71007 0.64308 0.0
C3190 C 0.06979 0.70416 0.64418 0.0
C3191 C 0.05685 0.69908 0.6336 0.0
C3192 C 0.06625 0.70033 0.62212 0.0
C3193 C 0.06043 0.70223 0.65656 0.0
C3194 C 0.04266 0.68187 0.66026 0.0
C3195 C 0.07147 0.71912 0.66531 0.0
C3196 C 0.08889 0.74173 0.66176 0.0
C3197 C 0.08497 0.75306 0.65242 0.0
C3198 C 0.10148 0.77414 0.64892 0.0
C3199 C 0.12198 0.78413 0.65471 0.0
C3200 C 0.12601 0.77307 0.66403 0.0
C3201 C 0.10957 0.75198 0.66757 0.0
H3202 H 0.13474 0.80044 0.65198 0.0
H3203 H 0.96946 0.59817 0.68578 0.0
H3204 H 0.79894 0.09295 0.09048 0.0
H3205 H 0.83015 0.13018 0.09411 0.0
H3206 H 0.87508 0.10496 0.09196 0.0
H3207 H 0.84416 0.06789 0.08812 0.0
H3208 H 0.88276 0.13513 0.11202 0.0
H3209 H 0.87089 0.12803 0.06828 0.0
H3210 H 0.84806 0.12062 0.04994 0.0
H3211 H 0.83603 0.17325 0.05941 0.0
H3212 H 0.85863 0.18078 0.07791 0.0
H3213 H 0.98887 0.21368 0.09438 0.0
H3214 H 0.95155 0.18301 0.09713 0.0
H3215 H 0.92594 0.22761 0.09462 0.0
H3216 H 0.96359 0.25871 0.09182 0.0
H3217 H 0.90399 0.19155 0.07966 0.0
H3218 H 0.92271 0.20378 0.12118 0.0
H3219 H 0.94558 0.21117 0.1395 0.0
H3220 H 0.94422 0.14956 0.13485 0.0
H3221 H 0.92162 0.14193 0.11639 0.0
C3222 C 0.81546 0.09533 0.09086 0.0
C3223 C 0.81911 0.07751 0.08895 0.0
C3224 C 0.83323 0.11658 0.09293 0.0
C3225 C 0.85485 0.12024 0.0933 0.0
C3226 C 0.85847 0.10241 0.09174 0.0
C3227 C 0.84081 0.08128 0.08947 0.0
C3228 C 0.87398 0.14277 0.09471 0.0
C3229 C 0.88746 0.14752 0.10498 0.0
C3230 C 0.87957 0.15911 0.0857 0.0
C3231 C 0.86619 0.15477 0.07454 0.0
C3232 C 0.86321 0.13789 0.0665 0.0
C3233 C 0.85035 0.13369 0.05607 0.0
C3234 C 0.8405 0.14639 0.05353 0.0
C3235 C 0.84361 0.16339 0.0614 0.0
C3236 C 0.85646 0.16764 0.07186 0.0
C3237 C 0.97538 0.2171 0.09454 0.0
C3238 C 0.97922 0.23866 0.09282 0.0
C3239 C 0.95402 0.19952 0.0962 0.0
C3240 C 0.93596 0.20303 0.09617 0.0
C3241 C 0.93968 0.22458 0.09472 0.0
C3242 C 0.96118 0.24231 0.09317 0.0
C3243 C 0.91329 0.18375 0.09682 0.0
C3244 C 0.89908 0.17951 0.08691 0.0
C3245 C 0.90697 0.16792 0.10621 0.0
C3246 C 0.92053 0.17234 0.11735 0.0
C3247 C 0.92741 0.19187 0.12401 0.0
C3248 C 0.94031 0.19609 0.13443 0.0
C3249 C 0.94637 0.18085 0.13833 0.0
C3250 C 0.93951 0.16134 0.13182 0.0
C3251 C 0.92662 0.15704 0.12138 0.0
H3252 H 0.95636 0.18415 0.1464 0.0
H3253 H 0.83053 0.1431 0.04545 0.0
H3254 H 0.96127 0.73592 0.09497 0.0
H3255 H 0.92379 0.7297 0.09781 0.0
H3256 H 0.94741 0.79861 0.09078 0.0
H3257 H 0.98465 0.80499 0.08795 0.0
H3258 H 0.91877 0.78288 0.11023 0.0
H3259 H 0.92323 0.76104 0.06868 0.0
H3260 H 0.92894 0.73865 0.05336 0.0
H3261 H 0.87645 0.67941 0.06908 0.0
H3262 H 0.87063 0.70148 0.08459 0.0
H3263 H 0.83958 0.80298 0.08509 0.0
H3264 H 0.87047 0.79716 0.08919 0.0
H3265 H 0.82537 0.72828 0.09636 0.0
H3266 H 0.79404 0.73396 0.09229 0.0
H3267 H 0.86041 0.73582 0.08074 0.0
H3268 H 0.85092 0.75846 0.11958 0.0
H3269 H 0.84473 0.7809 0.1346 0.0
H3270 H 0.90595 0.83794 0.12445 0.0
H3271 H 0.91236 0.81594 0.10921 0.0
C3272 C 0.9585 0.74977 0.09412 0.0
C3273 C 0.97596 0.77093 0.09114 0.0
C3274 C 0.93707 0.74616 0.09573 0.0
C3275 C 0.93283 0.76368 0.09445 0.0
C3276 C 0.95033 0.78487 0.09183 0.0
C3277 C 0.97162 0.78845 0.09014 0.0
C3278 C 0.91015 0.76017 0.0953 0.0
C3279 C 0.90598 0.77257 0.1038 0.0
C3280 C 0.89321 0.74608 0.0872 0.0
C3281 C 0.8967 0.73287 0.07788 0.0
C3282 C 0.91304 0.74323 0.06893 0.0
C3283 C 0.91627 0.7306 0.0602 0.0
C3284 C 0.90312 0.70762 0.06028 0.0
C3285 C 0.88666 0.69721 0.06905 0.0
C3286 C 0.88339 0.70977 0.07781 0.0
C3287 C 0.83612 0.78656 0.08756 0.0
C3288 C 0.81429 0.76893 0.08834 0.0
C3289 C 0.85383 0.7833 0.08997 0.0
C3290 C 0.85019 0.76234 0.0932 0.0
C3291 C 0.82849 0.7446 0.09394 0.0
C3292 C 0.81064 0.7479 0.09164 0.0
C3293 C 0.86938 0.75925 0.09534 0.0
C3294 C 0.87293 0.74564 0.0874 0.0
C3295 C 0.88573 0.77217 0.10399 0.0
C3296 C 0.88207 0.78553 0.1132 0.0
C3297 C 0.863 0.77582 0.12048 0.0
C3298 C 0.85946 0.78846 0.12905 0.0
C3299 C 0.87492 0.81083 0.13048 0.0
C3300 C 0.89399 0.8206 0.12334 0.0
C3301 C 0.8976 0.80804 0.11475 0.0
H3302 H 0.87215 0.82059 0.13712 0.0
H3303 H 0.90564 0.69787 0.05351 0.0
H3304 H 0.31927 0.08984 0.09544 0.0
H3305 H 0.32656 0.12794 0.09663 0.0
H3306 H 0.26474 0.10838 0.07861 0.0
H3307 H 0.25742 0.07067 0.07727 0.0
H3308 H 0.29853 0.14515 0.06857 0.0
H3309 H 0.27104 0.117 0.10932 0.0
H3310 H 0.27276 0.10144 0.12912 0.0
H3311 H 0.33715 0.1572 0.13553 0.0
H3312 H 0.33591 0.17295 0.11569 0.0
H3313 H 0.25808 0.21524 0.07848 0.0
H3314 H 0.26509 0.18462 0.07963 0.0
H3315 H 0.32798 0.22671 0.09663 0.0
H3316 H 0.32105 0.25782 0.09563 0.0
H3317 H 0.30442 0.18421 0.1072 0.0
H3318 H 0.32909 0.21542 0.06812 0.0
H3319 H 0.32735 0.23136 0.04848 0.0
H3320 H 0.26955 0.17043 0.03875 0.0
H3321 H 0.27073 0.15423 0.05842 0.0
C3322 C 0.30721 0.09365 0.09176 0.0
C3323 C 0.28778 0.07714 0.08622 0.0
C3324 C 0.3114 0.11542 0.09248 0.0
C3325 C 0.29619 0.12097 0.0877 0.0
C3326 C 0.27677 0.10449 0.08229 0.0
C3327 C 0.27258 0.08286 0.08157 0.0
C3328 C 0.30022 0.14388 0.08805 0.0
C3329 C 0.29983 0.15369 0.07702 0.0
C3330 C 0.30287 0.15543 0.09904 0.0
C3331 C 0.3035 0.146 0.11097 0.0
C3332 C 0.28564 0.12585 0.11491 0.0
C3333 C 0.28651 0.11701 0.12615 0.0
C3334 C 0.30508 0.12829 0.13356 0.0
C3335 C 0.32279 0.14846 0.12977 0.0
C3336 C 0.32201 0.15735 0.11853 0.0
C3337 C 0.27343 0.21814 0.08251 0.0
C3338 C 0.28912 0.23914 0.08683 0.0
C3339 C 0.27741 0.20055 0.08313 0.0
C3340 C 0.29721 0.20351 0.08801 0.0
C3341 C 0.31265 0.22417 0.09276 0.0
C3342 C 0.30867 0.24191 0.09215 0.0
C3343 C 0.30156 0.18484 0.08776 0.0
C3344 C 0.30366 0.17592 0.09875 0.0
C3345 C 0.30061 0.17408 0.07672 0.0
C3346 C 0.29997 0.18364 0.06478 0.0
C3347 C 0.31594 0.20546 0.06183 0.0
C3348 C 0.31506 0.21454 0.05068 0.0
C3349 C 0.29834 0.20192 0.04237 0.0
C3350 C 0.2825 0.18018 0.04519 0.0
C3351 C 0.28329 0.17103 0.05633 0.0
H3352 H 0.29768 0.20899 0.03375 0.0
H3353 H 0.30573 0.12142 0.14225 0.0
H3354 H 0.25873 0.96562 0.91329 0.0
H3355 H 0.22689 0.92823 0.91132 0.0
H3356 H 0.18305 0.95488 0.9129 0.0
H3357 H 0.2145 0.99191 0.91519 0.0
H3358 H 0.17115 0.92281 0.9287 0.0
H3359 H 0.19342 0.93383 0.8863 0.0
H3360 H 0.21951 0.94134 0.86948 0.0
H3361 H 0.2244 0.88455 0.87935 0.0
H3362 H 0.19856 0.87687 0.89634 0.0
H3363 H 0.06741 0.84112 0.91298 0.0
H3364 H 0.10395 0.87337 0.91056 0.0
H3365 H 0.13332 0.83196 0.91233 0.0
H3366 H 0.09645 0.79924 0.91448 0.0
H3367 H 0.15543 0.868 0.89606 0.0
H3368 H 0.13149 0.85558 0.93747 0.0
H3369 H 0.10517 0.84766 0.95421 0.0
H3370 H 0.10411 0.90727 0.9464 0.0
H3371 H 0.13017 0.91538 0.92949 0.0
C3372 C 0.2423 0.96348 0.91307 0.0
C3373 C 0.2391 0.98168 0.91455 0.0
C3374 C 0.22413 0.94213 0.9119 0.0
C3375 C 0.20257 0.93875 0.91198 0.0
C3376 C 0.19952 0.95705 0.91292 0.0
C3377 C 0.21753 0.97823 0.91424 0.0
C3378 C 0.18294 0.91625 0.91202 0.0
C3379 C 0.16768 0.91095 0.92148 0.0
C3380 C 0.17883 0.90035 0.90292 0.0
C3381 C 0.19426 0.90493 0.89267 0.0
C3382 C 0.2002 0.92305 0.88494 0.0
C3383 C 0.21492 0.92732 0.87537 0.0
C3384 C 0.22366 0.91347 0.87337 0.0
C3385 C 0.21765 0.89529 0.88092 0.0
C3386 C 0.20296 0.89096 0.89052 0.0
C3387 C 0.08159 0.83878 0.91268 0.0
C3388 C 0.07912 0.81771 0.91415 0.0
C3389 C 0.10246 0.85723 0.91127 0.0
C3390 C 0.12134 0.85508 0.91155 0.0
C3391 C 0.11893 0.83394 0.91216 0.0
C3392 C 0.09789 0.81531 0.91342 0.0
C3393 C 0.14336 0.87519 0.91241 0.0
C3394 C 0.15908 0.87989 0.90328 0.0
C3395 C 0.14806 0.89064 0.92185 0.0
C3396 C 0.13269 0.88602 0.93217 0.0
C3397 C 0.12556 0.86694 0.93928 0.0
C3398 C 0.11069 0.86242 0.94881 0.0
C3399 C 0.10295 0.87694 0.95136 0.0
C3400 C 0.11012 0.89604 0.94442 0.0
C3401 C 0.12496 0.90062 0.93487 0.0
H3402 H 0.09143 0.8734 0.95873 0.0
H3403 H 0.23505 0.91681 0.86595 0.0
H3404 H 0.2313 0.28408 0.94032 0.0
H3405 H 0.19914 0.28868 0.93834 0.0
H3406 H 0.2193 0.31408 0.90206 0.0
H3407 H 0.25224 0.31026 0.90419 0.0
H3408 H 0.20048 0.33507 0.91373 0.0
H3409 H 0.18101 0.26041 0.90593 0.0
H3410 H 0.17976 0.22507 0.9098 0.0
H3411 H 0.14485 0.21745 0.94313 0.0
H3412 H 0.14616 0.25289 0.93955 0.0
H3413 H 0.08725 0.3093 0.90316 0.0
H3414 H 0.12435 0.31394 0.90159 0.0
H3415 H 0.11745 0.28682 0.93757 0.0
H3416 H 0.08036 0.2815 0.939 0.0
H3417 H 0.12983 0.26651 0.92226 0.0
H3418 H 0.15232 0.34362 0.93028 0.0
H3419 H 0.15326 0.37859 0.92563 0.0
H3420 H 0.18136 0.38071 0.89066 0.0
H3421 H 0.1804 0.34564 0.89507 0.0
C3422 C 0.22902 0.29084 0.93195 0.0
C3423 C 0.24403 0.29646 0.92232 0.0
C3424 C 0.21063 0.29346 0.93082 0.0
C3425 C 0.2065 0.30115 0.91993 0.0
C3426 C 0.22209 0.30795 0.91051 0.0
C3427 C 0.24083 0.30572 0.91172 0.0
C3428 C 0.18515 0.30054 0.91827 0.0
C3429 C 0.18498 0.32004 0.91543 0.0
C3430 C 0.16492 0.28089 0.9204 0.0
C3431 C 0.16379 0.25937 0.9225 0.0
C3432 C 0.17316 0.25124 0.91411 0.0
C3433 C 0.17244 0.23119 0.91625 0.0
C3434 C 0.16226 0.21904 0.92671 0.0
C3435 C 0.15273 0.22688 0.93504 0.0
C3436 C 0.15342 0.24693 0.93294 0.0
C3437 C 0.09384 0.30462 0.91078 0.0
C3438 C 0.08086 0.29479 0.92114 0.0
C3439 C 0.11504 0.30734 0.90988 0.0
C3440 C 0.1237 0.3007 0.91946 0.0
C3441 C 0.11106 0.29186 0.93002 0.0
C3442 C 0.08985 0.28882 0.93083 0.0
C3443 C 0.14514 0.30128 0.91837 0.0
C3444 C 0.14528 0.28158 0.92052 0.0
C3445 C 0.16518 0.32067 0.91549 0.0
C3446 C 0.1661 0.34192 0.91296 0.0
C3447 C 0.1586 0.3515 0.92158 0.0
C3448 C 0.15916 0.37134 0.91899 0.0
C3449 C 0.16732 0.38184 0.90785 0.0
C3450 C 0.17503 0.37256 0.89929 0.0
C3451 C 0.17452 0.35272 0.90183 0.0
H3452 H 0.1677 0.39718 0.90586 0.0
H3453 H 0.16173 0.20353 0.92836 0.0
H3454 H 0.79561 0.84566 0.92889 0.0
H3455 H 0.78402 0.87313 0.928 0.0
H3456 H 0.73238 0.83258 0.90277 0.0
H3457 H 0.74375 0.80452 0.90368 0.0
H3458 H 0.75971 0.88026 0.89669 0.0
H3459 H 0.71438 0.8331 0.92809 0.0
H3460 H 0.70554 0.80974 0.94632 0.0
H3461 H 0.75058 0.86613 0.96736 0.0
H3462 H 0.75999 0.88978 0.94921 0.0
H3463 H 0.73536 0.96799 0.90669 0.0
H3464 H 0.72815 0.93004 0.9045 0.0
H3465 H 0.77589 0.94196 0.93254 0.0
H3466 H 0.78306 0.97955 0.93485 0.0
H3467 H 0.73857 0.90178 0.93515 0.0
H3468 H 0.7896 0.94577 0.90274 0.0
H3469 H 0.7999 0.96933 0.8845 0.0
H3470 H 0.74402 0.91851 0.86542 0.0
H3471 H 0.73327 0.89476 0.88362 0.0
C3472 C 0.78185 0.84251 0.92308 0.0
C3473 C 0.77059 0.82285 0.91637 0.0
C3474 C 0.77519 0.85821 0.92264 0.0
C3475 C 0.75725 0.85473 0.91541 0.0
C3476 C 0.74622 0.83544 0.90843 0.0
C3477 C 0.75271 0.81947 0.909 0.0
C3478 C 0.75041 0.8716 0.91538 0.0
C3479 C 0.75443 0.88463 0.90499 0.0
C3480 C 0.74369 0.87729 0.92624 0.0
C3481 C 0.73796 0.86321 0.93725 0.0
C3482 C 0.72252 0.84051 0.93658 0.0
C3483 C 0.71739 0.82721 0.94691 0.0
C3484 C 0.72751 0.83644 0.95799 0.0
C3485 C 0.74275 0.859 0.95877 0.0
C3486 C 0.74796 0.87237 0.94847 0.0
C3487 C 0.74418 0.96245 0.91246 0.0
C3488 C 0.75991 0.97688 0.9209 0.0
C3489 C 0.74006 0.94079 0.91117 0.0
C3490 C 0.75156 0.93325 0.91833 0.0
C3491 C 0.76677 0.94743 0.92696 0.0
C3492 C 0.77096 0.969 0.92821 0.0
C3493 C 0.74882 0.91101 0.91662 0.0
C3494 C 0.74305 0.89699 0.92673 0.0
C3495 C 0.75392 0.90442 0.9055 0.0
C3496 C 0.76048 0.91863 0.89457 0.0
C3497 C 0.77943 0.9397 0.89468 0.0
C3498 C 0.78536 0.95307 0.88435 0.0
C3499 C 0.77258 0.94545 0.87382 0.0
C3500 C 0.75388 0.92441 0.87359 0.0
C3501 C 0.74786 0.91099 0.88391 0.0
H3502 H 0.77719 0.95583 0.86583 0.0
H3503 H 0.72352 0.82612 0.96597 0.0
H3504 H 0.46975 0.42784 0.42902 0.0
H3505 H 0.50075 0.46529 0.43236 0.0
H3506 H 0.54652 0.44168 0.4271 0.0
H3507 H 0.51588 0.40445 0.42375 0.0
H3508 H 0.5586 0.47139 0.44612 0.0
H3509 H 0.53425 0.46446 0.40404 0.0
H3510 H 0.50679 0.45746 0.38808 0.0
H3511 H 0.49836 0.5102 0.40188 0.0
H3512 H 0.52558 0.5173 0.41804 0.0
H3513 H 0.65828 0.55003 0.42058 0.0
H3514 H 0.62177 0.51907 0.42511 0.0
H3515 H 0.5971 0.5639 0.43064 0.0
H3516 H 0.63389 0.59527 0.42619 0.0
H3517 H 0.57054 0.52793 0.41521 0.0
H3518 H 0.60123 0.53982 0.45458 0.0
H3519 H 0.62925 0.54702 0.47021 0.0
H3520 H 0.62602 0.48555 0.46174 0.0
H3521 H 0.59822 0.47812 0.44592 0.0
C3522 C 0.48642 0.43059 0.42872 0.0
C3523 C 0.49035 0.41319 0.426 0.0
C3524 C 0.50408 0.45199 0.43061 0.0
C3525 C 0.52591 0.45625 0.42989 0.0
C3526 C 0.5298 0.43874 0.42771 0.0
C3527 C 0.51224 0.41747 0.42572 0.0
C3528 C 0.54494 0.47902 0.4306 0.0
C3529 C 0.56122 0.4838 0.43939 0.0
C3530 C 0.54799 0.49543 0.42205 0.0
C3531 C 0.5317 0.49121 0.41234 0.0
C3532 C 0.52639 0.47443 0.40373 0.0
C3533 C 0.5109 0.47047 0.39464 0.0
C3534 C 0.50077 0.48333 0.394 0.0
C3535 C 0.50617 0.50022 0.40242 0.0
C3536 C 0.52163 0.50422 0.41154 0.0
C3537 C 0.64516 0.5534 0.4228 0.0
C3538 C 0.649 0.57514 0.42299 0.0
C3539 C 0.62433 0.53567 0.42547 0.0
C3540 C 0.60681 0.53922 0.42832 0.0
C3541 C 0.61047 0.56086 0.42853 0.0
C3542 C 0.63148 0.57873 0.42601 0.0
C3543 C 0.58456 0.51999 0.43046 0.0
C3544 C 0.56769 0.51583 0.42218 0.0
C3545 C 0.58097 0.50415 0.43949 0.0
C3546 C 0.59769 0.50848 0.44901 0.0
C3547 C 0.60661 0.52791 0.45598 0.0
C3548 C 0.62244 0.53202 0.46489 0.0
C3549 C 0.62943 0.51676 0.46696 0.0
C3550 C 0.62058 0.49735 0.46013 0.0
C3551 C 0.60476 0.49317 0.4512 0.0
H3552 H 0.64168 0.51997 0.47386 0.0
H3553 H 0.48879 0.48025 0.38695 0.0
H3554 H 0.63552 0.08067 0.43311 0.0
H3555 H 0.59843 0.07593 0.43527 0.0
H3556 H 0.60386 0.10316 0.39944 0.0
H3557 H 0.64086 0.10856 0.39743 0.0
H3558 H 0.59211 0.12339 0.41508 0.0
H3559 H 0.5697 0.0466 0.40671 0.0
H3560 H 0.56847 0.01133 0.41085 0.0
H3561 H 0.54059 0.00824 0.44601 0.0
H3562 H 0.54191 0.04363 0.44213 0.0
H3563 H 0.49007 0.10549 0.39808 0.0
H3564 H 0.52196 0.10032 0.39955 0.0
H3565 H 0.50385 0.07664 0.43627 0.0
H3566 H 0.47123 0.08112 0.43469 0.0
H3567 H 0.52178 0.05475 0.424 0.0
H3568 H 0.54152 0.1297 0.43185 0.0
H3569 H 0.54243 0.16486 0.42789 0.0
H3570 H 0.57596 0.17172 0.39414 0.0
H3571 H 0.57497 0.13645 0.39782 0.0
C3572 C 0.62862 0.08537 0.42567 0.0
C3573 C 0.64115 0.09523 0.41517 0.0
C3574 C 0.60743 0.0826 0.42689 0.0
C3575 C 0.59837 0.08923 0.41752 0.0
C3576 C 0.61057 0.09812 0.40684 0.0
C3577 C 0.63174 0.10121 0.4057 0.0
C3578 C 0.57697 0.08862 0.41894 0.0
C3579 C 0.57673 0.1083 0.41692 0.0
C3580 C 0.55702 0.06918 0.4219 0.0
C3581 C 0.55613 0.04787 0.42418 0.0
C3582 C 0.56347 0.03848 0.41536 0.0
C3583 C 0.56272 0.01845 0.41765 0.0
C3584 C 0.55452 0.00759 0.4287 0.0
C3585 C 0.54697 0.01669 0.43746 0.0
C3586 C 0.5477 0.03672 0.43522 0.0
C3587 C 0.49272 0.09894 0.40643 0.0
C3588 C 0.47844 0.09408 0.41636 0.0
C3589 C 0.51093 0.09598 0.40725 0.0
C3590 C 0.51557 0.08865 0.41813 0.0
C3591 C 0.50062 0.08247 0.42783 0.0
C3592 C 0.48207 0.08508 0.42693 0.0
C3593 C 0.53695 0.08927 0.4195 0.0
C3594 C 0.53722 0.0698 0.42222 0.0
C3595 C 0.55708 0.10893 0.41722 0.0
C3596 C 0.55807 0.13038 0.41509 0.0
C3597 C 0.549 0.13866 0.42356 0.0
C3598 C 0.54953 0.15861 0.42137 0.0
C3599 C 0.55923 0.1705 0.41077 0.0
C3600 C 0.56846 0.1625 0.40235 0.0
C3601 C 0.56795 0.14255 0.4045 0.0
H3602 H 0.5596 0.18593 0.40908 0.0
H3603 H 0.55396 0.99209 0.43046 0.0
H3604 H 0.93249 0.41536 0.40892 0.0
H3605 H 0.9424 0.45374 0.41149 0.0
H3606 H 0.99444 0.46394 0.43621 0.0
H3607 H 0.98467 0.42515 0.43366 0.0
H3608 H 0.96692 0.48314 0.44365 0.0
H3609 H 0.01212 0.48542 0.41117 0.0
H3610 H 0.02161 0.47316 0.39229 0.0
H3611 H 0.97462 0.48358 0.3726 0.0
H3612 H 0.96457 0.49556 0.39141 0.0
H3613 H 0.98722 0.59551 0.43441 0.0
H3614 H 0.99523 0.56527 0.4368 0.0
H3615 H 0.94538 0.52703 0.41018 0.0
H3616 H 0.93732 0.55677 0.40771 0.0
H3617 H 0.98496 0.52797 0.40605 0.0
H3618 H 0.93473 0.51677 0.44022 0.0
H3619 H 0.92572 0.52933 0.45919 0.0
H3620 H 0.98492 0.53745 0.47572 0.0
H3621 H 0.99435 0.52509 0.45679 0.0
C3622 C 0.94599 0.42561 0.41497 0.0
C3623 C 0.95785 0.41714 0.42103 0.0
C3624 C 0.95166 0.4476 0.4164 0.0
C3625 C 0.96926 0.46167 0.42395 0.0
C3626 C 0.98084 0.45329 0.43032 0.0
C3627 C 0.97529 0.43119 0.4288 0.0
C3628 C 0.97543 0.4852 0.42471 0.0
C3629 C 0.97149 0.49325 0.43553 0.0
C3630 C 0.98151 0.49838 0.41413 0.0
C3631 C 0.98753 0.49132 0.40274 0.0
C3632 C 0.00369 0.48496 0.40284 0.0
C3633 C 0.00919 0.47807 0.39214 0.0
C3634 C 0.99871 0.47757 0.38125 0.0
C3635 C 0.98273 0.48399 0.38104 0.0
C3636 C 0.97716 0.49086 0.39172 0.0
C3637 C 0.97798 0.58064 0.42907 0.0
C3638 C 0.96162 0.5786 0.42086 0.0
C3639 C 0.98257 0.5634 0.43047 0.0
C3640 C 0.97093 0.54397 0.42363 0.0
C3641 C 0.95464 0.54195 0.41548 0.0
C3642 C 0.94998 0.55898 0.41414 0.0
C3643 C 0.97522 0.52535 0.42479 0.0
C3644 C 0.98118 0.51824 0.41429 0.0
C3645 C 0.97124 0.51323 0.43568 0.0
C3646 C 0.96533 0.52021 0.44709 0.0
C3647 C 0.94586 0.52133 0.44789 0.0
C3648 C 0.94067 0.52839 0.45863 0.0
C3649 C 0.95476 0.53422 0.46864 0.0
C3650 C 0.97402 0.53293 0.46795 0.0
C3651 C 0.97929 0.52587 0.45723 0.0
H3652 H 0.95073 0.53972 0.47694 0.0
H3653 H 0.00299 0.47224 0.37298 0.0
H3654 H 0.75084 0.13338 0.23658 0.0
H3655 H 0.78793 0.1652 0.2335 0.0
H3656 H 0.77649 0.19986 0.26244 0.0
H3657 H 0.73959 0.16865 0.26536 0.0
H3658 H 0.79253 0.22533 0.24308 0.0
H3659 H 0.80952 0.1751 0.2655 0.0
H3660 H 0.80994 0.14028 0.26809 0.0
H3661 H 0.846 0.15219 0.23476 0.0
H3662 H 0.84557 0.18698 0.23191 0.0
H3663 H 0.88768 0.30934 0.26699 0.0
H3664 H 0.85547 0.27315 0.26382 0.0
H3665 H 0.887 0.26235 0.23304 0.0
H3666 H 0.91984 0.29885 0.23628 0.0
H3667 H 0.86248 0.22409 0.24762 0.0
H3668 H 0.85072 0.27726 0.22708 0.0
H3669 H 0.851 0.31245 0.22474 0.0
H3670 H 0.80491 0.2949 0.25413 0.0
H3671 H 0.8046 0.25973 0.25677 0.0
C3672 C 0.75632 0.14776 0.24232 0.0
C3673 C 0.74219 0.14853 0.25117 0.0
C3674 C 0.77753 0.16589 0.24057 0.0
C3675 C 0.78499 0.18491 0.24775 0.0
C3676 C 0.77103 0.18544 0.25672 0.0
C3677 C 0.7499 0.16754 0.25839 0.0
C3678 C 0.80699 0.20477 0.2459 0.0
C3679 C 0.8078 0.22502 0.2441 0.0
C3680 C 0.82697 0.2043 0.24665 0.0
C3681 C 0.82729 0.18348 0.24842 0.0
C3682 C 0.8174 0.1702 0.25868 0.0
C3683 C 0.81767 0.15049 0.26021 0.0
C3684 C 0.82793 0.14399 0.25158 0.0
C3685 C 0.83802 0.15722 0.24143 0.0
C3686 C 0.83778 0.17694 0.23986 0.0
C3687 C 0.88792 0.2993 0.25957 0.0
C3688 C 0.90619 0.30712 0.25176 0.0
C3689 C 0.86947 0.27858 0.25778 0.0
C3690 C 0.86868 0.26529 0.24805 0.0
C3691 C 0.88728 0.27246 0.24056 0.0
C3692 C 0.90597 0.29328 0.24242 0.0
C3693 C 0.84779 0.24459 0.24553 0.0
C3694 C 0.84719 0.22429 0.24637 0.0
C3695 C 0.8279 0.2449 0.24385 0.0
C3696 C 0.82769 0.26587 0.24214 0.0
C3697 C 0.84071 0.28094 0.23308 0.0
C3698 C 0.84087 0.30089 0.2317 0.0
C3699 C 0.82799 0.30591 0.23928 0.0
C3700 C 0.81486 0.29097 0.24825 0.0
C3701 C 0.81466 0.27101 0.24968 0.0
H3702 H 0.82815 0.32138 0.23821 0.0
H3703 H 0.82812 0.12872 0.25277 0.0
H3704 H 0.9205 0.64523 0.24 0.0
H3705 H 0.8885 0.65047 0.23776 0.0
H3706 H 0.85657 0.60616 0.26778 0.0
H3707 H 0.88795 0.60049 0.26989 0.0
H3708 H 0.82944 0.5954 0.24921 0.0
H3709 H 0.88061 0.66367 0.26995 0.0
H3710 H 0.91546 0.69906 0.27193 0.0
H3711 H 0.90184 0.72181 0.2386 0.0
H3712 H 0.86702 0.68644 0.23635 0.0
H3713 H 0.74456 0.60832 0.27107 0.0
H3714 H 0.78097 0.61222 0.26899 0.0
H3715 H 0.79298 0.65191 0.23688 0.0
H3716 H 0.75634 0.64831 0.23898 0.0
H3717 H 0.83069 0.66682 0.25204 0.0
H3718 H 0.77737 0.6001 0.23271 0.0
H3719 H 0.74222 0.56495 0.23105 0.0
H3720 H 0.7601 0.53923 0.26167 0.0
H3721 H 0.79522 0.57434 0.26363 0.0
C3722 C 0.9067 0.63675 0.24617 0.0
C3723 C 0.9067 0.6223 0.25507 0.0
C3724 C 0.88846 0.63981 0.24489 0.0
C3725 C 0.87013 0.62871 0.25261 0.0
C3726 C 0.87043 0.61475 0.26166 0.0
C3727 C 0.88844 0.61153 0.26285 0.0
C3728 C 0.85006 0.63062 0.25115 0.0
C3729 C 0.82976 0.61103 0.24989 0.0
C3730 C 0.8505 0.65108 0.25152 0.0
C3731 C 0.87136 0.67233 0.25291 0.0
C3732 C 0.88514 0.67616 0.263 0.0
C3733 C 0.90486 0.69623 0.26418 0.0
C3734 C 0.91089 0.71265 0.25538 0.0
C3735 C 0.89717 0.70906 0.2454 0.0
C3736 C 0.87744 0.68902 0.24417 0.0
C3737 C 0.75494 0.61802 0.26359 0.0
C3738 C 0.7474 0.62769 0.25506 0.0
C3739 C 0.77578 0.62026 0.26244 0.0
C3740 C 0.78946 0.63197 0.25265 0.0
C3741 C 0.78258 0.6427 0.24446 0.0
C3742 C 0.76166 0.64059 0.24567 0.0
C3743 C 0.81018 0.63151 0.25071 0.0
C3744 C 0.83049 0.65127 0.25119 0.0
C3745 C 0.80985 0.6112 0.24962 0.0
C3746 C 0.78889 0.5899 0.24834 0.0
C3747 C 0.77376 0.58699 0.23913 0.0
C3748 C 0.75384 0.56707 0.23813 0.0
C3749 C 0.74892 0.54988 0.24626 0.0
C3750 C 0.76394 0.55255 0.25538 0.0
C3751 C 0.78387 0.57245 0.25643 0.0
H3752 H 0.73348 0.53447 0.24548 0.0
H3753 H 0.92617 0.72817 0.2563 0.0
H3754 H 0.46765 0.31825 0.25879 0.0
H3755 H 0.46184 0.28157 0.25499 0.0
H3756 H 0.39946 0.26277 0.23786 0.0
H3757 H 0.40502 0.29981 0.24175 0.0
H3758 H 0.39705 0.23059 0.2535 0.0
H3759 H 0.44115 0.27106 0.22011 0.0
H3760 H 0.47159 0.30246 0.20939 0.0
H3761 H 0.51885 0.29266 0.22922 0.0
H3762 H 0.48871 0.2614 0.24019 0.0
H3763 H 0.40377 0.13179 0.2417 0.0
H3764 H 0.39898 0.16371 0.23786 0.0
H3765 H 0.46119 0.2062 0.25544 0.0
H3766 H 0.46621 0.17478 0.25924 0.0
H3767 H 0.45711 0.22341 0.234 0.0
H3768 H 0.41195 0.18801 0.27008 0.0
H3769 H 0.38118 0.15682 0.28077 0.0
H3770 H 0.33527 0.15686 0.25492 0.0
H3771 H 0.36583 0.1879 0.24399 0.0
C3772 C 0.45265 0.30645 0.25418 0.0
C3773 C 0.43686 0.31212 0.25052 0.0
C3774 C 0.44941 0.28544 0.25197 0.0
C3775 C 0.43041 0.26956 0.24595 0.0
C3776 C 0.41432 0.27487 0.24245 0.0
C3777 C 0.41756 0.29604 0.24467 0.0
C3778 C 0.42767 0.24745 0.2436 0.0
C3779 C 0.40988 0.22887 0.24896 0.0
C3780 C 0.44437 0.24521 0.23766 0.0
C3781 C 0.46263 0.26389 0.231 0.0
C3782 C 0.45803 0.27566 0.22223 0.0
C3783 C 0.47524 0.29344 0.21611 0.0
C3784 C 0.49714 0.29956 0.21863 0.0
C3785 C 0.50187 0.28789 0.22727 0.0
C3786 C 0.48473 0.27011 0.23343 0.0
C3787 C 0.41644 0.14795 0.24474 0.0
C3788 C 0.43536 0.15066 0.25082 0.0
C3789 C 0.41364 0.16614 0.24254 0.0
C3790 C 0.42972 0.1873 0.24639 0.0
C3791 C 0.44863 0.19003 0.25235 0.0
C3792 C 0.45141 0.17196 0.25456 0.0
C3793 C 0.42716 0.20689 0.24447 0.0
C3794 C 0.44396 0.22499 0.23824 0.0
C3795 C 0.40948 0.2086 0.24953 0.0
C3796 C 0.39117 0.19006 0.25614 0.0
C3797 C 0.39531 0.18124 0.26663 0.0
C3798 C 0.37791 0.16362 0.27274 0.0
C3799 C 0.35629 0.15481 0.2685 0.0
C3800 C 0.35202 0.16366 0.25817 0.0
C3801 C 0.36937 0.18127 0.25202 0.0
H3802 H 0.34284 0.14117 0.27325 0.0
H3803 H 0.51044 0.31333 0.21388 0.0
H3804 H 0.29829 0.92175 0.76254 0.0
H3805 H 0.25951 0.89221 0.7632 0.0
H3806 H 0.27678 0.84843 0.74492 0.0
H3807 H 0.31517 0.87749 0.74416 0.0
H3808 H 0.24083 0.84848 0.73466 0.0
H3809 H 0.26806 0.84501 0.7752 0.0
H3810 H 0.28383 0.86091 0.79521 0.0
H3811 H 0.22975 0.87202 0.80215 0.0
H3812 H 0.2138 0.8564 0.78211 0.0
H3813 H 0.17139 0.73772 0.74301 0.0
H3814 H 0.20141 0.77557 0.74427 0.0
H3815 H 0.1588 0.7945 0.76244 0.0
H3816 H 0.12825 0.75618 0.7613 0.0
H3817 H 0.20136 0.81318 0.77287 0.0
H3818 H 0.17016 0.80939 0.73423 0.0
H3819 H 0.15405 0.79341 0.71431 0.0
H3820 H 0.21474 0.79703 0.70351 0.0
H3821 H 0.23113 0.81272 0.72343 0.0
C3822 C 0.29381 0.90581 0.75868 0.0
C3823 C 0.30989 0.90204 0.75327 0.0
C3824 C 0.27167 0.88897 0.75909 0.0
C3825 C 0.26531 0.86818 0.75408 0.0
C3826 C 0.28133 0.86441 0.74877 0.0
C3827 C 0.30334 0.88107 0.7484 0.0
C3828 C 0.24207 0.85004 0.75417 0.0
C3829 C 0.23214 0.84078 0.743 0.0
C3830 C 0.23038 0.84062 0.76506 0.0
C3831 C 0.2399 0.84981 0.77712 0.0
C3832 C 0.25963 0.851 0.78096 0.0
C3833 C 0.26858 0.85993 0.79231 0.0
C3834 C 0.25784 0.86754 0.79993 0.0
C3835 C 0.23808 0.86616 0.79623 0.0
C3836 C 0.22907 0.85727 0.78488 0.0
C3837 C 0.16823 0.74979 0.7473 0.0
C3838 C 0.14726 0.74385 0.75196 0.0
C3839 C 0.18547 0.7715 0.74798 0.0
C3840 C 0.18222 0.78789 0.75326 0.0
C3841 C 0.16156 0.78208 0.75825 0.0
C3842 C 0.14415 0.7602 0.75756 0.0
C3843 C 0.20072 0.81098 0.75335 0.0
C3844 C 0.20971 0.82121 0.76451 0.0
C3845 C 0.21154 0.82146 0.74244 0.0
C3846 C 0.20186 0.81219 0.73036 0.0
C3847 C 0.18004 0.80666 0.72764 0.0
C3848 C 0.17086 0.79766 0.71634 0.0
C3849 C 0.18336 0.79419 0.70766 0.0
C3850 C 0.20508 0.79975 0.71025 0.0
C3851 C 0.21434 0.80873 0.72154 0.0
H3852 H 0.17621 0.78722 0.69891 0.0
H3853 H 0.26479 0.87446 0.80871 0.0
H3854 H 0.29909 0.40616 0.76407 0.0
H3855 H 0.26193 0.40114 0.76636 0.0
H3856 H 0.27959 0.45627 0.74239 0.0
H3857 H 0.3164 0.46153 0.74014 0.0
H3858 H 0.26019 0.45945 0.76279 0.0
H3859 H 0.24763 0.4028 0.73296 0.0
H3860 H 0.24753 0.36922 0.72603 0.0
H3861 H 0.20405 0.33227 0.75526 0.0
H3862 H 0.20413 0.36574 0.76245 0.0
H3863 H 0.16962 0.45858 0.73762 0.0
H3864 H 0.20158 0.45419 0.74079 0.0
H3865 H 0.16437 0.40072 0.76575 0.0
H3866 H 0.13188 0.40483 0.76255 0.0
H3867 H 0.1912 0.39266 0.74981 0.0
H3868 H 0.19935 0.44858 0.77752 0.0
H3869 H 0.19921 0.48227 0.78397 0.0
H3870 H 0.25123 0.52076 0.75873 0.0
H3871 H 0.25147 0.48726 0.75199 0.0
C3872 C 0.295 0.41714 0.75925 0.0
C3873 C 0.31082 0.43434 0.75197 0.0
C3874 C 0.27376 0.41422 0.76056 0.0
C3875 C 0.26804 0.42837 0.75456 0.0
C3876 C 0.28371 0.44527 0.74718 0.0
C3877 C 0.3048 0.44823 0.7459 0.0
C3878 C 0.24599 0.42625 0.75597 0.0
C3879 C 0.24511 0.44484 0.75994 0.0
C3880 C 0.22622 0.4069 0.7527 0.0
C3881 C 0.2261 0.38681 0.74833 0.0
C3882 C 0.23819 0.38756 0.73797 0.0
C3883 C 0.23811 0.36854 0.73398 0.0
C3884 C 0.22585 0.34864 0.74022 0.0
C3885 C 0.21358 0.34771 0.75044 0.0
C3886 C 0.21363 0.36669 0.75448 0.0
C3887 C 0.16807 0.44582 0.74378 0.0
C3888 C 0.14817 0.43221 0.74993 0.0
C3889 C 0.18642 0.44335 0.74559 0.0
C3890 C 0.18544 0.42739 0.75366 0.0
C3891 C 0.16546 0.41322 0.75953 0.0
C3892 C 0.14696 0.41564 0.7577 0.0
C3893 C 0.20568 0.42625 0.75607 0.0
C3894 C 0.20621 0.40708 0.7529 0.0
C3895 C 0.22523 0.44509 0.76008 0.0
C3896 C 0.22536 0.46537 0.76422 0.0
C3897 C 0.21068 0.46421 0.7733 0.0
C3898 C 0.21059 0.48328 0.77701 0.0
C3899 C 0.22519 0.50364 0.77176 0.0
C3900 C 0.23994 0.50498 0.7628 0.0
C3901 C 0.24009 0.48596 0.75904 0.0
H3902 H 0.22508 0.51838 0.77464 0.0
H3903 H 0.2258 0.33394 0.73712 0.0
H3904 H 0.59352 0.74219 0.74587 0.0
H3905 H 0.60428 0.78099 0.74705 0.0
H3906 H 0.66049 0.79406 0.76905 0.0
H3907 H 0.64994 0.75488 0.76785 0.0
H3908 H 0.63406 0.81462 0.77709 0.0
H3909 H 0.67383 0.81123 0.74313 0.0
H3910 H 0.67955 0.79562 0.72434 0.0
H3911 H 0.63039 0.80477 0.7062 0.0
H3912 H 0.62408 0.82009 0.72494 0.0
H3913 H 0.6548 0.92607 0.7653 0.0
H3914 H 0.66293 0.89587 0.7676 0.0
H3915 H 0.60954 0.85565 0.74318 0.0
H3916 H 0.60134 0.88532 0.74083 0.0
H3917 H 0.64754 0.85451 0.73796 0.0
H3918 H 0.60262 0.84927 0.77341 0.0
H3919 H 0.59582 0.86374 0.79235 0.0
H3920 H 0.65554 0.87098 0.80766 0.0
H3921 H 0.66281 0.85679 0.78873 0.0
C3922 C 0.6081 0.75316 0.75106 0.0
C3923 C 0.62092 0.74537 0.75672 0.0
C3924 C 0.61426 0.77538 0.75168 0.0
C3925 C 0.63328 0.79036 0.75803 0.0
C3926 C 0.6458 0.78269 0.76407 0.0
C3927 C 0.63976 0.76036 0.76334 0.0
C3928 C 0.63987 0.81402 0.75794 0.0
C3929 C 0.63767 0.82367 0.76861 0.0
C3930 C 0.64455 0.82572 0.74686 0.0
C3931 C 0.64842 0.81675 0.73548 0.0
C3932 C 0.66412 0.80979 0.73516 0.0
C3933 C 0.66749 0.801 0.72451 0.0
C3934 C 0.65533 0.79918 0.71409 0.0
C3935 C 0.63981 0.8062 0.71428 0.0
C3936 C 0.63635 0.81497 0.72492 0.0
C3937 C 0.64486 0.9108 0.7604 0.0
C3938 C 0.62734 0.9081 0.75293 0.0
C3939 C 0.64952 0.89359 0.76173 0.0
C3940 C 0.63683 0.87355 0.75555 0.0
C3941 C 0.61961 0.87102 0.74799 0.0
C3942 C 0.61485 0.888 0.74673 0.0
C3943 C 0.64066 0.85466 0.75699 0.0
C3944 C 0.64479 0.84587 0.74653 0.0
C3945 C 0.63786 0.84385 0.76826 0.0
C3946 C 0.63341 0.85227 0.77962 0.0
C3947 C 0.61439 0.85413 0.78078 0.0
C3948 C 0.61043 0.86224 0.79151 0.0
C3949 C 0.62529 0.86836 0.80118 0.0
C3950 C 0.64409 0.8663 0.80015 0.0
C3951 C 0.64813 0.85822 0.78942 0.0
H3952 H 0.62219 0.87463 0.80949 0.0
H3953 H 0.65796 0.79237 0.70585 0.0
H3954 H 0.54841 0.65299 0.58556 0.0
H3955 H 0.51757 0.61553 0.58419 0.0
H3956 H 0.56258 0.59077 0.57981 0.0
H3957 H 0.59397 0.62868 0.58102 0.0
H3958 H 0.52459 0.56917 0.56478 0.0
H3959 H 0.54123 0.5853 0.60653 0.0
H3960 H 0.55094 0.60788 0.62511 0.0
H3961 H 0.48968 0.60799 0.62321 0.0
H3962 H 0.47975 0.58569 0.6045 0.0
H3963 H 0.42442 0.46385 0.57873 0.0
H3964 H 0.46282 0.49424 0.57802 0.0
H3965 H 0.4405 0.54116 0.58273 0.0
H3966 H 0.40246 0.51126 0.5835 0.0
H3967 H 0.47218 0.54645 0.59933 0.0
H3968 H 0.45909 0.53431 0.5556 0.0
H3969 H 0.45036 0.51179 0.53702 0.0
H3970 H 0.50593 0.5028 0.54336 0.0
H3971 H 0.51481 0.52504 0.56207 0.0
C3972 C 0.5519 0.63969 0.58427 0.0
C3973 C 0.57372 0.64384 0.5836 0.0
C3974 C 0.5342 0.61824 0.58347 0.0
C3975 C 0.53782 0.60037 0.58214 0.0
C3976 C 0.55949 0.60438 0.58092 0.0
C3977 C 0.57736 0.62601 0.58164 0.0
C3978 C 0.51868 0.57765 0.58265 0.0
C3979 C 0.51332 0.56391 0.57243 0.0
C3980 C 0.5041 0.57079 0.59267 0.0
C3981 C 0.50978 0.58386 0.60407 0.0
C3982 C 0.52987 0.59022 0.61004 0.0
C3983 C 0.53541 0.60297 0.6206 0.0
C3984 C 0.52094 0.60937 0.62534 0.0
C3985 C 0.50087 0.60299 0.61954 0.0
C3986 C 0.49526 0.59026 0.60896 0.0
C3987 C 0.42769 0.48067 0.57945 0.0
C3988 C 0.41034 0.48508 0.58132 0.0
C3989 C 0.44963 0.49799 0.57904 0.0
C3990 C 0.45447 0.51992 0.58042 0.0
C3991 C 0.43713 0.52433 0.58177 0.0
C3992 C 0.41534 0.50716 0.58219 0.0
C3993 C 0.47747 0.5385 0.5812 0.0
C3994 C 0.48363 0.55141 0.59177 0.0
C3995 C 0.49279 0.54435 0.57157 0.0
C3996 C 0.48744 0.53109 0.56031 0.0
C3997 C 0.46932 0.52736 0.55309 0.0
C3998 C 0.46437 0.51468 0.54252 0.0
C3999 C 0.47753 0.5058 0.53903 0.0
C4000 C 0.49572 0.50964 0.54608 0.0
C4001 C 0.50072 0.52229 0.55666 0.0
H4002 H 0.47367 0.49599 0.53085 0.0
H4003 H 0.52527 0.61927 0.63351 0.0
H4004 H 0.42074 0.98311 0.57113 0.0
H4005 H 0.45902 0.99131 0.56867 0.0
H4006 H 0.44968 0.94596 0.59764 0.0
H4007 H 0.41169 0.9376 0.6001 0.0
H4008 H 0.48949 0.98628 0.59939 0.0
H4009 H 0.44607 0.92915 0.56926 0.0
H4010 H 0.42138 0.91517 0.55149 0.0
H4011 H 0.4686 0.97004 0.53025 0.0
H4012 H 0.49349 0.98443 0.54796 0.0
H4013 H 0.55056 0.93383 0.59661 0.0
H4014 H 0.52164 0.94338 0.59499 0.0
H4015 H 0.55866 0.99131 0.56728 0.0
H4016 H 0.58816 0.982 0.56893 0.0
H4017 H 0.51104 0.96125 0.56233 0.0
H4018 H 0.55841 0.0128 0.59148 0.0
H4019 H 0.58305 0.02571 0.60928 0.0
H4020 H 0.5291 0.98255 0.63235 0.0
H4021 H 0.50419 0.96905 0.61466 0.0
C4022 C 0.42691 0.97497 0.577 0.0
C4023 C 0.41312 0.9596 0.58577 0.0
C4024 C 0.44874 0.97967 0.57558 0.0
C4025 C 0.45713 0.96925 0.58299 0.0
C4026 C 0.44353 0.95426 0.59187 0.0
C4027 C 0.42175 0.94937 0.5932 0.0
C4028 C 0.47976 0.97299 0.58137 0.0
C4029 C 0.49431 0.98097 0.59126 0.0
C4030 C 0.48629 0.96677 0.57061 0.0
C4031 C 0.4715 0.95798 0.55995 0.0
C4032 C 0.45111 0.93829 0.56082 0.0
C4033 C 0.4371 0.93028 0.55076 0.0
C4034 C 0.44339 0.94175 0.53976 0.0
C4035 C 0.46374 0.9612 0.53878 0.0
C4036 C 0.47781 0.96928 0.54882 0.0
C4037 C 0.55263 0.94638 0.59013 0.0
C4038 C 0.5717 0.95718 0.58291 0.0
C4039 C 0.5361 0.95186 0.58926 0.0
C4040 C 0.53814 0.96814 0.58109 0.0
C4041 C 0.55689 0.97875 0.57367 0.0
C4042 C 0.5737 0.97347 0.57466 0.0
C4043 C 0.52034 0.97368 0.58054 0.0
C4044 C 0.50664 0.96737 0.57028 0.0
C4045 C 0.51463 0.98156 0.59096 0.0
C4046 C 0.52943 0.98983 0.60171 0.0
C4047 C 0.55181 0.00594 0.60034 0.0
C4048 C 0.56583 0.01338 0.61041 0.0
C4049 C 0.55765 0.00494 0.62194 0.0
C4050 C 0.53541 0.98908 0.62341 0.0
C4051 C 0.52132 0.98155 0.61336 0.0
H4052 H 0.56853 0.01071 0.62972 0.0
H4053 H 0.43252 0.93553 0.53198 0.0
H4054 H 0.07307 0.63333 0.57516 0.0
H4055 H 0.06658 0.59586 0.57182 0.0
H4056 H 0.13164 0.61582 0.58556 0.0
H4057 H 0.13838 0.65301 0.58876 0.0
H4058 H 0.1232 0.59176 0.56522 0.0
H4059 H 0.0847 0.58758 0.60311 0.0
H4060 H 0.05655 0.59039 0.61523 0.0
H4061 H 0.00548 0.54261 0.59219 0.0
H4062 H 0.03339 0.53973 0.57985 0.0
H4063 H 0.1333 0.50779 0.59137 0.0
H4064 H 0.12814 0.53913 0.58764 0.0
H4065 H 0.06471 0.49618 0.5714 0.0
H4066 H 0.06968 0.46431 0.57512 0.0
H4067 H 0.06503 0.52782 0.58792 0.0
H4068 H 0.10364 0.52654 0.55282 0.0
H4069 H 0.13206 0.52327 0.54127 0.0
H4070 H 0.18292 0.58112 0.55895 0.0
H4071 H 0.15483 0.58456 0.57074 0.0
C4072 C 0.08601 0.62974 0.57744 0.0
C4073 C 0.10624 0.64623 0.58226 0.0
C4074 C 0.08224 0.60831 0.57554 0.0
C4075 C 0.0986 0.60304 0.57849 0.0
C4076 C 0.11882 0.61953 0.58316 0.0
C4077 C 0.12261 0.64083 0.58504 0.0
C4078 C 0.09501 0.58041 0.57699 0.0
C4079 C 0.11045 0.57776 0.57015 0.0
C4080 C 0.07784 0.56194 0.58304 0.0
C4081 C 0.06113 0.56366 0.59048 0.0
C4082 C 0.06748 0.57781 0.60058 0.0
C4083 C 0.05157 0.57939 0.6075 0.0
C4084 C 0.02925 0.56674 0.60446 0.0
C4085 C 0.02278 0.55244 0.59452 0.0
C4086 C 0.03863 0.55082 0.58757 0.0
C4087 C 0.1182 0.50484 0.58702 0.0
C4088 C 0.10196 0.48346 0.5835 0.0
C4089 C 0.11532 0.52285 0.58485 0.0
C4090 C 0.09619 0.51999 0.5791 0.0
C4091 C 0.07965 0.49869 0.57579 0.0
C4092 C 0.08256 0.48056 0.5779 0.0
C4093 C 0.09392 0.53958 0.57666 0.0
C4094 C 0.07739 0.54164 0.5827 0.0
C4095 C 0.11009 0.55756 0.56987 0.0
C4096 C 0.1271 0.55575 0.5627 0.0
C4097 C 0.12089 0.53849 0.5543 0.0
C4098 C 0.13695 0.53662 0.5477 0.0
C4099 C 0.15928 0.55197 0.54938 0.0
C4100 C 0.16561 0.56925 0.55765 0.0
C4101 C 0.14962 0.57119 0.56428 0.0
H4102 H 0.17169 0.55048 0.54428 0.0
H4103 H 0.01695 0.56799 0.60983 0.0
loop_
_geom_bond_atom_site_label_1
_geom_bond_atom_site_label_2
_geom_bond_distance
_geom_bond_site_symmetry_2
_ccdc_geom_bond_type
Co0 O1 2.216 . S
Co0 O2 2.091 . S
Co0 O4 2.004 . S
Co0 O10 2.021 . S
Co0 O12 2.137 . S
Co0 O13 2.244 . S
O1 Co0 2.216 . S
O1 C8 1.247 . S
O2 Co0 2.091 . S
O2 C8 1.261 . S
C3 O12 1.247 . S
C3 O13 1.272 . S
O4 Co0 2.004 . S
O4 C9 1.259 . S
Co5 O6 2.061 . S
Co5 O11 2.052 . S
Co5 O13 2.135 . S
O6 Co5 2.061 . S
O6 C9 1.235 . S
C7 O10 1.238 1_655 S
C7 O11 1.241 1_655 S
C8 O1 1.247 . S
C8 O2 1.261 . S
C9 O4 1.259 . S
C9 O6 1.235 . S
O10 Co0 2.021 . S
O10 C7 1.238 1_455 S
O11 Co5 2.052 . S
O11 C7 1.241 1_455 S
O12 Co0 2.137 . S
O12 C3 1.247 . S
O13 Co0 2.244 . S
O13 C3 1.272 . S
O13 Co5 2.135 . S
Co14 O15 2.216 . S
Co14 O16 2.091 . S
Co14 O18 2.004 . S
Co14 O24 2.021 . S
Co14 O26 2.137 . S
Co14 O27 2.244 . S
O15 Co14 2.216 . S
O15 C22 1.247 . S
O16 Co14 2.091 . S
O16 C22 1.261 . S
C17 O26 1.247 . S
C17 O27 1.272 . S
O18 Co14 2.004 . S
O18 C23 1.259 . S
Co19 O20 2.061 . S
Co19 O25 2.052 . S
Co19 O27 2.135 . S
O20 Co19 2.061 . S
O20 C23 1.235 . S
C21 O24 1.238 . S
C21 O25 1.241 . S
C22 O15 1.247 . S
C22 O16 1.261 . S
C23 O18 1.259 . S
C23 O20 1.235 . S
O24 Co14 2.021 . S
O24 C21 1.238 . S
O25 Co19 2.052 . S
O25 C21 1.241 . S
O26 Co14 2.137 . S
O26 C17 1.247 . S
O27 Co14 2.244 . S
O27 C17 1.272 . S
O27 Co19 2.135 . S
Co28 O29 2.216 . S
Co28 O30 2.091 . S
Co28 O32 2.004 . S
Co28 O38 2.021 . S
Co28 O40 2.137 1_545 S
Co28 O41 2.244 . S
O29 Co28 2.216 . S
O29 C36 1.247 . S
O30 Co28 2.091 . S
O30 C36 1.261 . S
C31 O40 1.247 . S
C31 O41 1.272 1_565 S
O32 Co28 2.004 . S
O32 C37 1.259 . S
Co33 O34 2.061 . S
Co33 O39 2.052 . S
Co33 O41 2.135 . S
O34 Co33 2.061 . S
O34 C37 1.235 . S
C35 O38 1.238 . S
C35 O39 1.241 . S
C36 O29 1.247 . S
C36 O30 1.261 . S
C37 O32 1.259 . S
C37 O34 1.235 . S
O38 Co28 2.021 . S
O38 C35 1.238 . S
O39 Co33 2.052 . S
O39 C35 1.241 . S
O40 Co28 2.137 1_565 S
O40 C31 1.247 . S
O41 Co28 2.244 . S
O41 C31 1.272 1_545 S
O41 Co33 2.135 . S
Co42 O43 2.216 . S
Co42 O44 2.091 . S
Co42 O46 2.004 . S
Co42 O52 2.021 . S
Co42 O54 2.137 . S
Co42 O55 2.244 . S
O43 Co42 2.216 . S
O43 C50 1.247 . S
O44 Co42 2.091 . S
O44 C50 1.261 . S
C45 O54 1.247 . S
C45 O55 1.272 . S
O46 Co42 2.004 . S
O46 C51 1.259 . S
Co47 O48 2.061 . S
Co47 O53 2.052 . S
Co47 O55 2.135 . S
O48 Co47 2.061 . S
O48 C51 1.235 . S
C49 O52 1.238 1_565 S
C49 O53 1.241 1_565 S
C50 O43 1.247 . S
C50 O44 1.261 . S
C51 O46 1.259 . S
C51 O48 1.235 . S
O52 Co42 2.021 . S
O52 C49 1.238 1_545 S
O53 Co47 2.052 . S
O53 C49 1.241 1_545 S
O54 Co42 2.137 . S
O54 C45 1.247 . S
O55 Co42 2.244 . S
O55 C45 1.272 . S
O55 Co47 2.135 . S
Co56 O57 2.216 . S
Co56 O58 2.091 . S
Co56 O60 2.004 . S
Co56 O66 2.021 . S
Co56 O68 2.137 1_455 S
Co56 O69 2.244 . S
O57 Co56 2.216 . S
O57 C64 1.247 . S
O58 Co56 2.091 . S
O58 C64 1.261 . S
C59 O68 1.247 . S
C59 O69 1.272 1_655 S
O60 Co56 2.004 . S
O60 C65 1.259 . S
Co61 O62 2.061 . S
Co61 O67 2.052 . S
Co61 O69 2.135 . S
O62 Co61 2.061 . S
O62 C65 1.235 . S
C63 O66 1.238 . S
C63 O67 1.241 . S
C64 O57 1.247 . S
C64 O58 1.261 . S
C65 O60 1.259 . S
C65 O62 1.235 . S
O66 Co56 2.021 . S
O66 C63 1.238 . S
O67 Co61 2.052 . S
O67 C63 1.241 . S
O68 Co56 2.137 1_655 S
O68 C59 1.247 . S
O69 Co56 2.244 . S
O69 C59 1.272 1_455 S
O69 Co61 2.135 . S
Co70 O71 2.216 . S
Co70 O72 2.091 . S
Co70 O74 2.004 . S
Co70 O80 2.021 . S
Co70 O82 2.137 . S
Co70 O83 2.244 . S
O71 Co70 2.216 . S
O71 C78 1.247 . S
O72 Co70 2.091 . S
O72 C78 1.261 . S
C73 O82 1.247 . S
C73 O83 1.272 . S
O74 Co70 2.004 . S
O74 C79 1.259 . S
Co75 O76 2.061 . S
Co75 O81 2.052 . S
Co75 O83 2.135 . S
O76 Co75 2.061 . S
O76 C79 1.235 . S
C77 O80 1.238 . S
C77 O81 1.241 . S
C78 O71 1.247 . S
C78 O72 1.261 . S
C79 O74 1.259 . S
C79 O76 1.235 . S
O80 Co70 2.021 . S
O80 C77 1.238 . S
O81 Co75 2.052 . S
O81 C77 1.241 . S
O82 Co70 2.137 . S
O82 C73 1.247 . S
O83 Co70 2.244 . S
O83 C73 1.272 . S
O83 Co75 2.135 . S
Co84 O85 2.216 . S
Co84 O86 2.091 . S
Co84 O88 2.004 . S
Co84 O94 2.021 . S
Co84 O96 2.137 1_455 S
Co84 O97 2.244 . S
O85 Co84 2.216 . S
O85 C92 1.247 . S
O86 Co84 2.091 . S
O86 C92 1.261 . S
C87 O96 1.247 . S
C87 O97 1.272 1_655 S
O88 Co84 2.004 . S
O88 C93 1.259 . S
Co89 O90 2.061 . S
Co89 O95 2.052 . S
Co89 O97 2.135 . S
O90 Co89 2.061 . S
O90 C93 1.235 . S
C91 O94 1.238 . S
C91 O95 1.241 . S
C92 O85 1.247 . S
C92 O86 1.261 . S
C93 O88 1.259 . S
C93 O90 1.235 . S
O94 Co84 2.021 . S
O94 C91 1.238 . S
O95 Co89 2.052 . S
O95 C91 1.241 . S
O96 Co84 2.137 1_655 S
O96 C87 1.247 . S
O97 Co84 2.244 . S
O97 C87 1.272 1_455 S
O97 Co89 2.135 . S
Co98 O99 2.216 . S
Co98 O100 2.091 . S
Co98 O102 2.004 . S
Co98 O108 2.021 . S
Co98 O110 2.137 . S
Co98 O111 2.244 . S
O99 Co98 2.216 . S
O99 C106 1.247 . S
O100 Co98 2.091 . S
O100 C106 1.261 . S
C101 O110 1.247 . S
C101 O111 1.272 . S
O102 Co98 2.004 . S
O102 C107 1.259 . S
Co103 O104 2.061 . S
Co103 O109 2.052 . S
Co103 O111 2.135 . S
O104 Co103 2.061 . S
O104 C107 1.235 . S
C105 O108 1.238 . S
C105 O109 1.241 . S
C106 O99 1.247 . S
C106 O100 1.261 . S
C107 O102 1.259 . S
C107 O104 1.235 . S
O108 Co98 2.021 . S
O108 C105 1.238 . S
O109 Co103 2.052 . S
O109 C105 1.241 . S
O110 Co98 2.137 . S
O110 C101 1.247 . S
O111 Co98 2.244 . S
O111 C101 1.272 . S
O111 Co103 2.135 . S
Co112 O113 2.216 . S
Co112 O114 2.091 . S
Co112 O116 2.004 . S
Co112 O122 2.021 . S
Co112 O124 2.137 . S
Co112 O125 2.244 . S
O113 Co112 2.216 . S
O113 C120 1.247 . S
O114 Co112 2.091 . S
O114 C120 1.261 . S
C115 O124 1.247 . S
C115 O125 1.272 . S
O116 Co112 2.004 . S
O116 C121 1.259 . S
Co117 O118 2.061 . S
Co117 O123 2.052 . S
Co117 O125 2.135 . S
O118 Co117 2.061 . S
O118 C121 1.235 . S
C119 O122 1.238 1_565 S
C119 O123 1.241 1_565 S
C120 O113 1.247 . S
C120 O114 1.261 . S
C121 O116 1.259 . S
C121 O118 1.235 . S
O122 Co112 2.021 . S
O122 C119 1.238 1_545 S
O123 Co117 2.052 . S
O123 C119 1.241 1_545 S
O124 Co112 2.137 . S
O124 C115 1.247 . S
O125 Co112 2.244 . S
O125 C115 1.272 . S
O125 Co117 2.135 . S
Co126 O127 2.216 . S
Co126 O128 2.091 . S
Co126 O130 2.004 . S
Co126 O136 2.021 . S
Co126 O138 2.137 1_545 S
Co126 O139 2.244 . S
O127 Co126 2.216 . S
O127 C134 1.247 . S
O128 Co126 2.091 . S
O128 C134 1.261 . S
C129 O138 1.247 . S
C129 O139 1.272 1_565 S
O130 Co126 2.004 . S
O130 C135 1.259 . S
Co131 O132 2.061 . S
Co131 O137 2.052 . S
Co131 O139 2.135 . S
O132 Co131 2.061 . S
O132 C135 1.235 . S
C133 O136 1.238 . S
C133 O137 1.241 . S
C134 O127 1.247 . S
C134 O128 1.261 . S
C135 O130 1.259 . S
C135 O132 1.235 . S
O136 Co126 2.021 . S
O136 C133 1.238 . S
O137 Co131 2.052 . S
O137 C133 1.241 . S
O138 Co126 2.137 1_565 S
O138 C129 1.247 . S
O139 Co126 2.244 . S
O139 C129 1.272 1_545 S
O139 Co131 2.135 . S
Co140 O141 2.216 . S
Co140 O142 2.091 . S
Co140 O144 2.004 . S
Co140 O150 2.021 . S
Co140 O152 2.137 . S
Co140 O153 2.244 . S
O141 Co140 2.216 . S
O141 C148 1.247 . S
O142 Co140 2.091 . S
O142 C148 1.261 . S
C143 O152 1.247 . S
C143 O153 1.272 . S
O144 Co140 2.004 . S
O144 C149 1.259 . S
Co145 O146 2.061 . S
Co145 O151 2.052 . S
Co145 O153 2.135 . S
O146 Co145 2.061 . S
O146 C149 1.235 . S
C147 O150 1.238 1_655 S
C147 O151 1.241 1_655 S
C148 O141 1.247 . S
C148 O142 1.261 . S
C149 O144 1.259 . S
C149 O146 1.235 . S
O150 Co140 2.021 . S
O150 C147 1.238 1_455 S
O151 Co145 2.052 . S
O151 C147 1.241 1_455 S
O152 Co140 2.137 . S
O152 C143 1.247 . S
O153 Co140 2.244 . S
O153 C143 1.272 . S
O153 Co145 2.135 . S
Co154 O155 2.216 . S
Co154 O156 2.091 . S
Co154 O158 2.004 . S
Co154 O164 2.021 . S
Co154 O166 2.137 . S
Co154 O167 2.244 . S
O155 Co154 2.216 . S
O155 C162 1.247 . S
O156 Co154 2.091 . S
O156 C162 1.261 . S
C157 O166 1.247 . S
C157 O167 1.272 . S
O158 Co154 2.004 . S
O158 C163 1.259 . S
Co159 O160 2.061 . S
Co159 O165 2.052 . S
Co159 O167 2.135 . S
O160 Co159 2.061 . S
O160 C163 1.235 . S
C161 O164 1.238 . S
C161 O165 1.241 . S
C162 O155 1.247 . S
C162 O156 1.261 . S
C163 O158 1.259 . S
C163 O160 1.235 . S
O164 Co154 2.021 . S
O164 C161 1.238 . S
O165 Co159 2.052 . S
O165 C161 1.241 . S
O166 Co154 2.137 . S
O166 C157 1.247 . S
O167 Co154 2.244 . S
O167 C157 1.272 . S
O167 Co159 2.135 . S
Co168 O169 2.216 . S
Co168 O170 2.091 . S
Co168 O172 2.004 . S
Co168 O178 2.021 . S
Co168 O180 2.137 . S
Co168 O181 2.244 . S
O169 Co168 2.216 . S
O169 C176 1.247 . S
O170 Co168 2.091 . S
O170 C176 1.261 . S
C171 O180 1.247 . S
C171 O181 1.272 . S
O172 Co168 2.004 . S
O172 C177 1.259 . S
Co173 O174 2.061 . S
Co173 O179 2.052 . S
Co173 O181 2.135 . S
O174 Co173 2.061 . S
O174 C177 1.235 . S
C175 O178 1.238 . S
C175 O179 1.241 . S
C176 O169 1.247 . S
C176 O170 1.261 . S
C177 O172 1.259 . S
C177 O174 1.235 . S
O178 Co168 2.021 . S
O178 C175 1.238 . S
O179 Co173 2.052 . S
O179 C175 1.241 . S
O180 Co168 2.137 . S
O180 C171 1.247 . S
O181 Co168 2.244 . S
O181 C171 1.272 . S
O181 Co173 2.135 . S
Co182 O183 2.216 . S
Co182 O184 2.091 . S
Co182 O186 2.004 . S
Co182 O192 2.021 . S
Co182 O194 2.137 . S
Co182 O195 2.244 . S
O183 Co182 2.216 . S
O183 C190 1.247 . S
O184 Co182 2.091 . S
O184 C190 1.261 . S
C185 O194 1.247 . S
C185 O195 1.272 . S
O186 Co182 2.004 . S
O186 C191 1.259 . S
Co187 O188 2.061 . S
Co187 O193 2.052 . S
Co187 O195 2.135 . S
O188 Co187 2.061 . S
O188 C191 1.235 . S
C189 O192 1.238 . S
C189 O193 1.241 . S
C190 O183 1.247 . S
C190 O184 1.261 . S
C191 O186 1.259 . S
C191 O188 1.235 . S
O192 Co182 2.021 . S
O192 C189 1.238 . S
O193 Co187 2.052 . S
O193 C189 1.241 . S
O194 Co182 2.137 . S
O194 C185 1.247 . S
O195 Co182 2.244 . S
O195 C185 1.272 . S
O195 Co187 2.135 . S
Co196 O197 2.216 . S
Co196 O198 2.091 1_655 S
Co196 O200 2.004 . S
Co196 O206 2.021 . S
Co196 O208 2.137 . S
Co196 O209 2.244 . S
O197 Co196 2.216 . S
O197 C204 1.247 . S
O198 Co196 2.091 1_455 S
O198 C204 1.261 1_455 S
C199 O208 1.247 . S
C199 O209 1.272 . S
O200 Co196 2.004 . S
O200 C205 1.259 . S
Co201 O202 2.061 . S
Co201 O207 2.052 . S
Co201 O209 2.135 . S
O202 Co201 2.061 . S
O202 C205 1.235 . S
C203 O206 1.238 . S
C203 O207 1.241 . S
C204 O197 1.247 . S
C204 O198 1.261 1_655 S
C205 O200 1.259 . S
C205 O202 1.235 . S
O206 Co196 2.021 . S
O206 C203 1.238 . S
O207 Co201 2.052 . S
O207 C203 1.241 . S
O208 Co196 2.137 . S
O208 C199 1.247 . S
O209 Co196 2.244 . S
O209 C199 1.272 . S
O209 Co201 2.135 . S
Co210 O211 2.216 . S
Co210 O212 2.091 1_655 S
Co210 O214 2.004 . S
Co210 O220 2.021 . S
Co210 O222 2.136 . S
Co210 O223 2.244 . S
O211 Co210 2.216 . S
O211 C218 1.247 . S
O212 Co210 2.091 1_455 S
O212 C218 1.261 1_455 S
C213 O222 1.265 . S
C213 O223 1.272 . S
O214 Co210 2.004 . S
O214 C219 1.259 . S
Co215 O216 2.061 . S
Co215 O221 2.052 . S
Co215 O223 2.135 . S
O216 Co215 2.061 . S
O216 C219 1.235 . S
C217 O220 1.238 . S
C217 O221 1.241 . S
C218 O211 1.247 . S
C218 O212 1.261 1_655 S
C219 O214 1.259 . S
C219 O216 1.235 . S
O220 Co210 2.021 . S
O220 C217 1.238 . S
O221 Co215 2.052 . S
O221 C217 1.241 . S
O222 Co210 2.136 . S
O222 C213 1.265 . S
O223 Co210 2.244 . S
O223 C213 1.272 . S
O223 Co215 2.135 . S
Co224 O225 2.216 . S
Co224 O226 2.091 . S
Co224 O228 2.004 . S
Co224 O234 2.021 . S
Co224 O236 2.137 . S
Co224 O237 2.244 . S
O225 Co224 2.216 . S
O225 C232 1.247 . S
O226 Co224 2.091 . S
O226 C232 1.261 . S
C227 O236 1.247 . S
C227 O237 1.272 . S
O228 Co224 2.004 . S
O228 C233 1.259 . S
Co229 O230 2.061 . S
Co229 O235 2.052 . S
Co229 O237 2.135 . S
O230 Co229 2.061 . S
O230 C233 1.235 . S
C231 O234 1.238 . S
C231 O235 1.241 . S
C232 O225 1.247 . S
C232 O226 1.261 . S
C233 O228 1.259 . S
C233 O230 1.235 . S
O234 Co224 2.021 . S
O234 C231 1.238 . S
O235 Co229 2.052 . S
O235 C231 1.241 . S
O236 Co224 2.137 . S
O236 C227 1.247 . S
O237 Co224 2.244 . S
O237 C227 1.272 . S
O237 Co229 2.135 . S
Co238 O239 2.216 . S
Co238 O240 2.091 . S
Co238 O242 2.004 . S
Co238 O248 2.021 . S
Co238 O250 2.137 . S
Co238 O251 2.244 . S
O239 Co238 2.216 . S
O239 C246 1.247 . S
O240 Co238 2.091 . S
O240 C246 1.261 . S
C241 O250 1.247 . S
C241 O251 1.272 . S
O242 Co238 2.004 . S
O242 C247 1.259 . S
Co243 O244 2.061 . S
Co243 O249 2.052 . S
Co243 O251 2.135 . S
O244 Co243 2.061 . S
O244 C247 1.235 . S
C245 O248 1.238 . S
C245 O249 1.241 . S
C246 O239 1.247 . S
C246 O240 1.261 . S
C247 O242 1.259 . S
C247 O244 1.235 . S
O248 Co238 2.021 . S
O248 C245 1.238 . S
O249 Co243 2.052 . S
O249 C245 1.241 . S
O250 Co238 2.137 . S
O250 C241 1.247 . S
O251 Co238 2.244 . S
O251 C241 1.272 . S
O251 Co243 2.135 . S
Co252 O253 2.216 . S
Co252 O254 2.091 . S
Co252 O256 2.004 . S
Co252 O262 2.021 . S
Co252 O264 2.137 . S
Co252 O265 2.244 . S
O253 Co252 2.216 . S
O253 C260 1.247 . S
O254 Co252 2.091 . S
O254 C260 1.261 . S
C255 O264 1.247 . S
C255 O265 1.272 . S
O256 Co252 2.004 . S
O256 C261 1.259 . S
Co257 O258 2.061 . S
Co257 O263 2.052 . S
Co257 O265 2.135 . S
O258 Co257 2.061 . S
O258 C261 1.235 . S
C259 O262 1.238 . S
C259 O263 1.241 . S
C260 O253 1.247 . S
C260 O254 1.261 . S
C261 O256 1.259 . S
C261 O258 1.235 . S
O262 Co252 2.021 . S
O262 C259 1.238 . S
O263 Co257 2.052 . S
O263 C259 1.241 . S
O264 Co252 2.137 . S
O264 C255 1.247 . S
O265 Co252 2.244 . S
O265 C255 1.272 . S
O265 Co257 2.135 . S
Co266 O267 2.216 . S
Co266 O268 2.091 1_655 S
Co266 O270 2.004 . S
Co266 O276 2.021 . S
Co266 O278 2.152 . S
Co266 O279 2.244 . S
O267 Co266 2.216 . S
O267 C274 1.247 . S
O268 Co266 2.091 1_455 S
O268 C274 1.261 1_455 S
C269 O278 1.255 . S
C269 O279 1.272 . S
O270 Co266 2.004 . S
O270 C275 1.259 . S
Co271 O272 2.061 . S
Co271 O277 2.052 . S
Co271 O279 2.135 . S
O272 Co271 2.061 . S
O272 C275 1.235 . S
C273 O276 1.238 . S
C273 O277 1.241 . S
C274 O267 1.247 . S
C274 O268 1.261 1_655 S
C275 O270 1.259 . S
C275 O272 1.235 . S
O276 Co266 2.021 . S
O276 C273 1.238 . S
O277 Co271 2.052 . S
O277 C273 1.241 . S
O278 Co266 2.152 . S
O278 C269 1.255 . S
O279 Co266 2.244 . S
O279 C269 1.272 . S
O279 Co271 2.135 . S
Co280 O281 2.216 . S
Co280 O282 2.091 . S
Co280 O284 2.004 . S
Co280 O290 2.021 . S
Co280 O292 2.137 . S
Co280 O293 2.244 . S
O281 Co280 2.216 . S
O281 C288 1.247 . S
O282 Co280 2.091 . S
O282 C288 1.261 . S
C283 O292 1.247 . S
C283 O293 1.272 . S
O284 Co280 2.004 . S
O284 C289 1.259 . S
Co285 O286 2.061 . S
Co285 O291 2.052 . S
Co285 O293 2.135 . S
O286 Co285 2.061 . S
O286 C289 1.235 . S
C287 O290 1.238 . S
C287 O291 1.241 . S
C288 O281 1.247 . S
C288 O282 1.261 . S
C289 O284 1.259 . S
C289 O286 1.235 . S
O290 Co280 2.021 . S
O290 C287 1.238 . S
O291 Co285 2.052 . S
O291 C287 1.241 . S
O292 Co280 2.137 . S
O292 C283 1.247 . S
O293 Co280 2.244 . S
O293 C283 1.272 . S
O293 Co285 2.135 . S
Co294 O295 2.216 . S
Co294 O296 2.091 . S
Co294 O298 2.004 . S
Co294 O304 2.021 . S
Co294 O306 2.137 . S
Co294 O307 2.244 . S
O295 Co294 2.216 . S
O295 C302 1.247 . S
O296 Co294 2.091 . S
O296 C302 1.261 . S
C297 O306 1.247 . S
C297 O307 1.272 . S
O298 Co294 2.004 . S
O298 C303 1.259 . S
Co299 O300 2.061 . S
Co299 O305 2.052 . S
Co299 O307 2.135 . S
O300 Co299 2.061 . S
O300 C303 1.235 . S
C301 O304 1.238 . S
C301 O305 1.241 . S
C302 O295 1.247 . S
C302 O296 1.261 . S
C303 O298 1.259 . S
C303 O300 1.235 . S
O304 Co294 2.021 . S
O304 C301 1.238 . S
O305 Co299 2.052 . S
O305 C301 1.241 . S
O306 Co294 2.137 . S
O306 C297 1.247 . S
O307 Co294 2.244 . S
O307 C297 1.272 . S
O307 Co299 2.135 . S
Co308 O309 2.216 . S
Co308 O310 2.091 . S
Co308 O312 2.004 . S
Co308 O318 2.021 . S
Co308 O320 2.137 . S
Co308 O321 2.244 . S
O309 Co308 2.216 . S
O309 C316 1.247 . S
O310 Co308 2.091 . S
O310 C316 1.261 . S
C311 O320 1.247 . S
C311 O321 1.272 . S
O312 Co308 2.004 . S
O312 C317 1.259 . S
Co313 O314 2.061 . S
Co313 O319 2.052 . S
Co313 O321 2.135 . S
O314 Co313 2.061 . S
O314 C317 1.235 . S
C315 O318 1.238 . S
C315 O319 1.241 . S
C316 O309 1.247 . S
C316 O310 1.261 . S
C317 O312 1.259 . S
C317 O314 1.235 . S
O318 Co308 2.021 . S
O318 C315 1.238 . S
O319 Co313 2.052 . S
O319 C315 1.241 . S
O320 Co308 2.137 . S
O320 C311 1.247 . S
O321 Co308 2.244 . S
O321 C311 1.272 . S
O321 Co313 2.135 . S
Co322 O323 2.216 . S
Co322 O324 2.091 1_655 S
Co322 O326 2.004 . S
Co322 O332 2.021 . S
Co322 O334 2.137 . S
Co322 O335 2.244 . S
O323 Co322 2.216 . S
O323 C330 1.247 . S
O324 Co322 2.091 1_455 S
O324 C330 1.261 1_455 S
C325 O334 1.247 . S
C325 O335 1.272 . S
O326 Co322 2.004 . S
O326 C331 1.259 . S
Co327 O328 2.061 . S
Co327 O333 2.052 . S
Co327 O335 2.135 . S
O328 Co327 2.061 . S
O328 C331 1.235 . S
C329 O332 1.238 . S
C329 O333 1.241 . S
C330 O323 1.247 . S
C330 O324 1.261 1_655 S
C331 O326 1.259 . S
C331 O328 1.235 . S
O332 Co322 2.021 . S
O332 C329 1.238 . S
O333 Co327 2.052 . S
O333 C329 1.241 . S
O334 Co322 2.137 . S
O334 C325 1.247 . S
O335 Co322 2.244 . S
O335 C325 1.272 . S
O335 Co327 2.135 . S
Co336 O337 2.216 . S
Co336 O338 2.091 1_565 S
Co336 O340 2.004 . S
Co336 O346 2.021 . S
Co336 O348 2.136 . S
Co336 O349 2.244 . S
O337 Co336 2.216 . S
O337 C344 1.247 . S
O338 Co336 2.091 1_545 S
O338 C344 1.261 1_545 S
C339 O348 1.265 . S
C339 O349 1.272 . S
O340 Co336 2.004 . S
O340 C345 1.259 . S
Co341 O342 2.061 . S
Co341 O347 2.052 . S
Co341 O349 2.135 . S
O342 Co341 2.061 . S
O342 C345 1.235 . S
C343 O346 1.238 . S
C343 O347 1.241 . S
C344 O337 1.247 . S
C344 O338 1.261 1_565 S
C345 O340 1.259 . S
C345 O342 1.235 . S
O346 Co336 2.021 . S
O346 C343 1.238 . S
O347 Co341 2.052 . S
O347 C343 1.241 . S
O348 Co336 2.136 . S
O348 C339 1.265 . S
O349 Co336 2.244 . S
O349 C339 1.272 . S
O349 Co341 2.135 . S
Co350 O351 2.216 . S
Co350 O352 2.091 . S
Co350 O354 2.004 . S
Co350 O360 2.021 . S
Co350 O362 2.137 . S
Co350 O363 2.244 . S
O351 Co350 2.216 . S
O351 C358 1.247 . S
O352 Co350 2.091 . S
O352 C358 1.261 . S
C353 O362 1.247 . S
C353 O363 1.272 . S
O354 Co350 2.004 . S
O354 C359 1.259 . S
Co355 O356 2.061 . S
Co355 O361 2.052 . S
Co355 O363 2.135 . S
O356 Co355 2.061 . S
O356 C359 1.235 . S
C357 O360 1.238 . S
C357 O361 1.241 . S
C358 O351 1.247 . S
C358 O352 1.261 . S
C359 O354 1.259 . S
C359 O356 1.235 . S
O360 Co350 2.021 . S
O360 C357 1.238 . S
O361 Co355 2.052 . S
O361 C357 1.241 . S
O362 Co350 2.137 . S
O362 C353 1.247 . S
O363 Co350 2.244 . S
O363 C353 1.272 . S
O363 Co355 2.135 . S
Co364 O365 2.216 . S
Co364 O366 2.091 . S
Co364 O368 2.004 . S
Co364 O374 2.021 . S
Co364 O376 2.137 . S
Co364 O377 2.244 . S
O365 Co364 2.216 . S
O365 C372 1.247 . S
O366 Co364 2.091 . S
O366 C372 1.261 . S
C367 O376 1.247 . S
C367 O377 1.272 . S
O368 Co364 2.004 . S
O368 C373 1.259 . S
Co369 O370 2.061 . S
Co369 O375 2.052 . S
Co369 O377 2.135 . S
O370 Co369 2.061 . S
O370 C373 1.235 . S
C371 O374 1.238 . S
C371 O375 1.241 . S
C372 O365 1.247 . S
C372 O366 1.261 . S
C373 O368 1.259 . S
C373 O370 1.235 . S
O374 Co364 2.021 . S
O374 C371 1.238 . S
O375 Co369 2.052 . S
O375 C371 1.241 . S
O376 Co364 2.137 . S
O376 C367 1.247 . S
O377 Co364 2.244 . S
O377 C367 1.272 . S
O377 Co369 2.135 . S
Co378 O379 2.216 . S
Co378 O380 2.091 . S
Co378 O382 2.004 . S
Co378 O388 2.021 . S
Co378 O390 2.137 . S
Co378 O391 2.244 . S
O379 Co378 2.216 . S
O379 C386 1.247 . S
O380 Co378 2.091 . S
O380 C386 1.261 . S
C381 O390 1.247 . S
C381 O391 1.272 . S
O382 Co378 2.004 . S
O382 C387 1.259 . S
Co383 O384 2.061 . S
Co383 O389 2.052 . S
Co383 O391 2.135 . S
O384 Co383 2.061 . S
O384 C387 1.235 . S
C385 O388 1.238 . S
C385 O389 1.241 . S
C386 O379 1.247 . S
C386 O380 1.261 . S
C387 O382 1.259 . S
C387 O384 1.235 . S
O388 Co378 2.021 . S
O388 C385 1.238 . S
O389 Co383 2.052 . S
O389 C385 1.241 . S
O390 Co378 2.137 . S
O390 C381 1.247 . S
O391 Co378 2.244 . S
O391 C381 1.272 . S
O391 Co383 2.135 . S
Co392 O393 2.216 . S
Co392 O394 2.091 1_565 S
Co392 O396 2.004 . S
Co392 O402 2.021 . S
Co392 O404 2.137 . S
Co392 O405 2.244 . S
O393 Co392 2.216 . S
O393 C400 1.247 . S
O394 Co392 2.091 1_545 S
O394 C400 1.261 1_545 S
C395 O404 1.247 . S
C395 O405 1.272 . S
O396 Co392 2.004 . S
O396 C401 1.259 . S
Co397 O398 2.061 . S
Co397 O403 2.052 . S
Co397 O405 2.135 . S
O398 Co397 2.061 . S
O398 C401 1.235 . S
C399 O402 1.238 . S
C399 O403 1.241 . S
C400 O393 1.247 . S
C400 O394 1.261 1_565 S
C401 O396 1.259 . S
C401 O398 1.235 . S
O402 Co392 2.021 . S
O402 C399 1.238 . S
O403 Co397 2.052 . S
O403 C399 1.241 . S
O404 Co392 2.137 . S
O404 C395 1.247 . S
O405 Co392 2.244 . S
O405 C395 1.272 . S
O405 Co397 2.135 . S
Co406 O407 2.216 . S
Co406 O408 2.091 . S
Co406 O410 2.004 . S
Co406 O416 2.021 . S
Co406 O418 2.137 . S
Co406 O419 2.244 . S
O407 Co406 2.216 . S
O407 C414 1.247 . S
O408 Co406 2.091 . S
O408 C414 1.261 . S
C409 O418 1.247 . S
C409 O419 1.272 . S
O410 Co406 2.004 . S
O410 C415 1.259 . S
Co411 O412 2.061 . S
Co411 O417 2.052 . S
Co411 O419 2.135 . S
O412 Co411 2.061 . S
O412 C415 1.235 . S
C413 O416 1.238 . S
C413 O417 1.241 . S
C414 O407 1.247 . S
C414 O408 1.261 . S
C415 O410 1.259 . S
C415 O412 1.235 . S
O416 Co406 2.021 . S
O416 C413 1.238 . S
O417 Co411 2.052 . S
O417 C413 1.241 . S
O418 Co406 2.137 . S
O418 C409 1.247 . S
O419 Co406 2.244 . S
O419 C409 1.272 . S
O419 Co411 2.135 . S
Co420 O421 2.216 . S
Co420 O422 2.091 . S
Co420 O424 2.004 . S
Co420 O430 2.021 . S
Co420 O432 2.137 . S
Co420 O433 2.244 . S
O421 Co420 2.216 . S
O421 C428 1.247 . S
O422 Co420 2.091 . S
O422 C428 1.261 . S
C423 O432 1.247 . S
C423 O433 1.272 . S
O424 Co420 2.004 . S
O424 C429 1.259 . S
Co425 O426 2.061 . S
Co425 O431 2.052 . S
Co425 O433 2.135 . S
O426 Co425 2.061 . S
O426 C429 1.235 . S
C427 O430 1.238 . S
C427 O431 1.241 . S
C428 O421 1.247 . S
C428 O422 1.261 . S
C429 O424 1.259 . S
C429 O426 1.235 . S
O430 Co420 2.021 . S
O430 C427 1.238 . S
O431 Co425 2.052 . S
O431 C427 1.241 . S
O432 Co420 2.137 . S
O432 C423 1.247 . S
O433 Co420 2.244 . S
O433 C423 1.272 . S
O433 Co425 2.135 . S
Co434 O435 2.216 . S
Co434 O436 2.091 1_565 S
Co434 O438 2.004 . S
Co434 O444 2.021 . S
Co434 O446 2.137 . S
Co434 O447 2.244 . S
O435 Co434 2.216 . S
O435 C442 1.247 . S
O436 Co434 2.091 1_545 S
O436 C442 1.261 1_545 S
C437 O446 1.247 . S
C437 O447 1.272 . S
O438 Co434 2.004 . S
O438 C443 1.259 . S
Co439 O440 2.061 . S
Co439 O445 2.052 . S
Co439 O447 2.135 . S
O440 Co439 2.061 . S
O440 C443 1.235 . S
C441 O444 1.238 . S
C441 O445 1.241 . S
C442 O435 1.247 . S
C442 O436 1.261 1_565 S
C443 O438 1.259 . S
C443 O440 1.235 . S
O444 Co434 2.021 . S
O444 C441 1.238 . S
O445 Co439 2.052 . S
O445 C441 1.241 . S
O446 Co434 2.137 . S
O446 C437 1.247 . S
O447 Co434 2.244 . S
O447 C437 1.272 . S
O447 Co439 2.135 . S
Co448 O449 2.216 . S
Co448 O450 2.091 . S
Co448 O452 2.004 . S
Co448 O458 2.021 . S
Co448 O460 2.137 . S
Co448 O461 2.244 . S
O449 Co448 2.216 . S
O449 C456 1.247 . S
O450 Co448 2.091 . S
O450 C456 1.261 . S
C451 O460 1.247 . S
C451 O461 1.272 . S
O452 Co448 2.004 . S
O452 C457 1.259 . S
Co453 O454 2.061 . S
Co453 O459 2.052 . S
Co453 O461 2.135 . S
O454 Co453 2.061 . S
O454 C457 1.235 . S
C455 O458 1.238 . S
C455 O459 1.241 . S
C456 O449 1.247 . S
C456 O450 1.261 . S
C457 O452 1.259 . S
C457 O454 1.235 . S
O458 Co448 2.021 . S
O458 C455 1.238 . S
O459 Co453 2.052 . S
O459 C455 1.241 . S
O460 Co448 2.137 . S
O460 C451 1.247 . S
O461 Co448 2.244 . S
O461 C451 1.272 . S
O461 Co453 2.135 . S
Co462 O463 2.216 . S
Co462 O464 2.091 . S
Co462 O466 2.004 . S
Co462 O472 2.021 . S
Co462 O474 2.137 . S
Co462 O475 2.244 . S
O463 Co462 2.216 . S
O463 C470 1.247 . S
O464 Co462 2.091 . S
O464 C470 1.261 . S
C465 O474 1.247 . S
C465 O475 1.272 . S
O466 Co462 2.004 . S
O466 C471 1.259 . S
Co467 O468 2.061 . S
Co467 O473 2.052 . S
Co467 O475 2.135 . S
O468 Co467 2.061 . S
O468 C471 1.235 . S
C469 O472 1.238 . S
C469 O473 1.241 . S
C470 O463 1.247 . S
C470 O464 1.261 . S
C471 O466 1.259 . S
C471 O468 1.235 . S
O472 Co462 2.021 . S
O472 C469 1.238 . S
O473 Co467 2.052 . S
O473 C469 1.241 . S
O474 Co462 2.137 . S
O474 C465 1.247 . S
O475 Co462 2.244 . S
O475 C465 1.272 . S
O475 Co467 2.135 . S
Co476 O477 2.216 . S
Co476 O478 2.091 . S
Co476 O480 2.004 . S
Co476 O486 2.021 . S
Co476 O488 2.137 . S
Co476 O489 2.244 . S
O477 Co476 2.216 . S
O477 C484 1.247 . S
O478 Co476 2.091 . S
O478 C484 1.261 . S
C479 O488 1.247 . S
C479 O489 1.272 . S
O480 Co476 2.004 . S
O480 C485 1.259 . S
Co481 O482 2.061 . S
Co481 O487 2.052 . S
Co481 O489 2.135 . S
O482 Co481 2.061 . S
O482 C485 1.235 . S
C483 O486 1.238 . S
C483 O487 1.241 . S
C484 O477 1.247 . S
C484 O478 1.261 . S
C485 O480 1.259 . S
C485 O482 1.235 . S
O486 Co476 2.021 . S
O486 C483 1.238 . S
O487 Co481 2.052 . S
O487 C483 1.241 . S
O488 Co476 2.137 . S
O488 C479 1.247 . S
O489 Co476 2.244 . S
O489 C479 1.272 . S
O489 Co481 2.135 . S
Co490 O491 2.216 . S
Co490 O492 2.091 1_565 S
Co490 O494 2.004 . S
Co490 O500 2.021 . S
Co490 O502 2.152 . S
Co490 O503 2.244 . S
O491 Co490 2.216 . S
O491 C498 1.247 . S
O492 Co490 2.091 1_545 S
O492 C498 1.261 1_545 S
C493 O502 1.255 . S
C493 O503 1.272 . S
O494 Co490 2.004 . S
O494 C499 1.259 . S
Co495 O496 2.061 . S
Co495 O501 2.052 . S
Co495 O503 2.135 . S
O496 Co495 2.061 . S
O496 C499 1.235 . S
C497 O500 1.238 . S
C497 O501 1.241 . S
C498 O491 1.247 . S
C498 O492 1.261 1_565 S
C499 O494 1.259 . S
C499 O496 1.235 . S
O500 Co490 2.021 . S
O500 C497 1.238 . S
O501 Co495 2.052 . S
O501 C497 1.241 . S
O502 Co490 2.152 . S
O502 C493 1.255 . S
O503 Co490 2.244 . S
O503 C493 1.272 . S
O503 Co495 2.135 . S
H504 C522 0.951 . S
H505 C524 0.951 . S
H506 C526 0.950 . S
H507 C527 0.950 . S
H508 C529 0.950 . S
H509 C532 0.950 . S
H510 C533 0.950 . S
H511 C535 0.950 . S
H512 C536 0.950 . S
H513 C537 0.951 . S
H514 C539 0.951 . S
H515 C541 0.950 . S
H516 C542 0.950 . S
H517 C544 0.950 . S
H518 C547 0.950 . S
H519 C548 0.950 . S
H520 C550 0.950 . S
H521 C551 0.950 . S
C522 H504 0.951 . S
C522 C523 1.366 . S
C522 C524 1.388 . S
C523 C522 1.366 . S
C523 C527 1.385 . S
C524 H505 0.951 . S
C524 C522 1.388 . S
C524 C525 1.366 . S
C525 C524 1.366 . S
C525 C526 1.414 . S
C525 C528 1.499 . S
C526 H506 0.950 . S
C526 C525 1.414 . S
C526 C527 1.374 . S
C527 H507 0.950 . S
C527 C523 1.385 . S
C527 C526 1.374 . S
C528 C525 1.499 . S
C528 C529 1.373 . S
C528 C530 1.389 . S
C529 H508 0.950 . S
C529 C528 1.373 . S
C529 C545 1.377 . S
C530 C528 1.389 . S
C530 C531 1.524 . S
C530 C544 1.377 . S
C531 C530 1.524 . S
C531 C532 1.397 . S
C531 C536 1.363 . S
C532 H509 0.950 . S
C532 C531 1.397 . S
C532 C533 1.334 . S
C533 H510 0.950 . S
C533 C532 1.334 . S
C533 C534 1.287 . S
C534 C533 1.287 . S
C534 C535 1.524 . S
C534 H553 0.913 . S
C535 H511 0.950 . S
C535 C534 1.524 . S
C535 C536 1.415 . S
C536 H512 0.950 . S
C536 C531 1.363 . S
C536 C535 1.415 . S
C537 H513 0.951 . S
C537 C538 1.366 . S
C537 C539 1.388 . S
C538 C537 1.366 . S
C538 C542 1.385 . S
C539 H514 0.951 . S
C539 C537 1.388 . S
C539 C540 1.366 . S
C540 C539 1.366 . S
C540 C541 1.414 . S
C540 C543 1.499 . S
C541 H515 0.950 . S
C541 C540 1.414 . S
C541 C542 1.374 . S
C542 H516 0.950 . S
C542 C538 1.385 . S
C542 C541 1.374 . S
C543 C540 1.499 . S
C543 C544 1.373 . S
C543 C545 1.389 . S
C544 H517 0.950 . S
C544 C530 1.377 . S
C544 C543 1.373 . S
C545 C529 1.377 . S
C545 C543 1.389 . S
C545 C546 1.524 . S
C546 C545 1.524 . S
C546 C547 1.397 . S
C546 C551 1.363 . S
C547 H518 0.950 . S
C547 C546 1.397 . S
C547 C548 1.334 . S
C548 H519 0.950 . S
C548 C547 1.334 . S
C548 C549 1.287 . S
C549 C548 1.287 . S
C549 C550 1.524 . S
C549 H552 0.999 . S
C550 H520 0.950 . S
C550 C549 1.524 . S
C550 C551 1.415 . S
C551 H521 0.950 . S
C551 C546 1.363 . S
C551 C550 1.415 . S
H552 C549 0.999 . S
H553 C534 0.913 . S
H554 C572 0.951 . S
H555 C574 0.951 . S
H556 C576 0.950 . S
H557 C577 0.950 . S
H558 C579 0.950 . S
H559 C582 0.950 . S
H560 C583 0.950 . S
H561 C585 0.950 . S
H562 C586 0.950 . S
H563 C587 0.951 . S
H564 C589 0.951 . S
H565 C591 0.950 . S
H566 C592 0.950 . S
H567 C594 0.950 . S
H568 C597 0.950 . S
H569 C598 0.950 . S
H570 C600 0.950 . S
H571 C601 0.950 . S
C572 H554 0.951 . S
C572 C573 1.366 . S
C572 C574 1.388 . S
C573 C572 1.366 . S
C573 C577 1.385 . S
C574 H555 0.951 . S
C574 C572 1.388 . S
C574 C575 1.366 . S
C575 C574 1.366 . S
C575 C576 1.414 . S
C575 C578 1.499 . S
C576 H556 0.950 . S
C576 C575 1.414 . S
C576 C577 1.374 . S
C577 H557 0.950 . S
C577 C573 1.385 . S
C577 C576 1.374 . S
C578 C575 1.499 . S
C578 C579 1.373 . S
C578 C580 1.389 . S
C579 H558 0.950 . S
C579 C578 1.373 . S
C579 C595 1.377 . S
C580 C578 1.389 . S
C580 C581 1.524 . S
C580 C594 1.377 . S
C581 C580 1.524 . S
C581 C582 1.397 . S
C581 C586 1.363 . S
C582 H559 0.950 . S
C582 C581 1.397 . S
C582 C583 1.334 . S
C583 H560 0.950 . S
C583 C582 1.334 . S
C583 C584 1.287 . S
C584 C583 1.287 . S
C584 C585 1.524 . S
C584 H603 0.913 . S
C585 H561 0.950 . S
C585 C584 1.524 . S
C585 C586 1.415 . S
C586 H562 0.950 . S
C586 C581 1.363 . S
C586 C585 1.415 . S
C587 H563 0.951 . S
C587 C588 1.366 . S
C587 C589 1.388 . S
C588 C587 1.366 . S
C588 C592 1.385 . S
C589 H564 0.951 . S
C589 C587 1.388 . S
C589 C590 1.366 . S
C590 C589 1.366 . S
C590 C591 1.414 . S
C590 C593 1.499 . S
C591 H565 0.950 . S
C591 C590 1.414 . S
C591 C592 1.374 . S
C592 H566 0.950 . S
C592 C588 1.385 . S
C592 C591 1.374 . S
C593 C590 1.499 . S
C593 C594 1.373 . S
C593 C595 1.389 . S
C594 H567 0.950 . S
C594 C580 1.377 . S
C594 C593 1.373 . S
C595 C579 1.377 . S
C595 C593 1.389 . S
C595 C596 1.524 . S
C596 C595 1.524 . S
C596 C597 1.397 . S
C596 C601 1.363 . S
C597 H568 0.950 . S
C597 C596 1.397 . S
C597 C598 1.334 . S
C598 H569 0.950 . S
C598 C597 1.334 . S
C598 C599 1.287 . S
C599 C598 1.287 . S
C599 C600 1.524 . S
C599 H602 0.999 . S
C600 H570 0.950 . S
C600 C599 1.524 . S
C600 C601 1.415 . S
C601 H571 0.950 . S
C601 C596 1.363 . S
C601 C600 1.415 . S
H602 C599 0.999 . S
H603 C584 0.913 . S
H604 C622 0.951 . S
H605 C624 0.951 . S
H606 C626 0.950 . S
H607 C627 0.950 . S
H608 C629 0.950 . S
H609 C632 0.950 . S
H610 C633 0.950 . S
H611 C635 0.950 . S
H612 C636 0.950 . S
H613 C637 0.951 . S
H614 C639 0.951 . S
H615 C641 0.950 . S
H616 C642 0.950 . S
H617 C644 0.950 . S
H618 C647 0.950 . S
H619 C648 0.950 . S
H620 C650 0.950 . S
H621 C651 0.950 . S
C622 H604 0.951 . S
C622 C623 1.366 . S
C622 C624 1.388 . S
C623 C622 1.366 . S
C623 C627 1.385 . S
C624 H605 0.951 . S
C624 C622 1.388 . S
C624 C625 1.366 . S
C625 C624 1.366 . S
C625 C626 1.414 . S
C625 C628 1.499 . S
C626 H606 0.950 . S
C626 C625 1.414 . S
C626 C627 1.374 . S
C627 H607 0.950 . S
C627 C623 1.385 . S
C627 C626 1.374 . S
C628 C625 1.499 . S
C628 C629 1.373 . S
C628 C630 1.389 . S
C629 H608 0.950 . S
C629 C628 1.373 . S
C629 C645 1.377 . S
C630 C628 1.389 . S
C630 C631 1.524 . S
C630 C644 1.377 . S
C631 C630 1.524 . S
C631 C632 1.397 . S
C631 C636 1.363 . S
C632 H609 0.950 . S
C632 C631 1.397 . S
C632 C633 1.334 . S
C633 H610 0.950 . S
C633 C632 1.334 . S
C633 C634 1.287 . S
C634 C633 1.287 . S
C634 C635 1.524 . S
C634 H653 0.913 . S
C635 H611 0.950 . S
C635 C634 1.524 . S
C635 C636 1.415 . S
C636 H612 0.950 . S
C636 C631 1.363 . S
C636 C635 1.415 . S
C637 H613 0.951 . S
C637 C638 1.366 . S
C637 C639 1.388 . S
C638 C637 1.366 . S
C638 C642 1.385 . S
C639 H614 0.951 . S
C639 C637 1.388 . S
C639 C640 1.366 . S
C640 C639 1.366 . S
C640 C641 1.414 . S
C640 C643 1.499 . S
C641 H615 0.950 . S
C641 C640 1.414 . S
C641 C642 1.374 . S
C642 H616 0.950 . S
C642 C638 1.385 . S
C642 C641 1.374 . S
C643 C640 1.499 . S
C643 C644 1.373 . S
C643 C645 1.389 . S
C644 H617 0.950 . S
C644 C630 1.377 . S
C644 C643 1.373 . S
C645 C629 1.377 . S
C645 C643 1.389 . S
C645 C646 1.524 . S
C646 C645 1.524 . S
C646 C647 1.397 . S
C646 C651 1.363 . S
C647 H618 0.950 . S
C647 C646 1.397 . S
C647 C648 1.334 . S
C648 H619 0.950 . S
C648 C647 1.334 . S
C648 C649 1.287 . S
C649 C648 1.287 . S
C649 C650 1.524 . S
C649 H652 0.999 . S
C650 H620 0.950 . S
C650 C649 1.524 . S
C650 C651 1.415 . S
C651 H621 0.950 . S
C651 C646 1.363 . S
C651 C650 1.415 . S
H652 C649 0.999 . S
H653 C634 0.913 . S
H654 C672 0.951 . S
H655 C674 0.951 . S
H656 C676 0.950 . S
H657 C677 0.950 . S
H658 C679 0.950 . S
H659 C682 0.950 . S
H660 C683 0.950 . S
H661 C685 0.950 . S
H662 C686 0.950 . S
H663 C687 0.951 . S
H664 C689 0.951 . S
H665 C691 0.950 . S
H666 C692 0.950 . S
H667 C694 0.950 . S
H668 C697 0.950 . S
H669 C698 0.950 . S
H670 C700 0.950 . S
H671 C701 0.950 . S
C672 H654 0.951 . S
C672 C673 1.366 . S
C672 C674 1.388 . S
C673 C672 1.366 . S
C673 C677 1.385 . S
C674 H655 0.951 . S
C674 C672 1.388 . S
C674 C675 1.366 . S
C675 C674 1.366 . S
C675 C676 1.414 . S
C675 C678 1.499 . S
C676 H656 0.950 . S
C676 C675 1.414 . S
C676 C677 1.374 . S
C677 H657 0.950 . S
C677 C673 1.385 . S
C677 C676 1.374 . S
C678 C675 1.499 . S
C678 C679 1.373 . S
C678 C680 1.389 . S
C679 H658 0.950 . S
C679 C678 1.373 . S
C679 C695 1.377 . S
C680 C678 1.389 . S
C680 C681 1.524 . S
C680 C694 1.377 . S
C681 C680 1.524 . S
C681 C682 1.397 . S
C681 C686 1.363 . S
C682 H659 0.950 . S
C682 C681 1.397 . S
C682 C683 1.334 . S
C683 H660 0.950 . S
C683 C682 1.334 . S
C683 C684 1.287 . S
C684 C683 1.287 . S
C684 C685 1.524 . S
C684 H703 0.913 . S
C685 H661 0.950 . S
C685 C684 1.524 . S
C685 C686 1.415 . S
C686 H662 0.950 . S
C686 C681 1.363 . S
C686 C685 1.415 . S
C687 H663 0.951 . S
C687 C688 1.366 . S
C687 C689 1.388 . S
C688 C687 1.366 . S
C688 C692 1.385 . S
C689 H664 0.951 . S
C689 C687 1.388 . S
C689 C690 1.366 . S
C690 C689 1.366 . S
C690 C691 1.414 . S
C690 C693 1.499 . S
C691 H665 0.950 . S
C691 C690 1.414 . S
C691 C692 1.374 . S
C692 H666 0.950 . S
C692 C688 1.385 . S
C692 C691 1.374 . S
C693 C690 1.499 . S
C693 C694 1.373 . S
C693 C695 1.389 . S
C694 H667 0.950 . S
C694 C680 1.377 . S
C694 C693 1.373 . S
C695 C679 1.377 . S
C695 C693 1.389 . S
C695 C696 1.524 . S
C696 C695 1.524 . S
C696 C697 1.397 . S
C696 C701 1.363 . S
C697 H668 0.950 . S
C697 C696 1.397 . S
C697 C698 1.334 . S
C698 H669 0.950 . S
C698 C697 1.334 . S
C698 C699 1.287 . S
C699 C698 1.287 . S
C699 C700 1.524 . S
C699 H702 0.999 . S
C700 H670 0.950 . S
C700 C699 1.524 . S
C700 C701 1.415 . S
C701 H671 0.950 . S
C701 C696 1.363 . S
C701 C700 1.415 . S
H702 C699 0.999 . S
H703 C684 0.913 . S
H704 C722 0.951 . S
H705 C724 0.951 . S
H706 C726 0.950 . S
H707 C727 0.950 . S
H708 C729 0.950 . S
H709 C732 0.950 . S
H710 C733 0.950 . S
H711 C735 0.950 . S
H712 C736 0.950 . S
H713 C737 0.951 . S
H714 C739 0.951 . S
H715 C741 0.950 . S
H716 C742 0.950 . S
H717 C744 0.950 . S
H718 C747 0.950 . S
H719 C748 0.950 . S
H720 C750 0.950 . S
H721 C751 0.950 . S
C722 H704 0.951 . S
C722 C723 1.366 . S
C722 C724 1.388 . S
C723 C722 1.366 . S
C723 C727 1.385 . S
C724 H705 0.951 . S
C724 C722 1.388 . S
C724 C725 1.366 . S
C725 C724 1.366 . S
C725 C726 1.414 . S
C725 C728 1.499 . S
C726 H706 0.950 . S
C726 C725 1.414 . S
C726 C727 1.374 . S
C727 H707 0.950 . S
C727 C723 1.385 . S
C727 C726 1.374 . S
C728 C725 1.499 . S
C728 C729 1.373 . S
C728 C730 1.389 . S
C729 H708 0.950 . S
C729 C728 1.373 . S
C729 C745 1.377 . S
C730 C728 1.389 . S
C730 C731 1.524 . S
C730 C744 1.377 . S
C731 C730 1.524 . S
C731 C732 1.397 . S
C731 C736 1.363 . S
C732 H709 0.950 . S
C732 C731 1.397 . S
C732 C733 1.334 . S
C733 H710 0.950 . S
C733 C732 1.334 . S
C733 C734 1.287 . S
C734 C733 1.287 . S
C734 C735 1.524 . S
C734 H753 0.913 . S
C735 H711 0.950 . S
C735 C734 1.524 . S
C735 C736 1.415 . S
C736 H712 0.950 . S
C736 C731 1.363 . S
C736 C735 1.415 . S
C737 H713 0.951 . S
C737 C738 1.366 . S
C737 C739 1.388 . S
C738 C737 1.366 . S
C738 C742 1.385 . S
C739 H714 0.951 . S
C739 C737 1.388 . S
C739 C740 1.366 . S
C740 C739 1.366 . S
C740 C741 1.414 . S
C740 C743 1.499 . S
C741 H715 0.950 . S
C741 C740 1.414 . S
C741 C742 1.374 . S
C742 H716 0.950 . S
C742 C738 1.385 . S
C742 C741 1.374 . S
C743 C740 1.499 . S
C743 C744 1.373 . S
C743 C745 1.389 . S
C744 H717 0.950 . S
C744 C730 1.377 . S
C744 C743 1.373 . S
C745 C729 1.377 . S
C745 C743 1.389 . S
C745 C746 1.524 . S
C746 C745 1.524 . S
C746 C747 1.397 . S
C746 C751 1.363 . S
C747 H718 0.950 . S
C747 C746 1.397 . S
C747 C748 1.334 . S
C748 H719 0.950 . S
C748 C747 1.334 . S
C748 C749 1.287 . S
C749 C748 1.287 . S
C749 C750 1.524 . S
C749 H752 0.999 . S
C750 H720 0.950 . S
C750 C749 1.524 . S
C750 C751 1.415 . S
C751 H721 0.950 . S
C751 C746 1.363 . S
C751 C750 1.415 . S
H752 C749 0.999 . S
H753 C734 0.913 . S
H754 C772 0.951 . S
H755 C774 0.951 . S
H756 C776 0.950 . S
H757 C777 0.950 . S
H758 C779 0.950 . S
H759 C782 0.950 . S
H760 C783 0.950 . S
H761 C785 0.950 . S
H762 C786 0.950 . S
H763 C787 0.951 . S
H764 C789 0.951 . S
H765 C791 0.950 . S
H766 C792 0.950 . S
H767 C794 0.950 . S
H768 C797 0.950 . S
H769 C798 0.950 . S
H770 C800 0.950 . S
H771 C801 0.950 . S
C772 H754 0.951 . S
C772 C773 1.366 . S
C772 C774 1.388 . S
C773 C772 1.366 . S
C773 C777 1.385 . S
C774 H755 0.951 . S
C774 C772 1.388 . S
C774 C775 1.366 . S
C775 C774 1.366 . S
C775 C776 1.414 . S
C775 C778 1.499 . S
C776 H756 0.950 . S
C776 C775 1.414 . S
C776 C777 1.374 . S
C777 H757 0.950 . S
C777 C773 1.385 . S
C777 C776 1.374 . S
C778 C775 1.499 . S
C778 C779 1.373 . S
C778 C780 1.389 . S
C779 H758 0.950 . S
C779 C778 1.373 . S
C779 C795 1.377 . S
C780 C778 1.389 . S
C780 C781 1.524 . S
C780 C794 1.377 . S
C781 C780 1.524 . S
C781 C782 1.397 . S
C781 C786 1.363 . S
C782 H759 0.950 . S
C782 C781 1.397 . S
C782 C783 1.334 . S
C783 H760 0.950 . S
C783 C782 1.334 . S
C783 C784 1.287 . S
C784 C783 1.287 . S
C784 C785 1.524 . S
C784 H803 0.913 . S
C785 H761 0.950 . S
C785 C784 1.524 . S
C785 C786 1.415 . S
C786 H762 0.950 . S
C786 C781 1.363 . S
C786 C785 1.415 . S
C787 H763 0.951 . S
C787 C788 1.366 . S
C787 C789 1.388 . S
C788 C787 1.366 . S
C788 C792 1.385 . S
C789 H764 0.951 . S
C789 C787 1.388 . S
C789 C790 1.366 . S
C790 C789 1.366 . S
C790 C791 1.414 . S
C790 C793 1.499 . S
C791 H765 0.950 . S
C791 C790 1.414 . S
C791 C792 1.374 . S
C792 H766 0.950 . S
C792 C788 1.385 . S
C792 C791 1.374 . S
C793 C790 1.499 . S
C793 C794 1.373 . S
C793 C795 1.389 . S
C794 H767 0.950 . S
C794 C780 1.377 . S
C794 C793 1.373 . S
C795 C779 1.377 . S
C795 C793 1.389 . S
C795 C796 1.524 . S
C796 C795 1.524 . S
C796 C797 1.397 . S
C796 C801 1.363 . S
C797 H768 0.950 . S
C797 C796 1.397 . S
C797 C798 1.334 . S
C798 H769 0.950 . S
C798 C797 1.334 . S
C798 C799 1.287 . S
C799 C798 1.287 . S
C799 C800 1.524 . S
C799 H802 0.999 . S
C800 H770 0.950 . S
C800 C799 1.524 . S
C800 C801 1.415 . S
C801 H771 0.950 . S
C801 C796 1.363 . S
C801 C800 1.415 . S
H802 C799 0.999 . S
H803 C784 0.913 . S
H804 C822 0.951 . S
H805 C824 0.951 . S
H806 C826 0.950 . S
H807 C827 0.950 . S
H808 C829 0.950 . S
H809 C832 0.950 . S
H810 C833 0.950 . S
H811 C835 0.950 . S
H812 C836 0.950 . S
H813 C837 0.951 . S
H814 C839 0.951 . S
H815 C841 0.950 . S
H816 C842 0.950 . S
H817 C844 0.950 . S
H818 C847 0.950 . S
H819 C848 0.950 . S
H820 C850 0.950 . S
H821 C851 0.950 . S
C822 H804 0.951 . S
C822 C823 1.366 . S
C822 C824 1.388 . S
C823 C822 1.366 . S
C823 C827 1.385 . S
C824 H805 0.951 . S
C824 C822 1.388 . S
C824 C825 1.366 . S
C825 C824 1.366 . S
C825 C826 1.414 . S
C825 C828 1.499 . S
C826 H806 0.950 . S
C826 C825 1.414 . S
C826 C827 1.374 . S
C827 H807 0.950 . S
C827 C823 1.385 . S
C827 C826 1.374 . S
C828 C825 1.499 . S
C828 C829 1.373 . S
C828 C830 1.389 . S
C829 H808 0.950 . S
C829 C828 1.373 . S
C829 C845 1.377 . S
C830 C828 1.389 . S
C830 C831 1.524 . S
C830 C844 1.377 . S
C831 C830 1.524 . S
C831 C832 1.397 . S
C831 C836 1.363 . S
C832 H809 0.950 . S
C832 C831 1.397 . S
C832 C833 1.334 . S
C833 H810 0.950 . S
C833 C832 1.334 . S
C833 C834 1.287 . S
C834 C833 1.287 . S
C834 C835 1.524 . S
C834 H853 0.913 . S
C835 H811 0.950 . S
C835 C834 1.524 . S
C835 C836 1.415 . S
C836 H812 0.950 . S
C836 C831 1.363 . S
C836 C835 1.415 . S
C837 H813 0.951 . S
C837 C838 1.366 . S
C837 C839 1.388 . S
C838 C837 1.366 . S
C838 C842 1.385 . S
C839 H814 0.951 . S
C839 C837 1.388 . S
C839 C840 1.366 . S
C840 C839 1.366 . S
C840 C841 1.414 . S
C840 C843 1.499 . S
C841 H815 0.950 . S
C841 C840 1.414 . S
C841 C842 1.374 . S
C842 H816 0.950 . S
C842 C838 1.385 . S
C842 C841 1.374 . S
C843 C840 1.499 . S
C843 C844 1.373 . S
C843 C845 1.389 . S
C844 H817 0.950 . S
C844 C830 1.377 . S
C844 C843 1.373 . S
C845 C829 1.377 . S
C845 C843 1.389 . S
C845 C846 1.524 . S
C846 C845 1.524 . S
C846 C847 1.397 . S
C846 C851 1.363 . S
C847 H818 0.950 . S
C847 C846 1.397 . S
C847 C848 1.334 . S
C848 H819 0.950 . S
C848 C847 1.334 . S
C848 C849 1.287 . S
C849 C848 1.287 . S
C849 C850 1.524 . S
C849 H852 0.999 . S
C850 H820 0.950 . S
C850 C849 1.524 . S
C850 C851 1.415 . S
C851 H821 0.950 . S
C851 C846 1.363 . S
C851 C850 1.415 . S
H852 C849 0.999 . S
H853 C834 0.913 . S
H854 C872 0.951 . S
H855 C874 0.951 . S
H856 C876 0.950 . S
H857 C877 0.950 . S
H858 C879 0.950 . S
H859 C882 0.950 . S
H860 C883 0.950 . S
H861 C885 0.950 . S
H862 C886 0.950 . S
H863 C887 0.951 . S
H864 C889 0.951 . S
H865 C891 0.950 . S
H866 C892 0.950 . S
H867 C894 0.950 . S
H868 C897 0.950 . S
H869 C898 0.950 . S
H870 C900 0.950 . S
H871 C901 0.950 . S
C872 H854 0.951 . S
C872 C873 1.366 . S
C872 C874 1.388 . S
C873 C872 1.366 . S
C873 C877 1.385 . S
C874 H855 0.951 . S
C874 C872 1.388 . S
C874 C875 1.366 . S
C875 C874 1.366 . S
C875 C876 1.414 . S
C875 C878 1.499 . S
C876 H856 0.950 . S
C876 C875 1.414 . S
C876 C877 1.374 . S
C877 H857 0.950 . S
C877 C873 1.385 . S
C877 C876 1.374 . S
C878 C875 1.499 . S
C878 C879 1.373 . S
C878 C880 1.389 . S
C879 H858 0.950 . S
C879 C878 1.373 . S
C879 C895 1.377 . S
C880 C878 1.389 . S
C880 C881 1.524 . S
C880 C894 1.377 . S
C881 C880 1.524 . S
C881 C882 1.397 . S
C881 C886 1.363 . S
C882 H859 0.950 . S
C882 C881 1.397 . S
C882 C883 1.334 . S
C883 H860 0.950 . S
C883 C882 1.334 . S
C883 C884 1.287 . S
C884 C883 1.287 . S
C884 C885 1.524 . S
C884 H903 0.913 . S
C885 H861 0.950 . S
C885 C884 1.524 . S
C885 C886 1.415 . S
C886 H862 0.950 . S
C886 C881 1.363 . S
C886 C885 1.415 . S
C887 H863 0.951 . S
C887 C888 1.366 . S
C887 C889 1.388 . S
C888 C887 1.366 . S
C888 C892 1.385 . S
C889 H864 0.951 . S
C889 C887 1.388 . S
C889 C890 1.366 . S
C890 C889 1.366 . S
C890 C891 1.414 . S
C890 C893 1.499 . S
C891 H865 0.950 . S
C891 C890 1.414 . S
C891 C892 1.374 . S
C892 H866 0.950 . S
C892 C888 1.385 . S
C892 C891 1.374 . S
C893 C890 1.499 . S
C893 C894 1.373 . S
C893 C895 1.389 . S
C894 H867 0.950 . S
C894 C880 1.377 . S
C894 C893 1.373 . S
C895 C879 1.377 . S
C895 C893 1.389 . S
C895 C896 1.524 . S
C896 C895 1.524 . S
C896 C897 1.397 . S
C896 C901 1.363 . S
C897 H868 0.950 . S
C897 C896 1.397 . S
C897 C898 1.334 . S
C898 H869 0.950 . S
C898 C897 1.334 . S
C898 C899 1.287 . S
C899 C898 1.287 . S
C899 C900 1.524 . S
C899 H902 0.999 . S
C900 H870 0.950 . S
C900 C899 1.524 . S
C900 C901 1.415 . S
C901 H871 0.950 . S
C901 C896 1.363 . S
C901 C900 1.415 . S
H902 C899 0.999 . S
H903 C884 0.913 . S
H904 C922 0.951 . S
H905 C924 0.951 . S
H906 C926 0.950 . S
H907 C927 0.950 . S
H908 C929 0.950 . S
H909 C932 0.950 . S
H910 C933 0.950 . S
H911 C935 0.950 . S
H912 C936 0.950 . S
H913 C937 0.951 . S
H914 C939 0.951 . S
H915 C941 0.950 . S
H916 C942 0.950 . S
H917 C944 0.950 . S
H918 C947 0.950 . S
H919 C948 0.950 . S
H920 C950 0.950 . S
H921 C951 0.950 . S
C922 H904 0.951 . S
C922 C923 1.366 . S
C922 C924 1.388 . S
C923 C922 1.366 . S
C923 C927 1.385 . S
C924 H905 0.951 . S
C924 C922 1.388 . S
C924 C925 1.366 . S
C925 C924 1.366 . S
C925 C926 1.414 . S
C925 C928 1.499 . S
C926 H906 0.950 . S
C926 C925 1.414 . S
C926 C927 1.374 . S
C927 H907 0.950 . S
C927 C923 1.385 . S
C927 C926 1.374 . S
C928 C925 1.499 . S
C928 C929 1.373 . S
C928 C930 1.389 . S
C929 H908 0.950 . S
C929 C928 1.373 . S
C929 C945 1.377 . S
C930 C928 1.389 . S
C930 C931 1.524 . S
C930 C944 1.377 . S
C931 C930 1.524 . S
C931 C932 1.397 . S
C931 C936 1.363 . S
C932 H909 0.950 . S
C932 C931 1.397 . S
C932 C933 1.334 . S
C933 H910 0.950 . S
C933 C932 1.334 . S
C933 C934 1.287 . S
C934 C933 1.287 . S
C934 C935 1.524 . S
C934 H953 0.913 . S
C935 H911 0.950 . S
C935 C934 1.524 . S
C935 C936 1.415 . S
C936 H912 0.950 . S
C936 C931 1.363 . S
C936 C935 1.415 . S
C937 H913 0.951 . S
C937 C938 1.366 . S
C937 C939 1.388 . S
C938 C937 1.366 . S
C938 C942 1.385 . S
C939 H914 0.951 . S
C939 C937 1.388 . S
C939 C940 1.366 . S
C940 C939 1.366 . S
C940 C941 1.414 . S
C940 C943 1.499 . S
C941 H915 0.950 . S
C941 C940 1.414 . S
C941 C942 1.374 . S
C942 H916 0.950 . S
C942 C938 1.385 . S
C942 C941 1.374 . S
C943 C940 1.499 . S
C943 C944 1.373 . S
C943 C945 1.389 . S
C944 H917 0.950 . S
C944 C930 1.377 . S
C944 C943 1.373 . S
C945 C929 1.377 . S
C945 C943 1.389 . S
C945 C946 1.524 . S
C946 C945 1.524 . S
C946 C947 1.397 . S
C946 C951 1.363 . S
C947 H918 0.950 . S
C947 C946 1.397 . S
C947 C948 1.334 . S
C948 H919 0.950 . S
C948 C947 1.334 . S
C948 C949 1.287 . S
C949 C948 1.287 . S
C949 C950 1.524 . S
C949 H952 0.999 . S
C950 H920 0.950 . S
C950 C949 1.524 . S
C950 C951 1.415 . S
C951 H921 0.950 . S
C951 C946 1.363 . S
C951 C950 1.415 . S
H952 C949 0.999 . S
H953 C934 0.913 . S
H954 C972 0.951 . S
H955 C974 0.979 . S
H956 C976 0.950 . S
H957 C977 0.950 . S
H958 C979 0.950 . S
H959 C982 0.950 . S
H960 C983 0.950 . S
H961 C985 0.950 . S
H962 C986 0.950 . S
H963 C987 0.951 . S
H964 C989 0.951 . S
H965 C991 0.950 . S
H966 C992 0.950 . S
H967 C994 0.950 . S
H968 C997 0.950 . S
H969 C998 0.950 . S
H970 C1000 0.950 . S
H971 C1001 0.950 . S
C972 H954 0.951 . S
C972 C973 1.366 1_455 S
C972 C974 1.417 . S
C973 C972 1.366 1_655 S
C973 C977 1.385 . S
C974 H955 0.979 . S
C974 C972 1.417 . S
C974 C975 1.311 1_455 S
C975 C974 1.311 1_655 S
C975 C976 1.414 . S
C975 C978 1.499 . S
C976 H956 0.950 . S
C976 C975 1.414 . S
C976 C977 1.374 . S
C977 H957 0.950 . S
C977 C973 1.385 . S
C977 C976 1.374 . S
C978 C975 1.499 . S
C978 C979 1.373 . S
C978 C980 1.389 . S
C979 H958 0.950 . S
C979 C978 1.373 . S
C979 C995 1.377 . S
C980 C978 1.389 . S
C980 C981 1.524 . S
C980 C994 1.377 . S
C981 C980 1.524 . S
C981 C982 1.397 . S
C981 C986 1.363 1_655 S
C982 H959 0.950 . S
C982 C981 1.397 . S
C982 C983 1.334 . S
C983 H960 0.950 . S
C983 C982 1.334 . S
C983 C984 1.287 1_655 S
C984 C983 1.287 1_455 S
C984 C985 1.524 . S
C984 H1003 0.913 . S
C985 H961 0.950 . S
C985 C984 1.524 . S
C985 C986 1.415 . S
C986 H962 0.950 . S
C986 C981 1.363 1_455 S
C986 C985 1.415 . S
C987 H963 0.951 . S
C987 C988 1.366 . S
C987 C989 1.388 . S
C988 C987 1.366 . S
C988 C992 1.385 1_655 S
C989 H964 0.951 . S
C989 C987 1.388 . S
C989 C990 1.366 . S
C990 C989 1.366 . S
C990 C991 1.414 1_655 S
C990 C993 1.499 . S
C991 H965 0.950 . S
C991 C990 1.414 1_455 S
C991 C992 1.374 . S
C992 H966 0.950 . S
C992 C988 1.385 1_455 S
C992 C991 1.374 . S
C993 C990 1.499 . S
C993 C994 1.373 . S
C993 C995 1.389 . S
C994 H967 0.950 . S
C994 C980 1.377 . S
C994 C993 1.373 . S
C995 C979 1.377 . S
C995 C993 1.389 . S
C995 C996 1.524 . S
C996 C995 1.524 . S
C996 C997 1.397 . S
C996 C1001 1.363 . S
C997 H968 0.950 . S
C997 C996 1.397 . S
C997 C998 1.334 . S
C998 H969 0.950 . S
C998 C997 1.334 . S
C998 C999 1.287 . S
C999 C998 1.287 . S
C999 C1000 1.524 . S
C999 H1002 0.999 . S
C1000 H970 0.950 . S
C1000 C999 1.524 . S
C1000 C1001 1.415 . S
C1001 H971 0.950 . S
C1001 C996 1.363 . S
C1001 C1000 1.415 . S
H1002 C999 0.999 . S
H1003 C984 0.913 . S
H1004 C1022 0.951 . S
H1005 C1024 0.951 . S
H1006 C1026 0.950 . S
H1007 C1027 0.950 . S
H1008 C1029 0.950 . S
H1009 C1032 0.950 . S
H1010 C1033 0.950 . S
H1011 C1035 0.950 . S
H1012 C1036 0.950 . S
H1013 C1037 0.951 . S
H1014 C1039 0.951 . S
H1015 C1041 0.950 . S
H1016 C1042 0.950 . S
H1017 C1044 0.950 . S
H1018 C1047 0.950 . S
H1019 C1048 0.950 . S
H1020 C1050 0.950 . S
H1021 C1051 0.950 . S
C1022 H1004 0.951 . S
C1022 C1023 1.366 . S
C1022 C1024 1.388 . S
C1023 C1022 1.366 . S
C1023 C1027 1.385 . S
C1024 H1005 0.951 . S
C1024 C1022 1.388 . S
C1024 C1025 1.366 . S
C1025 C1024 1.366 . S
C1025 C1026 1.414 . S
C1025 C1028 1.499 . S
C1026 H1006 0.950 . S
C1026 C1025 1.414 . S
C1026 C1027 1.374 . S
C1027 H1007 0.950 . S
C1027 C1023 1.385 . S
C1027 C1026 1.374 . S
C1028 C1025 1.499 . S
C1028 C1029 1.373 . S
C1028 C1030 1.389 . S
C1029 H1008 0.950 . S
C1029 C1028 1.373 . S
C1029 C1045 1.377 . S
C1030 C1028 1.389 . S
C1030 C1031 1.524 . S
C1030 C1044 1.377 . S
C1031 C1030 1.524 . S
C1031 C1032 1.397 . S
C1031 C1036 1.363 . S
C1032 H1009 0.950 . S
C1032 C1031 1.397 . S
C1032 C1033 1.334 . S
C1033 H1010 0.950 . S
C1033 C1032 1.334 . S
C1033 C1034 1.287 . S
C1034 C1033 1.287 . S
C1034 C1035 1.524 . S
C1034 H1053 0.913 . S
C1035 H1011 0.950 . S
C1035 C1034 1.524 . S
C1035 C1036 1.415 . S
C1036 H1012 0.950 . S
C1036 C1031 1.363 . S
C1036 C1035 1.415 . S
C1037 H1013 0.951 . S
C1037 C1038 1.366 . S
C1037 C1039 1.388 . S
C1038 C1037 1.366 . S
C1038 C1042 1.385 . S
C1039 H1014 0.951 . S
C1039 C1037 1.388 . S
C1039 C1040 1.366 . S
C1040 C1039 1.366 . S
C1040 C1041 1.414 . S
C1040 C1043 1.499 . S
C1041 H1015 0.950 . S
C1041 C1040 1.414 . S
C1041 C1042 1.374 . S
C1042 H1016 0.950 . S
C1042 C1038 1.385 . S
C1042 C1041 1.374 . S
C1043 C1040 1.499 . S
C1043 C1044 1.373 . S
C1043 C1045 1.389 . S
C1044 H1017 0.950 . S
C1044 C1030 1.377 . S
C1044 C1043 1.373 . S
C1045 C1029 1.377 . S
C1045 C1043 1.389 . S
C1045 C1046 1.524 . S
C1046 C1045 1.524 . S
C1046 C1047 1.397 . S
C1046 C1051 1.363 . S
C1047 H1018 0.950 . S
C1047 C1046 1.397 . S
C1047 C1048 1.334 . S
C1048 H1019 0.950 . S
C1048 C1047 1.334 . S
C1048 C1049 1.287 . S
C1049 C1048 1.287 . S
C1049 C1050 1.524 . S
C1049 H1052 0.999 . S
C1050 H1020 0.950 . S
C1050 C1049 1.524 . S
C1050 C1051 1.415 . S
C1051 H1021 0.950 . S
C1051 C1046 1.363 . S
C1051 C1050 1.415 . S
H1052 C1049 0.999 . S
H1053 C1034 0.913 . S
H1054 C1072 0.951 . S
H1055 C1074 0.951 . S
H1056 C1076 0.950 . S
H1057 C1077 0.950 . S
H1058 C1079 0.950 . S
H1059 C1082 0.950 . S
H1060 C1083 0.950 . S
H1061 C1085 0.950 . S
H1062 C1086 0.950 . S
H1063 C1087 0.951 . S
H1064 C1089 0.951 . S
H1065 C1091 0.950 . S
H1066 C1092 0.950 . S
H1067 C1094 0.950 . S
H1068 C1097 0.950 . S
H1069 C1098 0.950 . S
H1070 C1100 0.950 . S
H1071 C1101 0.950 . S
C1072 H1054 0.951 . S
C1072 C1073 1.366 . S
C1072 C1074 1.388 . S
C1073 C1072 1.366 . S
C1073 C1077 1.385 . S
C1074 H1055 0.951 . S
C1074 C1072 1.388 . S
C1074 C1075 1.366 . S
C1075 C1074 1.366 . S
C1075 C1076 1.414 . S
C1075 C1078 1.499 . S
C1076 H1056 0.950 . S
C1076 C1075 1.414 . S
C1076 C1077 1.374 . S
C1077 H1057 0.950 . S
C1077 C1073 1.385 . S
C1077 C1076 1.374 . S
C1078 C1075 1.499 . S
C1078 C1079 1.373 . S
C1078 C1080 1.389 . S
C1079 H1058 0.950 . S
C1079 C1078 1.373 . S
C1079 C1095 1.377 . S
C1080 C1078 1.389 . S
C1080 C1081 1.524 . S
C1080 C1094 1.377 . S
C1081 C1080 1.524 . S
C1081 C1082 1.397 . S
C1081 C1086 1.363 . S
C1082 H1059 0.950 . S
C1082 C1081 1.397 . S
C1082 C1083 1.334 . S
C1083 H1060 0.950 . S
C1083 C1082 1.334 . S
C1083 C1084 1.287 . S
C1084 C1083 1.287 . S
C1084 C1085 1.524 . S
C1084 H1103 0.913 . S
C1085 H1061 0.950 . S
C1085 C1084 1.524 . S
C1085 C1086 1.415 . S
C1086 H1062 0.950 . S
C1086 C1081 1.363 . S
C1086 C1085 1.415 . S
C1087 H1063 0.951 . S
C1087 C1088 1.366 . S
C1087 C1089 1.388 . S
C1088 C1087 1.366 . S
C1088 C1092 1.385 . S
C1089 H1064 0.951 . S
C1089 C1087 1.388 . S
C1089 C1090 1.366 . S
C1090 C1089 1.366 . S
C1090 C1091 1.414 . S
C1090 C1093 1.499 . S
C1091 H1065 0.950 . S
C1091 C1090 1.414 . S
C1091 C1092 1.374 . S
C1092 H1066 0.950 . S
C1092 C1088 1.385 . S
C1092 C1091 1.374 . S
C1093 C1090 1.499 . S
C1093 C1094 1.373 . S
C1093 C1095 1.389 . S
C1094 H1067 0.950 . S
C1094 C1080 1.377 . S
C1094 C1093 1.373 . S
C1095 C1079 1.377 . S
C1095 C1093 1.389 . S
C1095 C1096 1.524 . S
C1096 C1095 1.524 . S
C1096 C1097 1.397 . S
C1096 C1101 1.363 . S
C1097 H1068 0.950 . S
C1097 C1096 1.397 . S
C1097 C1098 1.334 . S
C1098 H1069 0.950 . S
C1098 C1097 1.334 . S
C1098 C1099 1.287 . S
C1099 C1098 1.287 . S
C1099 C1100 1.524 . S
C1099 H1102 0.999 . S
C1100 H1070 0.950 . S
C1100 C1099 1.524 . S
C1100 C1101 1.415 . S
C1101 H1071 0.950 . S
C1101 C1096 1.363 . S
C1101 C1100 1.415 . S
H1102 C1099 0.999 . S
H1103 C1084 0.913 . S
H1104 C1122 0.940 1_545 S
H1105 C1124 0.954 . S
H1106 C1126 0.950 . S
H1107 C1127 0.950 . S
H1108 C1129 0.950 . S
H1109 C1132 0.950 . S
H1110 C1133 0.950 . S
H1111 C1135 0.950 . S
H1112 C1136 0.950 . S
H1113 C1137 0.951 . S
H1114 C1139 0.951 . S
H1115 C1141 0.912 1_545 S
H1116 C1142 0.945 1_545 S
H1117 C1144 0.950 . S
H1118 C1147 0.950 . S
H1119 C1148 0.950 . S
H1120 C1150 0.950 . S
H1121 C1151 0.950 . S
C1122 H1104 0.940 1_565 S
C1122 C1123 1.366 . S
C1122 C1124 1.388 . S
C1123 C1122 1.366 . S
C1123 C1127 1.385 . S
C1124 H1105 0.954 . S
C1124 C1122 1.388 . S
C1124 C1125 1.366 . S
C1125 C1124 1.366 . S
C1125 C1126 1.414 . S
C1125 C1128 1.499 . S
C1126 H1106 0.950 . S
C1126 C1125 1.414 . S
C1126 C1127 1.374 . S
C1127 H1107 0.950 . S
C1127 C1123 1.385 . S
C1127 C1126 1.374 . S
C1128 C1125 1.499 . S
C1128 C1129 1.373 . S
C1128 C1130 1.389 . S
C1129 H1108 0.950 . S
C1129 C1128 1.373 . S
C1129 C1145 1.377 . S
C1130 C1128 1.389 . S
C1130 C1131 1.524 . S
C1130 C1144 1.377 . S
C1131 C1130 1.524 . S
C1131 C1132 1.397 . S
C1131 C1136 1.363 . S
C1132 H1109 0.950 . S
C1132 C1131 1.397 . S
C1132 C1133 1.334 . S
C1133 H1110 0.950 . S
C1133 C1132 1.334 . S
C1133 C1134 1.287 . S
C1134 C1133 1.287 . S
C1134 C1135 1.524 . S
C1134 H1153 0.913 . S
C1135 H1111 0.950 . S
C1135 C1134 1.524 . S
C1135 C1136 1.415 . S
C1136 H1112 0.950 . S
C1136 C1131 1.363 . S
C1136 C1135 1.415 . S
C1137 H1113 0.951 . S
C1137 C1138 1.366 . S
C1137 C1139 1.388 . S
C1138 C1137 1.366 . S
C1138 C1142 1.385 . S
C1139 H1114 0.951 . S
C1139 C1137 1.388 . S
C1139 C1140 1.366 . S
C1140 C1139 1.366 . S
C1140 C1141 1.414 . S
C1140 C1143 1.499 . S
C1141 H1115 0.912 1_565 S
C1141 C1140 1.414 . S
C1141 C1142 1.374 . S
C1142 H1116 0.945 1_565 S
C1142 C1138 1.385 . S
C1142 C1141 1.374 . S
C1143 C1140 1.499 . S
C1143 C1144 1.373 . S
C1143 C1145 1.389 . S
C1144 H1117 0.950 . S
C1144 C1130 1.377 . S
C1144 C1143 1.373 . S
C1145 C1129 1.377 . S
C1145 C1143 1.389 . S
C1145 C1146 1.524 . S
C1146 C1145 1.524 . S
C1146 C1147 1.397 1_565 S
C1146 C1151 1.363 . S
C1147 H1118 0.950 . S
C1147 C1146 1.397 1_545 S
C1147 C1148 1.334 . S
C1148 H1119 0.950 . S
C1148 C1147 1.334 . S
C1148 C1149 1.287 . S
C1149 C1148 1.287 . S
C1149 C1150 1.524 1_545 S
C1149 H1152 0.999 . S
C1150 H1120 0.950 . S
C1150 C1149 1.524 1_565 S
C1150 C1151 1.415 . S
C1151 H1121 0.950 . S
C1151 C1146 1.363 . S
C1151 C1150 1.415 . S
H1152 C1149 0.999 . S
H1153 C1134 0.913 . S
H1154 C1172 0.951 . S
H1155 C1174 0.951 . S
H1156 C1176 0.950 . S
H1157 C1177 0.950 . S
H1158 C1179 0.950 . S
H1159 C1182 0.950 . S
H1160 C1183 0.950 . S
H1161 C1185 0.950 . S
H1162 C1186 0.950 . S
H1163 C1187 0.951 . S
H1164 C1189 0.951 . S
H1165 C1191 0.950 . S
H1166 C1192 0.950 . S
H1167 C1194 0.950 . S
H1168 C1197 0.950 . S
H1169 C1198 0.950 . S
H1170 C1200 0.950 1_655 S
H1171 C1201 0.950 . S
C1172 H1154 0.951 . S
C1172 C1173 1.366 . S
C1172 C1174 1.388 . S
C1173 C1172 1.366 . S
C1173 C1177 1.385 . S
C1174 H1155 0.951 . S
C1174 C1172 1.388 . S
C1174 C1175 1.366 . S
C1175 C1174 1.366 . S
C1175 C1176 1.414 . S
C1175 C1178 1.499 . S
C1176 H1156 0.950 . S
C1176 C1175 1.414 . S
C1176 C1177 1.374 . S
C1177 H1157 0.950 . S
C1177 C1173 1.385 . S
C1177 C1176 1.374 . S
C1178 C1175 1.499 . S
C1178 C1179 1.373 . S
C1178 C1180 1.389 . S
C1179 H1158 0.950 . S
C1179 C1178 1.373 . S
C1179 C1195 1.377 . S
C1180 C1178 1.389 . S
C1180 C1181 1.524 . S
C1180 C1194 1.377 . S
C1181 C1180 1.524 . S
C1181 C1182 1.397 . S
C1181 C1186 1.363 . S
C1182 H1159 0.950 . S
C1182 C1181 1.397 . S
C1182 C1183 1.334 . S
C1183 H1160 0.950 . S
C1183 C1182 1.334 . S
C1183 C1184 1.287 . S
C1184 C1183 1.287 . S
C1184 C1185 1.524 . S
C1184 H1203 0.913 . S
C1185 H1161 0.950 . S
C1185 C1184 1.524 . S
C1185 C1186 1.415 . S
C1186 H1162 0.950 . S
C1186 C1181 1.363 . S
C1186 C1185 1.415 . S
C1187 H1163 0.951 . S
C1187 C1188 1.366 . S
C1187 C1189 1.388 . S
C1188 C1187 1.366 . S
C1188 C1192 1.385 . S
C1189 H1164 0.951 . S
C1189 C1187 1.388 . S
C1189 C1190 1.366 . S
C1190 C1189 1.366 . S
C1190 C1191 1.414 . S
C1190 C1193 1.499 . S
C1191 H1165 0.950 . S
C1191 C1190 1.414 . S
C1191 C1192 1.374 . S
C1192 H1166 0.950 . S
C1192 C1188 1.385 . S
C1192 C1191 1.374 . S
C1193 C1190 1.499 . S
C1193 C1194 1.373 . S
C1193 C1195 1.389 . S
C1194 H1167 0.950 . S
C1194 C1180 1.377 . S
C1194 C1193 1.373 . S
C1195 C1179 1.377 . S
C1195 C1193 1.389 . S
C1195 C1196 1.524 . S
C1196 C1195 1.524 . S
C1196 C1197 1.397 . S
C1196 C1201 1.363 . S
C1197 H1168 0.950 . S
C1197 C1196 1.397 . S
C1197 C1198 1.334 . S
C1198 H1169 0.950 . S
C1198 C1197 1.334 . S
C1198 C1199 1.287 . S
C1199 C1198 1.287 . S
C1199 C1200 1.524 . S
C1199 H1202 1.034 . S
C1200 H1170 0.950 1_455 S
C1200 C1199 1.524 . S
C1200 C1201 1.415 . S
C1201 H1171 0.950 . S
C1201 C1196 1.363 . S
C1201 C1200 1.415 . S
H1202 C1199 1.034 . S
H1203 C1184 0.913 . S
H1204 C1222 0.951 . S
H1205 C1224 0.951 . S
H1206 C1226 0.950 . S
H1207 C1227 0.950 . S
H1208 C1229 0.950 . S
H1209 C1232 0.950 . S
H1210 C1233 0.950 . S
H1211 C1235 0.950 . S
H1212 C1236 0.950 . S
H1213 C1237 0.951 . S
H1214 C1239 0.951 . S
H1215 C1241 0.950 . S
H1216 C1242 0.950 . S
H1217 C1244 0.950 . S
H1218 C1247 0.950 . S
H1219 C1248 0.950 . S
H1220 C1250 0.950 . S
H1221 C1251 0.950 . S
C1222 H1204 0.951 . S
C1222 C1223 1.366 . S
C1222 C1224 1.388 . S
C1223 C1222 1.366 . S
C1223 C1227 1.385 . S
C1224 H1205 0.951 . S
C1224 C1222 1.388 . S
C1224 C1225 1.366 . S
C1225 C1224 1.366 . S
C1225 C1226 1.414 . S
C1225 C1228 1.499 . S
C1226 H1206 0.950 . S
C1226 C1225 1.414 . S
C1226 C1227 1.374 . S
C1227 H1207 0.950 . S
C1227 C1223 1.385 . S
C1227 C1226 1.374 . S
C1228 C1225 1.499 . S
C1228 C1229 1.373 . S
C1228 C1230 1.389 . S
C1229 H1208 0.950 . S
C1229 C1228 1.373 . S
C1229 C1245 1.377 . S
C1230 C1228 1.389 . S
C1230 C1231 1.524 . S
C1230 C1244 1.377 . S
C1231 C1230 1.524 . S
C1231 C1232 1.397 . S
C1231 C1236 1.363 . S
C1232 H1209 0.950 . S
C1232 C1231 1.397 . S
C1232 C1233 1.334 . S
C1233 H1210 0.950 . S
C1233 C1232 1.334 . S
C1233 C1234 1.287 . S
C1234 C1233 1.287 . S
C1234 C1235 1.524 . S
C1234 H1253 0.913 . S
C1235 H1211 0.950 . S
C1235 C1234 1.524 . S
C1235 C1236 1.415 . S
C1236 H1212 0.950 . S
C1236 C1231 1.363 . S
C1236 C1235 1.415 . S
C1237 H1213 0.951 . S
C1237 C1238 1.366 . S
C1237 C1239 1.388 . S
C1238 C1237 1.366 . S
C1238 C1242 1.385 . S
C1239 H1214 0.951 . S
C1239 C1237 1.388 . S
C1239 C1240 1.366 . S
C1240 C1239 1.366 . S
C1240 C1241 1.414 . S
C1240 C1243 1.499 . S
C1241 H1215 0.950 . S
C1241 C1240 1.414 . S
C1241 C1242 1.374 . S
C1242 H1216 0.950 . S
C1242 C1238 1.385 . S
C1242 C1241 1.374 . S
C1243 C1240 1.499 . S
C1243 C1244 1.373 . S
C1243 C1245 1.389 . S
C1244 H1217 0.950 . S
C1244 C1230 1.377 . S
C1244 C1243 1.373 . S
C1245 C1229 1.377 . S
C1245 C1243 1.389 . S
C1245 C1246 1.524 . S
C1246 C1245 1.524 . S
C1246 C1247 1.397 . S
C1246 C1251 1.363 . S
C1247 H1218 0.950 . S
C1247 C1246 1.397 . S
C1247 C1248 1.334 . S
C1248 H1219 0.950 . S
C1248 C1247 1.334 . S
C1248 C1249 1.287 . S
C1249 C1248 1.287 . S
C1249 C1250 1.524 . S
C1249 H1252 0.999 . S
C1250 H1220 0.950 . S
C1250 C1249 1.524 . S
C1250 C1251 1.415 . S
C1251 H1221 0.950 . S
C1251 C1246 1.363 . S
C1251 C1250 1.415 . S
H1252 C1249 0.999 . S
H1253 C1234 0.913 . S
H1254 C1272 0.951 . S
H1255 C1274 0.951 . S
H1256 C1276 0.950 . S
H1257 C1277 0.950 . S
H1258 C1279 0.950 . S
H1259 C1282 0.950 . S
H1260 C1283 0.950 . S
H1261 C1285 0.950 . S
H1262 C1286 0.950 . S
H1263 C1287 0.951 . S
H1264 C1289 0.951 . S
H1265 C1291 0.950 . S
H1266 C1292 0.950 . S
H1267 C1294 0.950 . S
H1268 C1297 0.950 . S
H1269 C1298 0.950 . S
H1270 C1300 0.950 . S
H1271 C1301 0.950 . S
C1272 H1254 0.951 . S
C1272 C1273 1.366 . S
C1272 C1274 1.388 . S
C1273 C1272 1.366 . S
C1273 C1277 1.385 . S
C1274 H1255 0.951 . S
C1274 C1272 1.388 . S
C1274 C1275 1.366 . S
C1275 C1274 1.366 . S
C1275 C1276 1.414 . S
C1275 C1278 1.499 . S
C1276 H1256 0.950 . S
C1276 C1275 1.414 . S
C1276 C1277 1.374 . S
C1277 H1257 0.950 . S
C1277 C1273 1.385 . S
C1277 C1276 1.374 . S
C1278 C1275 1.499 . S
C1278 C1279 1.373 . S
C1278 C1280 1.389 . S
C1279 H1258 0.950 . S
C1279 C1278 1.373 . S
C1279 C1295 1.377 . S
C1280 C1278 1.389 . S
C1280 C1281 1.524 . S
C1280 C1294 1.377 . S
C1281 C1280 1.524 . S
C1281 C1282 1.397 . S
C1281 C1286 1.363 . S
C1282 H1259 0.950 . S
C1282 C1281 1.397 . S
C1282 C1283 1.334 . S
C1283 H1260 0.950 . S
C1283 C1282 1.334 . S
C1283 C1284 1.287 . S
C1284 C1283 1.287 . S
C1284 C1285 1.524 . S
C1284 H1303 0.913 . S
C1285 H1261 0.950 . S
C1285 C1284 1.524 . S
C1285 C1286 1.415 . S
C1286 H1262 0.950 . S
C1286 C1281 1.363 . S
C1286 C1285 1.415 . S
C1287 H1263 0.951 . S
C1287 C1288 1.366 . S
C1287 C1289 1.388 . S
C1288 C1287 1.366 . S
C1288 C1292 1.385 . S
C1289 H1264 0.951 . S
C1289 C1287 1.388 . S
C1289 C1290 1.366 . S
C1290 C1289 1.366 . S
C1290 C1291 1.414 . S
C1290 C1293 1.499 . S
C1291 H1265 0.950 . S
C1291 C1290 1.414 . S
C1291 C1292 1.374 . S
C1292 H1266 0.950 . S
C1292 C1288 1.385 . S
C1292 C1291 1.374 . S
C1293 C1290 1.499 . S
C1293 C1294 1.373 . S
C1293 C1295 1.389 . S
C1294 H1267 0.950 . S
C1294 C1280 1.377 . S
C1294 C1293 1.373 . S
C1295 C1279 1.377 . S
C1295 C1293 1.389 . S
C1295 C1296 1.524 . S
C1296 C1295 1.524 . S
C1296 C1297 1.397 . S
C1296 C1301 1.363 . S
C1297 H1268 0.950 . S
C1297 C1296 1.397 . S
C1297 C1298 1.334 . S
C1298 H1269 0.950 . S
C1298 C1297 1.334 . S
C1298 C1299 1.287 . S
C1299 C1298 1.287 . S
C1299 C1300 1.524 . S
C1299 H1302 0.999 . S
C1300 H1270 0.950 . S
C1300 C1299 1.524 . S
C1300 C1301 1.415 . S
C1301 H1271 0.950 . S
C1301 C1296 1.363 . S
C1301 C1300 1.415 . S
H1302 C1299 0.999 . S
H1303 C1284 0.913 . S
H1304 C1322 0.951 . S
H1305 C1324 0.951 . S
H1306 C1326 0.950 . S
H1307 C1327 0.950 . S
H1308 C1329 0.950 . S
H1309 C1332 0.950 . S
H1310 C1333 0.950 . S
H1311 C1335 0.950 . S
H1312 C1336 0.950 . S
H1313 C1337 0.951 . S
H1314 C1339 0.951 . S
H1315 C1341 0.950 . S
H1316 C1342 0.950 . S
H1317 C1344 0.950 . S
H1318 C1347 0.950 . S
H1319 C1348 0.950 . S
H1320 C1350 0.950 . S
H1321 C1351 0.950 . S
C1322 H1304 0.951 . S
C1322 C1323 1.366 . S
C1322 C1324 1.388 . S
C1323 C1322 1.366 . S
C1323 C1327 1.385 . S
C1324 H1305 0.951 . S
C1324 C1322 1.388 . S
C1324 C1325 1.366 . S
C1325 C1324 1.366 . S
C1325 C1326 1.414 . S
C1325 C1328 1.499 . S
C1326 H1306 0.950 . S
C1326 C1325 1.414 . S
C1326 C1327 1.374 . S
C1327 H1307 0.950 . S
C1327 C1323 1.385 . S
C1327 C1326 1.374 . S
C1328 C1325 1.499 . S
C1328 C1329 1.373 . S
C1328 C1330 1.389 . S
C1329 H1308 0.950 . S
C1329 C1328 1.373 . S
C1329 C1345 1.377 . S
C1330 C1328 1.389 . S
C1330 C1331 1.524 . S
C1330 C1344 1.377 . S
C1331 C1330 1.524 . S
C1331 C1332 1.397 . S
C1331 C1336 1.363 . S
C1332 H1309 0.950 . S
C1332 C1331 1.397 . S
C1332 C1333 1.334 . S
C1333 H1310 0.950 . S
C1333 C1332 1.334 . S
C1333 C1334 1.287 . S
C1334 C1333 1.287 . S
C1334 C1335 1.524 . S
C1334 H1353 0.913 . S
C1335 H1311 0.950 . S
C1335 C1334 1.524 . S
C1335 C1336 1.415 . S
C1336 H1312 0.950 . S
C1336 C1331 1.363 . S
C1336 C1335 1.415 . S
C1337 H1313 0.951 . S
C1337 C1338 1.366 . S
C1337 C1339 1.388 . S
C1338 C1337 1.366 . S
C1338 C1342 1.385 . S
C1339 H1314 0.951 . S
C1339 C1337 1.388 . S
C1339 C1340 1.366 . S
C1340 C1339 1.366 . S
C1340 C1341 1.414 . S
C1340 C1343 1.499 . S
C1341 H1315 0.950 . S
C1341 C1340 1.414 . S
C1341 C1342 1.374 . S
C1342 H1316 0.950 . S
C1342 C1338 1.385 . S
C1342 C1341 1.374 . S
C1343 C1340 1.499 . S
C1343 C1344 1.373 . S
C1343 C1345 1.389 . S
C1344 H1317 0.950 . S
C1344 C1330 1.377 . S
C1344 C1343 1.373 . S
C1345 C1329 1.377 . S
C1345 C1343 1.389 . S
C1345 C1346 1.524 . S
C1346 C1345 1.524 . S
C1346 C1347 1.397 . S
C1346 C1351 1.363 . S
C1347 H1318 0.950 . S
C1347 C1346 1.397 . S
C1347 C1348 1.334 . S
C1348 H1319 0.950 . S
C1348 C1347 1.334 . S
C1348 C1349 1.287 . S
C1349 C1348 1.287 . S
C1349 C1350 1.524 . S
C1349 H1352 0.999 . S
C1350 H1320 0.950 . S
C1350 C1349 1.524 . S
C1350 C1351 1.415 . S
C1351 H1321 0.950 . S
C1351 C1346 1.363 . S
C1351 C1350 1.415 . S
H1352 C1349 0.999 . S
H1353 C1334 0.913 . S
H1354 C1372 0.951 . S
H1355 C1374 0.951 . S
H1356 C1376 0.950 . S
H1357 C1377 0.950 . S
H1358 C1379 0.950 . S
H1359 C1382 0.950 . S
H1360 C1383 0.950 . S
H1361 C1385 0.950 . S
H1362 C1386 0.950 . S
H1363 C1387 0.951 . S
H1364 C1389 0.951 . S
H1365 C1391 0.950 . S
H1366 C1392 0.950 . S
H1367 C1394 0.950 . S
H1368 C1397 0.950 . S
H1369 C1398 0.950 . S
H1370 C1400 0.950 . S
H1371 C1401 0.950 . S
C1372 H1354 0.951 . S
C1372 C1373 1.366 . S
C1372 C1374 1.388 . S
C1373 C1372 1.366 . S
C1373 C1377 1.385 . S
C1374 H1355 0.951 . S
C1374 C1372 1.388 . S
C1374 C1375 1.366 . S
C1375 C1374 1.366 . S
C1375 C1376 1.414 . S
C1375 C1378 1.499 . S
C1376 H1356 0.950 . S
C1376 C1375 1.414 . S
C1376 C1377 1.374 . S
C1377 H1357 0.950 . S
C1377 C1373 1.385 . S
C1377 C1376 1.374 . S
C1378 C1375 1.499 . S
C1378 C1379 1.373 . S
C1378 C1380 1.389 . S
C1379 H1358 0.950 . S
C1379 C1378 1.373 . S
C1379 C1395 1.377 . S
C1380 C1378 1.389 . S
C1380 C1381 1.524 . S
C1380 C1394 1.377 . S
C1381 C1380 1.524 . S
C1381 C1382 1.397 . S
C1381 C1386 1.363 . S
C1382 H1359 0.950 . S
C1382 C1381 1.397 . S
C1382 C1383 1.334 . S
C1383 H1360 0.950 . S
C1383 C1382 1.334 . S
C1383 C1384 1.287 . S
C1384 C1383 1.287 . S
C1384 C1385 1.524 . S
C1384 H1403 0.913 . S
C1385 H1361 0.950 . S
C1385 C1384 1.524 . S
C1385 C1386 1.415 . S
C1386 H1362 0.950 . S
C1386 C1381 1.363 . S
C1386 C1385 1.415 . S
C1387 H1363 0.951 . S
C1387 C1388 1.366 . S
C1387 C1389 1.388 . S
C1388 C1387 1.366 . S
C1388 C1392 1.385 . S
C1389 H1364 0.951 . S
C1389 C1387 1.388 . S
C1389 C1390 1.366 . S
C1390 C1389 1.366 . S
C1390 C1391 1.414 . S
C1390 C1393 1.499 . S
C1391 H1365 0.950 . S
C1391 C1390 1.414 . S
C1391 C1392 1.374 . S
C1392 H1366 0.950 . S
C1392 C1388 1.385 . S
C1392 C1391 1.374 . S
C1393 C1390 1.499 . S
C1393 C1394 1.373 . S
C1393 C1395 1.389 . S
C1394 H1367 0.950 . S
C1394 C1380 1.377 . S
C1394 C1393 1.373 . S
C1395 C1379 1.377 . S
C1395 C1393 1.389 . S
C1395 C1396 1.524 . S
C1396 C1395 1.524 . S
C1396 C1397 1.397 . S
C1396 C1401 1.363 . S
C1397 H1368 0.950 . S
C1397 C1396 1.397 . S
C1397 C1398 1.334 . S
C1398 H1369 0.950 . S
C1398 C1397 1.334 . S
C1398 C1399 1.287 . S
C1399 C1398 1.287 . S
C1399 C1400 1.524 . S
C1399 H1402 0.999 . S
C1400 H1370 0.950 . S
C1400 C1399 1.524 . S
C1400 C1401 1.415 . S
C1401 H1371 0.950 . S
C1401 C1396 1.363 . S
C1401 C1400 1.415 . S
H1402 C1399 0.999 . S
H1403 C1384 0.913 . S
H1404 C1422 0.951 . S
H1405 C1424 0.951 . S
H1406 C1426 0.950 1_655 S
H1407 C1427 0.950 1_655 S
H1408 C1429 0.950 . S
H1409 C1432 0.950 . S
H1410 C1433 0.950 . S
H1411 C1435 0.950 . S
H1412 C1436 0.950 . S
H1413 C1437 0.951 . S
H1414 C1439 0.951 . S
H1415 C1441 0.950 . S
H1416 C1442 0.950 . S
H1417 C1444 0.950 . S
H1418 C1447 0.950 . S
H1419 C1448 0.950 . S
H1420 C1450 0.950 . S
H1421 C1451 0.950 . S
C1422 H1404 0.951 . S
C1422 C1423 1.366 . S
C1422 C1424 1.388 . S
C1423 C1422 1.366 . S
C1423 C1427 1.385 . S
C1424 H1405 0.951 . S
C1424 C1422 1.388 . S
C1424 C1425 1.366 . S
C1425 C1424 1.366 . S
C1425 C1426 1.414 . S
C1425 C1428 1.499 . S
C1426 H1406 0.950 1_455 S
C1426 C1425 1.414 . S
C1426 C1427 1.374 . S
C1427 H1407 0.950 1_455 S
C1427 C1423 1.385 . S
C1427 C1426 1.374 . S
C1428 C1425 1.499 . S
C1428 C1429 1.373 1_455 S
C1428 C1430 1.389 . S
C1429 H1408 0.950 . S
C1429 C1428 1.373 1_655 S
C1429 C1445 1.377 . S
C1430 C1428 1.389 . S
C1430 C1431 1.524 . S
C1430 C1444 1.377 . S
C1431 C1430 1.524 . S
C1431 C1432 1.397 . S
C1431 C1436 1.363 . S
C1432 H1409 0.950 . S
C1432 C1431 1.397 . S
C1432 C1433 1.334 . S
C1433 H1410 0.950 . S
C1433 C1432 1.334 . S
C1433 C1434 1.287 . S
C1434 C1433 1.287 . S
C1434 C1435 1.524 . S
C1434 H1453 0.913 . S
C1435 H1411 0.950 . S
C1435 C1434 1.524 . S
C1435 C1436 1.415 . S
C1436 H1412 0.950 . S
C1436 C1431 1.363 . S
C1436 C1435 1.415 . S
C1437 H1413 0.951 . S
C1437 C1438 1.366 1_655 S
C1437 C1439 1.388 . S
C1438 C1437 1.366 1_455 S
C1438 C1442 1.385 . S
C1439 H1414 0.951 . S
C1439 C1437 1.388 . S
C1439 C1440 1.366 1_655 S
C1440 C1439 1.366 1_455 S
C1440 C1441 1.414 . S
C1440 C1443 1.499 . S
C1441 H1415 0.950 . S
C1441 C1440 1.414 . S
C1441 C1442 1.374 . S
C1442 H1416 0.950 . S
C1442 C1438 1.385 . S
C1442 C1441 1.374 . S
C1443 C1440 1.499 . S
C1443 C1444 1.373 . S
C1443 C1445 1.389 1_455 S
C1444 H1417 0.950 . S
C1444 C1430 1.377 . S
C1444 C1443 1.373 . S
C1445 C1429 1.377 . S
C1445 C1443 1.389 1_655 S
C1445 C1446 1.524 . S
C1446 C1445 1.524 . S
C1446 C1447 1.397 . S
C1446 C1451 1.363 . S
C1447 H1418 0.950 . S
C1447 C1446 1.397 . S
C1447 C1448 1.334 . S
C1448 H1419 0.950 . S
C1448 C1447 1.334 . S
C1448 C1449 1.287 . S
C1449 C1448 1.287 . S
C1449 C1450 1.524 . S
C1449 H1452 0.999 . S
C1450 H1420 0.950 . S
C1450 C1449 1.524 . S
C1450 C1451 1.415 . S
C1451 H1421 0.950 . S
C1451 C1446 1.363 . S
C1451 C1450 1.415 . S
H1452 C1449 0.999 . S
H1453 C1434 0.913 . S
H1454 C1472 0.951 . S
H1455 C1474 0.951 . S
H1456 C1476 0.950 . S
H1457 C1477 0.950 . S
H1458 C1479 0.950 . S
H1459 C1482 0.950 . S
H1460 C1483 0.950 . S
H1461 C1485 0.950 . S
H1462 C1486 0.950 . S
H1463 C1487 0.951 . S
H1464 C1489 0.951 . S
H1465 C1491 0.950 . S
H1466 C1492 0.950 . S
H1467 C1494 0.950 . S
H1468 C1497 0.950 . S
H1469 C1498 0.950 . S
H1470 C1500 0.950 . S
H1471 C1501 0.950 . S
C1472 H1454 0.951 . S
C1472 C1473 1.366 . S
C1472 C1474 1.388 . S
C1473 C1472 1.366 . S
C1473 C1477 1.385 . S
C1474 H1455 0.951 . S
C1474 C1472 1.388 . S
C1474 C1475 1.366 . S
C1475 C1474 1.366 . S
C1475 C1476 1.414 . S
C1475 C1478 1.499 . S
C1476 H1456 0.950 . S
C1476 C1475 1.414 . S
C1476 C1477 1.374 . S
C1477 H1457 0.950 . S
C1477 C1473 1.385 . S
C1477 C1476 1.374 . S
C1478 C1475 1.499 . S
C1478 C1479 1.373 . S
C1478 C1480 1.389 . S
C1479 H1458 0.950 . S
C1479 C1478 1.373 . S
C1479 C1495 1.377 . S
C1480 C1478 1.389 . S
C1480 C1481 1.524 . S
C1480 C1494 1.377 . S
C1481 C1480 1.524 . S
C1481 C1482 1.397 . S
C1481 C1486 1.363 . S
C1482 H1459 0.950 . S
C1482 C1481 1.397 . S
C1482 C1483 1.334 . S
C1483 H1460 0.950 . S
C1483 C1482 1.334 . S
C1483 C1484 1.287 . S
C1484 C1483 1.287 . S
C1484 C1485 1.524 . S
C1484 H1503 0.913 . S
C1485 H1461 0.950 . S
C1485 C1484 1.524 . S
C1485 C1486 1.415 . S
C1486 H1462 0.950 . S
C1486 C1481 1.363 . S
C1486 C1485 1.415 . S
C1487 H1463 0.951 . S
C1487 C1488 1.366 . S
C1487 C1489 1.388 . S
C1488 C1487 1.366 . S
C1488 C1492 1.385 . S
C1489 H1464 0.951 . S
C1489 C1487 1.388 . S
C1489 C1490 1.366 . S
C1490 C1489 1.366 . S
C1490 C1491 1.414 . S
C1490 C1493 1.499 . S
C1491 H1465 0.950 . S
C1491 C1490 1.414 . S
C1491 C1492 1.374 . S
C1492 H1466 0.950 . S
C1492 C1488 1.385 . S
C1492 C1491 1.374 . S
C1493 C1490 1.499 . S
C1493 C1494 1.373 . S
C1493 C1495 1.389 . S
C1494 H1467 0.950 . S
C1494 C1480 1.377 . S
C1494 C1493 1.373 . S
C1495 C1479 1.377 . S
C1495 C1493 1.389 . S
C1495 C1496 1.524 . S
C1496 C1495 1.524 . S
C1496 C1497 1.397 . S
C1496 C1501 1.363 . S
C1497 H1468 0.950 . S
C1497 C1496 1.397 . S
C1497 C1498 1.334 . S
C1498 H1469 0.950 . S
C1498 C1497 1.334 . S
C1498 C1499 1.287 . S
C1499 C1498 1.287 . S
C1499 C1500 1.524 . S
C1499 H1502 0.999 . S
C1500 H1470 0.950 . S
C1500 C1499 1.524 . S
C1500 C1501 1.415 . S
C1501 H1471 0.950 . S
C1501 C1496 1.363 . S
C1501 C1500 1.415 . S
H1502 C1499 0.999 . S
H1503 C1484 0.913 . S
H1504 C1522 0.951 . S
H1505 C1524 0.951 . S
H1506 C1526 0.950 . S
H1507 C1527 0.950 . S
H1508 C1529 0.950 . S
H1509 C1532 0.954 1_565 S
H1510 C1533 0.950 . S
H1511 C1535 0.950 . S
H1512 C1536 0.950 . S
H1513 C1537 0.951 . S
H1514 C1539 0.951 . S
H1515 C1541 0.950 . S
H1516 C1542 0.950 . S
H1517 C1544 0.950 . S
H1518 C1547 0.950 . S
H1519 C1548 0.950 . S
H1520 C1550 0.950 . S
H1521 C1551 0.950 . S
C1522 H1504 0.951 . S
C1522 C1523 1.366 . S
C1522 C1524 1.388 . S
C1523 C1522 1.366 . S
C1523 C1527 1.385 . S
C1524 H1505 0.951 . S
C1524 C1522 1.388 . S
C1524 C1525 1.366 . S
C1525 C1524 1.366 . S
C1525 C1526 1.414 . S
C1525 C1528 1.499 . S
C1526 H1506 0.950 . S
C1526 C1525 1.414 . S
C1526 C1527 1.374 . S
C1527 H1507 0.950 . S
C1527 C1523 1.385 . S
C1527 C1526 1.374 . S
C1528 C1525 1.499 . S
C1528 C1529 1.373 . S
C1528 C1530 1.389 . S
C1529 H1508 0.950 . S
C1529 C1528 1.373 . S
C1529 C1545 1.377 . S
C1530 C1528 1.389 . S
C1530 C1531 1.524 . S
C1530 C1544 1.377 . S
C1531 C1530 1.524 . S
C1531 C1532 1.397 . S
C1531 C1536 1.363 . S
C1532 H1509 0.954 1_545 S
C1532 C1531 1.397 . S
C1532 C1533 1.334 1_545 S
C1533 H1510 0.950 . S
C1533 C1532 1.334 1_565 S
C1533 C1534 1.287 . S
C1534 C1533 1.287 . S
C1534 C1535 1.524 1_565 S
C1534 H1553 0.913 . S
C1535 H1511 0.950 . S
C1535 C1534 1.524 1_545 S
C1535 C1536 1.415 . S
C1536 H1512 0.950 . S
C1536 C1531 1.363 . S
C1536 C1535 1.415 . S
C1537 H1513 0.951 . S
C1537 C1538 1.366 . S
C1537 C1539 1.388 . S
C1538 C1537 1.366 . S
C1538 C1542 1.385 . S
C1539 H1514 0.951 . S
C1539 C1537 1.388 . S
C1539 C1540 1.366 . S
C1540 C1539 1.366 . S
C1540 C1541 1.414 . S
C1540 C1543 1.499 . S
C1541 H1515 0.950 . S
C1541 C1540 1.414 . S
C1541 C1542 1.374 . S
C1542 H1516 0.950 . S
C1542 C1538 1.385 . S
C1542 C1541 1.374 . S
C1543 C1540 1.499 . S
C1543 C1544 1.373 . S
C1543 C1545 1.389 . S
C1544 H1517 0.950 . S
C1544 C1530 1.377 . S
C1544 C1543 1.373 . S
C1545 C1529 1.377 . S
C1545 C1543 1.389 . S
C1545 C1546 1.524 . S
C1546 C1545 1.524 . S
C1546 C1547 1.397 . S
C1546 C1551 1.363 . S
C1547 H1518 0.950 . S
C1547 C1546 1.397 . S
C1547 C1548 1.334 . S
C1548 H1519 0.950 . S
C1548 C1547 1.334 . S
C1548 C1549 1.287 . S
C1549 C1548 1.287 . S
C1549 C1550 1.524 . S
C1549 H1552 0.999 . S
C1550 H1520 0.950 . S
C1550 C1549 1.524 . S
C1550 C1551 1.415 . S
C1551 H1521 0.950 . S
C1551 C1546 1.363 . S
C1551 C1550 1.415 . S
H1552 C1549 0.999 . S
H1553 C1534 0.913 . S
H1554 C1572 0.951 1_565 S
H1555 C1574 0.951 1_565 S
H1556 C1576 0.950 . S
H1557 C1577 0.950 . S
H1558 C1579 0.950 . S
H1559 C1582 0.950 . S
H1560 C1583 0.950 . S
H1561 C1585 0.950 . S
H1562 C1586 0.950 . S
H1563 C1587 0.951 . S
H1564 C1589 0.951 . S
H1565 C1591 0.950 . S
H1566 C1592 0.950 . S
H1567 C1594 0.950 1_565 S
H1568 C1597 0.920 1_565 S
H1569 C1598 0.950 . S
H1570 C1600 0.950 . S
H1571 C1601 0.950 . S
C1572 H1554 0.951 1_545 S
C1572 C1573 1.366 . S
C1572 C1574 1.388 . S
C1573 C1572 1.366 . S
C1573 C1577 1.385 . S
C1574 H1555 0.951 1_545 S
C1574 C1572 1.388 . S
C1574 C1575 1.366 . S
C1575 C1574 1.366 . S
C1575 C1576 1.414 . S
C1575 C1578 1.499 . S
C1576 H1556 0.950 . S
C1576 C1575 1.414 . S
C1576 C1577 1.374 . S
C1577 H1557 0.950 . S
C1577 C1573 1.385 . S
C1577 C1576 1.374 . S
C1578 C1575 1.499 . S
C1578 C1579 1.373 . S
C1578 C1580 1.389 . S
C1579 H1558 0.950 . S
C1579 C1578 1.373 . S
C1579 C1595 1.377 . S
C1580 C1578 1.389 . S
C1580 C1581 1.524 1_545 S
C1580 C1594 1.377 . S
C1581 C1580 1.524 1_565 S
C1581 C1582 1.397 1_565 S
C1581 C1586 1.363 . S
C1582 H1559 0.950 . S
C1582 C1581 1.397 1_545 S
C1582 C1583 1.334 . S
C1583 H1560 0.950 . S
C1583 C1582 1.334 . S
C1583 C1584 1.287 1_545 S
C1584 C1583 1.287 1_565 S
C1584 C1585 1.524 . S
C1584 H1603 0.913 . S
C1585 H1561 0.950 . S
C1585 C1584 1.524 . S
C1585 C1586 1.415 . S
C1586 H1562 0.950 . S
C1586 C1581 1.363 . S
C1586 C1585 1.415 . S
C1587 H1563 0.951 . S
C1587 C1588 1.366 . S
C1587 C1589 1.388 . S
C1588 C1587 1.366 . S
C1588 C1592 1.385 1_545 S
C1589 H1564 0.951 . S
C1589 C1587 1.388 . S
C1589 C1590 1.366 . S
C1590 C1589 1.366 . S
C1590 C1591 1.414 1_545 S
C1590 C1593 1.499 . S
C1591 H1565 0.950 . S
C1591 C1590 1.414 1_565 S
C1591 C1592 1.374 . S
C1592 H1566 0.950 . S
C1592 C1588 1.385 1_565 S
C1592 C1591 1.374 . S
C1593 C1590 1.499 . S
C1593 C1594 1.373 . S
C1593 C1595 1.389 . S
C1594 H1567 0.950 1_545 S
C1594 C1580 1.377 . S
C1594 C1593 1.373 . S
C1595 C1579 1.377 . S
C1595 C1593 1.389 . S
C1595 C1596 1.524 . S
C1596 C1595 1.524 . S
C1596 C1597 1.397 . S
C1596 C1601 1.363 . S
C1597 H1568 0.920 1_545 S
C1597 C1596 1.397 . S
C1597 C1598 1.334 . S
C1598 H1569 0.950 . S
C1598 C1597 1.334 . S
C1598 C1599 1.287 . S
C1599 C1598 1.287 . S
C1599 C1600 1.524 . S
C1599 H1602 0.999 . S
C1600 H1570 0.950 . S
C1600 C1599 1.524 . S
C1600 C1601 1.415 . S
C1601 H1571 0.950 . S
C1601 C1596 1.363 . S
C1601 C1600 1.415 . S
H1602 C1599 0.999 . S
H1603 C1584 0.913 . S
H1604 C1622 0.951 . S
H1605 C1624 0.951 . S
H1606 C1626 0.950 . S
H1607 C1627 0.950 . S
H1608 C1629 0.950 . S
H1609 C1632 0.954 . S
H1610 C1633 0.950 . S
H1611 C1635 0.950 . S
H1612 C1636 0.950 . S
H1613 C1637 0.951 . S
H1614 C1639 0.951 . S
H1615 C1641 0.950 . S
H1616 C1642 0.950 . S
H1617 C1644 0.950 . S
H1618 C1647 0.950 . S
H1619 C1648 0.950 . S
H1620 C1650 0.950 . S
H1621 C1651 0.950 . S
C1622 H1604 0.951 . S
C1622 C1623 1.366 . S
C1622 C1624 1.388 . S
C1623 C1622 1.366 . S
C1623 C1627 1.385 . S
C1624 H1605 0.951 . S
C1624 C1622 1.388 . S
C1624 C1625 1.366 . S
C1625 C1624 1.366 . S
C1625 C1626 1.414 . S
C1625 C1628 1.499 . S
C1626 H1606 0.950 . S
C1626 C1625 1.414 . S
C1626 C1627 1.374 . S
C1627 H1607 0.950 . S
C1627 C1623 1.385 . S
C1627 C1626 1.374 . S
C1628 C1625 1.499 . S
C1628 C1629 1.373 . S
C1628 C1630 1.389 . S
C1629 H1608 0.950 . S
C1629 C1628 1.373 . S
C1629 C1645 1.377 . S
C1630 C1628 1.389 . S
C1630 C1631 1.524 . S
C1630 C1644 1.377 . S
C1631 C1630 1.524 . S
C1631 C1632 1.423 . S
C1631 C1636 1.363 1_455 S
C1632 H1609 0.954 . S
C1632 C1631 1.423 . S
C1632 C1633 1.305 1_455 S
C1633 H1610 0.950 . S
C1633 C1632 1.305 1_655 S
C1633 C1634 1.287 . S
C1634 C1633 1.287 . S
C1634 C1635 1.524 . S
C1634 H1653 0.913 . S
C1635 H1611 0.950 . S
C1635 C1634 1.524 . S
C1635 C1636 1.415 . S
C1636 H1612 0.950 . S
C1636 C1631 1.363 1_655 S
C1636 C1635 1.415 . S
C1637 H1613 0.951 . S
C1637 C1638 1.366 . S
C1637 C1639 1.388 . S
C1638 C1637 1.366 . S
C1638 C1642 1.385 . S
C1639 H1614 0.951 . S
C1639 C1637 1.388 . S
C1639 C1640 1.366 . S
C1640 C1639 1.366 . S
C1640 C1641 1.414 . S
C1640 C1643 1.499 . S
C1641 H1615 0.950 . S
C1641 C1640 1.414 . S
C1641 C1642 1.374 . S
C1642 H1616 0.950 . S
C1642 C1638 1.385 . S
C1642 C1641 1.374 . S
C1643 C1640 1.499 . S
C1643 C1644 1.373 . S
C1643 C1645 1.389 . S
C1644 H1617 0.950 . S
C1644 C1630 1.377 . S
C1644 C1643 1.373 . S
C1645 C1629 1.377 . S
C1645 C1643 1.389 . S
C1645 C1646 1.524 . S
C1646 C1645 1.524 . S
C1646 C1647 1.397 . S
C1646 C1651 1.363 . S
C1647 H1618 0.950 . S
C1647 C1646 1.397 . S
C1647 C1648 1.334 . S
C1648 H1619 0.950 . S
C1648 C1647 1.334 . S
C1648 C1649 1.287 . S
C1649 C1648 1.287 . S
C1649 C1650 1.524 . S
C1649 H1652 0.999 . S
C1650 H1620 0.950 . S
C1650 C1649 1.524 . S
C1650 C1651 1.415 . S
C1651 H1621 0.950 . S
C1651 C1646 1.363 . S
C1651 C1650 1.415 . S
H1652 C1649 0.999 . S
H1653 C1634 0.913 . S
H1654 C1672 0.951 . S
H1655 C1674 0.951 . S
H1656 C1676 0.950 . S
H1657 C1677 0.950 . S
H1658 C1679 0.950 . S
H1659 C1682 0.950 . S
H1660 C1683 0.950 . S
H1661 C1685 0.950 . S
H1662 C1686 0.950 . S
H1663 C1687 0.951 . S
H1664 C1689 0.951 . S
H1665 C1691 0.950 . S
H1666 C1692 0.950 . S
H1667 C1694 0.950 . S
H1668 C1697 0.950 . S
H1669 C1698 0.950 . S
H1670 C1700 0.950 . S
H1671 C1701 0.950 . S
C1672 H1654 0.951 . S
C1672 C1673 1.366 . S
C1672 C1674 1.388 . S
C1673 C1672 1.366 . S
C1673 C1677 1.385 . S
C1674 H1655 0.951 . S
C1674 C1672 1.388 . S
C1674 C1675 1.366 . S
C1675 C1674 1.366 . S
C1675 C1676 1.414 . S
C1675 C1678 1.499 . S
C1676 H1656 0.950 . S
C1676 C1675 1.414 . S
C1676 C1677 1.374 . S
C1677 H1657 0.950 . S
C1677 C1673 1.385 . S
C1677 C1676 1.374 . S
C1678 C1675 1.499 . S
C1678 C1679 1.373 . S
C1678 C1680 1.389 . S
C1679 H1658 0.950 . S
C1679 C1678 1.373 . S
C1679 C1695 1.377 . S
C1680 C1678 1.389 . S
C1680 C1681 1.524 . S
C1680 C1694 1.377 . S
C1681 C1680 1.524 . S
C1681 C1682 1.397 . S
C1681 C1686 1.363 . S
C1682 H1659 0.950 . S
C1682 C1681 1.397 . S
C1682 C1683 1.334 . S
C1683 H1660 0.950 . S
C1683 C1682 1.334 . S
C1683 C1684 1.287 . S
C1684 C1683 1.287 . S
C1684 C1685 1.524 . S
C1684 H1703 0.913 . S
C1685 H1661 0.950 . S
C1685 C1684 1.524 . S
C1685 C1686 1.415 . S
C1686 H1662 0.950 . S
C1686 C1681 1.363 . S
C1686 C1685 1.415 . S
C1687 H1663 0.951 . S
C1687 C1688 1.366 . S
C1687 C1689 1.388 . S
C1688 C1687 1.366 . S
C1688 C1692 1.385 . S
C1689 H1664 0.951 . S
C1689 C1687 1.388 . S
C1689 C1690 1.366 . S
C1690 C1689 1.366 . S
C1690 C1691 1.414 . S
C1690 C1693 1.499 . S
C1691 H1665 0.950 . S
C1691 C1690 1.414 . S
C1691 C1692 1.374 . S
C1692 H1666 0.950 . S
C1692 C1688 1.385 . S
C1692 C1691 1.374 . S
C1693 C1690 1.499 . S
C1693 C1694 1.373 . S
C1693 C1695 1.389 . S
C1694 H1667 0.950 . S
C1694 C1680 1.377 . S
C1694 C1693 1.373 . S
C1695 C1679 1.377 . S
C1695 C1693 1.389 . S
C1695 C1696 1.524 . S
C1696 C1695 1.524 . S
C1696 C1697 1.397 . S
C1696 C1701 1.363 . S
C1697 H1668 0.950 . S
C1697 C1696 1.397 . S
C1697 C1698 1.334 . S
C1698 H1669 0.950 . S
C1698 C1697 1.334 . S
C1698 C1699 1.287 . S
C1699 C1698 1.287 . S
C1699 C1700 1.524 . S
C1699 H1702 0.999 . S
C1700 H1670 0.950 . S
C1700 C1699 1.524 . S
C1700 C1701 1.415 . S
C1701 H1671 0.950 . S
C1701 C1696 1.363 . S
C1701 C1700 1.415 . S
H1702 C1699 0.999 . S
H1703 C1684 0.913 . S
H1704 C1722 0.951 . S
H1705 C1724 0.951 . S
H1706 C1726 0.950 . S
H1707 C1727 0.950 . S
H1708 C1729 0.950 . S
H1709 C1732 0.950 . S
H1710 C1733 0.950 . S
H1711 C1735 0.950 . S
H1712 C1736 0.950 . S
H1713 C1737 0.951 . S
H1714 C1739 0.951 . S
H1715 C1741 0.950 . S
H1716 C1742 0.950 . S
H1717 C1744 0.950 . S
H1718 C1747 0.950 . S
H1719 C1748 0.950 . S
H1720 C1750 0.950 . S
H1721 C1751 0.950 . S
C1722 H1704 0.951 . S
C1722 C1723 1.366 . S
C1722 C1724 1.388 . S
C1723 C1722 1.366 . S
C1723 C1727 1.385 . S
C1724 H1705 0.951 . S
C1724 C1722 1.388 . S
C1724 C1725 1.366 . S
C1725 C1724 1.366 . S
C1725 C1726 1.414 . S
C1725 C1728 1.499 . S
C1726 H1706 0.950 . S
C1726 C1725 1.414 . S
C1726 C1727 1.374 . S
C1727 H1707 0.950 . S
C1727 C1723 1.385 . S
C1727 C1726 1.374 . S
C1728 C1725 1.499 . S
C1728 C1729 1.373 . S
C1728 C1730 1.389 . S
C1729 H1708 0.950 . S
C1729 C1728 1.373 . S
C1729 C1745 1.377 . S
C1730 C1728 1.389 . S
C1730 C1731 1.524 . S
C1730 C1744 1.377 . S
C1731 C1730 1.524 . S
C1731 C1732 1.397 . S
C1731 C1736 1.363 . S
C1732 H1709 0.950 . S
C1732 C1731 1.397 . S
C1732 C1733 1.334 . S
C1733 H1710 0.950 . S
C1733 C1732 1.334 . S
C1733 C1734 1.287 . S
C1734 C1733 1.287 . S
C1734 C1735 1.524 . S
C1734 H1753 0.913 . S
C1735 H1711 0.950 . S
C1735 C1734 1.524 . S
C1735 C1736 1.415 . S
C1736 H1712 0.950 . S
C1736 C1731 1.363 . S
C1736 C1735 1.415 . S
C1737 H1713 0.951 . S
C1737 C1738 1.366 . S
C1737 C1739 1.388 . S
C1738 C1737 1.366 . S
C1738 C1742 1.385 . S
C1739 H1714 0.951 . S
C1739 C1737 1.388 . S
C1739 C1740 1.366 . S
C1740 C1739 1.366 . S
C1740 C1741 1.414 . S
C1740 C1743 1.499 . S
C1741 H1715 0.950 . S
C1741 C1740 1.414 . S
C1741 C1742 1.374 . S
C1742 H1716 0.950 . S
C1742 C1738 1.385 . S
C1742 C1741 1.374 . S
C1743 C1740 1.499 . S
C1743 C1744 1.373 . S
C1743 C1745 1.389 . S
C1744 H1717 0.950 . S
C1744 C1730 1.377 . S
C1744 C1743 1.373 . S
C1745 C1729 1.377 . S
C1745 C1743 1.389 . S
C1745 C1746 1.524 . S
C1746 C1745 1.524 . S
C1746 C1747 1.397 . S
C1746 C1751 1.363 1_455 S
C1747 H1718 0.950 . S
C1747 C1746 1.397 . S
C1747 C1748 1.334 1_455 S
C1748 H1719 0.950 . S
C1748 C1747 1.334 1_655 S
C1748 C1749 1.287 . S
C1749 C1748 1.287 . S
C1749 C1750 1.524 . S
C1749 H1752 0.999 . S
C1750 H1720 0.950 . S
C1750 C1749 1.524 . S
C1750 C1751 1.415 . S
C1751 H1721 0.950 . S
C1751 C1746 1.363 1_655 S
C1751 C1750 1.415 . S
H1752 C1749 0.999 . S
H1753 C1734 0.913 . S
H1754 C1772 0.951 . S
H1755 C1774 0.951 . S
H1756 C1776 0.950 . S
H1757 C1777 0.950 . S
H1758 C1779 0.950 . S
H1759 C1782 0.950 . S
H1760 C1783 0.950 . S
H1761 C1785 0.950 . S
H1762 C1786 0.950 . S
H1763 C1787 0.951 . S
H1764 C1789 0.951 . S
H1765 C1791 0.950 . S
H1766 C1792 0.950 . S
H1767 C1794 0.950 . S
H1768 C1797 0.950 . S
H1769 C1798 0.950 . S
H1770 C1800 0.950 . S
H1771 C1801 0.950 . S
C1772 H1754 0.951 . S
C1772 C1773 1.366 . S
C1772 C1774 1.388 . S
C1773 C1772 1.366 . S
C1773 C1777 1.385 . S
C1774 H1755 0.951 . S
C1774 C1772 1.388 . S
C1774 C1775 1.366 . S
C1775 C1774 1.366 . S
C1775 C1776 1.414 . S
C1775 C1778 1.499 . S
C1776 H1756 0.950 . S
C1776 C1775 1.414 . S
C1776 C1777 1.374 . S
C1777 H1757 0.950 . S
C1777 C1773 1.385 . S
C1777 C1776 1.374 . S
C1778 C1775 1.499 . S
C1778 C1779 1.373 . S
C1778 C1780 1.389 . S
C1779 H1758 0.950 . S
C1779 C1778 1.373 . S
C1779 C1795 1.377 . S
C1780 C1778 1.389 . S
C1780 C1781 1.524 . S
C1780 C1794 1.377 . S
C1781 C1780 1.524 . S
C1781 C1782 1.397 . S
C1781 C1786 1.363 . S
C1782 H1759 0.950 . S
C1782 C1781 1.397 . S
C1782 C1783 1.334 . S
C1783 H1760 0.950 . S
C1783 C1782 1.334 . S
C1783 C1784 1.287 . S
C1784 C1783 1.287 . S
C1784 C1785 1.524 . S
C1784 H1803 0.913 . S
C1785 H1761 0.950 . S
C1785 C1784 1.524 . S
C1785 C1786 1.415 . S
C1786 H1762 0.950 . S
C1786 C1781 1.363 . S
C1786 C1785 1.415 . S
C1787 H1763 0.951 . S
C1787 C1788 1.366 . S
C1787 C1789 1.388 . S
C1788 C1787 1.366 . S
C1788 C1792 1.385 . S
C1789 H1764 0.951 . S
C1789 C1787 1.388 . S
C1789 C1790 1.366 . S
C1790 C1789 1.366 . S
C1790 C1791 1.414 . S
C1790 C1793 1.499 . S
C1791 H1765 0.950 . S
C1791 C1790 1.414 . S
C1791 C1792 1.374 . S
C1792 H1766 0.950 . S
C1792 C1788 1.385 . S
C1792 C1791 1.374 . S
C1793 C1790 1.499 . S
C1793 C1794 1.373 . S
C1793 C1795 1.389 . S
C1794 H1767 0.950 . S
C1794 C1780 1.377 . S
C1794 C1793 1.373 . S
C1795 C1779 1.377 . S
C1795 C1793 1.389 . S
C1795 C1796 1.524 . S
C1796 C1795 1.524 . S
C1796 C1797 1.397 . S
C1796 C1801 1.363 . S
C1797 H1768 0.950 . S
C1797 C1796 1.397 . S
C1797 C1798 1.334 . S
C1798 H1769 0.950 . S
C1798 C1797 1.334 . S
C1798 C1799 1.287 . S
C1799 C1798 1.287 . S
C1799 C1800 1.524 . S
C1799 H1802 0.999 . S
C1800 H1770 0.950 . S
C1800 C1799 1.524 . S
C1800 C1801 1.415 . S
C1801 H1771 0.950 . S
C1801 C1796 1.363 . S
C1801 C1800 1.415 . S
H1802 C1799 0.999 . S
H1803 C1784 0.913 . S
H1804 C1822 0.951 . S
H1805 C1824 0.951 . S
H1806 C1826 0.950 1_565 S
H1807 C1827 0.925 1_565 S
H1808 C1829 0.950 . S
H1809 C1832 0.950 . S
H1810 C1833 0.950 . S
H1811 C1835 0.950 . S
H1812 C1836 0.950 . S
H1813 C1837 0.951 . S
H1814 C1839 0.951 . S
H1815 C1841 0.950 . S
H1816 C1842 0.950 . S
H1817 C1844 0.950 . S
H1818 C1847 0.950 . S
H1819 C1848 0.950 . S
H1820 C1850 0.950 1_565 S
H1821 C1851 0.923 1_565 S
C1822 H1804 0.951 . S
C1822 C1823 1.366 . S
C1822 C1824 1.388 . S
C1823 C1822 1.366 . S
C1823 C1827 1.385 . S
C1824 H1805 0.951 . S
C1824 C1822 1.388 . S
C1824 C1825 1.366 . S
C1825 C1824 1.366 . S
C1825 C1826 1.414 . S
C1825 C1828 1.499 . S
C1826 H1806 0.950 1_545 S
C1826 C1825 1.414 . S
C1826 C1827 1.374 . S
C1827 H1807 0.925 1_545 S
C1827 C1823 1.385 . S
C1827 C1826 1.374 . S
C1828 C1825 1.499 . S
C1828 C1829 1.373 . S
C1828 C1830 1.389 . S
C1829 H1808 0.950 . S
C1829 C1828 1.373 . S
C1829 C1845 1.377 . S
C1830 C1828 1.389 . S
C1830 C1831 1.524 . S
C1830 C1844 1.377 . S
C1831 C1830 1.524 . S
C1831 C1832 1.397 1_545 S
C1831 C1836 1.363 . S
C1832 H1809 0.950 . S
C1832 C1831 1.397 1_565 S
C1832 C1833 1.334 . S
C1833 H1810 0.950 . S
C1833 C1832 1.334 . S
C1833 C1834 1.287 1_565 S
C1834 C1833 1.287 1_545 S
C1834 C1835 1.524 . S
C1834 H1853 0.913 . S
C1835 H1811 0.950 . S
C1835 C1834 1.524 . S
C1835 C1836 1.415 . S
C1836 H1812 0.950 . S
C1836 C1831 1.363 . S
C1836 C1835 1.415 . S
C1837 H1813 0.951 . S
C1837 C1838 1.366 1_565 S
C1837 C1839 1.388 . S
C1838 C1837 1.366 1_545 S
C1838 C1842 1.385 . S
C1839 H1814 0.951 . S
C1839 C1837 1.388 . S
C1839 C1840 1.366 1_565 S
C1840 C1839 1.366 1_545 S
C1840 C1841 1.414 . S
C1840 C1843 1.499 . S
C1841 H1815 0.950 . S
C1841 C1840 1.414 . S
C1841 C1842 1.374 . S
C1842 H1816 0.950 . S
C1842 C1838 1.385 . S
C1842 C1841 1.374 . S
C1843 C1840 1.499 . S
C1843 C1844 1.373 . S
C1843 C1845 1.389 . S
C1844 H1817 0.950 . S
C1844 C1830 1.377 . S
C1844 C1843 1.373 . S
C1845 C1829 1.377 . S
C1845 C1843 1.389 . S
C1845 C1846 1.524 . S
C1846 C1845 1.524 . S
C1846 C1847 1.397 . S
C1846 C1851 1.408 . S
C1847 H1818 0.950 . S
C1847 C1846 1.397 . S
C1847 C1848 1.334 . S
C1848 H1819 0.950 . S
C1848 C1847 1.334 . S
C1848 C1849 1.287 . S
C1849 C1848 1.287 . S
C1849 C1850 1.524 . S
C1849 H1852 0.999 . S
C1850 H1820 0.950 1_545 S
C1850 C1849 1.524 . S
C1850 C1851 1.399 . S
C1851 H1821 0.923 1_545 S
C1851 C1846 1.408 . S
C1851 C1850 1.399 . S
H1852 C1849 0.999 . S
H1853 C1834 0.913 . S
H1854 C1872 0.951 . S
H1855 C1874 0.951 . S
H1856 C1876 0.950 . S
H1857 C1877 0.950 . S
H1858 C1879 0.950 . S
H1859 C1882 0.902 1_545 S
H1860 C1883 0.950 . S
H1861 C1885 0.950 . S
H1862 C1886 0.950 . S
H1863 C1887 0.951 . S
H1864 C1889 0.951 . S
H1865 C1891 0.950 . S
H1866 C1892 0.950 . S
H1867 C1894 0.950 . S
H1868 C1897 0.950 . S
H1869 C1898 0.950 . S
H1870 C1900 0.950 . S
H1871 C1901 0.950 . S
C1872 H1854 0.951 . S
C1872 C1873 1.366 . S
C1872 C1874 1.388 . S
C1873 C1872 1.366 . S
C1873 C1877 1.385 . S
C1874 H1855 0.951 . S
C1874 C1872 1.388 . S
C1874 C1875 1.366 . S
C1875 C1874 1.366 . S
C1875 C1876 1.414 . S
C1875 C1878 1.499 . S
C1876 H1856 0.950 . S
C1876 C1875 1.414 . S
C1876 C1877 1.374 . S
C1877 H1857 0.950 . S
C1877 C1873 1.385 . S
C1877 C1876 1.374 . S
C1878 C1875 1.499 . S
C1878 C1879 1.373 . S
C1878 C1880 1.389 . S
C1879 H1858 0.950 . S
C1879 C1878 1.373 . S
C1879 C1895 1.377 . S
C1880 C1878 1.389 . S
C1880 C1881 1.524 . S
C1880 C1894 1.377 . S
C1881 C1880 1.524 . S
C1881 C1882 1.410 1_545 S
C1881 C1886 1.363 1_545 S
C1882 H1859 0.902 1_565 S
C1882 C1881 1.410 1_565 S
C1882 C1883 1.369 . S
C1883 H1860 0.950 . S
C1883 C1882 1.369 . S
C1883 C1884 1.287 . S
C1884 C1883 1.287 . S
C1884 C1885 1.524 . S
C1884 H1903 0.913 . S
C1885 H1861 0.950 . S
C1885 C1884 1.524 . S
C1885 C1886 1.415 . S
C1886 H1862 0.950 . S
C1886 C1881 1.363 1_565 S
C1886 C1885 1.415 . S
C1887 H1863 0.951 . S
C1887 C1888 1.366 . S
C1887 C1889 1.388 . S
C1888 C1887 1.366 . S
C1888 C1892 1.385 . S
C1889 H1864 0.951 . S
C1889 C1887 1.388 . S
C1889 C1890 1.366 . S
C1890 C1889 1.366 . S
C1890 C1891 1.414 . S
C1890 C1893 1.499 . S
C1891 H1865 0.950 . S
C1891 C1890 1.414 . S
C1891 C1892 1.374 . S
C1892 H1866 0.950 . S
C1892 C1888 1.385 . S
C1892 C1891 1.374 . S
C1893 C1890 1.499 . S
C1893 C1894 1.373 . S
C1893 C1895 1.389 . S
C1894 H1867 0.950 . S
C1894 C1880 1.377 . S
C1894 C1893 1.373 . S
C1895 C1879 1.377 . S
C1895 C1893 1.389 . S
C1895 C1896 1.524 . S
C1896 C1895 1.524 . S
C1896 C1897 1.397 . S
C1896 C1901 1.363 . S
C1897 H1868 0.950 . S
C1897 C1896 1.397 . S
C1897 C1898 1.334 . S
C1898 H1869 0.950 . S
C1898 C1897 1.334 . S
C1898 C1899 1.287 . S
C1899 C1898 1.287 . S
C1899 C1900 1.524 . S
C1899 H1902 0.999 . S
C1900 H1870 0.950 . S
C1900 C1899 1.524 . S
C1900 C1901 1.415 . S
C1901 H1871 0.950 . S
C1901 C1896 1.363 . S
C1901 C1900 1.415 . S
H1902 C1899 0.999 . S
H1903 C1884 0.913 . S
H1904 C1922 0.951 . S
H1905 C1924 0.951 . S
H1906 C1926 0.950 1_655 S
H1907 C1927 0.950 1_655 S
H1908 C1929 0.950 . S
H1909 C1932 0.950 . S
H1910 C1933 0.950 . S
H1911 C1935 0.950 . S
H1912 C1936 0.950 . S
H1913 C1937 0.951 . S
H1914 C1939 0.951 . S
H1915 C1941 0.950 . S
H1916 C1942 0.950 . S
H1917 C1944 0.950 . S
H1918 C1947 0.950 . S
H1919 C1948 0.950 . S
H1920 C1950 0.950 . S
H1921 C1951 0.950 . S
C1922 H1904 0.951 . S
C1922 C1923 1.366 . S
C1922 C1924 1.388 . S
C1923 C1922 1.366 . S
C1923 C1927 1.385 . S
C1924 H1905 0.951 . S
C1924 C1922 1.388 . S
C1924 C1925 1.366 . S
C1925 C1924 1.366 . S
C1925 C1926 1.414 . S
C1925 C1928 1.499 . S
C1926 H1906 0.950 1_455 S
C1926 C1925 1.414 . S
C1926 C1927 1.374 . S
C1927 H1907 0.950 1_455 S
C1927 C1923 1.385 . S
C1927 C1926 1.374 . S
C1928 C1925 1.499 . S
C1928 C1929 1.373 1_455 S
C1928 C1930 1.389 . S
C1929 H1908 0.950 . S
C1929 C1928 1.373 1_655 S
C1929 C1945 1.377 . S
C1930 C1928 1.389 . S
C1930 C1931 1.524 . S
C1930 C1944 1.377 . S
C1931 C1930 1.524 . S
C1931 C1932 1.397 . S
C1931 C1936 1.363 . S
C1932 H1909 0.950 . S
C1932 C1931 1.397 . S
C1932 C1933 1.334 . S
C1933 H1910 0.950 . S
C1933 C1932 1.334 . S
C1933 C1934 1.287 . S
C1934 C1933 1.287 . S
C1934 C1935 1.524 . S
C1934 H1953 0.913 . S
C1935 H1911 0.950 . S
C1935 C1934 1.524 . S
C1935 C1936 1.415 . S
C1936 H1912 0.950 . S
C1936 C1931 1.363 . S
C1936 C1935 1.415 . S
C1937 H1913 0.951 . S
C1937 C1938 1.366 1_655 S
C1937 C1939 1.388 . S
C1938 C1937 1.366 1_455 S
C1938 C1942 1.385 . S
C1939 H1914 0.951 . S
C1939 C1937 1.388 . S
C1939 C1940 1.366 1_655 S
C1940 C1939 1.366 1_455 S
C1940 C1941 1.414 . S
C1940 C1943 1.499 . S
C1941 H1915 0.950 . S
C1941 C1940 1.414 . S
C1941 C1942 1.374 . S
C1942 H1916 0.950 . S
C1942 C1938 1.385 . S
C1942 C1941 1.374 . S
C1943 C1940 1.499 . S
C1943 C1944 1.373 . S
C1943 C1945 1.389 1_455 S
C1944 H1917 0.950 . S
C1944 C1930 1.377 . S
C1944 C1943 1.373 . S
C1945 C1929 1.377 . S
C1945 C1943 1.389 1_655 S
C1945 C1946 1.524 . S
C1946 C1945 1.524 . S
C1946 C1947 1.397 . S
C1946 C1951 1.363 . S
C1947 H1918 0.950 . S
C1947 C1946 1.397 . S
C1947 C1948 1.334 . S
C1948 H1919 0.950 . S
C1948 C1947 1.334 . S
C1948 C1949 1.287 . S
C1949 C1948 1.287 . S
C1949 C1950 1.524 . S
C1949 H1952 0.999 . S
C1950 H1920 0.950 . S
C1950 C1949 1.524 . S
C1950 C1951 1.415 . S
C1951 H1921 0.950 . S
C1951 C1946 1.363 . S
C1951 C1950 1.415 . S
H1952 C1949 0.999 . S
H1953 C1934 0.913 . S
H1954 C1972 0.951 . S
H1955 C1974 0.951 . S
H1956 C1976 0.950 . S
H1957 C1977 0.950 . S
H1958 C1979 0.950 . S
H1959 C1982 0.950 . S
H1960 C1983 0.950 . S
H1961 C1985 0.950 . S
H1962 C1986 0.950 . S
H1963 C1987 0.951 . S
H1964 C1989 0.951 . S
H1965 C1991 0.950 . S
H1966 C1992 0.950 . S
H1967 C1994 0.950 . S
H1968 C1997 0.950 . S
H1969 C1998 0.950 . S
H1970 C2000 0.950 . S
H1971 C2001 0.950 . S
C1972 H1954 0.951 . S
C1972 C1973 1.366 . S
C1972 C1974 1.388 . S
C1973 C1972 1.366 . S
C1973 C1977 1.385 . S
C1974 H1955 0.951 . S
C1974 C1972 1.388 . S
C1974 C1975 1.366 . S
C1975 C1974 1.366 . S
C1975 C1976 1.414 . S
C1975 C1978 1.499 . S
C1976 H1956 0.950 . S
C1976 C1975 1.414 . S
C1976 C1977 1.374 . S
C1977 H1957 0.950 . S
C1977 C1973 1.385 . S
C1977 C1976 1.374 . S
C1978 C1975 1.499 . S
C1978 C1979 1.373 . S
C1978 C1980 1.389 . S
C1979 H1958 0.950 . S
C1979 C1978 1.373 . S
C1979 C1995 1.377 . S
C1980 C1978 1.389 . S
C1980 C1981 1.524 . S
C1980 C1994 1.377 . S
C1981 C1980 1.524 . S
C1981 C1982 1.397 . S
C1981 C1986 1.363 . S
C1982 H1959 0.950 . S
C1982 C1981 1.397 . S
C1982 C1983 1.334 . S
C1983 H1960 0.950 . S
C1983 C1982 1.334 . S
C1983 C1984 1.287 . S
C1984 C1983 1.287 . S
C1984 C1985 1.524 . S
C1984 H2003 0.913 . S
C1985 H1961 0.950 . S
C1985 C1984 1.524 . S
C1985 C1986 1.415 . S
C1986 H1962 0.950 . S
C1986 C1981 1.363 . S
C1986 C1985 1.415 . S
C1987 H1963 0.951 . S
C1987 C1988 1.366 . S
C1987 C1989 1.388 . S
C1988 C1987 1.366 . S
C1988 C1992 1.385 . S
C1989 H1964 0.951 . S
C1989 C1987 1.388 . S
C1989 C1990 1.366 . S
C1990 C1989 1.366 . S
C1990 C1991 1.414 . S
C1990 C1993 1.499 . S
C1991 H1965 0.950 . S
C1991 C1990 1.414 . S
C1991 C1992 1.374 . S
C1992 H1966 0.950 . S
C1992 C1988 1.385 . S
C1992 C1991 1.374 . S
C1993 C1990 1.499 . S
C1993 C1994 1.373 . S
C1993 C1995 1.389 . S
C1994 H1967 0.950 . S
C1994 C1980 1.377 . S
C1994 C1993 1.373 . S
C1995 C1979 1.377 . S
C1995 C1993 1.389 . S
C1995 C1996 1.524 . S
C1996 C1995 1.524 . S
C1996 C1997 1.397 . S
C1996 C2001 1.363 . S
C1997 H1968 0.950 . S
C1997 C1996 1.397 . S
C1997 C1998 1.334 . S
C1998 H1969 0.950 . S
C1998 C1997 1.334 . S
C1998 C1999 1.287 . S
C1999 C1998 1.287 . S
C1999 C2000 1.524 . S
C1999 H2002 0.999 . S
C2000 H1970 0.950 . S
C2000 C1999 1.524 . S
C2000 C2001 1.415 . S
C2001 H1971 0.950 . S
C2001 C1996 1.363 . S
C2001 C2000 1.415 . S
H2002 C1999 0.999 . S
H2003 C1984 0.913 . S
H2004 C2022 0.951 . S
H2005 C2024 0.951 . S
H2006 C2026 0.950 . S
H2007 C2027 0.950 . S
H2008 C2029 0.950 . S
H2009 C2032 0.950 . S
H2010 C2033 0.950 . S
H2011 C2035 0.950 . S
H2012 C2036 0.950 . S
H2013 C2037 0.951 . S
H2014 C2039 0.951 . S
H2015 C2041 0.950 . S
H2016 C2042 0.950 . S
H2017 C2044 0.950 . S
H2018 C2047 0.950 . S
H2019 C2048 0.950 . S
H2020 C2050 0.950 . S
H2021 C2051 0.950 . S
C2022 H2004 0.951 . S
C2022 C2023 1.366 . S
C2022 C2024 1.388 . S
C2023 C2022 1.366 . S
C2023 C2027 1.385 . S
C2024 H2005 0.951 . S
C2024 C2022 1.388 . S
C2024 C2025 1.366 . S
C2025 C2024 1.366 . S
C2025 C2026 1.414 . S
C2025 C2028 1.499 . S
C2026 H2006 0.950 . S
C2026 C2025 1.414 . S
C2026 C2027 1.374 . S
C2027 H2007 0.950 . S
C2027 C2023 1.385 . S
C2027 C2026 1.374 . S
C2028 C2025 1.499 . S
C2028 C2029 1.373 . S
C2028 C2030 1.389 . S
C2029 H2008 0.950 . S
C2029 C2028 1.373 . S
C2029 C2045 1.377 . S
C2030 C2028 1.389 . S
C2030 C2031 1.524 . S
C2030 C2044 1.377 . S
C2031 C2030 1.524 . S
C2031 C2032 1.397 . S
C2031 C2036 1.363 . S
C2032 H2009 0.950 . S
C2032 C2031 1.397 . S
C2032 C2033 1.334 . S
C2033 H2010 0.950 . S
C2033 C2032 1.334 . S
C2033 C2034 1.287 . S
C2034 C2033 1.287 . S
C2034 C2035 1.524 . S
C2034 H2053 0.913 . S
C2035 H2011 0.950 . S
C2035 C2034 1.524 . S
C2035 C2036 1.415 . S
C2036 H2012 0.950 . S
C2036 C2031 1.363 . S
C2036 C2035 1.415 . S
C2037 H2013 0.951 . S
C2037 C2038 1.366 . S
C2037 C2039 1.388 . S
C2038 C2037 1.366 . S
C2038 C2042 1.385 . S
C2039 H2014 0.951 . S
C2039 C2037 1.388 . S
C2039 C2040 1.366 . S
C2040 C2039 1.366 . S
C2040 C2041 1.414 . S
C2040 C2043 1.499 . S
C2041 H2015 0.950 . S
C2041 C2040 1.414 . S
C2041 C2042 1.374 . S
C2042 H2016 0.950 . S
C2042 C2038 1.385 . S
C2042 C2041 1.374 . S
C2043 C2040 1.499 . S
C2043 C2044 1.373 . S
C2043 C2045 1.389 . S
C2044 H2017 0.950 . S
C2044 C2030 1.377 . S
C2044 C2043 1.373 . S
C2045 C2029 1.377 . S
C2045 C2043 1.389 . S
C2045 C2046 1.524 . S
C2046 C2045 1.524 . S
C2046 C2047 1.397 . S
C2046 C2051 1.363 . S
C2047 H2018 0.950 . S
C2047 C2046 1.397 . S
C2047 C2048 1.334 . S
C2048 H2019 0.950 . S
C2048 C2047 1.334 . S
C2048 C2049 1.287 . S
C2049 C2048 1.287 . S
C2049 C2050 1.524 . S
C2049 H2052 0.999 . S
C2050 H2020 0.950 . S
C2050 C2049 1.524 . S
C2050 C2051 1.415 . S
C2051 H2021 0.950 . S
C2051 C2046 1.363 . S
C2051 C2050 1.415 . S
H2052 C2049 0.999 . S
H2053 C2034 0.913 . S
H2054 C2072 0.951 . S
H2055 C2074 0.951 . S
H2056 C2076 0.950 . S
H2057 C2077 0.950 . S
H2058 C2079 0.950 . S
H2059 C2082 0.950 . S
H2060 C2083 0.950 . S
H2061 C2085 0.950 . S
H2062 C2086 0.950 . S
H2063 C2087 0.951 . S
H2064 C2089 0.951 . S
H2065 C2091 0.948 1_565 S
H2066 C2092 0.950 . S
H2067 C2094 0.950 . S
H2068 C2097 0.950 . S
H2069 C2098 0.950 . S
H2070 C2100 0.950 . S
H2071 C2101 0.950 . S
C2072 H2054 0.951 . S
C2072 C2073 1.366 . S
C2072 C2074 1.388 . S
C2073 C2072 1.366 . S
C2073 C2077 1.385 . S
C2074 H2055 0.951 . S
C2074 C2072 1.388 . S
C2074 C2075 1.366 . S
C2075 C2074 1.366 . S
C2075 C2076 1.414 . S
C2075 C2078 1.499 . S
C2076 H2056 0.950 . S
C2076 C2075 1.414 . S
C2076 C2077 1.374 . S
C2077 H2057 0.950 . S
C2077 C2073 1.385 . S
C2077 C2076 1.374 . S
C2078 C2075 1.499 . S
C2078 C2079 1.373 . S
C2078 C2080 1.389 . S
C2079 H2058 0.950 . S
C2079 C2078 1.373 . S
C2079 C2095 1.377 . S
C2080 C2078 1.389 . S
C2080 C2081 1.524 . S
C2080 C2094 1.377 . S
C2081 C2080 1.524 . S
C2081 C2082 1.397 . S
C2081 C2086 1.363 . S
C2082 H2059 0.950 . S
C2082 C2081 1.397 . S
C2082 C2083 1.334 . S
C2083 H2060 0.950 . S
C2083 C2082 1.334 . S
C2083 C2084 1.287 . S
C2084 C2083 1.287 . S
C2084 C2085 1.524 . S
C2084 H2103 0.913 . S
C2085 H2061 0.950 . S
C2085 C2084 1.524 . S
C2085 C2086 1.415 . S
C2086 H2062 0.950 . S
C2086 C2081 1.363 . S
C2086 C2085 1.415 . S
C2087 H2063 0.951 . S
C2087 C2088 1.366 . S
C2087 C2089 1.388 . S
C2088 C2087 1.366 . S
C2088 C2092 1.385 1_545 S
C2089 H2064 0.951 . S
C2089 C2087 1.388 . S
C2089 C2090 1.366 . S
C2090 C2089 1.366 . S
C2090 C2091 1.425 . S
C2090 C2093 1.499 . S
C2091 H2065 0.948 1_545 S
C2091 C2090 1.425 . S
C2091 C2092 1.367 1_545 S
C2092 H2066 0.950 . S
C2092 C2088 1.385 1_565 S
C2092 C2091 1.367 1_565 S
C2093 C2090 1.499 . S
C2093 C2094 1.373 . S
C2093 C2095 1.389 . S
C2094 H2067 0.950 . S
C2094 C2080 1.377 . S
C2094 C2093 1.373 . S
C2095 C2079 1.377 . S
C2095 C2093 1.389 . S
C2095 C2096 1.524 . S
C2096 C2095 1.524 . S
C2096 C2097 1.397 1_545 S
C2096 C2101 1.363 . S
C2097 H2068 0.950 . S
C2097 C2096 1.397 1_565 S
C2097 C2098 1.334 . S
C2098 H2069 0.950 . S
C2098 C2097 1.334 . S
C2098 C2099 1.287 1_565 S
C2099 C2098 1.287 1_545 S
C2099 C2100 1.524 . S
C2099 H2102 0.999 1_545 S
C2100 H2070 0.950 . S
C2100 C2099 1.524 . S
C2100 C2101 1.415 . S
C2101 H2071 0.950 . S
C2101 C2096 1.363 . S
C2101 C2100 1.415 . S
H2102 C2099 0.999 1_565 S
H2103 C2084 0.913 . S
H2104 C2122 0.951 . S
H2105 C2124 0.951 . S
H2106 C2126 0.950 . S
H2107 C2127 0.950 . S
H2108 C2129 0.950 . S
H2109 C2132 0.950 . S
H2110 C2133 0.950 . S
H2111 C2135 0.950 . S
H2112 C2136 0.950 . S
H2113 C2137 0.951 . S
H2114 C2139 0.951 . S
H2115 C2141 0.950 . S
H2116 C2142 0.950 . S
H2117 C2144 0.950 . S
H2118 C2147 0.950 . S
H2119 C2148 0.950 . S
H2120 C2150 0.950 . S
H2121 C2151 0.950 . S
C2122 H2104 0.951 . S
C2122 C2123 1.366 1_655 S
C2122 C2124 1.388 . S
C2123 C2122 1.366 1_455 S
C2123 C2127 1.385 . S
C2124 H2105 0.951 . S
C2124 C2122 1.388 . S
C2124 C2125 1.366 1_655 S
C2125 C2124 1.366 1_455 S
C2125 C2126 1.414 . S
C2125 C2128 1.499 . S
C2126 H2106 0.950 . S
C2126 C2125 1.414 . S
C2126 C2127 1.374 . S
C2127 H2107 0.950 . S
C2127 C2123 1.385 . S
C2127 C2126 1.374 . S
C2128 C2125 1.499 . S
C2128 C2129 1.373 . S
C2128 C2130 1.389 . S
C2129 H2108 0.950 . S
C2129 C2128 1.373 . S
C2129 C2145 1.377 . S
C2130 C2128 1.389 . S
C2130 C2131 1.524 1_455 S
C2130 C2144 1.377 . S
C2131 C2130 1.524 1_655 S
C2131 C2132 1.397 . S
C2131 C2136 1.363 . S
C2132 H2109 0.950 . S
C2132 C2131 1.397 . S
C2132 C2133 1.334 . S
C2133 H2110 0.950 . S
C2133 C2132 1.334 . S
C2133 C2134 1.287 . S
C2134 C2133 1.287 . S
C2134 C2135 1.524 . S
C2134 H2153 0.913 . S
C2135 H2111 0.950 . S
C2135 C2134 1.524 . S
C2135 C2136 1.415 . S
C2136 H2112 0.950 . S
C2136 C2131 1.363 . S
C2136 C2135 1.415 . S
C2137 H2113 0.951 . S
C2137 C2138 1.366 . S
C2137 C2139 1.388 . S
C2138 C2137 1.366 . S
C2138 C2142 1.385 . S
C2139 H2114 0.951 . S
C2139 C2137 1.388 . S
C2139 C2140 1.366 . S
C2140 C2139 1.366 . S
C2140 C2141 1.414 . S
C2140 C2143 1.499 . S
C2141 H2115 0.950 . S
C2141 C2140 1.414 . S
C2141 C2142 1.374 . S
C2142 H2116 0.950 . S
C2142 C2138 1.385 . S
C2142 C2141 1.374 . S
C2143 C2140 1.499 . S
C2143 C2144 1.373 . S
C2143 C2145 1.389 . S
C2144 H2117 0.950 . S
C2144 C2130 1.377 . S
C2144 C2143 1.373 . S
C2145 C2129 1.377 . S
C2145 C2143 1.389 . S
C2145 C2146 1.524 . S
C2146 C2145 1.524 . S
C2146 C2147 1.397 . S
C2146 C2151 1.363 . S
C2147 H2118 0.950 . S
C2147 C2146 1.397 . S
C2147 C2148 1.334 . S
C2148 H2119 0.950 . S
C2148 C2147 1.334 . S
C2148 C2149 1.287 . S
C2149 C2148 1.287 . S
C2149 C2150 1.524 . S
C2149 H2152 0.999 . S
C2150 H2120 0.950 . S
C2150 C2149 1.524 . S
C2150 C2151 1.415 . S
C2151 H2121 0.950 . S
C2151 C2146 1.363 . S
C2151 C2150 1.415 . S
H2152 C2149 0.999 . S
H2153 C2134 0.913 . S
H2154 C2172 0.951 . S
H2155 C2174 0.951 . S
H2156 C2176 0.950 . S
H2157 C2177 0.950 . S
H2158 C2179 0.950 . S
H2159 C2182 0.950 . S
H2160 C2183 0.950 . S
H2161 C2185 0.950 . S
H2162 C2186 0.950 . S
H2163 C2187 0.951 . S
H2164 C2189 0.951 . S
H2165 C2191 0.950 . S
H2166 C2192 0.950 . S
H2167 C2194 0.950 . S
H2168 C2197 0.950 . S
H2169 C2198 0.950 . S
H2170 C2200 0.950 . S
H2171 C2201 0.950 . S
C2172 H2154 0.951 . S
C2172 C2173 1.366 . S
C2172 C2174 1.388 . S
C2173 C2172 1.366 . S
C2173 C2177 1.385 . S
C2174 H2155 0.951 . S
C2174 C2172 1.388 . S
C2174 C2175 1.366 . S
C2175 C2174 1.366 . S
C2175 C2176 1.414 . S
C2175 C2178 1.499 . S
C2176 H2156 0.950 . S
C2176 C2175 1.414 . S
C2176 C2177 1.374 . S
C2177 H2157 0.950 . S
C2177 C2173 1.385 . S
C2177 C2176 1.374 . S
C2178 C2175 1.499 . S
C2178 C2179 1.373 . S
C2178 C2180 1.389 . S
C2179 H2158 0.950 . S
C2179 C2178 1.373 . S
C2179 C2195 1.377 . S
C2180 C2178 1.389 . S
C2180 C2181 1.524 . S
C2180 C2194 1.377 . S
C2181 C2180 1.524 . S
C2181 C2182 1.397 . S
C2181 C2186 1.363 . S
C2182 H2159 0.950 . S
C2182 C2181 1.397 . S
C2182 C2183 1.334 . S
C2183 H2160 0.950 . S
C2183 C2182 1.334 . S
C2183 C2184 1.287 . S
C2184 C2183 1.287 . S
C2184 C2185 1.524 . S
C2184 H2203 0.913 . S
C2185 H2161 0.950 . S
C2185 C2184 1.524 . S
C2185 C2186 1.415 . S
C2186 H2162 0.950 . S
C2186 C2181 1.363 . S
C2186 C2185 1.415 . S
C2187 H2163 0.951 . S
C2187 C2188 1.366 . S
C2187 C2189 1.388 . S
C2188 C2187 1.366 . S
C2188 C2192 1.385 . S
C2189 H2164 0.951 . S
C2189 C2187 1.388 . S
C2189 C2190 1.366 . S
C2190 C2189 1.366 . S
C2190 C2191 1.414 . S
C2190 C2193 1.499 . S
C2191 H2165 0.950 . S
C2191 C2190 1.414 . S
C2191 C2192 1.374 . S
C2192 H2166 0.950 . S
C2192 C2188 1.385 . S
C2192 C2191 1.374 . S
C2193 C2190 1.499 . S
C2193 C2194 1.373 . S
C2193 C2195 1.389 . S
C2194 H2167 0.950 . S
C2194 C2180 1.377 . S
C2194 C2193 1.373 . S
C2195 C2179 1.377 . S
C2195 C2193 1.389 . S
C2195 C2196 1.524 . S
C2196 C2195 1.524 . S
C2196 C2197 1.397 . S
C2196 C2201 1.363 . S
C2197 H2168 0.950 . S
C2197 C2196 1.397 . S
C2197 C2198 1.334 . S
C2198 H2169 0.950 . S
C2198 C2197 1.334 . S
C2198 C2199 1.287 . S
C2199 C2198 1.287 . S
C2199 C2200 1.524 . S
C2199 H2202 0.999 . S
C2200 H2170 0.950 . S
C2200 C2199 1.524 . S
C2200 C2201 1.415 . S
C2201 H2171 0.950 . S
C2201 C2196 1.363 . S
C2201 C2200 1.415 . S
H2202 C2199 0.999 . S
H2203 C2184 0.913 . S
H2204 C2222 0.951 . S
H2205 C2224 0.951 . S
H2206 C2226 0.950 . S
H2207 C2227 0.950 . S
H2208 C2229 0.950 . S
H2209 C2232 0.950 . S
H2210 C2233 0.950 . S
H2211 C2235 0.950 . S
H2212 C2236 0.950 . S
H2213 C2237 0.951 . S
H2214 C2239 0.951 . S
H2215 C2241 0.950 . S
H2216 C2242 0.950 . S
H2217 C2244 0.950 . S
H2218 C2247 0.950 . S
H2219 C2248 0.950 . S
H2220 C2250 0.950 . S
H2221 C2251 0.950 . S
C2222 H2204 0.951 . S
C2222 C2223 1.366 . S
C2222 C2224 1.388 . S
C2223 C2222 1.366 . S
C2223 C2227 1.385 1_545 S
C2224 H2205 0.951 . S
C2224 C2222 1.388 . S
C2224 C2225 1.366 . S
C2225 C2224 1.366 . S
C2225 C2226 1.414 1_545 S
C2225 C2228 1.499 . S
C2226 H2206 0.950 . S
C2226 C2225 1.414 1_565 S
C2226 C2227 1.374 . S
C2227 H2207 0.950 . S
C2227 C2223 1.385 1_565 S
C2227 C2226 1.374 . S
C2228 C2225 1.499 . S
C2228 C2229 1.373 . S
C2228 C2230 1.389 . S
C2229 H2208 0.950 . S
C2229 C2228 1.373 . S
C2229 C2245 1.377 . S
C2230 C2228 1.389 . S
C2230 C2231 1.524 . S
C2230 C2244 1.377 . S
C2231 C2230 1.524 . S
C2231 C2232 1.397 . S
C2231 C2236 1.363 . S
C2232 H2209 0.950 . S
C2232 C2231 1.397 . S
C2232 C2233 1.334 . S
C2233 H2210 0.950 . S
C2233 C2232 1.334 . S
C2233 C2234 1.287 . S
C2234 C2233 1.287 . S
C2234 C2235 1.524 . S
C2234 H2253 0.913 . S
C2235 H2211 0.950 . S
C2235 C2234 1.524 . S
C2235 C2236 1.415 . S
C2236 H2212 0.950 . S
C2236 C2231 1.363 . S
C2236 C2235 1.415 . S
C2237 H2213 0.951 . S
C2237 C2238 1.366 . S
C2237 C2239 1.388 . S
C2238 C2237 1.366 . S
C2238 C2242 1.385 . S
C2239 H2214 0.951 . S
C2239 C2237 1.388 . S
C2239 C2240 1.366 . S
C2240 C2239 1.366 . S
C2240 C2241 1.414 . S
C2240 C2243 1.499 . S
C2241 H2215 0.950 . S
C2241 C2240 1.414 . S
C2241 C2242 1.374 . S
C2242 H2216 0.950 . S
C2242 C2238 1.385 . S
C2242 C2241 1.374 . S
C2243 C2240 1.499 . S
C2243 C2244 1.373 . S
C2243 C2245 1.389 . S
C2244 H2217 0.950 . S
C2244 C2230 1.377 . S
C2244 C2243 1.373 . S
C2245 C2229 1.377 . S
C2245 C2243 1.389 . S
C2245 C2246 1.524 . S
C2246 C2245 1.524 . S
C2246 C2247 1.397 . S
C2246 C2251 1.363 1_545 S
C2247 H2218 0.950 . S
C2247 C2246 1.397 . S
C2247 C2248 1.334 . S
C2248 H2219 0.950 . S
C2248 C2247 1.334 . S
C2248 C2249 1.287 . S
C2249 C2248 1.287 . S
C2249 C2250 1.524 1_545 S
C2249 H2252 0.999 1_545 S
C2250 H2220 0.950 . S
C2250 C2249 1.524 1_565 S
C2250 C2251 1.415 . S
C2251 H2221 0.950 . S
C2251 C2246 1.363 1_565 S
C2251 C2250 1.415 . S
H2252 C2249 0.999 1_565 S
H2253 C2234 0.913 . S
H2254 C2272 0.951 . S
H2255 C2274 0.951 . S
H2256 C2276 0.950 . S
H2257 C2277 0.950 1_655 S
H2258 C2279 0.950 . S
H2259 C2282 0.950 . S
H2260 C2283 0.950 . S
H2261 C2285 0.928 1_455 S
H2262 C2286 0.950 . S
H2263 C2287 0.951 . S
H2264 C2289 0.951 . S
H2265 C2291 0.950 . S
H2266 C2292 0.950 . S
H2267 C2294 0.950 . S
H2268 C2297 0.950 . S
H2269 C2298 0.950 . S
H2270 C2300 0.950 . S
H2271 C2301 0.950 . S
C2272 H2254 0.951 . S
C2272 C2273 1.366 . S
C2272 C2274 1.388 . S
C2273 C2272 1.366 . S
C2273 C2277 1.385 . S
C2274 H2255 0.951 . S
C2274 C2272 1.388 . S
C2274 C2275 1.366 . S
C2275 C2274 1.366 . S
C2275 C2276 1.414 . S
C2275 C2278 1.499 . S
C2276 H2256 0.950 . S
C2276 C2275 1.414 . S
C2276 C2277 1.374 . S
C2277 H2257 0.950 1_455 S
C2277 C2273 1.385 . S
C2277 C2276 1.374 . S
C2278 C2275 1.499 . S
C2278 C2279 1.373 . S
C2278 C2280 1.389 . S
C2279 H2258 0.950 . S
C2279 C2278 1.373 . S
C2279 C2295 1.377 . S
C2280 C2278 1.389 . S
C2280 C2281 1.524 . S
C2280 C2294 1.377 . S
C2281 C2280 1.524 . S
C2281 C2282 1.397 1_455 S
C2281 C2286 1.363 . S
C2282 H2259 0.950 . S
C2282 C2281 1.397 1_655 S
C2282 C2283 1.334 . S
C2283 H2260 0.950 . S
C2283 C2282 1.334 . S
C2283 C2284 1.287 . S
C2284 C2283 1.287 . S
C2284 C2285 1.524 . S
C2284 H2303 0.913 . S
C2285 H2261 0.928 1_655 S
C2285 C2284 1.524 . S
C2285 C2286 1.415 1_655 S
C2286 H2262 0.950 . S
C2286 C2281 1.363 . S
C2286 C2285 1.415 1_455 S
C2287 H2263 0.951 . S
C2287 C2288 1.366 . S
C2287 C2289 1.388 . S
C2288 C2287 1.366 . S
C2288 C2292 1.385 . S
C2289 H2264 0.951 . S
C2289 C2287 1.388 . S
C2289 C2290 1.366 . S
C2290 C2289 1.366 . S
C2290 C2291 1.414 . S
C2290 C2293 1.499 . S
C2291 H2265 0.950 . S
C2291 C2290 1.414 . S
C2291 C2292 1.374 . S
C2292 H2266 0.950 . S
C2292 C2288 1.385 . S
C2292 C2291 1.374 . S
C2293 C2290 1.499 . S
C2293 C2294 1.373 . S
C2293 C2295 1.389 . S
C2294 H2267 0.950 . S
C2294 C2280 1.377 . S
C2294 C2293 1.373 . S
C2295 C2279 1.377 . S
C2295 C2293 1.389 . S
C2295 C2296 1.524 . S
C2296 C2295 1.524 . S
C2296 C2297 1.397 . S
C2296 C2301 1.363 . S
C2297 H2268 0.950 . S
C2297 C2296 1.397 . S
C2297 C2298 1.334 . S
C2298 H2269 0.950 . S
C2298 C2297 1.334 . S
C2298 C2299 1.287 . S
C2299 C2298 1.287 . S
C2299 C2300 1.524 . S
C2299 H2302 0.999 . S
C2300 H2270 0.950 . S
C2300 C2299 1.524 . S
C2300 C2301 1.415 . S
C2301 H2271 0.950 . S
C2301 C2296 1.363 . S
C2301 C2300 1.415 . S
H2302 C2299 0.999 . S
H2303 C2284 0.913 . S
H2304 C2322 0.951 . S
H2305 C2324 0.951 . S
H2306 C2326 0.950 . S
H2307 C2327 0.950 . S
H2308 C2329 0.950 . S
H2309 C2332 0.950 . S
H2310 C2333 0.950 . S
H2311 C2335 0.950 . S
H2312 C2336 0.950 . S
H2313 C2337 0.951 . S
H2314 C2339 0.951 . S
H2315 C2341 0.950 . S
H2316 C2342 0.950 . S
H2317 C2344 0.950 . S
H2318 C2347 0.950 . S
H2319 C2348 0.950 . S
H2320 C2350 0.950 . S
H2321 C2351 0.950 . S
C2322 H2304 0.951 . S
C2322 C2323 1.366 . S
C2322 C2324 1.388 . S
C2323 C2322 1.366 . S
C2323 C2327 1.385 . S
C2324 H2305 0.951 . S
C2324 C2322 1.388 . S
C2324 C2325 1.366 . S
C2325 C2324 1.366 . S
C2325 C2326 1.414 . S
C2325 C2328 1.499 . S
C2326 H2306 0.950 . S
C2326 C2325 1.414 . S
C2326 C2327 1.374 . S
C2327 H2307 0.950 . S
C2327 C2323 1.385 . S
C2327 C2326 1.374 . S
C2328 C2325 1.499 . S
C2328 C2329 1.373 . S
C2328 C2330 1.389 . S
C2329 H2308 0.950 . S
C2329 C2328 1.373 . S
C2329 C2345 1.377 1_554 S
C2330 C2328 1.389 . S
C2330 C2331 1.524 . S
C2330 C2344 1.377 1_554 S
C2331 C2330 1.524 . S
C2331 C2332 1.397 1_455 S
C2331 C2336 1.363 . S
C2332 H2309 0.950 . S
C2332 C2331 1.397 1_655 S
C2332 C2333 1.334 . S
C2333 H2310 0.950 . S
C2333 C2332 1.334 . S
C2333 C2334 1.287 . S
C2334 C2333 1.287 . S
C2334 C2335 1.524 1_655 S
C2334 H2353 0.913 . S
C2335 H2311 0.950 . S
C2335 C2334 1.524 1_455 S
C2335 C2336 1.415 . S
C2336 H2312 0.950 . S
C2336 C2331 1.363 . S
C2336 C2335 1.415 . S
C2337 H2313 0.951 . S
C2337 C2338 1.366 . S
C2337 C2339 1.388 . S
C2338 C2337 1.366 . S
C2338 C2342 1.385 . S
C2339 H2314 0.951 . S
C2339 C2337 1.388 . S
C2339 C2340 1.366 . S
C2340 C2339 1.366 . S
C2340 C2341 1.414 . S
C2340 C2343 1.499 . S
C2341 H2315 0.950 . S
C2341 C2340 1.414 . S
C2341 C2342 1.374 . S
C2342 H2316 0.950 . S
C2342 C2338 1.385 . S
C2342 C2341 1.374 . S
C2343 C2340 1.499 . S
C2343 C2344 1.373 . S
C2343 C2345 1.389 . S
C2344 H2317 0.950 . S
C2344 C2330 1.377 1_556 S
C2344 C2343 1.373 . S
C2345 C2329 1.377 1_556 S
C2345 C2343 1.389 . S
C2345 C2346 1.524 . S
C2346 C2345 1.524 . S
C2346 C2347 1.397 . S
C2346 C2351 1.363 . S
C2347 H2318 0.950 . S
C2347 C2346 1.397 . S
C2347 C2348 1.334 . S
C2348 H2319 0.950 . S
C2348 C2347 1.334 . S
C2348 C2349 1.287 . S
C2349 C2348 1.287 . S
C2349 C2350 1.524 . S
C2349 H2352 0.999 . S
C2350 H2320 0.950 . S
C2350 C2349 1.524 . S
C2350 C2351 1.415 . S
C2351 H2321 0.950 . S
C2351 C2346 1.363 . S
C2351 C2350 1.415 . S
H2352 C2349 0.999 . S
H2353 C2334 0.913 . S
H2354 C2372 0.951 . S
H2355 C2374 0.951 . S
H2356 C2376 0.950 . S
H2357 C2377 0.950 . S
H2358 C2379 0.950 . S
H2359 C2382 0.950 . S
H2360 C2383 0.950 . S
H2361 C2385 0.950 . S
H2362 C2386 0.950 . S
H2363 C2387 0.951 . S
H2364 C2389 0.951 . S
H2365 C2391 0.950 . S
H2366 C2392 0.950 . S
H2367 C2394 0.950 . S
H2368 C2397 0.950 . S
H2369 C2398 0.950 . S
H2370 C2400 0.950 . S
H2371 C2401 0.950 . S
C2372 H2354 0.951 . S
C2372 C2373 1.366 . S
C2372 C2374 1.388 . S
C2373 C2372 1.366 . S
C2373 C2377 1.385 . S
C2374 H2355 0.951 . S
C2374 C2372 1.388 . S
C2374 C2375 1.366 . S
C2375 C2374 1.366 . S
C2375 C2376 1.414 . S
C2375 C2378 1.499 . S
C2376 H2356 0.950 . S
C2376 C2375 1.414 . S
C2376 C2377 1.374 . S
C2377 H2357 0.950 . S
C2377 C2373 1.385 . S
C2377 C2376 1.374 . S
C2378 C2375 1.499 . S
C2378 C2379 1.373 . S
C2378 C2380 1.389 . S
C2379 H2358 0.950 . S
C2379 C2378 1.373 . S
C2379 C2395 1.377 1_556 S
C2380 C2378 1.389 . S
C2380 C2381 1.524 . S
C2380 C2394 1.377 1_556 S
C2381 C2380 1.524 . S
C2381 C2382 1.397 . S
C2381 C2386 1.363 . S
C2382 H2359 0.950 . S
C2382 C2381 1.397 . S
C2382 C2383 1.334 . S
C2383 H2360 0.950 . S
C2383 C2382 1.334 . S
C2383 C2384 1.287 . S
C2384 C2383 1.287 . S
C2384 C2385 1.524 . S
C2384 H2403 0.913 . S
C2385 H2361 0.950 . S
C2385 C2384 1.524 . S
C2385 C2386 1.415 . S
C2386 H2362 0.950 . S
C2386 C2381 1.363 . S
C2386 C2385 1.415 . S
C2387 H2363 0.951 . S
C2387 C2388 1.366 . S
C2387 C2389 1.388 . S
C2388 C2387 1.366 . S
C2388 C2392 1.385 . S
C2389 H2364 0.951 . S
C2389 C2387 1.388 . S
C2389 C2390 1.366 . S
C2390 C2389 1.366 . S
C2390 C2391 1.414 . S
C2390 C2393 1.499 . S
C2391 H2365 0.950 . S
C2391 C2390 1.414 . S
C2391 C2392 1.374 . S
C2392 H2366 0.950 . S
C2392 C2388 1.385 . S
C2392 C2391 1.374 . S
C2393 C2390 1.499 . S
C2393 C2394 1.373 . S
C2393 C2395 1.389 . S
C2394 H2367 0.950 . S
C2394 C2380 1.377 1_554 S
C2394 C2393 1.373 . S
C2395 C2379 1.377 1_554 S
C2395 C2393 1.389 . S
C2395 C2396 1.524 . S
C2396 C2395 1.524 . S
C2396 C2397 1.397 . S
C2396 C2401 1.363 . S
C2397 H2368 0.950 . S
C2397 C2396 1.397 . S
C2397 C2398 1.334 . S
C2398 H2369 0.950 . S
C2398 C2397 1.334 . S
C2398 C2399 1.287 . S
C2399 C2398 1.287 . S
C2399 C2400 1.524 . S
C2399 H2402 0.999 . S
C2400 H2370 0.950 . S
C2400 C2399 1.524 . S
C2400 C2401 1.415 . S
C2401 H2371 0.950 . S
C2401 C2396 1.363 . S
C2401 C2400 1.415 . S
H2402 C2399 0.999 . S
H2403 C2384 0.913 . S
H2404 C2422 0.951 . S
H2405 C2424 0.951 . S
H2406 C2426 0.950 1_565 S
H2407 C2427 0.918 1_565 S
H2408 C2429 0.950 . S
H2409 C2432 0.950 . S
H2410 C2433 0.950 . S
H2411 C2435 0.950 . S
H2412 C2436 0.950 . S
H2413 C2437 0.951 1_565 S
H2414 C2439 0.951 1_565 S
H2415 C2441 0.950 . S
H2416 C2442 0.950 . S
H2417 C2444 0.950 . S
H2418 C2447 0.950 . S
H2419 C2448 0.950 . S
H2420 C2450 0.950 . S
H2421 C2451 0.950 . S
C2422 H2404 0.951 . S
C2422 C2423 1.366 . S
C2422 C2424 1.388 . S
C2423 C2422 1.366 . S
C2423 C2427 1.385 . S
C2424 H2405 0.951 . S
C2424 C2422 1.388 . S
C2424 C2425 1.366 . S
C2425 C2424 1.366 . S
C2425 C2426 1.414 . S
C2425 C2428 1.499 . S
C2426 H2406 0.950 1_545 S
C2426 C2425 1.414 . S
C2426 C2427 1.374 . S
C2427 H2407 0.918 1_545 S
C2427 C2423 1.385 . S
C2427 C2426 1.374 . S
C2428 C2425 1.499 . S
C2428 C2429 1.373 . S
C2428 C2430 1.389 . S
C2429 H2408 0.950 . S
C2429 C2428 1.373 . S
C2429 C2445 1.377 1_556 S
C2430 C2428 1.389 . S
C2430 C2431 1.524 . S
C2430 C2444 1.377 1_556 S
C2431 C2430 1.524 . S
C2431 C2432 1.397 . S
C2431 C2436 1.363 . S
C2432 H2409 0.950 . S
C2432 C2431 1.397 . S
C2432 C2433 1.334 . S
C2433 H2410 0.950 . S
C2433 C2432 1.334 . S
C2433 C2434 1.287 . S
C2434 C2433 1.287 . S
C2434 C2435 1.524 . S
C2434 H2453 0.913 . S
C2435 H2411 0.950 . S
C2435 C2434 1.524 . S
C2435 C2436 1.415 . S
C2436 H2412 0.950 . S
C2436 C2431 1.363 . S
C2436 C2435 1.415 . S
C2437 H2413 0.951 1_545 S
C2437 C2438 1.366 . S
C2437 C2439 1.388 . S
C2438 C2437 1.366 . S
C2438 C2442 1.385 . S
C2439 H2414 0.951 1_545 S
C2439 C2437 1.388 . S
C2439 C2440 1.366 . S
C2440 C2439 1.366 . S
C2440 C2441 1.414 . S
C2440 C2443 1.499 . S
C2441 H2415 0.950 . S
C2441 C2440 1.414 . S
C2441 C2442 1.374 . S
C2442 H2416 0.950 . S
C2442 C2438 1.385 . S
C2442 C2441 1.374 . S
C2443 C2440 1.499 . S
C2443 C2444 1.373 . S
C2443 C2445 1.389 . S
C2444 H2417 0.950 . S
C2444 C2430 1.377 1_554 S
C2444 C2443 1.373 . S
C2445 C2429 1.377 1_554 S
C2445 C2443 1.389 . S
C2445 C2446 1.524 1_545 S
C2446 C2445 1.524 1_565 S
C2446 C2447 1.397 1_565 S
C2446 C2451 1.363 . S
C2447 H2418 0.950 . S
C2447 C2446 1.397 1_545 S
C2447 C2448 1.334 1_545 S
C2448 H2419 0.950 . S
C2448 C2447 1.334 1_565 S
C2448 C2449 1.287 . S
C2449 C2448 1.287 . S
C2449 C2450 1.524 . S
C2449 H2452 0.999 . S
C2450 H2420 0.950 . S
C2450 C2449 1.524 . S
C2450 C2451 1.415 . S
C2451 H2421 0.950 . S
C2451 C2446 1.363 . S
C2451 C2450 1.415 . S
H2452 C2449 0.999 . S
H2453 C2434 0.913 . S
H2454 C2472 0.951 . S
H2455 C2474 0.951 . S
H2456 C2476 0.950 . S
H2457 C2477 0.950 . S
H2458 C2479 0.950 . S
H2459 C2482 0.922 1_455 S
H2460 C2483 0.950 . S
H2461 C2485 0.950 . S
H2462 C2486 0.950 . S
H2463 C2487 0.951 . S
H2464 C2489 0.951 . S
H2465 C2491 0.950 . S
H2466 C2492 0.950 . S
H2467 C2494 0.950 1_655 S
H2468 C2497 0.950 . S
H2469 C2498 0.950 . S
H2470 C2500 0.950 . S
H2471 C2501 0.950 . S
C2472 H2454 0.951 . S
C2472 C2473 1.366 . S
C2472 C2474 1.388 . S
C2473 C2472 1.366 . S
C2473 C2477 1.385 . S
C2474 H2455 0.951 . S
C2474 C2472 1.388 . S
C2474 C2475 1.366 . S
C2475 C2474 1.366 . S
C2475 C2476 1.414 . S
C2475 C2478 1.499 . S
C2476 H2456 0.950 . S
C2476 C2475 1.414 . S
C2476 C2477 1.374 . S
C2477 H2457 0.950 . S
C2477 C2473 1.385 . S
C2477 C2476 1.374 . S
C2478 C2475 1.499 . S
C2478 C2479 1.373 . S
C2478 C2480 1.389 . S
C2479 H2458 0.950 . S
C2479 C2478 1.373 . S
C2479 C2495 1.377 1_556 S
C2480 C2478 1.389 . S
C2480 C2481 1.524 1_455 S
C2480 C2494 1.377 1_556 S
C2481 C2480 1.524 1_655 S
C2481 C2482 1.397 . S
C2481 C2486 1.363 . S
C2482 H2459 0.922 1_655 S
C2482 C2481 1.397 . S
C2482 C2483 1.334 . S
C2483 H2460 0.950 . S
C2483 C2482 1.334 . S
C2483 C2484 1.287 . S
C2484 C2483 1.287 . S
C2484 C2485 1.524 . S
C2484 H2503 0.913 . S
C2485 H2461 0.950 . S
C2485 C2484 1.524 . S
C2485 C2486 1.415 . S
C2486 H2462 0.950 . S
C2486 C2481 1.363 . S
C2486 C2485 1.415 . S
C2487 H2463 0.951 . S
C2487 C2488 1.366 . S
C2487 C2489 1.388 . S
C2488 C2487 1.366 . S
C2488 C2492 1.385 . S
C2489 H2464 0.951 . S
C2489 C2487 1.388 . S
C2489 C2490 1.366 . S
C2490 C2489 1.366 . S
C2490 C2491 1.414 . S
C2490 C2493 1.499 . S
C2491 H2465 0.950 . S
C2491 C2490 1.414 . S
C2491 C2492 1.374 . S
C2492 H2466 0.950 . S
C2492 C2488 1.385 . S
C2492 C2491 1.374 . S
C2493 C2490 1.499 . S
C2493 C2494 1.373 . S
C2493 C2495 1.389 . S
C2494 H2467 0.950 1_455 S
C2494 C2480 1.377 1_554 S
C2494 C2493 1.373 . S
C2495 C2479 1.377 1_554 S
C2495 C2493 1.389 . S
C2495 C2496 1.524 . S
C2496 C2495 1.524 . S
C2496 C2497 1.397 . S
C2496 C2501 1.363 . S
C2497 H2468 0.950 . S
C2497 C2496 1.397 . S
C2497 C2498 1.334 . S
C2498 H2469 0.950 . S
C2498 C2497 1.334 . S
C2498 C2499 1.287 . S
C2499 C2498 1.287 . S
C2499 C2500 1.524 . S
C2499 H2502 0.999 . S
C2500 H2470 0.950 . S
C2500 C2499 1.524 . S
C2500 C2501 1.415 . S
C2501 H2471 0.950 . S
C2501 C2496 1.363 . S
C2501 C2500 1.415 . S
H2502 C2499 0.999 . S
H2503 C2484 0.913 . S
H2504 C2522 0.951 . S
H2505 C2524 0.951 . S
H2506 C2526 0.950 . S
H2507 C2527 0.950 . S
H2508 C2529 0.950 . S
H2509 C2532 0.950 . S
H2510 C2533 0.950 . S
H2511 C2535 0.950 . S
H2512 C2536 0.950 . S
H2513 C2537 0.951 . S
H2514 C2539 0.951 . S
H2515 C2541 0.950 . S
H2516 C2542 0.950 . S
H2517 C2544 0.950 . S
H2518 C2547 0.950 . S
H2519 C2548 0.950 . S
H2520 C2550 0.950 . S
H2521 C2551 0.950 . S
C2522 H2504 0.951 . S
C2522 C2523 1.366 . S
C2522 C2524 1.388 . S
C2523 C2522 1.366 . S
C2523 C2527 1.385 . S
C2524 H2505 0.951 . S
C2524 C2522 1.388 . S
C2524 C2525 1.366 . S
C2525 C2524 1.366 . S
C2525 C2526 1.414 . S
C2525 C2528 1.499 . S
C2526 H2506 0.950 . S
C2526 C2525 1.414 . S
C2526 C2527 1.374 . S
C2527 H2507 0.950 . S
C2527 C2523 1.385 . S
C2527 C2526 1.374 . S
C2528 C2525 1.499 . S
C2528 C2529 1.373 . S
C2528 C2530 1.389 . S
C2529 H2508 0.950 . S
C2529 C2528 1.373 . S
C2529 C2545 1.377 1_554 S
C2530 C2528 1.389 . S
C2530 C2531 1.524 . S
C2530 C2544 1.377 1_554 S
C2531 C2530 1.524 . S
C2531 C2532 1.397 . S
C2531 C2536 1.363 . S
C2532 H2509 0.950 . S
C2532 C2531 1.397 . S
C2532 C2533 1.334 . S
C2533 H2510 0.950 . S
C2533 C2532 1.334 . S
C2533 C2534 1.287 . S
C2534 C2533 1.287 . S
C2534 C2535 1.524 . S
C2534 H2553 0.913 . S
C2535 H2511 0.950 . S
C2535 C2534 1.524 . S
C2535 C2536 1.415 . S
C2536 H2512 0.950 . S
C2536 C2531 1.363 . S
C2536 C2535 1.415 . S
C2537 H2513 0.951 . S
C2537 C2538 1.366 . S
C2537 C2539 1.388 . S
C2538 C2537 1.366 . S
C2538 C2542 1.385 . S
C2539 H2514 0.951 . S
C2539 C2537 1.388 . S
C2539 C2540 1.366 . S
C2540 C2539 1.366 . S
C2540 C2541 1.414 . S
C2540 C2543 1.499 . S
C2541 H2515 0.950 . S
C2541 C2540 1.414 . S
C2541 C2542 1.374 . S
C2542 H2516 0.950 . S
C2542 C2538 1.385 . S
C2542 C2541 1.374 . S
C2543 C2540 1.499 . S
C2543 C2544 1.373 . S
C2543 C2545 1.389 . S
C2544 H2517 0.950 . S
C2544 C2530 1.377 1_556 S
C2544 C2543 1.373 . S
C2545 C2529 1.377 1_556 S
C2545 C2543 1.389 . S
C2545 C2546 1.524 . S
C2546 C2545 1.524 . S
C2546 C2547 1.397 . S
C2546 C2551 1.363 . S
C2547 H2518 0.950 . S
C2547 C2546 1.397 . S
C2547 C2548 1.334 . S
C2548 H2519 0.950 . S
C2548 C2547 1.334 . S
C2548 C2549 1.287 . S
C2549 C2548 1.287 . S
C2549 C2550 1.524 . S
C2549 H2552 0.999 . S
C2550 H2520 0.950 . S
C2550 C2549 1.524 . S
C2550 C2551 1.415 . S
C2551 H2521 0.950 . S
C2551 C2546 1.363 . S
C2551 C2550 1.415 . S
H2552 C2549 0.999 . S
H2553 C2534 0.913 . S
H2554 C2572 0.951 1_565 S
H2555 C2574 0.951 1_565 S
H2556 C2576 0.950 . S
H2557 C2577 0.950 . S
H2558 C2579 0.950 . S
H2559 C2582 0.950 . S
H2560 C2583 0.950 . S
H2561 C2585 0.950 . S
H2562 C2586 0.950 . S
H2563 C2587 0.951 . S
H2564 C2589 0.951 . S
H2565 C2591 0.950 1_565 S
H2566 C2592 0.950 1_565 S
H2567 C2594 0.950 . S
H2568 C2597 0.950 . S
H2569 C2598 0.950 . S
H2570 C2600 0.950 . S
H2571 C2601 0.950 . S
C2572 H2554 0.951 1_545 S
C2572 C2573 1.366 . S
C2572 C2574 1.388 . S
C2573 C2572 1.366 . S
C2573 C2577 1.385 . S
C2574 H2555 0.951 1_545 S
C2574 C2572 1.388 . S
C2574 C2575 1.366 . S
C2575 C2574 1.366 . S
C2575 C2576 1.414 . S
C2575 C2578 1.499 . S
C2576 H2556 0.950 . S
C2576 C2575 1.414 . S
C2576 C2577 1.374 . S
C2577 H2557 0.950 . S
C2577 C2573 1.385 . S
C2577 C2576 1.374 . S
C2578 C2575 1.499 . S
C2578 C2579 1.373 . S
C2578 C2580 1.389 . S
C2579 H2558 0.950 . S
C2579 C2578 1.373 . S
C2579 C2595 1.377 1_556 S
C2580 C2578 1.389 . S
C2580 C2581 1.524 . S
C2580 C2594 1.377 1_556 S
C2581 C2580 1.524 . S
C2581 C2582 1.397 . S
C2581 C2586 1.363 1_545 S
C2582 H2559 0.950 . S
C2582 C2581 1.397 . S
C2582 C2583 1.334 . S
C2583 H2560 0.950 . S
C2583 C2582 1.334 . S
C2583 C2584 1.287 1_545 S
C2584 C2583 1.287 1_565 S
C2584 C2585 1.524 . S
C2584 H2603 0.913 . S
C2585 H2561 0.950 . S
C2585 C2584 1.524 . S
C2585 C2586 1.415 . S
C2586 H2562 0.950 . S
C2586 C2581 1.363 1_565 S
C2586 C2585 1.415 . S
C2587 H2563 0.951 . S
C2587 C2588 1.366 . S
C2587 C2589 1.388 . S
C2588 C2587 1.366 . S
C2588 C2592 1.385 . S
C2589 H2564 0.951 . S
C2589 C2587 1.388 . S
C2589 C2590 1.366 . S
C2590 C2589 1.366 . S
C2590 C2591 1.414 . S
C2590 C2593 1.499 . S
C2591 H2565 0.950 1_545 S
C2591 C2590 1.414 . S
C2591 C2592 1.374 . S
C2592 H2566 0.950 1_545 S
C2592 C2588 1.385 . S
C2592 C2591 1.374 . S
C2593 C2590 1.499 . S
C2593 C2594 1.373 . S
C2593 C2595 1.389 . S
C2594 H2567 0.950 . S
C2594 C2580 1.377 1_554 S
C2594 C2593 1.373 . S
C2595 C2579 1.377 1_554 S
C2595 C2593 1.389 . S
C2595 C2596 1.524 . S
C2596 C2595 1.524 . S
C2596 C2597 1.397 . S
C2596 C2601 1.363 . S
C2597 H2568 0.950 . S
C2597 C2596 1.397 . S
C2597 C2598 1.334 . S
C2598 H2569 0.950 . S
C2598 C2597 1.334 . S
C2598 C2599 1.287 . S
C2599 C2598 1.287 . S
C2599 C2600 1.524 . S
C2599 H2602 0.999 . S
C2600 H2570 0.950 . S
C2600 C2599 1.524 . S
C2600 C2601 1.415 . S
C2601 H2571 0.950 . S
C2601 C2596 1.363 . S
C2601 C2600 1.415 . S
H2602 C2599 0.999 . S
H2603 C2584 0.913 . S
H2604 C2622 0.951 . S
H2605 C2624 0.951 . S
H2606 C2626 0.950 . S
H2607 C2627 0.950 . S
H2608 C2629 0.950 . S
H2609 C2632 0.950 . S
H2610 C2633 0.950 . S
H2611 C2635 0.950 . S
H2612 C2636 0.950 . S
H2613 C2637 0.951 . S
H2614 C2639 0.951 . S
H2615 C2641 0.950 . S
H2616 C2642 0.950 . S
H2617 C2644 0.950 . S
H2618 C2647 0.950 . S
H2619 C2648 0.950 . S
H2620 C2650 0.950 . S
H2621 C2651 0.950 . S
C2622 H2604 0.951 . S
C2622 C2623 1.366 . S
C2622 C2624 1.388 . S
C2623 C2622 1.366 . S
C2623 C2627 1.385 . S
C2624 H2605 0.951 . S
C2624 C2622 1.388 . S
C2624 C2625 1.366 . S
C2625 C2624 1.366 . S
C2625 C2626 1.414 . S
C2625 C2628 1.499 . S
C2626 H2606 0.950 . S
C2626 C2625 1.414 . S
C2626 C2627 1.374 . S
C2627 H2607 0.950 . S
C2627 C2623 1.385 . S
C2627 C2626 1.374 . S
C2628 C2625 1.499 . S
C2628 C2629 1.373 . S
C2628 C2630 1.389 . S
C2629 H2608 0.950 . S
C2629 C2628 1.373 . S
C2629 C2645 1.377 . S
C2630 C2628 1.389 . S
C2630 C2631 1.524 . S
C2630 C2644 1.377 . S
C2631 C2630 1.524 . S
C2631 C2632 1.397 . S
C2631 C2636 1.363 . S
C2632 H2609 0.950 . S
C2632 C2631 1.397 . S
C2632 C2633 1.334 . S
C2633 H2610 0.950 . S
C2633 C2632 1.334 . S
C2633 C2634 1.287 . S
C2634 C2633 1.287 . S
C2634 C2635 1.524 . S
C2634 H2653 0.913 . S
C2635 H2611 0.950 . S
C2635 C2634 1.524 . S
C2635 C2636 1.415 . S
C2636 H2612 0.950 . S
C2636 C2631 1.363 . S
C2636 C2635 1.415 . S
C2637 H2613 0.951 . S
C2637 C2638 1.366 . S
C2637 C2639 1.388 . S
C2638 C2637 1.366 . S
C2638 C2642 1.385 . S
C2639 H2614 0.951 . S
C2639 C2637 1.388 . S
C2639 C2640 1.366 . S
C2640 C2639 1.366 . S
C2640 C2641 1.414 . S
C2640 C2643 1.499 . S
C2641 H2615 0.950 . S
C2641 C2640 1.414 . S
C2641 C2642 1.374 . S
C2642 H2616 0.950 . S
C2642 C2638 1.385 . S
C2642 C2641 1.374 . S
C2643 C2640 1.499 . S
C2643 C2644 1.373 . S
C2643 C2645 1.389 . S
C2644 H2617 0.950 . S
C2644 C2630 1.377 . S
C2644 C2643 1.373 . S
C2645 C2629 1.377 . S
C2645 C2643 1.389 . S
C2645 C2646 1.524 . S
C2646 C2645 1.524 . S
C2646 C2647 1.397 . S
C2646 C2651 1.363 . S
C2647 H2618 0.950 . S
C2647 C2646 1.397 . S
C2647 C2648 1.334 . S
C2648 H2619 0.950 . S
C2648 C2647 1.334 . S
C2648 C2649 1.287 . S
C2649 C2648 1.287 . S
C2649 C2650 1.524 . S
C2649 H2652 0.999 . S
C2650 H2620 0.950 . S
C2650 C2649 1.524 . S
C2650 C2651 1.415 . S
C2651 H2621 0.950 . S
C2651 C2646 1.363 . S
C2651 C2650 1.415 . S
H2652 C2649 0.999 . S
H2653 C2634 0.913 . S
H2654 C2672 0.951 . S
H2655 C2674 0.951 . S
H2656 C2676 0.950 . S
H2657 C2677 0.950 . S
H2658 C2679 0.950 . S
H2659 C2682 0.950 . S
H2660 C2683 0.950 . S
H2661 C2685 0.950 . S
H2662 C2686 0.950 . S
H2663 C2687 0.951 . S
H2664 C2689 0.951 . S
H2665 C2691 0.950 . S
H2666 C2692 0.950 . S
H2667 C2694 0.950 . S
H2668 C2697 0.950 . S
H2669 C2698 0.950 . S
H2670 C2700 0.950 . S
H2671 C2701 0.950 . S
C2672 H2654 0.951 . S
C2672 C2673 1.366 . S
C2672 C2674 1.388 . S
C2673 C2672 1.366 . S
C2673 C2677 1.385 . S
C2674 H2655 0.951 . S
C2674 C2672 1.388 . S
C2674 C2675 1.366 . S
C2675 C2674 1.366 . S
C2675 C2676 1.414 . S
C2675 C2678 1.499 . S
C2676 H2656 0.950 . S
C2676 C2675 1.414 . S
C2676 C2677 1.374 . S
C2677 H2657 0.950 . S
C2677 C2673 1.385 . S
C2677 C2676 1.374 . S
C2678 C2675 1.499 . S
C2678 C2679 1.373 . S
C2678 C2680 1.389 . S
C2679 H2658 0.950 . S
C2679 C2678 1.373 . S
C2679 C2695 1.377 . S
C2680 C2678 1.389 . S
C2680 C2681 1.524 . S
C2680 C2694 1.377 . S
C2681 C2680 1.524 . S
C2681 C2682 1.397 . S
C2681 C2686 1.363 . S
C2682 H2659 0.950 . S
C2682 C2681 1.397 . S
C2682 C2683 1.334 . S
C2683 H2660 0.950 . S
C2683 C2682 1.334 . S
C2683 C2684 1.287 . S
C2684 C2683 1.287 . S
C2684 C2685 1.524 . S
C2684 H2703 0.913 . S
C2685 H2661 0.950 . S
C2685 C2684 1.524 . S
C2685 C2686 1.415 . S
C2686 H2662 0.950 . S
C2686 C2681 1.363 . S
C2686 C2685 1.415 . S
C2687 H2663 0.951 . S
C2687 C2688 1.366 . S
C2687 C2689 1.388 . S
C2688 C2687 1.366 . S
C2688 C2692 1.385 . S
C2689 H2664 0.951 . S
C2689 C2687 1.388 . S
C2689 C2690 1.366 . S
C2690 C2689 1.366 . S
C2690 C2691 1.414 . S
C2690 C2693 1.499 . S
C2691 H2665 0.950 . S
C2691 C2690 1.414 . S
C2691 C2692 1.374 . S
C2692 H2666 0.950 . S
C2692 C2688 1.385 . S
C2692 C2691 1.374 . S
C2693 C2690 1.499 . S
C2693 C2694 1.373 . S
C2693 C2695 1.389 . S
C2694 H2667 0.950 . S
C2694 C2680 1.377 . S
C2694 C2693 1.373 . S
C2695 C2679 1.377 . S
C2695 C2693 1.389 . S
C2695 C2696 1.524 . S
C2696 C2695 1.524 . S
C2696 C2697 1.397 . S
C2696 C2701 1.363 . S
C2697 H2668 0.950 . S
C2697 C2696 1.397 . S
C2697 C2698 1.334 . S
C2698 H2669 0.950 . S
C2698 C2697 1.334 . S
C2698 C2699 1.287 . S
C2699 C2698 1.287 . S
C2699 C2700 1.524 . S
C2699 H2702 0.999 . S
C2700 H2670 0.950 . S
C2700 C2699 1.524 . S
C2700 C2701 1.415 . S
C2701 H2671 0.950 . S
C2701 C2696 1.363 . S
C2701 C2700 1.415 . S
H2702 C2699 0.999 . S
H2703 C2684 0.913 . S
H2704 C2722 0.951 . S
H2705 C2724 0.951 . S
H2706 C2726 0.950 . S
H2707 C2727 0.950 . S
H2708 C2729 0.950 . S
H2709 C2732 0.950 . S
H2710 C2733 0.950 . S
H2711 C2735 0.950 . S
H2712 C2736 0.950 . S
H2713 C2737 0.951 . S
H2714 C2739 0.951 . S
H2715 C2741 0.950 . S
H2716 C2742 0.950 . S
H2717 C2744 0.950 . S
H2718 C2747 0.950 1_655 S
H2719 C2748 0.950 . S
H2720 C2750 0.950 . S
H2721 C2751 0.950 . S
C2722 H2704 0.951 . S
C2722 C2723 1.366 . S
C2722 C2724 1.388 . S
C2723 C2722 1.366 . S
C2723 C2727 1.385 1_655 S
C2724 H2705 0.951 . S
C2724 C2722 1.388 . S
C2724 C2725 1.366 . S
C2725 C2724 1.366 . S
C2725 C2726 1.414 1_655 S
C2725 C2728 1.499 . S
C2726 H2706 0.950 . S
C2726 C2725 1.414 1_455 S
C2726 C2727 1.374 . S
C2727 H2707 0.950 . S
C2727 C2723 1.385 1_455 S
C2727 C2726 1.374 . S
C2728 C2725 1.499 . S
C2728 C2729 1.373 1_655 S
C2728 C2730 1.389 . S
C2729 H2708 0.950 . S
C2729 C2728 1.373 1_455 S
C2729 C2745 1.377 . S
C2730 C2728 1.389 . S
C2730 C2731 1.524 . S
C2730 C2744 1.377 . S
C2731 C2730 1.524 . S
C2731 C2732 1.397 . S
C2731 C2736 1.363 . S
C2732 H2709 0.950 . S
C2732 C2731 1.397 . S
C2732 C2733 1.334 . S
C2733 H2710 0.950 . S
C2733 C2732 1.334 . S
C2733 C2734 1.287 . S
C2734 C2733 1.287 . S
C2734 C2735 1.524 . S
C2734 H2753 0.913 . S
C2735 H2711 0.950 . S
C2735 C2734 1.524 . S
C2735 C2736 1.415 . S
C2736 H2712 0.950 . S
C2736 C2731 1.363 . S
C2736 C2735 1.415 . S
C2737 H2713 0.951 . S
C2737 C2738 1.366 1_455 S
C2737 C2739 1.388 . S
C2738 C2737 1.366 1_655 S
C2738 C2742 1.385 . S
C2739 H2714 0.951 . S
C2739 C2737 1.388 . S
C2739 C2740 1.366 1_455 S
C2740 C2739 1.366 1_655 S
C2740 C2741 1.414 . S
C2740 C2743 1.499 . S
C2741 H2715 0.950 . S
C2741 C2740 1.414 . S
C2741 C2742 1.374 . S
C2742 H2716 0.950 . S
C2742 C2738 1.385 . S
C2742 C2741 1.374 . S
C2743 C2740 1.499 . S
C2743 C2744 1.373 . S
C2743 C2745 1.389 1_655 S
C2744 H2717 0.950 . S
C2744 C2730 1.377 . S
C2744 C2743 1.373 . S
C2745 C2729 1.377 . S
C2745 C2743 1.389 1_455 S
C2745 C2746 1.524 . S
C2746 C2745 1.524 . S
C2746 C2747 1.397 . S
C2746 C2751 1.363 . S
C2747 H2718 0.950 1_455 S
C2747 C2746 1.397 . S
C2747 C2748 1.334 . S
C2748 H2719 0.950 . S
C2748 C2747 1.334 . S
C2748 C2749 1.287 . S
C2749 C2748 1.287 . S
C2749 C2750 1.524 . S
C2749 H2752 0.999 . S
C2750 H2720 0.950 . S
C2750 C2749 1.524 . S
C2750 C2751 1.415 . S
C2751 H2721 0.950 . S
C2751 C2746 1.363 . S
C2751 C2750 1.415 . S
H2752 C2749 0.999 . S
H2753 C2734 0.913 . S
H2754 C2772 0.951 . S
H2755 C2774 0.951 . S
H2756 C2776 0.950 . S
H2757 C2777 0.950 . S
H2758 C2779 0.950 . S
H2759 C2782 0.950 . S
H2760 C2783 0.950 . S
H2761 C2785 0.950 . S
H2762 C2786 0.950 . S
H2763 C2787 0.951 . S
H2764 C2789 0.951 . S
H2765 C2791 0.950 . S
H2766 C2792 0.950 . S
H2767 C2794 0.950 . S
H2768 C2797 0.950 . S
H2769 C2798 0.950 1_565 S
H2770 C2800 0.950 . S
H2771 C2801 0.950 . S
C2772 H2754 0.951 . S
C2772 C2773 1.366 . S
C2772 C2774 1.388 . S
C2773 C2772 1.366 . S
C2773 C2777 1.385 . S
C2774 H2755 0.951 . S
C2774 C2772 1.388 . S
C2774 C2775 1.366 . S
C2775 C2774 1.366 . S
C2775 C2776 1.414 . S
C2775 C2778 1.499 . S
C2776 H2756 0.950 . S
C2776 C2775 1.414 . S
C2776 C2777 1.374 . S
C2777 H2757 0.950 . S
C2777 C2773 1.385 . S
C2777 C2776 1.374 . S
C2778 C2775 1.499 . S
C2778 C2779 1.373 . S
C2778 C2780 1.389 . S
C2779 H2758 0.950 . S
C2779 C2778 1.373 . S
C2779 C2795 1.377 . S
C2780 C2778 1.389 . S
C2780 C2781 1.524 . S
C2780 C2794 1.377 . S
C2781 C2780 1.524 . S
C2781 C2782 1.397 . S
C2781 C2786 1.363 . S
C2782 H2759 0.950 . S
C2782 C2781 1.397 . S
C2782 C2783 1.334 . S
C2783 H2760 0.950 . S
C2783 C2782 1.334 . S
C2783 C2784 1.287 . S
C2784 C2783 1.287 . S
C2784 C2785 1.524 . S
C2784 H2803 0.913 . S
C2785 H2761 0.950 . S
C2785 C2784 1.524 . S
C2785 C2786 1.415 . S
C2786 H2762 0.950 . S
C2786 C2781 1.363 . S
C2786 C2785 1.415 . S
C2787 H2763 0.951 . S
C2787 C2788 1.366 . S
C2787 C2789 1.388 . S
C2788 C2787 1.366 . S
C2788 C2792 1.385 . S
C2789 H2764 0.951 . S
C2789 C2787 1.388 . S
C2789 C2790 1.366 . S
C2790 C2789 1.366 . S
C2790 C2791 1.414 . S
C2790 C2793 1.499 . S
C2791 H2765 0.950 . S
C2791 C2790 1.414 . S
C2791 C2792 1.374 . S
C2792 H2766 0.950 . S
C2792 C2788 1.385 . S
C2792 C2791 1.374 . S
C2793 C2790 1.499 . S
C2793 C2794 1.373 . S
C2793 C2795 1.389 . S
C2794 H2767 0.950 . S
C2794 C2780 1.377 . S
C2794 C2793 1.373 . S
C2795 C2779 1.377 . S
C2795 C2793 1.389 . S
C2795 C2796 1.524 . S
C2796 C2795 1.524 . S
C2796 C2797 1.397 . S
C2796 C2801 1.363 . S
C2797 H2768 0.950 . S
C2797 C2796 1.397 . S
C2797 C2798 1.334 . S
C2798 H2769 0.950 1_545 S
C2798 C2797 1.334 . S
C2798 C2799 1.287 . S
C2799 C2798 1.287 . S
C2799 C2800 1.524 . S
C2799 H2802 0.999 1_545 S
C2800 H2770 0.950 . S
C2800 C2799 1.524 . S
C2800 C2801 1.415 . S
C2801 H2771 0.950 . S
C2801 C2796 1.363 . S
C2801 C2800 1.415 . S
H2802 C2799 0.999 1_565 S
H2803 C2784 0.913 . S
H2804 C2822 0.951 . S
H2805 C2824 0.951 . S
H2806 C2826 0.950 . S
H2807 C2827 0.950 . S
H2808 C2829 0.988 . S
H2809 C2832 0.950 . S
H2810 C2833 0.950 . S
H2811 C2835 0.950 . S
H2812 C2836 0.950 . S
H2813 C2837 0.951 . S
H2814 C2839 0.951 . S
H2815 C2841 0.950 . S
H2816 C2842 0.950 . S
H2817 C2844 0.950 . S
H2818 C2847 0.950 . S
H2819 C2848 0.950 . S
H2820 C2850 0.950 . S
H2821 C2851 0.950 . S
C2822 H2804 0.951 . S
C2822 C2823 1.366 . S
C2822 C2824 1.388 . S
C2823 C2822 1.366 . S
C2823 C2827 1.385 . S
C2824 H2805 0.951 . S
C2824 C2822 1.388 . S
C2824 C2825 1.366 . S
C2825 C2824 1.366 . S
C2825 C2826 1.414 . S
C2825 C2828 1.499 . S
C2826 H2806 0.950 . S
C2826 C2825 1.414 . S
C2826 C2827 1.374 . S
C2827 H2807 0.950 . S
C2827 C2823 1.385 . S
C2827 C2826 1.374 . S
C2828 C2825 1.499 . S
C2828 C2829 1.334 1_655 S
C2828 C2830 1.389 . S
C2829 H2808 0.988 . S
C2829 C2828 1.334 1_455 S
C2829 C2845 1.381 . S
C2830 C2828 1.389 . S
C2830 C2831 1.524 . S
C2830 C2844 1.377 . S
C2831 C2830 1.524 . S
C2831 C2832 1.397 . S
C2831 C2836 1.363 . S
C2832 H2809 0.950 . S
C2832 C2831 1.397 . S
C2832 C2833 1.334 . S
C2833 H2810 0.950 . S
C2833 C2832 1.334 . S
C2833 C2834 1.287 . S
C2834 C2833 1.287 . S
C2834 C2835 1.524 . S
C2834 H2853 0.913 . S
C2835 H2811 0.950 . S
C2835 C2834 1.524 . S
C2835 C2836 1.415 . S
C2836 H2812 0.950 . S
C2836 C2831 1.363 . S
C2836 C2835 1.415 . S
C2837 H2813 0.951 . S
C2837 C2838 1.366 . S
C2837 C2839 1.388 . S
C2838 C2837 1.366 . S
C2838 C2842 1.385 . S
C2839 H2814 0.951 . S
C2839 C2837 1.388 . S
C2839 C2840 1.366 . S
C2840 C2839 1.366 . S
C2840 C2841 1.414 . S
C2840 C2843 1.499 . S
C2841 H2815 0.950 . S
C2841 C2840 1.414 . S
C2841 C2842 1.374 . S
C2842 H2816 0.950 . S
C2842 C2838 1.385 . S
C2842 C2841 1.374 . S
C2843 C2840 1.499 . S
C2843 C2844 1.373 . S
C2843 C2845 1.389 1_655 S
C2844 H2817 0.950 . S
C2844 C2830 1.377 . S
C2844 C2843 1.373 . S
C2845 C2829 1.381 . S
C2845 C2843 1.389 1_455 S
C2845 C2846 1.524 . S
C2846 C2845 1.524 . S
C2846 C2847 1.397 . S
C2846 C2851 1.363 . S
C2847 H2818 0.950 . S
C2847 C2846 1.397 . S
C2847 C2848 1.334 . S
C2848 H2819 0.950 . S
C2848 C2847 1.334 . S
C2848 C2849 1.287 . S
C2849 C2848 1.287 . S
C2849 C2850 1.524 . S
C2849 H2852 0.999 . S
C2850 H2820 0.950 . S
C2850 C2849 1.524 . S
C2850 C2851 1.415 . S
C2851 H2821 0.950 . S
C2851 C2846 1.363 . S
C2851 C2850 1.415 . S
H2852 C2849 0.999 . S
H2853 C2834 0.913 . S
H2854 C2872 0.951 . S
H2855 C2874 0.951 . S
H2856 C2876 0.950 . S
H2857 C2877 0.950 . S
H2858 C2879 0.950 . S
H2859 C2882 0.950 . S
H2860 C2883 0.950 . S
H2861 C2885 0.950 . S
H2862 C2886 0.950 . S
H2863 C2887 0.951 . S
H2864 C2889 0.951 . S
H2865 C2891 0.950 . S
H2866 C2892 0.950 . S
H2867 C2894 0.950 . S
H2868 C2897 0.950 . S
H2869 C2898 0.950 . S
H2870 C2900 0.950 . S
H2871 C2901 0.950 . S
C2872 H2854 0.951 . S
C2872 C2873 1.366 . S
C2872 C2874 1.388 . S
C2873 C2872 1.366 . S
C2873 C2877 1.385 . S
C2874 H2855 0.951 . S
C2874 C2872 1.388 . S
C2874 C2875 1.366 . S
C2875 C2874 1.366 . S
C2875 C2876 1.414 . S
C2875 C2878 1.499 . S
C2876 H2856 0.950 . S
C2876 C2875 1.414 . S
C2876 C2877 1.374 . S
C2877 H2857 0.950 . S
C2877 C2873 1.385 . S
C2877 C2876 1.374 . S
C2878 C2875 1.499 . S
C2878 C2879 1.373 . S
C2878 C2880 1.389 . S
C2879 H2858 0.950 . S
C2879 C2878 1.373 . S
C2879 C2895 1.377 . S
C2880 C2878 1.389 . S
C2880 C2881 1.524 . S
C2880 C2894 1.377 . S
C2881 C2880 1.524 . S
C2881 C2882 1.397 . S
C2881 C2886 1.363 . S
C2882 H2859 0.950 . S
C2882 C2881 1.397 . S
C2882 C2883 1.334 . S
C2883 H2860 0.950 . S
C2883 C2882 1.334 . S
C2883 C2884 1.287 . S
C2884 C2883 1.287 . S
C2884 C2885 1.524 . S
C2884 H2903 0.913 . S
C2885 H2861 0.950 . S
C2885 C2884 1.524 . S
C2885 C2886 1.415 . S
C2886 H2862 0.950 . S
C2886 C2881 1.363 . S
C2886 C2885 1.415 . S
C2887 H2863 0.951 . S
C2887 C2888 1.366 . S
C2887 C2889 1.388 . S
C2888 C2887 1.366 . S
C2888 C2892 1.385 . S
C2889 H2864 0.951 . S
C2889 C2887 1.388 . S
C2889 C2890 1.366 . S
C2890 C2889 1.366 . S
C2890 C2891 1.414 . S
C2890 C2893 1.499 . S
C2891 H2865 0.950 . S
C2891 C2890 1.414 . S
C2891 C2892 1.374 . S
C2892 H2866 0.950 . S
C2892 C2888 1.385 . S
C2892 C2891 1.374 . S
C2893 C2890 1.499 . S
C2893 C2894 1.373 . S
C2893 C2895 1.389 . S
C2894 H2867 0.950 . S
C2894 C2880 1.377 . S
C2894 C2893 1.373 . S
C2895 C2879 1.377 . S
C2895 C2893 1.389 . S
C2895 C2896 1.524 . S
C2896 C2895 1.524 . S
C2896 C2897 1.397 . S
C2896 C2901 1.363 . S
C2897 H2868 0.950 . S
C2897 C2896 1.397 . S
C2897 C2898 1.334 . S
C2898 H2869 0.950 . S
C2898 C2897 1.334 . S
C2898 C2899 1.287 . S
C2899 C2898 1.287 . S
C2899 C2900 1.524 . S
C2899 H2902 0.999 . S
C2900 H2870 0.950 . S
C2900 C2899 1.524 . S
C2900 C2901 1.415 . S
C2901 H2871 0.950 . S
C2901 C2896 1.363 . S
C2901 C2900 1.415 . S
H2902 C2899 0.999 . S
H2903 C2884 0.913 . S
H2904 C2922 0.951 . S
H2905 C2924 0.951 . S
H2906 C2926 0.950 . S
H2907 C2927 0.950 . S
H2908 C2929 0.950 1_545 S
H2909 C2932 0.950 1_545 S
H2910 C2933 0.950 1_545 S
H2911 C2935 0.950 . S
H2912 C2936 0.950 . S
H2913 C2937 0.951 . S
H2914 C2939 0.951 . S
H2915 C2941 0.950 . S
H2916 C2942 0.950 . S
H2917 C2944 0.950 . S
H2918 C2947 0.950 . S
H2919 C2948 0.950 . S
H2920 C2950 0.950 . S
H2921 C2951 0.950 . S
C2922 H2904 0.951 . S
C2922 C2923 1.366 . S
C2922 C2924 1.388 . S
C2923 C2922 1.366 . S
C2923 C2927 1.385 1_565 S
C2924 H2905 0.951 . S
C2924 C2922 1.388 . S
C2924 C2925 1.366 . S
C2925 C2924 1.366 . S
C2925 C2926 1.414 1_565 S
C2925 C2928 1.499 . S
C2926 H2906 0.950 . S
C2926 C2925 1.414 1_545 S
C2926 C2927 1.374 . S
C2927 H2907 0.950 . S
C2927 C2923 1.385 1_545 S
C2927 C2926 1.374 . S
C2928 C2925 1.499 . S
C2928 C2929 1.373 . S
C2928 C2930 1.389 . S
C2929 H2908 0.950 1_565 S
C2929 C2928 1.373 . S
C2929 C2945 1.377 . S
C2930 C2928 1.389 . S
C2930 C2931 1.524 . S
C2930 C2944 1.377 . S
C2931 C2930 1.524 . S
C2931 C2932 1.397 . S
C2931 C2936 1.363 . S
C2932 H2909 0.950 1_565 S
C2932 C2931 1.397 . S
C2932 C2933 1.334 . S
C2933 H2910 0.950 1_565 S
C2933 C2932 1.334 . S
C2933 C2934 1.287 . S
C2934 C2933 1.287 . S
C2934 C2935 1.524 . S
C2934 H2953 0.913 . S
C2935 H2911 0.950 . S
C2935 C2934 1.524 . S
C2935 C2936 1.415 . S
C2936 H2912 0.950 . S
C2936 C2931 1.363 . S
C2936 C2935 1.415 . S
C2937 H2913 0.951 . S
C2937 C2938 1.366 1_545 S
C2937 C2939 1.388 . S
C2938 C2937 1.366 1_565 S
C2938 C2942 1.385 . S
C2939 H2914 0.951 . S
C2939 C2937 1.388 . S
C2939 C2940 1.366 1_545 S
C2940 C2939 1.366 1_565 S
C2940 C2941 1.414 . S
C2940 C2943 1.499 . S
C2941 H2915 0.950 . S
C2941 C2940 1.414 . S
C2941 C2942 1.374 . S
C2942 H2916 0.950 . S
C2942 C2938 1.385 . S
C2942 C2941 1.374 . S
C2943 C2940 1.499 . S
C2943 C2944 1.373 . S
C2943 C2945 1.389 . S
C2944 H2917 0.950 . S
C2944 C2930 1.377 . S
C2944 C2943 1.373 . S
C2945 C2929 1.377 . S
C2945 C2943 1.389 . S
C2945 C2946 1.491 1_565 S
C2946 C2945 1.491 1_545 S
C2946 C2947 1.375 1_545 S
C2946 C2951 1.416 . S
C2947 H2918 0.950 . S
C2947 C2946 1.375 1_565 S
C2947 C2948 1.334 . S
C2948 H2919 0.950 . S
C2948 C2947 1.334 . S
C2948 C2949 1.287 1_565 S
C2949 C2948 1.287 1_545 S
C2949 C2950 1.524 . S
C2949 H2952 0.999 . S
C2950 H2920 0.950 . S
C2950 C2949 1.524 . S
C2950 C2951 1.415 . S
C2951 H2921 0.950 . S
C2951 C2946 1.416 . S
C2951 C2950 1.415 . S
H2952 C2949 0.999 . S
H2953 C2934 0.913 . S
H2954 C2972 0.951 . S
H2955 C2974 0.951 . S
H2956 C2976 0.950 . S
H2957 C2977 0.950 . S
H2958 C2979 0.950 . S
H2959 C2982 0.950 . S
H2960 C2983 0.950 . S
H2961 C2985 0.950 1_655 S
H2962 C2986 0.950 . S
H2963 C2987 0.951 . S
H2964 C2989 0.951 . S
H2965 C2991 0.950 . S
H2966 C2992 0.950 . S
H2967 C2994 0.950 . S
H2968 C2997 0.950 . S
H2969 C2998 0.950 . S
H2970 C3000 0.950 . S
H2971 C3001 0.950 . S
C2972 H2954 0.951 . S
C2972 C2973 1.366 . S
C2972 C2974 1.388 . S
C2973 C2972 1.366 . S
C2973 C2977 1.385 . S
C2974 H2955 0.951 . S
C2974 C2972 1.388 . S
C2974 C2975 1.366 . S
C2975 C2974 1.366 . S
C2975 C2976 1.414 . S
C2975 C2978 1.499 . S
C2976 H2956 0.950 . S
C2976 C2975 1.414 . S
C2976 C2977 1.374 . S
C2977 H2957 0.950 . S
C2977 C2973 1.385 . S
C2977 C2976 1.374 . S
C2978 C2975 1.499 . S
C2978 C2979 1.373 . S
C2978 C2980 1.389 . S
C2979 H2958 0.950 . S
C2979 C2978 1.373 . S
C2979 C2995 1.377 . S
C2980 C2978 1.389 . S
C2980 C2981 1.524 . S
C2980 C2994 1.377 . S
C2981 C2980 1.524 . S
C2981 C2982 1.397 . S
C2981 C2986 1.363 . S
C2982 H2959 0.950 . S
C2982 C2981 1.397 . S
C2982 C2983 1.334 . S
C2983 H2960 0.950 . S
C2983 C2982 1.334 . S
C2983 C2984 1.287 . S
C2984 C2983 1.287 . S
C2984 C2985 1.524 . S
C2984 H3003 0.913 . S
C2985 H2961 0.950 1_455 S
C2985 C2984 1.524 . S
C2985 C2986 1.415 . S
C2986 H2962 0.950 . S
C2986 C2981 1.363 . S
C2986 C2985 1.415 . S
C2987 H2963 0.951 . S
C2987 C2988 1.366 . S
C2987 C2989 1.388 . S
C2988 C2987 1.366 . S
C2988 C2992 1.385 . S
C2989 H2964 0.951 . S
C2989 C2987 1.388 . S
C2989 C2990 1.366 . S
C2990 C2989 1.366 . S
C2990 C2991 1.414 . S
C2990 C2993 1.499 . S
C2991 H2965 0.950 . S
C2991 C2990 1.414 . S
C2991 C2992 1.374 . S
C2992 H2966 0.950 . S
C2992 C2988 1.385 . S
C2992 C2991 1.374 . S
C2993 C2990 1.499 . S
C2993 C2994 1.373 . S
C2993 C2995 1.389 . S
C2994 H2967 0.950 . S
C2994 C2980 1.377 . S
C2994 C2993 1.373 . S
C2995 C2979 1.377 . S
C2995 C2993 1.389 . S
C2995 C2996 1.524 . S
C2996 C2995 1.524 . S
C2996 C2997 1.397 . S
C2996 C3001 1.363 . S
C2997 H2968 0.950 . S
C2997 C2996 1.397 . S
C2997 C2998 1.334 . S
C2998 H2969 0.950 . S
C2998 C2997 1.334 . S
C2998 C2999 1.287 . S
C2999 C2998 1.287 . S
C2999 C3000 1.524 . S
C2999 H3002 0.999 . S
C3000 H2970 0.950 . S
C3000 C2999 1.524 . S
C3000 C3001 1.415 . S
C3001 H2971 0.950 . S
C3001 C2996 1.363 . S
C3001 C3000 1.415 . S
H3002 C2999 0.999 . S
H3003 C2984 0.913 . S
H3004 C3022 0.951 . S
H3005 C3024 0.951 . S
H3006 C3026 0.950 . S
H3007 C3027 0.950 . S
H3008 C3029 0.950 . S
H3009 C3032 0.950 . S
H3010 C3033 0.950 . S
H3011 C3035 0.950 . S
H3012 C3036 0.950 . S
H3013 C3037 0.951 . S
H3014 C3039 0.951 . S
H3015 C3041 0.950 . S
H3016 C3042 0.950 . S
H3017 C3044 0.950 . S
H3018 C3047 0.950 . S
H3019 C3048 0.950 . S
H3020 C3050 0.950 . S
H3021 C3051 0.950 . S
C3022 H3004 0.951 . S
C3022 C3023 1.366 . S
C3022 C3024 1.388 . S
C3023 C3022 1.366 . S
C3023 C3027 1.385 . S
C3024 H3005 0.951 . S
C3024 C3022 1.388 . S
C3024 C3025 1.366 . S
C3025 C3024 1.366 . S
C3025 C3026 1.414 . S
C3025 C3028 1.499 . S
C3026 H3006 0.950 . S
C3026 C3025 1.414 . S
C3026 C3027 1.374 . S
C3027 H3007 0.950 . S
C3027 C3023 1.385 . S
C3027 C3026 1.374 . S
C3028 C3025 1.499 . S
C3028 C3029 1.373 . S
C3028 C3030 1.389 . S
C3029 H3008 0.950 . S
C3029 C3028 1.373 . S
C3029 C3045 1.377 . S
C3030 C3028 1.389 . S
C3030 C3031 1.524 . S
C3030 C3044 1.377 . S
C3031 C3030 1.524 . S
C3031 C3032 1.397 . S
C3031 C3036 1.363 . S
C3032 H3009 0.950 . S
C3032 C3031 1.397 . S
C3032 C3033 1.334 . S
C3033 H3010 0.950 . S
C3033 C3032 1.334 . S
C3033 C3034 1.287 . S
C3034 C3033 1.287 . S
C3034 C3035 1.524 . S
C3034 H3053 0.913 . S
C3035 H3011 0.950 . S
C3035 C3034 1.524 . S
C3035 C3036 1.415 . S
C3036 H3012 0.950 . S
C3036 C3031 1.363 . S
C3036 C3035 1.415 . S
C3037 H3013 0.951 . S
C3037 C3038 1.366 . S
C3037 C3039 1.388 . S
C3038 C3037 1.366 . S
C3038 C3042 1.385 . S
C3039 H3014 0.951 . S
C3039 C3037 1.388 . S
C3039 C3040 1.366 . S
C3040 C3039 1.366 . S
C3040 C3041 1.414 . S
C3040 C3043 1.499 . S
C3041 H3015 0.950 . S
C3041 C3040 1.414 . S
C3041 C3042 1.374 . S
C3042 H3016 0.950 . S
C3042 C3038 1.385 . S
C3042 C3041 1.374 . S
C3043 C3040 1.499 . S
C3043 C3044 1.373 . S
C3043 C3045 1.389 . S
C3044 H3017 0.950 . S
C3044 C3030 1.377 . S
C3044 C3043 1.373 . S
C3045 C3029 1.377 . S
C3045 C3043 1.389 . S
C3045 C3046 1.524 . S
C3046 C3045 1.524 . S
C3046 C3047 1.397 . S
C3046 C3051 1.363 . S
C3047 H3018 0.950 . S
C3047 C3046 1.397 . S
C3047 C3048 1.334 . S
C3048 H3019 0.950 . S
C3048 C3047 1.334 . S
C3048 C3049 1.287 . S
C3049 C3048 1.287 . S
C3049 C3050 1.524 . S
C3049 H3052 0.999 . S
C3050 H3020 0.950 . S
C3050 C3049 1.524 . S
C3050 C3051 1.415 . S
C3051 H3021 0.950 . S
C3051 C3046 1.363 . S
C3051 C3050 1.415 . S
H3052 C3049 0.999 . S
H3053 C3034 0.913 . S
H3054 C3072 0.951 . S
H3055 C3074 0.951 . S
H3056 C3076 0.950 . S
H3057 C3077 0.950 . S
H3058 C3079 0.950 . S
H3059 C3082 0.950 . S
H3060 C3083 0.950 . S
H3061 C3085 0.950 . S
H3062 C3086 0.950 . S
H3063 C3087 0.951 . S
H3064 C3089 0.951 . S
H3065 C3091 0.950 . S
H3066 C3092 0.950 . S
H3067 C3094 0.950 . S
H3068 C3097 0.950 . S
H3069 C3098 0.950 . S
H3070 C3100 0.950 . S
H3071 C3101 0.950 . S
C3072 H3054 0.951 . S
C3072 C3073 1.366 . S
C3072 C3074 1.388 . S
C3073 C3072 1.366 . S
C3073 C3077 1.385 . S
C3074 H3055 0.951 . S
C3074 C3072 1.388 . S
C3074 C3075 1.366 . S
C3075 C3074 1.366 . S
C3075 C3076 1.414 . S
C3075 C3078 1.499 . S
C3076 H3056 0.950 . S
C3076 C3075 1.414 . S
C3076 C3077 1.374 . S
C3077 H3057 0.950 . S
C3077 C3073 1.385 . S
C3077 C3076 1.374 . S
C3078 C3075 1.499 . S
C3078 C3079 1.373 . S
C3078 C3080 1.389 . S
C3079 H3058 0.950 . S
C3079 C3078 1.373 . S
C3079 C3095 1.377 . S
C3080 C3078 1.389 . S
C3080 C3081 1.524 . S
C3080 C3094 1.377 . S
C3081 C3080 1.524 . S
C3081 C3082 1.397 . S
C3081 C3086 1.363 . S
C3082 H3059 0.950 . S
C3082 C3081 1.397 . S
C3082 C3083 1.334 . S
C3083 H3060 0.950 . S
C3083 C3082 1.334 . S
C3083 C3084 1.287 . S
C3084 C3083 1.287 . S
C3084 C3085 1.524 . S
C3084 H3103 0.913 . S
C3085 H3061 0.950 . S
C3085 C3084 1.524 . S
C3085 C3086 1.415 . S
C3086 H3062 0.950 . S
C3086 C3081 1.363 . S
C3086 C3085 1.415 . S
C3087 H3063 0.951 . S
C3087 C3088 1.366 . S
C3087 C3089 1.388 . S
C3088 C3087 1.366 . S
C3088 C3092 1.385 . S
C3089 H3064 0.951 . S
C3089 C3087 1.388 . S
C3089 C3090 1.366 . S
C3090 C3089 1.366 . S
C3090 C3091 1.414 . S
C3090 C3093 1.499 . S
C3091 H3065 0.950 . S
C3091 C3090 1.414 . S
C3091 C3092 1.374 . S
C3092 H3066 0.950 . S
C3092 C3088 1.385 . S
C3092 C3091 1.374 . S
C3093 C3090 1.499 . S
C3093 C3094 1.373 . S
C3093 C3095 1.389 . S
C3094 H3067 0.950 . S
C3094 C3080 1.377 . S
C3094 C3093 1.373 . S
C3095 C3079 1.377 . S
C3095 C3093 1.389 . S
C3095 C3096 1.524 . S
C3096 C3095 1.524 . S
C3096 C3097 1.397 . S
C3096 C3101 1.363 . S
C3097 H3068 0.950 . S
C3097 C3096 1.397 . S
C3097 C3098 1.334 . S
C3098 H3069 0.950 . S
C3098 C3097 1.334 . S
C3098 C3099 1.287 . S
C3099 C3098 1.287 . S
C3099 C3100 1.524 . S
C3099 H3102 0.999 . S
C3100 H3070 0.950 . S
C3100 C3099 1.524 . S
C3100 C3101 1.415 . S
C3101 H3071 0.950 . S
C3101 C3096 1.363 . S
C3101 C3100 1.415 . S
H3102 C3099 0.999 . S
H3103 C3084 0.913 . S
H3104 C3122 0.951 . S
H3105 C3124 0.951 . S
H3106 C3126 0.950 . S
H3107 C3127 0.950 . S
H3108 C3129 0.950 . S
H3109 C3132 0.950 . S
H3110 C3133 0.950 . S
H3111 C3135 0.950 . S
H3112 C3136 0.950 . S
H3113 C3137 0.951 . S
H3114 C3139 0.951 . S
H3115 C3141 0.950 . S
H3116 C3142 0.950 . S
H3117 C3144 0.950 . S
H3118 C3147 0.950 . S
H3119 C3148 0.950 . S
H3120 C3150 0.950 . S
H3121 C3151 0.950 . S
C3122 H3104 0.951 . S
C3122 C3123 1.366 . S
C3122 C3124 1.388 . S
C3123 C3122 1.366 . S
C3123 C3127 1.385 1_565 S
C3124 H3105 0.951 . S
C3124 C3122 1.388 . S
C3124 C3125 1.366 . S
C3125 C3124 1.366 . S
C3125 C3126 1.414 1_565 S
C3125 C3128 1.499 . S
C3126 H3106 0.950 . S
C3126 C3125 1.414 1_545 S
C3126 C3127 1.374 . S
C3127 H3107 0.950 . S
C3127 C3123 1.385 1_545 S
C3127 C3126 1.374 . S
C3128 C3125 1.499 . S
C3128 C3129 1.373 1_565 S
C3128 C3130 1.389 . S
C3129 H3108 0.950 . S
C3129 C3128 1.373 1_545 S
C3129 C3145 1.377 . S
C3130 C3128 1.389 . S
C3130 C3131 1.524 . S
C3130 C3144 1.377 . S
C3131 C3130 1.524 . S
C3131 C3132 1.397 . S
C3131 C3136 1.363 . S
C3132 H3109 0.950 . S
C3132 C3131 1.397 . S
C3132 C3133 1.334 . S
C3133 H3110 0.950 . S
C3133 C3132 1.334 . S
C3133 C3134 1.287 . S
C3134 C3133 1.287 . S
C3134 C3135 1.524 . S
C3134 H3153 0.913 . S
C3135 H3111 0.950 . S
C3135 C3134 1.524 . S
C3135 C3136 1.415 . S
C3136 H3112 0.950 . S
C3136 C3131 1.363 . S
C3136 C3135 1.415 . S
C3137 H3113 0.951 . S
C3137 C3138 1.366 1_545 S
C3137 C3139 1.388 . S
C3138 C3137 1.366 1_565 S
C3138 C3142 1.385 . S
C3139 H3114 0.951 . S
C3139 C3137 1.388 . S
C3139 C3140 1.366 1_545 S
C3140 C3139 1.366 1_565 S
C3140 C3141 1.414 . S
C3140 C3143 1.499 . S
C3141 H3115 0.950 . S
C3141 C3140 1.414 . S
C3141 C3142 1.374 . S
C3142 H3116 0.950 . S
C3142 C3138 1.385 . S
C3142 C3141 1.374 . S
C3143 C3140 1.499 . S
C3143 C3144 1.373 . S
C3143 C3145 1.389 1_565 S
C3144 H3117 0.950 . S
C3144 C3130 1.377 . S
C3144 C3143 1.373 . S
C3145 C3129 1.377 . S
C3145 C3143 1.389 1_545 S
C3145 C3146 1.524 . S
C3146 C3145 1.524 . S
C3146 C3147 1.397 . S
C3146 C3151 1.363 . S
C3147 H3118 0.950 . S
C3147 C3146 1.397 . S
C3147 C3148 1.334 . S
C3148 H3119 0.950 . S
C3148 C3147 1.334 . S
C3148 C3149 1.287 . S
C3149 C3148 1.287 . S
C3149 C3150 1.524 . S
C3149 H3152 0.999 . S
C3150 H3120 0.950 . S
C3150 C3149 1.524 . S
C3150 C3151 1.415 . S
C3151 H3121 0.950 . S
C3151 C3146 1.363 . S
C3151 C3150 1.415 . S
H3152 C3149 0.999 . S
H3153 C3134 0.913 . S
H3154 C3172 0.951 . S
H3155 C3174 0.951 . S
H3156 C3176 0.950 . S
H3157 C3177 0.950 . S
H3158 C3179 0.950 . S
H3159 C3182 0.950 . S
H3160 C3183 0.950 . S
H3161 C3185 0.950 . S
H3162 C3186 0.950 . S
H3163 C3187 0.951 . S
H3164 C3189 0.951 . S
H3165 C3191 0.950 . S
H3166 C3192 0.950 . S
H3167 C3194 0.950 . S
H3168 C3197 0.950 . S
H3169 C3198 0.950 . S
H3170 C3200 0.950 . S
H3171 C3201 0.950 . S
C3172 H3154 0.951 . S
C3172 C3173 1.366 . S
C3172 C3174 1.388 . S
C3173 C3172 1.366 . S
C3173 C3177 1.385 . S
C3174 H3155 0.951 . S
C3174 C3172 1.388 . S
C3174 C3175 1.366 . S
C3175 C3174 1.366 . S
C3175 C3176 1.414 . S
C3175 C3178 1.499 . S
C3176 H3156 0.950 . S
C3176 C3175 1.414 . S
C3176 C3177 1.374 . S
C3177 H3157 0.950 . S
C3177 C3173 1.385 . S
C3177 C3176 1.374 . S
C3178 C3175 1.499 . S
C3178 C3179 1.373 . S
C3178 C3180 1.389 . S
C3179 H3158 0.950 . S
C3179 C3178 1.373 . S
C3179 C3195 1.377 . S
C3180 C3178 1.389 . S
C3180 C3181 1.524 . S
C3180 C3194 1.377 . S
C3181 C3180 1.524 . S
C3181 C3182 1.397 . S
C3181 C3186 1.363 . S
C3182 H3159 0.950 . S
C3182 C3181 1.397 . S
C3182 C3183 1.334 . S
C3183 H3160 0.950 . S
C3183 C3182 1.334 . S
C3183 C3184 1.287 1_455 S
C3184 C3183 1.287 1_655 S
C3184 C3185 1.524 . S
C3184 H3203 0.913 . S
C3185 H3161 0.950 . S
C3185 C3184 1.524 . S
C3185 C3186 1.415 1_655 S
C3186 H3162 0.950 . S
C3186 C3181 1.363 . S
C3186 C3185 1.415 1_455 S
C3187 H3163 0.951 . S
C3187 C3188 1.366 . S
C3187 C3189 1.388 . S
C3188 C3187 1.366 . S
C3188 C3192 1.385 . S
C3189 H3164 0.951 . S
C3189 C3187 1.388 . S
C3189 C3190 1.366 . S
C3190 C3189 1.366 . S
C3190 C3191 1.414 . S
C3190 C3193 1.499 . S
C3191 H3165 0.950 . S
C3191 C3190 1.414 . S
C3191 C3192 1.374 . S
C3192 H3166 0.950 . S
C3192 C3188 1.385 . S
C3192 C3191 1.374 . S
C3193 C3190 1.499 . S
C3193 C3194 1.373 . S
C3193 C3195 1.389 . S
C3194 H3167 0.950 . S
C3194 C3180 1.377 . S
C3194 C3193 1.373 . S
C3195 C3179 1.377 . S
C3195 C3193 1.389 . S
C3195 C3196 1.524 . S
C3196 C3195 1.524 . S
C3196 C3197 1.397 . S
C3196 C3201 1.363 . S
C3197 H3168 0.950 . S
C3197 C3196 1.397 . S
C3197 C3198 1.334 . S
C3198 H3169 0.950 . S
C3198 C3197 1.334 . S
C3198 C3199 1.287 . S
C3199 C3198 1.287 . S
C3199 C3200 1.524 . S
C3199 H3202 0.999 . S
C3200 H3170 0.950 . S
C3200 C3199 1.524 . S
C3200 C3201 1.415 . S
C3201 H3171 0.950 . S
C3201 C3196 1.363 . S
C3201 C3200 1.415 . S
H3202 C3199 0.999 . S
H3203 C3184 0.913 . S
H3204 C3222 0.951 . S
H3205 C3224 0.951 . S
H3206 C3226 0.950 . S
H3207 C3227 0.950 . S
H3208 C3229 0.950 . S
H3209 C3232 0.950 . S
H3210 C3233 0.950 . S
H3211 C3235 0.950 . S
H3212 C3236 0.950 . S
H3213 C3237 0.951 . S
H3214 C3239 0.951 . S
H3215 C3241 0.950 . S
H3216 C3242 0.950 . S
H3217 C3244 0.950 . S
H3218 C3247 0.950 . S
H3219 C3248 0.950 . S
H3220 C3250 0.950 . S
H3221 C3251 0.950 . S
C3222 H3204 0.951 . S
C3222 C3223 1.366 . S
C3222 C3224 1.388 . S
C3223 C3222 1.366 . S
C3223 C3227 1.385 . S
C3224 H3205 0.951 . S
C3224 C3222 1.388 . S
C3224 C3225 1.366 . S
C3225 C3224 1.366 . S
C3225 C3226 1.414 . S
C3225 C3228 1.499 . S
C3226 H3206 0.950 . S
C3226 C3225 1.414 . S
C3226 C3227 1.374 . S
C3227 H3207 0.950 . S
C3227 C3223 1.385 . S
C3227 C3226 1.374 . S
C3228 C3225 1.499 . S
C3228 C3229 1.373 . S
C3228 C3230 1.389 . S
C3229 H3208 0.950 . S
C3229 C3228 1.373 . S
C3229 C3245 1.377 . S
C3230 C3228 1.389 . S
C3230 C3231 1.524 . S
C3230 C3244 1.377 . S
C3231 C3230 1.524 . S
C3231 C3232 1.397 . S
C3231 C3236 1.363 . S
C3232 H3209 0.950 . S
C3232 C3231 1.397 . S
C3232 C3233 1.334 . S
C3233 H3210 0.950 . S
C3233 C3232 1.334 . S
C3233 C3234 1.287 . S
C3234 C3233 1.287 . S
C3234 C3235 1.524 . S
C3234 H3253 0.913 . S
C3235 H3211 0.950 . S
C3235 C3234 1.524 . S
C3235 C3236 1.415 . S
C3236 H3212 0.950 . S
C3236 C3231 1.363 . S
C3236 C3235 1.415 . S
C3237 H3213 0.951 . S
C3237 C3238 1.366 . S
C3237 C3239 1.388 . S
C3238 C3237 1.366 . S
C3238 C3242 1.385 . S
C3239 H3214 0.951 . S
C3239 C3237 1.388 . S
C3239 C3240 1.366 . S
C3240 C3239 1.366 . S
C3240 C3241 1.414 . S
C3240 C3243 1.499 . S
C3241 H3215 0.950 . S
C3241 C3240 1.414 . S
C3241 C3242 1.374 . S
C3242 H3216 0.950 . S
C3242 C3238 1.385 . S
C3242 C3241 1.374 . S
C3243 C3240 1.499 . S
C3243 C3244 1.373 . S
C3243 C3245 1.389 . S
C3244 H3217 0.950 . S
C3244 C3230 1.377 . S
C3244 C3243 1.373 . S
C3245 C3229 1.377 . S
C3245 C3243 1.389 . S
C3245 C3246 1.524 . S
C3246 C3245 1.524 . S
C3246 C3247 1.397 . S
C3246 C3251 1.363 . S
C3247 H3218 0.950 . S
C3247 C3246 1.397 . S
C3247 C3248 1.334 . S
C3248 H3219 0.950 . S
C3248 C3247 1.334 . S
C3248 C3249 1.287 . S
C3249 C3248 1.287 . S
C3249 C3250 1.524 . S
C3249 H3252 0.999 . S
C3250 H3220 0.950 . S
C3250 C3249 1.524 . S
C3250 C3251 1.415 . S
C3251 H3221 0.950 . S
C3251 C3246 1.363 . S
C3251 C3250 1.415 . S
H3252 C3249 0.999 . S
H3253 C3234 0.913 . S
H3254 C3272 0.951 . S
H3255 C3274 0.951 . S
H3256 C3276 0.950 . S
H3257 C3277 0.950 . S
H3258 C3279 0.950 . S
H3259 C3282 0.950 . S
H3260 C3283 0.950 . S
H3261 C3285 0.950 . S
H3262 C3286 0.950 . S
H3263 C3287 0.951 . S
H3264 C3289 0.951 . S
H3265 C3291 0.950 . S
H3266 C3292 0.950 . S
H3267 C3294 0.950 . S
H3268 C3297 0.950 . S
H3269 C3298 0.950 . S
H3270 C3300 0.950 . S
H3271 C3301 0.950 . S
C3272 H3254 0.951 . S
C3272 C3273 1.366 . S
C3272 C3274 1.388 . S
C3273 C3272 1.366 . S
C3273 C3277 1.385 . S
C3274 H3255 0.951 . S
C3274 C3272 1.388 . S
C3274 C3275 1.366 . S
C3275 C3274 1.366 . S
C3275 C3276 1.414 . S
C3275 C3278 1.499 . S
C3276 H3256 0.950 . S
C3276 C3275 1.414 . S
C3276 C3277 1.374 . S
C3277 H3257 0.950 . S
C3277 C3273 1.385 . S
C3277 C3276 1.374 . S
C3278 C3275 1.499 . S
C3278 C3279 1.373 . S
C3278 C3280 1.389 . S
C3279 H3258 0.950 . S
C3279 C3278 1.373 . S
C3279 C3295 1.377 . S
C3280 C3278 1.389 . S
C3280 C3281 1.524 . S
C3280 C3294 1.377 . S
C3281 C3280 1.524 . S
C3281 C3282 1.397 . S
C3281 C3286 1.363 . S
C3282 H3259 0.950 . S
C3282 C3281 1.397 . S
C3282 C3283 1.334 . S
C3283 H3260 0.950 . S
C3283 C3282 1.334 . S
C3283 C3284 1.287 . S
C3284 C3283 1.287 . S
C3284 C3285 1.524 . S
C3284 H3303 0.913 . S
C3285 H3261 0.950 . S
C3285 C3284 1.524 . S
C3285 C3286 1.415 . S
C3286 H3262 0.950 . S
C3286 C3281 1.363 . S
C3286 C3285 1.415 . S
C3287 H3263 0.951 . S
C3287 C3288 1.366 . S
C3287 C3289 1.388 . S
C3288 C3287 1.366 . S
C3288 C3292 1.385 . S
C3289 H3264 0.951 . S
C3289 C3287 1.388 . S
C3289 C3290 1.366 . S
C3290 C3289 1.366 . S
C3290 C3291 1.414 . S
C3290 C3293 1.499 . S
C3291 H3265 0.950 . S
C3291 C3290 1.414 . S
C3291 C3292 1.374 . S
C3292 H3266 0.950 . S
C3292 C3288 1.385 . S
C3292 C3291 1.374 . S
C3293 C3290 1.499 . S
C3293 C3294 1.373 . S
C3293 C3295 1.389 . S
C3294 H3267 0.950 . S
C3294 C3280 1.377 . S
C3294 C3293 1.373 . S
C3295 C3279 1.377 . S
C3295 C3293 1.389 . S
C3295 C3296 1.524 . S
C3296 C3295 1.524 . S
C3296 C3297 1.397 . S
C3296 C3301 1.363 . S
C3297 H3268 0.950 . S
C3297 C3296 1.397 . S
C3297 C3298 1.334 . S
C3298 H3269 0.950 . S
C3298 C3297 1.334 . S
C3298 C3299 1.287 . S
C3299 C3298 1.287 . S
C3299 C3300 1.524 . S
C3299 H3302 0.999 . S
C3300 H3270 0.950 . S
C3300 C3299 1.524 . S
C3300 C3301 1.415 . S
C3301 H3271 0.950 . S
C3301 C3296 1.363 . S
C3301 C3300 1.415 . S
H3302 C3299 0.999 . S
H3303 C3284 0.913 . S
H3304 C3322 0.951 . S
H3305 C3324 0.951 . S
H3306 C3326 0.950 . S
H3307 C3327 0.950 . S
H3308 C3329 0.950 . S
H3309 C3332 0.950 . S
H3310 C3333 0.950 . S
H3311 C3335 0.950 . S
H3312 C3336 0.950 . S
H3313 C3337 0.951 . S
H3314 C3339 0.951 . S
H3315 C3341 0.950 . S
H3316 C3342 0.950 . S
H3317 C3344 0.950 . S
H3318 C3347 0.950 . S
H3319 C3348 0.950 . S
H3320 C3350 0.950 . S
H3321 C3351 0.950 . S
C3322 H3304 0.951 . S
C3322 C3323 1.366 . S
C3322 C3324 1.388 . S
C3323 C3322 1.366 . S
C3323 C3327 1.385 . S
C3324 H3305 0.951 . S
C3324 C3322 1.388 . S
C3324 C3325 1.366 . S
C3325 C3324 1.366 . S
C3325 C3326 1.414 . S
C3325 C3328 1.499 . S
C3326 H3306 0.950 . S
C3326 C3325 1.414 . S
C3326 C3327 1.374 . S
C3327 H3307 0.950 . S
C3327 C3323 1.385 . S
C3327 C3326 1.374 . S
C3328 C3325 1.499 . S
C3328 C3329 1.373 . S
C3328 C3330 1.389 . S
C3329 H3308 0.950 . S
C3329 C3328 1.373 . S
C3329 C3345 1.377 . S
C3330 C3328 1.389 . S
C3330 C3331 1.524 . S
C3330 C3344 1.377 . S
C3331 C3330 1.524 . S
C3331 C3332 1.397 . S
C3331 C3336 1.363 . S
C3332 H3309 0.950 . S
C3332 C3331 1.397 . S
C3332 C3333 1.334 . S
C3333 H3310 0.950 . S
C3333 C3332 1.334 . S
C3333 C3334 1.287 . S
C3334 C3333 1.287 . S
C3334 C3335 1.524 . S
C3334 H3353 0.913 . S
C3335 H3311 0.950 . S
C3335 C3334 1.524 . S
C3335 C3336 1.415 . S
C3336 H3312 0.950 . S
C3336 C3331 1.363 . S
C3336 C3335 1.415 . S
C3337 H3313 0.951 . S
C3337 C3338 1.366 . S
C3337 C3339 1.388 . S
C3338 C3337 1.366 . S
C3338 C3342 1.385 . S
C3339 H3314 0.951 . S
C3339 C3337 1.388 . S
C3339 C3340 1.366 . S
C3340 C3339 1.366 . S
C3340 C3341 1.414 . S
C3340 C3343 1.499 . S
C3341 H3315 0.950 . S
C3341 C3340 1.414 . S
C3341 C3342 1.374 . S
C3342 H3316 0.950 . S
C3342 C3338 1.385 . S
C3342 C3341 1.374 . S
C3343 C3340 1.499 . S
C3343 C3344 1.373 . S
C3343 C3345 1.389 . S
C3344 H3317 0.950 . S
C3344 C3330 1.377 . S
C3344 C3343 1.373 . S
C3345 C3329 1.377 . S
C3345 C3343 1.389 . S
C3345 C3346 1.524 . S
C3346 C3345 1.524 . S
C3346 C3347 1.397 . S
C3346 C3351 1.363 . S
C3347 H3318 0.950 . S
C3347 C3346 1.397 . S
C3347 C3348 1.334 . S
C3348 H3319 0.950 . S
C3348 C3347 1.334 . S
C3348 C3349 1.287 . S
C3349 C3348 1.287 . S
C3349 C3350 1.524 . S
C3349 H3352 0.999 . S
C3350 H3320 0.950 . S
C3350 C3349 1.524 . S
C3350 C3351 1.415 . S
C3351 H3321 0.950 . S
C3351 C3346 1.363 . S
C3351 C3350 1.415 . S
H3352 C3349 0.999 . S
H3353 C3334 0.913 . S
H3354 C3372 0.951 . S
H3355 C3374 0.951 . S
H3356 C3376 0.950 . S
H3357 C3377 0.950 . S
H3358 C3379 0.950 . S
H3359 C3382 0.950 . S
H3360 C3383 0.950 . S
H3361 C3385 0.950 . S
H3362 C3386 0.950 . S
H3363 C3387 0.951 . S
H3364 C3389 0.951 . S
H3365 C3391 0.950 . S
H3366 C3392 0.950 . S
H3367 C3394 0.950 . S
H3368 C3397 0.950 . S
H3369 C3398 0.950 . S
H3370 C3400 0.950 . S
H3371 C3401 0.950 . S
C3372 H3354 0.951 . S
C3372 C3373 1.366 . S
C3372 C3374 1.388 . S
C3373 C3372 1.366 . S
C3373 C3377 1.385 . S
C3374 H3355 0.951 . S
C3374 C3372 1.388 . S
C3374 C3375 1.366 . S
C3375 C3374 1.366 . S
C3375 C3376 1.414 . S
C3375 C3378 1.499 . S
C3376 H3356 0.950 . S
C3376 C3375 1.414 . S
C3376 C3377 1.374 . S
C3377 H3357 0.950 . S
C3377 C3373 1.385 . S
C3377 C3376 1.374 . S
C3378 C3375 1.499 . S
C3378 C3379 1.373 . S
C3378 C3380 1.389 . S
C3379 H3358 0.950 . S
C3379 C3378 1.373 . S
C3379 C3395 1.377 . S
C3380 C3378 1.389 . S
C3380 C3381 1.524 . S
C3380 C3394 1.377 . S
C3381 C3380 1.524 . S
C3381 C3382 1.397 . S
C3381 C3386 1.363 . S
C3382 H3359 0.950 . S
C3382 C3381 1.397 . S
C3382 C3383 1.334 . S
C3383 H3360 0.950 . S
C3383 C3382 1.334 . S
C3383 C3384 1.287 . S
C3384 C3383 1.287 . S
C3384 C3385 1.524 . S
C3384 H3403 0.913 . S
C3385 H3361 0.950 . S
C3385 C3384 1.524 . S
C3385 C3386 1.415 . S
C3386 H3362 0.950 . S
C3386 C3381 1.363 . S
C3386 C3385 1.415 . S
C3387 H3363 0.951 . S
C3387 C3388 1.366 . S
C3387 C3389 1.388 . S
C3388 C3387 1.366 . S
C3388 C3392 1.385 . S
C3389 H3364 0.951 . S
C3389 C3387 1.388 . S
C3389 C3390 1.366 . S
C3390 C3389 1.366 . S
C3390 C3391 1.414 . S
C3390 C3393 1.499 . S
C3391 H3365 0.950 . S
C3391 C3390 1.414 . S
C3391 C3392 1.374 . S
C3392 H3366 0.950 . S
C3392 C3388 1.385 . S
C3392 C3391 1.374 . S
C3393 C3390 1.499 . S
C3393 C3394 1.373 . S
C3393 C3395 1.389 . S
C3394 H3367 0.950 . S
C3394 C3380 1.377 . S
C3394 C3393 1.373 . S
C3395 C3379 1.377 . S
C3395 C3393 1.389 . S
C3395 C3396 1.524 . S
C3396 C3395 1.524 . S
C3396 C3397 1.397 . S
C3396 C3401 1.363 . S
C3397 H3368 0.950 . S
C3397 C3396 1.397 . S
C3397 C3398 1.334 . S
C3398 H3369 0.950 . S
C3398 C3397 1.334 . S
C3398 C3399 1.287 . S
C3399 C3398 1.287 . S
C3399 C3400 1.524 . S
C3399 H3402 0.999 . S
C3400 H3370 0.950 . S
C3400 C3399 1.524 . S
C3400 C3401 1.415 . S
C3401 H3371 0.950 . S
C3401 C3396 1.363 . S
C3401 C3400 1.415 . S
H3402 C3399 0.999 . S
H3403 C3384 0.913 . S
H3404 C3422 0.951 . S
H3405 C3424 0.951 . S
H3406 C3426 0.950 . S
H3407 C3427 0.950 . S
H3408 C3429 0.950 . S
H3409 C3432 0.950 . S
H3410 C3433 0.950 . S
H3411 C3435 0.950 . S
H3412 C3436 0.950 . S
H3413 C3437 0.951 . S
H3414 C3439 0.951 . S
H3415 C3441 0.950 . S
H3416 C3442 0.950 . S
H3417 C3444 0.950 . S
H3418 C3447 0.950 . S
H3419 C3448 0.950 . S
H3420 C3450 0.950 . S
H3421 C3451 0.950 . S
C3422 H3404 0.951 . S
C3422 C3423 1.366 . S
C3422 C3424 1.388 . S
C3423 C3422 1.366 . S
C3423 C3427 1.385 . S
C3424 H3405 0.951 . S
C3424 C3422 1.388 . S
C3424 C3425 1.366 . S
C3425 C3424 1.366 . S
C3425 C3426 1.414 . S
C3425 C3428 1.499 . S
C3426 H3406 0.950 . S
C3426 C3425 1.414 . S
C3426 C3427 1.374 . S
C3427 H3407 0.950 . S
C3427 C3423 1.385 . S
C3427 C3426 1.374 . S
C3428 C3425 1.499 . S
C3428 C3429 1.373 . S
C3428 C3430 1.389 . S
C3429 H3408 0.950 . S
C3429 C3428 1.373 . S
C3429 C3445 1.377 . S
C3430 C3428 1.389 . S
C3430 C3431 1.524 . S
C3430 C3444 1.377 . S
C3431 C3430 1.524 . S
C3431 C3432 1.397 . S
C3431 C3436 1.363 . S
C3432 H3409 0.950 . S
C3432 C3431 1.397 . S
C3432 C3433 1.334 . S
C3433 H3410 0.950 . S
C3433 C3432 1.334 . S
C3433 C3434 1.287 . S
C3434 C3433 1.287 . S
C3434 C3435 1.524 . S
C3434 H3453 0.913 . S
C3435 H3411 0.950 . S
C3435 C3434 1.524 . S
C3435 C3436 1.415 . S
C3436 H3412 0.950 . S
C3436 C3431 1.363 . S
C3436 C3435 1.415 . S
C3437 H3413 0.951 . S
C3437 C3438 1.366 . S
C3437 C3439 1.388 . S
C3438 C3437 1.366 . S
C3438 C3442 1.385 . S
C3439 H3414 0.951 . S
C3439 C3437 1.388 . S
C3439 C3440 1.366 . S
C3440 C3439 1.366 . S
C3440 C3441 1.414 . S
C3440 C3443 1.499 . S
C3441 H3415 0.950 . S
C3441 C3440 1.414 . S
C3441 C3442 1.374 . S
C3442 H3416 0.950 . S
C3442 C3438 1.385 . S
C3442 C3441 1.374 . S
C3443 C3440 1.499 . S
C3443 C3444 1.373 . S
C3443 C3445 1.389 . S
C3444 H3417 0.950 . S
C3444 C3430 1.377 . S
C3444 C3443 1.373 . S
C3445 C3429 1.377 . S
C3445 C3443 1.389 . S
C3445 C3446 1.524 . S
C3446 C3445 1.524 . S
C3446 C3447 1.397 . S
C3446 C3451 1.363 . S
C3447 H3418 0.950 . S
C3447 C3446 1.397 . S
C3447 C3448 1.334 . S
C3448 H3419 0.950 . S
C3448 C3447 1.334 . S
C3448 C3449 1.287 . S
C3449 C3448 1.287 . S
C3449 C3450 1.524 . S
C3449 H3452 0.999 . S
C3450 H3420 0.950 . S
C3450 C3449 1.524 . S
C3450 C3451 1.415 . S
C3451 H3421 0.950 . S
C3451 C3446 1.363 . S
C3451 C3450 1.415 . S
H3452 C3449 0.999 . S
H3453 C3434 0.913 . S
H3454 C3472 0.951 . S
H3455 C3474 0.951 . S
H3456 C3476 0.950 . S
H3457 C3477 0.950 . S
H3458 C3479 0.950 . S
H3459 C3482 0.950 . S
H3460 C3483 0.950 . S
H3461 C3485 0.950 . S
H3462 C3486 0.950 . S
H3463 C3487 0.951 . S
H3464 C3489 0.951 . S
H3465 C3491 0.950 . S
H3466 C3492 0.950 . S
H3467 C3494 0.950 . S
H3468 C3497 0.950 . S
H3469 C3498 0.950 . S
H3470 C3500 0.950 . S
H3471 C3501 0.950 . S
C3472 H3454 0.951 . S
C3472 C3473 1.366 . S
C3472 C3474 1.388 . S
C3473 C3472 1.366 . S
C3473 C3477 1.385 . S
C3474 H3455 0.951 . S
C3474 C3472 1.388 . S
C3474 C3475 1.366 . S
C3475 C3474 1.366 . S
C3475 C3476 1.414 . S
C3475 C3478 1.499 . S
C3476 H3456 0.950 . S
C3476 C3475 1.414 . S
C3476 C3477 1.374 . S
C3477 H3457 0.950 . S
C3477 C3473 1.385 . S
C3477 C3476 1.374 . S
C3478 C3475 1.499 . S
C3478 C3479 1.373 . S
C3478 C3480 1.389 . S
C3479 H3458 0.950 . S
C3479 C3478 1.373 . S
C3479 C3495 1.377 . S
C3480 C3478 1.389 . S
C3480 C3481 1.524 . S
C3480 C3494 1.377 . S
C3481 C3480 1.524 . S
C3481 C3482 1.397 . S
C3481 C3486 1.363 . S
C3482 H3459 0.950 . S
C3482 C3481 1.397 . S
C3482 C3483 1.334 . S
C3483 H3460 0.950 . S
C3483 C3482 1.334 . S
C3483 C3484 1.287 . S
C3484 C3483 1.287 . S
C3484 C3485 1.524 . S
C3484 H3503 0.913 . S
C3485 H3461 0.950 . S
C3485 C3484 1.524 . S
C3485 C3486 1.415 . S
C3486 H3462 0.950 . S
C3486 C3481 1.363 . S
C3486 C3485 1.415 . S
C3487 H3463 0.951 . S
C3487 C3488 1.366 . S
C3487 C3489 1.388 . S
C3488 C3487 1.366 . S
C3488 C3492 1.385 . S
C3489 H3464 0.951 . S
C3489 C3487 1.388 . S
C3489 C3490 1.366 . S
C3490 C3489 1.366 . S
C3490 C3491 1.414 . S
C3490 C3493 1.499 . S
C3491 H3465 0.950 . S
C3491 C3490 1.414 . S
C3491 C3492 1.374 . S
C3492 H3466 0.950 . S
C3492 C3488 1.385 . S
C3492 C3491 1.374 . S
C3493 C3490 1.499 . S
C3493 C3494 1.373 . S
C3493 C3495 1.389 . S
C3494 H3467 0.950 . S
C3494 C3480 1.377 . S
C3494 C3493 1.373 . S
C3495 C3479 1.377 . S
C3495 C3493 1.389 . S
C3495 C3496 1.524 . S
C3496 C3495 1.524 . S
C3496 C3497 1.397 . S
C3496 C3501 1.363 . S
C3497 H3468 0.950 . S
C3497 C3496 1.397 . S
C3497 C3498 1.334 . S
C3498 H3469 0.950 . S
C3498 C3497 1.334 . S
C3498 C3499 1.287 . S
C3499 C3498 1.287 . S
C3499 C3500 1.524 . S
C3499 H3502 0.999 . S
C3500 H3470 0.950 . S
C3500 C3499 1.524 . S
C3500 C3501 1.415 . S
C3501 H3471 0.950 . S
C3501 C3496 1.363 . S
C3501 C3500 1.415 . S
H3502 C3499 0.999 . S
H3503 C3484 0.913 . S
H3504 C3522 0.951 . S
H3505 C3524 0.951 . S
H3506 C3526 0.950 . S
H3507 C3527 0.950 . S
H3508 C3529 0.950 . S
H3509 C3532 0.950 . S
H3510 C3533 0.950 . S
H3511 C3535 0.950 . S
H3512 C3536 0.950 . S
H3513 C3537 0.951 . S
H3514 C3539 0.951 . S
H3515 C3541 0.950 . S
H3516 C3542 0.950 . S
H3517 C3544 0.950 . S
H3518 C3547 0.950 . S
H3519 C3548 0.950 . S
H3520 C3550 0.950 . S
H3521 C3551 0.950 . S
C3522 H3504 0.951 . S
C3522 C3523 1.366 . S
C3522 C3524 1.388 . S
C3523 C3522 1.366 . S
C3523 C3527 1.385 . S
C3524 H3505 0.951 . S
C3524 C3522 1.388 . S
C3524 C3525 1.366 . S
C3525 C3524 1.366 . S
C3525 C3526 1.414 . S
C3525 C3528 1.499 . S
C3526 H3506 0.950 . S
C3526 C3525 1.414 . S
C3526 C3527 1.374 . S
C3527 H3507 0.950 . S
C3527 C3523 1.385 . S
C3527 C3526 1.374 . S
C3528 C3525 1.499 . S
C3528 C3529 1.373 . S
C3528 C3530 1.389 . S
C3529 H3508 0.950 . S
C3529 C3528 1.373 . S
C3529 C3545 1.377 . S
C3530 C3528 1.389 . S
C3530 C3531 1.524 . S
C3530 C3544 1.377 . S
C3531 C3530 1.524 . S
C3531 C3532 1.397 . S
C3531 C3536 1.363 . S
C3532 H3509 0.950 . S
C3532 C3531 1.397 . S
C3532 C3533 1.334 . S
C3533 H3510 0.950 . S
C3533 C3532 1.334 . S
C3533 C3534 1.287 . S
C3534 C3533 1.287 . S
C3534 C3535 1.524 . S
C3534 H3553 0.913 . S
C3535 H3511 0.950 . S
C3535 C3534 1.524 . S
C3535 C3536 1.415 . S
C3536 H3512 0.950 . S
C3536 C3531 1.363 . S
C3536 C3535 1.415 . S
C3537 H3513 0.951 . S
C3537 C3538 1.366 . S
C3537 C3539 1.388 . S
C3538 C3537 1.366 . S
C3538 C3542 1.385 . S
C3539 H3514 0.951 . S
C3539 C3537 1.388 . S
C3539 C3540 1.366 . S
C3540 C3539 1.366 . S
C3540 C3541 1.414 . S
C3540 C3543 1.499 . S
C3541 H3515 0.950 . S
C3541 C3540 1.414 . S
C3541 C3542 1.374 . S
C3542 H3516 0.950 . S
C3542 C3538 1.385 . S
C3542 C3541 1.374 . S
C3543 C3540 1.499 . S
C3543 C3544 1.373 . S
C3543 C3545 1.389 . S
C3544 H3517 0.950 . S
C3544 C3530 1.377 . S
C3544 C3543 1.373 . S
C3545 C3529 1.377 . S
C3545 C3543 1.389 . S
C3545 C3546 1.524 . S
C3546 C3545 1.524 . S
C3546 C3547 1.397 . S
C3546 C3551 1.363 . S
C3547 H3518 0.950 . S
C3547 C3546 1.397 . S
C3547 C3548 1.334 . S
C3548 H3519 0.950 . S
C3548 C3547 1.334 . S
C3548 C3549 1.287 . S
C3549 C3548 1.287 . S
C3549 C3550 1.524 . S
C3549 H3552 0.999 . S
C3550 H3520 0.950 . S
C3550 C3549 1.524 . S
C3550 C3551 1.415 . S
C3551 H3521 0.950 . S
C3551 C3546 1.363 . S
C3551 C3550 1.415 . S
H3552 C3549 0.999 . S
H3553 C3534 0.913 . S
H3554 C3572 0.951 . S
H3555 C3574 0.951 . S
H3556 C3576 0.950 . S
H3557 C3577 0.950 . S
H3558 C3579 0.950 . S
H3559 C3582 0.950 . S
H3560 C3583 0.950 . S
H3561 C3585 0.950 . S
H3562 C3586 0.950 . S
H3563 C3587 0.951 . S
H3564 C3589 0.951 . S
H3565 C3591 0.950 . S
H3566 C3592 0.950 . S
H3567 C3594 0.950 . S
H3568 C3597 0.950 . S
H3569 C3598 0.950 . S
H3570 C3600 0.950 . S
H3571 C3601 0.950 . S
C3572 H3554 0.951 . S
C3572 C3573 1.366 . S
C3572 C3574 1.388 . S
C3573 C3572 1.366 . S
C3573 C3577 1.385 . S
C3574 H3555 0.951 . S
C3574 C3572 1.388 . S
C3574 C3575 1.366 . S
C3575 C3574 1.366 . S
C3575 C3576 1.414 . S
C3575 C3578 1.499 . S
C3576 H3556 0.950 . S
C3576 C3575 1.414 . S
C3576 C3577 1.374 . S
C3577 H3557 0.950 . S
C3577 C3573 1.385 . S
C3577 C3576 1.374 . S
C3578 C3575 1.499 . S
C3578 C3579 1.373 . S
C3578 C3580 1.389 . S
C3579 H3558 0.950 . S
C3579 C3578 1.373 . S
C3579 C3595 1.377 . S
C3580 C3578 1.389 . S
C3580 C3581 1.524 . S
C3580 C3594 1.377 . S
C3581 C3580 1.524 . S
C3581 C3582 1.397 . S
C3581 C3586 1.363 . S
C3582 H3559 0.950 . S
C3582 C3581 1.397 . S
C3582 C3583 1.334 . S
C3583 H3560 0.950 . S
C3583 C3582 1.334 . S
C3583 C3584 1.287 . S
C3584 C3583 1.287 . S
C3584 C3585 1.524 . S
C3584 H3603 0.913 . S
C3585 H3561 0.950 . S
C3585 C3584 1.524 . S
C3585 C3586 1.415 . S
C3586 H3562 0.950 . S
C3586 C3581 1.363 . S
C3586 C3585 1.415 . S
C3587 H3563 0.951 . S
C3587 C3588 1.366 . S
C3587 C3589 1.388 . S
C3588 C3587 1.366 . S
C3588 C3592 1.385 . S
C3589 H3564 0.951 . S
C3589 C3587 1.388 . S
C3589 C3590 1.366 . S
C3590 C3589 1.366 . S
C3590 C3591 1.414 . S
C3590 C3593 1.499 . S
C3591 H3565 0.950 . S
C3591 C3590 1.414 . S
C3591 C3592 1.374 . S
C3592 H3566 0.950 . S
C3592 C3588 1.385 . S
C3592 C3591 1.374 . S
C3593 C3590 1.499 . S
C3593 C3594 1.373 . S
C3593 C3595 1.389 . S
C3594 H3567 0.950 . S
C3594 C3580 1.377 . S
C3594 C3593 1.373 . S
C3595 C3579 1.377 . S
C3595 C3593 1.389 . S
C3595 C3596 1.524 . S
C3596 C3595 1.524 . S
C3596 C3597 1.397 . S
C3596 C3601 1.363 . S
C3597 H3568 0.950 . S
C3597 C3596 1.397 . S
C3597 C3598 1.334 . S
C3598 H3569 0.950 . S
C3598 C3597 1.334 . S
C3598 C3599 1.287 . S
C3599 C3598 1.287 . S
C3599 C3600 1.524 . S
C3599 H3602 0.999 . S
C3600 H3570 0.950 . S
C3600 C3599 1.524 . S
C3600 C3601 1.415 . S
C3601 H3571 0.950 . S
C3601 C3596 1.363 . S
C3601 C3600 1.415 . S
H3602 C3599 0.999 . S
H3603 C3584 0.913 . S
H3604 C3622 0.951 . S
H3605 C3624 0.951 . S
H3606 C3626 0.950 . S
H3607 C3627 0.950 . S
H3608 C3629 0.950 . S
H3609 C3632 0.950 . S
H3610 C3633 0.950 . S
H3611 C3635 0.950 . S
H3612 C3636 0.950 1_655 S
H3613 C3637 0.951 . S
H3614 C3639 0.951 . S
H3615 C3641 0.950 . S
H3616 C3642 0.950 . S
H3617 C3644 0.950 . S
H3618 C3647 0.950 . S
H3619 C3648 0.950 . S
H3620 C3650 0.950 . S
H3621 C3651 0.950 . S
C3622 H3604 0.951 . S
C3622 C3623 1.366 . S
C3622 C3624 1.388 . S
C3623 C3622 1.366 . S
C3623 C3627 1.385 . S
C3624 H3605 0.951 . S
C3624 C3622 1.388 . S
C3624 C3625 1.366 . S
C3625 C3624 1.366 . S
C3625 C3626 1.414 . S
C3625 C3628 1.499 . S
C3626 H3606 0.950 . S
C3626 C3625 1.414 . S
C3626 C3627 1.374 . S
C3627 H3607 0.950 . S
C3627 C3623 1.385 . S
C3627 C3626 1.374 . S
C3628 C3625 1.499 . S
C3628 C3629 1.373 . S
C3628 C3630 1.389 . S
C3629 H3608 0.950 . S
C3629 C3628 1.373 . S
C3629 C3645 1.377 . S
C3630 C3628 1.389 . S
C3630 C3631 1.524 1_655 S
C3630 C3644 1.377 . S
C3631 C3630 1.524 1_455 S
C3631 C3632 1.397 . S
C3631 C3636 1.363 . S
C3632 H3609 0.950 . S
C3632 C3631 1.397 . S
C3632 C3633 1.334 . S
C3633 H3610 0.950 . S
C3633 C3632 1.334 . S
C3633 C3634 1.287 . S
C3634 C3633 1.287 . S
C3634 C3635 1.524 . S
C3634 H3653 0.913 . S
C3635 H3611 0.950 . S
C3635 C3634 1.524 . S
C3635 C3636 1.415 . S
C3636 H3612 0.950 1_455 S
C3636 C3631 1.363 . S
C3636 C3635 1.415 . S
C3637 H3613 0.951 . S
C3637 C3638 1.366 . S
C3637 C3639 1.388 . S
C3638 C3637 1.366 . S
C3638 C3642 1.385 . S
C3639 H3614 0.951 . S
C3639 C3637 1.388 . S
C3639 C3640 1.366 . S
C3640 C3639 1.366 . S
C3640 C3641 1.414 . S
C3640 C3643 1.499 . S
C3641 H3615 0.950 . S
C3641 C3640 1.414 . S
C3641 C3642 1.374 . S
C3642 H3616 0.950 . S
C3642 C3638 1.385 . S
C3642 C3641 1.374 . S
C3643 C3640 1.499 . S
C3643 C3644 1.373 . S
C3643 C3645 1.389 . S
C3644 H3617 0.950 . S
C3644 C3630 1.377 . S
C3644 C3643 1.373 . S
C3645 C3629 1.377 . S
C3645 C3643 1.389 . S
C3645 C3646 1.524 . S
C3646 C3645 1.524 . S
C3646 C3647 1.397 . S
C3646 C3651 1.363 . S
C3647 H3618 0.950 . S
C3647 C3646 1.397 . S
C3647 C3648 1.334 . S
C3648 H3619 0.950 . S
C3648 C3647 1.334 . S
C3648 C3649 1.287 . S
C3649 C3648 1.287 . S
C3649 C3650 1.524 . S
C3649 H3652 0.999 . S
C3650 H3620 0.950 . S
C3650 C3649 1.524 . S
C3650 C3651 1.415 . S
C3651 H3621 0.950 . S
C3651 C3646 1.363 . S
C3651 C3650 1.415 . S
H3652 C3649 0.999 . S
H3653 C3634 0.913 . S
H3654 C3672 0.951 . S
H3655 C3674 0.951 . S
H3656 C3676 0.950 . S
H3657 C3677 0.950 . S
H3658 C3679 0.950 . S
H3659 C3682 0.950 . S
H3660 C3683 0.950 . S
H3661 C3685 0.950 . S
H3662 C3686 0.950 . S
H3663 C3687 0.951 . S
H3664 C3689 0.951 . S
H3665 C3691 0.950 . S
H3666 C3692 0.950 . S
H3667 C3694 0.950 . S
H3668 C3697 0.950 . S
H3669 C3698 0.950 . S
H3670 C3700 0.950 . S
H3671 C3701 0.950 . S
C3672 H3654 0.951 . S
C3672 C3673 1.366 . S
C3672 C3674 1.388 . S
C3673 C3672 1.366 . S
C3673 C3677 1.385 . S
C3674 H3655 0.951 . S
C3674 C3672 1.388 . S
C3674 C3675 1.366 . S
C3675 C3674 1.366 . S
C3675 C3676 1.414 . S
C3675 C3678 1.499 . S
C3676 H3656 0.950 . S
C3676 C3675 1.414 . S
C3676 C3677 1.374 . S
C3677 H3657 0.950 . S
C3677 C3673 1.385 . S
C3677 C3676 1.374 . S
C3678 C3675 1.499 . S
C3678 C3679 1.373 . S
C3678 C3680 1.389 . S
C3679 H3658 0.950 . S
C3679 C3678 1.373 . S
C3679 C3695 1.377 . S
C3680 C3678 1.389 . S
C3680 C3681 1.524 . S
C3680 C3694 1.377 . S
C3681 C3680 1.524 . S
C3681 C3682 1.397 . S
C3681 C3686 1.363 . S
C3682 H3659 0.950 . S
C3682 C3681 1.397 . S
C3682 C3683 1.334 . S
C3683 H3660 0.950 . S
C3683 C3682 1.334 . S
C3683 C3684 1.287 . S
C3684 C3683 1.287 . S
C3684 C3685 1.524 . S
C3684 H3703 0.913 . S
C3685 H3661 0.950 . S
C3685 C3684 1.524 . S
C3685 C3686 1.415 . S
C3686 H3662 0.950 . S
C3686 C3681 1.363 . S
C3686 C3685 1.415 . S
C3687 H3663 0.951 . S
C3687 C3688 1.366 . S
C3687 C3689 1.388 . S
C3688 C3687 1.366 . S
C3688 C3692 1.385 . S
C3689 H3664 0.951 . S
C3689 C3687 1.388 . S
C3689 C3690 1.366 . S
C3690 C3689 1.366 . S
C3690 C3691 1.414 . S
C3690 C3693 1.499 . S
C3691 H3665 0.950 . S
C3691 C3690 1.414 . S
C3691 C3692 1.374 . S
C3692 H3666 0.950 . S
C3692 C3688 1.385 . S
C3692 C3691 1.374 . S
C3693 C3690 1.499 . S
C3693 C3694 1.373 . S
C3693 C3695 1.389 . S
C3694 H3667 0.950 . S
C3694 C3680 1.377 . S
C3694 C3693 1.373 . S
C3695 C3679 1.377 . S
C3695 C3693 1.389 . S
C3695 C3696 1.524 . S
C3696 C3695 1.524 . S
C3696 C3697 1.397 . S
C3696 C3701 1.363 . S
C3697 H3668 0.950 . S
C3697 C3696 1.397 . S
C3697 C3698 1.334 . S
C3698 H3669 0.950 . S
C3698 C3697 1.334 . S
C3698 C3699 1.287 . S
C3699 C3698 1.287 . S
C3699 C3700 1.524 . S
C3699 H3702 0.999 . S
C3700 H3670 0.950 . S
C3700 C3699 1.524 . S
C3700 C3701 1.415 . S
C3701 H3671 0.950 . S
C3701 C3696 1.363 . S
C3701 C3700 1.415 . S
H3702 C3699 0.999 . S
H3703 C3684 0.913 . S
H3704 C3722 0.951 . S
H3705 C3724 0.951 . S
H3706 C3726 0.950 . S
H3707 C3727 0.950 . S
H3708 C3729 0.950 . S
H3709 C3732 0.950 . S
H3710 C3733 0.950 . S
H3711 C3735 0.950 . S
H3712 C3736 0.950 . S
H3713 C3737 0.951 . S
H3714 C3739 0.951 . S
H3715 C3741 0.950 . S
H3716 C3742 0.950 . S
H3717 C3744 0.950 . S
H3718 C3747 0.950 . S
H3719 C3748 0.950 . S
H3720 C3750 0.950 . S
H3721 C3751 0.950 . S
C3722 H3704 0.951 . S
C3722 C3723 1.366 . S
C3722 C3724 1.388 . S
C3723 C3722 1.366 . S
C3723 C3727 1.385 . S
C3724 H3705 0.951 . S
C3724 C3722 1.388 . S
C3724 C3725 1.366 . S
C3725 C3724 1.366 . S
C3725 C3726 1.414 . S
C3725 C3728 1.499 . S
C3726 H3706 0.950 . S
C3726 C3725 1.414 . S
C3726 C3727 1.374 . S
C3727 H3707 0.950 . S
C3727 C3723 1.385 . S
C3727 C3726 1.374 . S
C3728 C3725 1.499 . S
C3728 C3729 1.373 . S
C3728 C3730 1.389 . S
C3729 H3708 0.950 . S
C3729 C3728 1.373 . S
C3729 C3745 1.377 . S
C3730 C3728 1.389 . S
C3730 C3731 1.524 . S
C3730 C3744 1.377 . S
C3731 C3730 1.524 . S
C3731 C3732 1.397 . S
C3731 C3736 1.363 . S
C3732 H3709 0.950 . S
C3732 C3731 1.397 . S
C3732 C3733 1.334 . S
C3733 H3710 0.950 . S
C3733 C3732 1.334 . S
C3733 C3734 1.287 . S
C3734 C3733 1.287 . S
C3734 C3735 1.524 . S
C3734 H3753 0.913 . S
C3735 H3711 0.950 . S
C3735 C3734 1.524 . S
C3735 C3736 1.415 . S
C3736 H3712 0.950 . S
C3736 C3731 1.363 . S
C3736 C3735 1.415 . S
C3737 H3713 0.951 . S
C3737 C3738 1.366 . S
C3737 C3739 1.388 . S
C3738 C3737 1.366 . S
C3738 C3742 1.385 . S
C3739 H3714 0.951 . S
C3739 C3737 1.388 . S
C3739 C3740 1.366 . S
C3740 C3739 1.366 . S
C3740 C3741 1.414 . S
C3740 C3743 1.499 . S
C3741 H3715 0.950 . S
C3741 C3740 1.414 . S
C3741 C3742 1.374 . S
C3742 H3716 0.950 . S
C3742 C3738 1.385 . S
C3742 C3741 1.374 . S
C3743 C3740 1.499 . S
C3743 C3744 1.373 . S
C3743 C3745 1.389 . S
C3744 H3717 0.950 . S
C3744 C3730 1.377 . S
C3744 C3743 1.373 . S
C3745 C3729 1.377 . S
C3745 C3743 1.389 . S
C3745 C3746 1.524 . S
C3746 C3745 1.524 . S
C3746 C3747 1.397 . S
C3746 C3751 1.363 . S
C3747 H3718 0.950 . S
C3747 C3746 1.397 . S
C3747 C3748 1.334 . S
C3748 H3719 0.950 . S
C3748 C3747 1.334 . S
C3748 C3749 1.287 . S
C3749 C3748 1.287 . S
C3749 C3750 1.524 . S
C3749 H3752 0.999 . S
C3750 H3720 0.950 . S
C3750 C3749 1.524 . S
C3750 C3751 1.415 . S
C3751 H3721 0.950 . S
C3751 C3746 1.363 . S
C3751 C3750 1.415 . S
H3752 C3749 0.999 . S
H3753 C3734 0.913 . S
H3754 C3772 0.951 . S
H3755 C3774 0.951 . S
H3756 C3776 0.950 . S
H3757 C3777 0.950 . S
H3758 C3779 0.950 . S
H3759 C3782 0.950 . S
H3760 C3783 0.950 . S
H3761 C3785 0.950 . S
H3762 C3786 0.950 . S
H3763 C3787 0.951 . S
H3764 C3789 0.951 . S
H3765 C3791 0.950 . S
H3766 C3792 0.950 . S
H3767 C3794 0.950 . S
H3768 C3797 0.950 . S
H3769 C3798 0.950 . S
H3770 C3800 0.950 . S
H3771 C3801 0.950 . S
C3772 H3754 0.951 . S
C3772 C3773 1.366 . S
C3772 C3774 1.388 . S
C3773 C3772 1.366 . S
C3773 C3777 1.385 . S
C3774 H3755 0.951 . S
C3774 C3772 1.388 . S
C3774 C3775 1.366 . S
C3775 C3774 1.366 . S
C3775 C3776 1.414 . S
C3775 C3778 1.499 . S
C3776 H3756 0.950 . S
C3776 C3775 1.414 . S
C3776 C3777 1.374 . S
C3777 H3757 0.950 . S
C3777 C3773 1.385 . S
C3777 C3776 1.374 . S
C3778 C3775 1.499 . S
C3778 C3779 1.373 . S
C3778 C3780 1.389 . S
C3779 H3758 0.950 . S
C3779 C3778 1.373 . S
C3779 C3795 1.377 . S
C3780 C3778 1.389 . S
C3780 C3781 1.524 . S
C3780 C3794 1.377 . S
C3781 C3780 1.524 . S
C3781 C3782 1.397 . S
C3781 C3786 1.363 . S
C3782 H3759 0.950 . S
C3782 C3781 1.397 . S
C3782 C3783 1.334 . S
C3783 H3760 0.950 . S
C3783 C3782 1.334 . S
C3783 C3784 1.287 . S
C3784 C3783 1.287 . S
C3784 C3785 1.524 . S
C3784 H3803 0.913 . S
C3785 H3761 0.950 . S
C3785 C3784 1.524 . S
C3785 C3786 1.415 . S
C3786 H3762 0.950 . S
C3786 C3781 1.363 . S
C3786 C3785 1.415 . S
C3787 H3763 0.951 . S
C3787 C3788 1.366 . S
C3787 C3789 1.388 . S
C3788 C3787 1.366 . S
C3788 C3792 1.385 . S
C3789 H3764 0.951 . S
C3789 C3787 1.388 . S
C3789 C3790 1.366 . S
C3790 C3789 1.366 . S
C3790 C3791 1.414 . S
C3790 C3793 1.499 . S
C3791 H3765 0.950 . S
C3791 C3790 1.414 . S
C3791 C3792 1.374 . S
C3792 H3766 0.950 . S
C3792 C3788 1.385 . S
C3792 C3791 1.374 . S
C3793 C3790 1.499 . S
C3793 C3794 1.373 . S
C3793 C3795 1.389 . S
C3794 H3767 0.950 . S
C3794 C3780 1.377 . S
C3794 C3793 1.373 . S
C3795 C3779 1.377 . S
C3795 C3793 1.389 . S
C3795 C3796 1.524 . S
C3796 C3795 1.524 . S
C3796 C3797 1.397 . S
C3796 C3801 1.363 . S
C3797 H3768 0.950 . S
C3797 C3796 1.397 . S
C3797 C3798 1.334 . S
C3798 H3769 0.950 . S
C3798 C3797 1.334 . S
C3798 C3799 1.287 . S
C3799 C3798 1.287 . S
C3799 C3800 1.524 . S
C3799 H3802 0.999 . S
C3800 H3770 0.950 . S
C3800 C3799 1.524 . S
C3800 C3801 1.415 . S
C3801 H3771 0.950 . S
C3801 C3796 1.363 . S
C3801 C3800 1.415 . S
H3802 C3799 0.999 . S
H3803 C3784 0.913 . S
H3804 C3822 0.951 . S
H3805 C3824 0.951 . S
H3806 C3826 0.950 . S
H3807 C3827 0.950 . S
H3808 C3829 0.950 . S
H3809 C3832 0.950 . S
H3810 C3833 0.950 . S
H3811 C3835 0.950 . S
H3812 C3836 0.950 . S
H3813 C3837 0.951 . S
H3814 C3839 0.951 . S
H3815 C3841 0.950 . S
H3816 C3842 0.950 . S
H3817 C3844 0.950 . S
H3818 C3847 0.950 . S
H3819 C3848 0.950 . S
H3820 C3850 0.950 . S
H3821 C3851 0.950 . S
C3822 H3804 0.951 . S
C3822 C3823 1.366 . S
C3822 C3824 1.388 . S
C3823 C3822 1.366 . S
C3823 C3827 1.385 . S
C3824 H3805 0.951 . S
C3824 C3822 1.388 . S
C3824 C3825 1.366 . S
C3825 C3824 1.366 . S
C3825 C3826 1.414 . S
C3825 C3828 1.499 . S
C3826 H3806 0.950 . S
C3826 C3825 1.414 . S
C3826 C3827 1.374 . S
C3827 H3807 0.950 . S
C3827 C3823 1.385 . S
C3827 C3826 1.374 . S
C3828 C3825 1.499 . S
C3828 C3829 1.373 . S
C3828 C3830 1.389 . S
C3829 H3808 0.950 . S
C3829 C3828 1.373 . S
C3829 C3845 1.377 . S
C3830 C3828 1.389 . S
C3830 C3831 1.524 . S
C3830 C3844 1.377 . S
C3831 C3830 1.524 . S
C3831 C3832 1.397 . S
C3831 C3836 1.363 . S
C3832 H3809 0.950 . S
C3832 C3831 1.397 . S
C3832 C3833 1.334 . S
C3833 H3810 0.950 . S
C3833 C3832 1.334 . S
C3833 C3834 1.287 . S
C3834 C3833 1.287 . S
C3834 C3835 1.524 . S
C3834 H3853 0.913 . S
C3835 H3811 0.950 . S
C3835 C3834 1.524 . S
C3835 C3836 1.415 . S
C3836 H3812 0.950 . S
C3836 C3831 1.363 . S
C3836 C3835 1.415 . S
C3837 H3813 0.951 . S
C3837 C3838 1.366 . S
C3837 C3839 1.388 . S
C3838 C3837 1.366 . S
C3838 C3842 1.385 . S
C3839 H3814 0.951 . S
C3839 C3837 1.388 . S
C3839 C3840 1.366 . S
C3840 C3839 1.366 . S
C3840 C3841 1.414 . S
C3840 C3843 1.499 . S
C3841 H3815 0.950 . S
C3841 C3840 1.414 . S
C3841 C3842 1.374 . S
C3842 H3816 0.950 . S
C3842 C3838 1.385 . S
C3842 C3841 1.374 . S
C3843 C3840 1.499 . S
C3843 C3844 1.373 . S
C3843 C3845 1.389 . S
C3844 H3817 0.950 . S
C3844 C3830 1.377 . S
C3844 C3843 1.373 . S
C3845 C3829 1.377 . S
C3845 C3843 1.389 . S
C3845 C3846 1.524 . S
C3846 C3845 1.524 . S
C3846 C3847 1.397 . S
C3846 C3851 1.363 . S
C3847 H3818 0.950 . S
C3847 C3846 1.397 . S
C3847 C3848 1.334 . S
C3848 H3819 0.950 . S
C3848 C3847 1.334 . S
C3848 C3849 1.287 . S
C3849 C3848 1.287 . S
C3849 C3850 1.524 . S
C3849 H3852 0.999 . S
C3850 H3820 0.950 . S
C3850 C3849 1.524 . S
C3850 C3851 1.415 . S
C3851 H3821 0.950 . S
C3851 C3846 1.363 . S
C3851 C3850 1.415 . S
H3852 C3849 0.999 . S
H3853 C3834 0.913 . S
H3854 C3872 0.951 . S
H3855 C3874 0.951 . S
H3856 C3876 0.950 . S
H3857 C3877 0.950 . S
H3858 C3879 0.950 . S
H3859 C3882 0.950 . S
H3860 C3883 0.950 . S
H3861 C3885 0.950 . S
H3862 C3886 0.950 . S
H3863 C3887 0.951 . S
H3864 C3889 0.951 . S
H3865 C3891 0.950 . S
H3866 C3892 0.950 . S
H3867 C3894 0.950 . S
H3868 C3897 0.950 . S
H3869 C3898 0.950 . S
H3870 C3900 0.950 . S
H3871 C3901 0.950 . S
C3872 H3854 0.951 . S
C3872 C3873 1.366 . S
C3872 C3874 1.388 . S
C3873 C3872 1.366 . S
C3873 C3877 1.385 . S
C3874 H3855 0.951 . S
C3874 C3872 1.388 . S
C3874 C3875 1.366 . S
C3875 C3874 1.366 . S
C3875 C3876 1.414 . S
C3875 C3878 1.499 . S
C3876 H3856 0.950 . S
C3876 C3875 1.414 . S
C3876 C3877 1.374 . S
C3877 H3857 0.950 . S
C3877 C3873 1.385 . S
C3877 C3876 1.374 . S
C3878 C3875 1.499 . S
C3878 C3879 1.373 . S
C3878 C3880 1.389 . S
C3879 H3858 0.950 . S
C3879 C3878 1.373 . S
C3879 C3895 1.377 . S
C3880 C3878 1.389 . S
C3880 C3881 1.524 . S
C3880 C3894 1.377 . S
C3881 C3880 1.524 . S
C3881 C3882 1.397 . S
C3881 C3886 1.363 . S
C3882 H3859 0.950 . S
C3882 C3881 1.397 . S
C3882 C3883 1.334 . S
C3883 H3860 0.950 . S
C3883 C3882 1.334 . S
C3883 C3884 1.287 . S
C3884 C3883 1.287 . S
C3884 C3885 1.524 . S
C3884 H3903 0.913 . S
C3885 H3861 0.950 . S
C3885 C3884 1.524 . S
C3885 C3886 1.415 . S
C3886 H3862 0.950 . S
C3886 C3881 1.363 . S
C3886 C3885 1.415 . S
C3887 H3863 0.951 . S
C3887 C3888 1.366 . S
C3887 C3889 1.388 . S
C3888 C3887 1.366 . S
C3888 C3892 1.385 . S
C3889 H3864 0.951 . S
C3889 C3887 1.388 . S
C3889 C3890 1.366 . S
C3890 C3889 1.366 . S
C3890 C3891 1.414 . S
C3890 C3893 1.499 . S
C3891 H3865 0.950 . S
C3891 C3890 1.414 . S
C3891 C3892 1.374 . S
C3892 H3866 0.950 . S
C3892 C3888 1.385 . S
C3892 C3891 1.374 . S
C3893 C3890 1.499 . S
C3893 C3894 1.373 . S
C3893 C3895 1.389 . S
C3894 H3867 0.950 . S
C3894 C3880 1.377 . S
C3894 C3893 1.373 . S
C3895 C3879 1.377 . S
C3895 C3893 1.389 . S
C3895 C3896 1.524 . S
C3896 C3895 1.524 . S
C3896 C3897 1.397 . S
C3896 C3901 1.363 . S
C3897 H3868 0.950 . S
C3897 C3896 1.397 . S
C3897 C3898 1.334 . S
C3898 H3869 0.950 . S
C3898 C3897 1.334 . S
C3898 C3899 1.287 . S
C3899 C3898 1.287 . S
C3899 C3900 1.524 . S
C3899 H3902 0.999 . S
C3900 H3870 0.950 . S
C3900 C3899 1.524 . S
C3900 C3901 1.415 . S
C3901 H3871 0.950 . S
C3901 C3896 1.363 . S
C3901 C3900 1.415 . S
H3902 C3899 0.999 . S
H3903 C3884 0.913 . S
H3904 C3922 0.951 . S
H3905 C3924 0.951 . S
H3906 C3926 0.950 . S
H3907 C3927 0.950 . S
H3908 C3929 0.950 . S
H3909 C3932 0.950 . S
H3910 C3933 0.950 . S
H3911 C3935 0.950 . S
H3912 C3936 0.950 . S
H3913 C3937 0.951 . S
H3914 C3939 0.951 . S
H3915 C3941 0.950 . S
H3916 C3942 0.950 . S
H3917 C3944 0.950 . S
H3918 C3947 0.950 . S
H3919 C3948 0.950 . S
H3920 C3950 0.950 . S
H3921 C3951 0.950 . S
C3922 H3904 0.951 . S
C3922 C3923 1.366 . S
C3922 C3924 1.388 . S
C3923 C3922 1.366 . S
C3923 C3927 1.385 . S
C3924 H3905 0.951 . S
C3924 C3922 1.388 . S
C3924 C3925 1.366 . S
C3925 C3924 1.366 . S
C3925 C3926 1.414 . S
C3925 C3928 1.499 . S
C3926 H3906 0.950 . S
C3926 C3925 1.414 . S
C3926 C3927 1.374 . S
C3927 H3907 0.950 . S
C3927 C3923 1.385 . S
C3927 C3926 1.374 . S
C3928 C3925 1.499 . S
C3928 C3929 1.373 . S
C3928 C3930 1.389 . S
C3929 H3908 0.950 . S
C3929 C3928 1.373 . S
C3929 C3945 1.377 . S
C3930 C3928 1.389 . S
C3930 C3931 1.524 . S
C3930 C3944 1.377 . S
C3931 C3930 1.524 . S
C3931 C3932 1.397 . S
C3931 C3936 1.363 . S
C3932 H3909 0.950 . S
C3932 C3931 1.397 . S
C3932 C3933 1.334 . S
C3933 H3910 0.950 . S
C3933 C3932 1.334 . S
C3933 C3934 1.287 . S
C3934 C3933 1.287 . S
C3934 C3935 1.524 . S
C3934 H3953 0.913 . S
C3935 H3911 0.950 . S
C3935 C3934 1.524 . S
C3935 C3936 1.415 . S
C3936 H3912 0.950 . S
C3936 C3931 1.363 . S
C3936 C3935 1.415 . S
C3937 H3913 0.951 . S
C3937 C3938 1.366 . S
C3937 C3939 1.388 . S
C3938 C3937 1.366 . S
C3938 C3942 1.385 . S
C3939 H3914 0.951 . S
C3939 C3937 1.388 . S
C3939 C3940 1.366 . S
C3940 C3939 1.366 . S
C3940 C3941 1.414 . S
C3940 C3943 1.499 . S
C3941 H3915 0.950 . S
C3941 C3940 1.414 . S
C3941 C3942 1.374 . S
C3942 H3916 0.950 . S
C3942 C3938 1.385 . S
C3942 C3941 1.374 . S
C3943 C3940 1.499 . S
C3943 C3944 1.373 . S
C3943 C3945 1.389 . S
C3944 H3917 0.950 . S
C3944 C3930 1.377 . S
C3944 C3943 1.373 . S
C3945 C3929 1.377 . S
C3945 C3943 1.389 . S
C3945 C3946 1.524 . S
C3946 C3945 1.524 . S
C3946 C3947 1.397 . S
C3946 C3951 1.363 . S
C3947 H3918 0.950 . S
C3947 C3946 1.397 . S
C3947 C3948 1.334 . S
C3948 H3919 0.950 . S
C3948 C3947 1.334 . S
C3948 C3949 1.287 . S
C3949 C3948 1.287 . S
C3949 C3950 1.524 . S
C3949 H3952 0.999 . S
C3950 H3920 0.950 . S
C3950 C3949 1.524 . S
C3950 C3951 1.415 . S
C3951 H3921 0.950 . S
C3951 C3946 1.363 . S
C3951 C3950 1.415 . S
H3952 C3949 0.999 . S
H3953 C3934 0.913 . S
H3954 C3972 0.951 . S
H3955 C3974 0.951 . S
H3956 C3976 0.950 . S
H3957 C3977 0.950 . S
H3958 C3979 0.950 . S
H3959 C3982 0.950 . S
H3960 C3983 0.950 . S
H3961 C3985 0.950 . S
H3962 C3986 0.950 . S
H3963 C3987 0.951 . S
H3964 C3989 0.951 . S
H3965 C3991 0.950 . S
H3966 C3992 0.950 . S
H3967 C3994 0.950 . S
H3968 C3997 0.950 . S
H3969 C3998 0.950 . S
H3970 C4000 0.950 . S
H3971 C4001 0.950 . S
C3972 H3954 0.951 . S
C3972 C3973 1.366 . S
C3972 C3974 1.388 . S
C3973 C3972 1.366 . S
C3973 C3977 1.385 . S
C3974 H3955 0.951 . S
C3974 C3972 1.388 . S
C3974 C3975 1.366 . S
C3975 C3974 1.366 . S
C3975 C3976 1.414 . S
C3975 C3978 1.499 . S
C3976 H3956 0.950 . S
C3976 C3975 1.414 . S
C3976 C3977 1.374 . S
C3977 H3957 0.950 . S
C3977 C3973 1.385 . S
C3977 C3976 1.374 . S
C3978 C3975 1.499 . S
C3978 C3979 1.373 . S
C3978 C3980 1.389 . S
C3979 H3958 0.950 . S
C3979 C3978 1.373 . S
C3979 C3995 1.377 . S
C3980 C3978 1.389 . S
C3980 C3981 1.524 . S
C3980 C3994 1.377 . S
C3981 C3980 1.524 . S
C3981 C3982 1.397 . S
C3981 C3986 1.363 . S
C3982 H3959 0.950 . S
C3982 C3981 1.397 . S
C3982 C3983 1.334 . S
C3983 H3960 0.950 . S
C3983 C3982 1.334 . S
C3983 C3984 1.287 . S
C3984 C3983 1.287 . S
C3984 C3985 1.524 . S
C3984 H4003 0.913 . S
C3985 H3961 0.950 . S
C3985 C3984 1.524 . S
C3985 C3986 1.415 . S
C3986 H3962 0.950 . S
C3986 C3981 1.363 . S
C3986 C3985 1.415 . S
C3987 H3963 0.951 . S
C3987 C3988 1.366 . S
C3987 C3989 1.388 . S
C3988 C3987 1.366 . S
C3988 C3992 1.385 . S
C3989 H3964 0.951 . S
C3989 C3987 1.388 . S
C3989 C3990 1.366 . S
C3990 C3989 1.366 . S
C3990 C3991 1.414 . S
C3990 C3993 1.499 . S
C3991 H3965 0.950 . S
C3991 C3990 1.414 . S
C3991 C3992 1.374 . S
C3992 H3966 0.950 . S
C3992 C3988 1.385 . S
C3992 C3991 1.374 . S
C3993 C3990 1.499 . S
C3993 C3994 1.373 . S
C3993 C3995 1.389 . S
C3994 H3967 0.950 . S
C3994 C3980 1.377 . S
C3994 C3993 1.373 . S
C3995 C3979 1.377 . S
C3995 C3993 1.389 . S
C3995 C3996 1.524 . S
C3996 C3995 1.524 . S
C3996 C3997 1.397 . S
C3996 C4001 1.363 . S
C3997 H3968 0.950 . S
C3997 C3996 1.397 . S
C3997 C3998 1.334 . S
C3998 H3969 0.950 . S
C3998 C3997 1.334 . S
C3998 C3999 1.287 . S
C3999 C3998 1.287 . S
C3999 C4000 1.524 . S
C3999 H4002 0.999 . S
C4000 H3970 0.950 . S
C4000 C3999 1.524 . S
C4000 C4001 1.415 . S
C4001 H3971 0.950 . S
C4001 C3996 1.363 . S
C4001 C4000 1.415 . S
H4002 C3999 0.999 . S
H4003 C3984 0.913 . S
H4004 C4022 0.951 . S
H4005 C4024 0.951 . S
H4006 C4026 0.950 . S
H4007 C4027 0.950 . S
H4008 C4029 0.950 1_545 S
H4009 C4032 0.950 . S
H4010 C4033 0.950 . S
H4011 C4035 0.950 . S
H4012 C4036 0.950 . S
H4013 C4037 0.951 . S
H4014 C4039 0.951 . S
H4015 C4041 0.950 . S
H4016 C4042 0.950 . S
H4017 C4044 0.950 . S
H4018 C4047 0.950 . S
H4019 C4048 0.950 . S
H4020 C4050 0.950 . S
H4021 C4051 0.950 . S
C4022 H4004 0.951 . S
C4022 C4023 1.366 . S
C4022 C4024 1.388 . S
C4023 C4022 1.366 . S
C4023 C4027 1.385 . S
C4024 H4005 0.951 . S
C4024 C4022 1.388 . S
C4024 C4025 1.366 . S
C4025 C4024 1.366 . S
C4025 C4026 1.414 . S
C4025 C4028 1.499 . S
C4026 H4006 0.950 . S
C4026 C4025 1.414 . S
C4026 C4027 1.374 . S
C4027 H4007 0.950 . S
C4027 C4023 1.385 . S
C4027 C4026 1.374 . S
C4028 C4025 1.499 . S
C4028 C4029 1.373 . S
C4028 C4030 1.389 . S
C4029 H4008 0.950 1_565 S
C4029 C4028 1.373 . S
C4029 C4045 1.377 . S
C4030 C4028 1.389 . S
C4030 C4031 1.524 . S
C4030 C4044 1.377 . S
C4031 C4030 1.524 . S
C4031 C4032 1.397 . S
C4031 C4036 1.363 . S
C4032 H4009 0.950 . S
C4032 C4031 1.397 . S
C4032 C4033 1.334 . S
C4033 H4010 0.950 . S
C4033 C4032 1.334 . S
C4033 C4034 1.287 . S
C4034 C4033 1.287 . S
C4034 C4035 1.524 . S
C4034 H4053 0.913 . S
C4035 H4011 0.950 . S
C4035 C4034 1.524 . S
C4035 C4036 1.415 . S
C4036 H4012 0.950 . S
C4036 C4031 1.363 . S
C4036 C4035 1.415 . S
C4037 H4013 0.951 . S
C4037 C4038 1.366 . S
C4037 C4039 1.388 . S
C4038 C4037 1.366 . S
C4038 C4042 1.385 . S
C4039 H4014 0.951 . S
C4039 C4037 1.388 . S
C4039 C4040 1.366 . S
C4040 C4039 1.366 . S
C4040 C4041 1.414 . S
C4040 C4043 1.499 . S
C4041 H4015 0.950 . S
C4041 C4040 1.414 . S
C4041 C4042 1.374 . S
C4042 H4016 0.950 . S
C4042 C4038 1.385 . S
C4042 C4041 1.374 . S
C4043 C4040 1.499 . S
C4043 C4044 1.373 . S
C4043 C4045 1.389 . S
C4044 H4017 0.950 . S
C4044 C4030 1.377 . S
C4044 C4043 1.373 . S
C4045 C4029 1.377 . S
C4045 C4043 1.389 . S
C4045 C4046 1.524 1_565 S
C4046 C4045 1.524 1_545 S
C4046 C4047 1.397 . S
C4046 C4051 1.363 . S
C4047 H4018 0.950 . S
C4047 C4046 1.397 . S
C4047 C4048 1.334 . S
C4048 H4019 0.950 . S
C4048 C4047 1.334 . S
C4048 C4049 1.287 . S
C4049 C4048 1.287 . S
C4049 C4050 1.524 . S
C4049 H4052 0.999 . S
C4050 H4020 0.950 . S
C4050 C4049 1.524 . S
C4050 C4051 1.415 . S
C4051 H4021 0.950 . S
C4051 C4046 1.363 . S
C4051 C4050 1.415 . S
H4052 C4049 0.999 . S
H4053 C4034 0.913 . S
H4054 C4072 0.951 . S
H4055 C4074 0.951 . S
H4056 C4076 0.950 . S
H4057 C4077 0.950 . S
H4058 C4079 0.950 . S
H4059 C4082 0.950 . S
H4060 C4083 0.950 . S
H4061 C4085 0.968 . S
H4062 C4086 0.950 . S
H4063 C4087 0.951 . S
H4064 C4089 0.951 . S
H4065 C4091 0.950 . S
H4066 C4092 0.950 . S
H4067 C4094 0.950 . S
H4068 C4097 0.950 . S
H4069 C4098 0.950 . S
H4070 C4100 0.950 . S
H4071 C4101 0.950 . S
C4072 H4054 0.951 . S
C4072 C4073 1.366 . S
C4072 C4074 1.388 . S
C4073 C4072 1.366 . S
C4073 C4077 1.385 . S
C4074 H4055 0.951 . S
C4074 C4072 1.388 . S
C4074 C4075 1.366 . S
C4075 C4074 1.366 . S
C4075 C4076 1.414 . S
C4075 C4078 1.499 . S
C4076 H4056 0.950 . S
C4076 C4075 1.414 . S
C4076 C4077 1.374 . S
C4077 H4057 0.950 . S
C4077 C4073 1.385 . S
C4077 C4076 1.374 . S
C4078 C4075 1.499 . S
C4078 C4079 1.373 . S
C4078 C4080 1.389 . S
C4079 H4058 0.950 . S
C4079 C4078 1.373 . S
C4079 C4095 1.377 . S
C4080 C4078 1.389 . S
C4080 C4081 1.524 . S
C4080 C4094 1.377 . S
C4081 C4080 1.524 . S
C4081 C4082 1.397 . S
C4081 C4086 1.363 . S
C4082 H4059 0.950 . S
C4082 C4081 1.397 . S
C4082 C4083 1.334 . S
C4083 H4060 0.950 . S
C4083 C4082 1.334 . S
C4083 C4084 1.287 . S
C4084 C4083 1.287 . S
C4084 C4085 1.529 1_455 S
C4084 H4103 0.913 1_455 S
C4085 H4061 0.968 . S
C4085 C4084 1.529 1_655 S
C4085 C4086 1.389 1_655 S
C4086 H4062 0.950 . S
C4086 C4081 1.363 . S
C4086 C4085 1.389 1_455 S
C4087 H4063 0.951 . S
C4087 C4088 1.366 . S
C4087 C4089 1.388 . S
C4088 C4087 1.366 . S
C4088 C4092 1.385 . S
C4089 H4064 0.951 . S
C4089 C4087 1.388 . S
C4089 C4090 1.366 . S
C4090 C4089 1.366 . S
C4090 C4091 1.414 . S
C4090 C4093 1.499 . S
C4091 H4065 0.950 . S
C4091 C4090 1.414 . S
C4091 C4092 1.374 . S
C4092 H4066 0.950 . S
C4092 C4088 1.385 . S
C4092 C4091 1.374 . S
C4093 C4090 1.499 . S
C4093 C4094 1.373 . S
C4093 C4095 1.389 . S
C4094 H4067 0.950 . S
C4094 C4080 1.377 . S
C4094 C4093 1.373 . S
C4095 C4079 1.377 . S
C4095 C4093 1.389 . S
C4095 C4096 1.524 . S
C4096 C4095 1.524 . S
C4096 C4097 1.397 . S
C4096 C4101 1.363 . S
C4097 H4068 0.950 . S
C4097 C4096 1.397 . S
C4097 C4098 1.334 . S
C4098 H4069 0.950 . S
C4098 C4097 1.334 . S
C4098 C4099 1.287 . S
C4099 C4098 1.287 . S
C4099 C4100 1.524 . S
C4099 H4102 0.999 . S
C4100 H4070 0.950 . S
C4100 C4099 1.524 . S
C4100 C4101 1.415 . S
C4101 H4071 0.950 . S
C4101 C4096 1.363 . S
C4101 C4100 1.415 . S
H4102 C4099 0.999 . S
H4103 C4084 0.913 1_655 S
C523 C3 1.624 . S
C538 C157 1.624 . S
C573 C129 1.624 . S
C588 C17 1.624 . S
C623 C143 1.623 . S
C638 C31 1.623 . S
C673 C45 1.624 . S
C688 C101 1.624 . S
C723 C59 1.623 . S
C738 C115 1.623 . S
C773 C73 1.624 . S
C788 C87 1.624 . S
C823 C171 1.624 . S
C838 C325 1.624 . S
C873 C297 1.624 . S
C888 C185 1.624 . S
C923 C199 1.623 . S
C938 C311 1.623 . S
C973 C213 1.624 . S
C988 C269 1.624 . S
C1023 C227 1.623 . S
C1038 C283 1.623 . S
C1073 C241 1.624 . S
C1088 C255 1.624 . S
C1123 C339 1.624 . S
C1138 C493 1.624 . S
C1173 C353 1.624 . S
C1188 C465 1.624 . S
C1223 C479 1.623 . S
C1238 C367 1.623 . S
C1273 C381 1.624 . S
C1288 C437 1.624 . S
C1323 C451 1.623 . S
C1338 C395 1.623 . S
C1373 C423 1.624 . S
C1388 C409 1.624 . S
C1423 C8 1.171 . S
C1438 C218 1.171 1_455 S
C1473 C22 1.171 . S
C1488 C232 1.171 . S
C1523 C36 1.170 . S
C1538 C246 1.170 . S
C1573 C50 1.170 . S
C1588 C344 1.170 1_545 S
C1623 C358 1.170 . S
C1638 C64 1.170 . S
C1673 C372 1.171 . S
C1688 C78 1.170 . S
C1723 C92 1.171 . S
C1738 C470 1.170 . S
C1773 C484 1.170 . S
C1788 C106 1.171 . S
C1823 C120 1.170 . S
C1838 C498 1.170 1_545 S
C1873 C134 1.170 . S
C1888 C260 1.171 . S
C1923 C148 1.170 . S
C1938 C274 1.170 1_455 S
C1973 C162 1.170 . S
C1988 C288 1.170 . S
C2023 C386 1.170 . S
C2038 C176 1.170 . S
C2073 C190 1.170 . S
C2088 C400 1.171 1_545 S
C2123 C204 1.171 1_455 S
C2138 C414 1.170 . S
C2173 C428 1.170 . S
C2188 C302 1.171 . S
C2223 C442 1.170 1_545 S
C2238 C316 1.170 . S
C2273 C330 1.171 1_455 S
C2288 C456 1.170 . S
C2323 C9 1.171 . S
C2338 C65 1.172 . S
C2373 C79 1.172 . S
C2388 C23 1.172 . S
C2423 C51 1.171 . S
C2438 C37 1.172 . S
C2473 C93 1.172 . S
C2488 C149 1.171 . S
C2523 C163 1.171 . S
C2538 C107 1.172 . S
C2573 C121 1.171 . S
C2588 C135 1.172 . S
C2623 C233 1.172 . S
C2638 C177 1.171 . S
C2673 C191 1.172 . S
C2688 C247 1.171 . S
C2723 C205 1.171 . S
C2738 C219 1.172 . S
C2773 C317 1.172 . S
C2788 C261 1.171 . S
C2823 C331 1.172 . S
C2838 C275 1.172 . S
C2873 C303 1.171 . S
C2888 C289 1.171 . S
C2923 C345 1.172 . S
C2938 C401 1.171 . S
C2973 C359 1.171 . S
C2988 C415 1.172 . S
C3023 C373 1.171 . S
C3038 C387 1.172 . S
C3073 C485 1.172 . S
C3088 C429 1.171 . S
C3123 C499 1.172 . S
C3138 C443 1.172 . S
C3173 C471 1.171 . S
C3188 C457 1.172 . S
C3223 C133 1.595 . S
C3238 C7 1.595 . S
C3273 C147 1.595 . S
C3288 C21 1.595 . S
C3323 C35 1.595 . S
C3338 C161 1.595 . S
C3373 C49 1.595 . S
C3388 C91 1.596 . S
C3423 C105 1.595 . S
C3438 C63 1.595 . S
C3473 C77 1.595 . S
C3488 C119 1.595 . S
C3523 C301 1.595 . S
C3538 C175 1.595 . S
C3573 C315 1.595 . S
C3588 C189 1.596 . S
C3623 C203 1.595 . S
C3638 C329 1.595 . S
C3673 C259 1.595 . S
C3688 C217 1.595 . S
C3723 C273 1.595 . S
C3738 C231 1.596 . S
C3773 C287 1.595 . S
C3788 C245 1.595 . S
C3823 C343 1.595 . S
C3838 C469 1.595 . S
C3873 C483 1.595 . S
C3888 C357 1.595 . S
C3923 C371 1.595 . S
C3938 C497 1.595 . S
C3973 C385 1.595 . S
C3988 C427 1.595 . S
C4023 C399 1.595 . S
C4038 C441 1.595 . S
C4073 C455 1.595 . S
C4088 C413 1.595 . S
