# Generated by pormake.
# Topology nfb, (4)-cn, num edge types: 1
# Building blocks:
#     Node 0, Type 0, BuildingBlock: GALJAG_clean_sbu_0, # of connection points: 4
#     Node 1, Type 0, BuildingBlock: GALJAG_clean_sbu_0, # of connection points: 4
#     Node 2, Type 0, BuildingBlock: GALJAG_clean_sbu_0, # of connection points: 4
#     Node 3, Type 0, BuildingBlock: GALJAG_clean_sbu_0, # of connection points: 4
#     Node 4, Type 0, BuildingBlock: GALJAG_clean_sbu_0, # of connection points: 4
#     Node 5, Type 0, BuildingBlock: GALJAG_clean_sbu_0, # of connection points: 4
#     Node 6, Type 0, BuildingBlock: GALJAG_clean_sbu_0, # of connection points: 4
#     Node 7, Type 0, BuildingBlock: GALJAG_clean_sbu_0, # of connection points: 4
#     Node 8, Type 0, BuildingBlock: GALJAG_clean_sbu_0, # of connection points: 4
#     Node 9, Type 0, BuildingBlock: GALJAG_clean_sbu_0, # of connection points: 4
#     Node 10, Type 0, BuildingBlock: GALJAG_clean_sbu_0, # of connection points: 4
#     Node 11, Type 0, BuildingBlock: GALJAG_clean_sbu_0, # of connection points: 4
#     Node 12, Type 0, BuildingBlock: GALJAG_clean_sbu_0, # of connection points: 4
#     Node 13, Type 0, BuildingBlock: GALJAG_clean_sbu_0, # of connection points: 4
#     Node 14, Type 0, BuildingBlock: GALJAG_clean_sbu_0, # of connection points: 4
#     Node 15, Type 0, BuildingBlock: GALJAG_clean_sbu_0, # of connection points: 4
#     Node 16, Type 0, BuildingBlock: GALJAG_clean_sbu_0, # of connection points: 4
#     Node 17, Type 0, BuildingBlock: GALJAG_clean_sbu_0, # of connection points: 4
#     Node 18, Type 0, BuildingBlock: GALJAG_clean_sbu_0, # of connection points: 4
#     Node 19, Type 0, BuildingBlock: GALJAG_clean_sbu_0, # of connection points: 4
#     Node 20, Type 0, BuildingBlock: GALJAG_clean_sbu_0, # of connection points: 4
#     Node 21, Type 0, BuildingBlock: GALJAG_clean_sbu_0, # of connection points: 4
#     Node 22, Type 0, BuildingBlock: GALJAG_clean_sbu_0, # of connection points: 4
#     Node 23, Type 0, BuildingBlock: GALJAG_clean_sbu_0, # of connection points: 4
#     Node 24, Type 0, BuildingBlock: GALJAG_clean_sbu_0, # of connection points: 4
#     Node 25, Type 0, BuildingBlock: GALJAG_clean_sbu_0, # of connection points: 4
#     Node 26, Type 0, BuildingBlock: GALJAG_clean_sbu_0, # of connection points: 4
#     Node 27, Type 0, BuildingBlock: GALJAG_clean_sbu_0, # of connection points: 4
#     Node 28, Type 0, BuildingBlock: GALJAG_clean_sbu_0, # of connection points: 4
#     Node 29, Type 0, BuildingBlock: GALJAG_clean_sbu_0, # of connection points: 4
#     Node 30, Type 0, BuildingBlock: GALJAG_clean_sbu_0, # of connection points: 4
#     Node 31, Type 0, BuildingBlock: GALJAG_clean_sbu_0, # of connection points: 4
#     Node 32, Type 0, BuildingBlock: GALJAG_clean_sbu_0, # of connection points: 4
#     Node 33, Type 0, BuildingBlock: GALJAG_clean_sbu_0, # of connection points: 4
#     Node 34, Type 0, BuildingBlock: GALJAG_clean_sbu_0, # of connection points: 4
#     Node 35, Type 0, BuildingBlock: GALJAG_clean_sbu_0, # of connection points: 4
#     Node 36, Type 0, BuildingBlock: GALJAG_clean_sbu_0, # of connection points: 4
#     Node 37, Type 0, BuildingBlock: GALJAG_clean_sbu_0, # of connection points: 4
#     Node 38, Type 0, BuildingBlock: GALJAG_clean_sbu_0, # of connection points: 4
#     Node 39, Type 0, BuildingBlock: GALJAG_clean_sbu_0, # of connection points: 4
#     Node 40, Type 0, BuildingBlock: GALJAG_clean_sbu_0, # of connection points: 4
#     Node 41, Type 0, BuildingBlock: GALJAG_clean_sbu_0, # of connection points: 4
#     Node 42, Type 0, BuildingBlock: GALJAG_clean_sbu_0, # of connection points: 4
#     Node 43, Type 0, BuildingBlock: GALJAG_clean_sbu_0, # of connection points: 4
#     Node 44, Type 0, BuildingBlock: GALJAG_clean_sbu_0, # of connection points: 4
#     Node 45, Type 0, BuildingBlock: GALJAG_clean_sbu_0, # of connection points: 4
#     Node 46, Type 0, BuildingBlock: GALJAG_clean_sbu_0, # of connection points: 4
#     Node 47, Type 0, BuildingBlock: GALJAG_clean_sbu_0, # of connection points: 4
#     Edge 48, Type (0, 0), BuildingBlock: XIVTED_clean_linker_0, # of connection points: 2
#     Edge 49, Type (0, 0), BuildingBlock: XIVTED_clean_linker_0, # of connection points: 2
#     Edge 50, Type (0, 0), BuildingBlock: XIVTED_clean_linker_0, # of connection points: 2
#     Edge 51, Type (0, 0), BuildingBlock: XIVTED_clean_linker_0, # of connection points: 2
#     Edge 52, Type (0, 0), BuildingBlock: XIVTED_clean_linker_0, # of connection points: 2
#     Edge 53, Type (0, 0), BuildingBlock: XIVTED_clean_linker_0, # of connection points: 2
#     Edge 54, Type (0, 0), BuildingBlock: XIVTED_clean_linker_0, # of connection points: 2
#     Edge 55, Type (0, 0), BuildingBlock: XIVTED_clean_linker_0, # of connection points: 2
#     Edge 56, Type (0, 0), BuildingBlock: XIVTED_clean_linker_0, # of connection points: 2
#     Edge 57, Type (0, 0), BuildingBlock: XIVTED_clean_linker_0, # of connection points: 2
#     Edge 58, Type (0, 0), BuildingBlock: XIVTED_clean_linker_0, # of connection points: 2
#     Edge 59, Type (0, 0), BuildingBlock: XIVTED_clean_linker_0, # of connection points: 2
#     Edge 60, Type (0, 0), BuildingBlock: XIVTED_clean_linker_0, # of connection points: 2
#     Edge 61, Type (0, 0), BuildingBlock: XIVTED_clean_linker_0, # of connection points: 2
#     Edge 62, Type (0, 0), BuildingBlock: XIVTED_clean_linker_0, # of connection points: 2
#     Edge 63, Type (0, 0), BuildingBlock: XIVTED_clean_linker_0, # of connection points: 2
#     Edge 64, Type (0, 0), BuildingBlock: XIVTED_clean_linker_0, # of connection points: 2
#     Edge 65, Type (0, 0), BuildingBlock: XIVTED_clean_linker_0, # of connection points: 2
#     Edge 66, Type (0, 0), BuildingBlock: XIVTED_clean_linker_0, # of connection points: 2
#     Edge 67, Type (0, 0), BuildingBlock: XIVTED_clean_linker_0, # of connection points: 2
#     Edge 68, Type (0, 0), BuildingBlock: XIVTED_clean_linker_0, # of connection points: 2
#     Edge 69, Type (0, 0), BuildingBlock: XIVTED_clean_linker_0, # of connection points: 2
#     Edge 70, Type (0, 0), BuildingBlock: XIVTED_clean_linker_0, # of connection points: 2
#     Edge 71, Type (0, 0), BuildingBlock: XIVTED_clean_linker_0, # of connection points: 2
#     Edge 72, Type (0, 0), BuildingBlock: XIVTED_clean_linker_0, # of connection points: 2
#     Edge 73, Type (0, 0), BuildingBlock: XIVTED_clean_linker_0, # of connection points: 2
#     Edge 74, Type (0, 0), BuildingBlock: XIVTED_clean_linker_0, # of connection points: 2
#     Edge 75, Type (0, 0), BuildingBlock: XIVTED_clean_linker_0, # of connection points: 2
#     Edge 76, Type (0, 0), BuildingBlock: XIVTED_clean_linker_0, # of connection points: 2
#     Edge 77, Type (0, 0), BuildingBlock: XIVTED_clean_linker_0, # of connection points: 2
#     Edge 78, Type (0, 0), BuildingBlock: XIVTED_clean_linker_0, # of connection points: 2
#     Edge 79, Type (0, 0), BuildingBlock: XIVTED_clean_linker_0, # of connection points: 2
#     Edge 80, Type (0, 0), BuildingBlock: XIVTED_clean_linker_0, # of connection points: 2
#     Edge 81, Type (0, 0), BuildingBlock: XIVTED_clean_linker_0, # of connection points: 2
#     Edge 82, Type (0, 0), BuildingBlock: XIVTED_clean_linker_0, # of connection points: 2
#     Edge 83, Type (0, 0), BuildingBlock: XIVTED_clean_linker_0, # of connection points: 2
#     Edge 84, Type (0, 0), BuildingBlock: XIVTED_clean_linker_0, # of connection points: 2
#     Edge 85, Type (0, 0), BuildingBlock: XIVTED_clean_linker_0, # of connection points: 2
#     Edge 86, Type (0, 0), BuildingBlock: XIVTED_clean_linker_0, # of connection points: 2
#     Edge 87, Type (0, 0), BuildingBlock: XIVTED_clean_linker_0, # of connection points: 2
#     Edge 88, Type (0, 0), BuildingBlock: XIVTED_clean_linker_0, # of connection points: 2
#     Edge 89, Type (0, 0), BuildingBlock: XIVTED_clean_linker_0, # of connection points: 2
#     Edge 90, Type (0, 0), BuildingBlock: XIVTED_clean_linker_0, # of connection points: 2
#     Edge 91, Type (0, 0), BuildingBlock: XIVTED_clean_linker_0, # of connection points: 2
#     Edge 92, Type (0, 0), BuildingBlock: XIVTED_clean_linker_0, # of connection points: 2
#     Edge 93, Type (0, 0), BuildingBlock: XIVTED_clean_linker_0, # of connection points: 2
#     Edge 94, Type (0, 0), BuildingBlock: XIVTED_clean_linker_0, # of connection points: 2
#     Edge 95, Type (0, 0), BuildingBlock: XIVTED_clean_linker_0, # of connection points: 2
#     Edge 96, Type (0, 0), BuildingBlock: XIVTED_clean_linker_0, # of connection points: 2
#     Edge 97, Type (0, 0), BuildingBlock: XIVTED_clean_linker_0, # of connection points: 2
#     Edge 98, Type (0, 0), BuildingBlock: XIVTED_clean_linker_0, # of connection points: 2
#     Edge 99, Type (0, 0), BuildingBlock: XIVTED_clean_linker_0, # of connection points: 2
#     Edge 100, Type (0, 0), BuildingBlock: XIVTED_clean_linker_0, # of connection points: 2
#     Edge 101, Type (0, 0), BuildingBlock: XIVTED_clean_linker_0, # of connection points: 2
#     Edge 102, Type (0, 0), BuildingBlock: XIVTED_clean_linker_0, # of connection points: 2
#     Edge 103, Type (0, 0), BuildingBlock: XIVTED_clean_linker_0, # of connection points: 2
#     Edge 104, Type (0, 0), BuildingBlock: XIVTED_clean_linker_0, # of connection points: 2
#     Edge 105, Type (0, 0), BuildingBlock: XIVTED_clean_linker_0, # of connection points: 2
#     Edge 106, Type (0, 0), BuildingBlock: XIVTED_clean_linker_0, # of connection points: 2
#     Edge 107, Type (0, 0), BuildingBlock: XIVTED_clean_linker_0, # of connection points: 2
#     Edge 108, Type (0, 0), BuildingBlock: XIVTED_clean_linker_0, # of connection points: 2
#     Edge 109, Type (0, 0), BuildingBlock: XIVTED_clean_linker_0, # of connection points: 2
#     Edge 110, Type (0, 0), BuildingBlock: XIVTED_clean_linker_0, # of connection points: 2
#     Edge 111, Type (0, 0), BuildingBlock: XIVTED_clean_linker_0, # of connection points: 2
#     Edge 112, Type (0, 0), BuildingBlock: XIVTED_clean_linker_0, # of connection points: 2
#     Edge 113, Type (0, 0), BuildingBlock: XIVTED_clean_linker_0, # of connection points: 2
#     Edge 114, Type (0, 0), BuildingBlock: XIVTED_clean_linker_0, # of connection points: 2
#     Edge 115, Type (0, 0), BuildingBlock: XIVTED_clean_linker_0, # of connection points: 2
#     Edge 116, Type (0, 0), BuildingBlock: XIVTED_clean_linker_0, # of connection points: 2
#     Edge 117, Type (0, 0), BuildingBlock: XIVTED_clean_linker_0, # of connection points: 2
#     Edge 118, Type (0, 0), BuildingBlock: XIVTED_clean_linker_0, # of connection points: 2
#     Edge 119, Type (0, 0), BuildingBlock: XIVTED_clean_linker_0, # of connection points: 2
#     Edge 120, Type (0, 0), BuildingBlock: XIVTED_clean_linker_0, # of connection points: 2
#     Edge 121, Type (0, 0), BuildingBlock: XIVTED_clean_linker_0, # of connection points: 2
#     Edge 122, Type (0, 0), BuildingBlock: XIVTED_clean_linker_0, # of connection points: 2
#     Edge 123, Type (0, 0), BuildingBlock: XIVTED_clean_linker_0, # of connection points: 2
#     Edge 124, Type (0, 0), BuildingBlock: XIVTED_clean_linker_0, # of connection points: 2
#     Edge 125, Type (0, 0), BuildingBlock: XIVTED_clean_linker_0, # of connection points: 2
#     Edge 126, Type (0, 0), BuildingBlock: XIVTED_clean_linker_0, # of connection points: 2
#     Edge 127, Type (0, 0), BuildingBlock: XIVTED_clean_linker_0, # of connection points: 2
#     Edge 128, Type (0, 0), BuildingBlock: XIVTED_clean_linker_0, # of connection points: 2
#     Edge 129, Type (0, 0), BuildingBlock: XIVTED_clean_linker_0, # of connection points: 2
#     Edge 130, Type (0, 0), BuildingBlock: XIVTED_clean_linker_0, # of connection points: 2
#     Edge 131, Type (0, 0), BuildingBlock: XIVTED_clean_linker_0, # of connection points: 2
#     Edge 132, Type (0, 0), BuildingBlock: XIVTED_clean_linker_0, # of connection points: 2
#     Edge 133, Type (0, 0), BuildingBlock: XIVTED_clean_linker_0, # of connection points: 2
#     Edge 134, Type (0, 0), BuildingBlock: XIVTED_clean_linker_0, # of connection points: 2
#     Edge 135, Type (0, 0), BuildingBlock: XIVTED_clean_linker_0, # of connection points: 2
#     Edge 136, Type (0, 0), BuildingBlock: XIVTED_clean_linker_0, # of connection points: 2
#     Edge 137, Type (0, 0), BuildingBlock: XIVTED_clean_linker_0, # of connection points: 2
#     Edge 138, Type (0, 0), BuildingBlock: XIVTED_clean_linker_0, # of connection points: 2
#     Edge 139, Type (0, 0), BuildingBlock: XIVTED_clean_linker_0, # of connection points: 2
#     Edge 140, Type (0, 0), BuildingBlock: XIVTED_clean_linker_0, # of connection points: 2
#     Edge 141, Type (0, 0), BuildingBlock: XIVTED_clean_linker_0, # of connection points: 2
#     Edge 142, Type (0, 0), BuildingBlock: XIVTED_clean_linker_0, # of connection points: 2
#     Edge 143, Type (0, 0), BuildingBlock: XIVTED_clean_linker_0, # of connection points: 2
# Relax obj value: 0.318
# Max RMSD: 0.087
# Mean RMSD: 0.085
data_MOF--net-nfb--node1-GALJAG_clean_sbu_0--edge1-XIVTED_clean_linker_0
_symmetry_space_group_name_H-M    P1
_symmetry_Int_Tables_number       1
_symmetry_cell_setting            triclinic
loop_
_symmetry_equiv_pos_as_xyz
'x, y, z'
_cell_length_a     59.038584
_cell_length_b     58.963439
_cell_length_c     59.030499
_cell_angle_alpha  89.980205
_cell_angle_beta   90.035426
_cell_angle_gamma 90.116341
loop_
_atom_site_label
_atom_site_type_symbol
_atom_site_fract_x
_atom_site_fract_y
_atom_site_fract_z
_atom_type_partial_charge
In0 In 0.12062 0.12359 0.38055 0.0
O1 O 0.10192 0.12587 0.41365 0.0
O2 O 0.11973 0.09514 0.40671 0.0
C3 C 0.12402 0.16878 0.38378 0.0
C4 C 0.16634 0.11699 0.37738 0.0
C5 C 0.08397 0.11171 0.3546 0.0
O6 O 0.11523 0.15671 0.39909 0.0
O7 O 0.13034 0.15812 0.36634 0.0
O8 O 0.09628 0.09709 0.36425 0.0
O9 O 0.09172 0.13156 0.35587 0.0
C10 C 0.10764 0.10636 0.42038 0.0
O11 O 0.15379 0.11665 0.35991 0.0
O12 O 0.15558 0.11867 0.39566 0.0
In13 In 0.38899 0.62628 0.8821 0.0
O14 O 0.41599 0.60235 0.86611 0.0
O15 O 0.38179 0.59709 0.8574 0.0
C16 C 0.39737 0.67182 0.87799 0.0
C17 C 0.34374 0.63006 0.88557 0.0
C18 C 0.4041 0.61231 0.92249 0.0
O19 O 0.39253 0.65962 0.86102 0.0
O20 O 0.39991 0.66076 0.89602 0.0
O21 O 0.38461 0.6075 0.91503 0.0
O22 O 0.41627 0.62419 0.9094 0.0
C23 C 0.40173 0.58976 0.85629 0.0
O24 O 0.35593 0.62223 0.90126 0.0
O25 O 0.35432 0.63567 0.86784 0.0
In26 In 0.88571 0.88342 0.38139 0.0
O27 O 0.90452 0.87835 0.4142 0.0
O28 O 0.88535 0.90877 0.41059 0.0
C29 C 0.88872 0.83825 0.37788 0.0
C30 C 0.8396 0.88741 0.38094 0.0
C31 C 0.9201 0.90061 0.35548 0.0
O32 O 0.89783 0.84932 0.39377 0.0
O33 O 0.87852 0.85008 0.36321 0.0
O34 O 0.91059 0.8819 0.35145 0.0
O35 O 0.91034 0.91203 0.37066 0.0
C36 C 0.89803 0.89673 0.42298 0.0
O37 O 0.85168 0.89666 0.3657 0.0
O38 O 0.85082 0.8773 0.39593 0.0
In39 In 0.62116 0.39286 0.88357 0.0
O40 O 0.6229 0.41874 0.85438 0.0
O41 O 0.59216 0.41681 0.8724 0.0
C42 C 0.61809 0.34654 0.88294 0.0
C43 C 0.66621 0.39653 0.87991 0.0
C44 C 0.607 0.40451 0.9251 0.0
O45 O 0.60832 0.35848 0.86793 0.0
O46 O 0.6283 0.35797 0.89773 0.0
O47 O 0.62539 0.41149 0.91668 0.0
O48 O 0.59543 0.39168 0.9124 0.0
C49 C 0.60377 0.42745 0.85794 0.0
O50 O 0.65522 0.40501 0.89618 0.0
O51 O 0.65435 0.38667 0.86501 0.0
In52 In 0.13201 0.88442 0.62498 0.0
O53 O 0.10855 0.91306 0.63837 0.0
O54 O 0.10277 0.87962 0.64994 0.0
C55 C 0.17766 0.8927 0.626 0.0
C56 C 0.13541 0.83952 0.63044 0.0
C57 C 0.11469 0.89506 0.58435 0.0
O58 O 0.16527 0.89675 0.64308 0.0
O59 O 0.16679 0.8863 0.60887 0.0
O60 O 0.11174 0.87598 0.59362 0.0
O61 O 0.12636 0.90902 0.59571 0.0
C62 C 0.09582 0.89978 0.6494 0.0
O63 O 0.13331 0.84873 0.61125 0.0
O64 O 0.13535 0.85294 0.64714 0.0
In65 In 0.62587 0.61942 0.12735 0.0
O66 O 0.6593 0.60752 0.11307 0.0
O67 O 0.65982 0.62527 0.1446 0.0
C68 C 0.60973 0.6077 0.08658 0.0
C69 C 0.60934 0.58495 0.15376 0.0
C70 C 0.62358 0.66578 0.12791 0.0
O71 O 0.62809 0.60011 0.09447 0.0
O72 O 0.5992 0.6212 0.09944 0.0
O73 O 0.614 0.654 0.14322 0.0
O74 O 0.63318 0.65417 0.1129 0.0
C75 C 0.671 0.61577 0.129 0.0
O76 O 0.62864 0.59365 0.15654 0.0
O77 O 0.59719 0.5956 0.13977 0.0
In78 In 0.88869 0.12776 0.62105 0.0
O79 O 0.89238 0.16116 0.60256 0.0
O80 O 0.88887 0.16216 0.63855 0.0
C81 C 0.90274 0.1106 0.58144 0.0
C82 C 0.92399 0.11307 0.64727 0.0
C83 C 0.84247 0.12396 0.62387 0.0
O84 O 0.90992 0.12916 0.58934 0.0
O85 O 0.8885 0.10033 0.59375 0.0
O86 O 0.85513 0.11596 0.63932 0.0
O87 O 0.85317 0.13263 0.60768 0.0
C88 C 0.89092 0.1731 0.62023 0.0
O89 O 0.91545 0.13257 0.64895 0.0
O90 O 0.913 0.09995 0.63438 0.0
In91 In 0.38315 0.39283 0.12805 0.0
O92 O 0.34878 0.40392 0.11554 0.0
O93 O 0.35001 0.38481 0.14619 0.0
C94 C 0.3959 0.40539 0.08632 0.0
C95 C 0.39989 0.42795 0.1534 0.0
C96 C 0.38806 0.34667 0.12918 0.0
O97 O 0.37725 0.41108 0.09505 0.0
O98 O 0.4085 0.39337 0.09883 0.0
O99 O 0.3953 0.35906 0.14523 0.0
O100 O 0.37967 0.35765 0.11298 0.0
C101 C 0.33795 0.39462 0.13146 0.0
O102 O 0.38082 0.41899 0.15682 0.0
O103 O 0.4118 0.41738 0.13917 0.0
In104 In 0.38504 0.12905 0.12991 0.0
O105 O 0.36872 0.1628 0.11623 0.0
O106 O 0.39194 0.16438 0.14343 0.0
C107 C 0.35924 0.09454 0.11267 0.0
C108 C 0.42546 0.11996 0.11124 0.0
C109 C 0.38758 0.11988 0.1743 0.0
O110 O 0.35488 0.10409 0.13127 0.0
O111 O 0.37464 0.10429 0.10151 0.0
O112 O 0.40487 0.12152 0.16183 0.0
O113 O 0.36882 0.12264 0.16432 0.0
C114 C 0.37948 0.17526 0.13009 0.0
O115 O 0.41764 0.10928 0.12802 0.0
O116 O 0.41276 0.1354 0.10357 0.0
In117 In 0.39479 0.88154 0.62688 0.0
O118 O 0.42002 0.85173 0.62708 0.0
O119 O 0.4201 0.87275 0.59824 0.0
C120 C 0.34857 0.88098 0.62342 0.0
C121 C 0.39864 0.87466 0.67149 0.0
C122 C 0.40561 0.92401 0.61478 0.0
O123 O 0.36068 0.86761 0.61168 0.0
O124 O 0.35978 0.89406 0.63594 0.0
O125 O 0.41195 0.91522 0.63323 0.0
O126 O 0.39384 0.91126 0.60221 0.0
C127 C 0.42985 0.85702 0.6089 0.0
O128 O 0.40737 0.89159 0.66163 0.0
O129 O 0.3884 0.86082 0.65869 0.0
In130 In 0.62987 0.88347 0.12214 0.0
O131 O 0.64631 0.84904 0.11062 0.0
O132 O 0.6152 0.84865 0.1285 0.0
C133 C 0.65618 0.91846 0.10655 0.0
C134 C 0.58935 0.89526 0.10553 0.0
C135 C 0.63093 0.88637 0.16732 0.0
O136 O 0.64304 0.90735 0.09382 0.0
O137 O 0.65827 0.90998 0.12601 0.0
O138 O 0.61489 0.89434 0.1556 0.0
O139 O 0.6469 0.8775 0.15614 0.0
C140 C 0.63066 0.83716 0.1195 0.0
O141 O 0.5971 0.9029 0.12395 0.0
O142 O 0.60223 0.88168 0.09514 0.0
In143 In 0.62483 0.1279 0.62554 0.0
O144 O 0.59876 0.15677 0.62843 0.0
O145 O 0.60078 0.14003 0.59697 0.0
C146 C 0.67106 0.12905 0.6222 0.0
C147 C 0.62187 0.13014 0.67074 0.0
C148 C 0.6126 0.08698 0.60995 0.0
O149 O 0.6589 0.14408 0.61273 0.0
O150 O 0.65988 0.11395 0.63225 0.0
O151 O 0.60535 0.09507 0.62836 0.0
O152 O 0.62613 0.09963 0.59917 0.0
C153 C 0.59005 0.1539 0.60917 0.0
O154 O 0.61397 0.11374 0.65943 0.0
O155 O 0.63077 0.14585 0.65915 0.0
In156 In 0.38089 0.88616 0.88457 0.0
O157 O 0.41266 0.90674 0.87908 0.0
O158 O 0.40977 0.88845 0.91017 0.0
C159 C 0.38601 0.88091 0.83959 0.0
C160 C 0.3762 0.84084 0.894 0.0
C161 C 0.35451 0.9223 0.89724 0.0
O162 O 0.40184 0.88741 0.85239 0.0
O163 O 0.36736 0.87726 0.84941 0.0
O164 O 0.36409 0.90962 0.91154 0.0
O165 O 0.35615 0.91522 0.87724 0.0
C166 C 0.42152 0.9015 0.89785 0.0
O167 O 0.39247 0.85278 0.90092 0.0
O168 O 0.36085 0.85213 0.8843 0.0
In169 In 0.62229 0.88342 0.381 0.0
O170 O 0.60384 0.91667 0.37723 0.0
O171 O 0.62406 0.91212 0.40683 0.0
C172 C 0.61913 0.88028 0.33595 0.0
C173 C 0.66841 0.8822 0.38437 0.0
C174 C 0.58719 0.85836 0.39804 0.0
O175 O 0.61092 0.89666 0.34699 0.0
O176 O 0.62842 0.86499 0.34776 0.0
O177 O 0.59561 0.85496 0.37875 0.0
O178 O 0.59841 0.87218 0.40991 0.0
C179 C 0.61115 0.92495 0.39555 0.0
O180 O 0.65621 0.86719 0.39391 0.0
O181 O 0.6573 0.89723 0.3742 0.0
In182 In 0.6247 0.1288 0.88514 0.0
O183 O 0.59281 0.10809 0.88115 0.0
O184 O 0.59592 0.12826 0.91098 0.0
C185 C 0.62779 0.12624 0.83995 0.0
C186 C 0.62438 0.17507 0.88892 0.0
C187 C 0.6512 0.09483 0.90229 0.0
O188 O 0.61142 0.11793 0.85095 0.0
O189 O 0.64307 0.13547 0.85185 0.0
O190 O 0.65371 0.10292 0.88271 0.0
O191 O 0.63742 0.10585 0.91434 0.0
C192 C 0.58409 0.11446 0.89959 0.0
O193 O 0.64025 0.16334 0.89748 0.0
O194 O 0.60912 0.16344 0.87964 0.0
In195 In 0.38032 0.12784 0.38591 0.0
O196 O 0.34727 0.14237 0.40211 0.0
O197 O 0.34707 0.13433 0.36727 0.0
C198 C 0.4167 0.1512 0.40305 0.0
C199 C 0.37989 0.08745 0.40683 0.0
C200 C 0.39069 0.11995 0.34232 0.0
O201 O 0.40418 0.15923 0.38767 0.0
O202 O 0.40935 0.13296 0.41134 0.0
O203 O 0.38256 0.10481 0.35508 0.0
O204 O 0.39403 0.13891 0.35168 0.0
C205 C 0.33566 0.14036 0.38417 0.0
O206 O 0.39434 0.09258 0.39191 0.0
O207 O 0.36575 0.10279 0.41144 0.0
In208 In 0.12415 0.38065 0.12481 0.0
O209 O 0.15777 0.39633 0.1153 0.0
O210 O 0.15831 0.36448 0.13243 0.0
C211 C 0.10812 0.42084 0.11121 0.0
C212 C 0.10924 0.35385 0.09003 0.0
C213 C 0.11961 0.37982 0.17088 0.0
O214 O 0.12684 0.41293 0.10461 0.0
O215 O 0.09711 0.40827 0.12467 0.0
O216 O 0.1139 0.36288 0.15886 0.0
O217 O 0.12614 0.39666 0.15957 0.0
C218 C 0.1695 0.38064 0.12388 0.0
O219 O 0.12878 0.35243 0.09846 0.0
O220 O 0.09613 0.36665 0.10103 0.0
In221 In 0.13093 0.62635 0.89197 0.0
O222 O 0.16531 0.61722 0.90606 0.0
O223 O 0.16281 0.6473 0.88605 0.0
C224 C 0.12002 0.58363 0.90332 0.0
C225 C 0.11099 0.65109 0.92574 0.0
C226 C 0.12803 0.62658 0.84572 0.0
O227 O 0.13802 0.59319 0.90982 0.0
O228 O 0.1073 0.59569 0.89103 0.0
O229 O 0.11571 0.63952 0.85767 0.0
O230 O 0.14092 0.61402 0.85707 0.0
C231 C 0.17536 0.63394 0.89716 0.0
O232 O 0.12929 0.65685 0.91638 0.0
O233 O 0.10133 0.63459 0.91617 0.0
In234 In 0.88136 0.62391 0.38336 0.0
O235 O 0.91309 0.6274 0.40432 0.0
O236 O 0.90939 0.59728 0.38465 0.0
C237 C 0.8796 0.66921 0.38467 0.0
C238 C 0.88183 0.61953 0.3372 0.0
C239 C 0.85437 0.60857 0.41781 0.0
O240 O 0.89585 0.658 0.3929 0.0
O241 O 0.86375 0.65748 0.37622 0.0
O242 O 0.8527 0.62811 0.40937 0.0
O243 O 0.86743 0.59566 0.40689 0.0
C244 C 0.92135 0.6086 0.39838 0.0
O245 O 0.86563 0.61154 0.34893 0.0
O246 O 0.89734 0.62841 0.34881 0.0
In247 In 0.88032 0.38393 0.88887 0.0
O248 O 0.8466 0.4004 0.8968 0.0
O249 O 0.84604 0.36872 0.87949 0.0
C250 C 0.89575 0.42415 0.90323 0.0
C251 C 0.89492 0.357 0.92377 0.0
C252 C 0.88671 0.3827 0.84298 0.0
O253 O 0.87649 0.41644 0.90855 0.0
O254 O 0.90755 0.41135 0.89074 0.0
O255 O 0.88669 0.36473 0.85478 0.0
O256 O 0.88522 0.40057 0.85448 0.0
C257 C 0.83486 0.38502 0.88764 0.0
O258 O 0.90842 0.36847 0.91176 0.0
O259 O 0.87489 0.3571 0.9165 0.0
In260 In 0.13366 0.37995 0.38773 0.0
O261 O 0.14712 0.39488 0.35332 0.0
O262 O 0.12373 0.3676 0.35289 0.0
C263 C 0.15596 0.40114 0.42244 0.0
C264 C 0.09014 0.38998 0.39565 0.0
C265 C 0.14116 0.33596 0.39527 0.0
O266 O 0.16312 0.3832 0.41334 0.0
O267 O 0.13956 0.40996 0.41202 0.0
O268 O 0.12422 0.34635 0.40317 0.0
O269 O 0.15492 0.34802 0.38405 0.0
C270 C 0.13548 0.38117 0.34144 0.0
O271 O 0.09959 0.37242 0.40335 0.0
O272 O 0.10279 0.40282 0.38406 0.0
In273 In 0.88475 0.62577 0.1197 0.0
O274 O 0.85087 0.61106 0.10945 0.0
O275 O 0.85102 0.64297 0.12655 0.0
C276 C 0.90066 0.58542 0.10634 0.0
C277 C 0.89973 0.65269 0.08495 0.0
C278 C 0.88867 0.62594 0.16591 0.0
O279 O 0.88196 0.59335 0.09967 0.0
O280 O 0.91162 0.59799 0.11984 0.0
O281 O 0.89749 0.6416 0.154 0.0
O282 O 0.87915 0.6107 0.15446 0.0
C283 C 0.83948 0.62712 0.11781 0.0
O284 O 0.91245 0.6388 0.09505 0.0
O285 O 0.88074 0.65514 0.09433 0.0
In286 In 0.88249 0.3864 0.63098 0.0
O287 O 0.91747 0.37929 0.64379 0.0
O288 O 0.91089 0.41308 0.63256 0.0
C289 C 0.88541 0.34196 0.62114 0.0
C290 C 0.86544 0.39171 0.67371 0.0
C291 C 0.86855 0.40336 0.59002 0.0
O292 O 0.9024 0.35413 0.62553 0.0
O293 O 0.86672 0.35233 0.62086 0.0
O294 O 0.85458 0.39689 0.60495 0.0
O295 O 0.88888 0.40247 0.59632 0.0
C296 C 0.92488 0.39917 0.64096 0.0
O297 O 0.87305 0.40821 0.66236 0.0
O298 O 0.86354 0.37375 0.6624 0.0
In299 In 0.126 0.62654 0.62937 0.0
O300 O 0.14455 0.61392 0.66227 0.0
O301 O 0.11008 0.62333 0.66408 0.0
C302 C 0.14967 0.61113 0.5927 0.0
C303 C 0.08491 0.617 0.61262 0.0
C304 C 0.13175 0.67139 0.63343 0.0
O305 O 0.1512 0.63102 0.60031 0.0
O306 O 0.13799 0.59801 0.60499 0.0
O307 O 0.1125 0.66226 0.63156 0.0
O308 O 0.14837 0.65792 0.63284 0.0
C309 C 0.12739 0.61717 0.67476 0.0
O310 O 0.09458 0.63589 0.60961 0.0
O311 O 0.09619 0.60267 0.62387 0.0
In312 In 0.89148 0.88724 0.63264 0.0
O313 O 0.88323 0.8544 0.61419 0.0
O314 O 0.90105 0.85211 0.64548 0.0
C315 C 0.90084 0.89744 0.58927 0.0
C316 C 0.84699 0.89443 0.64425 0.0
C317 C 0.92849 0.90481 0.65484 0.0
O318 O 0.91007 0.88113 0.59958 0.0
O319 O 0.88679 0.90863 0.60084 0.0
O320 O 0.919 0.91459 0.63845 0.0
O321 O 0.91768 0.88778 0.66188 0.0
C322 C 0.89212 0.84178 0.62899 0.0
O323 O 0.85859 0.8783 0.65191 0.0
O324 O 0.85851 0.9086 0.63317 0.0
In325 In 0.62562 0.38276 0.12976 0.0
O326 O 0.65983 0.39206 0.1152 0.0
O327 O 0.65919 0.37488 0.14698 0.0
C328 C 0.61101 0.39769 0.08954 0.0
C329 C 0.62033 0.33657 0.12977 0.0
C330 C 0.61012 0.41767 0.15613 0.0
O331 O 0.63038 0.40238 0.09738 0.0
O332 O 0.59877 0.38531 0.10209 0.0
O333 O 0.59708 0.40597 0.1438 0.0
O334 O 0.6299 0.40987 0.15733 0.0
C335 C 0.67097 0.38362 0.13138 0.0
O336 O 0.61773 0.34814 0.1477 0.0
O337 O 0.624 0.34838 0.11242 0.0
In338 In 0.12704 0.1247 0.62599 0.0
O339 O 0.13623 0.15593 0.60511 0.0
O340 O 0.11447 0.16026 0.63356 0.0
C341 C 0.11594 0.11 0.58426 0.0
C342 C 0.17161 0.11986 0.63855 0.0
C343 C 0.09143 0.10866 0.6512 0.0
O344 O 0.13192 0.10128 0.59548 0.0
O345 O 0.10595 0.12616 0.59397 0.0
O346 O 0.10108 0.09714 0.63607 0.0
O347 O 0.10166 0.12687 0.65578 0.0
C348 C 0.12484 0.16938 0.61722 0.0
O349 O 0.15979 0.13683 0.64366 0.0
O350 O 0.16033 0.10406 0.62956 0.0
In351 In 0.38502 0.6303 0.12599 0.0
O352 O 0.35117 0.62246 0.10971 0.0
O353 O 0.35095 0.63797 0.14233 0.0
C354 C 0.40098 0.61575 0.08612 0.0
C355 C 0.39073 0.67633 0.12776 0.0
C356 C 0.39965 0.59512 0.15247 0.0
O357 O 0.38181 0.61011 0.09377 0.0
O358 O 0.41236 0.62892 0.09867 0.0
O359 O 0.41309 0.60716 0.14095 0.0
O360 O 0.37969 0.60258 0.15276 0.0
C361 C 0.33959 0.6304 0.12582 0.0
O362 O 0.39386 0.66396 0.14507 0.0
O363 O 0.38628 0.66535 0.11005 0.0
In364 In 0.87978 0.12712 0.37882 0.0
O365 O 0.90386 0.09967 0.36378 0.0
O366 O 0.90888 0.13377 0.35411 0.0
C367 C 0.83394 0.12006 0.37574 0.0
C368 C 0.89575 0.11187 0.41841 0.0
C369 C 0.87814 0.17252 0.37905 0.0
O370 O 0.84639 0.12037 0.35826 0.0
O371 O 0.84481 0.12142 0.39398 0.0
O372 O 0.88026 0.16101 0.39695 0.0
O373 O 0.87702 0.16113 0.36096 0.0
C374 C 0.91637 0.11382 0.35362 0.0
O375 O 0.89946 0.13173 0.41123 0.0
O376 O 0.88391 0.09948 0.40549 0.0
In377 In 0.38996 0.38451 0.87857 0.0
O378 O 0.35686 0.37606 0.89644 0.0
O379 O 0.35539 0.38711 0.86207 0.0
C380 C 0.39921 0.39939 0.92058 0.0
C381 C 0.39962 0.33957 0.87106 0.0
C382 C 0.40461 0.42194 0.85493 0.0
O383 O 0.38036 0.40269 0.91102 0.0
O384 O 0.41352 0.38867 0.90886 0.0
O385 O 0.41787 0.40999 0.86669 0.0
O386 O 0.38511 0.41355 0.85314 0.0
C387 C 0.34472 0.38049 0.87938 0.0
O388 O 0.38914 0.35156 0.85682 0.0
O389 O 0.40752 0.35082 0.88732 0.0
In390 In 0.12315 0.88178 0.37881 0.0
O391 O 0.09984 0.91036 0.36493 0.0
O392 O 0.09342 0.87673 0.35446 0.0
C393 C 0.16836 0.89061 0.3731 0.0
C394 C 0.10702 0.89322 0.4197 0.0
C395 C 0.12663 0.83642 0.37948 0.0
O396 O 0.15575 0.88535 0.35658 0.0
O397 O 0.15775 0.89363 0.39126 0.0
O398 O 0.12957 0.84845 0.3969 0.0
O399 O 0.12173 0.84723 0.36168 0.0
C400 C 0.08675 0.89697 0.35449 0.0
O401 O 0.10375 0.87394 0.41095 0.0
O402 O 0.1182 0.90694 0.40762 0.0
In403 In 0.62206 0.6291 0.88106 0.0
O404 O 0.62872 0.66364 0.89639 0.0
O405 O 0.60958 0.66378 0.86602 0.0
C406 C 0.60424 0.5947 0.85545 0.0
C407 C 0.66698 0.6255 0.87617 0.0
C408 C 0.6084 0.61591 0.92226 0.0
O409 O 0.62332 0.6035 0.85166 0.0
O410 O 0.59281 0.60528 0.87005 0.0
O411 O 0.627 0.60984 0.91368 0.0
O412 O 0.59648 0.62881 0.91 0.0
C413 C 0.61893 0.67539 0.88158 0.0
O414 O 0.65642 0.61707 0.89278 0.0
O415 O 0.65476 0.63546 0.86165 0.0
In416 In 0.62859 0.89306 0.88507 0.0
O417 O 0.59534 0.91089 0.87889 0.0
O418 O 0.59923 0.89296 0.91006 0.0
C419 C 0.63538 0.89693 0.84045 0.0
C420 C 0.65346 0.92778 0.90344 0.0
C421 C 0.62813 0.84675 0.88811 0.0
O422 O 0.61847 0.90555 0.85032 0.0
O423 O 0.64925 0.88677 0.85325 0.0
O424 O 0.64279 0.85842 0.89876 0.0
O425 O 0.61423 0.85844 0.87702 0.0
C426 C 0.58664 0.90491 0.89751 0.0
O427 O 0.65824 0.91852 0.88483 0.0
O428 O 0.6381 0.91757 0.91425 0.0
In429 In 0.61974 0.13304 0.38059 0.0
O430 O 0.59422 0.1421 0.4088 0.0
O431 O 0.59364 0.16234 0.37948 0.0
C432 C 0.66478 0.1444 0.38476 0.0
C433 C 0.6106 0.09061 0.3947 0.0
C434 C 0.61581 0.126 0.33579 0.0
O435 O 0.65338 0.14764 0.36709 0.0
O436 O 0.65296 0.13797 0.40137 0.0
O437 O 0.62351 0.11117 0.34914 0.0
O438 O 0.60991 0.14438 0.34506 0.0
C439 C 0.58403 0.15729 0.39785 0.0
O440 O 0.59904 0.10063 0.37978 0.0
O441 O 0.62698 0.10197 0.40251 0.0
In442 In 0.37984 0.12573 0.88623 0.0
O443 O 0.36375 0.10166 0.91321 0.0
O444 O 0.3541 0.09746 0.87912 0.0
C445 C 0.37833 0.17142 0.89454 0.0
C446 C 0.42014 0.11092 0.90059 0.0
C447 C 0.38131 0.12896 0.84093 0.0
O448 O 0.36053 0.16005 0.89067 0.0
O449 O 0.39589 0.15953 0.89616 0.0
O450 O 0.39698 0.12002 0.85241 0.0
O451 O 0.36469 0.1361 0.85231 0.0
C452 C 0.35328 0.08965 0.89891 0.0
O453 O 0.41284 0.10744 0.88076 0.0
O454 O 0.40692 0.12183 0.91345 0.0
In455 In 0.38051 0.8851 0.38198 0.0
O456 O 0.40498 0.85511 0.39034 0.0
O457 O 0.41517 0.88861 0.39841 0.0
C458 C 0.33721 0.86853 0.38379 0.0
C459 C 0.3737 0.92505 0.40233 0.0
C460 C 0.39247 0.89231 0.3386 0.0
O461 O 0.34866 0.86972 0.36589 0.0
O462 O 0.3485 0.87292 0.40144 0.0
O463 O 0.38595 0.90803 0.3515 0.0
O464 O 0.39344 0.87296 0.3477 0.0
C465 C 0.42043 0.86796 0.39798 0.0
O466 O 0.36931 0.92166 0.38168 0.0
O467 O 0.38165 0.90824 0.41295 0.0
In468 In 0.63223 0.12219 0.123 0.0
O469 O 0.6403 0.09532 0.09571 0.0
O470 O 0.66241 0.09706 0.1236 0.0
C471 C 0.64436 0.16716 0.12029 0.0
C472 C 0.59009 0.11511 0.10722 0.0
C473 C 0.6242 0.11699 0.16755 0.0
O474 O 0.64619 0.1554 0.13793 0.0
O475 O 0.63897 0.15571 0.10303 0.0
O476 O 0.60989 0.12556 0.15418 0.0
O477 O 0.64247 0.11072 0.15839 0.0
C478 C 0.65652 0.08626 0.10614 0.0
O479 O 0.59912 0.10277 0.12215 0.0
O480 O 0.60235 0.13119 0.10014 0.0
In481 In 0.38753 0.13108 0.62661 0.0
O482 O 0.39736 0.11766 0.66108 0.0
O483 O 0.37895 0.14867 0.65995 0.0
C484 C 0.40168 0.08982 0.61423 0.0
C485 C 0.34148 0.13157 0.62043 0.0
C486 C 0.42277 0.15655 0.61018 0.0
O487 O 0.40622 0.09853 0.63325 0.0
O488 O 0.3899 0.10206 0.60112 0.0
O489 O 0.41133 0.14342 0.59774 0.0
O490 O 0.41459 0.15896 0.6297 0.0
C491 C 0.38834 0.13366 0.67197 0.0
O492 O 0.35335 0.14936 0.61796 0.0
O493 O 0.35294 0.1141 0.62449 0.0
In494 In 0.38347 0.89204 0.12648 0.0
O495 O 0.41647 0.91146 0.12448 0.0
O496 O 0.41261 0.88311 0.10254 0.0
C497 C 0.39022 0.8997 0.17081 0.0
C498 C 0.35833 0.92736 0.10992 0.0
C499 C 0.37261 0.8467 0.12482 0.0
O500 O 0.40558 0.89218 0.15798 0.0
O501 O 0.37147 0.90359 0.16122 0.0
O502 O 0.37624 0.85758 0.14273 0.0
O503 O 0.37239 0.85903 0.10729 0.0
C504 C 0.42502 0.89925 0.1092 0.0
O505 O 0.37499 0.919 0.09959 0.0
O506 O 0.3525 0.91611 0.12714 0.0
In507 In 0.63235 0.88372 0.62645 0.0
O508 O 0.66634 0.86386 0.62212 0.0
O509 O 0.66676 0.89955 0.61885 0.0
C510 C 0.59698 0.85676 0.61288 0.0
C511 C 0.63401 0.88715 0.67179 0.0
C512 C 0.61727 0.92322 0.61011 0.0
O513 O 0.60942 0.8672 0.59894 0.0
O514 O 0.60409 0.85773 0.63294 0.0
O515 O 0.61234 0.91599 0.62965 0.0
O516 O 0.62991 0.91037 0.59852 0.0
C517 C 0.6782 0.88162 0.61968 0.0
O518 O 0.6261 0.90256 0.65928 0.0
O519 O 0.64081 0.86969 0.66146 0.0
In520 In 0.88147 0.62861 0.88171 0.0
O521 O 0.84757 0.61161 0.88745 0.0
O522 O 0.84744 0.64484 0.87329 0.0
C523 C 0.89584 0.58824 0.89659 0.0
C524 C 0.88863 0.631 0.83588 0.0
C525 C 0.89579 0.65434 0.91769 0.0
O526 O 0.87633 0.59595 0.90076 0.0
O527 O 0.90838 0.601 0.88472 0.0
O528 O 0.90947 0.644 0.90492 0.0
O529 O 0.87567 0.65387 0.91068 0.0
C530 C 0.83605 0.62789 0.87979 0.0
O531 O 0.88744 0.64867 0.84802 0.0
O532 O 0.88802 0.61285 0.84704 0.0
In533 In 0.88545 0.38193 0.12568 0.0
O534 O 0.89162 0.36326 0.16014 0.0
O535 O 0.89079 0.39912 0.15978 0.0
C536 C 0.89926 0.35509 0.09046 0.0
C537 C 0.84007 0.38211 0.12671 0.0
C538 C 0.90074 0.42179 0.1104 0.0
O539 O 0.91311 0.36619 0.10243 0.0
O540 O 0.87937 0.35535 0.09804 0.0
O541 O 0.88097 0.41456 0.10643 0.0
O542 O 0.91305 0.40878 0.12218 0.0
C543 C 0.89196 0.38144 0.17161 0.0
O544 O 0.8515 0.39798 0.118 0.0
O545 O 0.85156 0.36594 0.13475 0.0
In546 In 0.13259 0.38077 0.62827 0.0
O547 O 0.09629 0.37313 0.63666 0.0
O548 O 0.10515 0.40794 0.63195 0.0
C549 C 0.13126 0.33748 0.61416 0.0
C550 C 0.14905 0.40008 0.5894 0.0
C551 C 0.14662 0.38295 0.67245 0.0
O552 O 0.11376 0.34954 0.61621 0.0
O553 O 0.14969 0.34745 0.6187 0.0
O554 O 0.14597 0.36497 0.66106 0.0
O555 O 0.14287 0.40057 0.66086 0.0
C556 C 0.08995 0.39356 0.6367 0.0
O557 O 0.16199 0.39104 0.60391 0.0
O558 O 0.12862 0.40073 0.59536 0.0
In559 In 0.12575 0.62671 0.12615 0.0
O560 O 0.15964 0.6145 0.11324 0.0
O561 O 0.15865 0.64617 0.13081 0.0
C562 C 0.11103 0.58528 0.11456 0.0
C563 C 0.12392 0.62721 0.1724 0.0
C564 C 0.10757 0.65244 0.09213 0.0
O565 O 0.12937 0.5936 0.10731 0.0
O566 O 0.09997 0.59791 0.12783 0.0
O567 O 0.12652 0.6566 0.10101 0.0
O568 O 0.09647 0.63734 0.10241 0.0
C569 C 0.17051 0.63132 0.12091 0.0
O570 O 0.13532 0.61349 0.16081 0.0
O571 O 0.11249 0.64119 0.16069 0.0
In572 In 0.87603 0.62732 0.62169 0.0
O573 O 0.9086 0.63464 0.60251 0.0
O574 O 0.9076 0.60521 0.62333 0.0
C575 C 0.87987 0.67275 0.62168 0.0
C576 C 0.85248 0.61019 0.58526 0.0
C577 C 0.86605 0.61946 0.66659 0.0
O578 O 0.89503 0.65994 0.62964 0.0
O579 O 0.86285 0.66263 0.6135 0.0
O580 O 0.85731 0.63525 0.65527 0.0
O581 O 0.87753 0.606 0.65471 0.0
C582 C 0.91892 0.61747 0.60993 0.0
O583 O 0.86812 0.59956 0.59508 0.0
O584 O 0.84685 0.62807 0.59543 0.0
In585 In 0.13057 0.37656 0.88692 0.0
O586 O 0.16461 0.39404 0.8839 0.0
O587 O 0.1644 0.35799 0.88642 0.0
C588 C 0.11935 0.41749 0.90297 0.0
C589 C 0.12249 0.37251 0.84133 0.0
C590 C 0.11486 0.35222 0.92318 0.0
O591 O 0.13836 0.40841 0.90672 0.0
O592 O 0.10571 0.40567 0.89138 0.0
O593 O 0.10175 0.36336 0.91044 0.0
O594 O 0.13496 0.35149 0.91617 0.0
C595 C 0.17593 0.37593 0.88442 0.0
O596 O 0.1255 0.35529 0.85376 0.0
O597 O 0.12141 0.39076 0.85221 0.0
In598 In 0.12501 0.62241 0.38937 0.0
O599 O 0.09262 0.6262 0.40926 0.0
O600 O 0.09759 0.59526 0.39119 0.0
C601 C 0.12701 0.66772 0.38909 0.0
C602 C 0.15 0.6078 0.42552 0.0
C603 C 0.12666 0.61702 0.34339 0.0
O604 O 0.10877 0.65693 0.39221 0.0
O605 O 0.14452 0.65563 0.38669 0.0
O606 O 0.10993 0.62418 0.35432 0.0
O607 O 0.14323 0.61109 0.35577 0.0
C608 C 0.08486 0.60698 0.4038 0.0
O609 O 0.13827 0.59439 0.4136 0.0
O610 O 0.15117 0.62758 0.41757 0.0
In611 In 0.87791 0.38716 0.38406 0.0
O612 O 0.91083 0.3772 0.40131 0.0
O613 O 0.91146 0.4056 0.37908 0.0
C614 C 0.87714 0.34167 0.38421 0.0
C615 C 0.85905 0.40661 0.42187 0.0
C616 C 0.86606 0.39591 0.33993 0.0
O617 O 0.89233 0.35295 0.3742 0.0
O618 O 0.86245 0.35334 0.39448 0.0
O619 O 0.8571 0.38042 0.35155 0.0
O620 O 0.87851 0.40894 0.35139 0.0
C621 C 0.92235 0.39282 0.39231 0.0
O622 O 0.85033 0.38979 0.41198 0.0
O623 O 0.8753 0.41525 0.41109 0.0
H624 H 0.16851 0.30788 0.37065 0.0
H625 H 0.1094 0.19548 0.41842 0.0
H626 H 0.11741 0.30772 0.42289 0.0
H627 H 0.14769 0.19751 0.35617 0.0
H628 H 0.11681 0.23588 0.42377 0.0
H629 H 0.16636 0.2664 0.36917 0.0
C630 C 0.15716 0.29908 0.38208 0.0
C631 C 0.14297 0.31115 0.39677 0.0
C632 C 0.12359 0.22749 0.40894 0.0
C633 C 0.14027 0.264 0.39504 0.0
C634 C 0.11931 0.20447 0.40584 0.0
C635 C 0.12778 0.19326 0.38672 0.0
C636 C 0.13653 0.23933 0.39285 0.0
C637 C 0.14068 0.20563 0.37104 0.0
C638 C 0.1558 0.27547 0.38111 0.0
C639 C 0.1285 0.29901 0.41118 0.0
N640 N 0.14467 0.22806 0.37445 0.0
N641 N 0.12741 0.27608 0.40986 0.0
H642 H 0.31425 0.65095 0.85654 0.0
H643 H 0.20473 0.61143 0.92465 0.0
H644 H 0.31719 0.61501 0.92018 0.0
H645 H 0.2023 0.66148 0.87135 0.0
H646 H 0.24603 0.61229 0.92302 0.0
H647 H 0.27315 0.65448 0.86099 0.0
C648 C 0.30623 0.64382 0.87144 0.0
C649 C 0.31905 0.63256 0.88796 0.0
C650 C 0.23649 0.62327 0.91183 0.0
C651 C 0.27224 0.63652 0.89315 0.0
C652 C 0.21293 0.62278 0.91276 0.0
C653 C 0.20015 0.63635 0.89806 0.0
C654 C 0.24734 0.63719 0.89585 0.0
C655 C 0.21158 0.65077 0.883 0.0
C656 C 0.28283 0.64594 0.87402 0.0
C657 C 0.3079 0.62376 0.907 0.0
N658 N 0.23459 0.65064 0.8821 0.0
N659 N 0.2851 0.6258 0.90901 0.0
H660 H 0.91322 0.80994 0.40469 0.0
H661 H 0.85056 0.69753 0.3622 0.0
H662 H 0.86369 0.80998 0.35089 0.0
H663 H 0.9097 0.69747 0.40523 0.0
H664 H 0.85319 0.73895 0.35957 0.0
H665 H 0.91073 0.76871 0.40642 0.0
C666 C 0.90194 0.80122 0.39312 0.0
C667 C 0.88865 0.81332 0.37761 0.0
C668 C 0.86556 0.72983 0.36959 0.0
C669 C 0.88549 0.76618 0.37967 0.0
C670 C 0.86398 0.70626 0.3712 0.0
C671 C 0.87994 0.69414 0.38395 0.0
C672 C 0.8831 0.74125 0.38095 0.0
C673 C 0.89706 0.70619 0.3952 0.0
C674 C 0.90049 0.77769 0.39413 0.0
C675 C 0.87428 0.80122 0.36303 0.0
N676 N 0.89818 0.72909 0.39345 0.0
N677 N 0.87296 0.77825 0.3645 0.0
H678 H 0.80608 0.35745 0.86388 0.0
H679 H 0.69474 0.42057 0.9071 0.0
H680 H 0.80729 0.41623 0.90742 0.0
H681 H 0.69426 0.3725 0.85198 0.0
H682 H 0.73597 0.41816 0.90844 0.0
H683 H 0.76489 0.36121 0.86061 0.0
C684 C 0.79765 0.37108 0.87281 0.0
C685 C 0.81003 0.38653 0.88599 0.0
C686 C 0.72689 0.40826 0.89593 0.0
C687 C 0.76312 0.39096 0.88229 0.0
C688 C 0.70336 0.40964 0.89515 0.0
C689 C 0.69113 0.3967 0.87941 0.0
C690 C 0.73825 0.39363 0.88103 0.0
C691 C 0.7031 0.3828 0.86433 0.0
C692 C 0.7742 0.37329 0.87084 0.0
C693 C 0.79836 0.40395 0.8971 0.0
N694 N 0.72604 0.38149 0.86563 0.0
N695 N 0.77554 0.40565 0.89506 0.0
H696 H 0.10215 0.70073 0.65271 0.0
H697 H 0.15363 0.81012 0.60022 0.0
H698 H 0.16718 0.69776 0.61958 0.0
H699 H 0.1222 0.81315 0.6661 0.0
H700 H 0.15547 0.76871 0.60349 0.0
H701 H 0.10557 0.74214 0.65468 0.0
C702 C 0.11718 0.70885 0.64595 0.0
C703 C 0.13439 0.69601 0.63589 0.0
C704 C 0.1484 0.77851 0.6173 0.0
C705 C 0.13816 0.743 0.63773 0.0
C706 C 0.1472 0.80201 0.6154 0.0
C707 C 0.13766 0.81487 0.63291 0.0
C708 C 0.13938 0.76788 0.63652 0.0
C709 C 0.12969 0.80371 0.65229 0.0
C710 C 0.11916 0.73235 0.64721 0.0
C711 C 0.1536 0.70719 0.62749 0.0
N712 N 0.13036 0.7807 0.65344 0.0
N713 N 0.15481 0.73019 0.62823 0.0
H714 H 0.69844 0.59287 0.09987 0.0
H715 H 0.81124 0.65535 0.14119 0.0
H716 H 0.70008 0.63946 0.15622 0.0
H717 H 0.81123 0.59713 0.09689 0.0
H718 H 0.77005 0.65205 0.14465 0.0
H719 H 0.73958 0.5959 0.09677 0.0
C720 C 0.70751 0.6036 0.11171 0.0
C721 C 0.69591 0.61592 0.12834 0.0
C722 C 0.77908 0.64003 0.13415 0.0
C723 C 0.74286 0.61972 0.1247 0.0
C724 C 0.80253 0.642 0.13205 0.0
C725 C 0.81458 0.62649 0.11873 0.0
C726 C 0.76766 0.62253 0.1227 0.0
C727 C 0.80254 0.60943 0.10735 0.0
C728 C 0.73097 0.60535 0.10991 0.0
C729 C 0.70843 0.62961 0.14322 0.0
N730 N 0.77972 0.60792 0.10958 0.0
N731 N 0.73127 0.63127 0.14095 0.0
H732 H 0.87724 0.1997 0.5852 0.0
H733 H 0.91873 0.31524 0.63789 0.0
H734 H 0.90387 0.20281 0.65321 0.0
H735 H 0.8561 0.31253 0.60025 0.0
H736 H 0.92042 0.27377 0.63722 0.0
H737 H 0.87596 0.24133 0.58428 0.0
C738 C 0.88296 0.20919 0.59985 0.0
C739 C 0.89069 0.19798 0.61932 0.0
C740 C 0.9064 0.28233 0.62902 0.0
C741 C 0.88961 0.24514 0.61818 0.0
C742 C 0.90549 0.3059 0.62923 0.0
C743 C 0.88722 0.3172 0.6191 0.0
C744 C 0.88925 0.27006 0.61812 0.0
C745 C 0.8704 0.30435 0.60828 0.0
C746 C 0.8821 0.2328 0.59933 0.0
C747 C 0.89775 0.21091 0.63793 0.0
N748 N 0.87188 0.28134 0.60792 0.0
N749 N 0.89727 0.23391 0.63683 0.0
H750 H 0.30911 0.41851 0.10467 0.0
H751 H 0.19854 0.3527 0.14677 0.0
H752 H 0.31031 0.36901 0.15853 0.0
H753 H 0.19687 0.41177 0.10361 0.0
H754 H 0.23974 0.3567 0.14977 0.0
H755 H 0.26799 0.41505 0.10294 0.0
C756 C 0.30066 0.40702 0.11625 0.0
C757 C 0.31305 0.39401 0.13176 0.0
C758 C 0.23033 0.36877 0.13965 0.0
C759 C 0.26606 0.38975 0.1297 0.0
C760 C 0.20688 0.36641 0.13782 0.0
C761 C 0.19436 0.38191 0.12489 0.0
C762 C 0.24125 0.38666 0.12832 0.0
C763 C 0.20591 0.39945 0.11374 0.0
C764 C 0.2772 0.40504 0.11525 0.0
C765 C 0.30131 0.37939 0.14638 0.0
N766 N 0.22872 0.40132 0.11569 0.0
N767 N 0.27841 0.37752 0.14489 0.0
H768 H 0.3548 0.1049 0.20337 0.0
H769 H 0.41763 0.14409 0.31358 0.0
H770 H 0.4244 0.12726 0.20103 0.0
H771 H 0.36979 0.08871 0.31548 0.0
H772 H 0.4187 0.14113 0.27217 0.0
H773 H 0.35776 0.1017 0.24473 0.0
C774 C 0.37071 0.10899 0.21157 0.0
C775 C 0.38937 0.1164 0.1989 0.0
C776 C 0.40822 0.12945 0.28172 0.0
C777 C 0.39273 0.11313 0.24586 0.0
C778 C 0.40758 0.13115 0.30526 0.0
C779 C 0.39361 0.11662 0.31783 0.0
C780 C 0.39433 0.11352 0.27077 0.0
C781 C 0.38086 0.10015 0.30633 0.0
C782 C 0.37242 0.10706 0.23507 0.0
C783 C 0.40964 0.12145 0.21025 0.0
N784 N 0.38122 0.09928 0.28334 0.0
N785 N 0.4107 0.12004 0.23317 0.0
H786 H 0.37274 0.8465 0.69763 0.0
H787 H 0.42244 0.89372 0.81438 0.0
H788 H 0.42483 0.8978 0.70168 0.0
H789 H 0.35699 0.86141 0.80909 0.0
H790 H 0.4273 0.88967 0.77349 0.0
H791 H 0.37072 0.84593 0.7391 0.0
C792 C 0.38394 0.85741 0.70726 0.0
C793 C 0.39889 0.87231 0.6963 0.0
C794 C 0.4119 0.88342 0.78129 0.0
C795 C 0.39666 0.87175 0.74348 0.0
C796 C 0.40912 0.8857 0.8046 0.0
C797 C 0.3892 0.87804 0.81504 0.0
C798 C 0.39473 0.87321 0.76838 0.0
C799 C 0.37252 0.8677 0.80161 0.0
C800 C 0.38268 0.85718 0.73087 0.0
C801 C 0.41298 0.88616 0.70951 0.0
N802 N 0.37565 0.86558 0.77891 0.0
N803 N 0.41149 0.88558 0.73244 0.0
H804 H 0.65913 0.86394 0.19639 0.0
H805 H 0.59617 0.90831 0.30743 0.0
H806 H 0.60069 0.90778 0.19473 0.0
H807 H 0.64302 0.85221 0.30796 0.0
H808 H 0.59925 0.91005 0.26624 0.0
H809 H 0.65569 0.86163 0.23766 0.0
C810 C 0.6457 0.87322 0.20475 0.0
C811 C 0.63017 0.88608 0.19222 0.0
C812 C 0.60875 0.89726 0.27534 0.0
C813 C 0.62606 0.88341 0.2392 0.0
C814 C 0.60697 0.89625 0.29883 0.0
C815 C 0.61936 0.88009 0.31104 0.0
C816 C 0.62321 0.88217 0.26403 0.0
C817 C 0.63313 0.86487 0.29911 0.0
C818 C 0.64365 0.87176 0.22824 0.0
C819 C 0.613 0.89766 0.2038 0.0
N820 N 0.63481 0.86638 0.27622 0.0
N821 N 0.61142 0.89607 0.22666 0.0
H822 H 0.65658 0.14933 0.81181 0.0
H823 H 0.5997 0.10096 0.69882 0.0
H824 H 0.59963 0.10332 0.81149 0.0
H825 H 0.6444 0.15897 0.69926 0.0
H826 H 0.60171 0.09957 0.7401 0.0
H827 H 0.65505 0.15073 0.77033 0.0
C828 C 0.64388 0.1394 0.80299 0.0
C829 C 0.62819 0.1262 0.81502 0.0
C830 C 0.611 0.11268 0.73119 0.0
C831 C 0.62629 0.12778 0.76781 0.0
C832 C 0.60985 0.11349 0.70764 0.0
C833 C 0.62187 0.13014 0.69567 0.0
C834 C 0.62446 0.1285 0.74284 0.0
C835 C 0.63479 0.14592 0.70791 0.0
C836 C 0.64293 0.14032 0.77937 0.0
C837 C 0.61201 0.11375 0.80284 0.0
N838 N 0.63586 0.14465 0.73087 0.0
N839 N 0.61149 0.11483 0.77989 0.0
H840 H 0.91427 0.81106 0.65561 0.0
H841 H 0.85235 0.70374 0.60112 0.0
H842 H 0.86819 0.81593 0.59904 0.0
H843 H 0.9119 0.69829 0.6432 0.0
H844 H 0.85585 0.74507 0.60239 0.0
H845 H 0.91173 0.76968 0.6535 0.0
C846 C 0.90368 0.8034 0.64271 0.0
C847 C 0.89144 0.81687 0.62746 0.0
C848 C 0.86819 0.73482 0.61127 0.0
C849 C 0.88831 0.7697 0.62507 0.0
C850 C 0.86617 0.71126 0.6106 0.0
C851 C 0.88188 0.69764 0.62206 0.0
C852 C 0.88591 0.74477 0.62367 0.0
C853 C 0.89947 0.70821 0.63409 0.0
C854 C 0.90227 0.77982 0.64149 0.0
C855 C 0.87796 0.80613 0.61107 0.0
N856 N 0.90096 0.73119 0.63467 0.0
N857 N 0.87665 0.78315 0.61039 0.0
H858 H 0.8119 0.41205 0.10582 0.0
H859 H 0.69907 0.36113 0.16052 0.0
H860 H 0.8118 0.3534 0.14961 0.0
H861 H 0.69936 0.40623 0.10291 0.0
H862 H 0.74057 0.36083 0.15986 0.0
H863 H 0.77059 0.41287 0.10756 0.0
C864 C 0.80315 0.39934 0.1158 0.0
C865 C 0.81519 0.38259 0.12754 0.0
C866 C 0.73151 0.37078 0.14738 0.0
C867 C 0.76805 0.3835 0.12971 0.0
C868 C 0.70789 0.37103 0.14781 0.0
C869 C 0.69586 0.3837 0.13173 0.0
C870 C 0.74307 0.38348 0.1309 0.0
C871 C 0.70803 0.39619 0.11558 0.0
C872 C 0.7796 0.39979 0.11676 0.0
C873 C 0.80308 0.36654 0.14023 0.0
N874 N 0.73099 0.3958 0.1156 0.0
N875 N 0.78011 0.36742 0.14105 0.0
H876 H 0.09374 0.19962 0.63264 0.0
H877 H 0.16594 0.30831 0.60428 0.0
H878 H 0.15479 0.19493 0.5928 0.0
H879 H 0.09351 0.31098 0.61377 0.0
H880 H 0.16343 0.26687 0.60138 0.0
H881 H 0.09434 0.24081 0.62785 0.0
C882 C 0.10719 0.2073 0.62277 0.0
C883 C 0.12428 0.19398 0.61315 0.0
C884 C 0.14809 0.27661 0.60377 0.0
C885 C 0.12524 0.24094 0.60784 0.0
C886 C 0.14951 0.30019 0.60546 0.0
C887 C 0.12992 0.313 0.60941 0.0
C888 C 0.12701 0.26588 0.60652 0.0
C889 C 0.10903 0.30171 0.61077 0.0
C890 C 0.10747 0.23074 0.61995 0.0
C891 C 0.1413 0.20469 0.60045 0.0
N892 N 0.10816 0.27875 0.60968 0.0
N893 N 0.14154 0.22765 0.5984 0.0
H894 H 0.19893 0.60475 0.09613 0.0
H895 H 0.31097 0.65222 0.1549 0.0
H896 H 0.19852 0.66064 0.14332 0.0
H897 H 0.31172 0.61054 0.09481 0.0
H898 H 0.26958 0.65379 0.15266 0.0
H899 H 0.2403 0.60517 0.09674 0.0
C900 C 0.20758 0.61722 0.1065 0.0
C901 C 0.19536 0.63267 0.11972 0.0
C902 C 0.27883 0.64436 0.13994 0.0
C903 C 0.24258 0.63307 0.12072 0.0
C904 C 0.3024 0.64336 0.14129 0.0
C905 C 0.3147 0.63119 0.12505 0.0
C906 C 0.26756 0.63291 0.12237 0.0
C907 C 0.30283 0.62011 0.10768 0.0
C908 C 0.23117 0.61746 0.10683 0.0
C909 C 0.20735 0.64847 0.13284 0.0
N910 N 0.27989 0.62115 0.10685 0.0
N911 N 0.23035 0.64815 0.13316 0.0
H912 H 0.88473 0.20142 0.34357 0.0
H913 H 0.85375 0.31313 0.41219 0.0
H914 H 0.86938 0.20007 0.41503 0.0
H915 H 0.899 0.31377 0.35479 0.0
H916 H 0.85323 0.27154 0.41077 0.0
H917 H 0.88385 0.24296 0.34461 0.0
C918 C 0.88109 0.20989 0.35944 0.0
C919 C 0.87722 0.19742 0.37928 0.0
C920 C 0.86326 0.28085 0.39854 0.0
C921 C 0.87596 0.24462 0.38051 0.0
C922 C 0.86351 0.30449 0.39928 0.0
C923 C 0.87652 0.31677 0.38364 0.0
C924 C 0.87574 0.26957 0.38176 0.0
C925 C 0.88888 0.30486 0.36725 0.0
C926 C 0.88068 0.23351 0.36003 0.0
C927 C 0.8726 0.20914 0.39941 0.0
N928 N 0.88809 0.28187 0.36664 0.0
N929 N 0.87198 0.23215 0.39951 0.0
H930 H 0.20285 0.40916 0.86727 0.0
H931 H 0.31852 0.35681 0.9093 0.0
H932 H 0.20525 0.3428 0.89803 0.0
H933 H 0.31468 0.39984 0.85028 0.0
H934 H 0.27701 0.35455 0.90981 0.0
H935 H 0.24424 0.40935 0.86525 0.0
C936 C 0.21213 0.39465 0.87361 0.0
C937 C 0.20075 0.37593 0.88283 0.0
C938 C 0.28533 0.36437 0.89672 0.0
C939 C 0.24786 0.37619 0.88083 0.0
C940 C 0.30892 0.36576 0.89648 0.0
C941 C 0.31991 0.37856 0.87975 0.0
C942 C 0.2728 0.37628 0.88041 0.0
C943 C 0.30679 0.38976 0.86344 0.0
C944 C 0.23567 0.39473 0.87235 0.0
C945 C 0.21349 0.35751 0.89073 0.0
N946 N 0.28386 0.38856 0.86431 0.0
N947 N 0.23648 0.35817 0.88976 0.0
H948 H 0.15037 0.81056 0.4094 0.0
H949 H 0.09267 0.69531 0.3761 0.0
H950 H 0.10649 0.80606 0.35109 0.0
H951 H 0.16243 0.69631 0.39791 0.0
H952 H 0.09369 0.73669 0.37251 0.0
H953 H 0.15168 0.76897 0.41101 0.0
C954 C 0.14106 0.80078 0.39695 0.0
C955 C 0.12827 0.81159 0.38011 0.0
C956 C 0.10875 0.72779 0.37805 0.0
C957 C 0.12938 0.76446 0.38214 0.0
C958 C 0.10815 0.7043 0.38025 0.0
C959 C 0.1275 0.69254 0.38735 0.0
C960 C 0.12864 0.73957 0.38356 0.0
C961 C 0.1472 0.70487 0.39234 0.0
C962 C 0.14191 0.77717 0.39782 0.0
C963 C 0.11658 0.79827 0.36429 0.0
N964 N 0.14722 0.72786 0.39061 0.0
N965 N 0.11715 0.77531 0.36586 0.0
H966 H 0.80822 0.5957 0.89762 0.0
H967 H 0.69456 0.64925 0.84742 0.0
H968 H 0.80743 0.6577 0.85873 0.0
H969 H 0.69581 0.60011 0.90161 0.0
H970 H 0.73609 0.64941 0.8472 0.0
H971 H 0.76698 0.59406 0.89526 0.0
C972 C 0.79934 0.60897 0.88857 0.0
C973 C 0.81118 0.62693 0.87845 0.0
C974 C 0.72723 0.63856 0.85906 0.0
C975 C 0.76406 0.62507 0.87555 0.0
C976 C 0.70359 0.63837 0.85912 0.0
C977 C 0.69183 0.62469 0.87461 0.0
C978 C 0.73907 0.6248 0.87444 0.0
C979 C 0.70427 0.61097 0.88946 0.0
C980 C 0.77582 0.60803 0.88725 0.0
C981 C 0.79887 0.64364 0.86688 0.0
N982 N 0.72723 0.61137 0.88901 0.0
N983 N 0.77592 0.6423 0.86571 0.0
H984 H 0.66492 0.87267 0.81438 0.0
H985 H 0.61614 0.9209 0.69762 0.0
H986 H 0.6111 0.92194 0.81022 0.0
H987 H 0.65514 0.85922 0.70216 0.0
H988 H 0.61842 0.9249 0.73872 0.0
H989 H 0.66607 0.87116 0.77292 0.0
C990 C 0.65353 0.88334 0.80473 0.0
C991 C 0.63781 0.89737 0.81566 0.0
C992 C 0.62648 0.91049 0.73073 0.0
C993 C 0.63901 0.89569 0.76846 0.0
C994 C 0.6252 0.9082 0.70729 0.0
C995 C 0.63535 0.88962 0.69656 0.0
C996 C 0.63815 0.89418 0.7435 0.0
C997 C 0.64695 0.87371 0.70985 0.0
C998 C 0.65411 0.88237 0.78112 0.0
C999 C 0.62339 0.9108 0.80242 0.0
N1000 N 0.64806 0.87636 0.73269 0.0
N1001 N 0.62431 0.9096 0.77949 0.0
H1002 H 0.59074 0.13739 0.19194 0.0
H1003 H 0.63487 0.09172 0.31142 0.0
H1004 H 0.64925 0.09421 0.19909 0.0
H1005 H 0.59451 0.15225 0.30416 0.0
H1006 H 0.63498 0.08738 0.27019 0.0
H1007 H 0.5866 0.13785 0.23319 0.0
C1008 C 0.60257 0.12782 0.20219 0.0
C1009 C 0.62045 0.11585 0.19217 0.0
C1010 C 0.62602 0.10154 0.27766 0.0
C1011 C 0.61576 0.11625 0.23918 0.0
C1012 C 0.62588 0.10399 0.30114 0.0
C1013 C 0.61478 0.12246 0.31113 0.0
C1014 C 0.61475 0.11752 0.26414 0.0
C1015 C 0.6034 0.13786 0.29708 0.0
C1016 C 0.60025 0.12817 0.22569 0.0
C1017 C 0.63532 0.10376 0.2062 0.0
N1018 N 0.60367 0.13505 0.27425 0.0
N1019 N 0.63266 0.10428 0.22904 0.0
H1020 H 0.4126 0.10688 0.70049 0.0
H1021 H 0.35244 0.15165 0.81268 0.0
H1022 H 0.36406 0.16152 0.69997 0.0
H1023 H 0.41286 0.11056 0.81286 0.0
H1024 H 0.35476 0.15411 0.77131 0.0
H1025 H 0.41139 0.10662 0.74177 0.0
C1026 C 0.40174 0.11889 0.70911 0.0
C1027 C 0.38838 0.13423 0.69687 0.0
C1028 C 0.36754 0.14464 0.78044 0.0
C1029 C 0.38679 0.13393 0.74406 0.0
C1030 C 0.36617 0.14316 0.80399 0.0
C1031 C 0.38245 0.13082 0.81612 0.0
C1032 C 0.38517 0.13351 0.76903 0.0
C1033 C 0.39995 0.12022 0.80413 0.0
C1034 C 0.40109 0.11876 0.73266 0.0
C1035 C 0.37465 0.14945 0.70884 0.0
N1036 N 0.40078 0.12171 0.78122 0.0
N1037 N 0.37408 0.14883 0.73184 0.0
H1038 H 0.36408 0.92346 0.20059 0.0
H1039 H 0.41398 0.86409 0.30894 0.0
H1040 H 0.42342 0.88101 0.19687 0.0
H1041 H 0.37951 0.92843 0.31294 0.0
H1042 H 0.41644 0.86854 0.26774 0.0
H1043 H 0.36787 0.9243 0.24191 0.0
C1044 C 0.378 0.91449 0.20849 0.0
C1045 C 0.39341 0.90208 0.19541 0.0
C1046 C 0.40862 0.88181 0.2777 0.0
C1047 C 0.39764 0.90269 0.24244 0.0
C1048 C 0.40716 0.87925 0.30115 0.0
C1049 C 0.39644 0.89587 0.31425 0.0
C1050 C 0.39884 0.90087 0.26735 0.0
C1051 C 0.38791 0.91522 0.3034 0.0
C1052 C 0.38021 0.91504 0.232 0.0
C1053 C 0.41119 0.89079 0.2064 0.0
N1054 N 0.38898 0.91704 0.28049 0.0
N1055 N 0.41264 0.89108 0.22936 0.0
H1056 H 0.07929 0.12288 0.55961 0.0
H1057 H 0.12946 0.07348 0.44476 0.0
H1058 H 0.13902 0.08094 0.5564 0.0
H1059 H 0.07582 0.12286 0.44911 0.0
H1060 H 0.12717 0.06801 0.48587 0.0
H1061 H 0.07203 0.11505 0.51974 0.0
C1062 C 0.09077 0.11183 0.55052 0.0
C1063 C 0.11004 0.1029 0.56111 0.0
C1064 C 0.1156 0.07969 0.47774 0.0
C1065 C 0.10195 0.09401 0.51544 0.0
C1066 C 0.11682 0.08272 0.4543 0.0
C1067 C 0.10308 0.09894 0.44371 0.0
C1068 C 0.10049 0.09295 0.49046 0.0
C1069 C 0.08698 0.11046 0.45674 0.0
C1070 C 0.0866 0.10733 0.52777 0.0
C1071 C 0.12413 0.08838 0.54871 0.0
N1072 N 0.08633 0.10746 0.47949 0.0
N1073 N 0.12001 0.08466 0.52636 0.0
H1074 H 0.43865 0.63049 0.94771 0.0
H1075 H 0.38405 0.58147 0.0605 0.0
H1076 H 0.38455 0.58125 0.95027 0.0
H1077 H 0.43428 0.6347 0.05985 0.0
H1078 H 0.39122 0.5746 0.02048 0.0
H1079 H 0.44422 0.6258 0.98861 0.0
C1080 C 0.4283 0.61833 0.9568 0.0
C1081 C 0.41082 0.60655 0.94579 0.0
C1082 C 0.40094 0.58759 0.02909 0.0
C1083 C 0.41698 0.60121 0.99232 0.0
C1084 C 0.39684 0.59151 0.05195 0.0
C1085 C 0.40827 0.60897 0.06329 0.0
C1086 C 0.41632 0.60151 0.01738 0.0
C1087 C 0.42493 0.62123 0.05157 0.0
C1088 C 0.43143 0.61572 0.98012 0.0
C1089 C 0.39795 0.59096 0.95824 0.0
N1090 N 0.42816 0.61757 0.02906 0.0
N1091 N 0.4011 0.58896 0.98089 0.0
H1092 H 0.87956 0.93026 0.44922 0.0
H1093 H 0.93167 0.87691 0.56186 0.0
H1094 H 0.92821 0.87574 0.45066 0.0
H1095 H 0.87964 0.92822 0.56186 0.0
H1096 H 0.93557 0.88143 0.52101 0.0
H1097 H 0.88437 0.93495 0.49019 0.0
C1098 C 0.89153 0.91956 0.45811 0.0
C1099 C 0.90325 0.90236 0.44669 0.0
C1100 C 0.92344 0.89189 0.52993 0.0
C1101 C 0.90872 0.9075 0.49333 0.0
C1102 C 0.92121 0.8893 0.55326 0.0
C1103 C 0.90507 0.90197 0.56514 0.0
C1104 C 0.90929 0.90713 0.51838 0.0
C1105 C 0.89213 0.91796 0.55324 0.0
C1106 C 0.89422 0.92219 0.48146 0.0
C1107 C 0.9186 0.889 0.45891 0.0
N1108 N 0.89431 0.91989 0.53041 0.0
N1109 N 0.92071 0.8917 0.48161 0.0
H1110 H 0.57383 0.38447 0.95073 0.0
H1111 H 0.62993 0.43084 0.06383 0.0
H1112 H 0.62663 0.4351 0.95341 0.0
H1113 H 0.57707 0.38022 0.06307 0.0
H1114 H 0.62315 0.43808 0.02379 0.0
H1115 H 0.56906 0.38797 0.99182 0.0
C1116 C 0.58409 0.39663 0.95991 0.0
C1117 C 0.60094 0.40921 0.94881 0.0
C1118 C 0.61278 0.42559 0.03237 0.0
C1119 C 0.59571 0.41321 0.9956 0.0
C1120 C 0.61667 0.42145 0.05524 0.0
C1121 C 0.6043 0.40463 0.06658 0.0
C1122 C 0.59668 0.41252 0.02065 0.0
C1123 C 0.58711 0.39319 0.05481 0.0
C1124 C 0.5814 0.3986 0.98334 0.0
C1125 C 0.61371 0.4248 0.9614 0.0
N1126 N 0.58406 0.39704 0.0323 0.0
N1127 N 0.61103 0.42614 0.98416 0.0
H1128 H 0.12451 0.93175 0.5576 0.0
H1129 H 0.08029 0.86788 0.44755 0.0
H1130 H 0.08718 0.86876 0.55827 0.0
H1131 H 0.11961 0.92961 0.44557 0.0
H1132 H 0.07571 0.87255 0.48832 0.0
H1133 H 0.11621 0.93571 0.51715 0.0
C1134 C 0.11424 0.91897 0.54931 0.0
C1135 C 0.10686 0.89969 0.56113 0.0
C1136 C 0.08507 0.88528 0.47897 0.0
C1137 C 0.09742 0.90401 0.51501 0.0
C1138 C 0.08766 0.88262 0.45567 0.0
C1139 C 0.10069 0.89817 0.4433 0.0
C1140 C 0.09584 0.90346 0.48999 0.0
C1141 C 0.10964 0.9171 0.45458 0.0
C1142 C 0.10953 0.92121 0.52623 0.0
C1143 C 0.0935 0.88371 0.54967 0.0
N1144 N 0.10738 0.91903 0.4774 0.0
N1145 N 0.08946 0.88608 0.52718 0.0
H1146 H 0.57497 0.63406 0.94882 0.0
H1147 H 0.62573 0.5748 0.0587 0.0
H1148 H 0.62767 0.58346 0.94857 0.0
H1149 H 0.57801 0.63006 0.06118 0.0
H1150 H 0.61941 0.57161 0.01805 0.0
H1151 H 0.56909 0.62699 0.98934 0.0
C1152 C 0.58501 0.6212 0.95722 0.0
C1153 C 0.60211 0.60961 0.94553 0.0
C1154 C 0.61005 0.58425 0.02748 0.0
C1155 C 0.59553 0.60147 0.9916 0.0
C1156 C 0.61365 0.58605 0.0507 0.0
C1157 C 0.6027 0.603 0.06315 0.0
C1158 C 0.59566 0.59975 0.01659 0.0
C1159 C 0.58696 0.61692 0.05206 0.0
C1160 C 0.58168 0.61719 0.9803 0.0
C1161 C 0.61457 0.59305 0.95708 0.0
N1162 N 0.58421 0.61527 0.02926 0.0
N1163 N 0.6112 0.58965 0.97953 0.0
H1164 H 0.88037 0.07583 0.44339 0.0
H1165 H 0.93676 0.1265 0.55478 0.0
H1166 H 0.92752 0.13181 0.44511 0.0
H1167 H 0.88171 0.07826 0.55553 0.0
H1168 H 0.94116 0.1203 0.51422 0.0
H1169 H 0.888 0.06878 0.48363 0.0
C1170 C 0.89267 0.08632 0.45213 0.0
C1171 C 0.90302 0.1047 0.44114 0.0
C1172 C 0.92834 0.11077 0.52327 0.0
C1173 C 0.91177 0.09678 0.48688 0.0
C1174 C 0.92585 0.11429 0.54644 0.0
C1175 C 0.90852 0.10324 0.55835 0.0
C1176 C 0.91318 0.09636 0.51189 0.0
C1177 C 0.89509 0.08733 0.54684 0.0
C1178 C 0.89697 0.08233 0.47506 0.0
C1179 C 0.91887 0.11771 0.45311 0.0
N1180 N 0.8974 0.08468 0.52408 0.0
N1181 N 0.92257 0.11367 0.47541 0.0
H1182 H 0.435 0.38758 0.94758 0.0
H1183 H 0.37342 0.43417 0.0583 0.0
H1184 H 0.37268 0.4257 0.94753 0.0
H1185 H 0.43026 0.3883 0.06021 0.0
H1186 H 0.3783 0.43805 0.01751 0.0
H1187 H 0.43855 0.39424 0.9884 0.0
C1188 C 0.42226 0.39764 0.95611 0.0
C1189 C 0.40334 0.40583 0.94431 0.0
C1190 C 0.3899 0.42734 0.02684 0.0
C1191 C 0.40726 0.41346 0.99078 0.0
C1192 C 0.38714 0.42514 0.05014 0.0
C1193 C 0.40123 0.41059 0.06253 0.0
C1194 C 0.40674 0.41473 0.0158 0.0
C1195 C 0.4189 0.39952 0.05119 0.0
C1196 C 0.42427 0.4014 0.97937 0.0
C1197 C 0.38738 0.41884 0.95607 0.0
N1198 N 0.42096 0.40155 0.02834 0.0
N1199 N 0.38959 0.42207 0.97871 0.0
H1200 H 0.56274 0.07905 0.11601 0.0
H1201 H 0.45105 0.14678 0.08318 0.0
H1202 H 0.56346 0.14434 0.08297 0.0
H1203 H 0.45235 0.08386 0.12052 0.0
H1204 H 0.49158 0.14242 0.07528 0.0
H1205 H 0.52199 0.07674 0.10993 0.0
C1206 C 0.55431 0.09279 0.10721 0.0
C1207 C 0.56633 0.1121 0.10035 0.0
C1208 C 0.48288 0.12939 0.08487 0.0
C1209 C 0.51966 0.10975 0.0936 0.0
C1210 C 0.45978 0.13185 0.08932 0.0
C1211 C 0.44854 0.11586 0.10287 0.0
C1212 C 0.49464 0.11082 0.09403 0.0
C1213 C 0.46051 0.09678 0.11033 0.0
C1214 C 0.53104 0.09147 0.10372 0.0
C1215 C 0.5547 0.12926 0.08873 0.0
N1216 N 0.48297 0.09493 0.10604 0.0
N1217 N 0.53188 0.12787 0.08605 0.0
H1218 H 0.38788 0.94946 0.58024 0.0
H1219 H 0.43288 0.06392 0.63584 0.0
H1220 H 0.43369 0.95297 0.63713 0.0
H1221 H 0.38477 0.06229 0.58081 0.0
H1222 H 0.43897 0.02336 0.63126 0.0
H1223 H 0.39184 0.99053 0.57517 0.0
C1224 C 0.39904 0.95883 0.59142 0.0
C1225 C 0.41019 0.94794 0.60936 0.0
C1226 C 0.42727 0.03185 0.61996 0.0
C1227 C 0.41475 0.99471 0.60372 0.0
C1228 C 0.42381 0.05502 0.62258 0.0
C1229 C 0.40803 0.06632 0.60892 0.0
C1230 C 0.41461 0.01981 0.60379 0.0
C1231 C 0.39695 0.0541 0.5918 0.0
C1232 C 0.40127 0.98224 0.58854 0.0
C1233 C 0.42452 0.96078 0.62329 0.0
N1234 N 0.40017 0.03134 0.58995 0.0
N1235 N 0.4262 0.98351 0.62032 0.0
H1236 H 0.45222 0.93552 0.11741 0.0
H1237 H 0.56318 0.87158 0.07534 0.0
H1238 H 0.45092 0.8709 0.08313 0.0
H1239 H 0.56257 0.92987 0.1195 0.0
H1240 H 0.5223 0.87615 0.06942 0.0
H1241 H 0.49257 0.93868 0.10941 0.0
C1242 C 0.46042 0.92211 0.10795 0.0
C1243 C 0.44839 0.90271 0.10131 0.0
C1244 C 0.53123 0.88816 0.08006 0.0
C1245 C 0.49461 0.90608 0.09231 0.0
C1246 C 0.55452 0.88562 0.08337 0.0
C1247 C 0.56607 0.90015 0.09824 0.0
C1248 C 0.51963 0.90541 0.09163 0.0
C1249 C 0.55417 0.91809 0.10819 0.0
C1250 C 0.48345 0.92392 0.10337 0.0
C1251 C 0.45971 0.88601 0.08878 0.0
N1252 N 0.53155 0.92006 0.10491 0.0
N1253 N 0.48235 0.88789 0.08499 0.0
H1254 H 0.57897 0.05996 0.62609 0.0
H1255 H 0.63524 0.94867 0.57564 0.0
H1256 H 0.63402 0.06099 0.57807 0.0
H1257 H 0.58436 0.94974 0.62806 0.0
H1258 H 0.62871 0.9892 0.56905 0.0
H1259 H 0.5743 0.01945 0.61949 0.0
C1260 C 0.58988 0.05167 0.6139 0.0
C1261 C 0.6072 0.06365 0.60295 0.0
C1262 C 0.61869 0.98044 0.58168 0.0
C1263 C 0.60224 0.01723 0.59556 0.0
C1264 C 0.62235 0.95733 0.58539 0.0
C1265 C 0.61062 0.94607 0.60272 0.0
C1266 C 0.60317 0.99216 0.5954 0.0
C1267 C 0.59406 0.95795 0.61481 0.0
C1268 C 0.58721 0.02853 0.61012 0.0
C1269 C 0.62062 0.05223 0.58705 0.0
N1270 N 0.59103 0.98042 0.61112 0.0
N1271 N 0.61815 0.02949 0.58413 0.0
H1272 H 0.44727 0.93353 0.877 0.0
H1273 H 0.56127 0.88794 0.93247 0.0
H1274 H 0.44887 0.88451 0.93127 0.0
H1275 H 0.55806 0.93331 0.87519 0.0
H1276 H 0.52037 0.89242 0.93776 0.0
H1277 H 0.48776 0.93984 0.88189 0.0
C1278 C 0.45613 0.92432 0.89018 0.0
C1279 C 0.44487 0.90819 0.90349 0.0
C1280 C 0.52869 0.90165 0.92425 0.0
C1281 C 0.49127 0.91504 0.90896 0.0
C1282 C 0.55201 0.89913 0.92125 0.0
C1283 C 0.56291 0.90998 0.90313 0.0
C1284 C 0.51633 0.91512 0.90901 0.0
C1285 C 0.55022 0.92437 0.88916 0.0
C1286 C 0.47926 0.92791 0.89296 0.0
C1287 C 0.45704 0.89695 0.92052 0.0
N1288 N 0.52756 0.92632 0.89224 0.0
N1289 N 0.47974 0.9003 0.92252 0.0
H1290 H 0.63282 0.95071 0.42751 0.0
H1291 H 0.57541 0.06395 0.38131 0.0
H1292 H 0.57922 0.95292 0.37782 0.0
H1293 H 0.63607 0.06324 0.42215 0.0
H1294 H 0.57123 0.02326 0.38735 0.0
H1295 H 0.62883 0.99172 0.43302 0.0
C1296 C 0.61994 0.95977 0.41809 0.0
C1297 C 0.60657 0.94859 0.40193 0.0
C1298 C 0.58532 0.03202 0.39522 0.0
C1299 C 0.60197 0.99522 0.40805 0.0
C1300 C 0.58771 0.05524 0.39178 0.0
C1301 C 0.60634 0.06683 0.40092 0.0
C1302 C 0.60177 0.02028 0.40775 0.0
C1303 C 0.62161 0.05483 0.41458 0.0
C1304 C 0.61772 0.98314 0.42118 0.0
C1305 C 0.5901 0.96101 0.39021 0.0
N1306 N 0.61917 0.03207 0.41735 0.0
N1307 N 0.58842 0.98371 0.39334 0.0
H1308 H 0.44493 0.12692 0.93644 0.0
H1309 H 0.55868 0.08066 0.88129 0.0
H1310 H 0.4483 0.08154 0.87923 0.0
H1311 H 0.55702 0.13285 0.93248 0.0
H1312 H 0.51849 0.07363 0.88749 0.0
H1313 H 0.4858 0.12218 0.94209 0.0
C1314 C 0.45419 0.11558 0.9254 0.0
C1315 C 0.44342 0.10492 0.90708 0.0
C1316 C 0.52693 0.08643 0.89761 0.0
C1317 C 0.48989 0.09951 0.91335 0.0
C1318 C 0.54988 0.09045 0.89407 0.0
C1319 C 0.56099 0.10768 0.90607 0.0
C1320 C 0.51494 0.09995 0.91305 0.0
C1321 C 0.54893 0.11959 0.92269 0.0
C1322 C 0.47749 0.11294 0.92858 0.0
C1323 C 0.45608 0.09036 0.89332 0.0
N1324 N 0.52638 0.11579 0.92542 0.0
N1325 N 0.47871 0.0883 0.89657 0.0
H1326 H 0.40261 0.94553 0.43193 0.0
H1327 H 0.34182 0.06562 0.4211 0.0
H1328 H 0.34059 0.9559 0.39478 0.0
H1329 H 0.41384 0.05685 0.41271 0.0
H1330 H 0.33812 0.02478 0.42848 0.0
H1331 H 0.40303 0.98613 0.44169 0.0
C1332 C 0.38874 0.95624 0.42648 0.0
C1333 C 0.37167 0.94767 0.41237 0.0
C1334 C 0.35477 0.03201 0.42565 0.0
C1335 C 0.37183 0.99341 0.42372 0.0
C1336 C 0.35691 0.05521 0.42151 0.0
C1337 C 0.37812 0.06437 0.41598 0.0
C1338 C 0.37405 0.0182 0.42476 0.0
C1339 C 0.39717 0.05024 0.41661 0.0
C1340 C 0.38904 0.97926 0.43196 0.0
C1341 C 0.35414 0.96209 0.40551 0.0
N1342 N 0.39468 0.02773 0.42074 0.0
N1343 N 0.35472 0.98437 0.41116 0.0
H1344 H 0.12427 0.44731 0.07722 0.0
H1345 H 0.07746 0.5599 0.13425 0.0
H1346 H 0.07681 0.44739 0.13275 0.0
H1347 H 0.12887 0.55766 0.08238 0.0
H1348 H 0.07027 0.51938 0.12831 0.0
H1349 H 0.11887 0.48802 0.07287 0.0
C1350 C 0.11241 0.45589 0.08826 0.0
C1351 C 0.10129 0.44415 0.10564 0.0
C1352 C 0.08286 0.52786 0.118 0.0
C1353 C 0.09536 0.49078 0.10111 0.0
C1354 C 0.08695 0.55095 0.12137 0.0
C1355 C 0.10407 0.56195 0.10908 0.0
C1356 C 0.09598 0.51584 0.10221 0.0
C1357 C 0.11579 0.54969 0.0925 0.0
C1358 C 0.10935 0.47914 0.08581 0.0
C1359 C 0.08586 0.45595 0.11928 0.0
N1360 N 0.1117 0.52724 0.08973 0.0
N1361 N 0.08367 0.47878 0.11702 0.0
H1362 H 0.08519 0.55728 0.88743 0.0
H1363 H 0.1438 0.44422 0.93154 0.0
H1364 H 0.14397 0.55552 0.93089 0.0
H1365 H 0.08459 0.44459 0.88866 0.0
H1366 H 0.13989 0.48501 0.9368 0.0
H1367 H 0.08065 0.51631 0.89262 0.0
C1368 C 0.09694 0.54831 0.8983 0.0
C1369 C 0.11519 0.55967 0.90847 0.0
C1370 C 0.12754 0.47618 0.92648 0.0
C1371 C 0.11017 0.51298 0.91442 0.0
C1372 C 0.12976 0.45288 0.9235 0.0
C1373 C 0.1147 0.44114 0.90938 0.0
C1374 C 0.1103 0.48788 0.91499 0.0
C1375 C 0.09668 0.45309 0.89955 0.0
C1376 C 0.09435 0.52495 0.90126 0.0
C1377 C 0.12985 0.54734 0.92249 0.0
N1378 N 0.09518 0.47593 0.90224 0.0
N1379 N 0.12716 0.52462 0.92485 0.0
H1380 H 0.06005 0.57198 0.386 0.0
H1381 H 0.94637 0.62618 0.43279 0.0
H1382 H 0.0567 0.62669 0.43439 0.0
H1383 H 0.94822 0.57546 0.38016 0.0
H1384 H 0.98636 0.61946 0.44032 0.0
H1385 H 0.0192 0.56611 0.39035 0.0
C1386 C 0.05079 0.58242 0.3979 0.0
C1387 C 0.06159 0.60015 0.40952 0.0
C1388 C 0.97801 0.60953 0.42733 0.0
C1389 C 0.01507 0.59366 0.41447 0.0
C1390 C 0.95517 0.61338 0.42302 0.0
C1391 C 0.94418 0.60168 0.40551 0.0
C1392 C 0.99003 0.59413 0.41379 0.0
C1393 C 0.95622 0.58502 0.39363 0.0
C1394 C 0.0275 0.57911 0.40033 0.0
C1395 C 0.04892 0.6131 0.42481 0.0
N1396 N 0.97868 0.58202 0.39769 0.0
N1397 N 0.02626 0.6098 0.42661 0.0
H1398 H 0.93109 0.56243 0.88086 0.0
H1399 H 0.87715 0.45146 0.93521 0.0
H1400 H 0.87523 0.56165 0.92795 0.0
H1401 H 0.92933 0.44992 0.88411 0.0
H1402 H 0.88306 0.49212 0.93947 0.0
H1403 H 0.93712 0.52193 0.88821 0.0
C1404 C 0.9204 0.55383 0.89306 0.0
C1405 C 0.90237 0.56519 0.90351 0.0
C1406 C 0.89349 0.4829 0.92755 0.0
C1407 C 0.90909 0.51914 0.91194 0.0
C1408 C 0.89013 0.45967 0.92514 0.0
C1409 C 0.90248 0.44748 0.90899 0.0
C1410 C 0.90906 0.49408 0.91342 0.0
C1411 C 0.9193 0.45883 0.8966 0.0
C1412 C 0.92381 0.53075 0.89722 0.0
C1413 C 0.88908 0.55338 0.91924 0.0
N1414 N 0.92181 0.48165 0.89875 0.0
N1415 N 0.89254 0.53095 0.92278 0.0
H1416 H 0.06427 0.42338 0.37653 0.0
H1417 H 0.94888 0.36778 0.42053 0.0
H1418 H 0.06067 0.36575 0.4215 0.0
H1419 H 0.9514 0.4233 0.37291 0.0
H1420 H 0.98991 0.37005 0.42469 0.0
H1421 H 0.02301 0.42696 0.37865 0.0
C1422 C 0.05481 0.41167 0.38705 0.0
C1423 C 0.06578 0.39411 0.39868 0.0
C1424 C 0.98151 0.38186 0.41344 0.0
C1425 C 0.01879 0.398 0.4011 0.0
C1426 C 0.95809 0.38056 0.41106 0.0
C1427 C 0.94683 0.39524 0.39619 0.0
C1428 C 0.99376 0.39788 0.40077 0.0
C1429 C 0.95951 0.41157 0.38444 0.0
C1430 C 0.03129 0.41368 0.38822 0.0
C1431 C 0.05281 0.37942 0.41211 0.0
N1432 N 0.98238 0.41234 0.38684 0.0
N1433 N 0.02998 0.38159 0.41282 0.0
H1434 H 0.93612 0.44706 0.12681 0.0
H1435 H 0.88403 0.5588 0.07266 0.0
H1436 H 0.88112 0.44868 0.07868 0.0
H1437 H 0.93318 0.55939 0.12678 0.0
H1438 H 0.89051 0.51834 0.06759 0.0
H1439 H 0.9426 0.48762 0.12012 0.0
C1440 C 0.92576 0.45586 0.11448 0.0
C1441 C 0.90778 0.44473 0.10359 0.0
C1442 C 0.90015 0.52733 0.08037 0.0
C1443 C 0.91501 0.49084 0.09593 0.0
C1444 C 0.89646 0.55043 0.08326 0.0
C1445 C 0.90775 0.56226 0.10048 0.0
C1446 C 0.91498 0.51591 0.09505 0.0
C1447 C 0.92394 0.55074 0.11348 0.0
C1448 C 0.92941 0.47897 0.11072 0.0
C1449 C 0.8949 0.45678 0.08773 0.0
N1450 N 0.92677 0.52803 0.11081 0.0
N1451 N 0.89858 0.47925 0.08458 0.0
H1452 H 0.95144 0.37882 0.672 0.0
H1453 H 0.06632 0.43165 0.62389 0.0
H1454 H 0.95208 0.43175 0.62156 0.0
H1455 H 0.06022 0.36912 0.66137 0.0
H1456 H 0.02555 0.43843 0.62972 0.0
H1457 H 0.99226 0.38252 0.67599 0.0
C1458 C 0.96023 0.39146 0.66196 0.0
C1459 C 0.94858 0.40471 0.64613 0.0
C1460 C 0.0333 0.42342 0.63689 0.0
C1461 C 0.99539 0.4087 0.65019 0.0
C1462 C 0.05646 0.41958 0.63361 0.0
C1463 C 0.06641 0.39964 0.64189 0.0
C1464 C 0.02035 0.40733 0.6488 0.0
C1465 C 0.05308 0.38452 0.6544 0.0
C1466 C 0.98354 0.39355 0.6642 0.0
C1467 C 0.96062 0.42111 0.63382 0.0
N1468 N 0.03075 0.38863 0.65737 0.0
N1469 N 0.98358 0.42237 0.63577 0.0
H1470 H 0.05862 0.64391 0.58591 0.0
H1471 H 0.94526 0.58226 0.62449 0.0
H1472 H 0.05746 0.58131 0.6238 0.0
H1473 H 0.94712 0.643 0.58371 0.0
H1474 H 0.98618 0.57827 0.61956 0.0
H1475 H 0.0179 0.64046 0.57979 0.0
C1476 C 0.04981 0.62925 0.59266 0.0
C1477 C 0.06129 0.61305 0.60568 0.0
C1478 C 0.9776 0.59231 0.61144 0.0
C1479 C 0.01469 0.60913 0.59902 0.0
C1480 C 0.95426 0.59459 0.61427 0.0
C1481 C 0.94292 0.61318 0.60478 0.0
C1482 C 0.98962 0.60883 0.59918 0.0
C1483 C 0.95529 0.62856 0.59153 0.0
C1484 C 0.02656 0.62729 0.58918 0.0
C1485 C 0.04916 0.59429 0.61384 0.0
N1486 N 0.97804 0.6262 0.58936 0.0
N1487 N 0.02641 0.59301 0.61068 0.0
H1488 H 0.94406 0.14068 0.32804 0.0
H1489 H 0.05721 0.07415 0.36267 0.0
H1490 H 0.94321 0.07678 0.36352 0.0
H1491 H 0.056 0.1399 0.33075 0.0
H1492 H 0.01597 0.07138 0.35757 0.0
H1493 H 0.98496 0.13713 0.32318 0.0
C1494 C 0.9524 0.12561 0.3344 0.0
C1495 C 0.94007 0.10903 0.34625 0.0
C1496 C 0.02478 0.08623 0.35132 0.0
C1497 C 0.98738 0.10505 0.34118 0.0
C1498 C 0.0484 0.08774 0.35405 0.0
C1499 C 0.06018 0.10731 0.34716 0.0
C1500 C 0.0128 0.10441 0.34159 0.0
C1501 C 0.04771 0.1245 0.33637 0.0
C1502 C 0.97587 0.12366 0.33174 0.0
C1503 C 0.95195 0.08994 0.35417 0.0
N1504 N 0.02481 0.12273 0.33412 0.0
N1505 N 0.97494 0.08862 0.35177 0.0
H1506 H 0.44084 0.44914 0.86681 0.0
H1507 H 0.37494 0.56194 0.83069 0.0
H1508 H 0.37846 0.44983 0.82881 0.0
H1509 H 0.43896 0.56321 0.86579 0.0
H1510 H 0.37894 0.52106 0.82542 0.0
H1511 H 0.44351 0.4905 0.86233 0.0
C1512 C 0.42801 0.45787 0.85704 0.0
C1513 C 0.40936 0.4459 0.84823 0.0
C1514 C 0.39235 0.53025 0.83397 0.0
C1515 C 0.41208 0.49342 0.84339 0.0
C1516 C 0.39011 0.5537 0.83687 0.0
C1517 C 0.40662 0.56613 0.84871 0.0
C1518 C 0.4111 0.51886 0.84324 0.0
C1519 C 0.42586 0.55439 0.85644 0.0
C1520 C 0.42945 0.48155 0.85463 0.0
C1521 C 0.39312 0.45826 0.83595 0.0
N1522 N 0.42741 0.53141 0.85388 0.0
N1523 N 0.39474 0.48124 0.83413 0.0
H1524 H 0.06187 0.93493 0.36532 0.0
H1525 H 0.94581 0.87662 0.32524 0.0
H1526 H 0.05773 0.87202 0.32834 0.0
H1527 H 0.9485 0.9352 0.36888 0.0
H1528 H 0.98675 0.87947 0.31971 0.0
H1529 H 0.02084 0.93985 0.36042 0.0
C1530 C 0.05247 0.92246 0.35564 0.0
C1531 C 0.06331 0.90298 0.3473 0.0
C1532 C 0.97838 0.89196 0.3302 0.0
C1533 C 0.01622 0.90834 0.3419 0.0
C1534 C 0.9549 0.89044 0.33324 0.0
C1535 C 0.9436 0.90561 0.34766 0.0
C1536 C 0.99084 0.90872 0.34174 0.0
C1537 C 0.95643 0.92311 0.35762 0.0
C1538 C 0.02898 0.92518 0.35301 0.0
C1539 C 0.05014 0.88727 0.33513 0.0
N1540 N 0.97936 0.92399 0.35473 0.0
N1541 N 0.02736 0.89017 0.333 0.0
H1542 H 0.56771 0.4541 0.87056 0.0
H1543 H 0.62779 0.56752 0.82608 0.0
H1544 H 0.62786 0.45497 0.82918 0.0
H1545 H 0.56904 0.5674 0.86943 0.0
H1546 H 0.62397 0.52646 0.82159 0.0
H1547 H 0.56391 0.49512 0.86496 0.0
C1548 C 0.57981 0.46278 0.85982 0.0
C1549 C 0.5982 0.45096 0.8504 0.0
C1550 C 0.61165 0.53541 0.83178 0.0
C1551 C 0.59417 0.49821 0.84424 0.0
C1552 C 0.61373 0.55896 0.83423 0.0
C1553 C 0.59876 0.57105 0.84823 0.0
C1554 C 0.59456 0.52364 0.84354 0.0
C1555 C 0.58097 0.55888 0.85844 0.0
C1556 C 0.57772 0.4863 0.85676 0.0
C1557 C 0.61343 0.46329 0.83681 0.0
N1558 N 0.57955 0.53588 0.85615 0.0
N1559 N 0.61122 0.48617 0.83437 0.0
H1560 H 0.95536 0.88117 0.68454 0.0
H1561 H 0.07043 0.93739 0.63842 0.0
H1562 H 0.95699 0.93791 0.63848 0.0
H1563 H 0.06744 0.87507 0.67653 0.0
H1564 H 0.02958 0.94238 0.64441 0.0
H1565 H 0.99663 0.88342 0.68801 0.0
C1566 C 0.96431 0.89447 0.67557 0.0
C1567 C 0.95258 0.90931 0.66112 0.0
C1568 C 0.03793 0.92781 0.6518 0.0
C1569 C 1.00014 0.91176 0.66471 0.0
C1570 C 0.06133 0.92506 0.64854 0.0
C1571 C 0.07246 0.90574 0.65693 0.0
C1572 C 0.0255 0.91119 0.66361 0.0
C1573 C 0.05963 0.8902 0.66969 0.0
C1574 C 0.98796 0.89564 0.67742 0.0
C1575 C 0.96525 0.92608 0.6498 0.0
N1576 N 0.03691 0.89315 0.67245 0.0
N1577 N 0.98829 0.92669 0.65164 0.0
H1578 H 0.63519 0.44514 0.18389 0.0
H1579 H 0.57288 0.55811 0.14229 0.0
H1580 H 0.57393 0.4446 0.14412 0.0
H1581 H 0.63439 0.55754 0.1817 0.0
H1582 H 0.56933 0.51704 0.14795 0.0
H1583 H 0.63147 0.48615 0.18853 0.0
C1584 C 0.62063 0.45355 0.17657 0.0
C1585 C 0.60488 0.44128 0.16354 0.0
C1586 C 0.58339 0.52595 0.15572 0.0
C1587 C 0.60077 0.48867 0.16835 0.0
C1588 C 0.58534 0.54949 0.15263 0.0
C1589 C 0.60402 0.56141 0.16146 0.0
C1590 C 0.60028 0.51411 0.16767 0.0
C1591 C 0.61972 0.54915 0.17453 0.0
C1592 C 0.61859 0.47708 0.1791 0.0
C1593 C 0.58644 0.45326 0.15438 0.0
N1594 N 0.61764 0.52625 0.17699 0.0
N1595 N 0.58508 0.47627 0.15667 0.0
H1596 H 0.95117 0.13923 0.67447 0.0
H1597 H 0.06391 0.07292 0.63941 0.0
H1598 H 0.95088 0.07627 0.63736 0.0
H1599 H 0.0638 0.13527 0.67756 0.0
H1600 H 0.02267 0.07078 0.64342 0.0
H1601 H 0.99193 0.13504 0.68066 0.0
C1602 C 0.95956 0.12424 0.66804 0.0
C1603 C 0.94746 0.10811 0.65531 0.0
C1604 C 0.03167 0.08473 0.65127 0.0
C1605 C 0.99453 0.10341 0.66196 0.0
C1606 C 0.05531 0.08589 0.64912 0.0
C1607 C 0.06747 0.10435 0.6581 0.0
C1608 C 0.01992 0.10224 0.66237 0.0
C1609 C 0.05524 0.1207 0.67035 0.0
C1610 C 0.98294 0.12192 0.67147 0.0
C1611 C 0.95941 0.08912 0.64731 0.0
N1612 N 0.03221 0.11942 0.67186 0.0
N1613 N 0.98225 0.08746 0.65051 0.0
H1614 H 0.43703 0.56917 0.14238 0.0
H1615 H 0.37558 0.45467 0.18247 0.0
H1616 H 0.3738 0.56695 0.17882 0.0
H1617 H 0.43522 0.45563 0.14036 0.0
H1618 H 0.37906 0.49567 0.18755 0.0
H1619 H 0.44088 0.52806 0.14767 0.0
C1620 C 0.42426 0.56017 0.15203 0.0
C1621 C 0.40501 0.57161 0.16011 0.0
C1622 C 0.39164 0.48692 0.17749 0.0
C1623 C 0.40913 0.52435 0.16591 0.0
C1624 C 0.38974 0.46341 0.17471 0.0
C1625 C 0.40506 0.45158 0.16087 0.0
C1626 C 0.40892 0.49892 0.16627 0.0
C1627 C 0.42301 0.46397 0.15119 0.0
C1628 C 0.42637 0.53662 0.15487 0.0
C1629 C 0.3889 0.55892 0.17224 0.0
N1630 N 0.42427 0.48694 0.15382 0.0
N1631 N 0.39121 0.53604 0.17456 0.0
H1632 H 0.36996 0.06845 0.07572 0.0
H1633 H 0.32946 0.95341 0.13555 0.0
H1634 H 0.33184 0.06654 0.13798 0.0
H1635 H 0.37054 0.95581 0.07522 0.0
H1636 H 0.32424 0.99457 0.133 0.0
H1637 H 0.36438 0.02753 0.07159 0.0
C1638 C 0.35994 0.05955 0.08826 0.0
C1639 C 0.35145 0.07106 0.10728 0.0
C1640 C 0.33406 0.98605 0.12008 0.0
C1641 C 0.34534 0.02384 0.10289 0.0
C1642 C 0.33691 0.96247 0.12143 0.0
C1643 C 0.35055 0.95104 0.10563 0.0
C1644 C 0.34497 0.99842 0.10284 0.0
C1645 C 0.35992 0.96383 0.08782 0.0
C1646 C 0.35688 0.03608 0.08597 0.0
C1647 C 0.33871 0.05845 0.12303 0.0
N1648 N 0.35718 0.98677 0.08707 0.0
N1649 N 0.33631 0.03556 0.12064 0.0
H1650 H 0.45759 0.87071 0.57397 0.0
H1651 H 0.56895 0.83063 0.63904 0.0
H1652 H 0.45671 0.82791 0.6332 0.0
H1653 H 0.57092 0.86647 0.57542 0.0
H1654 H 0.52809 0.82551 0.63451 0.0
H1655 H 0.49871 0.86552 0.57137 0.0
C1656 C 0.46592 0.85975 0.58611 0.0
C1657 C 0.45356 0.8498 0.60389 0.0
C1658 C 0.53745 0.83415 0.6213 0.0
C1659 C 0.50091 0.84418 0.6013 0.0
C1660 C 0.56088 0.83697 0.62383 0.0
C1661 C 0.57349 0.84901 0.6076 0.0
C1662 C 0.52629 0.84373 0.60254 0.0
C1663 C 0.56197 0.85697 0.58832 0.0
C1664 C 0.48948 0.85691 0.58469 0.0
C1665 C 0.46543 0.83595 0.61921 0.0
N1666 N 0.53903 0.85451 0.5865 0.0
N1667 N 0.48838 0.83382 0.61775 0.0
H1668 H 0.68547 0.05961 0.13107 0.0
H1669 H 0.64535 0.94495 0.06972 0.0
H1670 H 0.6432 0.0581 0.0715 0.0
H1671 H 0.68267 0.9466 0.1325 0.0
H1672 H 0.65029 0.98609 0.06626 0.0
H1673 H 0.69046 0.01848 0.12798 0.0
C1674 C 0.67767 0.05075 0.11701 0.0
C1675 C 0.66383 0.06245 0.10157 0.0
C1676 C 0.65775 0.97743 0.08061 0.0
C1677 C 0.66916 0.01504 0.09813 0.0
C1678 C 0.65509 0.95384 0.0825 0.0
C1679 C 0.66355 0.94218 0.10147 0.0
C1680 C 0.66894 0.98959 0.09783 0.0
C1681 C 0.67583 0.95479 0.11758 0.0
C1682 C 0.68039 0.02717 0.11535 0.0
C1683 C 0.65402 0.04988 0.08382 0.0
N1684 N 0.67793 0.97774 0.11552 0.0
N1685 N 0.65666 0.02693 0.08274 0.0
H1686 H 0.56317 0.142 0.57292 0.0
H1687 H 0.45033 0.1849 0.63455 0.0
H1688 H 0.56264 0.1819 0.63411 0.0
H1689 H 0.44978 0.14333 0.57449 0.0
H1690 H 0.49133 0.1893 0.63078 0.0
H1691 H 0.52215 0.14753 0.56943 0.0
C1692 C 0.55456 0.15241 0.58532 0.0
C1693 C 0.56649 0.16144 0.60389 0.0
C1694 C 0.48226 0.17951 0.61817 0.0
C1695 C 0.51925 0.16752 0.6002 0.0
C1696 C 0.45874 0.17712 0.62023 0.0
C1697 C 0.44647 0.16367 0.60485 0.0
C1698 C 0.49384 0.16823 0.60069 0.0
C1699 C 0.45845 0.15391 0.58672 0.0
C1700 C 0.53105 0.15542 0.5834 0.0
C1701 C 0.55425 0.17459 0.61952 0.0
N1702 N 0.48145 0.15612 0.58533 0.0
N1703 N 0.53138 0.177 0.61746 0.0
H1704 H 0.32737 0.06271 0.87157 0.0
H1705 H 0.36203 0.94803 0.93554 0.0
H1706 H 0.36268 0.06206 0.93551 0.0
H1707 H 0.33045 0.95075 0.86974 0.0
H1708 H 0.35654 0.98917 0.93935 0.0
H1709 H 0.32229 0.0217 0.8743 0.0
C1710 C 0.33362 0.05402 0.88648 0.0
C1711 C 0.34552 0.06595 0.9033 0.0
C1712 C 0.35044 0.98069 0.92426 0.0
C1713 C 0.34022 0.01853 0.90631 0.0
C1714 C 0.35339 0.95714 0.92216 0.0
C1715 C 0.34674 0.94584 0.90225 0.0
C1716 C 0.34071 0.99309 0.90635 0.0
C1717 C 0.3359 0.95867 0.88537 0.0
C1718 C 0.33084 0.03049 0.88796 0.0
C1719 C 0.3533 0.05363 0.92217 0.0
N1720 N 0.33344 0.98151 0.88771 0.0
N1721 N 0.35081 0.03059 0.92301 0.0
H1722 H 0.55856 0.83032 0.37418 0.0
H1723 H 0.44987 0.88812 0.42713 0.0
H1724 H 0.56091 0.87309 0.43337 0.0
H1725 H 0.44472 0.83185 0.38084 0.0
H1726 H 0.49032 0.8807 0.43133 0.0
H1727 H 0.51725 0.82797 0.37796 0.0
C1728 C 0.55048 0.83873 0.38833 0.0
C1729 C 0.56333 0.852 0.40343 0.0
C1730 C 0.48038 0.86967 0.42053 0.0
C1731 C 0.51583 0.84985 0.40751 0.0
C1732 C 0.45721 0.87389 0.41815 0.0
C1733 C 0.44385 0.86057 0.40363 0.0
C1734 C 0.49058 0.85229 0.40789 0.0
C1735 C 0.45434 0.84243 0.39235 0.0
C1736 C 0.52684 0.83747 0.39041 0.0
C1737 C 0.55181 0.86265 0.42132 0.0
N1738 N 0.47715 0.83906 0.39439 0.0
N1739 N 0.52878 0.86166 0.42262 0.0
H1740 H 0.63928 0.0687 0.93904 0.0
H1741 H 0.68361 0.95463 0.88038 0.0
H1742 H 0.67959 0.06709 0.87818 0.0
H1743 H 0.63874 0.95543 0.93797 0.0
H1744 H 0.68828 0.99571 0.88387 0.0
H1745 H 0.64484 0.02772 0.94333 0.0
C1746 C 0.64981 0.05988 0.92689 0.0
C1747 C 0.6589 0.07146 0.90815 0.0
C1748 C 0.67771 0.9869 0.89601 0.0
C1749 C 0.66503 0.02427 0.91277 0.0
C1750 C 0.67516 0.96334 0.89413 0.0
C1751 C 0.66067 0.95145 0.90884 0.0
C1752 C 0.66561 0.99885 0.91268 0.0
C1753 C 0.65009 0.96381 0.92624 0.0
C1754 C 0.65282 0.03639 0.92926 0.0
C1755 C 0.6722 0.05895 0.89287 0.0
N1756 N 0.65252 0.9868 0.92749 0.0
N1757 N 0.67463 0.0361 0.89537 0.0
H1758 H 0.44551 0.13785 0.43684 0.0
H1759 H 0.55551 0.18469 0.37316 0.0
H1760 H 0.44226 0.18158 0.37839 0.0
H1761 H 0.55777 0.14407 0.43387 0.0
H1762 H 0.51439 0.18825 0.37763 0.0
H1763 H 0.48636 0.14438 0.43895 0.0
C1764 C 0.4533 0.14925 0.42472 0.0
C1765 C 0.44033 0.15914 0.40738 0.0
C1766 C 0.52391 0.17889 0.39021 0.0
C1767 C 0.48751 0.16632 0.40938 0.0
C1768 C 0.54747 0.17698 0.38775 0.0
C1769 C 0.56023 0.16399 0.40312 0.0
C1770 C 0.51287 0.16763 0.4081 0.0
C1771 C 0.54872 0.15424 0.42157 0.0
C1772 C 0.47673 0.15288 0.42586 0.0
C1773 C 0.4515 0.17365 0.39211 0.0
N1774 N 0.52577 0.15601 0.42337 0.0
N1775 N 0.47443 0.17654 0.39326 0.0
H1776 H 0.13911 0.32463 0.95131 0.0
H1777 H 0.07321 0.36496 0.06254 0.0
H1778 H 0.07788 0.36426 0.94903 0.0
H1779 H 0.13509 0.32627 0.0632 0.0
H1780 H 0.07079 0.35957 0.02138 0.0
H1781 H 0.13405 0.31969 0.99206 0.0
C1782 C 0.12429 0.3319 0.9593 0.0
C1783 C 0.10894 0.34494 0.94664 0.0
C1784 C 0.08467 0.35189 0.03058 0.0
C1785 C 0.10326 0.33978 0.99375 0.0
C1786 C 0.08596 0.3548 0.05416 0.0
C1787 C 0.10444 0.34613 0.06644 0.0
C1788 C 0.10199 0.34023 0.01911 0.0
C1789 C 0.12056 0.33332 0.05452 0.0
C1790 C 0.12147 0.32917 0.98267 0.0
C1791 C 0.0901 0.35399 0.95805 0.0
N1792 N 0.1191 0.331 0.0316 0.0
N1793 N 0.08798 0.35153 0.98096 0.0
H1794 H 0.13249 0.68273 0.95225 0.0
H1795 H 0.07196 0.63882 0.06537 0.0
H1796 H 0.07605 0.6362 0.9527 0.0
H1797 H 0.13115 0.68177 0.06474 0.0
H1798 H 0.06856 0.64364 0.02429 0.0
H1799 H 0.12757 0.68848 0.99301 0.0
C1800 C 0.11869 0.67414 0.96079 0.0
C1801 C 0.10475 0.65885 0.94895 0.0
C1802 C 0.08206 0.65237 0.03317 0.0
C1803 C 0.09926 0.66504 0.99594 0.0
C1804 C 0.0839 0.64977 0.05671 0.0
C1805 C 0.10195 0.65981 0.06861 0.0
C1806 C 0.09841 0.66506 0.02131 0.0
C1807 C 0.11699 0.67366 0.05634 0.0
C1808 C 0.11598 0.67731 0.98416 0.0
C1809 C 0.08723 0.64812 0.96106 0.0
N1810 N 0.11505 0.67562 0.03341 0.0
N1811 N 0.08519 0.65118 0.98387 0.0
H1812 H 0.86502 0.57198 0.4447 0.0
H1813 H 0.82371 0.63452 0.55797 0.0
H1814 H 0.82741 0.63458 0.44528 0.0
H1815 H 0.86633 0.57523 0.55778 0.0
H1816 H 0.81903 0.63078 0.51691 0.0
H1817 H 0.85974 0.56891 0.48578 0.0
C1818 C 0.85513 0.58478 0.45333 0.0
C1819 C 0.84671 0.60361 0.44141 0.0
C1820 C 0.82912 0.61835 0.52587 0.0
C1821 C 0.84093 0.60041 0.48872 0.0
C1822 C 0.83167 0.62039 0.5494 0.0
C1823 C 0.84551 0.60522 0.56145 0.0
C1824 C 0.84053 0.60104 0.51412 0.0
C1825 C 0.85551 0.58735 0.54927 0.0
C1826 C 0.85228 0.58312 0.47688 0.0
C1827 C 0.83424 0.61977 0.45368 0.0
N1828 N 0.85304 0.58591 0.52633 0.0
N1829 N 0.83196 0.61793 0.4766 0.0
H1830 H 0.86939 0.32958 0.95106 0.0
H1831 H 0.93616 0.36511 0.06362 0.0
H1832 H 0.93228 0.36683 0.95007 0.0
H1833 H 0.87261 0.32899 0.06293 0.0
H1834 H 0.93875 0.36029 0.02237 0.0
H1835 H 0.87402 0.32352 0.99173 0.0
C1836 C 0.88447 0.33606 0.9593 0.0
C1837 C 0.90042 0.3488 0.94704 0.0
C1838 C 0.92446 0.35303 0.0313 0.0
C1839 C 0.90562 0.34238 0.99406 0.0
C1840 C 0.92307 0.35559 0.05493 0.0
C1841 C 0.90409 0.3475 0.06684 0.0
C1842 C 0.90673 0.3423 0.01945 0.0
C1843 C 0.88752 0.33558 0.05453 0.0
C1844 C 0.88705 0.33271 0.98263 0.0
C1845 C 0.91957 0.35684 0.95877 0.0
N1846 N 0.8891 0.33358 0.0316 0.0
N1847 N 0.92147 0.3538 0.98163 0.0
H1848 H 0.18624 0.38549 0.56526 0.0
H1849 H 0.13765 0.4351 0.44822 0.0
H1850 H 0.12692 0.42761 0.55961 0.0
H1851 H 0.18638 0.38081 0.4514 0.0
H1852 H 0.14013 0.43915 0.48937 0.0
H1853 H 0.19264 0.38998 0.52429 0.0
C1854 C 0.1749 0.39615 0.55554 0.0
C1855 C 0.15598 0.40615 0.5659 0.0
C1856 C 0.15059 0.4266 0.48106 0.0
C1857 C 0.1631 0.41124 0.519 0.0
C1858 C 0.14933 0.4244 0.45747 0.0
C1859 C 0.16172 0.40749 0.44622 0.0
C1860 C 0.16436 0.4118 0.49367 0.0
C1861 C 0.17648 0.39407 0.45928 0.0
C1862 C 0.17846 0.39855 0.53211 0.0
C1863 C 0.14168 0.41953 0.55236 0.0
N1864 N 0.17719 0.39632 0.48229 0.0
N1865 N 0.14545 0.42156 0.5297 0.0
H1866 H 0.93398 0.64492 0.94286 0.0
H1867 H 0.8736 0.68099 0.05903 0.0
H1868 H 0.8696 0.67906 0.94684 0.0
H1869 H 0.93489 0.64143 0.05641 0.0
H1870 H 0.87591 0.68662 0.01806 0.0
H1871 H 0.93846 0.64957 0.98397 0.0
C1872 C 0.92106 0.65394 0.95224 0.0
C1873 C 0.90134 0.66156 0.94129 0.0
C1874 C 0.88909 0.677 0.02644 0.0
C1875 C 0.90621 0.66663 0.98856 0.0
C1876 C 0.88787 0.67391 0.04994 0.0
C1877 C 0.90403 0.66064 0.0613 0.0
C1878 C 0.90654 0.66665 0.01398 0.0
C1879 C 0.92205 0.65182 0.04845 0.0
C1880 C 0.92354 0.65641 0.97579 0.0
C1881 C 0.88507 0.67285 0.95449 0.0
N1882 N 0.92266 0.65473 0.0255 0.0
N1883 N 0.88776 0.67484 0.97733 0.0
H1884 H 0.8805 0.43818 0.44828 0.0
H1885 H 0.8302 0.39142 0.56596 0.0
H1886 H 0.82882 0.38648 0.45138 0.0
H1887 H 0.89357 0.42723 0.55935 0.0
H1888 H 0.82404 0.39583 0.52489 0.0
H1889 H 0.87957 0.44105 0.48958 0.0
C1890 C 0.86855 0.42778 0.45758 0.0
C1891 C 0.85478 0.41199 0.44622 0.0
C1892 C 0.83912 0.40299 0.53252 0.0
C1893 C 0.85386 0.415 0.49386 0.0
C1894 C 0.84256 0.40063 0.55599 0.0
C1895 C 0.86245 0.40895 0.56614 0.0
C1896 C 0.85554 0.41403 0.51916 0.0
C1897 C 0.87802 0.42049 0.55229 0.0
C1898 C 0.86817 0.4293 0.48125 0.0
C1899 C 0.83974 0.39891 0.45935 0.0
N1900 N 0.87427 0.42263 0.52962 0.0
N1901 N 0.83983 0.40055 0.48244 0.0
H1902 H 0.17785 0.6355 0.56519 0.0
H1903 H 0.13819 0.57139 0.45235 0.0
H1904 H 0.13696 0.57484 0.56603 0.0
H1905 H 0.17689 0.63346 0.45325 0.0
H1906 H 0.14287 0.56843 0.49359 0.0
H1907 H 0.18304 0.63103 0.52441 0.0
C1908 C 0.17034 0.62094 0.55688 0.0
C1909 C 0.15688 0.60557 0.56914 0.0
C1910 C 0.15069 0.58248 0.48471 0.0
C1911 C 0.16236 0.60058 0.522 0.0
C1912 C 0.14819 0.58407 0.4611 0.0
C1913 C 0.1571 0.60275 0.44924 0.0
C1914 C 0.1622 0.59968 0.49662 0.0
C1915 C 0.16967 0.6188 0.46161 0.0
C1916 C 0.1732 0.61845 0.53348 0.0
C1917 C 0.14754 0.58707 0.55732 0.0
N1918 N 0.17162 0.61701 0.48453 0.0
N1919 N 0.15018 0.58527 0.5344 0.0
H1920 H 0.30527 0.14167 0.41962 0.0
H1921 H 0.19547 0.12136 0.34076 0.0
H1922 H 0.30843 0.13843 0.34672 0.0
H1923 H 0.1948 0.11754 0.41372 0.0
H1924 H 0.23648 0.12893 0.34218 0.0
H1925 H 0.26418 0.13556 0.41753 0.0
C1926 C 0.29729 0.14011 0.40316 0.0
C1927 C 0.3104 0.14065 0.38334 0.0
C1928 C 0.22735 0.1263 0.35787 0.0
C1929 C 0.26327 0.13316 0.38077 0.0
C1930 C 0.20395 0.1218 0.35703 0.0
C1931 C 0.19159 0.11869 0.37712 0.0
C1932 C 0.23848 0.12786 0.37896 0.0
C1933 C 0.20353 0.11975 0.39775 0.0
C1934 C 0.27382 0.13638 0.40196 0.0
C1935 C 0.29906 0.13819 0.36247 0.0
N1936 N 0.22614 0.12432 0.39812 0.0
N1937 N 0.27627 0.13448 0.36174 0.0
H1938 H 0.3772 0.70064 0.84718 0.0
H1939 H 0.40404 0.81333 0.9188 0.0
H1940 H 0.41442 0.70055 0.91002 0.0
H1941 H 0.35226 0.81085 0.86734 0.0
H1942 H 0.41016 0.77258 0.914 0.0
H1943 H 0.37092 0.74167 0.85161 0.0
C1944 C 0.38444 0.7093 0.86166 0.0
C1945 C 0.39649 0.6971 0.87818 0.0
C1946 C 0.3973 0.78085 0.90388 0.0
C1947 C 0.38908 0.74402 0.88355 0.0
C1948 C 0.3937 0.80415 0.90672 0.0
C1949 C 0.37744 0.81557 0.89363 0.0
C1950 C 0.38486 0.76876 0.88752 0.0
C1951 C 0.36476 0.80273 0.87802 0.0
C1952 C 0.38061 0.73268 0.86433 0.0
C1953 C 0.40511 0.70922 0.89681 0.0
N1954 N 0.36887 0.78011 0.87525 0.0
N1955 N 0.40126 0.73188 0.89897 0.0
H1956 H 0.69553 0.90994 0.35947 0.0
H1957 H 0.81248 0.86446 0.41038 0.0
H1958 H 0.69905 0.85543 0.40809 0.0
H1959 H 0.80895 0.90909 0.35257 0.0
H1960 H 0.77123 0.86262 0.41124 0.0
H1961 H 0.73675 0.9113 0.35824 0.0
C1962 C 0.70497 0.89822 0.36997 0.0
C1963 C 0.69367 0.88254 0.38398 0.0
C1964 C 0.7794 0.87281 0.39834 0.0
C1965 C 0.74133 0.88415 0.38262 0.0
C1966 C 0.80304 0.87398 0.39784 0.0
C1967 C 0.81434 0.88703 0.38136 0.0
C1968 C 0.76668 0.88491 0.38235 0.0
C1969 C 0.80104 0.89886 0.36559 0.0
C1970 C 0.7286 0.89901 0.36917 0.0
C1971 C 0.70697 0.86778 0.39706 0.0
N1972 N 0.77794 0.89758 0.36652 0.0
N1973 N 0.73007 0.86902 0.39613 0.0
H1974 H 0.59417 0.20156 0.86625 0.0
H1975 H 0.64326 0.31993 0.91092 0.0
H1976 H 0.65257 0.20646 0.90992 0.0
H1977 H 0.59483 0.31523 0.85637 0.0
H1978 H 0.64518 0.27867 0.91242 0.0
H1979 H 0.59257 0.24285 0.86423 0.0
C1980 C 0.60667 0.21131 0.87553 0.0
C1981 C 0.62354 0.20038 0.88836 0.0
C1982 C 0.63414 0.28657 0.90009 0.0
C1983 C 0.62169 0.2481 0.88607 0.0
C1984 C 0.63293 0.31023 0.89922 0.0
C1985 C 0.61878 0.32122 0.88348 0.0
C1986 C 0.62095 0.27349 0.88525 0.0
C1987 C 0.60595 0.30758 0.86878 0.0
C1988 C 0.60575 0.23498 0.87426 0.0
C1989 C 0.63926 0.21407 0.89986 0.0
N1990 N 0.60727 0.28446 0.87009 0.0
N1991 N 0.6379 0.23718 0.89851 0.0
H1992 H 0.31806 0.86117 0.5935 0.0
H1993 H 0.20752 0.90536 0.66009 0.0
H1994 H 0.32136 0.90278 0.65349 0.0
H1995 H 0.20559 0.87927 0.59185 0.0
H1996 H 0.2491 0.90208 0.6595 0.0
H1997 H 0.27647 0.86459 0.59417 0.0
C1998 C 0.31008 0.87092 0.60683 0.0
C1999 C 0.3233 0.88175 0.62338 0.0
C2000 C 0.23953 0.89718 0.64462 0.0
C2001 C 0.27572 0.88569 0.62438 0.0
C2002 C 0.21579 0.89913 0.64496 0.0
C2003 C 0.20296 0.89272 0.62598 0.0
C2004 C 0.25052 0.88847 0.62529 0.0
C2005 C 0.21469 0.88455 0.60688 0.0
C2006 C 0.28635 0.87295 0.60719 0.0
C2007 C 0.31195 0.89421 0.64027 0.0
N2008 N 0.23766 0.88255 0.60707 0.0
N2009 N 0.28895 0.89577 0.64037 0.0
H2010 H 0.64902 0.69191 0.09968 0.0
H2011 H 0.60101 0.81088 0.14311 0.0
H2012 H 0.60103 0.69753 0.15444 0.0
H2013 H 0.65889 0.80553 0.09889 0.0
H2014 H 0.59946 0.76967 0.14587 0.0
H2015 H 0.65144 0.73315 0.09775 0.0
C2016 C 0.63891 0.70181 0.11134 0.0
C2017 C 0.6247 0.69108 0.12724 0.0
C2018 C 0.61254 0.77742 0.13557 0.0
C2019 C 0.62743 0.73878 0.12499 0.0
C2020 C 0.61343 0.80105 0.13388 0.0
C2021 C 0.63011 0.81185 0.12065 0.0
C2022 C 0.62831 0.76416 0.1238 0.0
C2023 C 0.64573 0.79803 0.10925 0.0
C2024 C 0.6404 0.72545 0.11023 0.0
C2025 C 0.61217 0.70497 0.14191 0.0
N2026 N 0.64438 0.77493 0.11101 0.0
N2027 N 0.61374 0.72806 0.14035 0.0
H2028 H 0.8148 0.14626 0.59461 0.0
H2029 H 0.69829 0.1016 0.64736 0.0
H2030 H 0.81223 0.10344 0.65382 0.0
H2031 H 0.7017 0.15577 0.59837 0.0
H2032 H 0.73959 0.10045 0.64858 0.0
H2033 H 0.77361 0.14816 0.59445 0.0
C2034 C 0.80558 0.13716 0.60762 0.0
C2035 C 0.81717 0.12458 0.62426 0.0
C2036 C 0.73138 0.11263 0.63758 0.0
C2037 C 0.76946 0.12674 0.62405 0.0
C2038 C 0.70772 0.11329 0.63678 0.0
C2039 C 0.69636 0.1288 0.62265 0.0
C2040 C 0.74408 0.12744 0.62399 0.0
C2041 C 0.70964 0.14353 0.60948 0.0
C2042 C 0.78196 0.13836 0.60752 0.0
C2043 C 0.80411 0.11331 0.64066 0.0
N2044 N 0.73275 0.1424 0.61039 0.0
N2045 N 0.78098 0.11456 0.64008 0.0
H2046 H 0.39784 0.20293 0.16213 0.0
H2047 H 0.37158 0.31876 0.09626 0.0
H2048 H 0.36075 0.20547 0.09923 0.0
H2049 H 0.40278 0.31665 0.16231 0.0
H2050 H 0.36839 0.27752 0.09668 0.0
H2051 H 0.40014 0.24422 0.16224 0.0
C2052 C 0.39002 0.21218 0.14834 0.0
C2053 C 0.37905 0.20057 0.1306 0.0
C2054 C 0.37598 0.28599 0.11109 0.0
C2055 C 0.38187 0.24831 0.13058 0.0
C2056 C 0.37792 0.30963 0.11087 0.0
C2057 C 0.38755 0.32134 0.1293 0.0
C2058 C 0.38377 0.27366 0.12986 0.0
C2059 C 0.39532 0.30842 0.14771 0.0
C2060 C 0.39139 0.23585 0.14844 0.0
C2061 C 0.36928 0.21362 0.11328 0.0
N2062 N 0.39327 0.28533 0.14751 0.0
N2063 N 0.37102 0.23675 0.11365 0.0
H2064 H 0.13282 0.41483 0.19794 0.0
H2065 H 0.11783 0.34784 0.31494 0.0
H2066 H 0.10972 0.34548 0.20155 0.0
H2067 H 0.15068 0.41307 0.31025 0.0
H2068 H 0.11364 0.34721 0.27386 0.0
H2069 H 0.13769 0.41512 0.23896 0.0
C2070 C 0.1286 0.39964 0.20737 0.0
C2071 C 0.12077 0.38007 0.19613 0.0
C2072 C 0.12185 0.36165 0.28171 0.0
C2073 C 0.12651 0.38033 0.24353 0.0
C2074 C 0.12428 0.36207 0.30525 0.0
C2075 C 0.13462 0.3806 0.31619 0.0
C2076 C 0.12961 0.38 0.26873 0.0
C2077 C 0.14267 0.39842 0.30261 0.0
C2078 C 0.13152 0.39983 0.23087 0.0
C2079 C 0.11569 0.36096 0.2094 0.0
N2080 N 0.13987 0.39774 0.27963 0.0
N2081 N 0.11864 0.36158 0.23236 0.0
H2082 H 0.09238 0.62747 0.70286 0.0
H2083 H 0.15936 0.60644 0.81862 0.0
H2084 H 0.1623 0.60643 0.70448 0.0
H2085 H 0.0971 0.64442 0.81514 0.0
H2086 H 0.15952 0.60343 0.77737 0.0
H2087 H 0.09254 0.63029 0.74405 0.0
C2088 C 0.10778 0.62321 0.71187 0.0
C2089 C 0.12739 0.61663 0.70004 0.0
C2090 C 0.14585 0.61248 0.78556 0.0
C2091 C 0.12761 0.61999 0.74764 0.0
C2092 C 0.14567 0.6142 0.80918 0.0
C2093 C 0.12813 0.6257 0.82047 0.0
C2094 C 0.12819 0.62206 0.7729 0.0
C2095 C 0.11097 0.63544 0.80721 0.0
C2096 C 0.10785 0.625 0.73547 0.0
C2097 C 0.14678 0.61147 0.71281 0.0
N2098 N 0.11135 0.63327 0.78417 0.0
N2099 N 0.14639 0.61322 0.7359 0.0
H2100 H 0.86434 0.59706 0.19239 0.0
H2101 H 0.91228 0.64206 0.31082 0.0
H2102 H 0.91106 0.65317 0.19731 0.0
H2103 H 0.85356 0.59872 0.30573 0.0
H2104 H 0.91401 0.64419 0.26958 0.0
H2105 H 0.86223 0.59546 0.2336 0.0
C2106 C 0.87427 0.60906 0.20213 0.0
C2107 C 0.88799 0.62528 0.1912 0.0
C2108 C 0.90073 0.63422 0.27741 0.0
C2109 C 0.88561 0.6234 0.23888 0.0
C2110 C 0.89974 0.63287 0.30104 0.0
C2111 C 0.88274 0.6201 0.31191 0.0
C2112 C 0.88475 0.62252 0.26425 0.0
C2113 C 0.86696 0.60873 0.29817 0.0
C2114 C 0.87294 0.60815 0.22575 0.0
C2115 C 0.9003 0.64038 0.2049 0.0
N2116 N 0.86842 0.61012 0.27509 0.0
N2117 N 0.8989 0.639 0.22799 0.0
H2118 H 0.8926 0.41946 0.81562 0.0
H2119 H 0.85366 0.35642 0.70153 0.0
H2120 H 0.87692 0.34807 0.81284 0.0
H2121 H 0.87651 0.4259 0.70357 0.0
H2122 H 0.85945 0.35368 0.7425 0.0
H2123 H 0.88556 0.42231 0.77496 0.0
C2124 C 0.88793 0.40427 0.8064 0.0
C2125 C 0.88548 0.38344 0.81775 0.0
C2126 C 0.863 0.3696 0.73406 0.0
C2127 C 0.87688 0.38673 0.7709 0.0
C2128 C 0.85946 0.37128 0.71064 0.0
C2129 C 0.86449 0.39149 0.69897 0.0
C2130 C 0.87165 0.38827 0.74609 0.0
C2131 C 0.87222 0.41004 0.71177 0.0
C2132 C 0.88378 0.40596 0.78313 0.0
C2133 C 0.87925 0.36442 0.80482 0.0
N2134 N 0.87566 0.40794 0.73454 0.0
N2135 N 0.87504 0.36654 0.78215 0.0
H2136 H 0.70597 0.91683 0.60833 0.0
H2137 H 0.81859 0.86134 0.66064 0.0
H2138 H 0.7079 0.84884 0.63513 0.0
H2139 H 0.81772 0.92542 0.62544 0.0
H2140 H 0.77781 0.85741 0.6538 0.0
H2141 H 0.74654 0.9206 0.61556 0.0
C2142 C 0.715 0.90253 0.61548 0.0
C2143 C 0.70343 0.88241 0.62099 0.0
C2144 C 0.78648 0.87242 0.64772 0.0
C2145 C 0.75016 0.88685 0.62986 0.0
C2146 C 0.80977 0.87481 0.65183 0.0
C2147 C 0.8217 0.89383 0.64372 0.0
C2148 C 0.77486 0.88919 0.63543 0.0
C2149 C 0.8093 0.91055 0.63216 0.0
C2150 C 0.73821 0.90476 0.61973 0.0
C2151 C 0.71611 0.86457 0.63038 0.0
N2152 N 0.78667 0.9078 0.62832 0.0
N2153 N 0.73871 0.86726 0.63466 0.0
H2154 H 0.65127 0.19464 0.15707 0.0
H2155 H 0.61884 0.30977 0.09221 0.0
H2156 H 0.6351 0.19749 0.08589 0.0
H2157 H 0.62604 0.30575 0.16478 0.0
H2158 H 0.62594 0.26908 0.08952 0.0
H2159 H 0.64452 0.23549 0.15989 0.0
C2160 C 0.64666 0.2039 0.14191 0.0
C2161 C 0.64388 0.19249 0.12115 0.0
C2162 C 0.62583 0.27698 0.10608 0.0
C2163 C 0.63571 0.23952 0.1244 0.0
C2164 C 0.62167 0.30027 0.10766 0.0
C2165 C 0.62172 0.3113 0.12879 0.0
C2166 C 0.63037 0.26437 0.12574 0.0
C2167 C 0.62562 0.298 0.14816 0.0
C2168 C 0.6426 0.22726 0.14361 0.0
C2169 C 0.63763 0.20549 0.1022 0.0
N2170 N 0.62993 0.27531 0.14616 0.0
N2171 N 0.63371 0.22821 0.1043 0.0
H2172 H 0.20143 0.08567 0.62797 0.0
H2173 H 0.3111 0.16702 0.62505 0.0
H2174 H 0.19952 0.15594 0.64804 0.0
H2175 H 0.3142 0.09429 0.6183 0.0
H2176 H 0.26987 0.16404 0.63079 0.0
H2177 H 0.24251 0.08888 0.62275 0.0
C2178 C 0.20967 0.10168 0.63163 0.0
C2179 C 0.19691 0.12049 0.63864 0.0
C2180 C 0.27959 0.14875 0.62793 0.0
C2181 C 0.24409 0.12451 0.63208 0.0
C2182 C 0.30311 0.15048 0.62443 0.0
C2183 C 0.3162 0.1309 0.6211 0.0
C2184 C 0.26902 0.12729 0.62793 0.0
C2185 C 0.30487 0.10988 0.62079 0.0
C2186 C 0.23316 0.10357 0.62849 0.0
C2187 C 0.20861 0.1409 0.64282 0.0
N2188 N 0.28208 0.10865 0.62413 0.0
N2189 N 0.23142 0.14241 0.63932 0.0
H2190 H 0.37212 0.8175 0.0882 0.0
H2191 H 0.39165 0.70564 0.16438 0.0
H2192 H 0.37375 0.81811 0.16123 0.0
H2193 H 0.38675 0.70474 0.0915 0.0
H2194 H 0.38591 0.74694 0.16365 0.0
H2195 H 0.3771 0.77615 0.08902 0.0
C2196 C 0.37318 0.80894 0.1044 0.0
C2197 C 0.37242 0.82138 0.12466 0.0
C2198 C 0.38619 0.7377 0.1478 0.0
C2199 C 0.37861 0.77398 0.12578 0.0
C2200 C 0.38965 0.71412 0.14823 0.0
C2201 C 0.38977 0.70163 0.12799 0.0
C2202 C 0.38284 0.74894 0.12698 0.0
C2203 C 0.38683 0.7136 0.10756 0.0
C2204 C 0.37621 0.78531 0.10489 0.0
C2205 C 0.37417 0.80929 0.14516 0.0
N2206 N 0.38346 0.73644 0.10759 0.0
N2207 N 0.37728 0.7864 0.14519 0.0
H2208 H 0.69394 0.13341 0.41948 0.0
H2209 H 0.80488 0.1291 0.33999 0.0
H2210 H 0.6933 0.15226 0.3489 0.0
H2211 H 0.80538 0.11496 0.41165 0.0
H2212 H 0.76387 0.13631 0.3423 0.0
H2213 H 0.73478 0.12651 0.41676 0.0
C2214 C 0.70243 0.13647 0.4035 0.0
C2215 C 0.69008 0.14358 0.38445 0.0
C2216 C 0.77295 0.13147 0.35748 0.0
C2217 C 0.73699 0.13515 0.38101 0.0
C2218 C 0.79634 0.12714 0.35611 0.0
C2219 C 0.80867 0.12131 0.37562 0.0
C2220 C 0.76174 0.12995 0.37852 0.0
C2221 C 0.79666 0.11936 0.39613 0.0
C2222 C 0.72577 0.13234 0.40188 0.0
C2223 C 0.70208 0.14695 0.3641 0.0
N2224 N 0.77403 0.1237 0.39703 0.0
N2225 N 0.72474 0.14259 0.36289 0.0
H2226 H 0.37155 0.31111 0.8469 0.0
H2227 H 0.41181 0.19839 0.91151 0.0
H2228 H 0.42383 0.31051 0.89791 0.0
H2229 H 0.34915 0.20182 0.87417 0.0
H2230 H 0.41778 0.23886 0.90471 0.0
H2231 H 0.36522 0.27042 0.85353 0.0
C2232 C 0.38204 0.30235 0.85914 0.0
C2233 C 0.39839 0.3143 0.87174 0.0
C2234 C 0.4026 0.23089 0.89816 0.0
C2235 C 0.39093 0.26771 0.87972 0.0
C2236 C 0.39909 0.20775 0.90216 0.0
C2237 C 0.37983 0.19666 0.8936 0.0
C2238 C 0.38694 0.24317 0.8851 0.0
C2239 C 0.36408 0.2097 0.88138 0.0
C2240 C 0.3782 0.27916 0.86313 0.0
C2241 C 0.41115 0.30205 0.88769 0.0
N2242 N 0.36808 0.23218 0.87731 0.0
N2243 N 0.40715 0.27954 0.8912 0.0
H2244 H 0.19678 0.8769 0.33847 0.0
H2245 H 0.30722 0.87599 0.4186 0.0
H2246 H 0.19744 0.90002 0.40777 0.0
H2247 H 0.30965 0.86051 0.34725 0.0
H2248 H 0.26628 0.88189 0.41538 0.0
H2249 H 0.23767 0.86942 0.34124 0.0
C2250 C 0.20555 0.88076 0.35412 0.0
C2251 C 0.19359 0.88923 0.37285 0.0
C2252 C 0.27571 0.87699 0.40045 0.0
C2253 C 0.24032 0.88014 0.37637 0.0
C2254 C 0.2991 0.87335 0.40235 0.0
C2255 C 0.31198 0.86766 0.3832 0.0
C2256 C 0.26499 0.87493 0.37922 0.0
C2257 C 0.30044 0.86481 0.36251 0.0
C2258 C 0.22887 0.87629 0.35578 0.0
C2259 C 0.20588 0.89358 0.39282 0.0
N2260 N 0.27771 0.86857 0.36105 0.0
N2261 N 0.22841 0.88889 0.39408 0.0
H2262 H 0.64171 0.70152 0.91209 0.0
H2263 H 0.6006 0.82063 0.86186 0.0
H2264 H 0.59845 0.70714 0.85346 0.0
H2265 H 0.65292 0.81497 0.91256 0.0
H2266 H 0.59817 0.77942 0.85999 0.0
H2267 H 0.64437 0.74276 0.91385 0.0
C2268 C 0.63266 0.71142 0.89956 0.0
C2269 C 0.61976 0.70069 0.88257 0.0
C2270 C 0.61021 0.7871 0.87153 0.0
C2271 C 0.62282 0.74837 0.8846 0.0
C2272 C 0.61161 0.81073 0.8727 0.0
C2273 C 0.62701 0.82145 0.88747 0.0
C2274 C 0.62417 0.77376 0.88536 0.0
C2275 C 0.64082 0.80754 0.90095 0.0
C2276 C 0.63429 0.73506 0.90058 0.0
C2277 C 0.60854 0.71458 0.86685 0.0
N2278 N 0.63901 0.78445 0.89963 0.0
N2279 N 0.61029 0.73766 0.86828 0.0
H2280 H 0.87615 0.66543 0.80665 0.0
H2281 H 0.88443 0.5875 0.69504 0.0
H2282 H 0.89762 0.5956 0.80752 0.0
H2283 H 0.85092 0.6524 0.69581 0.0
H2284 H 0.89092 0.59087 0.7359 0.0
H2285 H 0.86944 0.66227 0.76561 0.0
C2286 C 0.87984 0.64957 0.79818 0.0
C2287 C 0.88757 0.63079 0.81061 0.0
C2288 C 0.88196 0.60431 0.72721 0.0
C2289 C 0.87961 0.62692 0.76363 0.0
C2290 C 0.87809 0.6023 0.70385 0.0
C2291 C 0.86693 0.61959 0.69189 0.0
C2292 C 0.87488 0.62389 0.73883 0.0
C2293 C 0.85941 0.63853 0.70429 0.0
C2294 C 0.87577 0.64769 0.77477 0.0
C2295 C 0.8917 0.61055 0.7987 0.0
N2296 N 0.86365 0.64024 0.72696 0.0
N2297 N 0.88768 0.60917 0.77601 0.0
H2298 H 0.84922 0.36303 0.31159 0.0
H2299 H 0.90133 0.41777 0.19856 0.0
H2300 H 0.88557 0.42652 0.31065 0.0
H2301 H 0.87825 0.34845 0.20202 0.0
H2302 H 0.89374 0.42201 0.23902 0.0
H2303 H 0.85649 0.35873 0.27092 0.0
C2304 C 0.85833 0.37632 0.30277 0.0
C2305 C 0.86666 0.39527 0.31465 0.0
C2306 C 0.89049 0.40579 0.23105 0.0
C2307 C 0.87542 0.3902 0.26796 0.0
C2308 C 0.89494 0.40329 0.20791 0.0
C2309 C 0.89059 0.38265 0.19681 0.0
C2310 C 0.88125 0.38761 0.24337 0.0
C2311 C 0.88213 0.36458 0.20987 0.0
C2312 C 0.86271 0.3737 0.27956 0.0
C2313 C 0.87867 0.41172 0.30226 0.0
N2314 N 0.87756 0.36754 0.23238 0.0
N2315 N 0.8827 0.40878 0.27969 0.0
H2316 H 0.13369 0.33733 0.81243 0.0
H2317 H 0.13862 0.41797 0.70224 0.0
H2318 H 0.1158 0.4082 0.8127 0.0
H2319 H 0.15337 0.34641 0.7003 0.0
H2320 H 0.13203 0.41494 0.74315 0.0
H2321 H 0.14134 0.34006 0.77155 0.0
C2322 C 0.13101 0.35335 0.80387 0.0
C2323 C 0.12397 0.37251 0.81609 0.0
C2324 C 0.13691 0.39992 0.73383 0.0
C2325 C 0.13321 0.37594 0.76933 0.0
C2326 C 0.14092 0.40171 0.71046 0.0
C2327 C 0.14667 0.38246 0.69773 0.0
C2328 C 0.1386 0.37869 0.74466 0.0
C2329 C 0.14906 0.36175 0.70938 0.0
C2330 C 0.13558 0.35497 0.78055 0.0
C2331 C 0.12112 0.39292 0.80405 0.0
N2332 N 0.14492 0.3604 0.73206 0.0
N2333 N 0.12582 0.39411 0.7815 0.0
H2334 H 0.09322 0.63302 0.31611 0.0
H2335 H 0.15384 0.60403 0.19873 0.0
H2336 H 0.15965 0.60286 0.31281 0.0
H2337 H 0.0961 0.64843 0.20375 0.0
H2338 H 0.15512 0.60135 0.23998 0.0
H2339 H 0.09282 0.63625 0.27502 0.0
C2340 C 0.10776 0.62692 0.30675 0.0
C2341 C 0.12653 0.61757 0.3181 0.0
C2342 C 0.1422 0.61173 0.23213 0.0
C2343 C 0.12609 0.62135 0.27053 0.0
C2344 C 0.14138 0.61327 0.20851 0.0
C2345 C 0.12475 0.62646 0.19764 0.0
C2346 C 0.12611 0.62325 0.24523 0.0
C2347 C 0.1092 0.63809 0.21133 0.0
C2348 C 0.10751 0.62891 0.28319 0.0
C2349 C 0.14481 0.6101 0.30487 0.0
N2350 N 0.11017 0.63609 0.23437 0.0
N2351 N 0.1441 0.61209 0.28179 0.0
loop_
_geom_bond_atom_site_label_1
_geom_bond_atom_site_label_2
_geom_bond_distance
_geom_bond_site_symmetry_2
_ccdc_geom_bond_type
In0 O1 2.294 . S
In0 O2 2.326 . S
In0 O6 2.266 . S
In0 O7 2.326 . S
In0 O8 2.266 . S
In0 O9 2.326 . S
In0 O11 2.294 . S
In0 O12 2.326 . S
O1 In0 2.294 . S
O1 C10 1.240 . S
O2 In0 2.326 . S
O2 C10 1.252 . S
C3 O6 1.252 . S
C3 O7 1.260 . S
C4 O11 1.240 . S
C4 O12 1.252 . S
C5 O8 1.252 . S
C5 O9 1.260 . S
O6 In0 2.266 . S
O6 C3 1.252 . S
O7 In0 2.326 . S
O7 C3 1.260 . S
O8 In0 2.266 . S
O8 C5 1.252 . S
O9 In0 2.326 . S
O9 C5 1.260 . S
C10 O1 1.240 . S
C10 O2 1.252 . S
O11 In0 2.294 . S
O11 C4 1.240 . S
O12 In0 2.326 . S
O12 C4 1.252 . S
In13 O14 2.294 . S
In13 O15 2.326 . S
In13 O19 2.266 . S
In13 O20 2.326 . S
In13 O21 2.266 . S
In13 O22 2.326 . S
In13 O24 2.294 . S
In13 O25 2.326 . S
O14 In13 2.294 . S
O14 C23 1.240 . S
O15 In13 2.326 . S
O15 C23 1.252 . S
C16 O19 1.252 . S
C16 O20 1.260 . S
C17 O24 1.240 . S
C17 O25 1.252 . S
C18 O21 1.252 . S
C18 O22 1.260 . S
O19 In13 2.266 . S
O19 C16 1.252 . S
O20 In13 2.326 . S
O20 C16 1.260 . S
O21 In13 2.266 . S
O21 C18 1.252 . S
O22 In13 2.326 . S
O22 C18 1.260 . S
C23 O14 1.240 . S
C23 O15 1.252 . S
O24 In13 2.294 . S
O24 C17 1.240 . S
O25 In13 2.326 . S
O25 C17 1.252 . S
In26 O27 2.294 . S
In26 O28 2.326 . S
In26 O32 2.266 . S
In26 O33 2.326 . S
In26 O34 2.266 . S
In26 O35 2.326 . S
In26 O37 2.294 . S
In26 O38 2.326 . S
O27 In26 2.294 . S
O27 C36 1.240 . S
O28 In26 2.326 . S
O28 C36 1.252 . S
C29 O32 1.252 . S
C29 O33 1.260 . S
C30 O37 1.240 . S
C30 O38 1.252 . S
C31 O34 1.252 . S
C31 O35 1.260 . S
O32 In26 2.266 . S
O32 C29 1.252 . S
O33 In26 2.326 . S
O33 C29 1.260 . S
O34 In26 2.266 . S
O34 C31 1.252 . S
O35 In26 2.326 . S
O35 C31 1.260 . S
C36 O27 1.240 . S
C36 O28 1.252 . S
O37 In26 2.294 . S
O37 C30 1.240 . S
O38 In26 2.326 . S
O38 C30 1.252 . S
In39 O40 2.294 . S
In39 O41 2.326 . S
In39 O45 2.266 . S
In39 O46 2.326 . S
In39 O47 2.266 . S
In39 O48 2.326 . S
In39 O50 2.294 . S
In39 O51 2.326 . S
O40 In39 2.294 . S
O40 C49 1.240 . S
O41 In39 2.326 . S
O41 C49 1.252 . S
C42 O45 1.252 . S
C42 O46 1.260 . S
C43 O50 1.240 . S
C43 O51 1.252 . S
C44 O47 1.252 . S
C44 O48 1.260 . S
O45 In39 2.266 . S
O45 C42 1.252 . S
O46 In39 2.326 . S
O46 C42 1.260 . S
O47 In39 2.266 . S
O47 C44 1.252 . S
O48 In39 2.326 . S
O48 C44 1.260 . S
C49 O40 1.240 . S
C49 O41 1.252 . S
O50 In39 2.294 . S
O50 C43 1.240 . S
O51 In39 2.326 . S
O51 C43 1.252 . S
In52 O53 2.294 . S
In52 O54 2.326 . S
In52 O58 2.266 . S
In52 O59 2.326 . S
In52 O60 2.266 . S
In52 O61 2.326 . S
In52 O63 2.294 . S
In52 O64 2.326 . S
O53 In52 2.294 . S
O53 C62 1.240 . S
O54 In52 2.326 . S
O54 C62 1.252 . S
C55 O58 1.252 . S
C55 O59 1.260 . S
C56 O63 1.240 . S
C56 O64 1.252 . S
C57 O60 1.252 . S
C57 O61 1.260 . S
O58 In52 2.266 . S
O58 C55 1.252 . S
O59 In52 2.326 . S
O59 C55 1.260 . S
O60 In52 2.266 . S
O60 C57 1.252 . S
O61 In52 2.326 . S
O61 C57 1.260 . S
C62 O53 1.240 . S
C62 O54 1.252 . S
O63 In52 2.294 . S
O63 C56 1.240 . S
O64 In52 2.326 . S
O64 C56 1.252 . S
In65 O66 2.294 . S
In65 O67 2.326 . S
In65 O71 2.266 . S
In65 O72 2.326 . S
In65 O73 2.266 . S
In65 O74 2.326 . S
In65 O76 2.294 . S
In65 O77 2.326 . S
O66 In65 2.294 . S
O66 C75 1.240 . S
O67 In65 2.326 . S
O67 C75 1.252 . S
C68 O71 1.252 . S
C68 O72 1.260 . S
C69 O76 1.240 . S
C69 O77 1.252 . S
C70 O73 1.252 . S
C70 O74 1.260 . S
O71 In65 2.266 . S
O71 C68 1.252 . S
O72 In65 2.326 . S
O72 C68 1.260 . S
O73 In65 2.266 . S
O73 C70 1.252 . S
O74 In65 2.326 . S
O74 C70 1.260 . S
C75 O66 1.240 . S
C75 O67 1.252 . S
O76 In65 2.294 . S
O76 C69 1.240 . S
O77 In65 2.326 . S
O77 C69 1.252 . S
In78 O79 2.294 . S
In78 O80 2.326 . S
In78 O84 2.266 . S
In78 O85 2.326 . S
In78 O86 2.266 . S
In78 O87 2.326 . S
In78 O89 2.294 . S
In78 O90 2.326 . S
O79 In78 2.294 . S
O79 C88 1.240 . S
O80 In78 2.326 . S
O80 C88 1.252 . S
C81 O84 1.252 . S
C81 O85 1.260 . S
C82 O89 1.240 . S
C82 O90 1.252 . S
C83 O86 1.252 . S
C83 O87 1.260 . S
O84 In78 2.266 . S
O84 C81 1.252 . S
O85 In78 2.326 . S
O85 C81 1.260 . S
O86 In78 2.266 . S
O86 C83 1.252 . S
O87 In78 2.326 . S
O87 C83 1.260 . S
C88 O79 1.240 . S
C88 O80 1.252 . S
O89 In78 2.294 . S
O89 C82 1.240 . S
O90 In78 2.326 . S
O90 C82 1.252 . S
In91 O92 2.294 . S
In91 O93 2.326 . S
In91 O97 2.266 . S
In91 O98 2.326 . S
In91 O99 2.266 . S
In91 O100 2.326 . S
In91 O102 2.294 . S
In91 O103 2.326 . S
O92 In91 2.294 . S
O92 C101 1.240 . S
O93 In91 2.326 . S
O93 C101 1.252 . S
C94 O97 1.252 . S
C94 O98 1.260 . S
C95 O102 1.240 . S
C95 O103 1.252 . S
C96 O99 1.252 . S
C96 O100 1.260 . S
O97 In91 2.266 . S
O97 C94 1.252 . S
O98 In91 2.326 . S
O98 C94 1.260 . S
O99 In91 2.266 . S
O99 C96 1.252 . S
O100 In91 2.326 . S
O100 C96 1.260 . S
C101 O92 1.240 . S
C101 O93 1.252 . S
O102 In91 2.294 . S
O102 C95 1.240 . S
O103 In91 2.326 . S
O103 C95 1.252 . S
In104 O105 2.294 . S
In104 O106 2.326 . S
In104 O110 2.266 . S
In104 O111 2.326 . S
In104 O112 2.266 . S
In104 O113 2.326 . S
In104 O115 2.294 . S
In104 O116 2.326 . S
O105 In104 2.294 . S
O105 C114 1.240 . S
O106 In104 2.326 . S
O106 C114 1.252 . S
C107 O110 1.252 . S
C107 O111 1.260 . S
C108 O115 1.240 . S
C108 O116 1.252 . S
C109 O112 1.252 . S
C109 O113 1.260 . S
O110 In104 2.266 . S
O110 C107 1.252 . S
O111 In104 2.326 . S
O111 C107 1.260 . S
O112 In104 2.266 . S
O112 C109 1.252 . S
O113 In104 2.326 . S
O113 C109 1.260 . S
C114 O105 1.240 . S
C114 O106 1.252 . S
O115 In104 2.294 . S
O115 C108 1.240 . S
O116 In104 2.326 . S
O116 C108 1.252 . S
In117 O118 2.294 . S
In117 O119 2.326 . S
In117 O123 2.266 . S
In117 O124 2.326 . S
In117 O125 2.266 . S
In117 O126 2.326 . S
In117 O128 2.294 . S
In117 O129 2.326 . S
O118 In117 2.294 . S
O118 C127 1.240 . S
O119 In117 2.326 . S
O119 C127 1.252 . S
C120 O123 1.252 . S
C120 O124 1.260 . S
C121 O128 1.240 . S
C121 O129 1.252 . S
C122 O125 1.252 . S
C122 O126 1.260 . S
O123 In117 2.266 . S
O123 C120 1.252 . S
O124 In117 2.326 . S
O124 C120 1.260 . S
O125 In117 2.266 . S
O125 C122 1.252 . S
O126 In117 2.326 . S
O126 C122 1.260 . S
C127 O118 1.240 . S
C127 O119 1.252 . S
O128 In117 2.294 . S
O128 C121 1.240 . S
O129 In117 2.326 . S
O129 C121 1.252 . S
In130 O131 2.294 . S
In130 O132 2.326 . S
In130 O136 2.266 . S
In130 O137 2.326 . S
In130 O138 2.266 . S
In130 O139 2.326 . S
In130 O141 2.294 . S
In130 O142 2.326 . S
O131 In130 2.294 . S
O131 C140 1.240 . S
O132 In130 2.326 . S
O132 C140 1.252 . S
C133 O136 1.252 . S
C133 O137 1.260 . S
C134 O141 1.240 . S
C134 O142 1.252 . S
C135 O138 1.252 . S
C135 O139 1.260 . S
O136 In130 2.266 . S
O136 C133 1.252 . S
O137 In130 2.326 . S
O137 C133 1.260 . S
O138 In130 2.266 . S
O138 C135 1.252 . S
O139 In130 2.326 . S
O139 C135 1.260 . S
C140 O131 1.240 . S
C140 O132 1.252 . S
O141 In130 2.294 . S
O141 C134 1.240 . S
O142 In130 2.326 . S
O142 C134 1.252 . S
In143 O144 2.294 . S
In143 O145 2.326 . S
In143 O149 2.266 . S
In143 O150 2.326 . S
In143 O151 2.266 . S
In143 O152 2.326 . S
In143 O154 2.294 . S
In143 O155 2.326 . S
O144 In143 2.294 . S
O144 C153 1.240 . S
O145 In143 2.326 . S
O145 C153 1.252 . S
C146 O149 1.252 . S
C146 O150 1.260 . S
C147 O154 1.240 . S
C147 O155 1.252 . S
C148 O151 1.252 . S
C148 O152 1.260 . S
O149 In143 2.266 . S
O149 C146 1.252 . S
O150 In143 2.326 . S
O150 C146 1.260 . S
O151 In143 2.266 . S
O151 C148 1.252 . S
O152 In143 2.326 . S
O152 C148 1.260 . S
C153 O144 1.240 . S
C153 O145 1.252 . S
O154 In143 2.294 . S
O154 C147 1.240 . S
O155 In143 2.326 . S
O155 C147 1.252 . S
In156 O157 2.294 . S
In156 O158 2.326 . S
In156 O162 2.266 . S
In156 O163 2.326 . S
In156 O164 2.266 . S
In156 O165 2.326 . S
In156 O167 2.294 . S
In156 O168 2.326 . S
O157 In156 2.294 . S
O157 C166 1.240 . S
O158 In156 2.326 . S
O158 C166 1.252 . S
C159 O162 1.252 . S
C159 O163 1.260 . S
C160 O167 1.240 . S
C160 O168 1.252 . S
C161 O164 1.252 . S
C161 O165 1.260 . S
O162 In156 2.266 . S
O162 C159 1.252 . S
O163 In156 2.326 . S
O163 C159 1.260 . S
O164 In156 2.266 . S
O164 C161 1.252 . S
O165 In156 2.326 . S
O165 C161 1.260 . S
C166 O157 1.240 . S
C166 O158 1.252 . S
O167 In156 2.294 . S
O167 C160 1.240 . S
O168 In156 2.326 . S
O168 C160 1.252 . S
In169 O170 2.294 . S
In169 O171 2.326 . S
In169 O175 2.266 . S
In169 O176 2.326 . S
In169 O177 2.266 . S
In169 O178 2.326 . S
In169 O180 2.294 . S
In169 O181 2.326 . S
O170 In169 2.294 . S
O170 C179 1.240 . S
O171 In169 2.326 . S
O171 C179 1.252 . S
C172 O175 1.252 . S
C172 O176 1.260 . S
C173 O180 1.240 . S
C173 O181 1.252 . S
C174 O177 1.252 . S
C174 O178 1.260 . S
O175 In169 2.266 . S
O175 C172 1.252 . S
O176 In169 2.326 . S
O176 C172 1.260 . S
O177 In169 2.266 . S
O177 C174 1.252 . S
O178 In169 2.326 . S
O178 C174 1.260 . S
C179 O170 1.240 . S
C179 O171 1.252 . S
O180 In169 2.294 . S
O180 C173 1.240 . S
O181 In169 2.326 . S
O181 C173 1.252 . S
In182 O183 2.294 . S
In182 O184 2.326 . S
In182 O188 2.266 . S
In182 O189 2.326 . S
In182 O190 2.266 . S
In182 O191 2.326 . S
In182 O193 2.294 . S
In182 O194 2.326 . S
O183 In182 2.294 . S
O183 C192 1.240 . S
O184 In182 2.326 . S
O184 C192 1.252 . S
C185 O188 1.252 . S
C185 O189 1.260 . S
C186 O193 1.240 . S
C186 O194 1.252 . S
C187 O190 1.252 . S
C187 O191 1.260 . S
O188 In182 2.266 . S
O188 C185 1.252 . S
O189 In182 2.326 . S
O189 C185 1.260 . S
O190 In182 2.266 . S
O190 C187 1.252 . S
O191 In182 2.326 . S
O191 C187 1.260 . S
C192 O183 1.240 . S
C192 O184 1.252 . S
O193 In182 2.294 . S
O193 C186 1.240 . S
O194 In182 2.326 . S
O194 C186 1.252 . S
In195 O196 2.294 . S
In195 O197 2.326 . S
In195 O201 2.266 . S
In195 O202 2.326 . S
In195 O203 2.266 . S
In195 O204 2.326 . S
In195 O206 2.294 . S
In195 O207 2.326 . S
O196 In195 2.294 . S
O196 C205 1.240 . S
O197 In195 2.326 . S
O197 C205 1.252 . S
C198 O201 1.252 . S
C198 O202 1.260 . S
C199 O206 1.240 . S
C199 O207 1.252 . S
C200 O203 1.252 . S
C200 O204 1.260 . S
O201 In195 2.266 . S
O201 C198 1.252 . S
O202 In195 2.326 . S
O202 C198 1.260 . S
O203 In195 2.266 . S
O203 C200 1.252 . S
O204 In195 2.326 . S
O204 C200 1.260 . S
C205 O196 1.240 . S
C205 O197 1.252 . S
O206 In195 2.294 . S
O206 C199 1.240 . S
O207 In195 2.326 . S
O207 C199 1.252 . S
In208 O209 2.294 . S
In208 O210 2.326 . S
In208 O214 2.266 . S
In208 O215 2.326 . S
In208 O216 2.266 . S
In208 O217 2.326 . S
In208 O219 2.294 . S
In208 O220 2.326 . S
O209 In208 2.294 . S
O209 C218 1.240 . S
O210 In208 2.326 . S
O210 C218 1.252 . S
C211 O214 1.252 . S
C211 O215 1.260 . S
C212 O219 1.240 . S
C212 O220 1.252 . S
C213 O216 1.252 . S
C213 O217 1.260 . S
O214 In208 2.266 . S
O214 C211 1.252 . S
O215 In208 2.326 . S
O215 C211 1.260 . S
O216 In208 2.266 . S
O216 C213 1.252 . S
O217 In208 2.326 . S
O217 C213 1.260 . S
C218 O209 1.240 . S
C218 O210 1.252 . S
O219 In208 2.294 . S
O219 C212 1.240 . S
O220 In208 2.326 . S
O220 C212 1.252 . S
In221 O222 2.294 . S
In221 O223 2.326 . S
In221 O227 2.266 . S
In221 O228 2.326 . S
In221 O229 2.266 . S
In221 O230 2.326 . S
In221 O232 2.294 . S
In221 O233 2.326 . S
O222 In221 2.294 . S
O222 C231 1.240 . S
O223 In221 2.326 . S
O223 C231 1.252 . S
C224 O227 1.252 . S
C224 O228 1.260 . S
C225 O232 1.240 . S
C225 O233 1.252 . S
C226 O229 1.252 . S
C226 O230 1.260 . S
O227 In221 2.266 . S
O227 C224 1.252 . S
O228 In221 2.326 . S
O228 C224 1.260 . S
O229 In221 2.266 . S
O229 C226 1.252 . S
O230 In221 2.326 . S
O230 C226 1.260 . S
C231 O222 1.240 . S
C231 O223 1.252 . S
O232 In221 2.294 . S
O232 C225 1.240 . S
O233 In221 2.326 . S
O233 C225 1.252 . S
In234 O235 2.294 . S
In234 O236 2.326 . S
In234 O240 2.266 . S
In234 O241 2.326 . S
In234 O242 2.266 . S
In234 O243 2.326 . S
In234 O245 2.294 . S
In234 O246 2.326 . S
O235 In234 2.294 . S
O235 C244 1.240 . S
O236 In234 2.326 . S
O236 C244 1.252 . S
C237 O240 1.252 . S
C237 O241 1.260 . S
C238 O245 1.240 . S
C238 O246 1.252 . S
C239 O242 1.252 . S
C239 O243 1.260 . S
O240 In234 2.266 . S
O240 C237 1.252 . S
O241 In234 2.326 . S
O241 C237 1.260 . S
O242 In234 2.266 . S
O242 C239 1.252 . S
O243 In234 2.326 . S
O243 C239 1.260 . S
C244 O235 1.240 . S
C244 O236 1.252 . S
O245 In234 2.294 . S
O245 C238 1.240 . S
O246 In234 2.326 . S
O246 C238 1.252 . S
In247 O248 2.294 . S
In247 O249 2.326 . S
In247 O253 2.266 . S
In247 O254 2.326 . S
In247 O255 2.266 . S
In247 O256 2.326 . S
In247 O258 2.294 . S
In247 O259 2.326 . S
O248 In247 2.294 . S
O248 C257 1.240 . S
O249 In247 2.326 . S
O249 C257 1.252 . S
C250 O253 1.252 . S
C250 O254 1.260 . S
C251 O258 1.240 . S
C251 O259 1.252 . S
C252 O255 1.252 . S
C252 O256 1.260 . S
O253 In247 2.266 . S
O253 C250 1.252 . S
O254 In247 2.326 . S
O254 C250 1.260 . S
O255 In247 2.266 . S
O255 C252 1.252 . S
O256 In247 2.326 . S
O256 C252 1.260 . S
C257 O248 1.240 . S
C257 O249 1.252 . S
O258 In247 2.294 . S
O258 C251 1.240 . S
O259 In247 2.326 . S
O259 C251 1.252 . S
In260 O261 2.294 . S
In260 O262 2.326 . S
In260 O266 2.266 . S
In260 O267 2.326 . S
In260 O268 2.266 . S
In260 O269 2.326 . S
In260 O271 2.294 . S
In260 O272 2.326 . S
O261 In260 2.294 . S
O261 C270 1.240 . S
O262 In260 2.326 . S
O262 C270 1.252 . S
C263 O266 1.252 . S
C263 O267 1.260 . S
C264 O271 1.240 . S
C264 O272 1.252 . S
C265 O268 1.252 . S
C265 O269 1.260 . S
O266 In260 2.266 . S
O266 C263 1.252 . S
O267 In260 2.326 . S
O267 C263 1.260 . S
O268 In260 2.266 . S
O268 C265 1.252 . S
O269 In260 2.326 . S
O269 C265 1.260 . S
C270 O261 1.240 . S
C270 O262 1.252 . S
O271 In260 2.294 . S
O271 C264 1.240 . S
O272 In260 2.326 . S
O272 C264 1.252 . S
In273 O274 2.294 . S
In273 O275 2.326 . S
In273 O279 2.266 . S
In273 O280 2.326 . S
In273 O281 2.266 . S
In273 O282 2.326 . S
In273 O284 2.294 . S
In273 O285 2.326 . S
O274 In273 2.294 . S
O274 C283 1.240 . S
O275 In273 2.326 . S
O275 C283 1.252 . S
C276 O279 1.252 . S
C276 O280 1.260 . S
C277 O284 1.240 . S
C277 O285 1.252 . S
C278 O281 1.252 . S
C278 O282 1.260 . S
O279 In273 2.266 . S
O279 C276 1.252 . S
O280 In273 2.326 . S
O280 C276 1.260 . S
O281 In273 2.266 . S
O281 C278 1.252 . S
O282 In273 2.326 . S
O282 C278 1.260 . S
C283 O274 1.240 . S
C283 O275 1.252 . S
O284 In273 2.294 . S
O284 C277 1.240 . S
O285 In273 2.326 . S
O285 C277 1.252 . S
In286 O287 2.294 . S
In286 O288 2.326 . S
In286 O292 2.266 . S
In286 O293 2.326 . S
In286 O294 2.266 . S
In286 O295 2.326 . S
In286 O297 2.294 . S
In286 O298 2.326 . S
O287 In286 2.294 . S
O287 C296 1.240 . S
O288 In286 2.326 . S
O288 C296 1.252 . S
C289 O292 1.252 . S
C289 O293 1.260 . S
C290 O297 1.240 . S
C290 O298 1.252 . S
C291 O294 1.252 . S
C291 O295 1.260 . S
O292 In286 2.266 . S
O292 C289 1.252 . S
O293 In286 2.326 . S
O293 C289 1.260 . S
O294 In286 2.266 . S
O294 C291 1.252 . S
O295 In286 2.326 . S
O295 C291 1.260 . S
C296 O287 1.240 . S
C296 O288 1.252 . S
O297 In286 2.294 . S
O297 C290 1.240 . S
O298 In286 2.326 . S
O298 C290 1.252 . S
In299 O300 2.294 . S
In299 O301 2.326 . S
In299 O305 2.266 . S
In299 O306 2.326 . S
In299 O307 2.266 . S
In299 O308 2.326 . S
In299 O310 2.294 . S
In299 O311 2.326 . S
O300 In299 2.294 . S
O300 C309 1.240 . S
O301 In299 2.326 . S
O301 C309 1.252 . S
C302 O305 1.252 . S
C302 O306 1.260 . S
C303 O310 1.240 . S
C303 O311 1.252 . S
C304 O307 1.252 . S
C304 O308 1.260 . S
O305 In299 2.266 . S
O305 C302 1.252 . S
O306 In299 2.326 . S
O306 C302 1.260 . S
O307 In299 2.266 . S
O307 C304 1.252 . S
O308 In299 2.326 . S
O308 C304 1.260 . S
C309 O300 1.240 . S
C309 O301 1.252 . S
O310 In299 2.294 . S
O310 C303 1.240 . S
O311 In299 2.326 . S
O311 C303 1.252 . S
In312 O313 2.294 . S
In312 O314 2.326 . S
In312 O318 2.266 . S
In312 O319 2.326 . S
In312 O320 2.266 . S
In312 O321 2.326 . S
In312 O323 2.294 . S
In312 O324 2.326 . S
O313 In312 2.294 . S
O313 C322 1.240 . S
O314 In312 2.326 . S
O314 C322 1.252 . S
C315 O318 1.252 . S
C315 O319 1.260 . S
C316 O323 1.240 . S
C316 O324 1.252 . S
C317 O320 1.252 . S
C317 O321 1.260 . S
O318 In312 2.266 . S
O318 C315 1.252 . S
O319 In312 2.326 . S
O319 C315 1.260 . S
O320 In312 2.266 . S
O320 C317 1.252 . S
O321 In312 2.326 . S
O321 C317 1.260 . S
C322 O313 1.240 . S
C322 O314 1.252 . S
O323 In312 2.294 . S
O323 C316 1.240 . S
O324 In312 2.326 . S
O324 C316 1.252 . S
In325 O326 2.294 . S
In325 O327 2.326 . S
In325 O331 2.266 . S
In325 O332 2.326 . S
In325 O333 2.266 . S
In325 O334 2.326 . S
In325 O336 2.294 . S
In325 O337 2.326 . S
O326 In325 2.294 . S
O326 C335 1.240 . S
O327 In325 2.326 . S
O327 C335 1.252 . S
C328 O331 1.252 . S
C328 O332 1.260 . S
C329 O336 1.240 . S
C329 O337 1.252 . S
C330 O333 1.252 . S
C330 O334 1.260 . S
O331 In325 2.266 . S
O331 C328 1.252 . S
O332 In325 2.326 . S
O332 C328 1.260 . S
O333 In325 2.266 . S
O333 C330 1.252 . S
O334 In325 2.326 . S
O334 C330 1.260 . S
C335 O326 1.240 . S
C335 O327 1.252 . S
O336 In325 2.294 . S
O336 C329 1.240 . S
O337 In325 2.326 . S
O337 C329 1.252 . S
In338 O339 2.294 . S
In338 O340 2.326 . S
In338 O344 2.266 . S
In338 O345 2.326 . S
In338 O346 2.266 . S
In338 O347 2.326 . S
In338 O349 2.294 . S
In338 O350 2.326 . S
O339 In338 2.294 . S
O339 C348 1.240 . S
O340 In338 2.326 . S
O340 C348 1.252 . S
C341 O344 1.252 . S
C341 O345 1.260 . S
C342 O349 1.240 . S
C342 O350 1.252 . S
C343 O346 1.252 . S
C343 O347 1.260 . S
O344 In338 2.266 . S
O344 C341 1.252 . S
O345 In338 2.326 . S
O345 C341 1.260 . S
O346 In338 2.266 . S
O346 C343 1.252 . S
O347 In338 2.326 . S
O347 C343 1.260 . S
C348 O339 1.240 . S
C348 O340 1.252 . S
O349 In338 2.294 . S
O349 C342 1.240 . S
O350 In338 2.326 . S
O350 C342 1.252 . S
In351 O352 2.294 . S
In351 O353 2.326 . S
In351 O357 2.266 . S
In351 O358 2.326 . S
In351 O359 2.266 . S
In351 O360 2.326 . S
In351 O362 2.294 . S
In351 O363 2.326 . S
O352 In351 2.294 . S
O352 C361 1.240 . S
O353 In351 2.326 . S
O353 C361 1.252 . S
C354 O357 1.252 . S
C354 O358 1.260 . S
C355 O362 1.240 . S
C355 O363 1.252 . S
C356 O359 1.252 . S
C356 O360 1.260 . S
O357 In351 2.266 . S
O357 C354 1.252 . S
O358 In351 2.326 . S
O358 C354 1.260 . S
O359 In351 2.266 . S
O359 C356 1.252 . S
O360 In351 2.326 . S
O360 C356 1.260 . S
C361 O352 1.240 . S
C361 O353 1.252 . S
O362 In351 2.294 . S
O362 C355 1.240 . S
O363 In351 2.326 . S
O363 C355 1.252 . S
In364 O365 2.294 . S
In364 O366 2.326 . S
In364 O370 2.266 . S
In364 O371 2.326 . S
In364 O372 2.266 . S
In364 O373 2.326 . S
In364 O375 2.294 . S
In364 O376 2.326 . S
O365 In364 2.294 . S
O365 C374 1.240 . S
O366 In364 2.326 . S
O366 C374 1.252 . S
C367 O370 1.252 . S
C367 O371 1.260 . S
C368 O375 1.240 . S
C368 O376 1.252 . S
C369 O372 1.252 . S
C369 O373 1.260 . S
O370 In364 2.266 . S
O370 C367 1.252 . S
O371 In364 2.326 . S
O371 C367 1.260 . S
O372 In364 2.266 . S
O372 C369 1.252 . S
O373 In364 2.326 . S
O373 C369 1.260 . S
C374 O365 1.240 . S
C374 O366 1.252 . S
O375 In364 2.294 . S
O375 C368 1.240 . S
O376 In364 2.326 . S
O376 C368 1.252 . S
In377 O378 2.294 . S
In377 O379 2.326 . S
In377 O383 2.266 . S
In377 O384 2.326 . S
In377 O385 2.266 . S
In377 O386 2.326 . S
In377 O388 2.294 . S
In377 O389 2.326 . S
O378 In377 2.294 . S
O378 C387 1.240 . S
O379 In377 2.326 . S
O379 C387 1.252 . S
C380 O383 1.252 . S
C380 O384 1.260 . S
C381 O388 1.240 . S
C381 O389 1.252 . S
C382 O385 1.252 . S
C382 O386 1.260 . S
O383 In377 2.266 . S
O383 C380 1.252 . S
O384 In377 2.326 . S
O384 C380 1.260 . S
O385 In377 2.266 . S
O385 C382 1.252 . S
O386 In377 2.326 . S
O386 C382 1.260 . S
C387 O378 1.240 . S
C387 O379 1.252 . S
O388 In377 2.294 . S
O388 C381 1.240 . S
O389 In377 2.326 . S
O389 C381 1.252 . S
In390 O391 2.294 . S
In390 O392 2.326 . S
In390 O396 2.266 . S
In390 O397 2.326 . S
In390 O398 2.266 . S
In390 O399 2.326 . S
In390 O401 2.294 . S
In390 O402 2.326 . S
O391 In390 2.294 . S
O391 C400 1.240 . S
O392 In390 2.326 . S
O392 C400 1.252 . S
C393 O396 1.252 . S
C393 O397 1.260 . S
C394 O401 1.240 . S
C394 O402 1.252 . S
C395 O398 1.252 . S
C395 O399 1.260 . S
O396 In390 2.266 . S
O396 C393 1.252 . S
O397 In390 2.326 . S
O397 C393 1.260 . S
O398 In390 2.266 . S
O398 C395 1.252 . S
O399 In390 2.326 . S
O399 C395 1.260 . S
C400 O391 1.240 . S
C400 O392 1.252 . S
O401 In390 2.294 . S
O401 C394 1.240 . S
O402 In390 2.326 . S
O402 C394 1.252 . S
In403 O404 2.294 . S
In403 O405 2.326 . S
In403 O409 2.266 . S
In403 O410 2.326 . S
In403 O411 2.266 . S
In403 O412 2.326 . S
In403 O414 2.294 . S
In403 O415 2.326 . S
O404 In403 2.294 . S
O404 C413 1.240 . S
O405 In403 2.326 . S
O405 C413 1.252 . S
C406 O409 1.252 . S
C406 O410 1.260 . S
C407 O414 1.240 . S
C407 O415 1.252 . S
C408 O411 1.252 . S
C408 O412 1.260 . S
O409 In403 2.266 . S
O409 C406 1.252 . S
O410 In403 2.326 . S
O410 C406 1.260 . S
O411 In403 2.266 . S
O411 C408 1.252 . S
O412 In403 2.326 . S
O412 C408 1.260 . S
C413 O404 1.240 . S
C413 O405 1.252 . S
O414 In403 2.294 . S
O414 C407 1.240 . S
O415 In403 2.326 . S
O415 C407 1.252 . S
In416 O417 2.294 . S
In416 O418 2.326 . S
In416 O422 2.266 . S
In416 O423 2.326 . S
In416 O424 2.266 . S
In416 O425 2.326 . S
In416 O427 2.294 . S
In416 O428 2.326 . S
O417 In416 2.294 . S
O417 C426 1.240 . S
O418 In416 2.326 . S
O418 C426 1.252 . S
C419 O422 1.252 . S
C419 O423 1.260 . S
C420 O427 1.240 . S
C420 O428 1.252 . S
C421 O424 1.252 . S
C421 O425 1.260 . S
O422 In416 2.266 . S
O422 C419 1.252 . S
O423 In416 2.326 . S
O423 C419 1.260 . S
O424 In416 2.266 . S
O424 C421 1.252 . S
O425 In416 2.326 . S
O425 C421 1.260 . S
C426 O417 1.240 . S
C426 O418 1.252 . S
O427 In416 2.294 . S
O427 C420 1.240 . S
O428 In416 2.326 . S
O428 C420 1.252 . S
In429 O430 2.294 . S
In429 O431 2.326 . S
In429 O435 2.266 . S
In429 O436 2.326 . S
In429 O437 2.266 . S
In429 O438 2.326 . S
In429 O440 2.294 . S
In429 O441 2.326 . S
O430 In429 2.294 . S
O430 C439 1.240 . S
O431 In429 2.326 . S
O431 C439 1.252 . S
C432 O435 1.252 . S
C432 O436 1.260 . S
C433 O440 1.240 . S
C433 O441 1.252 . S
C434 O437 1.252 . S
C434 O438 1.260 . S
O435 In429 2.266 . S
O435 C432 1.252 . S
O436 In429 2.326 . S
O436 C432 1.260 . S
O437 In429 2.266 . S
O437 C434 1.252 . S
O438 In429 2.326 . S
O438 C434 1.260 . S
C439 O430 1.240 . S
C439 O431 1.252 . S
O440 In429 2.294 . S
O440 C433 1.240 . S
O441 In429 2.326 . S
O441 C433 1.252 . S
In442 O443 2.294 . S
In442 O444 2.326 . S
In442 O448 2.266 . S
In442 O449 2.326 . S
In442 O450 2.266 . S
In442 O451 2.326 . S
In442 O453 2.294 . S
In442 O454 2.326 . S
O443 In442 2.294 . S
O443 C452 1.240 . S
O444 In442 2.326 . S
O444 C452 1.252 . S
C445 O448 1.252 . S
C445 O449 1.260 . S
C446 O453 1.240 . S
C446 O454 1.252 . S
C447 O450 1.252 . S
C447 O451 1.260 . S
O448 In442 2.266 . S
O448 C445 1.252 . S
O449 In442 2.326 . S
O449 C445 1.260 . S
O450 In442 2.266 . S
O450 C447 1.252 . S
O451 In442 2.326 . S
O451 C447 1.260 . S
C452 O443 1.240 . S
C452 O444 1.252 . S
O453 In442 2.294 . S
O453 C446 1.240 . S
O454 In442 2.326 . S
O454 C446 1.252 . S
In455 O456 2.294 . S
In455 O457 2.326 . S
In455 O461 2.266 . S
In455 O462 2.326 . S
In455 O463 2.266 . S
In455 O464 2.326 . S
In455 O466 2.294 . S
In455 O467 2.326 . S
O456 In455 2.294 . S
O456 C465 1.240 . S
O457 In455 2.326 . S
O457 C465 1.252 . S
C458 O461 1.252 . S
C458 O462 1.260 . S
C459 O466 1.240 . S
C459 O467 1.252 . S
C460 O463 1.252 . S
C460 O464 1.260 . S
O461 In455 2.266 . S
O461 C458 1.252 . S
O462 In455 2.326 . S
O462 C458 1.260 . S
O463 In455 2.266 . S
O463 C460 1.252 . S
O464 In455 2.326 . S
O464 C460 1.260 . S
C465 O456 1.240 . S
C465 O457 1.252 . S
O466 In455 2.294 . S
O466 C459 1.240 . S
O467 In455 2.326 . S
O467 C459 1.252 . S
In468 O469 2.294 . S
In468 O470 2.326 . S
In468 O474 2.266 . S
In468 O475 2.326 . S
In468 O476 2.266 . S
In468 O477 2.326 . S
In468 O479 2.294 . S
In468 O480 2.326 . S
O469 In468 2.294 . S
O469 C478 1.240 . S
O470 In468 2.326 . S
O470 C478 1.252 . S
C471 O474 1.252 . S
C471 O475 1.260 . S
C472 O479 1.240 . S
C472 O480 1.252 . S
C473 O476 1.252 . S
C473 O477 1.260 . S
O474 In468 2.266 . S
O474 C471 1.252 . S
O475 In468 2.326 . S
O475 C471 1.260 . S
O476 In468 2.266 . S
O476 C473 1.252 . S
O477 In468 2.326 . S
O477 C473 1.260 . S
C478 O469 1.240 . S
C478 O470 1.252 . S
O479 In468 2.294 . S
O479 C472 1.240 . S
O480 In468 2.326 . S
O480 C472 1.252 . S
In481 O482 2.294 . S
In481 O483 2.326 . S
In481 O487 2.266 . S
In481 O488 2.326 . S
In481 O489 2.266 . S
In481 O490 2.326 . S
In481 O492 2.294 . S
In481 O493 2.326 . S
O482 In481 2.294 . S
O482 C491 1.240 . S
O483 In481 2.326 . S
O483 C491 1.252 . S
C484 O487 1.252 . S
C484 O488 1.260 . S
C485 O492 1.240 . S
C485 O493 1.252 . S
C486 O489 1.252 . S
C486 O490 1.260 . S
O487 In481 2.266 . S
O487 C484 1.252 . S
O488 In481 2.326 . S
O488 C484 1.260 . S
O489 In481 2.266 . S
O489 C486 1.252 . S
O490 In481 2.326 . S
O490 C486 1.260 . S
C491 O482 1.240 . S
C491 O483 1.252 . S
O492 In481 2.294 . S
O492 C485 1.240 . S
O493 In481 2.326 . S
O493 C485 1.252 . S
In494 O495 2.294 . S
In494 O496 2.326 . S
In494 O500 2.266 . S
In494 O501 2.326 . S
In494 O502 2.266 . S
In494 O503 2.326 . S
In494 O505 2.294 . S
In494 O506 2.326 . S
O495 In494 2.294 . S
O495 C504 1.240 . S
O496 In494 2.326 . S
O496 C504 1.252 . S
C497 O500 1.252 . S
C497 O501 1.260 . S
C498 O505 1.240 . S
C498 O506 1.252 . S
C499 O502 1.252 . S
C499 O503 1.260 . S
O500 In494 2.266 . S
O500 C497 1.252 . S
O501 In494 2.326 . S
O501 C497 1.260 . S
O502 In494 2.266 . S
O502 C499 1.252 . S
O503 In494 2.326 . S
O503 C499 1.260 . S
C504 O495 1.240 . S
C504 O496 1.252 . S
O505 In494 2.294 . S
O505 C498 1.240 . S
O506 In494 2.326 . S
O506 C498 1.252 . S
In507 O508 2.294 . S
In507 O509 2.326 . S
In507 O513 2.266 . S
In507 O514 2.326 . S
In507 O515 2.266 . S
In507 O516 2.326 . S
In507 O518 2.294 . S
In507 O519 2.326 . S
O508 In507 2.294 . S
O508 C517 1.240 . S
O509 In507 2.326 . S
O509 C517 1.252 . S
C510 O513 1.252 . S
C510 O514 1.260 . S
C511 O518 1.240 . S
C511 O519 1.252 . S
C512 O515 1.252 . S
C512 O516 1.260 . S
O513 In507 2.266 . S
O513 C510 1.252 . S
O514 In507 2.326 . S
O514 C510 1.260 . S
O515 In507 2.266 . S
O515 C512 1.252 . S
O516 In507 2.326 . S
O516 C512 1.260 . S
C517 O508 1.240 . S
C517 O509 1.252 . S
O518 In507 2.294 . S
O518 C511 1.240 . S
O519 In507 2.326 . S
O519 C511 1.252 . S
In520 O521 2.294 . S
In520 O522 2.326 . S
In520 O526 2.266 . S
In520 O527 2.326 . S
In520 O528 2.266 . S
In520 O529 2.326 . S
In520 O531 2.294 . S
In520 O532 2.326 . S
O521 In520 2.294 . S
O521 C530 1.240 . S
O522 In520 2.326 . S
O522 C530 1.252 . S
C523 O526 1.252 . S
C523 O527 1.260 . S
C524 O531 1.240 . S
C524 O532 1.252 . S
C525 O528 1.252 . S
C525 O529 1.260 . S
O526 In520 2.266 . S
O526 C523 1.252 . S
O527 In520 2.326 . S
O527 C523 1.260 . S
O528 In520 2.266 . S
O528 C525 1.252 . S
O529 In520 2.326 . S
O529 C525 1.260 . S
C530 O521 1.240 . S
C530 O522 1.252 . S
O531 In520 2.294 . S
O531 C524 1.240 . S
O532 In520 2.326 . S
O532 C524 1.252 . S
In533 O534 2.294 . S
In533 O535 2.326 . S
In533 O539 2.266 . S
In533 O540 2.326 . S
In533 O541 2.266 . S
In533 O542 2.326 . S
In533 O544 2.294 . S
In533 O545 2.326 . S
O534 In533 2.294 . S
O534 C543 1.240 . S
O535 In533 2.326 . S
O535 C543 1.252 . S
C536 O539 1.252 . S
C536 O540 1.260 . S
C537 O544 1.240 . S
C537 O545 1.252 . S
C538 O541 1.252 . S
C538 O542 1.260 . S
O539 In533 2.266 . S
O539 C536 1.252 . S
O540 In533 2.326 . S
O540 C536 1.260 . S
O541 In533 2.266 . S
O541 C538 1.252 . S
O542 In533 2.326 . S
O542 C538 1.260 . S
C543 O534 1.240 . S
C543 O535 1.252 . S
O544 In533 2.294 . S
O544 C537 1.240 . S
O545 In533 2.326 . S
O545 C537 1.252 . S
In546 O547 2.294 . S
In546 O548 2.326 . S
In546 O552 2.266 . S
In546 O553 2.326 . S
In546 O554 2.266 . S
In546 O555 2.326 . S
In546 O557 2.294 . S
In546 O558 2.326 . S
O547 In546 2.294 . S
O547 C556 1.240 . S
O548 In546 2.326 . S
O548 C556 1.252 . S
C549 O552 1.252 . S
C549 O553 1.260 . S
C550 O557 1.240 . S
C550 O558 1.252 . S
C551 O554 1.252 . S
C551 O555 1.260 . S
O552 In546 2.266 . S
O552 C549 1.252 . S
O553 In546 2.326 . S
O553 C549 1.260 . S
O554 In546 2.266 . S
O554 C551 1.252 . S
O555 In546 2.326 . S
O555 C551 1.260 . S
C556 O547 1.240 . S
C556 O548 1.252 . S
O557 In546 2.294 . S
O557 C550 1.240 . S
O558 In546 2.326 . S
O558 C550 1.252 . S
In559 O560 2.294 . S
In559 O561 2.326 . S
In559 O565 2.266 . S
In559 O566 2.326 . S
In559 O567 2.266 . S
In559 O568 2.326 . S
In559 O570 2.294 . S
In559 O571 2.326 . S
O560 In559 2.294 . S
O560 C569 1.240 . S
O561 In559 2.326 . S
O561 C569 1.252 . S
C562 O565 1.252 . S
C562 O566 1.260 . S
C563 O570 1.240 . S
C563 O571 1.252 . S
C564 O567 1.252 . S
C564 O568 1.260 . S
O565 In559 2.266 . S
O565 C562 1.252 . S
O566 In559 2.326 . S
O566 C562 1.260 . S
O567 In559 2.266 . S
O567 C564 1.252 . S
O568 In559 2.326 . S
O568 C564 1.260 . S
C569 O560 1.240 . S
C569 O561 1.252 . S
O570 In559 2.294 . S
O570 C563 1.240 . S
O571 In559 2.326 . S
O571 C563 1.252 . S
In572 O573 2.294 . S
In572 O574 2.326 . S
In572 O578 2.266 . S
In572 O579 2.326 . S
In572 O580 2.266 . S
In572 O581 2.326 . S
In572 O583 2.294 . S
In572 O584 2.326 . S
O573 In572 2.294 . S
O573 C582 1.240 . S
O574 In572 2.326 . S
O574 C582 1.252 . S
C575 O578 1.252 . S
C575 O579 1.260 . S
C576 O583 1.240 . S
C576 O584 1.252 . S
C577 O580 1.252 . S
C577 O581 1.260 . S
O578 In572 2.266 . S
O578 C575 1.252 . S
O579 In572 2.326 . S
O579 C575 1.260 . S
O580 In572 2.266 . S
O580 C577 1.252 . S
O581 In572 2.326 . S
O581 C577 1.260 . S
C582 O573 1.240 . S
C582 O574 1.252 . S
O583 In572 2.294 . S
O583 C576 1.240 . S
O584 In572 2.326 . S
O584 C576 1.252 . S
In585 O586 2.294 . S
In585 O587 2.326 . S
In585 O591 2.266 . S
In585 O592 2.326 . S
In585 O593 2.266 . S
In585 O594 2.326 . S
In585 O596 2.294 . S
In585 O597 2.326 . S
O586 In585 2.294 . S
O586 C595 1.240 . S
O587 In585 2.326 . S
O587 C595 1.252 . S
C588 O591 1.252 . S
C588 O592 1.260 . S
C589 O596 1.240 . S
C589 O597 1.252 . S
C590 O593 1.252 . S
C590 O594 1.260 . S
O591 In585 2.266 . S
O591 C588 1.252 . S
O592 In585 2.326 . S
O592 C588 1.260 . S
O593 In585 2.266 . S
O593 C590 1.252 . S
O594 In585 2.326 . S
O594 C590 1.260 . S
C595 O586 1.240 . S
C595 O587 1.252 . S
O596 In585 2.294 . S
O596 C589 1.240 . S
O597 In585 2.326 . S
O597 C589 1.252 . S
In598 O599 2.294 . S
In598 O600 2.326 . S
In598 O604 2.266 . S
In598 O605 2.326 . S
In598 O606 2.266 . S
In598 O607 2.326 . S
In598 O609 2.294 . S
In598 O610 2.326 . S
O599 In598 2.294 . S
O599 C608 1.240 . S
O600 In598 2.326 . S
O600 C608 1.252 . S
C601 O604 1.252 . S
C601 O605 1.260 . S
C602 O609 1.240 . S
C602 O610 1.252 . S
C603 O606 1.252 . S
C603 O607 1.260 . S
O604 In598 2.266 . S
O604 C601 1.252 . S
O605 In598 2.326 . S
O605 C601 1.260 . S
O606 In598 2.266 . S
O606 C603 1.252 . S
O607 In598 2.326 . S
O607 C603 1.260 . S
C608 O599 1.240 . S
C608 O600 1.252 . S
O609 In598 2.294 . S
O609 C602 1.240 . S
O610 In598 2.326 . S
O610 C602 1.252 . S
In611 O612 2.294 . S
In611 O613 2.326 . S
In611 O617 2.266 . S
In611 O618 2.326 . S
In611 O619 2.266 . S
In611 O620 2.326 . S
In611 O622 2.294 . S
In611 O623 2.326 . S
O612 In611 2.294 . S
O612 C621 1.240 . S
O613 In611 2.326 . S
O613 C621 1.252 . S
C614 O617 1.252 . S
C614 O618 1.260 . S
C615 O622 1.240 . S
C615 O623 1.252 . S
C616 O619 1.252 . S
C616 O620 1.260 . S
O617 In611 2.266 . S
O617 C614 1.252 . S
O618 In611 2.326 . S
O618 C614 1.260 . S
O619 In611 2.266 . S
O619 C616 1.252 . S
O620 In611 2.326 . S
O620 C616 1.260 . S
C621 O612 1.240 . S
C621 O613 1.252 . S
O622 In611 2.294 . S
O622 C615 1.240 . S
O623 In611 2.326 . S
O623 C615 1.252 . S
H624 C630 0.930 . S
H625 C634 0.930 . S
H626 C639 0.929 . S
H627 C637 0.929 . S
H628 C632 0.929 . S
H629 C638 0.929 . S
C630 H624 0.930 . S
C630 C631 1.367 . S
C630 C638 1.378 . S
C631 C630 1.367 . S
C631 C639 1.433 . S
C632 H628 0.929 . S
C632 C634 1.378 . S
C632 C636 1.350 . S
C633 C636 1.463 . S
C633 C638 1.350 . S
C633 N641 1.427 . S
C634 H625 0.930 . S
C634 C632 1.378 . S
C634 C635 1.367 . S
C635 C634 1.367 . S
C635 C637 1.433 . S
C636 C632 1.350 . S
C636 C633 1.463 . S
C636 N640 1.427 . S
C637 H627 0.929 . S
C637 C635 1.433 . S
C637 N640 1.384 . S
C638 H629 0.929 . S
C638 C630 1.378 . S
C638 C633 1.350 . S
C639 H626 0.929 . S
C639 C631 1.433 . S
C639 N641 1.384 . S
N640 C636 1.427 . S
N640 C637 1.384 . S
N641 C633 1.427 . S
N641 C639 1.384 . S
H642 C648 0.930 . S
H643 C652 0.930 . S
H644 C657 0.929 . S
H645 C655 0.929 . S
H646 C650 0.929 . S
H647 C656 0.929 . S
C648 H642 0.930 . S
C648 C649 1.367 . S
C648 C656 1.378 . S
C649 C648 1.367 . S
C649 C657 1.433 . S
C650 H646 0.929 . S
C650 C652 1.378 . S
C650 C654 1.350 . S
C651 C654 1.463 . S
C651 C656 1.350 . S
C651 N659 1.427 . S
C652 H643 0.930 . S
C652 C650 1.378 . S
C652 C653 1.367 . S
C653 C652 1.367 . S
C653 C655 1.433 . S
C654 C650 1.350 . S
C654 C651 1.463 . S
C654 N658 1.427 . S
C655 H645 0.929 . S
C655 C653 1.433 . S
C655 N658 1.384 . S
C656 H647 0.929 . S
C656 C648 1.378 . S
C656 C651 1.350 . S
C657 H644 0.929 . S
C657 C649 1.433 . S
C657 N659 1.384 . S
N658 C654 1.427 . S
N658 C655 1.384 . S
N659 C651 1.427 . S
N659 C657 1.384 . S
H660 C666 0.930 . S
H661 C670 0.930 . S
H662 C675 0.929 . S
H663 C673 0.929 . S
H664 C668 0.929 . S
H665 C674 0.929 . S
C666 H660 0.930 . S
C666 C667 1.367 . S
C666 C674 1.378 . S
C667 C666 1.367 . S
C667 C675 1.433 . S
C668 H664 0.929 . S
C668 C670 1.378 . S
C668 C672 1.350 . S
C669 C672 1.463 . S
C669 C674 1.350 . S
C669 N677 1.427 . S
C670 H661 0.930 . S
C670 C668 1.378 . S
C670 C671 1.367 . S
C671 C670 1.367 . S
C671 C673 1.433 . S
C672 C668 1.350 . S
C672 C669 1.463 . S
C672 N676 1.427 . S
C673 H663 0.929 . S
C673 C671 1.433 . S
C673 N676 1.384 . S
C674 H665 0.929 . S
C674 C666 1.378 . S
C674 C669 1.350 . S
C675 H662 0.929 . S
C675 C667 1.433 . S
C675 N677 1.384 . S
N676 C672 1.427 . S
N676 C673 1.384 . S
N677 C669 1.427 . S
N677 C675 1.384 . S
H678 C684 0.930 . S
H679 C688 0.930 . S
H680 C693 0.929 . S
H681 C691 0.929 . S
H682 C686 0.929 . S
H683 C692 0.929 . S
C684 H678 0.930 . S
C684 C685 1.367 . S
C684 C692 1.378 . S
C685 C684 1.367 . S
C685 C693 1.433 . S
C686 H682 0.929 . S
C686 C688 1.378 . S
C686 C690 1.350 . S
C687 C690 1.463 . S
C687 C692 1.350 . S
C687 N695 1.427 . S
C688 H679 0.930 . S
C688 C686 1.378 . S
C688 C689 1.367 . S
C689 C688 1.367 . S
C689 C691 1.433 . S
C690 C686 1.350 . S
C690 C687 1.463 . S
C690 N694 1.427 . S
C691 H681 0.929 . S
C691 C689 1.433 . S
C691 N694 1.384 . S
C692 H683 0.929 . S
C692 C684 1.378 . S
C692 C687 1.350 . S
C693 H680 0.929 . S
C693 C685 1.433 . S
C693 N695 1.384 . S
N694 C690 1.427 . S
N694 C691 1.384 . S
N695 C687 1.427 . S
N695 C693 1.384 . S
H696 C702 0.930 . S
H697 C706 0.930 . S
H698 C711 0.929 . S
H699 C709 0.929 . S
H700 C704 0.929 . S
H701 C710 0.929 . S
C702 H696 0.930 . S
C702 C703 1.367 . S
C702 C710 1.378 . S
C703 C702 1.367 . S
C703 C711 1.433 . S
C704 H700 0.929 . S
C704 C706 1.378 . S
C704 C708 1.350 . S
C705 C708 1.463 . S
C705 C710 1.350 . S
C705 N713 1.427 . S
C706 H697 0.930 . S
C706 C704 1.378 . S
C706 C707 1.367 . S
C707 C706 1.367 . S
C707 C709 1.433 . S
C708 C704 1.350 . S
C708 C705 1.463 . S
C708 N712 1.427 . S
C709 H699 0.929 . S
C709 C707 1.433 . S
C709 N712 1.384 . S
C710 H701 0.929 . S
C710 C702 1.378 . S
C710 C705 1.350 . S
C711 H698 0.929 . S
C711 C703 1.433 . S
C711 N713 1.384 . S
N712 C708 1.427 . S
N712 C709 1.384 . S
N713 C705 1.427 . S
N713 C711 1.384 . S
H714 C720 0.930 . S
H715 C724 0.930 . S
H716 C729 0.929 . S
H717 C727 0.929 . S
H718 C722 0.929 . S
H719 C728 0.929 . S
C720 H714 0.930 . S
C720 C721 1.367 . S
C720 C728 1.378 . S
C721 C720 1.367 . S
C721 C729 1.433 . S
C722 H718 0.929 . S
C722 C724 1.378 . S
C722 C726 1.350 . S
C723 C726 1.463 . S
C723 C728 1.350 . S
C723 N731 1.427 . S
C724 H715 0.930 . S
C724 C722 1.378 . S
C724 C725 1.367 . S
C725 C724 1.367 . S
C725 C727 1.433 . S
C726 C722 1.350 . S
C726 C723 1.463 . S
C726 N730 1.427 . S
C727 H717 0.929 . S
C727 C725 1.433 . S
C727 N730 1.384 . S
C728 H719 0.929 . S
C728 C720 1.378 . S
C728 C723 1.350 . S
C729 H716 0.929 . S
C729 C721 1.433 . S
C729 N731 1.384 . S
N730 C726 1.427 . S
N730 C727 1.384 . S
N731 C723 1.427 . S
N731 C729 1.384 . S
H732 C738 0.930 . S
H733 C742 0.930 . S
H734 C747 0.929 . S
H735 C745 0.929 . S
H736 C740 0.929 . S
H737 C746 0.929 . S
C738 H732 0.930 . S
C738 C739 1.367 . S
C738 C746 1.378 . S
C739 C738 1.367 . S
C739 C747 1.433 . S
C740 H736 0.929 . S
C740 C742 1.378 . S
C740 C744 1.350 . S
C741 C744 1.463 . S
C741 C746 1.350 . S
C741 N749 1.427 . S
C742 H733 0.930 . S
C742 C740 1.378 . S
C742 C743 1.367 . S
C743 C742 1.367 . S
C743 C745 1.433 . S
C744 C740 1.350 . S
C744 C741 1.463 . S
C744 N748 1.427 . S
C745 H735 0.929 . S
C745 C743 1.433 . S
C745 N748 1.384 . S
C746 H737 0.929 . S
C746 C738 1.378 . S
C746 C741 1.350 . S
C747 H734 0.929 . S
C747 C739 1.433 . S
C747 N749 1.384 . S
N748 C744 1.427 . S
N748 C745 1.384 . S
N749 C741 1.427 . S
N749 C747 1.384 . S
H750 C756 0.930 . S
H751 C760 0.930 . S
H752 C765 0.929 . S
H753 C763 0.929 . S
H754 C758 0.929 . S
H755 C764 0.929 . S
C756 H750 0.930 . S
C756 C757 1.367 . S
C756 C764 1.378 . S
C757 C756 1.367 . S
C757 C765 1.433 . S
C758 H754 0.929 . S
C758 C760 1.378 . S
C758 C762 1.350 . S
C759 C762 1.463 . S
C759 C764 1.350 . S
C759 N767 1.427 . S
C760 H751 0.930 . S
C760 C758 1.378 . S
C760 C761 1.367 . S
C761 C760 1.367 . S
C761 C763 1.433 . S
C762 C758 1.350 . S
C762 C759 1.463 . S
C762 N766 1.427 . S
C763 H753 0.929 . S
C763 C761 1.433 . S
C763 N766 1.384 . S
C764 H755 0.929 . S
C764 C756 1.378 . S
C764 C759 1.350 . S
C765 H752 0.929 . S
C765 C757 1.433 . S
C765 N767 1.384 . S
N766 C762 1.427 . S
N766 C763 1.384 . S
N767 C759 1.427 . S
N767 C765 1.384 . S
H768 C774 0.930 . S
H769 C778 0.930 . S
H770 C783 0.929 . S
H771 C781 0.929 . S
H772 C776 0.929 . S
H773 C782 0.929 . S
C774 H768 0.930 . S
C774 C775 1.367 . S
C774 C782 1.378 . S
C775 C774 1.367 . S
C775 C783 1.433 . S
C776 H772 0.929 . S
C776 C778 1.378 . S
C776 C780 1.350 . S
C777 C780 1.463 . S
C777 C782 1.350 . S
C777 N785 1.427 . S
C778 H769 0.930 . S
C778 C776 1.378 . S
C778 C779 1.367 . S
C779 C778 1.367 . S
C779 C781 1.433 . S
C780 C776 1.350 . S
C780 C777 1.463 . S
C780 N784 1.427 . S
C781 H771 0.929 . S
C781 C779 1.433 . S
C781 N784 1.384 . S
C782 H773 0.929 . S
C782 C774 1.378 . S
C782 C777 1.350 . S
C783 H770 0.929 . S
C783 C775 1.433 . S
C783 N785 1.384 . S
N784 C780 1.427 . S
N784 C781 1.384 . S
N785 C777 1.427 . S
N785 C783 1.384 . S
H786 C792 0.930 . S
H787 C796 0.930 . S
H788 C801 0.929 . S
H789 C799 0.929 . S
H790 C794 0.929 . S
H791 C800 0.929 . S
C792 H786 0.930 . S
C792 C793 1.367 . S
C792 C800 1.378 . S
C793 C792 1.367 . S
C793 C801 1.433 . S
C794 H790 0.929 . S
C794 C796 1.378 . S
C794 C798 1.350 . S
C795 C798 1.463 . S
C795 C800 1.350 . S
C795 N803 1.427 . S
C796 H787 0.930 . S
C796 C794 1.378 . S
C796 C797 1.367 . S
C797 C796 1.367 . S
C797 C799 1.433 . S
C798 C794 1.350 . S
C798 C795 1.463 . S
C798 N802 1.427 . S
C799 H789 0.929 . S
C799 C797 1.433 . S
C799 N802 1.384 . S
C800 H791 0.929 . S
C800 C792 1.378 . S
C800 C795 1.350 . S
C801 H788 0.929 . S
C801 C793 1.433 . S
C801 N803 1.384 . S
N802 C798 1.427 . S
N802 C799 1.384 . S
N803 C795 1.427 . S
N803 C801 1.384 . S
H804 C810 0.930 . S
H805 C814 0.930 . S
H806 C819 0.929 . S
H807 C817 0.929 . S
H808 C812 0.929 . S
H809 C818 0.929 . S
C810 H804 0.930 . S
C810 C811 1.367 . S
C810 C818 1.378 . S
C811 C810 1.367 . S
C811 C819 1.433 . S
C812 H808 0.929 . S
C812 C814 1.378 . S
C812 C816 1.350 . S
C813 C816 1.463 . S
C813 C818 1.350 . S
C813 N821 1.427 . S
C814 H805 0.930 . S
C814 C812 1.378 . S
C814 C815 1.367 . S
C815 C814 1.367 . S
C815 C817 1.433 . S
C816 C812 1.350 . S
C816 C813 1.463 . S
C816 N820 1.427 . S
C817 H807 0.929 . S
C817 C815 1.433 . S
C817 N820 1.384 . S
C818 H809 0.929 . S
C818 C810 1.378 . S
C818 C813 1.350 . S
C819 H806 0.929 . S
C819 C811 1.433 . S
C819 N821 1.384 . S
N820 C816 1.427 . S
N820 C817 1.384 . S
N821 C813 1.427 . S
N821 C819 1.384 . S
H822 C828 0.930 . S
H823 C832 0.930 . S
H824 C837 0.929 . S
H825 C835 0.929 . S
H826 C830 0.929 . S
H827 C836 0.929 . S
C828 H822 0.930 . S
C828 C829 1.367 . S
C828 C836 1.378 . S
C829 C828 1.367 . S
C829 C837 1.433 . S
C830 H826 0.929 . S
C830 C832 1.378 . S
C830 C834 1.350 . S
C831 C834 1.463 . S
C831 C836 1.350 . S
C831 N839 1.427 . S
C832 H823 0.930 . S
C832 C830 1.378 . S
C832 C833 1.367 . S
C833 C832 1.367 . S
C833 C835 1.433 . S
C834 C830 1.350 . S
C834 C831 1.463 . S
C834 N838 1.427 . S
C835 H825 0.929 . S
C835 C833 1.433 . S
C835 N838 1.384 . S
C836 H827 0.929 . S
C836 C828 1.378 . S
C836 C831 1.350 . S
C837 H824 0.929 . S
C837 C829 1.433 . S
C837 N839 1.384 . S
N838 C834 1.427 . S
N838 C835 1.384 . S
N839 C831 1.427 . S
N839 C837 1.384 . S
H840 C846 0.930 . S
H841 C850 0.930 . S
H842 C855 0.929 . S
H843 C853 0.929 . S
H844 C848 0.929 . S
H845 C854 0.929 . S
C846 H840 0.930 . S
C846 C847 1.367 . S
C846 C854 1.378 . S
C847 C846 1.367 . S
C847 C855 1.433 . S
C848 H844 0.929 . S
C848 C850 1.378 . S
C848 C852 1.350 . S
C849 C852 1.463 . S
C849 C854 1.350 . S
C849 N857 1.427 . S
C850 H841 0.930 . S
C850 C848 1.378 . S
C850 C851 1.367 . S
C851 C850 1.367 . S
C851 C853 1.433 . S
C852 C848 1.350 . S
C852 C849 1.463 . S
C852 N856 1.427 . S
C853 H843 0.929 . S
C853 C851 1.433 . S
C853 N856 1.384 . S
C854 H845 0.929 . S
C854 C846 1.378 . S
C854 C849 1.350 . S
C855 H842 0.929 . S
C855 C847 1.433 . S
C855 N857 1.384 . S
N856 C852 1.427 . S
N856 C853 1.384 . S
N857 C849 1.427 . S
N857 C855 1.384 . S
H858 C864 0.930 . S
H859 C868 0.930 . S
H860 C873 0.929 . S
H861 C871 0.929 . S
H862 C866 0.929 . S
H863 C872 0.929 . S
C864 H858 0.930 . S
C864 C865 1.367 . S
C864 C872 1.378 . S
C865 C864 1.367 . S
C865 C873 1.433 . S
C866 H862 0.929 . S
C866 C868 1.378 . S
C866 C870 1.350 . S
C867 C870 1.463 . S
C867 C872 1.350 . S
C867 N875 1.427 . S
C868 H859 0.930 . S
C868 C866 1.378 . S
C868 C869 1.367 . S
C869 C868 1.367 . S
C869 C871 1.433 . S
C870 C866 1.350 . S
C870 C867 1.463 . S
C870 N874 1.427 . S
C871 H861 0.929 . S
C871 C869 1.433 . S
C871 N874 1.384 . S
C872 H863 0.929 . S
C872 C864 1.378 . S
C872 C867 1.350 . S
C873 H860 0.929 . S
C873 C865 1.433 . S
C873 N875 1.384 . S
N874 C870 1.427 . S
N874 C871 1.384 . S
N875 C867 1.427 . S
N875 C873 1.384 . S
H876 C882 0.930 . S
H877 C886 0.930 . S
H878 C891 0.929 . S
H879 C889 0.929 . S
H880 C884 0.929 . S
H881 C890 0.929 . S
C882 H876 0.930 . S
C882 C883 1.367 . S
C882 C890 1.378 . S
C883 C882 1.367 . S
C883 C891 1.433 . S
C884 H880 0.929 . S
C884 C886 1.378 . S
C884 C888 1.350 . S
C885 C888 1.463 . S
C885 C890 1.350 . S
C885 N893 1.427 . S
C886 H877 0.930 . S
C886 C884 1.378 . S
C886 C887 1.367 . S
C887 C886 1.367 . S
C887 C889 1.433 . S
C888 C884 1.350 . S
C888 C885 1.463 . S
C888 N892 1.427 . S
C889 H879 0.929 . S
C889 C887 1.433 . S
C889 N892 1.384 . S
C890 H881 0.929 . S
C890 C882 1.378 . S
C890 C885 1.350 . S
C891 H878 0.929 . S
C891 C883 1.433 . S
C891 N893 1.384 . S
N892 C888 1.427 . S
N892 C889 1.384 . S
N893 C885 1.427 . S
N893 C891 1.384 . S
H894 C900 0.930 . S
H895 C904 0.930 . S
H896 C909 0.929 . S
H897 C907 0.929 . S
H898 C902 0.929 . S
H899 C908 0.929 . S
C900 H894 0.930 . S
C900 C901 1.367 . S
C900 C908 1.378 . S
C901 C900 1.367 . S
C901 C909 1.433 . S
C902 H898 0.929 . S
C902 C904 1.378 . S
C902 C906 1.350 . S
C903 C906 1.463 . S
C903 C908 1.350 . S
C903 N911 1.427 . S
C904 H895 0.930 . S
C904 C902 1.378 . S
C904 C905 1.367 . S
C905 C904 1.367 . S
C905 C907 1.433 . S
C906 C902 1.350 . S
C906 C903 1.463 . S
C906 N910 1.427 . S
C907 H897 0.929 . S
C907 C905 1.433 . S
C907 N910 1.384 . S
C908 H899 0.929 . S
C908 C900 1.378 . S
C908 C903 1.350 . S
C909 H896 0.929 . S
C909 C901 1.433 . S
C909 N911 1.384 . S
N910 C906 1.427 . S
N910 C907 1.384 . S
N911 C903 1.427 . S
N911 C909 1.384 . S
H912 C918 0.930 . S
H913 C922 0.930 . S
H914 C927 0.929 . S
H915 C925 0.929 . S
H916 C920 0.929 . S
H917 C926 0.929 . S
C918 H912 0.930 . S
C918 C919 1.367 . S
C918 C926 1.378 . S
C919 C918 1.367 . S
C919 C927 1.433 . S
C920 H916 0.929 . S
C920 C922 1.378 . S
C920 C924 1.350 . S
C921 C924 1.463 . S
C921 C926 1.350 . S
C921 N929 1.427 . S
C922 H913 0.930 . S
C922 C920 1.378 . S
C922 C923 1.367 . S
C923 C922 1.367 . S
C923 C925 1.433 . S
C924 C920 1.350 . S
C924 C921 1.463 . S
C924 N928 1.427 . S
C925 H915 0.929 . S
C925 C923 1.433 . S
C925 N928 1.384 . S
C926 H917 0.929 . S
C926 C918 1.378 . S
C926 C921 1.350 . S
C927 H914 0.929 . S
C927 C919 1.433 . S
C927 N929 1.384 . S
N928 C924 1.427 . S
N928 C925 1.384 . S
N929 C921 1.427 . S
N929 C927 1.384 . S
H930 C936 0.930 . S
H931 C940 0.930 . S
H932 C945 0.929 . S
H933 C943 0.929 . S
H934 C938 0.929 . S
H935 C944 0.929 . S
C936 H930 0.930 . S
C936 C937 1.367 . S
C936 C944 1.378 . S
C937 C936 1.367 . S
C937 C945 1.433 . S
C938 H934 0.929 . S
C938 C940 1.378 . S
C938 C942 1.350 . S
C939 C942 1.463 . S
C939 C944 1.350 . S
C939 N947 1.427 . S
C940 H931 0.930 . S
C940 C938 1.378 . S
C940 C941 1.367 . S
C941 C940 1.367 . S
C941 C943 1.433 . S
C942 C938 1.350 . S
C942 C939 1.463 . S
C942 N946 1.427 . S
C943 H933 0.929 . S
C943 C941 1.433 . S
C943 N946 1.384 . S
C944 H935 0.929 . S
C944 C936 1.378 . S
C944 C939 1.350 . S
C945 H932 0.929 . S
C945 C937 1.433 . S
C945 N947 1.384 . S
N946 C942 1.427 . S
N946 C943 1.384 . S
N947 C939 1.427 . S
N947 C945 1.384 . S
H948 C954 0.930 . S
H949 C958 0.930 . S
H950 C963 0.929 . S
H951 C961 0.929 . S
H952 C956 0.929 . S
H953 C962 0.929 . S
C954 H948 0.930 . S
C954 C955 1.367 . S
C954 C962 1.378 . S
C955 C954 1.367 . S
C955 C963 1.433 . S
C956 H952 0.929 . S
C956 C958 1.378 . S
C956 C960 1.350 . S
C957 C960 1.463 . S
C957 C962 1.350 . S
C957 N965 1.427 . S
C958 H949 0.930 . S
C958 C956 1.378 . S
C958 C959 1.367 . S
C959 C958 1.367 . S
C959 C961 1.433 . S
C960 C956 1.350 . S
C960 C957 1.463 . S
C960 N964 1.427 . S
C961 H951 0.929 . S
C961 C959 1.433 . S
C961 N964 1.384 . S
C962 H953 0.929 . S
C962 C954 1.378 . S
C962 C957 1.350 . S
C963 H950 0.929 . S
C963 C955 1.433 . S
C963 N965 1.384 . S
N964 C960 1.427 . S
N964 C961 1.384 . S
N965 C957 1.427 . S
N965 C963 1.384 . S
H966 C972 0.930 . S
H967 C976 0.930 . S
H968 C981 0.929 . S
H969 C979 0.929 . S
H970 C974 0.929 . S
H971 C980 0.929 . S
C972 H966 0.930 . S
C972 C973 1.367 . S
C972 C980 1.378 . S
C973 C972 1.367 . S
C973 C981 1.433 . S
C974 H970 0.929 . S
C974 C976 1.378 . S
C974 C978 1.350 . S
C975 C978 1.463 . S
C975 C980 1.350 . S
C975 N983 1.427 . S
C976 H967 0.930 . S
C976 C974 1.378 . S
C976 C977 1.367 . S
C977 C976 1.367 . S
C977 C979 1.433 . S
C978 C974 1.350 . S
C978 C975 1.463 . S
C978 N982 1.427 . S
C979 H969 0.929 . S
C979 C977 1.433 . S
C979 N982 1.384 . S
C980 H971 0.929 . S
C980 C972 1.378 . S
C980 C975 1.350 . S
C981 H968 0.929 . S
C981 C973 1.433 . S
C981 N983 1.384 . S
N982 C978 1.427 . S
N982 C979 1.384 . S
N983 C975 1.427 . S
N983 C981 1.384 . S
H984 C990 0.930 . S
H985 C994 0.930 . S
H986 C999 0.929 . S
H987 C997 0.929 . S
H988 C992 0.929 . S
H989 C998 0.929 . S
C990 H984 0.930 . S
C990 C991 1.367 . S
C990 C998 1.378 . S
C991 C990 1.367 . S
C991 C999 1.433 . S
C992 H988 0.929 . S
C992 C994 1.378 . S
C992 C996 1.350 . S
C993 C996 1.463 . S
C993 C998 1.350 . S
C993 N1001 1.427 . S
C994 H985 0.930 . S
C994 C992 1.378 . S
C994 C995 1.367 . S
C995 C994 1.367 . S
C995 C997 1.433 . S
C996 C992 1.350 . S
C996 C993 1.463 . S
C996 N1000 1.427 . S
C997 H987 0.929 . S
C997 C995 1.433 . S
C997 N1000 1.384 . S
C998 H989 0.929 . S
C998 C990 1.378 . S
C998 C993 1.350 . S
C999 H986 0.929 . S
C999 C991 1.433 . S
C999 N1001 1.384 . S
N1000 C996 1.427 . S
N1000 C997 1.384 . S
N1001 C993 1.427 . S
N1001 C999 1.384 . S
H1002 C1008 0.930 . S
H1003 C1012 0.930 . S
H1004 C1017 0.929 . S
H1005 C1015 0.929 . S
H1006 C1010 0.929 . S
H1007 C1016 0.929 . S
C1008 H1002 0.930 . S
C1008 C1009 1.367 . S
C1008 C1016 1.378 . S
C1009 C1008 1.367 . S
C1009 C1017 1.433 . S
C1010 H1006 0.929 . S
C1010 C1012 1.378 . S
C1010 C1014 1.350 . S
C1011 C1014 1.463 . S
C1011 C1016 1.350 . S
C1011 N1019 1.427 . S
C1012 H1003 0.930 . S
C1012 C1010 1.378 . S
C1012 C1013 1.367 . S
C1013 C1012 1.367 . S
C1013 C1015 1.433 . S
C1014 C1010 1.350 . S
C1014 C1011 1.463 . S
C1014 N1018 1.427 . S
C1015 H1005 0.929 . S
C1015 C1013 1.433 . S
C1015 N1018 1.384 . S
C1016 H1007 0.929 . S
C1016 C1008 1.378 . S
C1016 C1011 1.350 . S
C1017 H1004 0.929 . S
C1017 C1009 1.433 . S
C1017 N1019 1.384 . S
N1018 C1014 1.427 . S
N1018 C1015 1.384 . S
N1019 C1011 1.427 . S
N1019 C1017 1.384 . S
H1020 C1026 0.930 . S
H1021 C1030 0.930 . S
H1022 C1035 0.929 . S
H1023 C1033 0.929 . S
H1024 C1028 0.929 . S
H1025 C1034 0.929 . S
C1026 H1020 0.930 . S
C1026 C1027 1.367 . S
C1026 C1034 1.378 . S
C1027 C1026 1.367 . S
C1027 C1035 1.433 . S
C1028 H1024 0.929 . S
C1028 C1030 1.378 . S
C1028 C1032 1.350 . S
C1029 C1032 1.463 . S
C1029 C1034 1.350 . S
C1029 N1037 1.427 . S
C1030 H1021 0.930 . S
C1030 C1028 1.378 . S
C1030 C1031 1.367 . S
C1031 C1030 1.367 . S
C1031 C1033 1.433 . S
C1032 C1028 1.350 . S
C1032 C1029 1.463 . S
C1032 N1036 1.427 . S
C1033 H1023 0.929 . S
C1033 C1031 1.433 . S
C1033 N1036 1.384 . S
C1034 H1025 0.929 . S
C1034 C1026 1.378 . S
C1034 C1029 1.350 . S
C1035 H1022 0.929 . S
C1035 C1027 1.433 . S
C1035 N1037 1.384 . S
N1036 C1032 1.427 . S
N1036 C1033 1.384 . S
N1037 C1029 1.427 . S
N1037 C1035 1.384 . S
H1038 C1044 0.930 . S
H1039 C1048 0.930 . S
H1040 C1053 0.929 . S
H1041 C1051 0.929 . S
H1042 C1046 0.929 . S
H1043 C1052 0.929 . S
C1044 H1038 0.930 . S
C1044 C1045 1.367 . S
C1044 C1052 1.378 . S
C1045 C1044 1.367 . S
C1045 C1053 1.433 . S
C1046 H1042 0.929 . S
C1046 C1048 1.378 . S
C1046 C1050 1.350 . S
C1047 C1050 1.463 . S
C1047 C1052 1.350 . S
C1047 N1055 1.427 . S
C1048 H1039 0.930 . S
C1048 C1046 1.378 . S
C1048 C1049 1.367 . S
C1049 C1048 1.367 . S
C1049 C1051 1.433 . S
C1050 C1046 1.350 . S
C1050 C1047 1.463 . S
C1050 N1054 1.427 . S
C1051 H1041 0.929 . S
C1051 C1049 1.433 . S
C1051 N1054 1.384 . S
C1052 H1043 0.929 . S
C1052 C1044 1.378 . S
C1052 C1047 1.350 . S
C1053 H1040 0.929 . S
C1053 C1045 1.433 . S
C1053 N1055 1.384 . S
N1054 C1050 1.427 . S
N1054 C1051 1.384 . S
N1055 C1047 1.427 . S
N1055 C1053 1.384 . S
H1056 C1062 0.930 . S
H1057 C1066 0.930 . S
H1058 C1071 0.929 . S
H1059 C1069 0.929 . S
H1060 C1064 0.929 . S
H1061 C1070 0.929 . S
C1062 H1056 0.930 . S
C1062 C1063 1.367 . S
C1062 C1070 1.378 . S
C1063 C1062 1.367 . S
C1063 C1071 1.433 . S
C1064 H1060 0.929 . S
C1064 C1066 1.378 . S
C1064 C1068 1.350 . S
C1065 C1068 1.463 . S
C1065 C1070 1.350 . S
C1065 N1073 1.427 . S
C1066 H1057 0.930 . S
C1066 C1064 1.378 . S
C1066 C1067 1.367 . S
C1067 C1066 1.367 . S
C1067 C1069 1.433 . S
C1068 C1064 1.350 . S
C1068 C1065 1.463 . S
C1068 N1072 1.427 . S
C1069 H1059 0.929 . S
C1069 C1067 1.433 . S
C1069 N1072 1.384 . S
C1070 H1061 0.929 . S
C1070 C1062 1.378 . S
C1070 C1065 1.350 . S
C1071 H1058 0.929 . S
C1071 C1063 1.433 . S
C1071 N1073 1.384 . S
N1072 C1068 1.427 . S
N1072 C1069 1.384 . S
N1073 C1065 1.427 . S
N1073 C1071 1.384 . S
H1074 C1080 0.930 . S
H1075 C1084 0.930 . S
H1076 C1089 0.929 . S
H1077 C1087 0.929 . S
H1078 C1082 0.929 . S
H1079 C1088 0.929 1_554 S
C1080 H1074 0.930 . S
C1080 C1081 1.367 . S
C1080 C1088 1.378 . S
C1081 C1080 1.367 . S
C1081 C1089 1.433 . S
C1082 H1078 0.929 . S
C1082 C1084 1.378 . S
C1082 C1086 1.350 . S
C1083 C1086 1.463 . S
C1083 C1088 1.350 1_554 S
C1083 N1091 1.427 1_554 S
C1084 H1075 0.930 . S
C1084 C1082 1.378 . S
C1084 C1085 1.367 . S
C1085 C1084 1.367 . S
C1085 C1087 1.433 . S
C1086 C1082 1.350 . S
C1086 C1083 1.463 . S
C1086 N1090 1.427 . S
C1087 H1077 0.929 . S
C1087 C1085 1.433 . S
C1087 N1090 1.384 . S
C1088 H1079 0.929 1_556 S
C1088 C1080 1.378 . S
C1088 C1083 1.350 1_556 S
C1089 H1076 0.929 . S
C1089 C1081 1.433 . S
C1089 N1091 1.384 . S
N1090 C1086 1.427 . S
N1090 C1087 1.384 . S
N1091 C1083 1.427 1_556 S
N1091 C1089 1.384 . S
H1092 C1098 0.930 . S
H1093 C1102 0.930 . S
H1094 C1107 0.929 . S
H1095 C1105 0.929 . S
H1096 C1100 0.929 . S
H1097 C1106 0.929 . S
C1098 H1092 0.930 . S
C1098 C1099 1.367 . S
C1098 C1106 1.378 . S
C1099 C1098 1.367 . S
C1099 C1107 1.433 . S
C1100 H1096 0.929 . S
C1100 C1102 1.378 . S
C1100 C1104 1.350 . S
C1101 C1104 1.463 . S
C1101 C1106 1.350 . S
C1101 N1109 1.427 . S
C1102 H1093 0.930 . S
C1102 C1100 1.378 . S
C1102 C1103 1.367 . S
C1103 C1102 1.367 . S
C1103 C1105 1.433 . S
C1104 C1100 1.350 . S
C1104 C1101 1.463 . S
C1104 N1108 1.427 . S
C1105 H1095 0.929 . S
C1105 C1103 1.433 . S
C1105 N1108 1.384 . S
C1106 H1097 0.929 . S
C1106 C1098 1.378 . S
C1106 C1101 1.350 . S
C1107 H1094 0.929 . S
C1107 C1099 1.433 . S
C1107 N1109 1.384 . S
N1108 C1104 1.427 . S
N1108 C1105 1.384 . S
N1109 C1101 1.427 . S
N1109 C1107 1.384 . S
H1110 C1116 0.930 . S
H1111 C1120 0.930 . S
H1112 C1125 0.929 . S
H1113 C1123 0.929 . S
H1114 C1118 0.929 . S
H1115 C1124 0.929 1_554 S
C1116 H1110 0.930 . S
C1116 C1117 1.367 . S
C1116 C1124 1.378 . S
C1117 C1116 1.367 . S
C1117 C1125 1.433 . S
C1118 H1114 0.929 . S
C1118 C1120 1.378 . S
C1118 C1122 1.350 . S
C1119 C1122 1.463 . S
C1119 C1124 1.350 1_554 S
C1119 N1127 1.427 1_554 S
C1120 H1111 0.930 . S
C1120 C1118 1.378 . S
C1120 C1121 1.367 . S
C1121 C1120 1.367 . S
C1121 C1123 1.433 . S
C1122 C1118 1.350 . S
C1122 C1119 1.463 . S
C1122 N1126 1.427 . S
C1123 H1113 0.929 . S
C1123 C1121 1.433 . S
C1123 N1126 1.384 . S
C1124 H1115 0.929 1_556 S
C1124 C1116 1.378 . S
C1124 C1119 1.350 1_556 S
C1125 H1112 0.929 . S
C1125 C1117 1.433 . S
C1125 N1127 1.384 . S
N1126 C1122 1.427 . S
N1126 C1123 1.384 . S
N1127 C1119 1.427 1_556 S
N1127 C1125 1.384 . S
H1128 C1134 0.930 . S
H1129 C1138 0.930 . S
H1130 C1143 0.929 . S
H1131 C1141 0.929 . S
H1132 C1136 0.929 . S
H1133 C1142 0.929 . S
C1134 H1128 0.930 . S
C1134 C1135 1.367 . S
C1134 C1142 1.378 . S
C1135 C1134 1.367 . S
C1135 C1143 1.433 . S
C1136 H1132 0.929 . S
C1136 C1138 1.378 . S
C1136 C1140 1.350 . S
C1137 C1140 1.463 . S
C1137 C1142 1.350 . S
C1137 N1145 1.427 . S
C1138 H1129 0.930 . S
C1138 C1136 1.378 . S
C1138 C1139 1.367 . S
C1139 C1138 1.367 . S
C1139 C1141 1.433 . S
C1140 C1136 1.350 . S
C1140 C1137 1.463 . S
C1140 N1144 1.427 . S
C1141 H1131 0.929 . S
C1141 C1139 1.433 . S
C1141 N1144 1.384 . S
C1142 H1133 0.929 . S
C1142 C1134 1.378 . S
C1142 C1137 1.350 . S
C1143 H1130 0.929 . S
C1143 C1135 1.433 . S
C1143 N1145 1.384 . S
N1144 C1140 1.427 . S
N1144 C1141 1.384 . S
N1145 C1137 1.427 . S
N1145 C1143 1.384 . S
H1146 C1152 0.930 . S
H1147 C1156 0.930 . S
H1148 C1161 0.929 . S
H1149 C1159 0.929 . S
H1150 C1154 0.929 1_556 S
H1151 C1160 0.929 . S
C1152 H1146 0.930 . S
C1152 C1153 1.367 . S
C1152 C1160 1.378 . S
C1153 C1152 1.367 . S
C1153 C1161 1.433 . S
C1154 H1150 0.929 1_554 S
C1154 C1156 1.378 . S
C1154 C1158 1.350 1_554 S
C1155 C1158 1.463 . S
C1155 C1160 1.350 . S
C1155 N1163 1.427 . S
C1156 H1147 0.930 . S
C1156 C1154 1.378 . S
C1156 C1157 1.367 . S
C1157 C1156 1.367 . S
C1157 C1159 1.433 . S
C1158 C1154 1.350 1_556 S
C1158 C1155 1.463 . S
C1158 N1162 1.427 1_556 S
C1159 H1149 0.929 . S
C1159 C1157 1.433 . S
C1159 N1162 1.384 . S
C1160 H1151 0.929 . S
C1160 C1152 1.378 . S
C1160 C1155 1.350 . S
C1161 H1148 0.929 . S
C1161 C1153 1.433 . S
C1161 N1163 1.384 . S
N1162 C1158 1.427 1_554 S
N1162 C1159 1.384 . S
N1163 C1155 1.427 . S
N1163 C1161 1.384 . S
H1164 C1170 0.930 . S
H1165 C1174 0.930 . S
H1166 C1179 0.929 . S
H1167 C1177 0.929 . S
H1168 C1172 0.929 . S
H1169 C1178 0.929 . S
C1170 H1164 0.930 . S
C1170 C1171 1.367 . S
C1170 C1178 1.378 . S
C1171 C1170 1.367 . S
C1171 C1179 1.433 . S
C1172 H1168 0.929 . S
C1172 C1174 1.378 . S
C1172 C1176 1.350 . S
C1173 C1176 1.463 . S
C1173 C1178 1.350 . S
C1173 N1181 1.427 . S
C1174 H1165 0.930 . S
C1174 C1172 1.378 . S
C1174 C1175 1.367 . S
C1175 C1174 1.367 . S
C1175 C1177 1.433 . S
C1176 C1172 1.350 . S
C1176 C1173 1.463 . S
C1176 N1180 1.427 . S
C1177 H1167 0.929 . S
C1177 C1175 1.433 . S
C1177 N1180 1.384 . S
C1178 H1169 0.929 . S
C1178 C1170 1.378 . S
C1178 C1173 1.350 . S
C1179 H1166 0.929 . S
C1179 C1171 1.433 . S
C1179 N1181 1.384 . S
N1180 C1176 1.427 . S
N1180 C1177 1.384 . S
N1181 C1173 1.427 . S
N1181 C1179 1.384 . S
H1182 C1188 0.930 . S
H1183 C1192 0.930 . S
H1184 C1197 0.929 . S
H1185 C1195 0.929 . S
H1186 C1190 0.929 1_556 S
H1187 C1196 0.929 . S
C1188 H1182 0.930 . S
C1188 C1189 1.367 . S
C1188 C1196 1.378 . S
C1189 C1188 1.367 . S
C1189 C1197 1.433 . S
C1190 H1186 0.929 1_554 S
C1190 C1192 1.378 . S
C1190 C1194 1.350 1_554 S
C1191 C1194 1.463 . S
C1191 C1196 1.350 . S
C1191 N1199 1.427 . S
C1192 H1183 0.930 . S
C1192 C1190 1.378 . S
C1192 C1193 1.367 . S
C1193 C1192 1.367 . S
C1193 C1195 1.433 . S
C1194 C1190 1.350 1_556 S
C1194 C1191 1.463 . S
C1194 N1198 1.427 1_556 S
C1195 H1185 0.929 . S
C1195 C1193 1.433 . S
C1195 N1198 1.384 . S
C1196 H1187 0.929 . S
C1196 C1188 1.378 . S
C1196 C1191 1.350 . S
C1197 H1184 0.929 . S
C1197 C1189 1.433 . S
C1197 N1199 1.384 . S
N1198 C1194 1.427 1_554 S
N1198 C1195 1.384 . S
N1199 C1191 1.427 . S
N1199 C1197 1.384 . S
H1200 C1206 0.930 . S
H1201 C1210 0.930 . S
H1202 C1215 0.929 . S
H1203 C1213 0.929 . S
H1204 C1208 0.929 . S
H1205 C1214 0.929 . S
C1206 H1200 0.930 . S
C1206 C1207 1.367 . S
C1206 C1214 1.378 . S
C1207 C1206 1.367 . S
C1207 C1215 1.433 . S
C1208 H1204 0.929 . S
C1208 C1210 1.378 . S
C1208 C1212 1.350 . S
C1209 C1212 1.463 . S
C1209 C1214 1.350 . S
C1209 N1217 1.427 . S
C1210 H1201 0.930 . S
C1210 C1208 1.378 . S
C1210 C1211 1.367 . S
C1211 C1210 1.367 . S
C1211 C1213 1.433 . S
C1212 C1208 1.350 . S
C1212 C1209 1.463 . S
C1212 N1216 1.427 . S
C1213 H1203 0.929 . S
C1213 C1211 1.433 . S
C1213 N1216 1.384 . S
C1214 H1205 0.929 . S
C1214 C1206 1.378 . S
C1214 C1209 1.350 . S
C1215 H1202 0.929 . S
C1215 C1207 1.433 . S
C1215 N1217 1.384 . S
N1216 C1212 1.427 . S
N1216 C1213 1.384 . S
N1217 C1209 1.427 . S
N1217 C1215 1.384 . S
H1218 C1224 0.930 . S
H1219 C1228 0.930 . S
H1220 C1233 0.929 . S
H1221 C1231 0.929 . S
H1222 C1226 0.929 . S
H1223 C1232 0.929 1_545 S
C1224 H1218 0.930 . S
C1224 C1225 1.367 . S
C1224 C1232 1.378 . S
C1225 C1224 1.367 . S
C1225 C1233 1.433 . S
C1226 H1222 0.929 . S
C1226 C1228 1.378 . S
C1226 C1230 1.350 . S
C1227 C1230 1.463 . S
C1227 C1232 1.350 1_545 S
C1227 N1235 1.427 1_545 S
C1228 H1219 0.930 . S
C1228 C1226 1.378 . S
C1228 C1229 1.367 . S
C1229 C1228 1.367 . S
C1229 C1231 1.433 . S
C1230 C1226 1.350 . S
C1230 C1227 1.463 . S
C1230 N1234 1.427 . S
C1231 H1221 0.929 . S
C1231 C1229 1.433 . S
C1231 N1234 1.384 . S
C1232 H1223 0.929 1_565 S
C1232 C1224 1.378 . S
C1232 C1227 1.350 1_565 S
C1233 H1220 0.929 . S
C1233 C1225 1.433 . S
C1233 N1235 1.384 . S
N1234 C1230 1.427 . S
N1234 C1231 1.384 . S
N1235 C1227 1.427 1_565 S
N1235 C1233 1.384 . S
H1236 C1242 0.930 . S
H1237 C1246 0.930 . S
H1238 C1251 0.929 . S
H1239 C1249 0.929 . S
H1240 C1244 0.929 . S
H1241 C1250 0.929 . S
C1242 H1236 0.930 . S
C1242 C1243 1.367 . S
C1242 C1250 1.378 . S
C1243 C1242 1.367 . S
C1243 C1251 1.433 . S
C1244 H1240 0.929 . S
C1244 C1246 1.378 . S
C1244 C1248 1.350 . S
C1245 C1248 1.463 . S
C1245 C1250 1.350 . S
C1245 N1253 1.427 . S
C1246 H1237 0.930 . S
C1246 C1244 1.378 . S
C1246 C1247 1.367 . S
C1247 C1246 1.367 . S
C1247 C1249 1.433 . S
C1248 C1244 1.350 . S
C1248 C1245 1.463 . S
C1248 N1252 1.427 . S
C1249 H1239 0.929 . S
C1249 C1247 1.433 . S
C1249 N1252 1.384 . S
C1250 H1241 0.929 . S
C1250 C1242 1.378 . S
C1250 C1245 1.350 . S
C1251 H1238 0.929 . S
C1251 C1243 1.433 . S
C1251 N1253 1.384 . S
N1252 C1248 1.427 . S
N1252 C1249 1.384 . S
N1253 C1245 1.427 . S
N1253 C1251 1.384 . S
H1254 C1260 0.930 . S
H1255 C1264 0.930 . S
H1256 C1269 0.929 . S
H1257 C1267 0.929 . S
H1258 C1262 0.929 . S
H1259 C1268 0.929 1_565 S
C1260 H1254 0.930 . S
C1260 C1261 1.367 . S
C1260 C1268 1.378 . S
C1261 C1260 1.367 . S
C1261 C1269 1.433 . S
C1262 H1258 0.929 . S
C1262 C1264 1.378 . S
C1262 C1266 1.350 . S
C1263 C1266 1.463 . S
C1263 C1268 1.350 1_565 S
C1263 N1271 1.427 1_565 S
C1264 H1255 0.930 . S
C1264 C1262 1.378 . S
C1264 C1265 1.367 . S
C1265 C1264 1.367 . S
C1265 C1267 1.433 . S
C1266 C1262 1.350 . S
C1266 C1263 1.463 . S
C1266 N1270 1.427 . S
C1267 H1257 0.929 . S
C1267 C1265 1.433 . S
C1267 N1270 1.384 . S
C1268 H1259 0.929 1_545 S
C1268 C1260 1.378 . S
C1268 C1263 1.350 1_545 S
C1269 H1256 0.929 . S
C1269 C1261 1.433 . S
C1269 N1271 1.384 . S
N1270 C1266 1.427 . S
N1270 C1267 1.384 . S
N1271 C1263 1.427 1_545 S
N1271 C1269 1.384 . S
H1272 C1278 0.930 . S
H1273 C1282 0.930 . S
H1274 C1287 0.929 . S
H1275 C1285 0.929 . S
H1276 C1280 0.929 . S
H1277 C1286 0.929 . S
C1278 H1272 0.930 . S
C1278 C1279 1.367 . S
C1278 C1286 1.378 . S
C1279 C1278 1.367 . S
C1279 C1287 1.433 . S
C1280 H1276 0.929 . S
C1280 C1282 1.378 . S
C1280 C1284 1.350 . S
C1281 C1284 1.463 . S
C1281 C1286 1.350 . S
C1281 N1289 1.427 . S
C1282 H1273 0.930 . S
C1282 C1280 1.378 . S
C1282 C1283 1.367 . S
C1283 C1282 1.367 . S
C1283 C1285 1.433 . S
C1284 C1280 1.350 . S
C1284 C1281 1.463 . S
C1284 N1288 1.427 . S
C1285 H1275 0.929 . S
C1285 C1283 1.433 . S
C1285 N1288 1.384 . S
C1286 H1277 0.929 . S
C1286 C1278 1.378 . S
C1286 C1281 1.350 . S
C1287 H1274 0.929 . S
C1287 C1279 1.433 . S
C1287 N1289 1.384 . S
N1288 C1284 1.427 . S
N1288 C1285 1.384 . S
N1289 C1281 1.427 . S
N1289 C1287 1.384 . S
H1290 C1296 0.930 . S
H1291 C1300 0.930 . S
H1292 C1305 0.929 . S
H1293 C1303 0.929 . S
H1294 C1298 0.929 . S
H1295 C1304 0.929 1_545 S
C1296 H1290 0.930 . S
C1296 C1297 1.367 . S
C1296 C1304 1.378 . S
C1297 C1296 1.367 . S
C1297 C1305 1.433 . S
C1298 H1294 0.929 . S
C1298 C1300 1.378 . S
C1298 C1302 1.350 . S
C1299 C1302 1.463 . S
C1299 C1304 1.350 1_545 S
C1299 N1307 1.427 1_545 S
C1300 H1291 0.930 . S
C1300 C1298 1.378 . S
C1300 C1301 1.367 . S
C1301 C1300 1.367 . S
C1301 C1303 1.433 . S
C1302 C1298 1.350 . S
C1302 C1299 1.463 . S
C1302 N1306 1.427 . S
C1303 H1293 0.929 . S
C1303 C1301 1.433 . S
C1303 N1306 1.384 . S
C1304 H1295 0.929 1_565 S
C1304 C1296 1.378 . S
C1304 C1299 1.350 1_565 S
C1305 H1292 0.929 . S
C1305 C1297 1.433 . S
C1305 N1307 1.384 . S
N1306 C1302 1.427 . S
N1306 C1303 1.384 . S
N1307 C1299 1.427 1_565 S
N1307 C1305 1.384 . S
H1308 C1314 0.930 . S
H1309 C1318 0.930 . S
H1310 C1323 0.929 . S
H1311 C1321 0.929 . S
H1312 C1316 0.929 . S
H1313 C1322 0.929 . S
C1314 H1308 0.930 . S
C1314 C1315 1.367 . S
C1314 C1322 1.378 . S
C1315 C1314 1.367 . S
C1315 C1323 1.433 . S
C1316 H1312 0.929 . S
C1316 C1318 1.378 . S
C1316 C1320 1.350 . S
C1317 C1320 1.463 . S
C1317 C1322 1.350 . S
C1317 N1325 1.427 . S
C1318 H1309 0.930 . S
C1318 C1316 1.378 . S
C1318 C1319 1.367 . S
C1319 C1318 1.367 . S
C1319 C1321 1.433 . S
C1320 C1316 1.350 . S
C1320 C1317 1.463 . S
C1320 N1324 1.427 . S
C1321 H1311 0.929 . S
C1321 C1319 1.433 . S
C1321 N1324 1.384 . S
C1322 H1313 0.929 . S
C1322 C1314 1.378 . S
C1322 C1317 1.350 . S
C1323 H1310 0.929 . S
C1323 C1315 1.433 . S
C1323 N1325 1.384 . S
N1324 C1320 1.427 . S
N1324 C1321 1.384 . S
N1325 C1317 1.427 . S
N1325 C1323 1.384 . S
H1326 C1332 0.930 . S
H1327 C1336 0.930 . S
H1328 C1341 0.929 . S
H1329 C1339 0.929 . S
H1330 C1334 0.929 1_565 S
H1331 C1340 0.929 . S
C1332 H1326 0.930 . S
C1332 C1333 1.367 . S
C1332 C1340 1.378 . S
C1333 C1332 1.367 . S
C1333 C1341 1.433 . S
C1334 H1330 0.929 1_545 S
C1334 C1336 1.378 . S
C1334 C1338 1.350 1_545 S
C1335 C1338 1.463 . S
C1335 C1340 1.350 . S
C1335 N1343 1.427 . S
C1336 H1327 0.930 . S
C1336 C1334 1.378 . S
C1336 C1337 1.367 . S
C1337 C1336 1.367 . S
C1337 C1339 1.433 . S
C1338 C1334 1.350 1_565 S
C1338 C1335 1.463 . S
C1338 N1342 1.427 1_565 S
C1339 H1329 0.929 . S
C1339 C1337 1.433 . S
C1339 N1342 1.384 . S
C1340 H1331 0.929 . S
C1340 C1332 1.378 . S
C1340 C1335 1.350 . S
C1341 H1328 0.929 . S
C1341 C1333 1.433 . S
C1341 N1343 1.384 . S
N1342 C1338 1.427 1_545 S
N1342 C1339 1.384 . S
N1343 C1335 1.427 . S
N1343 C1341 1.384 . S
H1344 C1350 0.930 . S
H1345 C1354 0.930 . S
H1346 C1359 0.929 . S
H1347 C1357 0.929 . S
H1348 C1352 0.929 . S
H1349 C1358 0.929 . S
C1350 H1344 0.930 . S
C1350 C1351 1.367 . S
C1350 C1358 1.378 . S
C1351 C1350 1.367 . S
C1351 C1359 1.433 . S
C1352 H1348 0.929 . S
C1352 C1354 1.378 . S
C1352 C1356 1.350 . S
C1353 C1356 1.463 . S
C1353 C1358 1.350 . S
C1353 N1361 1.427 . S
C1354 H1345 0.930 . S
C1354 C1352 1.378 . S
C1354 C1355 1.367 . S
C1355 C1354 1.367 . S
C1355 C1357 1.433 . S
C1356 C1352 1.350 . S
C1356 C1353 1.463 . S
C1356 N1360 1.427 . S
C1357 H1347 0.929 . S
C1357 C1355 1.433 . S
C1357 N1360 1.384 . S
C1358 H1349 0.929 . S
C1358 C1350 1.378 . S
C1358 C1353 1.350 . S
C1359 H1346 0.929 . S
C1359 C1351 1.433 . S
C1359 N1361 1.384 . S
N1360 C1356 1.427 . S
N1360 C1357 1.384 . S
N1361 C1353 1.427 . S
N1361 C1359 1.384 . S
H1362 C1368 0.930 . S
H1363 C1372 0.930 . S
H1364 C1377 0.929 . S
H1365 C1375 0.929 . S
H1366 C1370 0.929 . S
H1367 C1376 0.929 . S
C1368 H1362 0.930 . S
C1368 C1369 1.367 . S
C1368 C1376 1.378 . S
C1369 C1368 1.367 . S
C1369 C1377 1.433 . S
C1370 H1366 0.929 . S
C1370 C1372 1.378 . S
C1370 C1374 1.350 . S
C1371 C1374 1.463 . S
C1371 C1376 1.350 . S
C1371 N1379 1.427 . S
C1372 H1363 0.930 . S
C1372 C1370 1.378 . S
C1372 C1373 1.367 . S
C1373 C1372 1.367 . S
C1373 C1375 1.433 . S
C1374 C1370 1.350 . S
C1374 C1371 1.463 . S
C1374 N1378 1.427 . S
C1375 H1365 0.929 . S
C1375 C1373 1.433 . S
C1375 N1378 1.384 . S
C1376 H1367 0.929 . S
C1376 C1368 1.378 . S
C1376 C1371 1.350 . S
C1377 H1364 0.929 . S
C1377 C1369 1.433 . S
C1377 N1379 1.384 . S
N1378 C1374 1.427 . S
N1378 C1375 1.384 . S
N1379 C1371 1.427 . S
N1379 C1377 1.384 . S
H1380 C1386 0.930 . S
H1381 C1390 0.930 . S
H1382 C1395 0.929 . S
H1383 C1393 0.929 . S
H1384 C1388 0.929 1_455 S
H1385 C1394 0.929 . S
C1386 H1380 0.930 . S
C1386 C1387 1.367 . S
C1386 C1394 1.378 . S
C1387 C1386 1.367 . S
C1387 C1395 1.433 . S
C1388 H1384 0.929 1_655 S
C1388 C1390 1.378 . S
C1388 C1392 1.350 1_655 S
C1389 C1392 1.463 . S
C1389 C1394 1.350 . S
C1389 N1397 1.427 . S
C1390 H1381 0.930 . S
C1390 C1388 1.378 . S
C1390 C1391 1.367 . S
C1391 C1390 1.367 . S
C1391 C1393 1.433 . S
C1392 C1388 1.350 1_455 S
C1392 C1389 1.463 . S
C1392 N1396 1.427 1_455 S
C1393 H1383 0.929 . S
C1393 C1391 1.433 . S
C1393 N1396 1.384 . S
C1394 H1385 0.929 . S
C1394 C1386 1.378 . S
C1394 C1389 1.350 . S
C1395 H1382 0.929 . S
C1395 C1387 1.433 . S
C1395 N1397 1.384 . S
N1396 C1392 1.427 1_655 S
N1396 C1393 1.384 . S
N1397 C1389 1.427 . S
N1397 C1395 1.384 . S
H1398 C1404 0.930 . S
H1399 C1408 0.930 . S
H1400 C1413 0.929 . S
H1401 C1411 0.929 . S
H1402 C1406 0.929 . S
H1403 C1412 0.929 . S
C1404 H1398 0.930 . S
C1404 C1405 1.367 . S
C1404 C1412 1.378 . S
C1405 C1404 1.367 . S
C1405 C1413 1.433 . S
C1406 H1402 0.929 . S
C1406 C1408 1.378 . S
C1406 C1410 1.350 . S
C1407 C1410 1.463 . S
C1407 C1412 1.350 . S
C1407 N1415 1.427 . S
C1408 H1399 0.930 . S
C1408 C1406 1.378 . S
C1408 C1409 1.367 . S
C1409 C1408 1.367 . S
C1409 C1411 1.433 . S
C1410 C1406 1.350 . S
C1410 C1407 1.463 . S
C1410 N1414 1.427 . S
C1411 H1401 0.929 . S
C1411 C1409 1.433 . S
C1411 N1414 1.384 . S
C1412 H1403 0.929 . S
C1412 C1404 1.378 . S
C1412 C1407 1.350 . S
C1413 H1400 0.929 . S
C1413 C1405 1.433 . S
C1413 N1415 1.384 . S
N1414 C1410 1.427 . S
N1414 C1411 1.384 . S
N1415 C1407 1.427 . S
N1415 C1413 1.384 . S
H1416 C1422 0.930 . S
H1417 C1426 0.930 . S
H1418 C1431 0.929 . S
H1419 C1429 0.929 . S
H1420 C1424 0.929 . S
H1421 C1430 0.929 1_655 S
C1422 H1416 0.930 . S
C1422 C1423 1.367 . S
C1422 C1430 1.378 . S
C1423 C1422 1.367 . S
C1423 C1431 1.433 . S
C1424 H1420 0.929 . S
C1424 C1426 1.378 . S
C1424 C1428 1.350 . S
C1425 C1428 1.463 . S
C1425 C1430 1.350 1_655 S
C1425 N1433 1.427 1_655 S
C1426 H1417 0.930 . S
C1426 C1424 1.378 . S
C1426 C1427 1.367 . S
C1427 C1426 1.367 . S
C1427 C1429 1.433 . S
C1428 C1424 1.350 . S
C1428 C1425 1.463 . S
C1428 N1432 1.427 . S
C1429 H1419 0.929 . S
C1429 C1427 1.433 . S
C1429 N1432 1.384 . S
C1430 H1421 0.929 1_455 S
C1430 C1422 1.378 . S
C1430 C1425 1.350 1_455 S
C1431 H1418 0.929 . S
C1431 C1423 1.433 . S
C1431 N1433 1.384 . S
N1432 C1428 1.427 . S
N1432 C1429 1.384 . S
N1433 C1425 1.427 1_455 S
N1433 C1431 1.384 . S
H1434 C1440 0.930 . S
H1435 C1444 0.930 . S
H1436 C1449 0.929 . S
H1437 C1447 0.929 . S
H1438 C1442 0.929 . S
H1439 C1448 0.929 . S
C1440 H1434 0.930 . S
C1440 C1441 1.367 . S
C1440 C1448 1.378 . S
C1441 C1440 1.367 . S
C1441 C1449 1.433 . S
C1442 H1438 0.929 . S
C1442 C1444 1.378 . S
C1442 C1446 1.350 . S
C1443 C1446 1.463 . S
C1443 C1448 1.350 . S
C1443 N1451 1.427 . S
C1444 H1435 0.930 . S
C1444 C1442 1.378 . S
C1444 C1445 1.367 . S
C1445 C1444 1.367 . S
C1445 C1447 1.433 . S
C1446 C1442 1.350 . S
C1446 C1443 1.463 . S
C1446 N1450 1.427 . S
C1447 H1437 0.929 . S
C1447 C1445 1.433 . S
C1447 N1450 1.384 . S
C1448 H1439 0.929 . S
C1448 C1440 1.378 . S
C1448 C1443 1.350 . S
C1449 H1436 0.929 . S
C1449 C1441 1.433 . S
C1449 N1451 1.384 . S
N1450 C1446 1.427 . S
N1450 C1447 1.384 . S
N1451 C1443 1.427 . S
N1451 C1449 1.384 . S
H1452 C1458 0.930 . S
H1453 C1462 0.930 . S
H1454 C1467 0.929 . S
H1455 C1465 0.929 . S
H1456 C1460 0.929 . S
H1457 C1466 0.929 1_455 S
C1458 H1452 0.930 . S
C1458 C1459 1.367 . S
C1458 C1466 1.378 . S
C1459 C1458 1.367 . S
C1459 C1467 1.433 . S
C1460 H1456 0.929 . S
C1460 C1462 1.378 . S
C1460 C1464 1.350 . S
C1461 C1464 1.463 . S
C1461 C1466 1.350 1_455 S
C1461 N1469 1.427 1_455 S
C1462 H1453 0.930 . S
C1462 C1460 1.378 . S
C1462 C1463 1.367 . S
C1463 C1462 1.367 . S
C1463 C1465 1.433 . S
C1464 C1460 1.350 . S
C1464 C1461 1.463 . S
C1464 N1468 1.427 . S
C1465 H1455 0.929 . S
C1465 C1463 1.433 . S
C1465 N1468 1.384 . S
C1466 H1457 0.929 1_655 S
C1466 C1458 1.378 . S
C1466 C1461 1.350 1_655 S
C1467 H1454 0.929 . S
C1467 C1459 1.433 . S
C1467 N1469 1.384 . S
N1468 C1464 1.427 . S
N1468 C1465 1.384 . S
N1469 C1461 1.427 1_655 S
N1469 C1467 1.384 . S
H1470 C1476 0.930 . S
H1471 C1480 0.930 . S
H1472 C1485 0.929 . S
H1473 C1483 0.929 . S
H1474 C1478 0.929 . S
H1475 C1484 0.929 1_655 S
C1476 H1470 0.930 . S
C1476 C1477 1.367 . S
C1476 C1484 1.378 . S
C1477 C1476 1.367 . S
C1477 C1485 1.433 . S
C1478 H1474 0.929 . S
C1478 C1480 1.378 . S
C1478 C1482 1.350 . S
C1479 C1482 1.463 . S
C1479 C1484 1.350 1_655 S
C1479 N1487 1.427 1_655 S
C1480 H1471 0.930 . S
C1480 C1478 1.378 . S
C1480 C1481 1.367 . S
C1481 C1480 1.367 . S
C1481 C1483 1.433 . S
C1482 C1478 1.350 . S
C1482 C1479 1.463 . S
C1482 N1486 1.427 . S
C1483 H1473 0.929 . S
C1483 C1481 1.433 . S
C1483 N1486 1.384 . S
C1484 H1475 0.929 1_455 S
C1484 C1476 1.378 . S
C1484 C1479 1.350 1_455 S
C1485 H1472 0.929 . S
C1485 C1477 1.433 . S
C1485 N1487 1.384 . S
N1486 C1482 1.427 . S
N1486 C1483 1.384 . S
N1487 C1479 1.427 1_455 S
N1487 C1485 1.384 . S
H1488 C1494 0.930 . S
H1489 C1498 0.930 . S
H1490 C1503 0.929 . S
H1491 C1501 0.929 . S
H1492 C1496 0.929 . S
H1493 C1502 0.929 . S
C1494 H1488 0.930 . S
C1494 C1495 1.367 . S
C1494 C1502 1.378 . S
C1495 C1494 1.367 . S
C1495 C1503 1.433 . S
C1496 H1492 0.929 . S
C1496 C1498 1.378 . S
C1496 C1500 1.350 . S
C1497 C1500 1.463 1_655 S
C1497 C1502 1.350 . S
C1497 N1505 1.427 . S
C1498 H1489 0.930 . S
C1498 C1496 1.378 . S
C1498 C1499 1.367 . S
C1499 C1498 1.367 . S
C1499 C1501 1.433 . S
C1500 C1496 1.350 . S
C1500 C1497 1.463 1_455 S
C1500 N1504 1.427 . S
C1501 H1491 0.929 . S
C1501 C1499 1.433 . S
C1501 N1504 1.384 . S
C1502 H1493 0.929 . S
C1502 C1494 1.378 . S
C1502 C1497 1.350 . S
C1503 H1490 0.929 . S
C1503 C1495 1.433 . S
C1503 N1505 1.384 . S
N1504 C1500 1.427 . S
N1504 C1501 1.384 . S
N1505 C1497 1.427 . S
N1505 C1503 1.384 . S
H1506 C1512 0.930 . S
H1507 C1516 0.930 . S
H1508 C1521 0.929 . S
H1509 C1519 0.929 . S
H1510 C1514 0.929 . S
H1511 C1520 0.929 . S
C1512 H1506 0.930 . S
C1512 C1513 1.367 . S
C1512 C1520 1.378 . S
C1513 C1512 1.367 . S
C1513 C1521 1.433 . S
C1514 H1510 0.929 . S
C1514 C1516 1.378 . S
C1514 C1518 1.350 . S
C1515 C1518 1.463 . S
C1515 C1520 1.350 . S
C1515 N1523 1.427 . S
C1516 H1507 0.930 . S
C1516 C1514 1.378 . S
C1516 C1517 1.367 . S
C1517 C1516 1.367 . S
C1517 C1519 1.433 . S
C1518 C1514 1.350 . S
C1518 C1515 1.463 . S
C1518 N1522 1.427 . S
C1519 H1509 0.929 . S
C1519 C1517 1.433 . S
C1519 N1522 1.384 . S
C1520 H1511 0.929 . S
C1520 C1512 1.378 . S
C1520 C1515 1.350 . S
C1521 H1508 0.929 . S
C1521 C1513 1.433 . S
C1521 N1523 1.384 . S
N1522 C1518 1.427 . S
N1522 C1519 1.384 . S
N1523 C1515 1.427 . S
N1523 C1521 1.384 . S
H1524 C1530 0.930 . S
H1525 C1534 0.930 . S
H1526 C1539 0.929 . S
H1527 C1537 0.929 . S
H1528 C1532 0.929 . S
H1529 C1538 0.929 . S
C1530 H1524 0.930 . S
C1530 C1531 1.367 . S
C1530 C1538 1.378 . S
C1531 C1530 1.367 . S
C1531 C1539 1.433 . S
C1532 H1528 0.929 . S
C1532 C1534 1.378 . S
C1532 C1536 1.350 . S
C1533 C1536 1.463 1_455 S
C1533 C1538 1.350 . S
C1533 N1541 1.427 . S
C1534 H1525 0.930 . S
C1534 C1532 1.378 . S
C1534 C1535 1.367 . S
C1535 C1534 1.367 . S
C1535 C1537 1.433 . S
C1536 C1532 1.350 . S
C1536 C1533 1.463 1_655 S
C1536 N1540 1.427 . S
C1537 H1527 0.929 . S
C1537 C1535 1.433 . S
C1537 N1540 1.384 . S
C1538 H1529 0.929 . S
C1538 C1530 1.378 . S
C1538 C1533 1.350 . S
C1539 H1526 0.929 . S
C1539 C1531 1.433 . S
C1539 N1541 1.384 . S
N1540 C1536 1.427 . S
N1540 C1537 1.384 . S
N1541 C1533 1.427 . S
N1541 C1539 1.384 . S
H1542 C1548 0.930 . S
H1543 C1552 0.930 . S
H1544 C1557 0.929 . S
H1545 C1555 0.929 . S
H1546 C1550 0.929 . S
H1547 C1556 0.929 . S
C1548 H1542 0.930 . S
C1548 C1549 1.367 . S
C1548 C1556 1.378 . S
C1549 C1548 1.367 . S
C1549 C1557 1.433 . S
C1550 H1546 0.929 . S
C1550 C1552 1.378 . S
C1550 C1554 1.350 . S
C1551 C1554 1.463 . S
C1551 C1556 1.350 . S
C1551 N1559 1.427 . S
C1552 H1543 0.930 . S
C1552 C1550 1.378 . S
C1552 C1553 1.367 . S
C1553 C1552 1.367 . S
C1553 C1555 1.433 . S
C1554 C1550 1.350 . S
C1554 C1551 1.463 . S
C1554 N1558 1.427 . S
C1555 H1545 0.929 . S
C1555 C1553 1.433 . S
C1555 N1558 1.384 . S
C1556 H1547 0.929 . S
C1556 C1548 1.378 . S
C1556 C1551 1.350 . S
C1557 H1544 0.929 . S
C1557 C1549 1.433 . S
C1557 N1559 1.384 . S
N1558 C1554 1.427 . S
N1558 C1555 1.384 . S
N1559 C1551 1.427 . S
N1559 C1557 1.384 . S
H1560 C1566 0.930 . S
H1561 C1570 0.930 . S
H1562 C1575 0.929 . S
H1563 C1573 0.929 . S
H1564 C1568 0.929 . S
H1565 C1574 0.929 . S
C1566 H1560 0.930 . S
C1566 C1567 1.367 . S
C1566 C1574 1.378 . S
C1567 C1566 1.367 . S
C1567 C1575 1.433 . S
C1568 H1564 0.929 . S
C1568 C1570 1.378 . S
C1568 C1572 1.350 . S
C1569 C1572 1.463 1_655 S
C1569 C1574 1.350 . S
C1569 N1577 1.427 . S
C1570 H1561 0.930 . S
C1570 C1568 1.378 . S
C1570 C1571 1.367 . S
C1571 C1570 1.367 . S
C1571 C1573 1.433 . S
C1572 C1568 1.350 . S
C1572 C1569 1.463 1_455 S
C1572 N1576 1.427 . S
C1573 H1563 0.929 . S
C1573 C1571 1.433 . S
C1573 N1576 1.384 . S
C1574 H1565 0.929 . S
C1574 C1566 1.378 . S
C1574 C1569 1.350 . S
C1575 H1562 0.929 . S
C1575 C1567 1.433 . S
C1575 N1577 1.384 . S
N1576 C1572 1.427 . S
N1576 C1573 1.384 . S
N1577 C1569 1.427 . S
N1577 C1575 1.384 . S
H1578 C1584 0.930 . S
H1579 C1588 0.930 . S
H1580 C1593 0.929 . S
H1581 C1591 0.929 . S
H1582 C1586 0.929 . S
H1583 C1592 0.929 . S
C1584 H1578 0.930 . S
C1584 C1585 1.367 . S
C1584 C1592 1.378 . S
C1585 C1584 1.367 . S
C1585 C1593 1.433 . S
C1586 H1582 0.929 . S
C1586 C1588 1.378 . S
C1586 C1590 1.350 . S
C1587 C1590 1.463 . S
C1587 C1592 1.350 . S
C1587 N1595 1.427 . S
C1588 H1579 0.930 . S
C1588 C1586 1.378 . S
C1588 C1589 1.367 . S
C1589 C1588 1.367 . S
C1589 C1591 1.433 . S
C1590 C1586 1.350 . S
C1590 C1587 1.463 . S
C1590 N1594 1.427 . S
C1591 H1581 0.929 . S
C1591 C1589 1.433 . S
C1591 N1594 1.384 . S
C1592 H1583 0.929 . S
C1592 C1584 1.378 . S
C1592 C1587 1.350 . S
C1593 H1580 0.929 . S
C1593 C1585 1.433 . S
C1593 N1595 1.384 . S
N1594 C1590 1.427 . S
N1594 C1591 1.384 . S
N1595 C1587 1.427 . S
N1595 C1593 1.384 . S
H1596 C1602 0.930 . S
H1597 C1606 0.930 . S
H1598 C1611 0.929 . S
H1599 C1609 0.929 . S
H1600 C1604 0.929 . S
H1601 C1610 0.929 . S
C1602 H1596 0.930 . S
C1602 C1603 1.367 . S
C1602 C1610 1.378 . S
C1603 C1602 1.367 . S
C1603 C1611 1.433 . S
C1604 H1600 0.929 . S
C1604 C1606 1.378 . S
C1604 C1608 1.350 . S
C1605 C1608 1.463 1_655 S
C1605 C1610 1.350 . S
C1605 N1613 1.427 . S
C1606 H1597 0.930 . S
C1606 C1604 1.378 . S
C1606 C1607 1.367 . S
C1607 C1606 1.367 . S
C1607 C1609 1.433 . S
C1608 C1604 1.350 . S
C1608 C1605 1.463 1_455 S
C1608 N1612 1.427 . S
C1609 H1599 0.929 . S
C1609 C1607 1.433 . S
C1609 N1612 1.384 . S
C1610 H1601 0.929 . S
C1610 C1602 1.378 . S
C1610 C1605 1.350 . S
C1611 H1598 0.929 . S
C1611 C1603 1.433 . S
C1611 N1613 1.384 . S
N1612 C1608 1.427 . S
N1612 C1609 1.384 . S
N1613 C1605 1.427 . S
N1613 C1611 1.384 . S
H1614 C1620 0.930 . S
H1615 C1624 0.930 . S
H1616 C1629 0.929 . S
H1617 C1627 0.929 . S
H1618 C1622 0.929 . S
H1619 C1628 0.929 . S
C1620 H1614 0.930 . S
C1620 C1621 1.367 . S
C1620 C1628 1.378 . S
C1621 C1620 1.367 . S
C1621 C1629 1.433 . S
C1622 H1618 0.929 . S
C1622 C1624 1.378 . S
C1622 C1626 1.350 . S
C1623 C1626 1.463 . S
C1623 C1628 1.350 . S
C1623 N1631 1.427 . S
C1624 H1615 0.930 . S
C1624 C1622 1.378 . S
C1624 C1625 1.367 . S
C1625 C1624 1.367 . S
C1625 C1627 1.433 . S
C1626 C1622 1.350 . S
C1626 C1623 1.463 . S
C1626 N1630 1.427 . S
C1627 H1617 0.929 . S
C1627 C1625 1.433 . S
C1627 N1630 1.384 . S
C1628 H1619 0.929 . S
C1628 C1620 1.378 . S
C1628 C1623 1.350 . S
C1629 H1616 0.929 . S
C1629 C1621 1.433 . S
C1629 N1631 1.384 . S
N1630 C1626 1.427 . S
N1630 C1627 1.384 . S
N1631 C1623 1.427 . S
N1631 C1629 1.384 . S
H1632 C1638 0.930 . S
H1633 C1642 0.930 . S
H1634 C1647 0.929 . S
H1635 C1645 0.929 . S
H1636 C1640 0.929 . S
H1637 C1646 0.929 . S
C1638 H1632 0.930 . S
C1638 C1639 1.367 . S
C1638 C1646 1.378 . S
C1639 C1638 1.367 . S
C1639 C1647 1.433 . S
C1640 H1636 0.929 . S
C1640 C1642 1.378 . S
C1640 C1644 1.350 . S
C1641 C1644 1.463 1_545 S
C1641 C1646 1.350 . S
C1641 N1649 1.427 . S
C1642 H1633 0.930 . S
C1642 C1640 1.378 . S
C1642 C1643 1.367 . S
C1643 C1642 1.367 . S
C1643 C1645 1.433 . S
C1644 C1640 1.350 . S
C1644 C1641 1.463 1_565 S
C1644 N1648 1.427 . S
C1645 H1635 0.929 . S
C1645 C1643 1.433 . S
C1645 N1648 1.384 . S
C1646 H1637 0.929 . S
C1646 C1638 1.378 . S
C1646 C1641 1.350 . S
C1647 H1634 0.929 . S
C1647 C1639 1.433 . S
C1647 N1649 1.384 . S
N1648 C1644 1.427 . S
N1648 C1645 1.384 . S
N1649 C1641 1.427 . S
N1649 C1647 1.384 . S
H1650 C1656 0.930 . S
H1651 C1660 0.930 . S
H1652 C1665 0.929 . S
H1653 C1663 0.929 . S
H1654 C1658 0.929 . S
H1655 C1664 0.929 . S
C1656 H1650 0.930 . S
C1656 C1657 1.367 . S
C1656 C1664 1.378 . S
C1657 C1656 1.367 . S
C1657 C1665 1.433 . S
C1658 H1654 0.929 . S
C1658 C1660 1.378 . S
C1658 C1662 1.350 . S
C1659 C1662 1.463 . S
C1659 C1664 1.350 . S
C1659 N1667 1.427 . S
C1660 H1651 0.930 . S
C1660 C1658 1.378 . S
C1660 C1661 1.367 . S
C1661 C1660 1.367 . S
C1661 C1663 1.433 . S
C1662 C1658 1.350 . S
C1662 C1659 1.463 . S
C1662 N1666 1.427 . S
C1663 H1653 0.929 . S
C1663 C1661 1.433 . S
C1663 N1666 1.384 . S
C1664 H1655 0.929 . S
C1664 C1656 1.378 . S
C1664 C1659 1.350 . S
C1665 H1652 0.929 . S
C1665 C1657 1.433 . S
C1665 N1667 1.384 . S
N1666 C1662 1.427 . S
N1666 C1663 1.384 . S
N1667 C1659 1.427 . S
N1667 C1665 1.384 . S
H1668 C1674 0.930 . S
H1669 C1678 0.930 . S
H1670 C1683 0.929 . S
H1671 C1681 0.929 . S
H1672 C1676 0.929 . S
H1673 C1682 0.929 . S
C1674 H1668 0.930 . S
C1674 C1675 1.367 . S
C1674 C1682 1.378 . S
C1675 C1674 1.367 . S
C1675 C1683 1.433 . S
C1676 H1672 0.929 . S
C1676 C1678 1.378 . S
C1676 C1680 1.350 . S
C1677 C1680 1.463 1_545 S
C1677 C1682 1.350 . S
C1677 N1685 1.427 . S
C1678 H1669 0.930 . S
C1678 C1676 1.378 . S
C1678 C1679 1.367 . S
C1679 C1678 1.367 . S
C1679 C1681 1.433 . S
C1680 C1676 1.350 . S
C1680 C1677 1.463 1_565 S
C1680 N1684 1.427 . S
C1681 H1671 0.929 . S
C1681 C1679 1.433 . S
C1681 N1684 1.384 . S
C1682 H1673 0.929 . S
C1682 C1674 1.378 . S
C1682 C1677 1.350 . S
C1683 H1670 0.929 . S
C1683 C1675 1.433 . S
C1683 N1685 1.384 . S
N1684 C1680 1.427 . S
N1684 C1681 1.384 . S
N1685 C1677 1.427 . S
N1685 C1683 1.384 . S
H1686 C1692 0.930 . S
H1687 C1696 0.930 . S
H1688 C1701 0.929 . S
H1689 C1699 0.929 . S
H1690 C1694 0.929 . S
H1691 C1700 0.929 . S
C1692 H1686 0.930 . S
C1692 C1693 1.367 . S
C1692 C1700 1.378 . S
C1693 C1692 1.367 . S
C1693 C1701 1.433 . S
C1694 H1690 0.929 . S
C1694 C1696 1.378 . S
C1694 C1698 1.350 . S
C1695 C1698 1.463 . S
C1695 C1700 1.350 . S
C1695 N1703 1.427 . S
C1696 H1687 0.930 . S
C1696 C1694 1.378 . S
C1696 C1697 1.367 . S
C1697 C1696 1.367 . S
C1697 C1699 1.433 . S
C1698 C1694 1.350 . S
C1698 C1695 1.463 . S
C1698 N1702 1.427 . S
C1699 H1689 0.929 . S
C1699 C1697 1.433 . S
C1699 N1702 1.384 . S
C1700 H1691 0.929 . S
C1700 C1692 1.378 . S
C1700 C1695 1.350 . S
C1701 H1688 0.929 . S
C1701 C1693 1.433 . S
C1701 N1703 1.384 . S
N1702 C1698 1.427 . S
N1702 C1699 1.384 . S
N1703 C1695 1.427 . S
N1703 C1701 1.384 . S
H1704 C1710 0.930 . S
H1705 C1714 0.930 . S
H1706 C1719 0.929 . S
H1707 C1717 0.929 . S
H1708 C1712 0.929 . S
H1709 C1718 0.929 . S
C1710 H1704 0.930 . S
C1710 C1711 1.367 . S
C1710 C1718 1.378 . S
C1711 C1710 1.367 . S
C1711 C1719 1.433 . S
C1712 H1708 0.929 . S
C1712 C1714 1.378 . S
C1712 C1716 1.350 . S
C1713 C1716 1.463 1_545 S
C1713 C1718 1.350 . S
C1713 N1721 1.427 . S
C1714 H1705 0.930 . S
C1714 C1712 1.378 . S
C1714 C1715 1.367 . S
C1715 C1714 1.367 . S
C1715 C1717 1.433 . S
C1716 C1712 1.350 . S
C1716 C1713 1.463 1_565 S
C1716 N1720 1.427 . S
C1717 H1707 0.929 . S
C1717 C1715 1.433 . S
C1717 N1720 1.384 . S
C1718 H1709 0.929 . S
C1718 C1710 1.378 . S
C1718 C1713 1.350 . S
C1719 H1706 0.929 . S
C1719 C1711 1.433 . S
C1719 N1721 1.384 . S
N1720 C1716 1.427 . S
N1720 C1717 1.384 . S
N1721 C1713 1.427 . S
N1721 C1719 1.384 . S
H1722 C1728 0.930 . S
H1723 C1732 0.930 . S
H1724 C1737 0.929 . S
H1725 C1735 0.929 . S
H1726 C1730 0.929 . S
H1727 C1736 0.929 . S
C1728 H1722 0.930 . S
C1728 C1729 1.367 . S
C1728 C1736 1.378 . S
C1729 C1728 1.367 . S
C1729 C1737 1.433 . S
C1730 H1726 0.929 . S
C1730 C1732 1.378 . S
C1730 C1734 1.350 . S
C1731 C1734 1.463 . S
C1731 C1736 1.350 . S
C1731 N1739 1.427 . S
C1732 H1723 0.930 . S
C1732 C1730 1.378 . S
C1732 C1733 1.367 . S
C1733 C1732 1.367 . S
C1733 C1735 1.433 . S
C1734 C1730 1.350 . S
C1734 C1731 1.463 . S
C1734 N1738 1.427 . S
C1735 H1725 0.929 . S
C1735 C1733 1.433 . S
C1735 N1738 1.384 . S
C1736 H1727 0.929 . S
C1736 C1728 1.378 . S
C1736 C1731 1.350 . S
C1737 H1724 0.929 . S
C1737 C1729 1.433 . S
C1737 N1739 1.384 . S
N1738 C1734 1.427 . S
N1738 C1735 1.384 . S
N1739 C1731 1.427 . S
N1739 C1737 1.384 . S
H1740 C1746 0.930 . S
H1741 C1750 0.930 . S
H1742 C1755 0.929 . S
H1743 C1753 0.929 . S
H1744 C1748 0.929 . S
H1745 C1754 0.929 . S
C1746 H1740 0.930 . S
C1746 C1747 1.367 . S
C1746 C1754 1.378 . S
C1747 C1746 1.367 . S
C1747 C1755 1.433 . S
C1748 H1744 0.929 . S
C1748 C1750 1.378 . S
C1748 C1752 1.350 . S
C1749 C1752 1.463 1_545 S
C1749 C1754 1.350 . S
C1749 N1757 1.427 . S
C1750 H1741 0.930 . S
C1750 C1748 1.378 . S
C1750 C1751 1.367 . S
C1751 C1750 1.367 . S
C1751 C1753 1.433 . S
C1752 C1748 1.350 . S
C1752 C1749 1.463 1_565 S
C1752 N1756 1.427 . S
C1753 H1743 0.929 . S
C1753 C1751 1.433 . S
C1753 N1756 1.384 . S
C1754 H1745 0.929 . S
C1754 C1746 1.378 . S
C1754 C1749 1.350 . S
C1755 H1742 0.929 . S
C1755 C1747 1.433 . S
C1755 N1757 1.384 . S
N1756 C1752 1.427 . S
N1756 C1753 1.384 . S
N1757 C1749 1.427 . S
N1757 C1755 1.384 . S
H1758 C1764 0.930 . S
H1759 C1768 0.930 . S
H1760 C1773 0.929 . S
H1761 C1771 0.929 . S
H1762 C1766 0.929 . S
H1763 C1772 0.929 . S
C1764 H1758 0.930 . S
C1764 C1765 1.367 . S
C1764 C1772 1.378 . S
C1765 C1764 1.367 . S
C1765 C1773 1.433 . S
C1766 H1762 0.929 . S
C1766 C1768 1.378 . S
C1766 C1770 1.350 . S
C1767 C1770 1.463 . S
C1767 C1772 1.350 . S
C1767 N1775 1.427 . S
C1768 H1759 0.930 . S
C1768 C1766 1.378 . S
C1768 C1769 1.367 . S
C1769 C1768 1.367 . S
C1769 C1771 1.433 . S
C1770 C1766 1.350 . S
C1770 C1767 1.463 . S
C1770 N1774 1.427 . S
C1771 H1761 0.929 . S
C1771 C1769 1.433 . S
C1771 N1774 1.384 . S
C1772 H1763 0.929 . S
C1772 C1764 1.378 . S
C1772 C1767 1.350 . S
C1773 H1760 0.929 . S
C1773 C1765 1.433 . S
C1773 N1775 1.384 . S
N1774 C1770 1.427 . S
N1774 C1771 1.384 . S
N1775 C1767 1.427 . S
N1775 C1773 1.384 . S
H1776 C1782 0.930 . S
H1777 C1786 0.930 . S
H1778 C1791 0.929 . S
H1779 C1789 0.929 . S
H1780 C1784 0.929 . S
H1781 C1790 0.929 . S
C1782 H1776 0.930 . S
C1782 C1783 1.367 . S
C1782 C1790 1.378 . S
C1783 C1782 1.367 . S
C1783 C1791 1.433 . S
C1784 H1780 0.929 . S
C1784 C1786 1.378 . S
C1784 C1788 1.350 . S
C1785 C1788 1.463 1_556 S
C1785 C1790 1.350 . S
C1785 N1793 1.427 . S
C1786 H1777 0.930 . S
C1786 C1784 1.378 . S
C1786 C1787 1.367 . S
C1787 C1786 1.367 . S
C1787 C1789 1.433 . S
C1788 C1784 1.350 . S
C1788 C1785 1.463 1_554 S
C1788 N1792 1.427 . S
C1789 H1779 0.929 . S
C1789 C1787 1.433 . S
C1789 N1792 1.384 . S
C1790 H1781 0.929 . S
C1790 C1782 1.378 . S
C1790 C1785 1.350 . S
C1791 H1778 0.929 . S
C1791 C1783 1.433 . S
C1791 N1793 1.384 . S
N1792 C1788 1.427 . S
N1792 C1789 1.384 . S
N1793 C1785 1.427 . S
N1793 C1791 1.384 . S
H1794 C1800 0.930 . S
H1795 C1804 0.930 . S
H1796 C1809 0.929 . S
H1797 C1807 0.929 . S
H1798 C1802 0.929 . S
H1799 C1808 0.929 . S
C1800 H1794 0.930 . S
C1800 C1801 1.367 . S
C1800 C1808 1.378 . S
C1801 C1800 1.367 . S
C1801 C1809 1.433 . S
C1802 H1798 0.929 . S
C1802 C1804 1.378 . S
C1802 C1806 1.350 . S
C1803 C1806 1.463 1_556 S
C1803 C1808 1.350 . S
C1803 N1811 1.427 . S
C1804 H1795 0.930 . S
C1804 C1802 1.378 . S
C1804 C1805 1.367 . S
C1805 C1804 1.367 . S
C1805 C1807 1.433 . S
C1806 C1802 1.350 . S
C1806 C1803 1.463 1_554 S
C1806 N1810 1.427 . S
C1807 H1797 0.929 . S
C1807 C1805 1.433 . S
C1807 N1810 1.384 . S
C1808 H1799 0.929 . S
C1808 C1800 1.378 . S
C1808 C1803 1.350 . S
C1809 H1796 0.929 . S
C1809 C1801 1.433 . S
C1809 N1811 1.384 . S
N1810 C1806 1.427 . S
N1810 C1807 1.384 . S
N1811 C1803 1.427 . S
N1811 C1809 1.384 . S
H1812 C1818 0.930 . S
H1813 C1822 0.930 . S
H1814 C1827 0.929 . S
H1815 C1825 0.929 . S
H1816 C1820 0.929 . S
H1817 C1826 0.929 . S
C1818 H1812 0.930 . S
C1818 C1819 1.367 . S
C1818 C1826 1.378 . S
C1819 C1818 1.367 . S
C1819 C1827 1.433 . S
C1820 H1816 0.929 . S
C1820 C1822 1.378 . S
C1820 C1824 1.350 . S
C1821 C1824 1.463 . S
C1821 C1826 1.350 . S
C1821 N1829 1.427 . S
C1822 H1813 0.930 . S
C1822 C1820 1.378 . S
C1822 C1823 1.367 . S
C1823 C1822 1.367 . S
C1823 C1825 1.433 . S
C1824 C1820 1.350 . S
C1824 C1821 1.463 . S
C1824 N1828 1.427 . S
C1825 H1815 0.929 . S
C1825 C1823 1.433 . S
C1825 N1828 1.384 . S
C1826 H1817 0.929 . S
C1826 C1818 1.378 . S
C1826 C1821 1.350 . S
C1827 H1814 0.929 . S
C1827 C1819 1.433 . S
C1827 N1829 1.384 . S
N1828 C1824 1.427 . S
N1828 C1825 1.384 . S
N1829 C1821 1.427 . S
N1829 C1827 1.384 . S
H1830 C1836 0.930 . S
H1831 C1840 0.930 . S
H1832 C1845 0.929 . S
H1833 C1843 0.929 . S
H1834 C1838 0.929 . S
H1835 C1844 0.929 . S
C1836 H1830 0.930 . S
C1836 C1837 1.367 . S
C1836 C1844 1.378 . S
C1837 C1836 1.367 . S
C1837 C1845 1.433 . S
C1838 H1834 0.929 . S
C1838 C1840 1.378 . S
C1838 C1842 1.350 . S
C1839 C1842 1.463 1_556 S
C1839 C1844 1.350 . S
C1839 N1847 1.427 . S
C1840 H1831 0.930 . S
C1840 C1838 1.378 . S
C1840 C1841 1.367 . S
C1841 C1840 1.367 . S
C1841 C1843 1.433 . S
C1842 C1838 1.350 . S
C1842 C1839 1.463 1_554 S
C1842 N1846 1.427 . S
C1843 H1833 0.929 . S
C1843 C1841 1.433 . S
C1843 N1846 1.384 . S
C1844 H1835 0.929 . S
C1844 C1836 1.378 . S
C1844 C1839 1.350 . S
C1845 H1832 0.929 . S
C1845 C1837 1.433 . S
C1845 N1847 1.384 . S
N1846 C1842 1.427 . S
N1846 C1843 1.384 . S
N1847 C1839 1.427 . S
N1847 C1845 1.384 . S
H1848 C1854 0.930 . S
H1849 C1858 0.930 . S
H1850 C1863 0.929 . S
H1851 C1861 0.929 . S
H1852 C1856 0.929 . S
H1853 C1862 0.929 . S
C1854 H1848 0.930 . S
C1854 C1855 1.367 . S
C1854 C1862 1.378 . S
C1855 C1854 1.367 . S
C1855 C1863 1.433 . S
C1856 H1852 0.929 . S
C1856 C1858 1.378 . S
C1856 C1860 1.350 . S
C1857 C1860 1.463 . S
C1857 C1862 1.350 . S
C1857 N1865 1.427 . S
C1858 H1849 0.930 . S
C1858 C1856 1.378 . S
C1858 C1859 1.367 . S
C1859 C1858 1.367 . S
C1859 C1861 1.433 . S
C1860 C1856 1.350 . S
C1860 C1857 1.463 . S
C1860 N1864 1.427 . S
C1861 H1851 0.929 . S
C1861 C1859 1.433 . S
C1861 N1864 1.384 . S
C1862 H1853 0.929 . S
C1862 C1854 1.378 . S
C1862 C1857 1.350 . S
C1863 H1850 0.929 . S
C1863 C1855 1.433 . S
C1863 N1865 1.384 . S
N1864 C1860 1.427 . S
N1864 C1861 1.384 . S
N1865 C1857 1.427 . S
N1865 C1863 1.384 . S
H1866 C1872 0.930 . S
H1867 C1876 0.930 . S
H1868 C1881 0.929 . S
H1869 C1879 0.929 . S
H1870 C1874 0.929 . S
H1871 C1880 0.929 . S
C1872 H1866 0.930 . S
C1872 C1873 1.367 . S
C1872 C1880 1.378 . S
C1873 C1872 1.367 . S
C1873 C1881 1.433 . S
C1874 H1870 0.929 . S
C1874 C1876 1.378 . S
C1874 C1878 1.350 . S
C1875 C1878 1.463 1_556 S
C1875 C1880 1.350 . S
C1875 N1883 1.427 . S
C1876 H1867 0.930 . S
C1876 C1874 1.378 . S
C1876 C1877 1.367 . S
C1877 C1876 1.367 . S
C1877 C1879 1.433 . S
C1878 C1874 1.350 . S
C1878 C1875 1.463 1_554 S
C1878 N1882 1.427 . S
C1879 H1869 0.929 . S
C1879 C1877 1.433 . S
C1879 N1882 1.384 . S
C1880 H1871 0.929 . S
C1880 C1872 1.378 . S
C1880 C1875 1.350 . S
C1881 H1868 0.929 . S
C1881 C1873 1.433 . S
C1881 N1883 1.384 . S
N1882 C1878 1.427 . S
N1882 C1879 1.384 . S
N1883 C1875 1.427 . S
N1883 C1881 1.384 . S
H1884 C1890 0.930 . S
H1885 C1894 0.930 . S
H1886 C1899 0.929 . S
H1887 C1897 0.929 . S
H1888 C1892 0.929 . S
H1889 C1898 0.929 . S
C1890 H1884 0.930 . S
C1890 C1891 1.367 . S
C1890 C1898 1.378 . S
C1891 C1890 1.367 . S
C1891 C1899 1.433 . S
C1892 H1888 0.929 . S
C1892 C1894 1.378 . S
C1892 C1896 1.350 . S
C1893 C1896 1.463 . S
C1893 C1898 1.350 . S
C1893 N1901 1.427 . S
C1894 H1885 0.930 . S
C1894 C1892 1.378 . S
C1894 C1895 1.367 . S
C1895 C1894 1.367 . S
C1895 C1897 1.433 . S
C1896 C1892 1.350 . S
C1896 C1893 1.463 . S
C1896 N1900 1.427 . S
C1897 H1887 0.929 . S
C1897 C1895 1.433 . S
C1897 N1900 1.384 . S
C1898 H1889 0.929 . S
C1898 C1890 1.378 . S
C1898 C1893 1.350 . S
C1899 H1886 0.929 . S
C1899 C1891 1.433 . S
C1899 N1901 1.384 . S
N1900 C1896 1.427 . S
N1900 C1897 1.384 . S
N1901 C1893 1.427 . S
N1901 C1899 1.384 . S
H1902 C1908 0.930 . S
H1903 C1912 0.930 . S
H1904 C1917 0.929 . S
H1905 C1915 0.929 . S
H1906 C1910 0.929 . S
H1907 C1916 0.929 . S
C1908 H1902 0.930 . S
C1908 C1909 1.367 . S
C1908 C1916 1.378 . S
C1909 C1908 1.367 . S
C1909 C1917 1.433 . S
C1910 H1906 0.929 . S
C1910 C1912 1.378 . S
C1910 C1914 1.350 . S
C1911 C1914 1.463 . S
C1911 C1916 1.350 . S
C1911 N1919 1.427 . S
C1912 H1903 0.930 . S
C1912 C1910 1.378 . S
C1912 C1913 1.367 . S
C1913 C1912 1.367 . S
C1913 C1915 1.433 . S
C1914 C1910 1.350 . S
C1914 C1911 1.463 . S
C1914 N1918 1.427 . S
C1915 H1905 0.929 . S
C1915 C1913 1.433 . S
C1915 N1918 1.384 . S
C1916 H1907 0.929 . S
C1916 C1908 1.378 . S
C1916 C1911 1.350 . S
C1917 H1904 0.929 . S
C1917 C1909 1.433 . S
C1917 N1919 1.384 . S
N1918 C1914 1.427 . S
N1918 C1915 1.384 . S
N1919 C1911 1.427 . S
N1919 C1917 1.384 . S
H1920 C1926 0.930 . S
H1921 C1930 0.930 . S
H1922 C1935 0.929 . S
H1923 C1933 0.929 . S
H1924 C1928 0.929 . S
H1925 C1934 0.929 . S
C1926 H1920 0.930 . S
C1926 C1927 1.367 . S
C1926 C1934 1.378 . S
C1927 C1926 1.367 . S
C1927 C1935 1.433 . S
C1928 H1924 0.929 . S
C1928 C1930 1.378 . S
C1928 C1932 1.350 . S
C1929 C1932 1.463 . S
C1929 C1934 1.350 . S
C1929 N1937 1.427 . S
C1930 H1921 0.930 . S
C1930 C1928 1.378 . S
C1930 C1931 1.367 . S
C1931 C1930 1.367 . S
C1931 C1933 1.433 . S
C1932 C1928 1.350 . S
C1932 C1929 1.463 . S
C1932 N1936 1.427 . S
C1933 H1923 0.929 . S
C1933 C1931 1.433 . S
C1933 N1936 1.384 . S
C1934 H1925 0.929 . S
C1934 C1926 1.378 . S
C1934 C1929 1.350 . S
C1935 H1922 0.929 . S
C1935 C1927 1.433 . S
C1935 N1937 1.384 . S
N1936 C1932 1.427 . S
N1936 C1933 1.384 . S
N1937 C1929 1.427 . S
N1937 C1935 1.384 . S
H1938 C1944 0.930 . S
H1939 C1948 0.930 . S
H1940 C1953 0.929 . S
H1941 C1951 0.929 . S
H1942 C1946 0.929 . S
H1943 C1952 0.929 . S
C1944 H1938 0.930 . S
C1944 C1945 1.367 . S
C1944 C1952 1.378 . S
C1945 C1944 1.367 . S
C1945 C1953 1.433 . S
C1946 H1942 0.929 . S
C1946 C1948 1.378 . S
C1946 C1950 1.350 . S
C1947 C1950 1.463 . S
C1947 C1952 1.350 . S
C1947 N1955 1.427 . S
C1948 H1939 0.930 . S
C1948 C1946 1.378 . S
C1948 C1949 1.367 . S
C1949 C1948 1.367 . S
C1949 C1951 1.433 . S
C1950 C1946 1.350 . S
C1950 C1947 1.463 . S
C1950 N1954 1.427 . S
C1951 H1941 0.929 . S
C1951 C1949 1.433 . S
C1951 N1954 1.384 . S
C1952 H1943 0.929 . S
C1952 C1944 1.378 . S
C1952 C1947 1.350 . S
C1953 H1940 0.929 . S
C1953 C1945 1.433 . S
C1953 N1955 1.384 . S
N1954 C1950 1.427 . S
N1954 C1951 1.384 . S
N1955 C1947 1.427 . S
N1955 C1953 1.384 . S
H1956 C1962 0.930 . S
H1957 C1966 0.930 . S
H1958 C1971 0.929 . S
H1959 C1969 0.929 . S
H1960 C1964 0.929 . S
H1961 C1970 0.929 . S
C1962 H1956 0.930 . S
C1962 C1963 1.367 . S
C1962 C1970 1.378 . S
C1963 C1962 1.367 . S
C1963 C1971 1.433 . S
C1964 H1960 0.929 . S
C1964 C1966 1.378 . S
C1964 C1968 1.350 . S
C1965 C1968 1.463 . S
C1965 C1970 1.350 . S
C1965 N1973 1.427 . S
C1966 H1957 0.930 . S
C1966 C1964 1.378 . S
C1966 C1967 1.367 . S
C1967 C1966 1.367 . S
C1967 C1969 1.433 . S
C1968 C1964 1.350 . S
C1968 C1965 1.463 . S
C1968 N1972 1.427 . S
C1969 H1959 0.929 . S
C1969 C1967 1.433 . S
C1969 N1972 1.384 . S
C1970 H1961 0.929 . S
C1970 C1962 1.378 . S
C1970 C1965 1.350 . S
C1971 H1958 0.929 . S
C1971 C1963 1.433 . S
C1971 N1973 1.384 . S
N1972 C1968 1.427 . S
N1972 C1969 1.384 . S
N1973 C1965 1.427 . S
N1973 C1971 1.384 . S
H1974 C1980 0.930 . S
H1975 C1984 0.930 . S
H1976 C1989 0.929 . S
H1977 C1987 0.929 . S
H1978 C1982 0.929 . S
H1979 C1988 0.929 . S
C1980 H1974 0.930 . S
C1980 C1981 1.367 . S
C1980 C1988 1.378 . S
C1981 C1980 1.367 . S
C1981 C1989 1.433 . S
C1982 H1978 0.929 . S
C1982 C1984 1.378 . S
C1982 C1986 1.350 . S
C1983 C1986 1.463 . S
C1983 C1988 1.350 . S
C1983 N1991 1.427 . S
C1984 H1975 0.930 . S
C1984 C1982 1.378 . S
C1984 C1985 1.367 . S
C1985 C1984 1.367 . S
C1985 C1987 1.433 . S
C1986 C1982 1.350 . S
C1986 C1983 1.463 . S
C1986 N1990 1.427 . S
C1987 H1977 0.929 . S
C1987 C1985 1.433 . S
C1987 N1990 1.384 . S
C1988 H1979 0.929 . S
C1988 C1980 1.378 . S
C1988 C1983 1.350 . S
C1989 H1976 0.929 . S
C1989 C1981 1.433 . S
C1989 N1991 1.384 . S
N1990 C1986 1.427 . S
N1990 C1987 1.384 . S
N1991 C1983 1.427 . S
N1991 C1989 1.384 . S
H1992 C1998 0.930 . S
H1993 C2002 0.930 . S
H1994 C2007 0.929 . S
H1995 C2005 0.929 . S
H1996 C2000 0.929 . S
H1997 C2006 0.929 . S
C1998 H1992 0.930 . S
C1998 C1999 1.367 . S
C1998 C2006 1.378 . S
C1999 C1998 1.367 . S
C1999 C2007 1.433 . S
C2000 H1996 0.929 . S
C2000 C2002 1.378 . S
C2000 C2004 1.350 . S
C2001 C2004 1.463 . S
C2001 C2006 1.350 . S
C2001 N2009 1.427 . S
C2002 H1993 0.930 . S
C2002 C2000 1.378 . S
C2002 C2003 1.367 . S
C2003 C2002 1.367 . S
C2003 C2005 1.433 . S
C2004 C2000 1.350 . S
C2004 C2001 1.463 . S
C2004 N2008 1.427 . S
C2005 H1995 0.929 . S
C2005 C2003 1.433 . S
C2005 N2008 1.384 . S
C2006 H1997 0.929 . S
C2006 C1998 1.378 . S
C2006 C2001 1.350 . S
C2007 H1994 0.929 . S
C2007 C1999 1.433 . S
C2007 N2009 1.384 . S
N2008 C2004 1.427 . S
N2008 C2005 1.384 . S
N2009 C2001 1.427 . S
N2009 C2007 1.384 . S
H2010 C2016 0.930 . S
H2011 C2020 0.930 . S
H2012 C2025 0.929 . S
H2013 C2023 0.929 . S
H2014 C2018 0.929 . S
H2015 C2024 0.929 . S
C2016 H2010 0.930 . S
C2016 C2017 1.367 . S
C2016 C2024 1.378 . S
C2017 C2016 1.367 . S
C2017 C2025 1.433 . S
C2018 H2014 0.929 . S
C2018 C2020 1.378 . S
C2018 C2022 1.350 . S
C2019 C2022 1.463 . S
C2019 C2024 1.350 . S
C2019 N2027 1.427 . S
C2020 H2011 0.930 . S
C2020 C2018 1.378 . S
C2020 C2021 1.367 . S
C2021 C2020 1.367 . S
C2021 C2023 1.433 . S
C2022 C2018 1.350 . S
C2022 C2019 1.463 . S
C2022 N2026 1.427 . S
C2023 H2013 0.929 . S
C2023 C2021 1.433 . S
C2023 N2026 1.384 . S
C2024 H2015 0.929 . S
C2024 C2016 1.378 . S
C2024 C2019 1.350 . S
C2025 H2012 0.929 . S
C2025 C2017 1.433 . S
C2025 N2027 1.384 . S
N2026 C2022 1.427 . S
N2026 C2023 1.384 . S
N2027 C2019 1.427 . S
N2027 C2025 1.384 . S
H2028 C2034 0.930 . S
H2029 C2038 0.930 . S
H2030 C2043 0.929 . S
H2031 C2041 0.929 . S
H2032 C2036 0.929 . S
H2033 C2042 0.929 . S
C2034 H2028 0.930 . S
C2034 C2035 1.367 . S
C2034 C2042 1.378 . S
C2035 C2034 1.367 . S
C2035 C2043 1.433 . S
C2036 H2032 0.929 . S
C2036 C2038 1.378 . S
C2036 C2040 1.350 . S
C2037 C2040 1.463 . S
C2037 C2042 1.350 . S
C2037 N2045 1.427 . S
C2038 H2029 0.930 . S
C2038 C2036 1.378 . S
C2038 C2039 1.367 . S
C2039 C2038 1.367 . S
C2039 C2041 1.433 . S
C2040 C2036 1.350 . S
C2040 C2037 1.463 . S
C2040 N2044 1.427 . S
C2041 H2031 0.929 . S
C2041 C2039 1.433 . S
C2041 N2044 1.384 . S
C2042 H2033 0.929 . S
C2042 C2034 1.378 . S
C2042 C2037 1.350 . S
C2043 H2030 0.929 . S
C2043 C2035 1.433 . S
C2043 N2045 1.384 . S
N2044 C2040 1.427 . S
N2044 C2041 1.384 . S
N2045 C2037 1.427 . S
N2045 C2043 1.384 . S
H2046 C2052 0.930 . S
H2047 C2056 0.930 . S
H2048 C2061 0.929 . S
H2049 C2059 0.929 . S
H2050 C2054 0.929 . S
H2051 C2060 0.929 . S
C2052 H2046 0.930 . S
C2052 C2053 1.367 . S
C2052 C2060 1.378 . S
C2053 C2052 1.367 . S
C2053 C2061 1.433 . S
C2054 H2050 0.929 . S
C2054 C2056 1.378 . S
C2054 C2058 1.350 . S
C2055 C2058 1.463 . S
C2055 C2060 1.350 . S
C2055 N2063 1.427 . S
C2056 H2047 0.930 . S
C2056 C2054 1.378 . S
C2056 C2057 1.367 . S
C2057 C2056 1.367 . S
C2057 C2059 1.433 . S
C2058 C2054 1.350 . S
C2058 C2055 1.463 . S
C2058 N2062 1.427 . S
C2059 H2049 0.929 . S
C2059 C2057 1.433 . S
C2059 N2062 1.384 . S
C2060 H2051 0.929 . S
C2060 C2052 1.378 . S
C2060 C2055 1.350 . S
C2061 H2048 0.929 . S
C2061 C2053 1.433 . S
C2061 N2063 1.384 . S
N2062 C2058 1.427 . S
N2062 C2059 1.384 . S
N2063 C2055 1.427 . S
N2063 C2061 1.384 . S
H2064 C2070 0.930 . S
H2065 C2074 0.930 . S
H2066 C2079 0.929 . S
H2067 C2077 0.929 . S
H2068 C2072 0.929 . S
H2069 C2078 0.929 . S
C2070 H2064 0.930 . S
C2070 C2071 1.367 . S
C2070 C2078 1.378 . S
C2071 C2070 1.367 . S
C2071 C2079 1.433 . S
C2072 H2068 0.929 . S
C2072 C2074 1.378 . S
C2072 C2076 1.350 . S
C2073 C2076 1.463 . S
C2073 C2078 1.350 . S
C2073 N2081 1.427 . S
C2074 H2065 0.930 . S
C2074 C2072 1.378 . S
C2074 C2075 1.367 . S
C2075 C2074 1.367 . S
C2075 C2077 1.433 . S
C2076 C2072 1.350 . S
C2076 C2073 1.463 . S
C2076 N2080 1.427 . S
C2077 H2067 0.929 . S
C2077 C2075 1.433 . S
C2077 N2080 1.384 . S
C2078 H2069 0.929 . S
C2078 C2070 1.378 . S
C2078 C2073 1.350 . S
C2079 H2066 0.929 . S
C2079 C2071 1.433 . S
C2079 N2081 1.384 . S
N2080 C2076 1.427 . S
N2080 C2077 1.384 . S
N2081 C2073 1.427 . S
N2081 C2079 1.384 . S
H2082 C2088 0.930 . S
H2083 C2092 0.930 . S
H2084 C2097 0.929 . S
H2085 C2095 0.929 . S
H2086 C2090 0.929 . S
H2087 C2096 0.929 . S
C2088 H2082 0.930 . S
C2088 C2089 1.367 . S
C2088 C2096 1.378 . S
C2089 C2088 1.367 . S
C2089 C2097 1.433 . S
C2090 H2086 0.929 . S
C2090 C2092 1.378 . S
C2090 C2094 1.350 . S
C2091 C2094 1.463 . S
C2091 C2096 1.350 . S
C2091 N2099 1.427 . S
C2092 H2083 0.930 . S
C2092 C2090 1.378 . S
C2092 C2093 1.367 . S
C2093 C2092 1.367 . S
C2093 C2095 1.433 . S
C2094 C2090 1.350 . S
C2094 C2091 1.463 . S
C2094 N2098 1.427 . S
C2095 H2085 0.929 . S
C2095 C2093 1.433 . S
C2095 N2098 1.384 . S
C2096 H2087 0.929 . S
C2096 C2088 1.378 . S
C2096 C2091 1.350 . S
C2097 H2084 0.929 . S
C2097 C2089 1.433 . S
C2097 N2099 1.384 . S
N2098 C2094 1.427 . S
N2098 C2095 1.384 . S
N2099 C2091 1.427 . S
N2099 C2097 1.384 . S
H2100 C2106 0.930 . S
H2101 C2110 0.930 . S
H2102 C2115 0.929 . S
H2103 C2113 0.929 . S
H2104 C2108 0.929 . S
H2105 C2114 0.929 . S
C2106 H2100 0.930 . S
C2106 C2107 1.367 . S
C2106 C2114 1.378 . S
C2107 C2106 1.367 . S
C2107 C2115 1.433 . S
C2108 H2104 0.929 . S
C2108 C2110 1.378 . S
C2108 C2112 1.350 . S
C2109 C2112 1.463 . S
C2109 C2114 1.350 . S
C2109 N2117 1.427 . S
C2110 H2101 0.930 . S
C2110 C2108 1.378 . S
C2110 C2111 1.367 . S
C2111 C2110 1.367 . S
C2111 C2113 1.433 . S
C2112 C2108 1.350 . S
C2112 C2109 1.463 . S
C2112 N2116 1.427 . S
C2113 H2103 0.929 . S
C2113 C2111 1.433 . S
C2113 N2116 1.384 . S
C2114 H2105 0.929 . S
C2114 C2106 1.378 . S
C2114 C2109 1.350 . S
C2115 H2102 0.929 . S
C2115 C2107 1.433 . S
C2115 N2117 1.384 . S
N2116 C2112 1.427 . S
N2116 C2113 1.384 . S
N2117 C2109 1.427 . S
N2117 C2115 1.384 . S
H2118 C2124 0.930 . S
H2119 C2128 0.930 . S
H2120 C2133 0.929 . S
H2121 C2131 0.929 . S
H2122 C2126 0.929 . S
H2123 C2132 0.929 . S
C2124 H2118 0.930 . S
C2124 C2125 1.367 . S
C2124 C2132 1.378 . S
C2125 C2124 1.367 . S
C2125 C2133 1.433 . S
C2126 H2122 0.929 . S
C2126 C2128 1.378 . S
C2126 C2130 1.350 . S
C2127 C2130 1.463 . S
C2127 C2132 1.350 . S
C2127 N2135 1.427 . S
C2128 H2119 0.930 . S
C2128 C2126 1.378 . S
C2128 C2129 1.367 . S
C2129 C2128 1.367 . S
C2129 C2131 1.433 . S
C2130 C2126 1.350 . S
C2130 C2127 1.463 . S
C2130 N2134 1.427 . S
C2131 H2121 0.929 . S
C2131 C2129 1.433 . S
C2131 N2134 1.384 . S
C2132 H2123 0.929 . S
C2132 C2124 1.378 . S
C2132 C2127 1.350 . S
C2133 H2120 0.929 . S
C2133 C2125 1.433 . S
C2133 N2135 1.384 . S
N2134 C2130 1.427 . S
N2134 C2131 1.384 . S
N2135 C2127 1.427 . S
N2135 C2133 1.384 . S
H2136 C2142 0.930 . S
H2137 C2146 0.930 . S
H2138 C2151 0.929 . S
H2139 C2149 0.929 . S
H2140 C2144 0.929 . S
H2141 C2150 0.929 . S
C2142 H2136 0.930 . S
C2142 C2143 1.367 . S
C2142 C2150 1.378 . S
C2143 C2142 1.367 . S
C2143 C2151 1.433 . S
C2144 H2140 0.929 . S
C2144 C2146 1.378 . S
C2144 C2148 1.350 . S
C2145 C2148 1.463 . S
C2145 C2150 1.350 . S
C2145 N2153 1.427 . S
C2146 H2137 0.930 . S
C2146 C2144 1.378 . S
C2146 C2147 1.367 . S
C2147 C2146 1.367 . S
C2147 C2149 1.433 . S
C2148 C2144 1.350 . S
C2148 C2145 1.463 . S
C2148 N2152 1.427 . S
C2149 H2139 0.929 . S
C2149 C2147 1.433 . S
C2149 N2152 1.384 . S
C2150 H2141 0.929 . S
C2150 C2142 1.378 . S
C2150 C2145 1.350 . S
C2151 H2138 0.929 . S
C2151 C2143 1.433 . S
C2151 N2153 1.384 . S
N2152 C2148 1.427 . S
N2152 C2149 1.384 . S
N2153 C2145 1.427 . S
N2153 C2151 1.384 . S
H2154 C2160 0.930 . S
H2155 C2164 0.930 . S
H2156 C2169 0.929 . S
H2157 C2167 0.929 . S
H2158 C2162 0.929 . S
H2159 C2168 0.929 . S
C2160 H2154 0.930 . S
C2160 C2161 1.367 . S
C2160 C2168 1.378 . S
C2161 C2160 1.367 . S
C2161 C2169 1.433 . S
C2162 H2158 0.929 . S
C2162 C2164 1.378 . S
C2162 C2166 1.350 . S
C2163 C2166 1.463 . S
C2163 C2168 1.350 . S
C2163 N2171 1.427 . S
C2164 H2155 0.930 . S
C2164 C2162 1.378 . S
C2164 C2165 1.367 . S
C2165 C2164 1.367 . S
C2165 C2167 1.433 . S
C2166 C2162 1.350 . S
C2166 C2163 1.463 . S
C2166 N2170 1.427 . S
C2167 H2157 0.929 . S
C2167 C2165 1.433 . S
C2167 N2170 1.384 . S
C2168 H2159 0.929 . S
C2168 C2160 1.378 . S
C2168 C2163 1.350 . S
C2169 H2156 0.929 . S
C2169 C2161 1.433 . S
C2169 N2171 1.384 . S
N2170 C2166 1.427 . S
N2170 C2167 1.384 . S
N2171 C2163 1.427 . S
N2171 C2169 1.384 . S
H2172 C2178 0.930 . S
H2173 C2182 0.930 . S
H2174 C2187 0.929 . S
H2175 C2185 0.929 . S
H2176 C2180 0.929 . S
H2177 C2186 0.929 . S
C2178 H2172 0.930 . S
C2178 C2179 1.367 . S
C2178 C2186 1.378 . S
C2179 C2178 1.367 . S
C2179 C2187 1.433 . S
C2180 H2176 0.929 . S
C2180 C2182 1.378 . S
C2180 C2184 1.350 . S
C2181 C2184 1.463 . S
C2181 C2186 1.350 . S
C2181 N2189 1.427 . S
C2182 H2173 0.930 . S
C2182 C2180 1.378 . S
C2182 C2183 1.367 . S
C2183 C2182 1.367 . S
C2183 C2185 1.433 . S
C2184 C2180 1.350 . S
C2184 C2181 1.463 . S
C2184 N2188 1.427 . S
C2185 H2175 0.929 . S
C2185 C2183 1.433 . S
C2185 N2188 1.384 . S
C2186 H2177 0.929 . S
C2186 C2178 1.378 . S
C2186 C2181 1.350 . S
C2187 H2174 0.929 . S
C2187 C2179 1.433 . S
C2187 N2189 1.384 . S
N2188 C2184 1.427 . S
N2188 C2185 1.384 . S
N2189 C2181 1.427 . S
N2189 C2187 1.384 . S
H2190 C2196 0.930 . S
H2191 C2200 0.930 . S
H2192 C2205 0.929 . S
H2193 C2203 0.929 . S
H2194 C2198 0.929 . S
H2195 C2204 0.929 . S
C2196 H2190 0.930 . S
C2196 C2197 1.367 . S
C2196 C2204 1.378 . S
C2197 C2196 1.367 . S
C2197 C2205 1.433 . S
C2198 H2194 0.929 . S
C2198 C2200 1.378 . S
C2198 C2202 1.350 . S
C2199 C2202 1.463 . S
C2199 C2204 1.350 . S
C2199 N2207 1.427 . S
C2200 H2191 0.930 . S
C2200 C2198 1.378 . S
C2200 C2201 1.367 . S
C2201 C2200 1.367 . S
C2201 C2203 1.433 . S
C2202 C2198 1.350 . S
C2202 C2199 1.463 . S
C2202 N2206 1.427 . S
C2203 H2193 0.929 . S
C2203 C2201 1.433 . S
C2203 N2206 1.384 . S
C2204 H2195 0.929 . S
C2204 C2196 1.378 . S
C2204 C2199 1.350 . S
C2205 H2192 0.929 . S
C2205 C2197 1.433 . S
C2205 N2207 1.384 . S
N2206 C2202 1.427 . S
N2206 C2203 1.384 . S
N2207 C2199 1.427 . S
N2207 C2205 1.384 . S
H2208 C2214 0.930 . S
H2209 C2218 0.930 . S
H2210 C2223 0.929 . S
H2211 C2221 0.929 . S
H2212 C2216 0.929 . S
H2213 C2222 0.929 . S
C2214 H2208 0.930 . S
C2214 C2215 1.367 . S
C2214 C2222 1.378 . S
C2215 C2214 1.367 . S
C2215 C2223 1.433 . S
C2216 H2212 0.929 . S
C2216 C2218 1.378 . S
C2216 C2220 1.350 . S
C2217 C2220 1.463 . S
C2217 C2222 1.350 . S
C2217 N2225 1.427 . S
C2218 H2209 0.930 . S
C2218 C2216 1.378 . S
C2218 C2219 1.367 . S
C2219 C2218 1.367 . S
C2219 C2221 1.433 . S
C2220 C2216 1.350 . S
C2220 C2217 1.463 . S
C2220 N2224 1.427 . S
C2221 H2211 0.929 . S
C2221 C2219 1.433 . S
C2221 N2224 1.384 . S
C2222 H2213 0.929 . S
C2222 C2214 1.378 . S
C2222 C2217 1.350 . S
C2223 H2210 0.929 . S
C2223 C2215 1.433 . S
C2223 N2225 1.384 . S
N2224 C2220 1.427 . S
N2224 C2221 1.384 . S
N2225 C2217 1.427 . S
N2225 C2223 1.384 . S
H2226 C2232 0.930 . S
H2227 C2236 0.930 . S
H2228 C2241 0.929 . S
H2229 C2239 0.929 . S
H2230 C2234 0.929 . S
H2231 C2240 0.929 . S
C2232 H2226 0.930 . S
C2232 C2233 1.367 . S
C2232 C2240 1.378 . S
C2233 C2232 1.367 . S
C2233 C2241 1.433 . S
C2234 H2230 0.929 . S
C2234 C2236 1.378 . S
C2234 C2238 1.350 . S
C2235 C2238 1.463 . S
C2235 C2240 1.350 . S
C2235 N2243 1.427 . S
C2236 H2227 0.930 . S
C2236 C2234 1.378 . S
C2236 C2237 1.367 . S
C2237 C2236 1.367 . S
C2237 C2239 1.433 . S
C2238 C2234 1.350 . S
C2238 C2235 1.463 . S
C2238 N2242 1.427 . S
C2239 H2229 0.929 . S
C2239 C2237 1.433 . S
C2239 N2242 1.384 . S
C2240 H2231 0.929 . S
C2240 C2232 1.378 . S
C2240 C2235 1.350 . S
C2241 H2228 0.929 . S
C2241 C2233 1.433 . S
C2241 N2243 1.384 . S
N2242 C2238 1.427 . S
N2242 C2239 1.384 . S
N2243 C2235 1.427 . S
N2243 C2241 1.384 . S
H2244 C2250 0.930 . S
H2245 C2254 0.930 . S
H2246 C2259 0.929 . S
H2247 C2257 0.929 . S
H2248 C2252 0.929 . S
H2249 C2258 0.929 . S
C2250 H2244 0.930 . S
C2250 C2251 1.367 . S
C2250 C2258 1.378 . S
C2251 C2250 1.367 . S
C2251 C2259 1.433 . S
C2252 H2248 0.929 . S
C2252 C2254 1.378 . S
C2252 C2256 1.350 . S
C2253 C2256 1.463 . S
C2253 C2258 1.350 . S
C2253 N2261 1.427 . S
C2254 H2245 0.930 . S
C2254 C2252 1.378 . S
C2254 C2255 1.367 . S
C2255 C2254 1.367 . S
C2255 C2257 1.433 . S
C2256 C2252 1.350 . S
C2256 C2253 1.463 . S
C2256 N2260 1.427 . S
C2257 H2247 0.929 . S
C2257 C2255 1.433 . S
C2257 N2260 1.384 . S
C2258 H2249 0.929 . S
C2258 C2250 1.378 . S
C2258 C2253 1.350 . S
C2259 H2246 0.929 . S
C2259 C2251 1.433 . S
C2259 N2261 1.384 . S
N2260 C2256 1.427 . S
N2260 C2257 1.384 . S
N2261 C2253 1.427 . S
N2261 C2259 1.384 . S
H2262 C2268 0.930 . S
H2263 C2272 0.930 . S
H2264 C2277 0.929 . S
H2265 C2275 0.929 . S
H2266 C2270 0.929 . S
H2267 C2276 0.929 . S
C2268 H2262 0.930 . S
C2268 C2269 1.367 . S
C2268 C2276 1.378 . S
C2269 C2268 1.367 . S
C2269 C2277 1.433 . S
C2270 H2266 0.929 . S
C2270 C2272 1.378 . S
C2270 C2274 1.350 . S
C2271 C2274 1.463 . S
C2271 C2276 1.350 . S
C2271 N2279 1.427 . S
C2272 H2263 0.930 . S
C2272 C2270 1.378 . S
C2272 C2273 1.367 . S
C2273 C2272 1.367 . S
C2273 C2275 1.433 . S
C2274 C2270 1.350 . S
C2274 C2271 1.463 . S
C2274 N2278 1.427 . S
C2275 H2265 0.929 . S
C2275 C2273 1.433 . S
C2275 N2278 1.384 . S
C2276 H2267 0.929 . S
C2276 C2268 1.378 . S
C2276 C2271 1.350 . S
C2277 H2264 0.929 . S
C2277 C2269 1.433 . S
C2277 N2279 1.384 . S
N2278 C2274 1.427 . S
N2278 C2275 1.384 . S
N2279 C2271 1.427 . S
N2279 C2277 1.384 . S
H2280 C2286 0.930 . S
H2281 C2290 0.930 . S
H2282 C2295 0.929 . S
H2283 C2293 0.929 . S
H2284 C2288 0.929 . S
H2285 C2294 0.929 . S
C2286 H2280 0.930 . S
C2286 C2287 1.367 . S
C2286 C2294 1.378 . S
C2287 C2286 1.367 . S
C2287 C2295 1.433 . S
C2288 H2284 0.929 . S
C2288 C2290 1.378 . S
C2288 C2292 1.350 . S
C2289 C2292 1.463 . S
C2289 C2294 1.350 . S
C2289 N2297 1.427 . S
C2290 H2281 0.930 . S
C2290 C2288 1.378 . S
C2290 C2291 1.367 . S
C2291 C2290 1.367 . S
C2291 C2293 1.433 . S
C2292 C2288 1.350 . S
C2292 C2289 1.463 . S
C2292 N2296 1.427 . S
C2293 H2283 0.929 . S
C2293 C2291 1.433 . S
C2293 N2296 1.384 . S
C2294 H2285 0.929 . S
C2294 C2286 1.378 . S
C2294 C2289 1.350 . S
C2295 H2282 0.929 . S
C2295 C2287 1.433 . S
C2295 N2297 1.384 . S
N2296 C2292 1.427 . S
N2296 C2293 1.384 . S
N2297 C2289 1.427 . S
N2297 C2295 1.384 . S
H2298 C2304 0.930 . S
H2299 C2308 0.930 . S
H2300 C2313 0.929 . S
H2301 C2311 0.929 . S
H2302 C2306 0.929 . S
H2303 C2312 0.929 . S
C2304 H2298 0.930 . S
C2304 C2305 1.367 . S
C2304 C2312 1.378 . S
C2305 C2304 1.367 . S
C2305 C2313 1.433 . S
C2306 H2302 0.929 . S
C2306 C2308 1.378 . S
C2306 C2310 1.350 . S
C2307 C2310 1.463 . S
C2307 C2312 1.350 . S
C2307 N2315 1.427 . S
C2308 H2299 0.930 . S
C2308 C2306 1.378 . S
C2308 C2309 1.367 . S
C2309 C2308 1.367 . S
C2309 C2311 1.433 . S
C2310 C2306 1.350 . S
C2310 C2307 1.463 . S
C2310 N2314 1.427 . S
C2311 H2301 0.929 . S
C2311 C2309 1.433 . S
C2311 N2314 1.384 . S
C2312 H2303 0.929 . S
C2312 C2304 1.378 . S
C2312 C2307 1.350 . S
C2313 H2300 0.929 . S
C2313 C2305 1.433 . S
C2313 N2315 1.384 . S
N2314 C2310 1.427 . S
N2314 C2311 1.384 . S
N2315 C2307 1.427 . S
N2315 C2313 1.384 . S
H2316 C2322 0.930 . S
H2317 C2326 0.930 . S
H2318 C2331 0.929 . S
H2319 C2329 0.929 . S
H2320 C2324 0.929 . S
H2321 C2330 0.929 . S
C2322 H2316 0.930 . S
C2322 C2323 1.367 . S
C2322 C2330 1.378 . S
C2323 C2322 1.367 . S
C2323 C2331 1.433 . S
C2324 H2320 0.929 . S
C2324 C2326 1.378 . S
C2324 C2328 1.350 . S
C2325 C2328 1.463 . S
C2325 C2330 1.350 . S
C2325 N2333 1.427 . S
C2326 H2317 0.930 . S
C2326 C2324 1.378 . S
C2326 C2327 1.367 . S
C2327 C2326 1.367 . S
C2327 C2329 1.433 . S
C2328 C2324 1.350 . S
C2328 C2325 1.463 . S
C2328 N2332 1.427 . S
C2329 H2319 0.929 . S
C2329 C2327 1.433 . S
C2329 N2332 1.384 . S
C2330 H2321 0.929 . S
C2330 C2322 1.378 . S
C2330 C2325 1.350 . S
C2331 H2318 0.929 . S
C2331 C2323 1.433 . S
C2331 N2333 1.384 . S
N2332 C2328 1.427 . S
N2332 C2329 1.384 . S
N2333 C2325 1.427 . S
N2333 C2331 1.384 . S
H2334 C2340 0.930 . S
H2335 C2344 0.930 . S
H2336 C2349 0.929 . S
H2337 C2347 0.929 . S
H2338 C2342 0.929 . S
H2339 C2348 0.929 . S
C2340 H2334 0.930 . S
C2340 C2341 1.367 . S
C2340 C2348 1.378 . S
C2341 C2340 1.367 . S
C2341 C2349 1.433 . S
C2342 H2338 0.929 . S
C2342 C2344 1.378 . S
C2342 C2346 1.350 . S
C2343 C2346 1.463 . S
C2343 C2348 1.350 . S
C2343 N2351 1.427 . S
C2344 H2335 0.930 . S
C2344 C2342 1.378 . S
C2344 C2345 1.367 . S
C2345 C2344 1.367 . S
C2345 C2347 1.433 . S
C2346 C2342 1.350 . S
C2346 C2343 1.463 . S
C2346 N2350 1.427 . S
C2347 H2337 0.929 . S
C2347 C2345 1.433 . S
C2347 N2350 1.384 . S
C2348 H2339 0.929 . S
C2348 C2340 1.378 . S
C2348 C2343 1.350 . S
C2349 H2336 0.929 . S
C2349 C2341 1.433 . S
C2349 N2351 1.384 . S
N2350 C2346 1.427 . S
N2350 C2347 1.384 . S
N2351 C2343 1.427 . S
N2351 C2349 1.384 . S
C631 C265 1.788 . S
C635 C3 1.783 . S
C649 C17 1.772 . S
C653 C231 1.768 . S
C667 C29 1.787 . S
C671 C237 1.791 . S
C685 C257 1.771 . S
C689 C43 1.766 . S
C703 C304 1.777 . S
C707 C56 1.775 . S
C721 C75 1.766 . S
C725 C283 1.771 . S
C739 C88 1.775 . S
C743 C289 1.776 . S
C757 C101 1.769 . S
C761 C218 1.774 . S
C775 C109 1.787 . S
C779 C200 1.789 . S
C793 C121 1.785 . S
C797 C159 1.783 . S
C811 C135 1.786 . S
C815 C172 1.781 . S
C829 C185 1.785 . S
C833 C147 1.777 . S
C847 C322 1.467 . S
C851 C575 1.472 . S
C865 C537 1.446 . S
C869 C335 1.450 . S
C883 C348 1.462 . S
C887 C549 1.473 . S
C901 C569 1.451 . S
C905 C361 1.459 . S
C919 C369 1.476 . S
C923 C614 1.471 . S
C937 C595 1.451 . S
C941 C387 1.450 . S
C955 C395 1.464 . S
C959 C601 1.464 . S
C973 C530 1.454 . S
C977 C407 1.462 . S
C991 C419 1.465 . S
C995 C511 1.454 . S
C1009 C473 1.464 . S
C1013 C434 1.463 . S
C1027 C491 1.457 . S
C1031 C447 1.470 . S
C1045 C497 1.472 . S
C1049 C460 1.475 . S
C1063 C341 1.126 . S
C1067 C10 1.109 . S
C1081 C18 1.115 . S
C1085 C354 1.123 . S
C1099 C36 1.116 . S
C1103 C315 1.120 . S
C1117 C44 1.116 . S
C1121 C328 1.117 . S
C1135 C57 1.121 . S
C1139 C394 1.113 . S
C1153 C408 1.119 . S
C1157 C68 1.115 . S
C1171 C368 1.125 . S
C1175 C81 1.107 . S
C1189 C380 1.125 . S
C1193 C94 1.109 . S
C1207 C472 1.109 . S
C1211 C108 1.111 . S
C1225 C122 1.125 . S
C1229 C484 1.117 . S
C1243 C504 1.111 . S
C1247 C134 1.110 . S
C1261 C148 1.111 . S
C1265 C512 1.129 . S
C1279 C166 1.103 . S
C1283 C426 1.116 . S
C1297 C179 1.116 . S
C1301 C433 1.112 . S
C1315 C446 1.118 . S
C1319 C192 1.099 . S
C1333 C459 1.121 . S
C1337 C199 1.106 . S
C1351 C211 1.114 . S
C1355 C562 1.119 . S
C1369 C224 1.117 . S
C1373 C588 1.116 . S
C1387 C608 1.116 . S
C1391 C244 1.099 . S
C1405 C523 1.123 . S
C1409 C250 1.116 . S
C1423 C264 1.111 . S
C1427 C621 1.105 . S
C1441 C538 1.125 . S
C1445 C276 1.108 . S
C1459 C296 1.108 . S
C1463 C556 1.113 . S
C1477 C303 1.101 . S
C1481 C582 1.119 . S
C1495 C374 1.839 . S
C1499 C5 1.893 . S
C1513 C382 1.843 . S
C1517 C23 1.882 . S
C1531 C400 1.844 . S
C1535 C31 1.888 . S
C1549 C49 1.883 . S
C1553 C406 1.842 . S
C1567 C317 1.834 . S
C1571 C62 1.890 . S
C1585 C330 1.834 . S
C1589 C69 1.886 . S
C1603 C82 1.887 . S
C1607 C343 1.838 . S
C1621 C356 1.830 . S
C1625 C95 1.887 . S
C1639 C107 1.891 . S
C1643 C498 1.842 . S
C1657 C127 1.887 . S
C1661 C510 1.838 . S
C1675 C478 1.838 . S
C1679 C133 1.892 . S
C1693 C153 1.887 . S
C1697 C486 1.839 . S
C1711 C452 1.836 . S
C1715 C161 1.889 . S
C1729 C174 1.894 . S
C1733 C465 1.840 . S
C1747 C187 1.884 . S
C1751 C420 1.846 . S
C1765 C198 1.891 . S
C1769 C439 1.848 . S
C1783 C590 1.837 . S
C1787 C212 1.886 . S
C1801 C225 1.886 . S
C1805 C564 1.830 . S
C1819 C239 1.889 . S
C1823 C576 1.841 . S
C1837 C251 1.882 . S
C1841 C536 1.842 . S
C1855 C550 1.848 . S
C1859 C263 1.885 . S
C1873 C525 1.840 . S
C1877 C277 1.882 . S
C1891 C615 1.837 . S
C1895 C291 1.891 . S
C1909 C302 1.886 . S
C1913 C602 1.843 . S
C1927 C205 1.667 . S
C1931 C4 1.667 . S
C1945 C16 1.656 . S
C1949 C160 1.661 . S
C1963 C173 1.658 . S
C1967 C30 1.659 . S
C1981 C186 1.652 . S
C1985 C42 1.647 . S
C1999 C120 1.660 . S
C2003 C55 1.659 . S
C2017 C70 1.646 . S
C2021 C140 1.651 . S
C2035 C83 1.652 . S
C2039 C146 1.651 . S
C2053 C114 1.651 . S
C2057 C96 1.646 . S
C2071 C213 1.652 . S
C2075 C270 1.655 . S
C2089 C309 1.651 . S
C2093 C226 1.647 . S
C2107 C278 1.652 . S
C2111 C238 1.655 . S
C2125 C252 1.652 . S
C2129 C290 1.656 . S
C2143 C517 1.372 . S
C2147 C316 1.373 . S
C2161 C471 1.362 . S
C2165 C329 1.369 . S
C2179 C342 1.370 . S
C2183 C485 1.371 . S
C2197 C499 1.382 . S
C2201 C355 1.390 . S
C2215 C432 1.366 . S
C2219 C367 1.369 . S
C2233 C381 1.392 . S
C2237 C445 1.383 . S
C2251 C393 1.370 . S
C2255 C458 1.367 . S
C2269 C413 1.373 . S
C2273 C421 1.364 . S
C2287 C524 1.375 . S
C2291 C577 1.366 . S
C2305 C616 1.373 . S
C2309 C543 1.378 . S
C2323 C589 1.393 . S
C2327 C551 1.385 . S
C2341 C603 1.362 . S
C2345 C563 1.371 . S
