# Generated by pormake.
# Topology wme, (6)-cn, num edge types: 1
# Building blocks:
#     Node 0, Type 0, BuildingBlock: INOVEN_clean_sbu_0, # of connection points: 6
#     Node 1, Type 0, BuildingBlock: INOVEN_clean_sbu_0, # of connection points: 6
#     Node 2, Type 0, BuildingBlock: INOVEN_clean_sbu_0, # of connection points: 6
#     Node 3, Type 0, BuildingBlock: INOVEN_clean_sbu_0, # of connection points: 6
#     Node 4, Type 0, BuildingBlock: INOVEN_clean_sbu_0, # of connection points: 6
#     Node 5, Type 0, BuildingBlock: INOVEN_clean_sbu_0, # of connection points: 6
#     Node 6, Type 0, BuildingBlock: INOVEN_clean_sbu_0, # of connection points: 6
#     Node 7, Type 0, BuildingBlock: INOVEN_clean_sbu_0, # of connection points: 6
#     Node 8, Type 0, BuildingBlock: INOVEN_clean_sbu_0, # of connection points: 6
#     Node 9, Type 0, BuildingBlock: INOVEN_clean_sbu_0, # of connection points: 6
#     Node 10, Type 0, BuildingBlock: INOVEN_clean_sbu_0, # of connection points: 6
#     Node 11, Type 0, BuildingBlock: INOVEN_clean_sbu_0, # of connection points: 6
#     Edge 12, Type (0, 0), None
#     Edge 13, Type (0, 0), None
#     Edge 14, Type (0, 0), None
#     Edge 15, Type (0, 0), None
#     Edge 16, Type (0, 0), None
#     Edge 17, Type (0, 0), None
#     Edge 18, Type (0, 0), None
#     Edge 19, Type (0, 0), None
#     Edge 20, Type (0, 0), None
#     Edge 21, Type (0, 0), None
#     Edge 22, Type (0, 0), None
#     Edge 23, Type (0, 0), None
#     Edge 24, Type (0, 0), None
#     Edge 25, Type (0, 0), None
#     Edge 26, Type (0, 0), None
#     Edge 27, Type (0, 0), None
#     Edge 28, Type (0, 0), None
#     Edge 29, Type (0, 0), None
#     Edge 30, Type (0, 0), None
#     Edge 31, Type (0, 0), None
#     Edge 32, Type (0, 0), None
#     Edge 33, Type (0, 0), None
#     Edge 34, Type (0, 0), None
#     Edge 35, Type (0, 0), None
#     Edge 36, Type (0, 0), None
#     Edge 37, Type (0, 0), None
#     Edge 38, Type (0, 0), None
#     Edge 39, Type (0, 0), None
#     Edge 40, Type (0, 0), None
#     Edge 41, Type (0, 0), None
#     Edge 42, Type (0, 0), None
#     Edge 43, Type (0, 0), None
#     Edge 44, Type (0, 0), None
#     Edge 45, Type (0, 0), None
#     Edge 46, Type (0, 0), None
#     Edge 47, Type (0, 0), None
# Relax obj value: 0.122
# Max RMSD: 0.282
# Mean RMSD: 0.282
data_MOF--net-wme--node1-INOVEN_clean_sbu_0--edge1-none
_symmetry_space_group_name_H-M    P1
_symmetry_Int_Tables_number       1
_symmetry_cell_setting            triclinic
loop_
_symmetry_equiv_pos_as_xyz
'x, y, z'
_cell_length_a     22.974946
_cell_length_b     23.012775
_cell_length_c     21.902337
_cell_angle_alpha  90.335347
_cell_angle_beta   89.685377
_cell_angle_gamma 119.88092
loop_
_atom_site_label
_atom_site_type_symbol
_atom_site_fract_x
_atom_site_fract_y
_atom_site_fract_z
_atom_type_partial_charge
Gd0 Gd 0.28074 0.41887 0.03784 0.0
Gd1 Gd 0.32452 0.34584 0.11942 0.0
C2 C 0.42377 0.504 0.09665 0.0
C3 C 0.25006 0.50659 -0.00156 0.0
C4 C 0.23075 0.55224 0.03113 0.0
C5 C 0.169 0.54912 0.01929 0.0
C6 C 0.27396 0.60008 0.07391 0.0
C7 C 0.19721 0.64458 0.08734 0.0
C8 C 0.2576 0.64557 0.10119 0.0
C9 C 0.15219 0.59432 0.04735 0.0
C10 C 0.34525 0.35431 -0.01637 0.0
C11 C 0.16392 0.27664 0.07704 0.0
C12 C 0.34532 0.24801 0.14563 0.0
C13 C 0.31018 0.17542 0.12792 0.0
C14 C 0.34162 0.15325 0.08616 0.0
C15 C 0.24583 0.12823 0.14982 0.0
C16 C 0.24828 1.03789 0.0919 0.0
C17 C 0.21542 0.06006 0.1324 0.0
C18 C 0.31109 0.08605 0.06811 0.0
C19 C 0.28384 0.41734 0.18586 0.0
O20 O 0.36673 0.50276 0.08778 0.0
O21 O 0.42341 0.44632 0.10486 0.0
O22 O 0.31187 0.5191 0.00456 0.0
O23 O 0.20702 0.44232 -0.00013 0.0
O24 O 0.29707 0.35922 0.95713 0.0
O25 O 0.35731 0.38801 0.03085 0.0
O26 O 0.21329 0.26722 0.097 0.0
O27 O 0.17795 0.33484 0.05476 0.0
O28 O 0.31593 0.26951 0.1837 0.0
O29 O 0.37549 0.28993 0.10101 0.0
O30 O 0.33534 0.40997 0.19905 0.0
O31 O 0.25639 0.38643 0.13617 0.0
H32 H 0.13471 0.51294 -0.01333 0.0
H33 H 0.32163 0.60395 0.08508 0.0
H34 H 0.29394 0.68373 0.13137 0.0
H35 H 0.10586 0.59257 0.03494 0.0
H36 H 0.39062 0.18806 0.0676 0.0
H37 H 0.21935 0.14372 0.18097 0.0
H38 H 0.16734 1.02457 0.15208 0.0
H39 H 0.33821 0.07155 0.03665 0.0
Gd40 Gd 0.90171 0.25298 0.54766 0.0
Gd41 Gd 1.01432 0.29288 0.60728 0.0
C42 C 0.95581 0.39312 0.59903 0.0
C43 C 0.78981 0.22856 0.49803 0.0
C44 C 0.72323 0.20548 0.52899 0.0
C45 C 0.66338 0.15232 0.50536 0.0
C46 C 0.71879 0.23761 0.58247 0.0
C47 C 0.59637 0.16754 0.58503 0.0
C48 C 0.65644 0.21958 0.60941 0.0
C49 C 0.60078 0.13306 0.53337 0.0
C50 C 1.03911 0.29847 0.46957 0.0
C51 C 0.9224 0.13214 0.57239 0.0
C52 C 0.13351 0.31171 0.63316 0.0
C53 C 0.17283 0.27828 0.61406 0.0
C54 C 0.22569 0.30968 0.57166 0.0
C55 C 0.1599 0.21629 0.63856 0.0
C56 C 0.2545 0.22078 0.58176 0.0
C57 C 0.20015 0.18796 0.62266 0.0
C58 C 0.26566 0.28145 0.55575 0.0
C59 C 0.91353 0.25808 0.6903 0.0
O60 O 0.90049 0.33499 0.6008 0.0
O61 O 1.0135 0.39284 0.59698 0.0
O62 O 0.81217 0.18618 0.49431 0.0
O63 O 0.83739 0.28885 0.51236 0.0
O64 O 1.00577 0.31424 0.50825 0.0
O65 O 1.0045 0.31182 0.50767 0.0
O66 O 0.98164 0.18123 0.59057 0.0
O67 O 0.87856 0.14738 0.55174 0.0
O68 O 0.08121 0.27865 0.66819 0.0
O69 O 0.12269 0.34563 0.59179 0.0
O70 O 0.97308 0.31098 0.69421 0.0
O71 O 0.90928 0.22585 0.64206 0.0
H72 H 0.66493 0.12749 0.46385 0.0
H73 H 0.76342 0.27858 0.60261 0.0
H74 H 0.65497 0.24838 0.64811 0.0
H75 H 0.55543 0.09438 0.51206 0.0
H76 H 0.23723 0.35716 0.55155 0.0
H77 H 0.11947 0.19017 0.67106 0.0
H78 H 0.19023 0.14167 0.64426 0.0
H79 H 0.30688 0.30854 0.52417 0.0
Gd80 Gd 0.70069 0.87985 0.04834 0.0
Gd81 Gd 0.77537 0.99321 0.10969 0.0
C82 C 0.61679 0.93531 0.10396 0.0
C83 C 0.61184 0.76708 0.00013 0.0
C84 C 0.572 0.69896 0.0295 0.0
C85 C 0.56052 0.64009 -0.00086 0.0
C86 C 0.54165 0.69174 0.08737 0.0
C87 C 0.48545 0.56901 0.08114 0.0
C88 C 0.49832 0.62796 0.11215 0.0
C89 C 0.51837 0.5761 0.0248 0.0
C90 C 0.7912 1.01885 -0.02727 0.0
C91 C 0.84313 0.9004 0.07082 0.0
C92 C 0.87799 0.11041 0.13661 0.0
C93 C 0.95089 0.14746 0.11782 0.0
C94 C 0.97342 0.19978 0.07523 0.0
C95 C 0.99909 0.13317 0.1427 0.0
C96 C 0.0906 0.22639 0.08664 0.0
C97 C 1.06805 0.1723 0.12759 0.0
C98 C 1.04164 0.2381 0.0597 0.0
C99 C 0.71424 0.88981 0.19085 0.0
O100 O 0.61992 0.88002 0.10477 0.0
O101 O 0.67454 0.99299 0.10226 0.0
O102 O 0.67653 0.79164 -0.00845 0.0
O103 O 0.59827 0.81282 0.0196 0.0
O104 O 0.74242 0.9846 0.01124 0.0
O105 O 0.74361 0.98338 0.01057 0.0
O106 O 0.85373 0.96004 0.08883 0.0
O107 O 0.78335 0.85627 0.05167 0.0
O108 O 0.85703 0.05794 0.17133 0.0
O109 O 0.83371 0.10139 0.09521 0.0
O110 O 0.71869 0.94829 0.19759 0.0
O111 O 0.74008 0.88869 0.14026 0.0
H112 H 0.58166 0.6435 0.95415 0.0
H113 H 0.54889 0.73548 0.11255 0.0
H114 H 0.47208 0.62466 0.15438 0.0
H115 H 0.50731 0.53193 -0.0017 0.0
H116 H 0.9383 0.21225 0.05459 0.0
H117 H 0.98379 0.09261 0.17492 0.0
H118 H 0.10379 0.16171 0.14968 0.0
H119 H 1.0562 0.27877 0.02767 0.0
Gd120 Gd 0.86864 0.67778 0.55019 0.0
Gd121 Gd 0.82884 0.75007 0.61325 0.0
C122 C 0.73103 0.59144 0.606 0.0
C123 C 0.89216 0.5898 0.49895 0.0
C124 C 0.91328 0.54421 0.52876 0.0
C125 C 0.97293 0.54481 0.51199 0.0
C126 C 0.87334 0.49897 0.57477 0.0
C127 C 0.94884 0.4527 0.58268 0.0
C128 C 0.89055 0.45393 0.60081 0.0
C129 C 0.9907 0.49992 0.53879 0.0
C130 C 0.82356 0.77218 0.47839 0.0
C131 C 0.9886 0.82045 0.57105 0.0
C132 C 0.81057 0.85044 0.64107 0.0
C133 C 0.84309 0.92215 0.62009 0.0
C134 C 0.80943 0.94198 0.57903 0.0
C135 C 0.90685 0.97182 0.64115 0.0
C136 C 0.89977 0.05945 0.58379 0.0
C137 C 0.93473 1.03948 0.62336 0.0
C138 C 0.83726 1.00921 0.56111 0.0
C139 C 0.87504 0.69133 0.69307 0.0
O140 O 0.79015 0.59604 0.60691 0.0
O141 O 0.72973 0.64848 0.60434 0.0
O142 O 0.93567 0.65416 0.4972 0.0
O143 O 0.83177 0.57832 0.51203 0.0
O144 O 0.80633 0.72069 0.51395 0.0
O145 O 0.80904 0.72213 0.51338 0.0
O146 O 0.93951 0.82959 0.59226 0.0
O147 O 0.97367 0.76157 0.54971 0.0
O148 O 0.84597 0.8326 0.67409 0.0
O149 O 0.7737 0.80398 0.60175 0.0
O150 O 0.82012 0.69419 0.7007 0.0
O151 O 0.90049 0.7169 0.64223 0.0
H152 H 1.00474 0.57872 0.47678 0.0
H153 H 0.82733 0.49678 0.5898 0.0
H154 H 0.85644 0.41789 0.63371 0.0
H155 H 1.03506 0.4995 0.52254 0.0
H156 H 0.76059 0.90553 0.56145 0.0
H157 H 0.93481 0.95874 0.67241 0.0
H158 H 0.9825 0.07644 0.64242 0.0
H159 H 0.80846 1.02208 0.53063 0.0
Gd160 Gd 0.24356 0.84448 0.05292 0.0
Gd161 Gd 0.13127 0.80442 0.11399 0.0
C162 C 0.1903 0.70445 0.10318 0.0
C163 C 0.35632 0.87108 0.00225 0.0
C164 C 0.423 0.89256 0.03269 0.0
C165 C 0.48177 0.95267 0.01706 0.0
C166 C 0.42856 0.85245 0.07819 0.0
C167 C 0.55005 0.92831 0.08748 0.0
C168 C 0.49075 0.86976 0.10465 0.0
C169 C 0.5444 0.97044 0.04419 0.0
C170 C 0.10447 0.80359 -0.01975 0.0
C171 C 0.22402 0.96509 0.08029 0.0
C172 C 1.01272 0.78756 0.14055 0.0
C173 C 0.97369 0.82033 0.11904 0.0
C174 C 0.92004 0.78657 0.078 0.0
C175 C 0.98793 0.88436 0.13983 0.0
C176 C 0.89323 0.87748 0.08213 0.0
C177 C 0.94829 0.91247 0.1217 0.0
C178 C 0.88071 0.81461 0.05982 0.0
C179 C 0.23193 0.83658 0.19517 0.0
O180 O 0.24568 0.76245 0.10386 0.0
O181 O 0.1325 0.70466 0.10215 0.0
O182 O 0.33416 0.9137 0.00167 0.0
O183 O 0.30813 0.81011 0.01364 0.0
O184 O 0.13897 0.78484 0.01406 0.0
O185 O 0.14026 0.78782 0.0136 0.0
O186 O 0.16525 0.91663 0.10005 0.0
O187 O 0.26679 0.94937 0.0575 0.0
O188 O 1.06579 0.82286 0.17392 0.0
O189 O 1.02232 0.75008 0.1016 0.0
O190 O 0.17191 0.78439 0.1994 0.0
O191 O 0.23632 0.86995 0.14812 0.0
H192 H 0.47961 0.98496 -0.01751 0.0
H193 H 0.38498 0.80621 0.09248 0.0
H194 H 0.49285 0.83546 0.13708 0.0
H195 H 0.58896 1.01508 0.02861 0.0
H196 H 0.90742 0.73748 0.0607 0.0
H197 H 1.02893 0.91236 0.17123 0.0
H198 H 0.95929 0.96048 0.14058 0.0
H199 H 0.83885 0.78569 0.02948 0.0
Gd200 Gd 0.44705 0.21808 0.55061 0.0
Gd201 Gd 0.37312 0.10651 0.61108 0.0
C202 C 0.53102 0.1623 0.60307 0.0
C203 C 0.537 0.33032 0.50267 0.0
C204 C 0.58178 0.397 0.53356 0.0
C205 C 0.58003 0.45549 0.51795 0.0
C206 C 0.62784 0.40302 0.57902 0.0
C207 C 0.67227 0.52432 0.58878 0.0
C208 C 0.67236 0.46538 0.60566 0.0
C209 C 0.62429 0.51817 0.54539 0.0
C210 C 0.35474 0.07765 0.47561 0.0
C211 C 0.30508 0.19811 0.57235 0.0
C212 C 0.2713 0.9889 0.63769 0.0
C213 C 0.19936 0.9506 0.61681 0.0
C214 C 0.17922 0.89863 0.57359 0.0
C215 C 0.14969 0.96379 0.64037 0.0
C216 C 1.06146 0.8709 0.58134 0.0
C217 C 0.08173 0.92445 0.62298 0.0
C218 C 0.11168 0.85973 0.55603 0.0
C219 C 0.43987 0.20785 0.69273 0.0
O220 O 0.52924 0.21825 0.60405 0.0
O221 O 0.47286 0.10526 0.60141 0.0
O222 O 0.47256 0.3093 0.49881 0.0
O223 O 0.54815 0.28152 0.51615 0.0
O224 O 0.40501 0.11332 0.51225 0.0
O225 O 0.40353 0.11458 0.51165 0.0
O226 O 0.2949 0.13965 0.59252 0.0
O227 O 0.36419 0.24109 0.55108 0.0
O228 O 0.28987 1.04202 0.67147 0.0
O229 O 0.31752 0.99791 0.59805 0.0
O230 O 0.4319 0.14786 0.69774 0.0
O231 O 0.41183 0.2119 0.64479 0.0
H232 H 0.54571 0.45299 0.48307 0.0
H233 H 0.63108 0.35971 0.59314 0.0
H234 H 0.70892 0.46784 0.63816 0.0
H235 H 0.62359 0.56243 0.53001 0.0
H236 H 0.21561 0.88687 0.55414 0.0
H237 H 0.16298 1.00363 0.67338 0.0
H238 H 1.04478 0.93434 0.6441 0.0
H239 H 0.09854 0.81908 0.52393 0.0
Gd240 Gd 0.70624 0.85881 0.38269 0.0
Gd241 Gd 0.77705 0.8129 0.32972 0.0
C242 C 0.618 0.70744 0.35951 0.0
C243 C 0.63981 0.90934 0.43545 0.0
C244 C 0.58149 0.91578 0.41331 0.0
C245 C 0.57719 0.97365 0.42595 0.0
C246 C 0.53102 0.86558 0.37697 0.0
C247 C 0.47138 0.92915 0.36948 0.0
C248 C 0.4768 0.87196 0.35586 0.0
C249 C 0.52306 0.98053 0.40413 0.0
C250 C 0.7702 0.79044 0.46439 0.0
C251 C 0.83976 0.97142 0.33591 0.0
C252 C 0.8558 0.76604 0.30243 0.0
C253 C 0.92825 0.79446 0.31413 0.0
C254 C 0.95061 0.75424 0.34123 0.0
C255 C 0.97486 0.86236 0.30243 0.0
C256 C 1.06549 0.84816 0.34275 0.0
C257 C 1.04301 0.88892 0.31639 0.0
C258 C 1.01831 0.78072 0.35548 0.0
C259 C 0.73181 0.86123 0.24195 0.0
O260 O 0.61469 0.76185 0.36647 0.0
O261 O 0.67729 0.71275 0.34749 0.0
O262 O 0.69663 0.9457 0.40666 0.0
O263 O 0.62894 0.84877 0.44686 0.0
O264 O 0.78382 0.84077 0.42852 0.0
O265 O 0.78178 0.83932 0.42867 0.0
O266 O 0.85618 0.92427 0.3433 0.0
O267 O 0.77632 0.95396 0.33756 0.0
O268 O 0.83886 0.79738 0.26349 0.0
O269 O 0.81732 0.74733 0.35043 0.0
O270 O 0.79022 0.86664 0.24338 0.0
O271 O 0.69499 0.82657 0.28606 0.0
H272 H 0.61539 1.01305 0.45363 0.0
H273 H 0.53291 0.82075 0.36533 0.0
H274 H 0.43802 0.83099 0.32968 0.0
H275 H 0.52029 1.02472 0.41643 0.0
H276 H 0.91554 0.70223 0.35171 0.0
H277 H 0.95874 0.89496 0.2825 0.0
H278 H 0.07802 0.94086 0.30576 0.0
H279 H 1.03367 0.74783 0.37613 0.0
Gd280 Gd 0.90033 0.68696 0.8838 0.0
Gd281 Gd 1.01685 0.7586 0.83141 0.0
C282 C 0.96562 0.59999 0.86157 0.0
C283 C 0.78259 0.62026 0.93428 0.0
C284 C 0.71821 0.56267 0.91036 0.0
C285 C 0.65661 0.56145 0.91777 0.0
C286 C 0.71785 0.50985 0.87737 0.0
C287 C 0.59545 0.45391 0.86342 0.0
C288 C 0.65763 0.4564 0.85466 0.0
C289 C 0.59602 0.50796 0.89452 0.0
C290 C 1.0328 0.75057 0.96551 0.0
C291 C 0.91992 0.82012 0.83769 0.0
C292 C 0.1418 0.84033 0.80511 0.0
C293 C 0.18417 0.91286 0.81862 0.0
C294 C 0.2452 0.93562 0.84903 0.0
C295 C 0.1632 0.95934 0.80439 0.0
C296 C 0.26591 0.05058 0.84766 0.0
C297 C 0.20388 1.02766 0.81852 0.0
C298 C 0.28543 1.00344 0.86352 0.0
C299 C 0.92256 0.71054 0.74346 0.0
O300 O 0.90745 0.5959 0.86857 0.0
O301 O 1.01893 0.65948 0.84926 0.0
O302 O 0.80366 0.67769 0.90688 0.0
O303 O 0.83205 0.60899 0.94628 0.0
O304 O 0.99559 0.76454 0.93049 0.0
O305 O 0.995 0.76244 0.93057 0.0
O306 O 0.98339 0.83677 0.84595 0.0
O307 O 0.87455 0.75666 0.83844 0.0
O308 O 0.09335 0.823 0.76616 0.0
O309 O 0.12314 0.80042 0.85185 0.0
O310 O 0.97471 0.76934 0.74457 0.0
O311 O 0.92194 0.67505 0.78775 0.0
H312 H 0.65545 0.60171 0.94235 0.0
H313 H 0.76417 0.50932 0.86956 0.0
H314 H 0.65972 0.4159 0.8312 0.0
H315 H 0.54944 0.50773 0.90283 0.0
H316 H 0.26196 0.90084 0.86154 0.0
H317 H 0.11559 0.94306 0.78198 0.0
H318 H 0.18749 0.06254 0.80544 0.0
H319 H 0.33266 1.01902 0.8864 0.0
Gd320 Gd 0.26081 0.86388 0.39314 0.0
Gd321 Gd 0.29644 0.97124 0.3306 0.0
C322 C 0.40688 0.92828 0.35556 0.0
C323 C 0.22839 0.7532 0.44986 0.0
C324 C 0.2147 0.68721 0.42198 0.0
C325 C 0.15762 0.62576 0.438 0.0
C326 C 0.25797 0.68524 0.3772 0.0
C327 C 0.19027 0.56242 0.36822 0.0
C328 C 0.24629 0.62421 0.35134 0.0
C329 C 0.14535 0.56425 0.41135 0.0
C330 C 0.3391 1.00622 0.46262 0.0
C331 C 0.13774 0.87277 0.35348 0.0
C332 C 0.31987 0.08643 0.28965 0.0
C333 C 0.29655 0.13396 0.30527 0.0
C334 C 0.34413 0.20094 0.31725 0.0
C335 C 0.22781 0.11383 0.30827 0.0
C336 C 0.25517 0.2281 0.33203 0.0
C337 C 0.20733 0.16063 0.32121 0.0
C338 C 0.32374 0.24742 0.33083 0.0
C339 C 0.27015 0.86993 0.25012 0.0
O340 O 0.35243 0.87028 0.35244 0.0
O341 O 0.39924 0.9816 0.35586 0.0
O342 O 0.18483 0.77262 0.43849 0.0
O343 O 0.29028 0.80332 0.44674 0.0
O344 O 0.28469 0.96465 0.43289 0.0
O345 O 0.2864 0.96406 0.43299 0.0
O346 O 0.18453 0.93612 0.34524 0.0
O347 O 0.15623 0.82883 0.36576 0.0
O348 O 0.35788 0.07991 0.32984 0.0
O349 O 0.27607 1.02936 0.26556 0.0
O350 O 0.32219 0.9295 0.24752 0.0
O351 O 0.23727 0.86512 0.29723 0.0
H352 H 0.12325 0.62524 0.47219 0.0
H353 H 0.30197 0.731 0.36262 0.0
H354 H 0.28261 0.62532 0.3189 0.0
H355 H 0.10255 0.51794 0.42666 0.0
H356 H 0.3973 0.21752 0.31557 0.0
H357 H 0.18986 0.06224 0.29967 0.0
H358 H 0.15424 0.14408 0.32216 0.0
H359 H 0.36208 0.29895 0.33909 0.0
Gd360 Gd 0.44807 0.24691 0.89031 0.0
Gd361 Gd 0.37658 0.28116 0.82815 0.0
C362 C 0.5313 0.39029 0.84845 0.0
C363 C 0.52743 0.21627 0.94813 0.0
C364 C 0.57874 0.20011 0.92154 0.0
C365 C 0.58183 0.14267 0.93904 0.0
C366 C 0.62492 0.2419 0.87699 0.0
C367 C 0.67904 0.17277 0.87175 0.0
C368 C 0.67413 0.22874 0.85302 0.0
C369 C 0.63118 0.12906 0.91442 0.0
C370 C 0.39526 0.33479 0.95881 0.0
C371 C 0.31403 0.12313 0.85689 0.0
C372 C 0.28412 0.30389 0.78719 0.0
C373 C 0.21334 0.27993 0.80368 0.0
C374 C 0.19422 0.32653 0.82165 0.0
C375 C 0.16464 0.21134 0.80236 0.0
C376 C 0.07854 0.23702 0.83495 0.0
C377 C 0.09778 0.19013 0.81771 0.0
C378 C 0.12771 0.30537 0.83736 0.0
C379 C 0.44624 0.24823 0.74699 0.0
O380 O 0.5333 0.33489 0.84608 0.0
O381 O 0.4709 0.38414 0.84889 0.0
O382 O 0.4641 0.17285 0.9385 0.0
O383 O 0.53969 0.27804 0.94205 0.0
O384 O 0.37619 0.27753 0.93122 0.0
O385 O 0.37831 0.27894 0.93115 0.0
O386 O 0.29851 0.17043 0.84644 0.0
O387 O 0.37631 0.14111 0.86913 0.0
O388 O 0.32905 0.34259 0.82688 0.0
O389 O 0.29784 0.26028 0.76301 0.0
O390 O 0.4407 0.30148 0.74351 0.0
O391 O 0.41969 0.21788 0.7954 0.0
H392 H 0.54698 0.10908 -0.02712 0.0
H393 H 0.62413 0.28601 0.86125 0.0
H394 H 0.7101 0.26407 0.82075 0.0
H395 H 0.6339 0.08627 0.93104 0.0
H396 H 0.23081 0.37955 0.82335 0.0
H397 H 0.17791 0.17404 0.78895 0.0
H398 H 1.06123 0.13726 0.81536 0.0
H399 H 0.11478 0.34299 0.85052 0.0
Gd400 Gd 0.25016 0.41347 0.38229 0.0
Gd401 Gd 0.14024 0.34391 0.31916 0.0
C402 C 0.18807 0.4981 0.3493 0.0
C403 C 0.36024 0.48744 0.44191 0.0
C404 C 0.42724 0.53999 0.41705 0.0
C405 C 0.48798 0.54542 0.43718 0.0
C406 C 0.43101 0.58495 0.37176 0.0
C407 C 0.55423 0.64275 0.37115 0.0
C408 C 0.49326 0.63573 0.34981 0.0
C409 C 0.55073 0.59593 0.41432 0.0
C410 C 0.11027 0.3526 0.45469 0.0
C411 C 0.23514 0.27944 0.34189 0.0
C412 C 1.02455 0.2505 0.28003 0.0
C413 C 0.97933 0.17926 0.29606 0.0
C414 C 0.91121 0.15675 0.30587 0.0
C415 C 1.00267 0.13323 0.30139 0.0
C416 C 0.88952 1.04296 0.32404 0.0
C417 C 0.9581 0.06556 0.31509 0.0
C418 C 0.86696 0.08969 0.31982 0.0
C419 C 0.24325 0.41695 0.23857 0.0
O420 O 0.2453 0.49984 0.34363 0.0
O421 O 0.13343 0.43793 0.34854 0.0
O422 O 0.34039 0.42524 0.42687 0.0
O423 O 0.311 0.50069 0.43929 0.0
O424 O 0.14894 0.33865 0.42133 0.0
O425 O 0.1497 0.34067 0.42152 0.0
O426 O 0.17224 0.26543 0.33575 0.0
O427 O 0.28166 0.3415 0.35222 0.0
O428 O 1.03101 0.29513 0.32059 0.0
O429 O 0.08136 0.26526 0.25404 0.0
O430 O 0.18319 0.40842 0.23394 0.0
O431 O 0.24636 0.38843 0.2859 0.0
H432 H 0.48686 0.51174 0.47198 0.0
H433 H 0.3857 0.58219 0.35425 0.0
H434 H 0.49378 0.67145 0.31747 0.0
H435 H 0.59647 0.60087 0.43312 0.0
H436 H 0.89197 0.19107 0.30229 0.0
H437 H 1.05509 0.14922 0.29392 0.0
H438 H 0.97709 1.031 0.31784 0.0
H439 H 0.81455 0.07447 0.32664 0.0
Gd440 Gd 0.88829 0.23124 0.88874 0.0
Gd441 Gd 0.84811 0.12179 0.82633 0.0
C442 C 0.74148 0.16989 0.85527 0.0
C443 C 0.92458 0.34248 0.94729 0.0
C444 C 0.94115 0.40971 0.92144 0.0
C445 C 0.99062 0.47032 0.94778 0.0
C446 C 0.90719 0.41393 0.86973 0.0
C447 C 0.96795 0.53708 0.87428 0.0
C448 C 0.91966 0.47636 0.84722 0.0
C449 C 1.00417 0.53315 0.92427 0.0
C450 C 0.80834 0.09059 0.95999 0.0
C451 C 1.00744 0.21656 0.84706 0.0
C452 C 0.82531 1.00602 0.78569 0.0
C453 C 0.85136 0.96029 0.80013 0.0
C454 C 0.8058 0.89235 0.80987 0.0
C455 C 0.9207 0.98302 0.80418 0.0
C456 C 0.89788 0.86987 0.82627 0.0
C457 C 0.94379 0.93819 0.81709 0.0
C458 C 0.82865 0.84777 0.82286 0.0
C459 C 0.87638 0.22331 0.74571 0.0
O460 O 0.79703 0.22677 0.85027 0.0
O461 O 0.74695 0.11515 0.85483 0.0
O462 O 0.96632 0.32094 0.93455 0.0
O463 O 0.8619 0.29437 0.94301 0.0
O464 O 0.86195 0.13022 0.92833 0.0
O465 O 0.86041 0.13092 0.92849 0.0
O466 O 0.95883 0.15368 0.84123 0.0
O467 O 0.99152 0.26282 0.8581 0.0
O468 O 0.78814 1.0127 0.82727 0.0
O469 O 0.8669 0.06276 0.75995 0.0
O470 O 0.82357 0.16412 0.74342 0.0
O471 O 0.90965 0.22749 0.79215 0.0
H472 H 1.0171 0.46899 -0.01206 0.0
H473 H 0.86914 0.36871 0.84768 0.0
H474 H 0.88933 0.47708 0.80984 0.0
H475 H 1.03971 0.57859 0.94766 0.0
H476 H 0.75226 0.87354 0.80712 0.0
H477 H 0.95707 1.03523 0.79671 0.0
H478 H 0.99731 0.95681 0.81915 0.0
H479 H 0.79159 0.79556 0.82979 0.0
loop_
_geom_bond_atom_site_label_1
_geom_bond_atom_site_label_2
_geom_bond_distance
_geom_bond_site_symmetry_2
_ccdc_geom_bond_type
Gd0 C3 2.818 . S
Gd0 O20 2.377 . S
Gd0 O22 2.448 1_554 S
Gd0 O23 2.506 . S
Gd0 O24 2.435 1_554 S
Gd0 O25 2.717 . S
Gd0 O27 2.395 . S
Gd0 O31 2.327 . S
Gd1 C12 2.818 . S
Gd1 O21 2.395 . S
Gd1 O25 2.327 . S
Gd1 O26 2.377 . S
Gd1 O28 2.448 . S
Gd1 O29 2.506 . S
Gd1 O30 2.435 . S
Gd1 O31 2.717 . S
C2 O20 1.240 . S
C2 O21 1.240 . S
C3 Gd0 2.818 . S
C3 C4 1.510 . S
C3 O22 1.249 1_554 S
C3 O23 1.252 . S
C4 C3 1.510 . S
C4 C5 1.404 1_554 S
C4 C6 1.352 . S
C5 C4 1.404 1_556 S
C5 C9 1.389 . S
C5 H32 0.930 . S
C6 C4 1.352 . S
C6 C8 1.374 . S
C6 H33 0.931 . S
C7 C8 1.359 . S
C7 C9 1.364 1_554 S
C8 C6 1.374 . S
C8 C7 1.359 . S
C8 H34 0.931 . S
C9 C5 1.389 . S
C9 C7 1.364 1_556 S
C9 H35 0.931 . S
C10 O24 1.256 . S
C10 O25 1.257 1_556 S
C11 O26 1.240 . S
C11 O27 1.240 . S
C12 Gd1 2.818 . S
C12 C13 1.510 . S
C12 O28 1.249 . S
C12 O29 1.252 . S
C13 C12 1.510 . S
C13 C14 1.404 . S
C13 C15 1.352 . S
C14 C13 1.404 . S
C14 C18 1.389 . S
C14 H36 0.930 . S
C15 C13 1.352 . S
C15 C17 1.395 . S
C15 H37 0.931 . S
C16 C17 1.350 1_565 S
C16 C18 1.364 1_565 S
C17 C15 1.395 . S
C17 C16 1.350 1_545 S
C17 H38 0.919 1_545 S
C18 C14 1.389 . S
C18 C16 1.364 1_545 S
C18 H39 0.931 1_545 S
C19 O30 1.256 . S
C19 O31 1.257 . S
O20 Gd0 2.377 . S
O20 C2 1.240 . S
O21 Gd1 2.395 . S
O21 C2 1.240 . S
O22 Gd0 2.448 1_556 S
O22 C3 1.249 1_556 S
O23 Gd0 2.506 . S
O23 C3 1.252 . S
O24 Gd0 2.435 1_556 S
O24 C10 1.256 . S
O25 Gd0 2.717 . S
O25 Gd1 2.327 . S
O25 C10 1.257 1_554 S
O26 Gd1 2.377 . S
O26 C11 1.240 . S
O27 Gd0 2.395 . S
O27 C11 1.240 . S
O28 Gd1 2.448 . S
O28 C12 1.249 . S
O29 Gd1 2.506 . S
O29 C12 1.252 . S
O30 Gd1 2.435 . S
O30 C19 1.256 . S
O31 Gd0 2.327 . S
O31 Gd1 2.717 . S
O31 C19 1.257 . S
H32 C5 0.930 . S
H33 C6 0.931 . S
H34 C8 0.931 . S
H35 C9 0.931 . S
H36 C14 0.930 . S
H37 C15 0.931 . S
H38 C17 0.919 1_565 S
H39 C18 0.931 1_565 S
Gd40 C43 2.818 . S
Gd40 O60 2.377 . S
Gd40 O62 2.448 . S
Gd40 O63 2.506 . S
Gd40 O64 2.435 . S
Gd40 O65 2.717 . S
Gd40 O67 2.395 . S
Gd40 O71 2.327 . S
Gd41 C52 2.818 1_655 S
Gd41 O61 2.395 . S
Gd41 O65 2.327 . S
Gd41 O66 2.377 . S
Gd41 O68 2.448 1_655 S
Gd41 O69 2.506 1_655 S
Gd41 O70 2.435 . S
Gd41 O71 2.717 . S
C42 O60 1.240 . S
C42 O61 1.240 . S
C43 Gd40 2.818 . S
C43 C44 1.510 . S
C43 O62 1.249 . S
C43 O63 1.252 . S
C44 C43 1.510 . S
C44 C45 1.404 . S
C44 C46 1.352 . S
C45 C44 1.404 . S
C45 C49 1.389 . S
C45 H72 0.930 . S
C46 C44 1.352 . S
C46 C48 1.374 . S
C46 H73 0.931 . S
C47 C48 1.359 . S
C47 C49 1.364 . S
C48 C46 1.374 . S
C48 C47 1.359 . S
C48 H74 0.931 . S
C49 C45 1.389 . S
C49 C47 1.364 . S
C49 H75 0.931 . S
C50 O64 1.256 . S
C50 O65 1.257 . S
C51 O66 1.240 . S
C51 O67 1.240 . S
C52 Gd41 2.818 1_455 S
C52 C53 1.510 . S
C52 O68 1.249 . S
C52 O69 1.252 . S
C53 C52 1.510 . S
C53 C54 1.404 . S
C53 C55 1.352 . S
C54 C53 1.404 . S
C54 C58 1.389 . S
C54 H76 0.930 . S
C55 C53 1.352 . S
C55 C57 1.374 . S
C55 H77 0.931 . S
C56 C57 1.359 . S
C56 C58 1.364 . S
C57 C55 1.374 . S
C57 C56 1.359 . S
C57 H78 0.931 . S
C58 C54 1.389 . S
C58 C56 1.364 . S
C58 H79 0.931 . S
C59 O70 1.256 . S
C59 O71 1.257 . S
O60 Gd40 2.377 . S
O60 C42 1.240 . S
O61 Gd41 2.395 . S
O61 C42 1.240 . S
O62 Gd40 2.448 . S
O62 C43 1.249 . S
O63 Gd40 2.506 . S
O63 C43 1.252 . S
O64 Gd40 2.435 . S
O64 C50 1.256 . S
O65 Gd40 2.717 . S
O65 Gd41 2.327 . S
O65 C50 1.257 . S
O66 Gd41 2.377 . S
O66 C51 1.240 . S
O67 Gd40 2.395 . S
O67 C51 1.240 . S
O68 Gd41 2.448 1_455 S
O68 C52 1.249 . S
O69 Gd41 2.506 1_455 S
O69 C52 1.252 . S
O70 Gd41 2.435 . S
O70 C59 1.256 . S
O71 Gd40 2.327 . S
O71 Gd41 2.717 . S
O71 C59 1.257 . S
H72 C45 0.930 . S
H73 C46 0.931 . S
H74 C48 0.931 . S
H75 C49 0.931 . S
H76 C54 0.930 . S
H77 C55 0.931 . S
H78 C57 0.931 . S
H79 C58 0.931 . S
Gd80 C83 2.818 . S
Gd80 O100 2.377 . S
Gd80 O102 2.448 1_554 S
Gd80 O103 2.506 . S
Gd80 O104 2.435 1_554 S
Gd80 O105 2.717 . S
Gd80 O107 2.395 . S
Gd80 O111 2.327 . S
Gd81 C92 2.818 1_565 S
Gd81 O101 2.395 . S
Gd81 O105 2.327 . S
Gd81 O106 2.377 . S
Gd81 O108 2.448 1_565 S
Gd81 O109 2.506 1_565 S
Gd81 O110 2.435 . S
Gd81 O111 2.717 . S
C82 O100 1.240 . S
C82 O101 1.240 . S
C83 Gd80 2.818 . S
C83 C84 1.510 . S
C83 O102 1.249 1_554 S
C83 O103 1.252 . S
C84 C83 1.510 . S
C84 C85 1.404 1_554 S
C84 C86 1.352 . S
C85 C84 1.404 1_556 S
C85 C89 1.389 . S
C85 H112 0.930 . S
C86 C84 1.352 . S
C86 C88 1.374 . S
C86 H113 0.931 . S
C87 C88 1.359 . S
C87 C89 1.364 1_554 S
C88 C86 1.374 . S
C88 C87 1.359 . S
C88 H114 0.931 . S
C89 C85 1.389 . S
C89 C87 1.364 1_556 S
C89 H115 0.931 . S
C90 O104 1.256 . S
C90 O105 1.257 1_556 S
C91 O106 1.240 . S
C91 O107 1.240 . S
C92 Gd81 2.818 1_545 S
C92 C93 1.510 . S
C92 O108 1.249 . S
C92 O109 1.252 . S
C93 C92 1.510 . S
C93 C94 1.404 . S
C93 C95 1.352 . S
C94 C93 1.404 . S
C94 C98 1.389 . S
C94 H116 0.930 . S
C95 C93 1.352 . S
C95 C97 1.389 . S
C95 H117 0.931 . S
C96 C97 1.354 1_455 S
C96 C98 1.364 1_455 S
C97 C95 1.389 . S
C97 C96 1.354 1_655 S
C97 H118 0.921 1_655 S
C98 C94 1.389 . S
C98 C96 1.364 1_655 S
C98 H119 0.931 1_655 S
C99 O110 1.256 . S
C99 O111 1.257 . S
O100 Gd80 2.377 . S
O100 C82 1.240 . S
O101 Gd81 2.395 . S
O101 C82 1.240 . S
O102 Gd80 2.448 1_556 S
O102 C83 1.249 1_556 S
O103 Gd80 2.506 . S
O103 C83 1.252 . S
O104 Gd80 2.435 1_556 S
O104 C90 1.256 . S
O105 Gd80 2.717 . S
O105 Gd81 2.327 . S
O105 C90 1.257 1_554 S
O106 Gd81 2.377 . S
O106 C91 1.240 . S
O107 Gd80 2.395 . S
O107 C91 1.240 . S
O108 Gd81 2.448 1_545 S
O108 C92 1.249 . S
O109 Gd81 2.506 1_545 S
O109 C92 1.252 . S
O110 Gd81 2.435 . S
O110 C99 1.256 . S
O111 Gd80 2.327 . S
O111 Gd81 2.717 . S
O111 C99 1.257 . S
H112 C85 0.930 . S
H113 C86 0.931 . S
H114 C88 0.931 . S
H115 C89 0.931 . S
H116 C94 0.930 . S
H117 C95 0.931 . S
H118 C97 0.921 1_455 S
H119 C98 0.931 1_455 S
Gd120 C123 2.818 . S
Gd120 O140 2.377 . S
Gd120 O142 2.448 . S
Gd120 O143 2.506 . S
Gd120 O144 2.435 . S
Gd120 O145 2.717 . S
Gd120 O147 2.395 . S
Gd120 O151 2.327 . S
Gd121 C132 2.818 . S
Gd121 O141 2.395 . S
Gd121 O145 2.327 . S
Gd121 O146 2.377 . S
Gd121 O148 2.448 . S
Gd121 O149 2.506 . S
Gd121 O150 2.435 . S
Gd121 O151 2.717 . S
C122 O140 1.240 . S
C122 O141 1.240 . S
C123 Gd120 2.818 . S
C123 C124 1.510 . S
C123 O142 1.249 . S
C123 O143 1.252 . S
C124 C123 1.510 . S
C124 C125 1.404 . S
C124 C126 1.352 . S
C125 C124 1.404 . S
C125 C129 1.389 . S
C125 H152 0.930 . S
C126 C124 1.352 . S
C126 C128 1.374 . S
C126 H153 0.931 . S
C127 C128 1.359 . S
C127 C129 1.364 . S
C128 C126 1.374 . S
C128 C127 1.359 . S
C128 H154 0.931 . S
C129 C125 1.389 . S
C129 C127 1.364 . S
C129 H155 0.931 . S
C130 O144 1.256 . S
C130 O145 1.257 . S
C131 O146 1.240 . S
C131 O147 1.240 . S
C132 Gd121 2.818 . S
C132 C133 1.510 . S
C132 O148 1.249 . S
C132 O149 1.252 . S
C133 C132 1.510 . S
C133 C134 1.404 . S
C133 C135 1.352 . S
C134 C133 1.404 . S
C134 C138 1.389 . S
C134 H156 0.930 . S
C135 C133 1.352 . S
C135 C137 1.395 . S
C135 H157 0.931 . S
C136 C137 1.350 1_545 S
C136 C138 1.364 1_545 S
C137 C135 1.395 . S
C137 C136 1.350 1_565 S
C137 H158 0.919 1_565 S
C138 C134 1.389 . S
C138 C136 1.364 1_565 S
C138 H159 0.931 1_565 S
C139 O150 1.256 . S
C139 O151 1.257 . S
O140 Gd120 2.377 . S
O140 C122 1.240 . S
O141 Gd121 2.395 . S
O141 C122 1.240 . S
O142 Gd120 2.448 . S
O142 C123 1.249 . S
O143 Gd120 2.506 . S
O143 C123 1.252 . S
O144 Gd120 2.435 . S
O144 C130 1.256 . S
O145 Gd120 2.717 . S
O145 Gd121 2.327 . S
O145 C130 1.257 . S
O146 Gd121 2.377 . S
O146 C131 1.240 . S
O147 Gd120 2.395 . S
O147 C131 1.240 . S
O148 Gd121 2.448 . S
O148 C132 1.249 . S
O149 Gd121 2.506 . S
O149 C132 1.252 . S
O150 Gd121 2.435 . S
O150 C139 1.256 . S
O151 Gd120 2.327 . S
O151 Gd121 2.717 . S
O151 C139 1.257 . S
H152 C125 0.930 . S
H153 C126 0.931 . S
H154 C128 0.931 . S
H155 C129 0.931 . S
H156 C134 0.930 . S
H157 C135 0.931 . S
H158 C137 0.919 1_545 S
H159 C138 0.931 1_545 S
Gd160 C163 2.818 . S
Gd160 O180 2.377 . S
Gd160 O182 2.448 1_554 S
Gd160 O183 2.506 . S
Gd160 O184 2.435 1_554 S
Gd160 O185 2.717 . S
Gd160 O187 2.395 . S
Gd160 O191 2.327 . S
Gd161 C172 2.818 1_455 S
Gd161 O181 2.395 . S
Gd161 O185 2.327 . S
Gd161 O186 2.377 . S
Gd161 O188 2.448 1_455 S
Gd161 O189 2.506 1_455 S
Gd161 O190 2.435 . S
Gd161 O191 2.717 . S
C162 O180 1.240 . S
C162 O181 1.240 . S
C163 Gd160 2.818 . S
C163 C164 1.510 . S
C163 O182 1.249 1_554 S
C163 O183 1.252 . S
C164 C163 1.510 . S
C164 C165 1.404 1_554 S
C164 C166 1.352 . S
C165 C164 1.404 1_556 S
C165 C169 1.389 . S
C165 H192 0.930 . S
C166 C164 1.352 . S
C166 C168 1.374 . S
C166 H193 0.931 . S
C167 C168 1.359 . S
C167 C169 1.364 1_554 S
C168 C166 1.374 . S
C168 C167 1.359 . S
C168 H194 0.931 . S
C169 C165 1.389 . S
C169 C167 1.364 1_556 S
C169 H195 0.931 . S
C170 O184 1.256 . S
C170 O185 1.257 1_556 S
C171 O186 1.240 . S
C171 O187 1.240 . S
C172 Gd161 2.818 1_655 S
C172 C173 1.510 . S
C172 O188 1.249 . S
C172 O189 1.252 . S
C173 C172 1.510 . S
C173 C174 1.404 . S
C173 C175 1.352 . S
C174 C173 1.404 . S
C174 C178 1.389 . S
C174 H196 0.930 . S
C175 C173 1.352 . S
C175 C177 1.374 . S
C175 H197 0.931 . S
C176 C177 1.359 . S
C176 C178 1.364 . S
C177 C175 1.374 . S
C177 C176 1.359 . S
C177 H198 0.931 . S
C178 C174 1.389 . S
C178 C176 1.364 . S
C178 H199 0.931 . S
C179 O190 1.256 . S
C179 O191 1.257 . S
O180 Gd160 2.377 . S
O180 C162 1.240 . S
O181 Gd161 2.395 . S
O181 C162 1.240 . S
O182 Gd160 2.448 1_556 S
O182 C163 1.249 1_556 S
O183 Gd160 2.506 . S
O183 C163 1.252 . S
O184 Gd160 2.435 1_556 S
O184 C170 1.256 . S
O185 Gd160 2.717 . S
O185 Gd161 2.327 . S
O185 C170 1.257 1_554 S
O186 Gd161 2.377 . S
O186 C171 1.240 . S
O187 Gd160 2.395 . S
O187 C171 1.240 . S
O188 Gd161 2.448 1_655 S
O188 C172 1.249 . S
O189 Gd161 2.506 1_655 S
O189 C172 1.252 . S
O190 Gd161 2.435 . S
O190 C179 1.256 . S
O191 Gd160 2.327 . S
O191 Gd161 2.717 . S
O191 C179 1.257 . S
H192 C165 0.930 . S
H193 C166 0.931 . S
H194 C168 0.931 . S
H195 C169 0.931 . S
H196 C174 0.930 . S
H197 C175 0.931 . S
H198 C177 0.931 . S
H199 C178 0.931 . S
Gd200 C203 2.818 . S
Gd200 O220 2.377 . S
Gd200 O222 2.448 . S
Gd200 O223 2.506 . S
Gd200 O224 2.435 . S
Gd200 O225 2.717 . S
Gd200 O227 2.395 . S
Gd200 O231 2.327 . S
Gd201 C212 2.818 1_545 S
Gd201 O221 2.395 . S
Gd201 O225 2.327 . S
Gd201 O226 2.377 . S
Gd201 O228 2.448 1_545 S
Gd201 O229 2.506 1_545 S
Gd201 O230 2.435 . S
Gd201 O231 2.717 . S
C202 O220 1.240 . S
C202 O221 1.240 . S
C203 Gd200 2.818 . S
C203 C204 1.510 . S
C203 O222 1.249 . S
C203 O223 1.252 . S
C204 C203 1.510 . S
C204 C205 1.404 . S
C204 C206 1.352 . S
C205 C204 1.404 . S
C205 C209 1.389 . S
C205 H232 0.930 . S
C206 C204 1.352 . S
C206 C208 1.374 . S
C206 H233 0.931 . S
C207 C208 1.359 . S
C207 C209 1.364 . S
C208 C206 1.374 . S
C208 C207 1.359 . S
C208 H234 0.931 . S
C209 C205 1.389 . S
C209 C207 1.364 . S
C209 H235 0.931 . S
C210 O224 1.256 . S
C210 O225 1.257 . S
C211 O226 1.240 . S
C211 O227 1.240 . S
C212 Gd201 2.818 1_565 S
C212 C213 1.510 . S
C212 O228 1.249 . S
C212 O229 1.252 . S
C213 C212 1.510 . S
C213 C214 1.404 . S
C213 C215 1.352 . S
C214 C213 1.404 . S
C214 C218 1.389 . S
C214 H236 0.930 . S
C215 C213 1.352 . S
C215 C217 1.389 . S
C215 H237 0.931 . S
C216 C217 1.354 1_655 S
C216 C218 1.364 1_655 S
C217 C215 1.389 . S
C217 C216 1.354 1_455 S
C217 H238 0.921 1_455 S
C218 C214 1.389 . S
C218 C216 1.364 1_455 S
C218 H239 0.931 1_455 S
C219 O230 1.256 . S
C219 O231 1.257 . S
O220 Gd200 2.377 . S
O220 C202 1.240 . S
O221 Gd201 2.395 . S
O221 C202 1.240 . S
O222 Gd200 2.448 . S
O222 C203 1.249 . S
O223 Gd200 2.506 . S
O223 C203 1.252 . S
O224 Gd200 2.435 . S
O224 C210 1.256 . S
O225 Gd200 2.717 . S
O225 Gd201 2.327 . S
O225 C210 1.257 . S
O226 Gd201 2.377 . S
O226 C211 1.240 . S
O227 Gd200 2.395 . S
O227 C211 1.240 . S
O228 Gd201 2.448 1_565 S
O228 C212 1.249 . S
O229 Gd201 2.506 1_565 S
O229 C212 1.252 . S
O230 Gd201 2.435 . S
O230 C219 1.256 . S
O231 Gd200 2.327 . S
O231 Gd201 2.717 . S
O231 C219 1.257 . S
H232 C205 0.930 . S
H233 C206 0.931 . S
H234 C208 0.931 . S
H235 C209 0.931 . S
H236 C214 0.930 . S
H237 C215 0.931 . S
H238 C217 0.921 1_655 S
H239 C218 0.931 1_655 S
Gd240 C243 2.818 . S
Gd240 O260 2.377 . S
Gd240 O262 2.448 . S
Gd240 O263 2.506 . S
Gd240 O264 2.435 . S
Gd240 O265 2.717 . S
Gd240 O267 2.395 . S
Gd240 O271 2.327 . S
Gd241 C252 2.818 . S
Gd241 O261 2.395 . S
Gd241 O265 2.327 . S
Gd241 O266 2.377 . S
Gd241 O268 2.448 . S
Gd241 O269 2.506 . S
Gd241 O270 2.435 . S
Gd241 O271 2.717 . S
C242 O260 1.240 . S
C242 O261 1.240 . S
C243 Gd240 2.818 . S
C243 C244 1.510 . S
C243 O262 1.249 . S
C243 O263 1.252 . S
C244 C243 1.510 . S
C244 C245 1.404 . S
C244 C246 1.352 . S
C245 C244 1.404 . S
C245 C249 1.389 . S
C245 H272 0.930 . S
C246 C244 1.352 . S
C246 C248 1.374 . S
C246 H273 0.931 . S
C247 C248 1.359 . S
C247 C249 1.364 . S
C248 C246 1.374 . S
C248 C247 1.359 . S
C248 H274 0.931 . S
C249 C245 1.389 . S
C249 C247 1.364 . S
C249 H275 0.931 . S
C250 O264 1.256 . S
C250 O265 1.257 . S
C251 O266 1.240 . S
C251 O267 1.240 . S
C252 Gd241 2.818 . S
C252 C253 1.510 . S
C252 O268 1.249 . S
C252 O269 1.252 . S
C253 C252 1.510 . S
C253 C254 1.404 . S
C253 C255 1.352 . S
C254 C253 1.404 . S
C254 C258 1.389 . S
C254 H276 0.930 . S
C255 C253 1.352 . S
C255 C257 1.395 . S
C255 H277 0.931 . S
C256 C257 1.350 1_455 S
C256 C258 1.364 1_455 S
C257 C255 1.395 . S
C257 C256 1.350 1_655 S
C257 H278 0.919 1_655 S
C258 C254 1.389 . S
C258 C256 1.364 1_655 S
C258 H279 0.931 1_655 S
C259 O270 1.256 . S
C259 O271 1.257 . S
O260 Gd240 2.377 . S
O260 C242 1.240 . S
O261 Gd241 2.395 . S
O261 C242 1.240 . S
O262 Gd240 2.448 . S
O262 C243 1.249 . S
O263 Gd240 2.506 . S
O263 C243 1.252 . S
O264 Gd240 2.435 . S
O264 C250 1.256 . S
O265 Gd240 2.717 . S
O265 Gd241 2.327 . S
O265 C250 1.257 . S
O266 Gd241 2.377 . S
O266 C251 1.240 . S
O267 Gd240 2.395 . S
O267 C251 1.240 . S
O268 Gd241 2.448 . S
O268 C252 1.249 . S
O269 Gd241 2.506 . S
O269 C252 1.252 . S
O270 Gd241 2.435 . S
O270 C259 1.256 . S
O271 Gd240 2.327 . S
O271 Gd241 2.717 . S
O271 C259 1.257 . S
H272 C245 0.930 . S
H273 C246 0.931 . S
H274 C248 0.931 . S
H275 C249 0.931 . S
H276 C254 0.930 . S
H277 C255 0.931 . S
H278 C257 0.919 1_455 S
H279 C258 0.931 1_455 S
Gd280 C283 2.818 . S
Gd280 O300 2.377 . S
Gd280 O302 2.448 1_556 S
Gd280 O303 2.506 . S
Gd280 O304 2.435 1_556 S
Gd280 O305 2.717 . S
Gd280 O307 2.395 . S
Gd280 O311 2.327 . S
Gd281 C292 2.818 1_655 S
Gd281 O301 2.395 . S
Gd281 O305 2.327 . S
Gd281 O306 2.377 . S
Gd281 O308 2.448 1_655 S
Gd281 O309 2.506 1_655 S
Gd281 O310 2.435 . S
Gd281 O311 2.717 . S
C282 O300 1.240 . S
C282 O301 1.240 . S
C283 Gd280 2.818 . S
C283 C284 1.510 . S
C283 O302 1.249 1_556 S
C283 O303 1.252 . S
C284 C283 1.510 . S
C284 C285 1.404 1_556 S
C284 C286 1.352 . S
C285 C284 1.404 1_554 S
C285 C289 1.389 . S
C285 H312 0.930 . S
C286 C284 1.352 . S
C286 C288 1.374 . S
C286 H313 0.931 . S
C287 C288 1.359 . S
C287 C289 1.364 1_556 S
C288 C286 1.374 . S
C288 C287 1.359 . S
C288 H314 0.931 . S
C289 C285 1.389 . S
C289 C287 1.364 1_554 S
C289 H315 0.931 . S
C290 O304 1.256 . S
C290 O305 1.257 1_554 S
C291 O306 1.240 . S
C291 O307 1.240 . S
C292 Gd281 2.818 1_455 S
C292 C293 1.510 . S
C292 O308 1.249 . S
C292 O309 1.252 . S
C293 C292 1.510 . S
C293 C294 1.404 . S
C293 C295 1.352 . S
C294 C293 1.404 . S
C294 C298 1.389 . S
C294 H316 0.930 . S
C295 C293 1.352 . S
C295 C297 1.389 . S
C295 H317 0.931 . S
C296 C297 1.354 1_545 S
C296 C298 1.364 1_545 S
C297 C295 1.389 . S
C297 C296 1.354 1_565 S
C297 H318 0.921 1_565 S
C298 C294 1.389 . S
C298 C296 1.364 1_565 S
C298 H319 0.931 1_565 S
C299 O310 1.256 . S
C299 O311 1.257 . S
O300 Gd280 2.377 . S
O300 C282 1.240 . S
O301 Gd281 2.395 . S
O301 C282 1.240 . S
O302 Gd280 2.448 1_554 S
O302 C283 1.249 1_554 S
O303 Gd280 2.506 . S
O303 C283 1.252 . S
O304 Gd280 2.435 1_554 S
O304 C290 1.256 . S
O305 Gd280 2.717 . S
O305 Gd281 2.327 . S
O305 C290 1.257 1_556 S
O306 Gd281 2.377 . S
O306 C291 1.240 . S
O307 Gd280 2.395 . S
O307 C291 1.240 . S
O308 Gd281 2.448 1_455 S
O308 C292 1.249 . S
O309 Gd281 2.506 1_455 S
O309 C292 1.252 . S
O310 Gd281 2.435 . S
O310 C299 1.256 . S
O311 Gd280 2.327 . S
O311 Gd281 2.717 . S
O311 C299 1.257 . S
H312 C285 0.930 . S
H313 C286 0.931 . S
H314 C288 0.931 . S
H315 C289 0.931 . S
H316 C294 0.930 . S
H317 C295 0.931 . S
H318 C297 0.921 1_545 S
H319 C298 0.931 1_545 S
Gd320 C323 2.818 . S
Gd320 O340 2.377 . S
Gd320 O342 2.448 . S
Gd320 O343 2.506 . S
Gd320 O344 2.435 . S
Gd320 O345 2.717 . S
Gd320 O347 2.395 . S
Gd320 O351 2.327 . S
Gd321 C332 2.818 1_565 S
Gd321 O341 2.395 . S
Gd321 O345 2.327 . S
Gd321 O346 2.377 . S
Gd321 O348 2.448 1_565 S
Gd321 O349 2.506 1_565 S
Gd321 O350 2.435 . S
Gd321 O351 2.717 . S
C322 O340 1.240 . S
C322 O341 1.240 . S
C323 Gd320 2.818 . S
C323 C324 1.510 . S
C323 O342 1.249 . S
C323 O343 1.252 . S
C324 C323 1.510 . S
C324 C325 1.404 . S
C324 C326 1.352 . S
C325 C324 1.404 . S
C325 C329 1.389 . S
C325 H352 0.930 . S
C326 C324 1.352 . S
C326 C328 1.374 . S
C326 H353 0.931 . S
C327 C328 1.359 . S
C327 C329 1.364 . S
C328 C326 1.374 . S
C328 C327 1.359 . S
C328 H354 0.931 . S
C329 C325 1.389 . S
C329 C327 1.364 . S
C329 H355 0.931 . S
C330 O344 1.256 . S
C330 O345 1.257 . S
C331 O346 1.240 . S
C331 O347 1.240 . S
C332 Gd321 2.818 1_545 S
C332 C333 1.510 . S
C332 O348 1.249 . S
C332 O349 1.252 . S
C333 C332 1.510 . S
C333 C334 1.404 . S
C333 C335 1.352 . S
C334 C333 1.404 . S
C334 C338 1.389 . S
C334 H356 0.930 . S
C335 C333 1.352 . S
C335 C337 1.374 . S
C335 H357 0.931 . S
C336 C337 1.359 . S
C336 C338 1.364 . S
C337 C335 1.374 . S
C337 C336 1.359 . S
C337 H358 0.931 . S
C338 C334 1.389 . S
C338 C336 1.364 . S
C338 H359 0.931 . S
C339 O350 1.256 . S
C339 O351 1.257 . S
O340 Gd320 2.377 . S
O340 C322 1.240 . S
O341 Gd321 2.395 . S
O341 C322 1.240 . S
O342 Gd320 2.448 . S
O342 C323 1.249 . S
O343 Gd320 2.506 . S
O343 C323 1.252 . S
O344 Gd320 2.435 . S
O344 C330 1.256 . S
O345 Gd320 2.717 . S
O345 Gd321 2.327 . S
O345 C330 1.257 . S
O346 Gd321 2.377 . S
O346 C331 1.240 . S
O347 Gd320 2.395 . S
O347 C331 1.240 . S
O348 Gd321 2.448 1_545 S
O348 C332 1.249 . S
O349 Gd321 2.506 1_545 S
O349 C332 1.252 . S
O350 Gd321 2.435 . S
O350 C339 1.256 . S
O351 Gd320 2.327 . S
O351 Gd321 2.717 . S
O351 C339 1.257 . S
H352 C325 0.930 . S
H353 C326 0.931 . S
H354 C328 0.931 . S
H355 C329 0.931 . S
H356 C334 0.930 . S
H357 C335 0.931 . S
H358 C337 0.931 . S
H359 C338 0.931 . S
Gd360 C363 2.818 . S
Gd360 O380 2.377 . S
Gd360 O382 2.448 1_556 S
Gd360 O383 2.506 . S
Gd360 O384 2.435 1_556 S
Gd360 O385 2.717 . S
Gd360 O387 2.395 . S
Gd360 O391 2.327 . S
Gd361 C372 2.818 . S
Gd361 O381 2.395 . S
Gd361 O385 2.327 . S
Gd361 O386 2.377 . S
Gd361 O388 2.448 . S
Gd361 O389 2.506 . S
Gd361 O390 2.435 . S
Gd361 O391 2.717 . S
C362 O380 1.240 . S
C362 O381 1.240 . S
C363 Gd360 2.818 . S
C363 C364 1.510 . S
C363 O382 1.249 1_556 S
C363 O383 1.252 . S
C364 C363 1.510 . S
C364 C365 1.404 1_556 S
C364 C366 1.352 . S
C365 C364 1.404 1_554 S
C365 C369 1.389 . S
C365 H392 0.930 . S
C366 C364 1.352 . S
C366 C368 1.374 . S
C366 H393 0.931 . S
C367 C368 1.359 . S
C367 C369 1.364 1_556 S
C368 C366 1.374 . S
C368 C367 1.359 . S
C368 H394 0.931 . S
C369 C365 1.389 . S
C369 C367 1.364 1_554 S
C369 H395 0.931 . S
C370 O384 1.256 . S
C370 O385 1.257 1_554 S
C371 O386 1.240 . S
C371 O387 1.240 . S
C372 Gd361 2.818 . S
C372 C373 1.510 . S
C372 O388 1.249 . S
C372 O389 1.252 . S
C373 C372 1.510 . S
C373 C374 1.404 . S
C373 C375 1.352 . S
C374 C373 1.404 . S
C374 C378 1.389 . S
C374 H396 0.930 . S
C375 C373 1.352 . S
C375 C377 1.395 . S
C375 H397 0.931 . S
C376 C377 1.350 1_655 S
C376 C378 1.364 1_655 S
C377 C375 1.395 . S
C377 C376 1.350 1_455 S
C377 H398 0.919 1_455 S
C378 C374 1.389 . S
C378 C376 1.364 1_455 S
C378 H399 0.931 1_455 S
C379 O390 1.256 . S
C379 O391 1.257 . S
O380 Gd360 2.377 . S
O380 C362 1.240 . S
O381 Gd361 2.395 . S
O381 C362 1.240 . S
O382 Gd360 2.448 1_554 S
O382 C363 1.249 1_554 S
O383 Gd360 2.506 . S
O383 C363 1.252 . S
O384 Gd360 2.435 1_554 S
O384 C370 1.256 . S
O385 Gd360 2.717 . S
O385 Gd361 2.327 . S
O385 C370 1.257 1_556 S
O386 Gd361 2.377 . S
O386 C371 1.240 . S
O387 Gd360 2.395 . S
O387 C371 1.240 . S
O388 Gd361 2.448 . S
O388 C372 1.249 . S
O389 Gd361 2.506 . S
O389 C372 1.252 . S
O390 Gd361 2.435 . S
O390 C379 1.256 . S
O391 Gd360 2.327 . S
O391 Gd361 2.717 . S
O391 C379 1.257 . S
H392 C365 0.930 . S
H393 C366 0.931 . S
H394 C368 0.931 . S
H395 C369 0.931 . S
H396 C374 0.930 . S
H397 C375 0.931 . S
H398 C377 0.919 1_655 S
H399 C378 0.931 1_655 S
Gd400 C403 2.818 . S
Gd400 O420 2.377 . S
Gd400 O422 2.448 . S
Gd400 O423 2.506 . S
Gd400 O424 2.435 . S
Gd400 O425 2.717 . S
Gd400 O427 2.395 . S
Gd400 O431 2.327 . S
Gd401 C412 2.818 1_455 S
Gd401 O421 2.395 . S
Gd401 O425 2.327 . S
Gd401 O426 2.377 . S
Gd401 O428 2.448 1_455 S
Gd401 O429 2.506 1_455 S
Gd401 O430 2.435 . S
Gd401 O431 2.717 . S
C402 O420 1.240 . S
C402 O421 1.240 . S
C403 Gd400 2.818 . S
C403 C404 1.510 . S
C403 O422 1.249 . S
C403 O423 1.252 . S
C404 C403 1.510 . S
C404 C405 1.404 . S
C404 C406 1.352 . S
C405 C404 1.404 . S
C405 C409 1.389 . S
C405 H432 0.930 . S
C406 C404 1.352 . S
C406 C408 1.374 . S
C406 H433 0.931 . S
C407 C408 1.359 . S
C407 C409 1.364 . S
C408 C406 1.374 . S
C408 C407 1.359 . S
C408 H434 0.931 . S
C409 C405 1.389 . S
C409 C407 1.364 . S
C409 H435 0.931 . S
C410 O424 1.256 . S
C410 O425 1.257 . S
C411 O426 1.240 . S
C411 O427 1.240 . S
C412 Gd401 2.818 1_655 S
C412 C413 1.510 . S
C412 O428 1.249 . S
C412 O429 1.252 . S
C413 C412 1.510 . S
C413 C414 1.404 . S
C413 C415 1.352 . S
C414 C413 1.404 . S
C414 C418 1.389 . S
C414 H436 0.930 . S
C415 C413 1.352 . S
C415 C417 1.389 . S
C415 H437 0.931 . S
C416 C417 1.354 1_565 S
C416 C418 1.364 1_565 S
C417 C415 1.389 . S
C417 C416 1.354 1_545 S
C417 H438 0.921 1_545 S
C418 C414 1.389 . S
C418 C416 1.364 1_545 S
C418 H439 0.931 1_545 S
C419 O430 1.256 . S
C419 O431 1.257 . S
O420 Gd400 2.377 . S
O420 C402 1.240 . S
O421 Gd401 2.395 . S
O421 C402 1.240 . S
O422 Gd400 2.448 . S
O422 C403 1.249 . S
O423 Gd400 2.506 . S
O423 C403 1.252 . S
O424 Gd400 2.435 . S
O424 C410 1.256 . S
O425 Gd400 2.717 . S
O425 Gd401 2.327 . S
O425 C410 1.257 . S
O426 Gd401 2.377 . S
O426 C411 1.240 . S
O427 Gd400 2.395 . S
O427 C411 1.240 . S
O428 Gd401 2.448 1_655 S
O428 C412 1.249 . S
O429 Gd401 2.506 1_655 S
O429 C412 1.252 . S
O430 Gd401 2.435 . S
O430 C419 1.256 . S
O431 Gd400 2.327 . S
O431 Gd401 2.717 . S
O431 C419 1.257 . S
H432 C405 0.930 . S
H433 C406 0.931 . S
H434 C408 0.931 . S
H435 C409 0.931 . S
H436 C414 0.930 . S
H437 C415 0.931 . S
H438 C417 0.921 1_565 S
H439 C418 0.931 1_565 S
Gd440 C443 2.818 . S
Gd440 O460 2.377 . S
Gd440 O462 2.448 1_556 S
Gd440 O463 2.506 . S
Gd440 O464 2.435 1_556 S
Gd440 O465 2.717 . S
Gd440 O467 2.395 . S
Gd440 O471 2.327 . S
Gd441 C452 2.818 1_545 S
Gd441 O461 2.395 . S
Gd441 O465 2.327 . S
Gd441 O466 2.377 . S
Gd441 O468 2.448 1_545 S
Gd441 O469 2.506 1_545 S
Gd441 O470 2.435 . S
Gd441 O471 2.717 . S
C442 O460 1.240 . S
C442 O461 1.240 . S
C443 Gd440 2.818 . S
C443 C444 1.510 . S
C443 O462 1.249 1_556 S
C443 O463 1.252 . S
C444 C443 1.510 . S
C444 C445 1.404 1_556 S
C444 C446 1.352 . S
C445 C444 1.404 1_554 S
C445 C449 1.389 . S
C445 H472 0.930 . S
C446 C444 1.352 . S
C446 C448 1.374 . S
C446 H473 0.931 . S
C447 C448 1.359 . S
C447 C449 1.364 1_556 S
C448 C446 1.374 . S
C448 C447 1.359 . S
C448 H474 0.931 . S
C449 C445 1.389 . S
C449 C447 1.364 1_554 S
C449 H475 0.931 . S
C450 O464 1.256 . S
C450 O465 1.257 1_554 S
C451 O466 1.240 . S
C451 O467 1.240 . S
C452 Gd441 2.818 1_565 S
C452 C453 1.510 . S
C452 O468 1.249 . S
C452 O469 1.252 . S
C453 C452 1.510 . S
C453 C454 1.404 . S
C453 C455 1.352 . S
C454 C453 1.404 . S
C454 C458 1.389 . S
C454 H476 0.930 . S
C455 C453 1.352 . S
C455 C457 1.374 . S
C455 H477 0.931 . S
C456 C457 1.359 . S
C456 C458 1.364 . S
C457 C455 1.374 . S
C457 C456 1.359 . S
C457 H478 0.931 . S
C458 C454 1.389 . S
C458 C456 1.364 . S
C458 H479 0.931 . S
C459 O470 1.256 . S
C459 O471 1.257 . S
O460 Gd440 2.377 . S
O460 C442 1.240 . S
O461 Gd441 2.395 . S
O461 C442 1.240 . S
O462 Gd440 2.448 1_554 S
O462 C443 1.249 1_554 S
O463 Gd440 2.506 . S
O463 C443 1.252 . S
O464 Gd440 2.435 1_554 S
O464 C450 1.256 . S
O465 Gd440 2.717 . S
O465 Gd441 2.327 . S
O465 C450 1.257 1_556 S
O466 Gd441 2.377 . S
O466 C451 1.240 . S
O467 Gd440 2.395 . S
O467 C451 1.240 . S
O468 Gd441 2.448 1_565 S
O468 C452 1.249 . S
O469 Gd441 2.506 1_565 S
O469 C452 1.252 . S
O470 Gd441 2.435 . S
O470 C459 1.256 . S
O471 Gd440 2.327 . S
O471 Gd441 2.717 . S
O471 C459 1.257 . S
H472 C445 0.930 . S
H473 C446 0.931 . S
H474 C448 0.931 . S
H475 C449 0.931 . S
H476 C454 0.930 . S
H477 C455 0.931 . S
H478 C457 0.931 . S
H479 C458 0.931 . S
C171 C16 2.258 . S
C211 C56 2.258 . S
C96 C11 2.258 . S
C136 C51 2.258 . S
C176 C91 2.258 . S
C131 C216 2.258 . S
C331 C256 2.258 . S
C296 C371 2.258 . S
C411 C336 2.258 . S
C376 C451 2.258 . S
C416 C251 2.258 . S
C291 C456 2.258 . S
C162 C7 2.993 . S
C47 C202 2.993 . S
C87 C2 2.993 . S
C127 C42 2.993 . S
C82 C167 2.993 . S
C122 C207 2.993 . S
C322 C247 2.993 . S
C287 C362 2.993 . S
C327 C402 2.993 . S
C442 C367 2.993 . S
C407 C242 2.993 . S
C282 C447 2.993 . S
C419 C19 1.590 . S
C59 C459 1.590 . S
C99 C259 1.590 . S
C139 C299 1.590 . S
C179 C339 1.590 . S
C379 C219 1.590 . S
C370 C10 4.796 1_554 S
C410 C50 4.796 1_455 S
C90 C450 4.796 1_566 S
C130 C250 4.796 . S
C290 C170 4.796 1_654 S
C330 C210 4.796 1_565 S
