# Generated by pormake.
# Topology pcu-i, (5)-cn, num edge types: 1
# Building blocks:
#     Node 0, Type 0, BuildingBlock: XOMCOT_clean_sbu_0, # of connection points: 5
#     Node 1, Type 0, BuildingBlock: XOMCOT_clean_sbu_0, # of connection points: 5
#     Node 2, Type 0, BuildingBlock: XOMCOT_clean_sbu_0, # of connection points: 5
#     Node 3, Type 0, BuildingBlock: XOMCOT_clean_sbu_0, # of connection points: 5
#     Node 4, Type 0, BuildingBlock: XOMCOT_clean_sbu_0, # of connection points: 5
#     Node 5, Type 0, BuildingBlock: XOMCOT_clean_sbu_0, # of connection points: 5
#     Node 6, Type 0, BuildingBlock: XOMCOT_clean_sbu_0, # of connection points: 5
#     Node 7, Type 0, BuildingBlock: XOMCOT_clean_sbu_0, # of connection points: 5
#     Node 8, Type 0, BuildingBlock: XOMCOT_clean_sbu_0, # of connection points: 5
#     Node 9, Type 0, BuildingBlock: XOMCOT_clean_sbu_0, # of connection points: 5
#     Node 10, Type 0, BuildingBlock: XOMCOT_clean_sbu_0, # of connection points: 5
#     Node 11, Type 0, BuildingBlock: XOMCOT_clean_sbu_0, # of connection points: 5
#     Node 12, Type 0, BuildingBlock: XOMCOT_clean_sbu_0, # of connection points: 5
#     Node 13, Type 0, BuildingBlock: XOMCOT_clean_sbu_0, # of connection points: 5
#     Node 14, Type 0, BuildingBlock: XOMCOT_clean_sbu_0, # of connection points: 5
#     Node 15, Type 0, BuildingBlock: XOMCOT_clean_sbu_0, # of connection points: 5
#     Node 16, Type 0, BuildingBlock: XOMCOT_clean_sbu_0, # of connection points: 5
#     Node 17, Type 0, BuildingBlock: XOMCOT_clean_sbu_0, # of connection points: 5
#     Node 18, Type 0, BuildingBlock: XOMCOT_clean_sbu_0, # of connection points: 5
#     Node 19, Type 0, BuildingBlock: XOMCOT_clean_sbu_0, # of connection points: 5
#     Node 20, Type 0, BuildingBlock: XOMCOT_clean_sbu_0, # of connection points: 5
#     Node 21, Type 0, BuildingBlock: XOMCOT_clean_sbu_0, # of connection points: 5
#     Node 22, Type 0, BuildingBlock: XOMCOT_clean_sbu_0, # of connection points: 5
#     Node 23, Type 0, BuildingBlock: XOMCOT_clean_sbu_0, # of connection points: 5
#     Edge 24, Type (0, 0), BuildingBlock: OJICUG_clean_linker_0, # of connection points: 2
#     Edge 25, Type (0, 0), BuildingBlock: OJICUG_clean_linker_0, # of connection points: 2
#     Edge 26, Type (0, 0), BuildingBlock: OJICUG_clean_linker_0, # of connection points: 2
#     Edge 27, Type (0, 0), BuildingBlock: OJICUG_clean_linker_0, # of connection points: 2
#     Edge 28, Type (0, 0), BuildingBlock: OJICUG_clean_linker_0, # of connection points: 2
#     Edge 29, Type (0, 0), BuildingBlock: OJICUG_clean_linker_0, # of connection points: 2
#     Edge 30, Type (0, 0), BuildingBlock: OJICUG_clean_linker_0, # of connection points: 2
#     Edge 31, Type (0, 0), BuildingBlock: OJICUG_clean_linker_0, # of connection points: 2
#     Edge 32, Type (0, 0), BuildingBlock: OJICUG_clean_linker_0, # of connection points: 2
#     Edge 33, Type (0, 0), BuildingBlock: OJICUG_clean_linker_0, # of connection points: 2
#     Edge 34, Type (0, 0), BuildingBlock: OJICUG_clean_linker_0, # of connection points: 2
#     Edge 35, Type (0, 0), BuildingBlock: OJICUG_clean_linker_0, # of connection points: 2
#     Edge 36, Type (0, 0), BuildingBlock: OJICUG_clean_linker_0, # of connection points: 2
#     Edge 37, Type (0, 0), BuildingBlock: OJICUG_clean_linker_0, # of connection points: 2
#     Edge 38, Type (0, 0), BuildingBlock: OJICUG_clean_linker_0, # of connection points: 2
#     Edge 39, Type (0, 0), BuildingBlock: OJICUG_clean_linker_0, # of connection points: 2
#     Edge 40, Type (0, 0), BuildingBlock: OJICUG_clean_linker_0, # of connection points: 2
#     Edge 41, Type (0, 0), BuildingBlock: OJICUG_clean_linker_0, # of connection points: 2
#     Edge 42, Type (0, 0), BuildingBlock: OJICUG_clean_linker_0, # of connection points: 2
#     Edge 43, Type (0, 0), BuildingBlock: OJICUG_clean_linker_0, # of connection points: 2
#     Edge 44, Type (0, 0), BuildingBlock: OJICUG_clean_linker_0, # of connection points: 2
#     Edge 45, Type (0, 0), BuildingBlock: OJICUG_clean_linker_0, # of connection points: 2
#     Edge 46, Type (0, 0), BuildingBlock: OJICUG_clean_linker_0, # of connection points: 2
#     Edge 47, Type (0, 0), BuildingBlock: OJICUG_clean_linker_0, # of connection points: 2
#     Edge 48, Type (0, 0), BuildingBlock: OJICUG_clean_linker_0, # of connection points: 2
#     Edge 49, Type (0, 0), BuildingBlock: OJICUG_clean_linker_0, # of connection points: 2
#     Edge 50, Type (0, 0), BuildingBlock: OJICUG_clean_linker_0, # of connection points: 2
#     Edge 51, Type (0, 0), BuildingBlock: OJICUG_clean_linker_0, # of connection points: 2
#     Edge 52, Type (0, 0), BuildingBlock: OJICUG_clean_linker_0, # of connection points: 2
#     Edge 53, Type (0, 0), BuildingBlock: OJICUG_clean_linker_0, # of connection points: 2
#     Edge 54, Type (0, 0), BuildingBlock: OJICUG_clean_linker_0, # of connection points: 2
#     Edge 55, Type (0, 0), BuildingBlock: OJICUG_clean_linker_0, # of connection points: 2
#     Edge 56, Type (0, 0), BuildingBlock: OJICUG_clean_linker_0, # of connection points: 2
#     Edge 57, Type (0, 0), BuildingBlock: OJICUG_clean_linker_0, # of connection points: 2
#     Edge 58, Type (0, 0), BuildingBlock: OJICUG_clean_linker_0, # of connection points: 2
#     Edge 59, Type (0, 0), BuildingBlock: OJICUG_clean_linker_0, # of connection points: 2
#     Edge 60, Type (0, 0), BuildingBlock: OJICUG_clean_linker_0, # of connection points: 2
#     Edge 61, Type (0, 0), BuildingBlock: OJICUG_clean_linker_0, # of connection points: 2
#     Edge 62, Type (0, 0), BuildingBlock: OJICUG_clean_linker_0, # of connection points: 2
#     Edge 63, Type (0, 0), BuildingBlock: OJICUG_clean_linker_0, # of connection points: 2
#     Edge 64, Type (0, 0), BuildingBlock: OJICUG_clean_linker_0, # of connection points: 2
#     Edge 65, Type (0, 0), BuildingBlock: OJICUG_clean_linker_0, # of connection points: 2
#     Edge 66, Type (0, 0), BuildingBlock: OJICUG_clean_linker_0, # of connection points: 2
#     Edge 67, Type (0, 0), BuildingBlock: OJICUG_clean_linker_0, # of connection points: 2
#     Edge 68, Type (0, 0), BuildingBlock: OJICUG_clean_linker_0, # of connection points: 2
#     Edge 69, Type (0, 0), BuildingBlock: OJICUG_clean_linker_0, # of connection points: 2
#     Edge 70, Type (0, 0), BuildingBlock: OJICUG_clean_linker_0, # of connection points: 2
#     Edge 71, Type (0, 0), BuildingBlock: OJICUG_clean_linker_0, # of connection points: 2
#     Edge 72, Type (0, 0), BuildingBlock: OJICUG_clean_linker_0, # of connection points: 2
#     Edge 73, Type (0, 0), BuildingBlock: OJICUG_clean_linker_0, # of connection points: 2
#     Edge 74, Type (0, 0), BuildingBlock: OJICUG_clean_linker_0, # of connection points: 2
#     Edge 75, Type (0, 0), BuildingBlock: OJICUG_clean_linker_0, # of connection points: 2
#     Edge 76, Type (0, 0), BuildingBlock: OJICUG_clean_linker_0, # of connection points: 2
#     Edge 77, Type (0, 0), BuildingBlock: OJICUG_clean_linker_0, # of connection points: 2
#     Edge 78, Type (0, 0), BuildingBlock: OJICUG_clean_linker_0, # of connection points: 2
#     Edge 79, Type (0, 0), BuildingBlock: OJICUG_clean_linker_0, # of connection points: 2
#     Edge 80, Type (0, 0), BuildingBlock: OJICUG_clean_linker_0, # of connection points: 2
#     Edge 81, Type (0, 0), BuildingBlock: OJICUG_clean_linker_0, # of connection points: 2
#     Edge 82, Type (0, 0), BuildingBlock: OJICUG_clean_linker_0, # of connection points: 2
#     Edge 83, Type (0, 0), BuildingBlock: OJICUG_clean_linker_0, # of connection points: 2
# Relax obj value: 0.311
# Max RMSD: 0.282
# Mean RMSD: 0.282
data_MOF--net-pcu-i--node1-XOMCOT_clean_sbu_0--edge1-OJICUG_clean_linker_0
_symmetry_space_group_name_H-M    P1
_symmetry_Int_Tables_number       1
_symmetry_cell_setting            triclinic
loop_
_symmetry_equiv_pos_as_xyz
'x, y, z'
_cell_length_a     42.746386
_cell_length_b     42.833973
_cell_length_c     42.816809
_cell_angle_alpha  90.061409
_cell_angle_beta   90.11048
_cell_angle_gamma 89.924911
loop_
_atom_site_label
_atom_site_type_symbol
_atom_site_fract_x
_atom_site_fract_y
_atom_site_fract_z
_atom_type_partial_charge
Co0 Co 0.13068 0.15337 0.34163 0.0
C1 C 0.06307 0.14559 0.32637 0.0
C2 C 0.07072 0.18492 0.35638 0.0
C3 C 0.03982 0.18479 0.34744 0.0
N4 N 0.08555 0.16041 0.3431 0.0
N5 N 0.03516 0.16015 0.32852 0.0
H6 H 0.06693 0.12519 0.31201 0.0
H7 H 0.0814 0.20196 0.37154 0.0
C8 C 0.13273 0.2232 0.3266 0.0
O9 O 0.12781 0.23107 0.3558 0.0
N10 N 0.17533 0.14682 0.33785 0.0
C11 C 0.19376 0.1262 0.35302 0.0
C12 C 0.22231 0.12473 0.3379 0.0
C13 C 0.19277 0.15757 0.31402 0.0
N14 N 0.22148 0.14465 0.31354 0.0
C15 C 0.11831 0.15773 0.40619 0.0
C16 C 0.17267 0.18833 0.42317 0.0
C17 C 0.15509 0.17311 0.44621 0.0
C18 C 0.12706 0.15877 0.43752 0.0
C19 C 0.16305 0.18669 0.39175 0.0
N20 N 0.13654 0.17072 0.38348 0.0
H21 H 0.09822 0.14378 0.39991 0.0
H22 H 0.17816 0.19619 0.37392 0.0
H23 H 0.18644 0.11204 0.37258 0.0
H24 H 0.18395 0.17285 0.29592 0.0
O25 O 0.1254 0.11112 0.35547 0.0
O26 O 0.12592 0.12563 0.30574 0.0
O27 O 0.13498 0.19447 0.31866 0.0
C28 C 0.12446 0.10316 0.32631 0.0
H29 H 0.022 0.2013 0.35457 0.0
H30 H 0.24176 0.10962 0.34376 0.0
H31 H 0.19467 0.1994 0.42906 0.0
H32 H 0.11302 0.14657 0.45465 0.0
Co33 Co 0.85934 0.13677 0.32356 0.0
C34 C 0.8683 0.06677 0.32842 0.0
C35 C 0.83788 0.08091 0.29138 0.0
C36 C 0.84249 0.04943 0.28891 0.0
N37 N 0.85303 0.09205 0.3168 0.0
N38 N 0.86171 0.04045 0.31209 0.0
H39 H 0.88576 0.06768 0.34665 0.0
H40 H 0.82592 0.0949 0.27412 0.0
C41 C 0.79126 0.13302 0.30909 0.0
O42 O 0.78887 0.11366 0.33276 0.0
N43 N 0.86587 0.18141 0.32665 0.0
C44 C 0.88749 0.19722 0.34334 0.0
C45 C 0.88947 0.22731 0.33168 0.0
C46 C 0.85495 0.202 0.30547 0.0
N47 N 0.86877 0.23007 0.30805 0.0
C48 C 0.85258 0.11795 0.38735 0.0
C49 C 0.81541 0.16762 0.40539 0.0
C50 C 0.82925 0.14897 0.42854 0.0
C51 C 0.84708 0.12321 0.41901 0.0
C52 C 0.82098 0.16108 0.37373 0.0
N53 N 0.84018 0.13698 0.365 0.0
H54 H 0.86924 0.10027 0.3813 0.0
H55 H 0.81171 0.17686 0.35632 0.0
H56 H 0.90233 0.18707 0.36114 0.0
H57 H 0.83922 0.19592 0.28662 0.0
O58 O 0.90124 0.12919 0.33733 0.0
O59 O 0.88761 0.13695 0.28786 0.0
O60 O 0.81783 0.14501 0.30238 0.0
C61 C 0.90967 0.13199 0.30845 0.0
H62 H 0.83292 0.03444 0.27092 0.0
H63 H 0.90569 0.24525 0.33905 0.0
H64 H 0.80147 0.18779 0.41168 0.0
H65 H 0.85892 0.10858 0.43595 0.0
Co66 Co 0.87558 0.8604 0.34982 0.0
C67 C 0.94428 0.87078 0.34023 0.0
C68 C 0.93506 0.82674 0.36202 0.0
C69 C 0.96656 0.8286 0.35593 0.0
N70 N 0.92078 0.85306 0.35199 0.0
N71 N 0.97223 0.85621 0.34221 0.0
H72 H 0.94125 0.8935 0.3297 0.0
H73 H 0.92368 0.80748 0.3734 0.0
C74 C 0.8721 0.7916 0.33093 0.0
O75 O 0.8752 0.78209 0.35987 0.0
N76 N 0.83097 0.86757 0.34564 0.0
C77 C 0.81166 0.88217 0.36573 0.0
C78 C 0.78264 0.88501 0.35188 0.0
C79 C 0.81369 0.86227 0.31976 0.0
N80 N 0.78391 0.87261 0.32283 0.0
C81 C 0.88764 0.85175 0.414 0.0
C82 C 0.83241 0.82164 0.4287 0.0
C83 C 0.85028 0.83507 0.45265 0.0
C84 C 0.87877 0.84902 0.44513 0.0
C85 C 0.8423 0.8247 0.39756 0.0
N86 N 0.86911 0.84068 0.39044 0.0
H87 H 0.90802 0.86565 0.40875 0.0
H88 H 0.82703 0.81656 0.3791 0.0
H89 H 0.81838 0.89066 0.38858 0.0
H90 H 0.82333 0.85237 0.29861 0.0
O91 O 0.8805 0.90194 0.36601 0.0
O92 O 0.8816 0.88964 0.31571 0.0
O93 O 0.87122 0.82074 0.3244 0.0
C94 C 0.8823 0.91127 0.33727 0.0
H95 H 0.98411 0.81125 0.36164 0.0
H96 H 0.76238 0.89587 0.36242 0.0
H97 H 0.81004 0.81096 0.43375 0.0
H98 H 0.89297 0.85994 0.46307 0.0
Co99 Co 0.15147 0.88034 0.343 0.0
C100 C 0.14136 0.94842 0.33121 0.0
C101 C 0.18279 0.94061 0.35832 0.0
C102 C 0.18093 0.97187 0.35144 0.0
N103 N 0.15811 0.92556 0.34549 0.0
N104 N 0.15498 0.97666 0.33436 0.0
H105 H 0.11999 0.94472 0.31821 0.0
H106 H 0.20083 0.93009 0.37239 0.0
C107 C 0.21984 0.88046 0.32369 0.0
O108 O 0.22845 0.8861 0.35254 0.0
N109 N 0.14478 0.83586 0.3386 0.0
C110 C 0.12966 0.81652 0.3582 0.0
C111 C 0.12752 0.78753 0.3443 0.0
C112 C 0.15121 0.81867 0.31301 0.0
N113 N 0.14102 0.78893 0.3158 0.0
C114 C 0.16301 0.89056 0.40755 0.0
C115 C 0.19684 0.83647 0.41808 0.0
C116 C 0.18608 0.85385 0.4436 0.0
C117 C 0.16997 0.88172 0.43809 0.0
C118 C 0.19025 0.84673 0.3877 0.0
N119 N 0.17286 0.87316 0.38268 0.0
H120 H 0.14772 0.91035 0.40396 0.0
H121 H 0.19741 0.83232 0.36822 0.0
H122 H 0.12024 0.82322 0.38066 0.0
H123 H 0.16264 0.82801 0.29255 0.0
O124 O 0.11043 0.88479 0.36065 0.0
O125 O 0.12061 0.88593 0.30985 0.0
O126 O 0.19087 0.87683 0.31674 0.0
C127 C 0.09993 0.88645 0.3323 0.0
H128 H 0.19698 0.98989 0.35905 0.0
H129 H 0.11586 0.76736 0.35401 0.0
H130 H 0.20897 0.81454 0.4216 0.0
H131 H 0.16063 0.89529 0.45732 0.0
Co132 Co 0.13361 0.85852 0.67121 0.0
C133 C 0.06531 0.865 0.68267 0.0
C134 C 0.07531 0.82325 0.65702 0.0
C135 C 0.04415 0.8231 0.66498 0.0
N136 N 0.08885 0.84952 0.66816 0.0
N137 N 0.03804 0.84929 0.68119 0.0
H138 H 0.06796 0.88675 0.6952 0.0
H139 H 0.08699 0.80513 0.64403 0.0
C140 C 0.13809 0.79081 0.69162 0.0
O141 O 0.13476 0.78141 0.66266 0.0
N142 N 0.1777 0.86736 0.67685 0.0
C143 C 0.19633 0.887 0.66075 0.0
C144 C 0.22475 0.88923 0.67616 0.0
C145 C 0.19484 0.85807 0.70158 0.0
N146 N 0.22359 0.8708 0.70164 0.0
C147 C 0.12412 0.845 0.60706 0.0
C148 C 0.18157 0.81725 0.59641 0.0
C149 C 0.16302 0.82613 0.57094 0.0
C150 C 0.13353 0.83902 0.57653 0.0
C151 C 0.17075 0.82266 0.62684 0.0
N152 N 0.14261 0.83716 0.63192 0.0
H153 H 0.10293 0.85831 0.61055 0.0
H154 H 0.18591 0.81695 0.64625 0.0
H155 H 0.18947 0.8995 0.6399 0.0
H156 H 0.18603 0.84345 0.72016 0.0
O157 O 0.12761 0.8988 0.65261 0.0
O158 O 0.12555 0.88951 0.70349 0.0
O159 O 0.1383 0.81995 0.69826 0.0
C160 C 0.12458 0.90977 0.68065 0.0
H161 H 0.02722 0.80525 0.65911 0.0
H162 H 0.24453 0.90342 0.66936 0.0
H163 H 0.20472 0.80762 0.59282 0.0
H164 H 0.11898 0.84692 0.55734 0.0
Co165 Co 0.15092 0.13515 0.68132 0.0
C166 C 0.14117 0.06528 0.67875 0.0
C167 C 0.17399 0.07998 0.71345 0.0
C168 C 0.16857 0.04887 0.71758 0.0
N169 N 0.15775 0.09056 0.68846 0.0
N170 N 0.14775 0.03955 0.696 0.0
H171 H 0.12286 0.06603 0.66132 0.0
H172 H 0.18693 0.0942 0.72976 0.0
C173 C 0.21921 0.13332 0.69543 0.0
O174 O 0.22188 0.1138 0.67189 0.0
N175 N 0.14399 0.17955 0.67833 0.0
C176 C 0.1262 0.19633 0.6585 0.0
C177 C 0.12257 0.22605 0.67087 0.0
C178 C 0.15066 0.19887 0.70219 0.0
N179 N 0.13776 0.22732 0.69857 0.0
C180 C 0.15837 0.11501 0.61805 0.0
C181 C 0.19316 0.16573 0.59862 0.0
C182 C 0.17952 0.14633 0.57592 0.0
C183 C 0.16298 0.12002 0.58619 0.0
C184 C 0.18833 0.15959 0.63047 0.0
N185 N 0.17012 0.13506 0.63987 0.0
H186 H 0.14286 0.09654 0.62478 0.0
H187 H 0.19725 0.176 0.64749 0.0
H188 H 0.1151 0.18715 0.63771 0.0
H189 H 0.1633 0.19147 0.72277 0.0
O190 O 0.10916 0.12731 0.66724 0.0
O191 O 0.1222 0.13534 0.71678 0.0
O192 O 0.19231 0.14439 0.70254 0.0
C193 C 0.10035 0.13031 0.69597 0.0
H194 H 0.17848 0.03444 0.73585 0.0
H195 H 0.10821 0.2445 0.6612 0.0
H196 H 0.20632 0.18622 0.59186 0.0
H197 H 0.15143 0.10462 0.56975 0.0
Co198 Co 0.87904 0.15063 0.66066 0.0
C199 C 0.94674 0.14351 0.67647 0.0
C200 C 0.93908 0.1825 0.64611 0.0
C201 C 0.96995 0.1825 0.65522 0.0
N202 N 0.92422 0.15812 0.65951 0.0
N203 N 0.97464 0.15807 0.67435 0.0
H204 H 0.94291 0.12322 0.69095 0.0
H205 H 0.9285 0.19936 0.63069 0.0
C206 C 0.8773 0.21933 0.67915 0.0
O207 O 0.88372 0.22817 0.65057 0.0
N208 N 0.83448 0.14346 0.66405 0.0
C209 C 0.81513 0.12947 0.64356 0.0
C210 C 0.78614 0.12636 0.65734 0.0
C211 C 0.81732 0.14815 0.69003 0.0
N212 N 0.78753 0.13799 0.68671 0.0
C213 C 0.89066 0.15781 0.59636 0.0
C214 C 0.83659 0.19012 0.58156 0.0
C215 C 0.85348 0.17533 0.5577 0.0
C216 C 0.88146 0.16027 0.56527 0.0
C217 C 0.84677 0.18723 0.61271 0.0
N218 N 0.87295 0.17015 0.61987 0.0
H219 H 0.9106 0.14325 0.60175 0.0
H220 H 0.8321 0.19627 0.63118 0.0
H221 H 0.8218 0.12149 0.62053 0.0
H222 H 0.8271 0.1574 0.71142 0.0
O223 O 0.8845 0.10906 0.64462 0.0
O224 O 0.88457 0.12124 0.6949 0.0
O225 O 0.87402 0.19039 0.68577 0.0
C226 C 0.88595 0.09966 0.67333 0.0
H227 H 0.98772 0.19897 0.64802 0.0
H228 H 0.76586 0.11577 0.64655 0.0
H229 H 0.81464 0.20172 0.5765 0.0
H230 H 0.89498 0.14841 0.54744 0.0
Co231 Co 0.86143 0.87399 0.68604 0.0
C232 C 0.8707 0.94402 0.68103 0.0
C233 C 0.84045 0.93007 0.71813 0.0
C234 C 0.84531 0.96149 0.72067 0.0
N235 N 0.85533 0.91883 0.69264 0.0
N236 N 0.86445 0.97038 0.69749 0.0
H237 H 0.88796 0.94295 0.66267 0.0
H238 H 0.82858 0.91618 0.73545 0.0
C239 C 0.79381 0.87778 0.70133 0.0
O240 O 0.79115 0.89729 0.6778 0.0
N241 N 0.86782 0.82938 0.68336 0.0
C242 C 0.88328 0.81219 0.66201 0.0
C243 C 0.88674 0.7822 0.67363 0.0
C244 C 0.86241 0.80998 0.70747 0.0
N245 N 0.8738 0.78103 0.7024 0.0
C246 C 0.85292 0.89277 0.62243 0.0
C247 C 0.81536 0.8431 0.60529 0.0
C248 C 0.82852 0.86176 0.58186 0.0
C249 C 0.84652 0.88755 0.59092 0.0
C250 C 0.82181 0.84961 0.63678 0.0
N251 N 0.84127 0.87365 0.64502 0.0
H252 H 0.86961 0.91054 0.62815 0.0
H253 H 0.81311 0.83379 0.6544 0.0
H254 H 0.89268 0.82116 0.64037 0.0
H255 H 0.85146 0.81749 0.72895 0.0
O256 O 0.90298 0.8811 0.67134 0.0
O257 O 0.89047 0.87398 0.72117 0.0
O258 O 0.82047 0.86578 0.7079 0.0
C259 C 0.91205 0.87845 0.70007 0.0
H260 H 0.836 0.97648 0.73878 0.0
H261 H 0.89931 0.76329 0.66249 0.0
H262 H 0.80134 0.82292 0.59932 0.0
H263 H 0.85778 0.9022 0.57369 0.0
Co264 Co 0.33436 0.13499 0.15088 0.0
C265 C 0.32343 0.06651 0.14103 0.0
C266 C 0.33734 0.07787 0.18786 0.0
C267 C 0.32976 0.04672 0.18678 0.0
N268 N 0.33328 0.09042 0.15926 0.0
N269 N 0.3209 0.03967 0.15741 0.0
H270 H 0.31728 0.06863 0.11662 0.0
H271 H 0.34455 0.09074 0.20839 0.0
C272 C 0.30485 0.16312 0.21034 0.0
O273 O 0.31515 0.19134 0.20455 0.0
N274 N 0.33349 0.17941 0.14262 0.0
C275 C 0.35647 0.1992 0.13415 0.0
C276 C 0.34363 0.22865 0.1304 0.0
C277 C 0.30706 0.1965 0.14202 0.0
N278 N 0.31259 0.22681 0.13591 0.0
C279 C 0.39757 0.11804 0.15895 0.0
C280 C 0.41632 0.16893 0.1939 0.0
C281 C 0.43916 0.15027 0.17959 0.0
C282 C 0.42936 0.12369 0.16321 0.0
C283 C 0.38454 0.16206 0.1895 0.0
N284 N 0.37548 0.13785 0.17072 0.0
H285 H 0.39076 0.09909 0.14372 0.0
H286 H 0.36776 0.17813 0.19873 0.0
H287 H 0.38077 0.19283 0.13112 0.0
H288 H 0.28419 0.18686 0.14691 0.0
O289 O 0.34978 0.1283 0.10934 0.0
O290 O 0.29945 0.13109 0.12157 0.0
O291 O 0.31074 0.14031 0.19186 0.0
C292 C 0.32095 0.12857 0.10003 0.0
H293 H 0.33086 0.03042 0.20606 0.0
H294 H 0.35624 0.2498 0.1248 0.0
H295 H 0.42289 0.18955 0.20701 0.0
H296 H 0.44604 0.10869 0.15147 0.0
Co297 Co 0.87545 0.34662 0.14874 0.0
C298 C 0.9446 0.33934 0.14201 0.0
C299 C 0.9312 0.35465 0.18775 0.0
C300 C 0.96246 0.34701 0.18835 0.0
N301 N 0.91983 0.34989 0.15869 0.0
N302 N 0.97075 0.33719 0.15965 0.0
H303 H 0.9434 0.33155 0.11804 0.0
H304 H 0.91727 0.36163 0.20765 0.0
C305 C 0.85159 0.32092 0.2113 0.0
O306 O 0.82514 0.3362 0.20924 0.0
N307 N 0.83162 0.33981 0.13904 0.0
C308 C 0.81241 0.35595 0.11984 0.0
C309 C 0.78482 0.33937 0.11632 0.0
C310 C 0.81603 0.31337 0.14582 0.0
N311 N 0.78728 0.3128 0.13301 0.0
C312 C 0.88859 0.41069 0.163 0.0
C313 C 0.82886 0.428 0.18012 0.0
C314 C 0.85097 0.45122 0.17437 0.0
C315 C 0.88142 0.44228 0.16685 0.0
C316 C 0.83719 0.39652 0.17688 0.0
N317 N 0.8667 0.38778 0.16774 0.0
H318 H 0.91116 0.4053 0.1532 0.0
H319 H 0.81849 0.37998 0.17858 0.0
H320 H 0.81825 0.37787 0.10878 0.0
H321 H 0.82595 0.29421 0.15897 0.0
O322 O 0.88165 0.36276 0.10752 0.0
O323 O 0.88446 0.31257 0.11984 0.0
O324 O 0.87196 0.32245 0.1895 0.0
C325 C 0.88518 0.33418 0.09823 0.0
H326 H 0.97777 0.34805 0.20849 0.0
H327 H 0.76461 0.34627 0.10271 0.0
H328 H 0.80481 0.43417 0.1852 0.0
H329 H 0.89891 0.4597 0.16129 0.0
Co330 Co 0.67787 0.87832 0.15584 0.0
C331 C 0.67783 0.94778 0.1435 0.0
C332 C 0.71055 0.93372 0.17853 0.0
C333 C 0.71553 0.96457 0.17219 0.0
N334 N 0.68617 0.92296 0.16145 0.0
N335 N 0.69517 0.9735 0.14999 0.0
H336 H 0.66125 0.94661 0.12445 0.0
H337 H 0.72595 0.91976 0.19279 0.0
C338 C 0.69184 0.88063 0.22436 0.0
O339 O 0.66829 0.90018 0.22715 0.0
N340 N 0.67358 0.83386 0.15021 0.0
C341 C 0.6529 0.81708 0.13343 0.0
C342 C 0.66441 0.78695 0.13053 0.0
C343 C 0.69707 0.81411 0.15703 0.0
N344 N 0.69233 0.78528 0.1454 0.0
C345 C 0.61515 0.90063 0.1609 0.0
C346 C 0.59258 0.85125 0.1956 0.0
C347 C 0.571 0.87067 0.1801 0.0
C348 C 0.58291 0.89634 0.16364 0.0
C349 C 0.62492 0.85659 0.19245 0.0
N350 N 0.63591 0.88036 0.17415 0.0
H351 H 0.6231 0.91858 0.14539 0.0
H352 H 0.64107 0.84001 0.20263 0.0
H353 H 0.63207 0.82647 0.12252 0.0
H354 H 0.71871 0.82169 0.16773 0.0
O355 O 0.66466 0.88532 0.1137 0.0
O356 O 0.7138 0.87621 0.12782 0.0
O357 O 0.69864 0.86943 0.19751 0.0
C358 C 0.69347 0.88113 0.1055 0.0
H359 H 0.73352 0.97902 0.18255 0.0
H360 H 0.65374 0.76827 0.11724 0.0
H361 H 0.58467 0.83132 0.20894 0.0
H362 H 0.5676 0.91178 0.15068 0.0
Co363 Co 0.13616 0.67466 0.15358 0.0
C364 C 0.06807 0.6897 0.14541 0.0
C365 C 0.07668 0.66348 0.18715 0.0
C366 C 0.04566 0.67185 0.18657 0.0
N367 N 0.09105 0.67477 0.16146 0.0
N368 N 0.04032 0.68839 0.16042 0.0
H369 H 0.07143 0.70193 0.1236 0.0
H370 H 0.08765 0.6497 0.20512 0.0
C371 C 0.14099 0.69159 0.22265 0.0
O372 O 0.13615 0.66262 0.23122 0.0
N373 N 0.1808 0.67666 0.14616 0.0
C374 C 0.19927 0.65632 0.13086 0.0
C375 C 0.22886 0.66902 0.12865 0.0
C376 C 0.19906 0.70151 0.15249 0.0
N377 N 0.22872 0.69758 0.14221 0.0
C378 C 0.1215 0.61079 0.16009 0.0
C379 C 0.176 0.59266 0.18989 0.0
C380 C 0.15734 0.56995 0.1754 0.0
C381 C 0.12923 0.57923 0.16156 0.0
C382 C 0.16738 0.6243 0.18787 0.0
N383 N 0.14087 0.63316 0.17211 0.0
H384 H 0.1013 0.61741 0.14641 0.0
H385 H 0.18339 0.64178 0.19665 0.0
H386 H 0.19164 0.63412 0.1215 0.0
H387 H 0.19019 0.72263 0.16311 0.0
O388 O 0.12969 0.65971 0.11184 0.0
O389 O 0.13193 0.70981 0.12504 0.0
O390 O 0.14228 0.69892 0.19374 0.0
C391 C 0.12961 0.68867 0.10314 0.0
H392 H 0.02813 0.66567 0.2037 0.0
H393 H 0.24869 0.65808 0.11742 0.0
H394 H 0.19809 0.58629 0.20055 0.0
H395 H 0.11435 0.56233 0.14994 0.0
Co396 Co 0.34404 0.88034 0.8596 0.0
C397 C 0.33892 0.94946 0.86833 0.0
C398 C 0.34739 0.93643 0.82069 0.0
C399 C 0.34186 0.96806 0.82178 0.0
N400 N 0.34535 0.92463 0.84981 0.0
N401 N 0.33646 0.97611 0.8517 0.0
H402 H 0.33492 0.94819 0.8932 0.0
H403 H 0.35166 0.92276 0.79986 0.0
C404 C 0.30983 0.85218 0.80279 0.0
O405 O 0.31883 0.82365 0.80924 0.0
N406 N 0.34078 0.83637 0.86975 0.0
C407 C 0.36312 0.81632 0.87932 0.0
C408 C 0.34927 0.78789 0.88549 0.0
C409 C 0.31364 0.82056 0.87223 0.0
N410 N 0.3181 0.79054 0.88067 0.0
C411 C 0.40749 0.89317 0.84684 0.0
C412 C 0.42133 0.83847 0.81556 0.0
C413 C 0.44588 0.8567 0.82723 0.0
C414 C 0.43864 0.88518 0.84155 0.0
C415 C 0.39031 0.84778 0.82064 0.0
N416 N 0.38367 0.87392 0.83777 0.0
H417 H 0.4027 0.91353 0.86095 0.0
H418 H 0.37223 0.83202 0.81367 0.0
H419 H 0.38767 0.82193 0.88172 0.0
H420 H 0.2912 0.83073 0.86643 0.0
O421 O 0.36226 0.88717 0.89997 0.0
O422 O 0.31129 0.88782 0.89031 0.0
O423 O 0.31787 0.87525 0.82009 0.0
C424 C 0.33404 0.88928 0.91076 0.0
H425 H 0.34178 0.98395 0.80213 0.0
H426 H 0.36132 0.76699 0.89303 0.0
H427 H 0.42602 0.81631 0.80426 0.0
H428 H 0.45686 0.89988 0.8512 0.0
Co429 Co 0.13573 0.34497 0.85903 0.0
C430 C 0.06774 0.33067 0.86434 0.0
C431 C 0.07606 0.36259 0.82685 0.0
C432 C 0.04507 0.35404 0.82617 0.0
N433 N 0.09063 0.34787 0.85075 0.0
N434 N 0.03996 0.33392 0.84968 0.0
H435 H 0.07122 0.31514 0.88393 0.0
H436 H 0.08686 0.37845 0.8106 0.0
C437 C 0.13585 0.32488 0.79133 0.0
O438 O 0.12931 0.35352 0.78275 0.0
N439 N 0.18007 0.33977 0.86722 0.0
C440 C 0.19954 0.35946 0.88218 0.0
C441 C 0.22843 0.34529 0.88494 0.0
C442 C 0.19713 0.31383 0.86154 0.0
N443 N 0.22689 0.31652 0.872 0.0
C444 C 0.12767 0.4095 0.84788 0.0
C445 C 0.18275 0.41876 0.81542 0.0
C446 C 0.16638 0.44458 0.82709 0.0
C447 C 0.13798 0.43977 0.84234 0.0
C448 C 0.17107 0.3886 0.82068 0.0
N449 N 0.14427 0.38423 0.83762 0.0
H450 H 0.10748 0.40632 0.86267 0.0
H451 H 0.18488 0.36874 0.81337 0.0
H452 H 0.19305 0.38228 0.8909 0.0
H453 H 0.18773 0.29327 0.85024 0.0
O454 O 0.13039 0.36353 0.89948 0.0
O455 O 0.12826 0.31271 0.89024 0.0
O456 O 0.13998 0.3182 0.82021 0.0
C457 C 0.12729 0.33559 0.91049 0.0
H458 H 0.02751 0.36221 0.80984 0.0
H459 H 0.24868 0.35513 0.8965 0.0
H460 H 0.20511 0.42175 0.80397 0.0
H461 H 0.12512 0.45924 0.85223 0.0
Co462 Co 0.68108 0.12858 0.85353 0.0
C463 C 0.67896 0.059 0.86489 0.0
C464 C 0.71278 0.07261 0.83087 0.0
C465 C 0.71708 0.04165 0.83718 0.0
N466 N 0.68825 0.08379 0.84739 0.0
N467 N 0.6961 0.033 0.8588 0.0
H468 H 0.66189 0.0604 0.88345 0.0
H469 H 0.72882 0.08633 0.8172 0.0
C470 C 0.69656 0.12701 0.78548 0.0
O471 O 0.67279 0.10788 0.78197 0.0
N472 N 0.67771 0.17305 0.85989 0.0
C473 C 0.65639 0.19009 0.87556 0.0
C474 C 0.6677 0.22025 0.87844 0.0
C475 C 0.70145 0.19266 0.85379 0.0
N476 N 0.69613 0.22169 0.86468 0.0
C477 C 0.61777 0.10879 0.8458 0.0
C478 C 0.59871 0.16005 0.81149 0.0
C479 C 0.57584 0.14167 0.82614 0.0
C480 C 0.58586 0.11492 0.84223 0.0
C481 C 0.63055 0.15283 0.81534 0.0
N482 N 0.63981 0.12829 0.83366 0.0
H483 H 0.6245 0.09008 0.8611 0.0
H484 H 0.64776 0.16874 0.80598 0.0
H485 H 0.63497 0.18096 0.88538 0.0
H486 H 0.72334 0.18501 0.84371 0.0
O487 O 0.66637 0.12126 0.89506 0.0
O488 O 0.71615 0.12914 0.8828 0.0
O489 O 0.70322 0.13759 0.81266 0.0
C490 C 0.69501 0.12449 0.90433 0.0
H491 H 0.73517 0.02694 0.82736 0.0
H492 H 0.65634 0.23924 0.89067 0.0
H493 H 0.59218 0.18072 0.79847 0.0
H494 H 0.56934 0.10013 0.85435 0.0
Co495 Co 0.88238 0.66203 0.86111 0.0
C496 C 0.95119 0.66953 0.87097 0.0
C497 C 0.9409 0.64881 0.82655 0.0
C498 C 0.9725 0.65468 0.82802 0.0
N499 N 0.92729 0.6583 0.85339 0.0
N500 N 0.97879 0.66774 0.85588 0.0
H501 H 0.94866 0.67993 0.89382 0.0
H502 H 0.9289 0.63841 0.80702 0.0
C503 C 0.87769 0.68056 0.79216 0.0
O504 O 0.87882 0.65143 0.78275 0.0
N505 N 0.83809 0.66816 0.8686 0.0
C506 C 0.81901 0.65251 0.88815 0.0
C507 C 0.79104 0.66864 0.89042 0.0
C508 C 0.82162 0.69338 0.85937 0.0
N509 N 0.79286 0.69422 0.87217 0.0
C510 C 0.89268 0.59755 0.85188 0.0
C511 C 0.83571 0.58399 0.82438 0.0
C512 C 0.85386 0.55963 0.83663 0.0
C513 C 0.88312 0.5666 0.84934 0.0
C514 C 0.84629 0.61494 0.82721 0.0
N515 N 0.87412 0.62151 0.84174 0.0
H516 H 0.91377 0.60229 0.86496 0.0
H517 H 0.83102 0.63367 0.81979 0.0
H518 H 0.8254 0.6316 0.90079 0.0
H519 H 0.83109 0.71185 0.84501 0.0
O520 O 0.88727 0.64579 0.90258 0.0
O521 O 0.88992 0.696 0.89033 0.0
O522 O 0.87864 0.6873 0.82128 0.0
C523 C 0.89008 0.67444 0.91194 0.0
H524 H 0.98961 0.6496 0.8101 0.0
H525 H 0.77116 0.66236 0.9047 0.0
H526 H 0.81275 0.57938 0.81469 0.0
H527 H 0.89754 0.54836 0.85942 0.0
Co528 Co 0.14851 0.3347 0.1374 0.0
C529 C 0.13942 0.33768 0.06695 0.0
C530 C 0.17007 0.30147 0.08257 0.0
C531 C 0.16518 0.29742 0.05136 0.0
N532 N 0.15496 0.32733 0.0927 0.0
N533 N 0.14574 0.31995 0.04139 0.0
H534 H 0.122 0.35598 0.06713 0.0
H535 H 0.18191 0.28468 0.0972 0.0
C536 C 0.21644 0.32034 0.13411 0.0
O537 O 0.21871 0.34396 0.11469 0.0
N538 N 0.14203 0.33754 0.18201 0.0
C539 C 0.12454 0.3574 0.19906 0.0
C540 C 0.12108 0.34494 0.22876 0.0
C541 C 0.14867 0.31355 0.20123 0.0
N542 N 0.13605 0.31712 0.22985 0.0
C543 C 0.156 0.39798 0.11762 0.0
C544 C 0.19216 0.4169 0.16775 0.0
C545 C 0.17851 0.43976 0.14858 0.0
C546 C 0.1612 0.42974 0.12259 0.0
C547 C 0.18672 0.38513 0.16165 0.0
N548 N 0.16794 0.376 0.13736 0.0
H549 H 0.13993 0.39147 0.09949 0.0
H550 H 0.19572 0.36799 0.17787 0.0
H551 H 0.11351 0.37829 0.19007 0.0
H552 H 0.16108 0.29292 0.19362 0.0
O553 O 0.10691 0.34905 0.12976 0.0
O554 O 0.11963 0.2994 0.13757 0.0
O555 O 0.18989 0.31347 0.14607 0.0
C556 C 0.09794 0.32038 0.13256 0.0
H557 H 0.17457 0.27864 0.03726 0.0
H558 H 0.10694 0.35465 0.24733 0.0
H559 H 0.20586 0.42347 0.18801 0.0
H560 H 0.14956 0.44635 0.10744 0.0
Co561 Co 0.15755 0.67212 0.88043 0.0
C562 C 0.14707 0.6826 0.94862 0.0
C563 C 0.19129 0.66063 0.94011 0.0
C564 C 0.18924 0.66737 0.97142 0.0
N565 N 0.16496 0.67034 0.92551 0.0
N566 N 0.16152 0.68124 0.97662 0.0
H567 H 0.12428 0.69302 0.94526 0.0
H568 H 0.21068 0.6489 0.92921 0.0
C569 C 0.2254 0.69295 0.87819 0.0
O570 O 0.2349 0.66403 0.88139 0.0
N571 N 0.14997 0.67595 0.83603 0.0
C572 C 0.13466 0.65591 0.81719 0.0
C573 C 0.13097 0.66971 0.78834 0.0
C574 C 0.15491 0.70173 0.81871 0.0
N575 N 0.14362 0.69859 0.78937 0.0
C576 C 0.17147 0.60827 0.89211 0.0
C577 C 0.20188 0.59657 0.83634 0.0
C578 C 0.19255 0.57139 0.85492 0.0
C579 C 0.17828 0.57758 0.88366 0.0
C580 C 0.19549 0.62714 0.84616 0.0
N581 N 0.17965 0.63274 0.87341 0.0
H582 H 0.15731 0.61214 0.91263 0.0
H583 H 0.20157 0.64624 0.83084 0.0
H584 H 0.12601 0.63326 0.82422 0.0
H585 H 0.16589 0.72262 0.82773 0.0
O586 O 0.11707 0.65354 0.88545 0.0
O587 O 0.12612 0.70459 0.8861 0.0
O588 O 0.19617 0.69942 0.87644 0.0
C589 C 0.10598 0.68167 0.88683 0.0
H590 H 0.20646 0.66189 0.98917 0.0
H591 H 0.11875 0.65969 0.76858 0.0
H592 H 0.21274 0.59263 0.81384 0.0
H593 H 0.17003 0.5587 0.8983 0.0
Co594 Co 0.3439 0.15497 0.87717 0.0
C595 C 0.33156 0.14452 0.94527 0.0
C596 C 0.35322 0.18879 0.93679 0.0
C597 C 0.3457 0.18703 0.96793 0.0
N598 N 0.3442 0.16226 0.92229 0.0
N599 N 0.33203 0.15928 0.97317 0.0
H600 H 0.32144 0.12166 0.94184 0.0
H601 H 0.36473 0.2082 0.92576 0.0
C602 C 0.32519 0.2237 0.87226 0.0
O603 O 0.35429 0.23275 0.87567 0.0
N604 N 0.34135 0.14794 0.83258 0.0
C605 C 0.36145 0.13272 0.81378 0.0
C606 C 0.34789 0.12982 0.78464 0.0
C607 C 0.3158 0.15352 0.81498 0.0
N608 N 0.31903 0.14283 0.78545 0.0
C609 C 0.40781 0.16305 0.89164 0.0
C610 C 0.42506 0.19028 0.83578 0.0
C611 C 0.448 0.17574 0.85416 0.0
C612 C 0.43925 0.16341 0.88303 0.0
C613 C 0.39357 0.18943 0.8453 0.0
N614 N 0.38505 0.17451 0.8723 0.0
H615 H 0.40155 0.15008 0.91232 0.0
H616 H 0.37584 0.19801 0.82942 0.0
H617 H 0.38398 0.12365 0.82097 0.0
H618 H 0.29458 0.1636 0.82432 0.0
O619 O 0.36021 0.11363 0.88279 0.0
O620 O 0.30962 0.12529 0.88137 0.0
O621 O 0.3183 0.19463 0.87189 0.0
C622 C 0.33151 0.10401 0.88298 0.0
H623 H 0.35042 0.20456 0.98556 0.0
H624 H 0.35835 0.11836 0.76472 0.0
H625 H 0.43098 0.19989 0.81317 0.0
H626 H 0.45632 0.15183 0.89777 0.0
Co627 Co 0.86328 0.32553 0.87211 0.0
C628 C 0.87314 0.32888 0.9423 0.0
C629 C 0.84299 0.29202 0.92734 0.0
C630 C 0.84805 0.28862 0.95865 0.0
N631 N 0.85767 0.31789 0.91681 0.0
N632 N 0.86713 0.31165 0.9682 0.0
H633 H 0.89023 0.3474 0.94175 0.0
H634 H 0.83103 0.2751 0.91295 0.0
C635 C 0.79545 0.31096 0.87632 0.0
O636 O 0.7937 0.33357 0.89702 0.0
N637 N 0.86908 0.32902 0.82751 0.0
C638 C 0.88583 0.34957 0.81065 0.0
C639 C 0.88882 0.33793 0.78057 0.0
C640 C 0.86237 0.30544 0.80783 0.0
N641 N 0.87425 0.30995 0.77904 0.0
C642 C 0.85558 0.38883 0.89232 0.0
C643 C 0.81775 0.40722 0.84322 0.0
C644 C 0.83143 0.43021 0.86216 0.0
C645 C 0.84956 0.4205 0.88768 0.0
C646 C 0.82386 0.37556 0.84911 0.0
N647 N 0.84345 0.36669 0.87286 0.0
H648 H 0.87237 0.38262 0.90987 0.0
H649 H 0.81478 0.35833 0.83302 0.0
H650 H 0.89663 0.37044 0.81994 0.0
H651 H 0.85034 0.28453 0.81515 0.0
O652 O 0.90504 0.33989 0.87922 0.0
O653 O 0.89239 0.29032 0.87103 0.0
O654 O 0.8218 0.30428 0.86372 0.0
C655 C 0.9141 0.31127 0.87585 0.0
H656 H 0.83881 0.27013 0.97313 0.0
H657 H 0.90233 0.34836 0.76197 0.0
H658 H 0.80357 0.41366 0.82324 0.0
H659 H 0.86123 0.43735 0.90255 0.0
Co660 Co 0.67238 0.85288 0.88352 0.0
C661 C 0.6816 0.86267 0.95206 0.0
C662 C 0.66874 0.81564 0.94061 0.0
C663 C 0.67597 0.81694 0.97191 0.0
N664 N 0.6723 0.84427 0.92806 0.0
N665 N 0.68418 0.84647 0.97901 0.0
H666 H 0.68761 0.88707 0.94988 0.0
H667 H 0.66239 0.79492 0.9276 0.0
C668 C 0.70672 0.79604 0.85558 0.0
O669 O 0.69707 0.80214 0.82716 0.0
N670 N 0.67427 0.86174 0.83922 0.0
C671 C 0.65137 0.86887 0.8187 0.0
C672 C 0.66483 0.87407 0.78981 0.0
C673 C 0.70114 0.86472 0.82317 0.0
N674 N 0.69612 0.87089 0.79275 0.0
C675 C 0.60889 0.84241 0.89672 0.0
C676 C 0.5949 0.8076 0.84417 0.0
C677 C 0.57076 0.8227 0.86021 0.0
C678 C 0.57777 0.83868 0.88778 0.0
C679 C 0.62588 0.81162 0.85421 0.0
N680 N 0.63266 0.83089 0.8788 0.0
H681 H 0.61396 0.8576 0.91625 0.0
H682 H 0.64405 0.80218 0.83989 0.0
H683 H 0.62672 0.87007 0.82419 0.0
H684 H 0.72399 0.86132 0.83356 0.0
O685 O 0.65433 0.89352 0.88965 0.0
O686 O 0.70524 0.88401 0.88921 0.0
O687 O 0.69863 0.81326 0.87875 0.0
C688 C 0.68253 0.90449 0.89056 0.0
H689 H 0.6753 0.79764 0.9882 0.0
H690 H 0.65252 0.87901 0.76826 0.0
H691 H 0.59017 0.79509 0.82267 0.0
H692 H 0.55958 0.85064 0.90073 0.0
Co693 Co 0.86264 0.68613 0.1367 0.0
C694 C 0.87279 0.68159 0.06703 0.0
C695 C 0.84087 0.71756 0.08055 0.0
C696 C 0.84629 0.72042 0.04924 0.0
N697 N 0.85649 0.69256 0.09193 0.0
N698 N 0.86649 0.69795 0.04067 0.0
H699 H 0.89072 0.66384 0.06839 0.0
H700 H 0.82808 0.73439 0.09432 0.0
C701 C 0.79441 0.69913 0.13265 0.0
O702 O 0.79309 0.67623 0.11225 0.0
N703 N 0.86902 0.68357 0.18128 0.0
C704 C 0.88531 0.66285 0.19849 0.0
C705 C 0.88774 0.67439 0.22864 0.0
C706 C 0.8621 0.70722 0.20079 0.0
N707 N 0.87331 0.70248 0.22985 0.0
C708 C 0.85528 0.62227 0.11745 0.0
C709 C 0.81909 0.60459 0.16787 0.0
C710 C 0.83232 0.58148 0.14889 0.0
C711 C 0.84948 0.59064 0.12269 0.0
C712 C 0.82461 0.63612 0.1612 0.0
N713 N 0.84358 0.64466 0.13692 0.0
H714 H 0.87143 0.62828 0.09931 0.0
H715 H 0.81573 0.65357 0.17715 0.0
H716 H 0.89583 0.64171 0.18948 0.0
H717 H 0.85009 0.72815 0.19331 0.0
O718 O 0.90473 0.6725 0.12962 0.0
O719 O 0.89089 0.72194 0.13681 0.0
O720 O 0.82071 0.70671 0.14493 0.0
C721 C 0.91309 0.70142 0.13222 0.0
H722 H 0.83665 0.73825 0.03413 0.0
H723 H 0.90057 0.6637 0.24765 0.0
H724 H 0.80582 0.59832 0.18845 0.0
H725 H 0.86052 0.57339 0.10781 0.0
Co726 Co 0.33382 0.86301 0.13599 0.0
C727 C 0.33724 0.87119 0.06614 0.0
C728 C 0.30521 0.83578 0.08051 0.0
C729 C 0.30113 0.84059 0.04926 0.0
N730 N 0.32851 0.85417 0.09144 0.0
N731 N 0.32096 0.86307 0.04016 0.0
H732 H 0.353 0.89088 0.06706 0.0
H733 H 0.28957 0.82192 0.0945 0.0
C734 C 0.32245 0.79401 0.13714 0.0
O735 O 0.34703 0.79073 0.11904 0.0
N736 N 0.33518 0.87175 0.18016 0.0
C737 C 0.35436 0.89024 0.19694 0.0
C738 C 0.34125 0.8945 0.22623 0.0
C739 C 0.31092 0.86535 0.19904 0.0
N740 N 0.31371 0.87901 0.22723 0.0
C741 C 0.39808 0.86004 0.11866 0.0
C742 C 0.41849 0.82816 0.171 0.0
C743 C 0.44036 0.84471 0.15312 0.0
C744 C 0.42992 0.85957 0.12595 0.0
C745 C 0.38654 0.82942 0.16298 0.0
N746 N 0.37652 0.84641 0.13775 0.0
H747 H 0.3907 0.87427 0.09936 0.0
H748 H 0.36968 0.81919 0.17871 0.0
H749 H 0.3753 0.90121 0.18802 0.0
H750 H 0.29072 0.85215 0.19151 0.0
O751 O 0.34556 0.90513 0.12695 0.0
O752 O 0.29663 0.88944 0.13398 0.0
O753 O 0.31434 0.82124 0.1464 0.0
C754 C 0.31619 0.91227 0.12871 0.0
H755 H 0.28385 0.82928 0.03463 0.0
H756 H 0.35035 0.90932 0.24459 0.0
H757 H 0.42563 0.81647 0.19228 0.0
H758 H 0.44609 0.87254 0.11146 0.0
Co759 Co 0.66872 0.15349 0.12579 0.0
C760 C 0.67872 0.14267 0.0575 0.0
C761 C 0.66368 0.18933 0.06792 0.0
C762 C 0.67146 0.18782 0.03679 0.0
N763 N 0.66829 0.16107 0.08103 0.0
N764 N 0.68102 0.15854 0.03035 0.0
H765 H 0.68586 0.1186 0.06018 0.0
H766 H 0.65641 0.21001 0.08048 0.0
C767 C 0.701 0.21205 0.15217 0.0
O768 O 0.69123 0.20668 0.18066 0.0
N769 N 0.6711 0.14579 0.17035 0.0
C770 C 0.64853 0.13809 0.19091 0.0
C771 C 0.6622 0.13379 0.21991 0.0
C772 C 0.69808 0.14418 0.18658 0.0
N773 N 0.69335 0.13813 0.21708 0.0
C774 C 0.60504 0.16146 0.11199 0.0
C775 C 0.58914 0.19677 0.16361 0.0
C776 C 0.56581 0.18019 0.14775 0.0
C777 C 0.57377 0.16394 0.12061 0.0
C778 C 0.62041 0.19367 0.15408 0.0
N779 N 0.62819 0.17426 0.12989 0.0
H780 H 0.61086 0.14618 0.09275 0.0
H781 H 0.63807 0.20408 0.16841 0.0
H782 H 0.62395 0.13576 0.18533 0.0
H783 H 0.72078 0.14818 0.17619 0.0
O784 O 0.6519 0.11235 0.12054 0.0
O785 O 0.70254 0.12316 0.1208 0.0
O786 O 0.69369 0.19385 0.12954 0.0
C787 C 0.68038 0.10212 0.11966 0.0
H788 H 0.67036 0.20684 0.02018 0.0
H789 H 0.65008 0.12849 0.24142 0.0
H790 H 0.58368 0.20966 0.18469 0.0
H791 H 0.55623 0.15106 0.10763 0.0
C792 C 0.18114 0.13108 0.51917 0.0
C793 C 0.17934 0.15466 0.54199 0.0
H794 H 0.175 0.11874 0.47102 0.0
C795 C 0.17344 0.18555 0.53214 0.0
H796 H 0.18612 0.10717 0.52573 0.0
C797 C 0.16742 0.19221 0.50054 0.0
C798 C 0.16718 0.1681 0.47832 0.0
H799 H 0.17156 0.20427 0.54906 0.0
H800 H 0.16126 0.21579 0.49378 0.0
C801 C 0.17495 0.13769 0.4878 0.0
C802 C 0.83537 0.18837 0.47199 0.0
C803 C 0.82849 0.15767 0.46227 0.0
H804 H 0.84863 0.21826 0.5103 0.0
C805 C 0.82543 0.13433 0.48511 0.0
H806 H 0.83821 0.20682 0.45495 0.0
C807 C 0.83148 0.1409 0.51651 0.0
C808 C 0.84052 0.17099 0.52588 0.0
H809 H 0.81987 0.11056 0.47849 0.0
H810 H 0.83066 0.12204 0.53334 0.0
C811 C 0.84141 0.19497 0.5036 0.0
C812 C 0.82838 0.86937 0.49388 0.0
C813 C 0.83784 0.83939 0.48457 0.0
H814 H 0.81712 0.89977 0.53196 0.0
C815 C 0.83983 0.81559 0.50696 0.0
H816 H 0.82683 0.88809 0.47694 0.0
C817 C 0.83435 0.82227 0.5386 0.0
C818 C 0.82704 0.8529 0.54823 0.0
H819 H 0.84743 0.7924 0.50027 0.0
H820 H 0.838 0.804 0.5557 0.0
C821 C 0.82297 0.87605 0.52535 0.0
C822 C 0.19704 0.85052 0.53085 0.0
C823 C 0.17554 0.8271 0.53884 0.0
H824 H 0.21727 0.87754 0.49382 0.0
C825 C 0.16146 0.80942 0.51507 0.0
H826 H 0.20765 0.86483 0.54886 0.0
C827 C 0.16748 0.81624 0.48369 0.0
C828 C 0.18703 0.84131 0.47572 0.0
H829 H 0.14439 0.79165 0.52076 0.0
H830 H 0.1549 0.80359 0.4657 0.0
C831 C 0.20248 0.85783 0.49949 0.0
C832 C 0.48067 0.19076 0.16985 0.0
C833 C 0.47255 0.15995 0.17807 0.0
H834 H 0.51702 0.22155 0.15372 0.0
C835 C 0.49634 0.13739 0.18018 0.0
H836 H 0.46282 0.20861 0.1677 0.0
C837 C 0.527 0.14477 0.17193 0.0
C838 C 0.53464 0.17491 0.16164 0.0
H839 H 0.49095 0.1136 0.18679 0.0
H840 H 0.54459 0.12652 0.17227 0.0
C841 C 0.51157 0.19819 0.16169 0.0
C842 C 0.82041 0.52533 0.13776 0.0
C843 C 0.83209 0.54819 0.15818 0.0
H844 H 0.81657 0.47638 0.12765 0.0
C845 C 0.84745 0.53879 0.18569 0.0
H846 H 0.80882 0.53206 0.11627 0.0
C847 C 0.85252 0.50706 0.19182 0.0
C848 C 0.84159 0.48428 0.17093 0.0
H849 H 0.85711 0.55605 0.2015 0.0
H850 H 0.86585 0.50033 0.21228 0.0
C851 C 0.82481 0.49361 0.14428 0.0
C852 C 0.51445 0.88735 0.17635 0.0
C853 C 0.53671 0.86315 0.17821 0.0
H854 H 0.46694 0.90031 0.16685 0.0
C855 C 0.5261 0.83211 0.17481 0.0
H856 H 0.52134 0.91145 0.17957 0.0
C857 C 0.49449 0.82572 0.16806 0.0
C858 C 0.47296 0.85023 0.16421 0.0
H859 H 0.54245 0.81281 0.1758 0.0
H860 H 0.4872 0.80178 0.1644 0.0
C861 C 0.48317 0.88099 0.16917 0.0
C862 C 0.18101 0.49634 0.13318 0.0
C863 C 0.17916 0.47368 0.15685 0.0
H864 H 0.17567 0.54453 0.12081 0.0
C865 C 0.17397 0.48374 0.1878 0.0
H866 H 0.18546 0.48958 0.10921 0.0
C867 C 0.1687 0.51546 0.19447 0.0
C868 C 0.16851 0.53756 0.17031 0.0
H869 H 0.17207 0.46694 0.20659 0.0
H870 H 0.1631 0.52245 0.21813 0.0
C871 C 0.17558 0.52783 0.13981 0.0
C872 C 0.48444 0.81537 0.84273 0.0
C873 C 0.47838 0.84462 0.82895 0.0
H874 H 0.51898 0.78532 0.86371 0.0
C875 C 0.50364 0.86423 0.82174 0.0
H876 H 0.46534 0.8 0.84897 0.0
C877 C 0.53409 0.85572 0.83 0.0
C878 C 0.53982 0.82755 0.84572 0.0
H879 H 0.49964 0.88686 0.81117 0.0
H880 H 0.55301 0.87198 0.82572 0.0
C881 C 0.515 0.80697 0.85127 0.0
C882 C 0.19944 0.4836 0.85424 0.0
C883 C 0.18045 0.47598 0.82856 0.0
H884 H 0.21839 0.52024 0.88273 0.0
C885 C 0.16964 0.49987 0.80891 0.0
H886 H 0.20746 0.4655 0.87002 0.0
C887 C 0.17627 0.53113 0.8159 0.0
C888 C 0.19314 0.53888 0.84305 0.0
H889 H 0.15442 0.49447 0.78938 0.0
H890 H 0.16603 0.54929 0.80154 0.0
C891 C 0.20556 0.51482 0.86157 0.0
C892 C 0.50309 0.19155 0.84031 0.0
C893 C 0.47969 0.16866 0.8419 0.0
H894 H 0.55198 0.20102 0.83411 0.0
C895 C 0.48744 0.1376 0.83476 0.0
H896 H 0.49768 0.21561 0.84594 0.0
C897 C 0.51824 0.12921 0.82764 0.0
C898 C 0.54227 0.15164 0.82785 0.0
H899 H 0.46972 0.11955 0.83571 0.0
H900 H 0.52341 0.10489 0.823 0.0
C901 C 0.53412 0.18312 0.83338 0.0
C902 C 0.84242 0.5056 0.81678 0.0
C903 C 0.84127 0.52775 0.8409 0.0
H904 H 0.83981 0.45704 0.80456 0.0
C905 C 0.83264 0.51815 0.87101 0.0
H906 H 0.84942 0.51249 0.79348 0.0
C907 C 0.82712 0.48666 0.8774 0.0
C908 C 0.83029 0.46399 0.85384 0.0
H909 H 0.83177 0.53488 0.88999 0.0
H910 H 0.82185 0.47983 0.90117 0.0
C911 C 0.83685 0.47394 0.82317 0.0
C912 C 0.11398 0.01697 0.33427 0.0
C913 C 0.14346 0.00655 0.3244 0.0
H914 H 0.08453 0.0568 0.34235 0.0
C915 C 0.16351 0.02746 0.30906 0.0
H916 H 0.09839 1.00126 0.34647 0.0
C917 C 0.15516 0.05888 0.30566 0.0
C918 C 0.12701 0.06991 0.31833 0.0
H919 H 0.18643 0.01982 0.30147 0.0
H920 H 0.17209 0.07505 0.29606 0.0
C921 C 0.10602 0.04859 0.33174 0.0
C922 C 0.95449 0.16549 0.29521 0.0
C923 C 0.94312 0.13554 0.30189 0.0
H924 H 0.99328 0.19702 0.29923 0.0
C925 C 0.96396 0.11252 0.31257 0.0
H926 H 0.93863 0.18383 0.28784 0.0
C927 C 0.99525 0.11994 0.31867 0.0
C928 C 1.00576 0.15075 0.31518 0.0
H929 H 0.95543 0.0895 0.31867 0.0
H930 H 0.01043 0.1024 0.32882 0.0
C931 C 0.98553 0.17314 0.30219 0.0
C932 C 0.87881 0.95548 0.29922 0.0
C933 C 0.88244 0.94498 0.33 0.0
H934 H 0.87012 0.99442 0.26926 0.0
C935 C 0.88302 0.96703 0.35442 0.0
H936 H 0.8785 0.93911 0.27992 0.0
C937 C 0.878 0.9987 0.34838 0.0
C938 C 0.87218 0.00896 0.31782 0.0
H939 H 0.88597 0.95968 0.37845 0.0
H940 H 0.8769 0.01486 0.3678 0.0
C941 C 0.87376 0.98716 0.29319 0.0
C942 C 0.02261 0.84938 0.31524 0.0
C943 C 1.0025 0.86783 0.33349 0.0
H944 H 0.06961 0.84196 0.29922 0.0
C945 C 0.01384 0.89564 0.34658 0.0
H946 H 0.01426 0.82775 0.30512 0.0
C947 C 0.04553 0.90341 0.34379 0.0
C948 C 0.06602 0.88406 0.32693 0.0
H949 H 0.99875 0.90995 0.36101 0.0
H950 H 0.05443 0.92351 0.35636 0.0
C951 C 0.05408 0.85767 0.3116 0.0
C952 C 0.13415 0.98845 0.71911 0.0
C953 C 0.13563 0.00831 0.69291 0.0
H954 H 0.12912 0.94159 0.73592 0.0
C955 C 0.12851 0.99607 0.66339 0.0
H956 H 0.13873 0.99736 0.74233 0.0
C957 C 0.12274 0.96415 0.65979 0.0
C958 C 0.12387 0.94389 0.68568 0.0
H959 H 0.12942 0.01076 0.64285 0.0
H960 H 0.11906 0.95513 0.63643 0.0
C961 C 0.12836 0.95654 0.71553 0.0
C962 C 0.05518 0.16401 0.70814 0.0
C963 C 0.06675 0.13396 0.70204 0.0
H964 H 0.01628 0.19542 0.7034 0.0
C965 C 0.04607 0.11079 0.69138 0.0
H966 H 0.0709 0.18249 0.71541 0.0
C967 C 0.01479 0.11808 0.68489 0.0
C968 C 1.00406 0.14891 0.68795 0.0
H969 H 0.05475 0.0877 0.68566 0.0
H970 H 0.99978 0.10037 0.67483 0.0
C971 C 0.02414 0.17152 0.70079 0.0
C972 C 0.88123 0.01225 0.66162 0.0
C973 C 0.87523 1.00182 0.69205 0.0
H974 H 0.88958 0.05143 0.6319 0.0
C975 C 0.87689 0.02346 0.71684 0.0
H976 H 0.8801 0.99625 0.64206 0.0
C977 C 0.88215 0.05515 0.71108 0.0
C978 C 0.88595 0.06586 0.68041 0.0
H979 H 0.87316 0.01607 0.7407 0.0
H980 H 0.88185 0.07139 0.7305 0.0
C981 C 0.8865 0.04394 0.65585 0.0
C982 C 0.98793 0.83688 0.70678 0.0
C983 C 0.00816 0.85886 0.69323 0.0
H984 H 0.94106 0.82679 0.72144 0.0
C985 C 0.99758 0.88956 0.68871 0.0
H986 H 0.99574 0.81314 0.71066 0.0
C987 C 0.96634 0.89726 0.69459 0.0
C988 C 0.94559 0.87466 0.70606 0.0
H989 H 0.01274 0.90681 0.67817 0.0
H990 H 0.95781 0.92014 0.68792 0.0
C991 C 0.95691 0.84483 0.71347 0.0
C992 C 0.33332 0.11885 0.01402 0.0
C993 C 0.32222 0.14768 1.0031 0.0
H994 H 0.34136 0.08994 0.05418 0.0
C995 C 0.30503 0.16693 0.02343 0.0
H996 H 0.34687 0.10382 0.99882 0.0
C997 C 0.30088 0.15851 0.05475 0.0
C998 C 0.31459 0.13109 0.06634 0.0
H999 H 0.29632 0.18929 0.01542 0.0
H1000 H 0.28965 0.17487 0.07048 0.0
C1001 C 0.33001 0.11087 0.04556 0.0
C1002 C 0.88802 0.35212 0.04285 0.0
C1003 C 0.88677 0.32731 0.0644 0.0
H1004 H 0.88277 0.36657 0.99525 0.0
C1005 C 0.88331 0.29679 0.05314 0.0
H1006 H 0.89092 0.37597 0.05076 0.0
C1007 C 0.87884 0.29146 0.02119 0.0
C1008 C 0.87762 0.31655 0.99989 0.0
H1009 H 0.88247 0.2772 0.0691 0.0
H1010 H 0.87521 0.26772 0.01335 0.0
C1011 C 0.88352 0.34679 0.01094 0.0
C1012 C 0.68256 0.88773 0.0192 0.0
C1013 C 0.69282 0.85817 0.00939 0.0
H1014 H 0.67529 0.91849 0.05804 0.0
C1015 C 0.70917 0.83913 0.03069 0.0
H1016 H 0.66984 0.9028 1.00335 0.0
C1017 C 0.7131 0.84851 0.0618 0.0
C1018 C 0.70027 0.87683 0.07214 0.0
H1019 H 0.71765 0.81638 0.02359 0.0
H1020 H 0.72357 0.8324 0.0783 0.0
C1021 C 0.6859 0.89679 0.0504 0.0
C1022 C 0.15944 0.71033 0.05881 0.0
C1023 C 0.13224 0.69575 0.06973 0.0
H1024 H 0.19047 0.71647 0.01991 0.0
C1025 C 0.11244 0.6805 0.0484 0.0
H1026 H 0.17545 0.72147 0.07501 0.0
C1027 C 0.12073 0.67819 0.01689 0.0
C1028 C 0.14944 0.69013 0.0066 0.0
H1029 H 0.09167 0.66855 0.05654 0.0
H1030 H 0.10612 0.66476 1.00117 0.0
C1031 C 0.1682 0.70716 0.0275 0.0
C1032 C 0.2966 0.87532 0.98914 0.0
C1033 C 0.32291 0.8758 0.00907 0.0
H1034 H 0.27931 0.87966 0.9423 0.0
C1035 C 0.35167 0.8858 0.99706 0.0
H1036 H 0.27388 0.86852 0.99789 0.0
C1037 C 0.35466 0.89247 0.96525 0.0
C1038 C 0.32891 0.88941 0.94488 0.0
H1039 H 0.37226 0.88649 0.0118 0.0
H1040 H 0.37761 0.89837 0.95634 0.0
C1041 C 0.29957 0.88205 0.95734 0.0
C1042 C 0.12542 0.35683 0.96486 0.0
C1043 C 0.12593 0.33079 0.94468 0.0
H1044 H 0.13121 0.37375 0.0117 0.0
C1045 C 0.1285 0.30087 0.95759 0.0
H1046 H 0.12318 0.38028 0.95566 0.0
C1047 C 0.13286 0.29724 0.98977 0.0
C1048 C 0.13488 0.32345 0.00967 0.0
H1049 H 0.12867 0.28038 0.94275 0.0
H1050 H 0.13586 0.27389 0.99891 0.0
C1051 C 0.12981 0.35319 0.99704 0.0
C1052 C 0.68126 0.1173 0.99013 0.0
C1053 C 0.69096 0.14687 1.0004 0.0
H1054 H 0.67548 0.08669 0.95088 0.0
C1055 C 0.70796 0.16602 0.97985 0.0
H1056 H 0.66805 0.10217 1.00545 0.0
C1057 C 0.71311 0.15674 0.9489 0.0
C1058 C 0.70079 0.12844 0.93795 0.0
H1059 H 0.71597 0.1888 0.98735 0.0
H1060 H 0.72405 0.17296 0.93289 0.0
C1061 C 0.68574 0.10835 0.95903 0.0
C1062 C 0.89106 0.65702 0.96752 0.0
C1063 C 0.89016 0.68158 0.94569 0.0
H1064 H 0.88425 0.64304 0.01504 0.0
C1065 C 0.88552 0.71215 0.9564 0.0
H1066 H 0.8948 0.63315 0.96 0.0
C1067 C 0.87958 0.71775 0.98801 0.0
C1068 C 0.87813 0.69288 0.0095 0.0
H1069 H 0.88488 0.73154 0.94019 0.0
H1070 H 0.87503 0.74148 0.99542 0.0
C1071 C 0.88517 0.66263 0.99912 0.0
C1072 C 0.01274 0.3337 0.12037 0.0
C1073 C 1.00119 0.32631 0.15011 0.0
H1074 H 0.05327 0.33682 0.09115 0.0
C1075 C 0.02078 0.31038 0.17125 0.0
H1076 H 0.99821 0.34599 0.10368 0.0
C1077 C 0.05206 0.30426 0.1637 0.0
C1078 C 0.06425 0.3144 0.13509 0.0
H1079 H 0.01229 0.30399 0.19417 0.0
H1080 H 0.06735 0.2944 0.18135 0.0
C1081 C 0.04412 0.32816 0.11308 0.0
C1082 C 0.02034 0.66578 0.89571 0.0
C1083 C 0.00906 0.67708 0.86708 0.0
H1084 H 0.06079 0.65855 0.92463 0.0
C1085 C 0.02892 0.69487 0.84801 0.0
H1086 H 1.00541 0.65183 0.91057 0.0
C1087 C 0.06013 0.69977 0.85659 0.0
C1088 C 0.07207 0.68621 0.88393 0.0
H1089 H 0.02056 0.70376 0.82584 0.0
H1090 H 0.07556 0.71172 0.8405 0.0
C1091 C 0.05182 0.66981 0.9038 0.0
C1092 C 0.3432 0.04949 0.8985 0.0
C1093 C 0.32545 0.07036 0.8804 0.0
H1094 H 0.36009 1.00259 0.90371 0.0
C1095 C 0.30827 0.05895 0.85491 0.0
H1096 H 0.35707 0.05797 0.91794 0.0
C1097 C 0.31086 0.02754 0.84618 0.0
C1098 C 0.33006 0.00702 0.86325 0.0
H1099 H 0.29506 0.07478 0.84019 0.0
H1100 H 0.29886 0.01951 0.82538 0.0
C1101 C 0.34509 0.01795 0.89028 0.0
C1102 C 0.9684 0.31465 0.89569 0.0
C1103 C 0.94771 0.30545 0.87188 0.0
H1104 H 0.01473 0.33032 0.90719 0.0
C1105 C 0.95922 0.30124 0.8415 0.0
H1106 H 0.95975 0.31896 0.91908 0.0
C1107 C 0.99025 0.30891 0.8345 0.0
C1108 C 0.01038 0.32022 0.8579 0.0
H1109 H 0.94347 0.29515 0.82259 0.0
H1110 H 0.99809 0.30768 0.8105 0.0
C1111 C 0.99968 0.32146 0.88885 0.0
C1112 C 0.72011 0.98237 0.8735 0.0
C1113 C 0.69379 1.00228 0.87249 0.0
H1114 H 0.73738 0.93583 0.88039 0.0
C1115 C 0.66481 0.99056 0.88223 0.0
H1116 H 0.74301 0.99085 0.86698 0.0
C1117 C 0.66172 0.95906 0.8903 0.0
C1118 C 0.68757 0.93864 0.88888 0.0
H1119 H 0.64417 1.00522 0.8818 0.0
H1120 H 0.63865 0.95039 0.89607 0.0
C1121 C 0.71703 0.95088 0.88155 0.0
C1122 C 0.99919 0.69213 0.12021 0.0
C1123 C 0.01027 0.69961 0.15014 0.0
H1124 H 0.95876 0.68719 0.09082 0.0
C1125 C 0.98988 0.71407 0.17148 0.0
H1126 H 0.01441 0.6807 0.10354 0.0
C1127 C 0.95835 0.71879 0.16387 0.0
C1128 C 0.94664 0.70842 0.13506 0.0
H1129 H 0.998 0.71999 0.19472 0.0
H1130 H 0.94259 0.72758 0.18163 0.0
C1131 C 0.96748 0.69602 0.11291 0.0
C1132 C 0.32441 0.99823 0.11761 0.0
C1133 C 0.31251 0.00914 0.14611 0.0
H1134 H 0.33443 0.95808 0.0894 0.0
C1135 C 0.29556 0.98849 0.16521 0.0
H1136 H 0.33765 0.01363 0.10258 0.0
C1137 C 0.2929 0.9569 0.15724 0.0
C1138 C 0.30767 0.94547 0.13035 0.0
H1139 H 0.28592 0.99648 0.18718 0.0
H1140 H 0.28208 0.94098 0.17364 0.0
C1141 C 0.32238 0.96654 0.11 0.0
C1142 C 0.71558 0.05629 0.12949 0.0
C1143 C 0.68621 0.06811 0.12101 0.0
H1144 H 0.7417 0.01651 0.14466 0.0
C1145 C 0.66088 0.04729 0.118 0.0
H1146 H 0.73552 0.07169 0.13187 0.0
C1147 C 0.66424 0.01577 0.12571 0.0
C1148 C 0.69299 1.00437 0.13665 0.0
H1149 H 0.63792 0.05565 0.11124 0.0
H1150 H 0.64386 1.00082 0.12493 0.0
C1151 C 0.71895 0.02471 0.13719 0.0
C1152 C 0.13031 0.27959 0.3094 0.0
C1153 C 0.13431 0.24776 0.30208 0.0
H1154 H 0.12787 0.32666 0.29224 0.0
C1155 C 0.13896 0.23936 0.27071 0.0
H1156 H 0.12661 0.28694 0.33332 0.0
C1157 C 0.13945 0.26202 0.24729 0.0
C1158 C 0.13548 0.2939 0.25444 0.0
H1159 H 0.14193 0.21513 0.26407 0.0
H1160 H 0.14236 0.25424 0.22345 0.0
C1161 C 0.13084 0.30239 0.28584 0.0
C1162 C 0.74396 0.15658 0.23807 0.0
C1163 C 0.71681 0.13832 0.24135 0.0
H1164 H 0.78842 0.1696 0.25693 0.0
C1165 C 0.71333 0.12011 0.26838 0.0
H1166 H 0.74705 0.17155 0.21797 0.0
C1167 C 0.73704 0.11921 0.29098 0.0
C1168 C 0.7647 0.13658 0.28706 0.0
H1169 H 0.69272 0.10582 0.2716 0.0
H1170 H 0.73402 0.10422 0.3111 0.0
C1171 C 0.7676 0.15571 0.2606 0.0
C1172 C 0.87446 0.73617 0.3112 0.0
C1173 C 0.87145 0.76835 0.30516 0.0
H1174 H 0.87724 0.68994 0.292 0.0
C1175 C 0.86886 0.7783 0.27402 0.0
H1176 H 0.87655 0.72766 0.33491 0.0
C1177 C 0.86949 0.75676 0.24955 0.0
C1178 C 0.8726 0.72455 0.25543 0.0
H1179 H 0.86668 0.80287 0.26842 0.0
H1180 H 0.86815 0.76559 0.22594 0.0
C1181 C 0.87507 0.71452 0.2866 0.0
C1182 C 0.29869 0.88411 0.28289 0.0
C1183 C 0.29029 0.87942 0.25153 0.0
H1184 H 0.28322 0.88778 0.33026 0.0
C1185 C 0.25844 0.87493 0.24418 0.0
H1186 H 0.32294 0.88741 0.28938 0.0
C1187 C 0.23566 0.87491 0.26755 0.0
C1188 C 0.24406 0.87952 0.29891 0.0
H1189 H 0.25086 0.87192 0.22026 0.0
H1190 H 0.21142 0.87155 0.26094 0.0
C1191 C 0.27586 0.88411 0.30632 0.0
C1192 C 0.14339 0.77631 0.74831 0.0
C1193 C 0.14062 0.76722 0.71687 0.0
H1194 H 0.14613 0.76177 0.796 0.0
C1195 C 0.13965 0.73518 0.70972 0.0
H1196 H 0.1442 0.80078 0.75467 0.0
C1197 C 0.14095 0.71279 0.73341 0.0
C1198 C 0.14327 0.72181 0.7649 0.0
H1199 H 0.13768 0.72727 0.68576 0.0
H1200 H 0.14028 0.68837 0.72699 0.0
C1201 C 0.1447 0.75388 0.77204 0.0
C1202 C 0.24434 0.15956 0.74157 0.0
C1203 C 0.24616 0.13814 0.71679 0.0
H1204 H 0.26625 0.17859 0.78217 0.0
C1205 C 0.2733 0.11981 0.71376 0.0
H1206 H 0.2239 0.17425 0.74443 0.0
C1207 C 0.29746 0.12187 0.73574 0.0
C1208 C 0.29527 0.1425 0.76126 0.0
H1209 H 0.27552 0.10303 0.69495 0.0
H1210 H 0.31734 0.10647 0.73313 0.0
C1211 C 0.26864 0.16185 0.76341 0.0
C1212 C 0.87031 0.25546 0.75973 0.0
C1213 C 0.87445 0.28753 0.75368 0.0
H1214 H 0.86769 0.20916 0.74131 0.0
C1215 C 0.87903 0.29702 0.72259 0.0
H1216 H 0.86739 0.24691 0.78328 0.0
C1217 C 0.87953 0.27502 0.69828 0.0
C1218 C 0.87546 0.243 0.70451 0.0
H1219 H 0.88206 0.32146 0.717 0.0
H1220 H 0.88328 0.28313 0.67464 0.0
C1221 C 0.8707 0.23359 0.73553 0.0
C1222 C 0.71578 0.88964 0.74176 0.0
C1223 C 0.71952 0.87118 0.76858 0.0
H1224 H 0.7363 0.90617 0.69931 0.0
C1225 C 0.74686 0.85312 0.77181 0.0
H1226 H 0.69498 0.90373 0.73863 0.0
C1227 C 0.77048 0.85445 0.74943 0.0
C1228 C 0.76734 0.87385 0.7232 0.0
H1229 H 0.75012 0.83795 0.79175 0.0
H1230 H 0.79147 0.8407 0.75304 0.0
C1231 C 0.73949 0.89101 0.71929 0.0
C1232 C 0.26066 0.12379 0.27647 0.0
C1233 C 0.2445 0.14922 0.28951 0.0
H1234 H 0.29212 0.10808 0.24069 0.0
C1235 C 0.24923 0.17915 0.2771 0.0
H1236 H 0.25708 0.10045 0.28544 0.0
C1237 C 0.26937 0.18363 0.25189 0.0
C1238 C 0.28483 0.15814 0.23809 0.0
H1239 H 0.23703 0.19908 0.28681 0.0
H1240 H 0.27216 0.20701 0.2427 0.0
C1241 C 0.28043 0.12816 0.25074 0.0
C1242 C 0.88674 0.29052 0.2474 0.0
C1243 C 0.85646 0.29922 0.23778 0.0
H1244 H 0.9144 0.26203 0.2783 0.0
C1245 C 0.83054 0.28634 0.25326 0.0
H1246 H 0.90714 0.30016 0.23596 0.0
C1247 C 0.83476 0.26438 0.27699 0.0
C1248 C 0.86492 0.25538 0.28634 0.0
H1249 H 0.80693 0.29243 0.24632 0.0
H1250 H 0.81443 0.25394 0.28781 0.0
C1251 C 0.89093 0.26903 0.27176 0.0
C1252 C 0.73933 0.85552 0.24856 0.0
C1253 C 0.7139 0.87625 0.25091 0.0
H1254 H 0.78099 0.83752 0.26961 0.0
C1255 C 0.711 0.89444 0.27809 0.0
H1256 H 0.74221 0.84098 0.22804 0.0
C1257 C 0.73353 0.89283 0.30181 0.0
C1258 C 0.75956 0.87281 0.29916 0.0
H1259 H 0.6918 0.91075 0.28072 0.0
H1260 H 0.73084 0.90809 0.32174 0.0
C1261 C 0.76178 0.85373 0.2724 0.0
C1262 C 0.14028 0.70922 0.27866 0.0
C1263 C 0.1428 0.71651 0.24675 0.0
H1264 H 0.13819 0.72632 0.32557 0.0
C1265 C 0.14576 0.74801 0.23805 0.0
H1266 H 0.13808 0.68521 0.28626 0.0
C1267 C 0.14554 0.77165 0.26063 0.0
C1268 C 0.14243 0.76444 0.29254 0.0
H1269 H 0.1477 0.75454 0.21369 0.0
H1270 H 0.14704 0.79562 0.25286 0.0
C1271 C 0.14012 0.73286 0.30125 0.0
C1272 C 0.28502 0.88702 0.76232 0.0
C1273 C 0.28884 0.85725 0.77571 0.0
H1274 H 0.26145 0.91455 0.72746 0.0
C1275 C 0.27199 0.832 0.76319 0.0
H1276 H 0.29778 0.9069 0.77137 0.0
C1277 C 0.25116 0.8365 0.73851 0.0
C1278 C 0.24703 0.8662 0.72534 0.0
H1279 H 0.27432 0.80878 0.77294 0.0
H1280 H 0.23802 0.81673 0.72973 0.0
C1281 C 0.26449 0.89138 0.73709 0.0
C1282 C 0.14148 0.26869 0.77605 0.0
C1283 C 0.13708 0.29994 0.7673 0.0
H1284 H 0.14423 0.22125 0.7615 0.0
C1285 C 0.13284 0.30698 0.73543 0.0
H1286 H 0.14453 0.26235 0.80035 0.0
C1287 C 0.13296 0.28326 0.71287 0.0
C1288 C 0.13737 0.25198 0.72165 0.0
H1289 H 0.12933 0.33084 0.72784 0.0
H1290 H 0.12991 0.28944 0.68855 0.0
C1291 C 0.1415 0.24505 0.75357 0.0
C1292 C 0.74415 0.15234 0.7621 0.0
C1293 C 0.71848 0.13208 0.75907 0.0
H1294 H 0.78564 0.17077 0.74147 0.0
C1295 C 0.71496 0.11522 0.7311 0.0
H1296 H 0.74747 0.16589 0.78323 0.0
C1297 C 0.73714 0.11762 0.70723 0.0
C1298 C 0.76344 0.13714 0.71053 0.0
H1299 H 0.69549 0.09938 0.7279 0.0
H1300 H 0.73396 0.10339 0.68663 0.0
C1301 C 0.76625 0.15494 0.73812 0.0
C1302 C 0.87438 0.73744 0.77868 0.0
C1303 C 0.87632 0.70621 0.7688 0.0
H1304 H 0.87271 0.78544 0.76569 0.0
C1305 C 0.87744 0.69996 0.73651 0.0
H1306 H 0.87361 0.74324 0.8033 0.0
C1307 C 0.87672 0.72439 0.71471 0.0
C1308 C 0.8747 0.75563 0.72467 0.0
H1309 H 0.87897 0.67618 0.72803 0.0
H1310 H 0.87739 0.71881 0.69006 0.0
C1311 C 0.87362 0.76176 0.75697 0.0
C1312 C 0.26354 0.24906 0.1567 0.0
C1313 C 0.28993 0.25173 0.13728 0.0
H1314 H 0.21995 0.26872 0.17129 0.0
C1315 C 0.29328 0.27862 0.11889 0.0
H1316 H 0.26065 0.22909 0.17188 0.0
C1317 C 0.26998 0.30164 0.11882 0.0
C1318 C 0.24291 0.2982 0.13719 0.0
H1319 H 0.31334 0.28136 0.10376 0.0
H1320 H 0.27276 0.3216 0.10358 0.0
C1321 C 0.2403 0.27197 0.15663 0.0
C1322 C 0.2811 0.71101 0.87718 0.0
C1323 C 0.24903 0.71827 0.8785 0.0
H1324 H 0.32801 0.72798 0.87658 0.0
C1325 C 0.24005 0.7497 0.88127 0.0
H1326 H 0.28889 0.68703 0.87502 0.0
C1327 C 0.26265 0.77329 0.8827 0.0
C1328 C 0.2948 0.76607 0.8811 0.0
H1329 H 0.21557 0.7561 0.8827 0.0
H1330 H 0.25479 0.79716 0.88524 0.0
C1331 C 0.30365 0.73456 0.87839 0.0
C1332 C 0.30696 0.27956 0.87276 0.0
C1333 C 0.29984 0.24756 0.87073 0.0
H1334 H 0.28963 0.32641 0.87434 0.0
C1335 C 0.26825 0.2387 0.86824 0.0
H1336 H 0.33099 0.28735 0.87458 0.0
C1337 C 0.24441 0.26122 0.8683 0.0
C1338 C 0.2515 0.29323 0.87087 0.0
H1339 H 0.26184 0.21429 0.86665 0.0
H1340 H 0.2204 0.25339 0.86704 0.0
C1341 C 0.28314 0.30205 0.87284 0.0
C1342 C 0.74353 0.24723 0.84363 0.0
C1343 C 0.71872 0.24677 0.86527 0.0
H1344 H 0.78715 0.26768 0.83015 0.0
C1345 C 0.71804 0.26963 0.88883 0.0
H1346 H 0.74447 0.23054 0.82467 0.0
C1347 C 0.74237 0.29132 0.89163 0.0
C1348 C 0.76803 0.29048 0.87108 0.0
H1349 H 0.69948 0.26998 0.90596 0.0
H1350 H 0.74165 0.30791 0.91072 0.0
C1351 C 0.76798 0.26864 0.84664 0.0
C1352 C 0.74572 0.75785 0.83496 0.0
C1353 C 0.72824 0.76929 0.8603 0.0
H1354 H 0.77998 0.72501 0.81905 0.0
C1355 C 0.7317 0.75496 0.88966 0.0
H1356 H 0.74373 0.76841 0.81206 0.0
C1357 C 0.75222 0.72964 0.89347 0.0
C1358 C 0.7701 0.71871 0.86817 0.0
H1359 H 0.71847 0.76322 0.90959 0.0
H1360 H 0.75477 0.71914 0.91632 0.0
C1361 C 0.76657 0.73307 0.83893 0.0
C1362 C 0.74004 0.76014 0.1666 0.0
C1363 C 0.71551 0.76066 0.14454 0.0
H1364 H 0.7842 0.74058 0.18006 0.0
C1365 C 0.71587 0.73862 0.1202 0.0
H1366 H 0.74019 0.77615 0.18616 0.0
C1367 C 0.74095 0.71778 0.11708 0.0
C1368 C 0.76634 0.71871 0.13805 0.0
H1369 H 0.69758 0.73834 0.10272 0.0
H1370 H 0.74102 0.70184 0.09742 0.0
C1371 C 0.76527 0.73964 0.16322 0.0
C1372 C 0.28043 0.71706 0.12405 0.0
C1373 C 0.25386 0.72031 0.1432 0.0
H1374 H 0.32299 0.73737 0.10742 0.0
C1375 C 0.25177 0.74694 0.16248 0.0
H1376 H 0.28315 0.69712 0.10881 0.0
C1377 C 0.27463 0.77028 0.16139 0.0
C1378 C 0.30044 0.76753 0.14131 0.0
H1379 H 0.23228 0.75017 0.17819 0.0
H1380 H 0.27169 0.79083 0.17587 0.0
C1381 C 0.30345 0.74028 0.12322 0.0
C1382 C 0.73986 0.25075 0.17184 0.0
C1383 C 0.72227 0.23876 0.14681 0.0
H1384 H 0.7744 0.28366 0.18682 0.0
C1385 C 0.72562 0.25231 0.11707 0.0
H1386 H 0.73796 0.24078 0.195 0.0
C1387 C 0.74624 0.27738 0.11256 0.0
C1388 C 0.76433 0.2887 0.13754 0.0
H1389 H 0.71228 0.2436 0.09737 0.0
H1390 H 0.74875 0.28734 0.08947 0.0
C1391 C 0.76083 0.2752 0.16718 0.0
loop_
_geom_bond_atom_site_label_1
_geom_bond_atom_site_label_2
_geom_bond_distance
_geom_bond_site_symmetry_2
_ccdc_geom_bond_type
Co0 N4 2.148 . S
Co0 N10 2.128 . S
Co0 N20 2.194 . S
Co0 O25 2.351 . S
Co0 O26 2.155 . S
Co0 O27 2.096 . S
C1 N4 1.301 . S
C1 N5 1.328 . S
C1 H6 0.930 . S
C2 C3 1.333 . S
C2 N4 1.317 . S
C2 H7 0.930 . S
C3 C2 1.333 . S
C3 N5 1.350 . S
C3 H29 0.931 . S
N4 Co0 2.148 . S
N4 C1 1.301 . S
N4 C2 1.317 . S
N5 C1 1.328 . S
N5 C3 1.350 . S
H6 C1 0.930 . S
H7 C2 0.930 . S
C8 O9 1.224 . S
C8 O27 1.247 . S
O9 C8 1.224 . S
N10 Co0 2.128 . S
N10 C11 1.355 . S
N10 C13 1.311 . S
C11 N10 1.355 . S
C11 C12 1.363 . S
C11 H23 0.929 . S
C12 C11 1.363 . S
C12 N14 1.375 . S
C12 H30 0.931 . S
C13 N10 1.311 . S
C13 N14 1.347 . S
C13 H24 0.929 . S
N14 C12 1.375 . S
N14 C13 1.347 . S
C15 C18 1.365 . S
C15 N20 1.328 . S
C15 H21 0.929 . S
C16 C17 1.362 . S
C16 C19 1.378 . S
C16 H31 0.929 . S
C17 C16 1.362 . S
C17 C18 1.366 . S
C18 C15 1.365 . S
C18 C17 1.366 . S
C18 H32 0.930 . S
C19 C16 1.378 . S
C19 N20 1.315 . S
C19 H22 0.930 . S
N20 Co0 2.194 . S
N20 C15 1.328 . S
N20 C19 1.315 . S
H21 C15 0.929 . S
H22 C19 0.930 . S
H23 C11 0.929 . S
H24 C13 0.929 . S
O25 Co0 2.351 . S
O25 C28 1.244 . S
O26 Co0 2.155 . S
O26 C28 1.240 . S
O27 Co0 2.096 . S
O27 C8 1.247 . S
C28 O25 1.244 . S
C28 O26 1.240 . S
H29 C3 0.931 . S
H30 C12 0.931 . S
H31 C16 0.929 . S
H32 C18 0.930 . S
Co33 N37 2.148 . S
Co33 N43 2.128 . S
Co33 N53 2.194 . S
Co33 O58 2.351 . S
Co33 O59 2.155 . S
Co33 O60 2.096 . S
C34 N37 1.301 . S
C34 N38 1.328 . S
C34 H39 0.930 . S
C35 C36 1.333 . S
C35 N37 1.317 . S
C35 H40 0.930 . S
C36 C35 1.333 . S
C36 N38 1.350 . S
C36 H62 0.931 . S
N37 Co33 2.148 . S
N37 C34 1.301 . S
N37 C35 1.317 . S
N38 C34 1.328 . S
N38 C36 1.350 . S
H39 C34 0.930 . S
H40 C35 0.930 . S
C41 O42 1.224 . S
C41 O60 1.247 . S
O42 C41 1.224 . S
N43 Co33 2.128 . S
N43 C44 1.355 . S
N43 C46 1.311 . S
C44 N43 1.355 . S
C44 C45 1.363 . S
C44 H56 0.929 . S
C45 C44 1.363 . S
C45 N47 1.375 . S
C45 H63 0.931 . S
C46 N43 1.311 . S
C46 N47 1.347 . S
C46 H57 0.929 . S
N47 C45 1.375 . S
N47 C46 1.347 . S
C48 C51 1.365 . S
C48 N53 1.328 . S
C48 H54 0.929 . S
C49 C50 1.362 . S
C49 C52 1.378 . S
C49 H64 0.929 . S
C50 C49 1.362 . S
C50 C51 1.366 . S
C51 C48 1.365 . S
C51 C50 1.366 . S
C51 H65 0.930 . S
C52 C49 1.378 . S
C52 N53 1.315 . S
C52 H55 0.930 . S
N53 Co33 2.194 . S
N53 C48 1.328 . S
N53 C52 1.315 . S
H54 C48 0.929 . S
H55 C52 0.930 . S
H56 C44 0.929 . S
H57 C46 0.929 . S
O58 Co33 2.351 . S
O58 C61 1.244 . S
O59 Co33 2.155 . S
O59 C61 1.240 . S
O60 Co33 2.096 . S
O60 C41 1.247 . S
C61 O58 1.244 . S
C61 O59 1.240 . S
H62 C36 0.931 . S
H63 C45 0.931 . S
H64 C49 0.929 . S
H65 C51 0.930 . S
Co66 N70 2.148 . S
Co66 N76 2.128 . S
Co66 N86 2.194 . S
Co66 O91 2.351 . S
Co66 O92 2.155 . S
Co66 O93 2.096 . S
C67 N70 1.301 . S
C67 N71 1.328 . S
C67 H72 0.930 . S
C68 C69 1.333 . S
C68 N70 1.317 . S
C68 H73 0.930 . S
C69 C68 1.333 . S
C69 N71 1.350 . S
C69 H95 0.931 . S
N70 Co66 2.148 . S
N70 C67 1.301 . S
N70 C68 1.317 . S
N71 C67 1.328 . S
N71 C69 1.350 . S
H72 C67 0.930 . S
H73 C68 0.930 . S
C74 O75 1.224 . S
C74 O93 1.247 . S
O75 C74 1.224 . S
N76 Co66 2.128 . S
N76 C77 1.355 . S
N76 C79 1.311 . S
C77 N76 1.355 . S
C77 C78 1.363 . S
C77 H89 0.929 . S
C78 C77 1.363 . S
C78 N80 1.375 . S
C78 H96 0.931 . S
C79 N76 1.311 . S
C79 N80 1.347 . S
C79 H90 0.929 . S
N80 C78 1.375 . S
N80 C79 1.347 . S
C81 C84 1.365 . S
C81 N86 1.328 . S
C81 H87 0.929 . S
C82 C83 1.362 . S
C82 C85 1.378 . S
C82 H97 0.929 . S
C83 C82 1.362 . S
C83 C84 1.366 . S
C84 C81 1.365 . S
C84 C83 1.366 . S
C84 H98 0.930 . S
C85 C82 1.378 . S
C85 N86 1.315 . S
C85 H88 0.930 . S
N86 Co66 2.194 . S
N86 C81 1.328 . S
N86 C85 1.315 . S
H87 C81 0.929 . S
H88 C85 0.930 . S
H89 C77 0.929 . S
H90 C79 0.929 . S
O91 Co66 2.351 . S
O91 C94 1.244 . S
O92 Co66 2.155 . S
O92 C94 1.240 . S
O93 Co66 2.096 . S
O93 C74 1.247 . S
C94 O91 1.244 . S
C94 O92 1.240 . S
H95 C69 0.931 . S
H96 C78 0.931 . S
H97 C82 0.929 . S
H98 C84 0.930 . S
Co99 N103 2.148 . S
Co99 N109 2.128 . S
Co99 N119 2.194 . S
Co99 O124 2.351 . S
Co99 O125 2.155 . S
Co99 O126 2.096 . S
C100 N103 1.301 . S
C100 N104 1.328 . S
C100 H105 0.930 . S
C101 C102 1.333 . S
C101 N103 1.317 . S
C101 H106 0.930 . S
C102 C101 1.333 . S
C102 N104 1.350 . S
C102 H128 0.931 . S
N103 Co99 2.148 . S
N103 C100 1.301 . S
N103 C101 1.317 . S
N104 C100 1.328 . S
N104 C102 1.350 . S
H105 C100 0.930 . S
H106 C101 0.930 . S
C107 O108 1.224 . S
C107 O126 1.247 . S
O108 C107 1.224 . S
N109 Co99 2.128 . S
N109 C110 1.355 . S
N109 C112 1.311 . S
C110 N109 1.355 . S
C110 C111 1.363 . S
C110 H122 0.929 . S
C111 C110 1.363 . S
C111 N113 1.375 . S
C111 H129 0.931 . S
C112 N109 1.311 . S
C112 N113 1.347 . S
C112 H123 0.929 . S
N113 C111 1.375 . S
N113 C112 1.347 . S
C114 C117 1.365 . S
C114 N119 1.328 . S
C114 H120 0.929 . S
C115 C116 1.362 . S
C115 C118 1.378 . S
C115 H130 0.929 . S
C116 C115 1.362 . S
C116 C117 1.366 . S
C117 C114 1.365 . S
C117 C116 1.366 . S
C117 H131 0.930 . S
C118 C115 1.378 . S
C118 N119 1.315 . S
C118 H121 0.930 . S
N119 Co99 2.194 . S
N119 C114 1.328 . S
N119 C118 1.315 . S
H120 C114 0.929 . S
H121 C118 0.930 . S
H122 C110 0.929 . S
H123 C112 0.929 . S
O124 Co99 2.351 . S
O124 C127 1.244 . S
O125 Co99 2.155 . S
O125 C127 1.240 . S
O126 Co99 2.096 . S
O126 C107 1.247 . S
C127 O124 1.244 . S
C127 O125 1.240 . S
H128 C102 0.931 . S
H129 C111 0.931 . S
H130 C115 0.929 . S
H131 C117 0.930 . S
Co132 N136 2.148 . S
Co132 N142 2.128 . S
Co132 N152 2.194 . S
Co132 O157 2.351 . S
Co132 O158 2.155 . S
Co132 O159 2.096 . S
C133 N136 1.301 . S
C133 N137 1.328 . S
C133 H138 0.930 . S
C134 C135 1.333 . S
C134 N136 1.317 . S
C134 H139 0.930 . S
C135 C134 1.333 . S
C135 N137 1.350 . S
C135 H161 0.931 . S
N136 Co132 2.148 . S
N136 C133 1.301 . S
N136 C134 1.317 . S
N137 C133 1.328 . S
N137 C135 1.350 . S
H138 C133 0.930 . S
H139 C134 0.930 . S
C140 O141 1.224 . S
C140 O159 1.247 . S
O141 C140 1.224 . S
N142 Co132 2.128 . S
N142 C143 1.355 . S
N142 C145 1.311 . S
C143 N142 1.355 . S
C143 C144 1.363 . S
C143 H155 0.929 . S
C144 C143 1.363 . S
C144 N146 1.375 . S
C144 H162 0.931 . S
C145 N142 1.311 . S
C145 N146 1.347 . S
C145 H156 0.929 . S
N146 C144 1.375 . S
N146 C145 1.347 . S
C147 C150 1.365 . S
C147 N152 1.328 . S
C147 H153 0.929 . S
C148 C149 1.362 . S
C148 C151 1.378 . S
C148 H163 0.929 . S
C149 C148 1.362 . S
C149 C150 1.366 . S
C150 C147 1.365 . S
C150 C149 1.366 . S
C150 H164 0.930 . S
C151 C148 1.378 . S
C151 N152 1.315 . S
C151 H154 0.930 . S
N152 Co132 2.194 . S
N152 C147 1.328 . S
N152 C151 1.315 . S
H153 C147 0.929 . S
H154 C151 0.930 . S
H155 C143 0.929 . S
H156 C145 0.929 . S
O157 Co132 2.351 . S
O157 C160 1.244 . S
O158 Co132 2.155 . S
O158 C160 1.240 . S
O159 Co132 2.096 . S
O159 C140 1.247 . S
C160 O157 1.244 . S
C160 O158 1.240 . S
H161 C135 0.931 . S
H162 C144 0.931 . S
H163 C148 0.929 . S
H164 C150 0.930 . S
Co165 N169 2.148 . S
Co165 N175 2.128 . S
Co165 N185 2.194 . S
Co165 O190 2.351 . S
Co165 O191 2.155 . S
Co165 O192 2.096 . S
C166 N169 1.301 . S
C166 N170 1.328 . S
C166 H171 0.930 . S
C167 C168 1.333 . S
C167 N169 1.317 . S
C167 H172 0.930 . S
C168 C167 1.333 . S
C168 N170 1.350 . S
C168 H194 0.931 . S
N169 Co165 2.148 . S
N169 C166 1.301 . S
N169 C167 1.317 . S
N170 C166 1.328 . S
N170 C168 1.350 . S
H171 C166 0.930 . S
H172 C167 0.930 . S
C173 O174 1.224 . S
C173 O192 1.247 . S
O174 C173 1.224 . S
N175 Co165 2.128 . S
N175 C176 1.355 . S
N175 C178 1.311 . S
C176 N175 1.355 . S
C176 C177 1.363 . S
C176 H188 0.929 . S
C177 C176 1.363 . S
C177 N179 1.375 . S
C177 H195 0.931 . S
C178 N175 1.311 . S
C178 N179 1.347 . S
C178 H189 0.929 . S
N179 C177 1.375 . S
N179 C178 1.347 . S
C180 C183 1.365 . S
C180 N185 1.328 . S
C180 H186 0.929 . S
C181 C182 1.362 . S
C181 C184 1.378 . S
C181 H196 0.929 . S
C182 C181 1.362 . S
C182 C183 1.366 . S
C183 C180 1.365 . S
C183 C182 1.366 . S
C183 H197 0.930 . S
C184 C181 1.378 . S
C184 N185 1.315 . S
C184 H187 0.930 . S
N185 Co165 2.194 . S
N185 C180 1.328 . S
N185 C184 1.315 . S
H186 C180 0.929 . S
H187 C184 0.930 . S
H188 C176 0.929 . S
H189 C178 0.929 . S
O190 Co165 2.351 . S
O190 C193 1.244 . S
O191 Co165 2.155 . S
O191 C193 1.240 . S
O192 Co165 2.096 . S
O192 C173 1.247 . S
C193 O190 1.244 . S
C193 O191 1.240 . S
H194 C168 0.931 . S
H195 C177 0.931 . S
H196 C181 0.929 . S
H197 C183 0.930 . S
Co198 N202 2.148 . S
Co198 N208 2.128 . S
Co198 N218 2.194 . S
Co198 O223 2.351 . S
Co198 O224 2.155 . S
Co198 O225 2.096 . S
C199 N202 1.301 . S
C199 N203 1.328 . S
C199 H204 0.930 . S
C200 C201 1.333 . S
C200 N202 1.317 . S
C200 H205 0.930 . S
C201 C200 1.333 . S
C201 N203 1.350 . S
C201 H227 0.931 . S
N202 Co198 2.148 . S
N202 C199 1.301 . S
N202 C200 1.317 . S
N203 C199 1.328 . S
N203 C201 1.350 . S
H204 C199 0.930 . S
H205 C200 0.930 . S
C206 O207 1.224 . S
C206 O225 1.247 . S
O207 C206 1.224 . S
N208 Co198 2.128 . S
N208 C209 1.355 . S
N208 C211 1.311 . S
C209 N208 1.355 . S
C209 C210 1.363 . S
C209 H221 0.929 . S
C210 C209 1.363 . S
C210 N212 1.375 . S
C210 H228 0.931 . S
C211 N208 1.311 . S
C211 N212 1.347 . S
C211 H222 0.929 . S
N212 C210 1.375 . S
N212 C211 1.347 . S
C213 C216 1.365 . S
C213 N218 1.328 . S
C213 H219 0.929 . S
C214 C215 1.362 . S
C214 C217 1.378 . S
C214 H229 0.929 . S
C215 C214 1.362 . S
C215 C216 1.366 . S
C216 C213 1.365 . S
C216 C215 1.366 . S
C216 H230 0.930 . S
C217 C214 1.378 . S
C217 N218 1.315 . S
C217 H220 0.930 . S
N218 Co198 2.194 . S
N218 C213 1.328 . S
N218 C217 1.315 . S
H219 C213 0.929 . S
H220 C217 0.930 . S
H221 C209 0.929 . S
H222 C211 0.929 . S
O223 Co198 2.351 . S
O223 C226 1.244 . S
O224 Co198 2.155 . S
O224 C226 1.240 . S
O225 Co198 2.096 . S
O225 C206 1.247 . S
C226 O223 1.244 . S
C226 O224 1.240 . S
H227 C201 0.931 . S
H228 C210 0.931 . S
H229 C214 0.929 . S
H230 C216 0.930 . S
Co231 N235 2.148 . S
Co231 N241 2.128 . S
Co231 N251 2.194 . S
Co231 O256 2.351 . S
Co231 O257 2.155 . S
Co231 O258 2.096 . S
C232 N235 1.301 . S
C232 N236 1.328 . S
C232 H237 0.930 . S
C233 C234 1.333 . S
C233 N235 1.317 . S
C233 H238 0.930 . S
C234 C233 1.333 . S
C234 N236 1.350 . S
C234 H260 0.931 . S
N235 Co231 2.148 . S
N235 C232 1.301 . S
N235 C233 1.317 . S
N236 C232 1.328 . S
N236 C234 1.350 . S
H237 C232 0.930 . S
H238 C233 0.930 . S
C239 O240 1.224 . S
C239 O258 1.247 . S
O240 C239 1.224 . S
N241 Co231 2.128 . S
N241 C242 1.355 . S
N241 C244 1.311 . S
C242 N241 1.355 . S
C242 C243 1.363 . S
C242 H254 0.929 . S
C243 C242 1.363 . S
C243 N245 1.375 . S
C243 H261 0.931 . S
C244 N241 1.311 . S
C244 N245 1.347 . S
C244 H255 0.929 . S
N245 C243 1.375 . S
N245 C244 1.347 . S
C246 C249 1.365 . S
C246 N251 1.328 . S
C246 H252 0.929 . S
C247 C248 1.362 . S
C247 C250 1.378 . S
C247 H262 0.929 . S
C248 C247 1.362 . S
C248 C249 1.366 . S
C249 C246 1.365 . S
C249 C248 1.366 . S
C249 H263 0.930 . S
C250 C247 1.378 . S
C250 N251 1.315 . S
C250 H253 0.930 . S
N251 Co231 2.194 . S
N251 C246 1.328 . S
N251 C250 1.315 . S
H252 C246 0.929 . S
H253 C250 0.930 . S
H254 C242 0.929 . S
H255 C244 0.929 . S
O256 Co231 2.351 . S
O256 C259 1.244 . S
O257 Co231 2.155 . S
O257 C259 1.240 . S
O258 Co231 2.096 . S
O258 C239 1.247 . S
C259 O256 1.244 . S
C259 O257 1.240 . S
H260 C234 0.931 . S
H261 C243 0.931 . S
H262 C247 0.929 . S
H263 C249 0.930 . S
Co264 N268 2.148 . S
Co264 N274 2.128 . S
Co264 N284 2.194 . S
Co264 O289 2.351 . S
Co264 O290 2.155 . S
Co264 O291 2.096 . S
C265 N268 1.301 . S
C265 N269 1.328 . S
C265 H270 0.930 . S
C266 C267 1.333 . S
C266 N268 1.317 . S
C266 H271 0.930 . S
C267 C266 1.333 . S
C267 N269 1.350 . S
C267 H293 0.931 . S
N268 Co264 2.148 . S
N268 C265 1.301 . S
N268 C266 1.317 . S
N269 C265 1.328 . S
N269 C267 1.350 . S
H270 C265 0.930 . S
H271 C266 0.930 . S
C272 O273 1.224 . S
C272 O291 1.247 . S
O273 C272 1.224 . S
N274 Co264 2.128 . S
N274 C275 1.355 . S
N274 C277 1.311 . S
C275 N274 1.355 . S
C275 C276 1.363 . S
C275 H287 0.929 . S
C276 C275 1.363 . S
C276 N278 1.375 . S
C276 H294 0.931 . S
C277 N274 1.311 . S
C277 N278 1.347 . S
C277 H288 0.929 . S
N278 C276 1.375 . S
N278 C277 1.347 . S
C279 C282 1.365 . S
C279 N284 1.328 . S
C279 H285 0.929 . S
C280 C281 1.362 . S
C280 C283 1.378 . S
C280 H295 0.929 . S
C281 C280 1.362 . S
C281 C282 1.366 . S
C282 C279 1.365 . S
C282 C281 1.366 . S
C282 H296 0.930 . S
C283 C280 1.378 . S
C283 N284 1.315 . S
C283 H286 0.930 . S
N284 Co264 2.194 . S
N284 C279 1.328 . S
N284 C283 1.315 . S
H285 C279 0.929 . S
H286 C283 0.930 . S
H287 C275 0.929 . S
H288 C277 0.929 . S
O289 Co264 2.351 . S
O289 C292 1.244 . S
O290 Co264 2.155 . S
O290 C292 1.240 . S
O291 Co264 2.096 . S
O291 C272 1.247 . S
C292 O289 1.244 . S
C292 O290 1.240 . S
H293 C267 0.931 . S
H294 C276 0.931 . S
H295 C280 0.929 . S
H296 C282 0.930 . S
Co297 N301 2.148 . S
Co297 N307 2.128 . S
Co297 N317 2.194 . S
Co297 O322 2.351 . S
Co297 O323 2.155 . S
Co297 O324 2.096 . S
C298 N301 1.301 . S
C298 N302 1.328 . S
C298 H303 0.930 . S
C299 C300 1.333 . S
C299 N301 1.317 . S
C299 H304 0.930 . S
C300 C299 1.333 . S
C300 N302 1.350 . S
C300 H326 0.931 . S
N301 Co297 2.148 . S
N301 C298 1.301 . S
N301 C299 1.317 . S
N302 C298 1.328 . S
N302 C300 1.350 . S
H303 C298 0.930 . S
H304 C299 0.930 . S
C305 O306 1.224 . S
C305 O324 1.247 . S
O306 C305 1.224 . S
N307 Co297 2.128 . S
N307 C308 1.355 . S
N307 C310 1.311 . S
C308 N307 1.355 . S
C308 C309 1.363 . S
C308 H320 0.929 . S
C309 C308 1.363 . S
C309 N311 1.375 . S
C309 H327 0.931 . S
C310 N307 1.311 . S
C310 N311 1.347 . S
C310 H321 0.929 . S
N311 C309 1.375 . S
N311 C310 1.347 . S
C312 C315 1.365 . S
C312 N317 1.328 . S
C312 H318 0.929 . S
C313 C314 1.362 . S
C313 C316 1.378 . S
C313 H328 0.929 . S
C314 C313 1.362 . S
C314 C315 1.366 . S
C315 C312 1.365 . S
C315 C314 1.366 . S
C315 H329 0.930 . S
C316 C313 1.378 . S
C316 N317 1.315 . S
C316 H319 0.930 . S
N317 Co297 2.194 . S
N317 C312 1.328 . S
N317 C316 1.315 . S
H318 C312 0.929 . S
H319 C316 0.930 . S
H320 C308 0.929 . S
H321 C310 0.929 . S
O322 Co297 2.351 . S
O322 C325 1.244 . S
O323 Co297 2.155 . S
O323 C325 1.240 . S
O324 Co297 2.096 . S
O324 C305 1.247 . S
C325 O322 1.244 . S
C325 O323 1.240 . S
H326 C300 0.931 . S
H327 C309 0.931 . S
H328 C313 0.929 . S
H329 C315 0.930 . S
Co330 N334 2.148 . S
Co330 N340 2.128 . S
Co330 N350 2.194 . S
Co330 O355 2.351 . S
Co330 O356 2.155 . S
Co330 O357 2.096 . S
C331 N334 1.301 . S
C331 N335 1.328 . S
C331 H336 0.930 . S
C332 C333 1.333 . S
C332 N334 1.317 . S
C332 H337 0.930 . S
C333 C332 1.333 . S
C333 N335 1.350 . S
C333 H359 0.931 . S
N334 Co330 2.148 . S
N334 C331 1.301 . S
N334 C332 1.317 . S
N335 C331 1.328 . S
N335 C333 1.350 . S
H336 C331 0.930 . S
H337 C332 0.930 . S
C338 O339 1.224 . S
C338 O357 1.247 . S
O339 C338 1.224 . S
N340 Co330 2.128 . S
N340 C341 1.355 . S
N340 C343 1.311 . S
C341 N340 1.355 . S
C341 C342 1.363 . S
C341 H353 0.929 . S
C342 C341 1.363 . S
C342 N344 1.375 . S
C342 H360 0.931 . S
C343 N340 1.311 . S
C343 N344 1.347 . S
C343 H354 0.929 . S
N344 C342 1.375 . S
N344 C343 1.347 . S
C345 C348 1.365 . S
C345 N350 1.328 . S
C345 H351 0.929 . S
C346 C347 1.362 . S
C346 C349 1.378 . S
C346 H361 0.929 . S
C347 C346 1.362 . S
C347 C348 1.366 . S
C348 C345 1.365 . S
C348 C347 1.366 . S
C348 H362 0.930 . S
C349 C346 1.378 . S
C349 N350 1.315 . S
C349 H352 0.930 . S
N350 Co330 2.194 . S
N350 C345 1.328 . S
N350 C349 1.315 . S
H351 C345 0.929 . S
H352 C349 0.930 . S
H353 C341 0.929 . S
H354 C343 0.929 . S
O355 Co330 2.351 . S
O355 C358 1.244 . S
O356 Co330 2.155 . S
O356 C358 1.240 . S
O357 Co330 2.096 . S
O357 C338 1.247 . S
C358 O355 1.244 . S
C358 O356 1.240 . S
H359 C333 0.931 . S
H360 C342 0.931 . S
H361 C346 0.929 . S
H362 C348 0.930 . S
Co363 N367 2.148 . S
Co363 N373 2.128 . S
Co363 N383 2.194 . S
Co363 O388 2.351 . S
Co363 O389 2.155 . S
Co363 O390 2.096 . S
C364 N367 1.301 . S
C364 N368 1.328 . S
C364 H369 0.930 . S
C365 C366 1.333 . S
C365 N367 1.317 . S
C365 H370 0.930 . S
C366 C365 1.333 . S
C366 N368 1.350 . S
C366 H392 0.931 . S
N367 Co363 2.148 . S
N367 C364 1.301 . S
N367 C365 1.317 . S
N368 C364 1.328 . S
N368 C366 1.350 . S
H369 C364 0.930 . S
H370 C365 0.930 . S
C371 O372 1.224 . S
C371 O390 1.247 . S
O372 C371 1.224 . S
N373 Co363 2.128 . S
N373 C374 1.355 . S
N373 C376 1.311 . S
C374 N373 1.355 . S
C374 C375 1.363 . S
C374 H386 0.929 . S
C375 C374 1.363 . S
C375 N377 1.375 . S
C375 H393 0.931 . S
C376 N373 1.311 . S
C376 N377 1.347 . S
C376 H387 0.929 . S
N377 C375 1.375 . S
N377 C376 1.347 . S
C378 C381 1.365 . S
C378 N383 1.328 . S
C378 H384 0.929 . S
C379 C380 1.362 . S
C379 C382 1.378 . S
C379 H394 0.929 . S
C380 C379 1.362 . S
C380 C381 1.366 . S
C381 C378 1.365 . S
C381 C380 1.366 . S
C381 H395 0.930 . S
C382 C379 1.378 . S
C382 N383 1.315 . S
C382 H385 0.930 . S
N383 Co363 2.194 . S
N383 C378 1.328 . S
N383 C382 1.315 . S
H384 C378 0.929 . S
H385 C382 0.930 . S
H386 C374 0.929 . S
H387 C376 0.929 . S
O388 Co363 2.351 . S
O388 C391 1.244 . S
O389 Co363 2.155 . S
O389 C391 1.240 . S
O390 Co363 2.096 . S
O390 C371 1.247 . S
C391 O388 1.244 . S
C391 O389 1.240 . S
H392 C366 0.931 . S
H393 C375 0.931 . S
H394 C379 0.929 . S
H395 C381 0.930 . S
Co396 N400 2.148 . S
Co396 N406 2.128 . S
Co396 N416 2.194 . S
Co396 O421 2.351 . S
Co396 O422 2.155 . S
Co396 O423 2.096 . S
C397 N400 1.301 . S
C397 N401 1.328 . S
C397 H402 0.930 . S
C398 C399 1.333 . S
C398 N400 1.317 . S
C398 H403 0.930 . S
C399 C398 1.333 . S
C399 N401 1.350 . S
C399 H425 0.931 . S
N400 Co396 2.148 . S
N400 C397 1.301 . S
N400 C398 1.317 . S
N401 C397 1.328 . S
N401 C399 1.350 . S
H402 C397 0.930 . S
H403 C398 0.930 . S
C404 O405 1.224 . S
C404 O423 1.247 . S
O405 C404 1.224 . S
N406 Co396 2.128 . S
N406 C407 1.355 . S
N406 C409 1.311 . S
C407 N406 1.355 . S
C407 C408 1.363 . S
C407 H419 0.929 . S
C408 C407 1.363 . S
C408 N410 1.375 . S
C408 H426 0.931 . S
C409 N406 1.311 . S
C409 N410 1.347 . S
C409 H420 0.929 . S
N410 C408 1.375 . S
N410 C409 1.347 . S
C411 C414 1.365 . S
C411 N416 1.328 . S
C411 H417 0.929 . S
C412 C413 1.362 . S
C412 C415 1.378 . S
C412 H427 0.929 . S
C413 C412 1.362 . S
C413 C414 1.366 . S
C414 C411 1.365 . S
C414 C413 1.366 . S
C414 H428 0.930 . S
C415 C412 1.378 . S
C415 N416 1.315 . S
C415 H418 0.930 . S
N416 Co396 2.194 . S
N416 C411 1.328 . S
N416 C415 1.315 . S
H417 C411 0.929 . S
H418 C415 0.930 . S
H419 C407 0.929 . S
H420 C409 0.929 . S
O421 Co396 2.351 . S
O421 C424 1.244 . S
O422 Co396 2.155 . S
O422 C424 1.240 . S
O423 Co396 2.096 . S
O423 C404 1.247 . S
C424 O421 1.244 . S
C424 O422 1.240 . S
H425 C399 0.931 . S
H426 C408 0.931 . S
H427 C412 0.929 . S
H428 C414 0.930 . S
Co429 N433 2.148 . S
Co429 N439 2.128 . S
Co429 N449 2.194 . S
Co429 O454 2.351 . S
Co429 O455 2.155 . S
Co429 O456 2.096 . S
C430 N433 1.301 . S
C430 N434 1.328 . S
C430 H435 0.930 . S
C431 C432 1.333 . S
C431 N433 1.317 . S
C431 H436 0.930 . S
C432 C431 1.333 . S
C432 N434 1.350 . S
C432 H458 0.931 . S
N433 Co429 2.148 . S
N433 C430 1.301 . S
N433 C431 1.317 . S
N434 C430 1.328 . S
N434 C432 1.350 . S
H435 C430 0.930 . S
H436 C431 0.930 . S
C437 O438 1.224 . S
C437 O456 1.247 . S
O438 C437 1.224 . S
N439 Co429 2.128 . S
N439 C440 1.355 . S
N439 C442 1.311 . S
C440 N439 1.355 . S
C440 C441 1.363 . S
C440 H452 0.929 . S
C441 C440 1.363 . S
C441 N443 1.375 . S
C441 H459 0.931 . S
C442 N439 1.311 . S
C442 N443 1.347 . S
C442 H453 0.929 . S
N443 C441 1.375 . S
N443 C442 1.347 . S
C444 C447 1.365 . S
C444 N449 1.328 . S
C444 H450 0.929 . S
C445 C446 1.362 . S
C445 C448 1.378 . S
C445 H460 0.929 . S
C446 C445 1.362 . S
C446 C447 1.366 . S
C447 C444 1.365 . S
C447 C446 1.366 . S
C447 H461 0.930 . S
C448 C445 1.378 . S
C448 N449 1.315 . S
C448 H451 0.930 . S
N449 Co429 2.194 . S
N449 C444 1.328 . S
N449 C448 1.315 . S
H450 C444 0.929 . S
H451 C448 0.930 . S
H452 C440 0.929 . S
H453 C442 0.929 . S
O454 Co429 2.351 . S
O454 C457 1.244 . S
O455 Co429 2.155 . S
O455 C457 1.240 . S
O456 Co429 2.096 . S
O456 C437 1.247 . S
C457 O454 1.244 . S
C457 O455 1.240 . S
H458 C432 0.931 . S
H459 C441 0.931 . S
H460 C445 0.929 . S
H461 C447 0.930 . S
Co462 N466 2.148 . S
Co462 N472 2.128 . S
Co462 N482 2.194 . S
Co462 O487 2.351 . S
Co462 O488 2.155 . S
Co462 O489 2.096 . S
C463 N466 1.301 . S
C463 N467 1.328 . S
C463 H468 0.930 . S
C464 C465 1.333 . S
C464 N466 1.317 . S
C464 H469 0.930 . S
C465 C464 1.333 . S
C465 N467 1.350 . S
C465 H491 0.931 . S
N466 Co462 2.148 . S
N466 C463 1.301 . S
N466 C464 1.317 . S
N467 C463 1.328 . S
N467 C465 1.350 . S
H468 C463 0.930 . S
H469 C464 0.930 . S
C470 O471 1.224 . S
C470 O489 1.247 . S
O471 C470 1.224 . S
N472 Co462 2.128 . S
N472 C473 1.355 . S
N472 C475 1.311 . S
C473 N472 1.355 . S
C473 C474 1.363 . S
C473 H485 0.929 . S
C474 C473 1.363 . S
C474 N476 1.375 . S
C474 H492 0.931 . S
C475 N472 1.311 . S
C475 N476 1.347 . S
C475 H486 0.929 . S
N476 C474 1.375 . S
N476 C475 1.347 . S
C477 C480 1.365 . S
C477 N482 1.328 . S
C477 H483 0.929 . S
C478 C479 1.362 . S
C478 C481 1.378 . S
C478 H493 0.929 . S
C479 C478 1.362 . S
C479 C480 1.366 . S
C480 C477 1.365 . S
C480 C479 1.366 . S
C480 H494 0.930 . S
C481 C478 1.378 . S
C481 N482 1.315 . S
C481 H484 0.930 . S
N482 Co462 2.194 . S
N482 C477 1.328 . S
N482 C481 1.315 . S
H483 C477 0.929 . S
H484 C481 0.930 . S
H485 C473 0.929 . S
H486 C475 0.929 . S
O487 Co462 2.351 . S
O487 C490 1.244 . S
O488 Co462 2.155 . S
O488 C490 1.240 . S
O489 Co462 2.096 . S
O489 C470 1.247 . S
C490 O487 1.244 . S
C490 O488 1.240 . S
H491 C465 0.931 . S
H492 C474 0.931 . S
H493 C478 0.929 . S
H494 C480 0.930 . S
Co495 N499 2.148 . S
Co495 N505 2.128 . S
Co495 N515 2.194 . S
Co495 O520 2.351 . S
Co495 O521 2.155 . S
Co495 O522 2.096 . S
C496 N499 1.301 . S
C496 N500 1.328 . S
C496 H501 0.930 . S
C497 C498 1.333 . S
C497 N499 1.317 . S
C497 H502 0.930 . S
C498 C497 1.333 . S
C498 N500 1.350 . S
C498 H524 0.931 . S
N499 Co495 2.148 . S
N499 C496 1.301 . S
N499 C497 1.317 . S
N500 C496 1.328 . S
N500 C498 1.350 . S
H501 C496 0.930 . S
H502 C497 0.930 . S
C503 O504 1.224 . S
C503 O522 1.247 . S
O504 C503 1.224 . S
N505 Co495 2.128 . S
N505 C506 1.355 . S
N505 C508 1.311 . S
C506 N505 1.355 . S
C506 C507 1.363 . S
C506 H518 0.929 . S
C507 C506 1.363 . S
C507 N509 1.375 . S
C507 H525 0.931 . S
C508 N505 1.311 . S
C508 N509 1.347 . S
C508 H519 0.929 . S
N509 C507 1.375 . S
N509 C508 1.347 . S
C510 C513 1.365 . S
C510 N515 1.328 . S
C510 H516 0.929 . S
C511 C512 1.362 . S
C511 C514 1.378 . S
C511 H526 0.929 . S
C512 C511 1.362 . S
C512 C513 1.366 . S
C513 C510 1.365 . S
C513 C512 1.366 . S
C513 H527 0.930 . S
C514 C511 1.378 . S
C514 N515 1.315 . S
C514 H517 0.930 . S
N515 Co495 2.194 . S
N515 C510 1.328 . S
N515 C514 1.315 . S
H516 C510 0.929 . S
H517 C514 0.930 . S
H518 C506 0.929 . S
H519 C508 0.929 . S
O520 Co495 2.351 . S
O520 C523 1.244 . S
O521 Co495 2.155 . S
O521 C523 1.240 . S
O522 Co495 2.096 . S
O522 C503 1.247 . S
C523 O520 1.244 . S
C523 O521 1.240 . S
H524 C498 0.931 . S
H525 C507 0.931 . S
H526 C511 0.929 . S
H527 C513 0.930 . S
Co528 N532 2.148 . S
Co528 N538 2.128 . S
Co528 N548 2.194 . S
Co528 O553 2.351 . S
Co528 O554 2.155 . S
Co528 O555 2.096 . S
C529 N532 1.301 . S
C529 N533 1.328 . S
C529 H534 0.930 . S
C530 C531 1.333 . S
C530 N532 1.317 . S
C530 H535 0.930 . S
C531 C530 1.333 . S
C531 N533 1.350 . S
C531 H557 0.931 . S
N532 Co528 2.148 . S
N532 C529 1.301 . S
N532 C530 1.317 . S
N533 C529 1.328 . S
N533 C531 1.350 . S
H534 C529 0.930 . S
H535 C530 0.930 . S
C536 O537 1.224 . S
C536 O555 1.247 . S
O537 C536 1.224 . S
N538 Co528 2.128 . S
N538 C539 1.355 . S
N538 C541 1.311 . S
C539 N538 1.355 . S
C539 C540 1.363 . S
C539 H551 0.929 . S
C540 C539 1.363 . S
C540 N542 1.375 . S
C540 H558 0.931 . S
C541 N538 1.311 . S
C541 N542 1.347 . S
C541 H552 0.929 . S
N542 C540 1.375 . S
N542 C541 1.347 . S
C543 C546 1.365 . S
C543 N548 1.328 . S
C543 H549 0.929 . S
C544 C545 1.362 . S
C544 C547 1.378 . S
C544 H559 0.929 . S
C545 C544 1.362 . S
C545 C546 1.366 . S
C546 C543 1.365 . S
C546 C545 1.366 . S
C546 H560 0.930 . S
C547 C544 1.378 . S
C547 N548 1.315 . S
C547 H550 0.930 . S
N548 Co528 2.194 . S
N548 C543 1.328 . S
N548 C547 1.315 . S
H549 C543 0.929 . S
H550 C547 0.930 . S
H551 C539 0.929 . S
H552 C541 0.929 . S
O553 Co528 2.351 . S
O553 C556 1.244 . S
O554 Co528 2.155 . S
O554 C556 1.240 . S
O555 Co528 2.096 . S
O555 C536 1.247 . S
C556 O553 1.244 . S
C556 O554 1.240 . S
H557 C531 0.931 . S
H558 C540 0.931 . S
H559 C544 0.929 . S
H560 C546 0.930 . S
Co561 N565 2.148 . S
Co561 N571 2.128 . S
Co561 N581 2.194 . S
Co561 O586 2.351 . S
Co561 O587 2.155 . S
Co561 O588 2.096 . S
C562 N565 1.301 . S
C562 N566 1.328 . S
C562 H567 0.930 . S
C563 C564 1.333 . S
C563 N565 1.317 . S
C563 H568 0.930 . S
C564 C563 1.333 . S
C564 N566 1.350 . S
C564 H590 0.931 . S
N565 Co561 2.148 . S
N565 C562 1.301 . S
N565 C563 1.317 . S
N566 C562 1.328 . S
N566 C564 1.350 . S
H567 C562 0.930 . S
H568 C563 0.930 . S
C569 O570 1.224 . S
C569 O588 1.247 . S
O570 C569 1.224 . S
N571 Co561 2.128 . S
N571 C572 1.355 . S
N571 C574 1.311 . S
C572 N571 1.355 . S
C572 C573 1.363 . S
C572 H584 0.929 . S
C573 C572 1.363 . S
C573 N575 1.375 . S
C573 H591 0.931 . S
C574 N571 1.311 . S
C574 N575 1.347 . S
C574 H585 0.929 . S
N575 C573 1.375 . S
N575 C574 1.347 . S
C576 C579 1.365 . S
C576 N581 1.328 . S
C576 H582 0.929 . S
C577 C578 1.362 . S
C577 C580 1.378 . S
C577 H592 0.929 . S
C578 C577 1.362 . S
C578 C579 1.366 . S
C579 C576 1.365 . S
C579 C578 1.366 . S
C579 H593 0.930 . S
C580 C577 1.378 . S
C580 N581 1.315 . S
C580 H583 0.930 . S
N581 Co561 2.194 . S
N581 C576 1.328 . S
N581 C580 1.315 . S
H582 C576 0.929 . S
H583 C580 0.930 . S
H584 C572 0.929 . S
H585 C574 0.929 . S
O586 Co561 2.351 . S
O586 C589 1.244 . S
O587 Co561 2.155 . S
O587 C589 1.240 . S
O588 Co561 2.096 . S
O588 C569 1.247 . S
C589 O586 1.244 . S
C589 O587 1.240 . S
H590 C564 0.931 . S
H591 C573 0.931 . S
H592 C577 0.929 . S
H593 C579 0.930 . S
Co594 N598 2.148 . S
Co594 N604 2.128 . S
Co594 N614 2.194 . S
Co594 O619 2.351 . S
Co594 O620 2.155 . S
Co594 O621 2.096 . S
C595 N598 1.301 . S
C595 N599 1.328 . S
C595 H600 0.930 . S
C596 C597 1.333 . S
C596 N598 1.317 . S
C596 H601 0.930 . S
C597 C596 1.333 . S
C597 N599 1.350 . S
C597 H623 0.931 . S
N598 Co594 2.148 . S
N598 C595 1.301 . S
N598 C596 1.317 . S
N599 C595 1.328 . S
N599 C597 1.350 . S
H600 C595 0.930 . S
H601 C596 0.930 . S
C602 O603 1.224 . S
C602 O621 1.247 . S
O603 C602 1.224 . S
N604 Co594 2.128 . S
N604 C605 1.355 . S
N604 C607 1.311 . S
C605 N604 1.355 . S
C605 C606 1.363 . S
C605 H617 0.929 . S
C606 C605 1.363 . S
C606 N608 1.375 . S
C606 H624 0.931 . S
C607 N604 1.311 . S
C607 N608 1.347 . S
C607 H618 0.929 . S
N608 C606 1.375 . S
N608 C607 1.347 . S
C609 C612 1.365 . S
C609 N614 1.328 . S
C609 H615 0.929 . S
C610 C611 1.362 . S
C610 C613 1.378 . S
C610 H625 0.929 . S
C611 C610 1.362 . S
C611 C612 1.366 . S
C612 C609 1.365 . S
C612 C611 1.366 . S
C612 H626 0.930 . S
C613 C610 1.378 . S
C613 N614 1.315 . S
C613 H616 0.930 . S
N614 Co594 2.194 . S
N614 C609 1.328 . S
N614 C613 1.315 . S
H615 C609 0.929 . S
H616 C613 0.930 . S
H617 C605 0.929 . S
H618 C607 0.929 . S
O619 Co594 2.351 . S
O619 C622 1.244 . S
O620 Co594 2.155 . S
O620 C622 1.240 . S
O621 Co594 2.096 . S
O621 C602 1.247 . S
C622 O619 1.244 . S
C622 O620 1.240 . S
H623 C597 0.931 . S
H624 C606 0.931 . S
H625 C610 0.929 . S
H626 C612 0.930 . S
Co627 N631 2.148 . S
Co627 N637 2.128 . S
Co627 N647 2.194 . S
Co627 O652 2.351 . S
Co627 O653 2.155 . S
Co627 O654 2.096 . S
C628 N631 1.301 . S
C628 N632 1.328 . S
C628 H633 0.930 . S
C629 C630 1.333 . S
C629 N631 1.317 . S
C629 H634 0.930 . S
C630 C629 1.333 . S
C630 N632 1.350 . S
C630 H656 0.931 . S
N631 Co627 2.148 . S
N631 C628 1.301 . S
N631 C629 1.317 . S
N632 C628 1.328 . S
N632 C630 1.350 . S
H633 C628 0.930 . S
H634 C629 0.930 . S
C635 O636 1.224 . S
C635 O654 1.247 . S
O636 C635 1.224 . S
N637 Co627 2.128 . S
N637 C638 1.355 . S
N637 C640 1.311 . S
C638 N637 1.355 . S
C638 C639 1.363 . S
C638 H650 0.929 . S
C639 C638 1.363 . S
C639 N641 1.375 . S
C639 H657 0.931 . S
C640 N637 1.311 . S
C640 N641 1.347 . S
C640 H651 0.929 . S
N641 C639 1.375 . S
N641 C640 1.347 . S
C642 C645 1.365 . S
C642 N647 1.328 . S
C642 H648 0.929 . S
C643 C644 1.362 . S
C643 C646 1.378 . S
C643 H658 0.929 . S
C644 C643 1.362 . S
C644 C645 1.366 . S
C645 C642 1.365 . S
C645 C644 1.366 . S
C645 H659 0.930 . S
C646 C643 1.378 . S
C646 N647 1.315 . S
C646 H649 0.930 . S
N647 Co627 2.194 . S
N647 C642 1.328 . S
N647 C646 1.315 . S
H648 C642 0.929 . S
H649 C646 0.930 . S
H650 C638 0.929 . S
H651 C640 0.929 . S
O652 Co627 2.351 . S
O652 C655 1.244 . S
O653 Co627 2.155 . S
O653 C655 1.240 . S
O654 Co627 2.096 . S
O654 C635 1.247 . S
C655 O652 1.244 . S
C655 O653 1.240 . S
H656 C630 0.931 . S
H657 C639 0.931 . S
H658 C643 0.929 . S
H659 C645 0.930 . S
Co660 N664 2.148 . S
Co660 N670 2.128 . S
Co660 N680 2.194 . S
Co660 O685 2.351 . S
Co660 O686 2.155 . S
Co660 O687 2.096 . S
C661 N664 1.301 . S
C661 N665 1.328 . S
C661 H666 0.930 . S
C662 C663 1.333 . S
C662 N664 1.317 . S
C662 H667 0.930 . S
C663 C662 1.333 . S
C663 N665 1.350 . S
C663 H689 0.931 . S
N664 Co660 2.148 . S
N664 C661 1.301 . S
N664 C662 1.317 . S
N665 C661 1.328 . S
N665 C663 1.350 . S
H666 C661 0.930 . S
H667 C662 0.930 . S
C668 O669 1.224 . S
C668 O687 1.247 . S
O669 C668 1.224 . S
N670 Co660 2.128 . S
N670 C671 1.355 . S
N670 C673 1.311 . S
C671 N670 1.355 . S
C671 C672 1.363 . S
C671 H683 0.929 . S
C672 C671 1.363 . S
C672 N674 1.375 . S
C672 H690 0.931 . S
C673 N670 1.311 . S
C673 N674 1.347 . S
C673 H684 0.929 . S
N674 C672 1.375 . S
N674 C673 1.347 . S
C675 C678 1.365 . S
C675 N680 1.328 . S
C675 H681 0.929 . S
C676 C677 1.362 . S
C676 C679 1.378 . S
C676 H691 0.929 . S
C677 C676 1.362 . S
C677 C678 1.366 . S
C678 C675 1.365 . S
C678 C677 1.366 . S
C678 H692 0.930 . S
C679 C676 1.378 . S
C679 N680 1.315 . S
C679 H682 0.930 . S
N680 Co660 2.194 . S
N680 C675 1.328 . S
N680 C679 1.315 . S
H681 C675 0.929 . S
H682 C679 0.930 . S
H683 C671 0.929 . S
H684 C673 0.929 . S
O685 Co660 2.351 . S
O685 C688 1.244 . S
O686 Co660 2.155 . S
O686 C688 1.240 . S
O687 Co660 2.096 . S
O687 C668 1.247 . S
C688 O685 1.244 . S
C688 O686 1.240 . S
H689 C663 0.931 . S
H690 C672 0.931 . S
H691 C676 0.929 . S
H692 C678 0.930 . S
Co693 N697 2.148 . S
Co693 N703 2.128 . S
Co693 N713 2.194 . S
Co693 O718 2.351 . S
Co693 O719 2.155 . S
Co693 O720 2.096 . S
C694 N697 1.301 . S
C694 N698 1.328 . S
C694 H699 0.930 . S
C695 C696 1.333 . S
C695 N697 1.317 . S
C695 H700 0.930 . S
C696 C695 1.333 . S
C696 N698 1.350 . S
C696 H722 0.931 . S
N697 Co693 2.148 . S
N697 C694 1.301 . S
N697 C695 1.317 . S
N698 C694 1.328 . S
N698 C696 1.350 . S
H699 C694 0.930 . S
H700 C695 0.930 . S
C701 O702 1.224 . S
C701 O720 1.247 . S
O702 C701 1.224 . S
N703 Co693 2.128 . S
N703 C704 1.355 . S
N703 C706 1.311 . S
C704 N703 1.355 . S
C704 C705 1.363 . S
C704 H716 0.929 . S
C705 C704 1.363 . S
C705 N707 1.375 . S
C705 H723 0.931 . S
C706 N703 1.311 . S
C706 N707 1.347 . S
C706 H717 0.929 . S
N707 C705 1.375 . S
N707 C706 1.347 . S
C708 C711 1.365 . S
C708 N713 1.328 . S
C708 H714 0.929 . S
C709 C710 1.362 . S
C709 C712 1.378 . S
C709 H724 0.929 . S
C710 C709 1.362 . S
C710 C711 1.366 . S
C711 C708 1.365 . S
C711 C710 1.366 . S
C711 H725 0.930 . S
C712 C709 1.378 . S
C712 N713 1.315 . S
C712 H715 0.930 . S
N713 Co693 2.194 . S
N713 C708 1.328 . S
N713 C712 1.315 . S
H714 C708 0.929 . S
H715 C712 0.930 . S
H716 C704 0.929 . S
H717 C706 0.929 . S
O718 Co693 2.351 . S
O718 C721 1.244 . S
O719 Co693 2.155 . S
O719 C721 1.240 . S
O720 Co693 2.096 . S
O720 C701 1.247 . S
C721 O718 1.244 . S
C721 O719 1.240 . S
H722 C696 0.931 . S
H723 C705 0.931 . S
H724 C709 0.929 . S
H725 C711 0.930 . S
Co726 N730 2.148 . S
Co726 N736 2.128 . S
Co726 N746 2.194 . S
Co726 O751 2.351 . S
Co726 O752 2.155 . S
Co726 O753 2.096 . S
C727 N730 1.301 . S
C727 N731 1.328 . S
C727 H732 0.930 . S
C728 C729 1.333 . S
C728 N730 1.317 . S
C728 H733 0.930 . S
C729 C728 1.333 . S
C729 N731 1.350 . S
C729 H755 0.931 . S
N730 Co726 2.148 . S
N730 C727 1.301 . S
N730 C728 1.317 . S
N731 C727 1.328 . S
N731 C729 1.350 . S
H732 C727 0.930 . S
H733 C728 0.930 . S
C734 O735 1.224 . S
C734 O753 1.247 . S
O735 C734 1.224 . S
N736 Co726 2.128 . S
N736 C737 1.355 . S
N736 C739 1.311 . S
C737 N736 1.355 . S
C737 C738 1.363 . S
C737 H749 0.929 . S
C738 C737 1.363 . S
C738 N740 1.375 . S
C738 H756 0.931 . S
C739 N736 1.311 . S
C739 N740 1.347 . S
C739 H750 0.929 . S
N740 C738 1.375 . S
N740 C739 1.347 . S
C741 C744 1.365 . S
C741 N746 1.328 . S
C741 H747 0.929 . S
C742 C743 1.362 . S
C742 C745 1.378 . S
C742 H757 0.929 . S
C743 C742 1.362 . S
C743 C744 1.366 . S
C744 C741 1.365 . S
C744 C743 1.366 . S
C744 H758 0.930 . S
C745 C742 1.378 . S
C745 N746 1.315 . S
C745 H748 0.930 . S
N746 Co726 2.194 . S
N746 C741 1.328 . S
N746 C745 1.315 . S
H747 C741 0.929 . S
H748 C745 0.930 . S
H749 C737 0.929 . S
H750 C739 0.929 . S
O751 Co726 2.351 . S
O751 C754 1.244 . S
O752 Co726 2.155 . S
O752 C754 1.240 . S
O753 Co726 2.096 . S
O753 C734 1.247 . S
C754 O751 1.244 . S
C754 O752 1.240 . S
H755 C729 0.931 . S
H756 C738 0.931 . S
H757 C742 0.929 . S
H758 C744 0.930 . S
Co759 N763 2.148 . S
Co759 N769 2.128 . S
Co759 N779 2.194 . S
Co759 O784 2.351 . S
Co759 O785 2.155 . S
Co759 O786 2.096 . S
C760 N763 1.301 . S
C760 N764 1.328 . S
C760 H765 0.930 . S
C761 C762 1.333 . S
C761 N763 1.317 . S
C761 H766 0.930 . S
C762 C761 1.333 . S
C762 N764 1.350 . S
C762 H788 0.931 . S
N763 Co759 2.148 . S
N763 C760 1.301 . S
N763 C761 1.317 . S
N764 C760 1.328 . S
N764 C762 1.350 . S
H765 C760 0.930 . S
H766 C761 0.930 . S
C767 O768 1.224 . S
C767 O786 1.247 . S
O768 C767 1.224 . S
N769 Co759 2.128 . S
N769 C770 1.355 . S
N769 C772 1.311 . S
C770 N769 1.355 . S
C770 C771 1.363 . S
C770 H782 0.929 . S
C771 C770 1.363 . S
C771 N773 1.375 . S
C771 H789 0.931 . S
C772 N769 1.311 . S
C772 N773 1.347 . S
C772 H783 0.929 . S
N773 C771 1.375 . S
N773 C772 1.347 . S
C774 C777 1.365 . S
C774 N779 1.328 . S
C774 H780 0.929 . S
C775 C776 1.362 . S
C775 C778 1.378 . S
C775 H790 0.929 . S
C776 C775 1.362 . S
C776 C777 1.366 . S
C777 C774 1.365 . S
C777 C776 1.366 . S
C777 H791 0.930 . S
C778 C775 1.378 . S
C778 N779 1.315 . S
C778 H781 0.930 . S
N779 Co759 2.194 . S
N779 C774 1.328 . S
N779 C778 1.315 . S
H780 C774 0.929 . S
H781 C778 0.930 . S
H782 C770 0.929 . S
H783 C772 0.929 . S
O784 Co759 2.351 . S
O784 C787 1.244 . S
O785 Co759 2.155 . S
O785 C787 1.240 . S
O786 Co759 2.096 . S
O786 C767 1.247 . S
C787 O784 1.244 . S
C787 O785 1.240 . S
H788 C762 0.931 . S
H789 C771 0.931 . S
H790 C775 0.929 . S
H791 C777 0.930 . S
C792 C793 1.387 . S
C792 H796 0.950 . S
C792 C801 1.390 . S
C793 C792 1.387 . S
C793 C795 1.387 . S
H794 C801 0.950 . S
C795 C793 1.387 . S
C795 C797 1.390 . S
C795 H799 0.950 . S
H796 C792 0.950 . S
C797 C795 1.390 . S
C797 C798 1.387 . S
C797 H800 0.950 . S
C798 C797 1.387 . S
C798 C801 1.387 . S
H799 C795 0.950 . S
H800 C797 0.950 . S
C801 C792 1.390 . S
C801 H794 0.950 . S
C801 C798 1.387 . S
C802 C803 1.387 . S
C802 H806 0.950 . S
C802 C811 1.390 . S
C803 C802 1.387 . S
C803 C805 1.387 . S
H804 C811 0.950 . S
C805 C803 1.387 . S
C805 C807 1.390 . S
C805 H809 0.950 . S
H806 C802 0.950 . S
C807 C805 1.390 . S
C807 C808 1.387 . S
C807 H810 0.950 . S
C808 C807 1.387 . S
C808 C811 1.387 . S
H809 C805 0.950 . S
H810 C807 0.950 . S
C811 C802 1.390 . S
C811 H804 0.950 . S
C811 C808 1.387 . S
C812 C813 1.387 . S
C812 H816 0.950 . S
C812 C821 1.390 . S
C813 C812 1.387 . S
C813 C815 1.387 . S
H814 C821 0.950 . S
C815 C813 1.387 . S
C815 C817 1.390 . S
C815 H819 0.950 . S
H816 C812 0.950 . S
C817 C815 1.390 . S
C817 C818 1.387 . S
C817 H820 0.950 . S
C818 C817 1.387 . S
C818 C821 1.387 . S
H819 C815 0.950 . S
H820 C817 0.950 . S
C821 C812 1.390 . S
C821 H814 0.950 . S
C821 C818 1.387 . S
C822 C823 1.387 . S
C822 H826 0.950 . S
C822 C831 1.390 . S
C823 C822 1.387 . S
C823 C825 1.387 . S
H824 C831 0.950 . S
C825 C823 1.387 . S
C825 C827 1.390 . S
C825 H829 0.950 . S
H826 C822 0.950 . S
C827 C825 1.390 . S
C827 C828 1.387 . S
C827 H830 0.950 . S
C828 C827 1.387 . S
C828 C831 1.387 . S
H829 C825 0.950 . S
H830 C827 0.950 . S
C831 C822 1.390 . S
C831 H824 0.950 . S
C831 C828 1.387 . S
C832 C833 1.387 . S
C832 H836 0.950 . S
C832 C841 1.390 . S
C833 C832 1.387 . S
C833 C835 1.387 . S
H834 C841 0.950 . S
C835 C833 1.387 . S
C835 C837 1.390 . S
C835 H839 0.950 . S
H836 C832 0.950 . S
C837 C835 1.390 . S
C837 C838 1.387 . S
C837 H840 0.950 . S
C838 C837 1.387 . S
C838 C841 1.387 . S
H839 C835 0.950 . S
H840 C837 0.950 . S
C841 C832 1.390 . S
C841 H834 0.950 . S
C841 C838 1.387 . S
C842 C843 1.387 . S
C842 H846 0.950 . S
C842 C851 1.390 . S
C843 C842 1.387 . S
C843 C845 1.387 . S
H844 C851 0.950 . S
C845 C843 1.387 . S
C845 C847 1.390 . S
C845 H849 0.950 . S
H846 C842 0.950 . S
C847 C845 1.390 . S
C847 C848 1.387 . S
C847 H850 0.950 . S
C848 C847 1.387 . S
C848 C851 1.387 . S
H849 C845 0.950 . S
H850 C847 0.950 . S
C851 C842 1.390 . S
C851 H844 0.950 . S
C851 C848 1.387 . S
C852 C853 1.387 . S
C852 H856 0.950 . S
C852 C861 1.390 . S
C853 C852 1.387 . S
C853 C855 1.387 . S
H854 C861 0.950 . S
C855 C853 1.387 . S
C855 C857 1.390 . S
C855 H859 0.950 . S
H856 C852 0.950 . S
C857 C855 1.390 . S
C857 C858 1.387 . S
C857 H860 0.950 . S
C858 C857 1.387 . S
C858 C861 1.387 . S
H859 C855 0.950 . S
H860 C857 0.950 . S
C861 C852 1.390 . S
C861 H854 0.950 . S
C861 C858 1.387 . S
C862 C863 1.387 . S
C862 H866 0.950 . S
C862 C871 1.390 . S
C863 C862 1.387 . S
C863 C865 1.387 . S
H864 C871 0.950 . S
C865 C863 1.387 . S
C865 C867 1.390 . S
C865 H869 0.950 . S
H866 C862 0.950 . S
C867 C865 1.390 . S
C867 C868 1.387 . S
C867 H870 0.950 . S
C868 C867 1.387 . S
C868 C871 1.387 . S
H869 C865 0.950 . S
H870 C867 0.950 . S
C871 C862 1.390 . S
C871 H864 0.950 . S
C871 C868 1.387 . S
C872 C873 1.387 . S
C872 H876 0.950 . S
C872 C881 1.390 . S
C873 C872 1.387 . S
C873 C875 1.387 . S
H874 C881 0.950 . S
C875 C873 1.387 . S
C875 C877 1.390 . S
C875 H879 0.950 . S
H876 C872 0.950 . S
C877 C875 1.390 . S
C877 C878 1.387 . S
C877 H880 0.950 . S
C878 C877 1.387 . S
C878 C881 1.387 . S
H879 C875 0.950 . S
H880 C877 0.950 . S
C881 C872 1.390 . S
C881 H874 0.950 . S
C881 C878 1.387 . S
C882 C883 1.387 . S
C882 H886 0.950 . S
C882 C891 1.390 . S
C883 C882 1.387 . S
C883 C885 1.387 . S
H884 C891 0.950 . S
C885 C883 1.387 . S
C885 C887 1.390 . S
C885 H889 0.950 . S
H886 C882 0.950 . S
C887 C885 1.390 . S
C887 C888 1.387 . S
C887 H890 0.950 . S
C888 C887 1.387 . S
C888 C891 1.387 . S
H889 C885 0.950 . S
H890 C887 0.950 . S
C891 C882 1.390 . S
C891 H884 0.950 . S
C891 C888 1.387 . S
C892 C893 1.387 . S
C892 H896 0.950 . S
C892 C901 1.390 . S
C893 C892 1.387 . S
C893 C895 1.387 . S
H894 C901 0.950 . S
C895 C893 1.387 . S
C895 C897 1.390 . S
C895 H899 0.950 . S
H896 C892 0.950 . S
C897 C895 1.390 . S
C897 C898 1.387 . S
C897 H900 0.950 . S
C898 C897 1.387 . S
C898 C901 1.387 . S
H899 C895 0.950 . S
H900 C897 0.950 . S
C901 C892 1.390 . S
C901 H894 0.950 . S
C901 C898 1.387 . S
C902 C903 1.387 . S
C902 H906 0.950 . S
C902 C911 1.390 . S
C903 C902 1.387 . S
C903 C905 1.387 . S
H904 C911 0.950 . S
C905 C903 1.387 . S
C905 C907 1.390 . S
C905 H909 0.950 . S
H906 C902 0.950 . S
C907 C905 1.390 . S
C907 C908 1.387 . S
C907 H910 0.950 . S
C908 C907 1.387 . S
C908 C911 1.387 . S
H909 C905 0.950 . S
H910 C907 0.950 . S
C911 C902 1.390 . S
C911 H904 0.950 . S
C911 C908 1.387 . S
C912 C913 1.387 1_545 S
C912 H916 0.950 . S
C912 C921 1.390 . S
C913 C912 1.387 1_565 S
C913 C915 1.387 . S
H914 C921 0.950 . S
C915 C913 1.387 . S
C915 C917 1.390 1_565 S
C915 H919 0.950 . S
H916 C912 0.950 . S
C917 C915 1.390 1_545 S
C917 C918 1.387 . S
C917 H920 0.950 . S
C918 C917 1.387 . S
C918 C921 1.387 . S
H919 C915 0.950 . S
H920 C917 0.950 . S
C921 C912 1.390 . S
C921 H914 0.950 . S
C921 C918 1.387 . S
C922 C923 1.387 . S
C922 H926 0.950 . S
C922 C931 1.390 . S
C923 C922 1.387 . S
C923 C925 1.387 . S
H924 C931 0.950 1_455 S
C925 C923 1.387 . S
C925 C927 1.390 . S
C925 H929 0.950 . S
H926 C922 0.950 . S
C927 C925 1.390 . S
C927 C928 1.387 1_655 S
C927 H930 0.958 . S
C928 C927 1.387 1_455 S
C928 C931 1.387 1_455 S
H929 C925 0.950 . S
H930 C927 0.958 . S
C931 C922 1.390 . S
C931 H924 0.950 1_655 S
C931 C928 1.387 1_655 S
C932 C933 1.387 . S
C932 H936 0.950 . S
C932 C941 1.390 . S
C933 C932 1.387 . S
C933 C935 1.387 . S
H934 C941 0.950 1_545 S
C935 C933 1.387 . S
C935 C937 1.390 . S
C935 H939 0.950 . S
H936 C932 0.950 . S
C937 C935 1.390 . S
C937 C938 1.387 1_565 S
C937 H940 0.950 1_565 S
C938 C937 1.387 1_545 S
C938 C941 1.387 1_545 S
H939 C935 0.950 . S
H940 C937 0.950 1_545 S
C941 C932 1.390 . S
C941 H934 0.950 1_565 S
C941 C938 1.387 1_565 S
C942 C943 1.387 1_455 S
C942 H946 0.950 1_455 S
C942 C951 1.390 . S
C943 C942 1.387 1_655 S
C943 C945 1.387 1_655 S
H944 C951 0.950 . S
C945 C943 1.387 1_455 S
C945 C947 1.390 . S
C945 H949 0.950 1_455 S
H946 C942 0.950 1_655 S
C947 C945 1.390 . S
C947 C948 1.387 . S
C947 H950 0.950 . S
C948 C947 1.387 . S
C948 C951 1.387 . S
H949 C945 0.950 1_655 S
H950 C947 0.950 . S
C951 C942 1.390 . S
C951 H944 0.950 . S
C951 C948 1.387 . S
C952 C953 1.387 1_565 S
C952 H956 0.950 1_565 S
C952 C961 1.390 . S
C953 C952 1.387 1_545 S
C953 C955 1.387 1_545 S
H954 C961 0.950 . S
C955 C953 1.387 1_565 S
C955 C957 1.390 . S
C955 H959 0.950 . S
H956 C952 0.950 1_545 S
C957 C955 1.390 . S
C957 C958 1.387 . S
C957 H960 0.950 . S
C958 C957 1.387 . S
C958 C961 1.387 . S
H959 C955 0.950 . S
H960 C957 0.950 . S
C961 C952 1.390 . S
C961 H954 0.950 . S
C961 C958 1.387 . S
C962 C963 1.387 . S
C962 H966 0.950 . S
C962 C971 1.390 . S
C963 C962 1.387 . S
C963 C965 1.387 . S
H964 C971 0.950 1_655 S
C965 C963 1.387 . S
C965 C967 1.390 . S
C965 H969 0.950 . S
H966 C962 0.950 . S
C967 C965 1.390 . S
C967 C968 1.387 1_455 S
C967 H970 0.950 1_455 S
C968 C967 1.387 1_655 S
C968 C971 1.387 1_655 S
H969 C965 0.950 . S
H970 C967 0.950 1_655 S
C971 C962 1.390 . S
C971 H964 0.950 1_455 S
C971 C968 1.387 1_455 S
C972 C973 1.387 1_545 S
C972 H976 0.950 . S
C972 C981 1.390 . S
C973 C972 1.387 1_565 S
C973 C975 1.387 . S
H974 C981 0.950 . S
C975 C973 1.387 . S
C975 C977 1.392 1_565 S
C975 H979 0.948 . S
H976 C972 0.950 . S
C977 C975 1.392 1_545 S
C977 C978 1.387 . S
C977 H980 0.950 . S
C978 C977 1.387 . S
C978 C981 1.387 . S
H979 C975 0.948 . S
H980 C977 0.950 . S
C981 C972 1.390 . S
C981 H974 0.950 . S
C981 C978 1.387 . S
C982 C983 1.383 1_655 S
C982 H986 0.939 1_655 S
C982 C991 1.406 . S
C983 C982 1.383 1_455 S
C983 C985 1.387 1_455 S
H984 C991 0.950 . S
C985 C983 1.387 1_655 S
C985 C987 1.390 . S
C985 H989 0.950 . S
H986 C982 0.939 1_455 S
C987 C985 1.390 . S
C987 C988 1.387 . S
C987 H990 0.950 . S
C988 C987 1.387 . S
C988 C991 1.387 . S
H989 C985 0.950 . S
H990 C987 0.950 . S
C991 C982 1.406 . S
C991 H984 0.950 . S
C991 C988 1.387 . S
C992 C993 1.387 1_554 S
C992 H996 0.950 . S
C992 C1001 1.390 . S
C993 C992 1.387 1_556 S
C993 C995 1.387 . S
H994 C1001 0.950 . S
C995 C993 1.387 . S
C995 C997 1.390 1_556 S
C995 H999 0.950 . S
H996 C992 0.950 . S
C997 C995 1.390 1_554 S
C997 C998 1.387 . S
C997 H1000 0.950 . S
C998 C997 1.387 . S
C998 C1001 1.387 . S
H999 C995 0.950 . S
H1000 C997 0.950 . S
C1001 C992 1.390 . S
C1001 H994 0.950 . S
C1001 C998 1.387 . S
C1002 C1003 1.387 . S
C1002 H1006 0.950 . S
C1002 C1011 1.390 . S
C1003 C1002 1.387 . S
C1003 C1005 1.387 . S
H1004 C1011 0.964 . S
C1005 C1003 1.387 . S
C1005 C1007 1.390 . S
C1005 H1009 0.950 . S
H1006 C1002 0.950 . S
C1007 C1005 1.390 . S
C1007 C1008 1.387 1_554 S
C1007 H1010 0.950 1_554 S
C1008 C1007 1.387 1_556 S
C1008 C1011 1.387 1_556 S
H1009 C1005 0.950 . S
H1010 C1007 0.950 1_556 S
C1011 C1002 1.390 . S
C1011 H1004 0.964 . S
C1011 C1008 1.387 1_554 S
C1012 C1013 1.387 1_554 S
C1012 H1016 0.950 1_554 S
C1012 C1021 1.390 . S
C1013 C1012 1.387 1_556 S
C1013 C1015 1.387 1_556 S
H1014 C1021 0.950 . S
C1015 C1013 1.387 1_554 S
C1015 C1017 1.390 . S
C1015 H1019 0.950 . S
H1016 C1012 0.950 1_556 S
C1017 C1015 1.390 . S
C1017 C1018 1.387 . S
C1017 H1020 0.950 . S
C1018 C1017 1.387 . S
C1018 C1021 1.387 . S
H1019 C1015 0.950 . S
H1020 C1017 0.950 . S
C1021 C1012 1.390 . S
C1021 H1014 0.950 . S
C1021 C1018 1.387 . S
C1022 C1023 1.387 . S
C1022 H1026 0.950 . S
C1022 C1031 1.390 1_554 S
C1023 C1022 1.387 . S
C1023 C1025 1.387 . S
H1024 C1031 0.950 . S
C1025 C1023 1.387 . S
C1025 C1027 1.390 . S
C1025 H1029 0.950 . S
H1026 C1022 0.950 . S
C1027 C1025 1.390 . S
C1027 C1028 1.387 1_554 S
C1027 H1030 0.950 . S
C1028 C1027 1.387 1_556 S
C1028 C1031 1.387 . S
H1029 C1025 0.950 . S
H1030 C1027 0.950 . S
C1031 C1022 1.390 1_556 S
C1031 H1024 0.950 . S
C1031 C1028 1.387 . S
C1032 C1033 1.387 1_556 S
C1032 H1036 0.950 . S
C1032 C1041 1.390 . S
C1033 C1032 1.387 1_554 S
C1033 C1035 1.387 1_554 S
H1034 C1041 0.950 . S
C1035 C1033 1.387 1_556 S
C1035 C1037 1.390 . S
C1035 H1039 0.950 1_556 S
H1036 C1032 0.950 . S
C1037 C1035 1.390 . S
C1037 C1038 1.387 . S
C1037 H1040 0.950 . S
C1038 C1037 1.387 . S
C1038 C1041 1.387 . S
H1039 C1035 0.950 1_554 S
H1040 C1037 0.950 . S
C1041 C1032 1.390 . S
C1041 H1034 0.950 . S
C1041 C1038 1.387 . S
C1042 C1043 1.387 . S
C1042 H1046 0.950 . S
C1042 C1051 1.390 . S
C1043 C1042 1.387 . S
C1043 C1045 1.387 . S
H1044 C1051 0.950 . S
C1045 C1043 1.387 . S
C1045 C1047 1.389 1_556 S
C1045 H1049 0.950 . S
H1046 C1042 0.950 . S
C1047 C1045 1.389 1_554 S
C1047 C1048 1.388 . S
C1047 H1050 0.951 . S
C1048 C1047 1.388 . S
C1048 C1051 1.387 1_554 S
H1049 C1045 0.950 . S
H1050 C1047 0.951 . S
C1051 C1042 1.390 . S
C1051 H1044 0.950 . S
C1051 C1048 1.387 1_556 S
C1052 C1053 1.387 1_556 S
C1052 H1056 0.950 1_556 S
C1052 C1061 1.390 . S
C1053 C1052 1.387 1_554 S
C1053 C1055 1.387 1_554 S
H1054 C1061 0.950 . S
C1055 C1053 1.387 1_556 S
C1055 C1057 1.390 . S
C1055 H1059 0.948 1_556 S
H1056 C1052 0.950 1_554 S
C1057 C1055 1.390 . S
C1057 C1058 1.387 . S
C1057 H1060 0.950 . S
C1058 C1057 1.387 . S
C1058 C1061 1.387 . S
H1059 C1055 0.948 1_554 S
H1060 C1057 0.950 . S
C1061 C1052 1.390 . S
C1061 H1054 0.950 . S
C1061 C1058 1.387 . S
C1062 C1063 1.387 . S
C1062 H1066 0.950 . S
C1062 C1071 1.390 . S
C1063 C1062 1.387 . S
C1063 C1065 1.387 . S
H1064 C1071 0.950 . S
C1065 C1063 1.387 . S
C1065 C1067 1.390 1_556 S
C1065 H1069 0.950 . S
H1066 C1062 0.950 . S
C1067 C1065 1.390 1_554 S
C1067 C1068 1.387 . S
C1067 H1070 0.950 . S
C1068 C1067 1.387 . S
C1068 C1071 1.387 1_554 S
H1069 C1065 0.950 . S
H1070 C1067 0.950 . S
C1071 C1062 1.390 . S
C1071 H1064 0.950 . S
C1071 C1068 1.387 1_556 S
C1072 C1073 1.387 1_455 S
C1072 H1076 0.950 1_455 S
C1072 C1081 1.390 . S
C1073 C1072 1.387 1_655 S
C1073 C1075 1.387 1_655 S
H1074 C1081 0.950 . S
C1075 C1073 1.387 1_455 S
C1075 C1077 1.390 . S
C1075 H1079 0.960 . S
H1076 C1072 0.950 1_655 S
C1077 C1075 1.390 . S
C1077 C1078 1.387 . S
C1077 H1080 0.950 . S
C1078 C1077 1.387 . S
C1078 C1081 1.387 . S
H1079 C1075 0.960 . S
H1080 C1077 0.950 . S
C1081 C1072 1.390 . S
C1081 H1074 0.950 . S
C1081 C1078 1.387 . S
C1082 C1083 1.387 1_455 S
C1082 H1086 0.950 1_455 S
C1082 C1091 1.390 . S
C1083 C1082 1.387 1_655 S
C1083 C1085 1.387 1_655 S
H1084 C1091 0.950 . S
C1085 C1083 1.387 1_455 S
C1085 C1087 1.390 . S
C1085 H1089 0.950 1_455 S
H1086 C1082 0.950 1_655 S
C1087 C1085 1.390 . S
C1087 C1088 1.387 . S
C1087 H1090 0.950 . S
C1088 C1087 1.387 . S
C1088 C1091 1.387 . S
H1089 C1085 0.950 1_655 S
H1090 C1087 0.950 . S
C1091 C1082 1.390 . S
C1091 H1084 0.950 . S
C1091 C1088 1.387 . S
C1092 C1093 1.387 . S
C1092 H1096 0.950 . S
C1092 C1101 1.390 . S
C1093 C1092 1.387 . S
C1093 C1095 1.387 . S
H1094 C1101 0.950 1_565 S
C1095 C1093 1.387 . S
C1095 C1097 1.390 . S
C1095 H1099 0.950 . S
H1096 C1092 0.950 . S
C1097 C1095 1.390 . S
C1097 C1098 1.387 1_545 S
C1097 H1100 0.950 . S
C1098 C1097 1.387 1_565 S
C1098 C1101 1.387 1_565 S
H1099 C1095 0.950 . S
H1100 C1097 0.950 . S
C1101 C1092 1.390 . S
C1101 H1094 0.950 1_545 S
C1101 C1098 1.387 1_545 S
C1102 C1103 1.387 . S
C1102 H1106 0.950 . S
C1102 C1111 1.390 . S
C1103 C1102 1.387 . S
C1103 C1105 1.387 . S
H1104 C1111 0.950 1_455 S
C1105 C1103 1.387 . S
C1105 C1107 1.390 . S
C1105 H1109 0.950 . S
H1106 C1102 0.950 . S
C1107 C1105 1.390 . S
C1107 C1108 1.387 1_655 S
C1107 H1110 0.950 1_655 S
C1108 C1107 1.387 1_455 S
C1108 C1111 1.387 1_455 S
H1109 C1105 0.950 . S
H1110 C1107 0.950 1_455 S
C1111 C1102 1.390 . S
C1111 H1104 0.950 1_655 S
C1111 C1108 1.387 1_655 S
C1112 C1113 1.387 1_565 S
C1112 H1116 0.963 . S
C1112 C1121 1.390 . S
C1113 C1112 1.387 1_545 S
C1113 C1115 1.387 1_545 S
H1114 C1121 0.950 . S
C1115 C1113 1.387 1_565 S
C1115 C1117 1.390 . S
C1115 H1119 0.950 1_565 S
H1116 C1112 0.963 . S
C1117 C1115 1.390 . S
C1117 C1118 1.387 . S
C1117 H1120 0.950 . S
C1118 C1117 1.387 . S
C1118 C1121 1.387 . S
H1119 C1115 0.950 1_545 S
H1120 C1117 0.950 . S
C1121 C1112 1.390 . S
C1121 H1114 0.950 . S
C1121 C1118 1.387 . S
C1122 C1123 1.387 1_655 S
C1122 H1126 0.950 1_655 S
C1122 C1131 1.390 . S
C1123 C1122 1.387 1_455 S
C1123 C1125 1.387 1_455 S
H1124 C1131 0.950 . S
C1125 C1123 1.387 1_655 S
C1125 C1127 1.390 . S
C1125 H1129 0.950 1_655 S
H1126 C1122 0.950 1_455 S
C1127 C1125 1.390 . S
C1127 C1128 1.387 . S
C1127 H1130 0.950 . S
C1128 C1127 1.387 . S
C1128 C1131 1.387 . S
H1129 C1125 0.950 1_455 S
H1130 C1127 0.950 . S
C1131 C1122 1.390 . S
C1131 H1124 0.950 . S
C1131 C1128 1.387 . S
C1132 C1133 1.387 1_565 S
C1132 H1136 0.950 1_565 S
C1132 C1141 1.390 . S
C1133 C1132 1.387 1_545 S
C1133 C1135 1.387 1_545 S
H1134 C1141 0.950 . S
C1135 C1133 1.387 1_565 S
C1135 C1137 1.390 . S
C1135 H1139 0.950 1_565 S
H1136 C1132 0.950 1_545 S
C1137 C1135 1.390 . S
C1137 C1138 1.387 . S
C1137 H1140 0.950 . S
C1138 C1137 1.387 . S
C1138 C1141 1.387 . S
H1139 C1135 0.950 1_545 S
H1140 C1137 0.950 . S
C1141 C1132 1.390 . S
C1141 H1134 0.950 . S
C1141 C1138 1.387 . S
C1142 C1143 1.387 . S
C1142 H1146 0.950 . S
C1142 C1151 1.390 . S
C1143 C1142 1.387 . S
C1143 C1145 1.387 . S
H1144 C1151 0.950 1_565 S
C1145 C1143 1.387 . S
C1145 C1147 1.390 . S
C1145 H1149 0.950 . S
H1146 C1142 0.950 . S
C1147 C1145 1.390 . S
C1147 C1148 1.387 1_545 S
C1147 H1150 0.951 1_545 S
C1148 C1147 1.387 1_565 S
C1148 C1151 1.387 1_565 S
H1149 C1145 0.950 . S
H1150 C1147 0.951 1_565 S
C1151 C1142 1.390 . S
C1151 H1144 0.950 1_545 S
C1151 C1148 1.387 1_545 S
C1152 C1153 1.387 . S
C1152 H1156 0.950 . S
C1152 C1161 1.390 . S
C1153 C1152 1.387 . S
C1153 C1155 1.387 . S
H1154 C1161 0.950 . S
C1155 C1153 1.387 . S
C1155 C1157 1.390 . S
C1155 H1159 0.950 . S
H1156 C1152 0.950 . S
C1157 C1155 1.390 . S
C1157 C1158 1.387 . S
C1157 H1160 0.950 . S
C1158 C1157 1.387 . S
C1158 C1161 1.387 . S
H1159 C1155 0.950 . S
H1160 C1157 0.950 . S
C1161 C1152 1.390 . S
C1161 H1154 0.950 . S
C1161 C1158 1.387 . S
C1162 C1163 1.387 . S
C1162 H1166 0.950 . S
C1162 C1171 1.390 . S
C1163 C1162 1.387 . S
C1163 C1165 1.387 . S
H1164 C1171 0.950 . S
C1165 C1163 1.387 . S
C1165 C1167 1.390 . S
C1165 H1169 0.950 . S
H1166 C1162 0.950 . S
C1167 C1165 1.390 . S
C1167 C1168 1.387 . S
C1167 H1170 0.950 . S
C1168 C1167 1.387 . S
C1168 C1171 1.387 . S
H1169 C1165 0.950 . S
H1170 C1167 0.950 . S
C1171 C1162 1.390 . S
C1171 H1164 0.950 . S
C1171 C1168 1.387 . S
C1172 C1173 1.387 . S
C1172 H1176 0.950 . S
C1172 C1181 1.390 . S
C1173 C1172 1.387 . S
C1173 C1175 1.387 . S
H1174 C1181 0.950 . S
C1175 C1173 1.387 . S
C1175 C1177 1.390 . S
C1175 H1179 0.950 . S
H1176 C1172 0.950 . S
C1177 C1175 1.390 . S
C1177 C1178 1.387 . S
C1177 H1180 0.950 . S
C1178 C1177 1.387 . S
C1178 C1181 1.387 . S
H1179 C1175 0.950 . S
H1180 C1177 0.950 . S
C1181 C1172 1.390 . S
C1181 H1174 0.950 . S
C1181 C1178 1.387 . S
C1182 C1183 1.387 . S
C1182 H1186 0.950 . S
C1182 C1191 1.390 . S
C1183 C1182 1.387 . S
C1183 C1185 1.387 . S
H1184 C1191 0.950 . S
C1185 C1183 1.387 . S
C1185 C1187 1.390 . S
C1185 H1189 0.950 . S
H1186 C1182 0.950 . S
C1187 C1185 1.390 . S
C1187 C1188 1.387 . S
C1187 H1190 0.950 . S
C1188 C1187 1.387 . S
C1188 C1191 1.387 . S
H1189 C1185 0.950 . S
H1190 C1187 0.950 . S
C1191 C1182 1.390 . S
C1191 H1184 0.950 . S
C1191 C1188 1.387 . S
C1192 C1193 1.387 . S
C1192 H1196 0.950 . S
C1192 C1201 1.390 . S
C1193 C1192 1.387 . S
C1193 C1195 1.387 . S
H1194 C1201 0.950 . S
C1195 C1193 1.387 . S
C1195 C1197 1.390 . S
C1195 H1199 0.950 . S
H1196 C1192 0.950 . S
C1197 C1195 1.390 . S
C1197 C1198 1.387 . S
C1197 H1200 0.950 . S
C1198 C1197 1.387 . S
C1198 C1201 1.387 . S
H1199 C1195 0.950 . S
H1200 C1197 0.950 . S
C1201 C1192 1.390 . S
C1201 H1194 0.950 . S
C1201 C1198 1.387 . S
C1202 C1203 1.387 . S
C1202 H1206 0.950 . S
C1202 C1211 1.390 . S
C1203 C1202 1.387 . S
C1203 C1205 1.387 . S
H1204 C1211 0.950 . S
C1205 C1203 1.387 . S
C1205 C1207 1.390 . S
C1205 H1209 0.950 . S
H1206 C1202 0.950 . S
C1207 C1205 1.390 . S
C1207 C1208 1.387 . S
C1207 H1210 0.950 . S
C1208 C1207 1.387 . S
C1208 C1211 1.387 . S
H1209 C1205 0.950 . S
H1210 C1207 0.950 . S
C1211 C1202 1.390 . S
C1211 H1204 0.950 . S
C1211 C1208 1.387 . S
C1212 C1213 1.387 . S
C1212 H1216 0.950 . S
C1212 C1221 1.390 . S
C1213 C1212 1.387 . S
C1213 C1215 1.387 . S
H1214 C1221 0.950 . S
C1215 C1213 1.387 . S
C1215 C1217 1.390 . S
C1215 H1219 0.950 . S
H1216 C1212 0.950 . S
C1217 C1215 1.390 . S
C1217 C1218 1.387 . S
C1217 H1220 0.950 . S
C1218 C1217 1.387 . S
C1218 C1221 1.387 . S
H1219 C1215 0.950 . S
H1220 C1217 0.950 . S
C1221 C1212 1.390 . S
C1221 H1214 0.950 . S
C1221 C1218 1.387 . S
C1222 C1223 1.387 . S
C1222 H1226 0.950 . S
C1222 C1231 1.390 . S
C1223 C1222 1.387 . S
C1223 C1225 1.387 . S
H1224 C1231 0.950 . S
C1225 C1223 1.387 . S
C1225 C1227 1.390 . S
C1225 H1229 0.950 . S
H1226 C1222 0.950 . S
C1227 C1225 1.390 . S
C1227 C1228 1.387 . S
C1227 H1230 0.950 . S
C1228 C1227 1.387 . S
C1228 C1231 1.387 . S
H1229 C1225 0.950 . S
H1230 C1227 0.950 . S
C1231 C1222 1.390 . S
C1231 H1224 0.950 . S
C1231 C1228 1.387 . S
C1232 C1233 1.387 . S
C1232 H1236 0.950 . S
C1232 C1241 1.390 . S
C1233 C1232 1.387 . S
C1233 C1235 1.387 . S
H1234 C1241 0.950 . S
C1235 C1233 1.387 . S
C1235 C1237 1.390 . S
C1235 H1239 0.950 . S
H1236 C1232 0.950 . S
C1237 C1235 1.390 . S
C1237 C1238 1.387 . S
C1237 H1240 0.950 . S
C1238 C1237 1.387 . S
C1238 C1241 1.387 . S
H1239 C1235 0.950 . S
H1240 C1237 0.950 . S
C1241 C1232 1.390 . S
C1241 H1234 0.950 . S
C1241 C1238 1.387 . S
C1242 C1243 1.387 . S
C1242 H1246 0.950 . S
C1242 C1251 1.390 . S
C1243 C1242 1.387 . S
C1243 C1245 1.387 . S
H1244 C1251 0.950 . S
C1245 C1243 1.387 . S
C1245 C1247 1.390 . S
C1245 H1249 0.950 . S
H1246 C1242 0.950 . S
C1247 C1245 1.390 . S
C1247 C1248 1.387 . S
C1247 H1250 0.950 . S
C1248 C1247 1.387 . S
C1248 C1251 1.387 . S
H1249 C1245 0.950 . S
H1250 C1247 0.950 . S
C1251 C1242 1.390 . S
C1251 H1244 0.950 . S
C1251 C1248 1.387 . S
C1252 C1253 1.387 . S
C1252 H1256 0.950 . S
C1252 C1261 1.390 . S
C1253 C1252 1.387 . S
C1253 C1255 1.387 . S
H1254 C1261 0.950 . S
C1255 C1253 1.387 . S
C1255 C1257 1.390 . S
C1255 H1259 0.950 . S
H1256 C1252 0.950 . S
C1257 C1255 1.390 . S
C1257 C1258 1.387 . S
C1257 H1260 0.950 . S
C1258 C1257 1.387 . S
C1258 C1261 1.387 . S
H1259 C1255 0.950 . S
H1260 C1257 0.950 . S
C1261 C1252 1.390 . S
C1261 H1254 0.950 . S
C1261 C1258 1.387 . S
C1262 C1263 1.387 . S
C1262 H1266 0.950 . S
C1262 C1271 1.390 . S
C1263 C1262 1.387 . S
C1263 C1265 1.387 . S
H1264 C1271 0.950 . S
C1265 C1263 1.387 . S
C1265 C1267 1.390 . S
C1265 H1269 0.950 . S
H1266 C1262 0.950 . S
C1267 C1265 1.390 . S
C1267 C1268 1.387 . S
C1267 H1270 0.950 . S
C1268 C1267 1.387 . S
C1268 C1271 1.387 . S
H1269 C1265 0.950 . S
H1270 C1267 0.950 . S
C1271 C1262 1.390 . S
C1271 H1264 0.950 . S
C1271 C1268 1.387 . S
C1272 C1273 1.387 . S
C1272 H1276 0.950 . S
C1272 C1281 1.390 . S
C1273 C1272 1.387 . S
C1273 C1275 1.387 . S
H1274 C1281 0.950 . S
C1275 C1273 1.387 . S
C1275 C1277 1.390 . S
C1275 H1279 0.950 . S
H1276 C1272 0.950 . S
C1277 C1275 1.390 . S
C1277 C1278 1.387 . S
C1277 H1280 0.950 . S
C1278 C1277 1.387 . S
C1278 C1281 1.387 . S
H1279 C1275 0.950 . S
H1280 C1277 0.950 . S
C1281 C1272 1.390 . S
C1281 H1274 0.950 . S
C1281 C1278 1.387 . S
C1282 C1283 1.387 . S
C1282 H1286 0.950 . S
C1282 C1291 1.390 . S
C1283 C1282 1.387 . S
C1283 C1285 1.387 . S
H1284 C1291 0.950 . S
C1285 C1283 1.387 . S
C1285 C1287 1.390 . S
C1285 H1289 0.950 . S
H1286 C1282 0.950 . S
C1287 C1285 1.390 . S
C1287 C1288 1.387 . S
C1287 H1290 0.950 . S
C1288 C1287 1.387 . S
C1288 C1291 1.387 . S
H1289 C1285 0.950 . S
H1290 C1287 0.950 . S
C1291 C1282 1.390 . S
C1291 H1284 0.950 . S
C1291 C1288 1.387 . S
C1292 C1293 1.387 . S
C1292 H1296 0.950 . S
C1292 C1301 1.390 . S
C1293 C1292 1.387 . S
C1293 C1295 1.387 . S
H1294 C1301 0.950 . S
C1295 C1293 1.387 . S
C1295 C1297 1.390 . S
C1295 H1299 0.950 . S
H1296 C1292 0.950 . S
C1297 C1295 1.390 . S
C1297 C1298 1.387 . S
C1297 H1300 0.950 . S
C1298 C1297 1.387 . S
C1298 C1301 1.387 . S
H1299 C1295 0.950 . S
H1300 C1297 0.950 . S
C1301 C1292 1.390 . S
C1301 H1294 0.950 . S
C1301 C1298 1.387 . S
C1302 C1303 1.387 . S
C1302 H1306 0.950 . S
C1302 C1311 1.390 . S
C1303 C1302 1.387 . S
C1303 C1305 1.387 . S
H1304 C1311 0.950 . S
C1305 C1303 1.387 . S
C1305 C1307 1.390 . S
C1305 H1309 0.950 . S
H1306 C1302 0.950 . S
C1307 C1305 1.390 . S
C1307 C1308 1.387 . S
C1307 H1310 0.950 . S
C1308 C1307 1.387 . S
C1308 C1311 1.387 . S
H1309 C1305 0.950 . S
H1310 C1307 0.950 . S
C1311 C1302 1.390 . S
C1311 H1304 0.950 . S
C1311 C1308 1.387 . S
C1312 C1313 1.387 . S
C1312 H1316 0.950 . S
C1312 C1321 1.390 . S
C1313 C1312 1.387 . S
C1313 C1315 1.387 . S
H1314 C1321 0.950 . S
C1315 C1313 1.387 . S
C1315 C1317 1.390 . S
C1315 H1319 0.950 . S
H1316 C1312 0.950 . S
C1317 C1315 1.390 . S
C1317 C1318 1.387 . S
C1317 H1320 0.950 . S
C1318 C1317 1.387 . S
C1318 C1321 1.387 . S
H1319 C1315 0.950 . S
H1320 C1317 0.950 . S
C1321 C1312 1.390 . S
C1321 H1314 0.950 . S
C1321 C1318 1.387 . S
C1322 C1323 1.387 . S
C1322 H1326 0.950 . S
C1322 C1331 1.390 . S
C1323 C1322 1.387 . S
C1323 C1325 1.387 . S
H1324 C1331 0.950 . S
C1325 C1323 1.387 . S
C1325 C1327 1.390 . S
C1325 H1329 0.950 . S
H1326 C1322 0.950 . S
C1327 C1325 1.390 . S
C1327 C1328 1.387 . S
C1327 H1330 0.950 . S
C1328 C1327 1.387 . S
C1328 C1331 1.387 . S
H1329 C1325 0.950 . S
H1330 C1327 0.950 . S
C1331 C1322 1.390 . S
C1331 H1324 0.950 . S
C1331 C1328 1.387 . S
C1332 C1333 1.387 . S
C1332 H1336 0.950 . S
C1332 C1341 1.390 . S
C1333 C1332 1.387 . S
C1333 C1335 1.387 . S
H1334 C1341 0.950 . S
C1335 C1333 1.387 . S
C1335 C1337 1.390 . S
C1335 H1339 0.950 . S
H1336 C1332 0.950 . S
C1337 C1335 1.390 . S
C1337 C1338 1.387 . S
C1337 H1340 0.950 . S
C1338 C1337 1.387 . S
C1338 C1341 1.387 . S
H1339 C1335 0.950 . S
H1340 C1337 0.950 . S
C1341 C1332 1.390 . S
C1341 H1334 0.950 . S
C1341 C1338 1.387 . S
C1342 C1343 1.387 . S
C1342 H1346 0.950 . S
C1342 C1351 1.390 . S
C1343 C1342 1.387 . S
C1343 C1345 1.387 . S
H1344 C1351 0.950 . S
C1345 C1343 1.387 . S
C1345 C1347 1.390 . S
C1345 H1349 0.950 . S
H1346 C1342 0.950 . S
C1347 C1345 1.390 . S
C1347 C1348 1.387 . S
C1347 H1350 0.950 . S
C1348 C1347 1.387 . S
C1348 C1351 1.387 . S
H1349 C1345 0.950 . S
H1350 C1347 0.950 . S
C1351 C1342 1.390 . S
C1351 H1344 0.950 . S
C1351 C1348 1.387 . S
C1352 C1353 1.387 . S
C1352 H1356 0.950 . S
C1352 C1361 1.390 . S
C1353 C1352 1.387 . S
C1353 C1355 1.387 . S
H1354 C1361 0.950 . S
C1355 C1353 1.387 . S
C1355 C1357 1.390 . S
C1355 H1359 0.950 . S
H1356 C1352 0.950 . S
C1357 C1355 1.390 . S
C1357 C1358 1.387 . S
C1357 H1360 0.950 . S
C1358 C1357 1.387 . S
C1358 C1361 1.387 . S
H1359 C1355 0.950 . S
H1360 C1357 0.950 . S
C1361 C1352 1.390 . S
C1361 H1354 0.950 . S
C1361 C1358 1.387 . S
C1362 C1363 1.387 . S
C1362 H1366 0.950 . S
C1362 C1371 1.390 . S
C1363 C1362 1.387 . S
C1363 C1365 1.387 . S
H1364 C1371 0.950 . S
C1365 C1363 1.387 . S
C1365 C1367 1.390 . S
C1365 H1369 0.950 . S
H1366 C1362 0.950 . S
C1367 C1365 1.390 . S
C1367 C1368 1.387 . S
C1367 H1370 0.950 . S
C1368 C1367 1.387 . S
C1368 C1371 1.387 . S
H1369 C1365 0.950 . S
H1370 C1367 0.950 . S
C1371 C1362 1.390 . S
C1371 H1364 0.950 . S
C1371 C1368 1.387 . S
C1372 C1373 1.387 . S
C1372 H1376 0.950 . S
C1372 C1381 1.390 . S
C1373 C1372 1.387 . S
C1373 C1375 1.387 . S
H1374 C1381 0.950 . S
C1375 C1373 1.387 . S
C1375 C1377 1.390 . S
C1375 H1379 0.950 . S
H1376 C1372 0.950 . S
C1377 C1375 1.390 . S
C1377 C1378 1.387 . S
C1377 H1380 0.950 . S
C1378 C1377 1.387 . S
C1378 C1381 1.387 . S
H1379 C1375 0.950 . S
H1380 C1377 0.950 . S
C1381 C1372 1.390 . S
C1381 H1374 0.950 . S
C1381 C1378 1.387 . S
C1382 C1383 1.387 . S
C1382 H1386 0.950 . S
C1382 C1391 1.390 . S
C1383 C1382 1.387 . S
C1383 C1385 1.387 . S
H1384 C1391 0.950 . S
C1385 C1383 1.387 . S
C1385 C1387 1.390 . S
C1385 H1389 0.950 . S
H1386 C1382 0.950 . S
C1387 C1385 1.390 . S
C1387 C1388 1.387 . S
C1387 H1390 0.950 . S
C1388 C1387 1.387 . S
C1388 C1391 1.387 . S
H1389 C1385 0.950 . S
H1390 C1387 0.950 . S
C1391 C1382 1.390 . S
C1391 H1384 0.950 . S
C1391 C1388 1.387 . S
C793 C182 1.249 . S
C798 C17 1.247 . S
C803 C50 1.246 . S
C808 C215 1.247 . S
C813 C83 1.246 . S
C818 C248 1.249 . S
C823 C149 1.248 . S
C828 C116 1.249 . S
C833 C281 1.246 . S
C838 C776 1.247 . S
C843 C710 1.249 . S
C848 C314 1.246 . S
C853 C347 1.249 . S
C858 C743 1.248 . S
C863 C545 1.249 . S
C868 C380 1.247 . S
C873 C413 1.246 . S
C878 C677 1.247 . S
C883 C446 1.246 . S
C888 C578 1.249 . S
C893 C611 1.247 . S
C898 C479 1.246 . S
C903 C512 1.248 . S
C908 C644 1.246 . S
C913 N104 1.668 . S
C918 C28 1.764 . S
C923 C61 1.765 . S
C928 N5 1.667 . S
C933 C94 1.765 . S
C938 N38 1.668 . S
C943 N71 1.668 . S
C948 C127 1.765 . S
C953 N170 1.667 . S
C958 C160 1.765 . S
C963 C193 1.765 . S
C968 N203 1.668 . S
C973 N236 1.668 . S
C978 C226 1.765 . S
C983 N137 1.664 . S
C988 C259 1.763 . S
C993 N599 1.668 . S
C998 C292 1.764 . S
C1003 C325 1.765 . S
C1008 N632 1.668 . S
C1013 N665 1.664 . S
C1018 C358 1.763 . S
C1023 C391 1.764 . S
C1028 N566 1.665 . S
C1033 N731 1.668 . S
C1038 C424 1.765 . S
C1043 C457 1.765 . S
C1048 N533 1.668 . S
C1053 N764 1.664 . S
C1058 C490 1.763 . S
C1063 C523 1.765 . S
C1068 N698 1.668 . S
C1073 N302 1.664 . S
C1078 C556 1.763 . S
C1083 N500 1.665 . S
C1088 C589 1.762 . S
C1093 C622 1.763 . S
C1098 N401 1.664 . S
C1103 C655 1.762 . S
C1108 N434 1.665 . S
C1113 N467 1.668 . S
C1118 C688 1.765 . S
C1123 N368 1.665 . S
C1128 C721 1.762 . S
C1133 N269 1.664 . S
C1138 C754 1.763 . S
C1143 C787 1.763 . S
C1148 N335 1.664 . S
C1153 C8 1.454 . S
C1158 N542 1.380 . S
C1163 N773 1.381 . S
C1168 C41 1.456 . S
C1173 C74 1.455 . S
C1178 N707 1.381 . S
C1183 N740 1.380 . S
C1188 C107 1.454 . S
C1193 C140 1.455 . S
C1198 N575 1.379 . S
C1203 C173 1.456 . S
C1208 N608 1.381 . S
C1213 N641 1.379 . S
C1218 C206 1.454 . S
C1223 N674 1.382 . S
C1228 C239 1.456 . S
C1233 N14 1.383 . S
C1238 C272 1.457 . S
C1243 C305 1.456 . S
C1248 N47 1.383 . S
C1253 C338 1.454 . S
C1258 N80 1.379 . S
C1263 C371 1.456 . S
C1268 N113 1.382 . S
C1273 C404 1.457 . S
C1278 N146 1.383 . S
C1283 C437 1.454 . S
C1288 N179 1.379 . S
C1293 C470 1.455 . S
C1298 N212 1.380 . S
C1303 C503 1.454 . S
C1308 N245 1.379 . S
C1313 N278 1.382 . S
C1318 C536 1.456 . S
C1323 C569 1.454 . S
C1328 N410 1.380 . S
C1333 C602 1.454 . S
C1338 N443 1.380 . S
C1343 N476 1.381 . S
C1348 C635 1.456 . S
C1353 C668 1.453 . S
C1358 N509 1.378 . S
C1363 N344 1.380 . S
C1368 C701 1.455 . S
C1373 N377 1.380 . S
C1378 C734 1.454 . S
C1383 C767 1.453 . S
C1388 N311 1.378 . S
