# Generated by pormake.
# Topology wkq, (6)-cn, num edge types: 1
# Building blocks:
#     Node 0, Type 0, BuildingBlock: OJICUG_clean_sbu_0, # of connection points: 6
#     Node 1, Type 0, BuildingBlock: OJICUG_clean_sbu_0, # of connection points: 6
#     Node 2, Type 0, BuildingBlock: OJICUG_clean_sbu_0, # of connection points: 6
#     Node 3, Type 0, BuildingBlock: OJICUG_clean_sbu_0, # of connection points: 6
#     Node 4, Type 0, BuildingBlock: OJICUG_clean_sbu_0, # of connection points: 6
#     Node 5, Type 0, BuildingBlock: OJICUG_clean_sbu_0, # of connection points: 6
#     Node 6, Type 0, BuildingBlock: OJICUG_clean_sbu_0, # of connection points: 6
#     Node 7, Type 0, BuildingBlock: OJICUG_clean_sbu_0, # of connection points: 6
#     Node 8, Type 0, BuildingBlock: OJICUG_clean_sbu_0, # of connection points: 6
#     Node 9, Type 0, BuildingBlock: OJICUG_clean_sbu_0, # of connection points: 6
#     Node 10, Type 0, BuildingBlock: OJICUG_clean_sbu_0, # of connection points: 6
#     Node 11, Type 0, BuildingBlock: OJICUG_clean_sbu_0, # of connection points: 6
#     Edge 12, Type (0, 0), BuildingBlock: EZIPEK_clean_linker_0, # of connection points: 2
#     Edge 13, Type (0, 0), BuildingBlock: EZIPEK_clean_linker_0, # of connection points: 2
#     Edge 14, Type (0, 0), BuildingBlock: EZIPEK_clean_linker_0, # of connection points: 2
#     Edge 15, Type (0, 0), BuildingBlock: EZIPEK_clean_linker_0, # of connection points: 2
#     Edge 16, Type (0, 0), BuildingBlock: EZIPEK_clean_linker_0, # of connection points: 2
#     Edge 17, Type (0, 0), BuildingBlock: EZIPEK_clean_linker_0, # of connection points: 2
#     Edge 18, Type (0, 0), BuildingBlock: EZIPEK_clean_linker_0, # of connection points: 2
#     Edge 19, Type (0, 0), BuildingBlock: EZIPEK_clean_linker_0, # of connection points: 2
#     Edge 20, Type (0, 0), BuildingBlock: EZIPEK_clean_linker_0, # of connection points: 2
#     Edge 21, Type (0, 0), BuildingBlock: EZIPEK_clean_linker_0, # of connection points: 2
#     Edge 22, Type (0, 0), BuildingBlock: EZIPEK_clean_linker_0, # of connection points: 2
#     Edge 23, Type (0, 0), BuildingBlock: EZIPEK_clean_linker_0, # of connection points: 2
#     Edge 24, Type (0, 0), BuildingBlock: EZIPEK_clean_linker_0, # of connection points: 2
#     Edge 25, Type (0, 0), BuildingBlock: EZIPEK_clean_linker_0, # of connection points: 2
#     Edge 26, Type (0, 0), BuildingBlock: EZIPEK_clean_linker_0, # of connection points: 2
#     Edge 27, Type (0, 0), BuildingBlock: EZIPEK_clean_linker_0, # of connection points: 2
#     Edge 28, Type (0, 0), BuildingBlock: EZIPEK_clean_linker_0, # of connection points: 2
#     Edge 29, Type (0, 0), BuildingBlock: EZIPEK_clean_linker_0, # of connection points: 2
#     Edge 30, Type (0, 0), BuildingBlock: EZIPEK_clean_linker_0, # of connection points: 2
#     Edge 31, Type (0, 0), BuildingBlock: EZIPEK_clean_linker_0, # of connection points: 2
#     Edge 32, Type (0, 0), BuildingBlock: EZIPEK_clean_linker_0, # of connection points: 2
#     Edge 33, Type (0, 0), BuildingBlock: EZIPEK_clean_linker_0, # of connection points: 2
#     Edge 34, Type (0, 0), BuildingBlock: EZIPEK_clean_linker_0, # of connection points: 2
#     Edge 35, Type (0, 0), BuildingBlock: EZIPEK_clean_linker_0, # of connection points: 2
#     Edge 36, Type (0, 0), BuildingBlock: EZIPEK_clean_linker_0, # of connection points: 2
#     Edge 37, Type (0, 0), BuildingBlock: EZIPEK_clean_linker_0, # of connection points: 2
#     Edge 38, Type (0, 0), BuildingBlock: EZIPEK_clean_linker_0, # of connection points: 2
#     Edge 39, Type (0, 0), BuildingBlock: EZIPEK_clean_linker_0, # of connection points: 2
#     Edge 40, Type (0, 0), BuildingBlock: EZIPEK_clean_linker_0, # of connection points: 2
#     Edge 41, Type (0, 0), BuildingBlock: EZIPEK_clean_linker_0, # of connection points: 2
#     Edge 42, Type (0, 0), BuildingBlock: EZIPEK_clean_linker_0, # of connection points: 2
#     Edge 43, Type (0, 0), BuildingBlock: EZIPEK_clean_linker_0, # of connection points: 2
#     Edge 44, Type (0, 0), BuildingBlock: EZIPEK_clean_linker_0, # of connection points: 2
#     Edge 45, Type (0, 0), BuildingBlock: EZIPEK_clean_linker_0, # of connection points: 2
#     Edge 46, Type (0, 0), BuildingBlock: EZIPEK_clean_linker_0, # of connection points: 2
#     Edge 47, Type (0, 0), BuildingBlock: EZIPEK_clean_linker_0, # of connection points: 2
# Relax obj value: 0.340
# Max RMSD: 0.275
# Mean RMSD: 0.275
data_MOF--net-wkq--node1-OJICUG_clean_sbu_0--edge1-EZIPEK_clean_linker_0
_symmetry_space_group_name_H-M    P1
_symmetry_Int_Tables_number       1
_symmetry_cell_setting            triclinic
loop_
_symmetry_equiv_pos_as_xyz
'x, y, z'
_cell_length_a     29.225421
_cell_length_b     29.096222
_cell_length_c     26.831877
_cell_angle_alpha  89.835859
_cell_angle_beta   90.08862
_cell_angle_gamma 120.20388
loop_
_atom_site_label
_atom_site_type_symbol
_atom_site_fract_x
_atom_site_fract_y
_atom_site_fract_z
_atom_type_partial_charge
Sc0 Sc 0.20349 0.43268 0.94621 0.0
Sc1 Sc 0.28278 0.46338 0.05122 0.0
Sc2 Sc 0.18951 0.33139 0.02762 0.0
O3 O 0.22572 0.40934 0.00791 0.0
C4 C 0.09353 0.3329 0.97964 0.0
C5 C 0.21947 0.52328 0.02071 0.0
C6 C 0.18416 0.38859 0.12274 0.0
C7 C 0.32991 0.51442 0.94745 0.0
C8 C 0.22591 0.33687 0.91691 0.0
C9 C 0.3009 0.37147 0.0824 0.0
O10 O 0.12006 0.38015 0.9632 0.0
O11 O 0.25356 0.51744 0.04486 0.0
O12 O 0.1597 0.34857 0.09401 0.0
O13 O 0.28412 0.49426 0.92744 0.0
O14 O 0.22106 0.31806 0.96092 0.0
O15 O 0.32136 0.41883 0.06701 0.0
O16 O 0.21545 0.37359 0.90497 0.0
O17 O 0.33672 0.5003 -0.00965 0.0
O18 O 0.25363 0.33658 0.0722 0.0
O19 O 0.19396 0.49379 0.9839 0.0
O20 O 0.11548 0.30642 -0.00926 0.0
O21 O 0.22997 0.42786 0.11239 0.0
Sc22 Sc 0.88339 0.21431 0.20636 0.0
Sc23 Sc 0.82979 0.29322 0.2303 0.0
Sc24 Sc 0.78382 0.20807 0.12839 0.0
O25 O 0.83201 0.23844 0.1876 0.0
C26 C 0.90093 0.2369 0.09149 0.0
C27 C 0.94575 0.33778 0.24047 0.0
C28 C 0.80734 0.32609 0.12334 0.0
C29 C 0.84574 0.2196 0.30929 0.0
C30 C 0.78625 0.10639 0.16749 0.0
C31 C 0.70887 0.21279 0.21486 0.0
O32 O 0.91968 0.24118 0.13523 0.0
O33 O 0.91228 0.34768 0.22083 0.0
O34 O 0.80114 0.28496 0.10082 0.0
O35 O 0.84721 0.18768 0.2781 0.0
O36 O 0.76033 0.1278 0.15154 0.0
O37 O 0.74771 0.24128 0.24327 0.0
O38 O 0.83479 0.13349 0.17956 0.0
O39 O 0.84631 0.26173 0.29582 0.0
O40 O 0.71469 0.19998 0.17047 0.0
O41 O 0.93912 0.29095 0.24046 0.0
O42 O 0.85148 0.21864 0.08249 0.0
O43 O 0.81392 0.3322 0.17012 0.0
Sc44 Sc 0.59923 0.78123 0.28578 0.0
Sc45 Sc 0.56197 0.82285 0.3918 0.0
Sc46 Sc 0.69574 0.87538 0.36464 0.0
O47 O 0.61894 0.82584 0.34784 0.0
C48 C 0.69928 0.77534 0.3283 0.0
C49 C 0.51445 0.70048 0.36114 0.0
C50 C 0.64173 0.8333 0.47207 0.0
C51 C 0.51155 0.81688 0.28868 0.0
C52 C 0.69207 0.89377 0.24954 0.0
C53 C 0.65338 0.94543 0.40202 0.0
O54 O 0.66428 0.76468 0.29472 0.0
O55 O 0.51094 0.73813 0.38145 0.0
O56 O 0.68103 0.86104 0.44367 0.0
O57 O 0.53068 0.78971 0.27043 0.0
O58 O 0.71931 0.89781 0.28797 0.0
O59 O 0.6079 0.906 0.4116 0.0
O60 O 0.64574 0.85404 0.2426 0.0
O61 O 0.52569 0.84016 0.33055 0.0
O62 O 0.68437 0.94238 0.37101 0.0
O63 O 0.5493 0.7087 0.32813 0.0
O64 O 0.71181 0.8115 0.36062 0.0
O65 O 0.59444 0.80623 0.45632 0.0
Sc66 Sc 0.82523 0.68128 0.52064 0.0
Sc67 Sc 0.74661 0.54959 0.55457 0.0
Sc68 Sc 0.82365 0.58055 0.44781 0.0
O69 O 0.79957 0.60387 0.5079 0.0
C70 C 0.80543 0.67231 0.40532 0.0
C71 C 0.71403 0.63953 0.55834 0.0
C72 C 0.69831 0.49567 0.45389 0.0
C73 C 0.81823 0.63249 0.63006 0.0
C74 C 0.92969 0.68394 0.48928 0.0
C75 C 0.81604 0.4964 0.52473 0.0
O76 O 0.82622 0.70126 0.44334 0.0
O77 O 0.71132 0.59695 0.57356 0.0
O78 O 0.74402 0.51211 0.43448 0.0
O79 O 0.82567 0.67004 0.60062 0.0
O80 O 0.90622 0.64543 0.45832 0.0
O81 O 0.77657 0.49607 0.54497 0.0
O82 O 0.90524 0.69923 0.51762 0.0
O83 O 0.79934 0.58469 0.616 0.0
O84 O 0.84398 0.52991 0.49116 0.0
O85 O 0.74594 0.66747 0.52431 0.0
O86 O 0.80032 0.62637 0.4008 0.0
O87 O 0.69169 0.51311 0.495 0.0
Sc88 Sc 0.249 0.82081 0.61783 0.0
Sc89 Sc 0.21446 0.74829 0.72989 0.0
Sc90 Sc 0.15406 0.82183 0.69833 0.0
O91 O 0.20631 0.79722 0.68201 0.0
C92 C 0.25122 0.92673 0.653 0.0
C93 C 0.33378 0.82523 0.69791 0.0
C94 C 0.20029 0.82823 0.80229 0.0
C95 C 0.22504 0.70179 0.62595 0.0
C96 C 0.13029 0.78866 0.58478 0.0
C97 C 0.09553 0.7038 0.74515 0.0
O98 O 0.27179 0.90308 0.63062 0.0
O99 O 0.29919 0.7967 0.73019 0.0
O100 O 0.18729 0.85076 0.76942 0.0
O101 O 0.23452 0.74232 0.60004 0.0
O102 O 0.11576 0.79253 0.6284 0.0
O103 O 0.13139 0.69372 0.73342 0.0
O104 O 0.17796 0.8017 0.57384 0.0
O105 O 0.21759 0.69899 0.67263 0.0
O106 O 0.09813 0.74774 0.73466 0.0
O107 O 0.32212 0.83738 0.65577 0.0
O108 O 0.20506 0.90191 0.67164 0.0
O109 O 0.20976 0.79088 0.79351 0.0
Sc110 Sc 0.35047 0.14773 0.87059 0.0
Sc111 Sc 0.48531 0.21512 0.89564 0.0
Sc112 Sc 0.43963 0.24421 0.78727 0.0
O113 O 0.42487 0.20211 0.85064 0.0
C114 C 0.34934 0.12845 0.7534 0.0
C115 C 0.40327 0.09227 0.91873 0.0
C116 C 0.53044 0.21157 0.79289 0.0
C117 C 0.40617 0.20515 0.97314 0.0
C118 C 0.3362 0.24236 0.83105 0.0
C119 C 0.52482 0.332 0.8578 0.0
O120 O 0.32688 0.11747 0.79584 0.0
O121 O 0.4457 0.13584 0.92602 0.0
O122 O 0.50859 0.23543 0.77203 0.0
O123 O 0.36754 0.17032 0.94774 0.0
O124 O 0.37307 0.25776 0.79857 0.0
O125 O 0.53388 0.29782 0.87762 0.0
O126 O 0.32468 0.20441 0.8613 0.0
O127 O 0.45115 0.23677 0.95455 0.0
O128 O 0.48787 0.31939 0.82617 0.0
O129 O 0.37147 0.08749 0.88415 0.0
O130 O 0.39257 0.17153 0.74458 0.0
O131 O 0.52061 0.19388 0.83732 0.0
Sc132 Sc 0.69599 0.82641 0.78315 0.0
Sc133 Sc 0.56927 0.74284 0.74486 0.0
Sc134 Sc 0.5936 0.8184 0.85242 0.0
O135 O 0.61841 0.7944 0.79419 0.0
C136 C 0.68589 0.79484 0.8921 0.0
C137 C 0.65221 0.71538 0.72763 0.0
C138 C 0.5079 0.69517 0.8483 0.0
C139 C 0.66055 0.83612 0.67992 0.0
C140 C 0.69635 0.92352 0.82431 0.0
C141 C 0.51351 0.81003 0.76557 0.0
O142 O 0.69758 0.78667 0.84856 0.0
O143 O 0.60715 0.6959 0.74778 0.0
O144 O 0.53622 0.73727 0.87392 0.0
O145 O 0.6904 0.86346 0.71591 0.0
O146 O 0.64631 0.90127 0.82876 0.0
O147 O 0.53036 0.78793 0.73603 0.0
O148 O 0.71747 0.89529 0.8291 0.0
O149 O 0.62014 0.78983 0.68487 0.0
O150 O 0.52971 0.82071 0.81071 0.0
O151 O 0.68712 0.76348 0.73535 0.0
O152 O 0.65517 0.81419 0.8997 0.0
O153 O 0.515 0.69243 0.80179 0.0
Sc154 Sc 0.88473 0.68713 0.94023 0.0
Sc155 Sc 0.81981 0.55258 0.91074 0.0
Sc156 Sc 0.78406 0.59609 0.01691 0.0
O157 O 0.82937 0.61108 0.95626 0.0
C158 C 0.90689 0.67532 0.0506 0.0
C159 C 0.93673 0.62393 0.89106 0.0
C160 C 0.80401 0.49816 0.01787 0.0
C161 C 0.83359 0.64869 0.83877 0.0
C162 C 0.79686 0.7056 0.98321 0.0
C163 C 0.70004 0.51507 0.9367 0.0
O164 O 0.92433 0.68918 0.00651 0.0
O165 O 0.90244 0.57916 0.90801 0.0
O166 O 0.79413 0.53063 0.04053 0.0
O167 O 0.84576 0.68409 0.87203 0.0
O168 O 0.76607 0.65714 -0.00568 0.0
O169 O 0.73601 0.51791 0.90828 0.0
O170 O 0.84606 0.72329 0.9799 0.0
O171 O 0.8267 0.60233 0.84726 0.0
O172 O 0.71038 0.54083 0.9777 0.0
O173 O 0.93351 0.66542 0.89718 0.0
O174 O 0.85703 0.64854 0.0612 0.0
O175 O 0.81295 0.50035 0.97123 0.0
Sc176 Sc 0.20926 0.87998 0.12047 0.0
Sc177 Sc 0.29581 0.83531 0.0859 0.0
Sc178 Sc 0.21223 0.77808 0.18977 0.0
O179 O 0.23909 0.83094 0.13203 0.0
C180 C 0.22901 0.8875 0.23715 0.0
C181 C 0.33051 0.95652 0.08709 0.0
C182 C 0.33504 0.81592 0.19053 0.0
C183 C 0.21781 0.8481 0.01095 0.0
C184 C 0.10534 0.77213 0.15221 0.0
C185 C 0.22519 0.71004 0.1024 0.0
O186 O 0.2266 0.90742 0.19578 0.0
O187 O 0.34327 0.92076 0.0871 0.0
O188 O 0.29074 0.79769 0.21257 0.0
O189 O 0.19314 0.85943 0.04311 0.0
O190 O 0.13009 0.7507 0.17116 0.0
O191 O 0.25527 0.75106 0.07684 0.0
O192 O 0.12862 0.81986 0.1368 0.0
O193 O 0.25537 0.83977 0.0216 0.0
O194 O 0.20637 0.71242 0.14468 0.0
O195 O 0.28402 0.94593 0.09843 0.0
O196 O 0.21994 0.83984 0.24173 0.0
O197 O 0.34266 0.83098 0.14534 0.0
Sc198 Sc 0.33699 0.18351 0.27913 0.0
Sc199 Sc 0.47111 0.26684 0.25658 0.0
Sc200 Sc 0.42946 0.19255 0.36707 0.0
O201 O 0.41278 0.21427 0.30113 0.0
C202 C 0.33381 0.21507 0.39021 0.0
C203 C 0.39132 0.301 0.23116 0.0
C204 C 0.516 0.31614 0.36412 0.0
C205 C 0.38646 0.1814 0.18065 0.0
C206 C 0.33025 0.08274 0.33448 0.0
C207 C 0.51752 0.19536 0.29221 0.0
O208 O 0.32154 0.21423 0.34464 0.0
O209 O 0.4375 0.31689 0.2477 0.0
O210 O 0.48388 0.27411 0.38755 0.0
O211 O 0.35025 0.15355 0.21172 0.0
O212 O 0.37697 0.10853 0.35199 0.0
O213 O 0.50936 0.22127 0.25885 0.0
O214 O 0.30908 0.10636 0.31287 0.0
O215 O 0.42915 0.22357 0.1918 0.0
O216 O 0.49498 0.1849 0.33502 0.0
O217 O 0.35292 0.25426 0.23867 0.0
O218 O 0.36693 0.20121 0.4051 0.0
O219 O 0.51902 0.31691 0.31682 0.0
Sc220 Sc 0.14601 0.3472 0.43272 0.0
Sc221 Sc 0.21165 0.4835 0.4124 0.0
Sc222 Sc 0.24597 0.43131 0.51322 0.0
O223 O 0.20141 0.42134 0.45313 0.0
C224 C 0.12469 0.34913 0.54568 0.0
C225 C 0.09436 0.41514 0.39286 0.0
C226 C 0.22684 0.52903 0.52234 0.0
C227 C 0.19223 0.39347 0.3319 0.0
C228 C 0.23397 0.32498 0.4715 0.0
C229 C 0.33083 0.51742 0.43577 0.0
O230 O 0.1067 0.33969 0.50135 0.0
O231 O 0.12884 0.4583 0.41275 0.0
O232 O 0.23187 0.49225 0.54289 0.0
O233 O 0.18479 0.3564 0.36209 0.0
O234 O 0.26486 0.37272 0.48493 0.0
O235 O 0.2954 0.51513 0.40664 0.0
O236 O 0.18492 0.30785 0.46647 0.0
O237 O 0.19908 0.4381 0.34637 0.0
O238 O 0.31955 0.49088 0.4765 0.0
O239 O 0.09749 0.3732 0.39479 0.0
O240 O 0.17451 0.37418 0.55578 0.0
O241 O 0.223 0.53277 0.47555 0.0
Sc242 Sc 0.83823 0.15384 0.62157 0.0
Sc243 Sc 0.74503 0.18769 0.59229 0.0
Sc244 Sc 0.82541 0.244 0.69678 0.0
O245 O 0.8024 0.19556 0.63765 0.0
C246 C 0.80528 0.12872 0.7329 0.0
C247 C 0.72334 0.0789 0.57482 0.0
C248 C 0.70242 0.20257 0.69693 0.0
C249 C 0.83668 0.19709 0.51994 0.0
C250 C 0.93391 0.25585 0.6619 0.0
C251 C 0.81014 0.31205 0.61048 0.0
O252 O 0.8062 0.11186 0.68928 0.0
O253 O 0.70321 0.10265 0.59711 0.0
O254 O 0.74581 0.21908 0.72028 0.0
O255 O 0.8677 0.19721 0.55338 0.0
O256 O 0.90779 0.27784 0.6751 0.0
O257 O 0.78343 0.27145 0.58332 0.0
O258 O 0.91185 0.20588 0.65841 0.0
O259 O 0.78924 0.18593 0.52882 0.0
O260 O 0.82673 0.30944 0.65408 0.0
O261 O 0.77243 0.0952 0.57882 0.0
O262 O 0.82035 0.17773 0.74261 0.0
O263 O 0.69646 0.19053 0.65098 0.0
C264 C 0.26398 0.61986 0.0375 0.0
C265 C 0.21574 0.571 0.03419 0.0
C266 C 0.17028 0.61266 0.07544 0.0
C267 C 0.22014 0.65922 0.084 0.0
N268 N 0.31548 0.69943 0.08551 0.0
N269 N 0.12254 0.51918 0.05239 0.0
C270 C 0.26727 0.66053 0.06854 0.0
C271 C 0.16855 0.56692 0.05357 0.0
N272 N 0.3068 0.6277 0.0102 0.0
N273 N 0.12471 0.61245 0.08695 0.0
H274 H 0.11933 0.48648 0.03357 0.0
H275 H 0.08839 0.51149 0.07148 0.0
H276 H 0.1246 0.6439 0.10519 0.0
H277 H 0.08723 0.58238 0.07623 0.0
H278 H 0.34174 0.66433 0.00797 0.0
H279 H 0.30507 0.59931 0.98537 0.0
H280 H 0.35049 0.69915 0.07898 0.0
H281 H 0.31978 0.72832 0.11101 0.0
C282 C 0.61405 0.24068 0.28518 0.0
C283 C 0.56583 0.19186 0.28348 0.0
C284 C 0.61094 0.15254 0.23771 0.0
C285 C 0.65672 0.20392 0.23322 0.0
N286 N 0.69391 0.29904 0.24041 0.0
N287 N 0.5161 0.10161 0.25455 0.0
C288 C 0.65598 0.24859 0.25361 0.0
C289 C 0.56356 0.14762 0.2588 0.0
N290 N 0.61922 0.28024 0.31613 0.0
N291 N 0.61299 0.10871 0.22318 0.0
H292 H 0.48178 0.09671 0.27152 0.0
H293 H 0.5105 0.06971 0.23259 0.0
H294 H 0.64677 0.11124 0.20739 0.0
H295 H 0.58255 0.06997 0.2299 0.0
H296 H 0.65509 0.31536 0.32161 0.0
H297 H 0.58908 0.2752 0.3403 0.0
H298 H 0.69246 0.33273 0.25097 0.0
H299 H 0.72291 0.30674 0.21384 0.0
C300 C 0.40094 0.55596 0.36974 0.0
C301 C 0.38717 0.55489 0.42068 0.0
C302 C 0.47172 0.63775 0.4326 0.0
C303 C 0.47714 0.64567 0.38019 0.0
N304 N 0.44465 0.61116 0.29784 0.0
N305 N 0.41144 0.59751 0.50162 0.0
C306 C 0.4418 0.60403 0.34828 0.0
C307 C 0.4236 0.59593 0.45279 0.0
N308 N 0.37502 0.51068 0.34208 0.0
N309 N 0.51293 0.67017 0.46303 0.0
H310 H 0.37761 0.56779 0.51886 0.0
H311 H 0.43372 0.63032 0.52442 0.0
H312 H 0.54928 0.6996 0.4489 0.0
H313 H 0.51311 0.66373 0.50124 0.0
H314 H 0.38598 0.50774 0.3058 0.0
H315 H 0.34641 0.47464 0.35771 0.0
H316 H 0.4159 0.58407 0.27356 0.0
H317 H 0.47342 0.64578 0.28049 0.0
C318 C 0.77796 0.39974 0.53273 0.0
C319 C 0.82315 0.45052 0.53741 0.0
C320 C 0.86509 0.41096 0.58803 0.0
C321 C 0.81562 0.3625 0.59043 0.0
N322 N 0.72096 0.31806 0.57558 0.0
N323 N 0.91137 0.50558 0.56903 0.0
C324 C 0.7709 0.35901 0.56573 0.0
C325 C 0.86747 0.45652 0.56479 0.0
N326 N 0.74177 0.39033 0.49621 0.0
N327 N 0.90985 0.41318 0.60607 0.0
H328 H 0.9158 0.53779 0.54826 0.0
H329 H 0.94234 0.51429 0.59356 0.0
H330 H 0.90962 0.38127 0.62392 0.0
H331 H 0.94771 0.4455 0.6004 0.0
H332 H 0.71006 0.35243 0.48867 0.0
H333 H 0.74714 0.41949 0.4703 0.0
H334 H 0.68713 0.3166 0.56104 0.0
H335 H 0.71299 0.28935 0.60282 0.0
C336 C 0.46413 0.86243 0.76347 0.0
C337 C 0.47079 0.81992 0.7459 0.0
C338 C 0.40325 0.80173 0.68212 0.0
C339 C 0.38816 0.83473 0.70712 0.0
N340 N 0.40214 0.89385 0.77553 0.0
N341 N 0.43182 0.73875 0.6963 0.0
C342 C 0.41801 0.86436 0.74907 0.0
C343 C 0.43664 0.78693 0.70697 0.0
N344 N 0.50234 0.90219 0.79174 0.0
N345 N 0.38387 0.78206 0.63586 0.0
H346 H 0.44741 0.72064 0.71856 0.0
H347 H 0.40571 0.71298 0.66958 0.0
H348 H 0.3586 0.79106 0.61627 0.0
H349 H 0.39756 0.76125 0.61493 0.0
H350 H 0.50061 0.93578 0.80211 0.0
H351 H 0.53866 0.90511 0.79943 0.0
H352 H 0.41922 0.9118 0.80941 0.0
H353 H 0.36973 0.8974 0.76487 0.0
C354 C 0.6336 0.47702 0.86775 0.0
C355 C 0.6444 0.47817 0.91966 0.0
C356 C 0.5594 0.39558 0.92871 0.0
C357 C 0.55746 0.38749 0.87648 0.0
N358 N 0.59295 0.42191 0.79507 0.0
N359 N 0.61577 0.43508 0.00033 0.0
C360 C 0.59393 0.42907 0.84539 0.0
C361 C 0.60624 0.43718 0.95077 0.0
N362 N 0.66173 0.52198 0.84 0.0
N363 N 0.51622 0.36322 0.95705 0.0
H364 H 0.64928 0.46394 0.01868 0.0
H365 H 0.59171 0.40231 0.02266 0.0
H366 H 0.48075 0.3346 0.94084 0.0
H367 H 0.51365 0.36929 -0.00503 0.0
H368 H 0.65327 0.52494 0.8028 0.0
H369 H 0.68944 0.55776 0.85644 0.0
H370 H 0.62264 0.44873 0.7713 0.0
H371 H 0.56399 0.38762 0.77747 0.0
C372 C 0.37475 0.35554 0.10848 0.0
C373 C 0.32964 0.35923 0.12117 0.0
C374 C 0.34299 0.34716 0.20965 0.0
C375 C 0.38164 0.33438 0.19611 0.0
N376 N 0.43601 0.32635 0.13301 0.0
N377 N 0.26706 0.35241 0.18409 0.0
C378 C 0.39883 0.33954 0.1457 0.0
C379 C 0.31301 0.35385 0.17191 0.0
N380 N 0.39397 0.36649 0.06086 0.0
N381 N 0.33483 0.35245 0.25895 0.0
H382 H 0.24294 0.35541 0.15771 0.0
H383 H 0.25009 0.34273 0.21944 0.0
H384 H 0.35683 0.34767 0.28712 0.0
H385 H 0.31076 0.36692 0.27151 0.0
H386 H 0.42977 0.36981 0.05029 0.0
H387 H 0.37551 0.37545 0.03222 0.0
H388 H 0.44464 0.32155 0.09642 0.0
H389 H 0.45726 0.31836 0.15938 0.0
C390 C 0.96618 0.37585 0.32644 0.0
C391 C 0.98383 0.37606 0.27705 0.0
C392 C 0.0749 0.43001 0.30582 0.0
C393 C 0.0571 0.41557 0.35575 0.0
N394 N 0.98525 0.37612 0.41443 0.0
N395 N 0.05518 0.40762 0.21819 0.0
C396 C 1.00246 0.3894 0.36644 0.0
C397 C 0.03841 0.40503 0.26611 0.0
N398 N 0.91548 0.36423 0.3349 0.0
N399 N 0.12624 0.46769 0.29666 0.0
H400 H 0.02882 0.39131 0.1884 0.0
H401 H 0.09481 0.42423 0.20839 0.0
H402 H 0.1525 0.48885 0.32535 0.0
H403 H 0.14068 0.48241 0.2612 0.0
H404 H 0.90145 0.36625 0.37004 0.0
H405 H 0.88981 0.3595 0.30583 0.0
H406 H 0.94553 0.35143 0.42372 0.0
H407 H 1.01135 0.38798 0.44459 0.0
C408 C 0.71248 1.0036 0.52466 0.0
C409 C 0.69524 0.04032 0.53378 0.0
C410 C 0.65043 0.01673 0.45217 0.0
C411 C 0.67572 0.98736 0.44077 0.0
N412 N 0.74696 0.97071 0.46203 0.0
N413 N 0.65423 0.08888 0.49954 0.0
C414 C 0.71184 0.98634 0.47555 0.0
C415 C 0.66553 0.04879 0.49598 0.0
N416 N 0.73065 0.98606 0.56297 0.0
N417 N 0.61248 0.01456 0.4209 0.0
H418 H 0.66293 0.11361 0.53014 0.0
H419 H 0.63897 0.10015 0.46983 0.0
H420 H 0.60357 0.99483 0.38672 0.0
H421 H 0.58826 0.03 0.43023 0.0
H422 H 0.74112 0.95695 0.55839 0.0
H423 H 0.72928 0.99622 0.60002 0.0
H424 H 0.77611 0.9731 0.48614 0.0
H425 H 0.75207 0.96227 0.42554 0.0
C426 C 0.71683 0.70588 0.6759 0.0
C427 C 0.66283 0.68872 0.6854 0.0
C428 C 0.6405 0.64044 0.60567 0.0
C429 C 0.69502 0.66481 0.59406 0.0
N430 N 0.78331 0.73733 0.6121 0.0
N431 N 0.57374 0.64931 0.64995 0.0
C432 C 0.73266 0.70299 0.62706 0.0
C433 C 0.62434 0.65834 0.64794 0.0
N434 N 0.75334 0.72523 0.71348 0.0
N435 N 0.60412 0.6007 0.57608 0.0
H436 H 0.55902 0.66275 0.67797 0.0
H437 H 0.54719 0.63242 0.62046 0.0
H438 H 0.61456 0.58942 0.54303 0.0
H439 H 0.56435 0.57742 0.58593 0.0
H440 H 0.79271 0.73544 0.70833 0.0
H441 H 0.74281 0.72488 0.75069 0.0
H442 H 0.81065 0.76799 0.63475 0.0
H443 H 0.79598 0.73995 0.57547 0.0
C444 C 1.00055 0.64121 0.7667 0.0
C445 C 0.05444 0.66793 0.78089 0.0
C446 C 0.02957 0.65015 0.86914 0.0
C447 C 0.97605 0.62694 0.85489 0.0
N448 N 0.90948 0.58244 0.79169 0.0
N449 N 0.12011 0.6824 0.84383 0.0
C450 C 0.96116 0.61631 0.80402 0.0
C451 C 0.06896 0.66694 0.83155 0.0
N452 N 0.98722 0.641 0.71785 0.0
N453 N 0.04253 0.65748 0.91859 0.0
H454 H 0.15015 0.69388 0.81773 0.0
H455 H 0.13214 0.67885 0.87944 0.0
H456 H 1.0139 0.64298 0.94662 0.0
H457 H 0.0811 0.67931 0.93197 0.0
H458 H 0.94866 0.62692 0.70552 0.0
H459 H 1.01551 0.65722 0.68964 0.0
H460 H 0.89631 0.57054 0.7554 0.0
H461 H 0.88058 0.56147 0.8185 0.0
C462 C 0.4187 0.03742 0.98192 0.0
C463 C 0.38496 0.05537 0.96229 0.0
C464 C 0.33885 0.03515 0.04241 0.0
C465 C 0.36354 1.00646 0.05747 0.0
N466 N 0.44152 0.99938 0.05255 0.0
N467 N 0.30476 0.06037 0.97289 0.0
C468 C 0.40827 1.01349 0.03044 0.0
C469 C 0.34282 0.05136 -0.00779 0.0
N470 N 0.45888 0.0411 0.95298 0.0
N471 N 0.31181 0.04711 0.07647 0.0
H472 H 0.30232 0.06834 0.93557 0.0
H473 H 0.27138 0.05339 -0.00695 0.0
H474 H 0.31189 0.03858 0.11432 0.0
H475 H 0.29598 0.07136 0.06831 0.0
H476 H 0.48378 0.02686 0.96324 0.0
H477 H 0.4655 0.05605 0.91666 0.0
H478 H 0.47592 1.00403 0.03646 0.0
H479 H 0.43659 0.98712 0.08975 0.0
C480 C 0.4154 0.61358 0.84692 0.0
C481 C 0.46329 0.64732 0.873 0.0
C482 C 0.42078 0.59856 0.94916 0.0
C483 C 0.3769 0.55884 0.92143 0.0
N484 N 0.34421 0.5231 0.8389 0.0
N485 N 0.51527 0.6567 0.94643 0.0
C486 C 0.37776 0.5644 0.8687 0.0
C487 C 0.46731 0.6351 0.92334 0.0
N488 N 0.40365 0.62925 0.8031 0.0
N489 N 0.41773 0.60482 -0.00075 0.0
H490 H 0.55064 0.67891 0.92702 0.0
H491 H 0.51953 0.64599 0.98255 0.0
H492 H 0.38259 0.58546 0.01943 0.0
H493 H 0.44867 0.63563 0.01904 0.0
H494 H 0.36736 0.60669 0.78511 0.0
H495 H 0.42632 0.66754 0.78887 0.0
H496 H 0.34661 0.52555 0.80009 0.0
H497 H 0.31931 0.48479 0.85233 0.0
C498 C 0.7619 0.40098 0.0384 0.0
C499 C 0.80315 0.45414 0.04658 0.0
C500 C 0.84992 0.42202 0.09899 0.0
C501 C 0.80671 0.3693 0.09447 0.0
N502 N 0.71668 0.30987 0.06813 0.0
N503 N 0.87962 0.51588 0.0943 0.0
C504 C 0.76137 0.35895 0.06617 0.0
C505 C 0.84507 0.46489 0.07989 0.0
N506 N 0.72288 0.39068 0.00454 0.0
N507 N 0.89642 0.43104 0.11987 0.0
H508 H 0.8762 0.54813 0.08253 0.0
H509 H 0.90798 0.5255 0.12204 0.0
H510 H 0.90211 0.40053 0.13308 0.0
H511 H 0.93099 0.46804 0.11941 0.0
H512 H 0.69556 0.35251 -0.00752 0.0
H513 H 0.71944 0.42052 0.98632 0.0
H514 H 0.6806 0.30161 0.05276 0.0
H515 H 0.71404 0.27836 0.08902 0.0
C516 C 0.37438 0.76794 0.23467 0.0
C517 C 0.37942 0.81651 0.21748 0.0
C518 C 0.47304 0.8639 0.24102 0.0
C519 C 0.46662 0.81654 0.26277 0.0
N520 N 0.40901 0.72526 0.28787 0.0
N521 N 0.43088 0.91216 0.21101 0.0
C522 C 0.41665 0.76902 0.26176 0.0
C523 C 0.42803 0.86498 0.22262 0.0
N524 N 0.33038 0.72049 0.22307 0.0
N525 N 0.52252 0.90711 0.23592 0.0
H526 H 0.39869 0.91455 0.1974 0.0
H527 H 0.46366 0.94913 0.21901 0.0
H528 H 0.55616 0.90637 0.24718 0.0
H529 H 0.53062 0.94121 0.21609 0.0
H530 H 0.32747 0.68379 0.2295 0.0
H531 H 0.2985 0.71749 0.20287 0.0
H532 H 0.3719 0.69167 0.29322 0.0
H533 H 0.439 0.72404 0.30782 0.0
C534 C 0.61977 0.40366 0.46 0.0
C535 C 0.65038 0.45052 0.43117 0.0
C536 C 0.58225 0.41486 0.36605 0.0
C537 C 0.55507 0.36549 0.39203 0.0
N538 N 0.53423 0.32641 0.47476 0.0
N539 N 0.66273 0.49983 0.35511 0.0
C540 C 0.56971 0.36337 0.44223 0.0
C541 C 0.63219 0.4559 0.3837 0.0
N542 N 0.63932 0.39656 0.5039 0.0
N543 N 0.55755 0.42438 0.32743 0.0
H544 H 0.69857 0.53161 0.36724 0.0
H545 H 0.65458 0.50305 0.31788 0.0
H546 H 0.51814 0.398 0.31811 0.0
H547 H 0.57288 0.46095 0.30945 0.0
H548 H 0.62258 0.36031 0.52271 0.0
H549 H 0.67517 0.42507 0.51934 0.0
H550 H 0.54158 0.32602 0.51269 0.0
H551 H 0.49436 0.30205 0.4667 0.0
C552 C 0.18567 0.62698 0.56414 0.0
C553 C 0.22416 0.65594 0.60123 0.0
C554 C 0.26407 0.60017 0.58829 0.0
C555 C 0.22362 0.56924 0.55349 0.0
N556 N 0.13794 0.54432 0.5188 0.0
N557 N 0.29309 0.66256 0.65632 0.0
C558 C 0.18204 0.58006 0.5445 0.0
C559 C 0.26087 0.63991 0.61601 0.0
N560 N 0.15258 0.6441 0.54739 0.0
N561 N 0.30756 0.59444 0.59264 0.0
H562 H 0.29651 0.69526 0.67538 0.0
H563 H 0.31385 0.64617 0.67304 0.0
H564 H 0.31236 0.56654 0.57269 0.0
H565 H 0.34118 0.62061 0.61282 0.0
H566 H 0.12819 0.62804 0.51635 0.0
H567 H 0.15217 0.67697 0.56197 0.0
H568 H 0.10395 0.54722 0.51568 0.0
H569 H 0.13299 0.50863 0.50507 0.0
C570 C 0.56806 0.15883 0.75486 0.0
C571 C 0.57354 0.20899 0.76652 0.0
C572 C 0.66271 0.25448 0.73077 0.0
C573 C 0.65868 0.20438 0.72245 0.0
N574 N 0.61106 0.10913 0.73129 0.0
N575 N 0.62938 0.30422 0.7745 0.0
C576 C 0.61225 0.15653 0.73575 0.0
C577 C 0.6217 0.25678 0.75676 0.0
N578 N 0.52013 0.11357 0.76081 0.0
N579 N 0.70504 0.29988 0.71244 0.0
H580 H 0.6006 0.30796 0.79398 0.0
H581 H 0.66586 0.33932 0.77379 0.0
H582 H 0.73678 0.30038 0.69432 0.0
H583 H 0.70681 0.33653 0.71162 0.0
H584 H 0.51159 0.0763 0.74813 0.0
H585 H 0.48738 0.114 0.77534 0.0
H586 H 0.58073 0.07326 0.74527 0.0
H587 H 0.64259 0.10618 0.71677 0.0
C588 C 0.30929 0.34939 0.87937 0.0
C589 C 0.25317 0.32032 0.88052 0.0
C590 C 0.25358 0.24868 0.83256 0.0
C591 C 0.30924 0.27363 0.83916 0.0
N592 N 0.39022 0.3464 0.87231 0.0
N593 N 0.17091 0.24315 0.85774 0.0
C594 C 0.33737 0.32428 0.8624 0.0
C595 C 0.22497 0.27045 0.85625 0.0
N596 N 0.33579 0.40065 0.89607 0.0
N597 N 0.22839 0.20414 0.80367 0.0
H598 H 0.14933 0.25946 0.87285 0.0
H599 H 0.14759 0.20401 0.84589 0.0
H600 H 0.24878 0.18794 0.78585 0.0
H601 H 0.18857 0.18596 0.79394 0.0
H602 H 0.3763 0.42613 0.89129 0.0
H603 H 0.31637 0.41922 0.91091 0.0
H604 H 0.41144 0.37951 0.89499 0.0
H605 H 0.41244 0.32946 0.86099 0.0
C606 C 0.94978 0.2347 0.01388 0.0
C607 C 0.94118 0.26371 0.05145 0.0
C608 C 0.02967 0.33999 0.03749 0.0
C609 C 0.03851 0.31224 -0.00143 0.0
N610 N 1.00308 0.23725 0.94303 0.0
N611 N 0.96527 0.34907 0.08636 0.0
C612 C 0.99703 0.26087 0.98441 0.0
C613 C 0.97846 0.31826 0.05842 0.0
N614 N 0.91434 0.18179 0.00814 0.0
N615 N 0.07096 0.3842 0.05848 0.0
H616 H 0.92773 0.33416 0.10204 0.0
H617 H 0.98953 0.3902 0.08929 0.0
H618 H 0.11016 0.40042 0.04716 0.0
H619 H 0.06704 0.40157 0.09092 0.0
H620 H 0.92102 0.15687 0.98532 0.0
H621 H 0.87913 0.1623 0.02839 0.0
H622 H 0.97293 0.20181 0.92824 0.0
H623 H 0.03712 0.25577 0.921 0.0
C624 C 0.7461 0.95959 0.18139 0.0
C625 C 0.70915 0.944 0.22106 0.0
C626 C 0.72139 0.03402 0.22381 0.0
C627 C 0.75674 0.04928 0.18272 0.0
N628 N 0.79705 0.02528 0.11741 0.0
N629 N 0.65381 0.96295 0.27359 0.0
C630 C 0.76733 1.01153 0.15992 0.0
C631 C 0.6941 0.98012 0.23981 0.0
N632 N 0.76189 0.92523 0.16532 0.0
N633 N 0.71662 0.07174 0.25002 0.0
H634 H 0.63356 0.92414 0.28728 0.0
H635 H 0.63709 0.98553 0.28473 0.0
H636 H 0.73616 0.11193 0.24049 0.0
H637 H 0.69702 0.0643 0.28404 0.0
H638 H 0.79281 0.93566 0.14033 0.0
H639 H 0.74538 0.88652 0.1791 0.0
H640 H 0.80263 0.99859 0.09622 0.0
H641 H 0.81297 0.06289 0.10117 0.0
C642 C 0.77345 0.75602 0.31853 0.0
C643 C 0.72146 0.73969 0.33532 0.0
C644 C 0.71997 0.66676 0.38291 0.0
C645 C 0.77472 0.68817 0.37243 0.0
N646 N 0.85381 0.75137 0.32956 0.0
N647 N 0.64482 0.68065 0.38408 0.0
C648 C 0.80135 0.73189 0.33934 0.0
C649 C 0.69414 0.69454 0.36671 0.0
N650 N 0.79591 0.79484 0.28296 0.0
N651 N 0.69305 0.62073 0.40986 0.0
H652 H 0.62406 0.69909 0.37211 0.0
H653 H 0.62544 0.65308 0.41241 0.0
H654 H 0.71108 0.60112 0.42564 0.0
H655 H 0.65206 0.59962 0.41376 0.0
H656 H 0.83216 0.80642 0.2661 0.0
H657 H 0.77597 0.81281 0.26746 0.0
H658 H 0.8776 0.7865 0.31015 0.0
H659 H 0.87411 0.73272 0.34254 0.0
C660 C 0.04849 0.70459 0.56386 0.0
C661 C 0.08643 0.75703 0.54918 0.0
C662 C 0.02692 0.75185 0.48167 0.0
C663 C 0.98591 0.7039 0.5027 0.0
N664 N 0.95594 0.63818 0.56837 0.0
N665 N 0.11345 0.83115 0.49349 0.0
C666 C 0.9965 0.68066 0.54442 0.0
C667 C 0.07662 0.78057 0.50716 0.0
N668 N 0.062 0.67788 0.59728 0.0
N669 N 0.0177 0.77014 0.43807 0.0
H670 H 0.15026 0.85219 0.51094 0.0
H671 H 0.1069 0.853 0.46654 0.0
H672 H 0.98146 0.74974 0.41948 0.0
H673 H 0.04673 0.80272 0.41852 0.0
H674 H 0.0379 0.63744 0.60482 0.0
H675 H 0.09928 0.69487 0.61393 0.0
H676 H 0.96028 0.62442 0.60295 0.0
H677 H 0.91695 0.61891 0.55558 0.0
C678 C 0.34882 0.04563 0.72896 0.0
C679 C 0.332 0.08269 0.71878 0.0
C680 C 0.26878 0.0214 0.65664 0.0
C681 C 0.28528 0.98397 0.66741 0.0
N682 N 0.35114 0.96718 0.70522 0.0
N683 N 0.28345 0.11117 0.66761 0.0
C684 C 0.3288 0.99846 0.70031 0.0
C685 C 0.29448 0.07234 0.68058 0.0
N686 N 0.38154 0.05373 0.76862 0.0
N687 N 0.2278 1.00759 0.62422 0.0
H688 H 0.30147 0.14819 0.68513 0.0
H689 H 0.25961 0.10842 0.63762 0.0
H690 H 0.21091 0.97228 0.60386 0.0
H691 H 0.2096 0.03001 0.61835 0.0
H692 H 0.38828 0.02444 0.78325 0.0
H693 H 0.39941 0.08872 0.78935 0.0
H694 H 0.38773 0.98038 0.72221 0.0
H695 H 0.33627 0.92993 0.68931 0.0
C696 C 0.72521 0.73016 -0.00632 0.0
C697 C 0.77431 0.7412 0.97175 0.0
C698 C 0.77234 0.81206 0.92349 0.0
C699 C 0.71769 0.78903 0.93276 0.0
N700 N 0.64281 0.73086 0.98305 0.0
N701 N 0.84223 0.79359 0.90916 0.0
C702 C 0.69435 0.74985 0.97034 0.0
C703 C 0.79816 0.78334 0.93573 0.0
N704 N 0.70902 0.70259 0.03749 0.0
N705 N 0.79879 0.86044 0.90048 0.0
H706 H 0.8625 0.77305 0.91222 0.0
H707 H 0.85599 0.81993 0.8791 0.0
H708 H 0.77994 0.88177 0.89146 0.0
H709 H 0.8398 0.88143 0.89605 0.0
H710 H 0.67549 0.69642 0.0568 0.0
H711 H 0.73272 0.69171 0.05756 0.0
H712 H 0.62143 0.69771 0.00582 0.0
H713 H 0.62152 0.7482 0.96956 0.0
C714 C 1.0085 0.7457 0.15444 0.0
C715 C 0.04938 0.7375 0.13592 0.0
C716 C 0.98657 0.67198 0.07683 0.0
C717 C 0.94876 0.6873 0.08868 0.0
N718 N 0.92355 0.73961 0.13861 0.0
N719 N 0.07916 0.69928 0.0728 0.0
C720 C 0.95916 0.72366 0.12822 0.0
C721 C 0.03869 0.70154 0.09601 0.0
N722 N 1.01719 0.77484 0.19682 0.0
N723 N 0.97312 0.63012 0.0455 0.0
H724 H 0.11867 0.72186 0.0836 0.0
H725 H 0.07436 0.67883 0.0396 0.0
H726 H 0.93613 0.60913 0.0284 0.0
H727 H 0.99697 0.61337 0.04012 0.0
H728 H 0.98785 0.77876 0.21491 0.0
H729 H 0.053 0.79144 0.2162 0.0
H730 H 0.93124 0.7705 0.16293 0.0
H731 H 0.88693 0.72347 0.12086 0.0
C732 C 0.24473 0.9953 0.32618 0.0
C733 C 0.30063 0.02274 0.33196 0.0
C734 C 0.30348 0.94743 0.29454 0.0
C735 C 0.24951 0.92494 0.28015 0.0
N736 N 0.16636 0.92232 0.28756 0.0
N737 N 0.37505 1.01025 0.34736 0.0
C738 C 0.2191 0.94679 0.29865 0.0
C739 C 0.32767 0.99424 0.32439 0.0
N740 N 0.21659 0.0154 0.34854 0.0
N741 N 0.33278 0.92638 0.27679 0.0
H742 H 0.39039 0.03994 0.37432 0.0
H743 H 0.39497 0.98903 0.34574 0.0
H744 H 0.31645 0.89137 0.25621 0.0
H745 H 0.37381 0.94522 0.28008 0.0
H746 H 0.17549 0.99676 0.3486 0.0
H747 H 0.23491 0.0489 0.37141 0.0
H748 H 0.14242 0.93849 0.29492 0.0
H749 H 0.1466 0.88551 0.26967 0.0
C750 C 0.25134 0.21263 0.41612 0.0
C751 C 0.30554 0.23192 0.42565 0.0
C752 C 0.30425 0.29799 0.48149 0.0
C753 C 0.25571 0.2888 0.45978 0.0
N754 N 0.18932 0.24036 0.39524 0.0
N755 N 0.38556 0.29719 0.46699 0.0
C756 C 0.23017 0.24628 0.42465 0.0
C757 C 0.33261 0.27543 0.45881 0.0
N758 N 0.22081 0.16312 0.39633 0.0
N759 N 0.32262 0.32661 0.52443 0.0
H760 H 0.40765 0.28189 0.45145 0.0
H761 H 0.40788 0.3326 0.48653 0.0
H762 H 0.30068 0.33929 0.54482 0.0
H763 H 0.35599 0.33121 0.54309 0.0
H764 H 0.17995 0.14574 0.39182 0.0
H765 H 0.23575 0.13772 0.38995 0.0
H766 H 0.1733 0.21203 0.36699 0.0
H767 H 0.17629 0.26752 0.39308 0.0
C768 C 0.07541 0.29766 0.62359 0.0
C769 C 0.08442 0.33545 0.58573 0.0
C770 C 0.99709 0.32484 0.601 0.0
C771 C 0.9882 0.28848 0.64046 0.0
N772 N 0.02424 0.25009 0.69678 0.0
N773 N 0.06208 0.39835 0.55173 0.0
C774 C 0.02929 0.27821 0.65429 0.0
C775 C 0.04809 0.35373 0.57941 0.0
N776 N 0.10907 0.27823 0.62853 0.0
N777 N 0.95611 0.32828 0.58032 0.0
H778 H 0.09962 0.42075 0.53591 0.0
H779 H 0.03865 0.41595 0.5493 0.0
H780 H 0.91679 0.30484 0.59127 0.0
H781 H 0.96029 0.3502 0.54811 0.0
H782 H 0.10134 0.24626 0.65158 0.0
H783 H 0.1433 0.29207 0.60716 0.0
H784 H 0.05457 0.24508 0.71117 0.0
H785 H 0.99137 0.23617 0.72016 0.0
C786 C 0.73791 0.0692 0.79754 0.0
C787 C 0.78704 0.08762 0.77293 0.0
C788 C 0.77987 1.00118 0.78492 0.0
C789 C 0.73052 0.98177 0.81095 0.0
N790 N 0.67612 1.00728 0.85808 0.0
N791 N 0.86364 0.07882 0.76294 0.0
C792 C 0.71367 0.01888 0.8224 0.0
C793 C 0.81119 0.05628 0.77445 0.0
N794 N 0.71319 0.09835 0.79561 0.0
N795 N 0.79539 0.96781 0.7653 0.0
H796 H 0.8869 0.11926 0.75452 0.0
H797 H 0.88464 0.05882 0.76729 0.0
H798 H 0.77282 0.92671 0.76493 0.0
H799 H 0.82865 0.98133 0.74258 0.0
H800 H 0.67443 0.08373 0.80782 0.0
H801 H 0.73055 0.13598 0.77937 0.0
H802 H 0.66531 0.03459 0.86991 0.0
H803 H 0.66114 0.97342 0.88045 0.0
C804 C 0.14297 0.33997 0.25501 0.0
C805 C 0.18684 0.38546 0.27734 0.0
C806 C 0.1972 0.43482 0.20149 0.0
C807 C 0.16664 0.38732 0.17498 0.0
N808 N 0.10061 0.29393 0.17836 0.0
N809 N 0.2637 0.47284 0.26463 0.0
C810 C 0.13637 0.33932 0.20218 0.0
C811 C 0.21666 0.4318 0.24812 0.0
N812 N 0.10567 0.29958 0.28362 0.0
N813 N 0.20981 0.48263 0.18077 0.0
H814 H 0.28102 0.47051 0.2978 0.0
H815 H 0.28757 0.50608 0.24264 0.0
H816 H 0.19415 0.48491 0.1464 0.0
H817 H 0.2307 0.51838 0.20019 0.0
H818 H 0.0704 0.26892 0.26913 0.0
H819 H 0.10699 0.29858 0.32228 0.0
H820 H 0.08382 0.25642 0.19483 0.0
H821 H 0.08694 0.29418 0.14254 0.0
C822 C 0.83663 0.24292 0.44416 0.0
C823 C 0.85392 0.21122 0.46801 0.0
C824 C 0.87556 0.19025 0.38647 0.0
C825 C 0.84563 0.21105 0.36362 0.0
N826 N 0.78259 0.24115 0.3764 0.0
N827 N 0.88452 0.14807 0.46071 0.0
C828 C 0.82166 0.23279 0.39413 0.0
C829 C 0.87228 0.18301 0.43904 0.0
N830 N 0.83241 0.28097 0.46992 0.0
N831 N 0.90887 0.17993 0.35937 0.0
H832 H 0.88307 0.14175 0.49903 0.0
H833 H 0.89255 0.12272 0.4399 0.0
H834 H 0.91614 0.18835 0.32155 0.0
H835 H 0.93413 0.1688 0.37601 0.0
H836 H 0.82187 0.30657 0.45279 0.0
H837 H 0.84568 0.29046 0.50664 0.0
H838 H 0.76266 0.25444 0.39911 0.0
H839 H 0.76544 0.22799 0.34137 0.0
C840 C 0.63698 0.87006 0.607 0.0
C841 C 0.67193 0.85575 0.62877 0.0
C842 C 0.68774 0.82723 0.54833 0.0
C843 C 0.65111 0.83971 0.52631 0.0
N844 N 0.59859 0.88287 0.53261 0.0
N845 N 0.74075 0.83435 0.62093 0.0
C846 C 0.62805 0.86416 0.55498 0.0
C847 C 0.70113 0.83937 0.59934 0.0
N848 N 0.61001 0.88631 0.63701 0.0
N849 N 0.70695 0.80077 0.52135 0.0
H850 H 0.75057 0.84295 0.65851 0.0
H851 H 0.76681 0.82683 0.60103 0.0
H852 H 0.69664 0.78977 0.48424 0.0
H853 H 0.72952 0.78573 0.53664 0.0
H854 H 0.57804 0.88999 0.62524 0.0
H855 H 0.61877 0.89424 0.67486 0.0
H856 H 0.58786 0.90796 0.55006 0.0
H857 H 0.58695 0.87589 0.49563 0.0
C858 C 0.87878 0.68372 0.75748 0.0
C859 C 0.832 0.66231 0.78648 0.0
C860 C 0.77711 0.62449 0.71348 0.0
C861 C 0.82363 0.64365 0.68383 0.0
N862 N 0.91817 0.70067 0.67489 0.0
N863 N 0.7401 0.63411 0.79081 0.0
C864 C 0.87445 0.67683 0.70491 0.0
C865 C 0.78219 0.63976 0.76389 0.0
N866 N 0.92692 0.70889 0.78065 0.0
N867 N 0.72821 0.5904 0.69433 0.0
H868 H 0.74444 0.64724 0.82765 0.0
H869 H 0.70324 0.62265 0.77517 0.0
H870 H 0.72209 0.57661 0.65796 0.0
H871 H 0.69399 0.57182 0.71595 0.0
H872 H 0.96275 0.72068 0.76284 0.0
H873 H 0.93072 0.71743 0.81865 0.0
H874 H 0.95569 0.72897 0.68728 0.0
H875 H 0.91662 0.69392 0.63661 0.0
C876 C 0.25154 0.87823 0.87577 0.0
C877 C 0.20203 0.84405 0.85401 0.0
C878 C 0.15871 0.82029 0.93549 0.0
C879 C 0.20907 0.85238 0.95755 0.0
N880 N 0.29903 0.92471 0.94959 0.0
N881 N 0.10673 0.79442 0.85935 0.0
C882 C 0.25413 0.88555 0.9278 0.0
C883 C 0.15482 0.81928 0.88272 0.0
N884 N 0.29603 0.90249 0.8467 0.0
N885 N 0.11565 0.78879 0.96456 0.0
H886 H 0.10297 0.79324 0.82069 0.0
H887 H 0.07063 0.7789 0.87776 0.0
H888 H 0.11726 0.78779 0.00328 0.0
H889 H 0.07851 0.76162 0.95059 0.0
H890 H 0.33442 0.92228 0.8608 0.0
H891 H 0.29462 0.90077 0.80784 0.0
H892 H 0.33217 0.95203 0.92972 0.0
H893 H 0.30099 0.93292 0.98745 0.0
C894 C 0.42863 0.17899 0.0539 0.0
C895 C 0.4006 0.19978 0.02741 0.0
C896 C 0.34917 0.19174 0.1019 0.0
C897 C 0.37717 0.17084 0.12755 0.0
N898 N 0.43049 0.12999 0.12647 0.0
N899 N 0.3308 0.22103 0.02356 0.0
C900 C 0.41248 0.15947 0.1027 0.0
C901 C 0.35945 0.20426 0.05059 0.0
N902 N 0.47167 0.17933 0.03352 0.0
N903 N 0.31495 0.20214 0.12743 0.0
H904 H 0.34048 0.23518 0.98707 0.0
H905 H 0.29647 0.21945 0.03646 0.0
H906 H 0.30328 0.18925 0.16391 0.0
H907 H 0.29904 0.2244 0.11319 0.0
H908 H 0.49592 0.16905 0.05327 0.0
H909 H 0.4872 0.19496 -0.00126 0.0
H910 H 0.45234 0.11535 0.10901 0.0
H911 H 0.41826 0.11527 0.16253 0.0
loop_
_geom_bond_atom_site_label_1
_geom_bond_atom_site_label_2
_geom_bond_distance
_geom_bond_site_symmetry_2
_ccdc_geom_bond_type
Sc0 O3 2.025 1_556 S
Sc0 O10 2.105 . S
Sc0 O13 2.105 . S
Sc0 O16 2.105 . S
Sc0 O19 2.105 1_556 S
Sc1 O3 2.025 . S
Sc1 O11 2.105 . S
Sc1 O15 2.105 . S
Sc1 O17 2.105 . S
Sc1 O21 2.105 . S
Sc2 O3 2.025 . S
Sc2 O12 2.105 . S
Sc2 O14 2.105 . S
Sc2 O18 2.105 . S
Sc2 O20 2.105 . S
O3 Sc0 2.025 1_554 S
O3 Sc1 2.025 . S
O3 Sc2 2.025 . S
C4 O10 1.268 1_554 S
C4 O20 1.268 . S
C5 O11 1.268 . S
C5 O19 1.268 . S
C6 O12 1.268 . S
C6 O21 1.268 . S
C7 O13 1.268 . S
C7 O17 1.268 1_556 S
C8 O14 1.268 1_556 S
C8 O16 1.268 . S
C9 O15 1.268 . S
C9 O18 1.268 . S
O10 Sc0 2.105 . S
O10 C4 1.268 1_556 S
O11 Sc1 2.105 . S
O11 C5 1.268 . S
O12 Sc2 2.105 . S
O12 C6 1.268 . S
O13 Sc0 2.105 . S
O13 C7 1.268 . S
O14 Sc2 2.105 . S
O14 C8 1.268 1_554 S
O15 Sc1 2.105 . S
O15 C9 1.268 . S
O16 Sc0 2.105 . S
O16 C8 1.268 . S
O17 Sc1 2.105 . S
O17 C7 1.268 1_554 S
O18 Sc2 2.105 . S
O18 C9 1.268 . S
O19 Sc0 2.105 1_554 S
O19 C5 1.268 . S
O20 Sc2 2.105 . S
O20 C4 1.268 . S
O21 Sc1 2.105 . S
O21 C6 1.268 . S
Sc22 O25 2.025 . S
Sc22 O32 2.105 . S
Sc22 O35 2.105 . S
Sc22 O38 2.105 . S
Sc22 O41 2.105 . S
Sc23 O25 2.025 . S
Sc23 O33 2.105 . S
Sc23 O37 2.105 . S
Sc23 O39 2.105 . S
Sc23 O43 2.105 . S
Sc24 O25 2.025 . S
Sc24 O34 2.105 . S
Sc24 O36 2.105 . S
Sc24 O40 2.105 . S
Sc24 O42 2.105 . S
O25 Sc22 2.025 . S
O25 Sc23 2.025 . S
O25 Sc24 2.025 . S
C26 O32 1.268 . S
C26 O42 1.268 . S
C27 O33 1.268 . S
C27 O41 1.268 . S
C28 O34 1.268 . S
C28 O43 1.268 . S
C29 O35 1.268 . S
C29 O39 1.268 . S
C30 O36 1.268 . S
C30 O38 1.268 . S
C31 O37 1.268 . S
C31 O40 1.268 . S
O32 Sc22 2.105 . S
O32 C26 1.268 . S
O33 Sc23 2.105 . S
O33 C27 1.268 . S
O34 Sc24 2.105 . S
O34 C28 1.268 . S
O35 Sc22 2.105 . S
O35 C29 1.268 . S
O36 Sc24 2.105 . S
O36 C30 1.268 . S
O37 Sc23 2.105 . S
O37 C31 1.268 . S
O38 Sc22 2.105 . S
O38 C30 1.268 . S
O39 Sc23 2.105 . S
O39 C29 1.268 . S
O40 Sc24 2.105 . S
O40 C31 1.268 . S
O41 Sc22 2.105 . S
O41 C27 1.268 . S
O42 Sc24 2.105 . S
O42 C26 1.268 . S
O43 Sc23 2.105 . S
O43 C28 1.268 . S
Sc44 O47 2.025 . S
Sc44 O54 2.105 . S
Sc44 O57 2.105 . S
Sc44 O60 2.105 . S
Sc44 O63 2.105 . S
Sc45 O47 2.025 . S
Sc45 O55 2.105 . S
Sc45 O59 2.105 . S
Sc45 O61 2.105 . S
Sc45 O65 2.105 . S
Sc46 O47 2.025 . S
Sc46 O56 2.105 . S
Sc46 O58 2.105 . S
Sc46 O62 2.105 . S
Sc46 O64 2.105 . S
O47 Sc44 2.025 . S
O47 Sc45 2.025 . S
O47 Sc46 2.025 . S
C48 O54 1.268 . S
C48 O64 1.268 . S
C49 O55 1.268 . S
C49 O63 1.268 . S
C50 O56 1.268 . S
C50 O65 1.268 . S
C51 O57 1.268 . S
C51 O61 1.268 . S
C52 O58 1.268 . S
C52 O60 1.268 . S
C53 O59 1.268 . S
C53 O62 1.268 . S
O54 Sc44 2.105 . S
O54 C48 1.268 . S
O55 Sc45 2.105 . S
O55 C49 1.268 . S
O56 Sc46 2.105 . S
O56 C50 1.268 . S
O57 Sc44 2.105 . S
O57 C51 1.268 . S
O58 Sc46 2.105 . S
O58 C52 1.268 . S
O59 Sc45 2.105 . S
O59 C53 1.268 . S
O60 Sc44 2.105 . S
O60 C52 1.268 . S
O61 Sc45 2.105 . S
O61 C51 1.268 . S
O62 Sc46 2.105 . S
O62 C53 1.268 . S
O63 Sc44 2.105 . S
O63 C49 1.268 . S
O64 Sc46 2.105 . S
O64 C48 1.268 . S
O65 Sc45 2.105 . S
O65 C50 1.268 . S
Sc66 O69 2.025 . S
Sc66 O76 2.105 . S
Sc66 O79 2.105 . S
Sc66 O82 2.105 . S
Sc66 O85 2.105 . S
Sc67 O69 2.025 . S
Sc67 O77 2.105 . S
Sc67 O81 2.105 . S
Sc67 O83 2.105 . S
Sc67 O87 2.105 . S
Sc68 O69 2.025 . S
Sc68 O78 2.105 . S
Sc68 O80 2.105 . S
Sc68 O84 2.105 . S
Sc68 O86 2.105 . S
O69 Sc66 2.025 . S
O69 Sc67 2.025 . S
O69 Sc68 2.025 . S
C70 O76 1.268 . S
C70 O86 1.268 . S
C71 O77 1.268 . S
C71 O85 1.268 . S
C72 O78 1.268 . S
C72 O87 1.268 . S
C73 O79 1.268 . S
C73 O83 1.268 . S
C74 O80 1.268 . S
C74 O82 1.268 . S
C75 O81 1.268 . S
C75 O84 1.268 . S
O76 Sc66 2.105 . S
O76 C70 1.268 . S
O77 Sc67 2.105 . S
O77 C71 1.268 . S
O78 Sc68 2.105 . S
O78 C72 1.268 . S
O79 Sc66 2.105 . S
O79 C73 1.268 . S
O80 Sc68 2.105 . S
O80 C74 1.268 . S
O81 Sc67 2.105 . S
O81 C75 1.268 . S
O82 Sc66 2.105 . S
O82 C74 1.268 . S
O83 Sc67 2.105 . S
O83 C73 1.268 . S
O84 Sc68 2.105 . S
O84 C75 1.268 . S
O85 Sc66 2.105 . S
O85 C71 1.268 . S
O86 Sc68 2.105 . S
O86 C70 1.268 . S
O87 Sc67 2.105 . S
O87 C72 1.268 . S
Sc88 O91 2.025 . S
Sc88 O98 2.105 . S
Sc88 O101 2.105 . S
Sc88 O104 2.105 . S
Sc88 O107 2.105 . S
Sc89 O91 2.025 . S
Sc89 O99 2.105 . S
Sc89 O103 2.105 . S
Sc89 O105 2.105 . S
Sc89 O109 2.105 . S
Sc90 O91 2.025 . S
Sc90 O100 2.105 . S
Sc90 O102 2.105 . S
Sc90 O106 2.105 . S
Sc90 O108 2.105 . S
O91 Sc88 2.025 . S
O91 Sc89 2.025 . S
O91 Sc90 2.025 . S
C92 O98 1.268 . S
C92 O108 1.268 . S
C93 O99 1.268 . S
C93 O107 1.268 . S
C94 O100 1.268 . S
C94 O109 1.268 . S
C95 O101 1.268 . S
C95 O105 1.268 . S
C96 O102 1.268 . S
C96 O104 1.268 . S
C97 O103 1.268 . S
C97 O106 1.268 . S
O98 Sc88 2.105 . S
O98 C92 1.268 . S
O99 Sc89 2.105 . S
O99 C93 1.268 . S
O100 Sc90 2.105 . S
O100 C94 1.268 . S
O101 Sc88 2.105 . S
O101 C95 1.268 . S
O102 Sc90 2.105 . S
O102 C96 1.268 . S
O103 Sc89 2.105 . S
O103 C97 1.268 . S
O104 Sc88 2.105 . S
O104 C96 1.268 . S
O105 Sc89 2.105 . S
O105 C95 1.268 . S
O106 Sc90 2.105 . S
O106 C97 1.268 . S
O107 Sc88 2.105 . S
O107 C93 1.268 . S
O108 Sc90 2.105 . S
O108 C92 1.268 . S
O109 Sc89 2.105 . S
O109 C94 1.268 . S
Sc110 O113 2.025 . S
Sc110 O120 2.105 . S
Sc110 O123 2.105 . S
Sc110 O126 2.105 . S
Sc110 O129 2.105 . S
Sc111 O113 2.025 . S
Sc111 O121 2.105 . S
Sc111 O125 2.105 . S
Sc111 O127 2.105 . S
Sc111 O131 2.105 . S
Sc112 O113 2.025 . S
Sc112 O122 2.105 . S
Sc112 O124 2.105 . S
Sc112 O128 2.105 . S
Sc112 O130 2.105 . S
O113 Sc110 2.025 . S
O113 Sc111 2.025 . S
O113 Sc112 2.025 . S
C114 O120 1.268 . S
C114 O130 1.268 . S
C115 O121 1.268 . S
C115 O129 1.268 . S
C116 O122 1.268 . S
C116 O131 1.268 . S
C117 O123 1.268 1_554 S
C117 O127 1.268 1_554 S
C118 O124 1.268 . S
C118 O126 1.268 . S
C119 O125 1.268 . S
C119 O128 1.268 . S
O120 Sc110 2.105 . S
O120 C114 1.268 . S
O121 Sc111 2.105 . S
O121 C115 1.268 . S
O122 Sc112 2.105 . S
O122 C116 1.268 . S
O123 Sc110 2.105 . S
O123 C117 1.268 1_556 S
O124 Sc112 2.105 . S
O124 C118 1.268 . S
O125 Sc111 2.105 . S
O125 C119 1.268 . S
O126 Sc110 2.105 . S
O126 C118 1.268 . S
O127 Sc111 2.105 . S
O127 C117 1.268 1_556 S
O128 Sc112 2.105 . S
O128 C119 1.268 . S
O129 Sc110 2.105 . S
O129 C115 1.268 . S
O130 Sc112 2.105 . S
O130 C114 1.268 . S
O131 Sc111 2.105 . S
O131 C116 1.268 . S
Sc132 O135 2.025 . S
Sc132 O142 2.105 . S
Sc132 O145 2.105 . S
Sc132 O148 2.105 . S
Sc132 O151 2.105 . S
Sc133 O135 2.025 . S
Sc133 O143 2.105 . S
Sc133 O147 2.105 . S
Sc133 O149 2.105 . S
Sc133 O153 2.105 . S
Sc134 O135 2.025 . S
Sc134 O144 2.105 . S
Sc134 O146 2.105 . S
Sc134 O150 2.105 . S
Sc134 O152 2.105 . S
O135 Sc132 2.025 . S
O135 Sc133 2.025 . S
O135 Sc134 2.025 . S
C136 O142 1.268 . S
C136 O152 1.268 . S
C137 O143 1.268 . S
C137 O151 1.268 . S
C138 O144 1.268 . S
C138 O153 1.268 . S
C139 O145 1.268 . S
C139 O149 1.268 . S
C140 O146 1.268 . S
C140 O148 1.268 . S
C141 O147 1.268 . S
C141 O150 1.268 . S
O142 Sc132 2.105 . S
O142 C136 1.268 . S
O143 Sc133 2.105 . S
O143 C137 1.268 . S
O144 Sc134 2.105 . S
O144 C138 1.268 . S
O145 Sc132 2.105 . S
O145 C139 1.268 . S
O146 Sc134 2.105 . S
O146 C140 1.268 . S
O147 Sc133 2.105 . S
O147 C141 1.268 . S
O148 Sc132 2.105 . S
O148 C140 1.268 . S
O149 Sc133 2.105 . S
O149 C139 1.268 . S
O150 Sc134 2.105 . S
O150 C141 1.268 . S
O151 Sc132 2.105 . S
O151 C137 1.268 . S
O152 Sc134 2.105 . S
O152 C136 1.268 . S
O153 Sc133 2.105 . S
O153 C138 1.268 . S
Sc154 O157 2.025 . S
Sc154 O164 2.105 . S
Sc154 O167 2.105 . S
Sc154 O170 2.105 . S
Sc154 O173 2.105 . S
Sc155 O157 2.025 . S
Sc155 O165 2.105 . S
Sc155 O169 2.105 . S
Sc155 O171 2.105 . S
Sc155 O175 2.105 . S
Sc156 O157 2.025 1_554 S
Sc156 O166 2.105 . S
Sc156 O168 2.105 . S
Sc156 O172 2.105 1_554 S
Sc156 O174 2.105 . S
O157 Sc154 2.025 . S
O157 Sc155 2.025 . S
O157 Sc156 2.025 1_556 S
C158 O164 1.268 1_554 S
C158 O174 1.268 . S
C159 O165 1.268 . S
C159 O173 1.268 . S
C160 O166 1.268 . S
C160 O175 1.268 1_554 S
C161 O167 1.268 . S
C161 O171 1.268 . S
C162 O168 1.268 1_556 S
C162 O170 1.268 . S
C163 O169 1.268 . S
C163 O172 1.268 . S
O164 Sc154 2.105 . S
O164 C158 1.268 1_556 S
O165 Sc155 2.105 . S
O165 C159 1.268 . S
O166 Sc156 2.105 . S
O166 C160 1.268 . S
O167 Sc154 2.105 . S
O167 C161 1.268 . S
O168 Sc156 2.105 . S
O168 C162 1.268 1_554 S
O169 Sc155 2.105 . S
O169 C163 1.268 . S
O170 Sc154 2.105 . S
O170 C162 1.268 . S
O171 Sc155 2.105 . S
O171 C161 1.268 . S
O172 Sc156 2.105 1_556 S
O172 C163 1.268 . S
O173 Sc154 2.105 . S
O173 C159 1.268 . S
O174 Sc156 2.105 . S
O174 C158 1.268 . S
O175 Sc155 2.105 . S
O175 C160 1.268 1_556 S
Sc176 O179 2.025 . S
Sc176 O186 2.105 . S
Sc176 O189 2.105 . S
Sc176 O192 2.105 . S
Sc176 O195 2.105 . S
Sc177 O179 2.025 . S
Sc177 O187 2.105 . S
Sc177 O191 2.105 . S
Sc177 O193 2.105 . S
Sc177 O197 2.105 . S
Sc178 O179 2.025 . S
Sc178 O188 2.105 . S
Sc178 O190 2.105 . S
Sc178 O194 2.105 . S
Sc178 O196 2.105 . S
O179 Sc176 2.025 . S
O179 Sc177 2.025 . S
O179 Sc178 2.025 . S
C180 O186 1.268 . S
C180 O196 1.268 . S
C181 O187 1.268 . S
C181 O195 1.268 . S
C182 O188 1.268 . S
C182 O197 1.268 . S
C183 O189 1.268 1_556 S
C183 O193 1.268 1_556 S
C184 O190 1.268 . S
C184 O192 1.268 . S
C185 O191 1.268 . S
C185 O194 1.268 . S
O186 Sc176 2.105 . S
O186 C180 1.268 . S
O187 Sc177 2.105 . S
O187 C181 1.268 . S
O188 Sc178 2.105 . S
O188 C182 1.268 . S
O189 Sc176 2.105 . S
O189 C183 1.268 1_554 S
O190 Sc178 2.105 . S
O190 C184 1.268 . S
O191 Sc177 2.105 . S
O191 C185 1.268 . S
O192 Sc176 2.105 . S
O192 C184 1.268 . S
O193 Sc177 2.105 . S
O193 C183 1.268 1_554 S
O194 Sc178 2.105 . S
O194 C185 1.268 . S
O195 Sc176 2.105 . S
O195 C181 1.268 . S
O196 Sc178 2.105 . S
O196 C180 1.268 . S
O197 Sc177 2.105 . S
O197 C182 1.268 . S
Sc198 O201 2.025 . S
Sc198 O208 2.105 . S
Sc198 O211 2.105 . S
Sc198 O214 2.105 . S
Sc198 O217 2.105 . S
Sc199 O201 2.025 . S
Sc199 O209 2.105 . S
Sc199 O213 2.105 . S
Sc199 O215 2.105 . S
Sc199 O219 2.105 . S
Sc200 O201 2.025 . S
Sc200 O210 2.105 . S
Sc200 O212 2.105 . S
Sc200 O216 2.105 . S
Sc200 O218 2.105 . S
O201 Sc198 2.025 . S
O201 Sc199 2.025 . S
O201 Sc200 2.025 . S
C202 O208 1.268 . S
C202 O218 1.268 . S
C203 O209 1.268 . S
C203 O217 1.268 . S
C204 O210 1.268 . S
C204 O219 1.268 . S
C205 O211 1.268 . S
C205 O215 1.268 . S
C206 O212 1.268 . S
C206 O214 1.268 . S
C207 O213 1.268 . S
C207 O216 1.268 . S
O208 Sc198 2.105 . S
O208 C202 1.268 . S
O209 Sc199 2.105 . S
O209 C203 1.268 . S
O210 Sc200 2.105 . S
O210 C204 1.268 . S
O211 Sc198 2.105 . S
O211 C205 1.268 . S
O212 Sc200 2.105 . S
O212 C206 1.268 . S
O213 Sc199 2.105 . S
O213 C207 1.268 . S
O214 Sc198 2.105 . S
O214 C206 1.268 . S
O215 Sc199 2.105 . S
O215 C205 1.268 . S
O216 Sc200 2.105 . S
O216 C207 1.268 . S
O217 Sc198 2.105 . S
O217 C203 1.268 . S
O218 Sc200 2.105 . S
O218 C202 1.268 . S
O219 Sc199 2.105 . S
O219 C204 1.268 . S
Sc220 O223 2.025 . S
Sc220 O230 2.105 . S
Sc220 O233 2.105 . S
Sc220 O236 2.105 . S
Sc220 O239 2.105 . S
Sc221 O223 2.025 . S
Sc221 O231 2.105 . S
Sc221 O235 2.105 . S
Sc221 O237 2.105 . S
Sc221 O241 2.105 . S
Sc222 O223 2.025 . S
Sc222 O232 2.105 . S
Sc222 O234 2.105 . S
Sc222 O238 2.105 . S
Sc222 O240 2.105 . S
O223 Sc220 2.025 . S
O223 Sc221 2.025 . S
O223 Sc222 2.025 . S
C224 O230 1.268 . S
C224 O240 1.268 . S
C225 O231 1.268 . S
C225 O239 1.268 . S
C226 O232 1.268 . S
C226 O241 1.268 . S
C227 O233 1.268 . S
C227 O237 1.268 . S
C228 O234 1.268 . S
C228 O236 1.268 . S
C229 O235 1.268 . S
C229 O238 1.268 . S
O230 Sc220 2.105 . S
O230 C224 1.268 . S
O231 Sc221 2.105 . S
O231 C225 1.268 . S
O232 Sc222 2.105 . S
O232 C226 1.268 . S
O233 Sc220 2.105 . S
O233 C227 1.268 . S
O234 Sc222 2.105 . S
O234 C228 1.268 . S
O235 Sc221 2.105 . S
O235 C229 1.268 . S
O236 Sc220 2.105 . S
O236 C228 1.268 . S
O237 Sc221 2.105 . S
O237 C227 1.268 . S
O238 Sc222 2.105 . S
O238 C229 1.268 . S
O239 Sc220 2.105 . S
O239 C225 1.268 . S
O240 Sc222 2.105 . S
O240 C224 1.268 . S
O241 Sc221 2.105 . S
O241 C226 1.268 . S
Sc242 O245 2.025 . S
Sc242 O252 2.105 . S
Sc242 O255 2.105 . S
Sc242 O258 2.105 . S
Sc242 O261 2.105 . S
Sc243 O245 2.025 . S
Sc243 O253 2.105 . S
Sc243 O257 2.105 . S
Sc243 O259 2.105 . S
Sc243 O263 2.105 . S
Sc244 O245 2.025 . S
Sc244 O254 2.105 . S
Sc244 O256 2.105 . S
Sc244 O260 2.105 . S
Sc244 O262 2.105 . S
O245 Sc242 2.025 . S
O245 Sc243 2.025 . S
O245 Sc244 2.025 . S
C246 O252 1.268 . S
C246 O262 1.268 . S
C247 O253 1.268 . S
C247 O261 1.268 . S
C248 O254 1.268 . S
C248 O263 1.268 . S
C249 O255 1.268 . S
C249 O259 1.268 . S
C250 O256 1.268 . S
C250 O258 1.268 . S
C251 O257 1.268 . S
C251 O260 1.268 . S
O252 Sc242 2.105 . S
O252 C246 1.268 . S
O253 Sc243 2.105 . S
O253 C247 1.268 . S
O254 Sc244 2.105 . S
O254 C248 1.268 . S
O255 Sc242 2.105 . S
O255 C249 1.268 . S
O256 Sc244 2.105 . S
O256 C250 1.268 . S
O257 Sc243 2.105 . S
O257 C251 1.268 . S
O258 Sc242 2.105 . S
O258 C250 1.268 . S
O259 Sc243 2.105 . S
O259 C249 1.268 . S
O260 Sc244 2.105 . S
O260 C251 1.268 . S
O261 Sc242 2.105 . S
O261 C247 1.268 . S
O262 Sc244 2.105 . S
O262 C246 1.268 . S
O263 Sc243 2.105 . S
O263 C248 1.268 . S
C264 C265 1.363 . S
C264 C270 1.379 . S
C264 N272 1.356 . S
C265 C264 1.363 . S
C265 C271 1.363 . S
C266 C267 1.363 . S
C266 C271 1.379 . S
C266 N273 1.356 . S
C267 C266 1.363 . S
C267 C270 1.363 . S
N268 C270 1.356 . S
N268 H280 0.984 . S
N268 H281 0.985 . S
N269 C271 1.356 . S
N269 H274 0.984 . S
N269 H275 0.985 . S
C270 C264 1.379 . S
C270 C267 1.363 . S
C270 N268 1.356 . S
C271 C265 1.363 . S
C271 C266 1.379 . S
C271 N269 1.356 . S
N272 C264 1.356 . S
N272 H278 0.984 1_554 S
N272 H279 0.984 . S
N273 C266 1.356 . S
N273 H276 0.984 . S
N273 H277 0.985 . S
H274 N269 0.984 . S
H275 N269 0.985 . S
H276 N273 0.984 . S
H277 N273 0.985 . S
H278 N272 0.984 1_556 S
H279 N272 0.984 . S
H280 N268 0.984 . S
H281 N268 0.985 . S
C282 C283 1.363 . S
C282 C288 1.379 . S
C282 N290 1.356 . S
C283 C282 1.363 . S
C283 C289 1.363 . S
C284 C285 1.363 . S
C284 C289 1.379 . S
C284 N291 1.356 . S
C285 C284 1.363 . S
C285 C288 1.363 . S
N286 C288 1.356 . S
N286 H298 0.984 . S
N286 H299 0.985 . S
N287 C289 1.356 . S
N287 H292 0.984 . S
N287 H293 0.985 . S
C288 C282 1.379 . S
C288 C285 1.363 . S
C288 N286 1.356 . S
C289 C283 1.363 . S
C289 C284 1.379 . S
C289 N287 1.356 . S
N290 C282 1.356 . S
N290 H296 0.984 . S
N290 H297 0.984 . S
N291 C284 1.356 . S
N291 H294 0.984 . S
N291 H295 0.985 . S
H292 N287 0.984 . S
H293 N287 0.985 . S
H294 N291 0.984 . S
H295 N291 0.985 . S
H296 N290 0.984 . S
H297 N290 0.984 . S
H298 N286 0.984 . S
H299 N286 0.985 . S
C300 C301 1.363 . S
C300 C306 1.379 . S
C300 N308 1.356 . S
C301 C300 1.363 . S
C301 C307 1.363 . S
C302 C303 1.363 . S
C302 C307 1.379 . S
C302 N309 1.356 . S
C303 C302 1.363 . S
C303 C306 1.363 . S
N304 C306 1.356 . S
N304 H316 0.984 . S
N304 H317 0.985 . S
N305 C307 1.356 . S
N305 H310 0.984 . S
N305 H311 0.985 . S
C306 C300 1.379 . S
C306 C303 1.363 . S
C306 N304 1.356 . S
C307 C301 1.363 . S
C307 C302 1.379 . S
C307 N305 1.356 . S
N308 C300 1.356 . S
N308 H314 0.984 . S
N308 H315 0.984 . S
N309 C302 1.356 . S
N309 H312 0.984 . S
N309 H313 0.985 . S
H310 N305 0.984 . S
H311 N305 0.985 . S
H312 N309 0.984 . S
H313 N309 0.985 . S
H314 N308 0.984 . S
H315 N308 0.984 . S
H316 N304 0.984 . S
H317 N304 0.985 . S
C318 C319 1.363 . S
C318 C324 1.379 . S
C318 N326 1.356 . S
C319 C318 1.363 . S
C319 C325 1.363 . S
C320 C321 1.363 . S
C320 C325 1.379 . S
C320 N327 1.356 . S
C321 C320 1.363 . S
C321 C324 1.363 . S
N322 C324 1.356 . S
N322 H334 0.984 . S
N322 H335 0.985 . S
N323 C325 1.356 . S
N323 H328 0.984 . S
N323 H329 0.985 . S
C324 C318 1.379 . S
C324 C321 1.363 . S
C324 N322 1.356 . S
C325 C319 1.363 . S
C325 C320 1.379 . S
C325 N323 1.356 . S
N326 C318 1.356 . S
N326 H332 0.984 . S
N326 H333 0.984 . S
N327 C320 1.356 . S
N327 H330 0.984 . S
N327 H331 0.985 . S
H328 N323 0.984 . S
H329 N323 0.985 . S
H330 N327 0.984 . S
H331 N327 0.985 . S
H332 N326 0.984 . S
H333 N326 0.984 . S
H334 N322 0.984 . S
H335 N322 0.985 . S
C336 C337 1.363 . S
C336 C342 1.379 . S
C336 N344 1.356 . S
C337 C336 1.363 . S
C337 C343 1.363 . S
C338 C339 1.363 . S
C338 C343 1.379 . S
C338 N345 1.356 . S
C339 C338 1.363 . S
C339 C342 1.363 . S
N340 C342 1.356 . S
N340 H352 0.984 . S
N340 H353 0.985 . S
N341 C343 1.356 . S
N341 H346 0.984 . S
N341 H347 0.985 . S
C342 C336 1.379 . S
C342 C339 1.363 . S
C342 N340 1.356 . S
C343 C337 1.363 . S
C343 C338 1.379 . S
C343 N341 1.356 . S
N344 C336 1.356 . S
N344 H350 0.984 . S
N344 H351 0.984 . S
N345 C338 1.356 . S
N345 H348 0.984 . S
N345 H349 0.985 . S
H346 N341 0.984 . S
H347 N341 0.985 . S
H348 N345 0.984 . S
H349 N345 0.985 . S
H350 N344 0.984 . S
H351 N344 0.984 . S
H352 N340 0.984 . S
H353 N340 0.985 . S
C354 C355 1.363 . S
C354 C360 1.379 . S
C354 N362 1.356 . S
C355 C354 1.363 . S
C355 C361 1.363 . S
C356 C357 1.363 . S
C356 C361 1.379 . S
C356 N363 1.356 . S
C357 C356 1.363 . S
C357 C360 1.363 . S
N358 C360 1.356 . S
N358 H370 0.984 . S
N358 H371 0.985 . S
N359 C361 1.356 1_554 S
N359 H364 0.984 . S
N359 H365 0.985 . S
C360 C354 1.379 . S
C360 C357 1.363 . S
C360 N358 1.356 . S
C361 C355 1.363 . S
C361 C356 1.379 . S
C361 N359 1.356 1_556 S
N362 C354 1.356 . S
N362 H368 0.984 . S
N362 H369 0.984 . S
N363 C356 1.356 . S
N363 H366 0.984 . S
N363 H367 0.985 . S
H364 N359 0.984 . S
H365 N359 0.985 . S
H366 N363 0.984 . S
H367 N363 0.985 . S
H368 N362 0.984 . S
H369 N362 0.984 . S
H370 N358 0.984 . S
H371 N358 0.985 . S
C372 C373 1.363 . S
C372 C378 1.379 . S
C372 N380 1.356 . S
C373 C372 1.363 . S
C373 C379 1.363 . S
C374 C375 1.363 . S
C374 C379 1.379 . S
C374 N381 1.356 . S
C375 C374 1.363 . S
C375 C378 1.363 . S
N376 C378 1.356 . S
N376 H388 0.984 . S
N376 H389 0.985 . S
N377 C379 1.356 . S
N377 H382 0.984 . S
N377 H383 0.985 . S
C378 C372 1.379 . S
C378 C375 1.363 . S
C378 N376 1.356 . S
C379 C373 1.363 . S
C379 C374 1.379 . S
C379 N377 1.356 . S
N380 C372 1.356 . S
N380 H386 0.984 . S
N380 H387 0.984 . S
N381 C374 1.356 . S
N381 H384 0.984 . S
N381 H385 0.985 . S
H382 N377 0.984 . S
H383 N377 0.985 . S
H384 N381 0.984 . S
H385 N381 0.985 . S
H386 N380 0.984 . S
H387 N380 0.984 . S
H388 N376 0.984 . S
H389 N376 0.985 . S
C390 C391 1.363 . S
C390 C396 1.379 . S
C390 N398 1.356 . S
C391 C390 1.363 . S
C391 C397 1.363 1_655 S
C392 C393 1.363 . S
C392 C397 1.379 . S
C392 N399 1.356 . S
C393 C392 1.363 . S
C393 C396 1.363 1_455 S
N394 C396 1.356 . S
N394 H406 0.984 . S
N394 H407 1.001 . S
N395 C397 1.356 . S
N395 H400 1.001 . S
N395 H401 0.985 . S
C396 C390 1.379 . S
C396 C393 1.363 1_655 S
C396 N394 1.356 . S
C397 C391 1.363 1_455 S
C397 C392 1.379 . S
C397 N395 1.356 . S
N398 C390 1.356 . S
N398 H404 0.984 . S
N398 H405 0.984 . S
N399 C392 1.356 . S
N399 H402 0.984 . S
N399 H403 0.985 . S
H400 N395 1.001 . S
H401 N395 0.985 . S
H402 N399 0.984 . S
H403 N399 0.985 . S
H404 N398 0.984 . S
H405 N398 0.984 . S
H406 N394 0.984 . S
H407 N394 1.001 . S
C408 C409 1.363 1_565 S
C408 C414 1.379 . S
C408 N416 1.356 . S
C409 C408 1.363 1_545 S
C409 C415 1.363 . S
C410 C411 1.363 1_545 S
C410 C415 1.379 . S
C410 N417 1.356 . S
C411 C410 1.363 1_565 S
C411 C414 1.363 . S
N412 C414 1.356 . S
N412 H424 0.984 . S
N412 H425 0.985 . S
N413 C415 1.356 . S
N413 H418 0.984 . S
N413 H419 0.985 . S
C414 C408 1.379 . S
C414 C411 1.363 . S
C414 N412 1.356 . S
C415 C409 1.363 . S
C415 C410 1.379 . S
C415 N413 1.356 . S
N416 C408 1.356 . S
N416 H422 0.984 . S
N416 H423 0.984 1_565 S
N417 C410 1.356 . S
N417 H420 0.984 1_545 S
N417 H421 0.985 . S
H418 N413 0.984 . S
H419 N413 0.985 . S
H420 N417 0.984 1_565 S
H421 N417 0.985 . S
H422 N416 0.984 . S
H423 N416 0.984 1_545 S
H424 N412 0.984 . S
H425 N412 0.985 . S
C426 C427 1.363 . S
C426 C432 1.379 . S
C426 N434 1.356 . S
C427 C426 1.363 . S
C427 C433 1.363 . S
C428 C429 1.363 . S
C428 C433 1.379 . S
C428 N435 1.356 . S
C429 C428 1.363 . S
C429 C432 1.363 . S
N430 C432 1.356 . S
N430 H442 0.984 . S
N430 H443 0.985 . S
N431 C433 1.356 . S
N431 H436 0.984 . S
N431 H437 0.985 . S
C432 C426 1.379 . S
C432 C429 1.363 . S
C432 N430 1.356 . S
C433 C427 1.363 . S
C433 C428 1.379 . S
C433 N431 1.356 . S
N434 C426 1.356 . S
N434 H440 0.984 . S
N434 H441 0.984 . S
N435 C428 1.356 . S
N435 H438 0.984 . S
N435 H439 0.985 . S
H436 N431 0.984 . S
H437 N431 0.985 . S
H438 N435 0.984 . S
H439 N435 0.985 . S
H440 N434 0.984 . S
H441 N434 0.984 . S
H442 N430 0.984 . S
H443 N430 0.985 . S
C444 C445 1.363 1_655 S
C444 C450 1.379 . S
C444 N452 1.356 . S
C445 C444 1.363 1_455 S
C445 C451 1.363 . S
C446 C447 1.363 1_455 S
C446 C451 1.379 . S
C446 N453 1.356 . S
C447 C446 1.363 1_655 S
C447 C450 1.363 . S
N448 C450 1.356 . S
N448 H460 0.984 . S
N448 H461 0.985 . S
N449 C451 1.356 . S
N449 H454 0.984 . S
N449 H455 0.985 . S
C450 C444 1.379 . S
C450 C447 1.363 . S
C450 N448 1.356 . S
C451 C445 1.363 . S
C451 C446 1.379 . S
C451 N449 1.356 . S
N452 C444 1.356 . S
N452 H458 0.984 . S
N452 H459 0.984 1_655 S
N453 C446 1.356 . S
N453 H456 0.984 1_455 S
N453 H457 0.985 . S
H454 N449 0.984 . S
H455 N449 0.985 . S
H456 N453 0.984 1_655 S
H457 N453 0.985 . S
H458 N452 0.984 . S
H459 N452 0.984 1_455 S
H460 N448 0.984 . S
H461 N448 0.985 . S
C462 C463 1.363 . S
C462 C468 1.379 1_556 S
C462 N470 1.356 . S
C463 C462 1.363 . S
C463 C469 1.363 1_545 S
C464 C465 1.363 . S
C464 C469 1.379 1_554 S
C464 N471 1.356 . S
C465 C464 1.363 . S
C465 C468 1.363 1_565 S
N466 C468 1.356 1_565 S
N466 H478 0.984 1_565 S
N466 H479 0.985 . S
N467 C469 1.356 1_545 S
N467 H472 0.984 . S
N467 H473 0.985 1_545 S
C468 C462 1.379 1_554 S
C468 C465 1.363 1_545 S
C468 N466 1.356 1_545 S
C469 C463 1.363 1_565 S
C469 C464 1.379 1_556 S
C469 N467 1.356 1_565 S
N470 C462 1.356 . S
N470 H476 0.984 . S
N470 H477 0.984 . S
N471 C464 1.356 . S
N471 H474 0.984 . S
N471 H475 0.985 . S
H472 N467 0.984 . S
H473 N467 0.985 1_565 S
H474 N471 0.984 . S
H475 N471 0.985 . S
H476 N470 0.984 . S
H477 N470 0.984 . S
H478 N466 0.984 1_545 S
H479 N466 0.985 . S
C480 C481 1.363 . S
C480 C486 1.379 . S
C480 N488 1.356 . S
C481 C480 1.363 . S
C481 C487 1.363 . S
C482 C483 1.363 . S
C482 C487 1.379 . S
C482 N489 1.356 1_556 S
C483 C482 1.363 . S
C483 C486 1.363 . S
N484 C486 1.356 . S
N484 H496 0.984 . S
N484 H497 0.985 . S
N485 C487 1.356 . S
N485 H490 0.984 . S
N485 H491 0.985 . S
C486 C480 1.379 . S
C486 C483 1.363 . S
C486 N484 1.356 . S
C487 C481 1.363 . S
C487 C482 1.379 . S
C487 N485 1.356 . S
N488 C480 1.356 . S
N488 H494 0.984 . S
N488 H495 0.984 . S
N489 C482 1.356 1_554 S
N489 H492 0.984 . S
N489 H493 0.985 . S
H490 N485 0.984 . S
H491 N485 0.985 . S
H492 N489 0.984 . S
H493 N489 0.985 . S
H494 N488 0.984 . S
H495 N488 0.984 . S
H496 N484 0.984 . S
H497 N484 0.985 . S
C498 C499 1.363 . S
C498 C504 1.379 . S
C498 N506 1.356 . S
C499 C498 1.363 . S
C499 C505 1.363 . S
C500 C501 1.363 . S
C500 C505 1.379 . S
C500 N507 1.356 . S
C501 C500 1.363 . S
C501 C504 1.363 . S
N502 C504 1.356 . S
N502 H514 0.984 . S
N502 H515 0.985 . S
N503 C505 1.356 . S
N503 H508 0.984 . S
N503 H509 0.985 . S
C504 C498 1.379 . S
C504 C501 1.363 . S
C504 N502 1.356 . S
C505 C499 1.363 . S
C505 C500 1.379 . S
C505 N503 1.356 . S
N506 C498 1.356 . S
N506 H512 0.984 . S
N506 H513 0.984 . S
N507 C500 1.356 . S
N507 H510 0.984 . S
N507 H511 0.985 . S
H508 N503 0.984 . S
H509 N503 0.985 . S
H510 N507 0.984 . S
H511 N507 0.985 . S
H512 N506 0.984 . S
H513 N506 0.984 . S
H514 N502 0.984 . S
H515 N502 0.985 . S
C516 C517 1.363 . S
C516 C522 1.379 . S
C516 N524 1.356 . S
C517 C516 1.363 . S
C517 C523 1.363 . S
C518 C519 1.363 . S
C518 C523 1.379 . S
C518 N525 1.356 . S
C519 C518 1.363 . S
C519 C522 1.363 . S
N520 C522 1.356 . S
N520 H532 0.984 . S
N520 H533 0.985 . S
N521 C523 1.356 . S
N521 H526 0.984 . S
N521 H527 0.985 . S
C522 C516 1.379 . S
C522 C519 1.363 . S
C522 N520 1.356 . S
C523 C517 1.363 . S
C523 C518 1.379 . S
C523 N521 1.356 . S
N524 C516 1.356 . S
N524 H530 0.984 . S
N524 H531 0.984 . S
N525 C518 1.356 . S
N525 H528 0.984 . S
N525 H529 0.985 . S
H526 N521 0.984 . S
H527 N521 0.985 . S
H528 N525 0.984 . S
H529 N525 0.985 . S
H530 N524 0.984 . S
H531 N524 0.984 . S
H532 N520 0.984 . S
H533 N520 0.985 . S
C534 C535 1.363 . S
C534 C540 1.379 . S
C534 N542 1.356 . S
C535 C534 1.363 . S
C535 C541 1.363 . S
C536 C537 1.363 . S
C536 C541 1.379 . S
C536 N543 1.356 . S
C537 C536 1.363 . S
C537 C540 1.363 . S
N538 C540 1.356 . S
N538 H550 0.984 . S
N538 H551 0.985 . S
N539 C541 1.356 . S
N539 H544 0.984 . S
N539 H545 0.985 . S
C540 C534 1.379 . S
C540 C537 1.363 . S
C540 N538 1.356 . S
C541 C535 1.363 . S
C541 C536 1.379 . S
C541 N539 1.356 . S
N542 C534 1.356 . S
N542 H548 0.984 . S
N542 H549 0.984 . S
N543 C536 1.356 . S
N543 H546 0.984 . S
N543 H547 0.985 . S
H544 N539 0.984 . S
H545 N539 0.985 . S
H546 N543 0.984 . S
H547 N543 0.985 . S
H548 N542 0.984 . S
H549 N542 0.984 . S
H550 N538 0.984 . S
H551 N538 0.985 . S
C552 C553 1.363 . S
C552 C558 1.379 . S
C552 N560 1.356 . S
C553 C552 1.363 . S
C553 C559 1.363 . S
C554 C555 1.363 . S
C554 C559 1.379 . S
C554 N561 1.356 . S
C555 C554 1.363 . S
C555 C558 1.363 . S
N556 C558 1.356 . S
N556 H568 0.984 . S
N556 H569 0.985 . S
N557 C559 1.356 . S
N557 H562 0.984 . S
N557 H563 0.985 . S
C558 C552 1.379 . S
C558 C555 1.363 . S
C558 N556 1.356 . S
C559 C553 1.363 . S
C559 C554 1.379 . S
C559 N557 1.356 . S
N560 C552 1.356 . S
N560 H566 0.984 . S
N560 H567 0.984 . S
N561 C554 1.356 . S
N561 H564 0.984 . S
N561 H565 0.985 . S
H562 N557 0.984 . S
H563 N557 0.985 . S
H564 N561 0.984 . S
H565 N561 0.985 . S
H566 N560 0.984 . S
H567 N560 0.984 . S
H568 N556 0.984 . S
H569 N556 0.985 . S
C570 C571 1.363 . S
C570 C576 1.379 . S
C570 N578 1.356 . S
C571 C570 1.363 . S
C571 C577 1.363 . S
C572 C573 1.363 . S
C572 C577 1.379 . S
C572 N579 1.356 . S
C573 C572 1.363 . S
C573 C576 1.363 . S
N574 C576 1.356 . S
N574 H586 0.984 . S
N574 H587 0.985 . S
N575 C577 1.356 . S
N575 H580 0.984 . S
N575 H581 0.985 . S
C576 C570 1.379 . S
C576 C573 1.363 . S
C576 N574 1.356 . S
C577 C571 1.363 . S
C577 C572 1.379 . S
C577 N575 1.356 . S
N578 C570 1.356 . S
N578 H584 0.984 . S
N578 H585 0.984 . S
N579 C572 1.356 . S
N579 H582 0.984 . S
N579 H583 0.985 . S
H580 N575 0.984 . S
H581 N575 0.985 . S
H582 N579 0.984 . S
H583 N579 0.985 . S
H584 N578 0.984 . S
H585 N578 0.984 . S
H586 N574 0.984 . S
H587 N574 0.985 . S
C588 C589 1.363 . S
C588 C594 1.379 . S
C588 N596 1.356 . S
C589 C588 1.363 . S
C589 C595 1.363 . S
C590 C591 1.363 . S
C590 C595 1.379 . S
C590 N597 1.356 . S
C591 C590 1.363 . S
C591 C594 1.363 . S
N592 C594 1.356 . S
N592 H604 0.984 . S
N592 H605 0.985 . S
N593 C595 1.356 . S
N593 H598 0.984 . S
N593 H599 0.985 . S
C594 C588 1.379 . S
C594 C591 1.363 . S
C594 N592 1.356 . S
C595 C589 1.363 . S
C595 C590 1.379 . S
C595 N593 1.356 . S
N596 C588 1.356 . S
N596 H602 0.984 1_556 S
N596 H603 0.984 1_556 S
N597 C590 1.356 . S
N597 H600 0.984 . S
N597 H601 0.985 . S
H598 N593 0.984 . S
H599 N593 0.985 . S
H600 N597 0.984 . S
H601 N597 0.985 . S
H602 N596 0.984 1_554 S
H603 N596 0.984 1_554 S
H604 N592 0.984 . S
H605 N592 0.985 . S
C606 C607 1.363 . S
C606 C612 1.379 1_655 S
C606 N614 1.356 . S
C607 C606 1.363 . S
C607 C613 1.363 . S
C608 C609 1.363 . S
C608 C613 1.379 1_455 S
C608 N615 1.356 . S
C609 C608 1.363 . S
C609 C612 1.363 . S
N610 C612 1.356 1_556 S
N610 H622 0.984 . S
N610 H623 0.985 . S
N611 C613 1.356 . S
N611 H616 0.984 . S
N611 H617 0.985 . S
C612 C606 1.379 1_455 S
C612 C609 1.363 . S
C612 N610 1.356 1_554 S
C613 C607 1.363 . S
C613 C608 1.379 1_655 S
C613 N611 1.356 . S
N614 C606 1.356 . S
N614 H620 0.984 . S
N614 H621 0.984 . S
N615 C608 1.356 . S
N615 H618 0.984 . S
N615 H619 0.985 . S
H616 N611 0.984 . S
H617 N611 0.985 . S
H618 N615 0.984 . S
H619 N615 0.985 . S
H620 N614 0.984 . S
H621 N614 0.984 . S
H622 N610 0.984 . S
H623 N610 0.985 . S
C624 C625 1.363 . S
C624 C630 1.379 1_565 S
C624 N632 1.356 . S
C625 C624 1.363 . S
C625 C631 1.363 . S
C626 C627 1.363 . S
C626 C631 1.379 1_545 S
C626 N633 1.356 . S
C627 C626 1.363 . S
C627 C630 1.363 . S
N628 C630 1.356 . S
N628 H640 0.984 . S
N628 H641 0.985 . S
N629 C631 1.356 . S
N629 H634 0.984 . S
N629 H635 0.985 . S
C630 C624 1.379 1_545 S
C630 C627 1.363 . S
C630 N628 1.356 . S
C631 C625 1.363 . S
C631 C626 1.379 1_565 S
C631 N629 1.356 . S
N632 C624 1.356 . S
N632 H638 0.984 . S
N632 H639 0.984 . S
N633 C626 1.356 . S
N633 H636 0.984 . S
N633 H637 0.985 . S
H634 N629 0.984 . S
H635 N629 0.985 . S
H636 N633 0.984 . S
H637 N633 0.985 . S
H638 N632 0.984 . S
H639 N632 0.984 . S
H640 N628 0.984 . S
H641 N628 0.985 . S
C642 C643 1.363 . S
C642 C648 1.379 . S
C642 N650 1.356 . S
C643 C642 1.363 . S
C643 C649 1.363 . S
C644 C645 1.363 . S
C644 C649 1.379 . S
C644 N651 1.356 . S
C645 C644 1.363 . S
C645 C648 1.363 . S
N646 C648 1.356 . S
N646 H658 0.984 . S
N646 H659 0.985 . S
N647 C649 1.356 . S
N647 H652 0.984 . S
N647 H653 0.985 . S
C648 C642 1.379 . S
C648 C645 1.363 . S
C648 N646 1.356 . S
C649 C643 1.363 . S
C649 C644 1.379 . S
C649 N647 1.356 . S
N650 C642 1.356 . S
N650 H656 0.984 . S
N650 H657 0.984 . S
N651 C644 1.356 . S
N651 H654 0.984 . S
N651 H655 0.985 . S
H652 N647 0.984 . S
H653 N647 0.985 . S
H654 N651 0.984 . S
H655 N651 0.985 . S
H656 N650 0.984 . S
H657 N650 0.984 . S
H658 N646 0.984 . S
H659 N646 0.985 . S
C660 C661 1.363 . S
C660 C666 1.379 1_455 S
C660 N668 1.356 . S
C661 C660 1.363 . S
C661 C667 1.363 . S
C662 C663 1.363 . S
C662 C667 1.379 1_655 S
C662 N669 1.356 . S
C663 C662 1.363 . S
C663 C666 1.363 . S
N664 C666 1.356 . S
N664 H676 0.984 . S
N664 H677 0.985 . S
N665 C667 1.356 . S
N665 H670 0.984 . S
N665 H671 0.985 . S
C666 C660 1.379 1_655 S
C666 C663 1.363 . S
C666 N664 1.356 . S
C667 C661 1.363 . S
C667 C662 1.379 1_455 S
C667 N665 1.356 . S
N668 C660 1.356 . S
N668 H674 0.984 . S
N668 H675 0.984 . S
N669 C662 1.356 . S
N669 H672 0.984 . S
N669 H673 0.985 . S
H670 N665 0.984 . S
H671 N665 0.985 . S
H672 N669 0.984 . S
H673 N669 0.985 . S
H674 N668 0.984 . S
H675 N668 0.984 . S
H676 N664 0.984 . S
H677 N664 0.985 . S
C678 C679 1.363 . S
C678 C684 1.379 1_545 S
C678 N686 1.356 . S
C679 C678 1.363 . S
C679 C685 1.363 . S
C680 C681 1.363 . S
C680 C685 1.379 1_565 S
C680 N687 1.356 . S
C681 C680 1.363 . S
C681 C684 1.363 . S
N682 C684 1.356 . S
N682 H694 0.984 . S
N682 H695 0.985 . S
N683 C685 1.356 . S
N683 H688 0.984 . S
N683 H689 0.985 . S
C684 C678 1.379 1_565 S
C684 C681 1.363 . S
C684 N682 1.356 . S
C685 C679 1.363 . S
C685 C680 1.379 1_545 S
C685 N683 1.356 . S
N686 C678 1.356 . S
N686 H692 0.984 . S
N686 H693 0.984 . S
N687 C680 1.356 . S
N687 H690 0.984 . S
N687 H691 0.985 . S
H688 N683 0.984 . S
H689 N683 0.985 . S
H690 N687 0.984 . S
H691 N687 0.985 . S
H692 N686 0.984 . S
H693 N686 0.984 . S
H694 N682 0.984 . S
H695 N682 0.985 . S
C696 C697 1.363 . S
C696 C702 1.379 . S
C696 N704 1.356 1_556 S
C697 C696 1.363 . S
C697 C703 1.363 . S
C698 C699 1.363 . S
C698 C703 1.379 . S
C698 N705 1.356 . S
C699 C698 1.363 . S
C699 C702 1.363 . S
N700 C702 1.356 . S
N700 H712 0.984 1_556 S
N700 H713 0.985 . S
N701 C703 1.356 . S
N701 H706 0.984 . S
N701 H707 0.985 . S
C702 C696 1.379 . S
C702 C699 1.363 . S
C702 N700 1.356 . S
C703 C697 1.363 . S
C703 C698 1.379 . S
C703 N701 1.356 . S
N704 C696 1.356 1_554 S
N704 H710 0.984 . S
N704 H711 0.984 . S
N705 C698 1.356 . S
N705 H708 0.984 . S
N705 H709 0.985 . S
H706 N701 0.984 . S
H707 N701 0.985 . S
H708 N705 0.984 . S
H709 N705 0.985 . S
H710 N704 0.984 . S
H711 N704 0.984 . S
H712 N700 0.984 1_554 S
H713 N700 0.985 . S
C714 C715 1.363 . S
C714 C720 1.379 1_455 S
C714 N722 1.356 . S
C715 C714 1.363 . S
C715 C721 1.363 . S
C716 C717 1.363 . S
C716 C721 1.379 1_655 S
C716 N723 1.356 . S
C717 C716 1.363 . S
C717 C720 1.363 . S
N718 C720 1.356 . S
N718 H730 0.984 . S
N718 H731 0.985 . S
N719 C721 1.356 . S
N719 H724 0.984 . S
N719 H725 0.985 . S
C720 C714 1.379 1_655 S
C720 C717 1.363 . S
C720 N718 1.356 . S
C721 C715 1.363 . S
C721 C716 1.379 1_455 S
C721 N719 1.356 . S
N722 C714 1.356 . S
N722 H728 0.984 . S
N722 H729 0.984 . S
N723 C716 1.356 . S
N723 H726 0.984 . S
N723 H727 0.985 . S
H724 N719 0.984 . S
H725 N719 0.985 . S
H726 N723 0.984 . S
H727 N723 0.985 . S
H728 N722 0.984 . S
H729 N722 0.984 . S
H730 N718 0.984 . S
H731 N718 0.985 . S
C732 C733 1.363 . S
C732 C738 1.379 1_545 S
C732 N740 1.356 . S
C733 C732 1.363 . S
C733 C739 1.363 . S
C734 C735 1.363 . S
C734 C739 1.379 1_565 S
C734 N741 1.356 . S
C735 C734 1.363 . S
C735 C738 1.363 . S
N736 C738 1.356 . S
N736 H748 0.984 . S
N736 H749 0.985 . S
N737 C739 1.356 . S
N737 H742 0.984 . S
N737 H743 0.985 . S
C738 C732 1.379 1_565 S
C738 C735 1.363 . S
C738 N736 1.356 . S
C739 C733 1.363 . S
C739 C734 1.379 1_545 S
C739 N737 1.356 . S
N740 C732 1.356 . S
N740 H746 0.984 . S
N740 H747 0.984 . S
N741 C734 1.356 . S
N741 H744 0.984 . S
N741 H745 0.985 . S
H742 N737 0.984 . S
H743 N737 0.985 . S
H744 N741 0.984 . S
H745 N741 0.985 . S
H746 N740 0.984 . S
H747 N740 0.984 . S
H748 N736 0.984 . S
H749 N736 0.985 . S
C750 C751 1.363 . S
C750 C756 1.379 . S
C750 N758 1.356 . S
C751 C750 1.363 . S
C751 C757 1.363 . S
C752 C753 1.363 . S
C752 C757 1.379 . S
C752 N759 1.356 . S
C753 C752 1.363 . S
C753 C756 1.363 . S
N754 C756 1.356 . S
N754 H766 0.984 . S
N754 H767 0.985 . S
N755 C757 1.356 . S
N755 H760 0.984 . S
N755 H761 0.985 . S
C756 C750 1.379 . S
C756 C753 1.363 . S
C756 N754 1.356 . S
C757 C751 1.363 . S
C757 C752 1.379 . S
C757 N755 1.356 . S
N758 C750 1.356 . S
N758 H764 0.984 . S
N758 H765 0.984 . S
N759 C752 1.356 . S
N759 H762 0.984 . S
N759 H763 0.985 . S
H760 N755 0.984 . S
H761 N755 0.985 . S
H762 N759 0.984 . S
H763 N759 0.985 . S
H764 N758 0.984 . S
H765 N758 0.984 . S
H766 N754 0.984 . S
H767 N754 0.985 . S
C768 C769 1.363 . S
C768 C774 1.379 1_455 S
C768 N776 1.356 . S
C769 C768 1.363 . S
C769 C775 1.363 . S
C770 C771 1.363 . S
C770 C775 1.379 1_655 S
C770 N777 1.356 . S
C771 C770 1.363 . S
C771 C774 1.363 . S
N772 C774 1.356 . S
N772 H784 0.984 . S
N772 H785 0.985 . S
N773 C775 1.356 . S
N773 H778 0.984 . S
N773 H779 0.975 1_455 S
C774 C768 1.379 1_655 S
C774 C771 1.363 . S
C774 N772 1.356 . S
C775 C769 1.363 . S
C775 C770 1.379 1_455 S
C775 N773 1.356 . S
N776 C768 1.356 . S
N776 H782 0.984 . S
N776 H783 0.984 . S
N777 C770 1.356 . S
N777 H780 0.984 . S
N777 H781 0.985 . S
H778 N773 0.984 . S
H779 N773 0.975 1_655 S
H780 N777 0.984 . S
H781 N777 0.985 . S
H782 N776 0.984 . S
H783 N776 0.984 . S
H784 N772 0.984 . S
H785 N772 0.985 . S
C786 C787 1.363 . S
C786 C792 1.379 1_545 S
C786 N794 1.356 . S
C787 C786 1.363 . S
C787 C793 1.363 . S
C788 C789 1.363 . S
C788 C793 1.379 1_565 S
C788 N795 1.356 . S
C789 C788 1.363 . S
C789 C792 1.363 . S
N790 C792 1.356 . S
N790 H802 0.984 . S
N790 H803 0.985 . S
N791 C793 1.356 . S
N791 H796 0.984 . S
N791 H797 0.989 . S
C792 C786 1.379 1_565 S
C792 C789 1.363 . S
C792 N790 1.356 . S
C793 C787 1.363 . S
C793 C788 1.379 1_545 S
C793 N791 1.356 . S
N794 C786 1.356 . S
N794 H800 0.984 . S
N794 H801 0.984 . S
N795 C788 1.356 . S
N795 H798 0.984 . S
N795 H799 0.985 . S
H796 N791 0.984 . S
H797 N791 0.989 . S
H798 N795 0.984 . S
H799 N795 0.985 . S
H800 N794 0.984 . S
H801 N794 0.984 . S
H802 N790 0.984 . S
H803 N790 0.985 . S
C804 C805 1.363 . S
C804 C810 1.379 . S
C804 N812 1.356 . S
C805 C804 1.363 . S
C805 C811 1.363 . S
C806 C807 1.363 . S
C806 C811 1.379 . S
C806 N813 1.356 . S
C807 C806 1.363 . S
C807 C810 1.363 . S
N808 C810 1.356 . S
N808 H820 0.984 . S
N808 H821 0.985 . S
N809 C811 1.356 . S
N809 H814 0.984 . S
N809 H815 0.985 . S
C810 C804 1.379 . S
C810 C807 1.363 . S
C810 N808 1.356 . S
C811 C805 1.363 . S
C811 C806 1.379 . S
C811 N809 1.356 . S
N812 C804 1.356 . S
N812 H818 0.984 . S
N812 H819 0.984 . S
N813 C806 1.356 . S
N813 H816 0.984 . S
N813 H817 0.985 . S
H814 N809 0.984 . S
H815 N809 0.985 . S
H816 N813 0.984 . S
H817 N813 0.985 . S
H818 N812 0.984 . S
H819 N812 0.984 . S
H820 N808 0.984 . S
H821 N808 0.985 . S
C822 C823 1.363 . S
C822 C828 1.379 . S
C822 N830 1.356 . S
C823 C822 1.363 . S
C823 C829 1.363 . S
C824 C825 1.363 . S
C824 C829 1.379 . S
C824 N831 1.356 . S
C825 C824 1.363 . S
C825 C828 1.363 . S
N826 C828 1.356 . S
N826 H838 0.984 . S
N826 H839 0.985 . S
N827 C829 1.356 . S
N827 H832 0.984 . S
N827 H833 0.985 . S
C828 C822 1.379 . S
C828 C825 1.363 . S
C828 N826 1.356 . S
C829 C823 1.363 . S
C829 C824 1.379 . S
C829 N827 1.356 . S
N830 C822 1.356 . S
N830 H836 0.984 . S
N830 H837 0.984 . S
N831 C824 1.356 . S
N831 H834 0.984 . S
N831 H835 0.985 . S
H832 N827 0.984 . S
H833 N827 0.985 . S
H834 N831 0.984 . S
H835 N831 0.985 . S
H836 N830 0.984 . S
H837 N830 0.984 . S
H838 N826 0.984 . S
H839 N826 0.985 . S
C840 C841 1.363 . S
C840 C846 1.379 . S
C840 N848 1.356 . S
C841 C840 1.363 . S
C841 C847 1.363 . S
C842 C843 1.363 . S
C842 C847 1.379 . S
C842 N849 1.356 . S
C843 C842 1.363 . S
C843 C846 1.363 . S
N844 C846 1.356 . S
N844 H856 0.984 . S
N844 H857 0.985 . S
N845 C847 1.356 . S
N845 H850 0.984 . S
N845 H851 0.985 . S
C846 C840 1.379 . S
C846 C843 1.363 . S
C846 N844 1.356 . S
C847 C841 1.363 . S
C847 C842 1.379 . S
C847 N845 1.356 . S
N848 C840 1.356 . S
N848 H854 0.984 . S
N848 H855 0.984 . S
N849 C842 1.356 . S
N849 H852 0.984 . S
N849 H853 0.985 . S
H850 N845 0.984 . S
H851 N845 0.985 . S
H852 N849 0.984 . S
H853 N849 0.985 . S
H854 N848 0.984 . S
H855 N848 0.984 . S
H856 N844 0.984 . S
H857 N844 0.985 . S
C858 C859 1.363 . S
C858 C864 1.379 . S
C858 N866 1.356 . S
C859 C858 1.363 . S
C859 C865 1.363 . S
C860 C861 1.363 . S
C860 C865 1.379 . S
C860 N867 1.356 . S
C861 C860 1.363 . S
C861 C864 1.363 . S
N862 C864 1.356 . S
N862 H874 0.984 . S
N862 H875 0.985 . S
N863 C865 1.356 . S
N863 H868 0.984 . S
N863 H869 0.985 . S
C864 C858 1.379 . S
C864 C861 1.363 . S
C864 N862 1.356 . S
C865 C859 1.363 . S
C865 C860 1.379 . S
C865 N863 1.356 . S
N866 C858 1.356 . S
N866 H872 0.984 . S
N866 H873 0.984 . S
N867 C860 1.356 . S
N867 H870 0.984 . S
N867 H871 0.985 . S
H868 N863 0.984 . S
H869 N863 0.985 . S
H870 N867 0.984 . S
H871 N867 0.985 . S
H872 N866 0.984 . S
H873 N866 0.984 . S
H874 N862 0.984 . S
H875 N862 0.985 . S
C876 C877 1.363 . S
C876 C882 1.379 . S
C876 N884 1.356 . S
C877 C876 1.363 . S
C877 C883 1.363 . S
C878 C879 1.363 . S
C878 C883 1.379 . S
C878 N885 1.356 . S
C879 C878 1.363 . S
C879 C882 1.363 . S
N880 C882 1.356 . S
N880 H892 0.984 . S
N880 H893 0.985 1_556 S
N881 C883 1.356 . S
N881 H886 0.984 . S
N881 H887 0.985 . S
C882 C876 1.379 . S
C882 C879 1.363 . S
C882 N880 1.356 . S
C883 C877 1.363 . S
C883 C878 1.379 . S
C883 N881 1.356 . S
N884 C876 1.356 . S
N884 H890 0.984 . S
N884 H891 0.984 . S
N885 C878 1.356 . S
N885 H888 0.984 1_556 S
N885 H889 0.985 . S
H886 N881 0.984 . S
H887 N881 0.985 . S
H888 N885 0.984 1_554 S
H889 N885 0.985 . S
H890 N884 0.984 . S
H891 N884 0.984 . S
H892 N880 0.984 . S
H893 N880 0.985 1_554 S
C894 C895 1.363 . S
C894 C900 1.379 . S
C894 N902 1.356 . S
C895 C894 1.363 . S
C895 C901 1.363 . S
C896 C897 1.363 . S
C896 C901 1.379 . S
C896 N903 1.356 . S
C897 C896 1.363 . S
C897 C900 1.363 . S
N898 C900 1.356 . S
N898 H910 0.984 . S
N898 H911 0.985 . S
N899 C901 1.356 . S
N899 H904 0.984 1_554 S
N899 H905 0.985 . S
C900 C894 1.379 . S
C900 C897 1.363 . S
C900 N898 1.356 . S
C901 C895 1.363 . S
C901 C896 1.379 . S
C901 N899 1.356 . S
N902 C894 1.356 . S
N902 H908 0.984 . S
N902 H909 0.984 1_554 S
N903 C896 1.356 . S
N903 H906 0.984 . S
N903 H907 0.985 . S
H904 N899 0.984 1_556 S
H905 N899 0.985 . S
H906 N903 0.984 . S
H907 N903 0.985 . S
H908 N902 0.984 . S
H909 N902 0.984 1_556 S
H910 N898 0.984 . S
H911 N898 0.985 . S
C265 C5 1.520 . S
C267 C185 1.520 . S
C283 C207 1.520 . S
C285 C31 1.520 . S
C301 C229 1.520 . S
C303 C49 1.520 . S
C319 C75 1.521 . S
C321 C251 1.521 . S
C337 C141 1.520 . S
C339 C93 1.520 . S
C355 C163 1.520 . S
C357 C119 1.520 . S
C373 C9 1.119 . S
C375 C203 1.119 . S
C391 C27 1.119 . S
C393 C225 1.119 . S
C409 C247 1.119 . S
C411 C53 1.119 . S
C427 C137 1.119 . S
C429 C71 1.119 . S
C445 C97 1.119 . S
C447 C159 1.119 . S
C463 C115 1.119 . S
C465 C181 1.119 . S
C481 C138 1.366 . S
C483 C7 1.366 . S
C499 C160 1.366 . S
C501 C28 1.366 . S
C517 C182 1.366 . S
C519 C51 1.366 . S
C535 C72 1.366 . S
C537 C204 1.365 . S
C553 C95 1.365 . S
C555 C226 1.365 . S
C571 C116 1.365 . S
C573 C248 1.365 . S
C589 C8 1.802 . S
C591 C118 1.784 . S
C607 C26 1.801 . S
C609 C4 1.784 . S
C625 C52 1.802 . S
C627 C30 1.784 . S
C643 C48 1.784 . S
C645 C70 1.802 . S
C661 C96 1.802 . S
C663 C74 1.784 . S
C679 C114 1.801 . S
C681 C92 1.784 . S
C697 C162 1.784 . S
C699 C136 1.802 . S
C715 C184 1.784 . S
C717 C158 1.802 . S
C733 C206 1.784 . S
C735 C180 1.802 . S
C751 C202 1.802 . S
C753 C228 1.784 . S
C769 C224 1.801 . S
C771 C250 1.784 . S
C787 C246 1.802 . S
C789 C140 1.784 . S
C805 C227 0.785 . S
C807 C6 0.785 . S
C823 C249 0.785 . S
C825 C29 0.785 . S
C841 C139 0.785 . S
C843 C50 0.785 . S
C859 C161 0.785 . S
C861 C73 0.785 . S
C877 C94 0.785 . S
C879 C183 0.785 . S
C895 C117 0.785 . S
C897 C205 0.785 . S
