# Generated by pormake.
# Topology whz, (6)-cn, num edge types: 1
# Building blocks:
#     Node 0, Type 0, BuildingBlock: FUNLAD_clean_sbu_0, # of connection points: 6
#     Node 1, Type 0, BuildingBlock: FUNLAD_clean_sbu_0, # of connection points: 6
#     Node 2, Type 0, BuildingBlock: FUNLAD_clean_sbu_0, # of connection points: 6
#     Node 3, Type 0, BuildingBlock: FUNLAD_clean_sbu_0, # of connection points: 6
#     Node 4, Type 0, BuildingBlock: FUNLAD_clean_sbu_0, # of connection points: 6
#     Node 5, Type 0, BuildingBlock: FUNLAD_clean_sbu_0, # of connection points: 6
#     Node 6, Type 0, BuildingBlock: FUNLAD_clean_sbu_0, # of connection points: 6
#     Node 7, Type 0, BuildingBlock: FUNLAD_clean_sbu_0, # of connection points: 6
#     Node 8, Type 0, BuildingBlock: FUNLAD_clean_sbu_0, # of connection points: 6
#     Node 9, Type 0, BuildingBlock: FUNLAD_clean_sbu_0, # of connection points: 6
#     Node 10, Type 0, BuildingBlock: FUNLAD_clean_sbu_0, # of connection points: 6
#     Node 11, Type 0, BuildingBlock: FUNLAD_clean_sbu_0, # of connection points: 6
#     Node 12, Type 0, BuildingBlock: FUNLAD_clean_sbu_0, # of connection points: 6
#     Node 13, Type 0, BuildingBlock: FUNLAD_clean_sbu_0, # of connection points: 6
#     Node 14, Type 0, BuildingBlock: FUNLAD_clean_sbu_0, # of connection points: 6
#     Node 15, Type 0, BuildingBlock: FUNLAD_clean_sbu_0, # of connection points: 6
#     Edge 16, Type (0, 0), BuildingBlock: CIFDUS_clean_linker_0, # of connection points: 2
#     Edge 17, Type (0, 0), BuildingBlock: CIFDUS_clean_linker_0, # of connection points: 2
#     Edge 18, Type (0, 0), BuildingBlock: CIFDUS_clean_linker_0, # of connection points: 2
#     Edge 19, Type (0, 0), BuildingBlock: CIFDUS_clean_linker_0, # of connection points: 2
#     Edge 20, Type (0, 0), BuildingBlock: CIFDUS_clean_linker_0, # of connection points: 2
#     Edge 21, Type (0, 0), BuildingBlock: CIFDUS_clean_linker_0, # of connection points: 2
#     Edge 22, Type (0, 0), BuildingBlock: CIFDUS_clean_linker_0, # of connection points: 2
#     Edge 23, Type (0, 0), BuildingBlock: CIFDUS_clean_linker_0, # of connection points: 2
#     Edge 24, Type (0, 0), BuildingBlock: CIFDUS_clean_linker_0, # of connection points: 2
#     Edge 25, Type (0, 0), BuildingBlock: CIFDUS_clean_linker_0, # of connection points: 2
#     Edge 26, Type (0, 0), BuildingBlock: CIFDUS_clean_linker_0, # of connection points: 2
#     Edge 27, Type (0, 0), BuildingBlock: CIFDUS_clean_linker_0, # of connection points: 2
#     Edge 28, Type (0, 0), BuildingBlock: CIFDUS_clean_linker_0, # of connection points: 2
#     Edge 29, Type (0, 0), BuildingBlock: CIFDUS_clean_linker_0, # of connection points: 2
#     Edge 30, Type (0, 0), BuildingBlock: CIFDUS_clean_linker_0, # of connection points: 2
#     Edge 31, Type (0, 0), BuildingBlock: CIFDUS_clean_linker_0, # of connection points: 2
#     Edge 32, Type (0, 0), BuildingBlock: CIFDUS_clean_linker_0, # of connection points: 2
#     Edge 33, Type (0, 0), BuildingBlock: CIFDUS_clean_linker_0, # of connection points: 2
#     Edge 34, Type (0, 0), BuildingBlock: CIFDUS_clean_linker_0, # of connection points: 2
#     Edge 35, Type (0, 0), BuildingBlock: CIFDUS_clean_linker_0, # of connection points: 2
#     Edge 36, Type (0, 0), BuildingBlock: CIFDUS_clean_linker_0, # of connection points: 2
#     Edge 37, Type (0, 0), BuildingBlock: CIFDUS_clean_linker_0, # of connection points: 2
#     Edge 38, Type (0, 0), BuildingBlock: CIFDUS_clean_linker_0, # of connection points: 2
#     Edge 39, Type (0, 0), BuildingBlock: CIFDUS_clean_linker_0, # of connection points: 2
#     Edge 40, Type (0, 0), BuildingBlock: CIFDUS_clean_linker_0, # of connection points: 2
#     Edge 41, Type (0, 0), BuildingBlock: CIFDUS_clean_linker_0, # of connection points: 2
#     Edge 42, Type (0, 0), BuildingBlock: CIFDUS_clean_linker_0, # of connection points: 2
#     Edge 43, Type (0, 0), BuildingBlock: CIFDUS_clean_linker_0, # of connection points: 2
#     Edge 44, Type (0, 0), BuildingBlock: CIFDUS_clean_linker_0, # of connection points: 2
#     Edge 45, Type (0, 0), BuildingBlock: CIFDUS_clean_linker_0, # of connection points: 2
#     Edge 46, Type (0, 0), BuildingBlock: CIFDUS_clean_linker_0, # of connection points: 2
#     Edge 47, Type (0, 0), BuildingBlock: CIFDUS_clean_linker_0, # of connection points: 2
#     Edge 48, Type (0, 0), BuildingBlock: CIFDUS_clean_linker_0, # of connection points: 2
#     Edge 49, Type (0, 0), BuildingBlock: CIFDUS_clean_linker_0, # of connection points: 2
#     Edge 50, Type (0, 0), BuildingBlock: CIFDUS_clean_linker_0, # of connection points: 2
#     Edge 51, Type (0, 0), BuildingBlock: CIFDUS_clean_linker_0, # of connection points: 2
#     Edge 52, Type (0, 0), BuildingBlock: CIFDUS_clean_linker_0, # of connection points: 2
#     Edge 53, Type (0, 0), BuildingBlock: CIFDUS_clean_linker_0, # of connection points: 2
#     Edge 54, Type (0, 0), BuildingBlock: CIFDUS_clean_linker_0, # of connection points: 2
#     Edge 55, Type (0, 0), BuildingBlock: CIFDUS_clean_linker_0, # of connection points: 2
#     Edge 56, Type (0, 0), BuildingBlock: CIFDUS_clean_linker_0, # of connection points: 2
#     Edge 57, Type (0, 0), BuildingBlock: CIFDUS_clean_linker_0, # of connection points: 2
#     Edge 58, Type (0, 0), BuildingBlock: CIFDUS_clean_linker_0, # of connection points: 2
#     Edge 59, Type (0, 0), BuildingBlock: CIFDUS_clean_linker_0, # of connection points: 2
#     Edge 60, Type (0, 0), BuildingBlock: CIFDUS_clean_linker_0, # of connection points: 2
#     Edge 61, Type (0, 0), BuildingBlock: CIFDUS_clean_linker_0, # of connection points: 2
#     Edge 62, Type (0, 0), BuildingBlock: CIFDUS_clean_linker_0, # of connection points: 2
#     Edge 63, Type (0, 0), BuildingBlock: CIFDUS_clean_linker_0, # of connection points: 2
# Relax obj value: 0.664
# Max RMSD: 0.293
# Mean RMSD: 0.293
data_MOF--net-whz--node1-FUNLAD_clean_sbu_0--edge1-CIFDUS_clean_linker_0
_symmetry_space_group_name_H-M    P1
_symmetry_Int_Tables_number       1
_symmetry_cell_setting            triclinic
loop_
_symmetry_equiv_pos_as_xyz
'x, y, z'
_cell_length_a     34.00178
_cell_length_b     33.992546
_cell_length_c     50.546087
_cell_angle_alpha  90.038252
_cell_angle_beta   90.027933
_cell_angle_gamma 90.076626
loop_
_atom_site_label
_atom_site_type_symbol
_atom_site_fract_x
_atom_site_fract_y
_atom_site_fract_z
_atom_type_partial_charge
C0 C 0.33217 0.13591 0.09196 0.0
N1 N 0.26643 0.23111 0.1187 0.0
C2 C 0.28386 0.26027 0.10447 0.0
C3 C 0.26233 0.29348 0.09704 0.0
C4 C 0.22223 0.29615 0.10373 0.0
C5 C 0.20459 0.26418 0.11668 0.0
C6 C 0.22741 0.2325 0.12461 0.0
Zn7 Zn 0.29843 0.18623 0.13477 0.0
C8 C 0.24914 0.11405 0.14305 0.0
N9 N 0.35995 0.08988 0.17144 0.0
C10 C 0.3458 0.05233 0.17001 0.0
C11 C 0.3807 0.10195 0.19303 0.0
C12 C 0.38304 0.07816 0.21551 0.0
C13 C 0.36409 0.0414 0.21589 0.0
C14 C 0.34752 0.02744 0.1922 0.0
Zn15 Zn 0.33198 0.13514 0.15095 0.0
O16 O 0.31423 0.16734 0.09789 0.0
C17 C 0.38283 0.2068 0.14381 0.0
O18 O 0.34425 0.11306 0.11048 0.0
H19 H 0.39123 0.13192 0.1942 0.0
H20 H 0.31484 0.25866 0.09982 0.0
H21 H 0.32914 0.04307 0.15287 0.0
O22 O 0.35022 0.22202 0.13685 0.0
O23 O 0.3839 0.17051 0.15009 0.0
H24 H 0.21385 0.20986 0.13644 0.0
O25 O 0.31591 0.15931 0.18971 0.0
O26 O 0.28185 0.206 0.17091 0.0
O27 O 0.28139 0.10105 0.15171 0.0
O28 O 0.24758 0.14872 0.13381 0.0
C29 C 0.29342 0.18913 0.19168 0.0
H30 H 0.27749 0.3174 0.08727 0.0
H31 H 0.17361 0.26405 0.12158 0.0
H32 H 0.39685 0.08979 0.23319 0.0
H33 H 0.33279 -0.00081 0.19155 0.0
C34 C 0.60835 0.58709 0.34899 0.0
N35 N 0.51077 0.52427 0.37235 0.0
C36 C 0.4894 0.53819 0.35162 0.0
C37 C 0.46023 0.51464 0.34019 0.0
C38 C 0.45394 0.47652 0.35007 0.0
C39 C 0.4771 0.46283 0.37096 0.0
C40 C 0.5051 0.48734 0.382 0.0
Zn41 Zn 0.55452 0.55478 0.38997 0.0
C42 C 0.62207 0.49974 0.3988 0.0
N43 N 0.65393 0.60751 0.4286 0.0
C44 C 0.69115 0.59436 0.4238 0.0
C45 C 0.64482 0.62481 0.4521 0.0
C46 C 0.67193 0.62476 0.47292 0.0
C47 C 0.709 0.60724 0.46949 0.0
C48 C 0.71938 0.59406 0.4441 0.0
Zn49 Zn 0.60717 0.58295 0.40794 0.0
O50 O 0.57577 0.57057 0.35377 0.0
C51 C 0.53754 0.63784 0.4 0.0
O52 O 0.63104 0.59649 0.36825 0.0
H53 H 0.61509 0.63468 0.45575 0.0
H54 H 0.49467 0.56757 0.34421 0.0
H55 H 0.6978 0.58014 0.40518 0.0
O56 O 0.52142 0.60652 0.39148 0.0
O57 O 0.57337 0.63702 0.40773 0.0
H58 H 0.52198 0.47677 0.39863 0.0
O59 O 0.58177 0.5658 0.44609 0.0
O60 O 0.53211 0.53859 0.42572 0.0
O61 O 0.6387 0.52992 0.40817 0.0
O62 O 0.58799 0.5028 0.38902 0.0
C63 C 0.54991 0.54609 0.44699 0.0
H64 H 0.44227 0.52624 0.32431 0.0
H65 H 0.47223 0.43412 0.37969 0.0
H66 H 0.66298 0.63585 0.49209 0.0
H67 H 0.74768 0.58043 0.44061 0.0
C68 C 0.15997 0.86017 0.59241 0.0
N69 N 0.21841 0.75961 0.61785 0.0
C70 C 0.20144 0.73692 0.59883 0.0
C71 C 0.21978 0.70215 0.59059 0.0
C72 C 0.25549 0.69064 0.6024 0.0
C73 C 0.27263 0.7156 0.6213 0.0
C74 C 0.25388 0.7501 0.62845 0.0
Zn75 Zn 0.19213 0.80711 0.63445 0.0
C76 C 0.2474 0.87391 0.64036 0.0
N77 N 0.14291 0.9093 0.67234 0.0
C78 C 0.1093 0.9306 0.66941 0.0
C79 C 0.16891 0.91856 0.69195 0.0
C80 C 0.16119 0.94811 0.71014 0.0
C81 C 0.12663 0.97034 0.70831 0.0
C82 C 0.10071 0.9616 0.68711 0.0
Zn83 Zn 0.16217 0.85999 0.65112 0.0
O84 O 0.17731 0.82825 0.59793 0.0
C85 C 0.10535 0.79409 0.6454 0.0
O86 O 0.14869 0.88295 0.6112 0.0
H87 H 0.19592 0.90231 0.69425 0.0
H88 H 0.17327 0.7452 0.5906 0.0
H89 H 0.08893 0.92334 0.6537 0.0
O90 O 0.13659 0.77742 0.63701 0.0
O91 O 0.10677 0.82999 0.65282 0.0
H92 H 0.26706 0.76842 0.64352 0.0
O93 O 0.17866 0.83416 0.68961 0.0
O94 O 0.20738 0.78474 0.6703 0.0
O95 O 0.2158 0.889 0.6485 0.0
O96 O 0.24741 0.83833 0.63272 0.0
C97 C 0.19863 0.80263 0.69123 0.0
H98 H 0.20567 0.68414 0.57568 0.0
H99 H 0.29938 0.70789 0.63167 0.0
H100 H 0.18192 0.95198 0.72615 0.0
H101 H 0.07382 0.97803 0.68431 0.0
C102 C 0.88177 0.42356 0.85257 0.0
N103 N 0.99674 0.45322 0.87325 0.0
C104 C 0.01098 0.43796 0.85023 0.0
C105 C 0.04447 0.45454 0.83844 0.0
C106 C 0.06249 0.48713 0.8505 0.0
C107 C 0.04763 0.50125 0.87449 0.0
C108 C 0.0147 0.48403 0.88544 0.0
Zn109 Zn 0.94657 0.43584 0.8915 0.0
C110 C 0.89664 0.50511 0.90388 0.0
N111 N 0.83937 0.40776 0.93378 0.0
C112 C 0.8198 0.37281 0.93504 0.0
C113 C 0.82892 0.43781 0.95025 0.0
C114 C 0.79756 0.43436 0.96769 0.0
C115 C 0.77776 0.3984 0.97057 0.0
C116 C 0.78922 0.36731 0.95355 0.0
Zn117 Zn 0.89004 0.41905 0.91106 0.0
O118 O 0.91768 0.43263 0.8556 0.0
C119 C 0.94065 0.34945 0.89935 0.0
O120 O 0.86104 0.41396 0.87275 0.0
H121 H 0.84564 0.46469 0.95097 0.0
H122 H 0.9961 0.41348 0.84088 0.0
H123 H 0.8288 0.34866 0.9225 0.0
O124 O 0.96202 0.37616 0.88907 0.0
O125 O 0.90806 0.35864 0.91028 0.0
H126 H 0.00315 0.49597 0.90365 0.0
O127 O 0.92046 0.42854 0.94806 0.0
O128 O 0.97575 0.43881 0.92708 0.0
O129 O 0.87425 0.47733 0.91059 0.0
O130 O 0.93036 0.49705 0.89472 0.0
C131 C 0.95701 0.43644 0.94852 0.0
H132 H 0.05563 0.44268 0.82002 0.0
H133 H 0.06139 0.52561 0.88481 0.0
H134 H 0.78993 0.46002 0.97921 0.0
H135 H 0.77584 0.33852 0.95494 0.0
C136 C 0.68533 0.78372 0.8113 0.0
N137 N 0.63614 0.89532 0.82724 0.0
C138 C 0.61738 0.88623 0.80426 0.0
C139 C 0.61671 0.91325 0.78346 0.0
C140 C 0.63489 0.95009 0.78657 0.0
C141 C 0.64943 0.96055 0.81156 0.0
C142 C 0.64989 0.93242 0.83178 0.0
Zn143 Zn 0.6613 0.84976 0.84802 0.0
C144 C 0.60517 0.78721 0.86636 0.0
N145 N 0.72214 0.75634 0.88583 0.0
C146 C 0.7536 0.74317 0.87181 0.0
C147 C 0.71373 0.74185 0.91025 0.0
C148 C 0.7372 0.71222 0.92119 0.0
C149 C 0.76928 0.69744 0.90666 0.0
C150 C 0.77727 0.71355 0.88171 0.0
Zn151 Zn 0.69111 0.79982 0.868 0.0
O152 O 0.67047 0.81808 0.81077 0.0
C153 C 0.74673 0.86152 0.84849 0.0
O154 O 0.6949 0.76903 0.83325 0.0
H155 H 0.68882 0.75314 0.92117 0.0
H156 H 0.60677 0.85663 0.80095 0.0
H157 H 0.76032 0.75531 0.85258 0.0
O158 O 0.71496 0.87805 0.84196 0.0
O159 O 0.7455 0.82831 0.85984 0.0
H160 H 0.66534 0.93892 0.84998 0.0
O161 O 0.68723 0.8299 0.90332 0.0
O162 O 0.6554 0.88003 0.88597 0.0
O163 O 0.63675 0.77196 0.87521 0.0
O164 O 0.60653 0.82008 0.85418 0.0
C165 C 0.67065 0.86298 0.90602 0.0
H166 H 0.60477 0.90438 0.76449 0.0
H167 H 0.66371 0.98869 0.81465 0.0
H168 H 0.73007 0.70079 0.94059 0.0
H169 H 0.8008 0.70256 0.86933 0.0
C170 C 0.44146 0.43159 0.5635 0.0
N171 N 0.32838 0.39202 0.58182 0.0
C172 C 0.32301 0.41497 0.56001 0.0
C173 C 0.29059 0.4102 0.54366 0.0
C174 C 0.26199 0.38187 0.54956 0.0
C175 C 0.26749 0.35873 0.57251 0.0
C176 C 0.30111 0.36432 0.58846 0.0
Zn177 Zn 0.37981 0.40689 0.60201 0.0
C178 C 0.43586 0.34138 0.61227 0.0
N179 N 0.48584 0.451 0.63644 0.0
C180 C 0.49349 0.48832 0.62809 0.0
C181 C 0.51369 0.42984 0.6496 0.0
C182 C 0.55134 0.44585 0.6537 0.0
C183 C 0.55981 0.48383 0.64418 0.0
C184 C 0.52967 0.50555 0.6324 0.0
Zn185 Zn 0.4342 0.4285 0.62174 0.0
O186 O 0.40898 0.41308 0.56398 0.0
C187 C 0.37721 0.49262 0.61089 0.0
O188 O 0.45722 0.44122 0.58511 0.0
H189 H 0.50748 0.39997 0.65567 0.0
H190 H 0.34405 0.43747 0.55487 0.0
H191 H 0.4727 0.50451 0.61633 0.0
O192 O 0.36 0.46453 0.59944 0.0
O193 O 0.40857 0.48591 0.62358 0.0
H194 H 0.30537 0.34659 0.60599 0.0
O195 O 0.41172 0.41703 0.65883 0.0
O196 O 0.35341 0.40411 0.64154 0.0
O197 O 0.45728 0.37033 0.61948 0.0
O198 O 0.4005 0.34761 0.60484 0.0
C199 C 0.37541 0.40956 0.66185 0.0
H200 H 0.28895 0.42807 0.52598 0.0
H201 H 0.24624 0.3365 0.57806 0.0
H202 H 0.57391 0.42818 0.663 0.0
H203 H 0.53442 0.53528 0.62537 0.0
C204 C 0.80408 0.18896 0.31621 0.0
N205 N 0.8609 0.08489 0.33786 0.0
C206 C 0.88169 0.0933 0.31557 0.0
C207 C 0.88149 0.06721 0.29425 0.0
C208 C 0.86017 0.03196 0.29603 0.0
C209 C 0.84341 0.02159 0.3204 0.0
C210 C 0.84412 0.04877 0.3413 0.0
Zn211 Zn 0.83791 0.1333 0.35703 0.0
C212 C 0.89457 0.19928 0.36441 0.0
N213 N 0.78368 0.23499 0.38916 0.0
C214 C 0.74889 0.2456 0.37806 0.0
C215 C 0.80113 0.25736 0.40818 0.0
C216 C 0.78394 0.29282 0.41608 0.0
C217 C 0.7487 0.30507 0.40412 0.0
C218 C 0.73108 0.28067 0.38508 0.0
Zn219 Zn 0.80977 0.18692 0.37348 0.0
O220 O 0.82299 0.15681 0.31805 0.0
C221 C 0.75265 0.12261 0.36439 0.0
O222 O 0.79678 0.20817 0.33695 0.0
H223 H 0.82885 0.24826 0.41668 0.0
H224 H 0.89421 0.12229 0.31291 0.0
H225 H 0.73556 0.22761 0.36287 0.0
O226 O 0.78342 0.10501 0.35687 0.0
O227 O 0.75525 0.15722 0.37359 0.0
H228 H 0.82733 0.04271 0.359 0.0
O229 O 0.8223 0.16625 0.41046 0.0
O230 O 0.84937 0.11101 0.39706 0.0
O231 O 0.86348 0.21616 0.37235 0.0
O232 O 0.89322 0.16346 0.35701 0.0
C233 C 0.8386 0.13378 0.41591 0.0
H234 H 0.89496 0.07603 0.27575 0.0
H235 H 0.82668 0.99462 0.32243 0.0
H236 H 0.79835 0.31069 0.43095 0.0
H237 H 0.70455 0.28923 0.37472 0.0
C238 C 0.04162 0.56308 0.0657 0.0
N239 N 0.15754 0.59451 0.08468 0.0
C240 C 0.16374 0.56986 0.06379 0.0
C241 C 0.19467 0.57581 0.04627 0.0
C242 C 0.22086 0.60722 0.05001 0.0
C243 C 0.21498 0.63151 0.07242 0.0
C244 C 0.18286 0.62475 0.08948 0.0
Zn245 Zn 0.10583 0.58117 0.10518 0.0
C246 C 0.05214 0.64947 0.11588 0.0
N247 N -0.00265 0.54269 0.13942 0.0
C248 C 0.98225 0.5115 0.12594 0.0
C249 C 0.98053 0.5555 0.16232 0.0
C250 C 0.94734 0.53609 0.17252 0.0
C251 C 0.93193 0.50335 0.15895 0.0
C252 C 0.94944 0.49185 0.13512 0.0
Zn253 Zn 0.04828 0.56344 0.12317 0.0
O254 O 0.07763 0.57284 0.06698 0.0
C255 C 0.1017 0.4955 0.11252 0.0
O256 O 0.02234 0.55859 0.08671 0.0
H257 H 0.99323 0.58012 0.17289 0.0
H258 H 0.14385 0.54575 0.05994 0.0
H259 H 0.99606 0.50096 0.10807 0.0
O260 O 0.1239 0.52272 0.10442 0.0
O261 O 0.06811 0.50394 0.1217 0.0
H262 H 0.17783 0.64406 0.10616 0.0
O263 O 0.07326 0.56904 0.1596 0.0
O264 O 0.13168 0.58665 0.14499 0.0
O265 O 0.03005 0.62206 0.12454 0.0
O266 O 0.08606 0.64119 0.10653 0.0
C267 C 0.10857 0.5787 0.16433 0.0
H268 H 0.1966 0.55666 0.02921 0.0
H269 H 0.2345 0.6559 0.07657 0.0
H270 H 0.93442 0.546 0.19093 0.0
H271 H 0.93795 0.46765 0.12348 0.0
C272 C 0.84121 0.62513 0.59239 0.0
N273 N 0.78032 0.72956 0.60351 0.0
C274 C 0.80147 0.75845 0.59141 0.0
C275 C 0.78246 0.79224 0.58203 0.0
C276 C 0.74143 0.79534 0.58457 0.0
C277 C 0.72033 0.76397 0.59531 0.0
C278 C 0.74038 0.73179 0.60521 0.0
Zn279 Zn 0.80547 0.68532 0.62521 0.0
C280 C 0.74882 0.61936 0.63239 0.0
N281 N 0.846 0.59328 0.67718 0.0
C282 C 0.88229 0.57671 0.67952 0.0
C283 C 0.81652 0.58226 0.69391 0.0
C284 C 0.82183 0.55283 0.71259 0.0
C285 C 0.85894 0.53568 0.7163 0.0
C286 C 0.88956 0.5482 0.69922 0.0
Zn287 Zn 0.82876 0.63808 0.65109 0.0
O288 O 0.83053 0.66083 0.5923 0.0
C289 C 0.88746 0.70284 0.64346 0.0
O290 O 0.84399 0.60662 0.61445 0.0
H291 H 0.78827 0.59659 0.69332 0.0
H292 H 0.83318 0.75654 0.59052 0.0
H293 H 0.90583 0.58617 0.6666 0.0
O294 O 0.85765 0.71849 0.63235 0.0
O295 O 0.88484 0.66778 0.6524 0.0
H296 H 0.7237 0.71029 0.61612 0.0
O297 O 0.80914 0.67077 0.68527 0.0
O298 O 0.77951 0.71103 0.65807 0.0
O299 O 0.7747 0.60988 0.64897 0.0
O300 O 0.75443 0.64937 0.61807 0.0
C301 C 0.78679 0.7002 0.68145 0.0
H302 H 0.79964 0.81641 0.57419 0.0
H303 H 0.68884 0.76591 0.59841 0.0
H304 H 0.79644 0.5442 0.72403 0.0
H305 H 0.91913 0.53695 0.70121 0.0
C306 C 0.10594 0.06981 0.84878 0.0
N307 N 0.99411 0.03722 0.87375 0.0
C308 C 0.97803 0.05316 0.85151 0.0
C309 C 0.94435 0.03617 0.84019 0.0
C310 C 0.9279 0.0025 0.85191 0.0
C311 C 0.94455 0.98773 0.87519 0.0
C312 C 0.97772 0.00531 0.88565 0.0
Zn313 Zn 0.04541 0.05499 0.89071 0.0
C314 C 0.09706 0.9874 0.90115 0.0
N315 N 0.15613 0.08371 0.9288 0.0
C316 C 0.18638 0.10921 0.92412 0.0
C317 C 0.15828 0.05832 0.94965 0.0
C318 C 0.19009 0.0582 0.96679 0.0
C319 C 0.22202 0.08354 0.96271 0.0
C320 C 0.21979 0.10959 0.9409 0.0
Zn321 Zn 0.10332 0.07432 0.90756 0.0
O322 O 0.0707 0.06079 0.85422 0.0
C323 C 0.05156 0.14254 0.89814 0.0
O324 O 0.12969 0.07831 0.8677 0.0
H325 H 0.1352 0.03729 0.95335 0.0
H326 H 0.9917 0.07845 0.84231 0.0
H327 H 0.18486 0.12904 0.90742 0.0
O328 O 0.0288 0.11497 0.89039 0.0
O329 O 0.0862 0.13447 0.90633 0.0
H330 H 0.99078 0.99267 0.90316 0.0
O331 O 0.07383 0.0676 0.94573 0.0
O332 O 0.01949 0.04867 0.92676 0.0
O333 O 0.11868 0.01569 0.9082 0.0
O334 O 0.06325 0.99461 0.89184 0.0
C335 C 0.03887 0.05462 0.94759 0.0
H336 H 0.93192 0.04852 0.8223 0.0
H337 H 0.93211 0.96251 0.8853 0.0
H338 H 0.18881 0.03846 0.98355 0.0
H339 H 0.24354 0.12985 0.9367 0.0
C340 C 0.66756 0.37253 0.1063 0.0
N341 N 0.70972 0.26089 0.12288 0.0
C342 C 0.69163 0.24234 0.10232 0.0
C343 C 0.7083 0.20833 0.0914 0.0
C344 C 0.74378 0.19381 0.10184 0.0
C345 C 0.76183 0.21424 0.12267 0.0
C346 C 0.74442 0.24769 0.13279 0.0
Zn347 Zn 0.68719 0.30764 0.14261 0.0
C348 C 0.74853 0.36275 0.15884 0.0
N349 N 0.64687 0.40625 0.18882 0.0
C350 C 0.62818 0.44017 0.18166 0.0
C351 C 0.66625 0.40444 0.21244 0.0
C352 C 0.66746 0.43616 0.22959 0.0
C353 C 0.65024 0.47197 0.22256 0.0
C354 C 0.62933 0.47357 0.19843 0.0
Zn355 Zn 0.66084 0.35767 0.16458 0.0
O356 O 0.67669 0.33646 0.10756 0.0
C357 C 0.59895 0.30143 0.14952 0.0
O358 O 0.65947 0.39133 0.12761 0.0
H359 H 0.68366 0.37934 0.2178 0.0
H360 H 0.66395 0.25337 0.09483 0.0
H361 H 0.61404 0.44209 0.16253 0.0
O362 O 0.63002 0.28373 0.14196 0.0
O363 O 0.60148 0.3363 0.15896 0.0
H364 H 0.75824 0.26229 0.14935 0.0
O365 O 0.66502 0.32103 0.19954 0.0
O366 O 0.69879 0.27788 0.17732 0.0
O367 O 0.71871 0.37724 0.17005 0.0
O368 O 0.74428 0.33296 0.14405 0.0
C369 C 0.68548 0.28983 0.19913 0.0
H370 H 0.69339 0.19326 0.0754 0.0
H371 H 0.78839 0.20358 0.13206 0.0
H372 H 0.68296 0.43257 0.24816 0.0
H373 H 0.61535 0.50058 0.19213 0.0
C374 C 0.3787 0.92323 0.34819 0.0
N375 N 0.49068 0.96348 0.36844 0.0
C376 C 0.51104 0.94495 0.34887 0.0
C377 C 0.5465 0.96101 0.33964 0.0
C378 C 0.56042 0.99638 0.35069 0.0
C379 C 0.53834 0.01468 0.37056 0.0
C380 C 0.50366 -0.00213 0.37905 0.0
Zn381 Zn 0.44161 0.94235 0.38637 0.0
C382 C 0.3878 0.00517 0.4005 0.0
N383 N 0.33912 0.90492 0.43042 0.0
C384 C 0.30693 0.88243 0.42463 0.0
C385 C 0.33928 0.92753 0.45275 0.0
C386 C 0.3078 0.92799 0.4701 0.0
C387 C 0.27373 0.90635 0.46463 0.0
C388 C 0.27374 0.88262 0.44161 0.0
Zn389 Zn 0.38935 0.91741 0.40719 0.0
O390 O 0.41461 0.93271 0.35043 0.0
C391 C 0.44541 0.85442 0.39475 0.0
O392 O 0.35845 0.91518 0.36891 0.0
H393 H 0.36327 0.9472 0.45705 0.0
H394 H 0.5003 0.91741 0.34091 0.0
H395 H 0.30635 0.86531 0.40658 0.0
O396 O 0.46372 0.88484 0.38667 0.0
O397 O 0.4102 0.85773 0.40346 0.0
H398 H 0.48791 0.01194 0.39498 0.0
O399 O 0.42304 0.92222 0.44347 0.0
O400 O 0.46921 0.953 0.42201 0.0
O401 O 0.37098 0.97587 0.41086 0.0
O402 O 0.41858 -6e-05 0.38694 0.0
C403 C 0.45521 0.94118 0.44365 0.0
H404 H 0.563 0.94585 0.32443 0.0
H405 H 0.5485 0.0411 0.38044 0.0
H406 H 0.3105 0.94578 0.48778 0.0
H407 H 0.2482 0.86521 0.43643 0.0
C408 C 0.19593 0.29784 0.31488 0.0
N409 N 0.14172 0.40659 0.3322 0.0
C410 C 0.16424 0.41324 0.31033 0.0
C411 C 0.15722 0.44484 0.29374 0.0
C412 C 0.12745 0.47182 0.29965 0.0
C413 C 0.10452 0.46495 0.32254 0.0
C414 C 0.1122 0.43192 0.33864 0.0
Zn415 Zn 0.16281 0.35887 0.35382 0.0
C416 C 0.10902 0.29377 0.36421 0.0
N417 N 0.22334 0.26366 0.38959 0.0
C418 C 0.2582 0.25301 0.37864 0.0
C419 C 0.20816 0.2442 0.41077 0.0
C420 C 0.22789 0.21161 0.42117 0.0
C421 C 0.2632 0.19906 0.40939 0.0
C422 C 0.27839 0.22063 0.38804 0.0
Zn423 Zn 0.19555 0.30858 0.37136 0.0
O424 O 0.17514 0.32886 0.31626 0.0
C425 C 0.24831 0.37418 0.36 0.0
O426 O 0.20843 0.28265 0.33595 0.0
H427 H 0.18043 0.25344 0.41921 0.0
H428 H 0.18885 0.39455 0.30568 0.0
H429 H 0.26991 0.26884 0.36187 0.0
O430 O 0.21584 0.38786 0.35241 0.0
O431 O 0.24977 0.3399 0.36977 0.0
H432 H 0.0951 0.42699 0.35637 0.0
O433 O 0.18299 0.33333 0.40735 0.0
O434 O 0.15238 0.38591 0.39264 0.0
O435 O 0.14115 0.27833 0.37197 0.0
O436 O 0.10871 0.32907 0.35568 0.0
C437 C 0.16522 0.36531 0.412 0.0
H438 H 0.17511 0.44745 0.27612 0.0
H439 H 0.08123 0.48496 0.32814 0.0
H440 H 0.21524 0.19599 0.43778 0.0
H441 H 0.30475 0.21167 0.37766 0.0
C442 C 0.93413 0.93918 0.06457 0.0
N443 N 0.82583 0.8899 0.08481 0.0
C444 C 0.79008 0.90804 0.08571 0.0
C445 C 0.76469 0.90635 0.06383 0.0
C446 C 0.77645 0.88573 0.04113 0.0
C447 C 0.81096 0.86322 0.04221 0.0
C448 C 0.83529 0.86561 0.06438 0.0
Zn449 Zn 0.87344 0.91399 0.10447 0.0
C450 C 0.93598 0.85337 0.11725 0.0
N451 N 0.97608 0.96773 0.1372 0.0
C452 C 0.9838 0.00242 0.12477 0.0
C453 C -0.00039 0.95442 0.15708 0.0
C454 C 0.03264 0.9764 0.16486 0.0
C455 C 0.04053 0.01246 0.15231 0.0
C456 C 0.01554 0.02538 0.1322 0.0
Zn457 Zn 0.9284 0.93862 0.12216 0.0
O458 O 0.90029 0.9234 0.06608 0.0
C459 C 0.86572 -0.00161 0.10819 0.0
O460 O 0.95261 0.94663 0.08559 0.0
H461 H 0.99319 0.9266 0.16653 0.0
H462 H 0.78311 0.92751 0.10197 0.0
H463 H 0.9659 0.01224 0.10843 0.0
O464 O 0.84705 0.96844 0.10044 0.0
O465 O 0.89923 0.9941 0.1188 0.0
H466 H 0.86397 0.85196 0.06369 0.0
O467 O 0.90436 0.93092 0.15933 0.0
O468 O 0.84789 0.90843 0.14379 0.0
O469 O 0.95615 0.883 0.12467 0.0
O470 O 0.90115 0.85831 0.10857 0.0
C471 C 0.86973 0.91834 0.16334 0.0
H472 H 0.73823 0.92405 0.06369 0.0
H473 H 0.82079 0.8467 0.02511 0.0
H474 H 0.05183 0.96537 0.18026 0.0
H475 H 0.02136 0.05239 0.1215 0.0
C476 C 0.30552 0.69647 0.8118 0.0
N477 N 0.3562 0.58802 0.83292 0.0
C478 C 0.34003 0.55146 0.8355 0.0
C479 C 0.34172 0.5245 0.81448 0.0
C480 C 0.36011 0.53551 0.79075 0.0
C481 C 0.38053 0.57143 0.78995 0.0
C482 C 0.37841 0.59726 0.81141 0.0
Zn483 Zn 0.33074 0.63516 0.85239 0.0
C484 C 0.38695 0.69992 0.86695 0.0
N485 N 0.27068 0.73347 0.88467 0.0
C486 C 0.23878 0.74572 0.87071 0.0
C487 C 0.28056 0.75031 0.90817 0.0
C488 C 0.25812 0.78133 0.91823 0.0
C489 C 0.22562 0.79519 0.90373 0.0
C490 C 0.21614 0.77677 0.87971 0.0
Zn491 Zn 0.30086 0.68802 0.8687 0.0
O492 O 0.32209 0.663 0.81367 0.0
C493 C 0.24515 0.62458 0.85255 0.0
O494 O 0.2955 0.71409 0.83265 0.0
H495 H 0.30585 0.73979 0.91904 0.0
H496 H 0.322 0.54475 0.85254 0.0
H497 H 0.23095 0.73169 0.85226 0.0
O498 O 0.27689 0.6071 0.84713 0.0
O499 O 0.24644 0.65877 0.86254 0.0
H500 H 0.39066 0.6265 0.8095 0.0
O501 O 0.30588 0.66279 0.90535 0.0
O502 O 0.33557 0.60882 0.89224 0.0
O503 O 0.35516 0.71679 0.87382 0.0
O504 O 0.38582 0.66506 0.85758 0.0
C505 C 0.3211 0.62985 0.9109 0.0
H506 H 0.32565 0.49705 0.81585 0.0
H507 H 0.39544 0.58077 0.77207 0.0
H508 H 0.26634 0.79447 0.93695 0.0
H509 H 0.19218 0.78693 0.86739 0.0
C510 C 0.56383 0.05017 0.56223 0.0
N511 N 0.67216 0.10096 0.58254 0.0
C512 C 0.68075 0.07812 0.56114 0.0
C513 C 0.71345 0.08536 0.5456 0.0
C514 C 0.73919 0.11611 0.55196 0.0
C515 C 0.7303 0.13938 0.57437 0.0
C516 C 0.6964 0.13121 0.58951 0.0
Zn517 Zn 0.62211 0.08072 0.60195 0.0
C518 C 0.55912 0.14039 0.61137 0.0
N519 N 0.52019 0.02483 0.63496 0.0
C520 C 0.5152 0.98836 0.62422 0.0
C521 C 0.49369 0.03957 0.65256 0.0
C522 C 0.46047 0.01727 0.65962 0.0
C523 C 0.45533 0.97946 0.64877 0.0
C524 C 0.48337 0.96512 0.63107 0.0
Zn525 Zn 0.56854 0.05377 0.62017 0.0
O526 O 0.59541 0.07009 0.5634 0.0
C527 C 0.63381 0.99642 0.61095 0.0
O528 O 0.54709 0.04046 0.58345 0.0
H529 H 0.49783 0.06877 0.66063 0.0
H530 H 0.66235 0.05347 0.55586 0.0
H531 H 0.53528 0.97729 0.60948 0.0
O532 O 0.6491 0.0266 0.60093 0.0
O533 O 0.59992 -0.00149 0.62124 0.0
H534 H 0.68967 0.1488 0.60676 0.0
O535 O 0.58975 0.06649 0.65735 0.0
O536 O 0.64635 0.08807 0.64151 0.0
O537 O 0.53964 0.11012 0.61878 0.0
O538 O 0.5947 0.13648 0.60375 0.0
C539 C 0.62434 0.07934 0.66121 0.0
H540 H 0.71767 0.06723 0.52822 0.0
H541 H 0.74923 0.16352 0.58016 0.0
H542 H 0.43897 0.02944 0.67313 0.0
H543 H 0.47984 0.93671 0.62161 0.0
H544 H 0.24344 0.24969 0.19917 0.0
H545 H 0.31018 0.16205 0.24174 0.0
H546 H 0.28409 0.18735 0.28364 0.0
H547 H 0.24322 0.23469 0.30773 0.0
H548 H 0.17725 0.32258 0.26484 0.0
H549 H 0.2021 0.29615 0.22304 0.0
C550 C 0.25249 0.236 0.21757 0.0
C551 C 0.27895 0.20407 0.21735 0.0
C552 C 0.23734 0.25053 0.24135 0.0
C553 C 0.29005 0.18672 0.24139 0.0
C554 C 0.27505 0.20112 0.26529 0.0
C555 C 0.23399 0.24802 0.28925 0.0
C556 C 0.20831 0.28061 0.28938 0.0
C557 C 0.24874 0.23302 0.26544 0.0
C558 C 0.19683 0.29747 0.26527 0.0
C559 C 0.21115 0.28246 0.24142 0.0
H560 H 0.50724 0.476 0.55878 0.0
H561 H 0.41458 0.42208 0.51271 0.0
H562 H 0.44007 0.45388 0.47279 0.0
H563 H 0.48676 0.49835 0.45168 0.0
H564 H 0.57913 0.55304 0.49758 0.0
H565 H 0.55482 0.5198 0.5374 0.0
C566 C 0.49271 0.4708 0.53998 0.0
C567 C 0.459 0.44655 0.53871 0.0
C568 C 0.50701 0.48975 0.51734 0.0
C569 C 0.44062 0.44035 0.5142 0.0
C570 C 0.45502 0.45875 0.49146 0.0
C571 C 0.50163 0.50332 0.47038 0.0
C572 C 0.53463 0.52848 0.4717 0.0
C573 C 0.48782 0.48388 0.49293 0.0
C574 C 0.55355 0.53414 0.49608 0.0
C575 C 0.53978 0.51497 0.51877 0.0
H576 H 0.24355 0.73779 0.69792 0.0
H577 H 0.19168 0.83458 0.74096 0.0
H578 H 0.22323 0.8114 0.78165 0.0
H579 H 0.26471 0.7638 0.80457 0.0
H580 H 0.31552 0.6662 0.76178 0.0
H581 H 0.28576 0.69057 0.72079 0.0
C582 C 0.23887 0.75387 0.71619 0.0
C583 C 0.215 0.78784 0.71644 0.0
C584 C 0.25734 0.74063 0.73928 0.0
C585 C 0.20957 0.80825 0.74028 0.0
C586 C 0.22781 0.79514 0.76345 0.0
C587 C 0.26973 0.74789 0.78628 0.0
C588 C 0.29247 0.71315 0.78624 0.0
C589 C 0.25179 0.76147 0.7631 0.0
C590 C 0.29842 0.69305 0.76233 0.0
C591 C 0.28114 0.70682 0.73898 0.0
H592 H 0.92749 0.48905 0.98271 0.0
H593 H 0.03106 0.42096 0.96523 0.0
H594 H 0.0688 0.45862 0.99786 0.0
H595 H 0.0723 0.51178 0.0309 0.0
H596 H 0.96868 0.57996 0.04806 0.0
H597 H 0.93124 0.54271 0.01514 0.0
C598 C 0.95801 0.4818 0.98669 0.0
C599 C 0.97635 0.45171 0.97231 0.0
C600 C 0.97982 0.50469 0.00453 0.0
C601 C 0.01628 0.44346 0.9767 0.0
C602 C 0.03795 0.46538 0.99496 0.0
C603 C 0.0419 0.51921 0.02671 0.0
C604 C 0.02336 0.54905 0.04122 0.0
C605 C 0.02021 0.49655 0.00863 0.0
C606 C 0.98359 0.55761 0.03652 0.0
C607 C 0.96206 0.53591 0.0181 0.0
H608 H 0.70198 0.81331 0.76234 0.0
H609 H 0.69578 0.70519 0.80684 0.0
H610 H 0.72823 0.66985 0.77112 0.0
H611 H 0.76232 0.67019 0.72833 0.0
H612 H 0.76709 0.77742 0.68296 0.0
H613 H 0.73197 0.81255 0.71789 0.0
C614 C 0.70689 0.78186 0.76388 0.0
C615 C 0.69659 0.76197 0.78719 0.0
C616 C 0.72625 0.76167 0.74336 0.0
C617 C 0.70354 0.72124 0.78907 0.0
C618 C 0.72239 0.70099 0.76875 0.0
C619 C 0.75593 0.70131 0.72628 0.0
C620 C 0.76778 0.72137 0.70343 0.0
C621 C 0.73482 0.72108 0.74611 0.0
C622 C 0.75851 0.76147 0.7006 0.0
C623 C 0.73825 0.78154 0.72047 0.0
H624 H 0.73463 0.22729 0.2034 0.0
H625 H 0.66873 0.311 0.25003 0.0
H626 H 0.70066 0.28696 0.29014 0.0
H627 H 0.74946 0.24559 0.31126 0.0
H628 H 0.81589 0.16137 0.2655 0.0
H629 H 0.78176 0.18304 0.22524 0.0
C630 C 0.72678 0.23996 0.22238 0.0
C631 C 0.69935 0.27103 0.22373 0.0
C632 C 0.74585 0.22658 0.24525 0.0
C633 C 0.68959 0.28704 0.24845 0.0
C634 C 0.70808 0.27355 0.27134 0.0
C635 C 0.75686 0.23196 0.29251 0.0
C636 C 0.78573 0.20229 0.29129 0.0
C637 C 0.7368 0.244 0.26982 0.0
C638 C 0.79419 0.18458 0.26687 0.0
C639 C 0.77452 0.19681 0.24395 0.0
H640 H 0.00244 0.97867 0.05805 0.0
H641 H 0.90038 0.93725 0.01524 0.0
H642 H 0.92268 0.97267 0.97584 0.0
H643 H 0.97008 0.01604 0.95428 0.0
H644 H 0.07251 0.05686 0.99694 0.0
H645 H 0.04991 0.02192 0.03646 0.0
C646 C 0.98513 0.97693 0.04005 0.0
C647 C 0.9498 0.95513 0.03954 0.0
C648 C -0.0024 -0.00199 0.01783 0.0
C649 C 0.9278 0.95347 0.01607 0.0
C650 C 0.94033 0.97405 0.99368 0.0
C651 C 0.98739 0.0178 0.97228 0.0
C652 C 0.02291 0.0393 0.97271 0.0
C653 C 0.97489 0.99676 0.99451 0.0
C654 C 0.04494 0.0409 0.99617 0.0
C655 C 0.03224 0.02058 0.01863 0.0
H656 H 0.51947 0.98775 0.44869 0.0
H657 H 0.43162 0.92581 0.49436 0.0
H658 H 0.45734 0.95545 0.53491 0.0
H659 H 0.50258 0.0004 0.5568 0.0
H660 H 0.59051 0.06287 0.51157 0.0
H661 H 0.56604 0.03188 0.47093 0.0
C662 C 0.50614 0.98031 0.46753 0.0
C663 C 0.47366 0.95449 0.46852 0.0
C664 C 0.52053 -0.00196 0.49061 0.0
C665 C 0.45673 0.94536 0.49308 0.0
C666 C 0.47123 0.96254 0.51621 0.0
C667 C 0.51641 0.00758 0.53807 0.0
C668 C 0.54816 0.03427 0.53716 0.0
C669 C 0.50266 0.98932 0.51508 0.0
C670 C 0.56583 0.04276 0.51274 0.0
C671 C 0.55201 0.02486 0.48959 0.0
H672 H 0.27024 0.14492 0.97838 0.0
H673 H 0.25111 0.02081 0.99145 0.0
H674 H 0.28986 0.02369 0.03176 0.0
H675 H 0.31841 0.06459 0.06778 0.0
H676 H 0.34413 0.18644 0.05179 0.0
H677 H 0.31561 0.18055 0.00781 0.0
C678 C 0.27541 0.1181 0.98941 0.0
C679 C 0.25528 0.08334 0.98245 0.0
C680 C 0.2992 0.11942 0.01232 0.0
C681 C 0.26373 0.04885 0.99704 0.0
C682 C 0.28647 0.05021 0.02009 0.0
C683 C 0.31961 0.08924 0.0542 0.0
C684 C 0.3327 0.12608 0.06333 0.0
C685 C 0.30273 0.08582 0.0287 0.0
C686 C 0.33385 0.15778 0.04537 0.0
C687 C 0.31704 0.15463 0.02025 0.0
H688 H 0.67855 0.56701 0.32622 0.0
H689 H 0.56163 0.6077 0.30829 0.0
H690 H 0.56575 0.5795 0.26409 0.0
H691 H 0.59618 0.52928 0.23536 0.0
H692 H 0.71523 0.49268 0.25157 0.0
H693 H 0.71667 0.53326 0.29119 0.0
C694 C 0.65491 0.57161 0.31214 0.0
C695 C 0.6196 0.58876 0.32072 0.0
C696 C 0.65714 0.55456 0.2867 0.0
C697 C 0.58909 0.5943 0.3022 0.0
C698 C 0.59115 0.57763 0.27698 0.0
C699 C 0.62292 0.53117 0.24697 0.0
C700 C 0.65463 0.50607 0.24119 0.0
C701 C 0.62401 0.55539 0.26968 0.0
C702 C 0.6894 0.50993 0.25629 0.0
C703 C 0.69048 0.53344 0.27895 0.0
H704 H 0.17755 0.93077 0.56881 0.0
H705 H 0.14376 0.81113 0.55202 0.0
H706 H 0.17255 0.81568 0.50804 0.0
H707 H 0.22071 0.84849 0.47899 0.0
H708 H 0.24896 0.97049 0.49341 0.0
H709 H 0.20914 0.97002 0.53329 0.0
C710 C 0.17461 0.90647 0.55503 0.0
C711 C 0.15915 0.87047 0.56391 0.0
C712 C 0.1918 0.90904 0.52962 0.0
C713 C 0.15581 0.83915 0.54574 0.0
C714 C 0.17281 0.84149 0.52064 0.0
C715 C 0.21726 0.8754 0.49026 0.0
C716 C 0.24004 0.90867 0.48385 0.0
C717 C 0.1931 0.87548 0.51301 0.0
C718 C 0.23393 0.94348 0.49861 0.0
C719 C 0.21071 0.94351 0.52142 0.0
H720 H 0.81562 0.52578 0.76239 0.0
H721 H 0.91659 0.4782 0.72112 0.0
H722 H 0.92917 0.43476 0.75836 0.0
H723 H 0.91493 0.41449 0.80428 0.0
H724 H 0.81101 0.45821 0.84321 0.0
H725 H 0.79441 0.49667 0.80389 0.0
C726 C 0.83964 0.50517 0.76054 0.0
C727 C 0.86521 0.50635 0.73837 0.0
C728 C 0.84579 0.47877 0.78153 0.0
C729 C 0.89684 0.47956 0.73784 0.0
C730 C 0.90383 0.45404 0.7591 0.0
C731 C 0.88782 0.43128 0.80375 0.0
C732 C 0.86417 0.43347 0.82664 0.0
C733 C 0.87891 0.45392 0.78123 0.0
C734 C 0.82934 0.4555 0.82578 0.0
C735 C 0.82029 0.47811 0.80345 0.0
H736 H 0.69944 0.87324 0.02664 0.0
H737 H 0.81115 0.91479 0.99748 0.0
H738 H 0.78397 0.92128 0.95306 0.0
H739 H 0.73203 0.90551 0.9214 0.0
H740 H 0.62231 0.85755 0.94878 0.0
H741 H 0.6441 0.86444 0.99486 0.0
C742 C 0.71746 0.88424 0.01056 0.0
C743 C 0.7574 0.8928 0.01514 0.0
C744 C 0.70178 0.88708 0.98475 0.0
C745 C 0.78054 0.90723 0.99424 0.0
C746 C 0.76498 0.91117 0.96888 0.0
C747 C 0.71224 0.89844 0.93758 0.0
C748 C 0.67529 0.88214 0.93188 0.0
C749 C 0.72606 0.90004 0.96373 0.0
C750 C 0.6504 0.87138 0.95283 0.0
C751 C 0.66324 0.87456 0.97913 0.0
H752 H 0.37387 0.45724 0.78053 0.0
H753 H 0.32999 0.56391 0.74518 0.0
H754 H 0.32136 0.53027 0.70292 0.0
H755 H 0.33433 0.47339 0.67457 0.0
H756 H 0.38585 0.36907 0.70784 0.0
H757 H 0.38209 0.39786 0.7523 0.0
C758 C 0.36203 0.47283 0.7636 0.0
C759 C 0.3532 0.51316 0.76584 0.0
C760 C 0.35802 0.45342 0.73901 0.0
C761 C 0.33777 0.53307 0.74378 0.0
C762 C 0.33255 0.51379 0.71966 0.0
C763 C 0.34294 0.45632 0.69176 0.0
C764 C 0.35911 0.41871 0.68813 0.0
C765 C 0.34344 0.47426 0.71684 0.0
C766 C 0.37209 0.39756 0.71034 0.0
C767 C 0.37066 0.41438 0.73567 0.0
H768 H 0.83608 0.18267 0.45768 0.0
H769 H 0.83983 0.05933 0.43771 0.0
H770 H 0.81751 0.04272 0.4825 0.0
H771 H 0.78413 0.06416 0.52325 0.0
H772 H 0.76946 0.18841 0.53856 0.0
H773 H 0.8101 0.2037 0.5003 0.0
C774 C 0.83291 0.15201 0.46328 0.0
C775 C 0.8388 0.12225 0.4442 0.0
C776 C 0.81753 0.14298 0.48825 0.0
C777 C 0.8354 0.08276 0.45193 0.0
C778 C 0.82213 0.07335 0.47745 0.0
C779 C 0.78982 0.09468 0.51833 0.0
C780 C 0.77235 0.12509 0.53345 0.0
C781 C 0.81091 0.10336 0.49514 0.0
C782 C 0.78201 0.16429 0.52743 0.0
C783 C 0.80497 0.1731 0.50527 0.0
H784 H 0.18048 0.51244 0.26873 0.0
H785 H 0.0565 0.50612 0.28736 0.0
H786 H 0.04195 0.54845 0.24985 0.0
H787 H 0.06232 0.57547 0.20748 0.0
H788 H 0.1842 0.571 0.18387 0.0
H789 H 0.20172 0.54474 0.22755 0.0
C790 C 0.15015 0.52002 0.26462 0.0
C791 C 0.11953 0.50468 0.28063 0.0
C792 C 0.14162 0.54216 0.24185 0.0
C793 C 0.08078 0.517 0.27561 0.0
C794 C 0.07234 0.54097 0.25388 0.0
C795 C 0.09295 0.56943 0.21194 0.0
C796 C 0.12187 0.57447 0.19217 0.0
C797 C 0.10226 0.55196 0.23622 0.0
C798 C 0.16137 0.56731 0.1986 0.0
C799 C 0.17126 0.55186 0.22348 0.0
H800 H 0.78252 0.57573 0.58177 0.0
H801 H 0.88121 0.63448 0.54608 0.0
H802 H 0.84953 0.6304 0.50263 0.0
H803 H 0.78782 0.6224 0.4768 0.0
H804 H 0.68639 0.57142 0.51487 0.0
H805 H 0.72436 0.56069 0.55514 0.0
C806 C 0.79801 0.58563 0.56422 0.0
C807 C 0.83456 0.6046 0.56707 0.0
C808 C 0.77803 0.58636 0.53982 0.0
C809 C 0.85359 0.61876 0.54429 0.0
C810 C 0.83495 0.61735 0.51954 0.0
C811 C 0.77431 0.6085 0.49383 0.0
C812 C 0.73408 0.59851 0.493 0.0
C813 C 0.79619 0.60329 0.51736 0.0
C814 C 0.717 0.58032 0.5152 0.0
C815 C 0.73879 0.57389 0.53821 0.0
H816 H 0.05779 0.05928 0.80698 0.0
H817 H 0.18096 0.06737 0.82707 0.0
H818 H 0.19811 0.04375 0.78256 0.0
H819 H 0.17751 0.01286 0.7406 0.0
H820 H 0.05347 0.99421 0.72555 0.0
H821 H 0.0375 0.03137 0.76501 0.0
C822 C 0.08858 0.05639 0.80172 0.0
C823 C 0.11809 0.06462 0.82066 0.0
C824 C 0.098 0.04067 0.77689 0.0
C825 C 0.15765 0.06127 0.81305 0.0
C826 C 0.16737 0.0474 0.78765 0.0
C827 C 0.14686 0.01623 0.74591 0.0
C828 C 0.1169 -0.0007 0.72992 0.0
C829 C 0.1377 0.03548 0.76984 0.0
C830 C 0.07748 0.00654 0.73689 0.0
C831 C 0.06819 0.02754 0.75982 0.0
H832 H 0.65377 0.34453 0.05708 0.0
H833 H 0.70443 0.44277 0.09897 0.0
H834 H 0.74243 0.46053 0.05968 0.0
H835 H 0.76976 0.44048 0.0173 0.0
H836 H 0.71617 0.3448 0.97353 0.0
H837 H 0.67204 0.33264 0.0105 0.0
C838 C 0.6719 0.37082 0.05721 0.0
C839 C 0.67628 0.39234 0.08092 0.0
C840 C 0.69445 0.38019 0.03474 0.0
C841 C 0.70004 0.42611 0.08092 0.0
C842 C 0.72241 0.43574 0.05858 0.0
C843 C 0.74772 0.41782 0.0149 0.0
C844 C 0.74743 0.39335 0.99214 0.0
C845 C 0.72117 0.41185 0.03585 0.0
C846 C 0.71866 0.36351 0.99076 0.0
C847 C 0.69279 0.35679 0.01187 0.0
H848 H 0.37425 0.963 0.22843 0.0
H849 H 0.33708 0.07406 0.26127 0.0
H850 H 0.3288 0.0438 0.30458 0.0
H851 H 0.34025 0.98831 0.33446 0.0
H852 H 0.3836 0.87887 0.30341 0.0
H853 H 0.3798 0.905 0.25824 0.0
C854 C 0.36392 0.98036 0.24503 0.0
C855 C 0.35716 0.02099 0.24167 0.0
C856 C 0.35975 0.96278 0.27025 0.0
C857 C 0.34357 0.04302 0.2634 0.0
C858 C 0.33845 0.02565 0.28818 0.0
C859 C 0.34694 0.9696 0.31764 0.0
C860 C 0.36085 0.93127 0.32215 0.0
C861 C 0.34733 0.98583 0.29202 0.0
C862 C 0.37143 0.90795 0.30033 0.0
C863 C 0.37007 0.92325 0.27455 0.0
H864 H 0.22344 0.43585 0.51822 0.0
H865 H 0.22663 0.31171 0.53664 0.0
H866 H 0.18615 0.29785 0.49808 0.0
H867 H 0.16288 0.31867 0.45468 0.0
H868 H 0.16925 0.44075 0.43204 0.0
H869 H 0.19254 0.45784 0.47661 0.0
C870 C 0.21528 0.40569 0.51392 0.0
C871 C 0.22939 0.37476 0.53014 0.0
C872 C 0.19395 0.39756 0.49068 0.0
C873 C 0.21664 0.33621 0.52476 0.0
C874 C 0.19373 0.32816 0.50243 0.0
C875 C 0.16833 0.34925 0.45971 0.0
C876 C 0.16493 0.37838 0.43998 0.0
C877 C 0.1841 0.35829 0.4846 0.0
C878 C 0.17152 0.41784 0.44684 0.0
C879 C 0.18542 0.42744 0.47222 0.0
H880 H 0.82378 0.97656 0.18015 0.0
H881 H 0.88693 0.87441 0.20667 0.0
H882 H 0.88552 0.89891 0.25229 0.0
H883 H 0.87685 0.95545 0.28292 0.0
H884 H 0.82046 0.06057 0.25421 0.0
H885 H 0.80871 0.02939 0.21141 0.0
C886 C 0.83541 0.95884 0.1962 0.0
C887 C 0.85443 0.9233 0.19031 0.0
C888 C 0.83695 0.97451 0.22191 0.0
C889 C 0.87109 0.9013 0.21097 0.0
C890 C 0.87096 0.91573 0.23695 0.0
C891 C 0.86146 0.97108 0.26735 0.0
C892 C 0.85005 0.01036 0.27145 0.0
C893 C 0.85571 0.95324 0.24242 0.0
C894 C 0.83006 0.03049 0.25125 0.0
C895 C 0.82318 0.01264 0.22683 0.0
H896 H 0.26019 0.55568 0.01674 0.0
H897 H 0.24978 0.67953 0.03526 0.0
H898 H 0.28828 0.69572 0.99639 0.0
H899 H 0.31461 0.67637 0.95361 0.0
H900 H 0.31704 0.55409 0.9309 0.0
H901 H 0.29207 0.53571 0.97485 0.0
C902 C 0.26609 0.58631 0.01237 0.0
C903 C 0.25092 0.61628 0.02904 0.0
C904 C 0.28663 0.59576 0.98897 0.0
C905 C 0.26081 0.65558 0.02329 0.0
C906 C 0.2826 0.66501 1.00074 0.0
C907 C 0.3104 0.64551 0.95837 0.0
C908 C 0.31722 0.61664 0.93882 0.0
C909 C 0.29417 0.63553 0.98296 0.0
C910 C 0.31218 0.57688 0.94552 0.0
C911 C 0.29742 0.56649 0.97056 0.0
H912 H 0.67194 0.02107 0.67465 0.0
H913 H 0.60685 0.11835 0.70678 0.0
H914 H 0.60811 0.08791 0.75074 0.0
H915 H 0.61697 0.02757 0.77775 0.0
H916 H 0.6739 0.92693 0.7428 0.0
H917 H 0.68618 0.96399 0.7023 0.0
C918 C 0.65988 0.03646 0.69163 0.0
C919 C 0.64033 0.07231 0.68776 0.0
C920 C 0.65777 0.01715 0.71613 0.0
C921 C 0.62312 0.09128 0.70955 0.0
C922 C 0.62308 0.0734 0.73453 0.0
C923 C 0.63244 0.01411 0.76132 0.0
C924 C 0.64387 0.97442 0.76298 0.0
C925 C 0.63848 0.03537 0.73771 0.0
C926 C 0.66407 0.95719 0.74168 0.0
C927 C 0.67139 0.97845 0.71862 0.0
H928 H 0.45801 0.1806 0.14579 0.0
H929 H 0.38966 0.28731 0.14372 0.0
H930 H 0.45006 0.3266 0.14606 0.0
H931 H 0.52311 0.33047 0.14872 0.0
H932 H 0.58988 0.22249 0.14838 0.0
H933 H 0.52958 0.18424 0.14703 0.0
C934 C 0.45623 0.21246 0.14588 0.0
C935 C 0.41931 0.2309 0.1447 0.0
C936 C 0.491 0.2348 0.14681 0.0
C937 C 0.4177 0.27228 0.14457 0.0
C938 C 0.45226 0.2948 0.14597 0.0
C939 C 0.52434 0.2986 0.14838 0.0
C940 C 0.56111 0.27952 0.14865 0.0
C941 C 0.4892 0.27639 0.14712 0.0
C942 C 0.56214 0.23812 0.14801 0.0
C943 C 0.52759 0.21606 0.14731 0.0
H944 H 0.56536 0.71278 0.39875 0.0
H945 H 0.45777 0.64569 0.40181 0.0
H946 H 0.41924 0.70636 0.40114 0.0
H947 H 0.41605 0.77912 0.39891 0.0
H948 H 0.5244 0.84495 0.39304 0.0
H949 H 0.56226 0.78457 0.39548 0.0
C950 C 0.5335 0.71148 0.39944 0.0
C951 C 0.51453 0.67483 0.40046 0.0
C952 C 0.51147 0.74642 0.39838 0.0
C953 C 0.47315 0.67359 0.40098 0.0
C954 C 0.45104 0.70829 0.4006 0.0
C955 C 0.4479 0.78015 0.39816 0.0
C956 C 0.46717 0.81661 0.39572 0.0
C957 C 0.46985 0.74497 0.39914 0.0
C958 C 0.50858 0.81737 0.39468 0.0
C959 C 0.53044 0.78279 0.39618 0.0
H960 H 0.96231 0.67413 0.64743 0.0
H961 H 0.89669 0.78245 0.64331 0.0
H962 H 0.9578 0.82029 0.64479 0.0
H963 H 0.03028 0.82282 0.64603 0.0
H964 H 0.09606 0.71441 0.64685 0.0
H965 H 0.03488 0.67666 0.64789 0.0
C966 C 0.96141 0.70602 0.64706 0.0
C967 C 0.92489 0.72538 0.6454 0.0
C968 C 0.99684 0.72768 0.6472 0.0
C969 C 0.92433 0.76674 0.64455 0.0
C970 C 0.95931 0.78845 0.64541 0.0
C971 C 0.03122 0.79094 0.64657 0.0
C972 C 0.06781 0.77156 0.64645 0.0
C973 C 0.9958 0.76928 0.64655 0.0
C974 C 0.06838 0.73017 0.64685 0.0
C975 C 0.03336 0.70849 0.64749 0.0
H976 H 0.01608 0.32471 0.89598 0.0
H977 H 0.897 0.28203 0.90313 0.0
H978 H 0.92093 0.21409 0.90269 0.0
H979 H 0.97576 0.16702 0.90029 0.0
H980 H 0.09505 0.21006 0.89617 0.0
H981 H 0.07096 0.27785 0.89545 0.0
C982 C 0.99533 0.30052 0.89733 0.0
C983 C 0.95478 0.30832 0.89932 0.0
C984 C 0.00936 0.26171 0.89765 0.0
C985 C 0.92832 0.27674 0.90154 0.0
C986 C 0.942 0.23794 0.90125 0.0
C987 C 0.99648 0.19126 0.89914 0.0
C988 C 0.03714 0.18357 0.89806 0.0
C989 C 0.98244 0.2301 0.8993 0.0
C990 C 0.06365 0.21524 0.89702 0.0
C991 C 0.04988 0.25396 0.89655 0.0
H992 H 0.53105 0.81726 0.86552 0.0
H993 H 0.59511 0.70831 0.87252 0.0
H994 H 0.53341 0.67144 0.8734 0.0
H995 H 0.46104 0.66993 0.87063 0.0
H996 H 0.39702 0.77924 0.86647 0.0
H997 H 0.45869 0.81608 0.86612 0.0
C998 C 0.53144 0.78547 0.86736 0.0
C999 C 0.56757 0.76555 0.86878 0.0
C1000 C 0.49582 0.76446 0.8683 0.0
C1001 C 0.56766 0.72437 0.87146 0.0
C1002 C 0.53239 0.70323 0.87186 0.0
C1003 C 0.46067 0.70181 0.86975 0.0
C1004 C 0.42455 0.72179 0.8684 0.0
C1005 C 0.49628 0.72292 0.87005 0.0
C1006 C 0.42445 0.76314 0.86759 0.0
C1007 C 0.45971 0.78426 0.8673 0.0
H1008 H 0.51284 0.32034 0.61386 0.0
H1009 H 0.39586 0.27133 0.6105 0.0
H1010 H 0.42328 0.20475 0.61074 0.0
H1011 H 0.48093 0.16023 0.61163 0.0
H1012 H 0.5976 0.21044 0.61253 0.0
H1013 H 0.56989 0.27647 0.61357 0.0
C1014 C 0.49328 0.29512 0.61326 0.0
C1015 C 0.45233 0.3009 0.61229 0.0
C1016 C 0.50925 0.25698 0.61294 0.0
C1017 C 0.4275 0.26779 0.61122 0.0
C1018 C 0.44317 0.22967 0.6114 0.0
C1019 C 0.50023 0.18565 0.61213 0.0
C1020 C 0.54132 0.18027 0.61206 0.0
C1021 C 0.48405 0.22386 0.61223 0.0
C1022 C 0.5659 0.2136 0.61246 0.0
C1023 C 0.55008 0.25147 0.6131 0.0
H1024 H 0.03424 0.32076 0.36139 0.0
H1025 H 0.10213 0.214 0.36781 0.0
H1026 H 0.04179 0.17492 0.36743 0.0
H1027 H 0.96946 0.17115 0.36548 0.0
H1028 H 0.90208 0.2785 0.36145 0.0
H1029 H 0.96244 0.31718 0.36057 0.0
C1030 C 0.03583 0.28894 0.36267 0.0
C1031 C 0.07251 0.27031 0.36455 0.0
C1032 C 0.0011 0.26671 0.36283 0.0
C1033 C 0.07414 0.22907 0.36644 0.0
C1034 C 0.03969 0.20667 0.36615 0.0
C1035 C 0.96812 0.20298 0.36429 0.0
C1036 C 0.93149 0.22194 0.36346 0.0
C1037 C 0.00298 0.22518 0.36434 0.0
C1038 C 0.93001 0.26323 0.36222 0.0
C1039 C 0.96448 0.2854 0.36168 0.0
H1040 H 0.97665 0.67293 0.12029 0.0
H1041 H 0.09468 0.71794 0.11196 0.0
H1042 H 0.06941 0.78546 0.11293 0.0
H1043 H 0.01322 0.83162 0.11563 0.0
H1044 H 0.89537 0.78502 0.12124 0.0
H1045 H 0.92118 0.71817 0.12202 0.0
C1046 C -0.00305 0.69748 0.1188 0.0
C1047 C 0.0375 0.69045 0.11622 0.0
C1048 C 0.98221 0.73594 0.11891 0.0
C1049 C 0.06331 0.7226 0.11394 0.0
C1050 C 0.04888 0.76118 0.11455 0.0
C1051 C 0.99331 0.80678 0.11719 0.0
C1052 C 0.95246 0.81323 0.11849 0.0
C1053 C 0.00833 0.76821 0.117 0.0
C1054 C 0.92691 0.78081 0.12015 0.0
C1055 C 0.94163 0.74258 0.12062 0.0
H1056 H 0.16444 0.32636 0.13503 0.0
H1057 H 0.2294 0.34992 0.0632 0.0
H1058 H 0.19669 0.41347 0.05926 0.0
H1059 H 0.1521 0.46349 0.07751 0.0
H1060 H 0.08347 0.43699 0.14704 0.0
H1061 H 0.11418 0.37208 0.14988 0.0
C1062 C 0.17079 0.34455 0.11796 0.0
C1063 C 0.19969 0.33311 0.09952 0.0
C1064 C 0.15112 0.38041 0.11537 0.0
C1065 C 0.20801 0.35812 0.07806 0.0
C1066 C 0.18908 0.39437 0.07565 0.0
C1067 C 0.14365 0.44324 0.09311 0.0
C1068 C 0.11605 0.45486 0.11224 0.0
C1069 C 0.16107 0.40602 0.09443 0.0
C1070 C 0.10471 0.42846 0.13213 0.0
C1071 C 0.12239 0.39155 0.13383 0.0
H1072 H 0.32241 0.34939 0.34968 0.0
H1073 H 0.25169 0.4533 0.36122 0.0
H1074 H 0.30885 0.4951 0.35379 0.0
H1075 H 0.37957 0.50181 0.34815 0.0
H1076 H 0.45128 0.39868 0.33694 0.0
H1077 H 0.39281 0.35672 0.33907 0.0
C1078 C 0.31979 0.38116 0.35068 0.0
C1079 C 0.28343 0.3984 0.35651 0.0
C1080 C 0.35262 0.40506 0.34594 0.0
C1081 C 0.27975 0.43954 0.35707 0.0
C1082 C 0.31225 0.46344 0.35266 0.0
C1083 C 0.38217 0.4703 0.34518 0.0
C1084 C 0.41935 0.45318 0.34252 0.0
C1085 C 0.34887 0.4465 0.3474 0.0
C1086 C 0.42265 0.41228 0.33906 0.0
C1087 C 0.38941 0.38833 0.34062 0.0
H1088 H 0.33342 0.67143 0.60227 0.0
H1089 H 0.21766 0.62095 0.59172 0.0
H1090 H 0.24606 0.55529 0.59164 0.0
H1091 H 0.30236 0.51208 0.59948 0.0
H1092 H 0.41633 0.56225 0.61636 0.0
H1093 H 0.38948 0.62845 0.61056 0.0
C1094 C 0.31417 0.64616 0.60022 0.0
C1095 C 0.27327 0.6514 0.59747 0.0
C1096 C 0.33022 0.60842 0.60207 0.0
C1097 C 0.24924 0.61815 0.59364 0.0
C1098 C 0.26537 0.58044 0.59402 0.0
C1099 C 0.32132 0.53754 0.60187 0.0
C1100 C 0.36114 0.53251 0.60848 0.0
C1101 C 0.30557 0.57528 0.59906 0.0
C1102 C 0.38544 0.56557 0.6116 0.0
C1103 C 0.3702 0.6033 0.60807 0.0
H1104 H 0.07178 0.56454 0.84274 0.0
H1105 H 0.13167 0.45352 0.83485 0.0
H1106 H 0.1949 0.4879 0.83141 0.0
H1107 H 0.2331 0.54827 0.83917 0.0
H1108 H 0.17251 0.65811 0.85266 0.0
H1109 H 0.10937 0.62537 0.84606 0.0
C1110 C 0.09869 0.54802 0.83963 0.0
C1111 C 0.09748 0.50673 0.8395 0.0
C1112 C 0.13472 0.56769 0.83961 0.0
C1113 C 0.1321 0.48538 0.835 0.0
C1114 C 0.1682 0.505 0.8335 0.0
C1115 C 0.20608 0.5651 0.84042 0.0
C1116 C 0.20731 0.60534 0.84693 0.0
C1117 C 0.16992 0.54593 0.83723 0.0
C1118 C 0.1722 0.62692 0.84821 0.0
C1119 C 0.13616 0.60831 0.84426 0.0
H1120 H 0.84766 0.68313 0.89972 0.0
H1121 H 0.74201 0.63315 0.93346 0.0
H1122 H 0.77505 0.57029 0.93864 0.0
H1123 H 0.82905 0.5274 0.92695 0.0
H1124 H 0.93251 0.57408 0.88855 0.0
H1125 H 0.90453 0.64047 0.89104 0.0
C1126 C 0.83185 0.65852 0.90828 0.0
C1127 C 0.79205 0.66273 0.91561 0.0
C1128 C 0.85021 0.62174 0.90969 0.0
C1129 C 0.77259 0.63098 0.92768 0.0
C1130 C 0.79129 0.59478 0.9303 0.0
C1131 C 0.84581 0.55201 0.91923 0.0
C1132 C 0.88249 0.54577 0.90707 0.0
C1133 C 0.82933 0.5895 0.92025 0.0
C1134 C 0.90397 0.57813 0.89766 0.0
C1135 C 0.88802 0.616 0.89914 0.0
H1136 H 0.72066 0.56789 0.66835 0.0
H1137 H 0.69822 0.61541 0.59058 0.0
H1138 H 0.64043 0.57294 0.58624 0.0
H1139 H 0.5956 0.52458 0.60515 0.0
H1140 H 0.61379 0.48186 0.68463 0.0
H1141 H 0.67552 0.519 0.68728 0.0
C1142 C 0.70312 0.56892 0.65042 0.0
C1143 C 0.71341 0.59482 0.62982 0.0
C1144 C 0.66973 0.54503 0.64831 0.0
C1145 C 0.69051 0.59601 0.60677 0.0
C1146 C 0.65771 0.5716 0.60424 0.0
C1147 C 0.61287 0.52358 0.62319 0.0
C1148 C 0.59976 0.50118 0.64491 0.0
C1149 C 0.64693 0.54638 0.625 0.0
C1150 C 0.62325 0.49891 0.66769 0.0
C1151 C 0.65823 0.52046 0.66929 0.0
H1152 H 0.67143 0.32286 0.40778 0.0
H1153 H 0.78696 0.37525 0.41231 0.0
H1154 H 0.75755 0.44082 0.41288 0.0
H1155 H 0.69926 0.48313 0.40712 0.0
H1156 H 0.58514 0.42921 0.39691 0.0
H1157 H 0.61399 0.36427 0.40235 0.0
C1158 C 0.69028 0.34859 0.40879 0.0
C1159 C 0.73131 0.34415 0.40953 0.0
C1160 C 0.67347 0.38593 0.4074 0.0
C1161 C 0.75522 0.37777 0.41185 0.0
C1162 C 0.73848 0.41529 0.41178 0.0
C1163 C 0.68083 0.45709 0.40608 0.0
C1164 C 0.6403 0.46082 0.40133 0.0
C1165 C 0.69771 0.4197 0.4087 0.0
C1166 C 0.61657 0.42701 0.40012 0.0
C1167 C 0.63294 0.3899 0.40345 0.0
H1168 H 0.76264 0.43659 0.17642 0.0
H1169 H 0.8208 0.33105 0.14949 0.0
H1170 H 0.88451 0.36412 0.15277 0.0
H1171 H 0.9223 0.42445 0.15877 0.0
H1172 H 0.86334 0.53234 0.17981 0.0
H1173 H 0.80135 0.49637 0.18484 0.0
C1174 C 0.78932 0.42069 0.17153 0.0
C1175 C 0.78714 0.38159 0.16243 0.0
C1176 C 0.82557 0.44022 0.17269 0.0
C1177 C 0.82181 0.36132 0.15618 0.0
C1178 C 0.85817 0.38014 0.15817 0.0
C1179 C 0.8959 0.4401 0.16459 0.0
C1180 C 0.89714 0.48112 0.16831 0.0
C1181 C 0.86019 0.41982 0.16571 0.0
C1182 C 0.86312 0.5008 0.17678 0.0
C1183 C 0.82761 0.48033 0.17929 0.0
H1184 H 0.75975 0.86272 0.60906 0.0
H1185 H 0.67544 0.81082 0.55575 0.0
H1186 H 0.63231 0.86804 0.56085 0.0
H1187 H 0.61726 0.93135 0.58267 0.0
H1188 H 0.7021 0.98268 0.63578 0.0
H1189 H 0.74613 0.92663 0.6293 0.0
C1190 C 0.7325 0.8646 0.59793 0.0
C1191 C 0.7209 0.83318 0.58175 0.0
C1192 C 0.70743 0.8967 0.60176 0.0
C1193 C 0.68504 0.83519 0.56799 0.0
C1194 C 0.66022 0.86752 0.57122 0.0
C1195 C 0.64506 0.92957 0.59315 0.0
C1196 C 0.65626 0.95998 0.61028 0.0
C1197 C 0.67066 0.89795 0.58861 0.0
C1198 C 0.69279 0.9587 0.62309 0.0
C1199 C 0.71808 0.92706 0.6191 0.0
H1200 H 0.75817 0.93824 0.83607 0.0
H1201 H 0.81983 0.8291 0.84973 0.0
H1202 H 0.88275 0.8632 0.8457 0.0
H1203 H 0.91944 0.92474 0.84428 0.0
H1204 H 0.85811 0.03497 0.83608 0.0
H1205 H 0.79574 -0.00041 0.8306 0.0
C1206 C 0.7854 0.92185 0.83783 0.0
C1207 C 0.78449 0.88137 0.84362 0.0
C1208 C 0.82139 0.94182 0.83624 0.0
C1209 C 0.81988 0.86041 0.84571 0.0
C1210 C 0.8558 0.87982 0.84329 0.0
C1211 C 0.89243 0.94094 0.84084 0.0
C1212 C 0.893 0.98227 0.84108 0.0
C1213 C 0.85679 0.92064 0.83943 0.0
C1214 C 0.85823 0.0031 0.836 0.0
C1215 C 0.82259 0.9829 0.83326 0.0
H1216 H 0.79006 0.0166 0.09708 0.0
H1217 H 0.905 0.06815 0.10849 0.0
H1218 H 0.87775 0.13363 0.10112 0.0
H1219 H 0.82077 0.17612 0.09552 0.0
H1220 H 0.70458 0.12537 0.09043 0.0
H1221 H 0.73311 0.05946 0.08937 0.0
C1222 C 0.80914 0.04219 0.09784 0.0
C1223 C 0.84931 0.03776 0.1037 0.0
C1224 C 0.79316 0.07972 0.09418 0.0
C1225 C 0.87382 0.07099 0.10449 0.0
C1226 C 0.85835 0.10834 0.10006 0.0
C1227 C 0.80167 0.15062 0.094 0.0
C1228 C 0.76063 0.15557 0.09367 0.0
C1229 C 0.81797 0.11302 0.09546 0.0
C1230 C 0.73629 0.12242 0.09071 0.0
C1231 C 0.75255 0.0847 0.09057 0.0
H1232 H 0.57781 0.07305 0.34376 0.0
H1233 H 0.63034 0.9576 0.34373 0.0
H1234 H 0.69588 0.98727 0.34624 0.0
H1235 H 0.73696 0.04556 0.35521 0.0
H1236 H 0.68218 0.15975 0.36171 0.0
H1237 H 0.61838 0.13083 0.35134 0.0
C1238 C 0.60367 0.05436 0.34408 0.0
C1239 C 0.59929 0.01326 0.34413 0.0
C1240 C 0.64062 0.07135 0.34775 0.0
C1241 C 0.63295 0.98936 0.34365 0.0
C1242 C 0.67034 0.00628 0.3456 0.0
C1243 C 0.71099 0.06403 0.35441 0.0
C1244 C 0.71404 0.10456 0.35963 0.0
C1245 C 0.6743 0.04712 0.3489 0.0
C1246 C 0.68036 0.12832 0.35832 0.0
C1247 C 0.644 0.11192 0.35208 0.0
H1248 H 0.3415 0.18296 0.41033 0.0
H1249 H 0.22781 0.13022 0.42476 0.0
H1250 H 0.25796 0.06532 0.42612 0.0
H1251 H 0.3143 0.02315 0.41627 0.0
H1252 H 0.42573 0.07537 0.39509 0.0
H1253 H 0.39828 0.14104 0.40197 0.0
C1254 C 0.32322 0.1573 0.41374 0.0
C1255 C 0.2823 0.16149 0.41678 0.0
C1256 C 0.34013 0.11994 0.41243 0.0
C1257 C 0.25938 0.12806 0.42239 0.0
C1258 C 0.27649 0.09079 0.42273 0.0
C1259 C 0.33263 0.04892 0.41329 0.0
C1260 C 0.37176 0.04466 0.40487 0.0
C1261 C 0.31644 0.08636 0.4166 0.0
C1262 C 0.3953 0.07813 0.40115 0.0
C1263 C 0.37973 0.11555 0.40527 0.0
H1264 H 0.11556 0.98648 0.15182 0.0
H1265 H 0.04523 0.09052 0.16321 0.0
H1266 H 0.10402 0.1318 0.1607 0.0
H1267 H 0.17461 0.13853 0.15145 0.0
H1268 H 0.24531 0.03444 0.14104 0.0
H1269 H 0.18719 0.99286 0.14662 0.0
C1270 C 0.1134 0.01807 0.15454 0.0
C1271 C 0.07638 0.03557 0.15766 0.0
C1272 C 0.14716 0.04161 0.1525 0.0
C1273 C 0.07364 0.07657 0.16078 0.0
C1274 C 0.10711 0.10015 0.15909 0.0
C1275 C 0.1771 0.10675 0.15024 0.0
C1276 C 0.21378 0.08947 0.14533 0.0
C1277 C 0.14382 0.08307 0.15411 0.0
C1278 C 0.21709 0.04829 0.14451 0.0
C1279 C 0.18399 0.02453 0.14784 0.0
H1280 H 0.16674 0.96659 0.92198 0.0
H1281 H 0.06117 0.91781 0.88741 0.0
H1282 H 0.08983 0.85178 0.88987 0.0
H1283 H 0.14718 0.80968 0.89789 0.0
H1284 H 0.2548 0.86133 0.92754 0.0
H1285 H 0.22202 0.92442 0.93232 0.0
C1286 C 0.14976 0.94158 0.91504 0.0
C1287 C 0.11217 0.94709 0.90404 0.0
C1288 C 0.16662 0.90425 0.91598 0.0
C1289 C 0.09039 0.9143 0.89561 0.0
C1290 C 0.10672 0.87664 0.89708 0.0
C1291 C 0.16353 0.83472 0.90539 0.0
C1292 C 0.20367 0.83084 0.91183 0.0
C1293 C 0.14521 0.87151 0.90659 0.0
C1294 C 0.22391 0.86323 0.92253 0.0
C1295 C 0.20534 0.89953 0.92492 0.0
H1296 H 0.32245 0.85059 0.65048 0.0
H1297 H 0.25168 0.9522 0.63219 0.0
H1298 H 0.30913 0.99484 0.63613 0.0
H1299 H 0.37995 0.00312 0.64341 0.0
H1300 H 0.45097 0.90215 0.66251 0.0
H1301 H 0.39302 0.85955 0.66032 0.0
C1302 C 0.31988 0.882 0.6471 0.0
C1303 C 0.2832 0.89824 0.64071 0.0
C1304 C 0.3529 0.90655 0.65004 0.0
C1305 C 0.27983 0.93907 0.63696 0.0
C1306 C 0.31256 0.96351 0.63936 0.0
C1307 C 0.38246 0.97198 0.64777 0.0
C1308 C 0.41946 0.95575 0.65319 0.0
C1309 C 0.34923 0.94762 0.64595 0.0
C1310 C 0.42259 0.91521 0.65833 0.0
C1311 C 0.3896 0.89082 0.65685 0.0
loop_
_geom_bond_atom_site_label_1
_geom_bond_atom_site_label_2
_geom_bond_distance
_geom_bond_site_symmetry_2
_ccdc_geom_bond_type
C0 O16 1.251 . S
C0 O18 1.254 . S
N1 C2 1.333 . S
N1 C6 1.307 . S
N1 Zn7 2.020 . S
C2 N1 1.333 . S
C2 C3 1.379 . S
C2 H20 0.952 . S
C3 C2 1.379 . S
C3 C4 1.390 . S
C3 H30 0.949 . S
C4 C3 1.390 . S
C4 C5 1.357 . S
C5 C4 1.357 . S
C5 C6 1.370 . S
C5 H31 0.950 . S
C6 N1 1.307 . S
C6 C5 1.370 . S
C6 H24 0.948 . S
Zn7 N1 2.020 . S
Zn7 O16 2.039 . S
Zn7 O22 2.034 . S
Zn7 O26 2.025 . S
Zn7 O28 2.024 . S
C8 O27 1.246 . S
C8 O28 1.249 . S
N9 C10 1.307 . S
N9 C11 1.333 . S
N9 Zn15 2.020 . S
C10 N9 1.307 . S
C10 C14 1.370 . S
C10 H21 0.948 . S
C11 N9 1.333 . S
C11 C12 1.379 . S
C11 H19 0.952 . S
C12 C11 1.379 . S
C12 C13 1.390 . S
C12 H32 0.949 . S
C13 C12 1.390 . S
C13 C14 1.357 . S
C14 C10 1.370 . S
C14 C13 1.357 . S
C14 H33 0.950 . S
Zn15 N9 2.020 . S
Zn15 O18 2.025 . S
Zn15 O23 2.024 . S
Zn15 O25 2.039 . S
Zn15 O27 2.034 . S
O16 C0 1.251 . S
O16 Zn7 2.039 . S
C17 O22 1.246 . S
C17 O23 1.249 . S
O18 C0 1.254 . S
O18 Zn15 2.025 . S
H19 C11 0.952 . S
H20 C2 0.952 . S
H21 C10 0.948 . S
O22 Zn7 2.034 . S
O22 C17 1.246 . S
O23 Zn15 2.024 . S
O23 C17 1.249 . S
H24 C6 0.948 . S
O25 Zn15 2.039 . S
O25 C29 1.251 . S
O26 Zn7 2.025 . S
O26 C29 1.254 . S
O27 C8 1.246 . S
O27 Zn15 2.034 . S
O28 Zn7 2.024 . S
O28 C8 1.249 . S
C29 O25 1.251 . S
C29 O26 1.254 . S
H30 C3 0.949 . S
H31 C5 0.950 . S
H32 C12 0.949 . S
H33 C14 0.950 . S
C34 O50 1.251 . S
C34 O52 1.254 . S
N35 C36 1.333 . S
N35 C40 1.307 . S
N35 Zn41 2.020 . S
C36 N35 1.333 . S
C36 C37 1.379 . S
C36 H54 0.952 . S
C37 C36 1.379 . S
C37 C38 1.390 . S
C37 H64 0.949 . S
C38 C37 1.390 . S
C38 C39 1.357 . S
C39 C38 1.357 . S
C39 C40 1.370 . S
C39 H65 0.950 . S
C40 N35 1.307 . S
C40 C39 1.370 . S
C40 H58 0.948 . S
Zn41 N35 2.020 . S
Zn41 O50 2.039 . S
Zn41 O56 2.034 . S
Zn41 O60 2.025 . S
Zn41 O62 2.024 . S
C42 O61 1.246 . S
C42 O62 1.249 . S
N43 C44 1.307 . S
N43 C45 1.333 . S
N43 Zn49 2.020 . S
C44 N43 1.307 . S
C44 C48 1.370 . S
C44 H55 0.948 . S
C45 N43 1.333 . S
C45 C46 1.379 . S
C45 H53 0.952 . S
C46 C45 1.379 . S
C46 C47 1.390 . S
C46 H66 0.949 . S
C47 C46 1.390 . S
C47 C48 1.357 . S
C48 C44 1.370 . S
C48 C47 1.357 . S
C48 H67 0.950 . S
Zn49 N43 2.020 . S
Zn49 O52 2.025 . S
Zn49 O57 2.024 . S
Zn49 O59 2.039 . S
Zn49 O61 2.034 . S
O50 C34 1.251 . S
O50 Zn41 2.039 . S
C51 O56 1.246 . S
C51 O57 1.249 . S
O52 C34 1.254 . S
O52 Zn49 2.025 . S
H53 C45 0.952 . S
H54 C36 0.952 . S
H55 C44 0.948 . S
O56 Zn41 2.034 . S
O56 C51 1.246 . S
O57 Zn49 2.024 . S
O57 C51 1.249 . S
H58 C40 0.948 . S
O59 Zn49 2.039 . S
O59 C63 1.251 . S
O60 Zn41 2.025 . S
O60 C63 1.254 . S
O61 C42 1.246 . S
O61 Zn49 2.034 . S
O62 Zn41 2.024 . S
O62 C42 1.249 . S
C63 O59 1.251 . S
C63 O60 1.254 . S
H64 C37 0.949 . S
H65 C39 0.950 . S
H66 C46 0.949 . S
H67 C48 0.950 . S
C68 O84 1.251 . S
C68 O86 1.254 . S
N69 C70 1.333 . S
N69 C74 1.307 . S
N69 Zn75 2.020 . S
C70 N69 1.333 . S
C70 C71 1.379 . S
C70 H88 0.952 . S
C71 C70 1.379 . S
C71 C72 1.390 . S
C71 H98 0.949 . S
C72 C71 1.390 . S
C72 C73 1.357 . S
C73 C72 1.357 . S
C73 C74 1.370 . S
C73 H99 0.950 . S
C74 N69 1.307 . S
C74 C73 1.370 . S
C74 H92 0.948 . S
Zn75 N69 2.020 . S
Zn75 O84 2.039 . S
Zn75 O90 2.034 . S
Zn75 O94 2.025 . S
Zn75 O96 2.024 . S
C76 O95 1.246 . S
C76 O96 1.249 . S
N77 C78 1.307 . S
N77 C79 1.333 . S
N77 Zn83 2.020 . S
C78 N77 1.307 . S
C78 C82 1.370 . S
C78 H89 0.948 . S
C79 N77 1.333 . S
C79 C80 1.379 . S
C79 H87 0.952 . S
C80 C79 1.379 . S
C80 C81 1.390 . S
C80 H100 0.949 . S
C81 C80 1.390 . S
C81 C82 1.357 . S
C82 C78 1.370 . S
C82 C81 1.357 . S
C82 H101 0.950 . S
Zn83 N77 2.020 . S
Zn83 O86 2.025 . S
Zn83 O91 2.024 . S
Zn83 O93 2.039 . S
Zn83 O95 2.034 . S
O84 C68 1.251 . S
O84 Zn75 2.039 . S
C85 O90 1.246 . S
C85 O91 1.249 . S
O86 C68 1.254 . S
O86 Zn83 2.025 . S
H87 C79 0.952 . S
H88 C70 0.952 . S
H89 C78 0.948 . S
O90 Zn75 2.034 . S
O90 C85 1.246 . S
O91 Zn83 2.024 . S
O91 C85 1.249 . S
H92 C74 0.948 . S
O93 Zn83 2.039 . S
O93 C97 1.251 . S
O94 Zn75 2.025 . S
O94 C97 1.254 . S
O95 C76 1.246 . S
O95 Zn83 2.034 . S
O96 Zn75 2.024 . S
O96 C76 1.249 . S
C97 O93 1.251 . S
C97 O94 1.254 . S
H98 C71 0.949 . S
H99 C73 0.950 . S
H100 C80 0.949 . S
H101 C82 0.950 . S
C102 O118 1.251 . S
C102 O120 1.254 . S
N103 C104 1.333 . S
N103 C108 1.307 . S
N103 Zn109 2.020 1_455 S
C104 N103 1.333 . S
C104 C105 1.379 . S
C104 H122 0.952 1_455 S
C105 C104 1.379 . S
C105 C106 1.390 . S
C105 H132 0.949 . S
C106 C105 1.390 . S
C106 C107 1.357 . S
C107 C106 1.357 . S
C107 C108 1.370 . S
C107 H133 0.950 . S
C108 N103 1.307 . S
C108 C107 1.370 . S
C108 H126 0.948 . S
Zn109 N103 2.020 1_655 S
Zn109 O118 2.039 . S
Zn109 O124 2.034 . S
Zn109 O128 2.025 . S
Zn109 O130 2.024 . S
C110 O129 1.246 . S
C110 O130 1.249 . S
N111 C112 1.307 . S
N111 C113 1.333 . S
N111 Zn117 2.020 . S
C112 N111 1.307 . S
C112 C116 1.370 . S
C112 H123 0.948 . S
C113 N111 1.333 . S
C113 C114 1.379 . S
C113 H121 0.952 . S
C114 C113 1.379 . S
C114 C115 1.390 . S
C114 H134 0.949 . S
C115 C114 1.390 . S
C115 C116 1.357 . S
C116 C112 1.370 . S
C116 C115 1.357 . S
C116 H135 0.950 . S
Zn117 N111 2.020 . S
Zn117 O120 2.025 . S
Zn117 O125 2.024 . S
Zn117 O127 2.039 . S
Zn117 O129 2.034 . S
O118 C102 1.251 . S
O118 Zn109 2.039 . S
C119 O124 1.246 . S
C119 O125 1.249 . S
O120 C102 1.254 . S
O120 Zn117 2.025 . S
H121 C113 0.952 . S
H122 C104 0.952 1_655 S
H123 C112 0.948 . S
O124 Zn109 2.034 . S
O124 C119 1.246 . S
O125 Zn117 2.024 . S
O125 C119 1.249 . S
H126 C108 0.948 . S
O127 Zn117 2.039 . S
O127 C131 1.251 . S
O128 Zn109 2.025 . S
O128 C131 1.254 . S
O129 C110 1.246 . S
O129 Zn117 2.034 . S
O130 Zn109 2.024 . S
O130 C110 1.249 . S
C131 O127 1.251 . S
C131 O128 1.254 . S
H132 C105 0.949 . S
H133 C107 0.950 . S
H134 C114 0.949 . S
H135 C116 0.950 . S
C136 O152 1.251 . S
C136 O154 1.254 . S
N137 C138 1.333 . S
N137 C142 1.307 . S
N137 Zn143 2.020 . S
C138 N137 1.333 . S
C138 C139 1.379 . S
C138 H156 0.952 . S
C139 C138 1.379 . S
C139 C140 1.390 . S
C139 H166 0.949 . S
C140 C139 1.390 . S
C140 C141 1.357 . S
C141 C140 1.357 . S
C141 C142 1.370 . S
C141 H167 0.950 . S
C142 N137 1.307 . S
C142 C141 1.370 . S
C142 H160 0.948 . S
Zn143 N137 2.020 . S
Zn143 O152 2.039 . S
Zn143 O158 2.034 . S
Zn143 O162 2.025 . S
Zn143 O164 2.024 . S
C144 O163 1.246 . S
C144 O164 1.249 . S
N145 C146 1.307 . S
N145 C147 1.333 . S
N145 Zn151 2.020 . S
C146 N145 1.307 . S
C146 C150 1.370 . S
C146 H157 0.948 . S
C147 N145 1.333 . S
C147 C148 1.379 . S
C147 H155 0.952 . S
C148 C147 1.379 . S
C148 C149 1.390 . S
C148 H168 0.949 . S
C149 C148 1.390 . S
C149 C150 1.357 . S
C150 C146 1.370 . S
C150 C149 1.357 . S
C150 H169 0.950 . S
Zn151 N145 2.020 . S
Zn151 O154 2.025 . S
Zn151 O159 2.024 . S
Zn151 O161 2.039 . S
Zn151 O163 2.034 . S
O152 C136 1.251 . S
O152 Zn143 2.039 . S
C153 O158 1.246 . S
C153 O159 1.249 . S
O154 C136 1.254 . S
O154 Zn151 2.025 . S
H155 C147 0.952 . S
H156 C138 0.952 . S
H157 C146 0.948 . S
O158 Zn143 2.034 . S
O158 C153 1.246 . S
O159 Zn151 2.024 . S
O159 C153 1.249 . S
H160 C142 0.948 . S
O161 Zn151 2.039 . S
O161 C165 1.251 . S
O162 Zn143 2.025 . S
O162 C165 1.254 . S
O163 C144 1.246 . S
O163 Zn151 2.034 . S
O164 Zn143 2.024 . S
O164 C144 1.249 . S
C165 O161 1.251 . S
C165 O162 1.254 . S
H166 C139 0.949 . S
H167 C141 0.950 . S
H168 C148 0.949 . S
H169 C150 0.950 . S
C170 O186 1.251 . S
C170 O188 1.254 . S
N171 C172 1.333 . S
N171 C176 1.307 . S
N171 Zn177 2.020 . S
C172 N171 1.333 . S
C172 C173 1.379 . S
C172 H190 0.952 . S
C173 C172 1.379 . S
C173 C174 1.390 . S
C173 H200 0.949 . S
C174 C173 1.390 . S
C174 C175 1.357 . S
C175 C174 1.357 . S
C175 C176 1.370 . S
C175 H201 0.950 . S
C176 N171 1.307 . S
C176 C175 1.370 . S
C176 H194 0.948 . S
Zn177 N171 2.020 . S
Zn177 O186 2.039 . S
Zn177 O192 2.034 . S
Zn177 O196 2.025 . S
Zn177 O198 2.024 . S
C178 O197 1.246 . S
C178 O198 1.249 . S
N179 C180 1.307 . S
N179 C181 1.333 . S
N179 Zn185 2.020 . S
C180 N179 1.307 . S
C180 C184 1.370 . S
C180 H191 0.948 . S
C181 N179 1.333 . S
C181 C182 1.379 . S
C181 H189 0.952 . S
C182 C181 1.379 . S
C182 C183 1.390 . S
C182 H202 0.949 . S
C183 C182 1.390 . S
C183 C184 1.357 . S
C184 C180 1.370 . S
C184 C183 1.357 . S
C184 H203 0.950 . S
Zn185 N179 2.020 . S
Zn185 O188 2.025 . S
Zn185 O193 2.024 . S
Zn185 O195 2.039 . S
Zn185 O197 2.034 . S
O186 C170 1.251 . S
O186 Zn177 2.039 . S
C187 O192 1.246 . S
C187 O193 1.249 . S
O188 C170 1.254 . S
O188 Zn185 2.025 . S
H189 C181 0.952 . S
H190 C172 0.952 . S
H191 C180 0.948 . S
O192 Zn177 2.034 . S
O192 C187 1.246 . S
O193 Zn185 2.024 . S
O193 C187 1.249 . S
H194 C176 0.948 . S
O195 Zn185 2.039 . S
O195 C199 1.251 . S
O196 Zn177 2.025 . S
O196 C199 1.254 . S
O197 C178 1.246 . S
O197 Zn185 2.034 . S
O198 Zn177 2.024 . S
O198 C178 1.249 . S
C199 O195 1.251 . S
C199 O196 1.254 . S
H200 C173 0.949 . S
H201 C175 0.950 . S
H202 C182 0.949 . S
H203 C184 0.950 . S
C204 O220 1.251 . S
C204 O222 1.254 . S
N205 C206 1.333 . S
N205 C210 1.307 . S
N205 Zn211 2.020 . S
C206 N205 1.333 . S
C206 C207 1.379 . S
C206 H224 0.952 . S
C207 C206 1.379 . S
C207 C208 1.390 . S
C207 H234 0.949 . S
C208 C207 1.390 . S
C208 C209 1.357 . S
C209 C208 1.357 . S
C209 C210 1.370 . S
C209 H235 0.950 . S
C210 N205 1.307 . S
C210 C209 1.370 . S
C210 H228 0.948 . S
Zn211 N205 2.020 . S
Zn211 O220 2.039 . S
Zn211 O226 2.034 . S
Zn211 O230 2.025 . S
Zn211 O232 2.024 . S
C212 O231 1.246 . S
C212 O232 1.249 . S
N213 C214 1.307 . S
N213 C215 1.333 . S
N213 Zn219 2.020 . S
C214 N213 1.307 . S
C214 C218 1.370 . S
C214 H225 0.948 . S
C215 N213 1.333 . S
C215 C216 1.379 . S
C215 H223 0.952 . S
C216 C215 1.379 . S
C216 C217 1.390 . S
C216 H236 0.949 . S
C217 C216 1.390 . S
C217 C218 1.357 . S
C218 C214 1.370 . S
C218 C217 1.357 . S
C218 H237 0.950 . S
Zn219 N213 2.020 . S
Zn219 O222 2.025 . S
Zn219 O227 2.024 . S
Zn219 O229 2.039 . S
Zn219 O231 2.034 . S
O220 C204 1.251 . S
O220 Zn211 2.039 . S
C221 O226 1.246 . S
C221 O227 1.249 . S
O222 C204 1.254 . S
O222 Zn219 2.025 . S
H223 C215 0.952 . S
H224 C206 0.952 . S
H225 C214 0.948 . S
O226 Zn211 2.034 . S
O226 C221 1.246 . S
O227 Zn219 2.024 . S
O227 C221 1.249 . S
H228 C210 0.948 . S
O229 Zn219 2.039 . S
O229 C233 1.251 . S
O230 Zn211 2.025 . S
O230 C233 1.254 . S
O231 C212 1.246 . S
O231 Zn219 2.034 . S
O232 Zn211 2.024 . S
O232 C212 1.249 . S
C233 O229 1.251 . S
C233 O230 1.254 . S
H234 C207 0.949 . S
H235 C209 0.950 . S
H236 C216 0.949 . S
H237 C218 0.950 . S
C238 O254 1.251 . S
C238 O256 1.254 . S
N239 C240 1.333 . S
N239 C244 1.307 . S
N239 Zn245 2.020 . S
C240 N239 1.333 . S
C240 C241 1.379 . S
C240 H258 0.952 . S
C241 C240 1.379 . S
C241 C242 1.390 . S
C241 H268 0.949 . S
C242 C241 1.390 . S
C242 C243 1.357 . S
C243 C242 1.357 . S
C243 C244 1.370 . S
C243 H269 0.950 . S
C244 N239 1.307 . S
C244 C243 1.370 . S
C244 H262 0.948 . S
Zn245 N239 2.020 . S
Zn245 O254 2.039 . S
Zn245 O260 2.034 . S
Zn245 O264 2.025 . S
Zn245 O266 2.024 . S
C246 O265 1.246 . S
C246 O266 1.249 . S
N247 C248 1.307 . S
N247 C249 1.333 . S
N247 Zn253 2.020 1_655 S
C248 N247 1.307 . S
C248 C252 1.370 . S
C248 H259 0.948 . S
C249 N247 1.333 . S
C249 C250 1.379 . S
C249 H257 0.952 1_655 S
C250 C249 1.379 . S
C250 C251 1.390 . S
C250 H270 0.949 . S
C251 C250 1.390 . S
C251 C252 1.357 . S
C252 C248 1.370 . S
C252 C251 1.357 . S
C252 H271 0.950 . S
Zn253 N247 2.020 1_455 S
Zn253 O256 2.025 . S
Zn253 O261 2.024 . S
Zn253 O263 2.039 . S
Zn253 O265 2.034 . S
O254 C238 1.251 . S
O254 Zn245 2.039 . S
C255 O260 1.246 . S
C255 O261 1.249 . S
O256 C238 1.254 . S
O256 Zn253 2.025 . S
H257 C249 0.952 1_455 S
H258 C240 0.952 . S
H259 C248 0.948 . S
O260 Zn245 2.034 . S
O260 C255 1.246 . S
O261 Zn253 2.024 . S
O261 C255 1.249 . S
H262 C244 0.948 . S
O263 Zn253 2.039 . S
O263 C267 1.251 . S
O264 Zn245 2.025 . S
O264 C267 1.254 . S
O265 C246 1.246 . S
O265 Zn253 2.034 . S
O266 Zn245 2.024 . S
O266 C246 1.249 . S
C267 O263 1.251 . S
C267 O264 1.254 . S
H268 C241 0.949 . S
H269 C243 0.950 . S
H270 C250 0.949 . S
H271 C252 0.950 . S
C272 O288 1.251 . S
C272 O290 1.254 . S
N273 C274 1.333 . S
N273 C278 1.307 . S
N273 Zn279 2.020 . S
C274 N273 1.333 . S
C274 C275 1.379 . S
C274 H292 0.952 . S
C275 C274 1.379 . S
C275 C276 1.390 . S
C275 H302 0.949 . S
C276 C275 1.390 . S
C276 C277 1.357 . S
C277 C276 1.357 . S
C277 C278 1.370 . S
C277 H303 0.950 . S
C278 N273 1.307 . S
C278 C277 1.370 . S
C278 H296 0.948 . S
Zn279 N273 2.020 . S
Zn279 O288 2.039 . S
Zn279 O294 2.034 . S
Zn279 O298 2.025 . S
Zn279 O300 2.024 . S
C280 O299 1.246 . S
C280 O300 1.249 . S
N281 C282 1.307 . S
N281 C283 1.333 . S
N281 Zn287 2.020 . S
C282 N281 1.307 . S
C282 C286 1.370 . S
C282 H293 0.948 . S
C283 N281 1.333 . S
C283 C284 1.379 . S
C283 H291 0.952 . S
C284 C283 1.379 . S
C284 C285 1.390 . S
C284 H304 0.949 . S
C285 C284 1.390 . S
C285 C286 1.357 . S
C286 C282 1.370 . S
C286 C285 1.357 . S
C286 H305 0.950 . S
Zn287 N281 2.020 . S
Zn287 O290 2.025 . S
Zn287 O295 2.024 . S
Zn287 O297 2.039 . S
Zn287 O299 2.034 . S
O288 C272 1.251 . S
O288 Zn279 2.039 . S
C289 O294 1.246 . S
C289 O295 1.249 . S
O290 C272 1.254 . S
O290 Zn287 2.025 . S
H291 C283 0.952 . S
H292 C274 0.952 . S
H293 C282 0.948 . S
O294 Zn279 2.034 . S
O294 C289 1.246 . S
O295 Zn287 2.024 . S
O295 C289 1.249 . S
H296 C278 0.948 . S
O297 Zn287 2.039 . S
O297 C301 1.251 . S
O298 Zn279 2.025 . S
O298 C301 1.254 . S
O299 C280 1.246 . S
O299 Zn287 2.034 . S
O300 Zn279 2.024 . S
O300 C280 1.249 . S
C301 O297 1.251 . S
C301 O298 1.254 . S
H302 C275 0.949 . S
H303 C277 0.950 . S
H304 C284 0.949 . S
H305 C286 0.950 . S
C306 O322 1.251 . S
C306 O324 1.254 . S
N307 C308 1.333 . S
N307 C312 1.307 1_545 S
N307 Zn313 2.020 1_655 S
C308 N307 1.333 . S
C308 C309 1.379 . S
C308 H326 0.952 1_655 S
C309 C308 1.379 . S
C309 C310 1.390 1_545 S
C309 H336 0.949 . S
C310 C309 1.390 1_565 S
C310 C311 1.357 . S
C311 C310 1.357 . S
C311 C312 1.370 . S
C311 H337 0.950 . S
C312 N307 1.307 1_565 S
C312 C311 1.370 . S
C312 H330 0.948 . S
Zn313 N307 2.020 1_455 S
Zn313 O322 2.039 . S
Zn313 O328 2.034 . S
Zn313 O332 2.025 . S
Zn313 O334 2.024 1_545 S
C314 O333 1.246 1_565 S
C314 O334 1.249 . S
N315 C316 1.307 . S
N315 C317 1.333 . S
N315 Zn321 2.020 . S
C316 N315 1.307 . S
C316 C320 1.370 . S
C316 H327 0.948 . S
C317 N315 1.333 . S
C317 C318 1.379 . S
C317 H325 0.952 . S
C318 C317 1.379 . S
C318 C319 1.390 . S
C318 H338 0.949 . S
C319 C318 1.390 . S
C319 C320 1.357 . S
C320 C316 1.370 . S
C320 C319 1.357 . S
C320 H339 0.950 . S
Zn321 N315 2.020 . S
Zn321 O324 2.025 . S
Zn321 O329 2.024 . S
Zn321 O331 2.039 . S
Zn321 O333 2.034 . S
O322 C306 1.251 . S
O322 Zn313 2.039 . S
C323 O328 1.246 . S
C323 O329 1.249 . S
O324 C306 1.254 . S
O324 Zn321 2.025 . S
H325 C317 0.952 . S
H326 C308 0.952 1_455 S
H327 C316 0.948 . S
O328 Zn313 2.034 . S
O328 C323 1.246 . S
O329 Zn321 2.024 . S
O329 C323 1.249 . S
H330 C312 0.948 . S
O331 Zn321 2.039 . S
O331 C335 1.251 . S
O332 Zn313 2.025 . S
O332 C335 1.254 . S
O333 C314 1.246 1_545 S
O333 Zn321 2.034 . S
O334 Zn313 2.024 1_565 S
O334 C314 1.249 . S
C335 O331 1.251 . S
C335 O332 1.254 . S
H336 C309 0.949 . S
H337 C311 0.950 . S
H338 C318 0.949 . S
H339 C320 0.950 . S
C340 O356 1.251 . S
C340 O358 1.254 . S
N341 C342 1.333 . S
N341 C346 1.307 . S
N341 Zn347 2.020 . S
C342 N341 1.333 . S
C342 C343 1.379 . S
C342 H360 0.952 . S
C343 C342 1.379 . S
C343 C344 1.390 . S
C343 H370 0.949 . S
C344 C343 1.390 . S
C344 C345 1.357 . S
C345 C344 1.357 . S
C345 C346 1.370 . S
C345 H371 0.950 . S
C346 N341 1.307 . S
C346 C345 1.370 . S
C346 H364 0.948 . S
Zn347 N341 2.020 . S
Zn347 O356 2.039 . S
Zn347 O362 2.034 . S
Zn347 O366 2.025 . S
Zn347 O368 2.024 . S
C348 O367 1.246 . S
C348 O368 1.249 . S
N349 C350 1.307 . S
N349 C351 1.333 . S
N349 Zn355 2.020 . S
C350 N349 1.307 . S
C350 C354 1.370 . S
C350 H361 0.948 . S
C351 N349 1.333 . S
C351 C352 1.379 . S
C351 H359 0.952 . S
C352 C351 1.379 . S
C352 C353 1.390 . S
C352 H372 0.949 . S
C353 C352 1.390 . S
C353 C354 1.357 . S
C354 C350 1.370 . S
C354 C353 1.357 . S
C354 H373 0.950 . S
Zn355 N349 2.020 . S
Zn355 O358 2.025 . S
Zn355 O363 2.024 . S
Zn355 O365 2.039 . S
Zn355 O367 2.034 . S
O356 C340 1.251 . S
O356 Zn347 2.039 . S
C357 O362 1.246 . S
C357 O363 1.249 . S
O358 C340 1.254 . S
O358 Zn355 2.025 . S
H359 C351 0.952 . S
H360 C342 0.952 . S
H361 C350 0.948 . S
O362 Zn347 2.034 . S
O362 C357 1.246 . S
O363 Zn355 2.024 . S
O363 C357 1.249 . S
H364 C346 0.948 . S
O365 Zn355 2.039 . S
O365 C369 1.251 . S
O366 Zn347 2.025 . S
O366 C369 1.254 . S
O367 C348 1.246 . S
O367 Zn355 2.034 . S
O368 Zn347 2.024 . S
O368 C348 1.249 . S
C369 O365 1.251 . S
C369 O366 1.254 . S
H370 C343 0.949 . S
H371 C345 0.950 . S
H372 C352 0.949 . S
H373 C354 0.950 . S
C374 O390 1.251 . S
C374 O392 1.254 . S
N375 C376 1.333 . S
N375 C380 1.307 1_565 S
N375 Zn381 2.020 . S
C376 N375 1.333 . S
C376 C377 1.379 . S
C376 H394 0.952 . S
C377 C376 1.379 . S
C377 C378 1.390 1_565 S
C377 H404 0.949 . S
C378 C377 1.390 1_545 S
C378 C379 1.357 . S
C379 C378 1.357 . S
C379 C380 1.370 . S
C379 H405 0.950 . S
C380 N375 1.307 1_545 S
C380 C379 1.370 . S
C380 H398 0.948 . S
Zn381 N375 2.020 . S
Zn381 O390 2.039 . S
Zn381 O396 2.034 . S
Zn381 O400 2.025 . S
Zn381 O402 2.024 1_565 S
C382 O401 1.246 1_545 S
C382 O402 1.249 . S
N383 C384 1.307 . S
N383 C385 1.333 . S
N383 Zn389 2.020 . S
C384 N383 1.307 . S
C384 C388 1.370 . S
C384 H395 0.948 . S
C385 N383 1.333 . S
C385 C386 1.379 . S
C385 H393 0.952 . S
C386 C385 1.379 . S
C386 C387 1.390 . S
C386 H406 0.949 . S
C387 C386 1.390 . S
C387 C388 1.357 . S
C388 C384 1.370 . S
C388 C387 1.357 . S
C388 H407 0.950 . S
Zn389 N383 2.020 . S
Zn389 O392 2.025 . S
Zn389 O397 2.024 . S
Zn389 O399 2.039 . S
Zn389 O401 2.034 . S
O390 C374 1.251 . S
O390 Zn381 2.039 . S
C391 O396 1.246 . S
C391 O397 1.249 . S
O392 C374 1.254 . S
O392 Zn389 2.025 . S
H393 C385 0.952 . S
H394 C376 0.952 . S
H395 C384 0.948 . S
O396 Zn381 2.034 . S
O396 C391 1.246 . S
O397 Zn389 2.024 . S
O397 C391 1.249 . S
H398 C380 0.948 . S
O399 Zn389 2.039 . S
O399 C403 1.251 . S
O400 Zn381 2.025 . S
O400 C403 1.254 . S
O401 C382 1.246 1_565 S
O401 Zn389 2.034 . S
O402 Zn381 2.024 1_545 S
O402 C382 1.249 . S
C403 O399 1.251 . S
C403 O400 1.254 . S
H404 C377 0.949 . S
H405 C379 0.950 . S
H406 C386 0.949 . S
H407 C388 0.950 . S
C408 O424 1.251 . S
C408 O426 1.254 . S
N409 C410 1.333 . S
N409 C414 1.307 . S
N409 Zn415 2.020 . S
C410 N409 1.333 . S
C410 C411 1.379 . S
C410 H428 0.952 . S
C411 C410 1.379 . S
C411 C412 1.390 . S
C411 H438 0.949 . S
C412 C411 1.390 . S
C412 C413 1.357 . S
C413 C412 1.357 . S
C413 C414 1.370 . S
C413 H439 0.950 . S
C414 N409 1.307 . S
C414 C413 1.370 . S
C414 H432 0.948 . S
Zn415 N409 2.020 . S
Zn415 O424 2.039 . S
Zn415 O430 2.034 . S
Zn415 O434 2.025 . S
Zn415 O436 2.024 . S
C416 O435 1.246 . S
C416 O436 1.249 . S
N417 C418 1.307 . S
N417 C419 1.333 . S
N417 Zn423 2.020 . S
C418 N417 1.307 . S
C418 C422 1.370 . S
C418 H429 0.948 . S
C419 N417 1.333 . S
C419 C420 1.379 . S
C419 H427 0.952 . S
C420 C419 1.379 . S
C420 C421 1.390 . S
C420 H440 0.949 . S
C421 C420 1.390 . S
C421 C422 1.357 . S
C422 C418 1.370 . S
C422 C421 1.357 . S
C422 H441 0.950 . S
Zn423 N417 2.020 . S
Zn423 O426 2.025 . S
Zn423 O431 2.024 . S
Zn423 O433 2.039 . S
Zn423 O435 2.034 . S
O424 C408 1.251 . S
O424 Zn415 2.039 . S
C425 O430 1.246 . S
C425 O431 1.249 . S
O426 C408 1.254 . S
O426 Zn423 2.025 . S
H427 C419 0.952 . S
H428 C410 0.952 . S
H429 C418 0.948 . S
O430 Zn415 2.034 . S
O430 C425 1.246 . S
O431 Zn423 2.024 . S
O431 C425 1.249 . S
H432 C414 0.948 . S
O433 Zn423 2.039 . S
O433 C437 1.251 . S
O434 Zn415 2.025 . S
O434 C437 1.254 . S
O435 C416 1.246 . S
O435 Zn423 2.034 . S
O436 Zn415 2.024 . S
O436 C416 1.249 . S
C437 O433 1.251 . S
C437 O434 1.254 . S
H438 C411 0.949 . S
H439 C413 0.950 . S
H440 C420 0.949 . S
H441 C422 0.950 . S
C442 O458 1.251 . S
C442 O460 1.254 . S
N443 C444 1.333 . S
N443 C448 1.307 . S
N443 Zn449 2.020 . S
C444 N443 1.333 . S
C444 C445 1.379 . S
C444 H462 0.952 . S
C445 C444 1.379 . S
C445 C446 1.390 . S
C445 H472 0.949 . S
C446 C445 1.390 . S
C446 C447 1.357 . S
C447 C446 1.357 . S
C447 C448 1.370 . S
C447 H473 0.950 . S
C448 N443 1.307 . S
C448 C447 1.370 . S
C448 H466 0.948 . S
Zn449 N443 2.020 . S
Zn449 O458 2.039 . S
Zn449 O464 2.034 . S
Zn449 O468 2.025 . S
Zn449 O470 2.024 . S
C450 O469 1.246 . S
C450 O470 1.249 . S
N451 C452 1.307 1_565 S
N451 C453 1.333 . S
N451 Zn457 2.020 1_455 S
C452 N451 1.307 1_545 S
C452 C456 1.370 . S
C452 H463 0.948 . S
C453 N451 1.333 . S
C453 C454 1.379 . S
C453 H461 0.952 1_455 S
C454 C453 1.379 . S
C454 C455 1.390 1_565 S
C454 H474 0.949 . S
C455 C454 1.390 1_545 S
C455 C456 1.357 . S
C456 C452 1.370 . S
C456 C455 1.357 . S
C456 H475 0.950 . S
Zn457 N451 2.020 1_655 S
Zn457 O460 2.025 . S
Zn457 O465 2.024 1_565 S
Zn457 O467 2.039 . S
Zn457 O469 2.034 . S
O458 C442 1.251 . S
O458 Zn449 2.039 . S
C459 O464 1.246 1_545 S
C459 O465 1.249 . S
O460 C442 1.254 . S
O460 Zn457 2.025 . S
H461 C453 0.952 1_655 S
H462 C444 0.952 . S
H463 C452 0.948 . S
O464 Zn449 2.034 . S
O464 C459 1.246 1_565 S
O465 Zn457 2.024 1_545 S
O465 C459 1.249 . S
H466 C448 0.948 . S
O467 Zn457 2.039 . S
O467 C471 1.251 . S
O468 Zn449 2.025 . S
O468 C471 1.254 . S
O469 C450 1.246 . S
O469 Zn457 2.034 . S
O470 Zn449 2.024 . S
O470 C450 1.249 . S
C471 O467 1.251 . S
C471 O468 1.254 . S
H472 C445 0.949 . S
H473 C447 0.950 . S
H474 C454 0.949 . S
H475 C456 0.950 . S
C476 O492 1.251 . S
C476 O494 1.254 . S
N477 C478 1.333 . S
N477 C482 1.307 . S
N477 Zn483 2.020 . S
C478 N477 1.333 . S
C478 C479 1.379 . S
C478 H496 0.952 . S
C479 C478 1.379 . S
C479 C480 1.390 . S
C479 H506 0.949 . S
C480 C479 1.390 . S
C480 C481 1.357 . S
C481 C480 1.357 . S
C481 C482 1.370 . S
C481 H507 0.950 . S
C482 N477 1.307 . S
C482 C481 1.370 . S
C482 H500 0.948 . S
Zn483 N477 2.020 . S
Zn483 O492 2.039 . S
Zn483 O498 2.034 . S
Zn483 O502 2.025 . S
Zn483 O504 2.024 . S
C484 O503 1.246 . S
C484 O504 1.249 . S
N485 C486 1.307 . S
N485 C487 1.333 . S
N485 Zn491 2.020 . S
C486 N485 1.307 . S
C486 C490 1.370 . S
C486 H497 0.948 . S
C487 N485 1.333 . S
C487 C488 1.379 . S
C487 H495 0.952 . S
C488 C487 1.379 . S
C488 C489 1.390 . S
C488 H508 0.949 . S
C489 C488 1.390 . S
C489 C490 1.357 . S
C490 C486 1.370 . S
C490 C489 1.357 . S
C490 H509 0.950 . S
Zn491 N485 2.020 . S
Zn491 O494 2.025 . S
Zn491 O499 2.024 . S
Zn491 O501 2.039 . S
Zn491 O503 2.034 . S
O492 C476 1.251 . S
O492 Zn483 2.039 . S
C493 O498 1.246 . S
C493 O499 1.249 . S
O494 C476 1.254 . S
O494 Zn491 2.025 . S
H495 C487 0.952 . S
H496 C478 0.952 . S
H497 C486 0.948 . S
O498 Zn483 2.034 . S
O498 C493 1.246 . S
O499 Zn491 2.024 . S
O499 C493 1.249 . S
H500 C482 0.948 . S
O501 Zn491 2.039 . S
O501 C505 1.251 . S
O502 Zn483 2.025 . S
O502 C505 1.254 . S
O503 C484 1.246 . S
O503 Zn491 2.034 . S
O504 Zn483 2.024 . S
O504 C484 1.249 . S
C505 O501 1.251 . S
C505 O502 1.254 . S
H506 C479 0.949 . S
H507 C481 0.950 . S
H508 C488 0.949 . S
H509 C490 0.950 . S
C510 O526 1.251 . S
C510 O528 1.254 . S
N511 C512 1.333 . S
N511 C516 1.307 . S
N511 Zn517 2.020 . S
C512 N511 1.333 . S
C512 C513 1.379 . S
C512 H530 0.952 . S
C513 C512 1.379 . S
C513 C514 1.390 . S
C513 H540 0.949 . S
C514 C513 1.390 . S
C514 C515 1.357 . S
C515 C514 1.357 . S
C515 C516 1.370 . S
C515 H541 0.950 . S
C516 N511 1.307 . S
C516 C515 1.370 . S
C516 H534 0.948 . S
Zn517 N511 2.020 . S
Zn517 O526 2.039 . S
Zn517 O532 2.034 . S
Zn517 O536 2.025 . S
Zn517 O538 2.024 . S
C518 O537 1.246 . S
C518 O538 1.249 . S
N519 C520 1.307 1_545 S
N519 C521 1.333 . S
N519 Zn525 2.020 . S
C520 N519 1.307 1_565 S
C520 C524 1.370 . S
C520 H531 0.948 . S
C521 N519 1.333 . S
C521 C522 1.379 . S
C521 H529 0.952 . S
C522 C521 1.379 . S
C522 C523 1.390 1_545 S
C522 H542 0.949 . S
C523 C522 1.390 1_565 S
C523 C524 1.357 . S
C524 C520 1.370 . S
C524 C523 1.357 . S
C524 H543 0.950 . S
Zn525 N519 2.020 . S
Zn525 O528 2.025 . S
Zn525 O533 2.024 1_545 S
Zn525 O535 2.039 . S
Zn525 O537 2.034 . S
O526 C510 1.251 . S
O526 Zn517 2.039 . S
C527 O532 1.246 1_565 S
C527 O533 1.249 . S
O528 C510 1.254 . S
O528 Zn525 2.025 . S
H529 C521 0.952 . S
H530 C512 0.952 . S
H531 C520 0.948 . S
O532 Zn517 2.034 . S
O532 C527 1.246 1_545 S
O533 Zn525 2.024 1_565 S
O533 C527 1.249 . S
H534 C516 0.948 . S
O535 Zn525 2.039 . S
O535 C539 1.251 . S
O536 Zn517 2.025 . S
O536 C539 1.254 . S
O537 C518 1.246 . S
O537 Zn525 2.034 . S
O538 Zn517 2.024 . S
O538 C518 1.249 . S
C539 O535 1.251 . S
C539 O536 1.254 . S
H540 C513 0.949 . S
H541 C515 0.950 . S
H542 C522 0.949 . S
H543 C524 0.950 . S
H544 C550 0.930 . S
H545 C553 0.930 . S
H546 C554 0.930 . S
H547 C555 0.930 . S
H548 C558 0.930 . S
H549 C559 0.930 . S
C550 H544 0.930 . S
C550 C551 1.355 . S
C550 C552 1.415 . S
C551 C550 1.355 . S
C551 C553 1.419 . S
C552 C550 1.415 . S
C552 C557 1.425 . S
C552 C559 1.409 . S
C553 H545 0.930 . S
C553 C551 1.419 . S
C553 C554 1.362 . S
C554 H546 0.930 . S
C554 C553 1.362 . S
C554 C557 1.409 . S
C555 H547 0.930 . S
C555 C556 1.355 . S
C555 C557 1.415 . S
C556 C555 1.355 . S
C556 C558 1.419 . S
C557 C552 1.425 . S
C557 C554 1.409 . S
C557 C555 1.415 . S
C558 H548 0.930 . S
C558 C556 1.419 . S
C558 C559 1.362 . S
C559 H549 0.930 . S
C559 C552 1.409 . S
C559 C558 1.362 . S
H560 C566 0.930 . S
H561 C569 0.930 . S
H562 C570 0.930 . S
H563 C571 0.930 . S
H564 C574 0.930 . S
H565 C575 0.930 . S
C566 H560 0.930 . S
C566 C567 1.355 . S
C566 C568 1.415 . S
C567 C566 1.355 . S
C567 C569 1.419 . S
C568 C566 1.415 . S
C568 C573 1.425 . S
C568 C575 1.409 . S
C569 H561 0.930 . S
C569 C567 1.419 . S
C569 C570 1.362 . S
C570 H562 0.930 . S
C570 C569 1.362 . S
C570 C573 1.409 . S
C571 H563 0.930 . S
C571 C572 1.355 . S
C571 C573 1.415 . S
C572 C571 1.355 . S
C572 C574 1.419 . S
C573 C568 1.425 . S
C573 C570 1.409 . S
C573 C571 1.415 . S
C574 H564 0.930 . S
C574 C572 1.419 . S
C574 C575 1.362 . S
C575 H565 0.930 . S
C575 C568 1.409 . S
C575 C574 1.362 . S
H576 C582 0.930 . S
H577 C585 0.930 . S
H578 C586 0.930 . S
H579 C587 0.930 . S
H580 C590 0.930 . S
H581 C591 0.930 . S
C582 H576 0.930 . S
C582 C583 1.355 . S
C582 C584 1.415 . S
C583 C582 1.355 . S
C583 C585 1.419 . S
C584 C582 1.415 . S
C584 C589 1.425 . S
C584 C591 1.409 . S
C585 H577 0.930 . S
C585 C583 1.419 . S
C585 C586 1.362 . S
C586 H578 0.930 . S
C586 C585 1.362 . S
C586 C589 1.409 . S
C587 H579 0.930 . S
C587 C588 1.355 . S
C587 C589 1.415 . S
C588 C587 1.355 . S
C588 C590 1.419 . S
C589 C584 1.425 . S
C589 C586 1.409 . S
C589 C587 1.415 . S
C590 H580 0.930 . S
C590 C588 1.419 . S
C590 C591 1.362 . S
C591 H581 0.930 . S
C591 C584 1.409 . S
C591 C590 1.362 . S
H592 C598 0.930 . S
H593 C601 0.930 . S
H594 C602 0.930 . S
H595 C603 0.930 . S
H596 C606 0.930 . S
H597 C607 0.930 . S
C598 H592 0.930 . S
C598 C599 1.355 . S
C598 C600 1.415 1_556 S
C599 C598 1.355 . S
C599 C601 1.419 1_655 S
C600 C598 1.415 1_554 S
C600 C605 1.425 1_654 S
C600 C607 1.409 . S
C601 H593 0.930 . S
C601 C599 1.419 1_455 S
C601 C602 1.362 . S
C602 H594 0.930 . S
C602 C601 1.362 . S
C602 C605 1.409 . S
C603 H595 0.930 . S
C603 C604 1.355 . S
C603 C605 1.415 1_554 S
C604 C603 1.355 . S
C604 C606 1.419 1_455 S
C605 C600 1.425 1_456 S
C605 C602 1.409 . S
C605 C603 1.415 1_556 S
C606 H596 0.930 . S
C606 C604 1.419 1_655 S
C606 C607 1.362 . S
C607 H597 0.930 . S
C607 C600 1.409 . S
C607 C606 1.362 . S
H608 C614 0.930 . S
H609 C617 0.930 . S
H610 C618 0.930 . S
H611 C619 0.930 . S
H612 C622 0.930 . S
H613 C623 0.930 . S
C614 H608 0.930 . S
C614 C615 1.355 . S
C614 C616 1.415 . S
C615 C614 1.355 . S
C615 C617 1.419 . S
C616 C614 1.415 . S
C616 C621 1.425 . S
C616 C623 1.409 . S
C617 H609 0.930 . S
C617 C615 1.419 . S
C617 C618 1.362 . S
C618 H610 0.930 . S
C618 C617 1.362 . S
C618 C621 1.409 . S
C619 H611 0.930 . S
C619 C620 1.355 . S
C619 C621 1.415 . S
C620 C619 1.355 . S
C620 C622 1.419 . S
C621 C616 1.425 . S
C621 C618 1.409 . S
C621 C619 1.415 . S
C622 H612 0.930 . S
C622 C620 1.419 . S
C622 C623 1.362 . S
C623 H613 0.930 . S
C623 C616 1.409 . S
C623 C622 1.362 . S
H624 C630 0.930 . S
H625 C633 0.930 . S
H626 C634 0.930 . S
H627 C635 0.930 . S
H628 C638 0.930 . S
H629 C639 0.930 . S
C630 H624 0.930 . S
C630 C631 1.355 . S
C630 C632 1.415 . S
C631 C630 1.355 . S
C631 C633 1.419 . S
C632 C630 1.415 . S
C632 C637 1.425 . S
C632 C639 1.409 . S
C633 H625 0.930 . S
C633 C631 1.419 . S
C633 C634 1.362 . S
C634 H626 0.930 . S
C634 C633 1.362 . S
C634 C637 1.409 . S
C635 H627 0.930 . S
C635 C636 1.355 . S
C635 C637 1.415 . S
C636 C635 1.355 . S
C636 C638 1.419 . S
C637 C632 1.425 . S
C637 C634 1.409 . S
C637 C635 1.415 . S
C638 H628 0.930 . S
C638 C636 1.419 . S
C638 C639 1.362 . S
C639 H629 0.930 . S
C639 C632 1.409 . S
C639 C638 1.362 . S
H640 C646 0.930 . S
H641 C649 0.930 . S
H642 C650 0.930 . S
H643 C651 0.930 . S
H644 C654 0.930 . S
H645 C655 0.930 . S
C646 H640 0.930 . S
C646 C647 1.355 . S
C646 C648 1.415 1_665 S
C647 C646 1.355 . S
C647 C649 1.419 . S
C648 C646 1.415 1_445 S
C648 C653 1.425 1_444 S
C648 C655 1.409 . S
C649 H641 0.930 . S
C649 C647 1.419 . S
C649 C650 1.362 1_554 S
C650 H642 0.930 . S
C650 C649 1.362 1_556 S
C650 C653 1.409 . S
C651 H643 0.930 . S
C651 C652 1.355 . S
C651 C653 1.415 1_445 S
C652 C651 1.355 . S
C652 C654 1.419 . S
C653 C648 1.425 1_666 S
C653 C650 1.409 . S
C653 C651 1.415 1_665 S
C654 H644 0.930 . S
C654 C652 1.419 . S
C654 C655 1.362 1_556 S
C655 H645 0.930 . S
C655 C648 1.409 . S
C655 C654 1.362 1_554 S
H656 C662 0.930 1_545 S
H657 C665 0.930 . S
H658 C666 0.930 . S
H659 C667 0.930 1_565 S
H660 C670 0.930 . S
H661 C671 0.930 . S
C662 H656 0.930 1_565 S
C662 C663 1.355 . S
C662 C664 1.415 1_565 S
C663 C662 1.355 . S
C663 C665 1.419 . S
C664 C662 1.415 1_545 S
C664 C669 1.425 1_545 S
C664 C671 1.409 . S
C665 H657 0.930 . S
C665 C663 1.419 . S
C665 C666 1.362 . S
C666 H658 0.930 . S
C666 C665 1.362 . S
C666 C669 1.409 . S
C667 H659 0.930 1_545 S
C667 C668 1.355 . S
C667 C669 1.415 1_545 S
C668 C667 1.355 . S
C668 C670 1.419 . S
C669 C664 1.425 1_565 S
C669 C666 1.409 . S
C669 C667 1.415 1_565 S
C670 H660 0.930 . S
C670 C668 1.419 . S
C670 C671 1.362 . S
C671 H661 0.930 . S
C671 C664 1.409 . S
C671 C670 1.362 . S
H672 C678 0.930 . S
H673 C681 0.930 . S
H674 C682 0.931 1_554 S
H675 C683 0.930 . S
H676 C686 0.930 . S
H677 C687 0.930 . S
C678 H672 0.930 . S
C678 C679 1.355 . S
C678 C680 1.415 1_556 S
C679 C678 1.355 . S
C679 C681 1.419 . S
C680 C678 1.415 1_554 S
C680 C685 1.425 . S
C680 C687 1.409 . S
C681 H673 0.930 . S
C681 C679 1.419 . S
C681 C682 1.360 . S
C682 H674 0.931 1_556 S
C682 C681 1.360 . S
C682 C685 1.411 1_556 S
C683 H675 0.930 . S
C683 C684 1.355 . S
C683 C685 1.415 . S
C684 C683 1.355 . S
C684 C686 1.419 . S
C685 C680 1.425 . S
C685 C682 1.411 1_554 S
C685 C683 1.415 . S
C686 H676 0.930 . S
C686 C684 1.419 . S
C686 C687 1.362 . S
C687 H677 0.930 . S
C687 C680 1.409 . S
C687 C686 1.362 . S
H688 C694 0.930 . S
H689 C697 0.930 . S
H690 C698 0.930 . S
H691 C699 0.930 . S
H692 C702 0.930 . S
H693 C703 0.930 . S
C694 H688 0.930 . S
C694 C695 1.355 . S
C694 C696 1.415 . S
C695 C694 1.355 . S
C695 C697 1.419 . S
C696 C694 1.415 . S
C696 C701 1.425 . S
C696 C703 1.409 . S
C697 H689 0.930 . S
C697 C695 1.419 . S
C697 C698 1.362 . S
C698 H690 0.930 . S
C698 C697 1.362 . S
C698 C701 1.409 . S
C699 H691 0.930 . S
C699 C700 1.355 . S
C699 C701 1.415 . S
C700 C699 1.355 . S
C700 C702 1.419 . S
C701 C696 1.425 . S
C701 C698 1.409 . S
C701 C699 1.415 . S
C702 H692 0.930 . S
C702 C700 1.419 . S
C702 C703 1.362 . S
C703 H693 0.930 . S
C703 C696 1.409 . S
C703 C702 1.362 . S
H704 C710 0.930 . S
H705 C713 0.930 . S
H706 C714 0.930 . S
H707 C715 0.930 . S
H708 C718 0.930 . S
H709 C719 0.930 . S
C710 H704 0.930 . S
C710 C711 1.355 . S
C710 C712 1.415 . S
C711 C710 1.355 . S
C711 C713 1.419 . S
C712 C710 1.415 . S
C712 C717 1.425 . S
C712 C719 1.409 . S
C713 H705 0.930 . S
C713 C711 1.419 . S
C713 C714 1.362 . S
C714 H706 0.930 . S
C714 C713 1.362 . S
C714 C717 1.409 . S
C715 H707 0.930 . S
C715 C716 1.355 . S
C715 C717 1.415 . S
C716 C715 1.355 . S
C716 C718 1.419 . S
C717 C712 1.425 . S
C717 C714 1.409 . S
C717 C715 1.415 . S
C718 H708 0.930 . S
C718 C716 1.419 . S
C718 C719 1.362 . S
C719 H709 0.930 . S
C719 C712 1.409 . S
C719 C718 1.362 . S
H720 C726 0.930 . S
H721 C729 0.930 . S
H722 C730 0.930 . S
H723 C731 0.930 . S
H724 C734 0.930 . S
H725 C735 0.930 . S
C726 H720 0.930 . S
C726 C727 1.355 . S
C726 C728 1.415 . S
C727 C726 1.355 . S
C727 C729 1.419 . S
C728 C726 1.415 . S
C728 C733 1.425 . S
C728 C735 1.409 . S
C729 H721 0.930 . S
C729 C727 1.419 . S
C729 C730 1.362 . S
C730 H722 0.930 . S
C730 C729 1.362 . S
C730 C733 1.409 . S
C731 H723 0.930 . S
C731 C732 1.355 . S
C731 C733 1.415 . S
C732 C731 1.355 . S
C732 C734 1.419 . S
C733 C728 1.425 . S
C733 C730 1.409 . S
C733 C731 1.415 . S
C734 H724 0.930 . S
C734 C732 1.419 . S
C734 C735 1.362 . S
C735 H725 0.930 . S
C735 C728 1.409 . S
C735 C734 1.362 . S
H736 C742 0.930 . S
H737 C745 0.930 . S
H738 C746 0.930 . S
H739 C747 0.930 . S
H740 C750 0.930 . S
H741 C751 0.930 . S
C742 H736 0.930 . S
C742 C743 1.355 . S
C742 C744 1.415 1_554 S
C743 C742 1.355 . S
C743 C745 1.419 . S
C744 C742 1.415 1_556 S
C744 C749 1.425 . S
C744 C751 1.409 . S
C745 H737 0.930 . S
C745 C743 1.419 . S
C745 C746 1.362 1_554 S
C746 H738 0.930 . S
C746 C745 1.362 1_556 S
C746 C749 1.409 . S
C747 H739 0.930 . S
C747 C748 1.355 . S
C747 C749 1.415 . S
C748 C747 1.355 . S
C748 C750 1.419 . S
C749 C744 1.425 . S
C749 C746 1.409 . S
C749 C747 1.415 . S
C750 H740 0.930 . S
C750 C748 1.419 . S
C750 C751 1.362 . S
C751 H741 0.930 . S
C751 C744 1.409 . S
C751 C750 1.362 . S
H752 C758 0.930 . S
H753 C761 0.930 . S
H754 C762 0.930 . S
H755 C763 0.930 . S
H756 C766 0.930 . S
H757 C767 0.930 . S
C758 H752 0.930 . S
C758 C759 1.355 . S
C758 C760 1.415 . S
C759 C758 1.355 . S
C759 C761 1.419 . S
C760 C758 1.415 . S
C760 C765 1.425 . S
C760 C767 1.409 . S
C761 H753 0.930 . S
C761 C759 1.419 . S
C761 C762 1.362 . S
C762 H754 0.930 . S
C762 C761 1.362 . S
C762 C765 1.409 . S
C763 H755 0.930 . S
C763 C764 1.355 . S
C763 C765 1.415 . S
C764 C763 1.355 . S
C764 C766 1.419 . S
C765 C760 1.425 . S
C765 C762 1.409 . S
C765 C763 1.415 . S
C766 H756 0.930 . S
C766 C764 1.419 . S
C766 C767 1.362 . S
C767 H757 0.930 . S
C767 C760 1.409 . S
C767 C766 1.362 . S
H768 C774 0.930 . S
H769 C777 0.930 . S
H770 C778 0.930 . S
H771 C779 0.930 . S
H772 C782 0.930 . S
H773 C783 0.930 . S
C774 H768 0.930 . S
C774 C775 1.355 . S
C774 C776 1.415 . S
C775 C774 1.355 . S
C775 C777 1.419 . S
C776 C774 1.415 . S
C776 C781 1.425 . S
C776 C783 1.409 . S
C777 H769 0.930 . S
C777 C775 1.419 . S
C777 C778 1.362 . S
C778 H770 0.930 . S
C778 C777 1.362 . S
C778 C781 1.409 . S
C779 H771 0.930 . S
C779 C780 1.355 . S
C779 C781 1.415 . S
C780 C779 1.355 . S
C780 C782 1.419 . S
C781 C776 1.425 . S
C781 C778 1.409 . S
C781 C779 1.415 . S
C782 H772 0.930 . S
C782 C780 1.419 . S
C782 C783 1.362 . S
C783 H773 0.930 . S
C783 C776 1.409 . S
C783 C782 1.362 . S
H784 C790 0.930 . S
H785 C793 0.930 . S
H786 C794 0.930 . S
H787 C795 0.930 . S
H788 C798 0.930 . S
H789 C799 0.930 . S
C790 H784 0.930 . S
C790 C791 1.355 . S
C790 C792 1.415 . S
C791 C790 1.355 . S
C791 C793 1.419 . S
C792 C790 1.415 . S
C792 C797 1.425 . S
C792 C799 1.409 . S
C793 H785 0.930 . S
C793 C791 1.419 . S
C793 C794 1.362 . S
C794 H786 0.930 . S
C794 C793 1.362 . S
C794 C797 1.409 . S
C795 H787 0.930 . S
C795 C796 1.355 . S
C795 C797 1.415 . S
C796 C795 1.355 . S
C796 C798 1.419 . S
C797 C792 1.425 . S
C797 C794 1.409 . S
C797 C795 1.415 . S
C798 H788 0.930 . S
C798 C796 1.419 . S
C798 C799 1.362 . S
C799 H789 0.930 . S
C799 C792 1.409 . S
C799 C798 1.362 . S
H800 C806 0.930 . S
H801 C809 0.930 . S
H802 C810 0.930 . S
H803 C811 0.930 . S
H804 C814 0.930 . S
H805 C815 0.930 . S
C806 H800 0.930 . S
C806 C807 1.355 . S
C806 C808 1.415 . S
C807 C806 1.355 . S
C807 C809 1.419 . S
C808 C806 1.415 . S
C808 C813 1.425 . S
C808 C815 1.409 . S
C809 H801 0.930 . S
C809 C807 1.419 . S
C809 C810 1.362 . S
C810 H802 0.930 . S
C810 C809 1.362 . S
C810 C813 1.409 . S
C811 H803 0.930 . S
C811 C812 1.355 . S
C811 C813 1.415 . S
C812 C811 1.355 . S
C812 C814 1.419 . S
C813 C808 1.425 . S
C813 C810 1.409 . S
C813 C811 1.415 . S
C814 H804 0.930 . S
C814 C812 1.419 . S
C814 C815 1.362 . S
C815 H805 0.930 . S
C815 C808 1.409 . S
C815 C814 1.362 . S
H816 C822 0.930 . S
H817 C825 0.930 . S
H818 C826 0.930 1_565 S
H819 C827 0.930 1_565 S
H820 C830 0.930 . S
H821 C831 0.930 . S
C822 H816 0.930 . S
C822 C823 1.355 . S
C822 C824 1.415 . S
C823 C822 1.355 . S
C823 C825 1.419 . S
C824 C822 1.415 . S
C824 C829 1.425 . S
C824 C831 1.409 . S
C825 H817 0.930 . S
C825 C823 1.419 . S
C825 C826 1.362 . S
C826 H818 0.930 1_545 S
C826 C825 1.362 . S
C826 C829 1.409 . S
C827 H819 0.930 1_545 S
C827 C828 1.355 . S
C827 C829 1.415 . S
C828 C827 1.355 . S
C828 C830 1.419 . S
C829 C824 1.425 . S
C829 C826 1.409 . S
C829 C827 1.415 . S
C830 H820 0.930 . S
C830 C828 1.419 . S
C830 C831 1.362 . S
C831 H821 0.930 . S
C831 C824 1.409 . S
C831 C830 1.362 . S
H832 C838 0.930 . S
H833 C841 0.930 . S
H834 C842 0.930 . S
H835 C843 0.930 . S
H836 C846 0.930 . S
H837 C847 0.930 . S
C838 H832 0.930 . S
C838 C839 1.355 . S
C838 C840 1.415 . S
C839 C838 1.355 . S
C839 C841 1.419 . S
C840 C838 1.415 . S
C840 C845 1.425 . S
C840 C847 1.409 1_554 S
C841 H833 0.930 . S
C841 C839 1.419 . S
C841 C842 1.362 . S
C842 H834 0.930 . S
C842 C841 1.362 . S
C842 C845 1.409 . S
C843 H835 0.930 . S
C843 C844 1.355 . S
C843 C845 1.415 1_556 S
C844 C843 1.355 . S
C844 C846 1.419 . S
C845 C840 1.425 . S
C845 C842 1.409 . S
C845 C843 1.415 1_554 S
C846 H836 0.930 . S
C846 C844 1.419 . S
C846 C847 1.362 . S
C847 H837 0.930 . S
C847 C840 1.409 1_556 S
C847 C846 1.362 . S
H848 C854 0.930 . S
H849 C857 0.930 . S
H850 C858 0.938 . S
H851 C859 0.930 . S
H852 C862 0.930 . S
H853 C863 0.930 . S
C854 H848 0.930 . S
C854 C855 1.355 . S
C854 C856 1.415 . S
C855 C854 1.355 . S
C855 C857 1.419 1_565 S
C856 C854 1.415 . S
C856 C861 1.425 . S
C856 C863 1.409 . S
C857 H849 0.930 . S
C857 C855 1.419 1_545 S
C857 C858 1.362 1_545 S
C858 H850 0.938 . S
C858 C857 1.362 1_565 S
C858 C861 1.409 . S
C859 H851 0.930 . S
C859 C860 1.355 . S
C859 C861 1.415 . S
C860 C859 1.355 . S
C860 C862 1.419 . S
C861 C856 1.425 . S
C861 C858 1.409 . S
C861 C859 1.415 . S
C862 H852 0.930 . S
C862 C860 1.419 . S
C862 C863 1.362 . S
C863 H853 0.930 . S
C863 C856 1.409 . S
C863 C862 1.362 . S
H864 C870 0.930 . S
H865 C873 0.930 . S
H866 C874 0.930 . S
H867 C875 0.930 . S
H868 C878 0.930 . S
H869 C879 0.930 . S
C870 H864 0.930 . S
C870 C871 1.355 . S
C870 C872 1.415 . S
C871 C870 1.355 . S
C871 C873 1.419 . S
C872 C870 1.415 . S
C872 C877 1.425 . S
C872 C879 1.409 . S
C873 H865 0.930 . S
C873 C871 1.419 . S
C873 C874 1.362 . S
C874 H866 0.930 . S
C874 C873 1.362 . S
C874 C877 1.409 . S
C875 H867 0.930 . S
C875 C876 1.355 . S
C875 C877 1.415 . S
C876 C875 1.355 . S
C876 C878 1.419 . S
C877 C872 1.425 . S
C877 C874 1.409 . S
C877 C875 1.415 . S
C878 H868 0.930 . S
C878 C876 1.419 . S
C878 C879 1.362 . S
C879 H869 0.930 . S
C879 C872 1.409 . S
C879 C878 1.362 . S
H880 C886 0.930 . S
H881 C889 0.930 . S
H882 C890 0.930 . S
H883 C891 0.930 . S
H884 C894 0.930 . S
H885 C895 0.930 . S
C886 H880 0.930 . S
C886 C887 1.355 . S
C886 C888 1.415 . S
C887 C886 1.355 . S
C887 C889 1.419 . S
C888 C886 1.415 . S
C888 C893 1.425 . S
C888 C895 1.409 1_565 S
C889 H881 0.930 . S
C889 C887 1.419 . S
C889 C890 1.362 . S
C890 H882 0.930 . S
C890 C889 1.362 . S
C890 C893 1.409 . S
C891 H883 0.930 . S
C891 C892 1.355 . S
C891 C893 1.415 . S
C892 C891 1.355 . S
C892 C894 1.419 1_565 S
C893 C888 1.425 . S
C893 C890 1.409 . S
C893 C891 1.415 . S
C894 H884 0.930 . S
C894 C892 1.419 1_545 S
C894 C895 1.362 . S
C895 H885 0.930 . S
C895 C888 1.409 1_545 S
C895 C894 1.362 . S
H896 C902 0.930 . S
H897 C905 0.930 . S
H898 C906 0.930 . S
H899 C907 0.930 . S
H900 C910 0.930 . S
H901 C911 0.930 . S
C902 H896 0.930 . S
C902 C903 1.355 . S
C902 C904 1.415 1_554 S
C903 C902 1.355 . S
C903 C905 1.419 . S
C904 C902 1.415 1_556 S
C904 C909 1.425 . S
C904 C911 1.409 . S
C905 H897 0.930 . S
C905 C903 1.419 . S
C905 C906 1.362 1_554 S
C906 H898 0.930 . S
C906 C905 1.362 1_556 S
C906 C909 1.409 . S
C907 H899 0.930 . S
C907 C908 1.355 . S
C907 C909 1.415 . S
C908 C907 1.355 . S
C908 C910 1.419 . S
C909 C904 1.425 . S
C909 C906 1.409 . S
C909 C907 1.415 . S
C910 H900 0.930 . S
C910 C908 1.419 . S
C910 C911 1.362 . S
C911 H901 0.930 . S
C911 C904 1.409 . S
C911 C910 1.362 . S
H912 C918 0.930 . S
H913 C921 0.930 . S
H914 C922 0.930 . S
H915 C923 0.930 . S
H916 C926 0.930 . S
H917 C927 0.930 . S
C918 H912 0.930 . S
C918 C919 1.355 . S
C918 C920 1.415 . S
C919 C918 1.355 . S
C919 C921 1.419 . S
C920 C918 1.415 . S
C920 C925 1.425 . S
C920 C927 1.409 . S
C921 H913 0.930 . S
C921 C919 1.419 . S
C921 C922 1.362 . S
C922 H914 0.930 . S
C922 C921 1.362 . S
C922 C925 1.409 . S
C923 H915 0.930 . S
C923 C924 1.355 . S
C923 C925 1.415 . S
C924 C923 1.355 . S
C924 C926 1.419 . S
C925 C920 1.425 . S
C925 C922 1.409 . S
C925 C923 1.415 . S
C926 H916 0.930 . S
C926 C924 1.419 . S
C926 C927 1.362 . S
C927 H917 0.930 . S
C927 C920 1.409 . S
C927 C926 1.362 . S
H928 C934 0.930 . S
H929 C937 0.930 . S
H930 C938 0.930 . S
H931 C939 0.930 . S
H932 C942 0.930 . S
H933 C943 0.930 . S
C934 H928 0.930 . S
C934 C935 1.355 . S
C934 C936 1.415 . S
C935 C934 1.355 . S
C935 C937 1.419 . S
C936 C934 1.415 . S
C936 C941 1.425 . S
C936 C943 1.409 . S
C937 H929 0.930 . S
C937 C935 1.419 . S
C937 C938 1.362 . S
C938 H930 0.930 . S
C938 C937 1.362 . S
C938 C941 1.409 . S
C939 H931 0.930 . S
C939 C940 1.355 . S
C939 C941 1.415 . S
C940 C939 1.355 . S
C940 C942 1.419 . S
C941 C936 1.425 . S
C941 C938 1.409 . S
C941 C939 1.415 . S
C942 H932 0.930 . S
C942 C940 1.419 . S
C942 C943 1.362 . S
C943 H933 0.930 . S
C943 C936 1.409 . S
C943 C942 1.362 . S
H944 C950 0.930 . S
H945 C953 0.930 . S
H946 C954 0.930 . S
H947 C955 0.930 . S
H948 C958 0.930 . S
H949 C959 0.930 . S
C950 H944 0.930 . S
C950 C951 1.355 . S
C950 C952 1.415 . S
C951 C950 1.355 . S
C951 C953 1.419 . S
C952 C950 1.415 . S
C952 C957 1.425 . S
C952 C959 1.409 . S
C953 H945 0.930 . S
C953 C951 1.419 . S
C953 C954 1.362 . S
C954 H946 0.930 . S
C954 C953 1.362 . S
C954 C957 1.409 . S
C955 H947 0.930 . S
C955 C956 1.355 . S
C955 C957 1.415 . S
C956 C955 1.355 . S
C956 C958 1.419 . S
C957 C952 1.425 . S
C957 C954 1.409 . S
C957 C955 1.415 . S
C958 H948 0.930 . S
C958 C956 1.419 . S
C958 C959 1.362 . S
C959 H949 0.930 . S
C959 C952 1.409 . S
C959 C958 1.362 . S
H960 C966 0.930 . S
H961 C969 0.930 . S
H962 C970 0.930 . S
H963 C971 0.930 . S
H964 C974 0.930 . S
H965 C975 0.930 . S
C966 H960 0.930 . S
C966 C967 1.355 . S
C966 C968 1.415 1_655 S
C967 C966 1.355 . S
C967 C969 1.419 . S
C968 C966 1.415 1_455 S
C968 C973 1.425 1_455 S
C968 C975 1.409 . S
C969 H961 0.930 . S
C969 C967 1.419 . S
C969 C970 1.362 . S
C970 H962 0.930 . S
C970 C969 1.362 . S
C970 C973 1.409 . S
C971 H963 0.930 . S
C971 C972 1.355 . S
C971 C973 1.415 1_455 S
C972 C971 1.355 . S
C972 C974 1.419 . S
C973 C968 1.425 1_655 S
C973 C970 1.409 . S
C973 C971 1.415 1_655 S
C974 H964 0.930 . S
C974 C972 1.419 . S
C974 C975 1.362 . S
C975 H965 0.930 . S
C975 C968 1.409 . S
C975 C974 1.362 . S
H976 C982 0.930 1_455 S
H977 C985 0.930 . S
H978 C986 0.930 . S
H979 C987 0.930 1_655 S
H980 C990 0.930 . S
H981 C991 0.930 . S
C982 H976 0.930 1_655 S
C982 C983 1.355 . S
C982 C984 1.415 1_655 S
C983 C982 1.355 . S
C983 C985 1.419 . S
C984 C982 1.415 1_455 S
C984 C989 1.425 1_455 S
C984 C991 1.409 . S
C985 H977 0.930 . S
C985 C983 1.419 . S
C985 C986 1.362 . S
C986 H978 0.930 . S
C986 C985 1.362 . S
C986 C989 1.409 . S
C987 H979 0.930 1_455 S
C987 C988 1.355 . S
C987 C989 1.415 1_455 S
C988 C987 1.355 . S
C988 C990 1.419 . S
C989 C984 1.425 1_655 S
C989 C986 1.409 . S
C989 C987 1.415 1_655 S
C990 H980 0.930 . S
C990 C988 1.419 . S
C990 C991 1.362 . S
C991 H981 0.930 . S
C991 C984 1.409 . S
C991 C990 1.362 . S
H992 C998 0.930 . S
H993 C1001 0.930 . S
H994 C1002 0.930 . S
H995 C1003 0.930 . S
H996 C1006 0.930 . S
H997 C1007 0.930 . S
C998 H992 0.930 . S
C998 C999 1.355 . S
C998 C1000 1.415 . S
C999 C998 1.355 . S
C999 C1001 1.419 . S
C1000 C998 1.415 . S
C1000 C1005 1.425 . S
C1000 C1007 1.409 . S
C1001 H993 0.930 . S
C1001 C999 1.419 . S
C1001 C1002 1.362 . S
C1002 H994 0.930 . S
C1002 C1001 1.362 . S
C1002 C1005 1.409 . S
C1003 H995 0.930 . S
C1003 C1004 1.355 . S
C1003 C1005 1.415 . S
C1004 C1003 1.355 . S
C1004 C1006 1.419 . S
C1005 C1000 1.425 . S
C1005 C1002 1.409 . S
C1005 C1003 1.415 . S
C1006 H996 0.930 . S
C1006 C1004 1.419 . S
C1006 C1007 1.362 . S
C1007 H997 0.930 . S
C1007 C1000 1.409 . S
C1007 C1006 1.362 . S
H1008 C1014 0.930 . S
H1009 C1017 0.930 . S
H1010 C1018 0.930 . S
H1011 C1019 0.930 . S
H1012 C1022 0.930 . S
H1013 C1023 0.930 . S
C1014 H1008 0.930 . S
C1014 C1015 1.355 . S
C1014 C1016 1.415 . S
C1015 C1014 1.355 . S
C1015 C1017 1.419 . S
C1016 C1014 1.415 . S
C1016 C1021 1.425 . S
C1016 C1023 1.409 . S
C1017 H1009 0.930 . S
C1017 C1015 1.419 . S
C1017 C1018 1.362 . S
C1018 H1010 0.930 . S
C1018 C1017 1.362 . S
C1018 C1021 1.409 . S
C1019 H1011 0.930 . S
C1019 C1020 1.355 . S
C1019 C1021 1.415 . S
C1020 C1019 1.355 . S
C1020 C1022 1.419 . S
C1021 C1016 1.425 . S
C1021 C1018 1.409 . S
C1021 C1019 1.415 . S
C1022 H1012 0.930 . S
C1022 C1020 1.419 . S
C1022 C1023 1.362 . S
C1023 H1013 0.930 . S
C1023 C1016 1.409 . S
C1023 C1022 1.362 . S
H1024 C1030 0.930 . S
H1025 C1033 0.930 . S
H1026 C1034 0.930 . S
H1027 C1035 0.930 . S
H1028 C1038 0.930 . S
H1029 C1039 0.930 . S
C1030 H1024 0.930 . S
C1030 C1031 1.355 . S
C1030 C1032 1.398 1_455 S
C1031 C1030 1.355 . S
C1031 C1033 1.419 . S
C1032 C1030 1.398 1_655 S
C1032 C1037 1.425 1_655 S
C1032 C1039 1.426 . S
C1033 H1025 0.930 . S
C1033 C1031 1.419 . S
C1033 C1034 1.362 . S
C1034 H1026 0.930 . S
C1034 C1033 1.362 . S
C1034 C1037 1.426 . S
C1035 H1027 0.930 . S
C1035 C1036 1.355 . S
C1035 C1037 1.398 1_655 S
C1036 C1035 1.355 . S
C1036 C1038 1.419 . S
C1037 C1032 1.425 1_455 S
C1037 C1034 1.426 . S
C1037 C1035 1.398 1_455 S
C1038 H1028 0.930 . S
C1038 C1036 1.419 . S
C1038 C1039 1.362 . S
C1039 H1029 0.930 . S
C1039 C1032 1.426 . S
C1039 C1038 1.362 . S
H1040 C1046 0.930 . S
H1041 C1049 0.930 . S
H1042 C1050 0.930 . S
H1043 C1051 0.930 . S
H1044 C1054 0.930 . S
H1045 C1055 0.930 . S
C1046 H1040 0.930 . S
C1046 C1047 1.355 . S
C1046 C1048 1.415 1_455 S
C1047 C1046 1.355 . S
C1047 C1049 1.419 . S
C1048 C1046 1.415 1_655 S
C1048 C1053 1.425 1_655 S
C1048 C1055 1.409 . S
C1049 H1041 0.930 . S
C1049 C1047 1.419 . S
C1049 C1050 1.362 . S
C1050 H1042 0.930 . S
C1050 C1049 1.362 . S
C1050 C1053 1.409 . S
C1051 H1043 0.930 . S
C1051 C1052 1.355 . S
C1051 C1053 1.415 1_655 S
C1052 C1051 1.355 . S
C1052 C1054 1.419 . S
C1053 C1048 1.425 1_455 S
C1053 C1050 1.409 . S
C1053 C1051 1.415 1_455 S
C1054 H1044 0.930 . S
C1054 C1052 1.419 . S
C1054 C1055 1.362 . S
C1055 H1045 0.930 . S
C1055 C1048 1.409 . S
C1055 C1054 1.362 . S
H1056 C1062 0.930 . S
H1057 C1065 0.930 . S
H1058 C1066 0.930 . S
H1059 C1067 0.930 . S
H1060 C1070 0.930 . S
H1061 C1071 0.930 . S
C1062 H1056 0.930 . S
C1062 C1063 1.355 . S
C1062 C1064 1.415 . S
C1063 C1062 1.355 . S
C1063 C1065 1.419 . S
C1064 C1062 1.415 . S
C1064 C1069 1.425 . S
C1064 C1071 1.409 . S
C1065 H1057 0.930 . S
C1065 C1063 1.419 . S
C1065 C1066 1.362 . S
C1066 H1058 0.930 . S
C1066 C1065 1.362 . S
C1066 C1069 1.409 . S
C1067 H1059 0.930 . S
C1067 C1068 1.355 . S
C1067 C1069 1.415 . S
C1068 C1067 1.355 . S
C1068 C1070 1.419 . S
C1069 C1064 1.425 . S
C1069 C1066 1.409 . S
C1069 C1067 1.415 . S
C1070 H1060 0.930 . S
C1070 C1068 1.419 . S
C1070 C1071 1.362 . S
C1071 H1061 0.930 . S
C1071 C1064 1.409 . S
C1071 C1070 1.362 . S
H1072 C1078 0.930 . S
H1073 C1081 0.930 . S
H1074 C1082 0.930 . S
H1075 C1083 0.930 . S
H1076 C1086 0.930 . S
H1077 C1087 0.930 . S
C1078 H1072 0.930 . S
C1078 C1079 1.355 . S
C1078 C1080 1.415 . S
C1079 C1078 1.355 . S
C1079 C1081 1.419 . S
C1080 C1078 1.415 . S
C1080 C1085 1.425 . S
C1080 C1087 1.409 . S
C1081 H1073 0.930 . S
C1081 C1079 1.419 . S
C1081 C1082 1.362 . S
C1082 H1074 0.930 . S
C1082 C1081 1.362 . S
C1082 C1085 1.409 . S
C1083 H1075 0.930 . S
C1083 C1084 1.355 . S
C1083 C1085 1.415 . S
C1084 C1083 1.355 . S
C1084 C1086 1.419 . S
C1085 C1080 1.425 . S
C1085 C1082 1.409 . S
C1085 C1083 1.415 . S
C1086 H1076 0.930 . S
C1086 C1084 1.419 . S
C1086 C1087 1.362 . S
C1087 H1077 0.930 . S
C1087 C1080 1.409 . S
C1087 C1086 1.362 . S
H1088 C1094 0.930 . S
H1089 C1097 0.930 . S
H1090 C1098 0.930 . S
H1091 C1099 0.930 . S
H1092 C1102 0.930 . S
H1093 C1103 0.930 . S
C1094 H1088 0.930 . S
C1094 C1095 1.355 . S
C1094 C1096 1.415 . S
C1095 C1094 1.355 . S
C1095 C1097 1.419 . S
C1096 C1094 1.415 . S
C1096 C1101 1.425 . S
C1096 C1103 1.409 . S
C1097 H1089 0.930 . S
C1097 C1095 1.419 . S
C1097 C1098 1.362 . S
C1098 H1090 0.930 . S
C1098 C1097 1.362 . S
C1098 C1101 1.409 . S
C1099 H1091 0.930 . S
C1099 C1100 1.355 . S
C1099 C1101 1.415 . S
C1100 C1099 1.355 . S
C1100 C1102 1.419 . S
C1101 C1096 1.425 . S
C1101 C1098 1.409 . S
C1101 C1099 1.415 . S
C1102 H1092 0.930 . S
C1102 C1100 1.419 . S
C1102 C1103 1.362 . S
C1103 H1093 0.930 . S
C1103 C1096 1.409 . S
C1103 C1102 1.362 . S
H1104 C1110 0.930 . S
H1105 C1113 0.930 . S
H1106 C1114 0.930 . S
H1107 C1115 0.930 . S
H1108 C1118 0.930 . S
H1109 C1119 0.930 . S
C1110 H1104 0.930 . S
C1110 C1111 1.355 . S
C1110 C1112 1.415 . S
C1111 C1110 1.355 . S
C1111 C1113 1.419 . S
C1112 C1110 1.415 . S
C1112 C1117 1.425 . S
C1112 C1119 1.409 . S
C1113 H1105 0.930 . S
C1113 C1111 1.419 . S
C1113 C1114 1.362 . S
C1114 H1106 0.930 . S
C1114 C1113 1.362 . S
C1114 C1117 1.409 . S
C1115 H1107 0.930 . S
C1115 C1116 1.355 . S
C1115 C1117 1.415 . S
C1116 C1115 1.355 . S
C1116 C1118 1.419 . S
C1117 C1112 1.425 . S
C1117 C1114 1.409 . S
C1117 C1115 1.415 . S
C1118 H1108 0.930 . S
C1118 C1116 1.419 . S
C1118 C1119 1.362 . S
C1119 H1109 0.930 . S
C1119 C1112 1.409 . S
C1119 C1118 1.362 . S
H1120 C1126 0.930 . S
H1121 C1129 0.930 . S
H1122 C1130 0.930 . S
H1123 C1131 0.930 . S
H1124 C1134 0.930 . S
H1125 C1135 0.930 . S
C1126 H1120 0.930 . S
C1126 C1127 1.355 . S
C1126 C1128 1.415 . S
C1127 C1126 1.355 . S
C1127 C1129 1.419 . S
C1128 C1126 1.415 . S
C1128 C1133 1.425 . S
C1128 C1135 1.409 . S
C1129 H1121 0.930 . S
C1129 C1127 1.419 . S
C1129 C1130 1.362 . S
C1130 H1122 0.930 . S
C1130 C1129 1.362 . S
C1130 C1133 1.409 . S
C1131 H1123 0.930 . S
C1131 C1132 1.355 . S
C1131 C1133 1.415 . S
C1132 C1131 1.355 . S
C1132 C1134 1.419 . S
C1133 C1128 1.425 . S
C1133 C1130 1.409 . S
C1133 C1131 1.415 . S
C1134 H1124 0.930 . S
C1134 C1132 1.419 . S
C1134 C1135 1.362 . S
C1135 H1125 0.930 . S
C1135 C1128 1.409 . S
C1135 C1134 1.362 . S
H1136 C1142 0.930 . S
H1137 C1145 0.930 . S
H1138 C1146 0.930 . S
H1139 C1147 0.930 . S
H1140 C1150 0.930 . S
H1141 C1151 0.930 . S
C1142 H1136 0.930 . S
C1142 C1143 1.355 . S
C1142 C1144 1.415 . S
C1143 C1142 1.355 . S
C1143 C1145 1.419 . S
C1144 C1142 1.415 . S
C1144 C1149 1.425 . S
C1144 C1151 1.409 . S
C1145 H1137 0.930 . S
C1145 C1143 1.419 . S
C1145 C1146 1.362 . S
C1146 H1138 0.930 . S
C1146 C1145 1.362 . S
C1146 C1149 1.409 . S
C1147 H1139 0.930 . S
C1147 C1148 1.355 . S
C1147 C1149 1.415 . S
C1148 C1147 1.355 . S
C1148 C1150 1.419 . S
C1149 C1144 1.425 . S
C1149 C1146 1.409 . S
C1149 C1147 1.415 . S
C1150 H1140 0.930 . S
C1150 C1148 1.419 . S
C1150 C1151 1.362 . S
C1151 H1141 0.930 . S
C1151 C1144 1.409 . S
C1151 C1150 1.362 . S
H1152 C1158 0.930 . S
H1153 C1161 0.930 . S
H1154 C1162 0.930 . S
H1155 C1163 0.930 . S
H1156 C1166 0.930 . S
H1157 C1167 0.930 . S
C1158 H1152 0.930 . S
C1158 C1159 1.355 . S
C1158 C1160 1.415 . S
C1159 C1158 1.355 . S
C1159 C1161 1.419 . S
C1160 C1158 1.415 . S
C1160 C1165 1.425 . S
C1160 C1167 1.409 . S
C1161 H1153 0.930 . S
C1161 C1159 1.419 . S
C1161 C1162 1.362 . S
C1162 H1154 0.930 . S
C1162 C1161 1.362 . S
C1162 C1165 1.409 . S
C1163 H1155 0.930 . S
C1163 C1164 1.355 . S
C1163 C1165 1.415 . S
C1164 C1163 1.355 . S
C1164 C1166 1.419 . S
C1165 C1160 1.425 . S
C1165 C1162 1.409 . S
C1165 C1163 1.415 . S
C1166 H1156 0.930 . S
C1166 C1164 1.419 . S
C1166 C1167 1.362 . S
C1167 H1157 0.930 . S
C1167 C1160 1.409 . S
C1167 C1166 1.362 . S
H1168 C1174 0.930 . S
H1169 C1177 0.930 . S
H1170 C1178 0.930 . S
H1171 C1179 0.930 . S
H1172 C1182 0.930 . S
H1173 C1183 0.930 . S
C1174 H1168 0.930 . S
C1174 C1175 1.355 . S
C1174 C1176 1.415 . S
C1175 C1174 1.355 . S
C1175 C1177 1.419 . S
C1176 C1174 1.415 . S
C1176 C1181 1.425 . S
C1176 C1183 1.409 . S
C1177 H1169 0.930 . S
C1177 C1175 1.419 . S
C1177 C1178 1.362 . S
C1178 H1170 0.930 . S
C1178 C1177 1.362 . S
C1178 C1181 1.409 . S
C1179 H1171 0.930 . S
C1179 C1180 1.355 . S
C1179 C1181 1.415 . S
C1180 C1179 1.355 . S
C1180 C1182 1.419 . S
C1181 C1176 1.425 . S
C1181 C1178 1.409 . S
C1181 C1179 1.415 . S
C1182 H1172 0.930 . S
C1182 C1180 1.419 . S
C1182 C1183 1.362 . S
C1183 H1173 0.930 . S
C1183 C1176 1.409 . S
C1183 C1182 1.362 . S
H1184 C1190 0.930 . S
H1185 C1193 0.930 . S
H1186 C1194 0.930 . S
H1187 C1195 0.930 . S
H1188 C1198 0.930 1_545 S
H1189 C1199 0.930 . S
C1190 H1184 0.930 . S
C1190 C1191 1.355 . S
C1190 C1192 1.415 . S
C1191 C1190 1.355 . S
C1191 C1193 1.419 . S
C1192 C1190 1.415 . S
C1192 C1197 1.425 . S
C1192 C1199 1.409 . S
C1193 H1185 0.930 . S
C1193 C1191 1.419 . S
C1193 C1194 1.362 . S
C1194 H1186 0.930 . S
C1194 C1193 1.362 . S
C1194 C1197 1.409 . S
C1195 H1187 0.930 . S
C1195 C1196 1.355 . S
C1195 C1197 1.415 . S
C1196 C1195 1.355 . S
C1196 C1198 1.419 . S
C1197 C1192 1.425 . S
C1197 C1194 1.409 . S
C1197 C1195 1.415 . S
C1198 H1188 0.930 1_565 S
C1198 C1196 1.419 . S
C1198 C1199 1.362 . S
C1199 H1189 0.930 . S
C1199 C1192 1.409 . S
C1199 C1198 1.362 . S
H1200 C1206 0.930 . S
H1201 C1209 0.930 . S
H1202 C1210 0.930 . S
H1203 C1211 0.930 . S
H1204 C1214 0.930 . S
H1205 C1215 0.930 . S
C1206 H1200 0.930 . S
C1206 C1207 1.355 . S
C1206 C1208 1.415 . S
C1207 C1206 1.355 . S
C1207 C1209 1.419 . S
C1208 C1206 1.415 . S
C1208 C1213 1.425 . S
C1208 C1215 1.409 . S
C1209 H1201 0.930 . S
C1209 C1207 1.419 . S
C1209 C1210 1.362 . S
C1210 H1202 0.930 . S
C1210 C1209 1.362 . S
C1210 C1213 1.409 . S
C1211 H1203 0.930 . S
C1211 C1212 1.355 . S
C1211 C1213 1.415 . S
C1212 C1211 1.355 . S
C1212 C1214 1.419 . S
C1213 C1208 1.425 . S
C1213 C1210 1.409 . S
C1213 C1211 1.415 . S
C1214 H1204 0.930 . S
C1214 C1212 1.419 . S
C1214 C1215 1.362 . S
C1215 H1205 0.930 . S
C1215 C1208 1.409 . S
C1215 C1214 1.362 . S
H1216 C1222 0.930 . S
H1217 C1225 0.930 . S
H1218 C1226 0.930 . S
H1219 C1227 0.930 . S
H1220 C1230 0.930 . S
H1221 C1231 0.930 . S
C1222 H1216 0.930 . S
C1222 C1223 1.355 . S
C1222 C1224 1.415 . S
C1223 C1222 1.355 . S
C1223 C1225 1.419 . S
C1224 C1222 1.415 . S
C1224 C1229 1.425 . S
C1224 C1231 1.409 . S
C1225 H1217 0.930 . S
C1225 C1223 1.419 . S
C1225 C1226 1.362 . S
C1226 H1218 0.930 . S
C1226 C1225 1.362 . S
C1226 C1229 1.409 . S
C1227 H1219 0.930 . S
C1227 C1228 1.355 . S
C1227 C1229 1.415 . S
C1228 C1227 1.355 . S
C1228 C1230 1.419 . S
C1229 C1224 1.425 . S
C1229 C1226 1.409 . S
C1229 C1227 1.415 . S
C1230 H1220 0.930 . S
C1230 C1228 1.419 . S
C1230 C1231 1.362 . S
C1231 H1221 0.930 . S
C1231 C1224 1.409 . S
C1231 C1230 1.362 . S
H1232 C1238 0.930 . S
H1233 C1241 0.929 . S
H1234 C1242 0.930 . S
H1235 C1243 0.930 . S
H1236 C1246 0.930 . S
H1237 C1247 0.930 . S
C1238 H1232 0.930 . S
C1238 C1239 1.355 . S
C1238 C1240 1.415 . S
C1239 C1238 1.355 . S
C1239 C1241 1.420 1_545 S
C1240 C1238 1.415 . S
C1240 C1245 1.425 . S
C1240 C1247 1.409 . S
C1241 H1233 0.929 . S
C1241 C1239 1.420 1_565 S
C1241 C1242 1.363 1_565 S
C1242 H1234 0.930 . S
C1242 C1241 1.363 1_545 S
C1242 C1245 1.409 . S
C1243 H1235 0.930 . S
C1243 C1244 1.355 . S
C1243 C1245 1.415 . S
C1244 C1243 1.355 . S
C1244 C1246 1.419 . S
C1245 C1240 1.425 . S
C1245 C1242 1.409 . S
C1245 C1243 1.415 . S
C1246 H1236 0.930 . S
C1246 C1244 1.419 . S
C1246 C1247 1.362 . S
C1247 H1237 0.930 . S
C1247 C1240 1.409 . S
C1247 C1246 1.362 . S
H1248 C1254 0.930 . S
H1249 C1257 0.930 . S
H1250 C1258 0.930 . S
H1251 C1259 0.930 . S
H1252 C1262 0.930 . S
H1253 C1263 0.930 . S
C1254 H1248 0.930 . S
C1254 C1255 1.355 . S
C1254 C1256 1.415 . S
C1255 C1254 1.355 . S
C1255 C1257 1.419 . S
C1256 C1254 1.415 . S
C1256 C1261 1.425 . S
C1256 C1263 1.409 . S
C1257 H1249 0.930 . S
C1257 C1255 1.419 . S
C1257 C1258 1.362 . S
C1258 H1250 0.930 . S
C1258 C1257 1.362 . S
C1258 C1261 1.409 . S
C1259 H1251 0.930 . S
C1259 C1260 1.355 . S
C1259 C1261 1.415 . S
C1260 C1259 1.355 . S
C1260 C1262 1.419 . S
C1261 C1256 1.425 . S
C1261 C1258 1.409 . S
C1261 C1259 1.415 . S
C1262 H1252 0.930 . S
C1262 C1260 1.419 . S
C1262 C1263 1.362 . S
C1263 H1253 0.930 . S
C1263 C1256 1.409 . S
C1263 C1262 1.362 . S
H1264 C1270 0.930 1_565 S
H1265 C1273 0.930 . S
H1266 C1274 0.930 . S
H1267 C1275 0.930 . S
H1268 C1278 0.930 . S
H1269 C1279 0.930 . S
C1270 H1264 0.930 1_545 S
C1270 C1271 1.355 . S
C1270 C1272 1.415 . S
C1271 C1270 1.355 . S
C1271 C1273 1.419 . S
C1272 C1270 1.415 . S
C1272 C1277 1.425 . S
C1272 C1279 1.409 . S
C1273 H1265 0.930 . S
C1273 C1271 1.419 . S
C1273 C1274 1.362 . S
C1274 H1266 0.930 . S
C1274 C1273 1.362 . S
C1274 C1277 1.409 . S
C1275 H1267 0.930 . S
C1275 C1276 1.355 . S
C1275 C1277 1.415 . S
C1276 C1275 1.355 . S
C1276 C1278 1.419 . S
C1277 C1272 1.425 . S
C1277 C1274 1.409 . S
C1277 C1275 1.415 . S
C1278 H1268 0.930 . S
C1278 C1276 1.419 . S
C1278 C1279 1.362 . S
C1279 H1269 0.930 . S
C1279 C1272 1.409 . S
C1279 C1278 1.362 . S
H1280 C1286 0.930 . S
H1281 C1289 0.930 . S
H1282 C1290 0.930 . S
H1283 C1291 0.930 . S
H1284 C1294 0.930 . S
H1285 C1295 0.930 . S
C1286 H1280 0.930 . S
C1286 C1287 1.355 . S
C1286 C1288 1.415 . S
C1287 C1286 1.355 . S
C1287 C1289 1.419 . S
C1288 C1286 1.415 . S
C1288 C1293 1.425 . S
C1288 C1295 1.409 . S
C1289 H1281 0.930 . S
C1289 C1287 1.419 . S
C1289 C1290 1.362 . S
C1290 H1282 0.930 . S
C1290 C1289 1.362 . S
C1290 C1293 1.409 . S
C1291 H1283 0.930 . S
C1291 C1292 1.355 . S
C1291 C1293 1.415 . S
C1292 C1291 1.355 . S
C1292 C1294 1.419 . S
C1293 C1288 1.425 . S
C1293 C1290 1.409 . S
C1293 C1291 1.415 . S
C1294 H1284 0.930 . S
C1294 C1292 1.419 . S
C1294 C1295 1.362 . S
C1295 H1285 0.930 . S
C1295 C1288 1.409 . S
C1295 C1294 1.362 . S
H1296 C1302 0.930 . S
H1297 C1305 0.930 . S
H1298 C1306 0.930 . S
H1299 C1307 0.930 . S
H1300 C1310 0.930 . S
H1301 C1311 0.930 . S
C1302 H1296 0.930 . S
C1302 C1303 1.355 . S
C1302 C1304 1.415 . S
C1303 C1302 1.355 . S
C1303 C1305 1.419 . S
C1304 C1302 1.415 . S
C1304 C1309 1.425 . S
C1304 C1311 1.409 . S
C1305 H1297 0.930 . S
C1305 C1303 1.419 . S
C1305 C1306 1.362 . S
C1306 H1298 0.930 . S
C1306 C1305 1.362 . S
C1306 C1309 1.409 . S
C1307 H1299 0.930 . S
C1307 C1308 1.355 . S
C1307 C1309 1.415 . S
C1308 C1307 1.355 . S
C1308 C1310 1.419 . S
C1309 C1304 1.425 . S
C1309 C1306 1.409 . S
C1309 C1307 1.415 . S
C1310 H1300 0.930 . S
C1310 C1308 1.419 . S
C1310 C1311 1.362 . S
C1311 H1301 0.930 . S
C1311 C1304 1.409 . S
C1311 C1310 1.362 . S
C551 C29 1.612 . S
C556 C408 1.612 . S
C567 C170 1.594 . S
C572 C63 1.594 . S
C583 C97 1.600 . S
C588 C476 1.600 . S
C599 C131 1.544 . S
C604 C238 1.544 . S
C615 C136 1.545 . S
C620 C301 1.545 . S
C631 C369 1.557 . S
C636 C204 1.557 . S
C647 C442 1.605 . S
C652 C335 1.605 . S
C663 C403 1.607 . S
C668 C510 1.607 . S
C679 C319 1.634 . S
C684 C0 1.651 . S
C695 C34 1.670 . S
C700 C353 1.589 . S
C711 C68 1.675 . S
C716 C387 1.587 . S
C727 C285 1.673 . S
C732 C102 1.696 . S
C743 C446 1.589 . S
C748 C165 1.694 . S
C759 C480 1.589 . S
C764 C199 1.694 . S
C775 C233 1.699 . S
C780 C514 1.592 . S
C791 C412 1.638 . S
C796 C267 1.718 . S
C807 C272 1.681 . S
C812 C47 1.586 . S
C823 C306 1.677 . S
C828 C81 1.672 1_545 S
C839 C340 1.651 . S
C844 C115 1.633 . S
C855 C13 1.599 1_565 S
C860 C374 1.658 . S
C871 C174 1.664 . S
C876 C437 1.709 . S
C887 C471 1.670 . S
C892 C208 1.588 1_565 S
C903 C242 1.621 . S
C908 C505 1.717 . S
C919 C539 1.653 . S
C924 C140 1.610 1_545 S
C935 C17 1.812 . S
C940 C357 1.813 . S
C951 C51 1.810 . S
C956 C391 1.806 . S
C967 C289 1.813 . S
C972 C85 1.811 . S
C983 C119 1.799 . S
C988 C323 1.796 . S
C999 C144 1.812 . S
C1004 C484 1.813 . S
C1015 C178 1.798 . S
C1020 C518 1.802 . S
C1031 C416 1.813 . S
C1036 C212 1.812 . S
C1047 C246 1.807 . S
C1052 C450 1.802 . S
C1063 C4 1.260 . S
C1068 C255 1.297 . S
C1079 C425 1.274 . S
C1084 C38 1.188 . S
C1095 C72 1.261 . S
C1100 C187 1.302 . S
C1111 C106 1.263 . S
C1116 C493 1.302 . S
C1127 C149 1.173 . S
C1132 C110 1.277 . S
C1143 C280 1.273 . S
C1148 C183 1.180 . S
C1159 C217 1.248 . S
C1164 C42 1.299 . S
C1175 C348 1.273 . S
C1180 C251 1.165 . S
C1191 C276 1.193 . S
C1196 C527 1.276 . S
C1207 C153 1.271 . S
C1212 C310 1.160 . S
C1223 C459 1.300 . S
C1228 C344 1.252 . S
C1239 C378 1.249 . S
C1244 C221 1.300 . S
C1255 C421 1.236 . S
C1260 C382 1.296 . S
C1271 C455 1.208 . S
C1276 C8 1.280 . S
C1287 C314 1.302 . S
C1292 C489 1.260 . S
C1303 C76 1.270 . S
C1308 C523 1.160 . S
