# Generated by pormake.
# Topology crb, (4)-cn, num edge types: 1
# Building blocks:
#     Node 0, Type 0, BuildingBlock: UXUYUI_clean_sbu_0, # of connection points: 4
#     Node 1, Type 0, BuildingBlock: UXUYUI_clean_sbu_0, # of connection points: 4
#     Node 2, Type 0, BuildingBlock: UXUYUI_clean_sbu_0, # of connection points: 4
#     Node 3, Type 0, BuildingBlock: UXUYUI_clean_sbu_0, # of connection points: 4
#     Node 4, Type 0, BuildingBlock: UXUYUI_clean_sbu_0, # of connection points: 4
#     Node 5, Type 0, BuildingBlock: UXUYUI_clean_sbu_0, # of connection points: 4
#     Node 6, Type 0, BuildingBlock: UXUYUI_clean_sbu_0, # of connection points: 4
#     Node 7, Type 0, BuildingBlock: UXUYUI_clean_sbu_0, # of connection points: 4
#     Edge 8, Type (0, 0), None
#     Edge 9, Type (0, 0), None
#     Edge 10, Type (0, 0), None
#     Edge 11, Type (0, 0), None
#     Edge 12, Type (0, 0), None
#     Edge 13, Type (0, 0), None
#     Edge 14, Type (0, 0), None
#     Edge 15, Type (0, 0), None
#     Edge 16, Type (0, 0), None
#     Edge 17, Type (0, 0), None
#     Edge 18, Type (0, 0), None
#     Edge 19, Type (0, 0), None
#     Edge 20, Type (0, 0), None
#     Edge 21, Type (0, 0), None
#     Edge 22, Type (0, 0), None
#     Edge 23, Type (0, 0), None
# Relax obj value: 0.060
# Max RMSD: 0.078
# Mean RMSD: 0.078
data_MOF--net-crb--node1-UXUYUI_clean_sbu_0--edge1-none
_symmetry_space_group_name_H-M    P1
_symmetry_Int_Tables_number       1
_symmetry_cell_setting            triclinic
loop_
_symmetry_equiv_pos_as_xyz
'x, y, z'
_cell_length_a     38.908783
_cell_length_b     38.907264
_cell_length_c     23.051979
_cell_angle_alpha  89.998247
_cell_angle_beta   89.998534
_cell_angle_gamma 89.994513
loop_
_atom_site_label
_atom_site_type_symbol
_atom_site_fract_x
_atom_site_fract_y
_atom_site_fract_z
_atom_type_partial_charge
Li0 Li 0.31321 0.31491 0.06933 0.0
Li1 Li 0.36773 0.32332 0.01394 0.0
Li2 Li 0.32353 0.36791 1.01276 0.0
Li3 Li 0.31473 0.31313 0.95761 0.0
C4 C 0.34979 0.37235 0.12535 0.0
N5 N 0.34968 0.4195 0.21486 0.0
C6 C 0.38082 0.38495 0.14721 0.0
C7 C 0.31872 0.38366 0.14895 0.0
C8 C 0.38022 0.40881 0.19249 0.0
C9 C 0.3192 0.40752 0.19422 0.0
C10 C 0.35206 0.25093 0.02232 0.0
C11 C 0.37591 0.19882 0.98255 0.0
N12 N 0.3827 0.18751 0.0372 0.0
C13 C 0.35904 0.23872 0.07811 0.0
C14 C 0.36032 0.23078 0.97411 0.0
C15 C 0.37463 0.20661 0.08471 0.0
C16 C 0.26164 0.28029 0.13372 0.0
N17 N 0.29286 0.29581 0.13744 0.0
C18 C 0.29565 0.28409 0.23921 0.0
C19 C 0.30999 0.29787 0.18874 0.0
C20 C 0.26345 0.26777 0.23683 0.0
C21 C 0.24642 0.26596 0.18309 0.0
H22 H 0.24859 0.27905 0.09233 0.0
H23 H 0.33498 0.30998 0.19039 0.0
C24 C 0.43418 0.34813 1.00292 0.0
N25 N 0.41686 0.31859 0.01447 0.0
C26 C 0.47002 0.34848 1.00125 0.0
C27 C 0.46994 0.28823 0.02619 0.0
C28 C 0.43399 0.28891 0.02617 0.0
C29 C 0.4886 0.31829 0.01337 0.0
H30 H 0.42004 0.37156 0.99478 0.0
H31 H 0.42003 0.26576 0.03609 0.0
C32 C 0.25096 0.35228 1.00447 0.0
N33 N 0.18746 0.38269 0.9891 0.0
C34 C 0.23872 0.3589 0.94857 0.0
C35 C 0.23077 0.36074 0.05253 0.0
C36 C 0.20658 0.37439 0.94171 0.0
C37 C 0.19879 0.37623 0.04385 0.0
C38 C 0.37303 0.3499 0.90247 0.0
C39 C 0.38668 0.38104 0.88295 0.0
C40 C 0.38409 0.31904 0.87777 0.0
C41 C 0.41135 0.38075 0.83892 0.0
C42 C 0.40879 0.31983 0.83382 0.0
N43 N 0.42181 0.3504 0.81548 0.0
C44 C 0.34796 0.43444 0.02648 0.0
C45 C 0.28965 0.43408 0.99738 0.0
C46 C 0.34815 0.47028 0.02817 0.0
N47 N 0.31891 0.41704 1.01206 0.0
C48 C 0.28887 0.47003 0.99733 0.0
C49 C 0.31838 0.48877 1.01311 0.0
H50 H 0.37113 0.42038 0.03682 0.0
H51 H 0.26697 0.42003 0.98505 0.0
C52 C 0.2799 0.26166 0.89318 0.0
N53 N 0.29556 0.29282 0.88958 0.0
C54 C 0.26564 0.24651 0.84369 0.0
C55 C 0.28407 0.2957 0.78775 0.0
C56 C 0.29783 0.30995 0.83831 0.0
C57 C 0.26763 0.26357 0.78997 0.0
H58 H 0.27854 0.24859 0.93454 0.0
H59 H 0.31009 0.33487 0.83676 0.0
O60 O 0.34991 0.34951 0.0803 0.0
O61 O 0.33649 0.28211 0.01497 0.0
O62 O 0.28216 0.33679 1.01206 0.0
O63 O 0.34933 0.34968 0.94623 0.0
H64 H 0.40507 0.37651 0.12911 0.0
H65 H 0.29454 0.37425 0.13224 0.0
H66 H 0.40402 0.41886 0.20979 0.0
H67 H 0.29534 0.41656 0.21286 0.0
H68 H 0.38255 0.18298 0.94564 0.0
H69 H 0.35277 0.25398 0.11585 0.0
H70 H 0.35466 0.23966 0.93067 0.0
H71 H 0.38034 0.19688 0.12761 0.0
H72 H 0.30992 0.28563 0.27945 0.0
H73 H 0.22142 0.25392 0.17935 0.0
H74 H 0.48287 0.37224 0.99007 0.0
H75 H 0.48284 0.26445 0.03706 0.0
H76 H 0.25399 0.35245 0.91093 0.0
H77 H 0.23962 0.3553 0.09606 0.0
H78 H 0.19685 0.37984 0.89873 0.0
H79 H 0.18292 0.38303 0.08065 0.0
H80 H 0.37843 0.40513 0.90189 0.0
H81 H 0.37384 0.29477 0.89265 0.0
H82 H 0.42223 0.40463 0.82343 0.0
H83 H 0.41766 0.29613 0.81437 0.0
H84 H 0.37145 0.4832 0.04163 0.0
H85 H 0.26547 0.48287 0.9841 0.0
H86 H 0.25353 0.22155 0.84734 0.0
H87 H 0.28576 0.31001 0.74755 0.0
Li88 Li 0.69247 0.36784 0.01393 0.0
Li89 Li 0.7009 0.3133 0.0693 0.0
Li90 Li 0.70262 0.31481 0.95759 0.0
Li91 Li 0.64788 0.32355 1.01278 0.0
C92 C 0.76486 0.35215 0.02227 0.0
N93 N 0.8283 0.38274 0.03718 0.0
C94 C 0.77714 0.35897 0.07808 0.0
C95 C 0.78497 0.36054 0.97407 0.0
C96 C 0.80926 0.37454 0.0847 0.0
C97 C 0.81693 0.37611 0.98252 0.0
C98 C 0.64365 0.34986 0.12561 0.0
C99 C 0.60859 0.31928 0.19465 0.0
N100 N 0.5969 0.34977 0.21574 0.0
C101 C 0.63135 0.3809 0.14792 0.0
C102 C 0.63224 0.31879 0.14906 0.0
C103 C 0.6077 0.38031 0.19352 0.0
C104 C 0.66783 0.43432 1.00168 0.0
N105 N 0.69718 0.41697 0.01446 0.0
C106 C 0.72739 0.47002 0.02747 0.0
C107 C 0.72668 0.43407 0.02744 0.0
C108 C 0.69754 0.48871 0.01338 0.0
C109 C 0.66753 0.47016 1.0 0.0
H110 H 0.64451 0.4202 0.99263 0.0
H111 H 0.74965 0.42008 0.03841 0.0
C112 C 0.7355 0.26171 0.13372 0.0
N113 N 0.72001 0.29295 0.13743 0.0
C114 C 0.74983 0.24649 0.1831 0.0
C115 C 0.73177 0.29576 0.23919 0.0
C116 C 0.71799 0.3101 0.18872 0.0
C117 C 0.74805 0.26354 0.23683 0.0
H118 H 0.73671 0.24864 0.09235 0.0
H119 H 0.70592 0.33511 0.19036 0.0
C120 C 0.66591 0.37276 0.90197 0.0
N121 N 0.66551 0.42079 0.8138 0.0
C122 C 0.63478 0.38593 0.88153 0.0
C123 C 0.69682 0.38393 0.87763 0.0
C124 C 0.63512 0.41022 0.8369 0.0
C125 C 0.69609 0.40825 0.83306 0.0
C126 C 0.66353 0.25102 1.00452 0.0
C127 C 0.65698 0.23871 0.94863 0.0
C128 C 0.655 0.23088 0.05261 0.0
C129 C 0.64149 0.20657 0.94183 0.0
C130 C 0.63951 0.1989 0.04398 0.0
N131 N 0.63311 0.18751 0.98924 0.0
C132 C 0.75413 0.28006 0.89313 0.0
C133 C 0.70579 0.29783 0.83826 0.0
C134 C 0.7693 0.26579 0.84365 0.0
N135 N 0.72294 0.29564 0.88953 0.0
C136 C 0.72005 0.28407 0.78771 0.0
C137 C 0.75223 0.2677 0.78995 0.0
H138 H 0.76722 0.27875 0.93448 0.0
H139 H 0.68083 0.31002 0.83671 0.0
C140 C 0.58134 0.34785 0.02716 0.0
N141 N 0.59876 0.31893 1.0121 0.0
C142 C 0.5455 0.34802 0.02885 0.0
C143 C 0.54579 0.28898 0.99666 0.0
C144 C 0.58174 0.28979 0.99674 0.0
C145 C 0.52702 0.31836 1.01311 0.0
H146 H 0.59538 0.37095 0.03798 0.0
H147 H 0.5958 0.26721 0.98385 0.0
O148 O 0.73369 0.3366 0.01491 0.0
O149 O 0.66628 0.34999 0.08027 0.0
O150 O 0.66606 0.34944 0.94632 0.0
O151 O 0.67904 0.28221 1.01206 0.0
H152 H 0.76193 0.3526 0.11582 0.0
H153 H 0.77606 0.35498 0.93061 0.0
H154 H 0.81903 0.38014 0.1276 0.0
H155 H 0.83273 0.38284 0.94562 0.0
H156 H 0.59948 0.29542 0.21319 0.0
H157 H 0.63986 0.40516 0.12994 0.0
H158 H 0.64141 0.2946 0.132 0.0
H159 H 0.59787 0.40413 0.21116 0.0
H160 H 0.75101 0.4829 0.03936 0.0
H161 H 0.64395 0.48303 0.98784 0.0
H162 H 0.76185 0.22148 0.17937 0.0
H163 H 0.73026 0.31005 0.27942 0.0
H164 H 0.61064 0.37758 0.9002 0.0
H165 H 0.72109 0.37406 0.89323 0.0
H166 H 0.61123 0.42072 0.82069 0.0
H167 H 0.71983 0.4172 0.81386 0.0
H168 H 0.66348 0.25393 0.91096 0.0
H169 H 0.66041 0.23977 0.09613 0.0
H170 H 0.63608 0.19679 0.89885 0.0
H171 H 0.63266 0.18308 0.0808 0.0
H172 H 0.79429 0.25371 0.84731 0.0
H173 H 0.70574 0.2857 0.74752 0.0
H174 H 0.53257 0.3712 0.04282 0.0
H175 H 0.53296 0.26569 0.98289 0.0
Li176 Li 0.64804 0.69249 0.01397 0.0
Li177 Li 0.70263 0.701 0.06929 0.0
Li178 Li 0.70103 0.70272 0.95756 0.0
Li179 Li 0.69234 0.648 1.01279 0.0
C180 C 0.6637 0.76493 0.02229 0.0
N181 N 0.6331 0.82837 0.03721 0.0
C182 C 0.65683 0.77718 0.07809 0.0
C183 C 0.65536 0.78506 0.97409 0.0
C184 C 0.64126 0.8093 0.08472 0.0
C185 C 0.63978 0.81702 0.98255 0.0
C186 C 0.66599 0.64336 0.12513 0.0
C187 C 0.69643 0.60803 0.19397 0.0
N188 N 0.6659 0.59581 0.21405 0.0
C189 C 0.63492 0.63052 0.14642 0.0
C190 C 0.697 0.63209 0.149 0.0
C191 C 0.63542 0.60646 0.19142 0.0
C192 C 0.58158 0.66774 1.00241 0.0
N193 N 0.59891 0.69719 0.01456 0.0
C194 C 0.54585 0.72749 0.0269 0.0
C195 C 0.5818 0.72679 0.02688 0.0
C196 C 0.52718 0.69753 0.01347 0.0
C197 C 0.54574 0.66742 1.00075 0.0
H198 H 0.59571 0.64436 0.99382 0.0
H199 H 0.59578 0.74985 0.03731 0.0
C200 C 0.75416 0.73573 0.13363 0.0
N201 N 0.72299 0.72013 0.13736 0.0
C202 C 0.76937 0.75005 0.18302 0.0
C203 C 0.72021 0.73176 0.23916 0.0
C204 C 0.70588 0.71799 0.18868 0.0
C205 C 0.75237 0.74815 0.23678 0.0
H206 H 0.76719 0.73703 0.09223 0.0
H207 H 0.68093 0.70581 0.19034 0.0
C208 C 0.64292 0.66594 0.90228 0.0
N209 N 0.59447 0.66549 0.81477 0.0
C210 C 0.62949 0.63481 0.88232 0.0
C211 C 0.63179 0.69683 0.87777 0.0
C212 C 0.60499 0.63512 0.83803 0.0
C213 C 0.60726 0.69607 0.83354 0.0
C214 C 0.76487 0.66367 1.00449 0.0
C215 C 0.77715 0.65699 0.94862 0.0
C216 C 0.78502 0.65523 0.05261 0.0
C217 C 0.8093 0.64149 0.94187 0.0
C218 C 0.81701 0.63973 0.04403 0.0
N219 N 0.82837 0.63322 0.98931 0.0
C220 C 0.73577 0.75421 0.8931 0.0
C221 C 0.71796 0.70588 0.83824 0.0
C222 C 0.75004 0.76938 0.84362 0.0
N223 N 0.72017 0.72304 0.8895 0.0
C224 C 0.73171 0.72014 0.78769 0.0
C225 C 0.74811 0.7523 0.78991 0.0
H226 H 0.7371 0.7673 0.93445 0.0
H227 H 0.70574 0.68094 0.8367 0.0
C228 C 0.66785 0.58148 0.02594 0.0
N229 N 0.697 0.59887 1.01211 0.0
C230 C 0.66764 0.54564 0.02761 0.0
C231 C 0.72713 0.54588 0.99795 0.0
C232 C 0.72635 0.58182 0.99802 0.0
C233 C 0.69751 0.52714 1.01313 0.0
H234 H 0.64462 0.59555 0.03584 0.0
H235 H 0.74914 0.59586 0.98617 0.0
O236 O 0.67925 0.73374 0.01491 0.0
O237 O 0.66597 0.6664 0.08037 0.0
O238 O 0.66644 0.66613 0.94631 0.0
O239 O 0.73367 0.67916 1.01198 0.0
H240 H 0.66316 0.76194 0.11583 0.0
H241 H 0.66094 0.77616 0.93064 0.0
H242 H 0.63562 0.81905 0.12763 0.0
H243 H 0.63308 0.83285 0.94565 0.0
H244 H 0.72024 0.59902 0.21281 0.0
H245 H 0.61071 0.63892 0.12811 0.0
H246 H 0.72122 0.64169 0.13273 0.0
H247 H 0.61158 0.59622 0.20827 0.0
H248 H 0.53296 0.7512 0.03826 0.0
H249 H 0.53288 0.64375 0.9891 0.0
H250 H 0.79434 0.76215 0.17927 0.0
H251 H 0.70595 0.73015 0.27942 0.0
H252 H 0.6378 0.61069 0.90112 0.0
H253 H 0.64186 0.7211 0.89299 0.0
H254 H 0.5943 0.61123 0.8222 0.0
H255 H 0.59835 0.71979 0.81422 0.0
H256 H 0.76191 0.66341 0.91094 0.0
H257 H 0.77613 0.6607 0.09611 0.0
H258 H 0.81906 0.636 0.89892 0.0
H259 H 0.83284 0.63295 0.08087 0.0
H260 H 0.76212 0.79435 0.84726 0.0
H261 H 0.73007 0.70583 0.74749 0.0
H262 H 0.64424 0.53273 0.04061 0.0
H263 H 0.75061 0.53303 0.98518 0.0
Li264 Li 0.32334 0.64807 0.01397 0.0
Li265 Li 0.31487 0.70262 0.06933 0.0
Li266 Li 0.31315 0.70109 0.95761 0.0
Li267 Li 0.36789 0.69235 1.01281 0.0
C268 C 0.25094 0.66374 0.0223 0.0
N269 N 0.18751 0.63312 0.03721 0.0
C270 C 0.23869 0.65686 0.07811 0.0
C271 C 0.23082 0.6554 0.9741 0.0
C272 C 0.20657 0.64128 0.08473 0.0
C273 C 0.19886 0.63981 0.98255 0.0
C274 C 0.37229 0.66607 0.12546 0.0
C275 C 0.40742 0.69666 0.19437 0.0
N276 N 0.41934 0.66618 0.21511 0.0
C277 C 0.38483 0.63503 0.14742 0.0
C278 C 0.38361 0.69714 0.14902 0.0
C279 C 0.40863 0.63563 0.19278 0.0
C280 C 0.34808 0.58161 1.00226 0.0
N281 N 0.31864 0.59894 0.01451 0.0
C282 C 0.28838 0.54587 0.02693 0.0
C283 C 0.28907 0.58182 0.02692 0.0
C284 C 0.31832 0.5272 0.01339 0.0
C285 C 0.34841 0.54577 1.00057 0.0
H286 H 0.37145 0.59574 0.9936 0.0
H287 H 0.26602 0.5958 0.03744 0.0
C288 C 0.28018 0.75417 0.13369 0.0
N289 N 0.29575 0.72297 0.13743 0.0
C290 C 0.26584 0.76939 0.18306 0.0
C291 C 0.28405 0.72021 0.23922 0.0
C292 C 0.29784 0.70586 0.18875 0.0
C293 C 0.26769 0.75238 0.23682 0.0
H294 H 0.27892 0.76721 0.09229 0.0
H295 H 0.30998 0.68089 0.19043 0.0
C296 C 0.34992 0.643 0.90223 0.0
N297 N 0.3504 0.59466 0.81455 0.0
C298 C 0.38107 0.62964 0.88217 0.0
C299 C 0.31904 0.63186 0.87773 0.0
C300 C 0.38076 0.60519 0.83779 0.0
C301 C 0.31981 0.60738 0.83342 0.0
C302 C 0.35224 0.76488 1.00448 0.0
C303 C 0.35886 0.77713 0.94858 0.0
C304 C 0.3607 0.78507 0.05255 0.0
C305 C 0.37436 0.80926 0.94173 0.0
C306 C 0.3762 0.81705 0.04387 0.0
N307 N 0.38266 0.82837 0.98912 0.0
C308 C 0.26167 0.73587 0.89315 0.0
C309 C 0.30998 0.71801 0.83828 0.0
C310 C 0.2465 0.75014 0.84367 0.0
N311 N 0.29284 0.72025 0.88954 0.0
C312 C 0.29572 0.73177 0.78772 0.0
C313 C 0.26357 0.74818 0.78995 0.0
H314 H 0.24859 0.73722 0.93451 0.0
H315 H 0.33491 0.70578 0.83672 0.0
C316 C 0.43442 0.66794 0.02667 0.0
N317 N 0.41702 0.69697 1.01214 0.0
C318 C 0.47026 0.66774 0.02836 0.0
C319 C 0.47001 0.72698 0.99731 0.0
C320 C 0.43406 0.72621 0.99737 0.0
C321 C 0.48875 0.69749 1.0132 0.0
H322 H 0.42036 0.64478 0.03707 0.0
H323 H 0.42002 0.74888 0.98495 0.0
O324 O 0.28211 0.6793 0.01494 0.0
O325 O 0.3495 0.66594 0.08034 0.0
O326 O 0.34973 0.66648 0.94632 0.0
O327 O 0.33674 0.73369 1.01207 0.0
H328 H 0.25392 0.66319 0.11585 0.0
H329 H 0.23972 0.66099 0.93065 0.0
H330 H 0.19682 0.63563 0.12763 0.0
H331 H 0.18305 0.63311 0.94565 0.0
H332 H 0.41646 0.72052 0.21299 0.0
H333 H 0.37638 0.61078 0.12935 0.0
H334 H 0.37425 0.72132 0.13222 0.0
H335 H 0.41864 0.61182 0.21016 0.0
H336 H 0.26469 0.53297 0.03837 0.0
H337 H 0.37207 0.53291 0.98884 0.0
H338 H 0.25376 0.79437 0.1793 0.0
H339 H 0.28563 0.70595 0.27948 0.0
H340 H 0.40518 0.63796 0.90095 0.0
H341 H 0.29476 0.64188 0.89303 0.0
H342 H 0.40466 0.59455 0.82188 0.0
H343 H 0.2961 0.59846 0.81411 0.0
H344 H 0.35242 0.76186 0.91094 0.0
H345 H 0.35525 0.77622 0.09607 0.0
H346 H 0.37982 0.81899 0.89875 0.0
H347 H 0.38299 0.83291 0.08066 0.0
H348 H 0.22153 0.76224 0.84732 0.0
H349 H 0.31002 0.7301 0.74752 0.0
H350 H 0.48317 0.64445 0.0419 0.0
H351 H 0.48285 0.75036 0.984 0.0
Li352 Li 0.8131 0.81477 0.56914 0.0
Li353 Li 0.86788 0.82354 0.51402 0.0
Li354 Li 0.82332 0.86778 0.51283 0.0
Li355 Li 0.81489 0.81327 0.45743 0.0
C356 C 0.84989 0.87298 0.62442 0.0
N357 N 0.85041 0.92157 0.7117 0.0
C358 C 0.88103 0.88647 0.64417 0.0
C359 C 0.81902 0.8841 0.64902 0.0
C360 C 0.88075 0.91105 0.68835 0.0
C361 C 0.81982 0.9087 0.69312 0.0
C362 C 0.85222 0.75099 0.52231 0.0
C363 C 0.87617 0.69879 0.48299 0.0
N364 N 0.8826 0.68748 0.53776 0.0
C365 C 0.85881 0.73875 0.57823 0.0
C366 C 0.8607 0.73079 0.47427 0.0
C367 C 0.87428 0.7066 0.58512 0.0
C368 C 0.76163 0.77991 0.63351 0.0
N369 N 0.79276 0.7956 0.63716 0.0
C370 C 0.79559 0.78414 0.739 0.0
C371 C 0.80986 0.79789 0.68845 0.0
C372 C 0.76348 0.76766 0.73673 0.0
C373 C 0.74646 0.76565 0.68298 0.0
H374 H 0.74859 0.77853 0.59213 0.0
H375 H 0.83477 0.81017 0.69004 0.0
C376 C 0.93442 0.84792 0.50023 0.0
N377 N 0.917 0.8189 0.51474 0.0
C378 C 0.97026 0.8481 0.49856 0.0
C379 C 0.96998 0.78885 0.5296 0.0
C380 C 0.93403 0.78965 0.52952 0.0
C381 C 0.98874 0.81833 0.51373 0.0
H382 H 0.92037 0.87109 0.48982 0.0
H383 H 0.91997 0.76698 0.54192 0.0
C384 C 0.75091 0.85211 0.50447 0.0
N385 N 0.68746 0.88272 0.48968 0.0
C386 C 0.73865 0.85905 0.44869 0.0
C387 C 0.73079 0.8604 0.55271 0.0
C388 C 0.70652 0.87462 0.44213 0.0
C389 C 0.69882 0.87598 0.54432 0.0
C390 C 0.87232 0.8498 0.40138 0.0
C391 C 0.88491 0.88081 0.37945 0.0
C392 C 0.88361 0.81871 0.37781 0.0
C393 C 0.90874 0.88018 0.33412 0.0
C394 C 0.90743 0.81916 0.33249 0.0
N395 N 0.91941 0.84962 0.31178 0.0
C396 C 0.84808 0.93425 0.5242 0.0
C397 C 0.78896 0.93403 0.50023 0.0
C398 C 0.84841 0.97009 0.52587 0.0
N399 N 0.8186 0.91692 0.51229 0.0
C400 C 0.78827 0.96998 0.50021 0.0
C401 C 0.81827 0.98865 0.5134 0.0
H402 H 0.87148 0.92011 0.53259 0.0
H403 H 0.76587 0.92006 0.49 0.0
C404 C 0.78034 0.76169 0.39297 0.0
N405 N 0.7958 0.79294 0.3893 0.0
C406 C 0.76603 0.74648 0.34357 0.0
C407 C 0.78404 0.79579 0.28755 0.0
C408 C 0.79781 0.81012 0.33804 0.0
C409 C 0.76778 0.76357 0.28987 0.0
H410 H 0.77914 0.7486 0.43433 0.0
H411 H 0.80988 0.83513 0.33643 0.0
O412 O 0.84967 0.84936 0.58052 0.0
O413 O 0.83674 0.78219 0.51469 0.0
O414 O 0.7821 0.83656 0.51177 0.0
O415 O 0.84952 0.84996 0.44648 0.0
H416 H 0.90513 0.87817 0.62531 0.0
H417 H 0.79474 0.87397 0.63396 0.0
H418 H 0.90465 0.92181 0.70402 0.0
H419 H 0.79612 0.91762 0.7125 0.0
H420 H 0.88297 0.68292 0.44621 0.0
H421 H 0.85236 0.75403 0.61586 0.0
H422 H 0.85527 0.73963 0.43073 0.0
H423 H 0.87972 0.69688 0.62811 0.0
H424 H 0.80987 0.78585 0.77923 0.0
H425 H 0.72151 0.7535 0.6793 0.0
H426 H 0.98319 0.87138 0.48503 0.0
H427 H 0.98281 0.76546 0.54291 0.0
H428 H 0.75388 0.85276 0.41093 0.0
H429 H 0.7397 0.85477 0.59614 0.0
H430 H 0.69677 0.88031 0.39925 0.0
H431 H 0.68301 0.88263 0.58124 0.0
H432 H 0.8765 0.90508 0.39753 0.0
H433 H 0.8742 0.79454 0.39459 0.0
H434 H 0.91879 0.90398 0.31676 0.0
H435 H 0.91645 0.79528 0.31387 0.0
H436 H 0.87212 0.98294 0.53733 0.0
H437 H 0.76453 0.98288 0.48905 0.0
H438 H 0.75403 0.72146 0.34727 0.0
H439 H 0.78554 0.81011 0.24734 0.0
Li440 Li 0.19224 0.86795 0.51402 0.0
Li441 Li 0.20107 0.81315 0.56915 0.0
Li442 Li 0.20251 0.81494 0.45744 0.0
Li443 Li 0.14803 0.8233 0.51288 0.0
C444 C 0.2648 0.85231 0.52228 0.0
N445 N 0.32829 0.88271 0.53772 0.0
C446 C 0.27707 0.85884 0.57819 0.0
C447 C 0.28497 0.86086 0.47423 0.0
C448 C 0.30921 0.87432 0.58508 0.0
C449 C 0.31695 0.87634 0.48295 0.0
C450 C 0.14292 0.84991 0.62457 0.0
C451 C 0.10729 0.81983 0.69339 0.0
N452 N 0.09452 0.85042 0.71216 0.0
C453 C 0.12953 0.88106 0.64452 0.0
C454 C 0.13179 0.81903 0.64913 0.0
C455 C 0.10505 0.88077 0.68886 0.0
C456 C 0.16797 0.9345 0.4994 0.0
N457 N 0.19684 0.91707 0.51473 0.0
C458 C 0.22674 0.97004 0.53044 0.0
C459 C 0.22593 0.93409 0.53036 0.0
C460 C 0.19742 0.98881 0.5137 0.0
C461 C 0.16781 0.97034 0.4977 0.0
H462 H 0.1449 0.92046 0.48836 0.0
H463 H 0.24846 0.92002 0.54347 0.0
C464 C 0.23593 0.76168 0.63355 0.0
N465 N 0.22026 0.79283 0.63718 0.0
C466 C 0.2502 0.74652 0.68303 0.0
C467 C 0.23174 0.79568 0.73902 0.0
C468 C 0.21799 0.80994 0.68847 0.0
C469 C 0.2482 0.76355 0.73676 0.0
H470 H 0.2373 0.74862 0.59218 0.0
H471 H 0.20572 0.83486 0.69004 0.0
C472 C 0.166 0.87209 0.40107 0.0
N473 N 0.16623 0.91866 0.31068 0.0
C474 C 0.13499 0.8843 0.37847 0.0
C475 C 0.19711 0.88351 0.37778 0.0
C476 C 0.13565 0.90786 0.33275 0.0
C477 C 0.19669 0.90706 0.33205 0.0
C478 C 0.16372 0.75094 0.50451 0.0
C479 C 0.1568 0.73867 0.44873 0.0
C480 C 0.15541 0.73083 0.55274 0.0
C481 C 0.14121 0.70655 0.44217 0.0
C482 C 0.13981 0.69887 0.54435 0.0
N483 N 0.13308 0.6875 0.48971 0.0
C484 C 0.25412 0.78042 0.39297 0.0
C485 C 0.20567 0.7978 0.33802 0.0
C486 C 0.26934 0.76609 0.34359 0.0
N487 N 0.22285 0.79585 0.38928 0.0
C488 C 0.22002 0.78403 0.28754 0.0
C489 C 0.25226 0.76781 0.28989 0.0
H490 H 0.26721 0.77925 0.43433 0.0
H491 H 0.18063 0.80983 0.33639 0.0
C492 C 0.08157 0.84804 0.52451 0.0
N493 N 0.0989 0.81857 0.51239 0.0
C494 C 0.04574 0.84837 0.52619 0.0
C495 C 0.04583 0.7883 0.50007 0.0
C496 C 0.08178 0.78898 0.5001 0.0
C497 C 0.02716 0.81827 0.51349 0.0
H498 H 0.09571 0.87142 0.53307 0.0
H499 H 0.09575 0.76591 0.48967 0.0
O500 O 0.2336 0.83682 0.51466 0.0
O501 O 0.16644 0.84969 0.58053 0.0
O502 O 0.16579 0.84956 0.44656 0.0
O503 O 0.17929 0.78211 0.51181 0.0
H504 H 0.26182 0.85233 0.61582 0.0
H505 H 0.27612 0.85546 0.43069 0.0
H506 H 0.31895 0.87971 0.62808 0.0
H507 H 0.3328 0.8832 0.44617 0.0
H508 H 0.09837 0.79612 0.71275 0.0
H509 H 0.13784 0.90516 0.62569 0.0
H510 H 0.14185 0.79475 0.63392 0.0
H511 H 0.09437 0.90468 0.70468 0.0
H512 H 0.24999 0.98286 0.54442 0.0
H513 H 0.14467 0.98327 0.48351 0.0
H514 H 0.26234 0.72156 0.67936 0.0
H515 H 0.23005 0.80997 0.77923 0.0
H516 H 0.1107 0.87578 0.39634 0.0
H517 H 0.22126 0.87442 0.39507 0.0
H518 H 0.11186 0.9176 0.31487 0.0
H519 H 0.22058 0.91618 0.31363 0.0
H520 H 0.16311 0.75389 0.41096 0.0
H521 H 0.16103 0.73974 0.59618 0.0
H522 H 0.13554 0.69679 0.39928 0.0
H523 H 0.13313 0.68306 0.58128 0.0
H524 H 0.29438 0.75412 0.34731 0.0
H525 H 0.2057 0.78549 0.24733 0.0
H526 H 0.03288 0.87205 0.53783 0.0
H527 H 0.03293 0.76459 0.48872 0.0
Li528 Li 0.20269 0.20112 0.56916 0.0
Li529 Li 0.1479 0.1923 0.51402 0.0
Li530 Li 0.19248 0.14811 0.51285 0.0
Li531 Li 0.20088 0.20261 0.45743 0.0
C532 C 0.16585 0.14273 0.62419 0.0
N533 N 0.16521 0.09379 0.7109 0.0
C534 C 0.13469 0.12902 0.64345 0.0
C535 C 0.19667 0.13165 0.64901 0.0
C536 C 0.13491 0.10426 0.68735 0.0
C537 C 0.19581 0.10686 0.69281 0.0
C538 C 0.16353 0.26487 0.52229 0.0
C539 C 0.13956 0.31704 0.48293 0.0
N540 N 0.13312 0.32837 0.53769 0.0
C541 C 0.15693 0.27712 0.5782 0.0
C542 C 0.15505 0.28506 0.47424 0.0
C543 C 0.14144 0.30926 0.58506 0.0
C544 C 0.25414 0.23599 0.63354 0.0
N545 N 0.22302 0.22029 0.63716 0.0
C546 C 0.22016 0.23172 0.73902 0.0
C547 C 0.20591 0.21797 0.68845 0.0
C548 C 0.25227 0.24822 0.73677 0.0
C549 C 0.2693 0.25025 0.68303 0.0
H550 H 0.26719 0.2374 0.59216 0.0
H551 H 0.18101 0.20567 0.69002 0.0
C552 C 0.08136 0.16788 0.50029 0.0
N553 N 0.09877 0.19692 0.51474 0.0
C554 C 0.04552 0.16769 0.49861 0.0
C555 C 0.04578 0.22696 0.5295 0.0
C556 C 0.08173 0.22617 0.52944 0.0
C557 C 0.02703 0.19746 0.51369 0.0
H558 H 0.09542 0.14471 0.48993 0.0
H559 H 0.09578 0.24885 0.54179 0.0
C560 C 0.26487 0.16377 0.50451 0.0
N561 N 0.32829 0.1331 0.48979 0.0
C562 C 0.27712 0.15676 0.44875 0.0
C563 C 0.28499 0.15552 0.55276 0.0
C564 C 0.30923 0.14116 0.44222 0.0
C565 C 0.31694 0.13991 0.54441 0.0
C566 C 0.14345 0.16603 0.40143 0.0
C567 C 0.13085 0.135 0.37958 0.0
C568 C 0.13215 0.1971 0.37782 0.0
C569 C 0.10699 0.1356 0.33429 0.0
C570 C 0.10829 0.19663 0.33255 0.0
N571 N 0.0963 0.16614 0.31192 0.0
C572 C 0.16763 0.08166 0.52362 0.0
C573 C 0.22693 0.08184 0.5009 0.0
C574 C 0.16727 0.04582 0.52529 0.0
N575 N 0.19721 0.09898 0.51233 0.0
C576 C 0.2276 0.04589 0.50089 0.0
C577 C 0.19749 0.02724 0.51344 0.0
H578 H 0.14418 0.09581 0.53156 0.0
H579 H 0.25011 0.0958 0.49119 0.0
C580 C 0.23549 0.25418 0.39302 0.0
N581 N 0.21998 0.22296 0.38931 0.0
C582 C 0.24981 0.2694 0.34364 0.0
C583 C 0.23173 0.22015 0.28755 0.0
C584 C 0.21794 0.20581 0.33802 0.0
C585 C 0.24802 0.25235 0.28991 0.0
H586 H 0.23671 0.26725 0.4344 0.0
H587 H 0.20585 0.18081 0.33638 0.0
O588 O 0.16614 0.16653 0.58058 0.0
O589 O 0.17902 0.23367 0.51469 0.0
O590 O 0.23369 0.17934 0.51178 0.0
O591 O 0.16629 0.1659 0.44649 0.0
H592 H 0.11063 0.13729 0.62442 0.0
H593 H 0.22096 0.14196 0.63433 0.0
H594 H 0.111 0.09334 0.70263 0.0
H595 H 0.21948 0.09798 0.71235 0.0
H596 H 0.13275 0.33291 0.44614 0.0
H597 H 0.16338 0.26185 0.61584 0.0
H598 H 0.16048 0.27621 0.4307 0.0
H599 H 0.136 0.31899 0.62805 0.0
H600 H 0.20588 0.23 0.77923 0.0
H601 H 0.29424 0.26241 0.67936 0.0
H602 H 0.0326 0.1444 0.48513 0.0
H603 H 0.03295 0.25036 0.54275 0.0
H604 H 0.26188 0.16303 0.41097 0.0
H605 H 0.27607 0.16119 0.59618 0.0
H606 H 0.31898 0.13543 0.39935 0.0
H607 H 0.33276 0.13328 0.58135 0.0
H608 H 0.13928 0.11074 0.39769 0.0
H609 H 0.14157 0.22129 0.39453 0.0
H610 H 0.09693 0.11179 0.31701 0.0
H611 H 0.09926 0.22049 0.3139 0.0
H612 H 0.14348 0.03298 0.53626 0.0
H613 H 0.25141 0.03298 0.49023 0.0
H614 H 0.26184 0.2944 0.34737 0.0
H615 H 0.2302 0.20586 0.24731 0.0
Li616 Li 0.81472 0.20271 0.56916 0.0
Li617 Li 0.82348 0.14795 0.51399 0.0
Li618 Li 0.86774 0.19252 0.51283 0.0
Li619 Li 0.81322 0.20096 0.45743 0.0
C620 C 0.87283 0.16591 0.62454 0.0
N621 N 0.92121 0.16538 0.71216 0.0
C622 C 0.88618 0.13476 0.64454 0.0
C623 C 0.88399 0.19679 0.64907 0.0
C624 C 0.91065 0.13503 0.68889 0.0
C625 C 0.90848 0.19598 0.69334 0.0
C626 C 0.75094 0.1636 0.5223 0.0
C627 C 0.69878 0.13961 0.48296 0.0
N628 N 0.68746 0.13318 0.53773 0.0
C629 C 0.7387 0.15701 0.57822 0.0
C630 C 0.73076 0.1551 0.47426 0.0
C631 C 0.70657 0.14152 0.5851 0.0
C632 C 0.77987 0.25418 0.63356 0.0
N633 N 0.79555 0.22304 0.6372 0.0
C634 C 0.78407 0.22021 0.73904 0.0
C635 C 0.79782 0.20594 0.6885 0.0
C636 C 0.7676 0.25233 0.73677 0.0
C637 C 0.76559 0.26935 0.68303 0.0
H638 H 0.77849 0.26723 0.59217 0.0
H639 H 0.8101 0.18102 0.69008 0.0
C640 C 0.84785 0.08141 0.49996 0.0
N641 N 0.81886 0.09882 0.51469 0.0
C642 C 0.84804 0.04557 0.49828 0.0
C643 C 0.78887 0.04584 0.52976 0.0
C644 C 0.78966 0.08178 0.52969 0.0
C645 C 0.81832 0.02708 0.51366 0.0
H646 H 0.87098 0.09546 0.48939 0.0
H647 H 0.76702 0.09584 0.54228 0.0
C648 C 0.85208 0.26491 0.50449 0.0
N649 N 0.88271 0.32834 0.48966 0.0
C650 C 0.85897 0.27719 0.4487 0.0
C651 C 0.86041 0.28502 0.55272 0.0
C652 C 0.87456 0.3093 0.44213 0.0
C653 C 0.87601 0.31697 0.54431 0.0
C654 C 0.84975 0.1436 0.40127 0.0
C655 C 0.88077 0.13112 0.37916 0.0
C656 C 0.81867 0.13226 0.37777 0.0
C657 C 0.88015 0.10737 0.33372 0.0
C658 C 0.81912 0.10851 0.33234 0.0
N659 N 0.8496 0.09665 0.31145 0.0
C660 C 0.9342 0.16777 0.52451 0.0
C661 C 0.93399 0.2268 0.49993 0.0
C662 C 0.97004 0.16743 0.5262 0.0
N663 N 0.91687 0.19722 0.5123 0.0
C664 C 0.96994 0.22748 0.49992 0.0
C665 C 0.98861 0.19752 0.51342 0.0
H666 H 0.92006 0.14439 0.53314 0.0
H667 H 0.92002 0.24986 0.48943 0.0
C668 C 0.76165 0.23558 0.39302 0.0
N669 N 0.79288 0.22007 0.38931 0.0
C670 C 0.74643 0.24991 0.34364 0.0
C671 C 0.79568 0.2318 0.28753 0.0
C672 C 0.81002 0.21802 0.33801 0.0
C673 C 0.76348 0.24811 0.2899 0.0
H674 H 0.74859 0.23682 0.4344 0.0
H675 H 0.83501 0.20592 0.33636 0.0
O676 O 0.84932 0.16614 0.58049 0.0
O677 O 0.78214 0.1791 0.51469 0.0
O678 O 0.83651 0.23374 0.51181 0.0
O679 O 0.8499 0.16633 0.44648 0.0
H680 H 0.87784 0.11065 0.62573 0.0
H681 H 0.87397 0.22108 0.63382 0.0
H682 H 0.92129 0.11112 0.70475 0.0
H683 H 0.91742 0.21968 0.71268 0.0
H684 H 0.68292 0.13279 0.44618 0.0
H685 H 0.75397 0.16348 0.61585 0.0
H686 H 0.7396 0.16054 0.43072 0.0
H687 H 0.69684 0.13608 0.62809 0.0
H688 H 0.78577 0.20593 0.77927 0.0
H689 H 0.75344 0.2943 0.67934 0.0
H690 H 0.87128 0.03265 0.48457 0.0
H691 H 0.76553 0.033 0.54325 0.0
H692 H 0.85264 0.26197 0.41094 0.0
H693 H 0.85481 0.2761 0.59615 0.0
H694 H 0.88021 0.31907 0.39924 0.0
H695 H 0.88271 0.33278 0.58123 0.0
H696 H 0.90504 0.13958 0.39719 0.0
H697 H 0.79449 0.14157 0.39469 0.0
H698 H 0.90395 0.09742 0.31623 0.0
H699 H 0.79525 0.09946 0.31377 0.0
H700 H 0.98289 0.14376 0.5379 0.0
H701 H 0.98284 0.25118 0.4885 0.0
H702 H 0.72144 0.26196 0.34738 0.0
H703 H 0.80996 0.23027 0.2473 0.0
loop_
_geom_bond_atom_site_label_1
_geom_bond_atom_site_label_2
_geom_bond_distance
_geom_bond_site_symmetry_2
_ccdc_geom_bond_type
Li0 N17 1.990 . S
Li0 O60 1.956 . S
Li0 O61 1.981 . S
Li0 O62 1.953 1_554 S
Li1 N25 1.991 . S
Li1 O60 1.958 1_556 S
Li1 O61 1.956 1_556 S
Li1 O63 1.973 . S
Li2 N47 1.990 . S
Li2 O60 1.961 . S
Li2 O62 1.956 1_554 S
Li2 O63 1.970 1_554 S
Li3 N53 1.990 . S
Li3 O61 1.950 1_556 S
Li3 O62 1.978 . S
Li3 O63 1.956 . S
C4 C6 1.348 . S
C4 C7 1.356 . S
C4 O60 1.325 . S
N5 C8 1.314 . S
N5 C9 1.279 . S
C6 C4 1.348 . S
C6 C8 1.353 . S
C6 H64 0.929 . S
C7 C4 1.356 . S
C7 C9 1.358 . S
C7 H65 0.930 . S
C8 N5 1.314 . S
C8 C6 1.353 . S
C8 H66 0.930 . S
C9 N5 1.279 . S
C9 C7 1.358 . S
C9 H67 0.930 . S
C10 C13 1.349 1_556 S
C10 C14 1.354 . S
C10 O61 1.325 1_556 S
C11 N12 1.279 . S
C11 C14 1.358 . S
C11 H68 0.930 . S
N12 C11 1.279 . S
N12 C15 1.314 1_556 S
C13 C10 1.349 1_554 S
C13 C15 1.353 . S
C13 H69 0.929 . S
C14 C10 1.354 . S
C14 C11 1.358 . S
C14 H70 0.930 . S
C15 N12 1.314 1_554 S
C15 C13 1.353 . S
C15 H71 0.930 . S
C16 N17 1.314 . S
C16 C21 1.353 . S
C16 H22 0.930 . S
N17 Li0 1.990 . S
N17 C16 1.314 . S
N17 C19 1.279 . S
C18 C19 1.358 . S
C18 C20 1.356 . S
C18 H72 0.930 . S
C19 N17 1.279 . S
C19 C18 1.358 . S
C19 H23 0.930 . S
C20 C18 1.356 . S
C20 C21 1.348 . S
C21 C16 1.353 . S
C21 C20 1.348 . S
C21 H73 0.929 . S
H22 C16 0.930 . S
H23 C19 0.930 . S
C24 N25 1.314 . S
C24 C26 1.353 . S
C24 H30 0.930 . S
N25 Li1 1.991 . S
N25 C24 1.314 . S
N25 C28 1.279 1_556 S
C26 C24 1.353 . S
C26 C29 1.346 1_556 S
C26 H74 0.929 . S
C27 C28 1.358 . S
C27 C29 1.357 . S
C27 H75 0.930 . S
C28 N25 1.279 1_554 S
C28 C27 1.358 . S
C28 H31 0.930 . S
C29 C26 1.346 1_554 S
C29 C27 1.357 . S
H30 C24 0.930 . S
H31 C28 0.930 . S
C32 C34 1.345 1_554 S
C32 C35 1.358 . S
C32 O62 1.325 1_554 S
N33 C36 1.314 1_554 S
N33 C37 1.279 . S
C34 C32 1.345 1_556 S
C34 C36 1.353 . S
C34 H76 0.929 . S
C35 C32 1.358 . S
C35 C37 1.358 . S
C35 H77 0.930 . S
C36 N33 1.314 1_556 S
C36 C34 1.353 . S
C36 H78 0.930 . S
C37 N33 1.279 . S
C37 C35 1.358 . S
C37 H79 0.930 . S
C38 C39 1.348 . S
C38 C40 1.356 . S
C38 O63 1.325 . S
C39 C38 1.348 . S
C39 C41 1.353 . S
C39 H80 0.929 . S
C40 C38 1.356 . S
C40 C42 1.358 . S
C40 H81 0.930 . S
C41 C39 1.353 . S
C41 N43 1.314 . S
C41 H82 0.930 . S
C42 C40 1.358 . S
C42 N43 1.279 . S
C42 H83 0.930 . S
N43 C41 1.314 . S
N43 C42 1.279 . S
C44 C46 1.353 . S
C44 N47 1.314 . S
C44 H50 0.930 . S
C45 N47 1.279 1_556 S
C45 C48 1.358 . S
C45 H51 0.930 . S
C46 C44 1.353 . S
C46 C49 1.348 1_554 S
C46 H84 0.929 . S
N47 Li2 1.990 . S
N47 C44 1.314 . S
N47 C45 1.279 1_554 S
C48 C45 1.358 . S
C48 C49 1.356 . S
C48 H85 0.930 . S
C49 C46 1.348 1_556 S
C49 C48 1.356 . S
H50 C44 0.930 . S
H51 C45 0.930 . S
C52 N53 1.314 . S
C52 C54 1.353 . S
C52 H58 0.930 . S
N53 Li3 1.990 . S
N53 C52 1.314 . S
N53 C56 1.279 . S
C54 C52 1.353 . S
C54 C57 1.348 . S
C54 H86 0.929 . S
C55 C56 1.358 . S
C55 C57 1.356 . S
C55 H87 0.930 . S
C56 N53 1.279 . S
C56 C55 1.358 . S
C56 H59 0.930 . S
C57 C54 1.348 . S
C57 C55 1.356 . S
H58 C52 0.930 . S
H59 C56 0.930 . S
O60 Li0 1.956 . S
O60 Li1 1.958 1_554 S
O60 Li2 1.961 . S
O60 C4 1.325 . S
O61 Li0 1.981 . S
O61 Li1 1.956 1_554 S
O61 Li3 1.950 1_554 S
O61 C10 1.325 1_554 S
O62 Li0 1.953 1_556 S
O62 Li2 1.956 1_556 S
O62 Li3 1.978 . S
O62 C32 1.325 1_556 S
O63 Li1 1.973 . S
O63 Li2 1.970 1_556 S
O63 Li3 1.956 . S
O63 C38 1.325 . S
H64 C6 0.929 . S
H65 C7 0.930 . S
H66 C8 0.930 . S
H67 C9 0.930 . S
H68 C11 0.930 . S
H69 C13 0.929 . S
H70 C14 0.930 . S
H71 C15 0.930 . S
H72 C18 0.930 . S
H73 C21 0.929 . S
H74 C26 0.929 . S
H75 C27 0.930 . S
H76 C34 0.929 . S
H77 C35 0.930 . S
H78 C36 0.930 . S
H79 C37 0.930 . S
H80 C39 0.929 . S
H81 C40 0.930 . S
H82 C41 0.930 . S
H83 C42 0.930 . S
H84 C46 0.929 . S
H85 C48 0.930 . S
H86 C54 0.929 . S
H87 C55 0.930 . S
Li88 N105 1.991 . S
Li88 O148 1.956 1_556 S
Li88 O149 1.958 1_556 S
Li88 O150 1.973 . S
Li89 N113 1.990 . S
Li89 O148 1.981 . S
Li89 O149 1.956 . S
Li89 O151 1.953 1_554 S
Li90 N135 1.990 . S
Li90 O148 1.950 1_556 S
Li90 O150 1.956 . S
Li90 O151 1.978 . S
Li91 N141 1.990 . S
Li91 O149 1.961 . S
Li91 O150 1.970 1_554 S
Li91 O151 1.956 1_554 S
C92 C94 1.349 1_556 S
C92 C95 1.354 . S
C92 O148 1.325 1_556 S
N93 C96 1.314 1_556 S
N93 C97 1.279 . S
C94 C92 1.349 1_554 S
C94 C96 1.353 . S
C94 H152 0.929 . S
C95 C92 1.354 . S
C95 C97 1.358 . S
C95 H153 0.930 . S
C96 N93 1.314 1_554 S
C96 C94 1.353 . S
C96 H154 0.930 . S
C97 N93 1.279 . S
C97 C95 1.358 . S
C97 H155 0.930 . S
C98 C101 1.348 . S
C98 C102 1.356 . S
C98 O149 1.325 . S
C99 N100 1.279 . S
C99 C102 1.358 . S
C99 H156 0.930 . S
N100 C99 1.279 . S
N100 C103 1.314 . S
C101 C98 1.348 . S
C101 C103 1.353 . S
C101 H157 0.929 . S
C102 C98 1.356 . S
C102 C99 1.358 . S
C102 H158 0.930 . S
C103 N100 1.314 . S
C103 C101 1.353 . S
C103 H159 0.930 . S
C104 N105 1.314 . S
C104 C109 1.353 . S
C104 H110 0.930 . S
N105 Li88 1.991 . S
N105 C104 1.314 . S
N105 C107 1.279 1_556 S
C106 C107 1.358 . S
C106 C108 1.357 . S
C106 H160 0.930 . S
C107 N105 1.279 1_554 S
C107 C106 1.358 . S
C107 H111 0.930 . S
C108 C106 1.357 . S
C108 C109 1.346 1_554 S
C109 C104 1.353 . S
C109 C108 1.346 1_556 S
C109 H161 0.929 . S
H110 C104 0.930 . S
H111 C107 0.930 . S
C112 N113 1.314 . S
C112 C114 1.353 . S
C112 H118 0.930 . S
N113 Li89 1.990 . S
N113 C112 1.314 . S
N113 C116 1.279 . S
C114 C112 1.353 . S
C114 C117 1.348 . S
C114 H162 0.929 . S
C115 C116 1.358 . S
C115 C117 1.356 . S
C115 H163 0.930 . S
C116 N113 1.279 . S
C116 C115 1.358 . S
C116 H119 0.930 . S
C117 C114 1.348 . S
C117 C115 1.356 . S
H118 C112 0.930 . S
H119 C116 0.930 . S
C120 C122 1.348 . S
C120 C123 1.356 . S
C120 O150 1.325 . S
N121 C124 1.314 . S
N121 C125 1.279 . S
C122 C120 1.348 . S
C122 C124 1.353 . S
C122 H164 0.929 . S
C123 C120 1.356 . S
C123 C125 1.358 . S
C123 H165 0.930 . S
C124 N121 1.314 . S
C124 C122 1.353 . S
C124 H166 0.930 . S
C125 N121 1.279 . S
C125 C123 1.358 . S
C125 H167 0.930 . S
C126 C127 1.345 1_554 S
C126 C128 1.358 . S
C126 O151 1.325 1_554 S
C127 C126 1.345 1_556 S
C127 C129 1.353 . S
C127 H168 0.929 . S
C128 C126 1.358 . S
C128 C130 1.358 . S
C128 H169 0.930 . S
C129 C127 1.353 . S
C129 N131 1.314 1_556 S
C129 H170 0.930 . S
C130 C128 1.358 . S
C130 N131 1.279 . S
C130 H171 0.930 . S
N131 C129 1.314 1_554 S
N131 C130 1.279 . S
C132 C134 1.353 . S
C132 N135 1.314 . S
C132 H138 0.930 . S
C133 N135 1.279 . S
C133 C136 1.358 . S
C133 H139 0.930 . S
C134 C132 1.353 . S
C134 C137 1.348 . S
C134 H172 0.929 . S
N135 Li90 1.990 . S
N135 C132 1.314 . S
N135 C133 1.279 . S
C136 C133 1.358 . S
C136 C137 1.356 . S
C136 H173 0.930 . S
C137 C134 1.348 . S
C137 C136 1.356 . S
H138 C132 0.930 . S
H139 C133 0.930 . S
C140 N141 1.314 . S
C140 C142 1.353 . S
C140 H146 0.930 . S
N141 Li91 1.990 . S
N141 C140 1.314 . S
N141 C144 1.279 1_554 S
C142 C140 1.353 . S
C142 C145 1.348 1_554 S
C142 H174 0.929 . S
C143 C144 1.358 . S
C143 C145 1.356 . S
C143 H175 0.930 . S
C144 N141 1.279 1_556 S
C144 C143 1.358 . S
C144 H147 0.930 . S
C145 C142 1.348 1_556 S
C145 C143 1.356 . S
H146 C140 0.930 . S
H147 C144 0.930 . S
O148 Li88 1.956 1_554 S
O148 Li89 1.981 . S
O148 Li90 1.950 1_554 S
O148 C92 1.325 1_554 S
O149 Li88 1.958 1_554 S
O149 Li89 1.956 . S
O149 Li91 1.961 . S
O149 C98 1.325 . S
O150 Li88 1.973 . S
O150 Li90 1.956 . S
O150 Li91 1.970 1_556 S
O150 C120 1.325 . S
O151 Li89 1.953 1_556 S
O151 Li90 1.978 . S
O151 Li91 1.956 1_556 S
O151 C126 1.325 1_556 S
H152 C94 0.929 . S
H153 C95 0.930 . S
H154 C96 0.930 . S
H155 C97 0.930 . S
H156 C99 0.930 . S
H157 C101 0.929 . S
H158 C102 0.930 . S
H159 C103 0.930 . S
H160 C106 0.930 . S
H161 C109 0.929 . S
H162 C114 0.929 . S
H163 C115 0.930 . S
H164 C122 0.929 . S
H165 C123 0.930 . S
H166 C124 0.930 . S
H167 C125 0.930 . S
H168 C127 0.929 . S
H169 C128 0.930 . S
H170 C129 0.930 . S
H171 C130 0.930 . S
H172 C134 0.929 . S
H173 C136 0.930 . S
H174 C142 0.929 . S
H175 C143 0.930 . S
Li176 N193 1.991 . S
Li176 O236 1.956 1_556 S
Li176 O237 1.958 1_556 S
Li176 O238 1.973 . S
Li177 N201 1.990 . S
Li177 O236 1.981 . S
Li177 O237 1.956 . S
Li177 O239 1.953 1_554 S
Li178 N223 1.990 . S
Li178 O236 1.950 1_556 S
Li178 O238 1.956 . S
Li178 O239 1.978 . S
Li179 N229 1.990 . S
Li179 O237 1.961 . S
Li179 O238 1.970 1_554 S
Li179 O239 1.956 1_554 S
C180 C182 1.349 1_556 S
C180 C183 1.354 . S
C180 O236 1.325 1_556 S
N181 C184 1.314 1_556 S
N181 C185 1.279 . S
C182 C180 1.349 1_554 S
C182 C184 1.353 . S
C182 H240 0.929 . S
C183 C180 1.354 . S
C183 C185 1.358 . S
C183 H241 0.930 . S
C184 N181 1.314 1_554 S
C184 C182 1.353 . S
C184 H242 0.930 . S
C185 N181 1.279 . S
C185 C183 1.358 . S
C185 H243 0.930 . S
C186 C189 1.348 . S
C186 C190 1.356 . S
C186 O237 1.325 . S
C187 N188 1.279 . S
C187 C190 1.358 . S
C187 H244 0.930 . S
N188 C187 1.279 . S
N188 C191 1.314 . S
C189 C186 1.348 . S
C189 C191 1.353 . S
C189 H245 0.929 . S
C190 C186 1.356 . S
C190 C187 1.358 . S
C190 H246 0.930 . S
C191 N188 1.314 . S
C191 C189 1.353 . S
C191 H247 0.930 . S
C192 N193 1.314 . S
C192 C197 1.353 . S
C192 H198 0.930 . S
N193 Li176 1.991 . S
N193 C192 1.314 . S
N193 C195 1.279 1_556 S
C194 C195 1.358 . S
C194 C196 1.357 . S
C194 H248 0.930 . S
C195 N193 1.279 1_554 S
C195 C194 1.358 . S
C195 H199 0.930 . S
C196 C194 1.357 . S
C196 C197 1.346 1_554 S
C197 C192 1.353 . S
C197 C196 1.346 1_556 S
C197 H249 0.929 . S
H198 C192 0.930 . S
H199 C195 0.930 . S
C200 N201 1.314 . S
C200 C202 1.353 . S
C200 H206 0.930 . S
N201 Li177 1.990 . S
N201 C200 1.314 . S
N201 C204 1.279 . S
C202 C200 1.353 . S
C202 C205 1.348 . S
C202 H250 0.929 . S
C203 C204 1.358 . S
C203 C205 1.356 . S
C203 H251 0.930 . S
C204 N201 1.279 . S
C204 C203 1.358 . S
C204 H207 0.930 . S
C205 C202 1.348 . S
C205 C203 1.356 . S
H206 C200 0.930 . S
H207 C204 0.930 . S
C208 C210 1.348 . S
C208 C211 1.356 . S
C208 O238 1.325 . S
N209 C212 1.314 . S
N209 C213 1.279 . S
C210 C208 1.348 . S
C210 C212 1.353 . S
C210 H252 0.929 . S
C211 C208 1.356 . S
C211 C213 1.358 . S
C211 H253 0.930 . S
C212 N209 1.314 . S
C212 C210 1.353 . S
C212 H254 0.930 . S
C213 N209 1.279 . S
C213 C211 1.358 . S
C213 H255 0.930 . S
C214 C215 1.345 1_554 S
C214 C216 1.358 . S
C214 O239 1.325 1_554 S
C215 C214 1.345 1_556 S
C215 C217 1.353 . S
C215 H256 0.929 . S
C216 C214 1.358 . S
C216 C218 1.358 . S
C216 H257 0.930 . S
C217 C215 1.353 . S
C217 N219 1.314 1_556 S
C217 H258 0.930 . S
C218 C216 1.358 . S
C218 N219 1.279 . S
C218 H259 0.930 . S
N219 C217 1.314 1_554 S
N219 C218 1.279 . S
C220 C222 1.353 . S
C220 N223 1.314 . S
C220 H226 0.930 . S
C221 N223 1.279 . S
C221 C224 1.358 . S
C221 H227 0.930 . S
C222 C220 1.353 . S
C222 C225 1.348 . S
C222 H260 0.929 . S
N223 Li178 1.990 . S
N223 C220 1.314 . S
N223 C221 1.279 . S
C224 C221 1.358 . S
C224 C225 1.356 . S
C224 H261 0.930 . S
C225 C222 1.348 . S
C225 C224 1.356 . S
H226 C220 0.930 . S
H227 C221 0.930 . S
C228 N229 1.314 . S
C228 C230 1.353 . S
C228 H234 0.930 . S
N229 Li179 1.990 . S
N229 C228 1.314 . S
N229 C232 1.279 1_554 S
C230 C228 1.353 . S
C230 C233 1.348 1_554 S
C230 H262 0.929 . S
C231 C232 1.358 . S
C231 C233 1.356 . S
C231 H263 0.930 . S
C232 N229 1.279 1_556 S
C232 C231 1.358 . S
C232 H235 0.930 . S
C233 C230 1.348 1_556 S
C233 C231 1.356 . S
H234 C228 0.930 . S
H235 C232 0.930 . S
O236 Li176 1.956 1_554 S
O236 Li177 1.981 . S
O236 Li178 1.950 1_554 S
O236 C180 1.325 1_554 S
O237 Li176 1.958 1_554 S
O237 Li177 1.956 . S
O237 Li179 1.961 . S
O237 C186 1.325 . S
O238 Li176 1.973 . S
O238 Li178 1.956 . S
O238 Li179 1.970 1_556 S
O238 C208 1.325 . S
O239 Li177 1.953 1_556 S
O239 Li178 1.978 . S
O239 Li179 1.956 1_556 S
O239 C214 1.325 1_556 S
H240 C182 0.929 . S
H241 C183 0.930 . S
H242 C184 0.930 . S
H243 C185 0.930 . S
H244 C187 0.930 . S
H245 C189 0.929 . S
H246 C190 0.930 . S
H247 C191 0.930 . S
H248 C194 0.930 . S
H249 C197 0.929 . S
H250 C202 0.929 . S
H251 C203 0.930 . S
H252 C210 0.929 . S
H253 C211 0.930 . S
H254 C212 0.930 . S
H255 C213 0.930 . S
H256 C215 0.929 . S
H257 C216 0.930 . S
H258 C217 0.930 . S
H259 C218 0.930 . S
H260 C222 0.929 . S
H261 C224 0.930 . S
H262 C230 0.929 . S
H263 C231 0.930 . S
Li264 N281 1.991 . S
Li264 O324 1.956 1_556 S
Li264 O325 1.958 1_556 S
Li264 O326 1.973 . S
Li265 N289 1.990 . S
Li265 O324 1.981 . S
Li265 O325 1.956 . S
Li265 O327 1.953 1_554 S
Li266 N311 1.990 . S
Li266 O324 1.950 1_556 S
Li266 O326 1.956 . S
Li266 O327 1.978 . S
Li267 N317 1.990 . S
Li267 O325 1.961 . S
Li267 O326 1.970 1_554 S
Li267 O327 1.956 1_554 S
C268 C270 1.349 1_556 S
C268 C271 1.354 . S
C268 O324 1.325 1_556 S
N269 C272 1.314 1_556 S
N269 C273 1.279 . S
C270 C268 1.349 1_554 S
C270 C272 1.353 . S
C270 H328 0.929 . S
C271 C268 1.354 . S
C271 C273 1.358 . S
C271 H329 0.930 . S
C272 N269 1.314 1_554 S
C272 C270 1.353 . S
C272 H330 0.930 . S
C273 N269 1.279 . S
C273 C271 1.358 . S
C273 H331 0.930 . S
C274 C277 1.348 . S
C274 C278 1.356 . S
C274 O325 1.325 . S
C275 N276 1.279 . S
C275 C278 1.358 . S
C275 H332 0.930 . S
N276 C275 1.279 . S
N276 C279 1.314 . S
C277 C274 1.348 . S
C277 C279 1.353 . S
C277 H333 0.929 . S
C278 C274 1.356 . S
C278 C275 1.358 . S
C278 H334 0.930 . S
C279 N276 1.314 . S
C279 C277 1.353 . S
C279 H335 0.930 . S
C280 N281 1.314 . S
C280 C285 1.353 . S
C280 H286 0.930 . S
N281 Li264 1.991 . S
N281 C280 1.314 . S
N281 C283 1.279 1_556 S
C282 C283 1.358 . S
C282 C284 1.357 . S
C282 H336 0.930 . S
C283 N281 1.279 1_554 S
C283 C282 1.358 . S
C283 H287 0.930 . S
C284 C282 1.357 . S
C284 C285 1.346 1_554 S
C285 C280 1.353 . S
C285 C284 1.346 1_556 S
C285 H337 0.929 . S
H286 C280 0.930 . S
H287 C283 0.930 . S
C288 N289 1.314 . S
C288 C290 1.353 . S
C288 H294 0.930 . S
N289 Li265 1.990 . S
N289 C288 1.314 . S
N289 C292 1.279 . S
C290 C288 1.353 . S
C290 C293 1.348 . S
C290 H338 0.929 . S
C291 C292 1.358 . S
C291 C293 1.356 . S
C291 H339 0.930 . S
C292 N289 1.279 . S
C292 C291 1.358 . S
C292 H295 0.930 . S
C293 C290 1.348 . S
C293 C291 1.356 . S
H294 C288 0.930 . S
H295 C292 0.930 . S
C296 C298 1.348 . S
C296 C299 1.356 . S
C296 O326 1.325 . S
N297 C300 1.314 . S
N297 C301 1.279 . S
C298 C296 1.348 . S
C298 C300 1.353 . S
C298 H340 0.929 . S
C299 C296 1.356 . S
C299 C301 1.358 . S
C299 H341 0.930 . S
C300 N297 1.314 . S
C300 C298 1.353 . S
C300 H342 0.930 . S
C301 N297 1.279 . S
C301 C299 1.358 . S
C301 H343 0.930 . S
C302 C303 1.345 1_554 S
C302 C304 1.358 . S
C302 O327 1.325 1_554 S
C303 C302 1.345 1_556 S
C303 C305 1.353 . S
C303 H344 0.929 . S
C304 C302 1.358 . S
C304 C306 1.358 . S
C304 H345 0.930 . S
C305 C303 1.353 . S
C305 N307 1.314 1_556 S
C305 H346 0.930 . S
C306 C304 1.358 . S
C306 N307 1.279 . S
C306 H347 0.930 . S
N307 C305 1.314 1_554 S
N307 C306 1.279 . S
C308 C310 1.353 . S
C308 N311 1.314 . S
C308 H314 0.930 . S
C309 N311 1.279 . S
C309 C312 1.358 . S
C309 H315 0.930 . S
C310 C308 1.353 . S
C310 C313 1.348 . S
C310 H348 0.929 . S
N311 Li266 1.990 . S
N311 C308 1.314 . S
N311 C309 1.279 . S
C312 C309 1.358 . S
C312 C313 1.356 . S
C312 H349 0.930 . S
C313 C310 1.348 . S
C313 C312 1.356 . S
H314 C308 0.930 . S
H315 C309 0.930 . S
C316 N317 1.314 . S
C316 C318 1.353 . S
C316 H322 0.930 . S
N317 Li267 1.990 . S
N317 C316 1.314 . S
N317 C320 1.279 1_554 S
C318 C316 1.353 . S
C318 C321 1.348 1_554 S
C318 H350 0.929 . S
C319 C320 1.358 . S
C319 C321 1.356 . S
C319 H351 0.930 . S
C320 N317 1.279 1_556 S
C320 C319 1.358 . S
C320 H323 0.930 . S
C321 C318 1.348 1_556 S
C321 C319 1.356 . S
H322 C316 0.930 . S
H323 C320 0.930 . S
O324 Li264 1.956 1_554 S
O324 Li265 1.981 . S
O324 Li266 1.950 1_554 S
O324 C268 1.325 1_554 S
O325 Li264 1.958 1_554 S
O325 Li265 1.956 . S
O325 Li267 1.961 . S
O325 C274 1.325 . S
O326 Li264 1.973 . S
O326 Li266 1.956 . S
O326 Li267 1.970 1_556 S
O326 C296 1.325 . S
O327 Li265 1.953 1_556 S
O327 Li266 1.978 . S
O327 Li267 1.956 1_556 S
O327 C302 1.325 1_556 S
H328 C270 0.929 . S
H329 C271 0.930 . S
H330 C272 0.930 . S
H331 C273 0.930 . S
H332 C275 0.930 . S
H333 C277 0.929 . S
H334 C278 0.930 . S
H335 C279 0.930 . S
H336 C282 0.930 . S
H337 C285 0.929 . S
H338 C290 0.929 . S
H339 C291 0.930 . S
H340 C298 0.929 . S
H341 C299 0.930 . S
H342 C300 0.930 . S
H343 C301 0.930 . S
H344 C303 0.929 . S
H345 C304 0.930 . S
H346 C305 0.930 . S
H347 C306 0.930 . S
H348 C310 0.929 . S
H349 C312 0.930 . S
H350 C318 0.929 . S
H351 C319 0.930 . S
Li352 N369 1.990 . S
Li352 O412 1.956 . S
Li352 O413 1.970 . S
Li352 O414 1.961 . S
Li353 N377 1.990 . S
Li353 O412 1.970 . S
Li353 O413 1.956 . S
Li353 O415 1.961 . S
Li354 N399 1.990 . S
Li354 O412 1.961 . S
Li354 O414 1.956 . S
Li354 O415 1.970 . S
Li355 N405 1.990 . S
Li355 O413 1.961 . S
Li355 O414 1.970 . S
Li355 O415 1.956 . S
C356 C358 1.348 . S
C356 C359 1.356 . S
C356 O412 1.325 . S
N357 C360 1.314 . S
N357 C361 1.279 . S
C358 C356 1.348 . S
C358 C360 1.353 . S
C358 H416 0.929 . S
C359 C356 1.356 . S
C359 C361 1.358 . S
C359 H417 0.930 . S
C360 N357 1.314 . S
C360 C358 1.353 . S
C360 H418 0.930 . S
C361 N357 1.279 . S
C361 C359 1.358 . S
C361 H419 0.930 . S
C362 C365 1.348 . S
C362 C366 1.356 . S
C362 O413 1.325 . S
C363 N364 1.279 . S
C363 C366 1.358 . S
C363 H420 0.930 . S
N364 C363 1.279 . S
N364 C367 1.314 . S
C365 C362 1.348 . S
C365 C367 1.353 . S
C365 H421 0.929 . S
C366 C362 1.356 . S
C366 C363 1.358 . S
C366 H422 0.930 . S
C367 N364 1.314 . S
C367 C365 1.353 . S
C367 H423 0.930 . S
C368 N369 1.314 . S
C368 C373 1.353 . S
C368 H374 0.930 . S
N369 Li352 1.990 . S
N369 C368 1.314 . S
N369 C371 1.279 . S
C370 C371 1.358 . S
C370 C372 1.356 . S
C370 H424 0.930 . S
C371 N369 1.279 . S
C371 C370 1.358 . S
C371 H375 0.930 . S
C372 C370 1.356 . S
C372 C373 1.348 . S
C373 C368 1.353 . S
C373 C372 1.348 . S
C373 H425 0.929 . S
H374 C368 0.930 . S
H375 C371 0.930 . S
C376 N377 1.314 . S
C376 C378 1.353 . S
C376 H382 0.930 . S
N377 Li353 1.990 . S
N377 C376 1.314 . S
N377 C380 1.279 . S
C378 C376 1.353 . S
C378 C381 1.348 . S
C378 H426 0.929 . S
C379 C380 1.358 . S
C379 C381 1.356 . S
C379 H427 0.930 . S
C380 N377 1.279 . S
C380 C379 1.358 . S
C380 H383 0.930 . S
C381 C378 1.348 . S
C381 C379 1.356 . S
H382 C376 0.930 . S
H383 C380 0.930 . S
C384 C386 1.348 . S
C384 C387 1.356 . S
C384 O414 1.325 . S
N385 C388 1.314 . S
N385 C389 1.279 . S
C386 C384 1.348 . S
C386 C388 1.353 . S
C386 H428 0.929 . S
C387 C384 1.356 . S
C387 C389 1.358 . S
C387 H429 0.930 . S
C388 N385 1.314 . S
C388 C386 1.353 . S
C388 H430 0.930 . S
C389 N385 1.279 . S
C389 C387 1.358 . S
C389 H431 0.930 . S
C390 C391 1.348 . S
C390 C392 1.356 . S
C390 O415 1.325 . S
C391 C390 1.348 . S
C391 C393 1.353 . S
C391 H432 0.929 . S
C392 C390 1.356 . S
C392 C394 1.358 . S
C392 H433 0.930 . S
C393 C391 1.353 . S
C393 N395 1.314 . S
C393 H434 0.930 . S
C394 C392 1.358 . S
C394 N395 1.279 . S
C394 H435 0.930 . S
N395 C393 1.314 . S
N395 C394 1.279 . S
C396 C398 1.353 . S
C396 N399 1.314 . S
C396 H402 0.930 . S
C397 N399 1.279 . S
C397 C400 1.358 . S
C397 H403 0.930 . S
C398 C396 1.353 . S
C398 C401 1.348 . S
C398 H436 0.929 . S
N399 Li354 1.990 . S
N399 C396 1.314 . S
N399 C397 1.279 . S
C400 C397 1.358 . S
C400 C401 1.356 . S
C400 H437 0.930 . S
C401 C398 1.348 . S
C401 C400 1.356 . S
H402 C396 0.930 . S
H403 C397 0.930 . S
C404 N405 1.314 . S
C404 C406 1.353 . S
C404 H410 0.930 . S
N405 Li355 1.990 . S
N405 C404 1.314 . S
N405 C408 1.279 . S
C406 C404 1.353 . S
C406 C409 1.348 . S
C406 H438 0.929 . S
C407 C408 1.358 . S
C407 C409 1.356 . S
C407 H439 0.930 . S
C408 N405 1.279 . S
C408 C407 1.358 . S
C408 H411 0.930 . S
C409 C406 1.348 . S
C409 C407 1.356 . S
H410 C404 0.930 . S
H411 C408 0.930 . S
O412 Li352 1.956 . S
O412 Li353 1.970 . S
O412 Li354 1.961 . S
O412 C356 1.325 . S
O413 Li352 1.970 . S
O413 Li353 1.956 . S
O413 Li355 1.961 . S
O413 C362 1.325 . S
O414 Li352 1.961 . S
O414 Li354 1.956 . S
O414 Li355 1.970 . S
O414 C384 1.325 . S
O415 Li353 1.961 . S
O415 Li354 1.970 . S
O415 Li355 1.956 . S
O415 C390 1.325 . S
H416 C358 0.929 . S
H417 C359 0.930 . S
H418 C360 0.930 . S
H419 C361 0.930 . S
H420 C363 0.930 . S
H421 C365 0.929 . S
H422 C366 0.930 . S
H423 C367 0.930 . S
H424 C370 0.930 . S
H425 C373 0.929 . S
H426 C378 0.929 . S
H427 C379 0.930 . S
H428 C386 0.929 . S
H429 C387 0.930 . S
H430 C388 0.930 . S
H431 C389 0.930 . S
H432 C391 0.929 . S
H433 C392 0.930 . S
H434 C393 0.930 . S
H435 C394 0.930 . S
H436 C398 0.929 . S
H437 C400 0.930 . S
H438 C406 0.929 . S
H439 C407 0.930 . S
Li440 N457 1.990 . S
Li440 O500 1.956 . S
Li440 O501 1.970 . S
Li440 O502 1.961 . S
Li441 N465 1.990 . S
Li441 O500 1.970 . S
Li441 O501 1.956 . S
Li441 O503 1.961 . S
Li442 N487 1.990 . S
Li442 O500 1.961 . S
Li442 O502 1.956 . S
Li442 O503 1.970 . S
Li443 N493 1.990 . S
Li443 O501 1.961 . S
Li443 O502 1.970 . S
Li443 O503 1.956 . S
C444 C446 1.348 . S
C444 C447 1.356 . S
C444 O500 1.325 . S
N445 C448 1.314 . S
N445 C449 1.279 . S
C446 C444 1.348 . S
C446 C448 1.353 . S
C446 H504 0.929 . S
C447 C444 1.356 . S
C447 C449 1.358 . S
C447 H505 0.930 . S
C448 N445 1.314 . S
C448 C446 1.353 . S
C448 H506 0.930 . S
C449 N445 1.279 . S
C449 C447 1.358 . S
C449 H507 0.930 . S
C450 C453 1.348 . S
C450 C454 1.356 . S
C450 O501 1.325 . S
C451 N452 1.279 . S
C451 C454 1.358 . S
C451 H508 0.930 . S
N452 C451 1.279 . S
N452 C455 1.314 . S
C453 C450 1.348 . S
C453 C455 1.353 . S
C453 H509 0.929 . S
C454 C450 1.356 . S
C454 C451 1.358 . S
C454 H510 0.930 . S
C455 N452 1.314 . S
C455 C453 1.353 . S
C455 H511 0.930 . S
C456 N457 1.314 . S
C456 C461 1.353 . S
C456 H462 0.930 . S
N457 Li440 1.990 . S
N457 C456 1.314 . S
N457 C459 1.279 . S
C458 C459 1.358 . S
C458 C460 1.356 . S
C458 H512 0.930 . S
C459 N457 1.279 . S
C459 C458 1.358 . S
C459 H463 0.930 . S
C460 C458 1.356 . S
C460 C461 1.348 . S
C461 C456 1.353 . S
C461 C460 1.348 . S
C461 H513 0.929 . S
H462 C456 0.930 . S
H463 C459 0.930 . S
C464 N465 1.314 . S
C464 C466 1.353 . S
C464 H470 0.930 . S
N465 Li441 1.990 . S
N465 C464 1.314 . S
N465 C468 1.279 . S
C466 C464 1.353 . S
C466 C469 1.348 . S
C466 H514 0.929 . S
C467 C468 1.358 . S
C467 C469 1.356 . S
C467 H515 0.930 . S
C468 N465 1.279 . S
C468 C467 1.358 . S
C468 H471 0.930 . S
C469 C466 1.348 . S
C469 C467 1.356 . S
H470 C464 0.930 . S
H471 C468 0.930 . S
C472 C474 1.348 . S
C472 C475 1.356 . S
C472 O502 1.325 . S
N473 C476 1.314 . S
N473 C477 1.279 . S
C474 C472 1.348 . S
C474 C476 1.353 . S
C474 H516 0.929 . S
C475 C472 1.356 . S
C475 C477 1.358 . S
C475 H517 0.930 . S
C476 N473 1.314 . S
C476 C474 1.353 . S
C476 H518 0.930 . S
C477 N473 1.279 . S
C477 C475 1.358 . S
C477 H519 0.930 . S
C478 C479 1.348 . S
C478 C480 1.356 . S
C478 O503 1.325 . S
C479 C478 1.348 . S
C479 C481 1.353 . S
C479 H520 0.929 . S
C480 C478 1.356 . S
C480 C482 1.358 . S
C480 H521 0.930 . S
C481 C479 1.353 . S
C481 N483 1.314 . S
C481 H522 0.930 . S
C482 C480 1.358 . S
C482 N483 1.279 . S
C482 H523 0.930 . S
N483 C481 1.314 . S
N483 C482 1.279 . S
C484 C486 1.353 . S
C484 N487 1.314 . S
C484 H490 0.930 . S
C485 N487 1.279 . S
C485 C488 1.358 . S
C485 H491 0.930 . S
C486 C484 1.353 . S
C486 C489 1.348 . S
C486 H524 0.929 . S
N487 Li442 1.990 . S
N487 C484 1.314 . S
N487 C485 1.279 . S
C488 C485 1.358 . S
C488 C489 1.356 . S
C488 H525 0.930 . S
C489 C486 1.348 . S
C489 C488 1.356 . S
H490 C484 0.930 . S
H491 C485 0.930 . S
C492 N493 1.314 . S
C492 C494 1.353 . S
C492 H498 0.930 . S
N493 Li443 1.990 . S
N493 C492 1.314 . S
N493 C496 1.279 . S
C494 C492 1.353 . S
C494 C497 1.348 . S
C494 H526 0.929 . S
C495 C496 1.358 . S
C495 C497 1.356 . S
C495 H527 0.930 . S
C496 N493 1.279 . S
C496 C495 1.358 . S
C496 H499 0.930 . S
C497 C494 1.348 . S
C497 C495 1.356 . S
H498 C492 0.930 . S
H499 C496 0.930 . S
O500 Li440 1.956 . S
O500 Li441 1.970 . S
O500 Li442 1.961 . S
O500 C444 1.325 . S
O501 Li440 1.970 . S
O501 Li441 1.956 . S
O501 Li443 1.961 . S
O501 C450 1.325 . S
O502 Li440 1.961 . S
O502 Li442 1.956 . S
O502 Li443 1.970 . S
O502 C472 1.325 . S
O503 Li441 1.961 . S
O503 Li442 1.970 . S
O503 Li443 1.956 . S
O503 C478 1.325 . S
H504 C446 0.929 . S
H505 C447 0.930 . S
H506 C448 0.930 . S
H507 C449 0.930 . S
H508 C451 0.930 . S
H509 C453 0.929 . S
H510 C454 0.930 . S
H511 C455 0.930 . S
H512 C458 0.930 . S
H513 C461 0.929 . S
H514 C466 0.929 . S
H515 C467 0.930 . S
H516 C474 0.929 . S
H517 C475 0.930 . S
H518 C476 0.930 . S
H519 C477 0.930 . S
H520 C479 0.929 . S
H521 C480 0.930 . S
H522 C481 0.930 . S
H523 C482 0.930 . S
H524 C486 0.929 . S
H525 C488 0.930 . S
H526 C494 0.929 . S
H527 C495 0.930 . S
Li528 N545 1.990 . S
Li528 O588 1.956 . S
Li528 O589 1.970 . S
Li528 O590 1.961 . S
Li529 N553 1.990 . S
Li529 O588 1.970 . S
Li529 O589 1.956 . S
Li529 O591 1.961 . S
Li530 N575 1.990 . S
Li530 O588 1.961 . S
Li530 O590 1.956 . S
Li530 O591 1.970 . S
Li531 N581 1.990 . S
Li531 O589 1.961 . S
Li531 O590 1.970 . S
Li531 O591 1.956 . S
C532 C534 1.348 . S
C532 C535 1.356 . S
C532 O588 1.325 . S
N533 C536 1.314 . S
N533 C537 1.279 . S
C534 C532 1.348 . S
C534 C536 1.353 . S
C534 H592 0.929 . S
C535 C532 1.356 . S
C535 C537 1.358 . S
C535 H593 0.930 . S
C536 N533 1.314 . S
C536 C534 1.353 . S
C536 H594 0.930 . S
C537 N533 1.279 . S
C537 C535 1.358 . S
C537 H595 0.930 . S
C538 C541 1.348 . S
C538 C542 1.356 . S
C538 O589 1.325 . S
C539 N540 1.279 . S
C539 C542 1.358 . S
C539 H596 0.930 . S
N540 C539 1.279 . S
N540 C543 1.314 . S
C541 C538 1.348 . S
C541 C543 1.353 . S
C541 H597 0.929 . S
C542 C538 1.356 . S
C542 C539 1.358 . S
C542 H598 0.930 . S
C543 N540 1.314 . S
C543 C541 1.353 . S
C543 H599 0.930 . S
C544 N545 1.314 . S
C544 C549 1.353 . S
C544 H550 0.930 . S
N545 Li528 1.990 . S
N545 C544 1.314 . S
N545 C547 1.279 . S
C546 C547 1.358 . S
C546 C548 1.356 . S
C546 H600 0.930 . S
C547 N545 1.279 . S
C547 C546 1.358 . S
C547 H551 0.930 . S
C548 C546 1.356 . S
C548 C549 1.348 . S
C549 C544 1.353 . S
C549 C548 1.348 . S
C549 H601 0.929 . S
H550 C544 0.930 . S
H551 C547 0.930 . S
C552 N553 1.314 . S
C552 C554 1.353 . S
C552 H558 0.930 . S
N553 Li529 1.990 . S
N553 C552 1.314 . S
N553 C556 1.279 . S
C554 C552 1.353 . S
C554 C557 1.348 . S
C554 H602 0.929 . S
C555 C556 1.358 . S
C555 C557 1.356 . S
C555 H603 0.930 . S
C556 N553 1.279 . S
C556 C555 1.358 . S
C556 H559 0.930 . S
C557 C554 1.348 . S
C557 C555 1.356 . S
H558 C552 0.930 . S
H559 C556 0.930 . S
C560 C562 1.348 . S
C560 C563 1.356 . S
C560 O590 1.325 . S
N561 C564 1.314 . S
N561 C565 1.279 . S
C562 C560 1.348 . S
C562 C564 1.353 . S
C562 H604 0.929 . S
C563 C560 1.356 . S
C563 C565 1.358 . S
C563 H605 0.930 . S
C564 N561 1.314 . S
C564 C562 1.353 . S
C564 H606 0.930 . S
C565 N561 1.279 . S
C565 C563 1.358 . S
C565 H607 0.930 . S
C566 C567 1.348 . S
C566 C568 1.356 . S
C566 O591 1.325 . S
C567 C566 1.348 . S
C567 C569 1.353 . S
C567 H608 0.929 . S
C568 C566 1.356 . S
C568 C570 1.358 . S
C568 H609 0.930 . S
C569 C567 1.353 . S
C569 N571 1.314 . S
C569 H610 0.930 . S
C570 C568 1.358 . S
C570 N571 1.279 . S
C570 H611 0.930 . S
N571 C569 1.314 . S
N571 C570 1.279 . S
C572 C574 1.353 . S
C572 N575 1.314 . S
C572 H578 0.930 . S
C573 N575 1.279 . S
C573 C576 1.358 . S
C573 H579 0.930 . S
C574 C572 1.353 . S
C574 C577 1.348 . S
C574 H612 0.929 . S
N575 Li530 1.990 . S
N575 C572 1.314 . S
N575 C573 1.279 . S
C576 C573 1.358 . S
C576 C577 1.356 . S
C576 H613 0.930 . S
C577 C574 1.348 . S
C577 C576 1.356 . S
H578 C572 0.930 . S
H579 C573 0.930 . S
C580 N581 1.314 . S
C580 C582 1.353 . S
C580 H586 0.930 . S
N581 Li531 1.990 . S
N581 C580 1.314 . S
N581 C584 1.279 . S
C582 C580 1.353 . S
C582 C585 1.348 . S
C582 H614 0.929 . S
C583 C584 1.358 . S
C583 C585 1.356 . S
C583 H615 0.930 . S
C584 N581 1.279 . S
C584 C583 1.358 . S
C584 H587 0.930 . S
C585 C582 1.348 . S
C585 C583 1.356 . S
H586 C580 0.930 . S
H587 C584 0.930 . S
O588 Li528 1.956 . S
O588 Li529 1.970 . S
O588 Li530 1.961 . S
O588 C532 1.325 . S
O589 Li528 1.970 . S
O589 Li529 1.956 . S
O589 Li531 1.961 . S
O589 C538 1.325 . S
O590 Li528 1.961 . S
O590 Li530 1.956 . S
O590 Li531 1.970 . S
O590 C560 1.325 . S
O591 Li529 1.961 . S
O591 Li530 1.970 . S
O591 Li531 1.956 . S
O591 C566 1.325 . S
H592 C534 0.929 . S
H593 C535 0.930 . S
H594 C536 0.930 . S
H595 C537 0.930 . S
H596 C539 0.930 . S
H597 C541 0.929 . S
H598 C542 0.930 . S
H599 C543 0.930 . S
H600 C546 0.930 . S
H601 C549 0.929 . S
H602 C554 0.929 . S
H603 C555 0.930 . S
H604 C562 0.929 . S
H605 C563 0.930 . S
H606 C564 0.930 . S
H607 C565 0.930 . S
H608 C567 0.929 . S
H609 C568 0.930 . S
H610 C569 0.930 . S
H611 C570 0.930 . S
H612 C574 0.929 . S
H613 C576 0.930 . S
H614 C582 0.929 . S
H615 C583 0.930 . S
Li616 N633 1.990 . S
Li616 O676 1.956 . S
Li616 O677 1.970 . S
Li616 O678 1.961 . S
Li617 N641 1.990 . S
Li617 O676 1.970 . S
Li617 O677 1.956 . S
Li617 O679 1.961 . S
Li618 N663 1.990 . S
Li618 O676 1.961 . S
Li618 O678 1.956 . S
Li618 O679 1.970 . S
Li619 N669 1.990 . S
Li619 O677 1.961 . S
Li619 O678 1.970 . S
Li619 O679 1.956 . S
C620 C622 1.348 . S
C620 C623 1.356 . S
C620 O676 1.325 . S
N621 C624 1.314 . S
N621 C625 1.279 . S
C622 C620 1.348 . S
C622 C624 1.353 . S
C622 H680 0.929 . S
C623 C620 1.356 . S
C623 C625 1.358 . S
C623 H681 0.930 . S
C624 N621 1.314 . S
C624 C622 1.353 . S
C624 H682 0.930 . S
C625 N621 1.279 . S
C625 C623 1.358 . S
C625 H683 0.930 . S
C626 C629 1.348 . S
C626 C630 1.356 . S
C626 O677 1.325 . S
C627 N628 1.279 . S
C627 C630 1.358 . S
C627 H684 0.930 . S
N628 C627 1.279 . S
N628 C631 1.314 . S
C629 C626 1.348 . S
C629 C631 1.353 . S
C629 H685 0.929 . S
C630 C626 1.356 . S
C630 C627 1.358 . S
C630 H686 0.930 . S
C631 N628 1.314 . S
C631 C629 1.353 . S
C631 H687 0.930 . S
C632 N633 1.314 . S
C632 C637 1.353 . S
C632 H638 0.930 . S
N633 Li616 1.990 . S
N633 C632 1.314 . S
N633 C635 1.279 . S
C634 C635 1.358 . S
C634 C636 1.356 . S
C634 H688 0.930 . S
C635 N633 1.279 . S
C635 C634 1.358 . S
C635 H639 0.930 . S
C636 C634 1.356 . S
C636 C637 1.348 . S
C637 C632 1.353 . S
C637 C636 1.348 . S
C637 H689 0.929 . S
H638 C632 0.930 . S
H639 C635 0.930 . S
C640 N641 1.314 . S
C640 C642 1.353 . S
C640 H646 0.930 . S
N641 Li617 1.990 . S
N641 C640 1.314 . S
N641 C644 1.279 . S
C642 C640 1.353 . S
C642 C645 1.348 . S
C642 H690 0.929 . S
C643 C644 1.358 . S
C643 C645 1.356 . S
C643 H691 0.930 . S
C644 N641 1.279 . S
C644 C643 1.358 . S
C644 H647 0.930 . S
C645 C642 1.348 . S
C645 C643 1.356 . S
H646 C640 0.930 . S
H647 C644 0.930 . S
C648 C650 1.348 . S
C648 C651 1.356 . S
C648 O678 1.325 . S
N649 C652 1.314 . S
N649 C653 1.279 . S
C650 C648 1.348 . S
C650 C652 1.353 . S
C650 H692 0.929 . S
C651 C648 1.356 . S
C651 C653 1.358 . S
C651 H693 0.930 . S
C652 N649 1.314 . S
C652 C650 1.353 . S
C652 H694 0.930 . S
C653 N649 1.279 . S
C653 C651 1.358 . S
C653 H695 0.930 . S
C654 C655 1.348 . S
C654 C656 1.356 . S
C654 O679 1.325 . S
C655 C654 1.348 . S
C655 C657 1.353 . S
C655 H696 0.929 . S
C656 C654 1.356 . S
C656 C658 1.358 . S
C656 H697 0.930 . S
C657 C655 1.353 . S
C657 N659 1.314 . S
C657 H698 0.930 . S
C658 C656 1.358 . S
C658 N659 1.279 . S
C658 H699 0.930 . S
N659 C657 1.314 . S
N659 C658 1.279 . S
C660 C662 1.353 . S
C660 N663 1.314 . S
C660 H666 0.930 . S
C661 N663 1.279 . S
C661 C664 1.358 . S
C661 H667 0.930 . S
C662 C660 1.353 . S
C662 C665 1.348 . S
C662 H700 0.929 . S
N663 Li618 1.990 . S
N663 C660 1.314 . S
N663 C661 1.279 . S
C664 C661 1.358 . S
C664 C665 1.356 . S
C664 H701 0.930 . S
C665 C662 1.348 . S
C665 C664 1.356 . S
H666 C660 0.930 . S
H667 C661 0.930 . S
C668 N669 1.314 . S
C668 C670 1.353 . S
C668 H674 0.930 . S
N669 Li619 1.990 . S
N669 C668 1.314 . S
N669 C672 1.279 . S
C670 C668 1.353 . S
C670 C673 1.348 . S
C670 H702 0.929 . S
C671 C672 1.358 . S
C671 C673 1.356 . S
C671 H703 0.930 . S
C672 N669 1.279 . S
C672 C671 1.358 . S
C672 H675 0.930 . S
C673 C670 1.348 . S
C673 C671 1.356 . S
H674 C668 0.930 . S
H675 C672 0.930 . S
O676 Li616 1.956 . S
O676 Li617 1.970 . S
O676 Li618 1.961 . S
O676 C620 1.325 . S
O677 Li616 1.970 . S
O677 Li617 1.956 . S
O677 Li619 1.961 . S
O677 C626 1.325 . S
O678 Li616 1.961 . S
O678 Li618 1.956 . S
O678 Li619 1.970 . S
O678 C648 1.325 . S
O679 Li617 1.961 . S
O679 Li618 1.970 . S
O679 Li619 1.956 . S
O679 C654 1.325 . S
H680 C622 0.929 . S
H681 C623 0.930 . S
H682 C624 0.930 . S
H683 C625 0.930 . S
H684 C627 0.930 . S
H685 C629 0.929 . S
H686 C630 0.930 . S
H687 C631 0.930 . S
H688 C634 0.930 . S
H689 C637 0.929 . S
H690 C642 0.929 . S
H691 C643 0.930 . S
H692 C650 0.929 . S
H693 C651 0.930 . S
H694 C652 0.930 . S
H695 C653 0.930 . S
H696 C655 0.929 . S
H697 C656 0.930 . S
H698 C657 0.930 . S
H699 C658 0.930 . S
H700 C662 0.929 . S
H701 C664 0.930 . S
H702 C670 0.929 . S
H703 C671 0.930 . S
C49 C284 1.563 1_556 S
C29 C145 1.563 1_554 S
C108 C233 1.563 1_554 S
C321 C196 1.563 1_556 S
C401 C645 1.563 1_565 S
C497 C381 1.563 1_455 S
C577 C460 1.563 1_545 S
C665 C557 1.563 1_655 S
C585 C20 1.367 . S
C117 C673 1.367 . S
C409 C205 1.367 . S
C489 C293 1.367 . S
C469 C313 1.371 . S
C57 C548 1.371 . S
C137 C636 1.371 . S
C225 C372 1.371 . S
