# Generated by pormake.
# Topology ung, (4)-cn, num edge types: 1
# Building blocks:
#     Node 0, Type 0, BuildingBlock: ICAMEG_clean_sbu_1, # of connection points: 4
#     Node 1, Type 0, BuildingBlock: ICAMEG_clean_sbu_1, # of connection points: 4
#     Node 2, Type 0, BuildingBlock: ICAMEG_clean_sbu_1, # of connection points: 4
#     Node 3, Type 0, BuildingBlock: ICAMEG_clean_sbu_1, # of connection points: 4
#     Node 4, Type 0, BuildingBlock: ICAMEG_clean_sbu_1, # of connection points: 4
#     Node 5, Type 0, BuildingBlock: ICAMEG_clean_sbu_1, # of connection points: 4
#     Node 6, Type 0, BuildingBlock: ICAMEG_clean_sbu_1, # of connection points: 4
#     Node 7, Type 0, BuildingBlock: ICAMEG_clean_sbu_1, # of connection points: 4
#     Node 8, Type 0, BuildingBlock: ICAMEG_clean_sbu_1, # of connection points: 4
#     Node 9, Type 0, BuildingBlock: ICAMEG_clean_sbu_1, # of connection points: 4
#     Node 10, Type 0, BuildingBlock: ICAMEG_clean_sbu_1, # of connection points: 4
#     Node 11, Type 0, BuildingBlock: ICAMEG_clean_sbu_1, # of connection points: 4
#     Node 12, Type 0, BuildingBlock: ICAMEG_clean_sbu_1, # of connection points: 4
#     Node 13, Type 0, BuildingBlock: ICAMEG_clean_sbu_1, # of connection points: 4
#     Node 14, Type 0, BuildingBlock: ICAMEG_clean_sbu_1, # of connection points: 4
#     Node 15, Type 0, BuildingBlock: ICAMEG_clean_sbu_1, # of connection points: 4
#     Node 16, Type 0, BuildingBlock: ICAMEG_clean_sbu_1, # of connection points: 4
#     Node 17, Type 0, BuildingBlock: ICAMEG_clean_sbu_1, # of connection points: 4
#     Edge 18, Type (0, 0), BuildingBlock: CIFDUS_clean_linker_0, # of connection points: 2
#     Edge 19, Type (0, 0), BuildingBlock: CIFDUS_clean_linker_0, # of connection points: 2
#     Edge 20, Type (0, 0), BuildingBlock: CIFDUS_clean_linker_0, # of connection points: 2
#     Edge 21, Type (0, 0), BuildingBlock: CIFDUS_clean_linker_0, # of connection points: 2
#     Edge 22, Type (0, 0), BuildingBlock: CIFDUS_clean_linker_0, # of connection points: 2
#     Edge 23, Type (0, 0), BuildingBlock: CIFDUS_clean_linker_0, # of connection points: 2
#     Edge 24, Type (0, 0), BuildingBlock: CIFDUS_clean_linker_0, # of connection points: 2
#     Edge 25, Type (0, 0), BuildingBlock: CIFDUS_clean_linker_0, # of connection points: 2
#     Edge 26, Type (0, 0), BuildingBlock: CIFDUS_clean_linker_0, # of connection points: 2
#     Edge 27, Type (0, 0), BuildingBlock: CIFDUS_clean_linker_0, # of connection points: 2
#     Edge 28, Type (0, 0), BuildingBlock: CIFDUS_clean_linker_0, # of connection points: 2
#     Edge 29, Type (0, 0), BuildingBlock: CIFDUS_clean_linker_0, # of connection points: 2
#     Edge 30, Type (0, 0), BuildingBlock: CIFDUS_clean_linker_0, # of connection points: 2
#     Edge 31, Type (0, 0), BuildingBlock: CIFDUS_clean_linker_0, # of connection points: 2
#     Edge 32, Type (0, 0), BuildingBlock: CIFDUS_clean_linker_0, # of connection points: 2
#     Edge 33, Type (0, 0), BuildingBlock: CIFDUS_clean_linker_0, # of connection points: 2
#     Edge 34, Type (0, 0), BuildingBlock: CIFDUS_clean_linker_0, # of connection points: 2
#     Edge 35, Type (0, 0), BuildingBlock: CIFDUS_clean_linker_0, # of connection points: 2
#     Edge 36, Type (0, 0), BuildingBlock: CIFDUS_clean_linker_0, # of connection points: 2
#     Edge 37, Type (0, 0), BuildingBlock: CIFDUS_clean_linker_0, # of connection points: 2
#     Edge 38, Type (0, 0), BuildingBlock: CIFDUS_clean_linker_0, # of connection points: 2
#     Edge 39, Type (0, 0), BuildingBlock: CIFDUS_clean_linker_0, # of connection points: 2
#     Edge 40, Type (0, 0), BuildingBlock: CIFDUS_clean_linker_0, # of connection points: 2
#     Edge 41, Type (0, 0), BuildingBlock: CIFDUS_clean_linker_0, # of connection points: 2
#     Edge 42, Type (0, 0), BuildingBlock: CIFDUS_clean_linker_0, # of connection points: 2
#     Edge 43, Type (0, 0), BuildingBlock: CIFDUS_clean_linker_0, # of connection points: 2
#     Edge 44, Type (0, 0), BuildingBlock: CIFDUS_clean_linker_0, # of connection points: 2
#     Edge 45, Type (0, 0), BuildingBlock: CIFDUS_clean_linker_0, # of connection points: 2
#     Edge 46, Type (0, 0), BuildingBlock: CIFDUS_clean_linker_0, # of connection points: 2
#     Edge 47, Type (0, 0), BuildingBlock: CIFDUS_clean_linker_0, # of connection points: 2
#     Edge 48, Type (0, 0), BuildingBlock: CIFDUS_clean_linker_0, # of connection points: 2
#     Edge 49, Type (0, 0), BuildingBlock: CIFDUS_clean_linker_0, # of connection points: 2
#     Edge 50, Type (0, 0), BuildingBlock: CIFDUS_clean_linker_0, # of connection points: 2
#     Edge 51, Type (0, 0), BuildingBlock: CIFDUS_clean_linker_0, # of connection points: 2
#     Edge 52, Type (0, 0), BuildingBlock: CIFDUS_clean_linker_0, # of connection points: 2
#     Edge 53, Type (0, 0), BuildingBlock: CIFDUS_clean_linker_0, # of connection points: 2
# Relax obj value: 0.022
# Max RMSD: 0.109
# Mean RMSD: 0.109
data_MOF--net-ung--node1-ICAMEG_clean_sbu_1--edge1-CIFDUS_clean_linker_0
_symmetry_space_group_name_H-M    P1
_symmetry_Int_Tables_number       1
_symmetry_cell_setting            triclinic
loop_
_symmetry_equiv_pos_as_xyz
'x, y, z'
_cell_length_a     67.51927
_cell_length_b     67.562009
_cell_length_c     21.718773
_cell_angle_alpha  90.029912
_cell_angle_beta   90.224224
_cell_angle_gamma 120.00108
loop_
_atom_site_label
_atom_site_type_symbol
_atom_site_fract_x
_atom_site_fract_y
_atom_site_fract_z
_atom_type_partial_charge
Co0 Co 0.09109 0.65677 0.21459 0.0
Co1 Co 0.04853 0.6361 0.32112 0.0
O2 O 0.06966 0.6322 0.26813 0.0
C3 C 0.07026 0.61639 0.13137 0.0
O4 O 0.05006 0.61241 0.14945 0.0
C5 C 0.06816 0.61493 0.40361 0.0
O6 O 0.08863 0.63017 0.38452 0.0
O7 O 0.07472 0.66339 0.36032 0.0
O8 O 0.09482 0.68078 0.27563 0.0
H9 H 0.01751 0.68096 0.42713 0.0
H10 H 0.09972 0.61907 0.24642 0.0
O11 O 0.0883 0.63353 0.15255 0.0
H12 H 0.16771 0.68935 0.32012 0.0
H13 H 0.15642 0.69361 0.06489 0.0
H14 H 0.09713 0.70152 0.17568 0.0
H15 H 0.13618 0.69124 0.26807 0.0
H16 H 0.12994 0.66337 0.13536 0.0
O17 O 0.05063 0.61542 0.38386 0.0
H18 H 0.04339 0.67553 0.35832 0.0
H19 H 0.00932 0.60471 0.40055 0.0
H20 H 0.12336 0.73224 0.10605 0.0
H21 H 0.13098 0.61642 0.29768 0.0
H22 H 0.15327 0.72839 0.05005 0.0
H23 H 0.16525 0.65174 0.33509 0.0
O24 O 0.06527 0.65833 0.17505 0.0
H25 H 0.00753 0.55582 0.23828 0.0
H26 H 0.00367 0.62621 0.26751 0.0
H27 H 0.97186 0.59307 0.21532 0.0
H28 H 0.97365 0.55754 0.20052 0.0
H29 H 0.03906 0.58944 0.28971 0.0
H30 H 0.98319 0.6094 0.47021 0.0
H31 H 0.98714 0.64774 0.48369 0.0
O32 O 0.04527 0.65646 0.25921 0.0
C33 C 0.08993 0.68106 0.3323 0.0
C34 C 0.01557 0.66416 0.42152 0.0
C35 C 0.99633 0.624 0.44575 0.0
N36 N 0.02777 0.63981 0.37507 0.0
C37 C 0.03014 0.66097 0.38249 0.0
C38 C 0.01121 0.62146 0.40635 0.0
C39 C 0.99855 0.64551 0.45328 0.0
C40 C 0.11468 0.63453 0.26203 0.0
N41 N 0.11616 0.65529 0.25403 0.0
C42 C 0.13228 0.63292 0.29125 0.0
C43 C 0.15149 0.65273 0.31233 0.0
C44 C 0.15287 0.67384 0.30399 0.0
C45 C 0.13493 0.6748 0.27464 0.0
C46 C 0.14349 0.69551 0.08914 0.0
C47 C 0.1102 0.69978 0.15182 0.0
C48 C 0.12842 0.67843 0.12902 0.0
N49 N 0.11213 0.68077 0.16003 0.0
C50 C 0.12496 0.71721 0.1123 0.0
C51 C 0.14172 0.71502 0.08085 0.0
C52 C 0.0501 0.66107 0.20229 0.0
C53 C 0.00651 0.57118 0.24465 0.0
C54 C 0.00461 0.61084 0.2611 0.0
C55 C 0.98652 0.5921 0.23163 0.0
C56 C 0.98753 0.57217 0.22338 0.0
N57 N 0.02317 0.60973 0.28191 0.0
C58 C 0.02428 0.59024 0.27397 0.0
Co59 Co 0.50729 0.48504 0.29318 0.0
Co60 Co 0.48002 0.50585 0.2022 0.0
O61 O 0.50657 0.50947 0.24752 0.0
C62 C 0.52188 0.5228 0.38214 0.0
O63 O 0.50343 0.52324 0.36504 0.0
C64 C 0.51775 0.52507 0.11295 0.0
O65 O 0.52163 0.50869 0.13023 0.0
O66 O 0.47714 0.47879 0.15821 0.0
O67 O 0.48848 0.46177 0.22792 0.0
H68 H 0.40056 0.46222 0.11407 0.0
H69 H 0.55072 0.52752 0.26547 0.0
O70 O 0.52612 0.50797 0.35887 0.0
H71 H 0.55771 0.46542 0.16771 0.0
H72 H 0.54496 0.45199 0.4254 0.0
H73 H 0.47339 0.43697 0.32313 0.0
H74 H 0.52314 0.45693 0.22634 0.0
H75 H 0.54345 0.48211 0.36483 0.0
O76 O 0.50109 0.52633 0.13615 0.0
H77 H 0.43395 0.46697 0.17319 0.0
H78 H 0.47044 0.53773 0.13037 0.0
H79 H 0.47417 0.40629 0.38279 0.0
H80 H 0.58565 0.53676 0.20764 0.0
H81 H 0.51016 0.41374 0.43444 0.0
H82 H 0.58927 0.50559 0.15806 0.0
O83 O 0.4789 0.47815 0.33749 0.0
H84 H 0.52293 0.58587 0.28644 0.0
H85 H 0.44752 0.5159 0.26918 0.0
H86 H 0.45117 0.54893 0.32734 0.0
H87 H 0.48909 0.58424 0.33625 0.0
H88 H 0.51855 0.55237 0.22912 0.0
H89 H 0.43752 0.53373 0.07031 0.0
H90 H 0.40223 0.49577 0.06211 0.0
O91 O 0.45855 0.48538 0.26785 0.0
C92 C 0.47941 0.46209 0.17634 0.0
C93 C 0.4158 0.47887 0.11749 0.0
C94 C 0.43656 0.51899 0.09286 0.0
N95 N 0.45401 0.50264 0.15568 0.0
C96 C 0.43473 0.48167 0.15106 0.0
C97 C 0.45516 0.52115 0.12682 0.0
C98 C 0.41676 0.49769 0.0883 0.0
C99 C 0.55228 0.51384 0.24465 0.0
N100 N 0.53496 0.4917 0.24954 0.0
C101 C 0.57206 0.51918 0.21171 0.0
C102 C 0.57405 0.50169 0.1838 0.0
C103 C 0.55634 0.47915 0.18916 0.0
C104 C 0.53679 0.47445 0.22232 0.0
C105 C 0.52919 0.44853 0.40299 0.0
C106 C 0.48915 0.44027 0.34513 0.0
C107 C 0.52823 0.46552 0.36874 0.0
N108 N 0.5084 0.46121 0.34006 0.0
C109 C 0.48947 0.42287 0.379 0.0
C110 C 0.50966 0.42706 0.40803 0.0
C111 C 0.46057 0.47747 0.31952 0.0
C112 C 0.5063 0.57061 0.2827 0.0
C113 C 0.46409 0.53119 0.27288 0.0
C114 C 0.46604 0.54986 0.30579 0.0
C115 C 0.48732 0.56967 0.31073 0.0
N116 N 0.48279 0.53225 0.24552 0.0
C117 C 0.50369 0.55163 0.25005 0.0
Co118 Co 0.63218 0.04636 0.19781 0.0
Co119 Co 0.65354 0.08824 0.30716 0.0
O120 O 0.62877 0.06742 0.25249 0.0
C121 C 0.61167 0.06713 0.11661 0.0
O122 O 0.62726 0.08741 0.13643 0.0
C123 C 0.61311 0.06754 0.38952 0.0
O124 O 0.60871 0.04731 0.37027 0.0
O125 O 0.65471 0.06195 0.34456 0.0
O126 O 0.6523 0.04229 0.25893 0.0
H127 H 0.72896 0.11869 0.41677 0.0
H128 H 0.58578 0.03756 0.22928 0.0
O129 O 0.61174 0.04933 0.13562 0.0
H130 H 0.58799 0.9692 0.29854 0.0
H131 H 0.60433 0.98189 0.04434 0.0
H132 H 0.67112 0.04064 0.15919 0.0
H133 H 0.62147 1.00097 0.24824 0.0
H134 H 0.60026 0.00792 0.1161 0.0
O135 O 0.6305 0.08547 0.36935 0.0
H136 H 0.69802 0.09325 0.34575 0.0
H137 H 0.66084 0.12681 0.38909 0.0
H138 H 0.67593 0.01486 0.08827 0.0
H139 H 0.55183 0.00609 0.27886 0.0
H140 H 0.64237 0.98521 0.03023 0.0
H141 H 0.55283 0.97162 0.31403 0.0
O142 O 0.65978 0.07246 0.1603 0.0
H143 H 0.61424 0.12965 0.22762 0.0
H144 H 0.68853 0.1334 0.2565 0.0
H145 H 0.68721 0.16553 0.20676 0.0
H146 H 0.64987 0.1638 0.19217 0.0
H147 H 0.61631 0.09779 0.27658 0.0
H148 H 0.69131 0.15252 0.46095 0.0
H149 H 0.72571 0.1486 0.47499 0.0
O150 O 0.67737 0.09193 0.24609 0.0
C151 C 0.65729 0.0469 0.31589 0.0
C152 C 0.71409 0.12063 0.41089 0.0
C153 C 0.69295 0.13959 0.43574 0.0
N154 N 0.67774 0.10867 0.36283 0.0
C155 C 0.69655 0.10631 0.37059 0.0
C156 C 0.67573 0.12496 0.39506 0.0
C157 C 0.71225 0.13738 0.44359 0.0
C158 C 0.58627 0.02252 0.24389 0.0
N159 N 0.60554 0.02107 0.23556 0.0
C160 C 0.56702 0.00479 0.27218 0.0
C161 C 0.56761 0.98548 0.29199 0.0
C162 C 0.58734 0.98412 0.28336 0.0
C163 C 0.60626 0.00219 0.25496 0.0
C164 C 0.61908 0.99471 0.06945 0.0
C165 C 0.65641 0.02771 0.13439 0.0
C166 C 0.61688 0.00953 0.11005 0.0
N167 N 0.63541 0.02569 0.14216 0.0
C168 C 0.65925 0.01319 0.09417 0.0
C169 C 0.64042 0.99658 0.06157 0.0
C170 C 0.6776 0.08724 0.18922 0.0
C171 C 0.63062 0.13064 0.2339 0.0
C172 C 0.6722 0.13247 0.2501 0.0
C173 C 0.67157 0.15075 0.22205 0.0
C174 C 0.65061 0.14977 0.21393 0.0
N175 N 0.65251 0.11377 0.26965 0.0
C176 C 0.63191 0.11269 0.26183 0.0
Co177 Co 0.04262 0.48081 0.81407 0.0
Co178 Co 0.08818 0.50118 0.71641 0.0
O179 O 0.06574 0.50515 0.76314 0.0
C180 C 0.06248 0.52111 0.89706 0.0
O181 O 0.08277 0.52454 0.88193 0.0
C182 C 0.06984 0.52117 0.62652 0.0
O183 O 0.04921 0.50558 0.64355 0.0
O184 O 0.06317 0.47359 0.67507 0.0
O185 O 0.03979 0.45661 0.75502 0.0
H186 H 0.12239 0.45644 0.6271 0.0
H187 H 0.03605 0.51931 0.77642 0.0
O188 O 0.04458 0.50426 0.87423 0.0
H189 H 0.96921 0.45012 0.69321 0.0
H190 H 0.9735 0.4452 0.95141 0.0
H191 H 0.03438 0.4356 0.85633 0.0
H192 H 0.9987 0.44721 0.75337 0.0
H193 H 1.00225 0.47518 0.88434 0.0
O194 O 0.08726 0.52135 0.64987 0.0
H195 H 0.09466 0.46188 0.68777 0.0
H196 H 0.12899 0.53237 0.64161 0.0
H197 H 0.00588 0.40511 0.92269 0.0
H198 H 0.00685 0.52298 0.71699 0.0
H199 H 0.97516 0.40983 0.97077 0.0
H200 H 0.97317 0.48822 0.67475 0.0
O201 O 0.06691 0.47848 0.85988 0.0
H202 H 0.12671 0.58195 0.7955 0.0
H203 H 0.13173 0.51177 0.77981 0.0
H204 H 0.16212 0.54536 0.83425 0.0
H205 H 0.15975 0.58079 0.84227 0.0
H206 H 0.09658 0.54789 0.74196 0.0
H207 H 0.15697 0.52765 0.57998 0.0
H208 H 0.15382 0.48948 0.57265 0.0
O209 O 0.09012 0.48131 0.78248 0.0
C210 C 0.04664 0.45617 0.70056 0.0
C211 C 0.12399 0.47317 0.63009 0.0
C212 C 0.14338 0.51313 0.60358 0.0
N213 N 0.11031 0.49745 0.66863 0.0
C214 C 0.10837 0.47637 0.66452 0.0
C215 C 0.12745 0.51569 0.63843 0.0
C216 C 0.1416 0.49171 0.59951 0.0
C217 C 0.02132 0.50409 0.75876 0.0
N218 N 0.01904 0.48308 0.76858 0.0
C219 C 0.00489 0.50628 0.72491 0.0
C220 C 0.98602 0.48677 0.70112 0.0
C221 C 0.9838 0.46539 0.71141 0.0
C222 C 1.00059 0.46386 0.74538 0.0
C223 C 0.98677 0.44293 0.93061 0.0
C224 C 0.02097 0.4377 0.87673 0.0
C225 C 0.00312 0.45985 0.89267 0.0
N226 N 0.01985 0.45704 0.86599 0.0
C227 C 0.00492 0.42041 0.91442 0.0
C228 C 0.98771 0.42308 0.94144 0.0
C229 C 0.08321 0.47627 0.83802 0.0
C230 C 0.12798 0.56664 0.79213 0.0
C231 C 0.13053 0.52709 0.78325 0.0
C232 C 0.14782 0.54608 0.81402 0.0
C233 C 0.14649 0.56596 0.81845 0.0
N234 N 0.11244 0.5279 0.75748 0.0
C235 C 0.11102 0.54733 0.76164 0.0
Co236 Co 0.63463 0.64932 0.69284 0.0
Co237 Co 0.65704 0.63153 0.8071 0.0
O238 O 0.6325 0.6261 0.74995 0.0
C239 C 0.62022 0.60848 0.61407 0.0
O240 O 0.63757 0.60724 0.63712 0.0
C241 C 0.61565 0.61199 0.8854 0.0
O242 O 0.61119 0.62729 0.86217 0.0
O243 O 0.65704 0.65892 0.84055 0.0
O244 O 0.65239 0.67454 0.75436 0.0
H245 H 0.73132 0.67935 0.91951 0.0
H246 H 0.58925 0.60925 0.7204 0.0
O247 O 0.61677 0.62462 0.63056 0.0
H248 H 0.58363 0.67654 0.78188 0.0
H249 H 0.60426 0.68006 0.52931 0.0
H250 H 0.67139 0.69535 0.65535 0.0
H251 H 0.61927 0.68126 0.73728 0.0
H252 H 0.60196 0.65159 0.60437 0.0
O253 O 0.63358 0.61164 0.86913 0.0
H254 H 0.70069 0.67214 0.8452 0.0
H255 H 0.66457 0.60202 0.89506 0.0
H256 H 0.6744 0.72437 0.58121 0.0
H257 H 0.55321 0.60376 0.76429 0.0
H258 H 0.64066 0.71679 0.51754 0.0
H259 H 0.55027 0.63756 0.79555 0.0
O260 O 0.66381 0.6533 0.65957 0.0
H261 H 0.6203 0.55006 0.73434 0.0
H262 H 0.69328 0.62205 0.76276 0.0
H263 H 0.69339 0.5886 0.71763 0.0
H264 H 0.65671 0.55227 0.70325 0.0
H265 H 0.62094 0.58398 0.77877 0.0
H266 H 0.69472 0.6085 0.97026 0.0
H267 H 0.72844 0.64738 0.98269 0.0
O268 O 0.68113 0.65136 0.74601 0.0
C269 C 0.65788 0.67568 0.81124 0.0
C270 C 0.71676 0.66232 0.91435 0.0
C271 C 0.6962 0.62255 0.9429 0.0
N272 N 0.68098 0.63665 0.86539 0.0
C273 C 0.6994 0.65812 0.87221 0.0
C274 C 0.67916 0.619 0.90032 0.0
C275 C 0.71512 0.64438 0.94983 0.0
C276 C 0.58802 0.62406 0.7333 0.0
N277 N 0.60631 0.64555 0.72601 0.0
C278 C 0.56761 0.62083 0.75837 0.0
C279 C 0.56598 0.63981 0.776 0.0
C280 C 0.5847 0.66168 0.76839 0.0
C281 C 0.60485 0.66424 0.74325 0.0
C282 C 0.61906 0.68358 0.55689 0.0
C283 C 0.65659 0.692 0.62813 0.0
C284 C 0.61787 0.66752 0.59939 0.0
N285 N 0.63647 0.67191 0.6346 0.0
C286 C 0.65842 0.70847 0.58608 0.0
C287 C 0.63949 0.70419 0.55032 0.0
C288 C 0.6815 0.65637 0.68914 0.0
C289 C 0.6364 0.56577 0.74057 0.0
C290 C 0.67724 0.60632 0.7565 0.0
C291 C 0.67742 0.58742 0.73105 0.0
C292 C 0.65683 0.56704 0.72304 0.0
N293 N 0.65713 0.60494 0.77365 0.0
C294 C 0.63688 0.58501 0.76596 0.0
Co295 Co 0.50005 0.08962 0.79924 0.0
Co296 Co 0.47853 0.04281 0.70487 0.0
O297 O 0.50332 0.06636 0.75436 0.0
C298 C 0.51956 0.07142 0.89084 0.0
O299 O 0.50338 0.05086 0.87474 0.0
C300 C 0.51837 0.0615 0.62148 0.0
O301 O 0.52199 0.08193 0.63582 0.0
O302 O 0.47626 0.06669 0.65723 0.0
O303 O 0.48007 0.09126 0.73228 0.0
H304 H 0.40211 0.00547 0.59819 0.0
H305 H 0.54637 0.09686 0.77441 0.0
O306 O 0.5203 0.08892 0.86638 0.0
H307 H 0.54478 0.16197 0.67701 0.0
H308 H 0.52834 0.15994 0.93159 0.0
H309 H 0.46146 0.0974 0.82613 0.0
H310 H 0.51114 0.13262 0.73284 0.0
H311 H 0.53212 0.1309 0.87206 0.0
O312 O 0.50153 0.04385 0.64486 0.0
H313 H 0.43316 0.03451 0.66295 0.0
H314 H 0.47207 1.00155 0.6372 0.0
H315 H 0.45696 0.12619 0.8847 0.0
H316 H 0.58047 0.12594 0.71952 0.0
H317 H 0.49057 0.15774 0.93797 0.0
H318 H 0.57978 0.15875 0.67017 0.0
O319 O 0.47247 0.06544 0.84191 0.0
H320 H 0.5207 0.00759 0.80512 0.0
H321 H 0.44499 0.99977 0.7682 0.0
H322 H 0.44793 0.97085 0.83058 0.0
H323 H 0.486 0.97465 0.84933 0.0
H324 H 0.517 0.03623 0.74347 0.0
H325 H 0.44152 0.97224 0.57174 0.0
H326 H 0.4062 0.97405 0.55206 0.0
O327 O 0.4548 0.04093 0.76391 0.0
C328 C 0.47468 0.08359 0.67723 0.0
C329 C 0.41738 0.00444 0.60661 0.0
C330 C 0.43952 0.98581 0.5917 0.0
N331 N 0.4543 0.0196 0.65431 0.0
C332 C 0.43499 0.0208 0.6434 0.0
C333 C 0.45677 0.00247 0.62872 0.0
C334 C 0.4197 0.98684 0.58069 0.0
C335 C 0.54602 0.11121 0.75361 0.0
N336 N 0.52682 0.11308 0.75709 0.0
C337 C 0.56534 0.12757 0.72236 0.0
C338 C 0.56493 0.14595 0.69459 0.0
C339 C 0.5453 0.14776 0.69837 0.0
C340 C 0.52628 0.13106 0.72992 0.0
C341 C 0.51358 0.1463 0.90849 0.0
C342 C 0.47619 0.11116 0.84887 0.0
C343 C 0.51561 0.12978 0.87484 0.0
N344 N 0.49706 0.11258 0.84529 0.0
C345 C 0.47353 0.12737 0.8821 0.0
C346 C 0.49238 0.14506 0.91203 0.0
C347 C 0.45486 0.04853 0.81784 0.0
C348 C 0.50401 0.0057 0.79709 0.0
C349 C 0.46162 1.00159 0.77629 0.0
C350 C 0.46317 0.98512 0.81153 0.0
C351 C 0.48454 0.98725 0.82198 0.0
N352 N 0.4808 0.01964 0.75204 0.0
C353 C 0.5018 0.02181 0.76199 0.0
Co354 Co 0.70612 0.96087 0.64817 0.0
Co355 Co 0.75119 0.98519 0.54885 0.0
O356 O 0.72856 0.95902 0.59577 0.0
C357 C 0.72542 0.9391 0.7283 0.0
O358 O 0.74587 0.95553 0.71272 0.0
C359 C 0.73121 0.94726 0.45775 0.0
O360 O 0.71092 0.94318 0.47528 0.0
O361 O 0.72647 0.9887 0.50934 0.0
O362 O 0.70366 0.98276 0.59041 0.0
H363 H 0.78688 0.06437 0.46073 0.0
H364 H 0.69815 0.91548 0.60839 0.0
O365 O 0.7077 0.93886 0.70701 0.0
H366 H 0.63191 0.92004 0.53001 0.0
H367 H 0.63784 0.9287 0.78842 0.0
H368 H 0.69935 0.99856 0.69275 0.0
H369 H 0.66222 0.95185 0.59 0.0
H370 H 0.66572 0.92672 0.71935 0.0
O371 O 0.74913 0.96385 0.48146 0.0
H372 H 0.7589 0.03153 0.5218 0.0
H373 H 0.79114 0.99369 0.47174 0.0
H374 H 0.67174 1.0013 0.76114 0.0
H375 H 0.66812 0.88318 0.54907 0.0
H376 H 0.64071 0.96619 0.80953 0.0
H377 H 0.63474 0.88538 0.50926 0.0
O378 O 0.73109 0.98706 0.69368 0.0
H379 H 0.78828 0.94095 0.62295 0.0
H380 H 0.7954 0.01713 0.61106 0.0
H381 H 0.82553 0.01282 0.66316 0.0
H382 H 0.8221 0.97451 0.66925 0.0
H383 H 0.75843 0.94598 0.57179 0.0
H384 H 0.81936 0.02605 0.40968 0.0
H385 H 0.81738 0.06175 0.4041 0.0
O386 O 0.75414 0.00718 0.61576 0.0
C387 C 0.71033 0.99002 0.53586 0.0
C388 C 0.78797 0.04894 0.46296 0.0
C389 C 0.80618 0.02742 0.43424 0.0
N390 N 0.77351 0.01079 0.50075 0.0
C391 C 0.77221 0.03031 0.49761 0.0
C392 C 0.79012 0.00913 0.46935 0.0
C393 C 0.80506 0.04745 0.43115 0.0
C394 C 0.68355 0.91646 0.59179 0.0
N395 N 0.68189 0.93548 0.6029 0.0
C396 C 0.66666 0.89816 0.55799 0.0
C397 C 0.64795 0.89942 0.53558 0.0
C398 C 0.64636 0.91887 0.54716 0.0
C399 C 0.66361 0.93686 0.58103 0.0
C400 C 0.65126 0.94411 0.7675 0.0
C401 C 0.68581 0.98318 0.71329 0.0
C402 C 0.66711 0.9431 0.72844 0.0
N403 N 0.68402 0.96248 0.70162 0.0
C404 C 0.67026 0.98485 0.75213 0.0
C405 C 0.65287 0.96515 0.77931 0.0
C406 C 0.74748 0.00544 0.67154 0.0
C407 C 0.79001 0.95774 0.62042 0.0
C408 C 0.79373 1.00039 0.61369 0.0
C409 C 0.81088 0.99806 0.64312 0.0
C410 C 0.80896 0.97657 0.64648 0.0
N411 N 0.77521 0.98184 0.58816 0.0
C412 C 0.77321 0.96071 0.59127 0.0
Co413 Co 0.17371 0.81989 0.66086 0.0
Co414 Co 0.1469 0.83647 0.55556 0.0
O415 O 0.1734 0.84237 0.60525 0.0
C416 C 0.18965 0.86121 0.73786 0.0
O417 O 0.17157 0.86185 0.71815 0.0
C418 C 0.18525 0.85414 0.46725 0.0
O419 O 0.18994 0.83884 0.48931 0.0
O420 O 0.14497 0.80827 0.52126 0.0
O421 O 0.15429 0.79405 0.60278 0.0
H422 H 0.06828 0.78812 0.46554 0.0
H423 H 0.21754 0.86029 0.62397 0.0
O424 O 0.19313 0.84523 0.71998 0.0
H425 H 0.22249 0.79343 0.55419 0.0
H426 H 0.21062 0.79165 0.81207 0.0
H427 H 0.13903 0.77394 0.70507 0.0
H428 H 0.18834 0.78831 0.60913 0.0
H429 H 0.20968 0.81918 0.73919 0.0
O430 O 0.16805 0.85511 0.48741 0.0
H431 H 0.10156 0.79587 0.53006 0.0
H432 H 0.13668 0.86499 0.47092 0.0
H433 H 0.13923 0.74584 0.77719 0.0
H434 H 0.25208 0.86618 0.56962 0.0
H435 H 0.17522 0.75464 0.83126 0.0
H436 H 0.25467 0.83259 0.53413 0.0
O437 O 0.14561 0.81559 0.70209 0.0
H438 H 0.18748 0.9191 0.61936 0.0
H439 H 0.11318 0.8475 0.61099 0.0
H440 H 0.11547 0.88198 0.65698 0.0
H441 H 0.15282 0.91811 0.6613 0.0
H442 H 0.18446 0.88418 0.57428 0.0
H443 H 0.10386 0.85795 0.40533 0.0
H444 H 0.06931 0.8193 0.40257 0.0
O445 O 0.12525 0.81796 0.62317 0.0
C446 C 0.14595 0.79208 0.54868 0.0
C447 C 0.08321 0.80505 0.46652 0.0
C448 C 0.10319 0.84424 0.43266 0.0
N449 N 0.12094 0.83091 0.50468 0.0
C450 C 0.10207 0.80956 0.50311 0.0
C451 C 0.12173 0.84811 0.46979 0.0
C452 C 0.0838 0.82255 0.43115 0.0
C453 C 0.21865 0.84558 0.60929 0.0
N454 N 0.201 0.82399 0.61998 0.0
C455 C 0.23821 0.84903 0.57829 0.0
C456 C 0.23963 0.83018 0.55829 0.0
C457 C 0.22157 0.8082 0.56948 0.0
C458 C 0.20226 0.80541 0.6005 0.0
C459 C 0.19484 0.7876 0.78866 0.0
C460 C 0.15479 0.77781 0.7281 0.0
C461 C 0.1942 0.80313 0.74743 0.0
N462 N 0.17437 0.79806 0.71747 0.0
C463 C 0.15478 0.76187 0.76903 0.0
C464 C 0.17498 0.76683 0.7994 0.0
C465 C 0.12705 0.81298 0.67893 0.0
C466 C 0.17109 0.90348 0.61755 0.0
C467 C 0.12951 0.86315 0.61283 0.0
C468 C 0.13069 0.88263 0.63881 0.0
C469 C 0.15165 0.9029 0.64117 0.0
N470 N 0.14865 0.86385 0.5897 0.0
C471 C 0.16926 0.88367 0.59182 0.0
Co472 Co 0.32329 0.42502 0.62017 0.0
Co473 Co 0.29781 0.37503 0.53681 0.0
O474 O 0.29693 0.40009 0.57882 0.0
C475 C 0.28692 0.40704 0.71317 0.0
O476 O 0.28403 0.38681 0.69973 0.0
C477 C 0.27787 0.39287 0.44577 0.0
O478 O 0.29508 0.41328 0.45856 0.0
O479 O 0.32461 0.3971 0.48766 0.0
O480 O 0.3446 0.42581 0.55461 0.0
H481 H 0.33543 0.3329 0.45176 0.0
H482 H 0.28278 0.42968 0.59227 0.0
O483 O 0.30243 0.42473 0.68615 0.0
H484 H 0.34694 0.49331 0.48329 0.0
H485 H 0.36394 0.49875 0.73962 0.0
H486 H 0.37057 0.43552 0.64808 0.0
H487 H 0.35325 0.46651 0.54594 0.0
H488 H 0.33126 0.46737 0.68462 0.0
O489 O 0.27656 0.37534 0.47188 0.0
H490 H 0.33412 0.36419 0.50673 0.0
H491 H 0.26267 0.33276 0.47329 0.0
H492 H 0.40375 0.46665 0.70217 0.0
H493 H 0.27575 0.4562 0.53052 0.0
H494 H 0.40053 0.49856 0.74842 0.0
H495 H 0.30796 0.48824 0.47531 0.0
O496 O 0.32826 0.4029 0.66829 0.0
H497 H 0.22012 0.34465 0.6312 0.0
H498 H 0.28655 0.33341 0.61037 0.0
H499 H 0.25399 0.30692 0.6747 0.0
H500 H 0.22046 0.31247 0.68545 0.0
H501 H 0.25312 0.37084 0.56769 0.0
H502 H 0.26322 0.30122 0.41749 0.0
H503 H 0.29979 0.30112 0.40667 0.0
O504 O 0.31885 0.374 0.60164 0.0
C505 C 0.3426 0.41551 0.5036 0.0
C506 C 0.31938 0.33271 0.45634 0.0
C507 C 0.27886 0.31494 0.43703 0.0
N508 N 0.29831 0.35018 0.49364 0.0
C509 C 0.31852 0.35034 0.48757 0.0
C510 C 0.27865 0.33287 0.46856 0.0
C511 C 0.29938 0.3149 0.431 0.0
C512 C 0.29693 0.44373 0.56894 0.0
N513 N 0.31842 0.44659 0.57293 0.0
C514 C 0.29283 0.45863 0.53381 0.0
C515 C 0.3109 0.47658 0.50275 0.0
C516 C 0.33277 0.47942 0.50717 0.0
C517 C 0.33623 0.46416 0.54261 0.0
C518 C 0.36557 0.48498 0.71953 0.0
C519 C 0.36911 0.44944 0.6677 0.0
C520 C 0.34711 0.46714 0.68844 0.0
N521 N 0.3491 0.44976 0.66269 0.0
C522 C 0.38792 0.46697 0.69845 0.0
C523 C 0.3861 0.48486 0.72444 0.0
C524 C 0.32746 0.38433 0.6526 0.0
C525 C 0.23459 0.342 0.6267 0.0
C526 C 0.27204 0.33595 0.61483 0.0
C527 C 0.25363 0.32087 0.65125 0.0
C528 C 0.23482 0.32398 0.65721 0.0
N529 N 0.2717 0.3536 0.58507 0.0
C530 C 0.25329 0.35672 0.59056 0.0
Co531 Co 0.70393 0.81007 0.14617 0.0
Co532 Co 0.74941 0.83015 0.04827 0.0
O533 O 0.72693 0.83419 0.09454 0.0
C534 C 0.72383 0.851 0.22739 0.0
O535 O 0.74414 0.85451 0.21219 0.0
C536 C 0.73038 0.84871 0.95679 0.0
O537 O 0.70993 0.83275 0.97398 0.0
O538 O 0.72452 0.80227 0.00789 0.0
O539 O 0.70104 0.78557 0.08787 0.0
H540 H 0.78405 0.78544 0.96149 0.0
H541 H 0.6973 0.84835 0.10667 0.0
O542 O 0.70594 0.83385 0.20547 0.0
H543 H 0.63035 0.7787 0.02581 0.0
H544 H 0.63504 0.77503 0.28433 0.0
H545 H 0.6958 0.76506 0.18991 0.0
H546 H 0.65991 0.77613 0.08657 0.0
H547 H 0.66368 0.80473 0.21641 0.0
O548 O 0.74809 0.84973 0.98089 0.0
H549 H 0.75624 0.79094 0.02158 0.0
H550 H 0.78995 0.86113 0.97236 0.0
H551 H 0.6674 0.73485 0.25713 0.0
H552 H 0.66803 0.85169 0.04657 0.0
H553 H 0.63675 0.73975 0.30488 0.0
H554 H 0.6343 0.81669 0.00552 0.0
O555 O 0.72834 0.80802 0.19235 0.0
H556 H 0.78758 0.91139 0.12358 0.0
H557 H 0.79313 0.84143 0.11179 0.0
H558 H 0.82345 0.87545 0.16491 0.0
H559 H 0.82081 0.91078 0.17097 0.0
H560 H 0.75752 0.8769 0.07141 0.0
H561 H 0.81801 0.85634 0.91127 0.0
H562 H 0.81521 0.81829 0.90577 0.0
O563 O 0.75162 0.81079 0.1152 0.0
C564 C 0.70792 0.78497 0.03351 0.0
C565 C 0.7855 0.80212 0.96368 0.0
C566 C 0.80454 0.8419 0.93544 0.0
N567 N 0.77159 0.82637 1.0009 0.0
C568 C 0.76984 0.80535 0.99779 0.0
C569 C 0.78857 0.8445 0.96999 0.0
C570 C 0.80296 0.82055 0.93239 0.0
C571 C 0.68254 0.83303 0.08952 0.0
N572 N 0.68027 0.81207 0.10036 0.0
C573 C 0.66608 0.83503 0.05529 0.0
C574 C 0.64718 0.81539 0.03217 0.0
C575 C 0.64496 0.79408 0.0435 0.0
C576 C 0.66179 0.79273 0.07781 0.0
C577 C 0.64828 0.77268 0.26369 0.0
C578 C 0.68242 0.76724 0.21018 0.0
C579 C 0.66457 0.78945 0.22528 0.0
N580 N 0.68127 0.78652 0.1988 0.0
C581 C 0.66643 0.75011 0.24836 0.0
C582 C 0.64925 0.75288 0.27518 0.0
C583 C 0.74473 0.8059 0.17077 0.0
C584 C 0.78897 0.89613 0.12108 0.0
C585 C 0.79181 0.8567 0.11439 0.0
C586 C 0.80907 0.87594 0.14441 0.0
C587 C 0.80758 0.89576 0.14774 0.0
N588 N 0.77361 0.8572 0.0883 0.0
C589 C 0.77204 0.87658 0.09136 0.0
Co590 Co 0.32405 0.96291 0.16085 0.0
Co591 Co 0.30112 0.98445 0.05776 0.0
O592 O 0.29944 0.95951 0.10684 0.0
C593 C 0.28287 0.94163 0.23952 0.0
O594 O 0.27872 0.95762 0.22019 0.0
C595 C 0.28808 0.94673 0.96925 0.0
O596 O 0.30573 0.94557 0.99025 0.0
O597 O 0.33064 0.99055 0.02164 0.0
O598 O 0.34809 0.98444 0.10167 0.0
H599 H 0.33944 0.06337 0.96723 0.0
H600 H 0.28742 0.91653 0.12454 0.0
O601 O 0.30062 0.94136 0.22093 0.0
H602 H 0.35912 0.92232 0.05087 0.0
H603 H 0.36162 0.93439 0.30906 0.0
H604 H 0.36815 0.00194 0.20314 0.0
H605 H 0.3597 0.95439 0.10681 0.0
H606 H 0.33133 0.93055 0.23782 0.0
O607 O 0.28392 0.96192 0.99011 0.0
H608 H 0.33708 0.03214 0.03132 0.0
H609 H 0.26818 0.98881 0.97509 0.0
H610 H 0.39893 0.00654 0.27361 0.0
H611 H 0.28607 0.88399 0.06922 0.0
H612 H 0.39576 0.97259 0.32716 0.0
H613 H 0.3221 0.8868 0.03178 0.0
O614 O 0.32452 0.98923 0.20289 0.0
H615 H 0.21965 0.93467 0.12483 0.0
H616 H 0.28455 0.0136 0.1153 0.0
H617 H 0.24843 0.00623 0.16319 0.0
H618 H 0.21566 0.96652 0.16811 0.0
H619 H 0.25614 0.94277 0.07784 0.0
H620 H 0.26984 0.01951 0.90996 0.0
H621 H 0.30564 0.05714 0.90594 0.0
O622 O 0.31826 0.0074 0.12498 0.0
C623 C 0.34831 0.99204 0.04761 0.0
C624 C 0.32372 0.04708 0.96877 0.0
C625 C 0.28466 0.02245 0.93656 0.0
N626 N 0.30245 0.00877 0.00739 0.0
C627 C 0.32226 0.02936 0.00514 0.0
C628 C 0.28383 0.00512 0.97343 0.0
C629 C 0.30475 0.04357 0.93435 0.0
C630 C 0.30319 0.91779 0.109 0.0
N631 N 0.32362 0.93729 0.11917 0.0
C632 C 0.30231 0.89934 0.07745 0.0
C633 C 0.32253 0.90095 0.05636 0.0
C634 C 0.3433 0.92088 0.06701 0.0
C635 C 0.34352 0.939 0.09861 0.0
C636 C 0.36323 0.9493 0.28589 0.0
C637 C 0.36674 0.98707 0.22594 0.0
C638 C 0.34612 0.94724 0.24559 0.0
N639 N 0.34809 0.96598 0.21595 0.0
C640 C 0.38418 0.98979 0.26593 0.0
C641 C 0.38238 0.97074 0.29601 0.0
C642 C 0.32433 0.00656 0.18035 0.0
C643 C 0.23379 0.95205 0.12279 0.0
C644 C 0.27039 0.99626 0.11741 0.0
C645 C 0.24996 0.9922 0.14446 0.0
C646 C 0.23157 0.96993 0.14715 0.0
N647 N 0.27242 0.97864 0.09357 0.0
C648 C 0.25446 0.95676 0.09598 0.0
Co649 Co 0.16965 0.42017 0.1279 0.0
Co650 Co 0.15 0.37586 0.02543 0.0
O651 O 0.17381 0.3982 0.07952 0.0
C652 C 0.18788 0.39988 0.2175 0.0
O653 O 0.17191 0.37964 0.19854 0.0
C654 C 0.19106 0.39695 0.9465 0.0
O655 O 0.19408 0.41697 0.96314 0.0
O656 O 0.1481 0.40068 0.98184 0.0
O657 O 0.15068 0.42334 0.06085 0.0
H658 H 0.07545 0.3406 0.90958 0.0
H659 H 0.21645 0.42822 0.10608 0.0
O660 O 0.18885 0.41783 0.19541 0.0
H661 H 0.21604 0.49548 0.01962 0.0
H662 H 0.19545 0.48698 0.2725 0.0
H663 H 0.13047 0.42704 0.15481 0.0
H664 H 0.18158 0.46468 0.06915 0.0
H665 H 0.20036 0.45958 0.20846 0.0
O666 O 0.1741 0.37871 0.96695 0.0
H667 H 0.10521 0.36819 0.98005 0.0
H668 H 0.14518 0.33653 0.95121 0.0
H669 H 0.12485 0.45419 0.21784 0.0
H670 H 0.25135 0.45874 0.05747 0.0
H671 H 0.1575 0.48444 0.27726 0.0
H672 H 0.25126 0.49264 0.01364 0.0
O673 O 0.14137 0.39493 0.16506 0.0
H674 H 0.19117 0.33884 0.12151 0.0
H675 H 0.11577 0.33123 0.08039 0.0
H676 H 0.11805 0.301 0.13811 0.0
H677 H 0.15595 0.30469 0.15895 0.0
H678 H 0.18813 0.36877 0.06443 0.0
H679 H 0.11593 0.30869 0.88002 0.0
H680 H 0.08072 0.31058 0.859 0.0
O681 O 0.12522 0.37231 0.08273 0.0
C682 C 0.14584 0.41682 0.00479 0.0
C683 C 0.09067 0.33955 0.91855 0.0
C684 C 0.11341 0.32166 0.9019 0.0
N685 N 0.12679 0.35382 0.97022 0.0
C686 C 0.10755 0.35508 0.95857 0.0
C687 C 0.12992 0.33748 0.94217 0.0
C688 C 0.09365 0.32272 0.89014 0.0
C689 C 0.21635 0.44303 0.08769 0.0
N690 N 0.19703 0.44471 0.09076 0.0
C691 C 0.23613 0.46021 0.05997 0.0
C692 C 0.23606 0.47921 0.0353 0.0
C693 C 0.21629 0.4808 0.0386 0.0
C694 C 0.19682 0.46328 0.06658 0.0
C695 C 0.18111 0.47391 0.24672 0.0
C696 C 0.14479 0.44024 0.18022 0.0
C697 C 0.18377 0.45831 0.21049 0.0
N698 N 0.16576 0.44184 0.17755 0.0
C699 C 0.14149 0.45553 0.21598 0.0
C700 C 0.15981 0.47248 0.24936 0.0
C701 C 0.12418 0.37878 0.13726 0.0
C702 C 0.17455 0.337 0.11253 0.0
C703 C 0.13234 0.333 0.08941 0.0
C704 C 0.13351 0.31579 0.12199 0.0
C705 C 0.15478 0.31786 0.13362 0.0
N706 N 0.1518 0.35171 0.06885 0.0
C707 C 0.17271 0.35384 0.07999 0.0
Co708 Co 0.42672 0.32204 0.87898 0.0
Co709 Co 0.37758 0.29822 0.96492 0.0
O710 O 0.40196 0.29643 0.92228 0.0
C711 C 0.4073 0.28437 0.78844 0.0
O712 O 0.38725 0.28179 0.80239 0.0
C713 C 0.39621 0.27941 0.05668 0.0
O714 O 0.41649 0.2965 0.04267 0.0
O715 O 0.40037 0.32548 0.01185 0.0
O716 O 0.42867 0.34435 0.94364 0.0
H717 H 0.33715 0.33773 0.04908 0.0
H718 H 0.43076 0.28138 0.90894 0.0
O719 O 0.42533 0.30019 0.81405 0.0
H720 H 0.49625 0.34609 0.0126 0.0
H721 H 0.49925 0.36015 0.75526 0.0
H722 H 0.43776 0.36921 0.84854 0.0
H723 H 0.46924 0.3523 0.95029 0.0
H724 H 0.46811 0.32846 0.81283 0.0
O725 O 0.37841 0.27773 0.03093 0.0
H726 H 0.3676 0.33527 0.99316 0.0
H727 H 0.33587 0.2643 0.03192 0.0
H728 H 0.46867 0.40142 0.79185 0.0
H729 H 0.45746 0.27443 0.97042 0.0
H730 H 0.49969 0.39698 0.74472 0.0
H731 H 0.49045 0.30692 0.02296 0.0
O732 O 0.40437 0.32691 0.83127 0.0
H733 H 0.34513 0.2192 0.87649 0.0
H734 H 0.33527 0.28656 0.89333 0.0
H735 H 0.3077 0.2533 0.83202 0.0
H736 H 0.31255 0.2193 0.82332 0.0
H737 H 0.3724 0.25289 0.93693 0.0
H738 H 0.30518 0.26601 0.08873 0.0
H739 H 0.30566 0.30291 0.09735 0.0
O740 O 0.37614 0.31856 0.89897 0.0
C741 C 0.41888 0.34306 0.99497 0.0
C742 C 0.33671 0.32153 0.04546 0.0
C743 C 0.31878 0.28129 0.06778 0.0
N744 N 0.35338 0.29963 0.00884 0.0
C745 C 0.35386 0.32002 0.0137 0.0
C746 C 0.33622 0.28043 0.03568 0.0
C747 C 0.31906 0.302 0.07259 0.0
C748 C 0.44521 0.29564 0.93109 0.0
N749 N 0.44848 0.31723 0.92579 0.0
C750 C 0.46022 0.29159 0.96607 0.0
C751 C 0.4787 0.30982 0.99564 0.0
C752 C 0.48195 0.3318 0.98988 0.0
C753 C 0.46657 0.3352 0.95463 0.0
C754 C 0.48585 0.36231 0.77571 0.0
C755 C 0.4513 0.36722 0.82852 0.0
C756 C 0.46816 0.34442 0.80825 0.0
N757 N 0.45127 0.34708 0.83446 0.0
C758 C 0.46871 0.38549 0.79631 0.0
C759 C 0.4861 0.38298 0.76983 0.0
C760 C 0.38605 0.32654 0.84741 0.0
C761 C 0.3428 0.23388 0.88011 0.0
C762 C 0.33752 0.27185 0.8897 0.0
C763 C 0.32183 0.25304 0.85502 0.0
C764 C 0.32454 0.23396 0.8502 0.0
N765 N 0.35538 0.27164 0.9189 0.0
C766 C 0.35812 0.25297 0.91451 0.0
Co767 Co 0.83368 0.14762 0.9609 0.0
Co768 Co 0.81308 0.17232 0.86167 0.0
O769 O 0.83745 0.17394 0.91393 0.0
C770 C 0.85329 0.18599 0.05124 0.0
O771 O 0.83764 0.19091 0.03354 0.0
C772 C 0.85362 0.19353 0.78075 0.0
O773 O 0.85738 0.17691 0.79619 0.0
O774 O 0.81145 0.14603 0.81608 0.0
O775 O 0.81407 0.12572 0.89423 0.0
H776 H 0.73785 0.1324 0.74905 0.0
H777 H 0.88029 0.18631 0.93692 0.0
O778 O 0.8536 0.16881 0.02812 0.0
H779 H 0.87883 0.11875 0.8456 0.0
H780 H 0.86055 0.10585 0.0991 0.0
H781 H 0.79462 0.10162 0.98847 0.0
H782 H 0.84491 0.11508 0.89851 0.0
H783 H 0.86502 0.13844 0.03726 0.0
O784 O 0.83651 0.19419 0.80272 0.0
H785 H 0.76836 0.13486 0.81702 0.0
H786 H 0.80689 0.20671 0.79096 0.0
H787 H 0.78943 0.06856 0.04933 0.0
H788 H 0.91466 0.1907 0.88493 0.0
H789 H 0.82256 0.07055 0.10521 0.0
H790 H 0.91405 0.15677 0.83865 0.0
O791 O 0.80578 0.14464 1.00082 0.0
H792 H 0.85364 0.25008 0.96033 0.0
H793 H 0.77863 0.18163 0.92048 0.0
H794 H 0.78063 0.21357 0.98053 0.0
H795 H 0.81834 0.24813 1.00072 0.0
H796 H 0.85088 0.21764 0.901 0.0
H797 H 0.77689 0.20501 0.72229 0.0
H798 H 0.74202 0.16766 0.70114 0.0
O799 O 0.78886 0.15055 0.91934 0.0
C800 C 0.80919 0.12754 0.83834 0.0
C801 C 0.75292 0.14879 0.75809 0.0
C802 C 0.77484 0.18953 0.74302 0.0
N803 N 0.78927 0.17093 0.80844 0.0
C804 C 0.77022 0.1503 0.7967 0.0
C805 C 0.79179 0.19039 0.78185 0.0
C806 C 0.75528 0.16857 0.73118 0.0
C807 C 0.87996 0.17142 0.91747 0.0
N808 N 0.86065 0.15045 0.92106 0.0
C809 C 0.89945 0.17403 0.88784 0.0
C810 C 0.89908 0.15499 0.86179 0.0
C811 C 0.87932 0.13366 0.86564 0.0
C812 C 0.86014 0.1317 0.89554 0.0
C813 C 0.846 0.10476 0.07489 0.0
C814 C 0.80914 0.10257 0.01236 0.0
C815 C 0.84841 0.12317 0.03991 0.0
N816 N 0.83013 0.12186 0.00893 0.0
C817 C 0.80609 0.08382 0.04689 0.0
C818 C 0.82468 0.08496 0.07827 0.0
C819 C 0.78829 0.14329 0.97392 0.0
C820 C 0.8371 0.23515 0.95165 0.0
C821 C 0.79512 0.19657 0.92924 0.0
C822 C 0.79613 0.21463 0.96314 0.0
C823 C 0.81729 0.23403 0.9744 0.0
N824 N 0.81462 0.19781 0.90706 0.0
C825 C 0.83542 0.21678 0.91785 0.0
Co826 Co 0.96115 0.70403 0.86053 0.0
Co827 Co 0.98276 0.74846 0.96394 0.0
O828 O 0.95782 0.72524 0.91434 0.0
C829 C 0.94029 0.72427 0.78103 0.0
O830 O 0.95637 0.74434 0.80077 0.0
C831 C 0.94502 0.72366 0.05172 0.0
O832 O 0.94384 0.70487 0.03077 0.0
O833 O 0.98896 0.72505 1.0001 0.0
O834 O 0.98248 0.70132 0.92035 0.0
H835 H 0.06177 0.78909 0.05582 0.0
H836 H 0.91479 0.69455 0.89525 0.0
O837 O 0.93981 0.70616 0.79975 0.0
H838 H 0.91992 0.6283 0.96958 0.0
H839 H 0.93238 0.63808 0.71181 0.0
H840 H 1.00007 0.69872 0.81947 0.0
H841 H 0.95222 0.65972 0.91457 0.0
H842 H 0.92868 0.66458 0.78276 0.0
O843 O 0.96023 0.74301 0.03116 0.0
H844 H 0.03049 0.76021 0.99128 0.0
H845 H 0.98711 0.78565 0.04668 0.0
H846 H 0.00452 0.6725 0.74931 0.0
H847 H 0.88202 0.66342 0.94962 0.0
H848 H 0.97051 0.64191 0.6949 0.0
H849 H 0.8845 0.63003 0.98739 0.0
O850 O 0.98768 0.72982 0.81925 0.0
H851 H 0.93279 0.77999 0.89585 0.0
H852 H 0.01184 0.79424 0.90703 0.0
H853 H 0.00437 0.82295 0.85891 0.0
H854 H 0.96461 0.81591 0.85316 0.0
H855 H 0.94099 0.75165 0.94307 0.0
H856 H 0.01786 0.81469 0.11226 0.0
H857 H 0.05554 0.81659 0.1169 0.0
O858 O 0.00567 0.75439 0.89717 0.0
C859 C 0.99028 0.70878 0.97431 0.0
C860 C 0.04546 0.78849 0.054 0.0
C861 C 0.0208 0.80284 0.08574 0.0
N862 N 0.00709 0.77141 0.01476 0.0
C863 C 0.02771 0.77223 0.01738 0.0
C864 C 0.00345 0.78634 0.04862 0.0
C865 C 0.04194 0.8039 0.08831 0.0
C866 C 0.9159 0.67995 0.91094 0.0
N867 N 0.93534 0.6789 0.90146 0.0
C868 C 0.89733 0.66243 0.94195 0.0
C869 C 0.89875 0.64372 0.96322 0.0
C870 C 0.91862 0.64275 0.95329 0.0
C871 C 0.93687 0.66061 0.92221 0.0
C872 C 0.94732 0.6513 0.73537 0.0
C873 C 0.98517 0.68535 0.7963 0.0
C874 C 0.94534 0.66637 0.77551 0.0
N875 N 0.96411 0.68303 0.80564 0.0
C876 C 0.9878 0.6706 0.75648 0.0
C877 C 0.96872 0.65345 0.72592 0.0
C878 C 0.00496 0.74742 0.842 0.0
C879 C 0.9502 0.78328 0.89826 0.0
C880 C 0.99448 0.79103 0.90456 0.0
C881 C 0.99037 0.80737 0.87739 0.0
C882 C 0.96806 0.80342 0.87422 0.0
N883 N 0.97688 0.77133 0.92808 0.0
C884 C 0.95496 0.76735 0.92521 0.0
Co885 Co 0.37578 0.14915 0.46623 0.0
Co886 Co 0.42429 0.17281 0.37788 0.0
O887 O 0.40019 0.1747 0.42187 0.0
C888 C 0.39549 0.18701 0.55624 0.0
O889 O 0.41553 0.18966 0.54174 0.0
C890 C 0.40529 0.19165 0.2872 0.0
O891 O 0.38503 0.17461 0.30167 0.0
O892 O 0.4012 0.14549 0.33173 0.0
O893 O 0.37361 0.12673 0.40183 0.0
H894 H 0.46409 0.13311 0.29076 0.0
H895 H 0.3713 0.18959 0.43656 0.0
O896 O 0.3774 0.17111 0.5311 0.0
H897 H 0.30546 0.12442 0.33541 0.0
H898 H 0.30388 0.11105 0.59256 0.0
H899 H 0.36517 0.10215 0.4973 0.0
H900 H 0.33295 0.11855 0.39657 0.0
H901 H 0.33465 0.14268 0.53392 0.0
O902 O 0.42316 0.19328 0.31236 0.0
H903 H 0.43397 0.13566 0.34813 0.0
H904 H 0.46569 0.20665 0.30964 0.0
H905 H 0.33463 0.06999 0.55504 0.0
H906 H 0.34413 0.19619 0.37623 0.0
H907 H 0.3037 0.07435 0.60316 0.0
H908 H 0.31097 0.16347 0.32495 0.0
O909 O 0.39847 0.14447 0.5128 0.0
H910 H 0.45738 0.2519 0.46631 0.0
H911 H 0.46693 0.1844 0.44765 0.0
H912 H 0.49487 0.21766 0.50831 0.0
H913 H 0.49018 0.25173 0.51793 0.0
H914 H 0.42974 0.21821 0.4065 0.0
H915 H 0.49605 0.20485 0.25137 0.0
H916 H 0.49541 0.16789 0.24189 0.0
O917 O 0.426 0.15244 0.44311 0.0
C918 C 0.38302 0.12784 0.35001 0.0
C919 C 0.4646 0.14933 0.29475 0.0
C920 C 0.48252 0.18959 0.27257 0.0
N921 N 0.4482 0.17132 0.33268 0.0
C922 C 0.44763 0.15089 0.32733 0.0
C923 C 0.46526 0.1905 0.3055 0.0
C924 C 0.48215 0.16885 0.26728 0.0
C925 C 0.35677 0.17523 0.41497 0.0
N926 N 0.35366 0.1537 0.42034 0.0
C927 C 0.3415 0.17909 0.38063 0.0
C928 C 0.32292 0.16072 0.35177 0.0
C929 C 0.31983 0.13881 0.35758 0.0
C930 C 0.33548 0.13561 0.39218 0.0
C931 C 0.31723 0.10892 0.57168 0.0
C932 C 0.35167 0.1041 0.51775 0.0
C933 C 0.33471 0.12679 0.53854 0.0
N934 N 0.35155 0.12416 0.51176 0.0
C935 C 0.33447 0.08587 0.55056 0.0
C936 C 0.31714 0.08833 0.57759 0.0
C937 C 0.41648 0.14451 0.49509 0.0
C938 C 0.45965 0.23719 0.46228 0.0
C939 C 0.46475 0.19914 0.45167 0.0
C940 C 0.48065 0.21795 0.48599 0.0
C941 C 0.47803 0.23706 0.49132 0.0
N942 N 0.44677 0.1994 0.42333 0.0
C943 C 0.44411 0.2181 0.42823 0.0
Co944 Co 0.96767 0.32291 0.35848 0.0
Co945 Co 0.98873 0.30183 0.46695 0.0
O946 O 0.964 0.29822 0.41264 0.0
C947 C 0.94651 0.2817 0.27684 0.0
O948 O 0.96182 0.2766 0.29657 0.0
C949 C 0.94842 0.28219 0.54945 0.0
O950 O 0.94412 0.29813 0.53063 0.0
O951 O 0.99013 0.32929 0.50514 0.0
O952 O 0.98806 0.34691 0.41992 0.0
H953 H 0.06425 0.34603 0.57659 0.0
H954 H 0.92112 0.28567 0.38996 0.0
O955 O 0.94697 0.29975 0.29602 0.0
H956 H 0.92434 0.35659 0.46079 0.0
H957 H 0.94044 0.36047 0.20635 0.0
H958 H 0.00693 0.3674 0.32035 0.0
H959 H 0.95757 0.35791 0.4099 0.0
H960 H 0.93602 0.33009 0.27747 0.0
O961 O 0.9657 0.28153 0.52894 0.0
H962 H 0.03335 0.34098 0.50604 0.0
H963 H 0.99581 0.27013 0.54764 0.0
H964 H 0.01209 0.39826 0.25009 0.0
H965 H 0.88742 0.28359 0.44012 0.0
H966 H 0.97869 0.39491 0.19247 0.0
H967 H 0.88893 0.31923 0.47608 0.0
O968 O 0.99506 0.32405 0.32043 0.0
H969 H 0.94888 0.2213 0.38593 0.0
H970 H 0.02346 0.29142 0.41521 0.0
H971 H 0.02183 0.25797 0.36456 0.0
H972 H 0.98434 0.22256 0.34977 0.0
H973 H 0.95125 0.25524 0.43578 0.0
H974 H 0.02623 0.27445 0.61902 0.0
H975 H 0.0608 0.3126 0.63369 0.0
O976 O 0.01257 0.32197 0.40614 0.0
C977 C 0.99295 0.34707 0.47691 0.0
C978 C 0.04931 0.3293 0.57042 0.0
C979 C 0.02796 0.28913 0.59429 0.0
N980 N 0.0129 0.30525 0.52226 0.0
C981 C 0.03179 0.32632 0.53038 0.0
C982 C 0.01077 0.2868 0.55389 0.0
C983 C 0.04736 0.31054 0.60249 0.0
C984 C 0.92183 0.30127 0.40492 0.0
N985 N 0.94125 0.32189 0.39669 0.0
C986 C 0.90272 0.29998 0.43353 0.0
C987 C 0.9036 0.31998 0.45379 0.0
C988 C 0.92347 0.34094 0.44526 0.0
C989 C 0.94225 0.34158 0.41653 0.0
C990 C 0.95512 0.36215 0.23127 0.0
C991 C 0.99229 0.36586 0.29573 0.0
C992 C 0.95273 0.34498 0.27151 0.0
N993 N 0.97117 0.34704 0.30337 0.0
C994 C 0.99533 0.38337 0.25588 0.0
C995 C 0.97658 0.38147 0.22352 0.0
C996 C 0.01281 0.3269 0.34932 0.0
C997 C 0.96532 0.2366 0.39229 0.0
C998 C 0.00706 0.27612 0.40872 0.0
C999 C 0.00626 0.2572 0.38016 0.0
C1000 C 0.98522 0.23733 0.37192 0.0
N1001 N 0.98747 0.27526 0.42865 0.0
C1002 C 0.96678 0.25584 0.42073 0.0
Co1003 Co 0.83518 0.75505 0.46174 0.0
Co1004 Co 0.81852 0.71104 0.35842 0.0
O1005 O 0.84113 0.73442 0.4128 0.0
C1006 C 0.85332 0.73496 0.55053 0.0
O1007 O 0.83788 0.71493 0.52887 0.0
C1008 C 0.85925 0.73649 0.28005 0.0
O1009 O 0.8597 0.75518 0.29894 0.0
O1010 O 0.81333 0.73419 0.31644 0.0
O1011 O 0.81607 0.75749 0.39408 0.0
H1012 H 0.74368 0.66957 0.2445 0.0
H1013 H 0.88299 0.76569 0.44269 0.0
O1014 O 0.8543 0.75309 0.52991 0.0
H1015 H 0.8794 0.83144 0.35726 0.0
H1016 H 0.85684 0.82017 0.60973 0.0
H1017 H 0.79439 0.75939 0.48712 0.0
H1018 H 0.84537 0.79928 0.40452 0.0
H1019 H 0.86387 0.7943 0.54499 0.0
O1020 O 0.84357 0.71705 0.29876 0.0
H1021 H 0.77198 0.6986 0.31526 0.0
H1022 H 0.81802 0.67425 0.28148 0.0
H1023 H 0.78664 0.78498 0.5508 0.0
H1024 H 0.91749 0.79758 0.39634 0.0
H1025 H 0.81801 0.81564 0.6127 0.0
H1026 H 0.9158 0.83072 0.35303 0.0
O1027 O 0.80733 0.72882 0.49711 0.0
H1028 H 0.86672 0.68102 0.4504 0.0
H1029 H 0.78799 0.66498 0.41221 0.0
H1030 H 0.79421 0.63679 0.46823 0.0
H1031 H 0.83381 0.64474 0.48764 0.0
H1032 H 0.85972 0.70882 0.39498 0.0
H1033 H 0.7903 0.64507 0.20996 0.0
H1034 H 0.75278 0.64255 0.19128 0.0
O1035 O 0.79299 0.70449 0.41709 0.0
C1036 C 0.81061 0.75013 0.33884 0.0
C1037 C 0.75993 0.67044 0.25245 0.0
C1038 C 0.78611 0.65671 0.233 0.0
N1039 N 0.79652 0.68795 0.30296 0.0
C1040 C 0.77599 0.68678 0.29262 0.0
C1041 C 0.80175 0.67328 0.27347 0.0
C1042 C 0.76506 0.6553 0.22255 0.0
C1043 C 0.88219 0.78016 0.42454 0.0
N1044 N 0.86222 0.78067 0.42661 0.0
C1045 C 0.90175 0.79812 0.39809 0.0
C1046 C 0.90078 0.8167 0.37371 0.0
C1047 C 0.88036 0.8171 0.37602 0.0
C1048 C 0.86113 0.79882 0.40272 0.0
C1049 C 0.84305 0.80691 0.58285 0.0
C1050 C 0.80816 0.77279 0.51358 0.0
C1051 C 0.84692 0.7922 0.5462 0.0
N1052 N 0.8296 0.7755 0.51189 0.0
C1053 C 0.80365 0.78718 0.54971 0.0
C1054 C 0.82126 0.80437 0.58448 0.0
C1055 C 0.79122 0.71121 0.47078 0.0
C1056 C 0.84938 0.67732 0.44203 0.0
C1057 C 0.80527 0.66858 0.42054 0.0
C1058 C 0.80869 0.65253 0.45218 0.0
C1059 C 0.83091 0.65699 0.46301 0.0
N1060 N 0.82348 0.68848 0.4001 0.0
C1061 C 0.84531 0.69295 0.41041 0.0
H1062 H 0.09653 0.56003 0.94977 0.0
H1063 H 0.02303 0.51753 0.94165 0.0
H1064 H 0.01889 0.54316 0.01275 0.0
H1065 H 0.03606 0.57762 0.0779 0.0
H1066 H 0.10957 0.6201 0.0856 0.0
H1067 H 0.11366 0.59455 0.01428 0.0
C1068 C 0.0796 0.55634 0.96358 0.0
C1069 C 0.06016 0.53682 0.94039 0.0
C1070 C 0.07728 0.57119 0.00452 0.0
C1071 C 0.03834 0.5324 0.95871 0.0
C1072 C 0.03592 0.54707 0.99946 0.0
C1073 C 0.05297 0.58132 0.06391 0.0
C1074 C 0.07243 0.60081 0.08721 0.0
C1075 C 0.05527 0.56651 0.02272 0.0
C1076 C 0.09423 0.60527 0.06852 0.0
C1077 C 0.09663 0.59064 0.02766 0.0
H1078 H 0.57515 0.60635 0.92864 0.0
H1079 H 0.61994 0.578 0.94014 0.0
H1080 H 0.59353 0.54861 0.0103 0.0
H1081 H 0.55784 0.53084 0.06859 0.0
H1082 H 0.51298 0.55907 0.05883 0.0
H1083 H 0.53927 0.58852 0.98787 0.0
C1084 C 0.57917 0.59379 0.9466 0.0
C1085 C 0.59957 0.59448 0.92906 0.0
C1086 C 0.56386 0.57682 0.98717 0.0
C1087 C 0.60442 0.57798 0.95277 0.0
C1088 C 0.5893 0.56109 0.99293 0.0
C1089 C 0.55372 0.54335 0.05078 0.0
C1090 C 0.5334 0.54265 0.06887 0.0
C1091 C 0.56897 0.56032 0.01037 0.0
C1092 C 0.52848 0.55917 0.04565 0.0
C1093 C 0.54353 0.57604 0.00506 0.0
H1094 H 0.60406 0.10046 0.07 0.0
H1095 H 0.57748 0.02754 0.06708 0.0
H1096 H 0.5466 0.02242 0.99872 0.0
H1097 H 0.52699 0.03842 0.93912 0.0
H1098 H 0.55349 0.1113 0.94076 0.0
H1099 H 0.58432 0.11653 0.01007 0.0
C1100 C 0.59156 0.08346 0.0543 0.0
C1101 C 0.59324 0.06446 0.07377 0.0
C1102 C 0.57368 0.08055 0.01477 0.0
C1103 C 0.57675 0.04254 0.05296 0.0
C1104 C 0.559 0.03954 0.0138 0.0
C1105 C 0.53942 0.05545 0.95486 0.0
C1106 C 0.5378 0.0744 0.93477 0.0
C1107 C 0.55725 0.0584 0.99444 0.0
C1108 C 0.55423 0.09636 0.95542 0.0
C1109 C 0.57193 0.09939 0.99508 0.0
H1110 H 0.57395 0.03369 0.44155 0.0
H1111 H 0.6176 0.10705 0.4364 0.0
H1112 H 0.59229 0.11162 0.50715 0.0
H1113 H 0.55766 0.09501 0.57031 0.0
H1114 H 0.51397 0.02171 0.5763 0.0
H1115 H 0.53935 0.01701 0.50572 0.0
C1116 C 0.57796 0.05067 0.456 0.0
C1117 C 0.59769 0.06995 0.43355 0.0
C1118 C 0.56328 0.05326 0.4969 0.0
C1119 C 0.60256 0.09184 0.45283 0.0
C1120 C 0.58807 0.09452 0.49335 0.0
C1121 C 0.55365 0.078 0.55613 0.0
C1122 C 0.53388 0.05878 0.57854 0.0
C1123 C 0.56836 0.07538 0.51559 0.0
C1124 C 0.52905 0.03685 0.55983 0.0
C1125 C 0.54357 0.03412 0.51939 0.0
H1126 H 0.10066 0.60577 0.44865 0.0
H1127 H 0.02824 0.58196 0.45405 0.0
H1128 H 0.0223 0.55076 0.52176 0.0
H1129 H 0.03748 0.53008 0.58007 0.0
H1130 H 0.10988 0.55386 0.57543 0.0
H1131 H 0.11587 0.58497 0.50697 0.0
C1132 C 0.08359 0.59382 0.46479 0.0
C1133 C 0.06498 0.59635 0.44622 0.0
C1134 C 0.0802 0.57574 0.50382 0.0
C1135 C 0.04295 0.58055 0.4675 0.0
C1136 C 0.03948 0.56261 0.50627 0.0
C1137 C 0.05456 0.54197 0.56384 0.0
C1138 C 0.07316 0.53951 0.58289 0.0
C1139 C 0.05796 0.56 0.52469 0.0
C1140 C 0.0952 0.55526 0.5616 0.0
C1141 C 0.09868 0.57313 0.52243 0.0
H1142 H 0.58118 0.60435 0.56482 0.0
H1143 H 0.62298 0.57257 0.56505 0.0
H1144 H 0.59631 0.54323 0.49377 0.0
H1145 H 0.56103 0.52653 0.43111 0.0
H1146 H 0.5193 0.55843 0.43234 0.0
H1147 H 0.546 0.58764 0.50326 0.0
C1148 C 0.58454 0.59106 0.54924 0.0
C1149 C 0.60416 0.59078 0.57021 0.0
C1150 C 0.56907 0.57415 0.50852 0.0
C1151 C 0.60808 0.57329 0.54964 0.0
C1152 C 0.59281 0.55646 0.50886 0.0
C1153 C 0.55775 0.53984 0.44697 0.0
C1154 C 0.5381 0.54018 0.42637 0.0
C1155 C 0.57323 0.5567 0.48799 0.0
C1156 C 0.53418 0.55762 0.44747 0.0
C1157 C 0.54949 0.57441 0.48803 0.0
H1158 H 0.7578 0.89076 0.27723 0.0
H1159 H 0.68438 0.84733 0.27231 0.0
H1160 H 0.68014 0.87335 0.34163 0.0
H1161 H 0.69718 0.90824 0.40496 0.0
H1162 H 0.7706 0.95166 0.41 0.0
H1163 H 0.77481 0.92592 0.33949 0.0
C1164 C 0.74087 0.88695 0.29134 0.0
C1165 C 0.72148 0.86702 0.2696 0.0
C1166 C 0.73849 0.90205 0.3313 0.0
C1167 C 0.69966 0.86249 0.28826 0.0
C1168 C 0.69718 0.87739 0.32798 0.0
C1169 C 0.7141 0.91216 0.39042 0.0
C1170 C 0.73351 0.93192 0.41287 0.0
C1171 C 0.71647 0.8972 0.34991 0.0
C1172 C 0.75531 0.93661 0.39358 0.0
C1173 C 0.75778 0.92187 0.35322 0.0
H1174 H 0.22563 0.86006 0.42296 0.0
H1175 H 0.17972 0.88702 0.40968 0.0
H1176 H 0.20572 0.9163 0.33829 0.0
H1177 H 0.24178 0.93473 0.28066 0.0
H1178 H 0.28772 0.90783 0.29403 0.0
H1179 H 0.26143 0.87816 0.36415 0.0
C1180 C 0.22122 0.87224 0.4042 0.0
C1181 C 0.20069 0.87126 0.42174 0.0
C1182 C 0.23633 0.88917 0.36328 0.0
C1183 C 0.19538 0.88731 0.39709 0.0
C1184 C 0.21026 0.90413 0.35625 0.0
C1185 C 0.24609 0.92242 0.29896 0.0
C1186 C 0.26679 0.92363 0.28218 0.0
C1187 C 0.23085 0.90531 0.33927 0.0
C1188 C 0.27196 0.90738 0.30614 0.0
C1189 C 0.25691 0.89036 0.34629 0.0
H1190 H 0.27192 0.42656 0.39586 0.0
H1191 H 0.24215 0.35323 0.40002 0.0
H1192 H 0.21154 0.34885 0.33098 0.0
H1193 H 0.19325 0.36583 0.26866 0.0
H1194 H 0.22306 0.4392 0.26563 0.0
H1195 H 0.25344 0.44345 0.33493 0.0
C1196 C 0.2588 0.4096 0.38153 0.0
C1197 C 0.25947 0.39027 0.40298 0.0
C1198 C 0.24113 0.40717 0.34207 0.0
C1199 C 0.24215 0.36844 0.38423 0.0
C1200 C 0.22459 0.3659 0.34472 0.0
C1201 C 0.20631 0.38275 0.28337 0.0
C1202 C 0.20575 0.40213 0.26182 0.0
C1203 C 0.22388 0.38514 0.32332 0.0
C1204 C 0.22295 0.42393 0.28136 0.0
C1205 C 0.24041 0.42641 0.321 0.0
H1206 H 0.22914 0.43179 0.89333 0.0
H1207 H 0.18951 0.35816 0.90458 0.0
H1208 H 0.21582 0.35489 0.83464 0.0
H1209 H 0.24975 0.37271 0.76932 0.0
H1210 H 0.28944 0.44626 0.75666 0.0
H1211 H 0.26346 0.44971 0.82809 0.0
C1212 C 0.22626 0.41504 0.88049 0.0
C1213 C 0.20731 0.39528 0.90415 0.0
C1214 C 0.24148 0.41322 0.83999 0.0
C1215 C 0.2039 0.37369 0.88707 0.0
C1216 C 0.21895 0.37177 0.84703 0.0
C1217 C 0.25281 0.38952 0.78234 0.0
C1218 C 0.27155 0.40918 0.75771 0.0
C1219 C 0.23776 0.39139 0.82313 0.0
C1220 C 0.27515 0.43082 0.77491 0.0
C1221 C 0.26029 0.43282 0.81576 0.0
H1222 H 0.69696 0.85476 0.90473 0.0
H1223 H 0.77015 0.88289 0.90862 0.0
H1224 H 0.77511 0.91318 0.83844 0.0
H1225 H 0.7588 0.93218 0.777 0.0
H1226 H 0.6856 0.90405 0.77346 0.0
H1227 H 0.68063 0.87342 0.84221 0.0
C1228 C 0.71399 0.86743 0.88998 0.0
C1229 C 0.73312 0.86647 0.912 0.0
C1230 C 0.71678 0.88494 0.84975 0.0
C1231 C 0.75508 0.88315 0.89251 0.0
C1232 C 0.75797 0.90054 0.85236 0.0
C1233 C 0.74176 0.91937 0.7913 0.0
C1234 C 0.72265 0.92054 0.77015 0.0
C1235 C 0.73896 0.9017 0.83093 0.0
C1236 C 0.70067 0.90367 0.78899 0.0
C1237 C 0.69777 0.88609 0.82837 0.0
H1238 H 0.24961 0.94354 0.91814 0.0
H1239 H 0.29084 0.91111 0.91897 0.0
H1240 H 0.26419 0.882 0.84746 0.0
H1241 H 0.2289 0.86532 0.78588 0.0
H1242 H 0.18759 0.89766 0.7851 0.0
H1243 H 0.21455 0.92714 0.85536 0.0
C1244 C 0.25285 0.93017 0.90252 0.0
C1245 C 0.27227 0.92959 0.92395 0.0
C1246 C 0.23738 0.91337 0.86152 0.0
C1247 C 0.2761 0.91207 0.90321 0.0
C1248 C 0.26083 0.89534 0.86235 0.0
C1249 C 0.22576 0.8788 0.80103 0.0
C1250 C 0.20614 0.87916 0.78033 0.0
C1251 C 0.24136 0.89576 0.84143 0.0
C1252 C 0.20246 0.89686 0.80037 0.0
C1253 C 0.2179 0.91377 0.84056 0.0
H1254 H 0.37235 0.24654 0.73454 0.0
H1255 H 0.44605 0.2861 0.74473 0.0
H1256 H 0.44888 0.25941 0.67451 0.0
H1257 H 0.43049 0.22483 0.61018 0.0
H1258 H 0.35678 0.18529 0.60012 0.0
H1259 H 0.35397 0.21197 0.67033 0.0
C1260 C 0.38904 0.2494 0.72126 0.0
C1261 C 0.40894 0.26837 0.74481 0.0
C1262 C 0.39057 0.23393 0.68099 0.0
C1263 C 0.43043 0.27168 0.72732 0.0
C1264 C 0.43208 0.2564 0.68716 0.0
C1265 C 0.4138 0.22198 0.62348 0.0
C1266 C 0.39389 0.20302 0.59994 0.0
C1267 C 0.41227 0.23745 0.66379 0.0
C1268 C 0.37241 0.1997 0.61751 0.0
C1269 C 0.37077 0.21498 0.65766 0.0
H1270 H 0.89303 0.19934 0.73009 0.0
H1271 H 0.84923 0.22886 0.73548 0.0
H1272 H 0.87464 0.25893 0.66514 0.0
H1273 H 0.90925 0.27685 0.60127 0.0
H1274 H 0.953 0.24724 0.59636 0.0
H1275 H 0.92771 0.21738 0.66708 0.0
C1276 C 0.88901 0.21232 0.71585 0.0
C1277 C 0.8692 0.21175 0.73801 0.0
C1278 C 0.90373 0.22965 0.67537 0.0
C1279 C 0.86435 0.22882 0.71919 0.0
C1280 C 0.87888 0.24607 0.67888 0.0
C1281 C 0.91328 0.26391 0.61578 0.0
C1282 C 0.93303 0.26438 0.59343 0.0
C1283 C 0.89862 0.24666 0.6566 0.0
C1284 C 0.93795 0.24739 0.61273 0.0
C1285 C 0.92347 0.23023 0.65324 0.0
H1286 H 0.93395 0.75871 0.73865 0.0
H1287 H 0.90624 0.68574 0.7264 0.0
H1288 H 0.8767 0.68257 0.65542 0.0
H1289 H 0.85891 0.70045 0.59573 0.0
H1290 H 0.88661 0.77342 0.60762 0.0
H1291 H 0.91585 0.77656 0.6798 0.0
C1292 C 0.92148 0.74211 0.7204 0.0
C1293 C 0.92242 0.72252 0.73777 0.0
C1294 C 0.90446 0.74036 0.67955 0.0
C1295 C 0.906 0.70113 0.71385 0.0
C1296 C 0.88906 0.69928 0.67321 0.0
C1297 C 0.87125 0.71704 0.61433 0.0
C1298 C 0.87049 0.73665 0.59624 0.0
C1299 C 0.88813 0.71877 0.65566 0.0
C1300 C 0.88674 0.75801 0.62068 0.0
C1301 C 0.90352 0.75985 0.66196 0.0
H1302 H 0.86364 0.70142 0.23348 0.0
H1303 H 0.89535 0.77498 0.23193 0.0
H1304 H 0.92487 0.77752 0.16243 0.0
H1305 H 0.94149 0.75889 0.10113 0.0
H1306 H 0.90965 0.68531 0.1025 0.0
H1307 H 0.88049 0.68283 0.17318 0.0
C1308 C 0.87699 0.71803 0.21797 0.0
C1309 C 0.87717 0.73797 0.23781 0.0
C1310 C 0.89396 0.71939 0.17802 0.0
C1311 C 0.89469 0.75933 0.21731 0.0
C1312 C 0.91162 0.76081 0.17757 0.0
C1313 C 0.92824 0.7423 0.11705 0.0
C1314 C 0.92785 0.72232 0.0965 0.0
C1315 C 0.91141 0.74096 0.15752 0.0
C1316 C 0.91047 0.70098 0.11759 0.0
C1317 C 0.89372 0.69953 0.15797 0.0
H1318 H 0.37089 0.19576 0.23368 0.0
H1319 H 0.44449 0.22807 0.24337 0.0
H1320 H 0.44814 0.25808 0.17387 0.0
H1321 H 0.43054 0.27527 0.1103 0.0
H1322 H 0.35695 0.24298 0.10044 0.0
H1323 H 0.35329 0.21296 0.17001 0.0
C1324 C 0.38775 0.20931 0.22045 0.0
C1325 C 0.40737 0.20955 0.24372 0.0
C1326 C 0.38976 0.22662 0.18053 0.0
C1327 C 0.42906 0.22737 0.22621 0.0
C1328 C 0.43119 0.24459 0.18646 0.0
C1329 C 0.41368 0.26174 0.12352 0.0
C1330 C 0.39406 0.26149 0.1002 0.0
C1331 C 0.41166 0.24443 0.16342 0.0
C1332 C 0.37237 0.24368 0.11765 0.0
C1333 C 0.37024 0.22645 0.15744 0.0
H1334 H 0.93774 0.24021 0.23148 0.0
H1335 H 0.91314 0.28816 0.22591 0.0
H1336 H 0.88207 0.26278 0.1574 0.0
H1337 H 0.86173 0.22701 0.0983 0.0
H1338 H 0.8863 0.17906 0.10307 0.0
H1339 H 0.91726 0.20428 0.17243 0.0
C1340 C 0.92564 0.24516 0.21516 0.0
C1341 C 0.92794 0.26617 0.23392 0.0
C1342 C 0.90764 0.2304 0.17562 0.0
C1343 C 0.91194 0.27216 0.21235 0.0
C1344 C 0.89406 0.25762 0.17311 0.0
C1345 C 0.87377 0.22199 0.11474 0.0
C1346 C 0.87156 0.20108 0.09544 0.0
C1347 C 0.89171 0.23668 0.15444 0.0
C1348 C 0.88749 0.19501 0.11705 0.0
C1349 C 0.90528 0.20946 0.15676 0.0
H1350 H 0.09786 0.68938 0.45592 0.0
H1351 H 0.10775 0.7231 0.28069 0.0
H1352 H 0.12589 0.7602 0.33172 0.0
H1353 H 0.13856 0.78327 0.42598 0.0
H1354 H 0.13087 0.75017 0.60121 0.0
H1355 H 0.11249 0.71285 0.55047 0.0
C1356 C 0.10399 0.70487 0.42905 0.0
C1357 C 0.10136 0.70341 0.36461 0.0
C1358 C 0.11488 0.72633 0.45865 0.0
C1359 C 0.10963 0.72367 0.33031 0.0
C1360 C 0.11998 0.74495 0.35946 0.0
C1361 C 0.13291 0.7679 0.4531 0.0
C1362 C 0.136 0.76956 0.51734 0.0
C1363 C 0.12265 0.7465 0.42357 0.0
C1364 C 0.12879 0.74945 0.55165 0.0
C1365 C 0.11818 0.72805 0.52269 0.0
H1366 H 0.41538 0.45351 0.28904 0.0
H1367 H 0.46149 0.47867 0.44453 0.0
H1368 H 0.42908 0.46231 0.51515 0.0
H1369 H 0.38764 0.4407 0.53289 0.0
H1370 H 0.34147 0.41283 0.37814 0.0
H1371 H 0.37381 0.43028 0.3071 0.0
C1372 C 0.41827 0.45543 0.33839 0.0
C1373 C 0.44076 0.46736 0.36158 0.0
C1374 C 0.39955 0.44544 0.37883 0.0
C1375 C 0.44432 0.46948 0.42561 0.0
C1376 C 0.42581 0.46018 0.46601 0.0
C1377 C 0.38467 0.43849 0.4836 0.0
C1378 C 0.36221 0.42561 0.46077 0.0
C1379 C 0.40336 0.4481 0.44317 0.0
C1380 C 0.35863 0.42261 0.39684 0.0
C1381 C 0.3771 0.43264 0.3562 0.0
H1382 H 0.70792 0.99543 0.41216 0.0
H1383 H 0.6878 0.00994 0.5872 0.0
H1384 H 0.66995 0.02905 0.53517 0.0
H1385 H 0.66006 0.04187 0.4398 0.0
H1386 H 0.67837 0.02549 0.26459 0.0
H1387 H 0.69676 0.00696 0.3167 0.0
C1388 C 0.69966 0.00282 0.43887 0.0
C1389 C 0.6993 1.00131 0.50345 0.0
C1390 C 0.68903 0.01346 0.40861 0.0
C1391 C 0.68829 0.01075 0.53738 0.0
C1392 C 0.6781 0.02176 0.50769 0.0
C1393 C 0.66808 0.03425 0.41306 0.0
C1394 C 0.66786 0.03516 0.3484 0.0
C1395 C 0.67836 0.02324 0.44331 0.0
C1396 C 0.67816 0.02499 0.31443 0.0
C1397 C 0.68878 0.01442 0.34419 0.0
H1398 H 0.68581 0.09185 0.06548 0.0
H1399 H 0.71992 0.10809 0.24218 0.0
H1400 H 0.75701 0.1262 0.19178 0.0
H1401 H 0.78006 0.13767 0.09739 0.0
H1402 H 0.74604 0.12328 0.92081 0.0
H1403 H 0.70889 0.10433 0.97113 0.0
C1404 C 0.70135 0.09934 0.09291 0.0
C1405 C 0.69999 0.09855 0.15749 0.0
C1406 C 0.72277 0.11012 0.06364 0.0
C1407 C 0.72037 0.10852 0.19235 0.0
C1408 C 0.74166 0.11885 0.16359 0.0
C1409 C 0.76451 0.13033 0.06999 0.0
C1410 C 0.76589 0.13189 0.00549 0.0
C1411 C 0.7431 0.11978 0.09926 0.0
C1412 C 0.74554 0.12247 0.97062 0.0
C1413 C 0.72423 0.11155 0.99932 0.0
H1414 H 0.9975 0.70932 0.09783 0.0
H1415 H 0.00907 0.68451 0.92629 0.0
H1416 H 0.02906 0.66805 0.98109 0.0
H1417 H 0.04349 0.66078 0.07805 0.0
H1418 H 0.0299 0.68387 0.24973 0.0
H1419 H 0.01057 0.70086 0.19464 0.0
C1420 C 0.00442 0.70034 0.07239 0.0
C1421 C 1.00187 0.69828 0.008 0.0
C1422 C 0.01558 0.69058 0.10426 0.0
C1423 C 0.01072 0.68633 0.97589 0.0
C1424 C 0.02222 0.67694 0.00718 0.0
C1425 C 0.03633 0.66958 0.10332 0.0
C1426 C 0.03824 0.67111 0.1679 0.0
C1427 C 0.02481 0.67899 0.07138 0.0
C1428 C 0.02863 0.68235 0.20004 0.0
C1429 C 0.01759 0.69213 0.16856 0.0
H1430 H 0.44514 0.38792 0.96481 0.0
H1431 H 0.41662 0.34278 0.1203 0.0
H1432 H 0.43421 0.37546 0.19068 0.0
H1433 H 0.45695 0.41714 0.20803 0.0
H1434 H 0.4824 0.4623 0.05181 0.0
H1435 H 0.46697 0.42948 0.98188 0.0
C1436 C 0.44286 0.38525 0.01412 0.0
C1437 C 0.42964 0.36296 0.03729 0.0
C1438 C 0.45252 0.40417 0.05424 0.0
C1439 C 0.42662 0.35978 0.10127 0.0
C1440 C 0.43673 0.37846 0.14157 0.0
C1441 C 0.45925 0.41971 0.15869 0.0
C1442 C 0.4709 0.44205 0.13502 0.0
C1443 C 0.44963 0.40075 0.1186 0.0
C1444 C 0.47346 0.44523 0.071 0.0
C1445 C 0.46464 0.42649 0.03103 0.0
H1446 H 0.99524 0.35446 0.60097 0.0
H1447 H 0.0149 0.38977 0.42689 0.0
H1448 H 0.0336 0.4265 0.48016 0.0
H1449 H 0.04469 0.44884 0.57645 0.0
H1450 H 0.02315 0.41354 0.75019 0.0
H1451 H 0.00499 0.37681 0.69697 0.0
C1452 C 0.00362 0.37019 0.57472 0.0
C1453 C 0.00369 0.36929 0.51003 0.0
C1454 C 0.01407 0.39137 0.60563 0.0
C1455 C 0.01446 0.38989 0.47672 0.0
C1456 C 0.02526 0.41096 0.50716 0.0
C1457 C 0.03605 0.4331 0.60261 0.0
C1458 C 0.03538 0.434 0.66722 0.0
C1459 C 0.02522 0.41193 0.57162 0.0
C1460 C 0.02388 0.41342 0.7004 0.0
C1461 C 0.01351 0.39234 0.67001 0.0
H1462 H 0.68933 0.65592 0.56623 0.0
H1463 H 0.72383 0.68104 0.74063 0.0
H1464 H 0.76074 0.70007 0.68878 0.0
H1465 H 0.78327 0.71031 0.59375 0.0
H1466 H 0.74913 0.68351 0.41974 0.0
H1467 H 0.71216 0.66435 0.47154 0.0
C1468 C 0.70494 0.66556 0.59281 0.0
C1469 C 0.7038 0.66717 0.65714 0.0
C1470 C 0.72621 0.67616 0.56279 0.0
C1471 C 0.7242 0.67947 0.69107 0.0
C1472 C 0.74534 0.69043 0.66145 0.0
C1473 C 0.76775 0.70023 0.56716 0.0
C1474 C 0.76899 0.69849 0.50292 0.0
C1475 C 0.74655 0.68898 0.59732 0.0
C1476 C 0.74871 0.68512 0.46927 0.0
C1477 C 0.72752 0.67421 0.49883 0.0
H1478 H 0.44142 0.12435 0.46454 0.0
H1479 H 0.41439 0.14268 0.62029 0.0
H1480 H 0.43078 0.12636 0.69043 0.0
H1481 H 0.45224 0.10626 0.70769 0.0
H1482 H 0.47685 0.08535 0.55178 0.0
H1483 H 0.46201 0.10325 0.48173 0.0
C1484 C 0.43923 0.12486 0.51386 0.0
C1485 C 0.42677 0.1348 0.53714 0.0
C1486 C 0.44822 0.11491 0.55395 0.0
C1487 C 0.42382 0.13506 0.60114 0.0
C1488 C 0.43323 0.12577 0.64132 0.0
C1489 C 0.45444 0.10571 0.65839 0.0
C1490 C 0.46571 0.09456 0.63504 0.0
C1491 C 0.44537 0.11556 0.61827 0.0
C1492 C 0.46816 0.09375 0.57096 0.0
C1493 C 0.45972 0.10402 0.53086 0.0
H1494 H 0.35447 0.99704 0.92376 0.0
H1495 H 0.39159 0.01265 0.09569 0.0
H1496 H 0.42784 0.03226 0.0403 0.0
H1497 H 0.44913 0.04498 0.94252 0.0
H1498 H 0.41172 0.02698 0.77081 0.0
H1499 H 0.37559 0.00843 0.82647 0.0
C1500 C 0.37049 0.00478 0.94914 0.0
C1501 C 0.37028 0.00347 0.01379 0.0
C1502 C 0.39128 0.01564 0.91696 0.0
C1503 C 0.39123 0.01334 0.0459 0.0
C1504 C 0.41199 0.02462 0.01426 0.0
C1505 C 0.43305 0.03706 0.91742 0.0
C1506 C 0.43313 0.03747 0.85264 0.0
C1507 C 0.41225 0.02591 0.94975 0.0
C1508 C 0.41216 0.02686 0.82067 0.0
C1509 C 0.39146 0.01627 0.85245 0.0
H1510 H 0.10796 0.45658 0.80224 0.0
H1511 H 0.08315 0.4744 0.96385 0.0
H1512 H 0.10123 0.45854 0.02969 0.0
H1513 H 0.12352 0.439 0.04131 0.0
H1514 H 0.14628 0.41918 0.87932 0.0
H1515 H 0.12962 0.43651 0.81374 0.0
C1516 C 0.10658 0.4571 0.85188 0.0
C1517 C 0.09427 0.46675 0.87802 0.0
C1518 C 0.11664 0.44757 0.88942 0.0
C1519 C 0.09246 0.46702 0.94246 0.0
C1520 C 0.10283 0.45799 0.98016 0.0
C1521 C 0.12497 0.4386 0.99167 0.0
C1522 C 0.13623 0.42789 0.96529 0.0
C1523 C 0.1149 0.44816 0.95415 0.0
C1524 C 0.13767 0.42727 0.90083 0.0
C1525 C 0.12817 0.43719 0.86328 0.0
H1526 H 0.65935 0.68325 0.93485 0.0
H1527 H 0.67696 0.71823 0.76018 0.0
H1528 H 0.69416 0.75508 0.81309 0.0
H1529 H 0.70514 0.77756 0.90936 0.0
H1530 H 0.6855 0.74237 0.08358 0.0
H1531 H 0.66822 0.70559 0.03057 0.0
C1532 C 0.66689 0.69894 0.90834 0.0
C1533 C 0.66696 0.69793 0.84363 0.0
C1534 C 0.67648 0.72011 0.93904 0.0
C1535 C 0.67659 0.71844 0.81002 0.0
C1536 C 0.68653 0.73957 0.84026 0.0
C1537 C 0.69706 0.76183 0.93566 0.0
C1538 C 0.69677 0.76276 1.00037 0.0
C1539 C 0.68674 0.74063 0.90479 0.0
C1540 C 0.68595 0.7422 0.03374 0.0
C1541 C 0.6761 0.72111 0.00347 0.0
H1542 H 0.77111 0.04989 0.63541 0.0
H1543 H 0.74885 0.0073 0.79731 0.0
H1544 H 0.76679 0.04128 0.86301 0.0
H1545 H 0.78812 0.08307 0.8745 0.0
H1546 H 0.8083 0.12566 0.71258 0.0
H1547 H 0.79186 0.09167 0.6469 0.0
C1548 C 0.77029 0.04801 0.68507 0.0
C1549 C 0.75872 0.02604 0.71137 0.0
C1550 C 0.78022 0.06763 0.72258 0.0
C1551 C 0.75759 0.02398 0.77584 0.0
C1552 C 0.76787 0.04341 0.81345 0.0
C1553 C 0.78905 0.08495 0.82484 0.0
C1554 C 0.79953 0.10692 0.79854 0.0
C1555 C 0.77914 0.06532 0.78733 0.0
C1556 C 0.8003 0.10898 0.73406 0.0
C1557 C 0.79092 0.08955 0.69646 0.0
H1558 H 0.0826 0.79101 0.64151 0.0
H1559 H 0.12508 0.81249 0.80459 0.0
H1560 H 0.09102 0.79528 0.86939 0.0
H1561 H 0.04918 0.77309 0.87977 0.0
H1562 H 0.00688 0.7494 0.7166 0.0
H1563 H 0.04085 0.76859 0.65186 0.0
C1564 C 0.08442 0.79207 0.69123 0.0
C1565 C 0.10638 0.80308 0.71812 0.0
C1566 C 0.06478 0.78169 0.72822 0.0
C1567 C 0.1084 0.80405 0.78266 0.0
C1568 C 0.08893 0.79424 0.81977 0.0
C1569 C 0.04739 0.77229 0.83005 0.0
C1570 C 0.02552 0.7599 0.80306 0.0
C1571 C 0.06703 0.78288 0.79307 0.0
C1572 C 0.02352 0.75877 0.73853 0.0
C1573 C 0.04293 0.76975 0.70147 0.0
H1574 H 0.34862 0.35993 0.62662 0.0
H1575 H 0.32697 0.38599 0.7776 0.0
H1576 H 0.34208 0.36951 0.85138 0.0
H1577 H 0.36215 0.34819 0.87332 0.0
H1578 H 0.38677 0.32506 0.72233 0.0
H1579 H 0.36989 0.33979 0.64856 0.0
C1580 C 0.34716 0.3619 0.67569 0.0
C1581 C 0.33664 0.3741 0.6966 0.0
C1582 C 0.3565 0.35293 0.71795 0.0
C1583 C 0.3351 0.37677 0.76032 0.0
C1584 C 0.3437 0.3673 0.80257 0.0
C1585 C 0.36372 0.34633 0.82425 0.0
C1586 C 0.37563 0.3355 0.80335 0.0
C1587 C 0.35453 0.35543 0.78198 0.0
C1588 C 0.37779 0.33344 0.73961 0.0
C1589 C 0.36809 0.34181 0.69737 0.0
H1590 H 0.02127 0.32769 0.22611 0.0
H1591 H 0.05482 0.35066 0.40252 0.0
H1592 H 0.09204 0.36891 0.35295 0.0
H1593 H 0.11534 0.37845 0.25964 0.0
H1594 H 0.08213 0.3539 0.08343 0.0
H1595 H 0.04477 0.33624 0.13264 0.0
C1596 C 0.03674 0.33673 0.25356 0.0
C1597 C 0.03521 0.33779 0.31785 0.0
C1598 C 0.05826 0.34691 0.22484 0.0
C1599 C 0.05545 0.34942 0.35293 0.0
C1600 C 0.0768 0.35995 0.32464 0.0
C1601 C 0.09993 0.36924 0.23201 0.0
C1602 C 0.10161 0.36758 0.16797 0.0
C1603 C 0.07844 0.35879 0.26066 0.0
C1604 C 0.08142 0.3554 0.13292 0.0
C1605 C 0.05998 0.34532 0.16097 0.0
H1606 H 0.78724 0.77128 0.37503 0.0
H1607 H 0.81016 0.75144 0.21338 0.0
H1608 H 0.79234 0.76748 0.14746 0.0
H1609 H 0.76986 0.78662 0.1356 0.0
H1610 H 0.74493 0.80455 0.29676 0.0
H1611 H 0.76389 0.78971 0.363 0.0
C1612 C 0.78844 0.77058 0.32538 0.0
C1613 C 0.80012 0.76027 0.29918 0.0
C1614 C 0.77772 0.77941 0.28768 0.0
C1615 C 0.80125 0.75923 0.23474 0.0
C1616 C 0.79108 0.76842 0.197 0.0
C1617 C 0.76862 0.78737 0.18522 0.0
C1618 C 0.75606 0.79679 0.21114 0.0
C1619 C 0.77921 0.77847 0.22295 0.0
C1620 C 0.75443 0.79735 0.27556 0.0
C1621 C 0.76531 0.78892 0.31348 0.0
H1622 H 0.34695 0.05102 0.14479 0.0
H1623 H 0.32024 0.00793 0.30471 0.0
H1624 H 0.335 0.04168 0.37106 0.0
H1625 H 0.35659 0.08342 0.38398 0.0
H1626 H 0.38599 0.12647 0.22495 0.0
H1627 H 0.36913 0.09281 0.15794 0.0
C1628 C 0.3442 0.04906 0.19412 0.0
C1629 C 0.33242 0.02704 0.21983 0.0
C1630 C 0.35333 0.06853 0.23215 0.0
C1631 C 0.3293 0.02471 0.2839 0.0
C1632 C 0.33772 0.044 0.32182 0.0
C1633 C 0.35919 0.08544 0.33462 0.0
C1634 C 0.37246 0.10743 0.30949 0.0
C1635 C 0.34993 0.06599 0.29653 0.0
C1636 C 0.37592 0.10973 0.24549 0.0
C1637 C 0.36624 0.0905 0.20713 0.0
loop_
_geom_bond_atom_site_label_1
_geom_bond_atom_site_label_2
_geom_bond_distance
_geom_bond_site_symmetry_2
_ccdc_geom_bond_type
Co0 O2 2.143 . S
Co0 O8 2.074 . S
Co0 O11 2.093 . S
Co0 O24 2.097 . S
Co0 N41 2.151 . S
Co0 N49 2.214 . S
Co1 O2 2.160 . S
Co1 O7 2.058 . S
Co1 O17 2.057 . S
Co1 O32 2.037 . S
Co1 N36 2.145 . S
Co1 N57 2.257 . S
O2 Co0 2.143 . S
O2 Co1 2.160 . S
C3 O4 1.278 . S
C3 O11 1.224 . S
O4 C3 1.278 . S
C5 O6 1.245 . S
C5 O17 1.232 . S
O6 C5 1.245 . S
O7 Co1 2.058 . S
O7 C33 1.269 . S
O8 Co0 2.074 . S
O8 C33 1.257 . S
H9 C34 0.937 . S
H10 C40 0.930 . S
O11 Co0 2.093 . S
O11 C3 1.224 . S
H12 C44 0.929 . S
H13 C46 0.930 . S
H14 C47 0.930 . S
H15 C45 0.929 . S
H16 C48 0.928 . S
O17 Co1 2.057 . S
O17 C5 1.232 . S
H18 C37 0.929 . S
H19 C38 0.929 . S
H20 C50 0.931 . S
H21 C42 0.929 . S
H22 C51 0.930 . S
H23 C43 0.931 . S
O24 Co0 2.097 . S
O24 C52 1.214 . S
H25 C53 0.929 . S
H26 C54 0.929 . S
H27 C55 0.930 . S
H28 C56 0.929 . S
H29 C58 0.930 . S
H30 C35 0.930 . S
H31 C39 0.930 . S
O32 Co1 2.037 . S
O32 C52 1.234 . S
C33 O7 1.269 . S
C33 O8 1.257 . S
C34 H9 0.937 . S
C34 C37 1.388 . S
C34 C39 1.418 1_455 S
C35 H30 0.930 . S
C35 C38 1.404 1_655 S
C35 C39 1.353 . S
N36 Co1 2.145 . S
N36 C37 1.397 . S
N36 C38 1.334 . S
C37 H18 0.929 . S
C37 C34 1.388 . S
C37 N36 1.397 . S
C38 H19 0.929 . S
C38 C35 1.404 1_455 S
C38 N36 1.334 . S
C39 H31 0.930 . S
C39 C34 1.418 1_655 S
C39 C35 1.353 . S
C40 H10 0.930 . S
C40 N41 1.330 . S
C40 C42 1.446 . S
N41 Co0 2.151 . S
N41 C40 1.330 . S
N41 C45 1.418 . S
C42 H21 0.929 . S
C42 C40 1.446 . S
C42 C43 1.332 . S
C43 H23 0.931 . S
C43 C42 1.332 . S
C43 C44 1.267 . S
C44 H12 0.929 . S
C44 C43 1.267 . S
C44 C45 1.251 . S
C45 H15 0.929 . S
C45 N41 1.418 . S
C45 C44 1.251 . S
C46 H13 0.930 . S
C46 C48 1.406 . S
C46 C51 1.261 . S
C47 H14 0.930 . S
C47 N49 1.325 . S
C47 C50 1.357 . S
C48 H16 0.928 . S
C48 C46 1.406 . S
C48 N49 1.261 . S
N49 Co0 2.214 . S
N49 C47 1.325 . S
N49 C48 1.261 . S
C50 H20 0.931 . S
C50 C47 1.357 . S
C50 C51 1.312 . S
C51 H22 0.930 . S
C51 C46 1.261 . S
C51 C50 1.312 . S
C52 O24 1.214 . S
C52 O32 1.234 . S
C53 H25 0.929 . S
C53 C56 1.391 . S
C53 C58 1.391 1_655 S
C54 H26 0.929 . S
C54 C55 1.390 . S
C54 N57 1.391 1_655 S
C55 H27 0.930 . S
C55 C54 1.390 . S
C55 C56 1.392 . S
C56 H28 0.929 . S
C56 C53 1.391 . S
C56 C55 1.392 . S
N57 Co1 2.257 . S
N57 C54 1.391 1_455 S
N57 C58 1.388 . S
C58 H29 0.930 . S
C58 C53 1.391 1_455 S
C58 N57 1.388 . S
Co59 O61 2.143 . S
Co59 O67 2.074 . S
Co59 O70 2.093 . S
Co59 O83 2.097 . S
Co59 N100 2.151 . S
Co59 N108 2.214 . S
Co60 O61 2.160 . S
Co60 O66 2.058 . S
Co60 O76 2.057 . S
Co60 O91 2.037 . S
Co60 N95 2.145 . S
Co60 N116 2.257 . S
O61 Co59 2.143 . S
O61 Co60 2.160 . S
C62 O63 1.278 . S
C62 O70 1.224 . S
O63 C62 1.278 . S
C64 O65 1.245 . S
C64 O76 1.232 . S
O65 C64 1.245 . S
O66 Co60 2.058 . S
O66 C92 1.269 . S
O67 Co59 2.074 . S
O67 C92 1.257 . S
H68 C93 0.930 . S
H69 C99 0.930 . S
O70 Co59 2.093 . S
O70 C62 1.224 . S
H71 C103 0.929 . S
H72 C105 0.930 . S
H73 C106 0.930 . S
H74 C104 0.929 . S
H75 C107 0.928 . S
O76 Co60 2.057 . S
O76 C64 1.232 . S
H77 C96 0.929 . S
H78 C97 0.929 . S
H79 C109 0.931 . S
H80 C101 0.929 . S
H81 C110 0.930 . S
H82 C102 0.931 . S
O83 Co59 2.097 . S
O83 C111 1.214 . S
H84 C112 0.929 . S
H85 C113 0.929 . S
H86 C114 0.930 . S
H87 C115 0.929 . S
H88 C117 0.930 . S
H89 C94 0.930 . S
H90 C98 0.930 . S
O91 Co60 2.037 . S
O91 C111 1.234 . S
C92 O66 1.269 . S
C92 O67 1.257 . S
C93 H68 0.930 . S
C93 C96 1.388 . S
C93 C98 1.418 . S
C94 H89 0.930 . S
C94 C97 1.404 . S
C94 C98 1.353 . S
N95 Co60 2.145 . S
N95 C96 1.397 . S
N95 C97 1.334 . S
C96 H77 0.929 . S
C96 C93 1.388 . S
C96 N95 1.397 . S
C97 H78 0.929 . S
C97 C94 1.404 . S
C97 N95 1.334 . S
C98 H90 0.930 . S
C98 C93 1.418 . S
C98 C94 1.353 . S
C99 H69 0.930 . S
C99 N100 1.330 . S
C99 C101 1.446 . S
N100 Co59 2.151 . S
N100 C99 1.330 . S
N100 C104 1.418 . S
C101 H80 0.929 . S
C101 C99 1.446 . S
C101 C102 1.332 . S
C102 H82 0.931 . S
C102 C101 1.332 . S
C102 C103 1.267 . S
C103 H71 0.929 . S
C103 C102 1.267 . S
C103 C104 1.251 . S
C104 H74 0.929 . S
C104 N100 1.418 . S
C104 C103 1.251 . S
C105 H72 0.930 . S
C105 C107 1.406 . S
C105 C110 1.261 . S
C106 H73 0.930 . S
C106 N108 1.325 . S
C106 C109 1.357 . S
C107 H75 0.928 . S
C107 C105 1.406 . S
C107 N108 1.261 . S
N108 Co59 2.214 . S
N108 C106 1.325 . S
N108 C107 1.261 . S
C109 H79 0.931 . S
C109 C106 1.357 . S
C109 C110 1.312 . S
C110 H81 0.930 . S
C110 C105 1.261 . S
C110 C109 1.312 . S
C111 O83 1.214 . S
C111 O91 1.234 . S
C112 H84 0.929 . S
C112 C115 1.391 . S
C112 C117 1.391 . S
C113 H85 0.929 . S
C113 C114 1.390 . S
C113 N116 1.391 . S
C114 H86 0.930 . S
C114 C113 1.390 . S
C114 C115 1.392 . S
C115 H87 0.929 . S
C115 C112 1.391 . S
C115 C114 1.392 . S
N116 Co60 2.257 . S
N116 C113 1.391 . S
N116 C117 1.388 . S
C117 H88 0.930 . S
C117 C112 1.391 . S
C117 N116 1.388 . S
Co118 O120 2.143 . S
Co118 O126 2.074 . S
Co118 O129 2.093 . S
Co118 O142 2.097 . S
Co118 N159 2.151 . S
Co118 N167 2.214 . S
Co119 O120 2.160 . S
Co119 O125 2.058 . S
Co119 O135 2.057 . S
Co119 O150 2.037 . S
Co119 N154 2.145 . S
Co119 N175 2.257 . S
O120 Co118 2.143 . S
O120 Co119 2.160 . S
C121 O122 1.278 . S
C121 O129 1.224 . S
O122 C121 1.278 . S
C123 O124 1.245 . S
C123 O135 1.232 . S
O124 C123 1.245 . S
O125 Co119 2.058 . S
O125 C151 1.269 . S
O126 Co118 2.074 . S
O126 C151 1.257 . S
H127 C152 0.930 . S
H128 C158 0.930 . S
O129 Co118 2.093 . S
O129 C121 1.224 . S
H130 C162 0.929 . S
H131 C164 0.928 1_565 S
H132 C165 0.930 . S
H133 C163 0.929 . S
H134 C166 0.928 . S
O135 Co119 2.057 . S
O135 C123 1.232 . S
H136 C155 0.929 . S
H137 C156 0.929 . S
H138 C168 0.931 . S
H139 C160 0.929 . S
H140 C169 0.930 1_565 S
H141 C161 0.931 . S
O142 Co118 2.097 . S
O142 C170 1.214 . S
H143 C171 0.929 . S
H144 C172 0.929 . S
H145 C173 0.930 . S
H146 C174 0.929 . S
H147 C176 0.930 . S
H148 C153 0.930 . S
H149 C157 0.930 . S
O150 Co119 2.037 . S
O150 C170 1.234 . S
C151 O125 1.269 . S
C151 O126 1.257 . S
C152 H127 0.930 . S
C152 C155 1.388 . S
C152 C157 1.418 . S
C153 H148 0.930 . S
C153 C156 1.404 . S
C153 C157 1.353 . S
N154 Co119 2.145 . S
N154 C155 1.397 . S
N154 C156 1.334 . S
C155 H136 0.929 . S
C155 C152 1.388 . S
C155 N154 1.397 . S
C156 H137 0.929 . S
C156 C153 1.404 . S
C156 N154 1.334 . S
C157 H149 0.930 . S
C157 C152 1.418 . S
C157 C153 1.353 . S
C158 H128 0.930 . S
C158 N159 1.330 . S
C158 C160 1.446 1_545 S
N159 Co118 2.151 . S
N159 C158 1.330 . S
N159 C163 1.418 1_545 S
C160 H139 0.929 . S
C160 C158 1.446 1_565 S
C160 C161 1.332 . S
C161 H141 0.931 . S
C161 C160 1.332 . S
C161 C162 1.267 . S
C162 H130 0.929 . S
C162 C161 1.267 . S
C162 C163 1.251 . S
C163 H133 0.929 . S
C163 N159 1.418 1_565 S
C163 C162 1.251 . S
C164 H131 0.928 1_545 S
C164 C166 1.409 . S
C164 C169 1.259 . S
C165 H132 0.930 . S
C165 N167 1.325 . S
C165 C168 1.357 . S
C166 H134 0.928 . S
C166 C164 1.409 . S
C166 N167 1.261 . S
N167 Co118 2.214 . S
N167 C165 1.325 . S
N167 C166 1.261 . S
C168 H138 0.931 . S
C168 C165 1.357 . S
C168 C169 1.312 . S
C169 H140 0.930 1_545 S
C169 C164 1.259 . S
C169 C168 1.312 . S
C170 O142 1.214 . S
C170 O150 1.234 . S
C171 H143 0.929 . S
C171 C174 1.391 . S
C171 C176 1.391 . S
C172 H144 0.929 . S
C172 C173 1.390 . S
C172 N175 1.391 . S
C173 H145 0.930 . S
C173 C172 1.390 . S
C173 C174 1.392 . S
C174 H146 0.929 . S
C174 C171 1.391 . S
C174 C173 1.392 . S
N175 Co119 2.257 . S
N175 C172 1.391 . S
N175 C176 1.388 . S
C176 H147 0.930 . S
C176 C171 1.391 . S
C176 N175 1.388 . S
Co177 O179 2.143 . S
Co177 O185 2.074 . S
Co177 O188 2.093 . S
Co177 O201 2.097 . S
Co177 N218 2.151 . S
Co177 N226 2.214 . S
Co178 O179 2.160 . S
Co178 O184 2.058 . S
Co178 O194 2.057 . S
Co178 O209 2.037 . S
Co178 N213 2.145 . S
Co178 N234 2.257 . S
O179 Co177 2.143 . S
O179 Co178 2.160 . S
C180 O181 1.278 . S
C180 O188 1.224 . S
O181 C180 1.278 . S
C182 O183 1.245 . S
C182 O194 1.232 . S
O183 C182 1.245 . S
O184 Co178 2.058 . S
O184 C210 1.269 . S
O185 Co177 2.074 . S
O185 C210 1.257 . S
H186 C211 0.930 . S
H187 C217 0.930 . S
O188 Co177 2.093 . S
O188 C180 1.224 . S
H189 C221 0.929 . S
H190 C223 0.939 . S
H191 C224 0.930 . S
H192 C222 0.929 . S
H193 C225 0.928 . S
O194 Co178 2.057 . S
O194 C182 1.232 . S
H195 C214 0.929 . S
H196 C215 0.929 . S
H197 C227 0.931 . S
H198 C219 0.929 . S
H199 C228 0.930 1_655 S
H200 C220 0.931 . S
O201 Co177 2.097 . S
O201 C229 1.214 . S
H202 C230 0.929 . S
H203 C231 0.929 . S
H204 C232 0.930 . S
H205 C233 0.929 . S
H206 C235 0.930 . S
H207 C212 0.930 . S
H208 C216 0.930 . S
O209 Co178 2.037 . S
O209 C229 1.234 . S
C210 O184 1.269 . S
C210 O185 1.257 . S
C211 H186 0.930 . S
C211 C214 1.388 . S
C211 C216 1.418 . S
C212 H207 0.930 . S
C212 C215 1.404 . S
C212 C216 1.353 . S
N213 Co178 2.145 . S
N213 C214 1.397 . S
N213 C215 1.334 . S
C214 H195 0.929 . S
C214 C211 1.388 . S
C214 N213 1.397 . S
C215 H196 0.929 . S
C215 C212 1.404 . S
C215 N213 1.334 . S
C216 H208 0.930 . S
C216 C211 1.418 . S
C216 C212 1.353 . S
C217 H187 0.930 . S
C217 N218 1.330 . S
C217 C219 1.446 1_455 S
N218 Co177 2.151 . S
N218 C217 1.330 . S
N218 C222 1.418 1_455 S
C219 H198 0.929 . S
C219 C217 1.446 1_655 S
C219 C220 1.332 . S
C220 H200 0.931 . S
C220 C219 1.332 . S
C220 C221 1.267 . S
C221 H189 0.929 . S
C221 C220 1.267 . S
C221 C222 1.251 . S
C222 H192 0.929 . S
C222 N218 1.418 1_655 S
C222 C221 1.251 . S
C223 H190 0.939 . S
C223 C225 1.405 1_655 S
C223 C228 1.252 1_655 S
C224 H191 0.930 . S
C224 N226 1.325 . S
C224 C227 1.357 . S
C225 H193 0.928 . S
C225 C223 1.405 1_455 S
C225 N226 1.261 . S
N226 Co177 2.214 . S
N226 C224 1.325 . S
N226 C225 1.261 . S
C227 H197 0.931 . S
C227 C224 1.357 . S
C227 C228 1.312 . S
C228 H199 0.930 1_455 S
C228 C223 1.252 1_455 S
C228 C227 1.312 . S
C229 O201 1.214 . S
C229 O209 1.234 . S
C230 H202 0.929 . S
C230 C233 1.391 . S
C230 C235 1.391 . S
C231 H203 0.929 . S
C231 C232 1.390 . S
C231 N234 1.391 . S
C232 H204 0.930 . S
C232 C231 1.390 . S
C232 C233 1.392 . S
C233 H205 0.929 . S
C233 C230 1.391 . S
C233 C232 1.392 . S
N234 Co178 2.257 . S
N234 C231 1.391 . S
N234 C235 1.388 . S
C235 H206 0.930 . S
C235 C230 1.391 . S
C235 N234 1.388 . S
Co236 O238 2.143 . S
Co236 O244 2.074 . S
Co236 O247 2.093 . S
Co236 O260 2.097 . S
Co236 N277 2.151 . S
Co236 N285 2.214 . S
Co237 O238 2.160 . S
Co237 O243 2.058 . S
Co237 O253 2.057 . S
Co237 O268 2.037 . S
Co237 N272 2.145 . S
Co237 N293 2.257 . S
O238 Co236 2.143 . S
O238 Co237 2.160 . S
C239 O240 1.278 . S
C239 O247 1.224 . S
O240 C239 1.278 . S
C241 O242 1.245 . S
C241 O253 1.232 . S
O242 C241 1.245 . S
O243 Co237 2.058 . S
O243 C269 1.269 . S
O244 Co236 2.074 . S
O244 C269 1.257 . S
H245 C270 0.930 . S
H246 C276 0.930 . S
O247 Co236 2.093 . S
O247 C239 1.224 . S
H248 C280 0.929 . S
H249 C282 0.930 . S
H250 C283 0.930 . S
H251 C281 0.929 . S
H252 C284 0.928 . S
O253 Co237 2.057 . S
O253 C241 1.232 . S
H254 C273 0.929 . S
H255 C274 0.929 . S
H256 C286 0.931 . S
H257 C278 0.929 . S
H258 C287 0.930 . S
H259 C279 0.931 . S
O260 Co236 2.097 . S
O260 C288 1.214 . S
H261 C289 0.929 . S
H262 C290 0.929 . S
H263 C291 0.930 . S
H264 C292 0.929 . S
H265 C294 0.930 . S
H266 C271 0.930 . S
H267 C275 0.930 . S
O268 Co237 2.037 . S
O268 C288 1.234 . S
C269 O243 1.269 . S
C269 O244 1.257 . S
C270 H245 0.930 . S
C270 C273 1.388 . S
C270 C275 1.418 . S
C271 H266 0.930 . S
C271 C274 1.404 . S
C271 C275 1.353 . S
N272 Co237 2.145 . S
N272 C273 1.397 . S
N272 C274 1.334 . S
C273 H254 0.929 . S
C273 C270 1.388 . S
C273 N272 1.397 . S
C274 H255 0.929 . S
C274 C271 1.404 . S
C274 N272 1.334 . S
C275 H267 0.930 . S
C275 C270 1.418 . S
C275 C271 1.353 . S
C276 H246 0.930 . S
C276 N277 1.330 . S
C276 C278 1.446 . S
N277 Co236 2.151 . S
N277 C276 1.330 . S
N277 C281 1.418 . S
C278 H257 0.929 . S
C278 C276 1.446 . S
C278 C279 1.332 . S
C279 H259 0.931 . S
C279 C278 1.332 . S
C279 C280 1.267 . S
C280 H248 0.929 . S
C280 C279 1.267 . S
C280 C281 1.251 . S
C281 H251 0.929 . S
C281 N277 1.418 . S
C281 C280 1.251 . S
C282 H249 0.930 . S
C282 C284 1.406 . S
C282 C287 1.261 . S
C283 H250 0.930 . S
C283 N285 1.325 . S
C283 C286 1.357 . S
C284 H252 0.928 . S
C284 C282 1.406 . S
C284 N285 1.261 . S
N285 Co236 2.214 . S
N285 C283 1.325 . S
N285 C284 1.261 . S
C286 H256 0.931 . S
C286 C283 1.357 . S
C286 C287 1.312 . S
C287 H258 0.930 . S
C287 C282 1.261 . S
C287 C286 1.312 . S
C288 O260 1.214 . S
C288 O268 1.234 . S
C289 H261 0.929 . S
C289 C292 1.391 . S
C289 C294 1.391 . S
C290 H262 0.929 . S
C290 C291 1.390 . S
C290 N293 1.391 . S
C291 H263 0.930 . S
C291 C290 1.390 . S
C291 C292 1.392 . S
C292 H264 0.929 . S
C292 C289 1.391 . S
C292 C291 1.392 . S
N293 Co237 2.257 . S
N293 C290 1.391 . S
N293 C294 1.388 . S
C294 H265 0.930 . S
C294 C289 1.391 . S
C294 N293 1.388 . S
Co295 O297 2.143 . S
Co295 O303 2.074 . S
Co295 O306 2.093 . S
Co295 O319 2.097 . S
Co295 N336 2.151 . S
Co295 N344 2.214 . S
Co296 O297 2.160 . S
Co296 O302 2.058 . S
Co296 O312 2.057 . S
Co296 O327 2.037 . S
Co296 N331 2.145 . S
Co296 N352 2.257 . S
O297 Co295 2.143 . S
O297 Co296 2.160 . S
C298 O299 1.278 . S
C298 O306 1.224 . S
O299 C298 1.278 . S
C300 O301 1.245 . S
C300 O312 1.232 . S
O301 C300 1.245 . S
O302 Co296 2.058 . S
O302 C328 1.269 . S
O303 Co295 2.074 . S
O303 C328 1.257 . S
H304 C329 0.915 . S
H305 C335 0.930 . S
O306 Co295 2.093 . S
O306 C298 1.224 . S
H307 C339 0.929 . S
H308 C341 0.930 . S
H309 C342 0.930 . S
H310 C340 0.929 . S
H311 C343 0.928 . S
O312 Co296 2.057 . S
O312 C300 1.232 . S
H313 C332 0.929 . S
H314 C333 0.929 . S
H315 C345 0.931 . S
H316 C337 0.929 . S
H317 C346 0.930 . S
H318 C338 0.931 . S
O319 Co295 2.097 . S
O319 C347 1.214 . S
H320 C348 0.929 . S
H321 C349 0.929 . S
H322 C350 0.930 . S
H323 C351 0.929 . S
H324 C353 0.930 . S
H325 C330 0.930 . S
H326 C334 0.930 . S
O327 Co296 2.037 . S
O327 C347 1.234 . S
C328 O302 1.269 . S
C328 O303 1.257 . S
C329 H304 0.915 . S
C329 C332 1.388 . S
C329 C334 1.418 1_545 S
C330 H325 0.930 . S
C330 C333 1.404 1_565 S
C330 C334 1.353 . S
N331 Co296 2.145 . S
N331 C332 1.397 . S
N331 C333 1.334 . S
C332 H313 0.929 . S
C332 C329 1.388 . S
C332 N331 1.397 . S
C333 H314 0.929 . S
C333 C330 1.404 1_545 S
C333 N331 1.334 . S
C334 H326 0.930 . S
C334 C329 1.418 1_565 S
C334 C330 1.353 . S
C335 H305 0.930 . S
C335 N336 1.330 . S
C335 C337 1.446 . S
N336 Co295 2.151 . S
N336 C335 1.330 . S
N336 C340 1.418 . S
C337 H316 0.929 . S
C337 C335 1.446 . S
C337 C338 1.332 . S
C338 H318 0.931 . S
C338 C337 1.332 . S
C338 C339 1.267 . S
C339 H307 0.929 . S
C339 C338 1.267 . S
C339 C340 1.251 . S
C340 H310 0.929 . S
C340 N336 1.418 . S
C340 C339 1.251 . S
C341 H308 0.930 . S
C341 C343 1.406 . S
C341 C346 1.261 . S
C342 H309 0.930 . S
C342 N344 1.325 . S
C342 C345 1.357 . S
C343 H311 0.928 . S
C343 C341 1.406 . S
C343 N344 1.261 . S
N344 Co295 2.214 . S
N344 C342 1.325 . S
N344 C343 1.261 . S
C345 H315 0.931 . S
C345 C342 1.357 . S
C345 C346 1.312 . S
C346 H317 0.930 . S
C346 C341 1.261 . S
C346 C345 1.312 . S
C347 O319 1.214 . S
C347 O327 1.234 . S
C348 H320 0.929 . S
C348 C351 1.391 . S
C348 C353 1.391 1_565 S
C349 H321 0.929 . S
C349 C350 1.390 . S
C349 N352 1.391 1_565 S
C350 H322 0.930 . S
C350 C349 1.390 . S
C350 C351 1.392 . S
C351 H323 0.929 . S
C351 C348 1.391 . S
C351 C350 1.392 . S
N352 Co296 2.257 . S
N352 C349 1.391 1_545 S
N352 C353 1.388 . S
C353 H324 0.930 . S
C353 C348 1.391 1_545 S
C353 N352 1.388 . S
Co354 O356 2.143 . S
Co354 O362 2.074 . S
Co354 O365 2.093 . S
Co354 O378 2.097 . S
Co354 N395 2.151 . S
Co354 N403 2.214 . S
Co355 O356 2.160 . S
Co355 O361 2.058 . S
Co355 O371 2.057 . S
Co355 O386 2.037 1_565 S
Co355 N390 2.145 1_565 S
Co355 N411 2.257 . S
O356 Co354 2.143 . S
O356 Co355 2.160 . S
C357 O358 1.278 . S
C357 O365 1.224 . S
O358 C357 1.278 . S
C359 O360 1.245 . S
C359 O371 1.232 . S
O360 C359 1.245 . S
O361 Co355 2.058 . S
O361 C387 1.269 . S
O362 Co354 2.074 . S
O362 C387 1.257 . S
H363 C388 0.930 . S
H364 C394 0.930 . S
O365 Co354 2.093 . S
O365 C357 1.224 . S
H366 C398 0.929 . S
H367 C400 0.930 . S
H368 C401 0.930 1_545 S
H369 C399 0.929 . S
H370 C402 0.928 . S
O371 Co355 2.057 . S
O371 C359 1.232 . S
H372 C391 0.929 . S
H373 C392 0.929 1_565 S
H374 C404 0.931 . S
H375 C396 0.929 . S
H376 C405 0.930 . S
H377 C397 0.931 . S
O378 Co354 2.097 . S
O378 C406 1.214 1_565 S
H379 C407 0.929 . S
H380 C408 0.929 . S
H381 C409 0.930 . S
H382 C410 0.929 . S
H383 C412 0.930 . S
H384 C389 0.930 . S
H385 C393 0.930 . S
O386 Co355 2.037 1_545 S
O386 C406 1.234 . S
C387 O361 1.269 . S
C387 O362 1.257 . S
C388 H363 0.930 . S
C388 C391 1.388 . S
C388 C393 1.418 . S
C389 H384 0.930 . S
C389 C392 1.404 . S
C389 C393 1.353 . S
N390 Co355 2.145 1_545 S
N390 C391 1.397 . S
N390 C392 1.334 . S
C391 H372 0.929 . S
C391 C388 1.388 . S
C391 N390 1.397 . S
C392 H373 0.929 1_545 S
C392 C389 1.404 . S
C392 N390 1.334 . S
C393 H385 0.930 . S
C393 C388 1.418 . S
C393 C389 1.353 . S
C394 H364 0.930 . S
C394 N395 1.330 . S
C394 C396 1.446 . S
N395 Co354 2.151 . S
N395 C394 1.330 . S
N395 C399 1.418 . S
C396 H375 0.929 . S
C396 C394 1.446 . S
C396 C397 1.332 . S
C397 H377 0.931 . S
C397 C396 1.332 . S
C397 C398 1.267 . S
C398 H366 0.929 . S
C398 C397 1.267 . S
C398 C399 1.251 . S
C399 H369 0.929 . S
C399 N395 1.418 . S
C399 C398 1.251 . S
C400 H367 0.930 . S
C400 C402 1.406 . S
C400 C405 1.261 . S
C401 H368 0.930 1_565 S
C401 N403 1.325 . S
C401 C404 1.357 1_565 S
C402 H370 0.928 . S
C402 C400 1.406 . S
C402 N403 1.261 . S
N403 Co354 2.214 . S
N403 C401 1.325 . S
N403 C402 1.261 . S
C404 H374 0.931 . S
C404 C401 1.357 1_545 S
C404 C405 1.312 1_545 S
C405 H376 0.930 . S
C405 C400 1.261 . S
C405 C404 1.312 1_565 S
C406 O378 1.214 1_545 S
C406 O386 1.234 . S
C407 H379 0.929 . S
C407 C410 1.391 . S
C407 C412 1.391 . S
C408 H380 0.929 . S
C408 C409 1.390 . S
C408 N411 1.391 1_545 S
C409 H381 0.930 . S
C409 C408 1.390 . S
C409 C410 1.392 1_545 S
C410 H382 0.929 . S
C410 C407 1.391 . S
C410 C409 1.392 1_565 S
N411 Co355 2.257 . S
N411 C408 1.391 1_565 S
N411 C412 1.388 . S
C412 H383 0.930 . S
C412 C407 1.391 . S
C412 N411 1.388 . S
Co413 O415 2.143 . S
Co413 O421 2.074 . S
Co413 O424 2.093 . S
Co413 O437 2.097 . S
Co413 N454 2.151 . S
Co413 N462 2.214 . S
Co414 O415 2.160 . S
Co414 O420 2.058 . S
Co414 O430 2.057 . S
Co414 O445 2.037 . S
Co414 N449 2.145 . S
Co414 N470 2.257 . S
O415 Co413 2.143 . S
O415 Co414 2.160 . S
C416 O417 1.278 . S
C416 O424 1.224 . S
O417 C416 1.278 . S
C418 O419 1.245 . S
C418 O430 1.232 . S
O419 C418 1.245 . S
O420 Co414 2.058 . S
O420 C446 1.269 . S
O421 Co413 2.074 . S
O421 C446 1.257 . S
H422 C447 0.930 . S
H423 C453 0.930 . S
O424 Co413 2.093 . S
O424 C416 1.224 . S
H425 C457 0.929 . S
H426 C459 0.930 . S
H427 C460 0.930 . S
H428 C458 0.929 . S
H429 C461 0.928 . S
O430 Co414 2.057 . S
O430 C418 1.232 . S
H431 C450 0.929 . S
H432 C451 0.929 . S
H433 C463 0.931 . S
H434 C455 0.929 . S
H435 C464 0.930 . S
H436 C456 0.931 . S
O437 Co413 2.097 . S
O437 C465 1.214 . S
H438 C466 0.929 . S
H439 C467 0.929 . S
H440 C468 0.930 . S
H441 C469 0.929 . S
H442 C471 0.930 . S
H443 C448 0.930 . S
H444 C452 0.930 . S
O445 Co414 2.037 . S
O445 C465 1.234 . S
C446 O420 1.269 . S
C446 O421 1.257 . S
C447 H422 0.930 . S
C447 C450 1.388 . S
C447 C452 1.418 . S
C448 H443 0.930 . S
C448 C451 1.404 . S
C448 C452 1.353 . S
N449 Co414 2.145 . S
N449 C450 1.397 . S
N449 C451 1.334 . S
C450 H431 0.929 . S
C450 C447 1.388 . S
C450 N449 1.397 . S
C451 H432 0.929 . S
C451 C448 1.404 . S
C451 N449 1.334 . S
C452 H444 0.930 . S
C452 C447 1.418 . S
C452 C448 1.353 . S
C453 H423 0.930 . S
C453 N454 1.330 . S
C453 C455 1.446 . S
N454 Co413 2.151 . S
N454 C453 1.330 . S
N454 C458 1.418 . S
C455 H434 0.929 . S
C455 C453 1.446 . S
C455 C456 1.332 . S
C456 H436 0.931 . S
C456 C455 1.332 . S
C456 C457 1.267 . S
C457 H425 0.929 . S
C457 C456 1.267 . S
C457 C458 1.251 . S
C458 H428 0.929 . S
C458 N454 1.418 . S
C458 C457 1.251 . S
C459 H426 0.930 . S
C459 C461 1.406 . S
C459 C464 1.261 . S
C460 H427 0.930 . S
C460 N462 1.325 . S
C460 C463 1.357 . S
C461 H429 0.928 . S
C461 C459 1.406 . S
C461 N462 1.261 . S
N462 Co413 2.214 . S
N462 C460 1.325 . S
N462 C461 1.261 . S
C463 H433 0.931 . S
C463 C460 1.357 . S
C463 C464 1.312 . S
C464 H435 0.930 . S
C464 C459 1.261 . S
C464 C463 1.312 . S
C465 O437 1.214 . S
C465 O445 1.234 . S
C466 H438 0.929 . S
C466 C469 1.391 . S
C466 C471 1.391 . S
C467 H439 0.929 . S
C467 C468 1.390 . S
C467 N470 1.391 . S
C468 H440 0.930 . S
C468 C467 1.390 . S
C468 C469 1.392 . S
C469 H441 0.929 . S
C469 C466 1.391 . S
C469 C468 1.392 . S
N470 Co414 2.257 . S
N470 C467 1.391 . S
N470 C471 1.388 . S
C471 H442 0.930 . S
C471 C466 1.391 . S
C471 N470 1.388 . S
Co472 O474 2.143 . S
Co472 O480 2.074 . S
Co472 O483 2.093 . S
Co472 O496 2.097 . S
Co472 N513 2.151 . S
Co472 N521 2.214 . S
Co473 O474 2.160 . S
Co473 O479 2.058 . S
Co473 O489 2.057 . S
Co473 O504 2.037 . S
Co473 N508 2.145 . S
Co473 N529 2.257 . S
O474 Co472 2.143 . S
O474 Co473 2.160 . S
C475 O476 1.278 . S
C475 O483 1.224 . S
O476 C475 1.278 . S
C477 O478 1.245 . S
C477 O489 1.232 . S
O478 C477 1.245 . S
O479 Co473 2.058 . S
O479 C505 1.269 . S
O480 Co472 2.074 . S
O480 C505 1.257 . S
H481 C506 0.930 . S
H482 C512 0.930 . S
O483 Co472 2.093 . S
O483 C475 1.224 . S
H484 C516 0.929 . S
H485 C518 0.930 . S
H486 C519 0.930 . S
H487 C517 0.929 . S
H488 C520 0.928 . S
O489 Co473 2.057 . S
O489 C477 1.232 . S
H490 C509 0.929 . S
H491 C510 0.929 . S
H492 C522 0.931 . S
H493 C514 0.929 . S
H494 C523 0.930 . S
H495 C515 0.931 . S
O496 Co472 2.097 . S
O496 C524 1.214 . S
H497 C525 0.929 . S
H498 C526 0.929 . S
H499 C527 0.930 . S
H500 C528 0.929 . S
H501 C530 0.930 . S
H502 C507 0.930 . S
H503 C511 0.930 . S
O504 Co473 2.037 . S
O504 C524 1.234 . S
C505 O479 1.269 . S
C505 O480 1.257 . S
C506 H481 0.930 . S
C506 C509 1.388 . S
C506 C511 1.418 . S
C507 H502 0.930 . S
C507 C510 1.404 . S
C507 C511 1.353 . S
N508 Co473 2.145 . S
N508 C509 1.397 . S
N508 C510 1.334 . S
C509 H490 0.929 . S
C509 C506 1.388 . S
C509 N508 1.397 . S
C510 H491 0.929 . S
C510 C507 1.404 . S
C510 N508 1.334 . S
C511 H503 0.930 . S
C511 C506 1.418 . S
C511 C507 1.353 . S
C512 H482 0.930 . S
C512 N513 1.330 . S
C512 C514 1.446 . S
N513 Co472 2.151 . S
N513 C512 1.330 . S
N513 C517 1.418 . S
C514 H493 0.929 . S
C514 C512 1.446 . S
C514 C515 1.332 . S
C515 H495 0.931 . S
C515 C514 1.332 . S
C515 C516 1.267 . S
C516 H484 0.929 . S
C516 C515 1.267 . S
C516 C517 1.251 . S
C517 H487 0.929 . S
C517 N513 1.418 . S
C517 C516 1.251 . S
C518 H485 0.930 . S
C518 C520 1.406 . S
C518 C523 1.261 . S
C519 H486 0.930 . S
C519 N521 1.325 . S
C519 C522 1.357 . S
C520 H488 0.928 . S
C520 C518 1.406 . S
C520 N521 1.261 . S
N521 Co472 2.214 . S
N521 C519 1.325 . S
N521 C520 1.261 . S
C522 H492 0.931 . S
C522 C519 1.357 . S
C522 C523 1.312 . S
C523 H494 0.930 . S
C523 C518 1.261 . S
C523 C522 1.312 . S
C524 O496 1.214 . S
C524 O504 1.234 . S
C525 H497 0.929 . S
C525 C528 1.391 . S
C525 C530 1.391 . S
C526 H498 0.929 . S
C526 C527 1.390 . S
C526 N529 1.391 . S
C527 H499 0.930 . S
C527 C526 1.390 . S
C527 C528 1.392 . S
C528 H500 0.929 . S
C528 C525 1.391 . S
C528 C527 1.392 . S
N529 Co473 2.257 . S
N529 C526 1.391 . S
N529 C530 1.388 . S
C530 H501 0.930 . S
C530 C525 1.391 . S
C530 N529 1.388 . S
Co531 O533 2.143 . S
Co531 O539 2.074 . S
Co531 O542 2.093 . S
Co531 O555 2.097 . S
Co531 N572 2.151 . S
Co531 N580 2.214 . S
Co532 O533 2.160 . S
Co532 O538 2.058 1_554 S
Co532 O548 2.057 1_554 S
Co532 O563 2.037 . S
Co532 N567 2.145 1_554 S
Co532 N588 2.257 . S
O533 Co531 2.143 . S
O533 Co532 2.160 . S
C534 O535 1.278 . S
C534 O542 1.224 . S
O535 C534 1.278 . S
C536 O537 1.245 . S
C536 O548 1.232 . S
O537 C536 1.245 . S
O538 Co532 2.058 1_556 S
O538 C564 1.269 1_556 S
O539 Co531 2.074 . S
O539 C564 1.257 . S
H540 C565 0.930 . S
H541 C571 0.930 . S
O542 Co531 2.093 . S
O542 C534 1.224 . S
H543 C575 0.929 . S
H544 C577 0.930 . S
H545 C578 0.930 . S
H546 C576 0.929 . S
H547 C579 0.928 . S
O548 Co532 2.057 1_556 S
O548 C536 1.232 . S
H549 C568 0.929 1_554 S
H550 C569 0.929 . S
H551 C581 0.931 . S
H552 C573 0.929 . S
H553 C582 0.930 . S
H554 C574 0.931 . S
O555 Co531 2.097 . S
O555 C583 1.214 . S
H556 C584 0.929 . S
H557 C585 0.929 . S
H558 C586 0.930 . S
H559 C587 0.929 . S
H560 C589 0.930 . S
H561 C566 0.930 . S
H562 C570 0.930 . S
O563 Co532 2.037 . S
O563 C583 1.234 . S
C564 O538 1.269 1_554 S
C564 O539 1.257 . S
C565 H540 0.930 . S
C565 C568 1.388 . S
C565 C570 1.418 . S
C566 H561 0.930 . S
C566 C569 1.404 . S
C566 C570 1.353 . S
N567 Co532 2.145 1_556 S
N567 C568 1.397 . S
N567 C569 1.334 . S
C568 H549 0.929 1_556 S
C568 C565 1.388 . S
C568 N567 1.397 . S
C569 H550 0.929 . S
C569 C566 1.404 . S
C569 N567 1.334 . S
C570 H562 0.930 . S
C570 C565 1.418 . S
C570 C566 1.353 . S
C571 H541 0.930 . S
C571 N572 1.330 . S
C571 C573 1.446 . S
N572 Co531 2.151 . S
N572 C571 1.330 . S
N572 C576 1.418 . S
C573 H552 0.929 . S
C573 C571 1.446 . S
C573 C574 1.332 . S
C574 H554 0.931 . S
C574 C573 1.332 . S
C574 C575 1.267 . S
C575 H543 0.929 . S
C575 C574 1.267 . S
C575 C576 1.251 . S
C576 H546 0.929 . S
C576 N572 1.418 . S
C576 C575 1.251 . S
C577 H544 0.930 . S
C577 C579 1.406 . S
C577 C582 1.261 . S
C578 H545 0.930 . S
C578 N580 1.325 . S
C578 C581 1.357 . S
C579 H547 0.928 . S
C579 C577 1.406 . S
C579 N580 1.261 . S
N580 Co531 2.214 . S
N580 C578 1.325 . S
N580 C579 1.261 . S
C581 H551 0.931 . S
C581 C578 1.357 . S
C581 C582 1.312 . S
C582 H553 0.930 . S
C582 C577 1.261 . S
C582 C581 1.312 . S
C583 O555 1.214 . S
C583 O563 1.234 . S
C584 H556 0.929 . S
C584 C587 1.391 . S
C584 C589 1.391 . S
C585 H557 0.929 . S
C585 C586 1.390 . S
C585 N588 1.391 . S
C586 H558 0.930 . S
C586 C585 1.390 . S
C586 C587 1.392 . S
C587 H559 0.929 . S
C587 C584 1.391 . S
C587 C586 1.392 . S
N588 Co532 2.257 . S
N588 C585 1.391 . S
N588 C589 1.388 . S
C589 H560 0.930 . S
C589 C584 1.391 . S
C589 N588 1.388 . S
Co590 O592 2.143 . S
Co590 O598 2.074 . S
Co590 O601 2.093 . S
Co590 O614 2.097 . S
Co590 N631 2.151 . S
Co590 N639 2.214 . S
Co591 O592 2.160 . S
Co591 O597 2.058 1_554 S
Co591 O607 2.057 1_554 S
Co591 O622 2.037 1_565 S
Co591 N626 2.145 1_564 S
Co591 N647 2.257 . S
O592 Co590 2.143 . S
O592 Co591 2.160 . S
C593 O594 1.278 . S
C593 O601 1.224 . S
O594 C593 1.278 . S
C595 O596 1.245 . S
C595 O607 1.232 . S
O596 C595 1.245 . S
O597 Co591 2.058 1_556 S
O597 C623 1.269 1_556 S
O598 Co590 2.074 . S
O598 C623 1.257 . S
H599 C624 0.930 . S
H600 C630 0.930 . S
O601 Co590 2.093 . S
O601 C593 1.224 . S
H602 C634 0.929 . S
H603 C636 0.930 . S
H604 C637 0.930 1_545 S
H605 C635 0.929 . S
H606 C638 0.928 . S
O607 Co591 2.057 1_556 S
O607 C595 1.232 . S
H608 C627 0.929 1_554 S
H609 C628 0.929 1_565 S
H610 C640 0.931 . S
H611 C632 0.929 . S
H612 C641 0.930 . S
H613 C633 0.931 . S
O614 Co590 2.097 . S
O614 C642 1.214 1_565 S
H615 C643 0.929 . S
H616 C644 0.929 . S
H617 C645 0.930 . S
H618 C646 0.929 . S
H619 C648 0.930 . S
H620 C625 0.930 . S
H621 C629 0.930 . S
O622 Co591 2.037 1_545 S
O622 C642 1.234 . S
C623 O597 1.269 1_554 S
C623 O598 1.257 . S
C624 H599 0.930 . S
C624 C627 1.388 . S
C624 C629 1.418 . S
C625 H620 0.930 . S
C625 C628 1.404 . S
C625 C629 1.353 . S
N626 Co591 2.145 1_546 S
N626 C627 1.397 . S
N626 C628 1.334 . S
C627 H608 0.929 1_556 S
C627 C624 1.388 . S
C627 N626 1.397 . S
C628 H609 0.929 1_545 S
C628 C625 1.404 . S
C628 N626 1.334 . S
C629 H621 0.930 . S
C629 C624 1.418 . S
C629 C625 1.353 . S
C630 H600 0.930 . S
C630 N631 1.330 . S
C630 C632 1.446 . S
N631 Co590 2.151 . S
N631 C630 1.330 . S
N631 C635 1.418 . S
C632 H611 0.929 . S
C632 C630 1.446 . S
C632 C633 1.332 . S
C633 H613 0.931 . S
C633 C632 1.332 . S
C633 C634 1.267 . S
C634 H602 0.929 . S
C634 C633 1.267 . S
C634 C635 1.251 . S
C635 H605 0.929 . S
C635 N631 1.418 . S
C635 C634 1.251 . S
C636 H603 0.930 . S
C636 C638 1.406 . S
C636 C641 1.261 . S
C637 H604 0.930 1_565 S
C637 N639 1.325 . S
C637 C640 1.357 1_565 S
C638 H606 0.928 . S
C638 C636 1.406 . S
C638 N639 1.261 . S
N639 Co590 2.214 . S
N639 C637 1.325 . S
N639 C638 1.261 . S
C640 H610 0.931 . S
C640 C637 1.357 1_545 S
C640 C641 1.312 1_545 S
C641 H612 0.930 . S
C641 C636 1.261 . S
C641 C640 1.312 1_565 S
C642 O614 1.214 1_545 S
C642 O622 1.234 . S
C643 H615 0.929 . S
C643 C646 1.391 . S
C643 C648 1.391 . S
C644 H616 0.929 . S
C644 C645 1.390 . S
C644 N647 1.391 1_545 S
C645 H617 0.930 . S
C645 C644 1.390 . S
C645 C646 1.392 1_545 S
C646 H618 0.929 . S
C646 C643 1.391 . S
C646 C645 1.392 1_565 S
N647 Co591 2.257 . S
N647 C644 1.391 1_565 S
N647 C648 1.388 . S
C648 H619 0.930 . S
C648 C643 1.391 . S
C648 N647 1.388 . S
Co649 O651 2.143 . S
Co649 O657 2.074 . S
Co649 O660 2.093 . S
Co649 O673 2.097 . S
Co649 N690 2.151 . S
Co649 N698 2.214 . S
Co650 O651 2.160 . S
Co650 O656 2.058 1_554 S
Co650 O666 2.057 1_554 S
Co650 O681 2.037 . S
Co650 N685 2.145 1_554 S
Co650 N706 2.257 . S
O651 Co649 2.143 . S
O651 Co650 2.160 . S
C652 O653 1.278 . S
C652 O660 1.224 . S
O653 C652 1.278 . S
C654 O655 1.245 . S
C654 O666 1.232 . S
O655 C654 1.245 . S
O656 Co650 2.058 1_556 S
O656 C682 1.269 1_556 S
O657 Co649 2.074 . S
O657 C682 1.257 . S
H658 C683 0.930 . S
H659 C689 0.930 . S
O660 Co649 2.093 . S
O660 C652 1.224 . S
H661 C693 0.929 . S
H662 C695 0.930 . S
H663 C696 0.930 . S
H664 C694 0.929 . S
H665 C697 0.928 . S
O666 Co650 2.057 1_556 S
O666 C654 1.232 . S
H667 C686 0.929 1_554 S
H668 C687 0.929 . S
H669 C699 0.931 . S
H670 C691 0.929 . S
H671 C700 0.930 . S
H672 C692 0.931 . S
O673 Co649 2.097 . S
O673 C701 1.214 . S
H674 C702 0.929 . S
H675 C703 0.929 . S
H676 C704 0.930 . S
H677 C705 0.929 . S
H678 C707 0.930 . S
H679 C684 0.930 . S
H680 C688 0.930 . S
O681 Co650 2.037 . S
O681 C701 1.234 . S
C682 O656 1.269 1_554 S
C682 O657 1.257 . S
C683 H658 0.930 . S
C683 C686 1.388 . S
C683 C688 1.418 . S
C684 H679 0.930 . S
C684 C687 1.404 . S
C684 C688 1.353 . S
N685 Co650 2.145 1_556 S
N685 C686 1.397 . S
N685 C687 1.334 . S
C686 H667 0.929 1_556 S
C686 C683 1.388 . S
C686 N685 1.397 . S
C687 H668 0.929 . S
C687 C684 1.404 . S
C687 N685 1.334 . S
C688 H680 0.930 . S
C688 C683 1.418 . S
C688 C684 1.353 . S
C689 H659 0.930 . S
C689 N690 1.330 . S
C689 C691 1.446 . S
N690 Co649 2.151 . S
N690 C689 1.330 . S
N690 C694 1.418 . S
C691 H670 0.929 . S
C691 C689 1.446 . S
C691 C692 1.332 . S
C692 H672 0.931 . S
C692 C691 1.332 . S
C692 C693 1.267 . S
C693 H661 0.929 . S
C693 C692 1.267 . S
C693 C694 1.251 . S
C694 H664 0.929 . S
C694 N690 1.418 . S
C694 C693 1.251 . S
C695 H662 0.930 . S
C695 C697 1.406 . S
C695 C700 1.261 . S
C696 H663 0.930 . S
C696 N698 1.325 . S
C696 C699 1.357 . S
C697 H665 0.928 . S
C697 C695 1.406 . S
C697 N698 1.261 . S
N698 Co649 2.214 . S
N698 C696 1.325 . S
N698 C697 1.261 . S
C699 H669 0.931 . S
C699 C696 1.357 . S
C699 C700 1.312 . S
C700 H671 0.930 . S
C700 C695 1.261 . S
C700 C699 1.312 . S
C701 O673 1.214 . S
C701 O681 1.234 . S
C702 H674 0.929 . S
C702 C705 1.391 . S
C702 C707 1.391 . S
C703 H675 0.929 . S
C703 C704 1.390 . S
C703 N706 1.391 . S
C704 H676 0.930 . S
C704 C703 1.390 . S
C704 C705 1.392 . S
C705 H677 0.929 . S
C705 C702 1.391 . S
C705 C704 1.392 . S
N706 Co650 2.257 . S
N706 C703 1.391 . S
N706 C707 1.388 . S
C707 H678 0.930 . S
C707 C702 1.391 . S
C707 N706 1.388 . S
Co708 O710 2.143 . S
Co708 O716 2.074 . S
Co708 O719 2.093 . S
Co708 O732 2.097 . S
Co708 N749 2.151 . S
Co708 N757 2.214 . S
Co709 O710 2.160 . S
Co709 O715 2.058 1_556 S
Co709 O725 2.057 1_556 S
Co709 O740 2.037 . S
Co709 N744 2.145 1_556 S
Co709 N765 2.257 . S
O710 Co708 2.143 . S
O710 Co709 2.160 . S
C711 O712 1.278 . S
C711 O719 1.224 . S
O712 C711 1.278 . S
C713 O714 1.245 . S
C713 O725 1.232 . S
O714 C713 1.245 . S
O715 Co709 2.058 1_554 S
O715 C741 1.269 1_554 S
O716 Co708 2.074 . S
O716 C741 1.257 . S
H717 C742 0.930 . S
H718 C748 0.930 . S
O719 Co708 2.093 . S
O719 C711 1.224 . S
H720 C752 0.929 . S
H721 C754 0.930 . S
H722 C755 0.930 . S
H723 C753 0.929 . S
H724 C756 0.928 . S
O725 Co709 2.057 1_554 S
O725 C713 1.232 . S
H726 C745 0.929 1_556 S
H727 C746 0.929 . S
H728 C758 0.931 . S
H729 C750 0.929 . S
H730 C759 0.930 . S
H731 C751 0.931 . S
O732 Co708 2.097 . S
O732 C760 1.214 . S
H733 C761 0.929 . S
H734 C762 0.929 . S
H735 C763 0.930 . S
H736 C764 0.929 . S
H737 C766 0.930 . S
H738 C743 0.930 . S
H739 C747 0.930 . S
O740 Co709 2.037 . S
O740 C760 1.234 . S
C741 O715 1.269 1_556 S
C741 O716 1.257 . S
C742 H717 0.930 . S
C742 C745 1.388 . S
C742 C747 1.418 . S
C743 H738 0.930 . S
C743 C746 1.404 . S
C743 C747 1.353 . S
N744 Co709 2.145 1_554 S
N744 C745 1.397 . S
N744 C746 1.334 . S
C745 H726 0.929 1_554 S
C745 C742 1.388 . S
C745 N744 1.397 . S
C746 H727 0.929 . S
C746 C743 1.404 . S
C746 N744 1.334 . S
C747 H739 0.930 . S
C747 C742 1.418 . S
C747 C743 1.353 . S
C748 H718 0.930 . S
C748 N749 1.330 . S
C748 C750 1.446 . S
N749 Co708 2.151 . S
N749 C748 1.330 . S
N749 C753 1.418 . S
C750 H729 0.929 . S
C750 C748 1.446 . S
C750 C751 1.332 . S
C751 H731 0.931 . S
C751 C750 1.332 . S
C751 C752 1.267 . S
C752 H720 0.929 . S
C752 C751 1.267 . S
C752 C753 1.251 . S
C753 H723 0.929 . S
C753 N749 1.418 . S
C753 C752 1.251 . S
C754 H721 0.930 . S
C754 C756 1.406 . S
C754 C759 1.261 . S
C755 H722 0.930 . S
C755 N757 1.325 . S
C755 C758 1.357 . S
C756 H724 0.928 . S
C756 C754 1.406 . S
C756 N757 1.261 . S
N757 Co708 2.214 . S
N757 C755 1.325 . S
N757 C756 1.261 . S
C758 H728 0.931 . S
C758 C755 1.357 . S
C758 C759 1.312 . S
C759 H730 0.930 . S
C759 C754 1.261 . S
C759 C758 1.312 . S
C760 O732 1.214 . S
C760 O740 1.234 . S
C761 H733 0.929 . S
C761 C764 1.391 . S
C761 C766 1.391 . S
C762 H734 0.929 . S
C762 C763 1.390 . S
C762 N765 1.391 . S
C763 H735 0.930 . S
C763 C762 1.390 . S
C763 C764 1.392 . S
C764 H736 0.929 . S
C764 C761 1.391 . S
C764 C763 1.392 . S
N765 Co709 2.257 . S
N765 C762 1.391 . S
N765 C766 1.388 . S
C766 H737 0.930 . S
C766 C761 1.391 . S
C766 N765 1.388 . S
Co767 O769 2.143 . S
Co767 O775 2.074 . S
Co767 O778 2.093 1_556 S
Co767 O791 2.097 1_556 S
Co767 N808 2.151 . S
Co767 N816 2.214 1_556 S
Co768 O769 2.160 . S
Co768 O774 2.058 . S
Co768 O784 2.057 . S
Co768 O799 2.037 . S
Co768 N803 2.145 . S
Co768 N824 2.257 . S
O769 Co767 2.143 . S
O769 Co768 2.160 . S
C770 O771 1.278 . S
C770 O778 1.224 . S
O771 C770 1.278 . S
C772 O773 1.245 . S
C772 O784 1.232 . S
O773 C772 1.245 . S
O774 Co768 2.058 . S
O774 C800 1.269 . S
O775 Co767 2.074 . S
O775 C800 1.257 . S
H776 C801 0.930 . S
H777 C807 0.930 . S
O778 Co767 2.093 1_554 S
O778 C770 1.224 . S
H779 C811 0.929 . S
H780 C813 0.930 . S
H781 C814 0.930 . S
H782 C812 0.929 . S
H783 C815 0.928 . S
O784 Co768 2.057 . S
O784 C772 1.232 . S
H785 C804 0.929 . S
H786 C805 0.929 . S
H787 C817 0.931 . S
H788 C809 0.929 . S
H789 C818 0.930 . S
H790 C810 0.931 . S
O791 Co767 2.097 1_554 S
O791 C819 1.214 1_554 S
H792 C820 0.929 . S
H793 C821 0.929 . S
H794 C822 0.930 . S
H795 C823 0.929 . S
H796 C825 0.930 . S
H797 C802 0.930 . S
H798 C806 0.930 . S
O799 Co768 2.037 . S
O799 C819 1.234 . S
C800 O774 1.269 . S
C800 O775 1.257 . S
C801 H776 0.930 . S
C801 C804 1.388 . S
C801 C806 1.418 . S
C802 H797 0.930 . S
C802 C805 1.404 . S
C802 C806 1.353 . S
N803 Co768 2.145 . S
N803 C804 1.397 . S
N803 C805 1.334 . S
C804 H785 0.929 . S
C804 C801 1.388 . S
C804 N803 1.397 . S
C805 H786 0.929 . S
C805 C802 1.404 . S
C805 N803 1.334 . S
C806 H798 0.930 . S
C806 C801 1.418 . S
C806 C802 1.353 . S
C807 H777 0.930 . S
C807 N808 1.330 . S
C807 C809 1.446 . S
N808 Co767 2.151 . S
N808 C807 1.330 . S
N808 C812 1.418 . S
C809 H788 0.929 . S
C809 C807 1.446 . S
C809 C810 1.332 . S
C810 H790 0.931 . S
C810 C809 1.332 . S
C810 C811 1.267 . S
C811 H779 0.929 . S
C811 C810 1.267 . S
C811 C812 1.251 . S
C812 H782 0.929 . S
C812 N808 1.418 . S
C812 C811 1.251 . S
C813 H780 0.930 . S
C813 C815 1.406 . S
C813 C818 1.261 . S
C814 H781 0.930 . S
C814 N816 1.325 . S
C814 C817 1.357 . S
C815 H783 0.928 . S
C815 C813 1.406 . S
C815 N816 1.261 . S
N816 Co767 2.214 1_554 S
N816 C814 1.325 . S
N816 C815 1.261 . S
C817 H787 0.931 . S
C817 C814 1.357 . S
C817 C818 1.312 . S
C818 H789 0.930 . S
C818 C813 1.261 . S
C818 C817 1.312 . S
C819 O791 1.214 1_556 S
C819 O799 1.234 . S
C820 H792 0.929 . S
C820 C823 1.391 . S
C820 C825 1.391 . S
C821 H793 0.929 . S
C821 C822 1.390 . S
C821 N824 1.391 . S
C822 H794 0.930 . S
C822 C821 1.390 . S
C822 C823 1.392 . S
C823 H795 0.929 . S
C823 C820 1.391 . S
C823 C822 1.392 . S
N824 Co768 2.257 . S
N824 C821 1.391 . S
N824 C825 1.388 . S
C825 H796 0.930 . S
C825 C820 1.391 . S
C825 N824 1.388 . S
Co826 O828 2.143 . S
Co826 O834 2.074 . S
Co826 O837 2.093 . S
Co826 O850 2.097 . S
Co826 N867 2.151 . S
Co826 N875 2.214 . S
Co827 O828 2.160 . S
Co827 O833 2.058 1_556 S
Co827 O843 2.057 1_556 S
Co827 O858 2.037 1_655 S
Co827 N862 2.145 1_656 S
Co827 N883 2.257 . S
O828 Co826 2.143 . S
O828 Co827 2.160 . S
C829 O830 1.278 . S
C829 O837 1.224 . S
O830 C829 1.278 . S
C831 O832 1.245 . S
C831 O843 1.232 . S
O832 C831 1.245 . S
O833 Co827 2.058 1_554 S
O833 C859 1.269 1_554 S
O834 Co826 2.074 . S
O834 C859 1.257 . S
H835 C860 0.930 . S
H836 C866 0.930 . S
O837 Co826 2.093 . S
O837 C829 1.224 . S
H838 C870 0.929 . S
H839 C872 0.930 . S
H840 C873 0.930 1_455 S
H841 C871 0.929 . S
H842 C874 0.928 . S
O843 Co827 2.057 1_554 S
O843 C831 1.232 . S
H844 C863 0.929 1_556 S
H845 C864 0.929 1_655 S
H846 C876 0.931 . S
H847 C868 0.929 . S
H848 C877 0.930 . S
H849 C869 0.931 . S
O850 Co826 2.097 . S
O850 C878 1.214 1_655 S
H851 C879 0.929 . S
H852 C880 0.929 . S
H853 C881 0.930 . S
H854 C882 0.929 . S
H855 C884 0.930 . S
H856 C861 0.930 . S
H857 C865 0.930 . S
O858 Co827 2.037 1_455 S
O858 C878 1.234 . S
C859 O833 1.269 1_556 S
C859 O834 1.257 . S
C860 H835 0.930 . S
C860 C863 1.388 . S
C860 C865 1.418 . S
C861 H856 0.930 . S
C861 C864 1.404 . S
C861 C865 1.353 . S
N862 Co827 2.145 1_454 S
N862 C863 1.397 . S
N862 C864 1.334 . S
C863 H844 0.929 1_554 S
C863 C860 1.388 . S
C863 N862 1.397 . S
C864 H845 0.929 1_455 S
C864 C861 1.404 . S
C864 N862 1.334 . S
C865 H857 0.930 . S
C865 C860 1.418 . S
C865 C861 1.353 . S
C866 H836 0.930 . S
C866 N867 1.330 . S
C866 C868 1.446 . S
N867 Co826 2.151 . S
N867 C866 1.330 . S
N867 C871 1.418 . S
C868 H847 0.929 . S
C868 C866 1.446 . S
C868 C869 1.332 . S
C869 H849 0.931 . S
C869 C868 1.332 . S
C869 C870 1.267 . S
C870 H838 0.929 . S
C870 C869 1.267 . S
C870 C871 1.251 . S
C871 H841 0.929 . S
C871 N867 1.418 . S
C871 C870 1.251 . S
C872 H839 0.930 . S
C872 C874 1.406 . S
C872 C877 1.261 . S
C873 H840 0.930 1_655 S
C873 N875 1.325 . S
C873 C876 1.357 1_655 S
C874 H842 0.928 . S
C874 C872 1.406 . S
C874 N875 1.261 . S
N875 Co826 2.214 . S
N875 C873 1.325 . S
N875 C874 1.261 . S
C876 H846 0.931 . S
C876 C873 1.357 1_455 S
C876 C877 1.312 1_455 S
C877 H848 0.930 . S
C877 C872 1.261 . S
C877 C876 1.312 1_655 S
C878 O850 1.214 1_455 S
C878 O858 1.234 . S
C879 H851 0.929 . S
C879 C882 1.391 . S
C879 C884 1.391 . S
C880 H852 0.929 . S
C880 C881 1.390 . S
C880 N883 1.391 1_455 S
C881 H853 0.930 . S
C881 C880 1.390 . S
C881 C882 1.392 1_455 S
C882 H854 0.929 . S
C882 C879 1.391 . S
C882 C881 1.392 1_655 S
N883 Co827 2.257 . S
N883 C880 1.391 1_655 S
N883 C884 1.388 . S
C884 H855 0.930 . S
C884 C879 1.391 . S
C884 N883 1.388 . S
Co885 O887 2.143 . S
Co885 O893 2.074 . S
Co885 O896 2.093 . S
Co885 O909 2.097 . S
Co885 N926 2.151 . S
Co885 N934 2.214 . S
Co886 O887 2.160 . S
Co886 O892 2.058 . S
Co886 O902 2.057 . S
Co886 O917 2.037 . S
Co886 N921 2.145 . S
Co886 N942 2.257 . S
O887 Co885 2.143 . S
O887 Co886 2.160 . S
C888 O889 1.278 . S
C888 O896 1.224 . S
O889 C888 1.278 . S
C890 O891 1.245 . S
C890 O902 1.232 . S
O891 C890 1.245 . S
O892 Co886 2.058 . S
O892 C918 1.269 . S
O893 Co885 2.074 . S
O893 C918 1.257 . S
H894 C919 0.930 . S
H895 C925 0.930 . S
O896 Co885 2.093 . S
O896 C888 1.224 . S
H897 C929 0.929 . S
H898 C931 0.930 . S
H899 C932 0.930 . S
H900 C930 0.929 . S
H901 C933 0.928 . S
O902 Co886 2.057 . S
O902 C890 1.232 . S
H903 C922 0.929 . S
H904 C923 0.929 . S
H905 C935 0.931 . S
H906 C927 0.929 . S
H907 C936 0.930 . S
H908 C928 0.931 . S
O909 Co885 2.097 . S
O909 C937 1.214 . S
H910 C938 0.929 . S
H911 C939 0.929 . S
H912 C940 0.930 . S
H913 C941 0.929 . S
H914 C943 0.930 . S
H915 C920 0.930 . S
H916 C924 0.930 . S
O917 Co886 2.037 . S
O917 C937 1.234 . S
C918 O892 1.269 . S
C918 O893 1.257 . S
C919 H894 0.930 . S
C919 C922 1.388 . S
C919 C924 1.418 . S
C920 H915 0.930 . S
C920 C923 1.404 . S
C920 C924 1.353 . S
N921 Co886 2.145 . S
N921 C922 1.397 . S
N921 C923 1.334 . S
C922 H903 0.929 . S
C922 C919 1.388 . S
C922 N921 1.397 . S
C923 H904 0.929 . S
C923 C920 1.404 . S
C923 N921 1.334 . S
C924 H916 0.930 . S
C924 C919 1.418 . S
C924 C920 1.353 . S
C925 H895 0.930 . S
C925 N926 1.330 . S
C925 C927 1.446 . S
N926 Co885 2.151 . S
N926 C925 1.330 . S
N926 C930 1.418 . S
C927 H906 0.929 . S
C927 C925 1.446 . S
C927 C928 1.332 . S
C928 H908 0.931 . S
C928 C927 1.332 . S
C928 C929 1.267 . S
C929 H897 0.929 . S
C929 C928 1.267 . S
C929 C930 1.251 . S
C930 H900 0.929 . S
C930 N926 1.418 . S
C930 C929 1.251 . S
C931 H898 0.930 . S
C931 C933 1.406 . S
C931 C936 1.261 . S
C932 H899 0.930 . S
C932 N934 1.325 . S
C932 C935 1.357 . S
C933 H901 0.928 . S
C933 C931 1.406 . S
C933 N934 1.261 . S
N934 Co885 2.214 . S
N934 C932 1.325 . S
N934 C933 1.261 . S
C935 H905 0.931 . S
C935 C932 1.357 . S
C935 C936 1.312 . S
C936 H907 0.930 . S
C936 C931 1.261 . S
C936 C935 1.312 . S
C937 O909 1.214 . S
C937 O917 1.234 . S
C938 H910 0.929 . S
C938 C941 1.391 . S
C938 C943 1.391 . S
C939 H911 0.929 . S
C939 C940 1.390 . S
C939 N942 1.391 . S
C940 H912 0.930 . S
C940 C939 1.390 . S
C940 C941 1.392 . S
C941 H913 0.929 . S
C941 C938 1.391 . S
C941 C940 1.392 . S
N942 Co886 2.257 . S
N942 C939 1.391 . S
N942 C943 1.388 . S
C943 H914 0.930 . S
C943 C938 1.391 . S
C943 N942 1.388 . S
Co944 O946 2.143 . S
Co944 O952 2.074 . S
Co944 O955 2.093 . S
Co944 O968 2.097 . S
Co944 N985 2.151 . S
Co944 N993 2.214 . S
Co945 O946 2.160 . S
Co945 O951 2.058 . S
Co945 O961 2.057 . S
Co945 O976 2.037 1_655 S
Co945 N980 2.145 1_655 S
Co945 N1001 2.257 . S
O946 Co944 2.143 . S
O946 Co945 2.160 . S
C947 O948 1.278 . S
C947 O955 1.224 . S
O948 C947 1.278 . S
C949 O950 1.245 . S
C949 O961 1.232 . S
O950 C949 1.245 . S
O951 Co945 2.058 . S
O951 C977 1.269 . S
O952 Co944 2.074 . S
O952 C977 1.257 . S
H953 C978 0.930 . S
H954 C984 0.930 . S
O955 Co944 2.093 . S
O955 C947 1.224 . S
H956 C988 0.929 . S
H957 C990 0.930 . S
H958 C991 0.930 1_455 S
H959 C989 0.929 . S
H960 C992 0.928 . S
O961 Co945 2.057 . S
O961 C949 1.232 . S
H962 C981 0.929 . S
H963 C982 0.929 1_655 S
H964 C994 0.931 . S
H965 C986 0.929 . S
H966 C995 0.930 . S
H967 C987 0.931 . S
O968 Co944 2.097 . S
O968 C996 1.214 1_655 S
H969 C997 0.929 . S
H970 C998 0.929 . S
H971 C999 0.930 . S
H972 C1000 0.929 . S
H973 C1002 0.930 . S
H974 C979 0.930 . S
H975 C983 0.930 . S
O976 Co945 2.037 1_455 S
O976 C996 1.234 . S
C977 O951 1.269 . S
C977 O952 1.257 . S
C978 H953 0.930 . S
C978 C981 1.388 . S
C978 C983 1.418 . S
C979 H974 0.930 . S
C979 C982 1.404 . S
C979 C983 1.353 . S
N980 Co945 2.145 1_455 S
N980 C981 1.397 . S
N980 C982 1.334 . S
C981 H962 0.929 . S
C981 C978 1.388 . S
C981 N980 1.397 . S
C982 H963 0.929 1_455 S
C982 C979 1.404 . S
C982 N980 1.334 . S
C983 H975 0.930 . S
C983 C978 1.418 . S
C983 C979 1.353 . S
C984 H954 0.930 . S
C984 N985 1.330 . S
C984 C986 1.446 . S
N985 Co944 2.151 . S
N985 C984 1.330 . S
N985 C989 1.418 . S
C986 H965 0.929 . S
C986 C984 1.446 . S
C986 C987 1.332 . S
C987 H967 0.931 . S
C987 C986 1.332 . S
C987 C988 1.267 . S
C988 H956 0.929 . S
C988 C987 1.267 . S
C988 C989 1.251 . S
C989 H959 0.929 . S
C989 N985 1.418 . S
C989 C988 1.251 . S
C990 H957 0.930 . S
C990 C992 1.406 . S
C990 C995 1.261 . S
C991 H958 0.930 1_655 S
C991 N993 1.325 . S
C991 C994 1.357 1_655 S
C992 H960 0.928 . S
C992 C990 1.406 . S
C992 N993 1.261 . S
N993 Co944 2.214 . S
N993 C991 1.325 . S
N993 C992 1.261 . S
C994 H964 0.931 . S
C994 C991 1.357 1_455 S
C994 C995 1.312 1_455 S
C995 H966 0.930 . S
C995 C990 1.261 . S
C995 C994 1.312 1_655 S
C996 O968 1.214 1_455 S
C996 O976 1.234 . S
C997 H969 0.929 . S
C997 C1000 1.391 . S
C997 C1002 1.391 . S
C998 H970 0.929 . S
C998 C999 1.390 . S
C998 N1001 1.391 1_455 S
C999 H971 0.930 . S
C999 C998 1.390 . S
C999 C1000 1.392 1_455 S
C1000 H972 0.929 . S
C1000 C997 1.391 . S
C1000 C999 1.392 1_655 S
N1001 Co945 2.257 . S
N1001 C998 1.391 1_655 S
N1001 C1002 1.388 . S
C1002 H973 0.930 . S
C1002 C997 1.391 . S
C1002 N1001 1.388 . S
Co1003 O1005 2.143 . S
Co1003 O1011 2.074 . S
Co1003 O1014 2.093 . S
Co1003 O1027 2.097 . S
Co1003 N1044 2.151 . S
Co1003 N1052 2.214 . S
Co1004 O1005 2.160 . S
Co1004 O1010 2.058 . S
Co1004 O1020 2.057 . S
Co1004 O1035 2.037 . S
Co1004 N1039 2.145 . S
Co1004 N1060 2.257 . S
O1005 Co1003 2.143 . S
O1005 Co1004 2.160 . S
C1006 O1007 1.278 . S
C1006 O1014 1.224 . S
O1007 C1006 1.278 . S
C1008 O1009 1.245 . S
C1008 O1020 1.232 . S
O1009 C1008 1.245 . S
O1010 Co1004 2.058 . S
O1010 C1036 1.269 . S
O1011 Co1003 2.074 . S
O1011 C1036 1.257 . S
H1012 C1037 0.930 . S
H1013 C1043 0.930 . S
O1014 Co1003 2.093 . S
O1014 C1006 1.224 . S
H1015 C1047 0.929 . S
H1016 C1049 0.930 . S
H1017 C1050 0.930 . S
H1018 C1048 0.929 . S
H1019 C1051 0.928 . S
O1020 Co1004 2.057 . S
O1020 C1008 1.232 . S
H1021 C1040 0.929 . S
H1022 C1041 0.929 . S
H1023 C1053 0.931 . S
H1024 C1045 0.929 . S
H1025 C1054 0.930 . S
H1026 C1046 0.931 . S
O1027 Co1003 2.097 . S
O1027 C1055 1.214 . S
H1028 C1056 0.929 . S
H1029 C1057 0.929 . S
H1030 C1058 0.930 . S
H1031 C1059 0.929 . S
H1032 C1061 0.930 . S
H1033 C1038 0.930 . S
H1034 C1042 0.930 . S
O1035 Co1004 2.037 . S
O1035 C1055 1.234 . S
C1036 O1010 1.269 . S
C1036 O1011 1.257 . S
C1037 H1012 0.930 . S
C1037 C1040 1.388 . S
C1037 C1042 1.418 . S
C1038 H1033 0.930 . S
C1038 C1041 1.404 . S
C1038 C1042 1.353 . S
N1039 Co1004 2.145 . S
N1039 C1040 1.397 . S
N1039 C1041 1.334 . S
C1040 H1021 0.929 . S
C1040 C1037 1.388 . S
C1040 N1039 1.397 . S
C1041 H1022 0.929 . S
C1041 C1038 1.404 . S
C1041 N1039 1.334 . S
C1042 H1034 0.930 . S
C1042 C1037 1.418 . S
C1042 C1038 1.353 . S
C1043 H1013 0.930 . S
C1043 N1044 1.330 . S
C1043 C1045 1.446 . S
N1044 Co1003 2.151 . S
N1044 C1043 1.330 . S
N1044 C1048 1.418 . S
C1045 H1024 0.929 . S
C1045 C1043 1.446 . S
C1045 C1046 1.332 . S
C1046 H1026 0.931 . S
C1046 C1045 1.332 . S
C1046 C1047 1.267 . S
C1047 H1015 0.929 . S
C1047 C1046 1.267 . S
C1047 C1048 1.251 . S
C1048 H1018 0.929 . S
C1048 N1044 1.418 . S
C1048 C1047 1.251 . S
C1049 H1016 0.930 . S
C1049 C1051 1.406 . S
C1049 C1054 1.261 . S
C1050 H1017 0.930 . S
C1050 N1052 1.325 . S
C1050 C1053 1.357 . S
C1051 H1019 0.928 . S
C1051 C1049 1.406 . S
C1051 N1052 1.261 . S
N1052 Co1003 2.214 . S
N1052 C1050 1.325 . S
N1052 C1051 1.261 . S
C1053 H1023 0.931 . S
C1053 C1050 1.357 . S
C1053 C1054 1.312 . S
C1054 H1025 0.930 . S
C1054 C1049 1.261 . S
C1054 C1053 1.312 . S
C1055 O1027 1.214 . S
C1055 O1035 1.234 . S
C1056 H1028 0.929 . S
C1056 C1059 1.391 . S
C1056 C1061 1.391 . S
C1057 H1029 0.929 . S
C1057 C1058 1.390 . S
C1057 N1060 1.391 . S
C1058 H1030 0.930 . S
C1058 C1057 1.390 . S
C1058 C1059 1.392 . S
C1059 H1031 0.929 . S
C1059 C1056 1.391 . S
C1059 C1058 1.392 . S
N1060 Co1004 2.257 . S
N1060 C1057 1.391 . S
N1060 C1061 1.388 . S
C1061 H1032 0.930 . S
C1061 C1056 1.391 . S
C1061 N1060 1.388 . S
H1062 C1068 0.930 . S
H1063 C1071 0.930 . S
H1064 C1072 0.930 . S
H1065 C1073 0.930 . S
H1066 C1076 0.930 . S
H1067 C1077 0.930 . S
C1068 H1062 0.930 . S
C1068 C1069 1.355 . S
C1068 C1070 1.415 1_556 S
C1069 C1068 1.355 . S
C1069 C1071 1.419 . S
C1070 C1068 1.415 1_554 S
C1070 C1075 1.425 1_554 S
C1070 C1077 1.409 . S
C1071 H1063 0.930 . S
C1071 C1069 1.419 . S
C1071 C1072 1.362 . S
C1072 H1064 0.930 . S
C1072 C1071 1.362 . S
C1072 C1075 1.409 . S
C1073 H1065 0.930 . S
C1073 C1074 1.355 . S
C1073 C1075 1.415 1_554 S
C1074 C1073 1.355 . S
C1074 C1076 1.419 . S
C1075 C1070 1.425 1_556 S
C1075 C1072 1.409 . S
C1075 C1073 1.415 1_556 S
C1076 H1066 0.930 . S
C1076 C1074 1.419 . S
C1076 C1077 1.362 . S
C1077 H1067 0.930 . S
C1077 C1070 1.409 . S
C1077 C1076 1.362 . S
H1078 C1084 0.930 . S
H1079 C1087 0.930 . S
H1080 C1088 0.930 . S
H1081 C1089 0.930 . S
H1082 C1092 0.930 . S
H1083 C1093 0.930 . S
C1084 H1078 0.930 . S
C1084 C1085 1.355 . S
C1084 C1086 1.415 . S
C1085 C1084 1.355 . S
C1085 C1087 1.419 . S
C1086 C1084 1.415 . S
C1086 C1091 1.425 1_556 S
C1086 C1093 1.409 1_556 S
C1087 H1079 0.930 . S
C1087 C1085 1.419 . S
C1087 C1088 1.362 . S
C1088 H1080 0.930 . S
C1088 C1087 1.362 . S
C1088 C1091 1.409 1_556 S
C1089 H1081 0.930 . S
C1089 C1090 1.355 . S
C1089 C1091 1.415 . S
C1090 C1089 1.355 . S
C1090 C1092 1.419 . S
C1091 C1086 1.425 1_554 S
C1091 C1088 1.409 1_554 S
C1091 C1089 1.415 . S
C1092 H1082 0.930 . S
C1092 C1090 1.419 . S
C1092 C1093 1.362 . S
C1093 H1083 0.930 . S
C1093 C1086 1.409 1_554 S
C1093 C1092 1.362 . S
H1094 C1100 0.930 . S
H1095 C1103 0.930 . S
H1096 C1104 0.930 . S
H1097 C1105 0.930 . S
H1098 C1108 0.930 . S
H1099 C1109 0.930 . S
C1100 H1094 0.930 . S
C1100 C1101 1.355 . S
C1100 C1102 1.415 . S
C1101 C1100 1.355 . S
C1101 C1103 1.419 . S
C1102 C1100 1.415 . S
C1102 C1107 1.425 1_554 S
C1102 C1109 1.409 . S
C1103 H1095 0.930 . S
C1103 C1101 1.419 . S
C1103 C1104 1.362 1_554 S
C1104 H1096 0.930 . S
C1104 C1103 1.362 1_556 S
C1104 C1107 1.409 . S
C1105 H1097 0.930 . S
C1105 C1106 1.355 . S
C1105 C1107 1.415 . S
C1106 C1105 1.355 . S
C1106 C1108 1.419 . S
C1107 C1102 1.425 1_556 S
C1107 C1104 1.409 . S
C1107 C1105 1.415 . S
C1108 H1098 0.930 . S
C1108 C1106 1.419 . S
C1108 C1109 1.362 1_556 S
C1109 H1099 0.930 . S
C1109 C1102 1.409 . S
C1109 C1108 1.362 1_554 S
H1110 C1116 0.930 . S
H1111 C1119 0.930 . S
H1112 C1120 0.930 . S
H1113 C1121 0.930 . S
H1114 C1124 0.930 . S
H1115 C1125 0.930 . S
C1116 H1110 0.930 . S
C1116 C1117 1.355 . S
C1116 C1118 1.415 . S
C1117 C1116 1.355 . S
C1117 C1119 1.419 . S
C1118 C1116 1.415 . S
C1118 C1123 1.425 . S
C1118 C1125 1.409 . S
C1119 H1111 0.930 . S
C1119 C1117 1.419 . S
C1119 C1120 1.362 . S
C1120 H1112 0.930 . S
C1120 C1119 1.362 . S
C1120 C1123 1.409 . S
C1121 H1113 0.930 . S
C1121 C1122 1.355 . S
C1121 C1123 1.415 . S
C1122 C1121 1.355 . S
C1122 C1124 1.419 . S
C1123 C1118 1.425 . S
C1123 C1120 1.409 . S
C1123 C1121 1.415 . S
C1124 H1114 0.930 . S
C1124 C1122 1.419 . S
C1124 C1125 1.362 . S
C1125 H1115 0.930 . S
C1125 C1118 1.409 . S
C1125 C1124 1.362 . S
H1126 C1132 0.930 . S
H1127 C1135 0.930 . S
H1128 C1136 0.930 . S
H1129 C1137 0.930 . S
H1130 C1140 0.930 . S
H1131 C1141 0.930 . S
C1132 H1126 0.930 . S
C1132 C1133 1.355 . S
C1132 C1134 1.415 . S
C1133 C1132 1.355 . S
C1133 C1135 1.419 . S
C1134 C1132 1.415 . S
C1134 C1139 1.425 . S
C1134 C1141 1.409 . S
C1135 H1127 0.930 . S
C1135 C1133 1.419 . S
C1135 C1136 1.362 . S
C1136 H1128 0.930 . S
C1136 C1135 1.362 . S
C1136 C1139 1.409 . S
C1137 H1129 0.930 . S
C1137 C1138 1.355 . S
C1137 C1139 1.415 . S
C1138 C1137 1.355 . S
C1138 C1140 1.419 . S
C1139 C1134 1.425 . S
C1139 C1136 1.409 . S
C1139 C1137 1.415 . S
C1140 H1130 0.930 . S
C1140 C1138 1.419 . S
C1140 C1141 1.362 . S
C1141 H1131 0.930 . S
C1141 C1134 1.409 . S
C1141 C1140 1.362 . S
H1142 C1148 0.930 . S
H1143 C1151 0.930 . S
H1144 C1152 0.930 . S
H1145 C1153 0.930 . S
H1146 C1156 0.930 . S
H1147 C1157 0.930 . S
C1148 H1142 0.930 . S
C1148 C1149 1.355 . S
C1148 C1150 1.415 . S
C1149 C1148 1.355 . S
C1149 C1151 1.419 . S
C1150 C1148 1.415 . S
C1150 C1155 1.425 . S
C1150 C1157 1.409 . S
C1151 H1143 0.930 . S
C1151 C1149 1.419 . S
C1151 C1152 1.362 . S
C1152 H1144 0.930 . S
C1152 C1151 1.362 . S
C1152 C1155 1.409 . S
C1153 H1145 0.930 . S
C1153 C1154 1.355 . S
C1153 C1155 1.415 . S
C1154 C1153 1.355 . S
C1154 C1156 1.419 . S
C1155 C1150 1.425 . S
C1155 C1152 1.409 . S
C1155 C1153 1.415 . S
C1156 H1146 0.930 . S
C1156 C1154 1.419 . S
C1156 C1157 1.362 . S
C1157 H1147 0.930 . S
C1157 C1150 1.409 . S
C1157 C1156 1.362 . S
H1158 C1164 0.930 . S
H1159 C1167 0.930 . S
H1160 C1168 0.930 . S
H1161 C1169 0.930 . S
H1162 C1172 0.930 . S
H1163 C1173 0.930 . S
C1164 H1158 0.930 . S
C1164 C1165 1.355 . S
C1164 C1166 1.415 . S
C1165 C1164 1.355 . S
C1165 C1167 1.419 . S
C1166 C1164 1.415 . S
C1166 C1171 1.425 . S
C1166 C1173 1.409 . S
C1167 H1159 0.930 . S
C1167 C1165 1.419 . S
C1167 C1168 1.362 . S
C1168 H1160 0.930 . S
C1168 C1167 1.362 . S
C1168 C1171 1.409 . S
C1169 H1161 0.930 . S
C1169 C1170 1.355 . S
C1169 C1171 1.415 . S
C1170 C1169 1.355 . S
C1170 C1172 1.419 . S
C1171 C1166 1.425 . S
C1171 C1168 1.409 . S
C1171 C1169 1.415 . S
C1172 H1162 0.930 . S
C1172 C1170 1.419 . S
C1172 C1173 1.362 . S
C1173 H1163 0.930 . S
C1173 C1166 1.409 . S
C1173 C1172 1.362 . S
H1174 C1180 0.930 . S
H1175 C1183 0.930 . S
H1176 C1184 0.930 . S
H1177 C1185 0.930 . S
H1178 C1188 0.930 . S
H1179 C1189 0.930 . S
C1180 H1174 0.930 . S
C1180 C1181 1.355 . S
C1180 C1182 1.415 . S
C1181 C1180 1.355 . S
C1181 C1183 1.419 . S
C1182 C1180 1.415 . S
C1182 C1187 1.425 . S
C1182 C1189 1.409 . S
C1183 H1175 0.930 . S
C1183 C1181 1.419 . S
C1183 C1184 1.362 . S
C1184 H1176 0.930 . S
C1184 C1183 1.362 . S
C1184 C1187 1.409 . S
C1185 H1177 0.930 . S
C1185 C1186 1.355 . S
C1185 C1187 1.415 . S
C1186 C1185 1.355 . S
C1186 C1188 1.419 . S
C1187 C1182 1.425 . S
C1187 C1184 1.409 . S
C1187 C1185 1.415 . S
C1188 H1178 0.930 . S
C1188 C1186 1.419 . S
C1188 C1189 1.362 . S
C1189 H1179 0.930 . S
C1189 C1182 1.409 . S
C1189 C1188 1.362 . S
H1190 C1196 0.930 . S
H1191 C1199 0.930 . S
H1192 C1200 0.930 . S
H1193 C1201 0.930 . S
H1194 C1204 0.930 . S
H1195 C1205 0.930 . S
C1196 H1190 0.930 . S
C1196 C1197 1.355 . S
C1196 C1198 1.415 . S
C1197 C1196 1.355 . S
C1197 C1199 1.419 . S
C1198 C1196 1.415 . S
C1198 C1203 1.425 . S
C1198 C1205 1.409 . S
C1199 H1191 0.930 . S
C1199 C1197 1.419 . S
C1199 C1200 1.362 . S
C1200 H1192 0.930 . S
C1200 C1199 1.362 . S
C1200 C1203 1.409 . S
C1201 H1193 0.930 . S
C1201 C1202 1.355 . S
C1201 C1203 1.415 . S
C1202 C1201 1.355 . S
C1202 C1204 1.419 . S
C1203 C1198 1.425 . S
C1203 C1200 1.409 . S
C1203 C1201 1.415 . S
C1204 H1194 0.930 . S
C1204 C1202 1.419 . S
C1204 C1205 1.362 . S
C1205 H1195 0.930 . S
C1205 C1198 1.409 . S
C1205 C1204 1.362 . S
H1206 C1212 0.930 . S
H1207 C1215 0.930 . S
H1208 C1216 0.930 . S
H1209 C1217 0.930 . S
H1210 C1220 0.930 . S
H1211 C1221 0.930 . S
C1212 H1206 0.930 . S
C1212 C1213 1.355 . S
C1212 C1214 1.415 . S
C1213 C1212 1.355 . S
C1213 C1215 1.419 . S
C1214 C1212 1.415 . S
C1214 C1219 1.425 . S
C1214 C1221 1.409 . S
C1215 H1207 0.930 . S
C1215 C1213 1.419 . S
C1215 C1216 1.362 . S
C1216 H1208 0.930 . S
C1216 C1215 1.362 . S
C1216 C1219 1.409 . S
C1217 H1209 0.930 . S
C1217 C1218 1.355 . S
C1217 C1219 1.415 . S
C1218 C1217 1.355 . S
C1218 C1220 1.419 . S
C1219 C1214 1.425 . S
C1219 C1216 1.409 . S
C1219 C1217 1.415 . S
C1220 H1210 0.930 . S
C1220 C1218 1.419 . S
C1220 C1221 1.362 . S
C1221 H1211 0.930 . S
C1221 C1214 1.409 . S
C1221 C1220 1.362 . S
H1222 C1228 0.930 . S
H1223 C1231 0.930 . S
H1224 C1232 0.930 . S
H1225 C1233 0.930 . S
H1226 C1236 0.930 . S
H1227 C1237 0.930 . S
C1228 H1222 0.930 . S
C1228 C1229 1.355 . S
C1228 C1230 1.415 . S
C1229 C1228 1.355 . S
C1229 C1231 1.419 . S
C1230 C1228 1.415 . S
C1230 C1235 1.425 . S
C1230 C1237 1.409 . S
C1231 H1223 0.930 . S
C1231 C1229 1.419 . S
C1231 C1232 1.362 . S
C1232 H1224 0.930 . S
C1232 C1231 1.362 . S
C1232 C1235 1.409 . S
C1233 H1225 0.930 . S
C1233 C1234 1.355 . S
C1233 C1235 1.415 . S
C1234 C1233 1.355 . S
C1234 C1236 1.419 . S
C1235 C1230 1.425 . S
C1235 C1232 1.409 . S
C1235 C1233 1.415 . S
C1236 H1226 0.930 . S
C1236 C1234 1.419 . S
C1236 C1237 1.362 . S
C1237 H1227 0.930 . S
C1237 C1230 1.409 . S
C1237 C1236 1.362 . S
H1238 C1244 0.930 . S
H1239 C1247 0.930 . S
H1240 C1248 0.930 . S
H1241 C1249 0.930 . S
H1242 C1252 0.930 . S
H1243 C1253 0.930 . S
C1244 H1238 0.930 . S
C1244 C1245 1.355 . S
C1244 C1246 1.415 . S
C1245 C1244 1.355 . S
C1245 C1247 1.419 . S
C1246 C1244 1.415 . S
C1246 C1251 1.425 . S
C1246 C1253 1.409 . S
C1247 H1239 0.930 . S
C1247 C1245 1.419 . S
C1247 C1248 1.362 . S
C1248 H1240 0.930 . S
C1248 C1247 1.362 . S
C1248 C1251 1.409 . S
C1249 H1241 0.930 . S
C1249 C1250 1.355 . S
C1249 C1251 1.415 . S
C1250 C1249 1.355 . S
C1250 C1252 1.419 . S
C1251 C1246 1.425 . S
C1251 C1248 1.409 . S
C1251 C1249 1.415 . S
C1252 H1242 0.930 . S
C1252 C1250 1.419 . S
C1252 C1253 1.362 . S
C1253 H1243 0.930 . S
C1253 C1246 1.409 . S
C1253 C1252 1.362 . S
H1254 C1260 0.930 . S
H1255 C1263 0.930 . S
H1256 C1264 0.930 . S
H1257 C1265 0.930 . S
H1258 C1268 0.930 . S
H1259 C1269 0.930 . S
C1260 H1254 0.930 . S
C1260 C1261 1.355 . S
C1260 C1262 1.415 . S
C1261 C1260 1.355 . S
C1261 C1263 1.419 . S
C1262 C1260 1.415 . S
C1262 C1267 1.425 . S
C1262 C1269 1.409 . S
C1263 H1255 0.930 . S
C1263 C1261 1.419 . S
C1263 C1264 1.362 . S
C1264 H1256 0.930 . S
C1264 C1263 1.362 . S
C1264 C1267 1.409 . S
C1265 H1257 0.930 . S
C1265 C1266 1.355 . S
C1265 C1267 1.415 . S
C1266 C1265 1.355 . S
C1266 C1268 1.419 . S
C1267 C1262 1.425 . S
C1267 C1264 1.409 . S
C1267 C1265 1.415 . S
C1268 H1258 0.930 . S
C1268 C1266 1.419 . S
C1268 C1269 1.362 . S
C1269 H1259 0.930 . S
C1269 C1262 1.409 . S
C1269 C1268 1.362 . S
H1270 C1276 0.930 . S
H1271 C1279 0.930 . S
H1272 C1280 0.930 . S
H1273 C1281 0.930 . S
H1274 C1284 0.930 . S
H1275 C1285 0.930 . S
C1276 H1270 0.930 . S
C1276 C1277 1.355 . S
C1276 C1278 1.415 . S
C1277 C1276 1.355 . S
C1277 C1279 1.419 . S
C1278 C1276 1.415 . S
C1278 C1283 1.425 . S
C1278 C1285 1.409 . S
C1279 H1271 0.930 . S
C1279 C1277 1.419 . S
C1279 C1280 1.362 . S
C1280 H1272 0.930 . S
C1280 C1279 1.362 . S
C1280 C1283 1.409 . S
C1281 H1273 0.930 . S
C1281 C1282 1.355 . S
C1281 C1283 1.415 . S
C1282 C1281 1.355 . S
C1282 C1284 1.419 . S
C1283 C1278 1.425 . S
C1283 C1280 1.409 . S
C1283 C1281 1.415 . S
C1284 H1274 0.930 . S
C1284 C1282 1.419 . S
C1284 C1285 1.362 . S
C1285 H1275 0.930 . S
C1285 C1278 1.409 . S
C1285 C1284 1.362 . S
H1286 C1292 0.930 . S
H1287 C1295 0.930 . S
H1288 C1296 0.930 . S
H1289 C1297 0.930 . S
H1290 C1300 0.930 . S
H1291 C1301 0.930 . S
C1292 H1286 0.930 . S
C1292 C1293 1.355 . S
C1292 C1294 1.415 . S
C1293 C1292 1.355 . S
C1293 C1295 1.419 . S
C1294 C1292 1.415 . S
C1294 C1299 1.425 . S
C1294 C1301 1.409 . S
C1295 H1287 0.930 . S
C1295 C1293 1.419 . S
C1295 C1296 1.362 . S
C1296 H1288 0.930 . S
C1296 C1295 1.362 . S
C1296 C1299 1.409 . S
C1297 H1289 0.930 . S
C1297 C1298 1.355 . S
C1297 C1299 1.415 . S
C1298 C1297 1.355 . S
C1298 C1300 1.419 . S
C1299 C1294 1.425 . S
C1299 C1296 1.409 . S
C1299 C1297 1.415 . S
C1300 H1290 0.930 . S
C1300 C1298 1.419 . S
C1300 C1301 1.362 . S
C1301 H1291 0.930 . S
C1301 C1294 1.409 . S
C1301 C1300 1.362 . S
H1302 C1308 0.930 . S
H1303 C1311 0.930 . S
H1304 C1312 0.930 . S
H1305 C1313 0.930 . S
H1306 C1316 0.930 . S
H1307 C1317 0.930 . S
C1308 H1302 0.930 . S
C1308 C1309 1.355 . S
C1308 C1310 1.415 . S
C1309 C1308 1.355 . S
C1309 C1311 1.419 . S
C1310 C1308 1.415 . S
C1310 C1315 1.425 . S
C1310 C1317 1.409 . S
C1311 H1303 0.930 . S
C1311 C1309 1.419 . S
C1311 C1312 1.362 . S
C1312 H1304 0.930 . S
C1312 C1311 1.362 . S
C1312 C1315 1.409 . S
C1313 H1305 0.930 . S
C1313 C1314 1.355 . S
C1313 C1315 1.415 . S
C1314 C1313 1.355 . S
C1314 C1316 1.419 . S
C1315 C1310 1.425 . S
C1315 C1312 1.409 . S
C1315 C1313 1.415 . S
C1316 H1306 0.930 . S
C1316 C1314 1.419 . S
C1316 C1317 1.362 . S
C1317 H1307 0.930 . S
C1317 C1310 1.409 . S
C1317 C1316 1.362 . S
H1318 C1324 0.930 . S
H1319 C1327 0.930 . S
H1320 C1328 0.930 . S
H1321 C1329 0.930 . S
H1322 C1332 0.930 . S
H1323 C1333 0.930 . S
C1324 H1318 0.930 . S
C1324 C1325 1.355 . S
C1324 C1326 1.415 . S
C1325 C1324 1.355 . S
C1325 C1327 1.419 . S
C1326 C1324 1.415 . S
C1326 C1331 1.425 . S
C1326 C1333 1.409 . S
C1327 H1319 0.930 . S
C1327 C1325 1.419 . S
C1327 C1328 1.362 . S
C1328 H1320 0.930 . S
C1328 C1327 1.362 . S
C1328 C1331 1.409 . S
C1329 H1321 0.930 . S
C1329 C1330 1.355 . S
C1329 C1331 1.415 . S
C1330 C1329 1.355 . S
C1330 C1332 1.419 . S
C1331 C1326 1.425 . S
C1331 C1328 1.409 . S
C1331 C1329 1.415 . S
C1332 H1322 0.930 . S
C1332 C1330 1.419 . S
C1332 C1333 1.362 . S
C1333 H1323 0.930 . S
C1333 C1326 1.409 . S
C1333 C1332 1.362 . S
H1334 C1340 0.930 . S
H1335 C1343 0.930 . S
H1336 C1344 0.930 . S
H1337 C1345 0.930 . S
H1338 C1348 0.930 . S
H1339 C1349 0.930 . S
C1340 H1334 0.930 . S
C1340 C1341 1.355 . S
C1340 C1342 1.415 . S
C1341 C1340 1.355 . S
C1341 C1343 1.419 . S
C1342 C1340 1.415 . S
C1342 C1347 1.425 . S
C1342 C1349 1.409 . S
C1343 H1335 0.930 . S
C1343 C1341 1.419 . S
C1343 C1344 1.362 . S
C1344 H1336 0.930 . S
C1344 C1343 1.362 . S
C1344 C1347 1.409 . S
C1345 H1337 0.930 . S
C1345 C1346 1.355 . S
C1345 C1347 1.415 . S
C1346 C1345 1.355 . S
C1346 C1348 1.419 . S
C1347 C1342 1.425 . S
C1347 C1344 1.409 . S
C1347 C1345 1.415 . S
C1348 H1338 0.930 . S
C1348 C1346 1.419 . S
C1348 C1349 1.362 . S
C1349 H1339 0.930 . S
C1349 C1342 1.409 . S
C1349 C1348 1.362 . S
H1350 C1356 0.930 . S
H1351 C1359 0.930 . S
H1352 C1360 0.930 . S
H1353 C1361 0.930 . S
H1354 C1364 0.930 . S
H1355 C1365 0.930 . S
C1356 H1350 0.930 . S
C1356 C1357 1.355 . S
C1356 C1358 1.415 . S
C1357 C1356 1.355 . S
C1357 C1359 1.419 . S
C1358 C1356 1.415 . S
C1358 C1363 1.425 . S
C1358 C1365 1.409 . S
C1359 H1351 0.930 . S
C1359 C1357 1.419 . S
C1359 C1360 1.362 . S
C1360 H1352 0.930 . S
C1360 C1359 1.362 . S
C1360 C1363 1.409 . S
C1361 H1353 0.930 . S
C1361 C1362 1.355 . S
C1361 C1363 1.415 . S
C1362 C1361 1.355 . S
C1362 C1364 1.419 . S
C1363 C1358 1.425 . S
C1363 C1360 1.409 . S
C1363 C1361 1.415 . S
C1364 H1354 0.930 . S
C1364 C1362 1.419 . S
C1364 C1365 1.362 . S
C1365 H1355 0.930 . S
C1365 C1358 1.409 . S
C1365 C1364 1.362 . S
H1366 C1372 0.930 . S
H1367 C1375 0.930 . S
H1368 C1376 0.930 . S
H1369 C1377 0.930 . S
H1370 C1380 0.930 . S
H1371 C1381 0.930 . S
C1372 H1366 0.930 . S
C1372 C1373 1.355 . S
C1372 C1374 1.415 . S
C1373 C1372 1.355 . S
C1373 C1375 1.419 . S
C1374 C1372 1.415 . S
C1374 C1379 1.425 . S
C1374 C1381 1.409 . S
C1375 H1367 0.930 . S
C1375 C1373 1.419 . S
C1375 C1376 1.362 . S
C1376 H1368 0.930 . S
C1376 C1375 1.362 . S
C1376 C1379 1.409 . S
C1377 H1369 0.930 . S
C1377 C1378 1.355 . S
C1377 C1379 1.415 . S
C1378 C1377 1.355 . S
C1378 C1380 1.419 . S
C1379 C1374 1.425 . S
C1379 C1376 1.409 . S
C1379 C1377 1.415 . S
C1380 H1370 0.930 . S
C1380 C1378 1.419 . S
C1380 C1381 1.362 . S
C1381 H1371 0.930 . S
C1381 C1374 1.409 . S
C1381 C1380 1.362 . S
H1382 C1388 0.930 . S
H1383 C1391 0.930 . S
H1384 C1392 0.930 . S
H1385 C1393 0.930 . S
H1386 C1396 0.930 . S
H1387 C1397 0.930 . S
C1388 H1382 0.930 . S
C1388 C1389 1.355 1_545 S
C1388 C1390 1.415 . S
C1389 C1388 1.355 1_565 S
C1389 C1391 1.419 . S
C1390 C1388 1.415 . S
C1390 C1395 1.425 . S
C1390 C1397 1.409 . S
C1391 H1383 0.930 . S
C1391 C1389 1.419 . S
C1391 C1392 1.362 1_565 S
C1392 H1384 0.930 . S
C1392 C1391 1.362 1_545 S
C1392 C1395 1.409 . S
C1393 H1385 0.930 . S
C1393 C1394 1.355 . S
C1393 C1395 1.415 . S
C1394 C1393 1.355 . S
C1394 C1396 1.419 . S
C1395 C1390 1.425 . S
C1395 C1392 1.409 . S
C1395 C1393 1.415 . S
C1396 H1386 0.930 . S
C1396 C1394 1.419 . S
C1396 C1397 1.362 . S
C1397 H1387 0.930 . S
C1397 C1390 1.409 . S
C1397 C1396 1.362 . S
H1398 C1404 0.930 . S
H1399 C1407 0.930 . S
H1400 C1408 0.930 . S
H1401 C1409 0.930 . S
H1402 C1412 0.930 . S
H1403 C1413 0.930 . S
C1404 H1398 0.930 . S
C1404 C1405 1.355 . S
C1404 C1406 1.415 . S
C1405 C1404 1.355 . S
C1405 C1407 1.419 . S
C1406 C1404 1.415 . S
C1406 C1411 1.425 . S
C1406 C1413 1.409 . S
C1407 H1399 0.930 . S
C1407 C1405 1.419 . S
C1407 C1408 1.362 . S
C1408 H1400 0.930 . S
C1408 C1407 1.362 . S
C1408 C1411 1.409 . S
C1409 H1401 0.930 . S
C1409 C1410 1.355 . S
C1409 C1411 1.415 . S
C1410 C1409 1.355 . S
C1410 C1412 1.419 . S
C1411 C1406 1.425 . S
C1411 C1408 1.409 . S
C1411 C1409 1.415 . S
C1412 H1402 0.930 . S
C1412 C1410 1.419 . S
C1412 C1413 1.362 . S
C1413 H1403 0.930 . S
C1413 C1406 1.409 . S
C1413 C1412 1.362 . S
H1414 C1420 0.930 . S
H1415 C1423 0.930 . S
H1416 C1424 0.930 . S
H1417 C1425 0.930 . S
H1418 C1428 0.930 . S
H1419 C1429 0.930 . S
C1420 H1414 0.930 . S
C1420 C1421 1.355 . S
C1420 C1422 1.415 1_655 S
C1421 C1420 1.355 . S
C1421 C1423 1.419 1_655 S
C1422 C1420 1.415 1_455 S
C1422 C1427 1.425 . S
C1422 C1429 1.409 1_455 S
C1423 H1415 0.930 . S
C1423 C1421 1.419 1_455 S
C1423 C1424 1.362 . S
C1424 H1416 0.930 . S
C1424 C1423 1.362 . S
C1424 C1427 1.409 . S
C1425 H1417 0.930 . S
C1425 C1426 1.355 . S
C1425 C1427 1.415 . S
C1426 C1425 1.355 . S
C1426 C1428 1.419 . S
C1427 C1422 1.425 . S
C1427 C1424 1.409 . S
C1427 C1425 1.415 . S
C1428 H1418 0.930 . S
C1428 C1426 1.419 . S
C1428 C1429 1.362 1_455 S
C1429 H1419 0.930 . S
C1429 C1422 1.409 1_655 S
C1429 C1428 1.362 1_655 S
H1430 C1436 0.930 1_556 S
H1431 C1439 0.930 . S
H1432 C1440 0.930 . S
H1433 C1441 0.930 . S
H1434 C1444 0.930 . S
H1435 C1445 0.930 . S
C1436 H1430 0.930 1_554 S
C1436 C1437 1.355 . S
C1436 C1438 1.415 . S
C1437 C1436 1.355 . S
C1437 C1439 1.419 . S
C1438 C1436 1.415 . S
C1438 C1443 1.425 . S
C1438 C1445 1.409 . S
C1439 H1431 0.930 . S
C1439 C1437 1.419 . S
C1439 C1440 1.362 . S
C1440 H1432 0.930 . S
C1440 C1439 1.362 . S
C1440 C1443 1.409 . S
C1441 H1433 0.930 . S
C1441 C1442 1.355 . S
C1441 C1443 1.415 . S
C1442 C1441 1.355 . S
C1442 C1444 1.419 . S
C1443 C1438 1.425 . S
C1443 C1440 1.409 . S
C1443 C1441 1.415 . S
C1444 H1434 0.930 . S
C1444 C1442 1.419 . S
C1444 C1445 1.362 . S
C1445 H1435 0.930 . S
C1445 C1438 1.409 . S
C1445 C1444 1.362 . S
H1446 C1452 0.929 1_655 S
H1447 C1455 0.930 1_655 S
H1448 C1456 0.930 . S
H1449 C1457 0.930 . S
H1450 C1460 0.930 . S
H1451 C1461 0.930 . S
C1452 H1446 0.929 1_455 S
C1452 C1453 1.355 1_455 S
C1452 C1454 1.415 . S
C1453 C1452 1.355 1_655 S
C1453 C1455 1.419 1_655 S
C1454 C1452 1.415 . S
C1454 C1459 1.425 . S
C1454 C1461 1.409 . S
C1455 H1447 0.930 1_455 S
C1455 C1453 1.419 1_455 S
C1455 C1456 1.362 . S
C1456 H1448 0.930 . S
C1456 C1455 1.362 . S
C1456 C1459 1.409 . S
C1457 H1449 0.930 . S
C1457 C1458 1.355 . S
C1457 C1459 1.415 . S
C1458 C1457 1.355 . S
C1458 C1460 1.419 . S
C1459 C1454 1.425 . S
C1459 C1456 1.409 . S
C1459 C1457 1.415 . S
C1460 H1450 0.930 . S
C1460 C1458 1.419 . S
C1460 C1461 1.362 . S
C1461 H1451 0.930 . S
C1461 C1454 1.409 . S
C1461 C1460 1.362 . S
H1462 C1468 0.930 . S
H1463 C1471 0.930 . S
H1464 C1472 0.930 . S
H1465 C1473 0.930 . S
H1466 C1476 0.930 . S
H1467 C1477 0.930 . S
C1468 H1462 0.930 . S
C1468 C1469 1.355 . S
C1468 C1470 1.415 . S
C1469 C1468 1.355 . S
C1469 C1471 1.419 . S
C1470 C1468 1.415 . S
C1470 C1475 1.425 . S
C1470 C1477 1.409 . S
C1471 H1463 0.930 . S
C1471 C1469 1.419 . S
C1471 C1472 1.362 . S
C1472 H1464 0.930 . S
C1472 C1471 1.362 . S
C1472 C1475 1.409 . S
C1473 H1465 0.930 . S
C1473 C1474 1.355 . S
C1473 C1475 1.415 . S
C1474 C1473 1.355 . S
C1474 C1476 1.419 . S
C1475 C1470 1.425 . S
C1475 C1472 1.409 . S
C1475 C1473 1.415 . S
C1476 H1466 0.930 . S
C1476 C1474 1.419 . S
C1476 C1477 1.362 . S
C1477 H1467 0.930 . S
C1477 C1470 1.409 . S
C1477 C1476 1.362 . S
H1478 C1484 0.930 . S
H1479 C1487 0.930 . S
H1480 C1488 0.930 . S
H1481 C1489 0.930 . S
H1482 C1492 0.930 . S
H1483 C1493 0.930 . S
C1484 H1478 0.930 . S
C1484 C1485 1.355 . S
C1484 C1486 1.415 . S
C1485 C1484 1.355 . S
C1485 C1487 1.419 . S
C1486 C1484 1.415 . S
C1486 C1491 1.425 . S
C1486 C1493 1.409 . S
C1487 H1479 0.930 . S
C1487 C1485 1.419 . S
C1487 C1488 1.362 . S
C1488 H1480 0.930 . S
C1488 C1487 1.362 . S
C1488 C1491 1.409 . S
C1489 H1481 0.930 . S
C1489 C1490 1.355 . S
C1489 C1491 1.415 . S
C1490 C1489 1.355 . S
C1490 C1492 1.419 . S
C1491 C1486 1.425 . S
C1491 C1488 1.409 . S
C1491 C1489 1.415 . S
C1492 H1482 0.930 . S
C1492 C1490 1.419 . S
C1492 C1493 1.362 . S
C1493 H1483 0.930 . S
C1493 C1486 1.409 . S
C1493 C1492 1.362 . S
H1494 C1500 0.930 . S
H1495 C1503 0.930 1_554 S
H1496 C1504 0.930 . S
H1497 C1505 0.930 . S
H1498 C1508 0.930 . S
H1499 C1509 0.930 . S
C1500 H1494 0.930 . S
C1500 C1501 1.355 1_545 S
C1500 C1502 1.415 . S
C1501 C1500 1.355 1_565 S
C1501 C1503 1.419 . S
C1502 C1500 1.415 . S
C1502 C1507 1.425 . S
C1502 C1509 1.409 . S
C1503 H1495 0.930 1_556 S
C1503 C1501 1.419 . S
C1503 C1504 1.362 . S
C1504 H1496 0.930 . S
C1504 C1503 1.362 . S
C1504 C1507 1.409 1_565 S
C1505 H1497 0.930 . S
C1505 C1506 1.355 . S
C1505 C1507 1.415 . S
C1506 C1505 1.355 . S
C1506 C1508 1.419 . S
C1507 C1502 1.425 . S
C1507 C1504 1.409 1_545 S
C1507 C1505 1.415 . S
C1508 H1498 0.930 . S
C1508 C1506 1.419 . S
C1508 C1509 1.362 . S
C1509 H1499 0.930 . S
C1509 C1502 1.409 . S
C1509 C1508 1.362 . S
H1510 C1516 0.930 . S
H1511 C1519 0.930 . S
H1512 C1520 0.930 . S
H1513 C1521 0.930 1_554 S
H1514 C1524 0.930 . S
H1515 C1525 0.930 . S
C1516 H1510 0.930 . S
C1516 C1517 1.355 . S
C1516 C1518 1.415 . S
C1517 C1516 1.355 . S
C1517 C1519 1.419 . S
C1518 C1516 1.415 . S
C1518 C1523 1.425 . S
C1518 C1525 1.409 . S
C1519 H1511 0.930 . S
C1519 C1517 1.419 . S
C1519 C1520 1.362 . S
C1520 H1512 0.930 . S
C1520 C1519 1.362 . S
C1520 C1523 1.409 . S
C1521 H1513 0.930 1_556 S
C1521 C1522 1.355 . S
C1521 C1523 1.415 . S
C1522 C1521 1.355 . S
C1522 C1524 1.419 . S
C1523 C1518 1.425 . S
C1523 C1520 1.409 . S
C1523 C1521 1.415 . S
C1524 H1514 0.930 . S
C1524 C1522 1.419 . S
C1524 C1525 1.362 . S
C1525 H1515 0.930 . S
C1525 C1518 1.409 . S
C1525 C1524 1.362 . S
H1526 C1532 0.930 . S
H1527 C1535 0.930 . S
H1528 C1536 0.930 . S
H1529 C1537 0.930 . S
H1530 C1540 0.930 1_554 S
H1531 C1541 0.930 . S
C1532 H1526 0.930 . S
C1532 C1533 1.355 . S
C1532 C1534 1.415 . S
C1533 C1532 1.355 . S
C1533 C1535 1.419 . S
C1534 C1532 1.415 . S
C1534 C1539 1.425 . S
C1534 C1541 1.409 . S
C1535 H1527 0.930 . S
C1535 C1533 1.419 . S
C1535 C1536 1.362 . S
C1536 H1528 0.930 . S
C1536 C1535 1.362 . S
C1536 C1539 1.409 . S
C1537 H1529 0.930 . S
C1537 C1538 1.355 . S
C1537 C1539 1.415 . S
C1538 C1537 1.355 . S
C1538 C1540 1.419 . S
C1539 C1534 1.425 . S
C1539 C1536 1.409 . S
C1539 C1537 1.415 . S
C1540 H1530 0.930 1_556 S
C1540 C1538 1.419 . S
C1540 C1541 1.362 . S
C1541 H1531 0.930 . S
C1541 C1534 1.409 . S
C1541 C1540 1.362 . S
H1542 C1548 0.930 . S
H1543 C1551 0.930 . S
H1544 C1552 0.930 . S
H1545 C1553 0.930 . S
H1546 C1556 0.930 . S
H1547 C1557 0.930 . S
C1548 H1542 0.930 . S
C1548 C1549 1.355 . S
C1548 C1550 1.415 . S
C1549 C1548 1.355 . S
C1549 C1551 1.419 . S
C1550 C1548 1.415 . S
C1550 C1555 1.425 . S
C1550 C1557 1.409 . S
C1551 H1543 0.930 . S
C1551 C1549 1.419 . S
C1551 C1552 1.362 . S
C1552 H1544 0.930 . S
C1552 C1551 1.362 . S
C1552 C1555 1.409 . S
C1553 H1545 0.930 . S
C1553 C1554 1.355 . S
C1553 C1555 1.415 . S
C1554 C1553 1.355 . S
C1554 C1556 1.419 . S
C1555 C1550 1.425 . S
C1555 C1552 1.409 . S
C1555 C1553 1.415 . S
C1556 H1546 0.930 . S
C1556 C1554 1.419 . S
C1556 C1557 1.362 . S
C1557 H1547 0.930 . S
C1557 C1550 1.409 . S
C1557 C1556 1.362 . S
H1558 C1564 0.930 . S
H1559 C1567 0.930 . S
H1560 C1568 0.930 . S
H1561 C1569 0.930 . S
H1562 C1572 0.930 . S
H1563 C1573 0.930 . S
C1564 H1558 0.930 . S
C1564 C1565 1.355 . S
C1564 C1566 1.415 . S
C1565 C1564 1.355 . S
C1565 C1567 1.419 . S
C1566 C1564 1.415 . S
C1566 C1571 1.425 . S
C1566 C1573 1.409 . S
C1567 H1559 0.930 . S
C1567 C1565 1.419 . S
C1567 C1568 1.362 . S
C1568 H1560 0.930 . S
C1568 C1567 1.362 . S
C1568 C1571 1.409 . S
C1569 H1561 0.930 . S
C1569 C1570 1.355 . S
C1569 C1571 1.415 . S
C1570 C1569 1.355 . S
C1570 C1572 1.419 . S
C1571 C1566 1.425 . S
C1571 C1568 1.409 . S
C1571 C1569 1.415 . S
C1572 H1562 0.930 . S
C1572 C1570 1.419 . S
C1572 C1573 1.362 . S
C1573 H1563 0.930 . S
C1573 C1566 1.409 . S
C1573 C1572 1.362 . S
H1574 C1580 0.930 . S
H1575 C1583 0.930 . S
H1576 C1584 0.930 . S
H1577 C1585 0.930 . S
H1578 C1588 0.930 . S
H1579 C1589 0.930 . S
C1580 H1574 0.930 . S
C1580 C1581 1.355 . S
C1580 C1582 1.415 . S
C1581 C1580 1.355 . S
C1581 C1583 1.419 . S
C1582 C1580 1.415 . S
C1582 C1587 1.425 . S
C1582 C1589 1.409 . S
C1583 H1575 0.930 . S
C1583 C1581 1.419 . S
C1583 C1584 1.362 . S
C1584 H1576 0.930 . S
C1584 C1583 1.362 . S
C1584 C1587 1.409 . S
C1585 H1577 0.930 . S
C1585 C1586 1.355 . S
C1585 C1587 1.415 . S
C1586 C1585 1.355 . S
C1586 C1588 1.419 . S
C1587 C1582 1.425 . S
C1587 C1584 1.409 . S
C1587 C1585 1.415 . S
C1588 H1578 0.930 . S
C1588 C1586 1.419 . S
C1588 C1589 1.362 . S
C1589 H1579 0.930 . S
C1589 C1582 1.409 . S
C1589 C1588 1.362 . S
H1590 C1596 0.930 . S
H1591 C1599 0.930 . S
H1592 C1600 0.930 . S
H1593 C1601 0.930 . S
H1594 C1604 0.930 . S
H1595 C1605 0.930 . S
C1596 H1590 0.930 . S
C1596 C1597 1.355 . S
C1596 C1598 1.415 . S
C1597 C1596 1.355 . S
C1597 C1599 1.419 . S
C1598 C1596 1.415 . S
C1598 C1603 1.425 . S
C1598 C1605 1.409 . S
C1599 H1591 0.930 . S
C1599 C1597 1.419 . S
C1599 C1600 1.362 . S
C1600 H1592 0.930 . S
C1600 C1599 1.362 . S
C1600 C1603 1.409 . S
C1601 H1593 0.930 . S
C1601 C1602 1.355 . S
C1601 C1603 1.415 . S
C1602 C1601 1.355 . S
C1602 C1604 1.419 . S
C1603 C1598 1.425 . S
C1603 C1600 1.409 . S
C1603 C1601 1.415 . S
C1604 H1594 0.930 . S
C1604 C1602 1.419 . S
C1604 C1605 1.362 . S
C1605 H1595 0.930 . S
C1605 C1598 1.409 . S
C1605 C1604 1.362 . S
H1606 C1612 0.930 . S
H1607 C1615 0.930 . S
H1608 C1616 0.930 . S
H1609 C1617 0.930 . S
H1610 C1620 0.930 . S
H1611 C1621 0.930 . S
C1612 H1606 0.930 . S
C1612 C1613 1.355 . S
C1612 C1614 1.415 . S
C1613 C1612 1.355 . S
C1613 C1615 1.419 . S
C1614 C1612 1.415 . S
C1614 C1619 1.425 . S
C1614 C1621 1.409 . S
C1615 H1607 0.930 . S
C1615 C1613 1.419 . S
C1615 C1616 1.362 . S
C1616 H1608 0.930 . S
C1616 C1615 1.362 . S
C1616 C1619 1.409 . S
C1617 H1609 0.930 . S
C1617 C1618 1.355 . S
C1617 C1619 1.415 . S
C1618 C1617 1.355 . S
C1618 C1620 1.419 . S
C1619 C1614 1.425 . S
C1619 C1616 1.409 . S
C1619 C1617 1.415 . S
C1620 H1610 0.930 . S
C1620 C1618 1.419 . S
C1620 C1621 1.362 . S
C1621 H1611 0.930 . S
C1621 C1614 1.409 . S
C1621 C1620 1.362 . S
H1622 C1628 0.930 . S
H1623 C1631 0.930 . S
H1624 C1632 0.930 . S
H1625 C1633 0.930 . S
H1626 C1636 0.930 . S
H1627 C1637 0.930 . S
C1628 H1622 0.930 . S
C1628 C1629 1.355 . S
C1628 C1630 1.415 . S
C1629 C1628 1.355 . S
C1629 C1631 1.419 . S
C1630 C1628 1.415 . S
C1630 C1635 1.425 . S
C1630 C1637 1.409 . S
C1631 H1623 0.930 . S
C1631 C1629 1.419 . S
C1631 C1632 1.362 . S
C1632 H1624 0.930 . S
C1632 C1631 1.362 . S
C1632 C1635 1.409 . S
C1633 H1625 0.930 . S
C1633 C1634 1.355 . S
C1633 C1635 1.415 . S
C1634 C1633 1.355 . S
C1634 C1636 1.419 . S
C1635 C1630 1.425 . S
C1635 C1632 1.409 . S
C1635 C1633 1.415 . S
C1636 H1626 0.930 . S
C1636 C1634 1.419 . S
C1636 C1637 1.362 . S
C1637 H1627 0.930 . S
C1637 C1630 1.409 . S
C1637 C1636 1.362 . S
C1069 C180 1.343 . S
C1074 C3 1.343 . S
C1085 C241 1.345 . S
C1090 C64 1.345 . S
C1101 C121 1.332 . S
C1106 C298 1.332 . S
C1117 C123 1.337 . S
C1122 C300 1.337 . S
C1133 C5 1.326 . S
C1138 C182 1.326 . S
C1149 C239 1.335 . S
C1154 C62 1.335 . S
C1165 C534 1.311 . S
C1170 C359 1.327 . S
C1181 C418 1.340 . S
C1186 C593 1.343 . S
C1197 C477 1.320 . S
C1202 C652 1.303 . S
C1213 C654 1.343 . S
C1218 C475 1.346 . S
C1229 C536 1.321 . S
C1234 C357 1.304 . S
C1245 C595 1.308 . S
C1250 C416 1.311 . S
C1261 C711 1.345 . S
C1266 C888 1.345 . S
C1277 C772 1.325 . S
C1282 C949 1.325 . S
C1293 C829 1.310 . S
C1298 C1006 1.310 . S
C1309 C1008 1.318 . S
C1314 C831 1.318 . S
C1325 C890 1.335 . S
C1330 C713 1.335 . S
C1341 C947 1.321 . S
C1346 C770 1.321 . S
C1357 C33 1.529 . S
C1362 C446 1.513 . S
C1373 C111 1.505 . S
C1378 C505 1.514 . S
C1389 C387 1.530 . S
C1394 C151 1.527 . S
C1405 C170 1.527 . S
C1410 C819 1.522 1_554 S
C1421 C859 1.504 1_554 S
C1426 C52 1.513 . S
C1437 C741 1.502 1_554 S
C1442 C92 1.506 . S
C1453 C977 1.531 . S
C1458 C210 1.521 . S
C1469 C288 1.522 . S
C1474 C1055 1.526 . S
C1485 C937 1.516 . S
C1490 C328 1.527 . S
C1501 C623 1.527 1_556 S
C1506 C347 1.515 . S
C1517 C229 1.503 . S
C1522 C682 1.504 1_556 S
C1533 C269 1.514 . S
C1538 C564 1.529 1_556 S
C1549 C406 1.522 . S
C1554 C800 1.510 . S
C1565 C465 1.504 . S
C1570 C878 1.507 . S
C1581 C524 1.503 . S
C1586 C760 1.505 . S
C1597 C996 1.528 . S
C1602 C701 1.524 . S
C1613 C1036 1.514 . S
C1618 C583 1.505 . S
C1629 C642 1.514 . S
C1634 C918 1.505 . S
