# Generated by pormake.
# Topology sow, (4)-cn, num edge types: 1
# Building blocks:
#     Node 0, Type 0, BuildingBlock: MUDLON_clean_sbu_0, # of connection points: 4
#     Node 1, Type 0, BuildingBlock: MUDLON_clean_sbu_0, # of connection points: 4
#     Node 2, Type 0, BuildingBlock: MUDLON_clean_sbu_0, # of connection points: 4
#     Node 3, Type 0, BuildingBlock: MUDLON_clean_sbu_0, # of connection points: 4
#     Node 4, Type 0, BuildingBlock: MUDLON_clean_sbu_0, # of connection points: 4
#     Node 5, Type 0, BuildingBlock: MUDLON_clean_sbu_0, # of connection points: 4
#     Node 6, Type 0, BuildingBlock: MUDLON_clean_sbu_0, # of connection points: 4
#     Node 7, Type 0, BuildingBlock: MUDLON_clean_sbu_0, # of connection points: 4
#     Edge 8, Type (0, 0), BuildingBlock: FUNLAD_clean_linker_1, # of connection points: 2
#     Edge 9, Type (0, 0), BuildingBlock: FUNLAD_clean_linker_1, # of connection points: 2
#     Edge 10, Type (0, 0), BuildingBlock: FUNLAD_clean_linker_1, # of connection points: 2
#     Edge 11, Type (0, 0), BuildingBlock: FUNLAD_clean_linker_1, # of connection points: 2
#     Edge 12, Type (0, 0), BuildingBlock: FUNLAD_clean_linker_1, # of connection points: 2
#     Edge 13, Type (0, 0), BuildingBlock: FUNLAD_clean_linker_1, # of connection points: 2
#     Edge 14, Type (0, 0), BuildingBlock: FUNLAD_clean_linker_1, # of connection points: 2
#     Edge 15, Type (0, 0), BuildingBlock: FUNLAD_clean_linker_1, # of connection points: 2
#     Edge 16, Type (0, 0), BuildingBlock: FUNLAD_clean_linker_1, # of connection points: 2
#     Edge 17, Type (0, 0), BuildingBlock: FUNLAD_clean_linker_1, # of connection points: 2
#     Edge 18, Type (0, 0), BuildingBlock: FUNLAD_clean_linker_1, # of connection points: 2
#     Edge 19, Type (0, 0), BuildingBlock: FUNLAD_clean_linker_1, # of connection points: 2
#     Edge 20, Type (0, 0), BuildingBlock: FUNLAD_clean_linker_1, # of connection points: 2
#     Edge 21, Type (0, 0), BuildingBlock: FUNLAD_clean_linker_1, # of connection points: 2
#     Edge 22, Type (0, 0), BuildingBlock: FUNLAD_clean_linker_1, # of connection points: 2
#     Edge 23, Type (0, 0), BuildingBlock: FUNLAD_clean_linker_1, # of connection points: 2
# Relax obj value: 0.167
# Max RMSD: 0.252
# Mean RMSD: 0.252
data_MOF--net-sow--node1-MUDLON_clean_sbu_0--edge1-FUNLAD_clean_linker_1
_symmetry_space_group_name_H-M    P1
_symmetry_Int_Tables_number       1
_symmetry_cell_setting            triclinic
loop_
_symmetry_equiv_pos_as_xyz
'x, y, z'
_cell_length_a     42.545074
_cell_length_b     25.128704
_cell_length_c     25.568243
_cell_angle_alpha  89.799643
_cell_angle_beta   90.305985
_cell_angle_gamma 89.909675
loop_
_atom_site_label
_atom_site_type_symbol
_atom_site_fract_x
_atom_site_fract_y
_atom_site_fract_z
_atom_type_partial_charge
Mg0 Mg 0.16107 0.17676 0.09913 0.0
C1 C 0.1033 0.24073 0.12479 0.0
O2 O 0.09161 0.21044 0.08773 0.0
C3 C 0.18778 0.24562 1.00818 0.0
O4 O 0.1739 0.28633 0.03046 0.0
C5 C 0.11875 0.108 0.03446 0.0
O6 O 0.12867 0.14173 0.99891 0.0
O7 O 0.12939 0.11126 0.08095 0.0
O8 O 0.13258 0.23871 0.13454 0.0
O9 O 0.19722 0.15563 0.15605 0.0
C10 C 0.19353 0.16711 0.20399 0.0
O11 O 0.16665 0.18745 0.21928 0.0
O12 O 0.18554 0.19947 0.02817 0.0
Mg13 Mg 0.37772 0.30157 0.60251 0.0
C14 C 0.43766 0.27706 0.65861 0.0
O15 O 0.44156 0.32756 0.64705 0.0
C16 C 0.35325 0.2564 0.49893 0.0
O17 O 0.37617 0.28487 0.47913 0.0
C18 C 0.42712 0.35759 0.53772 0.0
O19 O 0.43701 0.30829 0.53277 0.0
O20 O 0.40206 0.36672 0.56312 0.0
O21 O 0.41239 0.25394 0.64501 0.0
O22 O 0.34531 0.33177 0.66084 0.0
C23 C 0.33608 0.29842 0.69489 0.0
O24 O 0.34679 0.24938 0.6931 0.0
O25 O 0.34946 0.25504 0.54816 0.0
Mg26 Mg 0.67194 0.29937 0.94176 0.0
C27 C 0.64027 0.2184 0.87133 0.0
O28 O 0.66851 0.21522 0.85119 0.0
C29 C 0.68364 0.25026 0.04847 0.0
O30 O 0.6528 0.24939 0.04809 0.0
C31 C 0.61794 0.36471 0.98138 0.0
O32 O 0.60625 0.31654 0.98567 0.0
O33 O 0.64585 0.37048 0.96462 0.0
O34 O 0.63609 0.24592 0.91234 0.0
O35 O 0.70208 0.31649 0.87499 0.0
C36 C 0.72826 0.29315 0.86824 0.0
O37 O 0.7388 0.26012 0.90424 0.0
O38 O 0.69814 0.26788 1.00863 0.0
Mg39 Mg 0.88803 0.19485 0.44277 0.0
C40 C 0.91441 0.27801 0.36883 0.0
O41 O 0.88515 0.27973 0.35245 0.0
C42 C 0.87156 0.26087 0.53957 0.0
O43 O 0.89907 0.28247 0.53049 0.0
C44 C 0.93579 0.13793 0.50822 0.0
O45 O 0.93351 0.18334 0.53305 0.0
O46 O 0.91811 0.12942 0.46882 0.0
O47 O 0.92129 0.25054 0.40917 0.0
O48 O 0.85727 0.17155 0.37826 0.0
C49 C 0.83145 0.19596 0.37061 0.0
O50 O 0.82247 0.23219 0.40434 0.0
O51 O 0.86113 0.22522 0.50885 0.0
Mg52 Mg 0.88456 0.79623 0.92876 0.0
C53 C 0.82828 0.80221 0.85786 0.0
O54 O 0.81906 0.76514 0.89072 0.0
C55 C 0.92711 0.85368 1.00556 0.0
O56 O 0.9193 0.813 0.03506 0.0
C57 C 0.845 0.78882 0.0261 0.0
O58 O 0.85208 0.83967 0.02773 0.0
O59 O 0.85558 0.76035 0.98919 0.0
O60 O 0.8545 0.8251 0.86562 0.0
O61 O 0.91503 0.73892 0.89066 0.0
C62 C 0.94348 0.73322 0.90484 0.0
O63 O 0.95361 0.75774 0.94694 0.0
O64 O 0.91518 0.85821 0.95998 0.0
Mg65 Mg 0.65588 0.70676 0.43161 0.0
C66 C 0.69239 0.70163 0.33166 0.0
O67 O 0.66359 0.70032 0.31286 0.0
C68 C 0.60552 0.63015 0.4599 0.0
O69 O 0.59211 0.6761 0.46986 0.0
C70 C 0.69808 0.75043 0.5162 0.0
O71 O 0.71884 0.74343 0.47899 0.0
O72 O 0.66935 0.73995 0.50709 0.0
O73 O 0.6966 0.70198 0.38087 0.0
O74 O 0.62155 0.75401 0.38903 0.0
C75 C 0.60094 0.785 0.40798 0.0
O76 O 0.60026 0.79351 0.45857 0.0
O77 O 0.63371 0.62955 0.44361 0.0
Mg78 Mg 0.37871 0.69335 0.1022 0.0
C79 C 0.32545 0.71102 0.17583 0.0
O80 O 0.32593 0.75686 0.15095 0.0
C81 C 0.43587 0.62903 0.07306 0.0
O82 O 0.44794 0.67707 0.0729 0.0
C83 C 0.36986 0.72769 0.98894 0.0
O84 O 0.39942 0.71294 0.98664 0.0
O85 O 0.35552 0.72521 0.03242 0.0
O86 O 0.34433 0.6745 0.16204 0.0
O87 O 0.41024 0.74798 0.14149 0.0
C88 C 0.42846 0.78261 0.12179 0.0
O89 O 0.42799 0.79136 0.07116 0.0
O90 O 0.40683 0.62314 0.08324 0.0
Mg91 Mg 0.1622 0.7938 0.60282 0.0
C92 C 0.21985 0.79333 0.67167 0.0
O93 O 0.22716 0.75507 0.63896 0.0
C94 C 0.10114 0.83981 0.56767 0.0
O95 O 0.09539 0.78854 0.56694 0.0
C96 C 0.17407 0.7653 0.48956 0.0
O97 O 0.14409 0.77716 0.48613 0.0
O98 O 0.18779 0.76739 0.53384 0.0
O99 O 0.19446 0.81915 0.66452 0.0
O100 O 0.13285 0.73278 0.63778 0.0
C101 C 0.14026 0.7076 0.67928 0.0
O102 O 0.16896 0.71133 0.69789 0.0
O103 O 0.12842 0.85591 0.58095 0.0
H104 H 0.30334 0.35421 0.73389 0.0
C105 C 0.31284 0.31404 0.73477 0.0
H106 H 0.31156 0.23855 0.7711 0.0
H107 H 0.25081 0.36875 0.96773 0.0
H108 H 0.30057 0.41541 0.97361 0.0
H109 H 0.34053 0.40569 0.90474 0.0
H110 H 0.33095 0.34948 0.82948 0.0
C111 C 0.30289 0.27925 0.77114 0.0
C112 C 0.27757 0.29204 0.80905 0.0
C113 C 0.28352 0.32551 0.85256 0.0
C114 C 0.26059 0.33067 0.89263 0.0
C115 C 0.26735 0.36341 0.93621 0.0
C116 C 0.29584 0.39039 0.9401 0.0
C117 C 0.31833 0.38496 0.90129 0.0
C118 C 0.31246 0.3527 0.85813 0.0
H119 H 0.21839 0.21663 0.94556 0.0
C120 C 0.20685 0.25203 0.96064 0.0
H121 H 0.20046 0.33493 0.9509 0.0
H122 H 0.25739 0.22973 0.72802 0.0
H123 H 0.20658 0.18662 0.72019 0.0
H124 H 0.1664 0.19754 0.78855 0.0
H125 H 0.17692 0.25124 0.86542 0.0
C126 C 0.21094 0.2987 0.93579 0.0
C127 C 0.23205 0.30174 0.88943 0.0
C128 C 0.22513 0.27182 0.84386 0.0
C129 C 0.24807 0.26639 0.80401 0.0
C130 C 0.24084 0.23507 0.75959 0.0
C131 C 0.21172 0.2103 0.75447 0.0
C132 C 0.18911 0.21639 0.79298 0.0
C133 C 0.19555 0.24692 0.83711 0.0
H134 H 0.24324 0.15163 0.22457 0.0
C135 C 0.22086 0.16541 0.2398 0.0
H136 H 0.19769 0.20237 0.30281 0.0
H137 H 0.33113 0.13187 0.4198 0.0
H138 H 0.31228 0.04103 0.41226 0.0
H139 H 0.26389 0.02084 0.36263 0.0
H140 H 0.23419 0.09133 0.31972 0.0
C141 C 0.2196 0.18607 0.28815 0.0
C142 C 0.24873 0.1973 0.31861 0.0
C143 C 0.26547 0.15579 0.34416 0.0
C144 C 0.29292 0.16764 0.37401 0.0
C145 C 0.30969 0.12527 0.39788 0.0
C146 C 0.29921 0.07294 0.39362 0.0
C147 C 0.272 0.06155 0.36557 0.0
C148 C 0.25522 0.10234 0.34103 0.0
H149 H 0.30888 0.21394 0.48295 0.0
C150 C 0.32938 0.23173 0.46469 0.0
H151 H 0.35069 0.25422 0.39368 0.0
H152 H 0.22279 0.28593 0.27277 0.0
H153 H 0.24125 0.3767 0.28101 0.0
H154 H 0.28801 0.39759 0.33448 0.0
H155 H 0.31667 0.32786 0.3798 0.0
C156 C 0.33083 0.23484 0.41229 0.0
C157 C 0.30316 0.22111 0.37905 0.0
C158 C 0.28661 0.26249 0.35289 0.0
C159 C 0.2594 0.25057 0.32267 0.0
C160 C 0.24341 0.2927 0.29676 0.0
C161 C 0.25378 0.34505 0.30106 0.0
C162 C 0.28012 0.3568 0.3311 0.0
C163 C 0.2964 0.31625 0.35684 0.0
H164 H 0.82486 0.16367 0.2909 0.0
C165 C 0.81456 0.18939 0.32032 0.0
H166 H 0.77902 0.24519 0.33712 0.0
H167 H 0.7547 0.33025 0.11127 0.0
H168 H 0.78153 0.40486 0.15111 0.0
H169 H 0.80654 0.39605 0.23795 0.0
H170 H 0.80462 0.3127 0.28566 0.0
C171 C 0.78867 0.21788 0.30849 0.0
C172 C 0.77568 0.22073 0.25421 0.0
C173 C 0.7775 0.26953 0.22628 0.0
C174 C 0.76364 0.2743 0.1757 0.0
C175 C 0.7652 0.32399 0.14942 0.0
C176 C 0.7805 0.36728 0.17187 0.0
C177 C 0.79453 0.36235 0.22079 0.0
C178 C 0.79313 0.31423 0.24784 0.0
H179 H 0.6868 0.22487 0.13096 0.0
C180 C 0.70068 0.23517 0.09683 0.0
H181 H 0.74628 0.24874 0.06766 0.0
H182 H 0.76684 0.12196 0.29739 0.0
H183 H 0.74272 0.04577 0.25536 0.0
H184 H 0.72191 0.05241 0.16534 0.0
H185 H 0.72457 0.13565 0.11712 0.0
C186 C 0.73219 0.23679 0.10101 0.0
C187 C 0.74819 0.23012 0.15274 0.0
C188 C 0.7475 0.18066 0.17972 0.0
C189 C 0.76072 0.17621 0.2309 0.0
C190 C 0.75819 0.12712 0.25786 0.0
C191 C 0.74425 0.08311 0.23428 0.0
C192 C 0.73243 0.08689 0.18365 0.0
C193 C 0.73395 0.13499 0.15652 0.0
H194 H 0.73204 0.31912 0.78589 0.0
C195 C 0.74422 0.29805 0.81721 0.0
H196 H 0.7838 0.25218 0.83836 0.0
H197 H 0.81736 0.1586 0.62003 0.0
H198 H 0.8012 0.08022 0.66796 0.0
H199 H 0.77681 0.08797 0.75486 0.0
H200 H 0.76886 0.17416 0.79465 0.0
C201 C 0.772 0.27452 0.80752 0.0
C202 C 0.78516 0.27117 0.75352 0.0
C203 C 0.78903 0.22043 0.73014 0.0
C204 C 0.80224 0.21606 0.67927 0.0
C205 C 0.80677 0.16462 0.6579 0.0
C206 C 0.79769 0.11911 0.68509 0.0
C207 C 0.78403 0.12346 0.73405 0.0
C208 C 0.77972 0.17332 0.75651 0.0
H209 H 0.86758 0.29598 0.61821 0.0
C210 C 0.85487 0.27376 0.58849 0.0
H211 H 0.81292 0.23397 0.56888 0.0
H212 H 0.7843 0.37427 0.78834 0.0
H213 H 0.79652 0.45323 0.73775 0.0
H214 H 0.81358 0.44615 0.64599 0.0
H215 H 0.8194 0.35998 0.60481 0.0
C216 C 0.82547 0.25689 0.59827 0.0
C217 C 0.81088 0.26251 0.65108 0.0
C218 C 0.80582 0.3134 0.6736 0.0
C219 C 0.79398 0.31765 0.72549 0.0
C220 C 0.79158 0.36877 0.74829 0.0
C221 C 0.79876 0.41446 0.7198 0.0
C222 C 0.80852 0.41047 0.66822 0.0
C223 C 0.81203 0.36068 0.64519 0.0
H224 H 0.81227 0.72765 0.05545 0.0
C225 C 0.82328 0.76551 0.06462 0.0
H226 H 0.8273 0.82835 0.11853 0.0
H227 H 0.69554 0.80814 0.22385 0.0
H228 H 0.69295 0.89561 0.18395 0.0
H229 H 0.7348 0.92664 0.12492 0.0
H230 H 0.77957 0.87063 0.10579 0.0
C231 C 0.81638 0.79035 0.10961 0.0
C232 C 0.79128 0.7707 0.1453 0.0
C233 C 0.76484 0.80363 0.15515 0.0
C234 C 0.74034 0.7853 0.18823 0.0
C235 C 0.71458 0.81957 0.19832 0.0
C236 C 0.7128 0.87001 0.17576 0.0
C237 C 0.73638 0.8875 0.1426 0.0
C238 C 0.76207 0.85489 0.13214 0.0
H239 H 0.74261 0.71433 0.31407 0.0
C240 C 0.71945 0.70941 0.29659 0.0
H241 H 0.69254 0.71242 0.22708 0.0
H242 H 0.84089 0.70081 0.14218 0.0
H243 H 0.84271 0.61235 0.18014 0.0
H244 H 0.798 0.57749 0.23077 0.0
H245 H 0.75151 0.63148 0.24478 0.0
C246 C 0.71581 0.71506 0.24461 0.0
C247 C 0.74202 0.73375 0.21085 0.0
C248 C 0.76842 0.70079 0.20112 0.0
C249 C 0.79348 0.71982 0.16949 0.0
C250 C 0.82048 0.68742 0.16347 0.0
C251 C 0.82197 0.63669 0.1855 0.0
C252 C 0.79685 0.61715 0.21419 0.0
C253 C 0.77035 0.64866 0.22212 0.0
H254 H 0.6906 0.76771 0.60003 0.0
C255 C 0.70827 0.76487 0.56961 0.0
H256 H 0.7568 0.76529 0.55252 0.0
H257 H 0.76335 0.88046 0.78406 0.0
H258 H 0.74156 0.95784 0.73971 0.0
H259 H 0.72352 0.95227 0.64802 0.0
H260 H 0.72689 0.86911 0.60021 0.0
C261 C 0.73883 0.77025 0.58215 0.0
C262 C 0.74947 0.77433 0.63751 0.0
C263 C 0.74772 0.82334 0.66463 0.0
C264 C 0.75887 0.82687 0.71714 0.0
C265 C 0.75603 0.87592 0.74375 0.0
C266 C 0.74341 0.92056 0.71884 0.0
C267 C 0.73319 0.9174 0.66723 0.0
C268 C 0.73522 0.86944 0.64026 0.0
H269 H 0.82214 0.83582 0.77844 0.0
C270 C 0.81124 0.81089 0.80805 0.0
H271 H 0.77428 0.75799 0.82541 0.0
H272 H 0.75569 0.67422 0.59685 0.0
H273 H 0.77843 0.59728 0.64033 0.0
H274 H 0.79891 0.6037 0.73049 0.0
H275 H 0.79669 0.68693 0.77778 0.0
C276 C 0.78468 0.78435 0.79652 0.0
C277 C 0.77227 0.78156 0.74199 0.0
C278 C 0.77386 0.73247 0.7148 0.0
C279 C 0.76245 0.7289 0.66258 0.0
C280 C 0.76426 0.67934 0.63643 0.0
C281 C 0.77723 0.63479 0.66093 0.0
C282 C 0.78872 0.63839 0.7117 0.0
C283 C 0.78718 0.6865 0.73847 0.0
H284 H 0.36654 0.74244 0.90401 0.0
C285 C 0.35322 0.74273 0.94017 0.0
H286 H 0.30831 0.75135 0.97389 0.0
H287 H 0.29271 0.85696 0.73402 0.0
H288 H 0.32656 0.92763 0.7657 0.0
H289 H 0.35033 0.92287 0.85381 0.0
H290 H 0.34073 0.84706 0.91059 0.0
C291 C 0.32221 0.75311 0.93839 0.0
C292 C 0.30538 0.75936 0.88736 0.0
C293 C 0.31049 0.80465 0.85521 0.0
C294 C 0.29597 0.80819 0.80495 0.0
C295 C 0.3025 0.85285 0.77295 0.0
C296 C 0.32197 0.89362 0.79059 0.0
C297 C 0.33542 0.89088 0.84017 0.0
C298 C 0.32984 0.84702 0.87226 0.0
H299 H 0.22999 0.83026 0.74843 0.0
C300 C 0.23798 0.80057 0.72067 0.0
H301 H 0.26904 0.73661 0.70721 0.0
H302 H 0.28935 0.66826 0.93999 0.0
H303 H 0.25367 0.59964 0.90997 0.0
H304 H 0.2273 0.60705 0.8241 0.0
H305 H 0.23661 0.68297 0.76758 0.0
C306 C 0.26192 0.76802 0.73376 0.0
C307 C 0.27576 0.76701 0.78747 0.0
C308 C 0.26971 0.72274 0.8205 0.0
C309 C 0.28454 0.71888 0.87038 0.0
C310 C 0.27848 0.67363 0.90199 0.0
C311 C 0.25806 0.63385 0.88522 0.0
C312 C 0.24325 0.63797 0.83685 0.0
C313 C 0.2489 0.68175 0.80472 0.0
H314 H 0.3101 0.66897 0.24737 0.0
C315 C 0.30618 0.7041 0.22327 0.0
H316 H 0.28239 0.77733 0.21549 0.0
H317 H 0.20362 0.65295 0.40635 0.0
H318 H 0.19198 0.58382 0.34316 0.0
H319 H 0.21484 0.58665 0.25474 0.0
H320 H 0.24998 0.65786 0.22936 0.0
C321 C 0.28568 0.74154 0.2389 0.0
C322 C 0.27047 0.73988 0.29136 0.0
C323 C 0.24889 0.69904 0.30471 0.0
C324 C 0.23437 0.69888 0.35479 0.0
C325 C 0.21426 0.65616 0.36814 0.0
C326 C 0.20752 0.61605 0.33236 0.0
C327 C 0.2205 0.61753 0.28265 0.0
C328 C 0.24087 0.65849 0.26872 0.0
H329 H 0.17879 0.75574 0.40439 0.0
C330 C 0.19163 0.75386 0.44124 0.0
H331 H 0.23609 0.74426 0.47711 0.0
H332 H 0.31192 0.82259 0.27982 0.0
H333 H 0.32177 0.89339 0.34175 0.0
H334 H 0.29427 0.89581 0.42635 0.0
H335 H 0.25701 0.82707 0.44978 0.0
C336 C 0.22272 0.74431 0.44078 0.0
C337 C 0.24016 0.74099 0.39041 0.0
C338 C 0.26183 0.78163 0.37719 0.0
C339 C 0.27714 0.78088 0.32785 0.0
C340 C 0.29905 0.82164 0.31617 0.0
C341 C 0.30506 0.86251 0.35148 0.0
C342 C 0.28962 0.86382 0.39915 0.0
C343 C 0.26828 0.82399 0.4121 0.0
H344 H 0.09293 0.28582 0.19664 0.0
C345 C 0.08232 0.26658 0.16287 0.0
H346 H 0.04047 0.23719 0.12926 0.0
H347 H 0.97717 0.18261 0.34298 0.0
H348 H 0.9946 0.09551 0.31537 0.0
H349 H 0.0295 0.08534 0.23933 0.0
H350 H 0.04696 0.16229 0.19028 0.0
C351 C 0.05109 0.25888 0.16152 0.0
C352 C 0.03164 0.26655 0.20906 0.0
C353 C 1.02198 0.22113 0.23784 0.0
C354 C 1.0023 0.2271 0.28216 0.0
C355 C 0.99251 0.18078 0.30945 0.0
C356 C 1.00228 0.13035 0.29396 0.0
C357 C 1.02191 0.12462 0.25117 0.0
C358 C 0.03169 0.16924 0.22327 0.0
H359 H 0.93243 0.30965 0.29443 0.0
C360 C 0.9395 0.29509 0.33283 0.0
H361 H 0.97698 0.26688 0.37956 0.0
H362 H 0.04609 0.36151 0.16269 0.0
H363 H 0.03012 0.44935 0.19198 0.0
H364 H 0.99727 0.45997 0.27052 0.0
H365 H 0.97996 0.38279 0.3201 0.0
C366 C 0.96989 0.28342 0.34197 0.0
C367 C 0.99232 0.27858 0.29773 0.0
C368 C 1.00273 0.3241 0.26988 0.0
C369 C 1.02226 0.31804 0.22522 0.0
C370 C 0.03167 0.364 0.19733 0.0
C371 C 0.02262 0.41458 0.21366 0.0
C372 C 1.00407 0.42055 0.25784 0.0
C373 C 0.99418 0.37598 0.28581 0.0
H374 H 0.45322 0.22124 0.72061 0.0
C375 C 0.46117 0.24979 0.69156 0.0
H376 H 0.4989 0.29197 0.65903 0.0
H377 H 0.58565 0.31836 0.85226 0.0
H378 H 0.57319 0.40911 0.82834 0.0
H379 H 0.53233 0.42887 0.76228 0.0
H380 H 0.5046 0.35797 0.71846 0.0
C381 C 0.49159 0.26373 0.68891 0.0
C382 C 0.51472 0.25034 0.7309 0.0
C383 C 0.52958 0.29262 0.75818 0.0
C384 C 0.55224 0.28133 0.79771 0.0
C385 C 0.56774 0.32439 0.82265 0.0
C386 C 0.56077 0.37688 0.80943 0.0
C387 C 0.53791 0.38797 0.77206 0.0
C388 C 0.5223 0.34663 0.74689 0.0
H389 H 0.61758 0.19032 0.79896 0.0
C390 C 0.61298 0.20374 0.83858 0.0
H391 H 0.57901 0.23302 0.89086 0.0
H392 H 0.49422 0.15989 0.68153 0.0
H393 H 0.50703 0.06889 0.70537 0.0
H394 H 0.54321 0.04954 0.77876 0.0
H395 H 0.56729 0.12132 0.82817 0.0
C396 C 0.58357 0.21739 0.85204 0.0
C397 C 0.55946 0.22781 0.81095 0.0
C398 C 0.54463 0.18555 0.78392 0.0
C399 C 0.52271 0.19677 0.74304 0.0
C400 C 0.50984 0.15376 0.71448 0.0
C401 C 0.51723 0.10129 0.72746 0.0
C402 C 0.53769 0.09038 0.76868 0.0
C403 C 0.55138 0.13188 0.79664 0.0
H404 H 0.12199 0.67457 0.75295 0.0
C405 C 0.11525 0.68738 0.71379 0.0
H406 H 0.07781 0.71003 0.66406 0.0
H407 H 1.00329 0.61224 0.87288 0.0
H408 H 1.02151 0.52528 0.84453 0.0
H409 H 0.05775 0.51679 0.76995 0.0
H410 H 0.07612 0.5952 0.72332 0.0
C411 C 0.0847 0.69495 0.70235 0.0
C412 C 0.06118 0.69857 0.74495 0.0
C413 C 0.05047 0.65239 0.77131 0.0
C414 C 0.02922 0.65724 0.81385 0.0
C415 C 1.01918 0.61063 0.84001 0.0
C416 C 0.02949 0.56057 0.82417 0.0
C417 C 0.04993 0.55579 0.78221 0.0
C418 C 0.06037 0.60105 0.7559 0.0
H419 H 0.9568 0.69323 0.83151 0.0
C420 C 0.96592 0.70912 0.86806 0.0
H421 H 1.00647 0.733 0.90965 0.0
H422 H 0.07673 0.79548 0.70215 0.0
H423 H 0.05779 0.88179 0.72963 0.0
H424 H 1.02054 0.88997 0.80275 0.0
H425 H 1.00219 0.8118 0.84902 0.0
C426 C 0.99709 0.71441 0.87457 0.0
C427 C 1.0187 0.70821 0.8296 0.0
C428 C 0.02901 0.75435 0.80266 0.0
C429 C 0.05019 0.74955 0.7602 0.0
C430 C 0.06039 0.79649 0.73439 0.0
C431 C 0.04972 0.84644 0.74976 0.0
C432 C 0.02878 0.85106 0.79094 0.0
C433 C 1.01846 0.80576 0.81721 0.0
H434 H 0.4744 0.82182 0.1342 0.0
C435 C 0.4547 0.80315 0.15391 0.0
H436 H 0.43733 0.77173 0.22467 0.0
H437 H 0.56534 0.69246 0.31434 0.0
H438 H 0.54174 0.60972 0.28601 0.0
H439 H 0.4933 0.60976 0.23265 0.0
H440 H 0.468 0.69249 0.20773 0.0
C441 C 0.45668 0.79183 0.20529 0.0
C442 C 0.48714 0.79331 0.23391 0.0
C443 C 0.50197 0.74447 0.24729 0.0
C444 C 0.53028 0.7445 0.27698 0.0
C445 C 0.54414 0.695 0.29092 0.0
C446 C 0.53081 0.64708 0.27503 0.0
C447 C 0.50351 0.6471 0.24507 0.0
C448 C 0.48916 0.695 0.23125 0.0
H449 H 0.5539 0.81968 0.39337 0.0
C450 C 0.57448 0.8028 0.37462 0.0
H451 H 0.59404 0.77386 0.30457 0.0
H452 H 0.46426 0.89352 0.21598 0.0
H453 H 0.4888 0.97667 0.24185 0.0
H454 H 0.53917 0.97685 0.29014 0.0
H455 H 0.56517 0.89388 0.31343 0.0
C456 C 0.57382 0.79222 0.3231 0.0
C457 C 0.54396 0.7934 0.29267 0.0
C458 C 0.52947 0.84225 0.2785 0.0
C459 C 0.50081 0.84219 0.24947 0.0
C460 C 0.48633 0.8914 0.23709 0.0
C461 C 0.50013 0.93936 0.25181 0.0
C462 C 0.52847 0.93946 0.27909 0.0
C463 C 0.54309 0.89159 0.29237 0.0
H464 H 0.08518 0.07052 0.98025 0.0
C465 C 0.09332 0.07071 0.02064 0.0
H466 H 0.08552 0.04164 0.09702 0.0
H467 H 0.94169 0.99357 0.05448 0.0
H468 H 0.93884 0.06536 0.11744 0.0
H469 H 0.98673 0.11229 0.14613 0.0
H470 H 0.03782 0.08762 0.11235 0.0
C471 C 0.07865 0.04008 0.05606 0.0
C472 C 0.05016 0.00887 0.0413 0.0
C473 C 1.02052 0.02316 0.06231 0.0
C474 C 0.99287 0.99593 0.04594 0.0
C475 C 0.9635 0.01217 0.06631 0.0
C476 C 0.9615 0.05353 0.10227 0.0
C477 C 0.98847 0.07996 0.11844 0.0
C478 C 1.01768 0.06528 0.09874 0.0
H479 H 0.96072 0.8851 0.06358 0.0
C480 C 0.9521 0.88992 0.02373 0.0
H481 H 0.95909 0.92812 0.95104 0.0
H482 H 0.10357 0.96689 0.99826 0.0
H483 H 0.10634 0.89519 0.93526 0.0
H484 H 0.05829 0.84971 0.90511 0.0
H485 H 1.00712 0.87557 0.93779 0.0
C486 C 0.96624 0.92494 0.99181 0.0
C487 C 0.99492 0.95415 1.00895 0.0
C488 C 0.02458 0.93946 0.98837 0.0
C489 C 0.05227 0.96634 1.00507 0.0
C490 C 0.08168 0.94914 0.98563 0.0
C491 C 0.08365 0.90769 0.94975 0.0
C492 C 0.05659 0.88205 0.93279 0.0
C493 C 0.02735 0.89741 0.95185 0.0
H494 H 0.59965 0.54249 0.4592 0.0
C495 C 0.58779 0.58007 0.46644 0.0
H496 H 0.54498 0.61782 0.48559 0.0
H497 H 0.45582 0.43167 0.41644 0.0
H498 H 0.44971 0.49153 0.34236 0.0
H499 H 0.48403 0.56985 0.33249 0.0
H500 H 0.52488 0.58871 0.39637 0.0
C501 C 0.55731 0.58034 0.48024 0.0
C502 C 0.5384 0.53074 0.48456 0.0
C503 C 0.5145 0.5205 0.44704 0.0
C504 C 0.4945 0.47558 0.45296 0.0
C505 C 0.47127 0.46574 0.41433 0.0
C506 C 0.46761 0.49963 0.37149 0.0
C507 C 0.48697 0.54373 0.3659 0.0
C508 C 0.51023 0.55418 0.403 0.0
H509 H 0.43785 0.44269 0.52529 0.0
C510 C 0.44695 0.40253 0.52075 0.0
H511 H 0.48662 0.35555 0.5025 0.0
H512 H 0.58123 0.53955 0.56457 0.0
H513 H 0.58749 0.47935 0.6382 0.0
H514 H 0.55321 0.40088 0.64785 0.0
H515 H 0.51234 0.38232 0.5841 0.0
C516 C 0.47668 0.39534 0.50455 0.0
C517 C 0.49823 0.44126 0.49668 0.0
C518 C 0.52255 0.45082 0.53363 0.0
C519 C 0.54254 0.49581 0.52779 0.0
C520 C 0.56578 0.50549 0.56645 0.0
C521 C 0.56955 0.47135 0.6091 0.0
C522 C 0.55024 0.4272 0.61456 0.0
C523 C 0.52692 0.41694 0.57754 0.0
H524 H 0.44564 0.54284 0.06492 0.0
C525 C 0.456 0.58229 0.06277 0.0
H526 H 0.49721 0.62681 0.04802 0.0
H527 H 0.568 0.404 0.11074 0.0
H528 H 0.55423 0.42789 0.19967 0.0
H529 H 0.51913 0.504 0.21707 0.0
H530 H 0.49737 0.5564 0.14565 0.0
C531 C 0.48669 0.58759 0.05145 0.0
C532 C 0.50718 0.5408 0.04115 0.0
C533 C 0.51963 0.51048 0.0833 0.0
C534 C 0.54006 0.46682 0.07324 0.0
C535 C 0.55227 0.4374 0.11613 0.0
C536 C 0.54463 0.45077 0.16737 0.0
C537 C 0.52485 0.4936 0.17717 0.0
C538 C 0.51247 0.52329 0.1358 0.0
H539 H 0.60809 0.45112 0.98661 0.0
C540 C 0.59836 0.41174 0.99339 0.0
H541 H 0.55901 0.36775 0.01917 0.0
H542 H 0.48782 0.59148 0.95183 0.0
H543 H 0.50132 0.56761 0.86282 0.0
H544 H 0.53575 0.49085 0.84514 0.0
H545 H 0.55705 0.43755 0.9163 0.0
C546 C 0.56869 0.40684 1.01084 0.0
C547 C 0.54826 0.45388 0.02109 0.0
C548 C 0.53567 0.48417 0.97893 0.0
C549 C 0.51538 0.52798 0.98905 0.0
C550 C 0.5033 0.55777 0.9463 0.0
C551 C 0.5108 0.54444 0.89503 0.0
C552 C 0.5302 0.50121 0.88508 0.0
C553 C 0.54244 0.47115 0.92633 0.0
H554 H 0.05298 0.85918 0.54294 0.0
C555 C 0.07541 0.87673 0.55388 0.0
H556 H 0.10027 0.94862 0.56477 0.0
H557 H 1.00541 0.08069 0.42111 0.0
H558 H 0.05256 0.08173 0.36825 0.0
H559 H 0.09905 0.02872 0.39372 0.0
H560 H 0.09882 0.97468 0.47254 0.0
C561 C 0.07794 0.92994 0.55542 0.0
C562 C 0.05038 0.96423 0.54175 0.0
C563 C 0.05081 0.99541 0.49543 0.0
C564 C 0.0238 0.02541 0.48036 0.0
C565 C 0.02508 0.05664 0.43415 0.0
C566 C 0.05201 0.05767 0.40343 0.0
C567 C 0.07821 0.02786 0.41781 0.0
C568 C 0.07775 0.99701 0.46318 0.0
H569 H 0.97335 0.10866 0.56035 0.0
C570 C 0.96031 0.09975 0.52477 0.0
H571 H 0.95697 0.04925 0.45918 0.0
H572 H 0.04298 0.91471 0.63656 0.0
H573 H 0.99542 0.91151 0.68827 0.0
H574 H 0.94734 0.95797 0.65876 0.0
H575 H 0.94675 0.00868 0.57789 0.0
C576 C 0.96855 0.05717 0.49632 0.0
C577 C 0.99633 0.02414 0.51158 0.0
C578 C 0.99588 0.99288 0.55792 0.0
C579 C 0.02315 0.96397 0.57366 0.0
C580 C 0.02256 0.93555 0.6216 0.0
C581 C 0.99547 0.9337 0.65189 0.0
C582 C 0.96845 0.96002 0.63538 0.0
C583 C 0.9685 0.98929 0.589 0.0
loop_
_geom_bond_atom_site_label_1
_geom_bond_atom_site_label_2
_geom_bond_distance
_geom_bond_site_symmetry_2
_ccdc_geom_bond_type
Mg0 O7 2.141 . S
Mg0 O8 2.048 . S
Mg0 O9 2.048 . S
Mg0 O12 2.141 . S
C1 O2 1.313 . S
C1 O8 1.195 . S
O2 C1 1.313 . S
C3 O4 1.245 . S
C3 O12 1.289 . S
O4 C3 1.245 . S
C5 O6 1.245 . S
C5 O7 1.289 . S
O6 C5 1.245 . S
O7 Mg0 2.141 . S
O7 C5 1.289 . S
O8 Mg0 2.048 . S
O8 C1 1.195 . S
O9 Mg0 2.048 . S
O9 C10 1.195 . S
C10 O9 1.195 . S
C10 O11 1.313 . S
O11 C10 1.313 . S
O12 Mg0 2.141 . S
O12 C3 1.289 . S
Mg13 O20 2.141 . S
Mg13 O21 2.048 . S
Mg13 O22 2.048 . S
Mg13 O25 2.141 . S
C14 O15 1.313 . S
C14 O21 1.195 . S
O15 C14 1.313 . S
C16 O17 1.245 . S
C16 O25 1.289 . S
O17 C16 1.245 . S
C18 O19 1.245 . S
C18 O20 1.289 . S
O19 C18 1.245 . S
O20 Mg13 2.141 . S
O20 C18 1.289 . S
O21 Mg13 2.048 . S
O21 C14 1.195 . S
O22 Mg13 2.048 . S
O22 C23 1.195 . S
C23 O22 1.195 . S
C23 O24 1.313 . S
O24 C23 1.313 . S
O25 Mg13 2.141 . S
O25 C16 1.289 . S
Mg26 O33 2.141 . S
Mg26 O34 2.048 . S
Mg26 O35 2.048 . S
Mg26 O38 2.141 . S
C27 O28 1.313 . S
C27 O34 1.195 . S
O28 C27 1.313 . S
C29 O30 1.245 . S
C29 O38 1.289 . S
O30 C29 1.245 . S
C31 O32 1.245 . S
C31 O33 1.289 . S
O32 C31 1.245 . S
O33 Mg26 2.141 . S
O33 C31 1.289 . S
O34 Mg26 2.048 . S
O34 C27 1.195 . S
O35 Mg26 2.048 . S
O35 C36 1.195 . S
C36 O35 1.195 . S
C36 O37 1.313 . S
O37 C36 1.313 . S
O38 Mg26 2.141 . S
O38 C29 1.289 . S
Mg39 O46 2.141 . S
Mg39 O47 2.048 . S
Mg39 O48 2.048 . S
Mg39 O51 2.141 . S
C40 O41 1.313 . S
C40 O47 1.195 . S
O41 C40 1.313 . S
C42 O43 1.245 . S
C42 O51 1.289 . S
O43 C42 1.245 . S
C44 O45 1.245 . S
C44 O46 1.289 . S
O45 C44 1.245 . S
O46 Mg39 2.141 . S
O46 C44 1.289 . S
O47 Mg39 2.048 . S
O47 C40 1.195 . S
O48 Mg39 2.048 . S
O48 C49 1.195 . S
C49 O48 1.195 . S
C49 O50 1.313 . S
O50 C49 1.313 . S
O51 Mg39 2.141 . S
O51 C42 1.289 . S
Mg52 O59 2.141 . S
Mg52 O60 2.048 . S
Mg52 O61 2.048 . S
Mg52 O64 2.141 . S
C53 O54 1.313 . S
C53 O60 1.195 . S
O54 C53 1.313 . S
C55 O56 1.245 . S
C55 O64 1.289 . S
O56 C55 1.245 . S
C57 O58 1.245 . S
C57 O59 1.289 . S
O58 C57 1.245 . S
O59 Mg52 2.141 . S
O59 C57 1.289 . S
O60 Mg52 2.048 . S
O60 C53 1.195 . S
O61 Mg52 2.048 . S
O61 C62 1.195 . S
C62 O61 1.195 . S
C62 O63 1.313 . S
O63 C62 1.313 . S
O64 Mg52 2.141 . S
O64 C55 1.289 . S
Mg65 O72 2.141 . S
Mg65 O73 2.048 . S
Mg65 O74 2.048 . S
Mg65 O77 2.141 . S
C66 O67 1.313 . S
C66 O73 1.195 . S
O67 C66 1.313 . S
C68 O69 1.245 . S
C68 O77 1.289 . S
O69 C68 1.245 . S
C70 O71 1.245 . S
C70 O72 1.289 . S
O71 C70 1.245 . S
O72 Mg65 2.141 . S
O72 C70 1.289 . S
O73 Mg65 2.048 . S
O73 C66 1.195 . S
O74 Mg65 2.048 . S
O74 C75 1.195 . S
C75 O74 1.195 . S
C75 O76 1.313 . S
O76 C75 1.313 . S
O77 Mg65 2.141 . S
O77 C68 1.289 . S
Mg78 O85 2.141 . S
Mg78 O86 2.048 . S
Mg78 O87 2.048 . S
Mg78 O90 2.141 . S
C79 O80 1.313 . S
C79 O86 1.195 . S
O80 C79 1.313 . S
C81 O82 1.245 . S
C81 O90 1.289 . S
O82 C81 1.245 . S
C83 O84 1.245 . S
C83 O85 1.289 . S
O84 C83 1.245 . S
O85 Mg78 2.141 . S
O85 C83 1.289 . S
O86 Mg78 2.048 . S
O86 C79 1.195 . S
O87 Mg78 2.048 . S
O87 C88 1.195 . S
C88 O87 1.195 . S
C88 O89 1.313 . S
O89 C88 1.313 . S
O90 Mg78 2.141 . S
O90 C81 1.289 . S
Mg91 O98 2.141 . S
Mg91 O99 2.048 . S
Mg91 O100 2.048 . S
Mg91 O103 2.141 . S
C92 O93 1.313 . S
C92 O99 1.195 . S
O93 C92 1.313 . S
C94 O95 1.245 . S
C94 O103 1.289 . S
O95 C94 1.245 . S
C96 O97 1.245 . S
C96 O98 1.289 . S
O97 C96 1.245 . S
O98 Mg91 2.141 . S
O98 C96 1.289 . S
O99 Mg91 2.048 . S
O99 C92 1.195 . S
O100 Mg91 2.048 . S
O100 C101 1.195 . S
C101 O100 1.195 . S
C101 O102 1.313 . S
O102 C101 1.313 . S
O103 Mg91 2.141 . S
O103 C94 1.289 . S
H104 C105 0.951 . S
C105 H104 0.951 . S
C105 C111 1.265 . S
H106 C111 0.950 . S
H107 C115 0.949 . S
H108 C116 0.950 . S
H109 C117 0.951 . S
H110 C118 0.951 . S
C111 C105 1.265 . S
C111 H106 0.950 . S
C111 C112 1.478 . S
C112 C111 1.478 . S
C112 C113 1.397 . S
C112 C129 1.394 . S
C113 C112 1.397 . S
C113 C114 1.438 . S
C113 C118 1.429 . S
C114 C113 1.438 . S
C114 C115 1.428 . S
C114 C127 1.394 . S
C115 H107 0.949 . S
C115 C114 1.428 . S
C115 C116 1.345 . S
C116 H108 0.950 . S
C116 C115 1.345 . S
C116 C117 1.424 . S
C117 H109 0.951 . S
C117 C116 1.424 . S
C117 C118 1.347 . S
C118 H110 0.951 . S
C118 C113 1.429 . S
C118 C117 1.347 . S
H119 C120 0.951 . S
C120 H119 0.951 . S
C120 C126 1.265 . S
H121 C126 0.950 . S
H122 C130 0.949 . S
H123 C131 0.950 . S
H124 C132 0.951 . S
H125 C133 0.951 . S
C126 C120 1.265 . S
C126 H121 0.950 . S
C126 C127 1.478 . S
C127 C114 1.394 . S
C127 C126 1.478 . S
C127 C128 1.397 . S
C128 C127 1.397 . S
C128 C129 1.438 . S
C128 C133 1.429 . S
C129 C112 1.394 . S
C129 C128 1.438 . S
C129 C130 1.428 . S
C130 H122 0.949 . S
C130 C129 1.428 . S
C130 C131 1.345 . S
C131 H123 0.950 . S
C131 C130 1.345 . S
C131 C132 1.424 . S
C132 H124 0.951 . S
C132 C131 1.424 . S
C132 C133 1.347 . S
C133 H125 0.951 . S
C133 C128 1.429 . S
C133 C132 1.347 . S
H134 C135 0.951 . S
C135 H134 0.951 . S
C135 C141 1.265 . S
H136 C141 0.950 . S
H137 C145 0.949 . S
H138 C146 0.950 . S
H139 C147 0.951 . S
H140 C148 0.951 . S
C141 C135 1.265 . S
C141 H136 0.950 . S
C141 C142 1.478 . S
C142 C141 1.478 . S
C142 C143 1.397 . S
C142 C159 1.394 . S
C143 C142 1.397 . S
C143 C144 1.438 . S
C143 C148 1.429 . S
C144 C143 1.438 . S
C144 C145 1.428 . S
C144 C157 1.394 . S
C145 H137 0.949 . S
C145 C144 1.428 . S
C145 C146 1.345 . S
C146 H138 0.950 . S
C146 C145 1.345 . S
C146 C147 1.424 . S
C147 H139 0.951 . S
C147 C146 1.424 . S
C147 C148 1.347 . S
C148 H140 0.951 . S
C148 C143 1.429 . S
C148 C147 1.347 . S
H149 C150 0.951 . S
C150 H149 0.951 . S
C150 C156 1.265 . S
H151 C156 0.950 . S
H152 C160 0.949 . S
H153 C161 0.950 . S
H154 C162 0.951 . S
H155 C163 0.951 . S
C156 C150 1.265 . S
C156 H151 0.950 . S
C156 C157 1.478 . S
C157 C144 1.394 . S
C157 C156 1.478 . S
C157 C158 1.397 . S
C158 C157 1.397 . S
C158 C159 1.438 . S
C158 C163 1.429 . S
C159 C142 1.394 . S
C159 C158 1.438 . S
C159 C160 1.428 . S
C160 H152 0.949 . S
C160 C159 1.428 . S
C160 C161 1.345 . S
C161 H153 0.950 . S
C161 C160 1.345 . S
C161 C162 1.424 . S
C162 H154 0.951 . S
C162 C161 1.424 . S
C162 C163 1.347 . S
C163 H155 0.951 . S
C163 C158 1.429 . S
C163 C162 1.347 . S
H164 C165 0.951 . S
C165 H164 0.951 . S
C165 C171 1.265 . S
H166 C171 0.950 . S
H167 C175 0.949 . S
H168 C176 0.950 . S
H169 C177 0.951 . S
H170 C178 0.951 . S
C171 C165 1.265 . S
C171 H166 0.950 . S
C171 C172 1.478 . S
C172 C171 1.478 . S
C172 C173 1.397 . S
C172 C189 1.394 . S
C173 C172 1.397 . S
C173 C174 1.438 . S
C173 C178 1.429 . S
C174 C173 1.438 . S
C174 C175 1.428 . S
C174 C187 1.394 . S
C175 H167 0.949 . S
C175 C174 1.428 . S
C175 C176 1.345 . S
C176 H168 0.950 . S
C176 C175 1.345 . S
C176 C177 1.424 . S
C177 H169 0.951 . S
C177 C176 1.424 . S
C177 C178 1.347 . S
C178 H170 0.951 . S
C178 C173 1.429 . S
C178 C177 1.347 . S
H179 C180 0.951 . S
C180 H179 0.951 . S
C180 C186 1.265 . S
H181 C186 0.950 . S
H182 C190 0.949 . S
H183 C191 0.950 . S
H184 C192 0.951 . S
H185 C193 0.951 . S
C186 C180 1.265 . S
C186 H181 0.950 . S
C186 C187 1.478 . S
C187 C174 1.394 . S
C187 C186 1.478 . S
C187 C188 1.397 . S
C188 C187 1.397 . S
C188 C189 1.438 . S
C188 C193 1.429 . S
C189 C172 1.394 . S
C189 C188 1.438 . S
C189 C190 1.428 . S
C190 H182 0.949 . S
C190 C189 1.428 . S
C190 C191 1.345 . S
C191 H183 0.950 . S
C191 C190 1.345 . S
C191 C192 1.424 . S
C192 H184 0.951 . S
C192 C191 1.424 . S
C192 C193 1.347 . S
C193 H185 0.951 . S
C193 C188 1.429 . S
C193 C192 1.347 . S
H194 C195 0.951 . S
C195 H194 0.951 . S
C195 C201 1.265 . S
H196 C201 0.950 . S
H197 C205 0.949 . S
H198 C206 0.950 . S
H199 C207 0.951 . S
H200 C208 0.951 . S
C201 C195 1.265 . S
C201 H196 0.950 . S
C201 C202 1.478 . S
C202 C201 1.478 . S
C202 C203 1.397 . S
C202 C219 1.394 . S
C203 C202 1.397 . S
C203 C204 1.438 . S
C203 C208 1.429 . S
C204 C203 1.438 . S
C204 C205 1.428 . S
C204 C217 1.394 . S
C205 H197 0.949 . S
C205 C204 1.428 . S
C205 C206 1.345 . S
C206 H198 0.950 . S
C206 C205 1.345 . S
C206 C207 1.424 . S
C207 H199 0.951 . S
C207 C206 1.424 . S
C207 C208 1.347 . S
C208 H200 0.951 . S
C208 C203 1.429 . S
C208 C207 1.347 . S
H209 C210 0.951 . S
C210 H209 0.951 . S
C210 C216 1.265 . S
H211 C216 0.950 . S
H212 C220 0.949 . S
H213 C221 0.950 . S
H214 C222 0.951 . S
H215 C223 0.951 . S
C216 C210 1.265 . S
C216 H211 0.950 . S
C216 C217 1.478 . S
C217 C204 1.394 . S
C217 C216 1.478 . S
C217 C218 1.397 . S
C218 C217 1.397 . S
C218 C219 1.438 . S
C218 C223 1.429 . S
C219 C202 1.394 . S
C219 C218 1.438 . S
C219 C220 1.428 . S
C220 H212 0.949 . S
C220 C219 1.428 . S
C220 C221 1.345 . S
C221 H213 0.950 . S
C221 C220 1.345 . S
C221 C222 1.424 . S
C222 H214 0.951 . S
C222 C221 1.424 . S
C222 C223 1.347 . S
C223 H215 0.951 . S
C223 C218 1.429 . S
C223 C222 1.347 . S
H224 C225 0.951 . S
C225 H224 0.951 . S
C225 C231 1.265 . S
H226 C231 0.950 . S
H227 C235 0.949 . S
H228 C236 0.950 . S
H229 C237 0.951 . S
H230 C238 0.951 . S
C231 C225 1.265 . S
C231 H226 0.950 . S
C231 C232 1.478 . S
C232 C231 1.478 . S
C232 C233 1.397 . S
C232 C249 1.394 . S
C233 C232 1.397 . S
C233 C234 1.438 . S
C233 C238 1.429 . S
C234 C233 1.438 . S
C234 C235 1.428 . S
C234 C247 1.394 . S
C235 H227 0.949 . S
C235 C234 1.428 . S
C235 C236 1.345 . S
C236 H228 0.950 . S
C236 C235 1.345 . S
C236 C237 1.424 . S
C237 H229 0.951 . S
C237 C236 1.424 . S
C237 C238 1.347 . S
C238 H230 0.951 . S
C238 C233 1.429 . S
C238 C237 1.347 . S
H239 C240 0.951 . S
C240 H239 0.951 . S
C240 C246 1.265 . S
H241 C246 0.950 . S
H242 C250 0.949 . S
H243 C251 0.950 . S
H244 C252 0.951 . S
H245 C253 0.951 . S
C246 C240 1.265 . S
C246 H241 0.950 . S
C246 C247 1.478 . S
C247 C234 1.394 . S
C247 C246 1.478 . S
C247 C248 1.397 . S
C248 C247 1.397 . S
C248 C249 1.438 . S
C248 C253 1.429 . S
C249 C232 1.394 . S
C249 C248 1.438 . S
C249 C250 1.428 . S
C250 H242 0.949 . S
C250 C249 1.428 . S
C250 C251 1.345 . S
C251 H243 0.950 . S
C251 C250 1.345 . S
C251 C252 1.424 . S
C252 H244 0.951 . S
C252 C251 1.424 . S
C252 C253 1.347 . S
C253 H245 0.951 . S
C253 C248 1.429 . S
C253 C252 1.347 . S
H254 C255 0.951 . S
C255 H254 0.951 . S
C255 C261 1.265 . S
H256 C261 0.950 . S
H257 C265 0.949 . S
H258 C266 0.950 . S
H259 C267 0.951 . S
H260 C268 0.951 . S
C261 C255 1.265 . S
C261 H256 0.950 . S
C261 C262 1.478 . S
C262 C261 1.478 . S
C262 C263 1.397 . S
C262 C279 1.394 . S
C263 C262 1.397 . S
C263 C264 1.438 . S
C263 C268 1.429 . S
C264 C263 1.438 . S
C264 C265 1.428 . S
C264 C277 1.394 . S
C265 H257 0.949 . S
C265 C264 1.428 . S
C265 C266 1.345 . S
C266 H258 0.950 . S
C266 C265 1.345 . S
C266 C267 1.424 . S
C267 H259 0.951 . S
C267 C266 1.424 . S
C267 C268 1.347 . S
C268 H260 0.951 . S
C268 C263 1.429 . S
C268 C267 1.347 . S
H269 C270 0.951 . S
C270 H269 0.951 . S
C270 C276 1.265 . S
H271 C276 0.950 . S
H272 C280 0.949 . S
H273 C281 0.950 . S
H274 C282 0.951 . S
H275 C283 0.951 . S
C276 C270 1.265 . S
C276 H271 0.950 . S
C276 C277 1.478 . S
C277 C264 1.394 . S
C277 C276 1.478 . S
C277 C278 1.397 . S
C278 C277 1.397 . S
C278 C279 1.438 . S
C278 C283 1.429 . S
C279 C262 1.394 . S
C279 C278 1.438 . S
C279 C280 1.428 . S
C280 H272 0.949 . S
C280 C279 1.428 . S
C280 C281 1.345 . S
C281 H273 0.950 . S
C281 C280 1.345 . S
C281 C282 1.424 . S
C282 H274 0.951 . S
C282 C281 1.424 . S
C282 C283 1.347 . S
C283 H275 0.951 . S
C283 C278 1.429 . S
C283 C282 1.347 . S
H284 C285 0.951 . S
C285 H284 0.951 . S
C285 C291 1.265 . S
H286 C291 0.950 . S
H287 C295 0.949 . S
H288 C296 0.950 . S
H289 C297 0.951 . S
H290 C298 0.951 . S
C291 C285 1.265 . S
C291 H286 0.950 . S
C291 C292 1.478 . S
C292 C291 1.478 . S
C292 C293 1.397 . S
C292 C309 1.394 . S
C293 C292 1.397 . S
C293 C294 1.438 . S
C293 C298 1.429 . S
C294 C293 1.438 . S
C294 C295 1.428 . S
C294 C307 1.394 . S
C295 H287 0.949 . S
C295 C294 1.428 . S
C295 C296 1.345 . S
C296 H288 0.950 . S
C296 C295 1.345 . S
C296 C297 1.424 . S
C297 H289 0.951 . S
C297 C296 1.424 . S
C297 C298 1.347 . S
C298 H290 0.951 . S
C298 C293 1.429 . S
C298 C297 1.347 . S
H299 C300 0.951 . S
C300 H299 0.951 . S
C300 C306 1.265 . S
H301 C306 0.950 . S
H302 C310 0.949 . S
H303 C311 0.950 . S
H304 C312 0.951 . S
H305 C313 0.951 . S
C306 C300 1.265 . S
C306 H301 0.950 . S
C306 C307 1.478 . S
C307 C294 1.394 . S
C307 C306 1.478 . S
C307 C308 1.397 . S
C308 C307 1.397 . S
C308 C309 1.438 . S
C308 C313 1.429 . S
C309 C292 1.394 . S
C309 C308 1.438 . S
C309 C310 1.428 . S
C310 H302 0.949 . S
C310 C309 1.428 . S
C310 C311 1.345 . S
C311 H303 0.950 . S
C311 C310 1.345 . S
C311 C312 1.424 . S
C312 H304 0.951 . S
C312 C311 1.424 . S
C312 C313 1.347 . S
C313 H305 0.951 . S
C313 C308 1.429 . S
C313 C312 1.347 . S
H314 C315 0.951 . S
C315 H314 0.951 . S
C315 C321 1.265 . S
H316 C321 0.950 . S
H317 C325 0.949 . S
H318 C326 0.950 . S
H319 C327 0.951 . S
H320 C328 0.951 . S
C321 C315 1.265 . S
C321 H316 0.950 . S
C321 C322 1.478 . S
C322 C321 1.478 . S
C322 C323 1.397 . S
C322 C339 1.394 . S
C323 C322 1.397 . S
C323 C324 1.438 . S
C323 C328 1.429 . S
C324 C323 1.438 . S
C324 C325 1.428 . S
C324 C337 1.394 . S
C325 H317 0.949 . S
C325 C324 1.428 . S
C325 C326 1.345 . S
C326 H318 0.950 . S
C326 C325 1.345 . S
C326 C327 1.424 . S
C327 H319 0.951 . S
C327 C326 1.424 . S
C327 C328 1.347 . S
C328 H320 0.951 . S
C328 C323 1.429 . S
C328 C327 1.347 . S
H329 C330 0.951 . S
C330 H329 0.951 . S
C330 C336 1.265 . S
H331 C336 0.950 . S
H332 C340 0.949 . S
H333 C341 0.950 . S
H334 C342 0.951 . S
H335 C343 0.951 . S
C336 C330 1.265 . S
C336 H331 0.950 . S
C336 C337 1.478 . S
C337 C324 1.394 . S
C337 C336 1.478 . S
C337 C338 1.397 . S
C338 C337 1.397 . S
C338 C339 1.438 . S
C338 C343 1.429 . S
C339 C322 1.394 . S
C339 C338 1.438 . S
C339 C340 1.428 . S
C340 H332 0.949 . S
C340 C339 1.428 . S
C340 C341 1.345 . S
C341 H333 0.950 . S
C341 C340 1.345 . S
C341 C342 1.424 . S
C342 H334 0.951 . S
C342 C341 1.424 . S
C342 C343 1.347 . S
C343 H335 0.951 . S
C343 C338 1.429 . S
C343 C342 1.347 . S
H344 C345 0.951 . S
C345 H344 0.951 . S
C345 C351 1.265 . S
H346 C351 0.950 . S
H347 C355 0.949 . S
H348 C356 0.950 . S
H349 C357 0.951 . S
H350 C358 0.951 . S
C351 C345 1.265 . S
C351 H346 0.950 . S
C351 C352 1.478 . S
C352 C351 1.478 . S
C352 C353 1.397 . S
C352 C369 1.394 . S
C353 C352 1.397 . S
C353 C354 1.438 1_455 S
C353 C358 1.429 . S
C354 C353 1.438 1_655 S
C354 C355 1.428 . S
C354 C367 1.394 . S
C355 H347 0.949 . S
C355 C354 1.428 . S
C355 C356 1.345 . S
C356 H348 0.950 . S
C356 C355 1.345 . S
C356 C357 1.424 . S
C357 H349 0.951 . S
C357 C356 1.424 . S
C357 C358 1.347 1_655 S
C358 H350 0.951 . S
C358 C353 1.429 . S
C358 C357 1.347 1_455 S
H359 C360 0.951 . S
C360 H359 0.951 . S
C360 C366 1.265 . S
H361 C366 0.950 . S
H362 C370 0.949 . S
H363 C371 0.950 . S
H364 C372 0.951 . S
H365 C373 0.951 . S
C366 C360 1.265 . S
C366 H361 0.950 . S
C366 C367 1.478 . S
C367 C354 1.394 . S
C367 C366 1.478 . S
C367 C368 1.397 . S
C368 C367 1.397 . S
C368 C369 1.438 1_655 S
C368 C373 1.429 . S
C369 C352 1.394 . S
C369 C368 1.438 1_455 S
C369 C370 1.428 . S
C370 H362 0.949 . S
C370 C369 1.428 . S
C370 C371 1.345 . S
C371 H363 0.950 . S
C371 C370 1.345 . S
C371 C372 1.424 . S
C372 H364 0.951 . S
C372 C371 1.424 . S
C372 C373 1.347 1_455 S
C373 H365 0.951 . S
C373 C368 1.429 . S
C373 C372 1.347 1_655 S
H374 C375 0.951 . S
C375 H374 0.951 . S
C375 C381 1.265 . S
H376 C381 0.950 . S
H377 C385 0.949 . S
H378 C386 0.950 . S
H379 C387 0.951 . S
H380 C388 0.951 . S
C381 C375 1.265 . S
C381 H376 0.950 . S
C381 C382 1.478 . S
C382 C381 1.478 . S
C382 C383 1.397 . S
C382 C399 1.394 . S
C383 C382 1.397 . S
C383 C384 1.438 . S
C383 C388 1.429 . S
C384 C383 1.438 . S
C384 C385 1.428 . S
C384 C397 1.394 . S
C385 H377 0.949 . S
C385 C384 1.428 . S
C385 C386 1.345 . S
C386 H378 0.950 . S
C386 C385 1.345 . S
C386 C387 1.424 . S
C387 H379 0.951 . S
C387 C386 1.424 . S
C387 C388 1.347 . S
C388 H380 0.951 . S
C388 C383 1.429 . S
C388 C387 1.347 . S
H389 C390 0.951 . S
C390 H389 0.951 . S
C390 C396 1.265 . S
H391 C396 0.950 . S
H392 C400 0.949 . S
H393 C401 0.950 . S
H394 C402 0.951 . S
H395 C403 0.951 . S
C396 C390 1.265 . S
C396 H391 0.950 . S
C396 C397 1.478 . S
C397 C384 1.394 . S
C397 C396 1.478 . S
C397 C398 1.397 . S
C398 C397 1.397 . S
C398 C399 1.438 . S
C398 C403 1.429 . S
C399 C382 1.394 . S
C399 C398 1.438 . S
C399 C400 1.428 . S
C400 H392 0.949 . S
C400 C399 1.428 . S
C400 C401 1.345 . S
C401 H393 0.950 . S
C401 C400 1.345 . S
C401 C402 1.424 . S
C402 H394 0.951 . S
C402 C401 1.424 . S
C402 C403 1.347 . S
C403 H395 0.951 . S
C403 C398 1.429 . S
C403 C402 1.347 . S
H404 C405 0.951 . S
C405 H404 0.951 . S
C405 C411 1.265 . S
H406 C411 0.950 . S
H407 C415 0.949 . S
H408 C416 0.950 . S
H409 C417 0.951 . S
H410 C418 0.951 . S
C411 C405 1.265 . S
C411 H406 0.950 . S
C411 C412 1.478 . S
C412 C411 1.478 . S
C412 C413 1.397 . S
C412 C429 1.394 . S
C413 C412 1.397 . S
C413 C414 1.438 1_455 S
C413 C418 1.429 . S
C414 C413 1.438 1_655 S
C414 C415 1.428 . S
C414 C427 1.394 . S
C415 H407 0.949 . S
C415 C414 1.428 . S
C415 C416 1.345 . S
C416 H408 0.950 . S
C416 C415 1.345 . S
C416 C417 1.424 . S
C417 H409 0.951 . S
C417 C416 1.424 . S
C417 C418 1.347 1_655 S
C418 H410 0.951 . S
C418 C413 1.429 . S
C418 C417 1.347 1_455 S
H419 C420 0.951 . S
C420 H419 0.951 . S
C420 C426 1.265 . S
H421 C426 0.950 . S
H422 C430 0.949 . S
H423 C431 0.950 . S
H424 C432 0.951 . S
H425 C433 0.951 . S
C426 C420 1.265 . S
C426 H421 0.950 . S
C426 C427 1.478 . S
C427 C414 1.394 . S
C427 C426 1.478 . S
C427 C428 1.397 . S
C428 C427 1.397 . S
C428 C429 1.438 1_655 S
C428 C433 1.429 . S
C429 C412 1.394 . S
C429 C428 1.438 1_455 S
C429 C430 1.428 . S
C430 H422 0.949 . S
C430 C429 1.428 . S
C430 C431 1.345 . S
C431 H423 0.950 . S
C431 C430 1.345 . S
C431 C432 1.424 . S
C432 H424 0.951 . S
C432 C431 1.424 . S
C432 C433 1.347 1_455 S
C433 H425 0.951 . S
C433 C428 1.429 . S
C433 C432 1.347 1_655 S
H434 C435 0.951 . S
C435 H434 0.951 . S
C435 C441 1.265 . S
H436 C441 0.950 . S
H437 C445 0.949 . S
H438 C446 0.950 . S
H439 C447 0.951 . S
H440 C448 0.951 . S
C441 C435 1.265 . S
C441 H436 0.950 . S
C441 C442 1.478 . S
C442 C441 1.478 . S
C442 C443 1.397 . S
C442 C459 1.394 . S
C443 C442 1.397 . S
C443 C444 1.438 . S
C443 C448 1.429 . S
C444 C443 1.438 . S
C444 C445 1.428 . S
C444 C457 1.394 . S
C445 H437 0.949 . S
C445 C444 1.428 . S
C445 C446 1.345 . S
C446 H438 0.950 . S
C446 C445 1.345 . S
C446 C447 1.424 . S
C447 H439 0.951 . S
C447 C446 1.424 . S
C447 C448 1.347 . S
C448 H440 0.951 . S
C448 C443 1.429 . S
C448 C447 1.347 . S
H449 C450 0.951 . S
C450 H449 0.951 . S
C450 C456 1.265 . S
H451 C456 0.950 . S
H452 C460 0.949 . S
H453 C461 0.950 . S
H454 C462 0.951 . S
H455 C463 0.951 . S
C456 C450 1.265 . S
C456 H451 0.950 . S
C456 C457 1.478 . S
C457 C444 1.394 . S
C457 C456 1.478 . S
C457 C458 1.397 . S
C458 C457 1.397 . S
C458 C459 1.438 . S
C458 C463 1.429 . S
C459 C442 1.394 . S
C459 C458 1.438 . S
C459 C460 1.428 . S
C460 H452 0.949 . S
C460 C459 1.428 . S
C460 C461 1.345 . S
C461 H453 0.950 . S
C461 C460 1.345 . S
C461 C462 1.424 . S
C462 H454 0.951 . S
C462 C461 1.424 . S
C462 C463 1.347 . S
C463 H455 0.951 . S
C463 C458 1.429 . S
C463 C462 1.347 . S
H464 C465 0.951 . S
C465 H464 0.951 . S
C465 C471 1.265 . S
H466 C471 0.950 . S
H467 C475 0.949 . S
H468 C476 0.950 1_655 S
H469 C477 0.951 . S
H470 C478 0.951 . S
C471 C465 1.265 . S
C471 H466 0.950 . S
C471 C472 1.478 . S
C472 C471 1.478 . S
C472 C473 1.397 . S
C472 C489 1.394 1_554 S
C473 C472 1.397 . S
C473 C474 1.438 1_445 S
C473 C478 1.429 . S
C474 C473 1.438 1_665 S
C474 C475 1.428 . S
C474 C487 1.394 1_554 S
C475 H467 0.949 . S
C475 C474 1.428 . S
C475 C476 1.345 1_655 S
C476 H468 0.950 1_455 S
C476 C475 1.345 1_455 S
C476 C477 1.424 . S
C477 H469 0.951 . S
C477 C476 1.424 . S
C477 C478 1.347 1_565 S
C478 H470 0.951 . S
C478 C473 1.429 . S
C478 C477 1.347 1_545 S
H479 C480 0.951 . S
C480 H479 0.951 . S
C480 C486 1.265 . S
H481 C486 0.950 . S
H482 C490 0.949 . S
H483 C491 0.950 1_455 S
H484 C492 0.951 . S
H485 C493 0.951 . S
C486 C480 1.265 . S
C486 H481 0.950 . S
C486 C487 1.478 . S
C487 C474 1.394 1_556 S
C487 C486 1.478 . S
C487 C488 1.397 . S
C488 C487 1.397 . S
C488 C489 1.438 1_665 S
C488 C493 1.429 . S
C489 C472 1.394 1_556 S
C489 C488 1.438 1_445 S
C489 C490 1.428 . S
C490 H482 0.949 . S
C490 C489 1.428 . S
C490 C491 1.345 1_455 S
C491 H483 0.950 1_655 S
C491 C490 1.345 1_655 S
C491 C492 1.424 . S
C492 H484 0.951 . S
C492 C491 1.424 . S
C492 C493 1.347 1_545 S
C493 H485 0.951 . S
C493 C488 1.429 . S
C493 C492 1.347 1_565 S
H494 C495 0.951 . S
C495 H494 0.951 . S
C495 C501 1.265 . S
H496 C501 0.950 . S
H497 C505 0.949 . S
H498 C506 0.950 . S
H499 C507 0.951 . S
H500 C508 0.951 . S
C501 C495 1.265 . S
C501 H496 0.950 . S
C501 C502 1.478 . S
C502 C501 1.478 . S
C502 C503 1.397 . S
C502 C519 1.394 . S
C503 C502 1.397 . S
C503 C504 1.438 . S
C503 C508 1.429 . S
C504 C503 1.438 . S
C504 C505 1.428 . S
C504 C517 1.394 . S
C505 H497 0.949 . S
C505 C504 1.428 . S
C505 C506 1.345 . S
C506 H498 0.950 . S
C506 C505 1.345 . S
C506 C507 1.424 . S
C507 H499 0.951 . S
C507 C506 1.424 . S
C507 C508 1.347 . S
C508 H500 0.951 . S
C508 C503 1.429 . S
C508 C507 1.347 . S
H509 C510 0.951 . S
C510 H509 0.951 . S
C510 C516 1.265 . S
H511 C516 0.950 . S
H512 C520 0.949 . S
H513 C521 0.950 . S
H514 C522 0.951 . S
H515 C523 0.951 . S
C516 C510 1.265 . S
C516 H511 0.950 . S
C516 C517 1.478 . S
C517 C504 1.394 . S
C517 C516 1.478 . S
C517 C518 1.397 . S
C518 C517 1.397 . S
C518 C519 1.438 . S
C518 C523 1.429 . S
C519 C502 1.394 . S
C519 C518 1.438 . S
C519 C520 1.428 . S
C520 H512 0.949 . S
C520 C519 1.428 . S
C520 C521 1.345 . S
C521 H513 0.950 . S
C521 C520 1.345 . S
C521 C522 1.424 . S
C522 H514 0.951 . S
C522 C521 1.424 . S
C522 C523 1.347 . S
C523 H515 0.951 . S
C523 C518 1.429 . S
C523 C522 1.347 . S
H524 C525 0.951 1_556 S
C525 H524 0.951 1_554 S
C525 C531 1.265 . S
H526 C531 0.950 . S
H527 C535 0.949 . S
H528 C536 0.950 . S
H529 C537 0.951 . S
H530 C538 0.951 . S
C531 C525 1.265 . S
C531 H526 0.950 . S
C531 C532 1.478 . S
C532 C531 1.478 . S
C532 C533 1.397 . S
C532 C549 1.394 1_554 S
C533 C532 1.397 . S
C533 C534 1.438 . S
C533 C538 1.429 . S
C534 C533 1.438 . S
C534 C535 1.428 . S
C534 C547 1.394 1_554 S
C535 H527 0.949 . S
C535 C534 1.428 . S
C535 C536 1.345 . S
C536 H528 0.950 . S
C536 C535 1.345 . S
C536 C537 1.424 . S
C537 H529 0.951 . S
C537 C536 1.424 . S
C537 C538 1.347 . S
C538 H530 0.951 . S
C538 C533 1.429 . S
C538 C537 1.347 . S
H539 C540 0.951 1_554 S
C540 H539 0.951 1_556 S
C540 C546 1.265 . S
H541 C546 0.950 . S
H542 C550 0.949 . S
H543 C551 0.950 . S
H544 C552 0.951 . S
H545 C553 0.951 . S
C546 C540 1.265 . S
C546 H541 0.950 . S
C546 C547 1.478 . S
C547 C534 1.394 1_556 S
C547 C546 1.478 . S
C547 C548 1.397 . S
C548 C547 1.397 . S
C548 C549 1.438 . S
C548 C553 1.429 . S
C549 C532 1.394 1_556 S
C549 C548 1.438 . S
C549 C550 1.428 . S
C550 H542 0.949 . S
C550 C549 1.428 . S
C550 C551 1.345 . S
C551 H543 0.950 . S
C551 C550 1.345 . S
C551 C552 1.424 . S
C552 H544 0.951 . S
C552 C551 1.424 . S
C552 C553 1.347 . S
C553 H545 0.951 . S
C553 C548 1.429 . S
C553 C552 1.347 . S
H554 C555 0.951 . S
C555 H554 0.951 . S
C555 C561 1.265 . S
H556 C561 0.950 . S
H557 C565 0.949 . S
H558 C566 0.953 . S
H559 C567 0.951 . S
H560 C568 0.951 . S
C561 C555 1.265 . S
C561 H556 0.950 . S
C561 C562 1.478 . S
C562 C561 1.478 . S
C562 C563 1.397 . S
C562 C579 1.394 . S
C563 C562 1.397 . S
C563 C564 1.438 1_465 S
C563 C568 1.429 . S
C564 C563 1.438 1_645 S
C564 C565 1.428 . S
C564 C577 1.394 . S
C565 H557 0.949 . S
C565 C564 1.428 . S
C565 C566 1.345 1_655 S
C566 H558 0.953 . S
C566 C565 1.345 1_455 S
C566 C567 1.424 . S
C567 H559 0.951 . S
C567 C566 1.424 . S
C567 C568 1.347 1_545 S
C568 H560 0.951 . S
C568 C563 1.429 . S
C568 C567 1.347 1_565 S
H569 C570 0.951 . S
C570 H569 0.951 . S
C570 C576 1.265 . S
H571 C576 0.950 . S
H572 C580 0.949 . S
H573 C581 0.953 . S
H574 C582 0.951 . S
H575 C583 0.951 . S
C576 C570 1.265 . S
C576 H571 0.950 . S
C576 C577 1.478 . S
C577 C564 1.394 . S
C577 C576 1.478 . S
C577 C578 1.397 . S
C578 C577 1.397 . S
C578 C579 1.438 1_645 S
C578 C583 1.429 . S
C579 C562 1.394 . S
C579 C578 1.438 1_465 S
C579 C580 1.428 . S
C580 H572 0.949 . S
C580 C579 1.428 . S
C580 C581 1.345 1_455 S
C581 H573 0.953 . S
C581 C580 1.345 1_655 S
C581 C582 1.424 . S
C582 H574 0.951 . S
C582 C581 1.424 . S
C582 C583 1.347 1_565 S
C583 H575 0.951 . S
C583 C578 1.429 . S
C583 C582 1.347 1_545 S
C105 C23 2.114 . S
C120 C3 2.118 1_556 S
C135 C10 2.116 . S
C150 C16 2.116 . S
C165 C49 2.083 . S
C180 C29 2.083 1_554 S
C195 C36 2.084 . S
C210 C42 2.082 . S
C225 C57 2.112 1_554 S
C240 C66 2.118 . S
C255 C70 2.083 . S
C270 C53 2.082 . S
C285 C83 2.083 1_556 S
C300 C92 2.083 . S
C315 C79 2.085 . S
C330 C96 2.081 . S
C345 C1 0.600 . S
C360 C40 0.601 . S
C375 C14 0.599 . S
C390 C27 0.601 . S
C405 C101 0.602 . S
C420 C62 0.599 . S
C435 C88 0.397 . S
C450 C75 0.421 . S
C465 C5 1.940 . S
C480 C55 1.940 . S
C495 C68 1.930 . S
C510 C18 1.930 . S
C525 C81 1.944 . S
C540 C31 1.944 . S
C555 C94 1.933 . S
C570 C44 1.933 . S
