# Generated by pormake.
# Topology wjf, (4)-cn, num edge types: 1
# Building blocks:
#     Node 0, Type 0, BuildingBlock: ESEHIV_clean_sbu_0, # of connection points: 4
#     Node 1, Type 0, BuildingBlock: ESEHIV_clean_sbu_0, # of connection points: 4
#     Node 2, Type 0, BuildingBlock: ESEHIV_clean_sbu_0, # of connection points: 4
#     Node 3, Type 0, BuildingBlock: ESEHIV_clean_sbu_0, # of connection points: 4
#     Node 4, Type 0, BuildingBlock: ESEHIV_clean_sbu_0, # of connection points: 4
#     Node 5, Type 0, BuildingBlock: ESEHIV_clean_sbu_0, # of connection points: 4
#     Node 6, Type 0, BuildingBlock: ESEHIV_clean_sbu_0, # of connection points: 4
#     Node 7, Type 0, BuildingBlock: ESEHIV_clean_sbu_0, # of connection points: 4
#     Node 8, Type 0, BuildingBlock: ESEHIV_clean_sbu_0, # of connection points: 4
#     Node 9, Type 0, BuildingBlock: ESEHIV_clean_sbu_0, # of connection points: 4
#     Node 10, Type 0, BuildingBlock: ESEHIV_clean_sbu_0, # of connection points: 4
#     Node 11, Type 0, BuildingBlock: ESEHIV_clean_sbu_0, # of connection points: 4
#     Edge 12, Type (0, 0), BuildingBlock: EZIPEK_clean_linker_0, # of connection points: 2
#     Edge 13, Type (0, 0), BuildingBlock: EZIPEK_clean_linker_0, # of connection points: 2
#     Edge 14, Type (0, 0), BuildingBlock: EZIPEK_clean_linker_0, # of connection points: 2
#     Edge 15, Type (0, 0), BuildingBlock: EZIPEK_clean_linker_0, # of connection points: 2
#     Edge 16, Type (0, 0), BuildingBlock: EZIPEK_clean_linker_0, # of connection points: 2
#     Edge 17, Type (0, 0), BuildingBlock: EZIPEK_clean_linker_0, # of connection points: 2
#     Edge 18, Type (0, 0), BuildingBlock: EZIPEK_clean_linker_0, # of connection points: 2
#     Edge 19, Type (0, 0), BuildingBlock: EZIPEK_clean_linker_0, # of connection points: 2
#     Edge 20, Type (0, 0), BuildingBlock: EZIPEK_clean_linker_0, # of connection points: 2
#     Edge 21, Type (0, 0), BuildingBlock: EZIPEK_clean_linker_0, # of connection points: 2
#     Edge 22, Type (0, 0), BuildingBlock: EZIPEK_clean_linker_0, # of connection points: 2
#     Edge 23, Type (0, 0), BuildingBlock: EZIPEK_clean_linker_0, # of connection points: 2
#     Edge 24, Type (0, 0), BuildingBlock: EZIPEK_clean_linker_0, # of connection points: 2
#     Edge 25, Type (0, 0), BuildingBlock: EZIPEK_clean_linker_0, # of connection points: 2
#     Edge 26, Type (0, 0), BuildingBlock: EZIPEK_clean_linker_0, # of connection points: 2
#     Edge 27, Type (0, 0), BuildingBlock: EZIPEK_clean_linker_0, # of connection points: 2
#     Edge 28, Type (0, 0), BuildingBlock: EZIPEK_clean_linker_0, # of connection points: 2
#     Edge 29, Type (0, 0), BuildingBlock: EZIPEK_clean_linker_0, # of connection points: 2
#     Edge 30, Type (0, 0), BuildingBlock: EZIPEK_clean_linker_0, # of connection points: 2
#     Edge 31, Type (0, 0), BuildingBlock: EZIPEK_clean_linker_0, # of connection points: 2
#     Edge 32, Type (0, 0), BuildingBlock: EZIPEK_clean_linker_0, # of connection points: 2
#     Edge 33, Type (0, 0), BuildingBlock: EZIPEK_clean_linker_0, # of connection points: 2
#     Edge 34, Type (0, 0), BuildingBlock: EZIPEK_clean_linker_0, # of connection points: 2
#     Edge 35, Type (0, 0), BuildingBlock: EZIPEK_clean_linker_0, # of connection points: 2
# Relax obj value: 0.112
# Max RMSD: 0.245
# Mean RMSD: 0.245
data_MOF--net-wjf--node1-ESEHIV_clean_sbu_0--edge1-EZIPEK_clean_linker_0
_symmetry_space_group_name_H-M    P1
_symmetry_Int_Tables_number       1
_symmetry_cell_setting            triclinic
loop_
_symmetry_equiv_pos_as_xyz
'x, y, z'
_cell_length_a     45.795203
_cell_length_b     46.097732
_cell_length_c     20.19657
_cell_angle_alpha  90.325617
_cell_angle_beta   90.049726
_cell_angle_gamma 120.079
loop_
_atom_site_label
_atom_site_type_symbol
_atom_site_fract_x
_atom_site_fract_y
_atom_site_fract_z
_atom_type_partial_charge
Cu0 Cu 0.33876 0.38773 0.11453 0.0
N1 N 0.37321 0.43062 0.09432 0.0
N2 N 0.42741 0.46889 0.07955 0.0
C3 C 0.40462 0.44506 0.1199 0.0
C4 C 0.40957 0.47003 1.0275 0.0
C5 C 0.37614 0.44636 1.03671 0.0
O6 O 0.3491 0.37755 0.20257 0.0
C7 C 0.31572 0.34426 0.99962 0.0
O8 O 0.2849 0.3361 1.01681 0.0
H9 H 0.41125 0.43549 0.16271 0.0
H10 H 0.35618 0.43853 1.00039 0.0
N11 N 0.29754 0.38682 0.11879 0.0
N12 N 0.25299 0.39222 0.09505 0.0
C13 C 0.28371 0.39852 0.07507 0.0
C14 C 0.27489 0.37314 0.16797 0.0
C15 C 0.2473 0.37638 0.1534 0.0
C16 C 0.33671 0.34909 0.23034 0.0
O17 O 0.31648 0.32173 0.1968 0.0
H18 H 0.29561 0.41106 1.02952 0.0
H19 H 0.2782 0.36152 0.21135 0.0
O20 O 0.34014 0.36126 1.03949 0.0
H21 H 0.4204 0.48482 0.9834 0.0
H22 H 0.22473 0.36766 0.18288 0.0
Cu23 Cu 0.95561 0.33456 0.47023 0.0
N24 N 0.95514 0.37356 0.44863 0.0
N25 N 0.97284 0.42803 0.43819 0.0
C26 C 0.97429 0.4044 0.47499 0.0
C27 C 0.95155 0.41135 0.38773 0.0
C28 C 0.94045 0.37773 0.39464 0.0
O29 O 0.98184 0.34326 0.55206 0.0
C30 C 0.99338 0.3439 0.35269 0.0
O31 O 0.00884 0.37556 0.37068 0.0
H32 H 0.99083 0.40974 0.51724 0.0
H33 H 0.92434 0.35793 0.36058 0.0
N34 N 0.91114 0.30103 0.48437 0.0
N35 N 0.85943 0.25806 0.4655 0.0
C36 C 0.89036 0.27796 0.44005 0.0
C37 C 0.89262 0.29569 0.53944 0.0
C38 C 0.86065 0.26891 0.52811 0.0
C39 C 0.97812 0.32076 0.59316 0.0
O40 O 0.95826 0.289 0.57785 0.0
H41 H 0.89754 0.27589 0.39002 0.0
H42 H 0.90158 0.31066 0.58415 0.0
O43 O 0.97228 0.32179 0.39206 0.0
H44 H 0.94559 0.42291 0.3474 0.0
H45 H 0.83972 0.25866 0.56237 0.0
Cu46 Cu 0.63315 0.95634 0.79772 0.0
N47 N 0.58892 0.94784 0.79188 0.0
N48 N 0.54962 0.96268 0.78145 0.0
C49 C 0.57833 0.96888 0.81245 0.0
C50 C 0.54141 0.93628 0.74107 0.0
C51 C 0.56571 0.9272 0.74755 0.0
O52 O 0.6548 0.98345 0.87614 0.0
C53 C 0.67308 0.97436 0.67889 0.0
O54 O 0.68591 0.95624 0.7002 0.0
H55 H 0.59318 0.9905 0.84387 0.0
H56 H 0.56806 0.90913 0.71713 0.0
N57 N 0.63453 0.91665 0.80269 0.0
N58 N 0.63083 0.86795 0.77642 0.0
C59 C 0.62239 0.89099 0.75899 0.0
C60 C 0.6512 0.90948 0.84879 0.0
C61 C 0.64886 0.8793 0.83279 0.0
C62 C 0.63933 0.97456 0.93123 0.0
O63 O 0.60937 0.9475 0.93352 0.0
H64 H 0.60874 0.88972 0.71432 0.0
H65 H 0.66514 0.9257 0.88983 0.0
O66 O 0.65345 0.97931 0.71566 0.0
H67 H 0.52072 0.926 0.70586 0.0
H68 H 0.66024 0.86705 0.85919 0.0
Cu69 Cu 0.66487 0.60719 0.11241 0.0
N70 N 0.62597 0.56609 0.0981 0.0
N71 N 0.57115 0.52962 0.08344 0.0
C72 C 0.59427 0.55871 0.11218 0.0
C73 C 0.58909 0.51786 0.05173 0.0
C74 C 0.62292 0.54037 0.06103 0.0
O75 O 0.65817 0.62539 0.19398 0.0
C76 C 0.6707 0.62568 0.97937 0.0
O77 O 0.67443 0.59943 0.97152 0.0
H78 H 0.58826 0.57523 0.13979 0.0
H79 H 0.64378 0.53908 1.03912 0.0
N80 N 0.70172 0.60048 0.11878 0.0
N81 N 0.74997 0.60143 0.09865 0.0
C82 C 0.72973 0.61356 0.08124 0.0
C83 C 0.70454 0.57953 0.1611 0.0
C84 C 0.73443 0.58011 0.14884 0.0
C85 C 0.68024 0.6397 0.2392 0.0
O86 O 0.71087 0.64467 0.2314 0.0
H87 H 0.73497 0.6311 1.04143 0.0
H88 H 0.68583 0.5645 0.19761 0.0
O89 O 0.6683 0.63499 1.03755 0.0
H90 H 0.57847 0.49533 1.02157 0.0
H91 H 0.74377 0.56561 0.17372 0.0
Cu92 Cu 0.07557 0.66698 0.4463 0.0
N93 N 0.07225 0.62546 0.43153 0.0
N94 N 0.05161 0.5702 0.42762 0.0
C95 C 0.05143 0.59578 0.46014 0.0
C96 C 0.07374 0.5843 0.37771 0.0
C97 C 0.08653 0.61835 0.38044 0.0
O98 O 0.06204 0.66955 0.53684 0.0
C99 C 0.05952 0.67615 0.31683 0.0
O100 O 0.09027 0.68217 0.30561 0.0
H101 H 0.03522 0.59266 0.50162 0.0
H102 H 0.104 0.63655 0.34582 0.0
N103 N 0.12078 0.6998 0.43846 0.0
N104 N 0.16783 0.74746 0.41607 0.0
C105 C 0.13385 0.73132 0.41603 0.0
C106 C 0.14742 0.69614 0.45352 0.0
C107 C 0.17662 0.7256 0.43946 0.0
C108 C 0.03264 0.65169 0.56077 0.0
O109 O 1.00764 0.63097 0.52219 0.0
H110 H 0.11888 0.74198 0.39877 0.0
H111 H 0.14563 0.67343 0.47258 0.0
O112 O 0.04846 0.67132 0.37616 0.0
H113 H 0.07952 0.57072 0.34098 0.0
H114 H 0.20223 0.73054 0.44496 0.0
Cu115 Cu 0.41563 0.06765 0.79686 0.0
N116 N 0.45216 0.06322 0.77019 0.0
N117 N 0.48646 0.04215 0.76089 0.0
C118 C 0.46482 0.04591 0.80048 0.0
C119 C 0.48775 0.058 0.70411 0.0
C120 C 0.46677 0.0712 0.7102 0.0
O121 O 0.40145 0.0477 0.8841 0.0
C122 C 0.37848 0.02412 0.69111 0.0
O123 O 0.39443 0.0083 0.70845 0.0
H124 H 0.45674 0.03446 0.84864 0.0
H125 H 0.46099 0.08398 0.67216 0.0
N126 N 0.42953 0.11299 0.80382 0.0
N127 N 0.43487 0.1628 0.7834 0.0
C128 C 0.42219 0.131 0.76183 0.0
C129 C 0.44752 0.13414 0.85337 0.0
C130 C 0.45077 0.16503 0.84098 0.0
C131 C 0.38314 0.05391 0.92235 0.0
O132 O 0.3696 0.07125 0.90009 0.0
H133 H 0.40742 0.12096 0.71701 0.0
H134 H 0.45712 0.12737 0.89593 0.0
O135 O 0.3813 0.0482 0.72709 0.0
H136 H 0.502 0.05891 0.66064 0.0
H137 H 0.46357 0.1873 0.87171 0.0
Cu138 Cu 0.61452 0.66751 0.61437 0.0
N139 N 0.57322 0.62768 0.61941 0.0
N140 N 0.53617 0.57282 0.62398 0.0
C141 C 0.56593 0.59682 0.59931 0.0
C142 C 0.524 0.5893 0.65945 0.0
C143 C 0.54678 0.6231 0.65619 0.0
O144 O 0.63879 0.66729 0.53607 0.0
C145 C 0.62934 0.67096 0.75029 0.0
O146 O 0.60253 0.67415 0.75606 0.0
H147 H 0.58293 0.59187 0.57061 0.0
H148 H 0.54513 0.64284 0.68201 0.0
N149 N 0.60659 0.70338 0.61165 0.0
N150 N 0.6062 0.75017 0.63748 0.0
C151 C 0.62025 0.73113 0.65 0.0
C152 C 0.58336 0.70518 0.57366 0.0
C153 C 0.58302 0.73411 0.58964 0.0
C154 C 0.62374 0.65731 0.48063 0.0
O155 O 0.59162 0.64803 0.4758 0.0
H156 H 0.6392 0.73673 0.68771 0.0
H157 H 0.56708 0.6862 0.53832 0.0
O158 O 0.63986 0.66925 0.69295 0.0
H159 H 0.50082 0.57754 0.68763 0.0
H160 H 0.56653 0.74232 0.56923 0.0
Cu161 Cu 0.95676 0.6211 0.94877 0.0
N162 N 0.94423 0.5762 0.96102 0.0
N163 N 0.95601 0.53499 0.97344 0.0
C164 C 0.96337 0.56327 0.94069 0.0
C165 C 0.9305 0.52927 1.0145 0.0
C166 C 0.92323 0.55469 1.00668 0.0
O167 O 0.97569 0.63295 0.85992 0.0
C168 C 0.97678 0.64131 0.07988 0.0
O169 O 0.94417 0.62249 0.0891 0.0
H170 H 0.98489 0.57638 0.90844 0.0
H171 H 0.90643 0.55889 1.03741 0.0
N172 N 0.92015 0.62855 0.9507 0.0
N173 N 0.87257 0.62824 0.97552 0.0
C174 C 0.8916 0.61399 0.98687 0.0
C175 C 0.91872 0.65253 0.91541 0.0
C176 C 0.88937 0.65244 0.93069 0.0
C177 C 1.00653 0.64606 0.84353 0.0
O178 O 0.02983 0.65481 0.8895 0.0
H179 H 0.8851 0.59406 1.02185 0.0
H180 H 0.93809 0.66937 0.88172 0.0
O181 O 0.98838 0.64587 1.02103 0.0
H182 H 0.91994 0.50976 0.05145 0.0
H183 H 0.88122 0.66912 0.9115 0.0
Cu184 Cu 0.34408 0.96622 0.30306 0.0
N185 N 0.37716 0.95419 0.31291 0.0
N186 N 0.43013 0.96432 0.32093 0.0
C187 C 0.40811 0.96938 0.28533 0.0
C188 C 0.41225 0.94454 0.37161 0.0
C189 C 0.37967 0.93839 0.36662 0.0
O190 O 0.34928 0.98857 0.21868 0.0
C191 C 0.32606 0.98545 0.42486 0.0
O192 O 0.29461 0.96376 0.40941 0.0
H193 H 0.41548 0.98699 0.24504 0.0
H194 H 0.3604 0.92671 0.40399 0.0
N195 N 0.30121 0.92825 0.3005 0.0
N196 N 0.25625 0.87823 0.31903 0.0
C197 C 0.28911 0.89908 0.33319 0.0
C198 C 0.27511 0.92548 0.26461 0.0
C199 C 0.24724 0.89456 0.27599 0.0
C200 C 0.37434 0.01589 0.19915 0.0
O201 O 0.39948 0.03389 0.23994 0.0
H202 H 0.30373 0.89326 0.36701 0.0
H203 H 0.27629 0.94483 0.23279 0.0
O204 O 0.34933 0.99279 0.38251 0.0
H205 H 0.42281 0.93771 0.41259 0.0
H206 H 0.22231 0.88478 0.25472 0.0
Cu207 Cu 0.39477 0.33409 0.6241 0.0
N208 N 0.43247 0.3759 0.64295 0.0
N209 N 0.4694 0.43086 0.64425 0.0
C210 C 0.44665 0.4045 0.60765 0.0
C211 C 0.47009 0.41827 0.7039 0.0
C212 C 0.44761 0.38439 0.70269 0.0
O213 O 0.37589 0.33255 0.53616 0.0
C214 C 0.36148 0.3451 0.73179 0.0
O215 O 0.37651 0.37591 0.7093 0.0
H216 H 0.43917 0.40647 0.55785 0.0
H217 H 0.44127 0.36739 0.7438 0.0
N218 N 0.40904 0.3028 0.62067 0.0
N219 N 0.42052 0.26281 0.64768 0.0
C220 C 0.41053 0.28407 0.67005 0.0
C221 C 0.41856 0.29314 0.56566 0.0
C222 C 0.42564 0.26835 0.58219 0.0
C223 C 0.36934 0.3538 0.51041 0.0
O224 O 0.37255 0.37923 0.54576 0.0
H225 H 0.40386 0.28546 0.72087 0.0
H226 H 0.41977 0.30314 0.51677 0.0
O227 O 0.36333 0.32243 0.69863 0.0
H228 H 0.48498 0.43284 0.746 0.0
H229 H 0.4336 0.25517 0.54891 0.0
Cu230 Cu 0.05823 0.39769 0.97564 0.0
N231 N 0.05536 0.43606 0.99025 0.0
N232 N 0.03466 0.47072 0.99724 0.0
C233 C 0.03432 0.44523 0.96301 0.0
C234 C 0.05712 0.47809 0.04679 0.0
C235 C 0.06979 0.45671 0.04235 0.0
O236 O 0.03178 0.37427 0.89652 0.0
C237 C 0.01852 0.34581 0.07342 0.0
O238 O 0.99958 0.32577 1.02556 0.0
H239 H 0.0178 0.43237 0.92144 0.0
H240 H 0.08687 0.45496 0.07695 0.0
N241 N 0.10354 0.41085 0.96358 0.0
N242 N 0.15398 0.41559 0.97749 0.0
C243 C 0.12159 0.40008 0.99745 0.0
C244 C 0.12531 0.43393 0.92097 0.0
C245 C 0.15662 0.43692 0.92947 0.0
C246 C 0.0422 0.36138 0.85309 0.0
O247 O 0.06987 0.36027 0.86431 0.0
H248 H 0.11138 0.38162 1.03642 0.0
H249 H 0.11886 0.44779 0.88665 0.0
O250 O 0.04367 0.37429 0.05985 0.0
H251 H 0.06288 0.49672 0.08516 0.0
H252 H 0.17955 0.45356 0.90317 0.0
Cu253 Cu 0.67001 0.05833 0.31133 0.0
N254 N 0.62872 0.05386 0.33567 0.0
N255 N 0.5734 0.03472 0.34141 0.0
C256 C 0.59873 0.03638 0.30442 0.0
C257 C 0.58802 0.05219 0.39727 0.0
C258 C 0.62217 0.06405 0.3935 0.0
O259 O 0.66412 0.03506 0.22728 0.0
C260 C 0.66332 0.01503 0.41553 0.0
O261 O 0.63173 0.99823 0.39574 0.0
H262 H 0.59532 0.02398 0.257 0.0
H263 H 0.64081 0.07811 0.43124 0.0
N264 N 0.70162 0.1038 0.30503 0.0
N265 N 0.74552 0.15399 0.32953 0.0
C266 C 0.72708 0.12166 0.3478 0.0
C267 C 0.7038 0.12568 0.25869 0.0
C268 C 0.73115 0.15674 0.27343 0.0
C269 C 0.68584 0.04552 0.18103 0.0
O270 O 0.7153 0.0727 0.18959 0.0
H271 H 0.73202 0.11125 0.39143 0.0
H272 H 0.68664 0.11948 0.21733 0.0
O273 O 0.68462 0.04013 0.38238 0.0
H274 H 0.57475 0.0555 0.43831 0.0
H275 H 0.73965 0.17963 0.24578 0.0
C276 C 0.31854 0.33695 0.35003 0.0
C277 C 0.34447 0.34744 0.3017 0.0
C278 C 0.386 0.35875 0.39027 0.0
C279 C 0.36063 0.35115 0.4386 0.0
N280 N 0.30356 0.33591 0.46585 0.0
N281 N 0.40324 0.37008 0.27512 0.0
C282 C 0.32712 0.34103 0.41878 0.0
C283 C 0.37831 0.35881 0.32174 0.0
N284 N 0.28558 0.32278 0.33035 0.0
N285 N 0.41744 0.36558 0.4099 0.0
H286 H 0.3984 0.36805 0.22433 0.0
H287 H 0.42888 0.38287 0.2864 0.0
H288 H 0.42465 0.36748 0.45941 0.0
H289 H 0.43591 0.36738 0.37747 0.0
H290 H 0.26522 0.31109 0.3625 0.0
H291 H 0.27812 0.32034 0.281 0.0
H292 H 0.27986 0.33264 0.45513 0.0
H293 H 0.30842 0.33704 0.51655 0.0
C294 C 0.97479 0.31807 0.71846 0.0
C295 C 0.99451 0.33057 0.65996 0.0
C296 C 0.04429 0.36624 0.72875 0.0
C297 C 0.02545 0.35097 0.78691 0.0
N298 N 0.97409 0.30805 0.83638 0.0
N299 N 0.04964 0.36163 0.61038 0.0
C300 C 0.99104 0.32568 0.78157 0.0
C301 C 0.02973 0.35331 0.66539 0.0
N302 N 0.94036 0.3003 0.71434 0.0
N303 N 0.07563 0.39408 0.73376 0.0
H304 H 0.04019 0.35201 0.56336 0.0
H305 H 0.0759 0.3753 0.61242 0.0
H306 H 0.08687 0.40507 0.77897 0.0
H307 H 0.089 0.40832 0.69306 0.0
H308 H 0.92473 0.29387 0.75557 0.0
H309 H 0.9272 0.29473 0.66972 0.0
H310 H 0.95016 0.28681 0.83428 0.0
H311 H 0.98511 0.31274 0.88332 0.0
C312 C 0.66084 0.97852 0.04747 0.0
C313 C 0.65456 0.99412 0.99298 0.0
C314 C 0.66941 0.04377 0.06189 0.0
C315 C 0.67663 0.02854 0.11552 0.0
N316 N 0.68497 0.98446 0.15738 0.0
N317 N 0.65708 0.04321 0.94493 0.0
C318 C 0.67394 0.99673 0.10774 0.0
C319 C 0.66044 0.02737 0.99902 0.0
N320 N 0.65395 0.9461 1.04182 0.0
N321 N 0.66933 0.0731 0.0721 0.0
H322 H 0.64823 0.03151 0.89915 0.0
H323 H 0.66506 0.06868 0.94392 0.0
H324 H 0.67605 0.08603 0.1171 0.0
H325 H 0.66028 0.08351 1.03786 0.0
H326 H 0.65365 0.93179 0.08175 0.0
H327 H 0.64684 0.93268 0.9974 0.0
H328 H 0.68724 0.96319 0.15262 0.0
H329 H 0.69449 0.99709 0.20224 0.0
C330 C 0.66439 0.62547 0.35808 0.0
C331 C 0.66982 0.64691 0.30364 0.0
C332 C 0.64692 0.67658 0.36675 0.0
C333 C 0.64194 0.65546 0.42163 0.0
N334 N 0.65076 0.61354 0.47434 0.0
N335 N 0.67219 0.69623 0.25854 0.0
C336 C 0.65246 0.63125 0.41893 0.0
C337 C 0.6628 0.67348 0.3087 0.0
N338 N 0.66879 0.59838 0.35038 0.0
N339 N 0.63613 0.69937 0.37005 0.0
H340 H 0.68389 0.69457 0.21551 0.0
H341 H 0.67093 0.71811 0.26129 0.0
H342 H 0.62668 0.70408 0.41325 0.0
H343 H 0.6351 0.71265 0.32949 0.0
H344 H 0.66125 0.57937 0.38508 0.0
H345 H 0.67791 0.59347 0.30697 0.0
H346 H 0.66177 0.59858 0.47789 0.0
H347 H 0.64031 0.61541 0.51883 0.0
C348 C 1.00531 0.66752 0.72967 0.0
C349 C 0.01553 0.64961 0.77187 0.0
C350 C 0.0408 0.63698 0.67653 0.0
C351 C 0.02743 0.65179 0.63353 0.0
N352 N 0.9941 0.67834 0.61766 0.0
N353 N 0.03817 0.61253 0.78379 0.0
C354 C 1.00874 0.66614 0.65971 0.0
C355 C 0.03227 0.63331 0.74499 0.0
N356 N 0.99371 0.68709 0.75676 0.0
N357 N 0.06161 0.62621 0.65205 0.0
H358 H 0.03205 0.60865 0.83383 0.0
H359 H 0.04641 0.59675 0.76525 0.0
H360 H 0.06703 0.62654 0.60188 0.0
H361 H 0.0755 0.61917 0.682 0.0
H362 H 0.98901 0.70339 0.72939 0.0
H363 H 0.99184 0.68952 0.80772 0.0
H364 H 0.97684 0.68543 0.63294 0.0
H365 H 0.9975 0.67938 0.56649 0.0
C366 C 0.38218 0.05807 0.1117 0.0
C367 C 0.37621 0.0257 0.1284 0.0
C368 C 0.3696 0.01045 1.01028 0.0
C369 C 0.3796 0.04399 0.99336 0.0
N370 N 0.4026 0.10162 1.02913 0.0
N371 N 0.37171 0.97349 0.09221 0.0
C372 C 0.38778 0.06836 0.04436 0.0
C373 C 0.37191 1.00249 0.07732 0.0
N374 N 0.38139 0.07867 0.15971 0.0
N375 N 0.35679 0.98588 0.96278 0.0
H376 H 0.37481 0.96719 0.14015 0.0
H377 H 0.37213 0.95742 0.05621 0.0
H378 H 0.35376 0.99048 0.91346 0.0
H379 H 0.34594 0.96048 0.97363 0.0
H380 H 0.38201 0.10108 0.14924 0.0
H381 H 0.37671 0.07186 0.20939 0.0
H382 H 0.41231 0.12058 0.06488 0.0
H383 H 0.40847 0.11065 0.98098 0.0
C384 C 0.18497 0.38472 0.97947 0.0
C385 C 0.18054 0.41107 1.00401 0.0
C386 C 0.22754 0.42786 0.08166 0.0
C387 C 0.23009 0.39984 0.06102 0.0
N388 N 0.2106 0.35006 0.9948 0.0
N389 N 0.19504 0.45642 0.08034 0.0
C390 C 0.20877 0.37794 1.01067 0.0
C391 C 0.2013 0.43246 0.05548 0.0
N392 N 0.16649 0.36656 0.9259 0.0
N393 N 0.25066 0.45017 0.12568 0.0
H394 H 0.17624 0.46048 0.06112 0.0
H395 H 0.20696 0.47097 0.12202 0.0
H396 H 0.26995 0.44703 0.14547 0.0
H397 H 0.2523 0.47276 0.13915 0.0
H398 H 0.17027 0.34882 0.90133 0.0
H399 H 0.14852 0.37086 0.90325 0.0
H400 H 0.19383 0.3312 0.96298 0.0
H401 H 0.22805 0.34482 1.01673 0.0
C402 C 0.83125 0.2028 0.40945 0.0
C403 C 0.83061 0.2317 0.43144 0.0
C404 C 0.77245 0.20757 0.39166 0.0
C405 C 0.77431 0.18029 0.3638 0.0
N406 N 0.80726 0.15463 0.33556 0.0
N407 N 0.80342 0.26484 0.43208 0.0
C408 C 0.80425 0.17862 0.36979 0.0
C409 C 0.80194 0.235 0.41941 0.0
N410 N 0.85713 0.19802 0.42846 0.0
N411 N 0.74218 0.20661 0.39376 0.0
H412 H 0.8251 0.28575 0.45036 0.0
H413 H 0.78441 0.26979 0.41846 0.0
H414 H 0.71994 0.18634 0.37556 0.0
H415 H 0.73856 0.2243 0.41911 0.0
H416 H 0.85748 0.17594 0.41927 0.0
H417 H 0.87682 0.21499 0.45884 0.0
H418 H 0.82965 0.154 0.33289 0.0
H419 H 0.78818 0.13715 0.30472 0.0
C420 C 0.5975 0.80679 0.76069 0.0
C421 C 0.62411 0.83831 0.74017 0.0
C422 C 0.6376 0.81161 0.64935 0.0
C423 C 0.61235 0.77995 0.67234 0.0
N424 N 0.57018 0.74609 0.75192 0.0
N425 N 0.67199 0.87142 0.671 0.0
C426 C 0.59277 0.77717 0.72869 0.0
C427 C 0.64482 0.84095 0.68586 0.0
N428 N 0.57643 0.80555 0.80981 0.0
N429 N 0.6542 0.81336 0.59203 0.0
H430 H 0.67774 0.89317 0.69736 0.0
H431 H 0.69003 0.87496 0.63577 0.0
H432 H 0.64978 0.79201 0.56559 0.0
H433 H 0.67073 0.83569 0.56856 0.0
H434 H 0.55464 0.7838 0.82382 0.0
H435 H 0.57968 0.82705 0.83399 0.0
H436 H 0.55717 0.74192 0.79627 0.0
H437 H 0.56586 0.72408 0.72833 0.0
C438 C 0.81193 0.63462 0.09186 0.0
C439 C 0.78093 0.60818 0.06749 0.0
C440 C 0.81055 0.59526 0.98162 0.0
C441 C 0.84163 0.6208 1.00771 0.0
N442 N 0.87325 0.66269 0.09018 0.0
N443 N 0.74968 0.56129 0.9944 0.0
C444 C 0.84269 0.63995 0.06366 0.0
C445 C 0.77996 0.58788 1.01369 0.0
N446 N 0.8116 0.65484 0.14121 0.0
N447 N 0.81058 0.57878 0.9252 0.0
H448 H 0.72691 0.55606 1.01615 0.0
H449 H 0.74707 0.54344 0.95953 0.0
H450 H 0.83283 0.58348 0.90182 0.0
H451 H 0.7889 0.56185 0.89953 0.0
H452 H 0.8329 0.67648 0.15799 0.0
H453 H 0.78928 0.65084 0.16326 0.0
H454 H 0.87625 0.67574 0.13419 0.0
H455 H 0.89604 0.66713 0.06975 0.0
C456 C 0.20197 0.78456 0.32587 0.0
C457 C 0.19027 0.78052 0.39183 0.0
C458 C 0.2216 0.84129 0.40933 0.0
C459 C 0.23478 0.84519 0.34453 0.0
N460 N 0.24182 0.82153 0.24381 0.0
N461 N 0.19094 0.8033 0.49926 0.0
C462 C 0.22611 0.81703 0.30344 0.0
C463 C 0.20071 0.80847 0.4345 0.0
N464 N 0.18926 0.7573 0.28462 0.0
N465 N 0.22828 0.86908 0.44553 0.0
H466 H 0.17507 0.77942 0.51814 0.0
H467 H 0.20003 0.82218 0.53507 0.0
H468 H 0.2435 0.89335 0.42787 0.0
H469 H 0.21716 0.86828 0.4909 0.0
H470 H 0.19412 0.75872 0.23407 0.0
H471 H 0.17185 0.73319 0.30042 0.0
H472 H 0.2391 0.80197 0.21359 0.0
H473 H 0.25972 0.84517 0.22668 0.0
C474 C 0.46006 0.21637 0.72314 0.0
C475 C 0.43147 0.18883 0.75175 0.0
C476 C 0.39528 0.20967 0.70965 0.0
C477 C 0.42423 0.23841 0.68514 0.0
N478 N 0.48453 0.27245 0.6782 0.0
N479 N 0.37313 0.16193 0.78333 0.0
C480 C 0.45679 0.24273 0.69478 0.0
C481 C 0.39938 0.18626 0.74823 0.0
N482 N 0.48994 0.21653 0.72077 0.0
N483 N 0.36392 0.20413 0.69357 0.0
H484 H 0.37569 0.14481 0.81278 0.0
H485 H 0.34982 0.16055 0.78793 0.0
H486 H 0.3602 0.2206 0.66439 0.0
H487 H 0.34173 0.182 0.70434 0.0
H488 H 0.51093 0.23424 0.69483 0.0
H489 H 0.49284 0.19721 0.74022 0.0
H490 H 0.50913 0.27848 0.68954 0.0
H491 H 0.4827 0.2923 0.65819 0.0
C492 C 0.32097 0.34857 0.81014 0.0
C493 C 0.34488 0.33824 0.79809 0.0
C494 C 0.34265 0.32398 0.91614 0.0
C495 C 0.32322 0.3395 0.92959 0.0
N496 N 0.29862 0.37191 0.88893 0.0
N497 N 0.38165 0.31937 0.84197 0.0
C498 C 0.31326 0.35289 0.87642 0.0
C499 C 0.3563 0.32638 0.85155 0.0
N500 N 0.30533 0.354 0.75796 0.0
N501 N 0.34767 0.3065 0.96492 0.0
H502 H 0.39256 0.32081 0.79608 0.0
H503 H 0.39376 0.31465 0.8806 0.0
H504 H 0.33781 0.30406 1.01245 0.0
H505 H 0.35868 0.29178 0.95651 0.0
H506 H 0.28523 0.35836 0.76358 0.0
H507 H 0.31004 0.35054 0.70882 0.0
H508 H 0.29448 0.38534 0.85244 0.0
H509 H 0.29369 0.37723 0.93634 0.0
C510 C 0.9704 0.32853 0.23669 0.0
C511 C 0.99671 0.33556 0.2826 0.0
C512 C 0.03324 0.33898 0.19015 0.0
C513 C 0.00901 0.33768 0.1444 0.0
N514 N 0.9559 0.33564 0.12507 0.0
N515 N 0.05355 0.34798 0.30383 0.0
C516 C 0.97767 0.33301 0.16773 0.0
C517 C 0.0282 0.34069 0.25948 0.0
N518 N 0.93851 0.3182 0.25879 0.0
N519 N 0.06079 0.338 0.16711 0.0
H520 H 0.05 0.34736 0.35495 0.0
H521 H 0.07837 0.35609 0.29012 0.0
H522 H 0.06475 0.33611 0.11677 0.0
H523 H 0.07796 0.33591 0.19763 0.0
H524 H 0.91762 0.30921 0.22749 0.0
H525 H 0.93222 0.31551 0.30869 0.0
H526 H 0.93483 0.33679 0.14063 0.0
H527 H 0.96028 0.33979 0.07449 0.0
C528 C 0.69042 0.02019 0.59619 0.0
C529 C 0.6775 0.98572 0.6091 0.0
C530 C 0.66549 0.97318 0.49061 0.0
C531 C 0.67275 0.0065 0.47996 0.0
N532 N 0.68931 0.0615 0.52467 0.0
N533 N 0.64946 0.92837 0.56927 0.0
C534 C 0.685 0.03018 0.533 0.0
C535 C 0.66461 0.96191 0.55638 0.0
N536 N 0.7081 0.04341 0.64442 0.0
N537 N 0.65978 0.9524 0.43762 0.0
H538 H 0.64784 0.91873 0.61647 0.0
H539 H 0.63605 0.90986 0.53382 0.0
H540 H 0.66067 0.96011 0.3888 0.0
H541 H 0.65761 0.92888 0.44166 0.0
H542 H 0.72106 0.06915 0.63612 0.0
H543 H 0.71263 0.03679 0.69105 0.0
H544 H 0.69411 0.07819 0.5637 0.0
H545 H 0.68549 0.07011 0.47981 0.0
C546 C 0.62086 0.62645 0.83016 0.0
C547 C 0.64089 0.65997 0.80838 0.0
C548 C 0.68185 0.6711 0.89739 0.0
C549 C 0.66045 0.63828 0.92175 0.0
N550 N 0.6065 0.58707 0.91964 0.0
N551 N 0.68825 0.71559 0.82397 0.0
C552 C 0.62911 0.61659 0.89038 0.0
C553 C 0.67084 0.68275 0.84274 0.0
N554 N 0.59441 0.60366 0.79222 0.0
N555 N 0.713 0.69065 0.92527 0.0
H556 H 0.68116 0.72458 0.78331 0.0
H557 H 0.7083 0.73433 0.85087 0.0
H558 H 0.72147 0.68296 0.96586 0.0
H559 H 0.73128 0.71344 0.90581 0.0
H560 H 0.58137 0.57801 0.80143 0.0
H561 H 0.58729 0.60987 0.74794 0.0
H562 H 0.58174 0.57207 0.90324 0.0
H563 H 0.61128 0.57904 0.96429 0.0
C564 C 0.01459 0.63382 0.24195 0.0
C565 C 0.03641 0.66798 0.25919 0.0
C566 C 0.01934 0.68534 0.158 0.0
C567 C 0.99945 0.6512 0.13872 0.0
N568 N 0.98373 0.59341 0.15508 0.0
N569 N 0.06301 0.72644 0.23077 0.0
C570 C 0.99854 0.62556 0.17887 0.0
C571 C 0.03983 0.69382 0.21623 0.0
N572 N 0.00919 0.60911 0.28579 0.0
N573 N 0.01773 0.7095 0.12194 0.0
H574 H 0.0771 0.73363 0.27455 0.0
H575 H 0.06963 0.74614 0.19808 0.0
H576 H 1.00351 0.70416 0.07854 0.0
H577 H 0.02861 0.73442 0.1371 0.0
H578 H 0.99062 0.58411 0.27934 0.0
H579 H 0.02134 0.61378 0.33148 0.0
H580 H 0.98546 0.57424 0.1784 0.0
H581 H 0.97258 0.58654 0.10837 0.0
C582 C 0.3274 0.97138 0.54492 0.0
C583 C 0.33557 0.99598 0.49512 0.0
C584 C 0.37035 0.04022 0.57547 0.0
C585 C 0.36046 0.01571 0.62615 0.0
N586 N 0.32265 0.95934 0.66231 0.0
N587 N 0.35849 0.05401 0.46658 0.0
C588 C 0.33666 0.98174 0.61179 0.0
C589 C 0.35499 0.03049 0.51166 0.0
N590 N 0.31294 0.9382 0.52814 0.0
N591 N 0.39593 0.07231 0.58644 0.0
H592 H 0.34752 0.04768 0.41954 0.0
H593 H 0.36942 0.07943 0.478 0.0
H594 H 0.40844 0.0807 0.63158 0.0
H595 H 0.40678 0.08999 0.54898 0.0
H596 H 0.30988 0.91978 0.56162 0.0
H597 H 0.30714 0.92929 0.47963 0.0
H598 H 0.30274 0.93494 0.65542 0.0
H599 H 0.3285 0.96627 0.71196 0.0
C600 C 0.47909 0.46426 0.08703 0.0
C601 C 0.46367 0.48431 0.0828 0.0
C602 C 0.5194 0.53417 0.06938 0.0
C603 C 0.53484 0.51476 0.08321 0.0
N604 N 0.53008 0.46349 0.11815 0.0
N605 N 0.46955 0.53918 0.08272 0.0
C606 C 0.51458 0.48023 0.09607 0.0
C607 C 0.48401 0.51959 0.07795 0.0
N608 N 0.46043 0.4304 0.0773 0.0
N609 N 0.53793 0.56564 0.04402 0.0
H610 H 0.44377 0.52918 0.09076 0.0
H611 H 0.48359 0.56527 0.08538 0.0
H612 H 0.5633 0.5761 1.03172 0.0
H613 H 0.52719 0.57963 1.0278 0.0
H614 H 0.47112 0.41513 0.07345 0.0
H615 H 0.43494 0.41814 0.06459 0.0
H616 H 0.51729 0.43862 0.13372 0.0
H617 H 0.51729 0.43862 0.13372 0.0
C618 C 0.04767 0.51582 0.44875 0.0
C619 C 0.03141 0.53475 0.43987 0.0
C620 C 0.97666 0.48334 0.44695 0.0
C621 C 0.99287 0.46398 0.44513 0.0
N622 N 0.04454 0.46255 0.43077 0.0
N623 N 0.97949 0.53587 0.42575 0.0
C624 C 0.02866 0.48037 0.44315 0.0
C625 C 0.99569 0.51839 0.43802 0.0
N626 N 0.0813 0.53184 0.46352 0.0
N627 N 0.94277 0.46883 0.45606 0.0
H628 H 0.99207 0.56118 0.41355 0.0
H629 H 0.95321 0.52433 0.42407 0.0
H630 H 0.92702 0.44336 0.46558 0.0
H631 H 0.92702 0.44336 0.46558 0.0
H632 H 0.09397 0.51917 0.47638 0.0
H633 H 0.09556 0.55779 0.46997 0.0
H634 H 0.07039 0.47383 0.42234 0.0
H635 H 0.03164 0.43686 0.42164 0.0
C636 C 0.49939 0.96887 0.79568 0.0
C637 C 0.53419 0.98338 0.78117 0.0
C638 C 0.53805 0.03785 0.76692 0.0
C639 C 0.50255 0.02259 0.77289 0.0
N640 N 0.44854 0.97167 0.77923 0.0
N641 N 0.58592 0.03156 0.74356 0.0
C642 C 0.48288 0.98755 0.78409 0.0
C643 C 0.5533 0.01779 0.7643 0.0
N644 N 0.48234 0.93748 0.82198 0.0
N645 N 0.55809 0.07171 0.76269 0.0
H646 H 0.59741 0.01741 0.73368 0.0
H647 H 0.60053 0.05687 0.73137 0.0
H648 H 0.54918 0.08849 0.76689 0.0
H649 H 0.54918 0.08849 0.76689 0.0
H650 H 0.45769 0.92676 0.83935 0.0
H651 H 0.49407 0.92361 0.83259 0.0
H652 H 0.43322 0.94569 0.78051 0.0
H653 H 0.43554 0.98406 0.76694 0.0
C654 C 0.53878 0.52047 0.6387 0.0
C655 C 0.52092 0.53682 0.61904 0.0
C656 C 0.46872 0.48244 0.61138 0.0
C657 C 0.48694 0.466 0.62765 0.0
N658 N 0.54127 0.47007 0.64413 0.0
N659 N 0.4716 0.53254 0.56724 0.0
C660 C 0.52243 0.48511 0.6363 0.0
C661 C 0.48671 0.51745 0.59902 0.0
N662 N 0.57107 0.53822 0.66216 0.0
N663 N 0.43428 0.46543 0.61279 0.0
H664 H 0.48465 0.55795 0.5553 0.0
H665 H 0.44753 0.5192 0.54641 0.0
H666 H 0.41998 0.44035 0.62611 0.0
H667 H 0.42002 0.47719 0.60767 0.0
H668 H 0.58458 0.52662 0.67691 0.0
H669 H 0.58353 0.56392 0.671 0.0
H670 H 0.53143 0.44421 0.64061 0.0
H671 H 0.53143 0.44421 0.64061 0.0
C672 C 0.96037 0.48364 0.96626 0.0
C673 C 0.97602 0.51879 0.97595 0.0
C674 C 0.03056 0.52164 0.98767 0.0
C675 C 0.01444 0.48637 0.98692 0.0
N676 N 0.96231 0.4334 0.99171 0.0
N677 N 0.02493 0.56977 1.01444 0.0
C678 C 0.97881 0.46707 0.98024 0.0
C679 C 0.011 0.53763 0.99127 0.0
N680 N 0.92808 0.46622 0.94276 0.0
N681 N 0.06484 0.5392 0.98431 0.0
H682 H 0.01084 0.58141 1.02346 0.0
H683 H 0.04952 0.58334 1.03268 0.0
H684 H 0.07911 0.56518 0.97982 0.0
H685 H 0.07911 0.56518 0.97982 0.0
H686 H 0.9164 0.44097 0.92923 0.0
H687 H 0.91431 0.47789 0.93062 0.0
H688 H 0.9361 0.41876 0.99302 0.0
H689 H 0.97463 0.42086 1.00758 0.0
C690 C 0.52043 0.03541 0.32516 0.0
C691 C 0.53773 0.01718 0.327 0.0
C692 C 0.48421 0.965 0.31022 0.0
C693 C 0.46647 0.9827 0.31715 0.0
N694 N 0.46799 0.03444 0.34559 0.0
N695 N 0.53567 0.96375 0.32439 0.0
C696 C 0.48463 0.01795 0.32779 0.0
C697 C 0.51956 0.98181 0.31995 0.0
N698 N 0.5384 0.06949 0.31986 0.0
N699 N 0.46776 0.93163 0.29586 0.0
H700 H 0.56123 0.97455 0.33578 0.0
H701 H 0.52291 0.93768 0.31953 0.0
H702 H 0.44186 0.91749 0.28658 0.0
H703 H 0.44186 0.91749 0.28658 0.0
H704 H 0.52716 0.08403 0.31208 0.0
H705 H 0.56466 0.08276 0.31623 0.0
H706 H 0.48035 0.05953 0.36025 0.0
H707 H 0.44202 0.02238 0.35285 0.0
loop_
_geom_bond_atom_site_label_1
_geom_bond_atom_site_label_2
_geom_bond_distance
_geom_bond_site_symmetry_2
_ccdc_geom_bond_type
Cu0 N1 1.999 . S
Cu0 O6 1.974 . S
Cu0 N11 1.985 . S
Cu0 O20 1.959 1_554 S
N1 Cu0 1.999 . S
N1 C3 1.263 . S
N1 C5 1.389 . S
N2 C3 1.358 . S
N2 C4 1.400 . S
C3 N1 1.263 . S
C3 N2 1.358 . S
C3 H9 0.930 . S
C4 N2 1.400 . S
C4 C5 1.351 . S
C4 H21 0.930 . S
C5 N1 1.389 . S
C5 C4 1.351 . S
C5 H10 0.930 . S
O6 Cu0 1.974 . S
O6 C16 1.282 . S
C7 O8 1.261 . S
C7 O20 1.251 . S
O8 C7 1.261 . S
H9 C3 0.930 . S
H10 C5 0.930 . S
N11 Cu0 1.985 . S
N11 C13 1.335 . S
N11 C14 1.390 . S
N12 C13 1.345 . S
N12 C15 1.336 . S
C13 N11 1.335 . S
C13 N12 1.345 . S
C13 H18 0.930 . S
C14 N11 1.390 . S
C14 C15 1.346 . S
C14 H19 0.930 . S
C15 N12 1.336 . S
C15 C14 1.346 . S
C15 H22 0.929 . S
C16 O6 1.282 . S
C16 O17 1.216 . S
O17 C16 1.216 . S
H18 C13 0.930 . S
H19 C14 0.930 . S
O20 Cu0 1.959 1_556 S
O20 C7 1.251 . S
H21 C4 0.930 . S
H22 C15 0.929 . S
Cu23 N24 1.999 . S
Cu23 O29 1.974 . S
Cu23 N34 1.985 . S
Cu23 O43 1.959 . S
N24 Cu23 1.999 . S
N24 C26 1.263 1_655 S
N24 C28 1.389 . S
N25 C26 1.358 . S
N25 C27 1.400 1_455 S
C26 N24 1.263 1_455 S
C26 N25 1.358 . S
C26 H32 0.930 . S
C27 N25 1.400 1_655 S
C27 C28 1.351 . S
C27 H44 0.931 . S
C28 N24 1.389 . S
C28 C27 1.351 . S
C28 H33 0.930 . S
O29 Cu23 1.974 . S
O29 C39 1.282 . S
C30 O31 1.261 1_655 S
C30 O43 1.251 . S
O31 C30 1.261 1_455 S
H32 C26 0.930 . S
H33 C28 0.930 . S
N34 Cu23 1.985 . S
N34 C36 1.335 . S
N34 C37 1.390 . S
N35 C36 1.345 . S
N35 C38 1.336 . S
C36 N34 1.335 . S
C36 N35 1.345 . S
C36 H41 0.930 . S
C37 N34 1.390 . S
C37 C38 1.346 . S
C37 H42 0.930 . S
C38 N35 1.336 . S
C38 C37 1.346 . S
C38 H45 0.929 . S
C39 O29 1.282 . S
C39 O40 1.216 1_655 S
O40 C39 1.216 1_455 S
H41 C36 0.930 . S
H42 C37 0.930 . S
O43 Cu23 1.959 . S
O43 C30 1.251 . S
H44 C27 0.931 . S
H45 C38 0.929 . S
Cu46 N47 1.999 . S
Cu46 O52 1.974 . S
Cu46 N57 1.985 . S
Cu46 O66 1.959 . S
N47 Cu46 1.999 . S
N47 C49 1.263 1_565 S
N47 C51 1.389 . S
N48 C49 1.358 . S
N48 C50 1.400 1_545 S
C49 N47 1.263 1_545 S
C49 N48 1.358 . S
C49 H55 0.930 . S
C50 N48 1.400 1_565 S
C50 C51 1.351 . S
C50 H67 0.929 . S
C51 N47 1.389 . S
C51 C50 1.351 . S
C51 H56 0.930 . S
O52 Cu46 1.974 . S
O52 C62 1.282 . S
C53 O54 1.261 1_565 S
C53 O66 1.251 . S
O54 C53 1.261 1_545 S
H55 C49 0.930 . S
H56 C51 0.930 . S
N57 Cu46 1.985 . S
N57 C59 1.335 . S
N57 C60 1.390 . S
N58 C59 1.345 . S
N58 C61 1.336 . S
C59 N57 1.335 . S
C59 N58 1.345 . S
C59 H64 0.930 . S
C60 N57 1.390 . S
C60 C61 1.346 . S
C60 H65 0.930 . S
C61 N58 1.336 . S
C61 C60 1.346 . S
C61 H68 0.929 . S
C62 O52 1.282 . S
C62 O63 1.216 1_565 S
O63 C62 1.216 1_545 S
H64 C59 0.930 . S
H65 C60 0.930 . S
O66 Cu46 1.959 . S
O66 C53 1.251 . S
H67 C50 0.929 . S
H68 C61 0.929 . S
Cu69 N70 1.999 . S
Cu69 O75 1.974 . S
Cu69 N80 1.985 . S
Cu69 O89 1.959 1_554 S
N70 Cu69 1.999 . S
N70 C72 1.263 . S
N70 C74 1.389 . S
N71 C72 1.358 . S
N71 C73 1.400 . S
C72 N70 1.263 . S
C72 N71 1.358 . S
C72 H78 0.930 . S
C73 N71 1.400 . S
C73 C74 1.351 . S
C73 H90 0.930 . S
C74 N70 1.389 . S
C74 C73 1.351 . S
C74 H79 0.930 . S
O75 Cu69 1.974 . S
O75 C85 1.282 . S
C76 O77 1.261 . S
C76 O89 1.251 . S
O77 C76 1.261 . S
H78 C72 0.930 . S
H79 C74 0.930 . S
N80 Cu69 1.985 . S
N80 C82 1.335 . S
N80 C83 1.390 . S
N81 C82 1.345 . S
N81 C84 1.336 . S
C82 N80 1.335 . S
C82 N81 1.345 . S
C82 H87 0.930 . S
C83 N80 1.390 . S
C83 C84 1.346 . S
C83 H88 0.930 . S
C84 N81 1.336 . S
C84 C83 1.346 . S
C84 H91 0.929 . S
C85 O75 1.282 . S
C85 O86 1.216 . S
O86 C85 1.216 . S
H87 C82 0.930 . S
H88 C83 0.930 . S
O89 Cu69 1.959 1_556 S
O89 C76 1.251 . S
H90 C73 0.930 . S
H91 C84 0.929 . S
Cu92 N93 1.999 . S
Cu92 O98 1.974 . S
Cu92 N103 1.985 . S
Cu92 O112 1.959 . S
N93 Cu92 1.999 . S
N93 C95 1.263 1_455 S
N93 C97 1.389 . S
N94 C95 1.358 . S
N94 C96 1.400 1_655 S
C95 N93 1.263 1_655 S
C95 N94 1.358 . S
C95 H101 0.930 . S
C96 N94 1.400 1_455 S
C96 C97 1.351 . S
C96 H113 0.931 . S
C97 N93 1.389 . S
C97 C96 1.351 . S
C97 H102 0.930 . S
O98 Cu92 1.974 . S
O98 C108 1.282 . S
C99 O100 1.261 1_455 S
C99 O112 1.251 . S
O100 C99 1.261 1_655 S
H101 C95 0.930 . S
H102 C97 0.930 . S
N103 Cu92 1.985 . S
N103 C105 1.335 . S
N103 C106 1.390 . S
N104 C105 1.345 . S
N104 C107 1.336 . S
C105 N103 1.335 . S
C105 N104 1.345 . S
C105 H110 0.930 . S
C106 N103 1.390 . S
C106 C107 1.346 . S
C106 H111 0.930 . S
C107 N104 1.336 . S
C107 C106 1.346 . S
C107 H114 0.929 . S
C108 O98 1.282 . S
C108 O109 1.216 1_455 S
O109 C108 1.216 1_655 S
H110 C105 0.930 . S
H111 C106 0.930 . S
O112 Cu92 1.959 . S
O112 C99 1.251 . S
H113 C96 0.931 . S
H114 C107 0.929 . S
Cu115 N116 1.999 . S
Cu115 O121 1.974 . S
Cu115 N126 1.985 . S
Cu115 O135 1.959 . S
N116 Cu115 1.999 . S
N116 C118 1.263 1_545 S
N116 C120 1.389 . S
N117 C118 1.358 . S
N117 C119 1.400 1_565 S
C118 N116 1.263 1_565 S
C118 N117 1.358 . S
C118 H124 0.930 . S
C119 N117 1.400 1_545 S
C119 C120 1.351 . S
C119 H136 0.929 . S
C120 N116 1.389 . S
C120 C119 1.351 . S
C120 H125 0.930 . S
O121 Cu115 1.974 . S
O121 C131 1.282 . S
C122 O123 1.261 1_545 S
C122 O135 1.251 . S
O123 C122 1.261 1_565 S
H124 C118 0.930 . S
H125 C120 0.930 . S
N126 Cu115 1.985 . S
N126 C128 1.335 . S
N126 C129 1.390 . S
N127 C128 1.345 . S
N127 C130 1.336 . S
C128 N126 1.335 . S
C128 N127 1.345 . S
C128 H133 0.930 . S
C129 N126 1.390 . S
C129 C130 1.346 . S
C129 H134 0.930 . S
C130 N127 1.336 . S
C130 C129 1.346 . S
C130 H137 0.929 . S
C131 O121 1.282 . S
C131 O132 1.216 1_545 S
O132 C131 1.216 1_565 S
H133 C128 0.930 . S
H134 C129 0.930 . S
O135 Cu115 1.959 . S
O135 C122 1.251 . S
H136 C119 0.929 . S
H137 C130 0.929 . S
Cu138 N139 1.999 . S
Cu138 O144 1.974 . S
Cu138 N149 1.985 . S
Cu138 O158 1.959 . S
N139 Cu138 1.999 . S
N139 C141 1.263 . S
N139 C143 1.389 . S
N140 C141 1.358 . S
N140 C142 1.400 . S
C141 N139 1.263 . S
C141 N140 1.358 . S
C141 H147 0.930 . S
C142 N140 1.400 . S
C142 C143 1.351 . S
C142 H159 0.930 . S
C143 N139 1.389 . S
C143 C142 1.351 . S
C143 H148 0.930 . S
O144 Cu138 1.974 . S
O144 C154 1.282 . S
C145 O146 1.261 . S
C145 O158 1.251 . S
O146 C145 1.261 . S
H147 C141 0.930 . S
H148 C143 0.930 . S
N149 Cu138 1.985 . S
N149 C151 1.335 . S
N149 C152 1.390 . S
N150 C151 1.345 . S
N150 C153 1.336 . S
C151 N149 1.335 . S
C151 N150 1.345 . S
C151 H156 0.930 . S
C152 N149 1.390 . S
C152 C153 1.346 . S
C152 H157 0.930 . S
C153 N150 1.336 . S
C153 C152 1.346 . S
C153 H160 0.929 . S
C154 O144 1.282 . S
C154 O155 1.216 . S
O155 C154 1.216 . S
H156 C151 0.930 . S
H157 C152 0.930 . S
O158 Cu138 1.959 . S
O158 C145 1.251 . S
H159 C142 0.930 . S
H160 C153 0.929 . S
Cu161 N162 1.999 . S
Cu161 O167 1.974 . S
Cu161 N172 1.985 . S
Cu161 O181 1.959 1_556 S
N162 Cu161 1.999 . S
N162 C164 1.263 1_655 S
N162 C166 1.389 . S
N163 C164 1.358 . S
N163 C165 1.400 1_455 S
C164 N162 1.263 1_455 S
C164 N163 1.358 . S
C164 H170 0.930 . S
C165 N163 1.400 1_655 S
C165 C166 1.351 . S
C165 H182 0.929 . S
C166 N162 1.389 . S
C166 C165 1.351 . S
C166 H171 0.930 . S
O167 Cu161 1.974 . S
O167 C177 1.282 . S
C168 O169 1.261 1_655 S
C168 O181 1.251 . S
O169 C168 1.261 1_455 S
H170 C164 0.930 . S
H171 C166 0.930 . S
N172 Cu161 1.985 . S
N172 C174 1.335 . S
N172 C175 1.390 . S
N173 C174 1.345 . S
N173 C176 1.336 . S
C174 N172 1.335 . S
C174 N173 1.345 . S
C174 H179 0.930 . S
C175 N172 1.390 . S
C175 C176 1.346 . S
C175 H180 0.930 . S
C176 N173 1.336 . S
C176 C175 1.346 . S
C176 H183 0.929 . S
C177 O167 1.282 . S
C177 O178 1.216 1_655 S
O178 C177 1.216 1_455 S
H179 C174 0.930 . S
H180 C175 0.930 . S
O181 Cu161 1.959 1_554 S
O181 C168 1.251 . S
H182 C165 0.929 . S
H183 C176 0.929 . S
Cu184 N185 1.999 . S
Cu184 O190 1.974 . S
Cu184 N195 1.985 . S
Cu184 O204 1.959 . S
N185 Cu184 1.999 . S
N185 C187 1.263 1_565 S
N185 C189 1.389 . S
N186 C187 1.358 . S
N186 C188 1.400 1_545 S
C187 N185 1.263 1_545 S
C187 N186 1.358 . S
C187 H193 0.930 . S
C188 N186 1.400 1_565 S
C188 C189 1.351 . S
C188 H205 0.931 . S
C189 N185 1.389 . S
C189 C188 1.351 . S
C189 H194 0.930 . S
O190 Cu184 1.974 . S
O190 C200 1.282 . S
C191 O192 1.261 1_565 S
C191 O204 1.251 . S
O192 C191 1.261 1_545 S
H193 C187 0.930 . S
H194 C189 0.930 . S
N195 Cu184 1.985 . S
N195 C197 1.335 . S
N195 C198 1.390 . S
N196 C197 1.345 . S
N196 C199 1.336 . S
C197 N195 1.335 . S
C197 N196 1.345 . S
C197 H202 0.930 . S
C198 N195 1.390 . S
C198 C199 1.346 . S
C198 H203 0.930 . S
C199 N196 1.336 . S
C199 C198 1.346 . S
C199 H206 0.929 . S
C200 O190 1.282 . S
C200 O201 1.216 1_565 S
O201 C200 1.216 1_545 S
H202 C197 0.930 . S
H203 C198 0.930 . S
O204 Cu184 1.959 . S
O204 C191 1.251 . S
H205 C188 0.931 . S
H206 C199 0.929 . S
Cu207 N208 1.999 . S
Cu207 O213 1.974 . S
Cu207 N218 1.985 . S
Cu207 O227 1.959 . S
N208 Cu207 1.999 . S
N208 C210 1.263 . S
N208 C212 1.389 . S
N209 C210 1.358 . S
N209 C211 1.400 . S
C210 N208 1.263 . S
C210 N209 1.358 . S
C210 H216 0.930 . S
C211 N209 1.400 . S
C211 C212 1.351 . S
C211 H228 0.930 . S
C212 N208 1.389 . S
C212 C211 1.351 . S
C212 H217 0.930 . S
O213 Cu207 1.974 . S
O213 C223 1.282 . S
C214 O215 1.261 . S
C214 O227 1.251 . S
O215 C214 1.261 . S
H216 C210 0.930 . S
H217 C212 0.930 . S
N218 Cu207 1.985 . S
N218 C220 1.335 . S
N218 C221 1.390 . S
N219 C220 1.345 . S
N219 C222 1.336 . S
C220 N218 1.335 . S
C220 N219 1.345 . S
C220 H225 0.930 . S
C221 N218 1.390 . S
C221 C222 1.346 . S
C221 H226 0.930 . S
C222 N219 1.336 . S
C222 C221 1.346 . S
C222 H229 0.929 . S
C223 O213 1.282 . S
C223 O224 1.216 . S
O224 C223 1.216 . S
H225 C220 0.930 . S
H226 C221 0.930 . S
O227 Cu207 1.959 . S
O227 C214 1.251 . S
H228 C211 0.930 . S
H229 C222 0.929 . S
Cu230 N231 1.999 . S
Cu230 O236 1.974 . S
Cu230 N241 1.985 . S
Cu230 O250 1.959 1_556 S
N231 Cu230 1.999 . S
N231 C233 1.263 1_455 S
N231 C235 1.389 . S
N232 C233 1.358 . S
N232 C234 1.400 1_655 S
C233 N231 1.263 1_655 S
C233 N232 1.358 . S
C233 H239 0.930 . S
C234 N232 1.400 1_455 S
C234 C235 1.351 . S
C234 H251 0.929 . S
C235 N231 1.389 . S
C235 C234 1.351 . S
C235 H240 0.930 . S
O236 Cu230 1.974 . S
O236 C246 1.282 . S
C237 O238 1.261 1_455 S
C237 O250 1.251 . S
O238 C237 1.261 1_655 S
H239 C233 0.930 . S
H240 C235 0.930 . S
N241 Cu230 1.985 . S
N241 C243 1.335 . S
N241 C244 1.390 . S
N242 C243 1.345 . S
N242 C245 1.336 . S
C243 N241 1.335 . S
C243 N242 1.345 . S
C243 H248 0.930 . S
C244 N241 1.390 . S
C244 C245 1.346 . S
C244 H249 0.930 . S
C245 N242 1.336 . S
C245 C244 1.346 . S
C245 H252 0.929 . S
C246 O236 1.282 . S
C246 O247 1.216 1_455 S
O247 C246 1.216 1_655 S
H248 C243 0.930 . S
H249 C244 0.930 . S
O250 Cu230 1.959 1_554 S
O250 C237 1.251 . S
H251 C234 0.929 . S
H252 C245 0.929 . S
Cu253 N254 1.999 . S
Cu253 O259 1.974 . S
Cu253 N264 1.985 . S
Cu253 O273 1.959 . S
N254 Cu253 1.999 . S
N254 C256 1.263 1_545 S
N254 C258 1.389 . S
N255 C256 1.358 . S
N255 C257 1.400 1_565 S
C256 N254 1.263 1_565 S
C256 N255 1.358 . S
C256 H262 0.930 . S
C257 N255 1.400 1_545 S
C257 C258 1.351 . S
C257 H274 0.931 . S
C258 N254 1.389 . S
C258 C257 1.351 . S
C258 H263 0.930 . S
O259 Cu253 1.974 . S
O259 C269 1.282 . S
C260 O261 1.261 1_545 S
C260 O273 1.251 . S
O261 C260 1.261 1_565 S
H262 C256 0.930 . S
H263 C258 0.930 . S
N264 Cu253 1.985 . S
N264 C266 1.335 . S
N264 C267 1.390 . S
N265 C266 1.345 . S
N265 C268 1.336 . S
C266 N264 1.335 . S
C266 N265 1.345 . S
C266 H271 0.930 . S
C267 N264 1.390 . S
C267 C268 1.346 . S
C267 H272 0.930 . S
C268 N265 1.336 . S
C268 C267 1.346 . S
C268 H275 0.929 . S
C269 O259 1.282 . S
C269 O270 1.216 1_545 S
O270 C269 1.216 1_565 S
H271 C266 0.930 . S
H272 C267 0.930 . S
O273 Cu253 1.959 . S
O273 C260 1.251 . S
H274 C257 0.931 . S
H275 C268 0.929 . S
C276 C277 1.363 . S
C276 C282 1.379 . S
C276 N284 1.356 . S
C277 C276 1.363 . S
C277 C283 1.363 . S
C278 C279 1.363 . S
C278 C283 1.379 . S
C278 N285 1.356 . S
C279 C278 1.363 . S
C279 C282 1.363 . S
N280 C282 1.356 . S
N280 H292 0.984 . S
N280 H293 0.985 . S
N281 C283 1.356 . S
N281 H286 0.984 . S
N281 H287 0.985 . S
C282 C276 1.379 . S
C282 C279 1.363 . S
C282 N280 1.356 . S
C283 C277 1.363 . S
C283 C278 1.379 . S
C283 N281 1.356 . S
N284 C276 1.356 . S
N284 H290 0.984 . S
N284 H291 0.984 . S
N285 C278 1.356 . S
N285 H288 0.984 . S
N285 H289 0.985 . S
H286 N281 0.984 . S
H287 N281 0.985 . S
H288 N285 0.984 . S
H289 N285 0.985 . S
H290 N284 0.984 . S
H291 N284 0.984 . S
H292 N280 0.984 . S
H293 N280 0.985 . S
C294 C295 1.363 . S
C294 C300 1.379 . S
C294 N302 1.356 . S
C295 C294 1.363 . S
C295 C301 1.363 1_655 S
C296 C297 1.363 . S
C296 C301 1.379 . S
C296 N303 1.356 . S
C297 C296 1.363 . S
C297 C300 1.363 1_455 S
N298 C300 1.356 . S
N298 H310 0.984 . S
N298 H311 0.985 . S
N299 C301 1.356 . S
N299 H304 0.984 . S
N299 H305 0.985 . S
C300 C294 1.379 . S
C300 C297 1.363 1_655 S
C300 N298 1.356 . S
C301 C295 1.363 1_455 S
C301 C296 1.379 . S
C301 N299 1.356 . S
N302 C294 1.356 . S
N302 H308 0.984 . S
N302 H309 0.984 . S
N303 C296 1.356 . S
N303 H306 0.984 . S
N303 H307 0.985 . S
H304 N299 0.984 . S
H305 N299 0.985 . S
H306 N303 0.984 . S
H307 N303 0.985 . S
H308 N302 0.984 . S
H309 N302 0.984 . S
H310 N298 0.984 . S
H311 N298 0.985 . S
C312 C313 1.363 . S
C312 C318 1.379 1_556 S
C312 N320 1.356 . S
C313 C312 1.363 . S
C313 C319 1.363 1_565 S
C314 C315 1.363 . S
C314 C319 1.379 1_554 S
C314 N321 1.356 . S
C315 C314 1.363 . S
C315 C318 1.363 1_545 S
N316 C318 1.356 . S
N316 H328 0.984 . S
N316 H329 0.985 1_565 S
N317 C319 1.356 . S
N317 H322 0.984 1_545 S
N317 H323 0.985 . S
C318 C312 1.379 1_554 S
C318 C315 1.363 1_565 S
C318 N316 1.356 . S
C319 C313 1.363 1_545 S
C319 C314 1.379 1_556 S
C319 N317 1.356 . S
N320 C312 1.356 . S
N320 H326 0.984 . S
N320 H327 0.984 . S
N321 C314 1.356 . S
N321 H324 0.984 . S
N321 H325 0.985 . S
H322 N317 0.984 1_565 S
H323 N317 0.985 . S
H324 N321 0.984 . S
H325 N321 0.985 . S
H326 N320 0.984 . S
H327 N320 0.984 . S
H328 N316 0.984 . S
H329 N316 0.985 1_545 S
C330 C331 1.363 . S
C330 C336 1.379 . S
C330 N338 1.356 . S
C331 C330 1.363 . S
C331 C337 1.363 . S
C332 C333 1.363 . S
C332 C337 1.379 . S
C332 N339 1.356 . S
C333 C332 1.363 . S
C333 C336 1.363 . S
N334 C336 1.356 . S
N334 H346 0.984 . S
N334 H347 0.985 . S
N335 C337 1.356 . S
N335 H340 0.984 . S
N335 H341 0.985 . S
C336 C330 1.379 . S
C336 C333 1.363 . S
C336 N334 1.356 . S
C337 C331 1.363 . S
C337 C332 1.379 . S
C337 N335 1.356 . S
N338 C330 1.356 . S
N338 H344 0.984 . S
N338 H345 0.984 . S
N339 C332 1.356 . S
N339 H342 0.984 . S
N339 H343 0.985 . S
H340 N335 0.984 . S
H341 N335 0.985 . S
H342 N339 0.984 . S
H343 N339 0.985 . S
H344 N338 0.984 . S
H345 N338 0.984 . S
H346 N334 0.984 . S
H347 N334 0.985 . S
C348 C349 1.363 . S
C348 C354 1.379 1_655 S
C348 N356 1.356 . S
C349 C348 1.363 . S
C349 C355 1.363 . S
C350 C351 1.363 . S
C350 C355 1.379 1_455 S
C350 N357 1.356 . S
C351 C350 1.363 . S
C351 C354 1.363 . S
N352 C354 1.356 . S
N352 H364 0.987 1_455 S
N352 H365 0.985 . S
N353 C355 1.356 . S
N353 H358 0.984 . S
N353 H359 0.987 1_655 S
C354 C348 1.379 1_455 S
C354 C351 1.363 . S
C354 N352 1.356 . S
C355 C349 1.363 . S
C355 C350 1.379 1_655 S
C355 N353 1.356 . S
N356 C348 1.356 . S
N356 H362 0.984 . S
N356 H363 0.984 . S
N357 C350 1.356 . S
N357 H360 0.984 . S
N357 H361 0.985 . S
H358 N353 0.984 . S
H359 N353 0.987 1_455 S
H360 N357 0.984 . S
H361 N357 0.985 . S
H362 N356 0.984 . S
H363 N356 0.984 . S
H364 N352 0.987 1_655 S
H365 N352 0.985 . S
C366 C367 1.363 1_545 S
C366 C372 1.379 1_554 S
C366 N374 1.356 . S
C367 C366 1.363 1_565 S
C367 C373 1.363 . S
C368 C369 1.363 1_565 S
C368 C373 1.379 1_556 S
C368 N375 1.356 . S
C369 C368 1.363 1_545 S
C369 C372 1.363 . S
N370 C372 1.356 . S
N370 H382 0.984 . S
N370 H383 0.985 . S
N371 C373 1.356 . S
N371 H376 0.984 . S
N371 H377 0.985 . S
C372 C366 1.379 1_556 S
C372 C369 1.363 . S
C372 N370 1.356 . S
C373 C367 1.363 . S
C373 C368 1.379 1_554 S
C373 N371 1.356 . S
N374 C366 1.356 . S
N374 H380 0.984 . S
N374 H381 0.984 . S
N375 C368 1.356 . S
N375 H378 0.984 . S
N375 H379 0.985 . S
H376 N371 0.984 . S
H377 N371 0.985 . S
H378 N375 0.984 . S
H379 N375 0.985 . S
H380 N374 0.984 . S
H381 N374 0.984 . S
H382 N370 0.984 . S
H383 N370 0.985 . S
C384 C385 1.363 1_554 S
C384 C390 1.379 . S
C384 N392 1.356 . S
C385 C384 1.363 1_556 S
C385 C391 1.363 . S
C386 C387 1.363 1_556 S
C386 C391 1.379 . S
C386 N393 1.356 . S
C387 C386 1.363 1_554 S
C387 C390 1.363 . S
N388 C390 1.356 . S
N388 H400 0.984 . S
N388 H401 0.985 . S
N389 C391 1.356 . S
N389 H394 0.984 . S
N389 H395 0.985 . S
C390 C384 1.379 . S
C390 C387 1.363 . S
C390 N388 1.356 . S
C391 C385 1.363 . S
C391 C386 1.379 . S
C391 N389 1.356 . S
N392 C384 1.356 . S
N392 H398 0.984 . S
N392 H399 0.984 . S
N393 C386 1.356 . S
N393 H396 0.984 . S
N393 H397 0.985 . S
H394 N389 0.984 . S
H395 N389 0.985 . S
H396 N393 0.984 . S
H397 N393 0.985 . S
H398 N392 0.984 . S
H399 N392 0.984 . S
H400 N388 0.984 . S
H401 N388 0.985 . S
C402 C403 1.363 . S
C402 C408 1.379 . S
C402 N410 1.356 . S
C403 C402 1.363 . S
C403 C409 1.363 . S
C404 C405 1.363 . S
C404 C409 1.379 . S
C404 N411 1.356 . S
C405 C404 1.363 . S
C405 C408 1.363 . S
N406 C408 1.356 . S
N406 H418 0.984 . S
N406 H419 0.985 . S
N407 C409 1.356 . S
N407 H412 0.984 . S
N407 H413 0.985 . S
C408 C402 1.379 . S
C408 C405 1.363 . S
C408 N406 1.356 . S
C409 C403 1.363 . S
C409 C404 1.379 . S
C409 N407 1.356 . S
N410 C402 1.356 . S
N410 H416 0.984 . S
N410 H417 0.984 . S
N411 C404 1.356 . S
N411 H414 0.984 . S
N411 H415 0.985 . S
H412 N407 0.984 . S
H413 N407 0.985 . S
H414 N411 0.984 . S
H415 N411 0.985 . S
H416 N410 0.984 . S
H417 N410 0.984 . S
H418 N406 0.984 . S
H419 N406 0.985 . S
C420 C421 1.363 . S
C420 C426 1.379 . S
C420 N428 1.356 . S
C421 C420 1.363 . S
C421 C427 1.363 . S
C422 C423 1.363 . S
C422 C427 1.379 . S
C422 N429 1.356 . S
C423 C422 1.363 . S
C423 C426 1.363 . S
N424 C426 1.356 . S
N424 H436 0.984 . S
N424 H437 0.985 . S
N425 C427 1.356 . S
N425 H430 0.984 . S
N425 H431 0.985 . S
C426 C420 1.379 . S
C426 C423 1.363 . S
C426 N424 1.356 . S
C427 C421 1.363 . S
C427 C422 1.379 . S
C427 N425 1.356 . S
N428 C420 1.356 . S
N428 H434 0.984 . S
N428 H435 0.984 . S
N429 C422 1.356 . S
N429 H432 0.984 . S
N429 H433 0.985 . S
H430 N425 0.984 . S
H431 N425 0.985 . S
H432 N429 0.984 . S
H433 N429 0.985 . S
H434 N428 0.984 . S
H435 N428 0.984 . S
H436 N424 0.984 . S
H437 N424 0.985 . S
C438 C439 1.363 1_556 S
C438 C444 1.379 . S
C438 N446 1.356 . S
C439 C438 1.363 1_554 S
C439 C445 1.363 . S
C440 C441 1.363 1_554 S
C440 C445 1.379 . S
C440 N447 1.356 . S
C441 C440 1.363 1_556 S
C441 C444 1.363 . S
N442 C444 1.356 . S
N442 H454 0.984 . S
N442 H455 0.985 . S
N443 C445 1.356 . S
N443 H448 0.984 . S
N443 H449 0.985 . S
C444 C438 1.379 . S
C444 C441 1.363 . S
C444 N442 1.356 . S
C445 C439 1.363 . S
C445 C440 1.379 . S
C445 N443 1.356 . S
N446 C438 1.356 . S
N446 H452 0.984 . S
N446 H453 0.984 . S
N447 C440 1.356 . S
N447 H450 0.984 . S
N447 H451 0.985 . S
H448 N443 0.984 . S
H449 N443 0.985 . S
H450 N447 0.984 . S
H451 N447 0.985 . S
H452 N446 0.984 . S
H453 N446 0.984 . S
H454 N442 0.984 . S
H455 N442 0.985 . S
C456 C457 1.363 . S
C456 C462 1.379 . S
C456 N464 1.356 . S
C457 C456 1.363 . S
C457 C463 1.363 . S
C458 C459 1.363 . S
C458 C463 1.379 . S
C458 N465 1.356 . S
C459 C458 1.363 . S
C459 C462 1.363 . S
N460 C462 1.356 . S
N460 H472 0.984 . S
N460 H473 0.985 . S
N461 C463 1.356 . S
N461 H466 0.984 . S
N461 H467 0.985 . S
C462 C456 1.379 . S
C462 C459 1.363 . S
C462 N460 1.356 . S
C463 C457 1.363 . S
C463 C458 1.379 . S
C463 N461 1.356 . S
N464 C456 1.356 . S
N464 H470 0.984 . S
N464 H471 0.984 . S
N465 C458 1.356 . S
N465 H468 0.984 . S
N465 H469 0.985 . S
H466 N461 0.984 . S
H467 N461 0.985 . S
H468 N465 0.984 . S
H469 N465 0.985 . S
H470 N464 0.984 . S
H471 N464 0.984 . S
H472 N460 0.984 . S
H473 N460 0.985 . S
C474 C475 1.363 . S
C474 C480 1.379 . S
C474 N482 1.356 . S
C475 C474 1.363 . S
C475 C481 1.363 . S
C476 C477 1.363 . S
C476 C481 1.379 . S
C476 N483 1.356 . S
C477 C476 1.363 . S
C477 C480 1.363 . S
N478 C480 1.356 . S
N478 H490 0.984 . S
N478 H491 0.985 . S
N479 C481 1.356 . S
N479 H484 0.984 . S
N479 H485 0.985 . S
C480 C474 1.379 . S
C480 C477 1.363 . S
C480 N478 1.356 . S
C481 C475 1.363 . S
C481 C476 1.379 . S
C481 N479 1.356 . S
N482 C474 1.356 . S
N482 H488 0.984 . S
N482 H489 0.984 . S
N483 C476 1.356 . S
N483 H486 0.984 . S
N483 H487 0.985 . S
H484 N479 0.984 . S
H485 N479 0.985 . S
H486 N483 0.984 . S
H487 N483 0.985 . S
H488 N482 0.984 . S
H489 N482 0.984 . S
H490 N478 0.984 . S
H491 N478 0.985 . S
C492 C493 1.363 . S
C492 C498 1.379 . S
C492 N500 1.356 . S
C493 C492 1.363 . S
C493 C499 1.363 . S
C494 C495 1.363 . S
C494 C499 1.379 . S
C494 N501 1.356 . S
C495 C494 1.363 . S
C495 C498 1.363 . S
N496 C498 1.356 . S
N496 H508 0.984 . S
N496 H509 0.985 . S
N497 C499 1.356 . S
N497 H502 0.984 . S
N497 H503 0.985 . S
C498 C492 1.379 . S
C498 C495 1.363 . S
C498 N496 1.356 . S
C499 C493 1.363 . S
C499 C494 1.379 . S
C499 N497 1.356 . S
N500 C492 1.356 . S
N500 H506 0.984 . S
N500 H507 0.984 . S
N501 C494 1.356 . S
N501 H504 0.984 . S
N501 H505 0.985 . S
H502 N497 0.984 . S
H503 N497 0.985 . S
H504 N501 0.984 . S
H505 N501 0.985 . S
H506 N500 0.984 . S
H507 N500 0.984 . S
H508 N496 0.984 . S
H509 N496 0.985 . S
C510 C511 1.363 . S
C510 C516 1.379 1_655 S
C510 N518 1.356 . S
C511 C510 1.363 . S
C511 C517 1.363 . S
C512 C513 1.363 . S
C512 C517 1.379 1_455 S
C512 N519 1.356 . S
C513 C512 1.363 . S
C513 C516 1.363 . S
N514 C516 1.356 . S
N514 H526 0.984 . S
N514 H527 0.985 . S
N515 C517 1.356 . S
N515 H520 0.984 . S
N515 H521 0.985 . S
C516 C510 1.379 1_455 S
C516 C513 1.363 . S
C516 N514 1.356 . S
C517 C511 1.363 . S
C517 C512 1.379 1_655 S
C517 N515 1.356 . S
N518 C510 1.356 . S
N518 H524 0.984 . S
N518 H525 0.984 . S
N519 C512 1.356 . S
N519 H522 0.984 . S
N519 H523 0.985 . S
H520 N515 0.984 . S
H521 N515 0.985 . S
H522 N519 0.984 . S
H523 N519 0.985 . S
H524 N518 0.984 . S
H525 N518 0.984 . S
H526 N514 0.984 . S
H527 N514 0.985 . S
C528 C529 1.363 1_545 S
C528 C534 1.379 . S
C528 N536 1.356 . S
C529 C528 1.363 1_565 S
C529 C535 1.363 . S
C530 C531 1.363 1_565 S
C530 C535 1.379 . S
C530 N537 1.356 . S
C531 C530 1.363 1_545 S
C531 C534 1.363 . S
N532 C534 1.356 . S
N532 H544 0.984 . S
N532 H545 0.985 . S
N533 C535 1.356 . S
N533 H538 0.984 . S
N533 H539 0.985 . S
C534 C528 1.379 . S
C534 C531 1.363 . S
C534 N532 1.356 . S
C535 C529 1.363 . S
C535 C530 1.379 . S
C535 N533 1.356 . S
N536 C528 1.356 . S
N536 H542 0.984 . S
N536 H543 0.979 1_545 S
N537 C530 1.356 . S
N537 H540 0.979 1_565 S
N537 H541 0.985 . S
H538 N533 0.984 . S
H539 N533 0.985 . S
H540 N537 0.979 1_545 S
H541 N537 0.985 . S
H542 N536 0.984 . S
H543 N536 0.979 1_565 S
H544 N532 0.984 . S
H545 N532 0.985 . S
C546 C547 1.363 . S
C546 C552 1.379 . S
C546 N554 1.356 . S
C547 C546 1.363 . S
C547 C553 1.363 . S
C548 C549 1.363 . S
C548 C553 1.379 . S
C548 N555 1.356 . S
C549 C548 1.363 . S
C549 C552 1.363 . S
N550 C552 1.356 . S
N550 H562 0.984 . S
N550 H563 0.985 . S
N551 C553 1.356 . S
N551 H556 0.984 . S
N551 H557 0.985 . S
C552 C546 1.379 . S
C552 C549 1.363 . S
C552 N550 1.356 . S
C553 C547 1.363 . S
C553 C548 1.379 . S
C553 N551 1.356 . S
N554 C546 1.356 . S
N554 H560 0.984 . S
N554 H561 0.984 . S
N555 C548 1.356 . S
N555 H558 0.984 . S
N555 H559 0.985 . S
H556 N551 0.984 . S
H557 N551 0.985 . S
H558 N555 0.984 . S
H559 N555 0.985 . S
H560 N554 0.984 . S
H561 N554 0.984 . S
H562 N550 0.984 . S
H563 N550 0.985 . S
C564 C565 1.363 . S
C564 C570 1.379 1_455 S
C564 N572 1.356 . S
C565 C564 1.363 . S
C565 C571 1.363 . S
C566 C567 1.363 . S
C566 C571 1.379 1_655 S
C566 N573 1.356 . S
C567 C566 1.363 . S
C567 C570 1.363 . S
N568 C570 1.356 . S
N568 H580 0.984 . S
N568 H581 0.985 . S
N569 C571 1.356 . S
N569 H574 0.984 . S
N569 H575 0.985 . S
C570 C564 1.379 1_655 S
C570 C567 1.363 . S
C570 N568 1.356 . S
C571 C565 1.363 . S
C571 C566 1.379 1_455 S
C571 N569 1.356 . S
N572 C564 1.356 . S
N572 H578 0.984 . S
N572 H579 0.984 . S
N573 C566 1.356 . S
N573 H576 0.984 . S
N573 H577 0.985 . S
H574 N569 0.984 . S
H575 N569 0.985 . S
H576 N573 0.984 . S
H577 N573 0.985 . S
H578 N572 0.984 . S
H579 N572 0.984 . S
H580 N568 0.984 . S
H581 N568 0.985 . S
C582 C583 1.363 . S
C582 C588 1.379 . S
C582 N590 1.356 . S
C583 C582 1.363 . S
C583 C589 1.363 1_565 S
C584 C585 1.363 . S
C584 C589 1.379 . S
C584 N591 1.356 . S
C585 C584 1.363 . S
C585 C588 1.363 1_545 S
N586 C588 1.356 . S
N586 H598 0.984 . S
N586 H599 0.985 . S
N587 C589 1.356 . S
N587 H592 0.984 . S
N587 H593 0.985 . S
C588 C582 1.379 . S
C588 C585 1.363 1_565 S
C588 N586 1.356 . S
C589 C583 1.363 1_545 S
C589 C584 1.379 . S
C589 N587 1.356 . S
N590 C582 1.356 . S
N590 H596 0.984 . S
N590 H597 0.984 . S
N591 C584 1.356 . S
N591 H594 0.984 . S
N591 H595 0.985 . S
H592 N587 0.984 . S
H593 N587 0.985 . S
H594 N591 0.984 . S
H595 N591 0.985 . S
H596 N590 0.984 . S
H597 N590 0.984 . S
H598 N586 0.984 . S
H599 N586 0.985 . S
C600 C601 1.363 . S
C600 C606 1.379 . S
C600 N608 1.356 . S
C601 C600 1.363 . S
C601 C607 1.363 . S
C602 C603 1.363 . S
C602 C607 1.379 . S
C602 N609 1.356 . S
C603 C602 1.363 . S
C603 C606 1.363 . S
N604 C606 1.356 . S
N604 H616 0.984 . S
N604 H617 0.985 . S
N605 C607 1.356 . S
N605 H610 0.984 . S
N605 H611 0.985 . S
C606 C600 1.379 . S
C606 C603 1.363 . S
C606 N604 1.356 . S
C607 C601 1.363 . S
C607 C602 1.379 . S
C607 N605 1.356 . S
N608 C600 1.356 . S
N608 H614 0.984 . S
N608 H615 0.984 . S
N609 C602 1.356 . S
N609 H612 0.984 . S
N609 H613 0.985 . S
H610 N605 0.984 . S
H611 N605 0.985 . S
H612 N609 0.984 . S
H613 N609 0.985 . S
H614 N608 0.984 . S
H615 N608 0.984 . S
H616 N604 0.984 . S
H617 N604 0.985 . S
C618 C619 1.363 1_455 S
C618 C624 1.379 . S
C618 N626 1.356 . S
C619 C618 1.363 1_655 S
C619 C625 1.363 . S
C620 C621 1.363 1_655 S
C620 C625 1.379 . S
C620 N627 1.356 . S
C621 C620 1.363 1_455 S
C621 C624 1.363 . S
N622 C624 1.356 . S
N622 H634 0.984 . S
N622 H635 0.985 . S
N623 C625 1.356 . S
N623 H628 0.984 . S
N623 H629 0.985 . S
C624 C618 1.379 . S
C624 C621 1.363 . S
C624 N622 1.356 . S
C625 C619 1.363 . S
C625 C620 1.379 . S
C625 N623 1.356 . S
N626 C618 1.356 . S
N626 H632 0.984 . S
N626 H633 0.984 . S
N627 C620 1.356 . S
N627 H630 0.984 . S
N627 H631 0.985 . S
H628 N623 0.984 . S
H629 N623 0.985 . S
H630 N627 0.984 . S
H631 N627 0.985 . S
H632 N626 0.984 . S
H633 N626 0.984 . S
H634 N622 0.984 . S
H635 N622 0.985 . S
C636 C637 1.363 1_565 S
C636 C642 1.379 . S
C636 N644 1.356 . S
C637 C636 1.363 1_545 S
C637 C643 1.363 . S
C638 C639 1.363 1_545 S
C638 C643 1.379 . S
C638 N645 1.356 . S
C639 C638 1.363 1_565 S
C639 C642 1.363 . S
N640 C642 1.356 . S
N640 H652 0.984 . S
N640 H653 0.985 . S
N641 C643 1.356 . S
N641 H646 0.984 . S
N641 H647 0.985 . S
C642 C636 1.379 . S
C642 C639 1.363 . S
C642 N640 1.356 . S
C643 C637 1.363 . S
C643 C638 1.379 . S
C643 N641 1.356 . S
N644 C636 1.356 . S
N644 H650 0.984 . S
N644 H651 0.984 . S
N645 C638 1.356 . S
N645 H648 0.984 . S
N645 H649 0.985 . S
H646 N641 0.984 . S
H647 N641 0.985 . S
H648 N645 0.984 . S
H649 N645 0.985 . S
H650 N644 0.984 . S
H651 N644 0.984 . S
H652 N640 0.984 . S
H653 N640 0.985 . S
C654 C655 1.363 . S
C654 C660 1.379 . S
C654 N662 1.356 . S
C655 C654 1.363 . S
C655 C661 1.363 . S
C656 C657 1.363 . S
C656 C661 1.379 . S
C656 N663 1.356 . S
C657 C656 1.363 . S
C657 C660 1.363 . S
N658 C660 1.356 . S
N658 H670 0.984 . S
N658 H671 0.985 . S
N659 C661 1.356 . S
N659 H664 0.984 . S
N659 H665 0.985 . S
C660 C654 1.379 . S
C660 C657 1.363 . S
C660 N658 1.356 . S
C661 C655 1.363 . S
C661 C656 1.379 . S
C661 N659 1.356 . S
N662 C654 1.356 . S
N662 H668 0.984 . S
N662 H669 0.984 . S
N663 C656 1.356 . S
N663 H666 0.984 . S
N663 H667 0.985 . S
H664 N659 0.984 . S
H665 N659 0.985 . S
H666 N663 0.984 . S
H667 N663 0.985 . S
H668 N662 0.984 . S
H669 N662 0.984 . S
H670 N658 0.984 . S
H671 N658 0.985 . S
C672 C673 1.363 1_655 S
C672 C678 1.379 . S
C672 N680 1.356 . S
C673 C672 1.363 1_455 S
C673 C679 1.363 . S
C674 C675 1.363 1_455 S
C674 C679 1.379 . S
C674 N681 1.356 . S
C675 C674 1.363 1_655 S
C675 C678 1.363 . S
N676 C678 1.356 . S
N676 H688 0.984 . S
N676 H689 0.985 . S
N677 C679 1.356 . S
N677 H682 0.984 . S
N677 H683 0.985 . S
C678 C672 1.379 . S
C678 C675 1.363 . S
C678 N676 1.356 . S
C679 C673 1.363 . S
C679 C674 1.379 . S
C679 N677 1.356 . S
N680 C672 1.356 . S
N680 H686 0.984 . S
N680 H687 0.984 . S
N681 C674 1.356 . S
N681 H684 0.984 . S
N681 H685 0.985 . S
H682 N677 0.984 . S
H683 N677 0.985 . S
H684 N681 0.984 . S
H685 N681 0.985 . S
H686 N680 0.984 . S
H687 N680 0.984 . S
H688 N676 0.984 . S
H689 N676 0.985 . S
C690 C691 1.363 1_545 S
C690 C696 1.379 . S
C690 N698 1.356 . S
C691 C690 1.363 1_565 S
C691 C697 1.363 . S
C692 C693 1.363 1_565 S
C692 C697 1.379 . S
C692 N699 1.356 . S
C693 C692 1.363 1_545 S
C693 C696 1.363 . S
N694 C696 1.356 . S
N694 H706 0.984 . S
N694 H707 0.985 . S
N695 C697 1.356 . S
N695 H700 0.984 . S
N695 H701 0.985 . S
C696 C690 1.379 . S
C696 C693 1.363 . S
C696 N694 1.356 . S
C697 C691 1.363 . S
C697 C692 1.379 . S
C697 N695 1.356 . S
N698 C690 1.356 . S
N698 H704 0.984 . S
N698 H705 0.984 . S
N699 C692 1.356 . S
N699 H702 0.984 . S
N699 H703 0.985 . S
H700 N695 0.984 . S
H701 N695 0.985 . S
H702 N699 0.984 . S
H703 N699 0.985 . S
H704 N698 0.984 . S
H705 N698 0.984 . S
H706 N694 0.984 . S
H707 N694 0.985 . S
C277 C16 1.502 . S
C279 C223 1.502 . S
C295 C39 1.502 . S
C297 C246 1.502 . S
C313 C62 1.502 . S
C315 C269 1.502 . S
C331 C85 1.502 . S
C333 C154 1.502 . S
C349 C177 1.502 . S
C351 C108 1.502 . S
C367 C200 1.502 . S
C369 C131 1.502 . S
C385 N242 2.100 . S
C387 N12 2.100 . S
C403 N35 2.100 . S
C405 N265 2.100 . S
C421 N58 2.100 . S
C423 N150 2.100 . S
C439 N81 2.100 . S
C441 N173 2.100 . S
C457 N104 2.100 . S
C459 N196 2.100 . S
C475 N127 2.100 . S
C477 N219 2.100 . S
C493 C214 1.625 . S
C495 C7 1.625 . S
C511 C30 1.625 . S
C513 C237 1.625 . S
C529 C53 1.625 . S
C531 C260 1.625 . S
C547 C145 1.625 . S
C549 C76 1.625 . S
C565 C99 1.625 . S
C567 C168 1.625 . S
C583 C191 1.625 . S
C585 C122 1.625 . S
C601 N2 2.109 . S
C603 N71 2.109 . S
C619 N94 2.109 . S
C621 N25 2.109 . S
C637 N48 2.109 . S
C639 N117 2.109 . S
C655 N140 2.109 . S
C657 N209 2.109 . S
C673 N163 2.109 . S
C675 N232 2.109 . S
C691 N255 2.109 . S
C693 N186 2.109 . S
