# Generated by pormake.
# Topology whd, (6)-cn, num edge types: 1
# Building blocks:
#     Node 0, Type 0, BuildingBlock: IZENUY_clean_sbu_0, # of connection points: 6
#     Node 1, Type 0, BuildingBlock: IZENUY_clean_sbu_0, # of connection points: 6
#     Node 2, Type 0, BuildingBlock: IZENUY_clean_sbu_0, # of connection points: 6
#     Node 3, Type 0, BuildingBlock: IZENUY_clean_sbu_0, # of connection points: 6
#     Node 4, Type 0, BuildingBlock: IZENUY_clean_sbu_0, # of connection points: 6
#     Node 5, Type 0, BuildingBlock: IZENUY_clean_sbu_0, # of connection points: 6
#     Node 6, Type 0, BuildingBlock: IZENUY_clean_sbu_0, # of connection points: 6
#     Node 7, Type 0, BuildingBlock: IZENUY_clean_sbu_0, # of connection points: 6
#     Node 8, Type 0, BuildingBlock: IZENUY_clean_sbu_0, # of connection points: 6
#     Node 9, Type 0, BuildingBlock: IZENUY_clean_sbu_0, # of connection points: 6
#     Node 10, Type 0, BuildingBlock: IZENUY_clean_sbu_0, # of connection points: 6
#     Node 11, Type 0, BuildingBlock: IZENUY_clean_sbu_0, # of connection points: 6
#     Node 12, Type 0, BuildingBlock: IZENUY_clean_sbu_0, # of connection points: 6
#     Node 13, Type 0, BuildingBlock: IZENUY_clean_sbu_0, # of connection points: 6
#     Node 14, Type 0, BuildingBlock: IZENUY_clean_sbu_0, # of connection points: 6
#     Node 15, Type 0, BuildingBlock: IZENUY_clean_sbu_0, # of connection points: 6
#     Edge 16, Type (0, 0), BuildingBlock: XIVTED_clean_linker_0, # of connection points: 2
#     Edge 17, Type (0, 0), BuildingBlock: XIVTED_clean_linker_0, # of connection points: 2
#     Edge 18, Type (0, 0), BuildingBlock: XIVTED_clean_linker_0, # of connection points: 2
#     Edge 19, Type (0, 0), BuildingBlock: XIVTED_clean_linker_0, # of connection points: 2
#     Edge 20, Type (0, 0), BuildingBlock: XIVTED_clean_linker_0, # of connection points: 2
#     Edge 21, Type (0, 0), BuildingBlock: XIVTED_clean_linker_0, # of connection points: 2
#     Edge 22, Type (0, 0), BuildingBlock: XIVTED_clean_linker_0, # of connection points: 2
#     Edge 23, Type (0, 0), BuildingBlock: XIVTED_clean_linker_0, # of connection points: 2
#     Edge 24, Type (0, 0), BuildingBlock: XIVTED_clean_linker_0, # of connection points: 2
#     Edge 25, Type (0, 0), BuildingBlock: XIVTED_clean_linker_0, # of connection points: 2
#     Edge 26, Type (0, 0), BuildingBlock: XIVTED_clean_linker_0, # of connection points: 2
#     Edge 27, Type (0, 0), BuildingBlock: XIVTED_clean_linker_0, # of connection points: 2
#     Edge 28, Type (0, 0), BuildingBlock: XIVTED_clean_linker_0, # of connection points: 2
#     Edge 29, Type (0, 0), BuildingBlock: XIVTED_clean_linker_0, # of connection points: 2
#     Edge 30, Type (0, 0), BuildingBlock: XIVTED_clean_linker_0, # of connection points: 2
#     Edge 31, Type (0, 0), BuildingBlock: XIVTED_clean_linker_0, # of connection points: 2
#     Edge 32, Type (0, 0), BuildingBlock: XIVTED_clean_linker_0, # of connection points: 2
#     Edge 33, Type (0, 0), BuildingBlock: XIVTED_clean_linker_0, # of connection points: 2
#     Edge 34, Type (0, 0), BuildingBlock: XIVTED_clean_linker_0, # of connection points: 2
#     Edge 35, Type (0, 0), BuildingBlock: XIVTED_clean_linker_0, # of connection points: 2
#     Edge 36, Type (0, 0), BuildingBlock: XIVTED_clean_linker_0, # of connection points: 2
#     Edge 37, Type (0, 0), BuildingBlock: XIVTED_clean_linker_0, # of connection points: 2
#     Edge 38, Type (0, 0), BuildingBlock: XIVTED_clean_linker_0, # of connection points: 2
#     Edge 39, Type (0, 0), BuildingBlock: XIVTED_clean_linker_0, # of connection points: 2
#     Edge 40, Type (0, 0), BuildingBlock: XIVTED_clean_linker_0, # of connection points: 2
#     Edge 41, Type (0, 0), BuildingBlock: XIVTED_clean_linker_0, # of connection points: 2
#     Edge 42, Type (0, 0), BuildingBlock: XIVTED_clean_linker_0, # of connection points: 2
#     Edge 43, Type (0, 0), BuildingBlock: XIVTED_clean_linker_0, # of connection points: 2
#     Edge 44, Type (0, 0), BuildingBlock: XIVTED_clean_linker_0, # of connection points: 2
#     Edge 45, Type (0, 0), BuildingBlock: XIVTED_clean_linker_0, # of connection points: 2
#     Edge 46, Type (0, 0), BuildingBlock: XIVTED_clean_linker_0, # of connection points: 2
#     Edge 47, Type (0, 0), BuildingBlock: XIVTED_clean_linker_0, # of connection points: 2
#     Edge 48, Type (0, 0), BuildingBlock: XIVTED_clean_linker_0, # of connection points: 2
#     Edge 49, Type (0, 0), BuildingBlock: XIVTED_clean_linker_0, # of connection points: 2
#     Edge 50, Type (0, 0), BuildingBlock: XIVTED_clean_linker_0, # of connection points: 2
#     Edge 51, Type (0, 0), BuildingBlock: XIVTED_clean_linker_0, # of connection points: 2
#     Edge 52, Type (0, 0), BuildingBlock: XIVTED_clean_linker_0, # of connection points: 2
#     Edge 53, Type (0, 0), BuildingBlock: XIVTED_clean_linker_0, # of connection points: 2
#     Edge 54, Type (0, 0), BuildingBlock: XIVTED_clean_linker_0, # of connection points: 2
#     Edge 55, Type (0, 0), BuildingBlock: XIVTED_clean_linker_0, # of connection points: 2
#     Edge 56, Type (0, 0), BuildingBlock: XIVTED_clean_linker_0, # of connection points: 2
#     Edge 57, Type (0, 0), BuildingBlock: XIVTED_clean_linker_0, # of connection points: 2
#     Edge 58, Type (0, 0), BuildingBlock: XIVTED_clean_linker_0, # of connection points: 2
#     Edge 59, Type (0, 0), BuildingBlock: XIVTED_clean_linker_0, # of connection points: 2
#     Edge 60, Type (0, 0), BuildingBlock: XIVTED_clean_linker_0, # of connection points: 2
#     Edge 61, Type (0, 0), BuildingBlock: XIVTED_clean_linker_0, # of connection points: 2
#     Edge 62, Type (0, 0), BuildingBlock: XIVTED_clean_linker_0, # of connection points: 2
#     Edge 63, Type (0, 0), BuildingBlock: XIVTED_clean_linker_0, # of connection points: 2
# Relax obj value: 0.274
# Max RMSD: 0.227
# Mean RMSD: 0.227
data_MOF--net-whd--node1-IZENUY_clean_sbu_0--edge1-XIVTED_clean_linker_0
_symmetry_space_group_name_H-M    P1
_symmetry_Int_Tables_number       1
_symmetry_cell_setting            triclinic
loop_
_symmetry_equiv_pos_as_xyz
'x, y, z'
_cell_length_a     51.409431
_cell_length_b     51.714923
_cell_length_c     29.33917
_cell_angle_alpha  90.016669
_cell_angle_beta   90.057553
_cell_angle_gamma 89.996825
loop_
_atom_site_label
_atom_site_type_symbol
_atom_site_fract_x
_atom_site_fract_y
_atom_site_fract_z
_atom_type_partial_charge
Fe0 Fe 0.17015 0.35693 0.32914 0.0
Fe1 Fe 0.1573 0.40967 0.37011 0.0
O2 O 0.1767 0.39042 0.33365 0.0
Fe3 Fe 0.20235 0.40466 0.30176 0.0
O4 O 0.1984 0.38321 0.25203 0.0
O5 O 0.16398 0.3599 0.26929 0.0
O6 O 0.13496 0.36018 0.33721 0.0
C7 C 0.12026 0.37938 0.32991 0.0
C8 C 0.22511 0.35917 0.32862 0.0
O9 O 0.12796 0.40212 0.33795 0.0
C10 C 0.20525 0.42947 0.38836 0.0
O11 O 0.17589 0.35176 0.38917 0.0
O12 O 0.15112 0.38396 0.41145 0.0
O13 O 0.22663 0.38351 0.32744 0.0
O14 O 0.20399 0.34768 0.31979 0.0
C15 C 0.16582 0.44273 0.29466 0.0
O16 O 0.18542 0.41816 0.40393 0.0
O17 O 0.21051 0.42874 0.34608 0.0
C18 C 0.16412 0.36382 0.42011 0.0
O19 O 0.16021 0.43921 0.3361 0.0
O20 O 0.18006 0.42691 0.27355 0.0
C21 C 0.17932 0.36917 0.24023 0.0
Fe22 Fe 0.35886 0.832 0.66182 0.0
Fe23 Fe 0.40691 0.7997 0.6891 0.0
O24 O 0.39277 0.82623 0.65933 0.0
Fe25 Fe 0.41231 0.84728 0.62644 0.0
O26 O 0.40333 0.87493 0.66122 0.0
O27 O 0.36142 0.86741 0.65663 0.0
O28 O 0.36042 0.83643 0.72248 0.0
C29 C 0.36985 0.82074 0.75094 0.0
C30 C 0.36721 0.84164 0.57231 0.0
O31 O 0.38476 0.80242 0.73852 0.0
C32 C 0.43279 0.80025 0.60335 0.0
O33 O 0.34971 0.79811 0.668 0.0
O34 O 0.38603 0.77623 0.66052 0.0
O35 O 0.38701 0.85451 0.58416 0.0
O36 O 0.35538 0.82773 0.60074 0.0
C37 C 0.44473 0.83637 0.70235 0.0
O38 O 0.43151 0.79306 0.6447 0.0
O39 O 0.42222 0.82092 0.59003 0.0
C40 C 0.36157 0.77745 0.65842 0.0
O41 O 0.4292 0.8205 0.72028 0.0
O42 O 0.44144 0.84412 0.66193 0.0
C43 C 0.38014 0.88247 0.66581 0.0
Fe44 Fe 0.79978 0.59481 0.30475 0.0
Fe45 Fe 0.83197 0.64376 0.32428 0.0
O46 O 0.82756 0.60984 0.32954 0.0
Fe47 Fe 0.85071 0.59068 0.35905 0.0
O48 O 0.85682 0.57096 0.30912 0.0
O49 O 0.81582 0.5637 0.29347 0.0
O50 O 0.80988 0.60479 0.24859 0.0
C51 C 0.81466 0.62777 0.23684 0.0
C52 C 0.802 0.5706 0.387 0.0
O53 O 0.81801 0.64541 0.26639 0.0
C54 C 0.84794 0.63305 0.41505 0.0
O55 O 0.77818 0.623 0.31066 0.0
O56 O 0.80105 0.65027 0.35128 0.0
O57 O 0.82633 0.56818 0.38154 0.0
O58 O 0.7883 0.5838 0.3599 0.0
C59 C 0.88224 0.627 0.31212 0.0
O60 O 0.84666 0.64794 0.38089 0.0
O61 O 0.84664 0.60886 0.41102 0.0
C62 C 0.77942 0.64239 0.33687 0.0
O63 O 0.86345 0.64017 0.29722 0.0
O64 O 0.87901 0.6099 0.34235 0.0
C65 C 0.83963 0.5582 0.28844 0.0
Fe66 Fe 0.59512 0.20508 0.68337 0.0
Fe67 Fe 0.59089 0.15588 0.62532 0.0
O68 O 0.61008 0.17797 0.6569 0.0
Fe69 Fe 0.64407 0.17311 0.66282 0.0
O70 O 0.64551 0.18599 0.72166 0.0
O71 O 0.60452 0.1933 0.73896 0.0
O72 O 0.5636 0.18931 0.69252 0.0
C73 C 0.55755 0.16566 0.69527 0.0
C74 C 0.64297 0.22543 0.65243 0.0
O75 O 0.57054 0.14886 0.67417 0.0
C76 C 0.63395 0.15922 0.57064 0.0
O77 O 0.58447 0.218 0.62898 0.0
O78 O 0.56865 0.18088 0.60409 0.0
O79 O 0.65102 0.20412 0.63744 0.0
O80 O 0.62382 0.22628 0.67946 0.0
C81 C 0.62647 0.12328 0.67189 0.0
O82 O 0.60963 0.16105 0.57422 0.0
O83 O 0.64858 0.15934 0.60543 0.0
C84 C 0.57107 0.20521 0.6008 0.0
O85 O 0.60992 0.12715 0.64069 0.0
O86 O 0.63964 0.14161 0.68827 0.0
C87 C 0.62743 0.18789 0.75096 0.0
Fe88 Fe 0.17441 0.64161 0.66899 0.0
Fe89 Fe 0.1575 0.58864 0.63402 0.0
O90 O 0.18014 0.60782 0.66442 0.0
Fe91 Fe 0.20819 0.59343 0.6896 0.0
O92 O 0.20776 0.61472 0.73977 0.0
O93 O 0.17312 0.63958 0.73018 0.0
O94 O 0.13873 0.63901 0.66881 0.0
C95 C 0.12399 0.62027 0.67904 0.0
C96 C 0.22904 0.63908 0.65813 0.0
O97 O 0.13137 0.59728 0.67276 0.0
C98 C 0.20362 0.56855 0.6035 0.0
O99 O 0.17565 0.64578 0.60763 0.0
O100 O 0.14852 0.61403 0.59372 0.0
O101 O 0.23039 0.61473 0.65882 0.0
O102 O 0.20864 0.65069 0.67042 0.0
C103 C 0.17177 0.55574 0.70696 0.0
O104 O 0.18217 0.57899 0.59363 0.0
O105 O 0.21285 0.56961 0.64358 0.0
C106 C 0.16122 0.63354 0.58047 0.0
O107 O 0.16214 0.55945 0.66797 0.0
O108 O 0.18889 0.57069 0.72287 0.0
C109 C 0.19035 0.6297 0.75538 0.0
Fe110 Fe 0.58888 0.84657 0.35915 0.0
Fe111 Fe 0.64257 0.82924 0.32478 0.0
O112 O 0.60848 0.82448 0.32829 0.0
Fe113 Fe 0.5939 0.79744 0.30061 0.0
O114 O 0.5627 0.81369 0.28896 0.0
O115 O 0.56951 0.85395 0.30948 0.0
O116 O 0.60838 0.87532 0.3454 0.0
C117 C 0.62549 0.87922 0.31516 0.0
C118 C 0.56822 0.79744 0.38185 0.0
O119 O 0.63877 0.86084 0.29936 0.0
C120 C 0.64141 0.77681 0.334 0.0
O121 O 0.60656 0.84095 0.41124 0.0
O122 O 0.64603 0.8428 0.38245 0.0
O123 O 0.58197 0.78461 0.35432 0.0
O124 O 0.56597 0.82176 0.37852 0.0
C125 C 0.62791 0.81433 0.23551 0.0
O126 O 0.64898 0.79806 0.35009 0.0
O127 O 0.62237 0.77598 0.30661 0.0
C128 C 0.63078 0.84274 0.41631 0.0
O129 O 0.64514 0.81667 0.26623 0.0
O130 O 0.60471 0.80883 0.24554 0.0
C131 C 0.55677 0.83744 0.28726 0.0
Fe132 Fe 0.82739 0.36262 0.66234 0.0
Fe133 Fe 0.84525 0.417 0.63624 0.0
O134 O 0.82256 0.39646 0.6633 0.0
Fe135 Fe 0.79519 0.40988 0.69134 0.0
O136 O 0.80535 0.39623 0.74522 0.0
O137 O 0.81343 0.35716 0.71895 0.0
O138 O 0.85856 0.36562 0.69075 0.0
C139 C 0.87728 0.37877 0.67577 0.0
C140 C 0.77484 0.36444 0.65018 0.0
O141 O 0.87366 0.39603 0.64591 0.0
C142 C 0.79685 0.44024 0.61589 0.0
O143 O 0.84232 0.36217 0.60536 0.0
O144 O 0.83864 0.40235 0.58172 0.0
O145 O 0.77357 0.38236 0.67957 0.0
O146 O 0.79647 0.35736 0.63431 0.0
C147 C 0.83615 0.44478 0.713 0.0
O148 O 0.82121 0.44174 0.62131 0.0
O149 O 0.78338 0.42459 0.63887 0.0
C150 C 0.84098 0.37858 0.57335 0.0
O151 O 0.85291 0.43297 0.68949 0.0
O152 O 0.81211 0.43971 0.70856 0.0
C153 C 0.81044 0.37269 0.75188 0.0
Fe154 Fe 0.40899 0.2028 0.29806 0.0
Fe155 Fe 0.41314 0.15794 0.36651 0.0
O156 O 0.39434 0.17733 0.3295 0.0
Fe157 Fe 0.36076 0.1709 0.32425 0.0
O158 O 0.36437 0.16433 0.26454 0.0
O159 O 0.38795 0.19859 0.24748 0.0
O160 O 0.43199 0.18075 0.27089 0.0
C161 C 0.44767 0.16668 0.29284 0.0
C162 C 0.36284 0.22537 0.32316 0.0
O163 O 0.44331 0.16097 0.334 0.0
C164 C 0.36619 0.1641 0.41502 0.0
O165 O 0.4325 0.21096 0.34347 0.0
O166 O 0.42124 0.18585 0.40095 0.0
O167 O 0.35151 0.20439 0.31363 0.0
O168 O 0.38733 0.22694 0.32284 0.0
C169 C 0.38304 0.12106 0.32658 0.0
O170 O 0.38659 0.15131 0.40659 0.0
O171 O 0.35525 0.17714 0.38429 0.0
C172 C 0.43272 0.20566 0.38578 0.0
O173 O 0.40595 0.12899 0.33349 0.0
O174 O 0.36383 0.1359 0.33335 0.0
C175 C 0.37419 0.17934 0.23551 0.0
Fe176 Fe 0.673 0.86037 0.82386 0.0
Fe177 Fe 0.65738 0.91404 0.85959 0.0
O178 O 0.67896 0.89404 0.82868 0.0
Fe179 Fe 0.70675 0.9079 0.80243 0.0
O180 O 0.69487 0.89847 0.74702 0.0
O181 O 0.68593 0.85808 0.76523 0.0
O182 O 0.64133 0.86532 0.79834 0.0
C183 C 0.6233 0.87878 0.81506 0.0
C184 C 0.7258 0.85986 0.83416 0.0
O185 O 0.62788 0.89554 0.84551 0.0
C186 C 0.7073 0.93285 0.8838 0.0
O187 O 0.65892 0.857 0.88131 0.0
O188 O 0.66291 0.89585 0.91122 0.0
O189 O 0.72727 0.87886 0.80714 0.0
O190 O 0.7041 0.85269 0.84941 0.0
C191 C 0.66807 0.94618 0.78887 0.0
O192 O 0.68299 0.93606 0.87951 0.0
O193 O 0.71984 0.91846 0.8569 0.0
C194 C 0.66038 0.87176 0.91573 0.0
O195 O 0.65064 0.93381 0.80978 0.0
O196 O 0.69169 0.93956 0.79235 0.0
C197 C 0.68869 0.87578 0.7356 0.0
Fe198 Fe 0.91315 0.34729 0.11814 0.0
Fe199 Fe 0.85997 0.33624 0.15972 0.0
O200 O 0.89349 0.32896 0.15538 0.0
Fe201 Fe 0.90729 0.30367 0.18841 0.0
O202 O 0.92997 0.32581 0.21586 0.0
O203 O 0.94281 0.34461 0.15268 0.0
O204 O 0.90597 0.37705 0.14885 0.0
C205 C 0.88321 0.3855 0.15497 0.0
C206 C 0.93209 0.29896 0.10215 0.0
O207 O 0.86376 0.37093 0.14868 0.0
C208 C 0.86104 0.28171 0.16271 0.0
O209 O 0.88729 0.35296 0.07619 0.0
O210 O 0.85451 0.32931 0.10016 0.0
O211 O 0.93151 0.29444 0.14469 0.0
O212 O 0.92126 0.31874 0.08576 0.0
C213 C 0.87262 0.32863 0.24895 0.0
O214 O 0.85004 0.30299 0.17161 0.0
O215 O 0.88551 0.27972 0.16345 0.0
C216 C 0.86669 0.34028 0.06841 0.0
O217 O 0.86349 0.34366 0.21923 0.0
O218 O 0.88567 0.3088 0.23773 0.0
C219 C 0.94601 0.33974 0.19456 0.0
Fe220 Fe 0.34569 0.09033 0.85511 0.0
Fe221 Fe 0.29629 0.09553 0.79671 0.0
O222 O 0.32373 0.10983 0.82389 0.0
Fe223 Fe 0.3295 0.14361 0.82055 0.0
O224 O 0.36513 0.14067 0.82129 0.0
O225 O 0.37239 0.09884 0.81769 0.0
O226 O 0.34116 0.06132 0.82062 0.0
C227 C 0.3331 0.05831 0.78035 0.0
C228 C 0.34198 0.13494 0.90931 0.0
O229 O 0.31656 0.07359 0.76354 0.0
C230 C 0.27478 0.14054 0.82965 0.0
O231 O 0.32021 0.08096 0.89406 0.0
O232 O 0.29111 0.07108 0.84163 0.0
O233 O 0.32779 0.14732 0.88201 0.0
O234 O 0.35456 0.11537 0.8961 0.0
C235 C 0.31451 0.13277 0.73306 0.0
O236 O 0.27355 0.11621 0.82729 0.0
O237 O 0.29523 0.15258 0.8188 0.0
C238 C 0.29914 0.07032 0.88254 0.0
O239 O 0.29709 0.11744 0.74741 0.0
O240 O 0.33137 0.14234 0.75931 0.0
C241 C 0.37979 0.1218 0.81119 0.0
Fe242 Fe 0.09991 0.7005 0.18938 0.0
Fe243 Fe 0.09556 0.65316 0.12579 0.0
O244 O 0.1145 0.67396 0.16043 0.0
Fe245 Fe 0.14826 0.6681 0.16571 0.0
O246 O 0.14509 0.6636 0.22598 0.0
O247 O 0.1213 0.69815 0.23991 0.0
O248 O 0.07728 0.67962 0.21928 0.0
C249 C 0.06197 0.66395 0.20013 0.0
C250 C 0.1456 0.72252 0.16119 0.0
O251 O 0.06586 0.65637 0.15973 0.0
C252 C 0.14213 0.65855 0.07568 0.0
O253 O 0.07597 0.707 0.14408 0.0
O254 O 0.0864 0.67982 0.08919 0.0
O255 O 0.15728 0.70201 0.17238 0.0
O256 O 0.12114 0.72376 0.16161 0.0
C257 C 0.12656 0.61793 0.16827 0.0
O258 O 0.12177 0.64597 0.0853 0.0
O259 O 0.1533 0.67229 0.10515 0.0
C260 C 0.07507 0.70009 0.1026 0.0
O261 O 0.10359 0.62521 0.16038 0.0
O262 O 0.14564 0.63279 0.16069 0.0
C263 C 0.1352 0.67938 0.25361 0.0
Fe264 Fe 0.65824 0.08862 0.12714 0.0
Fe265 Fe 0.70851 0.09351 0.18276 0.0
O266 O 0.68073 0.10806 0.15749 0.0
Fe267 Fe 0.67549 0.14173 0.16345 0.0
O268 O 0.64406 0.13691 0.18977 0.0
O269 O 0.62923 0.10765 0.14215 0.0
O270 O 0.65188 0.06877 0.17706 0.0
C271 C 0.66933 0.05583 0.1969 0.0
C272 C 0.66091 0.13105 0.0715 0.0
O273 O 0.69303 0.06197 0.19244 0.0
C274 C 0.72813 0.14189 0.1528 0.0
O275 O 0.68331 0.06629 0.10605 0.0
O276 O 0.72077 0.08321 0.1276 0.0
O277 O 0.66127 0.14584 0.10606 0.0
O278 O 0.66293 0.10688 0.07547 0.0
C279 C 0.69141 0.12521 0.25109 0.0
O280 O 0.72956 0.12229 0.17853 0.0
O281 O 0.70647 0.14922 0.13763 0.0
C282 C 0.70767 0.06902 0.10108 0.0
O283 O 0.69731 0.1026 0.23879 0.0
O284 O 0.68878 0.14325 0.22205 0.0
C285 C 0.62546 0.12413 0.17333 0.0
Fe286 Fe 0.14162 0.32825 0.82625 0.0
Fe287 Fe 0.09322 0.29646 0.80013 0.0
O288 O 0.10744 0.32366 0.82776 0.0
Fe289 Fe 0.08755 0.34594 0.85737 0.0
O290 O 0.10772 0.37445 0.8442 0.0
O291 O 0.13855 0.35959 0.79932 0.0
O292 O 0.14538 0.3146 0.76903 0.0
C293 C 0.12897 0.31181 0.73721 0.0
C294 C 0.12853 0.34199 0.91627 0.0
O295 O 0.10538 0.30708 0.7455 0.0
C296 C 0.06603 0.29724 0.87992 0.0
O297 O 0.1472 0.29732 0.85337 0.0
O298 O 0.12133 0.27489 0.80892 0.0
O299 O 0.10444 0.33987 0.91008 0.0
O300 O 0.14408 0.34288 0.88301 0.0
C301 C 0.05646 0.33673 0.78425 0.0
O302 O 0.0801 0.28418 0.85332 0.0
O303 O 0.06401 0.32153 0.87603 0.0
C304 C 0.13974 0.2759 0.83762 0.0
O305 O 0.06245 0.31297 0.78609 0.0
O306 O 0.06894 0.35332 0.80682 0.0
C307 C 0.12547 0.3782 0.81495 0.0
Fe308 Fe 0.29608 0.91072 0.18586 0.0
Fe309 Fe 0.32895 0.86241 0.1663 0.0
O310 O 0.32354 0.89601 0.16028 0.0
Fe311 Fe 0.34572 0.91499 0.12875 0.0
O312 O 0.35338 0.93461 0.17817 0.0
O313 O 0.31257 0.94176 0.19676 0.0
O314 O 0.30687 0.90095 0.24172 0.0
C315 C 0.31205 0.87812 0.25356 0.0
C316 C 0.29676 0.93557 0.10436 0.0
O317 O 0.3151 0.86045 0.22409 0.0
C318 C 0.34167 0.87253 0.07425 0.0
O319 O 0.27477 0.88218 0.17996 0.0
O320 O 0.29816 0.85495 0.13975 0.0
O321 O 0.3211 0.93805 0.10904 0.0
O322 O 0.28371 0.9217 0.13121 0.0
C323 C 0.37851 0.88017 0.17561 0.0
O324 O 0.34376 0.85835 0.10936 0.0
O325 O 0.33905 0.89665 0.07788 0.0
C326 C 0.27638 0.86269 0.15387 0.0
O327 O 0.36008 0.86782 0.1935 0.0
O328 O 0.37452 0.89523 0.14236 0.0
C329 C 0.33657 0.94729 0.20013 0.0
Fe330 Fe 0.90913 0.7038 0.80363 0.0
Fe331 Fe 0.91236 0.6563 0.86641 0.0
O332 O 0.89386 0.67739 0.8317 0.0
Fe333 Fe 0.86001 0.67187 0.82572 0.0
O334 O 0.86308 0.668 0.76479 0.0
O335 O 0.88845 0.70179 0.75258 0.0
O336 O 0.93172 0.68261 0.77401 0.0
C337 C 0.94662 0.66662 0.79327 0.0
C338 C 0.86327 0.72623 0.83108 0.0
O339 O 0.94249 0.65952 0.8338 0.0
C340 C 0.86562 0.66149 0.91593 0.0
O341 O 0.93268 0.70986 0.84984 0.0
O342 O 0.92118 0.68262 0.90394 0.0
O343 O 0.85142 0.70585 0.81978 0.0
O344 O 0.88779 0.72732 0.83086 0.0
C345 C 0.88146 0.6214 0.82336 0.0
O346 O 0.88586 0.64886 0.90594 0.0
O347 O 0.85465 0.67559 0.88667 0.0
C348 C 0.9328 0.70287 0.89131 0.0
O349 O 0.90446 0.62878 0.83072 0.0
O350 O 0.86245 0.63652 0.8302 0.0
C351 C 0.87387 0.68378 0.73806 0.0
H352 H 0.16877 0.4893 0.33614 0.0
H353 H 0.09929 0.57343 0.14957 0.0
H354 H 0.14961 0.45373 0.20739 0.0
H355 H 0.16561 0.60238 0.22398 0.0
H356 H 0.10915 0.52959 0.17788 0.0
H357 H 0.15907 0.53171 0.30338 0.0
C358 C 0.16234 0.49046 0.30099 0.0
C359 C 0.15993 0.46809 0.2743 0.0
C360 C 0.1215 0.54563 0.18768 0.0
C361 C 0.14845 0.51638 0.23711 0.0
C362 C 0.11584 0.57055 0.17189 0.0
C363 C 0.13173 0.59144 0.18448 0.0
C364 C 0.14264 0.54194 0.21725 0.0
C365 C 0.15299 0.58674 0.21329 0.0
C366 C 0.15697 0.51461 0.28237 0.0
C367 C 0.15178 0.47062 0.22887 0.0
N368 N 0.15764 0.56254 0.22919 0.0
N369 N 0.146 0.49443 0.21168 0.0
H370 H 0.47455 0.80629 0.75866 0.0
H371 H 0.58244 0.91261 0.81067 0.0
H372 H 0.47063 0.88228 0.69851 0.0
H373 H 0.60231 0.83246 0.78952 0.0
H374 H 0.53746 0.90294 0.78751 0.0
H375 H 0.51778 0.81695 0.7894 0.0
C376 C 0.48259 0.82536 0.75268 0.0
C377 C 0.46911 0.84344 0.72598 0.0
C378 C 0.55173 0.88753 0.78817 0.0
C379 C 0.51814 0.85573 0.7612 0.0
C380 C 0.57728 0.89298 0.80142 0.0
C381 C 0.5961 0.87332 0.8017 0.0
C382 C 0.54483 0.86211 0.77645 0.0
C383 C 0.58844 0.84821 0.78932 0.0
C384 C 0.50725 0.83132 0.76986 0.0
C385 C 0.4805 0.86778 0.71878 0.0
N386 N 0.56333 0.84327 0.77753 0.0
N387 N 0.50433 0.87328 0.73644 0.0
H388 H 0.91869 0.4216 0.18533 0.0
H389 H 0.80786 0.52612 0.23956 0.0
H390 H 0.83707 0.41147 0.15541 0.0
H391 H 0.88819 0.53641 0.27874 0.0
H392 H 0.81952 0.48582 0.20191 0.0
H393 H 0.9092 0.46539 0.21312 0.0
C394 C 0.89886 0.42865 0.18413 0.0
C395 C 0.87864 0.41277 0.16823 0.0
C396 C 0.83467 0.4969 0.21856 0.0
C397 C 0.86766 0.46267 0.20006 0.0
C398 C 0.828 0.51997 0.24013 0.0
C399 C 0.84701 0.5346 0.26283 0.0
C400 C 0.86055 0.4882 0.21967 0.0
C401 C 0.87285 0.52569 0.26195 0.0
C402 C 0.89345 0.4536 0.20014 0.0
C403 C 0.85329 0.42289 0.16763 0.0
N404 N 0.87884 0.50297 0.241 0.0
N405 N 0.84855 0.44708 0.18346 0.0
H406 H 0.41701 0.08702 0.7832 0.0
H407 H 0.52352 0.19722 0.74004 0.0
H408 H 0.40407 0.16861 0.80512 0.0
H409 H 0.53504 0.11749 0.70105 0.0
H410 H 0.48111 0.18587 0.77078 0.0
H411 H 0.46149 0.09676 0.75859 0.0
C412 C 0.42351 0.10694 0.78295 0.0
C413 C 0.40675 0.12703 0.79622 0.0
C414 C 0.49291 0.1708 0.75564 0.0
C415 C 0.45754 0.13824 0.76832 0.0
C416 C 0.51722 0.17727 0.73815 0.0
C417 C 0.53282 0.15833 0.71751 0.0
C418 C 0.48402 0.14519 0.7526 0.0
C419 C 0.5236 0.13276 0.7164 0.0
C420 C 0.44888 0.11248 0.76889 0.0
C421 C 0.41621 0.15248 0.79513 0.0
N422 N 0.49972 0.12695 0.73348 0.0
N423 N 0.44093 0.15732 0.78146 0.0
H424 H 0.12362 0.53477 0.71429 0.0
H425 H 0.17242 0.39585 0.78363 0.0
H426 H 0.20353 0.52178 0.75255 0.0
H427 H 0.09501 0.42164 0.81772 0.0
H428 H 0.18401 0.44043 0.76367 0.0
H429 H 0.11225 0.49215 0.74487 0.0
C430 C 0.13869 0.52302 0.72971 0.0
C431 C 0.16451 0.53177 0.73117 0.0
C432 C 0.16455 0.4363 0.77576 0.0
C433 C 0.15181 0.48278 0.76485 0.0
C434 C 0.15783 0.41087 0.78679 0.0
C435 C 0.13266 0.40501 0.80226 0.0
C436 C 0.1458 0.45593 0.77918 0.0
C437 C 0.11464 0.4253 0.80601 0.0
C438 C 0.1322 0.49875 0.74711 0.0
C439 C 0.18336 0.5158 0.75126 0.0
N440 N 0.12146 0.44981 0.79405 0.0
N441 N 0.17672 0.49183 0.76667 0.0
H442 H 0.53341 0.81832 0.21035 0.0
H443 H 0.39522 0.87323 0.26258 0.0
H444 H 0.52316 0.87382 0.31867 0.0
H445 H 0.42224 0.87512 0.12349 0.0
H446 H 0.43987 0.86415 0.2879 0.0
H447 H 0.49011 0.83007 0.18058 0.0
C448 C 0.5221 0.83303 0.22761 0.0
C449 C 0.53181 0.84526 0.26677 0.0
C450 C 0.43592 0.86661 0.25188 0.0
C451 C 0.48251 0.85803 0.23403 0.0
C452 C 0.41058 0.87167 0.23746 0.0
C453 C 0.40525 0.87502 0.191 0.0
C454 C 0.45578 0.86407 0.21946 0.0
C455 C 0.42574 0.87285 0.15967 0.0
C456 C 0.49759 0.83973 0.21063 0.0
C457 C 0.51645 0.86415 0.2881 0.0
N458 N 0.45018 0.86715 0.17442 0.0
N459 N 0.49235 0.86968 0.27187 0.0
H460 H 0.91644 0.58344 0.79992 0.0
H461 H 0.8051 0.47745 0.76196 0.0
H462 H 0.8344 0.59707 0.82057 0.0
H463 H 0.88501 0.46584 0.72141 0.0
H464 H 0.81707 0.5192 0.79409 0.0
H465 H 0.90659 0.53848 0.77992 0.0
C466 C 0.8964 0.57698 0.8004 0.0
C467 C 0.87621 0.5941 0.81168 0.0
C468 C 0.83204 0.50746 0.77845 0.0
C469 C 0.86487 0.54278 0.78919 0.0
C470 C 0.82524 0.48353 0.76023 0.0
C471 C 0.844 0.46824 0.73834 0.0
C472 C 0.8578 0.51625 0.7748 0.0
C473 C 0.86984 0.47709 0.73756 0.0
C474 C 0.89081 0.55134 0.78902 0.0
C475 C 0.8506 0.58467 0.8118 0.0
N476 N 0.87594 0.50065 0.75512 0.0
N477 N 0.84569 0.5597 0.80067 0.0
H478 H 0.57926 0.11561 0.12838 0.0
H479 H 0.49185 0.15587 0.33983 0.0
H480 H 0.61079 0.1456 0.25413 0.0
H481 H 0.46237 0.16238 0.20248 0.0
H482 H 0.53456 0.14525 0.30961 0.0
H483 H 0.53527 0.12615 0.15559 0.0
C484 C 0.57693 0.12429 0.16172 0.0
C485 C 0.59871 0.12975 0.18907 0.0
C486 C 0.51879 0.14899 0.28601 0.0
C487 C 0.54866 0.14156 0.22029 0.0
C488 C 0.4943 0.15492 0.3032 0.0
C489 C 0.47344 0.16 0.2736 0.0
C490 C 0.52255 0.14768 0.23877 0.0
C491 C 0.47796 0.15869 0.22644 0.0
C492 C 0.55188 0.13043 0.17702 0.0
C493 C 0.59459 0.14116 0.23184 0.0
N494 N 0.50206 0.15246 0.21038 0.0
N495 N 0.57008 0.1465 0.24622 0.0
H496 H 0.70185 0.98419 0.76372 0.0
H497 H 0.59551 0.08041 0.6626 0.0
H498 H 0.61998 0.96542 0.76506 0.0
H499 H 0.66959 0.10542 0.71626 0.0
H500 H 0.60515 0.03629 0.68852 0.0
H501 H 0.69137 0.02676 0.73344 0.0
C502 C 0.68165 0.9889 0.75727 0.0
C503 C 0.66173 0.97121 0.76719 0.0
C504 C 0.61922 0.05151 0.69455 0.0
C505 C 0.64967 0.02007 0.73244 0.0
C506 C 0.61381 0.07661 0.67967 0.0
C507 C 0.6318 0.0966 0.68728 0.0
C508 C 0.64295 0.04635 0.7164 0.0
C509 C 0.65513 0.09065 0.7098 0.0
C510 C 0.6757 0.0133 0.74023 0.0
C511 C 0.63592 0.97853 0.75816 0.0
N512 N 0.66009 0.06604 0.7233 0.0
N513 N 0.6306 0.00246 0.74121 0.0
H514 H 0.10679 0.34274 0.26867 0.0
H515 H 0.95494 0.35337 0.2838 0.0
H516 H 0.0743 0.40486 0.34854 0.0
H517 H 0.99353 0.34257 0.15468 0.0
H518 H 0.99722 0.36493 0.3183 0.0
H519 H 0.06374 0.33433 0.23639 0.0
C520 C 0.09052 0.3545 0.27962 0.0
C521 C 0.09403 0.37453 0.31126 0.0
C522 C 0.99622 0.36015 0.28239 0.0
C523 C 0.04476 0.36464 0.27514 0.0
C524 C 0.97227 0.35343 0.26284 0.0
C525 C 0.97083 0.34709 0.21638 0.0
C526 C 0.01878 0.35963 0.2555 0.0
C527 C 0.99378 0.34752 0.19055 0.0
C528 C 0.06606 0.34976 0.26106 0.0
C529 C 0.07233 0.38932 0.32405 0.0
N530 N 0.01686 0.35333 0.21059 0.0
N531 N 0.04841 0.38389 0.30629 0.0
H532 H 0.41366 0.91865 0.70089 0.0
H533 H 0.30705 0.03169 0.71292 0.0
H534 H 0.33398 0.90855 0.65779 0.0
H535 H 0.37783 0.0312 0.79207 0.0
H536 H 0.31954 0.98977 0.67994 0.0
H537 H 0.40349 0.96322 0.72268 0.0
C538 C 0.39408 0.92583 0.69577 0.0
C539 C 0.37462 0.90976 0.67779 0.0
C540 C 0.33239 0.99901 0.70428 0.0
C541 C 0.36289 0.96079 0.70235 0.0
C542 C 0.32535 0.02296 0.72283 0.0
C543 C 0.34131 0.03477 0.75559 0.0
C544 C 0.35568 0.98708 0.71815 0.0
C545 C 0.36479 0.02259 0.76734 0.0
C546 C 0.38827 0.95125 0.70827 0.0
C547 C 0.34956 0.92015 0.6719 0.0
N548 N 0.37123 0.99943 0.74875 0.0
N549 N 0.34442 0.94499 0.68415 0.0
H550 H 0.03578 0.61837 0.19483 0.0
H551 H 0.90214 0.67329 0.28323 0.0
H552 H 0.03116 0.69479 0.25318 0.0
H553 H 0.92296 0.59347 0.30563 0.0
H554 H 0.94715 0.68216 0.25979 0.0
H555 H 0.99208 0.60906 0.22419 0.0
C556 C 0.02562 0.63307 0.21422 0.0
C557 C 0.03704 0.6573 0.22194 0.0
C558 C 0.94178 0.66275 0.26997 0.0
C559 C 0.98703 0.64709 0.25418 0.0
C560 C 0.91614 0.65764 0.28294 0.0
C561 C 0.90891 0.63263 0.29639 0.0
C562 C 0.96001 0.64256 0.26933 0.0
C563 C 0.92782 0.61305 0.29571 0.0
C564 C 1.00078 0.62776 0.23089 0.0
C565 C 0.02309 0.67577 0.24701 0.0
N566 N 0.95248 0.61837 0.28194 0.0
N567 N 0.99858 0.67042 0.26171 0.0
H568 H 0.7026 0.017 0.22056 0.0
H569 H 0.59527 0.92271 0.32476 0.0
H570 H 0.62116 0.03746 0.22244 0.0
H571 H 0.66885 0.89656 0.27095 0.0
H572 H 0.60551 0.96666 0.29857 0.0
H573 H 0.69166 0.97466 0.25135 0.0
C574 C 0.6824 0.0127 0.22779 0.0
C575 C 0.66274 0.03083 0.21865 0.0
C576 C 0.61935 0.95123 0.29259 0.0
C577 C 0.65013 0.98218 0.25405 0.0
C578 C 0.6136 0.92621 0.30764 0.0
C579 C 0.63124 0.90592 0.30005 0.0
C580 C 0.64308 0.95602 0.27053 0.0
C581 C 0.65463 0.91154 0.27745 0.0
C582 C 0.67618 0.98843 0.24515 0.0
C583 C 0.63691 0.02402 0.2287 0.0
N584 N 0.6599 0.93605 0.26375 0.0
N585 N 0.63133 1.00021 0.24594 0.0
H586 H 0.89334 0.36569 0.76104 0.0
H587 H 0.03401 0.31903 0.7054 0.0
H588 H 0.92148 0.37767 0.6242 0.0
H589 H 0.02146 0.37083 0.81854 0.0
H590 H 0.99022 0.32987 0.67656 0.0
H591 H 0.9381 0.35634 0.78574 0.0
C592 C 0.90895 0.36617 0.73624 0.0
C593 C 0.90391 0.37256 0.69066 0.0
C594 C 0.9973 0.33892 0.70748 0.0
C595 C 0.95456 0.36134 0.71829 0.0
C596 C 0.02211 0.33278 0.72388 0.0
C597 C 0.03132 0.34428 0.76406 0.0
C598 C 0.98146 0.35583 0.73251 0.0
C599 C 0.01516 0.36183 0.78708 0.0
C600 C 0.93434 0.36097 0.75033 0.0
C601 C 0.92473 0.37302 0.65974 0.0
N602 N 0.99082 0.36677 0.77137 0.0
N603 N 0.94922 0.36717 0.67401 0.0
H604 H 0.41792 0.08421 0.29686 0.0
H605 H 0.30569 0.98003 0.24928 0.0
H606 H 0.33643 0.096 0.32572 0.0
H607 H 0.38537 0.96889 0.20713 0.0
H608 H 0.31805 0.0208 0.28466 0.0
H609 H 0.40775 0.04025 0.27062 0.0
C610 C 0.39797 0.07751 0.29806 0.0
C611 C 0.378 0.09388 0.31332 0.0
C612 C 0.3329 0.00943 0.26785 0.0
C613 C 0.36625 0.04377 0.28339 0.0
C614 C 0.32584 0.98608 0.24762 0.0
C615 C 0.34444 0.97108 0.22473 0.0
C616 C 0.35878 0.01801 0.26523 0.0
C617 C 0.37032 0.97989 0.22413 0.0
C618 C 0.39217 0.05247 0.28298 0.0
C619 C 0.35248 0.0842 0.31399 0.0
N620 N 0.3767 0.00287 0.24381 0.0
N621 N 0.34738 0.05989 0.29916 0.0
H622 H 0.08936 0.58734 0.72027 0.0
H623 H 0.97254 0.68976 0.72225 0.0
H624 H 0.09685 0.6654 0.66978 0.0
H625 H 0.97626 0.62447 0.81365 0.0
H626 H 0.01504 0.67733 0.69121 0.0
H627 H 0.04473 0.59724 0.74412 0.0
C628 C 0.0816 0.6065 0.71404 0.0
C629 C 0.0969 0.62561 0.69325 0.0
C630 C 0.00643 0.66569 0.7179 0.0
C631 C 0.04589 0.63692 0.7199 0.0
C632 C 0.98215 0.67267 0.73542 0.0
C633 C 0.97098 0.65826 0.77087 0.0
C634 C 0.01941 0.64394 0.73549 0.0
C635 C 0.98431 0.6363 0.78668 0.0
C636 C 0.05618 0.61213 0.72771 0.0
C637 C 0.08584 0.65012 0.68604 0.0
N638 N 0.00781 0.62982 0.76893 0.0
N639 N 0.06101 0.65505 0.69922 0.0
H640 H 0.20223 0.57324 0.51118 0.0
H641 H 0.22901 0.47464 0.36311 0.0
H642 H 0.23064 0.5238 0.61865 0.0
H643 H 0.20957 0.42865 0.48097 0.0
H644 H 0.23924 0.511 0.41356 0.0
H645 H 0.21348 0.54003 0.45554 0.0
C646 C 0.21151 0.55562 0.52286 0.0
C647 C 0.21535 0.55112 0.5695 0.0
C648 C 0.23308 0.49282 0.42833 0.0
C649 C 0.22825 0.51298 0.50613 0.0
C650 C 0.22756 0.47197 0.39964 0.0
C651 C 0.21791 0.44881 0.41795 0.0
C652 C 0.22894 0.49035 0.47546 0.0
C653 C 0.21647 0.44638 0.46551 0.0
C654 C 0.21816 0.53674 0.49104 0.0
C655 C 0.22739 0.528 0.58294 0.0
N656 N 0.22159 0.46703 0.49264 0.0
N657 N 0.23277 0.50945 0.55146 0.0
H658 H 0.42652 0.79372 0.51222 0.0
H659 H 0.57582 0.78949 0.47212 0.0
H660 H 0.48022 0.77863 0.62199 0.0
H661 H 0.52054 0.77785 0.36375 0.0
H662 H 0.54183 0.77933 0.52789 0.0
H663 H 0.46015 0.78183 0.45745 0.0
C664 C 0.44528 0.7873 0.52473 0.0
C665 C 0.45076 0.78738 0.57152 0.0
C666 C 0.53728 0.77815 0.4919 0.0
C667 C 0.4896 0.77444 0.50913 0.0
C668 C 0.5567 0.78381 0.46019 0.0
C669 C 0.55082 0.78419 0.41362 0.0
C670 C 0.51172 0.77366 0.47672 0.0
C671 C 0.52573 0.77742 0.39953 0.0
C672 C 0.46449 0.78049 0.49349 0.0
C673 C 0.47529 0.77883 0.5861 0.0
N674 N 0.50692 0.77289 0.43102 0.0
N675 N 0.49407 0.7733 0.55492 0.0
H676 H 0.79507 0.49077 0.63715 0.0
H677 H 0.76685 0.53113 0.3796 0.0
H678 H 0.77225 0.43622 0.53363 0.0
H679 H 0.81088 0.57564 0.4769 0.0
H680 H 0.75509 0.5006 0.44075 0.0
H681 H 0.78607 0.52624 0.58442 0.0
C682 C 0.78732 0.4864 0.60363 0.0
C683 C 0.78432 0.46076 0.58941 0.0
C684 C 0.76674 0.51743 0.44884 0.0
C685 C 0.77496 0.50097 0.52845 0.0
C686 C 0.77329 0.53485 0.41416 0.0
C687 C 0.78981 0.55571 0.42366 0.0
C688 C 0.77668 0.52126 0.493 0.0
C689 C 0.7981 0.55967 0.46851 0.0
C690 C 0.78238 0.50657 0.57346 0.0
C691 C 0.77458 0.45588 0.54566 0.0
N692 N 0.79159 0.5425 0.50148 0.0
N693 N 0.77067 0.47587 0.51622 0.0
H694 H 0.47949 0.22686 0.36242 0.0
H695 H 0.52679 0.23104 0.6214 0.0
H696 H 0.42957 0.21253 0.47781 0.0
H697 H 0.57512 0.20759 0.50891 0.0
H698 H 0.49199 0.2421 0.56727 0.0
H699 H 0.51496 0.23772 0.41491 0.0
C700 C 0.47574 0.22684 0.39875 0.0
C701 C 0.45171 0.21846 0.41596 0.0
C702 C 0.51052 0.23534 0.55442 0.0
C703 C 0.49204 0.23086 0.47577 0.0
C704 C 0.53036 0.22925 0.58513 0.0
C705 C 0.55368 0.21862 0.56918 0.0
C706 C 0.51427 0.23081 0.50768 0.0
C707 C 0.55735 0.21595 0.52217 0.0
C708 C 0.49602 0.23288 0.4286 0.0
C709 C 0.44795 0.21859 0.46329 0.0
N710 N 0.53771 0.22181 0.49294 0.0
N711 N 0.46802 0.22439 0.49164 0.0
H712 H 0.72376 0.07617 0.01369 0.0
H713 H 0.71953 0.9249 0.9726 0.0
H714 H 0.71961 0.01955 0.12098 0.0
H715 H 0.72399 0.98118 0.8648 0.0
H716 H 0.73074 0.95866 0.02787 0.0
H717 H 0.73493 0.04171 0.95957 0.0
C718 C 0.7261 0.05655 0.02596 0.0
C719 C 0.72097 0.05048 0.0715 0.0
C720 C 0.73001 0.96357 0.99202 0.0
C721 C 0.7328 0.011 0.01017 0.0
C722 C 0.72382 0.94425 0.96057 0.0
C723 C 0.72113 0.95044 0.91443 0.0
C724 C 0.73287 0.98928 0.97708 0.0
C725 C 0.72621 0.97578 0.90026 0.0
C726 C 0.73228 0.03686 -0.00483 0.0
C727 C 0.72365 0.02483 0.08596 0.0
N728 N 0.73145 0.99442 0.93159 0.0
N729 N 0.72902 0.00593 0.05525 0.0
H730 H 0.97988 0.27943 0.12435 0.0
H731 H 0.01997 0.27378 0.86193 0.0
H732 H 0.9265 0.28833 0.01197 0.0
H733 H 0.07248 0.29315 0.97115 0.0
H734 H 0.98654 0.26268 0.91843 0.0
H735 H 0.01429 0.26791 0.0701 0.0
C736 C 0.97518 0.27804 0.08843 0.0
C737 C 0.95048 0.28512 0.07239 0.0
C738 C 0.00562 0.26865 0.93005 0.0
C739 C 0.98957 0.27221 0.01051 0.0
C740 C 0.02466 0.27479 0.8979 0.0
C741 C 0.0488 0.28425 0.91231 0.0
C742 C 0.01089 0.27215 0.97667 0.0
C743 C 0.05399 0.2858 0.95906 0.0
C744 C 0.99484 0.27168 0.05751 0.0
C745 C 0.94543 0.28328 0.02552 0.0
N746 N 0.03506 0.28008 0.98972 0.0
N747 N 0.96491 0.27732 -0.00387 0.0
H748 H 0.29619 0.07658 0.97421 0.0
H749 H 0.28477 0.92833 0.01516 0.0
H750 H 0.27493 0.02409 0.86619 0.0
H751 H 0.28115 0.98407 0.12399 0.0
H752 H 0.2746 0.96271 0.96034 0.0
H753 H 0.28439 0.04372 0.03009 0.0
C754 C 0.28851 0.05825 0.96237 0.0
C755 C 0.28682 0.05284 0.91568 0.0
C756 C 0.27518 0.96732 -0.00367 0.0
C757 C 0.27389 0.01488 0.97925 0.0
C758 C 0.28085 0.94769 0.02749 0.0
C759 C 0.28355 0.95359 0.07378 0.0
C760 C 0.27296 0.99298 0.01177 0.0
C761 C 0.27896 0.97893 0.0884 0.0
C762 C 0.28172 0.03949 0.99424 0.0
C763 C 0.27659 0.02892 0.90199 0.0
N764 N 0.27433 0.99783 0.05736 0.0
N765 N 0.27108 0.01053 0.93368 0.0
H766 H 0.92862 0.70639 0.98362 0.0
H767 H 0.03233 0.72902 0.12523 0.0
H768 H 0.97981 0.7248 0.87186 0.0
H769 H 0.07422 0.69868 0.00951 0.0
H770 H 0.99626 0.74049 0.07458 0.0
H771 H 0.9637 0.7162 0.03701 0.0
C772 C 0.94705 0.71326 0.97046 0.0
C773 C 0.95143 0.71464 0.92338 0.0
C774 C 0.0135 0.73159 0.0603 0.0
C775 C 0.99171 0.72572 0.98406 0.0
C776 C 0.03419 0.72527 0.08905 0.0
C777 C 0.05604 0.71231 0.07163 0.0
C778 C 0.0148 0.72499 0.01394 0.0
C779 C 0.05748 0.70813 0.02445 0.0
C780 C 0.96704 0.71905 0.00093 0.0
C781 C 0.97565 0.72354 0.90796 0.0
N782 N 0.03698 0.71419 -0.00273 0.0
N783 N 0.99516 0.72805 0.93824 0.0
H784 H 0.14312 0.33611 0.20619 0.0
H785 H 0.1765 0.35929 0.94429 0.0
H786 H 0.20513 0.38728 0.16431 0.0
H787 H 0.10294 0.33089 0.99472 0.0
H788 H 0.19156 0.36418 0.02331 0.0
H789 H 0.13302 0.32779 0.12697 0.0
C790 C 0.15473 0.34557 0.18032 0.0
C791 C 0.17484 0.36269 0.19196 0.0
C792 C 0.17217 0.35686 0.01682 0.0
C793 C 0.16317 0.35321 0.10076 0.0
C794 C 0.16359 0.35401 0.97192 0.0
C795 C 0.13839 0.34481 0.96307 0.0
C796 C 0.1555 0.35007 0.05271 0.0
C797 C 0.12243 0.33824 -4e-05 0.0
C798 C 0.14888 0.34081 0.13499 0.0
C799 C 0.18937 0.37407 0.15677 0.0
N800 N 0.13129 0.34097 0.04312 0.0
N801 N 0.18314 0.36923 0.1125 0.0
H802 H 0.36406 0.82633 0.04818 0.0
H803 H 0.33208 0.85188 0.78539 0.0
H804 H 0.32422 0.89343 -0.00468 0.0
H805 H 0.39123 0.79744 0.82706 0.0
H806 H 0.32307 0.86123 0.86472 0.0
H807 H 0.3689 0.81012 0.96967 0.0
C808 C 0.3562 0.83752 0.02017 0.0
C809 C 0.34394 0.86137 0.02814 0.0
C810 C 0.33797 0.84715 0.85669 0.0
C811 C 0.34913 0.84291 0.93906 0.0
C812 C 0.34313 0.84173 0.81126 0.0
C813 C 0.36272 0.82407 0.79943 0.0
C814 C 0.35249 0.83495 0.89096 0.0
C815 C 0.37607 0.8113 0.83468 0.0
C816 C 0.35903 0.82831 0.97553 0.0
C817 C 0.33409 0.87511 0.99075 0.0
N818 N 0.37086 0.81716 0.87905 0.0
N819 N 0.3369 0.86569 0.94798 0.0
H820 H 0.86516 0.61642 0.96252 0.0
H821 H 0.81928 0.67557 0.1963 0.0
H822 H 0.83826 0.69532 0.97002 0.0
H823 H 0.81471 0.59402 0.16538 0.0
H824 H 0.82713 0.68436 0.11527 0.0
H825 H 0.84809 0.60864 0.03864 0.0
C826 C 0.8555 0.63209 0.98026 0.0
C827 C 0.85321 0.65658 0.96025 0.0
C828 C 0.82402 0.66462 0.12632 0.0
C829 C 0.83388 0.6479 0.04769 0.0
C830 C 0.81963 0.65956 0.1725 0.0
C831 C 0.81657 0.63399 0.18776 0.0
C832 C 0.82575 0.64392 0.09552 0.0
C833 C 0.81709 0.61403 0.15535 0.0
C834 C 0.84564 0.62761 0.0236 0.0
C835 C 0.84033 0.67616 0.98445 0.0
N836 N 0.82194 0.6194 0.11094 0.0
N837 N 0.83145 0.67152 0.02742 0.0
H838 H 0.62857 0.11094 0.00776 0.0
H839 H 0.67372 0.19289 0.79785 0.0
H840 H 0.6808 0.17481 0.03139 0.0
H841 H 0.59328 0.17109 0.81498 0.0
H842 H 0.68173 0.18152 0.87832 0.0
H843 H 0.62026 0.12729 0.93082 0.0
C844 C 0.63827 0.12844 -0.00335 0.0
C845 C 0.65529 0.14165 0.02584 0.0
C846 C 0.66233 0.17954 0.86431 0.0
C847 C 0.64634 0.16005 0.93771 0.0
C848 C 0.65777 0.18589 0.81855 0.0
C849 C 0.63279 0.18299 0.79979 0.0
C850 C 0.64195 0.16951 0.89076 0.0
C851 C 0.61279 0.17381 0.82808 0.0
C852 C 0.63346 0.13777 0.95292 0.0
C853 C 0.66736 0.16425 0.00987 0.0
N854 N 0.61789 0.16703 0.87188 0.0
N855 N 0.66293 0.17262 0.96646 0.0
H856 H 0.17602 0.67504 0.79518 0.0
H857 H 0.14455 0.61371 0.02806 0.0
H858 H 0.20344 0.59815 0.826 0.0
H859 H 0.16785 0.69381 0.02323 0.0
H860 H 0.16286 0.60737 0.95191 0.0
H861 H 0.17008 0.68298 0.87688 0.0
C862 C 0.18109 0.65999 0.81928 0.0
C863 C 0.19004 0.63587 0.80417 0.0
C864 C 0.16425 0.62623 0.96782 0.0
C865 C 0.18287 0.64462 0.89678 0.0
C866 C 0.15365 0.62991 0.01091 0.0
C867 C 0.15459 0.65435 0.03141 0.0
C868 C 0.17512 0.64733 0.94472 0.0
C869 C 0.16678 0.6747 0.00824 0.0
C870 C 0.17786 0.66458 0.8657 0.0
C871 C 0.1965 0.617 0.83651 0.0
N872 N 0.17617 0.67087 0.96548 0.0
N873 N 0.19224 0.62157 0.88145 0.0
H874 H 0.60143 0.79891 0.15895 0.0
H875 H 0.67871 0.89235 0.99483 0.0
H876 H 0.67009 0.84025 0.20226 0.0
H877 H 0.63607 0.82691 0.94227 0.0
H878 H 0.67306 0.87554 0.07198 0.0
H879 H 0.61126 0.81047 0.0798 0.0
C880 C 0.61871 0.81017 0.15178 0.0
C881 C 0.63497 0.81865 0.18726 0.0
C882 C 0.66509 0.86476 0.04356 0.0
C883 C 0.64599 0.83227 0.0971 0.0
C884 C 0.66816 0.87441 -0.00044 0.0
C885 C 0.65771 0.86105 0.96216 0.0
C886 C 0.65103 0.84184 0.05039 0.0
C887 C 0.64444 0.83778 0.97021 0.0
C888 C 0.62431 0.8167 0.10664 0.0
C889 C 0.65709 0.8332 0.176 0.0
N890 N 0.64118 0.82904 0.01359 0.0
N891 N 0.66176 0.83984 0.13197 0.0
H892 H 0.84131 0.33296 0.77887 0.0
H893 H 0.81569 0.34625 0.04448 0.0
H894 H 0.78915 0.39135 0.83089 0.0
H895 H 0.89254 0.33572 0.98858 0.0
H896 H 0.79842 0.35066 0.96649 0.0
H897 H 0.85257 0.32112 0.85721 0.0
C898 C 0.8318 0.34289 0.80679 0.0
C899 C 0.81439 0.36324 0.79861 0.0
C900 C 0.81898 0.3471 0.97158 0.0
C901 C 0.82697 0.34962 0.88764 0.0
C902 C 0.82878 0.34451 0.01573 0.0
C903 C 0.85553 0.34085 0.02249 0.0
C904 C 0.83602 0.34519 0.93445 0.0
C905 C 0.87183 0.3388 0.98448 0.0
C906 C 0.83835 0.33621 0.85128 0.0
C907 C 0.80282 0.37567 0.83594 0.0
N908 N 0.86179 0.3409 0.9419 0.0
N909 N 0.80934 0.36865 0.87909 0.0
H910 H 0.33635 0.18393 0.94541 0.0
H911 H 0.35774 0.13425 0.19869 0.0
H912 H 0.35527 0.10515 0.98102 0.0
H913 H 0.37773 0.21269 0.1622 0.0
H914 H 0.34843 0.12504 0.11927 0.0
H915 H 0.34379 0.19658 0.02552 0.0
C916 C 0.34195 0.16936 0.97005 0.0
C917 C 0.34537 0.14351 0.95674 0.0
C918 C 0.35485 0.14429 0.12855 0.0
C919 C 0.3535 0.15765 0.04733 0.0
C920 C 0.36007 0.14963 0.17394 0.0
C921 C 0.36858 0.17429 0.18705 0.0
C922 C 0.35789 0.16375 0.09579 0.0
C923 C 0.37137 0.19338 0.15335 0.0
C924 C 0.34632 0.17659 0.01542 0.0
C925 C 0.35268 0.12533 0.98974 0.0
N926 N 0.36593 0.18773 0.10899 0.0
N927 N 0.35636 0.13273 0.03347 0.0
H928 H 0.60905 0.87261 0.48187 0.0
H929 H 0.69345 0.82958 0.68962 0.0
H930 H 0.67541 0.82385 0.45527 0.0
H931 H 0.67172 0.90955 0.67157 0.0
H932 H 0.68151 0.82129 0.60947 0.0
H933 H 0.62563 0.88061 0.55885 0.0
C934 C 0.62709 0.86354 0.49239 0.0
C935 C 0.641 0.84765 0.46237 0.0
C936 C 0.67969 0.84064 0.62324 0.0
C937 C 0.65965 0.85628 0.55026 0.0
C938 C 0.68636 0.84536 0.66876 0.0
C939 C 0.68361 0.87029 0.68706 0.0
C940 C 0.66949 0.86082 0.59674 0.0
C941 C 0.67432 0.89009 0.6587 0.0
C942 C 0.63654 0.86819 0.53607 0.0
C943 C 0.6643 0.83639 0.4775 0.0
N944 N 0.66719 0.88485 0.61516 0.0
N945 N 0.67283 0.84067 0.52083 0.0
H946 H 0.83249 0.40697 0.49668 0.0
H947 H 0.88519 0.29954 0.32448 0.0
H948 H 0.85724 0.33131 0.54154 0.0
H949 H 0.84718 0.37037 0.28353 0.0
H950 H 0.87648 0.31059 0.40434 0.0
H951 H 0.83927 0.39372 0.41815 0.0
C952 C 0.83938 0.38753 0.49 0.0
C953 C 0.84445 0.37026 0.52572 0.0
C954 C 0.86996 0.32357 0.37772 0.0
C955 C 0.85225 0.3549 0.43563 0.0
C956 C 0.87494 0.31731 0.33222 0.0
C957 C 0.86692 0.33405 0.29728 0.0
C958 C 0.85706 0.34678 0.38811 0.0
C959 C 0.85373 0.35682 0.30922 0.0
C960 C 0.84317 0.37994 0.44508 0.0
C961 C 0.85312 0.34524 0.51497 0.0
N962 N 0.84933 0.36253 0.35356 0.0
N963 N 0.8569 0.33832 0.47077 0.0
H964 H 0.33058 0.17822 0.6955 0.0
H965 H 0.36065 0.11881 0.45998 0.0
H966 H 0.30086 0.10273 0.66056 0.0
H967 H 0.34189 0.19995 0.46861 0.0
H968 H 0.34153 0.11223 0.53539 0.0
H969 H 0.33728 0.18716 0.61433 0.0
C970 C 0.32517 0.16368 0.67063 0.0
C971 C 0.31535 0.13964 0.6845 0.0
C972 C 0.34129 0.1314 0.52052 0.0
C973 C 0.32335 0.14956 0.59235 0.0
C974 C 0.35235 0.13519 0.47782 0.0
C975 C 0.35295 0.15998 0.45862 0.0
C976 C 0.3315 0.15268 0.54461 0.0
C977 C 0.34176 0.18058 0.48262 0.0
C978 C 0.32884 0.16886 0.62449 0.0
C979 C 0.30847 0.1215 0.65111 0.0
N980 N 0.3319 0.17658 0.52504 0.0
N981 N 0.31313 0.12662 0.60646 0.0
H982 H 0.14742 0.60373 0.5091 0.0
H983 H 0.12865 0.71353 0.32532 0.0
H984 H 0.16765 0.68233 0.54394 0.0
H985 H 0.15309 0.63567 0.29329 0.0
H986 H 0.13609 0.70416 0.4068 0.0
H987 H 0.14158 0.61678 0.43027 0.0
C988 C 0.15052 0.62382 0.50013 0.0
C989 C 0.15798 0.64202 0.53299 0.0
C990 C 0.13997 0.68937 0.38157 0.0
C991 C 0.15128 0.65707 0.44269 0.0
C992 C 0.13563 0.69461 0.33534 0.0
C993 C 0.14024 0.67535 0.30255 0.0
C994 C 0.14835 0.66461 0.3946 0.0
C995 C 0.14935 0.65117 0.31722 0.0
C996 C 0.14733 0.63121 0.4551 0.0
C997 C 0.16198 0.66775 0.51939 0.0
N998 N 0.15286 0.64646 0.3621 0.0
N999 N 0.15838 0.67465 0.47501 0.0
H1000 H 0.67853 0.17919 0.53317 0.0
H1001 H 0.675 0.09054 0.31415 0.0
H1002 H 0.61417 0.12817 0.50476 0.0
H1003 H 0.69574 0.17095 0.29897 0.0
H1004 H 0.66297 0.0989 0.39336 0.0
H1005 H 0.69499 0.17151 0.4552 0.0
C1006 C 0.66806 0.16623 0.51066 0.0
C1007 C 0.64499 0.15428 0.52511 0.0
C1008 C 0.67041 0.11462 0.37274 0.0
C1009 C 0.66381 0.14513 0.43733 0.0
C1010 C 0.67742 0.10989 0.32768 0.0
C1011 C 0.68636 0.13012 0.29994 0.0
C1012 C 0.6729 0.13961 0.39063 0.0
C1013 C 0.68882 0.15488 0.31922 0.0
C1014 C 0.67733 0.16203 0.46638 0.0
C1015 C 0.63196 0.13783 0.49475 0.0
N1016 N 0.68222 0.15895 0.36364 0.0
N1017 N 0.64169 0.13352 0.45245 0.0
H1018 H 0.10675 0.29181 0.65989 0.0
H1019 H 0.17133 0.39037 0.49808 0.0
H1020 H 0.17085 0.3387 0.70711 0.0
H1021 H 0.15494 0.31402 0.44638 0.0
H1022 H 0.16674 0.37394 0.57594 0.0
H1023 H 0.1196 0.30113 0.58092 0.0
C1024 C 0.12365 0.30379 0.6536 0.0
C1025 C 0.13772 0.31463 0.68985 0.0
C1026 C 0.16447 0.36074 0.54752 0.0
C1027 C 0.15204 0.32555 0.60057 0.0
C1028 C 0.16694 0.37009 0.50336 0.0
C1029 C 0.16345 0.35342 0.46634 0.0
C1030 C 0.15767 0.33479 0.55438 0.0
C1031 C 0.15785 0.32731 0.47445 0.0
C1032 C 0.13102 0.30893 0.60877 0.0
C1033 C 0.15953 0.32995 0.68006 0.0
N1034 N 0.1546 0.31879 0.51789 0.0
N1035 N 0.16575 0.33537 0.63624 0.0
H1036 H 0.33673 0.80895 0.52133 0.0
H1037 H 0.31619 0.9125 0.32351 0.0
H1038 H 0.37199 0.8847 0.52025 0.0
H1039 H 0.31571 0.83052 0.29508 0.0
H1040 H 0.32639 0.90312 0.40288 0.0
H1041 H 0.31952 0.81723 0.44425 0.0
C1042 C 0.34068 0.82732 0.50499 0.0
C1043 C 0.35591 0.84612 0.52687 0.0
C1044 C 0.32384 0.88719 0.37931 0.0
C1045 C 0.33608 0.85576 0.44 0.0
C1046 C 0.31788 0.89249 0.33403 0.0
C1047 C 0.3153 0.87225 0.30249 0.0
C1048 C 0.32701 0.86149 0.39339 0.0
C1049 C 0.31775 0.8467 0.31823 0.0
C1050 C 0.33097 0.83197 0.46119 0.0
C1051 C 0.36056 0.86959 0.50438 0.0
N1052 N 0.32357 0.84201 0.36271 0.0
N1053 N 0.35058 0.87378 0.46228 0.0
H1054 H 0.82807 0.67395 0.69447 0.0
H1055 H 0.88734 0.62074 0.4725 0.0
H1056 H 0.90983 0.68652 0.67043 0.0
H1057 H 0.81967 0.66948 0.4602 0.0
H1058 H 0.89428 0.63732 0.55013 0.0
H1059 H 0.82208 0.6653 0.61263 0.0
C1060 C 0.84465 0.67511 0.67181 0.0
C1061 C 0.86944 0.68103 0.68881 0.0
C1062 C 0.87809 0.64451 0.53016 0.0
C1063 C 0.86288 0.67048 0.59642 0.0
C1064 C 0.87407 0.63504 0.48624 0.0
C1065 C 0.853 0.64394 0.46035 0.0
C1066 C 0.86036 0.66224 0.54862 0.0
C1067 C 0.83623 0.66238 0.47933 0.0
C1068 C 0.84121 0.67029 0.62538 0.0
C1069 C 0.89039 0.68223 0.65834 0.0
N1070 N 0.83998 0.67065 0.52287 0.0
N1071 N 0.88675 0.67647 0.61358 0.0
H1072 H 0.37231 0.27717 0.30521 0.0
H1073 H 0.22596 0.31346 0.37245 0.0
H1074 H 0.31567 0.22512 0.36291 0.0
H1075 H 0.27656 0.36799 0.30547 0.0
H1076 H 0.26205 0.28354 0.37968 0.0
H1077 H 0.34097 0.31301 0.31431 0.0
C1078 C 0.35349 0.27339 0.32035 0.0
C1079 C 0.34636 0.24813 0.3327 0.0
C1080 C 0.26551 0.30206 0.36358 0.0
C1081 C 0.31077 0.28868 0.34337 0.0
C1082 C 0.24484 0.31918 0.35946 0.0
C1083 C 0.24822 0.34304 0.33776 0.0
C1084 C 0.28987 0.30852 0.34514 0.0
C1085 C 0.2732 0.34967 0.32228 0.0
C1086 C 0.33563 0.29376 0.32539 0.0
C1087 C 0.3218 0.2442 0.35216 0.0
N1088 N 0.29309 0.33227 0.32559 0.0
N1089 N 0.30496 0.26415 0.35664 0.0
H1090 H 0.28119 0.63004 0.67564 0.0
H1091 H 0.31558 0.77672 0.61412 0.0
H1092 H 0.22854 0.68519 0.61525 0.0
H1093 H 0.37125 0.72595 0.67802 0.0
H1094 H 0.28616 0.74045 0.60412 0.0
H1095 H 0.31683 0.66166 0.6672 0.0
C1096 C 0.27728 0.64854 0.65974 0.0
C1097 C 0.25187 0.65518 0.64657 0.0
C1098 C 0.30484 0.73699 0.62008 0.0
C1099 C 0.29221 0.69124 0.63701 0.0
C1100 C 0.32166 0.75778 0.62582 0.0
C1101 C 0.34572 0.7544 0.64748 0.0
C1102 C 0.31176 0.71249 0.63683 0.0
C1103 C 0.35279 0.72934 0.66128 0.0
C1104 C 0.29754 0.6666 0.65518 0.0
C1105 C 0.24777 0.67941 0.62643 0.0
N1106 N 0.33567 0.70933 0.6564 0.0
N1107 N 0.2676 0.69652 0.6226 0.0
H1108 H 0.63865 0.72952 0.29117 0.0
H1109 H 0.77385 0.68243 0.39696 0.0
H1110 H 0.68158 0.77118 0.39428 0.0
H1111 H 0.7318 0.63943 0.29448 0.0
H1112 H 0.73732 0.71228 0.40287 0.0
H1113 H 0.66951 0.69366 0.29825 0.0
C1114 C 0.65434 0.73102 0.31569 0.0
C1115 C 0.65772 0.75358 0.34169 0.0
C1116 C 0.73593 0.6962 0.37934 0.0
C1117 C 0.69315 0.71267 0.34981 0.0
C1118 C 0.75683 0.67912 0.37594 0.0
C1119 C 0.75606 0.65857 0.34472 0.0
C1120 C 0.7141 0.6929 0.35108 0.0
C1121 C 0.73332 0.6551 0.3188 0.0
C1122 C 0.67199 0.71055 0.31964 0.0
C1123 C 0.67838 0.75435 0.37304 0.0
N1124 N 0.71337 0.67228 0.32216 0.0
N1125 N 0.69539 0.73434 0.37589 0.0
H1126 H 0.72651 0.36801 0.68934 0.0
H1127 H 0.68213 0.2313 0.59046 0.0
H1128 H 0.77017 0.32402 0.59036 0.0
H1129 H 0.63935 0.27307 0.69349 0.0
H1130 H 0.71087 0.26839 0.58152 0.0
H1131 H 0.69087 0.33701 0.68244 0.0
C1132 C 0.72849 0.35206 0.66566 0.0
C1133 C 0.7516 0.34838 0.64098 0.0
C1134 C 0.69508 0.26957 0.60583 0.0
C1135 C 0.7109 0.31276 0.63317 0.0
C1136 C 0.67866 0.24836 0.61103 0.0
C1137 C 0.65855 0.2489 0.64337 0.0
C1138 C 0.69154 0.2915 0.63334 0.0
C1139 C 0.65476 0.2717 0.66848 0.0
C1140 C 0.70813 0.33433 0.66184 0.0
C1141 C 0.75291 0.32745 0.61058 0.0
N1142 N 0.67132 0.292 0.66333 0.0
N1143 N 0.73298 0.31029 0.60794 0.0
H1144 H 0.72983 0.81858 0.89185 0.0
H1145 H 0.87243 0.77733 0.80931 0.0
H1146 H 0.77474 0.86398 0.79672 0.0
H1147 H 0.81761 0.72691 0.87611 0.0
H1148 H 0.84127 0.81329 0.81765 0.0
H1149 H 0.76642 0.78906 0.89989 0.0
C1150 C 0.74745 0.82247 0.87283 0.0
C1151 C 0.749 0.84357 0.84291 0.0
C1152 C 0.8363 0.7944 0.83099 0.0
C1153 C 0.79111 0.80965 0.85195 0.0
C1154 C 0.85409 0.77401 0.8265 0.0
C1155 C 0.84736 0.74917 0.84162 0.0
C1156 C 0.81194 0.78981 0.85129 0.0
C1157 C 0.82337 0.74573 0.86345 0.0
C1158 C 0.76838 0.80557 0.87747 0.0
C1159 C 0.77257 0.84779 0.81977 0.0
N1160 N 0.80652 0.76575 0.86742 0.0
N1161 N 0.79263 0.8308 0.82439 0.0
H1162 H 0.77691 0.1379 0.19154 0.0
H1163 H 0.81346 0.28183 0.12364 0.0
H1164 H 0.73152 0.18518 0.09987 0.0
H1165 H 0.87035 0.23018 0.18192 0.0
H1166 H 0.78368 0.24569 0.11447 0.0
H1167 H 0.81204 0.16999 0.18786 0.0
C1168 C 0.77443 0.15481 0.17019 0.0
C1169 C 0.75102 0.159 0.14652 0.0
C1170 C 0.80272 0.24207 0.12893 0.0
C1171 C 0.791 0.19577 0.14249 0.0
C1172 C 0.81971 0.26276 0.13437 0.0
C1173 C 0.84431 0.25901 0.15395 0.0
C1174 C 0.81007 0.21735 0.1439 0.0
C1175 C 0.85152 0.23384 0.1667 0.0
C1176 C 0.7945 0.1731 0.16814 0.0
C1177 C 0.749 0.18122 0.11926 0.0
N1178 N 0.83429 0.21394 0.16207 0.0
N1179 N 0.76855 0.19883 0.11844 0.0
H1180 H 0.18027 0.27112 0.89745 0.0
H1181 H 0.22328 0.13084 0.80983 0.0
H1182 H 0.13569 0.22747 0.79913 0.0
H1183 H 0.27402 0.18582 0.87563 0.0
H1184 H 0.18675 0.16113 0.8202 0.0
H1185 H 0.21014 0.23482 0.90476 0.0
C1186 C 0.17658 0.25381 0.87768 0.0
C1187 C 0.15567 0.25259 0.84694 0.0
C1188 C 0.20583 0.16631 0.8329 0.0
C1189 C 0.19001 0.21084 0.85514 0.0
C1190 C 0.22658 0.14902 0.82725 0.0
C1191 C 0.25167 0.15605 0.84148 0.0
C1192 C 0.2103 0.19047 0.85352 0.0
C1193 C 0.25501 0.17984 0.86364 0.0
C1194 C 0.19369 0.23306 0.88187 0.0
C1195 C 0.15172 0.2294 0.82284 0.0
N1196 N 0.23463 0.19621 0.86878 0.0
N1197 N 0.16893 0.20953 0.82703 0.0
H1198 H 0.1922 0.72332 0.11894 0.0
H1199 H 0.22756 0.86622 0.19221 0.0
H1200 H 0.13519 0.77369 0.18004 0.0
H1201 H 0.27277 0.82105 0.09713 0.0
H1202 H 0.19239 0.83433 0.18615 0.0
H1203 H 0.22109 0.76011 0.10873 0.0
C1204 C 0.18572 0.74227 0.12992 0.0
C1205 C 0.16144 0.7455 0.15073 0.0
C1206 C 0.20988 0.83167 0.16614 0.0
C1207 C 0.19459 0.78781 0.13973 0.0
C1208 C 0.22996 0.84985 0.16957 0.0
C1209 C 0.25338 0.84606 0.1458 0.0
C1210 C 0.21338 0.80956 0.13899 0.0
C1211 C 0.25531 0.82457 0.11676 0.0
C1212 C 0.20218 0.76332 0.12393 0.0
C1213 C 0.15383 0.77047 0.16387 0.0
N1214 N 0.23576 0.80702 0.11467 0.0
N1215 N 0.17057 0.7907 0.15885 0.0
loop_
_geom_bond_atom_site_label_1
_geom_bond_atom_site_label_2
_geom_bond_distance
_geom_bond_site_symmetry_2
_ccdc_geom_bond_type
Fe0 O2 1.918 . S
Fe0 O5 1.997 . S
Fe0 O6 2.002 . S
Fe0 O11 1.976 . S
Fe0 O14 1.996 . S
Fe1 O2 1.918 . S
Fe1 O9 1.997 . S
Fe1 O12 1.996 . S
Fe1 O16 1.976 . S
Fe1 O19 2.002 . S
O2 Fe0 1.918 . S
O2 Fe1 1.918 . S
O2 Fe3 1.918 . S
Fe3 O2 1.918 . S
Fe3 O4 2.002 . S
Fe3 O13 1.976 . S
Fe3 O17 1.996 . S
Fe3 O20 1.997 . S
O4 Fe3 2.002 . S
O4 C21 1.295 . S
O5 Fe0 1.997 . S
O5 C21 1.235 . S
O6 Fe0 2.002 . S
O6 C7 1.295 . S
C7 O6 1.295 . S
C7 O9 1.235 . S
C8 O13 1.287 . S
C8 O14 1.255 . S
O9 Fe1 1.997 . S
O9 C7 1.235 . S
C10 O16 1.287 . S
C10 O17 1.255 . S
O11 Fe0 1.976 . S
O11 C18 1.287 . S
O12 Fe1 1.996 . S
O12 C18 1.255 . S
O13 Fe3 1.976 . S
O13 C8 1.287 . S
O14 Fe0 1.996 . S
O14 C8 1.255 . S
C15 O19 1.295 . S
C15 O20 1.235 . S
O16 Fe1 1.976 . S
O16 C10 1.287 . S
O17 Fe3 1.996 . S
O17 C10 1.255 . S
C18 O11 1.287 . S
C18 O12 1.255 . S
O19 Fe1 2.002 . S
O19 C15 1.295 . S
O20 Fe3 1.997 . S
O20 C15 1.235 . S
C21 O4 1.295 . S
C21 O5 1.235 . S
Fe22 O24 1.918 . S
Fe22 O27 1.997 . S
Fe22 O28 2.002 . S
Fe22 O33 1.976 . S
Fe22 O36 1.996 . S
Fe23 O24 1.918 . S
Fe23 O31 1.997 . S
Fe23 O34 1.996 . S
Fe23 O38 1.976 . S
Fe23 O41 2.002 . S
O24 Fe22 1.918 . S
O24 Fe23 1.918 . S
O24 Fe25 1.918 . S
Fe25 O24 1.918 . S
Fe25 O26 2.002 . S
Fe25 O35 1.976 . S
Fe25 O39 1.996 . S
Fe25 O42 1.997 . S
O26 Fe25 2.002 . S
O26 C43 1.295 . S
O27 Fe22 1.997 . S
O27 C43 1.235 . S
O28 Fe22 2.002 . S
O28 C29 1.295 . S
C29 O28 1.295 . S
C29 O31 1.235 . S
C30 O35 1.287 . S
C30 O36 1.255 . S
O31 Fe23 1.997 . S
O31 C29 1.235 . S
C32 O38 1.287 . S
C32 O39 1.255 . S
O33 Fe22 1.976 . S
O33 C40 1.287 . S
O34 Fe23 1.996 . S
O34 C40 1.255 . S
O35 Fe25 1.976 . S
O35 C30 1.287 . S
O36 Fe22 1.996 . S
O36 C30 1.255 . S
C37 O41 1.295 . S
C37 O42 1.235 . S
O38 Fe23 1.976 . S
O38 C32 1.287 . S
O39 Fe25 1.996 . S
O39 C32 1.255 . S
C40 O33 1.287 . S
C40 O34 1.255 . S
O41 Fe23 2.002 . S
O41 C37 1.295 . S
O42 Fe25 1.997 . S
O42 C37 1.235 . S
C43 O26 1.295 . S
C43 O27 1.235 . S
Fe44 O46 1.918 . S
Fe44 O49 1.997 . S
Fe44 O50 2.002 . S
Fe44 O55 1.976 . S
Fe44 O58 1.996 . S
Fe45 O46 1.918 . S
Fe45 O53 1.997 . S
Fe45 O56 1.996 . S
Fe45 O60 1.976 . S
Fe45 O63 2.002 . S
O46 Fe44 1.918 . S
O46 Fe45 1.918 . S
O46 Fe47 1.918 . S
Fe47 O46 1.918 . S
Fe47 O48 2.002 . S
Fe47 O57 1.976 . S
Fe47 O61 1.996 . S
Fe47 O64 1.997 . S
O48 Fe47 2.002 . S
O48 C65 1.295 . S
O49 Fe44 1.997 . S
O49 C65 1.235 . S
O50 Fe44 2.002 . S
O50 C51 1.295 . S
C51 O50 1.295 . S
C51 O53 1.235 . S
C52 O57 1.287 . S
C52 O58 1.255 . S
O53 Fe45 1.997 . S
O53 C51 1.235 . S
C54 O60 1.287 . S
C54 O61 1.255 . S
O55 Fe44 1.976 . S
O55 C62 1.287 . S
O56 Fe45 1.996 . S
O56 C62 1.255 . S
O57 Fe47 1.976 . S
O57 C52 1.287 . S
O58 Fe44 1.996 . S
O58 C52 1.255 . S
C59 O63 1.295 . S
C59 O64 1.235 . S
O60 Fe45 1.976 . S
O60 C54 1.287 . S
O61 Fe47 1.996 . S
O61 C54 1.255 . S
C62 O55 1.287 . S
C62 O56 1.255 . S
O63 Fe45 2.002 . S
O63 C59 1.295 . S
O64 Fe47 1.997 . S
O64 C59 1.235 . S
C65 O48 1.295 . S
C65 O49 1.235 . S
Fe66 O68 1.918 . S
Fe66 O71 1.997 . S
Fe66 O72 2.002 . S
Fe66 O77 1.976 . S
Fe66 O80 1.996 . S
Fe67 O68 1.918 . S
Fe67 O75 1.997 . S
Fe67 O78 1.996 . S
Fe67 O82 1.976 . S
Fe67 O85 2.002 . S
O68 Fe66 1.918 . S
O68 Fe67 1.918 . S
O68 Fe69 1.918 . S
Fe69 O68 1.918 . S
Fe69 O70 2.002 . S
Fe69 O79 1.976 . S
Fe69 O83 1.996 . S
Fe69 O86 1.997 . S
O70 Fe69 2.002 . S
O70 C87 1.295 . S
O71 Fe66 1.997 . S
O71 C87 1.235 . S
O72 Fe66 2.002 . S
O72 C73 1.295 . S
C73 O72 1.295 . S
C73 O75 1.235 . S
C74 O79 1.287 . S
C74 O80 1.255 . S
O75 Fe67 1.997 . S
O75 C73 1.235 . S
C76 O82 1.287 . S
C76 O83 1.255 . S
O77 Fe66 1.976 . S
O77 C84 1.287 . S
O78 Fe67 1.996 . S
O78 C84 1.255 . S
O79 Fe69 1.976 . S
O79 C74 1.287 . S
O80 Fe66 1.996 . S
O80 C74 1.255 . S
C81 O85 1.295 . S
C81 O86 1.235 . S
O82 Fe67 1.976 . S
O82 C76 1.287 . S
O83 Fe69 1.996 . S
O83 C76 1.255 . S
C84 O77 1.287 . S
C84 O78 1.255 . S
O85 Fe67 2.002 . S
O85 C81 1.295 . S
O86 Fe69 1.997 . S
O86 C81 1.235 . S
C87 O70 1.295 . S
C87 O71 1.235 . S
Fe88 O90 1.918 . S
Fe88 O93 1.997 . S
Fe88 O94 2.002 . S
Fe88 O99 1.976 . S
Fe88 O102 1.996 . S
Fe89 O90 1.918 . S
Fe89 O97 1.997 . S
Fe89 O100 1.996 . S
Fe89 O104 1.976 . S
Fe89 O107 2.002 . S
O90 Fe88 1.918 . S
O90 Fe89 1.918 . S
O90 Fe91 1.918 . S
Fe91 O90 1.918 . S
Fe91 O92 2.002 . S
Fe91 O101 1.976 . S
Fe91 O105 1.996 . S
Fe91 O108 1.997 . S
O92 Fe91 2.002 . S
O92 C109 1.295 . S
O93 Fe88 1.997 . S
O93 C109 1.235 . S
O94 Fe88 2.002 . S
O94 C95 1.295 . S
C95 O94 1.295 . S
C95 O97 1.235 . S
C96 O101 1.287 . S
C96 O102 1.255 . S
O97 Fe89 1.997 . S
O97 C95 1.235 . S
C98 O104 1.287 . S
C98 O105 1.255 . S
O99 Fe88 1.976 . S
O99 C106 1.287 . S
O100 Fe89 1.996 . S
O100 C106 1.255 . S
O101 Fe91 1.976 . S
O101 C96 1.287 . S
O102 Fe88 1.996 . S
O102 C96 1.255 . S
C103 O107 1.295 . S
C103 O108 1.235 . S
O104 Fe89 1.976 . S
O104 C98 1.287 . S
O105 Fe91 1.996 . S
O105 C98 1.255 . S
C106 O99 1.287 . S
C106 O100 1.255 . S
O107 Fe89 2.002 . S
O107 C103 1.295 . S
O108 Fe91 1.997 . S
O108 C103 1.235 . S
C109 O92 1.295 . S
C109 O93 1.235 . S
Fe110 O112 1.918 . S
Fe110 O115 1.997 . S
Fe110 O116 2.002 . S
Fe110 O121 1.976 . S
Fe110 O124 1.996 . S
Fe111 O112 1.918 . S
Fe111 O119 1.997 . S
Fe111 O122 1.996 . S
Fe111 O126 1.976 . S
Fe111 O129 2.002 . S
O112 Fe110 1.918 . S
O112 Fe111 1.918 . S
O112 Fe113 1.918 . S
Fe113 O112 1.918 . S
Fe113 O114 2.002 . S
Fe113 O123 1.976 . S
Fe113 O127 1.996 . S
Fe113 O130 1.997 . S
O114 Fe113 2.002 . S
O114 C131 1.295 . S
O115 Fe110 1.997 . S
O115 C131 1.235 . S
O116 Fe110 2.002 . S
O116 C117 1.295 . S
C117 O116 1.295 . S
C117 O119 1.235 . S
C118 O123 1.287 . S
C118 O124 1.255 . S
O119 Fe111 1.997 . S
O119 C117 1.235 . S
C120 O126 1.287 . S
C120 O127 1.255 . S
O121 Fe110 1.976 . S
O121 C128 1.287 . S
O122 Fe111 1.996 . S
O122 C128 1.255 . S
O123 Fe113 1.976 . S
O123 C118 1.287 . S
O124 Fe110 1.996 . S
O124 C118 1.255 . S
C125 O129 1.295 . S
C125 O130 1.235 . S
O126 Fe111 1.976 . S
O126 C120 1.287 . S
O127 Fe113 1.996 . S
O127 C120 1.255 . S
C128 O121 1.287 . S
C128 O122 1.255 . S
O129 Fe111 2.002 . S
O129 C125 1.295 . S
O130 Fe113 1.997 . S
O130 C125 1.235 . S
C131 O114 1.295 . S
C131 O115 1.235 . S
Fe132 O134 1.918 . S
Fe132 O137 1.997 . S
Fe132 O138 2.002 . S
Fe132 O143 1.976 . S
Fe132 O146 1.996 . S
Fe133 O134 1.918 . S
Fe133 O141 1.997 . S
Fe133 O144 1.996 . S
Fe133 O148 1.976 . S
Fe133 O151 2.002 . S
O134 Fe132 1.918 . S
O134 Fe133 1.918 . S
O134 Fe135 1.918 . S
Fe135 O134 1.918 . S
Fe135 O136 2.002 . S
Fe135 O145 1.976 . S
Fe135 O149 1.996 . S
Fe135 O152 1.997 . S
O136 Fe135 2.002 . S
O136 C153 1.295 . S
O137 Fe132 1.997 . S
O137 C153 1.235 . S
O138 Fe132 2.002 . S
O138 C139 1.295 . S
C139 O138 1.295 . S
C139 O141 1.235 . S
C140 O145 1.287 . S
C140 O146 1.255 . S
O141 Fe133 1.997 . S
O141 C139 1.235 . S
C142 O148 1.287 . S
C142 O149 1.255 . S
O143 Fe132 1.976 . S
O143 C150 1.287 . S
O144 Fe133 1.996 . S
O144 C150 1.255 . S
O145 Fe135 1.976 . S
O145 C140 1.287 . S
O146 Fe132 1.996 . S
O146 C140 1.255 . S
C147 O151 1.295 . S
C147 O152 1.235 . S
O148 Fe133 1.976 . S
O148 C142 1.287 . S
O149 Fe135 1.996 . S
O149 C142 1.255 . S
C150 O143 1.287 . S
C150 O144 1.255 . S
O151 Fe133 2.002 . S
O151 C147 1.295 . S
O152 Fe135 1.997 . S
O152 C147 1.235 . S
C153 O136 1.295 . S
C153 O137 1.235 . S
Fe154 O156 1.918 . S
Fe154 O159 1.997 . S
Fe154 O160 2.002 . S
Fe154 O165 1.976 . S
Fe154 O168 1.996 . S
Fe155 O156 1.918 . S
Fe155 O163 1.997 . S
Fe155 O166 1.996 . S
Fe155 O170 1.976 . S
Fe155 O173 2.002 . S
O156 Fe154 1.918 . S
O156 Fe155 1.918 . S
O156 Fe157 1.918 . S
Fe157 O156 1.918 . S
Fe157 O158 2.002 . S
Fe157 O167 1.976 . S
Fe157 O171 1.996 . S
Fe157 O174 1.997 . S
O158 Fe157 2.002 . S
O158 C175 1.295 . S
O159 Fe154 1.997 . S
O159 C175 1.235 . S
O160 Fe154 2.002 . S
O160 C161 1.295 . S
C161 O160 1.295 . S
C161 O163 1.235 . S
C162 O167 1.287 . S
C162 O168 1.255 . S
O163 Fe155 1.997 . S
O163 C161 1.235 . S
C164 O170 1.287 . S
C164 O171 1.255 . S
O165 Fe154 1.976 . S
O165 C172 1.287 . S
O166 Fe155 1.996 . S
O166 C172 1.255 . S
O167 Fe157 1.976 . S
O167 C162 1.287 . S
O168 Fe154 1.996 . S
O168 C162 1.255 . S
C169 O173 1.295 . S
C169 O174 1.235 . S
O170 Fe155 1.976 . S
O170 C164 1.287 . S
O171 Fe157 1.996 . S
O171 C164 1.255 . S
C172 O165 1.287 . S
C172 O166 1.255 . S
O173 Fe155 2.002 . S
O173 C169 1.295 . S
O174 Fe157 1.997 . S
O174 C169 1.235 . S
C175 O158 1.295 . S
C175 O159 1.235 . S
Fe176 O178 1.918 . S
Fe176 O181 1.997 . S
Fe176 O182 2.002 . S
Fe176 O187 1.976 . S
Fe176 O190 1.996 . S
Fe177 O178 1.918 . S
Fe177 O185 1.997 . S
Fe177 O188 1.996 . S
Fe177 O192 1.976 . S
Fe177 O195 2.002 . S
O178 Fe176 1.918 . S
O178 Fe177 1.918 . S
O178 Fe179 1.918 . S
Fe179 O178 1.918 . S
Fe179 O180 2.002 . S
Fe179 O189 1.976 . S
Fe179 O193 1.996 . S
Fe179 O196 1.997 . S
O180 Fe179 2.002 . S
O180 C197 1.295 . S
O181 Fe176 1.997 . S
O181 C197 1.235 . S
O182 Fe176 2.002 . S
O182 C183 1.295 . S
C183 O182 1.295 . S
C183 O185 1.235 . S
C184 O189 1.287 . S
C184 O190 1.255 . S
O185 Fe177 1.997 . S
O185 C183 1.235 . S
C186 O192 1.287 . S
C186 O193 1.255 . S
O187 Fe176 1.976 . S
O187 C194 1.287 . S
O188 Fe177 1.996 . S
O188 C194 1.255 . S
O189 Fe179 1.976 . S
O189 C184 1.287 . S
O190 Fe176 1.996 . S
O190 C184 1.255 . S
C191 O195 1.295 . S
C191 O196 1.235 . S
O192 Fe177 1.976 . S
O192 C186 1.287 . S
O193 Fe179 1.996 . S
O193 C186 1.255 . S
C194 O187 1.287 . S
C194 O188 1.255 . S
O195 Fe177 2.002 . S
O195 C191 1.295 . S
O196 Fe179 1.997 . S
O196 C191 1.235 . S
C197 O180 1.295 . S
C197 O181 1.235 . S
Fe198 O200 1.918 . S
Fe198 O203 1.997 . S
Fe198 O204 2.002 . S
Fe198 O209 1.976 . S
Fe198 O212 1.996 . S
Fe199 O200 1.918 . S
Fe199 O207 1.997 . S
Fe199 O210 1.996 . S
Fe199 O214 1.976 . S
Fe199 O217 2.002 . S
O200 Fe198 1.918 . S
O200 Fe199 1.918 . S
O200 Fe201 1.918 . S
Fe201 O200 1.918 . S
Fe201 O202 2.002 . S
Fe201 O211 1.976 . S
Fe201 O215 1.996 . S
Fe201 O218 1.997 . S
O202 Fe201 2.002 . S
O202 C219 1.295 . S
O203 Fe198 1.997 . S
O203 C219 1.235 . S
O204 Fe198 2.002 . S
O204 C205 1.295 . S
C205 O204 1.295 . S
C205 O207 1.235 . S
C206 O211 1.287 . S
C206 O212 1.255 . S
O207 Fe199 1.997 . S
O207 C205 1.235 . S
C208 O214 1.287 . S
C208 O215 1.255 . S
O209 Fe198 1.976 . S
O209 C216 1.287 . S
O210 Fe199 1.996 . S
O210 C216 1.255 . S
O211 Fe201 1.976 . S
O211 C206 1.287 . S
O212 Fe198 1.996 . S
O212 C206 1.255 . S
C213 O217 1.295 . S
C213 O218 1.235 . S
O214 Fe199 1.976 . S
O214 C208 1.287 . S
O215 Fe201 1.996 . S
O215 C208 1.255 . S
C216 O209 1.287 . S
C216 O210 1.255 . S
O217 Fe199 2.002 . S
O217 C213 1.295 . S
O218 Fe201 1.997 . S
O218 C213 1.235 . S
C219 O202 1.295 . S
C219 O203 1.235 . S
Fe220 O222 1.918 . S
Fe220 O225 1.997 . S
Fe220 O226 2.002 . S
Fe220 O231 1.976 . S
Fe220 O234 1.996 . S
Fe221 O222 1.918 . S
Fe221 O229 1.997 . S
Fe221 O232 1.996 . S
Fe221 O236 1.976 . S
Fe221 O239 2.002 . S
O222 Fe220 1.918 . S
O222 Fe221 1.918 . S
O222 Fe223 1.918 . S
Fe223 O222 1.918 . S
Fe223 O224 2.002 . S
Fe223 O233 1.976 . S
Fe223 O237 1.996 . S
Fe223 O240 1.997 . S
O224 Fe223 2.002 . S
O224 C241 1.295 . S
O225 Fe220 1.997 . S
O225 C241 1.235 . S
O226 Fe220 2.002 . S
O226 C227 1.295 . S
C227 O226 1.295 . S
C227 O229 1.235 . S
C228 O233 1.287 . S
C228 O234 1.255 . S
O229 Fe221 1.997 . S
O229 C227 1.235 . S
C230 O236 1.287 . S
C230 O237 1.255 . S
O231 Fe220 1.976 . S
O231 C238 1.287 . S
O232 Fe221 1.996 . S
O232 C238 1.255 . S
O233 Fe223 1.976 . S
O233 C228 1.287 . S
O234 Fe220 1.996 . S
O234 C228 1.255 . S
C235 O239 1.295 . S
C235 O240 1.235 . S
O236 Fe221 1.976 . S
O236 C230 1.287 . S
O237 Fe223 1.996 . S
O237 C230 1.255 . S
C238 O231 1.287 . S
C238 O232 1.255 . S
O239 Fe221 2.002 . S
O239 C235 1.295 . S
O240 Fe223 1.997 . S
O240 C235 1.235 . S
C241 O224 1.295 . S
C241 O225 1.235 . S
Fe242 O244 1.918 . S
Fe242 O247 1.997 . S
Fe242 O248 2.002 . S
Fe242 O253 1.976 . S
Fe242 O256 1.996 . S
Fe243 O244 1.918 . S
Fe243 O251 1.997 . S
Fe243 O254 1.996 . S
Fe243 O258 1.976 . S
Fe243 O261 2.002 . S
O244 Fe242 1.918 . S
O244 Fe243 1.918 . S
O244 Fe245 1.918 . S
Fe245 O244 1.918 . S
Fe245 O246 2.002 . S
Fe245 O255 1.976 . S
Fe245 O259 1.996 . S
Fe245 O262 1.997 . S
O246 Fe245 2.002 . S
O246 C263 1.295 . S
O247 Fe242 1.997 . S
O247 C263 1.235 . S
O248 Fe242 2.002 . S
O248 C249 1.295 . S
C249 O248 1.295 . S
C249 O251 1.235 . S
C250 O255 1.287 . S
C250 O256 1.255 . S
O251 Fe243 1.997 . S
O251 C249 1.235 . S
C252 O258 1.287 . S
C252 O259 1.255 . S
O253 Fe242 1.976 . S
O253 C260 1.287 . S
O254 Fe243 1.996 . S
O254 C260 1.255 . S
O255 Fe245 1.976 . S
O255 C250 1.287 . S
O256 Fe242 1.996 . S
O256 C250 1.255 . S
C257 O261 1.295 . S
C257 O262 1.235 . S
O258 Fe243 1.976 . S
O258 C252 1.287 . S
O259 Fe245 1.996 . S
O259 C252 1.255 . S
C260 O253 1.287 . S
C260 O254 1.255 . S
O261 Fe243 2.002 . S
O261 C257 1.295 . S
O262 Fe245 1.997 . S
O262 C257 1.235 . S
C263 O246 1.295 . S
C263 O247 1.235 . S
Fe264 O266 1.918 . S
Fe264 O269 1.997 . S
Fe264 O270 2.002 . S
Fe264 O275 1.976 . S
Fe264 O278 1.996 . S
Fe265 O266 1.918 . S
Fe265 O273 1.997 . S
Fe265 O276 1.996 . S
Fe265 O280 1.976 . S
Fe265 O283 2.002 . S
O266 Fe264 1.918 . S
O266 Fe265 1.918 . S
O266 Fe267 1.918 . S
Fe267 O266 1.918 . S
Fe267 O268 2.002 . S
Fe267 O277 1.976 . S
Fe267 O281 1.996 . S
Fe267 O284 1.997 . S
O268 Fe267 2.002 . S
O268 C285 1.295 . S
O269 Fe264 1.997 . S
O269 C285 1.235 . S
O270 Fe264 2.002 . S
O270 C271 1.295 . S
C271 O270 1.295 . S
C271 O273 1.235 . S
C272 O277 1.287 . S
C272 O278 1.255 . S
O273 Fe265 1.997 . S
O273 C271 1.235 . S
C274 O280 1.287 . S
C274 O281 1.255 . S
O275 Fe264 1.976 . S
O275 C282 1.287 . S
O276 Fe265 1.996 . S
O276 C282 1.255 . S
O277 Fe267 1.976 . S
O277 C272 1.287 . S
O278 Fe264 1.996 . S
O278 C272 1.255 . S
C279 O283 1.295 . S
C279 O284 1.235 . S
O280 Fe265 1.976 . S
O280 C274 1.287 . S
O281 Fe267 1.996 . S
O281 C274 1.255 . S
C282 O275 1.287 . S
C282 O276 1.255 . S
O283 Fe265 2.002 . S
O283 C279 1.295 . S
O284 Fe267 1.997 . S
O284 C279 1.235 . S
C285 O268 1.295 . S
C285 O269 1.235 . S
Fe286 O288 1.918 . S
Fe286 O291 1.997 . S
Fe286 O292 2.002 . S
Fe286 O297 1.976 . S
Fe286 O300 1.996 . S
Fe287 O288 1.918 . S
Fe287 O295 1.997 . S
Fe287 O298 1.996 . S
Fe287 O302 1.976 . S
Fe287 O305 2.002 . S
O288 Fe286 1.918 . S
O288 Fe287 1.918 . S
O288 Fe289 1.918 . S
Fe289 O288 1.918 . S
Fe289 O290 2.002 . S
Fe289 O299 1.976 . S
Fe289 O303 1.996 . S
Fe289 O306 1.997 . S
O290 Fe289 2.002 . S
O290 C307 1.295 . S
O291 Fe286 1.997 . S
O291 C307 1.235 . S
O292 Fe286 2.002 . S
O292 C293 1.295 . S
C293 O292 1.295 . S
C293 O295 1.235 . S
C294 O299 1.287 . S
C294 O300 1.255 . S
O295 Fe287 1.997 . S
O295 C293 1.235 . S
C296 O302 1.287 . S
C296 O303 1.255 . S
O297 Fe286 1.976 . S
O297 C304 1.287 . S
O298 Fe287 1.996 . S
O298 C304 1.255 . S
O299 Fe289 1.976 . S
O299 C294 1.287 . S
O300 Fe286 1.996 . S
O300 C294 1.255 . S
C301 O305 1.295 . S
C301 O306 1.235 . S
O302 Fe287 1.976 . S
O302 C296 1.287 . S
O303 Fe289 1.996 . S
O303 C296 1.255 . S
C304 O297 1.287 . S
C304 O298 1.255 . S
O305 Fe287 2.002 . S
O305 C301 1.295 . S
O306 Fe289 1.997 . S
O306 C301 1.235 . S
C307 O290 1.295 . S
C307 O291 1.235 . S
Fe308 O310 1.918 . S
Fe308 O313 1.997 . S
Fe308 O314 2.002 . S
Fe308 O319 1.976 . S
Fe308 O322 1.996 . S
Fe309 O310 1.918 . S
Fe309 O317 1.997 . S
Fe309 O320 1.996 . S
Fe309 O324 1.976 . S
Fe309 O327 2.002 . S
O310 Fe308 1.918 . S
O310 Fe309 1.918 . S
O310 Fe311 1.918 . S
Fe311 O310 1.918 . S
Fe311 O312 2.002 . S
Fe311 O321 1.976 . S
Fe311 O325 1.996 . S
Fe311 O328 1.997 . S
O312 Fe311 2.002 . S
O312 C329 1.295 . S
O313 Fe308 1.997 . S
O313 C329 1.235 . S
O314 Fe308 2.002 . S
O314 C315 1.295 . S
C315 O314 1.295 . S
C315 O317 1.235 . S
C316 O321 1.287 . S
C316 O322 1.255 . S
O317 Fe309 1.997 . S
O317 C315 1.235 . S
C318 O324 1.287 . S
C318 O325 1.255 . S
O319 Fe308 1.976 . S
O319 C326 1.287 . S
O320 Fe309 1.996 . S
O320 C326 1.255 . S
O321 Fe311 1.976 . S
O321 C316 1.287 . S
O322 Fe308 1.996 . S
O322 C316 1.255 . S
C323 O327 1.295 . S
C323 O328 1.235 . S
O324 Fe309 1.976 . S
O324 C318 1.287 . S
O325 Fe311 1.996 . S
O325 C318 1.255 . S
C326 O319 1.287 . S
C326 O320 1.255 . S
O327 Fe309 2.002 . S
O327 C323 1.295 . S
O328 Fe311 1.997 . S
O328 C323 1.235 . S
C329 O312 1.295 . S
C329 O313 1.235 . S
Fe330 O332 1.918 . S
Fe330 O335 1.997 . S
Fe330 O336 2.002 . S
Fe330 O341 1.976 . S
Fe330 O344 1.996 . S
Fe331 O332 1.918 . S
Fe331 O339 1.997 . S
Fe331 O342 1.996 . S
Fe331 O346 1.976 . S
Fe331 O349 2.002 . S
O332 Fe330 1.918 . S
O332 Fe331 1.918 . S
O332 Fe333 1.918 . S
Fe333 O332 1.918 . S
Fe333 O334 2.002 . S
Fe333 O343 1.976 . S
Fe333 O347 1.996 . S
Fe333 O350 1.997 . S
O334 Fe333 2.002 . S
O334 C351 1.295 . S
O335 Fe330 1.997 . S
O335 C351 1.235 . S
O336 Fe330 2.002 . S
O336 C337 1.295 . S
C337 O336 1.295 . S
C337 O339 1.235 . S
C338 O343 1.287 . S
C338 O344 1.255 . S
O339 Fe331 1.997 . S
O339 C337 1.235 . S
C340 O346 1.287 . S
C340 O347 1.255 . S
O341 Fe330 1.976 . S
O341 C348 1.287 . S
O342 Fe331 1.996 . S
O342 C348 1.255 . S
O343 Fe333 1.976 . S
O343 C338 1.287 . S
O344 Fe330 1.996 . S
O344 C338 1.255 . S
C345 O349 1.295 . S
C345 O350 1.235 . S
O346 Fe331 1.976 . S
O346 C340 1.287 . S
O347 Fe333 1.996 . S
O347 C340 1.255 . S
C348 O341 1.287 . S
C348 O342 1.255 . S
O349 Fe331 2.002 . S
O349 C345 1.295 . S
O350 Fe333 1.997 . S
O350 C345 1.235 . S
C351 O334 1.295 . S
C351 O335 1.235 . S
H352 C358 0.930 . S
H353 C362 0.930 . S
H354 C367 0.929 . S
H355 C365 0.929 . S
H356 C360 0.929 . S
H357 C366 0.929 . S
C358 H352 0.930 . S
C358 C359 1.367 . S
C358 C366 1.378 . S
C359 C358 1.367 . S
C359 C367 1.433 . S
C360 H356 0.929 . S
C360 C362 1.378 . S
C360 C364 1.350 . S
C361 C364 1.463 . S
C361 C366 1.350 . S
C361 N369 1.427 . S
C362 H353 0.930 . S
C362 C360 1.378 . S
C362 C363 1.367 . S
C363 C362 1.367 . S
C363 C365 1.433 . S
C364 C360 1.350 . S
C364 C361 1.463 . S
C364 N368 1.427 . S
C365 H355 0.929 . S
C365 C363 1.433 . S
C365 N368 1.384 . S
C366 H357 0.929 . S
C366 C358 1.378 . S
C366 C361 1.350 . S
C367 H354 0.929 . S
C367 C359 1.433 . S
C367 N369 1.384 . S
N368 C364 1.427 . S
N368 C365 1.384 . S
N369 C361 1.427 . S
N369 C367 1.384 . S
H370 C376 0.930 . S
H371 C380 0.930 . S
H372 C385 0.929 . S
H373 C383 0.929 . S
H374 C378 0.929 . S
H375 C384 0.929 . S
C376 H370 0.930 . S
C376 C377 1.367 . S
C376 C384 1.378 . S
C377 C376 1.367 . S
C377 C385 1.433 . S
C378 H374 0.929 . S
C378 C380 1.378 . S
C378 C382 1.350 . S
C379 C382 1.463 . S
C379 C384 1.350 . S
C379 N387 1.427 . S
C380 H371 0.930 . S
C380 C378 1.378 . S
C380 C381 1.367 . S
C381 C380 1.367 . S
C381 C383 1.433 . S
C382 C378 1.350 . S
C382 C379 1.463 . S
C382 N386 1.427 . S
C383 H373 0.929 . S
C383 C381 1.433 . S
C383 N386 1.384 . S
C384 H375 0.929 . S
C384 C376 1.378 . S
C384 C379 1.350 . S
C385 H372 0.929 . S
C385 C377 1.433 . S
C385 N387 1.384 . S
N386 C382 1.427 . S
N386 C383 1.384 . S
N387 C379 1.427 . S
N387 C385 1.384 . S
H388 C394 0.930 . S
H389 C398 0.930 . S
H390 C403 0.929 . S
H391 C401 0.929 . S
H392 C396 0.929 . S
H393 C402 0.929 . S
C394 H388 0.930 . S
C394 C395 1.367 . S
C394 C402 1.378 . S
C395 C394 1.367 . S
C395 C403 1.433 . S
C396 H392 0.929 . S
C396 C398 1.378 . S
C396 C400 1.350 . S
C397 C400 1.463 . S
C397 C402 1.350 . S
C397 N405 1.427 . S
C398 H389 0.930 . S
C398 C396 1.378 . S
C398 C399 1.367 . S
C399 C398 1.367 . S
C399 C401 1.433 . S
C400 C396 1.350 . S
C400 C397 1.463 . S
C400 N404 1.427 . S
C401 H391 0.929 . S
C401 C399 1.433 . S
C401 N404 1.384 . S
C402 H393 0.929 . S
C402 C394 1.378 . S
C402 C397 1.350 . S
C403 H390 0.929 . S
C403 C395 1.433 . S
C403 N405 1.384 . S
N404 C400 1.427 . S
N404 C401 1.384 . S
N405 C397 1.427 . S
N405 C403 1.384 . S
H406 C412 0.930 . S
H407 C416 0.930 . S
H408 C421 0.929 . S
H409 C419 0.929 . S
H410 C414 0.929 . S
H411 C420 0.929 . S
C412 H406 0.930 . S
C412 C413 1.367 . S
C412 C420 1.378 . S
C413 C412 1.367 . S
C413 C421 1.433 . S
C414 H410 0.929 . S
C414 C416 1.378 . S
C414 C418 1.350 . S
C415 C418 1.463 . S
C415 C420 1.350 . S
C415 N423 1.427 . S
C416 H407 0.930 . S
C416 C414 1.378 . S
C416 C417 1.367 . S
C417 C416 1.367 . S
C417 C419 1.433 . S
C418 C414 1.350 . S
C418 C415 1.463 . S
C418 N422 1.427 . S
C419 H409 0.929 . S
C419 C417 1.433 . S
C419 N422 1.384 . S
C420 H411 0.929 . S
C420 C412 1.378 . S
C420 C415 1.350 . S
C421 H408 0.929 . S
C421 C413 1.433 . S
C421 N423 1.384 . S
N422 C418 1.427 . S
N422 C419 1.384 . S
N423 C415 1.427 . S
N423 C421 1.384 . S
H424 C430 0.930 . S
H425 C434 0.930 . S
H426 C439 0.929 . S
H427 C437 0.929 . S
H428 C432 0.929 . S
H429 C438 0.929 . S
C430 H424 0.930 . S
C430 C431 1.367 . S
C430 C438 1.378 . S
C431 C430 1.367 . S
C431 C439 1.433 . S
C432 H428 0.929 . S
C432 C434 1.378 . S
C432 C436 1.350 . S
C433 C436 1.463 . S
C433 C438 1.350 . S
C433 N441 1.427 . S
C434 H425 0.930 . S
C434 C432 1.378 . S
C434 C435 1.367 . S
C435 C434 1.367 . S
C435 C437 1.433 . S
C436 C432 1.350 . S
C436 C433 1.463 . S
C436 N440 1.427 . S
C437 H427 0.929 . S
C437 C435 1.433 . S
C437 N440 1.384 . S
C438 H429 0.929 . S
C438 C430 1.378 . S
C438 C433 1.350 . S
C439 H426 0.929 . S
C439 C431 1.433 . S
C439 N441 1.384 . S
N440 C436 1.427 . S
N440 C437 1.384 . S
N441 C433 1.427 . S
N441 C439 1.384 . S
H442 C448 0.930 . S
H443 C452 0.930 . S
H444 C457 0.929 . S
H445 C455 0.929 . S
H446 C450 0.929 . S
H447 C456 0.929 . S
C448 H442 0.930 . S
C448 C449 1.367 . S
C448 C456 1.378 . S
C449 C448 1.367 . S
C449 C457 1.433 . S
C450 H446 0.929 . S
C450 C452 1.378 . S
C450 C454 1.350 . S
C451 C454 1.463 . S
C451 C456 1.350 . S
C451 N459 1.427 . S
C452 H443 0.930 . S
C452 C450 1.378 . S
C452 C453 1.367 . S
C453 C452 1.367 . S
C453 C455 1.433 . S
C454 C450 1.350 . S
C454 C451 1.463 . S
C454 N458 1.427 . S
C455 H445 0.929 . S
C455 C453 1.433 . S
C455 N458 1.384 . S
C456 H447 0.929 . S
C456 C448 1.378 . S
C456 C451 1.350 . S
C457 H444 0.929 . S
C457 C449 1.433 . S
C457 N459 1.384 . S
N458 C454 1.427 . S
N458 C455 1.384 . S
N459 C451 1.427 . S
N459 C457 1.384 . S
H460 C466 0.930 . S
H461 C470 0.930 . S
H462 C475 0.929 . S
H463 C473 0.929 . S
H464 C468 0.929 . S
H465 C474 0.929 . S
C466 H460 0.930 . S
C466 C467 1.367 . S
C466 C474 1.378 . S
C467 C466 1.367 . S
C467 C475 1.433 . S
C468 H464 0.929 . S
C468 C470 1.378 . S
C468 C472 1.350 . S
C469 C472 1.463 . S
C469 C474 1.350 . S
C469 N477 1.427 . S
C470 H461 0.930 . S
C470 C468 1.378 . S
C470 C471 1.367 . S
C471 C470 1.367 . S
C471 C473 1.433 . S
C472 C468 1.350 . S
C472 C469 1.463 . S
C472 N476 1.427 . S
C473 H463 0.929 . S
C473 C471 1.433 . S
C473 N476 1.384 . S
C474 H465 0.929 . S
C474 C466 1.378 . S
C474 C469 1.350 . S
C475 H462 0.929 . S
C475 C467 1.433 . S
C475 N477 1.384 . S
N476 C472 1.427 . S
N476 C473 1.384 . S
N477 C469 1.427 . S
N477 C475 1.384 . S
H478 C484 0.930 . S
H479 C488 0.930 . S
H480 C493 0.929 . S
H481 C491 0.929 . S
H482 C486 0.929 . S
H483 C492 0.929 . S
C484 H478 0.930 . S
C484 C485 1.367 . S
C484 C492 1.378 . S
C485 C484 1.367 . S
C485 C493 1.433 . S
C486 H482 0.929 . S
C486 C488 1.378 . S
C486 C490 1.350 . S
C487 C490 1.463 . S
C487 C492 1.350 . S
C487 N495 1.427 . S
C488 H479 0.930 . S
C488 C486 1.378 . S
C488 C489 1.367 . S
C489 C488 1.367 . S
C489 C491 1.433 . S
C490 C486 1.350 . S
C490 C487 1.463 . S
C490 N494 1.427 . S
C491 H481 0.929 . S
C491 C489 1.433 . S
C491 N494 1.384 . S
C492 H483 0.929 . S
C492 C484 1.378 . S
C492 C487 1.350 . S
C493 H480 0.929 . S
C493 C485 1.433 . S
C493 N495 1.384 . S
N494 C490 1.427 . S
N494 C491 1.384 . S
N495 C487 1.427 . S
N495 C493 1.384 . S
H496 C502 0.930 . S
H497 C506 0.930 . S
H498 C511 0.929 . S
H499 C509 0.929 . S
H500 C504 0.929 . S
H501 C510 0.929 . S
C502 H496 0.930 . S
C502 C503 1.367 . S
C502 C510 1.378 1_565 S
C503 C502 1.367 . S
C503 C511 1.433 . S
C504 H500 0.929 . S
C504 C506 1.378 . S
C504 C508 1.350 . S
C505 C508 1.463 . S
C505 C510 1.350 . S
C505 N513 1.427 . S
C506 H497 0.930 . S
C506 C504 1.378 . S
C506 C507 1.367 . S
C507 C506 1.367 . S
C507 C509 1.433 . S
C508 C504 1.350 . S
C508 C505 1.463 . S
C508 N512 1.427 . S
C509 H499 0.929 . S
C509 C507 1.433 . S
C509 N512 1.384 . S
C510 H501 0.929 . S
C510 C502 1.378 1_545 S
C510 C505 1.350 . S
C511 H498 0.929 . S
C511 C503 1.433 . S
C511 N513 1.384 1_565 S
N512 C508 1.427 . S
N512 C509 1.384 . S
N513 C505 1.427 . S
N513 C511 1.384 1_545 S
H514 C520 0.930 . S
H515 C524 0.930 . S
H516 C529 0.929 . S
H517 C527 0.929 . S
H518 C522 0.929 . S
H519 C528 0.929 . S
C520 H514 0.930 . S
C520 C521 1.367 . S
C520 C528 1.378 . S
C521 C520 1.367 . S
C521 C529 1.433 . S
C522 H518 0.929 . S
C522 C524 1.378 1_455 S
C522 C526 1.350 . S
C523 C526 1.463 . S
C523 C528 1.350 . S
C523 N531 1.427 . S
C524 H515 0.930 . S
C524 C522 1.378 1_655 S
C524 C525 1.367 . S
C525 C524 1.367 . S
C525 C527 1.433 . S
C526 C522 1.350 . S
C526 C523 1.463 . S
C526 N530 1.427 . S
C527 H517 0.929 . S
C527 C525 1.433 . S
C527 N530 1.384 1_655 S
C528 H519 0.929 . S
C528 C520 1.378 . S
C528 C523 1.350 . S
C529 H516 0.929 . S
C529 C521 1.433 . S
C529 N531 1.384 . S
N530 C526 1.427 . S
N530 C527 1.384 1_455 S
N531 C523 1.427 . S
N531 C529 1.384 . S
H532 C538 0.930 . S
H533 C542 0.930 . S
H534 C547 0.929 . S
H535 C545 0.929 . S
H536 C540 0.929 . S
H537 C546 0.929 . S
C538 H532 0.930 . S
C538 C539 1.367 . S
C538 C546 1.378 . S
C539 C538 1.367 . S
C539 C547 1.433 . S
C540 H536 0.929 . S
C540 C542 1.378 1_565 S
C540 C544 1.350 . S
C541 C544 1.463 . S
C541 C546 1.350 . S
C541 N549 1.427 . S
C542 H533 0.930 . S
C542 C540 1.378 1_545 S
C542 C543 1.367 . S
C543 C542 1.367 . S
C543 C545 1.433 . S
C544 C540 1.350 . S
C544 C541 1.463 . S
C544 N548 1.427 . S
C545 H535 0.929 . S
C545 C543 1.433 . S
C545 N548 1.384 1_545 S
C546 H537 0.929 . S
C546 C538 1.378 . S
C546 C541 1.350 . S
C547 H534 0.929 . S
C547 C539 1.433 . S
C547 N549 1.384 . S
N548 C544 1.427 . S
N548 C545 1.384 1_565 S
N549 C541 1.427 . S
N549 C547 1.384 . S
H550 C556 0.930 . S
H551 C560 0.930 . S
H552 C565 0.929 . S
H553 C563 0.929 . S
H554 C558 0.929 . S
H555 C564 0.929 . S
C556 H550 0.930 . S
C556 C557 1.367 . S
C556 C564 1.378 1_455 S
C557 C556 1.367 . S
C557 C565 1.433 . S
C558 H554 0.929 . S
C558 C560 1.378 . S
C558 C562 1.350 . S
C559 C562 1.463 . S
C559 C564 1.350 . S
C559 N567 1.427 . S
C560 H551 0.930 . S
C560 C558 1.378 . S
C560 C561 1.367 . S
C561 C560 1.367 . S
C561 C563 1.433 . S
C562 C558 1.350 . S
C562 C559 1.463 . S
C562 N566 1.427 . S
C563 H553 0.929 . S
C563 C561 1.433 . S
C563 N566 1.384 . S
C564 H555 0.929 . S
C564 C556 1.378 1_655 S
C564 C559 1.350 . S
C565 H552 0.929 . S
C565 C557 1.433 . S
C565 N567 1.384 1_455 S
N566 C562 1.427 . S
N566 C563 1.384 . S
N567 C559 1.427 . S
N567 C565 1.384 1_655 S
H568 C574 0.937 . S
H569 C578 0.930 . S
H570 C583 0.929 . S
H571 C581 0.929 . S
H572 C576 0.929 . S
H573 C582 0.929 . S
C574 H568 0.937 . S
C574 C575 1.401 . S
C574 C582 1.338 1_545 S
C575 C574 1.401 . S
C575 C583 1.433 . S
C576 H572 0.929 . S
C576 C578 1.378 . S
C576 C580 1.350 . S
C577 C580 1.463 . S
C577 C582 1.350 . S
C577 N585 1.427 . S
C578 H569 0.930 . S
C578 C576 1.378 . S
C578 C579 1.367 . S
C579 C578 1.367 . S
C579 C581 1.433 . S
C580 C576 1.350 . S
C580 C577 1.463 . S
C580 N584 1.427 . S
C581 H571 0.929 . S
C581 C579 1.433 . S
C581 N584 1.384 . S
C582 H573 0.929 . S
C582 C574 1.338 1_565 S
C582 C577 1.350 . S
C583 H570 0.929 . S
C583 C575 1.433 . S
C583 N585 1.384 1_545 S
N584 C580 1.427 . S
N584 C581 1.384 . S
N585 C577 1.427 . S
N585 C583 1.384 1_565 S
H586 C592 0.930 . S
H587 C596 0.930 . S
H588 C601 0.929 . S
H589 C599 0.929 . S
H590 C594 0.929 . S
H591 C600 0.929 . S
C592 H586 0.930 . S
C592 C593 1.367 . S
C592 C600 1.378 . S
C593 C592 1.367 . S
C593 C601 1.433 . S
C594 H590 0.929 . S
C594 C596 1.378 1_655 S
C594 C598 1.350 . S
C595 C598 1.463 . S
C595 C600 1.350 . S
C595 N603 1.427 . S
C596 H587 0.930 . S
C596 C594 1.378 1_455 S
C596 C597 1.367 . S
C597 C596 1.367 . S
C597 C599 1.433 . S
C598 C594 1.350 . S
C598 C595 1.463 . S
C598 N602 1.427 . S
C599 H589 0.929 . S
C599 C597 1.433 . S
C599 N602 1.384 1_455 S
C600 H591 0.929 . S
C600 C592 1.378 . S
C600 C595 1.350 . S
C601 H588 0.929 . S
C601 C593 1.433 . S
C601 N603 1.384 . S
N602 C598 1.427 . S
N602 C599 1.384 1_655 S
N603 C595 1.427 . S
N603 C601 1.384 . S
H604 C610 0.930 . S
H605 C614 0.930 . S
H606 C619 0.929 . S
H607 C617 0.929 . S
H608 C612 0.929 . S
H609 C618 0.929 . S
C610 H604 0.930 . S
C610 C611 1.367 . S
C610 C618 1.378 . S
C611 C610 1.367 . S
C611 C619 1.433 . S
C612 H608 0.929 . S
C612 C614 1.378 1_545 S
C612 C616 1.350 . S
C613 C616 1.463 . S
C613 C618 1.350 . S
C613 N621 1.427 . S
C614 H605 0.930 . S
C614 C612 1.378 1_565 S
C614 C615 1.367 . S
C615 C614 1.367 . S
C615 C617 1.433 . S
C616 C612 1.350 . S
C616 C613 1.463 . S
C616 N620 1.427 . S
C617 H607 0.929 . S
C617 C615 1.433 . S
C617 N620 1.384 1_565 S
C618 H609 0.929 . S
C618 C610 1.378 . S
C618 C613 1.350 . S
C619 H606 0.929 . S
C619 C611 1.433 . S
C619 N621 1.384 . S
N620 C616 1.427 . S
N620 C617 1.384 1_545 S
N621 C613 1.427 . S
N621 C619 1.384 . S
H622 C628 0.930 . S
H623 C632 0.930 . S
H624 C637 0.929 . S
H625 C635 0.929 . S
H626 C630 0.929 . S
H627 C636 0.929 . S
C628 H622 0.930 . S
C628 C629 1.367 . S
C628 C636 1.378 . S
C629 C628 1.367 . S
C629 C637 1.433 . S
C630 H626 0.929 . S
C630 C632 1.378 1_455 S
C630 C634 1.350 . S
C631 C634 1.463 . S
C631 C636 1.350 . S
C631 N639 1.427 . S
C632 H623 0.930 . S
C632 C630 1.378 1_655 S
C632 C633 1.367 . S
C633 C632 1.367 . S
C633 C635 1.433 . S
C634 C630 1.350 . S
C634 C631 1.463 . S
C634 N638 1.427 . S
C635 H625 0.929 . S
C635 C633 1.433 . S
C635 N638 1.384 1_655 S
C636 H627 0.929 . S
C636 C628 1.378 . S
C636 C631 1.350 . S
C637 H624 0.929 . S
C637 C629 1.433 . S
C637 N639 1.384 . S
N638 C634 1.427 . S
N638 C635 1.384 1_455 S
N639 C631 1.427 . S
N639 C637 1.384 . S
H640 C646 0.930 . S
H641 C650 0.930 . S
H642 C655 0.929 . S
H643 C653 0.929 . S
H644 C648 0.929 . S
H645 C654 0.929 . S
C646 H640 0.930 . S
C646 C647 1.367 . S
C646 C654 1.378 . S
C647 C646 1.367 . S
C647 C655 1.433 . S
C648 H644 0.929 . S
C648 C650 1.378 . S
C648 C652 1.350 . S
C649 C652 1.463 . S
C649 C654 1.350 . S
C649 N657 1.427 . S
C650 H641 0.930 . S
C650 C648 1.378 . S
C650 C651 1.367 . S
C651 C650 1.367 . S
C651 C653 1.433 . S
C652 C648 1.350 . S
C652 C649 1.463 . S
C652 N656 1.427 . S
C653 H643 0.929 . S
C653 C651 1.433 . S
C653 N656 1.384 . S
C654 H645 0.929 . S
C654 C646 1.378 . S
C654 C649 1.350 . S
C655 H642 0.929 . S
C655 C647 1.433 . S
C655 N657 1.384 . S
N656 C652 1.427 . S
N656 C653 1.384 . S
N657 C649 1.427 . S
N657 C655 1.384 . S
H658 C664 0.930 . S
H659 C668 0.930 . S
H660 C673 0.929 . S
H661 C671 0.929 . S
H662 C666 0.929 . S
H663 C672 0.929 . S
C664 H658 0.930 . S
C664 C665 1.367 . S
C664 C672 1.378 . S
C665 C664 1.367 . S
C665 C673 1.433 . S
C666 H662 0.929 . S
C666 C668 1.378 . S
C666 C670 1.350 . S
C667 C670 1.463 . S
C667 C672 1.350 . S
C667 N675 1.427 . S
C668 H659 0.930 . S
C668 C666 1.378 . S
C668 C669 1.367 . S
C669 C668 1.367 . S
C669 C671 1.433 . S
C670 C666 1.350 . S
C670 C667 1.463 . S
C670 N674 1.427 . S
C671 H661 0.929 . S
C671 C669 1.433 . S
C671 N674 1.384 . S
C672 H663 0.929 . S
C672 C664 1.378 . S
C672 C667 1.350 . S
C673 H660 0.929 . S
C673 C665 1.433 . S
C673 N675 1.384 . S
N674 C670 1.427 . S
N674 C671 1.384 . S
N675 C667 1.427 . S
N675 C673 1.384 . S
H676 C682 0.930 . S
H677 C686 0.930 . S
H678 C691 0.929 . S
H679 C689 0.929 . S
H680 C684 0.929 . S
H681 C690 0.929 . S
C682 H676 0.930 . S
C682 C683 1.367 . S
C682 C690 1.378 . S
C683 C682 1.367 . S
C683 C691 1.433 . S
C684 H680 0.929 . S
C684 C686 1.378 . S
C684 C688 1.350 . S
C685 C688 1.463 . S
C685 C690 1.350 . S
C685 N693 1.427 . S
C686 H677 0.930 . S
C686 C684 1.378 . S
C686 C687 1.367 . S
C687 C686 1.367 . S
C687 C689 1.433 . S
C688 C684 1.350 . S
C688 C685 1.463 . S
C688 N692 1.427 . S
C689 H679 0.929 . S
C689 C687 1.433 . S
C689 N692 1.384 . S
C690 H681 0.929 . S
C690 C682 1.378 . S
C690 C685 1.350 . S
C691 H678 0.929 . S
C691 C683 1.433 . S
C691 N693 1.384 . S
N692 C688 1.427 . S
N692 C689 1.384 . S
N693 C685 1.427 . S
N693 C691 1.384 . S
H694 C700 0.930 . S
H695 C704 0.930 . S
H696 C709 0.929 . S
H697 C707 0.929 . S
H698 C702 0.929 . S
H699 C708 0.929 . S
C700 H694 0.930 . S
C700 C701 1.367 . S
C700 C708 1.378 . S
C701 C700 1.367 . S
C701 C709 1.433 . S
C702 H698 0.929 . S
C702 C704 1.378 . S
C702 C706 1.350 . S
C703 C706 1.463 . S
C703 C708 1.350 . S
C703 N711 1.427 . S
C704 H695 0.930 . S
C704 C702 1.378 . S
C704 C705 1.367 . S
C705 C704 1.367 . S
C705 C707 1.433 . S
C706 C702 1.350 . S
C706 C703 1.463 . S
C706 N710 1.427 . S
C707 H697 0.929 . S
C707 C705 1.433 . S
C707 N710 1.384 . S
C708 H699 0.929 . S
C708 C700 1.378 . S
C708 C703 1.350 . S
C709 H696 0.929 . S
C709 C701 1.433 . S
C709 N711 1.384 . S
N710 C706 1.427 . S
N710 C707 1.384 . S
N711 C703 1.427 . S
N711 C709 1.384 . S
H712 C718 0.930 . S
H713 C722 0.930 . S
H714 C727 0.929 . S
H715 C725 0.929 . S
H716 C720 0.929 1_554 S
H717 C726 0.929 1_556 S
C718 H712 0.930 . S
C718 C719 1.367 . S
C718 C726 1.378 . S
C719 C718 1.367 . S
C719 C727 1.433 . S
C720 H716 0.929 1_556 S
C720 C722 1.378 . S
C720 C724 1.350 . S
C721 C724 1.463 1_544 S
C721 C726 1.350 . S
C721 N729 1.427 . S
C722 H713 0.930 . S
C722 C720 1.378 . S
C722 C723 1.367 . S
C723 C722 1.367 . S
C723 C725 1.433 . S
C724 C720 1.350 . S
C724 C721 1.463 1_566 S
C724 N728 1.427 . S
C725 H715 0.929 . S
C725 C723 1.433 . S
C725 N728 1.384 . S
C726 H717 0.929 1_554 S
C726 C718 1.378 . S
C726 C721 1.350 . S
C727 H714 0.929 . S
C727 C719 1.433 . S
C727 N729 1.384 . S
N728 C724 1.427 . S
N728 C725 1.384 . S
N729 C721 1.427 . S
N729 C727 1.384 . S
H730 C736 0.930 . S
H731 C740 0.930 . S
H732 C745 0.929 . S
H733 C743 0.929 . S
H734 C738 0.933 . S
H735 C744 0.933 . S
C736 H730 0.930 . S
C736 C737 1.367 . S
C736 C744 1.378 . S
C737 C736 1.367 . S
C737 C745 1.433 . S
C738 H734 0.933 . S
C738 C740 1.378 . S
C738 C742 1.350 . S
C739 C742 1.463 1_654 S
C739 C744 1.350 . S
C739 N747 1.427 . S
C740 H731 0.930 . S
C740 C738 1.378 . S
C740 C741 1.367 . S
C741 C740 1.367 . S
C741 C743 1.433 . S
C742 C738 1.350 . S
C742 C739 1.463 1_456 S
C742 N746 1.427 . S
C743 H733 0.929 . S
C743 C741 1.433 . S
C743 N746 1.384 . S
C744 H735 0.933 . S
C744 C736 1.378 . S
C744 C739 1.350 . S
C745 H732 0.929 . S
C745 C737 1.433 . S
C745 N747 1.384 . S
N746 C742 1.427 . S
N746 C743 1.384 . S
N747 C739 1.427 . S
N747 C745 1.384 . S
H748 C754 0.930 . S
H749 C758 0.930 . S
H750 C763 0.929 . S
H751 C761 0.929 . S
H752 C756 0.929 1_556 S
H753 C762 0.929 1_554 S
C754 H748 0.930 . S
C754 C755 1.367 . S
C754 C762 1.378 . S
C755 C754 1.367 . S
C755 C763 1.433 . S
C756 H752 0.929 1_554 S
C756 C758 1.378 . S
C756 C760 1.350 . S
C757 C760 1.463 1_546 S
C757 C762 1.350 . S
C757 N765 1.427 . S
C758 H749 0.930 . S
C758 C756 1.378 . S
C758 C759 1.367 . S
C759 C758 1.367 . S
C759 C761 1.433 . S
C760 C756 1.350 . S
C760 C757 1.463 1_564 S
C760 N764 1.427 . S
C761 H751 0.929 . S
C761 C759 1.433 . S
C761 N764 1.384 . S
C762 H753 0.929 1_556 S
C762 C754 1.378 . S
C762 C757 1.350 . S
C763 H750 0.929 . S
C763 C755 1.433 . S
C763 N765 1.384 . S
N764 C760 1.427 . S
N764 C761 1.384 . S
N765 C757 1.427 . S
N765 C763 1.384 . S
H766 C772 0.930 . S
H767 C776 0.930 . S
H768 C781 0.929 . S
H769 C779 0.929 . S
H770 C774 0.929 . S
H771 C780 0.929 . S
C772 H766 0.930 . S
C772 C773 1.367 . S
C772 C780 1.378 . S
C773 C772 1.367 . S
C773 C781 1.433 . S
C774 H770 0.929 . S
C774 C776 1.378 . S
C774 C778 1.350 . S
C775 C778 1.463 1_656 S
C775 C780 1.350 . S
C775 N783 1.427 . S
C776 H767 0.930 . S
C776 C774 1.378 . S
C776 C777 1.367 . S
C777 C776 1.367 . S
C777 C779 1.433 . S
C778 C774 1.350 . S
C778 C775 1.463 1_454 S
C778 N782 1.427 . S
C779 H769 0.929 . S
C779 C777 1.433 . S
C779 N782 1.384 . S
C780 H771 0.929 . S
C780 C772 1.378 . S
C780 C775 1.350 . S
C781 H768 0.929 . S
C781 C773 1.433 . S
C781 N783 1.384 . S
N782 C778 1.427 . S
N782 C779 1.384 . S
N783 C775 1.427 . S
N783 C781 1.384 . S
H784 C790 0.930 . S
H785 C794 0.930 . S
H786 C799 0.929 . S
H787 C797 0.929 . S
H788 C792 0.929 . S
H789 C798 0.929 . S
C790 H784 0.930 . S
C790 C791 1.367 . S
C790 C798 1.378 . S
C791 C790 1.367 . S
C791 C799 1.433 . S
C792 H788 0.929 . S
C792 C794 1.378 1_554 S
C792 C796 1.350 . S
C793 C796 1.463 . S
C793 C798 1.350 . S
C793 N801 1.427 . S
C794 H785 0.930 . S
C794 C792 1.378 1_556 S
C794 C795 1.367 . S
C795 C794 1.367 . S
C795 C797 1.433 . S
C796 C792 1.350 . S
C796 C793 1.463 . S
C796 N800 1.427 . S
C797 H787 0.929 . S
C797 C795 1.433 . S
C797 N800 1.384 1_556 S
C798 H789 0.929 . S
C798 C790 1.378 . S
C798 C793 1.350 . S
C799 H786 0.929 . S
C799 C791 1.433 . S
C799 N801 1.384 . S
N800 C796 1.427 . S
N800 C797 1.384 1_554 S
N801 C793 1.427 . S
N801 C799 1.384 . S
H802 C808 0.930 . S
H803 C812 0.930 . S
H804 C817 0.929 . S
H805 C815 0.929 . S
H806 C810 0.929 . S
H807 C816 0.929 . S
C808 H802 0.930 . S
C808 C809 1.367 . S
C808 C816 1.378 1_554 S
C809 C808 1.367 . S
C809 C817 1.433 . S
C810 H806 0.929 . S
C810 C812 1.378 . S
C810 C814 1.350 . S
C811 C814 1.463 . S
C811 C816 1.350 . S
C811 N819 1.427 . S
C812 H803 0.930 . S
C812 C810 1.378 . S
C812 C813 1.367 . S
C813 C812 1.367 . S
C813 C815 1.433 . S
C814 C810 1.350 . S
C814 C811 1.463 . S
C814 N818 1.427 . S
C815 H805 0.929 . S
C815 C813 1.433 . S
C815 N818 1.384 . S
C816 H807 0.929 . S
C816 C808 1.378 1_556 S
C816 C811 1.350 . S
C817 H804 0.929 . S
C817 C809 1.433 . S
C817 N819 1.384 1_554 S
N818 C814 1.427 . S
N818 C815 1.384 . S
N819 C811 1.427 . S
N819 C817 1.384 1_556 S
H820 C826 0.930 . S
H821 C830 0.930 . S
H822 C835 0.929 . S
H823 C833 0.929 . S
H824 C828 0.929 . S
H825 C834 0.929 . S
C826 H820 0.930 . S
C826 C827 1.367 . S
C826 C834 1.378 1_556 S
C827 C826 1.367 . S
C827 C835 1.433 . S
C828 H824 0.929 . S
C828 C830 1.378 . S
C828 C832 1.350 . S
C829 C832 1.463 . S
C829 C834 1.350 . S
C829 N837 1.427 . S
C830 H821 0.930 . S
C830 C828 1.378 . S
C830 C831 1.367 . S
C831 C830 1.367 . S
C831 C833 1.433 . S
C832 C828 1.350 . S
C832 C829 1.463 . S
C832 N836 1.427 . S
C833 H823 0.929 . S
C833 C831 1.433 . S
C833 N836 1.384 . S
C834 H825 0.929 . S
C834 C826 1.378 1_554 S
C834 C829 1.350 . S
C835 H822 0.929 . S
C835 C827 1.433 . S
C835 N837 1.384 1_556 S
N836 C832 1.427 . S
N836 C833 1.384 . S
N837 C829 1.427 . S
N837 C835 1.384 1_554 S
H838 C844 0.930 . S
H839 C848 0.930 . S
H840 C853 0.929 . S
H841 C851 0.929 . S
H842 C846 0.929 . S
H843 C852 0.929 . S
C844 H838 0.930 . S
C844 C845 1.367 . S
C844 C852 1.378 1_554 S
C845 C844 1.367 . S
C845 C853 1.433 . S
C846 H842 0.929 . S
C846 C848 1.378 . S
C846 C850 1.350 . S
C847 C850 1.463 . S
C847 C852 1.350 . S
C847 N855 1.427 . S
C848 H839 0.930 . S
C848 C846 1.378 . S
C848 C849 1.367 . S
C849 C848 1.367 . S
C849 C851 1.433 . S
C850 C846 1.350 . S
C850 C847 1.463 . S
C850 N854 1.427 . S
C851 H841 0.929 . S
C851 C849 1.433 . S
C851 N854 1.384 . S
C852 H843 0.929 . S
C852 C844 1.378 1_556 S
C852 C847 1.350 . S
C853 H840 0.929 . S
C853 C845 1.433 . S
C853 N855 1.384 1_554 S
N854 C850 1.427 . S
N854 C851 1.384 . S
N855 C847 1.427 . S
N855 C853 1.384 1_556 S
H856 C862 0.930 . S
H857 C866 0.930 . S
H858 C871 0.929 . S
H859 C869 0.929 . S
H860 C864 0.929 . S
H861 C870 0.929 . S
C862 H856 0.930 . S
C862 C863 1.367 . S
C862 C870 1.378 . S
C863 C862 1.367 . S
C863 C871 1.433 . S
C864 H860 0.929 . S
C864 C866 1.378 1_556 S
C864 C868 1.350 . S
C865 C868 1.463 . S
C865 C870 1.350 . S
C865 N873 1.427 . S
C866 H857 0.930 . S
C866 C864 1.378 1_554 S
C866 C867 1.367 . S
C867 C866 1.367 . S
C867 C869 1.433 . S
C868 C864 1.350 . S
C868 C865 1.463 . S
C868 N872 1.427 . S
C869 H859 0.929 . S
C869 C867 1.433 . S
C869 N872 1.384 1_554 S
C870 H861 0.929 . S
C870 C862 1.378 . S
C870 C865 1.350 . S
C871 H858 0.929 . S
C871 C863 1.433 . S
C871 N873 1.384 . S
N872 C868 1.427 . S
N872 C869 1.384 1_556 S
N873 C865 1.427 . S
N873 C871 1.384 . S
H874 C880 0.930 . S
H875 C884 0.933 . S
H876 C889 0.929 . S
H877 C887 0.929 . S
H878 C882 0.929 . S
H879 C888 0.929 . S
C880 H874 0.930 . S
C880 C881 1.367 . S
C880 C888 1.378 . S
C881 C880 1.367 . S
C881 C889 1.433 . S
C882 H878 0.929 . S
C882 C884 1.355 1_554 S
C882 C886 1.350 . S
C883 C886 1.463 . S
C883 C888 1.350 . S
C883 N891 1.427 . S
C884 H875 0.933 . S
C884 C882 1.355 1_556 S
C884 C885 1.387 . S
C885 C884 1.387 . S
C885 C887 1.433 . S
C886 C882 1.350 . S
C886 C883 1.463 . S
C886 N890 1.427 . S
C887 H877 0.929 . S
C887 C885 1.433 . S
C887 N890 1.384 1_556 S
C888 H879 0.929 . S
C888 C880 1.378 . S
C888 C883 1.350 . S
C889 H876 0.929 . S
C889 C881 1.433 . S
C889 N891 1.384 . S
N890 C886 1.427 . S
N890 C887 1.384 1_554 S
N891 C883 1.427 . S
N891 C889 1.384 . S
H892 C898 0.930 . S
H893 C902 0.930 . S
H894 C907 0.929 . S
H895 C905 0.930 . S
H896 C900 0.929 . S
H897 C906 0.929 . S
C898 H892 0.930 . S
C898 C899 1.367 . S
C898 C906 1.378 . S
C899 C898 1.367 . S
C899 C907 1.433 . S
C900 H896 0.929 . S
C900 C902 1.378 1_556 S
C900 C904 1.350 . S
C901 C904 1.463 . S
C901 C906 1.350 . S
C901 N909 1.427 . S
C902 H893 0.930 . S
C902 C900 1.378 1_554 S
C902 C903 1.367 . S
C903 C902 1.367 . S
C903 C905 1.444 . S
C904 C900 1.350 . S
C904 C901 1.463 . S
C904 N908 1.427 . S
C905 H895 0.930 . S
C905 C903 1.444 . S
C905 N908 1.372 1_554 S
C906 H897 0.929 . S
C906 C898 1.378 . S
C906 C901 1.350 . S
C907 H894 0.929 . S
C907 C899 1.433 . S
C907 N909 1.384 . S
N908 C904 1.427 . S
N908 C905 1.372 1_556 S
N909 C901 1.427 . S
N909 C907 1.384 . S
H910 C916 0.930 . S
H911 C920 0.930 . S
H912 C925 0.929 . S
H913 C923 0.929 . S
H914 C918 0.929 . S
H915 C924 0.929 . S
C916 H910 0.930 . S
C916 C917 1.367 . S
C916 C924 1.378 1_556 S
C917 C916 1.367 . S
C917 C925 1.433 . S
C918 H914 0.929 . S
C918 C920 1.378 . S
C918 C922 1.350 . S
C919 C922 1.463 . S
C919 C924 1.350 . S
C919 N927 1.427 . S
C920 H911 0.930 . S
C920 C918 1.378 . S
C920 C921 1.367 . S
C921 C920 1.367 . S
C921 C923 1.433 . S
C922 C918 1.350 . S
C922 C919 1.463 . S
C922 N926 1.427 . S
C923 H913 0.929 . S
C923 C921 1.433 . S
C923 N926 1.384 . S
C924 H915 0.929 . S
C924 C916 1.378 1_554 S
C924 C919 1.350 . S
C925 H912 0.929 . S
C925 C917 1.433 . S
C925 N927 1.384 1_556 S
N926 C922 1.427 . S
N926 C923 1.384 . S
N927 C919 1.427 . S
N927 C925 1.384 1_554 S
H928 C934 0.930 . S
H929 C938 0.930 . S
H930 C943 0.929 . S
H931 C941 0.929 . S
H932 C936 0.929 . S
H933 C942 0.929 . S
C934 H928 0.930 . S
C934 C935 1.367 . S
C934 C942 1.378 . S
C935 C934 1.367 . S
C935 C943 1.433 . S
C936 H932 0.929 . S
C936 C938 1.378 . S
C936 C940 1.350 . S
C937 C940 1.463 . S
C937 C942 1.350 . S
C937 N945 1.427 . S
C938 H929 0.930 . S
C938 C936 1.378 . S
C938 C939 1.367 . S
C939 C938 1.367 . S
C939 C941 1.433 . S
C940 C936 1.350 . S
C940 C937 1.463 . S
C940 N944 1.427 . S
C941 H931 0.929 . S
C941 C939 1.433 . S
C941 N944 1.384 . S
C942 H933 0.929 . S
C942 C934 1.378 . S
C942 C937 1.350 . S
C943 H930 0.929 . S
C943 C935 1.433 . S
C943 N945 1.384 . S
N944 C940 1.427 . S
N944 C941 1.384 . S
N945 C937 1.427 . S
N945 C943 1.384 . S
H946 C952 0.930 . S
H947 C956 0.930 . S
H948 C961 0.929 . S
H949 C959 0.929 . S
H950 C954 0.929 . S
H951 C960 0.929 . S
C952 H946 0.930 . S
C952 C953 1.367 . S
C952 C960 1.378 . S
C953 C952 1.367 . S
C953 C961 1.433 . S
C954 H950 0.929 . S
C954 C956 1.378 . S
C954 C958 1.350 . S
C955 C958 1.463 . S
C955 C960 1.350 . S
C955 N963 1.427 . S
C956 H947 0.930 . S
C956 C954 1.378 . S
C956 C957 1.367 . S
C957 C956 1.367 . S
C957 C959 1.433 . S
C958 C954 1.350 . S
C958 C955 1.463 . S
C958 N962 1.427 . S
C959 H949 0.929 . S
C959 C957 1.433 . S
C959 N962 1.384 . S
C960 H951 0.929 . S
C960 C952 1.378 . S
C960 C955 1.350 . S
C961 H948 0.929 . S
C961 C953 1.433 . S
C961 N963 1.384 . S
N962 C958 1.427 . S
N962 C959 1.384 . S
N963 C955 1.427 . S
N963 C961 1.384 . S
H964 C970 0.930 . S
H965 C974 0.930 . S
H966 C979 0.929 . S
H967 C977 0.929 . S
H968 C972 0.929 . S
H969 C978 0.929 . S
C970 H964 0.930 . S
C970 C971 1.367 . S
C970 C978 1.378 . S
C971 C970 1.367 . S
C971 C979 1.433 . S
C972 H968 0.929 . S
C972 C974 1.378 . S
C972 C976 1.350 . S
C973 C976 1.463 . S
C973 C978 1.350 . S
C973 N981 1.427 . S
C974 H965 0.930 . S
C974 C972 1.378 . S
C974 C975 1.367 . S
C975 C974 1.367 . S
C975 C977 1.433 . S
C976 C972 1.350 . S
C976 C973 1.463 . S
C976 N980 1.427 . S
C977 H967 0.929 . S
C977 C975 1.433 . S
C977 N980 1.384 . S
C978 H969 0.929 . S
C978 C970 1.378 . S
C978 C973 1.350 . S
C979 H966 0.929 . S
C979 C971 1.433 . S
C979 N981 1.384 . S
N980 C976 1.427 . S
N980 C977 1.384 . S
N981 C973 1.427 . S
N981 C979 1.384 . S
H982 C988 0.930 . S
H983 C992 0.930 . S
H984 C997 0.929 . S
H985 C995 0.929 . S
H986 C990 0.929 . S
H987 C996 0.929 . S
C988 H982 0.930 . S
C988 C989 1.367 . S
C988 C996 1.378 . S
C989 C988 1.367 . S
C989 C997 1.433 . S
C990 H986 0.929 . S
C990 C992 1.378 . S
C990 C994 1.350 . S
C991 C994 1.463 . S
C991 C996 1.350 . S
C991 N999 1.427 . S
C992 H983 0.930 . S
C992 C990 1.378 . S
C992 C993 1.367 . S
C993 C992 1.367 . S
C993 C995 1.433 . S
C994 C990 1.350 . S
C994 C991 1.463 . S
C994 N998 1.427 . S
C995 H985 0.929 . S
C995 C993 1.433 . S
C995 N998 1.384 . S
C996 H987 0.929 . S
C996 C988 1.378 . S
C996 C991 1.350 . S
C997 H984 0.929 . S
C997 C989 1.433 . S
C997 N999 1.384 . S
N998 C994 1.427 . S
N998 C995 1.384 . S
N999 C991 1.427 . S
N999 C997 1.384 . S
H1000 C1006 0.930 . S
H1001 C1010 0.930 . S
H1002 C1015 0.929 . S
H1003 C1013 0.929 . S
H1004 C1008 0.929 . S
H1005 C1014 0.929 . S
C1006 H1000 0.930 . S
C1006 C1007 1.367 . S
C1006 C1014 1.378 . S
C1007 C1006 1.367 . S
C1007 C1015 1.433 . S
C1008 H1004 0.929 . S
C1008 C1010 1.378 . S
C1008 C1012 1.350 . S
C1009 C1012 1.463 . S
C1009 C1014 1.350 . S
C1009 N1017 1.427 . S
C1010 H1001 0.930 . S
C1010 C1008 1.378 . S
C1010 C1011 1.367 . S
C1011 C1010 1.367 . S
C1011 C1013 1.433 . S
C1012 C1008 1.350 . S
C1012 C1009 1.463 . S
C1012 N1016 1.427 . S
C1013 H1003 0.929 . S
C1013 C1011 1.433 . S
C1013 N1016 1.384 . S
C1014 H1005 0.929 . S
C1014 C1006 1.378 . S
C1014 C1009 1.350 . S
C1015 H1002 0.929 . S
C1015 C1007 1.433 . S
C1015 N1017 1.384 . S
N1016 C1012 1.427 . S
N1016 C1013 1.384 . S
N1017 C1009 1.427 . S
N1017 C1015 1.384 . S
H1018 C1024 0.930 . S
H1019 C1028 0.930 . S
H1020 C1033 0.929 . S
H1021 C1031 0.929 . S
H1022 C1026 0.929 . S
H1023 C1032 0.929 . S
C1024 H1018 0.930 . S
C1024 C1025 1.367 . S
C1024 C1032 1.378 . S
C1025 C1024 1.367 . S
C1025 C1033 1.433 . S
C1026 H1022 0.929 . S
C1026 C1028 1.378 . S
C1026 C1030 1.350 . S
C1027 C1030 1.463 . S
C1027 C1032 1.350 . S
C1027 N1035 1.427 . S
C1028 H1019 0.930 . S
C1028 C1026 1.378 . S
C1028 C1029 1.367 . S
C1029 C1028 1.367 . S
C1029 C1031 1.433 . S
C1030 C1026 1.350 . S
C1030 C1027 1.463 . S
C1030 N1034 1.427 . S
C1031 H1021 0.929 . S
C1031 C1029 1.433 . S
C1031 N1034 1.384 . S
C1032 H1023 0.929 . S
C1032 C1024 1.378 . S
C1032 C1027 1.350 . S
C1033 H1020 0.929 . S
C1033 C1025 1.433 . S
C1033 N1035 1.384 . S
N1034 C1030 1.427 . S
N1034 C1031 1.384 . S
N1035 C1027 1.427 . S
N1035 C1033 1.384 . S
H1036 C1042 0.930 . S
H1037 C1046 0.930 . S
H1038 C1051 0.929 . S
H1039 C1049 0.929 . S
H1040 C1044 0.929 . S
H1041 C1050 0.929 . S
C1042 H1036 0.930 . S
C1042 C1043 1.367 . S
C1042 C1050 1.378 . S
C1043 C1042 1.367 . S
C1043 C1051 1.433 . S
C1044 H1040 0.929 . S
C1044 C1046 1.378 . S
C1044 C1048 1.350 . S
C1045 C1048 1.463 . S
C1045 C1050 1.350 . S
C1045 N1053 1.427 . S
C1046 H1037 0.930 . S
C1046 C1044 1.378 . S
C1046 C1047 1.367 . S
C1047 C1046 1.367 . S
C1047 C1049 1.433 . S
C1048 C1044 1.350 . S
C1048 C1045 1.463 . S
C1048 N1052 1.427 . S
C1049 H1039 0.929 . S
C1049 C1047 1.433 . S
C1049 N1052 1.384 . S
C1050 H1041 0.929 . S
C1050 C1042 1.378 . S
C1050 C1045 1.350 . S
C1051 H1038 0.929 . S
C1051 C1043 1.433 . S
C1051 N1053 1.384 . S
N1052 C1048 1.427 . S
N1052 C1049 1.384 . S
N1053 C1045 1.427 . S
N1053 C1051 1.384 . S
H1054 C1060 0.930 . S
H1055 C1064 0.930 . S
H1056 C1069 0.929 . S
H1057 C1067 0.929 . S
H1058 C1062 0.929 . S
H1059 C1068 0.929 . S
C1060 H1054 0.930 . S
C1060 C1061 1.367 . S
C1060 C1068 1.378 . S
C1061 C1060 1.367 . S
C1061 C1069 1.433 . S
C1062 H1058 0.929 . S
C1062 C1064 1.378 . S
C1062 C1066 1.350 . S
C1063 C1066 1.463 . S
C1063 C1068 1.350 . S
C1063 N1071 1.427 . S
C1064 H1055 0.930 . S
C1064 C1062 1.378 . S
C1064 C1065 1.367 . S
C1065 C1064 1.367 . S
C1065 C1067 1.433 . S
C1066 C1062 1.350 . S
C1066 C1063 1.463 . S
C1066 N1070 1.427 . S
C1067 H1057 0.929 . S
C1067 C1065 1.433 . S
C1067 N1070 1.384 . S
C1068 H1059 0.929 . S
C1068 C1060 1.378 . S
C1068 C1063 1.350 . S
C1069 H1056 0.929 . S
C1069 C1061 1.433 . S
C1069 N1071 1.384 . S
N1070 C1066 1.427 . S
N1070 C1067 1.384 . S
N1071 C1063 1.427 . S
N1071 C1069 1.384 . S
H1072 C1078 0.930 . S
H1073 C1082 0.930 . S
H1074 C1087 0.929 . S
H1075 C1085 0.929 . S
H1076 C1080 0.929 . S
H1077 C1086 0.929 . S
C1078 H1072 0.930 . S
C1078 C1079 1.367 . S
C1078 C1086 1.378 . S
C1079 C1078 1.367 . S
C1079 C1087 1.433 . S
C1080 H1076 0.929 . S
C1080 C1082 1.378 . S
C1080 C1084 1.350 . S
C1081 C1084 1.463 . S
C1081 C1086 1.350 . S
C1081 N1089 1.427 . S
C1082 H1073 0.930 . S
C1082 C1080 1.378 . S
C1082 C1083 1.367 . S
C1083 C1082 1.367 . S
C1083 C1085 1.433 . S
C1084 C1080 1.350 . S
C1084 C1081 1.463 . S
C1084 N1088 1.427 . S
C1085 H1075 0.929 . S
C1085 C1083 1.433 . S
C1085 N1088 1.384 . S
C1086 H1077 0.929 . S
C1086 C1078 1.378 . S
C1086 C1081 1.350 . S
C1087 H1074 0.929 . S
C1087 C1079 1.433 . S
C1087 N1089 1.384 . S
N1088 C1084 1.427 . S
N1088 C1085 1.384 . S
N1089 C1081 1.427 . S
N1089 C1087 1.384 . S
H1090 C1096 0.930 . S
H1091 C1100 0.930 . S
H1092 C1105 0.929 . S
H1093 C1103 0.929 . S
H1094 C1098 0.929 . S
H1095 C1104 0.929 . S
C1096 H1090 0.930 . S
C1096 C1097 1.367 . S
C1096 C1104 1.378 . S
C1097 C1096 1.367 . S
C1097 C1105 1.433 . S
C1098 H1094 0.929 . S
C1098 C1100 1.378 . S
C1098 C1102 1.350 . S
C1099 C1102 1.463 . S
C1099 C1104 1.350 . S
C1099 N1107 1.427 . S
C1100 H1091 0.930 . S
C1100 C1098 1.378 . S
C1100 C1101 1.367 . S
C1101 C1100 1.367 . S
C1101 C1103 1.433 . S
C1102 C1098 1.350 . S
C1102 C1099 1.463 . S
C1102 N1106 1.427 . S
C1103 H1093 0.929 . S
C1103 C1101 1.433 . S
C1103 N1106 1.384 . S
C1104 H1095 0.929 . S
C1104 C1096 1.378 . S
C1104 C1099 1.350 . S
C1105 H1092 0.929 . S
C1105 C1097 1.433 . S
C1105 N1107 1.384 . S
N1106 C1102 1.427 . S
N1106 C1103 1.384 . S
N1107 C1099 1.427 . S
N1107 C1105 1.384 . S
H1108 C1114 0.930 . S
H1109 C1118 0.930 . S
H1110 C1123 0.929 . S
H1111 C1121 0.929 . S
H1112 C1116 0.929 . S
H1113 C1122 0.929 . S
C1114 H1108 0.930 . S
C1114 C1115 1.367 . S
C1114 C1122 1.378 . S
C1115 C1114 1.367 . S
C1115 C1123 1.433 . S
C1116 H1112 0.929 . S
C1116 C1118 1.378 . S
C1116 C1120 1.350 . S
C1117 C1120 1.463 . S
C1117 C1122 1.350 . S
C1117 N1125 1.427 . S
C1118 H1109 0.930 . S
C1118 C1116 1.378 . S
C1118 C1119 1.367 . S
C1119 C1118 1.367 . S
C1119 C1121 1.433 . S
C1120 C1116 1.350 . S
C1120 C1117 1.463 . S
C1120 N1124 1.427 . S
C1121 H1111 0.929 . S
C1121 C1119 1.433 . S
C1121 N1124 1.384 . S
C1122 H1113 0.929 . S
C1122 C1114 1.378 . S
C1122 C1117 1.350 . S
C1123 H1110 0.929 . S
C1123 C1115 1.433 . S
C1123 N1125 1.384 . S
N1124 C1120 1.427 . S
N1124 C1121 1.384 . S
N1125 C1117 1.427 . S
N1125 C1123 1.384 . S
H1126 C1132 0.930 . S
H1127 C1136 0.930 . S
H1128 C1141 0.929 . S
H1129 C1139 0.929 . S
H1130 C1134 0.929 . S
H1131 C1140 0.929 . S
C1132 H1126 0.930 . S
C1132 C1133 1.367 . S
C1132 C1140 1.378 . S
C1133 C1132 1.367 . S
C1133 C1141 1.433 . S
C1134 H1130 0.929 . S
C1134 C1136 1.378 . S
C1134 C1138 1.350 . S
C1135 C1138 1.463 . S
C1135 C1140 1.350 . S
C1135 N1143 1.427 . S
C1136 H1127 0.930 . S
C1136 C1134 1.378 . S
C1136 C1137 1.367 . S
C1137 C1136 1.367 . S
C1137 C1139 1.433 . S
C1138 C1134 1.350 . S
C1138 C1135 1.463 . S
C1138 N1142 1.427 . S
C1139 H1129 0.929 . S
C1139 C1137 1.433 . S
C1139 N1142 1.384 . S
C1140 H1131 0.929 . S
C1140 C1132 1.378 . S
C1140 C1135 1.350 . S
C1141 H1128 0.929 . S
C1141 C1133 1.433 . S
C1141 N1143 1.384 . S
N1142 C1138 1.427 . S
N1142 C1139 1.384 . S
N1143 C1135 1.427 . S
N1143 C1141 1.384 . S
H1144 C1150 0.930 . S
H1145 C1154 0.930 . S
H1146 C1159 0.929 . S
H1147 C1157 0.929 . S
H1148 C1152 0.929 . S
H1149 C1158 0.929 . S
C1150 H1144 0.930 . S
C1150 C1151 1.367 . S
C1150 C1158 1.378 . S
C1151 C1150 1.367 . S
C1151 C1159 1.433 . S
C1152 H1148 0.929 . S
C1152 C1154 1.378 . S
C1152 C1156 1.350 . S
C1153 C1156 1.463 . S
C1153 C1158 1.350 . S
C1153 N1161 1.427 . S
C1154 H1145 0.930 . S
C1154 C1152 1.378 . S
C1154 C1155 1.367 . S
C1155 C1154 1.367 . S
C1155 C1157 1.433 . S
C1156 C1152 1.350 . S
C1156 C1153 1.463 . S
C1156 N1160 1.427 . S
C1157 H1147 0.929 . S
C1157 C1155 1.433 . S
C1157 N1160 1.384 . S
C1158 H1149 0.929 . S
C1158 C1150 1.378 . S
C1158 C1153 1.350 . S
C1159 H1146 0.929 . S
C1159 C1151 1.433 . S
C1159 N1161 1.384 . S
N1160 C1156 1.427 . S
N1160 C1157 1.384 . S
N1161 C1153 1.427 . S
N1161 C1159 1.384 . S
H1162 C1168 0.930 . S
H1163 C1172 0.930 . S
H1164 C1177 0.929 . S
H1165 C1175 0.929 . S
H1166 C1170 0.929 . S
H1167 C1176 0.929 . S
C1168 H1162 0.930 . S
C1168 C1169 1.367 . S
C1168 C1176 1.378 . S
C1169 C1168 1.367 . S
C1169 C1177 1.433 . S
C1170 H1166 0.929 . S
C1170 C1172 1.378 . S
C1170 C1174 1.350 . S
C1171 C1174 1.463 . S
C1171 C1176 1.350 . S
C1171 N1179 1.427 . S
C1172 H1163 0.930 . S
C1172 C1170 1.378 . S
C1172 C1173 1.367 . S
C1173 C1172 1.367 . S
C1173 C1175 1.433 . S
C1174 C1170 1.350 . S
C1174 C1171 1.463 . S
C1174 N1178 1.427 . S
C1175 H1165 0.929 . S
C1175 C1173 1.433 . S
C1175 N1178 1.384 . S
C1176 H1167 0.929 . S
C1176 C1168 1.378 . S
C1176 C1171 1.350 . S
C1177 H1164 0.929 . S
C1177 C1169 1.433 . S
C1177 N1179 1.384 . S
N1178 C1174 1.427 . S
N1178 C1175 1.384 . S
N1179 C1171 1.427 . S
N1179 C1177 1.384 . S
H1180 C1186 0.930 . S
H1181 C1190 0.930 . S
H1182 C1195 0.929 . S
H1183 C1193 0.929 . S
H1184 C1188 0.929 . S
H1185 C1194 0.929 . S
C1186 H1180 0.930 . S
C1186 C1187 1.367 . S
C1186 C1194 1.378 . S
C1187 C1186 1.367 . S
C1187 C1195 1.433 . S
C1188 H1184 0.929 . S
C1188 C1190 1.378 . S
C1188 C1192 1.350 . S
C1189 C1192 1.463 . S
C1189 C1194 1.350 . S
C1189 N1197 1.427 . S
C1190 H1181 0.930 . S
C1190 C1188 1.378 . S
C1190 C1191 1.367 . S
C1191 C1190 1.367 . S
C1191 C1193 1.433 . S
C1192 C1188 1.350 . S
C1192 C1189 1.463 . S
C1192 N1196 1.427 . S
C1193 H1183 0.929 . S
C1193 C1191 1.433 . S
C1193 N1196 1.384 . S
C1194 H1185 0.929 . S
C1194 C1186 1.378 . S
C1194 C1189 1.350 . S
C1195 H1182 0.929 . S
C1195 C1187 1.433 . S
C1195 N1197 1.384 . S
N1196 C1192 1.427 . S
N1196 C1193 1.384 . S
N1197 C1189 1.427 . S
N1197 C1195 1.384 . S
H1198 C1204 0.930 . S
H1199 C1208 0.930 . S
H1200 C1213 0.929 . S
H1201 C1211 0.929 . S
H1202 C1206 0.929 . S
H1203 C1212 0.929 . S
C1204 H1198 0.930 . S
C1204 C1205 1.367 . S
C1204 C1212 1.378 . S
C1205 C1204 1.367 . S
C1205 C1213 1.433 . S
C1206 H1202 0.929 . S
C1206 C1208 1.378 . S
C1206 C1210 1.350 . S
C1207 C1210 1.463 . S
C1207 C1212 1.350 . S
C1207 N1215 1.427 . S
C1208 H1199 0.930 . S
C1208 C1206 1.378 . S
C1208 C1209 1.367 . S
C1209 C1208 1.367 . S
C1209 C1211 1.433 . S
C1210 C1206 1.350 . S
C1210 C1207 1.463 . S
C1210 N1214 1.427 . S
C1211 H1201 0.929 . S
C1211 C1209 1.433 . S
C1211 N1214 1.384 . S
C1212 H1203 0.929 . S
C1212 C1204 1.378 . S
C1212 C1207 1.350 . S
C1213 H1200 0.929 . S
C1213 C1205 1.433 . S
C1213 N1215 1.384 . S
N1214 C1210 1.427 . S
N1214 C1211 1.384 . S
N1215 C1207 1.427 . S
N1215 C1213 1.384 . S
C359 C15 1.431 . S
C363 C257 1.451 . S
C377 C37 1.438 . S
C381 C183 1.456 . S
C395 C205 1.454 . S
C399 C65 1.435 . S
C413 C241 1.457 . S
C417 C73 1.439 . S
C431 C103 1.440 . S
C435 C307 1.452 . S
C449 C131 1.446 . S
C453 C323 1.457 . S
C467 C345 1.455 . S
C471 C147 1.438 . S
C485 C285 1.454 . S
C489 C161 1.438 . S
C503 C191 1.438 . S
C507 C81 1.455 . S
C521 C7 1.456 . S
C525 C219 1.447 . S
C539 C43 1.455 . S
C543 C227 1.439 . S
C557 C249 1.440 . S
C561 C59 1.452 . S
C575 C271 1.431 . S
C579 C117 1.452 . S
C593 C139 1.457 . S
C597 C301 1.446 . S
C611 C169 1.454 . S
C615 C329 1.440 . S
C629 C95 1.457 . S
C633 C337 1.440 . S
C647 C98 1.086 . S
C651 C10 1.067 . S
C665 C32 1.059 . S
C669 C118 1.039 . S
C683 C142 1.073 . S
C687 C52 1.079 . S
C701 C172 1.039 . S
C705 C84 1.058 . S
C719 C282 1.084 . S
C723 C186 1.069 . S
C737 C206 1.039 . S
C741 C296 1.058 . S
C755 C238 1.084 . S
C759 C316 1.069 . S
C773 C348 1.059 . S
C777 C260 1.038 . S
C791 C21 1.450 . S
C795 C294 1.467 . S
C809 C318 1.462 . S
C813 C29 1.440 . S
C827 C340 1.465 . S
C831 C51 1.453 . S
C845 C272 1.458 . S
C849 C87 1.449 . S
C863 C109 1.451 . S
C867 C252 1.466 . S
C881 C125 1.449 . S
C885 C194 1.460 . S
C899 C153 1.449 . S
C903 C216 1.467 . S
C917 C228 1.463 . S
C921 C175 1.442 . S
C935 C128 1.465 . S
C939 C197 1.457 . S
C953 C150 1.458 . S
C957 C213 1.448 . S
C971 C235 1.454 . S
C975 C164 1.465 . S
C989 C106 1.459 . S
C993 C263 1.449 . S
C1007 C76 1.468 . S
C1011 C279 1.453 . S
C1025 C293 1.449 . S
C1029 C18 1.459 . S
C1043 C30 1.467 . S
C1047 C315 1.456 . S
C1061 C351 1.445 . S
C1065 C54 1.458 . S
C1079 C162 1.173 . S
C1083 C8 1.163 . S
C1097 C96 1.171 . S
C1101 C40 1.167 . S
C1115 C120 1.175 . S
C1119 C62 1.161 . S
C1133 C140 1.163 . S
C1137 C74 1.174 . S
C1151 C184 1.166 . S
C1155 C338 1.170 . S
C1169 C274 1.164 . S
C1173 C208 1.173 . S
C1187 C304 1.174 . S
C1191 C230 1.164 . S
C1205 C250 1.167 . S
C1209 C326 1.171 . S
