# Generated by pormake.
# Topology cha, (4)-cn, num edge types: 1
# Building blocks:
#     Node 0, Type 0, BuildingBlock: NAHDIM_clean_sbu_0, # of connection points: 4
#     Node 1, Type 0, BuildingBlock: NAHDIM_clean_sbu_0, # of connection points: 4
#     Node 2, Type 0, BuildingBlock: NAHDIM_clean_sbu_0, # of connection points: 4
#     Node 3, Type 0, BuildingBlock: NAHDIM_clean_sbu_0, # of connection points: 4
#     Node 4, Type 0, BuildingBlock: NAHDIM_clean_sbu_0, # of connection points: 4
#     Node 5, Type 0, BuildingBlock: NAHDIM_clean_sbu_0, # of connection points: 4
#     Node 6, Type 0, BuildingBlock: NAHDIM_clean_sbu_0, # of connection points: 4
#     Node 7, Type 0, BuildingBlock: NAHDIM_clean_sbu_0, # of connection points: 4
#     Node 8, Type 0, BuildingBlock: NAHDIM_clean_sbu_0, # of connection points: 4
#     Node 9, Type 0, BuildingBlock: NAHDIM_clean_sbu_0, # of connection points: 4
#     Node 10, Type 0, BuildingBlock: NAHDIM_clean_sbu_0, # of connection points: 4
#     Node 11, Type 0, BuildingBlock: NAHDIM_clean_sbu_0, # of connection points: 4
#     Node 12, Type 0, BuildingBlock: NAHDIM_clean_sbu_0, # of connection points: 4
#     Node 13, Type 0, BuildingBlock: NAHDIM_clean_sbu_0, # of connection points: 4
#     Node 14, Type 0, BuildingBlock: NAHDIM_clean_sbu_0, # of connection points: 4
#     Node 15, Type 0, BuildingBlock: NAHDIM_clean_sbu_0, # of connection points: 4
#     Node 16, Type 0, BuildingBlock: NAHDIM_clean_sbu_0, # of connection points: 4
#     Node 17, Type 0, BuildingBlock: NAHDIM_clean_sbu_0, # of connection points: 4
#     Node 18, Type 0, BuildingBlock: NAHDIM_clean_sbu_0, # of connection points: 4
#     Node 19, Type 0, BuildingBlock: NAHDIM_clean_sbu_0, # of connection points: 4
#     Node 20, Type 0, BuildingBlock: NAHDIM_clean_sbu_0, # of connection points: 4
#     Node 21, Type 0, BuildingBlock: NAHDIM_clean_sbu_0, # of connection points: 4
#     Node 22, Type 0, BuildingBlock: NAHDIM_clean_sbu_0, # of connection points: 4
#     Node 23, Type 0, BuildingBlock: NAHDIM_clean_sbu_0, # of connection points: 4
#     Node 24, Type 0, BuildingBlock: NAHDIM_clean_sbu_0, # of connection points: 4
#     Node 25, Type 0, BuildingBlock: NAHDIM_clean_sbu_0, # of connection points: 4
#     Node 26, Type 0, BuildingBlock: NAHDIM_clean_sbu_0, # of connection points: 4
#     Node 27, Type 0, BuildingBlock: NAHDIM_clean_sbu_0, # of connection points: 4
#     Node 28, Type 0, BuildingBlock: NAHDIM_clean_sbu_0, # of connection points: 4
#     Node 29, Type 0, BuildingBlock: NAHDIM_clean_sbu_0, # of connection points: 4
#     Node 30, Type 0, BuildingBlock: NAHDIM_clean_sbu_0, # of connection points: 4
#     Node 31, Type 0, BuildingBlock: NAHDIM_clean_sbu_0, # of connection points: 4
#     Node 32, Type 0, BuildingBlock: NAHDIM_clean_sbu_0, # of connection points: 4
#     Node 33, Type 0, BuildingBlock: NAHDIM_clean_sbu_0, # of connection points: 4
#     Node 34, Type 0, BuildingBlock: NAHDIM_clean_sbu_0, # of connection points: 4
#     Node 35, Type 0, BuildingBlock: NAHDIM_clean_sbu_0, # of connection points: 4
#     Edge 36, Type (0, 0), BuildingBlock: XUDNAN_clean_linker_2, # of connection points: 2
#     Edge 37, Type (0, 0), BuildingBlock: XUDNAN_clean_linker_2, # of connection points: 2
#     Edge 38, Type (0, 0), BuildingBlock: XUDNAN_clean_linker_2, # of connection points: 2
#     Edge 39, Type (0, 0), BuildingBlock: XUDNAN_clean_linker_2, # of connection points: 2
#     Edge 40, Type (0, 0), BuildingBlock: XUDNAN_clean_linker_2, # of connection points: 2
#     Edge 41, Type (0, 0), BuildingBlock: XUDNAN_clean_linker_2, # of connection points: 2
#     Edge 42, Type (0, 0), BuildingBlock: XUDNAN_clean_linker_2, # of connection points: 2
#     Edge 43, Type (0, 0), BuildingBlock: XUDNAN_clean_linker_2, # of connection points: 2
#     Edge 44, Type (0, 0), BuildingBlock: XUDNAN_clean_linker_2, # of connection points: 2
#     Edge 45, Type (0, 0), BuildingBlock: XUDNAN_clean_linker_2, # of connection points: 2
#     Edge 46, Type (0, 0), BuildingBlock: XUDNAN_clean_linker_2, # of connection points: 2
#     Edge 47, Type (0, 0), BuildingBlock: XUDNAN_clean_linker_2, # of connection points: 2
#     Edge 48, Type (0, 0), BuildingBlock: XUDNAN_clean_linker_2, # of connection points: 2
#     Edge 49, Type (0, 0), BuildingBlock: XUDNAN_clean_linker_2, # of connection points: 2
#     Edge 50, Type (0, 0), BuildingBlock: XUDNAN_clean_linker_2, # of connection points: 2
#     Edge 51, Type (0, 0), BuildingBlock: XUDNAN_clean_linker_2, # of connection points: 2
#     Edge 52, Type (0, 0), BuildingBlock: XUDNAN_clean_linker_2, # of connection points: 2
#     Edge 53, Type (0, 0), BuildingBlock: XUDNAN_clean_linker_2, # of connection points: 2
#     Edge 54, Type (0, 0), BuildingBlock: XUDNAN_clean_linker_2, # of connection points: 2
#     Edge 55, Type (0, 0), BuildingBlock: XUDNAN_clean_linker_2, # of connection points: 2
#     Edge 56, Type (0, 0), BuildingBlock: XUDNAN_clean_linker_2, # of connection points: 2
#     Edge 57, Type (0, 0), BuildingBlock: XUDNAN_clean_linker_2, # of connection points: 2
#     Edge 58, Type (0, 0), BuildingBlock: XUDNAN_clean_linker_2, # of connection points: 2
#     Edge 59, Type (0, 0), BuildingBlock: XUDNAN_clean_linker_2, # of connection points: 2
#     Edge 60, Type (0, 0), BuildingBlock: XUDNAN_clean_linker_2, # of connection points: 2
#     Edge 61, Type (0, 0), BuildingBlock: XUDNAN_clean_linker_2, # of connection points: 2
#     Edge 62, Type (0, 0), BuildingBlock: XUDNAN_clean_linker_2, # of connection points: 2
#     Edge 63, Type (0, 0), BuildingBlock: XUDNAN_clean_linker_2, # of connection points: 2
#     Edge 64, Type (0, 0), BuildingBlock: XUDNAN_clean_linker_2, # of connection points: 2
#     Edge 65, Type (0, 0), BuildingBlock: XUDNAN_clean_linker_2, # of connection points: 2
#     Edge 66, Type (0, 0), BuildingBlock: XUDNAN_clean_linker_2, # of connection points: 2
#     Edge 67, Type (0, 0), BuildingBlock: XUDNAN_clean_linker_2, # of connection points: 2
#     Edge 68, Type (0, 0), BuildingBlock: XUDNAN_clean_linker_2, # of connection points: 2
#     Edge 69, Type (0, 0), BuildingBlock: XUDNAN_clean_linker_2, # of connection points: 2
#     Edge 70, Type (0, 0), BuildingBlock: XUDNAN_clean_linker_2, # of connection points: 2
#     Edge 71, Type (0, 0), BuildingBlock: XUDNAN_clean_linker_2, # of connection points: 2
#     Edge 72, Type (0, 0), BuildingBlock: XUDNAN_clean_linker_2, # of connection points: 2
#     Edge 73, Type (0, 0), BuildingBlock: XUDNAN_clean_linker_2, # of connection points: 2
#     Edge 74, Type (0, 0), BuildingBlock: XUDNAN_clean_linker_2, # of connection points: 2
#     Edge 75, Type (0, 0), BuildingBlock: XUDNAN_clean_linker_2, # of connection points: 2
#     Edge 76, Type (0, 0), BuildingBlock: XUDNAN_clean_linker_2, # of connection points: 2
#     Edge 77, Type (0, 0), BuildingBlock: XUDNAN_clean_linker_2, # of connection points: 2
#     Edge 78, Type (0, 0), BuildingBlock: XUDNAN_clean_linker_2, # of connection points: 2
#     Edge 79, Type (0, 0), BuildingBlock: XUDNAN_clean_linker_2, # of connection points: 2
#     Edge 80, Type (0, 0), BuildingBlock: XUDNAN_clean_linker_2, # of connection points: 2
#     Edge 81, Type (0, 0), BuildingBlock: XUDNAN_clean_linker_2, # of connection points: 2
#     Edge 82, Type (0, 0), BuildingBlock: XUDNAN_clean_linker_2, # of connection points: 2
#     Edge 83, Type (0, 0), BuildingBlock: XUDNAN_clean_linker_2, # of connection points: 2
#     Edge 84, Type (0, 0), BuildingBlock: XUDNAN_clean_linker_2, # of connection points: 2
#     Edge 85, Type (0, 0), BuildingBlock: XUDNAN_clean_linker_2, # of connection points: 2
#     Edge 86, Type (0, 0), BuildingBlock: XUDNAN_clean_linker_2, # of connection points: 2
#     Edge 87, Type (0, 0), BuildingBlock: XUDNAN_clean_linker_2, # of connection points: 2
#     Edge 88, Type (0, 0), BuildingBlock: XUDNAN_clean_linker_2, # of connection points: 2
#     Edge 89, Type (0, 0), BuildingBlock: XUDNAN_clean_linker_2, # of connection points: 2
#     Edge 90, Type (0, 0), BuildingBlock: XUDNAN_clean_linker_2, # of connection points: 2
#     Edge 91, Type (0, 0), BuildingBlock: XUDNAN_clean_linker_2, # of connection points: 2
#     Edge 92, Type (0, 0), BuildingBlock: XUDNAN_clean_linker_2, # of connection points: 2
#     Edge 93, Type (0, 0), BuildingBlock: XUDNAN_clean_linker_2, # of connection points: 2
#     Edge 94, Type (0, 0), BuildingBlock: XUDNAN_clean_linker_2, # of connection points: 2
#     Edge 95, Type (0, 0), BuildingBlock: XUDNAN_clean_linker_2, # of connection points: 2
#     Edge 96, Type (0, 0), BuildingBlock: XUDNAN_clean_linker_2, # of connection points: 2
#     Edge 97, Type (0, 0), BuildingBlock: XUDNAN_clean_linker_2, # of connection points: 2
#     Edge 98, Type (0, 0), BuildingBlock: XUDNAN_clean_linker_2, # of connection points: 2
#     Edge 99, Type (0, 0), BuildingBlock: XUDNAN_clean_linker_2, # of connection points: 2
#     Edge 100, Type (0, 0), BuildingBlock: XUDNAN_clean_linker_2, # of connection points: 2
#     Edge 101, Type (0, 0), BuildingBlock: XUDNAN_clean_linker_2, # of connection points: 2
#     Edge 102, Type (0, 0), BuildingBlock: XUDNAN_clean_linker_2, # of connection points: 2
#     Edge 103, Type (0, 0), BuildingBlock: XUDNAN_clean_linker_2, # of connection points: 2
#     Edge 104, Type (0, 0), BuildingBlock: XUDNAN_clean_linker_2, # of connection points: 2
#     Edge 105, Type (0, 0), BuildingBlock: XUDNAN_clean_linker_2, # of connection points: 2
#     Edge 106, Type (0, 0), BuildingBlock: XUDNAN_clean_linker_2, # of connection points: 2
#     Edge 107, Type (0, 0), BuildingBlock: XUDNAN_clean_linker_2, # of connection points: 2
# Relax obj value: 0.157
# Max RMSD: 0.151
# Mean RMSD: 0.151
data_MOF--net-cha--node1-NAHDIM_clean_sbu_0--edge1-XUDNAN_clean_linker_2
_symmetry_space_group_name_H-M    P1
_symmetry_Int_Tables_number       1
_symmetry_cell_setting            triclinic
loop_
_symmetry_equiv_pos_as_xyz
'x, y, z'
_cell_length_a     62.023478
_cell_length_b     61.983621
_cell_length_c     76.750227
_cell_angle_alpha  89.991779
_cell_angle_beta   90.016476
_cell_angle_gamma 120.03307
loop_
_atom_site_label
_atom_site_type_symbol
_atom_site_fract_x
_atom_site_fract_y
_atom_site_fract_z
_atom_type_partial_charge
C0 C 0.03152 0.31093 0.13457 0.0
O1 O 0.0297 0.29003 0.14011 0.0
O2 O 0.08731 0.30891 0.10996 0.0
Zn3 Zn 0.05189 0.29961 0.10515 0.0
O4 O 0.02852 0.26306 0.10957 0.0
C5 C 0.04904 0.28988 0.06922 0.0
O6 O 0.05263 0.27213 0.07535 0.0
O7 O 0.04137 0.31951 0.11982 0.0
C8 C 0.00619 0.25423 0.10446 0.0
O9 O -0.00033 0.26927 0.09712 0.0
C10 C 0.09287 0.29478 0.11847 0.0
O11 O 0.07495 0.27386 0.125 0.0
O12 O 0.04864 0.30546 0.07978 0.0
C13 C 0.7416 0.75552 0.12749 0.0
O14 O 0.75817 0.77649 0.13481 0.0
O15 O 0.78281 0.81238 0.1047 0.0
Zn16 Zn 0.77332 0.77735 0.09777 0.0
O17 O 0.80275 0.77277 0.10228 0.0
C18 C 0.77306 0.79064 0.06186 0.0
O19 O 0.78509 0.81334 0.06824 0.0
O20 O 0.7439 0.75191 0.11149 0.0
C21 C 0.82267 0.78616 0.09377 0.0
O22 O 0.82314 0.80206 0.08224 0.0
C23 C 0.79928 0.82418 0.11626 0.0
O24 O 0.80945 0.81291 0.12449 0.0
O25 O 0.76556 0.77218 0.07213 0.0
C26 C 0.26699 0.02631 0.12749 0.0
O27 O 0.24362 0.00853 0.12862 0.0
O28 O 0.22151 0.00455 0.09431 0.0
Zn29 Zn 0.25134 0.03905 0.09525 0.0
O30 O 0.24204 0.06562 0.09791 0.0
C31 C 0.26809 0.02813 0.06303 0.0
O32 O 0.25261 0.00492 0.06747 0.0
O33 O 0.27394 0.04132 0.11469 0.0
C34 C 0.2252 0.06566 0.08851 0.0
O35 O 0.21272 0.04719 0.07758 0.0
C36 C 0.20069 0.9967 0.10187 0.0
O37 O 0.19686 0.0121 0.11137 0.0
O38 O 0.27055 0.04567 0.07291 0.0
C39 C 0.31458 0.05078 0.87999 0.0
O40 O 0.30953 0.06896 0.88064 0.0
O41 O 0.27542 0.06045 0.9076 0.0
Zn42 Zn 0.27878 0.02998 0.90815 0.0
O43 O 0.24616 -0.00013 0.902 0.0
C44 C 0.30612 0.04535 0.93982 0.0
O45 O 0.31931 0.06576 0.93067 0.0
O46 O 0.30437 0.03296 0.89086 0.0
C47 C 0.22706 0.99279 0.91154 0.0
O48 O 0.2288 0.00547 0.9257 0.0
C49 C 0.26001 0.06293 0.89813 0.0
O50 O 0.24497 0.04464 0.8878 0.0
O51 O 0.28816 0.02657 0.93251 0.0
C52 C 0.02897 0.29642 0.87804 0.0
O53 O 0.03972 0.28321 0.8747 0.0
O54 O 0.97561 0.23401 0.90279 0.0
Zn55 Zn 0.00949 0.26325 0.90745 0.0
O56 O 0.03533 0.2529 0.90351 0.0
C57 C 0.01147 0.26042 0.94447 0.0
O58 O 0.00794 0.23828 0.94052 0.0
O59 O 0.01525 0.29131 0.89144 0.0
C60 C 0.03009 0.23033 0.90491 0.0
O61 O 0.00724 0.21312 0.90883 0.0
C62 C 0.97112 0.22417 0.88773 0.0
O63 O 0.98844 0.234 0.87568 0.0
O64 O 0.01219 0.27466 0.9323 0.0
C65 C 0.76123 0.77305 0.8666 0.0
O66 O 0.7716 0.79669 0.8623 0.0
O67 O 0.8223 0.80642 0.89355 0.0
Zn68 Zn 0.78637 0.79524 0.89804 0.0
O69 O 0.77809 0.82255 0.89499 0.0
C70 C 0.78849 0.79942 0.93466 0.0
O71 O 0.80436 0.82255 0.93027 0.0
O72 O 0.76505 0.76734 0.88173 0.0
C73 C 0.79295 0.84587 0.89613 0.0
O74 O 0.81671 0.85427 0.89909 0.0
C75 C 0.83495 0.81913 0.88054 0.0
O76 O 0.82468 0.82685 0.869 0.0
O77 O 0.77811 0.78323 0.92273 0.0
C78 C 0.019 0.7693 0.86855 0.0
O79 O 0.02354 0.78997 0.86065 0.0
O80 O 0.99094 0.80304 0.89246 0.0
Zn81 Zn 0.01868 0.79662 0.8983 0.0
O82 O 0.05179 0.82677 0.89315 0.0
C83 C 0.0039 0.76775 0.93013 0.0
O84 O 0.98973 0.74911 0.91974 0.0
O85 O 0.01562 0.76754 0.8849 0.0
C86 C 0.06036 0.8453 0.90344 0.0
O87 O 0.04696 0.84452 0.91694 0.0
C88 C 0.99258 0.81852 0.88094 0.0
O89 O 0.01325 0.8309 0.87193 0.0
O90 O 0.01747 0.78935 0.92375 0.0
C91 C 0.25648 0.26823 0.85824 0.0
O92 O 0.24358 0.24398 0.85603 0.0
O93 O 0.24486 0.2268 0.89442 0.0
Zn94 Zn 0.23832 0.25542 0.8934 0.0
O95 O 0.20188 0.24431 0.89156 0.0
C96 C 0.24952 0.26256 0.92947 0.0
O97 O 0.23927 0.23823 0.92846 0.0
O98 O 0.25678 0.27734 0.87313 0.0
C99 C 0.18499 0.22506 0.89921 0.0
O100 O 0.19112 0.21094 0.90825 0.0
C101 C 0.23292 0.20546 0.88735 0.0
O102 O 0.2135 0.19996 0.8775 0.0
O103 O 0.25132 0.27482 0.91574 0.0
C104 C 0.74184 0.02139 0.88253 0.0
O105 O 0.7587 0.01603 0.87713 0.0
O106 O 0.80308 0.06322 0.90626 0.0
Zn107 Zn 0.77131 0.03219 0.9128 0.0
O108 O 0.77467 0.00192 0.90883 0.0
C109 C 0.78224 0.03971 0.94864 0.0
O110 O 0.80446 0.04674 0.94229 0.0
O111 O 0.74325 0.02937 0.89797 0.0
C112 C 0.75492 0.98075 0.90887 0.0
O113 O 0.73344 0.97952 0.91168 0.0
C114 C 0.81645 0.06341 0.89365 0.0
O115 O 0.8096 0.04283 0.88482 0.0
O116 O 0.7641 0.03294 0.93818 0.0
C117 C 0.79361 0.04678 0.12145 0.0
O118 O 0.79956 0.06299 0.10875 0.0
O119 O 0.82775 0.00193 0.10564 0.0
Zn120 Zn 0.82605 0.03315 0.10328 0.0
O121 O 0.85979 0.06355 0.10694 0.0
C122 C 0.79104 0.02394 0.07493 0.0
O123 O 0.77376 0.01148 0.08665 0.0
O124 O 0.80254 0.03228 0.12156 0.0
C125 C 0.86399 0.08384 0.09988 0.0
O126 O 0.84651 0.08403 0.09033 0.0
C127 C 0.83775 0.99806 0.1188 0.0
O128 O 0.84822 0.01544 0.13078 0.0
O129 O 0.81385 0.03425 0.07925 0.0
C130 C 0.03884 0.75209 0.11789 0.0
O131 O 0.05954 0.77375 0.11808 0.0
O132 O 0.0523 0.80805 0.09613 0.0
Zn133 Zn 0.02007 0.77564 0.09398 0.0
O134 O 0.99062 0.77858 0.10154 0.0
C135 C 0.0254 0.78036 0.05685 0.0
O136 O 0.04034 0.80386 0.0609 0.0
O137 O 0.02067 0.74923 0.10857 0.0
C138 C 0.98268 0.79022 0.09237 0.0
O139 O 0.99489 0.80181 0.07822 0.0
C140 C 0.05518 0.82775 0.10338 0.0
O141 O 0.03608 0.82763 0.11087 0.0
O142 O 0.01475 0.76456 0.06897 0.0
C143 C 0.31866 0.30507 0.11365 0.0
O144 O 0.29819 0.29308 0.12293 0.0
O145 O 0.26072 0.29733 0.09506 0.0
Zn146 Zn 0.28327 0.28514 0.08624 0.0
O147 O 0.26867 0.24851 0.09105 0.0
C148 C 0.28956 0.30844 0.05216 0.0
O149 O 0.29339 0.32822 0.06097 0.0
O150 O 0.31705 0.30454 0.09715 0.0
C151 C 0.2484 0.23334 0.0835 0.0
O152 O 0.23738 0.24221 0.07356 0.0
C153 C 0.24386 0.28567 0.10638 0.0
O154 O 0.24123 0.26504 0.11318 0.0
O155 O 0.28571 0.289 0.06031 0.0
C156 C 0.69282 0.62055 0.44576 0.0
O157 O 0.69661 0.63226 0.43083 0.0
O158 O 0.7251 0.5873 0.42127 0.0
Zn159 Zn 0.69058 0.58158 0.42409 0.0
O160 O 0.66556 0.54501 0.4253 0.0
C161 C 0.69938 0.61208 0.39368 0.0
O162 O 0.72277 0.62058 0.39799 0.0
O163 O 0.68946 0.59858 0.44599 0.0
C164 C 0.66769 0.52946 0.41571 0.0
O165 O 0.6872 0.53743 0.40549 0.0
C166 C 0.73671 0.58344 0.43337 0.0
O167 O 0.72543 0.57417 0.44827 0.0
O168 O 0.68225 0.59565 0.40319 0.0
C169 C 0.41162 0.07136 0.45997 0.0
O170 O 0.43413 0.0891 0.46418 0.0
O171 O 0.41908 0.12712 0.42942 0.0
Zn172 Zn 0.42473 0.098 0.42785 0.0
O173 O 0.46074 0.10908 0.43285 0.0
C174 C 0.41742 0.0963 0.39074 0.0
O175 O 0.42346 0.11965 0.39311 0.0
O176 O 0.40306 0.0716 0.44498 0.0
C177 C 0.47781 0.11939 0.42148 0.0
O178 O 0.4721 0.1232 0.40574 0.0
C179 C 0.43393 0.14671 0.43776 0.0
O180 O 0.45285 0.14759 0.44609 0.0
O181 O 0.4164 0.08325 0.40381 0.0
C182 C 0.9561 0.36169 0.45008 0.0
O183 O 0.93764 0.33907 0.44701 0.0
O184 O 0.90206 0.34213 0.42496 0.0
Zn185 Zn 0.93303 0.37568 0.42289 0.0
O186 O 0.92484 0.403 0.42534 0.0
C187 C 0.9408 0.35972 0.38939 0.0
O188 O 0.92523 0.33756 0.39569 0.0
O189 O 0.95785 0.37983 0.44124 0.0
C190 C 0.90793 0.40288 0.41592 0.0
O191 O 0.89537 0.3842 0.40516 0.0
C192 C 0.88269 0.3369 0.43373 0.0
O193 O 0.88183 0.35444 0.44279 0.0
O194 O 0.94761 0.3788 0.39894 0.0
C195 C 0.93128 0.35537 0.209 0.0
O196 O 0.93129 0.37641 0.21104 0.0
O197 O 0.88953 0.36807 0.23057 0.0
Zn198 Zn 0.89408 0.33871 0.23597 0.0
O199 O 0.86065 0.3074 0.23605 0.0
C200 C 0.93161 0.35936 0.26314 0.0
O201 O 0.94524 0.3753 0.25098 0.0
O202 O 0.9166 0.33653 0.21811 0.0
C203 C 0.84331 0.30718 0.245 0.0
O204 O 0.84779 0.32741 0.2535 0.0
C205 C 0.89275 0.38444 0.24184 0.0
O206 O 0.89846 0.38203 0.25792 0.0
O207 O 0.90951 0.34242 0.25959 0.0
C208 C 0.67201 0.62484 0.21256 0.0
O209 O 0.65383 0.60159 0.21311 0.0
O210 O 0.67061 0.57633 0.24153 0.0
Zn211 Zn 0.69741 0.61216 0.24006 0.0
O212 O 0.72976 0.61384 0.23425 0.0
C213 C 0.68067 0.62524 0.27052 0.0
O214 O 0.66025 0.61641 0.26115 0.0
O215 O 0.69069 0.6321 0.22258 0.0
C216 C 0.73781 0.60298 0.24414 0.0
O217 O 0.72468 0.5909 0.25789 0.0
C218 C 0.66325 0.56001 0.22957 0.0
O219 O 0.67275 0.5663 0.21385 0.0
O220 O 0.69993 0.62636 0.26382 0.0
C221 C 0.41069 0.07522 0.2037 0.0
O222 O 0.43057 0.09381 0.19655 0.0
O223 O 0.46793 0.08097 0.22895 0.0
Zn224 Zn 0.44241 0.09119 0.23327 0.0
O225 O 0.45534 0.12711 0.22678 0.0
C226 C 0.42479 0.06618 0.26636 0.0
O227 O 0.42101 0.04639 0.25758 0.0
O228 O 0.4115 0.06991 0.21956 0.0
C229 C 0.46508 0.14439 0.23806 0.0
O230 O 0.46754 0.13882 0.25418 0.0
C231 C 0.48789 0.09447 0.22053 0.0
O232 O 0.49194 0.11574 0.21394 0.0
O233 O 0.43364 0.08698 0.25857 0.0
C234 C 0.70147 0.0785 0.21174 0.0
O235 O 0.69951 0.09791 0.20728 0.0
O236 O 0.64707 0.07656 0.23633 0.0
Zn237 Zn 0.68192 0.08566 0.24315 0.0
O238 O 0.70479 0.12286 0.2421 0.0
C239 C 0.66633 0.07385 0.27873 0.0
O240 O 0.64872 0.07815 0.27334 0.0
O241 O 0.69472 0.06937 0.22691 0.0
C242 C 0.69973 0.13766 0.2502 0.0
O243 O 0.67886 0.12851 0.25906 0.0
C244 C 0.64242 0.09 0.22627 0.0
O245 O 0.66095 0.11033 0.21954 0.0
O246 O 0.68233 0.075 0.26787 0.0
C247 C 0.96244 0.6206 0.20263 0.0
O248 O 0.93952 0.60517 0.19758 0.0
O249 O 0.93086 0.56571 0.23475 0.0
Zn250 Zn 0.94063 0.60184 0.23585 0.0
O251 O 0.91089 0.60562 0.23086 0.0
C252 C 0.97255 0.61663 0.26603 0.0
O253 O 0.98568 0.60981 0.25646 0.0
O254 O 0.96771 0.62206 0.21872 0.0
C255 C 0.89251 0.59602 0.24127 0.0
O256 O 0.89337 0.58366 0.25491 0.0
C257 C 0.91439 0.55069 0.22419 0.0
O258 O 0.90359 0.55896 0.21352 0.0
O259 O 0.95272 0.61481 0.25982 0.0
C260 C 0.46262 0.36031 0.19045 0.0
O261 O 0.48637 0.36949 0.18697 0.0
O262 O 0.51001 0.38352 0.22421 0.0
Zn263 Zn 0.477 0.35168 0.22425 0.0
O264 O 0.4817 0.32224 0.22016 0.0
C265 C 0.45649 0.36471 0.25343 0.0
O266 O 0.46121 0.3839 0.24356 0.0
O267 O 0.45462 0.35212 0.20565 0.0
C268 C 0.4847 0.31075 0.2328 0.0
O269 O 0.48546 0.31875 0.24876 0.0
C270 C 0.52288 0.38925 0.23809 0.0
O271 O 0.51452 0.37391 0.25142 0.0
O272 O 0.461 0.34818 0.24761 0.0
C273 C 0.43721 0.3621 0.44926 0.0
O274 O 0.44815 0.34931 0.45331 0.0
O275 O 0.44309 0.32133 0.41971 0.0
Zn276 Zn 0.45352 0.35735 0.41571 0.0
O277 O 0.49057 0.37961 0.4182 0.0
C278 C 0.44198 0.34622 0.37956 0.0
O279 O 0.44488 0.3273 0.38379 0.0
O280 O 0.43679 0.36788 0.43342 0.0
C281 C 0.50605 0.37693 0.40892 0.0
O282 O 0.49777 0.35841 0.39776 0.0
C283 C 0.45609 0.31395 0.4278 0.0
O284 O 0.47775 0.33044 0.43433 0.0
O285 O 0.44412 0.36162 0.39132 0.0
C286 C 0.69314 0.11339 0.46454 0.0
O287 O 0.70685 0.1375 0.46717 0.0
O288 O 0.71648 0.15917 0.43062 0.0
Zn289 Zn 0.68257 0.12867 0.43161 0.0
O290 O 0.65561 0.13678 0.43649 0.0
C291 C 0.6884 0.1011 0.40382 0.0
O292 O 0.70511 0.10134 0.41447 0.0
O293 O 0.68146 0.10551 0.45024 0.0
C294 C 0.64524 0.1421 0.42428 0.0
O295 O 0.65338 0.14378 0.40825 0.0
C296 C 0.72245 0.18024 0.43719 0.0
O297 O 0.70559 0.18316 0.44553 0.0
O298 O 0.67606 0.1114 0.40853 0.0
C299 C 0.97667 0.62847 0.45852 0.0
O300 O 0.96117 0.60445 0.46027 0.0
O301 O 0.92489 0.62395 0.42404 0.0
Zn302 Zn 0.9548 0.61964 0.42446 0.0
O303 O 0.94278 0.58299 0.42656 0.0
C304 C 0.96705 0.64134 0.39006 0.0
O305 O 0.9496 0.64684 0.39347 0.0
O306 O 0.97725 0.63906 0.44423 0.0
C307 C 0.92466 0.56827 0.41693 0.0
O308 O 0.91459 0.57755 0.40646 0.0
C309 C 0.90774 0.6137 0.43533 0.0
O310 O 0.91029 0.6011 0.44815 0.0
O311 O 0.97307 0.63072 0.40167 0.0
C312 C 0.36008 0.98066 0.78411 0.0
O313 O 0.36172 0.96147 0.78965 0.0
O314 O 0.38695 0.95318 0.75963 0.0
Zn315 Zn 0.35704 0.95579 0.7534 0.0
O316 O 0.32641 0.9233 0.75936 0.0
C317 C 0.379 0.97853 0.72099 0.0
O318 O 0.39863 0.99085 0.73103 0.0
O319 O 0.35775 0.98294 0.76789 0.0
C320 C 0.31502 0.90596 0.74829 0.0
O321 O 0.32301 0.90939 0.73212 0.0
C322 C 0.39139 0.93747 0.75228 0.0
O323 O 0.37601 0.92259 0.74029 0.0
O324 O 0.35835 0.96298 0.72788 0.0
C325 C 0.08257 0.42888 0.79071 0.0
O326 O 0.07506 0.44467 0.7867 0.0
O327 O 0.12172 0.48656 0.76633 0.0
Zn328 Zn 0.12155 0.4542 0.76415 0.0
O329 O 0.15645 0.46078 0.76696 0.0
C330 C 0.1063 0.44954 0.72797 0.0
O331 O 0.11168 0.47276 0.72993 0.0
O332 O 0.10114 0.43005 0.78284 0.0
C333 C 0.17175 0.468 0.75436 0.0
O334 O 0.16483 0.47196 0.73907 0.0
C335 C 0.12679 0.49782 0.78088 0.0
O336 O 0.1312 0.48769 0.79445 0.0
O337 O 0.10869 0.43804 0.74084 0.0
C338 C 0.62749 0.67554 0.78508 0.0
O339 O 0.61116 0.65165 0.78389 0.0
O340 O 0.56598 0.64726 0.7695 0.0
Zn341 Zn 0.59255 0.68207 0.76362 0.0
O342 O 0.58161 0.70688 0.76922 0.0
C343 C 0.60468 0.66828 0.7307 0.0
O344 O 0.60459 0.65039 0.73995 0.0
O345 O 0.62332 0.69124 0.77738 0.0
C346 C 0.57322 0.71526 0.75754 0.0
O347 O 0.57085 0.70697 0.7415 0.0
C348 C 0.54552 0.64199 0.77675 0.0
O349 O 0.54107 0.65998 0.78078 0.0
O350 O 0.60031 0.68397 0.73817 0.0
C351 C 0.64978 0.69895 0.53831 0.0
O352 O 0.64136 0.71257 0.53119 0.0
O353 O 0.63147 0.73548 0.56573 0.0
Zn354 Zn 0.62096 0.69917 0.56743 0.0
O355 O 0.58663 0.67769 0.55754 0.0
C356 C 0.61896 0.70133 0.60501 0.0
O357 O 0.61636 0.72073 0.60183 0.0
O358 O 0.64409 0.69181 0.55398 0.0
C359 C 0.56708 0.67409 0.5654 0.0
O360 O 0.56916 0.68518 0.5804 0.0
C361 C 0.62105 0.74328 0.55522 0.0
O362 O 0.60332 0.72734 0.54491 0.0
O363 O 0.62127 0.68946 0.59234 0.0
C364 C 0.35549 0.93269 0.54191 0.0
O365 O 0.33334 0.91512 0.54692 0.0
O366 O 0.34015 0.88227 0.57094 0.0
Zn367 Zn 0.37427 0.91199 0.56793 0.0
O368 O 0.40016 0.90217 0.56359 0.0
C369 C 0.36669 0.93314 0.59884 0.0
O370 O 0.34349 0.92113 0.59341 0.0
O371 O 0.37482 0.93412 0.54876 0.0
C372 C 0.39868 0.88263 0.5701 0.0
O373 O 0.37898 0.86754 0.57934 0.0
C374 C 0.32926 0.86411 0.56044 0.0
O375 O 0.3408 0.86366 0.54621 0.0
O376 O 0.38336 0.93197 0.58997 0.0
C377 C 0.08499 0.4292 0.54046 0.0
O378 O 0.10085 0.4527 0.53698 0.0
O379 O 0.1453 0.43848 0.56712 0.0
Zn380 Zn 0.11495 0.44147 0.57108 0.0
O381 O 0.12478 0.47744 0.56831 0.0
C382 C 0.09922 0.41336 0.60386 0.0
O383 O 0.10034 0.39549 0.59544 0.0
O384 O 0.08729 0.41985 0.55459 0.0
C385 C 0.1453 0.49384 0.57491 0.0
O386 O 0.15966 0.48673 0.58259 0.0
C387 C 0.15107 0.43314 0.55252 0.0
O388 O 0.13595 0.42788 0.5392 0.0
O389 O 0.10405 0.43321 0.59586 0.0
C390 C 0.37945 0.44981 0.52511 0.0
O391 O 0.37411 0.46428 0.51575 0.0
O392 O 0.338 0.46801 0.54733 0.0
Zn393 Zn 0.37312 0.47677 0.55269 0.0
O394 O 0.39785 0.51075 0.54365 0.0
C395 C 0.36691 0.45946 0.58901 0.0
O396 O 0.34823 0.43838 0.58331 0.0
O397 O 0.37998 0.45166 0.54159 0.0
C398 C 0.40289 0.5297 0.55291 0.0
O399 O 0.39019 0.52665 0.56729 0.0
C400 C 0.32478 0.47192 0.55809 0.0
O401 O 0.33449 0.48264 0.57307 0.0
O402 O 0.37906 0.4772 0.57839 0.0
C403 C 0.63416 0.97252 0.54488 0.0
O404 O 0.61766 0.95208 0.53695 0.0
O405 O 0.62886 0.91624 0.5699 0.0
Zn406 Zn 0.61679 0.94031 0.57443 0.0
O407 O 0.58056 0.92507 0.56821 0.0
C408 C 0.63847 0.95136 0.60884 0.0
O409 O 0.6573 0.95142 0.60095 0.0
O410 O 0.63724 0.972 0.56119 0.0
C411 C 0.56503 0.90391 0.57449 0.0
O412 O 0.57323 0.89214 0.58428 0.0
C413 C 0.61997 0.89985 0.55798 0.0
O414 O 0.60261 0.89883 0.54764 0.0
O415 O 0.61958 0.94754 0.59999 0.0
C416 C 0.0929 0.69059 0.55652 0.0
O417 O 0.10985 0.71317 0.56129 0.0
O418 O 0.14731 0.7088 0.58134 0.0
Zn419 Zn 0.11653 0.67512 0.58228 0.0
O420 O 0.12574 0.64869 0.5788 0.0
C421 C 0.09632 0.68708 0.61163 0.0
O422 O 0.09989 0.70561 0.60144 0.0
O423 O 0.09225 0.67188 0.56384 0.0
C424 C 0.14563 0.65109 0.58536 0.0
O425 O 0.16022 0.67119 0.59443 0.0
C426 C 0.16336 0.71532 0.56926 0.0
O427 O 0.15969 0.69969 0.55652 0.0
O428 O 0.10148 0.67095 0.60596 0.0
C429 C 0.08249 0.68418 0.79771 0.0
O430 O 0.08366 0.66375 0.79974 0.0
O431 O 0.12366 0.66792 0.7772 0.0
Zn432 Zn 0.12066 0.69776 0.77082 0.0
O433 O 0.15365 0.72924 0.77368 0.0
C434 C 0.09495 0.67697 0.7375 0.0
O435 O 0.08741 0.65485 0.74425 0.0
O436 O 0.09634 0.70028 0.78652 0.0
C437 C 0.16842 0.73916 0.7609 0.0
O438 O 0.1625 0.72798 0.74568 0.0
C439 C 0.13198 0.65769 0.76697 0.0
O440 O 0.1393 0.66679 0.75124 0.0
O441 O 0.10874 0.69642 0.74633 0.0
C442 C 0.34442 0.40525 0.77575 0.0
O443 O 0.35058 0.42609 0.78405 0.0
O444 O 0.39092 0.46416 0.76051 0.0
Zn445 Zn 0.35854 0.43965 0.74907 0.0
O446 O 0.33229 0.44868 0.75449 0.0
C447 C 0.38004 0.46076 0.71638 0.0
O448 O 0.39294 0.48003 0.7266 0.0
O449 O 0.34676 0.40585 0.75929 0.0
C450 C 0.32253 0.45643 0.74339 0.0
O451 O 0.32964 0.45903 0.72704 0.0
C452 C 0.39341 0.48286 0.76902 0.0
O453 O 0.37407 0.48587 0.77112 0.0
O454 O 0.36367 0.44028 0.72308 0.0
C455 C 0.607 0.95738 0.79696 0.0
O456 O 0.58679 0.95907 0.79563 0.0
O457 O 0.55591 0.92682 0.76976 0.0
Zn458 Zn 0.58567 0.92232 0.76821 0.0
O459 O 0.57582 0.88654 0.77245 0.0
C460 C 0.59368 0.93887 0.73198 0.0
O461 O 0.57232 0.93827 0.73369 0.0
O462 O 0.61018 0.94313 0.78668 0.0
C463 C 0.57075 0.87128 0.75996 0.0
O464 O 0.5711 0.87883 0.74391 0.0
C465 C 0.53461 0.91212 0.76335 0.0
O466 O 0.53105 0.89228 0.75474 0.0
O467 O 0.60267 0.93315 0.74488 0.0
H468 H 0.1103 0.26446 0.12989 0.0
H469 H 0.13442 0.33774 0.10815 0.0
H470 H 0.17735 0.34535 0.10605 0.0
H471 H 0.16873 0.28148 0.1544 0.0
H472 H 0.16665 0.25209 0.14938 0.0
H473 H 0.13868 0.2539 0.15166 0.0
H474 H 0.12449 0.23476 0.12088 0.0
H475 H 0.1524 0.23301 0.11847 0.0
H476 H 0.14475 0.24948 0.10252 0.0
H477 H 0.21604 0.34286 0.10267 0.0
H478 H 0.24796 0.33065 0.09864 0.0
H479 H 0.19885 0.25914 0.12279 0.0
C480 C 0.12473 0.28238 0.12513 0.0
C481 C 0.11903 0.30054 0.11925 0.0
C482 C 0.13836 0.32356 0.11278 0.0
C483 C 0.16283 0.3281 0.11159 0.0
C484 C 0.16768 0.30951 0.11704 0.0
C485 C 0.14923 0.28718 0.12381 0.0
C486 C 0.15885 0.26944 0.12727 0.0
C487 C 0.15819 0.26391 0.14684 0.0
C488 C 0.14426 0.24526 0.11665 0.0
C489 C 0.18534 0.28495 0.12079 0.0
C490 C 0.19015 0.30812 0.11514 0.0
C491 C 0.21268 0.32496 0.10735 0.0
C492 C 0.23064 0.31782 0.10505 0.0
C493 C 0.22594 0.29401 0.11051 0.0
C494 C 0.20316 0.27762 0.11877 0.0
H495 H 0.81148 0.95636 0.09881 0.0
H496 H 0.85977 0.98429 0.14411 0.0
H497 H 0.85527 0.9427 0.14847 0.0
H498 H 0.76918 0.89666 0.11636 0.0
H499 H 0.76456 0.88049 0.09597 0.0
H500 H 0.77235 0.91264 0.09607 0.0
H501 H 0.81047 0.92414 0.07627 0.0
H502 H 0.80272 0.892 0.07602 0.0
H503 H 0.83323 0.91583 0.08295 0.0
H504 H 0.84511 0.89784 0.14791 0.0
H505 H 0.83008 0.85323 0.1425 0.0
H506 H 0.78775 0.85498 0.09799 0.0
C507 C 0.8213 0.95384 0.10959 0.0
C508 C 0.83606 0.97359 0.1211 0.0
C509 C 0.84839 0.96942 0.13512 0.0
C510 C 0.84594 0.94588 0.1377 0.0
C511 C 0.83104 0.92677 0.12618 0.0
C512 C 0.81894 0.93052 0.11241 0.0
C513 C 0.80364 0.90684 0.10209 0.0
C514 C 0.77579 0.89868 0.10267 0.0
C515 C 0.81309 0.90989 0.08322 0.0
C516 C 0.80898 0.88912 0.11222 0.0
C517 C 0.82488 0.90095 0.12603 0.0
C518 C 0.83263 0.88837 0.13714 0.0
C519 C 0.82399 0.86305 0.13397 0.0
C520 C 0.80768 0.85062 0.11987 0.0
C521 C 0.80006 0.8639 0.10895 0.0
H522 H 0.06806 0.87418 0.1162 0.0
H523 H 0.09751 0.83377 0.08797 0.0
H524 H 0.13775 0.87254 0.08482 0.0
H525 H 0.0982 0.92979 0.09076 0.0
H526 H 0.10454 0.95054 0.10894 0.0
H527 H 0.07806 0.91946 0.10956 0.0
H528 H 0.094 0.91091 0.1385 0.0
H529 H 0.12048 0.94202 0.13802 0.0
H530 H 0.1251 0.91559 0.13953 0.0
H531 H 0.1741 0.9154 0.08376 0.0
H532 H 0.20529 0.95998 0.08575 0.0
H533 H 0.15287 0.97306 0.11493 0.0
C534 C 0.08303 0.87344 0.10947 0.0
C535 C 0.07961 0.85091 0.10234 0.0
C536 C 0.09965 0.85078 0.09357 0.0
C537 C 0.1226 0.87271 0.09169 0.0
C538 C 0.12526 0.89461 0.09869 0.0
C539 C 0.10613 0.8952 0.10749 0.0
C540 C 0.11396 0.92136 0.11361 0.0
C541 C 0.09772 0.93084 0.10521 0.0
C542 C 0.11335 0.92253 0.1336 0.0
C543 C 0.14041 0.93536 0.10676 0.0
C544 C 0.14647 0.91952 0.09819 0.0
C545 C 0.16965 0.92801 0.0905 0.0
C546 C 0.18722 0.95341 0.09168 0.0
C547 C 0.18156 0.97005 0.10052 0.0
C548 C 0.15779 0.96082 0.10813 0.0
H549 H 0.22876 0.0747 0.88032 0.0
H550 H 0.29029 0.10452 0.9171 0.0
H551 H 0.29002 0.14407 0.91801 0.0
H552 H 0.24888 0.13162 0.85634 0.0
H553 H 0.21784 0.12649 0.85327 0.0
H554 H 0.22275 0.10031 0.85539 0.0
H555 H 0.1915 0.08344 0.8811 0.0
H556 H 0.18648 0.10954 0.87905 0.0
H557 H 0.19626 0.10323 0.89962 0.0
H558 H 0.28343 0.18016 0.91505 0.0
H559 H 0.27048 0.21091 0.9087 0.0
H560 H 0.21295 0.15803 0.87392 0.0
C561 C 0.24218 0.08955 0.88855 0.0
C562 C 0.25956 0.08651 0.89862 0.0
C563 C 0.27679 0.10639 0.90926 0.0
C564 C 0.27681 0.12895 0.90987 0.0
C565 C 0.25949 0.13135 0.89979 0.0
C566 C 0.24245 0.11224 0.88935 0.0
C567 C 0.22576 0.11976 0.8799 0.0
C568 C 0.22901 0.11953 0.86005 0.0
C569 C 0.19838 0.103 0.88524 0.0
C570 C 0.23611 0.14606 0.8867 0.0
C571 C 0.25558 0.15232 0.89812 0.0
C572 C 0.26821 0.17553 0.90613 0.0
C573 C 0.2607 0.19287 0.90241 0.0
C574 C 0.2407 0.1869 0.89079 0.0
C575 C 0.2283 0.16315 0.88284 0.0
H576 H 0.93103 0.1998 0.90952 0.0
H577 H 0.9588 0.19485 0.85861 0.0
H578 H 0.92139 0.15365 0.8541 0.0
H579 H 0.90643 0.13695 0.92133 0.0
H580 H 0.87947 0.1342 0.93229 0.0
H581 H 0.90762 0.16399 0.93107 0.0
H582 H 0.88329 0.18328 0.91676 0.0
H583 H 0.85499 0.15357 0.91803 0.0
H584 H 0.86523 0.16927 0.89736 0.0
H585 H 0.88257 0.11171 0.8561 0.0
H586 H 0.84386 0.073 0.86379 0.0
H587 H 0.84117 0.106 0.91306 0.0
C588 C 0.92913 0.19021 0.89732 0.0
C589 C 0.94783 0.20053 0.88441 0.0
C590 C 0.94467 0.18734 0.86867 0.0
C591 C 0.92351 0.16391 0.86599 0.0
C592 C 0.90564 0.15409 0.87912 0.0
C593 C 0.9081 0.16692 0.8944 0.0
C594 C 0.88653 0.15199 0.90663 0.0
C595 C 0.89556 0.14646 0.92384 0.0
C596 C 0.87163 0.16532 0.90988 0.0
C597 C 0.87174 0.12858 0.89595 0.0
C598 C 0.88306 0.13014 0.88013 0.0
C599 C 0.87338 0.11037 0.86837 0.0
C600 C 0.85146 0.08844 0.87288 0.0
C601 C 0.83947 0.08657 0.88897 0.0
C602 C 0.84976 0.10698 0.90058 0.0
H603 H 0.85904 0.80104 0.9002 0.0
H604 H 0.86863 0.84747 0.85519 0.0
H605 H 0.91078 0.85343 0.8506 0.0
H606 H 0.92244 0.8354 0.91587 0.0
H607 H 0.92269 0.80765 0.92255 0.0
H608 H 0.89394 0.80821 0.9226 0.0
H609 H 0.8738 0.76921 0.90265 0.0
H610 H 0.9025 0.76859 0.90247 0.0
H611 H 0.88844 0.76984 0.88221 0.0
H612 H 0.9517 0.85328 0.85072 0.0
H613 H 0.98753 0.84677 0.85539 0.0
H614 H 0.94978 0.79975 0.89997 0.0
C615 C 0.87002 0.81267 0.88945 0.0
C616 C 0.86058 0.82386 0.87808 0.0
C617 C 0.87552 0.83875 0.86409 0.0
C618 C 0.89947 0.84225 0.86139 0.0
C619 C 0.90808 0.8307 0.87278 0.0
C620 C 0.89377 0.81623 0.88653 0.0
C621 C 0.90683 0.80517 0.89662 0.0
C622 C 0.91177 0.81469 0.91552 0.0
C623 C 0.89201 0.77651 0.89593 0.0
C624 C 0.93073 0.81553 0.88635 0.0
C625 C 0.93125 0.83032 0.8727 0.0
C626 C 0.95151 0.84177 0.86139 0.0
C627 C 0.97175 0.83796 0.86414 0.0
C628 C 0.97142 0.82271 0.87801 0.0
C629 C 0.9506 0.81145 0.88921 0.0
H630 H 0.76641 0.57422 0.45509 0.0
H631 H 0.76669 0.6092 0.40597 0.0
H632 H 0.811 0.62239 0.40194 0.0
H633 H 0.82847 0.6203 0.46876 0.0
H634 H 0.83534 0.59772 0.47809 0.0
H635 H 0.80369 0.59148 0.47745 0.0
H636 H 0.79016 0.55016 0.46093 0.0
H637 H 0.82172 0.55621 0.46161 0.0
H638 H 0.80584 0.55074 0.44101 0.0
H639 H 0.85496 0.63169 0.40307 0.0
H640 H 0.8954 0.6344 0.40844 0.0
H641 H 0.86659 0.59281 0.45658 0.0
C642 C 0.7758 0.58469 0.44351 0.0
C643 C 0.7631 0.59072 0.43087 0.0
C644 C 0.77601 0.60432 0.41583 0.0
C645 C 0.80122 0.612 0.41345 0.0
C646 C 0.81321 0.60587 0.42618 0.0
C647 C 0.80095 0.5924 0.44086 0.0
C648 C 0.81805 0.58762 0.45227 0.0
C649 C 0.82159 0.60003 0.4702 0.0
C650 C 0.80836 0.55951 0.45405 0.0
C651 C 0.84177 0.60038 0.44163 0.0
C652 C 0.8386 0.61096 0.42672 0.0
C653 C 0.85771 0.62352 0.41472 0.0
C654 C 0.88063 0.62498 0.41791 0.0
C655 C 0.88417 0.61381 0.43293 0.0
C656 C 0.8645 0.6016 0.44501 0.0
H657 H 0.48008 0.29161 0.44285 0.0
H658 H 0.41176 0.27536 0.41623 0.0
H659 H 0.39735 0.23043 0.41779 0.0
H660 H 0.4885 0.24611 0.42151 0.0
H661 H 0.5004 0.23811 0.44036 0.0
H662 H 0.50453 0.26888 0.43838 0.0
H663 H 0.48301 0.26369 0.46827 0.0
H664 H 0.47881 0.23286 0.47035 0.0
H665 H 0.45233 0.23738 0.47186 0.0
H666 H 0.39156 0.18765 0.42045 0.0
H667 H 0.39488 0.14984 0.42399 0.0
H668 H 0.46677 0.19393 0.4491 0.0
C669 C 0.46196 0.27861 0.43753 0.0
C670 C 0.44703 0.28701 0.42945 0.0
C671 C 0.42352 0.26938 0.42251 0.0
C672 C 0.41513 0.2438 0.42337 0.0
C673 C 0.43041 0.23617 0.43127 0.0
C674 C 0.45329 0.25302 0.43827 0.0
C675 C 0.46659 0.24 0.44533 0.0
C676 C 0.49147 0.2488 0.43582 0.0
C677 C 0.4704 0.2437 0.46513 0.0
C678 C 0.44782 0.21324 0.44087 0.0
C679 C 0.42701 0.21143 0.43288 0.0
C680 C 0.40764 0.18877 0.42686 0.0
C681 C 0.40972 0.16742 0.4289 0.0
C682 C 0.43103 0.16892 0.43689 0.0
C683 C 0.45012 0.19212 0.44312 0.0
H684 H 0.83617 0.31949 0.4481 0.0
H685 H 0.88046 0.29633 0.41803 0.0
H686 H 0.84451 0.2538 0.41622 0.0
H687 H 0.80144 0.26203 0.47266 0.0
H688 H 0.77281 0.26286 0.47214 0.0
H689 H 0.80227 0.29149 0.47158 0.0
H690 H 0.78915 0.30416 0.44304 0.0
H691 H 0.75968 0.27555 0.44349 0.0
H692 H 0.77944 0.2834 0.42458 0.0
H693 H 0.80399 0.21424 0.41703 0.0
H694 H 0.76096 0.17965 0.42042 0.0
H695 H 0.74243 0.22807 0.44984 0.0
C696 C 0.83835 0.30543 0.44124 0.0
C697 C 0.86116 0.31126 0.43323 0.0
C698 C 0.86319 0.29236 0.42427 0.0
C699 C 0.84289 0.26811 0.42318 0.0
C700 C 0.82066 0.26303 0.4311 0.0
C701 C 0.81821 0.28108 0.43998 0.0
C702 C 0.79203 0.27068 0.44702 0.0
C703 C 0.79215 0.27183 0.46704 0.0
C704 C 0.77933 0.28426 0.43905 0.0
C705 C 0.78015 0.24403 0.4406 0.0
C706 C 0.79707 0.24005 0.43151 0.0
C707 C 0.79056 0.21706 0.42416 0.0
C708 C 0.76604 0.19754 0.42616 0.0
C709 C 0.74829 0.20112 0.4354 0.0
C710 C 0.75554 0.22472 0.44272 0.0
H711 H 0.91167 0.42854 0.25941 0.0
H712 H 0.87182 0.3909 0.21232 0.0
H713 H 0.87163 0.42903 0.20308 0.0
H714 H 0.88163 0.46523 0.26658 0.0
H715 H 0.9099 0.49217 0.27393 0.0
H716 H 0.90538 0.46141 0.27728 0.0
H717 H 0.94684 0.47431 0.26118 0.0
H718 H 0.95143 0.50506 0.25772 0.0
H719 H 0.95134 0.4868 0.23941 0.0
H720 H 0.87646 0.47155 0.19885 0.0
H721 H 0.8874 0.51577 0.19934 0.0
H722 H 0.92561 0.52571 0.24865 0.0
C723 C 0.9026 0.42819 0.24726 0.0
C724 C 0.89158 0.40674 0.23663 0.0
C725 C 0.88032 0.40716 0.22067 0.0
C726 C 0.88008 0.42868 0.21535 0.0
C727 C 0.89133 0.44961 0.22607 0.0
C728 C 0.90247 0.44956 0.24166 0.0
C729 C 0.91436 0.47483 0.25038 0.0
C730 C 0.90207 0.47331 0.26809 0.0
C731 C 0.94267 0.4859 0.25227 0.0
C732 C 0.90828 0.48916 0.23722 0.0
C733 C 0.89479 0.47425 0.22337 0.0
C734 C 0.88702 0.48341 0.20962 0.0
C735 C 0.8933 0.50852 0.21003 0.0
C736 C 0.90743 0.52417 0.22399 0.0
C737 C 0.91492 0.51425 0.23774 0.0
H738 H 0.63061 0.52359 0.20725 0.0
H739 H 0.65353 0.53802 0.26144 0.0
H740 H 0.62174 0.495 0.26904 0.0
H741 H 0.56573 0.48767 0.21605 0.0
H742 H 0.55896 0.46615 0.19832 0.0
H743 H 0.58488 0.49745 0.19676 0.0
H744 H 0.61456 0.48017 0.19083 0.0
H745 H 0.5887 0.44879 0.19237 0.0
H746 H 0.61567 0.45857 0.20603 0.0
H747 H 0.5872 0.4512 0.27102 0.0
H748 H 0.55001 0.40969 0.26762 0.0
H749 H 0.54794 0.42381 0.21237 0.0
C750 C 0.6291 0.51754 0.22065 0.0
C751 C 0.64458 0.53402 0.23375 0.0
C752 C 0.64181 0.52566 0.25122 0.0
C753 C 0.62391 0.50125 0.25565 0.0
C754 C 0.60879 0.4855 0.24249 0.0
C755 C 0.61102 0.49328 0.22537 0.0
C756 C 0.59132 0.47301 0.214 0.0
C757 C 0.57421 0.48159 0.20581 0.0
C758 C 0.60328 0.46464 0.19998 0.0
C759 C 0.57759 0.45277 0.22745 0.0
C760 C 0.58821 0.4603 0.24374 0.0
C761 C 0.57872 0.44503 0.25832 0.0
C762 C 0.5576 0.42147 0.25625 0.0
C763 C 0.54605 0.41352 0.23974 0.0
C764 C 0.55635 0.42936 0.22515 0.0
H765 H 0.53585 0.12264 0.20882 0.0
H766 H 0.48373 0.05013 0.23041 0.0
H767 H 0.51704 0.03944 0.23132 0.0
H768 H 0.57264 0.10224 0.18254 0.0
H769 H 0.60153 0.13033 0.18727 0.0
H770 H 0.57288 0.13108 0.18624 0.0
H771 H 0.58091 0.14978 0.21736 0.0
H772 H 0.60948 0.14901 0.21851 0.0
H773 H 0.58593 0.13356 0.23498 0.0
H774 H 0.55666 0.03833 0.2329 0.0
H775 H 0.59994 0.04683 0.23486 0.0
H776 H 0.62625 0.11995 0.21209 0.0
C777 C 0.53129 0.1043 0.21337 0.0
C778 C 0.50717 0.08718 0.21948 0.0
C779 C 0.50207 0.06353 0.22563 0.0
C780 C 0.52084 0.05725 0.22615 0.0
C781 C 0.54455 0.07476 0.22039 0.0
C782 C 0.54982 0.09775 0.21403 0.0
C783 C 0.57725 0.11392 0.20991 0.0
C784 C 0.58131 0.11973 0.19032 0.0
C785 C 0.58908 0.13798 0.22085 0.0
C786 C 0.58669 0.09668 0.21543 0.0
C787 C 0.56749 0.07409 0.22126 0.0
C788 C 0.57182 0.05579 0.22812 0.0
C789 C 0.59646 0.06082 0.22922 0.0
C790 C 0.61644 0.08399 0.22354 0.0
C791 C 0.61136 0.10193 0.2163 0.0
H792 H 0.40648 0.90586 0.73934 0.0
H793 H 0.42723 0.9667 0.77587 0.0
H794 H 0.46531 0.96563 0.78339 0.0
H795 H 0.42911 0.8722 0.76522 0.0
H796 H 0.44017 0.86292 0.74656 0.0
H797 H 0.41404 0.86787 0.74439 0.0
H798 H 0.43688 0.89974 0.71963 0.0
H799 H 0.46306 0.89489 0.72171 0.0
H800 H 0.46756 0.92587 0.72356 0.0
H801 H 0.50171 0.95924 0.78614 0.0
H802 H 0.53428 0.94766 0.78413 0.0
H803 H 0.48977 0.89056 0.74613 0.0
C804 C 0.41895 0.91887 0.74899 0.0
C805 C 0.41388 0.93636 0.75702 0.0
C806 C 0.43071 0.95311 0.76955 0.0
C807 C 0.45238 0.95264 0.77394 0.0
C808 C 0.45687 0.93526 0.76573 0.0
C809 C 0.44065 0.91863 0.75356 0.0
C810 C 0.45018 0.90218 0.74642 0.0
C811 C 0.43231 0.87466 0.75092 0.0
C812 C 0.45469 0.9059 0.72666 0.0
C813 C 0.47444 0.91237 0.75635 0.0
C814 C 0.47788 0.93141 0.76744 0.0
C815 C 0.49919 0.94426 0.77759 0.0
C816 C 0.51759 0.93757 0.77633 0.0
C817 C 0.51453 0.91817 0.76501 0.0
C818 C 0.49255 0.90531 0.75501 0.0
H819 H 0.12905 0.52858 0.75444 0.0
H820 H 0.1274 0.52205 0.81082 0.0
H821 H 0.12931 0.5627 0.8134 0.0
H822 H 0.17256 0.59469 0.75289 0.0
H823 H 0.15758 0.59996 0.73457 0.0
H824 H 0.15591 0.57027 0.73715 0.0
H825 H 0.10772 0.54796 0.7361 0.0
H826 H 0.10923 0.57756 0.73347 0.0
H827 H 0.09141 0.55717 0.75109 0.0
H828 H 0.12976 0.60318 0.8098 0.0
H829 H 0.13049 0.64162 0.80031 0.0
H830 H 0.1338 0.62257 0.74633 0.0
C831 C 0.12903 0.53566 0.76734 0.0
C832 C 0.12796 0.52212 0.78244 0.0
C833 C 0.12822 0.53213 0.79908 0.0
C834 C 0.12928 0.55518 0.80068 0.0
C835 C 0.13033 0.56805 0.78552 0.0
C836 C 0.13038 0.55874 0.76918 0.0
C837 C 0.13188 0.57639 0.75497 0.0
C838 C 0.15592 0.58589 0.74427 0.0
C839 C 0.10868 0.56403 0.74322 0.0
C840 C 0.13244 0.597 0.76588 0.0
C841 C 0.1314 0.59176 0.78347 0.0
C842 C 0.13078 0.60759 0.79608 0.0
C843 C 0.13115 0.62933 0.79056 0.0
C844 C 0.13238 0.63513 0.7726 0.0
C845 C 0.1332 0.61879 0.76015 0.0
H846 H 0.40695 0.52978 0.78034 0.0
H847 H 0.43656 0.48098 0.76898 0.0
H848 H 0.47917 0.51594 0.7738 0.0
H849 H 0.45061 0.57989 0.75753 0.0
H850 H 0.45291 0.60353 0.77234 0.0
H851 H 0.42463 0.57392 0.77129 0.0
H852 H 0.42722 0.56767 0.80445 0.0
H853 H 0.4555 0.59744 0.80565 0.0
H854 H 0.45509 0.5698 0.81344 0.0
H855 H 0.51828 0.55696 0.77548 0.0
H856 H 0.55123 0.60114 0.77425 0.0
H857 H 0.49625 0.62337 0.7845 0.0
C858 C 0.42233 0.52624 0.77939 0.0
C859 C 0.41845 0.50265 0.77436 0.0
C860 C 0.43911 0.49891 0.77288 0.0
C861 C 0.46337 0.51862 0.77566 0.0
C862 C 0.46661 0.54187 0.78003 0.0
C863 C 0.44665 0.54574 0.78204 0.0
C864 C 0.45526 0.57302 0.78497 0.0
C865 C 0.44527 0.58317 0.77068 0.0
C866 C 0.44783 0.57723 0.80321 0.0
C867 C 0.48315 0.58403 0.78354 0.0
C868 C 0.48932 0.56571 0.78097 0.0
C869 C 0.51374 0.57145 0.77782 0.0
C870 C 0.5323 0.5966 0.77706 0.0
C871 C 0.52629 0.61566 0.77935 0.0
C872 C 0.50146 0.60921 0.78297 0.0
H873 H 0.59806 0.76478 0.53779 0.0
H874 H 0.65883 0.78146 0.57345 0.0
H875 H 0.66793 0.82494 0.57557 0.0
H876 H 0.62756 0.82601 0.5156 0.0
H877 H 0.59852 0.82593 0.51406 0.0
H878 H 0.59866 0.79692 0.51371 0.0
H879 H 0.56796 0.78093 0.53977 0.0
H880 H 0.56776 0.80983 0.54022 0.0
H881 H 0.576 0.79904 0.55954 0.0
H882 H 0.66783 0.86517 0.57611 0.0
H883 H 0.65831 0.89932 0.57521 0.0
H884 H 0.59767 0.85649 0.53914 0.0
C885 C 0.6136 0.77768 0.54578 0.0
C886 C 0.62779 0.76976 0.5554 0.0
C887 C 0.64773 0.78713 0.56592 0.0
C888 C 0.65311 0.81189 0.56716 0.0
C889 C 0.63847 0.81899 0.55775 0.0
C890 C 0.61918 0.80243 0.5472 0.0
C891 C 0.60511 0.81427 0.53948 0.0
C892 C 0.60763 0.81588 0.51953 0.0
C893 C 0.57759 0.80018 0.5451 0.0
C894 C 0.61905 0.83984 0.54773 0.0
C895 C 0.6384 0.84227 0.55806 0.0
C896 C 0.65296 0.86364 0.56787 0.0
C897 C 0.64736 0.8829 0.56731 0.0
C898 C 0.62732 0.8806 0.55704 0.0
C899 C 0.61332 0.85894 0.54692 0.0
H900 H 0.20338 0.73426 0.54692 0.0
H901 H 0.17561 0.7517 0.59367 0.0
H902 H 0.21471 0.79185 0.59603 0.0
H903 H 0.26614 0.76002 0.56118 0.0
H904 H 0.27967 0.77223 0.54014 0.0
H905 H 0.24906 0.74517 0.5416 0.0
H906 H 0.23113 0.76728 0.52283 0.0
H907 H 0.26171 0.79439 0.52125 0.0
H908 H 0.23608 0.79732 0.52951 0.0
H909 H 0.25697 0.82917 0.59406 0.0
H910 H 0.29983 0.86214 0.58752 0.0
H911 H 0.30051 0.82091 0.54194 0.0
C912 C 0.20544 0.7466 0.55758 0.0
C913 C 0.18642 0.73983 0.57011 0.0
C914 C 0.1899 0.75646 0.58391 0.0
C915 C 0.21205 0.77933 0.58537 0.0
C916 C 0.2305 0.78531 0.57292 0.0
C917 C 0.22745 0.76954 0.55924 0.0
C918 C 0.25046 0.78036 0.54782 0.0
C919 C 0.26201 0.76344 0.54769 0.0
C920 C 0.24448 0.78512 0.52925 0.0
C921 C 0.26696 0.80458 0.55732 0.0
C922 C 0.25502 0.80703 0.57174 0.0
C923 C 0.26651 0.82755 0.58277 0.0
C924 C 0.2909 0.84615 0.57894 0.0
C925 C 0.30355 0.84413 0.5642 0.0
C926 C 0.29133 0.82303 0.55327 0.0
H927 H 0.29047 0.47455 0.5791 0.0
H928 H 0.29972 0.45085 0.52775 0.0
H929 H 0.25574 0.43692 0.521 0.0
H930 H 0.22809 0.42395 0.58656 0.0
H931 H 0.21827 0.44323 0.59761 0.0
H932 H 0.25042 0.4511 0.59845 0.0
H933 H 0.26393 0.49508 0.58624 0.0
H934 H 0.23185 0.48738 0.58543 0.0
H935 H 0.25073 0.49796 0.56604 0.0
H936 H 0.21091 0.42646 0.51964 0.0
H937 H 0.16878 0.42062 0.52377 0.0
H938 H 0.18913 0.45059 0.57615 0.0
C939 C 0.28329 0.46643 0.56642 0.0
C940 C 0.29854 0.46381 0.55395 0.0
C941 C 0.28838 0.45305 0.53753 0.0
C942 C 0.26341 0.44505 0.53357 0.0
C943 C 0.24888 0.44785 0.54619 0.0
C944 C 0.25844 0.45828 0.56228 0.0
C945 C 0.239 0.45945 0.5735 0.0
C946 C 0.23363 0.44347 0.59 0.0
C947 C 0.24685 0.48658 0.57806 0.0
C948 C 0.21706 0.44821 0.56115 0.0
C949 C 0.22307 0.4416 0.54548 0.0
C950 C 0.20593 0.43144 0.53189 0.0
C951 C 0.18207 0.4282 0.53436 0.0
C952 C 0.17563 0.43505 0.55029 0.0
C953 C 0.19337 0.44495 0.56387 0.0
H954 H 0.00037 0.29197 0.16258 0.0
H955 H 0.03684 0.35707 0.12914 0.0
H956 H 0.01595 0.37616 0.14508 0.0
H957 H 0.94219 0.28951 0.16444 0.0
H958 H 0.93615 0.27952 0.18684 0.0
H959 H 0.95524 0.27174 0.17359 0.0
H960 H 0.99107 0.29254 0.19611 0.0
H961 H 0.97204 0.30025 0.2095 0.0
H962 H 0.00235 0.32442 0.20249 0.0
H963 H 0.99015 0.38754 0.16423 0.0
H964 H 0.96106 0.39021 0.18491 0.0
H965 H 0.9408 0.317 0.20509 0.0
C966 C 0.00425 0.31039 0.15874 0.0
C967 C 0.02034 0.32312 0.14469 0.0
C968 C 0.02462 0.34702 0.1399 0.0
C969 C 0.01286 0.35801 0.14888 0.0
C970 C 0.99685 0.34479 0.16253 0.0
C971 C 0.99254 0.3215 0.16743 0.0
C972 C 0.97375 0.31074 0.18207 0.0
C973 C 0.95046 0.28645 0.17639 0.0
C974 C 0.98551 0.30677 0.19852 0.0
C975 C 0.96803 0.33155 0.18458 0.0
C976 C 0.98164 0.3511 0.17328 0.0
C977 C 0.97942 0.37237 0.17316 0.0
C978 C 0.96284 0.3737 0.18495 0.0
C979 C 0.94862 0.35379 0.19658 0.0
C980 C 0.95132 0.33249 0.19632 0.0
H981 H 0.74024 0.75236 0.16289 0.0
H982 H 0.70095 0.71211 0.11638 0.0
H983 H 0.67308 0.67567 0.13446 0.0
H984 H 0.74319 0.70459 0.18148 0.0
H985 H 0.73943 0.71148 0.20371 0.0
H986 H 0.75226 0.73602 0.18783 0.0
H987 H 0.71809 0.74709 0.19498 0.0
H988 H 0.70515 0.72255 0.21102 0.0
H989 H 0.68574 0.72325 0.1938 0.0
H990 H 0.65377 0.64177 0.15701 0.0
H991 H 0.64654 0.61305 0.18156 0.0
H992 H 0.69969 0.67538 0.21285 0.0
C993 C 0.72523 0.73621 0.15655 0.0
C994 C 0.72262 0.73511 0.13827 0.0
C995 C 0.70319 0.71337 0.13041 0.0
C996 C 0.68718 0.69264 0.14058 0.0
C997 C 0.69084 0.69402 0.15856 0.0
C998 C 0.70937 0.71533 0.16647 0.0
C999 C 0.71184 0.71106 0.18558 0.0
C1000 C 0.73823 0.71607 0.18988 0.0
C1001 C 0.70477 0.72693 0.19702 0.0
C1002 C 0.6927 0.6837 0.18701 0.0
C1003 C 0.68024 0.67431 0.17145 0.0
C1004 C 0.66308 0.64901 0.16934 0.0
C1005 C 0.65908 0.63284 0.18334 0.0
C1006 C 0.6726 0.64204 0.19905 0.0
C1007 C 0.68902 0.66786 0.201 0.0
H1008 H 0.31708 0.05927 0.12761 0.0
H1009 H 0.25839 -0.00133 0.15727 0.0
H1010 H 0.2893 0.00299 0.17938 0.0
H1011 H 0.36507 0.04364 0.13628 0.0
H1012 H 0.38941 0.07577 0.13778 0.0
H1013 H 0.36277 0.06724 0.12404 0.0
H1014 H 0.35409 0.09879 0.14029 0.0
H1015 H 0.38072 0.10747 0.15402 0.0
H1016 H 0.35054 0.09678 0.16365 0.0
H1017 H 0.32646 0.0152 0.19878 0.0
H1018 H 0.36685 0.03468 0.21418 0.0
H1019 H 0.4009 0.08677 0.17136 0.0
C1020 C 0.31067 0.04681 0.13871 0.0
C1021 C 0.28531 0.02864 0.14073 0.0
C1022 C 0.27774 0.01273 0.15546 0.0
C1023 C 0.29516 0.015 0.16805 0.0
C1024 C 0.32002 0.03316 0.16564 0.0
C1025 C 0.32775 0.04876 0.15132 0.0
C1026 C 0.3554 0.06717 0.15197 0.0
C1027 C 0.36896 0.0632 0.1366 0.0
C1028 C 0.36047 0.09414 0.15252 0.0
C1029 C 0.36199 0.05976 0.16904 0.0
C1030 C 0.34138 0.04003 0.1767 0.0
C1031 C 0.34276 0.03054 0.19285 0.0
C1032 C 0.36578 0.04173 0.20149 0.0
C1033 C 0.38704 0.0622 0.19394 0.0
C1034 C 0.38507 0.07103 0.17741 0.0
H1035 H 0.33013 0.01699 0.87573 0.0
H1036 H 0.33003 0.07962 0.85052 0.0
H1037 H 0.34703 0.07159 0.82379 0.0
H1038 H 0.38739 0.02419 0.8535 0.0
H1039 H 0.37412 0.99088 0.85218 0.0
H1040 H 0.36626 0.00438 0.87016 0.0
H1041 H 0.31941 0.97632 0.86292 0.0
H1042 H 0.32707 0.96296 0.84485 0.0
H1043 H 0.3084 0.9774 0.84137 0.0
H1044 H 0.35705 0.05236 0.79851 0.0
H1045 H 0.36173 0.02496 0.77729 0.0
H1046 H 0.35602 0.97562 0.8194 0.0
C1047 C 0.33435 0.02947 0.86477 0.0
C1048 C 0.32874 0.04889 0.86519 0.0
C1049 C 0.33431 0.06468 0.85052 0.0
C1050 C 0.34398 0.06028 0.83528 0.0
C1051 C 0.34834 0.0403 0.83506 0.0
C1052 C 0.34409 0.02542 0.84954 0.0
C1053 C 0.34815 0.00383 0.84554 0.0
C1054 C 0.37031 0.00596 0.85596 0.0
C1055 C 0.32434 0.97866 0.84886 0.0
C1056 C 0.35414 0.00818 0.82634 0.0
C1057 C 0.35448 0.02945 0.82055 0.0
C1058 C 0.35741 0.03598 0.80296 0.0
C1059 C 0.3599 0.02024 0.791 0.0
C1060 C 0.35937 0.99825 0.79673 0.0
C1061 C 0.35688 0.99249 0.81465 0.0
H1062 H 0.09058 0.39071 0.79911 0.0
H1063 H 0.04659 0.42461 0.81367 0.0
H1064 H 0.02724 0.39379 0.83747 0.0
H1065 H 0.04303 0.32698 0.80747 0.0
H1066 H 0.06496 0.3184 0.81564 0.0
H1067 H 0.07465 0.34273 0.79959 0.0
H1068 H 0.11031 0.37312 0.82001 0.0
H1069 H 0.10069 0.34893 0.83613 0.0
H1070 H 0.10302 0.37823 0.84182 0.0
H1071 H 0.01399 0.35998 0.86037 0.0
H1072 H 0.00709 0.32542 0.87995 0.0
H1073 H 0.0597 0.31399 0.84971 0.0
C1074 C 0.07681 0.39167 0.80723 0.0
C1075 C 0.07011 0.4101 0.80456 0.0
C1076 C 0.05196 0.41061 0.81547 0.0
C1077 C 0.0409 0.39321 0.82901 0.0
C1078 C 0.04813 0.37542 0.83135 0.0
C1079 C 0.06557 0.37447 0.82068 0.0
C1080 C 0.07036 0.35374 0.82593 0.0
C1081 C 0.06279 0.33431 0.81129 0.0
C1082 C 0.09771 0.36414 0.8313 0.0
C1083 C 0.0531 0.34327 0.84139 0.0
C1084 C 0.04039 0.35596 0.84433 0.0
C1085 C 0.02374 0.34984 0.85813 0.0
C1086 C 0.01999 0.33022 0.86919 0.0
C1087 C 0.03283 0.31698 0.86634 0.0
C1088 C 0.04952 0.32365 0.85221 0.0
H1089 H 0.66613 0.72317 0.78811 0.0
H1090 H 0.63815 0.64836 0.80822 0.0
H1091 H 0.67252 0.66471 0.82966 0.0
H1092 H 0.7333 0.74505 0.79443 0.0
H1093 H 0.73981 0.77581 0.80055 0.0
H1094 H 0.71506 0.75762 0.78539 0.0
H1095 H 0.68396 0.76268 0.80513 0.0
H1096 H 0.7085 0.78072 0.82037 0.0
H1097 H 0.6807 0.75322 0.82764 0.0
H1098 H 0.70672 0.69013 0.85121 0.0
H1099 H 0.73859 0.72227 0.87045 0.0
H1100 H 0.74405 0.77999 0.83563 0.0
C1101 C 0.66747 0.7101 0.79677 0.0
C1102 C 0.64947 0.6845 0.79652 0.0
C1103 C 0.65182 0.66805 0.80814 0.0
C1104 C 0.67128 0.67716 0.82035 0.0
C1105 C 0.68834 0.70266 0.82055 0.0
C1106 C 0.68675 0.71883 0.80892 0.0
C1107 C 0.70623 0.74559 0.81256 0.0
C1108 C 0.7247 0.75666 0.79733 0.0
C1109 C 0.69411 0.76147 0.81668 0.0
C1110 C 0.71848 0.74209 0.82847 0.0
C1111 C 0.70812 0.71721 0.83281 0.0
C1112 C 0.71527 0.70963 0.84777 0.0
C1113 C 0.7333 0.72801 0.85864 0.0
C1114 C 0.74386 0.75361 0.85449 0.0
C1115 C 0.73657 0.76058 0.83905 0.0
H1116 H 0.03434 0.77114 0.83498 0.0
H1117 H 0.00891 0.72357 0.8807 0.0
H1118 H 0.01752 0.69335 0.86584 0.0
H1119 H 0.01227 0.7203 0.80178 0.0
H1120 H 0.03945 0.73826 0.78846 0.0
H1121 H 0.02721 0.75383 0.80154 0.0
H1122 H 0.0704 0.78012 0.81618 0.0
H1123 H 0.08269 0.76456 0.80328 0.0
H1124 H 0.08478 0.7645 0.82671 0.0
H1125 H 0.03391 0.67107 0.84742 0.0
H1126 H 0.05707 0.65903 0.82713 0.0
H1127 H 0.07213 0.72176 0.79394 0.0
C1128 C 0.02991 0.75405 0.84171 0.0
C1129 C 0.02088 0.74966 0.85896 0.0
C1130 C 0.01577 0.72728 0.86743 0.0
C1131 C 0.02051 0.70995 0.85908 0.0
C1132 C 0.03018 0.71524 0.84224 0.0
C1133 C 0.03465 0.73668 0.83361 0.0
C1134 C 0.04741 0.73932 0.81633 0.0
C1135 C 0.03057 0.73783 0.80113 0.0
C1136 C 0.07282 0.76355 0.8156 0.0
C1137 C 0.05038 0.71658 0.8169 0.0
C1138 C 0.03993 0.70262 0.83177 0.0
C1139 C 0.04181 0.68163 0.8356 0.0
C1140 C 0.05503 0.67496 0.82403 0.0
C1141 C 0.06642 0.68947 0.80899 0.0
C1142 C 0.06358 0.71023 0.8053 0.0
H1143 H 0.33603 0.39856 0.81072 0.0
H1144 H 0.32692 0.35815 0.76254 0.0
H1145 H 0.30519 0.31833 0.77872 0.0
H1146 H 0.34575 0.35689 0.83922 0.0
H1147 H 0.3286 0.36036 0.8569 0.0
H1148 H 0.34513 0.38551 0.84168 0.0
H1149 H 0.30437 0.386 0.83512 0.0
H1150 H 0.28769 0.36079 0.85022 0.0
H1151 H 0.2772 0.35776 0.82798 0.0
H1152 H 0.28197 0.28293 0.80001 0.0
H1153 H 0.25974 0.25488 0.82468 0.0
H1154 H 0.2843 0.31911 0.85856 0.0
C1155 C 0.3298 0.38139 0.80356 0.0
C1156 C 0.33319 0.38144 0.78538 0.0
C1157 C 0.32458 0.35853 0.7765 0.0
C1158 C 0.31224 0.33584 0.78557 0.0
C1159 C 0.30882 0.33648 0.80348 0.0
C1160 C 0.31749 0.35869 0.81237 0.0
C1161 C 0.31052 0.35439 0.83144 0.0
C1162 C 0.33389 0.36491 0.84299 0.0
C1163 C 0.29396 0.36538 0.83647 0.0
C1164 C 0.29613 0.32626 0.83186 0.0
C1165 C 0.29547 0.31622 0.81565 0.0
C1166 C 0.28254 0.29058 0.81279 0.0
C1167 C 0.26993 0.27482 0.82687 0.0
C1168 C 0.27029 0.28481 0.84354 0.0
C1169 C 0.28372 0.31086 0.846 0.0
H1170 H 0.73009 0.99727 0.85133 0.0
H1171 H 0.7056 0.03381 0.88809 0.0
H1172 H 0.66924 0.02343 0.86928 0.0
H1173 H 0.7109 0.01521 0.81176 0.0
H1174 H 0.7011 0.98566 0.80134 0.0
H1175 H 0.72594 0.9976 0.81711 0.0
H1176 H 0.70198 0.95687 0.83507 0.0
H1177 H 0.67706 0.94483 0.81939 0.0
H1178 H 0.67058 0.94673 0.84206 0.0
H1179 H 0.63461 0.00732 0.84686 0.0
H1180 H 0.60418 0.98604 0.82316 0.0
H1181 H 0.65172 0.95971 0.80184 0.0
C1182 C 0.7173 0.00341 0.85536 0.0
C1183 C 0.72071 0.01646 0.87111 0.0
C1184 C 0.70334 0.02384 0.87602 0.0
C1185 C 0.68269 0.01808 0.86542 0.0
C1186 C 0.67977 0.00494 0.85003 0.0
C1187 C 0.69662 0.9977 0.84504 0.0
C1188 C 0.68872 0.98268 0.8284 0.0
C1189 C 0.7078 0.9961 0.81379 0.0
C1190 C 0.68432 0.95622 0.83142 0.0
C1191 C 0.6646 0.98233 0.82485 0.0
C1192 C 0.6598 0.99541 0.83736 0.0
C1193 C 0.63825 0.99713 0.83695 0.0
C1194 C 0.62108 0.98498 0.82345 0.0
C1195 C 0.62557 0.97119 0.81067 0.0
C1196 C 0.64774 0.97011 0.81138 0.0
H1197 H 0.77437 0.07757 0.1267 0.0
H1198 H 0.77646 0.01417 0.14887 0.0
H1199 H 0.75106 0.01394 0.17367 0.0
H1200 H 0.78072 0.10888 0.16635 0.0
H1201 H 0.75997 0.12015 0.16042 0.0
H1202 H 0.77678 0.11422 0.14378 0.0
H1203 H 0.73526 0.08439 0.12816 0.0
H1204 H 0.7183 0.09027 0.14476 0.0
H1205 H 0.71078 0.05876 0.14007 0.0
H1206 H 0.72748 0.02203 0.19681 0.0
H1207 H 0.70732 0.03794 0.21669 0.0
H1208 H 0.7207 0.09599 0.17933 0.0
C1209 C 0.76925 0.06345 0.13666 0.0
C1210 C 0.77737 0.04587 0.13583 0.0
C1211 C 0.77044 0.02782 0.14921 0.0
C1212 C 0.75598 0.0275 0.16334 0.0
C1213 C 0.74853 0.04528 0.16385 0.0
C1214 C 0.75486 0.06287 0.15085 0.0
C1215 C 0.74536 0.08054 0.15487 0.0
C1216 C 0.767 0.10754 0.15645 0.0
C1217 C 0.72629 0.07835 0.14115 0.0
C1218 C 0.73307 0.07039 0.1723 0.0
C1219 C 0.73496 0.04995 0.17721 0.0
C1220 C 0.7257 0.0379 0.19307 0.0
C1221 C 0.71433 0.0471 0.20427 0.0
C1222 C 0.7124 0.06817 0.19955 0.0
C1223 C 0.72174 0.07976 0.18328 0.0
H1224 H -0.00066 0.70478 0.11904 0.0
H1225 H 0.07 0.75409 0.14409 0.0
H1226 H 0.0607 0.7221 0.16662 0.0
H1227 H 0.96489 0.68463 0.15582 0.0
H1228 H 0.9447 0.65295 0.14885 0.0
H1229 H 0.95901 0.67737 0.13295 0.0
H1230 H 0.9784 0.65382 0.11763 0.0
H1231 H 0.96397 0.62913 0.13347 0.0
H1232 H 0.99715 0.64459 0.13002 0.0
H1233 H 0.04058 0.68794 0.18885 0.0
H1234 H 0.01172 0.65441 0.2086 0.0
H1235 H 0.95453 0.62754 0.16865 0.0
C1236 C 0.01321 0.70863 0.12898 0.0
C1237 C 0.03538 0.73191 0.12983 0.0
C1238 C 0.05293 0.73631 0.14314 0.0
C1239 C 0.04783 0.71823 0.15596 0.0
C1240 C 0.02532 0.69578 0.15509 0.0
C1241 C 0.00843 0.69083 0.14179 0.0
C1242 C 0.98448 0.66654 0.14473 0.0
C1243 C 0.96197 0.67064 0.14565 0.0
C1244 C 0.9808 0.64738 0.13062 0.0
C1245 C 0.98998 0.65919 0.16222 0.0
C1246 C 0.01377 0.67601 0.16787 0.0
C1247 C 0.02212 0.67435 0.1844 0.0
C1248 C 0.00556 0.6553 0.19555 0.0
C1249 C 0.98091 0.63832 0.19013 0.0
C1250 C 0.97336 0.63999 0.17309 0.0
H1251 H 0.32836 0.30701 0.14856 0.0
H1252 H 0.36453 0.33219 0.09829 0.0
H1253 H 0.40562 0.35199 0.11276 0.0
H1254 H 0.37271 0.36172 0.17362 0.0
H1255 H 0.37089 0.34332 0.19234 0.0
H1256 H 0.34439 0.33296 0.17813 0.0
H1257 H 0.34316 0.2909 0.17364 0.0
H1258 H 0.36963 0.30113 0.18781 0.0
H1259 H 0.37066 0.29094 0.16599 0.0
H1260 H 0.44279 0.36659 0.13259 0.0
H1261 H 0.47299 0.37437 0.15617 0.0
H1262 H 0.41211 0.33954 0.19324 0.0
C1263 C 0.34488 0.31696 0.14059 0.0
C1264 C 0.34324 0.31809 0.1223 0.0
C1265 C 0.36535 0.33111 0.11234 0.0
C1266 C 0.38877 0.34247 0.12044 0.0
C1267 C 0.38972 0.34073 0.13849 0.0
C1268 C 0.36835 0.32836 0.14844 0.0
C1269 C 0.37441 0.32803 0.16749 0.0
C1270 C 0.36505 0.34237 0.17855 0.0
C1271 C 0.36384 0.30115 0.17411 0.0
C1272 C 0.40253 0.34168 0.16667 0.0
C1273 C 0.41105 0.34907 0.14987 0.0
C1274 C 0.43635 0.3611 0.14583 0.0
C1275 C 0.45335 0.36541 0.1593 0.0
C1276 C 0.44493 0.3576 0.17655 0.0
C1277 C 0.41919 0.34589 0.18022 0.0
H1278 H 0.66115 0.70693 0.50357 0.0
H1279 H 0.66692 0.66805 0.54882 0.0
H1280 H 0.68295 0.64684 0.53019 0.0
H1281 H 0.63835 0.65747 0.47537 0.0
H1282 H 0.65514 0.67491 0.45639 0.0
H1283 H 0.64786 0.69004 0.47349 0.0
H1284 H 0.69458 0.72321 0.4766 0.0
H1285 H 0.70203 0.7083 0.45933 0.0
H1286 H 0.71708 0.71335 0.48023 0.0
H1287 H 0.69221 0.6254 0.50637 0.0
H1288 H 0.69659 0.607 0.47901 0.0
H1289 H 0.68584 0.6605 0.44932 0.0
C1290 C 0.6664 0.69447 0.50964 0.0
C1291 C 0.66277 0.68915 0.52764 0.0
C1292 C 0.66958 0.67247 0.53506 0.0
C1293 C 0.67875 0.66035 0.52459 0.0
C1294 C 0.68129 0.66536 0.5068 0.0
C1295 C 0.67566 0.68228 0.4994 0.0
C1296 C 0.67826 0.6829 0.47977 0.0
C1297 C 0.65343 0.6759 0.47074 0.0
C1298 C 0.69924 0.70846 0.47362 0.0
C1299 C 0.68522 0.66294 0.47725 0.0
C1300 C 0.68709 0.65322 0.49301 0.0
C1301 C 0.69131 0.63319 0.49396 0.0
C1302 C 0.69361 0.62277 0.47836 0.0
C1303 C 0.6917 0.63245 0.46208 0.0
C1304 C 0.6878 0.653 0.46158 0.0
H1305 H 0.42934 0.0586 0.48831 0.0
H1306 H 0.36222 0.03565 0.45798 0.0
H1307 H 0.33964 0.99827 0.47658 0.0
H1308 H 0.4219 -0.00108 0.4927 0.0
H1309 H 0.43417 0.00379 0.51454 0.0
H1310 H 0.44427 0.02985 0.49998 0.0
H1311 H 0.43081 0.05215 0.5224 0.0
H1312 H 0.42083 0.02621 0.53711 0.0
H1313 H 0.39936 0.03633 0.53062 0.0
H1314 H 0.32499 0.96247 0.49792 0.0
H1315 H 0.31983 0.93084 0.51977 0.0
H1316 H 0.39727 0.97703 0.53489 0.0
C1317 C 0.40978 0.04597 0.48575 0.0
C1318 C 0.39747 0.05008 0.4718 0.0
C1319 C 0.37198 0.03285 0.46867 0.0
C1320 C 0.359 0.01162 0.47916 0.0
C1321 C 0.37185 0.0079 0.49264 0.0
C1322 C 0.39668 0.02461 0.49593 0.0
C1323 C 0.40667 0.01567 0.51049 0.0
C1324 C 0.428 0.01183 0.50403 0.0
C1325 C 0.41489 0.03366 0.52608 0.0
C1326 C 0.38368 0.99115 0.51475 0.0
C1327 C 0.36368 0.98707 0.50448 0.0
C1328 C 0.3405 0.9655 0.50606 0.0
C1329 C 0.33776 0.94766 0.51848 0.0
C1330 C 0.35817 0.95143 0.52893 0.0
C1331 C 0.38135 0.97351 0.527 0.0
H1332 H -0.00241 0.40587 0.45847 0.0
H1333 H 0.95523 0.32803 0.4737 0.0
H1334 H 0.98439 0.33645 0.49812 0.0
H1335 H 0.05868 0.4148 0.46876 0.0
H1336 H 0.07025 0.44611 0.4766 0.0
H1337 H 0.04658 0.4336 0.45997 0.0
H1338 H 0.01813 0.44341 0.47913 0.0
H1339 H 0.04165 0.45587 0.49583 0.0
H1340 H 0.01066 0.43118 0.50098 0.0
H1341 H 0.01714 0.354 0.52172 0.0
H1342 H 0.05154 0.37904 0.54218 0.0
H1343 H 0.07236 0.44506 0.51098 0.0
C1344 C 0.9945 0.39051 0.46684 0.0
C1345 C 0.97412 0.36629 0.46419 0.0
C1346 C 0.97075 0.34674 0.47547 0.0
C1347 C 0.9872 0.35134 0.48937 0.0
C1348 C 0.00696 0.37552 0.49171 0.0
C1349 C 0.01073 0.39474 0.48069 0.0
C1350 C 0.03306 0.41914 0.48618 0.0
C1351 C 0.05334 0.42898 0.47204 0.0
C1352 C 0.02541 0.43853 0.49081 0.0
C1353 C 0.0411 0.41074 0.50217 0.0
C1354 C 0.02587 0.38553 0.50515 0.0
C1355 C 0.0293 0.37372 0.51945 0.0
C1356 C 0.04885 0.38811 0.53101 0.0
C1357 C 0.06467 0.41399 0.52815 0.0
C1358 C 0.06071 0.4253 0.51348 0.0
H1359 H 0.38407 0.44419 0.49013 0.0
H1360 H 0.38982 0.41642 0.54087 0.0
H1361 H 0.40281 0.38899 0.52674 0.0
H1362 H 0.36097 0.38533 0.46651 0.0
H1363 H 0.37868 0.40044 0.44721 0.0
H1364 H 0.36808 0.41656 0.46123 0.0
H1365 H 0.41345 0.45307 0.46433 0.0
H1366 H 0.42418 0.43706 0.45037 0.0
H1367 H 0.43732 0.44679 0.47183 0.0
H1368 H 0.41759 0.36661 0.50734 0.0
H1369 H 0.43316 0.35069 0.48395 0.0
H1370 H 0.4177 0.39304 0.44587 0.0
C1371 C 0.38775 0.43212 0.49827 0.0
C1372 C 0.38589 0.43241 0.5166 0.0
C1373 C 0.3911 0.41649 0.52679 0.0
C1374 C 0.39844 0.40081 0.51889 0.0
C1375 C 0.40038 0.40121 0.50081 0.0
C1376 C 0.39511 0.41638 0.49061 0.0
C1377 C 0.39972 0.41408 0.47152 0.0
C1378 C 0.37541 0.40347 0.461 0.0
C1379 C 0.41987 0.43924 0.46408 0.0
C1380 C 0.40886 0.3956 0.47261 0.0
C1381 C 0.40892 0.38828 0.4896 0.0
C1382 C 0.41743 0.37202 0.49396 0.0
C1383 C 0.42628 0.36313 0.48058 0.0
C1384 C 0.4266 0.37058 0.46308 0.0
C1385 C 0.41753 0.38685 0.45909 0.0
H1386 H 0.62948 0.98065 0.51039 0.0
H1387 H 0.67023 0.0178 0.55736 0.0
H1388 H 0.69197 0.05764 0.54134 0.0
H1389 H 0.68004 0.01671 0.47958 0.0
H1390 H 0.65926 0.01728 0.4634 0.0
H1391 H 0.64835 0.99137 0.47825 0.0
H1392 H 0.61233 0.99848 0.48793 0.0
H1393 H 0.62313 0.02439 0.47315 0.0
H1394 H 0.61944 0.02868 0.49596 0.0
H1395 H 0.70729 0.09389 0.52066 0.0
H1396 H 0.71482 0.12377 0.4969 0.0
H1397 H 0.66397 0.06261 0.46364 0.0
C1398 C 0.64319 0.99708 0.51727 0.0
C1399 C 0.64818 0.99611 0.53511 0.0
C1400 C 0.66612 0.01809 0.54367 0.0
C1401 C 0.67861 0.0408 0.53468 0.0
C1402 C 0.67302 0.04116 0.51715 0.0
C1403 C 0.6558 0.01986 0.50852 0.0
C1404 C 0.65229 0.02544 0.48989 0.0
C1405 C 0.66048 0.0119 0.47702 0.0
C1406 C 0.6252 0.01886 0.48655 0.0
C1407 C 0.66986 0.05329 0.48948 0.0
C1408 C 0.68181 0.062 0.50527 0.0
C1409 C 0.69821 0.08726 0.50818 0.0
C1410 C 0.70234 0.10408 0.49462 0.0
C1411 C 0.69002 0.09553 0.47841 0.0
C1412 C 0.6738 0.06975 0.47583 0.0
H1413 H 0.98615 0.61025 0.48821 0.0
H1414 H 0.0063 0.67916 0.46091 0.0
H1415 H 0.03635 0.70301 0.48422 0.0
H1416 H 0.99187 0.63441 0.53247 0.0
H1417 H 0.00487 0.61617 0.5408 0.0
H1418 H 0.9835 0.60477 0.52271 0.0
H1419 H 0.01614 0.60035 0.50431 0.0
H1420 H 0.03758 0.61174 0.52232 0.0
H1421 H 0.0468 0.62703 0.50145 0.0
H1422 H 0.06566 0.71911 0.50978 0.0
H1423 H 0.09297 0.72608 0.53514 0.0
H1424 H 0.0539 0.64643 0.54517 0.0
C1425 C 0.99662 0.63038 0.48723 0.0
C1426 C 0.99383 0.64287 0.47279 0.0
C1427 C 0.00814 0.66921 0.47188 0.0
C1428 C 0.02518 0.68293 0.48507 0.0
C1429 C 0.02766 0.67 0.49905 0.0
C1430 C 0.01379 0.64431 0.5002 0.0
C1431 C 0.02098 0.63478 0.51602 0.0
C1432 C -0.00101 0.62177 0.52875 0.0
C1433 C 0.03097 0.61746 0.5107 0.0
C1434 C 0.04138 0.65908 0.52343 0.0
C1435 C 0.04478 0.67921 0.51359 0.0
C1436 C 0.06307 0.70351 0.51766 0.0
C1437 C 0.07848 0.70727 0.53208 0.0
C1438 C 0.07558 0.6868 0.54211 0.0
C1439 C 0.05658 0.66248 0.53778 0.0
H1440 H 0.04103 0.25481 0.04464 0.0
H1441 H 0.04513 0.3263 0.05152 0.0
H1442 H 0.03541 0.3265 0.02027 0.0
H1443 H 0.06866 0.26652 0.00216 0.0
H1444 H 0.04845 0.23513 0.99463 0.0
H1445 H 0.05604 0.24099 0.01742 0.0
H1446 H 0.00901 0.21878 0.02502 0.0
H1447 H 0.00128 0.21296 0.00224 0.0
H1448 H 0.98954 0.22924 0.01503 0.0
H1449 H 0.02552 0.31879 0.98807 0.0
H1450 H 0.01614 0.30376 0.95765 0.0
H1451 H 0.01763 0.23694 0.97255 0.0
C1452 C 0.04004 0.27061 0.0396 0.0
C1453 C 0.04395 0.2906 0.05049 0.0
C1454 C 0.04224 0.31079 0.04338 0.0
C1455 C 0.03671 0.31106 0.02567 0.0
C1456 C 0.03282 0.29094 0.01532 0.0
C1457 C 0.03438 0.27109 0.02205 0.0
C1458 C 0.02915 0.25161 0.00829 0.0
C1459 C 0.05194 0.24839 0.00546 0.0
C1460 C 0.00586 0.22668 0.01292 0.0
C1461 C 0.02453 0.26365 0.9927 0.0
C1462 C 0.02675 0.28633 0.99698 0.0
C1463 C 0.02367 0.30102 0.98459 0.0
C1464 C 0.01834 0.29233 0.96736 0.0
C1465 C 0.01607 0.26914 0.96273 0.0
C1466 C 0.01907 0.25465 0.97566 0.0
H1467 H 0.80396 0.83089 0.96261 0.0
H1468 H 0.75907 0.7528 0.94857 0.0
H1469 H 0.74884 0.74198 0.97966 0.0
H1470 H 0.82938 0.82193 0.00173 0.0
H1471 H 0.82848 0.8468 0.01327 0.0
H1472 H 0.83177 0.8482 0.98993 0.0
H1473 H 0.79287 0.85325 0.98704 0.0
H1474 H 0.78939 0.85175 0.01038 0.0
H1475 H 0.76388 0.83038 0.99679 0.0
H1476 H 0.74458 0.73977 0.01246 0.0
H1477 H 0.74672 0.74633 0.04432 0.0
H1478 H 0.79376 0.82601 0.03636 0.0
C1479 C 0.79197 0.81149 0.96603 0.0
C1480 C 0.78235 0.79267 0.95318 0.0
C1481 C 0.76666 0.76753 0.95822 0.0
C1482 C 0.76072 0.76121 0.97582 0.0
C1483 C 0.77051 0.78028 0.98815 0.0
C1484 C 0.78577 0.8049 0.98346 0.0
C1485 C 0.79411 0.82188 -0.00082 0.0
C1486 C 0.82262 0.83549 0.00114 0.0
C1487 C 0.78448 0.8404 -0.00171 0.0
C1488 C 0.78136 0.80294 0.01351 0.0
C1489 C 0.7678 0.77905 0.00691 0.0
C1490 C 0.75502 0.75842 0.01776 0.0
C1491 C 0.75635 0.76233 0.03583 0.0
C1492 C 0.77032 0.78669 0.04282 0.0
C1493 C 0.78274 0.80719 0.03144 0.0
H1494 H 0.27969 0.00714 0.96268 0.0
H1495 H 0.33894 0.08437 0.96017 0.0
H1496 H 0.33916 0.08676 0.99225 0.0
H1497 H 0.24588 0.0147 0.99449 0.0
H1498 H 0.23613 0.98562 0.00558 0.0
H1499 H 0.24358 0.98841 0.98277 0.0
H1500 H 0.27614 0.97469 0.98851 0.0
H1501 H 0.2686 0.97157 0.01139 0.0
H1502 H 0.30036 0.99118 0.0044 0.0
H1503 H 0.32815 0.08291 0.02387 0.0
H1504 H 0.30838 0.07226 0.05292 0.0
H1505 H 0.257 0.9973 0.03491 0.0
C1506 C 0.29325 0.02435 0.96888 0.0
C1507 C 0.30931 0.04556 0.95891 0.0
C1508 C 0.32652 0.06783 0.96753 0.0
C1509 C 0.32681 0.06937 0.98576 0.0
C1510 C 0.31003 0.04838 0.99517 0.0
C1511 C 0.29382 0.02616 0.98704 0.0
C1512 C 0.27615 0.00704 -3e-05 0.0
C1513 C 0.24884 0.99846 0.99543 0.0
C1514 C 0.28059 0.9848 0.00114 0.0
C1515 C 0.28419 0.02233 0.01652 0.0
C1516 C 0.30394 0.04604 0.01352 0.0
C1517 C 0.31308 0.06423 0.02648 0.0
C1518 C 0.30164 0.05806 0.0429 0.0
C1519 C 0.2813 0.03391 0.04618 0.0
C1520 C 0.27282 0.01576 0.03288 0.0
H1521 H 0.03103 0.80283 0.9547 0.0
H1522 H 0.97749 0.72407 0.94844 0.0
H1523 H 0.97809 0.71822 0.98029 0.0
H1524 H 0.06719 0.79619 0.98885 0.0
H1525 H 0.07246 0.82396 7e-05 0.0
H1526 H 0.06818 0.82164 0.97679 0.0
H1527 H 0.03187 0.83076 0.97982 0.0
H1528 H 0.03604 0.83315 0.00308 0.0
H1529 H 0.00606 0.81155 0.99396 0.0
H1530 H 0.984 0.72143 0.01301 0.0
H1531 H 0.99432 0.73348 0.0439 0.0
H1532 H 0.04396 0.81009 0.02813 0.0
C1533 C 0.01947 0.78429 0.95996 0.0
C1534 C 0.00422 0.76389 0.94909 0.0
C1535 C 0.98933 0.73998 0.95654 0.0
C1536 C 0.98957 0.73646 0.9746 0.0
C1537 C 0.00482 0.75704 0.98493 0.0
C1538 C 0.01949 0.78048 0.97786 0.0
C1539 C 0.03386 0.79966 0.99175 0.0
C1540 C 0.0621 0.81102 0.98921 0.0
C1541 C 0.02651 0.81997 0.99217 0.0
C1542 C 0.02487 0.78342 0.00781 0.0
C1543 C 0.00821 0.75888 0.00364 0.0
C1544 C 0.9971 0.74057 0.01641 0.0
C1545 C 0.00308 0.7476 0.03391 0.0
C1546 C 0.01997 0.77272 0.03842 0.0
C1547 C 0.03106 0.79073 0.02513 0.0
H1548 H 0.27641 0.26845 0.03093 0.0
H1549 H 0.2977 0.34668 0.02996 0.0
H1550 H 0.29163 0.34422 -0.00201 0.0
H1551 H 0.30482 0.26734 0.98975 0.0
H1552 H 0.27976 0.23667 0.98426 0.0
H1553 H 0.28757 0.24533 0.00676 0.0
H1554 H 0.24197 0.23391 0.01294 0.0
H1555 H 0.23404 0.22533 0.99047 0.0
H1556 H 0.22812 0.2483 0.00024 0.0
H1557 H 0.28129 0.33231 0.96607 0.0
H1558 H 0.26728 0.31196 0.93728 0.0
H1559 H 0.25225 0.24165 0.96003 0.0
C1560 C 0.28015 0.28522 0.02402 0.0
C1561 C 0.28764 0.3078 0.03294 0.0
C1562 C 0.29203 0.32919 0.02338 0.0
C1563 C 0.28865 0.32797 0.00523 0.0
C1564 C 0.2809 0.30526 0.99689 0.0
C1565 C 0.27676 0.2843 0.00602 0.0
C1566 C 0.26745 0.26183 0.99426 0.0
C1567 C 0.28602 0.25224 0.99373 0.0
C1568 C 0.24135 0.24114 -0.00019 0.0
C1569 C 0.26668 0.27329 0.97707 0.0
C1570 C 0.27466 0.29838 0.97877 0.0
C1571 C 0.27512 0.3127 0.9646 0.0
C1572 C 0.26712 0.30099 0.94831 0.0
C1573 C 0.25864 0.27522 0.94642 0.0
C1574 C 0.25858 0.26136 0.96103 0.0
H1575 H 0.8176 0.05508 0.97415 0.0
H1576 H 0.73773 0.01964 0.96617 0.0
H1577 H 0.73113 0.0135 -0.00204 0.0
H1578 H 0.81597 0.01525 0.00709 0.0
H1579 H 0.84143 0.03923 0.01942 0.0
H1580 H 0.83989 0.0426 0.99625 0.0
H1581 H 0.84193 0.08503 0.00082 0.0
H1582 H 0.84362 0.08186 0.02405 0.0
H1583 H 0.81961 0.08674 0.01494 0.0
H1584 H 0.73331 0.00847 0.03054 0.0
H1585 H 0.74422 0.00626 0.06125 0.0
H1586 H 0.82263 0.04549 0.04742 0.0
C1587 C 0.79871 0.04631 0.97907 0.0
C1588 C 0.77818 0.03784 0.96768 0.0
C1589 C 0.75376 0.02637 0.97466 0.0
C1590 C 0.74982 0.02278 0.9927 0.0
C1591 C 0.7705 0.03097 0.00353 0.0
C1592 C 0.79447 0.04269 0.99697 0.0
C1593 C 0.8135 0.04898 0.01126 0.0
C1594 C 0.82857 0.03571 0.00832 0.0
C1595 C 0.83067 0.07734 0.01286 0.0
C1596 C 0.79648 0.03848 0.02685 0.0
C1597 C 0.77175 0.02827 0.02219 0.0
C1598 C 0.75263 0.01664 0.03437 0.0
C1599 C 0.759 0.01541 0.05176 0.0
C1600 C 0.78426 0.02574 0.05675 0.0
C1601 C 0.80314 0.03754 0.04408 0.0
H1602 H 0.7194 0.64229 0.29355 0.0
H1603 H 0.64049 0.61736 0.29018 0.0
H1604 H 0.63814 0.61763 0.32225 0.0
H1605 H 0.71552 0.60477 0.32661 0.0
H1606 H 0.74393 0.62652 0.33754 0.0
H1607 H 0.74072 0.62951 0.31456 0.0
H1608 H 0.75044 0.67498 0.31892 0.0
H1609 H 0.75394 0.67222 0.342 0.0
H1610 H 0.73232 0.68144 0.3342 0.0
H1611 H 0.64261 0.61278 0.35415 0.0
H1612 H 0.6541 0.60528 0.38342 0.0
H1613 H 0.73027 0.6344 0.36605 0.0
C1614 C 0.70179 0.63768 0.29953 0.0
C1615 C 0.68013 0.62981 0.28937 0.0
C1616 C 0.65736 0.62357 0.29769 0.0
C1617 C 0.65586 0.62372 0.31592 0.0
C1618 C 0.67736 0.63054 0.32558 0.0
C1619 C 0.7 0.63781 0.31766 0.0
C1620 C 0.71973 0.64172 0.33089 0.0
C1621 C 0.73059 0.6246 0.32717 0.0
C1622 C 0.74032 0.66923 0.33154 0.0
C1623 C 0.70433 0.63417 0.34738 0.0
C1624 C 0.68002 0.62814 0.34411 0.0
C1625 C 0.66173 0.61807 0.35697 0.0
C1626 C 0.66839 0.61375 0.37352 0.0
C1627 C 0.69311 0.61947 0.37702 0.0
C1628 C 0.71135 0.63035 0.36387 0.0
H1629 H 0.42526 0.12126 0.35991 0.0
H1630 H 0.4023 0.04809 0.3814 0.0
H1631 H 0.39932 0.03161 0.35165 0.0
H1632 H 0.3863 0.10003 0.32085 0.0
H1633 H 0.40987 0.12424 0.30746 0.0
H1634 H 0.4082 0.12965 0.33036 0.0
H1635 H 0.45435 0.14131 0.33404 0.0
H1636 H 0.45612 0.13584 0.3112 0.0
H1637 H 0.46393 0.11955 0.32719 0.0
H1638 H 0.40122 0.02378 0.31957 0.0
H1639 H 0.40803 0.02535 0.28774 0.0
H1640 H 0.43014 0.10382 0.28771 0.0
C1641 C 0.41923 0.10168 0.35838 0.0
C1642 C 0.41392 0.08594 0.37297 0.0
C1643 C 0.40641 0.06049 0.3704 0.0
C1644 C 0.40463 0.05094 0.35356 0.0
C1645 C 0.41037 0.06708 0.33947 0.0
C1646 C 0.41746 0.09189 0.34172 0.0
C1647 C 0.42385 0.10565 0.32453 0.0
C1648 C 0.40598 0.11546 0.32057 0.0
C1649 C 0.45118 0.12683 0.32423 0.0
C1650 C 0.41962 0.0848 0.31228 0.0
C1651 C 0.41167 0.06264 0.32109 0.0
C1652 C 0.40726 0.04098 0.31251 0.0
C1653 C 0.41121 0.04206 0.29445 0.0
C1654 C 0.4196 0.06469 0.28524 0.0
C1655 C 0.42364 0.08621 0.29434 0.0
H1656 H 0.91768 0.32571 0.36348 0.0
H1657 H 0.97822 0.40083 0.37311 0.0
H1658 H 0.98591 0.40721 0.34141 0.0
H1659 H 0.94464 0.31225 0.32451 0.0
H1660 H 0.91466 0.29561 0.31401 0.0
H1661 H 0.91678 0.29563 0.33744 0.0
H1662 H 0.88612 0.31246 0.33969 0.0
H1663 H 0.88402 0.31264 0.31634 0.0
H1664 H 0.89324 0.34084 0.32847 0.0
H1665 H 0.98416 0.40671 0.30858 0.0
H1666 H 0.97194 0.40007 0.27752 0.0
H1667 H 0.91143 0.32589 0.28977 0.0
C1668 C 0.93304 0.34326 0.35897 0.0
C1669 C 0.94754 0.36269 0.37074 0.0
C1670 C 0.967 0.38564 0.3643 0.0
C1671 C 0.97155 0.38939 0.34633 0.0
C1672 C 0.95645 0.37003 0.33503 0.0
C1673 C 0.93759 0.3474 0.34113 0.0
C1674 C 0.92227 0.33057 0.32634 0.0
C1675 C 0.92475 0.30713 0.32553 0.0
C1676 C 0.8948 0.32375 0.3278 0.0
C1677 C 0.93494 0.34753 0.31098 0.0
C1678 C 0.95492 0.37002 0.3162 0.0
C1679 C 0.96872 0.38906 0.30433 0.0
C1680 C 0.96165 0.38512 0.28672 0.0
C1681 C 0.94074 0.36248 0.28126 0.0
C1682 C 0.92754 0.34338 0.29355 0.0
H1683 H 0.65596 0.09857 0.37866 0.0
H1684 H 0.71428 0.08087 0.38864 0.0
H1685 H 0.71172 0.06736 0.35806 0.0
H1686 H 0.61989 0.04732 0.34741 0.0
H1687 H 0.61236 0.06664 0.33414 0.0
H1688 H 0.61671 0.07197 0.35728 0.0
H1689 H 0.65033 0.11799 0.35163 0.0
H1690 H 0.64613 0.11281 0.32852 0.0
H1691 H 0.67663 0.12478 0.33797 0.0
H1692 H 0.70619 0.06052 0.32568 0.0
H1693 H 0.69775 0.0604 0.2942 0.0
H1694 H 0.64254 0.08187 0.30574 0.0
C1695 C 0.66787 0.0914 0.37454 0.0
C1696 C 0.68531 0.09075 0.38605 0.0
C1697 C 0.70072 0.08147 0.38007 0.0
C1698 C 0.69936 0.07369 0.36273 0.0
C1699 C 0.68231 0.07509 0.35163 0.0
C1700 C 0.6667 0.08352 0.35734 0.0
C1701 C 0.65128 0.08489 0.34257 0.0
C1702 C 0.62341 0.06661 0.34553 0.0
C1703 C 0.65642 0.11171 0.34003 0.0
C1704 C 0.66123 0.07669 0.32753 0.0
C1705 C 0.67894 0.07087 0.33302 0.0
C1706 C 0.69205 0.06461 0.32126 0.0
C1707 C 0.68717 0.06465 0.30341 0.0
C1708 C 0.66937 0.07096 0.29753 0.0
C1709 C 0.65596 0.07656 0.30983 0.0
H1710 H 0.94879 0.65088 0.36052 0.0
H1711 H 0.00606 0.6358 0.37906 0.0
H1712 H 0.01756 0.63322 0.34864 0.0
H1713 H 0.92745 0.60767 0.32804 0.0
H1714 H 0.9209 0.62551 0.31255 0.0
H1715 H 0.92041 0.63105 0.33548 0.0
H1716 H 0.95296 0.67775 0.3311 0.0
H1717 H 0.95339 0.67242 0.30804 0.0
H1718 H 0.98199 0.68632 0.32034 0.0
H1719 H 0.01895 0.62669 0.31644 0.0
H1720 H 0.00988 0.61653 0.28519 0.0
H1721 H 0.95102 0.63493 0.28808 0.0
C1722 C 0.9643 0.64785 0.35821 0.0
C1723 C 0.97664 0.64371 0.37214 0.0
C1724 C 0.99642 0.63916 0.36856 0.0
C1725 C 0.00314 0.63773 0.35133 0.0
C1726 C 0.98996 0.64101 0.33787 0.0
C1727 C 0.97106 0.64615 0.34113 0.0
C1728 C 0.95793 0.64614 0.32453 0.0
C1729 C 0.93004 0.62642 0.3252 0.0
C1730 C 0.96181 0.67222 0.32078 0.0
C1731 C 0.97171 0.6392 0.3115 0.0
C1732 C 0.99044 0.63678 0.31936 0.0
C1733 C 0.00461 0.62893 0.31009 0.0
C1734 C -0.00072 0.62313 0.29236 0.0
C1735 C 0.97975 0.62493 0.28421 0.0
C1736 C 0.96615 0.63348 0.29391 0.0
H1737 H 0.44113 0.319 0.35133 0.0
H1738 H 0.43623 0.38406 0.36597 0.0
H1739 H 0.43496 0.3936 0.33483 0.0
H1740 H 0.4821 0.34656 0.31698 0.0
H1741 H 0.4686 0.31933 0.30324 0.0
H1742 H 0.46581 0.31587 0.32652 0.0
H1743 H 0.41776 0.2896 0.32372 0.0
H1744 H 0.42041 0.29292 0.30036 0.0
H1745 H 0.40123 0.3022 0.31214 0.0
H1746 H 0.43856 0.39829 0.30212 0.0
H1747 H 0.44695 0.39784 0.27067 0.0
H1748 H 0.44949 0.32967 0.27786 0.0
C1749 C 0.43926 0.33498 0.34804 0.0
C1750 C 0.43869 0.35074 0.36109 0.0
C1751 C 0.4366 0.37166 0.35619 0.0
C1752 C 0.4358 0.37719 0.33854 0.0
C1753 C 0.43696 0.36153 0.326 0.0
C1754 C 0.43851 0.34077 0.33055 0.0
C1755 C 0.4414 0.32797 0.31468 0.0
C1756 C 0.46593 0.32742 0.31541 0.0
C1757 C 0.41885 0.30161 0.31261 0.0
C1758 C 0.44197 0.34517 0.3005 0.0
C1759 C 0.43909 0.36426 0.30723 0.0
C1760 C 0.44049 0.38323 0.29668 0.0
C1761 C 0.44529 0.38284 0.27884 0.0
C1762 C 0.44879 0.36368 0.27179 0.0
C1763 C 0.44665 0.34444 0.28278 0.0
H1764 H 0.34214 0.95499 0.69673 0.0
H1765 H 0.4219 0.00437 0.70202 0.0
H1766 H 0.42694 0.00158 0.67035 0.0
H1767 H 0.34485 0.9145 0.6676 0.0
H1768 H 0.31816 0.90902 0.65485 0.0
H1769 H 0.32024 0.91784 0.67737 0.0
H1770 H 0.31512 0.95548 0.66878 0.0
H1771 H 0.31278 0.94664 0.64619 0.0
H1772 H 0.33587 0.97759 0.65293 0.0
H1773 H 0.42401 0.98852 0.63916 0.0
H1774 H 0.41297 0.96808 0.61033 0.0
H1775 H 0.33503 0.92816 0.62528 0.0
C1776 C 0.3606 0.96574 0.69118 0.0
C1777 C 0.38163 0.97992 0.70184 0.0
C1778 C 0.4055 0.99348 0.6941 0.0
C1779 C 0.40855 0.99203 0.67612 0.0
C1780 C 0.38751 0.97721 0.66607 0.0
C1781 C 0.36395 0.96459 0.67328 0.0
C1782 C 0.34462 0.94849 0.6599 0.0
C1783 C 0.3312 0.92084 0.66525 0.0
C1784 C 0.326 0.95761 0.65676 0.0
C1785 C 0.36113 0.95327 0.64418 0.0
C1786 C 0.38578 0.97004 0.64796 0.0
C1787 C 0.40472 0.97578 0.63593 0.0
C1788 C 0.39829 0.96398 0.61964 0.0
C1789 C 0.37314 0.94671 0.61555 0.0
C1790 C 0.35436 0.94162 0.62792 0.0
H1791 H 0.10389 0.47036 0.6971 0.0
H1792 H 0.09474 0.40195 0.71951 0.0
H1793 H 0.08784 0.38347 0.69012 0.0
H1794 H 0.05788 0.44102 0.66163 0.0
H1795 H 0.07674 0.46556 0.6465 0.0
H1796 H 0.07807 0.47225 0.66945 0.0
H1797 H 0.1259 0.4905 0.66908 0.0
H1798 H 0.1247 0.48381 0.64619 0.0
H1799 H 0.13839 0.47161 0.66114 0.0
H1800 H 0.08613 0.37403 0.65801 0.0
H1801 H 0.08958 0.37452 0.62588 0.0
H1802 H 0.09953 0.44901 0.6249 0.0
C1803 C 0.09994 0.45132 0.6959 0.0
C1804 C 0.09979 0.4376 0.71061 0.0
C1805 C 0.09488 0.41282 0.70842 0.0
C1806 C 0.09087 0.40213 0.69178 0.0
C1807 C 0.09167 0.41638 0.6775 0.0
C1808 C 0.09592 0.44038 0.67942 0.0
C1809 C 0.09754 0.45239 0.66195 0.0
C1810 C 0.07629 0.45813 0.65976 0.0
C1811 C 0.12315 0.47596 0.65945 0.0
C1812 C 0.09425 0.43165 0.6499 0.0
C1813 C 0.09063 0.41092 0.65907 0.0
C1814 C 0.0886 0.39002 0.65067 0.0
C1815 C 0.09062 0.39048 0.63243 0.0
C1816 C 0.09474 0.41174 0.62286 0.0
C1817 C 0.09615 0.43235 0.63178 0.0
H1818 H 0.60431 0.70215 0.70802 0.0
H1819 H 0.61432 0.63769 0.71034 0.0
H1820 H 0.62005 0.63967 0.67839 0.0
H1821 H 0.5694 0.68568 0.6687 0.0
H1822 H 0.58336 0.71726 0.66083 0.0
H1823 H 0.58097 0.71126 0.6839 0.0
H1824 H 0.6286 0.74055 0.68718 0.0
H1825 H 0.63115 0.74669 0.66411 0.0
H1826 H 0.64959 0.73507 0.67418 0.0
H1827 H 0.62353 0.64811 0.6461 0.0
H1828 H 0.62473 0.66241 0.61591 0.0
H1829 H 0.6124 0.72133 0.63502 0.0
C1830 C 0.60786 0.68851 0.70187 0.0
C1831 C 0.60891 0.66977 0.71168 0.0
C1832 C 0.61348 0.65223 0.70308 0.0
C1833 C 0.61676 0.65321 0.68495 0.0
C1834 C 0.61545 0.67185 0.67567 0.0
C1835 C 0.61116 0.6892 0.68384 0.0
C1836 C 0.61013 0.70707 0.67089 0.0
C1837 C 0.58443 0.70519 0.6711 0.0
C1838 C 0.63112 0.73394 0.6743 0.0
C1839 C 0.61436 0.69697 0.6541 0.0
C1840 C 0.61744 0.67669 0.65713 0.0
C1841 C 0.62124 0.66402 0.64358 0.0
C1842 C 0.62187 0.67229 0.62648 0.0
C1843 C 0.6187 0.69302 0.6231 0.0
C1844 C 0.61497 0.70549 0.63716 0.0
H1845 H 0.35069 0.4281 0.69082 0.0
H1846 H 0.41702 0.50018 0.69888 0.0
H1847 H 0.4217 0.50661 0.66713 0.0
H1848 H 0.37211 0.41142 0.65124 0.0
H1849 H 0.34177 0.39685 0.64119 0.0
H1850 H 0.34448 0.39706 0.66458 0.0
H1851 H 0.31736 0.4179 0.66722 0.0
H1852 H 0.31466 0.41787 0.64386 0.0
H1853 H 0.32658 0.44665 0.6558 0.0
H1854 H 0.4181 0.50648 0.63493 0.0
H1855 H 0.40674 0.4996 0.60388 0.0
H1856 H 0.34263 0.42759 0.61634 0.0
C1857 C 0.3664 0.44506 0.68589 0.0
C1858 C 0.38354 0.46361 0.69732 0.0
C1859 C 0.40366 0.48571 0.69038 0.0
C1860 C 0.40651 0.48953 0.67236 0.0
C1861 C 0.38912 0.47107 0.66146 0.0
C1862 C 0.3695 0.44924 0.66791 0.0
C1863 C 0.35287 0.4329 0.65331 0.0
C1864 C 0.35282 0.40809 0.65253 0.0
C1865 C 0.3263 0.42859 0.65516 0.0
C1866 C 0.36608 0.44915 0.63769 0.0
C1867 C 0.387 0.47101 0.64273 0.0
C1868 C 0.40188 0.48935 0.63078 0.0
C1869 C 0.39521 0.48527 0.61317 0.0
C1870 C 0.37382 0.46301 0.60765 0.0
C1871 C 0.35917 0.4447 0.62012 0.0
H1872 H 0.57553 0.94342 0.70053 0.0
H1873 H 0.6403 0.9466 0.72481 0.0
H1874 H 0.66039 0.95351 0.69598 0.0
H1875 H 0.57445 0.90921 0.66387 0.0
H1876 H 0.56459 0.92498 0.64888 0.0
H1877 H 0.5564 0.92278 0.67155 0.0
H1878 H 0.57692 0.97086 0.67322 0.0
H1879 H 0.58515 0.9732 0.65051 0.0
H1880 H 0.60891 0.99015 0.6666 0.0
H1881 H 0.67222 0.95731 0.66429 0.0
H1882 H 0.67443 0.95679 0.63215 0.0
H1883 H 0.60165 0.95065 0.62887 0.0
C1884 C 0.59411 0.94599 0.69985 0.0
C1885 C 0.6064 0.9446 0.71493 0.0
C1886 C 0.63055 0.94765 0.71342 0.0
C1887 C 0.64215 0.95165 0.69712 0.0
C1888 C 0.62936 0.95258 0.68248 0.0
C1889 C 0.60588 0.94985 0.6837 0.0
C1890 C 0.59546 0.95001 0.66591 0.0
C1891 C 0.57131 0.92527 0.66235 0.0
C1892 C 0.59138 0.97239 0.66395 0.0
C1893 C 0.61656 0.9528 0.65447 0.0
C1894 C 0.63605 0.9545 0.66425 0.0
C1895 C 0.65717 0.95621 0.65649 0.0
C1896 C 0.65824 0.95589 0.63823 0.0
C1897 C 0.63824 0.95372 0.62799 0.0
C1898 C 0.61733 0.95248 0.6363 0.0
H1899 H 0.08677 0.6454 0.71024 0.0
H1900 H 0.09085 0.71524 0.72385 0.0
H1901 H 0.08532 0.72231 0.69293 0.0
H1902 H 0.1235 0.66785 0.67365 0.0
H1903 H 0.10694 0.63991 0.66079 0.0
H1904 H 0.10639 0.6379 0.68416 0.0
H1905 H 0.05813 0.61456 0.68378 0.0
H1906 H 0.05853 0.61645 0.66033 0.0
H1907 H 0.04224 0.62839 0.6729 0.0
H1908 H 0.08412 0.72418 0.66059 0.0
H1909 H 0.08981 0.72198 0.62897 0.0
H1910 H 0.08819 0.65169 0.63619 0.0
C1911 C 0.0857 0.66176 0.70673 0.0
C1912 C 0.0889 0.67964 0.71937 0.0
C1913 C 0.08828 0.70128 0.71431 0.0
C1914 C 0.085 0.70537 0.69681 0.0
C1915 C 0.0825 0.68769 0.68456 0.0
C1916 C 0.08286 0.66633 0.68927 0.0
C1917 C 0.08292 0.65188 0.67338 0.0
C1918 C 0.10633 0.64925 0.67298 0.0
C1919 C 0.05903 0.6263 0.67255 0.0
C1920 C 0.08343 0.66891 0.65904 0.0
C1921 C 0.08261 0.68917 0.66576 0.0
C1922 C 0.08442 0.70823 0.65514 0.0
C1923 C 0.08769 0.70683 0.63719 0.0
C1924 C 0.08945 0.68668 0.63011 0.0
C1925 C 0.08672 0.66725 0.64118 0.0
H1926 H 0.87671 0.13044 0.08847 0.0
H1927 H 0.90531 0.08995 0.11746 0.0
H1928 H 0.94505 0.12927 0.12202 0.0
H1929 H 0.93368 0.1728 0.06686 0.0
H1930 H 0.92822 0.19871 0.06826 0.0
H1931 H 0.90227 0.16735 0.06729 0.0
H1932 H 0.88476 0.17475 0.09594 0.0
H1933 H 0.91068 0.20611 0.09702 0.0
H1934 H 0.90417 0.18516 0.1151 0.0
H1935 H 0.98187 0.17334 0.12315 0.0
H1936 H 0.01243 0.21839 0.12096 0.0
H1937 H 0.9588 0.22931 0.09159 0.0
C1938 C 0.89131 0.12975 0.09575 0.0
C1939 C 0.88793 0.10712 0.10258 0.0
C1940 C 0.9075 0.1071 0.1121 0.0
C1941 C 0.93013 0.12932 0.11475 0.0
C1942 C 0.93278 0.15133 0.10785 0.0
C1943 C 0.91387 0.15167 0.09857 0.0
C1944 C 0.92124 0.1777 0.09257 0.0
C1945 C 0.92136 0.17922 0.07256 0.0
C1946 C 0.9042 0.18644 0.10065 0.0
C1947 C 0.94731 0.19202 0.09992 0.0
C1948 C 0.9537 0.17653 0.10866 0.0
C1949 C 0.97703 0.18563 0.11637 0.0
C1950 C 0.99425 0.21123 0.11505 0.0
C1951 C 0.98797 0.22737 0.10615 0.0
C1952 C 0.96415 0.21752 0.09856 0.0
H1953 H 0.95975 0.81179 0.07491 0.0
H1954 H 0.95129 0.76497 0.11946 0.0
H1955 H 0.90979 0.75975 0.12524 0.0
H1956 H 0.92816 0.84251 0.09404 0.0
H1957 H 0.91394 0.84303 0.07368 0.0
H1958 H 0.94356 0.84421 0.07373 0.0
H1959 H 0.92542 0.80556 0.05349 0.0
H1960 H 0.89571 0.80415 0.05347 0.0
H1961 H 0.8978 0.77734 0.06007 0.0
H1962 H 0.86809 0.75746 0.12501 0.0
H1963 H 0.8301 0.75991 0.11956 0.0
H1964 H 0.86628 0.80857 0.07538 0.0
C1965 C 0.94934 0.80069 0.08602 0.0
C1966 C 0.95878 0.78879 0.09673 0.0
C1967 C 0.94447 0.77432 0.11108 0.0
C1968 C 0.92086 0.77121 0.11447 0.0
C1969 C 0.91193 0.78283 0.10345 0.0
C1970 C 0.9258 0.79744 0.08961 0.0
C1971 C 0.91168 0.80736 0.07947 0.0
C1972 C 0.92514 0.83598 0.08029 0.0
C1973 C 0.9074 0.79803 0.06051 0.0
C1974 C 0.88755 0.79574 0.08962 0.0
C1975 C 0.88804 0.78168 0.10342 0.0
C1976 C 0.86756 0.76859 0.11433 0.0
C1977 C 0.84605 0.77002 0.11109 0.0
C1978 C 0.84525 0.78447 0.09707 0.0
C1979 C 0.86634 0.79748 0.08626 0.0
H1980 H 0.25464 0.1109 0.10408 0.0
H1981 H 0.18814 0.07011 0.07248 0.0
H1982 H 0.18462 0.10797 0.0701 0.0
H1983 H 0.23548 0.15118 0.12693 0.0
H1984 H 0.26655 0.17771 0.12633 0.0
H1985 H 0.26202 0.14666 0.12734 0.0
H1986 H 0.28881 0.15542 0.09951 0.0
H1987 H 0.29333 0.18639 0.09836 0.0
H1988 H 0.2804 0.16567 0.07999 0.0
H1989 H 0.19053 0.15109 0.06894 0.0
H1990 H 0.20561 0.19625 0.06881 0.0
H1991 H 0.26858 0.20891 0.10087 0.0
C1992 C 0.239 0.10974 0.09699 0.0
C1993 C 0.22157 0.0875 0.08855 0.0
C1994 C 0.20166 0.08692 0.0791 0.0
C1995 C 0.19947 0.10831 0.07772 0.0
C1996 C 0.21729 0.13009 0.08589 0.0
C1997 C 0.23663 0.13093 0.09539 0.0
C1998 C 0.25441 0.15708 0.10177 0.0
C1999 C 0.25461 0.15821 0.12178 0.0
C2000 C 0.28078 0.16669 0.09446 0.0
C2001 C 0.24241 0.17095 0.09399 0.0
C2002 C 0.22086 0.15501 0.08506 0.0
C2003 C 0.20721 0.16371 0.07606 0.0
C2004 C 0.21597 0.18941 0.07604 0.0
C2005 C 0.23825 0.20613 0.08486 0.0
C2006 C 0.25138 0.19662 0.09413 0.0
H2007 H 0.18304 0.97144 0.92968 0.0
H2008 H 0.21728 0.96353 0.88258 0.0
H2009 H 0.17781 0.92581 0.87481 0.0
H2010 H 0.14749 0.9068 0.93967 0.0
H2011 H 0.12092 0.90828 0.94762 0.0
H2012 H 0.15158 0.93523 0.94914 0.0
H2013 H 0.13639 0.96134 0.93219 0.0
H2014 H 0.10567 0.93443 0.93061 0.0
H2015 H 0.12193 0.95075 0.91115 0.0
H2016 H 0.13509 0.88826 0.8726 0.0
H2017 H 0.09214 0.85328 0.87626 0.0
H2018 H 0.08584 0.88584 0.92475 0.0
C2019 C 0.18222 0.96188 0.91768 0.0
C2020 C 0.20325 0.97046 0.90674 0.0
C2021 C 0.20141 0.95732 0.89118 0.0
C2022 C 0.17907 0.93589 0.88663 0.0
C2023 C 0.15873 0.92789 0.89774 0.0
C2024 C 0.16008 0.94047 0.91294 0.0
C2025 C 0.1357 0.9276 0.92282 0.0
C2026 C 0.13914 0.91897 0.94088 0.0
C2027 C 0.12425 0.94454 0.92427 0.0
C2028 C 0.12051 0.9057 0.91088 0.0
C2029 C 0.1341 0.90625 0.89646 0.0
C2030 C 0.12421 0.88767 0.88379 0.0
C2031 C 0.0998 0.86788 0.886 0.0
C2032 C 0.08561 0.86684 0.90077 0.0
C2033 C 0.09613 0.88615 0.91326 0.0
H2034 H 0.16825 0.25676 0.89002 0.0
H2035 H 0.14311 0.18165 0.90845 0.0
H2036 H 0.09995 0.17382 0.90992 0.0
H2037 H 0.13051 0.26858 0.91789 0.0
H2038 H 0.12446 0.28668 0.90231 0.0
H2039 H 0.15281 0.2855 0.90095 0.0
H2040 H 0.14246 0.27002 0.86903 0.0
H2041 H 0.11408 0.27124 0.87026 0.0
H2042 H 0.11303 0.24266 0.86411 0.0
H2043 H 0.06003 0.17497 0.91078 0.0
H2044 H 0.02653 0.18541 0.91204 0.0
H2045 H 0.07827 0.26031 0.89398 0.0
C2046 C 0.15361 0.2385 0.89407 0.0
C2047 C 0.15896 0.21973 0.899 0.0
C2048 C 0.13938 0.19627 0.90457 0.0
C2049 C 0.11482 0.19163 0.90539 0.0
C2050 C 0.11024 0.21069 0.90067 0.0
C2051 C 0.1291 0.23367 0.89515 0.0
C2052 C 0.11958 0.25155 0.89196 0.0
C2053 C 0.13261 0.27442 0.904 0.0
C2054 C 0.12246 0.25932 0.87269 0.0
C2055 C 0.09247 0.23516 0.89682 0.0
C2056 C 0.08739 0.21156 0.90159 0.0
C2057 C 0.06375 0.19334 0.90698 0.0
C2058 C 0.04485 0.19946 0.90765 0.0
C2059 C 0.04979 0.22368 0.90314 0.0
C2060 C 0.0739 0.24163 0.89751 0.0
H2061 H 0.81862 0.89682 0.9001 0.0
H2062 H 0.74453 0.83377 0.89121 0.0
H2063 H 0.7271 0.86176 0.89247 0.0
H2064 H 0.80108 0.9278 0.93061 0.0
H2065 H 0.82263 0.95875 0.92292 0.0
H2066 H 0.82972 0.93412 0.92022 0.0
H2067 H 0.83495 0.9424 0.88696 0.0
H2068 H 0.82801 0.96719 0.88957 0.0
H2069 H 0.80999 0.94202 0.87465 0.0
H2070 H 0.71723 0.89578 0.89665 0.0
H2071 H 0.71581 0.93424 0.90221 0.0
H2072 H 0.79629 0.97545 0.90783 0.0
C2073 C 0.79878 0.88894 0.8982 0.0
C2074 C 0.78296 0.86309 0.89557 0.0
C2075 C 0.75706 0.85351 0.89324 0.0
C2076 C 0.74695 0.86925 0.89392 0.0
C2077 C 0.76299 0.89454 0.89683 0.0
C2078 C 0.78836 0.9044 0.89878 0.0
C2079 C 0.80134 0.93218 0.90223 0.0
C2080 C 0.81446 0.93857 0.92005 0.0
C2081 C 0.81965 0.94681 0.88747 0.0
C2082 C 0.77922 0.93627 0.90219 0.0
C2083 C 0.75729 0.91431 0.89903 0.0
C2084 C 0.73429 0.91316 0.89898 0.0
C2085 C 0.73368 0.93508 0.90222 0.0
C2086 C 0.75593 0.95784 0.9054 0.0
C2087 C 0.77898 0.95838 0.9053 0.0
H2088 H 0.52845 0.4197 0.42836 0.0
H2089 H 0.54433 0.37658 0.39128 0.0
H2090 H 0.58865 0.40948 0.39108 0.0
H2091 H 0.56661 0.47762 0.4094 0.0
H2092 H 0.57669 0.49456 0.42964 0.0
H2093 H 0.54695 0.46642 0.42841 0.0
H2094 H 0.55942 0.44763 0.45402 0.0
H2095 H 0.58925 0.4758 0.45537 0.0
H2096 H 0.58767 0.44616 0.4526 0.0
H2097 H 0.63041 0.44877 0.39294 0.0
H2098 H 0.66615 0.49136 0.39657 0.0
H2099 H 0.62264 0.5085 0.43242 0.0
C2100 C 0.5413 0.41692 0.42043 0.0
C2101 C 0.53293 0.39552 0.40987 0.0
C2102 C 0.55032 0.39278 0.39952 0.0
C2103 C 0.57554 0.41134 0.39935 0.0
C2104 C 0.58307 0.43242 0.40967 0.0
C2105 C 0.56646 0.43523 0.42008 0.0
C2106 C 0.57888 0.46034 0.42906 0.0
C2107 C 0.56655 0.47563 0.4238 0.0
C2108 C 0.5788 0.45729 0.44895 0.0
C2109 C 0.60493 0.4715 0.42172 0.0
C2110 C 0.60707 0.45504 0.41071 0.0
C2111 C 0.62904 0.46171 0.4017 0.0
C2112 C 0.64923 0.48596 0.40383 0.0
C2113 C 0.64724 0.50326 0.41482 0.0
C2114 C 0.62487 0.49568 0.42405 0.0
H2115 H 0.61478 0.14679 0.40054 0.0
H2116 H 0.62364 0.13926 0.45595 0.0
H2117 H 0.58302 0.13619 0.4615 0.0
H2118 H 0.58195 0.18281 0.40473 0.0
H2119 H 0.56189 0.16704 0.38647 0.0
H2120 H 0.59298 0.17166 0.38709 0.0
H2121 H 0.575 0.12415 0.38317 0.0
H2122 H 0.54391 0.11936 0.38267 0.0
H2123 H 0.55194 0.10283 0.39831 0.0
H2124 H 0.53965 0.12925 0.46072 0.0
H2125 H 0.49714 0.12042 0.45373 0.0
H2126 H 0.51672 0.13294 0.39889 0.0
C2127 C 0.60847 0.14507 0.41389 0.0
C2128 C 0.62242 0.14332 0.42781 0.0
C2129 C 0.61331 0.14071 0.44506 0.0
C2130 C 0.59027 0.13898 0.44836 0.0
C2131 C 0.57667 0.14009 0.43429 0.0
C2132 C 0.58552 0.14332 0.41741 0.0
C2133 C 0.56656 0.14232 0.40451 0.0
C2134 C 0.57644 0.16745 0.39515 0.0
C2135 C 0.55891 0.12089 0.3914 0.0
C2136 C 0.54539 0.13728 0.41672 0.0
C2137 C 0.55167 0.13626 0.43386 0.0
C2138 C 0.53464 0.13037 0.44738 0.0
C2139 C 0.51051 0.12528 0.44327 0.0
C2140 C 0.50366 0.1261 0.42578 0.0
C2141 C 0.52148 0.13247 0.41241 0.0
H2142 H 0.93516 0.44714 0.43325 0.0
H2143 H 0.87182 0.40754 0.39865 0.0
H2144 H 0.86715 0.44478 0.39706 0.0
H2145 H 0.91189 0.48341 0.45655 0.0
H2146 H 0.94241 0.5107 0.45778 0.0
H2147 H 0.93915 0.48013 0.45761 0.0
H2148 H 0.96866 0.49265 0.43096 0.0
H2149 H 0.97194 0.52317 0.43099 0.0
H2150 H 0.96144 0.50428 0.4116 0.0
H2151 H 0.87154 0.48724 0.39729 0.0
H2152 H 0.88459 0.53186 0.39933 0.0
H2153 H 0.94515 0.54371 0.43375 0.0
C2154 C 0.92001 0.44611 0.42559 0.0
C2155 C 0.9038 0.42439 0.41611 0.0
C2156 C 0.88444 0.42395 0.40605 0.0
C2157 C 0.88159 0.44499 0.4051 0.0
C2158 C 0.8982 0.46625 0.41434 0.0
C2159 C 0.91696 0.46693 0.42446 0.0
C2160 C 0.93328 0.49255 0.43223 0.0
C2161 C 0.93157 0.49163 0.45223 0.0
C2162 C 0.96043 0.50381 0.42607 0.0
C2163 C 0.92112 0.50633 0.42458 0.0
C2164 C 0.90077 0.49077 0.41443 0.0
C2165 C 0.88726 0.49955 0.40535 0.0
C2166 C 0.89487 0.52494 0.40656 0.0
C2167 C 0.91586 0.54127 0.41672 0.0
C2168 C 0.9289 0.53168 0.426 0.0
H2169 H 0.74554 0.16232 0.23445 0.0
H2170 H 0.6943 0.17429 0.26596 0.0
H2171 H 0.72479 0.21935 0.26691 0.0
H2172 H 0.80051 0.2054 0.2565 0.0
H2173 H 0.81952 0.2159 0.23717 0.0
H2174 H 0.7931 0.18483 0.23808 0.0
H2175 H 0.77523 0.19333 0.21004 0.0
H2176 H 0.80164 0.22444 0.20903 0.0
H2177 H 0.77052 0.21975 0.20927 0.0
H2178 H 0.76158 0.26272 0.26562 0.0
H2179 H 0.80202 0.30137 0.2621 0.0
H2180 H 0.82913 0.261 0.23139 0.0
C2181 C 0.74059 0.17442 0.24142 0.0
C2182 C 0.71751 0.16478 0.25011 0.0
C2183 C 0.71186 0.18125 0.25918 0.0
C2184 C 0.72903 0.20688 0.25978 0.0
C2185 C 0.75172 0.21572 0.25121 0.0
C2186 C 0.7575 0.20002 0.24216 0.0
C2187 C 0.78348 0.21412 0.23455 0.0
C2188 C 0.80013 0.20449 0.24203 0.0
C2189 C 0.78266 0.21283 0.21453 0.0
C2190 C 0.79155 0.24017 0.24094 0.0
C2191 C 0.77291 0.24072 0.25045 0.0
C2192 C 0.77625 0.26256 0.2581 0.0
C2193 C 0.79931 0.28441 0.25604 0.0
C2194 C 0.81874 0.28424 0.24644 0.0
C2195 C 0.81463 0.2618 0.23871 0.0
H2196 H 0.85071 0.57876 0.26154 0.0
H2197 H 0.88493 0.62037 0.21423 0.0
H2198 H 0.84877 0.6262 0.20957 0.0
H2199 H 0.78737 0.54718 0.24575 0.0
H2200 H 0.77445 0.54902 0.26636 0.0
H2201 H 0.80285 0.54778 0.26578 0.0
H2202 H 0.82523 0.58867 0.28369 0.0
H2203 H 0.79692 0.59005 0.28431 0.0
H2204 H 0.82509 0.61604 0.27588 0.0
H2205 H 0.8092 0.62811 0.21036 0.0
H2206 H 0.76902 0.6258 0.21648 0.0
H2207 H 0.76083 0.58289 0.26325 0.0
C2208 C 0.8506 0.58903 0.25016 0.0
C2209 C 0.87065 0.5991 0.23825 0.0
C2210 C 0.86977 0.61246 0.22354 0.0
C2211 C 0.84932 0.61587 0.22077 0.0
C2212 C 0.82991 0.60578 0.23281 0.0
C2213 C 0.83036 0.5926 0.24719 0.0
C2214 C 0.80727 0.58389 0.25827 0.0
C2215 C 0.79209 0.55527 0.25907 0.0
C2216 C 0.81404 0.59536 0.27662 0.0
C2217 C 0.79381 0.59433 0.2479 0.0
C2218 C 0.80715 0.60686 0.23325 0.0
C2219 C 0.79856 0.61829 0.22177 0.0
C2220 C 0.77572 0.61689 0.22536 0.0
C2221 C 0.76175 0.60415 0.24033 0.0
C2222 C 0.771 0.59272 0.25168 0.0
H2223 H 0.48802 0.28026 0.25718 0.0
H2224 H 0.48245 0.28855 0.20144 0.0
H2225 H 0.48029 0.24815 0.19651 0.0
H2226 H 0.52538 0.2492 0.25468 0.0
H2227 H 0.5093 0.22897 0.2728 0.0
H2228 H 0.51281 0.25961 0.27178 0.0
H2229 H 0.46498 0.24019 0.27453 0.0
H2230 H 0.46132 0.20954 0.27551 0.0
H2231 H 0.44485 0.21661 0.2592 0.0
H2232 H 0.47492 0.20526 0.19787 0.0
H2233 H 0.4673 0.16327 0.20542 0.0
H2234 H 0.47693 0.18338 0.26022 0.0
C2235 C 0.48677 0.27381 0.2439 0.0
C2236 C 0.48545 0.28759 0.22969 0.0
C2237 C 0.48356 0.27835 0.21254 0.0
C2238 C 0.48236 0.25544 0.2096 0.0
C2239 C 0.48327 0.24213 0.22393 0.0
C2240 C 0.48559 0.25104 0.24074 0.0
C2241 C 0.48475 0.2325 0.25395 0.0
C2242 C 0.50954 0.24321 0.26388 0.0
C2243 C 0.46266 0.22422 0.26653 0.0
C2244 C 0.48099 0.2115 0.24197 0.0
C2245 C 0.48036 0.21748 0.2247 0.0
C2246 C 0.4757 0.20049 0.21133 0.0
C2247 C 0.47134 0.17667 0.21575 0.0
C2248 C 0.47165 0.1701 0.23339 0.0
C2249 C 0.47689 0.18793 0.2466 0.0
H2250 H 0.28644 0.86491 0.72798 0.0
H2251 H 0.2948 0.89266 0.78095 0.0
H2252 H 0.25909 0.85246 0.79014 0.0
H2253 H 0.21982 0.83085 0.7276 0.0
H2254 H 0.21771 0.80551 0.71476 0.0
H2255 H 0.24427 0.83631 0.71246 0.0
H2256 H 0.27368 0.81899 0.71935 0.0
H2257 H 0.24719 0.78814 0.72175 0.0
H2258 H 0.26942 0.80181 0.73923 0.0
H2259 H 0.22217 0.8095 0.7935 0.0
H2260 H 0.18593 0.76712 0.79064 0.0
H2261 H 0.20179 0.76743 0.73549 0.0
C2262 C 0.28081 0.86255 0.74152 0.0
C2263 C 0.29344 0.88195 0.75374 0.0
C2264 C 0.28542 0.87809 0.77134 0.0
C2265 C 0.26519 0.8553 0.7767 0.0
C2266 C 0.2532 0.83657 0.76433 0.0
C2267 C 0.26066 0.83995 0.7471 0.0
C2268 C 0.24433 0.81695 0.73635 0.0
C2269 C 0.23073 0.82276 0.72195 0.0
C2270 C 0.25957 0.80582 0.72872 0.0
C2271 C 0.22642 0.80017 0.75021 0.0
C2272 C 0.23191 0.8118 0.76627 0.0
C2273 C 0.21771 0.80016 0.781 0.0
C2274 C 0.19718 0.77608 0.77924 0.0
C2275 C 0.19102 0.76391 0.76285 0.0
C2276 C 0.20604 0.77614 0.74822 0.0
H2277 H 0.2936 0.46769 0.72251 0.0
H2278 H 0.30586 0.45569 0.7765 0.0
H2279 H 0.27065 0.46106 0.78542 0.0
H2280 H 0.27427 0.51416 0.73106 0.0
H2281 H 0.25113 0.50215 0.71405 0.0
H2282 H 0.27884 0.49981 0.71207 0.0
H2283 H 0.25166 0.45205 0.7078 0.0
H2284 H 0.22391 0.45422 0.70979 0.0
H2285 H 0.22858 0.43372 0.72396 0.0
H2286 H 0.23223 0.46421 0.78825 0.0
H2287 H 0.19296 0.46473 0.78476 0.0
H2288 H 0.20571 0.47484 0.72896 0.0
C2289 C 0.28915 0.4666 0.73624 0.0
C2290 C 0.30251 0.46131 0.74881 0.0
C2291 C 0.2959 0.45973 0.76663 0.0
C2292 C 0.27598 0.46284 0.77184 0.0
C2293 C 0.26296 0.46765 0.7591 0.0
C2294 C 0.2693 0.46962 0.74168 0.0
C2295 C 0.25134 0.47339 0.73049 0.0
C2296 C 0.2647 0.4989 0.72138 0.0
C2297 C 0.23809 0.45207 0.71724 0.0
C2298 C 0.23352 0.47255 0.74431 0.0
C2299 C 0.24072 0.46948 0.76074 0.0
C2300 C 0.22654 0.4669 0.77548 0.0
C2301 C 0.20424 0.46716 0.77335 0.0
C2302 C 0.19631 0.4699 0.7566 0.0
C2303 C 0.21139 0.47299 0.74196 0.0
H2304 H 0.56548 0.74451 0.73458 0.0
H2305 H 0.57062 0.73265 0.78981 0.0
H2306 H 0.56626 0.76923 0.79657 0.0
H2307 H 0.60222 0.80899 0.73567 0.0
H2308 H 0.58462 0.81496 0.71962 0.0
H2309 H 0.58481 0.78605 0.71919 0.0
H2310 H 0.5366 0.76144 0.72078 0.0
H2311 H 0.53625 0.79034 0.72114 0.0
H2312 H 0.52103 0.76771 0.73821 0.0
H2313 H 0.5653 0.80914 0.79719 0.0
H2314 H 0.56839 0.84981 0.79164 0.0
H2315 H 0.56431 0.8358 0.73596 0.0
C2316 C 0.56513 0.74925 0.74812 0.0
C2317 C 0.56826 0.73566 0.76168 0.0
C2318 C 0.56819 0.74277 0.77921 0.0
C2319 C 0.56564 0.76346 0.78318 0.0
C2320 C 0.56311 0.77677 0.76948 0.0
C2321 C 0.56275 0.76992 0.7523 0.0
C2322 C 0.56181 0.78848 0.73995 0.0
C2323 C 0.58473 0.80032 0.72791 0.0
C2324 C 0.53747 0.77626 0.7294 0.0
C2325 C 0.56237 0.80721 0.75286 0.0
C2326 C 0.5628 0.79996 0.76983 0.0
C2327 C 0.56467 0.81488 0.78397 0.0
C2328 C 0.56647 0.83798 0.78067 0.0
C2329 C 0.56654 0.84598 0.76337 0.0
C2330 C 0.56408 0.83014 0.74934 0.0
H2331 H 0.522 0.65475 0.58188 0.0
H2332 H 0.55631 0.65169 0.53336 0.0
H2333 H 0.51569 0.61789 0.52299 0.0
H2334 H 0.48551 0.59162 0.58726 0.0
H2335 H 0.45896 0.5921 0.59634 0.0
H2336 H 0.48955 0.6188 0.59872 0.0
H2337 H 0.47442 0.64674 0.58436 0.0
H2338 H 0.44367 0.62004 0.58195 0.0
H2339 H 0.45988 0.63859 0.56319 0.0
H2340 H 0.47311 0.58088 0.51957 0.0
H2341 H 0.43201 0.54316 0.5236 0.0
H2342 H 0.42534 0.57044 0.57424 0.0
C2343 C 0.52085 0.64745 0.56888 0.0
C2344 C 0.5423 0.65592 0.5584 0.0
C2345 C 0.5401 0.64553 0.54161 0.0
C2346 C 0.51708 0.6264 0.53556 0.0
C2347 C 0.4964 0.61801 0.54641 0.0
C2348 C 0.49803 0.62829 0.56268 0.0
C2349 C 0.47368 0.61425 0.5725 0.0
C2350 C 0.47714 0.60356 0.58971 0.0
C2351 C 0.46223 0.6309 0.57568 0.0
C2352 C 0.45844 0.59383 0.55951 0.0
C2353 C 0.47173 0.59656 0.54442 0.0
C2354 C 0.46233 0.57879 0.53118 0.0
C2355 C 0.43899 0.5574 0.5336 0.0
C2356 C 0.4254 0.55391 0.54919 0.0
C2357 C 0.43505 0.57274 0.56206 0.0
H2358 H 0.44459 0.91394 0.55614 0.0
H2359 H 0.40161 0.84242 0.58193 0.0
H2360 H 0.43897 0.83791 0.58288 0.0
H2361 H 0.48566 0.8981 0.53055 0.0
H2362 H 0.51224 0.92879 0.53354 0.0
H2363 H 0.48136 0.92467 0.53268 0.0
H2364 H 0.48864 0.94661 0.56262 0.0
H2365 H 0.51942 0.95067 0.56362 0.0
H2366 H 0.49764 0.93481 0.58103 0.0
H2367 H 0.48194 0.84346 0.58404 0.0
H2368 H 0.52707 0.85859 0.5853 0.0
H2369 H 0.5418 0.92653 0.55882 0.0
C2370 C 0.44283 0.89703 0.56162 0.0
C2371 C 0.42014 0.87848 0.5689 0.0
C2372 C 0.41877 0.85684 0.57621 0.0
C2373 C 0.43988 0.85408 0.57677 0.0
C2374 C 0.46213 0.87304 0.56987 0.0
C2375 C 0.46369 0.89403 0.56233 0.0
C2376 C 0.49019 0.91265 0.55717 0.0
C2377 C 0.49249 0.91625 0.5373 0.0
C2378 C 0.49951 0.93765 0.56669 0.0
C2379 C 0.50345 0.89924 0.56352 0.0
C2380 C 0.48692 0.87629 0.57059 0.0
C2381 C 0.49502 0.86123 0.5783 0.0
C2382 C 0.5207 0.87003 0.579 0.0
C2383 C 0.53797 0.89371 0.57212 0.0
C2384 C 0.52909 0.90823 0.56402 0.0
H2385 H 0.11697 0.60529 0.57035 0.0
H2386 H 0.18797 0.65148 0.59605 0.0
H2387 H 0.19719 0.61715 0.59396 0.0
H2388 H 0.10247 0.54962 0.59165 0.0
H2389 H 0.08801 0.52989 0.57301 0.0
H2390 H 0.08807 0.55883 0.57508 0.0
H2391 H 0.10915 0.5728 0.54483 0.0
H2392 H 0.10916 0.54386 0.54266 0.0
H2393 H 0.1379 0.57308 0.54069 0.0
H2394 H 0.19733 0.57689 0.59089 0.0
H2395 H 0.1881 0.53347 0.58755 0.0
H2396 H 0.11698 0.51379 0.56387 0.0
C2397 C 0.13462 0.60835 0.57533 0.0
C2398 C 0.15179 0.63109 0.58333 0.0
C2399 C 0.17455 0.63422 0.58985 0.0
C2400 C 0.17999 0.61486 0.58867 0.0
C2401 C 0.16252 0.59258 0.58088 0.0
C2402 C 0.14032 0.58925 0.57429 0.0
C2403 C 0.12406 0.56305 0.56746 0.0
C2404 C 0.09919 0.54956 0.5774 0.0
C2405 C 0.11983 0.56322 0.54774 0.0
C2406 C 0.14037 0.55198 0.57157 0.0
C2407 C 0.16257 0.56937 0.57915 0.0
C2408 C 0.18013 0.56317 0.58481 0.0
C2409 C 0.17469 0.53846 0.58287 0.0
C2410 C 0.15185 0.52025 0.57542 0.0
C2411 C 0.1347 0.5273 0.56948 0.0
loop_
_geom_bond_atom_site_label_1
_geom_bond_atom_site_label_2
_geom_bond_distance
_geom_bond_site_symmetry_2
_ccdc_geom_bond_type
C0 O1 1.160 . S
C0 O7 1.185 . S
O1 C0 1.160 . S
O2 Zn3 1.899 . S
O2 C10 1.284 . S
Zn3 O2 1.899 . S
Zn3 O4 2.032 . S
Zn3 O7 2.086 . S
Zn3 O12 1.977 . S
O4 Zn3 2.032 . S
O4 C8 1.278 1_455 S
C5 O6 1.203 . S
C5 O12 1.267 . S
O6 C5 1.203 . S
O7 C0 1.185 . S
O7 Zn3 2.086 . S
C8 O4 1.278 1_655 S
C8 O9 1.211 . S
O9 C8 1.211 . S
C10 O2 1.284 . S
C10 O11 1.273 . S
O11 C10 1.273 . S
O12 Zn3 1.977 . S
O12 C5 1.267 . S
C13 O14 1.160 . S
C13 O20 1.185 . S
O14 C13 1.160 . S
O15 Zn16 1.899 . S
O15 C23 1.284 . S
Zn16 O15 1.899 . S
Zn16 O17 2.032 . S
Zn16 O20 2.086 . S
Zn16 O25 1.977 . S
O17 Zn16 2.032 . S
O17 C21 1.278 . S
C18 O19 1.203 . S
C18 O25 1.267 . S
O19 C18 1.203 . S
O20 C13 1.185 . S
O20 Zn16 2.086 . S
C21 O17 1.278 . S
C21 O22 1.211 . S
O22 C21 1.211 . S
C23 O15 1.284 . S
C23 O24 1.273 . S
O24 C23 1.273 . S
O25 Zn16 1.977 . S
O25 C18 1.267 . S
C26 O27 1.160 . S
C26 O33 1.185 . S
O27 C26 1.160 . S
O28 Zn29 1.899 1_565 S
O28 C36 1.284 . S
Zn29 O28 1.899 1_545 S
Zn29 O30 2.032 . S
Zn29 O33 2.086 . S
Zn29 O38 1.977 . S
O30 Zn29 2.032 . S
O30 C34 1.278 . S
C31 O32 1.203 . S
C31 O38 1.267 . S
O32 C31 1.203 . S
O33 C26 1.185 . S
O33 Zn29 2.086 . S
C34 O30 1.278 . S
C34 O35 1.211 . S
O35 C34 1.211 . S
C36 O28 1.284 . S
C36 O37 1.273 1_565 S
O37 C36 1.273 1_545 S
O38 Zn29 1.977 . S
O38 C31 1.267 . S
C39 O40 1.160 . S
C39 O46 1.185 . S
O40 C39 1.160 . S
O41 Zn42 1.899 . S
O41 C49 1.284 . S
Zn42 O41 1.899 . S
Zn42 O43 2.032 . S
Zn42 O46 2.086 . S
Zn42 O51 1.977 . S
O43 Zn42 2.032 . S
O43 C47 1.278 1_545 S
C44 O45 1.203 . S
C44 O51 1.267 . S
O45 C44 1.203 . S
O46 C39 1.185 . S
O46 Zn42 2.086 . S
C47 O43 1.278 1_565 S
C47 O48 1.211 . S
O48 C47 1.211 . S
C49 O41 1.284 . S
C49 O50 1.273 . S
O50 C49 1.273 . S
O51 Zn42 1.977 . S
O51 C44 1.267 . S
C52 O53 1.160 . S
C52 O59 1.185 . S
O53 C52 1.160 . S
O54 Zn55 1.899 1_655 S
O54 C62 1.284 . S
Zn55 O54 1.899 1_455 S
Zn55 O56 2.032 . S
Zn55 O59 2.086 . S
Zn55 O64 1.977 . S
O56 Zn55 2.032 . S
O56 C60 1.278 . S
C57 O58 1.203 . S
C57 O64 1.267 . S
O58 C57 1.203 . S
O59 C52 1.185 . S
O59 Zn55 2.086 . S
C60 O56 1.278 . S
C60 O61 1.211 . S
O61 C60 1.211 . S
C62 O54 1.284 . S
C62 O63 1.273 1_655 S
O63 C62 1.273 1_455 S
O64 Zn55 1.977 . S
O64 C57 1.267 . S
C65 O66 1.160 . S
C65 O72 1.185 . S
O66 C65 1.160 . S
O67 Zn68 1.899 . S
O67 C75 1.284 . S
Zn68 O67 1.899 . S
Zn68 O69 2.032 . S
Zn68 O72 2.086 . S
Zn68 O77 1.977 . S
O69 Zn68 2.032 . S
O69 C73 1.278 . S
C70 O71 1.203 . S
C70 O77 1.267 . S
O71 C70 1.203 . S
O72 C65 1.185 . S
O72 Zn68 2.086 . S
C73 O69 1.278 . S
C73 O74 1.211 . S
O74 C73 1.211 . S
C75 O67 1.284 . S
C75 O76 1.273 . S
O76 C75 1.273 . S
O77 Zn68 1.977 . S
O77 C70 1.267 . S
C78 O79 1.160 . S
C78 O85 1.185 . S
O79 C78 1.160 . S
O80 Zn81 1.899 1_655 S
O80 C88 1.284 . S
Zn81 O80 1.899 1_455 S
Zn81 O82 2.032 . S
Zn81 O85 2.086 . S
Zn81 O90 1.977 . S
O82 Zn81 2.032 . S
O82 C86 1.278 . S
C83 O84 1.203 . S
C83 O90 1.267 . S
O84 C83 1.203 . S
O85 C78 1.185 . S
O85 Zn81 2.086 . S
C86 O82 1.278 . S
C86 O87 1.211 . S
O87 C86 1.211 . S
C88 O80 1.284 . S
C88 O89 1.273 1_655 S
O89 C88 1.273 1_455 S
O90 Zn81 1.977 . S
O90 C83 1.267 . S
C91 O92 1.160 . S
C91 O98 1.185 . S
O92 C91 1.160 . S
O93 Zn94 1.899 . S
O93 C101 1.284 . S
Zn94 O93 1.899 . S
Zn94 O95 2.032 . S
Zn94 O98 2.086 . S
Zn94 O103 1.977 . S
O95 Zn94 2.032 . S
O95 C99 1.278 . S
C96 O97 1.203 . S
C96 O103 1.267 . S
O97 C96 1.203 . S
O98 C91 1.185 . S
O98 Zn94 2.086 . S
C99 O95 1.278 . S
C99 O100 1.211 . S
O100 C99 1.211 . S
C101 O93 1.284 . S
C101 O102 1.273 . S
O102 C101 1.273 . S
O103 Zn94 1.977 . S
O103 C96 1.267 . S
C104 O105 1.160 . S
C104 O111 1.185 . S
O105 C104 1.160 . S
O106 Zn107 1.899 . S
O106 C114 1.284 . S
Zn107 O106 1.899 . S
Zn107 O108 2.032 . S
Zn107 O111 2.086 . S
Zn107 O116 1.977 . S
O108 Zn107 2.032 . S
O108 C112 1.278 1_545 S
C109 O110 1.203 . S
C109 O116 1.267 . S
O110 C109 1.203 . S
O111 C104 1.185 . S
O111 Zn107 2.086 . S
C112 O108 1.278 1_565 S
C112 O113 1.211 . S
O113 C112 1.211 . S
C114 O106 1.284 . S
C114 O115 1.273 . S
O115 C114 1.273 . S
O116 Zn107 1.977 . S
O116 C109 1.267 . S
C117 O118 1.160 . S
C117 O124 1.185 . S
O118 C117 1.160 . S
O119 Zn120 1.899 1_565 S
O119 C127 1.284 . S
Zn120 O119 1.899 1_545 S
Zn120 O121 2.032 . S
Zn120 O124 2.086 . S
Zn120 O129 1.977 . S
O121 Zn120 2.032 . S
O121 C125 1.278 . S
C122 O123 1.203 . S
C122 O129 1.267 . S
O123 C122 1.203 . S
O124 C117 1.185 . S
O124 Zn120 2.086 . S
C125 O121 1.278 . S
C125 O126 1.211 . S
O126 C125 1.211 . S
C127 O119 1.284 . S
C127 O128 1.273 1_565 S
O128 C127 1.273 1_545 S
O129 Zn120 1.977 . S
O129 C122 1.267 . S
C130 O131 1.160 . S
C130 O137 1.185 . S
O131 C130 1.160 . S
O132 Zn133 1.899 . S
O132 C140 1.284 . S
Zn133 O132 1.899 . S
Zn133 O134 2.032 . S
Zn133 O137 2.086 . S
Zn133 O142 1.977 . S
O134 Zn133 2.032 . S
O134 C138 1.278 1_455 S
C135 O136 1.203 . S
C135 O142 1.267 . S
O136 C135 1.203 . S
O137 C130 1.185 . S
O137 Zn133 2.086 . S
C138 O134 1.278 1_655 S
C138 O139 1.211 . S
O139 C138 1.211 . S
C140 O132 1.284 . S
C140 O141 1.273 . S
O141 C140 1.273 . S
O142 Zn133 1.977 . S
O142 C135 1.267 . S
C143 O144 1.160 . S
C143 O150 1.185 . S
O144 C143 1.160 . S
O145 Zn146 1.899 . S
O145 C153 1.284 . S
Zn146 O145 1.899 . S
Zn146 O147 2.032 . S
Zn146 O150 2.086 . S
Zn146 O155 1.977 . S
O147 Zn146 2.032 . S
O147 C151 1.278 . S
C148 O149 1.203 . S
C148 O155 1.267 . S
O149 C148 1.203 . S
O150 C143 1.185 . S
O150 Zn146 2.086 . S
C151 O147 1.278 . S
C151 O152 1.211 . S
O152 C151 1.211 . S
C153 O145 1.284 . S
C153 O154 1.273 . S
O154 C153 1.273 . S
O155 Zn146 1.977 . S
O155 C148 1.267 . S
C156 O157 1.160 . S
C156 O163 1.185 . S
O157 C156 1.160 . S
O158 Zn159 1.899 . S
O158 C166 1.284 . S
Zn159 O158 1.899 . S
Zn159 O160 2.032 . S
Zn159 O163 2.086 . S
Zn159 O168 1.977 . S
O160 Zn159 2.032 . S
O160 C164 1.278 . S
C161 O162 1.203 . S
C161 O168 1.267 . S
O162 C161 1.203 . S
O163 C156 1.185 . S
O163 Zn159 2.086 . S
C164 O160 1.278 . S
C164 O165 1.211 . S
O165 C164 1.211 . S
C166 O158 1.284 . S
C166 O167 1.273 . S
O167 C166 1.273 . S
O168 Zn159 1.977 . S
O168 C161 1.267 . S
C169 O170 1.160 . S
C169 O176 1.185 . S
O170 C169 1.160 . S
O171 Zn172 1.899 . S
O171 C179 1.284 . S
Zn172 O171 1.899 . S
Zn172 O173 2.032 . S
Zn172 O176 2.086 . S
Zn172 O181 1.977 . S
O173 Zn172 2.032 . S
O173 C177 1.278 . S
C174 O175 1.203 . S
C174 O181 1.267 . S
O175 C174 1.203 . S
O176 C169 1.185 . S
O176 Zn172 2.086 . S
C177 O173 1.278 . S
C177 O178 1.211 . S
O178 C177 1.211 . S
C179 O171 1.284 . S
C179 O180 1.273 . S
O180 C179 1.273 . S
O181 Zn172 1.977 . S
O181 C174 1.267 . S
C182 O183 1.160 . S
C182 O189 1.185 . S
O183 C182 1.160 . S
O184 Zn185 1.899 . S
O184 C192 1.284 . S
Zn185 O184 1.899 . S
Zn185 O186 2.032 . S
Zn185 O189 2.086 . S
Zn185 O194 1.977 . S
O186 Zn185 2.032 . S
O186 C190 1.278 . S
C187 O188 1.203 . S
C187 O194 1.267 . S
O188 C187 1.203 . S
O189 C182 1.185 . S
O189 Zn185 2.086 . S
C190 O186 1.278 . S
C190 O191 1.211 . S
O191 C190 1.211 . S
C192 O184 1.284 . S
C192 O193 1.273 . S
O193 C192 1.273 . S
O194 Zn185 1.977 . S
O194 C187 1.267 . S
C195 O196 1.160 . S
C195 O202 1.185 . S
O196 C195 1.160 . S
O197 Zn198 1.899 . S
O197 C205 1.284 . S
Zn198 O197 1.899 . S
Zn198 O199 2.032 . S
Zn198 O202 2.086 . S
Zn198 O207 1.977 . S
O199 Zn198 2.032 . S
O199 C203 1.278 . S
C200 O201 1.203 . S
C200 O207 1.267 . S
O201 C200 1.203 . S
O202 C195 1.185 . S
O202 Zn198 2.086 . S
C203 O199 1.278 . S
C203 O204 1.211 . S
O204 C203 1.211 . S
C205 O197 1.284 . S
C205 O206 1.273 . S
O206 C205 1.273 . S
O207 Zn198 1.977 . S
O207 C200 1.267 . S
C208 O209 1.160 . S
C208 O215 1.185 . S
O209 C208 1.160 . S
O210 Zn211 1.899 . S
O210 C218 1.284 . S
Zn211 O210 1.899 . S
Zn211 O212 2.032 . S
Zn211 O215 2.086 . S
Zn211 O220 1.977 . S
O212 Zn211 2.032 . S
O212 C216 1.278 . S
C213 O214 1.203 . S
C213 O220 1.267 . S
O214 C213 1.203 . S
O215 C208 1.185 . S
O215 Zn211 2.086 . S
C216 O212 1.278 . S
C216 O217 1.211 . S
O217 C216 1.211 . S
C218 O210 1.284 . S
C218 O219 1.273 . S
O219 C218 1.273 . S
O220 Zn211 1.977 . S
O220 C213 1.267 . S
C221 O222 1.160 . S
C221 O228 1.185 . S
O222 C221 1.160 . S
O223 Zn224 1.899 . S
O223 C231 1.284 . S
Zn224 O223 1.899 . S
Zn224 O225 2.032 . S
Zn224 O228 2.086 . S
Zn224 O233 1.977 . S
O225 Zn224 2.032 . S
O225 C229 1.278 . S
C226 O227 1.203 . S
C226 O233 1.267 . S
O227 C226 1.203 . S
O228 C221 1.185 . S
O228 Zn224 2.086 . S
C229 O225 1.278 . S
C229 O230 1.211 . S
O230 C229 1.211 . S
C231 O223 1.284 . S
C231 O232 1.273 . S
O232 C231 1.273 . S
O233 Zn224 1.977 . S
O233 C226 1.267 . S
C234 O235 1.160 . S
C234 O241 1.185 . S
O235 C234 1.160 . S
O236 Zn237 1.899 . S
O236 C244 1.284 . S
Zn237 O236 1.899 . S
Zn237 O238 2.032 . S
Zn237 O241 2.086 . S
Zn237 O246 1.977 . S
O238 Zn237 2.032 . S
O238 C242 1.278 . S
C239 O240 1.203 . S
C239 O246 1.267 . S
O240 C239 1.203 . S
O241 C234 1.185 . S
O241 Zn237 2.086 . S
C242 O238 1.278 . S
C242 O243 1.211 . S
O243 C242 1.211 . S
C244 O236 1.284 . S
C244 O245 1.273 . S
O245 C244 1.273 . S
O246 Zn237 1.977 . S
O246 C239 1.267 . S
C247 O248 1.160 . S
C247 O254 1.185 . S
O248 C247 1.160 . S
O249 Zn250 1.899 . S
O249 C257 1.284 . S
Zn250 O249 1.899 . S
Zn250 O251 2.032 . S
Zn250 O254 2.086 . S
Zn250 O259 1.977 . S
O251 Zn250 2.032 . S
O251 C255 1.278 . S
C252 O253 1.203 . S
C252 O259 1.267 . S
O253 C252 1.203 . S
O254 C247 1.185 . S
O254 Zn250 2.086 . S
C255 O251 1.278 . S
C255 O256 1.211 . S
O256 C255 1.211 . S
C257 O249 1.284 . S
C257 O258 1.273 . S
O258 C257 1.273 . S
O259 Zn250 1.977 . S
O259 C252 1.267 . S
C260 O261 1.160 . S
C260 O267 1.185 . S
O261 C260 1.160 . S
O262 Zn263 1.899 . S
O262 C270 1.284 . S
Zn263 O262 1.899 . S
Zn263 O264 2.032 . S
Zn263 O267 2.086 . S
Zn263 O272 1.977 . S
O264 Zn263 2.032 . S
O264 C268 1.278 . S
C265 O266 1.203 . S
C265 O272 1.267 . S
O266 C265 1.203 . S
O267 C260 1.185 . S
O267 Zn263 2.086 . S
C268 O264 1.278 . S
C268 O269 1.211 . S
O269 C268 1.211 . S
C270 O262 1.284 . S
C270 O271 1.273 . S
O271 C270 1.273 . S
O272 Zn263 1.977 . S
O272 C265 1.267 . S
C273 O274 1.160 . S
C273 O280 1.185 . S
O274 C273 1.160 . S
O275 Zn276 1.899 . S
O275 C283 1.284 . S
Zn276 O275 1.899 . S
Zn276 O277 2.032 . S
Zn276 O280 2.086 . S
Zn276 O285 1.977 . S
O277 Zn276 2.032 . S
O277 C281 1.278 . S
C278 O279 1.203 . S
C278 O285 1.267 . S
O279 C278 1.203 . S
O280 C273 1.185 . S
O280 Zn276 2.086 . S
C281 O277 1.278 . S
C281 O282 1.211 . S
O282 C281 1.211 . S
C283 O275 1.284 . S
C283 O284 1.273 . S
O284 C283 1.273 . S
O285 Zn276 1.977 . S
O285 C278 1.267 . S
C286 O287 1.160 . S
C286 O293 1.185 . S
O287 C286 1.160 . S
O288 Zn289 1.899 . S
O288 C296 1.284 . S
Zn289 O288 1.899 . S
Zn289 O290 2.032 . S
Zn289 O293 2.086 . S
Zn289 O298 1.977 . S
O290 Zn289 2.032 . S
O290 C294 1.278 . S
C291 O292 1.203 . S
C291 O298 1.267 . S
O292 C291 1.203 . S
O293 C286 1.185 . S
O293 Zn289 2.086 . S
C294 O290 1.278 . S
C294 O295 1.211 . S
O295 C294 1.211 . S
C296 O288 1.284 . S
C296 O297 1.273 . S
O297 C296 1.273 . S
O298 Zn289 1.977 . S
O298 C291 1.267 . S
C299 O300 1.160 . S
C299 O306 1.185 . S
O300 C299 1.160 . S
O301 Zn302 1.899 . S
O301 C309 1.284 . S
Zn302 O301 1.899 . S
Zn302 O303 2.032 . S
Zn302 O306 2.086 . S
Zn302 O311 1.977 . S
O303 Zn302 2.032 . S
O303 C307 1.278 . S
C304 O305 1.203 . S
C304 O311 1.267 . S
O305 C304 1.203 . S
O306 C299 1.185 . S
O306 Zn302 2.086 . S
C307 O303 1.278 . S
C307 O308 1.211 . S
O308 C307 1.211 . S
C309 O301 1.284 . S
C309 O310 1.273 . S
O310 C309 1.273 . S
O311 Zn302 1.977 . S
O311 C304 1.267 . S
C312 O313 1.160 . S
C312 O319 1.185 . S
O313 C312 1.160 . S
O314 Zn315 1.899 . S
O314 C322 1.284 . S
Zn315 O314 1.899 . S
Zn315 O316 2.032 . S
Zn315 O319 2.086 . S
Zn315 O324 1.977 . S
O316 Zn315 2.032 . S
O316 C320 1.278 . S
C317 O318 1.203 . S
C317 O324 1.267 . S
O318 C317 1.203 . S
O319 C312 1.185 . S
O319 Zn315 2.086 . S
C320 O316 1.278 . S
C320 O321 1.211 . S
O321 C320 1.211 . S
C322 O314 1.284 . S
C322 O323 1.273 . S
O323 C322 1.273 . S
O324 Zn315 1.977 . S
O324 C317 1.267 . S
C325 O326 1.160 . S
C325 O332 1.185 . S
O326 C325 1.160 . S
O327 Zn328 1.899 . S
O327 C335 1.284 . S
Zn328 O327 1.899 . S
Zn328 O329 2.032 . S
Zn328 O332 2.086 . S
Zn328 O337 1.977 . S
O329 Zn328 2.032 . S
O329 C333 1.278 . S
C330 O331 1.203 . S
C330 O337 1.267 . S
O331 C330 1.203 . S
O332 C325 1.185 . S
O332 Zn328 2.086 . S
C333 O329 1.278 . S
C333 O334 1.211 . S
O334 C333 1.211 . S
C335 O327 1.284 . S
C335 O336 1.273 . S
O336 C335 1.273 . S
O337 Zn328 1.977 . S
O337 C330 1.267 . S
C338 O339 1.160 . S
C338 O345 1.185 . S
O339 C338 1.160 . S
O340 Zn341 1.899 . S
O340 C348 1.284 . S
Zn341 O340 1.899 . S
Zn341 O342 2.032 . S
Zn341 O345 2.086 . S
Zn341 O350 1.977 . S
O342 Zn341 2.032 . S
O342 C346 1.278 . S
C343 O344 1.203 . S
C343 O350 1.267 . S
O344 C343 1.203 . S
O345 C338 1.185 . S
O345 Zn341 2.086 . S
C346 O342 1.278 . S
C346 O347 1.211 . S
O347 C346 1.211 . S
C348 O340 1.284 . S
C348 O349 1.273 . S
O349 C348 1.273 . S
O350 Zn341 1.977 . S
O350 C343 1.267 . S
C351 O352 1.160 . S
C351 O358 1.185 . S
O352 C351 1.160 . S
O353 Zn354 1.899 . S
O353 C361 1.284 . S
Zn354 O353 1.899 . S
Zn354 O355 2.032 . S
Zn354 O358 2.086 . S
Zn354 O363 1.977 . S
O355 Zn354 2.032 . S
O355 C359 1.278 . S
C356 O357 1.203 . S
C356 O363 1.267 . S
O357 C356 1.203 . S
O358 C351 1.185 . S
O358 Zn354 2.086 . S
C359 O355 1.278 . S
C359 O360 1.211 . S
O360 C359 1.211 . S
C361 O353 1.284 . S
C361 O362 1.273 . S
O362 C361 1.273 . S
O363 Zn354 1.977 . S
O363 C356 1.267 . S
C364 O365 1.160 . S
C364 O371 1.185 . S
O365 C364 1.160 . S
O366 Zn367 1.899 . S
O366 C374 1.284 . S
Zn367 O366 1.899 . S
Zn367 O368 2.032 . S
Zn367 O371 2.086 . S
Zn367 O376 1.977 . S
O368 Zn367 2.032 . S
O368 C372 1.278 . S
C369 O370 1.203 . S
C369 O376 1.267 . S
O370 C369 1.203 . S
O371 C364 1.185 . S
O371 Zn367 2.086 . S
C372 O368 1.278 . S
C372 O373 1.211 . S
O373 C372 1.211 . S
C374 O366 1.284 . S
C374 O375 1.273 . S
O375 C374 1.273 . S
O376 Zn367 1.977 . S
O376 C369 1.267 . S
C377 O378 1.160 . S
C377 O384 1.185 . S
O378 C377 1.160 . S
O379 Zn380 1.899 . S
O379 C387 1.284 . S
Zn380 O379 1.899 . S
Zn380 O381 2.032 . S
Zn380 O384 2.086 . S
Zn380 O389 1.977 . S
O381 Zn380 2.032 . S
O381 C385 1.278 . S
C382 O383 1.203 . S
C382 O389 1.267 . S
O383 C382 1.203 . S
O384 C377 1.185 . S
O384 Zn380 2.086 . S
C385 O381 1.278 . S
C385 O386 1.211 . S
O386 C385 1.211 . S
C387 O379 1.284 . S
C387 O388 1.273 . S
O388 C387 1.273 . S
O389 Zn380 1.977 . S
O389 C382 1.267 . S
C390 O391 1.160 . S
C390 O397 1.185 . S
O391 C390 1.160 . S
O392 Zn393 1.899 . S
O392 C400 1.284 . S
Zn393 O392 1.899 . S
Zn393 O394 2.032 . S
Zn393 O397 2.086 . S
Zn393 O402 1.977 . S
O394 Zn393 2.032 . S
O394 C398 1.278 . S
C395 O396 1.203 . S
C395 O402 1.267 . S
O396 C395 1.203 . S
O397 C390 1.185 . S
O397 Zn393 2.086 . S
C398 O394 1.278 . S
C398 O399 1.211 . S
O399 C398 1.211 . S
C400 O392 1.284 . S
C400 O401 1.273 . S
O401 C400 1.273 . S
O402 Zn393 1.977 . S
O402 C395 1.267 . S
C403 O404 1.160 . S
C403 O410 1.185 . S
O404 C403 1.160 . S
O405 Zn406 1.899 . S
O405 C413 1.284 . S
Zn406 O405 1.899 . S
Zn406 O407 2.032 . S
Zn406 O410 2.086 . S
Zn406 O415 1.977 . S
O407 Zn406 2.032 . S
O407 C411 1.278 . S
C408 O409 1.203 . S
C408 O415 1.267 . S
O409 C408 1.203 . S
O410 C403 1.185 . S
O410 Zn406 2.086 . S
C411 O407 1.278 . S
C411 O412 1.211 . S
O412 C411 1.211 . S
C413 O405 1.284 . S
C413 O414 1.273 . S
O414 C413 1.273 . S
O415 Zn406 1.977 . S
O415 C408 1.267 . S
C416 O417 1.160 . S
C416 O423 1.185 . S
O417 C416 1.160 . S
O418 Zn419 1.899 . S
O418 C426 1.284 . S
Zn419 O418 1.899 . S
Zn419 O420 2.032 . S
Zn419 O423 2.086 . S
Zn419 O428 1.977 . S
O420 Zn419 2.032 . S
O420 C424 1.278 . S
C421 O422 1.203 . S
C421 O428 1.267 . S
O422 C421 1.203 . S
O423 C416 1.185 . S
O423 Zn419 2.086 . S
C424 O420 1.278 . S
C424 O425 1.211 . S
O425 C424 1.211 . S
C426 O418 1.284 . S
C426 O427 1.273 . S
O427 C426 1.273 . S
O428 Zn419 1.977 . S
O428 C421 1.267 . S
C429 O430 1.160 . S
C429 O436 1.185 . S
O430 C429 1.160 . S
O431 Zn432 1.899 . S
O431 C439 1.284 . S
Zn432 O431 1.899 . S
Zn432 O433 2.032 . S
Zn432 O436 2.086 . S
Zn432 O441 1.977 . S
O433 Zn432 2.032 . S
O433 C437 1.278 . S
C434 O435 1.203 . S
C434 O441 1.267 . S
O435 C434 1.203 . S
O436 C429 1.185 . S
O436 Zn432 2.086 . S
C437 O433 1.278 . S
C437 O438 1.211 . S
O438 C437 1.211 . S
C439 O431 1.284 . S
C439 O440 1.273 . S
O440 C439 1.273 . S
O441 Zn432 1.977 . S
O441 C434 1.267 . S
C442 O443 1.160 . S
C442 O449 1.185 . S
O443 C442 1.160 . S
O444 Zn445 1.899 . S
O444 C452 1.284 . S
Zn445 O444 1.899 . S
Zn445 O446 2.032 . S
Zn445 O449 2.086 . S
Zn445 O454 1.977 . S
O446 Zn445 2.032 . S
O446 C450 1.278 . S
C447 O448 1.203 . S
C447 O454 1.267 . S
O448 C447 1.203 . S
O449 C442 1.185 . S
O449 Zn445 2.086 . S
C450 O446 1.278 . S
C450 O451 1.211 . S
O451 C450 1.211 . S
C452 O444 1.284 . S
C452 O453 1.273 . S
O453 C452 1.273 . S
O454 Zn445 1.977 . S
O454 C447 1.267 . S
C455 O456 1.160 . S
C455 O462 1.185 . S
O456 C455 1.160 . S
O457 Zn458 1.899 . S
O457 C465 1.284 . S
Zn458 O457 1.899 . S
Zn458 O459 2.032 . S
Zn458 O462 2.086 . S
Zn458 O467 1.977 . S
O459 Zn458 2.032 . S
O459 C463 1.278 . S
C460 O461 1.203 . S
C460 O467 1.267 . S
O461 C460 1.203 . S
O462 C455 1.185 . S
O462 Zn458 2.086 . S
C463 O459 1.278 . S
C463 O464 1.211 . S
O464 C463 1.211 . S
C465 O457 1.284 . S
C465 O466 1.273 . S
O466 C465 1.273 . S
O467 Zn458 1.977 . S
O467 C460 1.267 . S
H468 C480 0.930 . S
H469 C482 0.930 . S
H470 C483 0.930 . S
H471 C487 0.959 . S
H472 C487 0.959 . S
H473 C487 0.961 . S
H474 C488 0.960 . S
H475 C488 0.961 . S
H476 C488 0.959 . S
H477 C491 0.929 . S
H478 C492 0.931 . S
H479 C494 0.930 . S
C480 H468 0.930 . S
C480 C481 1.399 . S
C480 C485 1.399 . S
C481 C480 1.399 . S
C481 C482 1.376 . S
C482 H469 0.930 . S
C482 C481 1.376 . S
C482 C483 1.388 . S
C483 H470 0.930 . S
C483 C482 1.388 . S
C483 C484 1.390 . S
C484 C483 1.390 . S
C484 C485 1.394 . S
C484 C490 1.465 . S
C485 C480 1.399 . S
C485 C484 1.394 . S
C485 C486 1.516 . S
C486 C485 1.516 . S
C486 C487 1.502 . S
C486 C488 1.561 . S
C486 C489 1.526 . S
C487 H471 0.959 . S
C487 H472 0.959 . S
C487 H473 0.961 . S
C487 C486 1.502 . S
C488 H474 0.960 . S
C488 H475 0.961 . S
C488 H476 0.959 . S
C488 C486 1.561 . S
C489 C486 1.526 . S
C489 C490 1.396 . S
C489 C494 1.390 . S
C490 C484 1.465 . S
C490 C489 1.396 . S
C490 C491 1.399 . S
C491 H477 0.929 . S
C491 C490 1.399 . S
C491 C492 1.385 . S
C492 H478 0.931 . S
C492 C491 1.385 . S
C492 C493 1.389 . S
C493 C492 1.389 . S
C493 C494 1.387 . S
C494 H479 0.930 . S
C494 C489 1.390 . S
C494 C493 1.387 . S
H495 C507 0.930 . S
H496 C509 0.930 . S
H497 C510 0.930 . S
H498 C514 0.959 . S
H499 C514 0.959 . S
H500 C514 0.961 . S
H501 C515 0.960 . S
H502 C515 0.961 . S
H503 C515 0.959 . S
H504 C518 0.929 . S
H505 C519 0.931 . S
H506 C521 0.930 . S
C507 H495 0.930 . S
C507 C508 1.399 . S
C507 C512 1.399 . S
C508 C507 1.399 . S
C508 C509 1.376 . S
C509 H496 0.930 . S
C509 C508 1.376 . S
C509 C510 1.388 . S
C510 H497 0.930 . S
C510 C509 1.388 . S
C510 C511 1.390 . S
C511 C510 1.390 . S
C511 C512 1.394 . S
C511 C517 1.465 . S
C512 C507 1.399 . S
C512 C511 1.394 . S
C512 C513 1.516 . S
C513 C512 1.516 . S
C513 C514 1.502 . S
C513 C515 1.561 . S
C513 C516 1.526 . S
C514 H498 0.959 . S
C514 H499 0.959 . S
C514 H500 0.961 . S
C514 C513 1.502 . S
C515 H501 0.960 . S
C515 H502 0.961 . S
C515 H503 0.959 . S
C515 C513 1.561 . S
C516 C513 1.526 . S
C516 C517 1.396 . S
C516 C521 1.390 . S
C517 C511 1.465 . S
C517 C516 1.396 . S
C517 C518 1.399 . S
C518 H504 0.929 . S
C518 C517 1.399 . S
C518 C519 1.385 . S
C519 H505 0.931 . S
C519 C518 1.385 . S
C519 C520 1.389 . S
C520 C519 1.389 . S
C520 C521 1.387 . S
C521 H506 0.930 . S
C521 C516 1.390 . S
C521 C520 1.387 . S
H522 C534 0.930 . S
H523 C536 0.930 . S
H524 C537 0.930 . S
H525 C541 0.959 . S
H526 C541 0.959 . S
H527 C541 0.961 . S
H528 C542 0.960 . S
H529 C542 0.961 . S
H530 C542 0.959 . S
H531 C545 0.929 . S
H532 C546 0.931 . S
H533 C548 0.930 . S
C534 H522 0.930 . S
C534 C535 1.399 . S
C534 C539 1.399 . S
C535 C534 1.399 . S
C535 C536 1.376 . S
C536 H523 0.930 . S
C536 C535 1.376 . S
C536 C537 1.388 . S
C537 H524 0.930 . S
C537 C536 1.388 . S
C537 C538 1.390 . S
C538 C537 1.390 . S
C538 C539 1.394 . S
C538 C544 1.465 . S
C539 C534 1.399 . S
C539 C538 1.394 . S
C539 C540 1.516 . S
C540 C539 1.516 . S
C540 C541 1.502 . S
C540 C542 1.561 . S
C540 C543 1.526 . S
C541 H525 0.959 . S
C541 H526 0.959 . S
C541 H527 0.961 . S
C541 C540 1.502 . S
C542 H528 0.960 . S
C542 H529 0.961 . S
C542 H530 0.959 . S
C542 C540 1.561 . S
C543 C540 1.526 . S
C543 C544 1.396 . S
C543 C548 1.390 . S
C544 C538 1.465 . S
C544 C543 1.396 . S
C544 C545 1.399 . S
C545 H531 0.929 . S
C545 C544 1.399 . S
C545 C546 1.385 . S
C546 H532 0.931 . S
C546 C545 1.385 . S
C546 C547 1.389 . S
C547 C546 1.389 . S
C547 C548 1.387 . S
C548 H533 0.930 . S
C548 C543 1.390 . S
C548 C547 1.387 . S
H549 C561 0.930 . S
H550 C563 0.930 . S
H551 C564 0.930 . S
H552 C568 0.959 . S
H553 C568 0.959 . S
H554 C568 0.961 . S
H555 C569 0.960 . S
H556 C569 0.961 . S
H557 C569 0.959 . S
H558 C572 0.929 . S
H559 C573 0.931 . S
H560 C575 0.930 . S
C561 H549 0.930 . S
C561 C562 1.399 . S
C561 C566 1.399 . S
C562 C561 1.399 . S
C562 C563 1.376 . S
C563 H550 0.930 . S
C563 C562 1.376 . S
C563 C564 1.388 . S
C564 H551 0.930 . S
C564 C563 1.388 . S
C564 C565 1.390 . S
C565 C564 1.390 . S
C565 C566 1.394 . S
C565 C571 1.465 . S
C566 C561 1.399 . S
C566 C565 1.394 . S
C566 C567 1.516 . S
C567 C566 1.516 . S
C567 C568 1.502 . S
C567 C569 1.561 . S
C567 C570 1.526 . S
C568 H552 0.959 . S
C568 H553 0.959 . S
C568 H554 0.961 . S
C568 C567 1.502 . S
C569 H555 0.960 . S
C569 H556 0.961 . S
C569 H557 0.959 . S
C569 C567 1.561 . S
C570 C567 1.526 . S
C570 C571 1.396 . S
C570 C575 1.390 . S
C571 C565 1.465 . S
C571 C570 1.396 . S
C571 C572 1.399 . S
C572 H558 0.929 . S
C572 C571 1.399 . S
C572 C573 1.385 . S
C573 H559 0.931 . S
C573 C572 1.385 . S
C573 C574 1.389 . S
C574 C573 1.389 . S
C574 C575 1.387 . S
C575 H560 0.930 . S
C575 C570 1.390 . S
C575 C574 1.387 . S
H576 C588 0.930 . S
H577 C590 0.930 . S
H578 C591 0.930 . S
H579 C595 0.959 . S
H580 C595 0.959 . S
H581 C595 0.961 . S
H582 C596 0.960 . S
H583 C596 0.961 . S
H584 C596 0.959 . S
H585 C599 0.929 . S
H586 C600 0.931 . S
H587 C602 0.930 . S
C588 H576 0.930 . S
C588 C589 1.399 . S
C588 C593 1.399 . S
C589 C588 1.399 . S
C589 C590 1.376 . S
C590 H577 0.930 . S
C590 C589 1.376 . S
C590 C591 1.388 . S
C591 H578 0.930 . S
C591 C590 1.388 . S
C591 C592 1.390 . S
C592 C591 1.390 . S
C592 C593 1.394 . S
C592 C598 1.465 . S
C593 C588 1.399 . S
C593 C592 1.394 . S
C593 C594 1.516 . S
C594 C593 1.516 . S
C594 C595 1.502 . S
C594 C596 1.561 . S
C594 C597 1.526 . S
C595 H579 0.959 . S
C595 H580 0.959 . S
C595 H581 0.961 . S
C595 C594 1.502 . S
C596 H582 0.960 . S
C596 H583 0.961 . S
C596 H584 0.959 . S
C596 C594 1.561 . S
C597 C594 1.526 . S
C597 C598 1.396 . S
C597 C602 1.390 . S
C598 C592 1.465 . S
C598 C597 1.396 . S
C598 C599 1.399 . S
C599 H585 0.929 . S
C599 C598 1.399 . S
C599 C600 1.385 . S
C600 H586 0.931 . S
C600 C599 1.385 . S
C600 C601 1.389 . S
C601 C600 1.389 . S
C601 C602 1.387 . S
C602 H587 0.930 . S
C602 C597 1.390 . S
C602 C601 1.387 . S
H603 C615 0.930 . S
H604 C617 0.930 . S
H605 C618 0.930 . S
H606 C622 0.959 . S
H607 C622 0.959 . S
H608 C622 0.961 . S
H609 C623 0.960 . S
H610 C623 0.961 . S
H611 C623 0.959 . S
H612 C626 0.929 . S
H613 C627 0.931 . S
H614 C629 0.930 . S
C615 H603 0.930 . S
C615 C616 1.399 . S
C615 C620 1.399 . S
C616 C615 1.399 . S
C616 C617 1.376 . S
C617 H604 0.930 . S
C617 C616 1.376 . S
C617 C618 1.388 . S
C618 H605 0.930 . S
C618 C617 1.388 . S
C618 C619 1.390 . S
C619 C618 1.390 . S
C619 C620 1.394 . S
C619 C625 1.465 . S
C620 C615 1.399 . S
C620 C619 1.394 . S
C620 C621 1.516 . S
C621 C620 1.516 . S
C621 C622 1.502 . S
C621 C623 1.561 . S
C621 C624 1.526 . S
C622 H606 0.959 . S
C622 H607 0.959 . S
C622 H608 0.961 . S
C622 C621 1.502 . S
C623 H609 0.960 . S
C623 H610 0.961 . S
C623 H611 0.959 . S
C623 C621 1.561 . S
C624 C621 1.526 . S
C624 C625 1.396 . S
C624 C629 1.390 . S
C625 C619 1.465 . S
C625 C624 1.396 . S
C625 C626 1.399 . S
C626 H612 0.929 . S
C626 C625 1.399 . S
C626 C627 1.385 . S
C627 H613 0.931 . S
C627 C626 1.385 . S
C627 C628 1.389 . S
C628 C627 1.389 . S
C628 C629 1.387 . S
C629 H614 0.930 . S
C629 C624 1.390 . S
C629 C628 1.387 . S
H630 C642 0.930 . S
H631 C644 0.930 . S
H632 C645 0.930 . S
H633 C649 0.959 . S
H634 C649 0.959 . S
H635 C649 0.961 . S
H636 C650 0.960 . S
H637 C650 0.961 . S
H638 C650 0.959 . S
H639 C653 0.929 . S
H640 C654 0.931 . S
H641 C656 0.930 . S
C642 H630 0.930 . S
C642 C643 1.399 . S
C642 C647 1.399 . S
C643 C642 1.399 . S
C643 C644 1.376 . S
C644 H631 0.930 . S
C644 C643 1.376 . S
C644 C645 1.388 . S
C645 H632 0.930 . S
C645 C644 1.388 . S
C645 C646 1.390 . S
C646 C645 1.390 . S
C646 C647 1.394 . S
C646 C652 1.465 . S
C647 C642 1.399 . S
C647 C646 1.394 . S
C647 C648 1.516 . S
C648 C647 1.516 . S
C648 C649 1.502 . S
C648 C650 1.561 . S
C648 C651 1.526 . S
C649 H633 0.959 . S
C649 H634 0.959 . S
C649 H635 0.961 . S
C649 C648 1.502 . S
C650 H636 0.960 . S
C650 H637 0.961 . S
C650 H638 0.959 . S
C650 C648 1.561 . S
C651 C648 1.526 . S
C651 C652 1.396 . S
C651 C656 1.390 . S
C652 C646 1.465 . S
C652 C651 1.396 . S
C652 C653 1.399 . S
C653 H639 0.929 . S
C653 C652 1.399 . S
C653 C654 1.385 . S
C654 H640 0.931 . S
C654 C653 1.385 . S
C654 C655 1.389 . S
C655 C654 1.389 . S
C655 C656 1.387 . S
C656 H641 0.930 . S
C656 C651 1.390 . S
C656 C655 1.387 . S
H657 C669 0.930 . S
H658 C671 0.930 . S
H659 C672 0.930 . S
H660 C676 0.959 . S
H661 C676 0.959 . S
H662 C676 0.961 . S
H663 C677 0.960 . S
H664 C677 0.961 . S
H665 C677 0.959 . S
H666 C680 0.929 . S
H667 C681 0.931 . S
H668 C683 0.930 . S
C669 H657 0.930 . S
C669 C670 1.399 . S
C669 C674 1.399 . S
C670 C669 1.399 . S
C670 C671 1.376 . S
C671 H658 0.930 . S
C671 C670 1.376 . S
C671 C672 1.388 . S
C672 H659 0.930 . S
C672 C671 1.388 . S
C672 C673 1.390 . S
C673 C672 1.390 . S
C673 C674 1.394 . S
C673 C679 1.465 . S
C674 C669 1.399 . S
C674 C673 1.394 . S
C674 C675 1.516 . S
C675 C674 1.516 . S
C675 C676 1.502 . S
C675 C677 1.561 . S
C675 C678 1.526 . S
C676 H660 0.959 . S
C676 H661 0.959 . S
C676 H662 0.961 . S
C676 C675 1.502 . S
C677 H663 0.960 . S
C677 H664 0.961 . S
C677 H665 0.959 . S
C677 C675 1.561 . S
C678 C675 1.526 . S
C678 C679 1.396 . S
C678 C683 1.390 . S
C679 C673 1.465 . S
C679 C678 1.396 . S
C679 C680 1.399 . S
C680 H666 0.929 . S
C680 C679 1.399 . S
C680 C681 1.385 . S
C681 H667 0.931 . S
C681 C680 1.385 . S
C681 C682 1.389 . S
C682 C681 1.389 . S
C682 C683 1.387 . S
C683 H668 0.930 . S
C683 C678 1.390 . S
C683 C682 1.387 . S
H684 C696 0.930 . S
H685 C698 0.930 . S
H686 C699 0.930 . S
H687 C703 0.959 . S
H688 C703 0.959 . S
H689 C703 0.961 . S
H690 C704 0.960 . S
H691 C704 0.961 . S
H692 C704 0.959 . S
H693 C707 0.929 . S
H694 C708 0.931 . S
H695 C710 0.930 . S
C696 H684 0.930 . S
C696 C697 1.399 . S
C696 C701 1.399 . S
C697 C696 1.399 . S
C697 C698 1.376 . S
C698 H685 0.930 . S
C698 C697 1.376 . S
C698 C699 1.388 . S
C699 H686 0.930 . S
C699 C698 1.388 . S
C699 C700 1.390 . S
C700 C699 1.390 . S
C700 C701 1.394 . S
C700 C706 1.465 . S
C701 C696 1.399 . S
C701 C700 1.394 . S
C701 C702 1.516 . S
C702 C701 1.516 . S
C702 C703 1.502 . S
C702 C704 1.561 . S
C702 C705 1.526 . S
C703 H687 0.959 . S
C703 H688 0.959 . S
C703 H689 0.961 . S
C703 C702 1.502 . S
C704 H690 0.960 . S
C704 H691 0.961 . S
C704 H692 0.959 . S
C704 C702 1.561 . S
C705 C702 1.526 . S
C705 C706 1.396 . S
C705 C710 1.390 . S
C706 C700 1.465 . S
C706 C705 1.396 . S
C706 C707 1.399 . S
C707 H693 0.929 . S
C707 C706 1.399 . S
C707 C708 1.385 . S
C708 H694 0.931 . S
C708 C707 1.385 . S
C708 C709 1.389 . S
C709 C708 1.389 . S
C709 C710 1.387 . S
C710 H695 0.930 . S
C710 C705 1.390 . S
C710 C709 1.387 . S
H711 C723 0.930 . S
H712 C725 0.930 . S
H713 C726 0.930 . S
H714 C730 0.959 . S
H715 C730 0.959 . S
H716 C730 0.961 . S
H717 C731 0.960 . S
H718 C731 0.961 . S
H719 C731 0.959 . S
H720 C734 0.929 . S
H721 C735 0.931 . S
H722 C737 0.930 . S
C723 H711 0.930 . S
C723 C724 1.399 . S
C723 C728 1.399 . S
C724 C723 1.399 . S
C724 C725 1.376 . S
C725 H712 0.930 . S
C725 C724 1.376 . S
C725 C726 1.388 . S
C726 H713 0.930 . S
C726 C725 1.388 . S
C726 C727 1.390 . S
C727 C726 1.390 . S
C727 C728 1.394 . S
C727 C733 1.465 . S
C728 C723 1.399 . S
C728 C727 1.394 . S
C728 C729 1.516 . S
C729 C728 1.516 . S
C729 C730 1.502 . S
C729 C731 1.561 . S
C729 C732 1.526 . S
C730 H714 0.959 . S
C730 H715 0.959 . S
C730 H716 0.961 . S
C730 C729 1.502 . S
C731 H717 0.960 . S
C731 H718 0.961 . S
C731 H719 0.959 . S
C731 C729 1.561 . S
C732 C729 1.526 . S
C732 C733 1.396 . S
C732 C737 1.390 . S
C733 C727 1.465 . S
C733 C732 1.396 . S
C733 C734 1.399 . S
C734 H720 0.929 . S
C734 C733 1.399 . S
C734 C735 1.385 . S
C735 H721 0.931 . S
C735 C734 1.385 . S
C735 C736 1.389 . S
C736 C735 1.389 . S
C736 C737 1.387 . S
C737 H722 0.930 . S
C737 C732 1.390 . S
C737 C736 1.387 . S
H738 C750 0.930 . S
H739 C752 0.930 . S
H740 C753 0.930 . S
H741 C757 0.959 . S
H742 C757 0.959 . S
H743 C757 0.961 . S
H744 C758 0.960 . S
H745 C758 0.961 . S
H746 C758 0.959 . S
H747 C761 0.929 . S
H748 C762 0.931 . S
H749 C764 0.930 . S
C750 H738 0.930 . S
C750 C751 1.399 . S
C750 C755 1.399 . S
C751 C750 1.399 . S
C751 C752 1.376 . S
C752 H739 0.930 . S
C752 C751 1.376 . S
C752 C753 1.388 . S
C753 H740 0.930 . S
C753 C752 1.388 . S
C753 C754 1.390 . S
C754 C753 1.390 . S
C754 C755 1.394 . S
C754 C760 1.465 . S
C755 C750 1.399 . S
C755 C754 1.394 . S
C755 C756 1.516 . S
C756 C755 1.516 . S
C756 C757 1.502 . S
C756 C758 1.561 . S
C756 C759 1.526 . S
C757 H741 0.959 . S
C757 H742 0.959 . S
C757 H743 0.961 . S
C757 C756 1.502 . S
C758 H744 0.960 . S
C758 H745 0.961 . S
C758 H746 0.959 . S
C758 C756 1.561 . S
C759 C756 1.526 . S
C759 C760 1.396 . S
C759 C764 1.390 . S
C760 C754 1.465 . S
C760 C759 1.396 . S
C760 C761 1.399 . S
C761 H747 0.929 . S
C761 C760 1.399 . S
C761 C762 1.385 . S
C762 H748 0.931 . S
C762 C761 1.385 . S
C762 C763 1.389 . S
C763 C762 1.389 . S
C763 C764 1.387 . S
C764 H749 0.930 . S
C764 C759 1.390 . S
C764 C763 1.387 . S
H765 C777 0.930 . S
H766 C779 0.930 . S
H767 C780 0.930 . S
H768 C784 0.959 . S
H769 C784 0.959 . S
H770 C784 0.961 . S
H771 C785 0.960 . S
H772 C785 0.961 . S
H773 C785 0.959 . S
H774 C788 0.929 . S
H775 C789 0.931 . S
H776 C791 0.930 . S
C777 H765 0.930 . S
C777 C778 1.399 . S
C777 C782 1.399 . S
C778 C777 1.399 . S
C778 C779 1.376 . S
C779 H766 0.930 . S
C779 C778 1.376 . S
C779 C780 1.388 . S
C780 H767 0.930 . S
C780 C779 1.388 . S
C780 C781 1.390 . S
C781 C780 1.390 . S
C781 C782 1.394 . S
C781 C787 1.465 . S
C782 C777 1.399 . S
C782 C781 1.394 . S
C782 C783 1.516 . S
C783 C782 1.516 . S
C783 C784 1.502 . S
C783 C785 1.561 . S
C783 C786 1.526 . S
C784 H768 0.959 . S
C784 H769 0.959 . S
C784 H770 0.961 . S
C784 C783 1.502 . S
C785 H771 0.960 . S
C785 H772 0.961 . S
C785 H773 0.959 . S
C785 C783 1.561 . S
C786 C783 1.526 . S
C786 C787 1.396 . S
C786 C791 1.390 . S
C787 C781 1.465 . S
C787 C786 1.396 . S
C787 C788 1.399 . S
C788 H774 0.929 . S
C788 C787 1.399 . S
C788 C789 1.385 . S
C789 H775 0.931 . S
C789 C788 1.385 . S
C789 C790 1.389 . S
C790 C789 1.389 . S
C790 C791 1.387 . S
C791 H776 0.930 . S
C791 C786 1.390 . S
C791 C790 1.387 . S
H792 C804 0.930 . S
H793 C806 0.930 . S
H794 C807 0.930 . S
H795 C811 0.959 . S
H796 C811 0.959 . S
H797 C811 0.961 . S
H798 C812 0.960 . S
H799 C812 0.961 . S
H800 C812 0.959 . S
H801 C815 0.929 . S
H802 C816 0.931 . S
H803 C818 0.930 . S
C804 H792 0.930 . S
C804 C805 1.399 . S
C804 C809 1.399 . S
C805 C804 1.399 . S
C805 C806 1.376 . S
C806 H793 0.930 . S
C806 C805 1.376 . S
C806 C807 1.388 . S
C807 H794 0.930 . S
C807 C806 1.388 . S
C807 C808 1.390 . S
C808 C807 1.390 . S
C808 C809 1.394 . S
C808 C814 1.465 . S
C809 C804 1.399 . S
C809 C808 1.394 . S
C809 C810 1.516 . S
C810 C809 1.516 . S
C810 C811 1.502 . S
C810 C812 1.561 . S
C810 C813 1.526 . S
C811 H795 0.959 . S
C811 H796 0.959 . S
C811 H797 0.961 . S
C811 C810 1.502 . S
C812 H798 0.960 . S
C812 H799 0.961 . S
C812 H800 0.959 . S
C812 C810 1.561 . S
C813 C810 1.526 . S
C813 C814 1.396 . S
C813 C818 1.390 . S
C814 C808 1.465 . S
C814 C813 1.396 . S
C814 C815 1.399 . S
C815 H801 0.929 . S
C815 C814 1.399 . S
C815 C816 1.385 . S
C816 H802 0.931 . S
C816 C815 1.385 . S
C816 C817 1.389 . S
C817 C816 1.389 . S
C817 C818 1.387 . S
C818 H803 0.930 . S
C818 C813 1.390 . S
C818 C817 1.387 . S
H819 C831 0.930 . S
H820 C833 0.930 . S
H821 C834 0.930 . S
H822 C838 0.959 . S
H823 C838 0.959 . S
H824 C838 0.961 . S
H825 C839 0.960 . S
H826 C839 0.961 . S
H827 C839 0.959 . S
H828 C842 0.929 . S
H829 C843 0.931 . S
H830 C845 0.930 . S
C831 H819 0.930 . S
C831 C832 1.399 . S
C831 C836 1.399 . S
C832 C831 1.399 . S
C832 C833 1.376 . S
C833 H820 0.930 . S
C833 C832 1.376 . S
C833 C834 1.388 . S
C834 H821 0.930 . S
C834 C833 1.388 . S
C834 C835 1.390 . S
C835 C834 1.390 . S
C835 C836 1.394 . S
C835 C841 1.465 . S
C836 C831 1.399 . S
C836 C835 1.394 . S
C836 C837 1.516 . S
C837 C836 1.516 . S
C837 C838 1.502 . S
C837 C839 1.561 . S
C837 C840 1.526 . S
C838 H822 0.959 . S
C838 H823 0.959 . S
C838 H824 0.961 . S
C838 C837 1.502 . S
C839 H825 0.960 . S
C839 H826 0.961 . S
C839 H827 0.959 . S
C839 C837 1.561 . S
C840 C837 1.526 . S
C840 C841 1.396 . S
C840 C845 1.390 . S
C841 C835 1.465 . S
C841 C840 1.396 . S
C841 C842 1.399 . S
C842 H828 0.929 . S
C842 C841 1.399 . S
C842 C843 1.385 . S
C843 H829 0.931 . S
C843 C842 1.385 . S
C843 C844 1.389 . S
C844 C843 1.389 . S
C844 C845 1.387 . S
C845 H830 0.930 . S
C845 C840 1.390 . S
C845 C844 1.387 . S
H846 C858 0.930 . S
H847 C860 0.930 . S
H848 C861 0.930 . S
H849 C865 0.959 . S
H850 C865 0.959 . S
H851 C865 0.961 . S
H852 C866 0.960 . S
H853 C866 0.961 . S
H854 C866 0.959 . S
H855 C869 0.929 . S
H856 C870 0.931 . S
H857 C872 0.930 . S
C858 H846 0.930 . S
C858 C859 1.399 . S
C858 C863 1.399 . S
C859 C858 1.399 . S
C859 C860 1.376 . S
C860 H847 0.930 . S
C860 C859 1.376 . S
C860 C861 1.388 . S
C861 H848 0.930 . S
C861 C860 1.388 . S
C861 C862 1.390 . S
C862 C861 1.390 . S
C862 C863 1.394 . S
C862 C868 1.465 . S
C863 C858 1.399 . S
C863 C862 1.394 . S
C863 C864 1.516 . S
C864 C863 1.516 . S
C864 C865 1.502 . S
C864 C866 1.561 . S
C864 C867 1.526 . S
C865 H849 0.959 . S
C865 H850 0.959 . S
C865 H851 0.961 . S
C865 C864 1.502 . S
C866 H852 0.960 . S
C866 H853 0.961 . S
C866 H854 0.959 . S
C866 C864 1.561 . S
C867 C864 1.526 . S
C867 C868 1.396 . S
C867 C872 1.390 . S
C868 C862 1.465 . S
C868 C867 1.396 . S
C868 C869 1.399 . S
C869 H855 0.929 . S
C869 C868 1.399 . S
C869 C870 1.385 . S
C870 H856 0.931 . S
C870 C869 1.385 . S
C870 C871 1.389 . S
C871 C870 1.389 . S
C871 C872 1.387 . S
C872 H857 0.930 . S
C872 C867 1.390 . S
C872 C871 1.387 . S
H873 C885 0.930 . S
H874 C887 0.930 . S
H875 C888 0.930 . S
H876 C892 0.959 . S
H877 C892 0.959 . S
H878 C892 0.961 . S
H879 C893 0.960 . S
H880 C893 0.961 . S
H881 C893 0.959 . S
H882 C896 0.929 . S
H883 C897 0.931 . S
H884 C899 0.930 . S
C885 H873 0.930 . S
C885 C886 1.399 . S
C885 C890 1.399 . S
C886 C885 1.399 . S
C886 C887 1.376 . S
C887 H874 0.930 . S
C887 C886 1.376 . S
C887 C888 1.388 . S
C888 H875 0.930 . S
C888 C887 1.388 . S
C888 C889 1.390 . S
C889 C888 1.390 . S
C889 C890 1.394 . S
C889 C895 1.465 . S
C890 C885 1.399 . S
C890 C889 1.394 . S
C890 C891 1.516 . S
C891 C890 1.516 . S
C891 C892 1.502 . S
C891 C893 1.561 . S
C891 C894 1.526 . S
C892 H876 0.959 . S
C892 H877 0.959 . S
C892 H878 0.961 . S
C892 C891 1.502 . S
C893 H879 0.960 . S
C893 H880 0.961 . S
C893 H881 0.959 . S
C893 C891 1.561 . S
C894 C891 1.526 . S
C894 C895 1.396 . S
C894 C899 1.390 . S
C895 C889 1.465 . S
C895 C894 1.396 . S
C895 C896 1.399 . S
C896 H882 0.929 . S
C896 C895 1.399 . S
C896 C897 1.385 . S
C897 H883 0.931 . S
C897 C896 1.385 . S
C897 C898 1.389 . S
C898 C897 1.389 . S
C898 C899 1.387 . S
C899 H884 0.930 . S
C899 C894 1.390 . S
C899 C898 1.387 . S
H900 C912 0.930 . S
H901 C914 0.930 . S
H902 C915 0.930 . S
H903 C919 0.959 . S
H904 C919 0.959 . S
H905 C919 0.961 . S
H906 C920 0.960 . S
H907 C920 0.961 . S
H908 C920 0.959 . S
H909 C923 0.929 . S
H910 C924 0.931 . S
H911 C926 0.930 . S
C912 H900 0.930 . S
C912 C913 1.399 . S
C912 C917 1.399 . S
C913 C912 1.399 . S
C913 C914 1.376 . S
C914 H901 0.930 . S
C914 C913 1.376 . S
C914 C915 1.388 . S
C915 H902 0.930 . S
C915 C914 1.388 . S
C915 C916 1.390 . S
C916 C915 1.390 . S
C916 C917 1.394 . S
C916 C922 1.465 . S
C917 C912 1.399 . S
C917 C916 1.394 . S
C917 C918 1.516 . S
C918 C917 1.516 . S
C918 C919 1.502 . S
C918 C920 1.561 . S
C918 C921 1.526 . S
C919 H903 0.959 . S
C919 H904 0.959 . S
C919 H905 0.961 . S
C919 C918 1.502 . S
C920 H906 0.960 . S
C920 H907 0.961 . S
C920 H908 0.959 . S
C920 C918 1.561 . S
C921 C918 1.526 . S
C921 C922 1.396 . S
C921 C926 1.390 . S
C922 C916 1.465 . S
C922 C921 1.396 . S
C922 C923 1.399 . S
C923 H909 0.929 . S
C923 C922 1.399 . S
C923 C924 1.385 . S
C924 H910 0.931 . S
C924 C923 1.385 . S
C924 C925 1.389 . S
C925 C924 1.389 . S
C925 C926 1.387 . S
C926 H911 0.930 . S
C926 C921 1.390 . S
C926 C925 1.387 . S
H927 C939 0.930 . S
H928 C941 0.930 . S
H929 C942 0.930 . S
H930 C946 0.959 . S
H931 C946 0.959 . S
H932 C946 0.961 . S
H933 C947 0.960 . S
H934 C947 0.961 . S
H935 C947 0.959 . S
H936 C950 0.929 . S
H937 C951 0.931 . S
H938 C953 0.930 . S
C939 H927 0.930 . S
C939 C940 1.399 . S
C939 C944 1.399 . S
C940 C939 1.399 . S
C940 C941 1.376 . S
C941 H928 0.930 . S
C941 C940 1.376 . S
C941 C942 1.388 . S
C942 H929 0.930 . S
C942 C941 1.388 . S
C942 C943 1.390 . S
C943 C942 1.390 . S
C943 C944 1.394 . S
C943 C949 1.465 . S
C944 C939 1.399 . S
C944 C943 1.394 . S
C944 C945 1.516 . S
C945 C944 1.516 . S
C945 C946 1.502 . S
C945 C947 1.561 . S
C945 C948 1.526 . S
C946 H930 0.959 . S
C946 H931 0.959 . S
C946 H932 0.961 . S
C946 C945 1.502 . S
C947 H933 0.960 . S
C947 H934 0.961 . S
C947 H935 0.959 . S
C947 C945 1.561 . S
C948 C945 1.526 . S
C948 C949 1.396 . S
C948 C953 1.390 . S
C949 C943 1.465 . S
C949 C948 1.396 . S
C949 C950 1.399 . S
C950 H936 0.929 . S
C950 C949 1.399 . S
C950 C951 1.385 . S
C951 H937 0.931 . S
C951 C950 1.385 . S
C951 C952 1.389 . S
C952 C951 1.389 . S
C952 C953 1.387 . S
C953 H938 0.930 . S
C953 C948 1.390 . S
C953 C952 1.387 . S
H954 C966 0.930 . S
H955 C968 0.930 . S
H956 C969 0.930 . S
H957 C973 0.959 . S
H958 C973 0.959 . S
H959 C973 0.961 . S
H960 C974 0.960 . S
H961 C974 0.961 . S
H962 C974 0.959 . S
H963 C977 0.929 . S
H964 C978 0.931 1_455 S
H965 C980 0.930 . S
C966 H954 0.930 . S
C966 C967 1.399 1_655 S
C966 C971 1.399 . S
C967 C966 1.399 1_455 S
C967 C968 1.376 . S
C968 H955 0.930 . S
C968 C967 1.376 . S
C968 C969 1.388 . S
C969 H956 0.930 . S
C969 C968 1.388 . S
C969 C970 1.390 . S
C970 C969 1.390 . S
C970 C971 1.394 1_455 S
C970 C976 1.483 . S
C971 C966 1.399 . S
C971 C970 1.394 1_655 S
C971 C972 1.516 . S
C972 C971 1.516 . S
C972 C973 1.502 . S
C972 C974 1.561 . S
C972 C975 1.526 . S
C973 H957 0.959 . S
C973 H958 0.959 . S
C973 H959 0.961 . S
C973 C972 1.502 . S
C974 H960 0.960 . S
C974 H961 0.961 . S
C974 H962 0.959 . S
C974 C972 1.561 . S
C975 C972 1.526 . S
C975 C976 1.379 1_655 S
C975 C980 1.390 . S
C976 C970 1.483 . S
C976 C975 1.379 1_455 S
C976 C977 1.396 . S
C977 H963 0.929 . S
C977 C976 1.396 . S
C977 C978 1.385 1_455 S
C978 H964 0.931 1_655 S
C978 C977 1.385 1_655 S
C978 C979 1.389 . S
C979 C978 1.389 . S
C979 C980 1.387 . S
C980 H965 0.930 . S
C980 C975 1.390 . S
C980 C979 1.387 . S
H981 C993 0.930 . S
H982 C995 0.930 . S
H983 C996 0.930 . S
H984 C1000 0.959 . S
H985 C1000 0.959 . S
H986 C1000 0.961 . S
H987 C1001 0.960 . S
H988 C1001 0.961 . S
H989 C1001 0.959 . S
H990 C1004 0.929 . S
H991 C1005 0.931 . S
H992 C1007 0.930 . S
C993 H981 0.930 . S
C993 C994 1.399 . S
C993 C998 1.399 . S
C994 C993 1.399 . S
C994 C995 1.376 . S
C995 H982 0.930 . S
C995 C994 1.376 . S
C995 C996 1.388 . S
C996 H983 0.930 . S
C996 C995 1.388 . S
C996 C997 1.390 . S
C997 C996 1.390 . S
C997 C998 1.394 . S
C997 C1003 1.465 . S
C998 C993 1.399 . S
C998 C997 1.394 . S
C998 C999 1.516 . S
C999 C998 1.516 . S
C999 C1000 1.502 . S
C999 C1001 1.561 . S
C999 C1002 1.526 . S
C1000 H984 0.959 . S
C1000 H985 0.959 . S
C1000 H986 0.961 . S
C1000 C999 1.502 . S
C1001 H987 0.960 . S
C1001 H988 0.961 . S
C1001 H989 0.959 . S
C1001 C999 1.561 . S
C1002 C999 1.526 . S
C1002 C1003 1.396 . S
C1002 C1007 1.390 . S
C1003 C997 1.465 . S
C1003 C1002 1.396 . S
C1003 C1004 1.399 . S
C1004 H990 0.929 . S
C1004 C1003 1.399 . S
C1004 C1005 1.385 . S
C1005 H991 0.931 . S
C1005 C1004 1.385 . S
C1005 C1006 1.389 . S
C1006 C1005 1.389 . S
C1006 C1007 1.387 . S
C1007 H992 0.930 . S
C1007 C1002 1.390 . S
C1007 C1006 1.387 . S
H1008 C1020 0.930 . S
H1009 C1022 0.930 . S
H1010 C1023 0.930 . S
H1011 C1027 0.959 . S
H1012 C1027 0.959 . S
H1013 C1027 0.961 . S
H1014 C1028 0.960 . S
H1015 C1028 0.961 . S
H1016 C1028 0.959 . S
H1017 C1031 0.929 . S
H1018 C1032 0.931 . S
H1019 C1034 0.930 . S
C1020 H1008 0.930 . S
C1020 C1021 1.399 . S
C1020 C1025 1.399 . S
C1021 C1020 1.399 . S
C1021 C1022 1.376 . S
C1022 H1009 0.930 . S
C1022 C1021 1.376 . S
C1022 C1023 1.388 . S
C1023 H1010 0.930 . S
C1023 C1022 1.388 . S
C1023 C1024 1.390 . S
C1024 C1023 1.390 . S
C1024 C1025 1.394 . S
C1024 C1030 1.465 . S
C1025 C1020 1.399 . S
C1025 C1024 1.394 . S
C1025 C1026 1.516 . S
C1026 C1025 1.516 . S
C1026 C1027 1.502 . S
C1026 C1028 1.561 . S
C1026 C1029 1.526 . S
C1027 H1011 0.959 . S
C1027 H1012 0.959 . S
C1027 H1013 0.961 . S
C1027 C1026 1.502 . S
C1028 H1014 0.960 . S
C1028 H1015 0.961 . S
C1028 H1016 0.959 . S
C1028 C1026 1.561 . S
C1029 C1026 1.526 . S
C1029 C1030 1.396 . S
C1029 C1034 1.390 . S
C1030 C1024 1.465 . S
C1030 C1029 1.396 . S
C1030 C1031 1.399 . S
C1031 H1017 0.929 . S
C1031 C1030 1.399 . S
C1031 C1032 1.385 . S
C1032 H1018 0.931 . S
C1032 C1031 1.385 . S
C1032 C1033 1.389 . S
C1033 C1032 1.389 . S
C1033 C1034 1.387 . S
C1034 H1019 0.930 . S
C1034 C1029 1.390 . S
C1034 C1033 1.387 . S
H1035 C1047 0.930 . S
H1036 C1049 0.930 . S
H1037 C1050 0.930 . S
H1038 C1054 0.959 . S
H1039 C1054 0.959 . S
H1040 C1054 0.961 . S
H1041 C1055 0.960 . S
H1042 C1055 0.961 . S
H1043 C1055 0.959 . S
H1044 C1058 0.929 . S
H1045 C1059 0.929 1_545 S
H1046 C1061 0.930 . S
C1047 H1035 0.930 . S
C1047 C1048 1.399 1_565 S
C1047 C1052 1.399 . S
C1048 C1047 1.399 1_545 S
C1048 C1049 1.376 . S
C1049 H1036 0.930 . S
C1049 C1048 1.376 . S
C1049 C1050 1.388 . S
C1050 H1037 0.930 . S
C1050 C1049 1.388 . S
C1050 C1051 1.390 . S
C1051 C1050 1.390 . S
C1051 C1052 1.394 1_545 S
C1051 C1057 1.495 . S
C1052 C1047 1.399 . S
C1052 C1051 1.394 1_565 S
C1052 C1053 1.516 . S
C1053 C1052 1.516 . S
C1053 C1054 1.502 . S
C1053 C1055 1.561 . S
C1053 C1056 1.526 . S
C1054 H1038 0.959 . S
C1054 H1039 0.959 . S
C1054 H1040 0.961 . S
C1054 C1053 1.502 . S
C1055 H1041 0.960 . S
C1055 H1042 0.961 . S
C1055 H1043 0.959 . S
C1055 C1053 1.561 . S
C1056 C1053 1.526 . S
C1056 C1057 1.353 1_565 S
C1056 C1061 1.390 . S
C1057 C1051 1.495 . S
C1057 C1056 1.353 1_545 S
C1057 C1058 1.407 . S
C1058 H1044 0.929 . S
C1058 C1057 1.407 . S
C1058 C1059 1.373 1_545 S
C1059 H1045 0.929 1_565 S
C1059 C1058 1.373 1_565 S
C1059 C1060 1.404 . S
C1060 C1059 1.404 . S
C1060 C1061 1.387 . S
C1061 H1046 0.930 . S
C1061 C1056 1.390 . S
C1061 C1060 1.387 . S
H1062 C1074 0.930 . S
H1063 C1076 0.930 . S
H1064 C1077 0.930 . S
H1065 C1081 0.959 . S
H1066 C1081 0.959 . S
H1067 C1081 0.961 . S
H1068 C1082 0.960 . S
H1069 C1082 0.961 . S
H1070 C1082 0.959 . S
H1071 C1085 0.929 . S
H1072 C1086 0.931 . S
H1073 C1088 0.930 . S
C1074 H1062 0.930 . S
C1074 C1075 1.399 . S
C1074 C1079 1.399 . S
C1075 C1074 1.399 . S
C1075 C1076 1.376 . S
C1076 H1063 0.930 . S
C1076 C1075 1.376 . S
C1076 C1077 1.388 . S
C1077 H1064 0.930 . S
C1077 C1076 1.388 . S
C1077 C1078 1.390 . S
C1078 C1077 1.390 . S
C1078 C1079 1.394 . S
C1078 C1084 1.465 . S
C1079 C1074 1.399 . S
C1079 C1078 1.394 . S
C1079 C1080 1.516 . S
C1080 C1079 1.516 . S
C1080 C1081 1.502 . S
C1080 C1082 1.561 . S
C1080 C1083 1.526 . S
C1081 H1065 0.959 . S
C1081 H1066 0.959 . S
C1081 H1067 0.961 . S
C1081 C1080 1.502 . S
C1082 H1068 0.960 . S
C1082 H1069 0.961 . S
C1082 H1070 0.959 . S
C1082 C1080 1.561 . S
C1083 C1080 1.526 . S
C1083 C1084 1.396 . S
C1083 C1088 1.390 . S
C1084 C1078 1.465 . S
C1084 C1083 1.396 . S
C1084 C1085 1.399 . S
C1085 H1071 0.929 . S
C1085 C1084 1.399 . S
C1085 C1086 1.385 . S
C1086 H1072 0.931 . S
C1086 C1085 1.385 . S
C1086 C1087 1.389 . S
C1087 C1086 1.389 . S
C1087 C1088 1.387 . S
C1088 H1073 0.930 . S
C1088 C1083 1.390 . S
C1088 C1087 1.387 . S
H1089 C1101 0.930 . S
H1090 C1103 0.930 . S
H1091 C1104 0.930 . S
H1092 C1108 0.959 . S
H1093 C1108 0.959 . S
H1094 C1108 0.961 . S
H1095 C1109 0.960 . S
H1096 C1109 0.961 . S
H1097 C1109 0.959 . S
H1098 C1112 0.929 . S
H1099 C1113 0.931 . S
H1100 C1115 0.930 . S
C1101 H1089 0.930 . S
C1101 C1102 1.399 . S
C1101 C1106 1.399 . S
C1102 C1101 1.399 . S
C1102 C1103 1.376 . S
C1103 H1090 0.930 . S
C1103 C1102 1.376 . S
C1103 C1104 1.388 . S
C1104 H1091 0.930 . S
C1104 C1103 1.388 . S
C1104 C1105 1.390 . S
C1105 C1104 1.390 . S
C1105 C1106 1.394 . S
C1105 C1111 1.465 . S
C1106 C1101 1.399 . S
C1106 C1105 1.394 . S
C1106 C1107 1.516 . S
C1107 C1106 1.516 . S
C1107 C1108 1.502 . S
C1107 C1109 1.561 . S
C1107 C1110 1.526 . S
C1108 H1092 0.959 . S
C1108 H1093 0.959 . S
C1108 H1094 0.961 . S
C1108 C1107 1.502 . S
C1109 H1095 0.960 . S
C1109 H1096 0.961 . S
C1109 H1097 0.959 . S
C1109 C1107 1.561 . S
C1110 C1107 1.526 . S
C1110 C1111 1.396 . S
C1110 C1115 1.390 . S
C1111 C1105 1.465 . S
C1111 C1110 1.396 . S
C1111 C1112 1.399 . S
C1112 H1098 0.929 . S
C1112 C1111 1.399 . S
C1112 C1113 1.385 . S
C1113 H1099 0.931 . S
C1113 C1112 1.385 . S
C1113 C1114 1.389 . S
C1114 C1113 1.389 . S
C1114 C1115 1.387 . S
C1115 H1100 0.930 . S
C1115 C1110 1.390 . S
C1115 C1114 1.387 . S
H1116 C1128 0.930 . S
H1117 C1130 0.930 . S
H1118 C1131 0.930 . S
H1119 C1135 0.959 . S
H1120 C1135 0.959 . S
H1121 C1135 0.943 1_655 S
H1122 C1136 0.960 . S
H1123 C1136 0.961 . S
H1124 C1136 0.959 . S
H1125 C1139 0.929 . S
H1126 C1140 0.931 . S
H1127 C1142 0.930 . S
C1128 H1116 0.930 . S
C1128 C1129 1.399 . S
C1128 C1133 1.399 . S
C1129 C1128 1.399 . S
C1129 C1130 1.376 . S
C1130 H1117 0.930 . S
C1130 C1129 1.376 . S
C1130 C1131 1.388 . S
C1131 H1118 0.930 . S
C1131 C1130 1.388 . S
C1131 C1132 1.390 . S
C1132 C1131 1.390 . S
C1132 C1133 1.394 . S
C1132 C1138 1.465 . S
C1133 C1128 1.399 . S
C1133 C1132 1.394 . S
C1133 C1134 1.516 . S
C1134 C1133 1.516 . S
C1134 C1135 1.502 . S
C1134 C1136 1.561 . S
C1134 C1137 1.526 . S
C1135 H1119 0.959 . S
C1135 H1120 0.959 . S
C1135 H1121 0.943 1_455 S
C1135 C1134 1.502 . S
C1136 H1122 0.960 . S
C1136 H1123 0.961 . S
C1136 H1124 0.959 . S
C1136 C1134 1.561 . S
C1137 C1134 1.526 . S
C1137 C1138 1.396 . S
C1137 C1142 1.390 . S
C1138 C1132 1.465 . S
C1138 C1137 1.396 . S
C1138 C1139 1.399 . S
C1139 H1125 0.929 . S
C1139 C1138 1.399 . S
C1139 C1140 1.385 . S
C1140 H1126 0.931 . S
C1140 C1139 1.385 . S
C1140 C1141 1.389 . S
C1141 C1140 1.389 . S
C1141 C1142 1.387 . S
C1142 H1127 0.930 . S
C1142 C1137 1.390 . S
C1142 C1141 1.387 . S
H1143 C1155 0.930 . S
H1144 C1157 0.930 . S
H1145 C1158 0.930 . S
H1146 C1162 0.959 . S
H1147 C1162 0.959 . S
H1148 C1162 0.961 . S
H1149 C1163 0.960 . S
H1150 C1163 0.961 . S
H1151 C1163 0.959 . S
H1152 C1166 0.929 . S
H1153 C1167 0.931 . S
H1154 C1169 0.930 . S
C1155 H1143 0.930 . S
C1155 C1156 1.399 . S
C1155 C1160 1.399 . S
C1156 C1155 1.399 . S
C1156 C1157 1.376 . S
C1157 H1144 0.930 . S
C1157 C1156 1.376 . S
C1157 C1158 1.388 . S
C1158 H1145 0.930 . S
C1158 C1157 1.388 . S
C1158 C1159 1.390 . S
C1159 C1158 1.390 . S
C1159 C1160 1.394 . S
C1159 C1165 1.465 . S
C1160 C1155 1.399 . S
C1160 C1159 1.394 . S
C1160 C1161 1.516 . S
C1161 C1160 1.516 . S
C1161 C1162 1.502 . S
C1161 C1163 1.561 . S
C1161 C1164 1.526 . S
C1162 H1146 0.959 . S
C1162 H1147 0.959 . S
C1162 H1148 0.961 . S
C1162 C1161 1.502 . S
C1163 H1149 0.960 . S
C1163 H1150 0.961 . S
C1163 H1151 0.959 . S
C1163 C1161 1.561 . S
C1164 C1161 1.526 . S
C1164 C1165 1.396 . S
C1164 C1169 1.390 . S
C1165 C1159 1.465 . S
C1165 C1164 1.396 . S
C1165 C1166 1.399 . S
C1166 H1152 0.929 . S
C1166 C1165 1.399 . S
C1166 C1167 1.385 . S
C1167 H1153 0.931 . S
C1167 C1166 1.385 . S
C1167 C1168 1.389 . S
C1168 C1167 1.389 . S
C1168 C1169 1.387 . S
C1169 H1154 0.930 . S
C1169 C1164 1.390 . S
C1169 C1168 1.387 . S
H1170 C1182 0.923 1_565 S
H1171 C1184 0.930 . S
H1172 C1185 0.930 . S
H1173 C1189 0.959 . S
H1174 C1189 0.959 . S
H1175 C1189 0.961 . S
H1176 C1190 0.960 . S
H1177 C1190 0.961 . S
H1178 C1190 0.959 . S
H1179 C1193 0.898 1_545 S
H1180 C1194 0.931 . S
H1181 C1196 0.930 . S
C1182 H1170 0.923 1_545 S
C1182 C1183 1.404 . S
C1182 C1187 1.400 1_545 S
C1183 C1182 1.404 . S
C1183 C1184 1.376 . S
C1184 H1171 0.930 . S
C1184 C1183 1.376 . S
C1184 C1185 1.388 . S
C1185 H1172 0.930 . S
C1185 C1184 1.388 . S
C1185 C1186 1.390 . S
C1186 C1185 1.390 . S
C1186 C1187 1.394 1_545 S
C1186 C1192 1.465 1_545 S
C1187 C1182 1.400 1_565 S
C1187 C1186 1.394 1_565 S
C1187 C1188 1.516 . S
C1188 C1187 1.516 . S
C1188 C1189 1.502 . S
C1188 C1190 1.561 . S
C1188 C1191 1.526 . S
C1189 H1173 0.959 . S
C1189 H1174 0.959 . S
C1189 H1175 0.961 . S
C1189 C1188 1.502 . S
C1190 H1176 0.960 . S
C1190 H1177 0.961 . S
C1190 H1178 0.959 . S
C1190 C1188 1.561 . S
C1191 C1188 1.526 . S
C1191 C1192 1.396 . S
C1191 C1196 1.390 . S
C1192 C1186 1.465 1_565 S
C1192 C1191 1.396 . S
C1192 C1193 1.425 . S
C1193 H1179 0.898 1_565 S
C1193 C1192 1.425 . S
C1193 C1194 1.392 . S
C1194 H1180 0.931 . S
C1194 C1193 1.392 . S
C1194 C1195 1.389 . S
C1195 C1194 1.389 . S
C1195 C1196 1.387 . S
C1196 H1181 0.930 . S
C1196 C1191 1.390 . S
C1196 C1195 1.387 . S
H1197 C1209 0.930 . S
H1198 C1211 0.930 . S
H1199 C1212 0.930 . S
H1200 C1216 0.959 . S
H1201 C1216 0.959 . S
H1202 C1216 0.961 . S
H1203 C1217 0.957 1_565 S
H1204 C1217 0.961 . S
H1205 C1217 0.959 . S
H1206 C1220 0.929 . S
H1207 C1221 0.931 . S
H1208 C1223 0.930 . S
C1209 H1197 0.930 . S
C1209 C1210 1.399 . S
C1209 C1214 1.399 . S
C1210 C1209 1.399 . S
C1210 C1211 1.376 . S
C1211 H1198 0.930 . S
C1211 C1210 1.376 . S
C1211 C1212 1.388 . S
C1212 H1199 0.930 . S
C1212 C1211 1.388 . S
C1212 C1213 1.390 . S
C1213 C1212 1.390 . S
C1213 C1214 1.394 . S
C1213 C1219 1.465 . S
C1214 C1209 1.399 . S
C1214 C1213 1.394 . S
C1214 C1215 1.516 . S
C1215 C1214 1.516 . S
C1215 C1216 1.502 . S
C1215 C1217 1.561 . S
C1215 C1218 1.526 . S
C1216 H1200 0.959 . S
C1216 H1201 0.959 . S
C1216 H1202 0.961 . S
C1216 C1215 1.502 . S
C1217 H1203 0.957 1_545 S
C1217 H1204 0.961 . S
C1217 H1205 0.959 . S
C1217 C1215 1.561 . S
C1218 C1215 1.526 . S
C1218 C1219 1.396 . S
C1218 C1223 1.390 . S
C1219 C1213 1.465 . S
C1219 C1218 1.396 . S
C1219 C1220 1.399 . S
C1220 H1206 0.929 . S
C1220 C1219 1.399 . S
C1220 C1221 1.385 . S
C1221 H1207 0.931 . S
C1221 C1220 1.385 . S
C1221 C1222 1.389 . S
C1222 C1221 1.389 . S
C1222 C1223 1.387 . S
C1223 H1208 0.930 . S
C1223 C1218 1.390 . S
C1223 C1222 1.387 . S
H1224 C1236 0.930 . S
H1225 C1238 0.930 . S
H1226 C1239 0.930 . S
H1227 C1243 0.959 . S
H1228 C1243 0.959 . S
H1229 C1243 0.961 . S
H1230 C1244 0.960 . S
H1231 C1244 0.961 . S
H1232 C1244 0.959 . S
H1233 C1247 0.929 . S
H1234 C1248 0.913 1_455 S
H1235 C1250 0.930 . S
C1236 H1224 0.930 . S
C1236 C1237 1.399 1_655 S
C1236 C1241 1.399 . S
C1237 C1236 1.399 1_455 S
C1237 C1238 1.376 . S
C1238 H1225 0.930 . S
C1238 C1237 1.376 . S
C1238 C1239 1.388 . S
C1239 H1226 0.930 . S
C1239 C1238 1.388 . S
C1239 C1240 1.390 . S
C1240 C1239 1.390 . S
C1240 C1241 1.394 1_455 S
C1240 C1246 1.466 . S
C1241 C1236 1.399 . S
C1241 C1240 1.394 1_655 S
C1241 C1242 1.516 . S
C1242 C1241 1.516 . S
C1242 C1243 1.502 . S
C1242 C1244 1.561 . S
C1242 C1245 1.526 . S
C1243 H1227 0.959 . S
C1243 H1228 0.959 . S
C1243 H1229 0.961 . S
C1243 C1242 1.502 . S
C1244 H1230 0.960 . S
C1244 H1231 0.961 . S
C1244 H1232 0.959 . S
C1244 C1242 1.561 . S
C1245 C1242 1.526 . S
C1245 C1246 1.359 1_655 S
C1245 C1250 1.390 . S
C1246 C1240 1.466 . S
C1246 C1245 1.359 1_455 S
C1246 C1247 1.429 . S
C1247 H1233 0.929 . S
C1247 C1246 1.429 . S
C1247 C1248 1.380 1_455 S
C1248 H1234 0.913 1_655 S
C1248 C1247 1.380 1_655 S
C1248 C1249 1.412 . S
C1249 C1248 1.412 . S
C1249 C1250 1.387 . S
C1250 H1235 0.930 . S
C1250 C1245 1.390 . S
C1250 C1249 1.387 . S
H1251 C1263 0.930 . S
H1252 C1265 0.930 . S
H1253 C1266 0.930 . S
H1254 C1270 0.959 . S
H1255 C1270 0.959 . S
H1256 C1270 0.961 . S
H1257 C1271 0.960 . S
H1258 C1271 0.961 . S
H1259 C1271 0.959 . S
H1260 C1274 0.929 . S
H1261 C1275 0.931 . S
H1262 C1277 0.930 . S
C1263 H1251 0.930 . S
C1263 C1264 1.399 . S
C1263 C1268 1.399 . S
C1264 C1263 1.399 . S
C1264 C1265 1.376 . S
C1265 H1252 0.930 . S
C1265 C1264 1.376 . S
C1265 C1266 1.388 . S
C1266 H1253 0.930 . S
C1266 C1265 1.388 . S
C1266 C1267 1.390 . S
C1267 C1266 1.390 . S
C1267 C1268 1.394 . S
C1267 C1273 1.465 . S
C1268 C1263 1.399 . S
C1268 C1267 1.394 . S
C1268 C1269 1.516 . S
C1269 C1268 1.516 . S
C1269 C1270 1.502 . S
C1269 C1271 1.561 . S
C1269 C1272 1.526 . S
C1270 H1254 0.959 . S
C1270 H1255 0.959 . S
C1270 H1256 0.961 . S
C1270 C1269 1.502 . S
C1271 H1257 0.960 . S
C1271 H1258 0.961 . S
C1271 H1259 0.959 . S
C1271 C1269 1.561 . S
C1272 C1269 1.526 . S
C1272 C1273 1.396 . S
C1272 C1277 1.390 . S
C1273 C1267 1.465 . S
C1273 C1272 1.396 . S
C1273 C1274 1.399 . S
C1274 H1260 0.929 . S
C1274 C1273 1.399 . S
C1274 C1275 1.385 . S
C1275 H1261 0.931 . S
C1275 C1274 1.385 . S
C1275 C1276 1.389 . S
C1276 C1275 1.389 . S
C1276 C1277 1.387 . S
C1277 H1262 0.930 . S
C1277 C1272 1.390 . S
C1277 C1276 1.387 . S
H1278 C1290 0.930 . S
H1279 C1292 0.930 . S
H1280 C1293 0.930 . S
H1281 C1297 0.959 . S
H1282 C1297 0.959 . S
H1283 C1297 0.961 . S
H1284 C1298 0.960 . S
H1285 C1298 0.961 . S
H1286 C1298 0.959 . S
H1287 C1301 0.929 . S
H1288 C1302 0.931 . S
H1289 C1304 0.930 . S
C1290 H1278 0.930 . S
C1290 C1291 1.399 . S
C1290 C1295 1.399 . S
C1291 C1290 1.399 . S
C1291 C1292 1.376 . S
C1292 H1279 0.930 . S
C1292 C1291 1.376 . S
C1292 C1293 1.388 . S
C1293 H1280 0.930 . S
C1293 C1292 1.388 . S
C1293 C1294 1.390 . S
C1294 C1293 1.390 . S
C1294 C1295 1.394 . S
C1294 C1300 1.465 . S
C1295 C1290 1.399 . S
C1295 C1294 1.394 . S
C1295 C1296 1.516 . S
C1296 C1295 1.516 . S
C1296 C1297 1.502 . S
C1296 C1298 1.561 . S
C1296 C1299 1.526 . S
C1297 H1281 0.959 . S
C1297 H1282 0.959 . S
C1297 H1283 0.961 . S
C1297 C1296 1.502 . S
C1298 H1284 0.960 . S
C1298 H1285 0.961 . S
C1298 H1286 0.959 . S
C1298 C1296 1.561 . S
C1299 C1296 1.526 . S
C1299 C1300 1.396 . S
C1299 C1304 1.390 . S
C1300 C1294 1.465 . S
C1300 C1299 1.396 . S
C1300 C1301 1.399 . S
C1301 H1287 0.929 . S
C1301 C1300 1.399 . S
C1301 C1302 1.385 . S
C1302 H1288 0.931 . S
C1302 C1301 1.385 . S
C1302 C1303 1.389 . S
C1303 C1302 1.389 . S
C1303 C1304 1.387 . S
C1304 H1289 0.930 . S
C1304 C1299 1.390 . S
C1304 C1303 1.387 . S
H1305 C1317 0.930 . S
H1306 C1319 0.930 . S
H1307 C1320 0.930 . S
H1308 C1324 0.959 . S
H1309 C1324 0.959 . S
H1310 C1324 0.961 . S
H1311 C1325 0.960 . S
H1312 C1325 0.961 . S
H1313 C1325 0.959 . S
H1314 C1328 0.929 . S
H1315 C1329 0.931 . S
H1316 C1331 0.930 . S
C1317 H1305 0.930 . S
C1317 C1318 1.399 . S
C1317 C1322 1.399 . S
C1318 C1317 1.399 . S
C1318 C1319 1.376 . S
C1319 H1306 0.930 . S
C1319 C1318 1.376 . S
C1319 C1320 1.388 . S
C1320 H1307 0.930 . S
C1320 C1319 1.388 . S
C1320 C1321 1.390 . S
C1321 C1320 1.390 . S
C1321 C1322 1.394 . S
C1321 C1327 1.465 . S
C1322 C1317 1.399 . S
C1322 C1321 1.394 . S
C1322 C1323 1.516 . S
C1323 C1322 1.516 . S
C1323 C1324 1.502 . S
C1323 C1325 1.561 . S
C1323 C1326 1.526 . S
C1324 H1308 0.959 . S
C1324 H1309 0.959 . S
C1324 H1310 0.961 . S
C1324 C1323 1.502 . S
C1325 H1311 0.960 . S
C1325 H1312 0.961 . S
C1325 H1313 0.959 . S
C1325 C1323 1.561 . S
C1326 C1323 1.526 . S
C1326 C1327 1.396 . S
C1326 C1331 1.390 . S
C1327 C1321 1.465 . S
C1327 C1326 1.396 . S
C1327 C1328 1.399 1_545 S
C1328 H1314 0.929 . S
C1328 C1327 1.399 1_565 S
C1328 C1329 1.385 . S
C1329 H1315 0.931 . S
C1329 C1328 1.385 . S
C1329 C1330 1.389 . S
C1330 C1329 1.389 . S
C1330 C1331 1.387 1_565 S
C1331 H1316 0.930 . S
C1331 C1326 1.390 . S
C1331 C1330 1.387 1_545 S
H1332 C1344 0.930 . S
H1333 C1346 0.930 . S
H1334 C1347 0.930 . S
H1335 C1351 0.959 . S
H1336 C1351 0.959 . S
H1337 C1351 0.961 . S
H1338 C1352 0.960 . S
H1339 C1352 0.961 . S
H1340 C1352 0.959 . S
H1341 C1355 0.929 . S
H1342 C1356 0.931 . S
H1343 C1358 0.930 . S
C1344 H1332 0.930 . S
C1344 C1345 1.399 1_455 S
C1344 C1349 1.399 . S
C1345 C1344 1.399 1_655 S
C1345 C1346 1.376 . S
C1346 H1333 0.930 . S
C1346 C1345 1.376 . S
C1346 C1347 1.388 . S
C1347 H1334 0.930 . S
C1347 C1346 1.388 . S
C1347 C1348 1.390 1_655 S
C1348 C1347 1.390 1_455 S
C1348 C1349 1.394 . S
C1348 C1354 1.465 . S
C1349 C1344 1.399 . S
C1349 C1348 1.394 . S
C1349 C1350 1.516 . S
C1350 C1349 1.516 . S
C1350 C1351 1.502 . S
C1350 C1352 1.561 . S
C1350 C1353 1.526 . S
C1351 H1335 0.959 . S
C1351 H1336 0.959 . S
C1351 H1337 0.961 . S
C1351 C1350 1.502 . S
C1352 H1338 0.960 . S
C1352 H1339 0.961 . S
C1352 H1340 0.959 . S
C1352 C1350 1.561 . S
C1353 C1350 1.526 . S
C1353 C1354 1.396 . S
C1353 C1358 1.390 . S
C1354 C1348 1.465 . S
C1354 C1353 1.396 . S
C1354 C1355 1.399 . S
C1355 H1341 0.929 . S
C1355 C1354 1.399 . S
C1355 C1356 1.385 . S
C1356 H1342 0.931 . S
C1356 C1355 1.385 . S
C1356 C1357 1.389 . S
C1357 C1356 1.389 . S
C1357 C1358 1.387 . S
C1358 H1343 0.930 . S
C1358 C1353 1.390 . S
C1358 C1357 1.387 . S
H1359 C1371 0.930 . S
H1360 C1373 0.930 . S
H1361 C1374 0.930 . S
H1362 C1378 0.959 . S
H1363 C1378 0.959 . S
H1364 C1378 0.961 . S
H1365 C1379 0.960 . S
H1366 C1379 0.961 . S
H1367 C1379 0.959 . S
H1368 C1382 0.929 . S
H1369 C1383 0.931 . S
H1370 C1385 0.930 . S
C1371 H1359 0.930 . S
C1371 C1372 1.399 . S
C1371 C1376 1.399 . S
C1372 C1371 1.399 . S
C1372 C1373 1.376 . S
C1373 H1360 0.930 . S
C1373 C1372 1.376 . S
C1373 C1374 1.388 . S
C1374 H1361 0.930 . S
C1374 C1373 1.388 . S
C1374 C1375 1.390 . S
C1375 C1374 1.390 . S
C1375 C1376 1.394 . S
C1375 C1381 1.465 . S
C1376 C1371 1.399 . S
C1376 C1375 1.394 . S
C1376 C1377 1.516 . S
C1377 C1376 1.516 . S
C1377 C1378 1.502 . S
C1377 C1379 1.561 . S
C1377 C1380 1.526 . S
C1378 H1362 0.959 . S
C1378 H1363 0.959 . S
C1378 H1364 0.961 . S
C1378 C1377 1.502 . S
C1379 H1365 0.960 . S
C1379 H1366 0.961 . S
C1379 H1367 0.959 . S
C1379 C1377 1.561 . S
C1380 C1377 1.526 . S
C1380 C1381 1.396 . S
C1380 C1385 1.390 . S
C1381 C1375 1.465 . S
C1381 C1380 1.396 . S
C1381 C1382 1.399 . S
C1382 H1368 0.929 . S
C1382 C1381 1.399 . S
C1382 C1383 1.385 . S
C1383 H1369 0.931 . S
C1383 C1382 1.385 . S
C1383 C1384 1.389 . S
C1384 C1383 1.389 . S
C1384 C1385 1.387 . S
C1385 H1370 0.930 . S
C1385 C1380 1.390 . S
C1385 C1384 1.387 . S
H1386 C1398 0.930 . S
H1387 C1400 0.930 . S
H1388 C1401 0.930 . S
H1389 C1405 0.959 1_545 S
H1390 C1405 0.959 . S
H1391 C1405 0.961 . S
H1392 C1406 0.960 . S
H1393 C1406 0.961 . S
H1394 C1406 0.959 1_545 S
H1395 C1409 0.929 . S
H1396 C1410 0.931 . S
H1397 C1412 0.930 . S
C1398 H1386 0.930 . S
C1398 C1399 1.399 . S
C1398 C1403 1.399 1_565 S
C1399 C1398 1.399 . S
C1399 C1400 1.376 1_565 S
C1400 H1387 0.930 . S
C1400 C1399 1.376 1_545 S
C1400 C1401 1.388 . S
C1401 H1388 0.930 . S
C1401 C1400 1.388 . S
C1401 C1402 1.390 . S
C1402 C1401 1.390 . S
C1402 C1403 1.394 . S
C1402 C1408 1.465 . S
C1403 C1398 1.399 1_545 S
C1403 C1402 1.394 . S
C1403 C1404 1.516 . S
C1404 C1403 1.516 . S
C1404 C1405 1.502 1_545 S
C1404 C1406 1.561 1_545 S
C1404 C1407 1.526 . S
C1405 H1389 0.959 1_565 S
C1405 H1390 0.959 . S
C1405 H1391 0.961 . S
C1405 C1404 1.502 1_565 S
C1406 H1392 0.960 . S
C1406 H1393 0.961 . S
C1406 H1394 0.959 1_565 S
C1406 C1404 1.561 1_565 S
C1407 C1404 1.526 . S
C1407 C1408 1.396 . S
C1407 C1412 1.390 . S
C1408 C1402 1.465 . S
C1408 C1407 1.396 . S
C1408 C1409 1.399 . S
C1409 H1395 0.929 . S
C1409 C1408 1.399 . S
C1409 C1410 1.385 . S
C1410 H1396 0.931 . S
C1410 C1409 1.385 . S
C1410 C1411 1.389 . S
C1411 C1410 1.389 . S
C1411 C1412 1.387 . S
C1412 H1397 0.930 . S
C1412 C1407 1.390 . S
C1412 C1411 1.387 . S
H1413 C1425 0.930 . S
H1414 C1427 0.930 . S
H1415 C1428 0.930 . S
H1416 C1432 0.959 . S
H1417 C1432 0.959 1_455 S
H1418 C1432 0.961 . S
H1419 C1433 0.960 . S
H1420 C1433 0.961 . S
H1421 C1433 0.959 . S
H1422 C1436 0.929 . S
H1423 C1437 0.931 . S
H1424 C1439 0.930 . S
C1425 H1413 0.930 . S
C1425 C1426 1.399 . S
C1425 C1430 1.399 1_655 S
C1426 C1425 1.399 . S
C1426 C1427 1.376 1_655 S
C1427 H1414 0.930 . S
C1427 C1426 1.376 1_455 S
C1427 C1428 1.388 . S
C1428 H1415 0.930 . S
C1428 C1427 1.388 . S
C1428 C1429 1.390 . S
C1429 C1428 1.390 . S
C1429 C1430 1.394 . S
C1429 C1435 1.465 . S
C1430 C1425 1.399 1_455 S
C1430 C1429 1.394 . S
C1430 C1431 1.516 . S
C1431 C1430 1.516 . S
C1431 C1432 1.502 1_455 S
C1431 C1433 1.561 . S
C1431 C1434 1.526 . S
C1432 H1416 0.959 . S
C1432 H1417 0.959 1_655 S
C1432 H1418 0.961 . S
C1432 C1431 1.502 1_655 S
C1433 H1419 0.960 . S
C1433 H1420 0.961 . S
C1433 H1421 0.959 . S
C1433 C1431 1.561 . S
C1434 C1431 1.526 . S
C1434 C1435 1.396 . S
C1434 C1439 1.390 . S
C1435 C1429 1.465 . S
C1435 C1434 1.396 . S
C1435 C1436 1.399 . S
C1436 H1422 0.929 . S
C1436 C1435 1.399 . S
C1436 C1437 1.385 . S
C1437 H1423 0.931 . S
C1437 C1436 1.385 . S
C1437 C1438 1.389 . S
C1438 C1437 1.389 . S
C1438 C1439 1.387 . S
C1439 H1424 0.930 . S
C1439 C1434 1.390 . S
C1439 C1438 1.387 . S
H1440 C1452 0.930 . S
H1441 C1454 0.930 . S
H1442 C1455 0.930 . S
H1443 C1459 0.959 . S
H1444 C1459 0.959 . S
H1445 C1459 0.961 1_554 S
H1446 C1460 0.960 . S
H1447 C1460 0.961 1_556 S
H1448 C1460 0.959 . S
H1449 C1463 0.929 . S
H1450 C1464 0.931 . S
H1451 C1466 0.930 . S
C1452 H1440 0.930 . S
C1452 C1453 1.399 . S
C1452 C1457 1.399 . S
C1453 C1452 1.399 . S
C1453 C1454 1.376 . S
C1454 H1441 0.930 . S
C1454 C1453 1.376 . S
C1454 C1455 1.388 . S
C1455 H1442 0.930 . S
C1455 C1454 1.388 . S
C1455 C1456 1.390 . S
C1456 C1455 1.390 . S
C1456 C1457 1.394 . S
C1456 C1462 1.465 1_554 S
C1457 C1452 1.399 . S
C1457 C1456 1.394 . S
C1457 C1458 1.523 . S
C1458 C1457 1.523 . S
C1458 C1459 1.501 1_554 S
C1458 C1460 1.562 1_455 S
C1458 C1461 1.518 1_554 S
C1459 H1443 0.959 . S
C1459 H1444 0.959 . S
C1459 H1445 0.961 1_556 S
C1459 C1458 1.501 1_556 S
C1460 H1446 0.960 . S
C1460 H1447 0.961 1_554 S
C1460 H1448 0.959 . S
C1460 C1458 1.562 1_655 S
C1461 C1458 1.518 1_556 S
C1461 C1462 1.396 . S
C1461 C1466 1.390 . S
C1462 C1456 1.465 1_556 S
C1462 C1461 1.396 . S
C1462 C1463 1.399 . S
C1463 H1449 0.929 . S
C1463 C1462 1.399 . S
C1463 C1464 1.385 . S
C1464 H1450 0.931 . S
C1464 C1463 1.385 . S
C1464 C1465 1.389 . S
C1465 C1464 1.389 . S
C1465 C1466 1.387 . S
C1466 H1451 0.930 . S
C1466 C1461 1.390 . S
C1466 C1465 1.387 . S
H1467 C1479 0.930 . S
H1468 C1481 0.930 . S
H1469 C1482 0.930 . S
H1470 C1486 0.971 . S
H1471 C1486 1.006 . S
H1472 C1486 0.909 1_556 S
H1473 C1487 0.960 . S
H1474 C1487 0.961 1_554 S
H1475 C1487 0.959 . S
H1476 C1490 0.929 . S
H1477 C1491 0.931 . S
H1478 C1493 0.930 . S
C1479 H1467 0.930 . S
C1479 C1480 1.399 . S
C1479 C1484 1.399 . S
C1480 C1479 1.399 . S
C1480 C1481 1.376 . S
C1481 H1468 0.930 . S
C1481 C1480 1.376 . S
C1481 C1482 1.388 . S
C1482 H1469 0.930 . S
C1482 C1481 1.388 . S
C1482 C1483 1.390 . S
C1483 C1482 1.390 . S
C1483 C1484 1.394 . S
C1483 C1489 1.465 1_556 S
C1484 C1479 1.399 . S
C1484 C1483 1.394 . S
C1484 C1485 1.533 . S
C1485 C1484 1.533 . S
C1485 C1486 1.499 1_556 S
C1485 C1487 1.563 . S
C1485 C1488 1.509 1_556 S
C1486 H1470 0.971 . S
C1486 H1471 1.006 . S
C1486 H1472 0.909 1_554 S
C1486 C1485 1.499 1_554 S
C1487 H1473 0.960 . S
C1487 H1474 0.961 1_556 S
C1487 H1475 0.959 . S
C1487 C1485 1.563 . S
C1488 C1485 1.509 1_554 S
C1488 C1489 1.396 . S
C1488 C1493 1.390 . S
C1489 C1483 1.465 1_554 S
C1489 C1488 1.396 . S
C1489 C1490 1.399 . S
C1490 H1476 0.929 . S
C1490 C1489 1.399 . S
C1490 C1491 1.385 . S
C1491 H1477 0.931 . S
C1491 C1490 1.385 . S
C1491 C1492 1.389 . S
C1492 C1491 1.389 . S
C1492 C1493 1.387 . S
C1493 H1478 0.930 . S
C1493 C1488 1.390 . S
C1493 C1492 1.387 . S
H1494 C1506 0.932 . S
H1495 C1508 0.930 . S
H1496 C1509 0.930 . S
H1497 C1513 1.012 . S
H1498 C1513 0.959 1_554 S
H1499 C1513 0.961 . S
H1500 C1514 0.960 . S
H1501 C1514 0.961 1_554 S
H1502 C1514 0.959 . S
H1503 C1517 0.929 . S
H1504 C1518 0.931 . S
H1505 C1520 0.930 1_565 S
C1506 H1494 0.932 . S
C1506 C1507 1.399 . S
C1506 C1511 1.399 . S
C1507 C1506 1.399 . S
C1507 C1508 1.376 . S
C1508 H1495 0.930 . S
C1508 C1507 1.376 . S
C1508 C1509 1.388 . S
C1509 H1496 0.930 . S
C1509 C1508 1.388 . S
C1509 C1510 1.390 . S
C1510 C1509 1.390 . S
C1510 C1511 1.394 . S
C1510 C1516 1.465 1_556 S
C1511 C1506 1.399 . S
C1511 C1510 1.394 . S
C1511 C1512 1.516 1_545 S
C1512 C1511 1.516 1_565 S
C1512 C1513 1.502 . S
C1512 C1514 1.561 . S
C1512 C1515 1.526 1_566 S
C1513 H1497 1.012 . S
C1513 H1498 0.959 1_556 S
C1513 H1499 0.961 . S
C1513 C1512 1.502 . S
C1514 H1500 0.960 . S
C1514 H1501 0.961 1_556 S
C1514 H1502 0.959 . S
C1514 C1512 1.561 . S
C1515 C1512 1.526 1_544 S
C1515 C1516 1.396 . S
C1515 C1520 1.390 . S
C1516 C1510 1.465 1_554 S
C1516 C1515 1.396 . S
C1516 C1517 1.399 . S
C1517 H1503 0.929 . S
C1517 C1516 1.399 . S
C1517 C1518 1.385 . S
C1518 H1504 0.931 . S
C1518 C1517 1.385 . S
C1518 C1519 1.389 . S
C1519 C1518 1.389 . S
C1519 C1520 1.387 . S
C1520 H1505 0.930 1_545 S
C1520 C1515 1.390 . S
C1520 C1519 1.387 . S
H1521 C1533 0.930 . S
H1522 C1535 0.921 1_655 S
H1523 C1536 0.930 . S
H1524 C1540 0.959 . S
H1525 C1540 0.959 1_554 S
H1526 C1540 0.961 . S
H1527 C1541 1.012 . S
H1528 C1541 0.919 1_554 S
H1529 C1541 0.951 1_554 S
H1530 C1544 0.929 1_655 S
H1531 C1545 0.943 . S
H1532 C1547 0.930 . S
C1533 H1521 0.930 . S
C1533 C1534 1.399 . S
C1533 C1538 1.399 . S
C1534 C1533 1.399 . S
C1534 C1535 1.387 . S
C1535 H1522 0.921 1_455 S
C1535 C1534 1.387 . S
C1535 C1536 1.388 1_455 S
C1536 H1523 0.930 . S
C1536 C1535 1.388 1_655 S
C1536 C1537 1.390 1_655 S
C1537 C1536 1.390 1_455 S
C1537 C1538 1.394 . S
C1537 C1543 1.465 1_556 S
C1538 C1533 1.399 . S
C1538 C1537 1.394 . S
C1538 C1539 1.516 . S
C1539 C1538 1.516 . S
C1539 C1540 1.502 . S
C1539 C1541 1.563 . S
C1539 C1542 1.526 1_556 S
C1540 H1524 0.959 . S
C1540 H1525 0.959 1_556 S
C1540 H1526 0.961 . S
C1540 C1539 1.502 . S
C1541 H1527 1.012 . S
C1541 H1528 0.919 1_556 S
C1541 H1529 0.951 1_556 S
C1541 C1539 1.563 . S
C1542 C1539 1.526 1_554 S
C1542 C1543 1.396 . S
C1542 C1547 1.390 . S
C1543 C1537 1.465 1_554 S
C1543 C1542 1.396 . S
C1543 C1544 1.399 . S
C1544 H1530 0.929 1_455 S
C1544 C1543 1.399 . S
C1544 C1545 1.385 . S
C1545 H1531 0.943 . S
C1545 C1544 1.385 . S
C1545 C1546 1.389 . S
C1546 C1545 1.389 . S
C1546 C1547 1.387 . S
C1547 H1532 0.930 . S
C1547 C1542 1.390 . S
C1547 C1546 1.387 . S
H1548 C1560 0.930 . S
H1549 C1562 0.930 . S
H1550 C1563 0.930 . S
H1551 C1567 0.959 . S
H1552 C1567 0.959 1_556 S
H1553 C1567 0.961 . S
H1554 C1568 1.010 . S
H1555 C1568 0.920 1_556 S
H1556 C1568 0.951 1_556 S
H1557 C1571 0.929 . S
H1558 C1572 0.931 . S
H1559 C1574 0.930 . S
C1560 H1548 0.930 . S
C1560 C1561 1.399 . S
C1560 C1565 1.399 . S
C1561 C1560 1.399 . S
C1561 C1562 1.376 . S
C1562 H1549 0.930 . S
C1562 C1561 1.376 . S
C1562 C1563 1.388 . S
C1563 H1550 0.930 . S
C1563 C1562 1.388 . S
C1563 C1564 1.390 . S
C1564 C1563 1.390 . S
C1564 C1565 1.394 . S
C1564 C1570 1.465 1_554 S
C1565 C1560 1.399 . S
C1565 C1564 1.394 . S
C1565 C1566 1.516 . S
C1566 C1565 1.516 . S
C1566 C1567 1.502 . S
C1566 C1568 1.563 . S
C1566 C1569 1.526 1_554 S
C1567 H1551 0.959 . S
C1567 H1552 0.959 1_554 S
C1567 H1553 0.961 . S
C1567 C1566 1.502 . S
C1568 H1554 1.010 . S
C1568 H1555 0.920 1_554 S
C1568 H1556 0.951 1_554 S
C1568 C1566 1.563 . S
C1569 C1566 1.526 1_556 S
C1569 C1570 1.396 . S
C1569 C1574 1.390 . S
C1570 C1564 1.465 1_556 S
C1570 C1569 1.396 . S
C1570 C1571 1.399 . S
C1571 H1557 0.929 . S
C1571 C1570 1.399 . S
C1571 C1572 1.385 . S
C1572 H1558 0.931 . S
C1572 C1571 1.385 . S
C1572 C1573 1.389 . S
C1573 C1572 1.389 . S
C1573 C1574 1.387 . S
C1574 H1559 0.930 . S
C1574 C1569 1.390 . S
C1574 C1573 1.387 . S
H1575 C1587 0.930 . S
H1576 C1589 0.930 1_565 S
H1577 C1590 0.930 1_565 S
H1578 C1594 0.959 . S
H1579 C1594 0.959 . S
H1580 C1594 0.961 1_556 S
H1581 C1595 0.960 1_556 S
H1582 C1595 0.961 . S
H1583 C1595 0.959 . S
H1584 C1598 0.929 . S
H1585 C1599 0.931 . S
H1586 C1601 0.930 . S
C1587 H1575 0.930 . S
C1587 C1588 1.399 . S
C1587 C1592 1.399 . S
C1588 C1587 1.399 . S
C1588 C1589 1.376 . S
C1589 H1576 0.930 1_545 S
C1589 C1588 1.376 . S
C1589 C1590 1.388 . S
C1590 H1577 0.930 1_545 S
C1590 C1589 1.388 . S
C1590 C1591 1.390 . S
C1591 C1590 1.390 . S
C1591 C1592 1.394 . S
C1591 C1597 1.465 1_556 S
C1592 C1587 1.399 . S
C1592 C1591 1.394 . S
C1592 C1593 1.516 1_556 S
C1593 C1592 1.516 1_554 S
C1593 C1594 1.502 . S
C1593 C1595 1.561 . S
C1593 C1596 1.526 . S
C1594 H1578 0.959 . S
C1594 H1579 0.959 . S
C1594 H1580 0.961 1_554 S
C1594 C1593 1.502 . S
C1595 H1581 0.960 1_554 S
C1595 H1582 0.961 . S
C1595 H1583 0.959 . S
C1595 C1593 1.561 . S
C1596 C1593 1.526 . S
C1596 C1597 1.396 . S
C1596 C1601 1.390 . S
C1597 C1591 1.465 1_554 S
C1597 C1596 1.396 . S
C1597 C1598 1.399 1_545 S
C1598 H1584 0.929 . S
C1598 C1597 1.399 1_565 S
C1598 C1599 1.385 . S
C1599 H1585 0.931 . S
C1599 C1598 1.385 . S
C1599 C1600 1.389 1_565 S
C1600 C1599 1.389 1_545 S
C1600 C1601 1.387 . S
C1601 H1586 0.930 . S
C1601 C1596 1.390 . S
C1601 C1600 1.387 . S
H1602 C1614 0.930 . S
H1603 C1616 0.930 . S
H1604 C1617 0.930 . S
H1605 C1621 0.959 . S
H1606 C1621 0.959 . S
H1607 C1621 0.961 . S
H1608 C1622 0.960 . S
H1609 C1622 0.961 . S
H1610 C1622 0.959 . S
H1611 C1625 0.929 . S
H1612 C1626 0.931 . S
H1613 C1628 0.930 . S
C1614 H1602 0.930 . S
C1614 C1615 1.399 . S
C1614 C1619 1.399 . S
C1615 C1614 1.399 . S
C1615 C1616 1.376 . S
C1616 H1603 0.930 . S
C1616 C1615 1.376 . S
C1616 C1617 1.388 . S
C1617 H1604 0.930 . S
C1617 C1616 1.388 . S
C1617 C1618 1.390 . S
C1618 C1617 1.390 . S
C1618 C1619 1.394 . S
C1618 C1624 1.465 . S
C1619 C1614 1.399 . S
C1619 C1618 1.394 . S
C1619 C1620 1.516 . S
C1620 C1619 1.516 . S
C1620 C1621 1.502 . S
C1620 C1622 1.561 . S
C1620 C1623 1.526 . S
C1621 H1605 0.959 . S
C1621 H1606 0.959 . S
C1621 H1607 0.961 . S
C1621 C1620 1.502 . S
C1622 H1608 0.960 . S
C1622 H1609 0.961 . S
C1622 H1610 0.959 . S
C1622 C1620 1.561 . S
C1623 C1620 1.526 . S
C1623 C1624 1.396 . S
C1623 C1628 1.390 . S
C1624 C1618 1.465 . S
C1624 C1623 1.396 . S
C1624 C1625 1.399 . S
C1625 H1611 0.929 . S
C1625 C1624 1.399 . S
C1625 C1626 1.385 . S
C1626 H1612 0.931 . S
C1626 C1625 1.385 . S
C1626 C1627 1.389 . S
C1627 C1626 1.389 . S
C1627 C1628 1.387 . S
C1628 H1613 0.930 . S
C1628 C1623 1.390 . S
C1628 C1627 1.387 . S
H1629 C1641 0.930 . S
H1630 C1643 0.930 . S
H1631 C1644 0.930 . S
H1632 C1648 0.959 . S
H1633 C1648 0.959 . S
H1634 C1648 0.961 . S
H1635 C1649 0.960 . S
H1636 C1649 0.961 . S
H1637 C1649 0.959 . S
H1638 C1652 0.929 . S
H1639 C1653 0.931 . S
H1640 C1655 0.930 . S
C1641 H1629 0.930 . S
C1641 C1642 1.399 . S
C1641 C1646 1.399 . S
C1642 C1641 1.399 . S
C1642 C1643 1.376 . S
C1643 H1630 0.930 . S
C1643 C1642 1.376 . S
C1643 C1644 1.388 . S
C1644 H1631 0.930 . S
C1644 C1643 1.388 . S
C1644 C1645 1.390 . S
C1645 C1644 1.390 . S
C1645 C1646 1.394 . S
C1645 C1651 1.465 . S
C1646 C1641 1.399 . S
C1646 C1645 1.394 . S
C1646 C1647 1.516 . S
C1647 C1646 1.516 . S
C1647 C1648 1.502 . S
C1647 C1649 1.561 . S
C1647 C1650 1.526 . S
C1648 H1632 0.959 . S
C1648 H1633 0.959 . S
C1648 H1634 0.961 . S
C1648 C1647 1.502 . S
C1649 H1635 0.960 . S
C1649 H1636 0.961 . S
C1649 H1637 0.959 . S
C1649 C1647 1.561 . S
C1650 C1647 1.526 . S
C1650 C1651 1.396 . S
C1650 C1655 1.390 . S
C1651 C1645 1.465 . S
C1651 C1650 1.396 . S
C1651 C1652 1.399 . S
C1652 H1638 0.929 . S
C1652 C1651 1.399 . S
C1652 C1653 1.385 . S
C1653 H1639 0.931 . S
C1653 C1652 1.385 . S
C1653 C1654 1.389 . S
C1654 C1653 1.389 . S
C1654 C1655 1.387 . S
C1655 H1640 0.930 . S
C1655 C1650 1.390 . S
C1655 C1654 1.387 . S
H1656 C1668 0.930 . S
H1657 C1670 0.930 . S
H1658 C1671 0.930 . S
H1659 C1675 0.959 . S
H1660 C1675 0.959 . S
H1661 C1675 0.961 . S
H1662 C1676 0.960 . S
H1663 C1676 0.961 . S
H1664 C1676 0.959 . S
H1665 C1679 0.929 . S
H1666 C1680 0.931 . S
H1667 C1682 0.930 . S
C1668 H1656 0.930 . S
C1668 C1669 1.399 . S
C1668 C1673 1.399 . S
C1669 C1668 1.399 . S
C1669 C1670 1.376 . S
C1670 H1657 0.930 . S
C1670 C1669 1.376 . S
C1670 C1671 1.388 . S
C1671 H1658 0.930 . S
C1671 C1670 1.388 . S
C1671 C1672 1.390 . S
C1672 C1671 1.390 . S
C1672 C1673 1.394 . S
C1672 C1678 1.465 . S
C1673 C1668 1.399 . S
C1673 C1672 1.394 . S
C1673 C1674 1.516 . S
C1674 C1673 1.516 . S
C1674 C1675 1.502 . S
C1674 C1676 1.561 . S
C1674 C1677 1.526 . S
C1675 H1659 0.959 . S
C1675 H1660 0.959 . S
C1675 H1661 0.961 . S
C1675 C1674 1.502 . S
C1676 H1662 0.960 . S
C1676 H1663 0.961 . S
C1676 H1664 0.959 . S
C1676 C1674 1.561 . S
C1677 C1674 1.526 . S
C1677 C1678 1.396 . S
C1677 C1682 1.390 . S
C1678 C1672 1.465 . S
C1678 C1677 1.396 . S
C1678 C1679 1.399 . S
C1679 H1665 0.929 . S
C1679 C1678 1.399 . S
C1679 C1680 1.385 . S
C1680 H1666 0.931 . S
C1680 C1679 1.385 . S
C1680 C1681 1.389 . S
C1681 C1680 1.389 . S
C1681 C1682 1.387 . S
C1682 H1667 0.930 . S
C1682 C1677 1.390 . S
C1682 C1681 1.387 . S
H1683 C1695 0.930 . S
H1684 C1697 0.930 . S
H1685 C1698 0.930 . S
H1686 C1702 0.959 . S
H1687 C1702 0.959 . S
H1688 C1702 0.961 . S
H1689 C1703 0.960 . S
H1690 C1703 0.961 . S
H1691 C1703 0.959 . S
H1692 C1706 0.929 . S
H1693 C1707 0.931 . S
H1694 C1709 0.930 . S
C1695 H1683 0.930 . S
C1695 C1696 1.399 . S
C1695 C1700 1.399 . S
C1696 C1695 1.399 . S
C1696 C1697 1.376 . S
C1697 H1684 0.930 . S
C1697 C1696 1.376 . S
C1697 C1698 1.388 . S
C1698 H1685 0.930 . S
C1698 C1697 1.388 . S
C1698 C1699 1.390 . S
C1699 C1698 1.390 . S
C1699 C1700 1.394 . S
C1699 C1705 1.465 . S
C1700 C1695 1.399 . S
C1700 C1699 1.394 . S
C1700 C1701 1.516 . S
C1701 C1700 1.516 . S
C1701 C1702 1.502 . S
C1701 C1703 1.561 . S
C1701 C1704 1.526 . S
C1702 H1686 0.959 . S
C1702 H1687 0.959 . S
C1702 H1688 0.961 . S
C1702 C1701 1.502 . S
C1703 H1689 0.960 . S
C1703 H1690 0.961 . S
C1703 H1691 0.959 . S
C1703 C1701 1.561 . S
C1704 C1701 1.526 . S
C1704 C1705 1.396 . S
C1704 C1709 1.390 . S
C1705 C1699 1.465 . S
C1705 C1704 1.396 . S
C1705 C1706 1.399 . S
C1706 H1692 0.929 . S
C1706 C1705 1.399 . S
C1706 C1707 1.385 . S
C1707 H1693 0.931 . S
C1707 C1706 1.385 . S
C1707 C1708 1.389 . S
C1708 C1707 1.389 . S
C1708 C1709 1.387 . S
C1709 H1694 0.930 . S
C1709 C1704 1.390 . S
C1709 C1708 1.387 . S
H1710 C1722 0.930 . S
H1711 C1724 0.930 . S
H1712 C1725 0.930 . S
H1713 C1729 0.959 . S
H1714 C1729 0.959 . S
H1715 C1729 0.961 . S
H1716 C1730 0.960 . S
H1717 C1730 0.961 . S
H1718 C1730 0.959 . S
H1719 C1733 0.929 . S
H1720 C1734 0.931 . S
H1721 C1736 0.930 . S
C1722 H1710 0.930 . S
C1722 C1723 1.399 . S
C1722 C1727 1.399 . S
C1723 C1722 1.399 . S
C1723 C1724 1.376 . S
C1724 H1711 0.930 . S
C1724 C1723 1.376 . S
C1724 C1725 1.388 . S
C1725 H1712 0.930 . S
C1725 C1724 1.388 . S
C1725 C1726 1.390 . S
C1726 C1725 1.390 . S
C1726 C1727 1.394 . S
C1726 C1732 1.465 . S
C1727 C1722 1.399 . S
C1727 C1726 1.394 . S
C1727 C1728 1.516 . S
C1728 C1727 1.516 . S
C1728 C1729 1.502 . S
C1728 C1730 1.561 . S
C1728 C1731 1.526 . S
C1729 H1713 0.959 . S
C1729 H1714 0.959 . S
C1729 H1715 0.961 . S
C1729 C1728 1.502 . S
C1730 H1716 0.960 . S
C1730 H1717 0.961 . S
C1730 H1718 0.959 . S
C1730 C1728 1.561 . S
C1731 C1728 1.526 . S
C1731 C1732 1.396 . S
C1731 C1736 1.390 . S
C1732 C1726 1.465 . S
C1732 C1731 1.396 . S
C1732 C1733 1.399 . S
C1733 H1719 0.929 . S
C1733 C1732 1.399 . S
C1733 C1734 1.385 . S
C1734 H1720 0.931 . S
C1734 C1733 1.385 . S
C1734 C1735 1.389 . S
C1735 C1734 1.389 . S
C1735 C1736 1.387 . S
C1736 H1721 0.930 . S
C1736 C1731 1.390 . S
C1736 C1735 1.387 . S
H1737 C1749 0.930 . S
H1738 C1751 0.930 . S
H1739 C1752 0.930 . S
H1740 C1756 0.959 . S
H1741 C1756 0.959 . S
H1742 C1756 0.961 . S
H1743 C1757 0.960 . S
H1744 C1757 0.961 . S
H1745 C1757 0.959 . S
H1746 C1760 0.929 . S
H1747 C1761 0.931 . S
H1748 C1763 0.930 . S
C1749 H1737 0.930 . S
C1749 C1750 1.399 . S
C1749 C1754 1.399 . S
C1750 C1749 1.399 . S
C1750 C1751 1.376 . S
C1751 H1738 0.930 . S
C1751 C1750 1.376 . S
C1751 C1752 1.388 . S
C1752 H1739 0.930 . S
C1752 C1751 1.388 . S
C1752 C1753 1.390 . S
C1753 C1752 1.390 . S
C1753 C1754 1.394 . S
C1753 C1759 1.465 . S
C1754 C1749 1.399 . S
C1754 C1753 1.394 . S
C1754 C1755 1.516 . S
C1755 C1754 1.516 . S
C1755 C1756 1.502 . S
C1755 C1757 1.561 . S
C1755 C1758 1.526 . S
C1756 H1740 0.959 . S
C1756 H1741 0.959 . S
C1756 H1742 0.961 . S
C1756 C1755 1.502 . S
C1757 H1743 0.960 . S
C1757 H1744 0.961 . S
C1757 H1745 0.959 . S
C1757 C1755 1.561 . S
C1758 C1755 1.526 . S
C1758 C1759 1.396 . S
C1758 C1763 1.390 . S
C1759 C1753 1.465 . S
C1759 C1758 1.396 . S
C1759 C1760 1.399 . S
C1760 H1746 0.929 . S
C1760 C1759 1.399 . S
C1760 C1761 1.385 . S
C1761 H1747 0.931 . S
C1761 C1760 1.385 . S
C1761 C1762 1.389 . S
C1762 C1761 1.389 . S
C1762 C1763 1.387 . S
C1763 H1748 0.930 . S
C1763 C1758 1.390 . S
C1763 C1762 1.387 . S
H1764 C1776 0.930 . S
H1765 C1778 0.930 . S
H1766 C1779 0.930 . S
H1767 C1783 0.959 . S
H1768 C1783 0.959 . S
H1769 C1783 0.961 . S
H1770 C1784 0.960 1_545 S
H1771 C1784 0.961 1_545 S
H1772 C1784 0.959 . S
H1773 C1787 0.929 . S
H1774 C1788 0.931 . S
H1775 C1790 0.930 . S
C1776 H1764 0.930 . S
C1776 C1777 1.399 . S
C1776 C1781 1.399 . S
C1777 C1776 1.399 . S
C1777 C1778 1.376 . S
C1778 H1765 0.930 . S
C1778 C1777 1.376 . S
C1778 C1779 1.388 . S
C1779 H1766 0.930 . S
C1779 C1778 1.388 . S
C1779 C1780 1.390 . S
C1780 C1779 1.390 . S
C1780 C1781 1.394 . S
C1780 C1786 1.465 . S
C1781 C1776 1.399 . S
C1781 C1780 1.394 . S
C1781 C1782 1.516 . S
C1782 C1781 1.516 . S
C1782 C1783 1.502 . S
C1782 C1784 1.561 . S
C1782 C1785 1.526 . S
C1783 H1767 0.959 . S
C1783 H1768 0.959 . S
C1783 H1769 0.961 . S
C1783 C1782 1.502 . S
C1784 H1770 0.960 1_565 S
C1784 H1771 0.961 1_565 S
C1784 H1772 0.959 . S
C1784 C1782 1.561 . S
C1785 C1782 1.526 . S
C1785 C1786 1.396 . S
C1785 C1790 1.390 . S
C1786 C1780 1.465 . S
C1786 C1785 1.396 . S
C1786 C1787 1.399 . S
C1787 H1773 0.929 . S
C1787 C1786 1.399 . S
C1787 C1788 1.385 . S
C1788 H1774 0.931 . S
C1788 C1787 1.385 . S
C1788 C1789 1.389 . S
C1789 C1788 1.389 . S
C1789 C1790 1.387 . S
C1790 H1775 0.930 . S
C1790 C1785 1.390 . S
C1790 C1789 1.387 . S
H1791 C1803 0.930 . S
H1792 C1805 0.930 . S
H1793 C1806 0.930 . S
H1794 C1810 0.959 . S
H1795 C1810 0.959 . S
H1796 C1810 0.961 . S
H1797 C1811 0.960 . S
H1798 C1811 0.961 . S
H1799 C1811 0.959 . S
H1800 C1814 0.929 . S
H1801 C1815 0.931 . S
H1802 C1817 0.930 . S
C1803 H1791 0.930 . S
C1803 C1804 1.399 . S
C1803 C1808 1.399 . S
C1804 C1803 1.399 . S
C1804 C1805 1.376 . S
C1805 H1792 0.930 . S
C1805 C1804 1.376 . S
C1805 C1806 1.388 . S
C1806 H1793 0.930 . S
C1806 C1805 1.388 . S
C1806 C1807 1.390 . S
C1807 C1806 1.390 . S
C1807 C1808 1.394 . S
C1807 C1813 1.465 . S
C1808 C1803 1.399 . S
C1808 C1807 1.394 . S
C1808 C1809 1.516 . S
C1809 C1808 1.516 . S
C1809 C1810 1.502 . S
C1809 C1811 1.561 . S
C1809 C1812 1.526 . S
C1810 H1794 0.959 . S
C1810 H1795 0.959 . S
C1810 H1796 0.961 . S
C1810 C1809 1.502 . S
C1811 H1797 0.960 . S
C1811 H1798 0.961 . S
C1811 H1799 0.959 . S
C1811 C1809 1.561 . S
C1812 C1809 1.526 . S
C1812 C1813 1.396 . S
C1812 C1817 1.390 . S
C1813 C1807 1.465 . S
C1813 C1812 1.396 . S
C1813 C1814 1.399 . S
C1814 H1800 0.929 . S
C1814 C1813 1.399 . S
C1814 C1815 1.385 . S
C1815 H1801 0.931 . S
C1815 C1814 1.385 . S
C1815 C1816 1.389 . S
C1816 C1815 1.389 . S
C1816 C1817 1.387 . S
C1817 H1802 0.930 . S
C1817 C1812 1.390 . S
C1817 C1816 1.387 . S
H1818 C1830 0.930 . S
H1819 C1832 0.930 . S
H1820 C1833 0.930 . S
H1821 C1837 0.959 . S
H1822 C1837 0.959 . S
H1823 C1837 0.961 . S
H1824 C1838 0.960 . S
H1825 C1838 0.961 . S
H1826 C1838 0.959 . S
H1827 C1841 0.929 . S
H1828 C1842 0.931 . S
H1829 C1844 0.930 . S
C1830 H1818 0.930 . S
C1830 C1831 1.399 . S
C1830 C1835 1.399 . S
C1831 C1830 1.399 . S
C1831 C1832 1.376 . S
C1832 H1819 0.930 . S
C1832 C1831 1.376 . S
C1832 C1833 1.388 . S
C1833 H1820 0.930 . S
C1833 C1832 1.388 . S
C1833 C1834 1.390 . S
C1834 C1833 1.390 . S
C1834 C1835 1.394 . S
C1834 C1840 1.465 . S
C1835 C1830 1.399 . S
C1835 C1834 1.394 . S
C1835 C1836 1.516 . S
C1836 C1835 1.516 . S
C1836 C1837 1.502 . S
C1836 C1838 1.561 . S
C1836 C1839 1.526 . S
C1837 H1821 0.959 . S
C1837 H1822 0.959 . S
C1837 H1823 0.961 . S
C1837 C1836 1.502 . S
C1838 H1824 0.960 . S
C1838 H1825 0.961 . S
C1838 H1826 0.959 . S
C1838 C1836 1.561 . S
C1839 C1836 1.526 . S
C1839 C1840 1.396 . S
C1839 C1844 1.390 . S
C1840 C1834 1.465 . S
C1840 C1839 1.396 . S
C1840 C1841 1.399 . S
C1841 H1827 0.929 . S
C1841 C1840 1.399 . S
C1841 C1842 1.385 . S
C1842 H1828 0.931 . S
C1842 C1841 1.385 . S
C1842 C1843 1.389 . S
C1843 C1842 1.389 . S
C1843 C1844 1.387 . S
C1844 H1829 0.930 . S
C1844 C1839 1.390 . S
C1844 C1843 1.387 . S
H1845 C1857 0.930 . S
H1846 C1859 0.930 . S
H1847 C1860 0.930 . S
H1848 C1864 0.959 . S
H1849 C1864 0.959 . S
H1850 C1864 0.961 . S
H1851 C1865 0.960 . S
H1852 C1865 0.961 . S
H1853 C1865 0.959 . S
H1854 C1868 0.929 . S
H1855 C1869 0.931 . S
H1856 C1871 0.930 . S
C1857 H1845 0.930 . S
C1857 C1858 1.399 . S
C1857 C1862 1.399 . S
C1858 C1857 1.399 . S
C1858 C1859 1.376 . S
C1859 H1846 0.930 . S
C1859 C1858 1.376 . S
C1859 C1860 1.388 . S
C1860 H1847 0.930 . S
C1860 C1859 1.388 . S
C1860 C1861 1.390 . S
C1861 C1860 1.390 . S
C1861 C1862 1.394 . S
C1861 C1867 1.465 . S
C1862 C1857 1.399 . S
C1862 C1861 1.394 . S
C1862 C1863 1.516 . S
C1863 C1862 1.516 . S
C1863 C1864 1.502 . S
C1863 C1865 1.561 . S
C1863 C1866 1.526 . S
C1864 H1848 0.959 . S
C1864 H1849 0.959 . S
C1864 H1850 0.961 . S
C1864 C1863 1.502 . S
C1865 H1851 0.960 . S
C1865 H1852 0.961 . S
C1865 H1853 0.959 . S
C1865 C1863 1.561 . S
C1866 C1863 1.526 . S
C1866 C1867 1.396 . S
C1866 C1871 1.390 . S
C1867 C1861 1.465 . S
C1867 C1866 1.396 . S
C1867 C1868 1.399 . S
C1868 H1854 0.929 . S
C1868 C1867 1.399 . S
C1868 C1869 1.385 . S
C1869 H1855 0.931 . S
C1869 C1868 1.385 . S
C1869 C1870 1.389 . S
C1870 C1869 1.389 . S
C1870 C1871 1.387 . S
C1871 H1856 0.930 . S
C1871 C1866 1.390 . S
C1871 C1870 1.387 . S
H1872 C1884 0.930 . S
H1873 C1886 0.930 . S
H1874 C1887 0.930 . S
H1875 C1891 0.959 . S
H1876 C1891 0.959 . S
H1877 C1891 0.961 . S
H1878 C1892 0.960 1_545 S
H1879 C1892 0.961 1_545 S
H1880 C1892 0.959 . S
H1881 C1895 0.929 . S
H1882 C1896 0.931 . S
H1883 C1898 0.930 . S
C1884 H1872 0.930 . S
C1884 C1885 1.399 . S
C1884 C1889 1.399 . S
C1885 C1884 1.399 . S
C1885 C1886 1.376 . S
C1886 H1873 0.930 . S
C1886 C1885 1.376 . S
C1886 C1887 1.388 . S
C1887 H1874 0.930 . S
C1887 C1886 1.388 . S
C1887 C1888 1.390 . S
C1888 C1887 1.390 . S
C1888 C1889 1.394 . S
C1888 C1894 1.465 . S
C1889 C1884 1.399 . S
C1889 C1888 1.394 . S
C1889 C1890 1.516 . S
C1890 C1889 1.516 . S
C1890 C1891 1.502 . S
C1890 C1892 1.561 . S
C1890 C1893 1.526 . S
C1891 H1875 0.959 . S
C1891 H1876 0.959 . S
C1891 H1877 0.961 . S
C1891 C1890 1.502 . S
C1892 H1878 0.960 1_565 S
C1892 H1879 0.961 1_565 S
C1892 H1880 0.959 . S
C1892 C1890 1.561 . S
C1893 C1890 1.526 . S
C1893 C1894 1.396 . S
C1893 C1898 1.390 . S
C1894 C1888 1.465 . S
C1894 C1893 1.396 . S
C1894 C1895 1.399 . S
C1895 H1881 0.929 . S
C1895 C1894 1.399 . S
C1895 C1896 1.385 . S
C1896 H1882 0.931 . S
C1896 C1895 1.385 . S
C1896 C1897 1.389 . S
C1897 C1896 1.389 . S
C1897 C1898 1.387 . S
C1898 H1883 0.930 . S
C1898 C1893 1.390 . S
C1898 C1897 1.387 . S
H1899 C1911 0.930 . S
H1900 C1913 0.930 . S
H1901 C1914 0.930 . S
H1902 C1918 0.959 . S
H1903 C1918 0.959 . S
H1904 C1918 0.961 . S
H1905 C1919 0.960 . S
H1906 C1919 0.961 . S
H1907 C1919 0.959 . S
H1908 C1922 0.929 . S
H1909 C1923 0.931 . S
H1910 C1925 0.930 . S
C1911 H1899 0.930 . S
C1911 C1912 1.399 . S
C1911 C1916 1.399 . S
C1912 C1911 1.399 . S
C1912 C1913 1.376 . S
C1913 H1900 0.930 . S
C1913 C1912 1.376 . S
C1913 C1914 1.388 . S
C1914 H1901 0.930 . S
C1914 C1913 1.388 . S
C1914 C1915 1.390 . S
C1915 C1914 1.390 . S
C1915 C1916 1.394 . S
C1915 C1921 1.465 . S
C1916 C1911 1.399 . S
C1916 C1915 1.394 . S
C1916 C1917 1.516 . S
C1917 C1916 1.516 . S
C1917 C1918 1.502 . S
C1917 C1919 1.561 . S
C1917 C1920 1.526 . S
C1918 H1902 0.959 . S
C1918 H1903 0.959 . S
C1918 H1904 0.961 . S
C1918 C1917 1.502 . S
C1919 H1905 0.960 . S
C1919 H1906 0.961 . S
C1919 H1907 0.959 . S
C1919 C1917 1.561 . S
C1920 C1917 1.526 . S
C1920 C1921 1.396 . S
C1920 C1925 1.390 . S
C1921 C1915 1.465 . S
C1921 C1920 1.396 . S
C1921 C1922 1.399 . S
C1922 H1908 0.929 . S
C1922 C1921 1.399 . S
C1922 C1923 1.385 . S
C1923 H1909 0.931 . S
C1923 C1922 1.385 . S
C1923 C1924 1.389 . S
C1924 C1923 1.389 . S
C1924 C1925 1.387 . S
C1925 H1910 0.930 . S
C1925 C1920 1.390 . S
C1925 C1924 1.387 . S
H1926 C1938 0.930 . S
H1927 C1940 0.930 . S
H1928 C1941 0.930 . S
H1929 C1945 0.959 . S
H1930 C1945 0.959 . S
H1931 C1945 0.961 . S
H1932 C1946 0.960 . S
H1933 C1946 0.961 . S
H1934 C1946 0.959 . S
H1935 C1949 0.929 . S
H1936 C1950 0.931 . S
H1937 C1952 0.930 . S
C1938 H1926 0.930 . S
C1938 C1939 1.399 . S
C1938 C1943 1.399 . S
C1939 C1938 1.399 . S
C1939 C1940 1.376 . S
C1940 H1927 0.930 . S
C1940 C1939 1.376 . S
C1940 C1941 1.388 . S
C1941 H1928 0.930 . S
C1941 C1940 1.388 . S
C1941 C1942 1.390 . S
C1942 C1941 1.390 . S
C1942 C1943 1.394 . S
C1942 C1948 1.465 . S
C1943 C1938 1.399 . S
C1943 C1942 1.394 . S
C1943 C1944 1.516 . S
C1944 C1943 1.516 . S
C1944 C1945 1.502 . S
C1944 C1946 1.561 . S
C1944 C1947 1.526 . S
C1945 H1929 0.959 . S
C1945 H1930 0.959 . S
C1945 H1931 0.961 . S
C1945 C1944 1.502 . S
C1946 H1932 0.960 . S
C1946 H1933 0.961 . S
C1946 H1934 0.959 . S
C1946 C1944 1.561 . S
C1947 C1944 1.526 . S
C1947 C1948 1.396 . S
C1947 C1952 1.390 . S
C1948 C1942 1.465 . S
C1948 C1947 1.396 . S
C1948 C1949 1.399 . S
C1949 H1935 0.929 . S
C1949 C1948 1.399 . S
C1949 C1950 1.385 . S
C1950 H1936 0.931 . S
C1950 C1949 1.385 . S
C1950 C1951 1.389 . S
C1951 C1950 1.389 . S
C1951 C1952 1.387 . S
C1952 H1937 0.930 . S
C1952 C1947 1.390 . S
C1952 C1951 1.387 . S
H1953 C1965 0.930 . S
H1954 C1967 0.930 . S
H1955 C1968 0.930 . S
H1956 C1972 0.959 . S
H1957 C1972 0.959 . S
H1958 C1972 0.961 . S
H1959 C1973 0.960 . S
H1960 C1973 0.961 . S
H1961 C1973 0.959 . S
H1962 C1976 0.929 . S
H1963 C1977 0.931 . S
H1964 C1979 0.930 . S
C1965 H1953 0.930 . S
C1965 C1966 1.399 . S
C1965 C1970 1.399 . S
C1966 C1965 1.399 . S
C1966 C1967 1.376 . S
C1967 H1954 0.930 . S
C1967 C1966 1.376 . S
C1967 C1968 1.388 . S
C1968 H1955 0.930 . S
C1968 C1967 1.388 . S
C1968 C1969 1.390 . S
C1969 C1968 1.390 . S
C1969 C1970 1.394 . S
C1969 C1975 1.465 . S
C1970 C1965 1.399 . S
C1970 C1969 1.394 . S
C1970 C1971 1.516 . S
C1971 C1970 1.516 . S
C1971 C1972 1.502 . S
C1971 C1973 1.561 . S
C1971 C1974 1.526 . S
C1972 H1956 0.959 . S
C1972 H1957 0.959 . S
C1972 H1958 0.961 . S
C1972 C1971 1.502 . S
C1973 H1959 0.960 . S
C1973 H1960 0.961 . S
C1973 H1961 0.959 . S
C1973 C1971 1.561 . S
C1974 C1971 1.526 . S
C1974 C1975 1.396 . S
C1974 C1979 1.390 . S
C1975 C1969 1.465 . S
C1975 C1974 1.396 . S
C1975 C1976 1.399 . S
C1976 H1962 0.929 . S
C1976 C1975 1.399 . S
C1976 C1977 1.385 . S
C1977 H1963 0.931 . S
C1977 C1976 1.385 . S
C1977 C1978 1.389 . S
C1978 C1977 1.389 . S
C1978 C1979 1.387 . S
C1979 H1964 0.930 . S
C1979 C1974 1.390 . S
C1979 C1978 1.387 . S
H1980 C1992 0.930 . S
H1981 C1994 0.930 . S
H1982 C1995 0.930 . S
H1983 C1999 0.959 . S
H1984 C1999 0.959 . S
H1985 C1999 0.961 . S
H1986 C2000 0.960 . S
H1987 C2000 0.961 . S
H1988 C2000 0.959 . S
H1989 C2003 0.929 . S
H1990 C2004 0.931 . S
H1991 C2006 0.930 . S
C1992 H1980 0.930 . S
C1992 C1993 1.399 . S
C1992 C1997 1.399 . S
C1993 C1992 1.399 . S
C1993 C1994 1.376 . S
C1994 H1981 0.930 . S
C1994 C1993 1.376 . S
C1994 C1995 1.388 . S
C1995 H1982 0.930 . S
C1995 C1994 1.388 . S
C1995 C1996 1.390 . S
C1996 C1995 1.390 . S
C1996 C1997 1.394 . S
C1996 C2002 1.465 . S
C1997 C1992 1.399 . S
C1997 C1996 1.394 . S
C1997 C1998 1.516 . S
C1998 C1997 1.516 . S
C1998 C1999 1.502 . S
C1998 C2000 1.561 . S
C1998 C2001 1.526 . S
C1999 H1983 0.959 . S
C1999 H1984 0.959 . S
C1999 H1985 0.961 . S
C1999 C1998 1.502 . S
C2000 H1986 0.960 . S
C2000 H1987 0.961 . S
C2000 H1988 0.959 . S
C2000 C1998 1.561 . S
C2001 C1998 1.526 . S
C2001 C2002 1.396 . S
C2001 C2006 1.390 . S
C2002 C1996 1.465 . S
C2002 C2001 1.396 . S
C2002 C2003 1.399 . S
C2003 H1989 0.929 . S
C2003 C2002 1.399 . S
C2003 C2004 1.385 . S
C2004 H1990 0.931 . S
C2004 C2003 1.385 . S
C2004 C2005 1.389 . S
C2005 C2004 1.389 . S
C2005 C2006 1.387 . S
C2006 H1991 0.930 . S
C2006 C2001 1.390 . S
C2006 C2005 1.387 . S
H2007 C2019 0.930 . S
H2008 C2021 0.930 . S
H2009 C2022 0.930 . S
H2010 C2026 0.959 . S
H2011 C2026 0.959 . S
H2012 C2026 0.961 . S
H2013 C2027 0.960 . S
H2014 C2027 0.961 . S
H2015 C2027 0.959 . S
H2016 C2030 0.929 . S
H2017 C2031 0.931 . S
H2018 C2033 0.930 . S
C2019 H2007 0.930 . S
C2019 C2020 1.399 . S
C2019 C2024 1.399 . S
C2020 C2019 1.399 . S
C2020 C2021 1.376 . S
C2021 H2008 0.930 . S
C2021 C2020 1.376 . S
C2021 C2022 1.388 . S
C2022 H2009 0.930 . S
C2022 C2021 1.388 . S
C2022 C2023 1.390 . S
C2023 C2022 1.390 . S
C2023 C2024 1.394 . S
C2023 C2029 1.465 . S
C2024 C2019 1.399 . S
C2024 C2023 1.394 . S
C2024 C2025 1.516 . S
C2025 C2024 1.516 . S
C2025 C2026 1.502 . S
C2025 C2027 1.561 . S
C2025 C2028 1.526 . S
C2026 H2010 0.959 . S
C2026 H2011 0.959 . S
C2026 H2012 0.961 . S
C2026 C2025 1.502 . S
C2027 H2013 0.960 . S
C2027 H2014 0.961 . S
C2027 H2015 0.959 . S
C2027 C2025 1.561 . S
C2028 C2025 1.526 . S
C2028 C2029 1.396 . S
C2028 C2033 1.390 . S
C2029 C2023 1.465 . S
C2029 C2028 1.396 . S
C2029 C2030 1.399 . S
C2030 H2016 0.929 . S
C2030 C2029 1.399 . S
C2030 C2031 1.385 . S
C2031 H2017 0.931 . S
C2031 C2030 1.385 . S
C2031 C2032 1.389 . S
C2032 C2031 1.389 . S
C2032 C2033 1.387 . S
C2033 H2018 0.930 . S
C2033 C2028 1.390 . S
C2033 C2032 1.387 . S
H2034 C2046 0.930 . S
H2035 C2048 0.930 . S
H2036 C2049 0.930 . S
H2037 C2053 0.959 . S
H2038 C2053 0.959 . S
H2039 C2053 0.961 . S
H2040 C2054 0.960 . S
H2041 C2054 0.961 . S
H2042 C2054 0.959 . S
H2043 C2057 0.929 . S
H2044 C2058 0.931 . S
H2045 C2060 0.930 . S
C2046 H2034 0.930 . S
C2046 C2047 1.399 . S
C2046 C2051 1.399 . S
C2047 C2046 1.399 . S
C2047 C2048 1.376 . S
C2048 H2035 0.930 . S
C2048 C2047 1.376 . S
C2048 C2049 1.388 . S
C2049 H2036 0.930 . S
C2049 C2048 1.388 . S
C2049 C2050 1.390 . S
C2050 C2049 1.390 . S
C2050 C2051 1.394 . S
C2050 C2056 1.465 . S
C2051 C2046 1.399 . S
C2051 C2050 1.394 . S
C2051 C2052 1.516 . S
C2052 C2051 1.516 . S
C2052 C2053 1.502 . S
C2052 C2054 1.561 . S
C2052 C2055 1.526 . S
C2053 H2037 0.959 . S
C2053 H2038 0.959 . S
C2053 H2039 0.961 . S
C2053 C2052 1.502 . S
C2054 H2040 0.960 . S
C2054 H2041 0.961 . S
C2054 H2042 0.959 . S
C2054 C2052 1.561 . S
C2055 C2052 1.526 . S
C2055 C2056 1.396 . S
C2055 C2060 1.390 . S
C2056 C2050 1.465 . S
C2056 C2055 1.396 . S
C2056 C2057 1.399 . S
C2057 H2043 0.929 . S
C2057 C2056 1.399 . S
C2057 C2058 1.385 . S
C2058 H2044 0.931 . S
C2058 C2057 1.385 . S
C2058 C2059 1.389 . S
C2059 C2058 1.389 . S
C2059 C2060 1.387 . S
C2060 H2045 0.930 . S
C2060 C2055 1.390 . S
C2060 C2059 1.387 . S
H2061 C2073 0.930 . S
H2062 C2075 0.930 . S
H2063 C2076 0.930 . S
H2064 C2080 0.959 . S
H2065 C2080 0.959 . S
H2066 C2080 0.961 . S
H2067 C2081 0.960 . S
H2068 C2081 0.961 . S
H2069 C2081 0.959 . S
H2070 C2084 0.929 . S
H2071 C2085 0.931 . S
H2072 C2087 0.930 . S
C2073 H2061 0.930 . S
C2073 C2074 1.399 . S
C2073 C2078 1.399 . S
C2074 C2073 1.399 . S
C2074 C2075 1.376 . S
C2075 H2062 0.930 . S
C2075 C2074 1.376 . S
C2075 C2076 1.388 . S
C2076 H2063 0.930 . S
C2076 C2075 1.388 . S
C2076 C2077 1.390 . S
C2077 C2076 1.390 . S
C2077 C2078 1.394 . S
C2077 C2083 1.465 . S
C2078 C2073 1.399 . S
C2078 C2077 1.394 . S
C2078 C2079 1.516 . S
C2079 C2078 1.516 . S
C2079 C2080 1.502 . S
C2079 C2081 1.561 . S
C2079 C2082 1.526 . S
C2080 H2064 0.959 . S
C2080 H2065 0.959 . S
C2080 H2066 0.961 . S
C2080 C2079 1.502 . S
C2081 H2067 0.960 . S
C2081 H2068 0.961 . S
C2081 H2069 0.959 . S
C2081 C2079 1.561 . S
C2082 C2079 1.526 . S
C2082 C2083 1.396 . S
C2082 C2087 1.390 . S
C2083 C2077 1.465 . S
C2083 C2082 1.396 . S
C2083 C2084 1.399 . S
C2084 H2070 0.929 . S
C2084 C2083 1.399 . S
C2084 C2085 1.385 . S
C2085 H2071 0.931 . S
C2085 C2084 1.385 . S
C2085 C2086 1.389 . S
C2086 C2085 1.389 . S
C2086 C2087 1.387 . S
C2087 H2072 0.930 . S
C2087 C2082 1.390 . S
C2087 C2086 1.387 . S
H2088 C2100 0.930 . S
H2089 C2102 0.930 . S
H2090 C2103 0.930 . S
H2091 C2107 0.959 . S
H2092 C2107 0.959 . S
H2093 C2107 0.961 . S
H2094 C2108 0.960 . S
H2095 C2108 0.961 . S
H2096 C2108 0.959 . S
H2097 C2111 0.929 . S
H2098 C2112 0.931 . S
H2099 C2114 0.930 . S
C2100 H2088 0.930 . S
C2100 C2101 1.399 . S
C2100 C2105 1.399 . S
C2101 C2100 1.399 . S
C2101 C2102 1.376 . S
C2102 H2089 0.930 . S
C2102 C2101 1.376 . S
C2102 C2103 1.388 . S
C2103 H2090 0.930 . S
C2103 C2102 1.388 . S
C2103 C2104 1.390 . S
C2104 C2103 1.390 . S
C2104 C2105 1.394 . S
C2104 C2110 1.465 . S
C2105 C2100 1.399 . S
C2105 C2104 1.394 . S
C2105 C2106 1.516 . S
C2106 C2105 1.516 . S
C2106 C2107 1.502 . S
C2106 C2108 1.561 . S
C2106 C2109 1.526 . S
C2107 H2091 0.959 . S
C2107 H2092 0.959 . S
C2107 H2093 0.961 . S
C2107 C2106 1.502 . S
C2108 H2094 0.960 . S
C2108 H2095 0.961 . S
C2108 H2096 0.959 . S
C2108 C2106 1.561 . S
C2109 C2106 1.526 . S
C2109 C2110 1.396 . S
C2109 C2114 1.390 . S
C2110 C2104 1.465 . S
C2110 C2109 1.396 . S
C2110 C2111 1.399 . S
C2111 H2097 0.929 . S
C2111 C2110 1.399 . S
C2111 C2112 1.385 . S
C2112 H2098 0.931 . S
C2112 C2111 1.385 . S
C2112 C2113 1.389 . S
C2113 C2112 1.389 . S
C2113 C2114 1.387 . S
C2114 H2099 0.930 . S
C2114 C2109 1.390 . S
C2114 C2113 1.387 . S
H2115 C2127 0.930 . S
H2116 C2129 0.930 . S
H2117 C2130 0.930 . S
H2118 C2134 0.959 . S
H2119 C2134 0.959 . S
H2120 C2134 0.961 . S
H2121 C2135 0.960 . S
H2122 C2135 0.961 . S
H2123 C2135 0.959 . S
H2124 C2138 0.929 . S
H2125 C2139 0.931 . S
H2126 C2141 0.930 . S
C2127 H2115 0.930 . S
C2127 C2128 1.399 . S
C2127 C2132 1.399 . S
C2128 C2127 1.399 . S
C2128 C2129 1.376 . S
C2129 H2116 0.930 . S
C2129 C2128 1.376 . S
C2129 C2130 1.388 . S
C2130 H2117 0.930 . S
C2130 C2129 1.388 . S
C2130 C2131 1.390 . S
C2131 C2130 1.390 . S
C2131 C2132 1.394 . S
C2131 C2137 1.465 . S
C2132 C2127 1.399 . S
C2132 C2131 1.394 . S
C2132 C2133 1.516 . S
C2133 C2132 1.516 . S
C2133 C2134 1.502 . S
C2133 C2135 1.561 . S
C2133 C2136 1.526 . S
C2134 H2118 0.959 . S
C2134 H2119 0.959 . S
C2134 H2120 0.961 . S
C2134 C2133 1.502 . S
C2135 H2121 0.960 . S
C2135 H2122 0.961 . S
C2135 H2123 0.959 . S
C2135 C2133 1.561 . S
C2136 C2133 1.526 . S
C2136 C2137 1.396 . S
C2136 C2141 1.390 . S
C2137 C2131 1.465 . S
C2137 C2136 1.396 . S
C2137 C2138 1.399 . S
C2138 H2124 0.929 . S
C2138 C2137 1.399 . S
C2138 C2139 1.385 . S
C2139 H2125 0.931 . S
C2139 C2138 1.385 . S
C2139 C2140 1.389 . S
C2140 C2139 1.389 . S
C2140 C2141 1.387 . S
C2141 H2126 0.930 . S
C2141 C2136 1.390 . S
C2141 C2140 1.387 . S
H2142 C2154 0.930 . S
H2143 C2156 0.930 . S
H2144 C2157 0.930 . S
H2145 C2161 0.959 . S
H2146 C2161 0.959 . S
H2147 C2161 0.961 . S
H2148 C2162 0.960 . S
H2149 C2162 0.961 . S
H2150 C2162 0.959 . S
H2151 C2165 0.929 . S
H2152 C2166 0.931 . S
H2153 C2168 0.930 . S
C2154 H2142 0.930 . S
C2154 C2155 1.399 . S
C2154 C2159 1.399 . S
C2155 C2154 1.399 . S
C2155 C2156 1.376 . S
C2156 H2143 0.930 . S
C2156 C2155 1.376 . S
C2156 C2157 1.388 . S
C2157 H2144 0.930 . S
C2157 C2156 1.388 . S
C2157 C2158 1.390 . S
C2158 C2157 1.390 . S
C2158 C2159 1.394 . S
C2158 C2164 1.465 . S
C2159 C2154 1.399 . S
C2159 C2158 1.394 . S
C2159 C2160 1.516 . S
C2160 C2159 1.516 . S
C2160 C2161 1.502 . S
C2160 C2162 1.561 . S
C2160 C2163 1.526 . S
C2161 H2145 0.959 . S
C2161 H2146 0.959 . S
C2161 H2147 0.961 . S
C2161 C2160 1.502 . S
C2162 H2148 0.960 . S
C2162 H2149 0.961 . S
C2162 H2150 0.959 . S
C2162 C2160 1.561 . S
C2163 C2160 1.526 . S
C2163 C2164 1.396 . S
C2163 C2168 1.390 . S
C2164 C2158 1.465 . S
C2164 C2163 1.396 . S
C2164 C2165 1.399 . S
C2165 H2151 0.929 . S
C2165 C2164 1.399 . S
C2165 C2166 1.385 . S
C2166 H2152 0.931 . S
C2166 C2165 1.385 . S
C2166 C2167 1.389 . S
C2167 C2166 1.389 . S
C2167 C2168 1.387 . S
C2168 H2153 0.930 . S
C2168 C2163 1.390 . S
C2168 C2167 1.387 . S
H2169 C2181 0.930 . S
H2170 C2183 0.930 . S
H2171 C2184 0.930 . S
H2172 C2188 0.959 . S
H2173 C2188 0.959 . S
H2174 C2188 0.961 . S
H2175 C2189 0.960 . S
H2176 C2189 0.961 . S
H2177 C2189 0.959 . S
H2178 C2192 0.929 . S
H2179 C2193 0.931 . S
H2180 C2195 0.930 . S
C2181 H2169 0.930 . S
C2181 C2182 1.399 . S
C2181 C2186 1.399 . S
C2182 C2181 1.399 . S
C2182 C2183 1.376 . S
C2183 H2170 0.930 . S
C2183 C2182 1.376 . S
C2183 C2184 1.388 . S
C2184 H2171 0.930 . S
C2184 C2183 1.388 . S
C2184 C2185 1.390 . S
C2185 C2184 1.390 . S
C2185 C2186 1.394 . S
C2185 C2191 1.465 . S
C2186 C2181 1.399 . S
C2186 C2185 1.394 . S
C2186 C2187 1.516 . S
C2187 C2186 1.516 . S
C2187 C2188 1.502 . S
C2187 C2189 1.561 . S
C2187 C2190 1.526 . S
C2188 H2172 0.959 . S
C2188 H2173 0.959 . S
C2188 H2174 0.961 . S
C2188 C2187 1.502 . S
C2189 H2175 0.960 . S
C2189 H2176 0.961 . S
C2189 H2177 0.959 . S
C2189 C2187 1.561 . S
C2190 C2187 1.526 . S
C2190 C2191 1.396 . S
C2190 C2195 1.390 . S
C2191 C2185 1.465 . S
C2191 C2190 1.396 . S
C2191 C2192 1.399 . S
C2192 H2178 0.929 . S
C2192 C2191 1.399 . S
C2192 C2193 1.385 . S
C2193 H2179 0.931 . S
C2193 C2192 1.385 . S
C2193 C2194 1.389 . S
C2194 C2193 1.389 . S
C2194 C2195 1.387 . S
C2195 H2180 0.930 . S
C2195 C2190 1.390 . S
C2195 C2194 1.387 . S
H2196 C2208 0.930 . S
H2197 C2210 0.930 . S
H2198 C2211 0.930 . S
H2199 C2215 0.959 . S
H2200 C2215 0.959 . S
H2201 C2215 0.961 . S
H2202 C2216 0.960 . S
H2203 C2216 0.961 . S
H2204 C2216 0.959 . S
H2205 C2219 0.929 . S
H2206 C2220 0.931 . S
H2207 C2222 0.930 . S
C2208 H2196 0.930 . S
C2208 C2209 1.399 . S
C2208 C2213 1.399 . S
C2209 C2208 1.399 . S
C2209 C2210 1.376 . S
C2210 H2197 0.930 . S
C2210 C2209 1.376 . S
C2210 C2211 1.388 . S
C2211 H2198 0.930 . S
C2211 C2210 1.388 . S
C2211 C2212 1.390 . S
C2212 C2211 1.390 . S
C2212 C2213 1.394 . S
C2212 C2218 1.465 . S
C2213 C2208 1.399 . S
C2213 C2212 1.394 . S
C2213 C2214 1.516 . S
C2214 C2213 1.516 . S
C2214 C2215 1.502 . S
C2214 C2216 1.561 . S
C2214 C2217 1.526 . S
C2215 H2199 0.959 . S
C2215 H2200 0.959 . S
C2215 H2201 0.961 . S
C2215 C2214 1.502 . S
C2216 H2202 0.960 . S
C2216 H2203 0.961 . S
C2216 H2204 0.959 . S
C2216 C2214 1.561 . S
C2217 C2214 1.526 . S
C2217 C2218 1.396 . S
C2217 C2222 1.390 . S
C2218 C2212 1.465 . S
C2218 C2217 1.396 . S
C2218 C2219 1.399 . S
C2219 H2205 0.929 . S
C2219 C2218 1.399 . S
C2219 C2220 1.385 . S
C2220 H2206 0.931 . S
C2220 C2219 1.385 . S
C2220 C2221 1.389 . S
C2221 C2220 1.389 . S
C2221 C2222 1.387 . S
C2222 H2207 0.930 . S
C2222 C2217 1.390 . S
C2222 C2221 1.387 . S
H2223 C2235 0.930 . S
H2224 C2237 0.930 . S
H2225 C2238 0.930 . S
H2226 C2242 0.959 . S
H2227 C2242 0.959 . S
H2228 C2242 0.961 . S
H2229 C2243 0.960 . S
H2230 C2243 0.961 . S
H2231 C2243 0.959 . S
H2232 C2246 0.929 . S
H2233 C2247 0.931 . S
H2234 C2249 0.930 . S
C2235 H2223 0.930 . S
C2235 C2236 1.399 . S
C2235 C2240 1.399 . S
C2236 C2235 1.399 . S
C2236 C2237 1.376 . S
C2237 H2224 0.930 . S
C2237 C2236 1.376 . S
C2237 C2238 1.388 . S
C2238 H2225 0.930 . S
C2238 C2237 1.388 . S
C2238 C2239 1.390 . S
C2239 C2238 1.390 . S
C2239 C2240 1.394 . S
C2239 C2245 1.465 . S
C2240 C2235 1.399 . S
C2240 C2239 1.394 . S
C2240 C2241 1.516 . S
C2241 C2240 1.516 . S
C2241 C2242 1.502 . S
C2241 C2243 1.561 . S
C2241 C2244 1.526 . S
C2242 H2226 0.959 . S
C2242 H2227 0.959 . S
C2242 H2228 0.961 . S
C2242 C2241 1.502 . S
C2243 H2229 0.960 . S
C2243 H2230 0.961 . S
C2243 H2231 0.959 . S
C2243 C2241 1.561 . S
C2244 C2241 1.526 . S
C2244 C2245 1.396 . S
C2244 C2249 1.390 . S
C2245 C2239 1.465 . S
C2245 C2244 1.396 . S
C2245 C2246 1.399 . S
C2246 H2232 0.929 . S
C2246 C2245 1.399 . S
C2246 C2247 1.385 . S
C2247 H2233 0.931 . S
C2247 C2246 1.385 . S
C2247 C2248 1.389 . S
C2248 C2247 1.389 . S
C2248 C2249 1.387 . S
C2249 H2234 0.930 . S
C2249 C2244 1.390 . S
C2249 C2248 1.387 . S
H2250 C2262 0.930 . S
H2251 C2264 0.930 . S
H2252 C2265 0.930 . S
H2253 C2269 0.959 . S
H2254 C2269 0.959 . S
H2255 C2269 0.961 . S
H2256 C2270 0.960 . S
H2257 C2270 0.961 . S
H2258 C2270 0.959 . S
H2259 C2273 0.929 . S
H2260 C2274 0.931 . S
H2261 C2276 0.930 . S
C2262 H2250 0.930 . S
C2262 C2263 1.399 . S
C2262 C2267 1.399 . S
C2263 C2262 1.399 . S
C2263 C2264 1.376 . S
C2264 H2251 0.930 . S
C2264 C2263 1.376 . S
C2264 C2265 1.388 . S
C2265 H2252 0.930 . S
C2265 C2264 1.388 . S
C2265 C2266 1.390 . S
C2266 C2265 1.390 . S
C2266 C2267 1.394 . S
C2266 C2272 1.465 . S
C2267 C2262 1.399 . S
C2267 C2266 1.394 . S
C2267 C2268 1.516 . S
C2268 C2267 1.516 . S
C2268 C2269 1.502 . S
C2268 C2270 1.561 . S
C2268 C2271 1.526 . S
C2269 H2253 0.959 . S
C2269 H2254 0.959 . S
C2269 H2255 0.961 . S
C2269 C2268 1.502 . S
C2270 H2256 0.960 . S
C2270 H2257 0.961 . S
C2270 H2258 0.959 . S
C2270 C2268 1.561 . S
C2271 C2268 1.526 . S
C2271 C2272 1.396 . S
C2271 C2276 1.390 . S
C2272 C2266 1.465 . S
C2272 C2271 1.396 . S
C2272 C2273 1.399 . S
C2273 H2259 0.929 . S
C2273 C2272 1.399 . S
C2273 C2274 1.385 . S
C2274 H2260 0.931 . S
C2274 C2273 1.385 . S
C2274 C2275 1.389 . S
C2275 C2274 1.389 . S
C2275 C2276 1.387 . S
C2276 H2261 0.930 . S
C2276 C2271 1.390 . S
C2276 C2275 1.387 . S
H2277 C2289 0.930 . S
H2278 C2291 0.930 . S
H2279 C2292 0.930 . S
H2280 C2296 0.959 . S
H2281 C2296 0.959 . S
H2282 C2296 0.961 . S
H2283 C2297 0.960 . S
H2284 C2297 0.961 . S
H2285 C2297 0.959 . S
H2286 C2300 0.929 . S
H2287 C2301 0.931 . S
H2288 C2303 0.930 . S
C2289 H2277 0.930 . S
C2289 C2290 1.399 . S
C2289 C2294 1.399 . S
C2290 C2289 1.399 . S
C2290 C2291 1.376 . S
C2291 H2278 0.930 . S
C2291 C2290 1.376 . S
C2291 C2292 1.388 . S
C2292 H2279 0.930 . S
C2292 C2291 1.388 . S
C2292 C2293 1.390 . S
C2293 C2292 1.390 . S
C2293 C2294 1.394 . S
C2293 C2299 1.465 . S
C2294 C2289 1.399 . S
C2294 C2293 1.394 . S
C2294 C2295 1.516 . S
C2295 C2294 1.516 . S
C2295 C2296 1.502 . S
C2295 C2297 1.561 . S
C2295 C2298 1.526 . S
C2296 H2280 0.959 . S
C2296 H2281 0.959 . S
C2296 H2282 0.961 . S
C2296 C2295 1.502 . S
C2297 H2283 0.960 . S
C2297 H2284 0.961 . S
C2297 H2285 0.959 . S
C2297 C2295 1.561 . S
C2298 C2295 1.526 . S
C2298 C2299 1.396 . S
C2298 C2303 1.390 . S
C2299 C2293 1.465 . S
C2299 C2298 1.396 . S
C2299 C2300 1.399 . S
C2300 H2286 0.929 . S
C2300 C2299 1.399 . S
C2300 C2301 1.385 . S
C2301 H2287 0.931 . S
C2301 C2300 1.385 . S
C2301 C2302 1.389 . S
C2302 C2301 1.389 . S
C2302 C2303 1.387 . S
C2303 H2288 0.930 . S
C2303 C2298 1.390 . S
C2303 C2302 1.387 . S
H2304 C2316 0.930 . S
H2305 C2318 0.930 . S
H2306 C2319 0.930 . S
H2307 C2323 0.959 . S
H2308 C2323 0.959 . S
H2309 C2323 0.961 . S
H2310 C2324 0.960 . S
H2311 C2324 0.961 . S
H2312 C2324 0.959 . S
H2313 C2327 0.929 . S
H2314 C2328 0.931 . S
H2315 C2330 0.930 . S
C2316 H2304 0.930 . S
C2316 C2317 1.399 . S
C2316 C2321 1.399 . S
C2317 C2316 1.399 . S
C2317 C2318 1.376 . S
C2318 H2305 0.930 . S
C2318 C2317 1.376 . S
C2318 C2319 1.388 . S
C2319 H2306 0.930 . S
C2319 C2318 1.388 . S
C2319 C2320 1.390 . S
C2320 C2319 1.390 . S
C2320 C2321 1.394 . S
C2320 C2326 1.465 . S
C2321 C2316 1.399 . S
C2321 C2320 1.394 . S
C2321 C2322 1.516 . S
C2322 C2321 1.516 . S
C2322 C2323 1.502 . S
C2322 C2324 1.561 . S
C2322 C2325 1.526 . S
C2323 H2307 0.959 . S
C2323 H2308 0.959 . S
C2323 H2309 0.961 . S
C2323 C2322 1.502 . S
C2324 H2310 0.960 . S
C2324 H2311 0.961 . S
C2324 H2312 0.959 . S
C2324 C2322 1.561 . S
C2325 C2322 1.526 . S
C2325 C2326 1.396 . S
C2325 C2330 1.390 . S
C2326 C2320 1.465 . S
C2326 C2325 1.396 . S
C2326 C2327 1.399 . S
C2327 H2313 0.929 . S
C2327 C2326 1.399 . S
C2327 C2328 1.385 . S
C2328 H2314 0.931 . S
C2328 C2327 1.385 . S
C2328 C2329 1.389 . S
C2329 C2328 1.389 . S
C2329 C2330 1.387 . S
C2330 H2315 0.930 . S
C2330 C2325 1.390 . S
C2330 C2329 1.387 . S
H2331 C2343 0.930 . S
H2332 C2345 0.930 . S
H2333 C2346 0.930 . S
H2334 C2350 0.959 . S
H2335 C2350 0.959 . S
H2336 C2350 0.961 . S
H2337 C2351 0.960 . S
H2338 C2351 0.961 . S
H2339 C2351 0.959 . S
H2340 C2354 0.929 . S
H2341 C2355 0.931 . S
H2342 C2357 0.930 . S
C2343 H2331 0.930 . S
C2343 C2344 1.399 . S
C2343 C2348 1.399 . S
C2344 C2343 1.399 . S
C2344 C2345 1.376 . S
C2345 H2332 0.930 . S
C2345 C2344 1.376 . S
C2345 C2346 1.388 . S
C2346 H2333 0.930 . S
C2346 C2345 1.388 . S
C2346 C2347 1.390 . S
C2347 C2346 1.390 . S
C2347 C2348 1.394 . S
C2347 C2353 1.465 . S
C2348 C2343 1.399 . S
C2348 C2347 1.394 . S
C2348 C2349 1.516 . S
C2349 C2348 1.516 . S
C2349 C2350 1.502 . S
C2349 C2351 1.561 . S
C2349 C2352 1.526 . S
C2350 H2334 0.959 . S
C2350 H2335 0.959 . S
C2350 H2336 0.961 . S
C2350 C2349 1.502 . S
C2351 H2337 0.960 . S
C2351 H2338 0.961 . S
C2351 H2339 0.959 . S
C2351 C2349 1.561 . S
C2352 C2349 1.526 . S
C2352 C2353 1.396 . S
C2352 C2357 1.390 . S
C2353 C2347 1.465 . S
C2353 C2352 1.396 . S
C2353 C2354 1.399 . S
C2354 H2340 0.929 . S
C2354 C2353 1.399 . S
C2354 C2355 1.385 . S
C2355 H2341 0.931 . S
C2355 C2354 1.385 . S
C2355 C2356 1.389 . S
C2356 C2355 1.389 . S
C2356 C2357 1.387 . S
C2357 H2342 0.930 . S
C2357 C2352 1.390 . S
C2357 C2356 1.387 . S
H2358 C2370 0.930 . S
H2359 C2372 0.930 . S
H2360 C2373 0.930 . S
H2361 C2377 0.959 . S
H2362 C2377 0.959 . S
H2363 C2377 0.961 . S
H2364 C2378 0.960 . S
H2365 C2378 0.961 . S
H2366 C2378 0.959 . S
H2367 C2381 0.929 . S
H2368 C2382 0.931 . S
H2369 C2384 0.930 . S
C2370 H2358 0.930 . S
C2370 C2371 1.399 . S
C2370 C2375 1.399 . S
C2371 C2370 1.399 . S
C2371 C2372 1.376 . S
C2372 H2359 0.930 . S
C2372 C2371 1.376 . S
C2372 C2373 1.388 . S
C2373 H2360 0.930 . S
C2373 C2372 1.388 . S
C2373 C2374 1.390 . S
C2374 C2373 1.390 . S
C2374 C2375 1.394 . S
C2374 C2380 1.465 . S
C2375 C2370 1.399 . S
C2375 C2374 1.394 . S
C2375 C2376 1.516 . S
C2376 C2375 1.516 . S
C2376 C2377 1.502 . S
C2376 C2378 1.561 . S
C2376 C2379 1.526 . S
C2377 H2361 0.959 . S
C2377 H2362 0.959 . S
C2377 H2363 0.961 . S
C2377 C2376 1.502 . S
C2378 H2364 0.960 . S
C2378 H2365 0.961 . S
C2378 H2366 0.959 . S
C2378 C2376 1.561 . S
C2379 C2376 1.526 . S
C2379 C2380 1.396 . S
C2379 C2384 1.390 . S
C2380 C2374 1.465 . S
C2380 C2379 1.396 . S
C2380 C2381 1.399 . S
C2381 H2367 0.929 . S
C2381 C2380 1.399 . S
C2381 C2382 1.385 . S
C2382 H2368 0.931 . S
C2382 C2381 1.385 . S
C2382 C2383 1.389 . S
C2383 C2382 1.389 . S
C2383 C2384 1.387 . S
C2384 H2369 0.930 . S
C2384 C2379 1.390 . S
C2384 C2383 1.387 . S
H2385 C2397 0.930 . S
H2386 C2399 0.930 . S
H2387 C2400 0.930 . S
H2388 C2404 0.959 . S
H2389 C2404 0.959 . S
H2390 C2404 0.961 . S
H2391 C2405 0.960 . S
H2392 C2405 0.961 . S
H2393 C2405 0.959 . S
H2394 C2408 0.929 . S
H2395 C2409 0.931 . S
H2396 C2411 0.930 . S
C2397 H2385 0.930 . S
C2397 C2398 1.399 . S
C2397 C2402 1.399 . S
C2398 C2397 1.399 . S
C2398 C2399 1.376 . S
C2399 H2386 0.930 . S
C2399 C2398 1.376 . S
C2399 C2400 1.388 . S
C2400 H2387 0.930 . S
C2400 C2399 1.388 . S
C2400 C2401 1.390 . S
C2401 C2400 1.390 . S
C2401 C2402 1.394 . S
C2401 C2407 1.465 . S
C2402 C2397 1.399 . S
C2402 C2401 1.394 . S
C2402 C2403 1.516 . S
C2403 C2402 1.516 . S
C2403 C2404 1.502 . S
C2403 C2405 1.561 . S
C2403 C2406 1.526 . S
C2404 H2388 0.959 . S
C2404 H2389 0.959 . S
C2404 H2390 0.961 . S
C2404 C2403 1.502 . S
C2405 H2391 0.960 . S
C2405 H2392 0.961 . S
C2405 H2393 0.959 . S
C2405 C2403 1.561 . S
C2406 C2403 1.526 . S
C2406 C2407 1.396 . S
C2406 C2411 1.390 . S
C2407 C2401 1.465 . S
C2407 C2406 1.396 . S
C2407 C2408 1.399 . S
C2408 H2394 0.929 . S
C2408 C2407 1.399 . S
C2408 C2409 1.385 . S
C2409 H2395 0.931 . S
C2409 C2408 1.385 . S
C2409 C2410 1.389 . S
C2410 C2409 1.389 . S
C2410 C2411 1.387 . S
C2411 H2396 0.930 . S
C2411 C2406 1.390 . S
C2411 C2410 1.387 . S
C481 C10 1.202 . S
C493 C153 1.211 . S
C508 C127 1.199 . S
C520 C23 1.208 . S
C535 C140 1.202 . S
C547 C36 1.194 . S
C562 C49 1.179 . S
C574 C101 1.187 . S
C589 C62 1.220 . S
C601 C114 1.212 . S
C616 C75 1.209 . S
C628 C88 1.201 . S
C643 C166 1.186 . S
C655 C309 1.194 . S
C670 C283 1.211 . S
C682 C179 1.202 . S
C697 C192 1.174 . S
C709 C296 1.179 . S
C724 C205 1.229 . S
C736 C257 1.226 . S
C751 C218 1.173 . S
C763 C270 1.174 . S
C778 C231 1.202 . S
C790 C244 1.211 . S
C805 C322 1.227 . S
C817 C465 1.229 . S
C832 C335 1.226 . S
C844 C439 1.221 . S
C859 C452 1.216 . S
C871 C348 1.208 . S
C886 C361 1.176 . S
C898 C413 1.182 . S
C913 C426 1.204 . S
C925 C374 1.196 . S
C940 C400 1.201 . S
C952 C387 1.210 . S
C967 C0 1.138 . S
C979 C195 1.147 . S
C994 C13 1.156 . S
C1006 C208 1.130 . S
C1021 C26 1.141 . S
C1033 C221 1.169 . S
C1048 C39 1.123 . S
C1060 C312 1.166 . S
C1075 C325 1.121 . S
C1087 C52 1.180 . S
C1102 C338 1.119 . S
C1114 C65 1.171 . S
C1129 C78 1.161 . S
C1141 C429 1.133 . S
C1156 C442 1.172 . S
C1168 C91 1.122 . S
C1183 C104 1.175 . S
C1195 C455 1.128 . S
C1210 C117 1.137 . S
C1222 C234 1.156 . S
C1237 C130 1.153 . S
C1249 C247 1.152 . S
C1264 C143 1.179 . S
C1276 C260 1.121 . S
C1291 C351 1.168 . S
C1303 C156 1.144 . S
C1318 C169 1.174 . S
C1330 C364 1.118 . S
C1345 C182 1.117 . S
C1357 C377 1.176 . S
C1372 C390 1.143 . S
C1384 C273 1.150 . S
C1399 C403 1.177 . S
C1411 C286 1.119 . S
C1426 C299 1.177 . S
C1438 C416 1.124 . S
C1453 C5 1.382 . S
C1465 C57 1.381 . S
C1480 C70 1.382 . S
C1492 C18 1.382 . S
C1507 C44 1.365 . S
C1519 C31 1.364 . S
C1534 C83 1.344 . S
C1546 C135 1.367 . S
C1561 C148 1.344 . S
C1573 C96 1.367 . S
C1588 C109 1.375 . S
C1600 C122 1.356 . S
C1615 C213 1.325 . S
C1627 C161 1.325 . S
C1642 C174 1.356 . S
C1654 C226 1.356 . S
C1669 C187 1.310 . S
C1681 C200 1.312 . S
C1696 C291 1.304 . S
C1708 C239 1.301 . S
C1723 C304 1.345 . S
C1735 C252 1.321 . S
C1750 C278 1.380 . S
C1762 C265 1.365 . S
C1777 C317 1.301 . S
C1789 C369 1.302 . S
C1804 C330 1.354 . S
C1816 C382 1.355 . S
C1831 C343 1.324 . S
C1843 C356 1.324 . S
C1858 C447 1.303 . S
C1870 C395 1.301 . S
C1885 C460 1.336 . S
C1897 C408 1.314 . S
C1912 C434 1.372 . S
C1924 C421 1.352 . S
C1939 C125 1.379 . S
C1951 C8 1.389 . S
C1966 C138 1.399 . S
C1978 C21 1.403 . S
C1993 C34 1.332 . S
C2005 C151 1.328 . S
C2020 C47 1.405 . S
C2032 C86 1.403 . S
C2047 C99 1.392 . S
C2059 C60 1.381 . S
C2074 C73 1.332 . S
C2086 C112 1.328 . S
C2101 C281 1.337 . S
C2113 C164 1.331 . S
C2128 C294 1.405 . S
C2140 C177 1.403 . S
C2155 C190 1.332 . S
C2167 C307 1.328 . S
C2182 C242 1.341 . S
C2194 C203 1.334 . S
C2209 C255 1.330 . S
C2221 C216 1.339 . S
C2236 C268 1.390 . S
C2248 C229 1.397 . S
C2263 C320 1.395 . S
C2275 C437 1.401 . S
C2290 C450 1.350 . S
C2302 C333 1.363 . S
C2317 C346 1.403 . S
C2329 C463 1.404 . S
C2344 C359 1.402 . S
C2356 C398 1.404 . S
C2371 C372 1.364 . S
C2383 C411 1.376 . S
C2398 C424 1.346 . S
C2410 C385 1.337 . S
