# Generated by pormake.
# Topology unl, (4)-cn, num edge types: 1
# Building blocks:
#     Node 0, Type 0, BuildingBlock: AZAVOO_clean_sbu_0, # of connection points: 4
#     Node 1, Type 0, BuildingBlock: AZAVOO_clean_sbu_0, # of connection points: 4
#     Node 2, Type 0, BuildingBlock: AZAVOO_clean_sbu_0, # of connection points: 4
#     Node 3, Type 0, BuildingBlock: AZAVOO_clean_sbu_0, # of connection points: 4
#     Node 4, Type 0, BuildingBlock: AZAVOO_clean_sbu_0, # of connection points: 4
#     Node 5, Type 0, BuildingBlock: AZAVOO_clean_sbu_0, # of connection points: 4
#     Node 6, Type 0, BuildingBlock: AZAVOO_clean_sbu_0, # of connection points: 4
#     Node 7, Type 0, BuildingBlock: AZAVOO_clean_sbu_0, # of connection points: 4
#     Node 8, Type 0, BuildingBlock: AZAVOO_clean_sbu_0, # of connection points: 4
#     Node 9, Type 0, BuildingBlock: AZAVOO_clean_sbu_0, # of connection points: 4
#     Node 10, Type 0, BuildingBlock: AZAVOO_clean_sbu_0, # of connection points: 4
#     Node 11, Type 0, BuildingBlock: AZAVOO_clean_sbu_0, # of connection points: 4
#     Node 12, Type 0, BuildingBlock: AZAVOO_clean_sbu_0, # of connection points: 4
#     Node 13, Type 0, BuildingBlock: AZAVOO_clean_sbu_0, # of connection points: 4
#     Node 14, Type 0, BuildingBlock: AZAVOO_clean_sbu_0, # of connection points: 4
#     Node 15, Type 0, BuildingBlock: AZAVOO_clean_sbu_0, # of connection points: 4
#     Node 16, Type 0, BuildingBlock: AZAVOO_clean_sbu_0, # of connection points: 4
#     Node 17, Type 0, BuildingBlock: AZAVOO_clean_sbu_0, # of connection points: 4
#     Node 18, Type 0, BuildingBlock: AZAVOO_clean_sbu_0, # of connection points: 4
#     Node 19, Type 0, BuildingBlock: AZAVOO_clean_sbu_0, # of connection points: 4
#     Node 20, Type 0, BuildingBlock: AZAVOO_clean_sbu_0, # of connection points: 4
#     Node 21, Type 0, BuildingBlock: AZAVOO_clean_sbu_0, # of connection points: 4
#     Node 22, Type 0, BuildingBlock: AZAVOO_clean_sbu_0, # of connection points: 4
#     Node 23, Type 0, BuildingBlock: AZAVOO_clean_sbu_0, # of connection points: 4
#     Node 24, Type 0, BuildingBlock: AZAVOO_clean_sbu_0, # of connection points: 4
#     Node 25, Type 0, BuildingBlock: AZAVOO_clean_sbu_0, # of connection points: 4
#     Node 26, Type 0, BuildingBlock: AZAVOO_clean_sbu_0, # of connection points: 4
#     Node 27, Type 0, BuildingBlock: AZAVOO_clean_sbu_0, # of connection points: 4
#     Node 28, Type 0, BuildingBlock: AZAVOO_clean_sbu_0, # of connection points: 4
#     Node 29, Type 0, BuildingBlock: AZAVOO_clean_sbu_0, # of connection points: 4
#     Node 30, Type 0, BuildingBlock: AZAVOO_clean_sbu_0, # of connection points: 4
#     Node 31, Type 0, BuildingBlock: AZAVOO_clean_sbu_0, # of connection points: 4
#     Node 32, Type 0, BuildingBlock: AZAVOO_clean_sbu_0, # of connection points: 4
#     Node 33, Type 0, BuildingBlock: AZAVOO_clean_sbu_0, # of connection points: 4
#     Node 34, Type 0, BuildingBlock: AZAVOO_clean_sbu_0, # of connection points: 4
#     Node 35, Type 0, BuildingBlock: AZAVOO_clean_sbu_0, # of connection points: 4
#     Edge 36, Type (0, 0), None
#     Edge 37, Type (0, 0), None
#     Edge 38, Type (0, 0), None
#     Edge 39, Type (0, 0), None
#     Edge 40, Type (0, 0), None
#     Edge 41, Type (0, 0), None
#     Edge 42, Type (0, 0), None
#     Edge 43, Type (0, 0), None
#     Edge 44, Type (0, 0), None
#     Edge 45, Type (0, 0), None
#     Edge 46, Type (0, 0), None
#     Edge 47, Type (0, 0), None
#     Edge 48, Type (0, 0), None
#     Edge 49, Type (0, 0), None
#     Edge 50, Type (0, 0), None
#     Edge 51, Type (0, 0), None
#     Edge 52, Type (0, 0), None
#     Edge 53, Type (0, 0), None
#     Edge 54, Type (0, 0), None
#     Edge 55, Type (0, 0), None
#     Edge 56, Type (0, 0), None
#     Edge 57, Type (0, 0), None
#     Edge 58, Type (0, 0), None
#     Edge 59, Type (0, 0), None
#     Edge 60, Type (0, 0), None
#     Edge 61, Type (0, 0), None
#     Edge 62, Type (0, 0), None
#     Edge 63, Type (0, 0), None
#     Edge 64, Type (0, 0), None
#     Edge 65, Type (0, 0), None
#     Edge 66, Type (0, 0), None
#     Edge 67, Type (0, 0), None
#     Edge 68, Type (0, 0), None
#     Edge 69, Type (0, 0), None
#     Edge 70, Type (0, 0), None
#     Edge 71, Type (0, 0), None
#     Edge 72, Type (0, 0), None
#     Edge 73, Type (0, 0), None
#     Edge 74, Type (0, 0), None
#     Edge 75, Type (0, 0), None
#     Edge 76, Type (0, 0), None
#     Edge 77, Type (0, 0), None
#     Edge 78, Type (0, 0), None
#     Edge 79, Type (0, 0), None
#     Edge 80, Type (0, 0), None
#     Edge 81, Type (0, 0), None
#     Edge 82, Type (0, 0), None
#     Edge 83, Type (0, 0), None
#     Edge 84, Type (0, 0), None
#     Edge 85, Type (0, 0), None
#     Edge 86, Type (0, 0), None
#     Edge 87, Type (0, 0), None
#     Edge 88, Type (0, 0), None
#     Edge 89, Type (0, 0), None
#     Edge 90, Type (0, 0), None
#     Edge 91, Type (0, 0), None
#     Edge 92, Type (0, 0), None
#     Edge 93, Type (0, 0), None
#     Edge 94, Type (0, 0), None
#     Edge 95, Type (0, 0), None
#     Edge 96, Type (0, 0), None
#     Edge 97, Type (0, 0), None
#     Edge 98, Type (0, 0), None
#     Edge 99, Type (0, 0), None
#     Edge 100, Type (0, 0), None
#     Edge 101, Type (0, 0), None
#     Edge 102, Type (0, 0), None
#     Edge 103, Type (0, 0), None
#     Edge 104, Type (0, 0), None
#     Edge 105, Type (0, 0), None
#     Edge 106, Type (0, 0), None
#     Edge 107, Type (0, 0), None
# Relax obj value: 0.199
# Max RMSD: 0.226
# Mean RMSD: 0.215
data_MOF--net-unl--node1-AZAVOO_clean_sbu_0--edge1-none
_symmetry_space_group_name_H-M    P1
_symmetry_Int_Tables_number       1
_symmetry_cell_setting            triclinic
loop_
_symmetry_equiv_pos_as_xyz
'x, y, z'
_cell_length_a     29.338705
_cell_length_b     29.289819
_cell_length_c     16.320871
_cell_angle_alpha  90.669034
_cell_angle_beta   89.99871
_cell_angle_gamma 120.0582
loop_
_atom_site_label
_atom_site_type_symbol
_atom_site_fract_x
_atom_site_fract_y
_atom_site_fract_z
_atom_type_partial_charge
Mg0 Mg 0.20268 0.10359 0.09117 0.0
O1 O 0.15881 0.10019 0.20634 0.0
O2 O 0.07503 0.06145 0.16901 0.0
Mg3 Mg 0.07097 0.05812 0.02997 0.0
C4 C 0.11055 0.07982 0.22409 0.0
C5 C 0.30824 0.16504 0.18689 0.0
O6 O 0.29828 0.20357 0.17675 0.0
O7 O 0.16837 0.01464 0.08202 0.0
O8 O 0.0913 -0.00739 0.02311 0.0
O9 O 0.21824 0.18356 0.07301 0.0
O10 O 0.15626 0.11621 1.00277 0.0
C11 C 0.12638 0.98132 0.04411 0.0
C12 C 0.18814 0.16659 1.0091 0.0
O13 O 0.27318 0.11788 0.16832 0.0
Mg14 Mg 0.93702 0.10159 0.18122 0.0
O15 O 0.91043 0.07098 0.04893 0.0
O16 O 0.82458 0.01082 0.04823 0.0
Mg17 Mg 0.79713 -0.00366 0.1826 0.0
C18 C 0.86785 0.03907 1.01084 0.0
C19 C 0.0555 0.20144 0.09377 0.0
O20 O 0.09945 0.23774 0.12832 0.0
O21 O 0.8881 0.1426 0.17379 0.0
O22 O 0.80356 0.07765 0.18694 0.0
O23 O 0.95533 0.03835 0.22159 0.0
O24 O 0.87832 0.03424 0.22821 0.0
C25 C 0.83867 0.12634 0.18175 0.0
C26 C 0.90672 0.0138 0.24474 0.0
O27 O 0.01762 0.17055 0.13991 0.0
Mg28 Mg 0.9002 0.83002 0.16655 0.0
O29 O 0.92538 0.82586 0.03211 0.0
O30 O 0.97911 0.79203 0.03837 0.0
Mg31 Mg 0.98939 0.7761 0.17212 0.0
C32 C 0.95462 0.81013 0.99765 0.0
C33 C 0.81456 0.86821 0.09611 0.0
O34 O 0.78343 0.88447 0.12568 0.0
O35 O 0.84313 0.74125 0.15934 0.0
O36 O 0.90122 0.71313 0.17312 0.0
O37 O 0.9691 0.90829 0.20209 0.0
O38 O 0.9666 0.83248 0.21024 0.0
C39 C 0.85393 0.70432 0.16743 0.0
C40 C 0.99025 0.8817 0.22847 0.0
O41 O 0.83857 0.85451 0.14584 0.0
Mg42 Mg 0.05861 0.14679 0.36323 0.0
O43 O 0.08793 0.15093 0.49767 0.0
O44 O 0.17549 0.18477 0.49147 0.0
Mg45 Mg 0.20173 0.20074 0.35774 0.0
C46 C 0.13289 0.16666 0.53216 0.0
C47 C 0.93476 0.10859 0.43367 0.0
O48 O 0.88738 0.09231 0.40408 0.0
O49 O 0.0903 0.23556 0.37046 0.0
O50 O 0.17652 0.2637 0.35674 0.0
O51 O 0.04925 0.06853 0.32769 0.0
O52 O 0.12257 0.14438 0.31952 0.0
C53 C 0.13804 0.2725 0.36241 0.0
C54 C 0.09699 0.09516 0.30134 0.0
O55 O 0.97248 0.12228 0.38395 0.0
Mg56 Mg 0.82383 0.87523 0.34859 0.0
O57 O 0.82784 0.90584 0.48088 0.0
O58 O 0.80215 0.966 0.48155 0.0
Mg59 Mg 0.78919 0.98047 0.34718 0.0
C60 C 0.81717 0.93775 0.51895 0.0
C61 C 0.84245 0.77538 0.43604 0.0
O62 O 0.8501 0.73908 0.40146 0.0
O63 O 0.7339 0.83421 0.35601 0.0
O64 O 0.71431 0.89916 0.34285 0.0
O65 O 0.90538 0.93847 0.30823 0.0
O66 O 0.83248 0.94257 0.30158 0.0
C67 C 0.70072 0.85046 0.34805 0.0
C68 C 0.88133 0.96302 0.28507 0.0
O69 O 0.83547 0.80627 0.38994 0.0
Mg70 Mg 0.08748 0.87321 0.43858 0.0
O71 O 0.04703 0.87664 0.3234 0.0
O72 O 0.00201 0.91541 0.36076 0.0
Mg73 Mg 0.00124 0.91868 0.4998 0.0
C74 C 0.01918 0.89706 0.30568 0.0
C75 C 0.13161 0.81177 0.34287 0.0
O76 O 0.08311 0.77324 0.35302 0.0
O77 O 0.14212 0.96215 0.44779 0.0
O78 O 0.08709 0.98418 0.50671 0.0
O79 O 0.02305 0.79324 0.45668 0.0
O80 O 0.02842 0.86058 0.52696 0.0
C81 C 0.13345 -0.00453 0.48571 0.0
C82 C 0.00992 0.8102 0.52061 0.0
O83 O 0.1437 0.85893 0.36143 0.0
Mg84 Mg 0.82161 0.92671 0.8351 0.0
O85 O 0.82954 0.90623 0.967 0.0
O86 O 0.79716 0.81907 0.97517 0.0
Mg87 Mg 0.76916 0.78312 0.8478 0.0
C88 C 0.8184 0.86499 1.00766 0.0
C89 C 0.86511 0.04878 0.92335 0.0
O90 O 0.88009 0.09729 0.90159 0.0
O91 O 0.73335 0.89246 0.85843 0.0
O92 O 0.70481 0.80536 0.8555 0.0
O93 O 0.89702 0.9316 0.79192 0.0
O94 O 0.81878 0.85949 0.79189 0.0
C95 C 0.69635 0.84409 0.86064 0.0
C96 C 0.86789 0.88178 0.77561 0.0
O97 O 0.84781 0.01301 0.86776 0.0
Mg98 Mg 0.06752 0.8692 0.82595 0.0
O99 O 0.08791 0.90931 0.953 0.0
O100 O 0.17546 0.96284 0.95505 0.0
Mg101 Mg 0.21045 0.96407 0.83066 0.0
C102 C 0.13039 0.94399 0.98857 0.0
C103 C 0.94494 0.79448 0.91085 0.0
O104 O 0.89677 0.75889 0.88922 0.0
O105 O 0.10612 0.81842 0.85147 0.0
O106 O 0.1915 0.88006 0.84068 0.0
O107 O 0.05591 0.93473 0.78451 0.0
O108 O 0.13184 0.93567 0.77993 0.0
C109 C 0.15517 0.83236 0.84824 0.0
C110 C 0.10612 0.96023 0.77233 0.0
O111 O 0.98119 0.80881 0.85744 0.0
Mg112 Mg 0.11751 0.19309 0.83461 0.0
O113 O 0.08836 0.18998 0.96786 0.0
O114 O 0.02456 0.21083 0.96551 0.0
Mg115 Mg 0.01391 0.2273 0.83131 0.0
C116 C 0.05345 0.19692 1.00394 0.0
C117 C 0.21627 0.19262 0.9342 0.0
O118 O 0.26632 0.20675 0.92868 0.0
O119 O 0.15862 0.28102 0.84067 0.0
O120 O 0.09654 0.30376 0.83093 0.0
O121 O 0.05765 0.10856 0.80568 0.0
O122 O 0.04686 0.17764 0.79088 0.0
C123 C 0.14483 0.31571 0.83571 0.0
C124 C 0.02819 0.12772 0.78384 0.0
O125 O 0.19427 0.19919 0.87232 0.0
Mg126 Mg 0.91285 0.78372 0.69518 0.0
O127 O 0.88678 0.78681 0.56194 0.0
O128 O 0.80214 0.76596 0.56433 0.0
Mg129 Mg 0.77503 0.7495 0.69853 0.0
C130 C 0.84493 0.77987 0.52587 0.0
C131 C 0.01204 0.78417 0.5955 0.0
O132 O 0.04796 0.77003 0.60098 0.0
O133 O 0.86603 0.69579 0.68915 0.0
O134 O 0.78121 0.67304 0.69891 0.0
O135 O 0.93752 0.86825 0.72409 0.0
O136 O 0.85765 0.79916 0.73893 0.0
C137 C 0.81754 0.6611 0.69413 0.0
C138 C 0.88891 0.84909 0.74595 0.0
O139 O 0.98349 0.77761 0.65741 0.0
Mg140 Mg 0.1867 0.10758 0.70388 0.0
O141 O 0.16699 0.06748 0.57683 0.0
O142 O 0.20101 0.01395 0.57479 0.0
Mg143 Mg 0.23478 0.01274 0.69917 0.0
C144 C 0.17479 0.0328 0.54127 0.0
C145 C 0.13883 0.18229 0.61897 0.0
O146 O 0.12623 0.21786 0.64061 0.0
O147 O 0.27609 0.15838 0.67836 0.0
O148 O 0.29982 0.09674 0.68913 0.0
O149 O 0.10956 0.04204 0.74532 0.0
O150 O 0.18456 0.04112 0.74991 0.0
C151 C 0.3112 0.14445 0.68158 0.0
C152 C 0.13428 0.01655 0.7575 0.0
O153 O 0.16074 0.16796 0.67238 0.0
Mg154 Mg 0.88328 0.05011 0.69468 0.0
O155 O 0.91169 0.07058 0.56279 0.0
O156 O 0.96649 0.15773 0.55461 0.0
Mg157 Mg 0.97443 0.19369 0.68198 0.0
C158 C 0.9418 0.11181 0.52212 0.0
C159 C 0.8047 0.92803 0.60644 0.0
O160 O 0.77116 0.87952 0.62819 0.0
O161 O 0.82928 0.08436 0.67134 0.0
O162 O 0.88784 0.17146 0.67426 0.0
O163 O 0.95378 0.04521 0.73788 0.0
O164 O 0.94766 0.11732 0.7379 0.0
C165 C 0.84066 0.13273 0.66912 0.0
C166 C 0.97448 0.09503 0.75417 0.0
O167 O 0.82317 0.96381 0.66204 0.0
Mg168 Mg 0.86936 0.43693 0.42449 0.0
O169 O 0.82548 0.43353 0.53966 0.0
O170 O 0.7417 0.39479 0.50234 0.0
Mg171 Mg 0.73764 0.39146 0.36329 0.0
C172 C 0.77722 0.41316 0.55742 0.0
C173 C 0.97492 0.49837 0.52022 0.0
O174 O 0.96495 0.5369 0.51008 0.0
O175 O 0.83504 0.34798 0.41533 0.0
O176 O 0.75797 0.32595 0.35642 0.0
O177 O 0.88492 0.5169 0.40635 0.0
O178 O 0.82293 0.44956 0.3361 0.0
C179 C 0.79304 0.31466 0.37742 0.0
C180 C 0.85482 0.49994 0.34244 0.0
O181 O 0.93985 0.45121 0.50165 0.0
Mg182 Mg 0.60368 0.43492 0.51456 0.0
O183 O 0.57709 0.40431 0.38226 0.0
O184 O 0.49123 0.34415 0.38158 0.0
Mg185 Mg 0.4638 0.32968 0.51595 0.0
C186 C 0.53451 0.3724 0.34419 0.0
C187 C 0.72217 0.53477 0.4271 0.0
O188 O 0.76611 0.57107 0.46166 0.0
O189 O 0.55477 0.47593 0.50714 0.0
O190 O 0.47023 0.41098 0.52029 0.0
O191 O 0.62199 0.37168 0.55492 0.0
O192 O 0.54498 0.36757 0.56156 0.0
C193 C 0.50534 0.45968 0.5151 0.0
C194 C 0.57339 0.34713 0.57807 0.0
O195 O 0.68429 0.50388 0.47322 0.0
Mg196 Mg 0.56687 0.16336 0.49987 0.0
O197 O 0.59205 0.1592 0.36544 0.0
O198 O 0.64577 0.12537 0.37168 0.0
Mg199 Mg 0.65606 0.10944 0.50543 0.0
C200 C 0.62128 0.14347 0.33097 0.0
C201 C 0.48123 0.20155 0.42945 0.0
O202 O 0.4501 0.21781 0.45902 0.0
O203 O 0.5098 0.07459 0.49267 0.0
O204 O 0.5679 0.04647 0.50644 0.0
O205 O 0.63577 0.24163 0.53541 0.0
O206 O 0.63327 0.16583 0.54356 0.0
C207 C 0.5206 0.03766 0.50075 0.0
C208 C 0.65692 0.21504 0.56179 0.0
O209 O 0.50524 0.18785 0.47918 0.0
Mg210 Mg 0.72528 0.48012 0.69656 0.0
O211 O 0.7546 0.48427 0.831 0.0
O212 O 0.84216 0.51811 0.8248 0.0
Mg213 Mg 0.86841 0.53408 0.69106 0.0
C214 C 0.79956 0.5 0.86549 0.0
C215 C 0.60144 0.44192 0.76701 0.0
O216 O 0.55405 0.42564 0.73742 0.0
O217 O 0.75697 0.5689 0.7038 0.0
O218 O 0.84319 0.59703 0.69006 0.0
O219 O 0.71592 0.40186 0.66101 0.0
O220 O 0.78924 0.47771 0.65285 0.0
C221 C 0.80471 0.60584 0.69574 0.0
C222 C 0.76366 0.42849 0.63466 0.0
O223 O 0.63915 0.45561 0.71729 0.0
Mg224 Mg 0.49049 0.20856 0.68192 0.0
O225 O 0.49451 0.23916 0.81421 0.0
O226 O 0.46882 0.29933 0.8149 0.0
Mg227 Mg 0.45586 0.3138 0.68054 0.0
C228 C 0.48384 0.27107 0.85229 0.0
C229 C 0.50911 0.10871 0.76936 0.0
O230 O 0.51675 0.0724 0.73481 0.0
O231 O 0.40057 0.16755 0.68935 0.0
O232 O 0.38098 0.23249 0.6762 0.0
O233 O 0.57205 0.2718 0.64155 0.0
O234 O 0.49915 0.27591 0.63492 0.0
C235 C 0.36739 0.1838 0.68138 0.0
C236 C 0.548 0.29635 0.61841 0.0
O237 O 0.50212 0.13959 0.72324 0.0
Mg238 Mg 0.75415 0.20655 0.7719 0.0
O239 O 0.7137 0.20999 0.65672 0.0
O240 O 0.66868 0.24876 0.69407 0.0
Mg241 Mg 0.66791 0.25203 0.83311 0.0
C242 C 0.68585 0.2304 0.63899 0.0
C243 C 0.79826 0.14511 0.67618 0.0
O244 O 0.74977 0.10656 0.68632 0.0
O245 O 0.8088 0.2955 0.7811 0.0
O246 O 0.75377 0.31753 0.84001 0.0
O247 O 0.68971 0.12658 0.79002 0.0
O248 O 0.69509 0.19393 0.86028 0.0
C249 C 0.80012 0.32881 0.81902 0.0
C250 C 0.67659 0.14355 0.85394 0.0
O251 O 0.81036 0.19227 0.69475 0.0
Mg252 Mg 0.48827 0.26005 0.16844 0.0
O253 O 0.49619 0.23957 0.30034 0.0
O254 O 0.46383 0.15241 0.30851 0.0
Mg255 Mg 0.43583 0.11646 0.18113 0.0
C256 C 0.48507 0.19834 0.341 0.0
C257 C 0.53176 0.38212 0.2567 0.0
O258 O 0.54673 0.43063 0.23495 0.0
O259 O 0.4 0.22579 0.19178 0.0
O260 O 0.37146 0.13869 0.18886 0.0
O261 O 0.56367 0.26495 0.12525 0.0
O262 O 0.48544 0.19284 0.12522 0.0
C263 C 0.36301 0.17742 0.19402 0.0
C264 C 0.53454 0.21513 0.10894 0.0
O265 O 0.51446 0.34635 0.2011 0.0
Mg266 Mg 0.73418 0.20253 0.15926 0.0
O267 O 0.75457 0.24265 0.28632 0.0
O268 O 0.84212 0.29618 0.28835 0.0
Mg269 Mg 0.87711 0.2974 0.16397 0.0
C270 C 0.79705 0.27733 0.32188 0.0
C271 C 0.6116 0.12782 0.24417 0.0
O272 O 0.56343 0.09224 0.22254 0.0
O273 O 0.77278 0.15175 0.18479 0.0
O274 O 0.85816 0.2134 0.17401 0.0
O275 O 0.72258 0.26806 0.11782 0.0
O276 O 0.7985 0.269 0.11324 0.0
C277 C 0.82183 0.16569 0.18157 0.0
C278 C 0.77279 0.29356 0.10563 0.0
O279 O 0.64785 0.14215 0.19076 0.0
Mg280 Mg 0.78419 0.52644 0.16794 0.0
O281 O 0.75504 0.52333 0.30119 0.0
O282 O 0.69124 0.54417 0.29883 0.0
Mg283 Mg 0.68059 0.56064 0.16464 0.0
C284 C 0.72013 0.53027 0.33727 0.0
C285 C 0.88295 0.52597 0.26754 0.0
O286 O 0.933 0.54011 0.26202 0.0
O287 O 0.8253 0.61437 0.174 0.0
O288 O 0.76322 0.6371 0.16426 0.0
O289 O 0.72433 0.4419 0.13901 0.0
O290 O 0.71354 0.51099 0.12421 0.0
C291 C 0.81151 0.64905 0.16904 0.0
C292 C 0.69487 0.46106 0.11717 0.0
O293 O 0.86095 0.53254 0.20566 0.0
Mg294 Mg 0.57951 0.11707 0.0285 0.0
O295 O 0.55344 0.12017 0.89526 0.0
O296 O 0.4688 0.09931 0.89765 0.0
Mg297 Mg 0.4417 0.08285 0.03185 0.0
C298 C 0.51159 0.11322 0.85919 0.0
C299 C 0.67871 0.11753 0.92883 0.0
O300 O 0.71463 0.10339 0.93432 0.0
O301 O 0.53269 0.02914 0.02247 0.0
O302 O 0.44787 0.0064 0.03224 0.0
O303 O 0.60418 0.2016 0.05742 0.0
O304 O 0.52431 0.13251 0.07225 0.0
C305 C 0.48421 -0.00555 0.02745 0.0
C306 C 0.55556 0.18244 0.07927 0.0
O307 O 0.65016 0.11097 0.99074 0.0
Mg308 Mg 0.85337 0.44092 0.0372 0.0
O309 O 0.83367 0.40082 0.91014 0.0
O310 O 0.86769 0.34729 0.9081 0.0
Mg311 Mg 0.90145 0.34607 0.03248 0.0
C312 C 0.84147 0.36615 0.87457 0.0
C313 C 0.80551 0.51563 0.95229 0.0
O314 O 0.79291 0.5512 0.97393 0.0
O315 O 0.94276 0.49171 1.01169 0.0
O316 O 0.9665 0.43007 0.02246 0.0
O317 O 0.77623 0.37538 0.07863 0.0
O318 O 0.85123 0.37445 0.08322 0.0
C319 C 0.97787 0.47778 0.01491 0.0
C320 C 0.80094 0.34988 0.09081 0.0
O321 O 0.82742 0.5013 1.00571 0.0
Mg322 Mg 0.54996 0.38344 0.02802 0.0
O323 O 0.57837 0.40391 0.89613 0.0
O324 O 0.63316 0.49107 0.88794 0.0
Mg325 Mg 0.6411 0.52703 0.01531 0.0
C326 C 0.60848 0.44514 0.85546 0.0
C327 C 0.47138 0.26136 0.93978 0.0
O328 O 0.43785 0.21285 0.96154 0.0
O329 O 0.49595 0.41769 1.00468 0.0
O330 O 0.55451 0.50478 1.00759 0.0
O331 O 0.62047 0.37855 0.07121 0.0
O332 O 0.61434 0.45066 0.07123 0.0
C333 C 0.50733 0.46606 1.00246 0.0
C334 C 0.64116 0.42837 0.08751 0.0
O335 O 0.48985 0.29714 0.99538 0.0
Mg336 Mg 0.53604 0.77027 0.75781 0.0
O337 O 0.49216 0.76688 0.87298 0.0
O338 O 0.40838 0.72815 0.83564 0.0
Mg339 Mg 0.40433 0.72482 0.6966 0.0
C340 C 0.4439 0.74652 0.89073 0.0
C341 C 0.64158 0.83171 0.85357 0.0
O342 O 0.63164 0.87026 0.84343 0.0
O343 O 0.50171 0.68132 0.74867 0.0
O344 O 0.42465 0.6593 0.68975 0.0
O345 O 0.55161 0.85025 0.73965 0.0
O346 O 0.48962 0.7829 0.66941 0.0
C347 C 0.45972 0.64801 0.71076 0.0
C348 C 0.52151 0.83328 0.67574 0.0
O349 O 0.60652 0.78455 0.83498 0.0
Mg350 Mg 0.27035 0.76825 0.84788 0.0
O351 O 0.24376 0.73764 0.71559 0.0
O352 O 0.1579 0.67748 0.71491 0.0
Mg353 Mg 0.13047 0.66301 0.84927 0.0
C354 C 0.20118 0.70573 0.67751 0.0
C355 C 0.38884 0.8681 0.76042 0.0
O356 O 0.43279 0.90439 0.79499 0.0
O357 O 0.22144 0.80926 0.84045 0.0
O358 O 0.1369 0.74432 0.85361 0.0
O359 O 0.28866 0.70501 0.88825 0.0
O360 O 0.21165 0.7009 0.89488 0.0
C361 C 0.17201 0.79301 0.84842 0.0
C362 C 0.24006 0.68046 0.9114 0.0
O363 O 0.35096 0.83721 0.80654 0.0
Mg364 Mg 0.23353 0.49668 0.83322 0.0
O365 O 0.25871 0.49252 0.69879 0.0
O366 O 0.31243 0.45869 0.70504 0.0
Mg367 Mg 0.32272 0.44275 0.83879 0.0
C368 C 0.28794 0.47679 0.66432 0.0
C369 C 0.14789 0.53487 0.76279 0.0
O370 O 0.11677 0.55114 0.79236 0.0
O371 O 0.17645 0.4079 0.82601 0.0
O372 O 0.23455 0.37979 0.83979 0.0
O373 O 0.30243 0.57494 0.86877 0.0
O374 O 0.29993 0.49914 0.87692 0.0
C375 C 0.18726 0.37097 0.8341 0.0
C376 C 0.32357 0.54835 0.89515 0.0
O377 O 0.1719 0.52118 0.81252 0.0
Mg378 Mg 0.39195 0.81348 0.02987 0.0
O379 O 0.42127 0.81761 0.16431 0.0
O380 O 0.50883 0.85146 0.15811 0.0
Mg381 Mg 0.53508 0.86744 0.02438 0.0
C382 C 0.46623 0.83334 0.1988 0.0
C383 C 0.26811 0.77526 0.10033 0.0
O384 O 0.22072 0.75897 0.07074 0.0
O385 O 0.42364 0.90225 0.03712 0.0
O386 O 0.50986 0.93039 0.02339 0.0
O387 O 0.3826 0.73522 0.99432 0.0
O388 O 0.45592 0.81107 0.98615 0.0
C389 C 0.47138 0.93919 0.02906 0.0
C390 C 0.43034 0.76185 0.96797 0.0
O391 O 0.30582 0.78895 0.05061 0.0
Mg392 Mg 0.15717 0.5419 0.01526 0.0
O393 O 0.16118 0.57251 0.14755 0.0
O394 O 0.13549 0.63267 0.14823 0.0
Mg395 Mg 0.12253 0.64713 1.01386 0.0
C396 C 0.15051 0.60442 0.18562 0.0
C397 C 0.17579 0.44204 0.10271 0.0
O398 O 0.18343 0.40575 0.06813 0.0
O399 O 0.06724 0.50088 0.02269 0.0
O400 O 0.04765 0.56582 1.00953 0.0
O401 O 0.23872 0.60513 0.97489 0.0
O402 O 0.16582 0.60924 0.96825 0.0
C403 C 0.03406 0.51713 0.01472 0.0
C404 C 0.21467 0.62969 0.95174 0.0
O405 O 0.1688 0.47294 0.05661 0.0
Mg406 Mg 0.42082 0.53987 0.10525 0.0
O407 O 0.38036 0.5433 0.99007 0.0
O408 O 0.33534 0.58206 0.02743 0.0
Mg409 Mg 0.33457 0.58534 0.16647 0.0
C410 C 0.3525 0.56371 0.97235 0.0
C411 C 0.46493 0.47843 1.00952 0.0
O412 O 0.41644 0.43988 0.01967 0.0
O413 O 0.47546 0.62881 0.11445 0.0
O414 O 0.42042 0.65084 0.17337 0.0
O415 O 0.35639 0.45989 0.12337 0.0
O416 O 0.36176 0.52724 0.19363 0.0
C417 C 0.46678 0.66213 0.15237 0.0
C418 C 0.34326 0.47686 0.18729 0.0
O419 O 0.47703 0.52559 0.0281 0.0
Mg420 Mg 0.15494 0.59337 0.50178 0.0
O421 O 0.16286 0.57289 0.63367 0.0
O422 O 0.1305 0.48573 0.64185 0.0
Mg423 Mg 0.10249 0.44978 0.51448 0.0
C424 C 0.15174 0.53166 0.67434 0.0
C425 C 0.19843 0.71544 0.59002 0.0
O426 O 0.21341 0.76395 0.56826 0.0
O427 O 0.06668 0.55911 0.5251 0.0
O428 O 0.03813 0.47201 0.52219 0.0
O429 O 0.23034 0.59827 0.45859 0.0
O430 O 0.15211 0.52616 0.45856 0.0
C431 C 0.02968 0.51074 0.52735 0.0
C432 C 0.20121 0.54845 0.44228 0.0
O433 O 0.18113 0.67967 0.53442 0.0
Mg434 Mg 0.40085 0.53587 0.49262 0.0
O435 O 0.42124 0.57599 0.61966 0.0
O436 O 0.5088 0.62951 0.6217 0.0
Mg437 Mg 0.54378 0.63073 0.49732 0.0
C438 C 0.46372 0.61066 0.65523 0.0
C439 C 0.27827 0.46115 0.57753 0.0
O440 O 0.2301 0.42556 0.55589 0.0
O441 O 0.43945 0.48509 0.51815 0.0
O442 O 0.52483 0.54673 0.50736 0.0
O443 O 0.38924 0.6014 0.45117 0.0
O444 O 0.46517 0.60234 0.44659 0.0
C445 C 0.4885 0.49903 0.51492 0.0
C446 C 0.43945 0.6269 0.43898 0.0
O447 O 0.31452 0.47548 0.52412 0.0
Mg448 Mg 0.45086 0.85978 0.50125 0.0
O449 O 0.42171 0.85666 0.63451 0.0
O450 O 0.35791 0.87751 0.63216 0.0
Mg451 Mg 0.34726 0.89398 0.49797 0.0
C452 C 0.38681 0.8636 0.67059 0.0
C453 C 0.54963 0.85931 0.60084 0.0
O454 O 0.59968 0.87345 0.59531 0.0
O455 O 0.49198 0.94771 0.50732 0.0
O456 O 0.42989 0.97044 0.49759 0.0
O457 O 0.39101 0.77525 0.47232 0.0
O458 O 0.38021 0.84433 0.45753 0.0
C459 C 0.47818 0.98239 0.50236 0.0
C460 C 0.36154 0.7944 0.45049 0.0
O461 O 0.52763 0.86588 0.53897 0.0
Mg462 Mg 0.24618 0.45038 0.36185 0.0
O463 O 0.22011 0.45348 0.22861 0.0
O464 O 0.13547 0.43263 0.231 0.0
Mg465 Mg 0.10836 0.41617 0.3652 0.0
C466 C 0.17826 0.44654 0.19254 0.0
C467 C 0.34537 0.45083 0.26218 0.0
O468 O 0.38129 0.4367 0.26767 0.0
O469 O 0.19936 0.36245 0.35582 0.0
O470 O 0.11454 0.33971 0.36558 0.0
O471 O 0.27085 0.53491 0.39077 0.0
O472 O 0.19098 0.46583 0.4056 0.0
C473 C 0.15087 0.32776 0.36079 0.0
C474 C 0.22223 0.51576 0.41262 0.0
O475 O 0.31683 0.44427 0.32409 0.0
Mg476 Mg 0.52004 0.77425 0.37053 0.0
O477 O 0.50033 0.73414 0.24348 0.0
O478 O 0.53435 0.68061 0.24144 0.0
Mg479 Mg 0.56811 0.6794 0.36583 0.0
C480 C 0.50813 0.69946 0.20792 0.0
C481 C 0.47217 0.84897 0.28561 0.0
O482 O 0.45958 0.88454 0.30725 0.0
O483 O 0.60942 0.82504 0.345 0.0
O484 O 0.63316 0.76341 0.35578 0.0
O485 O 0.4429 0.70871 0.41197 0.0
O486 O 0.5179 0.70779 0.41656 0.0
C487 C 0.64454 0.81111 0.34822 0.0
C488 C 0.46761 0.68322 0.42415 0.0
O489 O 0.49408 0.83462 0.33902 0.0
Mg490 Mg 0.21663 0.71678 0.36135 0.0
O491 O 0.24504 0.73725 0.22945 0.0
O492 O 0.29984 0.82441 0.22126 0.0
Mg493 Mg 0.30778 0.86037 0.34863 0.0
C494 C 0.27515 0.77848 0.18878 0.0
C495 C 0.13805 0.59471 0.27311 0.0
O496 O 0.10451 0.5462 0.29487 0.0
O497 O 0.16263 0.75103 0.338 0.0
O498 O 0.22118 0.83813 0.3409 0.0
O499 O 0.28714 0.71189 0.40454 0.0
O500 O 0.28101 0.784 0.40455 0.0
C501 C 0.17401 0.7994 0.33575 0.0
C502 C 0.30783 0.76171 0.42083 0.0
O503 O 0.15652 0.63048 0.32871 0.0
loop_
_geom_bond_atom_site_label_1
_geom_bond_atom_site_label_2
_geom_bond_distance
_geom_bond_site_symmetry_2
_ccdc_geom_bond_type
Mg0 O1 2.028 . S
Mg0 O7 1.986 . S
Mg0 O9 2.114 . S
Mg0 O10 2.251 . S
Mg0 O13 2.010 . S
O1 Mg0 2.028 . S
O1 C4 1.250 . S
O2 Mg3 2.028 . S
O2 C4 1.248 . S
Mg3 O2 2.028 . S
Mg3 O8 2.032 1_545 S
Mg3 O10 2.079 . S
C4 O1 1.250 . S
C4 O2 1.248 . S
C5 O6 1.264 . S
C5 O13 1.249 . S
O6 C5 1.264 . S
O7 Mg0 1.986 . S
O7 C11 1.246 1_545 S
O8 Mg3 2.032 1_565 S
O8 C11 1.259 . S
O9 Mg0 2.114 . S
O9 C12 1.252 . S
O10 Mg0 2.251 . S
O10 Mg3 2.079 . S
O10 C12 1.273 . S
C11 O7 1.246 1_565 S
C11 O8 1.259 . S
C12 O9 1.252 . S
C12 O10 1.273 . S
O13 Mg0 2.010 . S
O13 C5 1.249 . S
Mg14 O15 2.028 . S
Mg14 O21 1.986 . S
Mg14 O23 2.114 . S
Mg14 O24 2.251 . S
Mg14 O27 2.010 . S
O15 Mg14 2.028 . S
O15 C18 1.250 . S
O16 Mg17 2.028 . S
O16 C18 1.248 . S
Mg17 O16 2.028 . S
Mg17 O22 2.032 . S
Mg17 O24 2.079 . S
C18 O15 1.250 . S
C18 O16 1.248 . S
C19 O20 1.264 . S
C19 O27 1.249 1_455 S
O20 C19 1.264 . S
O21 Mg14 1.986 . S
O21 C25 1.246 . S
O22 Mg17 2.032 . S
O22 C25 1.259 . S
O23 Mg14 2.114 . S
O23 C26 1.252 . S
O24 Mg14 2.251 . S
O24 Mg17 2.079 . S
O24 C26 1.273 . S
C25 O21 1.246 . S
C25 O22 1.259 . S
C26 O23 1.252 . S
C26 O24 1.273 . S
O27 Mg14 2.010 . S
O27 C19 1.249 1_655 S
Mg28 O29 2.028 . S
Mg28 O35 1.986 . S
Mg28 O37 2.114 . S
Mg28 O38 2.251 . S
Mg28 O41 2.010 . S
O29 Mg28 2.028 . S
O29 C32 1.250 . S
O30 Mg31 2.028 . S
O30 C32 1.248 . S
Mg31 O30 2.028 . S
Mg31 O36 2.032 . S
Mg31 O38 2.079 . S
C32 O29 1.250 . S
C32 O30 1.248 . S
C33 O34 1.264 . S
C33 O41 1.249 . S
O34 C33 1.264 . S
O35 Mg28 1.986 . S
O35 C39 1.246 . S
O36 Mg31 2.032 . S
O36 C39 1.259 . S
O37 Mg28 2.114 . S
O37 C40 1.252 . S
O38 Mg28 2.251 . S
O38 Mg31 2.079 . S
O38 C40 1.273 . S
C39 O35 1.246 . S
C39 O36 1.259 . S
C40 O37 1.252 . S
C40 O38 1.273 . S
O41 Mg28 2.010 . S
O41 C33 1.249 . S
Mg42 O43 2.028 . S
Mg42 O49 1.986 . S
Mg42 O51 2.114 . S
Mg42 O52 2.251 . S
Mg42 O55 2.010 . S
O43 Mg42 2.028 . S
O43 C46 1.250 . S
O44 Mg45 2.028 . S
O44 C46 1.248 . S
Mg45 O44 2.028 . S
Mg45 O50 2.032 . S
Mg45 O52 2.079 . S
C46 O43 1.250 . S
C46 O44 1.248 . S
C47 O48 1.264 . S
C47 O55 1.249 1_655 S
O48 C47 1.264 . S
O49 Mg42 1.986 . S
O49 C53 1.246 . S
O50 Mg45 2.032 . S
O50 C53 1.259 . S
O51 Mg42 2.114 . S
O51 C54 1.252 . S
O52 Mg42 2.251 . S
O52 Mg45 2.079 . S
O52 C54 1.273 . S
C53 O49 1.246 . S
C53 O50 1.259 . S
C54 O51 1.252 . S
C54 O52 1.273 . S
O55 Mg42 2.010 . S
O55 C47 1.249 1_455 S
Mg56 O57 2.028 . S
Mg56 O63 1.986 . S
Mg56 O65 2.114 . S
Mg56 O66 2.251 . S
Mg56 O69 2.010 . S
O57 Mg56 2.028 . S
O57 C60 1.250 . S
O58 Mg59 2.028 . S
O58 C60 1.248 . S
Mg59 O58 2.028 . S
Mg59 O64 2.032 . S
Mg59 O66 2.079 . S
C60 O57 1.250 . S
C60 O58 1.248 . S
C61 O62 1.264 . S
C61 O69 1.249 . S
O62 C61 1.264 . S
O63 Mg56 1.986 . S
O63 C67 1.246 . S
O64 Mg59 2.032 . S
O64 C67 1.259 . S
O65 Mg56 2.114 . S
O65 C68 1.252 . S
O66 Mg56 2.251 . S
O66 Mg59 2.079 . S
O66 C68 1.273 . S
C67 O63 1.246 . S
C67 O64 1.259 . S
C68 O65 1.252 . S
C68 O66 1.273 . S
O69 Mg56 2.010 . S
O69 C61 1.249 . S
Mg70 O71 2.028 . S
Mg70 O77 1.986 . S
Mg70 O79 2.114 . S
Mg70 O80 2.251 . S
Mg70 O83 2.010 . S
O71 Mg70 2.028 . S
O71 C74 1.250 . S
O72 Mg73 2.028 . S
O72 C74 1.248 . S
Mg73 O72 2.028 . S
Mg73 O78 2.032 1_565 S
Mg73 O80 2.079 . S
C74 O71 1.250 . S
C74 O72 1.248 . S
C75 O76 1.264 . S
C75 O83 1.249 . S
O76 C75 1.264 . S
O77 Mg70 1.986 . S
O77 C81 1.246 1_565 S
O78 Mg73 2.032 1_545 S
O78 C81 1.259 . S
O79 Mg70 2.114 . S
O79 C82 1.252 . S
O80 Mg70 2.251 . S
O80 Mg73 2.079 . S
O80 C82 1.273 . S
C81 O77 1.246 1_545 S
C81 O78 1.259 . S
C82 O79 1.252 . S
C82 O80 1.273 . S
O83 Mg70 2.010 . S
O83 C75 1.249 . S
Mg84 O85 2.028 . S
Mg84 O91 1.986 . S
Mg84 O93 2.114 . S
Mg84 O94 2.251 . S
Mg84 O97 2.010 . S
O85 Mg84 2.028 . S
O85 C88 1.250 . S
O86 Mg87 2.028 . S
O86 C88 1.248 . S
Mg87 O86 2.028 . S
Mg87 O92 2.032 . S
Mg87 O94 2.079 . S
C88 O85 1.250 . S
C88 O86 1.248 . S
C89 O90 1.264 . S
C89 O97 1.249 1_545 S
O90 C89 1.264 . S
O91 Mg84 1.986 . S
O91 C95 1.246 . S
O92 Mg87 2.032 . S
O92 C95 1.259 . S
O93 Mg84 2.114 . S
O93 C96 1.252 . S
O94 Mg84 2.251 . S
O94 Mg87 2.079 . S
O94 C96 1.273 . S
C95 O91 1.246 . S
C95 O92 1.259 . S
C96 O93 1.252 . S
C96 O94 1.273 . S
O97 Mg84 2.010 . S
O97 C89 1.249 1_565 S
Mg98 O99 2.028 . S
Mg98 O105 1.986 . S
Mg98 O107 2.114 . S
Mg98 O108 2.251 . S
Mg98 O111 2.010 . S
O99 Mg98 2.028 . S
O99 C102 1.250 . S
O100 Mg101 2.028 . S
O100 C102 1.248 . S
Mg101 O100 2.028 . S
Mg101 O106 2.032 . S
Mg101 O108 2.079 . S
C102 O99 1.250 . S
C102 O100 1.248 . S
C103 O104 1.264 . S
C103 O111 1.249 1_655 S
O104 C103 1.264 . S
O105 Mg98 1.986 . S
O105 C109 1.246 . S
O106 Mg101 2.032 . S
O106 C109 1.259 . S
O107 Mg98 2.114 . S
O107 C110 1.252 . S
O108 Mg98 2.251 . S
O108 Mg101 2.079 . S
O108 C110 1.273 . S
C109 O105 1.246 . S
C109 O106 1.259 . S
C110 O107 1.252 . S
C110 O108 1.273 . S
O111 Mg98 2.010 . S
O111 C103 1.249 1_455 S
Mg112 O113 2.028 . S
Mg112 O119 1.986 . S
Mg112 O121 2.114 . S
Mg112 O122 2.251 . S
Mg112 O125 2.010 . S
O113 Mg112 2.028 . S
O113 C116 1.250 . S
O114 Mg115 2.028 . S
O114 C116 1.248 . S
Mg115 O114 2.028 . S
Mg115 O120 2.032 . S
Mg115 O122 2.079 . S
C116 O113 1.250 . S
C116 O114 1.248 . S
C117 O118 1.264 . S
C117 O125 1.249 . S
O118 C117 1.264 . S
O119 Mg112 1.986 . S
O119 C123 1.246 . S
O120 Mg115 2.032 . S
O120 C123 1.259 . S
O121 Mg112 2.114 . S
O121 C124 1.252 . S
O122 Mg112 2.251 . S
O122 Mg115 2.079 . S
O122 C124 1.273 . S
C123 O119 1.246 . S
C123 O120 1.259 . S
C124 O121 1.252 . S
C124 O122 1.273 . S
O125 Mg112 2.010 . S
O125 C117 1.249 . S
Mg126 O127 2.028 . S
Mg126 O133 1.986 . S
Mg126 O135 2.114 . S
Mg126 O136 2.251 . S
Mg126 O139 2.010 . S
O127 Mg126 2.028 . S
O127 C130 1.250 . S
O128 Mg129 2.028 . S
O128 C130 1.248 . S
Mg129 O128 2.028 . S
Mg129 O134 2.032 . S
Mg129 O136 2.079 . S
C130 O127 1.250 . S
C130 O128 1.248 . S
C131 O132 1.264 . S
C131 O139 1.249 1_455 S
O132 C131 1.264 . S
O133 Mg126 1.986 . S
O133 C137 1.246 . S
O134 Mg129 2.032 . S
O134 C137 1.259 . S
O135 Mg126 2.114 . S
O135 C138 1.252 . S
O136 Mg126 2.251 . S
O136 Mg129 2.079 . S
O136 C138 1.273 . S
C137 O133 1.246 . S
C137 O134 1.259 . S
C138 O135 1.252 . S
C138 O136 1.273 . S
O139 Mg126 2.010 . S
O139 C131 1.249 1_655 S
Mg140 O141 2.028 . S
Mg140 O147 1.986 . S
Mg140 O149 2.114 . S
Mg140 O150 2.251 . S
Mg140 O153 2.010 . S
O141 Mg140 2.028 . S
O141 C144 1.250 . S
O142 Mg143 2.028 . S
O142 C144 1.248 . S
Mg143 O142 2.028 . S
Mg143 O148 2.032 . S
Mg143 O150 2.079 . S
C144 O141 1.250 . S
C144 O142 1.248 . S
C145 O146 1.264 . S
C145 O153 1.249 . S
O146 C145 1.264 . S
O147 Mg140 1.986 . S
O147 C151 1.246 . S
O148 Mg143 2.032 . S
O148 C151 1.259 . S
O149 Mg140 2.114 . S
O149 C152 1.252 . S
O150 Mg140 2.251 . S
O150 Mg143 2.079 . S
O150 C152 1.273 . S
C151 O147 1.246 . S
C151 O148 1.259 . S
C152 O149 1.252 . S
C152 O150 1.273 . S
O153 Mg140 2.010 . S
O153 C145 1.249 . S
Mg154 O155 2.028 . S
Mg154 O161 1.986 . S
Mg154 O163 2.114 . S
Mg154 O164 2.251 . S
Mg154 O167 2.010 . S
O155 Mg154 2.028 . S
O155 C158 1.250 . S
O156 Mg157 2.028 . S
O156 C158 1.248 . S
Mg157 O156 2.028 . S
Mg157 O162 2.032 . S
Mg157 O164 2.079 . S
C158 O155 1.250 . S
C158 O156 1.248 . S
C159 O160 1.264 . S
C159 O167 1.249 1_565 S
O160 C159 1.264 . S
O161 Mg154 1.986 . S
O161 C165 1.246 . S
O162 Mg157 2.032 . S
O162 C165 1.259 . S
O163 Mg154 2.114 . S
O163 C166 1.252 . S
O164 Mg154 2.251 . S
O164 Mg157 2.079 . S
O164 C166 1.273 . S
C165 O161 1.246 . S
C165 O162 1.259 . S
C166 O163 1.252 . S
C166 O164 1.273 . S
O167 Mg154 2.010 . S
O167 C159 1.249 1_545 S
Mg168 O169 2.028 . S
Mg168 O175 1.986 . S
Mg168 O177 2.114 . S
Mg168 O178 2.251 . S
Mg168 O181 2.010 . S
O169 Mg168 2.028 . S
O169 C172 1.250 . S
O170 Mg171 2.028 . S
O170 C172 1.248 . S
Mg171 O170 2.028 . S
Mg171 O176 2.032 . S
Mg171 O178 2.079 . S
C172 O169 1.250 . S
C172 O170 1.248 . S
C173 O174 1.261 1_655 S
C173 O181 1.253 . S
O174 C173 1.261 1_455 S
O175 Mg168 1.986 . S
O175 C179 1.246 . S
O176 Mg171 2.032 . S
O176 C179 1.259 . S
O177 Mg168 2.114 . S
O177 C180 1.252 . S
O178 Mg168 2.251 . S
O178 Mg171 2.079 . S
O178 C180 1.273 . S
C179 O175 1.246 . S
C179 O176 1.259 . S
C180 O177 1.252 . S
C180 O178 1.273 . S
O181 Mg168 2.010 . S
O181 C173 1.253 . S
Mg182 O183 2.028 . S
Mg182 O189 1.986 . S
Mg182 O191 2.114 . S
Mg182 O192 2.251 . S
Mg182 O195 2.010 . S
O183 Mg182 2.028 . S
O183 C186 1.250 . S
O184 Mg185 2.028 . S
O184 C186 1.248 . S
Mg185 O184 2.028 . S
Mg185 O190 2.032 . S
Mg185 O192 2.079 . S
C186 O183 1.250 . S
C186 O184 1.248 . S
C187 O188 1.264 . S
C187 O195 1.249 . S
O188 C187 1.264 . S
O189 Mg182 1.986 . S
O189 C193 1.246 . S
O190 Mg185 2.032 . S
O190 C193 1.259 . S
O191 Mg182 2.114 . S
O191 C194 1.252 . S
O192 Mg182 2.251 . S
O192 Mg185 2.079 . S
O192 C194 1.273 . S
C193 O189 1.246 . S
C193 O190 1.259 . S
C194 O191 1.252 . S
C194 O192 1.273 . S
O195 Mg182 2.010 . S
O195 C187 1.249 . S
Mg196 O197 2.028 . S
Mg196 O203 1.986 . S
Mg196 O205 2.114 . S
Mg196 O206 2.251 . S
Mg196 O209 2.010 . S
O197 Mg196 2.028 . S
O197 C200 1.250 . S
O198 Mg199 2.028 . S
O198 C200 1.248 . S
Mg199 O198 2.028 . S
Mg199 O204 2.032 . S
Mg199 O206 2.079 . S
C200 O197 1.250 . S
C200 O198 1.248 . S
C201 O202 1.264 . S
C201 O209 1.249 . S
O202 C201 1.264 . S
O203 Mg196 1.986 . S
O203 C207 1.246 . S
O204 Mg199 2.032 . S
O204 C207 1.259 . S
O205 Mg196 2.114 . S
O205 C208 1.252 . S
O206 Mg196 2.251 . S
O206 Mg199 2.079 . S
O206 C208 1.273 . S
C207 O203 1.246 . S
C207 O204 1.259 . S
C208 O205 1.252 . S
C208 O206 1.273 . S
O209 Mg196 2.010 . S
O209 C201 1.249 . S
Mg210 O211 2.028 . S
Mg210 O217 1.986 . S
Mg210 O219 2.114 . S
Mg210 O220 2.251 . S
Mg210 O223 2.010 . S
O211 Mg210 2.028 . S
O211 C214 1.250 . S
O212 Mg213 2.028 . S
O212 C214 1.248 . S
Mg213 O212 2.028 . S
Mg213 O218 2.032 . S
Mg213 O220 2.079 . S
C214 O211 1.250 . S
C214 O212 1.248 . S
C215 O216 1.264 . S
C215 O223 1.249 . S
O216 C215 1.264 . S
O217 Mg210 1.986 . S
O217 C221 1.246 . S
O218 Mg213 2.032 . S
O218 C221 1.259 . S
O219 Mg210 2.114 . S
O219 C222 1.252 . S
O220 Mg210 2.251 . S
O220 Mg213 2.079 . S
O220 C222 1.273 . S
C221 O217 1.246 . S
C221 O218 1.259 . S
C222 O219 1.252 . S
C222 O220 1.273 . S
O223 Mg210 2.010 . S
O223 C215 1.249 . S
Mg224 O225 2.028 . S
Mg224 O231 1.986 . S
Mg224 O233 2.114 . S
Mg224 O234 2.251 . S
Mg224 O237 2.010 . S
O225 Mg224 2.028 . S
O225 C228 1.250 . S
O226 Mg227 2.028 . S
O226 C228 1.248 . S
Mg227 O226 2.028 . S
Mg227 O232 2.032 . S
Mg227 O234 2.079 . S
C228 O225 1.250 . S
C228 O226 1.248 . S
C229 O230 1.264 . S
C229 O237 1.249 . S
O230 C229 1.264 . S
O231 Mg224 1.986 . S
O231 C235 1.246 . S
O232 Mg227 2.032 . S
O232 C235 1.259 . S
O233 Mg224 2.114 . S
O233 C236 1.252 . S
O234 Mg224 2.251 . S
O234 Mg227 2.079 . S
O234 C236 1.273 . S
C235 O231 1.246 . S
C235 O232 1.259 . S
C236 O233 1.252 . S
C236 O234 1.273 . S
O237 Mg224 2.010 . S
O237 C229 1.249 . S
Mg238 O239 2.028 . S
Mg238 O245 1.986 . S
Mg238 O247 2.114 . S
Mg238 O248 2.251 . S
Mg238 O251 2.010 . S
O239 Mg238 2.028 . S
O239 C242 1.250 . S
O240 Mg241 2.028 . S
O240 C242 1.248 . S
Mg241 O240 2.028 . S
Mg241 O246 2.032 . S
Mg241 O248 2.079 . S
C242 O239 1.250 . S
C242 O240 1.248 . S
C243 O244 1.264 . S
C243 O251 1.249 . S
O244 C243 1.264 . S
O245 Mg238 1.986 . S
O245 C249 1.246 . S
O246 Mg241 2.032 . S
O246 C249 1.259 . S
O247 Mg238 2.114 . S
O247 C250 1.252 . S
O248 Mg238 2.251 . S
O248 Mg241 2.079 . S
O248 C250 1.273 . S
C249 O245 1.246 . S
C249 O246 1.259 . S
C250 O247 1.252 . S
C250 O248 1.273 . S
O251 Mg238 2.010 . S
O251 C243 1.249 . S
Mg252 O253 2.028 . S
Mg252 O259 1.986 . S
Mg252 O261 2.114 . S
Mg252 O262 2.251 . S
Mg252 O265 2.010 . S
O253 Mg252 2.028 . S
O253 C256 1.250 . S
O254 Mg255 2.028 . S
O254 C256 1.248 . S
Mg255 O254 2.028 . S
Mg255 O260 2.032 . S
Mg255 O262 2.079 . S
C256 O253 1.250 . S
C256 O254 1.248 . S
C257 O258 1.264 . S
C257 O265 1.249 . S
O258 C257 1.264 . S
O259 Mg252 1.986 . S
O259 C263 1.246 . S
O260 Mg255 2.032 . S
O260 C263 1.259 . S
O261 Mg252 2.114 . S
O261 C264 1.252 . S
O262 Mg252 2.251 . S
O262 Mg255 2.079 . S
O262 C264 1.273 . S
C263 O259 1.246 . S
C263 O260 1.259 . S
C264 O261 1.252 . S
C264 O262 1.273 . S
O265 Mg252 2.010 . S
O265 C257 1.249 . S
Mg266 O267 2.028 . S
Mg266 O273 1.986 . S
Mg266 O275 2.114 . S
Mg266 O276 2.251 . S
Mg266 O279 2.010 . S
O267 Mg266 2.028 . S
O267 C270 1.250 . S
O268 Mg269 2.028 . S
O268 C270 1.248 . S
Mg269 O268 2.028 . S
Mg269 O274 2.032 . S
Mg269 O276 2.079 . S
C270 O267 1.250 . S
C270 O268 1.248 . S
C271 O272 1.264 . S
C271 O279 1.249 . S
O272 C271 1.264 . S
O273 Mg266 1.986 . S
O273 C277 1.246 . S
O274 Mg269 2.032 . S
O274 C277 1.259 . S
O275 Mg266 2.114 . S
O275 C278 1.252 . S
O276 Mg266 2.251 . S
O276 Mg269 2.079 . S
O276 C278 1.273 . S
C277 O273 1.246 . S
C277 O274 1.259 . S
C278 O275 1.252 . S
C278 O276 1.273 . S
O279 Mg266 2.010 . S
O279 C271 1.249 . S
Mg280 O281 2.028 . S
Mg280 O287 1.986 . S
Mg280 O289 2.114 . S
Mg280 O290 2.251 . S
Mg280 O293 2.010 . S
O281 Mg280 2.028 . S
O281 C284 1.250 . S
O282 Mg283 2.028 . S
O282 C284 1.248 . S
Mg283 O282 2.028 . S
Mg283 O288 2.032 . S
Mg283 O290 2.079 . S
C284 O281 1.250 . S
C284 O282 1.248 . S
C285 O286 1.264 . S
C285 O293 1.249 . S
O286 C285 1.264 . S
O287 Mg280 1.986 . S
O287 C291 1.246 . S
O288 Mg283 2.032 . S
O288 C291 1.259 . S
O289 Mg280 2.114 . S
O289 C292 1.252 . S
O290 Mg280 2.251 . S
O290 Mg283 2.079 . S
O290 C292 1.273 . S
C291 O287 1.246 . S
C291 O288 1.259 . S
C292 O289 1.252 . S
C292 O290 1.273 . S
O293 Mg280 2.010 . S
O293 C285 1.249 . S
Mg294 O295 2.028 . S
Mg294 O301 1.986 . S
Mg294 O303 2.114 1_556 S
Mg294 O304 2.251 1_556 S
Mg294 O307 2.010 . S
O295 Mg294 2.028 . S
O295 C298 1.250 . S
O296 Mg297 2.028 1_556 S
O296 C298 1.248 . S
Mg297 O296 2.028 1_554 S
Mg297 O302 2.032 1_554 S
Mg297 O304 2.079 . S
C298 O295 1.250 . S
C298 O296 1.248 . S
C299 O300 1.264 . S
C299 O307 1.249 . S
O300 C299 1.264 . S
O301 Mg294 1.986 . S
O301 C305 1.246 . S
O302 Mg297 2.032 1_556 S
O302 C305 1.259 . S
O303 Mg294 2.114 1_554 S
O303 C306 1.252 . S
O304 Mg294 2.251 1_554 S
O304 Mg297 2.079 . S
O304 C306 1.273 . S
C305 O301 1.246 . S
C305 O302 1.259 . S
C306 O303 1.252 . S
C306 O304 1.273 . S
O307 Mg294 2.010 . S
O307 C299 1.249 . S
Mg308 O309 2.028 . S
Mg308 O315 1.986 . S
Mg308 O317 2.114 1_556 S
Mg308 O318 2.251 1_556 S
Mg308 O321 2.010 . S
O309 Mg308 2.028 . S
O309 C312 1.250 . S
O310 Mg311 2.028 1_556 S
O310 C312 1.248 . S
Mg311 O310 2.028 1_554 S
Mg311 O316 2.032 1_554 S
Mg311 O318 2.079 . S
C312 O309 1.250 . S
C312 O310 1.248 . S
C313 O314 1.264 . S
C313 O321 1.249 . S
O314 C313 1.264 . S
O315 Mg308 1.986 . S
O315 C319 1.246 . S
O316 Mg311 2.032 1_556 S
O316 C319 1.259 . S
O317 Mg308 2.114 1_554 S
O317 C320 1.252 . S
O318 Mg308 2.251 1_554 S
O318 Mg311 2.079 . S
O318 C320 1.273 . S
C319 O315 1.246 . S
C319 O316 1.259 . S
C320 O317 1.252 . S
C320 O318 1.273 . S
O321 Mg308 2.010 . S
O321 C313 1.249 . S
Mg322 O323 2.028 . S
Mg322 O329 1.986 . S
Mg322 O331 2.114 1_556 S
Mg322 O332 2.251 1_556 S
Mg322 O335 2.010 . S
O323 Mg322 2.028 . S
O323 C326 1.250 . S
O324 Mg325 2.028 1_556 S
O324 C326 1.248 . S
Mg325 O324 2.028 1_554 S
Mg325 O330 2.032 1_554 S
Mg325 O332 2.079 . S
C326 O323 1.250 . S
C326 O324 1.248 . S
C327 O328 1.264 . S
C327 O335 1.249 . S
O328 C327 1.264 . S
O329 Mg322 1.986 . S
O329 C333 1.246 . S
O330 Mg325 2.032 1_556 S
O330 C333 1.259 . S
O331 Mg322 2.114 1_554 S
O331 C334 1.252 . S
O332 Mg322 2.251 1_554 S
O332 Mg325 2.079 . S
O332 C334 1.273 . S
C333 O329 1.246 . S
C333 O330 1.259 . S
C334 O331 1.252 . S
C334 O332 1.273 . S
O335 Mg322 2.010 . S
O335 C327 1.249 . S
Mg336 O337 2.028 . S
Mg336 O343 1.986 . S
Mg336 O345 2.114 . S
Mg336 O346 2.251 . S
Mg336 O349 2.010 . S
O337 Mg336 2.028 . S
O337 C340 1.250 . S
O338 Mg339 2.028 . S
O338 C340 1.248 . S
Mg339 O338 2.028 . S
Mg339 O344 2.032 . S
Mg339 O346 2.079 . S
C340 O337 1.250 . S
C340 O338 1.248 . S
C341 O342 1.264 . S
C341 O349 1.249 . S
O342 C341 1.264 . S
O343 Mg336 1.986 . S
O343 C347 1.246 . S
O344 Mg339 2.032 . S
O344 C347 1.259 . S
O345 Mg336 2.114 . S
O345 C348 1.252 . S
O346 Mg336 2.251 . S
O346 Mg339 2.079 . S
O346 C348 1.273 . S
C347 O343 1.246 . S
C347 O344 1.259 . S
C348 O345 1.252 . S
C348 O346 1.273 . S
O349 Mg336 2.010 . S
O349 C341 1.249 . S
Mg350 O351 2.028 . S
Mg350 O357 1.986 . S
Mg350 O359 2.114 . S
Mg350 O360 2.251 . S
Mg350 O363 2.010 . S
O351 Mg350 2.028 . S
O351 C354 1.250 . S
O352 Mg353 2.028 . S
O352 C354 1.248 . S
Mg353 O352 2.028 . S
Mg353 O358 2.032 . S
Mg353 O360 2.079 . S
C354 O351 1.250 . S
C354 O352 1.248 . S
C355 O356 1.264 . S
C355 O363 1.249 . S
O356 C355 1.264 . S
O357 Mg350 1.986 . S
O357 C361 1.246 . S
O358 Mg353 2.032 . S
O358 C361 1.259 . S
O359 Mg350 2.114 . S
O359 C362 1.252 . S
O360 Mg350 2.251 . S
O360 Mg353 2.079 . S
O360 C362 1.273 . S
C361 O357 1.246 . S
C361 O358 1.259 . S
C362 O359 1.252 . S
C362 O360 1.273 . S
O363 Mg350 2.010 . S
O363 C355 1.249 . S
Mg364 O365 2.028 . S
Mg364 O371 1.986 . S
Mg364 O373 2.114 . S
Mg364 O374 2.251 . S
Mg364 O377 2.010 . S
O365 Mg364 2.028 . S
O365 C368 1.250 . S
O366 Mg367 2.028 . S
O366 C368 1.248 . S
Mg367 O366 2.028 . S
Mg367 O372 2.032 . S
Mg367 O374 2.079 . S
C368 O365 1.250 . S
C368 O366 1.248 . S
C369 O370 1.264 . S
C369 O377 1.249 . S
O370 C369 1.264 . S
O371 Mg364 1.986 . S
O371 C375 1.246 . S
O372 Mg367 2.032 . S
O372 C375 1.259 . S
O373 Mg364 2.114 . S
O373 C376 1.252 . S
O374 Mg364 2.251 . S
O374 Mg367 2.079 . S
O374 C376 1.273 . S
C375 O371 1.246 . S
C375 O372 1.259 . S
C376 O373 1.252 . S
C376 O374 1.273 . S
O377 Mg364 2.010 . S
O377 C369 1.249 . S
Mg378 O379 2.028 . S
Mg378 O385 1.986 . S
Mg378 O387 2.114 1_554 S
Mg378 O388 2.251 1_554 S
Mg378 O391 2.010 . S
O379 Mg378 2.028 . S
O379 C382 1.250 . S
O380 Mg381 2.028 1_554 S
O380 C382 1.248 . S
Mg381 O380 2.028 1_556 S
Mg381 O386 2.030 1_556 S
Mg381 O388 2.079 . S
C382 O379 1.250 . S
C382 O380 1.248 . S
C383 O384 1.264 . S
C383 O391 1.249 . S
O384 C383 1.264 . S
O385 Mg378 1.986 . S
O385 C389 1.246 . S
O386 Mg381 2.030 1_554 S
O386 C389 1.261 . S
O387 Mg378 2.114 1_556 S
O387 C390 1.252 . S
O388 Mg378 2.251 1_556 S
O388 Mg381 2.079 . S
O388 C390 1.273 . S
C389 O385 1.246 . S
C389 O386 1.261 . S
C390 O387 1.252 . S
C390 O388 1.273 . S
O391 Mg378 2.010 . S
O391 C383 1.249 . S
Mg392 O393 2.028 . S
Mg392 O399 1.986 . S
Mg392 O401 2.114 1_554 S
Mg392 O402 2.251 1_554 S
Mg392 O405 2.010 . S
O393 Mg392 2.028 . S
O393 C396 1.250 . S
O394 Mg395 2.028 1_554 S
O394 C396 1.248 . S
Mg395 O394 2.028 1_556 S
Mg395 O400 2.032 1_556 S
Mg395 O402 2.079 . S
C396 O393 1.250 . S
C396 O394 1.248 . S
C397 O398 1.264 . S
C397 O405 1.249 . S
O398 C397 1.264 . S
O399 Mg392 1.986 . S
O399 C403 1.246 . S
O400 Mg395 2.032 1_554 S
O400 C403 1.260 . S
O401 Mg392 2.114 1_556 S
O401 C404 1.252 . S
O402 Mg392 2.251 1_556 S
O402 Mg395 2.079 . S
O402 C404 1.273 . S
C403 O399 1.246 . S
C403 O400 1.260 . S
C404 O401 1.252 . S
C404 O402 1.273 . S
O405 Mg392 2.010 . S
O405 C397 1.249 . S
Mg406 O407 2.028 1_554 S
Mg406 O413 1.986 . S
Mg406 O415 2.114 . S
Mg406 O416 2.251 . S
Mg406 O419 2.010 . S
O407 Mg406 2.028 1_556 S
O407 C410 1.250 . S
O408 Mg409 2.028 1_556 S
O408 C410 1.248 . S
Mg409 O408 2.028 1_554 S
Mg409 O414 2.032 . S
Mg409 O416 2.079 . S
C410 O407 1.250 . S
C410 O408 1.248 . S
C411 O412 1.264 . S
C411 O419 1.249 . S
O412 C411 1.264 . S
O413 Mg406 1.986 . S
O413 C417 1.246 . S
O414 Mg409 2.032 . S
O414 C417 1.259 . S
O415 Mg406 2.114 . S
O415 C418 1.252 . S
O416 Mg406 2.251 . S
O416 Mg409 2.079 . S
O416 C418 1.273 . S
C417 O413 1.246 . S
C417 O414 1.259 . S
C418 O415 1.252 . S
C418 O416 1.273 . S
O419 Mg406 2.010 . S
O419 C411 1.249 . S
Mg420 O421 2.028 . S
Mg420 O427 1.986 . S
Mg420 O429 2.114 . S
Mg420 O430 2.251 . S
Mg420 O433 2.010 . S
O421 Mg420 2.028 . S
O421 C424 1.250 . S
O422 Mg423 2.028 . S
O422 C424 1.248 . S
Mg423 O422 2.028 . S
Mg423 O428 2.032 . S
Mg423 O430 2.079 . S
C424 O421 1.250 . S
C424 O422 1.248 . S
C425 O426 1.264 . S
C425 O433 1.249 . S
O426 C425 1.264 . S
O427 Mg420 1.986 . S
O427 C431 1.246 . S
O428 Mg423 2.032 . S
O428 C431 1.259 . S
O429 Mg420 2.114 . S
O429 C432 1.252 . S
O430 Mg420 2.251 . S
O430 Mg423 2.079 . S
O430 C432 1.273 . S
C431 O427 1.246 . S
C431 O428 1.259 . S
C432 O429 1.252 . S
C432 O430 1.273 . S
O433 Mg420 2.010 . S
O433 C425 1.249 . S
Mg434 O435 2.028 . S
Mg434 O441 1.986 . S
Mg434 O443 2.114 . S
Mg434 O444 2.251 . S
Mg434 O447 2.010 . S
O435 Mg434 2.028 . S
O435 C438 1.250 . S
O436 Mg437 2.028 . S
O436 C438 1.248 . S
Mg437 O436 2.028 . S
Mg437 O442 2.032 . S
Mg437 O444 2.079 . S
C438 O435 1.250 . S
C438 O436 1.248 . S
C439 O440 1.264 . S
C439 O447 1.249 . S
O440 C439 1.264 . S
O441 Mg434 1.986 . S
O441 C445 1.246 . S
O442 Mg437 2.032 . S
O442 C445 1.259 . S
O443 Mg434 2.114 . S
O443 C446 1.252 . S
O444 Mg434 2.251 . S
O444 Mg437 2.079 . S
O444 C446 1.273 . S
C445 O441 1.246 . S
C445 O442 1.259 . S
C446 O443 1.252 . S
C446 O444 1.273 . S
O447 Mg434 2.010 . S
O447 C439 1.249 . S
Mg448 O449 2.028 . S
Mg448 O455 1.986 . S
Mg448 O457 2.114 . S
Mg448 O458 2.251 . S
Mg448 O461 2.010 . S
O449 Mg448 2.028 . S
O449 C452 1.250 . S
O450 Mg451 2.028 . S
O450 C452 1.248 . S
Mg451 O450 2.028 . S
Mg451 O456 2.032 . S
Mg451 O458 2.079 . S
C452 O449 1.250 . S
C452 O450 1.248 . S
C453 O454 1.264 . S
C453 O461 1.249 . S
O454 C453 1.264 . S
O455 Mg448 1.986 . S
O455 C459 1.246 . S
O456 Mg451 2.032 . S
O456 C459 1.259 . S
O457 Mg448 2.114 . S
O457 C460 1.252 . S
O458 Mg448 2.251 . S
O458 Mg451 2.079 . S
O458 C460 1.273 . S
C459 O455 1.246 . S
C459 O456 1.259 . S
C460 O457 1.252 . S
C460 O458 1.273 . S
O461 Mg448 2.010 . S
O461 C453 1.249 . S
Mg462 O463 2.028 . S
Mg462 O469 1.986 . S
Mg462 O471 2.114 . S
Mg462 O472 2.251 . S
Mg462 O475 2.010 . S
O463 Mg462 2.028 . S
O463 C466 1.250 . S
O464 Mg465 2.028 . S
O464 C466 1.248 . S
Mg465 O464 2.028 . S
Mg465 O470 2.032 . S
Mg465 O472 2.079 . S
C466 O463 1.250 . S
C466 O464 1.248 . S
C467 O468 1.264 . S
C467 O475 1.249 . S
O468 C467 1.264 . S
O469 Mg462 1.986 . S
O469 C473 1.246 . S
O470 Mg465 2.032 . S
O470 C473 1.259 . S
O471 Mg462 2.114 . S
O471 C474 1.252 . S
O472 Mg462 2.251 . S
O472 Mg465 2.079 . S
O472 C474 1.273 . S
C473 O469 1.246 . S
C473 O470 1.259 . S
C474 O471 1.252 . S
C474 O472 1.273 . S
O475 Mg462 2.010 . S
O475 C467 1.249 . S
Mg476 O477 2.028 . S
Mg476 O483 1.986 . S
Mg476 O485 2.114 . S
Mg476 O486 2.251 . S
Mg476 O489 2.010 . S
O477 Mg476 2.028 . S
O477 C480 1.250 . S
O478 Mg479 2.028 . S
O478 C480 1.248 . S
Mg479 O478 2.028 . S
Mg479 O484 2.032 . S
Mg479 O486 2.079 . S
C480 O477 1.250 . S
C480 O478 1.248 . S
C481 O482 1.264 . S
C481 O489 1.249 . S
O482 C481 1.264 . S
O483 Mg476 1.986 . S
O483 C487 1.246 . S
O484 Mg479 2.032 . S
O484 C487 1.259 . S
O485 Mg476 2.114 . S
O485 C488 1.252 . S
O486 Mg476 2.251 . S
O486 Mg479 2.079 . S
O486 C488 1.273 . S
C487 O483 1.246 . S
C487 O484 1.259 . S
C488 O485 1.252 . S
C488 O486 1.273 . S
O489 Mg476 2.010 . S
O489 C481 1.249 . S
Mg490 O491 2.028 . S
Mg490 O497 1.986 . S
Mg490 O499 2.114 . S
Mg490 O500 2.251 . S
Mg490 O503 2.010 . S
O491 Mg490 2.028 . S
O491 C494 1.250 . S
O492 Mg493 2.028 . S
O492 C494 1.248 . S
Mg493 O492 2.028 . S
Mg493 O498 2.032 . S
Mg493 O500 2.079 . S
C494 O491 1.250 . S
C494 O492 1.248 . S
C495 O496 1.264 . S
C495 O503 1.249 . S
O496 C495 1.264 . S
O497 Mg490 1.986 . S
O497 C501 1.246 . S
O498 Mg493 2.032 . S
O498 C501 1.259 . S
O499 Mg490 2.114 . S
O499 C502 1.252 . S
O500 Mg490 2.251 . S
O500 Mg493 2.079 . S
O500 C502 1.273 . S
C501 O497 1.246 . S
C501 O498 1.259 . S
C502 O499 1.252 . S
C502 O500 1.273 . S
O503 Mg490 2.010 . S
O503 C495 1.249 . S
C11 C102 1.788 1_554 S
C19 C116 2.079 1_554 S
C88 C33 1.940 1_556 S
C158 C47 1.939 . S
C61 C130 2.079 . S
C81 C144 1.788 . S
C18 C89 1.784 1_554 S
C32 C103 1.958 1_554 S
C117 C12 1.607 1_556 S
C131 C82 1.607 . S
C46 C145 1.958 . S
C159 C60 1.784 . S
C270 C179 1.788 . S
C187 C284 2.079 . S
C201 C256 1.940 . S
C326 C215 1.939 . S
C229 C298 2.079 . S
C312 C249 1.788 . S
C186 C257 1.784 . S
C271 C200 1.958 . S
C180 C285 1.607 . S
C299 C250 1.607 . S
C313 C214 1.958 . S
C327 C228 1.784 . S
C438 C347 1.787 . S
C452 C355 2.079 . S
C424 C369 1.939 . S
C383 C494 1.940 . S
C397 C466 2.079 . S
C480 C417 1.788 . S
C425 C354 1.784 . S
C368 C439 1.958 . S
C348 C453 1.607 . S
C467 C418 1.607 . S
C481 C382 1.958 . S
C495 C396 1.784 . S
C54 C4 1.962 . S
C68 C26 2.232 1_565 S
C40 C74 1.963 1_655 S
C138 C96 1.897 . S
C152 C110 2.001 1_545 S
C166 C124 1.897 1_655 S
C222 C172 1.963 . S
C236 C194 2.232 . S
C208 C242 1.963 . S
C306 C264 1.897 . S
C320 C278 2.001 . S
C334 C292 1.897 . S
C390 C340 1.963 . S
C362 C404 2.232 . S
C410 C376 1.962 . S
C432 C474 1.897 . S
C446 C488 2.001 . S
C460 C502 1.897 . S
C5 C263 1.357 . S
C277 C25 1.425 . S
C291 C39 1.568 . S
C473 C53 1.568 . S
C487 C67 1.425 . S
C501 C75 1.357 . S
C95 C341 1.357 . S
C361 C109 1.425 . S
C375 C123 1.568 . S
C137 C221 1.568 . S
C151 C235 1.425 . S
C165 C243 1.357 . S
C431 C173 1.355 1_455 S
C445 C193 1.425 . S
C207 C459 1.568 1_545 S
C305 C389 1.568 1_546 S
C319 C403 1.425 1_656 S
C333 C411 1.357 1_556 S
