# Generated by pormake.
# Topology wgp, (5)-cn, num edge types: 1
# Building blocks:
#     Node 0, Type 0, BuildingBlock: XOMCOT_clean_sbu_0, # of connection points: 5
#     Node 1, Type 0, BuildingBlock: XOMCOT_clean_sbu_0, # of connection points: 5
#     Node 2, Type 0, BuildingBlock: XOMCOT_clean_sbu_0, # of connection points: 5
#     Node 3, Type 0, BuildingBlock: XOMCOT_clean_sbu_0, # of connection points: 5
#     Node 4, Type 0, BuildingBlock: XOMCOT_clean_sbu_0, # of connection points: 5
#     Node 5, Type 0, BuildingBlock: XOMCOT_clean_sbu_0, # of connection points: 5
#     Node 6, Type 0, BuildingBlock: XOMCOT_clean_sbu_0, # of connection points: 5
#     Node 7, Type 0, BuildingBlock: XOMCOT_clean_sbu_0, # of connection points: 5
#     Node 8, Type 0, BuildingBlock: XOMCOT_clean_sbu_0, # of connection points: 5
#     Node 9, Type 0, BuildingBlock: XOMCOT_clean_sbu_0, # of connection points: 5
#     Node 10, Type 0, BuildingBlock: XOMCOT_clean_sbu_0, # of connection points: 5
#     Node 11, Type 0, BuildingBlock: XOMCOT_clean_sbu_0, # of connection points: 5
#     Node 12, Type 0, BuildingBlock: XOMCOT_clean_sbu_0, # of connection points: 5
#     Node 13, Type 0, BuildingBlock: XOMCOT_clean_sbu_0, # of connection points: 5
#     Node 14, Type 0, BuildingBlock: XOMCOT_clean_sbu_0, # of connection points: 5
#     Node 15, Type 0, BuildingBlock: XOMCOT_clean_sbu_0, # of connection points: 5
#     Node 16, Type 0, BuildingBlock: XOMCOT_clean_sbu_0, # of connection points: 5
#     Node 17, Type 0, BuildingBlock: XOMCOT_clean_sbu_0, # of connection points: 5
#     Node 18, Type 0, BuildingBlock: XOMCOT_clean_sbu_0, # of connection points: 5
#     Node 19, Type 0, BuildingBlock: XOMCOT_clean_sbu_0, # of connection points: 5
#     Node 20, Type 0, BuildingBlock: XOMCOT_clean_sbu_0, # of connection points: 5
#     Node 21, Type 0, BuildingBlock: XOMCOT_clean_sbu_0, # of connection points: 5
#     Node 22, Type 0, BuildingBlock: XOMCOT_clean_sbu_0, # of connection points: 5
#     Node 23, Type 0, BuildingBlock: XOMCOT_clean_sbu_0, # of connection points: 5
#     Node 24, Type 0, BuildingBlock: XOMCOT_clean_sbu_0, # of connection points: 5
#     Node 25, Type 0, BuildingBlock: XOMCOT_clean_sbu_0, # of connection points: 5
#     Node 26, Type 0, BuildingBlock: XOMCOT_clean_sbu_0, # of connection points: 5
#     Node 27, Type 0, BuildingBlock: XOMCOT_clean_sbu_0, # of connection points: 5
#     Node 28, Type 0, BuildingBlock: XOMCOT_clean_sbu_0, # of connection points: 5
#     Node 29, Type 0, BuildingBlock: XOMCOT_clean_sbu_0, # of connection points: 5
#     Node 30, Type 0, BuildingBlock: XOMCOT_clean_sbu_0, # of connection points: 5
#     Node 31, Type 0, BuildingBlock: XOMCOT_clean_sbu_0, # of connection points: 5
#     Edge 32, Type (0, 0), BuildingBlock: UVAHIK_clean_linker_0, # of connection points: 2
#     Edge 33, Type (0, 0), BuildingBlock: UVAHIK_clean_linker_0, # of connection points: 2
#     Edge 34, Type (0, 0), BuildingBlock: UVAHIK_clean_linker_0, # of connection points: 2
#     Edge 35, Type (0, 0), BuildingBlock: UVAHIK_clean_linker_0, # of connection points: 2
#     Edge 36, Type (0, 0), BuildingBlock: UVAHIK_clean_linker_0, # of connection points: 2
#     Edge 37, Type (0, 0), BuildingBlock: UVAHIK_clean_linker_0, # of connection points: 2
#     Edge 38, Type (0, 0), BuildingBlock: UVAHIK_clean_linker_0, # of connection points: 2
#     Edge 39, Type (0, 0), BuildingBlock: UVAHIK_clean_linker_0, # of connection points: 2
#     Edge 40, Type (0, 0), BuildingBlock: UVAHIK_clean_linker_0, # of connection points: 2
#     Edge 41, Type (0, 0), BuildingBlock: UVAHIK_clean_linker_0, # of connection points: 2
#     Edge 42, Type (0, 0), BuildingBlock: UVAHIK_clean_linker_0, # of connection points: 2
#     Edge 43, Type (0, 0), BuildingBlock: UVAHIK_clean_linker_0, # of connection points: 2
#     Edge 44, Type (0, 0), BuildingBlock: UVAHIK_clean_linker_0, # of connection points: 2
#     Edge 45, Type (0, 0), BuildingBlock: UVAHIK_clean_linker_0, # of connection points: 2
#     Edge 46, Type (0, 0), BuildingBlock: UVAHIK_clean_linker_0, # of connection points: 2
#     Edge 47, Type (0, 0), BuildingBlock: UVAHIK_clean_linker_0, # of connection points: 2
#     Edge 48, Type (0, 0), BuildingBlock: UVAHIK_clean_linker_0, # of connection points: 2
#     Edge 49, Type (0, 0), BuildingBlock: UVAHIK_clean_linker_0, # of connection points: 2
#     Edge 50, Type (0, 0), BuildingBlock: UVAHIK_clean_linker_0, # of connection points: 2
#     Edge 51, Type (0, 0), BuildingBlock: UVAHIK_clean_linker_0, # of connection points: 2
#     Edge 52, Type (0, 0), BuildingBlock: UVAHIK_clean_linker_0, # of connection points: 2
#     Edge 53, Type (0, 0), BuildingBlock: UVAHIK_clean_linker_0, # of connection points: 2
#     Edge 54, Type (0, 0), BuildingBlock: UVAHIK_clean_linker_0, # of connection points: 2
#     Edge 55, Type (0, 0), BuildingBlock: UVAHIK_clean_linker_0, # of connection points: 2
#     Edge 56, Type (0, 0), BuildingBlock: UVAHIK_clean_linker_0, # of connection points: 2
#     Edge 57, Type (0, 0), BuildingBlock: UVAHIK_clean_linker_0, # of connection points: 2
#     Edge 58, Type (0, 0), BuildingBlock: UVAHIK_clean_linker_0, # of connection points: 2
#     Edge 59, Type (0, 0), BuildingBlock: UVAHIK_clean_linker_0, # of connection points: 2
#     Edge 60, Type (0, 0), BuildingBlock: UVAHIK_clean_linker_0, # of connection points: 2
#     Edge 61, Type (0, 0), BuildingBlock: UVAHIK_clean_linker_0, # of connection points: 2
#     Edge 62, Type (0, 0), BuildingBlock: UVAHIK_clean_linker_0, # of connection points: 2
#     Edge 63, Type (0, 0), BuildingBlock: UVAHIK_clean_linker_0, # of connection points: 2
#     Edge 64, Type (0, 0), BuildingBlock: UVAHIK_clean_linker_0, # of connection points: 2
#     Edge 65, Type (0, 0), BuildingBlock: UVAHIK_clean_linker_0, # of connection points: 2
#     Edge 66, Type (0, 0), BuildingBlock: UVAHIK_clean_linker_0, # of connection points: 2
#     Edge 67, Type (0, 0), BuildingBlock: UVAHIK_clean_linker_0, # of connection points: 2
#     Edge 68, Type (0, 0), BuildingBlock: UVAHIK_clean_linker_0, # of connection points: 2
#     Edge 69, Type (0, 0), BuildingBlock: UVAHIK_clean_linker_0, # of connection points: 2
#     Edge 70, Type (0, 0), BuildingBlock: UVAHIK_clean_linker_0, # of connection points: 2
#     Edge 71, Type (0, 0), BuildingBlock: UVAHIK_clean_linker_0, # of connection points: 2
#     Edge 72, Type (0, 0), BuildingBlock: UVAHIK_clean_linker_0, # of connection points: 2
#     Edge 73, Type (0, 0), BuildingBlock: UVAHIK_clean_linker_0, # of connection points: 2
#     Edge 74, Type (0, 0), BuildingBlock: UVAHIK_clean_linker_0, # of connection points: 2
#     Edge 75, Type (0, 0), BuildingBlock: UVAHIK_clean_linker_0, # of connection points: 2
#     Edge 76, Type (0, 0), BuildingBlock: UVAHIK_clean_linker_0, # of connection points: 2
#     Edge 77, Type (0, 0), BuildingBlock: UVAHIK_clean_linker_0, # of connection points: 2
#     Edge 78, Type (0, 0), BuildingBlock: UVAHIK_clean_linker_0, # of connection points: 2
#     Edge 79, Type (0, 0), BuildingBlock: UVAHIK_clean_linker_0, # of connection points: 2
#     Edge 80, Type (0, 0), BuildingBlock: UVAHIK_clean_linker_0, # of connection points: 2
#     Edge 81, Type (0, 0), BuildingBlock: UVAHIK_clean_linker_0, # of connection points: 2
#     Edge 82, Type (0, 0), BuildingBlock: UVAHIK_clean_linker_0, # of connection points: 2
#     Edge 83, Type (0, 0), BuildingBlock: UVAHIK_clean_linker_0, # of connection points: 2
#     Edge 84, Type (0, 0), BuildingBlock: UVAHIK_clean_linker_0, # of connection points: 2
#     Edge 85, Type (0, 0), BuildingBlock: UVAHIK_clean_linker_0, # of connection points: 2
#     Edge 86, Type (0, 0), BuildingBlock: UVAHIK_clean_linker_0, # of connection points: 2
#     Edge 87, Type (0, 0), BuildingBlock: UVAHIK_clean_linker_0, # of connection points: 2
#     Edge 88, Type (0, 0), BuildingBlock: UVAHIK_clean_linker_0, # of connection points: 2
#     Edge 89, Type (0, 0), BuildingBlock: UVAHIK_clean_linker_0, # of connection points: 2
#     Edge 90, Type (0, 0), BuildingBlock: UVAHIK_clean_linker_0, # of connection points: 2
#     Edge 91, Type (0, 0), BuildingBlock: UVAHIK_clean_linker_0, # of connection points: 2
#     Edge 92, Type (0, 0), BuildingBlock: UVAHIK_clean_linker_0, # of connection points: 2
#     Edge 93, Type (0, 0), BuildingBlock: UVAHIK_clean_linker_0, # of connection points: 2
#     Edge 94, Type (0, 0), BuildingBlock: UVAHIK_clean_linker_0, # of connection points: 2
#     Edge 95, Type (0, 0), BuildingBlock: UVAHIK_clean_linker_0, # of connection points: 2
#     Edge 96, Type (0, 0), BuildingBlock: UVAHIK_clean_linker_0, # of connection points: 2
#     Edge 97, Type (0, 0), BuildingBlock: UVAHIK_clean_linker_0, # of connection points: 2
#     Edge 98, Type (0, 0), BuildingBlock: UVAHIK_clean_linker_0, # of connection points: 2
#     Edge 99, Type (0, 0), BuildingBlock: UVAHIK_clean_linker_0, # of connection points: 2
#     Edge 100, Type (0, 0), BuildingBlock: UVAHIK_clean_linker_0, # of connection points: 2
#     Edge 101, Type (0, 0), BuildingBlock: UVAHIK_clean_linker_0, # of connection points: 2
#     Edge 102, Type (0, 0), BuildingBlock: UVAHIK_clean_linker_0, # of connection points: 2
#     Edge 103, Type (0, 0), BuildingBlock: UVAHIK_clean_linker_0, # of connection points: 2
#     Edge 104, Type (0, 0), BuildingBlock: UVAHIK_clean_linker_0, # of connection points: 2
#     Edge 105, Type (0, 0), BuildingBlock: UVAHIK_clean_linker_0, # of connection points: 2
#     Edge 106, Type (0, 0), BuildingBlock: UVAHIK_clean_linker_0, # of connection points: 2
#     Edge 107, Type (0, 0), BuildingBlock: UVAHIK_clean_linker_0, # of connection points: 2
#     Edge 108, Type (0, 0), BuildingBlock: UVAHIK_clean_linker_0, # of connection points: 2
#     Edge 109, Type (0, 0), BuildingBlock: UVAHIK_clean_linker_0, # of connection points: 2
#     Edge 110, Type (0, 0), BuildingBlock: UVAHIK_clean_linker_0, # of connection points: 2
#     Edge 111, Type (0, 0), BuildingBlock: UVAHIK_clean_linker_0, # of connection points: 2
# Relax obj value: 0.152
# Max RMSD: 0.190
# Mean RMSD: 0.190
data_MOF--net-wgp--node1-XOMCOT_clean_sbu_0--edge1-UVAHIK_clean_linker_0
_symmetry_space_group_name_H-M    P1
_symmetry_Int_Tables_number       1
_symmetry_cell_setting            triclinic
loop_
_symmetry_equiv_pos_as_xyz
'x, y, z'
_cell_length_a     43.277943
_cell_length_b     43.227855
_cell_length_c     147.80785
_cell_angle_alpha  90.003057
_cell_angle_beta   90.005207
_cell_angle_gamma 89.991643
loop_
_atom_site_label
_atom_site_type_symbol
_atom_site_fract_x
_atom_site_fract_y
_atom_site_fract_z
_atom_type_partial_charge
Co0 Co 0.28436 0.17583 0.07802 0.0
C1 C 0.29999 0.10977 0.07666 0.0
C2 C 0.33443 0.13506 0.08405 0.0
C3 C 0.34093 0.10395 0.08472 0.0
N4 N 0.30875 0.13861 0.07901 0.0
N5 N 0.31915 0.08812 0.08012 0.0
H6 H 0.27872 0.10465 0.07311 0.0
H7 H 0.34637 0.15356 0.08751 0.0
C8 C 0.33341 0.2213 0.07225 0.0
O9 O 0.31537 0.23108 0.06569 0.0
N10 N 0.2591 0.21339 0.07739 0.0
C11 C 0.22812 0.21419 0.07625 0.0
C12 C 0.21788 0.24401 0.07703 0.0
C13 C 0.26682 0.24305 0.07936 0.0
N14 N 0.24219 0.26233 0.07891 0.0
C15 C 0.25576 0.16867 0.06073 0.0
C16 C 0.30905 0.16351 0.05057 0.0
C17 C 0.28035 0.16389 0.04615 0.0
C18 C 0.25353 0.16576 0.05139 0.0
C19 C 0.31021 0.16671 0.06001 0.0
N20 N 0.28374 0.17098 0.06491 0.0
H21 H 0.23476 0.1683 0.06458 0.0
H22 H 0.33239 0.1659 0.06336 0.0
H23 H 0.21322 0.19439 0.07542 0.0
H24 H 0.28969 0.25041 0.08132 0.0
O25 O 0.24811 0.15199 0.08079 0.0
O26 O 0.27792 0.17496 0.09099 0.0
O27 O 0.32396 0.20053 0.07774 0.0
C28 C 0.25388 0.15777 0.08925 0.0
H29 H 0.35944 0.09371 0.08863 0.0
H30 H 0.19401 0.25136 0.07663 0.0
H31 H 0.33033 0.16123 0.04677 0.0
H32 H 0.23085 0.16445 0.04831 0.0
Co33 Co 0.07712 0.02917 0.32942 0.0
C34 C 0.14406 0.03815 0.33097 0.0
C35 C 0.11919 0.07456 0.33765 0.0
C36 C 0.15037 0.07898 0.33905 0.0
N37 N 0.11541 0.04905 0.33255 0.0
N38 N 0.16593 0.05594 0.33488 0.0
H39 H 0.14867 0.01729 0.32715 0.0
H40 H 0.10062 0.08833 0.34042 0.0
C41 C 0.03421 0.08084 0.32397 0.0
O42 O 0.0226 0.06291 0.31764 0.0
N43 N 0.03849 0.00861 0.32644 0.0
C44 C 0.0336 0.98623 0.32022 0.0
C45 C 0.00283 0.9787 0.32016 0.0
C46 C 0.01063 0.01335 0.33035 0.0
N47 N 0.98846 0.9958 0.32648 0.0
C48 C 0.10085 0.00391 0.31296 0.0
C49 C 0.09461 0.05575 0.30224 0.0
C50 C 0.10189 0.02736 0.29817 0.0
C51 C 0.10659 0.00167 0.30374 0.0
C52 C 0.08921 0.05696 0.31159 0.0
N53 N 0.08952 0.03052 0.31668 0.0
H54 H 0.10402 0.98341 0.317 0.0
H55 H 0.08457 0.07914 0.31461 0.0
H56 H 0.05078 0.97548 0.31602 0.0
H57 H 0.00649 0.0301 0.33566 0.0
O58 O 0.09471 0.98973 0.33254 0.0
O59 O 0.07011 0.02023 0.34215 0.0
O60 O 0.05638 0.07116 0.32894 0.0
C61 C 0.08521 0.99461 0.34073 0.0
H62 H 0.16066 0.09704 0.34313 0.0
H63 H 0.99182 0.96177 0.31583 0.0
H64 H 0.09207 0.07655 0.29822 0.0
H65 H 0.11383 0.97964 0.30096 0.0
Co66 Co 0.21475 0.83463 0.5782 0.0
C67 C 0.2132 0.90342 0.57959 0.0
C68 C 0.17835 0.88208 0.58772 0.0
C69 C 0.17817 0.91342 0.58945 0.0
N70 N 0.19992 0.8758 0.58137 0.0
N71 N 0.20009 0.92671 0.58429 0.0
H72 H 0.23377 0.90652 0.57563 0.0
H73 H 0.16466 0.86483 0.59119 0.0
C74 C 0.14726 0.8321 0.57495 0.0
O75 O 0.15111 0.85834 0.5706 0.0
N76 N 0.23014 0.7939 0.57538 0.0
C77 C 0.25242 0.78763 0.56928 0.0
C78 C 0.25703 0.75625 0.56901 0.0
C79 C 0.22194 0.76633 0.57893 0.0
N80 N 0.23796 0.74295 0.57508 0.0
C81 C 0.23302 0.86359 0.56153 0.0
C82 C 0.19855 0.82635 0.5502 0.0
C83 C 0.21843 0.84838 0.54642 0.0
C84 C 0.23555 0.86733 0.55221 0.0
C85 C 0.19621 0.82382 0.5596 0.0
N86 N 0.21274 0.8429 0.5652 0.0
H87 H 0.2494 0.87559 0.5657 0.0
H88 H 0.1825 0.80519 0.56234 0.0
H89 H 0.26451 0.80475 0.56529 0.0
H90 H 0.20459 0.76343 0.58414 0.0
O91 O 0.25645 0.84812 0.58036 0.0
O92 O 0.22536 0.82874 0.59084 0.0
O93 O 0.1707 0.81843 0.57843 0.0
C94 C 0.25207 0.84081 0.58878 0.0
H95 H 0.16369 0.92534 0.5943 0.0
H96 H 0.27359 0.7441 0.56482 0.0
H97 H 0.18566 0.8106 0.54593 0.0
H98 H 0.25237 0.8835 0.54954 0.0
Co99 Co 0.41752 0.95448 0.82611 0.0
C100 C 0.34929 0.95581 0.82881 0.0
C101 C 0.37001 0.91616 0.83497 0.0
C102 C 0.33922 0.91681 0.83729 0.0
N103 N 0.37627 0.9401 0.82939 0.0
N104 N 0.32626 0.94189 0.83344 0.0
H105 H 0.34678 0.97805 0.82563 0.0
H106 H 0.38702 0.90033 0.83766 0.0
C107 C 0.41962 0.88722 0.82214 0.0
O108 O 0.39353 0.89166 0.81777 0.0
N109 N 0.45833 0.96954 0.82322 0.0
C110 C 0.46481 0.9916 0.81705 0.0
C111 C 0.4961 0.9967 0.81701 0.0
C112 C 0.48566 0.96207 0.82704 0.0
N113 N 0.50912 0.97825 0.82329 0.0
C114 C 0.38681 0.97298 0.80967 0.0
C115 C 0.4248 0.94044 0.79805 0.0
C116 C 0.40242 0.96025 0.79441 0.0
C117 C 0.38301 0.97633 0.80035 0.0
C118 C 0.42775 0.93769 0.80741 0.0
N119 N 0.40849 0.95337 0.81316 0.0
H120 H 0.37385 0.98805 0.81401 0.0
H121 H 0.44679 0.92424 0.81002 0.0
H122 H 0.44787 0.00339 0.81293 0.0
H123 H 0.4883 0.94532 0.83243 0.0
O124 O 0.40483 0.9963 0.82861 0.0
O125 O 0.42437 0.96384 0.83874 0.0
O126 O 0.43315 0.91016 0.82594 0.0
C127 C 0.41265 0.99095 0.83695 0.0
H128 H 0.32777 0.90112 0.8419 0.0
H129 H 0.50832 0.01335 0.81287 0.0
H130 H 0.44062 0.92793 0.79371 0.0
H131 H 0.36629 0.99289 0.79784 0.0
Co132 Co 0.28637 0.83143 0.42117 0.0
C133 C 0.29712 0.89791 0.41977 0.0
C134 C 0.32753 0.87285 0.41095 0.0
C135 C 0.33092 0.90411 0.40928 0.0
N136 N 0.30629 0.86919 0.41751 0.0
N137 N 0.31173 0.9197 0.41485 0.0
H138 H 0.27849 0.90266 0.42445 0.0
H139 H 0.33846 0.85414 0.40729 0.0
C140 C 0.33767 0.78704 0.42561 0.0
O141 O 0.3206 0.77589 0.4322 0.0
N142 N 0.26555 0.79347 0.42468 0.0
C143 C 0.24473 0.78935 0.43137 0.0
C144 C 0.23542 0.75904 0.43142 0.0
C145 C 0.26766 0.76564 0.42053 0.0
N146 N 0.24991 0.74413 0.42465 0.0
C147 C 0.26638 0.85653 0.43812 0.0
C148 C 0.32099 0.84906 0.44751 0.0
C149 C 0.29446 0.85842 0.45219 0.0
C150 C 0.26728 0.86344 0.44731 0.0
C151 C 0.31919 0.8431 0.43822 0.0
N152 N 0.29141 0.84413 0.4338 0.0
H153 H 0.24484 0.8599 0.43459 0.0
H154 H 0.34024 0.83765 0.43468 0.0
H155 H 0.23605 0.80685 0.43587 0.0
H156 H 0.28246 0.7611 0.41478 0.0
O157 O 0.24676 0.85018 0.4188 0.0
O158 O 0.27421 0.82415 0.40872 0.0
O159 O 0.32775 0.80958 0.42081 0.0
C160 C 0.24951 0.84016 0.41056 0.0
H161 H 0.34554 0.91448 0.40417 0.0
H162 H 0.21877 0.74884 0.43601 0.0
H163 H 0.3428 0.84624 0.45101 0.0
H164 H 0.24638 0.87121 0.45065 0.0
Co165 Co 0.4165 0.04196 0.66801 0.0
C166 C 0.34767 0.04249 0.66687 0.0
C167 C 0.36837 0.0762 0.65818 0.0
C168 C 0.33701 0.07579 0.65655 0.0
N169 N 0.37506 0.05566 0.66478 0.0
N170 N 0.32412 0.05457 0.66205 0.0
H171 H 0.34491 0.0228 0.67123 0.0
H172 H 0.38535 0.08959 0.65451 0.0
C173 C 0.41671 0.10963 0.67122 0.0
O174 O 0.39008 0.1051 0.67529 0.0
N175 N 0.45754 0.02763 0.67091 0.0
C176 C 0.46431 0.00578 0.67711 0.0
C177 C 0.49573 0.00172 0.67734 0.0
C178 C 0.48487 0.0361 0.66727 0.0
N179 N 0.50858 0.02068 0.67117 0.0
C180 C 0.3885 0.02191 0.68467 0.0
C181 C 0.4226 0.05958 0.69598 0.0
C182 C 0.40201 0.03827 0.6998 0.0
C183 C 0.38472 0.0194 0.69401 0.0
C184 C 0.42557 0.06141 0.68659 0.0
N185 N 0.40783 0.04349 0.68099 0.0
H186 H 0.37763 0.00472 0.68049 0.0
H187 H 0.44352 0.07607 0.6839 0.0
H188 H 0.44752 0.99349 0.68116 0.0
H189 H 0.48737 0.05315 0.66196 0.0
O190 O 0.40417 0.9999 0.66569 0.0
O191 O 0.42315 0.03195 0.65539 0.0
O192 O 0.43141 0.08652 0.66791 0.0
C193 C 0.41167 0.00486 0.6573 0.0
H194 H 0.32481 0.08941 0.65156 0.0
H195 H 0.50822 0.98554 0.68158 0.0
H196 H 0.43702 0.07408 0.70021 0.0
H197 H 0.36976 0.00149 0.69667 0.0
Co198 Co 0.22861 0.16852 0.9188 0.0
C199 C 0.21515 0.10218 0.91915 0.0
C200 C 0.18263 0.12667 0.91084 0.0
C201 C 0.17726 0.09536 0.90995 0.0
N202 N 0.20641 0.13075 0.91659 0.0
N203 N 0.19779 0.08011 0.91518 0.0
H204 H 0.23514 0.0976 0.92335 0.0
H205 H 0.17111 0.14503 0.90718 0.0
C206 C 0.17922 0.21405 0.92404 0.0
O207 O 0.19775 0.22503 0.93031 0.0
N208 N 0.2515 0.20662 0.92075 0.0
C209 C 0.27904 0.21001 0.92493 0.0
C210 C 0.2891 0.23987 0.92384 0.0
C211 C 0.2458 0.23444 0.91691 0.0
N212 N 0.26818 0.25522 0.91881 0.0
C213 C 0.25392 0.15038 0.93588 0.0
C214 C 0.20021 0.1537 0.94588 0.0
C215 C 0.22811 0.14723 0.95033 0.0
C216 C 0.25503 0.14477 0.94514 0.0
C217 C 0.20017 0.15899 0.93653 0.0
N218 N 0.22724 0.1596 0.93175 0.0
H219 H 0.27477 0.14698 0.93204 0.0
H220 H 0.17827 0.16224 0.93319 0.0
H221 H 0.29209 0.19206 0.92821 0.0
H222 H 0.22613 0.23914 0.9126 0.0
O223 O 0.26666 0.14769 0.91592 0.0
O224 O 0.23713 0.17188 0.90594 0.0
O225 O 0.18794 0.19156 0.91903 0.0
C226 C 0.26189 0.15565 0.90758 0.0
H227 H 0.16025 0.08463 0.9056 0.0
H228 H 0.31034 0.24949 0.9265 0.0
H229 H 0.1786 0.15438 0.94957 0.0
H230 H 0.27704 0.13915 0.94821 0.0
Co231 Co 0.07443 0.96503 0.17072 0.0
C232 C 0.1405 0.95231 0.17255 0.0
C233 C 0.11698 0.91365 0.16661 0.0
C234 C 0.14829 0.90788 0.16648 0.0
N235 N 0.11226 0.94153 0.17042 0.0
N236 N 0.16308 0.9324 0.17015 0.0
H237 H 0.14443 0.97528 0.17522 0.0
H238 H 0.09918 0.8993 0.16367 0.0
C239 C 0.03006 0.91552 0.17695 0.0
O240 O 0.01987 0.93398 0.18335 0.0
N241 N 0.03645 0.98955 0.17071 0.0
C242 C 0.03509 0.02083 0.1709 0.0
C243 C 0.00526 0.03027 0.16957 0.0
C244 C 0.00708 0.98061 0.1689 0.0
N245 N 0.9877 0.00501 0.16834 0.0
C246 C 0.07927 0.9966 0.18766 0.0
C247 C 0.08958 0.94503 0.19828 0.0
C248 C 0.08975 0.97438 0.20234 0.0
C249 C 0.08444 1.0003 0.19689 0.0
C250 C 0.08424 0.94237 0.18897 0.0
N251 N 0.07824 0.96795 0.18381 0.0
H252 H 0.07727 0.01706 0.1836 0.0
H253 H 0.08556 0.91976 0.18588 0.0
H254 H 0.05454 0.03631 0.17154 0.0
H255 H 3e-05 0.95712 0.16753 0.0
O256 O 0.09764 0.00139 0.16756 0.0
O257 O 0.07625 0.96918 0.15769 0.0
O258 O 0.05062 0.92491 0.17139 0.0
C259 C 0.09266 0.99397 0.15917 0.0
H260 H 0.15925 0.88772 0.16357 0.0
H261 H 0.9971 0.05394 0.16945 0.0
H262 H 0.09437 0.92442 0.2022 0.0
H263 H 0.08449 0.02344 0.1997 0.0
Co264 Co 0.71397 0.83711 0.92058 0.0
C265 C 0.71146 0.90566 0.91887 0.0
C266 C 0.67847 0.8833 0.91032 0.0
C267 C 0.67827 0.91451 0.90839 0.0
N268 N 0.69893 0.87777 0.91703 0.0
N269 N 0.69904 0.92843 0.91382 0.0
H270 H 0.73115 0.90925 0.92317 0.0
H271 H 0.6657 0.86561 0.90674 0.0
C272 C 0.64627 0.8343 0.92326 0.0
O273 O 0.6495 0.86111 0.92735 0.0
N274 N 0.72971 0.79691 0.92382 0.0
C275 C 0.75169 0.79176 0.93011 0.0
C276 C 0.75682 0.76055 0.93072 0.0
C277 C 0.72221 0.7688 0.92051 0.0
N278 N 0.73838 0.7462 0.92469 0.0
C279 C 0.73104 0.86681 0.93727 0.0
C280 C 0.69513 0.8304 0.94845 0.0
C281 C 0.71547 0.85178 0.95235 0.0
C282 C 0.73327 0.87039 0.94662 0.0
C283 C 0.69348 0.82769 0.93905 0.0
N284 N 0.71073 0.84632 0.93351 0.0
H285 H 0.74777 0.87863 0.93317 0.0
H286 H 0.67979 0.80909 0.93629 0.0
H287 H 0.76327 0.80954 0.93397 0.0
H288 H 0.70531 0.76496 0.91522 0.0
O289 O 0.75566 0.85102 0.91861 0.0
O290 O 0.72563 0.83032 0.90808 0.0
O291 O 0.67016 0.82037 0.92015 0.0
C292 C 0.75199 0.84298 0.91021 0.0
H293 H 0.66467 0.92587 0.90322 0.0
H294 H 0.77335 0.74922 0.93511 0.0
H295 H 0.68146 0.81503 0.95263 0.0
H296 H 0.75043 0.8861 0.94934 0.0
Co297 Co 0.91652 0.95554 0.67103 0.0
C298 C 0.84798 0.95641 0.66905 0.0
C299 C 0.86898 0.92087 0.66108 0.0
C300 C 0.83798 0.92202 0.65899 0.0
N301 N 0.87524 0.94202 0.66756 0.0
N302 N 0.82488 0.94441 0.66403 0.0
H303 H 0.84526 0.97705 0.67303 0.0
H304 H 0.88611 0.90669 0.65774 0.0
C305 C 0.91713 0.88771 0.6739 0.0
O306 O 0.89066 0.89185 0.67809 0.0
N307 N 0.95745 0.96971 0.67413 0.0
C308 C 0.96414 0.99079 0.68056 0.0
C309 C 0.99548 0.99556 0.68067 0.0
C310 C 0.98471 0.96245 0.67024 0.0
N311 N 0.00834 0.97785 0.67418 0.0
C312 C 0.88717 0.97338 0.68771 0.0
C313 C 0.92287 0.93668 0.69888 0.0
C314 C 0.9018 0.95731 0.70279 0.0
C315 C 0.88355 0.97554 0.69707 0.0
C316 C 0.92568 0.93516 0.68949 0.0
N317 N 0.9074 0.95281 0.68396 0.0
H318 H 0.87551 0.99019 0.6836 0.0
H319 H 0.944 0.92113 0.68672 0.0
H320 H 0.94733 0.00224 0.68481 0.0
H321 H 0.98717 0.94644 0.66465 0.0
O322 O 0.90421 0.99779 0.66899 0.0
O323 O 0.92361 0.96657 0.65852 0.0
O324 O 0.93158 0.91108 0.67065 0.0
C325 C 0.91207 0.9935 0.66059 0.0
H326 H 0.82624 0.90818 0.65395 0.0
H327 H 0.00783 0.01155 0.68499 0.0
H328 H 0.93791 0.9226 0.70305 0.0
H329 H 0.86804 0.99286 0.6998 0.0
Co330 Co 0.78704 0.16821 0.42127 0.0
C331 C 0.79244 0.10084 0.42031 0.0
C332 C 0.82655 0.12305 0.412 0.0
C333 C 0.82815 0.09155 0.41056 0.0
N334 N 0.80412 0.12866 0.41809 0.0
N335 N 0.80667 0.07777 0.41581 0.0
H336 H 0.77265 0.09771 0.42469 0.0
H337 H 0.83975 0.14068 0.40853 0.0
C338 C 0.84104 0.2076 0.42662 0.0
O339 O 0.82389 0.21989 0.43301 0.0
N340 N 0.76958 0.20839 0.42424 0.0
C341 C 0.75212 0.21698 0.43139 0.0
C342 C 0.74637 0.24814 0.43086 0.0
C343 C 0.77354 0.23455 0.41936 0.0
N344 N 0.75985 0.25908 0.42332 0.0
C345 C 0.76072 0.14707 0.43788 0.0
C346 C 0.81456 0.14327 0.44781 0.0
C347 C 0.78627 0.13729 0.45212 0.0
C348 C 0.75923 0.13854 0.44694 0.0
C349 C 0.81497 0.15173 0.43866 0.0
N350 N 0.78802 0.15562 0.43397 0.0
H351 H 0.73939 0.14821 0.43412 0.0
H352 H 0.83704 0.15475 0.43541 0.0
H353 H 0.74412 0.2024 0.43678 0.0
H354 H 0.78713 0.2358 0.41322 0.0
O355 O 0.74644 0.15315 0.41823 0.0
O356 O 0.77834 0.17572 0.40858 0.0
O357 O 0.8302 0.18606 0.42162 0.0
C358 C 0.75194 0.16214 0.41002 0.0
H359 H 0.84333 0.07979 0.40587 0.0
H360 H 0.73327 0.26179 0.43566 0.0
H361 H 0.83617 0.14128 0.45146 0.0
H362 H 0.73681 0.13404 0.44991 0.0
Co363 Co 0.57389 0.02589 0.16961 0.0
C364 C 0.64015 0.03815 0.17164 0.0
C365 C 0.6166 0.07757 0.16613 0.0
C366 C 0.64785 0.08354 0.16619 0.0
N367 N 0.6119 0.04912 0.16956 0.0
N368 N 0.66267 0.05858 0.16958 0.0
H369 H 0.64414 0.0149 0.17408 0.0
H370 H 0.59882 0.09235 0.16337 0.0
C371 C 0.52967 0.07547 0.17597 0.0
O372 O 0.51917 0.05668 0.18225 0.0
N373 N 0.53568 0.00179 0.16933 0.0
C374 C 0.53378 0.97053 0.16939 0.0
C375 C 0.50375 0.96169 0.16804 0.0
C376 C 0.5065 0.01132 0.16754 0.0
N377 N 0.48665 0.98734 0.16691 0.0
C378 C 0.57665 0.99349 0.18649 0.0
C379 C 0.58552 0.04454 0.19744 0.0
C380 C 0.58323 0.01519 0.20143 0.0
C381 C 0.57922 0.98947 0.1958 0.0
C382 C 0.58267 0.04753 0.18804 0.0
N383 N 0.57693 0.02227 0.18272 0.0
H384 H 0.57531 0.9732 0.18233 0.0
H385 H 0.58504 0.0702 0.18504 0.0
H386 H 0.55297 0.95471 0.17003 0.0
H387 H 0.49986 0.03498 0.16626 0.0
O388 O 0.59689 0.98943 0.16636 0.0
O389 O 0.57619 0.02236 0.15657 0.0
O390 O 0.5503 0.06624 0.1704 0.0
C391 C 0.59218 0.99726 0.15798 0.0
H392 H 0.65876 0.10429 0.16364 0.0
H393 H 0.49512 0.93819 0.16788 0.0
H394 H 0.5892 0.065 0.20152 0.0
H395 H 0.57878 0.96624 0.19855 0.0
Co396 Co 0.73046 0.17152 0.579 0.0
C397 C 0.71787 0.10484 0.57937 0.0
C398 C 0.68611 0.12999 0.58778 0.0
C399 C 0.68067 0.09878 0.58886 0.0
N400 N 0.70942 0.1336 0.58184 0.0
N401 N 0.70067 0.08313 0.58356 0.0
H402 H 0.73723 0.09988 0.57497 0.0
H403 H 0.67473 0.14866 0.59133 0.0
C404 C 0.68011 0.21502 0.57314 0.0
O405 O 0.69866 0.22581 0.56685 0.0
N406 N 0.75197 0.20997 0.57639 0.0
C407 C 0.77597 0.21484 0.57072 0.0
C408 C 0.7837 0.24561 0.5709 0.0
C409 C 0.74644 0.23781 0.58024 0.0
N410 N 0.76508 0.25998 0.57685 0.0
C411 C 0.75673 0.14961 0.56247 0.0
C412 C 0.7045 0.15295 0.55181 0.0
C413 C 0.73303 0.14643 0.54774 0.0
C414 C 0.75904 0.14348 0.55327 0.0
C415 C 0.70327 0.15904 0.56113 0.0
N416 N 0.72976 0.15991 0.56619 0.0
H417 H 0.77723 0.14688 0.56652 0.0
H418 H 0.68102 0.16304 0.56419 0.0
H419 H 0.7878 0.19766 0.56677 0.0
H420 H 0.72845 0.24193 0.58519 0.0
O421 O 0.76912 0.15267 0.58225 0.0
O422 O 0.7387 0.17761 0.59181 0.0
O423 O 0.68907 0.19314 0.57833 0.0
C424 C 0.76398 0.1619 0.59046 0.0
H425 H 0.66371 0.08839 0.5933 0.0
H426 H 0.80182 0.2566 0.56701 0.0
H427 H 0.68355 0.15413 0.54782 0.0
H428 H 0.78123 0.13685 0.55048 0.0
Co429 Co 0.57784 0.96957 0.32899 0.0
C430 C 0.64398 0.95583 0.32901 0.0
C431 C 0.61898 0.92371 0.33732 0.0
C432 C 0.6502 0.91866 0.3385 0.0
N433 N 0.61528 0.94707 0.3314 0.0
N434 N 0.66578 0.93897 0.33327 0.0
H435 H 0.6488 0.97571 0.32478 0.0
H436 H 0.60041 0.91249 0.34095 0.0
C437 C 0.53173 0.92003 0.32425 0.0
O438 O 0.52078 0.93799 0.31783 0.0
N439 N 0.54013 0.99289 0.32682 0.0
C440 C 0.53762 0.02048 0.32259 0.0
C441 C 0.50809 0.03143 0.32361 0.0
C442 C 0.51208 0.98804 0.3306 0.0
N443 N 0.49205 0.01104 0.32862 0.0
C444 C 0.59608 0.99263 0.31164 0.0
C445 C 0.59175 0.93781 0.30217 0.0
C446 C 0.59852 0.96513 0.29744 0.0
C447 C 0.60149 0.9926 0.30236 0.0
C448 C 0.58672 0.93891 0.31152 0.0
N449 N 0.5866 0.96654 0.31604 0.0
H450 H 0.59989 0.01387 0.31526 0.0
H451 H 0.58327 0.91742 0.31508 0.0
H452 H 0.55604 0.03305 0.31939 0.0
H453 H 0.50671 0.96865 0.33496 0.0
O454 O 0.59926 0.00767 0.33147 0.0
O455 O 0.57474 0.97969 0.34175 0.0
O456 O 0.55428 0.92916 0.32916 0.0
C457 C 0.59134 0.00399 0.33987 0.0
H458 H 0.66061 0.9022 0.3431 0.0
H459 H 0.49919 0.05299 0.32094 0.0
H460 H 0.59067 0.91579 0.29869 0.0
H461 H 0.60738 0.01419 0.29907 0.0
Co462 Co 0.79711 0.83499 0.0784 0.0
C463 C 0.79782 0.90362 0.08013 0.0
C464 C 0.83116 0.88194 0.08873 0.0
C465 C 0.8304 0.91305 0.09074 0.0
N466 N 0.8111 0.87603 0.08194 0.0
N467 N 0.80941 0.92656 0.0853 0.0
H468 H 0.77815 0.9068 0.07579 0.0
H469 H 0.84422 0.86451 0.09233 0.0
C470 C 0.86509 0.83334 0.07613 0.0
O471 O 0.86188 0.86001 0.07196 0.0
N472 N 0.78254 0.79432 0.07522 0.0
C473 C 0.7617 0.78783 0.06872 0.0
C474 C 0.75692 0.75645 0.06854 0.0
C475 C 0.78969 0.76696 0.07907 0.0
N476 N 0.77443 0.74343 0.07504 0.0
C477 C 0.78028 0.86423 0.06165 0.0
C478 C 0.8178 0.82893 0.05061 0.0
C479 C 0.79735 0.85006 0.04664 0.0
C480 C 0.77868 0.86806 0.0523 0.0
C481 C 0.81882 0.82597 0.06002 0.0
N482 N 0.80077 0.84409 0.06548 0.0
H483 H 0.76309 0.87566 0.06568 0.0
H484 H 0.83279 0.80768 0.06284 0.0
H485 H 0.7505 0.80477 0.06445 0.0
H486 H 0.80562 0.76434 0.08466 0.0
O487 O 0.75503 0.84802 0.0802 0.0
O488 O 0.78513 0.82822 0.09086 0.0
O489 O 0.84115 0.8191 0.07907 0.0
C490 C 0.75861 0.84032 0.08863 0.0
H491 H 0.84346 0.9246 0.09599 0.0
H492 H 0.74113 0.74417 0.06413 0.0
H493 H 0.83214 0.81402 0.04648 0.0
H494 H 0.76144 0.88354 0.04951 0.0
Co495 Co 0.91752 0.03924 0.82955 0.0
C496 C 0.84871 0.04166 0.83018 0.0
C497 C 0.86948 0.07706 0.83825 0.0
C498 C 0.83802 0.07753 0.83973 0.0
N499 N 0.87621 0.05487 0.83213 0.0
N500 N 0.8251 0.05524 0.83461 0.0
H501 H 0.84588 0.02087 0.82628 0.0
H502 H 0.88647 0.09093 0.84177 0.0
C503 C 0.92011 0.10594 0.82515 0.0
O504 O 0.89411 0.10097 0.82078 0.0
N505 N 0.95826 0.02281 0.82732 0.0
C506 C 0.96391 0.9976 0.82222 0.0
C507 C 0.99444 0.98975 0.82307 0.0
C508 C 0.98551 0.03006 0.83125 0.0
N509 N 0.00798 0.01001 0.82876 0.0
C510 C 0.89042 0.01736 0.81294 0.0
C511 C 0.92738 0.0515 0.80144 0.0
C512 C 0.9058 0.03097 0.79773 0.0
C513 C 0.88718 0.01378 0.80361 0.0
C514 C 0.92978 0.05445 0.81082 0.0
N515 N 0.9105 0.0385 0.81649 0.0
H516 H 0.87833 0.00142 0.81724 0.0
H517 H 0.94818 0.06859 0.81349 0.0
H518 H 0.94667 0.98503 0.81841 0.0
H519 H 0.98846 0.04848 0.83613 0.0
O520 O 0.90346 0.99814 0.83243 0.0
O521 O 0.9224 0.03147 0.84239 0.0
O522 O 0.93382 0.08332 0.82908 0.0
C523 C 0.91036 0.00438 0.84079 0.0
H524 H 0.82576 0.09242 0.84439 0.0
H525 H 0.00576 0.97021 0.8199 0.0
H526 H 0.94283 0.06467 0.79715 0.0
H527 H 0.8714 0.99642 0.80105 0.0
Co528 Co 0.78422 0.6711 0.5778 0.0
C529 C 0.79685 0.60499 0.5796 0.0
C530 C 0.82607 0.6316 0.58839 0.0
C531 C 0.83058 0.6006 0.5902 0.0
N532 N 0.80489 0.63413 0.58175 0.0
N533 N 0.81215 0.58404 0.58466 0.0
H534 H 0.77865 0.5993 0.57487 0.0
H535 H 0.83629 0.6509 0.59196 0.0
C536 C 0.83507 0.71618 0.57332 0.0
O537 O 0.81824 0.72667 0.56658 0.0
N538 N 0.76276 0.70834 0.57399 0.0
C539 C 0.74216 0.71156 0.56719 0.0
C540 C 0.73285 0.74185 0.56677 0.0
C541 C 0.76464 0.73665 0.57784 0.0
N542 N 0.74707 0.75759 0.57342 0.0
C543 C 0.76552 0.64441 0.56092 0.0
C544 C 0.82028 0.65236 0.55165 0.0
C545 C 0.79418 0.64189 0.54696 0.0
C546 C 0.76693 0.63672 0.55179 0.0
C547 C 0.81799 0.65908 0.5609 0.0
N548 N 0.79009 0.65771 0.56524 0.0
H549 H 0.74392 0.64081 0.5644 0.0
H550 H 0.83877 0.66531 0.56445 0.0
H551 H 0.73381 0.69351 0.56283 0.0
H552 H 0.77939 0.74201 0.58355 0.0
O553 O 0.74494 0.65163 0.5801 0.0
O554 O 0.77122 0.67876 0.59018 0.0
O555 O 0.82515 0.69384 0.5782 0.0
C556 C 0.74699 0.66208 0.58831 0.0
H557 H 0.84554 0.59104 0.59536 0.0
H558 H 0.7166 0.75156 0.56197 0.0
H559 H 0.84216 0.65534 0.54821 0.0
H560 H 0.74636 0.62813 0.54845 0.0
Co561 Co 0.57883 0.52463 0.82962 0.0
C562 C 0.64491 0.53754 0.8282 0.0
C563 C 0.62089 0.57614 0.83402 0.0
C564 C 0.65213 0.58233 0.83411 0.0
N565 N 0.61657 0.54807 0.8303 0.0
N566 N 0.66723 0.55788 0.8305 0.0
H567 H 0.64905 0.51465 0.82552 0.0
H568 H 0.60284 0.59054 0.83681 0.0
C569 C 0.53496 0.57377 0.82295 0.0
O570 O 0.52547 0.55484 0.81657 0.0
N571 N 0.54086 0.50031 0.82925 0.0
C572 C 0.53905 0.46909 0.82879 0.0
C573 C 0.50899 0.46003 0.82996 0.0
C574 C 0.51166 0.50953 0.83111 0.0
N575 N 0.49184 0.48547 0.83138 0.0
C576 C 0.5853 0.49356 0.81257 0.0
C577 C 0.59571 0.54568 0.8022 0.0
C578 C 0.59566 0.5166 0.79798 0.0
C579 C 0.5905 0.49036 0.80332 0.0
C580 C 0.59033 0.54783 0.81151 0.0
N581 N 0.58405 0.52202 0.81654 0.0
H582 H 0.58325 0.47291 0.81655 0.0
H583 H 0.59158 0.57028 0.8147 0.0
H584 H 0.55833 0.45341 0.82811 0.0
H585 H 0.50502 0.53298 0.83271 0.0
O586 O 0.60157 0.4881 0.83296 0.0
O587 O 0.57918 0.5202 0.84266 0.0
O588 O 0.55509 0.56483 0.82872 0.0
C589 C 0.5956 0.49533 0.84131 0.0
H590 H 0.6628 0.6029 0.83687 0.0
H591 H 0.50042 0.4365 0.82985 0.0
H592 H 0.60053 0.56652 0.79839 0.0
H593 H 0.59047 0.46738 0.80041 0.0
Co594 Co 0.71391 0.33487 0.07951 0.0
C595 C 0.71295 0.40367 0.0809 0.0
C596 C 0.67839 0.38236 0.08916 0.0
C597 C 0.67842 0.41366 0.09092 0.0
N598 N 0.69972 0.37611 0.08274 0.0
N599 N 0.70017 0.42692 0.08569 0.0
H600 H 0.73309 0.40677 0.07675 0.0
H601 H 0.6647 0.36511 0.09262 0.0
C602 C 0.64683 0.33481 0.07559 0.0
O603 O 0.65193 0.3614 0.07153 0.0
N604 N 0.72855 0.29394 0.07663 0.0
C605 C 0.7511 0.28724 0.07066 0.0
C606 C 0.75517 0.25577 0.07044 0.0
C607 C 0.71963 0.26657 0.08015 0.0
N608 N 0.73547 0.24287 0.0764 0.0
C609 C 0.73584 0.36356 0.06315 0.0
C610 C 0.70021 0.32917 0.05136 0.0
C611 C 0.72196 0.34987 0.04782 0.0
C612 C 0.73971 0.36739 0.05385 0.0
C613 C 0.69694 0.3262 0.06071 0.0
N614 N 0.71393 0.344 0.06654 0.0
H615 H 0.75231 0.37453 0.06754 0.0
H616 H 0.682 0.30816 0.06322 0.0
H617 H 0.76389 0.3041 0.06677 0.0
H618 H 0.702 0.26404 0.08529 0.0
O619 O 0.75562 0.34714 0.0823 0.0
O620 O 0.72242 0.32771 0.0922 0.0
O621 O 0.66944 0.31998 0.07913 0.0
C622 C 0.74971 0.33924 0.0906 0.0
H623 H 0.66419 0.42557 0.09583 0.0
H624 H 0.77186 0.24331 0.06638 0.0
H625 H 0.68653 0.3146 0.04694 0.0
H626 H 0.75788 0.38248 0.05141 0.0
Co627 Co 0.91132 0.45981 0.32924 0.0
C628 C 0.8428 0.45313 0.33059 0.0
C629 C 0.86679 0.42445 0.34007 0.0
C630 C 0.83554 0.42209 0.34174 0.0
N631 N 0.87136 0.44369 0.33299 0.0
N632 N 0.8206 0.44012 0.33573 0.0
H633 H 0.83795 0.47061 0.32563 0.0
H634 H 0.88506 0.41375 0.34396 0.0
C635 C 0.91469 0.39217 0.3263 0.0
O636 O 0.88737 0.39523 0.32251 0.0
N637 N 0.95089 0.47654 0.32579 0.0
C638 C 0.95514 0.49908 0.31962 0.0
C639 C 0.98612 0.50525 0.31897 0.0
C640 C 0.9793 0.4697 0.32899 0.0
N641 N 0.00125 0.48685 0.32484 0.0
C642 C 0.88058 0.4784 0.31285 0.0
C643 C 0.91514 0.44226 0.30124 0.0
C644 C 0.89363 0.46301 0.2976 0.0
C645 C 0.876 0.48099 0.30354 0.0
C646 C 0.91885 0.44025 0.3106 0.0
N647 N 0.901 0.45747 0.31636 0.0
H648 H 0.86938 0.49508 0.31714 0.0
H649 H 0.93758 0.42625 0.31313 0.0
H650 H 0.93692 0.51053 0.31591 0.0
H651 H 0.98378 0.45266 0.33419 0.0
O652 O 0.89678 0.50112 0.33166 0.0
O653 O 0.91922 0.47059 0.34175 0.0
O654 O 0.9288 0.41618 0.32928 0.0
C655 C 0.90592 0.49692 0.33994 0.0
H656 H 0.82471 0.40867 0.34704 0.0
H657 H 0.99672 0.52255 0.31467 0.0
H658 H 0.92984 0.42849 0.29688 0.0
H659 H 0.86025 0.49845 0.30101 0.0
Co660 Co 0.80044 0.33541 0.92142 0.0
C661 C 0.80243 0.40426 0.92024 0.0
C662 C 0.83457 0.38262 0.91125 0.0
C663 C 0.8347 0.41398 0.90957 0.0
N664 N 0.81469 0.37652 0.91806 0.0
N665 N 0.81447 0.42745 0.91526 0.0
H666 H 0.7834 0.40758 0.9248 0.0
H667 H 0.8471 0.36525 0.90747 0.0
C668 C 0.86829 0.33378 0.92398 0.0
O669 O 0.86476 0.36037 0.92817 0.0
N670 N 0.78564 0.29465 0.92442 0.0
C671 C 0.76454 0.28804 0.93084 0.0
C672 C 0.75949 0.25671 0.9309 0.0
C673 C 0.79266 0.26739 0.92048 0.0
N674 N 0.77707 0.24382 0.92438 0.0
C675 C 0.78279 0.36386 0.93824 0.0
C676 C 0.82051 0.32867 0.94925 0.0
C677 C 0.80003 0.34973 0.95323 0.0
C678 C 0.78118 0.36761 0.94759 0.0
C679 C 0.82153 0.32581 0.93984 0.0
N680 N 0.80353 0.34401 0.93439 0.0
H681 H 0.76553 0.37521 0.9342 0.0
H682 H 0.83555 0.30758 0.93701 0.0
H683 H 0.75332 0.30489 0.93513 0.0
H684 H 0.8087 0.26487 0.91491 0.0
O685 O 0.75847 0.3486 0.9195 0.0
O686 O 0.78898 0.32909 0.90889 0.0
O687 O 0.84455 0.31956 0.92089 0.0
C688 C 0.76237 0.34111 0.91107 0.0
H689 H 0.84803 0.42581 0.90443 0.0
H690 H 0.74347 0.24438 0.93521 0.0
H691 H 0.83493 0.3138 0.95336 0.0
H692 H 0.76389 0.38299 0.9504 0.0
Co693 Co 0.9098 0.53611 0.171 0.0
C694 C 0.84115 0.54018 0.16929 0.0
C695 C 0.86471 0.56937 0.15986 0.0
C696 C 0.83354 0.57051 0.15799 0.0
N697 N 0.86949 0.55063 0.16703 0.0
N698 N 0.81887 0.55216 0.16397 0.0
H699 H 0.83663 0.52265 0.17427 0.0
H700 H 0.88284 0.58054 0.15602 0.0
C701 C 0.9109 0.60393 0.1735 0.0
O702 O 0.88356 0.60014 0.17722 0.0
N703 N 0.94983 0.52096 0.17461 0.0
C704 C 0.95487 0.49986 0.18116 0.0
C705 C 0.98594 0.49403 0.18167 0.0
C706 C 0.97785 0.52718 0.17104 0.0
N707 N 0.00034 0.51112 0.17532 0.0
C708 C 0.87911 0.51869 0.18752 0.0
C709 C 0.91299 0.55659 0.19882 0.0
C710 C 0.89188 0.53582 0.20264 0.0
C711 C 0.87456 0.51695 0.19685 0.0
C712 C 0.91673 0.55766 0.18945 0.0
N713 N 0.89923 0.53954 0.18384 0.0
H714 H 0.86824 0.50137 0.18337 0.0
H715 H 0.93525 0.57169 0.18681 0.0
H716 H 0.93711 0.48899 0.1852 0.0
H717 H 0.98165 0.54284 0.16544 0.0
O718 O 0.89661 0.49416 0.16898 0.0
O719 O 0.91806 0.52419 0.15858 0.0
O720 O 0.92586 0.58028 0.17063 0.0
C721 C 0.90553 0.49769 0.16065 0.0
H722 H 0.8226 0.58332 0.15258 0.0
H723 H 0.99706 0.47765 0.18616 0.0
H724 H 0.92739 0.5711 0.20305 0.0
H725 H 0.85912 0.49948 0.19953 0.0
Co726 Co 0.71679 0.66715 0.42075 0.0
C727 C 0.71362 0.59893 0.41826 0.0
C728 C 0.67694 0.62223 0.41138 0.0
C729 C 0.67571 0.5913 0.40916 0.0
N730 N 0.70025 0.62696 0.4173 0.0
N731 N 0.69881 0.57676 0.41353 0.0
H732 H 0.73537 0.59495 0.42158 0.0
H733 H 0.66273 0.64027 0.40849 0.0
C734 C 0.64987 0.67187 0.42466 0.0
O735 O 0.65338 0.64543 0.42893 0.0
N736 N 0.73372 0.70697 0.4238 0.0
C737 C 0.75687 0.71209 0.42972 0.0
C738 C 0.76218 0.74335 0.4302 0.0
C739 C 0.72566 0.73502 0.42059 0.0
N740 N 0.74264 0.75764 0.42446 0.0
C741 C 0.73446 0.6352 0.43704 0.0
C742 C 0.70392 0.67392 0.44891 0.0
C743 C 0.72272 0.65039 0.45239 0.0
C744 C 0.73778 0.63066 0.44633 0.0
C745 C 0.70078 0.67731 0.43956 0.0
N746 N 0.71545 0.65765 0.43369 0.0
H747 H 0.74924 0.62216 0.43264 0.0
H748 H 0.68795 0.69695 0.43705 0.0
H749 H 0.76899 0.69428 0.43343 0.0
H750 H 0.7077 0.7388 0.41562 0.0
O751 O 0.75786 0.65252 0.41822 0.0
O752 O 0.72668 0.67395 0.40811 0.0
O753 O 0.67333 0.68484 0.42097 0.0
C754 C 0.75314 0.66085 0.40989 0.0
H755 H 0.65967 0.58056 0.4045 0.0
H756 H 0.77948 0.75473 0.43432 0.0
H757 H 0.69248 0.69014 0.45339 0.0
H758 H 0.75367 0.61312 0.44874 0.0
Co759 Co 0.57808 0.4727 0.6704 0.0
C760 C 0.6445 0.46278 0.66849 0.0
C761 C 0.61916 0.42509 0.66266 0.0
C762 C 0.65026 0.42005 0.6613 0.0
N763 N 0.61576 0.45184 0.6672 0.0
N764 N 0.66623 0.44391 0.66494 0.0
H765 H 0.64907 0.48477 0.6717 0.0
H766 H 0.60042 0.41066 0.66031 0.0
C767 C 0.53427 0.42173 0.676 0.0
O768 O 0.52318 0.43957 0.68242 0.0
N769 N 0.54022 0.4943 0.67352 0.0
C770 C 0.53664 0.51751 0.67955 0.0
C771 C 0.50606 0.52562 0.67992 0.0
C772 C 0.51178 0.48969 0.66998 0.0
N773 N 0.49053 0.50808 0.67394 0.0
C774 C 0.60309 0.49739 0.6868 0.0
C775 C 0.59627 0.44548 0.69747 0.0
C776 C 0.60443 0.4736 0.70156 0.0
C777 C 0.60933 0.49933 0.69601 0.0
C778 C 0.59035 0.4446 0.68815 0.0
N779 N 0.59098 0.47111 0.68309 0.0
H780 H 0.6067 0.5178 0.68275 0.0
H781 H 0.58512 0.42257 0.68512 0.0
H782 H 0.55462 0.52844 0.68341 0.0
H783 H 0.50655 0.47245 0.66489 0.0
O784 O 0.59656 0.51171 0.6671 0.0
O785 O 0.57067 0.48152 0.6577 0.0
O786 O 0.55634 0.43126 0.67097 0.0
C787 C 0.58655 0.50675 0.65896 0.0
H788 H 0.6601 0.40045 0.65779 0.0
H789 H 0.49593 0.54317 0.68422 0.0
H790 H 0.59352 0.42464 0.70145 0.0
H791 H 0.61726 0.52111 0.6988 0.0
Co792 Co 0.21827 0.33075 0.41748 0.0
C793 C 0.21005 0.39947 0.41624 0.0
C794 C 0.1829 0.37469 0.40654 0.0
C795 C 0.17948 0.40588 0.40493 0.0
N796 N 0.20186 0.37061 0.41369 0.0
N797 N 0.19655 0.42133 0.41106 0.0
H798 H 0.2267 0.40483 0.42139 0.0
H799 H 0.17295 0.35614 0.40259 0.0
C800 C 0.15087 0.3274 0.42058 0.0
O801 O 0.15407 0.35484 0.42429 0.0
N802 N 0.23511 0.29117 0.4209 0.0
C803 C 0.25774 0.28668 0.42702 0.0
C804 C 0.26354 0.25555 0.42768 0.0
C805 C 0.22784 0.26282 0.41774 0.0
N806 N 0.24482 0.24064 0.42184 0.0
C807 C 0.23705 0.36175 0.43381 0.0
C808 C 0.20142 0.32689 0.44548 0.0
C809 C 0.22214 0.34847 0.4491 0.0
C810 C 0.23987 0.36627 0.44313 0.0
C811 C 0.19927 0.32317 0.43613 0.0
N812 N 0.21622 0.34116 0.43034 0.0
H813 H 0.25337 0.37326 0.42946 0.0
H814 H 0.18534 0.30435 0.43362 0.0
H815 H 0.26938 0.30481 0.43073 0.0
H816 H 0.2105 0.25851 0.41261 0.0
O817 O 0.25942 0.34541 0.41497 0.0
O818 O 0.22877 0.32274 0.40495 0.0
O819 O 0.17474 0.31319 0.41755 0.0
C820 C 0.25505 0.33618 0.4067 0.0
H821 H 0.16585 0.41636 0.39961 0.0
H822 H 0.2807 0.24469 0.43196 0.0
H823 H 0.18775 0.31214 0.44985 0.0
H824 H 0.25722 0.38216 0.44563 0.0
Co825 Co 0.40927 0.4551 0.16994 0.0
C826 C 0.34068 0.44964 0.16848 0.0
C827 C 0.36438 0.41999 0.15919 0.0
C828 C 0.33313 0.41804 0.15748 0.0
N829 N 0.36912 0.43959 0.16617 0.0
N830 N 0.31839 0.43667 0.16336 0.0
H831 H 0.33603 0.46742 0.17336 0.0
H832 H 0.38255 0.40872 0.15539 0.0
C833 C 0.41099 0.38766 0.17336 0.0
O834 O 0.38363 0.39161 0.17705 0.0
N835 N 0.44909 0.47118 0.17339 0.0
C836 C 0.45373 0.49385 0.1795 0.0
C837 C 0.4848 0.49951 0.18014 0.0
C838 C 0.47737 0.4638 0.1702 0.0
N839 N 0.49959 0.48071 0.1743 0.0
C840 C 0.37856 0.47573 0.18614 0.0
C841 C 0.41228 0.43987 0.19804 0.0
C842 C 0.39138 0.46155 0.20152 0.0
C843 C 0.37411 0.47935 0.19543 0.0
C844 C 0.4159 0.43689 0.1887 0.0
N845 N 0.39851 0.45403 0.1828 0.0
H846 H 0.36774 0.49226 0.18171 0.0
H847 H 0.43432 0.42225 0.18629 0.0
H848 H 0.43571 0.50578 0.18316 0.0
H849 H 0.48156 0.4466 0.16502 0.0
O850 O 0.39584 0.49657 0.16718 0.0
O851 O 0.41787 0.46465 0.15738 0.0
O852 O 0.4257 0.41108 0.17024 0.0
C853 C 0.40526 0.49148 0.15897 0.0
H854 H 0.32218 0.40444 0.15223 0.0
H855 H 0.49569 0.5168 0.18437 0.0
H856 H 0.42664 0.42613 0.2025 0.0
H857 H 0.35881 0.49741 0.19783 0.0
Co858 Co 0.28546 0.66854 0.92137 0.0
C859 C 0.29441 0.60203 0.91891 0.0
C860 C 0.33047 0.62767 0.91234 0.0
C861 C 0.33445 0.59665 0.91046 0.0
N862 N 0.3054 0.63083 0.91765 0.0
N863 N 0.31156 0.58067 0.91455 0.0
H864 H 0.27377 0.59694 0.92276 0.0
H865 H 0.3441 0.64658 0.9097 0.0
C866 C 0.33679 0.71241 0.9262 0.0
O867 O 0.31973 0.72302 0.93287 0.0
N868 N 0.2648 0.70654 0.92494 0.0
C869 C 0.24478 0.71111 0.93182 0.0
C870 C 0.23637 0.74171 0.932 0.0
C871 C 0.26735 0.73438 0.92084 0.0
N872 N 0.25064 0.75629 0.92513 0.0
C873 C 0.26482 0.64287 0.93817 0.0
C874 C 0.32 0.64711 0.94745 0.0
C875 C 0.29345 0.63757 0.95209 0.0
C876 C 0.26587 0.6344 0.94725 0.0
C877 C 0.31799 0.65482 0.93827 0.0
N878 N 0.29006 0.65516 0.93394 0.0
H879 H 0.24309 0.64064 0.93467 0.0
H880 H 0.33905 0.6603 0.93475 0.0
H881 H 0.23636 0.69387 0.93644 0.0
H882 H 0.28203 0.73872 0.91504 0.0
O883 O 0.24584 0.65019 0.91882 0.0
O884 O 0.27389 0.67622 0.90889 0.0
O885 O 0.32687 0.69033 0.92123 0.0
C886 C 0.24908 0.6602 0.9106 0.0
H887 H 0.35193 0.58683 0.90608 0.0
H888 H 0.2208 0.75245 0.9368 0.0
H889 H 0.34208 0.64854 0.95088 0.0
H890 H 0.2449 0.62663 0.95054 0.0
Co891 Co 0.07889 0.52617 0.66742 0.0
C892 C 0.14423 0.54212 0.66963 0.0
C893 C 0.12031 0.5758 0.66156 0.0
C894 C 0.15146 0.58232 0.66132 0.0
N895 N 0.11596 0.55056 0.66675 0.0
N896 N 0.16634 0.56104 0.66638 0.0
H897 H 0.14872 0.52117 0.67343 0.0
H898 H 0.1024 0.58736 0.65774 0.0
C899 C 0.03301 0.57476 0.67318 0.0
O900 O 0.0228 0.55597 0.6795 0.0
N901 N 0.04144 0.50104 0.6677 0.0
C902 C 0.04003 0.46993 0.66862 0.0
C903 C 0.01026 0.46017 0.66722 0.0
C904 C 0.01244 0.5094 0.66531 0.0
N905 N 0.99297 0.48503 0.66518 0.0
C906 C 0.08462 0.49691 0.6847 0.0
C907 C 0.08894 0.55004 0.695 0.0
C908 C 0.08823 0.52124 0.69938 0.0
C909 C 0.08684 0.49448 0.69407 0.0
C910 C 0.08668 0.55139 0.68555 0.0
N911 N 0.08278 0.52502 0.68056 0.0
H912 H 0.08509 0.47598 0.6808 0.0
H913 H 0.08782 0.57367 0.68226 0.0
H914 H 0.05941 0.45472 0.66976 0.0
H915 H 0.00576 0.53241 0.66325 0.0
O916 O 0.10281 0.4899 0.66464 0.0
O917 O 0.08061 0.52022 0.65443 0.0
O918 O 0.05425 0.56591 0.66775 0.0
C919 C 0.09746 0.49593 0.65617 0.0
H920 H 0.16244 0.60042 0.65741 0.0
H921 H 0.00201 0.43656 0.66759 0.0
H922 H 0.09075 0.57133 0.69883 0.0
H923 H 0.08792 0.4717 0.6971 0.0
Co924 Co 0.22981 0.67671 0.07788 0.0
C925 C 0.21996 0.6112 0.08334 0.0
C926 C 0.17727 0.63354 0.08001 0.0
C927 C 0.17141 0.60283 0.08175 0.0
N928 N 0.20775 0.63895 0.08104 0.0
N929 N 0.19834 0.58872 0.08378 0.0
H930 H 0.24443 0.60691 0.08406 0.0
H931 H 0.16048 0.65012 0.07764 0.0
C932 C 0.17947 0.7268 0.0761 0.0
O933 O 0.19839 0.74641 0.07222 0.0
N934 N 0.25292 0.71359 0.07466 0.0
C935 C 0.27134 0.71646 0.06735 0.0
C936 C 0.28335 0.74581 0.06717 0.0
C937 C 0.2557 0.74069 0.07917 0.0
N938 N 0.27321 0.76115 0.07452 0.0
C939 C 0.23937 0.63919 0.06234 0.0
C940 C 0.21357 0.67857 0.04972 0.0
C941 C 0.22948 0.65228 0.04673 0.0
C942 C 0.24159 0.63191 0.05317 0.0
C943 C 0.21149 0.68477 0.05897 0.0
N944 N 0.22527 0.66578 0.06516 0.0
H945 H 0.25034 0.62406 0.06718 0.0
H946 H 0.20039 0.70576 0.06098 0.0
H947 H 0.27553 0.69861 0.06238 0.0
H948 H 0.24331 0.74606 0.08534 0.0
O949 O 0.26891 0.65686 0.08014 0.0
O950 O 0.2415 0.68208 0.09044 0.0
O951 O 0.18853 0.69954 0.07825 0.0
C952 C 0.26601 0.66587 0.08849 0.0
H953 H 0.14913 0.59163 0.08123 0.0
H954 H 0.29788 0.75544 0.06191 0.0
H955 H 0.20366 0.69474 0.04493 0.0
H956 H 0.25422 0.61142 0.05114 0.0
Co957 Co 0.07879 0.46936 0.82766 0.0
C958 C 0.14496 0.45655 0.82648 0.0
C959 C 0.12074 0.41801 0.83225 0.0
C960 C 0.15198 0.41194 0.83253 0.0
N961 N 0.11652 0.44598 0.82846 0.0
N962 N 0.1672 0.43637 0.82896 0.0
H963 H 0.14921 0.47943 0.8238 0.0
H964 H 0.10261 0.40366 0.83501 0.0
C965 C 0.03407 0.41976 0.82158 0.0
O966 O 0.02366 0.43818 0.81519 0.0
N967 N 0.04085 0.4936 0.82713 0.0
C968 C 0.03899 0.52465 0.8261 0.0
C969 C 0.00909 0.53402 0.82742 0.0
C970 C 0.01191 0.48485 0.82945 0.0
N971 N 0.99213 0.50897 0.82949 0.0
C972 C 0.08704 0.49951 0.81056 0.0
C973 C 0.09221 0.44669 0.80015 0.0
C974 C 0.09337 0.47566 0.79589 0.0
C975 C 0.09121 0.50225 0.80125 0.0
C976 C 0.08821 0.44503 0.80954 0.0
N977 N 0.08403 0.47126 0.81457 0.0
H978 H 0.08702 0.52028 0.81453 0.0
H979 H 0.08866 0.42261 0.81276 0.0
H980 H 0.05817 0.54014 0.82501 0.0
H981 H 0.00553 0.46177 0.83154 0.0
O982 O 0.10138 0.50617 0.83091 0.0
O983 O 0.07892 0.47437 0.84067 0.0
O984 O 0.05506 0.4291 0.82701 0.0
C985 C 0.09519 0.49928 0.83927 0.0
H986 H 0.16256 0.39155 0.83542 0.0
H987 H 0.00052 0.55751 0.82701 0.0
H988 H 0.09487 0.42555 0.7963 0.0
H989 H 0.09249 0.52513 0.79828 0.0
Co990 Co 0.30058 0.33431 0.57571 0.0
C991 C 0.30126 0.40297 0.57742 0.0
C992 C 0.33618 0.3815 0.58551 0.0
C993 C 0.33561 0.41262 0.58752 0.0
N994 N 0.315 0.37545 0.57903 0.0
N995 N 0.31361 0.426 0.5824 0.0
H996 H 0.28081 0.40602 0.57339 0.0
H997 H 0.34995 0.36416 0.58891 0.0
C998 C 0.36821 0.33261 0.57254 0.0
O999 O 0.3644 0.35919 0.56837 0.0
N1000 N 0.28558 0.29354 0.57274 0.0
C1001 C 0.26418 0.28697 0.5664 0.0
C1002 C 0.25899 0.25565 0.56638 0.0
C1003 C 0.29261 0.26626 0.57668 0.0
N1004 N 0.27676 0.24272 0.57284 0.0
C1005 C 0.28155 0.36358 0.55913 0.0
C1006 C 0.31779 0.32832 0.54772 0.0
C1007 C 0.29708 0.34963 0.54395 0.0
C1008 C 0.27903 0.36759 0.54979 0.0
C1009 C 0.31971 0.32517 0.5571 0.0
N1010 N 0.30238 0.34333 0.56275 0.0
H1011 H 0.26488 0.37504 0.56334 0.0
H1012 H 0.33387 0.30676 0.55977 0.0
H1013 H 0.25282 0.30383 0.56215 0.0
H1014 H 0.30882 0.26371 0.58221 0.0
O1015 O 0.25876 0.34732 0.57805 0.0
O1016 O 0.29055 0.32756 0.5883 0.0
O1017 O 0.34472 0.31851 0.57583 0.0
C1018 C 0.26369 0.33958 0.58643 0.0
H1019 H 0.34952 0.42426 0.59256 0.0
H1020 H 0.24274 0.24336 0.56213 0.0
H1021 H 0.33167 0.31343 0.54345 0.0
H1022 H 0.26161 0.38321 0.54717 0.0
Co1023 Co 0.41228 0.54019 0.3276 0.0
C1024 C 0.34362 0.5444 0.32949 0.0
C1025 C 0.3676 0.57269 0.33908 0.0
C1026 C 0.33647 0.57388 0.34101 0.0
N1027 N 0.3721 0.55449 0.33177 0.0
N1028 N 0.32154 0.5561 0.33494 0.0
H1029 H 0.33886 0.52735 0.3244 0.0
H1030 H 0.38588 0.58348 0.34294 0.0
C1031 C 0.41356 0.60826 0.32556 0.0
O1032 O 0.38612 0.605 0.32187 0.0
N1033 N 0.4522 0.52527 0.32378 0.0
C1034 C 0.45711 0.50482 0.31705 0.0
C1035 C 0.48812 0.49866 0.31653 0.0
C1036 C 0.48025 0.53077 0.32744 0.0
N1037 N 0.50263 0.51488 0.32306 0.0
C1038 C 0.38095 0.52362 0.31114 0.0
C1039 C 0.41423 0.56205 0.29984 0.0
C1040 C 0.3931 0.54125 0.29603 0.0
C1041 C 0.37605 0.52218 0.30182 0.0
C1042 C 0.41827 0.5629 0.30921 0.0
N1043 N 0.40114 0.54441 0.31482 0.0
H1044 H 0.37033 0.50609 0.31526 0.0
H1045 H 0.43677 0.57698 0.31184 0.0
H1046 H 0.43928 0.4945 0.31291 0.0
H1047 H 0.48412 0.54571 0.3332 0.0
O1048 O 0.39919 0.4981 0.32943 0.0
O1049 O 0.42104 0.52749 0.33992 0.0
O1050 O 0.42847 0.58425 0.32818 0.0
C1051 C 0.40851 0.50109 0.33774 0.0
H1052 H 0.32575 0.58636 0.34653 0.0
H1053 H 0.49908 0.48255 0.31193 0.0
H1054 H 0.42847 0.57667 0.29559 0.0
H1055 H 0.36062 0.50469 0.29915 0.0
C1056 C 0.24058 0.14998 0.1056 0.0
C1057 C 0.23459 0.14409 0.09643 0.0
C1058 C 0.22305 0.1354 0.11232 0.0
C1059 C 0.17651 0.06577 0.1161 0.0
H1060 H 0.14583 0.1096 0.13714 0.0
C1061 C 0.09939 0.00586 0.14269 0.0
C1062 C 0.10596 0.01258 0.15177 0.0
C1063 C 0.11305 0.02316 0.13576 0.0
C1064 C 0.15448 0.09696 0.13134 0.0
H1065 H 0.20518 0.11892 0.08707 0.0
H1066 H 0.17478 0.09362 0.09876 0.0
H1067 H 0.17421 0.13779 0.12549 0.0
H1068 H 0.1318 0.04272 0.16076 0.0
H1069 H 0.15601 0.07231 0.14874 0.0
H1070 H 0.15748 0.02484 0.12199 0.0
C1071 C 0.19312 0.10922 0.10078 0.0
C1072 C 0.17071 0.11314 0.12468 0.0
C1073 C 0.21046 0.12387 0.09409 0.0
C1074 C 0.12614 0.03706 0.15381 0.0
C1075 C 0.13988 0.05419 0.14692 0.0
C1076 C 0.16048 0.04957 0.12278 0.0
C1077 C 0.19943 0.11457 0.10996 0.0
C1078 C 0.18193 0.09767 0.11701 0.0
C1079 C 0.13364 0.04739 0.1378 0.0
C1080 C 0.14939 0.06494 0.1305 0.0
H1081 H 0.25905 0.16545 0.1076 0.0
H1082 H 0.22852 0.13978 0.11936 0.0
H1083 H 0.18528 0.05317 0.11031 0.0
H1084 H 0.08382 0.98719 0.14092 0.0
H1085 H 0.10744 0.01758 0.12881 0.0
C1086 C 0.10917 0.94539 0.3459 0.0
C1087 C 0.09389 0.97311 0.34806 0.0
C1088 C 0.12143 0.92673 0.3527 0.0
C1089 C 0.12128 0.91031 0.37718 0.0
H1090 H 0.20665 0.88729 0.37286 0.0
C1091 C 0.20348 0.87042 0.40559 0.0
C1092 C 0.22689 0.84901 0.40354 0.0
C1093 C 0.18401 0.8816 0.39881 0.0
C1094 C 0.18265 0.89289 0.37413 0.0
H1095 H 0.07799 0.0022 0.35906 0.0
H1096 H 0.09961 0.96942 0.37102 0.0
H1097 H 0.17783 0.91412 0.36115 0.0
H1098 H 0.2473 0.82131 0.39289 0.0
H1099 H 0.21276 0.84025 0.38105 0.0
H1100 H 0.12623 0.8892 0.3902 0.0
C1101 C 0.10195 0.96217 0.36403 0.0
C1102 C 0.16614 0.9084 0.36741 0.0
C1103 C 0.08965 0.98096 0.3572 0.0
C1104 C 0.22959 0.83796 0.39465 0.0
C1105 C 0.20992 0.84899 0.38787 0.0
C1106 C 0.13777 0.89454 0.38389 0.0
C1107 C 0.11872 0.93532 0.36182 0.0
C1108 C 0.13538 0.91752 0.36888 0.0
C1109 C 0.18733 0.87147 0.38983 0.0
C1110 C 0.16878 0.88592 0.38248 0.0
H1111 H 0.11257 0.93851 0.33893 0.0
H1112 H 0.13373 0.90589 0.3508 0.0
H1113 H 0.09751 0.91681 0.37846 0.0
H1114 H 0.20086 0.87946 0.41238 0.0
H1115 H 0.16721 0.89917 0.40057 0.0
C1116 C 0.30218 0.865 0.59313 0.0
C1117 C 0.27513 0.84934 0.59572 0.0
C1118 C 0.32205 0.8773 0.59963 0.0
C1119 C 0.34397 0.87597 0.62369 0.0
H1120 H 0.36213 0.96282 0.61983 0.0
C1121 C 0.38516 0.95657 0.65231 0.0
C1122 C 0.40395 0.98207 0.6502 0.0
C1123 C 0.37416 0.93715 0.64549 0.0
C1124 C 0.35798 0.93843 0.62096 0.0
H1125 H 0.24857 0.83279 0.60717 0.0
H1126 H 0.28358 0.85418 0.61859 0.0
H1127 H 0.33437 0.93396 0.60832 0.0
H1128 H 0.42747 0.0062 0.63936 0.0
H1129 H 0.40916 0.97166 0.62744 0.0
H1130 H 0.36758 0.88042 0.63635 0.0
C1131 C 0.28931 0.8569 0.6115 0.0
C1132 C 0.34189 0.9219 0.61435 0.0
C1133 C 0.26924 0.84473 0.60497 0.0
C1134 C 0.41285 0.98684 0.64118 0.0
C1135 C 0.40212 0.96717 0.63435 0.0
C1136 C 0.36042 0.89243 0.63027 0.0
C1137 C 0.31544 0.87405 0.60888 0.0
C1138 C 0.33437 0.89063 0.6157 0.0
C1139 C 0.38196 0.94254 0.63638 0.0
C1140 C 0.36723 0.92403 0.62905 0.0
H1141 H 0.3075 0.86883 0.58606 0.0
H1142 H 0.34224 0.89004 0.59742 0.0
H1143 H 0.33871 0.8518 0.62486 0.0
H1144 H 0.37776 0.95233 0.6592 0.0
H1145 H 0.35839 0.91877 0.64733 0.0
C1146 C 0.38611 0.03883 0.84226 0.0
C1147 C 0.4051 0.01329 0.84417 0.0
C1148 C 0.37535 0.05779 0.84923 0.0
C1149 C 0.35965 0.05455 0.87369 0.0
H1150 H 0.34281 0.14213 0.87075 0.0
C1151 C 0.30854 0.12661 0.90256 0.0
C1152 C 0.28277 0.14487 0.90034 0.0
C1153 C 0.32688 0.11368 0.8958 0.0
C1154 C 0.34731 0.11767 0.87164 0.0
H1155 H 0.42919 0.98857 0.8548 0.0
H1156 H 0.41114 0.02221 0.86697 0.0
H1157 H 0.37035 0.11405 0.85886 0.0
H1158 H 0.25674 0.16498 0.88928 0.0
H1159 H 0.28895 0.14224 0.87738 0.0
H1160 H 0.33653 0.05809 0.88643 0.0
C1161 C 0.40386 0.02713 0.8601 0.0
C1162 C 0.36304 0.10156 0.86484 0.0
C1163 C 0.41441 0.00798 0.85313 0.0
C1164 C 0.27644 0.15098 0.89119 0.0
C1165 C 0.29493 0.13808 0.88439 0.0
C1166 C 0.34418 0.07067 0.8805 0.0
C1167 C 0.38355 0.05179 0.85826 0.0
C1168 C 0.36913 0.06971 0.86575 0.0
C1169 C 0.31994 0.11876 0.88664 0.0
C1170 C 0.33761 0.10232 0.87952 0.0
H1171 H 0.3784 0.04344 0.83542 0.0
H1172 H 0.35947 0.07627 0.84755 0.0
H1173 H 0.36326 0.02994 0.87455 0.0
H1174 H 0.3142 0.12164 0.90955 0.0
H1175 H 0.34628 0.09929 0.89773 0.0
C1176 C 0.88363 0.9568 0.84623 0.0
C1177 C 0.90208 0.98273 0.84813 0.0
C1178 C 0.87277 0.93796 0.8532 0.0
C1179 C 0.85629 0.94094 0.87769 0.0
H1180 H 0.83988 0.85341 0.87442 0.0
C1181 C 0.80161 0.86831 0.90591 0.0
C1182 C 0.77523 0.85152 0.90333 0.0
C1183 C 0.82141 0.88066 0.8994 0.0
C1184 C 0.84434 0.87784 0.87541 0.0
H1185 H 0.92492 0.00843 0.85879 0.0
H1186 H 0.90673 0.97498 0.87099 0.0
H1187 H 0.868 0.88192 0.86276 0.0
H1188 H 0.74986 0.83304 0.8919 0.0
H1189 H 0.78473 0.85451 0.88047 0.0
H1190 H 0.83258 0.93684 0.89033 0.0
C1191 C 0.89994 0.96964 0.86412 0.0
C1192 C 0.86035 0.89423 0.86873 0.0
C1193 C 0.91057 0.9887 0.85712 0.0
C1194 C 0.77001 0.84586 0.89409 0.0
C1195 C 0.79 0.85808 0.88756 0.0
C1196 C 0.84061 0.9245 0.8844 0.0
C1197 C 0.88034 0.9444 0.86226 0.0
C1198 C 0.86609 0.92613 0.86972 0.0
C1199 C 0.8154 0.87633 0.89015 0.0
C1200 C 0.83409 0.89289 0.88328 0.0
H1201 H 0.87655 0.95163 0.83936 0.0
H1202 H 0.85738 0.9191 0.85149 0.0
H1203 H 0.85967 0.96555 0.87863 0.0
H1204 H 0.80639 0.87298 0.91298 0.0
H1205 H 0.84104 0.89427 0.9016 0.0
C1206 C 0.88532 0.04184 0.65573 0.0
C1207 C 0.90474 0.01681 0.65362 0.0
C1208 C 0.87472 0.06163 0.64894 0.0
C1209 C 0.86093 0.06152 0.62432 0.0
H1210 H 0.84161 0.14817 0.62819 0.0
C1211 C 0.81192 0.13591 0.59579 0.0
C1212 C 0.78485 0.15243 0.59786 0.0
C1213 C 0.82994 0.12316 0.60265 0.0
C1214 C 0.84683 0.12398 0.62704 0.0
H1215 H 0.92982 0.99394 0.64284 0.0
H1216 H 0.91217 0.02908 0.631 0.0
H1217 H 0.86863 0.11902 0.63997 0.0
H1218 H 0.75632 0.16997 0.60876 0.0
H1219 H 0.78806 0.14754 0.62084 0.0
H1220 H 0.83917 0.06643 0.61143 0.0
C1221 C 0.90435 0.03292 0.63787 0.0
C1222 C 0.86225 0.10724 0.63378 0.0
C1223 C 0.91468 0.01291 0.64466 0.0
C1224 C 0.77705 0.15734 0.60697 0.0
C1225 C 0.79524 0.14459 0.61388 0.0
C1226 C 0.84584 0.07828 0.61758 0.0
C1227 C 0.88353 0.05701 0.63989 0.0
C1228 C 0.86926 0.0757 0.63253 0.0
C1229 C 0.82139 0.12665 0.61175 0.0
C1230 C 0.83845 0.10961 0.61888 0.0
H1231 H 0.87714 0.04538 0.66258 0.0
H1232 H 0.85847 0.07964 0.65075 0.0
H1233 H 0.86519 0.03715 0.62318 0.0
H1234 H 0.81876 0.13196 0.58884 0.0
H1235 H 0.85025 0.1099 0.60082 0.0
C1236 C 0.62194 0.05025 0.34442 0.0
C1237 C 0.60254 0.02557 0.34688 0.0
C1238 C 0.6349 0.06935 0.35101 0.0
C1239 C 0.62863 0.09456 0.37473 0.0
H1240 H 0.71691 0.10812 0.37254 0.0
C1241 C 0.70436 0.13593 0.4044 0.0
C1242 C 0.73054 0.15412 0.40259 0.0
C1243 C 0.68614 0.12466 0.39735 0.0
C1244 C 0.69215 0.10519 0.37318 0.0
H1245 H 0.58064 0.00219 0.35816 0.0
H1246 H 0.60339 0.03575 0.36973 0.0
H1247 H 0.68964 0.07978 0.36079 0.0
H1248 H 0.75723 0.17622 0.39201 0.0
H1249 H 0.72495 0.15712 0.37965 0.0
H1250 H 0.63118 0.11986 0.38716 0.0
C1251 C 0.60841 0.0403 0.36267 0.0
C1252 C 0.67654 0.08879 0.36645 0.0
C1253 C 0.59551 0.02103 0.35606 0.0
C1254 C 0.73728 0.16211 0.39361 0.0
C1255 C 0.71891 0.15096 0.38653 0.0
C1256 C 0.64422 0.1112 0.38144 0.0
C1257 C 0.6287 0.0643 0.36021 0.0
C1258 C 0.64469 0.08302 0.3672 0.0
C1259 C 0.69356 0.13146 0.38831 0.0
C1260 C 0.67627 0.11638 0.3808 0.0
H1261 H 0.62771 0.05449 0.3374 0.0
H1262 H 0.6501 0.08791 0.3489 0.0
H1263 H 0.60401 0.09077 0.37542 0.0
H1264 H 0.69856 0.12931 0.41126 0.0
H1265 H 0.66708 0.10944 0.39899 0.0
C1266 C 0.59678 0.98441 0.14149 0.0
C1267 C 0.60481 0.97842 0.15052 0.0
C1268 C 0.60928 0.96653 0.13449 0.0
C1269 C 0.65091 0.89251 0.13005 0.0
H1270 H 0.67745 0.93463 0.10825 0.0
C1271 C 0.74047 0.84348 0.1047 0.0
C1272 C 0.73524 0.84891 0.09546 0.0
C1273 C 0.72056 0.85595 0.1112 0.0
C1274 C 0.66976 0.92243 0.11424 0.0
H1275 H 0.63219 0.94908 0.15933 0.0
H1276 H 0.65453 0.91859 0.14718 0.0
H1277 H 0.65036 0.96348 0.11995 0.0
H1278 H 0.70415 0.8702 0.08575 0.0
H1279 H 0.66955 0.89189 0.0971 0.0
H1280 H 0.67144 0.85167 0.12442 0.0
C1281 C 0.63804 0.93649 0.14546 0.0
C1282 C 0.65415 0.93896 0.12095 0.0
C1283 C 0.6254 0.95417 0.15243 0.0
C1284 C 0.7089 0.86569 0.09283 0.0
C1285 C 0.68916 0.87829 0.09932 0.0
C1286 C 0.66677 0.87603 0.12337 0.0
C1287 C 0.63022 0.94245 0.13639 0.0
C1288 C 0.64483 0.9243 0.12899 0.0
C1289 C 0.69522 0.87422 0.10857 0.0
C1290 C 0.67658 0.8909 0.11543 0.0
H1291 H 0.58081 0.00285 0.13982 0.0
H1292 H 0.60243 0.97151 0.1276 0.0
H1293 H 0.64356 0.88033 0.13608 0.0
H1294 H 0.7606 0.83068 0.10693 0.0
H1295 H 0.72588 0.85257 0.1183 0.0
C1296 C 0.72857 0.66024 0.60441 0.0
C1297 C 0.72422 0.65279 0.59525 0.0
C1298 C 0.70881 0.64813 0.61102 0.0
C1299 C 0.6588 0.58086 0.61482 0.0
H1300 H 0.63111 0.62617 0.63595 0.0
C1301 C 0.58634 0.52127 0.64251 0.0
C1302 C 0.59534 0.52756 0.65145 0.0
C1303 C 0.59756 0.53934 0.63536 0.0
C1304 C 0.6388 0.61313 0.63011 0.0
H1305 H 0.69485 0.62809 0.58579 0.0
H1306 H 0.66044 0.60722 0.59728 0.0
H1307 H 0.65961 0.65312 0.62406 0.0
H1308 H 0.62226 0.55836 0.65995 0.0
H1309 H 0.64216 0.58933 0.64755 0.0
H1310 H 0.639 0.54071 0.62094 0.0
C1311 C 0.67933 0.622 0.59939 0.0
C1312 C 0.65511 0.62861 0.6233 0.0
C1313 C 0.69898 0.63412 0.5928 0.0
C1314 C 0.61483 0.55291 0.65313 0.0
C1315 C 0.62611 0.57085 0.64601 0.0
C1316 C 0.64267 0.56537 0.62164 0.0
C1317 C 0.6844 0.62828 0.60859 0.0
C1318 C 0.66553 0.61256 0.61562 0.0
C1319 C 0.61808 0.56399 0.63702 0.0
C1320 C 0.63276 0.58121 0.62942 0.0
H1321 H 0.74785 0.67453 0.6065 0.0
H1322 H 0.71343 0.65324 0.61807 0.0
H1323 H 0.66693 0.5677 0.60906 0.0
H1324 H 0.57125 0.50195 0.641 0.0
H1325 H 0.59051 0.5337 0.62853 0.0
C1326 C 0.74452 0.34417 0.89496 0.0
C1327 C 0.73907 0.34954 0.9042 0.0
C1328 C 0.72445 0.35624 0.88843 0.0
C1329 C 0.67218 0.42158 0.88529 0.0
H1330 H 0.64727 0.37868 0.86345 0.0
C1331 C 0.59902 0.48209 0.85781 0.0
C1332 C 0.60766 0.47629 0.84881 0.0
C1333 C 0.61136 0.46432 0.86485 0.0
C1334 C 0.65424 0.39108 0.86948 0.0
H1335 H 0.70751 0.37034 0.91385 0.0
H1336 H 0.67264 0.39133 0.90246 0.0
H1337 H 0.6756 0.35078 0.87518 0.0
H1338 H 0.63582 0.44729 0.84012 0.0
H1339 H 0.65786 0.417 0.85235 0.0
H1340 H 0.65196 0.46213 0.87952 0.0
C1341 C 0.69253 0.37809 0.90027 0.0
C1342 C 0.67038 0.37503 0.8762 0.0
C1343 C 0.71243 0.3659 0.90679 0.0
C1344 C 0.62857 0.45224 0.84699 0.0
C1345 C 0.64105 0.43467 0.85401 0.0
C1346 C 0.6563 0.43768 0.87855 0.0
C1347 C 0.69873 0.37403 0.89102 0.0
C1348 C 0.67977 0.39021 0.88413 0.0
C1349 C 0.63274 0.44054 0.86304 0.0
C1350 C 0.64745 0.42274 0.87051 0.0
H1351 H 0.76487 0.33168 0.89276 0.0
H1352 H 0.72989 0.35288 0.88134 0.0
H1353 H 0.67952 0.43402 0.89128 0.0
H1354 H 0.5828 0.50038 0.85941 0.0
H1355 H 0.60414 0.46921 0.87172 0.0
C1356 C 0.76585 0.33711 0.10688 0.0
C1357 C 0.77172 0.34641 0.09795 0.0
C1358 C 0.78484 0.34727 0.11394 0.0
C1359 C 0.85943 0.38797 0.11893 0.0
H1360 H 0.81552 0.41414 0.14046 0.0
C1361 C 0.90432 0.47933 0.14455 0.0
C1362 C 0.8982 0.47405 0.15376 0.0
C1363 C 0.89311 0.4589 0.13797 0.0
C1364 C 0.82825 0.40654 0.13456 0.0
H1365 H 0.80273 0.37269 0.08935 0.0
H1366 H 0.83514 0.39108 0.10162 0.0
H1367 H 0.78789 0.38673 0.12863 0.0
H1368 H 0.87714 0.44232 0.16332 0.0
H1369 H 0.85762 0.40689 0.15186 0.0
H1370 H 0.89951 0.40928 0.12478 0.0
C1371 C 0.8164 0.37543 0.10322 0.0
C1372 C 0.81241 0.39067 0.12776 0.0
C1373 C 0.79764 0.36501 0.09617 0.0
C1374 C 0.8821 0.44717 0.15628 0.0
C1375 C 0.87078 0.42691 0.14972 0.0
C1376 C 0.87521 0.40419 0.1257 0.0
C1377 C 0.80989 0.36725 0.11223 0.0
C1378 C 0.82767 0.38147 0.1198 0.0
C1379 C 0.87545 0.43298 0.14049 0.0
C1380 C 0.85968 0.41388 0.13354 0.0
H1381 H 0.74615 0.32261 0.10845 0.0
H1382 H 0.77949 0.33996 0.12077 0.0
H1383 H 0.87207 0.38082 0.11296 0.0
H1384 H 0.91665 0.49986 0.1424 0.0
H1385 H 0.89693 0.46424 0.1309 0.0
C1386 C 0.87871 0.54462 0.34513 0.0
C1387 C 0.89846 0.51969 0.34707 0.0
C1388 C 0.86832 0.56408 0.35202 0.0
C1389 C 0.85582 0.56353 0.37672 0.0
H1390 H 0.83503 0.64984 0.37287 0.0
C1391 C 0.80272 0.63659 0.40506 0.0
C1392 C 0.77546 0.65239 0.40274 0.0
C1393 C 0.82187 0.62437 0.39837 0.0
C1394 C 0.84069 0.62575 0.37403 0.0
H1395 H 0.92421 0.4966 0.35767 0.0
H1396 H 0.90683 0.53116 0.36971 0.0
H1397 H 0.86244 0.62118 0.36109 0.0
H1398 H 0.74779 0.66927 0.39156 0.0
H1399 H 0.78146 0.64793 0.3798 0.0
H1400 H 0.83398 0.56804 0.38962 0.0
C1401 C 0.89865 0.53519 0.36288 0.0
C1402 C 0.85633 0.60928 0.36728 0.0
C1403 C 0.90883 0.51551 0.35598 0.0
C1404 C 0.76864 0.65722 0.39355 0.0
C1405 C 0.78795 0.64507 0.38683 0.0
C1406 C 0.8405 0.58005 0.38348 0.0
C1407 C 0.87764 0.55927 0.36103 0.0
C1408 C 0.8637 0.57781 0.36849 0.0
C1409 C 0.81429 0.62777 0.38918 0.0
C1410 C 0.83243 0.61121 0.38217 0.0
H1411 H 0.87021 0.54841 0.33832 0.0
H1412 H 0.85187 0.58205 0.35033 0.0
H1413 H 0.86045 0.53922 0.37785 0.0
H1414 H 0.80876 0.63263 0.41208 0.0
H1415 H 0.84226 0.61157 0.40038 0.0
C1416 C 0.27281 0.3339 0.39057 0.0
C1417 C 0.27749 0.34383 0.39951 0.0
C1418 C 0.29196 0.34457 0.38361 0.0
C1419 C 0.36503 0.38827 0.37898 0.0
H1420 H 0.32121 0.41284 0.35726 0.0
C1421 C 0.40765 0.4818 0.35375 0.0
C1422 C 0.40181 0.47685 0.34451 0.0
C1423 C 0.39702 0.46065 0.36021 0.0
C1424 C 0.33395 0.40569 0.36322 0.0
H1425 H 0.30668 0.37167 0.40823 0.0
H1426 H 0.33938 0.39087 0.39614 0.0
H1427 H 0.29414 0.38415 0.36894 0.0
H1428 H 0.38198 0.44498 0.33476 0.0
H1429 H 0.36356 0.40824 0.34602 0.0
H1430 H 0.40452 0.41124 0.37332 0.0
C1431 C 0.32142 0.3744 0.39446 0.0
C1432 C 0.31844 0.38909 0.36992 0.0
C1433 C 0.30249 0.36352 0.40141 0.0
C1434 C 0.38666 0.44959 0.34184 0.0
C1435 C 0.37597 0.42859 0.34828 0.0
C1436 C 0.3805 0.40516 0.37229 0.0
C1437 C 0.31598 0.36565 0.38544 0.0
C1438 C 0.33362 0.38049 0.37795 0.0
C1439 C 0.38027 0.4343 0.35755 0.0
C1440 C 0.36499 0.41433 0.36438 0.0
H1441 H 0.25385 0.31856 0.38891 0.0
H1442 H 0.28747 0.33683 0.37677 0.0
H1443 H 0.37761 0.38162 0.385 0.0
H1444 H 0.41926 0.5026 0.35601 0.0
H1445 H 0.40054 0.46575 0.36731 0.0
C1446 C 0.38163 0.54071 0.15347 0.0
C1447 C 0.39921 0.51408 0.15167 0.0
C1448 C 0.37277 0.56045 0.14645 0.0
C1449 C 0.35933 0.55923 0.12184 0.0
H1450 H 0.34838 0.64763 0.12503 0.0
C1451 C 0.31215 0.63512 0.09315 0.0
C1452 C 0.28764 0.65484 0.09553 0.0
C1453 C 0.33019 0.6211 0.09981 0.0
C1454 C 0.35126 0.62296 0.12406 0.0
H1455 H 0.42262 0.48804 0.14118 0.0
H1456 H 0.40775 0.52289 0.12893 0.0
H1457 H 0.37301 0.61722 0.13696 0.0
H1458 H 0.26379 0.67653 0.10676 0.0
H1459 H 0.29541 0.65196 0.11844 0.0
H1460 H 0.33732 0.56487 0.109 0.0
C1461 C 0.40019 0.52817 0.13574 0.0
C1462 C 0.36532 0.60551 0.13089 0.0
C1463 C 0.40891 0.5083 0.14277 0.0
C1464 C 0.28253 0.66146 0.10471 0.0
C1465 C 0.3007 0.64747 0.1114 0.0
C1466 C 0.34548 0.57668 0.115 0.0
C1467 C 0.38143 0.55413 0.13747 0.0
C1468 C 0.36914 0.57333 0.12991 0.0
C1469 C 0.32422 0.62652 0.10902 0.0
C1470 C 0.34094 0.60867 0.11607 0.0
H1471 H 0.37372 0.54579 0.16026 0.0
H1472 H 0.35803 0.57994 0.14804 0.0
H1473 H 0.36129 0.53446 0.1209 0.0
H1474 H 0.31679 0.62965 0.08612 0.0
H1475 H 0.34845 0.60545 0.09776 0.0
C1476 C 0.09799 0.5127 0.85575 0.0
C1477 C 0.10667 0.51872 0.84677 0.0
C1478 C 0.10966 0.53079 0.86281 0.0
C1479 C 0.14957 0.60532 0.86765 0.0
H1480 H 0.17541 0.56289 0.88948 0.0
C1481 C 0.2333 0.65725 0.89429 0.0
C1482 C 0.22738 0.65052 0.90343 0.0
C1483 C 0.21505 0.64414 0.88748 0.0
C1484 C 0.1679 0.57518 0.88349 0.0
H1485 H 0.13415 0.5485 0.83812 0.0
H1486 H 0.15499 0.57951 0.85042 0.0
H1487 H 0.15023 0.53388 0.87747 0.0
H1488 H 0.19668 0.62623 0.91261 0.0
H1489 H 0.16487 0.60363 0.90075 0.0
H1490 H 0.16816 0.6465 0.87364 0.0
C1491 C 0.13872 0.5613 0.85203 0.0
C1492 C 0.15341 0.55855 0.8766 0.0
C1493 C 0.12693 0.54335 0.84498 0.0
C1494 C 0.20198 0.63173 0.90563 0.0
C1495 C 0.18384 0.61861 0.89884 0.0
C1496 C 0.16426 0.62195 0.87454 0.0
C1497 C 0.13039 0.55515 0.86104 0.0
C1498 C 0.14425 0.57334 0.86856 0.0
C1499 C 0.19065 0.62401 0.88969 0.0
C1500 C 0.17372 0.607 0.88251 0.0
H1501 H 0.08225 0.49399 0.85733 0.0
H1502 H 0.10241 0.52569 0.86966 0.0
H1503 H 0.14239 0.61754 0.86161 0.0
H1504 H 0.25275 0.67161 0.89239 0.0
H1505 H 0.22095 0.64862 0.88048 0.0
C1506 C 0.21576 0.36649 0.59152 0.0
C1507 C 0.24142 0.34787 0.59359 0.0
C1508 C 0.19719 0.37843 0.59841 0.0
C1509 C 0.20206 0.39859 0.62257 0.0
H1510 H 0.11427 0.41441 0.61997 0.0
C1511 C 0.13031 0.45161 0.65132 0.0
C1512 C 0.11067 0.47623 0.64899 0.0
C1513 C 0.14408 0.43352 0.64463 0.0
C1514 C 0.13882 0.41028 0.62075 0.0
H1515 H 0.26665 0.32555 0.60444 0.0
H1516 H 0.23371 0.34568 0.61648 0.0
H1517 H 0.1416 0.38512 0.6083 0.0
H1518 H 0.08943 0.50077 0.63781 0.0
H1519 H 0.11363 0.46899 0.62606 0.0
H1520 H 0.19931 0.42375 0.635 0.0
C1521 C 0.22841 0.35176 0.60955 0.0
C1522 C 0.15448 0.39351 0.61408 0.0
C1523 C 0.24714 0.34001 0.60265 0.0
C1524 C 0.10451 0.48198 0.63981 0.0
C1525 C 0.11821 0.4637 0.63309 0.0
C1526 C 0.18638 0.41513 0.62925 0.0
C1527 C 0.20373 0.37184 0.60753 0.0
C1528 C 0.18637 0.38766 0.61488 0.0
C1529 C 0.13845 0.43954 0.63545 0.0
C1530 C 0.15465 0.42132 0.62839 0.0
H1531 H 0.2108 0.37307 0.5846 0.0
H1532 H 0.17862 0.39403 0.5966 0.0
H1533 H 0.22671 0.39519 0.62333 0.0
H1534 H 0.13542 0.44647 0.65834 0.0
H1535 H 0.15924 0.41482 0.64666 0.0
C1536 C 0.21378 0.16466 0.96597 0.0
C1537 C 0.22971 0.14391 0.96033 0.0
C1538 C 0.21836 0.16411 0.97533 0.0
C1539 C 0.27656 0.14142 0.99219 0.0
H1540 H 0.21022 0.15576 0.00929 0.0
C1541 C 0.29414 0.1397 0.0312 0.0
C1542 C 0.27762 0.16192 0.03617 0.0
C1543 C 0.2888 0.13611 0.02191 0.0
C1544 C 0.22906 0.15204 0.0046 0.0
H1545 H 0.26137 0.10499 0.96015 0.0
H1546 H 0.26936 0.10409 0.97648 0.0
H1547 H 0.19839 0.15078 0.99324 0.0
H1548 H 0.24402 0.19898 0.03525 0.0
H1549 H 0.23505 0.19306 0.0191 0.0
H1550 H 0.30728 0.14309 0.00354 0.0
C1551 C 0.25385 0.12119 0.97364 0.0
C1552 C 0.22225 0.14912 0.9954 0.0
C1553 C 0.24922 0.1217 0.96429 0.0
C1554 C 0.25667 0.18127 0.03162 0.0
C1555 C 0.25142 0.17776 0.02237 0.0
C1556 C 0.28339 0.1444 0.00139 0.0
C1557 C 0.23896 0.1428 0.97925 0.0
C1558 C 0.24594 0.14407 0.98908 0.0
C1559 C 0.26693 0.15475 0.01743 0.0
C1560 C 0.25975 0.15012 0.00769 0.0
H1561 H 0.19885 0.18226 0.96312 0.0
H1562 H 0.20674 0.18124 0.97945 0.0
H1563 H 0.29539 0.13794 0.98747 0.0
H1564 H 0.31028 0.12435 0.03455 0.0
H1565 H 0.30106 0.11808 0.0183 0.0
C1566 C 0.11825 0.04496 0.28262 0.0
C1567 C 0.10305 0.02353 0.28821 0.0
C1568 C 0.11984 0.04007 0.27326 0.0
C1569 C 0.11224 0.97768 0.25617 0.0
H1570 H 0.09865 0.045 0.23931 0.0
C1571 C 0.08238 0.95835 0.21854 0.0
C1572 C 0.09582 0.97835 0.21216 0.0
C1573 C 0.08634 0.96359 0.2278 0.0
C1574 C 0.1029 0.02603 0.24393 0.0
H1575 H 0.07627 0.98111 0.28834 0.0
H1576 H 0.07877 0.97279 0.27213 0.0
H1577 H 0.09974 0.05557 0.25553 0.0
H1578 H 0.12536 0.01855 0.21052 0.0
H1579 H 0.13199 0.02779 0.22666 0.0
H1580 H 0.11476 0.94805 0.24458 0.0
C1581 C 0.09033 0.99282 0.27494 0.0
C1582 C 0.10357 0.0321 0.25322 0.0
C1583 C 0.08883 0.99765 0.28424 0.0
C1584 C 0.1141 0.00311 0.21525 0.0
C1585 C 0.11795 0.00841 0.2245 0.0
C1586 C 0.11145 0.9716 0.24689 0.0
C1587 C 0.10612 0.01374 0.26934 0.0
C1588 C 0.10779 0.00791 0.25945 0.0
C1589 C 0.1038 0.98895 0.23087 0.0
C1590 C 0.1064 0.99564 0.24068 0.0
H1591 H 0.12947 0.06507 0.28551 0.0
H1592 H 0.13227 0.05656 0.26912 0.0
H1593 H 0.11619 0.95861 0.26078 0.0
H1594 H 0.06796 0.93925 0.21638 0.0
H1595 H 0.07491 0.94836 0.23255 0.0
C1596 C 0.23227 0.82256 0.53186 0.0
C1597 C 0.22415 0.84955 0.53656 0.0
C1598 C 0.24123 0.82408 0.52279 0.0
C1599 C 0.26963 0.88014 0.50556 0.0
H1600 H 0.25118 0.81307 0.489 0.0
C1601 C 0.28037 0.88624 0.46646 0.0
C1602 C 0.29398 0.86063 0.46217 0.0
C1603 C 0.2751 0.8859 0.47578 0.0
C1604 C 0.25677 0.8318 0.49359 0.0
H1605 H 0.21783 0.89907 0.53547 0.0
H1606 H 0.23206 0.90171 0.51951 0.0
H1607 H 0.23281 0.81039 0.50455 0.0
H1608 H 0.31372 0.81513 0.46425 0.0
H1609 H 0.30413 0.81439 0.48057 0.0
H1610 H 0.29257 0.90196 0.49438 0.0
C1611 C 0.23261 0.87945 0.52287 0.0
C1612 C 0.2463 0.83029 0.50251 0.0
C1613 C 0.22414 0.87796 0.53198 0.0
C1614 C 0.30346 0.83527 0.46741 0.0
C1615 C 0.29773 0.83472 0.47671 0.0
C1616 C 0.27966 0.88185 0.49658 0.0
C1617 C 0.24182 0.85261 0.51819 0.0
C1618 C 0.25262 0.85441 0.50863 0.0
C1619 C 0.28288 0.85975 0.48094 0.0
C1620 C 0.27339 0.85765 0.49053 0.0
H1621 H 0.23296 0.80044 0.5353 0.0
H1622 H 0.24862 0.80299 0.51949 0.0
H1623 H 0.27554 0.89888 0.5101 0.0
H1624 H 0.27288 0.90605 0.46254 0.0
H1625 H 0.26353 0.90544 0.47888 0.0
C1626 C 0.42873 0.97123 0.77967 0.0
C1627 C 0.40125 0.96655 0.78455 0.0
C1628 C 0.42777 0.97943 0.77054 0.0
C1629 C 0.37831 0.97875 0.75031 0.0
H1630 H 0.43294 0.0443 0.74223 0.0
C1631 C 0.37227 0.0283 0.71408 0.0
C1632 C 0.40067 0.0335 0.70973 0.0
C1633 C 0.3713 0.02159 0.72333 0.0
C1634 C 0.41774 0.02577 0.74436 0.0
H1635 H 0.35126 0.96602 0.78363 0.0
H1636 H 0.34959 0.98051 0.76765 0.0
H1637 H 0.43341 0.02854 0.75806 0.0
H1638 H 0.4503 0.03568 0.71166 0.0
H1639 H 0.44864 0.02392 0.72775 0.0
H1640 H 0.36291 0.9757 0.73658 0.0
C1641 C 0.37185 0.97772 0.7709 0.0
C1642 C 0.41802 0.01674 0.75342 0.0
C1643 C 0.3728 0.96964 0.78005 0.0
C1644 C 0.42801 0.03237 0.71485 0.0
C1645 C 0.42705 0.02558 0.72407 0.0
C1646 C 0.3781 0.98771 0.74122 0.0
C1647 C 0.39934 0.98307 0.76608 0.0
C1648 C 0.39847 0.99299 0.75648 0.0
C1649 C 0.39871 0.01984 0.72841 0.0
C1650 C 0.39796 0.0112 0.73813 0.0
H1651 H 0.45101 0.96943 0.78296 0.0
H1652 H 0.44934 0.98304 0.76698 0.0
H1653 H 0.3632 0.96017 0.75245 0.0
H1654 H 0.3508 0.02932 0.71033 0.0
H1655 H 0.34906 0.01777 0.7265 0.0
C1656 C 0.72514 0.88055 0.96683 0.0
C1657 C 0.72089 0.85236 0.96226 0.0
C1658 C 0.73326 0.8809 0.97598 0.0
C1659 C 0.77117 0.83273 0.99318 0.0
H1660 H 0.73439 0.89001 0.01024 0.0
C1661 C 0.79061 0.82362 0.03169 0.0
C1662 C 0.7929 0.85116 0.03669 0.0
C1663 C 0.78321 0.82442 0.0225 0.0
C1664 C 0.74523 0.87418 0.00553 0.0
H1665 H 0.72146 0.80243 0.96374 0.0
H1666 H 0.73515 0.80307 0.97973 0.0
H1667 H 0.71723 0.89005 0.99452 0.0
H1668 H 0.79048 0.90116 0.03592 0.0
H1669 H 0.77796 0.90262 0.01982 0.0
H1670 H 0.79927 0.81691 0.00415 0.0
C1671 C 0.73244 0.82489 0.97622 0.0
C1672 C 0.7353 0.87415 0.99654 0.0
C1673 C 0.72418 0.82454 0.96709 0.0
C1674 C 0.78855 0.87956 0.03225 0.0
C1675 C 0.78125 0.88037 0.02304 0.0
C1676 C 0.78118 0.83283 0.00216 0.0
C1677 C 0.73749 0.85305 0.98073 0.0
C1678 C 0.74805 0.85329 0.99028 0.0
C1679 C 0.77802 0.85278 0.01809 0.0
C1680 C 0.76823 0.85346 0.00846 0.0
H1681 H 0.72261 0.90235 0.96329 0.0
H1682 H 0.73714 0.90296 0.97926 0.0
H1683 H 0.78183 0.81676 0.98847 0.0
H1684 H 0.79328 0.80134 0.03495 0.0
H1685 H 0.78048 0.80272 0.01892 0.0
C1686 C 0.93172 0.02261 0.78277 0.0
C1687 C 0.9044 0.02552 0.78783 0.0
C1688 C 0.93052 0.01575 0.77355 0.0
C1689 C 0.87961 0.98139 0.75622 0.0
H1690 H 0.93733 0.01966 0.73957 0.0
C1691 C 0.87295 0.96673 0.71727 0.0
C1692 C 0.90111 0.96232 0.71271 0.0
C1693 C 0.8726 0.97389 0.7265 0.0
C1694 C 0.92127 0.00856 0.74415 0.0
H1695 H 0.85438 0.02428 0.78715 0.0
H1696 H 0.85224 0.0126 0.771 0.0
H1697 H 0.93781 0.03456 0.75546 0.0
H1698 H 0.95097 0.96182 0.71427 0.0
H1699 H 0.9503 0.97384 0.73037 0.0
H1700 H 0.86302 0.95548 0.74486 0.0
C1701 C 0.87461 0.01508 0.7742 0.0
C1702 C 0.92153 0.01709 0.75326 0.0
C1703 C 0.87582 0.02186 0.78344 0.0
C1704 C 0.92887 0.96467 0.7176 0.0
C1705 C 0.92851 0.97196 0.7268 0.0
C1706 C 0.87928 0.97293 0.74709 0.0
C1707 C 0.90197 0.01173 0.76916 0.0
C1708 C 0.90086 0.00346 0.75941 0.0
C1709 C 0.90041 0.97702 0.73132 0.0
C1710 C 0.90027 0.98626 0.74098 0.0
H1711 H 0.95411 0.02473 0.78598 0.0
H1712 H 0.95203 0.01282 0.7699 0.0
H1713 H 0.86367 0.97012 0.7608 0.0
H1714 H 0.8512 0.96492 0.71368 0.0
H1715 H 0.85059 0.97781 0.72979 0.0
C1716 C 0.76111 0.15884 0.53349 0.0
C1717 C 0.73657 0.14352 0.53781 0.0
C1718 C 0.76636 0.15491 0.52427 0.0
C1719 C 0.73005 0.12969 0.50293 0.0
H1720 H 0.81536 0.12456 0.49498 0.0
C1721 C 0.76251 0.11035 0.4655 0.0
C1722 C 0.78436 0.13132 0.46201 0.0
C1723 C 0.75762 0.10798 0.47481 0.0
C1724 C 0.79144 0.12604 0.49709 0.0
H1725 H 0.69772 0.11272 0.53581 0.0
H1726 H 0.70705 0.1055 0.51957 0.0
H1727 H 0.80378 0.12807 0.51108 0.0
H1728 H 0.81912 0.16526 0.46565 0.0
H1729 H 0.81095 0.16071 0.48191 0.0
H1730 H 0.71782 0.12777 0.4889 0.0
C1731 C 0.72212 0.12075 0.52336 0.0
C1732 C 0.78477 0.12816 0.50631 0.0
C1733 C 0.71674 0.12486 0.53264 0.0
C1734 C 0.80236 0.14863 0.4681 0.0
C1735 C 0.7976 0.1461 0.47742 0.0
C1736 C 0.73674 0.12738 0.4937 0.0
C1737 C 0.7473 0.13541 0.51911 0.0
C1738 C 0.75403 0.13062 0.50934 0.0
C1739 C 0.77468 0.12629 0.48086 0.0
C1740 C 0.76754 0.12605 0.49068 0.0
H1741 H 0.77639 0.17389 0.53728 0.0
H1742 H 0.78539 0.16728 0.52118 0.0
H1743 H 0.70616 0.13182 0.50501 0.0
H1744 H 0.74869 0.09617 0.46101 0.0
H1745 H 0.74018 0.09211 0.47728 0.0
C1746 C 0.58053 0.94961 0.28195 0.0
C1747 C 0.60174 0.96556 0.28744 0.0
C1748 C 0.581 0.95335 0.27255 0.0
C1749 C 0.60479 0.00987 0.25533 0.0
H1750 H 0.58877 0.94294 0.23852 0.0
C1751 C 0.60827 0.02645 0.21644 0.0
C1752 C 0.58562 0.01087 0.21137 0.0
C1753 C 0.61155 0.02067 0.2257 0.0
C1754 C 0.59296 0.96195 0.24314 0.0
H1755 H 0.64142 0.99622 0.28731 0.0
H1756 H 0.64223 0.0027 0.27093 0.0
H1757 H 0.59315 0.93189 0.25465 0.0
H1758 H 0.54782 0.97804 0.21212 0.0
H1759 H 0.55331 0.96822 0.22826 0.0
H1760 H 0.60418 0.04001 0.24384 0.0
C1761 C 0.62481 0.98787 0.27391 0.0
C1762 C 0.59554 0.95558 0.25237 0.0
C1763 C 0.62436 0.98411 0.28329 0.0
C1764 C 0.56586 0.99 0.21581 0.0
C1765 C 0.56908 0.98429 0.22505 0.0
C1766 C 0.60215 0.01626 0.24609 0.0
C1767 C 0.6027 0.9731 0.26845 0.0
C1768 C 0.60131 0.97949 0.25858 0.0
C1769 C 0.59218 0.99926 0.2301 0.0
C1770 C 0.59598 0.99241 0.23989 0.0
H1771 H 0.56264 0.9354 0.28495 0.0
H1772 H 0.56351 0.94182 0.26854 0.0
H1773 H 0.60875 0.0289 0.25995 0.0
H1774 H 0.62405 0.04242 0.21319 0.0
H1775 H 0.62975 0.0324 0.22938 0.0
C1776 C 0.80349 0.66309 0.53149 0.0
C1777 C 0.79424 0.63834 0.537 0.0
C1778 C 0.79838 0.66215 0.52216 0.0
C1779 C 0.74777 0.623 0.50544 0.0
H1780 H 0.79959 0.66596 0.48812 0.0
C1781 C 0.72849 0.61939 0.46661 0.0
C1782 C 0.72926 0.64816 0.4622 0.0
C1783 C 0.73697 0.61698 0.47571 0.0
C1784 C 0.78486 0.654 0.49291 0.0
H1785 H 0.7744 0.59237 0.53708 0.0
H1786 H 0.76669 0.59003 0.52074 0.0
H1787 H 0.81598 0.66224 0.50388 0.0
H1788 H 0.73954 0.69692 0.4638 0.0
H1789 H 0.7546 0.69266 0.4797 0.0
H1790 H 0.71696 0.61438 0.49437 0.0
C1791 C 0.77682 0.6107 0.52362 0.0
C1792 C 0.79418 0.65191 0.50194 0.0
C1793 C 0.7815 0.61186 0.53296 0.0
C1794 C 0.73839 0.67453 0.46707 0.0
C1795 C 0.74732 0.67204 0.47613 0.0
C1796 C 0.73871 0.62472 0.49638 0.0
C1797 C 0.78428 0.63623 0.51812 0.0
C1798 C 0.77559 0.63666 0.50836 0.0
C1799 C 0.74687 0.64322 0.48051 0.0
C1800 C 0.75698 0.64053 0.49006 0.0
H1801 H 0.813 0.68393 0.53446 0.0
H1802 H 0.80412 0.68242 0.5182 0.0
H1803 H 0.73247 0.61165 0.51019 0.0
H1804 H 0.72154 0.59872 0.463 0.0
H1805 H 0.73651 0.59448 0.47894 0.0
C1806 C 0.59348 0.50311 0.71572 0.0
C1807 C 0.60646 0.47695 0.71154 0.0
C1808 C 0.59525 0.50702 0.72506 0.0
C1809 C 0.60686 0.46462 0.74641 0.0
H1810 H 0.62012 0.54714 0.75599 0.0
C1811 C 0.61867 0.48851 0.7847 0.0
C1812 C 0.60111 0.51335 0.78809 0.0
C1813 C 0.6221 0.48419 0.77539 0.0
C1814 C 0.61623 0.524 0.75342 0.0
H1815 H 0.63127 0.43418 0.71391 0.0
H1816 H 0.63461 0.44111 0.73034 0.0
H1817 H 0.62135 0.5387 0.73969 0.0
H1818 H 0.57392 0.55347 0.78431 0.0
H1819 H 0.58022 0.54611 0.76805 0.0
H1820 H 0.60164 0.45001 0.76017 0.0
C1821 C 0.62282 0.45849 0.72634 0.0
C1822 C 0.61689 0.51914 0.74408 0.0
C1823 C 0.62095 0.45451 0.71695 0.0
C1824 C 0.58786 0.53431 0.78194 0.0
C1825 C 0.59144 0.53006 0.77262 0.0
C1826 C 0.60634 0.46947 0.75576 0.0
C1827 C 0.61011 0.48492 0.73049 0.0
C1828 C 0.61174 0.48948 0.74045 0.0
C1829 C 0.60827 0.50473 0.76925 0.0
C1830 C 0.61061 0.49929 0.75936 0.0
H1831 H 0.5815 0.52048 0.71176 0.0
H1832 H 0.5845 0.52723 0.72803 0.0
H1833 H 0.60244 0.44157 0.74385 0.0
H1834 H 0.62977 0.47231 0.78925 0.0
H1835 H 0.63565 0.46477 0.773 0.0
C1836 C 0.79199 0.37941 0.96763 0.0
C1837 C 0.79592 0.35094 0.96319 0.0
C1838 C 0.78552 0.38035 0.97689 0.0
C1839 C 0.78722 0.33274 0.99779 0.0
H1840 H 0.72477 0.39063 0.00602 0.0
C1841 C 0.73116 0.32349 0.03298 0.0
C1842 C 0.72842 0.35102 0.03797 0.0
C1843 C 0.73958 0.3243 0.02387 0.0
C1844 C 0.74245 0.37455 0.00384 0.0
H1845 H 0.79623 0.30115 0.96497 0.0
H1846 H 0.78475 0.30274 0.98108 0.0
H1847 H 0.74047 0.3907 0.99017 0.0
H1848 H 0.73157 0.401 0.03728 0.0
H1849 H 0.74631 0.40243 0.02131 0.0
H1850 H 0.78878 0.31627 0.01144 0.0
C1851 C 0.78726 0.3244 0.97747 0.0
C1852 C 0.75155 0.37464 0.99476 0.0
C1853 C 0.79387 0.32347 0.96823 0.0
C1854 C 0.73365 0.37942 0.03361 0.0
C1855 C 0.74188 0.38024 0.02447 0.0
C1856 C 0.778 0.33254 0.00684 0.0
C1857 C 0.78266 0.35283 0.9819 0.0
C1858 C 0.77394 0.35362 0.99162 0.0
C1859 C 0.74532 0.35266 0.01953 0.0
C1860 C 0.7554 0.35332 0.00995 0.0
H1861 H 0.79372 0.40096 0.96393 0.0
H1862 H 0.78265 0.40265 0.98012 0.0
H1863 H 0.8049 0.3166 0.99564 0.0
H1864 H 0.72767 0.30122 0.03618 0.0
H1865 H 0.74171 0.30269 0.02021 0.0
C1866 C 0.9191 0.47147 0.28259 0.0
C1867 C 0.89188 0.46846 0.2877 0.0
C1868 C 0.91772 0.47919 0.27344 0.0
C1869 C 0.86696 0.47969 0.25352 0.0
H1870 H 0.92321 0.54311 0.24496 0.0
C1871 C 0.86177 0.52693 0.21694 0.0
C1872 C 0.89028 0.53139 0.21259 0.0
C1873 C 0.86063 0.52074 0.22623 0.0
C1874 C 0.90754 0.52515 0.24721 0.0
H1875 H 0.84187 0.47032 0.28717 0.0
H1876 H 0.83945 0.48381 0.2711 0.0
H1877 H 0.92397 0.52805 0.26084 0.0
H1878 H 0.93995 0.53258 0.21453 0.0
H1879 H 0.938 0.52167 0.23065 0.0
H1880 H 0.85089 0.47639 0.23986 0.0
C1881 C 0.86183 0.48014 0.27421 0.0
C1882 C 0.90799 0.51654 0.25631 0.0
C1883 C 0.86321 0.47262 0.2834 0.0
C1884 C 0.91757 0.5299 0.21772 0.0
C1885 C 0.91645 0.52361 0.22697 0.0
C1886 C 0.86663 0.48818 0.24439 0.0
C1887 C 0.8891 0.48395 0.26917 0.0
C1888 C 0.8879 0.49354 0.25954 0.0
C1889 C 0.88799 0.51876 0.23133 0.0
C1890 C 0.88711 0.51084 0.24111 0.0
H1891 H 0.94156 0.46882 0.28574 0.0
H1892 H 0.93911 0.4816 0.2697 0.0
H1893 H 0.85137 0.46172 0.25581 0.0
H1894 H 0.84035 0.52817 0.21317 0.0
H1895 H 0.8383 0.51756 0.2294 0.0
C1896 C 0.28757 0.37948 0.52964 0.0
C1897 C 0.29185 0.35096 0.53404 0.0
C1898 C 0.28015 0.38047 0.52044 0.0
C1899 C 0.24429 0.33326 0.50267 0.0
H1900 H 0.28329 0.39071 0.48608 0.0
C1901 C 0.22995 0.32296 0.46413 0.0
C1902 C 0.22756 0.35022 0.459 0.0
C1903 C 0.23677 0.32427 0.47335 0.0
C1904 C 0.27184 0.37485 0.49065 0.0
H1905 H 0.29194 0.30116 0.53222 0.0
H1906 H 0.27939 0.30294 0.51616 0.0
H1907 H 0.29822 0.39071 0.50202 0.0
H1908 H 0.2299 0.40026 0.45955 0.0
H1909 H 0.2415 0.40261 0.47572 0.0
H1910 H 0.2178 0.31744 0.49138 0.0
C1911 C 0.28158 0.3245 0.51984 0.0
C1912 C 0.28047 0.37479 0.49977 0.0
C1913 C 0.28916 0.32351 0.52901 0.0
C1914 C 0.23183 0.37887 0.46332 0.0
C1915 C 0.23856 0.38019 0.47257 0.0
C1916 C 0.23556 0.3334 0.49358 0.0
C1917 C 0.27662 0.35296 0.51548 0.0
C1918 C 0.26701 0.35376 0.50585 0.0
C1919 C 0.24129 0.35288 0.47768 0.0
C1920 C 0.24945 0.35396 0.48744 0.0
H1921 H 0.28964 0.401 0.53334 0.0
H1922 H 0.27633 0.40274 0.51727 0.0
H1923 H 0.23306 0.3172 0.50724 0.0
H1924 H 0.22746 0.30049 0.46097 0.0
H1925 H 0.23929 0.30276 0.47703 0.0
C1926 C 0.41737 0.47041 0.21642 0.0
C1927 C 0.38998 0.46793 0.21137 0.0
C1928 C 0.41643 0.47819 0.22557 0.0
C1929 C 0.3666 0.51523 0.24277 0.0
H1930 H 0.42464 0.47753 0.25945 0.0
C1931 C 0.36286 0.53206 0.28177 0.0
C1932 C 0.39143 0.53666 0.28609 0.0
C1933 C 0.36165 0.52469 0.27256 0.0
C1934 C 0.40848 0.48846 0.25485 0.0
H1935 H 0.34006 0.47119 0.21199 0.0
H1936 H 0.33831 0.48432 0.22807 0.0
H1937 H 0.42391 0.46111 0.24369 0.0
H1938 H 0.44109 0.53751 0.28413 0.0
H1939 H 0.43895 0.52496 0.26807 0.0
H1940 H 0.35102 0.54235 0.25403 0.0
C1941 C 0.36058 0.48076 0.2249 0.0
C1942 C 0.40806 0.47908 0.24582 0.0
C1943 C 0.36155 0.47312 0.21571 0.0
C1944 C 0.4187 0.53449 0.28097 0.0
C1945 C 0.41751 0.52692 0.2718 0.0
C1946 C 0.36689 0.52448 0.25184 0.0
C1947 C 0.38804 0.48356 0.22993 0.0
C1948 C 0.38734 0.49256 0.23964 0.0
C1949 C 0.38901 0.52148 0.26753 0.0
C1950 C 0.38806 0.5114 0.25795 0.0
H1951 H 0.43968 0.46723 0.21323 0.0
H1952 H 0.43806 0.48075 0.22918 0.0
H1953 H 0.35061 0.52639 0.23818 0.0
H1954 H 0.34147 0.53371 0.28555 0.0
H1955 H 0.33937 0.52052 0.26946 0.0
C1956 C 0.24811 0.67212 0.03185 0.0
C1957 C 0.23601 0.64765 0.037 0.0
C1958 C 0.25658 0.66749 0.02284 0.0
C1959 C 0.2416 0.62026 0.00303 0.0
H1960 H 0.32192 0.64916 0.99502 0.0
C1961 C 0.27879 0.60718 0.96587 0.0
C1962 C 0.29363 0.63286 0.96201 0.0
C1963 C 0.27505 0.60513 0.97524 0.0
C1964 C 0.2993 0.6412 0.99711 0.0
H1965 H 0.2227 0.59934 0.03675 0.0
H1966 H 0.23693 0.5914 0.02085 0.0
H1967 H 0.30754 0.65389 0.01091 0.0
H1968 H 0.317 0.67604 0.96488 0.0
H1969 H 0.30989 0.67299 0.98118 0.0
H1970 H 0.2326 0.60885 0.98922 0.0
C1971 C 0.24004 0.61405 0.02384 0.0
C1972 C 0.29115 0.64382 0.00622 0.0
C1973 C 0.232 0.61856 0.03292 0.0
C1974 C 0.30581 0.6558 0.9677 0.0
C1975 C 0.30173 0.65398 0.97705 0.0
C1976 C 0.24956 0.61802 0.99389 0.0
C1977 C 0.25278 0.6384 0.01877 0.0
C1978 C 0.26209 0.63373 0.00924 0.0
C1979 C 0.28571 0.62894 0.98094 0.0
C1980 C 0.27838 0.62882 0.99079 0.0
H1981 H 0.25181 0.69467 0.03486 0.0
H1982 H 0.26606 0.68672 0.01905 0.0
H1983 H 0.21896 0.61252 0.00518 0.0
H1984 H 0.26946 0.58902 0.96163 0.0
H1985 H 0.26325 0.58516 0.978 0.0
C1986 C 0.11599 0.50114 0.78213 0.0
C1987 C 0.09663 0.47844 0.78592 0.0
C1988 C 0.11717 0.50549 0.77278 0.0
C1989 C 0.09788 0.4683 0.7509 0.0
H1990 H 0.09709 0.55266 0.74194 0.0
C1991 C 0.07068 0.4964 0.71379 0.0
C1992 C 0.08919 0.51853 0.7094 0.0
C1993 C 0.07274 0.49208 0.72312 0.0
C1994 C 0.09769 0.52899 0.74433 0.0
H1995 H 0.06377 0.44213 0.78282 0.0
H1996 H 0.0657 0.44977 0.76648 0.0
H1997 H 0.09933 0.54313 0.7582 0.0
H1998 H 0.12392 0.55399 0.71144 0.0
H1999 H 0.12739 0.54656 0.72783 0.0
H2000 H 0.09585 0.45417 0.73704 0.0
C2001 C 0.08028 0.46398 0.77074 0.0
C2002 C 0.09901 0.5235 0.75365 0.0
C2003 C 0.07916 0.45958 0.78011 0.0
C2004 C 0.10918 0.53693 0.71463 0.0
C2005 C 0.11121 0.53262 0.724 0.0
C2006 C 0.09648 0.47379 0.7416 0.0
C2007 C 0.099 0.48727 0.76697 0.0
C2008 C 0.09889 0.49308 0.75705 0.0
C2009 C 0.0933 0.50983 0.72833 0.0
C2010 C 0.09608 0.50419 0.73821 0.0
H2011 H 0.13017 0.51568 0.78642 0.0
H2012 H 0.13231 0.5232 0.77009 0.0
H2013 H 0.09831 0.4446 0.75328 0.0
H2014 H 0.05454 0.48231 0.71 0.0
H2015 H 0.0581 0.47485 0.72627 0.0
C2016 C 0.2744 0.81436 0.06866 0.0
C2017 C 0.27597 0.79392 0.07604 0.0
C2018 C 0.27717 0.84617 0.06995 0.0
C2019 C 0.31155 0.90409 0.08445 0.0
H2020 H 0.2536 0.95981 0.07282 0.0
C2021 C 0.3222 0.03719 0.08767 0.0
C2022 C 0.31443 0.05514 0.08007 0.0
C2023 C 0.31634 0.00539 0.08779 0.0
C2024 C 0.27026 0.94465 0.07601 0.0
H2025 H 0.28142 0.79063 0.09055 0.0
H2026 H 0.28713 0.84682 0.09283 0.0
H2027 H 0.24501 0.90416 0.07212 0.0
H2028 H 0.29504 0.0538 0.06659 0.0
H2029 H 0.28571 0.99815 0.06663 0.0
H2030 H 0.33759 0.94432 0.08803 0.0
C2031 C 0.28354 0.83797 0.08606 0.0
C2032 C 0.26515 0.91277 0.07567 0.0
C2033 C 0.28017 0.80598 0.08477 0.0
C2034 C 0.301 0.04055 0.07256 0.0
C2035 C 0.29549 0.00868 0.07262 0.0
C2036 C 0.31692 0.93601 0.08469 0.0
C2037 C 0.28196 0.85832 0.07864 0.0
C2038 C 0.28592 0.89216 0.07979 0.0
C2039 C 0.30285 0.99066 0.08027 0.0
C2040 C 0.29653 0.95672 0.08038 0.0
H2041 H 0.27071 0.80571 0.06187 0.0
H2042 H 0.27608 0.86128 0.06411 0.0
H2043 H 0.32809 0.88866 0.0876 0.0
H2044 H 0.33207 0.04789 0.09362 0.0
H2045 H 0.32185 0.9925 0.09386 0.0
C2046 C 0.44069 0.98781 0.33134 0.0
C2047 C 0.46011 0.01383 0.33117 0.0
C2048 C 0.40881 0.99134 0.33263 0.0
C2049 C 0.3482 0.05055 0.32968 0.0
H2050 H 0.29667 0.99368 0.34322 0.0
C2051 C 0.2195 0.07529 0.33612 0.0
C2052 C 0.19881 0.05055 0.33501 0.0
C2053 C 0.25137 0.07014 0.33617 0.0
C2054 C 0.31077 0.00961 0.33935 0.0
H2055 H 0.46197 0.06351 0.33293 0.0
H2056 H 0.4067 0.0697 0.33537 0.0
H2057 H 0.35259 0.98558 0.3427 0.0
H2058 H 0.19549 0.00079 0.33331 0.0
H2059 H 0.25111 0.9919 0.33323 0.0
H2060 H 0.30659 0.07452 0.32629 0.0
C2061 C 0.41573 0.04668 0.3342 0.0
C2062 C 0.34277 0.00496 0.33906 0.0
C2063 C 0.4474 0.04316 0.33284 0.0
C2064 C 0.21075 0.02045 0.33405 0.0
C2065 C 0.24264 0.01528 0.33412 0.0
C2066 C 0.31634 0.05521 0.32999 0.0
C2067 C 0.39591 0.02096 0.33385 0.0
C2068 C 0.36187 0.0255 0.33425 0.0
C2069 C 0.26331 0.0401 0.33512 0.0
C2070 C 0.29723 0.03488 0.33485 0.0
H2071 H 0.44995 0.96497 0.33002 0.0
H2072 H 0.39417 0.97107 0.33229 0.0
H2073 H 0.36211 0.0664 0.32573 0.0
H2074 H 0.21111 0.09875 0.33683 0.0
H2075 H 0.26668 0.08972 0.33706 0.0
C2076 C 0.27555 0.18799 0.56844 0.0
C2077 C 0.27691 0.21054 0.57526 0.0
C2078 C 0.27206 0.15683 0.57065 0.0
C2079 C 0.23728 0.10725 0.58748 0.0
H2080 H 0.28266 0.04239 0.57517 0.0
C2081 C 0.20824 0.97686 0.59206 0.0
C2082 C 0.20977 0.95859 0.5842 0.0
C2083 C 0.2192 0.00735 0.59199 0.0
C2084 C 0.26957 0.06019 0.57861 0.0
H2085 H 0.27636 0.2184 0.58971 0.0
H2086 H 0.26959 0.16348 0.59363 0.0
H2087 H 0.29841 0.09614 0.57331 0.0
H2088 H 0.22284 0.95822 0.57007 0.0
H2089 H 0.24122 0.01134 0.56985 0.0
H2090 H 0.20752 0.07153 0.59246 0.0
C2091 C 0.27153 0.17005 0.58658 0.0
C2092 C 0.27877 0.09095 0.57759 0.0
C2093 C 0.27562 0.20131 0.58436 0.0
C2094 C 0.22187 0.97158 0.57626 0.0
C2095 C 0.23257 0.00201 0.57616 0.0
C2096 C 0.22785 0.07645 0.58843 0.0
C2097 C 0.26937 0.14759 0.57972 0.0
C2098 C 0.26233 0.11483 0.58186 0.0
C2099 C 0.23171 0.02023 0.58404 0.0
C2100 C 0.24345 0.05261 0.58383 0.0
H2101 H 0.27659 0.19463 0.56139 0.0
H2102 H 0.27019 0.14007 0.56522 0.0
H2103 H 0.22402 0.12527 0.59078 0.0
H2104 H 0.19932 0.96734 0.5983 0.0
H2105 H 0.21838 0.02062 0.5982 0.0
C2106 C 0.27094 0.93165 0.83629 0.0
C2107 C 0.29495 0.95272 0.83459 0.0
C2108 C 0.24049 0.9419 0.83723 0.0
C2109 C 0.18896 0.00656 0.83116 0.0
H2110 H 0.1335 0.96608 0.84802 0.0
C2111 C 0.05791 0.03479 0.83252 0.0
C2112 C 0.03938 0.00822 0.8319 0.0
C2113 C 0.08957 0.0321 0.83443 0.0
C2114 C 0.14873 0.97768 0.84329 0.0
H2115 H 0.30575 0.0014 0.83287 0.0
H2116 H 0.25259 0.01926 0.83448 0.0
H2117 H 0.18842 0.95346 0.84822 0.0
H2118 H 0.03869 0.9584 0.83332 0.0
H2119 H 0.0935 0.95362 0.83669 0.0
H2120 H 0.14902 0.0302 0.82609 0.0
C2121 C 0.2573 0.9947 0.83493 0.0
C2122 C 0.18017 0.97035 0.84338 0.0
C2123 C 0.28779 0.98442 0.83398 0.0
C2124 C 0.05258 0.97919 0.83368 0.0
C2125 C 0.08392 0.97652 0.83569 0.0
C2126 C 0.15747 0.01396 0.83109 0.0
C2127 C 0.23324 0.97354 0.83653 0.0
C2128 C 0.20054 0.98406 0.83714 0.0
C2129 C 0.10296 0.00282 0.8359 0.0
C2130 C 0.13688 0.99895 0.83699 0.0
H2131 H 0.27557 0.90708 0.83668 0.0
H2132 H 0.22249 0.92487 0.83829 0.0
H2133 H 0.20394 0.01741 0.82622 0.0
H2134 H 0.04819 0.05738 0.83114 0.0
H2135 H 0.10367 0.05279 0.83459 0.0
C2136 C 0.24358 0.19594 0.41144 0.0
C2137 C 0.24451 0.20786 0.42027 0.0
C2138 C 0.24732 0.16415 0.40994 0.0
C2139 C 0.24255 0.08808 0.42101 0.0
H2140 H 0.30916 0.06389 0.40495 0.0
C2141 C 0.29582 0.96693 0.4229 0.0
C2142 C 0.30483 0.95226 0.41485 0.0
C2143 C 0.2868 0.99792 0.42287 0.0
C2144 C 0.29013 0.07012 0.40934 0.0
H2145 H 0.2484 0.19616 0.43445 0.0
H2146 H 0.25424 0.14068 0.43189 0.0
H2147 H 0.29372 0.11814 0.40585 0.0
H2148 H 0.31168 0.95855 0.40046 0.0
H2149 H 0.29547 0.0127 0.40034 0.0
H2150 H 0.23877 0.04032 0.42453 0.0
C2151 C 0.25092 0.15575 0.42612 0.0
C2152 C 0.2813 0.10122 0.40985 0.0
C2153 C 0.24776 0.18744 0.42759 0.0
C2154 C 0.30521 0.96941 0.40678 0.0
C2155 C 0.29588 1.00041 0.40672 0.0
C2156 C 0.25112 0.05701 0.42044 0.0
C2157 C 0.25136 0.14383 0.41728 0.0
C2158 C 0.25789 0.11055 0.41583 0.0
C2159 C 0.28622 0.01496 0.41476 0.0
C2160 C 0.27552 0.04771 0.41476 0.0
H2161 H 0.24133 0.21135 0.4057 0.0
H2162 H 0.24747 0.15548 0.40307 0.0
H2163 H 0.22417 0.09464 0.4256 0.0
H2164 H 0.29573 0.95436 0.42924 0.0
H2165 H 0.28035 0.00853 0.42923 0.0
C2166 C 0.06297 0.97904 0.67866 0.0
C2167 C 0.04055 0.97749 0.67182 0.0
C2168 C 0.09415 0.98247 0.6765 0.0
C2169 C 0.14388 0.01644 0.65948 0.0
H2170 H 0.20871 0.97263 0.67227 0.0
C2171 C 0.27391 0.04507 0.65449 0.0
C2172 C 0.29236 0.04458 0.66231 0.0
C2173 C 0.24349 0.03404 0.65473 0.0
C2174 C 0.19091 0.98529 0.66869 0.0
H2175 H 0.03301 0.97755 0.65735 0.0
H2176 H 0.08792 0.98409 0.6535 0.0
H2177 H 0.15506 0.95686 0.67423 0.0
H2178 H 0.29312 0.03316 0.67657 0.0
H2179 H 0.2401 0.01461 0.67708 0.0
H2180 H 0.17951 0.04574 0.65424 0.0
C2181 C 0.08123 0.98243 0.66055 0.0
C2182 C 0.1602 0.97608 0.66977 0.0
C2183 C 0.04996 0.97845 0.66273 0.0
C2184 C 0.27963 0.03333 0.6704 0.0
C2185 C 0.24925 0.02255 0.67067 0.0
C2186 C 0.17462 0.02585 0.65846 0.0
C2187 C 0.10356 0.98486 0.66743 0.0
C2188 C 0.13632 0.99194 0.66532 0.0
C2189 C 0.23084 0.02248 0.66283 0.0
C2190 C 0.19847 0.01081 0.66321 0.0
H2191 H 0.05623 0.97823 0.68571 0.0
H2192 H 0.11076 0.98454 0.68195 0.0
H2193 H 0.12589 0.02928 0.65603 0.0
H2194 H 0.28321 0.05326 0.64813 0.0
H2195 H 0.2301 0.03408 0.64854 0.0
C2196 C 0.2476 0.79976 0.9143 0.0
C2197 C 0.24928 0.78885 0.92324 0.0
C2198 C 0.24411 0.83145 0.91259 0.0
C2199 C 0.25653 0.90808 0.92257 0.0
H2200 H 0.18678 0.93478 0.90807 0.0
C2201 C 0.21396 0.03374 0.92363 0.0
C2202 C 0.20294 0.04727 0.91563 0.0
C2203 C 0.2206 0.00216 0.92397 0.0
C2204 C 0.20669 0.92781 0.91201 0.0
H2205 H 0.25004 0.80229 0.93734 0.0
H2206 H 0.24454 0.85755 0.93438 0.0
H2207 H 0.19854 0.8797 0.90936 0.0
H2208 H 0.19033 0.03843 0.90169 0.0
H2209 H 0.2025 0.98334 0.90219 0.0
H2210 H 0.26503 0.9559 0.9252 0.0
C2211 C 0.24558 0.84172 0.9287 0.0
C2212 C 0.21338 0.89624 0.91274 0.0
C2213 C 0.24847 0.81015 0.9304 0.0
C2214 C 0.19838 0.02851 0.90799 0.0
C2215 C 0.20537 0.99694 0.90828 0.0
C2216 C 0.25012 0.9396 0.92175 0.0
C2217 C 0.24298 0.85267 0.9198 0.0
C2218 C 0.238 0.88609 0.91817 0.0
C2219 C 0.21677 0.98338 0.91627 0.0
C2220 C 0.22473 0.94988 0.91662 0.0
H2221 H 0.24805 0.7837 0.90868 0.0
H2222 H 0.24225 0.83939 0.90566 0.0
H2223 H 0.27588 0.90083 0.92671 0.0
H2224 H 0.21731 0.04763 0.92965 0.0
H2225 H 0.22857 0.99246 0.93031 0.0
C2226 C 0.21559 0.92348 0.16401 0.0
C2227 C 0.19584 0.93872 0.17011 0.0
C2228 C 0.24674 0.93163 0.16341 0.0
C2229 C 0.30941 0.9726 0.1756 0.0
H2230 H 0.34778 0.97294 0.15188 0.0
C2231 C 0.43591 0.01066 0.17023 0.0
C2232 C 0.45374 0.98831 0.16573 0.0
C2233 C 0.40365 0.00866 0.17018 0.0
C2234 C 0.33731 0.973 0.15854 0.0
H2235 H 0.19401 0.97363 0.18065 0.0
H2236 H 0.24795 0.9885 0.17939 0.0
H2237 H 0.29303 0.96047 0.1533 0.0
H2238 H 0.45211 0.94773 0.15716 0.0
H2239 H 0.39583 0.94442 0.15696 0.0
H2240 H 0.35385 0.98517 0.18081 0.0
C2241 C 0.23942 0.97004 0.17512 0.0
C2242 C 0.30603 0.96562 0.15937 0.0
C2243 C 0.20832 0.96172 0.17577 0.0
C2244 C 0.43881 0.96505 0.16075 0.0
C2245 C 0.40666 0.96331 0.16058 0.0
C2246 C 0.34063 0.98027 0.17476 0.0
C2247 C 0.25893 0.95536 0.16885 0.0
C2248 C 0.29182 0.96479 0.16793 0.0
C2249 C 0.38878 0.9846 0.16549 0.0
C2250 C 0.35498 0.98004 0.16623 0.0
H2251 H 0.20695 0.90581 0.15949 0.0
H2252 H 0.26125 0.91935 0.15864 0.0
H2253 H 0.29935 0.97186 0.18231 0.0
H2254 H 0.44697 0.02868 0.17416 0.0
H2255 H 0.39034 0.02548 0.17397 0.0
C2256 C 0.70839 0.97777 0.90573 0.0
C2257 C 0.70871 0.9603 0.91375 0.0
C2258 C 0.71965 0.00815 0.90566 0.0
C2259 C 0.76945 0.06133 0.91899 0.0
H2260 H 0.72531 0.12626 0.90631 0.0
C2261 C 0.77594 0.18914 0.92883 0.0
C2262 C 0.77735 0.21162 0.922 0.0
C2263 C 0.77255 0.15797 0.92665 0.0
C2264 C 0.73821 0.10827 0.90975 0.0
H2265 H 0.71983 0.96131 0.92803 0.0
H2266 H 0.73886 0.0142 0.92798 0.0
H2267 H 0.70837 0.07259 0.90477 0.0
H2268 H 0.77709 0.21931 0.90754 0.0
H2269 H 0.77056 0.16434 0.90366 0.0
H2270 H 0.7984 0.0972 0.92427 0.0
C2271 C 0.73088 0.0043 0.92167 0.0
C2272 C 0.72851 0.07753 0.90887 0.0
C2273 C 0.71982 0.97402 0.92172 0.0
C2274 C 0.77629 0.20228 0.91291 0.0
C2275 C 0.77233 0.171 0.91071 0.0
C2276 C 0.77896 0.09201 0.91991 0.0
C2277 C 0.7313 0.02165 0.91362 0.0
C2278 C 0.74353 0.05381 0.91368 0.0
C2279 C 0.77006 0.14862 0.91758 0.0
C2280 C 0.76298 0.11586 0.91548 0.0
H2281 H 0.70026 0.96769 0.89947 0.0
H2282 H 0.7198 0.02081 0.89934 0.0
H2283 H 0.78206 0.04354 0.92259 0.0
H2284 H 0.77684 0.19586 0.93589 0.0
H2285 H 0.77057 0.14129 0.93209 0.0
C2286 C 0.77647 0.95416 0.65554 0.0
C2287 C 0.79351 0.95551 0.66363 0.0
C2288 C 0.74631 0.96581 0.65517 0.0
C2289 C 0.69171 0.01699 0.6677 0.0
H2290 H 0.62874 0.97105 0.65475 0.0
C2291 C 0.56258 0.02202 0.6762 0.0
C2292 C 0.54097 0.0224 0.66912 0.0
C2293 C 0.59407 0.01937 0.67437 0.0
C2294 C 0.64617 0.98445 0.65826 0.0
H2295 H 0.79205 0.96941 0.6777 0.0
H2296 H 0.73942 0.98903 0.67713 0.0
H2297 H 0.68257 0.95453 0.65385 0.0
H2298 H 0.53511 0.02118 0.6546 0.0
H2299 H 0.59065 0.01586 0.65135 0.0
H2300 H 0.65496 0.04596 0.67245 0.0
C2301 C 0.74952 0.97988 0.67099 0.0
C2302 C 0.67705 0.975 0.65775 0.0
C2303 C 0.77967 0.96848 0.67134 0.0
C2304 C 0.55146 0.02119 0.66014 0.0
C2305 C 0.58308 0.01792 0.65831 0.0
C2306 C 0.66084 0.02622 0.66828 0.0
C2307 C 0.73245 0.97887 0.66289 0.0
C2308 C 0.70012 0.99072 0.66264 0.0
C2309 C 0.60462 0.01652 0.66543 0.0
C2310 C 0.63768 0.00965 0.66372 0.0
H2311 H 0.78666 0.94468 0.64946 0.0
H2312 H 0.73401 0.96493 0.64879 0.0
H2313 H 0.70892 0.03015 0.67137 0.0
H2314 H 0.55492 0.02298 0.68317 0.0
H2315 H 0.61006 0.01806 0.68 0.0
C2316 C 0.79928 0.02777 0.40802 0.0
C2317 C 0.79818 0.04564 0.41595 0.0
C2318 C 0.7894 0.99698 0.4081 0.0
C2319 C 0.7437 0.94119 0.42193 0.0
H2320 H 0.78854 0.87964 0.40807 0.0
C2321 C 0.74452 0.81117 0.42997 0.0
C2322 C 0.74141 0.79028 0.42276 0.0
C2323 C 0.74659 0.84286 0.42833 0.0
C2324 C 0.77551 0.89668 0.41186 0.0
H2325 H 0.78679 0.04527 0.4302 0.0
H2326 H 0.77063 0.99133 0.43047 0.0
H2327 H 0.80306 0.93399 0.40687 0.0
H2328 H 0.73733 0.78585 0.40823 0.0
H2329 H 0.74173 0.84169 0.4053 0.0
H2330 H 0.71728 0.90343 0.42725 0.0
C2331 C 0.77805 0.0012 0.4241 0.0
C2332 C 0.78377 0.92784 0.41117 0.0
C2333 C 0.78751 0.03205 0.42398 0.0
C2334 C 0.73951 0.80165 0.41388 0.0
C2335 C 0.74221 0.83341 0.41222 0.0
C2336 C 0.73577 0.91 0.4227 0.0
C2337 C 0.77858 0.98331 0.41614 0.0
C2338 C 0.76833 0.95045 0.41632 0.0
C2339 C 0.74612 0.85422 0.41944 0.0
C2340 C 0.7519 0.88744 0.41778 0.0
H2341 H 0.80697 0.03787 0.40171 0.0
H2342 H 0.78977 0.98409 0.40182 0.0
H2343 H 0.73074 0.95799 0.42581 0.0
H2344 H 0.74588 0.80284 0.43687 0.0
H2345 H 0.74983 0.85839 0.43401 0.0
C2346 C 0.93594 0.9838 0.17155 0.0
C2347 C 0.95487 0.00498 0.16696 0.0
C2348 C 0.90378 0.98737 0.17144 0.0
C2349 C 0.84607 0.04926 0.16813 0.0
H2350 H 0.78669 0.98214 0.16815 0.0
C2351 C 0.71551 0.06957 0.16403 0.0
C2352 C 0.69554 0.05291 0.16974 0.0
C2353 C 0.74703 0.06283 0.16378 0.0
C2354 C 0.80308 0.00107 0.16823 0.0
H2355 H 0.95533 0.04468 0.15806 0.0
H2356 H 0.89937 0.05041 0.15759 0.0
H2357 H 0.84188 0.97056 0.16694 0.0
H2358 H 0.69355 0.0166 0.17987 0.0
H2359 H 0.74858 0.00463 0.17933 0.0
H2360 H 0.80739 0.07976 0.16934 0.0
C2361 C 0.90915 0.03177 0.16157 0.0
C2362 C 0.83465 0.99445 0.16754 0.0
C2363 C 0.94115 0.02841 0.16177 0.0
C2364 C 0.70806 0.02958 0.17528 0.0
C2365 C 0.7396 0.02268 0.17498 0.0
C2366 C 0.81462 0.05584 0.16877 0.0
C2367 C 0.89012 0.01202 0.16667 0.0
C2368 C 0.85649 0.01853 0.16741 0.0
C2369 C 0.75936 0.03917 0.1692 0.0
C2370 C 0.79278 0.03186 0.16878 0.0
H2371 H 0.94611 0.96566 0.17563 0.0
H2372 H 0.8898 0.97179 0.17546 0.0
H2373 H 0.86227 0.06835 0.16831 0.0
H2374 H 0.7068 0.08731 0.15955 0.0
H2375 H 0.76167 0.0757 0.15918 0.0
C2376 C 0.7435 0.80223 0.58383 0.0
C2377 C 0.74478 0.7903 0.57501 0.0
C2378 C 0.73877 0.83394 0.58524 0.0
C2379 C 0.7095 0.90355 0.57315 0.0
H2380 H 0.74827 0.94853 0.5928 0.0
C2381 C 0.71341 0.0365 0.57474 0.0
C2382 C 0.70457 0.05017 0.58296 0.0
C2383 C 0.71767 0.00456 0.57415 0.0
C2384 C 0.73712 0.93613 0.58733 0.0
H2385 H 0.74415 0.80204 0.56078 0.0
H2386 H 0.73708 0.85719 0.56317 0.0
H2387 H 0.75808 0.89311 0.59107 0.0
H2388 H 0.69376 0.04133 0.59703 0.0
H2389 H 0.70162 0.98528 0.59602 0.0
H2390 H 0.68933 0.94677 0.56926 0.0
C2391 C 0.73833 0.84222 0.56904 0.0
C2392 C 0.74264 0.90439 0.58635 0.0
C2393 C 0.74257 0.81064 0.56765 0.0
C2394 C 0.70025 0.0313 0.5906 0.0
C2395 C 0.705 0.99936 0.59004 0.0
C2396 C 0.70436 0.93524 0.57406 0.0
C2397 C 0.73567 0.85426 0.57784 0.0
C2398 C 0.72912 0.88777 0.57918 0.0
C2399 C 0.71363 0.98571 0.5818 0.0
C2400 C 0.71828 0.95187 0.58111 0.0
H2401 H 0.74504 0.7869 0.5896 0.0
H2402 H 0.73666 0.84234 0.59211 0.0
H2403 H 0.69797 0.89142 0.5677 0.0
H2404 H 0.71673 0.05054 0.56875 0.0
H2405 H 0.72451 0.99461 0.56772 0.0
C2406 C 0.71293 0.95603 0.32539 0.0
C2407 C 0.69848 0.94495 0.33324 0.0
C2408 C 0.74423 0.96382 0.32547 0.0
C2409 C 0.81685 0.95312 0.33849 0.0
H2410 H 0.84375 0.02246 0.32382 0.0
C2411 C 0.94428 0.99547 0.33707 0.0
C2412 C 0.95582 0.99606 0.3282 0.0
C2413 C 0.91246 0.99246 0.3386 0.0
C2414 C 0.83651 0.00313 0.32798 0.0
H2415 H 0.70541 0.9334 0.34736 0.0
H2416 H 0.75999 0.94749 0.34757 0.0
H2417 H 0.78891 0.01004 0.32474 0.0
H2418 H 0.94354 0.99564 0.31401 0.0
H2419 H 0.88805 0.99113 0.31665 0.0
H2420 H 0.86471 0.94646 0.34172 0.0
C2421 C 0.74735 0.94956 0.34128 0.0
C2422 C 0.80514 0.9958 0.32845 0.0
C2423 C 0.71607 0.94145 0.34117 0.0
C2424 C 0.9351 0.99499 0.3209 0.0
C2425 C 0.90342 0.99262 0.32242 0.0
C2426 C 0.84824 0.96072 0.3381 0.0
C2427 C 0.76178 0.96109 0.33345 0.0
C2428 C 0.79495 0.97025 0.33354 0.0
C2429 C 0.89181 0.99078 0.33127 0.0
C2430 C 0.85839 0.98538 0.33268 0.0
H2431 H 0.69996 0.95861 0.31917 0.0
H2432 H 0.75468 0.97184 0.31924 0.0
H2433 H 0.80994 0.93314 0.34242 0.0
H2434 H 0.95996 0.99613 0.34277 0.0
H2435 H 0.90401 0.99116 0.34549 0.0
C2436 C 0.78789 0.97211 0.07753 0.0
C2437 C 0.7988 0.95812 0.08548 0.0
C2438 C 0.7765 0.00229 0.07767 0.0
C2439 C 0.77806 0.07463 0.09099 0.0
H2440 H 0.71051 0.09643 0.07495 0.0
C2441 C 0.73264 0.2002 0.08747 0.0
C2442 C 0.73354 0.21049 0.07847 0.0
C2443 C 0.73541 0.16862 0.08944 0.0
C2444 C 0.72927 0.09062 0.0795 0.0
H2445 H 0.80615 0.96472 0.09985 0.0
H2446 H 0.78593 0.01751 0.10015 0.0
H2447 H 0.72609 0.04244 0.0764 0.0
H2448 H 0.73615 0.19619 0.06447 0.0
H2449 H 0.7403 0.14107 0.06784 0.0
H2450 H 0.78131 0.12304 0.09398 0.0
C2451 C 0.78663 0.00527 0.09376 0.0
C2452 C 0.73837 0.05976 0.08029 0.0
C2453 C 0.79826 0.97506 0.0936 0.0
C2454 C 0.73553 0.1887 0.07146 0.0
C2455 C 0.73772 0.15723 0.0734 0.0
C2456 C 0.76873 0.10551 0.09026 0.0
C2457 C 0.77548 0.01921 0.0858 0.0
C2458 C 0.76349 0.05148 0.08583 0.0
C2459 C 0.73843 0.14691 0.0824 0.0
C2460 C 0.74481 0.11388 0.08432 0.0
H2461 H 0.78846 0.95976 0.07116 0.0
H2462 H 0.7689 0.0125 0.07136 0.0
H2463 H 0.79762 0.06917 0.09527 0.0
H2464 H 0.73136 0.2167 0.09297 0.0
H2465 H 0.73582 0.1612 0.09644 0.0
C2466 C 0.78063 0.0329 0.82651 0.0
C2467 C 0.79327 0.04549 0.83445 0.0
C2468 C 0.75022 0.02219 0.82636 0.0
C2469 C 0.67543 0.02741 0.83851 0.0
H2470 H 0.65578 0.95659 0.82345 0.0
C2471 C 0.55082 0.97906 0.83471 0.0
C2472 C 0.54133 0.97785 0.82563 0.0
C2473 C 0.58211 0.9832 0.83685 0.0
C2474 C 0.66096 0.97631 0.82771 0.0
H2475 H 0.78394 0.05667 0.84846 0.0
H2476 H 0.73079 0.03753 0.84827 0.0
H2477 H 0.70946 0.97246 0.82527 0.0
H2478 H 0.55681 0.97832 0.81172 0.0
H2479 H 0.61144 0.9847 0.81543 0.0
H2480 H 0.62668 0.0311 0.8409 0.0
C2481 C 0.74425 0.03641 0.8421 0.0
C2482 C 0.69168 0.98559 0.82871 0.0
C2483 C 0.77469 0.04742 0.84222 0.0
C2484 C 0.56367 0.97926 0.81876 0.0
C2485 C 0.59486 0.98277 0.82089 0.0
C2486 C 0.64468 0.01786 0.83759 0.0
C2487 C 0.73167 0.02349 0.83417 0.0
C2488 C 0.69927 0.01179 0.83391 0.0
C2489 C 0.60435 0.98546 0.82995 0.0
C2490 C 0.6371 0.99269 0.832 0.0
H2491 H 0.79426 0.03157 0.82038 0.0
H2492 H 0.74116 0.01321 0.82005 0.0
H2493 H 0.6803 0.0478 0.84251 0.0
H2494 H 0.5339 0.97829 0.8401 0.0
H2495 H 0.58887 0.98512 0.84389 0.0
C2496 C 0.76142 0.30392 0.58749 0.0
C2497 C 0.76441 0.29261 0.57863 0.0
C2498 C 0.76326 0.33577 0.58917 0.0
C2499 C 0.75416 0.41155 0.57842 0.0
H2500 H 0.81794 0.44039 0.5948 0.0
C2501 C 0.79903 0.53588 0.57666 0.0
C2502 C 0.80687 0.55119 0.5847 0.0
C2503 C 0.79192 0.50442 0.57672 0.0
C2504 C 0.79963 0.43281 0.59033 0.0
H2505 H 0.77017 0.30533 0.56457 0.0
H2506 H 0.7727 0.36086 0.56746 0.0
H2507 H 0.80669 0.3851 0.59376 0.0
H2508 H 0.81352 0.54563 0.59913 0.0
H2509 H 0.8006 0.49059 0.5993 0.0
H2510 H 0.7469 0.45895 0.57495 0.0
C2511 C 0.7693 0.34527 0.57311 0.0
C2512 C 0.79323 0.40115 0.58974 0.0
C2513 C 0.76809 0.31357 0.57146 0.0
C2514 C 0.80792 0.53428 0.59282 0.0
C2515 C 0.80048 0.50278 0.5929 0.0
C2516 C 0.76027 0.44316 0.57908 0.0
C2517 C 0.76733 0.35667 0.58198 0.0
C2518 C 0.77098 0.39023 0.58361 0.0
C2519 C 0.7921 0.48752 0.58485 0.0
C2520 C 0.78367 0.45414 0.58485 0.0
H2521 H 0.75869 0.28807 0.5931 0.0
H2522 H 0.76163 0.34408 0.59607 0.0
H2523 H 0.73663 0.40369 0.57372 0.0
H2524 H 0.79848 0.5483 0.5703 0.0
H2525 H 0.78643 0.49332 0.57035 0.0
C2526 C 0.72025 0.56916 0.83591 0.0
C2527 C 0.70013 0.55244 0.83026 0.0
C2528 C 0.75174 0.56218 0.83616 0.0
C2529 C 0.81351 0.52117 0.82351 0.0
H2530 H 0.85641 0.52623 0.84651 0.0
C2531 C 0.94098 0.48487 0.8276 0.0
C2532 C 0.9595 0.50854 0.83118 0.0
C2533 C 0.90879 0.48683 0.82816 0.0
C2534 C 0.84464 0.52466 0.84006 0.0
H2535 H 0.69797 0.51605 0.82014 0.0
H2536 H 0.75237 0.50308 0.82087 0.0
H2537 H 0.80114 0.5372 0.84584 0.0
H2538 H 0.95937 0.55163 0.83864 0.0
H2539 H 0.90315 0.55485 0.83977 0.0
H2540 H 0.85712 0.50837 0.81779 0.0
C2541 C 0.74392 0.52187 0.82504 0.0
C2542 C 0.81308 0.53119 0.83964 0.0
C2543 C 0.71251 0.52908 0.82471 0.0
C2544 C 0.94548 0.53326 0.83577 0.0
C2545 C 0.9134 0.53498 0.83646 0.0
C2546 C 0.84498 0.51425 0.82396 0.0
C2547 C 0.76389 0.53813 0.83083 0.0
C2548 C 0.79721 0.52998 0.83134 0.0
C2549 C 0.89476 0.5122 0.83246 0.0
C2550 C 0.86089 0.51635 0.83221 0.0
H2551 H 0.71172 0.58719 0.84032 0.0
H2552 H 0.76654 0.57565 0.84056 0.0
H2553 H 0.8022 0.52042 0.81698 0.0
H2554 H 0.95136 0.4657 0.82399 0.0
H2555 H 0.89484 0.46891 0.82507 0.0
C2556 C 0.77403 0.70156 0.08641 0.0
C2557 C 0.77493 0.71116 0.07733 0.0
C2558 C 0.77047 0.67018 0.08853 0.0
C2559 C 0.77825 0.59153 0.07925 0.0
H2560 H 0.70765 0.57105 0.09425 0.0
C2561 C 0.72177 0.47198 0.07771 0.0
C2562 C 0.70999 0.45873 0.08566 0.0
C2563 C 0.73247 0.5024 0.07767 0.0
C2564 C 0.72781 0.57627 0.09019 0.0
H2565 H 0.77453 0.6958 0.06341 0.0
H2566 H 0.76895 0.64103 0.06708 0.0
H2567 H 0.72367 0.62494 0.0927 0.0
H2568 H 0.70026 0.46692 0.09984 0.0
H2569 H 0.71931 0.52016 0.09983 0.0
H2570 H 0.7824 0.54309 0.07665 0.0
C2571 C 0.77074 0.65759 0.07255 0.0
C2572 C 0.73696 0.60715 0.08931 0.0
C2573 C 0.77373 0.68887 0.07044 0.0
C2574 C 0.70888 0.47667 0.09359 0.0
C2575 C 0.71984 0.50714 0.09357 0.0
C2576 C 0.76932 0.56068 0.0802 0.0
C2577 C 0.76843 0.64798 0.0816 0.0
C2578 C 0.76177 0.61511 0.08364 0.0
C2579 C 0.73193 0.52031 0.08562 0.0
C2580 C 0.74344 0.55274 0.08547 0.0
H2581 H 0.77468 0.71843 0.09182 0.0
H2582 H 0.76882 0.66331 0.09556 0.0
H2583 H 0.7977 0.59705 0.07493 0.0
H2584 H 0.72243 0.45885 0.07148 0.0
H2585 H 0.74082 0.51199 0.07136 0.0
C2586 C 0.7695 0.4471 0.34299 0.0
C2587 C 0.78798 0.44633 0.33517 0.0
C2588 C 0.73812 0.45478 0.3424 0.0
C2589 C 0.67342 0.45649 0.3263 0.0
H2590 H 0.63776 0.51854 0.34214 0.0
C2591 C 0.55643 0.50961 0.31806 0.0
C2592 C 0.53502 0.51292 0.32512 0.0
C2593 C 0.58729 0.503 0.3199 0.0
C2594 C 0.64729 0.50092 0.33774 0.0
H2595 H 0.78804 0.4522 0.32062 0.0
H2596 H 0.73346 0.46545 0.31957 0.0
H2597 H 0.69144 0.50216 0.34435 0.0
H2598 H 0.52924 0.51341 0.33966 0.0
H2599 H 0.58353 0.50141 0.34295 0.0
H2600 H 0.62961 0.45498 0.31969 0.0
C2601 C 0.74311 0.4602 0.32616 0.0
C2602 C 0.67798 0.49154 0.33901 0.0
C2603 C 0.77441 0.45285 0.32676 0.0
C2604 C 0.5454 0.51112 0.33411 0.0
C2605 C 0.57641 0.50421 0.33597 0.0
C2606 C 0.64286 0.46572 0.32506 0.0
C2607 C 0.72464 0.46137 0.33396 0.0
C2608 C 0.69147 0.46962 0.33319 0.0
C2609 C 0.59748 0.49918 0.32886 0.0
C2610 C 0.62957 0.48848 0.33064 0.0
H2611 H 0.77945 0.44245 0.34957 0.0
H2612 H 0.72436 0.45536 0.34852 0.0
H2613 H 0.683 0.43911 0.32183 0.0
H2614 H 0.54906 0.51143 0.31108 0.0
H2615 H 0.60308 0.50022 0.31428 0.0
C2616 C 0.79607 0.47261 0.92387 0.0
C2617 C 0.80556 0.45951 0.91563 0.0
C2618 C 0.78694 0.5035 0.9243 0.0
C2619 C 0.75718 0.56823 0.91085 0.0
H2620 H 0.78986 0.61762 0.93054 0.0
C2621 C 0.74012 0.70171 0.91423 0.0
C2622 C 0.73794 0.71349 0.92306 0.0
C2623 C 0.74564 0.67011 0.91283 0.0
C2624 C 0.78008 0.60409 0.92508 0.0
H2625 H 0.81245 0.4684 0.90135 0.0
H2626 H 0.79647 0.52275 0.90211 0.0
H2627 H 0.80572 0.56401 0.92899 0.0
H2628 H 0.7371 0.70166 0.93726 0.0
H2629 H 0.74545 0.64654 0.93487 0.0
H2630 H 0.73125 0.60845 0.90701 0.0
C2631 C 0.79612 0.50894 0.90822 0.0
C2632 C 0.78933 0.57338 0.92417 0.0
C2633 C 0.80558 0.47799 0.9078 0.0
C2634 C 0.73913 0.69303 0.9304 0.0
C2635 C 0.74418 0.66157 0.92902 0.0
C2636 C 0.74771 0.59907 0.9118 0.0
C2637 C 0.78689 0.52202 0.91649 0.0
C2638 C 0.77779 0.55502 0.91711 0.0
C2639 C 0.74875 0.64988 0.92024 0.0
C2640 C 0.75881 0.61724 0.919 0.0
H2641 H 0.79602 0.459 0.93002 0.0
H2642 H 0.77968 0.51288 0.93076 0.0
H2643 H 0.74782 0.55452 0.90537 0.0
H2644 H 0.73947 0.71721 0.90848 0.0
H2645 H 0.74907 0.66188 0.90598 0.0
C2646 C 0.77247 0.5384 0.1727 0.0
C2647 C 0.78645 0.54491 0.16435 0.0
C2648 C 0.74128 0.53054 0.17315 0.0
C2649 C 0.6772 0.49811 0.16011 0.0
H2650 H 0.62714 0.53696 0.17866 0.0
C2651 C 0.54391 0.48104 0.16377 0.0
C2652 C 0.53226 0.48093 0.17263 0.0
C2653 C 0.57533 0.48685 0.16221 0.0
C2654 C 0.64085 0.52554 0.17352 0.0
H2655 H 0.77885 0.548 0.14989 0.0
H2656 H 0.72395 0.53414 0.15067 0.0
H2657 H 0.68084 0.55217 0.17688 0.0
H2658 H 0.54425 0.48413 0.1868 0.0
H2659 H 0.59904 0.49317 0.18416 0.0
H2660 H 0.63712 0.4711 0.15685 0.0
C2661 C 0.7373 0.53518 0.15686 0.0
C2662 C 0.67159 0.5344 0.17248 0.0
C2663 C 0.76855 0.5434 0.15643 0.0
C2664 C 0.55272 0.4846 0.17991 0.0
C2665 C 0.58399 0.49001 0.17838 0.0
C2666 C 0.64633 0.48905 0.16119 0.0
C2667 C 0.72337 0.52879 0.16524 0.0
C2668 C 0.69021 0.52053 0.16586 0.0
C2669 C 0.59551 0.49236 0.16951 0.0
C2670 C 0.62797 0.50236 0.16801 0.0
H2671 H 0.78566 0.53961 0.17892 0.0
H2672 H 0.73122 0.52547 0.1797 0.0
H2673 H 0.69113 0.48695 0.15497 0.0
H2674 H 0.52844 0.47846 0.15806 0.0
H2675 H 0.58346 0.48852 0.1553 0.0
C2676 C 0.75579 0.29871 0.41134 0.0
C2677 C 0.7604 0.29079 0.42046 0.0
C2678 C 0.75343 0.32983 0.40879 0.0
C2679 C 0.77194 0.40889 0.41619 0.0
H2680 H 0.69553 0.43329 0.40447 0.0
C2681 C 0.72273 0.53045 0.42021 0.0
C2682 C 0.70774 0.54475 0.4129 0.0
C2683 C 0.73221 0.49971 0.41963 0.0
C2684 C 0.71729 0.42689 0.40757 0.0
H2685 H 0.76781 0.30871 0.43395 0.0
H2686 H 0.76429 0.36294 0.42951 0.0
H2687 H 0.70842 0.37844 0.40586 0.0
H2688 H 0.69098 0.53802 0.39922 0.0
H2689 H 0.70764 0.48403 0.39819 0.0
H2690 H 0.78067 0.4571 0.41808 0.0
C2691 C 0.76222 0.34529 0.42434 0.0
C2692 C 0.72464 0.3955 0.40836 0.0
C2693 C 0.76397 0.31433 0.4269 0.0
C2694 C 0.70219 0.52751 0.405 0.0
C2695 C 0.7118 0.49665 0.4044 0.0
C2696 C 0.76474 0.44021 0.41534 0.0
C2697 C 0.75642 0.35335 0.4153 0.0
C2698 C 0.75152 0.38624 0.41294 0.0
C2699 C 0.72706 0.48247 0.41171 0.0
C2700 C 0.7368 0.44954 0.41132 0.0
H2701 H 0.75285 0.28083 0.40629 0.0
H2702 H 0.74897 0.33552 0.40178 0.0
H2703 H 0.79302 0.40233 0.41964 0.0
H2704 H 0.72679 0.54293 0.42644 0.0
H2705 H 0.74312 0.48931 0.42548 0.0
C2706 C 0.71844 0.43175 0.65893 0.0
C2707 C 0.6992 0.44935 0.66463 0.0
C2708 C 0.75015 0.43765 0.65848 0.0
C2709 C 0.81363 0.47665 0.67097 0.0
H2710 H 0.85715 0.46746 0.64819 0.0
C2711 C 0.94189 0.50947 0.66692 0.0
C2712 C 0.96026 0.48529 0.66356 0.0
C2713 C 0.9097 0.5078 0.66633 0.0
C2714 C 0.84521 0.47013 0.65458 0.0
H2715 H 0.69912 0.4868 0.67447 0.0
H2716 H 0.7536 0.49785 0.67334 0.0
H2717 H 0.80142 0.45888 0.64876 0.0
H2718 H 0.95975 0.44144 0.65648 0.0
H2719 H 0.90347 0.43869 0.65532 0.0
H2720 H 0.85749 0.48826 0.67674 0.0
C2721 C 0.74431 0.47904 0.66934 0.0
C2722 C 0.81336 0.465 0.65494 0.0
C2723 C 0.71273 0.4729 0.66989 0.0
C2724 C 0.94602 0.4602 0.65919 0.0
C2725 C 0.91391 0.45876 0.65848 0.0
C2726 C 0.84536 0.48219 0.67058 0.0
C2727 C 0.76346 0.4615 0.66364 0.0
C2728 C 0.79721 0.46788 0.66316 0.0
C2729 C 0.89545 0.48218 0.66223 0.0
C2730 C 0.86148 0.47868 0.66241 0.0
H2731 H 0.70918 0.41352 0.65473 0.0
H2732 H 0.76425 0.42327 0.65412 0.0
H2733 H 0.80215 0.47853 0.67746 0.0
H2734 H 0.95236 0.52895 0.67035 0.0
H2735 H 0.89592 0.52623 0.66922 0.0
C2736 C 0.24742 0.70121 0.41358 0.0
C2737 C 0.24703 0.71176 0.42256 0.0
C2738 C 0.24191 0.66994 0.41164 0.0
C2739 C 0.20606 0.60053 0.422 0.0
H2740 H 0.25034 0.55521 0.40345 0.0
C2741 C 0.20575 0.46799 0.42024 0.0
C2742 C 0.20095 0.45424 0.41175 0.0
C2743 C 0.21051 0.49981 0.42096 0.0
C2744 C 0.23758 0.56772 0.40858 0.0
H2745 H 0.24268 0.69777 0.43657 0.0
H2746 H 0.23384 0.64345 0.43326 0.0
H2747 H 0.26136 0.61018 0.4058 0.0
H2748 H 0.19776 0.46292 0.39734 0.0
H2749 H 0.20629 0.51883 0.3986 0.0
H2750 H 0.18286 0.55801 0.42493 0.0
C2751 C 0.23719 0.65926 0.42766 0.0
C2752 C 0.24384 0.59918 0.40993 0.0
C2753 C 0.24238 0.69037 0.42957 0.0
C2754 C 0.2011 0.47298 0.40398 0.0
C2755 C 0.20625 0.50486 0.40469 0.0
C2756 C 0.20003 0.56916 0.42071 0.0
C2757 C 0.23617 0.64872 0.41867 0.0
C2758 C 0.22849 0.61582 0.41676 0.0
C2759 C 0.21087 0.51857 0.4132 0.0
C2760 C 0.21601 0.55233 0.41408 0.0
H2761 H 0.25086 0.7173 0.40806 0.0
H2762 H 0.24121 0.66261 0.40463 0.0
H2763 H 0.19317 0.61279 0.42716 0.0
H2764 H 0.20553 0.45413 0.42634 0.0
H2765 H 0.21428 0.50971 0.4276 0.0
C2766 C 0.05404 0.50693 0.18044 0.0
C2767 C 0.03279 0.50988 0.17333 0.0
C2768 C 0.08502 0.50069 0.17867 0.0
C2769 C 0.14546 0.49851 0.16096 0.0
H2770 H 0.18082 0.43695 0.17702 0.0
C2771 C 0.26749 0.44387 0.15601 0.0
C2772 C 0.28585 0.44331 0.16385 0.0
C2773 C 0.23617 0.45183 0.15653 0.0
C2774 C 0.17133 0.45427 0.17251 0.0
H2775 H 0.02733 0.51021 0.15878 0.0
H2776 H 0.08184 0.49879 0.15561 0.0
H2777 H 0.1274 0.45287 0.17904 0.0
H2778 H 0.28579 0.4499 0.17838 0.0
H2779 H 0.23129 0.46362 0.17931 0.0
H2780 H 0.18974 0.49957 0.15442 0.0
C2781 C 0.07453 0.50161 0.16257 0.0
C2782 C 0.14076 0.46352 0.17368 0.0
C2783 C 0.0434 0.50819 0.16436 0.0
C2784 C 0.27224 0.45038 0.17222 0.0
C2785 C 0.241 0.458 0.17276 0.0
C2786 C 0.17616 0.48908 0.15975 0.0
C2787 C 0.09546 0.49684 0.16973 0.0
C2788 C 0.1276 0.48619 0.16805 0.0
C2789 C 0.22264 0.45891 0.16492 0.0
C2790 C 0.18951 0.46725 0.16563 0.0
H2791 H 0.04643 0.50864 0.1874 0.0
H2792 H 0.10069 0.49811 0.18433 0.0
H2793 H 0.13601 0.51604 0.15652 0.0
H2794 H 0.27748 0.4388 0.14946 0.0
H2795 H 0.22248 0.45221 0.15039 0.0
C2796 C 0.2985 0.30146 0.91482 0.0
C2797 C 0.26971 0.28727 0.91623 0.0
C2798 C 0.30047 0.33318 0.91321 0.0
C2799 C 0.25934 0.40501 0.91803 0.0
H2800 H 0.31889 0.44058 0.9014 0.0
C2801 C 0.27467 0.53704 0.91435 0.0
C2802 C 0.30518 0.54806 0.9138 0.0
C2803 C 0.26843 0.50543 0.91369 0.0
C2804 C 0.30232 0.431 0.90613 0.0
H2805 H 0.2203 0.29493 0.91676 0.0
H2806 H 0.22367 0.35069 0.91392 0.0
H2807 H 0.31071 0.38473 0.90157 0.0
H2808 H 0.35302 0.53455 0.91211 0.0
H2809 H 0.34224 0.47926 0.91106 0.0
H2810 H 0.2515 0.45109 0.92276 0.0
C2811 C 0.24474 0.33717 0.91412 0.0
C2812 C 0.29756 0.39903 0.9062 0.0
C2813 C 0.24277 0.30528 0.91566 0.0
C2814 C 0.32928 0.52678 0.91248 0.0
C2815 C 0.32305 0.49512 0.91185 0.0
C2816 C 0.26416 0.43697 0.91798 0.0
C2817 C 0.27368 0.35151 0.91301 0.0
C2818 C 0.27636 0.38564 0.91224 0.0
C2819 C 0.29255 0.48405 0.91248 0.0
C2820 C 0.28604 0.4503 0.91212 0.0
H2821 H 0.31962 0.28807 0.91511 0.0
H2822 H 0.32312 0.34353 0.91246 0.0
H2823 H 0.24317 0.39536 0.92285 0.0
H2824 H 0.25551 0.55287 0.91517 0.0
H2825 H 0.24463 0.49776 0.91405 0.0
C2826 C 0.43835 0.50846 0.68031 0.0
C2827 C 0.4577 0.50812 0.67271 0.0
C2828 C 0.40656 0.51204 0.67932 0.0
C2829 C 0.34237 0.5118 0.66255 0.0
H2830 H 0.30317 0.56311 0.68078 0.0
C2831 C 0.21823 0.56154 0.65947 0.0
C2832 C 0.19911 0.55622 0.66699 0.0
C2833 C 0.24981 0.55504 0.65991 0.0
C2834 C 0.3138 0.54861 0.67568 0.0
H2835 H 0.45941 0.51015 0.65812 0.0
H2836 H 0.40355 0.51763 0.6563 0.0
H2837 H 0.35815 0.55218 0.68185 0.0
H2838 H 0.19787 0.54047 0.68088 0.0
H2839 H 0.25337 0.52975 0.68175 0.0
H2840 H 0.29775 0.50927 0.65626 0.0
C2841 C 0.4128 0.51444 0.66304 0.0
C2842 C 0.34528 0.54213 0.6763 0.0
C2843 C 0.44471 0.51024 0.66405 0.0
C2844 C 0.21218 0.54471 0.675 0.0
C2845 C 0.24383 0.5387 0.6755 0.0
C2846 C 0.31087 0.5187 0.66186 0.0
C2847 C 0.39343 0.51608 0.67069 0.0
C2848 C 0.35994 0.52332 0.66982 0.0
C2849 C 0.26287 0.5436 0.66794 0.0
C2850 C 0.29631 0.53693 0.66847 0.0
H2851 H 0.448 0.50637 0.68704 0.0
H2852 H 0.39236 0.51213 0.68535 0.0
H2853 H 0.35277 0.49702 0.65748 0.0
H2854 H 0.20861 0.57 0.65318 0.0
H2855 H 0.26408 0.55915 0.65401 0.0
C2856 C 0.26328 0.31097 0.0855 0.0
C2857 C 0.24105 0.29543 0.08023 0.0
C2858 C 0.26077 0.34293 0.08705 0.0
C2859 C 0.2025 0.40504 0.08733 0.0
H2860 H 0.27082 0.46166 0.08368 0.0
C2861 C 0.18303 0.53431 0.08116 0.0
C2862 C 0.20365 0.55594 0.0849 0.0
C2863 C 0.18886 0.50264 0.08181 0.0
C2864 C 0.25163 0.44611 0.08488 0.0
H2865 H 0.19992 0.30186 0.07204 0.0
H2866 H 0.19539 0.35686 0.07484 0.0
H2867 H 0.27954 0.4058 0.08255 0.0
H2868 H 0.24633 0.56092 0.09246 0.0
H2869 H 0.25655 0.50544 0.09357 0.0
H2870 H 0.17444 0.44503 0.08953 0.0
C2871 C 0.21433 0.34437 0.07795 0.0
C2872 C 0.25665 0.41415 0.08423 0.0
C2873 C 0.21692 0.31273 0.07636 0.0
C2874 C 0.23014 0.54496 0.08941 0.0
C2875 C 0.23602 0.51317 0.09004 0.0
C2876 C 0.19752 0.43684 0.08801 0.0
C2877 C 0.23591 0.35979 0.0834 0.0
C2878 C 0.23192 0.39336 0.0852 0.0
C2879 C 0.21546 0.49164 0.08622 0.0
C2880 C 0.22181 0.45782 0.08656 0.0
H2881 H 0.28212 0.29842 0.08861 0.0
H2882 H 0.27779 0.35428 0.09127 0.0
H2883 H 0.18311 0.38954 0.0883 0.0
H2884 H 0.16275 0.54175 0.07748 0.0
H2885 H 0.17284 0.48676 0.07863 0.0
C2886 C 0.44409 0.46241 0.83735 0.0
C2887 C 0.45897 0.48632 0.83263 0.0
C2888 C 0.41193 0.46099 0.83765 0.0
C2889 C 0.34543 0.48057 0.82407 0.0
H2890 H 0.2986 0.45986 0.8456 0.0
C2891 C 0.21289 0.46519 0.82345 0.0
C2892 C 0.20006 0.44208 0.82901 0.0
C2893 C 0.24417 0.47272 0.82407 0.0
C2894 C 0.31138 0.46527 0.8395 0.0
H2895 H 0.4522 0.52806 0.82479 0.0
H2896 H 0.39557 0.52538 0.82519 0.0
H2897 H 0.35371 0.47096 0.84684 0.0
H2898 H 0.21072 0.40816 0.83939 0.0
H2899 H 0.26535 0.42029 0.84015 0.0
H2900 H 0.30361 0.47372 0.81665 0.0
C2901 C 0.40891 0.50784 0.82868 0.0
C2902 C 0.34286 0.47186 0.84024 0.0
C2903 C 0.44116 0.50951 0.82851 0.0
C2904 C 0.21962 0.42595 0.83496 0.0
C2905 C 0.25097 0.43329 0.83551 0.0
C2906 C 0.31403 0.47364 0.82331 0.0
C2907 C 0.39406 0.48325 0.83313 0.0
C2908 C 0.36021 0.47927 0.83252 0.0
C2909 C 0.26354 0.45708 0.83018 0.0
C2910 C 0.29669 0.46557 0.83101 0.0
H2911 H 0.4574 0.44444 0.84065 0.0
H2912 H 0.40107 0.44169 0.84108 0.0
H2913 H 0.35842 0.48578 0.81799 0.0
H2914 H 0.19876 0.47777 0.81867 0.0
H2915 H 0.25299 0.49129 0.81988 0.0
C2916 C 0.29077 0.47153 0.57493 0.0
C2917 C 0.30296 0.45755 0.58272 0.0
C2918 C 0.27951 0.50176 0.57521 0.0
C2919 C 0.28323 0.57415 0.58856 0.0
H2920 H 0.21371 0.59641 0.57333 0.0
C2921 C 0.23677 0.69974 0.586 0.0
C2922 C 0.2365 0.71045 0.57703 0.0
C2923 C 0.24003 0.66807 0.58781 0.0
C2924 C 0.23304 0.59047 0.57765 0.0
H2925 H 0.31266 0.46422 0.59697 0.0
H2926 H 0.2926 0.51704 0.59753 0.0
H2927 H 0.22942 0.54238 0.57448 0.0
H2928 H 0.23759 0.69681 0.56296 0.0
H2929 H 0.24252 0.64157 0.56607 0.0
H2930 H 0.28683 0.62247 0.59165 0.0
C2931 C 0.29224 0.50479 0.59114 0.0
C2932 C 0.24222 0.55957 0.57827 0.0
C2933 C 0.30377 0.47455 0.59082 0.0
C2934 C 0.23784 0.689 0.56992 0.0
C2935 C 0.2405 0.65744 0.57171 0.0
C2936 C 0.2738 0.60505 0.58802 0.0
C2937 C 0.27987 0.51876 0.58333 0.0
C2938 C 0.268 0.55111 0.58352 0.0
C2939 C 0.24237 0.6467 0.58066 0.0
C2940 C 0.24913 0.6136 0.58237 0.0
H2941 H 0.29027 0.45914 0.56856 0.0
H2942 H 0.27093 0.51194 0.56901 0.0
H2943 H 0.30332 0.56859 0.59262 0.0
H2944 H 0.236 0.71597 0.59157 0.0
H2945 H 0.24133 0.66033 0.59477 0.0
C2946 C 0.04585 0.4871 0.3353 0.0
C2947 C 0.03397 0.48745 0.32646 0.0
C2948 C 0.07731 0.49286 0.33682 0.0
C2949 C 0.14296 0.53172 0.32556 0.0
H2950 H 0.19324 0.49169 0.34384 0.0
C2951 C 0.27481 0.5433 0.32621 0.0
C2952 C 0.28904 0.54914 0.33457 0.0
C2953 C 0.24352 0.53579 0.32577 0.0
C2954 C 0.17932 0.50326 0.33877 0.0
H2955 H 0.04565 0.4915 0.31228 0.0
H2956 H 0.10046 0.50051 0.31486 0.0
H2957 H 0.13904 0.47652 0.342 0.0
H2958 H 0.28172 0.55138 0.34906 0.0
H2959 H 0.22668 0.53814 0.3483 0.0
H2960 H 0.18316 0.55808 0.32222 0.0
C2961 C 0.08557 0.49702 0.32066 0.0
C2962 C 0.14833 0.49458 0.33772 0.0
C2963 C 0.05426 0.49164 0.31916 0.0
C2964 C 0.27126 0.5473 0.34251 0.0
C2965 C 0.23991 0.53943 0.34209 0.0
C2966 C 0.17383 0.54019 0.32657 0.0
C2967 C 0.09733 0.49879 0.32951 0.0
C2968 C 0.12993 0.50842 0.331 0.0
C2969 C 0.22573 0.53371 0.3337 0.0
C2970 C 0.19246 0.52581 0.3331 0.0
H2971 H 0.03054 0.48409 0.34102 0.0
H2972 H 0.08561 0.49409 0.34372 0.0
H2973 H 0.12925 0.54354 0.32049 0.0
H2974 H 0.28789 0.54478 0.31998 0.0
H2975 H 0.23329 0.53124 0.31921 0.0
C2976 C 0.60746 0.2955 0.08068 0.0
C2977 C 0.61503 0.32202 0.07565 0.0
C2978 C 0.57705 0.28425 0.08077 0.0
C2979 C 0.49625 0.30872 0.07579 0.0
H2980 H 0.47986 0.2206 0.07515 0.0
C2981 C 0.37545 0.25842 0.06782 0.0
C2982 C 0.36532 0.23347 0.07314 0.0
C2983 C 0.40584 0.26924 0.06852 0.0
C2984 C 0.48407 0.24528 0.07542 0.0
H2985 H 0.59668 0.35707 0.0666 0.0
H2986 H 0.54433 0.33722 0.0666 0.0
H2987 H 0.53316 0.23901 0.07569 0.0
H2988 H 0.3793 0.2004 0.08341 0.0
H2989 H 0.43221 0.21922 0.0846 0.0
H2990 H 0.44718 0.31495 0.07535 0.0
C2991 C 0.56149 0.32546 0.07068 0.0
C2992 C 0.51463 0.25585 0.07575 0.0
C2993 C 0.59168 0.33675 0.07063 0.0
C2994 C 0.38626 0.21967 0.07921 0.0
C2995 C 0.41669 0.23032 0.07985 0.0
C2996 C 0.46576 0.29816 0.07539 0.0
C2997 C 0.55364 0.29922 0.0758 0.0
C2998 C 0.52114 0.28773 0.07587 0.0
C2999 C 0.42685 0.25519 0.07451 0.0
C3000 C 0.4593 0.26633 0.07514 0.0
H3001 H 0.62491 0.28364 0.08463 0.0
H3002 H 0.57182 0.26412 0.08486 0.0
H3003 H 0.50028 0.33342 0.07608 0.0
H3004 H 0.35995 0.26956 0.06307 0.0
H3005 H 0.41305 0.28828 0.06425 0.0
C3006 C 0.95715 0.35567 0.33118 0.0
C3007 C 0.92903 0.361 0.32667 0.0
C3008 C 0.96977 0.32576 0.33157 0.0
C3009 C 0.94719 0.24314 0.32889 0.0
H3010 H 0.03493 0.22884 0.32568 0.0
C3011 C 0.9962 0.12282 0.32035 0.0
C3012 C 0.02303 0.11314 0.3249 0.0
C3013 C 0.98559 0.15324 0.32118 0.0
C3014 C 0.01041 0.2325 0.32668 0.0
H3015 H 0.89256 0.33911 0.31887 0.0
H3016 H 0.91463 0.2877 0.31941 0.0
H3017 H 0.01514 0.28185 0.32606 0.0
H3018 H 0.05989 0.12804 0.33385 0.0
H3019 H 0.04137 0.18126 0.33525 0.0
H3020 H 0.94233 0.1939 0.32932 0.0
C3021 C 0.92669 0.30625 0.32285 0.0
C3022 C 0.99907 0.26288 0.32693 0.0
C3023 C 0.9141 0.33592 0.32248 0.0
C3024 C 0.03909 0.13469 0.33027 0.0
C3025 C 0.02861 0.16524 0.33103 0.0
C3026 C 0.95847 0.21288 0.32859 0.0
C3027 C 0.95452 0.30063 0.32746 0.0
C3028 C 0.96722 0.26856 0.32789 0.0
C3029 C 0.00165 0.17483 0.32653 0.0
C3030 C 0.99014 0.20716 0.32736 0.0
H3031 H 0.96924 0.3745 0.33448 0.0
H3032 H 0.99118 0.32225 0.33522 0.0
H3033 H 0.92263 0.24659 0.32987 0.0
H3034 H 0.98327 0.10687 0.31615 0.0
H3035 H 0.96496 0.15999 0.31753 0.0
C3036 C 0.091 0.83333 0.57116 0.0
C3037 C 0.11576 0.81865 0.57558 0.0
C3038 C 0.06108 0.8215 0.57176 0.0
C3039 C 0.01646 0.75073 0.57696 0.0
H3040 H 0.94848 0.80901 0.57844 0.0
C3041 C 0.88798 0.71257 0.5803 0.0
C3042 C 0.86698 0.72797 0.57459 0.0
C3043 C 0.91845 0.72312 0.58118 0.0
C3044 C 0.96718 0.79243 0.57798 0.0
H3045 H 0.12839 0.77971 0.58405 0.0
H3046 H 0.07577 0.7591 0.58518 0.0
H3047 H 0.00144 0.82793 0.57872 0.0
H3048 H 0.8615 0.7668 0.56544 0.0
H3049 H 0.91444 0.7852 0.567 0.0
H3050 H 0.98191 0.71522 0.57621 0.0
C3051 C 0.0797 0.77971 0.58118 0.0
C3052 C 0.99759 0.80327 0.57812 0.0
C3053 C 0.10983 0.79158 0.58057 0.0
C3054 C 0.87703 0.75437 0.56989 0.0
C3055 C 0.90736 0.76504 0.57083 0.0
C3056 C 0.98594 0.73985 0.57686 0.0
C3057 C 0.0549 0.79469 0.57682 0.0
C3058 C 0.02265 0.78264 0.57743 0.0
C3059 C 0.9285 0.74947 0.57644 0.0
C3060 C 0.96095 0.76064 0.57721 0.0
H3061 H 0.09464 0.85408 0.5672 0.0
H3062 H 0.04278 0.83329 0.56814 0.0
H3063 H 0.03514 0.73419 0.57635 0.0
H3064 H 0.88103 0.69212 0.58401 0.0
H3065 H 0.9341 0.71076 0.58561 0.0
C3066 C 0.41942 0.83172 0.81742 0.0
C3067 C 0.43284 0.85558 0.82255 0.0
C3068 C 0.43093 0.8016 0.81786 0.0
C3069 C 0.49955 0.75555 0.82449 0.0
H3070 H 0.44096 0.68769 0.82367 0.0
C3071 C 0.53559 0.62743 0.82946 0.0
C3072 C 0.52279 0.60584 0.8234 0.0
C3073 C 0.52482 0.65794 0.82971 0.0
C3074 C 0.45764 0.70637 0.82383 0.0
H3075 H 0.4692 0.86648 0.83212 0.0
H3076 H 0.48911 0.81356 0.83301 0.0
H3077 H 0.4222 0.7408 0.82363 0.0
H3078 H 0.48833 0.59942 0.81291 0.0
H3079 H 0.46945 0.65261 0.81338 0.0
H3080 H 0.53497 0.72088 0.82476 0.0
C3081 C 0.46984 0.81831 0.82855 0.0
C3082 C 0.44691 0.73687 0.82379 0.0
C3083 C 0.45836 0.84863 0.82807 0.0
C3084 C 0.49871 0.61541 0.81767 0.0
C3085 C 0.48778 0.64587 0.81796 0.0
C3086 C 0.51029 0.72498 0.82458 0.0
C3087 C 0.4561 0.79436 0.82349 0.0
C3088 C 0.46771 0.7619 0.82401 0.0
C3089 C 0.50081 0.66754 0.82396 0.0
C3090 C 0.48945 0.70004 0.82416 0.0
H3091 H 0.39992 0.83623 0.81302 0.0
H3092 H 0.42018 0.784 0.8137 0.0
H3093 H 0.51627 0.77418 0.82456 0.0
H3094 H 0.55413 0.62089 0.83399 0.0
H3095 H 0.53511 0.67396 0.83447 0.0
C3096 C 0.59377 0.67157 0.42859 0.0
C3097 C 0.6186 0.6858 0.42409 0.0
C3098 C 0.56393 0.68352 0.42792 0.0
C3099 C 0.51939 0.75384 0.42236 0.0
H3100 H 0.45175 0.69523 0.42067 0.0
C3101 C 0.39074 0.79129 0.41877 0.0
C3102 C 0.36973 0.77562 0.42441 0.0
C3103 C 0.42131 0.78099 0.41794 0.0
C3104 C 0.47035 0.71191 0.42119 0.0
H3105 H 0.63148 0.72416 0.41543 0.0
H3106 H 0.57897 0.74504 0.41419 0.0
H3107 H 0.50481 0.67655 0.4206 0.0
H3108 H 0.36435 0.7366 0.4335 0.0
H3109 H 0.41745 0.71867 0.43203 0.0
H3110 H 0.48465 0.78919 0.42299 0.0
C3111 C 0.58281 0.72466 0.4183 0.0
C3112 C 0.5008 0.7012 0.42116 0.0
C3113 C 0.61287 0.71265 0.41898 0.0
C3114 C 0.37988 0.74923 0.4291 0.0
C3115 C 0.4103 0.73883 0.42822 0.0
C3116 C 0.48882 0.76458 0.42235 0.0
C3117 C 0.55793 0.71001 0.4227 0.0
C3118 C 0.52572 0.72195 0.42193 0.0
C3119 C 0.43144 0.75463 0.42266 0.0
C3120 C 0.46395 0.74366 0.42194 0.0
H3121 H 0.59728 0.65102 0.43265 0.0
H3122 H 0.54552 0.67203 0.43158 0.0
H3123 H 0.53799 0.77044 0.42302 0.0
H3124 H 0.3837 0.81174 0.41507 0.0
H3125 H 0.43696 0.79353 0.41355 0.0
C3126 C 0.41468 0.16543 0.67559 0.0
C3127 C 0.42996 0.1413 0.67105 0.0
C3128 C 0.42664 0.19539 0.67557 0.0
C3129 C 0.49841 0.24024 0.67178 0.0
H3130 H 0.44113 0.30919 0.67078 0.0
C3131 C 0.53802 0.36839 0.66932 0.0
C3132 C 0.52269 0.38959 0.67498 0.0
C3133 C 0.52729 0.338 0.66843 0.0
C3134 C 0.45741 0.29019 0.67114 0.0
H3135 H 0.46999 0.12987 0.66289 0.0
H3136 H 0.49075 0.18258 0.66271 0.0
H3137 H 0.42163 0.25649 0.66969 0.0
H3138 H 0.48388 0.39538 0.68411 0.0
H3139 H 0.4651 0.34244 0.68252 0.0
H3140 H 0.53421 0.27422 0.67317 0.0
C3141 C 0.46962 0.17811 0.6664 0.0
C3142 C 0.44625 0.25993 0.67052 0.0
C3143 C 0.45765 0.14792 0.66646 0.0
C3144 C 0.49627 0.3797 0.67969 0.0
C3145 C 0.48539 0.34939 0.67874 0.0
C3146 C 0.50961 0.2706 0.67233 0.0
C3147 C 0.45417 0.20226 0.67094 0.0
C3148 C 0.46652 0.2345 0.67097 0.0
C3149 C 0.50079 0.32816 0.67311 0.0
C3150 C 0.48918 0.29591 0.67214 0.0
H3151 H 0.39343 0.16122 0.67926 0.0
H3152 H 0.41443 0.21313 0.6793 0.0
H3153 H 0.51468 0.22128 0.67225 0.0
H3154 H 0.55845 0.37517 0.66559 0.0
H3155 H 0.53952 0.3223 0.66397 0.0
C3156 C 0.9248 0.33528 0.92739 0.0
C3157 C 0.89969 0.32024 0.92326 0.0
C3158 C 0.95459 0.32315 0.92677 0.0
C3159 C 0.99809 0.25126 0.92208 0.0
H3160 H 0.06678 0.30835 0.91973 0.0
C3161 C 0.12528 0.21081 0.91782 0.0
C3162 C 0.1473 0.22621 0.92319 0.0
C3163 C 0.09493 0.22182 0.91724 0.0
C3164 C 0.04788 0.29212 0.92045 0.0
H3165 H 0.8863 0.28045 0.91524 0.0
H3166 H 0.93868 0.25936 0.91404 0.0
H3167 H 0.01407 0.32804 0.91959 0.0
H3168 H 0.1547 0.26547 0.93207 0.0
H3169 H 0.10184 0.2847 0.93102 0.0
H3170 H 0.03215 0.21533 0.92292 0.0
C3171 C 0.93513 0.28045 0.91785 0.0
C3172 C 0.01762 0.30339 0.92038 0.0
C3173 C 0.90514 0.29259 0.9185 0.0
C3174 C 0.13835 0.25304 0.92788 0.0
C3175 C 0.10808 0.26417 0.92723 0.0
C3176 C 0.02843 0.23995 0.92209 0.0
C3177 C 0.96026 0.2957 0.92195 0.0
C3178 C 0.99232 0.2832 0.92134 0.0
C3179 C 0.08598 0.24863 0.92194 0.0
C3180 C 0.05368 0.26031 0.92141 0.0
H3181 H 0.92152 0.35649 0.93117 0.0
H3182 H 0.97318 0.33519 0.93018 0.0
H3183 H 0.97923 0.23506 0.92292 0.0
H3184 H 0.13138 0.19004 0.91413 0.0
H3185 H 0.07852 0.20948 0.91304 0.0
C3186 C 0.95212 0.64182 0.16866 0.0
C3187 C 0.92454 0.6354 0.17332 0.0
C3188 C 0.9642 0.67196 0.16852 0.0
C3189 C 0.941 0.7539 0.17268 0.0
H3190 H 0.02913 0.76828 0.17466 0.0
C3191 C 0.99237 0.87381 0.18126 0.0
C3192 C 0.01796 0.88352 0.17614 0.0
C3193 C 0.98127 0.8435 0.18051 0.0
C3194 C 0.00447 0.76461 0.17403 0.0
H3195 H 0.88846 0.65557 0.18165 0.0
H3196 H 0.90969 0.70731 0.18161 0.0
H3197 H 0.00959 0.71531 0.17397 0.0
H3198 H 0.05196 0.86882 0.16623 0.0
H3199 H 0.03274 0.816 0.16502 0.0
H3200 H 0.93586 0.80317 0.17295 0.0
C3201 C 0.92168 0.68951 0.17783 0.0
C3202 C 0.99326 0.73424 0.17359 0.0
C3203 C 0.90958 0.65963 0.17791 0.0
C3204 C 0.03222 0.86218 0.17029 0.0
C3205 C 0.02133 0.83181 0.16961 0.0
C3206 C 0.95217 0.78417 0.1732 0.0
C3207 C 0.94899 0.69624 0.17308 0.0
C3208 C 0.96133 0.72848 0.17301 0.0
C3209 C 0.9957 0.82213 0.1747 0.0
C3210 C 0.984 0.78989 0.17395 0.0
H3211 H 0.96419 0.62366 0.16505 0.0
H3212 H 0.98517 0.67631 0.16474 0.0
H3213 H 0.91632 0.75046 0.17202 0.0
H3214 H 0.98084 0.88962 0.18583 0.0
H3215 H 0.96162 0.83664 0.18458 0.0
C3216 C 0.37827 0.75128 0.92944 0.0
C3217 C 0.36863 0.72433 0.92494 0.0
C3218 C 0.40838 0.76239 0.92839 0.0
C3219 C 0.48727 0.73837 0.92248 0.0
H3220 H 0.50055 0.82641 0.91936 0.0
C3221 C 0.60983 0.7923 0.91806 0.0
C3222 C 0.61506 0.82025 0.92268 0.0
C3223 C 0.57998 0.77971 0.91756 0.0
C3224 C 0.49732 0.80178 0.92031 0.0
H3225 H 0.3832 0.68786 0.9158 0.0
H3226 H 0.43592 0.70722 0.91401 0.0
H3227 H 0.44808 0.80626 0.92001 0.0
H3228 H 0.59302 0.85657 0.93052 0.0
H3229 H 0.54167 0.83452 0.9298 0.0
H3230 H 0.53658 0.73401 0.923 0.0
C3231 C 0.4201 0.7197 0.91837 0.0
C3232 C 0.4672 0.79025 0.92067 0.0
C3233 C 0.38984 0.70873 0.91935 0.0
C3234 C 0.58991 0.83513 0.92684 0.0
C3235 C 0.56028 0.82257 0.92637 0.0
C3236 C 0.5175 0.74996 0.92219 0.0
C3237 C 0.42968 0.7467 0.92286 0.0
C3238 C 0.4618 0.75849 0.92189 0.0
C3239 C 0.5548 0.79482 0.92168 0.0
C3240 C 0.52288 0.7819 0.92125 0.0
H3241 H 0.36254 0.76388 0.9338 0.0
H3242 H 0.41515 0.78306 0.93203 0.0
H3243 H 0.48384 0.71379 0.92348 0.0
H3244 H 0.62872 0.78026 0.91478 0.0
H3245 H 0.57657 0.75838 0.91385 0.0
C3246 C 0.99507 0.6159 0.67769 0.0
C3247 C 0.02071 0.6067 0.67251 0.0
C3248 C 0.98409 0.64631 0.67725 0.0
C3249 C 0.00808 0.72577 0.67161 0.0
H3250 H 0.91995 0.74138 0.67065 0.0
C3251 C 0.9569 0.84975 0.6682 0.0
C3252 C 0.93015 0.85603 0.67328 0.0
C3253 C 0.96844 0.81948 0.6676 0.0
C3254 C 0.94464 0.73749 0.67102 0.0
H3255 H 0.05487 0.62235 0.66278 0.0
H3256 H 0.0357 0.67537 0.66204 0.0
H3257 H 0.93885 0.68832 0.67063 0.0
H3258 H 0.89497 0.83547 0.68185 0.0
H3259 H 0.9153 0.78333 0.68097 0.0
H3260 H 0.01386 0.77496 0.67217 0.0
C3261 C 0.02419 0.65907 0.66647 0.0
C3262 C 0.95545 0.70703 0.67099 0.0
C3263 C 0.03503 0.6286 0.66685 0.0
C3264 C 0.91547 0.83151 0.67781 0.0
C3265 C 0.92703 0.80144 0.67725 0.0
C3266 C 0.99725 0.7563 0.67169 0.0
C3267 C 0.99862 0.6683 0.67167 0.0
C3268 C 0.98727 0.70078 0.67137 0.0
C3269 C 0.95352 0.79491 0.67209 0.0
C3270 C 0.96535 0.76255 0.6715 0.0
H3271 H 0.98352 0.59965 0.68212 0.0
H3272 H 0.96453 0.65276 0.68141 0.0
H3273 H 0.03274 0.72171 0.67199 0.0
H3274 H 0.96874 0.86812 0.66462 0.0
H3275 H 0.98877 0.81528 0.66351 0.0
C3276 C 0.89406 0.20155 0.41988 0.0
C3277 C 0.87339 0.21811 0.42541 0.0
C3278 C 0.9245 0.21181 0.4187 0.0
C3279 C 0.97207 0.28214 0.41993 0.0
H3280 H 0.04169 0.22624 0.42235 0.0
C3281 C 0.09492 0.32812 0.42463 0.0
C3282 C 0.1198 0.31291 0.42044 0.0
C3283 C 0.06539 0.31528 0.42456 0.0
C3284 C 0.02251 0.24207 0.42151 0.0
H3285 H 0.86856 0.25843 0.43403 0.0
H3286 H 0.92144 0.27637 0.43192 0.0
H3287 H 0.98897 0.20611 0.42348 0.0
H3288 H 0.13306 0.27199 0.4129 0.0
H3289 H 0.081 0.24959 0.41265 0.0
H3290 H 0.00524 0.31808 0.41792 0.0
C3291 C 0.91411 0.25551 0.42847 0.0
C3292 C 0.99232 0.23054 0.42218 0.0
C3293 C 0.88384 0.2451 0.42973 0.0
C3294 C 0.11439 0.2843 0.41619 0.0
C3295 C 0.0846 0.27142 0.41609 0.0
C3296 C 0.00212 0.2936 0.41919 0.0
C3297 C 0.93477 0.23905 0.42293 0.0
C3298 C 0.9668 0.25059 0.42158 0.0
C3299 C 0.05969 0.28691 0.42023 0.0
C3300 C 0.02778 0.27387 0.42017 0.0
H3301 H 0.88675 0.18061 0.41646 0.0
H3302 H 0.93984 0.19873 0.41435 0.0
H3303 H 0.95288 0.29807 0.41924 0.0
H3304 H 0.09818 0.35006 0.42804 0.0
H3305 H 0.04702 0.32755 0.42801 0.0
C3306 C 0.53153 0.12903 0.16941 0.0
C3307 C 0.51765 0.10756 0.1753 0.0
C3308 C 0.52071 0.15948 0.1689 0.0
C3309 C 0.45202 0.20738 0.17323 0.0
H3310 H 0.50982 0.27595 0.17348 0.0
C3311 C 0.41033 0.33228 0.17816 0.0
C3312 C 0.4248 0.35624 0.17333 0.0
C3313 C 0.42242 0.30237 0.17811 0.0
C3314 C 0.49336 0.2571 0.17326 0.0
H3315 H 0.48127 0.10134 0.18522 0.0
H3316 H 0.46222 0.15442 0.18427 0.0
H3317 H 0.52918 0.22288 0.17391 0.0
H3318 H 0.46365 0.36751 0.16469 0.0
H3319 H 0.48458 0.31487 0.16443 0.0
H3320 H 0.4162 0.24129 0.17247 0.0
C3321 C 0.48149 0.14762 0.18004 0.0
C3322 C 0.50448 0.22667 0.17354 0.0
C3323 C 0.4925 0.11723 0.18061 0.0
C3324 C 0.45196 0.34957 0.16849 0.0
C3325 C 0.46401 0.31942 0.16838 0.0
C3326 C 0.44093 0.23772 0.17288 0.0
C3327 C 0.49554 0.16913 0.1742 0.0
C3328 C 0.4839 0.20148 0.17362 0.0
C3329 C 0.44923 0.29537 0.17315 0.0
C3330 C 0.4614 0.26304 0.17301 0.0
H3331 H 0.5509 0.12242 0.1652 0.0
H3332 H 0.53182 0.17539 0.16427 0.0
H3333 H 0.4356 0.18848 0.17311 0.0
H3334 H 0.38956 0.33657 0.18205 0.0
H3335 H 0.41079 0.28474 0.18204 0.0
C3336 C 0.62605 0.21168 0.57928 0.0
C3337 C 0.64796 0.22672 0.57379 0.0
C3338 C 0.59556 0.22242 0.57972 0.0
C3339 C 0.54801 0.29198 0.57583 0.0
H3340 H 0.4797 0.23427 0.57397 0.0
C3341 C 0.42449 0.33379 0.56879 0.0
C3342 C 0.39965 0.31911 0.57316 0.0
C3343 C 0.45436 0.32181 0.56939 0.0
C3344 C 0.49847 0.25067 0.57464 0.0
H3345 H 0.65499 0.26499 0.56453 0.0
H3346 H 0.60194 0.28373 0.56534 0.0
H3347 H 0.53274 0.21486 0.57413 0.0
H3348 H 0.38679 0.28005 0.58156 0.0
H3349 H 0.43926 0.25925 0.58271 0.0
H3350 H 0.514 0.32778 0.57637 0.0
C3351 C 0.60835 0.26372 0.56933 0.0
C3352 C 0.52888 0.23953 0.57471 0.0
C3353 C 0.63874 0.25286 0.56882 0.0
C3354 C 0.40541 0.29192 0.5781 0.0
C3355 C 0.43546 0.27993 0.57873 0.0
C3356 C 0.51769 0.30308 0.57581 0.0
C3357 C 0.58638 0.24859 0.57476 0.0
C3358 C 0.554 0.26012 0.57518 0.0
C3359 C 0.46035 0.29487 0.57442 0.0
C3360 C 0.49251 0.28263 0.57506 0.0
H3361 H 0.63235 0.19144 0.58318 0.0
H3362 H 0.57925 0.21041 0.58403 0.0
H3363 H 0.56682 0.3084 0.57638 0.0
H3364 H 0.42094 0.35464 0.56486 0.0
H3365 H 0.47275 0.33359 0.56581 0.0
C3366 C 0.49267 0.87881 0.3208 0.0
C3367 C 0.51974 0.88809 0.3253 0.0
C3368 C 0.48181 0.84845 0.32159 0.0
C3369 C 0.50695 0.769 0.32666 0.0
H3370 H 0.41936 0.75411 0.32995 0.0
C3371 C 0.45543 0.64513 0.3306 0.0
C3372 C 0.4272 0.63968 0.32616 0.0
C3373 C 0.46754 0.6752 0.33116 0.0
C3374 C 0.44387 0.75779 0.32894 0.0
H3375 H 0.55662 0.87264 0.33417 0.0
H3376 H 0.53768 0.81961 0.3355 0.0
H3377 H 0.43866 0.80699 0.3296 0.0
H3378 H 0.38995 0.66158 0.31869 0.0
H3379 H 0.41118 0.71329 0.31949 0.0
H3380 H 0.51207 0.71977 0.32579 0.0
C3381 C 0.52493 0.83584 0.33135 0.0
C3382 C 0.45492 0.78815 0.32875 0.0
C3383 C 0.53564 0.8663 0.33063 0.0
C3384 C 0.4116 0.66485 0.32224 0.0
C3385 C 0.42371 0.69469 0.32275 0.0
C3386 C 0.49586 0.73855 0.32678 0.0
C3387 C 0.49789 0.82657 0.32684 0.0
C3388 C 0.48652 0.79416 0.3275 0.0
C3389 C 0.4517 0.7004 0.32727 0.0
C3390 C 0.46408 0.73257 0.32779 0.0
H3391 H 0.47986 0.89497 0.31665 0.0
H3392 H 0.46107 0.84195 0.31796 0.0
H3393 H 0.53142 0.77288 0.32562 0.0
H3394 H 0.46801 0.62625 0.33371 0.0
H3395 H 0.48907 0.67876 0.33474 0.0
C3396 C 0.12506 0.71559 0.08131 0.0
C3397 C 0.14663 0.73587 0.07736 0.0
C3398 C 0.09403 0.72431 0.08226 0.0
C3399 C 0.04363 0.79342 0.08297 0.0
H3400 H 0.97826 0.73742 0.07563 0.0
C3401 C 0.92235 0.83725 0.07444 0.0
C3402 C 0.89648 0.82008 0.07723 0.0
C3403 C 0.95213 0.8254 0.07544 0.0
C3404 C 0.9962 0.75316 0.07785 0.0
H3405 H 0.15233 0.78147 0.07142 0.0
H3406 H 0.09859 0.79652 0.07308 0.0
H3407 H 0.03193 0.71954 0.07567 0.0
H3408 H 0.88168 0.77676 0.08323 0.0
H3409 H 0.93407 0.75595 0.08498 0.0
H3410 H 0.00819 0.82717 0.08502 0.0
C3411 C 0.10562 0.77394 0.0755 0.0
C3412 C 0.02695 0.74293 0.07787 0.0
C3413 C 0.13648 0.76519 0.0745 0.0
C3414 C 0.90114 0.79059 0.08102 0.0
C3415 C 0.93111 0.77862 0.08199 0.0
C3416 C 0.01301 0.8036 0.08296 0.0
C3417 C 0.08398 0.75364 0.07937 0.0
C3418 C 0.05107 0.7632 0.08023 0.0
C3419 C 0.95696 0.79602 0.07925 0.0
C3420 C 0.98899 0.78385 0.08019 0.0
H3421 H 0.13208 0.69299 0.08369 0.0
H3422 H 0.07797 0.70826 0.08535 0.0
H3423 H 0.06158 0.80941 0.08503 0.0
H3424 H 0.91971 0.85999 0.07147 0.0
H3425 H 0.97143 0.8392 0.07309 0.0
C3426 C 0.03542 0.36694 0.82863 0.0
C3427 C 0.02217 0.38766 0.8224 0.0
C3428 C 0.02488 0.33644 0.82928 0.0
C3429 C 0.95766 0.28693 0.82434 0.0
H3430 H 0.01665 0.21953 0.82578 0.0
C3431 C 0.91971 0.16069 0.81977 0.0
C3432 C 0.93336 0.13761 0.82515 0.0
C3433 C 0.93117 0.19084 0.81978 0.0
C3434 C 0.99985 0.23807 0.82552 0.0
H3435 H 0.98711 0.39248 0.81201 0.0
H3436 H 0.96859 0.33925 0.81317 0.0
H3437 H 0.0351 0.27289 0.82513 0.0
H3438 H 0.97011 0.12817 0.83472 0.0
H3439 H 0.98997 0.18126 0.83486 0.0
H3440 H 0.92239 0.25237 0.8248 0.0
C3441 C 0.98714 0.34671 0.81758 0.0
C3442 C 0.01043 0.26867 0.82512 0.0
C3443 C 0.99785 0.37718 0.81689 0.0
C3444 C 0.95908 0.14541 0.83049 0.0
C3445 C 0.97052 0.1758 0.83054 0.0
C3446 C 0.94708 0.25642 0.8248 0.0
C3447 C 0.00063 0.32594 0.82376 0.0
C3448 C 0.98945 0.29344 0.82444 0.0
C3449 C 0.95652 0.19897 0.82522 0.0
C3450 C 0.96802 0.23152 0.82527 0.0
H3451 H 0.05411 0.37418 0.83301 0.0
H3452 H 0.03551 0.32116 0.83418 0.0
H3453 H 0.94088 0.30549 0.824 0.0
H3454 H 0.90006 0.15553 0.81549 0.0
H3455 H 0.92022 0.20777 0.81543 0.0
loop_
_geom_bond_atom_site_label_1
_geom_bond_atom_site_label_2
_geom_bond_distance
_geom_bond_site_symmetry_2
_ccdc_geom_bond_type
Co0 N4 2.148 . S
Co0 N10 2.128 . S
Co0 N20 2.194 . S
Co0 O25 2.351 . S
Co0 O26 2.155 . S
Co0 O27 2.096 . S
C1 N4 1.301 . S
C1 N5 1.328 . S
C1 H6 0.930 . S
C2 C3 1.333 . S
C2 N4 1.317 . S
C2 H7 0.930 . S
C3 C2 1.333 . S
C3 N5 1.350 . S
C3 H29 0.931 . S
N4 Co0 2.148 . S
N4 C1 1.301 . S
N4 C2 1.317 . S
N5 C1 1.328 . S
N5 C3 1.350 . S
H6 C1 0.930 . S
H7 C2 0.930 . S
C8 O9 1.224 . S
C8 O27 1.247 . S
O9 C8 1.224 . S
N10 Co0 2.128 . S
N10 C11 1.355 . S
N10 C13 1.311 . S
C11 N10 1.355 . S
C11 C12 1.363 . S
C11 H23 0.929 . S
C12 C11 1.363 . S
C12 N14 1.375 . S
C12 H30 0.931 . S
C13 N10 1.311 . S
C13 N14 1.347 . S
C13 H24 0.929 . S
N14 C12 1.375 . S
N14 C13 1.347 . S
C15 C18 1.365 . S
C15 N20 1.328 . S
C15 H21 0.929 . S
C16 C17 1.362 . S
C16 C19 1.378 . S
C16 H31 0.929 . S
C17 C16 1.362 . S
C17 C18 1.366 . S
C18 C15 1.365 . S
C18 C17 1.366 . S
C18 H32 0.930 . S
C19 C16 1.378 . S
C19 N20 1.315 . S
C19 H22 0.930 . S
N20 Co0 2.194 . S
N20 C15 1.328 . S
N20 C19 1.315 . S
H21 C15 0.929 . S
H22 C19 0.930 . S
H23 C11 0.929 . S
H24 C13 0.929 . S
O25 Co0 2.351 . S
O25 C28 1.244 . S
O26 Co0 2.155 . S
O26 C28 1.240 . S
O27 Co0 2.096 . S
O27 C8 1.247 . S
C28 O25 1.244 . S
C28 O26 1.240 . S
H29 C3 0.931 . S
H30 C12 0.931 . S
H31 C16 0.929 . S
H32 C18 0.930 . S
Co33 N37 2.148 . S
Co33 N43 2.128 . S
Co33 N53 2.194 . S
Co33 O58 2.351 1_545 S
Co33 O59 2.155 . S
Co33 O60 2.096 . S
C34 N37 1.301 . S
C34 N38 1.328 . S
C34 H39 0.930 . S
C35 C36 1.333 . S
C35 N37 1.317 . S
C35 H40 0.930 . S
C36 C35 1.333 . S
C36 N38 1.350 . S
C36 H62 0.931 . S
N37 Co33 2.148 . S
N37 C34 1.301 . S
N37 C35 1.317 . S
N38 C34 1.328 . S
N38 C36 1.350 . S
H39 C34 0.930 . S
H40 C35 0.930 . S
C41 O42 1.224 . S
C41 O60 1.247 . S
O42 C41 1.224 . S
N43 Co33 2.128 . S
N43 C44 1.355 1_545 S
N43 C46 1.311 . S
C44 N43 1.355 1_565 S
C44 C45 1.363 1_455 S
C44 H56 0.929 . S
C45 C44 1.363 1_655 S
C45 N47 1.375 1_565 S
C45 H63 0.931 . S
C46 N43 1.311 . S
C46 N47 1.347 1_455 S
C46 H57 0.929 . S
N47 C45 1.375 1_545 S
N47 C46 1.347 1_655 S
C48 C51 1.365 . S
C48 N53 1.328 1_565 S
C48 H54 0.929 . S
C49 C50 1.362 1_545 S
C49 C52 1.378 . S
C49 H64 0.929 . S
C50 C49 1.362 1_565 S
C50 C51 1.366 . S
C51 C48 1.365 . S
C51 C50 1.366 . S
C51 H65 0.930 . S
C52 C49 1.378 . S
C52 N53 1.315 . S
C52 H55 0.930 . S
N53 Co33 2.194 . S
N53 C48 1.328 1_545 S
N53 C52 1.315 . S
H54 C48 0.929 . S
H55 C52 0.930 . S
H56 C44 0.929 . S
H57 C46 0.929 . S
O58 Co33 2.351 1_565 S
O58 C61 1.244 . S
O59 Co33 2.155 . S
O59 C61 1.240 1_545 S
O60 Co33 2.096 . S
O60 C41 1.247 . S
C61 O58 1.244 . S
C61 O59 1.240 1_565 S
H62 C36 0.931 . S
H63 C45 0.931 . S
H64 C49 0.929 . S
H65 C51 0.930 . S
Co66 N70 2.148 . S
Co66 N76 2.128 . S
Co66 N86 2.194 . S
Co66 O91 2.351 . S
Co66 O92 2.155 . S
Co66 O93 2.096 . S
C67 N70 1.301 . S
C67 N71 1.328 . S
C67 H72 0.930 . S
C68 C69 1.333 . S
C68 N70 1.317 . S
C68 H73 0.930 . S
C69 C68 1.333 . S
C69 N71 1.350 . S
C69 H95 0.931 . S
N70 Co66 2.148 . S
N70 C67 1.301 . S
N70 C68 1.317 . S
N71 C67 1.328 . S
N71 C69 1.350 . S
H72 C67 0.930 . S
H73 C68 0.930 . S
C74 O75 1.224 . S
C74 O93 1.247 . S
O75 C74 1.224 . S
N76 Co66 2.128 . S
N76 C77 1.355 . S
N76 C79 1.311 . S
C77 N76 1.355 . S
C77 C78 1.363 . S
C77 H89 0.929 . S
C78 C77 1.363 . S
C78 N80 1.375 . S
C78 H96 0.931 . S
C79 N76 1.311 . S
C79 N80 1.347 . S
C79 H90 0.929 . S
N80 C78 1.375 . S
N80 C79 1.347 . S
C81 C84 1.365 . S
C81 N86 1.328 . S
C81 H87 0.929 . S
C82 C83 1.362 . S
C82 C85 1.378 . S
C82 H97 0.929 . S
C83 C82 1.362 . S
C83 C84 1.366 . S
C84 C81 1.365 . S
C84 C83 1.366 . S
C84 H98 0.930 . S
C85 C82 1.378 . S
C85 N86 1.315 . S
C85 H88 0.930 . S
N86 Co66 2.194 . S
N86 C81 1.328 . S
N86 C85 1.315 . S
H87 C81 0.929 . S
H88 C85 0.930 . S
H89 C77 0.929 . S
H90 C79 0.929 . S
O91 Co66 2.351 . S
O91 C94 1.244 . S
O92 Co66 2.155 . S
O92 C94 1.240 . S
O93 Co66 2.096 . S
O93 C74 1.247 . S
C94 O91 1.244 . S
C94 O92 1.240 . S
H95 C69 0.931 . S
H96 C78 0.931 . S
H97 C82 0.929 . S
H98 C84 0.930 . S
Co99 N103 2.148 . S
Co99 N109 2.128 . S
Co99 N119 2.194 . S
Co99 O124 2.351 1_565 S
Co99 O125 2.155 . S
Co99 O126 2.096 . S
C100 N103 1.301 . S
C100 N104 1.328 . S
C100 H105 0.930 . S
C101 C102 1.333 . S
C101 N103 1.317 . S
C101 H106 0.930 . S
C102 C101 1.333 . S
C102 N104 1.350 . S
C102 H128 0.931 . S
N103 Co99 2.148 . S
N103 C100 1.301 . S
N103 C101 1.317 . S
N104 C100 1.328 . S
N104 C102 1.350 . S
H105 C100 0.930 . S
H106 C101 0.930 . S
C107 O108 1.224 . S
C107 O126 1.247 . S
O108 C107 1.224 . S
N109 Co99 2.128 . S
N109 C110 1.355 1_565 S
N109 C112 1.311 . S
C110 N109 1.355 1_545 S
C110 C111 1.363 . S
C110 H122 0.929 . S
C111 C110 1.363 . S
C111 N113 1.375 1_545 S
C111 H129 0.931 . S
C112 N109 1.311 . S
C112 N113 1.347 . S
C112 H123 0.929 . S
N113 C111 1.375 1_565 S
N113 C112 1.347 . S
C114 C117 1.365 . S
C114 N119 1.328 1_545 S
C114 H120 0.929 . S
C115 C116 1.362 1_565 S
C115 C118 1.378 . S
C115 H130 0.929 . S
C116 C115 1.362 1_545 S
C116 C117 1.366 . S
C117 C114 1.365 . S
C117 C116 1.366 . S
C117 H131 0.930 . S
C118 C115 1.378 . S
C118 N119 1.315 . S
C118 H121 0.930 . S
N119 Co99 2.194 . S
N119 C114 1.328 1_565 S
N119 C118 1.315 . S
H120 C114 0.929 . S
H121 C118 0.930 . S
H122 C110 0.929 . S
H123 C112 0.929 . S
O124 Co99 2.351 1_545 S
O124 C127 1.244 . S
O125 Co99 2.155 . S
O125 C127 1.240 1_565 S
O126 Co99 2.096 . S
O126 C107 1.247 . S
C127 O124 1.244 . S
C127 O125 1.240 1_545 S
H128 C102 0.931 . S
H129 C111 0.931 . S
H130 C115 0.929 . S
H131 C117 0.930 . S
Co132 N136 2.148 . S
Co132 N142 2.128 . S
Co132 N152 2.194 . S
Co132 O157 2.351 . S
Co132 O158 2.155 . S
Co132 O159 2.096 . S
C133 N136 1.301 . S
C133 N137 1.328 . S
C133 H138 0.930 . S
C134 C135 1.333 . S
C134 N136 1.317 . S
C134 H139 0.930 . S
C135 C134 1.333 . S
C135 N137 1.350 . S
C135 H161 0.931 . S
N136 Co132 2.148 . S
N136 C133 1.301 . S
N136 C134 1.317 . S
N137 C133 1.328 . S
N137 C135 1.350 . S
H138 C133 0.930 . S
H139 C134 0.930 . S
C140 O141 1.224 . S
C140 O159 1.247 . S
O141 C140 1.224 . S
N142 Co132 2.128 . S
N142 C143 1.355 . S
N142 C145 1.311 . S
C143 N142 1.355 . S
C143 C144 1.363 . S
C143 H155 0.929 . S
C144 C143 1.363 . S
C144 N146 1.375 . S
C144 H162 0.931 . S
C145 N142 1.311 . S
C145 N146 1.347 . S
C145 H156 0.929 . S
N146 C144 1.375 . S
N146 C145 1.347 . S
C147 C150 1.365 . S
C147 N152 1.328 . S
C147 H153 0.929 . S
C148 C149 1.362 . S
C148 C151 1.378 . S
C148 H163 0.929 . S
C149 C148 1.362 . S
C149 C150 1.366 . S
C150 C147 1.365 . S
C150 C149 1.366 . S
C150 H164 0.930 . S
C151 C148 1.378 . S
C151 N152 1.315 . S
C151 H154 0.930 . S
N152 Co132 2.194 . S
N152 C147 1.328 . S
N152 C151 1.315 . S
H153 C147 0.929 . S
H154 C151 0.930 . S
H155 C143 0.929 . S
H156 C145 0.929 . S
O157 Co132 2.351 . S
O157 C160 1.244 . S
O158 Co132 2.155 . S
O158 C160 1.240 . S
O159 Co132 2.096 . S
O159 C140 1.247 . S
C160 O157 1.244 . S
C160 O158 1.240 . S
H161 C135 0.931 . S
H162 C144 0.931 . S
H163 C148 0.929 . S
H164 C150 0.930 . S
Co165 N169 2.148 . S
Co165 N175 2.128 . S
Co165 N185 2.194 . S
Co165 O190 2.351 1_545 S
Co165 O191 2.155 . S
Co165 O192 2.096 . S
C166 N169 1.301 . S
C166 N170 1.328 . S
C166 H171 0.930 . S
C167 C168 1.333 . S
C167 N169 1.317 . S
C167 H172 0.930 . S
C168 C167 1.333 . S
C168 N170 1.350 . S
C168 H194 0.931 . S
N169 Co165 2.148 . S
N169 C166 1.301 . S
N169 C167 1.317 . S
N170 C166 1.328 . S
N170 C168 1.350 . S
H171 C166 0.930 . S
H172 C167 0.930 . S
C173 O174 1.224 . S
C173 O192 1.247 . S
O174 C173 1.224 . S
N175 Co165 2.128 . S
N175 C176 1.355 1_545 S
N175 C178 1.311 . S
C176 N175 1.355 1_565 S
C176 C177 1.363 . S
C176 H188 0.929 . S
C177 C176 1.363 . S
C177 N179 1.375 1_565 S
C177 H195 0.931 . S
C178 N175 1.311 . S
C178 N179 1.347 . S
C178 H189 0.929 . S
N179 C177 1.375 1_545 S
N179 C178 1.347 . S
C180 C183 1.365 . S
C180 N185 1.328 1_565 S
C180 H186 0.929 . S
C181 C182 1.362 1_545 S
C181 C184 1.378 . S
C181 H196 0.929 . S
C182 C181 1.362 1_565 S
C182 C183 1.366 . S
C183 C180 1.365 . S
C183 C182 1.366 . S
C183 H197 0.930 . S
C184 C181 1.378 . S
C184 N185 1.315 . S
C184 H187 0.930 . S
N185 Co165 2.194 . S
N185 C180 1.328 1_545 S
N185 C184 1.315 . S
H186 C180 0.929 . S
H187 C184 0.930 . S
H188 C176 0.929 . S
H189 C178 0.929 . S
O190 Co165 2.351 1_565 S
O190 C193 1.244 . S
O191 Co165 2.155 . S
O191 C193 1.240 1_545 S
O192 Co165 2.096 . S
O192 C173 1.247 . S
C193 O190 1.244 . S
C193 O191 1.240 1_565 S
H194 C168 0.931 . S
H195 C177 0.931 . S
H196 C181 0.929 . S
H197 C183 0.930 . S
Co198 N202 2.148 . S
Co198 N208 2.128 . S
Co198 N218 2.194 . S
Co198 O223 2.351 . S
Co198 O224 2.155 . S
Co198 O225 2.096 . S
C199 N202 1.301 . S
C199 N203 1.328 . S
C199 H204 0.930 . S
C200 C201 1.333 . S
C200 N202 1.317 . S
C200 H205 0.930 . S
C201 C200 1.333 . S
C201 N203 1.350 . S
C201 H227 0.931 . S
N202 Co198 2.148 . S
N202 C199 1.301 . S
N202 C200 1.317 . S
N203 C199 1.328 . S
N203 C201 1.350 . S
H204 C199 0.930 . S
H205 C200 0.930 . S
C206 O207 1.224 . S
C206 O225 1.247 . S
O207 C206 1.224 . S
N208 Co198 2.128 . S
N208 C209 1.355 . S
N208 C211 1.311 . S
C209 N208 1.355 . S
C209 C210 1.363 . S
C209 H221 0.929 . S
C210 C209 1.363 . S
C210 N212 1.375 . S
C210 H228 0.931 . S
C211 N208 1.311 . S
C211 N212 1.347 . S
C211 H222 0.929 . S
N212 C210 1.375 . S
N212 C211 1.347 . S
C213 C216 1.365 . S
C213 N218 1.328 . S
C213 H219 0.929 . S
C214 C215 1.362 . S
C214 C217 1.378 . S
C214 H229 0.929 . S
C215 C214 1.362 . S
C215 C216 1.366 . S
C216 C213 1.365 . S
C216 C215 1.366 . S
C216 H230 0.930 . S
C217 C214 1.378 . S
C217 N218 1.315 . S
C217 H220 0.930 . S
N218 Co198 2.194 . S
N218 C213 1.328 . S
N218 C217 1.315 . S
H219 C213 0.929 . S
H220 C217 0.930 . S
H221 C209 0.929 . S
H222 C211 0.929 . S
O223 Co198 2.351 . S
O223 C226 1.244 . S
O224 Co198 2.155 . S
O224 C226 1.240 . S
O225 Co198 2.096 . S
O225 C206 1.247 . S
C226 O223 1.244 . S
C226 O224 1.240 . S
H227 C201 0.931 . S
H228 C210 0.931 . S
H229 C214 0.929 . S
H230 C216 0.930 . S
Co231 N235 2.148 . S
Co231 N241 2.128 . S
Co231 N251 2.194 . S
Co231 O256 2.351 1_565 S
Co231 O257 2.155 . S
Co231 O258 2.096 . S
C232 N235 1.301 . S
C232 N236 1.328 . S
C232 H237 0.930 . S
C233 C234 1.333 . S
C233 N235 1.317 . S
C233 H238 0.930 . S
C234 C233 1.333 . S
C234 N236 1.350 . S
C234 H260 0.931 . S
N235 Co231 2.148 . S
N235 C232 1.301 . S
N235 C233 1.317 . S
N236 C232 1.328 . S
N236 C234 1.350 . S
H237 C232 0.930 . S
H238 C233 0.930 . S
C239 O240 1.224 . S
C239 O258 1.247 . S
O240 C239 1.224 . S
N241 Co231 2.128 . S
N241 C242 1.355 1_565 S
N241 C244 1.311 . S
C242 N241 1.355 1_545 S
C242 C243 1.363 1_455 S
C242 H254 0.929 . S
C243 C242 1.363 1_655 S
C243 N245 1.375 1_545 S
C243 H261 0.931 . S
C244 N241 1.311 . S
C244 N245 1.347 1_455 S
C244 H255 0.929 . S
N245 C243 1.375 1_565 S
N245 C244 1.347 1_655 S
C246 C249 1.365 . S
C246 N251 1.328 1_545 S
C246 H252 0.929 . S
C247 C248 1.362 1_565 S
C247 C250 1.378 . S
C247 H262 0.929 . S
C248 C247 1.362 1_545 S
C248 C249 1.366 . S
C249 C246 1.365 . S
C249 C248 1.366 . S
C249 H263 0.930 . S
C250 C247 1.378 . S
C250 N251 1.315 . S
C250 H253 0.930 . S
N251 Co231 2.194 . S
N251 C246 1.328 1_565 S
N251 C250 1.315 . S
H252 C246 0.929 . S
H253 C250 0.930 . S
H254 C242 0.929 . S
H255 C244 0.929 . S
O256 Co231 2.351 1_545 S
O256 C259 1.244 . S
O257 Co231 2.155 . S
O257 C259 1.240 1_565 S
O258 Co231 2.096 . S
O258 C239 1.247 . S
C259 O256 1.244 . S
C259 O257 1.240 1_545 S
H260 C234 0.931 . S
H261 C243 0.931 . S
H262 C247 0.929 . S
H263 C249 0.930 . S
Co264 N268 2.148 . S
Co264 N274 2.128 . S
Co264 N284 2.194 . S
Co264 O289 2.351 . S
Co264 O290 2.155 . S
Co264 O291 2.096 . S
C265 N268 1.301 . S
C265 N269 1.328 . S
C265 H270 0.930 . S
C266 C267 1.333 . S
C266 N268 1.317 . S
C266 H271 0.930 . S
C267 C266 1.333 . S
C267 N269 1.350 . S
C267 H293 0.931 . S
N268 Co264 2.148 . S
N268 C265 1.301 . S
N268 C266 1.317 . S
N269 C265 1.328 . S
N269 C267 1.350 . S
H270 C265 0.930 . S
H271 C266 0.930 . S
C272 O273 1.224 . S
C272 O291 1.247 . S
O273 C272 1.224 . S
N274 Co264 2.128 . S
N274 C275 1.355 . S
N274 C277 1.311 . S
C275 N274 1.355 . S
C275 C276 1.363 . S
C275 H287 0.929 . S
C276 C275 1.363 . S
C276 N278 1.375 . S
C276 H294 0.931 . S
C277 N274 1.311 . S
C277 N278 1.347 . S
C277 H288 0.929 . S
N278 C276 1.375 . S
N278 C277 1.347 . S
C279 C282 1.365 . S
C279 N284 1.328 . S
C279 H285 0.929 . S
C280 C281 1.362 . S
C280 C283 1.378 . S
C280 H295 0.929 . S
C281 C280 1.362 . S
C281 C282 1.366 . S
C282 C279 1.365 . S
C282 C281 1.366 . S
C282 H296 0.930 . S
C283 C280 1.378 . S
C283 N284 1.315 . S
C283 H286 0.930 . S
N284 Co264 2.194 . S
N284 C279 1.328 . S
N284 C283 1.315 . S
H285 C279 0.929 . S
H286 C283 0.930 . S
H287 C275 0.929 . S
H288 C277 0.929 . S
O289 Co264 2.351 . S
O289 C292 1.244 . S
O290 Co264 2.155 . S
O290 C292 1.240 . S
O291 Co264 2.096 . S
O291 C272 1.247 . S
C292 O289 1.244 . S
C292 O290 1.240 . S
H293 C267 0.931 . S
H294 C276 0.931 . S
H295 C280 0.929 . S
H296 C282 0.930 . S
Co297 N301 2.148 . S
Co297 N307 2.128 . S
Co297 N317 2.194 . S
Co297 O322 2.351 1_565 S
Co297 O323 2.155 . S
Co297 O324 2.096 . S
C298 N301 1.301 . S
C298 N302 1.328 . S
C298 H303 0.930 . S
C299 C300 1.333 . S
C299 N301 1.317 . S
C299 H304 0.930 . S
C300 C299 1.333 . S
C300 N302 1.350 . S
C300 H326 0.931 . S
N301 Co297 2.148 . S
N301 C298 1.301 . S
N301 C299 1.317 . S
N302 C298 1.328 . S
N302 C300 1.350 . S
H303 C298 0.930 . S
H304 C299 0.930 . S
C305 O306 1.224 . S
C305 O324 1.247 . S
O306 C305 1.224 . S
N307 Co297 2.128 . S
N307 C308 1.355 1_565 S
N307 C310 1.311 . S
C308 N307 1.355 1_545 S
C308 C309 1.363 1_655 S
C308 H320 0.929 . S
C309 C308 1.363 1_455 S
C309 N311 1.375 1_545 S
C309 H327 0.931 . S
C310 N307 1.311 . S
C310 N311 1.347 1_655 S
C310 H321 0.929 . S
N311 C309 1.375 1_565 S
N311 C310 1.347 1_455 S
C312 C315 1.365 . S
C312 N317 1.328 1_545 S
C312 H318 0.929 . S
C313 C314 1.362 1_565 S
C313 C316 1.378 . S
C313 H328 0.929 . S
C314 C313 1.362 1_545 S
C314 C315 1.366 . S
C315 C312 1.365 . S
C315 C314 1.366 . S
C315 H329 0.930 . S
C316 C313 1.378 . S
C316 N317 1.315 . S
C316 H319 0.930 . S
N317 Co297 2.194 . S
N317 C312 1.328 1_565 S
N317 C316 1.315 . S
H318 C312 0.929 . S
H319 C316 0.930 . S
H320 C308 0.929 . S
H321 C310 0.929 . S
O322 Co297 2.351 1_545 S
O322 C325 1.244 . S
O323 Co297 2.155 . S
O323 C325 1.240 1_565 S
O324 Co297 2.096 . S
O324 C305 1.247 . S
C325 O322 1.244 . S
C325 O323 1.240 1_545 S
H326 C300 0.931 . S
H327 C309 0.931 . S
H328 C313 0.929 . S
H329 C315 0.930 . S
Co330 N334 2.148 . S
Co330 N340 2.128 . S
Co330 N350 2.194 . S
Co330 O355 2.351 . S
Co330 O356 2.155 . S
Co330 O357 2.096 . S
C331 N334 1.301 . S
C331 N335 1.328 . S
C331 H336 0.930 . S
C332 C333 1.333 . S
C332 N334 1.317 . S
C332 H337 0.930 . S
C333 C332 1.333 . S
C333 N335 1.350 . S
C333 H359 0.931 . S
N334 Co330 2.148 . S
N334 C331 1.301 . S
N334 C332 1.317 . S
N335 C331 1.328 . S
N335 C333 1.350 . S
H336 C331 0.930 . S
H337 C332 0.930 . S
C338 O339 1.224 . S
C338 O357 1.247 . S
O339 C338 1.224 . S
N340 Co330 2.128 . S
N340 C341 1.355 . S
N340 C343 1.311 . S
C341 N340 1.355 . S
C341 C342 1.363 . S
C341 H353 0.929 . S
C342 C341 1.363 . S
C342 N344 1.375 . S
C342 H360 0.931 . S
C343 N340 1.311 . S
C343 N344 1.347 . S
C343 H354 0.929 . S
N344 C342 1.375 . S
N344 C343 1.347 . S
C345 C348 1.365 . S
C345 N350 1.328 . S
C345 H351 0.929 . S
C346 C347 1.362 . S
C346 C349 1.378 . S
C346 H361 0.929 . S
C347 C346 1.362 . S
C347 C348 1.366 . S
C348 C345 1.365 . S
C348 C347 1.366 . S
C348 H362 0.930 . S
C349 C346 1.378 . S
C349 N350 1.315 . S
C349 H352 0.930 . S
N350 Co330 2.194 . S
N350 C345 1.328 . S
N350 C349 1.315 . S
H351 C345 0.929 . S
H352 C349 0.930 . S
H353 C341 0.929 . S
H354 C343 0.929 . S
O355 Co330 2.351 . S
O355 C358 1.244 . S
O356 Co330 2.155 . S
O356 C358 1.240 . S
O357 Co330 2.096 . S
O357 C338 1.247 . S
C358 O355 1.244 . S
C358 O356 1.240 . S
H359 C333 0.931 . S
H360 C342 0.931 . S
H361 C346 0.929 . S
H362 C348 0.930 . S
Co363 N367 2.148 . S
Co363 N373 2.128 . S
Co363 N383 2.194 . S
Co363 O388 2.351 1_545 S
Co363 O389 2.155 . S
Co363 O390 2.096 . S
C364 N367 1.301 . S
C364 N368 1.328 . S
C364 H369 0.930 . S
C365 C366 1.333 . S
C365 N367 1.317 . S
C365 H370 0.930 . S
C366 C365 1.333 . S
C366 N368 1.350 . S
C366 H392 0.931 . S
N367 Co363 2.148 . S
N367 C364 1.301 . S
N367 C365 1.317 . S
N368 C364 1.328 . S
N368 C366 1.350 . S
H369 C364 0.930 . S
H370 C365 0.930 . S
C371 O372 1.224 . S
C371 O390 1.247 . S
O372 C371 1.224 . S
N373 Co363 2.128 . S
N373 C374 1.355 1_545 S
N373 C376 1.311 . S
C374 N373 1.355 1_565 S
C374 C375 1.363 . S
C374 H386 0.929 . S
C375 C374 1.363 . S
C375 N377 1.375 1_565 S
C375 H393 0.931 . S
C376 N373 1.311 . S
C376 N377 1.347 . S
C376 H387 0.929 . S
N377 C375 1.375 1_545 S
N377 C376 1.347 . S
C378 C381 1.365 . S
C378 N383 1.328 1_565 S
C378 H384 0.929 . S
C379 C380 1.362 1_545 S
C379 C382 1.378 . S
C379 H394 0.929 . S
C380 C379 1.362 1_565 S
C380 C381 1.366 . S
C381 C378 1.365 . S
C381 C380 1.366 . S
C381 H395 0.930 . S
C382 C379 1.378 . S
C382 N383 1.315 . S
C382 H385 0.930 . S
N383 Co363 2.194 . S
N383 C378 1.328 1_545 S
N383 C382 1.315 . S
H384 C378 0.929 . S
H385 C382 0.930 . S
H386 C374 0.929 . S
H387 C376 0.929 . S
O388 Co363 2.351 1_565 S
O388 C391 1.244 . S
O389 Co363 2.155 . S
O389 C391 1.240 1_545 S
O390 Co363 2.096 . S
O390 C371 1.247 . S
C391 O388 1.244 . S
C391 O389 1.240 1_565 S
H392 C366 0.931 . S
H393 C375 0.931 . S
H394 C379 0.929 . S
H395 C381 0.930 . S
Co396 N400 2.148 . S
Co396 N406 2.128 . S
Co396 N416 2.194 . S
Co396 O421 2.351 . S
Co396 O422 2.155 . S
Co396 O423 2.096 . S
C397 N400 1.301 . S
C397 N401 1.328 . S
C397 H402 0.930 . S
C398 C399 1.333 . S
C398 N400 1.317 . S
C398 H403 0.930 . S
C399 C398 1.333 . S
C399 N401 1.350 . S
C399 H425 0.931 . S
N400 Co396 2.148 . S
N400 C397 1.301 . S
N400 C398 1.317 . S
N401 C397 1.328 . S
N401 C399 1.350 . S
H402 C397 0.930 . S
H403 C398 0.930 . S
C404 O405 1.224 . S
C404 O423 1.247 . S
O405 C404 1.224 . S
N406 Co396 2.128 . S
N406 C407 1.355 . S
N406 C409 1.311 . S
C407 N406 1.355 . S
C407 C408 1.363 . S
C407 H419 0.929 . S
C408 C407 1.363 . S
C408 N410 1.375 . S
C408 H426 0.931 . S
C409 N406 1.311 . S
C409 N410 1.347 . S
C409 H420 0.929 . S
N410 C408 1.375 . S
N410 C409 1.347 . S
C411 C414 1.365 . S
C411 N416 1.328 . S
C411 H417 0.929 . S
C412 C413 1.362 . S
C412 C415 1.378 . S
C412 H427 0.929 . S
C413 C412 1.362 . S
C413 C414 1.366 . S
C414 C411 1.365 . S
C414 C413 1.366 . S
C414 H428 0.930 . S
C415 C412 1.378 . S
C415 N416 1.315 . S
C415 H418 0.930 . S
N416 Co396 2.194 . S
N416 C411 1.328 . S
N416 C415 1.315 . S
H417 C411 0.929 . S
H418 C415 0.930 . S
H419 C407 0.929 . S
H420 C409 0.929 . S
O421 Co396 2.351 . S
O421 C424 1.244 . S
O422 Co396 2.155 . S
O422 C424 1.240 . S
O423 Co396 2.096 . S
O423 C404 1.247 . S
C424 O421 1.244 . S
C424 O422 1.240 . S
H425 C399 0.931 . S
H426 C408 0.931 . S
H427 C412 0.929 . S
H428 C414 0.930 . S
Co429 N433 2.148 . S
Co429 N439 2.128 . S
Co429 N449 2.194 . S
Co429 O454 2.351 1_565 S
Co429 O455 2.155 . S
Co429 O456 2.096 . S
C430 N433 1.301 . S
C430 N434 1.328 . S
C430 H435 0.930 . S
C431 C432 1.333 . S
C431 N433 1.317 . S
C431 H436 0.930 . S
C432 C431 1.333 . S
C432 N434 1.350 . S
C432 H458 0.931 . S
N433 Co429 2.148 . S
N433 C430 1.301 . S
N433 C431 1.317 . S
N434 C430 1.328 . S
N434 C432 1.350 . S
H435 C430 0.930 . S
H436 C431 0.930 . S
C437 O438 1.224 . S
C437 O456 1.247 . S
O438 C437 1.224 . S
N439 Co429 2.128 . S
N439 C440 1.355 1_565 S
N439 C442 1.311 . S
C440 N439 1.355 1_545 S
C440 C441 1.363 . S
C440 H452 0.929 . S
C441 C440 1.363 . S
C441 N443 1.375 1_545 S
C441 H459 0.931 . S
C442 N439 1.311 . S
C442 N443 1.347 . S
C442 H453 0.929 . S
N443 C441 1.375 1_565 S
N443 C442 1.347 . S
C444 C447 1.365 . S
C444 N449 1.328 1_545 S
C444 H450 0.929 . S
C445 C446 1.362 1_565 S
C445 C448 1.378 . S
C445 H460 0.929 . S
C446 C445 1.362 1_545 S
C446 C447 1.366 . S
C447 C444 1.365 . S
C447 C446 1.366 . S
C447 H461 0.930 . S
C448 C445 1.378 . S
C448 N449 1.315 . S
C448 H451 0.930 . S
N449 Co429 2.194 . S
N449 C444 1.328 1_565 S
N449 C448 1.315 . S
H450 C444 0.929 . S
H451 C448 0.930 . S
H452 C440 0.929 . S
H453 C442 0.929 . S
O454 Co429 2.351 1_545 S
O454 C457 1.244 . S
O455 Co429 2.155 . S
O455 C457 1.240 1_565 S
O456 Co429 2.096 . S
O456 C437 1.247 . S
C457 O454 1.244 . S
C457 O455 1.240 1_545 S
H458 C432 0.931 . S
H459 C441 0.931 . S
H460 C445 0.929 . S
H461 C447 0.930 . S
Co462 N466 2.148 . S
Co462 N472 2.128 . S
Co462 N482 2.194 . S
Co462 O487 2.351 . S
Co462 O488 2.155 . S
Co462 O489 2.096 . S
C463 N466 1.301 . S
C463 N467 1.328 . S
C463 H468 0.930 . S
C464 C465 1.333 . S
C464 N466 1.317 . S
C464 H469 0.930 . S
C465 C464 1.333 . S
C465 N467 1.350 . S
C465 H491 0.931 . S
N466 Co462 2.148 . S
N466 C463 1.301 . S
N466 C464 1.317 . S
N467 C463 1.328 . S
N467 C465 1.350 . S
H468 C463 0.930 . S
H469 C464 0.930 . S
C470 O471 1.224 . S
C470 O489 1.247 . S
O471 C470 1.224 . S
N472 Co462 2.128 . S
N472 C473 1.355 . S
N472 C475 1.311 . S
C473 N472 1.355 . S
C473 C474 1.363 . S
C473 H485 0.929 . S
C474 C473 1.363 . S
C474 N476 1.375 . S
C474 H492 0.931 . S
C475 N472 1.311 . S
C475 N476 1.347 . S
C475 H486 0.929 . S
N476 C474 1.375 . S
N476 C475 1.347 . S
C477 C480 1.365 . S
C477 N482 1.328 . S
C477 H483 0.929 . S
C478 C479 1.362 . S
C478 C481 1.378 . S
C478 H493 0.929 . S
C479 C478 1.362 . S
C479 C480 1.366 . S
C480 C477 1.365 . S
C480 C479 1.366 . S
C480 H494 0.930 . S
C481 C478 1.378 . S
C481 N482 1.315 . S
C481 H484 0.930 . S
N482 Co462 2.194 . S
N482 C477 1.328 . S
N482 C481 1.315 . S
H483 C477 0.929 . S
H484 C481 0.930 . S
H485 C473 0.929 . S
H486 C475 0.929 . S
O487 Co462 2.351 . S
O487 C490 1.244 . S
O488 Co462 2.155 . S
O488 C490 1.240 . S
O489 Co462 2.096 . S
O489 C470 1.247 . S
C490 O487 1.244 . S
C490 O488 1.240 . S
H491 C465 0.931 . S
H492 C474 0.931 . S
H493 C478 0.929 . S
H494 C480 0.930 . S
Co495 N499 2.148 . S
Co495 N505 2.128 . S
Co495 N515 2.194 . S
Co495 O520 2.351 1_545 S
Co495 O521 2.155 . S
Co495 O522 2.096 . S
C496 N499 1.301 . S
C496 N500 1.328 . S
C496 H501 0.930 . S
C497 C498 1.333 . S
C497 N499 1.317 . S
C497 H502 0.930 . S
C498 C497 1.333 . S
C498 N500 1.350 . S
C498 H524 0.931 . S
N499 Co495 2.148 . S
N499 C496 1.301 . S
N499 C497 1.317 . S
N500 C496 1.328 . S
N500 C498 1.350 . S
H501 C496 0.930 . S
H502 C497 0.930 . S
C503 O504 1.224 . S
C503 O522 1.247 . S
O504 C503 1.224 . S
N505 Co495 2.128 . S
N505 C506 1.355 1_545 S
N505 C508 1.311 . S
C506 N505 1.355 1_565 S
C506 C507 1.363 1_655 S
C506 H518 0.929 . S
C507 C506 1.363 1_455 S
C507 N509 1.375 1_565 S
C507 H525 0.931 . S
C508 N505 1.311 . S
C508 N509 1.347 1_655 S
C508 H519 0.929 . S
N509 C507 1.375 1_545 S
N509 C508 1.347 1_455 S
C510 C513 1.365 . S
C510 N515 1.328 1_565 S
C510 H516 0.929 . S
C511 C512 1.362 1_545 S
C511 C514 1.378 . S
C511 H526 0.929 . S
C512 C511 1.362 1_565 S
C512 C513 1.366 . S
C513 C510 1.365 . S
C513 C512 1.366 . S
C513 H527 0.930 . S
C514 C511 1.378 . S
C514 N515 1.315 . S
C514 H517 0.930 . S
N515 Co495 2.194 . S
N515 C510 1.328 1_545 S
N515 C514 1.315 . S
H516 C510 0.929 . S
H517 C514 0.930 . S
H518 C506 0.929 . S
H519 C508 0.929 . S
O520 Co495 2.351 1_565 S
O520 C523 1.244 . S
O521 Co495 2.155 . S
O521 C523 1.240 1_545 S
O522 Co495 2.096 . S
O522 C503 1.247 . S
C523 O520 1.244 . S
C523 O521 1.240 1_565 S
H524 C498 0.931 . S
H525 C507 0.931 . S
H526 C511 0.929 . S
H527 C513 0.930 . S
Co528 N532 2.148 . S
Co528 N538 2.128 . S
Co528 N548 2.194 . S
Co528 O553 2.351 . S
Co528 O554 2.155 . S
Co528 O555 2.096 . S
C529 N532 1.301 . S
C529 N533 1.328 . S
C529 H534 0.930 . S
C530 C531 1.333 . S
C530 N532 1.317 . S
C530 H535 0.930 . S
C531 C530 1.333 . S
C531 N533 1.350 . S
C531 H557 0.931 . S
N532 Co528 2.148 . S
N532 C529 1.301 . S
N532 C530 1.317 . S
N533 C529 1.328 . S
N533 C531 1.350 . S
H534 C529 0.930 . S
H535 C530 0.930 . S
C536 O537 1.224 . S
C536 O555 1.247 . S
O537 C536 1.224 . S
N538 Co528 2.128 . S
N538 C539 1.355 . S
N538 C541 1.311 . S
C539 N538 1.355 . S
C539 C540 1.363 . S
C539 H551 0.929 . S
C540 C539 1.363 . S
C540 N542 1.375 . S
C540 H558 0.931 . S
C541 N538 1.311 . S
C541 N542 1.347 . S
C541 H552 0.929 . S
N542 C540 1.375 . S
N542 C541 1.347 . S
C543 C546 1.365 . S
C543 N548 1.328 . S
C543 H549 0.929 . S
C544 C545 1.362 . S
C544 C547 1.378 . S
C544 H559 0.929 . S
C545 C544 1.362 . S
C545 C546 1.366 . S
C546 C543 1.365 . S
C546 C545 1.366 . S
C546 H560 0.930 . S
C547 C544 1.378 . S
C547 N548 1.315 . S
C547 H550 0.930 . S
N548 Co528 2.194 . S
N548 C543 1.328 . S
N548 C547 1.315 . S
H549 C543 0.929 . S
H550 C547 0.930 . S
H551 C539 0.929 . S
H552 C541 0.929 . S
O553 Co528 2.351 . S
O553 C556 1.244 . S
O554 Co528 2.155 . S
O554 C556 1.240 . S
O555 Co528 2.096 . S
O555 C536 1.247 . S
C556 O553 1.244 . S
C556 O554 1.240 . S
H557 C531 0.931 . S
H558 C540 0.931 . S
H559 C544 0.929 . S
H560 C546 0.930 . S
Co561 N565 2.148 . S
Co561 N571 2.128 . S
Co561 N581 2.194 . S
Co561 O586 2.351 . S
Co561 O587 2.155 . S
Co561 O588 2.096 . S
C562 N565 1.301 . S
C562 N566 1.328 . S
C562 H567 0.930 . S
C563 C564 1.333 . S
C563 N565 1.317 . S
C563 H568 0.930 . S
C564 C563 1.333 . S
C564 N566 1.350 . S
C564 H590 0.931 . S
N565 Co561 2.148 . S
N565 C562 1.301 . S
N565 C563 1.317 . S
N566 C562 1.328 . S
N566 C564 1.350 . S
H567 C562 0.930 . S
H568 C563 0.930 . S
C569 O570 1.224 . S
C569 O588 1.247 . S
O570 C569 1.224 . S
N571 Co561 2.128 . S
N571 C572 1.355 . S
N571 C574 1.311 . S
C572 N571 1.355 . S
C572 C573 1.363 . S
C572 H584 0.929 . S
C573 C572 1.363 . S
C573 N575 1.375 . S
C573 H591 0.931 . S
C574 N571 1.311 . S
C574 N575 1.347 . S
C574 H585 0.929 . S
N575 C573 1.375 . S
N575 C574 1.347 . S
C576 C579 1.365 . S
C576 N581 1.328 . S
C576 H582 0.929 . S
C577 C578 1.362 . S
C577 C580 1.378 . S
C577 H592 0.929 . S
C578 C577 1.362 . S
C578 C579 1.366 . S
C579 C576 1.365 . S
C579 C578 1.366 . S
C579 H593 0.930 . S
C580 C577 1.378 . S
C580 N581 1.315 . S
C580 H583 0.930 . S
N581 Co561 2.194 . S
N581 C576 1.328 . S
N581 C580 1.315 . S
H582 C576 0.929 . S
H583 C580 0.930 . S
H584 C572 0.929 . S
H585 C574 0.929 . S
O586 Co561 2.351 . S
O586 C589 1.244 . S
O587 Co561 2.155 . S
O587 C589 1.240 . S
O588 Co561 2.096 . S
O588 C569 1.247 . S
C589 O586 1.244 . S
C589 O587 1.240 . S
H590 C564 0.931 . S
H591 C573 0.931 . S
H592 C577 0.929 . S
H593 C579 0.930 . S
Co594 N598 2.148 . S
Co594 N604 2.128 . S
Co594 N614 2.194 . S
Co594 O619 2.351 . S
Co594 O620 2.155 . S
Co594 O621 2.096 . S
C595 N598 1.301 . S
C595 N599 1.328 . S
C595 H600 0.930 . S
C596 C597 1.333 . S
C596 N598 1.317 . S
C596 H601 0.930 . S
C597 C596 1.333 . S
C597 N599 1.350 . S
C597 H623 0.931 . S
N598 Co594 2.148 . S
N598 C595 1.301 . S
N598 C596 1.317 . S
N599 C595 1.328 . S
N599 C597 1.350 . S
H600 C595 0.930 . S
H601 C596 0.930 . S
C602 O603 1.224 . S
C602 O621 1.247 . S
O603 C602 1.224 . S
N604 Co594 2.128 . S
N604 C605 1.355 . S
N604 C607 1.311 . S
C605 N604 1.355 . S
C605 C606 1.363 . S
C605 H617 0.929 . S
C606 C605 1.363 . S
C606 N608 1.375 . S
C606 H624 0.931 . S
C607 N604 1.311 . S
C607 N608 1.347 . S
C607 H618 0.929 . S
N608 C606 1.375 . S
N608 C607 1.347 . S
C609 C612 1.365 . S
C609 N614 1.328 . S
C609 H615 0.929 . S
C610 C611 1.362 . S
C610 C613 1.378 . S
C610 H625 0.929 . S
C611 C610 1.362 . S
C611 C612 1.366 . S
C612 C609 1.365 . S
C612 C611 1.366 . S
C612 H626 0.930 . S
C613 C610 1.378 . S
C613 N614 1.315 . S
C613 H616 0.930 . S
N614 Co594 2.194 . S
N614 C609 1.328 . S
N614 C613 1.315 . S
H615 C609 0.929 . S
H616 C613 0.930 . S
H617 C605 0.929 . S
H618 C607 0.929 . S
O619 Co594 2.351 . S
O619 C622 1.244 . S
O620 Co594 2.155 . S
O620 C622 1.240 . S
O621 Co594 2.096 . S
O621 C602 1.247 . S
C622 O619 1.244 . S
C622 O620 1.240 . S
H623 C597 0.931 . S
H624 C606 0.931 . S
H625 C610 0.929 . S
H626 C612 0.930 . S
Co627 N631 2.148 . S
Co627 N637 2.128 . S
Co627 N647 2.194 . S
Co627 O652 2.351 . S
Co627 O653 2.155 . S
Co627 O654 2.096 . S
C628 N631 1.301 . S
C628 N632 1.328 . S
C628 H633 0.930 . S
C629 C630 1.333 . S
C629 N631 1.317 . S
C629 H634 0.930 . S
C630 C629 1.333 . S
C630 N632 1.350 . S
C630 H656 0.931 . S
N631 Co627 2.148 . S
N631 C628 1.301 . S
N631 C629 1.317 . S
N632 C628 1.328 . S
N632 C630 1.350 . S
H633 C628 0.930 . S
H634 C629 0.930 . S
C635 O636 1.224 . S
C635 O654 1.247 . S
O636 C635 1.224 . S
N637 Co627 2.128 . S
N637 C638 1.355 . S
N637 C640 1.311 . S
C638 N637 1.355 . S
C638 C639 1.363 1_655 S
C638 H650 0.929 . S
C639 C638 1.363 1_455 S
C639 N641 1.375 . S
C639 H657 0.931 . S
C640 N637 1.311 . S
C640 N641 1.347 1_655 S
C640 H651 0.929 . S
N641 C639 1.375 . S
N641 C640 1.347 1_455 S
C642 C645 1.365 . S
C642 N647 1.328 . S
C642 H648 0.929 . S
C643 C644 1.362 . S
C643 C646 1.378 . S
C643 H658 0.929 . S
C644 C643 1.362 . S
C644 C645 1.366 . S
C645 C642 1.365 . S
C645 C644 1.366 . S
C645 H659 0.930 . S
C646 C643 1.378 . S
C646 N647 1.315 . S
C646 H649 0.930 . S
N647 Co627 2.194 . S
N647 C642 1.328 . S
N647 C646 1.315 . S
H648 C642 0.929 . S
H649 C646 0.930 . S
H650 C638 0.929 . S
H651 C640 0.929 . S
O652 Co627 2.351 . S
O652 C655 1.244 . S
O653 Co627 2.155 . S
O653 C655 1.240 . S
O654 Co627 2.096 . S
O654 C635 1.247 . S
C655 O652 1.244 . S
C655 O653 1.240 . S
H656 C630 0.931 . S
H657 C639 0.931 . S
H658 C643 0.929 . S
H659 C645 0.930 . S
Co660 N664 2.148 . S
Co660 N670 2.128 . S
Co660 N680 2.194 . S
Co660 O685 2.351 . S
Co660 O686 2.155 . S
Co660 O687 2.096 . S
C661 N664 1.301 . S
C661 N665 1.328 . S
C661 H666 0.930 . S
C662 C663 1.333 . S
C662 N664 1.317 . S
C662 H667 0.930 . S
C663 C662 1.333 . S
C663 N665 1.350 . S
C663 H689 0.931 . S
N664 Co660 2.148 . S
N664 C661 1.301 . S
N664 C662 1.317 . S
N665 C661 1.328 . S
N665 C663 1.350 . S
H666 C661 0.930 . S
H667 C662 0.930 . S
C668 O669 1.224 . S
C668 O687 1.247 . S
O669 C668 1.224 . S
N670 Co660 2.128 . S
N670 C671 1.355 . S
N670 C673 1.311 . S
C671 N670 1.355 . S
C671 C672 1.363 . S
C671 H683 0.929 . S
C672 C671 1.363 . S
C672 N674 1.375 . S
C672 H690 0.931 . S
C673 N670 1.311 . S
C673 N674 1.347 . S
C673 H684 0.929 . S
N674 C672 1.375 . S
N674 C673 1.347 . S
C675 C678 1.365 . S
C675 N680 1.328 . S
C675 H681 0.929 . S
C676 C677 1.362 . S
C676 C679 1.378 . S
C676 H691 0.929 . S
C677 C676 1.362 . S
C677 C678 1.366 . S
C678 C675 1.365 . S
C678 C677 1.366 . S
C678 H692 0.930 . S
C679 C676 1.378 . S
C679 N680 1.315 . S
C679 H682 0.930 . S
N680 Co660 2.194 . S
N680 C675 1.328 . S
N680 C679 1.315 . S
H681 C675 0.929 . S
H682 C679 0.930 . S
H683 C671 0.929 . S
H684 C673 0.929 . S
O685 Co660 2.351 . S
O685 C688 1.244 . S
O686 Co660 2.155 . S
O686 C688 1.240 . S
O687 Co660 2.096 . S
O687 C668 1.247 . S
C688 O685 1.244 . S
C688 O686 1.240 . S
H689 C663 0.931 . S
H690 C672 0.931 . S
H691 C676 0.929 . S
H692 C678 0.930 . S
Co693 N697 2.148 . S
Co693 N703 2.128 . S
Co693 N713 2.194 . S
Co693 O718 2.351 . S
Co693 O719 2.155 . S
Co693 O720 2.096 . S
C694 N697 1.301 . S
C694 N698 1.328 . S
C694 H699 0.930 . S
C695 C696 1.333 . S
C695 N697 1.317 . S
C695 H700 0.930 . S
C696 C695 1.333 . S
C696 N698 1.350 . S
C696 H722 0.931 . S
N697 Co693 2.148 . S
N697 C694 1.301 . S
N697 C695 1.317 . S
N698 C694 1.328 . S
N698 C696 1.350 . S
H699 C694 0.930 . S
H700 C695 0.930 . S
C701 O702 1.224 . S
C701 O720 1.247 . S
O702 C701 1.224 . S
N703 Co693 2.128 . S
N703 C704 1.355 . S
N703 C706 1.311 . S
C704 N703 1.355 . S
C704 C705 1.363 1_655 S
C704 H716 0.929 . S
C705 C704 1.363 1_455 S
C705 N707 1.375 . S
C705 H723 0.931 . S
C706 N703 1.311 . S
C706 N707 1.347 1_655 S
C706 H717 0.929 . S
N707 C705 1.375 . S
N707 C706 1.347 1_455 S
C708 C711 1.365 . S
C708 N713 1.328 . S
C708 H714 0.929 . S
C709 C710 1.362 . S
C709 C712 1.378 . S
C709 H724 0.929 . S
C710 C709 1.362 . S
C710 C711 1.366 . S
C711 C708 1.365 . S
C711 C710 1.366 . S
C711 H725 0.930 . S
C712 C709 1.378 . S
C712 N713 1.315 . S
C712 H715 0.930 . S
N713 Co693 2.194 . S
N713 C708 1.328 . S
N713 C712 1.315 . S
H714 C708 0.929 . S
H715 C712 0.930 . S
H716 C704 0.929 . S
H717 C706 0.929 . S
O718 Co693 2.351 . S
O718 C721 1.244 . S
O719 Co693 2.155 . S
O719 C721 1.240 . S
O720 Co693 2.096 . S
O720 C701 1.247 . S
C721 O718 1.244 . S
C721 O719 1.240 . S
H722 C696 0.931 . S
H723 C705 0.931 . S
H724 C709 0.929 . S
H725 C711 0.930 . S
Co726 N730 2.148 . S
Co726 N736 2.128 . S
Co726 N746 2.194 . S
Co726 O751 2.351 . S
Co726 O752 2.155 . S
Co726 O753 2.096 . S
C727 N730 1.301 . S
C727 N731 1.328 . S
C727 H732 0.930 . S
C728 C729 1.333 . S
C728 N730 1.317 . S
C728 H733 0.930 . S
C729 C728 1.333 . S
C729 N731 1.350 . S
C729 H755 0.931 . S
N730 Co726 2.148 . S
N730 C727 1.301 . S
N730 C728 1.317 . S
N731 C727 1.328 . S
N731 C729 1.350 . S
H732 C727 0.930 . S
H733 C728 0.930 . S
C734 O735 1.224 . S
C734 O753 1.247 . S
O735 C734 1.224 . S
N736 Co726 2.128 . S
N736 C737 1.355 . S
N736 C739 1.311 . S
C737 N736 1.355 . S
C737 C738 1.363 . S
C737 H749 0.929 . S
C738 C737 1.363 . S
C738 N740 1.375 . S
C738 H756 0.931 . S
C739 N736 1.311 . S
C739 N740 1.347 . S
C739 H750 0.929 . S
N740 C738 1.375 . S
N740 C739 1.347 . S
C741 C744 1.365 . S
C741 N746 1.328 . S
C741 H747 0.929 . S
C742 C743 1.362 . S
C742 C745 1.378 . S
C742 H757 0.929 . S
C743 C742 1.362 . S
C743 C744 1.366 . S
C744 C741 1.365 . S
C744 C743 1.366 . S
C744 H758 0.930 . S
C745 C742 1.378 . S
C745 N746 1.315 . S
C745 H748 0.930 . S
N746 Co726 2.194 . S
N746 C741 1.328 . S
N746 C745 1.315 . S
H747 C741 0.929 . S
H748 C745 0.930 . S
H749 C737 0.929 . S
H750 C739 0.929 . S
O751 Co726 2.351 . S
O751 C754 1.244 . S
O752 Co726 2.155 . S
O752 C754 1.240 . S
O753 Co726 2.096 . S
O753 C734 1.247 . S
C754 O751 1.244 . S
C754 O752 1.240 . S
H755 C729 0.931 . S
H756 C738 0.931 . S
H757 C742 0.929 . S
H758 C744 0.930 . S
Co759 N763 2.148 . S
Co759 N769 2.128 . S
Co759 N779 2.194 . S
Co759 O784 2.351 . S
Co759 O785 2.155 . S
Co759 O786 2.096 . S
C760 N763 1.301 . S
C760 N764 1.328 . S
C760 H765 0.930 . S
C761 C762 1.333 . S
C761 N763 1.317 . S
C761 H766 0.930 . S
C762 C761 1.333 . S
C762 N764 1.350 . S
C762 H788 0.931 . S
N763 Co759 2.148 . S
N763 C760 1.301 . S
N763 C761 1.317 . S
N764 C760 1.328 . S
N764 C762 1.350 . S
H765 C760 0.930 . S
H766 C761 0.930 . S
C767 O768 1.224 . S
C767 O786 1.247 . S
O768 C767 1.224 . S
N769 Co759 2.128 . S
N769 C770 1.355 . S
N769 C772 1.311 . S
C770 N769 1.355 . S
C770 C771 1.363 . S
C770 H782 0.929 . S
C771 C770 1.363 . S
C771 N773 1.375 . S
C771 H789 0.931 . S
C772 N769 1.311 . S
C772 N773 1.347 . S
C772 H783 0.929 . S
N773 C771 1.375 . S
N773 C772 1.347 . S
C774 C777 1.365 . S
C774 N779 1.328 . S
C774 H780 0.929 . S
C775 C776 1.362 . S
C775 C778 1.378 . S
C775 H790 0.929 . S
C776 C775 1.362 . S
C776 C777 1.366 . S
C777 C774 1.365 . S
C777 C776 1.366 . S
C777 H791 0.930 . S
C778 C775 1.378 . S
C778 N779 1.315 . S
C778 H781 0.930 . S
N779 Co759 2.194 . S
N779 C774 1.328 . S
N779 C778 1.315 . S
H780 C774 0.929 . S
H781 C778 0.930 . S
H782 C770 0.929 . S
H783 C772 0.929 . S
O784 Co759 2.351 . S
O784 C787 1.244 . S
O785 Co759 2.155 . S
O785 C787 1.240 . S
O786 Co759 2.096 . S
O786 C767 1.247 . S
C787 O784 1.244 . S
C787 O785 1.240 . S
H788 C762 0.931 . S
H789 C771 0.931 . S
H790 C775 0.929 . S
H791 C777 0.930 . S
Co792 N796 2.148 . S
Co792 N802 2.128 . S
Co792 N812 2.194 . S
Co792 O817 2.351 . S
Co792 O818 2.155 . S
Co792 O819 2.096 . S
C793 N796 1.301 . S
C793 N797 1.328 . S
C793 H798 0.930 . S
C794 C795 1.333 . S
C794 N796 1.317 . S
C794 H799 0.930 . S
C795 C794 1.333 . S
C795 N797 1.350 . S
C795 H821 0.931 . S
N796 Co792 2.148 . S
N796 C793 1.301 . S
N796 C794 1.317 . S
N797 C793 1.328 . S
N797 C795 1.350 . S
H798 C793 0.930 . S
H799 C794 0.930 . S
C800 O801 1.224 . S
C800 O819 1.247 . S
O801 C800 1.224 . S
N802 Co792 2.128 . S
N802 C803 1.355 . S
N802 C805 1.311 . S
C803 N802 1.355 . S
C803 C804 1.363 . S
C803 H815 0.929 . S
C804 C803 1.363 . S
C804 N806 1.375 . S
C804 H822 0.931 . S
C805 N802 1.311 . S
C805 N806 1.347 . S
C805 H816 0.929 . S
N806 C804 1.375 . S
N806 C805 1.347 . S
C807 C810 1.365 . S
C807 N812 1.328 . S
C807 H813 0.929 . S
C808 C809 1.362 . S
C808 C811 1.378 . S
C808 H823 0.929 . S
C809 C808 1.362 . S
C809 C810 1.366 . S
C810 C807 1.365 . S
C810 C809 1.366 . S
C810 H824 0.930 . S
C811 C808 1.378 . S
C811 N812 1.315 . S
C811 H814 0.930 . S
N812 Co792 2.194 . S
N812 C807 1.328 . S
N812 C811 1.315 . S
H813 C807 0.929 . S
H814 C811 0.930 . S
H815 C803 0.929 . S
H816 C805 0.929 . S
O817 Co792 2.351 . S
O817 C820 1.244 . S
O818 Co792 2.155 . S
O818 C820 1.240 . S
O819 Co792 2.096 . S
O819 C800 1.247 . S
C820 O817 1.244 . S
C820 O818 1.240 . S
H821 C795 0.931 . S
H822 C804 0.931 . S
H823 C808 0.929 . S
H824 C810 0.930 . S
Co825 N829 2.148 . S
Co825 N835 2.128 . S
Co825 N845 2.194 . S
Co825 O850 2.351 . S
Co825 O851 2.155 . S
Co825 O852 2.096 . S
C826 N829 1.301 . S
C826 N830 1.328 . S
C826 H831 0.930 . S
C827 C828 1.333 . S
C827 N829 1.317 . S
C827 H832 0.930 . S
C828 C827 1.333 . S
C828 N830 1.350 . S
C828 H854 0.931 . S
N829 Co825 2.148 . S
N829 C826 1.301 . S
N829 C827 1.317 . S
N830 C826 1.328 . S
N830 C828 1.350 . S
H831 C826 0.930 . S
H832 C827 0.930 . S
C833 O834 1.224 . S
C833 O852 1.247 . S
O834 C833 1.224 . S
N835 Co825 2.128 . S
N835 C836 1.355 . S
N835 C838 1.311 . S
C836 N835 1.355 . S
C836 C837 1.363 . S
C836 H848 0.929 . S
C837 C836 1.363 . S
C837 N839 1.375 . S
C837 H855 0.931 . S
C838 N835 1.311 . S
C838 N839 1.347 . S
C838 H849 0.929 . S
N839 C837 1.375 . S
N839 C838 1.347 . S
C840 C843 1.365 . S
C840 N845 1.328 . S
C840 H846 0.929 . S
C841 C842 1.362 . S
C841 C844 1.378 . S
C841 H856 0.929 . S
C842 C841 1.362 . S
C842 C843 1.366 . S
C843 C840 1.365 . S
C843 C842 1.366 . S
C843 H857 0.930 . S
C844 C841 1.378 . S
C844 N845 1.315 . S
C844 H847 0.930 . S
N845 Co825 2.194 . S
N845 C840 1.328 . S
N845 C844 1.315 . S
H846 C840 0.929 . S
H847 C844 0.930 . S
H848 C836 0.929 . S
H849 C838 0.929 . S
O850 Co825 2.351 . S
O850 C853 1.244 . S
O851 Co825 2.155 . S
O851 C853 1.240 . S
O852 Co825 2.096 . S
O852 C833 1.247 . S
C853 O850 1.244 . S
C853 O851 1.240 . S
H854 C828 0.931 . S
H855 C837 0.931 . S
H856 C841 0.929 . S
H857 C843 0.930 . S
Co858 N862 2.148 . S
Co858 N868 2.128 . S
Co858 N878 2.194 . S
Co858 O883 2.351 . S
Co858 O884 2.155 . S
Co858 O885 2.096 . S
C859 N862 1.301 . S
C859 N863 1.328 . S
C859 H864 0.930 . S
C860 C861 1.333 . S
C860 N862 1.317 . S
C860 H865 0.930 . S
C861 C860 1.333 . S
C861 N863 1.350 . S
C861 H887 0.931 . S
N862 Co858 2.148 . S
N862 C859 1.301 . S
N862 C860 1.317 . S
N863 C859 1.328 . S
N863 C861 1.350 . S
H864 C859 0.930 . S
H865 C860 0.930 . S
C866 O867 1.224 . S
C866 O885 1.247 . S
O867 C866 1.224 . S
N868 Co858 2.128 . S
N868 C869 1.355 . S
N868 C871 1.311 . S
C869 N868 1.355 . S
C869 C870 1.363 . S
C869 H881 0.929 . S
C870 C869 1.363 . S
C870 N872 1.375 . S
C870 H888 0.931 . S
C871 N868 1.311 . S
C871 N872 1.347 . S
C871 H882 0.929 . S
N872 C870 1.375 . S
N872 C871 1.347 . S
C873 C876 1.365 . S
C873 N878 1.328 . S
C873 H879 0.929 . S
C874 C875 1.362 . S
C874 C877 1.378 . S
C874 H889 0.929 . S
C875 C874 1.362 . S
C875 C876 1.366 . S
C876 C873 1.365 . S
C876 C875 1.366 . S
C876 H890 0.930 . S
C877 C874 1.378 . S
C877 N878 1.315 . S
C877 H880 0.930 . S
N878 Co858 2.194 . S
N878 C873 1.328 . S
N878 C877 1.315 . S
H879 C873 0.929 . S
H880 C877 0.930 . S
H881 C869 0.929 . S
H882 C871 0.929 . S
O883 Co858 2.351 . S
O883 C886 1.244 . S
O884 Co858 2.155 . S
O884 C886 1.240 . S
O885 Co858 2.096 . S
O885 C866 1.247 . S
C886 O883 1.244 . S
C886 O884 1.240 . S
H887 C861 0.931 . S
H888 C870 0.931 . S
H889 C874 0.929 . S
H890 C876 0.930 . S
Co891 N895 2.148 . S
Co891 N901 2.128 . S
Co891 N911 2.194 . S
Co891 O916 2.351 . S
Co891 O917 2.155 . S
Co891 O918 2.096 . S
C892 N895 1.301 . S
C892 N896 1.328 . S
C892 H897 0.930 . S
C893 C894 1.333 . S
C893 N895 1.317 . S
C893 H898 0.930 . S
C894 C893 1.333 . S
C894 N896 1.350 . S
C894 H920 0.931 . S
N895 Co891 2.148 . S
N895 C892 1.301 . S
N895 C893 1.317 . S
N896 C892 1.328 . S
N896 C894 1.350 . S
H897 C892 0.930 . S
H898 C893 0.930 . S
C899 O900 1.224 . S
C899 O918 1.247 . S
O900 C899 1.224 . S
N901 Co891 2.128 . S
N901 C902 1.355 . S
N901 C904 1.311 . S
C902 N901 1.355 . S
C902 C903 1.363 1_455 S
C902 H914 0.929 . S
C903 C902 1.363 1_655 S
C903 N905 1.375 . S
C903 H921 0.931 . S
C904 N901 1.311 . S
C904 N905 1.347 1_455 S
C904 H915 0.929 . S
N905 C903 1.375 . S
N905 C904 1.347 1_655 S
C906 C909 1.365 . S
C906 N911 1.328 . S
C906 H912 0.929 . S
C907 C908 1.362 . S
C907 C910 1.378 . S
C907 H922 0.929 . S
C908 C907 1.362 . S
C908 C909 1.366 . S
C909 C906 1.365 . S
C909 C908 1.366 . S
C909 H923 0.930 . S
C910 C907 1.378 . S
C910 N911 1.315 . S
C910 H913 0.930 . S
N911 Co891 2.194 . S
N911 C906 1.328 . S
N911 C910 1.315 . S
H912 C906 0.929 . S
H913 C910 0.930 . S
H914 C902 0.929 . S
H915 C904 0.929 . S
O916 Co891 2.351 . S
O916 C919 1.244 . S
O917 Co891 2.155 . S
O917 C919 1.240 . S
O918 Co891 2.096 . S
O918 C899 1.247 . S
C919 O916 1.244 . S
C919 O917 1.240 . S
H920 C894 0.931 . S
H921 C903 0.931 . S
H922 C907 0.929 . S
H923 C909 0.930 . S
Co924 N928 2.148 . S
Co924 N934 2.128 . S
Co924 N944 2.194 . S
Co924 O949 2.351 . S
Co924 O950 2.155 . S
Co924 O951 2.096 . S
C925 N928 1.301 . S
C925 N929 1.328 . S
C925 H930 0.930 . S
C926 C927 1.333 . S
C926 N928 1.317 . S
C926 H931 0.930 . S
C927 C926 1.333 . S
C927 N929 1.350 . S
C927 H953 0.931 . S
N928 Co924 2.148 . S
N928 C925 1.301 . S
N928 C926 1.317 . S
N929 C925 1.328 . S
N929 C927 1.350 . S
H930 C925 0.930 . S
H931 C926 0.930 . S
C932 O933 1.224 . S
C932 O951 1.247 . S
O933 C932 1.224 . S
N934 Co924 2.128 . S
N934 C935 1.355 . S
N934 C937 1.311 . S
C935 N934 1.355 . S
C935 C936 1.363 . S
C935 H947 0.929 . S
C936 C935 1.363 . S
C936 N938 1.375 . S
C936 H954 0.931 . S
C937 N934 1.311 . S
C937 N938 1.347 . S
C937 H948 0.929 . S
N938 C936 1.375 . S
N938 C937 1.347 . S
C939 C942 1.365 . S
C939 N944 1.328 . S
C939 H945 0.929 . S
C940 C941 1.362 . S
C940 C943 1.378 . S
C940 H955 0.929 . S
C941 C940 1.362 . S
C941 C942 1.366 . S
C942 C939 1.365 . S
C942 C941 1.366 . S
C942 H956 0.930 . S
C943 C940 1.378 . S
C943 N944 1.315 . S
C943 H946 0.930 . S
N944 Co924 2.194 . S
N944 C939 1.328 . S
N944 C943 1.315 . S
H945 C939 0.929 . S
H946 C943 0.930 . S
H947 C935 0.929 . S
H948 C937 0.929 . S
O949 Co924 2.351 . S
O949 C952 1.244 . S
O950 Co924 2.155 . S
O950 C952 1.240 . S
O951 Co924 2.096 . S
O951 C932 1.247 . S
C952 O949 1.244 . S
C952 O950 1.240 . S
H953 C927 0.931 . S
H954 C936 0.931 . S
H955 C940 0.929 . S
H956 C942 0.930 . S
Co957 N961 2.148 . S
Co957 N967 2.128 . S
Co957 N977 2.194 . S
Co957 O982 2.351 . S
Co957 O983 2.155 . S
Co957 O984 2.096 . S
C958 N961 1.301 . S
C958 N962 1.328 . S
C958 H963 0.930 . S
C959 C960 1.333 . S
C959 N961 1.317 . S
C959 H964 0.930 . S
C960 C959 1.333 . S
C960 N962 1.350 . S
C960 H986 0.931 . S
N961 Co957 2.148 . S
N961 C958 1.301 . S
N961 C959 1.317 . S
N962 C958 1.328 . S
N962 C960 1.350 . S
H963 C958 0.930 . S
H964 C959 0.930 . S
C965 O966 1.224 . S
C965 O984 1.247 . S
O966 C965 1.224 . S
N967 Co957 2.128 . S
N967 C968 1.355 . S
N967 C970 1.311 . S
C968 N967 1.355 . S
C968 C969 1.363 1_455 S
C968 H980 0.929 . S
C969 C968 1.363 1_655 S
C969 N971 1.375 . S
C969 H987 0.931 . S
C970 N967 1.311 . S
C970 N971 1.347 1_455 S
C970 H981 0.929 . S
N971 C969 1.375 . S
N971 C970 1.347 1_655 S
C972 C975 1.365 . S
C972 N977 1.328 . S
C972 H978 0.929 . S
C973 C974 1.362 . S
C973 C976 1.378 . S
C973 H988 0.929 . S
C974 C973 1.362 . S
C974 C975 1.366 . S
C975 C972 1.365 . S
C975 C974 1.366 . S
C975 H989 0.930 . S
C976 C973 1.378 . S
C976 N977 1.315 . S
C976 H979 0.930 . S
N977 Co957 2.194 . S
N977 C972 1.328 . S
N977 C976 1.315 . S
H978 C972 0.929 . S
H979 C976 0.930 . S
H980 C968 0.929 . S
H981 C970 0.929 . S
O982 Co957 2.351 . S
O982 C985 1.244 . S
O983 Co957 2.155 . S
O983 C985 1.240 . S
O984 Co957 2.096 . S
O984 C965 1.247 . S
C985 O982 1.244 . S
C985 O983 1.240 . S
H986 C960 0.931 . S
H987 C969 0.931 . S
H988 C973 0.929 . S
H989 C975 0.930 . S
Co990 N994 2.148 . S
Co990 N1000 2.128 . S
Co990 N1010 2.194 . S
Co990 O1015 2.351 . S
Co990 O1016 2.155 . S
Co990 O1017 2.096 . S
C991 N994 1.301 . S
C991 N995 1.328 . S
C991 H996 0.930 . S
C992 C993 1.333 . S
C992 N994 1.317 . S
C992 H997 0.930 . S
C993 C992 1.333 . S
C993 N995 1.350 . S
C993 H1019 0.931 . S
N994 Co990 2.148 . S
N994 C991 1.301 . S
N994 C992 1.317 . S
N995 C991 1.328 . S
N995 C993 1.350 . S
H996 C991 0.930 . S
H997 C992 0.930 . S
C998 O999 1.224 . S
C998 O1017 1.247 . S
O999 C998 1.224 . S
N1000 Co990 2.128 . S
N1000 C1001 1.355 . S
N1000 C1003 1.311 . S
C1001 N1000 1.355 . S
C1001 C1002 1.363 . S
C1001 H1013 0.929 . S
C1002 C1001 1.363 . S
C1002 N1004 1.375 . S
C1002 H1020 0.931 . S
C1003 N1000 1.311 . S
C1003 N1004 1.347 . S
C1003 H1014 0.929 . S
N1004 C1002 1.375 . S
N1004 C1003 1.347 . S
C1005 C1008 1.365 . S
C1005 N1010 1.328 . S
C1005 H1011 0.929 . S
C1006 C1007 1.362 . S
C1006 C1009 1.378 . S
C1006 H1021 0.929 . S
C1007 C1006 1.362 . S
C1007 C1008 1.366 . S
C1008 C1005 1.365 . S
C1008 C1007 1.366 . S
C1008 H1022 0.930 . S
C1009 C1006 1.378 . S
C1009 N1010 1.315 . S
C1009 H1012 0.930 . S
N1010 Co990 2.194 . S
N1010 C1005 1.328 . S
N1010 C1009 1.315 . S
H1011 C1005 0.929 . S
H1012 C1009 0.930 . S
H1013 C1001 0.929 . S
H1014 C1003 0.929 . S
O1015 Co990 2.351 . S
O1015 C1018 1.244 . S
O1016 Co990 2.155 . S
O1016 C1018 1.240 . S
O1017 Co990 2.096 . S
O1017 C998 1.247 . S
C1018 O1015 1.244 . S
C1018 O1016 1.240 . S
H1019 C993 0.931 . S
H1020 C1002 0.931 . S
H1021 C1006 0.929 . S
H1022 C1008 0.930 . S
Co1023 N1027 2.148 . S
Co1023 N1033 2.128 . S
Co1023 N1043 2.194 . S
Co1023 O1048 2.351 . S
Co1023 O1049 2.155 . S
Co1023 O1050 2.096 . S
C1024 N1027 1.301 . S
C1024 N1028 1.328 . S
C1024 H1029 0.930 . S
C1025 C1026 1.333 . S
C1025 N1027 1.317 . S
C1025 H1030 0.930 . S
C1026 C1025 1.333 . S
C1026 N1028 1.350 . S
C1026 H1052 0.931 . S
N1027 Co1023 2.148 . S
N1027 C1024 1.301 . S
N1027 C1025 1.317 . S
N1028 C1024 1.328 . S
N1028 C1026 1.350 . S
H1029 C1024 0.930 . S
H1030 C1025 0.930 . S
C1031 O1032 1.224 . S
C1031 O1050 1.247 . S
O1032 C1031 1.224 . S
N1033 Co1023 2.128 . S
N1033 C1034 1.355 . S
N1033 C1036 1.311 . S
C1034 N1033 1.355 . S
C1034 C1035 1.363 . S
C1034 H1046 0.929 . S
C1035 C1034 1.363 . S
C1035 N1037 1.375 . S
C1035 H1053 0.931 . S
C1036 N1033 1.311 . S
C1036 N1037 1.347 . S
C1036 H1047 0.929 . S
N1037 C1035 1.375 . S
N1037 C1036 1.347 . S
C1038 C1041 1.365 . S
C1038 N1043 1.328 . S
C1038 H1044 0.929 . S
C1039 C1040 1.362 . S
C1039 C1042 1.378 . S
C1039 H1054 0.929 . S
C1040 C1039 1.362 . S
C1040 C1041 1.366 . S
C1041 C1038 1.365 . S
C1041 C1040 1.366 . S
C1041 H1055 0.930 . S
C1042 C1039 1.378 . S
C1042 N1043 1.315 . S
C1042 H1045 0.930 . S
N1043 Co1023 2.194 . S
N1043 C1038 1.328 . S
N1043 C1042 1.315 . S
H1044 C1038 0.929 . S
H1045 C1042 0.930 . S
H1046 C1034 0.929 . S
H1047 C1036 0.929 . S
O1048 Co1023 2.351 . S
O1048 C1051 1.244 . S
O1049 Co1023 2.155 . S
O1049 C1051 1.240 . S
O1050 Co1023 2.096 . S
O1050 C1031 1.247 . S
C1051 O1048 1.244 . S
C1051 O1049 1.240 . S
H1052 C1026 0.931 . S
H1053 C1035 0.931 . S
H1054 C1039 0.929 . S
H1055 C1041 0.930 . S
C1056 C1057 1.349 . S
C1056 C1058 1.327 . S
C1056 H1081 0.950 . S
C1057 C1056 1.349 . S
C1057 C1073 1.349 . S
C1058 C1056 1.327 . S
C1058 C1077 1.429 . S
C1058 H1082 0.950 . S
C1059 C1076 1.574 . S
C1059 C1078 1.368 . S
C1059 H1083 0.949 . S
H1060 C1064 0.949 . S
C1061 C1062 1.349 . S
C1061 C1063 1.327 . S
C1061 H1084 0.950 1_545 S
C1062 C1061 1.349 . S
C1062 C1074 1.349 . S
C1063 C1061 1.327 . S
C1063 C1079 1.429 . S
C1063 H1085 0.950 . S
C1064 H1060 0.949 . S
C1064 C1072 1.574 . S
C1064 C1080 1.368 . S
H1065 C1073 0.950 . S
H1066 C1071 0.950 . S
H1067 C1072 0.949 . S
H1068 C1074 0.950 . S
H1069 C1075 0.950 . S
H1070 C1076 0.949 . S
C1071 H1066 0.950 . S
C1071 C1073 1.327 . S
C1071 C1077 1.429 . S
C1072 C1064 1.574 . S
C1072 H1067 0.949 . S
C1072 C1078 1.368 . S
C1073 C1057 1.349 . S
C1073 H1065 0.950 . S
C1073 C1071 1.327 . S
C1074 C1062 1.349 . S
C1074 H1068 0.950 . S
C1074 C1075 1.327 . S
C1075 H1069 0.950 . S
C1075 C1074 1.327 . S
C1075 C1079 1.429 . S
C1076 C1059 1.574 . S
C1076 H1070 0.949 . S
C1076 C1080 1.368 . S
C1077 C1058 1.429 . S
C1077 C1071 1.429 . S
C1077 C1078 1.523 . S
C1078 C1059 1.368 . S
C1078 C1072 1.368 . S
C1078 C1077 1.523 . S
C1079 C1063 1.429 . S
C1079 C1075 1.429 . S
C1079 C1080 1.523 . S
C1080 C1064 1.368 . S
C1080 C1076 1.368 . S
C1080 C1079 1.523 . S
H1081 C1056 0.950 . S
H1082 C1058 0.950 . S
H1083 C1059 0.949 . S
H1084 C1061 0.950 1_565 S
H1085 C1063 0.950 . S
C1086 C1087 1.349 . S
C1086 C1088 1.327 . S
C1086 H1111 0.950 . S
C1087 C1086 1.349 . S
C1087 C1103 1.349 . S
C1088 C1086 1.327 . S
C1088 C1107 1.429 . S
C1088 H1112 0.950 . S
C1089 C1106 1.574 . S
C1089 C1108 1.368 . S
C1089 H1113 0.949 . S
H1090 C1094 0.949 . S
C1091 C1092 1.349 . S
C1091 C1093 1.327 . S
C1091 H1114 0.950 . S
C1092 C1091 1.349 . S
C1092 C1104 1.349 . S
C1093 C1091 1.327 . S
C1093 C1109 1.429 . S
C1093 H1115 0.950 . S
C1094 H1090 0.949 . S
C1094 C1102 1.574 . S
C1094 C1110 1.368 . S
H1095 C1103 0.950 . S
H1096 C1101 0.950 . S
H1097 C1102 0.949 . S
H1098 C1104 0.950 . S
H1099 C1105 0.950 . S
H1100 C1106 0.949 . S
C1101 H1096 0.950 . S
C1101 C1103 1.327 . S
C1101 C1107 1.429 . S
C1102 C1094 1.574 . S
C1102 H1097 0.949 . S
C1102 C1108 1.368 . S
C1103 C1087 1.349 . S
C1103 H1095 0.950 . S
C1103 C1101 1.327 . S
C1104 C1092 1.349 . S
C1104 H1098 0.950 . S
C1104 C1105 1.327 . S
C1105 H1099 0.950 . S
C1105 C1104 1.327 . S
C1105 C1109 1.429 . S
C1106 C1089 1.574 . S
C1106 H1100 0.949 . S
C1106 C1110 1.368 . S
C1107 C1088 1.429 . S
C1107 C1101 1.429 . S
C1107 C1108 1.523 . S
C1108 C1089 1.368 . S
C1108 C1102 1.368 . S
C1108 C1107 1.523 . S
C1109 C1093 1.429 . S
C1109 C1105 1.429 . S
C1109 C1110 1.523 . S
C1110 C1094 1.368 . S
C1110 C1106 1.368 . S
C1110 C1109 1.523 . S
H1111 C1086 0.950 . S
H1112 C1088 0.950 . S
H1113 C1089 0.949 . S
H1114 C1091 0.950 . S
H1115 C1093 0.950 . S
C1116 C1117 1.349 . S
C1116 C1118 1.327 . S
C1116 H1141 0.950 . S
C1117 C1116 1.349 . S
C1117 C1133 1.349 . S
C1118 C1116 1.327 . S
C1118 C1137 1.429 . S
C1118 H1142 0.950 . S
C1119 C1136 1.574 . S
C1119 C1138 1.368 . S
C1119 H1143 0.949 . S
H1120 C1124 0.949 . S
C1121 C1122 1.349 . S
C1121 C1123 1.327 . S
C1121 H1144 0.950 . S
C1122 C1121 1.349 . S
C1122 C1134 1.349 . S
C1123 C1121 1.327 . S
C1123 C1139 1.429 . S
C1123 H1145 0.950 . S
C1124 H1120 0.949 . S
C1124 C1132 1.574 . S
C1124 C1140 1.368 . S
H1125 C1133 0.950 . S
H1126 C1131 0.950 . S
H1127 C1132 0.949 . S
H1128 C1134 0.950 1_545 S
H1129 C1135 0.950 . S
H1130 C1136 0.949 . S
C1131 H1126 0.950 . S
C1131 C1133 1.327 . S
C1131 C1137 1.429 . S
C1132 C1124 1.574 . S
C1132 H1127 0.949 . S
C1132 C1138 1.368 . S
C1133 C1117 1.349 . S
C1133 H1125 0.950 . S
C1133 C1131 1.327 . S
C1134 C1122 1.349 . S
C1134 H1128 0.950 1_565 S
C1134 C1135 1.327 . S
C1135 H1129 0.950 . S
C1135 C1134 1.327 . S
C1135 C1139 1.429 . S
C1136 C1119 1.574 . S
C1136 H1130 0.949 . S
C1136 C1140 1.368 . S
C1137 C1118 1.429 . S
C1137 C1131 1.429 . S
C1137 C1138 1.523 . S
C1138 C1119 1.368 . S
C1138 C1132 1.368 . S
C1138 C1137 1.523 . S
C1139 C1123 1.429 . S
C1139 C1135 1.429 . S
C1139 C1140 1.523 . S
C1140 C1124 1.368 . S
C1140 C1136 1.368 . S
C1140 C1139 1.523 . S
H1141 C1116 0.950 . S
H1142 C1118 0.950 . S
H1143 C1119 0.949 . S
H1144 C1121 0.950 . S
H1145 C1123 0.950 . S
C1146 C1147 1.349 . S
C1146 C1148 1.327 . S
C1146 H1171 0.950 . S
C1147 C1146 1.349 . S
C1147 C1163 1.349 . S
C1148 C1146 1.327 . S
C1148 C1167 1.429 . S
C1148 H1172 0.950 . S
C1149 C1166 1.574 . S
C1149 C1168 1.368 . S
C1149 H1173 0.949 . S
H1150 C1154 0.949 . S
C1151 C1152 1.349 . S
C1151 C1153 1.327 . S
C1151 H1174 0.950 . S
C1152 C1151 1.349 . S
C1152 C1164 1.349 . S
C1153 C1151 1.327 . S
C1153 C1169 1.429 . S
C1153 H1175 0.950 . S
C1154 H1150 0.949 . S
C1154 C1162 1.574 . S
C1154 C1170 1.368 . S
H1155 C1163 0.950 1_565 S
H1156 C1161 0.950 . S
H1157 C1162 0.949 . S
H1158 C1164 0.950 . S
H1159 C1165 0.950 . S
H1160 C1166 0.949 . S
C1161 H1156 0.950 . S
C1161 C1163 1.327 . S
C1161 C1167 1.429 . S
C1162 C1154 1.574 . S
C1162 H1157 0.949 . S
C1162 C1168 1.368 . S
C1163 C1147 1.349 . S
C1163 H1155 0.950 1_545 S
C1163 C1161 1.327 . S
C1164 C1152 1.349 . S
C1164 H1158 0.950 . S
C1164 C1165 1.327 . S
C1165 H1159 0.950 . S
C1165 C1164 1.327 . S
C1165 C1169 1.429 . S
C1166 C1149 1.574 . S
C1166 H1160 0.949 . S
C1166 C1170 1.368 . S
C1167 C1148 1.429 . S
C1167 C1161 1.429 . S
C1167 C1168 1.523 . S
C1168 C1149 1.368 . S
C1168 C1162 1.368 . S
C1168 C1167 1.523 . S
C1169 C1153 1.429 . S
C1169 C1165 1.429 . S
C1169 C1170 1.523 . S
C1170 C1154 1.368 . S
C1170 C1166 1.368 . S
C1170 C1169 1.523 . S
H1171 C1146 0.950 . S
H1172 C1148 0.950 . S
H1173 C1149 0.949 . S
H1174 C1151 0.950 . S
H1175 C1153 0.950 . S
C1176 C1177 1.349 . S
C1176 C1178 1.327 . S
C1176 H1201 0.950 . S
C1177 C1176 1.349 . S
C1177 C1193 1.349 . S
C1178 C1176 1.327 . S
C1178 C1197 1.429 . S
C1178 H1202 0.950 . S
C1179 C1196 1.574 . S
C1179 C1198 1.368 . S
C1179 H1203 0.949 . S
H1180 C1184 0.949 . S
C1181 C1182 1.349 . S
C1181 C1183 1.327 . S
C1181 H1204 0.950 . S
C1182 C1181 1.349 . S
C1182 C1194 1.349 . S
C1183 C1181 1.327 . S
C1183 C1199 1.429 . S
C1183 H1205 0.950 . S
C1184 H1180 0.949 . S
C1184 C1192 1.574 . S
C1184 C1200 1.368 . S
H1185 C1193 0.950 1_545 S
H1186 C1191 0.950 . S
H1187 C1192 0.949 . S
H1188 C1194 0.950 . S
H1189 C1195 0.950 . S
H1190 C1196 0.949 . S
C1191 H1186 0.950 . S
C1191 C1193 1.327 . S
C1191 C1197 1.429 . S
C1192 C1184 1.574 . S
C1192 H1187 0.949 . S
C1192 C1198 1.368 . S
C1193 C1177 1.349 . S
C1193 H1185 0.950 1_565 S
C1193 C1191 1.327 . S
C1194 C1182 1.349 . S
C1194 H1188 0.950 . S
C1194 C1195 1.327 . S
C1195 H1189 0.950 . S
C1195 C1194 1.327 . S
C1195 C1199 1.429 . S
C1196 C1179 1.574 . S
C1196 H1190 0.949 . S
C1196 C1200 1.368 . S
C1197 C1178 1.429 . S
C1197 C1191 1.429 . S
C1197 C1198 1.523 . S
C1198 C1179 1.368 . S
C1198 C1192 1.368 . S
C1198 C1197 1.523 . S
C1199 C1183 1.429 . S
C1199 C1195 1.429 . S
C1199 C1200 1.523 . S
C1200 C1184 1.368 . S
C1200 C1196 1.368 . S
C1200 C1199 1.523 . S
H1201 C1176 0.950 . S
H1202 C1178 0.950 . S
H1203 C1179 0.949 . S
H1204 C1181 0.950 . S
H1205 C1183 0.950 . S
C1206 C1207 1.349 . S
C1206 C1208 1.327 . S
C1206 H1231 0.950 . S
C1207 C1206 1.349 . S
C1207 C1223 1.349 . S
C1208 C1206 1.327 . S
C1208 C1227 1.429 . S
C1208 H1232 0.950 . S
C1209 C1226 1.574 . S
C1209 C1228 1.368 . S
C1209 H1233 0.949 . S
H1210 C1214 0.949 . S
C1211 C1212 1.349 . S
C1211 C1213 1.327 . S
C1211 H1234 0.950 . S
C1212 C1211 1.349 . S
C1212 C1224 1.349 . S
C1213 C1211 1.327 . S
C1213 C1229 1.429 . S
C1213 H1235 0.950 . S
C1214 H1210 0.949 . S
C1214 C1222 1.574 . S
C1214 C1230 1.368 . S
H1215 C1223 0.950 1_565 S
H1216 C1221 0.950 . S
H1217 C1222 0.949 . S
H1218 C1224 0.950 . S
H1219 C1225 0.950 . S
H1220 C1226 0.949 . S
C1221 H1216 0.950 . S
C1221 C1223 1.327 . S
C1221 C1227 1.429 . S
C1222 C1214 1.574 . S
C1222 H1217 0.949 . S
C1222 C1228 1.368 . S
C1223 C1207 1.349 . S
C1223 H1215 0.950 1_545 S
C1223 C1221 1.327 . S
C1224 C1212 1.349 . S
C1224 H1218 0.950 . S
C1224 C1225 1.327 . S
C1225 H1219 0.950 . S
C1225 C1224 1.327 . S
C1225 C1229 1.429 . S
C1226 C1209 1.574 . S
C1226 H1220 0.949 . S
C1226 C1230 1.368 . S
C1227 C1208 1.429 . S
C1227 C1221 1.429 . S
C1227 C1228 1.523 . S
C1228 C1209 1.368 . S
C1228 C1222 1.368 . S
C1228 C1227 1.523 . S
C1229 C1213 1.429 . S
C1229 C1225 1.429 . S
C1229 C1230 1.523 . S
C1230 C1214 1.368 . S
C1230 C1226 1.368 . S
C1230 C1229 1.523 . S
H1231 C1206 0.950 . S
H1232 C1208 0.950 . S
H1233 C1209 0.949 . S
H1234 C1211 0.950 . S
H1235 C1213 0.950 . S
C1236 C1237 1.349 . S
C1236 C1238 1.327 . S
C1236 H1261 0.921 1_545 S
C1237 C1236 1.349 . S
C1237 C1253 1.349 . S
C1238 C1236 1.327 . S
C1238 C1257 1.429 . S
C1238 H1262 0.950 . S
C1239 C1256 1.574 . S
C1239 C1258 1.368 . S
C1239 H1263 0.949 . S
H1240 C1244 0.949 . S
C1241 C1242 1.349 . S
C1241 C1243 1.327 . S
C1241 H1264 0.950 . S
C1242 C1241 1.349 . S
C1242 C1254 1.349 . S
C1243 C1241 1.327 . S
C1243 C1259 1.429 . S
C1243 H1265 0.950 . S
C1244 H1240 0.949 . S
C1244 C1252 1.574 . S
C1244 C1260 1.368 . S
H1245 C1253 0.950 . S
H1246 C1251 0.950 . S
H1247 C1252 0.949 . S
H1248 C1254 0.950 . S
H1249 C1255 0.950 . S
H1250 C1256 0.949 . S
C1251 H1246 0.950 . S
C1251 C1253 1.327 . S
C1251 C1257 1.429 . S
C1252 C1244 1.574 . S
C1252 H1247 0.949 . S
C1252 C1258 1.368 . S
C1253 C1237 1.349 . S
C1253 H1245 0.950 . S
C1253 C1251 1.327 . S
C1254 C1242 1.349 . S
C1254 H1248 0.950 . S
C1254 C1255 1.327 . S
C1255 H1249 0.950 . S
C1255 C1254 1.327 . S
C1255 C1259 1.429 . S
C1256 C1239 1.574 . S
C1256 H1250 0.949 . S
C1256 C1260 1.368 . S
C1257 C1238 1.429 . S
C1257 C1251 1.429 . S
C1257 C1258 1.523 . S
C1258 C1239 1.368 . S
C1258 C1252 1.368 . S
C1258 C1257 1.523 . S
C1259 C1243 1.429 . S
C1259 C1255 1.429 . S
C1259 C1260 1.523 . S
C1260 C1244 1.368 . S
C1260 C1256 1.368 . S
C1260 C1259 1.523 . S
H1261 C1236 0.921 1_565 S
H1262 C1238 0.950 . S
H1263 C1239 0.949 . S
H1264 C1241 0.950 . S
H1265 C1243 0.950 . S
C1266 C1267 1.349 . S
C1266 C1268 1.327 . S
C1266 H1291 0.950 1_565 S
C1267 C1266 1.349 . S
C1267 C1283 1.349 . S
C1268 C1266 1.327 . S
C1268 C1287 1.429 . S
C1268 H1292 0.950 . S
C1269 C1286 1.574 . S
C1269 C1288 1.368 . S
C1269 H1293 0.949 . S
H1270 C1274 0.949 . S
C1271 C1272 1.349 . S
C1271 C1273 1.327 . S
C1271 H1294 0.950 . S
C1272 C1271 1.349 . S
C1272 C1284 1.349 . S
C1273 C1271 1.327 . S
C1273 C1289 1.429 . S
C1273 H1295 0.950 . S
C1274 H1270 0.949 . S
C1274 C1282 1.574 . S
C1274 C1290 1.368 . S
H1275 C1283 0.950 . S
H1276 C1281 0.950 . S
H1277 C1282 0.949 . S
H1278 C1284 0.950 . S
H1279 C1285 0.950 . S
H1280 C1286 0.949 . S
C1281 H1276 0.950 . S
C1281 C1283 1.327 . S
C1281 C1287 1.429 . S
C1282 C1274 1.574 . S
C1282 H1277 0.949 . S
C1282 C1288 1.368 . S
C1283 C1267 1.349 . S
C1283 H1275 0.950 . S
C1283 C1281 1.327 . S
C1284 C1272 1.349 . S
C1284 H1278 0.950 . S
C1284 C1285 1.327 . S
C1285 H1279 0.950 . S
C1285 C1284 1.327 . S
C1285 C1289 1.429 . S
C1286 C1269 1.574 . S
C1286 H1280 0.949 . S
C1286 C1290 1.368 . S
C1287 C1268 1.429 . S
C1287 C1281 1.429 . S
C1287 C1288 1.523 . S
C1288 C1269 1.368 . S
C1288 C1282 1.368 . S
C1288 C1287 1.523 . S
C1289 C1273 1.429 . S
C1289 C1285 1.429 . S
C1289 C1290 1.523 . S
C1290 C1274 1.368 . S
C1290 C1286 1.368 . S
C1290 C1289 1.523 . S
H1291 C1266 0.950 1_545 S
H1292 C1268 0.950 . S
H1293 C1269 0.949 . S
H1294 C1271 0.950 . S
H1295 C1273 0.950 . S
C1296 C1297 1.349 . S
C1296 C1298 1.327 . S
C1296 H1321 0.950 . S
C1297 C1296 1.349 . S
C1297 C1313 1.349 . S
C1298 C1296 1.327 . S
C1298 C1317 1.429 . S
C1298 H1322 0.950 . S
C1299 C1316 1.574 . S
C1299 C1318 1.368 . S
C1299 H1323 0.949 . S
H1300 C1304 0.949 . S
C1301 C1302 1.349 . S
C1301 C1303 1.327 . S
C1301 H1324 0.950 . S
C1302 C1301 1.349 . S
C1302 C1314 1.349 . S
C1303 C1301 1.327 . S
C1303 C1319 1.429 . S
C1303 H1325 0.950 . S
C1304 H1300 0.949 . S
C1304 C1312 1.574 . S
C1304 C1320 1.368 . S
H1305 C1313 0.950 . S
H1306 C1311 0.950 . S
H1307 C1312 0.949 . S
H1308 C1314 0.950 . S
H1309 C1315 0.950 . S
H1310 C1316 0.949 . S
C1311 H1306 0.950 . S
C1311 C1313 1.327 . S
C1311 C1317 1.429 . S
C1312 C1304 1.574 . S
C1312 H1307 0.949 . S
C1312 C1318 1.368 . S
C1313 C1297 1.349 . S
C1313 H1305 0.950 . S
C1313 C1311 1.327 . S
C1314 C1302 1.349 . S
C1314 H1308 0.950 . S
C1314 C1315 1.327 . S
C1315 H1309 0.950 . S
C1315 C1314 1.327 . S
C1315 C1319 1.429 . S
C1316 C1299 1.574 . S
C1316 H1310 0.949 . S
C1316 C1320 1.368 . S
C1317 C1298 1.429 . S
C1317 C1311 1.429 . S
C1317 C1318 1.523 . S
C1318 C1299 1.368 . S
C1318 C1312 1.368 . S
C1318 C1317 1.523 . S
C1319 C1303 1.429 . S
C1319 C1315 1.429 . S
C1319 C1320 1.523 . S
C1320 C1304 1.368 . S
C1320 C1316 1.368 . S
C1320 C1319 1.523 . S
H1321 C1296 0.950 . S
H1322 C1298 0.950 . S
H1323 C1299 0.949 . S
H1324 C1301 0.950 . S
H1325 C1303 0.950 . S
C1326 C1327 1.349 . S
C1326 C1328 1.327 . S
C1326 H1351 0.950 . S
C1327 C1326 1.349 . S
C1327 C1343 1.349 . S
C1328 C1326 1.327 . S
C1328 C1347 1.429 . S
C1328 H1352 0.950 . S
C1329 C1346 1.574 . S
C1329 C1348 1.368 . S
C1329 H1353 0.949 . S
H1330 C1334 0.949 . S
C1331 C1332 1.349 . S
C1331 C1333 1.327 . S
C1331 H1354 0.950 . S
C1332 C1331 1.349 . S
C1332 C1344 1.349 . S
C1333 C1331 1.327 . S
C1333 C1349 1.429 . S
C1333 H1355 0.950 . S
C1334 H1330 0.949 . S
C1334 C1342 1.574 . S
C1334 C1350 1.368 . S
H1335 C1343 0.950 . S
H1336 C1341 0.950 . S
H1337 C1342 0.949 . S
H1338 C1344 0.950 . S
H1339 C1345 0.950 . S
H1340 C1346 0.949 . S
C1341 H1336 0.950 . S
C1341 C1343 1.327 . S
C1341 C1347 1.429 . S
C1342 C1334 1.574 . S
C1342 H1337 0.949 . S
C1342 C1348 1.368 . S
C1343 C1327 1.349 . S
C1343 H1335 0.950 . S
C1343 C1341 1.327 . S
C1344 C1332 1.349 . S
C1344 H1338 0.950 . S
C1344 C1345 1.327 . S
C1345 H1339 0.950 . S
C1345 C1344 1.327 . S
C1345 C1349 1.429 . S
C1346 C1329 1.574 . S
C1346 H1340 0.949 . S
C1346 C1350 1.368 . S
C1347 C1328 1.429 . S
C1347 C1341 1.429 . S
C1347 C1348 1.523 . S
C1348 C1329 1.368 . S
C1348 C1342 1.368 . S
C1348 C1347 1.523 . S
C1349 C1333 1.429 . S
C1349 C1345 1.429 . S
C1349 C1350 1.523 . S
C1350 C1334 1.368 . S
C1350 C1346 1.368 . S
C1350 C1349 1.523 . S
H1351 C1326 0.950 . S
H1352 C1328 0.950 . S
H1353 C1329 0.949 . S
H1354 C1331 0.950 . S
H1355 C1333 0.950 . S
C1356 C1357 1.349 . S
C1356 C1358 1.327 . S
C1356 H1381 0.950 . S
C1357 C1356 1.349 . S
C1357 C1373 1.349 . S
C1358 C1356 1.327 . S
C1358 C1377 1.429 . S
C1358 H1382 0.950 . S
C1359 C1376 1.574 . S
C1359 C1378 1.368 . S
C1359 H1383 0.949 . S
H1360 C1364 0.949 . S
C1361 C1362 1.349 . S
C1361 C1363 1.327 . S
C1361 H1384 0.950 . S
C1362 C1361 1.349 . S
C1362 C1374 1.349 . S
C1363 C1361 1.327 . S
C1363 C1379 1.429 . S
C1363 H1385 0.950 . S
C1364 H1360 0.949 . S
C1364 C1372 1.574 . S
C1364 C1380 1.368 . S
H1365 C1373 0.950 . S
H1366 C1371 0.950 . S
H1367 C1372 0.949 . S
H1368 C1374 0.950 . S
H1369 C1375 0.950 . S
H1370 C1376 0.949 . S
C1371 H1366 0.950 . S
C1371 C1373 1.327 . S
C1371 C1377 1.429 . S
C1372 C1364 1.574 . S
C1372 H1367 0.949 . S
C1372 C1378 1.368 . S
C1373 C1357 1.349 . S
C1373 H1365 0.950 . S
C1373 C1371 1.327 . S
C1374 C1362 1.349 . S
C1374 H1368 0.950 . S
C1374 C1375 1.327 . S
C1375 H1369 0.950 . S
C1375 C1374 1.327 . S
C1375 C1379 1.429 . S
C1376 C1359 1.574 . S
C1376 H1370 0.949 . S
C1376 C1380 1.368 . S
C1377 C1358 1.429 . S
C1377 C1371 1.429 . S
C1377 C1378 1.523 . S
C1378 C1359 1.368 . S
C1378 C1372 1.368 . S
C1378 C1377 1.523 . S
C1379 C1363 1.429 . S
C1379 C1375 1.429 . S
C1379 C1380 1.523 . S
C1380 C1364 1.368 . S
C1380 C1376 1.368 . S
C1380 C1379 1.523 . S
H1381 C1356 0.950 . S
H1382 C1358 0.950 . S
H1383 C1359 0.949 . S
H1384 C1361 0.950 . S
H1385 C1363 0.950 . S
C1386 C1387 1.349 . S
C1386 C1388 1.327 . S
C1386 H1411 0.950 . S
C1387 C1386 1.349 . S
C1387 C1403 1.349 . S
C1388 C1386 1.327 . S
C1388 C1407 1.429 . S
C1388 H1412 0.950 . S
C1389 C1406 1.574 . S
C1389 C1408 1.368 . S
C1389 H1413 0.949 . S
H1390 C1394 0.949 . S
C1391 C1392 1.349 . S
C1391 C1393 1.327 . S
C1391 H1414 0.950 . S
C1392 C1391 1.349 . S
C1392 C1404 1.349 . S
C1393 C1391 1.327 . S
C1393 C1409 1.429 . S
C1393 H1415 0.950 . S
C1394 H1390 0.949 . S
C1394 C1402 1.574 . S
C1394 C1410 1.368 . S
H1395 C1403 0.950 . S
H1396 C1401 0.950 . S
H1397 C1402 0.949 . S
H1398 C1404 0.950 . S
H1399 C1405 0.950 . S
H1400 C1406 0.949 . S
C1401 H1396 0.950 . S
C1401 C1403 1.327 . S
C1401 C1407 1.429 . S
C1402 C1394 1.574 . S
C1402 H1397 0.949 . S
C1402 C1408 1.368 . S
C1403 C1387 1.349 . S
C1403 H1395 0.950 . S
C1403 C1401 1.327 . S
C1404 C1392 1.349 . S
C1404 H1398 0.950 . S
C1404 C1405 1.327 . S
C1405 H1399 0.950 . S
C1405 C1404 1.327 . S
C1405 C1409 1.429 . S
C1406 C1389 1.574 . S
C1406 H1400 0.949 . S
C1406 C1410 1.368 . S
C1407 C1388 1.429 . S
C1407 C1401 1.429 . S
C1407 C1408 1.523 . S
C1408 C1389 1.368 . S
C1408 C1402 1.368 . S
C1408 C1407 1.523 . S
C1409 C1393 1.429 . S
C1409 C1405 1.429 . S
C1409 C1410 1.523 . S
C1410 C1394 1.368 . S
C1410 C1406 1.368 . S
C1410 C1409 1.523 . S
H1411 C1386 0.950 . S
H1412 C1388 0.950 . S
H1413 C1389 0.949 . S
H1414 C1391 0.950 . S
H1415 C1393 0.950 . S
C1416 C1417 1.349 . S
C1416 C1418 1.327 . S
C1416 H1441 0.950 . S
C1417 C1416 1.349 . S
C1417 C1433 1.349 . S
C1418 C1416 1.327 . S
C1418 C1437 1.429 . S
C1418 H1442 0.950 . S
C1419 C1436 1.574 . S
C1419 C1438 1.368 . S
C1419 H1443 0.949 . S
H1420 C1424 0.949 . S
C1421 C1422 1.349 . S
C1421 C1423 1.327 . S
C1421 H1444 0.950 . S
C1422 C1421 1.349 . S
C1422 C1434 1.349 . S
C1423 C1421 1.327 . S
C1423 C1439 1.429 . S
C1423 H1445 0.950 . S
C1424 H1420 0.949 . S
C1424 C1432 1.574 . S
C1424 C1440 1.368 . S
H1425 C1433 0.950 . S
H1426 C1431 0.950 . S
H1427 C1432 0.949 . S
H1428 C1434 0.950 . S
H1429 C1435 0.950 . S
H1430 C1436 0.949 . S
C1431 H1426 0.950 . S
C1431 C1433 1.327 . S
C1431 C1437 1.429 . S
C1432 C1424 1.574 . S
C1432 H1427 0.949 . S
C1432 C1438 1.368 . S
C1433 C1417 1.349 . S
C1433 H1425 0.950 . S
C1433 C1431 1.327 . S
C1434 C1422 1.349 . S
C1434 H1428 0.950 . S
C1434 C1435 1.327 . S
C1435 H1429 0.950 . S
C1435 C1434 1.327 . S
C1435 C1439 1.429 . S
C1436 C1419 1.574 . S
C1436 H1430 0.949 . S
C1436 C1440 1.368 . S
C1437 C1418 1.429 . S
C1437 C1431 1.429 . S
C1437 C1438 1.523 . S
C1438 C1419 1.368 . S
C1438 C1432 1.368 . S
C1438 C1437 1.523 . S
C1439 C1423 1.429 . S
C1439 C1435 1.429 . S
C1439 C1440 1.523 . S
C1440 C1424 1.368 . S
C1440 C1436 1.368 . S
C1440 C1439 1.523 . S
H1441 C1416 0.950 . S
H1442 C1418 0.950 . S
H1443 C1419 0.949 . S
H1444 C1421 0.950 . S
H1445 C1423 0.950 . S
C1446 C1447 1.349 . S
C1446 C1448 1.327 . S
C1446 H1471 0.950 . S
C1447 C1446 1.349 . S
C1447 C1463 1.349 . S
C1448 C1446 1.327 . S
C1448 C1467 1.429 . S
C1448 H1472 0.950 . S
C1449 C1466 1.574 . S
C1449 C1468 1.368 . S
C1449 H1473 0.949 . S
H1450 C1454 0.949 . S
C1451 C1452 1.349 . S
C1451 C1453 1.327 . S
C1451 H1474 0.950 . S
C1452 C1451 1.349 . S
C1452 C1464 1.349 . S
C1453 C1451 1.327 . S
C1453 C1469 1.429 . S
C1453 H1475 0.950 . S
C1454 H1450 0.949 . S
C1454 C1462 1.574 . S
C1454 C1470 1.368 . S
H1455 C1463 0.950 . S
H1456 C1461 0.950 . S
H1457 C1462 0.949 . S
H1458 C1464 0.950 . S
H1459 C1465 0.950 . S
H1460 C1466 0.949 . S
C1461 H1456 0.950 . S
C1461 C1463 1.327 . S
C1461 C1467 1.429 . S
C1462 C1454 1.574 . S
C1462 H1457 0.949 . S
C1462 C1468 1.368 . S
C1463 C1447 1.349 . S
C1463 H1455 0.950 . S
C1463 C1461 1.327 . S
C1464 C1452 1.349 . S
C1464 H1458 0.950 . S
C1464 C1465 1.327 . S
C1465 H1459 0.950 . S
C1465 C1464 1.327 . S
C1465 C1469 1.429 . S
C1466 C1449 1.574 . S
C1466 H1460 0.949 . S
C1466 C1470 1.368 . S
C1467 C1448 1.429 . S
C1467 C1461 1.429 . S
C1467 C1468 1.523 . S
C1468 C1449 1.368 . S
C1468 C1462 1.368 . S
C1468 C1467 1.523 . S
C1469 C1453 1.429 . S
C1469 C1465 1.429 . S
C1469 C1470 1.523 . S
C1470 C1454 1.368 . S
C1470 C1466 1.368 . S
C1470 C1469 1.523 . S
H1471 C1446 0.950 . S
H1472 C1448 0.950 . S
H1473 C1449 0.949 . S
H1474 C1451 0.950 . S
H1475 C1453 0.950 . S
C1476 C1477 1.349 . S
C1476 C1478 1.327 . S
C1476 H1501 0.950 . S
C1477 C1476 1.349 . S
C1477 C1493 1.349 . S
C1478 C1476 1.327 . S
C1478 C1497 1.429 . S
C1478 H1502 0.950 . S
C1479 C1496 1.574 . S
C1479 C1498 1.368 . S
C1479 H1503 0.949 . S
H1480 C1484 0.949 . S
C1481 C1482 1.349 . S
C1481 C1483 1.327 . S
C1481 H1504 0.950 . S
C1482 C1481 1.349 . S
C1482 C1494 1.349 . S
C1483 C1481 1.327 . S
C1483 C1499 1.429 . S
C1483 H1505 0.950 . S
C1484 H1480 0.949 . S
C1484 C1492 1.574 . S
C1484 C1500 1.368 . S
H1485 C1493 0.950 . S
H1486 C1491 0.950 . S
H1487 C1492 0.949 . S
H1488 C1494 0.950 . S
H1489 C1495 0.950 . S
H1490 C1496 0.949 . S
C1491 H1486 0.950 . S
C1491 C1493 1.327 . S
C1491 C1497 1.429 . S
C1492 C1484 1.574 . S
C1492 H1487 0.949 . S
C1492 C1498 1.368 . S
C1493 C1477 1.349 . S
C1493 H1485 0.950 . S
C1493 C1491 1.327 . S
C1494 C1482 1.349 . S
C1494 H1488 0.950 . S
C1494 C1495 1.327 . S
C1495 H1489 0.950 . S
C1495 C1494 1.327 . S
C1495 C1499 1.429 . S
C1496 C1479 1.574 . S
C1496 H1490 0.949 . S
C1496 C1500 1.368 . S
C1497 C1478 1.429 . S
C1497 C1491 1.429 . S
C1497 C1498 1.523 . S
C1498 C1479 1.368 . S
C1498 C1492 1.368 . S
C1498 C1497 1.523 . S
C1499 C1483 1.429 . S
C1499 C1495 1.429 . S
C1499 C1500 1.523 . S
C1500 C1484 1.368 . S
C1500 C1496 1.368 . S
C1500 C1499 1.523 . S
H1501 C1476 0.950 . S
H1502 C1478 0.950 . S
H1503 C1479 0.949 . S
H1504 C1481 0.950 . S
H1505 C1483 0.950 . S
C1506 C1507 1.349 . S
C1506 C1508 1.327 . S
C1506 H1531 0.950 . S
C1507 C1506 1.349 . S
C1507 C1523 1.349 . S
C1508 C1506 1.327 . S
C1508 C1527 1.429 . S
C1508 H1532 0.950 . S
C1509 C1526 1.574 . S
C1509 C1528 1.368 . S
C1509 H1533 0.949 . S
H1510 C1514 0.949 . S
C1511 C1512 1.349 . S
C1511 C1513 1.327 . S
C1511 H1534 0.950 . S
C1512 C1511 1.349 . S
C1512 C1524 1.349 . S
C1513 C1511 1.327 . S
C1513 C1529 1.429 . S
C1513 H1535 0.950 . S
C1514 H1510 0.949 . S
C1514 C1522 1.574 . S
C1514 C1530 1.368 . S
H1515 C1523 0.950 . S
H1516 C1521 0.950 . S
H1517 C1522 0.949 . S
H1518 C1524 0.950 . S
H1519 C1525 0.950 . S
H1520 C1526 0.949 . S
C1521 H1516 0.950 . S
C1521 C1523 1.327 . S
C1521 C1527 1.429 . S
C1522 C1514 1.574 . S
C1522 H1517 0.949 . S
C1522 C1528 1.368 . S
C1523 C1507 1.349 . S
C1523 H1515 0.950 . S
C1523 C1521 1.327 . S
C1524 C1512 1.349 . S
C1524 H1518 0.950 . S
C1524 C1525 1.327 . S
C1525 H1519 0.950 . S
C1525 C1524 1.327 . S
C1525 C1529 1.429 . S
C1526 C1509 1.574 . S
C1526 H1520 0.949 . S
C1526 C1530 1.368 . S
C1527 C1508 1.429 . S
C1527 C1521 1.429 . S
C1527 C1528 1.523 . S
C1528 C1509 1.368 . S
C1528 C1522 1.368 . S
C1528 C1527 1.523 . S
C1529 C1513 1.429 . S
C1529 C1525 1.429 . S
C1529 C1530 1.523 . S
C1530 C1514 1.368 . S
C1530 C1526 1.368 . S
C1530 C1529 1.523 . S
H1531 C1506 0.950 . S
H1532 C1508 0.950 . S
H1533 C1509 0.949 . S
H1534 C1511 0.950 . S
H1535 C1513 0.950 . S
C1536 C1537 1.349 . S
C1536 C1538 1.327 . S
C1536 H1561 0.950 . S
C1537 C1536 1.349 . S
C1537 C1553 1.349 . S
C1538 C1536 1.327 . S
C1538 C1557 1.429 . S
C1538 H1562 0.950 . S
C1539 C1556 1.574 1_556 S
C1539 C1558 1.368 . S
C1539 H1563 0.949 . S
H1540 C1544 0.949 . S
C1541 C1542 1.349 . S
C1541 C1543 1.327 . S
C1541 H1564 0.950 . S
C1542 C1541 1.349 . S
C1542 C1554 1.349 . S
C1543 C1541 1.327 . S
C1543 C1559 1.429 . S
C1543 H1565 0.950 . S
C1544 H1540 0.949 . S
C1544 C1552 1.574 1_554 S
C1544 C1560 1.368 . S
H1545 C1553 0.950 . S
H1546 C1551 0.950 . S
H1547 C1552 0.949 . S
H1548 C1554 0.950 . S
H1549 C1555 0.950 . S
H1550 C1556 0.949 . S
C1551 H1546 0.950 . S
C1551 C1553 1.327 . S
C1551 C1557 1.429 . S
C1552 C1544 1.574 1_556 S
C1552 H1547 0.949 . S
C1552 C1558 1.368 . S
C1553 C1537 1.349 . S
C1553 H1545 0.950 . S
C1553 C1551 1.327 . S
C1554 C1542 1.349 . S
C1554 H1548 0.950 . S
C1554 C1555 1.327 . S
C1555 H1549 0.950 . S
C1555 C1554 1.327 . S
C1555 C1559 1.429 . S
C1556 C1539 1.574 1_554 S
C1556 H1550 0.949 . S
C1556 C1560 1.368 . S
C1557 C1538 1.429 . S
C1557 C1551 1.429 . S
C1557 C1558 1.523 . S
C1558 C1539 1.368 . S
C1558 C1552 1.368 . S
C1558 C1557 1.523 . S
C1559 C1543 1.429 . S
C1559 C1555 1.429 . S
C1559 C1560 1.523 . S
C1560 C1544 1.368 . S
C1560 C1556 1.368 . S
C1560 C1559 1.523 . S
H1561 C1536 0.950 . S
H1562 C1538 0.950 . S
H1563 C1539 0.949 . S
H1564 C1541 0.950 . S
H1565 C1543 0.950 . S
C1566 C1567 1.349 1_545 S
C1566 C1568 1.327 . S
C1566 H1591 0.950 . S
C1567 C1566 1.349 1_565 S
C1567 C1583 1.349 . S
C1568 C1566 1.327 . S
C1568 C1587 1.429 1_545 S
C1568 H1592 0.950 . S
C1569 C1586 1.574 . S
C1569 C1588 1.368 . S
C1569 H1593 0.949 . S
H1570 C1574 0.949 . S
C1571 C1572 1.349 1_565 S
C1571 C1573 1.327 . S
C1571 H1594 0.950 . S
C1572 C1571 1.349 1_545 S
C1572 C1584 1.349 . S
C1573 C1571 1.327 . S
C1573 C1589 1.429 1_565 S
C1573 H1595 0.950 . S
C1574 H1570 0.949 . S
C1574 C1582 1.574 . S
C1574 C1590 1.368 . S
H1575 C1583 0.950 . S
H1576 C1581 0.950 . S
H1577 C1582 0.949 . S
H1578 C1584 0.950 . S
H1579 C1585 0.950 . S
H1580 C1586 0.949 . S
C1581 H1576 0.950 . S
C1581 C1583 1.327 . S
C1581 C1587 1.429 . S
C1582 C1574 1.574 . S
C1582 H1577 0.949 . S
C1582 C1588 1.368 1_545 S
C1583 C1567 1.349 . S
C1583 H1575 0.950 . S
C1583 C1581 1.327 . S
C1584 C1572 1.349 . S
C1584 H1578 0.950 . S
C1584 C1585 1.327 . S
C1585 H1579 0.950 . S
C1585 C1584 1.327 . S
C1585 C1589 1.429 . S
C1586 C1569 1.574 . S
C1586 H1580 0.949 . S
C1586 C1590 1.368 1_565 S
C1587 C1568 1.429 1_565 S
C1587 C1581 1.429 . S
C1587 C1588 1.523 . S
C1588 C1569 1.368 . S
C1588 C1582 1.368 1_565 S
C1588 C1587 1.523 . S
C1589 C1573 1.429 1_545 S
C1589 C1585 1.429 . S
C1589 C1590 1.523 . S
C1590 C1574 1.368 . S
C1590 C1586 1.368 1_545 S
C1590 C1589 1.523 . S
H1591 C1566 0.950 . S
H1592 C1568 0.950 . S
H1593 C1569 0.949 . S
H1594 C1571 0.950 . S
H1595 C1573 0.950 . S
C1596 C1597 1.349 . S
C1596 C1598 1.327 . S
C1596 H1621 0.950 . S
C1597 C1596 1.349 . S
C1597 C1613 1.349 . S
C1598 C1596 1.327 . S
C1598 C1617 1.429 . S
C1598 H1622 0.950 . S
C1599 C1616 1.574 . S
C1599 C1618 1.368 . S
C1599 H1623 0.949 . S
H1600 C1604 0.949 . S
C1601 C1602 1.349 . S
C1601 C1603 1.327 . S
C1601 H1624 0.950 . S
C1602 C1601 1.349 . S
C1602 C1614 1.349 . S
C1603 C1601 1.327 . S
C1603 C1619 1.429 . S
C1603 H1625 0.950 . S
C1604 H1600 0.949 . S
C1604 C1612 1.574 . S
C1604 C1620 1.368 . S
H1605 C1613 0.950 . S
H1606 C1611 0.950 . S
H1607 C1612 0.949 . S
H1608 C1614 0.950 . S
H1609 C1615 0.950 . S
H1610 C1616 0.949 . S
C1611 H1606 0.950 . S
C1611 C1613 1.327 . S
C1611 C1617 1.429 . S
C1612 C1604 1.574 . S
C1612 H1607 0.949 . S
C1612 C1618 1.368 . S
C1613 C1597 1.349 . S
C1613 H1605 0.950 . S
C1613 C1611 1.327 . S
C1614 C1602 1.349 . S
C1614 H1608 0.950 . S
C1614 C1615 1.327 . S
C1615 H1609 0.950 . S
C1615 C1614 1.327 . S
C1615 C1619 1.429 . S
C1616 C1599 1.574 . S
C1616 H1610 0.949 . S
C1616 C1620 1.368 . S
C1617 C1598 1.429 . S
C1617 C1611 1.429 . S
C1617 C1618 1.523 . S
C1618 C1599 1.368 . S
C1618 C1612 1.368 . S
C1618 C1617 1.523 . S
C1619 C1603 1.429 . S
C1619 C1615 1.429 . S
C1619 C1620 1.523 . S
C1620 C1604 1.368 . S
C1620 C1616 1.368 . S
C1620 C1619 1.523 . S
H1621 C1596 0.950 . S
H1622 C1598 0.950 . S
H1623 C1599 0.949 . S
H1624 C1601 0.950 . S
H1625 C1603 0.950 . S
C1626 C1627 1.349 . S
C1626 C1628 1.327 . S
C1626 H1651 0.950 . S
C1627 C1626 1.349 . S
C1627 C1643 1.349 1_545 S
C1628 C1626 1.327 . S
C1628 C1647 1.429 . S
C1628 H1652 0.950 . S
C1629 C1646 1.574 . S
C1629 C1648 1.368 1_565 S
C1629 H1653 0.949 . S
H1630 C1634 0.949 . S
C1631 C1632 1.349 . S
C1631 C1633 1.327 . S
C1631 H1654 0.950 . S
C1632 C1631 1.349 . S
C1632 C1644 1.349 1_565 S
C1633 C1631 1.327 . S
C1633 C1649 1.429 . S
C1633 H1655 0.950 . S
C1634 H1630 0.949 . S
C1634 C1642 1.574 . S
C1634 C1650 1.368 1_545 S
H1635 C1643 0.950 . S
H1636 C1641 0.950 . S
H1637 C1642 0.949 . S
H1638 C1644 0.950 . S
H1639 C1645 0.950 . S
H1640 C1646 0.949 . S
C1641 H1636 0.950 . S
C1641 C1643 1.327 . S
C1641 C1647 1.429 1_565 S
C1642 C1634 1.574 . S
C1642 H1637 0.949 . S
C1642 C1648 1.368 . S
C1643 C1627 1.349 1_565 S
C1643 H1635 0.950 . S
C1643 C1641 1.327 . S
C1644 C1632 1.349 1_545 S
C1644 H1638 0.950 . S
C1644 C1645 1.327 . S
C1645 H1639 0.950 . S
C1645 C1644 1.327 . S
C1645 C1649 1.429 1_545 S
C1646 C1629 1.574 . S
C1646 H1640 0.949 . S
C1646 C1650 1.368 . S
C1647 C1628 1.429 . S
C1647 C1641 1.429 1_545 S
C1647 C1648 1.523 . S
C1648 C1629 1.368 1_545 S
C1648 C1642 1.368 . S
C1648 C1647 1.523 . S
C1649 C1633 1.429 . S
C1649 C1645 1.429 1_565 S
C1649 C1650 1.523 . S
C1650 C1634 1.368 1_565 S
C1650 C1646 1.368 . S
C1650 C1649 1.523 . S
H1651 C1626 0.950 . S
H1652 C1628 0.950 . S
H1653 C1629 0.949 . S
H1654 C1631 0.950 . S
H1655 C1633 0.950 . S
C1656 C1657 1.349 . S
C1656 C1658 1.327 . S
C1656 H1681 0.950 . S
C1657 C1656 1.349 . S
C1657 C1673 1.349 . S
C1658 C1656 1.327 . S
C1658 C1677 1.429 . S
C1658 H1682 0.950 . S
C1659 C1676 1.574 1_556 S
C1659 C1678 1.368 . S
C1659 H1683 0.949 . S
H1660 C1664 0.949 . S
C1661 C1662 1.349 . S
C1661 C1663 1.327 . S
C1661 H1684 0.950 . S
C1662 C1661 1.349 . S
C1662 C1674 1.349 . S
C1663 C1661 1.327 . S
C1663 C1679 1.429 . S
C1663 H1685 0.950 . S
C1664 H1660 0.949 . S
C1664 C1672 1.574 1_554 S
C1664 C1680 1.368 . S
H1665 C1673 0.950 . S
H1666 C1671 0.950 . S
H1667 C1672 0.949 . S
H1668 C1674 0.950 . S
H1669 C1675 0.950 . S
H1670 C1676 0.949 . S
C1671 H1666 0.950 . S
C1671 C1673 1.327 . S
C1671 C1677 1.429 . S
C1672 C1664 1.574 1_556 S
C1672 H1667 0.949 . S
C1672 C1678 1.368 . S
C1673 C1657 1.349 . S
C1673 H1665 0.950 . S
C1673 C1671 1.327 . S
C1674 C1662 1.349 . S
C1674 H1668 0.950 . S
C1674 C1675 1.327 . S
C1675 H1669 0.950 . S
C1675 C1674 1.327 . S
C1675 C1679 1.429 . S
C1676 C1659 1.574 1_554 S
C1676 H1670 0.949 . S
C1676 C1680 1.368 . S
C1677 C1658 1.429 . S
C1677 C1671 1.429 . S
C1677 C1678 1.523 . S
C1678 C1659 1.368 . S
C1678 C1672 1.368 . S
C1678 C1677 1.523 . S
C1679 C1663 1.429 . S
C1679 C1675 1.429 . S
C1679 C1680 1.523 . S
C1680 C1664 1.368 . S
C1680 C1676 1.368 . S
C1680 C1679 1.523 . S
H1681 C1656 0.950 . S
H1682 C1658 0.950 . S
H1683 C1659 0.949 . S
H1684 C1661 0.950 . S
H1685 C1663 0.950 . S
C1686 C1687 1.349 1_545 S
C1686 C1688 1.327 . S
C1686 H1711 0.950 . S
C1687 C1686 1.349 1_565 S
C1687 C1703 1.349 . S
C1688 C1686 1.327 . S
C1688 C1707 1.429 1_545 S
C1688 H1712 0.950 . S
C1689 C1706 1.574 . S
C1689 C1708 1.368 . S
C1689 H1713 0.949 . S
H1690 C1694 0.949 . S
C1691 C1692 1.349 1_565 S
C1691 C1693 1.327 . S
C1691 H1714 0.950 . S
C1692 C1691 1.349 1_545 S
C1692 C1704 1.349 . S
C1693 C1691 1.327 . S
C1693 C1709 1.429 1_565 S
C1693 H1715 0.950 . S
C1694 H1690 0.949 . S
C1694 C1702 1.574 . S
C1694 C1710 1.368 . S
H1695 C1703 0.950 . S
H1696 C1701 0.950 . S
H1697 C1702 0.949 . S
H1698 C1704 0.950 . S
H1699 C1705 0.950 . S
H1700 C1706 0.949 . S
C1701 H1696 0.950 . S
C1701 C1703 1.327 . S
C1701 C1707 1.429 . S
C1702 C1694 1.574 . S
C1702 H1697 0.949 . S
C1702 C1708 1.368 1_545 S
C1703 C1687 1.349 . S
C1703 H1695 0.950 . S
C1703 C1701 1.327 . S
C1704 C1692 1.349 . S
C1704 H1698 0.950 . S
C1704 C1705 1.327 . S
C1705 H1699 0.950 . S
C1705 C1704 1.327 . S
C1705 C1709 1.429 . S
C1706 C1689 1.574 . S
C1706 H1700 0.949 . S
C1706 C1710 1.368 1_565 S
C1707 C1688 1.429 1_565 S
C1707 C1701 1.429 . S
C1707 C1708 1.523 . S
C1708 C1689 1.368 . S
C1708 C1702 1.368 1_565 S
C1708 C1707 1.523 . S
C1709 C1693 1.429 1_545 S
C1709 C1705 1.429 . S
C1709 C1710 1.523 . S
C1710 C1694 1.368 . S
C1710 C1706 1.368 1_545 S
C1710 C1709 1.523 . S
H1711 C1686 0.950 . S
H1712 C1688 0.950 . S
H1713 C1689 0.949 . S
H1714 C1691 0.950 . S
H1715 C1693 0.950 . S
C1716 C1717 1.349 . S
C1716 C1718 1.327 . S
C1716 H1741 0.950 . S
C1717 C1716 1.349 . S
C1717 C1733 1.349 . S
C1718 C1716 1.327 . S
C1718 C1737 1.429 . S
C1718 H1742 0.950 . S
C1719 C1736 1.574 . S
C1719 C1738 1.368 . S
C1719 H1743 0.949 . S
H1720 C1724 0.949 . S
C1721 C1722 1.349 . S
C1721 C1723 1.327 . S
C1721 H1744 0.950 . S
C1722 C1721 1.349 . S
C1722 C1734 1.349 . S
C1723 C1721 1.327 . S
C1723 C1739 1.429 . S
C1723 H1745 0.950 . S
C1724 H1720 0.949 . S
C1724 C1732 1.574 . S
C1724 C1740 1.368 . S
H1725 C1733 0.950 . S
H1726 C1731 0.950 . S
H1727 C1732 0.949 . S
H1728 C1734 0.950 . S
H1729 C1735 0.950 . S
H1730 C1736 0.949 . S
C1731 H1726 0.950 . S
C1731 C1733 1.327 . S
C1731 C1737 1.429 . S
C1732 C1724 1.574 . S
C1732 H1727 0.949 . S
C1732 C1738 1.368 . S
C1733 C1717 1.349 . S
C1733 H1725 0.950 . S
C1733 C1731 1.327 . S
C1734 C1722 1.349 . S
C1734 H1728 0.950 . S
C1734 C1735 1.327 . S
C1735 H1729 0.950 . S
C1735 C1734 1.327 . S
C1735 C1739 1.429 . S
C1736 C1719 1.574 . S
C1736 H1730 0.949 . S
C1736 C1740 1.368 . S
C1737 C1718 1.429 . S
C1737 C1731 1.429 . S
C1737 C1738 1.523 . S
C1738 C1719 1.368 . S
C1738 C1732 1.368 . S
C1738 C1737 1.523 . S
C1739 C1723 1.429 . S
C1739 C1735 1.429 . S
C1739 C1740 1.523 . S
C1740 C1724 1.368 . S
C1740 C1736 1.368 . S
C1740 C1739 1.523 . S
H1741 C1716 0.950 . S
H1742 C1718 0.950 . S
H1743 C1719 0.949 . S
H1744 C1721 0.950 . S
H1745 C1723 0.950 . S
C1746 C1747 1.349 1_565 S
C1746 C1748 1.327 . S
C1746 H1771 0.950 . S
C1747 C1746 1.349 1_545 S
C1747 C1763 1.349 . S
C1748 C1746 1.327 . S
C1748 C1767 1.429 1_565 S
C1748 H1772 0.950 . S
C1749 C1766 1.574 . S
C1749 C1768 1.368 . S
C1749 H1773 0.949 . S
H1750 C1754 0.949 . S
C1751 C1752 1.349 1_545 S
C1751 C1753 1.327 . S
C1751 H1774 0.950 . S
C1752 C1751 1.349 1_565 S
C1752 C1764 1.349 . S
C1753 C1751 1.327 . S
C1753 C1769 1.429 1_545 S
C1753 H1775 0.950 . S
C1754 H1750 0.949 . S
C1754 C1762 1.574 . S
C1754 C1770 1.368 . S
H1755 C1763 0.950 . S
H1756 C1761 0.950 . S
H1757 C1762 0.949 . S
H1758 C1764 0.950 . S
H1759 C1765 0.950 . S
H1760 C1766 0.949 . S
C1761 H1756 0.950 . S
C1761 C1763 1.327 . S
C1761 C1767 1.429 . S
C1762 C1754 1.574 . S
C1762 H1757 0.949 . S
C1762 C1768 1.368 1_565 S
C1763 C1747 1.349 . S
C1763 H1755 0.950 . S
C1763 C1761 1.327 . S
C1764 C1752 1.349 . S
C1764 H1758 0.950 . S
C1764 C1765 1.327 . S
C1765 H1759 0.950 . S
C1765 C1764 1.327 . S
C1765 C1769 1.429 . S
C1766 C1749 1.574 . S
C1766 H1760 0.949 . S
C1766 C1770 1.368 1_545 S
C1767 C1748 1.429 1_545 S
C1767 C1761 1.429 . S
C1767 C1768 1.523 . S
C1768 C1749 1.368 . S
C1768 C1762 1.368 1_545 S
C1768 C1767 1.523 . S
C1769 C1753 1.429 1_565 S
C1769 C1765 1.429 . S
C1769 C1770 1.523 . S
C1770 C1754 1.368 . S
C1770 C1766 1.368 1_565 S
C1770 C1769 1.523 . S
H1771 C1746 0.950 . S
H1772 C1748 0.950 . S
H1773 C1749 0.949 . S
H1774 C1751 0.950 . S
H1775 C1753 0.950 . S
C1776 C1777 1.349 . S
C1776 C1778 1.327 . S
C1776 H1801 0.950 . S
C1777 C1776 1.349 . S
C1777 C1793 1.349 . S
C1778 C1776 1.327 . S
C1778 C1797 1.429 . S
C1778 H1802 0.950 . S
C1779 C1796 1.574 . S
C1779 C1798 1.368 . S
C1779 H1803 0.949 . S
H1780 C1784 0.949 . S
C1781 C1782 1.349 . S
C1781 C1783 1.327 . S
C1781 H1804 0.950 . S
C1782 C1781 1.349 . S
C1782 C1794 1.349 . S
C1783 C1781 1.327 . S
C1783 C1799 1.429 . S
C1783 H1805 0.950 . S
C1784 H1780 0.949 . S
C1784 C1792 1.574 . S
C1784 C1800 1.368 . S
H1785 C1793 0.950 . S
H1786 C1791 0.950 . S
H1787 C1792 0.949 . S
H1788 C1794 0.950 . S
H1789 C1795 0.950 . S
H1790 C1796 0.949 . S
C1791 H1786 0.950 . S
C1791 C1793 1.327 . S
C1791 C1797 1.429 . S
C1792 C1784 1.574 . S
C1792 H1787 0.949 . S
C1792 C1798 1.368 . S
C1793 C1777 1.349 . S
C1793 H1785 0.950 . S
C1793 C1791 1.327 . S
C1794 C1782 1.349 . S
C1794 H1788 0.950 . S
C1794 C1795 1.327 . S
C1795 H1789 0.950 . S
C1795 C1794 1.327 . S
C1795 C1799 1.429 . S
C1796 C1779 1.574 . S
C1796 H1790 0.949 . S
C1796 C1800 1.368 . S
C1797 C1778 1.429 . S
C1797 C1791 1.429 . S
C1797 C1798 1.523 . S
C1798 C1779 1.368 . S
C1798 C1792 1.368 . S
C1798 C1797 1.523 . S
C1799 C1783 1.429 . S
C1799 C1795 1.429 . S
C1799 C1800 1.523 . S
C1800 C1784 1.368 . S
C1800 C1796 1.368 . S
C1800 C1799 1.523 . S
H1801 C1776 0.950 . S
H1802 C1778 0.950 . S
H1803 C1779 0.949 . S
H1804 C1781 0.950 . S
H1805 C1783 0.950 . S
C1806 C1807 1.349 . S
C1806 C1808 1.327 . S
C1806 H1831 0.950 . S
C1807 C1806 1.349 . S
C1807 C1823 1.349 . S
C1808 C1806 1.327 . S
C1808 C1827 1.429 . S
C1808 H1832 0.950 . S
C1809 C1826 1.574 . S
C1809 C1828 1.368 . S
C1809 H1833 0.949 . S
H1810 C1814 0.949 . S
C1811 C1812 1.349 . S
C1811 C1813 1.327 . S
C1811 H1834 0.950 . S
C1812 C1811 1.349 . S
C1812 C1824 1.349 . S
C1813 C1811 1.327 . S
C1813 C1829 1.429 . S
C1813 H1835 0.950 . S
C1814 H1810 0.949 . S
C1814 C1822 1.574 . S
C1814 C1830 1.368 . S
H1815 C1823 0.950 . S
H1816 C1821 0.950 . S
H1817 C1822 0.949 . S
H1818 C1824 0.950 . S
H1819 C1825 0.950 . S
H1820 C1826 0.949 . S
C1821 H1816 0.950 . S
C1821 C1823 1.327 . S
C1821 C1827 1.429 . S
C1822 C1814 1.574 . S
C1822 H1817 0.949 . S
C1822 C1828 1.368 . S
C1823 C1807 1.349 . S
C1823 H1815 0.950 . S
C1823 C1821 1.327 . S
C1824 C1812 1.349 . S
C1824 H1818 0.950 . S
C1824 C1825 1.327 . S
C1825 H1819 0.950 . S
C1825 C1824 1.327 . S
C1825 C1829 1.429 . S
C1826 C1809 1.574 . S
C1826 H1820 0.949 . S
C1826 C1830 1.368 . S
C1827 C1808 1.429 . S
C1827 C1821 1.429 . S
C1827 C1828 1.523 . S
C1828 C1809 1.368 . S
C1828 C1822 1.368 . S
C1828 C1827 1.523 . S
C1829 C1813 1.429 . S
C1829 C1825 1.429 . S
C1829 C1830 1.523 . S
C1830 C1814 1.368 . S
C1830 C1826 1.368 . S
C1830 C1829 1.523 . S
H1831 C1806 0.950 . S
H1832 C1808 0.950 . S
H1833 C1809 0.949 . S
H1834 C1811 0.950 . S
H1835 C1813 0.950 . S
C1836 C1837 1.349 . S
C1836 C1838 1.327 . S
C1836 H1861 0.950 . S
C1837 C1836 1.349 . S
C1837 C1853 1.349 . S
C1838 C1836 1.327 . S
C1838 C1857 1.429 . S
C1838 H1862 0.950 . S
C1839 C1856 1.574 1_556 S
C1839 C1858 1.368 . S
C1839 H1863 0.949 . S
H1840 C1844 0.949 . S
C1841 C1842 1.349 . S
C1841 C1843 1.327 . S
C1841 H1864 0.950 . S
C1842 C1841 1.349 . S
C1842 C1854 1.349 . S
C1843 C1841 1.327 . S
C1843 C1859 1.429 . S
C1843 H1865 0.950 . S
C1844 H1840 0.949 . S
C1844 C1852 1.574 1_554 S
C1844 C1860 1.368 . S
H1845 C1853 0.950 . S
H1846 C1851 0.950 . S
H1847 C1852 0.949 . S
H1848 C1854 0.950 . S
H1849 C1855 0.950 . S
H1850 C1856 0.949 . S
C1851 H1846 0.950 . S
C1851 C1853 1.327 . S
C1851 C1857 1.429 . S
C1852 C1844 1.574 1_556 S
C1852 H1847 0.949 . S
C1852 C1858 1.368 . S
C1853 C1837 1.349 . S
C1853 H1845 0.950 . S
C1853 C1851 1.327 . S
C1854 C1842 1.349 . S
C1854 H1848 0.950 . S
C1854 C1855 1.327 . S
C1855 H1849 0.950 . S
C1855 C1854 1.327 . S
C1855 C1859 1.429 . S
C1856 C1839 1.574 1_554 S
C1856 H1850 0.949 . S
C1856 C1860 1.368 . S
C1857 C1838 1.429 . S
C1857 C1851 1.429 . S
C1857 C1858 1.523 . S
C1858 C1839 1.368 . S
C1858 C1852 1.368 . S
C1858 C1857 1.523 . S
C1859 C1843 1.429 . S
C1859 C1855 1.429 . S
C1859 C1860 1.523 . S
C1860 C1844 1.368 . S
C1860 C1856 1.368 . S
C1860 C1859 1.523 . S
H1861 C1836 0.950 . S
H1862 C1838 0.950 . S
H1863 C1839 0.949 . S
H1864 C1841 0.950 . S
H1865 C1843 0.950 . S
C1866 C1867 1.349 . S
C1866 C1868 1.327 . S
C1866 H1891 0.950 . S
C1867 C1866 1.349 . S
C1867 C1883 1.349 . S
C1868 C1866 1.327 . S
C1868 C1887 1.429 . S
C1868 H1892 0.950 . S
C1869 C1886 1.574 . S
C1869 C1888 1.368 . S
C1869 H1893 0.949 . S
H1870 C1874 0.949 . S
C1871 C1872 1.349 . S
C1871 C1873 1.327 . S
C1871 H1894 0.950 . S
C1872 C1871 1.349 . S
C1872 C1884 1.349 . S
C1873 C1871 1.327 . S
C1873 C1889 1.429 . S
C1873 H1895 0.950 . S
C1874 H1870 0.949 . S
C1874 C1882 1.574 . S
C1874 C1890 1.368 . S
H1875 C1883 0.950 . S
H1876 C1881 0.950 . S
H1877 C1882 0.949 . S
H1878 C1884 0.950 . S
H1879 C1885 0.950 . S
H1880 C1886 0.949 . S
C1881 H1876 0.950 . S
C1881 C1883 1.327 . S
C1881 C1887 1.429 . S
C1882 C1874 1.574 . S
C1882 H1877 0.949 . S
C1882 C1888 1.368 . S
C1883 C1867 1.349 . S
C1883 H1875 0.950 . S
C1883 C1881 1.327 . S
C1884 C1872 1.349 . S
C1884 H1878 0.950 . S
C1884 C1885 1.327 . S
C1885 H1879 0.950 . S
C1885 C1884 1.327 . S
C1885 C1889 1.429 . S
C1886 C1869 1.574 . S
C1886 H1880 0.949 . S
C1886 C1890 1.368 . S
C1887 C1868 1.429 . S
C1887 C1881 1.429 . S
C1887 C1888 1.523 . S
C1888 C1869 1.368 . S
C1888 C1882 1.368 . S
C1888 C1887 1.523 . S
C1889 C1873 1.429 . S
C1889 C1885 1.429 . S
C1889 C1890 1.523 . S
C1890 C1874 1.368 . S
C1890 C1886 1.368 . S
C1890 C1889 1.523 . S
H1891 C1866 0.950 . S
H1892 C1868 0.950 . S
H1893 C1869 0.949 . S
H1894 C1871 0.950 . S
H1895 C1873 0.950 . S
C1896 C1897 1.349 . S
C1896 C1898 1.327 . S
C1896 H1921 0.950 . S
C1897 C1896 1.349 . S
C1897 C1913 1.349 . S
C1898 C1896 1.327 . S
C1898 C1917 1.429 . S
C1898 H1922 0.950 . S
C1899 C1916 1.574 . S
C1899 C1918 1.368 . S
C1899 H1923 0.949 . S
H1900 C1904 0.949 . S
C1901 C1902 1.349 . S
C1901 C1903 1.327 . S
C1901 H1924 0.950 . S
C1902 C1901 1.349 . S
C1902 C1914 1.349 . S
C1903 C1901 1.327 . S
C1903 C1919 1.429 . S
C1903 H1925 0.950 . S
C1904 H1900 0.949 . S
C1904 C1912 1.574 . S
C1904 C1920 1.368 . S
H1905 C1913 0.950 . S
H1906 C1911 0.950 . S
H1907 C1912 0.949 . S
H1908 C1914 0.950 . S
H1909 C1915 0.950 . S
H1910 C1916 0.949 . S
C1911 H1906 0.950 . S
C1911 C1913 1.327 . S
C1911 C1917 1.429 . S
C1912 C1904 1.574 . S
C1912 H1907 0.949 . S
C1912 C1918 1.368 . S
C1913 C1897 1.349 . S
C1913 H1905 0.950 . S
C1913 C1911 1.327 . S
C1914 C1902 1.349 . S
C1914 H1908 0.950 . S
C1914 C1915 1.327 . S
C1915 H1909 0.950 . S
C1915 C1914 1.327 . S
C1915 C1919 1.429 . S
C1916 C1899 1.574 . S
C1916 H1910 0.949 . S
C1916 C1920 1.368 . S
C1917 C1898 1.429 . S
C1917 C1911 1.429 . S
C1917 C1918 1.523 . S
C1918 C1899 1.368 . S
C1918 C1912 1.368 . S
C1918 C1917 1.523 . S
C1919 C1903 1.429 . S
C1919 C1915 1.429 . S
C1919 C1920 1.523 . S
C1920 C1904 1.368 . S
C1920 C1916 1.368 . S
C1920 C1919 1.523 . S
H1921 C1896 0.950 . S
H1922 C1898 0.950 . S
H1923 C1899 0.949 . S
H1924 C1901 0.950 . S
H1925 C1903 0.950 . S
C1926 C1927 1.349 . S
C1926 C1928 1.327 . S
C1926 H1951 0.950 . S
C1927 C1926 1.349 . S
C1927 C1943 1.349 . S
C1928 C1926 1.327 . S
C1928 C1947 1.429 . S
C1928 H1952 0.950 . S
C1929 C1946 1.574 . S
C1929 C1948 1.368 . S
C1929 H1953 0.949 . S
H1930 C1934 0.949 . S
C1931 C1932 1.349 . S
C1931 C1933 1.327 . S
C1931 H1954 0.950 . S
C1932 C1931 1.349 . S
C1932 C1944 1.349 . S
C1933 C1931 1.327 . S
C1933 C1949 1.429 . S
C1933 H1955 0.950 . S
C1934 H1930 0.949 . S
C1934 C1942 1.574 . S
C1934 C1950 1.368 . S
H1935 C1943 0.950 . S
H1936 C1941 0.950 . S
H1937 C1942 0.949 . S
H1938 C1944 0.950 . S
H1939 C1945 0.950 . S
H1940 C1946 0.949 . S
C1941 H1936 0.950 . S
C1941 C1943 1.327 . S
C1941 C1947 1.429 . S
C1942 C1934 1.574 . S
C1942 H1937 0.949 . S
C1942 C1948 1.368 . S
C1943 C1927 1.349 . S
C1943 H1935 0.950 . S
C1943 C1941 1.327 . S
C1944 C1932 1.349 . S
C1944 H1938 0.950 . S
C1944 C1945 1.327 . S
C1945 H1939 0.950 . S
C1945 C1944 1.327 . S
C1945 C1949 1.429 . S
C1946 C1929 1.574 . S
C1946 H1940 0.949 . S
C1946 C1950 1.368 . S
C1947 C1928 1.429 . S
C1947 C1941 1.429 . S
C1947 C1948 1.523 . S
C1948 C1929 1.368 . S
C1948 C1942 1.368 . S
C1948 C1947 1.523 . S
C1949 C1933 1.429 . S
C1949 C1945 1.429 . S
C1949 C1950 1.523 . S
C1950 C1934 1.368 . S
C1950 C1946 1.368 . S
C1950 C1949 1.523 . S
H1951 C1926 0.950 . S
H1952 C1928 0.950 . S
H1953 C1929 0.949 . S
H1954 C1931 0.950 . S
H1955 C1933 0.950 . S
C1956 C1957 1.349 . S
C1956 C1958 1.327 . S
C1956 H1981 0.950 . S
C1957 C1956 1.349 . S
C1957 C1973 1.349 . S
C1958 C1956 1.327 . S
C1958 C1977 1.429 . S
C1958 H1982 0.950 . S
C1959 C1976 1.574 1_554 S
C1959 C1978 1.368 . S
C1959 H1983 0.949 . S
H1960 C1964 0.949 . S
C1961 C1962 1.349 . S
C1961 C1963 1.327 . S
C1961 H1984 0.950 . S
C1962 C1961 1.349 . S
C1962 C1974 1.349 . S
C1963 C1961 1.327 . S
C1963 C1979 1.429 . S
C1963 H1985 0.950 . S
C1964 H1960 0.949 . S
C1964 C1972 1.574 1_556 S
C1964 C1980 1.368 . S
H1965 C1973 0.950 . S
H1966 C1971 0.950 . S
H1967 C1972 0.949 . S
H1968 C1974 0.950 . S
H1969 C1975 0.950 . S
H1970 C1976 0.949 . S
C1971 H1966 0.950 . S
C1971 C1973 1.327 . S
C1971 C1977 1.429 . S
C1972 C1964 1.574 1_554 S
C1972 H1967 0.949 . S
C1972 C1978 1.368 . S
C1973 C1957 1.349 . S
C1973 H1965 0.950 . S
C1973 C1971 1.327 . S
C1974 C1962 1.349 . S
C1974 H1968 0.950 . S
C1974 C1975 1.327 . S
C1975 H1969 0.950 . S
C1975 C1974 1.327 . S
C1975 C1979 1.429 . S
C1976 C1959 1.574 1_556 S
C1976 H1970 0.949 . S
C1976 C1980 1.368 . S
C1977 C1958 1.429 . S
C1977 C1971 1.429 . S
C1977 C1978 1.523 . S
C1978 C1959 1.368 . S
C1978 C1972 1.368 . S
C1978 C1977 1.523 . S
C1979 C1963 1.429 . S
C1979 C1975 1.429 . S
C1979 C1980 1.523 . S
C1980 C1964 1.368 . S
C1980 C1976 1.368 . S
C1980 C1979 1.523 . S
H1981 C1956 0.950 . S
H1982 C1958 0.950 . S
H1983 C1959 0.949 . S
H1984 C1961 0.950 . S
H1985 C1963 0.950 . S
C1986 C1987 1.349 . S
C1986 C1988 1.327 . S
C1986 H2011 0.950 . S
C1987 C1986 1.349 . S
C1987 C2003 1.349 . S
C1988 C1986 1.327 . S
C1988 C2007 1.429 . S
C1988 H2012 0.950 . S
C1989 C2006 1.574 . S
C1989 C2008 1.368 . S
C1989 H2013 0.949 . S
H1990 C1994 0.949 . S
C1991 C1992 1.349 . S
C1991 C1993 1.327 . S
C1991 H2014 0.950 . S
C1992 C1991 1.349 . S
C1992 C2004 1.349 . S
C1993 C1991 1.327 . S
C1993 C2009 1.429 . S
C1993 H2015 0.950 . S
C1994 H1990 0.949 . S
C1994 C2002 1.574 . S
C1994 C2010 1.368 . S
H1995 C2003 0.950 . S
H1996 C2001 0.950 . S
H1997 C2002 0.949 . S
H1998 C2004 0.950 . S
H1999 C2005 0.950 . S
H2000 C2006 0.949 . S
C2001 H1996 0.950 . S
C2001 C2003 1.327 . S
C2001 C2007 1.429 . S
C2002 C1994 1.574 . S
C2002 H1997 0.949 . S
C2002 C2008 1.368 . S
C2003 C1987 1.349 . S
C2003 H1995 0.950 . S
C2003 C2001 1.327 . S
C2004 C1992 1.349 . S
C2004 H1998 0.950 . S
C2004 C2005 1.327 . S
C2005 H1999 0.950 . S
C2005 C2004 1.327 . S
C2005 C2009 1.429 . S
C2006 C1989 1.574 . S
C2006 H2000 0.949 . S
C2006 C2010 1.368 . S
C2007 C1988 1.429 . S
C2007 C2001 1.429 . S
C2007 C2008 1.523 . S
C2008 C1989 1.368 . S
C2008 C2002 1.368 . S
C2008 C2007 1.523 . S
C2009 C1993 1.429 . S
C2009 C2005 1.429 . S
C2009 C2010 1.523 . S
C2010 C1994 1.368 . S
C2010 C2006 1.368 . S
C2010 C2009 1.523 . S
H2011 C1986 0.950 . S
H2012 C1988 0.950 . S
H2013 C1989 0.949 . S
H2014 C1991 0.950 . S
H2015 C1993 0.950 . S
C2016 C2017 1.349 . S
C2016 C2018 1.327 . S
C2016 H2041 0.950 . S
C2017 C2016 1.349 . S
C2017 C2033 1.349 . S
C2018 C2016 1.327 . S
C2018 C2037 1.429 . S
C2018 H2042 0.950 . S
C2019 C2036 1.574 . S
C2019 C2038 1.368 . S
C2019 H2043 0.949 . S
H2020 C2024 0.949 . S
C2021 C2022 1.349 . S
C2021 C2023 1.327 . S
C2021 H2044 0.950 . S
C2022 C2021 1.349 . S
C2022 C2034 1.349 . S
C2023 C2021 1.327 . S
C2023 C2039 1.429 1_545 S
C2023 H2045 0.950 1_545 S
C2024 H2020 0.949 . S
C2024 C2032 1.574 . S
C2024 C2040 1.368 . S
H2025 C2033 0.950 . S
H2026 C2031 0.950 . S
H2027 C2032 0.949 . S
H2028 C2034 0.950 . S
H2029 C2035 0.950 . S
H2030 C2036 0.949 . S
C2031 H2026 0.950 . S
C2031 C2033 1.327 . S
C2031 C2037 1.429 . S
C2032 C2024 1.574 . S
C2032 H2027 0.949 . S
C2032 C2038 1.368 . S
C2033 C2017 1.349 . S
C2033 H2025 0.950 . S
C2033 C2031 1.327 . S
C2034 C2022 1.349 . S
C2034 H2028 0.950 . S
C2034 C2035 1.327 . S
C2035 H2029 0.950 . S
C2035 C2034 1.327 . S
C2035 C2039 1.429 1_545 S
C2036 C2019 1.574 . S
C2036 H2030 0.949 . S
C2036 C2040 1.368 . S
C2037 C2018 1.429 . S
C2037 C2031 1.429 . S
C2037 C2038 1.523 . S
C2038 C2019 1.368 . S
C2038 C2032 1.368 . S
C2038 C2037 1.523 . S
C2039 C2023 1.429 1_565 S
C2039 C2035 1.429 1_565 S
C2039 C2040 1.523 . S
C2040 C2024 1.368 . S
C2040 C2036 1.368 . S
C2040 C2039 1.523 . S
H2041 C2016 0.950 . S
H2042 C2018 0.950 . S
H2043 C2019 0.949 . S
H2044 C2021 0.950 . S
H2045 C2023 0.950 1_565 S
C2046 C2047 1.349 . S
C2046 C2048 1.327 . S
C2046 H2071 0.950 . S
C2047 C2046 1.349 . S
C2047 C2063 1.349 1_565 S
C2048 C2046 1.327 . S
C2048 C2067 1.429 . S
C2048 H2072 0.950 . S
C2049 C2066 1.574 . S
C2049 C2068 1.368 . S
C2049 H2073 0.949 . S
H2050 C2054 0.949 . S
C2051 C2052 1.349 . S
C2051 C2053 1.327 . S
C2051 H2074 0.950 . S
C2052 C2051 1.349 . S
C2052 C2064 1.349 . S
C2053 C2051 1.327 . S
C2053 C2069 1.429 . S
C2053 H2075 0.950 . S
C2054 H2050 0.949 . S
C2054 C2062 1.574 . S
C2054 C2070 1.368 1_565 S
H2055 C2063 0.950 . S
H2056 C2061 0.950 . S
H2057 C2062 0.949 . S
H2058 C2064 0.950 1_565 S
H2059 C2065 0.950 1_565 S
H2060 C2066 0.949 . S
C2061 H2056 0.950 . S
C2061 C2063 1.327 . S
C2061 C2067 1.429 1_545 S
C2062 C2054 1.574 . S
C2062 H2057 0.949 . S
C2062 C2068 1.368 1_565 S
C2063 C2047 1.349 1_545 S
C2063 H2055 0.950 . S
C2063 C2061 1.327 . S
C2064 C2052 1.349 . S
C2064 H2058 0.950 1_545 S
C2064 C2065 1.327 . S
C2065 H2059 0.950 1_545 S
C2065 C2064 1.327 . S
C2065 C2069 1.429 . S
C2066 C2049 1.574 . S
C2066 H2060 0.949 . S
C2066 C2070 1.368 . S
C2067 C2048 1.429 . S
C2067 C2061 1.429 1_565 S
C2067 C2068 1.523 1_565 S
C2068 C2049 1.368 . S
C2068 C2062 1.368 1_545 S
C2068 C2067 1.523 1_545 S
C2069 C2053 1.429 . S
C2069 C2065 1.429 . S
C2069 C2070 1.523 . S
C2070 C2054 1.368 1_545 S
C2070 C2066 1.368 . S
C2070 C2069 1.523 . S
H2071 C2046 0.950 . S
H2072 C2048 0.950 . S
H2073 C2049 0.949 . S
H2074 C2051 0.950 . S
H2075 C2053 0.950 . S
C2076 C2077 1.349 . S
C2076 C2078 1.327 . S
C2076 H2101 0.950 . S
C2077 C2076 1.349 . S
C2077 C2093 1.349 . S
C2078 C2076 1.327 . S
C2078 C2097 1.429 . S
C2078 H2102 0.950 . S
C2079 C2096 1.574 . S
C2079 C2098 1.368 . S
C2079 H2103 0.949 . S
H2080 C2084 0.949 . S
C2081 C2082 1.349 . S
C2081 C2083 1.327 . S
C2081 H2104 0.950 . S
C2082 C2081 1.349 . S
C2082 C2094 1.349 . S
C2083 C2081 1.327 . S
C2083 C2099 1.429 1_565 S
C2083 H2105 0.950 1_565 S
C2084 H2080 0.949 . S
C2084 C2092 1.574 . S
C2084 C2100 1.368 . S
H2085 C2093 0.950 . S
H2086 C2091 0.950 . S
H2087 C2092 0.949 . S
H2088 C2094 0.950 . S
H2089 C2095 0.950 . S
H2090 C2096 0.949 . S
C2091 H2086 0.950 . S
C2091 C2093 1.327 . S
C2091 C2097 1.429 . S
C2092 C2084 1.574 . S
C2092 H2087 0.949 . S
C2092 C2098 1.368 . S
C2093 C2077 1.349 . S
C2093 H2085 0.950 . S
C2093 C2091 1.327 . S
C2094 C2082 1.349 . S
C2094 H2088 0.950 . S
C2094 C2095 1.327 . S
C2095 H2089 0.950 . S
C2095 C2094 1.327 . S
C2095 C2099 1.429 1_565 S
C2096 C2079 1.574 . S
C2096 H2090 0.949 . S
C2096 C2100 1.368 . S
C2097 C2078 1.429 . S
C2097 C2091 1.429 . S
C2097 C2098 1.523 . S
C2098 C2079 1.368 . S
C2098 C2092 1.368 . S
C2098 C2097 1.523 . S
C2099 C2083 1.429 1_545 S
C2099 C2095 1.429 1_545 S
C2099 C2100 1.523 . S
C2100 C2084 1.368 . S
C2100 C2096 1.368 . S
C2100 C2099 1.523 . S
H2101 C2076 0.950 . S
H2102 C2078 0.950 . S
H2103 C2079 0.949 . S
H2104 C2081 0.950 . S
H2105 C2083 0.950 1_545 S
C2106 C2107 1.349 . S
C2106 C2108 1.327 . S
C2106 H2131 0.950 . S
C2107 C2106 1.349 . S
C2107 C2123 1.349 . S
C2108 C2106 1.327 . S
C2108 C2127 1.429 . S
C2108 H2132 0.950 . S
C2109 C2126 1.574 . S
C2109 C2128 1.368 . S
C2109 H2133 0.949 . S
H2110 C2114 0.949 . S
C2111 C2112 1.349 . S
C2111 C2113 1.327 . S
C2111 H2134 0.950 . S
C2112 C2111 1.349 . S
C2112 C2124 1.349 . S
C2113 C2111 1.327 . S
C2113 C2129 1.429 . S
C2113 H2135 0.950 . S
C2114 H2110 0.949 . S
C2114 C2122 1.574 . S
C2114 C2130 1.368 . S
H2115 C2123 0.950 . S
H2116 C2121 0.950 . S
H2117 C2122 0.949 . S
H2118 C2124 0.950 . S
H2119 C2125 0.956 . S
H2120 C2126 0.949 1_545 S
C2121 H2116 0.950 . S
C2121 C2123 1.327 . S
C2121 C2127 1.429 . S
C2122 C2114 1.574 . S
C2122 H2117 0.949 . S
C2122 C2128 1.368 . S
C2123 C2107 1.349 . S
C2123 H2115 0.950 . S
C2123 C2121 1.327 . S
C2124 C2112 1.349 . S
C2124 H2118 0.950 . S
C2124 C2125 1.327 . S
C2125 H2119 0.956 . S
C2125 C2124 1.327 . S
C2125 C2129 1.429 . S
C2126 C2109 1.574 . S
C2126 H2120 0.949 1_565 S
C2126 C2130 1.368 . S
C2127 C2108 1.429 . S
C2127 C2121 1.429 . S
C2127 C2128 1.523 . S
C2128 C2109 1.368 . S
C2128 C2122 1.368 . S
C2128 C2127 1.523 . S
C2129 C2113 1.429 . S
C2129 C2125 1.429 . S
C2129 C2130 1.523 1_545 S
C2130 C2114 1.368 . S
C2130 C2126 1.368 . S
C2130 C2129 1.523 1_565 S
H2131 C2106 0.950 . S
H2132 C2108 0.950 . S
H2133 C2109 0.949 . S
H2134 C2111 0.950 . S
H2135 C2113 0.950 . S
C2136 C2137 1.349 . S
C2136 C2138 1.327 . S
C2136 H2161 0.950 . S
C2137 C2136 1.349 . S
C2137 C2153 1.349 . S
C2138 C2136 1.327 . S
C2138 C2157 1.429 . S
C2138 H2162 0.950 . S
C2139 C2156 1.574 . S
C2139 C2158 1.368 . S
C2139 H2163 0.949 . S
H2140 C2144 0.949 . S
C2141 C2142 1.349 . S
C2141 C2143 1.327 . S
C2141 H2164 0.950 . S
C2142 C2141 1.349 . S
C2142 C2154 1.349 . S
C2143 C2141 1.327 . S
C2143 C2159 1.429 1_565 S
C2143 H2165 0.950 . S
C2144 H2140 0.949 . S
C2144 C2152 1.574 . S
C2144 C2160 1.368 . S
H2145 C2153 0.950 . S
H2146 C2151 0.950 . S
H2147 C2152 0.949 . S
H2148 C2154 0.950 . S
H2149 C2155 0.950 1_545 S
H2150 C2156 0.949 . S
C2151 H2146 0.950 . S
C2151 C2153 1.327 . S
C2151 C2157 1.429 . S
C2152 C2144 1.574 . S
C2152 H2147 0.949 . S
C2152 C2158 1.368 . S
C2153 C2137 1.349 . S
C2153 H2145 0.950 . S
C2153 C2151 1.327 . S
C2154 C2142 1.349 . S
C2154 H2148 0.950 . S
C2154 C2155 1.327 . S
C2155 H2149 0.950 1_565 S
C2155 C2154 1.327 . S
C2155 C2159 1.429 1_565 S
C2156 C2139 1.574 . S
C2156 H2150 0.949 . S
C2156 C2160 1.368 . S
C2157 C2138 1.429 . S
C2157 C2151 1.429 . S
C2157 C2158 1.523 . S
C2158 C2139 1.368 . S
C2158 C2152 1.368 . S
C2158 C2157 1.523 . S
C2159 C2143 1.429 1_545 S
C2159 C2155 1.429 1_545 S
C2159 C2160 1.523 . S
C2160 C2144 1.368 . S
C2160 C2156 1.368 . S
C2160 C2159 1.523 . S
H2161 C2136 0.950 . S
H2162 C2138 0.950 . S
H2163 C2139 0.949 . S
H2164 C2141 0.950 . S
H2165 C2143 0.950 . S
C2166 C2167 1.349 . S
C2166 C2168 1.327 . S
C2166 H2191 0.950 . S
C2167 C2166 1.349 . S
C2167 C2183 1.349 1_565 S
C2168 C2166 1.327 . S
C2168 C2187 1.429 . S
C2168 H2192 0.950 . S
C2169 C2186 1.574 . S
C2169 C2188 1.368 . S
C2169 H2193 0.949 . S
H2170 C2174 0.949 . S
C2171 C2172 1.349 . S
C2171 C2173 1.327 . S
C2171 H2194 0.950 . S
C2172 C2171 1.349 . S
C2172 C2184 1.349 . S
C2173 C2171 1.327 . S
C2173 C2189 1.429 . S
C2173 H2195 0.950 . S
C2174 H2170 0.949 . S
C2174 C2182 1.574 . S
C2174 C2190 1.368 1_565 S
H2175 C2183 0.950 . S
H2176 C2181 0.950 . S
H2177 C2182 0.949 . S
H2178 C2184 0.950 . S
H2179 C2185 0.950 1_565 S
H2180 C2186 0.949 . S
C2181 H2176 0.950 . S
C2181 C2183 1.327 . S
C2181 C2187 1.429 1_545 S
C2182 C2174 1.574 . S
C2182 H2177 0.949 . S
C2182 C2188 1.368 1_565 S
C2183 C2167 1.349 1_545 S
C2183 H2175 0.950 . S
C2183 C2181 1.327 . S
C2184 C2172 1.349 . S
C2184 H2178 0.950 . S
C2184 C2185 1.327 . S
C2185 H2179 0.950 1_545 S
C2185 C2184 1.327 . S
C2185 C2189 1.429 . S
C2186 C2169 1.574 . S
C2186 H2180 0.949 . S
C2186 C2190 1.368 . S
C2187 C2168 1.429 . S
C2187 C2181 1.429 1_565 S
C2187 C2188 1.523 1_565 S
C2188 C2169 1.368 . S
C2188 C2182 1.368 1_545 S
C2188 C2187 1.523 1_545 S
C2189 C2173 1.429 . S
C2189 C2185 1.429 . S
C2189 C2190 1.523 . S
C2190 C2174 1.368 1_545 S
C2190 C2186 1.368 . S
C2190 C2189 1.523 . S
H2191 C2166 0.950 . S
H2192 C2168 0.950 . S
H2193 C2169 0.949 . S
H2194 C2171 0.950 . S
H2195 C2173 0.950 . S
C2196 C2197 1.349 . S
C2196 C2198 1.327 . S
C2196 H2221 0.950 . S
C2197 C2196 1.349 . S
C2197 C2213 1.349 . S
C2198 C2196 1.327 . S
C2198 C2217 1.429 . S
C2198 H2222 0.950 . S
C2199 C2216 1.574 . S
C2199 C2218 1.368 . S
C2199 H2223 0.949 . S
H2200 C2204 0.949 . S
C2201 C2202 1.349 . S
C2201 C2203 1.327 . S
C2201 H2224 0.950 . S
C2202 C2201 1.349 . S
C2202 C2214 1.349 . S
C2203 C2201 1.327 . S
C2203 C2219 1.429 1_545 S
C2203 H2225 0.950 . S
C2204 H2200 0.949 . S
C2204 C2212 1.574 . S
C2204 C2220 1.368 . S
H2205 C2213 0.950 . S
H2206 C2211 0.950 . S
H2207 C2212 0.949 . S
H2208 C2214 0.950 . S
H2209 C2215 0.950 1_565 S
H2210 C2216 0.949 . S
C2211 H2206 0.950 . S
C2211 C2213 1.327 . S
C2211 C2217 1.429 . S
C2212 C2204 1.574 . S
C2212 H2207 0.949 . S
C2212 C2218 1.368 . S
C2213 C2197 1.349 . S
C2213 H2205 0.950 . S
C2213 C2211 1.327 . S
C2214 C2202 1.349 . S
C2214 H2208 0.950 . S
C2214 C2215 1.327 . S
C2215 H2209 0.950 1_545 S
C2215 C2214 1.327 . S
C2215 C2219 1.429 1_545 S
C2216 C2199 1.574 . S
C2216 H2210 0.949 . S
C2216 C2220 1.368 . S
C2217 C2198 1.429 . S
C2217 C2211 1.429 . S
C2217 C2218 1.523 . S
C2218 C2199 1.368 . S
C2218 C2212 1.368 . S
C2218 C2217 1.523 . S
C2219 C2203 1.429 1_565 S
C2219 C2215 1.429 1_565 S
C2219 C2220 1.523 . S
C2220 C2204 1.368 . S
C2220 C2216 1.368 . S
C2220 C2219 1.523 . S
H2221 C2196 0.950 . S
H2222 C2198 0.950 . S
H2223 C2199 0.949 . S
H2224 C2201 0.950 . S
H2225 C2203 0.950 . S
C2226 C2227 1.349 . S
C2226 C2228 1.327 . S
C2226 H2251 0.950 . S
C2227 C2226 1.349 . S
C2227 C2243 1.349 . S
C2228 C2226 1.327 . S
C2228 C2247 1.429 . S
C2228 H2252 0.950 . S
C2229 C2246 1.574 . S
C2229 C2248 1.368 . S
C2229 H2253 0.949 . S
H2230 C2234 0.949 . S
C2231 C2232 1.349 . S
C2231 C2233 1.327 1_545 S
C2231 H2254 0.950 1_545 S
C2232 C2231 1.349 . S
C2232 C2244 1.349 . S
C2233 C2231 1.327 1_565 S
C2233 C2249 1.429 1_565 S
C2233 H2255 0.950 . S
C2234 H2230 0.949 . S
C2234 C2242 1.571 1_545 S
C2234 C2250 1.368 1_545 S
H2235 C2243 0.950 . S
H2236 C2241 0.950 . S
H2237 C2242 0.946 1_545 S
H2238 C2244 0.950 . S
H2239 C2245 0.950 . S
H2240 C2246 0.949 . S
C2241 H2236 0.950 . S
C2241 C2243 1.327 . S
C2241 C2247 1.429 . S
C2242 C2234 1.571 1_565 S
C2242 H2237 0.946 1_565 S
C2242 C2248 1.374 . S
C2243 C2227 1.349 . S
C2243 H2235 0.950 . S
C2243 C2241 1.327 . S
C2244 C2232 1.349 . S
C2244 H2238 0.950 . S
C2244 C2245 1.327 . S
C2245 H2239 0.950 . S
C2245 C2244 1.327 . S
C2245 C2249 1.429 . S
C2246 C2229 1.574 . S
C2246 H2240 0.949 . S
C2246 C2250 1.368 . S
C2247 C2228 1.429 . S
C2247 C2241 1.429 . S
C2247 C2248 1.523 . S
C2248 C2229 1.368 . S
C2248 C2242 1.374 . S
C2248 C2247 1.523 . S
C2249 C2233 1.429 1_545 S
C2249 C2245 1.429 . S
C2249 C2250 1.523 1_545 S
C2250 C2234 1.368 1_565 S
C2250 C2246 1.368 . S
C2250 C2249 1.523 1_565 S
H2251 C2226 0.950 . S
H2252 C2228 0.950 . S
H2253 C2229 0.949 . S
H2254 C2231 0.950 1_565 S
H2255 C2233 0.950 . S
C2256 C2257 1.349 . S
C2256 C2258 1.327 . S
C2256 H2281 0.950 . S
C2257 C2256 1.349 . S
C2257 C2273 1.349 . S
C2258 C2256 1.327 . S
C2258 C2277 1.429 1_565 S
C2258 H2282 0.950 1_565 S
C2259 C2276 1.574 . S
C2259 C2278 1.368 . S
C2259 H2283 0.949 . S
H2260 C2264 0.949 . S
C2261 C2262 1.349 . S
C2261 C2263 1.327 . S
C2261 H2284 0.950 . S
C2262 C2261 1.349 . S
C2262 C2274 1.349 . S
C2263 C2261 1.327 . S
C2263 C2279 1.429 . S
C2263 H2285 0.950 . S
C2264 H2260 0.949 . S
C2264 C2272 1.574 . S
C2264 C2280 1.368 . S
H2265 C2273 0.950 . S
H2266 C2271 0.950 . S
H2267 C2272 0.949 . S
H2268 C2274 0.950 . S
H2269 C2275 0.950 . S
H2270 C2276 0.949 . S
C2271 H2266 0.950 . S
C2271 C2273 1.327 . S
C2271 C2277 1.429 1_565 S
C2272 C2264 1.574 . S
C2272 H2267 0.949 . S
C2272 C2278 1.368 . S
C2273 C2257 1.349 . S
C2273 H2265 0.950 . S
C2273 C2271 1.327 . S
C2274 C2262 1.349 . S
C2274 H2268 0.950 . S
C2274 C2275 1.327 . S
C2275 H2269 0.950 . S
C2275 C2274 1.327 . S
C2275 C2279 1.429 . S
C2276 C2259 1.574 . S
C2276 H2270 0.949 . S
C2276 C2280 1.368 . S
C2277 C2258 1.429 1_545 S
C2277 C2271 1.429 1_545 S
C2277 C2278 1.523 . S
C2278 C2259 1.368 . S
C2278 C2272 1.368 . S
C2278 C2277 1.523 . S
C2279 C2263 1.429 . S
C2279 C2275 1.429 . S
C2279 C2280 1.523 . S
C2280 C2264 1.368 . S
C2280 C2276 1.368 . S
C2280 C2279 1.523 . S
H2281 C2256 0.950 . S
H2282 C2258 0.950 1_545 S
H2283 C2259 0.949 . S
H2284 C2261 0.950 . S
H2285 C2263 0.950 . S
C2286 C2287 1.349 . S
C2286 C2288 1.327 . S
C2286 H2311 0.950 . S
C2287 C2286 1.349 . S
C2287 C2303 1.349 . S
C2288 C2286 1.327 . S
C2288 C2307 1.429 . S
C2288 H2312 0.950 . S
C2289 C2306 1.574 . S
C2289 C2308 1.368 1_545 S
C2289 H2313 0.949 . S
H2290 C2294 0.949 . S
C2291 C2292 1.349 . S
C2291 C2293 1.327 . S
C2291 H2314 0.950 . S
C2292 C2291 1.349 . S
C2292 C2304 1.349 1_545 S
C2293 C2291 1.327 . S
C2293 C2309 1.429 . S
C2293 H2315 0.950 . S
C2294 H2290 0.949 . S
C2294 C2302 1.574 . S
C2294 C2310 1.368 . S
H2295 C2303 0.950 1_545 S
H2296 C2301 0.950 1_545 S
H2297 C2302 0.949 . S
H2298 C2304 0.950 . S
H2299 C2305 0.950 . S
H2300 C2306 0.949 . S
C2301 H2296 0.950 1_565 S
C2301 C2303 1.327 . S
C2301 C2307 1.429 . S
C2302 C2294 1.574 . S
C2302 H2297 0.949 . S
C2302 C2308 1.368 . S
C2303 C2287 1.349 . S
C2303 H2295 0.950 1_565 S
C2303 C2301 1.327 . S
C2304 C2292 1.349 1_565 S
C2304 H2298 0.950 . S
C2304 C2305 1.327 . S
C2305 H2299 0.950 . S
C2305 C2304 1.327 . S
C2305 C2309 1.429 1_565 S
C2306 C2289 1.574 . S
C2306 H2300 0.949 . S
C2306 C2310 1.368 1_545 S
C2307 C2288 1.429 . S
C2307 C2301 1.429 . S
C2307 C2308 1.523 . S
C2308 C2289 1.368 1_565 S
C2308 C2302 1.368 . S
C2308 C2307 1.523 . S
C2309 C2293 1.429 . S
C2309 C2305 1.429 1_545 S
C2309 C2310 1.523 1_545 S
C2310 C2294 1.368 . S
C2310 C2306 1.368 1_565 S
C2310 C2309 1.523 1_565 S
H2311 C2286 0.950 . S
H2312 C2288 0.950 . S
H2313 C2289 0.949 . S
H2314 C2291 0.950 . S
H2315 C2293 0.950 . S
C2316 C2317 1.349 . S
C2316 C2318 1.327 . S
C2316 H2341 0.950 . S
C2317 C2316 1.349 . S
C2317 C2333 1.349 . S
C2318 C2316 1.327 . S
C2318 C2337 1.429 1_545 S
C2318 H2342 0.950 1_545 S
C2319 C2336 1.574 . S
C2319 C2338 1.368 . S
C2319 H2343 0.949 . S
H2320 C2324 0.949 . S
C2321 C2322 1.349 . S
C2321 C2323 1.327 . S
C2321 H2344 0.950 . S
C2322 C2321 1.349 . S
C2322 C2334 1.349 . S
C2323 C2321 1.327 . S
C2323 C2339 1.429 . S
C2323 H2345 0.950 . S
C2324 H2320 0.949 . S
C2324 C2332 1.574 . S
C2324 C2340 1.368 . S
H2325 C2333 0.950 . S
H2326 C2331 0.950 . S
H2327 C2332 0.949 . S
H2328 C2334 0.950 . S
H2329 C2335 0.950 . S
H2330 C2336 0.949 . S
C2331 H2326 0.950 . S
C2331 C2333 1.327 . S
C2331 C2337 1.429 1_545 S
C2332 C2324 1.574 . S
C2332 H2327 0.949 . S
C2332 C2338 1.368 . S
C2333 C2317 1.349 . S
C2333 H2325 0.950 . S
C2333 C2331 1.327 . S
C2334 C2322 1.349 . S
C2334 H2328 0.950 . S
C2334 C2335 1.327 . S
C2335 H2329 0.950 . S
C2335 C2334 1.327 . S
C2335 C2339 1.429 . S
C2336 C2319 1.574 . S
C2336 H2330 0.949 . S
C2336 C2340 1.368 . S
C2337 C2318 1.429 1_565 S
C2337 C2331 1.429 1_565 S
C2337 C2338 1.523 . S
C2338 C2319 1.368 . S
C2338 C2332 1.368 . S
C2338 C2337 1.523 . S
C2339 C2323 1.429 . S
C2339 C2335 1.429 . S
C2339 C2340 1.523 . S
C2340 C2324 1.368 . S
C2340 C2336 1.368 . S
C2340 C2339 1.523 . S
H2341 C2316 0.950 . S
H2342 C2318 0.950 1_565 S
H2343 C2319 0.949 . S
H2344 C2321 0.950 . S
H2345 C2323 0.950 . S
C2346 C2347 1.349 . S
C2346 C2348 1.327 . S
C2346 H2371 0.950 . S
C2347 C2346 1.349 . S
C2347 C2363 1.349 1_565 S
C2348 C2346 1.327 . S
C2348 C2367 1.429 . S
C2348 H2372 0.950 . S
C2349 C2366 1.574 . S
C2349 C2368 1.368 . S
C2349 H2373 0.949 . S
H2350 C2354 0.949 . S
C2351 C2352 1.349 . S
C2351 C2353 1.327 . S
C2351 H2374 0.950 . S
C2352 C2351 1.349 . S
C2352 C2364 1.349 . S
C2353 C2351 1.327 . S
C2353 C2369 1.429 . S
C2353 H2375 0.950 . S
C2354 H2350 0.949 . S
C2354 C2362 1.574 . S
C2354 C2370 1.368 1_565 S
H2355 C2363 0.950 . S
H2356 C2361 0.950 . S
H2357 C2362 0.949 . S
H2358 C2364 0.950 1_565 S
H2359 C2365 0.950 1_565 S
H2360 C2366 0.949 . S
C2361 H2356 0.950 . S
C2361 C2363 1.327 . S
C2361 C2367 1.429 1_545 S
C2362 C2354 1.574 . S
C2362 H2357 0.949 . S
C2362 C2368 1.368 1_565 S
C2363 C2347 1.349 1_545 S
C2363 H2355 0.950 . S
C2363 C2361 1.327 . S
C2364 C2352 1.349 . S
C2364 H2358 0.950 1_545 S
C2364 C2365 1.327 . S
C2365 H2359 0.950 1_545 S
C2365 C2364 1.327 . S
C2365 C2369 1.429 . S
C2366 C2349 1.574 . S
C2366 H2360 0.949 . S
C2366 C2370 1.368 . S
C2367 C2348 1.429 . S
C2367 C2361 1.429 1_565 S
C2367 C2368 1.523 1_565 S
C2368 C2349 1.368 . S
C2368 C2362 1.368 1_545 S
C2368 C2367 1.523 1_545 S
C2369 C2353 1.429 . S
C2369 C2365 1.429 . S
C2369 C2370 1.523 . S
C2370 C2354 1.368 1_545 S
C2370 C2366 1.368 . S
C2370 C2369 1.523 . S
H2371 C2346 0.950 . S
H2372 C2348 0.950 . S
H2373 C2349 0.949 . S
H2374 C2351 0.950 . S
H2375 C2353 0.950 . S
C2376 C2377 1.349 . S
C2376 C2378 1.327 . S
C2376 H2401 0.950 . S
C2377 C2376 1.349 . S
C2377 C2393 1.349 . S
C2378 C2376 1.327 . S
C2378 C2397 1.429 . S
C2378 H2402 0.950 . S
C2379 C2396 1.574 . S
C2379 C2398 1.368 . S
C2379 H2403 0.949 . S
H2380 C2384 0.949 . S
C2381 C2382 1.349 . S
C2381 C2383 1.327 . S
C2381 H2404 0.950 . S
C2382 C2381 1.349 . S
C2382 C2394 1.349 . S
C2383 C2381 1.327 . S
C2383 C2399 1.429 1_545 S
C2383 H2405 0.950 1_545 S
C2384 H2380 0.949 . S
C2384 C2392 1.574 . S
C2384 C2400 1.368 . S
H2385 C2393 0.950 . S
H2386 C2391 0.950 . S
H2387 C2392 0.949 . S
H2388 C2394 0.950 . S
H2389 C2395 0.950 . S
H2390 C2396 0.949 . S
C2391 H2386 0.950 . S
C2391 C2393 1.327 . S
C2391 C2397 1.429 . S
C2392 C2384 1.574 . S
C2392 H2387 0.949 . S
C2392 C2398 1.368 . S
C2393 C2377 1.349 . S
C2393 H2385 0.950 . S
C2393 C2391 1.327 . S
C2394 C2382 1.349 . S
C2394 H2388 0.950 . S
C2394 C2395 1.327 . S
C2395 H2389 0.950 . S
C2395 C2394 1.327 . S
C2395 C2399 1.429 1_545 S
C2396 C2379 1.574 . S
C2396 H2390 0.949 . S
C2396 C2400 1.368 . S
C2397 C2378 1.429 . S
C2397 C2391 1.429 . S
C2397 C2398 1.523 . S
C2398 C2379 1.368 . S
C2398 C2392 1.368 . S
C2398 C2397 1.523 . S
C2399 C2383 1.429 1_565 S
C2399 C2395 1.429 1_565 S
C2399 C2400 1.523 . S
C2400 C2384 1.368 . S
C2400 C2396 1.368 . S
C2400 C2399 1.523 . S
H2401 C2376 0.950 . S
H2402 C2378 0.950 . S
H2403 C2379 0.949 . S
H2404 C2381 0.950 . S
H2405 C2383 0.950 1_565 S
C2406 C2407 1.349 . S
C2406 C2408 1.327 . S
C2406 H2431 0.950 . S
C2407 C2406 1.349 . S
C2407 C2423 1.349 . S
C2408 C2406 1.327 . S
C2408 C2427 1.429 . S
C2408 H2432 0.970 . S
C2409 C2426 1.574 . S
C2409 C2428 1.368 . S
C2409 H2433 0.949 . S
H2410 C2414 0.949 . S
C2411 C2412 1.349 . S
C2411 C2413 1.327 1_545 S
C2411 H2434 0.950 1_545 S
C2412 C2411 1.349 . S
C2412 C2424 1.349 . S
C2413 C2411 1.327 1_565 S
C2413 C2429 1.429 1_565 S
C2413 H2435 0.950 . S
C2414 H2410 0.949 . S
C2414 C2422 1.574 . S
C2414 C2430 1.368 1_545 S
H2415 C2423 0.950 . S
H2416 C2421 0.950 . S
H2417 C2422 0.949 . S
H2418 C2424 0.950 . S
H2419 C2425 0.950 . S
H2420 C2426 0.949 . S
C2421 H2416 0.950 . S
C2421 C2423 1.327 . S
C2421 C2427 1.429 . S
C2422 C2414 1.574 . S
C2422 H2417 0.949 . S
C2422 C2428 1.368 1_545 S
C2423 C2407 1.349 . S
C2423 H2415 0.950 . S
C2423 C2421 1.327 . S
C2424 C2412 1.349 . S
C2424 H2418 0.950 . S
C2424 C2425 1.327 . S
C2425 H2419 0.950 . S
C2425 C2424 1.327 . S
C2425 C2429 1.429 . S
C2426 C2409 1.574 . S
C2426 H2420 0.949 . S
C2426 C2430 1.368 . S
C2427 C2408 1.429 . S
C2427 C2421 1.429 . S
C2427 C2428 1.523 . S
C2428 C2409 1.368 . S
C2428 C2422 1.368 1_565 S
C2428 C2427 1.523 . S
C2429 C2413 1.429 1_545 S
C2429 C2425 1.429 . S
C2429 C2430 1.523 1_545 S
C2430 C2414 1.368 1_565 S
C2430 C2426 1.368 . S
C2430 C2429 1.523 1_565 S
H2431 C2406 0.950 . S
H2432 C2408 0.970 . S
H2433 C2409 0.949 . S
H2434 C2411 0.950 1_565 S
H2435 C2413 0.950 . S
C2436 C2437 1.349 . S
C2436 C2438 1.327 . S
C2436 H2461 0.950 . S
C2437 C2436 1.349 . S
C2437 C2453 1.349 . S
C2438 C2436 1.327 . S
C2438 C2457 1.429 1_565 S
C2438 H2462 0.950 . S
C2439 C2456 1.574 . S
C2439 C2458 1.368 . S
C2439 H2463 0.949 . S
H2440 C2444 0.949 . S
C2441 C2442 1.349 . S
C2441 C2443 1.327 . S
C2441 H2464 0.950 . S
C2442 C2441 1.349 . S
C2442 C2454 1.349 . S
C2443 C2441 1.327 . S
C2443 C2459 1.429 . S
C2443 H2465 0.950 . S
C2444 H2440 0.949 . S
C2444 C2452 1.574 . S
C2444 C2460 1.368 . S
H2445 C2453 0.950 . S
H2446 C2451 0.950 1_545 S
H2447 C2452 0.949 . S
H2448 C2454 0.950 . S
H2449 C2455 0.950 . S
H2450 C2456 0.949 . S
C2451 H2446 0.950 1_565 S
C2451 C2453 1.327 . S
C2451 C2457 1.429 1_565 S
C2452 C2444 1.574 . S
C2452 H2447 0.949 . S
C2452 C2458 1.368 . S
C2453 C2437 1.349 . S
C2453 H2445 0.950 . S
C2453 C2451 1.327 . S
C2454 C2442 1.349 . S
C2454 H2448 0.950 . S
C2454 C2455 1.327 . S
C2455 H2449 0.950 . S
C2455 C2454 1.327 . S
C2455 C2459 1.429 . S
C2456 C2439 1.574 . S
C2456 H2450 0.949 . S
C2456 C2460 1.368 . S
C2457 C2438 1.429 1_545 S
C2457 C2451 1.429 1_545 S
C2457 C2458 1.523 . S
C2458 C2439 1.368 . S
C2458 C2452 1.368 . S
C2458 C2457 1.523 . S
C2459 C2443 1.429 . S
C2459 C2455 1.429 . S
C2459 C2460 1.523 . S
C2460 C2444 1.368 . S
C2460 C2456 1.368 . S
C2460 C2459 1.523 . S
H2461 C2436 0.950 . S
H2462 C2438 0.950 . S
H2463 C2439 0.949 . S
H2464 C2441 0.950 . S
H2465 C2443 0.950 . S
C2466 C2467 1.349 . S
C2466 C2468 1.327 . S
C2466 H2491 0.945 1_545 S
C2467 C2466 1.349 . S
C2467 C2483 1.349 . S
C2468 C2466 1.327 . S
C2468 C2487 1.429 . S
C2468 H2492 0.950 1_545 S
C2469 C2486 1.574 . S
C2469 C2488 1.368 . S
C2469 H2493 0.949 . S
H2470 C2474 0.949 . S
C2471 C2472 1.349 1_545 S
C2471 C2473 1.327 . S
C2471 H2494 0.950 . S
C2472 C2471 1.349 1_565 S
C2472 C2484 1.349 . S
C2473 C2471 1.327 . S
C2473 C2489 1.429 1_545 S
C2473 H2495 0.950 . S
C2474 H2470 0.949 . S
C2474 C2482 1.574 . S
C2474 C2490 1.368 1_565 S
H2475 C2483 0.950 . S
H2476 C2481 0.950 . S
H2477 C2482 0.949 . S
H2478 C2484 0.950 . S
H2479 C2485 0.950 . S
H2480 C2486 0.949 . S
C2481 H2476 0.950 . S
C2481 C2483 1.327 . S
C2481 C2487 1.429 . S
C2482 C2474 1.574 . S
C2482 H2477 0.949 . S
C2482 C2488 1.368 1_565 S
C2483 C2467 1.349 . S
C2483 H2475 0.950 . S
C2483 C2481 1.327 . S
C2484 C2472 1.349 . S
C2484 H2478 0.950 . S
C2484 C2485 1.327 . S
C2485 H2479 0.950 . S
C2485 C2484 1.327 . S
C2485 C2489 1.429 . S
C2486 C2469 1.574 . S
C2486 H2480 0.949 . S
C2486 C2490 1.368 . S
C2487 C2468 1.429 . S
C2487 C2481 1.429 . S
C2487 C2488 1.523 . S
C2488 C2469 1.368 . S
C2488 C2482 1.368 1_545 S
C2488 C2487 1.523 . S
C2489 C2473 1.429 1_565 S
C2489 C2485 1.429 . S
C2489 C2490 1.523 1_565 S
C2490 C2474 1.368 1_545 S
C2490 C2486 1.368 . S
C2490 C2489 1.523 1_545 S
H2491 C2466 0.945 1_565 S
H2492 C2468 0.950 1_565 S
H2493 C2469 0.949 . S
H2494 C2471 0.950 . S
H2495 C2473 0.950 . S
C2496 C2497 1.349 . S
C2496 C2498 1.327 . S
C2496 H2521 0.950 . S
C2497 C2496 1.349 . S
C2497 C2513 1.349 . S
C2498 C2496 1.327 . S
C2498 C2517 1.429 . S
C2498 H2522 0.950 . S
C2499 C2516 1.574 . S
C2499 C2518 1.368 . S
C2499 H2523 0.949 . S
H2500 C2504 0.949 . S
C2501 C2502 1.349 . S
C2501 C2503 1.327 . S
C2501 H2524 0.950 . S
C2502 C2501 1.349 . S
C2502 C2514 1.349 . S
C2503 C2501 1.327 . S
C2503 C2519 1.429 . S
C2503 H2525 0.950 . S
C2504 H2500 0.949 . S
C2504 C2512 1.574 . S
C2504 C2520 1.368 . S
H2505 C2513 0.950 . S
H2506 C2511 0.950 . S
H2507 C2512 0.949 . S
H2508 C2514 0.950 . S
H2509 C2515 0.950 . S
H2510 C2516 0.949 . S
C2511 H2506 0.950 . S
C2511 C2513 1.327 . S
C2511 C2517 1.429 . S
C2512 C2504 1.574 . S
C2512 H2507 0.949 . S
C2512 C2518 1.368 . S
C2513 C2497 1.349 . S
C2513 H2505 0.950 . S
C2513 C2511 1.327 . S
C2514 C2502 1.349 . S
C2514 H2508 0.950 . S
C2514 C2515 1.327 . S
C2515 H2509 0.950 . S
C2515 C2514 1.327 . S
C2515 C2519 1.429 . S
C2516 C2499 1.574 . S
C2516 H2510 0.949 . S
C2516 C2520 1.368 . S
C2517 C2498 1.429 . S
C2517 C2511 1.429 . S
C2517 C2518 1.523 . S
C2518 C2499 1.368 . S
C2518 C2512 1.368 . S
C2518 C2517 1.523 . S
C2519 C2503 1.429 . S
C2519 C2515 1.429 . S
C2519 C2520 1.523 . S
C2520 C2504 1.368 . S
C2520 C2516 1.368 . S
C2520 C2519 1.523 . S
H2521 C2496 0.950 . S
H2522 C2498 0.950 . S
H2523 C2499 0.949 . S
H2524 C2501 0.950 . S
H2525 C2503 0.950 . S
C2526 C2527 1.349 . S
C2526 C2528 1.327 . S
C2526 H2551 0.950 . S
C2527 C2526 1.349 . S
C2527 C2543 1.349 . S
C2528 C2526 1.327 . S
C2528 C2547 1.429 . S
C2528 H2552 0.950 . S
C2529 C2546 1.574 . S
C2529 C2548 1.368 . S
C2529 H2553 0.949 . S
H2530 C2534 0.949 . S
C2531 C2532 1.349 . S
C2531 C2533 1.327 . S
C2531 H2554 0.950 . S
C2532 C2531 1.349 . S
C2532 C2544 1.349 . S
C2533 C2531 1.327 . S
C2533 C2549 1.429 . S
C2533 H2555 0.950 . S
C2534 H2530 0.949 . S
C2534 C2542 1.574 . S
C2534 C2550 1.368 . S
H2535 C2543 0.950 . S
H2536 C2541 0.950 . S
H2537 C2542 0.949 . S
H2538 C2544 0.950 . S
H2539 C2545 0.950 . S
H2540 C2546 0.949 . S
C2541 H2536 0.950 . S
C2541 C2543 1.327 . S
C2541 C2547 1.429 . S
C2542 C2534 1.574 . S
C2542 H2537 0.949 . S
C2542 C2548 1.368 . S
C2543 C2527 1.349 . S
C2543 H2535 0.950 . S
C2543 C2541 1.327 . S
C2544 C2532 1.349 . S
C2544 H2538 0.950 . S
C2544 C2545 1.327 . S
C2545 H2539 0.950 . S
C2545 C2544 1.327 . S
C2545 C2549 1.429 . S
C2546 C2529 1.574 . S
C2546 H2540 0.949 . S
C2546 C2550 1.368 . S
C2547 C2528 1.429 . S
C2547 C2541 1.429 . S
C2547 C2548 1.523 . S
C2548 C2529 1.368 . S
C2548 C2542 1.368 . S
C2548 C2547 1.523 . S
C2549 C2533 1.429 . S
C2549 C2545 1.429 . S
C2549 C2550 1.523 . S
C2550 C2534 1.368 . S
C2550 C2546 1.368 . S
C2550 C2549 1.523 . S
H2551 C2526 0.950 . S
H2552 C2528 0.950 . S
H2553 C2529 0.949 . S
H2554 C2531 0.950 . S
H2555 C2533 0.950 . S
C2556 C2557 1.349 . S
C2556 C2558 1.327 . S
C2556 H2581 0.950 . S
C2557 C2556 1.349 . S
C2557 C2573 1.349 . S
C2558 C2556 1.327 . S
C2558 C2577 1.429 . S
C2558 H2582 0.950 . S
C2559 C2576 1.574 . S
C2559 C2578 1.368 . S
C2559 H2583 0.949 . S
H2560 C2564 0.949 . S
C2561 C2562 1.349 . S
C2561 C2563 1.327 . S
C2561 H2584 0.950 . S
C2562 C2561 1.349 . S
C2562 C2574 1.349 . S
C2563 C2561 1.327 . S
C2563 C2579 1.429 . S
C2563 H2585 0.950 . S
C2564 H2560 0.949 . S
C2564 C2572 1.574 . S
C2564 C2580 1.368 . S
H2565 C2573 0.950 . S
H2566 C2571 0.950 . S
H2567 C2572 0.949 . S
H2568 C2574 0.950 . S
H2569 C2575 0.950 . S
H2570 C2576 0.949 . S
C2571 H2566 0.950 . S
C2571 C2573 1.327 . S
C2571 C2577 1.429 . S
C2572 C2564 1.574 . S
C2572 H2567 0.949 . S
C2572 C2578 1.368 . S
C2573 C2557 1.349 . S
C2573 H2565 0.950 . S
C2573 C2571 1.327 . S
C2574 C2562 1.349 . S
C2574 H2568 0.950 . S
C2574 C2575 1.327 . S
C2575 H2569 0.950 . S
C2575 C2574 1.327 . S
C2575 C2579 1.429 . S
C2576 C2559 1.574 . S
C2576 H2570 0.949 . S
C2576 C2580 1.368 . S
C2577 C2558 1.429 . S
C2577 C2571 1.429 . S
C2577 C2578 1.523 . S
C2578 C2559 1.368 . S
C2578 C2572 1.368 . S
C2578 C2577 1.523 . S
C2579 C2563 1.429 . S
C2579 C2575 1.429 . S
C2579 C2580 1.523 . S
C2580 C2564 1.368 . S
C2580 C2576 1.368 . S
C2580 C2579 1.523 . S
H2581 C2556 0.950 . S
H2582 C2558 0.950 . S
H2583 C2559 0.949 . S
H2584 C2561 0.950 . S
H2585 C2563 0.950 . S
C2586 C2587 1.349 . S
C2586 C2588 1.327 . S
C2586 H2611 0.950 . S
C2587 C2586 1.349 . S
C2587 C2603 1.349 . S
C2588 C2586 1.327 . S
C2588 C2607 1.429 . S
C2588 H2612 0.950 . S
C2589 C2606 1.574 . S
C2589 C2608 1.368 . S
C2589 H2613 0.949 . S
H2590 C2594 0.949 . S
C2591 C2592 1.349 . S
C2591 C2593 1.327 . S
C2591 H2614 0.950 . S
C2592 C2591 1.349 . S
C2592 C2604 1.349 . S
C2593 C2591 1.327 . S
C2593 C2609 1.429 . S
C2593 H2615 0.950 . S
C2594 H2590 0.949 . S
C2594 C2602 1.574 . S
C2594 C2610 1.368 . S
H2595 C2603 0.950 . S
H2596 C2601 0.950 . S
H2597 C2602 0.949 . S
H2598 C2604 0.950 . S
H2599 C2605 0.950 . S
H2600 C2606 0.949 . S
C2601 H2596 0.950 . S
C2601 C2603 1.327 . S
C2601 C2607 1.429 . S
C2602 C2594 1.574 . S
C2602 H2597 0.949 . S
C2602 C2608 1.368 . S
C2603 C2587 1.349 . S
C2603 H2595 0.950 . S
C2603 C2601 1.327 . S
C2604 C2592 1.349 . S
C2604 H2598 0.950 . S
C2604 C2605 1.327 . S
C2605 H2599 0.950 . S
C2605 C2604 1.327 . S
C2605 C2609 1.429 . S
C2606 C2589 1.574 . S
C2606 H2600 0.949 . S
C2606 C2610 1.368 . S
C2607 C2588 1.429 . S
C2607 C2601 1.429 . S
C2607 C2608 1.523 . S
C2608 C2589 1.368 . S
C2608 C2602 1.368 . S
C2608 C2607 1.523 . S
C2609 C2593 1.429 . S
C2609 C2605 1.429 . S
C2609 C2610 1.523 . S
C2610 C2594 1.368 . S
C2610 C2606 1.368 . S
C2610 C2609 1.523 . S
H2611 C2586 0.950 . S
H2612 C2588 0.950 . S
H2613 C2589 0.949 . S
H2614 C2591 0.950 . S
H2615 C2593 0.950 . S
C2616 C2617 1.349 . S
C2616 C2618 1.327 . S
C2616 H2641 0.950 . S
C2617 C2616 1.349 . S
C2617 C2633 1.349 . S
C2618 C2616 1.327 . S
C2618 C2637 1.429 . S
C2618 H2642 0.950 . S
C2619 C2636 1.574 . S
C2619 C2638 1.368 . S
C2619 H2643 0.949 . S
H2620 C2624 0.949 . S
C2621 C2622 1.349 . S
C2621 C2623 1.327 . S
C2621 H2644 0.950 . S
C2622 C2621 1.349 . S
C2622 C2634 1.349 . S
C2623 C2621 1.327 . S
C2623 C2639 1.429 . S
C2623 H2645 0.950 . S
C2624 H2620 0.949 . S
C2624 C2632 1.574 . S
C2624 C2640 1.368 . S
H2625 C2633 0.950 . S
H2626 C2631 0.950 . S
H2627 C2632 0.949 . S
H2628 C2634 0.950 . S
H2629 C2635 0.950 . S
H2630 C2636 0.949 . S
C2631 H2626 0.950 . S
C2631 C2633 1.327 . S
C2631 C2637 1.429 . S
C2632 C2624 1.574 . S
C2632 H2627 0.949 . S
C2632 C2638 1.368 . S
C2633 C2617 1.349 . S
C2633 H2625 0.950 . S
C2633 C2631 1.327 . S
C2634 C2622 1.349 . S
C2634 H2628 0.950 . S
C2634 C2635 1.327 . S
C2635 H2629 0.950 . S
C2635 C2634 1.327 . S
C2635 C2639 1.429 . S
C2636 C2619 1.574 . S
C2636 H2630 0.949 . S
C2636 C2640 1.368 . S
C2637 C2618 1.429 . S
C2637 C2631 1.429 . S
C2637 C2638 1.523 . S
C2638 C2619 1.368 . S
C2638 C2632 1.368 . S
C2638 C2637 1.523 . S
C2639 C2623 1.429 . S
C2639 C2635 1.429 . S
C2639 C2640 1.523 . S
C2640 C2624 1.368 . S
C2640 C2636 1.368 . S
C2640 C2639 1.523 . S
H2641 C2616 0.950 . S
H2642 C2618 0.950 . S
H2643 C2619 0.949 . S
H2644 C2621 0.950 . S
H2645 C2623 0.950 . S
C2646 C2647 1.349 . S
C2646 C2648 1.327 . S
C2646 H2671 0.950 . S
C2647 C2646 1.349 . S
C2647 C2663 1.349 . S
C2648 C2646 1.327 . S
C2648 C2667 1.429 . S
C2648 H2672 0.950 . S
C2649 C2666 1.574 . S
C2649 C2668 1.368 . S
C2649 H2673 0.949 . S
H2650 C2654 0.949 . S
C2651 C2652 1.349 . S
C2651 C2653 1.327 . S
C2651 H2674 0.950 . S
C2652 C2651 1.349 . S
C2652 C2664 1.349 . S
C2653 C2651 1.327 . S
C2653 C2669 1.429 . S
C2653 H2675 0.950 . S
C2654 H2650 0.949 . S
C2654 C2662 1.574 . S
C2654 C2670 1.368 . S
H2655 C2663 0.950 . S
H2656 C2661 0.950 . S
H2657 C2662 0.949 . S
H2658 C2664 0.950 . S
H2659 C2665 0.950 . S
H2660 C2666 0.949 . S
C2661 H2656 0.950 . S
C2661 C2663 1.327 . S
C2661 C2667 1.429 . S
C2662 C2654 1.574 . S
C2662 H2657 0.949 . S
C2662 C2668 1.368 . S
C2663 C2647 1.349 . S
C2663 H2655 0.950 . S
C2663 C2661 1.327 . S
C2664 C2652 1.349 . S
C2664 H2658 0.950 . S
C2664 C2665 1.327 . S
C2665 H2659 0.950 . S
C2665 C2664 1.327 . S
C2665 C2669 1.429 . S
C2666 C2649 1.574 . S
C2666 H2660 0.949 . S
C2666 C2670 1.368 . S
C2667 C2648 1.429 . S
C2667 C2661 1.429 . S
C2667 C2668 1.523 . S
C2668 C2649 1.368 . S
C2668 C2662 1.368 . S
C2668 C2667 1.523 . S
C2669 C2653 1.429 . S
C2669 C2665 1.429 . S
C2669 C2670 1.523 . S
C2670 C2654 1.368 . S
C2670 C2666 1.368 . S
C2670 C2669 1.523 . S
H2671 C2646 0.950 . S
H2672 C2648 0.950 . S
H2673 C2649 0.949 . S
H2674 C2651 0.950 . S
H2675 C2653 0.950 . S
C2676 C2677 1.349 . S
C2676 C2678 1.327 . S
C2676 H2701 0.950 . S
C2677 C2676 1.349 . S
C2677 C2693 1.349 . S
C2678 C2676 1.327 . S
C2678 C2697 1.429 . S
C2678 H2702 0.950 . S
C2679 C2696 1.574 . S
C2679 C2698 1.368 . S
C2679 H2703 0.949 . S
H2680 C2684 0.949 . S
C2681 C2682 1.349 . S
C2681 C2683 1.327 . S
C2681 H2704 0.950 . S
C2682 C2681 1.349 . S
C2682 C2694 1.349 . S
C2683 C2681 1.327 . S
C2683 C2699 1.429 . S
C2683 H2705 0.950 . S
C2684 H2680 0.949 . S
C2684 C2692 1.574 . S
C2684 C2700 1.368 . S
H2685 C2693 0.950 . S
H2686 C2691 0.950 . S
H2687 C2692 0.949 . S
H2688 C2694 0.950 . S
H2689 C2695 0.950 . S
H2690 C2696 0.949 . S
C2691 H2686 0.950 . S
C2691 C2693 1.327 . S
C2691 C2697 1.429 . S
C2692 C2684 1.574 . S
C2692 H2687 0.949 . S
C2692 C2698 1.368 . S
C2693 C2677 1.349 . S
C2693 H2685 0.950 . S
C2693 C2691 1.327 . S
C2694 C2682 1.349 . S
C2694 H2688 0.950 . S
C2694 C2695 1.327 . S
C2695 H2689 0.950 . S
C2695 C2694 1.327 . S
C2695 C2699 1.429 . S
C2696 C2679 1.574 . S
C2696 H2690 0.949 . S
C2696 C2700 1.368 . S
C2697 C2678 1.429 . S
C2697 C2691 1.429 . S
C2697 C2698 1.523 . S
C2698 C2679 1.368 . S
C2698 C2692 1.368 . S
C2698 C2697 1.523 . S
C2699 C2683 1.429 . S
C2699 C2695 1.429 . S
C2699 C2700 1.523 . S
C2700 C2684 1.368 . S
C2700 C2696 1.368 . S
C2700 C2699 1.523 . S
H2701 C2676 0.950 . S
H2702 C2678 0.950 . S
H2703 C2679 0.949 . S
H2704 C2681 0.950 . S
H2705 C2683 0.950 . S
C2706 C2707 1.349 . S
C2706 C2708 1.327 . S
C2706 H2731 0.950 . S
C2707 C2706 1.349 . S
C2707 C2723 1.349 . S
C2708 C2706 1.327 . S
C2708 C2727 1.429 . S
C2708 H2732 0.950 . S
C2709 C2726 1.574 . S
C2709 C2728 1.368 . S
C2709 H2733 0.949 . S
H2710 C2714 0.949 . S
C2711 C2712 1.349 . S
C2711 C2713 1.327 . S
C2711 H2734 0.950 . S
C2712 C2711 1.349 . S
C2712 C2724 1.349 . S
C2713 C2711 1.327 . S
C2713 C2729 1.429 . S
C2713 H2735 0.950 . S
C2714 H2710 0.949 . S
C2714 C2722 1.574 . S
C2714 C2730 1.368 . S
H2715 C2723 0.950 . S
H2716 C2721 0.950 . S
H2717 C2722 0.949 . S
H2718 C2724 0.950 . S
H2719 C2725 0.950 . S
H2720 C2726 0.949 . S
C2721 H2716 0.950 . S
C2721 C2723 1.327 . S
C2721 C2727 1.429 . S
C2722 C2714 1.574 . S
C2722 H2717 0.949 . S
C2722 C2728 1.368 . S
C2723 C2707 1.349 . S
C2723 H2715 0.950 . S
C2723 C2721 1.327 . S
C2724 C2712 1.349 . S
C2724 H2718 0.950 . S
C2724 C2725 1.327 . S
C2725 H2719 0.950 . S
C2725 C2724 1.327 . S
C2725 C2729 1.429 . S
C2726 C2709 1.574 . S
C2726 H2720 0.949 . S
C2726 C2730 1.368 . S
C2727 C2708 1.429 . S
C2727 C2721 1.429 . S
C2727 C2728 1.523 . S
C2728 C2709 1.368 . S
C2728 C2722 1.368 . S
C2728 C2727 1.523 . S
C2729 C2713 1.429 . S
C2729 C2725 1.429 . S
C2729 C2730 1.523 . S
C2730 C2714 1.368 . S
C2730 C2726 1.368 . S
C2730 C2729 1.523 . S
H2731 C2706 0.950 . S
H2732 C2708 0.950 . S
H2733 C2709 0.949 . S
H2734 C2711 0.950 . S
H2735 C2713 0.950 . S
C2736 C2737 1.349 . S
C2736 C2738 1.327 . S
C2736 H2761 0.950 . S
C2737 C2736 1.349 . S
C2737 C2753 1.349 . S
C2738 C2736 1.327 . S
C2738 C2757 1.429 . S
C2738 H2762 0.950 . S
C2739 C2756 1.574 . S
C2739 C2758 1.368 . S
C2739 H2763 0.949 . S
H2740 C2744 0.949 . S
C2741 C2742 1.349 . S
C2741 C2743 1.327 . S
C2741 H2764 0.950 . S
C2742 C2741 1.349 . S
C2742 C2754 1.349 . S
C2743 C2741 1.327 . S
C2743 C2759 1.429 . S
C2743 H2765 0.950 . S
C2744 H2740 0.949 . S
C2744 C2752 1.574 . S
C2744 C2760 1.368 . S
H2745 C2753 0.950 . S
H2746 C2751 0.950 . S
H2747 C2752 0.949 . S
H2748 C2754 0.950 . S
H2749 C2755 0.950 . S
H2750 C2756 0.949 . S
C2751 H2746 0.950 . S
C2751 C2753 1.327 . S
C2751 C2757 1.429 . S
C2752 C2744 1.574 . S
C2752 H2747 0.949 . S
C2752 C2758 1.368 . S
C2753 C2737 1.349 . S
C2753 H2745 0.950 . S
C2753 C2751 1.327 . S
C2754 C2742 1.349 . S
C2754 H2748 0.950 . S
C2754 C2755 1.327 . S
C2755 H2749 0.950 . S
C2755 C2754 1.327 . S
C2755 C2759 1.429 . S
C2756 C2739 1.574 . S
C2756 H2750 0.949 . S
C2756 C2760 1.368 . S
C2757 C2738 1.429 . S
C2757 C2751 1.429 . S
C2757 C2758 1.523 . S
C2758 C2739 1.368 . S
C2758 C2752 1.368 . S
C2758 C2757 1.523 . S
C2759 C2743 1.429 . S
C2759 C2755 1.429 . S
C2759 C2760 1.523 . S
C2760 C2744 1.368 . S
C2760 C2756 1.368 . S
C2760 C2759 1.523 . S
H2761 C2736 0.950 . S
H2762 C2738 0.950 . S
H2763 C2739 0.949 . S
H2764 C2741 0.950 . S
H2765 C2743 0.950 . S
C2766 C2767 1.349 . S
C2766 C2768 1.327 . S
C2766 H2791 0.950 . S
C2767 C2766 1.349 . S
C2767 C2783 1.349 . S
C2768 C2766 1.327 . S
C2768 C2787 1.429 . S
C2768 H2792 0.950 . S
C2769 C2786 1.574 . S
C2769 C2788 1.368 . S
C2769 H2793 0.949 . S
H2770 C2774 0.949 . S
C2771 C2772 1.349 . S
C2771 C2773 1.327 . S
C2771 H2794 0.950 . S
C2772 C2771 1.349 . S
C2772 C2784 1.349 . S
C2773 C2771 1.327 . S
C2773 C2789 1.429 . S
C2773 H2795 0.950 . S
C2774 H2770 0.949 . S
C2774 C2782 1.574 . S
C2774 C2790 1.368 . S
H2775 C2783 0.950 . S
H2776 C2781 0.950 . S
H2777 C2782 0.949 . S
H2778 C2784 0.950 . S
H2779 C2785 0.950 . S
H2780 C2786 0.949 . S
C2781 H2776 0.950 . S
C2781 C2783 1.327 . S
C2781 C2787 1.429 . S
C2782 C2774 1.574 . S
C2782 H2777 0.949 . S
C2782 C2788 1.368 . S
C2783 C2767 1.349 . S
C2783 H2775 0.950 . S
C2783 C2781 1.327 . S
C2784 C2772 1.349 . S
C2784 H2778 0.950 . S
C2784 C2785 1.327 . S
C2785 H2779 0.950 . S
C2785 C2784 1.327 . S
C2785 C2789 1.429 . S
C2786 C2769 1.574 . S
C2786 H2780 0.949 . S
C2786 C2790 1.368 . S
C2787 C2768 1.429 . S
C2787 C2781 1.429 . S
C2787 C2788 1.523 . S
C2788 C2769 1.368 . S
C2788 C2782 1.368 . S
C2788 C2787 1.523 . S
C2789 C2773 1.429 . S
C2789 C2785 1.429 . S
C2789 C2790 1.523 . S
C2790 C2774 1.368 . S
C2790 C2786 1.368 . S
C2790 C2789 1.523 . S
H2791 C2766 0.950 . S
H2792 C2768 0.950 . S
H2793 C2769 0.949 . S
H2794 C2771 0.950 . S
H2795 C2773 0.950 . S
C2796 C2797 1.349 . S
C2796 C2798 1.327 . S
C2796 H2821 0.950 . S
C2797 C2796 1.349 . S
C2797 C2813 1.349 . S
C2798 C2796 1.327 . S
C2798 C2817 1.429 . S
C2798 H2822 0.950 . S
C2799 C2816 1.574 . S
C2799 C2818 1.368 . S
C2799 H2823 0.949 . S
H2800 C2804 0.949 . S
C2801 C2802 1.349 . S
C2801 C2803 1.327 . S
C2801 H2824 0.950 . S
C2802 C2801 1.349 . S
C2802 C2814 1.349 . S
C2803 C2801 1.327 . S
C2803 C2819 1.429 . S
C2803 H2825 0.950 . S
C2804 H2800 0.949 . S
C2804 C2812 1.574 . S
C2804 C2820 1.368 . S
H2805 C2813 0.950 . S
H2806 C2811 0.950 . S
H2807 C2812 0.949 . S
H2808 C2814 0.950 . S
H2809 C2815 0.950 . S
H2810 C2816 0.949 . S
C2811 H2806 0.950 . S
C2811 C2813 1.327 . S
C2811 C2817 1.429 . S
C2812 C2804 1.574 . S
C2812 H2807 0.949 . S
C2812 C2818 1.368 . S
C2813 C2797 1.349 . S
C2813 H2805 0.950 . S
C2813 C2811 1.327 . S
C2814 C2802 1.349 . S
C2814 H2808 0.950 . S
C2814 C2815 1.327 . S
C2815 H2809 0.950 . S
C2815 C2814 1.327 . S
C2815 C2819 1.429 . S
C2816 C2799 1.574 . S
C2816 H2810 0.949 . S
C2816 C2820 1.368 . S
C2817 C2798 1.429 . S
C2817 C2811 1.429 . S
C2817 C2818 1.523 . S
C2818 C2799 1.368 . S
C2818 C2812 1.368 . S
C2818 C2817 1.523 . S
C2819 C2803 1.429 . S
C2819 C2815 1.429 . S
C2819 C2820 1.523 . S
C2820 C2804 1.368 . S
C2820 C2816 1.368 . S
C2820 C2819 1.523 . S
H2821 C2796 0.950 . S
H2822 C2798 0.950 . S
H2823 C2799 0.949 . S
H2824 C2801 0.950 . S
H2825 C2803 0.950 . S
C2826 C2827 1.349 . S
C2826 C2828 1.327 . S
C2826 H2851 0.950 . S
C2827 C2826 1.349 . S
C2827 C2843 1.349 . S
C2828 C2826 1.327 . S
C2828 C2847 1.429 . S
C2828 H2852 0.950 . S
C2829 C2846 1.574 . S
C2829 C2848 1.368 . S
C2829 H2853 0.949 . S
H2830 C2834 0.949 . S
C2831 C2832 1.349 . S
C2831 C2833 1.327 . S
C2831 H2854 0.950 . S
C2832 C2831 1.349 . S
C2832 C2844 1.349 . S
C2833 C2831 1.327 . S
C2833 C2849 1.429 . S
C2833 H2855 0.950 . S
C2834 H2830 0.949 . S
C2834 C2842 1.574 . S
C2834 C2850 1.368 . S
H2835 C2843 0.950 . S
H2836 C2841 0.950 . S
H2837 C2842 0.949 . S
H2838 C2844 0.950 . S
H2839 C2845 0.950 . S
H2840 C2846 0.949 . S
C2841 H2836 0.950 . S
C2841 C2843 1.327 . S
C2841 C2847 1.429 . S
C2842 C2834 1.574 . S
C2842 H2837 0.949 . S
C2842 C2848 1.368 . S
C2843 C2827 1.349 . S
C2843 H2835 0.950 . S
C2843 C2841 1.327 . S
C2844 C2832 1.349 . S
C2844 H2838 0.950 . S
C2844 C2845 1.327 . S
C2845 H2839 0.950 . S
C2845 C2844 1.327 . S
C2845 C2849 1.429 . S
C2846 C2829 1.574 . S
C2846 H2840 0.949 . S
C2846 C2850 1.368 . S
C2847 C2828 1.429 . S
C2847 C2841 1.429 . S
C2847 C2848 1.523 . S
C2848 C2829 1.368 . S
C2848 C2842 1.368 . S
C2848 C2847 1.523 . S
C2849 C2833 1.429 . S
C2849 C2845 1.429 . S
C2849 C2850 1.523 . S
C2850 C2834 1.368 . S
C2850 C2846 1.368 . S
C2850 C2849 1.523 . S
H2851 C2826 0.950 . S
H2852 C2828 0.950 . S
H2853 C2829 0.949 . S
H2854 C2831 0.950 . S
H2855 C2833 0.950 . S
C2856 C2857 1.349 . S
C2856 C2858 1.327 . S
C2856 H2881 0.950 . S
C2857 C2856 1.349 . S
C2857 C2873 1.349 . S
C2858 C2856 1.327 . S
C2858 C2877 1.429 . S
C2858 H2882 0.950 . S
C2859 C2876 1.574 . S
C2859 C2878 1.368 . S
C2859 H2883 0.949 . S
H2860 C2864 0.949 . S
C2861 C2862 1.349 . S
C2861 C2863 1.327 . S
C2861 H2884 0.950 . S
C2862 C2861 1.349 . S
C2862 C2874 1.349 . S
C2863 C2861 1.327 . S
C2863 C2879 1.429 . S
C2863 H2885 0.950 . S
C2864 H2860 0.949 . S
C2864 C2872 1.574 . S
C2864 C2880 1.368 . S
H2865 C2873 0.950 . S
H2866 C2871 0.950 . S
H2867 C2872 0.949 . S
H2868 C2874 0.950 . S
H2869 C2875 0.950 . S
H2870 C2876 0.949 . S
C2871 H2866 0.950 . S
C2871 C2873 1.327 . S
C2871 C2877 1.429 . S
C2872 C2864 1.574 . S
C2872 H2867 0.949 . S
C2872 C2878 1.368 . S
C2873 C2857 1.349 . S
C2873 H2865 0.950 . S
C2873 C2871 1.327 . S
C2874 C2862 1.349 . S
C2874 H2868 0.950 . S
C2874 C2875 1.327 . S
C2875 H2869 0.950 . S
C2875 C2874 1.327 . S
C2875 C2879 1.429 . S
C2876 C2859 1.574 . S
C2876 H2870 0.949 . S
C2876 C2880 1.368 . S
C2877 C2858 1.429 . S
C2877 C2871 1.429 . S
C2877 C2878 1.523 . S
C2878 C2859 1.368 . S
C2878 C2872 1.368 . S
C2878 C2877 1.523 . S
C2879 C2863 1.429 . S
C2879 C2875 1.429 . S
C2879 C2880 1.523 . S
C2880 C2864 1.368 . S
C2880 C2876 1.368 . S
C2880 C2879 1.523 . S
H2881 C2856 0.950 . S
H2882 C2858 0.950 . S
H2883 C2859 0.949 . S
H2884 C2861 0.950 . S
H2885 C2863 0.950 . S
C2886 C2887 1.349 . S
C2886 C2888 1.327 . S
C2886 H2911 0.950 . S
C2887 C2886 1.349 . S
C2887 C2903 1.349 . S
C2888 C2886 1.327 . S
C2888 C2907 1.429 . S
C2888 H2912 0.950 . S
C2889 C2906 1.574 . S
C2889 C2908 1.368 . S
C2889 H2913 0.949 . S
H2890 C2894 0.949 . S
C2891 C2892 1.349 . S
C2891 C2893 1.327 . S
C2891 H2914 0.950 . S
C2892 C2891 1.349 . S
C2892 C2904 1.349 . S
C2893 C2891 1.327 . S
C2893 C2909 1.429 . S
C2893 H2915 0.950 . S
C2894 H2890 0.949 . S
C2894 C2902 1.574 . S
C2894 C2910 1.368 . S
H2895 C2903 0.950 . S
H2896 C2901 0.950 . S
H2897 C2902 0.949 . S
H2898 C2904 0.950 . S
H2899 C2905 0.950 . S
H2900 C2906 0.949 . S
C2901 H2896 0.950 . S
C2901 C2903 1.327 . S
C2901 C2907 1.429 . S
C2902 C2894 1.574 . S
C2902 H2897 0.949 . S
C2902 C2908 1.368 . S
C2903 C2887 1.349 . S
C2903 H2895 0.950 . S
C2903 C2901 1.327 . S
C2904 C2892 1.349 . S
C2904 H2898 0.950 . S
C2904 C2905 1.327 . S
C2905 H2899 0.950 . S
C2905 C2904 1.327 . S
C2905 C2909 1.429 . S
C2906 C2889 1.574 . S
C2906 H2900 0.949 . S
C2906 C2910 1.368 . S
C2907 C2888 1.429 . S
C2907 C2901 1.429 . S
C2907 C2908 1.523 . S
C2908 C2889 1.368 . S
C2908 C2902 1.368 . S
C2908 C2907 1.523 . S
C2909 C2893 1.429 . S
C2909 C2905 1.429 . S
C2909 C2910 1.523 . S
C2910 C2894 1.368 . S
C2910 C2906 1.368 . S
C2910 C2909 1.523 . S
H2911 C2886 0.950 . S
H2912 C2888 0.950 . S
H2913 C2889 0.949 . S
H2914 C2891 0.950 . S
H2915 C2893 0.950 . S
C2916 C2917 1.349 . S
C2916 C2918 1.327 . S
C2916 H2941 0.950 . S
C2917 C2916 1.349 . S
C2917 C2933 1.349 . S
C2918 C2916 1.327 . S
C2918 C2937 1.429 . S
C2918 H2942 0.950 . S
C2919 C2936 1.574 . S
C2919 C2938 1.368 . S
C2919 H2943 0.949 . S
H2920 C2924 0.949 . S
C2921 C2922 1.349 . S
C2921 C2923 1.327 . S
C2921 H2944 0.950 . S
C2922 C2921 1.349 . S
C2922 C2934 1.349 . S
C2923 C2921 1.327 . S
C2923 C2939 1.429 . S
C2923 H2945 0.950 . S
C2924 H2920 0.949 . S
C2924 C2932 1.574 . S
C2924 C2940 1.368 . S
H2925 C2933 0.950 . S
H2926 C2931 0.950 . S
H2927 C2932 0.949 . S
H2928 C2934 0.950 . S
H2929 C2935 0.950 . S
H2930 C2936 0.949 . S
C2931 H2926 0.950 . S
C2931 C2933 1.327 . S
C2931 C2937 1.429 . S
C2932 C2924 1.574 . S
C2932 H2927 0.949 . S
C2932 C2938 1.368 . S
C2933 C2917 1.349 . S
C2933 H2925 0.950 . S
C2933 C2931 1.327 . S
C2934 C2922 1.349 . S
C2934 H2928 0.950 . S
C2934 C2935 1.327 . S
C2935 H2929 0.950 . S
C2935 C2934 1.327 . S
C2935 C2939 1.429 . S
C2936 C2919 1.574 . S
C2936 H2930 0.949 . S
C2936 C2940 1.368 . S
C2937 C2918 1.429 . S
C2937 C2931 1.429 . S
C2937 C2938 1.523 . S
C2938 C2919 1.368 . S
C2938 C2932 1.368 . S
C2938 C2937 1.523 . S
C2939 C2923 1.429 . S
C2939 C2935 1.429 . S
C2939 C2940 1.523 . S
C2940 C2924 1.368 . S
C2940 C2936 1.368 . S
C2940 C2939 1.523 . S
H2941 C2916 0.950 . S
H2942 C2918 0.950 . S
H2943 C2919 0.949 . S
H2944 C2921 0.950 . S
H2945 C2923 0.950 . S
C2946 C2947 1.349 . S
C2946 C2948 1.327 . S
C2946 H2971 0.950 . S
C2947 C2946 1.349 . S
C2947 C2963 1.349 . S
C2948 C2946 1.327 . S
C2948 C2967 1.429 . S
C2948 H2972 0.950 . S
C2949 C2966 1.574 . S
C2949 C2968 1.368 . S
C2949 H2973 0.949 . S
H2950 C2954 0.949 . S
C2951 C2952 1.349 . S
C2951 C2953 1.327 . S
C2951 H2974 0.950 . S
C2952 C2951 1.349 . S
C2952 C2964 1.349 . S
C2953 C2951 1.327 . S
C2953 C2969 1.429 . S
C2953 H2975 0.950 . S
C2954 H2950 0.949 . S
C2954 C2962 1.574 . S
C2954 C2970 1.368 . S
H2955 C2963 0.950 . S
H2956 C2961 0.950 . S
H2957 C2962 0.949 . S
H2958 C2964 0.950 . S
H2959 C2965 0.950 . S
H2960 C2966 0.949 . S
C2961 H2956 0.950 . S
C2961 C2963 1.327 . S
C2961 C2967 1.429 . S
C2962 C2954 1.574 . S
C2962 H2957 0.949 . S
C2962 C2968 1.368 . S
C2963 C2947 1.349 . S
C2963 H2955 0.950 . S
C2963 C2961 1.327 . S
C2964 C2952 1.349 . S
C2964 H2958 0.950 . S
C2964 C2965 1.327 . S
C2965 H2959 0.950 . S
C2965 C2964 1.327 . S
C2965 C2969 1.429 . S
C2966 C2949 1.574 . S
C2966 H2960 0.949 . S
C2966 C2970 1.368 . S
C2967 C2948 1.429 . S
C2967 C2961 1.429 . S
C2967 C2968 1.523 . S
C2968 C2949 1.368 . S
C2968 C2962 1.368 . S
C2968 C2967 1.523 . S
C2969 C2953 1.429 . S
C2969 C2965 1.429 . S
C2969 C2970 1.523 . S
C2970 C2954 1.368 . S
C2970 C2966 1.368 . S
C2970 C2969 1.523 . S
H2971 C2946 0.950 . S
H2972 C2948 0.950 . S
H2973 C2949 0.949 . S
H2974 C2951 0.950 . S
H2975 C2953 0.950 . S
C2976 C2977 1.349 . S
C2976 C2978 1.327 . S
C2976 H3001 0.950 . S
C2977 C2976 1.349 . S
C2977 C2993 1.349 . S
C2978 C2976 1.327 . S
C2978 C2997 1.429 . S
C2978 H3002 0.950 . S
C2979 C2996 1.574 . S
C2979 C2998 1.368 . S
C2979 H3003 0.949 . S
H2980 C2984 0.949 . S
C2981 C2982 1.349 . S
C2981 C2983 1.327 . S
C2981 H3004 0.950 . S
C2982 C2981 1.349 . S
C2982 C2994 1.349 . S
C2983 C2981 1.327 . S
C2983 C2999 1.429 . S
C2983 H3005 0.950 . S
C2984 H2980 0.949 . S
C2984 C2992 1.574 . S
C2984 C3000 1.368 . S
H2985 C2993 0.950 . S
H2986 C2991 0.950 . S
H2987 C2992 0.949 . S
H2988 C2994 0.950 . S
H2989 C2995 0.950 . S
H2990 C2996 0.949 . S
C2991 H2986 0.950 . S
C2991 C2993 1.327 . S
C2991 C2997 1.429 . S
C2992 C2984 1.574 . S
C2992 H2987 0.949 . S
C2992 C2998 1.368 . S
C2993 C2977 1.349 . S
C2993 H2985 0.950 . S
C2993 C2991 1.327 . S
C2994 C2982 1.349 . S
C2994 H2988 0.950 . S
C2994 C2995 1.327 . S
C2995 H2989 0.950 . S
C2995 C2994 1.327 . S
C2995 C2999 1.429 . S
C2996 C2979 1.574 . S
C2996 H2990 0.949 . S
C2996 C3000 1.368 . S
C2997 C2978 1.429 . S
C2997 C2991 1.429 . S
C2997 C2998 1.523 . S
C2998 C2979 1.368 . S
C2998 C2992 1.368 . S
C2998 C2997 1.523 . S
C2999 C2983 1.429 . S
C2999 C2995 1.429 . S
C2999 C3000 1.523 . S
C3000 C2984 1.368 . S
C3000 C2996 1.368 . S
C3000 C2999 1.523 . S
H3001 C2976 0.950 . S
H3002 C2978 0.950 . S
H3003 C2979 0.949 . S
H3004 C2981 0.950 . S
H3005 C2983 0.950 . S
C3006 C3007 1.349 . S
C3006 C3008 1.327 . S
C3006 H3031 0.950 . S
C3007 C3006 1.349 . S
C3007 C3023 1.349 . S
C3008 C3006 1.327 . S
C3008 C3027 1.429 . S
C3008 H3032 0.950 1_655 S
C3009 C3026 1.574 . S
C3009 C3028 1.368 . S
C3009 H3033 0.949 . S
H3010 C3014 0.949 . S
C3011 C3012 1.349 . S
C3011 C3013 1.327 . S
C3011 H3034 0.950 . S
C3012 C3011 1.349 . S
C3012 C3024 1.349 . S
C3013 C3011 1.327 . S
C3013 C3029 1.429 . S
C3013 H3035 0.950 1_455 S
C3014 H3010 0.949 . S
C3014 C3022 1.574 . S
C3014 C3030 1.368 . S
H3015 C3023 0.950 . S
H3016 C3021 0.950 . S
H3017 C3022 0.949 . S
H3018 C3024 0.950 . S
H3019 C3025 0.950 . S
H3020 C3026 0.949 . S
C3021 H3016 0.950 . S
C3021 C3023 1.327 . S
C3021 C3027 1.429 . S
C3022 C3014 1.574 . S
C3022 H3017 0.949 . S
C3022 C3028 1.368 1_455 S
C3023 C3007 1.349 . S
C3023 H3015 0.950 . S
C3023 C3021 1.327 . S
C3024 C3012 1.349 . S
C3024 H3018 0.950 . S
C3024 C3025 1.327 . S
C3025 H3019 0.950 . S
C3025 C3024 1.327 . S
C3025 C3029 1.429 . S
C3026 C3009 1.574 . S
C3026 H3020 0.949 . S
C3026 C3030 1.368 1_655 S
C3027 C3008 1.429 . S
C3027 C3021 1.429 . S
C3027 C3028 1.523 . S
C3028 C3009 1.368 . S
C3028 C3022 1.368 1_655 S
C3028 C3027 1.523 . S
C3029 C3013 1.429 . S
C3029 C3025 1.429 . S
C3029 C3030 1.523 . S
C3030 C3014 1.368 . S
C3030 C3026 1.368 1_455 S
C3030 C3029 1.523 . S
H3031 C3006 0.950 . S
H3032 C3008 0.950 1_455 S
H3033 C3009 0.949 . S
H3034 C3011 0.950 . S
H3035 C3013 0.950 1_655 S
C3036 C3037 1.349 . S
C3036 C3038 1.327 . S
C3036 H3061 0.950 . S
C3037 C3036 1.349 . S
C3037 C3053 1.349 . S
C3038 C3036 1.327 . S
C3038 C3057 1.429 . S
C3038 H3062 0.950 . S
C3039 C3056 1.574 1_455 S
C3039 C3058 1.368 . S
C3039 H3063 0.949 . S
H3040 C3044 0.949 . S
C3041 C3042 1.349 . S
C3041 C3043 1.327 . S
C3041 H3064 0.950 . S
C3042 C3041 1.349 . S
C3042 C3054 1.349 . S
C3043 C3041 1.327 . S
C3043 C3059 1.429 . S
C3043 H3065 0.950 . S
C3044 H3040 0.949 . S
C3044 C3052 1.574 1_655 S
C3044 C3060 1.368 . S
H3045 C3053 0.950 . S
H3046 C3051 0.950 . S
H3047 C3052 0.949 . S
H3048 C3054 0.950 . S
H3049 C3055 0.950 . S
H3050 C3056 0.949 . S
C3051 H3046 0.950 . S
C3051 C3053 1.327 . S
C3051 C3057 1.429 . S
C3052 C3044 1.574 1_455 S
C3052 H3047 0.949 . S
C3052 C3058 1.368 . S
C3053 C3037 1.349 . S
C3053 H3045 0.950 . S
C3053 C3051 1.327 . S
C3054 C3042 1.349 . S
C3054 H3048 0.950 . S
C3054 C3055 1.327 . S
C3055 H3049 0.950 . S
C3055 C3054 1.327 . S
C3055 C3059 1.429 . S
C3056 C3039 1.574 1_655 S
C3056 H3050 0.949 . S
C3056 C3060 1.368 . S
C3057 C3038 1.429 . S
C3057 C3051 1.429 . S
C3057 C3058 1.523 . S
C3058 C3039 1.368 . S
C3058 C3052 1.368 . S
C3058 C3057 1.523 . S
C3059 C3043 1.429 . S
C3059 C3055 1.429 . S
C3059 C3060 1.523 . S
C3060 C3044 1.368 . S
C3060 C3056 1.368 . S
C3060 C3059 1.523 . S
H3061 C3036 0.950 . S
H3062 C3038 0.950 . S
H3063 C3039 0.949 . S
H3064 C3041 0.950 . S
H3065 C3043 0.950 . S
C3066 C3067 1.349 . S
C3066 C3068 1.327 . S
C3066 H3091 0.950 . S
C3067 C3066 1.349 . S
C3067 C3083 1.349 . S
C3068 C3066 1.327 . S
C3068 C3087 1.429 . S
C3068 H3092 0.950 . S
C3069 C3086 1.574 . S
C3069 C3088 1.368 . S
C3069 H3093 0.949 . S
H3070 C3074 0.949 . S
C3071 C3072 1.349 . S
C3071 C3073 1.327 . S
C3071 H3094 0.950 . S
C3072 C3071 1.349 . S
C3072 C3084 1.349 . S
C3073 C3071 1.327 . S
C3073 C3089 1.429 . S
C3073 H3095 0.950 . S
C3074 H3070 0.949 . S
C3074 C3082 1.574 . S
C3074 C3090 1.368 . S
H3075 C3083 0.950 . S
H3076 C3081 0.950 . S
H3077 C3082 0.949 . S
H3078 C3084 0.950 . S
H3079 C3085 0.950 . S
H3080 C3086 0.949 . S
C3081 H3076 0.950 . S
C3081 C3083 1.327 . S
C3081 C3087 1.429 . S
C3082 C3074 1.574 . S
C3082 H3077 0.949 . S
C3082 C3088 1.368 . S
C3083 C3067 1.349 . S
C3083 H3075 0.950 . S
C3083 C3081 1.327 . S
C3084 C3072 1.349 . S
C3084 H3078 0.950 . S
C3084 C3085 1.327 . S
C3085 H3079 0.950 . S
C3085 C3084 1.327 . S
C3085 C3089 1.429 . S
C3086 C3069 1.574 . S
C3086 H3080 0.949 . S
C3086 C3090 1.368 . S
C3087 C3068 1.429 . S
C3087 C3081 1.429 . S
C3087 C3088 1.523 . S
C3088 C3069 1.368 . S
C3088 C3082 1.368 . S
C3088 C3087 1.523 . S
C3089 C3073 1.429 . S
C3089 C3085 1.429 . S
C3089 C3090 1.523 . S
C3090 C3074 1.368 . S
C3090 C3086 1.368 . S
C3090 C3089 1.523 . S
H3091 C3066 0.950 . S
H3092 C3068 0.950 . S
H3093 C3069 0.949 . S
H3094 C3071 0.950 . S
H3095 C3073 0.950 . S
C3096 C3097 1.349 . S
C3096 C3098 1.327 . S
C3096 H3121 0.950 . S
C3097 C3096 1.349 . S
C3097 C3113 1.349 . S
C3098 C3096 1.327 . S
C3098 C3117 1.429 . S
C3098 H3122 0.950 . S
C3099 C3116 1.574 . S
C3099 C3118 1.368 . S
C3099 H3123 0.949 . S
H3100 C3104 0.949 . S
C3101 C3102 1.349 . S
C3101 C3103 1.327 . S
C3101 H3124 0.950 . S
C3102 C3101 1.349 . S
C3102 C3114 1.349 . S
C3103 C3101 1.327 . S
C3103 C3119 1.429 . S
C3103 H3125 0.950 . S
C3104 H3100 0.949 . S
C3104 C3112 1.574 . S
C3104 C3120 1.368 . S
H3105 C3113 0.950 . S
H3106 C3111 0.950 . S
H3107 C3112 0.949 . S
H3108 C3114 0.950 . S
H3109 C3115 0.950 . S
H3110 C3116 0.949 . S
C3111 H3106 0.950 . S
C3111 C3113 1.327 . S
C3111 C3117 1.429 . S
C3112 C3104 1.574 . S
C3112 H3107 0.949 . S
C3112 C3118 1.368 . S
C3113 C3097 1.349 . S
C3113 H3105 0.950 . S
C3113 C3111 1.327 . S
C3114 C3102 1.349 . S
C3114 H3108 0.950 . S
C3114 C3115 1.327 . S
C3115 H3109 0.950 . S
C3115 C3114 1.327 . S
C3115 C3119 1.429 . S
C3116 C3099 1.574 . S
C3116 H3110 0.949 . S
C3116 C3120 1.368 . S
C3117 C3098 1.429 . S
C3117 C3111 1.429 . S
C3117 C3118 1.523 . S
C3118 C3099 1.368 . S
C3118 C3112 1.368 . S
C3118 C3117 1.523 . S
C3119 C3103 1.429 . S
C3119 C3115 1.429 . S
C3119 C3120 1.523 . S
C3120 C3104 1.368 . S
C3120 C3116 1.368 . S
C3120 C3119 1.523 . S
H3121 C3096 0.950 . S
H3122 C3098 0.950 . S
H3123 C3099 0.949 . S
H3124 C3101 0.950 . S
H3125 C3103 0.950 . S
C3126 C3127 1.349 . S
C3126 C3128 1.327 . S
C3126 H3151 0.950 . S
C3127 C3126 1.349 . S
C3127 C3143 1.349 . S
C3128 C3126 1.327 . S
C3128 C3147 1.429 . S
C3128 H3152 0.950 . S
C3129 C3146 1.574 . S
C3129 C3148 1.368 . S
C3129 H3153 0.949 . S
H3130 C3134 0.949 . S
C3131 C3132 1.349 . S
C3131 C3133 1.327 . S
C3131 H3154 0.950 . S
C3132 C3131 1.349 . S
C3132 C3144 1.349 . S
C3133 C3131 1.327 . S
C3133 C3149 1.429 . S
C3133 H3155 0.950 . S
C3134 H3130 0.949 . S
C3134 C3142 1.574 . S
C3134 C3150 1.368 . S
H3135 C3143 0.950 . S
H3136 C3141 0.950 . S
H3137 C3142 0.949 . S
H3138 C3144 0.950 . S
H3139 C3145 0.950 . S
H3140 C3146 0.949 . S
C3141 H3136 0.950 . S
C3141 C3143 1.327 . S
C3141 C3147 1.429 . S
C3142 C3134 1.574 . S
C3142 H3137 0.949 . S
C3142 C3148 1.368 . S
C3143 C3127 1.349 . S
C3143 H3135 0.950 . S
C3143 C3141 1.327 . S
C3144 C3132 1.349 . S
C3144 H3138 0.950 . S
C3144 C3145 1.327 . S
C3145 H3139 0.950 . S
C3145 C3144 1.327 . S
C3145 C3149 1.429 . S
C3146 C3129 1.574 . S
C3146 H3140 0.949 . S
C3146 C3150 1.368 . S
C3147 C3128 1.429 . S
C3147 C3141 1.429 . S
C3147 C3148 1.523 . S
C3148 C3129 1.368 . S
C3148 C3142 1.368 . S
C3148 C3147 1.523 . S
C3149 C3133 1.429 . S
C3149 C3145 1.429 . S
C3149 C3150 1.523 . S
C3150 C3134 1.368 . S
C3150 C3146 1.368 . S
C3150 C3149 1.523 . S
H3151 C3126 0.950 . S
H3152 C3128 0.950 . S
H3153 C3129 0.949 . S
H3154 C3131 0.950 . S
H3155 C3133 0.950 . S
C3156 C3157 1.349 . S
C3156 C3158 1.327 . S
C3156 H3181 0.950 . S
C3157 C3156 1.349 . S
C3157 C3173 1.349 . S
C3158 C3156 1.327 . S
C3158 C3177 1.429 . S
C3158 H3182 0.950 . S
C3159 C3176 1.574 1_655 S
C3159 C3178 1.368 . S
C3159 H3183 0.949 . S
H3160 C3164 0.949 . S
C3161 C3162 1.349 . S
C3161 C3163 1.327 . S
C3161 H3184 0.950 . S
C3162 C3161 1.349 . S
C3162 C3174 1.349 . S
C3163 C3161 1.327 . S
C3163 C3179 1.429 . S
C3163 H3185 0.950 . S
C3164 H3160 0.949 . S
C3164 C3172 1.574 1_455 S
C3164 C3180 1.368 . S
H3165 C3173 0.950 . S
H3166 C3171 0.950 . S
H3167 C3172 0.949 . S
H3168 C3174 0.950 . S
H3169 C3175 0.950 . S
H3170 C3176 0.949 . S
C3171 H3166 0.950 . S
C3171 C3173 1.327 . S
C3171 C3177 1.429 . S
C3172 C3164 1.574 1_655 S
C3172 H3167 0.949 . S
C3172 C3178 1.368 . S
C3173 C3157 1.349 . S
C3173 H3165 0.950 . S
C3173 C3171 1.327 . S
C3174 C3162 1.349 . S
C3174 H3168 0.950 . S
C3174 C3175 1.327 . S
C3175 H3169 0.950 . S
C3175 C3174 1.327 . S
C3175 C3179 1.429 . S
C3176 C3159 1.574 1_455 S
C3176 H3170 0.949 . S
C3176 C3180 1.368 . S
C3177 C3158 1.429 . S
C3177 C3171 1.429 . S
C3177 C3178 1.523 . S
C3178 C3159 1.368 . S
C3178 C3172 1.368 . S
C3178 C3177 1.523 . S
C3179 C3163 1.429 . S
C3179 C3175 1.429 . S
C3179 C3180 1.523 . S
C3180 C3164 1.368 . S
C3180 C3176 1.368 . S
C3180 C3179 1.523 . S
H3181 C3156 0.950 . S
H3182 C3158 0.950 . S
H3183 C3159 0.949 . S
H3184 C3161 0.950 . S
H3185 C3163 0.950 . S
C3186 C3187 1.349 . S
C3186 C3188 1.327 . S
C3186 H3211 0.950 . S
C3187 C3186 1.349 . S
C3187 C3203 1.349 . S
C3188 C3186 1.327 . S
C3188 C3207 1.429 . S
C3188 H3212 0.950 1_655 S
C3189 C3206 1.574 . S
C3189 C3208 1.368 . S
C3189 H3213 0.949 . S
H3190 C3194 0.949 . S
C3191 C3192 1.349 . S
C3191 C3193 1.327 . S
C3191 H3214 0.950 . S
C3192 C3191 1.349 . S
C3192 C3204 1.349 . S
C3193 C3191 1.327 . S
C3193 C3209 1.429 . S
C3193 H3215 0.950 1_455 S
C3194 H3190 0.949 . S
C3194 C3202 1.574 . S
C3194 C3210 1.368 . S
H3195 C3203 0.950 . S
H3196 C3201 0.950 . S
H3197 C3202 0.949 . S
H3198 C3204 0.950 . S
H3199 C3205 0.950 . S
H3200 C3206 0.949 . S
C3201 H3196 0.950 . S
C3201 C3203 1.327 . S
C3201 C3207 1.429 . S
C3202 C3194 1.574 . S
C3202 H3197 0.949 . S
C3202 C3208 1.368 1_455 S
C3203 C3187 1.349 . S
C3203 H3195 0.950 . S
C3203 C3201 1.327 . S
C3204 C3192 1.349 . S
C3204 H3198 0.950 . S
C3204 C3205 1.327 . S
C3205 H3199 0.950 . S
C3205 C3204 1.327 . S
C3205 C3209 1.429 . S
C3206 C3189 1.574 . S
C3206 H3200 0.949 . S
C3206 C3210 1.368 1_655 S
C3207 C3188 1.429 . S
C3207 C3201 1.429 . S
C3207 C3208 1.523 . S
C3208 C3189 1.368 . S
C3208 C3202 1.368 1_655 S
C3208 C3207 1.523 . S
C3209 C3193 1.429 . S
C3209 C3205 1.429 . S
C3209 C3210 1.523 . S
C3210 C3194 1.368 . S
C3210 C3206 1.368 1_455 S
C3210 C3209 1.523 . S
H3211 C3186 0.950 . S
H3212 C3188 0.950 1_455 S
H3213 C3189 0.949 . S
H3214 C3191 0.950 . S
H3215 C3193 0.950 1_655 S
C3216 C3217 1.349 . S
C3216 C3218 1.327 . S
C3216 H3241 0.950 . S
C3217 C3216 1.349 . S
C3217 C3233 1.349 . S
C3218 C3216 1.327 . S
C3218 C3237 1.429 . S
C3218 H3242 0.950 . S
C3219 C3236 1.574 . S
C3219 C3238 1.368 . S
C3219 H3243 0.949 . S
H3220 C3224 0.949 . S
C3221 C3222 1.349 . S
C3221 C3223 1.327 . S
C3221 H3244 0.950 . S
C3222 C3221 1.349 . S
C3222 C3234 1.349 . S
C3223 C3221 1.327 . S
C3223 C3239 1.429 . S
C3223 H3245 0.950 . S
C3224 H3220 0.949 . S
C3224 C3232 1.574 . S
C3224 C3240 1.368 . S
H3225 C3233 0.950 . S
H3226 C3231 0.950 . S
H3227 C3232 0.949 . S
H3228 C3234 0.950 . S
H3229 C3235 0.950 . S
H3230 C3236 0.949 . S
C3231 H3226 0.950 . S
C3231 C3233 1.327 . S
C3231 C3237 1.429 . S
C3232 C3224 1.574 . S
C3232 H3227 0.949 . S
C3232 C3238 1.368 . S
C3233 C3217 1.349 . S
C3233 H3225 0.950 . S
C3233 C3231 1.327 . S
C3234 C3222 1.349 . S
C3234 H3228 0.950 . S
C3234 C3235 1.327 . S
C3235 H3229 0.950 . S
C3235 C3234 1.327 . S
C3235 C3239 1.429 . S
C3236 C3219 1.574 . S
C3236 H3230 0.949 . S
C3236 C3240 1.368 . S
C3237 C3218 1.429 . S
C3237 C3231 1.429 . S
C3237 C3238 1.523 . S
C3238 C3219 1.368 . S
C3238 C3232 1.368 . S
C3238 C3237 1.523 . S
C3239 C3223 1.429 . S
C3239 C3235 1.429 . S
C3239 C3240 1.523 . S
C3240 C3224 1.368 . S
C3240 C3236 1.368 . S
C3240 C3239 1.523 . S
H3241 C3216 0.950 . S
H3242 C3218 0.950 . S
H3243 C3219 0.949 . S
H3244 C3221 0.950 . S
H3245 C3223 0.950 . S
C3246 C3247 1.349 . S
C3246 C3248 1.327 . S
C3246 H3271 0.950 . S
C3247 C3246 1.349 . S
C3247 C3263 1.349 . S
C3248 C3246 1.327 . S
C3248 C3267 1.429 . S
C3248 H3272 0.950 1_455 S
C3249 C3266 1.574 . S
C3249 C3268 1.368 . S
C3249 H3273 0.949 . S
H3250 C3254 0.949 . S
C3251 C3252 1.349 . S
C3251 C3253 1.327 . S
C3251 H3274 0.950 . S
C3252 C3251 1.349 . S
C3252 C3264 1.349 . S
C3253 C3251 1.327 . S
C3253 C3269 1.429 . S
C3253 H3275 0.950 1_655 S
C3254 H3250 0.949 . S
C3254 C3262 1.574 . S
C3254 C3270 1.368 . S
H3255 C3263 0.950 . S
H3256 C3261 0.950 . S
H3257 C3262 0.949 . S
H3258 C3264 0.950 . S
H3259 C3265 0.950 . S
H3260 C3266 0.949 . S
C3261 H3256 0.950 . S
C3261 C3263 1.327 . S
C3261 C3267 1.429 . S
C3262 C3254 1.574 . S
C3262 H3257 0.949 . S
C3262 C3268 1.368 1_655 S
C3263 C3247 1.349 . S
C3263 H3255 0.950 . S
C3263 C3261 1.327 . S
C3264 C3252 1.349 . S
C3264 H3258 0.950 . S
C3264 C3265 1.327 . S
C3265 H3259 0.950 . S
C3265 C3264 1.327 . S
C3265 C3269 1.429 . S
C3266 C3249 1.574 . S
C3266 H3260 0.949 . S
C3266 C3270 1.368 1_455 S
C3267 C3248 1.429 . S
C3267 C3261 1.429 . S
C3267 C3268 1.523 . S
C3268 C3249 1.368 . S
C3268 C3262 1.368 1_455 S
C3268 C3267 1.523 . S
C3269 C3253 1.429 . S
C3269 C3265 1.429 . S
C3269 C3270 1.523 . S
C3270 C3254 1.368 . S
C3270 C3266 1.368 1_655 S
C3270 C3269 1.523 . S
H3271 C3246 0.950 . S
H3272 C3248 0.950 1_655 S
H3273 C3249 0.949 . S
H3274 C3251 0.950 . S
H3275 C3253 0.950 1_455 S
C3276 C3277 1.349 . S
C3276 C3278 1.327 . S
C3276 H3301 0.950 . S
C3277 C3276 1.349 . S
C3277 C3293 1.349 . S
C3278 C3276 1.327 . S
C3278 C3297 1.429 . S
C3278 H3302 0.950 . S
C3279 C3296 1.574 1_655 S
C3279 C3298 1.368 . S
C3279 H3303 0.949 . S
H3280 C3284 0.949 . S
C3281 C3282 1.349 . S
C3281 C3283 1.327 . S
C3281 H3304 0.950 . S
C3282 C3281 1.349 . S
C3282 C3294 1.349 . S
C3283 C3281 1.327 . S
C3283 C3299 1.429 . S
C3283 H3305 0.950 . S
C3284 H3280 0.949 . S
C3284 C3292 1.574 1_455 S
C3284 C3300 1.368 . S
H3285 C3293 0.950 . S
H3286 C3291 0.950 . S
H3287 C3292 0.949 . S
H3288 C3294 0.950 . S
H3289 C3295 0.950 . S
H3290 C3296 0.949 . S
C3291 H3286 0.950 . S
C3291 C3293 1.327 . S
C3291 C3297 1.429 . S
C3292 C3284 1.574 1_655 S
C3292 H3287 0.949 . S
C3292 C3298 1.368 . S
C3293 C3277 1.349 . S
C3293 H3285 0.950 . S
C3293 C3291 1.327 . S
C3294 C3282 1.349 . S
C3294 H3288 0.950 . S
C3294 C3295 1.327 . S
C3295 H3289 0.950 . S
C3295 C3294 1.327 . S
C3295 C3299 1.429 . S
C3296 C3279 1.574 1_455 S
C3296 H3290 0.949 . S
C3296 C3300 1.368 . S
C3297 C3278 1.429 . S
C3297 C3291 1.429 . S
C3297 C3298 1.523 . S
C3298 C3279 1.368 . S
C3298 C3292 1.368 . S
C3298 C3297 1.523 . S
C3299 C3283 1.429 . S
C3299 C3295 1.429 . S
C3299 C3300 1.523 . S
C3300 C3284 1.368 . S
C3300 C3296 1.368 . S
C3300 C3299 1.523 . S
H3301 C3276 0.950 . S
H3302 C3278 0.950 . S
H3303 C3279 0.949 . S
H3304 C3281 0.950 . S
H3305 C3283 0.950 . S
C3306 C3307 1.349 . S
C3306 C3308 1.327 . S
C3306 H3331 0.950 . S
C3307 C3306 1.349 . S
C3307 C3323 1.349 . S
C3308 C3306 1.327 . S
C3308 C3327 1.429 . S
C3308 H3332 0.950 . S
C3309 C3326 1.574 . S
C3309 C3328 1.368 . S
C3309 H3333 0.949 . S
H3310 C3314 0.949 . S
C3311 C3312 1.349 . S
C3311 C3313 1.327 . S
C3311 H3334 0.950 . S
C3312 C3311 1.349 . S
C3312 C3324 1.349 . S
C3313 C3311 1.327 . S
C3313 C3329 1.429 . S
C3313 H3335 0.950 . S
C3314 H3310 0.949 . S
C3314 C3322 1.574 . S
C3314 C3330 1.368 . S
H3315 C3323 0.950 . S
H3316 C3321 0.950 . S
H3317 C3322 0.949 . S
H3318 C3324 0.950 . S
H3319 C3325 0.950 . S
H3320 C3326 0.949 . S
C3321 H3316 0.950 . S
C3321 C3323 1.327 . S
C3321 C3327 1.429 . S
C3322 C3314 1.574 . S
C3322 H3317 0.949 . S
C3322 C3328 1.368 . S
C3323 C3307 1.349 . S
C3323 H3315 0.950 . S
C3323 C3321 1.327 . S
C3324 C3312 1.349 . S
C3324 H3318 0.950 . S
C3324 C3325 1.327 . S
C3325 H3319 0.950 . S
C3325 C3324 1.327 . S
C3325 C3329 1.429 . S
C3326 C3309 1.574 . S
C3326 H3320 0.949 . S
C3326 C3330 1.368 . S
C3327 C3308 1.429 . S
C3327 C3321 1.429 . S
C3327 C3328 1.523 . S
C3328 C3309 1.368 . S
C3328 C3322 1.368 . S
C3328 C3327 1.523 . S
C3329 C3313 1.429 . S
C3329 C3325 1.429 . S
C3329 C3330 1.523 . S
C3330 C3314 1.368 . S
C3330 C3326 1.368 . S
C3330 C3329 1.523 . S
H3331 C3306 0.950 . S
H3332 C3308 0.950 . S
H3333 C3309 0.949 . S
H3334 C3311 0.950 . S
H3335 C3313 0.950 . S
C3336 C3337 1.349 . S
C3336 C3338 1.327 . S
C3336 H3361 0.950 . S
C3337 C3336 1.349 . S
C3337 C3353 1.349 . S
C3338 C3336 1.327 . S
C3338 C3357 1.429 . S
C3338 H3362 0.950 . S
C3339 C3356 1.574 . S
C3339 C3358 1.368 . S
C3339 H3363 0.949 . S
H3340 C3344 0.949 . S
C3341 C3342 1.349 . S
C3341 C3343 1.327 . S
C3341 H3364 0.950 . S
C3342 C3341 1.349 . S
C3342 C3354 1.349 . S
C3343 C3341 1.327 . S
C3343 C3359 1.429 . S
C3343 H3365 0.950 . S
C3344 H3340 0.949 . S
C3344 C3352 1.574 . S
C3344 C3360 1.368 . S
H3345 C3353 0.950 . S
H3346 C3351 0.950 . S
H3347 C3352 0.949 . S
H3348 C3354 0.950 . S
H3349 C3355 0.950 . S
H3350 C3356 0.949 . S
C3351 H3346 0.950 . S
C3351 C3353 1.327 . S
C3351 C3357 1.429 . S
C3352 C3344 1.574 . S
C3352 H3347 0.949 . S
C3352 C3358 1.368 . S
C3353 C3337 1.349 . S
C3353 H3345 0.950 . S
C3353 C3351 1.327 . S
C3354 C3342 1.349 . S
C3354 H3348 0.950 . S
C3354 C3355 1.327 . S
C3355 H3349 0.950 . S
C3355 C3354 1.327 . S
C3355 C3359 1.429 . S
C3356 C3339 1.574 . S
C3356 H3350 0.949 . S
C3356 C3360 1.368 . S
C3357 C3338 1.429 . S
C3357 C3351 1.429 . S
C3357 C3358 1.523 . S
C3358 C3339 1.368 . S
C3358 C3352 1.368 . S
C3358 C3357 1.523 . S
C3359 C3343 1.429 . S
C3359 C3355 1.429 . S
C3359 C3360 1.523 . S
C3360 C3344 1.368 . S
C3360 C3356 1.368 . S
C3360 C3359 1.523 . S
H3361 C3336 0.950 . S
H3362 C3338 0.950 . S
H3363 C3339 0.949 . S
H3364 C3341 0.950 . S
H3365 C3343 0.950 . S
C3366 C3367 1.349 . S
C3366 C3368 1.327 . S
C3366 H3391 0.950 . S
C3367 C3366 1.349 . S
C3367 C3383 1.349 . S
C3368 C3366 1.327 . S
C3368 C3387 1.429 . S
C3368 H3392 0.950 . S
C3369 C3386 1.574 . S
C3369 C3388 1.368 . S
C3369 H3393 0.949 . S
H3370 C3374 0.949 . S
C3371 C3372 1.349 . S
C3371 C3373 1.327 . S
C3371 H3394 0.950 . S
C3372 C3371 1.349 . S
C3372 C3384 1.349 . S
C3373 C3371 1.327 . S
C3373 C3389 1.429 . S
C3373 H3395 0.950 . S
C3374 H3370 0.949 . S
C3374 C3382 1.574 . S
C3374 C3390 1.368 . S
H3375 C3383 0.950 . S
H3376 C3381 0.950 . S
H3377 C3382 0.949 . S
H3378 C3384 0.950 . S
H3379 C3385 0.950 . S
H3380 C3386 0.949 . S
C3381 H3376 0.950 . S
C3381 C3383 1.327 . S
C3381 C3387 1.429 . S
C3382 C3374 1.574 . S
C3382 H3377 0.949 . S
C3382 C3388 1.368 . S
C3383 C3367 1.349 . S
C3383 H3375 0.950 . S
C3383 C3381 1.327 . S
C3384 C3372 1.349 . S
C3384 H3378 0.950 . S
C3384 C3385 1.327 . S
C3385 H3379 0.950 . S
C3385 C3384 1.327 . S
C3385 C3389 1.429 . S
C3386 C3369 1.574 . S
C3386 H3380 0.949 . S
C3386 C3390 1.368 . S
C3387 C3368 1.429 . S
C3387 C3381 1.429 . S
C3387 C3388 1.523 . S
C3388 C3369 1.368 . S
C3388 C3382 1.368 . S
C3388 C3387 1.523 . S
C3389 C3373 1.429 . S
C3389 C3385 1.429 . S
C3389 C3390 1.523 . S
C3390 C3374 1.368 . S
C3390 C3386 1.368 . S
C3390 C3389 1.523 . S
H3391 C3366 0.950 . S
H3392 C3368 0.950 . S
H3393 C3369 0.949 . S
H3394 C3371 0.950 . S
H3395 C3373 0.950 . S
C3396 C3397 1.349 . S
C3396 C3398 1.327 . S
C3396 H3421 0.950 . S
C3397 C3396 1.349 . S
C3397 C3413 1.349 . S
C3398 C3396 1.327 . S
C3398 C3417 1.429 . S
C3398 H3422 0.950 . S
C3399 C3416 1.574 1_455 S
C3399 C3418 1.368 . S
C3399 H3423 0.949 . S
H3400 C3404 0.949 . S
C3401 C3402 1.349 . S
C3401 C3403 1.327 . S
C3401 H3424 0.950 . S
C3402 C3401 1.349 . S
C3402 C3414 1.349 . S
C3403 C3401 1.327 . S
C3403 C3419 1.429 . S
C3403 H3425 0.950 . S
C3404 H3400 0.949 . S
C3404 C3412 1.574 1_655 S
C3404 C3420 1.368 . S
H3405 C3413 0.950 . S
H3406 C3411 0.950 . S
H3407 C3412 0.949 . S
H3408 C3414 0.950 . S
H3409 C3415 0.950 . S
H3410 C3416 0.949 . S
C3411 H3406 0.950 . S
C3411 C3413 1.327 . S
C3411 C3417 1.429 . S
C3412 C3404 1.574 1_455 S
C3412 H3407 0.949 . S
C3412 C3418 1.368 . S
C3413 C3397 1.349 . S
C3413 H3405 0.950 . S
C3413 C3411 1.327 . S
C3414 C3402 1.349 . S
C3414 H3408 0.950 . S
C3414 C3415 1.327 . S
C3415 H3409 0.950 . S
C3415 C3414 1.327 . S
C3415 C3419 1.429 . S
C3416 C3399 1.574 1_655 S
C3416 H3410 0.949 . S
C3416 C3420 1.368 . S
C3417 C3398 1.429 . S
C3417 C3411 1.429 . S
C3417 C3418 1.523 . S
C3418 C3399 1.368 . S
C3418 C3412 1.368 . S
C3418 C3417 1.523 . S
C3419 C3403 1.429 . S
C3419 C3415 1.429 . S
C3419 C3420 1.523 . S
C3420 C3404 1.368 . S
C3420 C3416 1.368 . S
C3420 C3419 1.523 . S
H3421 C3396 0.950 . S
H3422 C3398 0.950 . S
H3423 C3399 0.949 . S
H3424 C3401 0.950 . S
H3425 C3403 0.950 . S
C3426 C3427 1.349 . S
C3426 C3428 1.327 . S
C3426 H3451 0.950 . S
C3427 C3426 1.349 . S
C3427 C3443 1.349 . S
C3428 C3426 1.327 . S
C3428 C3447 1.429 . S
C3428 H3452 0.950 . S
C3429 C3446 1.574 . S
C3429 C3448 1.368 1_655 S
C3429 H3453 0.949 . S
H3430 C3434 0.949 . S
C3431 C3432 1.349 . S
C3431 C3433 1.327 . S
C3431 H3454 0.950 . S
C3432 C3431 1.349 . S
C3432 C3444 1.349 . S
C3433 C3431 1.327 . S
C3433 C3449 1.429 . S
C3433 H3455 0.950 . S
C3434 H3430 0.949 . S
C3434 C3442 1.574 . S
C3434 C3450 1.368 1_455 S
H3435 C3443 0.950 . S
H3436 C3441 0.950 1_655 S
H3437 C3442 0.949 . S
H3438 C3444 0.950 . S
H3439 C3445 0.950 1_455 S
H3440 C3446 0.949 . S
C3441 H3436 0.950 1_455 S
C3441 C3443 1.327 . S
C3441 C3447 1.429 . S
C3442 C3434 1.574 . S
C3442 H3437 0.949 . S
C3442 C3448 1.368 . S
C3443 C3427 1.349 . S
C3443 H3435 0.950 . S
C3443 C3441 1.327 . S
C3444 C3432 1.349 . S
C3444 H3438 0.950 . S
C3444 C3445 1.327 . S
C3445 H3439 0.950 1_655 S
C3445 C3444 1.327 . S
C3445 C3449 1.429 . S
C3446 C3429 1.574 . S
C3446 H3440 0.949 . S
C3446 C3450 1.368 . S
C3447 C3428 1.429 . S
C3447 C3441 1.429 . S
C3447 C3448 1.523 . S
C3448 C3429 1.368 1_455 S
C3448 C3442 1.368 . S
C3448 C3447 1.523 . S
C3449 C3433 1.429 . S
C3449 C3445 1.429 . S
C3449 C3450 1.523 . S
C3450 C3434 1.368 1_655 S
C3450 C3446 1.368 . S
C3450 C3449 1.523 . S
H3451 C3426 0.950 . S
H3452 C3428 0.950 . S
H3453 C3429 0.949 . S
H3454 C3431 0.950 . S
H3455 C3433 0.950 . S
C1057 C28 1.053 . S
C1062 C259 1.053 . S
C1087 C61 1.053 . S
C1092 C160 1.053 . S
C1117 C94 1.053 . S
C1122 C193 1.053 . S
C1147 C127 1.053 . S
C1152 C226 1.053 . S
C1177 C523 1.053 . S
C1182 C292 1.053 . S
C1207 C325 1.053 . S
C1212 C424 1.053 . S
C1237 C457 1.053 . S
C1242 C358 1.053 . S
C1267 C391 1.053 . S
C1272 C490 1.053 . S
C1297 C556 1.053 . S
C1302 C787 1.053 . S
C1327 C688 1.053 . S
C1332 C589 1.053 . S
C1357 C622 1.053 . S
C1362 C721 1.053 . S
C1387 C655 1.053 . S
C1392 C754 1.053 . S
C1417 C820 1.053 . S
C1422 C1051 1.053 . S
C1447 C853 1.053 . S
C1452 C952 1.053 . S
C1477 C985 1.053 . S
C1482 C886 1.053 . S
C1507 C1018 1.053 . S
C1512 C919 1.053 . S
C1537 C215 1.508 . S
C1542 C17 1.508 . S
C1567 C50 1.508 . S
C1572 C248 1.508 . S
C1597 C83 1.508 . S
C1602 C149 1.508 . S
C1627 C116 1.508 . S
C1632 C182 1.508 . S
C1657 C281 1.508 . S
C1662 C479 1.508 . S
C1687 C512 1.508 . S
C1692 C314 1.508 . S
C1717 C413 1.508 . S
C1722 C347 1.508 . S
C1747 C446 1.508 . S
C1752 C380 1.508 . S
C1777 C545 1.508 . S
C1782 C743 1.508 . S
C1807 C776 1.508 . S
C1812 C578 1.508 . S
C1837 C677 1.508 . S
C1842 C611 1.508 . S
C1867 C644 1.508 . S
C1872 C710 1.508 . S
C1897 C1007 1.508 . S
C1902 C809 1.508 . S
C1927 C842 1.508 . S
C1932 C1040 1.508 . S
C1957 C941 1.508 . S
C1962 C875 1.508 . S
C1987 C974 1.508 . S
C1992 C908 1.508 . S
C2017 N938 1.119 . S
C2022 N5 1.160 . S
C2047 N443 1.119 . S
C2052 N38 1.160 . S
C2077 N1004 1.119 . S
C2082 N71 1.160 . S
C2107 N104 1.160 . S
C2112 N509 1.119 . S
C2137 N806 1.119 . S
C2142 N137 1.160 . S
C2167 N311 1.119 . S
C2172 N170 1.160 . S
C2197 N872 1.119 . S
C2202 N203 1.160 . S
C2227 N236 1.160 . S
C2232 N377 1.119 . S
C2257 N269 1.160 . S
C2262 N674 1.119 . S
C2287 N302 1.160 . S
C2292 N179 1.119 . S
C2317 N335 1.160 . S
C2322 N740 1.119 . S
C2347 N245 1.119 . S
C2352 N368 1.160 . S
C2377 N542 1.119 . S
C2382 N401 1.160 . S
C2407 N434 1.160 . S
C2412 N47 1.119 . S
C2437 N467 1.160 . S
C2442 N608 1.119 . S
C2467 N500 1.160 . S
C2472 N113 1.119 . S
C2497 N410 1.119 . S
C2502 N533 1.160 . S
C2527 N566 1.160 . S
C2532 N971 1.119 . S
C2557 N476 1.119 . S
C2562 N599 1.160 . S
C2587 N632 1.160 . S
C2592 N1037 1.119 . S
C2617 N665 1.160 . S
C2622 N278 1.119 . S
C2647 N698 1.160 . S
C2652 N839 1.119 . S
C2677 N344 1.119 . S
C2682 N731 1.160 . S
C2707 N764 1.160 . S
C2712 N905 1.119 . S
C2737 N146 1.119 . S
C2742 N797 1.160 . S
C2767 N707 1.119 . S
C2772 N830 1.160 . S
C2797 N212 1.119 . S
C2802 N863 1.160 . S
C2827 N773 1.119 . S
C2832 N896 1.160 . S
C2857 N14 1.119 . S
C2862 N929 1.160 . S
C2887 N575 1.119 . S
C2892 N962 1.160 . S
C2917 N995 1.160 . S
C2922 N80 1.119 . S
C2947 N641 1.119 . S
C2952 N1028 1.160 . S
C2977 C602 1.732 . S
C2982 C8 1.732 . S
C3007 C635 1.732 . S
C3012 C41 1.732 . S
C3037 C74 1.732 . S
C3042 C536 1.732 . S
C3067 C107 1.732 . S
C3072 C569 1.732 . S
C3097 C734 1.732 . S
C3102 C140 1.732 . S
C3127 C173 1.732 . S
C3132 C767 1.732 . S
C3157 C668 1.732 . S
C3162 C206 1.732 . S
C3187 C701 1.732 . S
C3192 C239 1.732 . S
C3217 C866 1.732 . S
C3222 C272 1.732 . S
C3247 C899 1.732 . S
C3252 C305 1.732 . S
C3277 C338 1.732 . S
C3282 C800 1.732 . S
C3307 C371 1.732 . S
C3312 C833 1.732 . S
C3337 C404 1.732 . S
C3342 C998 1.732 . S
C3367 C437 1.732 . S
C3372 C1031 1.732 . S
C3397 C932 1.732 . S
C3402 C470 1.732 . S
C3427 C965 1.732 . S
C3432 C503 1.732 . S
