# Generated by pormake.
# Topology unf, (4)-cn, num edge types: 1
# Building blocks:
#     Node 0, Type 0, BuildingBlock: AZAVOO_clean_sbu_0, # of connection points: 4
#     Node 1, Type 0, BuildingBlock: AZAVOO_clean_sbu_0, # of connection points: 4
#     Node 2, Type 0, BuildingBlock: AZAVOO_clean_sbu_0, # of connection points: 4
#     Node 3, Type 0, BuildingBlock: AZAVOO_clean_sbu_0, # of connection points: 4
#     Node 4, Type 0, BuildingBlock: AZAVOO_clean_sbu_0, # of connection points: 4
#     Node 5, Type 0, BuildingBlock: AZAVOO_clean_sbu_0, # of connection points: 4
#     Node 6, Type 0, BuildingBlock: AZAVOO_clean_sbu_0, # of connection points: 4
#     Node 7, Type 0, BuildingBlock: AZAVOO_clean_sbu_0, # of connection points: 4
#     Node 8, Type 0, BuildingBlock: AZAVOO_clean_sbu_0, # of connection points: 4
#     Node 9, Type 0, BuildingBlock: AZAVOO_clean_sbu_0, # of connection points: 4
#     Node 10, Type 0, BuildingBlock: AZAVOO_clean_sbu_0, # of connection points: 4
#     Node 11, Type 0, BuildingBlock: AZAVOO_clean_sbu_0, # of connection points: 4
#     Edge 12, Type (0, 0), BuildingBlock: XUDNAN_clean_linker_2, # of connection points: 2
#     Edge 13, Type (0, 0), BuildingBlock: XUDNAN_clean_linker_2, # of connection points: 2
#     Edge 14, Type (0, 0), BuildingBlock: XUDNAN_clean_linker_2, # of connection points: 2
#     Edge 15, Type (0, 0), BuildingBlock: XUDNAN_clean_linker_2, # of connection points: 2
#     Edge 16, Type (0, 0), BuildingBlock: XUDNAN_clean_linker_2, # of connection points: 2
#     Edge 17, Type (0, 0), BuildingBlock: XUDNAN_clean_linker_2, # of connection points: 2
#     Edge 18, Type (0, 0), BuildingBlock: XUDNAN_clean_linker_2, # of connection points: 2
#     Edge 19, Type (0, 0), BuildingBlock: XUDNAN_clean_linker_2, # of connection points: 2
#     Edge 20, Type (0, 0), BuildingBlock: XUDNAN_clean_linker_2, # of connection points: 2
#     Edge 21, Type (0, 0), BuildingBlock: XUDNAN_clean_linker_2, # of connection points: 2
#     Edge 22, Type (0, 0), BuildingBlock: XUDNAN_clean_linker_2, # of connection points: 2
#     Edge 23, Type (0, 0), BuildingBlock: XUDNAN_clean_linker_2, # of connection points: 2
#     Edge 24, Type (0, 0), BuildingBlock: XUDNAN_clean_linker_2, # of connection points: 2
#     Edge 25, Type (0, 0), BuildingBlock: XUDNAN_clean_linker_2, # of connection points: 2
#     Edge 26, Type (0, 0), BuildingBlock: XUDNAN_clean_linker_2, # of connection points: 2
#     Edge 27, Type (0, 0), BuildingBlock: XUDNAN_clean_linker_2, # of connection points: 2
#     Edge 28, Type (0, 0), BuildingBlock: XUDNAN_clean_linker_2, # of connection points: 2
#     Edge 29, Type (0, 0), BuildingBlock: XUDNAN_clean_linker_2, # of connection points: 2
#     Edge 30, Type (0, 0), BuildingBlock: XUDNAN_clean_linker_2, # of connection points: 2
#     Edge 31, Type (0, 0), BuildingBlock: XUDNAN_clean_linker_2, # of connection points: 2
#     Edge 32, Type (0, 0), BuildingBlock: XUDNAN_clean_linker_2, # of connection points: 2
#     Edge 33, Type (0, 0), BuildingBlock: XUDNAN_clean_linker_2, # of connection points: 2
#     Edge 34, Type (0, 0), BuildingBlock: XUDNAN_clean_linker_2, # of connection points: 2
#     Edge 35, Type (0, 0), BuildingBlock: XUDNAN_clean_linker_2, # of connection points: 2
# Relax obj value: 0.253
# Max RMSD: 0.199
# Mean RMSD: 0.199
data_MOF--net-unf--node1-AZAVOO_clean_sbu_0--edge1-XUDNAN_clean_linker_2
_symmetry_space_group_name_H-M    P1
_symmetry_Int_Tables_number       1
_symmetry_cell_setting            triclinic
loop_
_symmetry_equiv_pos_as_xyz
'x, y, z'
_cell_length_a     38.200347
_cell_length_b     38.076812
_cell_length_c     38.21025
_cell_angle_alpha  90.172946
_cell_angle_beta   90.270771
_cell_angle_gamma 120.116
loop_
_atom_site_label
_atom_site_type_symbol
_atom_site_fract_x
_atom_site_fract_y
_atom_site_fract_z
_atom_type_partial_charge
Mg0 Mg 0.07403 0.37776 0.09033 0.0
O1 O 0.01657 0.3224 0.06874 0.0
O2 O 0.01517 0.26357 0.07787 0.0
Mg3 Mg 0.06318 0.28132 0.12096 0.0
C4 C 0.00064 0.28411 0.06397 0.0
C5 C 0.07253 0.4434 0.0468 0.0
O6 O 0.10775 0.44708 0.03934 0.0
O7 O 0.04885 0.37446 0.14549 0.0
O8 O 0.02975 0.31101 0.14317 0.0
O9 O 0.10563 0.37217 0.0445 0.0
O10 O 0.10205 0.34119 0.0945 0.0
C11 C 0.04599 0.34365 0.16088 0.0
C12 C 0.11333 0.34794 0.06221 0.0
O13 O 0.05075 0.41812 0.07004 0.0
Mg14 Mg 0.5911 0.69542 0.05943 0.0
O15 O 0.64978 0.69519 0.05042 0.0
O16 O 0.7017 0.75802 0.04285 0.0
Mg17 Mg 0.67638 0.80054 0.04923 0.0
C18 C 0.68721 0.71979 0.04511 0.0
C19 C 0.53 0.6089 0.04628 0.0
O20 O 0.51686 0.63085 0.03072 0.0
O21 O 0.61107 0.71473 0.11654 0.0
O22 O 0.66079 0.77806 0.10489 0.0
O23 O 0.58057 0.69922 0.00171 0.0
O24 O 0.61536 0.75223 0.03632 0.0
C25 C 0.63962 0.74975 0.12641 0.0
C26 C 0.60178 0.73809 0.00573 0.0
O27 O 0.56 0.62665 0.06718 0.0
Mg28 Mg 0.27475 0.89373 0.0771 0.0
O29 O 0.25254 0.93969 0.06606 0.0
O30 O 0.18447 0.90585 0.06269 0.0
Mg31 Mg 0.1694 0.85297 0.09819 0.0
C32 C 0.21889 0.93763 0.05792 0.0
C33 C 0.35925 0.93291 0.05062 0.0
O34 O 0.34096 0.89541 0.03869 0.0
O35 O 0.27605 0.8996 0.13694 0.0
O36 O 0.222 0.90321 0.12822 0.0
O37 O 0.25603 0.8727 0.02291 0.0
O38 O 0.21497 0.84555 0.06817 0.0
C39 C 0.24404 0.89707 0.14917 0.0
C40 C 0.22003 0.84877 0.03469 0.0
O41 O 0.33994 0.94359 0.07088 0.0
Mg42 Mg 0.5896 0.88338 0.40785 0.0
O43 O 0.65049 0.94034 0.41811 0.0
O44 O 0.69975 0.92497 0.42236 0.0
Mg45 Mg 0.67048 0.85741 0.41069 0.0
C46 C 0.68739 0.95042 0.4228 0.0
C47 C 0.53095 0.91315 0.42106 0.0
O48 O 0.51446 0.87781 0.4368 0.0
O49 O 0.606 0.88578 0.34974 0.0
O50 O 0.65467 0.86983 0.35701 0.0
O51 O 0.58349 0.86863 0.46567 0.0
O52 O 0.61142 0.84752 0.42675 0.0
C53 C 0.63352 0.87937 0.33765 0.0
C54 C 0.60212 0.84899 0.45865 0.0
O55 O 0.56225 0.92389 0.4026 0.0
Mg56 Mg 0.06427 0.69544 0.40133 0.0
O57 O 0.00822 0.70431 0.4077 0.0
O58 O 0.0303 0.77118 0.40337 0.0
Mg59 Mg 0.08657 0.79444 0.37073 0.0
C60 C 0.00317 0.73506 0.41141 0.0
C61 C 0.05082 0.62194 0.43373 0.0
O62 O 0.08825 0.65134 0.43891 0.0
O63 O 0.05892 0.68551 0.34209 0.0
O64 O 0.04631 0.73464 0.34323 0.0
O65 O 0.08163 0.72062 0.45401 0.0
O66 O 0.10366 0.75978 0.40706 0.0
C67 C 0.05968 0.7152 0.3265 0.0
C68 C 0.10083 0.75659 0.44078 0.0
O69 O 0.02803 0.62835 0.41363 0.0
Mg70 Mg 0.26636 0.37631 0.38337 0.0
O71 O 0.26548 0.31886 0.40214 0.0
O72 O 0.20768 0.26059 0.39142 0.0
Mg73 Mg 0.17761 0.28132 0.35115 0.0
C74 C 0.2428 0.28049 0.40546 0.0
C75 C 0.34793 0.43612 0.42519 0.0
O76 O 0.32606 0.4493 0.44071 0.0
O77 O 0.28422 0.37219 0.32689 0.0
O78 O 0.23947 0.30898 0.32742 0.0
O79 O 0.23191 0.37191 0.43113 0.0
O80 O 0.20147 0.34022 0.38174 0.0
C81 C 0.25438 0.34258 0.31173 0.0
C82 C 0.19909 0.34635 0.41475 0.0
O83 O 0.33253 0.41036 0.4004 0.0
Mg84 Mg 0.88775 0.60393 0.90448 0.0
O85 O 0.9454 0.66658 0.91298 0.0
O86 O 0.9334 0.71895 0.91493 0.0
Mg87 Mg 0.8671 0.69319 0.89926 0.0
C88 C 0.95704 0.7043 0.91717 0.0
C89 C 0.91479 0.5455 0.92673 0.0
O90 O 0.88138 0.53418 0.94436 0.0
O91 O 0.88886 0.60855 0.84321 0.0
O92 O 0.88014 0.65357 0.868 0.0
O93 O 0.87375 0.60369 0.96121 0.0
O94 O 0.85441 0.63318 0.92187 0.0
C95 C 0.8803 0.63642 0.84005 0.0
C96 C 0.85689 0.62494 0.9541 0.0
O97 O 0.92551 0.57342 0.9042 0.0
Mg98 Mg 0.35369 0.25537 0.90823 0.0
O99 O 0.31104 0.27825 0.9233 0.0
O100 O 0.24941 0.23711 0.90139 0.0
Mg101 Mg 0.25075 0.1831 0.87664 0.0
C102 C 0.27413 0.26835 0.919 0.0
C103 C 0.40927 0.35084 0.91796 0.0
O104 O 0.38302 0.35163 0.8961 0.0
O105 O 0.35676 0.27002 0.84959 0.0
O106 O 0.29705 0.21718 0.83428 0.0
O107 O 0.33811 0.22215 0.95832 0.0
O108 O 0.30414 0.19578 0.9091 0.0
C109 C 0.33212 0.24608 0.82628 0.0
C110 C 0.308 0.19227 0.94218 0.0
O111 O 0.40696 0.31707 0.9247 0.0
Mg112 Mg 0.68872 0.08448 0.89351 0.0
O113 O 0.67812 0.01978 0.90029 0.0
O114 O 0.7342 0.01647 0.89118 0.0
Mg115 Mg 0.76875 0.07158 0.85604 0.0
C116 C 0.69747 0.00046 0.90114 0.0
C117 C 0.61981 0.08554 0.93184 0.0
O118 O 0.65082 0.1218 0.93843 0.0
O119 O 0.67097 0.07681 0.83547 0.0
O120 O 0.70611 0.04711 0.83326 0.0
O121 O 0.72467 0.10235 0.94248 0.0
O122 O 0.75284 0.1098 0.89032 0.0
C123 C 0.69621 0.07077 0.81896 0.0
C124 C 0.75684 0.1143 0.92384 0.0
O125 O 0.62471 0.0618 0.91168 0.0
Mg126 Mg 0.36088 0.08271 0.56861 0.0
O127 O 0.29906 0.02298 0.56541 0.0
O128 O 0.24884 0.03314 0.58346 0.0
Mg129 Mg 0.28233 0.09166 0.61504 0.0
C130 C 0.26147 0.01125 0.56908 0.0
C131 C 0.42577 0.07312 0.53289 0.0
O132 O 0.43842 0.11216 0.5313 0.0
O133 O 0.37664 0.07958 0.62641 0.0
O134 O 0.31391 0.05939 0.63531 0.0
O135 O 0.34184 0.10154 0.52055 0.0
O136 O 0.33072 0.11591 0.57424 0.0
C137 C 0.3499 0.07848 0.64666 0.0
C138 C 0.32704 0.118 0.54095 0.0
O139 O 0.39296 0.05017 0.54874 0.0
Mg140 Mg 0.8943 0.27316 0.57566 0.0
O141 O 0.94941 0.26543 0.56322 0.0
O142 O 0.929 0.19898 0.56425 0.0
Mg143 Mg 0.86603 0.16353 0.58712 0.0
C144 C 0.95574 0.2358 0.55816 0.0
C145 C 0.92082 0.35533 0.54545 0.0
O146 O 0.88796 0.33031 0.52785 0.0
O147 O 0.90405 0.27603 0.63611 0.0
O148 O 0.88261 0.21258 0.62557 0.0
O149 O 0.87209 0.25256 0.52054 0.0
O150 O 0.85447 0.20996 0.56451 0.0
C151 C 0.89206 0.24056 0.64769 0.0
C152 C 0.85292 0.2157 0.53169 0.0
O153 O 0.93279 0.34148 0.5701 0.0
Mg154 Mg 0.68749 0.60152 0.57414 0.0
O155 O 0.68793 0.66277 0.57581 0.0
O156 O 0.74844 0.71769 0.58962 0.0
Mg157 Mg 0.79168 0.69436 0.60293 0.0
C158 C 0.7109 0.70102 0.58129 0.0
C159 C 0.60824 0.53239 0.54642 0.0
O160 O 0.63447 0.52011 0.54169 0.0
O161 O 0.67862 0.59206 0.63482 0.0
O162 O 0.73426 0.64297 0.61849 0.0
O163 O 0.71459 0.61646 0.52093 0.0
O164 O 0.75277 0.63922 0.56875 0.0
C165 C 0.71303 0.6214 0.64323 0.0
C166 C 0.7499 0.63811 0.53514 0.0
O167 O 0.61989 0.56586 0.56227 0.0
H168 H 0.1272 0.34382 -0.00752 0.0
H169 H 0.15172 0.31341 0.09572 0.0
H170 H 0.1977 0.29281 0.06953 0.0
H171 H 0.12725 0.25969 0.94628 0.0
H172 H 0.15079 0.28951 0.90786 0.0
H173 H 0.11924 0.30103 0.9348 0.0
H174 H 0.17824 0.37507 0.94148 0.0
H175 H 0.21028 0.36358 0.91517 0.0
H176 H 0.22628 0.38446 0.95855 0.0
H177 H 0.24592 0.2828 0.03357 0.0
H178 H 0.28375 0.26967 -0.01163 0.0
H179 H 0.22366 0.29994 0.90723 0.0
C180 C 0.1419 0.33237 0.00952 0.0
C181 C 0.13626 0.33051 0.04618 0.0
C182 C 0.15569 0.3151 0.06761 0.0
C183 C 0.18204 0.30361 0.053 0.0
C184 C 0.18803 0.30717 0.01693 0.0
C185 C 0.16777 0.32012 -0.00469 0.0
C186 C 0.17907 0.32018 0.95727 0.0
C187 C 0.14187 0.29083 0.93526 0.0
C188 C 0.19969 0.36339 0.94224 0.0
C189 C 0.20885 0.30512 0.96093 0.0
C190 C 0.21423 0.29888 -0.00427 0.0
C191 C 0.24169 0.28712 0.00622 0.0
C192 C 0.26336 0.28025 0.9804 0.0
C193 C 0.2568 0.28423 0.9445 0.0
C194 C 0.22933 0.297 0.93456 0.0
H195 H 0.67246 0.79464 0.97684 0.0
H196 H 0.54313 0.7476 0.97618 0.0
H197 H 0.55337 0.8089 0.94514 0.0
H198 H 0.70346 0.89198 -0.0052 0.0
H199 H 0.7464 0.91544 0.96601 0.0
H200 H 0.72906 0.86506 0.98205 0.0
H201 H 0.72051 0.83732 0.91878 0.0
H202 H 0.73894 0.8879 0.90232 0.0
H203 H 0.69069 0.84686 0.88766 0.0
H204 H 0.57855 0.87979 0.9258 0.0
H205 H 0.61586 0.95182 0.90914 0.0
H206 H 0.72933 0.95198 0.91864 0.0
C207 C 0.64633 0.79652 0.96842 0.0
C208 C 0.60698 0.76639 0.9779 0.0
C209 C 0.57331 0.77001 0.96794 0.0
C210 C 0.57892 0.80484 0.95068 0.0
C211 C 0.61831 0.835 0.94294 0.0
C212 C 0.65139 0.83063 0.95038 0.0
C213 C 0.69061 0.8685 0.94093 0.0
C214 C 0.71902 0.88627 0.97286 0.0
C215 C 0.71142 0.85962 0.91062 0.0
C216 C 0.67458 0.89579 0.92928 0.0
C217 C 0.6328 0.87575 0.93048 0.0
C218 C 0.61118 0.89549 0.92371 0.0
C219 C 0.63275 0.93656 0.91459 0.0
C220 C 0.67556 0.9575 0.91221 0.0
C221 C 0.69662 0.93669 0.91971 0.0
H222 H 0.14269 0.78983 0.04937 0.0
H223 H 0.21803 0.8686 0.96626 0.0
H224 H 0.15824 0.84165 0.92722 0.0
H225 H 0.0803 0.70393 -0.00473 0.0
H226 H 0.03487 0.68959 0.01971 0.0
H227 H 0.08345 0.71604 0.04125 0.0
H228 H 0.06815 0.77184 0.06195 0.0
H229 H 0.01952 0.74563 0.0404 0.0
H230 H 0.05463 0.79793 0.03012 0.0
H231 H 0.08963 0.8071 0.89775 0.0
H232 H 0.01802 0.76336 0.87888 0.0
H233 H -0.01078 0.70549 0.98035 0.0
C234 C 0.14663 0.80135 0.02293 0.0
C235 C 0.18491 0.83117 0.01077 0.0
C236 C 0.18894 0.84546 0.976 0.0
C237 C 0.15516 0.83056 0.95371 0.0
C238 C 0.11775 0.80126 0.9666 0.0
C239 C 0.11338 0.78658 0.0003 0.0
C240 C 0.07012 0.75442 0.00757 0.0
C241 C 0.06702 0.71358 0.01646 0.0
C242 C 0.05205 0.7683 0.03673 0.0
C243 C 0.05093 0.75281 0.97249 0.0
C244 C 0.07869 0.78052 0.94935 0.0
C245 C 0.06766 0.78513 0.91555 0.0
C246 C 0.02717 0.76038 0.90507 0.0
C247 C -0.00113 0.73127 0.92823 0.0
C248 C 0.01076 0.7275 0.96225 0.0
H249 H 0.69001 0.71036 0.51693 0.0
H250 H 0.69704 0.75106 0.62393 0.0
H251 H 0.66826 0.79422 0.60542 0.0
H252 H 0.72017 0.80818 0.47831 0.0
H253 H 0.68829 0.78568 0.44038 0.0
H254 H 0.70918 0.75884 0.46296 0.0
H255 H 0.63688 0.69699 0.47077 0.0
H256 H 0.61584 0.72367 0.4483 0.0
H257 H 0.59865 0.70417 0.49161 0.0
H258 H 0.63633 0.83172 0.57316 0.0
H259 H 0.6091 0.86178 0.53069 0.0
H260 H 0.6255 0.79441 0.44684 0.0
C261 C 0.68532 0.72831 0.53641 0.0
C262 C 0.69495 0.72739 0.57169 0.0
C263 C 0.68941 0.75161 0.59668 0.0
C264 C 0.67315 0.77602 0.5864 0.0
C265 C 0.66356 0.77607 0.55109 0.0
C266 C 0.67005 0.75312 0.52655 0.0
C267 C 0.65877 0.75889 0.49017 0.0
C268 C 0.69633 0.7791 0.46658 0.0
C269 C 0.62555 0.71853 0.47431 0.0
C270 C 0.64326 0.78736 0.49801 0.0
C271 C 0.64643 0.79755 0.53305 0.0
C272 C 0.63389 0.82399 0.54564 0.0
C273 C 0.61829 0.84071 0.5215 0.0
C274 C 0.61557 0.83067 0.48552 0.0
C275 C 0.62772 0.80326 0.47408 0.0
H276 H 0.1547 0.83647 0.42506 0.0
H277 H 0.08457 0.75681 0.50985 0.0
H278 H 0.11522 0.81442 0.55102 0.0
H279 H 0.24452 0.89354 0.47234 0.0
H280 H 0.25806 0.94168 0.4527 0.0
H281 H 0.22734 0.89531 0.42869 0.0
H282 H 0.17197 0.91481 0.41997 0.0
H283 H 0.2026 0.96148 0.44382 0.0
H284 H 0.15158 0.92688 0.45758 0.0
H285 H 0.15494 0.87937 0.58369 0.0
H286 H 0.20418 0.94803 0.60615 0.0
H287 H 0.25165 0.98491 0.50156 0.0
C288 C 0.14536 0.8314 0.45216 0.0
C289 C 0.11724 0.79224 0.46424 0.0
C290 C 0.1061 0.78658 0.49999 0.0
C291 C 0.1232 0.81913 0.52362 0.0
C292 C 0.15139 0.8572 0.51111 0.0
C293 C 0.16244 0.86361 0.47627 0.0
C294 C 0.19518 0.9072 0.47022 0.0
C295 C 0.23354 0.90954 0.45511 0.0
C296 C 0.17939 0.92887 0.44649 0.0
C297 C 0.20198 0.92363 0.50732 0.0
C298 C 0.17562 0.89453 0.53033 0.0
C299 C 0.17572 0.90251 0.56598 0.0
C300 C 0.20365 0.94137 0.5785 0.0
C301 C 0.23154 0.97113 0.55552 0.0
C302 C 0.2307 0.96225 0.51955 0.0
H303 H 0.02924 0.30699 0.55488 0.0
H304 H 0.96523 0.18181 0.51847 0.0
H305 H 0.022 0.1959 0.4798 0.0
H306 H 0.07084 0.35289 0.4761 0.0
H307 H 0.11964 0.39048 0.49307 0.0
H308 H 0.07591 0.37018 0.52081 0.0
H309 H 0.11168 0.34817 0.56617 0.0
H310 H 0.15587 0.36895 0.53881 0.0
H311 H 0.13199 0.31669 0.55236 0.0
H312 H 0.07996 0.22553 0.43878 0.0
H313 H 0.14141 0.26663 0.40428 0.0
H314 H 0.17176 0.3713 0.46997 0.0
C315 C 0.02764 0.2824 0.53933 0.0
C316 C -0.00723 0.24336 0.53967 0.0
C317 C -0.00828 0.21191 0.51891 0.0
C318 C 0.02375 0.21961 0.49669 0.0
C319 C 0.05709 0.25866 0.49612 0.0
C320 C 0.05987 0.2893 0.51754 0.0
C321 C 0.09905 0.32869 0.51133 0.0
C322 C 0.09084 0.36254 0.49962 0.0
C323 C 0.12626 0.34137 0.54412 0.0
C324 C 0.11675 0.31578 0.48193 0.0
C325 C 0.09195 0.27527 0.47356 0.0
C326 C 0.10013 0.25709 0.44554 0.0
C327 C 0.13495 0.28082 0.42581 0.0
C328 C 0.16141 0.32207 0.43449 0.0
C329 C 0.15223 0.33964 0.46306 0.0
H330 H 0.76023 0.75361 0.0122 0.0
H331 H 0.67568 0.64837 0.07185 0.0
H332 H 0.71985 0.61887 0.06499 0.0
H333 H 0.77708 0.70083 0.9494 0.0
H334 H 0.82996 0.73696 0.94305 0.0
H335 H 0.79681 0.75387 0.9592 0.0
H336 H 0.84344 0.7858 0.0135 0.0
H337 H 0.87673 0.76872 -0.00258 0.0
H338 H 0.85567 0.75474 0.04066 0.0
H339 H 0.76768 0.59667 0.0453 0.0
H340 H 0.81069 0.58028 0.0084 0.0
H341 H 0.86316 0.69895 0.96073 0.0
C342 C 0.75163 0.72489 0.02461 0.0
C343 C 0.71475 0.70334 0.04265 0.0
C344 C 0.70385 0.66533 0.05781 0.0
C345 C 0.72897 0.64856 0.05444 0.0
C346 C 0.76484 0.67021 0.03589 0.0
C347 C 0.77609 0.70751 0.02108 0.0
C348 C 0.81277 0.72171 -0.00196 0.0
C349 C 0.80357 0.72871 0.9602 0.0
C350 C 0.84931 0.76002 0.01334 0.0
C351 C 0.81881 0.6855 0.00052 0.0
C352 C 0.79185 0.65675 0.02347 0.0
C353 C 0.78943 0.61922 0.02774 0.0
C354 C 0.81396 0.61019 0.00682 0.0
C355 C 0.8396 0.63828 0.98162 0.0
C356 C 0.8433 0.67688 0.97953 0.0
H357 H 0.32201 0.16813 0.0048 0.0
H358 H 0.23477 0.12961 0.91963 0.0
H359 H 0.19626 0.06168 0.94582 0.0
H360 H 0.3296 0.08392 0.00544 0.0
H361 H 0.33498 0.08122 0.0521 0.0
H362 H 0.35016 0.1293 0.032 0.0
H363 H 0.30254 0.14044 0.07279 0.0
H364 H 0.28757 0.09253 0.09357 0.0
H365 H 0.24976 0.10221 0.07505 0.0
H366 H 0.17267 -0.00402 0.97655 0.0
H367 H 0.16744 0.9369 0.00802 0.0
H368 H 0.27313 0.01745 0.0703 0.0
C369 C 0.29397 0.14588 -0.00763 0.0
C370 C 0.28108 0.15422 0.96045 0.0
C371 C 0.24497 0.12398 0.9443 0.0
C372 C 0.2228 0.08532 0.95907 0.0
C373 C 0.23727 0.07755 -0.01011 0.0
C374 C 0.27198 0.10704 0.00643 0.0
C375 C 0.28436 0.08961 0.03634 0.0
C376 C 0.32729 0.09641 0.03112 0.0
C377 C 0.28083 0.10724 0.07153 0.0
C378 C 0.25252 0.04531 0.03281 0.0
C379 C 0.22486 0.03915 0.00663 0.0
C380 C 0.19374 0.00047 -0.00253 0.0
C381 C 0.19105 0.96718 0.01539 0.0
C382 C 0.21995 0.9729 0.04142 0.0
C383 C 0.25073 0.01243 0.05044 0.0
H384 H 0.94155 0.20303 0.06055 0.0
H385 H -0.0191 0.32017 0.01242 0.0
H386 H 0.92451 0.28802 0.97028 0.0
H387 H 0.90753 0.1426 0.9811 0.0
H388 H 0.86377 0.10079 0.00088 0.0
H389 H 0.90818 0.13223 0.02703 0.0
H390 H 0.86507 0.14733 0.07005 0.0
H391 H 0.82053 0.11567 0.04419 0.0
H392 H 0.83457 0.16758 0.05344 0.0
H393 H 0.86714 0.24397 0.93159 0.0
H394 H 0.8045 0.19102 0.9032 0.0
H395 H 0.79695 0.10282 0.9788 0.0
C396 C 0.93831 0.22178 0.04103 0.0
C397 C 0.96585 0.26405 0.03958 0.0
C398 C 0.96025 0.28774 0.01404 0.0
C399 C 0.92844 0.26977 -0.01016 0.0
C400 C 0.90211 0.22812 -0.00827 0.0
C401 C 0.90609 0.2044 0.01695 0.0
C402 C 0.87213 0.16057 0.01394 0.0
C403 C 0.88892 0.13239 0.00522 0.0
C404 C 0.84656 0.14701 0.0474 0.0
C405 C 0.84847 0.16363 0.98325 0.0
C406 C 0.86703 0.20278 0.97044 0.0
C407 C 0.85212 0.21325 0.94144 0.0
C408 C 0.81681 0.18301 0.92538 0.0
C409 C 0.7964 0.14317 0.93888 0.0
C410 C 0.8123 0.13321 0.96813 0.0
H411 H 0.28337 0.10772 0.48039 0.0
H412 H 0.33882 0.18742 0.57004 0.0
H413 H 0.32222 0.2367 0.54486 0.0
H414 H 0.31296 0.18228 0.41518 0.0
H415 H 0.26575 0.15821 0.39123 0.0
H416 H 0.28064 0.12788 0.41639 0.0
H417 H 0.21347 0.09682 0.45073 0.0
H418 H 0.1981 0.12675 0.42544 0.0
H419 H 0.19941 0.12992 0.47255 0.0
H420 H 0.30742 0.28007 0.50817 0.0
H421 H 0.2848 0.31254 0.46519 0.0
H422 H 0.23172 0.20315 0.40115 0.0
C423 C 0.29141 0.13535 0.49475 0.0
C424 C 0.31236 0.14406 0.52701 0.0
C425 C 0.32242 0.18023 0.5454 0.0
C426 C 0.31335 0.20846 0.53126 0.0
C427 C 0.29325 0.19945 0.49921 0.0
C428 C 0.28137 0.16346 0.48149 0.0
C429 C 0.25911 0.16139 0.44786 0.0
C430 C 0.28094 0.15721 0.41577 0.0
C431 C 0.2149 0.12666 0.44924 0.0
C432 C 0.26181 0.20252 0.449 0.0
C433 C 0.282 0.2239 0.4788 0.0
C434 C 0.29081 0.26348 0.48505 0.0
C435 C 0.27809 0.2817 0.46039 0.0
C436 C 0.25628 0.26013 0.43014 0.0
C437 C 0.24784 0.21995 0.42439 0.0
H438 H 0.80444 0.13721 0.55034 0.0
H439 H 0.85373 0.21498 0.45968 0.0
H440 H 0.81777 0.15464 0.42091 0.0
H441 H 0.81267 0.05328 0.51656 0.0
H442 H 0.76634 0.01592 0.53683 0.0
H443 H 0.79629 0.06524 0.55677 0.0
H444 H 0.73405 0.07528 0.5561 0.0
H445 H 0.70384 0.02614 0.53601 0.0
H446 H 0.708 0.07057 0.51535 0.0
H447 H 0.77407 0.08526 0.3926 0.0
H448 H 0.72736 0.01276 0.37727 0.0
H449 H 0.71048 0.9824 0.48732 0.0
C450 C 0.80835 0.14171 0.52237 0.0
C451 C 0.8322 0.18065 0.50793 0.0
C452 C 0.83559 0.18526 0.47117 0.0
C453 C 0.8154 0.15123 0.44905 0.0
C454 C 0.7923 0.11314 0.4643 0.0
C455 C 0.7889 0.10834 0.50016 0.0
C456 C 0.76199 0.06456 0.51036 0.0
C457 C 0.78576 0.04884 0.53136 0.0
C458 C 0.72477 0.05882 0.53064 0.0
C459 C 0.75042 0.04521 0.47457 0.0
C460 C 0.76805 0.07361 0.44824 0.0
C461 C 0.76045 0.06275 0.41297 0.0
C462 C 0.73407 0.02178 0.4045 0.0
C463 C 0.71619 -0.00732 0.43129 0.0
C464 C 0.72448 0.0044 0.46658 0.0
H465 H 0.92908 0.66501 0.41434 0.0
H466 H -0.00739 0.79221 0.44494 0.0
H467 H 0.93168 0.78258 0.47519 0.0
H468 H 0.82915 0.65771 0.40058 0.0
H469 H 0.80183 0.60673 0.41734 0.0
H470 H 0.84937 0.62422 0.39539 0.0
H471 H 0.87742 0.60528 0.44959 0.0
H472 H 0.83006 0.58774 0.47164 0.0
H473 H 0.87648 0.62599 0.49184 0.0
H474 H 0.86781 0.7577 0.50831 0.0
H475 H 0.80273 0.71923 0.5394 0.0
H476 H 0.77843 0.60953 0.48441 0.0
C477 C 0.92993 0.6909 0.42702 0.0
C478 C 0.96554 0.72932 0.4273 0.0
C479 C 0.96555 0.76254 0.44416 0.0
C480 C 0.93111 0.75742 0.46142 0.0
C481 C 0.89665 0.7191 0.46099 0.0
C482 C 0.89552 0.68651 0.44386 0.0
C483 C 0.85501 0.64822 0.44856 0.0
C484 C 0.83251 0.63335 0.41337 0.0
C485 C 0.86007 0.61486 0.46648 0.0
C486 C 0.8343 0.66405 0.47225 0.0
C487 C 0.85882 0.70509 0.47897 0.0
C488 C 0.84792 0.72577 0.50268 0.0
C489 C 0.81116 0.70376 0.52033 0.0
C490 C 0.78583 0.66182 0.51378 0.0
C491 C 0.79707 0.6419 0.48901 0.0
H492 H 0.18804 0.28851 0.27403 0.0
H493 H 0.25743 0.41592 0.30345 0.0
H494 H 0.20957 0.42905 0.27043 0.0
H495 H 0.16552 0.30507 0.18648 0.0
H496 H 0.11539 0.2612 0.18589 0.0
H497 H 0.15435 0.26151 0.21284 0.0
H498 H 0.10876 0.24555 0.26736 0.0
H499 H 0.0697 0.24531 0.24057 0.0
H500 H 0.08891 0.27827 0.27833 0.0
H501 H 0.15477 0.4286 0.23383 0.0
H502 H 0.09879 0.41537 0.19356 0.0
H503 H 0.06499 0.28822 0.18783 0.0
C504 C 0.19303 0.31914 0.27365 0.0
C505 C 0.22632 0.35109 0.29152 0.0
C506 C 0.23216 0.39089 0.29003 0.0
C507 C 0.20504 0.39864 0.27145 0.0
C508 C 0.17244 0.36639 0.25431 0.0
C509 C 0.16645 0.32748 0.25504 0.0
C510 C 0.12981 0.29853 0.23336 0.0
C511 C 0.14201 0.28053 0.20284 0.0
C512 C 0.09737 0.26494 0.25628 0.0
C513 C 0.11616 0.32729 0.22032 0.0
C514 C 0.14109 0.36624 0.23282 0.0
C515 C 0.13508 0.39824 0.22381 0.0
C516 C 0.10319 0.39039 0.20088 0.0
C517 C 0.0778 0.35087 0.187 0.0
C518 C 0.08406 0.31885 0.19755 0.0
H519 H 0.58126 0.73623 0.17431 0.0
H520 H 0.71103 0.79485 0.1596 0.0
H521 H 0.72192 0.84108 0.20891 0.0
H522 H 0.57527 0.82058 0.19213 0.0
H523 H 0.53845 0.80039 0.22667 0.0
H524 H 0.53943 0.76689 0.19382 0.0
H525 H 0.54817 0.72293 0.24091 0.0
H526 H 0.54443 0.75467 0.27397 0.0
H527 H 0.58748 0.74728 0.27357 0.0
H528 H 0.71854 0.888 0.2515 0.0
H529 H 0.70306 0.91828 0.3019 0.0
H530 H 0.5758 0.82851 0.29151 0.0
C531 C 0.61194 0.75727 0.18279 0.0
C532 C 0.64537 0.76221 0.16328 0.0
C533 C 0.68514 0.79069 0.17447 0.0
C534 C 0.69158 0.81748 0.20201 0.0
C535 C 0.65789 0.81467 0.21843 0.0
C536 C 0.61897 0.78412 0.21061 0.0
C537 C 0.5883 0.78811 0.23277 0.0
C538 C 0.55862 0.79436 0.20996 0.0
C539 C 0.56578 0.75106 0.25674 0.0
C540 C 0.6161 0.82619 0.2535 0.0
C541 C 0.65602 0.84138 0.24412 0.0
C542 C 0.68748 0.87616 0.25947 0.0
C543 C 0.67834 0.89368 0.28753 0.0
C544 C 0.63828 0.87589 0.30013 0.0
C545 C 0.60645 0.84329 0.28167 0.0
H546 H 0.16959 0.87462 0.17525 0.0
H547 H 0.27533 0.86238 0.19324 0.0
H548 H 0.23897 0.81316 0.24038 0.0
H549 H 0.13805 0.8667 0.26545 0.0
H550 H 0.08504 0.83786 0.25415 0.0
H551 H 0.12061 0.87369 0.22353 0.0
H552 H 0.09577 0.8166 0.17668 0.0
H553 H 0.06065 0.7804 0.20736 0.0
H554 H 0.09729 0.77105 0.18621 0.0
H555 H 0.18906 0.76145 0.28223 0.0
H556 H 0.13215 0.71713 0.32079 0.0
H557 H 0.06009 0.76465 0.27548 0.0
C558 C 0.18544 0.8621 0.18937 0.0
C559 C 0.22521 0.87213 0.18043 0.0
C560 C 0.2448 0.85503 0.19959 0.0
C561 C 0.22435 0.82694 0.22627 0.0
C562 C 0.18456 0.81658 0.2334 0.0
C563 C 0.16554 0.83407 0.21582 0.0
C564 C 0.12242 0.81726 0.22784 0.0
C565 C 0.11619 0.85089 0.2437 0.0
C566 C 0.09227 0.79501 0.19773 0.0
C567 C 0.12023 0.78784 0.25533 0.0
C568 C 0.15615 0.78742 0.25781 0.0
C569 C 0.16089 0.7617 0.28071 0.0
C570 C 0.12833 0.73642 0.30226 0.0
C571 C 0.09186 0.73759 0.30092 0.0
C572 C 0.08774 0.76334 0.27695 0.0
H573 H 0.83151 0.57959 0.79169 0.0
H574 H 0.88688 0.70717 0.81909 0.0
H575 H 0.84518 0.71588 0.77418 0.0
H576 H 0.82016 0.59043 0.69725 0.0
H577 H 0.77197 0.54407 0.69505 0.0
H578 H 0.80926 0.54952 0.72694 0.0
H579 H 0.75628 0.53231 0.77584 0.0
H580 H 0.71933 0.52835 0.74421 0.0
H581 H 0.73274 0.56289 0.78076 0.0
H582 H 0.79674 0.71045 0.728 0.0
H583 H 0.74895 0.69254 0.67834 0.0
H584 H 0.72096 0.56749 0.68389 0.0
C585 C 0.83573 0.60957 0.78733 0.0
C586 C 0.86271 0.64292 0.80827 0.0
C587 C 0.86662 0.68147 0.80283 0.0
C588 C 0.84286 0.68659 0.77769 0.0
C589 C 0.81506 0.6527 0.75861 0.0
C590 C 0.81169 0.61506 0.76273 0.0
C591 C 0.77852 0.58344 0.73954 0.0
C592 C 0.79603 0.56585 0.71312 0.0
C593 C 0.74473 0.54976 0.76141 0.0
C594 C 0.76394 0.60924 0.72166 0.0
C595 C 0.78543 0.6491 0.73316 0.0
C596 C 0.77932 0.67928 0.71904 0.0
C597 C 0.75188 0.66881 0.69122 0.0
C598 C 0.7306 0.6285 0.67835 0.0
C599 C 0.7357 0.5981 0.6944 0.0
H600 H 0.34361 0.18355 0.82207 0.0
H601 H 0.3553 0.28464 0.76138 0.0
H602 H 0.37134 0.25656 0.70862 0.0
H603 H 0.4183 0.16533 0.77692 0.0
H604 H 0.38595 0.11109 0.78019 0.0
H605 H 0.38439 0.14397 0.81341 0.0
H606 H 0.30708 0.11165 0.80335 0.0
H607 H 0.3084 0.07903 0.76997 0.0
H608 H 0.28821 0.1117 0.76002 0.0
H609 H 0.3804 0.21255 0.66176 0.0
H610 H 0.37498 0.15614 0.62525 0.0
H611 H 0.34814 0.08119 0.71729 0.0
C612 C 0.35094 0.20055 0.79788 0.0
C613 C 0.34924 0.23662 0.79569 0.0
C614 C 0.35752 0.25747 0.76358 0.0
C615 C 0.36648 0.2416 0.73363 0.0
C616 C 0.36653 0.2049 0.73657 0.0
C617 C 0.3587 0.1847 0.76806 0.0
C618 C 0.35452 0.14325 0.76414 0.0
C619 C 0.38779 0.14079 0.78489 0.0
C620 C 0.31204 0.10944 0.77499 0.0
C621 C 0.36067 0.14257 0.72527 0.0
C622 C 0.36856 0.17867 0.70978 0.0
C623 C 0.37436 0.18437 0.67378 0.0
C624 C 0.37112 0.15215 0.65323 0.0
C625 C 0.36107 0.11447 0.66863 0.0
C626 C 0.35635 0.10992 0.70507 0.0
H627 H 0.74186 0.06498 0.76813 0.0
H628 H 0.72225 0.15251 0.82459 0.0
H629 H 0.77876 0.20848 0.79244 0.0
H630 H 0.85051 0.12301 0.76268 0.0
H631 H 0.85149 0.10672 0.71852 0.0
H632 H 0.81107 0.07405 0.74737 0.0
H633 H 0.75812 0.07 0.70231 0.0
H634 H 0.79838 0.10207 0.67321 0.0
H635 H 0.76189 0.11625 0.68633 0.0
H636 H 0.83516 0.25459 0.75067 0.0
H637 H 0.88084 0.28472 0.69989 0.0
H638 H 0.86516 0.16635 0.67496 0.0
C639 C 0.74959 0.09598 0.77377 0.0
C640 C 0.72778 0.10453 0.79863 0.0
C641 C 0.73837 0.14535 0.80523 0.0
C642 C 0.77067 0.17731 0.78741 0.0
C643 C 0.79186 0.16783 0.76314 0.0
C644 C 0.78138 0.12804 0.75613 0.0
C645 C 0.80656 0.12539 0.72708 0.0
C646 C 0.83138 0.10616 0.73971 0.0
C647 C 0.77965 0.10208 0.69537 0.0
C648 C 0.83339 0.16995 0.71924 0.0
C649 C 0.82455 0.19416 0.74001 0.0
C650 C 0.8428 0.236 0.73458 0.0
C651 C 0.86908 0.253 0.70596 0.0
C652 C 0.87679 0.22802 0.68357 0.0
C653 C 0.86039 0.18653 0.69176 0.0
H654 H 0.00165 0.44395 0.05585 0.0
H655 H 0.10646 0.48895 -0.01167 0.0
H656 H 0.07658 0.51824 0.94894 0.0
H657 H 0.92755 0.41565 -0.01091 0.0
H658 H 0.89742 0.43205 0.01259 0.0
H659 H 0.92754 0.41572 0.03628 0.0
H660 H 0.96374 0.4843 0.06994 0.0
H661 H 0.93332 0.50063 0.04672 0.0
H662 H -0.01228 0.53111 0.04573 0.0
H663 H 0.03444 0.54129 0.91613 0.0
H664 H -0.01511 0.56003 0.8945 0.0
H665 H 0.90788 0.49911 0.98337 0.0
C666 C 0.01851 0.46026 0.03296 0.0
C667 C 0.05636 0.46414 0.02516 0.0
C668 C 0.07746 0.48573 -0.00507 0.0
C669 C 0.06068 0.50233 0.97229 0.0
C670 C 0.02293 0.49725 0.98038 0.0
C671 C 0.00231 0.47713 0.01017 0.0
C672 C 0.96238 0.47614 0.01304 0.0
C673 C 0.92662 0.43228 0.01271 0.0
C674 C 0.96177 0.49944 0.04579 0.0
C675 C 0.96347 0.49826 0.97991 0.0
C676 C -0.00134 0.51032 0.96145 0.0
C677 C 0.00674 0.53201 0.93035 0.0
C678 C 0.97839 0.54238 0.91822 0.0
C679 C 0.94246 0.53086 0.93715 0.0
C680 C 0.93482 0.50801 0.96808 0.0
H681 H 0.4938 0.57714 0.98377 0.0
H682 H 0.53601 0.5472 0.07851 0.0
H683 H 0.51423 0.47864 0.05405 0.0
H684 H 0.40669 0.48328 0.96796 0.0
H685 H 0.41289 0.48523 0.92113 0.0
H686 H 0.43305 0.53156 0.94607 0.0
H687 H 0.50416 0.55553 0.92028 0.0
H688 H 0.48421 0.50904 0.8954 0.0
H689 H 0.52648 0.52382 0.92473 0.0
H690 H 0.48519 0.41239 0.01906 0.0
H691 H 0.44945 0.35403 0.97866 0.0
H692 H 0.42807 0.42948 0.90683 0.0
C693 C 0.49824 0.55614 -0.00037 0.0
C694 C 0.51602 0.56722 0.03331 0.0
C695 C 0.52215 0.53915 0.05276 0.0
C696 C 0.51007 0.50031 0.03898 0.0
C697 C 0.49276 0.49053 0.00551 0.0
C698 C 0.48714 0.51786 0.98609 0.0
C699 C 0.46794 0.50037 0.95086 0.0
C700 C 0.42775 0.50007 0.94627 0.0
C701 C 0.49746 0.52357 0.92106 0.0
C702 C 0.46138 0.45794 0.95409 0.0
C703 C 0.47669 0.45304 0.98543 0.0
C704 C 0.47339 0.41606 -0.0056 0.0
C705 C 0.45314 0.3831 0.97116 0.0
C706 C 0.43594 0.38716 0.93951 0.0
C707 C 0.44092 0.42538 0.93073 0.0
H708 H 0.40376 0.91987 0.00214 0.0
H709 H 0.40626 0.0132 0.06948 0.0
H710 H 0.47258 0.06329 0.04491 0.0
H711 H 0.50968 0.95292 0.00743 0.0
H712 H 0.51259 0.94068 0.96232 0.0
H713 H 0.46582 0.91257 0.98574 0.0
H714 H 0.42893 0.93026 0.93787 0.0
H715 H 0.4757 0.95881 0.9145 0.0
H716 H 0.44718 0.98271 0.92722 0.0
H717 H 0.53839 0.10299 0.01259 0.0
H718 H 0.60007 0.12884 0.97685 0.0
H719 H 0.55312 0.00918 0.93029 0.0
C720 C 0.41828 0.95076 0.01196 0.0
C721 C 0.3999 0.96265 0.03779 0.0
C722 C 0.41987 0.00343 0.04975 0.0
C723 C 0.45743 0.03208 0.03588 0.0
C724 C 0.4744 0.01939 0.01006 0.0
C725 C 0.45552 0.97966 -0.00166 0.0
C726 C 0.47996 0.9737 0.97034 0.0
C727 C 0.49278 0.94317 0.98218 0.0
C728 C 0.45654 0.96061 0.93542 0.0
C729 C 0.51582 0.01628 0.96832 0.0
C730 C 0.51199 0.04224 -0.00869 0.0
C731 C 0.5417 0.08297 -0.00554 0.0
C732 C 0.57657 0.09737 0.97401 0.0
C733 C 0.5814 0.07105 0.95076 0.0
C734 C 0.55027 0.03014 0.94765 0.0
H735 H 0.46588 0.89966 0.46064 0.0
H736 H 0.56782 -0.00631 0.40362 0.0
H737 H 0.55185 0.04477 0.42633 0.0
H738 H 0.39841 0.9411 0.44851 0.0
H739 H 0.37731 0.92635 0.49167 0.0
H740 H 0.39542 0.89709 0.46898 0.0
H741 H 0.4424 0.90661 0.52169 0.0
H742 H 0.42496 0.93647 0.54428 0.0
H743 H 0.47827 0.95718 0.53665 0.0
H744 H 0.52796 0.08612 0.45847 0.0
H745 H 0.49383 0.11446 0.49347 0.0
H746 H 0.40698 -0.00668 0.5292 0.0
C747 C 0.48446 0.93087 0.4524 0.0
C748 C 0.51808 0.94267 0.4303 0.0
C749 C 0.54176 0.98387 0.42034 0.0
C750 C 0.53307 0.01315 0.43325 0.0
C751 C 0.50045 0.00063 0.45583 0.0
C752 C 0.47615 0.96042 0.46494 0.0
C753 C 0.44336 0.95508 0.49013 0.0
C754 C 0.40113 0.92833 0.47384 0.0
C755 C 0.44753 0.93782 0.52526 0.0
C756 C 0.45325 -0.0013 0.49401 0.0
C757 C 0.48638 0.02447 0.47411 0.0
C758 C 0.50174 0.06622 0.47388 0.0
C759 C 0.4822 0.08202 0.49397 0.0
C760 C 0.44759 0.0561 0.51392 0.0
C761 C 0.43327 0.01392 0.51414 0.0
H762 H 0.91815 0.38762 0.48269 0.0
H763 H 0.97612 0.41963 0.58499 0.0
H764 H 0.01474 0.49169 0.56726 0.0
H765 H 0.00746 0.45788 0.43486 0.0
H766 H -0.0205 0.4689 0.40291 0.0
H767 H 0.95613 0.42008 0.42388 0.0
H768 H 0.89716 0.43021 0.44424 0.0
H769 H 0.92039 0.47908 0.42342 0.0
H770 H 0.90814 0.47484 0.46929 0.0
H771 H 0.04746 0.55907 0.5384 0.0
H772 H 0.07286 0.61886 0.50025 0.0
H773 H -0.00709 0.54346 0.41662 0.0
C774 C 0.93876 0.40984 0.50147 0.0
C775 C 0.94404 0.39829 0.53531 0.0
C776 C 0.97176 0.428 0.55894 0.0
C777 C -0.00631 0.46888 0.54913 0.0
C778 C -0.01224 0.47922 0.51554 0.0
C779 C 0.96117 0.45059 0.49198 0.0
C780 C 0.96136 0.46955 0.45712 0.0
C781 C 0.97705 0.45313 0.42798 0.0
C782 C 0.91926 0.46304 0.44801 0.0
C783 C -0.00868 0.51366 0.46513 0.0
C784 C 0.00653 0.51834 0.49884 0.0
C785 C 0.03577 0.55585 0.51201 0.0
C786 C 0.05007 0.58953 0.49011 0.0
C787 C 0.03472 0.58556 0.45564 0.0
C788 C 0.00475 0.54722 0.44304 0.0
H789 H 0.4005 0.50178 0.46592 0.0
H790 H 0.38428 0.39065 0.41867 0.0
H791 H 0.44719 0.40197 0.44691 0.0
H792 H 0.51025 0.55853 0.45544 0.0
H793 H 0.51908 0.586 0.49606 0.0
H794 H 0.47244 0.56907 0.47227 0.0
H795 H 0.43205 0.53127 0.52743 0.0
H796 H 0.47859 0.54768 0.55123 0.0
H797 H 0.44172 0.49435 0.54792 0.0
H798 H 0.51017 0.4236 0.48115 0.0
H799 H 0.57388 0.45806 0.5149 0.0
H800 H 0.55163 0.55673 0.53896 0.0
C801 C 0.41037 0.48 0.46143 0.0
C802 C 0.38748 0.44535 0.44009 0.0
C803 C 0.40146 0.41761 0.43465 0.0
C804 C 0.43702 0.4236 0.45077 0.0
C805 C 0.45863 0.45774 0.47193 0.0
C806 C 0.44632 0.48588 0.47689 0.0
C807 C 0.47619 0.52073 0.49995 0.0
C808 C 0.49564 0.56096 0.47972 0.0
C809 C 0.45592 0.52365 0.53363 0.0
C810 C 0.50672 0.5073 0.50761 0.0
C811 C 0.4958 0.47079 0.49125 0.0
C812 C 0.51919 0.45229 0.49399 0.0
C813 C 0.55531 0.4721 0.5133 0.0
C814 C 0.56781 0.51009 0.52958 0.0
C815 C 0.54278 0.52757 0.52706 0.0
loop_
_geom_bond_atom_site_label_1
_geom_bond_atom_site_label_2
_geom_bond_distance
_geom_bond_site_symmetry_2
_ccdc_geom_bond_type
Mg0 O1 2.028 . S
Mg0 O7 1.986 . S
Mg0 O9 2.114 . S
Mg0 O10 2.251 . S
Mg0 O13 2.010 . S
O1 Mg0 2.028 . S
O1 C4 1.250 1_455 S
O2 Mg3 2.028 . S
O2 C4 1.248 1_455 S
Mg3 O2 2.028 . S
Mg3 O8 2.032 . S
Mg3 O10 2.079 . S
C4 O1 1.250 1_655 S
C4 O2 1.248 1_655 S
C5 O6 1.264 . S
C5 O13 1.249 . S
O6 C5 1.264 . S
O7 Mg0 1.986 . S
O7 C11 1.246 . S
O8 Mg3 2.032 . S
O8 C11 1.259 . S
O9 Mg0 2.114 . S
O9 C12 1.252 . S
O10 Mg0 2.251 . S
O10 Mg3 2.079 . S
O10 C12 1.273 . S
C11 O7 1.246 . S
C11 O8 1.259 . S
C12 O9 1.252 . S
C12 O10 1.273 . S
O13 Mg0 2.010 . S
O13 C5 1.249 . S
Mg14 O15 2.028 . S
Mg14 O21 1.986 . S
Mg14 O23 2.114 . S
Mg14 O24 2.251 . S
Mg14 O27 2.010 . S
O15 Mg14 2.028 . S
O15 C18 1.250 . S
O16 Mg17 2.028 . S
O16 C18 1.248 . S
Mg17 O16 2.028 . S
Mg17 O22 2.032 . S
Mg17 O24 2.079 . S
C18 O15 1.250 . S
C18 O16 1.248 . S
C19 O20 1.264 . S
C19 O27 1.249 . S
O20 C19 1.264 . S
O21 Mg14 1.986 . S
O21 C25 1.246 . S
O22 Mg17 2.032 . S
O22 C25 1.259 . S
O23 Mg14 2.114 . S
O23 C26 1.252 . S
O24 Mg14 2.251 . S
O24 Mg17 2.079 . S
O24 C26 1.273 . S
C25 O21 1.246 . S
C25 O22 1.259 . S
C26 O23 1.252 . S
C26 O24 1.273 . S
O27 Mg14 2.010 . S
O27 C19 1.249 . S
Mg28 O29 2.028 . S
Mg28 O35 1.986 . S
Mg28 O37 2.114 . S
Mg28 O38 2.251 . S
Mg28 O41 2.010 . S
O29 Mg28 2.028 . S
O29 C32 1.250 1_565 S
O30 Mg31 2.028 . S
O30 C32 1.248 1_565 S
Mg31 O30 2.028 . S
Mg31 O36 2.032 . S
Mg31 O38 2.079 . S
C32 O29 1.250 1_545 S
C32 O30 1.248 1_545 S
C33 O34 1.264 . S
C33 O41 1.249 . S
O34 C33 1.264 . S
O35 Mg28 1.986 . S
O35 C39 1.246 . S
O36 Mg31 2.032 . S
O36 C39 1.259 . S
O37 Mg28 2.114 . S
O37 C40 1.252 . S
O38 Mg28 2.251 . S
O38 Mg31 2.079 . S
O38 C40 1.273 . S
C39 O35 1.246 . S
C39 O36 1.259 . S
C40 O37 1.252 . S
C40 O38 1.273 . S
O41 Mg28 2.010 . S
O41 C33 1.249 . S
Mg42 O43 2.028 . S
Mg42 O49 1.986 . S
Mg42 O51 2.114 . S
Mg42 O52 2.251 . S
Mg42 O55 2.010 . S
O43 Mg42 2.028 . S
O43 C46 1.250 1_565 S
O44 Mg45 2.028 . S
O44 C46 1.248 1_565 S
Mg45 O44 2.028 . S
Mg45 O50 2.032 . S
Mg45 O52 2.079 . S
C46 O43 1.250 1_545 S
C46 O44 1.248 1_545 S
C47 O48 1.264 . S
C47 O55 1.249 . S
O48 C47 1.264 . S
O49 Mg42 1.986 . S
O49 C53 1.246 . S
O50 Mg45 2.032 . S
O50 C53 1.259 . S
O51 Mg42 2.114 . S
O51 C54 1.252 . S
O52 Mg42 2.251 . S
O52 Mg45 2.079 . S
O52 C54 1.273 . S
C53 O49 1.246 . S
C53 O50 1.259 . S
C54 O51 1.252 . S
C54 O52 1.273 . S
O55 Mg42 2.010 . S
O55 C47 1.249 . S
Mg56 O57 2.028 . S
Mg56 O63 1.986 . S
Mg56 O65 2.114 . S
Mg56 O66 2.251 . S
Mg56 O69 2.010 . S
O57 Mg56 2.028 . S
O57 C60 1.250 1_455 S
O58 Mg59 2.028 . S
O58 C60 1.248 1_455 S
Mg59 O58 2.028 . S
Mg59 O64 2.032 . S
Mg59 O66 2.079 . S
C60 O57 1.250 1_655 S
C60 O58 1.248 1_655 S
C61 O62 1.264 . S
C61 O69 1.249 . S
O62 C61 1.264 . S
O63 Mg56 1.986 . S
O63 C67 1.246 . S
O64 Mg59 2.032 . S
O64 C67 1.259 . S
O65 Mg56 2.114 . S
O65 C68 1.252 . S
O66 Mg56 2.251 . S
O66 Mg59 2.079 . S
O66 C68 1.273 . S
C67 O63 1.246 . S
C67 O64 1.259 . S
C68 O65 1.252 . S
C68 O66 1.273 . S
O69 Mg56 2.010 . S
O69 C61 1.249 . S
Mg70 O71 2.028 . S
Mg70 O77 1.986 . S
Mg70 O79 2.114 . S
Mg70 O80 2.251 . S
Mg70 O83 2.010 . S
O71 Mg70 2.028 . S
O71 C74 1.250 . S
O72 Mg73 2.028 . S
O72 C74 1.248 . S
Mg73 O72 2.028 . S
Mg73 O78 2.032 . S
Mg73 O80 2.079 . S
C74 O71 1.250 . S
C74 O72 1.248 . S
C75 O76 1.264 . S
C75 O83 1.249 . S
O76 C75 1.264 . S
O77 Mg70 1.986 . S
O77 C81 1.246 . S
O78 Mg73 2.032 . S
O78 C81 1.259 . S
O79 Mg70 2.114 . S
O79 C82 1.252 . S
O80 Mg70 2.251 . S
O80 Mg73 2.079 . S
O80 C82 1.273 . S
C81 O77 1.246 . S
C81 O78 1.259 . S
C82 O79 1.252 . S
C82 O80 1.273 . S
O83 Mg70 2.010 . S
O83 C75 1.249 . S
Mg84 O85 2.028 . S
Mg84 O91 1.986 . S
Mg84 O93 2.114 . S
Mg84 O94 2.251 . S
Mg84 O97 2.010 . S
O85 Mg84 2.028 . S
O85 C88 1.250 1_655 S
O86 Mg87 2.028 . S
O86 C88 1.248 1_655 S
Mg87 O86 2.028 . S
Mg87 O92 2.032 . S
Mg87 O94 2.079 . S
C88 O85 1.250 1_455 S
C88 O86 1.248 1_455 S
C89 O90 1.264 . S
C89 O97 1.249 . S
O90 C89 1.264 . S
O91 Mg84 1.986 . S
O91 C95 1.246 . S
O92 Mg87 2.032 . S
O92 C95 1.259 . S
O93 Mg84 2.114 . S
O93 C96 1.252 . S
O94 Mg84 2.251 . S
O94 Mg87 2.079 . S
O94 C96 1.273 . S
C95 O91 1.246 . S
C95 O92 1.259 . S
C96 O93 1.252 . S
C96 O94 1.273 . S
O97 Mg84 2.010 . S
O97 C89 1.249 . S
Mg98 O99 2.028 . S
Mg98 O105 1.986 . S
Mg98 O107 2.114 . S
Mg98 O108 2.251 . S
Mg98 O111 2.010 . S
O99 Mg98 2.028 . S
O99 C102 1.250 . S
O100 Mg101 2.028 . S
O100 C102 1.248 . S
Mg101 O100 2.028 . S
Mg101 O106 2.032 . S
Mg101 O108 2.079 . S
C102 O99 1.250 . S
C102 O100 1.248 . S
C103 O104 1.264 . S
C103 O111 1.249 . S
O104 C103 1.264 . S
O105 Mg98 1.986 . S
O105 C109 1.246 . S
O106 Mg101 2.032 . S
O106 C109 1.259 . S
O107 Mg98 2.114 . S
O107 C110 1.252 . S
O108 Mg98 2.251 . S
O108 Mg101 2.079 . S
O108 C110 1.273 . S
C109 O105 1.246 . S
C109 O106 1.259 . S
C110 O107 1.252 . S
C110 O108 1.273 . S
O111 Mg98 2.010 . S
O111 C103 1.249 . S
Mg112 O113 2.028 . S
Mg112 O119 1.986 . S
Mg112 O121 2.114 . S
Mg112 O122 2.251 . S
Mg112 O125 2.010 . S
O113 Mg112 2.028 . S
O113 C116 1.250 1_545 S
O114 Mg115 2.028 . S
O114 C116 1.248 1_545 S
Mg115 O114 2.028 . S
Mg115 O120 2.032 . S
Mg115 O122 2.079 . S
C116 O113 1.250 1_565 S
C116 O114 1.248 1_565 S
C117 O118 1.264 . S
C117 O125 1.249 . S
O118 C117 1.264 . S
O119 Mg112 1.986 . S
O119 C123 1.246 . S
O120 Mg115 2.032 . S
O120 C123 1.259 . S
O121 Mg112 2.114 . S
O121 C124 1.252 . S
O122 Mg112 2.251 . S
O122 Mg115 2.079 . S
O122 C124 1.273 . S
C123 O119 1.246 . S
C123 O120 1.259 . S
C124 O121 1.252 . S
C124 O122 1.273 . S
O125 Mg112 2.010 . S
O125 C117 1.249 . S
Mg126 O127 2.028 . S
Mg126 O133 1.986 . S
Mg126 O135 2.114 . S
Mg126 O136 2.251 . S
Mg126 O139 2.010 . S
O127 Mg126 2.028 . S
O127 C130 1.250 1_545 S
O128 Mg129 2.028 . S
O128 C130 1.248 1_545 S
Mg129 O128 2.028 . S
Mg129 O134 2.032 . S
Mg129 O136 2.079 . S
C130 O127 1.250 1_565 S
C130 O128 1.248 1_565 S
C131 O132 1.264 . S
C131 O139 1.249 . S
O132 C131 1.264 . S
O133 Mg126 1.986 . S
O133 C137 1.246 . S
O134 Mg129 2.032 . S
O134 C137 1.259 . S
O135 Mg126 2.114 . S
O135 C138 1.252 . S
O136 Mg126 2.251 . S
O136 Mg129 2.079 . S
O136 C138 1.273 . S
C137 O133 1.246 . S
C137 O134 1.259 . S
C138 O135 1.252 . S
C138 O136 1.273 . S
O139 Mg126 2.010 . S
O139 C131 1.249 . S
Mg140 O141 2.028 . S
Mg140 O147 1.986 . S
Mg140 O149 2.114 . S
Mg140 O150 2.251 . S
Mg140 O153 2.010 . S
O141 Mg140 2.028 . S
O141 C144 1.250 1_655 S
O142 Mg143 2.028 . S
O142 C144 1.248 1_655 S
Mg143 O142 2.028 . S
Mg143 O148 2.032 . S
Mg143 O150 2.079 . S
C144 O141 1.250 1_455 S
C144 O142 1.248 1_455 S
C145 O146 1.264 . S
C145 O153 1.249 . S
O146 C145 1.264 . S
O147 Mg140 1.986 . S
O147 C151 1.246 . S
O148 Mg143 2.032 . S
O148 C151 1.259 . S
O149 Mg140 2.114 . S
O149 C152 1.252 . S
O150 Mg140 2.251 . S
O150 Mg143 2.079 . S
O150 C152 1.273 . S
C151 O147 1.246 . S
C151 O148 1.259 . S
C152 O149 1.252 . S
C152 O150 1.273 . S
O153 Mg140 2.010 . S
O153 C145 1.249 . S
Mg154 O155 2.028 . S
Mg154 O161 1.986 . S
Mg154 O163 2.114 . S
Mg154 O164 2.251 . S
Mg154 O167 2.010 . S
O155 Mg154 2.028 . S
O155 C158 1.250 . S
O156 Mg157 2.028 . S
O156 C158 1.248 . S
Mg157 O156 2.028 . S
Mg157 O162 2.032 . S
Mg157 O164 2.079 . S
C158 O155 1.250 . S
C158 O156 1.248 . S
C159 O160 1.264 . S
C159 O167 1.249 . S
O160 C159 1.264 . S
O161 Mg154 1.986 . S
O161 C165 1.246 . S
O162 Mg157 2.032 . S
O162 C165 1.259 . S
O163 Mg154 2.114 . S
O163 C166 1.252 . S
O164 Mg154 2.251 . S
O164 Mg157 2.079 . S
O164 C166 1.273 . S
C165 O161 1.246 . S
C165 O162 1.259 . S
C166 O163 1.252 . S
C166 O164 1.273 . S
O167 Mg154 2.010 . S
O167 C159 1.249 . S
H168 C180 0.930 . S
H169 C182 0.930 . S
H170 C183 0.930 . S
H171 C187 0.959 . S
H172 C187 0.959 . S
H173 C187 0.961 . S
H174 C188 0.960 . S
H175 C188 0.961 . S
H176 C188 0.959 . S
H177 C191 0.929 1_554 S
H178 C192 0.931 . S
H179 C194 0.930 . S
C180 H168 0.930 . S
C180 C181 1.399 1_556 S
C180 C185 1.399 . S
C181 C180 1.399 1_554 S
C181 C182 1.376 . S
C182 H169 0.930 . S
C182 C181 1.376 . S
C182 C183 1.388 . S
C183 H170 0.930 . S
C183 C182 1.388 . S
C183 C184 1.390 . S
C184 C183 1.390 . S
C184 C185 1.394 1_554 S
C184 C190 1.465 1_554 S
C185 C180 1.399 . S
C185 C184 1.394 1_556 S
C185 C186 1.516 . S
C186 C185 1.516 . S
C186 C187 1.502 . S
C186 C188 1.561 . S
C186 C189 1.526 . S
C187 H171 0.959 . S
C187 H172 0.959 . S
C187 H173 0.961 . S
C187 C186 1.502 . S
C188 H174 0.960 . S
C188 H175 0.961 . S
C188 H176 0.959 . S
C188 C186 1.561 . S
C189 C186 1.526 . S
C189 C190 1.396 . S
C189 C194 1.390 . S
C190 C184 1.465 1_556 S
C190 C189 1.396 . S
C190 C191 1.399 . S
C191 H177 0.929 1_556 S
C191 C190 1.399 . S
C191 C192 1.385 . S
C192 H178 0.931 . S
C192 C191 1.385 . S
C192 C193 1.389 . S
C193 C192 1.389 . S
C193 C194 1.387 . S
C194 H179 0.930 . S
C194 C189 1.390 . S
C194 C193 1.387 . S
H195 C207 0.930 . S
H196 C209 0.930 . S
H197 C210 0.930 . S
H198 C214 0.959 . S
H199 C214 0.959 . S
H200 C214 0.961 . S
H201 C215 0.960 . S
H202 C215 0.961 . S
H203 C215 0.959 . S
H204 C218 0.929 1_554 S
H205 C219 0.931 . S
H206 C221 0.930 . S
C207 H195 0.930 . S
C207 C208 1.399 1_556 S
C207 C212 1.399 . S
C208 C207 1.399 1_554 S
C208 C209 1.376 . S
C209 H196 0.930 . S
C209 C208 1.376 . S
C209 C210 1.388 . S
C210 H197 0.930 . S
C210 C209 1.388 . S
C210 C211 1.390 . S
C211 C210 1.390 . S
C211 C212 1.394 1_554 S
C211 C217 1.465 1_554 S
C212 C207 1.399 . S
C212 C211 1.394 1_556 S
C212 C213 1.516 . S
C213 C212 1.516 . S
C213 C214 1.502 . S
C213 C215 1.561 . S
C213 C216 1.526 . S
C214 H198 0.959 . S
C214 H199 0.959 . S
C214 H200 0.961 . S
C214 C213 1.502 . S
C215 H201 0.960 . S
C215 H202 0.961 . S
C215 H203 0.959 . S
C215 C213 1.561 . S
C216 C213 1.526 . S
C216 C217 1.396 . S
C216 C221 1.390 . S
C217 C211 1.465 1_556 S
C217 C216 1.396 . S
C217 C218 1.399 . S
C218 H204 0.929 1_556 S
C218 C217 1.399 . S
C218 C219 1.385 . S
C219 H205 0.931 . S
C219 C218 1.385 . S
C219 C220 1.389 . S
C220 C219 1.389 . S
C220 C221 1.387 . S
C221 H206 0.930 . S
C221 C216 1.390 . S
C221 C220 1.387 . S
H222 C234 0.930 . S
H223 C236 0.930 . S
H224 C237 0.930 . S
H225 C241 0.959 . S
H226 C241 0.959 . S
H227 C241 0.961 . S
H228 C242 0.960 . S
H229 C242 0.961 . S
H230 C242 0.959 . S
H231 C245 0.929 . S
H232 C246 0.931 . S
H233 C248 0.930 . S
C234 H222 0.930 . S
C234 C235 1.399 . S
C234 C239 1.399 . S
C235 C234 1.399 . S
C235 C236 1.376 1_554 S
C236 H223 0.930 . S
C236 C235 1.376 1_556 S
C236 C237 1.388 . S
C237 H224 0.930 . S
C237 C236 1.388 . S
C237 C238 1.390 . S
C238 C237 1.390 . S
C238 C239 1.394 1_556 S
C238 C244 1.465 . S
C239 C234 1.399 . S
C239 C238 1.394 1_554 S
C239 C240 1.516 . S
C240 C239 1.516 . S
C240 C241 1.502 . S
C240 C242 1.561 . S
C240 C243 1.526 1_554 S
C241 H225 0.959 . S
C241 H226 0.959 . S
C241 H227 0.961 . S
C241 C240 1.502 . S
C242 H228 0.960 . S
C242 H229 0.961 . S
C242 H230 0.959 . S
C242 C240 1.561 . S
C243 C240 1.526 1_556 S
C243 C244 1.396 . S
C243 C248 1.390 . S
C244 C238 1.465 . S
C244 C243 1.396 . S
C244 C245 1.399 . S
C245 H231 0.929 . S
C245 C244 1.399 . S
C245 C246 1.385 . S
C246 H232 0.931 . S
C246 C245 1.385 . S
C246 C247 1.389 . S
C247 C246 1.389 . S
C247 C248 1.387 . S
C248 H233 0.930 . S
C248 C243 1.390 . S
C248 C247 1.387 . S
H249 C261 0.930 . S
H250 C263 0.930 . S
H251 C264 0.930 . S
H252 C268 0.959 . S
H253 C268 0.959 . S
H254 C268 0.961 . S
H255 C269 0.960 . S
H256 C269 0.961 . S
H257 C269 0.959 . S
H258 C272 0.929 . S
H259 C273 0.931 . S
H260 C275 0.930 . S
C261 H249 0.930 . S
C261 C262 1.399 . S
C261 C266 1.399 . S
C262 C261 1.399 . S
C262 C263 1.376 . S
C263 H250 0.930 . S
C263 C262 1.376 . S
C263 C264 1.388 . S
C264 H251 0.930 . S
C264 C263 1.388 . S
C264 C265 1.390 . S
C265 C264 1.390 . S
C265 C266 1.394 . S
C265 C271 1.465 . S
C266 C261 1.399 . S
C266 C265 1.394 . S
C266 C267 1.516 . S
C267 C266 1.516 . S
C267 C268 1.502 . S
C267 C269 1.561 . S
C267 C270 1.526 . S
C268 H252 0.959 . S
C268 H253 0.959 . S
C268 H254 0.961 . S
C268 C267 1.502 . S
C269 H255 0.960 . S
C269 H256 0.961 . S
C269 H257 0.959 . S
C269 C267 1.561 . S
C270 C267 1.526 . S
C270 C271 1.396 . S
C270 C275 1.390 . S
C271 C265 1.465 . S
C271 C270 1.396 . S
C271 C272 1.399 . S
C272 H258 0.929 . S
C272 C271 1.399 . S
C272 C273 1.385 . S
C273 H259 0.931 . S
C273 C272 1.385 . S
C273 C274 1.389 . S
C274 C273 1.389 . S
C274 C275 1.387 . S
C275 H260 0.930 . S
C275 C270 1.390 . S
C275 C274 1.387 . S
H276 C288 0.930 . S
H277 C290 0.930 . S
H278 C291 0.930 . S
H279 C295 0.959 . S
H280 C295 0.959 . S
H281 C295 0.961 . S
H282 C296 0.960 . S
H283 C296 0.961 . S
H284 C296 0.959 . S
H285 C299 0.929 . S
H286 C300 0.931 . S
H287 C302 0.930 . S
C288 H276 0.930 . S
C288 C289 1.399 . S
C288 C293 1.399 . S
C289 C288 1.399 . S
C289 C290 1.376 . S
C290 H277 0.930 . S
C290 C289 1.376 . S
C290 C291 1.388 . S
C291 H278 0.930 . S
C291 C290 1.388 . S
C291 C292 1.390 . S
C292 C291 1.390 . S
C292 C293 1.394 . S
C292 C298 1.465 . S
C293 C288 1.399 . S
C293 C292 1.394 . S
C293 C294 1.516 . S
C294 C293 1.516 . S
C294 C295 1.502 . S
C294 C296 1.561 . S
C294 C297 1.526 . S
C295 H279 0.959 . S
C295 H280 0.959 . S
C295 H281 0.961 . S
C295 C294 1.502 . S
C296 H282 0.960 . S
C296 H283 0.961 . S
C296 H284 0.959 . S
C296 C294 1.561 . S
C297 C294 1.526 . S
C297 C298 1.396 . S
C297 C302 1.390 . S
C298 C292 1.465 . S
C298 C297 1.396 . S
C298 C299 1.399 . S
C299 H285 0.929 . S
C299 C298 1.399 . S
C299 C300 1.385 . S
C300 H286 0.931 . S
C300 C299 1.385 . S
C300 C301 1.389 . S
C301 C300 1.389 . S
C301 C302 1.387 . S
C302 H287 0.930 . S
C302 C297 1.390 . S
C302 C301 1.387 . S
H303 C315 0.930 . S
H304 C317 0.930 1_655 S
H305 C318 0.930 . S
H306 C322 0.959 . S
H307 C322 0.959 . S
H308 C322 0.961 . S
H309 C323 0.960 . S
H310 C323 0.961 . S
H311 C323 0.959 . S
H312 C326 0.929 . S
H313 C327 0.931 . S
H314 C329 0.930 . S
C315 H303 0.930 . S
C315 C316 1.399 . S
C315 C320 1.399 . S
C316 C315 1.399 . S
C316 C317 1.376 . S
C317 H304 0.930 1_455 S
C317 C316 1.376 . S
C317 C318 1.388 . S
C318 H305 0.930 . S
C318 C317 1.388 . S
C318 C319 1.390 . S
C319 C318 1.390 . S
C319 C320 1.394 . S
C319 C325 1.465 . S
C320 C315 1.399 . S
C320 C319 1.394 . S
C320 C321 1.516 . S
C321 C320 1.516 . S
C321 C322 1.502 . S
C321 C323 1.561 . S
C321 C324 1.526 . S
C322 H306 0.959 . S
C322 H307 0.959 . S
C322 H308 0.961 . S
C322 C321 1.502 . S
C323 H309 0.960 . S
C323 H310 0.961 . S
C323 H311 0.959 . S
C323 C321 1.561 . S
C324 C321 1.526 . S
C324 C325 1.396 . S
C324 C329 1.390 . S
C325 C319 1.465 . S
C325 C324 1.396 . S
C325 C326 1.399 . S
C326 H312 0.929 . S
C326 C325 1.399 . S
C326 C327 1.385 . S
C327 H313 0.931 . S
C327 C326 1.385 . S
C327 C328 1.389 . S
C328 C327 1.389 . S
C328 C329 1.387 . S
C329 H314 0.930 . S
C329 C324 1.390 . S
C329 C328 1.387 . S
H330 C342 0.930 . S
H331 C344 0.930 . S
H332 C345 0.930 . S
H333 C349 0.959 . S
H334 C349 0.959 . S
H335 C349 0.961 . S
H336 C350 0.960 . S
H337 C350 0.961 . S
H338 C350 0.959 . S
H339 C353 0.929 . S
H340 C354 0.931 . S
H341 C356 0.930 . S
C342 H330 0.930 . S
C342 C343 1.399 . S
C342 C347 1.399 . S
C343 C342 1.399 . S
C343 C344 1.376 . S
C344 H331 0.930 . S
C344 C343 1.376 . S
C344 C345 1.388 . S
C345 H332 0.930 . S
C345 C344 1.388 . S
C345 C346 1.390 . S
C346 C345 1.390 . S
C346 C347 1.394 . S
C346 C352 1.465 . S
C347 C342 1.399 . S
C347 C346 1.394 . S
C347 C348 1.516 . S
C348 C347 1.516 . S
C348 C349 1.502 1_554 S
C348 C350 1.561 . S
C348 C351 1.526 . S
C349 H333 0.959 . S
C349 H334 0.959 . S
C349 H335 0.961 . S
C349 C348 1.502 1_556 S
C350 H336 0.960 . S
C350 H337 0.961 . S
C350 H338 0.959 . S
C350 C348 1.561 . S
C351 C348 1.526 . S
C351 C352 1.396 . S
C351 C356 1.390 1_554 S
C352 C346 1.465 . S
C352 C351 1.396 . S
C352 C353 1.399 . S
C353 H339 0.929 . S
C353 C352 1.399 . S
C353 C354 1.385 1_554 S
C354 H340 0.931 . S
C354 C353 1.385 1_556 S
C354 C355 1.389 . S
C355 C354 1.389 . S
C355 C356 1.387 . S
C356 H341 0.930 . S
C356 C351 1.390 1_556 S
C356 C355 1.387 . S
H357 C369 0.930 . S
H358 C371 0.930 . S
H359 C372 0.930 . S
H360 C376 0.959 . S
H361 C376 0.959 . S
H362 C376 0.961 . S
H363 C377 0.960 . S
H364 C377 0.961 . S
H365 C377 0.959 . S
H366 C380 0.954 . S
H367 C381 0.931 1_565 S
H368 C383 0.930 . S
C369 H357 0.930 . S
C369 C370 1.399 1_554 S
C369 C374 1.399 . S
C370 C369 1.399 1_556 S
C370 C371 1.376 . S
C371 H358 0.930 . S
C371 C370 1.376 . S
C371 C372 1.388 . S
C372 H359 0.930 . S
C372 C371 1.388 . S
C372 C373 1.390 . S
C373 C372 1.390 . S
C373 C374 1.394 1_556 S
C373 C379 1.465 1_556 S
C374 C369 1.399 . S
C374 C373 1.394 1_554 S
C374 C375 1.516 . S
C375 C374 1.516 . S
C375 C376 1.502 . S
C375 C377 1.561 . S
C375 C378 1.526 . S
C376 H360 0.959 . S
C376 H361 0.959 . S
C376 H362 0.961 . S
C376 C375 1.502 . S
C377 H363 0.960 . S
C377 H364 0.961 . S
C377 H365 0.959 . S
C377 C375 1.561 . S
C378 C375 1.526 . S
C378 C379 1.396 . S
C378 C383 1.390 . S
C379 C373 1.465 1_554 S
C379 C378 1.396 . S
C379 C380 1.390 1_554 S
C380 H366 0.954 . S
C380 C379 1.390 1_556 S
C380 C381 1.369 1_556 S
C381 H367 0.931 1_545 S
C381 C380 1.369 1_554 S
C381 C382 1.389 . S
C382 C381 1.389 . S
C382 C383 1.387 . S
C383 H368 0.930 . S
C383 C378 1.390 . S
C383 C382 1.387 . S
H384 C396 0.930 . S
H385 C398 0.930 . S
H386 C399 0.930 . S
H387 C403 0.959 . S
H388 C403 0.959 . S
H389 C403 0.961 . S
H390 C404 0.960 . S
H391 C404 0.961 . S
H392 C404 0.959 . S
H393 C407 0.929 . S
H394 C408 0.931 . S
H395 C410 0.930 1_554 S
C396 H384 0.930 . S
C396 C397 1.399 . S
C396 C401 1.399 . S
C397 C396 1.399 . S
C397 C398 1.376 . S
C398 H385 0.930 . S
C398 C397 1.376 . S
C398 C399 1.388 . S
C399 H386 0.930 . S
C399 C398 1.388 . S
C399 C400 1.390 . S
C400 C399 1.390 . S
C400 C401 1.394 . S
C400 C406 1.465 . S
C401 C396 1.399 . S
C401 C400 1.394 . S
C401 C402 1.516 . S
C402 C401 1.516 . S
C402 C403 1.502 . S
C402 C404 1.561 . S
C402 C405 1.526 . S
C403 H387 0.959 . S
C403 H388 0.959 . S
C403 H389 0.961 . S
C403 C402 1.502 . S
C404 H390 0.960 . S
C404 H391 0.961 . S
C404 H392 0.959 . S
C404 C402 1.561 . S
C405 C402 1.526 . S
C405 C406 1.396 . S
C405 C410 1.390 1_554 S
C406 C400 1.465 . S
C406 C405 1.396 . S
C406 C407 1.399 1_554 S
C407 H393 0.929 . S
C407 C406 1.399 1_556 S
C407 C408 1.385 . S
C408 H394 0.931 . S
C408 C407 1.385 . S
C408 C409 1.389 . S
C409 C408 1.389 . S
C409 C410 1.387 . S
C410 H395 0.930 1_556 S
C410 C405 1.390 1_556 S
C410 C409 1.387 . S
H411 C423 0.930 . S
H412 C425 0.930 . S
H413 C426 0.930 . S
H414 C430 0.959 . S
H415 C430 0.959 . S
H416 C430 0.961 . S
H417 C431 0.960 . S
H418 C431 0.961 . S
H419 C431 0.959 . S
H420 C434 0.929 . S
H421 C435 0.931 . S
H422 C437 0.930 . S
C423 H411 0.930 . S
C423 C424 1.399 . S
C423 C428 1.399 . S
C424 C423 1.399 . S
C424 C425 1.376 . S
C425 H412 0.930 . S
C425 C424 1.376 . S
C425 C426 1.388 . S
C426 H413 0.930 . S
C426 C425 1.388 . S
C426 C427 1.390 . S
C427 C426 1.390 . S
C427 C428 1.394 . S
C427 C433 1.465 . S
C428 C423 1.399 . S
C428 C427 1.394 . S
C428 C429 1.516 . S
C429 C428 1.516 . S
C429 C430 1.502 . S
C429 C431 1.561 . S
C429 C432 1.526 . S
C430 H414 0.959 . S
C430 H415 0.959 . S
C430 H416 0.961 . S
C430 C429 1.502 . S
C431 H417 0.960 . S
C431 H418 0.961 . S
C431 H419 0.959 . S
C431 C429 1.561 . S
C432 C429 1.526 . S
C432 C433 1.396 . S
C432 C437 1.390 . S
C433 C427 1.465 . S
C433 C432 1.396 . S
C433 C434 1.399 . S
C434 H420 0.929 . S
C434 C433 1.399 . S
C434 C435 1.385 . S
C435 H421 0.931 . S
C435 C434 1.385 . S
C435 C436 1.389 . S
C436 C435 1.389 . S
C436 C437 1.387 . S
C437 H422 0.930 . S
C437 C432 1.390 . S
C437 C436 1.387 . S
H438 C450 0.930 . S
H439 C452 0.930 . S
H440 C453 0.930 . S
H441 C457 0.959 . S
H442 C457 0.959 . S
H443 C457 0.961 . S
H444 C458 0.960 . S
H445 C458 0.961 . S
H446 C458 0.959 . S
H447 C461 0.929 . S
H448 C462 0.931 . S
H449 C464 0.930 . S
C450 H438 0.930 . S
C450 C451 1.399 . S
C450 C455 1.399 . S
C451 C450 1.399 . S
C451 C452 1.376 . S
C452 H439 0.930 . S
C452 C451 1.376 . S
C452 C453 1.388 . S
C453 H440 0.930 . S
C453 C452 1.388 . S
C453 C454 1.390 . S
C454 C453 1.390 . S
C454 C455 1.394 . S
C454 C460 1.465 . S
C455 C450 1.399 . S
C455 C454 1.394 . S
C455 C456 1.516 . S
C456 C455 1.516 . S
C456 C457 1.502 . S
C456 C458 1.561 . S
C456 C459 1.526 . S
C457 H441 0.959 . S
C457 H442 0.959 . S
C457 H443 0.961 . S
C457 C456 1.502 . S
C458 H444 0.960 . S
C458 H445 0.961 . S
C458 H446 0.959 . S
C458 C456 1.561 . S
C459 C456 1.526 . S
C459 C460 1.396 . S
C459 C464 1.390 . S
C460 C454 1.465 . S
C460 C459 1.396 . S
C460 C461 1.399 . S
C461 H447 0.929 . S
C461 C460 1.399 . S
C461 C462 1.385 . S
C462 H448 0.931 . S
C462 C461 1.385 . S
C462 C463 1.389 . S
C463 C462 1.389 . S
C463 C464 1.387 . S
C464 H449 0.930 . S
C464 C459 1.390 . S
C464 C463 1.387 . S
H465 C477 0.930 . S
H466 C479 0.930 1_455 S
H467 C480 0.930 . S
H468 C484 0.959 . S
H469 C484 0.959 . S
H470 C484 0.961 . S
H471 C485 0.960 . S
H472 C485 0.961 . S
H473 C485 0.959 . S
H474 C488 0.929 . S
H475 C489 0.931 . S
H476 C491 0.930 . S
C477 H465 0.930 . S
C477 C478 1.399 . S
C477 C482 1.399 . S
C478 C477 1.399 . S
C478 C479 1.376 . S
C479 H466 0.930 1_655 S
C479 C478 1.376 . S
C479 C480 1.388 . S
C480 H467 0.930 . S
C480 C479 1.388 . S
C480 C481 1.390 . S
C481 C480 1.390 . S
C481 C482 1.394 . S
C481 C487 1.465 . S
C482 C477 1.399 . S
C482 C481 1.394 . S
C482 C483 1.516 . S
C483 C482 1.516 . S
C483 C484 1.502 . S
C483 C485 1.561 . S
C483 C486 1.526 . S
C484 H468 0.959 . S
C484 H469 0.959 . S
C484 H470 0.961 . S
C484 C483 1.502 . S
C485 H471 0.960 . S
C485 H472 0.961 . S
C485 H473 0.959 . S
C485 C483 1.561 . S
C486 C483 1.526 . S
C486 C487 1.396 . S
C486 C491 1.390 . S
C487 C481 1.465 . S
C487 C486 1.396 . S
C487 C488 1.399 . S
C488 H474 0.929 . S
C488 C487 1.399 . S
C488 C489 1.385 . S
C489 H475 0.931 . S
C489 C488 1.385 . S
C489 C490 1.389 . S
C490 C489 1.389 . S
C490 C491 1.387 . S
C491 H476 0.930 . S
C491 C486 1.390 . S
C491 C490 1.387 . S
H492 C504 0.930 . S
H493 C506 0.930 . S
H494 C507 0.930 . S
H495 C511 0.959 . S
H496 C511 0.959 . S
H497 C511 0.961 . S
H498 C512 0.960 . S
H499 C512 0.961 . S
H500 C512 0.959 . S
H501 C515 0.929 . S
H502 C516 0.931 . S
H503 C518 0.930 . S
C504 H492 0.930 . S
C504 C505 1.399 . S
C504 C509 1.399 . S
C505 C504 1.399 . S
C505 C506 1.376 . S
C506 H493 0.930 . S
C506 C505 1.376 . S
C506 C507 1.388 . S
C507 H494 0.930 . S
C507 C506 1.388 . S
C507 C508 1.390 . S
C508 C507 1.390 . S
C508 C509 1.394 . S
C508 C514 1.465 . S
C509 C504 1.399 . S
C509 C508 1.394 . S
C509 C510 1.516 . S
C510 C509 1.516 . S
C510 C511 1.502 . S
C510 C512 1.561 . S
C510 C513 1.526 . S
C511 H495 0.959 . S
C511 H496 0.959 . S
C511 H497 0.961 . S
C511 C510 1.502 . S
C512 H498 0.960 . S
C512 H499 0.961 . S
C512 H500 0.959 . S
C512 C510 1.561 . S
C513 C510 1.526 . S
C513 C514 1.396 . S
C513 C518 1.390 . S
C514 C508 1.465 . S
C514 C513 1.396 . S
C514 C515 1.399 . S
C515 H501 0.929 . S
C515 C514 1.399 . S
C515 C516 1.385 . S
C516 H502 0.931 . S
C516 C515 1.385 . S
C516 C517 1.389 . S
C517 C516 1.389 . S
C517 C518 1.387 . S
C518 H503 0.930 . S
C518 C513 1.390 . S
C518 C517 1.387 . S
H519 C531 0.930 . S
H520 C533 0.930 . S
H521 C534 0.930 . S
H522 C538 0.959 . S
H523 C538 0.959 . S
H524 C538 0.961 . S
H525 C539 0.960 . S
H526 C539 0.961 . S
H527 C539 0.959 . S
H528 C542 0.929 . S
H529 C543 0.931 . S
H530 C545 0.930 . S
C531 H519 0.930 . S
C531 C532 1.399 . S
C531 C536 1.399 . S
C532 C531 1.399 . S
C532 C533 1.376 . S
C533 H520 0.930 . S
C533 C532 1.376 . S
C533 C534 1.388 . S
C534 H521 0.930 . S
C534 C533 1.388 . S
C534 C535 1.390 . S
C535 C534 1.390 . S
C535 C536 1.394 . S
C535 C541 1.465 . S
C536 C531 1.399 . S
C536 C535 1.394 . S
C536 C537 1.516 . S
C537 C536 1.516 . S
C537 C538 1.502 . S
C537 C539 1.561 . S
C537 C540 1.526 . S
C538 H522 0.959 . S
C538 H523 0.959 . S
C538 H524 0.961 . S
C538 C537 1.502 . S
C539 H525 0.960 . S
C539 H526 0.961 . S
C539 H527 0.959 . S
C539 C537 1.561 . S
C540 C537 1.526 . S
C540 C541 1.396 . S
C540 C545 1.390 . S
C541 C535 1.465 . S
C541 C540 1.396 . S
C541 C542 1.399 . S
C542 H528 0.929 . S
C542 C541 1.399 . S
C542 C543 1.385 . S
C543 H529 0.931 . S
C543 C542 1.385 . S
C543 C544 1.389 . S
C544 C543 1.389 . S
C544 C545 1.387 . S
C545 H530 0.930 . S
C545 C540 1.390 . S
C545 C544 1.387 . S
H546 C558 0.930 . S
H547 C560 0.930 . S
H548 C561 0.930 . S
H549 C565 0.959 . S
H550 C565 0.959 . S
H551 C565 0.961 . S
H552 C566 0.960 . S
H553 C566 0.961 . S
H554 C566 0.959 . S
H555 C569 0.929 . S
H556 C570 0.931 . S
H557 C572 0.930 . S
C558 H546 0.930 . S
C558 C559 1.399 . S
C558 C563 1.399 . S
C559 C558 1.399 . S
C559 C560 1.376 . S
C560 H547 0.930 . S
C560 C559 1.376 . S
C560 C561 1.388 . S
C561 H548 0.930 . S
C561 C560 1.388 . S
C561 C562 1.390 . S
C562 C561 1.390 . S
C562 C563 1.394 . S
C562 C568 1.465 . S
C563 C558 1.399 . S
C563 C562 1.394 . S
C563 C564 1.516 . S
C564 C563 1.516 . S
C564 C565 1.502 . S
C564 C566 1.561 . S
C564 C567 1.526 . S
C565 H549 0.959 . S
C565 H550 0.959 . S
C565 H551 0.961 . S
C565 C564 1.502 . S
C566 H552 0.960 . S
C566 H553 0.961 . S
C566 H554 0.959 . S
C566 C564 1.561 . S
C567 C564 1.526 . S
C567 C568 1.396 . S
C567 C572 1.390 . S
C568 C562 1.465 . S
C568 C567 1.396 . S
C568 C569 1.399 . S
C569 H555 0.929 . S
C569 C568 1.399 . S
C569 C570 1.385 . S
C570 H556 0.931 . S
C570 C569 1.385 . S
C570 C571 1.389 . S
C571 C570 1.389 . S
C571 C572 1.387 . S
C572 H557 0.930 . S
C572 C567 1.390 . S
C572 C571 1.387 . S
H573 C585 0.930 . S
H574 C587 0.930 . S
H575 C588 0.930 . S
H576 C592 0.959 . S
H577 C592 0.959 . S
H578 C592 0.961 . S
H579 C593 0.960 . S
H580 C593 0.961 . S
H581 C593 0.959 . S
H582 C596 0.929 . S
H583 C597 0.931 . S
H584 C599 0.930 . S
C585 H573 0.930 . S
C585 C586 1.399 . S
C585 C590 1.399 . S
C586 C585 1.399 . S
C586 C587 1.376 . S
C587 H574 0.930 . S
C587 C586 1.376 . S
C587 C588 1.388 . S
C588 H575 0.930 . S
C588 C587 1.388 . S
C588 C589 1.390 . S
C589 C588 1.390 . S
C589 C590 1.394 . S
C589 C595 1.465 . S
C590 C585 1.399 . S
C590 C589 1.394 . S
C590 C591 1.516 . S
C591 C590 1.516 . S
C591 C592 1.502 . S
C591 C593 1.561 . S
C591 C594 1.526 . S
C592 H576 0.959 . S
C592 H577 0.959 . S
C592 H578 0.961 . S
C592 C591 1.502 . S
C593 H579 0.960 . S
C593 H580 0.961 . S
C593 H581 0.959 . S
C593 C591 1.561 . S
C594 C591 1.526 . S
C594 C595 1.396 . S
C594 C599 1.390 . S
C595 C589 1.465 . S
C595 C594 1.396 . S
C595 C596 1.399 . S
C596 H582 0.929 . S
C596 C595 1.399 . S
C596 C597 1.385 . S
C597 H583 0.931 . S
C597 C596 1.385 . S
C597 C598 1.389 . S
C598 C597 1.389 . S
C598 C599 1.387 . S
C599 H584 0.930 . S
C599 C594 1.390 . S
C599 C598 1.387 . S
H600 C612 0.930 . S
H601 C614 0.930 . S
H602 C615 0.930 . S
H603 C619 0.959 . S
H604 C619 0.959 . S
H605 C619 0.961 . S
H606 C620 0.960 . S
H607 C620 0.961 . S
H608 C620 0.959 . S
H609 C623 0.929 . S
H610 C624 0.931 . S
H611 C626 0.930 . S
C612 H600 0.930 . S
C612 C613 1.399 . S
C612 C617 1.399 . S
C613 C612 1.399 . S
C613 C614 1.376 . S
C614 H601 0.930 . S
C614 C613 1.376 . S
C614 C615 1.388 . S
C615 H602 0.930 . S
C615 C614 1.388 . S
C615 C616 1.390 . S
C616 C615 1.390 . S
C616 C617 1.394 . S
C616 C622 1.465 . S
C617 C612 1.399 . S
C617 C616 1.394 . S
C617 C618 1.516 . S
C618 C617 1.516 . S
C618 C619 1.502 . S
C618 C620 1.561 . S
C618 C621 1.526 . S
C619 H603 0.959 . S
C619 H604 0.959 . S
C619 H605 0.961 . S
C619 C618 1.502 . S
C620 H606 0.960 . S
C620 H607 0.961 . S
C620 H608 0.959 . S
C620 C618 1.561 . S
C621 C618 1.526 . S
C621 C622 1.396 . S
C621 C626 1.390 . S
C622 C616 1.465 . S
C622 C621 1.396 . S
C622 C623 1.399 . S
C623 H609 0.929 . S
C623 C622 1.399 . S
C623 C624 1.385 . S
C624 H610 0.931 . S
C624 C623 1.385 . S
C624 C625 1.389 . S
C625 C624 1.389 . S
C625 C626 1.387 . S
C626 H611 0.930 . S
C626 C621 1.390 . S
C626 C625 1.387 . S
H627 C639 0.930 . S
H628 C641 0.930 . S
H629 C642 0.930 . S
H630 C646 0.959 . S
H631 C646 0.959 . S
H632 C646 0.961 . S
H633 C647 0.960 . S
H634 C647 0.961 . S
H635 C647 0.959 . S
H636 C650 0.929 . S
H637 C651 0.931 . S
H638 C653 0.930 . S
C639 H627 0.930 . S
C639 C640 1.399 . S
C639 C644 1.399 . S
C640 C639 1.399 . S
C640 C641 1.376 . S
C641 H628 0.930 . S
C641 C640 1.376 . S
C641 C642 1.388 . S
C642 H629 0.930 . S
C642 C641 1.388 . S
C642 C643 1.390 . S
C643 C642 1.390 . S
C643 C644 1.394 . S
C643 C649 1.465 . S
C644 C639 1.399 . S
C644 C643 1.394 . S
C644 C645 1.516 . S
C645 C644 1.516 . S
C645 C646 1.502 . S
C645 C647 1.561 . S
C645 C648 1.526 . S
C646 H630 0.959 . S
C646 H631 0.959 . S
C646 H632 0.961 . S
C646 C645 1.502 . S
C647 H633 0.960 . S
C647 H634 0.961 . S
C647 H635 0.959 . S
C647 C645 1.561 . S
C648 C645 1.526 . S
C648 C649 1.396 . S
C648 C653 1.390 . S
C649 C643 1.465 . S
C649 C648 1.396 . S
C649 C650 1.399 . S
C650 H636 0.929 . S
C650 C649 1.399 . S
C650 C651 1.385 . S
C651 H637 0.931 . S
C651 C650 1.385 . S
C651 C652 1.389 . S
C652 C651 1.389 . S
C652 C653 1.387 . S
C653 H638 0.930 . S
C653 C648 1.390 . S
C653 C652 1.387 . S
H654 C666 0.930 1_655 S
H655 C668 0.930 1_556 S
H656 C669 0.930 . S
H657 C673 0.959 . S
H658 C673 0.959 . S
H659 C673 0.961 . S
H660 C674 0.960 . S
H661 C674 0.961 1_655 S
H662 C674 0.959 . S
H663 C677 0.929 . S
H664 C678 0.931 1_455 S
H665 C680 0.930 1_554 S
C666 H654 0.930 1_455 S
C666 C667 1.399 . S
C666 C671 1.399 . S
C667 C666 1.399 . S
C667 C668 1.376 . S
C668 H655 0.930 1_554 S
C668 C667 1.376 . S
C668 C669 1.388 1_554 S
C669 H656 0.930 . S
C669 C668 1.388 1_556 S
C669 C670 1.390 . S
C670 C669 1.390 . S
C670 C671 1.394 1_556 S
C670 C676 1.465 . S
C671 C666 1.399 . S
C671 C670 1.394 1_554 S
C671 C672 1.516 1_455 S
C672 C671 1.516 1_655 S
C672 C673 1.502 . S
C672 C674 1.561 1_655 S
C672 C675 1.526 . S
C673 H657 0.959 . S
C673 H658 0.959 . S
C673 H659 0.961 . S
C673 C672 1.502 . S
C674 H660 0.960 . S
C674 H661 0.961 1_455 S
C674 H662 0.959 . S
C674 C672 1.561 1_455 S
C675 C672 1.526 . S
C675 C676 1.396 1_654 S
C675 C680 1.390 1_554 S
C676 C670 1.465 . S
C676 C675 1.396 1_456 S
C676 C677 1.399 . S
C677 H663 0.929 . S
C677 C676 1.399 . S
C677 C678 1.385 1_455 S
C678 H664 0.931 1_655 S
C678 C677 1.385 1_655 S
C678 C679 1.389 . S
C679 C678 1.389 . S
C679 C680 1.387 . S
C680 H665 0.930 1_556 S
C680 C675 1.390 1_556 S
C680 C679 1.387 . S
H681 C693 0.930 1_556 S
H682 C695 0.930 . S
H683 C696 0.930 . S
H684 C700 0.959 . S
H685 C700 0.959 . S
H686 C700 0.961 . S
H687 C701 0.960 . S
H688 C701 0.961 . S
H689 C701 0.959 . S
H690 C704 0.929 . S
H691 C705 0.931 1_554 S
H692 C707 0.930 . S
C693 H681 0.930 1_554 S
C693 C694 1.399 . S
C693 C698 1.399 1_554 S
C694 C693 1.399 . S
C694 C695 1.376 . S
C695 H682 0.930 . S
C695 C694 1.376 . S
C695 C696 1.388 . S
C696 H683 0.930 . S
C696 C695 1.388 . S
C696 C697 1.390 . S
C697 C696 1.390 . S
C697 C698 1.394 1_554 S
C697 C703 1.465 . S
C698 C693 1.399 1_556 S
C698 C697 1.394 1_556 S
C698 C699 1.516 . S
C699 C698 1.516 . S
C699 C700 1.502 . S
C699 C701 1.561 . S
C699 C702 1.526 . S
C700 H684 0.959 . S
C700 H685 0.959 . S
C700 H686 0.961 . S
C700 C699 1.502 . S
C701 H687 0.960 . S
C701 H688 0.961 . S
C701 H689 0.959 . S
C701 C699 1.561 . S
C702 C699 1.526 . S
C702 C703 1.396 1_556 S
C702 C707 1.390 . S
C703 C697 1.465 . S
C703 C702 1.396 1_554 S
C703 C704 1.399 . S
C704 H690 0.929 . S
C704 C703 1.399 . S
C704 C705 1.385 1_554 S
C705 H691 0.931 1_556 S
C705 C704 1.385 1_556 S
C705 C706 1.389 . S
C706 C705 1.389 . S
C706 C707 1.387 . S
C707 H692 0.930 . S
C707 C702 1.390 . S
C707 C706 1.387 . S
H708 C720 0.930 . S
H709 C722 0.930 . S
H710 C723 0.930 . S
H711 C727 0.959 1_554 S
H712 C727 0.959 . S
H713 C727 0.961 . S
H714 C728 0.960 . S
H715 C728 0.961 . S
H716 C728 0.959 . S
H717 C731 0.929 . S
H718 C732 0.931 . S
H719 C734 0.939 . S
C720 H708 0.930 . S
C720 C721 1.399 . S
C720 C725 1.399 . S
C721 C720 1.399 . S
C721 C722 1.376 1_565 S
C722 H709 0.930 . S
C722 C721 1.376 1_545 S
C722 C723 1.388 . S
C723 H710 0.930 . S
C723 C722 1.388 . S
C723 C724 1.390 . S
C724 C723 1.390 . S
C724 C725 1.394 1_545 S
C724 C730 1.465 1_554 S
C725 C720 1.399 . S
C725 C724 1.394 1_565 S
C725 C726 1.516 1_554 S
C726 C725 1.516 1_556 S
C726 C727 1.502 . S
C726 C728 1.561 . S
C726 C729 1.526 . S
C727 H711 0.959 1_556 S
C727 H712 0.959 . S
C727 H713 0.961 . S
C727 C726 1.502 . S
C728 H714 0.960 . S
C728 H715 0.961 . S
C728 H716 0.959 . S
C728 C726 1.561 . S
C729 C726 1.526 . S
C729 C730 1.396 1_565 S
C729 C734 1.386 . S
C730 C724 1.465 1_556 S
C730 C729 1.396 1_545 S
C730 C731 1.399 1_556 S
C731 H717 0.929 . S
C731 C730 1.399 1_554 S
C731 C732 1.385 1_554 S
C732 H718 0.931 . S
C732 C731 1.385 1_556 S
C732 C733 1.389 . S
C733 C732 1.389 . S
C733 C734 1.382 1_545 S
C734 H719 0.939 . S
C734 C729 1.386 . S
C734 C733 1.382 1_565 S
H735 C747 0.930 . S
H736 C749 0.930 . S
H737 C750 0.930 . S
H738 C754 0.959 . S
H739 C754 0.959 . S
H740 C754 0.961 . S
H741 C755 0.960 . S
H742 C755 0.961 . S
H743 C755 0.959 . S
H744 C758 0.929 . S
H745 C759 0.931 . S
H746 C761 0.930 . S
C747 H735 0.930 . S
C747 C748 1.399 . S
C747 C752 1.399 . S
C748 C747 1.399 . S
C748 C749 1.376 1_565 S
C749 H736 0.930 . S
C749 C748 1.376 1_545 S
C749 C750 1.388 . S
C750 H737 0.930 . S
C750 C749 1.388 . S
C750 C751 1.390 . S
C751 C750 1.390 . S
C751 C752 1.394 1_545 S
C751 C757 1.465 . S
C752 C747 1.399 . S
C752 C751 1.394 1_565 S
C752 C753 1.516 . S
C753 C752 1.516 . S
C753 C754 1.502 . S
C753 C755 1.561 . S
C753 C756 1.526 . S
C754 H738 0.959 . S
C754 H739 0.959 . S
C754 H740 0.961 . S
C754 C753 1.502 . S
C755 H741 0.960 . S
C755 H742 0.961 . S
C755 H743 0.959 . S
C755 C753 1.561 . S
C756 C753 1.526 . S
C756 C757 1.396 1_565 S
C756 C761 1.390 . S
C757 C751 1.465 . S
C757 C756 1.396 1_545 S
C757 C758 1.399 . S
C758 H744 0.929 . S
C758 C757 1.399 . S
C758 C759 1.385 . S
C759 H745 0.931 . S
C759 C758 1.385 . S
C759 C760 1.389 . S
C760 C759 1.389 . S
C760 C761 1.387 1_545 S
C761 H746 0.930 . S
C761 C756 1.390 . S
C761 C760 1.387 1_565 S
H762 C774 0.930 . S
H763 C776 0.930 . S
H764 C777 0.930 . S
H765 C781 0.959 . S
H766 C781 0.959 . S
H767 C781 0.961 . S
H768 C782 0.960 . S
H769 C782 0.961 . S
H770 C782 0.959 . S
H771 C785 0.939 . S
H772 C786 0.931 . S
H773 C788 0.930 . S
C774 H762 0.930 . S
C774 C775 1.399 . S
C774 C779 1.399 . S
C775 C774 1.399 . S
C775 C776 1.376 . S
C776 H763 0.930 . S
C776 C775 1.376 . S
C776 C777 1.388 . S
C777 H764 0.930 . S
C777 C776 1.388 . S
C777 C778 1.390 . S
C778 C777 1.390 . S
C778 C779 1.394 . S
C778 C784 1.465 1_655 S
C779 C774 1.399 . S
C779 C778 1.394 . S
C779 C780 1.516 . S
C780 C779 1.516 . S
C780 C781 1.502 1_655 S
C780 C782 1.561 . S
C780 C783 1.526 1_655 S
C781 H765 0.959 . S
C781 H766 0.959 . S
C781 H767 0.961 . S
C781 C780 1.502 1_455 S
C782 H768 0.960 . S
C782 H769 0.961 . S
C782 H770 0.959 . S
C782 C780 1.561 . S
C783 C780 1.526 1_455 S
C783 C784 1.396 . S
C783 C788 1.390 . S
C784 C778 1.465 1_455 S
C784 C783 1.396 . S
C784 C785 1.399 . S
C785 H771 0.939 . S
C785 C784 1.399 . S
C785 C786 1.385 . S
C786 H772 0.931 . S
C786 C785 1.385 . S
C786 C787 1.389 . S
C787 C786 1.389 . S
C787 C788 1.387 . S
C788 H773 0.930 . S
C788 C783 1.390 . S
C788 C787 1.387 . S
H789 C801 0.930 . S
H790 C803 0.930 . S
H791 C804 0.930 . S
H792 C808 0.959 . S
H793 C808 0.959 . S
H794 C808 0.961 . S
H795 C809 0.960 . S
H796 C809 0.961 . S
H797 C809 0.959 . S
H798 C812 0.929 . S
H799 C813 0.931 . S
H800 C815 0.930 . S
C801 H789 0.930 . S
C801 C802 1.399 . S
C801 C806 1.399 . S
C802 C801 1.399 . S
C802 C803 1.376 . S
C803 H790 0.930 . S
C803 C802 1.376 . S
C803 C804 1.388 . S
C804 H791 0.930 . S
C804 C803 1.388 . S
C804 C805 1.390 . S
C805 C804 1.390 . S
C805 C806 1.394 . S
C805 C811 1.465 . S
C806 C801 1.399 . S
C806 C805 1.394 . S
C806 C807 1.516 . S
C807 C806 1.516 . S
C807 C808 1.502 . S
C807 C809 1.561 . S
C807 C810 1.526 . S
C808 H792 0.959 . S
C808 H793 0.959 . S
C808 H794 0.961 . S
C808 C807 1.502 . S
C809 H795 0.960 . S
C809 H796 0.961 . S
C809 H797 0.959 . S
C809 C807 1.561 . S
C810 C807 1.526 . S
C810 C811 1.396 . S
C810 C815 1.390 . S
C811 C805 1.465 . S
C811 C810 1.396 . S
C811 C812 1.399 . S
C812 H798 0.929 . S
C812 C811 1.399 . S
C812 C813 1.385 . S
C813 H799 0.931 . S
C813 C812 1.385 . S
C813 C814 1.389 . S
C814 C813 1.389 . S
C814 C815 1.387 . S
C815 H800 0.930 . S
C815 C810 1.390 . S
C815 C814 1.387 . S
C181 C12 0.538 . S
C193 C102 0.518 . S
C208 C26 0.564 . S
C220 C116 0.596 . S
C235 C40 0.562 . S
C247 C88 0.574 . S
C262 C158 0.626 . S
C274 C54 0.578 . S
C289 C68 0.571 . S
C301 C130 0.598 . S
C316 C144 0.509 . S
C328 C82 0.539 . S
C343 C18 0.632 . S
C355 C96 0.575 . S
C370 C110 0.536 . S
C382 C32 0.521 . S
C397 C4 0.622 . S
C409 C124 0.562 . S
C424 C138 0.543 . S
C436 C74 0.573 . S
C451 C152 0.579 . S
C463 C46 0.610 . S
C478 C60 0.524 . S
C490 C166 0.536 . S
C505 C81 1.586 . S
C517 C11 1.644 . S
C532 C25 1.608 . S
C544 C53 1.585 . S
C559 C39 1.646 . S
C571 C67 1.585 . S
C586 C95 1.566 . S
C598 C165 1.604 . S
C613 C109 1.638 . S
C625 C137 1.560 . S
C640 C123 1.592 . S
C652 C151 1.654 . S
C667 C5 1.397 . S
C679 C89 1.467 . S
C694 C19 1.472 . S
C706 C103 1.426 . S
C721 C33 1.498 . S
C733 C117 1.388 . S
C748 C47 1.498 . S
C760 C131 1.381 . S
C775 C145 1.399 . S
C787 C61 1.464 . S
C802 C75 1.491 . S
C814 C159 1.382 . S
