# Generated by pormake.
# Topology wjd, (6)-cn, num edge types: 1
# Building blocks:
#     Node 0, Type 0, BuildingBlock: CUKXOW_clean_sbu_0, # of connection points: 6
#     Node 1, Type 0, BuildingBlock: CUKXOW_clean_sbu_0, # of connection points: 6
#     Node 2, Type 0, BuildingBlock: CUKXOW_clean_sbu_0, # of connection points: 6
#     Node 3, Type 0, BuildingBlock: CUKXOW_clean_sbu_0, # of connection points: 6
#     Node 4, Type 0, BuildingBlock: CUKXOW_clean_sbu_0, # of connection points: 6
#     Node 5, Type 0, BuildingBlock: CUKXOW_clean_sbu_0, # of connection points: 6
#     Node 6, Type 0, BuildingBlock: CUKXOW_clean_sbu_0, # of connection points: 6
#     Node 7, Type 0, BuildingBlock: CUKXOW_clean_sbu_0, # of connection points: 6
#     Node 8, Type 0, BuildingBlock: CUKXOW_clean_sbu_0, # of connection points: 6
#     Node 9, Type 0, BuildingBlock: CUKXOW_clean_sbu_0, # of connection points: 6
#     Node 10, Type 0, BuildingBlock: CUKXOW_clean_sbu_0, # of connection points: 6
#     Node 11, Type 0, BuildingBlock: CUKXOW_clean_sbu_0, # of connection points: 6
#     Edge 12, Type (0, 0), BuildingBlock: KIFKEQ_clean_linker_1, # of connection points: 2
#     Edge 13, Type (0, 0), BuildingBlock: KIFKEQ_clean_linker_1, # of connection points: 2
#     Edge 14, Type (0, 0), BuildingBlock: KIFKEQ_clean_linker_1, # of connection points: 2
#     Edge 15, Type (0, 0), BuildingBlock: KIFKEQ_clean_linker_1, # of connection points: 2
#     Edge 16, Type (0, 0), BuildingBlock: KIFKEQ_clean_linker_1, # of connection points: 2
#     Edge 17, Type (0, 0), BuildingBlock: KIFKEQ_clean_linker_1, # of connection points: 2
#     Edge 18, Type (0, 0), BuildingBlock: KIFKEQ_clean_linker_1, # of connection points: 2
#     Edge 19, Type (0, 0), BuildingBlock: KIFKEQ_clean_linker_1, # of connection points: 2
#     Edge 20, Type (0, 0), BuildingBlock: KIFKEQ_clean_linker_1, # of connection points: 2
#     Edge 21, Type (0, 0), BuildingBlock: KIFKEQ_clean_linker_1, # of connection points: 2
#     Edge 22, Type (0, 0), BuildingBlock: KIFKEQ_clean_linker_1, # of connection points: 2
#     Edge 23, Type (0, 0), BuildingBlock: KIFKEQ_clean_linker_1, # of connection points: 2
#     Edge 24, Type (0, 0), BuildingBlock: KIFKEQ_clean_linker_1, # of connection points: 2
#     Edge 25, Type (0, 0), BuildingBlock: KIFKEQ_clean_linker_1, # of connection points: 2
#     Edge 26, Type (0, 0), BuildingBlock: KIFKEQ_clean_linker_1, # of connection points: 2
#     Edge 27, Type (0, 0), BuildingBlock: KIFKEQ_clean_linker_1, # of connection points: 2
#     Edge 28, Type (0, 0), BuildingBlock: KIFKEQ_clean_linker_1, # of connection points: 2
#     Edge 29, Type (0, 0), BuildingBlock: KIFKEQ_clean_linker_1, # of connection points: 2
#     Edge 30, Type (0, 0), BuildingBlock: KIFKEQ_clean_linker_1, # of connection points: 2
#     Edge 31, Type (0, 0), BuildingBlock: KIFKEQ_clean_linker_1, # of connection points: 2
#     Edge 32, Type (0, 0), BuildingBlock: KIFKEQ_clean_linker_1, # of connection points: 2
#     Edge 33, Type (0, 0), BuildingBlock: KIFKEQ_clean_linker_1, # of connection points: 2
#     Edge 34, Type (0, 0), BuildingBlock: KIFKEQ_clean_linker_1, # of connection points: 2
#     Edge 35, Type (0, 0), BuildingBlock: KIFKEQ_clean_linker_1, # of connection points: 2
#     Edge 36, Type (0, 0), BuildingBlock: KIFKEQ_clean_linker_1, # of connection points: 2
#     Edge 37, Type (0, 0), BuildingBlock: KIFKEQ_clean_linker_1, # of connection points: 2
#     Edge 38, Type (0, 0), BuildingBlock: KIFKEQ_clean_linker_1, # of connection points: 2
#     Edge 39, Type (0, 0), BuildingBlock: KIFKEQ_clean_linker_1, # of connection points: 2
#     Edge 40, Type (0, 0), BuildingBlock: KIFKEQ_clean_linker_1, # of connection points: 2
#     Edge 41, Type (0, 0), BuildingBlock: KIFKEQ_clean_linker_1, # of connection points: 2
#     Edge 42, Type (0, 0), BuildingBlock: KIFKEQ_clean_linker_1, # of connection points: 2
#     Edge 43, Type (0, 0), BuildingBlock: KIFKEQ_clean_linker_1, # of connection points: 2
#     Edge 44, Type (0, 0), BuildingBlock: KIFKEQ_clean_linker_1, # of connection points: 2
#     Edge 45, Type (0, 0), BuildingBlock: KIFKEQ_clean_linker_1, # of connection points: 2
#     Edge 46, Type (0, 0), BuildingBlock: KIFKEQ_clean_linker_1, # of connection points: 2
#     Edge 47, Type (0, 0), BuildingBlock: KIFKEQ_clean_linker_1, # of connection points: 2
# Relax obj value: 0.060
# Max RMSD: 0.159
# Mean RMSD: 0.159
data_MOF--net-wjd--node1-CUKXOW_clean_sbu_0--edge1-KIFKEQ_clean_linker_1
_symmetry_space_group_name_H-M    P1
_symmetry_Int_Tables_number       1
_symmetry_cell_setting            triclinic
loop_
_symmetry_equiv_pos_as_xyz
'x, y, z'
_cell_length_a     32.352017
_cell_length_b     32.334133
_cell_length_c     57.719117
_cell_angle_alpha  90.065696
_cell_angle_beta   89.878733
_cell_angle_gamma 119.8687
loop_
_atom_site_label
_atom_site_type_symbol
_atom_site_fract_x
_atom_site_fract_y
_atom_site_fract_z
_atom_type_partial_charge
Tb0 Tb 0.39308 0.14197 0.13089 0.0
C1 C 0.3368 0.12729 0.08451 0.0
Tb2 Tb 0.31508 0.16975 0.12882 0.0
O3 O 0.34196 0.06729 0.12244 0.0
O4 O 0.32018 0.11015 0.13956 0.0
O5 O 0.37899 0.13972 0.09376 0.0
C6 C 0.23956 0.18115 0.13372 0.0
O7 O 0.30365 0.13168 0.09603 0.0
C8 C 0.40137 0.23584 0.11575 0.0
C9 C 0.35861 0.16519 0.17797 0.0
O10 O 0.24047 0.14754 0.12178 0.0
O11 O 0.28105 0.20827 0.14291 0.0
O12 O 0.36246 0.23223 0.10751 0.0
O13 O 0.39001 0.20557 0.13156 0.0
O14 O 0.32468 0.16853 0.16643 0.0
O15 O 0.39044 0.15668 0.16758 0.0
C16 C 0.47989 0.15254 0.13029 0.0
O17 O 0.44306 0.11778 0.14055 0.0
O18 O 0.4677 0.18101 0.12054 0.0
C19 C 0.30566 0.07015 0.13022 0.0
Tb20 Tb 0.8806 0.72328 0.38904 0.0
C21 C 0.83573 0.66669 0.34186 0.0
Tb22 Tb 0.77385 0.63665 0.3878 0.0
O23 O 0.91429 0.681 0.39975 0.0
O24 O 0.84264 0.65043 0.39564 0.0
O25 O 0.86825 0.70699 0.35197 0.0
C26 C 0.69884 0.54918 0.38985 0.0
O27 O 0.79841 0.63233 0.35309 0.0
C28 C 0.78502 0.72254 0.38309 0.0
C29 C 0.81128 0.70126 0.43233 0.0
O30 O 0.7019 0.58345 0.37684 0.0
O31 O 0.73785 0.56425 0.40165 0.0
O32 O 0.74553 0.68588 0.39026 0.0
O33 O 0.81308 0.70839 0.37671 0.0
O34 O 0.78195 0.6579 0.42403 0.0
O35 O 0.84957 0.73382 0.42086 0.0
C36 C 0.96146 0.8062 0.38459 0.0
O37 O 0.93233 0.79429 0.40208 0.0
O38 O 0.94454 0.77184 0.36958 0.0
C39 C 0.87463 0.64068 0.4001 0.0
Tb40 Tb 0.89298 0.25841 0.12805 0.0
C41 C 0.9128 0.22163 0.07984 0.0
Tb42 Tb 0.86539 0.15324 0.12287 0.0
O43 O 0.96124 0.27775 0.14514 0.0
O44 O 0.92842 0.21974 0.12306 0.0
O45 O 0.90711 0.25485 0.09081 0.0
C46 C 0.84985 0.06383 0.12464 0.0
O47 O 0.90261 0.18049 0.0899 0.0
C48 C 0.79892 0.17472 0.11303 0.0
C49 C 0.86085 0.19406 0.17234 0.0
O50 O 0.81859 0.07609 0.11936 0.0
O51 O 0.89009 0.10194 0.12906 0.0
O52 O 0.80351 0.14165 0.10264 0.0
O53 O 0.82928 0.19197 0.12896 0.0
O54 O 0.86613 0.16149 0.16066 0.0
O55 O 0.86171 0.23112 0.16197 0.0
C56 C 0.88749 0.33783 0.1243 0.0
O57 O 0.91326 0.33075 0.13928 0.0
O58 O 0.86534 0.30045 0.11119 0.0
C59 C 0.96145 0.23996 0.13749 0.0
Tb60 Tb 0.31339 0.16373 0.40295 0.0
C61 C 0.35837 0.16798 0.35314 0.0
Tb62 Tb 0.3913 0.13615 0.39729 0.0
O63 O 0.36353 0.23134 0.41936 0.0
O64 O 0.38789 0.19994 0.39607 0.0
O65 O 0.32103 0.16353 0.36504 0.0
C66 C 0.47591 0.14135 0.40218 0.0
O67 O 0.3946 0.16675 0.36329 0.0
C68 C 0.30375 0.06823 0.38864 0.0
C69 C 0.33698 0.11769 0.4458 0.0
O70 O 0.44392 0.11558 0.38684 0.0
O71 O 0.46015 0.16392 0.4147 0.0
O72 O 0.34096 0.06743 0.38051 0.0
O73 O 0.31766 0.10138 0.40301 0.0
O74 O 0.37582 0.12415 0.43462 0.0
O75 O 0.30435 0.12503 0.4355 0.0
C76 C 0.23478 0.17127 0.40153 0.0
O77 O 0.26603 0.18674 0.41802 0.0
O78 O 0.24769 0.15142 0.38571 0.0
C79 C 0.40123 0.23313 0.41055 0.0
Tb80 Tb 0.77952 0.64158 0.12051 0.0
C81 C 0.81425 0.7063 0.07622 0.0
Tb82 Tb 0.88066 0.72723 0.12035 0.0
O83 O 0.74796 0.6879 0.11707 0.0
O84 O 0.81359 0.71212 0.13307 0.0
O85 O 0.78422 0.66309 0.08435 0.0
C86 C 0.9645 0.80732 0.11637 0.0
O87 O 0.85208 0.73778 0.08804 0.0
C88 C 0.87544 0.6438 0.11858 0.0
C89 C 0.84021 0.67395 0.1672 0.0
O90 O 0.95224 0.76744 0.10586 0.0
O91 O 0.9291 0.80258 0.12903 0.0
O92 O 0.90992 0.68145 0.12803 0.0
O93 O 0.84727 0.65468 0.10868 0.0
O94 O 0.87007 0.71563 0.15745 0.0
O95 O 0.80626 0.63779 0.15514 0.0
C96 C 0.70345 0.55376 0.11993 0.0
O97 O 0.71155 0.58639 0.13525 0.0
O98 O 0.73822 0.57054 0.10512 0.0
C99 C 0.78505 0.72474 0.1258 0.0
Tb100 Tb 0.86549 0.15021 0.39602 0.0
C101 C 0.86429 0.19667 0.3473 0.0
Tb102 Tb 0.89206 0.25608 0.39411 0.0
O103 O 0.80536 0.13613 0.41895 0.0
O104 O 0.82896 0.18919 0.39432 0.0
O105 O 0.86218 0.15966 0.35857 0.0
C106 C 0.88336 0.33388 0.39383 0.0
O107 O 0.87346 0.2371 0.35779 0.0
C108 C 0.96458 0.2413 0.39256 0.0
C109 C 0.91099 0.21474 0.43975 0.0
O110 O 0.91587 0.3292 0.38273 0.0
O111 O 0.85587 0.29477 0.40505 0.0
O112 O 0.96777 0.28072 0.40013 0.0
O113 O 0.92357 0.21514 0.38434 0.0
O114 O 0.89797 0.24476 0.43119 0.0
O115 O 0.90596 0.17737 0.42786 0.0
C116 C 0.85306 0.06253 0.39105 0.0
O117 O 0.89138 0.09922 0.39896 0.0
O118 O 0.82203 0.07535 0.3859 0.0
C119 C 0.79997 0.17044 0.41068 0.0
Tb120 Tb 0.16893 0.29526 0.62589 0.0
C121 C 0.17918 0.34754 0.67304 0.0
Tb122 Tb 0.15117 0.38002 0.62624 0.0
O123 O 0.2442 0.34251 0.63334 0.0
O124 O 0.2063 0.36777 0.61461 0.0
O125 O 0.17022 0.30683 0.66309 0.0
C126 C 0.16213 0.46745 0.6276 0.0
O127 O 0.17934 0.38296 0.66122 0.0
C128 C 0.07449 0.29587 0.63001 0.0
C129 C 0.12415 0.31744 0.58153 0.0
O130 O 0.13375 0.43204 0.6408 0.0
O131 O 0.18427 0.45362 0.61357 0.0
O132 O 0.07415 0.33284 0.62135 0.0
O133 O 0.1153 0.30881 0.63793 0.0
O134 O 0.13746 0.36064 0.5898 0.0
O135 O 0.12964 0.28525 0.59344 0.0
C136 C 0.17076 0.21373 0.62347 0.0
O137 O 0.1927 0.2496 0.60944 0.0
O138 O 0.14697 0.22341 0.63857 0.0
C139 C 0.24553 0.37978 0.62435 0.0
Tb140 Tb 0.26201 0.8847 0.89729 0.0
C141 C 0.2295 0.912 0.94302 0.0
Tb142 Tb 0.15993 0.86737 0.89951 0.0
O143 O 0.2915 0.96174 0.90158 0.0
O144 O 0.22553 0.91978 0.88566 0.0
O145 O 0.25912 0.89915 0.93385 0.0
C146 C 0.07583 0.86343 0.90406 0.0
O147 O 0.19045 0.90554 0.93216 0.0
C148 C 0.16835 0.79115 0.90098 0.0
C149 C 0.1983 0.85498 0.85144 0.0
O150 O 0.08797 0.83501 0.91385 0.0
O151 O 0.11156 0.89502 0.89196 0.0
O152 O 0.13251 0.7925 0.89191 0.0
O153 O 0.19591 0.83063 0.91056 0.0
O154 O 0.16666 0.86338 0.86208 0.0
O155 O 0.23561 0.85725 0.86237 0.0
C156 C 0.3387 0.87396 0.89479 0.0
O157 O 0.33579 0.90991 0.88677 0.0
O158 O 0.2982 0.84372 0.90412 0.0
C159 C 0.25385 0.9609 0.89315 0.0
Tb160 Tb 0.72697 0.87205 0.6192 0.0
C161 C 0.67852 0.83169 0.66749 0.0
Tb162 Tb 0.64344 0.76861 0.62147 0.0
O163 O 0.67935 0.89889 0.62746 0.0
O164 O 0.65375 0.83489 0.60906 0.0
O165 O 0.71819 0.86332 0.65667 0.0
C166 C 0.55728 0.69044 0.62434 0.0
O167 O 0.64282 0.79504 0.65653 0.0
C168 C 0.72896 0.77928 0.62486 0.0
C169 C 0.70168 0.80327 0.5753 0.0
O170 O 0.59665 0.69444 0.63224 0.0
O171 O 0.56641 0.73051 0.61493 0.0
O172 O 0.69282 0.74095 0.61655 0.0
O173 O 0.71481 0.80645 0.63247 0.0
O174 O 0.65994 0.77263 0.58473 0.0
O175 O 0.73391 0.84254 0.5861 0.0
C176 C 0.8063 0.95663 0.61456 0.0
O177 O 0.76508 0.94488 0.60574 0.0
O178 O 0.8032 0.92039 0.62576 0.0
C179 C 0.64196 0.86249 0.61891 0.0
Tb180 Tb 0.15033 0.38904 0.89272 0.0
C181 C 0.13555 0.33586 0.94171 0.0
Tb182 Tb 0.18026 0.31311 0.8981 0.0
O183 O 0.0836 0.33777 0.875 0.0
O184 O 0.1169 0.31563 0.89861 0.0
O185 O 0.13814 0.37287 0.93018 0.0
C186 C 0.19331 0.23784 0.89595 0.0
O187 O 0.14753 0.30585 0.93205 0.0
C188 C 0.24567 0.40121 0.90733 0.0
C189 C 0.17957 0.35526 0.84814 0.0
O190 O 0.22678 0.28212 0.89632 0.0
O191 O 0.15221 0.23576 0.89673 0.0
O192 O 0.24242 0.36419 0.91782 0.0
O193 O 0.21479 0.38735 0.89157 0.0
O194 O 0.17608 0.31857 0.86023 0.0
O195 O 0.17771 0.39138 0.85805 0.0
C196 C 0.15523 0.47359 0.89697 0.0
O197 O 0.12043 0.43606 0.8873 0.0
O198 O 0.18688 0.46332 0.90434 0.0
C199 C 0.08406 0.30105 0.88402 0.0
Tb200 Tb 0.15288 0.85532 0.62885 0.0
C201 C 0.18815 0.83941 0.67691 0.0
Tb202 Tb 0.2548 0.87138 0.63244 0.0
O203 O 0.12213 0.77882 0.63346 0.0
O204 O 0.18904 0.81841 0.61814 0.0
O205 O 0.15942 0.85164 0.66624 0.0
C206 C 0.32961 0.85763 0.63264 0.0
O207 O 0.22357 0.8378 0.6659 0.0
C208 C 0.24759 0.94831 0.63788 0.0
C209 C 0.22663 0.90627 0.5877 0.0
O210 O 0.32033 0.88042 0.64851 0.0
O211 O 0.29697 0.84287 0.61684 0.0
O212 O 0.28667 0.94973 0.63111 0.0
O213 O 0.21812 0.90622 0.64348 0.0
O214 O 0.25512 0.89185 0.59659 0.0
O215 O 0.18707 0.89928 0.59822 0.0
C216 C 0.0707 0.85496 0.62413 0.0
O217 O 0.08894 0.839 0.60894 0.0
O218 O 0.09909 0.87175 0.64178 0.0
C219 C 0.15938 0.77786 0.62603 0.0
Tb220 Tb 0.64973 0.77681 0.89058 0.0
C221 C 0.71204 0.81759 0.93477 0.0
Tb222 Tb 0.73298 0.87929 0.88886 0.0
O223 O 0.69837 0.74909 0.89663 0.0
O224 O 0.72055 0.81188 0.87798 0.0
O225 O 0.66819 0.78841 0.92715 0.0
C226 C 0.8137 0.96295 0.8895 0.0
O227 O 0.74459 0.85285 0.92181 0.0
C228 C 0.64802 0.8701 0.89143 0.0
C229 C 0.68003 0.83228 0.84225 0.0
O230 O 0.77895 0.94938 0.90423 0.0
O231 O 0.80351 0.92895 0.87471 0.0
O232 O 0.68408 0.90543 0.88138 0.0
O233 O 0.66163 0.84438 0.90148 0.0
O234 O 0.71926 0.86692 0.85195 0.0
O235 O 0.64694 0.79534 0.85421 0.0
C236 C 0.5624 0.70063 0.89191 0.0
O237 O 0.60142 0.6998 0.88777 0.0
O238 O 0.57249 0.74439 0.89506 0.0
C239 C 0.73441 0.78532 0.88681 0.0
H240 H 0.04671 0.29237 0.16008 0.0
H241 H 0.96794 0.16826 0.11709 0.0
H242 H 0.1148 0.27921 0.15944 0.0
H243 H 0.03229 0.15122 0.11876 0.0
H244 H 0.16934 0.15643 0.10228 0.0
H245 H 0.10395 0.17281 0.10362 0.0
H246 H 0.1507 0.2372 0.17136 0.0
H247 H 0.21882 0.22442 0.16867 0.0
C248 C 0.04352 0.26155 0.15104 0.0
C249 C 1.00165 0.23076 0.13901 0.0
C250 C 0.08237 0.25363 0.1508 0.0
C251 C 0.07962 0.2141 0.13895 0.0
C252 C 0.03684 0.18276 0.12758 0.0
C253 C 0.99901 0.19168 0.12716 0.0
C254 C 0.16543 0.17406 0.11741 0.0
C255 C 0.19874 0.18906 0.13539 0.0
C256 C 0.12761 0.18315 0.11838 0.0
C257 C 0.12113 0.20588 0.1378 0.0
C258 C 0.15459 0.22038 0.15594 0.0
C259 C 0.19342 0.21267 0.15456 0.0
H260 H 0.26591 0.98422 0.36426 0.0
H261 H 0.22759 0.07055 0.40626 0.0
H262 H 0.18168 0.92255 0.36201 0.0
H263 H 0.14406 1.01108 0.40296 0.0
H264 H 1.00871 0.8711 0.41857 0.0
H265 H 0.09135 0.93531 0.41803 0.0
H266 H 0.10481 0.90109 0.34694 0.0
H267 H 0.0225 0.83555 0.34796 0.0
C268 C 0.23942 0.99029 0.37265 0.0
C269 C 0.2532 0.03206 0.38542 0.0
C270 C 0.19117 0.95522 0.37127 0.0
C271 C 0.15595 0.96163 0.38246 0.0
C272 C 0.17007 1.00432 0.39455 0.0
C273 C 0.21805 0.0388 0.39619 0.0
C274 C 0.02925 0.87773 0.40278 0.0
C275 C 1.00938 0.8485 0.38333 0.0
C276 C 0.07661 0.91464 0.40239 0.0
C277 C 0.10496 0.92344 0.38242 0.0
C278 C 0.08438 0.89487 0.36273 0.0
C279 C 0.03711 0.85766 0.36322 0.0
H280 H 0.76465 0.9825 0.12024 0.0
H281 H 0.91478 0.03408 0.12983 0.0
H282 H 0.74895 0.9006 0.12078 0.0
H283 H 0.89964 0.95212 0.12942 0.0
H284 H 0.84987 0.79894 0.15159 0.0
H285 H 0.86586 0.88102 0.15148 0.0
H286 H 0.75823 0.84414 0.09874 0.0
H287 H 0.7413 0.76164 0.09962 0.0
C288 C 0.79433 0.9762 0.12232 0.0
C289 C 0.84088 0.01446 0.12505 0.0
C290 C 0.78544 0.92927 0.12244 0.0
C291 C 0.82301 0.91955 0.12505 0.0
C292 C 0.86971 0.95811 0.12772 0.0
C293 C 0.8785 1.0051 0.12783 0.0
C294 C 0.82971 0.80855 0.14001 0.0
C295 C 0.79423 0.77413 0.1257 0.0
C296 C 0.83903 0.85564 0.13982 0.0
C297 C 0.81337 0.86942 0.12511 0.0
C298 C 0.77808 0.83474 0.11063 0.0
C299 C 0.76842 0.78751 0.11104 0.0
H300 H 0.17328 0.15158 0.36546 0.0
H301 H 0.20161 0.20503 0.43556 0.0
H302 H 0.10668 0.167 0.36333 0.0
H303 H 0.13421 0.21885 0.43388 0.0
H304 H 0.05012 0.29158 0.41394 0.0
H305 H 0.11392 0.27246 0.41611 0.0
H306 H 0.02802 0.1432 0.37708 0.0
H307 H 0.96511 0.16385 0.37404 0.0
C308 C 0.16483 0.1661 0.38049 0.0
C309 C 0.19267 0.17746 0.40061 0.0
C310 C 0.12654 0.1747 0.37934 0.0
C311 C 0.1152 0.19453 0.39838 0.0
C312 C 0.14248 0.20454 0.41872 0.0
C313 C 0.1809 0.19632 0.41976 0.0
C314 C 0.04501 0.25917 0.40578 0.0
C315 C 1.0027 0.22905 0.39392 0.0
C316 C 0.08137 0.24791 0.4072 0.0
C317 C 0.0761 0.20607 0.3969 0.0
C318 C 0.03354 0.17591 0.38502 0.0
C319 C 0.99727 0.18741 0.38348 0.0
H320 H 0.2298 0.05791 0.15571 0.0
H321 H 0.26829 1.00299 0.09641 0.0
H322 H 0.14663 0.99653 0.15105 0.0
H323 H 0.18485 0.94379 0.0904 0.0
H324 H 0.0446 0.80838 0.10234 0.0
H325 H 0.12603 0.87325 0.10483 0.0
H326 H 0.07568 0.96574 0.13125 0.0
H327 H 0.9939 0.89887 0.13025 0.0
C328 C 0.22014 0.03287 0.14149 0.0
C329 C 0.25525 0.03435 0.12668 0.0
C330 C 0.17236 0.99795 0.1386 0.0
C331 C 0.15853 0.96453 0.12043 0.0
C332 C 0.19393 0.96769 0.10505 0.0
C333 C 0.24183 1.00177 0.10835 0.0
C334 C 0.05098 0.8427 0.10856 0.0
C335 C 1.01311 0.8487 0.11616 0.0
C336 C 0.09782 0.88024 0.10982 0.0
C337 C 0.10801 0.92526 0.11818 0.0
C338 C 0.06962 0.93151 0.12514 0.0
C339 C 0.02266 0.8934 0.12439 0.0
H340 H 0.72868 0.7561 0.39966 0.0
H341 H 0.86682 0.8019 0.36926 0.0
H342 H 0.7466 0.83881 0.40157 0.0
H343 H 0.88486 0.88491 0.371 0.0
H344 H 0.91524 0.03091 0.40097 0.0
H345 H 0.89992 0.94874 0.39913 0.0
H346 H 0.7571 0.90185 0.37477 0.0
H347 H 0.77231 0.9836 0.3769 0.0
C348 C 0.76284 0.78393 0.39331 0.0
C349 C 0.79629 0.77269 0.38422 0.0
C350 C 0.77307 0.83128 0.39432 0.0
C351 C 0.81706 0.86847 0.3863 0.0
C352 C 0.8508 0.85716 0.37748 0.0
C353 C 0.84044 0.80968 0.37639 0.0
C354 C 0.88068 1.00295 0.39517 0.0
C355 C 0.84489 0.01348 0.38915 0.0
C356 C 0.87196 0.95599 0.39401 0.0
C357 C 0.82718 0.91869 0.38693 0.0
C358 C 0.7917 0.92958 0.38065 0.0
C359 C 0.80049 0.97645 0.38172 0.0
H360 H 0.30061 0.03498 0.61693 0.0
H361 H 0.17015 0.94967 0.65478 0.0
H362 H 0.28051 0.09815 0.61294 0.0
H363 H 0.1479 1.01054 0.64938 0.0
H364 H 0.1455 0.1489 0.65819 0.0
H365 H 0.1649 0.08555 0.66183 0.0
H366 H 0.23048 0.12054 0.59393 0.0
H367 H 0.21309 0.18568 0.59102 0.0
C368 C 0.26746 0.02968 0.62426 0.0
C369 C 0.23663 0.98732 0.63597 0.0
C370 C 0.25554 0.06556 0.62172 0.0
C371 C 0.21232 0.05957 0.6307 0.0
C372 C 0.18172 0.01696 0.64247 0.0
C373 C 0.19403 0.98158 0.64527 0.0
C374 C 0.16369 0.1427 0.64398 0.0
C375 C 0.17782 0.1721 0.62434 0.0
C376 C 0.17471 0.10621 0.64599 0.0
C377 C 0.19948 0.09775 0.6282 0.0
C378 C 0.2123 0.12649 0.60821 0.0
C379 C 0.20188 0.1635 0.60638 0.0
H380 H 0.99547 0.7845 0.91802 0.0
H381 H 0.04607 0.92476 0.88931 0.0
H382 H 0.91382 0.7673 0.9143 0.0
H383 H 0.96404 0.90908 0.88691 0.0
H384 H 0.81086 0.84602 0.86065 0.0
H385 H 0.89397 0.86749 0.86609 0.0
H386 H 0.85411 0.77947 0.92768 0.0
H387 H 0.771 0.75574 0.92105 0.0
C388 C 0.98902 0.81211 0.91137 0.0
C389 C 0.02698 0.85592 0.90392 0.0
C390 C 0.94206 0.80241 0.90937 0.0
C391 C 0.93179 0.83672 0.9003 0.0
C392 C 0.97021 0.88131 0.89353 0.0
C393 C 1.0173 0.89061 0.89511 0.0
C394 C 0.82015 0.83119 0.87523 0.0
C395 C 0.78468 0.79875 0.89023 0.0
C396 C 0.86786 0.84385 0.87855 0.0
C397 C 0.88123 0.82512 0.89729 0.0
C398 C 0.84542 0.79367 0.91266 0.0
C399 C 0.79767 0.78014 0.90897 0.0
H400 H 0.80738 0.03805 0.60256 0.0
H401 H 0.89821 0.9848 0.62673 0.0
H402 H 0.87291 0.11929 0.60578 0.0
H403 H 0.96536 0.0663 0.62859 0.0
H404 H 0.05982 0.21852 0.65503 0.0
H405 H 0.99666 0.13601 0.65002 0.0
H406 H 0.9438 0.17841 0.59108 0.0
H407 H 1.00503 0.26104 0.59733 0.0
C408 C 0.84184 0.04383 0.60811 0.0
C409 C 0.8478 1.00527 0.61444 0.0
C410 C 0.8797 0.09053 0.60982 0.0
C411 C 0.92487 0.09987 0.61745 0.0
C412 C 0.93103 0.06085 0.6231 0.0
C413 C 0.89273 0.01405 0.62183 0.0
C414 C 0.0344 0.20993 0.64112 0.0
C415 C 0.03671 0.24597 0.62677 0.0
C416 C 0.99843 0.16256 0.63803 0.0
C417 C 0.9646 0.15009 0.62017 0.0
C418 C 0.96813 0.18645 0.60543 0.0
C419 C 1.00337 0.2339 0.6089 0.0
H420 H 0.12638 0.14319 0.89644 0.0
H421 H 0.27819 0.24015 0.89391 0.0
H422 H 0.14034 0.07541 0.89611 0.0
H423 H 0.29226 0.17279 0.89309 0.0
H424 H 0.30198 0.04377 0.91723 0.0
H425 H 0.28612 0.11011 0.91824 0.0
H426 H 0.16897 0.03476 0.87062 0.0
H427 H 0.18478 0.96833 0.86985 0.0
C428 C 0.16268 0.14991 0.8957 0.0
C429 C 0.20122 0.19676 0.89525 0.0
C430 C 0.1707 0.11119 0.8954 0.0
C431 C 0.21744 0.1187 0.89465 0.0
C432 C 0.25587 0.16574 0.89405 0.0
C433 C 0.24783 0.20433 0.89436 0.0
C434 C 0.27296 0.04157 0.90695 0.0
C435 C 0.24449 1.00103 0.89351 0.0
C436 C 0.26391 0.07954 0.90747 0.0
C437 C 0.22631 0.07779 0.89448 0.0
C438 C 0.19777 0.03699 0.88108 0.0
C439 C 0.20683 0.999 0.88059 0.0
H440 H 1.01008 0.82563 0.58729 0.0
H441 H 0.02249 0.86895 0.65886 0.0
H442 H 0.92772 0.80914 0.58671 0.0
H443 H 0.93985 0.85037 0.6588 0.0
H444 H 0.803 0.85101 0.64767 0.0
H445 H 0.88673 0.87387 0.64558 0.0
H446 H 0.85102 0.75339 0.60071 0.0
H447 H 0.7674 0.73297 0.60151 0.0
C448 C 0.99511 0.83172 0.60286 0.0
C449 C 0.02247 0.84863 0.6231 0.0
C450 C 0.94782 0.82182 0.60263 0.0
C451 C 0.92685 0.8281 0.62275 0.0
C452 C 0.95483 0.84581 0.64286 0.0
C453 C 1.00221 0.8563 0.64297 0.0
C454 C 0.81329 0.83007 0.63699 0.0
C455 C 0.77905 0.79082 0.62443 0.0
C456 C 0.86121 0.84265 0.63608 0.0
C457 C 0.87588 0.81551 0.62298 0.0
C458 C 0.84126 0.77567 0.61064 0.0
C459 C 0.79328 0.76355 0.6113 0.0
H460 H 0.06818 0.2313 0.91446 0.0
H461 H 1.01258 0.25792 0.85173 0.0
H462 H 1.00353 0.14919 0.91476 0.0
H463 H 0.94732 0.17432 0.85193 0.0
H464 H 0.87453 1.00384 0.85309 0.0
H465 H 0.94013 0.08656 0.85012 0.0
H466 H 0.91094 0.1135 0.91982 0.0
H467 H 0.84503 0.03142 0.92264 0.0
C468 C 0.04233 0.21948 0.90058 0.0
C469 C 0.04533 0.251 0.88305 0.0
C470 C 1.0052 0.17248 0.90085 0.0
C471 C 0.97051 0.15565 0.88344 0.0
C472 C 0.9739 0.18664 0.8655 0.0
C473 C 1.01092 0.23427 0.86543 0.0
C474 C 0.88241 0.02749 0.86777 0.0
C475 C 0.85508 1.01141 0.88815 0.0
C476 C 0.9195 0.07475 0.86598 0.0
C477 C 0.93028 0.10619 0.88471 0.0
C478 C 0.9033 0.08981 0.90517 0.0
C479 C 0.86576 0.04294 0.9068 0.0
H480 H 0.28437 0.15021 0.32415 0.0
H481 H 0.43512 0.19813 0.3243 0.0
H482 H 0.28509 0.15194 0.28192 0.0
H483 H 0.43629 0.20155 0.2822 0.0
H484 H 0.41068 0.14476 0.20839 0.0
H485 H 0.41084 0.14862 0.25041 0.0
H486 H 0.31038 0.19981 0.24788 0.0
H487 H 0.30897 0.19433 0.20573 0.0
C488 C 0.31784 0.16192 0.31519 0.0
C489 C 0.3596 0.1737 0.32761 0.0
C490 C 0.31832 0.16308 0.29093 0.0
C491 C 0.36068 0.17647 0.27853 0.0
C492 C 0.40276 0.18996 0.29107 0.0
C493 C 0.40217 0.18833 0.31528 0.0
C494 C 0.3887 0.157 0.21675 0.0
C495 C 0.35976 0.16915 0.20362 0.0
C496 C 0.38903 0.15954 0.24092 0.0
C497 C 0.36076 0.17474 0.25267 0.0
C498 C 0.33212 0.18732 0.23951 0.0
C499 C 0.3315 0.18441 0.21529 0.0
H500 H 0.9137 0.71614 0.31408 0.0
H501 H 0.76519 0.60707 0.3121 0.0
H502 H 0.91768 0.71359 0.27205 0.0
H503 H 0.76849 0.60592 0.26998 0.0
H504 H 0.79462 0.59284 0.19383 0.0
H505 H 0.79651 0.58685 0.23596 0.0
H506 H 0.89179 0.73916 0.24013 0.0
H507 H 0.89137 0.74472 0.19832 0.0
C508 C 0.88187 0.69157 0.30466 0.0
C509 C 0.83906 0.66207 0.31646 0.0
C510 C 0.88403 0.6903 0.2805 0.0
C511 C 0.84324 0.66002 0.26745 0.0
C512 C 0.80081 0.62935 0.27936 0.0
C513 C 0.79882 0.63017 0.30357 0.0
C514 C 0.81631 0.62492 0.20377 0.0
C515 C 0.84285 0.66923 0.19265 0.0
C516 C 0.81719 0.62156 0.22796 0.0
C517 C 0.84431 0.66251 0.2416 0.0
C518 C 0.87125 0.70663 0.23033 0.0
C519 C 0.87075 0.70989 0.20623 0.0
H520 H 0.878 0.13764 0.20153 0.0
H521 H 0.83041 0.24098 0.20093 0.0
H522 H 0.87536 0.13635 0.24371 0.0
H523 H 0.82604 0.23843 0.24302 0.0
H524 H 0.883 0.26895 0.31702 0.0
H525 H 0.87829 0.26532 0.27503 0.0
H526 H 0.82689 0.11375 0.27749 0.0
H527 H 0.83326 0.11776 0.31959 0.0
C528 C 0.86617 0.15947 0.21038 0.0
C529 C 0.85474 0.18966 0.19784 0.0
C530 C 0.86445 0.1586 0.23462 0.0
C531 C 0.85082 0.18757 0.2469 0.0
C532 C 0.83773 0.21643 0.23424 0.0
C533 C 0.83992 0.21766 0.21004 0.0
C534 C 0.87042 0.23475 0.30866 0.0
C535 C 0.85868 0.19369 0.32174 0.0
C536 C 0.86742 0.23258 0.2845 0.0
C537 C 0.85214 0.1892 0.27274 0.0
C538 C 0.83953 0.14793 0.28588 0.0
C539 C 0.84292 0.15018 0.31007 0.0
H540 H 0.20214 0.29515 0.70203 0.0
H541 H 0.17005 0.40977 0.70178 0.0
H542 H 0.20752 0.29913 0.74414 0.0
H543 H 0.17305 0.41233 0.74384 0.0
H544 H 0.21423 0.432 0.81906 0.0
H545 H 0.21991 0.43255 0.77701 0.0
H546 H 0.16008 0.27946 0.77733 0.0
H547 H 0.15672 0.2795 0.81947 0.0
C548 C 0.19618 0.3212 0.71098 0.0
C549 C 0.18564 0.35212 0.69853 0.0
C550 C 0.19888 0.32325 0.73519 0.0
C551 C 0.19039 0.35581 0.74762 0.0
C552 C 0.18065 0.38728 0.73502 0.0
C553 C 0.17867 0.3857 0.71081 0.0
C554 C 0.2026 0.39851 0.81014 0.0
C555 C 0.18496 0.3557 0.82261 0.0
C556 C 0.20554 0.39874 0.78595 0.0
C557 C 0.19015 0.35601 0.77354 0.0
C558 C 0.17307 0.31325 0.78615 0.0
C559 C 0.17086 0.31316 0.81038 0.0
H560 H 0.26645 0.86151 0.82118 0.0
H561 H 0.11938 0.82731 0.82445 0.0
H562 H 0.26055 0.85205 0.77931 0.0
H563 H 0.11266 0.81563 0.78265 0.0
H564 H 0.13633 0.86156 0.70661 0.0
H565 H 0.13664 0.86046 0.74858 0.0
H566 H 0.22997 0.80055 0.74732 0.0
H567 H 0.23129 0.80372 0.70508 0.0
C568 C 0.23257 0.85118 0.81299 0.0
C569 C 0.19351 0.84559 0.82616 0.0
C570 C 0.22905 0.8454 0.78892 0.0
C571 C 0.18615 0.83323 0.7774 0.0
C572 C 0.1466 0.82602 0.79075 0.0
C573 C 0.15034 0.83247 0.81479 0.0
C574 C 0.15653 0.84761 0.71522 0.0
C575 C 0.18401 0.83296 0.70242 0.0
C576 C 0.15651 0.84673 0.73942 0.0
C577 C 0.18348 0.83058 0.75155 0.0
C578 C 0.20951 0.81414 0.73868 0.0
C579 C 0.20998 0.81557 0.71441 0.0
H580 H 0.60001 0.7841 0.69543 0.0
H581 H 0.75082 0.88613 0.69737 0.0
H582 H 0.59672 0.78625 0.7376 0.0
H583 H 0.74799 0.88695 0.73938 0.0
H584 H 0.72569 0.90937 0.81379 0.0
H585 H 0.7217 0.91157 0.7718 0.0
H586 H 0.62021 0.76038 0.771 0.0
H587 H 0.62285 0.75872 0.81319 0.0
C588 C 0.63247 0.807 0.70484 0.0
C589 C 0.67568 0.83494 0.693 0.0
C590 C 0.63065 0.808 0.72906 0.0
C591 C 0.67209 0.83667 0.74202 0.0
C592 C 0.71512 0.86508 0.73007 0.0
C593 C 0.71683 0.86443 0.70589 0.0
C594 C 0.70226 0.87664 0.80467 0.0
C595 C 0.67485 0.83379 0.81683 0.0
C596 C 0.70017 0.87783 0.78053 0.0
C597 C 0.67108 0.83605 0.76786 0.0
C598 C 0.64264 0.7934 0.78011 0.0
C599 C 0.6443 0.79235 0.80433 0.0
H600 H 0.3193 0.96404 0.96034 0.0
H601 H 0.17367 0.92696 0.97407 0.0
H602 H 0.34592 0.01855 0.99285 0.0
H603 H 0.19983 0.9795 1.0078 0.0
H604 H 0.37901 0.08105 0.06477 0.0
H605 H 0.35176 0.02721 0.03202 0.0
H606 H 0.2372 0.05744 0.021 0.0
H607 H 0.26312 0.10928 0.05497 0.0
C608 C 0.29271 0.96657 0.97071 0.0
C609 C 0.24424 0.94068 0.96469 0.0
C610 C 0.30803 0.99798 0.98954 0.0
C611 C 0.27525 1.00381 1.0033 0.0
C612 C 0.22649 0.977 0.9975 0.0
C613 C 0.21127 0.94626 0.9783 0.0
C614 C 0.34838 0.07682 0.05519 0.0
C615 C 0.32358 0.09998 0.06242 0.0
C616 C 0.33264 0.04577 0.03623 0.0
C617 C 0.29208 0.03756 0.02353 0.0
C618 C 0.26796 0.06181 0.03046 0.0
C619 C 0.28322 0.0922 0.0498 0.0
H620 H 0.72243 0.66044 0.45115 0.0
H621 H 0.86624 0.77549 0.46192 0.0
H622 H 0.69544 0.68678 0.48412 0.0
H623 H 0.83974 0.80057 0.49614 0.0
H624 H 0.77132 0.86116 0.5444 0.0
H625 H 0.79816 0.83713 0.51002 0.0
H626 H 0.69315 0.68984 0.52357 0.0
H627 H 0.66486 0.71431 0.55683 0.0
C628 C 0.74864 0.69081 0.46092 0.0
C629 C 0.79668 0.71552 0.45397 0.0
C630 C 0.73309 0.70597 0.48002 0.0
C631 C 0.76523 0.74582 0.49315 0.0
C632 C 0.81358 0.77023 0.48636 0.0
C633 C 0.82901 0.75554 0.46686 0.0
C634 C 0.75353 0.82376 0.53974 0.0
C635 C 0.71547 0.78979 0.5532 0.0
C636 C 0.76933 0.80979 0.52015 0.0
C637 C 0.74806 0.76135 0.51378 0.0
C638 C 0.7099 0.72757 0.52736 0.0
C639 C 0.69357 0.74163 0.5466 0.0
H640 H 0.11569 0.3901 0.97156 0.0
H641 H 0.09097 0.2473 0.96096 0.0
H642 H 0.06153 0.36214 1.00473 0.0
H643 H 0.03505 0.21884 0.9928 0.0
H644 H 0.96677 0.18513 0.06336 0.0
H645 H 0.02368 0.21481 0.03187 0.0
H646 H 0.98166 0.31926 0.01562 0.0
H647 H 0.92647 0.29107 0.04839 0.0
C648 C 0.09899 0.35284 0.97641 0.0
C649 C 0.10815 0.32114 0.96372 0.0
C650 C 0.0673 0.33655 0.99524 0.0
C651 C 0.04326 0.28795 1.00155 0.0
C652 C 0.05328 0.25662 0.98899 0.0
C653 C 0.08558 0.27304 0.97056 0.0
C654 C 0.96903 0.21395 0.05287 0.0
C655 C 0.94167 0.23543 0.0583 0.0
C656 C 1.00188 0.23111 0.03467 0.0
C657 C 1.00771 0.26967 0.02096 0.0
C658 C 0.97916 0.29024 0.02599 0.0
C659 C 0.94691 0.27363 0.04459 0.0
H660 H 0.26952 0.10842 0.47736 0.0
H661 H 0.3759 0.06751 0.46463 0.0
H662 H 0.24376 0.05874 0.51204 0.0
H663 H 0.34871 0.01607 0.49833 0.0
H664 H 0.17332 0.92607 0.55758 0.0
H665 H 0.20148 0.97918 0.52412 0.0
H666 H 0.34563 1.0109 0.5382 0.0
H667 H 0.31702 0.95605 0.57065 0.0
C668 C 0.28755 0.08899 0.48203 0.0
C669 C 0.32488 0.09212 0.46826 0.0
C670 C 0.2724 0.05998 0.50177 0.0
C671 C 0.29372 0.03279 0.50803 0.0
C672 C 0.33179 0.0369 0.49444 0.0
C673 C 0.34742 0.06646 0.47497 0.0
C674 C 0.21093 0.94404 0.55331 0.0
C675 C 0.24278 0.93632 0.5666 0.0
C676 C 0.22726 0.975 0.53427 0.0
C677 C 0.27602 0.99968 0.52832 0.0
C678 C 0.30775 0.99194 0.5418 0.0
C679 C 0.2913 0.96041 0.56052 0.0
H680 H 0.74314 0.65307 0.04506 0.0
H681 H 0.85682 0.79666 0.05845 0.0
H682 H 0.71903 0.68162 0.01146 0.0
H683 H 0.83189 0.82529 0.02543 0.0
H684 H 0.80283 0.85327 0.95117 0.0
H685 H 0.82862 0.8258 0.98439 0.0
H686 H 0.68164 0.72709 1.00176 0.0
H687 H 0.65587 0.75352 0.96802 0.0
C688 C 0.76317 0.69065 0.04079 0.0
C689 C 0.80211 0.72241 0.05445 0.0
C690 C 0.74902 0.70717 0.02164 0.0
C691 C 0.77323 0.75592 0.01574 0.0
C692 C 0.81269 0.78746 0.02919 0.0
C693 C 0.827 0.77094 0.04822 0.0
C694 C 0.7759 0.82622 0.96225 0.0
C695 C 0.7272 0.80574 0.95689 0.0
C696 C 0.79075 0.81038 0.98136 0.0
C697 C 0.7573 0.77388 0.99577 0.0
C698 C 0.70851 0.75451 0.99082 0.0
C699 C 0.69367 0.77011 0.97159 0.0
H700 H 0.06915 0.22669 0.565 0.0
H701 H 0.11318 0.37349 0.54923 0.0
H702 H 1.01523 0.20074 0.5321 0.0
H703 H 0.06038 0.34762 0.51573 0.0
H704 H 0.9269 0.28543 0.47108 0.0
H705 H 0.9785 0.30964 0.50509 0.0
H706 H 1.0112 0.19761 0.49137 0.0
H707 H 0.95865 0.17254 0.45808 0.0
C708 C 0.06816 0.25358 0.55422 0.0
C709 C 0.09586 0.30227 0.55975 0.0
C710 C 0.03707 0.23863 0.53528 0.0
C711 C 0.03308 0.27196 0.52116 0.0
C712 C 0.06165 0.32077 0.52641 0.0
C713 C 0.09245 0.3357 0.5455 0.0
C714 C 0.94457 0.26555 0.47553 0.0
C715 C 0.93821 0.2268 0.46185 0.0
C716 C 0.97466 0.27978 0.49492 0.0
C717 C 0.99948 0.25586 0.50103 0.0
C718 C 0.99232 0.21657 0.48754 0.0
C719 C 0.96204 0.20217 0.46832 0.0
H720 H 0.71555 0.11344 0.09168 0.0
H721 H 0.78106 0.23843 0.13541 0.0
H722 H 0.63847 0.10936 0.09633 0.0
H723 H 0.70398 0.2349 0.13958 0.0
H724 H 0.56174 0.23172 0.11748 0.0
H725 H 0.64066 0.23992 0.11239 0.0
H726 H 0.58418 0.09339 0.13338 0.0
H727 H 0.50536 0.08541 0.13892 0.0
C728 C 0.71361 0.14049 0.10195 0.0
C729 C 0.75417 0.17624 0.11322 0.0
C730 C 0.66951 0.13791 0.10474 0.0
C731 C 0.6654 0.17155 0.11847 0.0
C732 C 0.70635 0.20859 0.12889 0.0
C733 C 0.75035 0.21066 0.12646 0.0
C734 C 0.56636 0.20141 0.12117 0.0
C735 C 0.52768 0.15791 0.12857 0.0
C736 C 0.61141 0.20616 0.1183 0.0
C737 C 0.61822 0.16719 0.12235 0.0
C738 C 0.57959 0.12379 0.12995 0.0
C739 C 0.53472 0.11931 0.13325 0.0
H740 H 0.6079 0.5209 0.37677 0.0
H741 H 0.69547 0.46993 0.40788 0.0
H742 H 0.53714 0.44251 0.3828 0.0
H743 H 0.62473 0.39111 0.41336 0.0
H744 H 0.48306 0.2469 0.3897 0.0
H745 H 0.55749 0.32291 0.38461 0.0
H746 H 0.49731 0.3952 0.42281 0.0
H747 H 0.42373 0.31946 0.42853 0.0
C748 C 0.61199 0.49276 0.38465 0.0
C749 C 0.65687 0.50129 0.39197 0.0
C750 C 0.57163 0.44813 0.38817 0.0
C751 C 0.57573 0.41111 0.39861 0.0
C752 C 0.62085 0.41918 0.40524 0.0
C753 C 0.6611 0.46414 0.40217 0.0
C754 C 0.48616 0.27892 0.39735 0.0
C755 C 0.44774 0.27739 0.40949 0.0
C756 C 0.52856 0.32225 0.39439 0.0
C757 C 0.53264 0.36469 0.40313 0.0
C758 C 0.49468 0.36292 0.41573 0.0
C759 C 0.45277 0.31959 0.41909 0.0
H760 H 0.84965 0.36527 0.08925 0.0
H761 H 0.91333 0.40642 0.15702 0.0
H762 H 0.84412 0.43798 0.08717 0.0
H763 H 0.90542 0.47726 0.15573 0.0
H764 H 0.94019 0.62503 0.13743 0.0
H765 H 0.94127 0.55099 0.13795 0.0
H766 H 0.80777 0.48188 0.1006 0.0
H767 H 0.8088 0.55817 0.09871 0.0
C768 C 0.86207 0.38976 0.10377 0.0
C769 C 0.88259 0.38075 0.12314 0.0
C770 C 0.85852 0.4312 0.1027 0.0
C771 C 0.87482 0.46406 0.12116 0.0
C772 C 0.89378 0.45375 0.14085 0.0
C773 C 0.89811 0.41294 0.1417 0.0
C774 C 0.91097 0.59414 0.12926 0.0
C775 C 0.87394 0.59732 0.11832 0.0
C776 C 0.91132 0.55129 0.12978 0.0
C777 C 0.87412 0.50983 0.11976 0.0
C778 C 0.83712 0.51303 0.1085 0.0
C779 C 0.83725 0.55654 0.10765 0.0
H780 H 0.53575 0.17603 0.43919 0.0
H781 H 0.523 0.11679 0.37078 0.0
H782 H 0.61538 0.18501 0.44306 0.0
H783 H 0.60312 0.12711 0.37441 0.0
H784 H 0.76866 0.21411 0.38103 0.0
H785 H 0.68992 0.20702 0.37989 0.0
H786 H 0.65024 0.12239 0.44228 0.0
H787 H 0.72899 0.12826 0.44313 0.0
C788 C 0.55002 0.16495 0.42501 0.0
C789 C 0.52333 0.14567 0.40469 0.0
C790 C 0.5954 0.16999 0.42726 0.0
C791 C 0.61528 0.1569 0.409 0.0
C792 C 0.58859 0.13768 0.38868 0.0
C793 C 0.54279 0.13162 0.38664 0.0
C794 C 0.74339 0.19438 0.39467 0.0
C795 C 0.75484 0.17147 0.41213 0.0
C796 C 0.69828 0.19015 0.39391 0.0
C797 C 0.66402 0.16381 0.41086 0.0
C798 C 0.67613 0.14286 0.429 0.0
C799 C 0.72107 0.14625 0.4295 0.0
H800 H 0.43291 0.30652 0.08322 0.0
H801 H 0.47578 0.26409 0.14548 0.0
H802 H 0.50824 0.38276 0.08351 0.0
H803 H 0.55026 0.34037 0.146 0.0
H804 H 0.63716 0.50778 0.15375 0.0
H805 H 0.56588 0.42856 0.1516 0.0
H806 H 0.60172 0.41327 0.08125 0.0
H807 H 0.67362 0.492 0.08357 0.0
C808 C 0.45861 0.31332 0.09679 0.0
C809 C 0.44851 0.27954 0.11433 0.0
C810 C 0.50161 0.3568 0.09695 0.0
C811 C 0.53474 0.36747 0.11491 0.0
C812 C 0.52509 0.33316 0.13211 0.0
C813 C 0.48261 0.28945 0.13171 0.0
C814 C 0.62987 0.48736 0.13789 0.0
C815 C 0.6608 0.50586 0.11884 0.0
C816 C 0.58928 0.44208 0.13669 0.0
C817 C 0.57842 0.41493 0.11625 0.0
C818 C 0.60923 0.4336 0.09715 0.0
C819 C 0.65035 0.47847 0.09852 0.0
H820 H 0.94097 0.62135 0.41679 0.0
H821 H 0.80264 0.55444 0.38438 0.0
H822 H 0.94117 0.54599 0.41519 0.0
H823 H 0.80179 0.4782 0.38368 0.0
H824 H 0.80927 0.34316 0.41027 0.0
H825 H 0.80399 0.41618 0.41243 0.0
H826 H 0.94344 0.49554 0.3812 0.0
H827 H 0.94841 0.4226 0.37872 0.0
C828 C 0.91012 0.59023 0.40976 0.0
C829 C 0.87118 0.59343 0.40127 0.0
C830 C 0.91037 0.5472 0.40874 0.0
C831 C 0.87152 0.50629 0.39931 0.0
C832 C 0.83193 0.50908 0.39132 0.0
C833 C 0.83204 0.55249 0.39204 0.0
C834 C 0.83863 0.37623 0.40377 0.0
C835 C 0.87933 0.37739 0.39439 0.0
C836 C 0.83551 0.41786 0.40493 0.0
C837 C 0.87342 0.46151 0.39713 0.0
C838 C 0.91391 0.46246 0.38757 0.0
C839 C 0.91667 0.42074 0.38605 0.0
H840 H 0.22877 0.76339 0.60619 0.0
H841 H 0.09797 0.6934 0.64543 0.0
H842 H 0.23495 0.69111 0.60809 0.0
H843 H 0.10157 0.62046 0.64576 0.0
H844 H 0.13483 0.50606 0.66192 0.0
H845 H 0.13956 0.58353 0.66234 0.0
H846 H 0.20287 0.61301 0.59393 0.0
H847 H 0.20068 0.53639 0.59435 0.0
C848 C 0.2017 0.73278 0.6154 0.0
C849 C 0.16365 0.73447 0.62616 0.0
C850 C 0.20465 0.69096 0.61616 0.0
C851 C 0.16902 0.64975 0.62734 0.0
C852 C 0.13051 0.65159 0.63762 0.0
C853 C 0.1281 0.69342 0.63718 0.0
C854 C 0.15008 0.52936 0.64708 0.0
C855 C 0.16703 0.51524 0.62804 0.0
C856 C 0.1525 0.57368 0.64719 0.0
C857 C 0.17087 0.60453 0.62798 0.0
C858 C 0.18891 0.59063 0.60913 0.0
C859 C 0.18736 0.54657 0.60926 0.0
H860 H 0.42711 0.94126 0.88124 0.0
H861 H 0.3479 0.79705 0.90699 0.0
H862 H 0.49941 0.93604 0.88056 0.0
H863 H 0.42036 0.79079 0.90547 0.0
H864 H 0.5746 0.82085 0.92234 0.0
H865 H 0.4975 0.81837 0.92302 0.0
H866 H 0.53528 0.90012 0.85952 0.0
H867 H 0.61217 0.90405 0.85953 0.0
C868 C 0.42514 0.90819 0.88653 0.0
C869 C 0.38194 0.86952 0.89407 0.0
C870 C 0.46656 0.90498 0.886 0.0
C871 C 0.4658 0.86273 0.89269 0.0
C872 C 0.42241 0.82397 0.90036 0.0
C873 C 0.38087 0.82741 0.90109 0.0
C874 C 0.56594 0.83782 0.9085 0.0
C875 C 0.59939 0.86315 0.89105 0.0
C876 C 0.52181 0.83635 0.90881 0.0
C877 C 0.51041 0.85987 0.89155 0.0
C878 C 0.54325 0.88291 0.8735 0.0
C879 C 0.58727 0.8849 0.8734 0.0
H880 H 0.53784 0.60152 0.63653 0.0
H881 H 0.47068 0.68073 0.61349 0.0
H882 H 0.46102 0.5285 0.63658 0.0
H883 H 0.39283 0.6078 0.61455 0.0
H884 H 0.26919 0.45646 0.59579 0.0
H885 H 0.34367 0.53325 0.59612 0.0
H886 H 0.38939 0.48842 0.65677 0.0
H887 H 0.31656 0.41167 0.65558 0.0
C888 C 0.5064 0.60331 0.63175 0.0
C889 C 0.51013 0.64669 0.62506 0.0
C890 C 0.46215 0.56147 0.63193 0.0
C891 C 0.42029 0.56203 0.62578 0.0
C892 C 0.42419 0.60574 0.61914 0.0
C893 C 0.46871 0.64761 0.61869 0.0
C894 C 0.29521 0.46345 0.60921 0.0
C895 C 0.28754 0.42808 0.62547 0.0
C896 C 0.33783 0.50745 0.6095 0.0
C897 C 0.37319 0.51697 0.62625 0.0
C898 C 0.36394 0.48206 0.64315 0.0
C899 C 0.32195 0.4381 0.6426 0.0
H900 H 0.1306 0.72207 0.86889 0.0
H901 H 0.21827 0.76452 0.93022 0.0
H902 H 0.13074 0.64717 0.86795 0.0
H903 H 0.21697 0.68788 0.92996 0.0
H904 H 0.23272 0.55733 0.91015 0.0
H905 H 0.24067 0.63663 0.91084 0.0
H906 H 0.09402 0.5751 0.8888 0.0
H907 H 0.08704 0.49663 0.88725 0.0
C908 C 0.14997 0.71521 0.88222 0.0
C909 C 0.17403 0.74874 0.89976 0.0
C910 C 0.1497 0.67203 0.88181 0.0
C911 C 0.17281 0.66077 0.8992 0.0
C912 C 0.19877 0.69533 0.91628 0.0
C913 C 0.19955 0.73916 0.91648 0.0
C914 C 0.20227 0.56098 0.90549 0.0
C915 C 0.15933 0.52103 0.8985 0.0
C916 C 0.20673 0.60634 0.906 0.0
C917 C 0.16819 0.61252 0.89964 0.0
C918 C 0.12489 0.57204 0.89324 0.0
C919 C 0.12065 0.52692 0.89251 0.0
H920 H 0.39145 0.87073 0.66759 0.0
H921 H 0.36253 0.83075 0.59561 0.0
H922 H 0.46323 0.86412 0.66544 0.0
H923 H 0.4357 0.82696 0.59286 0.0
H924 H 0.55895 0.79841 0.59665 0.0
H925 H 0.47981 0.78961 0.60189 0.0
H926 H 0.53938 0.90718 0.65046 0.0
H927 H 0.61644 0.91297 0.64656 0.0
C928 C 0.40068 0.86071 0.65129 0.0
C929 C 0.37184 0.85165 0.63173 0.0
C930 C 0.44197 0.85719 0.64995 0.0
C931 C 0.45592 0.84562 0.62886 0.0
C932 C 0.42607 0.83534 0.60946 0.0
C933 C 0.38429 0.83795 0.61096 0.0
C934 C 0.5545 0.82121 0.60893 0.0
C935 C 0.59356 0.85564 0.62153 0.0
C936 C 0.50938 0.81684 0.61168 0.0
C937 C 0.50281 0.84749 0.62676 0.0
C938 C 0.54234 0.882 0.63919 0.0
C939 C 0.5869 0.88578 0.63671 0.0
H940 H 0.47728 0.69823 0.8963 0.0
H941 H 0.54033 0.60794 0.89316 0.0
H942 H 0.39834 0.62764 0.90163 0.0
H943 H 0.46179 0.53768 0.89869 0.0
H944 H 0.32411 0.43017 0.93433 0.0
H945 H 0.40007 0.5046 0.93129 0.0
H946 H 0.34153 0.55326 0.87768 0.0
H947 H 0.26572 0.47844 0.88042 0.0
C948 C 0.47416 0.66328 0.8967 0.0
C949 C 0.51471 0.65835 0.8943 0.0
C950 C 0.42912 0.62302 0.89972 0.0
C951 C 0.42412 0.57733 0.90076 0.0
C952 C 0.46476 0.57255 0.89828 0.0
C953 C 0.50959 0.61267 0.89494 0.0
C954 C 0.32729 0.457 0.9221 0.0
C955 C 0.2891 0.44854 0.90759 0.0
C956 C 0.37078 0.49943 0.92028 0.0
C957 C 0.37672 0.53443 0.90411 0.0
C958 C 0.33781 0.52695 0.89036 0.0
C959 C 0.29445 0.48419 0.89196 0.0
loop_
_geom_bond_atom_site_label_1
_geom_bond_atom_site_label_2
_geom_bond_distance
_geom_bond_site_symmetry_2
_ccdc_geom_bond_type
Tb0 O3 2.453 . S
Tb0 O4 2.596 . S
Tb0 O5 2.374 . S
Tb0 O13 2.343 . S
Tb0 O15 2.353 . S
Tb0 O17 2.427 . S
Tb0 O18 2.513 . S
C1 O5 1.251 . S
C1 O7 1.263 . S
Tb2 O4 2.343 . S
Tb2 O7 2.353 . S
Tb2 O10 2.427 . S
Tb2 O11 2.513 . S
Tb2 O12 2.453 . S
Tb2 O13 2.596 . S
Tb2 O14 2.374 . S
O3 Tb0 2.453 . S
O3 C19 1.245 . S
O4 Tb0 2.596 . S
O4 Tb2 2.343 . S
O4 C19 1.259 . S
O5 Tb0 2.374 . S
O5 C1 1.251 . S
C6 O10 1.275 . S
C6 O11 1.246 . S
O7 C1 1.263 . S
O7 Tb2 2.353 . S
C8 O12 1.245 . S
C8 O13 1.259 . S
C9 O14 1.250 . S
C9 O15 1.263 . S
O10 Tb2 2.427 . S
O10 C6 1.275 . S
O11 Tb2 2.513 . S
O11 C6 1.246 . S
O12 Tb2 2.453 . S
O12 C8 1.245 . S
O13 Tb0 2.343 . S
O13 Tb2 2.596 . S
O13 C8 1.259 . S
O14 Tb2 2.374 . S
O14 C9 1.250 . S
O15 Tb0 2.353 . S
O15 C9 1.263 . S
C16 O17 1.275 . S
C16 O18 1.246 . S
O17 Tb0 2.427 . S
O17 C16 1.275 . S
O18 Tb0 2.513 . S
O18 C16 1.246 . S
C19 O3 1.245 . S
C19 O4 1.259 . S
Tb20 O23 2.453 . S
Tb20 O24 2.596 . S
Tb20 O25 2.374 . S
Tb20 O33 2.343 . S
Tb20 O35 2.353 . S
Tb20 O37 2.427 . S
Tb20 O38 2.513 . S
C21 O25 1.251 . S
C21 O27 1.263 . S
Tb22 O24 2.343 . S
Tb22 O27 2.353 . S
Tb22 O30 2.427 . S
Tb22 O31 2.513 . S
Tb22 O32 2.453 . S
Tb22 O33 2.596 . S
Tb22 O34 2.374 . S
O23 Tb20 2.453 . S
O23 C39 1.245 . S
O24 Tb20 2.596 . S
O24 Tb22 2.343 . S
O24 C39 1.259 . S
O25 Tb20 2.374 . S
O25 C21 1.251 . S
C26 O30 1.275 . S
C26 O31 1.246 . S
O27 C21 1.263 . S
O27 Tb22 2.353 . S
C28 O32 1.245 . S
C28 O33 1.259 . S
C29 O34 1.250 . S
C29 O35 1.263 . S
O30 Tb22 2.427 . S
O30 C26 1.275 . S
O31 Tb22 2.513 . S
O31 C26 1.246 . S
O32 Tb22 2.453 . S
O32 C28 1.245 . S
O33 Tb20 2.343 . S
O33 Tb22 2.596 . S
O33 C28 1.259 . S
O34 Tb22 2.374 . S
O34 C29 1.250 . S
O35 Tb20 2.353 . S
O35 C29 1.263 . S
C36 O37 1.275 . S
C36 O38 1.246 . S
O37 Tb20 2.427 . S
O37 C36 1.275 . S
O38 Tb20 2.513 . S
O38 C36 1.246 . S
C39 O23 1.245 . S
C39 O24 1.259 . S
Tb40 O43 2.453 . S
Tb40 O44 2.596 . S
Tb40 O45 2.374 . S
Tb40 O53 2.343 . S
Tb40 O55 2.353 . S
Tb40 O57 2.427 . S
Tb40 O58 2.513 . S
C41 O45 1.251 . S
C41 O47 1.263 . S
Tb42 O44 2.343 . S
Tb42 O47 2.353 . S
Tb42 O50 2.427 . S
Tb42 O51 2.513 . S
Tb42 O52 2.453 . S
Tb42 O53 2.596 . S
Tb42 O54 2.374 . S
O43 Tb40 2.453 . S
O43 C59 1.245 . S
O44 Tb40 2.596 . S
O44 Tb42 2.343 . S
O44 C59 1.259 . S
O45 Tb40 2.374 . S
O45 C41 1.251 . S
C46 O50 1.275 . S
C46 O51 1.246 . S
O47 C41 1.263 . S
O47 Tb42 2.353 . S
C48 O52 1.245 . S
C48 O53 1.259 . S
C49 O54 1.250 . S
C49 O55 1.263 . S
O50 Tb42 2.427 . S
O50 C46 1.275 . S
O51 Tb42 2.513 . S
O51 C46 1.246 . S
O52 Tb42 2.453 . S
O52 C48 1.245 . S
O53 Tb40 2.343 . S
O53 Tb42 2.596 . S
O53 C48 1.259 . S
O54 Tb42 2.374 . S
O54 C49 1.250 . S
O55 Tb40 2.353 . S
O55 C49 1.263 . S
C56 O57 1.275 . S
C56 O58 1.246 . S
O57 Tb40 2.427 . S
O57 C56 1.275 . S
O58 Tb40 2.513 . S
O58 C56 1.246 . S
C59 O43 1.245 . S
C59 O44 1.259 . S
Tb60 O63 2.453 . S
Tb60 O64 2.596 . S
Tb60 O65 2.374 . S
Tb60 O73 2.343 . S
Tb60 O75 2.353 . S
Tb60 O77 2.427 . S
Tb60 O78 2.513 . S
C61 O65 1.251 . S
C61 O67 1.263 . S
Tb62 O64 2.343 . S
Tb62 O67 2.353 . S
Tb62 O70 2.427 . S
Tb62 O71 2.513 . S
Tb62 O72 2.453 . S
Tb62 O73 2.596 . S
Tb62 O74 2.374 . S
O63 Tb60 2.453 . S
O63 C79 1.245 . S
O64 Tb60 2.596 . S
O64 Tb62 2.343 . S
O64 C79 1.259 . S
O65 Tb60 2.374 . S
O65 C61 1.251 . S
C66 O70 1.275 . S
C66 O71 1.246 . S
O67 C61 1.263 . S
O67 Tb62 2.353 . S
C68 O72 1.245 . S
C68 O73 1.259 . S
C69 O74 1.250 . S
C69 O75 1.263 . S
O70 Tb62 2.427 . S
O70 C66 1.275 . S
O71 Tb62 2.513 . S
O71 C66 1.246 . S
O72 Tb62 2.453 . S
O72 C68 1.245 . S
O73 Tb60 2.343 . S
O73 Tb62 2.596 . S
O73 C68 1.259 . S
O74 Tb62 2.374 . S
O74 C69 1.250 . S
O75 Tb60 2.353 . S
O75 C69 1.263 . S
C76 O77 1.275 . S
C76 O78 1.246 . S
O77 Tb60 2.427 . S
O77 C76 1.275 . S
O78 Tb60 2.513 . S
O78 C76 1.246 . S
C79 O63 1.245 . S
C79 O64 1.259 . S
Tb80 O83 2.453 . S
Tb80 O84 2.596 . S
Tb80 O85 2.374 . S
Tb80 O93 2.343 . S
Tb80 O95 2.353 . S
Tb80 O97 2.427 . S
Tb80 O98 2.513 . S
C81 O85 1.251 . S
C81 O87 1.263 . S
Tb82 O84 2.343 . S
Tb82 O87 2.353 . S
Tb82 O90 2.427 . S
Tb82 O91 2.513 . S
Tb82 O92 2.453 . S
Tb82 O93 2.596 . S
Tb82 O94 2.374 . S
O83 Tb80 2.453 . S
O83 C99 1.245 . S
O84 Tb80 2.596 . S
O84 Tb82 2.343 . S
O84 C99 1.259 . S
O85 Tb80 2.374 . S
O85 C81 1.251 . S
C86 O90 1.275 . S
C86 O91 1.246 . S
O87 C81 1.263 . S
O87 Tb82 2.353 . S
C88 O92 1.245 . S
C88 O93 1.259 . S
C89 O94 1.250 . S
C89 O95 1.263 . S
O90 Tb82 2.427 . S
O90 C86 1.275 . S
O91 Tb82 2.513 . S
O91 C86 1.246 . S
O92 Tb82 2.453 . S
O92 C88 1.245 . S
O93 Tb80 2.343 . S
O93 Tb82 2.596 . S
O93 C88 1.259 . S
O94 Tb82 2.374 . S
O94 C89 1.250 . S
O95 Tb80 2.353 . S
O95 C89 1.263 . S
C96 O97 1.275 . S
C96 O98 1.246 . S
O97 Tb80 2.427 . S
O97 C96 1.275 . S
O98 Tb80 2.513 . S
O98 C96 1.246 . S
C99 O83 1.245 . S
C99 O84 1.259 . S
Tb100 O103 2.453 . S
Tb100 O104 2.596 . S
Tb100 O105 2.374 . S
Tb100 O113 2.343 . S
Tb100 O115 2.353 . S
Tb100 O117 2.427 . S
Tb100 O118 2.513 . S
C101 O105 1.251 . S
C101 O107 1.263 . S
Tb102 O104 2.343 . S
Tb102 O107 2.353 . S
Tb102 O110 2.427 . S
Tb102 O111 2.513 . S
Tb102 O112 2.453 . S
Tb102 O113 2.596 . S
Tb102 O114 2.374 . S
O103 Tb100 2.453 . S
O103 C119 1.245 . S
O104 Tb100 2.596 . S
O104 Tb102 2.343 . S
O104 C119 1.259 . S
O105 Tb100 2.374 . S
O105 C101 1.251 . S
C106 O110 1.275 . S
C106 O111 1.246 . S
O107 C101 1.263 . S
O107 Tb102 2.353 . S
C108 O112 1.245 . S
C108 O113 1.259 . S
C109 O114 1.250 . S
C109 O115 1.263 . S
O110 Tb102 2.427 . S
O110 C106 1.275 . S
O111 Tb102 2.513 . S
O111 C106 1.246 . S
O112 Tb102 2.453 . S
O112 C108 1.245 . S
O113 Tb100 2.343 . S
O113 Tb102 2.596 . S
O113 C108 1.259 . S
O114 Tb102 2.374 . S
O114 C109 1.250 . S
O115 Tb100 2.353 . S
O115 C109 1.263 . S
C116 O117 1.275 . S
C116 O118 1.246 . S
O117 Tb100 2.427 . S
O117 C116 1.275 . S
O118 Tb100 2.513 . S
O118 C116 1.246 . S
C119 O103 1.245 . S
C119 O104 1.259 . S
Tb120 O123 2.453 . S
Tb120 O124 2.596 . S
Tb120 O125 2.374 . S
Tb120 O133 2.343 . S
Tb120 O135 2.353 . S
Tb120 O137 2.427 . S
Tb120 O138 2.513 . S
C121 O125 1.251 . S
C121 O127 1.263 . S
Tb122 O124 2.343 . S
Tb122 O127 2.353 . S
Tb122 O130 2.427 . S
Tb122 O131 2.513 . S
Tb122 O132 2.453 . S
Tb122 O133 2.596 . S
Tb122 O134 2.374 . S
O123 Tb120 2.453 . S
O123 C139 1.245 . S
O124 Tb120 2.596 . S
O124 Tb122 2.343 . S
O124 C139 1.259 . S
O125 Tb120 2.374 . S
O125 C121 1.251 . S
C126 O130 1.275 . S
C126 O131 1.246 . S
O127 C121 1.263 . S
O127 Tb122 2.353 . S
C128 O132 1.245 . S
C128 O133 1.259 . S
C129 O134 1.250 . S
C129 O135 1.263 . S
O130 Tb122 2.427 . S
O130 C126 1.275 . S
O131 Tb122 2.513 . S
O131 C126 1.246 . S
O132 Tb122 2.453 . S
O132 C128 1.245 . S
O133 Tb120 2.343 . S
O133 Tb122 2.596 . S
O133 C128 1.259 . S
O134 Tb122 2.374 . S
O134 C129 1.250 . S
O135 Tb120 2.353 . S
O135 C129 1.263 . S
C136 O137 1.275 . S
C136 O138 1.246 . S
O137 Tb120 2.427 . S
O137 C136 1.275 . S
O138 Tb120 2.513 . S
O138 C136 1.246 . S
C139 O123 1.245 . S
C139 O124 1.259 . S
Tb140 O143 2.453 . S
Tb140 O144 2.596 . S
Tb140 O145 2.374 . S
Tb140 O153 2.343 . S
Tb140 O155 2.353 . S
Tb140 O157 2.427 . S
Tb140 O158 2.513 . S
C141 O145 1.251 . S
C141 O147 1.263 . S
Tb142 O144 2.343 . S
Tb142 O147 2.353 . S
Tb142 O150 2.427 . S
Tb142 O151 2.513 . S
Tb142 O152 2.453 . S
Tb142 O153 2.596 . S
Tb142 O154 2.374 . S
O143 Tb140 2.453 . S
O143 C159 1.245 . S
O144 Tb140 2.596 . S
O144 Tb142 2.343 . S
O144 C159 1.259 . S
O145 Tb140 2.374 . S
O145 C141 1.251 . S
C146 O150 1.275 . S
C146 O151 1.246 . S
O147 C141 1.263 . S
O147 Tb142 2.353 . S
C148 O152 1.245 . S
C148 O153 1.259 . S
C149 O154 1.250 . S
C149 O155 1.263 . S
O150 Tb142 2.427 . S
O150 C146 1.275 . S
O151 Tb142 2.513 . S
O151 C146 1.246 . S
O152 Tb142 2.453 . S
O152 C148 1.245 . S
O153 Tb140 2.343 . S
O153 Tb142 2.596 . S
O153 C148 1.259 . S
O154 Tb142 2.374 . S
O154 C149 1.250 . S
O155 Tb140 2.353 . S
O155 C149 1.263 . S
C156 O157 1.275 . S
C156 O158 1.246 . S
O157 Tb140 2.427 . S
O157 C156 1.275 . S
O158 Tb140 2.513 . S
O158 C156 1.246 . S
C159 O143 1.245 . S
C159 O144 1.259 . S
Tb160 O163 2.453 . S
Tb160 O164 2.596 . S
Tb160 O165 2.374 . S
Tb160 O173 2.343 . S
Tb160 O175 2.353 . S
Tb160 O177 2.427 . S
Tb160 O178 2.513 . S
C161 O165 1.251 . S
C161 O167 1.263 . S
Tb162 O164 2.343 . S
Tb162 O167 2.353 . S
Tb162 O170 2.427 . S
Tb162 O171 2.513 . S
Tb162 O172 2.453 . S
Tb162 O173 2.596 . S
Tb162 O174 2.374 . S
O163 Tb160 2.453 . S
O163 C179 1.245 . S
O164 Tb160 2.596 . S
O164 Tb162 2.343 . S
O164 C179 1.259 . S
O165 Tb160 2.374 . S
O165 C161 1.251 . S
C166 O170 1.275 . S
C166 O171 1.246 . S
O167 C161 1.263 . S
O167 Tb162 2.353 . S
C168 O172 1.245 . S
C168 O173 1.259 . S
C169 O174 1.250 . S
C169 O175 1.263 . S
O170 Tb162 2.427 . S
O170 C166 1.275 . S
O171 Tb162 2.513 . S
O171 C166 1.246 . S
O172 Tb162 2.453 . S
O172 C168 1.245 . S
O173 Tb160 2.343 . S
O173 Tb162 2.596 . S
O173 C168 1.259 . S
O174 Tb162 2.374 . S
O174 C169 1.250 . S
O175 Tb160 2.353 . S
O175 C169 1.263 . S
C176 O177 1.275 . S
C176 O178 1.246 . S
O177 Tb160 2.427 . S
O177 C176 1.275 . S
O178 Tb160 2.513 . S
O178 C176 1.246 . S
C179 O163 1.245 . S
C179 O164 1.259 . S
Tb180 O183 2.453 . S
Tb180 O184 2.596 . S
Tb180 O185 2.374 . S
Tb180 O193 2.343 . S
Tb180 O195 2.353 . S
Tb180 O197 2.427 . S
Tb180 O198 2.513 . S
C181 O185 1.251 . S
C181 O187 1.263 . S
Tb182 O184 2.343 . S
Tb182 O187 2.353 . S
Tb182 O190 2.427 . S
Tb182 O191 2.513 . S
Tb182 O192 2.453 . S
Tb182 O193 2.596 . S
Tb182 O194 2.374 . S
O183 Tb180 2.453 . S
O183 C199 1.245 . S
O184 Tb180 2.596 . S
O184 Tb182 2.343 . S
O184 C199 1.259 . S
O185 Tb180 2.374 . S
O185 C181 1.251 . S
C186 O190 1.275 . S
C186 O191 1.246 . S
O187 C181 1.263 . S
O187 Tb182 2.353 . S
C188 O192 1.245 . S
C188 O193 1.259 . S
C189 O194 1.250 . S
C189 O195 1.263 . S
O190 Tb182 2.427 . S
O190 C186 1.275 . S
O191 Tb182 2.513 . S
O191 C186 1.246 . S
O192 Tb182 2.453 . S
O192 C188 1.245 . S
O193 Tb180 2.343 . S
O193 Tb182 2.596 . S
O193 C188 1.259 . S
O194 Tb182 2.374 . S
O194 C189 1.250 . S
O195 Tb180 2.353 . S
O195 C189 1.263 . S
C196 O197 1.275 . S
C196 O198 1.246 . S
O197 Tb180 2.427 . S
O197 C196 1.275 . S
O198 Tb180 2.513 . S
O198 C196 1.246 . S
C199 O183 1.245 . S
C199 O184 1.259 . S
Tb200 O203 2.453 . S
Tb200 O204 2.596 . S
Tb200 O205 2.374 . S
Tb200 O213 2.343 . S
Tb200 O215 2.353 . S
Tb200 O217 2.427 . S
Tb200 O218 2.513 . S
C201 O205 1.251 . S
C201 O207 1.263 . S
Tb202 O204 2.343 . S
Tb202 O207 2.353 . S
Tb202 O210 2.427 . S
Tb202 O211 2.513 . S
Tb202 O212 2.453 . S
Tb202 O213 2.596 . S
Tb202 O214 2.374 . S
O203 Tb200 2.453 . S
O203 C219 1.245 . S
O204 Tb200 2.596 . S
O204 Tb202 2.343 . S
O204 C219 1.259 . S
O205 Tb200 2.374 . S
O205 C201 1.251 . S
C206 O210 1.275 . S
C206 O211 1.246 . S
O207 C201 1.263 . S
O207 Tb202 2.353 . S
C208 O212 1.245 . S
C208 O213 1.259 . S
C209 O214 1.250 . S
C209 O215 1.263 . S
O210 Tb202 2.427 . S
O210 C206 1.275 . S
O211 Tb202 2.513 . S
O211 C206 1.246 . S
O212 Tb202 2.453 . S
O212 C208 1.245 . S
O213 Tb200 2.343 . S
O213 Tb202 2.596 . S
O213 C208 1.259 . S
O214 Tb202 2.374 . S
O214 C209 1.250 . S
O215 Tb200 2.353 . S
O215 C209 1.263 . S
C216 O217 1.275 . S
C216 O218 1.246 . S
O217 Tb200 2.427 . S
O217 C216 1.275 . S
O218 Tb200 2.513 . S
O218 C216 1.246 . S
C219 O203 1.245 . S
C219 O204 1.259 . S
Tb220 O223 2.453 . S
Tb220 O224 2.596 . S
Tb220 O225 2.374 . S
Tb220 O233 2.343 . S
Tb220 O235 2.353 . S
Tb220 O237 2.427 . S
Tb220 O238 2.513 . S
C221 O225 1.251 . S
C221 O227 1.263 . S
Tb222 O224 2.343 . S
Tb222 O227 2.353 . S
Tb222 O230 2.427 . S
Tb222 O231 2.513 . S
Tb222 O232 2.453 . S
Tb222 O233 2.596 . S
Tb222 O234 2.374 . S
O223 Tb220 2.453 . S
O223 C239 1.245 . S
O224 Tb220 2.596 . S
O224 Tb222 2.343 . S
O224 C239 1.259 . S
O225 Tb220 2.374 . S
O225 C221 1.251 . S
C226 O230 1.275 . S
C226 O231 1.246 . S
O227 C221 1.263 . S
O227 Tb222 2.353 . S
C228 O232 1.245 . S
C228 O233 1.259 . S
C229 O234 1.250 . S
C229 O235 1.263 . S
O230 Tb222 2.427 . S
O230 C226 1.275 . S
O231 Tb222 2.513 . S
O231 C226 1.246 . S
O232 Tb222 2.453 . S
O232 C228 1.245 . S
O233 Tb220 2.343 . S
O233 Tb222 2.596 . S
O233 C228 1.259 . S
O234 Tb222 2.374 . S
O234 C229 1.250 . S
O235 Tb220 2.353 . S
O235 C229 1.263 . S
C236 O237 1.275 . S
C236 O238 1.246 . S
O237 Tb220 2.427 . S
O237 C236 1.275 . S
O238 Tb220 2.513 . S
O238 C236 1.246 . S
C239 O223 1.245 . S
C239 O224 1.259 . S
H240 C248 0.950 . S
H241 C253 0.950 . S
H242 C250 0.950 . S
H243 C252 0.950 . S
H244 C254 0.950 . S
H245 C256 0.950 . S
H246 C258 0.950 . S
H247 C259 0.950 . S
C248 H240 0.950 . S
C248 C249 1.386 . S
C248 C250 1.391 1_655 S
C249 C248 1.386 . S
C249 C253 1.393 . S
C250 H242 0.950 . S
C250 C248 1.391 1_455 S
C250 C251 1.400 . S
C251 C250 1.400 . S
C251 C252 1.398 . S
C251 C257 1.491 . S
C252 H243 0.950 . S
C252 C251 1.398 . S
C252 C253 1.391 1_455 S
C253 H241 0.950 . S
C253 C249 1.393 . S
C253 C252 1.391 1_655 S
C254 H244 0.950 . S
C254 C255 1.386 . S
C254 C256 1.391 . S
C255 C254 1.386 . S
C255 C259 1.393 . S
C256 H245 0.950 . S
C256 C254 1.391 . S
C256 C257 1.400 . S
C257 C251 1.491 . S
C257 C256 1.400 . S
C257 C258 1.398 . S
C258 H246 0.950 . S
C258 C257 1.398 . S
C258 C259 1.391 . S
C259 H247 0.950 . S
C259 C255 1.393 . S
C259 C258 1.391 . S
H260 C268 0.950 . S
H261 C273 0.950 . S
H262 C270 0.950 . S
H263 C272 0.950 . S
H264 C274 0.950 . S
H265 C276 0.950 . S
H266 C278 0.950 . S
H267 C279 0.950 . S
C268 H260 0.950 . S
C268 C269 1.386 1_565 S
C268 C270 1.391 . S
C269 C268 1.386 1_545 S
C269 C273 1.393 . S
C270 H262 0.950 . S
C270 C268 1.391 . S
C270 C271 1.400 . S
C271 C270 1.400 . S
C271 C272 1.398 . S
C271 C277 1.491 . S
C272 H263 0.950 . S
C272 C271 1.398 . S
C272 C273 1.391 1_565 S
C273 H261 0.950 . S
C273 C269 1.393 . S
C273 C272 1.391 1_545 S
C274 H264 0.950 . S
C274 C275 1.386 . S
C274 C276 1.391 1_655 S
C275 C274 1.386 . S
C275 C279 1.393 1_655 S
C276 H265 0.950 . S
C276 C274 1.391 1_455 S
C276 C277 1.400 . S
C277 C271 1.491 . S
C277 C276 1.400 . S
C277 C278 1.398 . S
C278 H266 0.950 . S
C278 C277 1.398 . S
C278 C279 1.391 . S
C279 H267 0.950 . S
C279 C275 1.393 1_455 S
C279 C278 1.391 . S
H280 C288 0.950 . S
H281 C293 0.950 . S
H282 C290 0.950 . S
H283 C292 0.950 . S
H284 C294 0.950 . S
H285 C296 0.950 . S
H286 C298 0.950 . S
H287 C299 0.950 . S
C288 H280 0.950 . S
C288 C289 1.386 1_565 S
C288 C290 1.391 . S
C289 C288 1.386 1_545 S
C289 C293 1.393 . S
C290 H282 0.950 . S
C290 C288 1.391 . S
C290 C291 1.400 . S
C291 C290 1.400 . S
C291 C292 1.398 . S
C291 C297 1.491 . S
C292 H283 0.950 . S
C292 C291 1.398 . S
C292 C293 1.391 1_565 S
C293 H281 0.950 . S
C293 C289 1.393 . S
C293 C292 1.391 1_545 S
C294 H284 0.950 . S
C294 C295 1.386 . S
C294 C296 1.391 . S
C295 C294 1.386 . S
C295 C299 1.393 . S
C296 H285 0.950 . S
C296 C294 1.391 . S
C296 C297 1.400 . S
C297 C291 1.491 . S
C297 C296 1.400 . S
C297 C298 1.398 . S
C298 H286 0.950 . S
C298 C297 1.398 . S
C298 C299 1.391 . S
C299 H287 0.950 . S
C299 C295 1.393 . S
C299 C298 1.391 . S
H300 C308 0.950 . S
H301 C313 0.950 . S
H302 C310 0.950 . S
H303 C312 0.950 . S
H304 C314 0.950 . S
H305 C316 0.950 . S
H306 C318 0.950 . S
H307 C319 0.950 . S
C308 H300 0.950 . S
C308 C309 1.386 . S
C308 C310 1.391 . S
C309 C308 1.386 . S
C309 C313 1.393 . S
C310 H302 0.950 . S
C310 C308 1.391 . S
C310 C311 1.400 . S
C311 C310 1.400 . S
C311 C312 1.398 . S
C311 C317 1.491 . S
C312 H303 0.950 . S
C312 C311 1.398 . S
C312 C313 1.391 . S
C313 H301 0.950 . S
C313 C309 1.393 . S
C313 C312 1.391 . S
C314 H304 0.950 . S
C314 C315 1.386 1_455 S
C314 C316 1.391 . S
C315 C314 1.386 1_655 S
C315 C319 1.393 . S
C316 H305 0.950 . S
C316 C314 1.391 . S
C316 C317 1.400 . S
C317 C311 1.491 . S
C317 C316 1.400 . S
C317 C318 1.398 1_455 S
C318 H306 0.950 . S
C318 C317 1.398 1_655 S
C318 C319 1.391 . S
C319 H307 0.950 . S
C319 C315 1.393 . S
C319 C318 1.391 . S
H320 C328 0.950 . S
H321 C333 0.950 . S
H322 C330 0.950 . S
H323 C332 0.950 . S
H324 C334 0.950 . S
H325 C336 0.950 . S
H326 C338 0.950 . S
H327 C339 0.950 . S
C328 H320 0.950 . S
C328 C329 1.386 . S
C328 C330 1.391 . S
C329 C328 1.386 . S
C329 C333 1.393 1_545 S
C330 H322 0.950 . S
C330 C328 1.391 . S
C330 C331 1.400 1_545 S
C331 C330 1.400 1_565 S
C331 C332 1.398 . S
C331 C337 1.491 . S
C332 H323 0.950 . S
C332 C331 1.398 . S
C332 C333 1.391 . S
C333 H321 0.950 . S
C333 C329 1.393 1_565 S
C333 C332 1.391 . S
C334 H324 0.950 . S
C334 C335 1.386 1_455 S
C334 C336 1.391 . S
C335 C334 1.386 1_655 S
C335 C339 1.393 . S
C336 H325 0.950 . S
C336 C334 1.391 . S
C336 C337 1.400 . S
C337 C331 1.491 . S
C337 C336 1.400 . S
C337 C338 1.398 . S
C338 H326 0.950 . S
C338 C337 1.398 . S
C338 C339 1.391 1_455 S
C339 H327 0.950 . S
C339 C335 1.393 . S
C339 C338 1.391 1_655 S
H340 C348 0.950 . S
H341 C353 0.950 . S
H342 C350 0.950 . S
H343 C352 0.950 . S
H344 C354 0.950 . S
H345 C356 0.950 . S
H346 C358 0.950 . S
H347 C359 0.950 . S
C348 H340 0.950 . S
C348 C349 1.386 . S
C348 C350 1.391 . S
C349 C348 1.386 . S
C349 C353 1.393 . S
C350 H342 0.950 . S
C350 C348 1.391 . S
C350 C351 1.400 . S
C351 C350 1.400 . S
C351 C352 1.398 . S
C351 C357 1.491 . S
C352 H343 0.950 . S
C352 C351 1.398 . S
C352 C353 1.391 . S
C353 H341 0.950 . S
C353 C349 1.393 . S
C353 C352 1.391 . S
C354 H344 0.950 . S
C354 C355 1.386 . S
C354 C356 1.391 1_545 S
C355 C354 1.386 . S
C355 C359 1.393 1_545 S
C356 H345 0.950 . S
C356 C354 1.391 1_565 S
C356 C357 1.400 . S
C357 C351 1.491 . S
C357 C356 1.400 . S
C357 C358 1.398 . S
C358 H346 0.950 . S
C358 C357 1.398 . S
C358 C359 1.391 . S
C359 H347 0.950 . S
C359 C355 1.393 1_565 S
C359 C358 1.391 . S
H360 C368 0.950 . S
H361 C373 0.950 . S
H362 C370 0.950 . S
H363 C372 0.950 . S
H364 C374 0.950 . S
H365 C376 0.950 . S
H366 C378 0.950 . S
H367 C379 0.950 . S
C368 H360 0.950 . S
C368 C369 1.386 . S
C368 C370 1.391 1_565 S
C369 C368 1.386 . S
C369 C373 1.393 . S
C370 H362 0.950 . S
C370 C368 1.391 1_545 S
C370 C371 1.400 . S
C371 C370 1.400 . S
C371 C372 1.398 . S
C371 C377 1.491 . S
C372 H363 0.950 . S
C372 C371 1.398 . S
C372 C373 1.391 1_545 S
C373 H361 0.950 . S
C373 C369 1.393 . S
C373 C372 1.391 1_565 S
C374 H364 0.950 . S
C374 C375 1.386 . S
C374 C376 1.391 . S
C375 C374 1.386 . S
C375 C379 1.393 . S
C376 H365 0.950 . S
C376 C374 1.391 . S
C376 C377 1.400 . S
C377 C371 1.491 . S
C377 C376 1.400 . S
C377 C378 1.398 . S
C378 H366 0.950 . S
C378 C377 1.398 . S
C378 C379 1.391 . S
C379 H367 0.950 . S
C379 C375 1.393 . S
C379 C378 1.391 . S
H380 C388 0.950 . S
H381 C393 0.950 . S
H382 C390 0.950 . S
H383 C392 0.950 . S
H384 C394 0.950 . S
H385 C396 0.950 . S
H386 C398 0.950 . S
H387 C399 0.950 . S
C388 H380 0.950 . S
C388 C389 1.386 1_655 S
C388 C390 1.391 . S
C389 C388 1.386 1_455 S
C389 C393 1.393 . S
C390 H382 0.950 . S
C390 C388 1.391 . S
C390 C391 1.400 . S
C391 C390 1.400 . S
C391 C392 1.398 . S
C391 C397 1.491 . S
C392 H383 0.950 . S
C392 C391 1.398 . S
C392 C393 1.391 1_655 S
C393 H381 0.950 . S
C393 C389 1.393 . S
C393 C392 1.391 1_455 S
C394 H384 0.950 . S
C394 C395 1.386 . S
C394 C396 1.391 . S
C395 C394 1.386 . S
C395 C399 1.393 . S
C396 H385 0.950 . S
C396 C394 1.391 . S
C396 C397 1.400 . S
C397 C391 1.491 . S
C397 C396 1.400 . S
C397 C398 1.398 . S
C398 H386 0.950 . S
C398 C397 1.398 . S
C398 C399 1.391 . S
C399 H387 0.950 . S
C399 C395 1.393 . S
C399 C398 1.391 . S
H400 C408 0.950 . S
H401 C413 0.950 . S
H402 C410 0.950 . S
H403 C412 0.950 . S
H404 C414 0.950 . S
H405 C416 0.950 . S
H406 C418 0.950 . S
H407 C419 0.950 . S
C408 H400 0.950 . S
C408 C409 1.386 1_545 S
C408 C410 1.391 . S
C409 C408 1.386 1_565 S
C409 C413 1.393 . S
C410 H402 0.950 . S
C410 C408 1.391 . S
C410 C411 1.400 . S
C411 C410 1.400 . S
C411 C412 1.398 . S
C411 C417 1.491 . S
C412 H403 0.950 . S
C412 C411 1.398 . S
C412 C413 1.391 1_545 S
C413 H401 0.950 . S
C413 C409 1.393 . S
C413 C412 1.391 1_565 S
C414 H404 0.950 . S
C414 C415 1.386 . S
C414 C416 1.391 . S
C415 C414 1.386 . S
C415 C419 1.393 1_455 S
C416 H405 0.950 . S
C416 C414 1.391 . S
C416 C417 1.400 1_455 S
C417 C411 1.491 . S
C417 C416 1.400 1_655 S
C417 C418 1.398 . S
C418 H406 0.950 . S
C418 C417 1.398 . S
C418 C419 1.391 . S
C419 H407 0.950 . S
C419 C415 1.393 1_655 S
C419 C418 1.391 . S
H420 C428 0.950 . S
H421 C433 0.950 . S
H422 C430 0.950 . S
H423 C432 0.950 . S
H424 C434 0.950 . S
H425 C436 0.950 . S
H426 C438 0.950 . S
H427 C439 0.950 . S
C428 H420 0.950 . S
C428 C429 1.386 . S
C428 C430 1.391 . S
C429 C428 1.386 . S
C429 C433 1.393 . S
C430 H422 0.950 . S
C430 C428 1.391 . S
C430 C431 1.400 . S
C431 C430 1.400 . S
C431 C432 1.398 . S
C431 C437 1.491 . S
C432 H423 0.950 . S
C432 C431 1.398 . S
C432 C433 1.391 . S
C433 H421 0.950 . S
C433 C429 1.393 . S
C433 C432 1.391 . S
C434 H424 0.950 . S
C434 C435 1.386 . S
C434 C436 1.391 1_565 S
C435 C434 1.386 . S
C435 C439 1.393 . S
C436 H425 0.950 . S
C436 C434 1.391 1_545 S
C436 C437 1.400 . S
C437 C431 1.491 . S
C437 C436 1.400 . S
C437 C438 1.398 . S
C438 H426 0.950 . S
C438 C437 1.398 . S
C438 C439 1.391 1_545 S
C439 H427 0.950 . S
C439 C435 1.393 . S
C439 C438 1.391 1_565 S
H440 C448 0.950 1_455 S
H441 C453 0.950 1_455 S
H442 C450 0.950 . S
H443 C452 0.950 . S
H444 C454 0.950 . S
H445 C456 0.950 . S
H446 C458 0.950 . S
H447 C459 0.950 . S
C448 H440 0.950 1_655 S
C448 C449 1.386 1_655 S
C448 C450 1.391 . S
C449 C448 1.386 1_455 S
C449 C453 1.393 1_455 S
C450 H442 0.950 . S
C450 C448 1.391 . S
C450 C451 1.400 . S
C451 C450 1.400 . S
C451 C452 1.398 . S
C451 C457 1.491 . S
C452 H443 0.950 . S
C452 C451 1.398 . S
C452 C453 1.391 . S
C453 H441 0.950 1_655 S
C453 C449 1.393 1_655 S
C453 C452 1.391 . S
C454 H444 0.950 . S
C454 C455 1.386 . S
C454 C456 1.391 . S
C455 C454 1.386 . S
C455 C459 1.393 . S
C456 H445 0.950 . S
C456 C454 1.391 . S
C456 C457 1.400 . S
C457 C451 1.491 . S
C457 C456 1.400 . S
C457 C458 1.398 . S
C458 H446 0.950 . S
C458 C457 1.398 . S
C458 C459 1.391 . S
C459 H447 0.950 . S
C459 C455 1.393 . S
C459 C458 1.391 . S
H460 C468 0.950 . S
H461 C473 0.950 . S
H462 C470 0.950 . S
H463 C472 0.950 . S
H464 C474 0.950 1_565 S
H465 C476 0.950 . S
H466 C478 0.950 . S
H467 C479 0.946 1_565 S
C468 H460 0.950 . S
C468 C469 1.386 . S
C468 C470 1.391 1_455 S
C469 C468 1.386 . S
C469 C473 1.393 . S
C470 H462 0.950 . S
C470 C468 1.391 1_655 S
C470 C471 1.400 . S
C471 C470 1.400 . S
C471 C472 1.398 . S
C471 C477 1.491 . S
C472 H463 0.950 . S
C472 C471 1.398 . S
C472 C473 1.391 1_655 S
C473 H461 0.950 . S
C473 C469 1.393 . S
C473 C472 1.391 1_455 S
C474 H464 0.950 1_545 S
C474 C475 1.386 1_545 S
C474 C476 1.391 . S
C475 C474 1.386 1_565 S
C475 C479 1.392 1_565 S
C476 H465 0.950 . S
C476 C474 1.391 . S
C476 C477 1.400 . S
C477 C471 1.491 . S
C477 C476 1.400 . S
C477 C478 1.398 . S
C478 H466 0.950 . S
C478 C477 1.398 . S
C478 C479 1.395 . S
C479 H467 0.946 1_545 S
C479 C475 1.392 1_545 S
C479 C478 1.395 . S
H480 C488 0.950 . S
H481 C493 0.950 . S
H482 C490 0.950 . S
H483 C492 0.950 . S
H484 C494 0.950 . S
H485 C496 0.950 . S
H486 C498 0.950 . S
H487 C499 0.950 . S
C488 H480 0.950 . S
C488 C489 1.386 . S
C488 C490 1.391 . S
C489 C488 1.386 . S
C489 C493 1.393 . S
C490 H482 0.950 . S
C490 C488 1.391 . S
C490 C491 1.400 . S
C491 C490 1.400 . S
C491 C492 1.398 . S
C491 C497 1.491 . S
C492 H483 0.950 . S
C492 C491 1.398 . S
C492 C493 1.391 . S
C493 H481 0.950 . S
C493 C489 1.393 . S
C493 C492 1.391 . S
C494 H484 0.950 . S
C494 C495 1.386 . S
C494 C496 1.391 . S
C495 C494 1.386 . S
C495 C499 1.393 . S
C496 H485 0.950 . S
C496 C494 1.391 . S
C496 C497 1.400 . S
C497 C491 1.491 . S
C497 C496 1.400 . S
C497 C498 1.398 . S
C498 H486 0.950 . S
C498 C497 1.398 . S
C498 C499 1.391 . S
C499 H487 0.950 . S
C499 C495 1.393 . S
C499 C498 1.391 . S
H500 C508 0.950 . S
H501 C513 0.950 . S
H502 C510 0.950 . S
H503 C512 0.950 . S
H504 C514 0.950 . S
H505 C516 0.950 . S
H506 C518 0.950 . S
H507 C519 0.950 . S
C508 H500 0.950 . S
C508 C509 1.386 . S
C508 C510 1.391 . S
C509 C508 1.386 . S
C509 C513 1.393 . S
C510 H502 0.950 . S
C510 C508 1.391 . S
C510 C511 1.400 . S
C511 C510 1.400 . S
C511 C512 1.398 . S
C511 C517 1.491 . S
C512 H503 0.950 . S
C512 C511 1.398 . S
C512 C513 1.391 . S
C513 H501 0.950 . S
C513 C509 1.393 . S
C513 C512 1.391 . S
C514 H504 0.950 . S
C514 C515 1.386 . S
C514 C516 1.391 . S
C515 C514 1.386 . S
C515 C519 1.393 . S
C516 H505 0.950 . S
C516 C514 1.391 . S
C516 C517 1.400 . S
C517 C511 1.491 . S
C517 C516 1.400 . S
C517 C518 1.398 . S
C518 H506 0.950 . S
C518 C517 1.398 . S
C518 C519 1.391 . S
C519 H507 0.950 . S
C519 C515 1.393 . S
C519 C518 1.391 . S
H520 C528 0.950 . S
H521 C533 0.950 . S
H522 C530 0.950 . S
H523 C532 0.950 . S
H524 C534 0.950 . S
H525 C536 0.950 . S
H526 C538 0.950 . S
H527 C539 0.950 . S
C528 H520 0.950 . S
C528 C529 1.386 . S
C528 C530 1.391 . S
C529 C528 1.386 . S
C529 C533 1.393 . S
C530 H522 0.950 . S
C530 C528 1.391 . S
C530 C531 1.400 . S
C531 C530 1.400 . S
C531 C532 1.398 . S
C531 C537 1.491 . S
C532 H523 0.950 . S
C532 C531 1.398 . S
C532 C533 1.391 . S
C533 H521 0.950 . S
C533 C529 1.393 . S
C533 C532 1.391 . S
C534 H524 0.950 . S
C534 C535 1.386 . S
C534 C536 1.391 . S
C535 C534 1.386 . S
C535 C539 1.393 . S
C536 H525 0.950 . S
C536 C534 1.391 . S
C536 C537 1.400 . S
C537 C531 1.491 . S
C537 C536 1.400 . S
C537 C538 1.398 . S
C538 H526 0.950 . S
C538 C537 1.398 . S
C538 C539 1.391 . S
C539 H527 0.950 . S
C539 C535 1.393 . S
C539 C538 1.391 . S
H540 C548 0.950 . S
H541 C553 0.950 . S
H542 C550 0.950 . S
H543 C552 0.950 . S
H544 C554 0.950 . S
H545 C556 0.950 . S
H546 C558 0.950 . S
H547 C559 0.950 . S
C548 H540 0.950 . S
C548 C549 1.386 . S
C548 C550 1.391 . S
C549 C548 1.386 . S
C549 C553 1.393 . S
C550 H542 0.950 . S
C550 C548 1.391 . S
C550 C551 1.400 . S
C551 C550 1.400 . S
C551 C552 1.398 . S
C551 C557 1.491 . S
C552 H543 0.950 . S
C552 C551 1.398 . S
C552 C553 1.391 . S
C553 H541 0.950 . S
C553 C549 1.393 . S
C553 C552 1.391 . S
C554 H544 0.950 . S
C554 C555 1.386 . S
C554 C556 1.391 . S
C555 C554 1.386 . S
C555 C559 1.393 . S
C556 H545 0.950 . S
C556 C554 1.391 . S
C556 C557 1.400 . S
C557 C551 1.491 . S
C557 C556 1.400 . S
C557 C558 1.398 . S
C558 H546 0.950 . S
C558 C557 1.398 . S
C558 C559 1.391 . S
C559 H547 0.950 . S
C559 C555 1.393 . S
C559 C558 1.391 . S
H560 C568 0.950 . S
H561 C573 0.950 . S
H562 C570 0.950 . S
H563 C572 0.950 . S
H564 C574 0.950 . S
H565 C576 0.950 . S
H566 C578 0.950 . S
H567 C579 0.950 . S
C568 H560 0.950 . S
C568 C569 1.386 . S
C568 C570 1.391 . S
C569 C568 1.386 . S
C569 C573 1.393 . S
C570 H562 0.950 . S
C570 C568 1.391 . S
C570 C571 1.400 . S
C571 C570 1.400 . S
C571 C572 1.398 . S
C571 C577 1.491 . S
C572 H563 0.950 . S
C572 C571 1.398 . S
C572 C573 1.391 . S
C573 H561 0.950 . S
C573 C569 1.393 . S
C573 C572 1.391 . S
C574 H564 0.950 . S
C574 C575 1.386 . S
C574 C576 1.391 . S
C575 C574 1.386 . S
C575 C579 1.393 . S
C576 H565 0.950 . S
C576 C574 1.391 . S
C576 C577 1.400 . S
C577 C571 1.491 . S
C577 C576 1.400 . S
C577 C578 1.398 . S
C578 H566 0.950 . S
C578 C577 1.398 . S
C578 C579 1.391 . S
C579 H567 0.950 . S
C579 C575 1.393 . S
C579 C578 1.391 . S
H580 C588 0.950 . S
H581 C593 0.950 . S
H582 C590 0.950 . S
H583 C592 0.950 . S
H584 C594 0.950 . S
H585 C596 0.950 . S
H586 C598 0.950 . S
H587 C599 0.950 . S
C588 H580 0.950 . S
C588 C589 1.386 . S
C588 C590 1.391 . S
C589 C588 1.386 . S
C589 C593 1.393 . S
C590 H582 0.950 . S
C590 C588 1.391 . S
C590 C591 1.400 . S
C591 C590 1.400 . S
C591 C592 1.398 . S
C591 C597 1.491 . S
C592 H583 0.950 . S
C592 C591 1.398 . S
C592 C593 1.391 . S
C593 H581 0.950 . S
C593 C589 1.393 . S
C593 C592 1.391 . S
C594 H584 0.950 . S
C594 C595 1.386 . S
C594 C596 1.391 . S
C595 C594 1.386 . S
C595 C599 1.393 . S
C596 H585 0.950 . S
C596 C594 1.391 . S
C596 C597 1.400 . S
C597 C591 1.491 . S
C597 C596 1.400 . S
C597 C598 1.398 . S
C598 H586 0.950 . S
C598 C597 1.398 . S
C598 C599 1.391 . S
C599 H587 0.950 . S
C599 C595 1.393 . S
C599 C598 1.391 . S
H600 C608 0.950 . S
H601 C613 0.950 . S
H602 C610 0.950 1_545 S
H603 C612 0.950 1_554 S
H604 C614 0.950 . S
H605 C616 0.950 1_565 S
H606 C618 0.950 1_556 S
H607 C619 0.950 . S
C608 H600 0.950 . S
C608 C609 1.386 . S
C608 C610 1.391 . S
C609 C608 1.386 . S
C609 C613 1.393 . S
C610 H602 0.950 1_565 S
C610 C608 1.391 . S
C610 C611 1.400 . S
C611 C610 1.400 . S
C611 C612 1.398 . S
C611 C617 1.491 1_566 S
C612 H603 0.950 1_556 S
C612 C611 1.398 . S
C612 C613 1.391 . S
C613 H601 0.950 . S
C613 C609 1.393 . S
C613 C612 1.391 . S
C614 H604 0.950 . S
C614 C615 1.386 . S
C614 C616 1.391 . S
C615 C614 1.386 . S
C615 C619 1.393 . S
C616 H605 0.950 1_545 S
C616 C614 1.391 . S
C616 C617 1.400 . S
C617 C611 1.491 1_544 S
C617 C616 1.400 . S
C617 C618 1.398 . S
C618 H606 0.950 1_554 S
C618 C617 1.398 . S
C618 C619 1.391 . S
C619 H607 0.950 . S
C619 C615 1.393 . S
C619 C618 1.391 . S
H620 C628 0.950 . S
H621 C633 0.950 . S
H622 C630 0.950 . S
H623 C632 0.950 . S
H624 C634 0.950 . S
H625 C636 0.950 . S
H626 C638 0.950 . S
H627 C639 0.950 . S
C628 H620 0.950 . S
C628 C629 1.386 . S
C628 C630 1.391 . S
C629 C628 1.386 . S
C629 C633 1.393 . S
C630 H622 0.950 . S
C630 C628 1.391 . S
C630 C631 1.400 . S
C631 C630 1.400 . S
C631 C632 1.398 . S
C631 C637 1.491 . S
C632 H623 0.950 . S
C632 C631 1.398 . S
C632 C633 1.391 . S
C633 H621 0.950 . S
C633 C629 1.393 . S
C633 C632 1.391 . S
C634 H624 0.950 . S
C634 C635 1.386 . S
C634 C636 1.391 . S
C635 C634 1.386 . S
C635 C639 1.393 . S
C636 H625 0.950 . S
C636 C634 1.391 . S
C636 C637 1.400 . S
C637 C631 1.491 . S
C637 C636 1.400 . S
C637 C638 1.398 . S
C638 H626 0.950 . S
C638 C637 1.398 . S
C638 C639 1.391 . S
C639 H627 0.950 . S
C639 C635 1.393 . S
C639 C638 1.391 . S
H640 C648 0.950 . S
H641 C653 0.950 . S
H642 C650 0.950 1_655 S
H643 C652 0.950 1_554 S
H644 C654 0.950 . S
H645 C656 0.950 1_455 S
H646 C658 0.950 1_556 S
H647 C659 0.950 . S
C648 H640 0.950 . S
C648 C649 1.386 . S
C648 C650 1.391 . S
C649 C648 1.386 . S
C649 C653 1.393 . S
C650 H642 0.950 1_455 S
C650 C648 1.391 . S
C650 C651 1.400 . S
C651 C650 1.400 . S
C651 C652 1.398 . S
C651 C657 1.491 1_456 S
C652 H643 0.950 1_556 S
C652 C651 1.398 . S
C652 C653 1.391 . S
C653 H641 0.950 . S
C653 C649 1.393 . S
C653 C652 1.391 . S
C654 H644 0.950 . S
C654 C655 1.386 . S
C654 C656 1.391 . S
C655 C654 1.386 . S
C655 C659 1.393 . S
C656 H645 0.950 1_655 S
C656 C654 1.391 . S
C656 C657 1.400 . S
C657 C651 1.491 1_654 S
C657 C656 1.400 . S
C657 C658 1.398 . S
C658 H646 0.950 1_554 S
C658 C657 1.398 . S
C658 C659 1.391 . S
C659 H647 0.950 . S
C659 C655 1.393 . S
C659 C658 1.391 . S
H660 C668 0.950 . S
H661 C673 0.950 . S
H662 C670 0.950 . S
H663 C672 0.950 1_565 S
H664 C674 0.950 . S
H665 C676 0.950 . S
H666 C678 0.950 1_545 S
H667 C679 0.950 . S
C668 H660 0.950 . S
C668 C669 1.386 . S
C668 C670 1.391 . S
C669 C668 1.386 . S
C669 C673 1.393 . S
C670 H662 0.950 . S
C670 C668 1.391 . S
C670 C671 1.400 . S
C671 C670 1.400 . S
C671 C672 1.398 . S
C671 C677 1.491 1_545 S
C672 H663 0.950 1_545 S
C672 C671 1.398 . S
C672 C673 1.391 . S
C673 H661 0.950 . S
C673 C669 1.393 . S
C673 C672 1.391 . S
C674 H664 0.950 . S
C674 C675 1.386 . S
C674 C676 1.391 . S
C675 C674 1.386 . S
C675 C679 1.393 . S
C676 H665 0.950 . S
C676 C674 1.391 . S
C676 C677 1.400 . S
C677 C671 1.491 1_565 S
C677 C676 1.400 . S
C677 C678 1.398 . S
C678 H666 0.950 1_565 S
C678 C677 1.398 . S
C678 C679 1.391 . S
C679 H667 0.950 . S
C679 C675 1.393 . S
C679 C678 1.391 . S
H680 C688 0.950 . S
H681 C693 0.950 . S
H682 C690 0.950 . S
H683 C692 0.950 . S
H684 C694 0.950 . S
H685 C696 0.950 . S
H686 C698 0.950 . S
H687 C699 0.950 . S
C688 H680 0.950 . S
C688 C689 1.386 . S
C688 C690 1.391 . S
C689 C688 1.386 . S
C689 C693 1.393 . S
C690 H682 0.950 . S
C690 C688 1.391 . S
C690 C691 1.400 . S
C691 C690 1.400 . S
C691 C692 1.398 . S
C691 C697 1.491 1_554 S
C692 H683 0.950 . S
C692 C691 1.398 . S
C692 C693 1.391 . S
C693 H681 0.950 . S
C693 C689 1.393 . S
C693 C692 1.391 . S
C694 H684 0.950 . S
C694 C695 1.386 . S
C694 C696 1.391 . S
C695 C694 1.386 . S
C695 C699 1.393 . S
C696 H685 0.950 . S
C696 C694 1.391 . S
C696 C697 1.400 . S
C697 C691 1.491 1_556 S
C697 C696 1.400 . S
C697 C698 1.398 . S
C698 H686 0.950 . S
C698 C697 1.398 . S
C698 C699 1.391 . S
C699 H687 0.950 . S
C699 C695 1.393 . S
C699 C698 1.391 . S
H700 C708 0.950 . S
H701 C713 0.950 . S
H702 C710 0.950 1_655 S
H703 C712 0.950 . S
H704 C714 0.950 . S
H705 C716 0.950 1_455 S
H706 C718 0.950 . S
H707 C719 0.950 . S
C708 H700 0.950 . S
C708 C709 1.386 . S
C708 C710 1.391 . S
C709 C708 1.386 . S
C709 C713 1.393 . S
C710 H702 0.950 1_455 S
C710 C708 1.391 . S
C710 C711 1.400 . S
C711 C710 1.400 . S
C711 C712 1.398 . S
C711 C717 1.491 1_455 S
C712 H703 0.950 . S
C712 C711 1.398 . S
C712 C713 1.391 . S
C713 H701 0.950 . S
C713 C709 1.393 . S
C713 C712 1.391 . S
C714 H704 0.950 . S
C714 C715 1.386 . S
C714 C716 1.391 . S
C715 C714 1.386 . S
C715 C719 1.393 . S
C716 H705 0.950 1_655 S
C716 C714 1.391 . S
C716 C717 1.400 . S
C717 C711 1.491 1_655 S
C717 C716 1.400 . S
C717 C718 1.398 . S
C718 H706 0.950 . S
C718 C717 1.398 . S
C718 C719 1.391 . S
C719 H707 0.950 . S
C719 C715 1.393 . S
C719 C718 1.391 . S
H720 C728 0.950 . S
H721 C733 0.950 . S
H722 C730 0.950 . S
H723 C732 0.950 . S
H724 C734 0.950 . S
H725 C736 0.950 . S
H726 C738 0.950 . S
H727 C739 0.950 . S
C728 H720 0.950 . S
C728 C729 1.386 . S
C728 C730 1.391 . S
C729 C728 1.386 . S
C729 C733 1.393 . S
C730 H722 0.950 . S
C730 C728 1.391 . S
C730 C731 1.400 . S
C731 C730 1.400 . S
C731 C732 1.398 . S
C731 C737 1.491 . S
C732 H723 0.950 . S
C732 C731 1.398 . S
C732 C733 1.391 . S
C733 H721 0.950 . S
C733 C729 1.393 . S
C733 C732 1.391 . S
C734 H724 0.950 . S
C734 C735 1.386 . S
C734 C736 1.391 . S
C735 C734 1.386 . S
C735 C739 1.393 . S
C736 H725 0.950 . S
C736 C734 1.391 . S
C736 C737 1.400 . S
C737 C731 1.491 . S
C737 C736 1.400 . S
C737 C738 1.398 . S
C738 H726 0.950 . S
C738 C737 1.398 . S
C738 C739 1.391 . S
C739 H727 0.950 . S
C739 C735 1.393 . S
C739 C738 1.391 . S
H740 C748 0.950 . S
H741 C753 0.950 . S
H742 C750 0.950 . S
H743 C752 0.950 . S
H744 C754 0.950 . S
H745 C756 0.950 . S
H746 C758 0.950 . S
H747 C759 0.950 . S
C748 H740 0.950 . S
C748 C749 1.386 . S
C748 C750 1.391 . S
C749 C748 1.386 . S
C749 C753 1.393 . S
C750 H742 0.950 . S
C750 C748 1.391 . S
C750 C751 1.400 . S
C751 C750 1.400 . S
C751 C752 1.398 . S
C751 C757 1.491 . S
C752 H743 0.950 . S
C752 C751 1.398 . S
C752 C753 1.391 . S
C753 H741 0.950 . S
C753 C749 1.393 . S
C753 C752 1.391 . S
C754 H744 0.950 . S
C754 C755 1.386 . S
C754 C756 1.391 . S
C755 C754 1.386 . S
C755 C759 1.393 . S
C756 H745 0.950 . S
C756 C754 1.391 . S
C756 C757 1.400 . S
C757 C751 1.491 . S
C757 C756 1.400 . S
C757 C758 1.398 . S
C758 H746 0.950 . S
C758 C757 1.398 . S
C758 C759 1.391 . S
C759 H747 0.950 . S
C759 C755 1.393 . S
C759 C758 1.391 . S
H760 C768 0.950 . S
H761 C773 0.950 . S
H762 C770 0.950 . S
H763 C772 0.950 . S
H764 C774 0.950 . S
H765 C776 0.950 . S
H766 C778 0.950 . S
H767 C779 0.950 . S
C768 H760 0.950 . S
C768 C769 1.386 . S
C768 C770 1.391 . S
C769 C768 1.386 . S
C769 C773 1.393 . S
C770 H762 0.950 . S
C770 C768 1.391 . S
C770 C771 1.400 . S
C771 C770 1.400 . S
C771 C772 1.398 . S
C771 C777 1.491 . S
C772 H763 0.950 . S
C772 C771 1.398 . S
C772 C773 1.391 . S
C773 H761 0.950 . S
C773 C769 1.393 . S
C773 C772 1.391 . S
C774 H764 0.950 . S
C774 C775 1.386 . S
C774 C776 1.391 . S
C775 C774 1.386 . S
C775 C779 1.393 . S
C776 H765 0.950 . S
C776 C774 1.391 . S
C776 C777 1.400 . S
C777 C771 1.491 . S
C777 C776 1.400 . S
C777 C778 1.398 . S
C778 H766 0.950 . S
C778 C777 1.398 . S
C778 C779 1.391 . S
C779 H767 0.950 . S
C779 C775 1.393 . S
C779 C778 1.391 . S
H780 C788 0.950 . S
H781 C793 0.950 . S
H782 C790 0.950 . S
H783 C792 0.950 . S
H784 C794 0.950 . S
H785 C796 0.950 . S
H786 C798 0.950 . S
H787 C799 0.950 . S
C788 H780 0.950 . S
C788 C789 1.386 . S
C788 C790 1.391 . S
C789 C788 1.386 . S
C789 C793 1.393 . S
C790 H782 0.950 . S
C790 C788 1.391 . S
C790 C791 1.400 . S
C791 C790 1.400 . S
C791 C792 1.398 . S
C791 C797 1.491 . S
C792 H783 0.950 . S
C792 C791 1.398 . S
C792 C793 1.391 . S
C793 H781 0.950 . S
C793 C789 1.393 . S
C793 C792 1.391 . S
C794 H784 0.950 . S
C794 C795 1.386 . S
C794 C796 1.391 . S
C795 C794 1.386 . S
C795 C799 1.393 . S
C796 H785 0.950 . S
C796 C794 1.391 . S
C796 C797 1.400 . S
C797 C791 1.491 . S
C797 C796 1.400 . S
C797 C798 1.398 . S
C798 H786 0.950 . S
C798 C797 1.398 . S
C798 C799 1.391 . S
C799 H787 0.950 . S
C799 C795 1.393 . S
C799 C798 1.391 . S
H800 C808 0.950 . S
H801 C813 0.950 . S
H802 C810 0.950 . S
H803 C812 0.950 . S
H804 C814 0.950 . S
H805 C816 0.950 . S
H806 C818 0.950 . S
H807 C819 0.950 . S
C808 H800 0.950 . S
C808 C809 1.386 . S
C808 C810 1.391 . S
C809 C808 1.386 . S
C809 C813 1.393 . S
C810 H802 0.950 . S
C810 C808 1.391 . S
C810 C811 1.400 . S
C811 C810 1.400 . S
C811 C812 1.398 . S
C811 C817 1.491 . S
C812 H803 0.950 . S
C812 C811 1.398 . S
C812 C813 1.391 . S
C813 H801 0.950 . S
C813 C809 1.393 . S
C813 C812 1.391 . S
C814 H804 0.950 . S
C814 C815 1.386 . S
C814 C816 1.391 . S
C815 C814 1.386 . S
C815 C819 1.393 . S
C816 H805 0.950 . S
C816 C814 1.391 . S
C816 C817 1.400 . S
C817 C811 1.491 . S
C817 C816 1.400 . S
C817 C818 1.398 . S
C818 H806 0.950 . S
C818 C817 1.398 . S
C818 C819 1.391 . S
C819 H807 0.950 . S
C819 C815 1.393 . S
C819 C818 1.391 . S
H820 C828 0.950 . S
H821 C833 0.950 . S
H822 C830 0.950 . S
H823 C832 0.950 . S
H824 C834 0.950 . S
H825 C836 0.950 . S
H826 C838 0.950 . S
H827 C839 0.950 . S
C828 H820 0.950 . S
C828 C829 1.386 . S
C828 C830 1.391 . S
C829 C828 1.386 . S
C829 C833 1.393 . S
C830 H822 0.950 . S
C830 C828 1.391 . S
C830 C831 1.400 . S
C831 C830 1.400 . S
C831 C832 1.398 . S
C831 C837 1.491 . S
C832 H823 0.950 . S
C832 C831 1.398 . S
C832 C833 1.391 . S
C833 H821 0.950 . S
C833 C829 1.393 . S
C833 C832 1.391 . S
C834 H824 0.950 . S
C834 C835 1.386 . S
C834 C836 1.391 . S
C835 C834 1.386 . S
C835 C839 1.393 . S
C836 H825 0.950 . S
C836 C834 1.391 . S
C836 C837 1.400 . S
C837 C831 1.491 . S
C837 C836 1.400 . S
C837 C838 1.398 . S
C838 H826 0.950 . S
C838 C837 1.398 . S
C838 C839 1.391 . S
C839 H827 0.950 . S
C839 C835 1.393 . S
C839 C838 1.391 . S
H840 C848 0.950 . S
H841 C853 0.950 . S
H842 C850 0.950 . S
H843 C852 0.950 . S
H844 C854 0.950 . S
H845 C856 0.950 . S
H846 C858 0.950 . S
H847 C859 0.950 . S
C848 H840 0.950 . S
C848 C849 1.386 . S
C848 C850 1.391 . S
C849 C848 1.386 . S
C849 C853 1.393 . S
C850 H842 0.950 . S
C850 C848 1.391 . S
C850 C851 1.400 . S
C851 C850 1.400 . S
C851 C852 1.398 . S
C851 C857 1.491 . S
C852 H843 0.950 . S
C852 C851 1.398 . S
C852 C853 1.391 . S
C853 H841 0.950 . S
C853 C849 1.393 . S
C853 C852 1.391 . S
C854 H844 0.950 . S
C854 C855 1.386 . S
C854 C856 1.391 . S
C855 C854 1.386 . S
C855 C859 1.393 . S
C856 H845 0.950 . S
C856 C854 1.391 . S
C856 C857 1.400 . S
C857 C851 1.491 . S
C857 C856 1.400 . S
C857 C858 1.398 . S
C858 H846 0.950 . S
C858 C857 1.398 . S
C858 C859 1.391 . S
C859 H847 0.950 . S
C859 C855 1.393 . S
C859 C858 1.391 . S
H860 C868 0.950 . S
H861 C873 0.950 . S
H862 C870 0.950 . S
H863 C872 0.950 . S
H864 C874 0.950 . S
H865 C876 0.950 . S
H866 C878 0.950 . S
H867 C879 0.950 . S
C868 H860 0.950 . S
C868 C869 1.386 . S
C868 C870 1.391 . S
C869 C868 1.386 . S
C869 C873 1.393 . S
C870 H862 0.950 . S
C870 C868 1.391 . S
C870 C871 1.400 . S
C871 C870 1.400 . S
C871 C872 1.398 . S
C871 C877 1.491 . S
C872 H863 0.950 . S
C872 C871 1.398 . S
C872 C873 1.391 . S
C873 H861 0.950 . S
C873 C869 1.393 . S
C873 C872 1.391 . S
C874 H864 0.950 . S
C874 C875 1.386 . S
C874 C876 1.391 . S
C875 C874 1.386 . S
C875 C879 1.393 . S
C876 H865 0.950 . S
C876 C874 1.391 . S
C876 C877 1.400 . S
C877 C871 1.491 . S
C877 C876 1.400 . S
C877 C878 1.398 . S
C878 H866 0.950 . S
C878 C877 1.398 . S
C878 C879 1.391 . S
C879 H867 0.950 . S
C879 C875 1.393 . S
C879 C878 1.391 . S
H880 C888 0.950 . S
H881 C893 0.950 . S
H882 C890 0.950 . S
H883 C892 0.950 . S
H884 C894 0.950 . S
H885 C896 0.950 . S
H886 C898 0.950 . S
H887 C899 0.950 . S
C888 H880 0.950 . S
C888 C889 1.386 . S
C888 C890 1.391 . S
C889 C888 1.386 . S
C889 C893 1.393 . S
C890 H882 0.950 . S
C890 C888 1.391 . S
C890 C891 1.400 . S
C891 C890 1.400 . S
C891 C892 1.398 . S
C891 C897 1.491 . S
C892 H883 0.950 . S
C892 C891 1.398 . S
C892 C893 1.391 . S
C893 H881 0.950 . S
C893 C889 1.393 . S
C893 C892 1.391 . S
C894 H884 0.950 . S
C894 C895 1.386 . S
C894 C896 1.391 . S
C895 C894 1.386 . S
C895 C899 1.393 . S
C896 H885 0.950 . S
C896 C894 1.391 . S
C896 C897 1.400 . S
C897 C891 1.491 . S
C897 C896 1.400 . S
C897 C898 1.398 . S
C898 H886 0.950 . S
C898 C897 1.398 . S
C898 C899 1.391 . S
C899 H887 0.950 . S
C899 C895 1.393 . S
C899 C898 1.391 . S
H900 C908 0.950 . S
H901 C913 0.950 . S
H902 C910 0.950 . S
H903 C912 0.950 . S
H904 C914 0.950 . S
H905 C916 0.950 . S
H906 C918 0.950 . S
H907 C919 0.950 . S
C908 H900 0.950 . S
C908 C909 1.386 . S
C908 C910 1.391 . S
C909 C908 1.386 . S
C909 C913 1.393 . S
C910 H902 0.950 . S
C910 C908 1.391 . S
C910 C911 1.400 . S
C911 C910 1.400 . S
C911 C912 1.398 . S
C911 C917 1.491 . S
C912 H903 0.950 . S
C912 C911 1.398 . S
C912 C913 1.391 . S
C913 H901 0.950 . S
C913 C909 1.393 . S
C913 C912 1.391 . S
C914 H904 0.950 . S
C914 C915 1.386 . S
C914 C916 1.391 . S
C915 C914 1.386 . S
C915 C919 1.393 . S
C916 H905 0.950 . S
C916 C914 1.391 . S
C916 C917 1.400 . S
C917 C911 1.491 . S
C917 C916 1.400 . S
C917 C918 1.398 . S
C918 H906 0.950 . S
C918 C917 1.398 . S
C918 C919 1.391 . S
C919 H907 0.950 . S
C919 C915 1.393 . S
C919 C918 1.391 . S
H920 C928 0.950 . S
H921 C933 0.950 . S
H922 C930 0.950 . S
H923 C932 0.950 . S
H924 C934 0.950 . S
H925 C936 0.950 . S
H926 C938 0.950 . S
H927 C939 0.950 . S
C928 H920 0.950 . S
C928 C929 1.386 . S
C928 C930 1.391 . S
C929 C928 1.386 . S
C929 C933 1.393 . S
C930 H922 0.950 . S
C930 C928 1.391 . S
C930 C931 1.400 . S
C931 C930 1.400 . S
C931 C932 1.398 . S
C931 C937 1.491 . S
C932 H923 0.950 . S
C932 C931 1.398 . S
C932 C933 1.391 . S
C933 H921 0.950 . S
C933 C929 1.393 . S
C933 C932 1.391 . S
C934 H924 0.950 . S
C934 C935 1.386 . S
C934 C936 1.391 . S
C935 C934 1.386 . S
C935 C939 1.393 . S
C936 H925 0.950 . S
C936 C934 1.391 . S
C936 C937 1.400 . S
C937 C931 1.491 . S
C937 C936 1.400 . S
C937 C938 1.398 . S
C938 H926 0.950 . S
C938 C937 1.398 . S
C938 C939 1.391 . S
C939 H927 0.950 . S
C939 C935 1.393 . S
C939 C938 1.391 . S
H940 C948 0.950 . S
H941 C953 0.950 . S
H942 C950 0.950 . S
H943 C952 0.950 . S
H944 C954 0.950 . S
H945 C956 0.950 . S
H946 C958 0.950 . S
H947 C959 0.950 . S
C948 H940 0.950 . S
C948 C949 1.386 . S
C948 C950 1.391 . S
C949 C948 1.386 . S
C949 C953 1.393 . S
C950 H942 0.950 . S
C950 C948 1.391 . S
C950 C951 1.400 . S
C951 C950 1.400 . S
C951 C952 1.398 . S
C951 C957 1.491 . S
C952 H943 0.950 . S
C952 C951 1.398 . S
C952 C953 1.391 . S
C953 H941 0.950 . S
C953 C949 1.393 . S
C953 C952 1.391 . S
C954 H944 0.950 . S
C954 C955 1.386 . S
C954 C956 1.391 . S
C955 C954 1.386 . S
C955 C959 1.393 . S
C956 H945 0.950 . S
C956 C954 1.391 . S
C956 C957 1.400 . S
C957 C951 1.491 . S
C957 C956 1.400 . S
C957 C958 1.398 . S
C958 H946 0.950 . S
C958 C957 1.398 . S
C958 C959 1.391 . S
C959 H947 0.950 . S
C959 C955 1.393 . S
C959 C958 1.391 . S
C249 C59 1.378 . S
C255 C6 1.342 . S
C269 C68 1.367 . S
C275 C36 1.362 . S
C289 C46 1.364 . S
C295 C99 1.357 . S
C309 C76 1.352 . S
C315 C108 1.366 . S
C329 C19 1.373 . S
C335 C86 1.356 . S
C349 C28 1.371 . S
C355 C116 1.357 . S
C369 C208 1.379 . S
C375 C136 1.344 . S
C389 C146 1.361 . S
C395 C239 1.359 . S
C409 C176 1.351 . S
C415 C128 1.376 . S
C429 C186 1.342 . S
C435 C159 1.378 . S
C449 C216 1.343 . S
C455 C168 1.379 . S
C469 C199 1.358 . S
C475 C226 1.369 . S
C489 C61 1.767 . S
C495 C9 1.748 . S
C509 C21 1.766 . S
C515 C89 1.749 . S
C529 C49 1.750 . S
C535 C101 1.765 . S
C549 C121 1.762 . S
C555 C189 1.753 . S
C569 C149 1.765 . S
C575 C201 1.750 . S
C589 C161 1.753 . S
C595 C229 1.762 . S
C609 C141 1.943 . S
C615 C1 1.935 . S
C629 C29 1.941 . S
C635 C169 1.943 . S
C649 C181 1.940 . S
C655 C41 1.932 . S
C669 C69 1.940 . S
C675 C209 1.932 . S
C689 C81 1.932 . S
C695 C221 1.932 . S
C709 C129 1.930 . S
C715 C109 1.936 . S
C729 C48 1.505 . S
C735 C16 1.564 . S
C749 C26 1.570 . S
C755 C79 1.487 . S
C769 C56 1.572 . S
C775 C88 1.483 . S
C789 C66 1.562 . S
C795 C119 1.504 . S
C809 C8 1.485 . S
C815 C96 1.571 . S
C829 C39 1.501 . S
C835 C106 1.563 . S
C849 C219 1.513 . S
C855 C126 1.559 . S
C869 C156 1.563 . S
C875 C228 1.507 . S
C889 C166 1.571 . S
C895 C139 1.485 . S
C909 C148 1.511 . S
C915 C196 1.560 . S
C929 C206 1.573 . S
C935 C179 1.482 . S
C949 C236 1.567 . S
C955 C188 1.492 . S
