# Generated by pormake.
# Topology gis, (4)-cn, num edge types: 1
# Building blocks:
#     Node 0, Type 0, BuildingBlock: AZAVOO_clean_sbu_0, # of connection points: 4
#     Node 1, Type 0, BuildingBlock: AZAVOO_clean_sbu_0, # of connection points: 4
#     Node 2, Type 0, BuildingBlock: AZAVOO_clean_sbu_0, # of connection points: 4
#     Node 3, Type 0, BuildingBlock: AZAVOO_clean_sbu_0, # of connection points: 4
#     Node 4, Type 0, BuildingBlock: AZAVOO_clean_sbu_0, # of connection points: 4
#     Node 5, Type 0, BuildingBlock: AZAVOO_clean_sbu_0, # of connection points: 4
#     Node 6, Type 0, BuildingBlock: AZAVOO_clean_sbu_0, # of connection points: 4
#     Node 7, Type 0, BuildingBlock: AZAVOO_clean_sbu_0, # of connection points: 4
#     Node 8, Type 0, BuildingBlock: AZAVOO_clean_sbu_0, # of connection points: 4
#     Node 9, Type 0, BuildingBlock: AZAVOO_clean_sbu_0, # of connection points: 4
#     Node 10, Type 0, BuildingBlock: AZAVOO_clean_sbu_0, # of connection points: 4
#     Node 11, Type 0, BuildingBlock: AZAVOO_clean_sbu_0, # of connection points: 4
#     Node 12, Type 0, BuildingBlock: AZAVOO_clean_sbu_0, # of connection points: 4
#     Node 13, Type 0, BuildingBlock: AZAVOO_clean_sbu_0, # of connection points: 4
#     Node 14, Type 0, BuildingBlock: AZAVOO_clean_sbu_0, # of connection points: 4
#     Node 15, Type 0, BuildingBlock: AZAVOO_clean_sbu_0, # of connection points: 4
#     Edge 16, Type (0, 0), BuildingBlock: KIFKEQ_clean_linker_1, # of connection points: 2
#     Edge 17, Type (0, 0), BuildingBlock: KIFKEQ_clean_linker_1, # of connection points: 2
#     Edge 18, Type (0, 0), BuildingBlock: KIFKEQ_clean_linker_1, # of connection points: 2
#     Edge 19, Type (0, 0), BuildingBlock: KIFKEQ_clean_linker_1, # of connection points: 2
#     Edge 20, Type (0, 0), BuildingBlock: KIFKEQ_clean_linker_1, # of connection points: 2
#     Edge 21, Type (0, 0), BuildingBlock: KIFKEQ_clean_linker_1, # of connection points: 2
#     Edge 22, Type (0, 0), BuildingBlock: KIFKEQ_clean_linker_1, # of connection points: 2
#     Edge 23, Type (0, 0), BuildingBlock: KIFKEQ_clean_linker_1, # of connection points: 2
#     Edge 24, Type (0, 0), BuildingBlock: KIFKEQ_clean_linker_1, # of connection points: 2
#     Edge 25, Type (0, 0), BuildingBlock: KIFKEQ_clean_linker_1, # of connection points: 2
#     Edge 26, Type (0, 0), BuildingBlock: KIFKEQ_clean_linker_1, # of connection points: 2
#     Edge 27, Type (0, 0), BuildingBlock: KIFKEQ_clean_linker_1, # of connection points: 2
#     Edge 28, Type (0, 0), BuildingBlock: KIFKEQ_clean_linker_1, # of connection points: 2
#     Edge 29, Type (0, 0), BuildingBlock: KIFKEQ_clean_linker_1, # of connection points: 2
#     Edge 30, Type (0, 0), BuildingBlock: KIFKEQ_clean_linker_1, # of connection points: 2
#     Edge 31, Type (0, 0), BuildingBlock: KIFKEQ_clean_linker_1, # of connection points: 2
#     Edge 32, Type (0, 0), BuildingBlock: KIFKEQ_clean_linker_1, # of connection points: 2
#     Edge 33, Type (0, 0), BuildingBlock: KIFKEQ_clean_linker_1, # of connection points: 2
#     Edge 34, Type (0, 0), BuildingBlock: KIFKEQ_clean_linker_1, # of connection points: 2
#     Edge 35, Type (0, 0), BuildingBlock: KIFKEQ_clean_linker_1, # of connection points: 2
#     Edge 36, Type (0, 0), BuildingBlock: KIFKEQ_clean_linker_1, # of connection points: 2
#     Edge 37, Type (0, 0), BuildingBlock: KIFKEQ_clean_linker_1, # of connection points: 2
#     Edge 38, Type (0, 0), BuildingBlock: KIFKEQ_clean_linker_1, # of connection points: 2
#     Edge 39, Type (0, 0), BuildingBlock: KIFKEQ_clean_linker_1, # of connection points: 2
#     Edge 40, Type (0, 0), BuildingBlock: KIFKEQ_clean_linker_1, # of connection points: 2
#     Edge 41, Type (0, 0), BuildingBlock: KIFKEQ_clean_linker_1, # of connection points: 2
#     Edge 42, Type (0, 0), BuildingBlock: KIFKEQ_clean_linker_1, # of connection points: 2
#     Edge 43, Type (0, 0), BuildingBlock: KIFKEQ_clean_linker_1, # of connection points: 2
#     Edge 44, Type (0, 0), BuildingBlock: KIFKEQ_clean_linker_1, # of connection points: 2
#     Edge 45, Type (0, 0), BuildingBlock: KIFKEQ_clean_linker_1, # of connection points: 2
#     Edge 46, Type (0, 0), BuildingBlock: KIFKEQ_clean_linker_1, # of connection points: 2
#     Edge 47, Type (0, 0), BuildingBlock: KIFKEQ_clean_linker_1, # of connection points: 2
# Relax obj value: 0.172
# Max RMSD: 0.156
# Mean RMSD: 0.154
data_MOF--net-gis--node1-AZAVOO_clean_sbu_0--edge1-KIFKEQ_clean_linker_1
_symmetry_space_group_name_H-M    P1
_symmetry_Int_Tables_number       1
_symmetry_cell_setting            triclinic
loop_
_symmetry_equiv_pos_as_xyz
'x, y, z'
_cell_length_a     46.680556
_cell_length_b     44.618044
_cell_length_c     51.41011
_cell_angle_alpha  90.316347
_cell_angle_beta   90.404196
_cell_angle_gamma 90.034269
loop_
_atom_site_label
_atom_site_type_symbol
_atom_site_fract_x
_atom_site_fract_y
_atom_site_fract_z
_atom_type_partial_charge
Mg0 Mg 0.19581 0.63873 0.11181 0.0
O1 O 0.14702 0.63468 0.11569 0.0
O2 O 0.13224 0.66616 0.14675 0.0
Mg3 Mg 0.17173 0.68792 0.16482 0.0
C4 C 0.12711 0.64662 0.12911 0.0
C5 C 0.18059 0.59955 0.064 0.0
O6 O 0.16539 0.62378 0.05952 0.0
O7 O 0.20132 0.60972 0.14801 0.0
O8 O 0.1858 0.64157 0.17862 0.0
O9 O 0.18977 0.67805 0.08549 0.0
O10 O 0.19463 0.68133 0.12818 0.0
C11 C 0.19553 0.61603 0.17169 0.0
C12 C 0.18932 0.6943 0.10642 0.0
O13 O 0.19564 0.59819 0.08468 0.0
Mg14 Mg 0.6849 0.8928 0.387 0.0
O15 O 0.63695 0.89008 0.37584 0.0
O16 O 0.63228 0.85615 0.34388 0.0
Mg17 Mg 0.67664 0.84034 0.33228 0.0
C18 C 0.62149 0.87493 0.35985 0.0
C19 C 0.6885 0.93058 0.43602 0.0
O20 O 0.70245 0.90588 0.44174 0.0
O21 O 0.69309 0.92259 0.35185 0.0
O22 O 0.68658 0.88853 0.32022 0.0
O23 O 0.67922 0.85336 0.41296 0.0
O24 O 0.69179 0.85019 0.37166 0.0
C25 C 0.69177 0.91532 0.32782 0.0
C26 C 0.68473 0.83692 0.39279 0.0
O27 O 0.67721 0.93297 0.41355 0.0
Mg28 Mg 0.28376 0.38647 0.61844 0.0
O29 O 0.33186 0.39663 0.62553 0.0
O30 O 0.34559 0.36869 0.65947 0.0
Mg31 Mg 0.3081 0.34067 0.67319 0.0
C32 C 0.35084 0.38803 0.64194 0.0
C33 C 0.26566 0.42237 0.57067 0.0
O34 O 0.25439 0.39587 0.566 0.0
O35 O 0.27255 0.41492 0.65382 0.0
O36 O 0.28756 0.38502 0.6859 0.0
O37 O 0.2951 0.34887 0.59188 0.0
O38 O 0.28903 0.34384 0.63418 0.0
C39 C 0.27634 0.40945 0.67792 0.0
C40 C 0.29623 0.33201 0.61227 0.0
O41 O 0.27957 0.42654 0.59172 0.0
Mg42 Mg 0.84815 0.0557 0.86594 0.0
O43 O 0.84457 0.10693 0.87208 0.0
O44 O 0.87422 0.11791 0.90525 0.0
Mg45 Mg 0.89876 0.07637 0.91784 0.0
C46 C 0.85562 0.12559 0.88824 0.0
C47 C 0.81079 0.0411 0.81932 0.0
O48 O 0.83467 0.02639 0.81498 0.0
O49 O 0.82302 0.04712 0.90344 0.0
O50 O 0.85688 0.05753 0.93308 0.0
O51 O 0.88337 0.06202 0.83713 0.0
O52 O 0.89017 0.05685 0.8794 0.0
C53 C 0.8317 0.04862 0.92706 0.0
C54 C 0.90081 0.06165 0.85677 0.0
O55 O 0.80821 0.05549 0.84059 0.0
Mg56 Mg 0.18018 0.39 0.88579 0.0
O57 O 0.13183 0.38684 0.87663 0.0
O58 O 0.12559 0.35383 0.84417 0.0
Mg59 Mg 0.16942 0.33865 0.8306 0.0
C60 C 0.11563 0.37213 0.86096 0.0
C61 C 0.19399 0.43687 0.92733 0.0
O62 O 0.21813 0.42201 0.92488 0.0
O63 O 0.18581 0.4206 0.85078 0.0
O64 O 0.17824 0.38719 0.81884 0.0
O65 O 0.17719 0.34997 0.91154 0.0
O66 O 0.18662 0.34772 0.86955 0.0
C67 C 0.1834 0.41389 0.8267 0.0
C68 C 0.18149 0.33389 0.8909 0.0
O69 O 0.17281 0.42955 0.91298 0.0
Mg70 Mg 0.79054 0.88318 0.11825 0.0
O71 O 0.83887 0.89206 0.12536 0.0
O72 O 0.8531 0.86113 0.15701 0.0
Mg73 Mg 0.81443 0.83561 0.17192 0.0
C74 C 0.85838 0.88138 0.14027 0.0
C75 C 0.77406 0.91837 0.07011 0.0
O76 O 0.76394 0.89139 0.06534 0.0
O77 O 0.7803 0.91141 0.15392 0.0
O78 O 0.79592 0.88086 0.18531 0.0
O79 O 0.80135 0.84558 0.09145 0.0
O80 O 0.79429 0.84026 0.13364 0.0
C81 C 0.78489 0.90563 0.17787 0.0
C82 C 0.80152 0.82853 0.11173 0.0
O83 O 0.78697 0.92334 0.09156 0.0
Mg84 Mg 0.34214 0.54726 0.36288 0.0
O85 O 0.34742 0.59818 0.36949 0.0
O86 O 0.38258 0.60399 0.39877 0.0
Mg87 Mg 0.39901 0.55807 0.41127 0.0
C88 C 0.36365 0.6149 0.38348 0.0
C89 C 0.29503 0.53428 0.32372 0.0
O90 O 0.31083 0.50992 0.32311 0.0
O91 O 0.31851 0.54287 0.40154 0.0
O92 O 0.35537 0.54815 0.42924 0.0
O93 O 0.37671 0.5483 0.3327 0.0
O94 O 0.38372 0.53915 0.37448 0.0
C95 C 0.32878 0.54354 0.42468 0.0
C96 C 0.39422 0.54287 0.35172 0.0
O97 O 0.3015 0.55495 0.33982 0.0
Mg98 Mg 0.69312 0.14424 0.61069 0.0
O99 O 0.64584 0.13745 0.62 0.0
O100 O 0.63225 0.17077 0.65005 0.0
Mg101 Mg 0.67216 0.19751 0.66179 0.0
C102 C 0.62671 0.14908 0.63451 0.0
C103 C 0.69771 0.10396 0.56254 0.0
O104 O 0.70471 0.13051 0.55367 0.0
O105 O 0.70508 0.11973 0.64827 0.0
O106 O 0.69213 0.1544 0.67749 0.0
O107 O 0.68035 0.17984 0.5824 0.0
O108 O 0.69107 0.18836 0.62374 0.0
C109 C 0.70265 0.12877 0.67181 0.0
C110 C 0.68184 0.19832 0.60184 0.0
O111 O 0.69215 0.10123 0.58659 0.0
Mg112 Mg 0.84901 0.41659 0.8592 0.0
O113 O 0.84626 0.3661 0.86936 0.0
O114 O 0.87539 0.35981 0.90358 0.0
Mg115 Mg 0.89521 0.40397 0.9161 0.0
C116 C 0.85805 0.34937 0.8865 0.0
C117 C 0.81263 0.42802 0.81091 0.0
O118 O 0.83625 0.44323 0.80668 0.0
O119 O 0.82031 0.42917 0.89347 0.0
O120 O 0.8507 0.4213 0.92663 0.0
O121 O 0.88751 0.40752 0.83451 0.0
O122 O 0.88954 0.41957 0.87615 0.0
C123 C 0.8262 0.42899 0.91776 0.0
C124 C 0.90275 0.41166 0.85537 0.0
O125 O 0.81071 0.4129 0.83172 0.0
Mg126 Mg 0.3743 0.05082 0.62153 0.0
O127 O 0.36496 0.10078 0.61437 0.0
O128 O 0.39228 0.11602 0.58145 0.0
Mg129 Mg 0.41712 0.07581 0.56627 0.0
C130 C 0.37379 0.12123 0.59907 0.0
C131 C 0.3359 0.0668 0.6682 0.0
O132 O 0.35489 0.08852 0.66925 0.0
O133 O 0.34641 0.03828 0.58642 0.0
O134 O 0.37449 0.05371 0.55409 0.0
O135 O 0.4107 0.06315 0.64746 0.0
O136 O 0.41483 0.05581 0.60512 0.0
C137 C 0.35136 0.0417 0.56221 0.0
C138 C 0.4264 0.06404 0.62685 0.0
O139 O 0.33704 0.04784 0.64967 0.0
Mg140 Mg 0.66227 0.54593 0.36624 0.0
O141 O 0.6608 0.59701 0.37351 0.0
O142 O 0.62927 0.60499 0.40548 0.0
Mg143 Mg 0.6103 0.56073 0.41796 0.0
C144 C 0.64749 0.61449 0.3891 0.0
C145 C 0.70002 0.53382 0.32059 0.0
O146 O 0.67756 0.51636 0.31749 0.0
O147 O 0.68919 0.53999 0.4035 0.0
O148 O 0.65492 0.54917 0.43272 0.0
O149 O 0.62591 0.54914 0.3377 0.0
O150 O 0.62063 0.54184 0.37979 0.0
C151 C 0.68078 0.54287 0.42697 0.0
C152 C 0.60902 0.54609 0.35734 0.0
O153 O 0.70152 0.55036 0.34076 0.0
Mg154 Mg 0.11389 0.96995 0.14398 0.0
O155 O 0.11687 0.92079 0.13186 0.0
O156 O 0.08789 0.9103 0.09825 0.0
Mg157 Mg 0.06924 0.95532 0.08614 0.0
C158 C 0.10628 0.90235 0.11534 0.0
C159 C 0.16467 0.98224 0.18422 0.0
O160 O 0.15892 0.0104 0.17897 0.0
O161 O 0.14444 0.98062 0.11065 0.0
O162 O 0.11552 0.96906 0.07716 0.0
O163 O 0.07532 0.96004 0.16766 0.0
O164 O 0.07324 0.97245 0.12619 0.0
C165 C 0.13985 0.97726 0.08628 0.0
C166 C 0.06017 0.9634 0.1467 0.0
O167 O 0.15074 0.96169 0.17251 0.0
Mg168 Mg 0.87586 0.54616 0.12504 0.0
O169 O 0.86478 0.59552 0.11688 0.0
O170 O 0.887 0.60889 0.08028 0.0
Mg171 Mg 0.91216 0.56885 0.06532 0.0
C172 C 0.87077 0.61484 0.09948 0.0
C173 C 0.84805 0.54022 0.17887 0.0
O174 O 0.87535 0.53687 0.18452 0.0
O175 O 0.84541 0.53071 0.09286 0.0
O176 O 0.86916 0.54518 0.05737 0.0
O177 O 0.91382 0.56109 0.14748 0.0
O178 O 0.91456 0.55134 0.10527 0.0
C179 C 0.84753 0.53315 0.06825 0.0
C180 C 0.92764 0.5613 0.12575 0.0
O181 O 0.84062 0.54418 0.1553 0.0
Mg182 Mg 0.16671 0.04241 0.86644 0.0
O183 O 0.16329 0.0932 0.87433 0.0
O184 O 0.12816 0.10071 0.90302 0.0
Mg185 Mg 0.11181 0.05537 0.91606 0.0
C186 C 0.14764 0.11062 0.88804 0.0
C187 C 0.20345 0.03484 0.81998 0.0
O188 O 0.1811 0.01725 0.81683 0.0
O189 O 0.19248 0.03726 0.9045 0.0
O190 O 0.15665 0.04661 0.93214 0.0
O191 O 0.13099 0.04571 0.8372 0.0
O192 O 0.12482 0.03626 0.87887 0.0
C193 C 0.18293 0.04088 0.92756 0.0
C194 C 0.11375 0.04157 0.85641 0.0
O195 O 0.20602 0.04938 0.84122 0.0
Mg196 Mg 0.6074 0.47056 0.64063 0.0
O197 O 0.60756 0.42127 0.62809 0.0
O198 O 0.57793 0.41427 0.59416 0.0
Mg199 Mg 0.56002 0.46024 0.584 0.0
C200 C 0.59572 0.40437 0.611 0.0
C201 C 0.64326 0.46019 0.69128 0.0
O202 O 0.61777 0.46435 0.70133 0.0
O203 O 0.63662 0.48081 0.60644 0.0
O204 O 0.6063 0.47231 0.57333 0.0
O205 O 0.56986 0.46116 0.66554 0.0
O206 O 0.56632 0.47517 0.62446 0.0
C207 C 0.63122 0.47886 0.58213 0.0
C208 C 0.55403 0.46551 0.64514 0.0
O209 O 0.64617 0.4617 0.66675 0.0
Mg210 Mg 0.35314 0.90919 0.36141 0.0
O211 O 0.34914 0.85789 0.36864 0.0
O212 O 0.37685 0.84902 0.40347 0.0
Mg213 Mg 0.39916 0.89132 0.41747 0.0
C214 C 0.35963 0.84008 0.38567 0.0
C215 C 0.30161 0.93425 0.33154 0.0
O216 O 0.30895 0.95631 0.34728 0.0
O217 O 0.32482 0.9202 0.39666 0.0
O218 O 0.35567 0.9102 0.42895 0.0
O219 O 0.39156 0.90153 0.33615 0.0
O220 O 0.3937 0.90966 0.37843 0.0
C221 C 0.33123 0.91913 0.42086 0.0
C222 C 0.40688 0.90374 0.35717 0.0
O223 O 0.3151 0.90955 0.33315 0.0
H224 H 0.08395 0.85325 0.09007 0.0
H225 H 0.15536 0.88214 0.138 0.0
H226 H 0.10498 0.80329 0.08691 0.0
H227 H 0.17687 0.83298 0.13391 0.0
H228 H 0.1922 0.73443 0.14618 0.0
H229 H 0.17101 0.78379 0.14839 0.0
H230 H 0.14387 0.7757 0.06804 0.0
H231 H 0.16374 0.72501 0.06639 0.0
C232 C 0.10411 0.84894 0.09991 0.0
C233 C 0.11784 0.87156 0.11448 0.0
C234 C 0.11632 0.82042 0.09787 0.0
C235 C 0.14265 0.81408 0.11014 0.0
C236 C 0.15632 0.83682 0.12463 0.0
C237 C 0.14397 0.8651 0.12695 0.0
C238 C 0.18153 0.743 0.129 0.0
C239 C 0.17922 0.72561 0.10624 0.0
C240 C 0.16966 0.77156 0.13017 0.0
C241 C 0.15563 0.78377 0.10842 0.0
C242 C 0.15409 0.76675 0.0853 0.0
C243 C 0.16576 0.73788 0.08424 0.0
H244 H 0.44393 0.91039 0.39801 0.0
H245 H 0.44095 0.88721 0.31632 0.0
H246 H 0.49537 0.90302 0.39853 0.0
H247 H 0.49294 0.88104 0.31656 0.0
H248 H 0.58142 0.8415 0.33373 0.0
H249 H 0.52979 0.84836 0.33284 0.0
H250 H 0.53855 0.92557 0.38342 0.0
H251 H 0.59025 0.91819 0.38494 0.0
C252 C 0.45422 0.90359 0.38014 0.0
C253 C 0.43824 0.899 0.35719 0.0
C254 C 0.48386 0.89976 0.38037 0.0
C255 C 0.49836 0.89153 0.35759 0.0
C256 C 0.4824 0.88701 0.33456 0.0
C257 C 0.45263 0.89069 0.33436 0.0
C258 C 0.57239 0.85997 0.34469 0.0
C259 C 0.59003 0.87927 0.35947 0.0
C260 C 0.54274 0.86401 0.34402 0.0
C261 C 0.52998 0.88754 0.35801 0.0
C262 C 0.54762 0.90693 0.37271 0.0
C263 C 0.5773 0.90278 0.37351 0.0
H264 H 0.31522 0.30239 0.56917 0.0
H265 H 0.30122 0.29102 0.65152 0.0
H266 H 0.33309 0.25127 0.56626 0.0
H267 H 0.32021 0.24031 0.64884 0.0
H268 H 0.32896 0.14048 0.62907 0.0
H269 H 0.30954 0.19109 0.63221 0.0
H270 H 0.37389 0.22237 0.57875 0.0
H271 H 0.39269 0.17183 0.57498 0.0
C272 C 0.31615 0.28907 0.58671 0.0
C273 C 0.30706 0.30091 0.61063 0.0
C274 C 0.32658 0.2598 0.58508 0.0
C275 C 0.3283 0.24171 0.60736 0.0
C276 C 0.31895 0.2535 0.63125 0.0
C277 C 0.30834 0.28273 0.63284 0.0
C278 C 0.33895 0.15817 0.61799 0.0
C279 C 0.36228 0.15203 0.60167 0.0
C280 C 0.32791 0.18723 0.6199 0.0
C281 C 0.34007 0.21081 0.60564 0.0
C282 C 0.36363 0.20467 0.5896 0.0
C283 C 0.37453 0.17566 0.58757 0.0
H284 H 0.08387 0.06596 0.81542 0.0
H285 H 0.07308 0.02604 0.89113 0.0
H286 H 0.03209 0.07529 0.81298 0.0
H287 H 0.02199 0.03528 0.88869 0.0
H288 H 0.93955 0.08275 0.8923 0.0
H289 H 0.99133 0.08051 0.88971 0.0
H290 H 0.98483 0.04663 0.81104 0.0
H291 H 0.93246 0.04915 0.8136 0.0
C292 C 0.07047 0.0591 0.83143 0.0
C293 C 0.08255 0.04573 0.85366 0.0
C294 C 0.04093 0.06443 0.83003 0.0
C295 C 0.02317 0.05655 0.85087 0.0
C296 C 0.03526 0.04237 0.87264 0.0
C297 C 0.06456 0.037 0.87401 0.0
C298 C 0.94901 0.07497 0.87441 0.0
C299 C 0.93194 0.06536 0.85343 0.0
C300 C 0.97873 0.07375 0.87289 0.0
C301 C 0.99204 0.06269 0.8504 0.0
C302 C 0.97508 0.05517 0.82864 0.0
C303 C 0.94518 0.05658 0.83013 0.0
H304 H 0.16254 0.29862 0.93062 0.0
H305 H 0.1933 0.29462 0.8516 0.0
H306 H 0.15544 0.24443 0.92998 0.0
H307 H 0.18511 0.24088 0.85057 0.0
H308 H 0.19269 0.1406 0.86621 0.0
H309 H 0.2023 0.19429 0.86782 0.0
H310 H 0.12367 0.20832 0.91006 0.0
H311 H 0.11445 0.15474 0.90909 0.0
C312 C 0.1677 0.28621 0.91311 0.0
C313 C 0.17812 0.30097 0.89106 0.0
C314 C 0.16343 0.2552 0.91265 0.0
C315 C 0.16948 0.23834 0.89013 0.0
C316 C 0.18044 0.2531 0.86829 0.0
C317 C 0.18482 0.28403 0.86879 0.0
C318 C 0.1774 0.15516 0.87574 0.0
C319 C 0.15283 0.14333 0.88757 0.0
C320 C 0.18288 0.18595 0.87662 0.0
C321 C 0.16383 0.20559 0.88921 0.0
C322 C 0.13908 0.19378 0.90067 0.0
C323 C 0.13368 0.16303 0.89992 0.0
H324 H 0.90669 0.85738 0.16172 0.0
H325 H 0.87711 0.93278 0.11648 0.0
H326 H 0.95469 0.87822 0.16261 0.0
H327 H 0.9253 0.9542 0.11802 0.0
H328 H 0.02232 0.96791 0.10583 0.0
H329 H 0.97375 0.94806 0.10303 0.0
H330 H 0.98019 0.91852 0.18277 0.0
H331 H 0.02911 0.93717 0.18517 0.0
C332 C 0.91039 0.87849 0.15199 0.0
C333 C 0.88795 0.89348 0.13914 0.0
C334 C 0.93795 0.89057 0.15268 0.0
C335 C 0.94385 0.91813 0.14073 0.0
C336 C 0.92158 0.93284 0.12731 0.0
C337 C 0.89393 0.9206 0.12647 0.0
C338 C 0.01346 0.957 0.1227 0.0
C339 C 0.02984 0.95363 0.14557 0.0
C340 C 0.98545 0.94589 0.12118 0.0
C341 C 0.97311 0.93135 0.14256 0.0
C342 C 0.98921 0.92894 0.1657 0.0
C343 C 0.01722 0.93988 0.16717 0.0
H344 H 0.39554 0.65685 0.40933 0.0
H345 H 0.32474 0.64818 0.35512 0.0
H346 H 0.39037 0.71081 0.40879 0.0
H347 H 0.31929 0.70284 0.35497 0.0
H348 H 0.3462 0.80503 0.343 0.0
H349 H 0.34438 0.75002 0.34148 0.0
H350 H 0.35637 0.74738 0.42483 0.0
H351 H 0.35886 0.8017 0.42623 0.0
C352 C 0.37875 0.6664 0.39734 0.0
C353 C 0.36045 0.64801 0.3824 0.0
C354 C 0.37566 0.69746 0.39717 0.0
C355 C 0.35412 0.71115 0.38215 0.0
C356 C 0.3361 0.69295 0.36674 0.0
C357 C 0.33918 0.66165 0.36691 0.0
C358 C 0.34789 0.79261 0.36099 0.0
C359 C 0.35316 0.80761 0.38467 0.0
C360 C 0.34686 0.76115 0.36013 0.0
C361 C 0.35091 0.74433 0.38297 0.0
C362 C 0.35402 0.7596 0.40679 0.0
C363 C 0.3553 0.79078 0.4076 0.0
H364 H 0.57862 0.17086 0.6583 0.0
H365 H 0.60809 0.09935 0.60808 0.0
H366 H 0.53023 0.15047 0.65617 0.0
H367 H 0.55994 0.0786 0.60656 0.0
H368 H 0.46517 0.06763 0.58733 0.0
H369 H 0.51313 0.08896 0.58902 0.0
H370 H 0.50274 0.10808 0.67092 0.0
H371 H 0.45433 0.08777 0.66899 0.0
C372 C 0.57484 0.15071 0.64691 0.0
C373 C 0.59727 0.13677 0.63334 0.0
C374 C 0.54711 0.13894 0.64581 0.0
C375 C 0.54121 0.11289 0.63121 0.0
C376 C 0.56365 0.09895 0.61767 0.0
C377 C 0.59132 0.11078 0.61866 0.0
C378 C 0.47299 0.07661 0.60565 0.0
C379 C 0.45582 0.07626 0.62796 0.0
C380 C 0.50063 0.08857 0.60668 0.0
C381 C 0.51178 0.10027 0.6301 0.0
C382 C 0.49465 0.09969 0.65247 0.0
C383 C 0.46697 0.08783 0.65141 0.0
H384 H 0.84574 0.16035 0.8453 0.0
H385 H 0.84744 0.16263 0.92921 0.0
H386 H 0.84145 0.21513 0.84454 0.0
H387 H 0.84167 0.21676 0.92863 0.0
H388 H 0.88148 0.30808 0.91894 0.0
H389 H 0.87522 0.25451 0.91855 0.0
H390 H 0.81563 0.26165 0.85416 0.0
H391 H 0.82263 0.31616 0.85401 0.0
C392 C 0.84435 0.17253 0.86353 0.0
C393 C 0.84746 0.15748 0.88731 0.0
C394 C 0.8418 0.20385 0.86313 0.0
C395 C 0.8419 0.22043 0.88653 0.0
C396 C 0.84247 0.20484 0.91024 0.0
C397 C 0.8456 0.17381 0.91061 0.0
C398 C 0.86684 0.29849 0.90472 0.0
C399 C 0.85254 0.3166 0.88651 0.0
C400 C 0.86304 0.26758 0.90466 0.0
C401 C 0.84459 0.25368 0.88656 0.0
C402 C 0.83006 0.27166 0.86834 0.0
C403 C 0.83397 0.30287 0.86832 0.0
H404 H 0.66255 0.6499 0.34812 0.0
H405 H 0.64764 0.65157 0.43087 0.0
H406 H 0.67136 0.70385 0.34895 0.0
H407 H 0.65825 0.70477 0.43224 0.0
H408 H 0.64909 0.80482 0.4238 0.0
H409 H 0.63993 0.75115 0.42211 0.0
H410 H 0.70277 0.7417 0.36109 0.0
H411 H 0.71032 0.79566 0.36177 0.0
C412 C 0.66155 0.66182 0.36651 0.0
C413 C 0.65416 0.64674 0.38936 0.0
C414 C 0.66677 0.69269 0.3671 0.0
C415 C 0.66539 0.70892 0.39068 0.0
C416 C 0.65874 0.6934 0.41359 0.0
C417 C 0.65285 0.6628 0.41287 0.0
C418 C 0.66095 0.79116 0.41012 0.0
C419 C 0.68039 0.80427 0.39294 0.0
C420 C 0.65586 0.76033 0.4092 0.0
C421 C 0.67066 0.74184 0.39148 0.0
C422 C 0.6905 0.75513 0.3746 0.0
C423 C 0.69506 0.78604 0.37514 0.0
H424 H 0.8573 0.65255 0.05998 0.0
H425 H 0.85773 0.64596 0.1437 0.0
H426 H 0.83929 0.7035 0.06301 0.0
H427 H 0.84146 0.69773 0.14703 0.0
H428 H 0.78886 0.78308 0.14477 0.0
H429 H 0.80383 0.73094 0.14173 0.0
H430 H 0.85291 0.75186 0.07304 0.0
H431 H 0.83627 0.80344 0.0753 0.0
C432 C 0.85374 0.66219 0.07907 0.0
C433 C 0.85893 0.64538 0.10161 0.0
C434 C 0.84364 0.69154 0.08087 0.0
C435 C 0.83916 0.7051 0.10529 0.0
C436 C 0.84418 0.68804 0.12786 0.0
C437 C 0.85366 0.65839 0.12601 0.0
C438 C 0.8028 0.7764 0.12901 0.0
C439 C 0.81132 0.79719 0.1102 0.0
C440 C 0.81158 0.74653 0.12734 0.0
C441 C 0.82961 0.73693 0.1071 0.0
C442 C 0.83847 0.75806 0.08854 0.0
C443 C 0.82914 0.78776 0.08991 0.0
H444 H 0.61554 0.36935 0.65035 0.0
H445 H 0.59692 0.36846 0.56795 0.0
H446 H 0.63494 0.31891 0.64707 0.0
H447 H 0.61784 0.31864 0.56424 0.0
H448 H 0.63802 0.21828 0.57091 0.0
H449 H 0.61452 0.26717 0.57322 0.0
H450 H 0.67606 0.29562 0.63169 0.0
H451 H 0.69819 0.24643 0.63031 0.0
C452 C 0.61563 0.3583 0.63153 0.0
C453 C 0.60484 0.3728 0.60941 0.0
C454 C 0.62701 0.3295 0.62955 0.0
C455 C 0.62852 0.31482 0.60528 0.0
C456 C 0.61685 0.32906 0.58328 0.0
C457 C 0.60491 0.35767 0.58538 0.0
C458 C 0.64655 0.2352 0.58403 0.0
C459 C 0.66977 0.22869 0.60051 0.0
C460 C 0.63314 0.2632 0.58539 0.0
C461 C 0.64308 0.28529 0.60295 0.0
C462 C 0.66717 0.27894 0.61855 0.0
C463 C 0.68013 0.25087 0.61755 0.0
H464 H 0.0739 0.33789 0.8381 0.0
H465 H 0.08651 0.41814 0.88426 0.0
H466 H 0.02262 0.34732 0.83682 0.0
H467 H 0.03527 0.42815 0.88223 0.0
H468 H 0.93975 0.42143 0.89579 0.0
H469 H 0.9906 0.41081 0.89779 0.0
H470 H 0.98801 0.38022 0.81787 0.0
H471 H 0.93648 0.38948 0.81633 0.0
C472 C 0.06574 0.35762 0.84792 0.0
C473 C 0.08432 0.37726 0.86131 0.0
C474 C 0.03632 0.36315 0.84701 0.0
C475 C 0.02478 0.38859 0.85927 0.0
C476 C 0.04335 0.40811 0.87285 0.0
C477 C 0.07277 0.40243 0.87397 0.0
C478 C 0.94986 0.41206 0.87872 0.0
C479 C 0.93393 0.40587 0.85602 0.0
C480 C 0.9792 0.40634 0.87977 0.0
C481 C 0.99348 0.39464 0.85801 0.0
C482 C 0.97761 0.38878 0.83515 0.0
C483 C 0.94812 0.39428 0.83418 0.0
H484 H 0.56924 0.54373 0.39571 0.0
H485 H 0.57736 0.55161 0.31235 0.0
H486 H 0.51788 0.5444 0.39159 0.0
H487 H 0.52505 0.55028 0.308 0.0
H488 H 0.4273 0.57459 0.31739 0.0
H489 H 0.47993 0.57663 0.31675 0.0
H490 H 0.48309 0.50973 0.37726 0.0
H491 H 0.43126 0.50899 0.37871 0.0
C492 C 0.56014 0.5458 0.37645 0.0
C493 C 0.57755 0.5478 0.35441 0.0
C494 C 0.53049 0.5457 0.37403 0.0
C495 C 0.5173 0.54674 0.34941 0.0
C496 C 0.53457 0.5495 0.32725 0.0
C497 C 0.5645 0.55011 0.32975 0.0
C498 C 0.43946 0.56025 0.33032 0.0
C499 C 0.42543 0.54202 0.3484 0.0
C500 C 0.46949 0.56133 0.32994 0.0
C501 C 0.48569 0.54387 0.3474 0.0
C502 C 0.47134 0.52428 0.3642 0.0
C503 C 0.44162 0.52367 0.36492 0.0
H504 H 0.51161 0.48346 0.61179 0.0
H505 H 0.52843 0.42528 0.67692 0.0
H506 H 0.46176 0.46683 0.61078 0.0
H507 H 0.47945 0.40726 0.67506 0.0
H508 H 0.38506 0.39895 0.68357 0.0
H509 H 0.43293 0.41995 0.68428 0.0
H510 H 0.43048 0.42747 0.60041 0.0
H511 H 0.38145 0.40807 0.60009 0.0
C512 C 0.50463 0.46698 0.62579 0.0
C513 C 0.52378 0.45588 0.6446 0.0
C514 C 0.47612 0.45723 0.6251 0.0
C515 C 0.46631 0.43574 0.64292 0.0
C516 C 0.48579 0.42442 0.66146 0.0
C517 C 0.51404 0.43462 0.66247 0.0
C518 C 0.39474 0.40518 0.66528 0.0
C519 C 0.37967 0.40163 0.64175 0.0
C520 C 0.42235 0.41705 0.66564 0.0
C521 C 0.43602 0.425 0.64237 0.0
C522 C 0.42066 0.42192 0.61877 0.0
C523 C 0.39263 0.41063 0.61851 0.0
H524 H 0.10802 0.59866 0.10027 0.0
H525 H 0.07851 0.67137 0.14915 0.0
H526 H 0.05933 0.57896 0.09779 0.0
H527 H 0.02989 0.65212 0.14609 0.0
H528 H 0.95779 0.58746 0.1652 0.0
H529 H 0.00539 0.60925 0.16368 0.0
H530 H 0.01064 0.58765 0.08181 0.0
H531 H 0.96308 0.5649 0.0835 0.0
C532 C 0.09111 0.61069 0.11016 0.0
C533 C 0.09723 0.63637 0.1252 0.0
C534 C 0.06318 0.59947 0.10864 0.0
C535 C 0.04082 0.61378 0.12201 0.0
C536 C 0.04676 0.6402 0.13604 0.0
C537 C 0.07464 0.65131 0.13768 0.0
C538 C 0.96903 0.58734 0.14683 0.0
C539 C 0.95657 0.57459 0.12443 0.0
C540 C 0.99626 0.60008 0.14592 0.0
C541 C 0.0117 0.60046 0.12256 0.0
C542 C -0.00067 0.58757 0.10013 0.0
C543 C 0.97201 0.57474 0.10106 0.0
H544 H 0.20878 0.54591 0.06737 0.0
H545 H 0.15381 0.59756 0.01663 0.0
H546 H 0.21103 0.50628 0.03462 0.0
H547 H 0.15664 0.55831 0.98368 0.0
H548 H 0.14616 0.46901 0.94039 0.0
H549 H 0.1419 0.50744 0.9741 0.0
H550 H 0.23191 0.49778 0.99238 0.0
H551 H 0.23601 0.45895 0.95921 0.0
C552 C 0.19718 0.54882 0.04924 0.0
C553 C 0.18118 0.57494 0.04459 0.0
C554 C 0.19862 0.52619 0.03039 0.0
C555 C 0.18414 0.52918 0.00645 0.0
C556 C 0.16779 0.55511 0.002 0.0
C557 C 0.1663 0.57771 0.02086 0.0
C558 C 0.16503 0.47513 0.95159 0.0
C559 C 0.19141 0.46089 0.94714 0.0
C560 C 0.16262 0.49724 0.97085 0.0
C561 C 0.18655 0.50562 0.98602 0.0
C562 C 0.21294 0.4915 0.98138 0.0
C563 C 0.21534 0.46938 0.9622 0.0
H564 H 0.66681 0.92241 0.28074 0.0
H565 H 0.73587 0.95551 0.3291 0.0
H566 H 0.69115 0.93999 0.24233 0.0
H567 H 0.76054 0.97359 0.2904 0.0
H568 H 0.80622 0.91198 0.22677 0.0
H569 H 0.78248 0.93516 0.26336 0.0
H570 H 0.71751 0.97062 0.21171 0.0
H571 H 0.74145 0.94686 0.17478 0.0
C572 C 0.68659 0.93488 0.28318 0.0
C573 C 0.69994 0.93686 0.30765 0.0
C574 C 0.70055 0.94522 0.26113 0.0
C575 C 0.72831 0.9573 0.26322 0.0
C576 C 0.73944 0.96375 0.28817 0.0
C577 C 0.72528 0.95354 0.31035 0.0
C578 C 0.78736 0.92549 0.22309 0.0
C579 C 0.77511 0.92676 0.19812 0.0
C580 C 0.77389 0.93924 0.24408 0.0
C581 C 0.74769 0.95428 0.24056 0.0
C582 C 0.73744 0.9588 0.21506 0.0
C583 C 0.75112 0.94516 0.19393 0.0
H584 H 0.25393 0.4151 0.51907 0.0
H585 H 0.27617 0.48229 0.57654 0.0
H586 H 0.26113 0.45127 0.48467 0.0
H587 H 0.2819 0.51918 0.54215 0.0
H588 H 0.3416 0.55008 0.47605 0.0
H589 H 0.3184 0.52609 0.51213 0.0
H590 H 0.25072 0.495 0.46078 0.0
H591 H 0.27499 0.51816 0.42403 0.0
C592 C 0.25959 0.43788 0.52439 0.0
C593 C 0.26514 0.44571 0.55043 0.0
C594 C 0.26345 0.4588 0.50463 0.0
C595 C 0.27254 0.48815 0.51052 0.0
C596 C 0.27565 0.49658 0.53682 0.0
C597 C 0.27229 0.47549 0.55656 0.0
C598 C 0.32149 0.5386 0.47241 0.0
C599 C 0.31056 0.53538 0.44701 0.0
C600 C 0.30792 0.52503 0.49329 0.0
C601 C 0.28285 0.50808 0.48941 0.0
C602 C 0.27038 0.50728 0.46437 0.0
C603 C 0.28415 0.52078 0.44333 0.0
H604 H 0.72501 0.07161 0.66985 0.0
H605 H 0.70437 0.14359 0.72317 0.0
H606 H 0.74563 0.04314 0.70593 0.0
H607 H 0.72573 0.11609 0.7585 0.0
H608 H 0.75574 0.06147 0.82295 0.0
H609 H 0.72407 0.07569 0.7872 0.0
H610 H 0.78756 0.04561 0.73204 0.0
H611 H 0.81833 0.02998 0.7677 0.0
C612 C 0.72473 0.08129 0.68921 0.0
C613 C 0.71328 0.11001 0.69352 0.0
C614 C 0.73662 0.06504 0.70988 0.0
C615 C 0.73743 0.07728 0.7352 0.0
C616 C 0.72504 0.10555 0.73949 0.0
C617 C 0.71302 0.12157 0.71901 0.0
C618 C 0.76259 0.05733 0.80316 0.0
C619 C 0.78968 0.04511 0.79811 0.0
C620 C 0.74455 0.06563 0.78265 0.0
C621 C 0.7535 0.06246 0.75667 0.0
C622 C 0.77979 0.04825 0.75171 0.0
C623 C 0.79759 0.03947 0.77222 0.0
H624 H 0.79823 0.40335 0.95818 0.0
H625 H 0.8134 0.4875 0.9201 0.0
H626 H 0.78513 0.42983 0.99793 0.0
H627 H 0.80349 0.5141 0.95993 0.0
H628 H 0.83628 0.47409 0.06506 0.0
H629 H 0.81435 0.4485 0.02851 0.0
H630 H 0.78754 0.53401 0.99693 0.0
H631 H 0.81242 0.55936 0.03265 0.0
C632 C 0.79768 0.42763 0.95814 0.0
C633 C 0.80695 0.44351 0.93633 0.0
C634 C 0.79082 0.44292 0.98108 0.0
C635 C 0.79477 0.47421 0.98296 0.0
C636 C 0.80028 0.49011 0.95985 0.0
C637 C 0.80601 0.47484 0.9367 0.0
C638 C 0.82494 0.48723 0.05061 0.0
C639 C 0.82633 0.51852 0.05126 0.0
C640 C 0.81205 0.47258 0.02951 0.0
C641 C 0.79973 0.48902 0.00885 0.0
C642 C 0.79786 0.52044 0.01163 0.0
C643 C 0.81173 0.53508 0.03228 0.0
H644 H 0.19687 0.0153 0.77018 0.0
H645 H 0.25504 0.06453 0.8203 0.0
H646 H 0.22799 0.02397 0.73346 0.0
H647 H 0.28707 0.07223 0.78351 0.0
H648 H 0.32299 0.10664 0.70689 0.0
H649 H 0.29122 0.09905 0.74369 0.0
H650 H 0.27221 0.00961 0.71569 0.0
H651 H 0.30302 0.0177 0.67845 0.0
C652 C 0.21655 0.02768 0.77345 0.0
C653 C 0.22352 0.03918 0.7982 0.0
C654 C 0.23452 0.03252 0.75235 0.0
C655 C 0.26015 0.04871 0.75546 0.0
C656 C 0.26729 0.06003 0.78031 0.0
C657 C 0.24908 0.05543 0.80145 0.0
C658 C 0.31183 0.08545 0.70852 0.0
C659 C 0.31543 0.06281 0.68971 0.0
C660 C 0.29382 0.08098 0.72976 0.0
C661 C 0.2792 0.05367 0.73279 0.0
C662 C 0.28273 0.03112 0.71382 0.0
C663 C 0.30048 0.03571 0.69246 0.0
H664 H 0.69229 0.5778 0.46865 0.0
H665 H 0.70923 0.49068 0.43565 0.0
H666 H 0.69702 0.55753 0.51205 0.0
H667 H 0.71459 0.47011 0.47933 0.0
H668 H 0.6364 0.45166 0.53541 0.0
H669 H 0.66852 0.46453 0.50059 0.0
H670 H 0.71096 0.52913 0.55067 0.0
H671 H 0.67821 0.51592 0.58599 0.0
C672 C 0.69901 0.55468 0.47075 0.0
C673 C 0.69962 0.53556 0.449 0.0
C674 C 0.70173 0.54294 0.49572 0.0
C675 C 0.70487 0.51188 0.49913 0.0
C676 C 0.71131 0.49401 0.47725 0.0
C677 C 0.70856 0.50582 0.45218 0.0
C678 C 0.65296 0.46818 0.53921 0.0
C679 C 0.65431 0.48343 0.5631 0.0
C680 C 0.67183 0.47523 0.51933 0.0
C681 C 0.69234 0.49805 0.52271 0.0
C682 C 0.69531 0.51155 0.54743 0.0
C683 C 0.67653 0.50411 0.56758 0.0
H684 H 0.26555 0.98192 0.32649 0.0
H685 H 0.2892 0.89858 0.28929 0.0
H686 H 0.23268 0.9927 0.29086 0.0
H687 H 0.25691 0.9098 0.25311 0.0
H688 H 0.17578 0.92685 0.20451 0.0
H689 H 0.20781 0.91436 0.24042 0.0
H690 H 0.23351 0.00724 0.24638 0.0
H691 H 0.20075 0.01986 0.21102 0.0
C692 C 0.26373 0.96586 0.31069 0.0
C693 C 0.28006 0.93941 0.31073 0.0
C694 C 0.24504 0.97218 0.2901 0.0
C695 C 0.24233 0.95233 0.26887 0.0
C696 C 0.25822 0.92551 0.2692 0.0
C697 C 0.27681 0.91908 0.28993 0.0
C698 C 0.18835 0.94461 0.21341 0.0
C699 C 0.18559 0.97441 0.20494 0.0
C700 C 0.20684 0.9374 0.23396 0.0
C701 C 0.22318 0.95979 0.24648 0.0
C702 C 0.22085 0.98949 0.2376 0.0
C703 C 0.20221 0.99672 0.21715 0.0
H704 H 0.68356 0.04586 0.57395 0.0
H705 H 0.70633 0.10368 0.51014 0.0
H706 H 0.679 0.00372 0.54367 0.0
H707 H 0.70218 0.06158 0.48008 0.0
H708 H 0.66547 0.98659 0.42957 0.0
H709 H 0.66603 0.02818 0.46069 0.0
H710 H 0.7101 0.97245 0.51655 0.0
H711 H 0.70917 0.93087 0.48574 0.0
C712 C 0.68768 0.04957 0.55351 0.0
C713 C 0.69537 0.07812 0.54448 0.0
C714 C 0.68514 0.02542 0.53618 0.0
C715 C 0.69014 0.02934 0.50946 0.0
C716 C 0.69775 0.05791 0.50047 0.0
C717 C 0.70036 0.082 0.51777 0.0
C718 C 0.67509 0.98318 0.44856 0.0
C719 C 0.68737 0.95547 0.45513 0.0
C720 C 0.67556 0.00703 0.46633 0.0
C721 C 0.68822 0.00363 0.49105 0.0
C722 C 0.69992 0.97572 0.49779 0.0
C723 C 0.69953 0.95193 0.48003 0.0
H724 H 0.29761 0.41823 0.72648 0.0
H725 H 0.23102 0.4483 0.67413 0.0
H726 H 0.27278 0.44064 0.76278 0.0
H727 H 0.2059 0.47133 0.71077 0.0
H728 H 0.15804 0.41996 0.77961 0.0
H729 H 0.18121 0.43958 0.74139 0.0
H730 H 0.24847 0.47717 0.78975 0.0
H731 H 0.22508 0.45692 0.82826 0.0
C732 C 0.27806 0.43059 0.72266 0.0
C733 C 0.26569 0.43063 0.69772 0.0
C734 C 0.26394 0.44391 0.74347 0.0
C735 C 0.23691 0.45723 0.73982 0.0
C736 C 0.22646 0.46078 0.71425 0.0
C737 C 0.2408 0.44758 0.69329 0.0
C738 C 0.17707 0.43362 0.78218 0.0
C739 C 0.19036 0.43608 0.80665 0.0
C740 C 0.19032 0.44518 0.76023 0.0
C741 C 0.21731 0.45902 0.76242 0.0
C742 C 0.22803 0.46593 0.78743 0.0
C743 C 0.2146 0.45445 0.8095 0.0
H744 H 0.84071 0.05591 0.97894 0.0
H745 H 0.78207 0.01525 0.92368 0.0
H746 H 0.81895 0.0284 0.01373 0.0
H747 H 0.75891 0.98849 0.95918 0.0
H748 H 0.76678 0.90986 0.01806 0.0
H749 H 0.77229 0.94664 0.98389 0.0
H750 H 0.78249 0.01643 0.04201 0.0
H751 H 0.77874 0.97902 0.0762 0.0
C752 C 0.82259 0.04163 0.97428 0.0
C753 C 0.81363 0.03719 0.94838 0.0
C754 C 0.80977 0.02601 0.99444 0.0
C755 C 0.78735 0.00574 0.98936 0.0
C756 C 0.7766 0.00336 0.96373 0.0
C757 C 0.78969 0.0189 0.94339 0.0
C758 C 0.76983 0.93313 0.02353 0.0
C759 C 0.77299 0.94151 0.04975 0.0
C760 C 0.7727 0.95437 0.00388 0.0
C761 C 0.77828 0.98459 0.01007 0.0
C762 C 0.77904 0.99326 0.03646 0.0
C763 C 0.7768 0.97188 0.05609 0.0
H764 H 0.16956 0.61117 0.21852 0.0
H765 H 0.23711 0.57284 0.17201 0.0
H766 H 0.18719 0.58423 0.25642 0.0
H767 H 0.25536 0.54651 0.21018 0.0
H768 H 0.28109 0.49794 0.28249 0.0
H769 H 0.2504 0.51033 0.24542 0.0
H770 H 0.22964 0.5951 0.28173 0.0
H771 H 0.25971 0.58257 0.31877 0.0
C772 C 0.18791 0.59653 0.21632 0.0
C773 C 0.20235 0.59452 0.19249 0.0
C774 C 0.19805 0.5812 0.23804 0.0
C775 C 0.22304 0.56381 0.23645 0.0
C776 C 0.23599 0.55967 0.21204 0.0
C777 C 0.22561 0.57481 0.19017 0.0
C778 C 0.26949 0.51896 0.28276 0.0
C779 C 0.27309 0.53947 0.30341 0.0
C780 C 0.25203 0.52607 0.26148 0.0
C781 C 0.23774 0.55374 0.26053 0.0
C782 C 0.24004 0.57341 0.28194 0.0
C783 C 0.25749 0.56634 0.30314 0.0
H784 H 0.34754 0.05584 0.51092 0.0
H785 H 0.31038 -0.00182 0.56887 0.0
H786 H 0.32504 0.02648 0.47679 0.0
H787 H 0.28711 0.96882 0.53443 0.0
H788 H 0.32297 0.9012 0.47044 0.0
H789 H 0.31178 0.93441 0.50632 0.0
H790 H 0.28709 0.00341 0.4519 0.0
H791 H 0.29897 0.9699 0.41578 0.0
C792 C 0.33381 0.03737 0.51641 0.0
C793 C 0.33148 0.02878 0.54256 0.0
C794 C 0.3205 0.02068 0.49677 0.0
C795 C 0.3046 0.99486 0.50277 0.0
C796 C 0.29961 0.98828 0.52912 0.0
C797 C 0.3129 0.00514 0.54887 0.0
C798 C 0.31385 0.92296 0.46614 0.0
C799 C 0.31258 0.9333 0.44042 0.0
C800 C 0.30728 0.9421 0.48677 0.0
C801 C 0.29945 0.97201 0.48202 0.0
C802 C 0.29379 0.98071 0.45618 0.0
C803 C 0.30031 0.96143 0.43546 0.0
H804 H 0.78976 0.5434 0.17387 0.0
H805 H 0.85757 0.53598 0.23118 0.0
H806 H 0.75431 0.5425 0.2085 0.0
H807 H 0.82207 0.53477 0.26571 0.0
H808 H 0.75021 0.56582 0.32101 0.0
H809 H 0.78615 0.56797 0.28669 0.0
H810 H 0.73607 0.50595 0.24027 0.0
H811 H 0.70015 0.50398 0.27426 0.0
C812 C 0.7971 0.54153 0.19383 0.0
C813 C 0.82647 0.53969 0.19976 0.0
C814 C 0.7768 0.54089 0.21364 0.0
C815 C 0.78544 0.53852 0.2398 0.0
C816 C 0.8148 0.53692 0.24575 0.0
C817 C 0.8351 0.53742 0.22594 0.0
C818 C 0.74693 0.55263 0.3035 0.0
C819 C 0.72233 0.53477 0.30035 0.0
C820 C 0.76754 0.55377 0.28391 0.0
C821 C 0.76383 0.53722 0.26076 0.0
C822 C 0.73931 0.51928 0.25772 0.0
C823 C 0.71883 0.51802 0.2773 0.0
H824 H 0.18282 0.01948 0.08838 0.0
H825 H 0.1488 0.94703 0.04156 0.0
H826 H 0.21344 0.03454 0.05207 0.0
H827 H 0.17869 0.96179 0.00569 0.0
H828 H 0.21478 0.99124 0.93827 0.0
H829 H 0.22201 0.97266 0.98247 0.0
H830 H 0.19606 0.0588 0.01309 0.0
H831 H 0.1896 0.07714 0.96921 0.0
C832 C 0.18256 0.00627 0.07064 0.0
C833 C 0.16294 0.98265 0.06742 0.0
C834 C 0.20006 0.01483 0.04987 0.0
C835 C 0.19835 -0.00035 0.02577 0.0
C836 C 0.18094 0.97398 0.02386 0.0
C837 C 0.16335 0.96573 0.04435 0.0
C838 C 0.21249 0.00667 0.95446 0.0
C839 C 0.20103 0.03533 0.95053 0.0
C840 C 0.2163 0.99598 0.97982 0.0
C841 C 0.20841 0.01383 0.00133 0.0
C842 C 0.20208 0.04423 0.99712 0.0
C843 C 0.1983 0.05484 0.97187 0.0
H844 H 0.69854 0.4487 0.67685 0.0
H845 H 0.64435 0.457 0.74433 0.0
H846 H 0.73952 0.43841 0.70508 0.0
H847 H 0.68541 0.44732 0.77252 0.0
H848 H 0.75954 0.40219 0.81483 0.0
H849 H 0.71877 0.408 0.78527 0.0
H850 H 0.76969 0.46506 0.73611 0.0
H851 H 0.81049 0.4588 0.76526 0.0
C852 C 0.69537 0.4484 0.6977 0.0
C853 C 0.66818 0.45376 0.70833 0.0
C854 C 0.71889 0.44261 0.71388 0.0
C855 C 0.71576 0.44206 0.74107 0.0
C856 C 0.6885 0.44716 0.75166 0.0
C857 C 0.66499 0.45293 0.73548 0.0
C858 C 0.76208 0.41578 0.7976 0.0
C859 C 0.78824 0.4301 0.79245 0.0
C860 C 0.73867 0.41927 0.78075 0.0
C861 C 0.74094 0.43709 0.75837 0.0
C862 C 0.76729 0.45089 0.75299 0.0
C863 C 0.79065 0.44744 0.76982 0.0
loop_
_geom_bond_atom_site_label_1
_geom_bond_atom_site_label_2
_geom_bond_distance
_geom_bond_site_symmetry_2
_ccdc_geom_bond_type
Mg0 O1 2.028 . S
Mg0 O7 1.986 . S
Mg0 O9 2.114 . S
Mg0 O10 2.251 . S
Mg0 O13 2.010 . S
O1 Mg0 2.028 . S
O1 C4 1.250 . S
O2 Mg3 2.028 . S
O2 C4 1.248 . S
Mg3 O2 2.028 . S
Mg3 O8 2.032 . S
Mg3 O10 2.079 . S
C4 O1 1.250 . S
C4 O2 1.248 . S
C5 O6 1.264 . S
C5 O13 1.249 . S
O6 C5 1.264 . S
O7 Mg0 1.986 . S
O7 C11 1.246 . S
O8 Mg3 2.032 . S
O8 C11 1.259 . S
O9 Mg0 2.114 . S
O9 C12 1.252 . S
O10 Mg0 2.251 . S
O10 Mg3 2.079 . S
O10 C12 1.273 . S
C11 O7 1.246 . S
C11 O8 1.259 . S
C12 O9 1.252 . S
C12 O10 1.273 . S
O13 Mg0 2.010 . S
O13 C5 1.249 . S
Mg14 O15 2.028 . S
Mg14 O21 1.986 . S
Mg14 O23 2.114 . S
Mg14 O24 2.251 . S
Mg14 O27 2.010 . S
O15 Mg14 2.028 . S
O15 C18 1.250 . S
O16 Mg17 2.028 . S
O16 C18 1.248 . S
Mg17 O16 2.028 . S
Mg17 O22 2.032 . S
Mg17 O24 2.079 . S
C18 O15 1.250 . S
C18 O16 1.248 . S
C19 O20 1.264 . S
C19 O27 1.249 . S
O20 C19 1.264 . S
O21 Mg14 1.986 . S
O21 C25 1.246 . S
O22 Mg17 2.032 . S
O22 C25 1.259 . S
O23 Mg14 2.114 . S
O23 C26 1.252 . S
O24 Mg14 2.251 . S
O24 Mg17 2.079 . S
O24 C26 1.273 . S
C25 O21 1.246 . S
C25 O22 1.259 . S
C26 O23 1.252 . S
C26 O24 1.273 . S
O27 Mg14 2.010 . S
O27 C19 1.249 . S
Mg28 O29 2.028 . S
Mg28 O35 1.986 . S
Mg28 O37 2.114 . S
Mg28 O38 2.251 . S
Mg28 O41 2.010 . S
O29 Mg28 2.028 . S
O29 C32 1.250 . S
O30 Mg31 2.028 . S
O30 C32 1.248 . S
Mg31 O30 2.028 . S
Mg31 O36 2.032 . S
Mg31 O38 2.079 . S
C32 O29 1.250 . S
C32 O30 1.248 . S
C33 O34 1.264 . S
C33 O41 1.249 . S
O34 C33 1.264 . S
O35 Mg28 1.986 . S
O35 C39 1.246 . S
O36 Mg31 2.032 . S
O36 C39 1.259 . S
O37 Mg28 2.114 . S
O37 C40 1.252 . S
O38 Mg28 2.251 . S
O38 Mg31 2.079 . S
O38 C40 1.273 . S
C39 O35 1.246 . S
C39 O36 1.259 . S
C40 O37 1.252 . S
C40 O38 1.273 . S
O41 Mg28 2.010 . S
O41 C33 1.249 . S
Mg42 O43 2.028 . S
Mg42 O49 1.986 . S
Mg42 O51 2.114 . S
Mg42 O52 2.251 . S
Mg42 O55 2.010 . S
O43 Mg42 2.028 . S
O43 C46 1.250 . S
O44 Mg45 2.028 . S
O44 C46 1.248 . S
Mg45 O44 2.028 . S
Mg45 O50 2.032 . S
Mg45 O52 2.079 . S
C46 O43 1.250 . S
C46 O44 1.248 . S
C47 O48 1.264 . S
C47 O55 1.249 . S
O48 C47 1.264 . S
O49 Mg42 1.986 . S
O49 C53 1.246 . S
O50 Mg45 2.032 . S
O50 C53 1.259 . S
O51 Mg42 2.114 . S
O51 C54 1.252 . S
O52 Mg42 2.251 . S
O52 Mg45 2.079 . S
O52 C54 1.273 . S
C53 O49 1.246 . S
C53 O50 1.259 . S
C54 O51 1.252 . S
C54 O52 1.273 . S
O55 Mg42 2.010 . S
O55 C47 1.249 . S
Mg56 O57 2.028 . S
Mg56 O63 1.986 . S
Mg56 O65 2.114 . S
Mg56 O66 2.251 . S
Mg56 O69 2.010 . S
O57 Mg56 2.028 . S
O57 C60 1.250 . S
O58 Mg59 2.028 . S
O58 C60 1.248 . S
Mg59 O58 2.028 . S
Mg59 O64 2.032 . S
Mg59 O66 2.079 . S
C60 O57 1.250 . S
C60 O58 1.248 . S
C61 O62 1.264 . S
C61 O69 1.249 . S
O62 C61 1.264 . S
O63 Mg56 1.986 . S
O63 C67 1.246 . S
O64 Mg59 2.032 . S
O64 C67 1.259 . S
O65 Mg56 2.114 . S
O65 C68 1.252 . S
O66 Mg56 2.251 . S
O66 Mg59 2.079 . S
O66 C68 1.273 . S
C67 O63 1.246 . S
C67 O64 1.259 . S
C68 O65 1.252 . S
C68 O66 1.273 . S
O69 Mg56 2.010 . S
O69 C61 1.249 . S
Mg70 O71 2.028 . S
Mg70 O77 1.986 . S
Mg70 O79 2.114 . S
Mg70 O80 2.251 . S
Mg70 O83 2.010 . S
O71 Mg70 2.028 . S
O71 C74 1.250 . S
O72 Mg73 2.028 . S
O72 C74 1.248 . S
Mg73 O72 2.028 . S
Mg73 O78 2.032 . S
Mg73 O80 2.079 . S
C74 O71 1.250 . S
C74 O72 1.248 . S
C75 O76 1.264 . S
C75 O83 1.249 . S
O76 C75 1.264 . S
O77 Mg70 1.986 . S
O77 C81 1.246 . S
O78 Mg73 2.032 . S
O78 C81 1.259 . S
O79 Mg70 2.114 . S
O79 C82 1.252 . S
O80 Mg70 2.251 . S
O80 Mg73 2.079 . S
O80 C82 1.273 . S
C81 O77 1.246 . S
C81 O78 1.259 . S
C82 O79 1.252 . S
C82 O80 1.273 . S
O83 Mg70 2.010 . S
O83 C75 1.249 . S
Mg84 O85 2.028 . S
Mg84 O91 1.986 . S
Mg84 O93 2.114 . S
Mg84 O94 2.251 . S
Mg84 O97 2.010 . S
O85 Mg84 2.028 . S
O85 C88 1.250 . S
O86 Mg87 2.028 . S
O86 C88 1.248 . S
Mg87 O86 2.028 . S
Mg87 O92 2.032 . S
Mg87 O94 2.079 . S
C88 O85 1.250 . S
C88 O86 1.248 . S
C89 O90 1.264 . S
C89 O97 1.249 . S
O90 C89 1.264 . S
O91 Mg84 1.986 . S
O91 C95 1.246 . S
O92 Mg87 2.032 . S
O92 C95 1.259 . S
O93 Mg84 2.114 . S
O93 C96 1.252 . S
O94 Mg84 2.251 . S
O94 Mg87 2.079 . S
O94 C96 1.273 . S
C95 O91 1.246 . S
C95 O92 1.259 . S
C96 O93 1.252 . S
C96 O94 1.273 . S
O97 Mg84 2.010 . S
O97 C89 1.249 . S
Mg98 O99 2.028 . S
Mg98 O105 1.986 . S
Mg98 O107 2.114 . S
Mg98 O108 2.251 . S
Mg98 O111 2.010 . S
O99 Mg98 2.028 . S
O99 C102 1.250 . S
O100 Mg101 2.028 . S
O100 C102 1.248 . S
Mg101 O100 2.028 . S
Mg101 O106 2.032 . S
Mg101 O108 2.079 . S
C102 O99 1.250 . S
C102 O100 1.248 . S
C103 O104 1.264 . S
C103 O111 1.249 . S
O104 C103 1.264 . S
O105 Mg98 1.986 . S
O105 C109 1.246 . S
O106 Mg101 2.032 . S
O106 C109 1.259 . S
O107 Mg98 2.114 . S
O107 C110 1.252 . S
O108 Mg98 2.251 . S
O108 Mg101 2.079 . S
O108 C110 1.273 . S
C109 O105 1.246 . S
C109 O106 1.259 . S
C110 O107 1.252 . S
C110 O108 1.273 . S
O111 Mg98 2.010 . S
O111 C103 1.249 . S
Mg112 O113 2.028 . S
Mg112 O119 1.986 . S
Mg112 O121 2.114 . S
Mg112 O122 2.251 . S
Mg112 O125 2.010 . S
O113 Mg112 2.028 . S
O113 C116 1.250 . S
O114 Mg115 2.028 . S
O114 C116 1.248 . S
Mg115 O114 2.028 . S
Mg115 O120 2.032 . S
Mg115 O122 2.079 . S
C116 O113 1.250 . S
C116 O114 1.248 . S
C117 O118 1.264 . S
C117 O125 1.249 . S
O118 C117 1.264 . S
O119 Mg112 1.986 . S
O119 C123 1.246 . S
O120 Mg115 2.032 . S
O120 C123 1.259 . S
O121 Mg112 2.114 . S
O121 C124 1.252 . S
O122 Mg112 2.251 . S
O122 Mg115 2.079 . S
O122 C124 1.273 . S
C123 O119 1.246 . S
C123 O120 1.259 . S
C124 O121 1.252 . S
C124 O122 1.273 . S
O125 Mg112 2.010 . S
O125 C117 1.249 . S
Mg126 O127 2.028 . S
Mg126 O133 1.986 . S
Mg126 O135 2.114 . S
Mg126 O136 2.251 . S
Mg126 O139 2.010 . S
O127 Mg126 2.028 . S
O127 C130 1.250 . S
O128 Mg129 2.028 . S
O128 C130 1.248 . S
Mg129 O128 2.028 . S
Mg129 O134 2.032 . S
Mg129 O136 2.079 . S
C130 O127 1.250 . S
C130 O128 1.248 . S
C131 O132 1.264 . S
C131 O139 1.249 . S
O132 C131 1.264 . S
O133 Mg126 1.986 . S
O133 C137 1.246 . S
O134 Mg129 2.032 . S
O134 C137 1.259 . S
O135 Mg126 2.114 . S
O135 C138 1.252 . S
O136 Mg126 2.251 . S
O136 Mg129 2.079 . S
O136 C138 1.273 . S
C137 O133 1.246 . S
C137 O134 1.259 . S
C138 O135 1.252 . S
C138 O136 1.273 . S
O139 Mg126 2.010 . S
O139 C131 1.249 . S
Mg140 O141 2.028 . S
Mg140 O147 1.986 . S
Mg140 O149 2.114 . S
Mg140 O150 2.251 . S
Mg140 O153 2.010 . S
O141 Mg140 2.028 . S
O141 C144 1.250 . S
O142 Mg143 2.028 . S
O142 C144 1.248 . S
Mg143 O142 2.028 . S
Mg143 O148 2.032 . S
Mg143 O150 2.079 . S
C144 O141 1.250 . S
C144 O142 1.248 . S
C145 O146 1.264 . S
C145 O153 1.249 . S
O146 C145 1.264 . S
O147 Mg140 1.986 . S
O147 C151 1.246 . S
O148 Mg143 2.032 . S
O148 C151 1.259 . S
O149 Mg140 2.114 . S
O149 C152 1.252 . S
O150 Mg140 2.251 . S
O150 Mg143 2.079 . S
O150 C152 1.273 . S
C151 O147 1.246 . S
C151 O148 1.259 . S
C152 O149 1.252 . S
C152 O150 1.273 . S
O153 Mg140 2.010 . S
O153 C145 1.249 . S
Mg154 O155 2.028 . S
Mg154 O161 1.986 . S
Mg154 O163 2.114 . S
Mg154 O164 2.251 . S
Mg154 O167 2.010 . S
O155 Mg154 2.028 . S
O155 C158 1.250 . S
O156 Mg157 2.028 . S
O156 C158 1.248 . S
Mg157 O156 2.028 . S
Mg157 O162 2.032 . S
Mg157 O164 2.079 . S
C158 O155 1.250 . S
C158 O156 1.248 . S
C159 O160 1.264 . S
C159 O167 1.249 . S
O160 C159 1.264 . S
O161 Mg154 1.986 . S
O161 C165 1.246 . S
O162 Mg157 2.032 . S
O162 C165 1.259 . S
O163 Mg154 2.114 . S
O163 C166 1.252 . S
O164 Mg154 2.251 . S
O164 Mg157 2.079 . S
O164 C166 1.273 . S
C165 O161 1.246 . S
C165 O162 1.259 . S
C166 O163 1.252 . S
C166 O164 1.273 . S
O167 Mg154 2.010 . S
O167 C159 1.249 . S
Mg168 O169 2.028 . S
Mg168 O175 1.986 . S
Mg168 O177 2.114 . S
Mg168 O178 2.251 . S
Mg168 O181 2.010 . S
O169 Mg168 2.028 . S
O169 C172 1.250 . S
O170 Mg171 2.028 . S
O170 C172 1.248 . S
Mg171 O170 2.028 . S
Mg171 O176 2.032 . S
Mg171 O178 2.079 . S
C172 O169 1.250 . S
C172 O170 1.248 . S
C173 O174 1.264 . S
C173 O181 1.249 . S
O174 C173 1.264 . S
O175 Mg168 1.986 . S
O175 C179 1.246 . S
O176 Mg171 2.032 . S
O176 C179 1.259 . S
O177 Mg168 2.114 . S
O177 C180 1.252 . S
O178 Mg168 2.251 . S
O178 Mg171 2.079 . S
O178 C180 1.273 . S
C179 O175 1.246 . S
C179 O176 1.259 . S
C180 O177 1.252 . S
C180 O178 1.273 . S
O181 Mg168 2.010 . S
O181 C173 1.249 . S
Mg182 O183 2.028 . S
Mg182 O189 1.986 . S
Mg182 O191 2.114 . S
Mg182 O192 2.251 . S
Mg182 O195 2.010 . S
O183 Mg182 2.028 . S
O183 C186 1.250 . S
O184 Mg185 2.028 . S
O184 C186 1.248 . S
Mg185 O184 2.028 . S
Mg185 O190 2.032 . S
Mg185 O192 2.079 . S
C186 O183 1.250 . S
C186 O184 1.248 . S
C187 O188 1.264 . S
C187 O195 1.249 . S
O188 C187 1.264 . S
O189 Mg182 1.986 . S
O189 C193 1.246 . S
O190 Mg185 2.032 . S
O190 C193 1.259 . S
O191 Mg182 2.114 . S
O191 C194 1.252 . S
O192 Mg182 2.251 . S
O192 Mg185 2.079 . S
O192 C194 1.273 . S
C193 O189 1.246 . S
C193 O190 1.259 . S
C194 O191 1.252 . S
C194 O192 1.273 . S
O195 Mg182 2.010 . S
O195 C187 1.249 . S
Mg196 O197 2.028 . S
Mg196 O203 1.986 . S
Mg196 O205 2.114 . S
Mg196 O206 2.251 . S
Mg196 O209 2.010 . S
O197 Mg196 2.028 . S
O197 C200 1.250 . S
O198 Mg199 2.028 . S
O198 C200 1.248 . S
Mg199 O198 2.028 . S
Mg199 O204 2.032 . S
Mg199 O206 2.079 . S
C200 O197 1.250 . S
C200 O198 1.248 . S
C201 O202 1.264 . S
C201 O209 1.249 . S
O202 C201 1.264 . S
O203 Mg196 1.986 . S
O203 C207 1.246 . S
O204 Mg199 2.032 . S
O204 C207 1.259 . S
O205 Mg196 2.114 . S
O205 C208 1.252 . S
O206 Mg196 2.251 . S
O206 Mg199 2.079 . S
O206 C208 1.273 . S
C207 O203 1.246 . S
C207 O204 1.259 . S
C208 O205 1.252 . S
C208 O206 1.273 . S
O209 Mg196 2.010 . S
O209 C201 1.249 . S
Mg210 O211 2.028 . S
Mg210 O217 1.986 . S
Mg210 O219 2.114 . S
Mg210 O220 2.251 . S
Mg210 O223 2.010 . S
O211 Mg210 2.028 . S
O211 C214 1.250 . S
O212 Mg213 2.028 . S
O212 C214 1.248 . S
Mg213 O212 2.028 . S
Mg213 O218 2.032 . S
Mg213 O220 2.079 . S
C214 O211 1.250 . S
C214 O212 1.248 . S
C215 O216 1.264 . S
C215 O223 1.249 . S
O216 C215 1.264 . S
O217 Mg210 1.986 . S
O217 C221 1.246 . S
O218 Mg213 2.032 . S
O218 C221 1.259 . S
O219 Mg210 2.114 . S
O219 C222 1.252 . S
O220 Mg210 2.251 . S
O220 Mg213 2.079 . S
O220 C222 1.273 . S
C221 O217 1.246 . S
C221 O218 1.259 . S
C222 O219 1.252 . S
C222 O220 1.273 . S
O223 Mg210 2.010 . S
O223 C215 1.249 . S
H224 C232 0.950 . S
H225 C237 0.950 . S
H226 C234 0.950 . S
H227 C236 0.950 . S
H228 C238 0.950 . S
H229 C240 0.950 . S
H230 C242 0.950 . S
H231 C243 0.950 . S
C232 H224 0.950 . S
C232 C233 1.386 . S
C232 C234 1.391 . S
C233 C232 1.386 . S
C233 C237 1.393 . S
C234 H226 0.950 . S
C234 C232 1.391 . S
C234 C235 1.400 . S
C235 C234 1.400 . S
C235 C236 1.398 . S
C235 C241 1.491 . S
C236 H227 0.950 . S
C236 C235 1.398 . S
C236 C237 1.391 . S
C237 H225 0.950 . S
C237 C233 1.393 . S
C237 C236 1.391 . S
C238 H228 0.950 . S
C238 C239 1.386 . S
C238 C240 1.391 . S
C239 C238 1.386 . S
C239 C243 1.393 . S
C240 H229 0.950 . S
C240 C238 1.391 . S
C240 C241 1.400 . S
C241 C235 1.491 . S
C241 C240 1.400 . S
C241 C242 1.398 . S
C242 H230 0.950 . S
C242 C241 1.398 . S
C242 C243 1.391 . S
C243 H231 0.950 . S
C243 C239 1.393 . S
C243 C242 1.391 . S
H244 C252 0.950 . S
H245 C257 0.950 . S
H246 C254 0.950 . S
H247 C256 0.950 . S
H248 C258 0.950 . S
H249 C260 0.950 . S
H250 C262 0.950 . S
H251 C263 0.950 . S
C252 H244 0.950 . S
C252 C253 1.386 . S
C252 C254 1.391 . S
C253 C252 1.386 . S
C253 C257 1.393 . S
C254 H246 0.950 . S
C254 C252 1.391 . S
C254 C255 1.400 . S
C255 C254 1.400 . S
C255 C256 1.398 . S
C255 C261 1.491 . S
C256 H247 0.950 . S
C256 C255 1.398 . S
C256 C257 1.391 . S
C257 H245 0.950 . S
C257 C253 1.393 . S
C257 C256 1.391 . S
C258 H248 0.950 . S
C258 C259 1.386 . S
C258 C260 1.391 . S
C259 C258 1.386 . S
C259 C263 1.393 . S
C260 H249 0.950 . S
C260 C258 1.391 . S
C260 C261 1.400 . S
C261 C255 1.491 . S
C261 C260 1.400 . S
C261 C262 1.398 . S
C262 H250 0.950 . S
C262 C261 1.398 . S
C262 C263 1.391 . S
C263 H251 0.950 . S
C263 C259 1.393 . S
C263 C262 1.391 . S
H264 C272 0.950 . S
H265 C277 0.950 . S
H266 C274 0.950 . S
H267 C276 0.950 . S
H268 C278 0.950 . S
H269 C280 0.950 . S
H270 C282 0.950 . S
H271 C283 0.950 . S
C272 H264 0.950 . S
C272 C273 1.386 . S
C272 C274 1.391 . S
C273 C272 1.386 . S
C273 C277 1.393 . S
C274 H266 0.950 . S
C274 C272 1.391 . S
C274 C275 1.400 . S
C275 C274 1.400 . S
C275 C276 1.398 . S
C275 C281 1.491 . S
C276 H267 0.950 . S
C276 C275 1.398 . S
C276 C277 1.391 . S
C277 H265 0.950 . S
C277 C273 1.393 . S
C277 C276 1.391 . S
C278 H268 0.950 . S
C278 C279 1.386 . S
C278 C280 1.391 . S
C279 C278 1.386 . S
C279 C283 1.393 . S
C280 H269 0.950 . S
C280 C278 1.391 . S
C280 C281 1.400 . S
C281 C275 1.491 . S
C281 C280 1.400 . S
C281 C282 1.398 . S
C282 H270 0.950 . S
C282 C281 1.398 . S
C282 C283 1.391 . S
C283 H271 0.950 . S
C283 C279 1.393 . S
C283 C282 1.391 . S
H284 C292 0.950 . S
H285 C297 0.950 . S
H286 C294 0.950 . S
H287 C296 0.950 . S
H288 C298 0.950 . S
H289 C300 0.950 . S
H290 C302 0.950 . S
H291 C303 0.950 . S
C292 H284 0.950 . S
C292 C293 1.386 . S
C292 C294 1.391 . S
C293 C292 1.386 . S
C293 C297 1.393 . S
C294 H286 0.950 . S
C294 C292 1.391 . S
C294 C295 1.400 . S
C295 C294 1.400 . S
C295 C296 1.398 . S
C295 C301 1.491 1_455 S
C296 H287 0.950 . S
C296 C295 1.398 . S
C296 C297 1.391 . S
C297 H285 0.950 . S
C297 C293 1.393 . S
C297 C296 1.391 . S
C298 H288 0.950 . S
C298 C299 1.386 . S
C298 C300 1.391 . S
C299 C298 1.386 . S
C299 C303 1.393 . S
C300 H289 0.950 . S
C300 C298 1.391 . S
C300 C301 1.400 . S
C301 C295 1.491 1_655 S
C301 C300 1.400 . S
C301 C302 1.398 . S
C302 H290 0.950 . S
C302 C301 1.398 . S
C302 C303 1.391 . S
C303 H291 0.950 . S
C303 C299 1.393 . S
C303 C302 1.391 . S
H304 C312 0.950 . S
H305 C317 0.950 . S
H306 C314 0.950 . S
H307 C316 0.950 . S
H308 C318 0.950 . S
H309 C320 0.950 . S
H310 C322 0.950 . S
H311 C323 0.950 . S
C312 H304 0.950 . S
C312 C313 1.386 . S
C312 C314 1.391 . S
C313 C312 1.386 . S
C313 C317 1.393 . S
C314 H306 0.950 . S
C314 C312 1.391 . S
C314 C315 1.400 . S
C315 C314 1.400 . S
C315 C316 1.398 . S
C315 C321 1.491 . S
C316 H307 0.950 . S
C316 C315 1.398 . S
C316 C317 1.391 . S
C317 H305 0.950 . S
C317 C313 1.393 . S
C317 C316 1.391 . S
C318 H308 0.950 . S
C318 C319 1.386 . S
C318 C320 1.391 . S
C319 C318 1.386 . S
C319 C323 1.393 . S
C320 H309 0.950 . S
C320 C318 1.391 . S
C320 C321 1.400 . S
C321 C315 1.491 . S
C321 C320 1.400 . S
C321 C322 1.398 . S
C322 H310 0.950 . S
C322 C321 1.398 . S
C322 C323 1.391 . S
C323 H311 0.950 . S
C323 C319 1.393 . S
C323 C322 1.391 . S
H324 C332 0.950 . S
H325 C337 0.950 . S
H326 C334 0.950 . S
H327 C336 0.950 . S
H328 C338 0.950 . S
H329 C340 0.950 . S
H330 C342 0.970 . S
H331 C343 0.950 . S
C332 H324 0.950 . S
C332 C333 1.386 . S
C332 C334 1.391 . S
C333 C332 1.386 . S
C333 C337 1.393 . S
C334 H326 0.950 . S
C334 C332 1.391 . S
C334 C335 1.400 . S
C335 C334 1.400 . S
C335 C336 1.398 . S
C335 C341 1.491 . S
C336 H327 0.950 . S
C336 C335 1.398 . S
C336 C337 1.391 . S
C337 H325 0.950 . S
C337 C333 1.393 . S
C337 C336 1.391 . S
C338 H328 0.950 . S
C338 C339 1.386 . S
C338 C340 1.391 . S
C339 C338 1.386 . S
C339 C343 1.393 . S
C340 H329 0.950 . S
C340 C338 1.391 . S
C340 C341 1.400 1_455 S
C341 C335 1.491 . S
C341 C340 1.400 1_655 S
C341 C342 1.398 1_655 S
C342 H330 0.970 . S
C342 C341 1.398 1_455 S
C342 C343 1.391 . S
C343 H331 0.950 . S
C343 C339 1.393 . S
C343 C342 1.391 . S
H344 C352 0.950 . S
H345 C357 0.950 . S
H346 C354 0.950 . S
H347 C356 0.950 . S
H348 C358 0.950 . S
H349 C360 0.950 . S
H350 C362 0.950 . S
H351 C363 0.950 . S
C352 H344 0.950 . S
C352 C353 1.386 . S
C352 C354 1.391 . S
C353 C352 1.386 . S
C353 C357 1.393 . S
C354 H346 0.950 . S
C354 C352 1.391 . S
C354 C355 1.400 . S
C355 C354 1.400 . S
C355 C356 1.398 . S
C355 C361 1.491 . S
C356 H347 0.950 . S
C356 C355 1.398 . S
C356 C357 1.391 . S
C357 H345 0.950 . S
C357 C353 1.393 . S
C357 C356 1.391 . S
C358 H348 0.950 . S
C358 C359 1.386 . S
C358 C360 1.391 . S
C359 C358 1.386 . S
C359 C363 1.393 . S
C360 H349 0.950 . S
C360 C358 1.391 . S
C360 C361 1.400 . S
C361 C355 1.491 . S
C361 C360 1.400 . S
C361 C362 1.398 . S
C362 H350 0.950 . S
C362 C361 1.398 . S
C362 C363 1.391 . S
C363 H351 0.950 . S
C363 C359 1.393 . S
C363 C362 1.391 . S
H364 C372 0.950 . S
H365 C377 0.950 . S
H366 C374 0.950 . S
H367 C376 0.950 . S
H368 C378 0.950 . S
H369 C380 0.950 . S
H370 C382 0.950 . S
H371 C383 0.950 . S
C372 H364 0.950 . S
C372 C373 1.386 . S
C372 C374 1.391 . S
C373 C372 1.386 . S
C373 C377 1.393 . S
C374 H366 0.950 . S
C374 C372 1.391 . S
C374 C375 1.400 . S
C375 C374 1.400 . S
C375 C376 1.398 . S
C375 C381 1.491 . S
C376 H367 0.950 . S
C376 C375 1.398 . S
C376 C377 1.391 . S
C377 H365 0.950 . S
C377 C373 1.393 . S
C377 C376 1.391 . S
C378 H368 0.950 . S
C378 C379 1.386 . S
C378 C380 1.391 . S
C379 C378 1.386 . S
C379 C383 1.393 . S
C380 H369 0.950 . S
C380 C378 1.391 . S
C380 C381 1.400 . S
C381 C375 1.491 . S
C381 C380 1.400 . S
C381 C382 1.398 . S
C382 H370 0.950 . S
C382 C381 1.398 . S
C382 C383 1.391 . S
C383 H371 0.950 . S
C383 C379 1.393 . S
C383 C382 1.391 . S
H384 C392 0.950 . S
H385 C397 0.950 . S
H386 C394 0.950 . S
H387 C396 0.950 . S
H388 C398 0.950 . S
H389 C400 0.950 . S
H390 C402 0.950 . S
H391 C403 0.950 . S
C392 H384 0.950 . S
C392 C393 1.386 . S
C392 C394 1.391 . S
C393 C392 1.386 . S
C393 C397 1.393 . S
C394 H386 0.950 . S
C394 C392 1.391 . S
C394 C395 1.400 . S
C395 C394 1.400 . S
C395 C396 1.398 . S
C395 C401 1.491 . S
C396 H387 0.950 . S
C396 C395 1.398 . S
C396 C397 1.391 . S
C397 H385 0.950 . S
C397 C393 1.393 . S
C397 C396 1.391 . S
C398 H388 0.950 . S
C398 C399 1.386 . S
C398 C400 1.391 . S
C399 C398 1.386 . S
C399 C403 1.393 . S
C400 H389 0.950 . S
C400 C398 1.391 . S
C400 C401 1.400 . S
C401 C395 1.491 . S
C401 C400 1.400 . S
C401 C402 1.398 . S
C402 H390 0.950 . S
C402 C401 1.398 . S
C402 C403 1.391 . S
C403 H391 0.950 . S
C403 C399 1.393 . S
C403 C402 1.391 . S
H404 C412 0.950 . S
H405 C417 0.950 . S
H406 C414 0.950 . S
H407 C416 0.950 . S
H408 C418 0.950 . S
H409 C420 0.950 . S
H410 C422 0.950 . S
H411 C423 0.950 . S
C412 H404 0.950 . S
C412 C413 1.386 . S
C412 C414 1.391 . S
C413 C412 1.386 . S
C413 C417 1.393 . S
C414 H406 0.950 . S
C414 C412 1.391 . S
C414 C415 1.400 . S
C415 C414 1.400 . S
C415 C416 1.398 . S
C415 C421 1.491 . S
C416 H407 0.950 . S
C416 C415 1.398 . S
C416 C417 1.391 . S
C417 H405 0.950 . S
C417 C413 1.393 . S
C417 C416 1.391 . S
C418 H408 0.950 . S
C418 C419 1.386 . S
C418 C420 1.391 . S
C419 C418 1.386 . S
C419 C423 1.393 . S
C420 H409 0.950 . S
C420 C418 1.391 . S
C420 C421 1.400 . S
C421 C415 1.491 . S
C421 C420 1.400 . S
C421 C422 1.398 . S
C422 H410 0.950 . S
C422 C421 1.398 . S
C422 C423 1.391 . S
C423 H411 0.950 . S
C423 C419 1.393 . S
C423 C422 1.391 . S
H424 C432 0.950 . S
H425 C437 0.950 . S
H426 C434 0.950 . S
H427 C436 0.950 . S
H428 C438 0.950 . S
H429 C440 0.950 . S
H430 C442 0.950 . S
H431 C443 0.950 . S
C432 H424 0.950 . S
C432 C433 1.386 . S
C432 C434 1.391 . S
C433 C432 1.386 . S
C433 C437 1.393 . S
C434 H426 0.950 . S
C434 C432 1.391 . S
C434 C435 1.400 . S
C435 C434 1.400 . S
C435 C436 1.398 . S
C435 C441 1.491 . S
C436 H427 0.950 . S
C436 C435 1.398 . S
C436 C437 1.391 . S
C437 H425 0.950 . S
C437 C433 1.393 . S
C437 C436 1.391 . S
C438 H428 0.950 . S
C438 C439 1.386 . S
C438 C440 1.391 . S
C439 C438 1.386 . S
C439 C443 1.393 . S
C440 H429 0.950 . S
C440 C438 1.391 . S
C440 C441 1.400 . S
C441 C435 1.491 . S
C441 C440 1.400 . S
C441 C442 1.398 . S
C442 H430 0.950 . S
C442 C441 1.398 . S
C442 C443 1.391 . S
C443 H431 0.950 . S
C443 C439 1.393 . S
C443 C442 1.391 . S
H444 C452 0.950 . S
H445 C457 0.950 . S
H446 C454 0.950 . S
H447 C456 0.950 . S
H448 C458 0.950 . S
H449 C460 0.950 . S
H450 C462 0.950 . S
H451 C463 0.950 . S
C452 H444 0.950 . S
C452 C453 1.386 . S
C452 C454 1.391 . S
C453 C452 1.386 . S
C453 C457 1.393 . S
C454 H446 0.950 . S
C454 C452 1.391 . S
C454 C455 1.400 . S
C455 C454 1.400 . S
C455 C456 1.398 . S
C455 C461 1.491 . S
C456 H447 0.950 . S
C456 C455 1.398 . S
C456 C457 1.391 . S
C457 H445 0.950 . S
C457 C453 1.393 . S
C457 C456 1.391 . S
C458 H448 0.950 . S
C458 C459 1.386 . S
C458 C460 1.391 . S
C459 C458 1.386 . S
C459 C463 1.393 . S
C460 H449 0.950 . S
C460 C458 1.391 . S
C460 C461 1.400 . S
C461 C455 1.491 . S
C461 C460 1.400 . S
C461 C462 1.398 . S
C462 H450 0.950 . S
C462 C461 1.398 . S
C462 C463 1.391 . S
C463 H451 0.950 . S
C463 C459 1.393 . S
C463 C462 1.391 . S
H464 C472 0.950 . S
H465 C477 0.950 . S
H466 C474 0.950 . S
H467 C476 0.950 . S
H468 C478 0.950 . S
H469 C480 0.950 . S
H470 C482 0.950 . S
H471 C483 0.950 . S
C472 H464 0.950 . S
C472 C473 1.386 . S
C472 C474 1.391 . S
C473 C472 1.386 . S
C473 C477 1.393 . S
C474 H466 0.950 . S
C474 C472 1.391 . S
C474 C475 1.400 . S
C475 C474 1.400 . S
C475 C476 1.398 . S
C475 C481 1.491 1_455 S
C476 H467 0.950 . S
C476 C475 1.398 . S
C476 C477 1.391 . S
C477 H465 0.950 . S
C477 C473 1.393 . S
C477 C476 1.391 . S
C478 H468 0.950 . S
C478 C479 1.386 . S
C478 C480 1.391 . S
C479 C478 1.386 . S
C479 C483 1.393 . S
C480 H469 0.950 . S
C480 C478 1.391 . S
C480 C481 1.400 . S
C481 C475 1.491 1_655 S
C481 C480 1.400 . S
C481 C482 1.398 . S
C482 H470 0.950 . S
C482 C481 1.398 . S
C482 C483 1.391 . S
C483 H471 0.950 . S
C483 C479 1.393 . S
C483 C482 1.391 . S
H484 C492 0.950 . S
H485 C497 0.950 . S
H486 C494 0.950 . S
H487 C496 0.950 . S
H488 C498 0.950 . S
H489 C500 0.950 . S
H490 C502 0.950 . S
H491 C503 0.950 . S
C492 H484 0.950 . S
C492 C493 1.386 . S
C492 C494 1.391 . S
C493 C492 1.386 . S
C493 C497 1.393 . S
C494 H486 0.950 . S
C494 C492 1.391 . S
C494 C495 1.400 . S
C495 C494 1.400 . S
C495 C496 1.398 . S
C495 C501 1.491 . S
C496 H487 0.950 . S
C496 C495 1.398 . S
C496 C497 1.391 . S
C497 H485 0.950 . S
C497 C493 1.393 . S
C497 C496 1.391 . S
C498 H488 0.950 . S
C498 C499 1.386 . S
C498 C500 1.391 . S
C499 C498 1.386 . S
C499 C503 1.393 . S
C500 H489 0.950 . S
C500 C498 1.391 . S
C500 C501 1.400 . S
C501 C495 1.491 . S
C501 C500 1.400 . S
C501 C502 1.398 . S
C502 H490 0.950 . S
C502 C501 1.398 . S
C502 C503 1.391 . S
C503 H491 0.950 . S
C503 C499 1.393 . S
C503 C502 1.391 . S
H504 C512 0.950 . S
H505 C517 0.950 . S
H506 C514 0.950 . S
H507 C516 0.950 . S
H508 C518 0.950 . S
H509 C520 0.950 . S
H510 C522 0.950 . S
H511 C523 0.950 . S
C512 H504 0.950 . S
C512 C513 1.386 . S
C512 C514 1.391 . S
C513 C512 1.386 . S
C513 C517 1.393 . S
C514 H506 0.950 . S
C514 C512 1.391 . S
C514 C515 1.400 . S
C515 C514 1.400 . S
C515 C516 1.398 . S
C515 C521 1.491 . S
C516 H507 0.950 . S
C516 C515 1.398 . S
C516 C517 1.391 . S
C517 H505 0.950 . S
C517 C513 1.393 . S
C517 C516 1.391 . S
C518 H508 0.950 . S
C518 C519 1.386 . S
C518 C520 1.391 . S
C519 C518 1.386 . S
C519 C523 1.393 . S
C520 H509 0.950 . S
C520 C518 1.391 . S
C520 C521 1.400 . S
C521 C515 1.491 . S
C521 C520 1.400 . S
C521 C522 1.398 . S
C522 H510 0.950 . S
C522 C521 1.398 . S
C522 C523 1.391 . S
C523 H511 0.950 . S
C523 C519 1.393 . S
C523 C522 1.391 . S
H524 C532 0.950 . S
H525 C537 0.950 . S
H526 C534 0.950 . S
H527 C536 0.950 . S
H528 C538 0.950 . S
H529 C540 0.950 . S
H530 C542 0.950 . S
H531 C543 0.950 . S
C532 H524 0.950 . S
C532 C533 1.386 . S
C532 C534 1.391 . S
C533 C532 1.386 . S
C533 C537 1.393 . S
C534 H526 0.950 . S
C534 C532 1.391 . S
C534 C535 1.400 . S
C535 C534 1.400 . S
C535 C536 1.398 . S
C535 C541 1.491 1_455 S
C536 H527 0.950 . S
C536 C535 1.398 . S
C536 C537 1.391 . S
C537 H525 0.950 . S
C537 C533 1.393 . S
C537 C536 1.391 . S
C538 H528 0.950 . S
C538 C539 1.386 . S
C538 C540 1.391 . S
C539 C538 1.386 . S
C539 C543 1.393 . S
C540 H529 0.950 . S
C540 C538 1.391 . S
C540 C541 1.400 . S
C541 C535 1.491 1_655 S
C541 C540 1.400 . S
C541 C542 1.398 . S
C542 H530 0.950 . S
C542 C541 1.398 . S
C542 C543 1.391 . S
C543 H531 0.950 . S
C543 C539 1.393 . S
C543 C542 1.391 . S
H544 C552 0.950 . S
H545 C557 0.950 . S
H546 C554 0.950 . S
H547 C556 0.950 . S
H548 C558 0.950 . S
H549 C560 0.950 . S
H550 C562 0.950 . S
H551 C563 0.950 . S
C552 H544 0.950 . S
C552 C553 1.386 . S
C552 C554 1.391 . S
C553 C552 1.386 . S
C553 C557 1.393 . S
C554 H546 0.950 . S
C554 C552 1.391 . S
C554 C555 1.400 . S
C555 C554 1.400 . S
C555 C556 1.398 . S
C555 C561 1.491 1_554 S
C556 H547 0.950 . S
C556 C555 1.398 . S
C556 C557 1.391 . S
C557 H545 0.950 . S
C557 C553 1.393 . S
C557 C556 1.391 . S
C558 H548 0.950 . S
C558 C559 1.386 . S
C558 C560 1.391 . S
C559 C558 1.386 . S
C559 C563 1.393 . S
C560 H549 0.950 . S
C560 C558 1.391 . S
C560 C561 1.400 . S
C561 C555 1.491 1_556 S
C561 C560 1.400 . S
C561 C562 1.398 . S
C562 H550 0.950 . S
C562 C561 1.398 . S
C562 C563 1.391 . S
C563 H551 0.950 . S
C563 C559 1.393 . S
C563 C562 1.391 . S
H564 C572 0.950 . S
H565 C577 0.950 . S
H566 C574 0.950 . S
H567 C576 0.950 . S
H568 C578 0.950 . S
H569 C580 0.950 . S
H570 C582 0.950 . S
H571 C583 0.950 . S
C572 H564 0.950 . S
C572 C573 1.386 . S
C572 C574 1.391 . S
C573 C572 1.386 . S
C573 C577 1.393 . S
C574 H566 0.950 . S
C574 C572 1.391 . S
C574 C575 1.400 . S
C575 C574 1.400 . S
C575 C576 1.398 . S
C575 C581 1.491 . S
C576 H567 0.950 . S
C576 C575 1.398 . S
C576 C577 1.391 . S
C577 H565 0.950 . S
C577 C573 1.393 . S
C577 C576 1.391 . S
C578 H568 0.950 . S
C578 C579 1.386 . S
C578 C580 1.391 . S
C579 C578 1.386 . S
C579 C583 1.393 . S
C580 H569 0.950 . S
C580 C578 1.391 . S
C580 C581 1.400 . S
C581 C575 1.491 . S
C581 C580 1.400 . S
C581 C582 1.398 . S
C582 H570 0.950 . S
C582 C581 1.398 . S
C582 C583 1.391 . S
C583 H571 0.950 . S
C583 C579 1.393 . S
C583 C582 1.391 . S
H584 C592 0.950 . S
H585 C597 0.950 . S
H586 C594 0.950 . S
H587 C596 0.950 . S
H588 C598 0.950 . S
H589 C600 0.950 . S
H590 C602 0.950 . S
H591 C603 0.950 . S
C592 H584 0.950 . S
C592 C593 1.386 . S
C592 C594 1.391 . S
C593 C592 1.386 . S
C593 C597 1.393 . S
C594 H586 0.950 . S
C594 C592 1.391 . S
C594 C595 1.400 . S
C595 C594 1.400 . S
C595 C596 1.398 . S
C595 C601 1.491 . S
C596 H587 0.950 . S
C596 C595 1.398 . S
C596 C597 1.391 . S
C597 H585 0.950 . S
C597 C593 1.393 . S
C597 C596 1.391 . S
C598 H588 0.950 . S
C598 C599 1.386 . S
C598 C600 1.391 . S
C599 C598 1.386 . S
C599 C603 1.393 . S
C600 H589 0.950 . S
C600 C598 1.391 . S
C600 C601 1.400 . S
C601 C595 1.491 . S
C601 C600 1.400 . S
C601 C602 1.398 . S
C602 H590 0.950 . S
C602 C601 1.398 . S
C602 C603 1.391 . S
C603 H591 0.950 . S
C603 C599 1.393 . S
C603 C602 1.391 . S
H604 C612 0.950 . S
H605 C617 0.950 . S
H606 C614 0.950 . S
H607 C616 0.950 . S
H608 C618 0.950 . S
H609 C620 0.950 . S
H610 C622 0.950 . S
H611 C623 0.950 . S
C612 H604 0.950 . S
C612 C613 1.386 . S
C612 C614 1.391 . S
C613 C612 1.386 . S
C613 C617 1.393 . S
C614 H606 0.950 . S
C614 C612 1.391 . S
C614 C615 1.400 . S
C615 C614 1.400 . S
C615 C616 1.398 . S
C615 C621 1.491 . S
C616 H607 0.950 . S
C616 C615 1.398 . S
C616 C617 1.391 . S
C617 H605 0.950 . S
C617 C613 1.393 . S
C617 C616 1.391 . S
C618 H608 0.950 . S
C618 C619 1.386 . S
C618 C620 1.391 . S
C619 C618 1.386 . S
C619 C623 1.393 . S
C620 H609 0.950 . S
C620 C618 1.391 . S
C620 C621 1.400 . S
C621 C615 1.491 . S
C621 C620 1.400 . S
C621 C622 1.398 . S
C622 H610 0.950 . S
C622 C621 1.398 . S
C622 C623 1.391 . S
C623 H611 0.950 . S
C623 C619 1.393 . S
C623 C622 1.391 . S
H624 C632 0.950 . S
H625 C637 0.950 . S
H626 C634 0.950 . S
H627 C636 0.950 . S
H628 C638 0.950 . S
H629 C640 0.950 . S
H630 C642 0.950 . S
H631 C643 0.950 . S
C632 H624 0.950 . S
C632 C633 1.386 . S
C632 C634 1.391 . S
C633 C632 1.386 . S
C633 C637 1.393 . S
C634 H626 0.950 . S
C634 C632 1.391 . S
C634 C635 1.400 . S
C635 C634 1.400 . S
C635 C636 1.398 . S
C635 C641 1.491 1_556 S
C636 H627 0.950 . S
C636 C635 1.398 . S
C636 C637 1.391 . S
C637 H625 0.950 . S
C637 C633 1.393 . S
C637 C636 1.391 . S
C638 H628 0.950 . S
C638 C639 1.386 . S
C638 C640 1.391 . S
C639 C638 1.386 . S
C639 C643 1.393 . S
C640 H629 0.950 . S
C640 C638 1.391 . S
C640 C641 1.400 . S
C641 C635 1.491 1_554 S
C641 C640 1.400 . S
C641 C642 1.398 . S
C642 H630 0.950 . S
C642 C641 1.398 . S
C642 C643 1.391 . S
C643 H631 0.950 . S
C643 C639 1.393 . S
C643 C642 1.391 . S
H644 C652 0.950 . S
H645 C657 0.950 . S
H646 C654 0.950 . S
H647 C656 0.950 . S
H648 C658 0.950 . S
H649 C660 0.950 . S
H650 C662 0.950 . S
H651 C663 0.950 . S
C652 H644 0.950 . S
C652 C653 1.386 . S
C652 C654 1.391 . S
C653 C652 1.386 . S
C653 C657 1.393 . S
C654 H646 0.950 . S
C654 C652 1.391 . S
C654 C655 1.400 . S
C655 C654 1.400 . S
C655 C656 1.398 . S
C655 C661 1.491 . S
C656 H647 0.950 . S
C656 C655 1.398 . S
C656 C657 1.391 . S
C657 H645 0.950 . S
C657 C653 1.393 . S
C657 C656 1.391 . S
C658 H648 0.950 . S
C658 C659 1.386 . S
C658 C660 1.391 . S
C659 C658 1.386 . S
C659 C663 1.393 . S
C660 H649 0.950 . S
C660 C658 1.391 . S
C660 C661 1.400 . S
C661 C655 1.491 . S
C661 C660 1.400 . S
C661 C662 1.398 . S
C662 H650 0.950 . S
C662 C661 1.398 . S
C662 C663 1.391 . S
C663 H651 0.950 . S
C663 C659 1.393 . S
C663 C662 1.391 . S
H664 C672 0.950 . S
H665 C677 0.950 . S
H666 C674 0.950 . S
H667 C676 0.950 . S
H668 C678 0.950 . S
H669 C680 0.950 . S
H670 C682 0.950 . S
H671 C683 0.950 . S
C672 H664 0.950 . S
C672 C673 1.386 . S
C672 C674 1.391 . S
C673 C672 1.386 . S
C673 C677 1.393 . S
C674 H666 0.950 . S
C674 C672 1.391 . S
C674 C675 1.400 . S
C675 C674 1.400 . S
C675 C676 1.398 . S
C675 C681 1.491 . S
C676 H667 0.950 . S
C676 C675 1.398 . S
C676 C677 1.391 . S
C677 H665 0.950 . S
C677 C673 1.393 . S
C677 C676 1.391 . S
C678 H668 0.950 . S
C678 C679 1.386 . S
C678 C680 1.391 . S
C679 C678 1.386 . S
C679 C683 1.393 . S
C680 H669 0.950 . S
C680 C678 1.391 . S
C680 C681 1.400 . S
C681 C675 1.491 . S
C681 C680 1.400 . S
C681 C682 1.398 . S
C682 H670 0.950 . S
C682 C681 1.398 . S
C682 C683 1.391 . S
C683 H671 0.950 . S
C683 C679 1.393 . S
C683 C682 1.391 . S
H684 C692 0.950 . S
H685 C697 0.950 . S
H686 C694 0.950 . S
H687 C696 0.950 . S
H688 C698 0.950 . S
H689 C700 0.950 . S
H690 C702 0.950 . S
H691 C703 0.950 . S
C692 H684 0.950 . S
C692 C693 1.386 . S
C692 C694 1.391 . S
C693 C692 1.386 . S
C693 C697 1.393 . S
C694 H686 0.950 . S
C694 C692 1.391 . S
C694 C695 1.400 . S
C695 C694 1.400 . S
C695 C696 1.398 . S
C695 C701 1.491 . S
C696 H687 0.950 . S
C696 C695 1.398 . S
C696 C697 1.391 . S
C697 H685 0.950 . S
C697 C693 1.393 . S
C697 C696 1.391 . S
C698 H688 0.950 . S
C698 C699 1.386 . S
C698 C700 1.391 . S
C699 C698 1.386 . S
C699 C703 1.393 . S
C700 H689 0.950 . S
C700 C698 1.391 . S
C700 C701 1.400 . S
C701 C695 1.491 . S
C701 C700 1.400 . S
C701 C702 1.398 . S
C702 H690 0.950 . S
C702 C701 1.398 . S
C702 C703 1.391 . S
C703 H691 0.950 . S
C703 C699 1.393 . S
C703 C702 1.391 . S
H704 C712 0.950 . S
H705 C717 0.950 . S
H706 C714 0.950 1_565 S
H707 C716 0.950 . S
H708 C718 0.950 . S
H709 C720 0.950 . S
H710 C722 0.950 . S
H711 C723 0.950 . S
C712 H704 0.950 . S
C712 C713 1.386 . S
C712 C714 1.391 . S
C713 C712 1.386 . S
C713 C717 1.393 . S
C714 H706 0.950 1_545 S
C714 C712 1.391 . S
C714 C715 1.400 . S
C715 C714 1.400 . S
C715 C716 1.398 . S
C715 C721 1.491 1_545 S
C716 H707 0.950 . S
C716 C715 1.398 . S
C716 C717 1.391 . S
C717 H705 0.950 . S
C717 C713 1.393 . S
C717 C716 1.391 . S
C718 H708 0.950 . S
C718 C719 1.386 . S
C718 C720 1.391 1_565 S
C719 C718 1.386 . S
C719 C723 1.393 . S
C720 H709 0.950 . S
C720 C718 1.391 1_545 S
C720 C721 1.400 1_545 S
C721 C715 1.491 1_565 S
C721 C720 1.400 1_565 S
C721 C722 1.398 . S
C722 H710 0.950 . S
C722 C721 1.398 . S
C722 C723 1.391 . S
C723 H711 0.950 . S
C723 C719 1.393 . S
C723 C722 1.391 . S
H724 C732 0.950 . S
H725 C737 0.950 . S
H726 C734 0.950 . S
H727 C736 0.950 . S
H728 C738 0.950 . S
H729 C740 0.950 . S
H730 C742 0.950 . S
H731 C743 0.950 . S
C732 H724 0.950 . S
C732 C733 1.386 . S
C732 C734 1.391 . S
C733 C732 1.386 . S
C733 C737 1.393 . S
C734 H726 0.950 . S
C734 C732 1.391 . S
C734 C735 1.400 . S
C735 C734 1.400 . S
C735 C736 1.398 . S
C735 C741 1.491 . S
C736 H727 0.950 . S
C736 C735 1.398 . S
C736 C737 1.391 . S
C737 H725 0.950 . S
C737 C733 1.393 . S
C737 C736 1.391 . S
C738 H728 0.950 . S
C738 C739 1.386 . S
C738 C740 1.391 . S
C739 C738 1.386 . S
C739 C743 1.393 . S
C740 H729 0.950 . S
C740 C738 1.391 . S
C740 C741 1.400 . S
C741 C735 1.491 . S
C741 C740 1.400 . S
C741 C742 1.398 . S
C742 H730 0.950 . S
C742 C741 1.398 . S
C742 C743 1.391 . S
C743 H731 0.950 . S
C743 C739 1.393 . S
C743 C742 1.391 . S
H744 C752 0.950 . S
H745 C757 0.950 . S
H746 C754 0.950 . S
H747 C756 0.950 1_565 S
H748 C758 0.950 . S
H749 C760 0.950 . S
H750 C762 0.950 1_545 S
H751 C763 0.950 . S
C752 H744 0.950 . S
C752 C753 1.386 . S
C752 C754 1.391 . S
C753 C752 1.386 . S
C753 C757 1.393 . S
C754 H746 0.950 . S
C754 C752 1.391 . S
C754 C755 1.400 . S
C755 C754 1.400 . S
C755 C756 1.398 . S
C755 C761 1.491 1_546 S
C756 H747 0.950 1_545 S
C756 C755 1.398 . S
C756 C757 1.391 . S
C757 H745 0.950 . S
C757 C753 1.393 . S
C757 C756 1.391 . S
C758 H748 0.950 . S
C758 C759 1.386 . S
C758 C760 1.391 . S
C759 C758 1.386 . S
C759 C763 1.393 . S
C760 H749 0.950 . S
C760 C758 1.391 . S
C760 C761 1.400 . S
C761 C755 1.491 1_564 S
C761 C760 1.400 . S
C761 C762 1.398 . S
C762 H750 0.950 1_565 S
C762 C761 1.398 . S
C762 C763 1.391 . S
C763 H751 0.950 . S
C763 C759 1.393 . S
C763 C762 1.391 . S
H764 C772 0.950 . S
H765 C777 0.950 . S
H766 C774 0.950 . S
H767 C776 0.950 . S
H768 C778 0.950 . S
H769 C780 0.950 . S
H770 C782 0.950 . S
H771 C783 0.950 . S
C772 H764 0.950 . S
C772 C773 1.386 . S
C772 C774 1.391 . S
C773 C772 1.386 . S
C773 C777 1.393 . S
C774 H766 0.950 . S
C774 C772 1.391 . S
C774 C775 1.400 . S
C775 C774 1.400 . S
C775 C776 1.398 . S
C775 C781 1.491 . S
C776 H767 0.950 . S
C776 C775 1.398 . S
C776 C777 1.391 . S
C777 H765 0.950 . S
C777 C773 1.393 . S
C777 C776 1.391 . S
C778 H768 0.950 . S
C778 C779 1.386 . S
C778 C780 1.391 . S
C779 C778 1.386 . S
C779 C783 1.393 . S
C780 H769 0.950 . S
C780 C778 1.391 . S
C780 C781 1.400 . S
C781 C775 1.491 . S
C781 C780 1.400 . S
C781 C782 1.398 . S
C782 H770 0.950 . S
C782 C781 1.398 . S
C782 C783 1.391 . S
C783 H771 0.950 . S
C783 C779 1.393 . S
C783 C782 1.391 . S
H784 C792 0.950 . S
H785 C797 0.950 1_565 S
H786 C794 0.950 . S
H787 C796 0.950 . S
H788 C798 0.950 . S
H789 C800 0.950 . S
H790 C802 0.950 1_545 S
H791 C803 0.950 . S
C792 H784 0.950 . S
C792 C793 1.386 . S
C792 C794 1.391 . S
C793 C792 1.386 . S
C793 C797 1.393 . S
C794 H786 0.950 . S
C794 C792 1.391 . S
C794 C795 1.396 1_545 S
C795 C794 1.396 1_565 S
C795 C796 1.400 . S
C795 C801 1.493 . S
C796 H787 0.950 . S
C796 C795 1.400 . S
C796 C797 1.391 1_565 S
C797 H785 0.950 1_545 S
C797 C793 1.393 . S
C797 C796 1.391 1_545 S
C798 H788 0.950 . S
C798 C799 1.386 . S
C798 C800 1.391 . S
C799 C798 1.386 . S
C799 C803 1.393 . S
C800 H789 0.950 . S
C800 C798 1.391 . S
C800 C801 1.400 . S
C801 C795 1.493 . S
C801 C800 1.400 . S
C801 C802 1.398 . S
C802 H790 0.950 1_565 S
C802 C801 1.398 . S
C802 C803 1.391 . S
C803 H791 0.950 . S
C803 C799 1.393 . S
C803 C802 1.391 . S
H804 C812 0.950 . S
H805 C817 0.950 . S
H806 C814 0.950 . S
H807 C816 0.950 . S
H808 C818 0.950 . S
H809 C820 0.950 . S
H810 C822 0.950 . S
H811 C823 0.950 . S
C812 H804 0.950 . S
C812 C813 1.386 . S
C812 C814 1.391 . S
C813 C812 1.386 . S
C813 C817 1.393 . S
C814 H806 0.950 . S
C814 C812 1.391 . S
C814 C815 1.400 . S
C815 C814 1.400 . S
C815 C816 1.398 . S
C815 C821 1.491 . S
C816 H807 0.950 . S
C816 C815 1.398 . S
C816 C817 1.391 . S
C817 H805 0.950 . S
C817 C813 1.393 . S
C817 C816 1.391 . S
C818 H808 0.950 . S
C818 C819 1.386 . S
C818 C820 1.391 . S
C819 C818 1.386 . S
C819 C823 1.393 . S
C820 H809 0.950 . S
C820 C818 1.391 . S
C820 C821 1.400 . S
C821 C815 1.491 . S
C821 C820 1.400 . S
C821 C822 1.398 . S
C822 H810 0.950 . S
C822 C821 1.398 . S
C822 C823 1.391 . S
C823 H811 0.950 . S
C823 C819 1.393 . S
C823 C822 1.391 . S
H824 C832 0.950 . S
H825 C837 0.950 . S
H826 C834 0.950 1_545 S
H827 C836 0.950 . S
H828 C838 0.950 . S
H829 C840 0.970 . S
H830 C842 0.950 . S
H831 C843 0.950 . S
C832 H824 0.950 . S
C832 C833 1.386 . S
C832 C834 1.391 . S
C833 C832 1.386 . S
C833 C837 1.393 . S
C834 H826 0.950 1_565 S
C834 C832 1.391 . S
C834 C835 1.400 . S
C835 C834 1.400 . S
C835 C836 1.398 . S
C835 C841 1.491 1_564 S
C836 H827 0.950 . S
C836 C835 1.398 . S
C836 C837 1.391 . S
C837 H825 0.950 . S
C837 C833 1.393 . S
C837 C836 1.391 . S
C838 H828 0.950 . S
C838 C839 1.386 . S
C838 C840 1.391 . S
C839 C838 1.386 . S
C839 C843 1.393 . S
C840 H829 0.970 . S
C840 C838 1.391 . S
C840 C841 1.400 . S
C841 C835 1.491 1_546 S
C841 C840 1.400 . S
C841 C842 1.398 . S
C842 H830 0.950 . S
C842 C841 1.398 . S
C842 C843 1.391 . S
C843 H831 0.950 . S
C843 C839 1.393 . S
C843 C842 1.391 . S
H844 C852 0.950 . S
H845 C857 0.950 . S
H846 C854 0.950 . S
H847 C856 0.950 . S
H848 C858 0.950 . S
H849 C860 0.950 . S
H850 C862 0.950 . S
H851 C863 0.950 . S
C852 H844 0.950 . S
C852 C853 1.386 . S
C852 C854 1.391 . S
C853 C852 1.386 . S
C853 C857 1.393 . S
C854 H846 0.950 . S
C854 C852 1.391 . S
C854 C855 1.400 . S
C855 C854 1.400 . S
C855 C856 1.398 . S
C855 C861 1.491 . S
C856 H847 0.950 . S
C856 C855 1.398 . S
C856 C857 1.391 . S
C857 H845 0.950 . S
C857 C853 1.393 . S
C857 C856 1.391 . S
C858 H848 0.950 . S
C858 C859 1.386 . S
C858 C860 1.391 . S
C859 C858 1.386 . S
C859 C863 1.393 . S
C860 H849 0.950 . S
C860 C858 1.391 . S
C860 C861 1.400 . S
C861 C855 1.491 . S
C861 C860 1.400 . S
C861 C862 1.398 . S
C862 H850 0.950 . S
C862 C861 1.398 . S
C862 C863 1.391 . S
C863 H851 0.950 . S
C863 C859 1.393 . S
C863 C862 1.391 . S
C233 C158 1.339 . S
C239 C12 1.356 . S
C253 C222 1.448 . S
C259 C18 1.416 . S
C273 C40 1.458 . S
C279 C130 1.429 . S
C293 C194 1.323 . S
C299 C54 1.320 . S
C313 C68 1.383 . S
C319 C186 1.357 . S
C333 C74 1.446 . S
C339 C166 1.488 . S
C353 C88 1.474 . S
C359 C214 1.478 . S
C373 C102 1.346 . S
C379 C138 1.379 . S
C393 C46 1.480 . S
C399 C116 1.472 . S
C413 C144 1.338 . S
C419 C26 1.385 . S
C433 C172 1.440 . S
C439 C82 1.459 . S
C453 C200 1.318 . S
C459 C110 1.358 . S
C473 C60 1.407 . S
C479 C124 1.453 . S
C493 C152 1.315 . S
C499 C96 1.326 . S
C513 C208 1.483 . S
C519 C32 1.468 . S
C533 C4 1.360 . S
C539 C180 1.374 . S
C553 C5 1.069 . S
C559 C61 1.045 . S
C573 C25 1.090 . S
C579 C81 1.080 . S
C593 C33 1.038 . S
C599 C95 1.118 . S
C613 C109 1.082 . S
C619 C47 1.006 . S
C633 C123 1.147 . S
C639 C179 1.151 . S
C653 C187 1.041 . S
C659 C131 0.994 . S
C673 C151 1.097 . S
C679 C207 1.116 . S
C693 C215 1.054 . S
C699 C159 1.096 . S
C713 C103 1.078 . S
C719 C19 1.028 . S
C733 C39 1.107 . S
C739 C67 1.096 . S
C753 C53 1.137 . S
C759 C75 1.069 . S
C773 C11 1.090 . S
C779 C89 1.032 . S
C793 C137 1.152 . S
C799 C221 1.174 . S
C813 C173 1.007 . S
C819 C145 1.039 . S
C833 C165 1.095 . S
C839 C193 1.077 . S
C853 C201 1.080 . S
C859 C117 1.096 . S
