# Generated by pormake.
# Topology uoy, (4)-cn, num edge types: 1
# Building blocks:
#     Node 0, Type 0, BuildingBlock: AZAVOO_clean_sbu_0, # of connection points: 4
#     Node 1, Type 0, BuildingBlock: AZAVOO_clean_sbu_0, # of connection points: 4
#     Node 2, Type 0, BuildingBlock: AZAVOO_clean_sbu_0, # of connection points: 4
#     Node 3, Type 0, BuildingBlock: AZAVOO_clean_sbu_0, # of connection points: 4
#     Node 4, Type 0, BuildingBlock: AZAVOO_clean_sbu_0, # of connection points: 4
#     Node 5, Type 0, BuildingBlock: AZAVOO_clean_sbu_0, # of connection points: 4
#     Node 6, Type 0, BuildingBlock: AZAVOO_clean_sbu_0, # of connection points: 4
#     Node 7, Type 0, BuildingBlock: AZAVOO_clean_sbu_0, # of connection points: 4
#     Node 8, Type 0, BuildingBlock: AZAVOO_clean_sbu_0, # of connection points: 4
#     Node 9, Type 0, BuildingBlock: AZAVOO_clean_sbu_0, # of connection points: 4
#     Node 10, Type 0, BuildingBlock: AZAVOO_clean_sbu_0, # of connection points: 4
#     Node 11, Type 0, BuildingBlock: AZAVOO_clean_sbu_0, # of connection points: 4
#     Node 12, Type 0, BuildingBlock: AZAVOO_clean_sbu_0, # of connection points: 4
#     Node 13, Type 0, BuildingBlock: AZAVOO_clean_sbu_0, # of connection points: 4
#     Node 14, Type 0, BuildingBlock: AZAVOO_clean_sbu_0, # of connection points: 4
#     Node 15, Type 0, BuildingBlock: AZAVOO_clean_sbu_0, # of connection points: 4
#     Edge 16, Type (0, 0), BuildingBlock: CIFDUS_clean_linker_0, # of connection points: 2
#     Edge 17, Type (0, 0), BuildingBlock: CIFDUS_clean_linker_0, # of connection points: 2
#     Edge 18, Type (0, 0), BuildingBlock: CIFDUS_clean_linker_0, # of connection points: 2
#     Edge 19, Type (0, 0), BuildingBlock: CIFDUS_clean_linker_0, # of connection points: 2
#     Edge 20, Type (0, 0), BuildingBlock: CIFDUS_clean_linker_0, # of connection points: 2
#     Edge 21, Type (0, 0), BuildingBlock: CIFDUS_clean_linker_0, # of connection points: 2
#     Edge 22, Type (0, 0), BuildingBlock: CIFDUS_clean_linker_0, # of connection points: 2
#     Edge 23, Type (0, 0), BuildingBlock: CIFDUS_clean_linker_0, # of connection points: 2
#     Edge 24, Type (0, 0), BuildingBlock: CIFDUS_clean_linker_0, # of connection points: 2
#     Edge 25, Type (0, 0), BuildingBlock: CIFDUS_clean_linker_0, # of connection points: 2
#     Edge 26, Type (0, 0), BuildingBlock: CIFDUS_clean_linker_0, # of connection points: 2
#     Edge 27, Type (0, 0), BuildingBlock: CIFDUS_clean_linker_0, # of connection points: 2
#     Edge 28, Type (0, 0), BuildingBlock: CIFDUS_clean_linker_0, # of connection points: 2
#     Edge 29, Type (0, 0), BuildingBlock: CIFDUS_clean_linker_0, # of connection points: 2
#     Edge 30, Type (0, 0), BuildingBlock: CIFDUS_clean_linker_0, # of connection points: 2
#     Edge 31, Type (0, 0), BuildingBlock: CIFDUS_clean_linker_0, # of connection points: 2
#     Edge 32, Type (0, 0), BuildingBlock: CIFDUS_clean_linker_0, # of connection points: 2
#     Edge 33, Type (0, 0), BuildingBlock: CIFDUS_clean_linker_0, # of connection points: 2
#     Edge 34, Type (0, 0), BuildingBlock: CIFDUS_clean_linker_0, # of connection points: 2
#     Edge 35, Type (0, 0), BuildingBlock: CIFDUS_clean_linker_0, # of connection points: 2
#     Edge 36, Type (0, 0), BuildingBlock: CIFDUS_clean_linker_0, # of connection points: 2
#     Edge 37, Type (0, 0), BuildingBlock: CIFDUS_clean_linker_0, # of connection points: 2
#     Edge 38, Type (0, 0), BuildingBlock: CIFDUS_clean_linker_0, # of connection points: 2
#     Edge 39, Type (0, 0), BuildingBlock: CIFDUS_clean_linker_0, # of connection points: 2
#     Edge 40, Type (0, 0), BuildingBlock: CIFDUS_clean_linker_0, # of connection points: 2
#     Edge 41, Type (0, 0), BuildingBlock: CIFDUS_clean_linker_0, # of connection points: 2
#     Edge 42, Type (0, 0), BuildingBlock: CIFDUS_clean_linker_0, # of connection points: 2
#     Edge 43, Type (0, 0), BuildingBlock: CIFDUS_clean_linker_0, # of connection points: 2
#     Edge 44, Type (0, 0), BuildingBlock: CIFDUS_clean_linker_0, # of connection points: 2
#     Edge 45, Type (0, 0), BuildingBlock: CIFDUS_clean_linker_0, # of connection points: 2
#     Edge 46, Type (0, 0), BuildingBlock: CIFDUS_clean_linker_0, # of connection points: 2
#     Edge 47, Type (0, 0), BuildingBlock: CIFDUS_clean_linker_0, # of connection points: 2
# Relax obj value: 0.172
# Max RMSD: 0.200
# Mean RMSD: 0.200
data_MOF--net-uoy--node1-AZAVOO_clean_sbu_0--edge1-CIFDUS_clean_linker_0
_symmetry_space_group_name_H-M    P1
_symmetry_Int_Tables_number       1
_symmetry_cell_setting            triclinic
loop_
_symmetry_equiv_pos_as_xyz
'x, y, z'
_cell_length_a     23.212727
_cell_length_b     23.05122
_cell_length_c     96.522998
_cell_angle_alpha  90.019756
_cell_angle_beta   90.079467
_cell_angle_gamma 90.025127
loop_
_atom_site_label
_atom_site_type_symbol
_atom_site_fract_x
_atom_site_fract_y
_atom_site_fract_z
_atom_type_partial_charge
Mg0 Mg 0.30299 0.11468 0.17029 0.0
O1 O 0.37868 0.05473 0.17467 0.0
O2 O 0.36833 0.97377 0.16218 0.0
Mg3 Mg 0.28772 0.98464 0.14891 0.0
C4 C 0.39571 0.00452 0.17099 0.0
C5 C 0.28402 0.19004 0.19631 0.0
O6 O 0.2345 0.19798 0.18998 0.0
O7 O 0.24133 0.05758 0.18228 0.0
O8 O 0.23129 0.98065 0.16838 0.0
O9 O 0.35262 0.15558 0.15303 0.0
O10 O 0.29463 0.08026 0.15057 0.0
C11 C 0.2192 0.00841 0.17945 0.0
C12 C 0.33036 0.11613 0.14507 0.0
O13 O 0.32354 0.16198 0.19017 0.0
Mg14 Mg 0.81965 0.76329 0.42108 0.0
O15 O 0.88313 0.83624 0.4147 0.0
O16 O 0.88919 0.83164 0.39163 0.0
Mg17 Mg 0.83115 0.75945 0.38334 0.0
C18 C 0.90281 0.85508 0.40317 0.0
C19 C 0.83584 0.72593 0.45093 0.0
O20 O 0.81218 0.6801 0.44515 0.0
O21 O 0.88524 0.69106 0.41706 0.0
O22 O 0.88479 0.68869 0.39393 0.0
O23 O 0.74603 0.82627 0.41868 0.0
O24 O 0.77981 0.76902 0.40215 0.0
C25 C 0.90126 0.6685 0.40561 0.0
C26 C 0.74573 0.81 0.40585 0.0
O27 O 0.84697 0.7698 0.44344 0.0
Mg28 Mg 0.24729 0.34428 0.67138 0.0
O29 O 0.17063 0.40232 0.665 0.0
O30 O 0.17916 0.41859 0.6423 0.0
Mg31 Mg 0.26082 0.37472 0.63427 0.0
C32 C 0.1519 0.42428 0.65371 0.0
C33 C 0.18783 0.33285 0.70009 0.0
O34 O 0.15816 0.29444 0.69299 0.0
O35 O 0.31295 0.41914 0.67064 0.0
O36 O 0.31969 0.43131 0.64772 0.0
O37 O 0.1947 0.26579 0.66526 0.0
O38 O 0.25413 0.31303 0.65137 0.0
C39 C 0.33516 0.44394 0.66007 0.0
C40 C 0.21637 0.2731 0.65305 0.0
O41 O 0.2272 0.36151 0.69404 0.0
Mg42 Mg 0.65148 0.78195 0.93052 0.0
O43 O 0.58212 0.7136 0.93433 0.0
O44 O 0.50827 0.729 0.91998 0.0
Mg45 Mg 0.53176 0.80756 0.90671 0.0
C46 C 0.53273 0.69996 0.92957 0.0
C47 C 0.7009 0.70364 0.9537 0.0
O48 O 0.68918 0.66411 0.9443 0.0
O49 O 0.60023 0.85387 0.9409 0.0
O50 O 0.5299 0.86918 0.92549 0.0
O51 O 0.69008 0.72291 0.91506 0.0
O52 O 0.6246 0.78952 0.91002 0.0
C53 C 0.55565 0.88136 0.93683 0.0
C54 C 0.65632 0.74679 0.90601 0.0
O55 O 0.6921 0.75678 0.95093 0.0
Mg56 Mg 0.24072 0.30489 0.0581 0.0
O57 O 0.30711 0.37402 0.06517 0.0
O58 O 0.3058 0.37136 0.08832 0.0
Mg59 Mg 0.23973 0.30529 0.09593 0.0
C60 C 0.32608 0.39102 0.07695 0.0
C61 C 0.20516 0.31235 0.02839 0.0
O62 O 0.17127 0.27326 0.03402 0.0
O63 O 0.16255 0.36171 0.06346 0.0
O64 O 0.16411 0.35556 0.08654 0.0
O65 O 0.31282 0.23974 0.05928 0.0
O66 O 0.25213 0.25982 0.07631 0.0
C67 C 0.14068 0.37301 0.0753 0.0
C68 C 0.29738 0.23329 0.07207 0.0
O69 O 0.24168 0.33811 0.03604 0.0
Mg70 Mg 0.62101 0.79316 0.30822 0.0
O71 O 0.57116 0.8764 0.30328 0.0
O72 O 0.5031 0.88599 0.31949 0.0
Mg73 Mg 0.51375 0.81293 0.33529 0.0
C74 C 0.52862 0.90346 0.30857 0.0
C75 C 0.70681 0.78179 0.28348 0.0
O76 O 0.74441 0.77671 0.29359 0.0
O77 O 0.54773 0.7338 0.30207 0.0
O78 O 0.48537 0.74322 0.31953 0.0
O79 O 0.68285 0.84628 0.32019 0.0
O80 O 0.60541 0.80478 0.32917 0.0
C81 C 0.5011 0.71982 0.30815 0.0
C82 C 0.64968 0.83794 0.3308 0.0
O83 O 0.65415 0.79044 0.28632 0.0
Mg84 Mg 0.28221 0.11979 0.55557 0.0
O85 O 0.20779 0.056 0.55401 0.0
O86 O 0.21928 0.98561 0.56965 0.0
Mg87 Mg 0.30132 0.00672 0.58171 0.0
C88 C 0.19114 0.00936 0.55982 0.0
C89 C 0.22241 0.19284 0.53146 0.0
O90 O 0.19926 0.22309 0.54155 0.0
O91 O 0.34501 0.05678 0.54569 0.0
O92 O 0.35622 0.99014 0.5623 0.0
O93 O 0.23119 0.17005 0.57093 0.0
O94 O 0.29205 0.09994 0.57646 0.0
C95 C 0.36771 0.01027 0.55029 0.0
C96 C 0.25399 0.13716 0.58035 0.0
O97 O 0.25733 0.15212 0.53427 0.0
Mg98 Mg 0.84475 0.73633 0.81449 0.0
O99 O 0.90961 0.666 0.82107 0.0
O100 O 0.92825 0.68123 0.84348 0.0
Mg101 Mg 0.87587 0.75913 0.85119 0.0
C102 C 0.93501 0.65206 0.83234 0.0
C103 C 0.82301 0.74355 0.78432 0.0
O104 O 0.7887 0.78148 0.79025 0.0
O105 O 0.91319 0.80857 0.81422 0.0
O106 O 0.92166 0.82426 0.83699 0.0
O107 O 0.77246 0.67736 0.821 0.0
O108 O 0.81468 0.74261 0.83447 0.0
C109 C 0.93276 0.83795 0.82444 0.0
C110 C 0.77823 0.7012 0.83306 0.0
O111 O 0.85781 0.71527 0.79188 0.0
Mg112 Mg 0.75179 0.66366 0.67581 0.0
O113 O 0.82082 0.59296 0.67269 0.0
O114 O 0.81254 0.56509 0.65058 0.0
Mg115 Mg 0.73884 0.61403 0.63996 0.0
C116 C 0.8377 0.56275 0.66235 0.0
C117 C 0.74119 0.70687 0.70462 0.0
O118 O 0.7112 0.7426 0.69683 0.0
O119 O 0.67725 0.59801 0.67688 0.0
O120 O 0.66782 0.57917 0.65426 0.0
O121 O 0.81573 0.72987 0.66841 0.0
O122 O 0.75393 0.68287 0.65498 0.0
C123 C 0.65012 0.57492 0.66675 0.0
C124 C 0.79671 0.71779 0.65615 0.0
O125 O 0.76488 0.66327 0.69897 0.0
Mg126 Mg 0.34027 0.28487 0.92554 0.0
O127 O 0.40588 0.35521 0.93083 0.0
O128 O 0.48743 0.33925 0.91925 0.0
Mg129 Mg 0.47211 0.25928 0.9057 0.0
C130 C 0.45739 0.369 0.92772 0.0
C131 C 0.28523 0.36002 0.94969 0.0
O132 O 0.30885 0.4036 0.94304 0.0
O133 O 0.38782 0.21533 0.93783 0.0
O134 O 0.46533 0.19931 0.92465 0.0
O135 O 0.30816 0.33925 0.90802 0.0
O136 O 0.37785 0.27451 0.9062 0.0
C137 C 0.43432 0.18794 0.93523 0.0
C138 C 0.34654 0.3137 0.90042 0.0
O139 O 0.28863 0.3091 0.94469 0.0
Mg140 Mg 0.81633 0.83003 0.17728 0.0
O141 O 0.74307 0.89499 0.18012 0.0
O142 O 0.75107 0.96461 0.16413 0.0
Mg143 Mg 0.82901 0.9429 0.15085 0.0
C144 C 0.72551 0.94167 0.17445 0.0
C145 C 0.74696 0.78062 0.20179 0.0
O146 O 0.70708 0.7811 0.19212 0.0
O147 O 0.88194 0.89223 0.18616 0.0
O148 O 0.88897 0.95886 0.16944 0.0
O149 O 0.75967 0.78037 0.16328 0.0
O150 O 0.81856 0.85003 0.15625 0.0
C151 C 0.90347 0.93869 0.18126 0.0
C152 C 0.77809 0.81352 0.15339 0.0
O153 O 0.79792 0.7958 0.19871 0.0
Mg154 Mg 0.1422 0.26555 0.42375 0.0
O155 O 0.08114 0.18749 0.4204 0.0
O156 O 0.0548 0.19008 0.39812 0.0
Mg157 Mg 0.09679 0.26759 0.3873 0.0
C158 C 0.05387 0.16621 0.41006 0.0
C159 C 0.12887 0.29367 0.45572 0.0
O160 O 0.11718 0.34618 0.45124 0.0
O161 O 0.0681 0.33179 0.42354 0.0
O162 O 0.05173 0.33539 0.40074 0.0
O163 O 0.21841 0.21121 0.41689 0.0
O164 O 0.16376 0.26426 0.40308 0.0
C165 C 0.04356 0.35459 0.41299 0.0
C166 C 0.20507 0.22794 0.40451 0.0
O167 O 0.13824 0.2533 0.44703 0.0
Mg168 Mg 0.76872 0.83187 0.55554 0.0
O169 O 0.84341 0.89477 0.55279 0.0
O170 O 0.83013 0.97181 0.56645 0.0
Mg171 Mg 0.74759 0.95576 0.57862 0.0
C172 C 0.8593 0.94389 0.55748 0.0
C173 C 0.78372 0.73832 0.53169 0.0
O174 O 0.75305 0.70465 0.53982 0.0
O175 O 0.70585 0.88952 0.54384 0.0
O176 O 0.69308 0.96217 0.55886 0.0
O177 O 0.81842 0.7885 0.57219 0.0
O178 O 0.75746 0.86085 0.57573 0.0
C179 C 0.68216 0.93718 0.54735 0.0
C180 C 0.79509 0.82531 0.58065 0.0
O181 O 0.79601 0.78944 0.53557 0.0
Mg182 Mg 0.16562 0.24146 0.81043 0.0
O183 O 0.10204 0.31504 0.81565 0.0
O184 O 0.09482 0.31984 0.8387 0.0
Mg185 Mg 0.14734 0.24554 0.84806 0.0
C186 C 0.08278 0.3391 0.82663 0.0
C187 C 0.15177 0.29564 0.78141 0.0
O188 O 0.17424 0.33913 0.78837 0.0
O189 O 0.09834 0.17016 0.81439 0.0
O190 O 0.09244 0.17548 0.83746 0.0
O191 O 0.23779 0.30577 0.81337 0.0
O192 O 0.20311 0.24873 0.82981 0.0
C193 C 0.07817 0.15216 0.82593 0.0
C194 C 0.23673 0.29029 0.82624 0.0
O195 O 0.14097 0.24853 0.78773 0.0
Mg196 Mg 0.74449 0.62105 0.06249 0.0
O197 O 0.66285 0.56364 0.0638 0.0
O198 O 0.6615 0.52984 0.08553 0.0
Mg199 Mg 0.73935 0.56314 0.09777 0.0
C200 C 0.63905 0.53431 0.07348 0.0
C201 C 0.7598 0.67325 0.03443 0.0
O202 O 0.78126 0.71145 0.04313 0.0
O203 O 0.80547 0.54323 0.06159 0.0
O204 O 0.80683 0.51859 0.08397 0.0
O205 O 0.69464 0.69866 0.07012 0.0
O206 O 0.74072 0.63595 0.08344 0.0
C207 C 0.82627 0.51381 0.07163 0.0
C208 C 0.70807 0.68055 0.08239 0.0
O209 O 0.73904 0.62637 0.0392 0.0
Mg210 Mg 0.28725 0.31061 0.30483 0.0
O211 O 0.35111 0.23664 0.30066 0.0
O212 O 0.4167 0.23331 0.31757 0.0
Mg213 Mg 0.39407 0.30575 0.33274 0.0
C214 C 0.39521 0.21377 0.30634 0.0
C215 C 0.25294 0.25683 0.27666 0.0
O216 O 0.26048 0.20973 0.28408 0.0
O217 O 0.35158 0.3809 0.29923 0.0
O218 O 0.4145 0.37686 0.31676 0.0
O219 O 0.23351 0.2476 0.31635 0.0
O220 O 0.30262 0.30034 0.32597 0.0
C221 C 0.39659 0.39903 0.30543 0.0
C222 C 0.26465 0.25971 0.32713 0.0
O223 O 0.25754 0.30618 0.28238 0.0
H224 H 0.28168 0.12654 0.08208 0.0
H225 H 0.38878 0.27813 0.08573 0.0
H226 H 0.41844 0.24843 0.10901 0.0
H227 H 0.39533 0.19131 0.12986 0.0
H228 H 0.28415 0.04186 0.12614 0.0
H229 H 0.27601 0.05752 0.10133 0.0
C230 C 0.3138 0.15128 0.08774 0.0
C231 C 0.33334 0.20404 0.08234 0.0
C232 C 0.32885 0.13492 0.10125 0.0
C233 C 0.37392 0.23686 0.08974 0.0
C234 C 0.39017 0.22029 0.10311 0.0
C235 C 0.37072 0.16121 0.12355 0.0
C236 C 0.33914 0.11648 0.12991 0.0
C237 C 0.36509 0.17124 0.10926 0.0
C238 C 0.30815 0.07728 0.12158 0.0
C239 C 0.30325 0.08628 0.10735 0.0
H240 H 0.78425 0.87761 0.38539 0.0
H241 H 0.63043 0.80126 0.40227 0.0
H242 H 0.58082 0.81436 0.38007 0.0
H243 H 0.59008 0.82626 0.35489 0.0
H244 H 0.74685 0.8974 0.33787 0.0
H245 H 0.78629 0.90873 0.36112 0.0
C246 C 0.73913 0.86617 0.38431 0.0
C247 C 0.71075 0.83845 0.39526 0.0
C248 C 0.71204 0.87169 0.37141 0.0
C249 C 0.65257 0.82328 0.39391 0.0
C250 C 0.62462 0.83 0.38118 0.0
C251 C 0.6322 0.84574 0.35627 0.0
C252 C 0.66615 0.85937 0.34466 0.0
C253 C 0.65518 0.85087 0.36966 0.0
C254 C 0.72024 0.88555 0.34663 0.0
C255 C 0.74295 0.8919 0.35993 0.0
H256 H 0.17524 0.21042 0.59172 0.0
H257 H 0.30057 0.07932 0.60231 0.0
H258 H 0.28957 0.10206 0.62679 0.0
H259 H 0.25757 0.17075 0.64464 0.0
H260 H 0.13762 0.30587 0.634 0.0
H261 H 0.13207 0.2695 0.61019 0.0
C262 C 0.19929 0.18607 0.5994 0.0
C263 C 0.23937 0.14396 0.59516 0.0
C264 C 0.1937 0.20024 0.61349 0.0
C265 C 0.26977 0.11233 0.60526 0.0
C266 C 0.26364 0.12538 0.61929 0.0
C267 C 0.22839 0.19043 0.63721 0.0
C268 C 0.19741 0.24011 0.64095 0.0
C269 C 0.22749 0.17076 0.62346 0.0
C270 C 0.16096 0.2668 0.63128 0.0
C271 C 0.15843 0.24648 0.61766 0.0
H272 H 0.67782 0.74349 0.84175 0.0
H273 H 0.81115 0.62089 0.85183 0.0
H274 H 0.77685 0.61606 0.87579 0.0
H275 H 0.72205 0.66232 0.89448 0.0
H276 H 0.59423 0.79185 0.88452 0.0
H277 H 0.61213 0.77767 0.85989 0.0
C278 C 0.69747 0.71385 0.8491 0.0
C279 C 0.74611 0.68197 0.84518 0.0
C280 C 0.67926 0.71367 0.86293 0.0
C281 C 0.7728 0.64481 0.85471 0.0
C282 C 0.75369 0.64276 0.86841 0.0
C283 C 0.69718 0.68649 0.88692 0.0
C284 C 0.65782 0.72898 0.89133 0.0
C285 C 0.70896 0.6794 0.87278 0.0
C286 C 0.62535 0.7594 0.88141 0.0
C287 C 0.63566 0.75146 0.86731 0.0
H288 H 0.85927 0.74592 0.59452 0.0
H289 H 0.75813 0.90104 0.60049 0.0
H290 H 0.76195 0.88774 0.62546 0.0
H291 H 0.77763 0.82208 0.64509 0.0
H292 H 0.86999 0.66232 0.63896 0.0
H293 H 0.8872 0.68756 0.61467 0.0
C294 C 0.83922 0.77754 0.6013 0.0
C295 C 0.80766 0.82383 0.59563 0.0
C296 C 0.8398 0.76846 0.61566 0.0
C297 C 0.78221 0.86466 0.60455 0.0
C298 C 0.78421 0.85702 0.61886 0.0
C299 C 0.80354 0.7942 0.63852 0.0
C300 C 0.82313 0.74097 0.64363 0.0
C301 C 0.81059 0.80772 0.62447 0.0
C302 C 0.8553 0.70393 0.63512 0.0
C303 C 0.86453 0.71808 0.62124 0.0
H304 H 0.27932 0.38471 0.88466 0.0
H305 H 0.41858 0.2611 0.88203 0.0
H306 H 0.40482 0.25345 0.85713 0.0
H307 H 0.33911 0.26458 0.83737 0.0
H308 H 0.19743 0.38433 0.83999 0.0
H309 H 0.22658 0.41174 0.86349 0.0
C310 C 0.30775 0.35743 0.87858 0.0
C311 C 0.34884 0.32237 0.88526 0.0
C312 C 0.29867 0.35208 0.86424 0.0
C313 C 0.38593 0.28787 0.87721 0.0
C314 C 0.37797 0.28322 0.86294 0.0
C315 C 0.31649 0.29868 0.84289 0.0
C316 C 0.26657 0.32268 0.83711 0.0
C317 C 0.33246 0.31261 0.8565 0.0
C318 C 0.23644 0.36589 0.84431 0.0
C319 C 0.25271 0.38098 0.85778 0.0
H320 H 0.74219 0.78714 0.08953 0.0
H321 H 0.64378 0.64029 0.1036 0.0
H322 H 0.64841 0.67603 0.12745 0.0
H323 H 0.69751 0.73731 0.14443 0.0
H324 H 0.80666 0.87719 0.13047 0.0
H325 H 0.78056 0.85666 0.1065 0.0
C326 C 0.71967 0.76463 0.09778 0.0
C327 C 0.69221 0.71178 0.09497 0.0
C328 C 0.72599 0.78339 0.11152 0.0
C329 C 0.66447 0.68157 0.10565 0.0
C330 C 0.66783 0.70159 0.11927 0.0
C331 C 0.71476 0.76404 0.13617 0.0
C332 C 0.75478 0.808 0.13921 0.0
C333 C 0.70125 0.7506 0.12239 0.0
C334 C 0.77625 0.84265 0.12841 0.0
C335 C 0.76141 0.83088 0.11468 0.0
H336 H 0.15919 0.17349 0.38263 0.0
H337 H 0.31781 0.24417 0.39846 0.0
H338 H 0.35564 0.2524 0.37486 0.0
H339 H 0.33361 0.2602 0.35003 0.0
H340 H 0.17271 0.193 0.33431 0.0
H341 H 0.1456 0.16228 0.35758 0.0
C342 C 0.20293 0.18841 0.38088 0.0
C343 C 0.2357 0.20872 0.39209 0.0
C344 C 0.22311 0.1952 0.36732 0.0
C345 C 0.29225 0.22787 0.3899 0.0
C346 C 0.31337 0.23351 0.37641 0.0
C347 C 0.29321 0.23777 0.35161 0.0
C348 C 0.25454 0.23043 0.34052 0.0
C349 C 0.27767 0.22071 0.36505 0.0
C350 C 0.20287 0.20004 0.34272 0.0
C351 C 0.18727 0.18249 0.35602 0.0
H352 H 0.21903 0.26367 0.21187 0.0
H353 H 0.36064 0.14261 0.21434 0.0
H354 H 0.36162 0.15134 0.23947 0.0
H355 H 0.31973 0.18965 0.26082 0.0
H356 H 0.18387 0.31659 0.25876 0.0
H357 H 0.18259 0.30903 0.23336 0.0
C358 C 0.25046 0.23976 0.21792 0.0
C359 C 0.28941 0.20231 0.21126 0.0
C360 C 0.25124 0.24539 0.23242 0.0
C361 C 0.33029 0.17192 0.2192 0.0
C362 C 0.33065 0.1765 0.23359 0.0
C363 C 0.28966 0.21535 0.25477 0.0
C364 C 0.25108 0.25262 0.2615 0.0
C365 C 0.29074 0.21228 0.2403 0.0
C366 C 0.21342 0.28712 0.25368 0.0
C367 C 0.21285 0.2829 0.23921 0.0
H368 H 0.79396 0.65072 0.47011 0.0
H369 H 0.89081 0.80974 0.46585 0.0
H370 H 0.88876 0.82357 0.49089 0.0
H371 H 0.8506 0.79643 0.51347 0.0
H372 H 0.74952 0.64022 0.51784 0.0
H373 H 0.76289 0.61889 0.49323 0.0
C374 C 0.81536 0.68795 0.47467 0.0
C375 C 0.84181 0.72957 0.46612 0.0
C376 C 0.81289 0.69635 0.48905 0.0
C377 C 0.86959 0.77742 0.47219 0.0
C378 C 0.86839 0.78541 0.4865 0.0
C379 C 0.83189 0.75734 0.5091 0.0
C380 C 0.79831 0.72045 0.51742 0.0
C381 C 0.83868 0.74609 0.49496 0.0
C382 C 0.77519 0.66958 0.51163 0.0
C383 C 0.78265 0.65747 0.49756 0.0
H384 H 0.1265 0.26185 0.71698 0.0
H385 H 0.23058 0.41712 0.71711 0.0
H386 H 0.22391 0.42213 0.74232 0.0
H387 H 0.19486 0.37838 0.76435 0.0
H388 H 0.09517 0.22023 0.76431 0.0
H389 H 0.09336 0.22072 0.73901 0.0
C390 C 0.1472 0.29716 0.72251 0.0
C391 C 0.1793 0.33881 0.71519 0.0
C392 C 0.14421 0.29911 0.73702 0.0
C393 C 0.20595 0.38423 0.72251 0.0
C394 C 0.20217 0.38715 0.73693 0.0
C395 C 0.17212 0.34437 0.75883 0.0
C396 C 0.1455 0.29915 0.7662 0.0
C397 C 0.17238 0.34419 0.7443 0.0
C398 C 0.11635 0.25535 0.75887 0.0
C399 C 0.11534 0.25556 0.74441 0.0
H400 H 0.73281 0.59932 0.01344 0.0
H401 H 0.78168 0.77662 0.02189 0.0
H402 H 0.77157 0.80061 -0.00257 0.0
H403 H 0.74311 0.77292 0.97395 0.0
H404 H 0.69491 0.5957 0.96527 0.0
H405 H 0.71126 0.56985 0.9895 0.0
C406 C 0.74148 0.64312 0.00991 0.0
C407 C 0.75729 0.68626 0.01948 0.0
C408 C 0.73575 0.65666 -0.0042 0.0
C409 C 0.76915 0.74265 0.01474 0.0
C410 C 0.76334 0.75648 0.00075 0.0
C411 C 0.73663 0.72853 0.97733 0.0
C412 C 0.71731 0.68645 0.96788 0.0
C413 C 0.74581 0.71406 0.99125 0.0
C414 C 0.70976 0.62895 0.97236 0.0
C415 C 0.71881 0.61417 0.98622 0.0
H416 H 0.25652 0.39883 0.01364 0.0
H417 H 0.15438 0.24338 0.00906 0.0
H418 H 0.16507 0.2481 0.98399 0.0
H419 H 0.21199 0.29012 0.96364 0.0
H420 H 0.31292 0.4463 0.96791 0.0
H421 H 0.29327 0.44815 -0.00722 0.0
C422 C 0.23609 0.36641 0.00713 0.0
C423 C 0.20558 0.3203 0.01321 0.0
C424 C 0.24228 0.36939 -0.00733 0.0
C425 C 0.1785 0.27912 0.00465 0.0
C426 C 0.18467 0.28165 0.9903 0.0
C427 C 0.22891 0.32506 0.96999 0.0
C428 C 0.26444 0.3675 0.96401 0.0
C429 C 0.21775 0.32566 0.98425 0.0
C430 C 0.28545 0.41304 0.97228 0.0
C431 C 0.2746 0.4139 0.98652 0.0
H432 H 0.63787 0.76645 0.26118 0.0
H433 H 0.81624 0.78559 0.27306 0.0
H434 H 0.84493 0.78221 0.2487 0.0
H435 H 0.81853 0.77966 0.22409 0.0
H436 H 0.63982 0.76082 0.21237 0.0
H437 H 0.61217 0.75741 0.23672 0.0
C438 C 0.68307 0.76982 0.25846 0.0
C439 C 0.72484 0.77703 0.26888 0.0
C440 C 0.69917 0.76772 0.2445 0.0
C441 C 0.78326 0.78034 0.26521 0.0
C442 C 0.79967 0.77843 0.2513 0.0
C443 C 0.77357 0.77422 0.22685 0.0
C444 C 0.73124 0.77105 0.21642 0.0
C445 C 0.75788 0.77292 0.24086 0.0
C446 C 0.67326 0.76357 0.22018 0.0
C447 C 0.65735 0.76186 0.2341 0.0
H448 H 0.17573 0.19808 0.46732 0.0
H449 H 0.10259 0.36465 0.47764 0.0
H450 H 0.12346 0.34769 0.50219 0.0
H451 H 0.16588 0.28644 0.5206 0.0
H452 H 0.24244 0.12208 0.50952 0.0
H453 H 0.21689 0.13753 0.48538 0.0
C454 C 0.16384 0.2306 0.47492 0.0
C455 C 0.13758 0.28251 0.47065 0.0
C456 C 0.177 0.22113 0.48889 0.0
C457 C 0.12291 0.32429 0.48066 0.0
C458 C 0.13492 0.31467 0.49469 0.0
C459 C 0.17679 0.25403 0.51289 0.0
C460 C 0.20623 0.20335 0.51687 0.0
C461 C 0.16254 0.26344 0.49891 0.0
C462 C 0.22023 0.16175 0.50676 0.0
C463 C 0.20548 0.17039 0.49293 0.0
H464 H 0.81477 0.65368 0.72259 0.0
H465 H 0.68735 0.78972 0.71989 0.0
H466 H 0.70316 0.81411 0.74414 0.0
H467 H 0.75236 0.79681 0.76607 0.0
H468 H 0.88021 0.66143 0.76909 0.0
H469 H 0.8654 0.6372 0.74468 0.0
C470 C 0.79028 0.68846 0.72734 0.0
C471 C 0.74978 0.71966 0.71946 0.0
C472 C 0.7999 0.70265 0.74129 0.0
C473 C 0.71873 0.76494 0.72572 0.0
C474 C 0.72778 0.77902 0.73959 0.0
C475 C 0.77722 0.76211 0.7614 0.0
C476 C 0.81721 0.73091 0.76939 0.0
C477 C 0.76826 0.74824 0.74745 0.0
C478 C 0.84916 0.68619 0.76316 0.0
C479 C 0.84057 0.67216 0.74921 0.0
H480 H 0.13002 0.07426 0.18718 0.0
H481 H 0.1941 0.89894 0.18814 0.0
H482 H 0.09736 0.86271 0.19326 0.0
H483 H 0.99364 0.87918 0.19113 0.0
H484 H 0.9295 0.05272 0.18512 0.0
H485 H 0.02637 0.09201 0.18863 0.0
C486 C 0.12302 0.02841 0.18911 0.0
C487 C 0.16856 0.9891 0.18728 0.0
C488 C 0.06673 0.00773 0.19085 0.0
C489 C 0.15931 0.92972 0.18953 0.0
C490 C 0.10399 0.90908 0.19231 0.0
C491 C 0.00068 0.92573 0.19117 0.0
C492 C 0.95507 0.9632 0.18783 0.0
C493 C 0.05699 0.94734 0.19206 0.0
C494 C 0.96437 0.02332 0.18765 0.0
C495 C 0.01973 0.04562 0.18954 0.0
H496 H 0.02489 0.43268 0.39281 0.0
H497 H 0.99582 0.40416 0.43642 0.0
H498 H 0.95183 0.50083 0.43831 0.0
H499 H 0.92099 0.59328 0.42724 0.0
H500 H 0.95597 0.6196 0.38371 0.0
H501 H -0.00062 0.52409 0.38225 0.0
C502 C 0.00839 0.44699 0.40275 0.0
C503 C 0.01271 0.41065 0.41441 0.0
C504 C 0.98499 0.50269 0.40381 0.0
C505 C 0.99238 0.43095 0.42724 0.0
C506 C 0.96758 0.48633 0.42833 0.0
C507 C 0.93887 0.57841 0.41749 0.0
C508 C 0.9348 0.61372 0.40558 0.0
C509 C 0.96384 0.52274 0.41666 0.0
C510 C 0.95805 0.5935 0.39303 0.0
C511 C 0.98274 0.53866 0.39214 0.0
H512 H 0.4168 0.44467 0.68072 0.0
H513 H 0.3682 0.52898 0.64251 0.0
H514 H 0.46115 0.57749 0.64156 0.0
H515 H 0.559 0.58858 0.65013 0.0
H516 H 0.6103 0.50808 0.68849 0.0
H517 H 0.51361 0.4652 0.69085 0.0
C518 C 0.42608 0.47484 0.6724 0.0
C519 C 0.38569 0.48277 0.66162 0.0
C520 C 0.48048 0.50214 0.67178 0.0
C521 C 0.39858 0.52172 0.65086 0.0
C522 C 0.45189 0.54926 0.65026 0.0
C523 C 0.54912 0.56153 0.65902 0.0
C524 C 0.592 0.55017 0.66894 0.0
C525 C 0.49371 0.53825 0.66038 0.0
C526 C 0.5781 0.51669 0.68062 0.0
C527 C 0.52286 0.49236 0.68197 0.0
H528 H 0.53759 0.14577 0.94377 0.0
H529 H 0.35645 0.10538 0.94197 0.0
H530 H 0.37762 0.00245 0.945 0.0
H531 H 0.44914 0.92389 0.94244 0.0
H532 H 0.63003 0.9643 0.94537 0.0
H533 H 0.60762 0.06717 0.94799 0.0
C534 C 0.50276 0.11459 0.94464 0.0
C535 C 0.44575 0.13273 0.94241 0.0
C536 C 0.51528 0.05542 0.94635 0.0
C537 C 0.40074 0.0923 0.94366 0.0
C538 C 0.41286 0.03331 0.94522 0.0
C539 C 0.48338 0.95507 0.94423 0.0
C540 C 0.54105 0.93698 0.94347 0.0
C541 C 0.47016 0.0142 0.94573 0.0
C542 C 0.58525 0.97738 0.94591 0.0
C543 C 0.5725 0.03632 0.94725 0.0
H544 H 0.06403 0.3994 0.05441 0.0
H545 H 0.08889 0.41231 0.09871 0.0
H546 H 0.99266 0.45151 0.10136 0.0
H547 H 0.90177 0.48205 0.09147 0.0
H548 H 0.87532 0.47568 0.04724 0.0
H549 H 0.97138 0.433 0.04426 0.0
C550 C 0.04858 0.41132 0.06462 0.0
C551 C 0.08398 0.4026 0.07633 0.0
C552 C 0.99254 0.43414 0.06614 0.0
C553 C 0.06292 0.41819 0.08948 0.0
C554 C 0.00761 0.44048 0.09105 0.0
C555 C 0.91637 0.47062 0.08115 0.0
C556 C 0.8809 0.48141 0.06961 0.0
C557 C 0.97197 0.44814 0.0795 0.0
C558 C 0.90146 0.46734 0.05632 0.0
C559 C 0.95656 0.44333 0.05461 0.0
H560 H 0.54913 0.62041 0.29938 0.0
H561 H 0.38503 0.70109 0.30736 0.0
H562 H 0.3364 0.60757 0.30425 0.0
H563 H 0.34286 0.50121 0.30297 0.0
H564 H 0.5089 0.41958 0.29911 0.0
H565 H 0.55491 0.51482 0.29667 0.0
C566 C 0.50254 0.6177 0.30003 0.0
C567 C 0.47045 0.66736 0.30347 0.0
C568 C 0.47558 0.56336 0.29911 0.0
C569 C 0.41035 0.66329 0.30465 0.0
C570 C 0.38272 0.60986 0.30295 0.0
C571 C 0.38888 0.50452 0.30117 0.0
C572 C 0.42265 0.45399 0.301 0.0
C573 C 0.41515 0.55932 0.3007 0.0
C574 C 0.48235 0.45823 0.2991 0.0
C575 C 0.50852 0.51256 0.2978 0.0
H576 H 0.59087 0.87213 0.54081 0.0
H577 H 0.6567 0.04656 0.53868 0.0
H578 H 0.55913 0.08398 0.53515 0.0
H579 H 0.45596 0.06883 0.53905 0.0
H580 H 0.39161 0.89603 0.5461 0.0
H581 H 0.48675 0.85564 0.54107 0.0
C582 C 0.58388 0.91801 0.53892 0.0
C583 C 0.63042 0.95671 0.53994 0.0
C584 C 0.52742 0.93939 0.53813 0.0
C585 C 0.62123 0.01619 0.53783 0.0
C586 C 0.56543 0.03752 0.53599 0.0
C587 C 0.46241 0.0222 0.53891 0.0
C588 C 0.41732 0.98527 0.54296 0.0
C589 C 0.51809 0.99989 0.53707 0.0
C590 C 0.42601 0.92505 0.54302 0.0
C591 C 0.48044 0.9021 0.54024 0.0
H592 H 0.0662 0.06623 0.80631 0.0
H593 H 0.00942 0.11805 0.84709 0.0
H594 H 0.96143 0.02533 0.85015 0.0
H595 H 0.93925 0.92847 0.84198 0.0
H596 H 0.99161 0.87423 0.80112 0.0
H597 H 0.03802 0.96881 0.79741 0.0
C598 C 0.0425 0.05754 0.81576 0.0
C599 C 0.04187 0.09915 0.82649 0.0
C600 C 0.01507 0.00338 0.81755 0.0
C601 C 0.01112 0.08691 0.83869 0.0
C602 C 0.98376 0.03371 0.84049 0.0
C603 C 0.9612 0.93688 0.83227 0.0
C604 C 0.96289 0.89383 0.82195 0.0
C605 C 0.98646 0.99131 0.83013 0.0
C606 C 0.99023 0.90637 0.8093 0.0
C607 C 0.01654 0.96052 0.80717 0.0
H608 H 0.63124 0.87863 0.18013 0.0
H609 H 0.69203 0.05462 0.17632 0.0
H610 H 0.59287 0.0905 0.17752 0.0
H611 H 0.4894 0.07037 0.17591 0.0
H612 H 0.42922 0.89335 0.17615 0.0
H613 H 0.52753 0.85893 0.18023 0.0
C614 C 0.62273 0.92491 0.17998 0.0
C615 C 0.66844 0.96413 0.17821 0.0
C616 C 0.56569 0.94474 0.17981 0.0
C617 C 0.65719 0.02388 0.17771 0.0
C618 C 0.60062 0.04425 0.17831 0.0
C619 C 0.49773 0.02436 0.1772 0.0
C620 C 0.4525 0.98431 0.17573 0.0
C621 C 0.55452 0.00491 0.1788 0.0
C622 C 0.46367 0.92479 0.17718 0.0
C623 C 0.51976 0.90519 0.17949 0.0
H624 H 0.92987 0.9287 0.42469 0.0
H625 H 0.95334 0.9047 0.38064 0.0
H626 H 0.00016 0.99863 0.379 0.0
H627 H 0.03164 0.08906 0.38966 0.0
H628 H 0.01252 0.11416 0.4337 0.0
H629 H 0.96663 0.01864 0.4357 0.0
C630 C 0.94581 0.94369 0.41476 0.0
C631 C 0.93758 0.90937 0.4028 0.0
C632 C 0.97287 0.99837 0.41383 0.0
C633 C 0.95865 0.92985 0.39004 0.0
C634 C 0.98535 0.98386 0.38905 0.0
C635 C 0.01706 0.07397 0.39971 0.0
C636 C 0.02468 0.10918 0.41148 0.0
C637 C 0.9919 0.01881 0.40081 0.0
C638 C 0.00677 0.08815 0.42445 0.0
C639 C 0.98066 0.03346 0.4256 0.0
H640 H 0.07881 0.4461 0.6755 0.0
H641 H 0.09451 0.46554 0.63112 0.0
H642 H 0.99783 0.50548 0.62994 0.0
H643 H 0.90904 0.53549 0.64125 0.0
H644 H 0.89274 0.52179 0.68564 0.0
H645 H 0.98902 0.47834 0.68701 0.0
C646 C 0.06124 0.45937 0.66558 0.0
C647 C 0.09436 0.45271 0.65343 0.0
C648 C 0.00516 0.48274 0.66493 0.0
C649 C 0.07054 0.47021 0.64067 0.0
C650 C 0.01494 0.49287 0.63995 0.0
C651 C 0.92602 0.52223 0.65123 0.0
C652 C 0.89327 0.53113 0.6633 0.0
C653 C 0.98181 0.49905 0.65197 0.0
C654 C 0.9168 0.51497 0.67617 0.0
C655 C 0.97198 0.49041 0.67696 0.0
H656 H 0.39581 0.46674 0.93167 0.0
H657 H 0.56885 0.3991 0.93327 0.0
H658 H 0.60668 0.49725 0.93671 0.0
H659 H 0.59127 0.60234 0.93578 0.0
H660 H 0.41915 0.66997 0.93111 0.0
H661 H 0.37977 0.57165 0.93265 0.0
C662 C 0.44164 0.4733 0.93318 0.0
C663 C 0.47955 0.42587 0.93228 0.0
C664 C 0.46309 0.52992 0.93447 0.0
C665 C 0.53896 0.43508 0.93391 0.0
C666 C 0.56052 0.49112 0.93584 0.0
C667 C 0.54503 0.59569 0.9355 0.0
C668 C 0.50804 0.6432 0.93338 0.0
C669 C 0.52313 0.53898 0.93564 0.0
C670 C 0.44833 0.63394 0.93274 0.0
C671 C 0.42592 0.57778 0.93355 0.0
H672 H 0.55681 0.51794 0.09279 0.0
H673 H 0.58989 0.49633 0.04915 0.0
H674 H 0.49349 0.45437 0.046 0.0
H675 H 0.40155 0.41925 0.05607 0.0
H676 H 0.36982 0.44493 0.09975 0.0
H677 H 0.46351 0.49074 0.10236 0.0
C678 C 0.54314 0.50379 0.08258 0.0
C679 C 0.58091 0.50914 0.07127 0.0
C680 C 0.4876 0.48089 0.08083 0.0
C681 C 0.56183 0.49211 0.05805 0.0
C682 C 0.50669 0.46826 0.05625 0.0
C683 C 0.41466 0.43582 0.0661 0.0
C684 C 0.37851 0.42806 0.07771 0.0
C685 C 0.46929 0.46198 0.06761 0.0
C686 C 0.39657 0.44979 0.09063 0.0
C687 C 0.45041 0.47585 0.09218 0.0
H688 H 0.5046 0.17189 0.30475 0.0
H689 H 0.32684 0.1255 0.29798 0.0
H690 H 0.3531 0.02327 0.29638 0.0
H691 H 0.42464 0.94631 0.30089 0.0
H692 H 0.60326 0.99238 0.306 0.0
H693 H 0.57907 0.09537 0.30407 0.0
C694 C 0.47203 0.13945 0.3025 0.0
C695 C 0.41393 0.15596 0.30161 0.0
C696 C 0.48751 0.08066 0.30147 0.0
C697 C 0.37195 0.1138 0.29862 0.0
C698 C 0.38683 0.05522 0.29784 0.0
C699 C 0.45827 0.979 0.30113 0.0
C700 C 0.5154 0.96233 0.30367 0.0
C701 C 0.44413 0.03799 0.29983 0.0
C702 C 0.55896 0.00458 0.30396 0.0
C703 C 0.5451 0.06341 0.30298 0.0
H704 H 0.95486 0.87896 0.55528 0.0
H705 H 0.89383 0.0553 0.55297 0.0
H706 H 0.9932 0.09046 0.55124 0.0
H707 H 0.0968 0.07151 0.55333 0.0
H708 H 0.15712 0.89622 0.55905 0.0
H709 H 0.05863 0.85968 0.55638 0.0
C710 C 0.96342 0.92496 0.55406 0.0
C711 C 0.91751 0.96464 0.55414 0.0
C712 C 0.02046 0.94483 0.55385 0.0
C713 C 0.9288 0.02419 0.55289 0.0
C714 C 0.98546 0.04419 0.55195 0.0
C715 C 0.08842 0.02522 0.55369 0.0
C716 C 0.13382 0.98642 0.55632 0.0
C717 C 0.03159 0.00501 0.55285 0.0
C718 C 0.12258 0.9267 0.55704 0.0
C719 C 0.0664 0.90592 0.55555 0.0
H720 H 0.94981 0.57081 0.81191 0.0
H721 H 0.99492 0.60874 0.85441 0.0
H722 H 0.04186 0.51476 0.85647 0.0
H723 H 0.06889 0.42116 0.8465 0.0
H724 H 0.02674 0.38298 0.8039 0.0
H725 H 0.97943 0.47741 0.80167 0.0
C726 C 0.97035 0.55884 0.82159 0.0
C727 C 0.9686 0.59716 0.83298 0.0
C728 C 0.99721 0.50428 0.82277 0.0
C729 C 0.99543 0.58047 0.84544 0.0
C730 C 0.02216 0.52648 0.84667 0.0
C731 C 0.04882 0.4331 0.83675 0.0
C732 C 0.05074 0.3946 0.82544 0.0
C733 C 0.02278 0.48782 0.83546 0.0
C734 C 0.02556 0.41154 0.81281 0.0
C735 C -0.00132 0.46565 0.81151 0.0
loop_
_geom_bond_atom_site_label_1
_geom_bond_atom_site_label_2
_geom_bond_distance
_geom_bond_site_symmetry_2
_ccdc_geom_bond_type
Mg0 O1 2.028 . S
Mg0 O7 1.986 . S
Mg0 O9 2.114 . S
Mg0 O10 2.251 . S
Mg0 O13 2.010 . S
O1 Mg0 2.028 . S
O1 C4 1.250 . S
O2 Mg3 2.028 . S
O2 C4 1.248 . S
Mg3 O2 2.028 . S
Mg3 O8 2.032 . S
Mg3 O10 2.079 . S
C4 O1 1.250 . S
C4 O2 1.248 . S
C5 O6 1.264 . S
C5 O13 1.249 . S
O6 C5 1.264 . S
O7 Mg0 1.986 . S
O7 C11 1.246 . S
O8 Mg3 2.032 . S
O8 C11 1.259 . S
O9 Mg0 2.114 . S
O9 C12 1.252 . S
O10 Mg0 2.251 . S
O10 Mg3 2.079 . S
O10 C12 1.273 . S
C11 O7 1.246 . S
C11 O8 1.259 . S
C12 O9 1.252 . S
C12 O10 1.273 . S
O13 Mg0 2.010 . S
O13 C5 1.249 . S
Mg14 O15 2.028 . S
Mg14 O21 1.986 . S
Mg14 O23 2.114 . S
Mg14 O24 2.251 . S
Mg14 O27 2.010 . S
O15 Mg14 2.028 . S
O15 C18 1.250 . S
O16 Mg17 2.028 . S
O16 C18 1.248 . S
Mg17 O16 2.028 . S
Mg17 O22 2.032 . S
Mg17 O24 2.079 . S
C18 O15 1.250 . S
C18 O16 1.248 . S
C19 O20 1.264 . S
C19 O27 1.249 . S
O20 C19 1.264 . S
O21 Mg14 1.986 . S
O21 C25 1.246 . S
O22 Mg17 2.032 . S
O22 C25 1.259 . S
O23 Mg14 2.114 . S
O23 C26 1.252 . S
O24 Mg14 2.251 . S
O24 Mg17 2.079 . S
O24 C26 1.273 . S
C25 O21 1.246 . S
C25 O22 1.259 . S
C26 O23 1.252 . S
C26 O24 1.273 . S
O27 Mg14 2.010 . S
O27 C19 1.249 . S
Mg28 O29 2.028 . S
Mg28 O35 1.986 . S
Mg28 O37 2.114 . S
Mg28 O38 2.251 . S
Mg28 O41 2.010 . S
O29 Mg28 2.028 . S
O29 C32 1.250 . S
O30 Mg31 2.028 . S
O30 C32 1.248 . S
Mg31 O30 2.028 . S
Mg31 O36 2.032 . S
Mg31 O38 2.079 . S
C32 O29 1.250 . S
C32 O30 1.248 . S
C33 O34 1.264 . S
C33 O41 1.249 . S
O34 C33 1.264 . S
O35 Mg28 1.986 . S
O35 C39 1.246 . S
O36 Mg31 2.032 . S
O36 C39 1.259 . S
O37 Mg28 2.114 . S
O37 C40 1.252 . S
O38 Mg28 2.251 . S
O38 Mg31 2.079 . S
O38 C40 1.273 . S
C39 O35 1.246 . S
C39 O36 1.259 . S
C40 O37 1.252 . S
C40 O38 1.273 . S
O41 Mg28 2.010 . S
O41 C33 1.249 . S
Mg42 O43 2.028 . S
Mg42 O49 1.986 . S
Mg42 O51 2.114 . S
Mg42 O52 2.251 . S
Mg42 O55 2.010 . S
O43 Mg42 2.028 . S
O43 C46 1.250 . S
O44 Mg45 2.028 . S
O44 C46 1.248 . S
Mg45 O44 2.028 . S
Mg45 O50 2.032 . S
Mg45 O52 2.079 . S
C46 O43 1.250 . S
C46 O44 1.248 . S
C47 O48 1.264 . S
C47 O55 1.249 . S
O48 C47 1.264 . S
O49 Mg42 1.986 . S
O49 C53 1.246 . S
O50 Mg45 2.032 . S
O50 C53 1.259 . S
O51 Mg42 2.114 . S
O51 C54 1.252 . S
O52 Mg42 2.251 . S
O52 Mg45 2.079 . S
O52 C54 1.273 . S
C53 O49 1.246 . S
C53 O50 1.259 . S
C54 O51 1.252 . S
C54 O52 1.273 . S
O55 Mg42 2.010 . S
O55 C47 1.249 . S
Mg56 O57 2.028 . S
Mg56 O63 1.986 . S
Mg56 O65 2.114 . S
Mg56 O66 2.251 . S
Mg56 O69 2.010 . S
O57 Mg56 2.028 . S
O57 C60 1.250 . S
O58 Mg59 2.028 . S
O58 C60 1.248 . S
Mg59 O58 2.028 . S
Mg59 O64 2.032 . S
Mg59 O66 2.079 . S
C60 O57 1.250 . S
C60 O58 1.248 . S
C61 O62 1.264 . S
C61 O69 1.249 . S
O62 C61 1.264 . S
O63 Mg56 1.986 . S
O63 C67 1.246 . S
O64 Mg59 2.032 . S
O64 C67 1.259 . S
O65 Mg56 2.114 . S
O65 C68 1.252 . S
O66 Mg56 2.251 . S
O66 Mg59 2.079 . S
O66 C68 1.273 . S
C67 O63 1.246 . S
C67 O64 1.259 . S
C68 O65 1.252 . S
C68 O66 1.273 . S
O69 Mg56 2.010 . S
O69 C61 1.249 . S
Mg70 O71 2.028 . S
Mg70 O77 1.986 . S
Mg70 O79 2.114 . S
Mg70 O80 2.251 . S
Mg70 O83 2.010 . S
O71 Mg70 2.028 . S
O71 C74 1.250 . S
O72 Mg73 2.028 . S
O72 C74 1.248 . S
Mg73 O72 2.028 . S
Mg73 O78 2.032 . S
Mg73 O80 2.079 . S
C74 O71 1.250 . S
C74 O72 1.248 . S
C75 O76 1.264 . S
C75 O83 1.249 . S
O76 C75 1.264 . S
O77 Mg70 1.986 . S
O77 C81 1.246 . S
O78 Mg73 2.032 . S
O78 C81 1.259 . S
O79 Mg70 2.114 . S
O79 C82 1.252 . S
O80 Mg70 2.251 . S
O80 Mg73 2.079 . S
O80 C82 1.273 . S
C81 O77 1.246 . S
C81 O78 1.259 . S
C82 O79 1.252 . S
C82 O80 1.273 . S
O83 Mg70 2.010 . S
O83 C75 1.249 . S
Mg84 O85 2.028 . S
Mg84 O91 1.986 . S
Mg84 O93 2.114 . S
Mg84 O94 2.251 . S
Mg84 O97 2.010 . S
O85 Mg84 2.028 . S
O85 C88 1.250 . S
O86 Mg87 2.028 . S
O86 C88 1.248 . S
Mg87 O86 2.028 . S
Mg87 O92 2.032 . S
Mg87 O94 2.079 . S
C88 O85 1.250 . S
C88 O86 1.248 . S
C89 O90 1.264 . S
C89 O97 1.249 . S
O90 C89 1.264 . S
O91 Mg84 1.986 . S
O91 C95 1.246 . S
O92 Mg87 2.032 . S
O92 C95 1.259 . S
O93 Mg84 2.114 . S
O93 C96 1.252 . S
O94 Mg84 2.251 . S
O94 Mg87 2.079 . S
O94 C96 1.273 . S
C95 O91 1.246 . S
C95 O92 1.259 . S
C96 O93 1.252 . S
C96 O94 1.273 . S
O97 Mg84 2.010 . S
O97 C89 1.249 . S
Mg98 O99 2.028 . S
Mg98 O105 1.986 . S
Mg98 O107 2.114 . S
Mg98 O108 2.251 . S
Mg98 O111 2.010 . S
O99 Mg98 2.028 . S
O99 C102 1.250 . S
O100 Mg101 2.028 . S
O100 C102 1.248 . S
Mg101 O100 2.028 . S
Mg101 O106 2.032 . S
Mg101 O108 2.079 . S
C102 O99 1.250 . S
C102 O100 1.248 . S
C103 O104 1.264 . S
C103 O111 1.249 . S
O104 C103 1.264 . S
O105 Mg98 1.986 . S
O105 C109 1.246 . S
O106 Mg101 2.032 . S
O106 C109 1.259 . S
O107 Mg98 2.114 . S
O107 C110 1.252 . S
O108 Mg98 2.251 . S
O108 Mg101 2.079 . S
O108 C110 1.273 . S
C109 O105 1.246 . S
C109 O106 1.259 . S
C110 O107 1.252 . S
C110 O108 1.273 . S
O111 Mg98 2.010 . S
O111 C103 1.249 . S
Mg112 O113 2.028 . S
Mg112 O119 1.986 . S
Mg112 O121 2.114 . S
Mg112 O122 2.251 . S
Mg112 O125 2.010 . S
O113 Mg112 2.028 . S
O113 C116 1.250 . S
O114 Mg115 2.028 . S
O114 C116 1.248 . S
Mg115 O114 2.028 . S
Mg115 O120 2.032 . S
Mg115 O122 2.079 . S
C116 O113 1.250 . S
C116 O114 1.248 . S
C117 O118 1.264 . S
C117 O125 1.249 . S
O118 C117 1.264 . S
O119 Mg112 1.986 . S
O119 C123 1.246 . S
O120 Mg115 2.032 . S
O120 C123 1.259 . S
O121 Mg112 2.114 . S
O121 C124 1.252 . S
O122 Mg112 2.251 . S
O122 Mg115 2.079 . S
O122 C124 1.273 . S
C123 O119 1.246 . S
C123 O120 1.259 . S
C124 O121 1.252 . S
C124 O122 1.273 . S
O125 Mg112 2.010 . S
O125 C117 1.249 . S
Mg126 O127 2.028 . S
Mg126 O133 1.986 . S
Mg126 O135 2.114 . S
Mg126 O136 2.251 . S
Mg126 O139 2.010 . S
O127 Mg126 2.028 . S
O127 C130 1.250 . S
O128 Mg129 2.028 . S
O128 C130 1.248 . S
Mg129 O128 2.028 . S
Mg129 O134 2.032 . S
Mg129 O136 2.079 . S
C130 O127 1.250 . S
C130 O128 1.248 . S
C131 O132 1.264 . S
C131 O139 1.249 . S
O132 C131 1.264 . S
O133 Mg126 1.986 . S
O133 C137 1.246 . S
O134 Mg129 2.032 . S
O134 C137 1.259 . S
O135 Mg126 2.114 . S
O135 C138 1.252 . S
O136 Mg126 2.251 . S
O136 Mg129 2.079 . S
O136 C138 1.273 . S
C137 O133 1.246 . S
C137 O134 1.259 . S
C138 O135 1.252 . S
C138 O136 1.273 . S
O139 Mg126 2.010 . S
O139 C131 1.249 . S
Mg140 O141 2.028 . S
Mg140 O147 1.986 . S
Mg140 O149 2.114 . S
Mg140 O150 2.251 . S
Mg140 O153 2.010 . S
O141 Mg140 2.028 . S
O141 C144 1.250 . S
O142 Mg143 2.028 . S
O142 C144 1.248 . S
Mg143 O142 2.028 . S
Mg143 O148 2.032 . S
Mg143 O150 2.079 . S
C144 O141 1.250 . S
C144 O142 1.248 . S
C145 O146 1.264 . S
C145 O153 1.249 . S
O146 C145 1.264 . S
O147 Mg140 1.986 . S
O147 C151 1.246 . S
O148 Mg143 2.032 . S
O148 C151 1.259 . S
O149 Mg140 2.114 . S
O149 C152 1.252 . S
O150 Mg140 2.251 . S
O150 Mg143 2.079 . S
O150 C152 1.273 . S
C151 O147 1.246 . S
C151 O148 1.259 . S
C152 O149 1.252 . S
C152 O150 1.273 . S
O153 Mg140 2.010 . S
O153 C145 1.249 . S
Mg154 O155 2.028 . S
Mg154 O161 1.986 . S
Mg154 O163 2.114 . S
Mg154 O164 2.251 . S
Mg154 O167 2.010 . S
O155 Mg154 2.028 . S
O155 C158 1.250 . S
O156 Mg157 2.028 . S
O156 C158 1.248 . S
Mg157 O156 2.028 . S
Mg157 O162 2.032 . S
Mg157 O164 2.079 . S
C158 O155 1.250 . S
C158 O156 1.248 . S
C159 O160 1.264 . S
C159 O167 1.249 . S
O160 C159 1.264 . S
O161 Mg154 1.986 . S
O161 C165 1.246 . S
O162 Mg157 2.032 . S
O162 C165 1.259 . S
O163 Mg154 2.114 . S
O163 C166 1.252 . S
O164 Mg154 2.251 . S
O164 Mg157 2.079 . S
O164 C166 1.273 . S
C165 O161 1.246 . S
C165 O162 1.259 . S
C166 O163 1.252 . S
C166 O164 1.273 . S
O167 Mg154 2.010 . S
O167 C159 1.249 . S
Mg168 O169 2.028 . S
Mg168 O175 1.986 . S
Mg168 O177 2.114 . S
Mg168 O178 2.251 . S
Mg168 O181 2.010 . S
O169 Mg168 2.028 . S
O169 C172 1.250 . S
O170 Mg171 2.028 . S
O170 C172 1.248 . S
Mg171 O170 2.028 . S
Mg171 O176 2.032 . S
Mg171 O178 2.079 . S
C172 O169 1.250 . S
C172 O170 1.248 . S
C173 O174 1.264 . S
C173 O181 1.249 . S
O174 C173 1.264 . S
O175 Mg168 1.986 . S
O175 C179 1.246 . S
O176 Mg171 2.032 . S
O176 C179 1.259 . S
O177 Mg168 2.114 . S
O177 C180 1.252 . S
O178 Mg168 2.251 . S
O178 Mg171 2.079 . S
O178 C180 1.273 . S
C179 O175 1.246 . S
C179 O176 1.259 . S
C180 O177 1.252 . S
C180 O178 1.273 . S
O181 Mg168 2.010 . S
O181 C173 1.249 . S
Mg182 O183 2.028 . S
Mg182 O189 1.986 . S
Mg182 O191 2.114 . S
Mg182 O192 2.251 . S
Mg182 O195 2.010 . S
O183 Mg182 2.028 . S
O183 C186 1.250 . S
O184 Mg185 2.028 . S
O184 C186 1.248 . S
Mg185 O184 2.028 . S
Mg185 O190 2.032 . S
Mg185 O192 2.079 . S
C186 O183 1.250 . S
C186 O184 1.248 . S
C187 O188 1.264 . S
C187 O195 1.249 . S
O188 C187 1.264 . S
O189 Mg182 1.986 . S
O189 C193 1.246 . S
O190 Mg185 2.032 . S
O190 C193 1.259 . S
O191 Mg182 2.114 . S
O191 C194 1.252 . S
O192 Mg182 2.251 . S
O192 Mg185 2.079 . S
O192 C194 1.273 . S
C193 O189 1.246 . S
C193 O190 1.259 . S
C194 O191 1.252 . S
C194 O192 1.273 . S
O195 Mg182 2.010 . S
O195 C187 1.249 . S
Mg196 O197 2.028 . S
Mg196 O203 1.986 . S
Mg196 O205 2.114 . S
Mg196 O206 2.251 . S
Mg196 O209 2.010 . S
O197 Mg196 2.028 . S
O197 C200 1.250 . S
O198 Mg199 2.028 . S
O198 C200 1.248 . S
Mg199 O198 2.028 . S
Mg199 O204 2.032 . S
Mg199 O206 2.079 . S
C200 O197 1.250 . S
C200 O198 1.248 . S
C201 O202 1.264 . S
C201 O209 1.249 . S
O202 C201 1.264 . S
O203 Mg196 1.986 . S
O203 C207 1.246 . S
O204 Mg199 2.032 . S
O204 C207 1.259 . S
O205 Mg196 2.114 . S
O205 C208 1.252 . S
O206 Mg196 2.251 . S
O206 Mg199 2.079 . S
O206 C208 1.273 . S
C207 O203 1.246 . S
C207 O204 1.259 . S
C208 O205 1.252 . S
C208 O206 1.273 . S
O209 Mg196 2.010 . S
O209 C201 1.249 . S
Mg210 O211 2.028 . S
Mg210 O217 1.986 . S
Mg210 O219 2.114 . S
Mg210 O220 2.251 . S
Mg210 O223 2.010 . S
O211 Mg210 2.028 . S
O211 C214 1.250 . S
O212 Mg213 2.028 . S
O212 C214 1.248 . S
Mg213 O212 2.028 . S
Mg213 O218 2.032 . S
Mg213 O220 2.079 . S
C214 O211 1.250 . S
C214 O212 1.248 . S
C215 O216 1.264 . S
C215 O223 1.249 . S
O216 C215 1.264 . S
O217 Mg210 1.986 . S
O217 C221 1.246 . S
O218 Mg213 2.032 . S
O218 C221 1.259 . S
O219 Mg210 2.114 . S
O219 C222 1.252 . S
O220 Mg210 2.251 . S
O220 Mg213 2.079 . S
O220 C222 1.273 . S
C221 O217 1.246 . S
C221 O218 1.259 . S
C222 O219 1.252 . S
C222 O220 1.273 . S
O223 Mg210 2.010 . S
O223 C215 1.249 . S
H224 C230 0.930 . S
H225 C233 0.930 . S
H226 C234 0.930 . S
H227 C235 0.930 . S
H228 C238 0.930 . S
H229 C239 0.930 . S
C230 H224 0.930 . S
C230 C231 1.355 . S
C230 C232 1.415 . S
C231 C230 1.355 . S
C231 C233 1.419 . S
C232 C230 1.415 . S
C232 C237 1.425 . S
C232 C239 1.409 . S
C233 H225 0.930 . S
C233 C231 1.419 . S
C233 C234 1.362 . S
C234 H226 0.930 . S
C234 C233 1.362 . S
C234 C237 1.409 . S
C235 H227 0.930 . S
C235 C236 1.355 . S
C235 C237 1.415 . S
C236 C235 1.355 . S
C236 C238 1.419 . S
C237 C232 1.425 . S
C237 C234 1.409 . S
C237 C235 1.415 . S
C238 H228 0.930 . S
C238 C236 1.419 . S
C238 C239 1.362 . S
C239 H229 0.930 . S
C239 C232 1.409 . S
C239 C238 1.362 . S
H240 C246 0.930 . S
H241 C249 0.930 . S
H242 C250 0.930 . S
H243 C251 0.930 . S
H244 C254 0.930 . S
H245 C255 0.930 . S
C246 H240 0.930 . S
C246 C247 1.355 . S
C246 C248 1.415 . S
C247 C246 1.355 . S
C247 C249 1.419 . S
C248 C246 1.415 . S
C248 C253 1.425 . S
C248 C255 1.409 . S
C249 H241 0.930 . S
C249 C247 1.419 . S
C249 C250 1.362 . S
C250 H242 0.930 . S
C250 C249 1.362 . S
C250 C253 1.409 . S
C251 H243 0.930 . S
C251 C252 1.355 . S
C251 C253 1.415 . S
C252 C251 1.355 . S
C252 C254 1.419 . S
C253 C248 1.425 . S
C253 C250 1.409 . S
C253 C251 1.415 . S
C254 H244 0.930 . S
C254 C252 1.419 . S
C254 C255 1.362 . S
C255 H245 0.930 . S
C255 C248 1.409 . S
C255 C254 1.362 . S
H256 C262 0.930 . S
H257 C265 0.930 . S
H258 C266 0.930 . S
H259 C267 0.930 . S
H260 C270 0.930 . S
H261 C271 0.930 . S
C262 H256 0.930 . S
C262 C263 1.355 . S
C262 C264 1.415 . S
C263 C262 1.355 . S
C263 C265 1.419 . S
C264 C262 1.415 . S
C264 C269 1.425 . S
C264 C271 1.409 . S
C265 H257 0.930 . S
C265 C263 1.419 . S
C265 C266 1.362 . S
C266 H258 0.930 . S
C266 C265 1.362 . S
C266 C269 1.409 . S
C267 H259 0.930 . S
C267 C268 1.355 . S
C267 C269 1.415 . S
C268 C267 1.355 . S
C268 C270 1.419 . S
C269 C264 1.425 . S
C269 C266 1.409 . S
C269 C267 1.415 . S
C270 H260 0.930 . S
C270 C268 1.419 . S
C270 C271 1.362 . S
C271 H261 0.930 . S
C271 C264 1.409 . S
C271 C270 1.362 . S
H272 C278 0.930 . S
H273 C281 0.930 . S
H274 C282 0.930 . S
H275 C283 0.930 . S
H276 C286 0.930 . S
H277 C287 0.930 . S
C278 H272 0.930 . S
C278 C279 1.355 . S
C278 C280 1.415 . S
C279 C278 1.355 . S
C279 C281 1.419 . S
C280 C278 1.415 . S
C280 C285 1.425 . S
C280 C287 1.409 . S
C281 H273 0.930 . S
C281 C279 1.419 . S
C281 C282 1.362 . S
C282 H274 0.930 . S
C282 C281 1.362 . S
C282 C285 1.409 . S
C283 H275 0.930 . S
C283 C284 1.355 . S
C283 C285 1.415 . S
C284 C283 1.355 . S
C284 C286 1.419 . S
C285 C280 1.425 . S
C285 C282 1.409 . S
C285 C283 1.415 . S
C286 H276 0.930 . S
C286 C284 1.419 . S
C286 C287 1.362 . S
C287 H277 0.930 . S
C287 C280 1.409 . S
C287 C286 1.362 . S
H288 C294 0.930 . S
H289 C297 0.930 . S
H290 C298 0.930 . S
H291 C299 0.930 . S
H292 C302 0.930 . S
H293 C303 0.930 . S
C294 H288 0.930 . S
C294 C295 1.355 . S
C294 C296 1.415 . S
C295 C294 1.355 . S
C295 C297 1.419 . S
C296 C294 1.415 . S
C296 C301 1.425 . S
C296 C303 1.409 . S
C297 H289 0.930 . S
C297 C295 1.419 . S
C297 C298 1.362 . S
C298 H290 0.930 . S
C298 C297 1.362 . S
C298 C301 1.409 . S
C299 H291 0.930 . S
C299 C300 1.355 . S
C299 C301 1.415 . S
C300 C299 1.355 . S
C300 C302 1.419 . S
C301 C296 1.425 . S
C301 C298 1.409 . S
C301 C299 1.415 . S
C302 H292 0.930 . S
C302 C300 1.419 . S
C302 C303 1.362 . S
C303 H293 0.930 . S
C303 C296 1.409 . S
C303 C302 1.362 . S
H304 C310 0.930 . S
H305 C313 0.930 . S
H306 C314 0.930 . S
H307 C315 0.930 . S
H308 C318 0.930 . S
H309 C319 0.930 . S
C310 H304 0.930 . S
C310 C311 1.355 . S
C310 C312 1.415 . S
C311 C310 1.355 . S
C311 C313 1.419 . S
C312 C310 1.415 . S
C312 C317 1.425 . S
C312 C319 1.409 . S
C313 H305 0.930 . S
C313 C311 1.419 . S
C313 C314 1.362 . S
C314 H306 0.930 . S
C314 C313 1.362 . S
C314 C317 1.409 . S
C315 H307 0.930 . S
C315 C316 1.355 . S
C315 C317 1.415 . S
C316 C315 1.355 . S
C316 C318 1.419 . S
C317 C312 1.425 . S
C317 C314 1.409 . S
C317 C315 1.415 . S
C318 H308 0.930 . S
C318 C316 1.419 . S
C318 C319 1.362 . S
C319 H309 0.930 . S
C319 C312 1.409 . S
C319 C318 1.362 . S
H320 C326 0.930 . S
H321 C329 0.930 . S
H322 C330 0.930 . S
H323 C331 0.930 . S
H324 C334 0.930 . S
H325 C335 0.930 . S
C326 H320 0.930 . S
C326 C327 1.355 . S
C326 C328 1.415 . S
C327 C326 1.355 . S
C327 C329 1.419 . S
C328 C326 1.415 . S
C328 C333 1.425 . S
C328 C335 1.409 . S
C329 H321 0.930 . S
C329 C327 1.419 . S
C329 C330 1.362 . S
C330 H322 0.930 . S
C330 C329 1.362 . S
C330 C333 1.409 . S
C331 H323 0.930 . S
C331 C332 1.355 . S
C331 C333 1.415 . S
C332 C331 1.355 . S
C332 C334 1.419 . S
C333 C328 1.425 . S
C333 C330 1.409 . S
C333 C331 1.415 . S
C334 H324 0.930 . S
C334 C332 1.419 . S
C334 C335 1.362 . S
C335 H325 0.930 . S
C335 C328 1.409 . S
C335 C334 1.362 . S
H336 C342 0.930 . S
H337 C345 0.930 . S
H338 C346 0.930 . S
H339 C347 0.930 . S
H340 C350 0.930 . S
H341 C351 0.930 . S
C342 H336 0.930 . S
C342 C343 1.355 . S
C342 C344 1.415 . S
C343 C342 1.355 . S
C343 C345 1.419 . S
C344 C342 1.415 . S
C344 C349 1.425 . S
C344 C351 1.409 . S
C345 H337 0.930 . S
C345 C343 1.419 . S
C345 C346 1.362 . S
C346 H338 0.930 . S
C346 C345 1.362 . S
C346 C349 1.409 . S
C347 H339 0.930 . S
C347 C348 1.355 . S
C347 C349 1.415 . S
C348 C347 1.355 . S
C348 C350 1.419 . S
C349 C344 1.425 . S
C349 C346 1.409 . S
C349 C347 1.415 . S
C350 H340 0.930 . S
C350 C348 1.419 . S
C350 C351 1.362 . S
C351 H341 0.930 . S
C351 C344 1.409 . S
C351 C350 1.362 . S
H352 C358 0.930 . S
H353 C361 0.930 . S
H354 C362 0.930 . S
H355 C363 0.930 . S
H356 C366 0.930 . S
H357 C367 0.930 . S
C358 H352 0.930 . S
C358 C359 1.355 . S
C358 C360 1.415 . S
C359 C358 1.355 . S
C359 C361 1.419 . S
C360 C358 1.415 . S
C360 C365 1.425 . S
C360 C367 1.409 . S
C361 H353 0.930 . S
C361 C359 1.419 . S
C361 C362 1.362 . S
C362 H354 0.930 . S
C362 C361 1.362 . S
C362 C365 1.409 . S
C363 H355 0.930 . S
C363 C364 1.355 . S
C363 C365 1.415 . S
C364 C363 1.355 . S
C364 C366 1.419 . S
C365 C360 1.425 . S
C365 C362 1.409 . S
C365 C363 1.415 . S
C366 H356 0.930 . S
C366 C364 1.419 . S
C366 C367 1.362 . S
C367 H357 0.930 . S
C367 C360 1.409 . S
C367 C366 1.362 . S
H368 C374 0.930 . S
H369 C377 0.930 . S
H370 C378 0.930 . S
H371 C379 0.930 . S
H372 C382 0.930 . S
H373 C383 0.930 . S
C374 H368 0.930 . S
C374 C375 1.355 . S
C374 C376 1.415 . S
C375 C374 1.355 . S
C375 C377 1.419 . S
C376 C374 1.415 . S
C376 C381 1.425 . S
C376 C383 1.409 . S
C377 H369 0.930 . S
C377 C375 1.419 . S
C377 C378 1.362 . S
C378 H370 0.930 . S
C378 C377 1.362 . S
C378 C381 1.409 . S
C379 H371 0.930 . S
C379 C380 1.355 . S
C379 C381 1.415 . S
C380 C379 1.355 . S
C380 C382 1.419 . S
C381 C376 1.425 . S
C381 C378 1.409 . S
C381 C379 1.415 . S
C382 H372 0.930 . S
C382 C380 1.419 . S
C382 C383 1.362 . S
C383 H373 0.930 . S
C383 C376 1.409 . S
C383 C382 1.362 . S
H384 C390 0.930 . S
H385 C393 0.930 . S
H386 C394 0.930 . S
H387 C395 0.930 . S
H388 C398 0.930 . S
H389 C399 0.930 . S
C390 H384 0.930 . S
C390 C391 1.355 . S
C390 C392 1.415 . S
C391 C390 1.355 . S
C391 C393 1.419 . S
C392 C390 1.415 . S
C392 C397 1.425 . S
C392 C399 1.409 . S
C393 H385 0.930 . S
C393 C391 1.419 . S
C393 C394 1.362 . S
C394 H386 0.930 . S
C394 C393 1.362 . S
C394 C397 1.409 . S
C395 H387 0.930 . S
C395 C396 1.355 . S
C395 C397 1.415 . S
C396 C395 1.355 . S
C396 C398 1.419 . S
C397 C392 1.425 . S
C397 C394 1.409 . S
C397 C395 1.415 . S
C398 H388 0.930 . S
C398 C396 1.419 . S
C398 C399 1.362 . S
C399 H389 0.930 . S
C399 C392 1.409 . S
C399 C398 1.362 . S
H400 C406 0.930 . S
H401 C409 0.930 . S
H402 C410 0.930 . S
H403 C411 0.930 . S
H404 C414 0.930 . S
H405 C415 0.930 . S
C406 H400 0.930 . S
C406 C407 1.355 . S
C406 C408 1.415 . S
C407 C406 1.355 . S
C407 C409 1.419 . S
C408 C406 1.415 . S
C408 C413 1.425 1_554 S
C408 C415 1.409 1_554 S
C409 H401 0.930 . S
C409 C407 1.419 . S
C409 C410 1.362 . S
C410 H402 0.930 . S
C410 C409 1.362 . S
C410 C413 1.409 1_554 S
C411 H403 0.930 . S
C411 C412 1.355 . S
C411 C413 1.415 . S
C412 C411 1.355 . S
C412 C414 1.419 . S
C413 C408 1.425 1_556 S
C413 C410 1.409 1_556 S
C413 C411 1.415 . S
C414 H404 0.930 . S
C414 C412 1.419 . S
C414 C415 1.362 . S
C415 H405 0.930 . S
C415 C408 1.409 1_556 S
C415 C414 1.362 . S
H416 C422 0.930 . S
H417 C425 0.930 . S
H418 C426 0.930 . S
H419 C427 0.930 . S
H420 C430 0.930 . S
H421 C431 0.930 . S
C422 H416 0.930 . S
C422 C423 1.355 . S
C422 C424 1.415 . S
C423 C422 1.355 . S
C423 C425 1.419 . S
C424 C422 1.415 . S
C424 C429 1.425 1_554 S
C424 C431 1.409 1_554 S
C425 H417 0.930 . S
C425 C423 1.419 . S
C425 C426 1.362 . S
C426 H418 0.930 . S
C426 C425 1.362 . S
C426 C429 1.409 1_554 S
C427 H419 0.930 . S
C427 C428 1.355 . S
C427 C429 1.415 . S
C428 C427 1.355 . S
C428 C430 1.419 . S
C429 C424 1.425 1_556 S
C429 C426 1.409 1_556 S
C429 C427 1.415 . S
C430 H420 0.930 . S
C430 C428 1.419 . S
C430 C431 1.362 . S
C431 H421 0.930 . S
C431 C424 1.409 1_556 S
C431 C430 1.362 . S
H432 C438 0.930 . S
H433 C441 0.930 . S
H434 C442 0.930 . S
H435 C443 0.930 . S
H436 C446 0.930 . S
H437 C447 0.930 . S
C438 H432 0.930 . S
C438 C439 1.355 . S
C438 C440 1.415 . S
C439 C438 1.355 . S
C439 C441 1.419 . S
C440 C438 1.415 . S
C440 C445 1.425 . S
C440 C447 1.409 . S
C441 H433 0.930 . S
C441 C439 1.419 . S
C441 C442 1.362 . S
C442 H434 0.930 . S
C442 C441 1.362 . S
C442 C445 1.409 . S
C443 H435 0.930 . S
C443 C444 1.355 . S
C443 C445 1.415 . S
C444 C443 1.355 . S
C444 C446 1.419 . S
C445 C440 1.425 . S
C445 C442 1.409 . S
C445 C443 1.415 . S
C446 H436 0.930 . S
C446 C444 1.419 . S
C446 C447 1.362 . S
C447 H437 0.930 . S
C447 C440 1.409 . S
C447 C446 1.362 . S
H448 C454 0.930 . S
H449 C457 0.930 . S
H450 C458 0.930 . S
H451 C459 0.930 . S
H452 C462 0.930 . S
H453 C463 0.930 . S
C454 H448 0.930 . S
C454 C455 1.355 . S
C454 C456 1.415 . S
C455 C454 1.355 . S
C455 C457 1.419 . S
C456 C454 1.415 . S
C456 C461 1.425 . S
C456 C463 1.409 . S
C457 H449 0.930 . S
C457 C455 1.419 . S
C457 C458 1.362 . S
C458 H450 0.930 . S
C458 C457 1.362 . S
C458 C461 1.409 . S
C459 H451 0.930 . S
C459 C460 1.355 . S
C459 C461 1.415 . S
C460 C459 1.355 . S
C460 C462 1.419 . S
C461 C456 1.425 . S
C461 C458 1.409 . S
C461 C459 1.415 . S
C462 H452 0.930 . S
C462 C460 1.419 . S
C462 C463 1.362 . S
C463 H453 0.930 . S
C463 C456 1.409 . S
C463 C462 1.362 . S
H464 C470 0.930 . S
H465 C473 0.930 . S
H466 C474 0.930 . S
H467 C475 0.930 . S
H468 C478 0.930 . S
H469 C479 0.930 . S
C470 H464 0.930 . S
C470 C471 1.355 . S
C470 C472 1.415 . S
C471 C470 1.355 . S
C471 C473 1.419 . S
C472 C470 1.415 . S
C472 C477 1.425 . S
C472 C479 1.409 . S
C473 H465 0.930 . S
C473 C471 1.419 . S
C473 C474 1.362 . S
C474 H466 0.930 . S
C474 C473 1.362 . S
C474 C477 1.409 . S
C475 H467 0.930 . S
C475 C476 1.355 . S
C475 C477 1.415 . S
C476 C475 1.355 . S
C476 C478 1.419 . S
C477 C472 1.425 . S
C477 C474 1.409 . S
C477 C475 1.415 . S
C478 H468 0.930 . S
C478 C476 1.419 . S
C478 C479 1.362 . S
C479 H469 0.930 . S
C479 C472 1.409 . S
C479 C478 1.362 . S
H480 C486 0.930 . S
H481 C489 0.930 . S
H482 C490 0.930 . S
H483 C491 0.930 . S
H484 C494 0.930 . S
H485 C495 0.930 . S
C486 H480 0.930 . S
C486 C487 1.355 . S
C486 C488 1.415 . S
C487 C486 1.355 . S
C487 C489 1.419 1_545 S
C488 C486 1.415 . S
C488 C493 1.425 1_445 S
C488 C495 1.409 1_455 S
C489 H481 0.930 . S
C489 C487 1.419 1_565 S
C489 C490 1.362 . S
C490 H482 0.930 . S
C490 C489 1.362 . S
C490 C493 1.409 1_455 S
C491 H483 0.930 . S
C491 C492 1.355 . S
C491 C493 1.415 . S
C492 C491 1.355 . S
C492 C494 1.419 1_565 S
C493 C488 1.425 1_665 S
C493 C490 1.409 1_655 S
C493 C491 1.415 . S
C494 H484 0.930 . S
C494 C492 1.419 1_545 S
C494 C495 1.362 . S
C495 H485 0.930 . S
C495 C488 1.409 1_655 S
C495 C494 1.362 . S
H496 C502 0.930 . S
H497 C505 0.930 . S
H498 C506 0.930 . S
H499 C507 0.930 . S
H500 C510 0.930 . S
H501 C511 0.930 . S
C502 H496 0.930 . S
C502 C503 1.355 1_655 S
C502 C504 1.415 . S
C503 C502 1.355 1_455 S
C503 C505 1.419 . S
C504 C502 1.415 . S
C504 C509 1.425 1_655 S
C504 C511 1.409 . S
C505 H497 0.930 . S
C505 C503 1.419 . S
C505 C506 1.362 . S
C506 H498 0.930 . S
C506 C505 1.362 . S
C506 C509 1.409 . S
C507 H499 0.930 . S
C507 C508 1.355 1_455 S
C507 C509 1.415 . S
C508 C507 1.355 1_655 S
C508 C510 1.419 . S
C509 C504 1.425 1_455 S
C509 C506 1.409 . S
C509 C507 1.415 . S
C510 H500 0.930 . S
C510 C508 1.419 . S
C510 C511 1.362 . S
C511 H501 0.930 . S
C511 C504 1.409 . S
C511 C510 1.362 . S
H512 C518 0.930 . S
H513 C521 0.930 . S
H514 C522 0.930 . S
H515 C523 0.930 . S
H516 C526 0.930 . S
H517 C527 0.930 . S
C518 H512 0.930 . S
C518 C519 1.355 . S
C518 C520 1.415 . S
C519 C518 1.355 . S
C519 C521 1.419 . S
C520 C518 1.415 . S
C520 C525 1.425 . S
C520 C527 1.409 . S
C521 H513 0.930 . S
C521 C519 1.419 . S
C521 C522 1.362 . S
C522 H514 0.930 . S
C522 C521 1.362 . S
C522 C525 1.409 . S
C523 H515 0.930 . S
C523 C524 1.355 . S
C523 C525 1.415 . S
C524 C523 1.355 . S
C524 C526 1.419 . S
C525 C520 1.425 . S
C525 C522 1.409 . S
C525 C523 1.415 . S
C526 H516 0.930 . S
C526 C524 1.419 . S
C526 C527 1.362 . S
C527 H517 0.930 . S
C527 C520 1.409 . S
C527 C526 1.362 . S
H528 C534 0.930 . S
H529 C537 0.930 . S
H530 C538 0.930 1_565 S
H531 C539 0.930 . S
H532 C542 0.930 . S
H533 C543 0.930 1_545 S
C534 H528 0.930 . S
C534 C535 1.355 . S
C534 C536 1.415 . S
C535 C534 1.355 . S
C535 C537 1.419 . S
C536 C534 1.415 . S
C536 C541 1.425 1_545 S
C536 C543 1.409 1_545 S
C537 H529 0.930 . S
C537 C535 1.419 . S
C537 C538 1.362 . S
C538 H530 0.930 1_545 S
C538 C537 1.362 . S
C538 C541 1.409 1_545 S
C539 H531 0.930 . S
C539 C540 1.355 . S
C539 C541 1.415 . S
C540 C539 1.355 . S
C540 C542 1.419 . S
C541 C536 1.425 1_565 S
C541 C538 1.409 1_565 S
C541 C539 1.415 . S
C542 H532 0.930 . S
C542 C540 1.419 . S
C542 C543 1.362 . S
C543 H533 0.930 1_565 S
C543 C536 1.409 1_565 S
C543 C542 1.362 . S
H544 C550 0.930 . S
H545 C553 0.930 . S
H546 C554 0.930 1_655 S
H547 C555 0.930 . S
H548 C558 0.930 . S
H549 C559 0.930 1_455 S
C550 H544 0.930 . S
C550 C551 1.355 . S
C550 C552 1.415 . S
C551 C550 1.355 . S
C551 C553 1.419 . S
C552 C550 1.415 . S
C552 C557 1.425 1_455 S
C552 C559 1.409 1_455 S
C553 H545 0.930 . S
C553 C551 1.419 . S
C553 C554 1.362 . S
C554 H546 0.930 1_455 S
C554 C553 1.362 . S
C554 C557 1.409 1_455 S
C555 H547 0.930 . S
C555 C556 1.355 . S
C555 C557 1.415 . S
C556 C555 1.355 . S
C556 C558 1.419 . S
C557 C552 1.425 1_655 S
C557 C554 1.409 1_655 S
C557 C555 1.415 . S
C558 H548 0.930 . S
C558 C556 1.419 . S
C558 C559 1.362 . S
C559 H549 0.930 1_655 S
C559 C552 1.409 1_655 S
C559 C558 1.362 . S
H560 C566 0.930 . S
H561 C569 0.930 . S
H562 C570 0.930 . S
H563 C571 0.930 . S
H564 C574 0.930 . S
H565 C575 0.930 . S
C566 H560 0.930 . S
C566 C567 1.355 . S
C566 C568 1.415 . S
C567 C566 1.355 . S
C567 C569 1.419 . S
C568 C566 1.415 . S
C568 C573 1.425 . S
C568 C575 1.409 . S
C569 H561 0.930 . S
C569 C567 1.419 . S
C569 C570 1.362 . S
C570 H562 0.930 . S
C570 C569 1.362 . S
C570 C573 1.409 . S
C571 H563 0.930 . S
C571 C572 1.355 . S
C571 C573 1.415 . S
C572 C571 1.355 . S
C572 C574 1.419 . S
C573 C568 1.425 . S
C573 C570 1.409 . S
C573 C571 1.415 . S
C574 H564 0.930 . S
C574 C572 1.419 . S
C574 C575 1.362 . S
C575 H565 0.930 . S
C575 C568 1.409 . S
C575 C574 1.362 . S
H576 C582 0.930 . S
H577 C585 0.930 . S
H578 C586 0.930 . S
H579 C587 0.930 . S
H580 C590 0.930 . S
H581 C591 0.930 . S
C582 H576 0.930 . S
C582 C583 1.355 . S
C582 C584 1.415 . S
C583 C582 1.355 . S
C583 C585 1.419 1_565 S
C584 C582 1.415 . S
C584 C589 1.425 1_565 S
C584 C591 1.409 . S
C585 H577 0.930 . S
C585 C583 1.419 1_545 S
C585 C586 1.362 . S
C586 H578 0.930 . S
C586 C585 1.362 . S
C586 C589 1.409 . S
C587 H579 0.930 . S
C587 C588 1.355 . S
C587 C589 1.415 . S
C588 C587 1.355 . S
C588 C590 1.419 1_545 S
C589 C584 1.425 1_545 S
C589 C586 1.409 . S
C589 C587 1.415 . S
C590 H580 0.930 . S
C590 C588 1.419 1_565 S
C590 C591 1.362 . S
C591 H581 0.930 . S
C591 C584 1.409 . S
C591 C590 1.362 . S
H592 C598 0.930 . S
H593 C601 0.930 . S
H594 C602 0.930 1_565 S
H595 C603 0.930 . S
H596 C606 0.930 . S
H597 C607 0.930 1_545 S
C598 H592 0.930 . S
C598 C599 1.355 1_655 S
C598 C600 1.415 . S
C599 C598 1.355 1_455 S
C599 C601 1.419 . S
C600 C598 1.415 . S
C600 C605 1.425 1_645 S
C600 C607 1.409 1_545 S
C601 H593 0.930 . S
C601 C599 1.419 . S
C601 C602 1.362 . S
C602 H594 0.930 1_545 S
C602 C601 1.362 . S
C602 C605 1.409 1_545 S
C603 H595 0.930 . S
C603 C604 1.355 1_455 S
C603 C605 1.415 . S
C604 C603 1.355 1_655 S
C604 C606 1.419 . S
C605 C600 1.425 1_465 S
C605 C602 1.409 1_565 S
C605 C603 1.415 . S
C606 H596 0.930 . S
C606 C604 1.419 . S
C606 C607 1.362 . S
C607 H597 0.930 1_565 S
C607 C600 1.409 1_565 S
C607 C606 1.362 . S
H608 C614 0.930 . S
H609 C617 0.930 . S
H610 C618 0.930 . S
H611 C619 0.930 . S
H612 C622 0.930 . S
H613 C623 0.930 . S
C614 H608 0.930 . S
C614 C615 1.355 . S
C614 C616 1.415 . S
C615 C614 1.355 . S
C615 C617 1.419 1_565 S
C616 C614 1.415 . S
C616 C621 1.425 1_565 S
C616 C623 1.409 . S
C617 H609 0.930 . S
C617 C615 1.419 1_545 S
C617 C618 1.362 . S
C618 H610 0.930 . S
C618 C617 1.362 . S
C618 C621 1.409 . S
C619 H611 0.930 . S
C619 C620 1.355 . S
C619 C621 1.415 . S
C620 C619 1.355 . S
C620 C622 1.419 1_545 S
C621 C616 1.425 1_545 S
C621 C618 1.409 . S
C621 C619 1.415 . S
C622 H612 0.930 . S
C622 C620 1.419 1_565 S
C622 C623 1.362 . S
C623 H613 0.930 . S
C623 C616 1.409 . S
C623 C622 1.362 . S
H624 C630 0.930 . S
H625 C633 0.930 . S
H626 C634 0.930 . S
H627 C635 0.930 . S
H628 C638 0.930 . S
H629 C639 0.930 . S
C630 H624 0.930 . S
C630 C631 1.355 . S
C630 C632 1.415 . S
C631 C630 1.355 . S
C631 C633 1.419 . S
C632 C630 1.415 . S
C632 C637 1.425 1_665 S
C632 C639 1.409 1_665 S
C633 H625 0.930 . S
C633 C631 1.419 . S
C633 C634 1.362 . S
C634 H626 0.930 . S
C634 C633 1.362 . S
C634 C637 1.409 1_665 S
C635 H627 0.930 . S
C635 C636 1.355 . S
C635 C637 1.415 . S
C636 C635 1.355 . S
C636 C638 1.419 . S
C637 C632 1.425 1_445 S
C637 C634 1.409 1_445 S
C637 C635 1.415 . S
C638 H628 0.930 . S
C638 C636 1.419 . S
C638 C639 1.362 . S
C639 H629 0.930 . S
C639 C632 1.409 1_445 S
C639 C638 1.362 . S
H640 C646 0.930 . S
H641 C649 0.930 . S
H642 C650 0.930 1_655 S
H643 C651 0.930 . S
H644 C654 0.930 . S
H645 C655 0.930 1_455 S
C646 H640 0.930 . S
C646 C647 1.355 . S
C646 C648 1.415 . S
C647 C646 1.355 . S
C647 C649 1.419 . S
C648 C646 1.415 . S
C648 C653 1.425 1_455 S
C648 C655 1.409 1_455 S
C649 H641 0.930 . S
C649 C647 1.419 . S
C649 C650 1.362 . S
C650 H642 0.930 1_455 S
C650 C649 1.362 . S
C650 C653 1.409 1_455 S
C651 H643 0.930 . S
C651 C652 1.355 . S
C651 C653 1.415 . S
C652 C651 1.355 . S
C652 C654 1.419 . S
C653 C648 1.425 1_655 S
C653 C650 1.409 1_655 S
C653 C651 1.415 . S
C654 H644 0.930 . S
C654 C652 1.419 . S
C654 C655 1.362 . S
C655 H645 0.930 1_655 S
C655 C648 1.409 1_655 S
C655 C654 1.362 . S
H656 C662 0.930 . S
H657 C665 0.930 . S
H658 C666 0.930 . S
H659 C667 0.930 . S
H660 C670 0.930 . S
H661 C671 0.930 . S
C662 H656 0.930 . S
C662 C663 1.355 . S
C662 C664 1.415 . S
C663 C662 1.355 . S
C663 C665 1.419 . S
C664 C662 1.415 . S
C664 C669 1.425 . S
C664 C671 1.409 . S
C665 H657 0.930 . S
C665 C663 1.419 . S
C665 C666 1.362 . S
C666 H658 0.930 . S
C666 C665 1.362 . S
C666 C669 1.409 . S
C667 H659 0.930 . S
C667 C668 1.355 . S
C667 C669 1.415 . S
C668 C667 1.355 . S
C668 C670 1.419 . S
C669 C664 1.425 . S
C669 C666 1.409 . S
C669 C667 1.415 . S
C670 H660 0.930 . S
C670 C668 1.419 . S
C670 C671 1.362 . S
C671 H661 0.930 . S
C671 C664 1.409 . S
C671 C670 1.362 . S
H672 C678 0.930 . S
H673 C681 0.930 . S
H674 C682 0.930 . S
H675 C683 0.930 . S
H676 C686 0.930 . S
H677 C687 0.930 . S
C678 H672 0.930 . S
C678 C679 1.355 . S
C678 C680 1.415 . S
C679 C678 1.355 . S
C679 C681 1.419 . S
C680 C678 1.415 . S
C680 C685 1.425 . S
C680 C687 1.409 . S
C681 H673 0.930 . S
C681 C679 1.419 . S
C681 C682 1.362 . S
C682 H674 0.930 . S
C682 C681 1.362 . S
C682 C685 1.409 . S
C683 H675 0.930 . S
C683 C684 1.355 . S
C683 C685 1.415 . S
C684 C683 1.355 . S
C684 C686 1.419 . S
C685 C680 1.425 . S
C685 C682 1.409 . S
C685 C683 1.415 . S
C686 H676 0.930 . S
C686 C684 1.419 . S
C686 C687 1.362 . S
C687 H677 0.930 . S
C687 C680 1.409 . S
C687 C686 1.362 . S
H688 C694 0.930 . S
H689 C697 0.930 . S
H690 C698 0.930 1_565 S
H691 C699 0.930 . S
H692 C702 0.930 . S
H693 C703 0.930 1_545 S
C694 H688 0.930 . S
C694 C695 1.355 . S
C694 C696 1.415 . S
C695 C694 1.355 . S
C695 C697 1.419 . S
C696 C694 1.415 . S
C696 C701 1.425 1_545 S
C696 C703 1.409 1_545 S
C697 H689 0.930 . S
C697 C695 1.419 . S
C697 C698 1.362 . S
C698 H690 0.930 1_545 S
C698 C697 1.362 . S
C698 C701 1.409 1_545 S
C699 H691 0.930 . S
C699 C700 1.355 . S
C699 C701 1.415 . S
C700 C699 1.355 . S
C700 C702 1.419 . S
C701 C696 1.425 1_565 S
C701 C698 1.409 1_565 S
C701 C699 1.415 . S
C702 H692 0.930 . S
C702 C700 1.419 . S
C702 C703 1.362 . S
C703 H693 0.930 1_565 S
C703 C696 1.409 1_565 S
C703 C702 1.362 . S
H704 C710 0.930 . S
H705 C713 0.930 . S
H706 C714 0.930 . S
H707 C715 0.930 . S
H708 C718 0.930 . S
H709 C719 0.930 . S
C710 H704 0.930 . S
C710 C711 1.355 . S
C710 C712 1.416 1_655 S
C711 C710 1.355 . S
C711 C713 1.419 1_565 S
C712 C710 1.416 1_455 S
C712 C717 1.425 1_565 S
C712 C719 1.408 . S
C713 H705 0.930 . S
C713 C711 1.419 1_545 S
C713 C714 1.362 . S
C714 H706 0.930 . S
C714 C713 1.362 . S
C714 C717 1.410 1_655 S
C715 H707 0.930 . S
C715 C716 1.355 . S
C715 C717 1.414 . S
C716 C715 1.355 . S
C716 C718 1.419 1_545 S
C717 C712 1.425 1_545 S
C717 C714 1.410 1_455 S
C717 C715 1.414 . S
C718 H708 0.930 . S
C718 C716 1.419 1_565 S
C718 C719 1.362 . S
C719 H709 0.930 . S
C719 C712 1.408 . S
C719 C718 1.362 . S
H720 C726 0.930 . S
H721 C729 0.930 . S
H722 C730 0.930 . S
H723 C731 0.930 . S
H724 C734 0.930 . S
H725 C735 0.930 . S
C726 H720 0.930 . S
C726 C727 1.355 . S
C726 C728 1.415 . S
C727 C726 1.355 . S
C727 C729 1.419 1_655 S
C728 C726 1.415 . S
C728 C733 1.425 1_655 S
C728 C735 1.409 . S
C729 H721 0.930 . S
C729 C727 1.419 1_455 S
C729 C730 1.362 . S
C730 H722 0.930 . S
C730 C729 1.362 . S
C730 C733 1.409 . S
C731 H723 0.930 . S
C731 C732 1.355 . S
C731 C733 1.415 . S
C732 C731 1.355 . S
C732 C734 1.419 1_455 S
C733 C728 1.425 1_455 S
C733 C730 1.409 . S
C733 C731 1.415 . S
C734 H724 0.930 . S
C734 C732 1.419 1_655 S
C734 C735 1.362 . S
C735 H725 0.930 . S
C735 C728 1.409 . S
C735 C734 1.362 . S
C231 C68 1.063 . S
C236 C12 1.057 . S
C247 C26 1.116 . S
C252 C82 1.118 . S
C263 C96 1.053 . S
C268 C40 1.058 . S
C279 C110 1.056 . S
C284 C54 1.052 . S
C295 C180 1.068 . S
C300 C124 1.075 . S
C311 C138 1.065 . S
C316 C194 1.072 . S
C327 C208 1.063 . S
C332 C152 1.057 . S
C343 C166 1.110 . S
C348 C222 1.104 . S
C359 C5 1.150 . S
C364 C215 1.104 . S
C375 C19 1.216 . S
C380 C173 1.076 . S
C391 C33 1.105 . S
C396 C187 1.147 . S
C407 C201 1.079 . S
C412 C47 1.220 . S
C423 C61 1.122 . S
C428 C131 1.220 . S
C439 C75 1.121 . S
C444 C145 1.220 . S
C455 C159 1.120 . S
C460 C89 1.132 . S
C471 C117 1.075 . S
C476 C103 1.212 . S
C487 C11 1.496 . S
C492 C151 1.471 . S
C503 C165 1.477 . S
C508 C25 1.457 . S
C519 C39 1.455 . S
C524 C123 1.491 . S
C535 C137 1.464 . S
C540 C53 1.467 . S
C551 C67 1.459 . S
C556 C207 1.474 . S
C567 C81 1.494 . S
C572 C221 1.475 . S
C583 C179 1.496 . S
C588 C95 1.460 . S
C599 C193 1.455 . S
C604 C109 1.484 . S
C615 C144 1.578 . S
C620 C4 1.583 . S
C631 C18 1.553 . S
C636 C158 1.587 . S
C647 C32 1.563 . S
C652 C116 1.569 . S
C663 C130 1.553 . S
C668 C46 1.589 . S
C679 C200 1.592 . S
C684 C60 1.561 . S
C695 C214 1.579 . S
C700 C74 1.556 . S
C711 C172 1.578 . S
C716 C88 1.582 . S
C727 C102 1.568 . S
C732 C186 1.590 . S
