# Generated by pormake.
# Topology cab, (5)-cn, num edge types: 1
# Building blocks:
#     Node 0, Type 0, BuildingBlock: BEQFEK_clean_sbu_0, # of connection points: 5
#     Node 1, Type 0, BuildingBlock: BEQFEK_clean_sbu_0, # of connection points: 5
#     Node 2, Type 0, BuildingBlock: BEQFEK_clean_sbu_0, # of connection points: 5
#     Node 3, Type 0, BuildingBlock: BEQFEK_clean_sbu_0, # of connection points: 5
#     Node 4, Type 0, BuildingBlock: BEQFEK_clean_sbu_0, # of connection points: 5
#     Node 5, Type 0, BuildingBlock: BEQFEK_clean_sbu_0, # of connection points: 5
#     Edge 6, Type (0, 0), BuildingBlock: MIFKUJ_clean_linker_0, # of connection points: 2
#     Edge 7, Type (0, 0), BuildingBlock: MIFKUJ_clean_linker_0, # of connection points: 2
#     Edge 8, Type (0, 0), BuildingBlock: MIFKUJ_clean_linker_0, # of connection points: 2
#     Edge 9, Type (0, 0), BuildingBlock: MIFKUJ_clean_linker_0, # of connection points: 2
#     Edge 10, Type (0, 0), BuildingBlock: MIFKUJ_clean_linker_0, # of connection points: 2
#     Edge 11, Type (0, 0), BuildingBlock: MIFKUJ_clean_linker_0, # of connection points: 2
#     Edge 12, Type (0, 0), BuildingBlock: MIFKUJ_clean_linker_0, # of connection points: 2
#     Edge 13, Type (0, 0), BuildingBlock: MIFKUJ_clean_linker_0, # of connection points: 2
#     Edge 14, Type (0, 0), BuildingBlock: MIFKUJ_clean_linker_0, # of connection points: 2
#     Edge 15, Type (0, 0), BuildingBlock: MIFKUJ_clean_linker_0, # of connection points: 2
#     Edge 16, Type (0, 0), BuildingBlock: MIFKUJ_clean_linker_0, # of connection points: 2
#     Edge 17, Type (0, 0), BuildingBlock: MIFKUJ_clean_linker_0, # of connection points: 2
#     Edge 18, Type (0, 0), BuildingBlock: MIFKUJ_clean_linker_0, # of connection points: 2
#     Edge 19, Type (0, 0), BuildingBlock: MIFKUJ_clean_linker_0, # of connection points: 2
#     Edge 20, Type (0, 0), BuildingBlock: MIFKUJ_clean_linker_0, # of connection points: 2
# Relax obj value: 1.222
# Max RMSD: 0.227
# Mean RMSD: 0.212
data_MOF--net-cab--node1-BEQFEK_clean_sbu_0--edge1-MIFKUJ_clean_linker_0
_symmetry_space_group_name_H-M    P1
_symmetry_Int_Tables_number       1
_symmetry_cell_setting            triclinic
loop_
_symmetry_equiv_pos_as_xyz
'x, y, z'
_cell_length_a     39.491832
_cell_length_b     38.647099
_cell_length_c     40.297988
_cell_angle_alpha  112.65246
_cell_angle_beta   96.259102
_cell_angle_gamma 130.25805
loop_
_atom_site_label
_atom_site_type_symbol
_atom_site_fract_x
_atom_site_fract_y
_atom_site_fract_z
_atom_type_partial_charge
Co0 Co 0.35844 0.5453 0.71226 0.0
Co1 Co 0.24664 0.48728 0.6788 0.0
C2 C 0.26814 0.43014 0.63021 0.0
O3 O 0.31547 0.47094 0.65812 0.0
O4 O 0.23785 0.43205 0.6341 0.0
C5 C 0.4359 0.58287 0.6952 0.0
O6 O 0.39726 0.55641 0.66079 0.0
C7 C 0.15103 0.4291 0.61592 0.0
C8 C 0.10622 0.41921 0.64731 0.0
C9 C 0.10318 0.40419 0.60896 0.0
N10 N 0.18132 0.45731 0.6564 0.0
N11 N 0.15455 0.45187 0.67526 0.0
C12 C 0.16731 0.42544 0.58404 0.0
H13 H 0.20989 0.45896 0.59917 0.0
H14 H 0.15196 0.42957 0.56294 0.0
H15 H 0.15088 0.38335 0.56463 0.0
C16 C 0.37864 0.63406 0.71091 0.0
N17 N 0.34784 0.5857 0.70768 0.0
N18 N 0.30085 0.56083 0.69336 0.0
C19 C 0.30043 0.5922 0.68675 0.0
C20 C 0.34934 0.63895 0.69663 0.0
C21 C 0.43413 0.6725 0.72331 0.0
H22 H 0.45292 0.67308 0.74636 0.0
H23 H 0.43697 0.65783 0.69524 0.0
H24 H 0.45492 0.71636 0.73725 0.0
O25 O 0.33858 0.52538 0.75049 0.0
O26 O 0.25941 0.48409 0.72571 0.0
H27 H 0.22885 0.55824 0.68128 0.0
H28 H 0.26391 0.613 0.67391 0.0
C29 C 0.25328 0.5758 0.66795 0.0
H30 H 0.23087 0.54318 0.63374 0.0
H31 H 0.16842 0.46816 0.7067 0.0
O32 O 0.42995 0.58658 0.72635 0.0
C33 C 0.29621 0.49855 0.75054 0.0
Co34 Co 0.1315 0.02792 0.80728 0.0
Co35 Co 0.01967 0.97049 0.7739 0.0
C36 C 0.10402 0.07547 0.85995 0.0
O37 O 0.13504 0.0756 0.85411 0.0
O38 O 0.05714 0.03624 0.83153 0.0
C39 C 0.20776 0.0628 0.86778 0.0
O40 O 0.17151 0.0423 0.87752 0.0
C41 C 0.92529 0.92342 0.77453 0.0
C42 C 0.86558 0.85969 0.70772 0.0
C43 C 0.8731 0.88285 0.74761 0.0
N44 N 0.94815 0.9248 0.75188 0.0
N45 N 0.91226 0.88677 0.71188 0.0
C46 C 0.95215 0.95669 0.82112 0.0
H47 H 0.98118 0.95922 0.83201 0.0
H48 H 0.92454 0.93717 0.83179 0.0
H49 H 0.97221 0.00036 0.83542 0.0
C50 C 0.07313 0.91334 0.78171 0.0
N51 N 0.07501 0.95003 0.78328 0.0
N52 N 0.02885 0.92697 0.77167 0.0
C53 C 0.99654 0.87553 0.76365 0.0
C54 C 0.02372 0.86535 0.77022 0.0
C55 C 0.11815 0.92435 0.7923 0.0
H56 H 0.14503 0.95201 0.78455 0.0
H57 H 0.13895 0.94556 0.82609 0.0
H58 H 0.10482 0.88378 0.77491 0.0
O59 O 0.12681 0.04465 0.76784 0.0
O60 O 0.04865 0.006 0.74525 0.0
H61 H 0.91939 0.82825 0.72646 0.0
H62 H 0.92377 0.80187 0.75282 0.0
C63 C 0.94284 0.84075 0.75573 0.0
H64 H 0.94383 0.86648 0.7817 0.0
H65 H 0.91943 0.87843 0.68744 0.0
O66 O 0.1987 0.05868 0.83441 0.0
C67 C 0.09212 0.03587 0.74695 0.0
Co68 Co 0.6615 0.45014 0.33345 0.0
Co69 Co 0.6944 0.49462 0.4273 0.0
C70 C 0.58354 0.39623 0.35962 0.0
O71 O 0.59546 0.40072 0.33232 0.0
O72 O 0.61797 0.42945 0.39763 0.0
C73 C 0.60554 0.41839 0.25741 0.0
O74 O 0.58521 0.42712 0.27801 0.0
C75 C 0.69517 0.53662 0.50551 0.0
C76 C 0.77718 0.60338 0.55341 0.0
C77 C 0.73017 0.58062 0.5479 0.0
N78 N 0.72057 0.53503 0.48654 0.0
N79 N 0.76938 0.57401 0.51553 0.0
C80 C 0.63815 0.49602 0.48318 0.0
H81 H 0.61811 0.45204 0.46441 0.0
H82 H 0.62816 0.50313 0.46167 0.0
H83 H 0.62402 0.50004 0.50508 0.0
C84 C 0.71824 0.56712 0.37021 0.0
N85 N 0.70422 0.52724 0.37417 0.0
N86 N 0.71562 0.54537 0.41298 0.0
C87 C 0.73552 0.59683 0.43441 0.0
C88 C 0.73748 0.61218 0.40799 0.0
C89 C 0.70609 0.55858 0.32947 0.0
H90 H 0.70844 0.53213 0.30897 0.0
H91 H 0.66671 0.53742 0.31404 0.0
H92 H 0.73327 0.59955 0.33409 0.0
O93 O 0.69511 0.4318 0.34505 0.0
O94 O 0.71761 0.4607 0.41065 0.0
H95 H 0.77673 0.63789 0.49938 0.0
H96 H 0.76167 0.6688 0.48872 0.0
C97 C 0.747 0.62822 0.47802 0.0
H98 H 0.71157 0.60143 0.47952 0.0
H99 H 0.79801 0.58299 0.50917 0.0
O100 O 0.64181 0.42789 0.27585 0.0
C101 C 0.71476 0.43694 0.37625 0.0
Co102 Co 0.42892 0.78027 0.35212 0.0
Co103 Co 0.41103 0.73266 0.26104 0.0
C104 C 0.32937 0.66088 0.2777 0.0
O105 O 0.35764 0.70135 0.31642 0.0
O106 O 0.34584 0.66681 0.2528 0.0
C107 C 0.43032 0.76531 0.41339 0.0
O108 O 0.41308 0.72001 0.38125 0.0
C109 C 0.38958 0.65412 0.18519 0.0
C110 C 0.39354 0.68261 0.14615 0.0
C111 C 0.38241 0.64044 0.14608 0.0
N112 N 0.40509 0.70262 0.2078 0.0
N113 N 0.40781 0.71986 0.18448 0.0
C114 C 0.37543 0.61792 0.19912 0.0
H115 H 0.33286 0.5803 0.18205 0.0
H116 H 0.39023 0.64198 0.23317 0.0
H117 H 0.39135 0.60249 0.19192 0.0
C118 C 0.51872 0.80256 0.36617 0.0
N119 N 0.47725 0.78498 0.34153 0.0
N120 N 0.4701 0.7652 0.30352 0.0
C121 C 0.50701 0.76984 0.30303 0.0
C122 C 0.53849 0.79278 0.34258 0.0
C123 C 0.53901 0.82745 0.41153 0.0
H124 H 0.53491 0.85431 0.42674 0.0
H125 H 0.51697 0.79278 0.41489 0.0
H126 H 0.5802 0.85334 0.42746 0.0
O127 O 0.42525 0.82327 0.34005 0.0
O128 O 0.41118 0.78776 0.27514 0.0
H129 H 0.49827 0.75558 0.24416 0.0
H130 H 0.54933 0.77034 0.27294 0.0
C131 C 0.50986 0.74859 0.26481 0.0
H132 H 0.48383 0.70267 0.24776 0.0
H133 H 0.41724 0.75562 0.1941 0.0
O134 O 0.44337 0.80304 0.40977 0.0
C135 C 0.41613 0.81996 0.30692 0.0
Co136 Co 0.71763 0.05014 0.10592 0.0
Co137 Co 0.64267 0.93843 0.09962 0.0
C138 C 0.74315 0.04505 0.17624 0.0
O139 O 0.75094 0.07058 0.16045 0.0
O140 O 0.7037 0.99176 0.15534 0.0
C141 C 0.81462 0.13079 0.11964 0.0
O142 O 0.81197 0.09619 0.12202 0.0
C143 C 0.61338 0.84836 0.10026 0.0
C144 C 0.52835 0.77788 0.0643 0.0
C145 C 0.57077 0.79319 0.08601 0.0
N146 N 0.59728 0.86551 0.0883 0.0
N147 N 0.54631 0.82334 0.06698 0.0
C148 C 0.66872 0.88233 0.1211 0.0
H149 H 0.69079 0.9113 0.1126 0.0
H150 H 0.67231 0.8543 0.11199 0.0
H151 H 0.68566 0.90811 0.15546 0.0
C152 C 0.6985 0.97397 0.02721 0.0
N153 N 0.69137 0.98375 0.06008 0.0
N154 N 0.66019 0.93676 0.05699 0.0
C155 C 0.6471 0.89564 0.02207 0.0
C156 C 0.67129 0.91814 0.00227 0.0
C157 C 0.72899 0.01651 0.01864 0.0
H158 H 0.72625 0.04523 0.03015 0.0
H159 H 0.76999 0.04208 0.03496 0.0
H160 H 0.71494 0.9951 0.9847 0.0
O161 O 0.66192 0.03967 0.10477 0.0
O162 O 0.61315 0.96631 0.1075 0.0
H163 H 0.57692 0.81726 0.00675 0.0
H164 H 0.60718 0.80989 0.97874 0.0
C165 C 0.61429 0.83694 0.0091 0.0
H166 H 0.63377 0.8391 0.0331 0.0
H167 H 0.52387 0.82515 0.0536 0.0
O168 O 0.77462 0.1184 0.11002 0.0
C169 C 0.62439 0.00638 0.10884 0.0
Co170 Co 0.0009 0.81634 0.23544 0.0
Co171 Co 0.97346 0.76355 0.1419 0.0
C172 C 0.06107 0.88644 0.20494 0.0
O173 O 0.05199 0.87862 0.23207 0.0
O174 O 0.0315 0.84503 0.16629 0.0
C175 C 0.00867 0.88866 0.29657 0.0
O176 O 0.99021 0.88367 0.26377 0.0
C177 C 0.95501 0.7339 0.058 0.0
C178 C 0.88739 0.64045 0.01756 0.0
C179 C 0.9201 0.68628 0.01655 0.0
N180 N 0.94273 0.71715 0.08237 0.0
N181 N 0.90259 0.66118 0.058 0.0
C182 C 0.00164 0.79399 0.07454 0.0
H183 H 0.0352 0.81279 0.10015 0.0
H184 H 0.99502 0.81886 0.08739 0.0
H185 H 0.01097 0.79698 0.05012 0.0
C186 C 0.89109 0.74772 0.19643 0.0
N187 N 0.93257 0.76518 0.19385 0.0
N188 N 0.92227 0.74742 0.15533 0.0
C189 C 0.87468 0.72062 0.1326 0.0
C190 C 0.85311 0.71955 0.15786 0.0
C191 C 0.88737 0.75641 0.23484 0.0
H192 H 0.91315 0.76024 0.25461 0.0
H193 H 0.89914 0.79586 0.25319 0.0
H194 H 0.84706 0.72056 0.22623 0.0
O195 O 0.01978 0.7795 0.23012 0.0
O196 O 0.00553 0.74805 0.16539 0.0
H197 H 0.83014 0.65839 0.06639 0.0
H198 H 0.82773 0.7068 0.08407 0.0
C199 C 0.85318 0.70322 0.08939 0.0
H200 H 0.88477 0.73014 0.08421 0.0
H201 H 0.88499 0.63716 0.06897 0.0
O202 O 0.01428 0.85855 0.29207 0.0
C203 C 0.0222 0.75611 0.19956 0.0
H204 H 0.39304 0.68462 0.42429 0.0
H205 H 0.38926 0.68754 0.485 0.0
H206 H 0.46724 0.85843 0.55085 0.0
H207 H 0.47078 0.85583 0.48933 0.0
H208 H 0.49843 0.82041 0.59487 0.0
H209 H 0.36199 0.78834 0.52734 0.0
H210 H 0.29003 0.7432 0.46506 0.0
H211 H 0.20764 0.57883 0.43109 0.0
H212 H 0.27955 0.62292 0.49274 0.0
H213 H 0.42031 0.75295 0.73345 0.0
H214 H 0.44172 0.79734 0.69741 0.0
H215 H 0.3256 0.63128 0.57853 0.0
H216 H 0.30385 0.58765 0.61423 0.0
H217 H 0.32233 0.69431 0.57429 0.0
H218 H 0.45765 0.71764 0.62804 0.0
H219 H 0.52844 0.75368 0.68467 0.0
H220 H 0.61159 0.92458 0.73947 0.0
H221 H 0.54083 0.88946 0.68355 0.0
C222 C 0.40993 0.7232 0.45169 0.0
C223 C 0.43197 0.76994 0.45187 0.0
C224 C 0.40778 0.72475 0.48641 0.0
C225 C 0.42791 0.77311 0.52221 0.0
C226 C 0.45168 0.82082 0.52339 0.0
C227 C 0.45342 0.81914 0.48825 0.0
C228 C 0.42012 0.77073 0.55665 0.0
C229 C 0.46038 0.79436 0.59127 0.0
C230 C 0.37018 0.73562 0.55115 0.0
C231 C 0.32628 0.70899 0.51459 0.0
C232 C 0.32867 0.74256 0.50645 0.0
C233 C 0.28788 0.71715 0.47125 0.0
C234 C 0.24434 0.65816 0.44407 0.0
C235 C 0.24142 0.62449 0.45212 0.0
C236 C 0.28215 0.64968 0.48723 0.0
C237 C 0.39913 0.72634 0.69965 0.0
C238 C 0.36026 0.66708 0.67647 0.0
C239 C 0.4114 0.75156 0.67911 0.0
C240 C 0.38544 0.71765 0.6352 0.0
C241 C 0.34586 0.65841 0.61236 0.0
C242 C 0.33341 0.63344 0.63275 0.0
C243 C 0.40024 0.7424 0.61209 0.0
C244 C 0.36103 0.72246 0.5792 0.0
C245 C 0.45092 0.77991 0.61879 0.0
C246 C 0.49372 0.80093 0.65194 0.0
C247 C 0.4909 0.76289 0.65232 0.0
C248 C 0.53098 0.78313 0.68429 0.0
C249 C 0.5744 0.84138 0.71568 0.0
C250 C 0.57787 0.87948 0.71516 0.0
C251 C 0.53778 0.85944 0.68337 0.0
H252 H 0.60549 0.85707 0.74033 0.0
H253 H 0.21282 0.63856 0.41682 0.0
H254 H 0.7796 0.14169 0.23677 0.0
H255 H 0.83273 0.19835 0.31184 0.0
H256 H 0.83781 0.0841 0.29242 0.0
H257 H 0.78064 0.02445 0.21689 0.0
H258 H 0.82987 0.11271 0.3565 0.0
H259 H 0.94254 0.22333 0.31549 0.0
H260 H 0.96837 0.2711 0.2818 0.0
H261 H 0.96134 0.37652 0.36056 0.0
H262 H 0.93511 0.32909 0.3945 0.0
H263 H 0.06044 0.30415 0.54652 0.0
H264 H 0.9911 0.23915 0.47465 0.0
H265 H 0.97205 0.34354 0.50664 0.0
H266 H 0.04225 0.40925 0.579 0.0
H267 H 0.98427 0.32112 0.43823 0.0
H268 H 0.87957 0.21405 0.48362 0.0
H269 H 0.85594 0.16598 0.51693 0.0
H270 H 0.8519 0.0538 0.42962 0.0
H271 H 0.87622 0.10172 0.39608 0.0
C272 C 0.79232 0.12887 0.24857 0.0
C273 C 0.77694 0.07939 0.22123 0.0
C274 C 0.82294 0.16146 0.2915 0.0
C275 C 0.84083 0.14672 0.30793 0.0
C276 C 0.82487 0.09668 0.28055 0.0
C277 C 0.79255 0.06281 0.23749 0.0
C278 C 0.87584 0.18337 0.35361 0.0
C279 C 0.86402 0.15817 0.3742 0.0
C280 C 0.91975 0.24304 0.37714 0.0
C281 C 0.93654 0.27239 0.35733 0.0
C282 C 0.94638 0.2566 0.32553 0.0
C283 C 0.96112 0.28363 0.30641 0.0
C284 C 0.96645 0.32677 0.319 0.0
C285 C 0.95725 0.34313 0.35086 0.0
C286 C 0.94255 0.31627 0.37011 0.0
C287 C 0.04089 0.31269 0.53825 0.0
C288 C 0.05654 0.36158 0.56785 0.0
C289 C 0.00113 0.27542 0.49734 0.0
C290 C 0.97628 0.28638 0.48537 0.0
C291 C 0.99072 0.33432 0.51537 0.0
C292 C 0.03044 0.37154 0.55655 0.0
C293 C 0.93852 0.2503 0.4408 0.0
C294 C 0.94994 0.27567 0.42045 0.0
C295 C 0.89482 0.1908 0.41746 0.0
C296 C 0.8801 0.1618 0.43752 0.0
C297 C 0.87405 0.17943 0.47171 0.0
C298 C 0.86045 0.15215 0.49059 0.0
C299 C 0.85251 0.10694 0.47543 0.0
C300 C 0.85808 0.08885 0.44131 0.0
C301 C 0.8717 0.11601 0.42232 0.0
H302 H 0.84194 0.08588 0.49009 0.0
H303 H 0.97776 0.34756 0.3041 0.0
H304 H 0.31471 0.3997 0.62047 0.0
H305 H 0.27334 0.30553 0.56898 0.0
H306 H 0.13122 0.24579 0.5096 0.0
H307 H 0.17154 0.33864 0.5616 0.0
H308 H 0.11254 0.17531 0.52163 0.0
H309 H 0.20943 0.26975 0.46597 0.0
H310 H 0.2868 0.34269 0.46659 0.0
H311 H 0.35287 0.29637 0.49616 0.0
H312 H 0.27616 0.22367 0.49634 0.0
H313 H 0.97697 0.93447 0.31624 0.0
H314 H 0.02335 0.02398 0.38126 0.0
H315 H 0.13698 0.03947 0.43509 0.0
H316 H 0.09008 0.9491 0.37008 0.0
H317 H 0.17613 0.13142 0.43357 0.0
H318 H 0.06782 0.02495 0.47752 0.0
H319 H 0.98574 0.94946 0.4709 0.0
H320 H 0.93552 0.01607 0.45618 0.0
H321 H 0.01695 0.09148 0.46208 0.0
C322 C 0.27493 0.3668 0.59596 0.0
C323 C 0.24644 0.3768 0.59516 0.0
C324 C 0.25131 0.31293 0.56656 0.0
C325 C 0.19912 0.26853 0.53543 0.0
C326 C 0.17142 0.27926 0.5335 0.0
C327 C 0.19474 0.33268 0.56308 0.0
C328 C 0.17225 0.2101 0.50592 0.0
C329 C 0.12626 0.16569 0.50212 0.0
C330 C 0.19098 0.19772 0.48142 0.0
C331 C 0.23739 0.24187 0.48182 0.0
C332 C 0.24071 0.27556 0.4731 0.0
C333 C 0.2844 0.31679 0.47322 0.0
C334 C 0.32486 0.32439 0.48166 0.0
C335 C 0.32161 0.29061 0.48983 0.0
C336 C 0.27804 0.2494 0.48982 0.0
C337 C 0.01102 0.95616 0.34237 0.0
C338 C 0.0301 0.93513 0.33823 0.0
C339 C 0.03738 0.00715 0.37948 0.0
C340 C 0.08353 0.03821 0.41285 0.0
C341 C 0.10128 0.01586 0.40963 0.0
C342 C 0.07435 0.9642 0.37266 0.0
C343 C 0.11592 0.09681 0.4486 0.0
C344 C 0.16296 0.14125 0.45361 0.0
C345 C 0.09758 0.10911 0.47353 0.0
C346 C 0.04846 0.06371 0.46996 0.0
C347 C 0.03912 0.02325 0.47251 0.0
C348 C 0.99272 0.98051 0.46896 0.0
C349 C 0.95539 0.9779 0.46305 0.0
C350 C 0.96445 0.01812 0.46076 0.0
C351 C 0.01076 0.06093 0.46426 0.0
H352 H 0.91949 0.94479 0.4603 0.0
H353 H 0.35859 0.35624 0.48164 0.0
H354 H 0.76999 0.62515 0.63101 0.0
H355 H 0.74939 0.66018 0.6797 0.0
H356 H 0.6513 0.62782 0.58222 0.0
H357 H 0.67536 0.59842 0.53562 0.0
H358 H 0.69202 0.71434 0.64992 0.0
H359 H 0.61317 0.53031 0.6085 0.0
H360 H 0.61427 0.46674 0.6073 0.0
H361 H 0.69362 0.57061 0.7413 0.0
H362 H 0.69394 0.63542 0.74316 0.0
H363 H 0.45706 0.58199 0.6334 0.0
H364 H 0.53263 0.61301 0.63126 0.0
H365 H 0.60141 0.66985 0.7571 0.0
H366 H 0.52427 0.63738 0.75926 0.0
H367 H 0.60519 0.60442 0.70423 0.0
H368 H 0.64334 0.75842 0.73463 0.0
H369 H 0.6341 0.81444 0.73183 0.0
H370 H 0.61858 0.75661 0.61053 0.0
H371 H 0.62727 0.69976 0.61247 0.0
C372 C 0.74453 0.62629 0.62041 0.0
C373 C 0.72186 0.60602 0.57885 0.0
C374 C 0.73259 0.64598 0.64811 0.0
C375 C 0.69727 0.64473 0.63431 0.0
C376 C 0.67802 0.62854 0.59372 0.0
C377 C 0.69088 0.6104 0.56664 0.0
C378 C 0.67643 0.65568 0.65987 0.0
C379 C 0.67262 0.68997 0.6615 0.0
C380 C 0.65381 0.62666 0.67742 0.0
C381 C 0.65449 0.58827 0.67605 0.0
C382 C 0.63139 0.53992 0.6377 0.0
C383 C 0.63169 0.50363 0.63689 0.0
C384 C 0.65421 0.51475 0.67421 0.0
C385 C 0.67627 0.56206 0.71241 0.0
C386 C 0.6764 0.5987 0.71337 0.0
C387 C 0.48826 0.60148 0.66091 0.0
C388 C 0.48443 0.60678 0.69642 0.0
C389 C 0.53174 0.61963 0.6597 0.0
C390 C 0.57288 0.64425 0.69413 0.0
C391 C 0.57 0.65098 0.7302 0.0
C392 C 0.52607 0.63255 0.73141 0.0
C393 C 0.6165 0.65844 0.69027 0.0
C394 C 0.62521 0.62963 0.69332 0.0
C395 C 0.64226 0.69112 0.67579 0.0
C396 C 0.63678 0.72527 0.67413 0.0
C397 C 0.63828 0.75784 0.70748 0.0
C398 C 0.6329 0.78963 0.70594 0.0
C399 C 0.62599 0.78935 0.67109 0.0
C400 C 0.62424 0.75707 0.63765 0.0
C401 C 0.62957 0.72514 0.63906 0.0
H402 H 0.62185 0.814 0.66992 0.0
H403 H 0.65437 0.48658 0.67351 0.0
H404 H 0.90004 0.61127 0.9449 0.0
H405 H 0.90067 0.61274 0.88452 0.0
H406 H 0.93141 0.75704 0.94291 0.0
H407 H 0.92896 0.75432 0.00215 0.0
H408 H 0.86813 0.68855 0.86088 0.0
H409 H 0.02956 0.77248 0.95416 0.0
H410 H 0.08131 0.7699 0.99082 0.0
H411 H 0.02507 0.63351 0.87353 0.0
H412 H 0.97252 0.63493 0.83624 0.0
H413 H 0.07522 0.89491 0.84375 0.0
H414 H 0.04545 0.83526 0.86656 0.0
H415 H 0.90931 0.68933 0.74438 0.0
H416 H 0.9404 0.7492 0.72066 0.0
H417 H 0.00945 0.73137 0.84059 0.0
H418 H 0.81716 0.63455 0.76199 0.0
H419 H 0.77761 0.65132 0.72957 0.0
H420 H 0.90845 0.83056 0.82625 0.0
H421 H 0.94918 0.8148 0.85882 0.0
C422 C 0.90629 0.64277 0.94443 0.0
C423 C 0.91633 0.68399 0.97873 0.0
C424 C 0.90667 0.64361 0.91004 0.0
C425 C 0.91695 0.68561 0.90952 0.0
C426 C 0.92367 0.72443 0.94266 0.0
C427 C 0.92313 0.72346 0.97683 0.0
C428 C 0.92557 0.69318 0.87685 0.0
C429 C 0.89817 0.6965 0.85572 0.0
C430 C 0.96497 0.70396 0.87012 0.0
C431 C 0.99669 0.70332 0.89251 0.0
C432 C 0.02801 0.74172 0.93625 0.0
C433 C 0.0575 0.7405 0.95713 0.0
C434 C 0.05635 0.70144 0.93453 0.0
C435 C 0.02582 0.66364 0.891 0.0
C436 C 0.99618 0.66463 0.86998 0.0
C437 C 0.04018 0.84971 0.82108 0.0
C438 C 0.01003 0.82657 0.78044 0.0
C439 C 0.0231 0.81565 0.83423 0.0
C440 C 0.97518 0.75803 0.80721 0.0
C441 C 0.94649 0.73379 0.76564 0.0
C442 C 0.96408 0.76791 0.75222 0.0
C443 C 0.95243 0.72721 0.82529 0.0
C444 C 0.97753 0.72027 0.84404 0.0
C445 C 0.9116 0.71401 0.83045 0.0
C446 C 0.88588 0.72344 0.81286 0.0
C447 C 0.83712 0.67742 0.77654 0.0
C448 C 0.8146 0.68678 0.75808 0.0
C449 C 0.84019 0.7419 0.77601 0.0
C450 C 0.88853 0.78786 0.81246 0.0
C451 C 0.91139 0.77877 0.8309 0.0
H452 H 0.82266 0.74902 0.76164 0.0
H453 H 0.07921 0.70056 0.95074 0.0
H454 H 0.62278 0.37314 0.2009 0.0
H455 H 0.57649 0.32035 0.12503 0.0
H456 H 0.49176 0.354 0.13719 0.0
H457 H 0.53782 0.40677 0.21253 0.0
H458 H 0.47645 0.22532 0.07584 0.0
H459 H 0.45459 0.35613 0.06137 0.0
H460 H 0.5092 0.45631 0.09292 0.0
H461 H 0.64456 0.49912 0.12781 0.0
H462 H 0.5908 0.39908 0.09595 0.0
H463 H 0.23356 0.06816 0.93614 0.0
H464 H 0.31925 0.13112 0.9915 0.0
H465 H 0.38491 0.19302 0.92323 0.0
H466 H 0.29832 0.13034 0.8675 0.0
H467 H 0.43289 0.27848 0.00059 0.0
H468 H 0.39347 0.11714 0.94069 0.0
H469 H 0.34092 0.01719 0.90775 0.0
H470 H 0.33453 0.03677 0.01846 0.0
H471 H 0.38635 0.13656 0.05188 0.0
C472 C 0.59509 0.37031 0.18742 0.0
C473 C 0.58355 0.39365 0.21262 0.0
C474 C 0.56869 0.34013 0.1441 0.0
C475 C 0.53095 0.33356 0.12544 0.0
C476 C 0.52135 0.35932 0.15087 0.0
C477 C 0.54742 0.38911 0.19399 0.0
C478 C 0.49653 0.29393 0.07949 0.0
C479 C 0.46747 0.23703 0.0591 0.0
C480 C 0.48599 0.3096 0.05728 0.0
C481 C 0.51854 0.36993 0.07628 0.0
C482 C 0.49596 0.38677 0.07548 0.0
C483 C 0.5268 0.4436 0.09352 0.0
C484 C 0.58031 0.48406 0.11239 0.0
C485 C 0.60311 0.46776 0.11326 0.0
C486 C 0.57247 0.411 0.09528 0.0
C487 C 0.26601 0.09437 0.9324 0.0
C488 C 0.25917 0.09454 0.89755 0.0
C489 C 0.31512 0.1301 0.96402 0.0
C490 C 0.3586 0.16639 0.96137 0.0
C491 C 0.35186 0.16513 0.9258 0.0
C492 C 0.30241 0.12921 0.89396 0.0
C493 C 0.41064 0.20944 0.99807 0.0
C494 C 0.44295 0.26697 0.01677 0.0
C495 C 0.42467 0.19447 0.01853 0.0
C496 C 0.39392 0.1345 0.99881 0.0
C497 C 0.38071 0.10011 0.95798 0.0
C498 C 0.35103 0.04345 0.93921 0.0
C499 C 0.33441 0.02066 0.961 0.0
C500 C 0.34751 0.05451 0.00164 0.0
C501 C 0.37717 0.11119 0.02055 0.0
H502 H 0.31139 0.97676 0.9464 0.0
H503 H 0.60411 0.52802 0.1263 0.0
H504 H 0.19743 0.16067 0.93172 0.0
H505 H 0.2419 0.25646 0.98273 0.0
H506 H 0.10534 0.20506 0.92157 0.0
H507 H 0.06022 0.10886 0.87062 0.0
H508 H 0.19456 0.29508 0.92606 0.0
H509 H 0.14383 0.24479 0.0161 0.0
H510 H 0.13382 0.20588 0.05511 0.0
H511 H 0.29794 0.3291 0.1259 0.0
H512 H 0.30892 0.36827 0.08689 0.0
H513 H 0.29471 0.56079 0.07075 0.0
H514 H 0.24751 0.46331 0.01933 0.0
H515 H 0.37257 0.50355 0.09087 0.0
H516 H 0.41927 0.60064 0.14211 0.0
H517 H 0.28543 0.4171 0.0806 0.0
H518 H 0.34147 0.46712 0.99377 0.0
H519 H 0.35795 0.50264 0.95166 0.0
H520 H 0.1954 0.38002 0.8723 0.0
H521 H 0.17787 0.3445 0.91449 0.0
C522 C 0.17626 0.16919 0.92994 0.0
C523 C 0.12548 0.12733 0.89688 0.0
C524 C 0.20174 0.22395 0.95912 0.0
C525 C 0.17694 0.23774 0.95558 0.0
C526 C 0.12504 0.19507 0.92464 0.0
C527 C 0.09926 0.14004 0.89575 0.0
C528 C 0.20717 0.2978 0.98071 0.0
C529 C 0.21399 0.32181 0.95984 0.0
C530 C 0.23365 0.33257 0.02472 0.0
C531 C 0.22715 0.30916 0.0483 0.0
C532 C 0.17777 0.26329 0.03973 0.0
C533 C 0.17192 0.24125 0.0619 0.0
C534 C 0.21521 0.26492 0.0929 0.0
C535 C 0.26444 0.31078 0.10186 0.0
C536 C 0.2705 0.33296 0.07976 0.0
C537 C 0.31263 0.54907 0.07456 0.0
C538 C 0.36009 0.5874 0.11041 0.0
C539 C 0.28573 0.49349 0.04529 0.0
C540 C 0.30631 0.47601 0.05152 0.0
C541 C 0.35574 0.51594 0.08566 0.0
C542 C 0.3824 0.57123 0.11481 0.0
C543 C 0.27389 0.41503 0.02597 0.0
C544 C 0.26638 0.39069 0.04679 0.0
C545 C 0.24798 0.38025 0.98183 0.0
C546 C 0.25839 0.40382 0.95788 0.0
C547 C 0.30922 0.44845 0.96789 0.0
C548 C 0.31875 0.46842 0.94386 0.0
C549 C 0.27776 0.44385 0.90949 0.0
C550 C 0.22713 0.39925 0.8991 0.0
C551 C 0.21739 0.37923 0.9231 0.0
H552 H 0.2852 0.4591 0.89075 0.0
H553 H 0.2106 0.2478 0.11004 0.0
H554 H 0.75771 0.95759 0.00229 0.0
H555 H 0.7662 0.9221 0.94289 0.0
H556 H 0.60119 0.7857 0.86213 0.0
H557 H 0.59262 0.82207 0.92202 0.0
H558 H 0.71298 0.80317 0.88194 0.0
H559 H 0.58977 0.78236 0.79524 0.0
H560 H 0.5502 0.81144 0.79063 0.0
H561 H 0.70022 0.98597 0.86758 0.0
H562 H 0.74051 0.95773 0.87276 0.0
H563 H 0.78839 0.77973 0.72782 0.0
H564 H 0.73129 0.75951 0.75677 0.0
H565 H 0.81518 0.93312 0.82442 0.0
H566 H 0.87177 0.95299 0.79564 0.0
H567 H 0.71795 0.86787 0.79572 0.0
H568 H 0.83714 0.88091 0.86896 0.0
H569 H 0.87698 0.85283 0.8761 0.0
H570 H 0.72838 0.68456 0.82186 0.0
H571 H 0.68756 0.71151 0.81393 0.0
C572 C 0.72324 0.91984 0.97191 0.0
C573 C 0.67458 0.8925 0.96653 0.0
C574 C 0.72807 0.89947 0.9381 0.0
C575 C 0.68437 0.85147 0.89819 0.0
C576 C 0.63536 0.823 0.8927 0.0
C577 C 0.63049 0.84348 0.92682 0.0
C578 C 0.6921 0.83461 0.86283 0.0
C579 C 0.71205 0.81483 0.86157 0.0
C580 C 0.6916 0.85064 0.83691 0.0
C581 C 0.66795 0.86812 0.83484 0.0
C582 C 0.61416 0.82696 0.81147 0.0
C583 C 0.59165 0.84324 0.8087 0.0
C584 C 0.62266 0.90053 0.82898 0.0
C585 C 0.67625 0.94164 0.85203 0.0
C586 C 0.69894 0.92555 0.85491 0.0
C587 C 0.79358 0.81295 0.74813 0.0
C588 C 0.83407 0.86778 0.75956 0.0
C589 C 0.76132 0.80157 0.76486 0.0
C590 C 0.76901 0.84483 0.79292 0.0
C591 C 0.80821 0.89893 0.80272 0.0
C592 C 0.84058 0.91035 0.78636 0.0
C593 C 0.73859 0.83566 0.81414 0.0
C594 C 0.716 0.8525 0.81381 0.0
C595 C 0.73505 0.8148 0.83735 0.0
C596 C 0.75931 0.79805 0.84052 0.0
C597 C 0.81293 0.83776 0.85815 0.0
C598 C 0.83567 0.82206 0.86239 0.0
C599 C 0.80519 0.76688 0.84934 0.0
C600 C 0.7519 0.72723 0.83187 0.0
C601 C 0.72894 0.74267 0.82747 0.0
H602 H 0.82287 0.75487 0.85288 0.0
H603 H 0.60517 0.91304 0.82665 0.0
H604 H 0.6731 0.61207 0.4247 0.0
H605 H 0.65579 0.65925 0.41628 0.0
H606 H 0.77704 0.74233 0.3883 0.0
H607 H 0.79575 0.69617 0.39816 0.0
H608 H 0.76608 0.81043 0.43554 0.0
H609 H 0.66563 0.63016 0.3084 0.0
H610 H 0.61059 0.52831 0.26443 0.0
H611 H 0.49536 0.49135 0.29494 0.0
H612 H 0.54974 0.59296 0.3392 0.0
H613 H 0.62759 0.84231 0.34012 0.0
H614 H 0.67663 0.82543 0.35211 0.0
H615 H 0.57178 0.71517 0.38062 0.0
H616 H 0.52244 0.73054 0.36757 0.0
H617 H 0.58538 0.6665 0.32302 0.0
H618 H 0.69182 0.84921 0.45652 0.0
H619 H 0.74791 0.95133 0.50106 0.0
H620 H 0.85296 0.98425 0.45733 0.0
H621 H 0.79715 0.88214 0.41213 0.0
C622 C 0.69736 0.64201 0.4183 0.0
C623 C 0.73563 0.65049 0.41193 0.0
C624 C 0.68717 0.66855 0.41314 0.0
C625 C 0.71452 0.70336 0.40091 0.0
C626 C 0.75541 0.71537 0.39756 0.0
C627 C 0.7659 0.68894 0.40303 0.0
C628 C 0.69599 0.72145 0.38742 0.0
C629 C 0.72695 0.77921 0.41041 0.0
C630 C 0.6451 0.68059 0.35441 0.0
C631 C 0.61189 0.61925 0.32728 0.0
C632 C 0.62865 0.60035 0.30588 0.0
C633 C 0.59756 0.54265 0.28088 0.0
C634 C 0.54962 0.50345 0.27705 0.0
C635 C 0.53252 0.52179 0.29797 0.0
C636 C 0.56338 0.57939 0.3229 0.0
C637 C 0.61535 0.8146 0.34901 0.0
C638 C 0.57136 0.78758 0.3529 0.0
C639 C 0.64344 0.80531 0.35609 0.0
C640 C 0.62778 0.76906 0.36726 0.0
C641 C 0.58445 0.74318 0.37193 0.0
C642 C 0.55654 0.75233 0.36483 0.0
C643 C 0.65439 0.75532 0.37258 0.0
C644 C 0.62491 0.69803 0.34761 0.0
C645 C 0.70663 0.79673 0.40349 0.0
C646 C 0.73996 0.85797 0.43052 0.0
C647 C 0.7266 0.87814 0.45608 0.0
C648 C 0.75842 0.93603 0.48152 0.0
C649 C 0.80389 0.97422 0.48193 0.0
C650 C 0.81769 0.9546 0.45692 0.0
C651 C 0.78599 0.89674 0.4314 0.0
H652 H 0.82856 0.01903 0.50177 0.0
H653 H 0.52565 0.45884 0.25781 0.0
H654 H 0.54344 0.34396 0.39642 0.0
H655 H 0.45225 0.25979 0.3697 0.0
H656 H 0.40872 0.25871 0.26618 0.0
H657 H 0.49971 0.34168 0.29183 0.0
H658 H 0.35512 0.24561 0.32815 0.0
H659 H 0.39374 0.17308 0.22692 0.0
H660 H 0.44739 0.16369 0.21199 0.0
H661 H 0.42599 0.09489 0.27978 0.0
H662 H 0.37295 0.10492 0.29576 0.0
H663 H 0.1029 0.91866 0.15868 0.0
H664 H 0.18998 0.00938 0.18517 0.0
H665 H 0.21917 0.07294 0.31117 0.0
H666 H 0.13234 0.98325 0.28514 0.0
H667 H 0.28032 0.05655 0.23748 0.0
H668 H 0.30636 0.21475 0.37097 0.0
H669 H 0.25377 0.22338 0.39044 0.0
H670 H 0.14546 0.11954 0.26101 0.0
H671 H 0.19748 0.11045 0.24075 0.0
C672 C 0.51442 0.32617 0.36822 0.0
C673 C 0.52866 0.34925 0.34611 0.0
C674 C 0.46248 0.27809 0.35299 0.0
C675 C 0.42411 0.25313 0.31593 0.0
C676 C 0.438 0.27742 0.29476 0.0
C677 C 0.4899 0.32468 0.30942 0.0
C678 C 0.36952 0.20042 0.2984 0.0
C679 C 0.33857 0.20419 0.30822 0.0
C680 C 0.34839 0.1467 0.27276 0.0
C681 C 0.38014 0.14063 0.26309 0.0
C682 C 0.40108 0.1567 0.23913 0.0
C683 C 0.43122 0.15108 0.23036 0.0
C684 C 0.4403 0.12896 0.2451 0.0
C685 C 0.41909 0.11222 0.26851 0.0
C686 C 0.38901 0.11788 0.27744 0.0
C687 C 0.12744 0.95228 0.19194 0.0
C688 C 0.11047 0.94352 0.2197 0.0
C689 C 0.17734 0.00399 0.20706 0.0
C690 C 0.21101 0.04799 0.25013 0.0
C691 C 0.19368 0.03994 0.27778 0.0
C692 C 0.14391 0.98843 0.26275 0.0
C693 C 0.26506 0.10126 0.26633 0.0
C694 C 0.29637 0.09776 0.25688 0.0
C695 C 0.28655 0.15524 0.29263 0.0
C696 C 0.25569 0.16172 0.30437 0.0
C697 C 0.27149 0.19407 0.34668 0.0
C698 C 0.24174 0.19895 0.35786 0.0
C699 C 0.19632 0.17203 0.327 0.0
C700 C 0.1806 0.14027 0.28489 0.0
C701 C 0.21014 0.13514 0.27353 0.0
H702 H 0.17333 0.17582 0.33573 0.0
H703 H 0.46364 0.12464 0.23826 0.0
H704 H 0.84107 0.22269 0.13338 0.0
H705 H 0.92692 0.3147 0.15905 0.0
H706 H 0.98617 0.25188 0.15718 0.0
H707 H 0.90135 0.1608 0.13223 0.0
H708 H 0.04661 0.35213 0.22973 0.0
H709 H 0.96447 0.26943 0.08347 0.0
H710 H 0.89769 0.22629 0.01817 0.0
H711 H 0.93517 0.37451 0.07763 0.0
H712 H 0.00174 0.41823 0.14347 0.0
H713 H 0.26113 0.56103 0.19889 0.0
H714 H 0.17189 0.47293 0.17132 0.0
H715 H 0.18585 0.5515 0.2905 0.0
H716 H 0.27545 0.63924 0.31864 0.0
H717 H 0.0879 0.44565 0.1606 0.0
H718 H 0.11249 0.45248 0.30722 0.0
H719 H 0.18025 0.49369 0.37061 0.0
H720 H 0.2591 0.49153 0.30592 0.0
H721 H 0.19136 0.44938 0.24196 0.0
C722 C 0.87232 0.22839 0.13799 0.0
C723 C 0.86447 0.18455 0.13095 0.0
C724 C 0.92132 0.28094 0.15266 0.0
C725 C 0.96299 0.29018 0.16012 0.0
C726 C 0.95472 0.24589 0.15198 0.0
C727 C 0.90607 0.19371 0.13755 0.0
C728 C 0.01583 0.34627 0.17771 0.0
C729 C 0.05556 0.37264 0.21466 0.0
C730 C 0.02759 0.37304 0.15808 0.0
C731 C 0.98767 0.34682 0.1185 0.0
C732 C 0.95817 0.29262 0.0827 0.0
C733 C 0.92042 0.26811 0.04558 0.0
C734 C 0.91208 0.29757 0.04379 0.0
C735 C 0.9416 0.35169 0.07909 0.0
C736 C 0.97936 0.37637 0.1163 0.0
C737 C 0.24534 0.55949 0.21934 0.0
C738 C 0.27564 0.607 0.26111 0.0
C739 C 0.19418 0.50921 0.20342 0.0
C740 C 0.17229 0.50542 0.22892 0.0
C741 C 0.20215 0.55312 0.27042 0.0
C742 C 0.25344 0.60324 0.28648 0.0
C743 C 0.11866 0.45105 0.2123 0.0
C744 C 0.07882 0.42524 0.17577 0.0
C745 C 0.10679 0.42435 0.23202 0.0
C746 C 0.14715 0.44839 0.26997 0.0
C747 C 0.14418 0.46058 0.30649 0.0
C748 C 0.18261 0.48416 0.34253 0.0
C749 C 0.2241 0.49553 0.34237 0.0
C750 C 0.22706 0.48295 0.30606 0.0
C751 C 0.18866 0.45921 0.26991 0.0
H752 H 0.25388 0.51394 0.37033 0.0
H753 H 0.88285 0.27852 0.01502 0.0
H754 H 0.75698 0.62213 0.08858 0.0
H755 H 0.68161 0.60146 0.06947 0.0
H756 H 0.76717 0.75925 0.18661 0.0
H757 H 0.8424 0.78075 0.20504 0.0
H758 H 0.66311 0.67029 0.16255 0.0
H759 H 0.76779 0.7572 0.10484 0.0
H760 H 0.80825 0.75939 0.06197 0.0
H761 H 0.65982 0.59937 0.95356 0.0
H762 H 0.61859 0.59586 0.99604 0.0
H763 H 0.62525 0.82008 0.15679 0.0
H764 H 0.64383 0.77266 0.16167 0.0
H765 H 0.53638 0.6375 0.02954 0.0
H766 H 0.51881 0.68634 0.02455 0.0
H767 H 0.62621 0.68104 0.04743 0.0
H768 H 0.51984 0.60586 0.10337 0.0
H769 H 0.48015 0.60258 0.14687 0.0
H770 H 0.62913 0.73946 0.25793 0.0
H771 H 0.66977 0.74278 0.21502 0.0
C772 C 0.75929 0.65191 0.11037 0.0
C773 C 0.80546 0.70296 0.14832 0.0
C774 C 0.71623 0.63992 0.09957 0.0
C775 C 0.71889 0.67886 0.12668 0.0
C776 C 0.7641 0.72831 0.1655 0.0
C777 C 0.80709 0.74046 0.17608 0.0
C778 C 0.67777 0.67261 0.11314 0.0
C779 C 0.65457 0.67219 0.13721 0.0
C780 C 0.66556 0.67335 0.07928 0.0
C781 C 0.69022 0.6759 0.05367 0.0
C782 C 0.74385 0.72231 0.07192 0.0
C783 C 0.76691 0.72381 0.0477 0.0
C784 C 0.73664 0.67945 0.0051 0.0
C785 C 0.68323 0.63362 0.9866 0.0
C786 C 0.65999 0.63183 0.01072 0.0
C787 C 0.60464 0.77952 0.129 0.0
C788 C 0.57141 0.75729 0.09018 0.0
C789 C 0.61477 0.75196 0.13186 0.0
C790 C 0.5914 0.70121 0.09599 0.0
C791 C 0.55481 0.67653 0.05766 0.0
C792 C 0.54464 0.70426 0.05482 0.0
C793 C 0.61247 0.68068 0.09776 0.0
C794 C 0.63256 0.67661 0.07167 0.0
C795 C 0.62173 0.67582 0.12978 0.0
C796 C 0.59784 0.67475 0.15592 0.0
C797 C 0.54418 0.63552 0.13706 0.0
C798 C 0.5215 0.6336 0.16164 0.0
C799 C 0.55208 0.6712 0.20516 0.0
C800 C 0.60547 0.71043 0.22421 0.0
C801 C 0.62833 0.71207 0.19977 0.0
H802 H 0.5344 0.66976 0.2241 0.0
H803 H 0.75456 0.68067 0.98639 0.0
H804 H 0.18636 0.11683 0.75651 0.0
H805 H 0.22098 0.19916 0.76069 0.0
H806 H 0.0704 0.1257 0.71592 0.0
H807 H 0.03517 0.0431 0.71196 0.0
H808 H 0.12822 0.18673 0.68694 0.0
H809 H 0.14682 0.20693 0.81382 0.0
H810 H 0.17324 0.20563 0.87099 0.0
H811 H 0.33226 0.34511 0.91128 0.0
H812 H 0.30678 0.34491 0.85253 0.0
H813 H 0.20862 0.43441 0.75458 0.0
H814 H 0.1738 0.35838 0.7602 0.0
H815 H 0.31862 0.41894 0.79621 0.0
H816 H 0.35392 0.495 0.79024 0.0
H817 H 0.26083 0.36471 0.8319 0.0
H818 H 0.2418 0.33196 0.69933 0.0
H819 H 0.21744 0.33113 0.63998 0.0
H820 H 0.06104 0.21821 0.61314 0.0
H821 H 0.08476 0.21895 0.67292 0.0
C822 C 0.16004 0.11707 0.74623 0.0
C823 C 0.10808 0.0737 0.73478 0.0
C824 C 0.18013 0.16454 0.749 0.0
C825 C 0.14856 0.16923 0.73993 0.0
C826 C 0.09553 0.12317 0.72368 0.0
C827 C 0.0754 0.07577 0.72121 0.0
C828 C 0.17159 0.22387 0.75078 0.0
C829 C 0.15663 0.2254 0.71872 0.0
C830 C 0.20921 0.27455 0.79235 0.0
C831 C 0.22474 0.27514 0.82808 0.0
C832 C 0.18742 0.23664 0.83428 0.0
C833 C 0.20225 0.23609 0.86699 0.0
C834 C 0.25439 0.27522 0.89479 0.0
C835 C 0.29184 0.31469 0.88966 0.0
C836 C 0.27719 0.31461 0.85641 0.0
C837 C 0.23392 0.43313 0.7653 0.0
C838 C 0.28365 0.46988 0.77069 0.0
C839 C 0.21377 0.3894 0.76837 0.0
C840 C 0.2432 0.3822 0.77739 0.0
C841 C 0.29516 0.42354 0.78875 0.0
C842 C 0.31533 0.46717 0.78541 0.0
C843 C 0.21767 0.32734 0.76802 0.0
C844 C 0.23208 0.32579 0.80028 0.0
C845 C 0.17964 0.27656 0.72671 0.0
C846 C 0.1652 0.27615 0.6909 0.0
C847 C 0.20233 0.30743 0.68104 0.0
C848 C 0.1886 0.30687 0.64724 0.0
C849 C 0.13775 0.27484 0.62282 0.0
C850 C 0.10046 0.24314 0.63214 0.0
C851 C 0.11402 0.24358 0.66597 0.0
H852 H 0.12719 0.27444 0.59663 0.0
H853 H 0.26577 0.27509 0.92038 0.0
H854 H 0.58575 0.9878 0.15991 0.0
H855 H 0.59266 0.05374 0.21369 0.0
H856 H 0.62904 0.138 0.15609 0.0
H857 H 0.62198 0.07236 0.10217 0.0
H858 H 0.71151 0.19562 0.24168 0.0
H859 H 0.5372 0.09456 0.16065 0.0
H860 H 0.4424 0.01464 0.1242 0.0
H861 H 0.44988 0.02812 0.23622 0.0
H862 H 0.54484 0.10753 0.27316 0.0
H863 H 0.75428 0.42308 0.32875 0.0
H864 H 0.73909 0.34328 0.29447 0.0
H865 H 0.67656 0.29284 0.36838 0.0
H866 H 0.69209 0.37337 0.40306 0.0
H867 H 0.60724 0.21076 0.28692 0.0
H868 H 0.77786 0.31952 0.37152 0.0
H869 H 0.87281 0.39836 0.41087 0.0
H870 H 0.87428 0.36959 0.29724 0.0
H871 H 0.77936 0.2912 0.25721 0.0
C872 C 0.59231 0.01826 0.15724 0.0
C873 C 0.60451 0.02575 0.12732 0.0
C874 C 0.59653 0.05614 0.18823 0.0
C875 C 0.61218 0.10111 0.1891 0.0
C876 C 0.61712 0.10358 0.15593 0.0
C877 C 0.61289 0.06587 0.12503 0.0
C878 C 0.63494 0.15205 0.22816 0.0
C879 C 0.68888 0.19929 0.25162 0.0
C880 C 0.60521 0.15524 0.24216 0.0
C881 C 0.5482 0.1063 0.21945 0.0
C882 C 0.51871 0.07984 0.17732 0.0
C883 C 0.46491 0.0348 0.15662 0.0
C884 C 0.44013 0.01609 0.17781 0.0
C885 C 0.46911 0.04244 0.21977 0.0
C886 C 0.52292 0.08745 0.24059 0.0
C887 C 0.7396 0.39656 0.3391 0.0
C888 C 0.72416 0.40416 0.36836 0.0
C889 C 0.73088 0.35086 0.31948 0.0
C890 C 0.70631 0.31178 0.32863 0.0
C891 C 0.69551 0.32248 0.36085 0.0
C892 C 0.70489 0.36882 0.38094 0.0
C893 C 0.68411 0.25576 0.29943 0.0
C894 C 0.63027 0.2072 0.27779 0.0
C895 C 0.714 0.2511 0.28731 0.0
C896 C 0.77128 0.29948 0.31134 0.0
C897 C 0.79836 0.33035 0.35493 0.0
C898 C 0.85223 0.37491 0.37736 0.0
C899 C 0.87956 0.38899 0.35657 0.0
C900 C 0.85307 0.35862 0.31331 0.0
C901 C 0.7992 0.31405 0.29072 0.0
H902 H 0.92126 0.42338 0.37399 0.0
H903 H 0.39848 0.98136 0.16177 0.0
H904 H 0.08336 0.79344 0.27377 0.0
H905 H 0.15607 0.81039 0.29023 0.0
H906 H 0.11122 0.72553 0.16022 0.0
H907 H 0.03843 0.70894 0.14322 0.0
H908 H 0.14999 0.70469 0.20598 0.0
H909 H 0.19473 0.8556 0.2113 0.0
H910 H 0.19966 0.92823 0.2314 0.0
H911 H 0.29207 0.01348 0.36076 0.0
H912 H 0.28689 0.94072 0.34148 0.0
H913 H 0.38178 0.80958 0.23726 0.0
H914 H 0.32131 0.80989 0.21848 0.0
H915 H 0.34722 0.8791 0.34358 0.0
H916 H 0.40745 0.87838 0.36279 0.0
H917 H 0.31916 0.90962 0.29609 0.0
H918 H 0.26383 0.75033 0.28917 0.0
H919 H 0.25972 0.67823 0.26824 0.0
H920 H 0.18728 0.60927 0.13956 0.0
H921 H 0.19182 0.68175 0.15991 0.0
C922 C 0.08786 0.77683 0.24836 0.0
C923 C 0.05546 0.7506 0.20721 0.0
C924 C 0.12974 0.78699 0.25796 0.0
C925 C 0.13949 0.7704 0.22654 0.0
C926 C 0.10443 0.73914 0.18488 0.0
C927 C 0.06278 0.72953 0.17525 0.0
C928 C 0.18842 0.78975 0.23788 0.0
C929 C 0.18691 0.74937 0.22513 0.0
C930 C 0.23651 0.84822 0.26314 0.0
C931 C 0.23994 0.89229 0.27495 0.0
C932 C 0.21566 0.88948 0.24407 0.0
C933 C 0.21858 0.93075 0.25529 0.0
C934 C 0.24606 0.97536 0.29733 0.0
C935 C 0.27074 0.97884 0.32821 0.0
C936 C 0.26784 0.93761 0.31714 0.0
C937 C 0.37643 0.82712 0.2614 0.0
C938 C 0.39813 0.84211 0.30118 0.0
C939 C 0.3418 0.82728 0.25052 0.0
C940 C 0.32904 0.84319 0.2794 0.0
C941 C 0.35645 0.86631 0.32084 0.0
C942 C 0.39085 0.86574 0.33171 0.0
C943 C 0.28057 0.82455 0.26447 0.0
C944 C 0.28217 0.86497 0.27662 0.0
C945 C 0.23244 0.7661 0.23846 0.0
C946 C 0.22869 0.7218 0.22609 0.0
C947 C 0.2474 0.72007 0.25645 0.0
C948 C 0.24495 0.6791 0.24469 0.0
C949 C 0.22338 0.63927 0.20259 0.0
C950 C 0.20406 0.64022 0.17217 0.0
C951 C 0.20655 0.68122 0.18379 0.0
H952 H 0.22149 0.60757 0.19351 0.0
H953 H 0.24831 0.00729 0.30595 0.0
loop_
_geom_bond_atom_site_label_1
_geom_bond_atom_site_label_2
_geom_bond_distance
_geom_bond_site_symmetry_2
_ccdc_geom_bond_type
Co0 O3 1.970 . S
Co0 N17 1.989 . S
Co0 O25 1.967 . S
Co0 O32 1.920 . S
Co1 O4 1.966 . S
Co1 N10 2.022 . S
Co1 N18 1.993 . S
Co1 O26 1.941 . S
C2 O3 1.258 . S
C2 O4 1.263 . S
O3 Co0 1.970 . S
O3 C2 1.258 . S
O4 Co1 1.966 . S
O4 C2 1.263 . S
C5 O6 1.235 . S
C5 O32 1.289 . S
O6 C5 1.235 . S
C7 C9 1.400 . S
C7 N10 1.351 . S
C7 C12 1.501 . S
C8 C9 1.387 . S
C8 N11 1.341 . S
C9 C7 1.400 . S
C9 C8 1.387 . S
N10 Co1 2.022 . S
N10 C7 1.351 . S
N10 N11 1.365 . S
N11 C8 1.341 . S
N11 N10 1.365 . S
N11 H31 0.862 . S
C12 C7 1.501 . S
C12 H13 0.961 . S
C12 H14 0.961 . S
C12 H15 0.960 . S
H13 C12 0.961 . S
H14 C12 0.961 . S
H15 C12 0.960 . S
C16 N17 1.342 . S
C16 C20 1.401 . S
C16 C21 1.499 . S
N17 Co0 1.989 . S
N17 C16 1.342 . S
N17 N18 1.388 . S
N18 Co1 1.993 . S
N18 N17 1.388 . S
N18 C19 1.346 . S
C19 N18 1.346 . S
C19 C20 1.396 . S
C19 C29 1.510 . S
C20 C16 1.401 . S
C20 C19 1.396 . S
C21 C16 1.499 . S
C21 H22 0.959 . S
C21 H23 0.960 . S
C21 H24 0.961 . S
H22 C21 0.959 . S
H23 C21 0.960 . S
H24 C21 0.961 . S
O25 Co0 1.967 . S
O25 C33 1.258 . S
O26 Co1 1.941 . S
O26 C33 1.266 . S
H27 C29 0.959 . S
H28 C29 0.961 . S
C29 C19 1.510 . S
C29 H27 0.959 . S
C29 H28 0.961 . S
C29 H30 0.960 . S
H30 C29 0.960 . S
H31 N11 0.862 . S
O32 Co0 1.920 . S
O32 C5 1.289 . S
C33 O25 1.258 . S
C33 O26 1.266 . S
Co34 O37 1.970 . S
Co34 N51 1.989 1_545 S
Co34 O59 1.967 . S
Co34 O66 1.920 . S
Co35 O38 1.966 1_565 S
Co35 N44 2.022 1_455 S
Co35 N52 1.993 . S
Co35 O60 1.941 . S
C36 O37 1.258 . S
C36 O38 1.263 . S
O37 Co34 1.970 . S
O37 C36 1.258 . S
O38 Co35 1.966 1_545 S
O38 C36 1.263 . S
C39 O40 1.235 . S
C39 O66 1.289 . S
O40 C39 1.235 . S
C41 C43 1.400 . S
C41 N44 1.351 . S
C41 C46 1.501 1_565 S
C42 C43 1.387 . S
C42 N45 1.341 . S
C43 C41 1.400 . S
C43 C42 1.387 . S
N44 Co35 2.022 1_655 S
N44 C41 1.351 . S
N44 N45 1.365 . S
N45 C42 1.341 . S
N45 N44 1.365 . S
N45 H65 0.862 . S
C46 C41 1.501 1_545 S
C46 H47 0.961 1_655 S
C46 H48 0.961 . S
C46 H49 0.960 . S
H47 C46 0.961 1_455 S
H48 C46 0.961 . S
H49 C46 0.960 . S
C50 N51 1.342 . S
C50 C54 1.401 . S
C50 C55 1.499 . S
N51 Co34 1.989 1_565 S
N51 C50 1.342 . S
N51 N52 1.388 . S
N52 Co35 1.993 . S
N52 N51 1.388 . S
N52 C53 1.346 . S
C53 N52 1.346 . S
C53 C54 1.396 . S
C53 C63 1.510 1_455 S
C54 C50 1.401 . S
C54 C53 1.396 . S
C55 C50 1.499 . S
C55 H56 0.959 . S
C55 H57 0.960 . S
C55 H58 0.961 . S
H56 C55 0.959 . S
H57 C55 0.960 . S
H58 C55 0.961 . S
O59 Co34 1.967 . S
O59 C67 1.258 . S
O60 Co35 1.941 . S
O60 C67 1.266 1_565 S
H61 C63 0.959 . S
H62 C63 0.961 . S
C63 C53 1.510 1_655 S
C63 H61 0.959 . S
C63 H62 0.961 . S
C63 H64 0.960 . S
H64 C63 0.960 . S
H65 N45 0.862 . S
O66 Co34 1.920 . S
O66 C39 1.289 . S
C67 O59 1.258 . S
C67 O60 1.266 1_545 S
Co68 O71 1.970 . S
Co68 N85 1.989 . S
Co68 O93 1.967 . S
Co68 O100 1.920 . S
Co69 O72 1.966 . S
Co69 N78 2.022 . S
Co69 N86 1.993 . S
Co69 O94 1.941 . S
C70 O71 1.258 . S
C70 O72 1.263 . S
O71 Co68 1.970 . S
O71 C70 1.258 . S
O72 Co69 1.966 . S
O72 C70 1.263 . S
C73 O74 1.235 . S
C73 O100 1.289 . S
O74 C73 1.235 . S
C75 C77 1.400 . S
C75 N78 1.351 . S
C75 C80 1.501 . S
C76 C77 1.387 . S
C76 N79 1.341 . S
C77 C75 1.400 . S
C77 C76 1.387 . S
N78 Co69 2.022 . S
N78 C75 1.351 . S
N78 N79 1.365 . S
N79 C76 1.341 . S
N79 N78 1.365 . S
N79 H99 0.862 . S
C80 C75 1.501 . S
C80 H81 0.961 . S
C80 H82 0.961 . S
C80 H83 0.960 . S
H81 C80 0.961 . S
H82 C80 0.961 . S
H83 C80 0.960 . S
C84 N85 1.342 . S
C84 C88 1.401 . S
C84 C89 1.499 . S
N85 Co68 1.989 . S
N85 C84 1.342 . S
N85 N86 1.388 . S
N86 Co69 1.993 . S
N86 N85 1.388 . S
N86 C87 1.346 . S
C87 N86 1.346 . S
C87 C88 1.396 . S
C87 C97 1.510 . S
C88 C84 1.401 . S
C88 C87 1.396 . S
C89 C84 1.499 . S
C89 H90 0.959 . S
C89 H91 0.960 . S
C89 H92 0.961 . S
H90 C89 0.959 . S
H91 C89 0.960 . S
H92 C89 0.961 . S
O93 Co68 1.967 . S
O93 C101 1.258 . S
O94 Co69 1.941 . S
O94 C101 1.266 . S
H95 C97 0.959 . S
H96 C97 0.961 . S
C97 C87 1.510 . S
C97 H95 0.959 . S
C97 H96 0.961 . S
C97 H98 0.960 . S
H98 C97 0.960 . S
H99 N79 0.862 . S
O100 Co68 1.920 . S
O100 C73 1.289 . S
C101 O93 1.258 . S
C101 O94 1.266 . S
Co102 O105 1.970 . S
Co102 N119 1.989 . S
Co102 O127 1.967 . S
Co102 O134 1.920 . S
Co103 O106 1.966 . S
Co103 N112 2.022 . S
Co103 N120 1.993 . S
Co103 O128 1.941 . S
C104 O105 1.258 . S
C104 O106 1.263 . S
O105 Co102 1.970 . S
O105 C104 1.258 . S
O106 Co103 1.966 . S
O106 C104 1.263 . S
C107 O108 1.235 . S
C107 O134 1.289 . S
O108 C107 1.235 . S
C109 C111 1.400 . S
C109 N112 1.351 . S
C109 C114 1.501 . S
C110 C111 1.387 . S
C110 N113 1.341 . S
C111 C109 1.400 . S
C111 C110 1.387 . S
N112 Co103 2.022 . S
N112 C109 1.351 . S
N112 N113 1.365 . S
N113 C110 1.341 . S
N113 N112 1.365 . S
N113 H133 0.862 . S
C114 C109 1.501 . S
C114 H115 0.961 . S
C114 H116 0.961 . S
C114 H117 0.960 . S
H115 C114 0.961 . S
H116 C114 0.961 . S
H117 C114 0.960 . S
C118 N119 1.342 . S
C118 C122 1.401 . S
C118 C123 1.499 . S
N119 Co102 1.989 . S
N119 C118 1.342 . S
N119 N120 1.388 . S
N120 Co103 1.993 . S
N120 N119 1.388 . S
N120 C121 1.346 . S
C121 N120 1.346 . S
C121 C122 1.396 . S
C121 C131 1.510 . S
C122 C118 1.401 . S
C122 C121 1.396 . S
C123 C118 1.499 . S
C123 H124 0.959 . S
C123 H125 0.960 . S
C123 H126 0.961 . S
H124 C123 0.959 . S
H125 C123 0.960 . S
H126 C123 0.961 . S
O127 Co102 1.967 . S
O127 C135 1.258 . S
O128 Co103 1.941 . S
O128 C135 1.266 . S
H129 C131 0.959 . S
H130 C131 0.961 . S
C131 C121 1.510 . S
C131 H129 0.959 . S
C131 H130 0.961 . S
C131 H132 0.960 . S
H132 C131 0.960 . S
H133 N113 0.862 . S
O134 Co102 1.920 . S
O134 C107 1.289 . S
C135 O127 1.258 . S
C135 O128 1.266 . S
Co136 O139 1.970 . S
Co136 N153 1.989 . S
Co136 O161 1.967 . S
Co136 O168 1.920 . S
Co137 O140 1.966 1_565 S
Co137 N146 2.022 . S
Co137 N154 1.993 . S
Co137 O162 1.941 . S
C138 O139 1.258 . S
C138 O140 1.263 . S
O139 Co136 1.970 . S
O139 C138 1.258 . S
O140 Co137 1.966 1_545 S
O140 C138 1.263 . S
C141 O142 1.235 . S
C141 O168 1.289 . S
O142 C141 1.235 . S
C143 C145 1.400 . S
C143 N146 1.351 . S
C143 C148 1.501 . S
C144 C145 1.387 . S
C144 N147 1.341 . S
C145 C143 1.400 . S
C145 C144 1.387 . S
N146 Co137 2.022 . S
N146 C143 1.351 . S
N146 N147 1.365 . S
N147 C144 1.341 . S
N147 N146 1.365 . S
N147 H167 0.862 . S
C148 C143 1.501 . S
C148 H149 0.961 . S
C148 H150 0.961 . S
C148 H151 0.960 . S
H149 C148 0.961 . S
H150 C148 0.961 . S
H151 C148 0.960 . S
C152 N153 1.342 . S
C152 C156 1.401 1_545 S
C152 C157 1.499 . S
N153 Co136 1.989 . S
N153 C152 1.342 . S
N153 N154 1.388 1_545 S
N154 Co137 1.993 . S
N154 N153 1.388 1_565 S
N154 C155 1.346 . S
C155 N154 1.346 . S
C155 C156 1.396 . S
C155 C165 1.510 . S
C156 C152 1.401 1_565 S
C156 C155 1.396 . S
C157 C152 1.499 . S
C157 H158 0.959 . S
C157 H159 0.960 . S
C157 H160 0.961 . S
H158 C157 0.959 . S
H159 C157 0.960 . S
H160 C157 0.961 . S
O161 Co136 1.967 . S
O161 C169 1.258 . S
O162 Co137 1.941 . S
O162 C169 1.266 1_565 S
H163 C165 0.959 1_556 S
H164 C165 0.961 . S
C165 C155 1.510 . S
C165 H163 0.959 1_554 S
C165 H164 0.961 . S
C165 H166 0.960 . S
H166 C165 0.960 . S
H167 N147 0.862 . S
O168 Co136 1.920 . S
O168 C141 1.289 . S
C169 O161 1.258 . S
C169 O162 1.266 1_545 S
Co170 O173 1.970 . S
Co170 N187 1.989 1_455 S
Co170 O195 1.967 . S
Co170 O202 1.920 . S
Co171 O174 1.966 1_655 S
Co171 N180 2.022 . S
Co171 N188 1.993 . S
Co171 O196 1.941 . S
C172 O173 1.258 . S
C172 O174 1.263 . S
O173 Co170 1.970 . S
O173 C172 1.258 . S
O174 Co171 1.966 1_455 S
O174 C172 1.263 . S
C175 O176 1.235 . S
C175 O202 1.289 . S
O176 C175 1.235 . S
C177 C179 1.400 . S
C177 N180 1.351 . S
C177 C182 1.501 1_655 S
C178 C179 1.387 . S
C178 N181 1.341 . S
C179 C177 1.400 . S
C179 C178 1.387 . S
N180 Co171 2.022 . S
N180 C177 1.351 . S
N180 N181 1.365 . S
N181 C178 1.341 . S
N181 N180 1.365 . S
N181 H201 0.862 . S
C182 C177 1.501 1_455 S
C182 H183 0.961 . S
C182 H184 0.961 . S
C182 H185 0.960 . S
H183 C182 0.961 . S
H184 C182 0.961 . S
H185 C182 0.960 . S
C186 N187 1.342 . S
C186 C190 1.401 . S
C186 C191 1.499 . S
N187 Co170 1.989 1_655 S
N187 C186 1.342 . S
N187 N188 1.388 . S
N188 Co171 1.993 . S
N188 N187 1.388 . S
N188 C189 1.346 . S
C189 N188 1.346 . S
C189 C190 1.396 . S
C189 C199 1.510 . S
C190 C186 1.401 . S
C190 C189 1.396 . S
C191 C186 1.499 . S
C191 H192 0.959 . S
C191 H193 0.960 . S
C191 H194 0.961 . S
H192 C191 0.959 . S
H193 C191 0.960 . S
H194 C191 0.961 . S
O195 Co170 1.967 . S
O195 C203 1.258 . S
O196 Co171 1.941 . S
O196 C203 1.266 1_655 S
H197 C199 0.959 . S
H198 C199 0.961 . S
C199 C189 1.510 . S
C199 H197 0.959 . S
C199 H198 0.961 . S
C199 H200 0.960 . S
H200 C199 0.960 . S
H201 N181 0.862 . S
O202 Co170 1.920 . S
O202 C175 1.289 . S
C203 O195 1.258 . S
C203 O196 1.266 1_455 S
H204 C222 0.951 . S
H205 C224 0.951 . S
H206 C226 0.950 . S
H207 C227 0.950 . S
H208 C229 0.950 . S
H209 C232 0.950 . S
H210 C233 0.950 . S
H211 C235 0.950 . S
H212 C236 0.950 . S
H213 C237 0.951 . S
H214 C239 0.951 . S
H215 C241 0.950 . S
H216 C242 0.950 . S
H217 C244 0.950 . S
H218 C247 0.950 . S
H219 C248 0.950 . S
H220 C250 0.950 . S
H221 C251 0.950 . S
C222 H204 0.951 . S
C222 C223 1.366 . S
C222 C224 1.388 . S
C223 C222 1.366 . S
C223 C227 1.385 . S
C224 H205 0.951 . S
C224 C222 1.388 . S
C224 C225 1.366 . S
C225 C224 1.366 . S
C225 C226 1.414 . S
C225 C228 1.499 . S
C226 H206 0.950 . S
C226 C225 1.414 . S
C226 C227 1.374 . S
C227 H207 0.950 . S
C227 C223 1.385 . S
C227 C226 1.374 . S
C228 C225 1.499 . S
C228 C229 1.373 . S
C228 C230 1.389 . S
C229 H208 0.950 . S
C229 C228 1.373 . S
C229 C245 1.377 . S
C230 C228 1.389 . S
C230 C231 1.524 . S
C230 C244 1.377 . S
C231 C230 1.524 . S
C231 C232 1.397 . S
C231 C236 1.363 . S
C232 H209 0.950 . S
C232 C231 1.397 . S
C232 C233 1.334 . S
C233 H210 0.950 . S
C233 C232 1.334 . S
C233 C234 1.287 . S
C234 C233 1.287 . S
C234 C235 1.524 . S
C234 H253 0.913 . S
C235 H211 0.950 . S
C235 C234 1.524 . S
C235 C236 1.415 . S
C236 H212 0.950 . S
C236 C231 1.363 . S
C236 C235 1.415 . S
C237 H213 0.951 . S
C237 C238 1.366 . S
C237 C239 1.388 . S
C238 C237 1.366 . S
C238 C242 1.385 . S
C239 H214 0.951 . S
C239 C237 1.388 . S
C239 C240 1.366 . S
C240 C239 1.366 . S
C240 C241 1.414 . S
C240 C243 1.499 . S
C241 H215 0.950 . S
C241 C240 1.414 . S
C241 C242 1.374 . S
C242 H216 0.950 . S
C242 C238 1.385 . S
C242 C241 1.374 . S
C243 C240 1.499 . S
C243 C244 1.373 . S
C243 C245 1.389 . S
C244 H217 0.950 . S
C244 C230 1.377 . S
C244 C243 1.373 . S
C245 C229 1.377 . S
C245 C243 1.389 . S
C245 C246 1.524 . S
C246 C245 1.524 . S
C246 C247 1.397 . S
C246 C251 1.363 . S
C247 H218 0.950 . S
C247 C246 1.397 . S
C247 C248 1.334 . S
C248 H219 0.950 . S
C248 C247 1.334 . S
C248 C249 1.287 . S
C249 C248 1.287 . S
C249 C250 1.524 . S
C249 H252 0.999 . S
C250 H220 0.950 . S
C250 C249 1.524 . S
C250 C251 1.415 . S
C251 H221 0.950 . S
C251 C246 1.363 . S
C251 C250 1.415 . S
H252 C249 0.999 . S
H253 C234 0.913 . S
H254 C272 0.951 . S
H255 C274 0.951 . S
H256 C276 0.950 . S
H257 C277 0.950 . S
H258 C279 0.950 . S
H259 C282 0.950 . S
H260 C283 0.950 . S
H261 C285 0.950 . S
H262 C286 0.950 . S
H263 C287 0.951 . S
H264 C289 0.951 . S
H265 C291 0.950 . S
H266 C292 0.950 . S
H267 C294 0.950 . S
H268 C297 0.950 . S
H269 C298 0.950 . S
H270 C300 0.950 . S
H271 C301 0.950 . S
C272 H254 0.951 . S
C272 C273 1.366 . S
C272 C274 1.388 . S
C273 C272 1.366 . S
C273 C277 1.385 . S
C274 H255 0.951 . S
C274 C272 1.388 . S
C274 C275 1.366 . S
C275 C274 1.366 . S
C275 C276 1.414 . S
C275 C278 1.499 . S
C276 H256 0.950 . S
C276 C275 1.414 . S
C276 C277 1.374 . S
C277 H257 0.950 . S
C277 C273 1.385 . S
C277 C276 1.374 . S
C278 C275 1.499 . S
C278 C279 1.373 . S
C278 C280 1.389 . S
C279 H258 0.950 . S
C279 C278 1.373 . S
C279 C295 1.377 . S
C280 C278 1.389 . S
C280 C281 1.524 . S
C280 C294 1.377 . S
C281 C280 1.524 . S
C281 C282 1.397 . S
C281 C286 1.363 . S
C282 H259 0.950 . S
C282 C281 1.397 . S
C282 C283 1.334 . S
C283 H260 0.950 . S
C283 C282 1.334 . S
C283 C284 1.287 . S
C284 C283 1.287 . S
C284 C285 1.524 . S
C284 H303 0.913 . S
C285 H261 0.950 . S
C285 C284 1.524 . S
C285 C286 1.415 . S
C286 H262 0.950 . S
C286 C281 1.363 . S
C286 C285 1.415 . S
C287 H263 0.951 . S
C287 C288 1.366 . S
C287 C289 1.388 . S
C288 C287 1.366 . S
C288 C292 1.385 . S
C289 H264 0.951 . S
C289 C287 1.388 . S
C289 C290 1.366 1_455 S
C290 C289 1.366 1_655 S
C290 C291 1.414 . S
C290 C293 1.499 . S
C291 H265 0.950 . S
C291 C290 1.414 . S
C291 C292 1.374 1_655 S
C292 H266 0.950 . S
C292 C288 1.385 . S
C292 C291 1.374 1_455 S
C293 C290 1.499 . S
C293 C294 1.373 . S
C293 C295 1.389 . S
C294 H267 0.950 . S
C294 C280 1.377 . S
C294 C293 1.373 . S
C295 C279 1.377 . S
C295 C293 1.389 . S
C295 C296 1.524 . S
C296 C295 1.524 . S
C296 C297 1.397 . S
C296 C301 1.363 . S
C297 H268 0.950 . S
C297 C296 1.397 . S
C297 C298 1.334 . S
C298 H269 0.950 . S
C298 C297 1.334 . S
C298 C299 1.287 . S
C299 C298 1.287 . S
C299 C300 1.524 . S
C299 H302 0.999 . S
C300 H270 0.950 . S
C300 C299 1.524 . S
C300 C301 1.415 . S
C301 H271 0.950 . S
C301 C296 1.363 . S
C301 C300 1.415 . S
H302 C299 0.999 . S
H303 C284 0.913 . S
H304 C322 0.951 . S
H305 C324 0.951 . S
H306 C326 0.950 . S
H307 C327 0.950 . S
H308 C329 0.950 . S
H309 C332 0.950 . S
H310 C333 0.950 . S
H311 C335 0.950 . S
H312 C336 0.950 . S
H313 C337 0.951 1_655 S
H314 C339 0.951 . S
H315 C341 0.950 . S
H316 C342 0.950 . S
H317 C344 0.950 . S
H318 C347 0.950 1_545 S
H319 C348 0.950 . S
H320 C350 0.950 . S
H321 C351 0.950 . S
C322 H304 0.951 . S
C322 C323 1.366 . S
C322 C324 1.388 . S
C323 C322 1.366 . S
C323 C327 1.385 . S
C324 H305 0.951 . S
C324 C322 1.388 . S
C324 C325 1.366 . S
C325 C324 1.366 . S
C325 C326 1.414 . S
C325 C328 1.499 . S
C326 H306 0.950 . S
C326 C325 1.414 . S
C326 C327 1.374 . S
C327 H307 0.950 . S
C327 C323 1.385 . S
C327 C326 1.374 . S
C328 C325 1.499 . S
C328 C329 1.373 . S
C328 C330 1.389 . S
C329 H308 0.950 . S
C329 C328 1.373 . S
C329 C345 1.377 . S
C330 C328 1.389 . S
C330 C331 1.524 . S
C330 C344 1.377 . S
C331 C330 1.524 . S
C331 C332 1.397 . S
C331 C336 1.363 . S
C332 H309 0.950 . S
C332 C331 1.397 . S
C332 C333 1.334 . S
C333 H310 0.950 . S
C333 C332 1.334 . S
C333 C334 1.287 . S
C334 C333 1.287 . S
C334 C335 1.524 . S
C334 H353 0.913 . S
C335 H311 0.950 . S
C335 C334 1.524 . S
C335 C336 1.415 . S
C336 H312 0.950 . S
C336 C331 1.363 . S
C336 C335 1.415 . S
C337 H313 0.951 1_455 S
C337 C338 1.366 . S
C337 C339 1.388 . S
C338 C337 1.366 . S
C338 C342 1.385 . S
C339 H314 0.951 . S
C339 C337 1.388 . S
C339 C340 1.366 1_565 S
C340 C339 1.366 1_545 S
C340 C341 1.414 . S
C340 C343 1.499 . S
C341 H315 0.950 . S
C341 C340 1.414 . S
C341 C342 1.374 1_545 S
C342 H316 0.950 . S
C342 C338 1.385 . S
C342 C341 1.374 1_565 S
C343 C340 1.499 . S
C343 C344 1.373 . S
C343 C345 1.389 . S
C344 H317 0.950 . S
C344 C330 1.377 . S
C344 C343 1.373 . S
C345 C329 1.377 . S
C345 C343 1.389 . S
C345 C346 1.524 . S
C346 C345 1.524 . S
C346 C347 1.397 1_545 S
C346 C351 1.363 . S
C347 H318 0.950 1_565 S
C347 C346 1.397 1_565 S
C347 C348 1.334 . S
C348 H319 0.950 . S
C348 C347 1.334 . S
C348 C349 1.287 1_455 S
C349 C348 1.287 1_655 S
C349 C350 1.524 . S
C349 H352 0.999 . S
C350 H320 0.950 . S
C350 C349 1.524 . S
C350 C351 1.415 1_665 S
C351 H321 0.950 . S
C351 C346 1.363 . S
C351 C350 1.415 1_445 S
H352 C349 0.999 . S
H353 C334 0.913 . S
H354 C372 0.951 . S
H355 C374 0.951 . S
H356 C376 0.950 . S
H357 C377 0.950 . S
H358 C379 0.950 . S
H359 C382 0.950 . S
H360 C383 0.950 . S
H361 C385 0.950 . S
H362 C386 0.950 . S
H363 C387 0.951 . S
H364 C389 0.951 . S
H365 C391 0.950 . S
H366 C392 0.950 . S
H367 C394 0.950 . S
H368 C397 0.950 . S
H369 C398 0.950 . S
H370 C400 0.950 . S
H371 C401 0.950 . S
C372 H354 0.951 . S
C372 C373 1.366 . S
C372 C374 1.388 . S
C373 C372 1.366 . S
C373 C377 1.385 . S
C374 H355 0.951 . S
C374 C372 1.388 . S
C374 C375 1.366 . S
C375 C374 1.366 . S
C375 C376 1.414 . S
C375 C378 1.499 . S
C376 H356 0.950 . S
C376 C375 1.414 . S
C376 C377 1.374 . S
C377 H357 0.950 . S
C377 C373 1.385 . S
C377 C376 1.374 . S
C378 C375 1.499 . S
C378 C379 1.373 . S
C378 C380 1.389 . S
C379 H358 0.950 . S
C379 C378 1.373 . S
C379 C395 1.377 . S
C380 C378 1.389 . S
C380 C381 1.524 . S
C380 C394 1.377 . S
C381 C380 1.524 . S
C381 C382 1.397 . S
C381 C386 1.363 . S
C382 H359 0.950 . S
C382 C381 1.397 . S
C382 C383 1.334 . S
C383 H360 0.950 . S
C383 C382 1.334 . S
C383 C384 1.287 . S
C384 C383 1.287 . S
C384 C385 1.524 . S
C384 H403 0.913 . S
C385 H361 0.950 . S
C385 C384 1.524 . S
C385 C386 1.415 . S
C386 H362 0.950 . S
C386 C381 1.363 . S
C386 C385 1.415 . S
C387 H363 0.951 . S
C387 C388 1.366 . S
C387 C389 1.388 . S
C388 C387 1.366 . S
C388 C392 1.385 . S
C389 H364 0.951 . S
C389 C387 1.388 . S
C389 C390 1.366 . S
C390 C389 1.366 . S
C390 C391 1.414 . S
C390 C393 1.499 . S
C391 H365 0.950 . S
C391 C390 1.414 . S
C391 C392 1.374 . S
C392 H366 0.950 . S
C392 C388 1.385 . S
C392 C391 1.374 . S
C393 C390 1.499 . S
C393 C394 1.373 . S
C393 C395 1.389 . S
C394 H367 0.950 . S
C394 C380 1.377 . S
C394 C393 1.373 . S
C395 C379 1.377 . S
C395 C393 1.389 . S
C395 C396 1.524 . S
C396 C395 1.524 . S
C396 C397 1.397 . S
C396 C401 1.363 . S
C397 H368 0.950 . S
C397 C396 1.397 . S
C397 C398 1.334 . S
C398 H369 0.950 . S
C398 C397 1.334 . S
C398 C399 1.287 . S
C399 C398 1.287 . S
C399 C400 1.524 . S
C399 H402 0.999 . S
C400 H370 0.950 . S
C400 C399 1.524 . S
C400 C401 1.415 . S
C401 H371 0.950 . S
C401 C396 1.363 . S
C401 C400 1.415 . S
H402 C399 0.999 . S
H403 C384 0.913 . S
H404 C422 0.951 . S
H405 C424 0.951 . S
H406 C426 0.950 1_455 S
H407 C427 0.950 . S
H408 C429 0.950 . S
H409 C432 0.950 . S
H410 C433 0.944 1_554 S
H411 C435 0.950 . S
H412 C436 0.950 . S
H413 C437 0.951 . S
H414 C439 0.951 . S
H415 C441 0.950 . S
H416 C442 0.950 . S
H417 C444 0.950 . S
H418 C447 0.950 . S
H419 C448 0.950 . S
H420 C450 0.950 . S
H421 C451 0.950 . S
C422 H404 0.951 . S
C422 C423 1.366 1_556 S
C422 C424 1.388 . S
C423 C422 1.366 1_554 S
C423 C427 1.385 . S
C424 H405 0.951 . S
C424 C422 1.388 . S
C424 C425 1.366 . S
C425 C424 1.366 . S
C425 C426 1.414 1_556 S
C425 C428 1.499 . S
C426 H406 0.950 1_655 S
C426 C425 1.414 1_554 S
C426 C427 1.374 . S
C427 H407 0.950 . S
C427 C423 1.385 . S
C427 C426 1.374 . S
C428 C425 1.499 . S
C428 C429 1.373 . S
C428 C430 1.389 1_655 S
C429 H408 0.950 . S
C429 C428 1.373 . S
C429 C445 1.377 . S
C430 C428 1.389 1_455 S
C430 C431 1.524 . S
C430 C444 1.377 . S
C431 C430 1.524 . S
C431 C432 1.397 . S
C431 C436 1.363 . S
C432 H409 0.950 . S
C432 C431 1.397 . S
C432 C433 1.334 . S
C433 H410 0.944 1_556 S
C433 C432 1.334 . S
C433 C434 1.287 . S
C434 C433 1.287 . S
C434 C435 1.524 . S
C434 H453 0.913 . S
C435 H411 0.950 . S
C435 C434 1.524 . S
C435 C436 1.415 . S
C436 H412 0.950 . S
C436 C431 1.363 . S
C436 C435 1.415 . S
C437 H413 0.951 . S
C437 C438 1.366 . S
C437 C439 1.388 . S
C438 C437 1.366 . S
C438 C442 1.385 . S
C439 H414 0.951 . S
C439 C437 1.388 . S
C439 C440 1.366 . S
C440 C439 1.366 . S
C440 C441 1.414 1_455 S
C440 C443 1.499 . S
C441 H415 0.950 . S
C441 C440 1.414 1_655 S
C441 C442 1.374 1_655 S
C442 H416 0.950 . S
C442 C438 1.385 . S
C442 C441 1.374 1_455 S
C443 C440 1.499 . S
C443 C444 1.373 . S
C443 C445 1.389 1_455 S
C444 H417 0.950 . S
C444 C430 1.377 . S
C444 C443 1.373 . S
C445 C429 1.377 . S
C445 C443 1.389 1_655 S
C445 C446 1.524 . S
C446 C445 1.524 . S
C446 C447 1.397 . S
C446 C451 1.363 . S
C447 H418 0.950 . S
C447 C446 1.397 . S
C447 C448 1.334 . S
C448 H419 0.950 . S
C448 C447 1.334 . S
C448 C449 1.287 . S
C449 C448 1.287 . S
C449 C450 1.524 . S
C449 H452 0.999 . S
C450 H420 0.950 . S
C450 C449 1.524 . S
C450 C451 1.415 . S
C451 H421 0.950 . S
C451 C446 1.363 . S
C451 C450 1.415 . S
H452 C449 0.999 . S
H453 C434 0.913 . S
H454 C472 0.951 . S
H455 C474 0.951 . S
H456 C476 0.950 . S
H457 C477 0.950 . S
H458 C479 0.950 . S
H459 C482 0.950 . S
H460 C483 0.950 . S
H461 C485 0.950 . S
H462 C486 0.950 . S
H463 C487 0.951 . S
H464 C489 0.951 . S
H465 C491 0.950 . S
H466 C492 0.950 . S
H467 C494 0.950 . S
H468 C497 0.950 . S
H469 C498 0.950 . S
H470 C500 0.950 . S
H471 C501 0.950 . S
C472 H454 0.951 . S
C472 C473 1.366 . S
C472 C474 1.388 . S
C473 C472 1.366 . S
C473 C477 1.385 . S
C474 H455 0.951 . S
C474 C472 1.388 . S
C474 C475 1.366 . S
C475 C474 1.366 . S
C475 C476 1.414 . S
C475 C478 1.499 . S
C476 H456 0.950 . S
C476 C475 1.414 . S
C476 C477 1.374 . S
C477 H457 0.950 . S
C477 C473 1.385 . S
C477 C476 1.374 . S
C478 C475 1.499 . S
C478 C479 1.373 . S
C478 C480 1.389 . S
C479 H458 0.950 . S
C479 C478 1.373 . S
C479 C495 1.377 . S
C480 C478 1.389 . S
C480 C481 1.524 . S
C480 C494 1.377 . S
C481 C480 1.524 . S
C481 C482 1.397 . S
C481 C486 1.363 . S
C482 H459 0.950 . S
C482 C481 1.397 . S
C482 C483 1.334 . S
C483 H460 0.950 . S
C483 C482 1.334 . S
C483 C484 1.287 . S
C484 C483 1.287 . S
C484 C485 1.524 . S
C484 H503 0.913 . S
C485 H461 0.950 . S
C485 C484 1.524 . S
C485 C486 1.415 . S
C486 H462 0.950 . S
C486 C481 1.363 . S
C486 C485 1.415 . S
C487 H463 0.951 . S
C487 C488 1.366 . S
C487 C489 1.388 . S
C488 C487 1.366 . S
C488 C492 1.385 . S
C489 H464 0.951 . S
C489 C487 1.388 . S
C489 C490 1.366 . S
C490 C489 1.366 . S
C490 C491 1.414 . S
C490 C493 1.499 1_556 S
C491 H465 0.950 . S
C491 C490 1.414 . S
C491 C492 1.374 . S
C492 H466 0.950 . S
C492 C488 1.385 . S
C492 C491 1.374 . S
C493 C490 1.499 1_554 S
C493 C494 1.373 . S
C493 C495 1.389 . S
C494 H467 0.950 . S
C494 C480 1.377 . S
C494 C493 1.373 . S
C495 C479 1.377 . S
C495 C493 1.389 . S
C495 C496 1.524 . S
C496 C495 1.524 . S
C496 C497 1.397 1_554 S
C496 C501 1.363 . S
C497 H468 0.950 . S
C497 C496 1.397 1_556 S
C497 C498 1.334 . S
C498 H469 0.950 . S
C498 C497 1.334 . S
C498 C499 1.287 . S
C499 C498 1.287 . S
C499 C500 1.524 1_556 S
C499 H502 0.999 1_545 S
C500 H470 0.950 . S
C500 C499 1.524 1_554 S
C500 C501 1.415 . S
C501 H471 0.950 . S
C501 C496 1.363 . S
C501 C500 1.415 . S
H502 C499 0.999 1_565 S
H503 C484 0.913 . S
H504 C522 0.951 . S
H505 C524 0.951 . S
H506 C526 0.950 . S
H507 C527 0.950 . S
H508 C529 0.950 . S
H509 C532 0.938 1_556 S
H510 C533 0.950 1_556 S
H511 C535 0.950 . S
H512 C536 0.950 . S
H513 C537 0.951 . S
H514 C539 0.951 . S
H515 C541 0.950 . S
H516 C542 0.950 . S
H517 C544 0.950 . S
H518 C547 0.950 1_554 S
H519 C548 0.950 . S
H520 C550 0.950 . S
H521 C551 0.950 . S
C522 H504 0.951 . S
C522 C523 1.366 . S
C522 C524 1.388 . S
C523 C522 1.366 . S
C523 C527 1.385 . S
C524 H505 0.951 . S
C524 C522 1.388 . S
C524 C525 1.366 . S
C525 C524 1.366 . S
C525 C526 1.414 . S
C525 C528 1.499 . S
C526 H506 0.950 . S
C526 C525 1.414 . S
C526 C527 1.374 . S
C527 H507 0.950 . S
C527 C523 1.385 . S
C527 C526 1.374 . S
C528 C525 1.499 . S
C528 C529 1.373 . S
C528 C530 1.389 1_556 S
C529 H508 0.950 . S
C529 C528 1.373 . S
C529 C545 1.377 . S
C530 C528 1.389 1_554 S
C530 C531 1.524 . S
C530 C544 1.377 . S
C531 C530 1.524 . S
C531 C532 1.394 . S
C531 C536 1.363 . S
C532 H509 0.938 1_554 S
C532 C531 1.394 . S
C532 C533 1.348 . S
C533 H510 0.950 1_554 S
C533 C532 1.348 . S
C533 C534 1.287 . S
C534 C533 1.287 . S
C534 C535 1.524 . S
C534 H553 0.913 . S
C535 H511 0.950 . S
C535 C534 1.524 . S
C535 C536 1.415 . S
C536 H512 0.950 . S
C536 C531 1.363 . S
C536 C535 1.415 . S
C537 H513 0.951 . S
C537 C538 1.366 . S
C537 C539 1.388 . S
C538 C537 1.366 . S
C538 C542 1.385 . S
C539 H514 0.951 . S
C539 C537 1.388 . S
C539 C540 1.366 . S
C540 C539 1.366 . S
C540 C541 1.414 . S
C540 C543 1.499 . S
C541 H515 0.950 . S
C541 C540 1.414 . S
C541 C542 1.374 . S
C542 H516 0.950 . S
C542 C538 1.385 . S
C542 C541 1.374 . S
C543 C540 1.499 . S
C543 C544 1.373 . S
C543 C545 1.389 1_554 S
C544 H517 0.950 . S
C544 C530 1.377 . S
C544 C543 1.373 . S
C545 C529 1.377 . S
C545 C543 1.389 1_556 S
C545 C546 1.524 . S
C546 C545 1.524 . S
C546 C547 1.397 . S
C546 C551 1.363 . S
C547 H518 0.950 1_556 S
C547 C546 1.397 . S
C547 C548 1.334 . S
C548 H519 0.950 . S
C548 C547 1.334 . S
C548 C549 1.287 . S
C549 C548 1.287 . S
C549 C550 1.524 . S
C549 H552 0.999 . S
C550 H520 0.950 . S
C550 C549 1.524 . S
C550 C551 1.415 . S
C551 H521 0.950 . S
C551 C546 1.363 . S
C551 C550 1.415 . S
H552 C549 0.999 . S
H553 C534 0.913 . S
H554 C572 0.951 1_545 S
H555 C574 0.951 1_545 S
H556 C576 0.950 . S
H557 C577 0.950 . S
H558 C579 0.950 . S
H559 C582 0.950 . S
H560 C583 0.950 . S
H561 C585 0.950 . S
H562 C586 0.950 . S
H563 C587 0.951 . S
H564 C589 0.951 . S
H565 C591 0.950 1_545 S
H566 C592 0.950 . S
H567 C594 0.950 . S
H568 C597 0.950 . S
H569 C598 0.950 . S
H570 C600 0.950 . S
H571 C601 0.950 . S
C572 H554 0.951 1_565 S
C572 C573 1.366 . S
C572 C574 1.388 . S
C573 C572 1.366 . S
C573 C577 1.385 . S
C574 H555 0.951 1_565 S
C574 C572 1.388 . S
C574 C575 1.366 . S
C575 C574 1.366 . S
C575 C576 1.414 . S
C575 C578 1.499 . S
C576 H556 0.950 . S
C576 C575 1.414 . S
C576 C577 1.374 . S
C577 H557 0.950 . S
C577 C573 1.385 . S
C577 C576 1.374 . S
C578 C575 1.499 . S
C578 C579 1.373 . S
C578 C580 1.389 . S
C579 H558 0.950 . S
C579 C578 1.373 . S
C579 C595 1.377 . S
C580 C578 1.389 . S
C580 C581 1.524 . S
C580 C594 1.377 . S
C581 C580 1.524 . S
C581 C582 1.397 . S
C581 C586 1.363 1_565 S
C582 H559 0.950 . S
C582 C581 1.397 . S
C582 C583 1.334 . S
C583 H560 0.950 . S
C583 C582 1.334 . S
C583 C584 1.287 . S
C584 C583 1.287 . S
C584 C585 1.524 1_565 S
C584 H603 0.913 . S
C585 H561 0.950 . S
C585 C584 1.524 1_545 S
C585 C586 1.415 . S
C586 H562 0.950 . S
C586 C581 1.363 1_545 S
C586 C585 1.415 . S
C587 H563 0.951 . S
C587 C588 1.366 . S
C587 C589 1.388 . S
C588 C587 1.366 . S
C588 C592 1.385 . S
C589 H564 0.951 . S
C589 C587 1.388 . S
C589 C590 1.366 . S
C590 C589 1.366 . S
C590 C591 1.414 . S
C590 C593 1.499 . S
C591 H565 0.950 1_565 S
C591 C590 1.414 . S
C591 C592 1.374 . S
C592 H566 0.950 . S
C592 C588 1.385 . S
C592 C591 1.374 . S
C593 C590 1.499 . S
C593 C594 1.373 . S
C593 C595 1.389 . S
C594 H567 0.950 . S
C594 C580 1.377 . S
C594 C593 1.373 . S
C595 C579 1.377 . S
C595 C593 1.389 . S
C595 C596 1.524 . S
C596 C595 1.524 . S
C596 C597 1.397 . S
C596 C601 1.363 . S
C597 H568 0.950 . S
C597 C596 1.397 . S
C597 C598 1.334 . S
C598 H569 0.950 . S
C598 C597 1.334 . S
C598 C599 1.287 . S
C599 C598 1.287 . S
C599 C600 1.524 . S
C599 H602 0.999 . S
C600 H570 0.950 . S
C600 C599 1.524 . S
C600 C601 1.415 . S
C601 H571 0.950 . S
C601 C596 1.363 . S
C601 C600 1.415 . S
H602 C599 0.999 . S
H603 C584 0.913 . S
H604 C622 0.951 . S
H605 C624 0.951 . S
H606 C626 0.950 . S
H607 C627 0.950 . S
H608 C629 0.950 . S
H609 C632 0.950 . S
H610 C633 0.950 . S
H611 C635 0.950 . S
H612 C636 0.950 . S
H613 C637 0.951 . S
H614 C639 0.951 . S
H615 C641 0.950 . S
H616 C642 0.950 . S
H617 C644 0.950 . S
H618 C647 0.950 . S
H619 C648 0.950 . S
H620 C650 0.950 . S
H621 C651 0.950 . S
C622 H604 0.951 . S
C622 C623 1.366 . S
C622 C624 1.388 . S
C623 C622 1.366 . S
C623 C627 1.385 . S
C624 H605 0.951 . S
C624 C622 1.388 . S
C624 C625 1.366 . S
C625 C624 1.366 . S
C625 C626 1.414 . S
C625 C628 1.499 . S
C626 H606 0.950 . S
C626 C625 1.414 . S
C626 C627 1.374 . S
C627 H607 0.950 . S
C627 C623 1.385 . S
C627 C626 1.374 . S
C628 C625 1.499 . S
C628 C629 1.373 . S
C628 C630 1.389 . S
C629 H608 0.950 . S
C629 C628 1.373 . S
C629 C645 1.377 . S
C630 C628 1.389 . S
C630 C631 1.524 . S
C630 C644 1.377 . S
C631 C630 1.524 . S
C631 C632 1.397 . S
C631 C636 1.363 . S
C632 H609 0.950 . S
C632 C631 1.397 . S
C632 C633 1.334 . S
C633 H610 0.950 . S
C633 C632 1.334 . S
C633 C634 1.287 . S
C634 C633 1.287 . S
C634 C635 1.524 . S
C634 H653 0.913 . S
C635 H611 0.950 . S
C635 C634 1.524 . S
C635 C636 1.415 . S
C636 H612 0.950 . S
C636 C631 1.363 . S
C636 C635 1.415 . S
C637 H613 0.951 . S
C637 C638 1.366 . S
C637 C639 1.388 . S
C638 C637 1.366 . S
C638 C642 1.385 . S
C639 H614 0.951 . S
C639 C637 1.388 . S
C639 C640 1.366 . S
C640 C639 1.366 . S
C640 C641 1.414 . S
C640 C643 1.499 . S
C641 H615 0.950 . S
C641 C640 1.414 . S
C641 C642 1.374 . S
C642 H616 0.950 . S
C642 C638 1.385 . S
C642 C641 1.374 . S
C643 C640 1.499 . S
C643 C644 1.373 . S
C643 C645 1.389 . S
C644 H617 0.950 . S
C644 C630 1.377 . S
C644 C643 1.373 . S
C645 C629 1.377 . S
C645 C643 1.389 . S
C645 C646 1.524 . S
C646 C645 1.524 . S
C646 C647 1.397 . S
C646 C651 1.363 . S
C647 H618 0.950 . S
C647 C646 1.397 . S
C647 C648 1.334 . S
C648 H619 0.950 . S
C648 C647 1.334 . S
C648 C649 1.287 . S
C649 C648 1.287 . S
C649 C650 1.524 . S
C649 H652 0.999 . S
C650 H620 0.950 . S
C650 C649 1.524 . S
C650 C651 1.415 . S
C651 H621 0.950 . S
C651 C646 1.363 . S
C651 C650 1.415 . S
H652 C649 0.999 . S
H653 C634 0.913 . S
H654 C672 0.951 . S
H655 C674 0.951 . S
H656 C676 0.950 . S
H657 C677 0.950 . S
H658 C679 0.950 . S
H659 C682 0.950 . S
H660 C683 0.950 . S
H661 C685 0.950 . S
H662 C686 0.950 . S
H663 C687 0.951 . S
H664 C689 0.951 . S
H665 C691 0.950 . S
H666 C692 0.950 . S
H667 C694 0.950 . S
H668 C697 0.950 . S
H669 C698 0.950 . S
H670 C700 0.950 . S
H671 C701 0.950 . S
C672 H654 0.951 . S
C672 C673 1.366 . S
C672 C674 1.388 . S
C673 C672 1.366 . S
C673 C677 1.385 . S
C674 H655 0.951 . S
C674 C672 1.388 . S
C674 C675 1.366 . S
C675 C674 1.366 . S
C675 C676 1.414 . S
C675 C678 1.499 . S
C676 H656 0.950 . S
C676 C675 1.414 . S
C676 C677 1.374 . S
C677 H657 0.950 . S
C677 C673 1.385 . S
C677 C676 1.374 . S
C678 C675 1.499 . S
C678 C679 1.373 . S
C678 C680 1.389 . S
C679 H658 0.950 . S
C679 C678 1.373 . S
C679 C695 1.377 . S
C680 C678 1.389 . S
C680 C681 1.524 . S
C680 C694 1.377 . S
C681 C680 1.524 . S
C681 C682 1.397 . S
C681 C686 1.363 . S
C682 H659 0.950 . S
C682 C681 1.397 . S
C682 C683 1.334 . S
C683 H660 0.950 . S
C683 C682 1.334 . S
C683 C684 1.287 . S
C684 C683 1.287 . S
C684 C685 1.524 . S
C684 H703 0.913 . S
C685 H661 0.950 . S
C685 C684 1.524 . S
C685 C686 1.415 . S
C686 H662 0.950 . S
C686 C681 1.363 . S
C686 C685 1.415 . S
C687 H663 0.951 . S
C687 C688 1.366 . S
C687 C689 1.388 1_565 S
C688 C687 1.366 . S
C688 C692 1.385 . S
C689 H664 0.951 . S
C689 C687 1.388 1_545 S
C689 C690 1.366 . S
C690 C689 1.366 . S
C690 C691 1.414 1_545 S
C690 C693 1.499 . S
C691 H665 0.950 . S
C691 C690 1.414 1_565 S
C691 C692 1.374 . S
C692 H666 0.950 . S
C692 C688 1.385 . S
C692 C691 1.374 . S
C693 C690 1.499 . S
C693 C694 1.373 . S
C693 C695 1.389 . S
C694 H667 0.950 . S
C694 C680 1.377 . S
C694 C693 1.373 . S
C695 C679 1.377 . S
C695 C693 1.389 . S
C695 C696 1.524 . S
C696 C695 1.524 . S
C696 C697 1.397 . S
C696 C701 1.363 . S
C697 H668 0.950 . S
C697 C696 1.397 . S
C697 C698 1.334 . S
C698 H669 0.950 . S
C698 C697 1.334 . S
C698 C699 1.287 . S
C699 C698 1.287 . S
C699 C700 1.524 . S
C699 H702 0.999 . S
C700 H670 0.950 . S
C700 C699 1.524 . S
C700 C701 1.415 . S
C701 H671 0.950 . S
C701 C696 1.363 . S
C701 C700 1.415 . S
H702 C699 0.999 . S
H703 C684 0.913 . S
H704 C722 0.951 . S
H705 C724 0.951 . S
H706 C726 0.950 . S
H707 C727 0.950 . S
H708 C729 0.950 . S
H709 C732 0.950 . S
H710 C733 0.950 . S
H711 C735 0.950 . S
H712 C736 0.950 . S
H713 C737 0.951 . S
H714 C739 0.951 . S
H715 C741 0.950 . S
H716 C742 0.950 . S
H717 C744 0.950 . S
H718 C747 0.950 . S
H719 C748 0.950 . S
H720 C750 0.950 . S
H721 C751 0.950 . S
C722 H704 0.951 . S
C722 C723 1.366 . S
C722 C724 1.388 . S
C723 C722 1.366 . S
C723 C727 1.385 . S
C724 H705 0.951 . S
C724 C722 1.388 . S
C724 C725 1.366 . S
C725 C724 1.366 . S
C725 C726 1.414 . S
C725 C728 1.499 . S
C726 H706 0.950 . S
C726 C725 1.414 . S
C726 C727 1.374 . S
C727 H707 0.950 . S
C727 C723 1.385 . S
C727 C726 1.374 . S
C728 C725 1.499 . S
C728 C729 1.373 1_655 S
C728 C730 1.389 1_655 S
C729 H708 0.950 . S
C729 C728 1.373 1_455 S
C729 C745 1.377 . S
C730 C728 1.389 1_455 S
C730 C731 1.524 1_455 S
C730 C744 1.377 . S
C731 C730 1.524 1_655 S
C731 C732 1.397 . S
C731 C736 1.363 . S
C732 H709 0.950 . S
C732 C731 1.397 . S
C732 C733 1.334 . S
C733 H710 0.950 . S
C733 C732 1.334 . S
C733 C734 1.287 . S
C734 C733 1.287 . S
C734 C735 1.524 . S
C734 H753 0.913 . S
C735 H711 0.950 . S
C735 C734 1.524 . S
C735 C736 1.415 . S
C736 H712 0.950 . S
C736 C731 1.363 . S
C736 C735 1.415 . S
C737 H713 0.951 . S
C737 C738 1.366 . S
C737 C739 1.388 . S
C738 C737 1.366 . S
C738 C742 1.385 . S
C739 H714 0.951 . S
C739 C737 1.388 . S
C739 C740 1.366 . S
C740 C739 1.366 . S
C740 C741 1.414 . S
C740 C743 1.499 . S
C741 H715 0.950 . S
C741 C740 1.414 . S
C741 C742 1.374 . S
C742 H716 0.950 . S
C742 C738 1.385 . S
C742 C741 1.374 . S
C743 C740 1.499 . S
C743 C744 1.373 . S
C743 C745 1.389 . S
C744 H717 0.950 . S
C744 C730 1.377 . S
C744 C743 1.373 . S
C745 C729 1.377 . S
C745 C743 1.389 . S
C745 C746 1.524 . S
C746 C745 1.524 . S
C746 C747 1.397 . S
C746 C751 1.363 . S
C747 H718 0.950 . S
C747 C746 1.397 . S
C747 C748 1.334 . S
C748 H719 0.950 . S
C748 C747 1.334 . S
C748 C749 1.287 . S
C749 C748 1.287 . S
C749 C750 1.524 . S
C749 H752 0.999 . S
C750 H720 0.950 . S
C750 C749 1.524 . S
C750 C751 1.415 . S
C751 H721 0.950 . S
C751 C746 1.363 . S
C751 C750 1.415 . S
H752 C749 0.999 . S
H753 C734 0.913 . S
H754 C772 0.951 . S
H755 C774 0.951 . S
H756 C776 0.950 . S
H757 C777 0.950 . S
H758 C779 0.950 . S
H759 C782 0.950 . S
H760 C783 0.950 . S
H761 C785 0.950 . S
H762 C786 0.950 . S
H763 C787 0.951 . S
H764 C789 0.951 . S
H765 C791 0.950 . S
H766 C792 0.950 . S
H767 C794 0.950 . S
H768 C797 0.950 . S
H769 C798 0.950 . S
H770 C800 0.950 . S
H771 C801 0.950 . S
C772 H754 0.951 . S
C772 C773 1.366 . S
C772 C774 1.388 . S
C773 C772 1.366 . S
C773 C777 1.385 . S
C774 H755 0.951 . S
C774 C772 1.388 . S
C774 C775 1.366 . S
C775 C774 1.366 . S
C775 C776 1.414 . S
C775 C778 1.499 . S
C776 H756 0.950 . S
C776 C775 1.414 . S
C776 C777 1.374 . S
C777 H757 0.950 . S
C777 C773 1.385 . S
C777 C776 1.374 . S
C778 C775 1.499 . S
C778 C779 1.373 . S
C778 C780 1.389 . S
C779 H758 0.950 . S
C779 C778 1.373 . S
C779 C795 1.377 . S
C780 C778 1.389 . S
C780 C781 1.524 . S
C780 C794 1.377 . S
C781 C780 1.524 . S
C781 C782 1.397 . S
C781 C786 1.363 . S
C782 H759 0.950 . S
C782 C781 1.397 . S
C782 C783 1.334 . S
C783 H760 0.950 . S
C783 C782 1.334 . S
C783 C784 1.287 . S
C784 C783 1.287 . S
C784 C785 1.524 1_554 S
C784 H803 0.913 . S
C785 H761 0.950 . S
C785 C784 1.524 1_556 S
C785 C786 1.415 1_556 S
C786 H762 0.950 . S
C786 C781 1.363 . S
C786 C785 1.415 1_554 S
C787 H763 0.951 . S
C787 C788 1.366 . S
C787 C789 1.388 . S
C788 C787 1.366 . S
C788 C792 1.385 . S
C789 H764 0.951 . S
C789 C787 1.388 . S
C789 C790 1.366 . S
C790 C789 1.366 . S
C790 C791 1.414 . S
C790 C793 1.499 . S
C791 H765 0.950 . S
C791 C790 1.414 . S
C791 C792 1.374 . S
C792 H766 0.950 . S
C792 C788 1.385 . S
C792 C791 1.374 . S
C793 C790 1.499 . S
C793 C794 1.373 . S
C793 C795 1.389 . S
C794 H767 0.950 . S
C794 C780 1.377 . S
C794 C793 1.373 . S
C795 C779 1.377 . S
C795 C793 1.389 . S
C795 C796 1.524 . S
C796 C795 1.524 . S
C796 C797 1.397 . S
C796 C801 1.363 . S
C797 H768 0.950 . S
C797 C796 1.397 . S
C797 C798 1.334 . S
C798 H769 0.950 . S
C798 C797 1.334 . S
C798 C799 1.287 . S
C799 C798 1.287 . S
C799 C800 1.524 . S
C799 H802 0.999 . S
C800 H770 0.950 . S
C800 C799 1.524 . S
C800 C801 1.415 . S
C801 H771 0.950 . S
C801 C796 1.363 . S
C801 C800 1.415 . S
H802 C799 0.999 . S
H803 C784 0.913 . S
H804 C822 0.951 . S
H805 C824 0.951 . S
H806 C826 0.950 . S
H807 C827 0.950 . S
H808 C829 0.950 . S
H809 C832 0.950 . S
H810 C833 0.950 . S
H811 C835 0.950 . S
H812 C836 0.950 . S
H813 C837 0.951 . S
H814 C839 0.951 . S
H815 C841 0.950 . S
H816 C842 0.950 . S
H817 C844 0.950 . S
H818 C847 0.950 . S
H819 C848 0.950 . S
H820 C850 0.950 . S
H821 C851 0.950 . S
C822 H804 0.951 . S
C822 C823 1.366 . S
C822 C824 1.388 . S
C823 C822 1.366 . S
C823 C827 1.385 . S
C824 H805 0.951 . S
C824 C822 1.388 . S
C824 C825 1.366 . S
C825 C824 1.366 . S
C825 C826 1.414 . S
C825 C828 1.499 . S
C826 H806 0.950 . S
C826 C825 1.414 . S
C826 C827 1.374 . S
C827 H807 0.950 . S
C827 C823 1.385 . S
C827 C826 1.374 . S
C828 C825 1.499 . S
C828 C829 1.373 . S
C828 C830 1.389 . S
C829 H808 0.950 . S
C829 C828 1.373 . S
C829 C845 1.377 . S
C830 C828 1.389 . S
C830 C831 1.524 . S
C830 C844 1.377 . S
C831 C830 1.524 . S
C831 C832 1.397 . S
C831 C836 1.363 . S
C832 H809 0.950 . S
C832 C831 1.397 . S
C832 C833 1.334 . S
C833 H810 0.950 . S
C833 C832 1.334 . S
C833 C834 1.287 . S
C834 C833 1.287 . S
C834 C835 1.524 . S
C834 H853 0.913 . S
C835 H811 0.950 . S
C835 C834 1.524 . S
C835 C836 1.415 . S
C836 H812 0.950 . S
C836 C831 1.363 . S
C836 C835 1.415 . S
C837 H813 0.951 . S
C837 C838 1.366 . S
C837 C839 1.388 . S
C838 C837 1.366 . S
C838 C842 1.385 . S
C839 H814 0.951 . S
C839 C837 1.388 . S
C839 C840 1.366 . S
C840 C839 1.366 . S
C840 C841 1.414 . S
C840 C843 1.499 . S
C841 H815 0.950 . S
C841 C840 1.414 . S
C841 C842 1.374 . S
C842 H816 0.950 . S
C842 C838 1.385 . S
C842 C841 1.374 . S
C843 C840 1.499 . S
C843 C844 1.373 . S
C843 C845 1.389 . S
C844 H817 0.950 . S
C844 C830 1.377 . S
C844 C843 1.373 . S
C845 C829 1.377 . S
C845 C843 1.389 . S
C845 C846 1.524 . S
C846 C845 1.524 . S
C846 C847 1.397 . S
C846 C851 1.363 . S
C847 H818 0.950 . S
C847 C846 1.397 . S
C847 C848 1.334 . S
C848 H819 0.950 . S
C848 C847 1.334 . S
C848 C849 1.287 . S
C849 C848 1.287 . S
C849 C850 1.524 . S
C849 H852 0.999 . S
C850 H820 0.950 . S
C850 C849 1.524 . S
C850 C851 1.415 . S
C851 H821 0.950 . S
C851 C846 1.363 . S
C851 C850 1.415 . S
H852 C849 0.999 . S
H853 C834 0.913 . S
H854 C872 0.951 . S
H855 C874 0.951 . S
H856 C876 0.950 . S
H857 C877 0.950 . S
H858 C879 0.950 . S
H859 C882 0.950 . S
H860 C883 0.950 . S
H861 C885 0.950 . S
H862 C886 0.950 . S
H863 C887 0.951 . S
H864 C889 0.951 . S
H865 C891 0.950 . S
H866 C892 0.950 . S
H867 C894 0.950 . S
H868 C897 0.950 . S
H869 C898 0.950 . S
H870 C900 0.950 . S
H871 C901 0.950 . S
C872 H854 0.951 . S
C872 C873 1.366 . S
C872 C874 1.388 . S
C873 C872 1.366 . S
C873 C877 1.385 . S
C874 H855 0.951 . S
C874 C872 1.388 . S
C874 C875 1.366 . S
C875 C874 1.366 . S
C875 C876 1.414 . S
C875 C878 1.499 . S
C876 H856 0.950 . S
C876 C875 1.414 . S
C876 C877 1.374 . S
C877 H857 0.950 . S
C877 C873 1.385 . S
C877 C876 1.374 . S
C878 C875 1.499 . S
C878 C879 1.373 . S
C878 C880 1.389 . S
C879 H858 0.950 . S
C879 C878 1.373 . S
C879 C895 1.377 . S
C880 C878 1.389 . S
C880 C881 1.524 . S
C880 C894 1.377 . S
C881 C880 1.524 . S
C881 C882 1.397 . S
C881 C886 1.363 . S
C882 H859 0.950 . S
C882 C881 1.397 . S
C882 C883 1.334 . S
C883 H860 0.950 . S
C883 C882 1.334 . S
C883 C884 1.287 . S
C884 C883 1.287 . S
C884 C885 1.524 . S
C884 H903 0.913 . S
C885 H861 0.950 . S
C885 C884 1.524 . S
C885 C886 1.415 . S
C886 H862 0.950 . S
C886 C881 1.363 . S
C886 C885 1.415 . S
C887 H863 0.951 . S
C887 C888 1.366 . S
C887 C889 1.388 . S
C888 C887 1.366 . S
C888 C892 1.385 . S
C889 H864 0.951 . S
C889 C887 1.388 . S
C889 C890 1.366 . S
C890 C889 1.366 . S
C890 C891 1.414 . S
C890 C893 1.499 . S
C891 H865 0.950 . S
C891 C890 1.414 . S
C891 C892 1.374 . S
C892 H866 0.950 . S
C892 C888 1.385 . S
C892 C891 1.374 . S
C893 C890 1.499 . S
C893 C894 1.373 . S
C893 C895 1.389 . S
C894 H867 0.950 . S
C894 C880 1.377 . S
C894 C893 1.373 . S
C895 C879 1.377 . S
C895 C893 1.389 . S
C895 C896 1.524 . S
C896 C895 1.524 . S
C896 C897 1.397 . S
C896 C901 1.363 . S
C897 H868 0.950 . S
C897 C896 1.397 . S
C897 C898 1.334 . S
C898 H869 0.950 . S
C898 C897 1.334 . S
C898 C899 1.287 . S
C899 C898 1.287 . S
C899 C900 1.524 . S
C899 H902 0.999 . S
C900 H870 0.950 . S
C900 C899 1.524 . S
C900 C901 1.415 . S
C901 H871 0.950 . S
C901 C896 1.363 . S
C901 C900 1.415 . S
H902 C899 0.999 . S
H903 C884 0.913 . S
H904 C922 0.951 . S
H905 C924 0.951 . S
H906 C926 0.950 . S
H907 C927 0.950 . S
H908 C929 0.950 . S
H909 C932 0.950 . S
H910 C933 0.950 . S
H911 C935 0.950 . S
H912 C936 0.950 . S
H913 C937 0.951 . S
H914 C939 0.951 . S
H915 C941 0.950 . S
H916 C942 0.950 . S
H917 C944 0.950 . S
H918 C947 0.950 . S
H919 C948 0.950 . S
H920 C950 0.950 . S
H921 C951 0.950 . S
C922 H904 0.951 . S
C922 C923 1.366 . S
C922 C924 1.388 . S
C923 C922 1.366 . S
C923 C927 1.385 . S
C924 H905 0.951 . S
C924 C922 1.388 . S
C924 C925 1.366 . S
C925 C924 1.366 . S
C925 C926 1.414 . S
C925 C928 1.499 . S
C926 H906 0.950 . S
C926 C925 1.414 . S
C926 C927 1.374 . S
C927 H907 0.950 . S
C927 C923 1.385 . S
C927 C926 1.374 . S
C928 C925 1.499 . S
C928 C929 1.373 . S
C928 C930 1.389 . S
C929 H908 0.950 . S
C929 C928 1.373 . S
C929 C945 1.377 . S
C930 C928 1.389 . S
C930 C931 1.524 . S
C930 C944 1.377 . S
C931 C930 1.524 . S
C931 C932 1.397 . S
C931 C936 1.363 . S
C932 H909 0.950 . S
C932 C931 1.397 . S
C932 C933 1.334 . S
C933 H910 0.950 . S
C933 C932 1.334 . S
C933 C934 1.287 . S
C934 C933 1.287 . S
C934 C935 1.524 . S
C934 H953 0.913 . S
C935 H911 0.950 . S
C935 C934 1.524 . S
C935 C936 1.415 . S
C936 H912 0.950 . S
C936 C931 1.363 . S
C936 C935 1.415 . S
C937 H913 0.951 . S
C937 C938 1.366 . S
C937 C939 1.388 . S
C938 C937 1.366 . S
C938 C942 1.385 . S
C939 H914 0.951 . S
C939 C937 1.388 . S
C939 C940 1.366 . S
C940 C939 1.366 . S
C940 C941 1.414 . S
C940 C943 1.499 . S
C941 H915 0.950 . S
C941 C940 1.414 . S
C941 C942 1.374 . S
C942 H916 0.950 . S
C942 C938 1.385 . S
C942 C941 1.374 . S
C943 C940 1.499 . S
C943 C944 1.373 . S
C943 C945 1.389 . S
C944 H917 0.950 . S
C944 C930 1.377 . S
C944 C943 1.373 . S
C945 C929 1.377 . S
C945 C943 1.389 . S
C945 C946 1.524 . S
C946 C945 1.524 . S
C946 C947 1.397 . S
C946 C951 1.363 . S
C947 H918 0.950 . S
C947 C946 1.397 . S
C947 C948 1.334 . S
C948 H919 0.950 . S
C948 C947 1.334 . S
C948 C949 1.287 . S
C949 C948 1.287 . S
C949 C950 1.524 . S
C949 H952 0.999 . S
C950 H920 0.950 . S
C950 C949 1.524 . S
C950 C951 1.415 . S
C951 H921 0.950 . S
C951 C946 1.363 . S
C951 C950 1.415 . S
H952 C949 0.999 . S
H953 C934 0.913 . S
C223 C107 1.201 . S
C238 C20 1.239 . S
C273 C138 1.230 . S
C288 C9 1.224 . S
C323 C2 1.153 . S
C338 C175 1.010 . S
C373 C77 1.110 . S
C388 C5 1.023 . S
C423 C179 0.982 . S
C438 C54 0.929 . S
C473 C73 0.944 . S
C488 C39 0.887 . S
C523 C36 0.887 . S
C538 C111 0.886 . S
C573 C156 1.132 1_556 S
C588 C43 1.163 . S
C623 C88 1.166 . S
C638 C122 1.172 . S
C673 C70 1.372 . S
C688 C172 1.387 . S
C723 C141 0.892 . S
C738 C104 0.957 . S
C773 C190 1.238 . S
C788 C145 1.235 . S
C823 C67 1.408 . S
C838 C33 1.409 . S
C873 C169 1.335 . S
C888 C101 1.330 . S
C923 C203 1.047 . S
C938 C135 1.044 . S
