# Generated by pormake.
# Topology uoi, (4)-cn, num edge types: 1
# Building blocks:
#     Node 0, Type 0, BuildingBlock: NAHDIM_clean_sbu_0, # of connection points: 4
#     Node 1, Type 0, BuildingBlock: NAHDIM_clean_sbu_0, # of connection points: 4
#     Node 2, Type 0, BuildingBlock: NAHDIM_clean_sbu_0, # of connection points: 4
#     Node 3, Type 0, BuildingBlock: NAHDIM_clean_sbu_0, # of connection points: 4
#     Node 4, Type 0, BuildingBlock: NAHDIM_clean_sbu_0, # of connection points: 4
#     Node 5, Type 0, BuildingBlock: NAHDIM_clean_sbu_0, # of connection points: 4
#     Node 6, Type 0, BuildingBlock: NAHDIM_clean_sbu_0, # of connection points: 4
#     Node 7, Type 0, BuildingBlock: NAHDIM_clean_sbu_0, # of connection points: 4
#     Node 8, Type 0, BuildingBlock: NAHDIM_clean_sbu_0, # of connection points: 4
#     Node 9, Type 0, BuildingBlock: NAHDIM_clean_sbu_0, # of connection points: 4
#     Node 10, Type 0, BuildingBlock: NAHDIM_clean_sbu_0, # of connection points: 4
#     Node 11, Type 0, BuildingBlock: NAHDIM_clean_sbu_0, # of connection points: 4
#     Node 12, Type 0, BuildingBlock: NAHDIM_clean_sbu_0, # of connection points: 4
#     Node 13, Type 0, BuildingBlock: NAHDIM_clean_sbu_0, # of connection points: 4
#     Node 14, Type 0, BuildingBlock: NAHDIM_clean_sbu_0, # of connection points: 4
#     Node 15, Type 0, BuildingBlock: NAHDIM_clean_sbu_0, # of connection points: 4
#     Node 16, Type 0, BuildingBlock: NAHDIM_clean_sbu_0, # of connection points: 4
#     Node 17, Type 0, BuildingBlock: NAHDIM_clean_sbu_0, # of connection points: 4
#     Node 18, Type 0, BuildingBlock: NAHDIM_clean_sbu_0, # of connection points: 4
#     Node 19, Type 0, BuildingBlock: NAHDIM_clean_sbu_0, # of connection points: 4
#     Node 20, Type 0, BuildingBlock: NAHDIM_clean_sbu_0, # of connection points: 4
#     Node 21, Type 0, BuildingBlock: NAHDIM_clean_sbu_0, # of connection points: 4
#     Node 22, Type 0, BuildingBlock: NAHDIM_clean_sbu_0, # of connection points: 4
#     Node 23, Type 0, BuildingBlock: NAHDIM_clean_sbu_0, # of connection points: 4
#     Node 24, Type 0, BuildingBlock: NAHDIM_clean_sbu_0, # of connection points: 4
#     Node 25, Type 0, BuildingBlock: NAHDIM_clean_sbu_0, # of connection points: 4
#     Node 26, Type 0, BuildingBlock: NAHDIM_clean_sbu_0, # of connection points: 4
#     Node 27, Type 0, BuildingBlock: NAHDIM_clean_sbu_0, # of connection points: 4
#     Node 28, Type 0, BuildingBlock: NAHDIM_clean_sbu_0, # of connection points: 4
#     Node 29, Type 0, BuildingBlock: NAHDIM_clean_sbu_0, # of connection points: 4
#     Node 30, Type 0, BuildingBlock: NAHDIM_clean_sbu_0, # of connection points: 4
#     Node 31, Type 0, BuildingBlock: NAHDIM_clean_sbu_0, # of connection points: 4
#     Edge 32, Type (0, 0), BuildingBlock: ZUJKAS_clean_linker_0, # of connection points: 2
#     Edge 33, Type (0, 0), BuildingBlock: ZUJKAS_clean_linker_0, # of connection points: 2
#     Edge 34, Type (0, 0), BuildingBlock: ZUJKAS_clean_linker_0, # of connection points: 2
#     Edge 35, Type (0, 0), BuildingBlock: ZUJKAS_clean_linker_0, # of connection points: 2
#     Edge 36, Type (0, 0), BuildingBlock: ZUJKAS_clean_linker_0, # of connection points: 2
#     Edge 37, Type (0, 0), BuildingBlock: ZUJKAS_clean_linker_0, # of connection points: 2
#     Edge 38, Type (0, 0), BuildingBlock: ZUJKAS_clean_linker_0, # of connection points: 2
#     Edge 39, Type (0, 0), BuildingBlock: ZUJKAS_clean_linker_0, # of connection points: 2
#     Edge 40, Type (0, 0), BuildingBlock: ZUJKAS_clean_linker_0, # of connection points: 2
#     Edge 41, Type (0, 0), BuildingBlock: ZUJKAS_clean_linker_0, # of connection points: 2
#     Edge 42, Type (0, 0), BuildingBlock: ZUJKAS_clean_linker_0, # of connection points: 2
#     Edge 43, Type (0, 0), BuildingBlock: ZUJKAS_clean_linker_0, # of connection points: 2
#     Edge 44, Type (0, 0), BuildingBlock: ZUJKAS_clean_linker_0, # of connection points: 2
#     Edge 45, Type (0, 0), BuildingBlock: ZUJKAS_clean_linker_0, # of connection points: 2
#     Edge 46, Type (0, 0), BuildingBlock: ZUJKAS_clean_linker_0, # of connection points: 2
#     Edge 47, Type (0, 0), BuildingBlock: ZUJKAS_clean_linker_0, # of connection points: 2
#     Edge 48, Type (0, 0), BuildingBlock: ZUJKAS_clean_linker_0, # of connection points: 2
#     Edge 49, Type (0, 0), BuildingBlock: ZUJKAS_clean_linker_0, # of connection points: 2
#     Edge 50, Type (0, 0), BuildingBlock: ZUJKAS_clean_linker_0, # of connection points: 2
#     Edge 51, Type (0, 0), BuildingBlock: ZUJKAS_clean_linker_0, # of connection points: 2
#     Edge 52, Type (0, 0), BuildingBlock: ZUJKAS_clean_linker_0, # of connection points: 2
#     Edge 53, Type (0, 0), BuildingBlock: ZUJKAS_clean_linker_0, # of connection points: 2
#     Edge 54, Type (0, 0), BuildingBlock: ZUJKAS_clean_linker_0, # of connection points: 2
#     Edge 55, Type (0, 0), BuildingBlock: ZUJKAS_clean_linker_0, # of connection points: 2
#     Edge 56, Type (0, 0), BuildingBlock: ZUJKAS_clean_linker_0, # of connection points: 2
#     Edge 57, Type (0, 0), BuildingBlock: ZUJKAS_clean_linker_0, # of connection points: 2
#     Edge 58, Type (0, 0), BuildingBlock: ZUJKAS_clean_linker_0, # of connection points: 2
#     Edge 59, Type (0, 0), BuildingBlock: ZUJKAS_clean_linker_0, # of connection points: 2
#     Edge 60, Type (0, 0), BuildingBlock: ZUJKAS_clean_linker_0, # of connection points: 2
#     Edge 61, Type (0, 0), BuildingBlock: ZUJKAS_clean_linker_0, # of connection points: 2
#     Edge 62, Type (0, 0), BuildingBlock: ZUJKAS_clean_linker_0, # of connection points: 2
#     Edge 63, Type (0, 0), BuildingBlock: ZUJKAS_clean_linker_0, # of connection points: 2
#     Edge 64, Type (0, 0), BuildingBlock: ZUJKAS_clean_linker_0, # of connection points: 2
#     Edge 65, Type (0, 0), BuildingBlock: ZUJKAS_clean_linker_0, # of connection points: 2
#     Edge 66, Type (0, 0), BuildingBlock: ZUJKAS_clean_linker_0, # of connection points: 2
#     Edge 67, Type (0, 0), BuildingBlock: ZUJKAS_clean_linker_0, # of connection points: 2
#     Edge 68, Type (0, 0), BuildingBlock: ZUJKAS_clean_linker_0, # of connection points: 2
#     Edge 69, Type (0, 0), BuildingBlock: ZUJKAS_clean_linker_0, # of connection points: 2
#     Edge 70, Type (0, 0), BuildingBlock: ZUJKAS_clean_linker_0, # of connection points: 2
#     Edge 71, Type (0, 0), BuildingBlock: ZUJKAS_clean_linker_0, # of connection points: 2
#     Edge 72, Type (0, 0), BuildingBlock: ZUJKAS_clean_linker_0, # of connection points: 2
#     Edge 73, Type (0, 0), BuildingBlock: ZUJKAS_clean_linker_0, # of connection points: 2
#     Edge 74, Type (0, 0), BuildingBlock: ZUJKAS_clean_linker_0, # of connection points: 2
#     Edge 75, Type (0, 0), BuildingBlock: ZUJKAS_clean_linker_0, # of connection points: 2
#     Edge 76, Type (0, 0), BuildingBlock: ZUJKAS_clean_linker_0, # of connection points: 2
#     Edge 77, Type (0, 0), BuildingBlock: ZUJKAS_clean_linker_0, # of connection points: 2
#     Edge 78, Type (0, 0), BuildingBlock: ZUJKAS_clean_linker_0, # of connection points: 2
#     Edge 79, Type (0, 0), BuildingBlock: ZUJKAS_clean_linker_0, # of connection points: 2
#     Edge 80, Type (0, 0), BuildingBlock: ZUJKAS_clean_linker_0, # of connection points: 2
#     Edge 81, Type (0, 0), BuildingBlock: ZUJKAS_clean_linker_0, # of connection points: 2
#     Edge 82, Type (0, 0), BuildingBlock: ZUJKAS_clean_linker_0, # of connection points: 2
#     Edge 83, Type (0, 0), BuildingBlock: ZUJKAS_clean_linker_0, # of connection points: 2
#     Edge 84, Type (0, 0), BuildingBlock: ZUJKAS_clean_linker_0, # of connection points: 2
#     Edge 85, Type (0, 0), BuildingBlock: ZUJKAS_clean_linker_0, # of connection points: 2
#     Edge 86, Type (0, 0), BuildingBlock: ZUJKAS_clean_linker_0, # of connection points: 2
#     Edge 87, Type (0, 0), BuildingBlock: ZUJKAS_clean_linker_0, # of connection points: 2
#     Edge 88, Type (0, 0), BuildingBlock: ZUJKAS_clean_linker_0, # of connection points: 2
#     Edge 89, Type (0, 0), BuildingBlock: ZUJKAS_clean_linker_0, # of connection points: 2
#     Edge 90, Type (0, 0), BuildingBlock: ZUJKAS_clean_linker_0, # of connection points: 2
#     Edge 91, Type (0, 0), BuildingBlock: ZUJKAS_clean_linker_0, # of connection points: 2
#     Edge 92, Type (0, 0), BuildingBlock: ZUJKAS_clean_linker_0, # of connection points: 2
#     Edge 93, Type (0, 0), BuildingBlock: ZUJKAS_clean_linker_0, # of connection points: 2
#     Edge 94, Type (0, 0), BuildingBlock: ZUJKAS_clean_linker_0, # of connection points: 2
#     Edge 95, Type (0, 0), BuildingBlock: ZUJKAS_clean_linker_0, # of connection points: 2
# Relax obj value: 0.317
# Max RMSD: 0.189
# Mean RMSD: 0.189
data_MOF--net-uoi--node1-NAHDIM_clean_sbu_0--edge1-ZUJKAS_clean_linker_0
_symmetry_space_group_name_H-M    P1
_symmetry_Int_Tables_number       1
_symmetry_cell_setting            triclinic
loop_
_symmetry_equiv_pos_as_xyz
'x, y, z'
_cell_length_a     103.38101
_cell_length_b     103.43275
_cell_length_c     24.572376
_cell_angle_alpha  90.000795
_cell_angle_beta   90.009976
_cell_angle_gamma 90.000807
loop_
_atom_site_label
_atom_site_type_symbol
_atom_site_fract_x
_atom_site_fract_y
_atom_site_fract_z
_atom_type_partial_charge
C0 C 0.15506 0.16268 0.31568 0.0
O1 O 0.16574 0.16852 0.30038 0.0
O2 O 0.17762 0.1742 0.424 0.0
Zn3 Zn 0.15933 0.17928 0.40491 0.0
O4 O 0.15935 0.19557 0.36031 0.0
C5 C 0.15452 0.18112 0.52059 0.0
O6 O 0.16419 0.17292 0.52387 0.0
O7 O 0.15025 0.16541 0.36191 0.0
C8 C 0.16251 0.20619 0.38274 0.0
O9 O 0.1664 0.20611 0.43366 0.0
C10 C 0.18749 0.17771 0.39698 0.0
O11 O 0.18593 0.18452 0.35234 0.0
O12 O 0.15007 0.18406 0.47398 0.0
C13 C 0.09167 0.90065 0.60023 0.0
O14 O 0.09328 0.91299 0.61071 0.0
O15 O 0.07176 0.92289 0.67334 0.0
Zn16 Zn 0.06757 0.90417 0.6592 0.0
O17 O 0.05173 0.9031 0.6122 0.0
C18 C 0.06586 0.90075 0.77572 0.0
O19 O 0.0746 0.90997 0.77665 0.0
O20 O 0.08187 0.89483 0.6196 0.0
C21 C 0.04086 0.90688 0.63033 0.0
O22 O 0.04025 0.91202 0.67918 0.0
C23 C 0.06974 0.93178 0.63873 0.0
O24 O 0.06525 0.92872 0.59038 0.0
O25 O 0.06247 0.896 0.7302 0.0
C26 C 0.34296 0.84262 0.83936 0.0
O27 O 0.33042 0.84392 0.84598 0.0
O28 O 0.32124 0.82519 0.92757 0.0
Zn29 Zn 0.33959 0.82019 0.90924 0.0
O30 O 0.33952 0.80395 0.86459 0.0
C31 C 0.34376 0.81623 0.02447 0.0
O32 O 0.33248 0.82199 0.02862 0.0
O33 O 0.34888 0.8337 0.86476 0.0
C34 C 0.33646 0.79315 0.88574 0.0
O35 O 0.33258 0.79282 0.93664 0.0
C36 C 0.31169 0.82283 0.89659 0.0
O37 O 0.31376 0.8175 0.84883 0.0
O38 O 0.34912 0.81544 0.97801 0.0
C39 C 0.40385 0.09488 0.10941 0.0
O40 O 0.40157 0.08268 0.12066 0.0
O41 O 0.42267 0.07209 0.18596 0.0
Zn42 Zn 0.4275 0.09062 0.17126 0.0
O43 O 0.44346 0.09106 0.12495 0.0
C44 C 0.42981 0.09369 0.28741 0.0
O45 O 0.42164 0.08396 0.28804 0.0
O46 O 0.41376 0.10033 0.12974 0.0
C47 C 0.45433 0.08733 0.14341 0.0
O48 O 0.45496 0.08254 0.19288 0.0
C49 C 0.4238 0.06304 0.15137 0.0
O50 O 0.42777 0.06576 0.10189 0.0
O51 O 0.43263 0.09893 0.24215 0.0
C52 C 0.14997 0.83951 0.13969 0.0
O53 O 0.16081 0.84325 0.11673 0.0
O54 O 0.17251 0.82016 0.06182 0.0
Zn55 Zn 0.15429 0.81518 0.08149 0.0
O56 O 0.15476 0.79868 0.12432 0.0
C57 C 0.14848 0.8149 0.96653 0.0
O58 O 0.15723 0.8241 0.96449 0.0
O59 O 0.14532 0.82847 0.128 0.0
C60 C 0.15916 0.78842 0.1028 0.0
O61 O 0.16398 0.78892 0.05337 0.0
C62 C 0.18166 0.82108 0.09608 0.0
O63 O 0.17922 0.81925 0.14799 0.0
O64 O 0.14484 0.81071 0.01266 0.0
C65 C 0.40752 0.89985 0.38307 0.0
O66 O 0.40414 0.91118 0.36359 0.0
O67 O 0.42623 0.92313 0.30963 0.0
Zn68 Zn 0.43196 0.90508 0.32836 0.0
O69 O 0.44785 0.90593 0.37537 0.0
C70 C 0.43468 0.90081 0.2125 0.0
O71 O 0.4256 0.90967 0.20902 0.0
O72 O 0.41849 0.89517 0.37046 0.0
C73 C 0.45434 0.89556 0.38041 0.0
O74 O 0.45022 0.88503 0.35599 0.0
C75 C 0.42648 0.93261 0.34244 0.0
O76 O 0.43014 0.9307 0.39301 0.0
O77 O 0.43779 0.89648 0.25912 0.0
C78 C 0.34807 0.15797 0.64646 0.0
O79 O 0.33698 0.15463 0.62448 0.0
O80 O 0.32556 0.17819 0.57265 0.0
Zn81 Zn 0.34392 0.18278 0.59169 0.0
O82 O 0.34384 0.19883 0.63752 0.0
C83 C 0.34878 0.18484 0.47637 0.0
O84 O 0.3392 0.17654 0.47303 0.0
O85 O 0.3529 0.16896 0.63539 0.0
C86 C 0.3405 0.20961 0.61712 0.0
O87 O 0.3365 0.21002 0.56639 0.0
C88 C 0.31645 0.17708 0.60698 0.0
O89 O 0.31896 0.17847 0.65908 0.0
O90 O 0.35324 0.18776 0.52299 0.0
C91 C 0.08141 0.0935 0.91587 0.0
O92 O 0.07535 0.08279 0.92906 0.0
O93 O 0.0695 0.0715 0.81106 0.0
Zn94 Zn 0.06487 0.09007 0.82701 0.0
O95 O 0.04847 0.0909 0.87104 0.0
C96 C 0.06509 0.09456 0.71058 0.0
O97 O 0.07382 0.08533 0.71045 0.0
O98 O 0.07886 0.09879 0.87041 0.0
C99 C 0.04181 0.10123 0.87063 0.0
O100 O 0.04588 0.11114 0.84194 0.0
C101 C 0.06366 0.06201 0.83283 0.0
O102 O 0.05466 0.06424 0.86937 0.0
O103 O 0.06089 0.09878 0.75583 0.0
C104 C 0.84474 0.83875 0.64452 0.0
O105 O 0.83365 0.84252 0.6238 0.0
O106 O 0.82191 0.81978 0.56647 0.0
Zn107 Zn 0.84018 0.81466 0.58461 0.0
O108 O 0.83985 0.79799 0.62643 0.0
C109 C 0.84478 0.81202 0.46901 0.0
O110 O 0.83376 0.81828 0.46514 0.0
O111 O 0.84931 0.82777 0.63139 0.0
C112 C 0.83644 0.78759 0.6029 0.0
O113 O 0.83247 0.78806 0.55214 0.0
C114 C 0.8128 0.82003 0.60113 0.0
O115 O 0.81534 0.81737 0.65231 0.0
O116 O 0.84986 0.81049 0.51567 0.0
C117 C 0.91644 0.09312 0.43043 0.0
O118 O 0.92257 0.08244 0.44362 0.0
O119 O 0.92793 0.07111 0.32235 0.0
Zn120 Zn 0.93234 0.08977 0.33811 0.0
O121 O 0.94922 0.09078 0.37851 0.0
C122 C 0.93417 0.09369 0.22176 0.0
O123 O 0.92848 0.08235 0.21971 0.0
O124 O 0.9187 0.09826 0.38439 0.0
C125 C 0.95971 0.08817 0.35381 0.0
O126 O 0.95922 0.08428 0.30294 0.0
C127 C 0.933 0.06172 0.34798 0.0
O128 O 0.94098 0.06411 0.38836 0.0
O129 O 0.9356 0.09919 0.26766 0.0
C130 C 0.65556 0.16173 0.18015 0.0
O131 O 0.66804 0.16404 0.18227 0.0
O132 O 0.67589 0.17786 0.08502 0.0
Zn133 Zn 0.65696 0.1815 0.09906 0.0
O134 O 0.65495 0.19837 0.13905 0.0
C135 C 0.65343 0.18145 0.98226 0.0
O136 O 0.66392 0.17428 0.98273 0.0
O137 O 0.64872 0.16767 0.14515 0.0
C138 C 0.65655 0.20901 0.11404 0.0
O139 O 0.66004 0.20882 0.06263 0.0
C140 C 0.68492 0.1843 0.10735 0.0
O141 O 0.68199 0.19325 0.14318 0.0
O142 O 0.64807 0.18432 0.0272 0.0
C143 C 0.59277 0.90633 0.90117 0.0
O144 O 0.594 0.91886 0.89443 0.0
O145 O 0.57522 0.92795 0.81356 0.0
Zn146 Zn 0.56997 0.90981 0.83395 0.0
O147 O 0.55417 0.91035 0.88139 0.0
C148 C 0.56517 0.90521 0.71956 0.0
O149 O 0.5717 0.916 0.71345 0.0
O150 O 0.58371 0.9004 0.87661 0.0
C151 C 0.54326 0.91361 0.86189 0.0
O152 O 0.54255 0.91743 0.81097 0.0
C153 C 0.57305 0.93767 0.84378 0.0
O154 O 0.56773 0.93591 0.89175 0.0
O155 O 0.56429 0.90022 0.7667 0.0
C156 C 0.84658 0.16575 0.83085 0.0
O157 O 0.83588 0.17164 0.81599 0.0
O158 O 0.8241 0.17937 0.92756 0.0
Zn159 Zn 0.84308 0.18332 0.91638 0.0
O160 O 0.8452 0.19957 0.87192 0.0
C161 C 0.84561 0.18375 0.03362 0.0
O162 O 0.83573 0.17578 0.0318 0.0
O163 O 0.85179 0.16885 0.87586 0.0
C164 C 0.84498 0.21061 0.89469 0.0
O165 O 0.84308 0.21134 0.94746 0.0
C166 C 0.81516 0.18673 0.91017 0.0
O167 O 0.81822 0.19698 0.88139 0.0
O168 O 0.85105 0.18708 0.98941 0.0
C169 C 0.58937 0.10118 0.62411 0.0
O170 O 0.59372 0.09109 0.65092 0.0
O171 O 0.57018 0.07653 0.68947 0.0
Zn172 Zn 0.56433 0.0946 0.67228 0.0
O173 O 0.54827 0.09364 0.62622 0.0
C174 C 0.56209 0.0988 0.78819 0.0
O175 O 0.57085 0.08963 0.79087 0.0
O176 O 0.57762 0.10453 0.6296 0.0
C177 C 0.53731 0.09172 0.64826 0.0
O178 O 0.53669 0.0898 0.70105 0.0
C179 C 0.57224 0.06791 0.65367 0.0
O180 O 0.57094 0.07087 0.60196 0.0
O181 O 0.55898 0.10332 0.74189 0.0
C182 C 0.65144 0.84048 0.35115 0.0
O183 O 0.66272 0.84366 0.37172 0.0
O184 O 0.67351 0.82115 0.42975 0.0
Zn185 Zn 0.65542 0.81605 0.40845 0.0
O186 O 0.65601 0.79982 0.36377 0.0
C187 C 0.64932 0.81542 0.52302 0.0
O188 O 0.65804 0.82464 0.52571 0.0
O189 O 0.64643 0.82965 0.36359 0.0
C190 C 0.65973 0.78927 0.38523 0.0
O191 O 0.6638 0.78931 0.43588 0.0
C192 C 0.68317 0.82068 0.3979 0.0
O193 O 0.68142 0.8172 0.347 0.0
O194 O 0.64584 0.81126 0.47662 0.0
C195 C 0.90856 0.9014 0.09048 0.0
O196 O 0.90706 0.91376 0.10099 0.0
O197 O 0.92751 0.92291 0.17192 0.0
Zn198 Zn 0.93189 0.90435 0.15514 0.0
O199 O 0.9483 0.90375 0.1114 0.0
C200 C 0.93359 0.9003 0.27124 0.0
O201 O 0.92571 0.91026 0.27316 0.0
O202 O 0.91803 0.89537 0.11158 0.0
C203 C 0.95884 0.90749 0.13289 0.0
O204 O 0.95866 0.91225 0.18247 0.0
C205 C 0.93048 0.93225 0.14074 0.0
O206 O 0.93606 0.9298 0.09383 0.0
O207 O 0.93632 0.89536 0.22529 0.0
C208 C 0.64942 0.65854 0.85139 0.0
O209 O 0.66074 0.65519 0.87113 0.0
O210 O 0.673 0.67828 0.91819 0.0
Zn211 Zn 0.6544 0.68311 0.90577 0.0
O212 O 0.6537 0.69953 0.86232 0.0
C213 C 0.65145 0.68381 0.02266 0.0
O214 O 0.66085 0.67527 0.02152 0.0
O215 O 0.64474 0.66954 0.86338 0.0
C216 C 0.65701 0.71016 0.88416 0.0
O217 O 0.66142 0.71013 0.93433 0.0
C218 C 0.68168 0.67904 0.88175 0.0
O219 O 0.67844 0.68268 0.83236 0.0
O220 O 0.64639 0.68745 0.97808 0.0
C221 C 0.59374 0.39869 0.11415 0.0
O222 O 0.59672 0.41033 0.13144 0.0
O223 O 0.5733 0.42189 0.18222 0.0
Zn224 Zn 0.569 0.40322 0.16854 0.0
O225 O 0.55317 0.40244 0.12151 0.0
C226 C 0.56664 0.40031 0.28485 0.0
O227 O 0.57518 0.40971 0.28571 0.0
O228 O 0.58302 0.39369 0.12825 0.0
C229 C 0.54231 0.40624 0.13974 0.0
O230 O 0.5417 0.41119 0.18892 0.0
C231 C 0.57376 0.43047 0.14529 0.0
O232 O 0.57201 0.42708 0.09428 0.0
O233 O 0.56374 0.39513 0.23955 0.0
C234 C 0.84254 0.33562 0.32825 0.0
O235 O 0.83101 0.33115 0.31596 0.0
O236 O 0.8208 0.32105 0.42719 0.0
Zn237 Zn 0.83957 0.31698 0.41216 0.0
O238 O 0.84089 0.30054 0.36882 0.0
C239 C 0.8433 0.31618 0.52863 0.0
O240 O 0.83309 0.32374 0.52898 0.0
O241 O 0.84828 0.33124 0.37013 0.0
C242 C 0.83765 0.28994 0.39115 0.0
O243 O 0.83307 0.29011 0.44104 0.0
C244 C 0.81154 0.31643 0.39929 0.0
O245 O 0.81414 0.30918 0.35678 0.0
O246 O 0.84837 0.31312 0.48331 0.0
C247 C 0.91081 0.59761 0.5816 0.0
O248 O 0.91069 0.58498 0.58691 0.0
O249 O 0.92924 0.57691 0.66846 0.0
Zn250 Zn 0.93346 0.59543 0.64992 0.0
O251 O 0.94985 0.59597 0.60611 0.0
C252 C 0.9336 0.60052 0.76546 0.0
O253 O 0.92453 0.59162 0.7664 0.0
O254 O 0.91934 0.60415 0.60675 0.0
C255 C 0.96036 0.59251 0.62871 0.0
O256 O 0.96006 0.5882 0.67901 0.0
C257 C 0.93277 0.56739 0.63935 0.0
O258 O 0.93882 0.56957 0.59325 0.0
O259 O 0.93776 0.60452 0.71981 0.0
C260 C 0.65137 0.3379 0.6519 0.0
O261 O 0.66366 0.33924 0.63952 0.0
O262 O 0.67228 0.31823 0.57187 0.0
Zn263 Zn 0.65372 0.31412 0.58989 0.0
O264 O 0.65298 0.29806 0.63563 0.0
C265 C 0.64849 0.31374 0.47441 0.0
O266 O 0.65751 0.32268 0.47294 0.0
O267 O 0.64511 0.32835 0.63266 0.0
C268 C 0.65702 0.28731 0.61726 0.0
O269 O 0.6622 0.28687 0.56847 0.0
C270 C 0.68167 0.31532 0.60288 0.0
O271 O 0.6793 0.30985 0.65009 0.0
O272 O 0.64459 0.30963 0.52029 0.0
C273 C 0.91602 0.40708 0.93623 0.0
O274 O 0.92316 0.41688 0.95215 0.0
O275 O 0.92834 0.42926 0.82867 0.0
Zn276 Zn 0.93203 0.41049 0.84463 0.0
O277 O 0.94867 0.40881 0.88651 0.0
C278 C 0.93209 0.40622 0.72834 0.0
O279 O 0.92471 0.41655 0.72769 0.0
O280 O 0.91777 0.40247 0.88883 0.0
C281 C 0.95935 0.41106 0.86269 0.0
O282 O 0.95923 0.41497 0.81181 0.0
C283 C 0.93347 0.43855 0.85472 0.0
O284 O 0.94115 0.43602 0.89598 0.0
O285 O 0.93522 0.40129 0.77384 0.0
C286 C 0.8422 0.66294 0.15665 0.0
O287 O 0.83048 0.66741 0.16528 0.0
O288 O 0.8213 0.67697 0.05699 0.0
Zn289 Zn 0.83994 0.68135 0.07335 0.0
O290 O 0.84099 0.69755 0.1185 0.0
C291 C 0.84423 0.68144 0.95703 0.0
O292 O 0.83506 0.67264 0.95708 0.0
O293 O 0.84855 0.66717 0.11606 0.0
C294 C 0.85144 0.70402 0.11876 0.0
O295 O 0.86133 0.69985 0.09012 0.0
C296 C 0.81195 0.68391 0.07353 0.0
O297 O 0.81435 0.6939 0.10494 0.0
O298 O 0.84859 0.68552 0.00223 0.0
C299 C 0.58982 0.59228 0.40576 0.0
O300 O 0.589 0.57961 0.40637 0.0
O301 O 0.5727 0.5706 0.32027 0.0
Zn302 Zn 0.56809 0.58922 0.33515 0.0
O303 O 0.55228 0.58999 0.38264 0.0
C304 C 0.56633 0.59279 0.21854 0.0
O305 O 0.57521 0.58371 0.21721 0.0
O306 O 0.58225 0.59866 0.37504 0.0
C307 C 0.54626 0.60067 0.38605 0.0
O308 O 0.55079 0.61078 0.35986 0.0
C309 C 0.56356 0.56246 0.31577 0.0
O310 O 0.55158 0.56635 0.32294 0.0
O311 O 0.56286 0.59737 0.26425 0.0
C312 C 0.34605 0.34267 0.15337 0.0
O313 O 0.33365 0.34404 0.14316 0.0
O314 O 0.32435 0.32294 0.07673 0.0
Zn315 Zn 0.34312 0.319 0.09107 0.0
O316 O 0.34444 0.30296 0.13675 0.0
C317 C 0.34637 0.31723 0.97466 0.0
O318 O 0.33647 0.3252 0.97403 0.0
O319 O 0.35212 0.3332 0.1325 0.0
C320 C 0.34131 0.292 0.11738 0.0
O321 O 0.33665 0.29133 0.06769 0.0
C322 C 0.31532 0.31992 0.10938 0.0
O323 O 0.31823 0.31452 0.15621 0.0
O324 O 0.35159 0.31443 0.01998 0.0
C325 C 0.40807 0.59712 0.90326 0.0
O326 O 0.40503 0.58535 0.88774 0.0
O327 O 0.42652 0.57447 0.82337 0.0
Zn328 Zn 0.43188 0.59266 0.84206 0.0
O329 O 0.44818 0.59202 0.88631 0.0
C330 C 0.43547 0.59707 0.7269 0.0
O331 O 0.42857 0.58647 0.72225 0.0
O332 O 0.41855 0.60216 0.88649 0.0
C333 C 0.45854 0.5878 0.86483 0.0
O334 O 0.45817 0.58324 0.81494 0.0
C335 C 0.42706 0.5652 0.85719 0.0
O336 O 0.43066 0.56755 0.90752 0.0
O337 O 0.43696 0.60209 0.7737 0.0
C338 C 0.15518 0.66573 0.6694 0.0
O339 O 0.16562 0.67195 0.68508 0.0
O340 O 0.17766 0.67913 0.56932 0.0
Zn341 Zn 0.15878 0.68294 0.58223 0.0
O342 O 0.15674 0.6993 0.62558 0.0
C343 C 0.1556 0.68293 0.46532 0.0
O344 O 0.16522 0.67464 0.46672 0.0
O345 O 0.15021 0.6685 0.62352 0.0
C346 C 0.15935 0.71011 0.60357 0.0
O347 O 0.16392 0.71031 0.55368 0.0
C348 C 0.18682 0.68428 0.59612 0.0
O349 O 0.18408 0.69215 0.63648 0.0
O350 O 0.15056 0.68666 0.50981 0.0
C351 C 0.08152 0.40214 0.42657 0.0
O352 O 0.07534 0.41273 0.44051 0.0
O353 O 0.06843 0.42407 0.32273 0.0
Zn354 Zn 0.06451 0.40532 0.33856 0.0
O355 O 0.04829 0.40396 0.38317 0.0
C356 C 0.06439 0.40102 0.22241 0.0
O357 O 0.07303 0.41034 0.22244 0.0
O358 O 0.07888 0.39689 0.3811 0.0
C359 C 0.03735 0.40645 0.36193 0.0
O360 O 0.03685 0.41034 0.31107 0.0
C361 C 0.0636 0.43339 0.34961 0.0
O362 O 0.05614 0.4309 0.39158 0.0
O363 O 0.06045 0.39654 0.26762 0.0
C364 C 0.34878 0.66036 0.3573 0.0
O365 O 0.33681 0.65803 0.3724 0.0
O366 O 0.32641 0.67971 0.43101 0.0
Zn367 Zn 0.34496 0.6844 0.41605 0.0
O368 O 0.34534 0.70062 0.37085 0.0
C369 C 0.34837 0.68553 0.53265 0.0
O370 O 0.33907 0.67686 0.53262 0.0
O371 O 0.35434 0.67059 0.37385 0.0
C372 C 0.35539 0.70771 0.37148 0.0
O373 O 0.36535 0.70417 0.40115 0.0
C374 C 0.31719 0.68235 0.39874 0.0
O375 O 0.31977 0.68782 0.35171 0.0
O376 O 0.35324 0.68904 0.48752 0.0
C377 C 0.08303 0.59366 0.06375 0.0
O378 O 0.07725 0.58283 0.05009 0.0
O379 O 0.06909 0.5721 0.16679 0.0
Zn380 Zn 0.06546 0.59089 0.15085 0.0
O381 O 0.04908 0.59264 0.10743 0.0
C382 C 0.06559 0.59521 0.26711 0.0
O383 O 0.07379 0.58551 0.26724 0.0
O384 O 0.0799 0.59912 0.1082 0.0
C385 C 0.03831 0.58991 0.12952 0.0
O386 O 0.03818 0.58541 0.17953 0.0
C387 C 0.06416 0.56279 0.14016 0.0
O388 O 0.05677 0.56529 0.09796 0.0
O389 O 0.06182 0.5998 0.22184 0.0
C390 C 0.15391 0.33191 0.8267 0.0
O391 O 0.1647 0.32618 0.81195 0.0
O392 O 0.17622 0.31892 0.92892 0.0
Zn393 Zn 0.15767 0.31437 0.91217 0.0
O394 O 0.1568 0.29849 0.86519 0.0
C395 C 0.15347 0.31304 0.02823 0.0
O396 O 0.16261 0.32186 0.02956 0.0
O397 O 0.14876 0.32876 0.87178 0.0
C398 C 0.1594 0.28744 0.88501 0.0
O399 O 0.16324 0.2866 0.93586 0.0
C400 C 0.18586 0.31419 0.90374 0.0
O401 O 0.18386 0.30637 0.86243 0.0
O402 O 0.14902 0.30946 0.98245 0.0
C403 C 0.40774 0.40403 0.60662 0.0
O404 O 0.40529 0.41597 0.62162 0.0
O405 O 0.42676 0.42588 0.68726 0.0
Zn406 Zn 0.43181 0.40776 0.66631 0.0
O407 O 0.44765 0.40831 0.61915 0.0
C408 C 0.43464 0.40245 0.78111 0.0
O409 O 0.42632 0.41197 0.78618 0.0
O410 O 0.41799 0.39855 0.62346 0.0
C411 C 0.45851 0.41168 0.63884 0.0
O412 O 0.45913 0.4155 0.68977 0.0
C413 C 0.42791 0.43556 0.65582 0.0
O414 O 0.43206 0.43378 0.60584 0.0
O415 O 0.43733 0.39826 0.73381 0.0
H416 H 0.30768 0.17773 0.50232 0.0
H417 H 0.28541 0.17569 0.47067 0.0
H418 H 0.27265 0.16925 0.63558 0.0
H419 H 0.29492 0.17166 0.66794 0.0
H420 H 0.26791 0.15622 0.47655 0.0
H421 H 0.24996 0.19913 0.58971 0.0
H422 H 0.26696 0.19552 0.58309 0.0
H423 H 0.25723 0.18699 0.632 0.0
C424 C 0.30015 0.17586 0.53195 0.0
C425 C 0.30305 0.17499 0.58777 0.0
C426 C 0.28742 0.17467 0.51373 0.0
C427 C 0.27733 0.17256 0.55084 0.0
C428 C 0.28024 0.17121 0.60639 0.0
H429 H 0.19405 0.168 0.49674 0.0
H430 H 0.21578 0.16537 0.53457 0.0
C431 C 0.29298 0.17251 0.62477 0.0
C432 C 0.26379 0.17201 0.53104 0.0
H433 H 0.23445 0.18701 0.54097 0.0
C434 C 0.26058 0.16293 0.49073 0.0
C435 C 0.25426 0.18082 0.54947 0.0
C436 C 0.25727 0.19125 0.59056 0.0
C437 C 0.24811 0.16245 0.46823 0.0
C438 C 0.23866 0.1713 0.48642 0.0
C439 C 0.24176 0.18021 0.52739 0.0
C440 C 0.22562 0.17188 0.46193 0.0
C441 C 0.2451 0.1525 0.42516 0.0
C442 C 0.22401 0.17638 0.40851 0.0
C443 C 0.21161 0.17799 0.38684 0.0
C444 C 0.20062 0.17509 0.41826 0.0
C445 C 0.20231 0.17028 0.47137 0.0
C446 C 0.2147 0.16878 0.49313 0.0
H447 H 0.25252 0.14475 0.42364 0.0
H448 H 0.23549 0.14805 0.4326 0.0
H449 H 0.24478 0.1573 0.38477 0.0
H450 H 0.23234 0.17897 0.3841 0.0
H451 H 0.21064 0.18171 0.34585 0.0
H452 H 0.06606 0.95329 0.57567 0.0
H453 H 0.06743 0.97592 0.60413 0.0
H454 H 0.07839 0.96387 0.76571 0.0
H455 H 0.07727 0.94128 0.73753 0.0
H456 H 0.05269 0.98713 0.68328 0.0
H457 H 0.10463 0.9922 0.73445 0.0
H458 H 0.09844 0.97885 0.69483 0.0
H459 H 0.09711 0.97872 0.76784 0.0
C460 C 0.06895 0.95546 0.61705 0.0
C461 C 0.07155 0.94548 0.65434 0.0
C462 C 0.06972 0.96839 0.63323 0.0
C463 C 0.07317 0.97158 0.68683 0.0
C464 C 0.076 0.96165 0.72383 0.0
H465 H 0.05238 0.03967 0.86853 0.0
H466 H 0.05529 0.01788 0.83199 0.0
C467 C 0.07526 0.94873 0.7077 0.0
C468 C 0.07276 0.9852 0.70538 0.0
H469 H 0.0905 0.00874 0.76813 0.0
C470 C 0.06099 0.9919 0.70136 0.0
C471 C 0.08364 0.99144 0.72847 0.0
C472 C 0.0967 0.98498 0.73121 0.0
C473 C 0.05969 0.00453 0.72129 0.0
C474 C 0.07038 0.01053 0.74679 0.0
C475 C 0.08228 0.00402 0.74925 0.0
C476 C 0.06932 0.02356 0.77123 0.0
C477 C 0.04688 0.01136 0.7147 0.0
C478 C 0.07662 0.03387 0.75044 0.0
C479 C 0.07503 0.04633 0.77139 0.0
C480 C 0.06616 0.04868 0.8137 0.0
C481 C 0.05923 0.03822 0.83571 0.0
C482 C 0.06082 0.02577 0.81473 0.0
H483 H 0.04088 0.00685 0.68238 0.0
H484 H 0.04143 0.0108 0.75352 0.0
H485 H 0.04832 0.02173 0.70459 0.0
H486 H 0.08329 0.03232 0.71706 0.0
H487 H 0.08056 0.05417 0.75363 0.0
H488 H 0.19035 0.82143 0.99118 0.0
H489 H 0.21263 0.82367 0.95968 0.0
H490 H 0.22548 0.82859 0.12541 0.0
H491 H 0.20321 0.82599 0.15752 0.0
H492 H 0.23041 0.84298 0.96886 0.0
H493 H 0.24776 0.7988 0.07453 0.0
H494 H 0.23082 0.80266 0.06817 0.0
H495 H 0.24055 0.81051 0.11906 0.0
C496 C 0.1979 0.82302 0.02101 0.0
C497 C 0.19503 0.82339 0.07696 0.0
C498 C 0.21063 0.82432 0.00288 0.0
C499 C 0.22074 0.82604 0.04025 0.0
C500 C 0.21786 0.82693 0.09597 0.0
H501 H 0.30409 0.8307 0.99782 0.0
H502 H 0.282 0.83275 0.03226 0.0
C503 C 0.20512 0.82552 0.11423 0.0
C504 C 0.23429 0.82663 0.02067 0.0
H505 H 0.26357 0.81151 0.03008 0.0
C506 C 0.23767 0.83611 0.98225 0.0
C507 C 0.24373 0.8176 0.03799 0.0
C508 C 0.24054 0.80674 0.07679 0.0
C509 C 0.25025 0.83684 0.96095 0.0
C510 C 0.25964 0.82783 0.97837 0.0
C511 C 0.25633 0.81844 0.01712 0.0
C512 C 0.27291 0.82768 0.95594 0.0
C513 C 0.25346 0.84728 0.92028 0.0
C514 C 0.27507 0.82419 0.90152 0.0
C515 C 0.28769 0.82293 0.88171 0.0
C516 C 0.29834 0.82514 0.91606 0.0
C517 C 0.29611 0.82895 0.97023 0.0
C518 C 0.2835 0.83012 0.99004 0.0
H519 H 0.24606 0.85506 0.91987 0.0
H520 H 0.26305 0.85162 0.92935 0.0
H521 H 0.25393 0.84298 0.87896 0.0
H522 H 0.26701 0.82209 0.87482 0.0
H523 H 0.28908 0.81998 0.83984 0.0
H524 H 0.42373 0.04139 0.08723 0.0
H525 H 0.42136 0.0189 0.11664 0.0
H526 H 0.41687 0.03159 0.2828 0.0
H527 H 0.4189 0.05403 0.25372 0.0
H528 H 0.43717 0.00609 0.18466 0.0
H529 H 0.38771 0.00596 0.2709 0.0
H530 H 0.39363 0.01893 0.22856 0.0
H531 H 0.39766 0.01839 0.29982 0.0
C532 C 0.42205 0.03939 0.12992 0.0
C533 C 0.42149 0.04949 0.16811 0.0
C534 C 0.42069 0.02654 0.14665 0.0
C535 C 0.41873 0.02356 0.20181 0.0
C536 C 0.41802 0.03365 0.23987 0.0
H537 H 0.42601 0.95522 0.40062 0.0
H538 H 0.42319 0.97717 0.36497 0.0
C539 C 0.41928 0.04649 0.22316 0.0
C540 C 0.41852 0.00992 0.22024 0.0
H541 H 0.4013 0.98806 0.29533 0.0
C542 C 0.42925 0.0021 0.20825 0.0
C543 C 0.40819 0.00474 0.2512 0.0
C544 C 0.39609 0.01241 0.26292 0.0
C545 C 0.4301 0.98938 0.22762 0.0
C546 C 0.41992 0.98433 0.25953 0.0
C547 C 0.40911 0.99204 0.27105 0.0
C548 C 0.42049 0.97106 0.28158 0.0
C549 C 0.44203 0.98151 0.21503 0.0
C550 C 0.4196 0.96041 0.24653 0.0
C551 C 0.42117 0.94789 0.26667 0.0
C552 C 0.42369 0.9458 0.32228 0.0
C553 C 0.42413 0.9565 0.35759 0.0
C554 C 0.4225 0.96903 0.33736 0.0
H555 H 0.44993 0.98753 0.19782 0.0
H556 H 0.44563 0.97663 0.25232 0.0
H557 H 0.43954 0.97391 0.18492 0.0
H558 H 0.41793 0.96182 0.2034 0.0
H559 H 0.42071 0.93988 0.23835 0.0
H560 H 0.69009 0.82567 0.5031 0.0
H561 H 0.71193 0.82805 0.53983 0.0
H562 H 0.72785 0.82342 0.37887 0.0
H563 H 0.70602 0.82104 0.34153 0.0
H564 H 0.73155 0.8086 0.52903 0.0
H565 H 0.74669 0.85577 0.44157 0.0
H566 H 0.72993 0.85098 0.44706 0.0
H567 H 0.7399 0.84445 0.39391 0.0
C568 C 0.69822 0.82532 0.4753 0.0
C569 C 0.69632 0.82313 0.41933 0.0
C570 C 0.71068 0.82668 0.49643 0.0
C571 C 0.72146 0.82603 0.46199 0.0
C572 C 0.71962 0.82415 0.40597 0.0
H573 H 0.80405 0.82262 0.49683 0.0
H574 H 0.78169 0.82479 0.46629 0.0
C575 C 0.70715 0.82272 0.38477 0.0
C576 C 0.73466 0.82635 0.48525 0.0
H577 H 0.76304 0.8432 0.48425 0.0
C578 C 0.73842 0.81621 0.51971 0.0
C579 C 0.74356 0.83627 0.47269 0.0
C580 C 0.73983 0.84756 0.43713 0.0
C581 C 0.75102 0.81552 0.54075 0.0
C582 C 0.75998 0.82541 0.52801 0.0
C583 C 0.75614 0.83565 0.49409 0.0
C584 C 0.77355 0.82496 0.54739 0.0
C585 C 0.75474 0.80393 0.57467 0.0
C586 C 0.77642 0.82466 0.60323 0.0
C587 C 0.78921 0.8233 0.6209 0.0
C588 C 0.79935 0.82239 0.58299 0.0
C589 C 0.79647 0.82324 0.52714 0.0
C590 C 0.78369 0.82451 0.50956 0.0
H591 H 0.74787 0.79577 0.5691 0.0
H592 H 0.76461 0.80052 0.56425 0.0
H593 H 0.75464 0.80666 0.61833 0.0
H594 H 0.76876 0.8253 0.63314 0.0
H595 H 0.79112 0.8228 0.66419 0.0
H596 H 0.91872 0.05352 0.26071 0.0
H597 H 0.91659 0.03145 0.22632 0.0
H598 H 0.94009 0.01743 0.35878 0.0
H599 H 0.94244 0.03949 0.39314 0.0
H600 H 0.94827 0.00888 0.258 0.0
H601 H 0.89553 0.00081 0.28352 0.0
H602 H 0.89959 0.01528 0.24685 0.0
H603 H 0.90406 0.01378 0.31726 0.0
C604 C 0.92331 0.04573 0.28297 0.0
C605 C 0.93077 0.04827 0.32968 0.0
C606 C 0.92202 0.03311 0.26338 0.0
C607 C 0.92806 0.0228 0.29035 0.0
C608 C 0.93531 0.02526 0.33751 0.0
H609 H 0.92046 0.94047 0.23771 0.0
H610 H 0.9194 0.96263 0.27199 0.0
C611 C 0.93663 0.03788 0.35709 0.0
C612 C 0.92757 0.00956 0.26749 0.0
H613 H 0.90705 0.98509 0.23205 0.0
C614 C 0.93926 0.00366 0.25244 0.0
C615 C 0.91581 0.00276 0.26069 0.0
C616 C 0.90303 0.00841 0.27835 0.0
C617 C 0.93951 0.99117 0.23031 0.0
C618 C 0.92773 0.98449 0.22215 0.0
C619 C 0.91604 0.99032 0.23775 0.0
C620 C 0.92745 0.97125 0.19931 0.0
C621 C 0.95241 0.98512 0.21689 0.0
C622 C 0.93201 0.96882 0.14651 0.0
C623 C 0.93267 0.95616 0.12677 0.0
C624 C 0.9287 0.94573 0.15946 0.0
C625 C 0.92365 0.94828 0.21154 0.0
C626 C 0.92301 0.96093 0.23121 0.0
H627 H 0.96054 0.99021 0.23732 0.0
H628 H 0.95262 0.97479 0.22909 0.0
H629 H 0.95404 0.98564 0.17231 0.0
H630 H 0.93526 0.9767 0.1209 0.0
H631 H 0.93652 0.95454 0.08636 0.0
H632 H 0.79441 0.2025 0.89273 0.0
H633 H 0.77236 0.19968 0.92607 0.0
H634 H 0.78291 0.16293 0.99622 0.0
H635 H 0.80515 0.16584 0.96424 0.0
H636 H 0.75409 0.18137 0.90768 0.0
H637 H 0.76794 0.18185 0.12612 0.0
H638 H 0.77906 0.18624 0.07269 0.0
H639 H 0.77574 0.1695 0.08668 0.0
C640 C 0.79205 0.19378 0.91505 0.0
C641 C 0.80157 0.18445 0.9263 0.0
C642 C 0.77943 0.19218 0.93404 0.0
C643 C 0.77605 0.18122 0.96451 0.0
C644 C 0.78539 0.17162 0.97394 0.0
H645 H 0.69466 0.16533 0.04132 0.0
H646 H 0.71685 0.16325 0.00778 0.0
C647 C 0.79807 0.17326 0.95532 0.0
C648 C 0.76281 0.18005 0.98704 0.0
H649 H 0.74589 0.17826 0.10614 0.0
C650 C 0.75228 0.18063 0.95105 0.0
C651 C 0.76049 0.17925 0.04372 0.0
C652 C 0.77138 0.17929 0.08466 0.0
C653 C 0.73949 0.18059 0.97016 0.0
C654 C 0.73718 0.17962 0.02679 0.0
C655 C 0.7477 0.17888 0.06274 0.0
C656 C 0.72394 0.18022 0.04983 0.0
C657 C 0.72862 0.18212 0.92964 0.0
C658 C 0.7207 0.19011 0.08647 0.0
C659 C 0.7081 0.19121 0.10637 0.0
C660 C 0.69847 0.18246 0.08983 0.0
C661 C 0.70183 0.17231 0.05443 0.0
C662 C 0.71448 0.17115 0.03493 0.0
H663 H 0.73211 0.18597 0.89008 0.0
H664 H 0.72414 0.17254 0.92194 0.0
H665 H 0.72102 0.1887 0.94553 0.0
H666 H 0.72787 0.19718 0.09871 0.0
H667 H 0.70584 0.19913 0.13361 0.0
H668 H 0.57012 0.96057 0.89817 0.0
H669 H 0.57281 0.98243 0.86165 0.0
H670 H 0.58449 0.96656 0.70707 0.0
H671 H 0.58183 0.94467 0.743 0.0
H672 H 0.59566 0.9945 0.808 0.0
H673 H 0.55221 0.99007 0.67525 0.0
H674 H 0.55504 0.97943 0.73227 0.0
H675 H 0.56407 0.9774 0.67049 0.0
C676 C 0.57336 0.96172 0.85653 0.0
C677 C 0.57566 0.95088 0.82337 0.0
C678 C 0.57491 0.9742 0.83581 0.0
C679 C 0.5787 0.97606 0.78158 0.0
C680 C 0.58142 0.96529 0.74888 0.0
H681 H 0.57749 0.04702 0.58875 0.0
H682 H 0.58092 0.02461 0.61753 0.0
C683 C 0.57992 0.9528 0.76958 0.0
C684 C 0.57928 0.98926 0.75868 0.0
H685 H 0.56369 0.00966 0.67152 0.0
C686 C 0.58873 0.99783 0.77797 0.0
C687 C 0.57026 0.99349 0.7193 0.0
C688 C 0.55974 0.98469 0.69818 0.0
C689 C 0.58935 0.01063 0.75903 0.0
C690 C 0.58007 0.01499 0.72084 0.0
C691 C 0.57081 0.00629 0.7007 0.0
C692 C 0.57924 0.0287 0.70362 0.0
C693 C 0.59999 0.01931 0.77985 0.0
C694 C 0.57717 0.03842 0.74245 0.0
C695 C 0.57527 0.05121 0.7262 0.0
C696 C 0.57522 0.05451 0.67067 0.0
C697 C 0.57747 0.04479 0.63182 0.0
C698 C 0.57944 0.03199 0.64818 0.0
H699 H 0.60848 0.01361 0.7937 0.0
H700 H 0.6032 0.02624 0.74811 0.0
H701 H 0.59635 0.02489 0.81524 0.0
H702 H 0.57663 0.03607 0.78534 0.0
H703 H 0.57349 0.05844 0.7572 0.0
H704 H 0.7029 0.68037 0.81521 0.0
H705 H 0.72565 0.67842 0.84166 0.0
H706 H 0.71419 0.67119 0.00766 0.0
H707 H 0.6915 0.67288 0.98158 0.0
H708 H 0.73807 0.69402 0.91339 0.0
H709 H 0.74117 0.64332 0.98413 0.0
H710 H 0.72781 0.64923 0.94383 0.0
H711 H 0.72821 0.652 0.01614 0.0
C712 C 0.70522 0.67816 0.85718 0.0
C713 C 0.69539 0.6768 0.89628 0.0
C714 C 0.71822 0.67705 0.8722 0.0
C715 C 0.72161 0.67448 0.92647 0.0
C716 C 0.7118 0.67286 0.96532 0.0
H717 H 0.78989 0.69694 0.10054 0.0
H718 H 0.76824 0.69396 0.06264 0.0
C719 C 0.69882 0.67394 0.95036 0.0
C720 C 0.73535 0.67466 0.94364 0.0
H721 H 0.75819 0.65755 0.0136 0.0
C722 C 0.74252 0.68598 0.93471 0.0
C723 C 0.74119 0.66412 0.97091 0.0
C724 C 0.73424 0.65143 0.97884 0.0
C725 C 0.75521 0.68724 0.95416 0.0
C726 C 0.76077 0.67699 0.98424 0.0
C727 C 0.75381 0.66546 0.99126 0.0
C728 C 0.77371 0.67821 0.00944 0.0
C729 C 0.76254 0.69955 0.9424 0.0
C730 C 0.78383 0.67 0.99359 0.0
C731 C 0.79621 0.67162 0.01544 0.0
C732 C 0.79865 0.68145 0.05371 0.0
C733 C 0.78837 0.68935 0.07087 0.0
C734 C 0.776 0.68771 0.04904 0.0
H735 H 0.7584 0.70479 0.90697 0.0
H736 H 0.76194 0.70602 0.97832 0.0
H737 H 0.7729 0.69751 0.93418 0.0
H738 H 0.78222 0.66255 0.96335 0.0
H739 H 0.80392 0.66535 0.00147 0.0
H740 H 0.54704 0.54198 0.32019 0.0
H741 H 0.551 0.51985 0.2899 0.0
H742 H 0.58976 0.53036 0.24225 0.0
H743 H 0.586 0.55247 0.2741 0.0
H744 H 0.55644 0.51157 0.18937 0.0
H745 H 0.5964 0.49792 0.32895 0.0
H746 H 0.58675 0.51226 0.33891 0.0
H747 H 0.59958 0.51217 0.28948 0.0
C748 C 0.55646 0.53956 0.30378 0.0
C749 C 0.56622 0.54895 0.29973 0.0
C750 C 0.5587 0.52691 0.2864 0.0
C751 C 0.57072 0.5234 0.26437 0.0
C752 C 0.58051 0.53276 0.26028 0.0
H753 H 0.57728 0.45127 0.07779 0.0
H754 H 0.57798 0.47414 0.10349 0.0
C755 C 0.57833 0.5454 0.27826 0.0
C756 C 0.5727 0.51007 0.24379 0.0
H757 H 0.59111 0.48292 0.25957 0.0
C758 C 0.56404 0.5053 0.20464 0.0
C759 C 0.58257 0.5019 0.26406 0.0
C760 C 0.59179 0.50625 0.30803 0.0
C761 C 0.56481 0.49253 0.18583 0.0
C762 C 0.57477 0.4844 0.20554 0.0
C763 C 0.58356 0.48922 0.24412 0.0
C764 C 0.57562 0.47059 0.18975 0.0
C765 C 0.55461 0.48773 0.14674 0.0
C766 C 0.57468 0.461 0.2299 0.0
C767 C 0.57448 0.44795 0.21547 0.0
C768 C 0.57517 0.44423 0.16049 0.0
C769 C 0.57659 0.45383 0.12043 0.0
C770 C 0.57692 0.46691 0.13501 0.0
H771 H 0.54595 0.4941 0.14637 0.0
H772 H 0.55867 0.48756 0.10495 0.0
H773 H 0.55148 0.47777 0.15734 0.0
H774 H 0.57372 0.46362 0.27241 0.0
H775 H 0.57342 0.44081 0.24739 0.0
H776 H 0.78951 0.3078 0.34964 0.0
H777 H 0.7673 0.30951 0.38303 0.0
H778 H 0.78073 0.33065 0.52334 0.0
H779 H 0.80295 0.32915 0.49 0.0
H780 H 0.75843 0.29957 0.48064 0.0
H781 H 0.7502 0.35255 0.47083 0.0
H782 H 0.76332 0.34469 0.43534 0.0
H783 H 0.76457 0.34793 0.50701 0.0
C784 C 0.78773 0.31297 0.38724 0.0
C785 C 0.798 0.31834 0.41715 0.0
C786 C 0.77504 0.31392 0.40627 0.0
C787 C 0.77236 0.32032 0.45534 0.0
C788 C 0.78255 0.3259 0.48483 0.0
H789 H 0.70405 0.30871 0.65553 0.0
H790 H 0.72618 0.3105 0.62106 0.0
C791 C 0.79526 0.32496 0.46582 0.0
C792 C 0.75904 0.32036 0.47745 0.0
H793 H 0.73439 0.34012 0.51807 0.0
C794 C 0.75316 0.30843 0.48867 0.0
C795 C 0.75217 0.33195 0.48752 0.0
C796 C 0.75781 0.34501 0.47413 0.0
C797 C 0.74062 0.30776 0.51024 0.0
C798 C 0.73388 0.31933 0.52168 0.0
C799 C 0.73967 0.33128 0.50982 0.0
C800 C 0.72063 0.31916 0.5444 0.0
C801 C 0.73461 0.29465 0.51977 0.0
C802 C 0.71025 0.32384 0.5134 0.0
C803 C 0.69761 0.32287 0.53298 0.0
C804 C 0.69513 0.31726 0.5841 0.0
C805 C 0.70561 0.31301 0.61589 0.0
C806 C 0.71826 0.31398 0.5962 0.0
H807 H 0.73983 0.28688 0.49757 0.0
H808 H 0.73496 0.29237 0.56387 0.0
H809 H 0.72432 0.29458 0.50682 0.0
H810 H 0.71191 0.32793 0.4734 0.0
H811 H 0.68976 0.32629 0.50755 0.0
H812 H 0.94308 0.46067 0.90041 0.0
H813 H 0.94122 0.48274 0.86563 0.0
H814 H 0.91823 0.46896 0.73114 0.0
H815 H 0.91986 0.4469 0.76595 0.0
H816 H 0.94997 0.49131 0.76615 0.0
H817 H 0.89717 0.49973 0.78578 0.0
H818 H 0.90537 0.48666 0.82015 0.0
H819 H 0.90125 0.48525 0.74931 0.0
C820 C 0.93748 0.46235 0.86381 0.0
C821 C 0.93161 0.45202 0.83599 0.0
C822 C 0.93645 0.47496 0.84398 0.0
C823 C 0.92947 0.47751 0.79617 0.0
C824 C 0.92344 0.46726 0.76871 0.0
H825 H 0.93952 0.54481 0.58876 0.0
H826 H 0.93817 0.52288 0.62571 0.0
C827 C 0.92444 0.45464 0.78855 0.0
C828 C 0.92921 0.49074 0.77319 0.0
H829 H 0.90904 0.51517 0.73399 0.0
C830 C 0.94102 0.49656 0.75931 0.0
C831 C 0.91754 0.49758 0.76474 0.0
C832 C 0.90461 0.49206 0.78122 0.0
C833 C 0.94148 0.50898 0.73655 0.0
C834 C 0.92978 0.51566 0.72649 0.0
C835 C 0.91797 0.50994 0.74112 0.0
C836 C 0.92969 0.52877 0.7023 0.0
C837 C 0.95449 0.51493 0.72435 0.0
C838 C 0.92491 0.53926 0.73232 0.0
C839 C 0.92558 0.55178 0.71122 0.0
C840 C 0.93102 0.55403 0.65958 0.0
C841 C 0.93537 0.54342 0.62879 0.0
C842 C 0.93466 0.5309 0.64993 0.0
H843 H 0.96243 0.50996 0.74653 0.0
H844 H 0.95648 0.51411 0.68011 0.0
H845 H 0.95463 0.52534 0.7354 0.0
H846 H 0.92097 0.5378 0.77272 0.0
H847 H 0.92211 0.55973 0.73594 0.0
H848 H 0.20856 0.30488 0.86215 0.0
H849 H 0.2303 0.30748 0.89984 0.0
H850 H 0.21499 0.33125 0.02878 0.0
H851 H 0.19321 0.32883 0.99118 0.0
H852 H 0.23817 0.34083 0.98211 0.0
H853 H 0.24209 0.28912 0.0404 0.0
H854 H 0.23813 0.29175 0.97009 0.0
H855 H 0.22691 0.29657 0.02217 0.0
C856 C 0.20981 0.31073 0.89832 0.0
C857 C 0.19914 0.31656 0.92389 0.0
C858 C 0.22223 0.31215 0.91993 0.0
C859 C 0.22419 0.31936 0.96759 0.0
C860 C 0.21365 0.32558 0.99213 0.0
H861 H 0.29356 0.31368 0.16718 0.0
H862 H 0.27109 0.31477 0.13619 0.0
C863 C 0.20122 0.32417 0.97057 0.0
C864 C 0.2372 0.32018 0.99249 0.0
H865 H 0.26118 0.30174 0.04792 0.0
C866 C 0.2432 0.33231 0.99674 0.0
C867 C 0.24361 0.30907 0.01241 0.0
C868 C 0.23733 0.2959 0.01161 0.0
C869 C 0.25565 0.33357 0.01906 0.0
C870 C 0.26227 0.32237 0.03686 0.0
C871 C 0.25611 0.3103 0.03392 0.0
C872 C 0.27574 0.32283 0.05733 0.0
C873 C 0.26154 0.34686 0.02377 0.0
C874 C 0.28578 0.32706 0.02333 0.0
C875 C 0.29861 0.32647 0.04091 0.0
C876 C 0.30166 0.32154 0.09272 0.0
C877 C 0.29155 0.31754 0.12709 0.0
C878 C 0.27871 0.31814 0.10945 0.0
H879 H 0.25402 0.35454 0.02328 0.0
H880 H 0.2673 0.3478 0.06171 0.0
H881 H 0.26808 0.34853 0.98866 0.0
H882 H 0.28373 0.33046 0.98253 0.0
H883 H 0.30617 0.32958 0.0133 0.0
H884 H 0.42872 0.45842 0.59966 0.0
H885 H 0.42629 0.48029 0.63666 0.0
H886 H 0.41929 0.46441 0.79614 0.0
H887 H 0.42167 0.44254 0.75979 0.0
H888 H 0.40412 0.49144 0.70347 0.0
H889 H 0.4518 0.48931 0.80872 0.0
H890 H 0.44773 0.47873 0.75279 0.0
H891 H 0.44096 0.47591 0.81896 0.0
C892 C 0.42656 0.45957 0.64252 0.0
C893 C 0.42548 0.44874 0.67684 0.0
C894 C 0.42515 0.47206 0.6635 0.0
C895 C 0.42273 0.4739 0.71911 0.0
C896 C 0.42126 0.46314 0.75316 0.0
H897 H 0.42581 0.54327 0.91928 0.0
H898 H 0.4232 0.52099 0.88752 0.0
C899 C 0.4226 0.45066 0.73224 0.0
C900 C 0.4223 0.4871 0.74202 0.0
H901 H 0.43938 0.50813 0.82113 0.0
C902 C 0.4118 0.49512 0.72927 0.0
C903 C 0.4323 0.49177 0.77588 0.0
C904 C 0.44391 0.48356 0.78982 0.0
C905 C 0.41101 0.50777 0.74984 0.0
C906 C 0.42117 0.51256 0.78282 0.0
C907 C 0.43159 0.50444 0.79598 0.0
C908 C 0.42153 0.52612 0.80241 0.0
C909 C 0.39922 0.51579 0.73669 0.0
C910 C 0.42142 0.5364 0.76514 0.0
C911 C 0.42282 0.54912 0.78317 0.0
C912 C 0.42456 0.55181 0.83882 0.0
C913 C 0.4245 0.54152 0.87617 0.0
C914 C 0.42301 0.52879 0.8581 0.0
H915 H 0.39077 0.50959 0.72671 0.0
H916 H 0.39659 0.52221 0.77115 0.0
H917 H 0.40129 0.5219 0.70062 0.0
H918 H 0.42064 0.53456 0.72188 0.0
H919 H 0.42291 0.55681 0.75326 0.0
H920 H 0.29503 0.68803 0.34253 0.0
H921 H 0.27275 0.6867 0.37579 0.0
H922 H 0.28642 0.67129 0.52837 0.0
H923 H 0.30869 0.67242 0.4954 0.0
H924 H 0.26416 0.65874 0.48775 0.0
H925 H 0.25876 0.71219 0.4904 0.0
H926 H 0.26357 0.70555 0.42593 0.0
H927 H 0.27426 0.70433 0.48338 0.0
C928 C 0.2933 0.68425 0.38298 0.0
C929 C 0.30364 0.68045 0.4165 0.0
C930 C 0.28057 0.68355 0.40199 0.0
C931 C 0.27799 0.67912 0.45485 0.0
C932 C 0.28824 0.67481 0.48754 0.0
H933 H 0.20871 0.69411 0.64298 0.0
H934 H 0.23099 0.69191 0.61081 0.0
C935 C 0.30095 0.67548 0.46861 0.0
C936 C 0.26468 0.67939 0.47694 0.0
H937 H 0.24007 0.69988 0.51048 0.0
C938 C 0.25887 0.66772 0.49276 0.0
C939 C 0.25793 0.69115 0.48425 0.0
C940 C 0.26396 0.70404 0.47061 0.0
C941 C 0.24635 0.66748 0.51499 0.0
C942 C 0.23947 0.67922 0.52083 0.0
C943 C 0.24536 0.69089 0.50566 0.0
C944 C 0.2261 0.67967 0.54241 0.0
C945 C 0.24071 0.65472 0.53286 0.0
C946 C 0.21599 0.67348 0.51469 0.0
C947 C 0.20326 0.67469 0.53301 0.0
C948 C 0.2004 0.68221 0.57919 0.0
C949 C 0.21058 0.68824 0.60734 0.0
C950 C 0.22332 0.68701 0.589 0.0
H951 H 0.24834 0.6473 0.53915 0.0
H952 H 0.23513 0.65582 0.5712 0.0
H953 H 0.23403 0.65112 0.50092 0.0
H954 H 0.2179 0.66799 0.47803 0.0
H955 H 0.19563 0.66997 0.5102 0.0
H956 H 0.07602 0.4417 0.25774 0.0
H957 H 0.07766 0.46384 0.22379 0.0
H958 H 0.05726 0.47771 0.36533 0.0
H959 H 0.05536 0.45557 0.3992 0.0
H960 H 0.04714 0.48697 0.2706 0.0
H961 H 0.10034 0.49382 0.27232 0.0
H962 H 0.09524 0.47966 0.23591 0.0
H963 H 0.09248 0.48074 0.30804 0.0
C964 C 0.07202 0.44947 0.28204 0.0
C965 C 0.06555 0.44687 0.33121 0.0
C966 C 0.07304 0.46214 0.26268 0.0
C967 C 0.06773 0.47244 0.29238 0.0
C968 C 0.06147 0.4699 0.34191 0.0
H969 H 0.07677 0.55456 0.2317 0.0
H970 H 0.07791 0.53254 0.26753 0.0
C971 C 0.0604 0.45724 0.36121 0.0
C972 C 0.06794 0.48575 0.2701 0.0
H973 H 0.08798 0.50969 0.22484 0.0
C974 C 0.05607 0.49196 0.26083 0.0
C975 C 0.0796 0.49228 0.25786 0.0
C976 C 0.09265 0.48635 0.2695 0.0
C977 C 0.05554 0.50447 0.23895 0.0
C978 C 0.06718 0.51083 0.22491 0.0
C979 C 0.07907 0.50471 0.23498 0.0
C980 C 0.06719 0.52398 0.20107 0.0
C981 C 0.04251 0.51085 0.23198 0.0
C982 C 0.06107 0.52639 0.15111 0.0
C983 C 0.06035 0.53897 0.13058 0.0
C984 C 0.06583 0.54934 0.15948 0.0
C985 C 0.0724 0.5468 0.20848 0.0
C986 C 0.07308 0.53423 0.22904 0.0
H987 H 0.03496 0.50613 0.2573 0.0
H988 H 0.04295 0.52125 0.24295 0.0
H989 H 0.03948 0.5101 0.18877 0.0
H990 H 0.0567 0.51856 0.12834 0.0
H991 H 0.05531 0.54058 0.09252 0.0
H992 H 0.08889 0.0843 0.01503 0.0
H993 H 0.10206 0.09525 0.08352 0.0
H994 H 0.10711 0.12766 0.97523 0.0
H995 H 0.09382 0.11683 0.90641 0.0
H996 H 0.12772 0.10471 0.0788 0.0
H997 H 0.09185 0.14378 0.11508 0.0
H998 H 0.08788 0.12911 0.07896 0.0
H999 H 0.09665 0.1418 0.04529 0.0
C1000 C 0.09284 0.09374 0.00557 0.0
C1001 C 0.09022 0.09974 0.9554 0.0
C1002 C 0.10038 0.09996 0.04478 0.0
C1003 C 0.10537 0.11233 0.03472 0.0
C1004 C 0.10314 0.1182 0.98407 0.0
H1005 H 0.1631 0.15487 0.21518 0.0
H1006 H 0.15122 0.14183 0.14919 0.0
C1007 C 0.09561 0.11197 0.94472 0.0
C1008 C 0.11272 0.11914 0.07775 0.0
H1009 H 0.11209 0.14582 0.15947 0.0
C1010 C 0.12432 0.11369 0.09653 0.0
C1011 C 0.10811 0.13073 0.10137 0.0
C1012 C 0.09539 0.13667 0.08461 0.0
C1013 C 0.13159 0.11968 0.13769 0.0
C1014 C 0.12719 0.13148 0.16008 0.0
C1015 C 0.11547 0.1368 0.14199 0.0
C1016 C 0.13471 0.13865 0.20155 0.0
C1017 C 0.14384 0.11325 0.15731 0.0
C1018 C 0.1293 0.14128 0.25278 0.0
C1019 C 0.13606 0.14878 0.29065 0.0
C1020 C 0.14828 0.15389 0.27766 0.0
C1021 C 0.15373 0.15106 0.22657 0.0
C1022 C 0.14699 0.14354 0.18885 0.0
H1023 H 0.14403 0.1028 0.14684 0.0
H1024 H 0.15228 0.11793 0.13755 0.0
H1025 H 0.14493 0.1143 0.20205 0.0
H1026 H 0.1198 0.13763 0.2632 0.0
H1027 H 0.13158 0.15081 0.32957 0.0
H1028 H 0.12867 0.8335 0.20046 0.0
H1029 H 0.1204 0.84497 0.28005 0.0
H1030 H 0.14982 0.87414 0.26059 0.0
H1031 H 0.15819 0.86276 0.18059 0.0
H1032 H 0.13583 0.85058 0.37596 0.0
H1033 H 0.11535 0.89471 0.27896 0.0
H1034 H 0.11848 0.88007 0.24113 0.0
H1035 H 0.13164 0.8904 0.26054 0.0
C1036 C 0.1333 0.84245 0.21255 0.0
C1037 C 0.14412 0.84721 0.18414 0.0
C1038 C 0.12857 0.84896 0.25816 0.0
C1039 C 0.13448 0.8604 0.276 0.0
C1040 C 0.14505 0.86539 0.24704 0.0
H1041 H 0.11277 0.91052 0.54724 0.0
H1042 H 0.12477 0.90063 0.47221 0.0
C1043 C 0.14983 0.85886 0.2014 0.0
C1044 C 0.12989 0.8667 0.32649 0.0
H1045 H 0.1144 0.89348 0.37459 0.0
C1046 C 0.13118 0.85998 0.3758 0.0
C1047 C 0.12396 0.879 0.32603 0.0
C1048 C 0.12216 0.88649 0.27389 0.0
C1049 C 0.12657 0.86519 0.42481 0.0
C1050 C 0.12024 0.87732 0.42416 0.0
C1051 C 0.11925 0.88418 0.37499 0.0
C1052 C 0.11392 0.88275 0.47326 0.0
C1053 C 0.12858 0.8577 0.47679 0.0
C1054 C 0.10395 0.87591 0.49916 0.0
C1055 C 0.09712 0.88149 0.54221 0.0
C1056 C 0.10003 0.8941 0.55977 0.0
C1057 C 0.11028 0.90079 0.53477 0.0
C1058 C 0.11713 0.89517 0.49178 0.0
H1059 H 0.13696 0.85101 0.47347 0.0
H1060 H 0.1302 0.86426 0.51189 0.0
H1061 H 0.11986 0.85178 0.48518 0.0
H1062 H 0.10111 0.86643 0.48481 0.0
H1063 H 0.08924 0.87609 0.5603 0.0
H1064 H 0.41335 0.87814 0.44165 0.0
H1065 H 0.40144 0.86922 0.51891 0.0
H1066 H 0.37199 0.89833 0.49892 0.0
H1067 H 0.38382 0.90738 0.42145 0.0
H1068 H 0.39493 0.88458 0.6155 0.0
H1069 H 0.35193 0.86324 0.51288 0.0
H1070 H 0.36685 0.86653 0.47714 0.0
H1071 H 0.35615 0.87954 0.4945 0.0
C1072 C 0.40424 0.88255 0.45305 0.0
C1073 C 0.39955 0.8935 0.42539 0.0
C1074 C 0.39748 0.87745 0.49733 0.0
C1075 C 0.38584 0.8831 0.51439 0.0
C1076 C 0.3809 0.89376 0.48594 0.0
H1077 H 0.33343 0.86266 0.7787 0.0
H1078 H 0.34401 0.8737 0.7027 0.0
C1079 C 0.38769 0.89892 0.44176 0.0
C1080 C 0.37931 0.87828 0.56396 0.0
H1081 H 0.35228 0.86267 0.60881 0.0
C1082 C 0.3856 0.87978 0.61417 0.0
C1083 C 0.36711 0.87217 0.56194 0.0
C1084 C 0.36009 0.87016 0.50878 0.0
C1085 C 0.37999 0.87532 0.66265 0.0
C1086 C 0.36791 0.86891 0.66057 0.0
C1087 C 0.36154 0.86759 0.61035 0.0
C1088 C 0.36193 0.86302 0.70953 0.0
C1089 C 0.38697 0.8777 0.71564 0.0
C1090 C 0.36854 0.85343 0.73891 0.0
C1091 C 0.36257 0.84719 0.78262 0.0
C1092 C 0.34979 0.85028 0.79733 0.0
C1093 C 0.34328 0.86006 0.76848 0.0
C1094 C 0.3493 0.86636 0.72494 0.0
H1095 H 0.39366 0.88608 0.71255 0.0
H1096 H 0.38006 0.87951 0.74938 0.0
H1097 H 0.39284 0.86906 0.72602 0.0
H1098 H 0.37818 0.85048 0.727 0.0
H1099 H 0.36783 0.83964 0.80364 0.0
H1100 H 0.33954 0.13469 0.68602 0.0
H1101 H 0.34818 0.12264 0.76372 0.0
H1102 H 0.37834 0.15108 0.78295 0.0
H1103 H 0.36996 0.16304 0.70496 0.0
H1104 H 0.3872 0.12602 0.79349 0.0
H1105 H 0.34362 0.13413 0.92165 0.0
H1106 H 0.34059 0.12647 0.8573 0.0
H1107 H 0.34642 0.14283 0.8591 0.0
C1108 C 0.34809 0.13832 0.70645 0.0
C1109 C 0.354 0.14989 0.68952 0.0
C1110 C 0.35294 0.13147 0.75112 0.0
C1111 C 0.36372 0.13613 0.77981 0.0
C1112 C 0.36994 0.14738 0.76163 0.0
H1113 H 0.40792 0.11903 0.06748 0.0
H1114 H 0.39747 0.1287 0.98813 0.0
C1115 C 0.36514 0.1542 0.71697 0.0
C1116 C 0.3685 0.12946 0.82925 0.0
H1117 H 0.36029 0.12133 0.95959 0.0
C1118 C 0.38131 0.12497 0.82975 0.0
C1119 C 0.36078 0.12811 0.87652 0.0
C1120 C 0.34712 0.13323 0.87907 0.0
C1121 C 0.38663 0.11921 0.87631 0.0
C1122 C 0.37898 0.11805 0.92376 0.0
C1123 C 0.3661 0.12228 0.92306 0.0
C1124 C 0.38437 0.11271 0.97476 0.0
C1125 C 0.40039 0.11436 0.87444 0.0
C1126 C 0.38008 0.10076 0.99469 0.0
C1127 C 0.38602 0.09518 0.04014 0.0
C1128 C 0.3963 0.10154 0.06652 0.0
C1129 C 0.40009 0.11384 0.04802 0.0
C1130 C 0.39417 0.11936 0.00252 0.0
H1131 H 0.40395 0.11334 0.832 0.0
H1132 H 0.40676 0.12133 0.89589 0.0
H1133 H 0.40125 0.10487 0.89528 0.0
H1134 H 0.37245 0.09554 0.97393 0.0
H1135 H 0.38284 0.08572 0.05345 0.0
H1136 H 0.91099 0.87688 0.05013 0.0
H1137 H 0.89917 0.86729 0.97404 0.0
H1138 H 0.876 0.90178 0.95978 0.0
H1139 H 0.88777 0.91151 0.03601 0.0
H1140 H 0.86221 0.87656 0.95255 0.0
H1141 H 0.90451 0.88099 0.81422 0.0
H1142 H 0.90769 0.87344 0.87876 0.0
H1143 H 0.90308 0.89017 0.87648 0.0
C1144 C 0.90329 0.8824 0.03129 0.0
C1145 C 0.9004 0.89502 0.04886 0.0
C1146 C 0.89659 0.87692 0.98766 0.0
C1147 C 0.88688 0.88393 0.9609 0.0
C1148 C 0.88354 0.89627 0.97981 0.0
H1149 H 0.83745 0.86235 0.68509 0.0
H1150 H 0.84741 0.87428 0.76032 0.0
C1151 C 0.89028 0.9018 0.02334 0.0
C1152 C 0.88055 0.87849 0.91206 0.0
H1153 H 0.88659 0.86902 0.78151 0.0
C1154 C 0.86747 0.87498 0.91494 0.0
C1155 C 0.88748 0.87652 0.86321 0.0
C1156 C 0.90145 0.88056 0.85752 0.0
C1157 C 0.86124 0.86907 0.87064 0.0
C1158 C 0.86824 0.86691 0.82194 0.0
C1159 C 0.88126 0.87069 0.81886 0.0
C1160 C 0.86247 0.86014 0.77466 0.0
C1161 C 0.84738 0.86475 0.87705 0.0
C1162 C 0.86794 0.84851 0.75641 0.0
C1163 C 0.86238 0.84177 0.71313 0.0
C1164 C 0.85123 0.84652 0.68715 0.0
C1165 C 0.84599 0.85838 0.70443 0.0
C1166 C 0.8516 0.86516 0.74769 0.0
H1167 H 0.84442 0.86435 0.92049 0.0
H1168 H 0.84093 0.87171 0.85595 0.0
H1169 H 0.84587 0.85507 0.8586 0.0
H1170 H 0.87637 0.84451 0.77643 0.0
H1171 H 0.86669 0.83268 0.70085 0.0
H1172 H 0.8377 0.15721 0.73264 0.0
H1173 H 0.8489 0.14339 0.66735 0.0
H1174 H 0.88098 0.13954 0.77837 0.0
H1175 H 0.86989 0.15351 0.84397 0.0
H1176 H 0.88818 0.14681 0.67322 0.0
H1177 H 0.85547 0.1043 0.66873 0.0
H1178 H 0.8474 0.11947 0.65833 0.0
H1179 H 0.85505 0.11618 0.72256 0.0
C1180 C 0.84707 0.15331 0.74356 0.0
C1181 C 0.85291 0.15647 0.79352 0.0
C1182 C 0.85342 0.14534 0.70626 0.0
C1183 C 0.86569 0.14033 0.71829 0.0
C1184 C 0.87147 0.14328 0.76848 0.0
H1185 H 0.90959 0.08436 0.53117 0.0
H1186 H 0.89702 0.09571 0.60052 0.0
C1187 C 0.86511 0.15123 0.80591 0.0
C1188 C 0.87284 0.13275 0.67695 0.0
H1189 H 0.87133 0.10554 0.59847 0.0
C1190 C 0.88454 0.13775 0.65707 0.0
C1191 C 0.8681 0.1209 0.65628 0.0
C1192 C 0.85588 0.11481 0.67787 0.0
C1193 C 0.89153 0.13133 0.61628 0.0
C1194 C 0.88657 0.1197 0.5943 0.0
C1195 C 0.87501 0.11455 0.61495 0.0
C1196 C 0.89346 0.11259 0.55084 0.0
C1197 C 0.90423 0.13695 0.5975 0.0
C1198 C 0.89535 0.11822 0.49946 0.0
C1199 C 0.90253 0.11176 0.45964 0.0
C1200 C 0.90792 0.09955 0.47057 0.0
C1201 C 0.90563 0.09377 0.5215 0.0
C1202 C 0.89843 0.10023 0.56119 0.0
H1203 H 0.9081 0.14414 0.6269 0.0
H1204 H 0.91156 0.12923 0.59161 0.0
H1205 H 0.90279 0.14191 0.5579 0.0
H1206 H 0.89139 0.12767 0.49042 0.0
H1207 H 0.90406 0.11644 0.42076 0.0
H1208 H 0.58246 0.12081 0.55577 0.0
H1209 H 0.59514 0.1301 0.48182 0.0
H1210 H 0.62748 0.10585 0.52511 0.0
H1211 H 0.61473 0.09623 0.59875 0.0
H1212 H 0.61804 0.14327 0.48134 0.0
H1213 H 0.62255 0.09745 0.36463 0.0
H1214 H 0.61157 0.09922 0.42123 0.0
H1215 H 0.62854 0.09671 0.43315 0.0
C1216 C 0.59229 0.11747 0.54986 0.0
C1217 C 0.59755 0.10768 0.58291 0.0
C1218 C 0.59952 0.1228 0.5075 0.0
C1219 C 0.61215 0.11848 0.49727 0.0
C1220 C 0.61763 0.10909 0.53147 0.0
H1221 H 0.66743 0.14666 0.25671 0.0
H1222 H 0.65727 0.13544 0.3334 0.0
C1223 C 0.61037 0.10368 0.57381 0.0
C1224 C 0.61944 0.12383 0.45047 0.0
H1225 H 0.63334 0.11575 0.32889 0.0
C1226 C 0.62141 0.13725 0.4481 0.0
C1227 C 0.62378 0.11594 0.40702 0.0
C1228 C 0.62142 0.10154 0.40616 0.0
C1229 C 0.62756 0.14299 0.40337 0.0
C1230 C 0.63179 0.13512 0.35993 0.0
C1231 C 0.63005 0.12171 0.3625 0.0
C1232 C 0.63778 0.14082 0.31099 0.0
C1233 C 0.62947 0.15745 0.40249 0.0
C1234 C 0.6301 0.14723 0.2725 0.0
C1235 C 0.63584 0.15358 0.22849 0.0
C1236 C 0.64937 0.15367 0.22256 0.0
C1237 C 0.65699 0.14681 0.26024 0.0
C1238 C 0.65122 0.1404 0.30403 0.0
H1239 H 0.62723 0.16197 0.4424 0.0
H1240 H 0.63961 0.15982 0.39128 0.0
H1241 H 0.62305 0.16177 0.3712 0.0
H1242 H 0.61969 0.14759 0.2773 0.0
H1243 H 0.62969 0.15877 0.20024 0.0
H1244 H 0.59008 0.88141 0.93669 0.0
H1245 H 0.60101 0.87122 0.0138 0.0
H1246 H 0.62378 0.90564 0.03825 0.0
H1247 H 0.61288 0.916 0.96116 0.0
H1248 H 0.6374 0.8797 0.04398 0.0
H1249 H 0.59375 0.88445 0.17481 0.0
H1250 H 0.59123 0.87761 0.10832 0.0
H1251 H 0.59621 0.89416 0.11459 0.0
C1252 C 0.59752 0.88678 0.95794 0.0
C1253 C 0.60053 0.89957 0.94303 0.0
C1254 C 0.60371 0.88096 0.00212 0.0
C1255 C 0.61303 0.88777 0.03199 0.0
C1256 C 0.61653 0.90028 0.01575 0.0
H1257 H 0.65953 0.86405 0.31326 0.0
H1258 H 0.65038 0.87649 0.2377 0.0
C1259 C 0.6103 0.90616 0.97171 0.0
C1260 C 0.61874 0.88198 0.08144 0.0
H1261 H 0.61119 0.87228 0.21028 0.0
C1262 C 0.63174 0.87814 0.08056 0.0
C1263 C 0.61128 0.88001 0.12888 0.0
C1264 C 0.59736 0.88434 0.13222 0.0
C1265 C 0.63738 0.87193 0.12553 0.0
C1266 C 0.62987 0.86983 0.17292 0.0
C1267 C 0.61692 0.87391 0.17397 0.0
C1268 C 0.63503 0.86283 0.22086 0.0
C1269 C 0.65117 0.86726 0.12112 0.0
C1270 C 0.6291 0.85133 0.23798 0.0
C1271 C 0.63418 0.8443 0.28151 0.0
C1272 C 0.64532 0.84863 0.30882 0.0
C1273 C 0.65099 0.8604 0.29283 0.0
C1274 C 0.64585 0.86747 0.24938 0.0
H1275 H 0.65448 0.8668 0.07814 0.0
H1276 H 0.65761 0.87405 0.14322 0.0
H1277 H 0.65227 0.85753 0.13964 0.0
H1278 H 0.62069 0.84762 0.21678 0.0
H1279 H 0.62955 0.8353 0.29279 0.0
H1280 H 0.58949 0.61794 0.43281 0.0
H1281 H 0.60075 0.62832 0.50879 0.0
H1282 H 0.61958 0.59229 0.54741 0.0
H1283 H 0.60831 0.58176 0.47178 0.0
H1284 H 0.59838 0.61661 0.62472 0.0
H1285 H 0.64849 0.62248 0.54489 0.0
H1286 H 0.63458 0.62199 0.50037 0.0
H1287 H 0.64013 0.60747 0.53253 0.0
C1288 C 0.5962 0.61226 0.45679 0.0
C1289 C 0.59797 0.59901 0.44639 0.0
C1290 C 0.60258 0.6182 0.50025 0.0
C1291 C 0.61097 0.61105 0.53344 0.0
C1292 C 0.61319 0.59797 0.52191 0.0
H1293 H 0.65666 0.63454 0.8153 0.0
H1294 H 0.64692 0.62201 0.7413 0.0
C1295 C 0.60672 0.59198 0.47875 0.0
C1296 C 0.61662 0.61702 0.58258 0.0
H1297 H 0.64465 0.62908 0.63522 0.0
C1298 C 0.60849 0.61934 0.62719 0.0
C1299 C 0.62983 0.62036 0.58563 0.0
C1300 C 0.63884 0.61803 0.53838 0.0
C1301 C 0.61325 0.62502 0.67502 0.0
C1302 C 0.6264 0.62878 0.67759 0.0
C1303 C 0.63457 0.62621 0.63317 0.0
C1304 C 0.63174 0.63589 0.72493 0.0
C1305 C 0.60417 0.62676 0.72255 0.0
C1306 C 0.62641 0.6478 0.74043 0.0
C1307 C 0.63186 0.65491 0.78291 0.0
C1308 C 0.6429 0.65034 0.81028 0.0
C1309 C 0.64814 0.63832 0.79516 0.0
C1310 C 0.64262 0.63117 0.75279 0.0
H1311 H 0.596 0.61979 0.7208 0.0
H1312 H 0.60928 0.62551 0.76193 0.0
H1313 H 0.60002 0.63665 0.72127 0.0
H1314 H 0.61821 0.65179 0.71869 0.0
H1315 H 0.62764 0.66418 0.79314 0.0
H1316 H 0.58878 0.37588 0.06209 0.0
H1317 H 0.60001 0.36701 0.98307 0.0
H1318 H 0.62754 0.39828 0.9892 0.0
H1319 H 0.61634 0.40732 0.06845 0.0
H1320 H 0.60377 0.38276 0.88235 0.0
H1321 H 0.64939 0.36379 0.9731 0.0
H1322 H 0.63486 0.36603 0.01289 0.0
H1323 H 0.64421 0.37978 0.99232 0.0
C1324 C 0.59735 0.38079 0.04733 0.0
C1325 C 0.60163 0.39235 0.0715 0.0
C1326 C 0.60372 0.37571 0.00206 0.0
C1327 C 0.61457 0.382 0.98048 0.0
C1328 C 0.61922 0.39325 0.00565 0.0
H1329 H 0.66202 0.35894 0.70248 0.0
H1330 H 0.65302 0.37121 0.77877 0.0
C1331 C 0.6128 0.39839 0.05088 0.0
C1332 C 0.62043 0.37721 0.92946 0.0
H1333 H 0.64683 0.36162 0.87834 0.0
C1334 C 0.61321 0.37818 0.8813 0.0
C1335 C 0.63278 0.37141 0.92836 0.0
C1336 C 0.6408 0.37008 0.97934 0.0
C1337 C 0.61797 0.37333 0.8319 0.0
C1338 C 0.63013 0.36705 0.83108 0.0
C1339 C 0.6375 0.36641 0.87907 0.0
C1340 C 0.63507 0.36046 0.78172 0.0
C1341 C 0.60996 0.37505 0.78109 0.0
C1342 C 0.62792 0.35043 0.75774 0.0
C1343 C 0.63298 0.34347 0.71394 0.0
C1344 C 0.64539 0.34629 0.69371 0.0
C1345 C 0.65242 0.35653 0.71703 0.0
C1346 C 0.64732 0.36353 0.76072 0.0
H1347 H 0.60334 0.38348 0.78469 0.0
H1348 H 0.61616 0.37641 0.74466 0.0
H1349 H 0.60391 0.36631 0.77478 0.0
H1350 H 0.61859 0.34768 0.77403 0.0
H1351 H 0.62734 0.33559 0.69724 0.0
H1352 H 0.83285 0.3467 0.23596 0.0
H1353 H 0.84444 0.35995 0.16959 0.0
H1354 H 0.87874 0.35834 0.26921 0.0
H1355 H 0.86727 0.34497 0.33576 0.0
H1356 H 0.85776 0.38402 0.1803 0.0
H1357 H 0.89021 0.34366 0.1199 0.0
H1358 H 0.8756 0.34116 0.15879 0.0
H1359 H 0.88995 0.34714 0.19154 0.0
C1360 C 0.84283 0.34922 0.24402 0.0
C1361 C 0.84918 0.34466 0.29089 0.0
C1362 C 0.84942 0.35682 0.20607 0.0
C1363 C 0.86248 0.35993 0.21415 0.0
C1364 C 0.86871 0.35584 0.26187 0.0
H1365 H 0.91076 0.4143 0.04075 0.0
H1366 H 0.89689 0.40327 0.10638 0.0
C1367 C 0.86213 0.34826 0.29994 0.0
C1368 C 0.86968 0.36707 0.17171 0.0
H1369 H 0.89474 0.36422 0.08219 0.0
C1370 C 0.86584 0.37972 0.15873 0.0
C1371 C 0.88005 0.36132 0.1431 0.0
C1372 C 0.88416 0.34753 0.15354 0.0
C1373 C 0.87231 0.38687 0.11851 0.0
C1374 C 0.88295 0.38125 0.09114 0.0
C1375 C 0.88662 0.36852 0.10346 0.0
C1376 C 0.89061 0.38844 0.0502 0.0
C1377 C 0.8676 0.40031 0.1052 0.0
C1378 C 0.89179 0.38367 0.99694 0.0
C1379 C 0.89978 0.38991 0.95932 0.0
C1380 C 0.90682 0.40097 0.9745 0.0
C1381 C 0.90544 0.40583 0.02765 0.0
C1382 C 0.89745 0.39959 0.06519 0.0
H1383 H 0.85745 0.40181 0.11857 0.0
H1384 H 0.87375 0.40748 0.12662 0.0
H1385 H 0.86824 0.40224 0.06082 0.0
H1386 H 0.88663 0.37503 0.98471 0.0
H1387 H 0.90064 0.38591 0.91874 0.0
H1388 H 0.86758 0.65545 0.1627 0.0
H1389 H 0.87787 0.64295 0.23524 0.0
H1390 H 0.84092 0.63825 0.31425 0.0
H1391 H 0.8306 0.65095 0.24259 0.0
H1392 H 0.85929 0.6467 0.384 0.0
H1393 H 0.87776 0.60458 0.26842 0.0
H1394 H 0.88288 0.61975 0.24037 0.0
H1395 H 0.86597 0.61564 0.24065 0.0
C1396 C 0.86161 0.65159 0.19506 0.0
C1397 C 0.84827 0.65421 0.19692 0.0
C1398 C 0.8675 0.64439 0.23638 0.0
C1399 C 0.86014 0.63954 0.27986 0.0
C1400 C 0.84677 0.64187 0.28103 0.0
H1401 H 0.8912 0.58657 0.52317 0.0
H1402 H 0.87788 0.5967 0.45285 0.0
C1403 C 0.84089 0.64912 0.23996 0.0
C1404 C 0.86647 0.63282 0.32601 0.0
H1405 H 0.88623 0.60751 0.35809 0.0
C1406 C 0.86509 0.63806 0.37842 0.0
C1407 C 0.8739 0.62146 0.3188 0.0
C1408 C 0.87512 0.61494 0.26411 0.0
C1409 C 0.87121 0.63245 0.42359 0.0
C1410 C 0.87914 0.62147 0.41594 0.0
C1411 C 0.88024 0.61601 0.3638 0.0
C1412 C 0.8866 0.61561 0.46118 0.0
C1413 C 0.86902 0.6383 0.47911 0.0
C1414 C 0.89588 0.6229 0.48942 0.0
C1415 C 0.90345 0.61717 0.52989 0.0
C1416 C 0.90199 0.60398 0.54241 0.0
C1417 C 0.89256 0.59675 0.51456 0.0
C1418 C 0.88496 0.60251 0.47427 0.0
H1419 H 0.8599 0.64396 0.48053 0.0
H1420 H 0.86865 0.63072 0.51109 0.0
H1421 H 0.87711 0.64497 0.48873 0.0
H1422 H 0.89751 0.63295 0.47919 0.0
H1423 H 0.91069 0.623 0.55024 0.0
H1424 H 0.41207 0.38083 0.55665 0.0
H1425 H 0.40027 0.3716 0.47995 0.0
H1426 H 0.3733 0.40339 0.48484 0.0
H1427 H 0.38525 0.4129 0.56096 0.0
H1428 H 0.37524 0.36365 0.46778 0.0
H1429 H 0.38583 0.40459 0.32818 0.0
H1430 H 0.39387 0.40267 0.39286 0.0
H1431 H 0.37772 0.40909 0.38995 0.0
C1432 C 0.40358 0.38584 0.54175 0.0
C1433 C 0.39968 0.39768 0.5646 0.0
C1434 C 0.39685 0.38054 0.49783 0.0
C1435 C 0.38608 0.38695 0.47592 0.0
C1436 C 0.38179 0.39846 0.50022 0.0
H1437 H 0.33597 0.3636 0.20684 0.0
H1438 H 0.34543 0.37509 0.28449 0.0
C1439 C 0.38857 0.40382 0.54402 0.0
C1440 C 0.37954 0.3816 0.42719 0.0
H1441 H 0.37244 0.38792 0.29391 0.0
C1442 C 0.37461 0.36897 0.42983 0.0
C1443 C 0.37876 0.38856 0.37763 0.0
C1444 C 0.38442 0.40193 0.37159 0.0
C1445 C 0.36896 0.3631 0.38422 0.0
C1446 C 0.3683 0.37001 0.33471 0.0
C1447 C 0.37298 0.3827 0.33213 0.0
C1448 C 0.36312 0.36395 0.28483 0.0
C1449 C 0.36374 0.34952 0.38907 0.0
C1450 C 0.37015 0.3542 0.25856 0.0
C1451 C 0.36485 0.34768 0.21408 0.0
C1452 C 0.35237 0.35077 0.19531 0.0
C1453 C 0.34558 0.36095 0.2204 0.0
C1454 C 0.35094 0.36752 0.26474 0.0
H1455 H 0.36288 0.34639 0.43217 0.0
H1456 H 0.3541 0.34878 0.36938 0.0
H1457 H 0.37037 0.34275 0.36783 0.0
H1458 H 0.37963 0.35142 0.27334 0.0
H1459 H 0.37036 0.33992 0.19569 0.0
H1460 H 0.38577 0.58873 0.95207 0.0
H1461 H 0.37414 0.59898 0.0274 0.0
H1462 H 0.40137 0.63057 0.02587 0.0
H1463 H 0.41288 0.62057 0.95019 0.0
H1464 H 0.38391 0.60435 0.12878 0.0
H1465 H 0.36711 0.6495 0.03048 0.0
H1466 H 0.37297 0.63584 0.99196 0.0
H1467 H 0.38417 0.64701 0.02256 0.0
C1468 C 0.38916 0.59797 0.96717 0.0
C1469 C 0.40024 0.60384 0.94503 0.0
C1470 C 0.38252 0.60379 0.0103 0.0
C1471 C 0.3868 0.61561 0.03181 0.0
C1472 C 0.39772 0.62159 0.00915 0.0
H1473 H 0.37206 0.66434 0.30731 0.0
H1474 H 0.38103 0.65247 0.23006 0.0
C1475 C 0.40433 0.61582 0.966 0.0
C1476 C 0.38041 0.62132 0.08012 0.0
H1477 H 0.36677 0.64914 0.12794 0.0
C1478 C 0.38001 0.61408 0.12848 0.0
C1479 C 0.37532 0.63401 0.07956 0.0
C1480 C 0.37478 0.64199 0.0282 0.0
C1481 C 0.37509 0.61939 0.17683 0.0
C1482 C 0.37039 0.63221 0.17654 0.0
C1483 C 0.37051 0.63934 0.128 0.0
C1484 C 0.36546 0.63854 0.22633 0.0
C1485 C 0.37531 0.61143 0.22826 0.0
C1486 C 0.35382 0.6345 0.25018 0.0
C1487 C 0.34863 0.64127 0.29434 0.0
C1488 C 0.35501 0.65222 0.31525 0.0
C1489 C 0.3669 0.65595 0.2923 0.0
C1490 C 0.37203 0.64921 0.24806 0.0
H1491 H 0.38131 0.60258 0.22383 0.0
H1492 H 0.3791 0.61723 0.26278 0.0
H1493 H 0.3653 0.60843 0.23856 0.0
H1494 H 0.34854 0.62636 0.23355 0.0
H1495 H 0.33945 0.63816 0.31098 0.0
H1496 H 0.16344 0.65806 0.7698 0.0
H1497 H 0.1521 0.64429 0.83481 0.0
H1498 H 0.12119 0.63873 0.7193 0.0
H1499 H 0.13241 0.65266 0.65397 0.0
H1500 H 0.11278 0.64641 0.8219 0.0
H1501 H 0.14676 0.60506 0.83754 0.0
H1502 H 0.15424 0.62055 0.84759 0.0
H1503 H 0.14738 0.6166 0.78244 0.0
C1504 C 0.1543 0.65379 0.75785 0.0
C1505 C 0.14881 0.65648 0.7067 0.0
C1506 C 0.14788 0.64585 0.79501 0.0
C1507 C 0.13589 0.64037 0.78162 0.0
C1508 C 0.13048 0.64283 0.73025 0.0
H1509 H 0.09159 0.58436 0.96623 0.0
H1510 H 0.10481 0.59558 0.8987 0.0
C1511 C 0.1369 0.65077 0.69298 0.0
C1512 C 0.12859 0.63286 0.82268 0.0
H1513 H 0.13016 0.60625 0.90473 0.0
C1514 C 0.11654 0.63759 0.83982 0.0
C1515 C 0.1335 0.62132 0.84568 0.0
C1516 C 0.14612 0.61549 0.82708 0.0
C1517 C 0.10935 0.63122 0.88007 0.0
C1518 C 0.11445 0.61992 0.90435 0.0
C1519 C 0.12637 0.61502 0.8865 0.0
C1520 C 0.10729 0.61285 0.94718 0.0
C1521 C 0.09628 0.63653 0.89578 0.0
C1522 C 0.10462 0.61873 0.9974 0.0
C1523 C 0.09705 0.61235 0.03617 0.0
C1524 C 0.09206 0.59996 0.02532 0.0
C1525 C 0.09521 0.59392 0.97577 0.0
C1526 C 0.10278 0.60029 0.93713 0.0
H1527 H 0.09251 0.64341 0.86486 0.0
H1528 H 0.08914 0.62861 0.90113 0.0
H1529 H 0.09713 0.64177 0.93502 0.0
H1530 H 0.10821 0.62834 0.00624 0.0
H1531 H 0.09487 0.61725 0.07403 0.0
H1532 H 0.16259 0.34032 0.72802 0.0
H1533 H 0.15106 0.35362 0.66185 0.0
H1534 H 0.11895 0.3572 0.77282 0.0
H1535 H 0.13037 0.34373 0.8393 0.0
H1536 H 0.11181 0.34942 0.66852 0.0
H1537 H 0.14372 0.3925 0.66022 0.0
H1538 H 0.15207 0.37746 0.65055 0.0
H1539 H 0.14446 0.38083 0.71478 0.0
C1540 C 0.15314 0.34405 0.73875 0.0
C1541 C 0.14738 0.34095 0.78895 0.0
C1542 C 0.1466 0.35172 0.70093 0.0
C1543 C 0.13422 0.35651 0.71268 0.0
C1544 C 0.12853 0.35364 0.76313 0.0
H1545 H 0.08908 0.41123 0.52576 0.0
H1546 H 0.10221 0.40018 0.594 0.0
C1547 C 0.13508 0.34597 0.80107 0.0
C1548 C 0.12689 0.36377 0.67086 0.0
H1549 H 0.12778 0.39069 0.59053 0.0
C1550 C 0.11526 0.35848 0.65163 0.0
C1551 C 0.13139 0.37561 0.64921 0.0
C1552 C 0.14353 0.38202 0.67004 0.0
C1553 C 0.10808 0.36462 0.61067 0.0
C1554 C 0.11278 0.37626 0.5878 0.0
C1555 C 0.1243 0.38167 0.60766 0.0
C1556 C 0.10558 0.38319 0.54467 0.0
C1557 C 0.09542 0.35872 0.59283 0.0
C1558 C 0.10341 0.37743 0.49375 0.0
C1559 C 0.09589 0.38372 0.45453 0.0
C1560 C 0.09045 0.3959 0.46563 0.0
C1561 C 0.09306 0.40183 0.51598 0.0
C1562 C 0.10058 0.39554 0.55505 0.0
H1563 H 0.09176 0.35156 0.62281 0.0
H1564 H 0.08794 0.3663 0.5869 0.0
H1565 H 0.09684 0.35367 0.55345 0.0
H1566 H 0.1074 0.36799 0.48464 0.0
H1567 H 0.09412 0.37893 0.41606 0.0
H1568 H 0.15246 0.20993 0.28107 0.0
H1569 H 0.14945 0.23045 0.23328 0.0
H1570 H 0.16611 0.25092 0.3691 0.0
H1571 H 0.16916 0.23043 0.41746 0.0
H1572 H 0.13511 0.25371 0.27568 0.0
H1573 H 0.18722 0.26205 0.22929 0.0
H1574 H 0.18097 0.2462 0.2453 0.0
H1575 H 0.18293 0.25798 0.29819 0.0
C1576 C 0.15554 0.21877 0.30076 0.0
C1577 C 0.1611 0.21854 0.35299 0.0
C1578 C 0.15375 0.23049 0.27349 0.0
C1579 C 0.15759 0.24214 0.2977 0.0
C1580 C 0.16316 0.24198 0.34971 0.0
H1581 H 0.1628 0.31649 0.13153 0.0
H1582 H 0.16208 0.30087 0.2062 0.0
C1583 C 0.1649 0.23027 0.3772 0.0
C1584 C 0.15584 0.25443 0.26796 0.0
H1585 H 0.17239 0.27733 0.19655 0.0
C1586 C 0.14324 0.25897 0.25871 0.0
C1587 C 0.16649 0.26129 0.2465 0.0
C1588 C 0.18019 0.25667 0.25488 0.0
C1589 C 0.14099 0.27011 0.22744 0.0
C1590 C 0.15162 0.27665 0.2038 0.0
C1591 C 0.16424 0.27234 0.21479 0.0
C1592 C 0.14995 0.28718 0.16344 0.0
C1593 C 0.12726 0.27471 0.21995 0.0
C1594 C 0.14304 0.28485 0.11526 0.0
C1595 C 0.14334 0.29379 0.07273 0.0
C1596 C 0.15075 0.30515 0.07719 0.0
C1597 C 0.15703 0.30783 0.12671 0.0
C1598 C 0.15665 0.2989 0.16941 0.0
H1599 H 0.1211 0.27184 0.25497 0.0
H1600 H 0.1268 0.28538 0.21522 0.0
H1601 H 0.12314 0.27017 0.18289 0.0
H1602 H 0.13804 0.27577 0.10911 0.0
H1603 H 0.13842 0.29139 0.03513 0.0
H1604 H 0.93326 0.91161 0.37199 0.0
H1605 H 0.95027 0.9103 0.44104 0.0
H1606 H 0.96977 0.88105 0.34687 0.0
H1607 H 0.95287 0.88226 0.27756 0.0
H1608 H 0.96369 0.88759 0.50152 0.0
H1609 H 0.99346 0.91507 0.35213 0.0
H1610 H 0.97603 0.91441 0.34821 0.0
H1611 H 0.98551 0.90073 0.32756 0.0
C1612 C 0.94096 0.90463 0.36663 0.0
C1613 C 0.94182 0.8972 0.31877 0.0
C1614 C 0.95066 0.9039 0.40617 0.0
C1615 C 0.96131 0.89573 0.39843 0.0
C1616 C 0.96163 0.88749 0.35317 0.0
H1617 H 0.03845 0.89418 0.53343 0.0
H1618 H 0.01879 0.89082 0.48019 0.0
C1619 C 0.95195 0.88819 0.31367 0.0
C1620 C 0.97282 0.897 0.4336 0.0
H1621 H 0.00355 0.909 0.43398 0.0
C1622 C 0.97243 0.89225 0.48699 0.0
C1623 C 0.98414 0.90314 0.41425 0.0
C1624 C 0.98488 0.90873 0.35755 0.0
C1625 C 0.98325 0.89327 0.52143 0.0
C1626 C 0.99457 0.89946 0.50208 0.0
C1627 C 0.99488 0.90424 0.44867 0.0
C1628 C 0.00629 0.90107 0.53613 0.0
C1629 C 0.98255 0.88745 0.57765 0.0
C1630 C 0.00582 0.90807 0.58501 0.0
C1631 C 0.01705 0.90997 0.61572 0.0
C1632 C 0.02898 0.90504 0.59769 0.0
C1633 C 0.02943 0.89813 0.54845 0.0
C1634 C 0.01819 0.89617 0.51801 0.0
H1635 H 0.97476 0.88008 0.58064 0.0
H1636 H 0.99188 0.88289 0.5891 0.0
H1637 H 0.98041 0.89519 0.60757 0.0
H1638 H 0.99681 0.91224 0.59905 0.0
H1639 H 0.01639 0.9154 0.65332 0.0
H1640 H 0.33611 0.68402 0.63124 0.0
H1641 H 0.33581 0.70071 0.70184 0.0
H1642 H 0.36496 0.72216 0.61494 0.0
H1643 H 0.36538 0.70558 0.54413 0.0
H1644 H 0.35965 0.71671 0.76344 0.0
H1645 H 0.32663 0.74194 0.61879 0.0
H1646 H 0.3283 0.72456 0.61938 0.0
H1647 H 0.34102 0.7344 0.59215 0.0
C1648 C 0.34275 0.69208 0.62791 0.0
C1649 C 0.35061 0.69358 0.58155 0.0
C1650 C 0.34257 0.70159 0.66835 0.0
C1651 C 0.35027 0.71266 0.66307 0.0
C1652 C 0.35894 0.71365 0.61946 0.0
H1653 H 0.34679 0.79037 0.78418 0.0
H1654 H 0.3503 0.77035 0.7338 0.0
C1655 C 0.35915 0.70416 0.57905 0.0
C1656 C 0.3479 0.72399 0.69808 0.0
H1657 H 0.33233 0.75305 0.69859 0.0
C1658 C 0.35365 0.72466 0.74964 0.0
C1659 C 0.34005 0.73427 0.67956 0.0
C1660 C 0.33356 0.73384 0.62456 0.0
C1661 C 0.35198 0.7356 0.7829 0.0
C1662 C 0.34417 0.74594 0.76418 0.0
C1663 C 0.33831 0.74512 0.71281 0.0
C1664 C 0.34225 0.75794 0.79611 0.0
C1665 C 0.35889 0.73616 0.83693 0.0
C1666 C 0.3364 0.75762 0.84761 0.0
C1667 C 0.33441 0.76908 0.8767 0.0
C1668 C 0.33811 0.78105 0.85445 0.0
C1669 C 0.3438 0.78132 0.80249 0.0
C1670 C 0.34584 0.76988 0.77366 0.0
H1671 H 0.36692 0.72903 0.83913 0.0
H1672 H 0.36287 0.74597 0.8445 0.0
H1673 H 0.35193 0.73388 0.86995 0.0
H1674 H 0.33326 0.74854 0.86511 0.0
H1675 H 0.32995 0.76854 0.91652 0.0
H1676 H 0.54079 0.11443 0.79201 0.0
H1677 H 0.5239 0.11429 0.86137 0.0
H1678 H 0.54669 0.08838 0.95974 0.0
H1679 H 0.5637 0.08841 0.89051 0.0
H1680 H 0.51284 0.08864 0.88779 0.0
H1681 H 0.53054 0.11559 0.06933 0.0
H1682 H 0.53648 0.11882 0.00146 0.0
H1683 H 0.54156 0.10454 0.0368 0.0
C1684 C 0.54242 0.10899 0.82906 0.0
C1685 C 0.55354 0.10129 0.83538 0.0
C1686 C 0.53274 0.10893 0.86862 0.0
C1687 C 0.53407 0.10132 0.91549 0.0
C1688 C 0.54556 0.09442 0.92401 0.0
H1689 H 0.47888 0.07913 0.16723 0.0
H1690 H 0.49846 0.08222 0.11257 0.0
C1691 C 0.55525 0.09442 0.8843 0.0
C1692 C 0.52275 0.09913 0.95096 0.0
H1693 H 0.51054 0.10467 0.07782 0.0
C1694 C 0.5123 0.09218 0.9293 0.0
C1695 C 0.52223 0.10357 0.00522 0.0
C1696 C 0.53324 0.11112 0.02984 0.0
C1697 C 0.50127 0.08955 0.9605 0.0
C1698 C 0.50054 0.09431 0.01439 0.0
C1699 C 0.5111 0.10109 0.0364 0.0
C1700 C 0.48876 0.09258 0.04788 0.0
C1701 C 0.49061 0.08149 0.93569 0.0
C1702 C 0.47686 0.0975 0.02986 0.0
C1703 C 0.46567 0.09565 0.0606 0.0
C1704 C 0.46618 0.08899 0.11043 0.0
C1705 C 0.47815 0.08425 0.1289 0.0
C1706 C 0.48936 0.08604 0.09786 0.0
H1707 H 0.49425 0.07545 0.90157 0.0
H1708 H 0.4861 0.07505 0.96647 0.0
H1709 H 0.48302 0.08799 0.91921 0.0
H1710 H 0.47624 0.10283 0.99201 0.0
H1711 H 0.45664 0.09956 0.04548 0.0
H1712 H 0.16573 0.67899 0.36358 0.0
H1713 H 0.16485 0.69397 0.28652 0.0
H1714 H 0.13907 0.71875 0.37677 0.0
H1715 H 0.13958 0.70374 0.45314 0.0
H1716 H 0.13314 0.71803 0.26749 0.0
H1717 H 0.18565 0.72719 0.29993 0.0
H1718 H 0.18142 0.71076 0.28454 0.0
H1719 H 0.17605 0.71794 0.34721 0.0
C1720 C 0.15963 0.68747 0.36654 0.0
C1721 C 0.1529 0.69028 0.41488 0.0
C1722 C 0.15922 0.69607 0.32261 0.0
C1723 C 0.1522 0.70764 0.32662 0.0
C1724 C 0.14464 0.70992 0.37303 0.0
H1725 H 0.14666 0.78354 0.19851 0.0
H1726 H 0.14468 0.76286 0.2458 0.0
C1727 C 0.14496 0.70131 0.41671 0.0
C1728 C 0.15354 0.71796 0.28518 0.0
H1729 H 0.17521 0.73966 0.23339 0.0
C1730 C 0.14235 0.72267 0.25953 0.0
C1731 C 0.16559 0.72404 0.27512 0.0
C1732 C 0.17786 0.71983 0.30339 0.0
C1733 C 0.14285 0.73347 0.22504 0.0
C1734 C 0.15481 0.73975 0.21639 0.0
C1735 C 0.16607 0.73476 0.24018 0.0
C1736 C 0.15571 0.75209 0.18631 0.0
C1737 C 0.13055 0.73823 0.19877 0.0
C1738 C 0.16281 0.7529 0.13781 0.0
C1739 C 0.16397 0.76472 0.1106 0.0
C1740 C 0.1582 0.77594 0.13195 0.0
C1741 C 0.15123 0.77509 0.18096 0.0
C1742 C 0.14999 0.76326 0.20783 0.0
H1743 H 0.12297 0.73062 0.19812 0.0
H1744 H 0.12678 0.74658 0.22227 0.0
H1745 H 0.13239 0.74152 0.15644 0.0
H1746 H 0.1674 0.74437 0.12097 0.0
H1747 H 0.16942 0.76506 0.07299 0.0
H1748 H 0.47072 0.87515 0.3954 0.0
H1749 H 0.49062 0.87462 0.44918 0.0
H1750 H 0.48536 0.91475 0.49127 0.0
H1751 H 0.46537 0.91537 0.43792 0.0
H1752 H 0.51333 0.89003 0.43871 0.0
H1753 H 0.48941 0.89623 0.6393 0.0
H1754 H 0.48063 0.89171 0.57868 0.0
H1755 H 0.48515 0.90828 0.58979 0.0
C1756 C 0.47376 0.88387 0.41618 0.0
C1757 C 0.46641 0.89529 0.41269 0.0
C1758 C 0.48516 0.88354 0.44674 0.0
C1759 C 0.48935 0.8946 0.47462 0.0
C1760 C 0.48215 0.90606 0.47068 0.0
H1761 H 0.56172 0.91584 0.6187 0.0
H1762 H 0.54415 0.91132 0.55518 0.0
C1763 C 0.47077 0.90641 0.44005 0.0
C1764 C 0.50125 0.89414 0.508 0.0
H1765 H 0.5123 0.89808 0.63767 0.0
C1766 C 0.51313 0.8917 0.48228 0.0
C1767 C 0.5009 0.89611 0.56488 0.0
C1768 C 0.48834 0.89811 0.59501 0.0
C1769 C 0.52476 0.8916 0.51187 0.0
C1770 C 0.52445 0.89413 0.5684 0.0
C1771 C 0.51252 0.89618 0.59426 0.0
C1772 C 0.53636 0.89532 0.60155 0.0
C1773 C 0.53724 0.88877 0.48244 0.0
C1774 C 0.53795 0.88769 0.64827 0.0
C1775 C 0.54795 0.8903 0.68491 0.0
C1776 C 0.55647 0.90067 0.67566 0.0
C1777 C 0.55534 0.90777 0.62706 0.0
C1778 C 0.54532 0.90516 0.59049 0.0
H1779 H 0.53551 0.88335 0.44408 0.0
H1780 H 0.54204 0.89803 0.47178 0.0
H1781 H 0.54395 0.8831 0.50846 0.0
H1782 H 0.53112 0.88006 0.65756 0.0
H1783 H 0.54856 0.88462 0.72185 0.0
H1784 H 0.333 0.23408 0.5885 0.0
H1785 H 0.33544 0.25393 0.64171 0.0
H1786 H 0.35364 0.23226 0.77066 0.0
H1787 H 0.35098 0.21236 0.71847 0.0
H1788 H 0.33499 0.24836 0.80805 0.0
H1789 H 0.36793 0.27506 0.6693 0.0
H1790 H 0.35319 0.26967 0.63797 0.0
H1791 H 0.36473 0.25799 0.66203 0.0
C1792 C 0.33754 0.23354 0.62816 0.0
C1793 C 0.34179 0.22164 0.64926 0.0
C1794 C 0.33904 0.24492 0.65828 0.0
C1795 C 0.34495 0.24461 0.70968 0.0
C1796 C 0.34913 0.23273 0.73091 0.0
H1797 H 0.36419 0.2978 0.96596 0.0
H1798 H 0.36491 0.28108 0.89581 0.0
C1799 C 0.34757 0.22136 0.70105 0.0
C1800 C 0.34626 0.25651 0.7428 0.0
H1801 H 0.35974 0.28671 0.74541 0.0
C1802 C 0.34043 0.25672 0.79436 0.0
C1803 C 0.35337 0.26741 0.72479 0.0
C1804 C 0.36027 0.26753 0.67071 0.0
C1805 C 0.34148 0.26753 0.82835 0.0
C1806 C 0.34857 0.2784 0.81041 0.0
C1807 C 0.35432 0.27831 0.75877 0.0
C1808 C 0.35009 0.28981 0.84584 0.0
C1809 C 0.33498 0.26733 0.88336 0.0
C1810 C 0.34191 0.3005 0.83939 0.0
C1811 C 0.34144 0.31009 0.87946 0.0
C1812 C 0.34912 0.30906 0.92656 0.0
C1813 C 0.35808 0.29886 0.93042 0.0
C1814 C 0.35852 0.28929 0.8904 0.0
H1815 H 0.32851 0.25883 0.88838 0.0
H1816 H 0.34246 0.267 0.91572 0.0
H1817 H 0.32922 0.27628 0.88942 0.0
H1818 H 0.33533 0.30102 0.80513 0.0
H1819 H 0.33447 0.31784 0.8751 0.0
H1820 H 0.02488 0.12153 0.8751 0.0
H1821 H 0.00502 0.12312 0.92892 0.0
H1822 H 0.01127 0.08459 0.99048 0.0
H1823 H 0.03117 0.08291 0.93719 0.0
H1824 H 0.98247 0.10669 0.92846 0.0
H1825 H 0.00758 0.10752 0.12808 0.0
H1826 H 0.01585 0.11055 0.06463 0.0
H1827 H 0.01218 0.09426 0.08499 0.0
C1828 C 0.02204 0.11339 0.90011 0.0
C1829 C 0.02966 0.10212 0.9022 0.0
C1830 C 0.01067 0.11431 0.93066 0.0
C1831 C 0.0068 0.10404 0.96407 0.0
C1832 C 0.01423 0.0927 0.9655 0.0
H1833 H 0.93724 0.0819 0.12304 0.0
H1834 H 0.9537 0.08678 0.05505 0.0
C1835 C 0.02558 0.09175 0.93491 0.0
C1836 C 0.99505 0.10517 0.99805 0.0
H1837 H 0.98482 0.10419 0.12982 0.0
C1838 C 0.98295 0.10628 0.97253 0.0
C1839 C 0.99576 0.10486 0.05546 0.0
C1840 C 0.00854 0.10436 0.08506 0.0
C1841 C 0.97146 0.10653 0.00306 0.0
C1842 C 0.97215 0.10552 0.06038 0.0
C1843 C 0.9843 0.10494 0.08584 0.0
C1844 C 0.9605 0.10415 0.09505 0.0
C1845 C 0.95871 0.10782 0.97371 0.0
C1846 C 0.95865 0.11244 0.13959 0.0
C1847 C 0.94931 0.1096 0.17889 0.0
C1848 C 0.94171 0.09837 0.17449 0.0
C1849 C 0.94293 0.09063 0.12771 0.0
C1850 C 0.9523 0.09345 0.08853 0.0
H1851 H 0.95994 0.11259 0.93352 0.0
H1852 H 0.95464 0.09805 0.96646 0.0
H1853 H 0.95164 0.11345 0.99813 0.0
H1854 H 0.96489 0.12074 0.14539 0.0
H1855 H 0.94859 0.11581 0.21427 0.0
H1856 H 0.82927 0.76366 0.56594 0.0
H1857 H 0.8321 0.74284 0.61205 0.0
H1858 H 0.84954 0.76222 0.74895 0.0
H1859 H 0.84675 0.78306 0.70348 0.0
H1860 H 0.86328 0.73881 0.703 0.0
H1861 H 0.81115 0.73155 0.75264 0.0
H1862 H 0.81538 0.73593 0.68398 0.0
H1863 H 0.81772 0.74735 0.73796 0.0
C1864 C 0.83367 0.76351 0.60595 0.0
C1865 C 0.83774 0.77503 0.63116 0.0
C1866 C 0.83528 0.75161 0.63214 0.0
C1867 C 0.841 0.75105 0.6838 0.0
C1868 C 0.84512 0.76249 0.70897 0.0
H1869 H 0.86005 0.70243 0.94601 0.0
H1870 H 0.86065 0.71744 0.8699 0.0
C1871 C 0.84346 0.77439 0.68302 0.0
C1872 C 0.84258 0.73859 0.71243 0.0
H1873 H 0.82581 0.71616 0.78547 0.0
C1874 C 0.8551 0.73374 0.72058 0.0
C1875 C 0.83186 0.73198 0.73465 0.0
C1876 C 0.81824 0.73693 0.72731 0.0
C1877 C 0.85722 0.72258 0.75186 0.0
C1878 C 0.84656 0.71635 0.77664 0.0
C1879 C 0.83399 0.72092 0.76639 0.0
C1880 C 0.84818 0.70601 0.81792 0.0
C1881 C 0.87087 0.71767 0.75836 0.0
C1882 C 0.84111 0.69446 0.81397 0.0
C1883 C 0.8406 0.68589 0.85793 0.0
C1884 C 0.84711 0.68877 0.90672 0.0
C1885 C 0.85492 0.69989 0.90907 0.0
C1886 C 0.85536 0.70847 0.86529 0.0
H1887 H 0.87688 0.72019 0.7224 0.0
H1888 H 0.87534 0.7223 0.79449 0.0
H1889 H 0.8711 0.70702 0.76407 0.0
H1890 H 0.83547 0.69238 0.77784 0.0
H1891 H 0.83453 0.67739 0.85469 0.0
H1892 H 0.06945 0.08538 0.60762 0.0
H1893 H 0.05477 0.08691 0.5298 0.0
H1894 H 0.02957 0.11179 0.62258 0.0
H1895 H 0.04428 0.11062 0.69962 0.0
H1896 H 0.03099 0.07741 0.53471 0.0
H1897 H 0.02731 0.1288 0.47678 0.0
H1898 H 0.04031 0.12276 0.51877 0.0
H1899 H 0.02492 0.12691 0.54855 0.0
C1900 C 0.06099 0.09152 0.61084 0.0
C1901 C 0.05797 0.09777 0.66005 0.0
C1902 C 0.05261 0.09236 0.56632 0.0
C1903 C 0.0411 0.09952 0.57016 0.0
C1904 C 0.03852 0.10645 0.61805 0.0
H1905 H 0.96418 0.09822 0.45491 0.0
H1906 H 0.98503 0.10116 0.50023 0.0
C1907 C 0.04692 0.10568 0.66238 0.0
C1908 C 0.03088 0.0982 0.52812 0.0
H1909 H 0.00858 0.11542 0.4556 0.0
C1910 C 0.0263 0.08572 0.51634 0.0
C1911 C 0.02473 0.10903 0.50426 0.0
C1912 C 0.02968 0.12261 0.51234 0.0
C1913 C 0.01528 0.08382 0.48402 0.0
C1914 C 0.00873 0.09468 0.46281 0.0
C1915 C 0.01361 0.10713 0.47243 0.0
C1916 C 0.99629 0.0933 0.43386 0.0
C1917 C 0.01031 0.07027 0.47502 0.0
C1918 C 0.99579 0.08796 0.38148 0.0
C1919 C 0.98389 0.08626 0.35539 0.0
C1920 C 0.97231 0.08986 0.38143 0.0
C1921 C 0.9729 0.09529 0.43383 0.0
C1922 C 0.9848 0.09704 0.4597 0.0
H1923 H 0.01569 0.063 0.49941 0.0
H1924 H -0.00011 0.06969 0.48572 0.0
H1925 H 0.01128 0.06772 0.43135 0.0
H1926 H 0.00459 0.08507 0.36092 0.0
H1927 H 0.98376 0.0821 0.31496 0.0
H1928 H 0.65656 0.31838 0.37003 0.0
H1929 H 0.65497 0.3036 0.29263 0.0
H1930 H 0.63221 0.27734 0.38972 0.0
H1931 H 0.63342 0.29214 0.4664 0.0
H1932 H 0.66556 0.28028 0.29558 0.0
H1933 H 0.61378 0.27432 0.2472 0.0
H1934 H 0.61969 0.28756 0.28819 0.0
H1935 H 0.61657 0.272 0.31849 0.0
C1936 C 0.65087 0.30965 0.37435 0.0
C1937 C 0.64521 0.30639 0.42457 0.0
C1938 C 0.64999 0.3012 0.33007 0.0
C1939 C 0.6434 0.28938 0.33517 0.0
C1940 C 0.63708 0.28651 0.38424 0.0
H1941 H 0.64713 0.21275 0.21674 0.0
H1942 H 0.64357 0.23333 0.26344 0.0
C1943 C 0.63788 0.29498 0.42833 0.0
C1944 C 0.64474 0.27924 0.29283 0.0
H1945 H 0.62777 0.25631 0.22279 0.0
C1946 C 0.65728 0.27524 0.27863 0.0
C1947 C 0.63395 0.27264 0.27082 0.0
C1948 C 0.62025 0.27696 0.28157 0.0
C1949 C 0.65933 0.26438 0.24559 0.0
C1950 C 0.64855 0.25739 0.22612 0.0
C1951 C 0.636 0.26167 0.23826 0.0
C1952 C 0.65019 0.2451 0.19628 0.0
C1953 C 0.67298 0.26004 0.23391 0.0
C1954 C 0.65501 0.24498 0.14298 0.0
C1955 C 0.65706 0.23324 0.1161 0.0
C1956 C 0.65434 0.22145 0.14226 0.0
C1957 C 0.64938 0.22165 0.19554 0.0
C1958 C 0.64728 0.23339 0.2222 0.0
H1959 H 0.68026 0.26567 0.25727 0.0
H1960 H 0.67413 0.24963 0.24391 0.0
H1961 H 0.67504 0.26124 0.18988 0.0
H1962 H 0.65725 0.25396 0.12234 0.0
H1963 H 0.66084 0.23342 0.075 0.0
H1964 H 0.43306 0.91099 0.10979 0.0
H1965 H 0.45029 0.91145 0.04149 0.0
H1966 H 0.47359 0.88645 0.14192 0.0
H1967 H 0.45648 0.88586 0.21031 0.0
H1968 H 0.48356 0.91308 0.11402 0.0
H1969 H 0.46799 0.88383 0.93523 0.0
H1970 H 0.45629 0.89427 0.96726 0.0
H1971 H 0.4623 0.88047 0.00337 0.0
C1972 C 0.44168 0.90527 0.11666 0.0
C1973 C 0.44346 0.89853 0.16587 0.0
C1974 C 0.4515 0.90553 0.0775 0.0
C1975 C 0.46318 0.89901 0.08689 0.0
C1976 C 0.4646 0.89152 0.13403 0.0
H1977 H 0.54107 0.90304 0.96327 0.0
H1978 H 0.52139 0.89977 0.01624 0.0
C1979 C 0.4548 0.8912 0.17304 0.0
C1980 C 0.47453 0.9015 0.05195 0.0
H1981 H 0.48768 0.89528 0.92735 0.0
C1982 C 0.4845 0.90917 0.07322 0.0
C1983 C 0.47554 0.89656 0.9986 0.0
C1984 C 0.46502 0.88826 0.97447 0.0
C1985 C 0.49556 0.91203 0.04253 0.0
C1986 C 0.49682 0.90676 0.98967 0.0
C1987 C 0.48671 0.89925 0.96799 0.0
C1988 C 0.5087 0.90867 0.95697 0.0
C1989 C 0.50567 0.92085 0.06676 0.0
C1990 C 0.50807 0.91446 0.9054 0.0
C1991 C 0.51932 0.91623 0.87467 0.0
C1992 C 0.53139 0.91222 0.89503 0.0
C1993 C 0.53196 0.90638 0.94663 0.0
C1994 C 0.52071 0.90454 0.97709 0.0
H1995 H 0.50152 0.9271 0.09914 0.0
H1996 H 0.51342 0.91491 0.08546 0.0
H1997 H 0.51009 0.92713 0.03519 0.0
H1998 H 0.49888 0.91767 0.88905 0.0
H1999 H 0.51855 0.92071 0.83496 0.0
H2000 H 0.86313 0.2989 0.54089 0.0
H2001 H 0.86547 0.28294 0.61358 0.0
H2002 H 0.83354 0.3002 0.69971 0.0
H2003 H 0.83109 0.31625 0.62737 0.0
H2004 H 0.86661 0.28454 0.73999 0.0
H2005 H 0.82301 0.26188 0.64669 0.0
H2006 H 0.83299 0.27331 0.61036 0.0
H2007 H 0.82216 0.27887 0.66235 0.0
C2008 C 0.85683 0.29955 0.57599 0.0
C2009 C 0.84678 0.30872 0.5779 0.0
C2010 C 0.85821 0.29043 0.6175 0.0
C2011 C 0.84957 0.29034 0.66142 0.0
C2012 C 0.84024 0.30012 0.66583 0.0
H2013 H 0.84462 0.23565 0.9305 0.0
H2014 H 0.84647 0.25532 0.87579 0.0
C2015 C 0.83888 0.30929 0.62445 0.0
C2016 C 0.84916 0.27907 0.69817 0.0
H2017 H 0.83192 0.25159 0.7232 0.0
C2018 C 0.85901 0.27735 0.73672 0.0
C2019 C 0.83933 0.26966 0.69289 0.0
C2020 C 0.82878 0.27089 0.65068 0.0
C2021 C 0.85922 0.2664 0.7706 0.0
C2022 C 0.84929 0.25705 0.76566 0.0
C2023 C 0.83949 0.2588 0.72693 0.0
C2024 C 0.84894 0.24522 0.7994 0.0
C2025 C 0.8702 0.26475 0.81046 0.0
C2026 C 0.84952 0.23304 0.77441 0.0
C2027 C 0.84837 0.22178 0.80542 0.0
C2028 C 0.84654 0.22252 0.86202 0.0
C2029 C 0.84605 0.23475 0.887 0.0
C2030 C 0.84721 0.246 0.8559 0.0
H2031 H 0.87848 0.27119 0.80076 0.0
H2032 H 0.86673 0.26717 0.85196 0.0
H2033 H 0.87364 0.25458 0.81091 0.0
H2034 H 0.85077 0.23224 0.73076 0.0
H2035 H 0.8488 0.21252 0.78491 0.0
H2036 H 0.44864 0.11212 0.29849 0.0
H2037 H 0.46526 0.11305 0.36921 0.0
H2038 H 0.44657 0.08189 0.45503 0.0
H2039 H 0.42986 0.08086 0.38475 0.0
H2040 H 0.46408 0.11405 0.49506 0.0
H2041 H 0.48412 0.06929 0.40122 0.0
H2042 H 0.4732 0.07989 0.36521 0.0
H2043 H 0.46714 0.0694 0.41741 0.0
C2044 C 0.44785 0.10568 0.33309 0.0
C2045 C 0.43801 0.09629 0.33557 0.0
C2046 C 0.45736 0.10624 0.37345 0.0
C2047 C 0.45719 0.09742 0.41674 0.0
C2048 C 0.44687 0.08871 0.4216 0.0
H2049 H 0.5123 0.09018 0.68408 0.0
H2050 H 0.49253 0.09179 0.62973 0.0
C2051 C 0.43732 0.08817 0.38142 0.0
C2052 C 0.46852 0.09636 0.45304 0.0
H2053 H 0.49508 0.07764 0.47734 0.0
C2054 C 0.47084 0.10608 0.49158 0.0
C2055 C 0.47736 0.08601 0.44758 0.0
C2056 C 0.47545 0.07556 0.40547 0.0
C2057 C 0.48183 0.10567 0.52521 0.0
C2058 C 0.49061 0.09525 0.52002 0.0
C2059 C 0.48828 0.08557 0.48132 0.0
C2060 C 0.50252 0.09438 0.55318 0.0
C2061 C 0.48414 0.11651 0.56509 0.0
C2062 C 0.51466 0.09501 0.52786 0.0
C2063 C 0.52597 0.09405 0.55867 0.0
C2064 C 0.52534 0.09233 0.61538 0.0
C2065 C 0.51313 0.09152 0.64051 0.0
C2066 C 0.50182 0.09253 0.60963 0.0
H2067 H 0.47793 0.12503 0.55646 0.0
H2068 H 0.48193 0.11307 0.60683 0.0
H2069 H 0.49443 0.1196 0.56422 0.0
H2070 H 0.51538 0.09635 0.48423 0.0
H2071 H 0.53521 0.0947 0.53804 0.0
H2072 H 0.66773 0.76519 0.41704 0.0
H2073 H 0.66517 0.74479 0.36745 0.0
H2074 H 0.64658 0.76509 0.23569 0.0
H2075 H 0.64909 0.78551 0.28466 0.0
H2076 H 0.63353 0.74109 0.27902 0.0
H2077 H 0.68545 0.73508 0.22312 0.0
H2078 H 0.68161 0.7388 0.29287 0.0
H2079 H 0.6787 0.75062 0.24094 0.0
C2080 C 0.66314 0.76533 0.3774 0.0
C2081 C 0.65865 0.77698 0.3547 0.0
C2082 C 0.6617 0.75367 0.34921 0.0
C2083 C 0.65571 0.75349 0.298 0.0
C2084 C 0.65121 0.76507 0.27527 0.0
H2085 H 0.6358 0.70491 0.03433 0.0
H2086 H 0.63566 0.72014 0.10978 0.0
C2087 C 0.65271 0.77673 0.30321 0.0
C2088 C 0.65417 0.74126 0.2676 0.0
H2089 H 0.67089 0.71947 0.19096 0.0
C2090 C 0.64169 0.73626 0.26012 0.0
C2091 C 0.66486 0.73497 0.24361 0.0
C2092 C 0.67844 0.74011 0.25008 0.0
C2093 C 0.63957 0.72522 0.22811 0.0
C2094 C 0.6502 0.71926 0.20191 0.0
C2095 C 0.66274 0.72402 0.21115 0.0
C2096 C 0.64853 0.7089 0.16074 0.0
C2097 C 0.62597 0.7201 0.22254 0.0
C2098 C 0.65571 0.69741 0.16432 0.0
C2099 C 0.65594 0.68871 0.12077 0.0
C2100 C 0.64903 0.69139 0.07275 0.0
C2101 C 0.6412 0.7025 0.07073 0.0
C2102 C 0.64104 0.71121 0.1141 0.0
H2103 H 0.62006 0.72252 0.2589 0.0
H2104 H 0.6213 0.72466 0.18671 0.0
H2105 H 0.62589 0.70945 0.2168 0.0
H2106 H 0.66159 0.69545 0.19988 0.0
H2107 H 0.66205 0.68023 0.12371 0.0
H2108 H 0.04406 0.88589 0.78246 0.0
H2109 H 0.02835 0.88566 0.85637 0.0
H2110 H 0.05361 0.90947 0.95364 0.0
H2111 H 0.0693 0.91007 0.87911 0.0
H2112 H 0.02789 0.87885 0.96474 0.0
H2113 H 0.02152 0.93193 0.93904 0.0
H2114 H 0.03067 0.92228 0.89162 0.0
H2115 H 0.03764 0.92685 0.95584 0.0
C2116 C 0.04642 0.89089 0.81989 0.0
C2117 C 0.05784 0.89821 0.82449 0.0
C2118 C 0.03741 0.89074 0.86216 0.0
C2119 C 0.03966 0.89783 0.90988 0.0
C2120 C 0.05154 0.90422 0.91652 0.0
H2121 H 0.98277 0.91618 0.16339 0.0
H2122 H 0.00327 0.91334 0.11478 0.0
C2123 C 0.06054 0.90447 0.87403 0.0
C2124 C 0.0291 0.89935 0.95016 0.0
H2125 H 0.00836 0.92168 0.00384 0.0
C2126 C 0.02369 0.88822 0.97371 0.0
C2127 C 0.02359 0.9116 0.96154 0.0
C2128 C 0.02855 0.92385 0.93542 0.0
C2129 C 0.0128 0.889 0.00764 0.0
C2130 C 0.00714 0.9012 0.01784 0.0
C2131 C 0.01278 0.91236 0.99589 0.0
C2132 C 0.99487 0.90253 0.04823 0.0
C2133 C 0.00732 0.87677 0.03188 0.0
C2134 C 0.98337 0.89757 0.02632 0.0
C2135 C 0.97164 0.89927 0.05361 0.0
C2136 C 0.97122 0.90596 0.1034 0.0
C2137 C 0.98277 0.91096 0.12516 0.0
C2138 C 0.99449 0.90933 0.09758 0.0
H2139 H 0.0145 0.86877 0.03146 0.0
H2140 H 0.00409 0.87842 0.07443 0.0
H2141 H 0.9988 0.87368 0.00771 0.0
H2142 H 0.98344 0.89251 0.98773 0.0
H2143 H 0.96293 0.89531 0.03573 0.0
H2144 H 0.6345 0.7936 0.52907 0.0
H2145 H 0.63346 0.77842 0.60458 0.0
H2146 H 0.65584 0.80453 0.70394 0.0
H2147 H 0.65721 0.81972 0.62788 0.0
H2148 H 0.66676 0.78108 0.69756 0.0
H2149 H 0.61506 0.77489 0.74785 0.0
H2150 H 0.61785 0.77301 0.67629 0.0
H2151 H 0.62091 0.78839 0.70827 0.0
C2152 C 0.6389 0.79632 0.56741 0.0
C2153 C 0.64607 0.80782 0.57221 0.0
C2154 C 0.63821 0.78763 0.6108 0.0
C2155 C 0.6445 0.79036 0.6601 0.0
C2156 C 0.6509 0.80225 0.66627 0.0
H2157 H 0.66345 0.73452 0.91819 0.0
H2158 H 0.66022 0.7549 0.86927 0.0
C2159 C 0.65164 0.81093 0.62276 0.0
C2160 C 0.64596 0.78007 0.70161 0.0
H2161 H 0.6292 0.75712 0.77231 0.0
C2162 C 0.65855 0.77602 0.71487 0.0
C2163 C 0.63524 0.77343 0.72394 0.0
C2164 C 0.62152 0.77775 0.71376 0.0
C2165 C 0.66069 0.76511 0.74753 0.0
C2166 C 0.64997 0.75815 0.76781 0.0
C2167 C 0.63739 0.76245 0.75632 0.0
C2168 C 0.65165 0.74595 0.79833 0.0
C2169 C 0.6744 0.76072 0.75796 0.0
C2170 C 0.64778 0.73424 0.77473 0.0
C2171 C 0.64964 0.72259 0.80239 0.0
C2172 C 0.65533 0.72248 0.85439 0.0
C2173 C 0.6591 0.73427 0.8781 0.0
C2174 C 0.65727 0.74592 0.85027 0.0
H2175 H 0.6815 0.76594 0.73211 0.0
H2176 H 0.6769 0.76252 0.80123 0.0
H2177 H 0.67536 0.75018 0.75032 0.0
H2178 H 0.64344 0.7341 0.7346 0.0
H2179 H 0.64657 0.7137 0.78306 0.0
H2180 H 0.43438 0.41235 0.88445 0.0
H2181 H 0.4516 0.41049 0.95232 0.0
H2182 H 0.47162 0.38323 0.84991 0.0
H2183 H 0.45453 0.385 0.78169 0.0
H2184 H 0.4653 0.38783 0.00718 0.0
H2185 H 0.49498 0.41691 0.86307 0.0
H2186 H 0.47758 0.41595 0.8582 0.0
H2187 H 0.48739 0.40267 0.83569 0.0
C2188 C 0.44226 0.40569 0.87692 0.0
C2189 C 0.44319 0.39899 0.82721 0.0
C2190 C 0.45209 0.40465 0.91579 0.0
C2191 C 0.46293 0.3969 0.90552 0.0
C2192 C 0.46336 0.38936 0.85815 0.0
H2193 H 0.53998 0.39422 0.04126 0.0
H2194 H 0.52037 0.39126 0.98729 0.0
C2195 C 0.45356 0.39038 0.81929 0.0
C2196 C 0.47445 0.39786 0.94087 0.0
H2197 H 0.50515 0.40992 0.9435 0.0
C2198 C 0.47404 0.39264 0.99347 0.0
C2199 C 0.48575 0.40421 0.92264 0.0
C2200 C 0.48651 0.41036 0.86699 0.0
C2201 C 0.48483 0.39337 0.02816 0.0
C2202 C 0.49614 0.39975 0.00992 0.0
C2203 C 0.49648 0.40501 0.95732 0.0
C2204 C 0.50783 0.4011 0.04436 0.0
C2205 C 0.48411 0.38707 0.08344 0.0
C2206 C 0.50731 0.40774 0.09412 0.0
C2207 C 0.51851 0.40942 0.12523 0.0
C2208 C 0.53046 0.40461 0.10674 0.0
C2209 C 0.53095 0.39806 0.05665 0.0
C2210 C 0.51974 0.39633 0.02579 0.0
H2211 H 0.47632 0.37968 0.08527 0.0
H2212 H 0.49344 0.3824 0.09421 0.0
H2213 H 0.48197 0.39455 0.11453 0.0
H2214 H 0.49828 0.41179 0.10855 0.0
H2215 H 0.51782 0.41456 0.1635 0.0
H2216 H 0.84909 0.28594 0.29227 0.0
H2217 H 0.8519 0.26538 0.24442 0.0
H2218 H 0.83286 0.24536 0.37573 0.0
H2219 H 0.83001 0.26586 0.42415 0.0
H2220 H 0.86452 0.24097 0.28926 0.0
H2221 H 0.8127 0.2362 0.22982 0.0
H2222 H 0.81977 0.25159 0.2477 0.0
H2223 H 0.81635 0.23993 0.29973 0.0
C2224 C 0.84549 0.27717 0.31102 0.0
C2225 C 0.83928 0.27754 0.36192 0.0
C2226 C 0.84716 0.26544 0.28373 0.0
C2227 C 0.84255 0.25391 0.30659 0.0
C2228 C 0.83641 0.2542 0.35744 0.0
H2229 H 0.8346 0.18068 0.13414 0.0
H2230 H 0.83539 0.19598 0.20994 0.0
C2231 C 0.8348 0.26592 0.38496 0.0
C2232 C 0.84394 0.24165 0.27636 0.0
H2233 H 0.82695 0.22014 0.19935 0.0
C2234 C 0.85632 0.23631 0.26992 0.0
C2235 C 0.83319 0.23559 0.2518 0.0
C2236 C 0.81972 0.24109 0.25714 0.0
C2237 C 0.85826 0.22514 0.2385 0.0
C2238 C 0.84758 0.21939 0.21183 0.0
C2239 C 0.83514 0.22452 0.21992 0.0
C2240 C 0.8491 0.20886 0.17134 0.0
C2241 C 0.87174 0.21964 0.23417 0.0
C2242 C 0.85686 0.21079 0.1252 0.0
C2243 C 0.85653 0.20201 0.08206 0.0
C2244 C 0.84823 0.19123 0.08379 0.0
C2245 C 0.84106 0.18889 0.13143 0.0
C2246 C 0.84148 0.19765 0.17476 0.0
H2247 H 0.87756 0.22197 0.27091 0.0
H2248 H 0.87155 0.20898 0.22878 0.0
H2249 H 0.87669 0.22401 0.19858 0.0
H2250 H 0.86259 0.21949 0.12095 0.0
H2251 H 0.86215 0.20415 0.04597 0.0
H2252 H 0.96463 0.60312 0.52842 0.0
H2253 H 0.98527 0.60522 0.48055 0.0
H2254 H 0.00489 0.58687 0.61472 0.0
H2255 H 0.98429 0.58472 0.66311 0.0
H2256 H 0.00963 0.61779 0.52206 0.0
H2257 H 0.01403 0.56531 0.47377 0.0
H2258 H 0.99873 0.57266 0.49115 0.0
H2259 H 0.01057 0.56976 0.54308 0.0
C2260 C 0.97332 0.59951 0.54779 0.0
C2261 C 0.97281 0.59369 0.59946 0.0
C2262 C 0.9851 0.60078 0.52049 0.0
C2263 C 0.99654 0.59616 0.54413 0.0
C2264 C 0.99612 0.59042 0.59578 0.0
H2265 H 0.06927 0.58567 0.36993 0.0
H2266 H 0.05442 0.5876 0.44698 0.0
C2267 C 0.98434 0.58921 0.62329 0.0
C2268 C 0.00884 0.59709 0.51381 0.0
H2269 H 0.03016 0.57906 0.44017 0.0
C2270 C 0.01423 0.60934 0.50452 0.0
C2271 C 0.01483 0.58601 0.4916 0.0
C2272 C 0.00927 0.57266 0.49995 0.0
C2273 C 0.02536 0.61083 0.47237 0.0
C2274 C 0.031 0.5998 0.44792 0.0
C2275 C 0.02586 0.58751 0.45905 0.0
C2276 C 0.04135 0.60077 0.4063 0.0
C2277 C 0.03089 0.6242 0.46473 0.0
C2278 C 0.03916 0.60787 0.35851 0.0
C2279 C 0.04766 0.60687 0.31462 0.0
C2280 C 0.05842 0.59858 0.31732 0.0
C2281 C 0.06105 0.59212 0.36645 0.0
C2282 C 0.05256 0.59319 0.41052 0.0
H2283 H 0.02871 0.63047 0.50029 0.0
H2284 H 0.04153 0.6239 0.45872 0.0
H2285 H 0.02641 0.62872 0.42838 0.0
H2286 H 0.03044 0.61356 0.35372 0.0
H2287 H 0.04532 0.61197 0.2774 0.0
H2288 H 0.64345 0.28428 0.71165 0.0
H2289 H 0.64108 0.26468 0.76597 0.0
H2290 H 0.66504 0.24381 0.65225 0.0
H2291 H 0.6672 0.26336 0.59666 0.0
H2292 H 0.64364 0.22974 0.68447 0.0
H2293 H 0.66904 0.25015 0.86366 0.0
H2294 H 0.65559 0.25984 0.84232 0.0
H2295 H 0.66929 0.25789 0.79789 0.0
C2296 C 0.64825 0.27554 0.69818 0.0
C2297 C 0.65563 0.27541 0.65011 0.0
C2298 C 0.64691 0.26435 0.72938 0.0
C2299 C 0.65309 0.25286 0.71368 0.0
C2300 C 0.66025 0.25261 0.66519 0.0
H2301 H 0.6649 0.1804 0.88185 0.0
H2302 H 0.66321 0.19666 0.80988 0.0
C2303 C 0.66151 0.26379 0.63362 0.0
C2304 C 0.65217 0.24119 0.7484 0.0
H2305 H 0.65791 0.2303 0.87723 0.0
C2306 C 0.64682 0.22982 0.72653 0.0
C2307 C 0.65643 0.2413 0.80313 0.0
C2308 C 0.66303 0.2529 0.82802 0.0
C2309 C 0.64532 0.21865 0.75855 0.0
C2310 C 0.64926 0.21894 0.81352 0.0
C2311 C 0.65474 0.23022 0.83513 0.0
C2312 C 0.64813 0.20761 0.84979 0.0
C2313 C 0.63937 0.2067 0.73399 0.0
C2314 C 0.63989 0.20818 0.895 0.0
C2315 C 0.6408 0.19891 0.93612 0.0
C2316 C 0.65011 0.18902 0.93305 0.0
C2317 C 0.65765 0.18791 0.88558 0.0
C2318 C 0.65669 0.19717 0.8443 0.0
H2319 H 0.63512 0.20861 0.69323 0.0
H2320 H 0.64691 0.19913 0.72968 0.0
H2321 H 0.63172 0.20282 0.76119 0.0
H2322 H 0.63326 0.21621 0.89992 0.0
H2323 H 0.6348 0.20004 0.97195 0.0
H2324 H 0.96302 0.40087 0.96414 0.0
H2325 H 0.98355 0.39725 0.01117 0.0
H2326 H 0.00427 0.41269 0.87351 0.0
H2327 H 0.98377 0.41633 0.82585 0.0
H2328 H 0.00682 0.38221 0.96838 0.0
H2329 H 0.01548 0.43436 0.01297 0.0
H2330 H -0.00047 0.42818 0.99804 0.0
H2331 H 0.0112 0.42984 0.94452 0.0
C2332 C 0.97193 0.40351 0.94379 0.0
C2333 C 0.97176 0.40895 0.89135 0.0
C2334 C 0.98364 0.40137 0.97063 0.0
C2335 C 0.99537 0.40474 0.94575 0.0
C2336 C 0.99528 0.41009 0.89335 0.0
H2337 H 0.06875 0.41017 0.11943 0.0
H2338 H 0.05381 0.40922 0.04234 0.0
C2339 C 0.98356 0.41217 0.86628 0.0
C2340 C 0.00764 0.40294 0.97563 0.0
H2341 H 0.03034 0.41946 0.0482 0.0
C2342 C 0.01208 0.39034 0.98542 0.0
C2343 C 0.01449 0.41358 0.99717 0.0
C2344 C 0.00997 0.42728 0.98807 0.0
C2345 C 0.02309 0.38808 0.01753 0.0
C2346 C 0.02958 0.3987 0.04148 0.0
C2347 C 0.02539 0.41132 0.02975 0.0
C2348 C 0.03982 0.39704 0.08319 0.0
C2349 C 0.02759 0.37434 0.02564 0.0
C2350 C 0.03714 0.39017 0.13112 0.0
C2351 C 0.0457 0.3906 0.17501 0.0
C2352 C 0.05702 0.39811 0.17222 0.0
C2353 C 0.0601 0.40433 0.12299 0.0
C2354 C 0.05155 0.40381 0.0789 0.0
H2355 H 0.02497 0.3682 0.99021 0.0
H2356 H 0.03822 0.37384 0.03184 0.0
H2357 H 0.02274 0.37023 0.06201 0.0
H2358 H 0.02803 0.38512 0.13601 0.0
H2359 H 0.04299 0.38572 0.21232 0.0
H2360 H 0.87212 0.72045 0.12533 0.0
H2361 H 0.87393 0.74019 0.17977 0.0
H2362 H 0.83499 0.73472 0.23829 0.0
H2363 H 0.8331 0.71494 0.1844 0.0
H2364 H 0.85818 0.76302 0.17823 0.0
H2365 H 0.85717 0.73795 0.37782 0.0
H2366 H 0.86027 0.72958 0.31467 0.0
H2367 H 0.84399 0.73372 0.33362 0.0
C2368 C 0.86394 0.72343 0.14984 0.0
C2369 C 0.85249 0.71607 0.15088 0.0
C2370 C 0.86499 0.73473 0.18075 0.0
C2371 C 0.85466 0.73879 0.21348 0.0
C2372 C 0.84315 0.73161 0.2139 0.0
H2373 H 0.8335 0.80909 0.36916 0.0
H2374 H 0.83828 0.79238 0.3022 0.0
C2375 C 0.84207 0.72033 0.18296 0.0
C2376 C 0.85588 0.75051 0.24762 0.0
H2377 H 0.85432 0.76078 0.37922 0.0
C2378 C 0.85747 0.76256 0.22223 0.0
C2379 C 0.85519 0.74982 0.30497 0.0
C2380 C 0.85419 0.73707 0.33453 0.0
C2381 C 0.85783 0.77404 0.25277 0.0
C2382 C 0.85642 0.77339 0.30995 0.0
C2383 C 0.85536 0.76128 0.33534 0.0
C2384 C 0.85515 0.78508 0.34443 0.0
C2385 C 0.85966 0.78673 0.22355 0.0
C2386 C 0.86318 0.78671 0.38996 0.0
C2387 C 0.86039 0.79619 0.42869 0.0
C2388 C 0.84946 0.80417 0.42268 0.0
C2389 C 0.84199 0.80313 0.37505 0.0
C2390 C 0.84476 0.7936 0.33646 0.0
H2391 H 0.8647 0.78536 0.18402 0.0
H2392 H 0.85005 0.79105 0.21501 0.0
H2393 H 0.86529 0.79366 0.24866 0.0
H2394 H 0.87124 0.78022 0.39691 0.0
H2395 H 0.86638 0.79677 0.46478 0.0
H2396 H 0.53399 0.58153 0.44284 0.0
H2397 H 0.51386 0.58319 0.49456 0.0
H2398 H 0.51107 0.62363 0.45356 0.0
H2399 H 0.53113 0.62206 0.40119 0.0
H2400 H 0.50892 0.59922 0.58343 0.0
H2401 H 0.47519 0.60939 0.41254 0.0
H2402 H 0.4913 0.60311 0.40209 0.0
H2403 H 0.48895 0.61995 0.41683 0.0
C2404 C 0.52909 0.59078 0.44465 0.0
C2405 C 0.53415 0.60166 0.41782 0.0
C2406 C 0.51758 0.5917 0.47417 0.0
C2407 C 0.5109 0.60348 0.47719 0.0
C2408 C 0.51595 0.61439 0.4508 0.0
H2409 H 0.45239 0.61743 0.72522 0.0
H2410 H 0.47001 0.62082 0.66046 0.0
C2411 C 0.52746 0.61348 0.42122 0.0
C2412 C 0.4989 0.60441 0.50983 0.0
H2413 H 0.46644 0.6103 0.50162 0.0
C2414 C 0.49963 0.60169 0.56563 0.0
C2415 C 0.48681 0.60753 0.48624 0.0
C2416 C 0.48543 0.61006 0.42606 0.0
C2417 C 0.48858 0.60193 0.5986 0.0
C2418 C 0.47651 0.60523 0.57524 0.0
C2419 C 0.47575 0.60797 0.51942 0.0
C2420 C 0.4645 0.60498 0.60791 0.0
C2421 C 0.48986 0.59827 0.65787 0.0
C2422 C 0.45512 0.59548 0.59774 0.0
C2423 C 0.44498 0.59357 0.63442 0.0
C2424 C 0.44409 0.60111 0.68192 0.0
C2425 C 0.45287 0.61136 0.68937 0.0
C2426 C 0.46298 0.61328 0.65256 0.0
H2427 H 0.49921 0.5934 0.66656 0.0
H2428 H 0.48934 0.60714 0.68323 0.0
H2429 H 0.48186 0.59175 0.67044 0.0
H2430 H 0.45609 0.58904 0.56321 0.0
H2431 H 0.43833 0.58565 0.62723 0.0
H2432 H 0.36607 0.20484 0.47254 0.0
H2433 H 0.36718 0.22174 0.40326 0.0
H2434 H 0.33952 0.20108 0.30505 0.0
H2435 H 0.3383 0.18406 0.37405 0.0
H2436 H 0.36229 0.21542 0.24797 0.0
H2437 H 0.33219 0.24398 0.39249 0.0
H2438 H 0.34658 0.2366 0.41951 0.0
H2439 H 0.3335 0.22659 0.39648 0.0
C2440 C 0.36048 0.20368 0.43559 0.0
C2441 C 0.35192 0.1932 0.42926 0.0
C2442 C 0.36113 0.21336 0.3961 0.0
C2443 C 0.35329 0.21269 0.34965 0.0
C2444 C 0.34561 0.20173 0.34084 0.0
H2445 H 0.33404 0.26727 0.09192 0.0
H2446 H 0.3374 0.24772 0.14614 0.0
C2447 C 0.34493 0.19203 0.38036 0.0
C2448 C 0.35186 0.22413 0.3142 0.0
H2449 H 0.33865 0.25434 0.31181 0.0
C2450 C 0.35714 0.22395 0.26168 0.0
C2451 C 0.34507 0.23517 0.33247 0.0
C2452 C 0.33891 0.23566 0.38816 0.0
C2453 C 0.35604 0.23473 0.22713 0.0
C2454 C 0.34922 0.24579 0.24543 0.0
C2455 C 0.34389 0.24587 0.29793 0.0
C2456 C 0.34755 0.25749 0.21132 0.0
C2457 C 0.36243 0.2343 0.17199 0.0
C2458 C 0.35182 0.26953 0.23064 0.0
C2459 C 0.34973 0.28073 0.20022 0.0
C2460 C 0.34334 0.28012 0.14979 0.0
C2461 C 0.33906 0.26806 0.13049 0.0
C2462 C 0.34108 0.25685 0.16117 0.0
H2463 H 0.37011 0.22679 0.17019 0.0
H2464 H 0.35507 0.23192 0.14069 0.0
H2465 H 0.36678 0.2438 0.16149 0.0
H2466 H 0.35675 0.27025 0.26942 0.0
H2467 H 0.35318 0.28986 0.21624 0.0
H2468 H 0.54475 0.60796 0.21178 0.0
H2469 H 0.52893 0.60827 0.13825 0.0
H2470 H 0.5537 0.5839 0.04122 0.0
H2471 H 0.5695 0.58322 0.11537 0.0
H2472 H 0.52846 0.61487 0.02958 0.0
H2473 H 0.52128 0.56195 0.05753 0.0
H2474 H 0.53064 0.57155 0.10439 0.0
H2475 H 0.53744 0.56676 0.04017 0.0
C2476 C 0.54698 0.60284 0.17448 0.0
C2477 C 0.55829 0.59535 0.16987 0.0
C2478 C 0.53791 0.60304 0.13243 0.0
C2479 C 0.53999 0.59582 0.08492 0.0
C2480 C 0.55176 0.58925 0.0782 0.0
H2481 H 0.48215 0.57839 0.83366 0.0
H2482 H 0.50282 0.58067 0.88159 0.0
C2483 C 0.56082 0.58896 0.12047 0.0
C2484 C 0.52935 0.59439 0.04497 0.0
H2485 H 0.50809 0.57229 0.99305 0.0
C2486 C 0.52408 0.60555 0.02116 0.0
C2487 C 0.52361 0.5822 0.03429 0.0
C2488 C 0.52843 0.56993 0.0607 0.0
C2489 C 0.5131 0.60488 0.98772 0.0
C2490 C 0.5072 0.59276 0.97829 0.0
C2491 C 0.5127 0.58155 0.00043 0.0
C2492 C 0.49481 0.59159 0.94865 0.0
C2493 C 0.50777 0.61714 0.96322 0.0
C2494 C 0.48348 0.59677 0.97116 0.0
C2495 C 0.47166 0.59538 0.94427 0.0
C2496 C 0.47097 0.5888 0.89428 0.0
C2497 C 0.48235 0.58353 0.87205 0.0
C2498 C 0.49417 0.58484 0.89924 0.0
H2499 H 0.51507 0.62503 0.9631 0.0
H2500 H 0.50442 0.61546 0.92085 0.0
H2501 H 0.49934 0.62042 0.98757 0.0
H2502 H 0.48376 0.60181 0.0098 0.0
H2503 H 0.46309 0.59955 0.96253 0.0
H2504 H 0.13473 0.79238 0.96026 0.0
H2505 H 0.13448 0.77719 0.88454 0.0
H2506 H 0.15516 0.80461 0.78501 0.0
H2507 H 0.1558 0.81981 0.86133 0.0
H2508 H 0.12653 0.77657 0.7776 0.0
H2509 H 0.18021 0.77439 0.79285 0.0
H2510 H 0.1704 0.78257 0.84273 0.0
H2511 H 0.17367 0.79008 0.77821 0.0
C2512 C 0.139 0.79534 0.92199 0.0
C2513 C 0.14553 0.80722 0.91722 0.0
C2514 C 0.13884 0.78661 0.87866 0.0
C2515 C 0.14513 0.78963 0.82972 0.0
C2516 C 0.15056 0.80197 0.82301 0.0
H2517 H 0.16573 0.73466 0.57204 0.0
H2518 H 0.16151 0.75486 0.62101 0.0
C2519 C 0.15084 0.81067 0.86655 0.0
C2520 C 0.14701 0.77938 0.78836 0.0
H2521 H 0.17032 0.76055 0.72977 0.0
C2522 C 0.1361 0.77315 0.76667 0.0
C2523 C 0.15953 0.77487 0.77446 0.0
C2524 C 0.17164 0.78072 0.79852 0.0
C2525 C 0.13737 0.7624 0.73221 0.0
C2526 C 0.14986 0.75773 0.71956 0.0
C2527 C 0.16077 0.76421 0.73958 0.0
C2528 C 0.15185 0.74562 0.68869 0.0
C2529 C 0.12535 0.75601 0.71009 0.0
C2530 C 0.14798 0.73376 0.71107 0.0
C2531 C 0.15047 0.72222 0.68354 0.0
C2532 C 0.15688 0.72233 0.63308 0.0
C2533 C 0.16075 0.73425 0.61078 0.0
C2534 C 0.15833 0.74579 0.63857 0.0
H2535 H 0.11685 0.76257 0.71189 0.0
H2536 H 0.12682 0.75287 0.6673 0.0
H2537 H 0.12314 0.74731 0.73481 0.0
H2538 H 0.1432 0.73343 0.75027 0.0
H2539 H 0.14737 0.71321 0.70185 0.0
H2540 H 0.03494 0.39644 0.46423 0.0
H2541 H 0.01518 0.39396 0.51762 0.0
H2542 H 0.99294 0.4106 0.38662 0.0
H2543 H 0.01265 0.41287 0.33232 0.0
H2544 H 0.99935 0.41326 0.55165 0.0
H2545 H 0.97176 0.37864 0.42376 0.0
H2546 H 0.98884 0.38157 0.4144 0.0
H2547 H 0.97714 0.39282 0.38818 0.0
C2548 C 0.02584 0.39949 0.44655 0.0
C2549 C 0.02536 0.40485 0.39401 0.0
C2550 C 0.01455 0.39804 0.47708 0.0
C2551 C 0.00257 0.40191 0.45577 0.0
C2552 C 0.00204 0.40726 0.40334 0.0
H2553 H 0.93143 0.41763 0.62783 0.0
H2554 H 0.9475 0.41512 0.5555 0.0
C2555 C 0.01333 0.40865 0.37257 0.0
C2556 C 0.99082 0.40113 0.4901 0.0
H2557 H 0.96042 0.38821 0.49803 0.0
C2558 C 0.99088 0.40774 0.53996 0.0
C2559 C 0.97976 0.39393 0.47469 0.0
C2560 C 0.97936 0.38623 0.42257 0.0
C2561 C 0.98016 0.4074 0.57472 0.0
C2562 C 0.96911 0.40027 0.55924 0.0
C2563 C 0.96895 0.39368 0.50942 0.0
C2564 C 0.95778 0.3996 0.59554 0.0
C2565 C 0.98065 0.41469 0.62793 0.0
C2566 C 0.95798 0.3913 0.64055 0.0
C2567 C 0.94885 0.3927 0.68197 0.0
C2568 C 0.93943 0.4025 0.67906 0.0
C2569 C 0.93859 0.41003 0.63149 0.0
C2570 C 0.94774 0.40861 0.59005 0.0
H2571 H 0.98957 0.4206 0.63195 0.0
H2572 H 0.97211 0.42114 0.6316 0.0
H2573 H 0.9803 0.40772 0.66228 0.0
H2574 H 0.96571 0.38431 0.64529 0.0
H2575 H 0.94973 0.38668 0.71785 0.0
H2576 H 0.33683 0.7174 0.30346 0.0
H2577 H 0.3378 0.73725 0.24965 0.0
H2578 H 0.3759 0.74523 0.31263 0.0
H2579 H 0.37501 0.72542 0.36704 0.0
H2580 H 0.35889 0.76692 0.31267 0.0
H2581 H 0.36034 0.74217 0.11251 0.0
H2582 H 0.34719 0.73707 0.1552 0.0
H2583 H 0.36358 0.73389 0.17574 0.0
C2584 C 0.34543 0.72335 0.30588 0.0
C2585 C 0.35588 0.71978 0.33925 0.0
C2586 C 0.34598 0.73467 0.27495 0.0
C2587 C 0.35699 0.74258 0.27665 0.0
C2588 C 0.36735 0.73919 0.31061 0.0
H2589 H 0.36597 0.80183 0.02794 0.0
H2590 H 0.37151 0.78522 0.09472 0.0
C2591 C 0.36682 0.72786 0.34152 0.0
C2592 C 0.35765 0.7544 0.24283 0.0
H2593 H 0.35595 0.76478 0.11138 0.0
C2594 C 0.35839 0.76649 0.26861 0.0
C2595 C 0.35723 0.75377 0.18541 0.0
C2596 C 0.35717 0.74103 0.15545 0.0
C2597 C 0.35815 0.77802 0.2384 0.0
C2598 C 0.35699 0.77738 0.1811 0.0
C2599 C 0.35679 0.76527 0.15534 0.0
C2600 C 0.35509 0.78903 0.1469 0.0
C2601 C 0.35911 0.79074 0.26812 0.0
C2602 C 0.34424 0.79697 0.15497 0.0
C2603 C 0.34109 0.80652 0.11706 0.0
C2604 C 0.34863 0.8082 0.06994 0.0
C2605 C 0.35993 0.80077 0.06367 0.0
C2606 C 0.3631 0.79125 0.10176 0.0
H2607 H 0.36417 0.78961 0.30775 0.0
H2608 H 0.36431 0.79808 0.24345 0.0
H2609 H 0.34922 0.79439 0.27659 0.0
H2610 H 0.33776 0.79527 0.18885 0.0
H2611 H 0.33231 0.81205 0.12312 0.0
H2612 H 0.95589 0.61458 0.77358 0.0
H2613 H 0.97101 0.61464 0.84963 0.0
H2614 H 0.94384 0.59291 0.94641 0.0
H2615 H 0.92873 0.59245 0.86972 0.0
H2616 H 0.9713 0.62204 0.95722 0.0
H2617 H 0.97459 0.56853 0.93726 0.0
H2618 H 0.96628 0.57843 0.88803 0.0
H2619 H 0.95874 0.57468 0.95204 0.0
C2620 C 0.95298 0.61003 0.81134 0.0
C2621 C 0.9412 0.60327 0.81519 0.0
C2622 C 0.96166 0.61008 0.85485 0.0
C2623 C 0.95869 0.60347 0.90308 0.0
C2624 C 0.94645 0.59777 0.90894 0.0
H2625 H 0.01385 0.583 0.16062 0.0
H2626 H 0.99359 0.58697 0.11165 0.0
C2627 C 0.93779 0.5976 0.86521 0.0
C2628 C 0.96893 0.60157 0.94456 0.0
H2629 H 0.98816 0.57837 0.00153 0.0
C2630 C 0.9749 0.61249 0.96739 0.0
C2631 C 0.97367 0.58909 0.95746 0.0
C2632 C 0.96809 0.577 0.93217 0.0
C2633 C 0.98564 0.61127 0.00197 0.0
C2634 C 0.99055 0.59882 0.0136 0.0
C2635 C 0.98431 0.58789 0.99249 0.0
C2636 C 0.00268 0.59693 0.04442 0.0
C2637 C 0.99178 0.62328 0.02527 0.0
C2638 C 0.01448 0.60106 0.02227 0.0
C2639 C 0.02607 0.5987 0.04976 0.0
C2640 C 0.02605 0.59219 0.1 0.0
C2641 C 0.01419 0.58806 0.12207 0.0
C2642 C 0.00261 0.59034 0.09428 0.0
H2643 H 0.98508 0.63168 0.02385 0.0
H2644 H 0.99484 0.62168 0.06806 0.0
H2645 H 0.0005 0.62575 0.0011 0.0
H2646 H 0.01474 0.60594 0.98329 0.0
H2647 H 0.03503 0.60201 0.03165 0.0
H2648 H 0.14912 0.28564 0.78292 0.0
H2649 H 0.14605 0.26615 0.72835 0.0
H2650 H 0.16305 0.24315 0.85612 0.0
H2651 H 0.16589 0.26258 0.91163 0.0
H2652 H 0.16442 0.24987 0.69054 0.0
H2653 H 0.13034 0.22295 0.82323 0.0
H2654 H 0.13388 0.23988 0.83298 0.0
H2655 H 0.145 0.22776 0.85676 0.0
C2656 C 0.15215 0.27643 0.79959 0.0
C2657 C 0.15772 0.27565 0.85168 0.0
C2658 C 0.15037 0.2653 0.76838 0.0
C2659 C 0.15411 0.25317 0.78855 0.0
C2660 C 0.15978 0.25236 0.84033 0.0
H2661 H 0.16477 0.18018 0.62329 0.0
H2662 H 0.16321 0.197 0.69307 0.0
C2663 C 0.1615 0.2635 0.87178 0.0
C2664 C 0.15271 0.24153 0.75393 0.0
H2665 H 0.13906 0.21144 0.74757 0.0
C2666 C 0.15882 0.24151 0.70294 0.0
C2667 C 0.1454 0.23061 0.77026 0.0
C2668 C 0.13818 0.2303 0.82358 0.0
C2669 C 0.15792 0.23085 0.66802 0.0
C2670 C 0.15066 0.21995 0.68439 0.0
C2671 C 0.1446 0.21987 0.73538 0.0
C2672 C 0.14945 0.20861 0.64834 0.0
C2673 C 0.16482 0.23124 0.61389 0.0
C2674 C 0.14177 0.20936 0.60148 0.0
C2675 C 0.14261 0.19979 0.56159 0.0
C2676 C 0.15122 0.18936 0.56787 0.0
C2677 C 0.1581 0.18812 0.61704 0.0
C2678 C 0.15722 0.1977 0.65699 0.0
H2679 H 0.17151 0.2396 0.61066 0.0
H2680 H 0.1704 0.22219 0.60748 0.0
H2681 H 0.15758 0.23197 0.58067 0.0
H2682 H 0.13568 0.21772 0.59439 0.0
H2683 H 0.13712 0.20101 0.5244 0.0
H2684 H 0.4831 0.41915 0.66601 0.0
H2685 H 0.50281 0.41658 0.61177 0.0
H2686 H 0.48064 0.3984 0.48425 0.0
H2687 H 0.4609 0.40121 0.53736 0.0
H2688 H 0.5145 0.39452 0.57271 0.0
H2689 H 0.49985 0.42628 0.40191 0.0
H2690 H 0.49131 0.42602 0.46594 0.0
H2691 H 0.48821 0.41382 0.41532 0.0
C2692 C 0.48241 0.41471 0.62621 0.0
C2693 C 0.47041 0.41049 0.60578 0.0
C2694 C 0.49368 0.4132 0.59539 0.0
C2695 C 0.49315 0.40748 0.54366 0.0
C2696 C 0.48122 0.40312 0.52352 0.0
H2697 H 0.54536 0.38468 0.29093 0.0
H2698 H 0.52849 0.38532 0.36037 0.0
C2699 C 0.46995 0.4047 0.55406 0.0
C2700 C 0.50506 0.40588 0.51078 0.0
H2701 H 0.51803 0.41256 0.38623 0.0
C2702 C 0.51534 0.39856 0.53213 0.0
C2703 C 0.50616 0.41124 0.45801 0.0
C2704 C 0.49585 0.41989 0.43414 0.0
C2705 C 0.52651 0.39612 0.50123 0.0
C2706 C 0.52736 0.40111 0.44793 0.0
C2707 C 0.51723 0.40862 0.42702 0.0
C2708 C 0.53864 0.39874 0.41252 0.0
C2709 C 0.53724 0.38802 0.52494 0.0
C2710 C 0.5501 0.40576 0.41999 0.0
C2711 C 0.55977 0.40549 0.38022 0.0
C2712 C 0.55808 0.39821 0.33235 0.0
C2713 C 0.54698 0.39042 0.32717 0.0
C2714 C 0.53731 0.39077 0.36676 0.0
H2715 H 0.53459 0.38383 0.56505 0.0
H2716 H 0.53975 0.38005 0.49656 0.0
H2717 H 0.54601 0.39408 0.53017 0.0
H2718 H 0.55122 0.41204 0.45496 0.0
H2719 H 0.5682 0.41157 0.38554 0.0
loop_
_geom_bond_atom_site_label_1
_geom_bond_atom_site_label_2
_geom_bond_distance
_geom_bond_site_symmetry_2
_ccdc_geom_bond_type
C0 O1 1.160 . S
C0 O7 1.185 . S
O1 C0 1.160 . S
O2 Zn3 1.899 . S
O2 C10 1.284 . S
Zn3 O2 1.899 . S
Zn3 O4 2.032 . S
Zn3 O7 2.086 . S
Zn3 O12 1.977 . S
O4 Zn3 2.032 . S
O4 C8 1.278 . S
C5 O6 1.203 . S
C5 O12 1.267 . S
O6 C5 1.203 . S
O7 C0 1.185 . S
O7 Zn3 2.086 . S
C8 O4 1.278 . S
C8 O9 1.211 . S
O9 C8 1.211 . S
C10 O2 1.284 . S
C10 O11 1.273 . S
O11 C10 1.273 . S
O12 Zn3 1.977 . S
O12 C5 1.267 . S
C13 O14 1.160 . S
C13 O20 1.185 . S
O14 C13 1.160 . S
O15 Zn16 1.899 . S
O15 C23 1.284 . S
Zn16 O15 1.899 . S
Zn16 O17 2.032 . S
Zn16 O20 2.086 . S
Zn16 O25 1.977 . S
O17 Zn16 2.032 . S
O17 C21 1.278 . S
C18 O19 1.203 . S
C18 O25 1.267 . S
O19 C18 1.203 . S
O20 C13 1.185 . S
O20 Zn16 2.086 . S
C21 O17 1.278 . S
C21 O22 1.211 . S
O22 C21 1.211 . S
C23 O15 1.284 . S
C23 O24 1.273 . S
O24 C23 1.273 . S
O25 Zn16 1.977 . S
O25 C18 1.267 . S
C26 O27 1.160 . S
C26 O33 1.185 . S
O27 C26 1.160 . S
O28 Zn29 1.899 . S
O28 C36 1.284 . S
Zn29 O28 1.899 . S
Zn29 O30 2.032 . S
Zn29 O33 2.086 . S
Zn29 O38 1.977 . S
O30 Zn29 2.032 . S
O30 C34 1.278 . S
C31 O32 1.203 . S
C31 O38 1.267 . S
O32 C31 1.203 . S
O33 C26 1.185 . S
O33 Zn29 2.086 . S
C34 O30 1.278 . S
C34 O35 1.211 . S
O35 C34 1.211 . S
C36 O28 1.284 . S
C36 O37 1.273 . S
O37 C36 1.273 . S
O38 Zn29 1.977 . S
O38 C31 1.267 . S
C39 O40 1.160 . S
C39 O46 1.185 . S
O40 C39 1.160 . S
O41 Zn42 1.899 . S
O41 C49 1.284 . S
Zn42 O41 1.899 . S
Zn42 O43 2.032 . S
Zn42 O46 2.086 . S
Zn42 O51 1.977 . S
O43 Zn42 2.032 . S
O43 C47 1.278 . S
C44 O45 1.203 . S
C44 O51 1.267 . S
O45 C44 1.203 . S
O46 C39 1.185 . S
O46 Zn42 2.086 . S
C47 O43 1.278 . S
C47 O48 1.211 . S
O48 C47 1.211 . S
C49 O41 1.284 . S
C49 O50 1.273 . S
O50 C49 1.273 . S
O51 Zn42 1.977 . S
O51 C44 1.267 . S
C52 O53 1.160 . S
C52 O59 1.185 . S
O53 C52 1.160 . S
O54 Zn55 1.899 . S
O54 C62 1.284 . S
Zn55 O54 1.899 . S
Zn55 O56 2.032 . S
Zn55 O59 2.086 . S
Zn55 O64 1.977 . S
O56 Zn55 2.032 . S
O56 C60 1.278 . S
C57 O58 1.203 . S
C57 O64 1.267 . S
O58 C57 1.203 . S
O59 C52 1.185 . S
O59 Zn55 2.086 . S
C60 O56 1.278 . S
C60 O61 1.211 . S
O61 C60 1.211 . S
C62 O54 1.284 . S
C62 O63 1.273 . S
O63 C62 1.273 . S
O64 Zn55 1.977 . S
O64 C57 1.267 . S
C65 O66 1.160 . S
C65 O72 1.185 . S
O66 C65 1.160 . S
O67 Zn68 1.899 . S
O67 C75 1.284 . S
Zn68 O67 1.899 . S
Zn68 O69 2.032 . S
Zn68 O72 2.086 . S
Zn68 O77 1.977 . S
O69 Zn68 2.032 . S
O69 C73 1.278 . S
C70 O71 1.203 . S
C70 O77 1.267 . S
O71 C70 1.203 . S
O72 C65 1.185 . S
O72 Zn68 2.086 . S
C73 O69 1.278 . S
C73 O74 1.211 . S
O74 C73 1.211 . S
C75 O67 1.284 . S
C75 O76 1.273 . S
O76 C75 1.273 . S
O77 Zn68 1.977 . S
O77 C70 1.267 . S
C78 O79 1.160 . S
C78 O85 1.185 . S
O79 C78 1.160 . S
O80 Zn81 1.899 . S
O80 C88 1.284 . S
Zn81 O80 1.899 . S
Zn81 O82 2.032 . S
Zn81 O85 2.086 . S
Zn81 O90 1.977 . S
O82 Zn81 2.032 . S
O82 C86 1.278 . S
C83 O84 1.203 . S
C83 O90 1.267 . S
O84 C83 1.203 . S
O85 C78 1.185 . S
O85 Zn81 2.086 . S
C86 O82 1.278 . S
C86 O87 1.211 . S
O87 C86 1.211 . S
C88 O80 1.284 . S
C88 O89 1.273 . S
O89 C88 1.273 . S
O90 Zn81 1.977 . S
O90 C83 1.267 . S
C91 O92 1.160 . S
C91 O98 1.185 . S
O92 C91 1.160 . S
O93 Zn94 1.899 . S
O93 C101 1.284 . S
Zn94 O93 1.899 . S
Zn94 O95 2.032 . S
Zn94 O98 2.086 . S
Zn94 O103 1.977 . S
O95 Zn94 2.032 . S
O95 C99 1.278 . S
C96 O97 1.203 . S
C96 O103 1.267 . S
O97 C96 1.203 . S
O98 C91 1.185 . S
O98 Zn94 2.086 . S
C99 O95 1.278 . S
C99 O100 1.211 . S
O100 C99 1.211 . S
C101 O93 1.284 . S
C101 O102 1.273 . S
O102 C101 1.273 . S
O103 Zn94 1.977 . S
O103 C96 1.267 . S
C104 O105 1.160 . S
C104 O111 1.185 . S
O105 C104 1.160 . S
O106 Zn107 1.899 . S
O106 C114 1.284 . S
Zn107 O106 1.899 . S
Zn107 O108 2.032 . S
Zn107 O111 2.086 . S
Zn107 O116 1.977 . S
O108 Zn107 2.032 . S
O108 C112 1.278 . S
C109 O110 1.203 . S
C109 O116 1.267 . S
O110 C109 1.203 . S
O111 C104 1.185 . S
O111 Zn107 2.086 . S
C112 O108 1.278 . S
C112 O113 1.211 . S
O113 C112 1.211 . S
C114 O106 1.284 . S
C114 O115 1.273 . S
O115 C114 1.273 . S
O116 Zn107 1.977 . S
O116 C109 1.267 . S
C117 O118 1.160 . S
C117 O124 1.185 . S
O118 C117 1.160 . S
O119 Zn120 1.899 . S
O119 C127 1.284 . S
Zn120 O119 1.899 . S
Zn120 O121 2.032 . S
Zn120 O124 2.086 . S
Zn120 O129 1.977 . S
O121 Zn120 2.032 . S
O121 C125 1.278 . S
C122 O123 1.203 . S
C122 O129 1.267 . S
O123 C122 1.203 . S
O124 C117 1.185 . S
O124 Zn120 2.086 . S
C125 O121 1.278 . S
C125 O126 1.211 . S
O126 C125 1.211 . S
C127 O119 1.284 . S
C127 O128 1.273 . S
O128 C127 1.273 . S
O129 Zn120 1.977 . S
O129 C122 1.267 . S
C130 O131 1.160 . S
C130 O137 1.185 . S
O131 C130 1.160 . S
O132 Zn133 1.899 . S
O132 C140 1.284 . S
Zn133 O132 1.899 . S
Zn133 O134 2.032 . S
Zn133 O137 2.086 . S
Zn133 O142 1.977 . S
O134 Zn133 2.032 . S
O134 C138 1.278 . S
C135 O136 1.203 . S
C135 O142 1.267 . S
O136 C135 1.203 . S
O137 C130 1.185 . S
O137 Zn133 2.086 . S
C138 O134 1.278 . S
C138 O139 1.211 . S
O139 C138 1.211 . S
C140 O132 1.284 . S
C140 O141 1.273 . S
O141 C140 1.273 . S
O142 Zn133 1.977 . S
O142 C135 1.267 . S
C143 O144 1.160 . S
C143 O150 1.185 . S
O144 C143 1.160 . S
O145 Zn146 1.899 . S
O145 C153 1.284 . S
Zn146 O145 1.899 . S
Zn146 O147 2.032 . S
Zn146 O150 2.086 . S
Zn146 O155 1.977 . S
O147 Zn146 2.032 . S
O147 C151 1.278 . S
C148 O149 1.203 . S
C148 O155 1.267 . S
O149 C148 1.203 . S
O150 C143 1.185 . S
O150 Zn146 2.086 . S
C151 O147 1.278 . S
C151 O152 1.211 . S
O152 C151 1.211 . S
C153 O145 1.284 . S
C153 O154 1.273 . S
O154 C153 1.273 . S
O155 Zn146 1.977 . S
O155 C148 1.267 . S
C156 O157 1.160 . S
C156 O163 1.185 . S
O157 C156 1.160 . S
O158 Zn159 1.899 . S
O158 C166 1.284 . S
Zn159 O158 1.899 . S
Zn159 O160 2.032 . S
Zn159 O163 2.086 . S
Zn159 O168 1.977 . S
O160 Zn159 2.032 . S
O160 C164 1.278 . S
C161 O162 1.203 . S
C161 O168 1.267 . S
O162 C161 1.203 . S
O163 C156 1.185 . S
O163 Zn159 2.086 . S
C164 O160 1.278 . S
C164 O165 1.211 . S
O165 C164 1.211 . S
C166 O158 1.284 . S
C166 O167 1.273 . S
O167 C166 1.273 . S
O168 Zn159 1.977 . S
O168 C161 1.267 . S
C169 O170 1.160 . S
C169 O176 1.185 . S
O170 C169 1.160 . S
O171 Zn172 1.899 . S
O171 C179 1.284 . S
Zn172 O171 1.899 . S
Zn172 O173 2.032 . S
Zn172 O176 2.086 . S
Zn172 O181 1.977 . S
O173 Zn172 2.032 . S
O173 C177 1.278 . S
C174 O175 1.203 . S
C174 O181 1.267 . S
O175 C174 1.203 . S
O176 C169 1.185 . S
O176 Zn172 2.086 . S
C177 O173 1.278 . S
C177 O178 1.211 . S
O178 C177 1.211 . S
C179 O171 1.284 . S
C179 O180 1.273 . S
O180 C179 1.273 . S
O181 Zn172 1.977 . S
O181 C174 1.267 . S
C182 O183 1.160 . S
C182 O189 1.185 . S
O183 C182 1.160 . S
O184 Zn185 1.899 . S
O184 C192 1.284 . S
Zn185 O184 1.899 . S
Zn185 O186 2.032 . S
Zn185 O189 2.086 . S
Zn185 O194 1.977 . S
O186 Zn185 2.032 . S
O186 C190 1.278 . S
C187 O188 1.203 . S
C187 O194 1.267 . S
O188 C187 1.203 . S
O189 C182 1.185 . S
O189 Zn185 2.086 . S
C190 O186 1.278 . S
C190 O191 1.211 . S
O191 C190 1.211 . S
C192 O184 1.284 . S
C192 O193 1.273 . S
O193 C192 1.273 . S
O194 Zn185 1.977 . S
O194 C187 1.267 . S
C195 O196 1.160 . S
C195 O202 1.185 . S
O196 C195 1.160 . S
O197 Zn198 1.899 . S
O197 C205 1.284 . S
Zn198 O197 1.899 . S
Zn198 O199 2.032 . S
Zn198 O202 2.086 . S
Zn198 O207 1.977 . S
O199 Zn198 2.032 . S
O199 C203 1.278 . S
C200 O201 1.203 . S
C200 O207 1.267 . S
O201 C200 1.203 . S
O202 C195 1.185 . S
O202 Zn198 2.086 . S
C203 O199 1.278 . S
C203 O204 1.211 . S
O204 C203 1.211 . S
C205 O197 1.284 . S
C205 O206 1.273 . S
O206 C205 1.273 . S
O207 Zn198 1.977 . S
O207 C200 1.267 . S
C208 O209 1.160 . S
C208 O215 1.185 . S
O209 C208 1.160 . S
O210 Zn211 1.899 . S
O210 C218 1.284 . S
Zn211 O210 1.899 . S
Zn211 O212 2.032 . S
Zn211 O215 2.086 . S
Zn211 O220 1.977 . S
O212 Zn211 2.032 . S
O212 C216 1.278 . S
C213 O214 1.203 . S
C213 O220 1.267 . S
O214 C213 1.203 . S
O215 C208 1.185 . S
O215 Zn211 2.086 . S
C216 O212 1.278 . S
C216 O217 1.211 . S
O217 C216 1.211 . S
C218 O210 1.284 . S
C218 O219 1.273 . S
O219 C218 1.273 . S
O220 Zn211 1.977 . S
O220 C213 1.267 . S
C221 O222 1.160 . S
C221 O228 1.185 . S
O222 C221 1.160 . S
O223 Zn224 1.899 . S
O223 C231 1.284 . S
Zn224 O223 1.899 . S
Zn224 O225 2.032 . S
Zn224 O228 2.086 . S
Zn224 O233 1.977 . S
O225 Zn224 2.032 . S
O225 C229 1.278 . S
C226 O227 1.203 . S
C226 O233 1.267 . S
O227 C226 1.203 . S
O228 C221 1.185 . S
O228 Zn224 2.086 . S
C229 O225 1.278 . S
C229 O230 1.211 . S
O230 C229 1.211 . S
C231 O223 1.284 . S
C231 O232 1.273 . S
O232 C231 1.273 . S
O233 Zn224 1.977 . S
O233 C226 1.267 . S
C234 O235 1.160 . S
C234 O241 1.185 . S
O235 C234 1.160 . S
O236 Zn237 1.899 . S
O236 C244 1.284 . S
Zn237 O236 1.899 . S
Zn237 O238 2.032 . S
Zn237 O241 2.086 . S
Zn237 O246 1.977 . S
O238 Zn237 2.032 . S
O238 C242 1.278 . S
C239 O240 1.203 . S
C239 O246 1.267 . S
O240 C239 1.203 . S
O241 C234 1.185 . S
O241 Zn237 2.086 . S
C242 O238 1.278 . S
C242 O243 1.211 . S
O243 C242 1.211 . S
C244 O236 1.284 . S
C244 O245 1.273 . S
O245 C244 1.273 . S
O246 Zn237 1.977 . S
O246 C239 1.267 . S
C247 O248 1.160 . S
C247 O254 1.185 . S
O248 C247 1.160 . S
O249 Zn250 1.899 . S
O249 C257 1.284 . S
Zn250 O249 1.899 . S
Zn250 O251 2.032 . S
Zn250 O254 2.086 . S
Zn250 O259 1.977 . S
O251 Zn250 2.032 . S
O251 C255 1.278 . S
C252 O253 1.203 . S
C252 O259 1.267 . S
O253 C252 1.203 . S
O254 C247 1.185 . S
O254 Zn250 2.086 . S
C255 O251 1.278 . S
C255 O256 1.211 . S
O256 C255 1.211 . S
C257 O249 1.284 . S
C257 O258 1.273 . S
O258 C257 1.273 . S
O259 Zn250 1.977 . S
O259 C252 1.267 . S
C260 O261 1.160 . S
C260 O267 1.185 . S
O261 C260 1.160 . S
O262 Zn263 1.899 . S
O262 C270 1.284 . S
Zn263 O262 1.899 . S
Zn263 O264 2.032 . S
Zn263 O267 2.086 . S
Zn263 O272 1.977 . S
O264 Zn263 2.032 . S
O264 C268 1.278 . S
C265 O266 1.203 . S
C265 O272 1.267 . S
O266 C265 1.203 . S
O267 C260 1.185 . S
O267 Zn263 2.086 . S
C268 O264 1.278 . S
C268 O269 1.211 . S
O269 C268 1.211 . S
C270 O262 1.284 . S
C270 O271 1.273 . S
O271 C270 1.273 . S
O272 Zn263 1.977 . S
O272 C265 1.267 . S
C273 O274 1.160 . S
C273 O280 1.185 . S
O274 C273 1.160 . S
O275 Zn276 1.899 . S
O275 C283 1.284 . S
Zn276 O275 1.899 . S
Zn276 O277 2.032 . S
Zn276 O280 2.086 . S
Zn276 O285 1.977 . S
O277 Zn276 2.032 . S
O277 C281 1.278 . S
C278 O279 1.203 . S
C278 O285 1.267 . S
O279 C278 1.203 . S
O280 C273 1.185 . S
O280 Zn276 2.086 . S
C281 O277 1.278 . S
C281 O282 1.211 . S
O282 C281 1.211 . S
C283 O275 1.284 . S
C283 O284 1.273 . S
O284 C283 1.273 . S
O285 Zn276 1.977 . S
O285 C278 1.267 . S
C286 O287 1.160 . S
C286 O293 1.185 . S
O287 C286 1.160 . S
O288 Zn289 1.899 . S
O288 C296 1.284 . S
Zn289 O288 1.899 . S
Zn289 O290 2.032 . S
Zn289 O293 2.086 . S
Zn289 O298 1.977 . S
O290 Zn289 2.032 . S
O290 C294 1.278 . S
C291 O292 1.203 . S
C291 O298 1.267 . S
O292 C291 1.203 . S
O293 C286 1.185 . S
O293 Zn289 2.086 . S
C294 O290 1.278 . S
C294 O295 1.211 . S
O295 C294 1.211 . S
C296 O288 1.284 . S
C296 O297 1.273 . S
O297 C296 1.273 . S
O298 Zn289 1.977 . S
O298 C291 1.267 . S
C299 O300 1.160 . S
C299 O306 1.185 . S
O300 C299 1.160 . S
O301 Zn302 1.899 . S
O301 C309 1.284 . S
Zn302 O301 1.899 . S
Zn302 O303 2.032 . S
Zn302 O306 2.086 . S
Zn302 O311 1.977 . S
O303 Zn302 2.032 . S
O303 C307 1.278 . S
C304 O305 1.203 . S
C304 O311 1.267 . S
O305 C304 1.203 . S
O306 C299 1.185 . S
O306 Zn302 2.086 . S
C307 O303 1.278 . S
C307 O308 1.211 . S
O308 C307 1.211 . S
C309 O301 1.284 . S
C309 O310 1.273 . S
O310 C309 1.273 . S
O311 Zn302 1.977 . S
O311 C304 1.267 . S
C312 O313 1.160 . S
C312 O319 1.185 . S
O313 C312 1.160 . S
O314 Zn315 1.899 . S
O314 C322 1.284 . S
Zn315 O314 1.899 . S
Zn315 O316 2.032 . S
Zn315 O319 2.086 . S
Zn315 O324 1.977 . S
O316 Zn315 2.032 . S
O316 C320 1.278 . S
C317 O318 1.203 . S
C317 O324 1.267 . S
O318 C317 1.203 . S
O319 C312 1.185 . S
O319 Zn315 2.086 . S
C320 O316 1.278 . S
C320 O321 1.211 . S
O321 C320 1.211 . S
C322 O314 1.284 . S
C322 O323 1.273 . S
O323 C322 1.273 . S
O324 Zn315 1.977 . S
O324 C317 1.267 . S
C325 O326 1.160 . S
C325 O332 1.185 . S
O326 C325 1.160 . S
O327 Zn328 1.899 . S
O327 C335 1.284 . S
Zn328 O327 1.899 . S
Zn328 O329 2.032 . S
Zn328 O332 2.086 . S
Zn328 O337 1.977 . S
O329 Zn328 2.032 . S
O329 C333 1.278 . S
C330 O331 1.203 . S
C330 O337 1.267 . S
O331 C330 1.203 . S
O332 C325 1.185 . S
O332 Zn328 2.086 . S
C333 O329 1.278 . S
C333 O334 1.211 . S
O334 C333 1.211 . S
C335 O327 1.284 . S
C335 O336 1.273 . S
O336 C335 1.273 . S
O337 Zn328 1.977 . S
O337 C330 1.267 . S
C338 O339 1.160 . S
C338 O345 1.185 . S
O339 C338 1.160 . S
O340 Zn341 1.899 . S
O340 C348 1.284 . S
Zn341 O340 1.899 . S
Zn341 O342 2.032 . S
Zn341 O345 2.086 . S
Zn341 O350 1.977 . S
O342 Zn341 2.032 . S
O342 C346 1.278 . S
C343 O344 1.203 . S
C343 O350 1.267 . S
O344 C343 1.203 . S
O345 C338 1.185 . S
O345 Zn341 2.086 . S
C346 O342 1.278 . S
C346 O347 1.211 . S
O347 C346 1.211 . S
C348 O340 1.284 . S
C348 O349 1.273 . S
O349 C348 1.273 . S
O350 Zn341 1.977 . S
O350 C343 1.267 . S
C351 O352 1.160 . S
C351 O358 1.185 . S
O352 C351 1.160 . S
O353 Zn354 1.899 . S
O353 C361 1.284 . S
Zn354 O353 1.899 . S
Zn354 O355 2.032 . S
Zn354 O358 2.086 . S
Zn354 O363 1.977 . S
O355 Zn354 2.032 . S
O355 C359 1.278 . S
C356 O357 1.203 . S
C356 O363 1.267 . S
O357 C356 1.203 . S
O358 C351 1.185 . S
O358 Zn354 2.086 . S
C359 O355 1.278 . S
C359 O360 1.211 . S
O360 C359 1.211 . S
C361 O353 1.284 . S
C361 O362 1.273 . S
O362 C361 1.273 . S
O363 Zn354 1.977 . S
O363 C356 1.267 . S
C364 O365 1.160 . S
C364 O371 1.185 . S
O365 C364 1.160 . S
O366 Zn367 1.899 . S
O366 C374 1.284 . S
Zn367 O366 1.899 . S
Zn367 O368 2.032 . S
Zn367 O371 2.086 . S
Zn367 O376 1.977 . S
O368 Zn367 2.032 . S
O368 C372 1.278 . S
C369 O370 1.203 . S
C369 O376 1.267 . S
O370 C369 1.203 . S
O371 C364 1.185 . S
O371 Zn367 2.086 . S
C372 O368 1.278 . S
C372 O373 1.211 . S
O373 C372 1.211 . S
C374 O366 1.284 . S
C374 O375 1.273 . S
O375 C374 1.273 . S
O376 Zn367 1.977 . S
O376 C369 1.267 . S
C377 O378 1.160 . S
C377 O384 1.185 . S
O378 C377 1.160 . S
O379 Zn380 1.899 . S
O379 C387 1.284 . S
Zn380 O379 1.899 . S
Zn380 O381 2.032 . S
Zn380 O384 2.086 . S
Zn380 O389 1.977 . S
O381 Zn380 2.032 . S
O381 C385 1.278 . S
C382 O383 1.203 . S
C382 O389 1.267 . S
O383 C382 1.203 . S
O384 C377 1.185 . S
O384 Zn380 2.086 . S
C385 O381 1.278 . S
C385 O386 1.211 . S
O386 C385 1.211 . S
C387 O379 1.284 . S
C387 O388 1.273 . S
O388 C387 1.273 . S
O389 Zn380 1.977 . S
O389 C382 1.267 . S
C390 O391 1.160 . S
C390 O397 1.185 . S
O391 C390 1.160 . S
O392 Zn393 1.899 . S
O392 C400 1.284 . S
Zn393 O392 1.899 . S
Zn393 O394 2.032 . S
Zn393 O397 2.086 . S
Zn393 O402 1.977 . S
O394 Zn393 2.032 . S
O394 C398 1.278 . S
C395 O396 1.203 . S
C395 O402 1.267 . S
O396 C395 1.203 . S
O397 C390 1.185 . S
O397 Zn393 2.086 . S
C398 O394 1.278 . S
C398 O399 1.211 . S
O399 C398 1.211 . S
C400 O392 1.284 . S
C400 O401 1.273 . S
O401 C400 1.273 . S
O402 Zn393 1.977 . S
O402 C395 1.267 . S
C403 O404 1.160 . S
C403 O410 1.185 . S
O404 C403 1.160 . S
O405 Zn406 1.899 . S
O405 C413 1.284 . S
Zn406 O405 1.899 . S
Zn406 O407 2.032 . S
Zn406 O410 2.086 . S
Zn406 O415 1.977 . S
O407 Zn406 2.032 . S
O407 C411 1.278 . S
C408 O409 1.203 . S
C408 O415 1.267 . S
O409 C408 1.203 . S
O410 C403 1.185 . S
O410 Zn406 2.086 . S
C411 O407 1.278 . S
C411 O412 1.211 . S
O412 C411 1.211 . S
C413 O405 1.284 . S
C413 O414 1.273 . S
O414 C413 1.273 . S
O415 Zn406 1.977 . S
O415 C408 1.267 . S
H416 C424 0.929 . S
H417 C426 0.930 . S
H418 C428 0.930 . S
H419 C431 0.929 . S
H420 C434 0.930 . S
H421 C436 0.960 . S
H422 C436 0.960 . S
H423 C436 0.960 . S
C424 H416 0.929 . S
C424 C425 1.377 . S
C424 C426 1.384 . S
C425 C424 1.377 . S
C425 C431 1.390 . S
C426 H417 0.930 . S
C426 C424 1.384 . S
C426 C427 1.372 . S
C427 C426 1.372 . S
C427 C428 1.400 . S
C427 C432 1.490 . S
C428 H418 0.930 . S
C428 C427 1.400 . S
C428 C431 1.386 . S
H429 C445 0.930 . S
H430 C446 0.931 . S
C431 H419 0.929 . S
C431 C425 1.390 . S
C431 C428 1.386 . S
C432 C427 1.490 . S
C432 C434 1.395 . S
C432 C435 1.403 . S
H433 C439 0.930 . S
C434 H420 0.930 . S
C434 C432 1.395 . S
C434 C437 1.403 . S
C435 C432 1.403 . S
C435 C436 1.524 . S
C435 C439 1.400 . S
C436 H421 0.960 . S
C436 H422 0.960 . S
C436 H423 0.960 . S
C436 C435 1.524 . S
C437 C434 1.403 . S
C437 C438 1.392 . S
C437 C441 1.495 . S
C438 C437 1.392 . S
C438 C439 1.385 . S
C438 C440 1.478 . S
C439 H433 0.930 . S
C439 C435 1.400 . S
C439 C438 1.385 . S
C440 C438 1.478 . S
C440 C442 1.381 . S
C440 C446 1.383 . S
C441 C437 1.495 . S
C441 H447 0.959 . S
C441 H448 0.961 . S
C441 H449 0.960 . S
C442 C440 1.381 . S
C442 C443 1.394 . S
C442 H450 0.930 . S
C443 C442 1.394 . S
C443 C444 1.383 . S
C443 H451 0.929 . S
C444 C443 1.383 . S
C444 C445 1.377 . S
C445 H429 0.930 . S
C445 C444 1.377 . S
C445 C446 1.379 . S
C446 H430 0.931 . S
C446 C440 1.383 . S
C446 C445 1.379 . S
H447 C441 0.959 . S
H448 C441 0.961 . S
H449 C441 0.960 . S
H450 C442 0.930 . S
H451 C443 0.929 . S
H452 C460 0.929 . S
H453 C462 0.930 . S
H454 C464 0.930 . S
H455 C467 0.929 . S
H456 C470 0.930 . S
H457 C472 0.960 . S
H458 C472 0.960 . S
H459 C472 0.960 . S
C460 H452 0.929 . S
C460 C461 1.377 . S
C460 C462 1.384 . S
C461 C460 1.377 . S
C461 C467 1.390 . S
C462 H453 0.930 . S
C462 C460 1.384 . S
C462 C463 1.372 . S
C463 C462 1.372 . S
C463 C464 1.400 . S
C463 C468 1.490 . S
C464 H454 0.930 . S
C464 C463 1.400 . S
C464 C467 1.386 . S
H465 C481 0.930 . S
H466 C482 0.931 . S
C467 H455 0.929 . S
C467 C461 1.390 . S
C467 C464 1.386 . S
C468 C463 1.490 . S
C468 C470 1.395 . S
C468 C471 1.403 . S
H469 C475 0.930 . S
C470 H456 0.930 . S
C470 C468 1.395 . S
C470 C473 1.403 1_565 S
C471 C468 1.403 . S
C471 C472 1.524 . S
C471 C475 1.400 1_565 S
C472 H457 0.960 . S
C472 H458 0.960 . S
C472 H459 0.960 . S
C472 C471 1.524 . S
C473 C470 1.403 1_545 S
C473 C474 1.392 . S
C473 C477 1.495 . S
C474 C473 1.392 . S
C474 C475 1.385 . S
C474 C476 1.478 . S
C475 H469 0.930 . S
C475 C471 1.400 1_545 S
C475 C474 1.385 . S
C476 C474 1.478 . S
C476 C478 1.381 . S
C476 C482 1.383 . S
C477 C473 1.495 . S
C477 H483 0.959 . S
C477 H484 0.961 . S
C477 H485 0.960 . S
C478 C476 1.381 . S
C478 C479 1.394 . S
C478 H486 0.930 . S
C479 C478 1.394 . S
C479 C480 1.383 . S
C479 H487 0.929 . S
C480 C479 1.383 . S
C480 C481 1.377 . S
C481 H465 0.930 . S
C481 C480 1.377 . S
C481 C482 1.379 . S
C482 H466 0.931 . S
C482 C476 1.383 . S
C482 C481 1.379 . S
H483 C477 0.959 . S
H484 C477 0.961 . S
H485 C477 0.960 . S
H486 C478 0.930 . S
H487 C479 0.929 . S
H488 C496 0.929 . S
H489 C498 0.930 . S
H490 C500 0.930 . S
H491 C503 0.929 . S
H492 C506 0.930 . S
H493 C508 0.960 . S
H494 C508 0.960 . S
H495 C508 0.960 . S
C496 H488 0.929 . S
C496 C497 1.377 . S
C496 C498 1.384 . S
C497 C496 1.377 . S
C497 C503 1.390 . S
C498 H489 0.930 . S
C498 C496 1.384 . S
C498 C499 1.372 . S
C499 C498 1.372 . S
C499 C500 1.400 . S
C499 C504 1.490 . S
C500 H490 0.930 . S
C500 C499 1.400 . S
C500 C503 1.386 . S
H501 C517 0.930 . S
H502 C518 0.931 . S
C503 H491 0.929 . S
C503 C497 1.390 . S
C503 C500 1.386 . S
C504 C499 1.490 . S
C504 C506 1.395 1_554 S
C504 C507 1.403 . S
H505 C511 0.930 . S
C506 H492 0.930 . S
C506 C504 1.395 1_556 S
C506 C509 1.403 . S
C507 C504 1.403 . S
C507 C508 1.524 . S
C507 C511 1.400 . S
C508 H493 0.960 . S
C508 H494 0.960 . S
C508 H495 0.960 . S
C508 C507 1.524 . S
C509 C506 1.403 . S
C509 C510 1.392 . S
C509 C513 1.495 . S
C510 C509 1.392 . S
C510 C511 1.385 1_556 S
C510 C512 1.478 . S
C511 H505 0.930 . S
C511 C507 1.400 . S
C511 C510 1.385 1_554 S
C512 C510 1.478 . S
C512 C514 1.381 . S
C512 C518 1.383 . S
C513 C509 1.495 . S
C513 H519 0.959 . S
C513 H520 0.961 . S
C513 H521 0.960 . S
C514 C512 1.381 . S
C514 C515 1.394 . S
C514 H522 0.930 . S
C515 C514 1.394 . S
C515 C516 1.383 . S
C515 H523 0.929 . S
C516 C515 1.383 . S
C516 C517 1.377 . S
C517 H501 0.930 . S
C517 C516 1.377 . S
C517 C518 1.379 . S
C518 H502 0.931 . S
C518 C512 1.383 . S
C518 C517 1.379 . S
H519 C513 0.959 . S
H520 C513 0.961 . S
H521 C513 0.960 . S
H522 C514 0.930 . S
H523 C515 0.929 . S
H524 C532 0.929 . S
H525 C534 0.930 . S
H526 C536 0.930 . S
H527 C539 0.929 . S
H528 C542 0.930 . S
H529 C544 0.960 . S
H530 C544 0.960 . S
H531 C544 0.960 . S
C532 H524 0.929 . S
C532 C533 1.377 . S
C532 C534 1.384 . S
C533 C532 1.377 . S
C533 C539 1.390 . S
C534 H525 0.930 . S
C534 C532 1.384 . S
C534 C535 1.372 . S
C535 C534 1.372 . S
C535 C536 1.400 . S
C535 C540 1.490 . S
C536 H526 0.930 . S
C536 C535 1.400 . S
C536 C539 1.386 . S
H537 C553 0.930 . S
H538 C554 0.931 . S
C539 H527 0.929 . S
C539 C533 1.390 . S
C539 C536 1.386 . S
C540 C535 1.490 . S
C540 C542 1.395 . S
C540 C543 1.403 . S
H541 C547 0.930 . S
C542 H528 0.930 . S
C542 C540 1.395 . S
C542 C545 1.403 1_545 S
C543 C540 1.403 . S
C543 C544 1.524 . S
C543 C547 1.400 1_545 S
C544 H529 0.960 . S
C544 H530 0.960 . S
C544 H531 0.960 . S
C544 C543 1.524 . S
C545 C542 1.403 1_565 S
C545 C546 1.392 . S
C545 C549 1.495 . S
C546 C545 1.392 . S
C546 C547 1.385 . S
C546 C548 1.478 . S
C547 H541 0.930 . S
C547 C543 1.400 1_565 S
C547 C546 1.385 . S
C548 C546 1.478 . S
C548 C550 1.381 . S
C548 C554 1.383 . S
C549 C545 1.495 . S
C549 H555 0.959 . S
C549 H556 0.961 . S
C549 H557 0.960 . S
C550 C548 1.381 . S
C550 C551 1.394 . S
C550 H558 0.930 . S
C551 C550 1.394 . S
C551 C552 1.383 . S
C551 H559 0.929 . S
C552 C551 1.383 . S
C552 C553 1.377 . S
C553 H537 0.930 . S
C553 C552 1.377 . S
C553 C554 1.379 . S
C554 H538 0.931 . S
C554 C548 1.383 . S
C554 C553 1.379 . S
H555 C549 0.959 . S
H556 C549 0.961 . S
H557 C549 0.960 . S
H558 C550 0.930 . S
H559 C551 0.929 . S
H560 C568 0.929 . S
H561 C570 0.930 . S
H562 C572 0.930 . S
H563 C575 0.929 . S
H564 C578 0.930 . S
H565 C580 0.960 . S
H566 C580 0.960 . S
H567 C580 0.960 . S
C568 H560 0.929 . S
C568 C569 1.377 . S
C568 C570 1.384 . S
C569 C568 1.377 . S
C569 C575 1.390 . S
C570 H561 0.930 . S
C570 C568 1.384 . S
C570 C571 1.372 . S
C571 C570 1.372 . S
C571 C572 1.400 . S
C571 C576 1.490 . S
C572 H562 0.930 . S
C572 C571 1.400 . S
C572 C575 1.386 . S
H573 C589 0.930 . S
H574 C590 0.931 . S
C575 H563 0.929 . S
C575 C569 1.390 . S
C575 C572 1.386 . S
C576 C571 1.490 . S
C576 C578 1.395 . S
C576 C579 1.403 . S
H577 C583 0.930 . S
C578 H564 0.930 . S
C578 C576 1.395 . S
C578 C581 1.403 . S
C579 C576 1.403 . S
C579 C580 1.524 . S
C579 C583 1.400 . S
C580 H565 0.960 . S
C580 H566 0.960 . S
C580 H567 0.960 . S
C580 C579 1.524 . S
C581 C578 1.403 . S
C581 C582 1.392 . S
C581 C585 1.495 . S
C582 C581 1.392 . S
C582 C583 1.385 . S
C582 C584 1.478 . S
C583 H577 0.930 . S
C583 C579 1.400 . S
C583 C582 1.385 . S
C584 C582 1.478 . S
C584 C586 1.381 . S
C584 C590 1.383 . S
C585 C581 1.495 . S
C585 H591 0.959 . S
C585 H592 0.961 . S
C585 H593 0.960 . S
C586 C584 1.381 . S
C586 C587 1.394 . S
C586 H594 0.930 . S
C587 C586 1.394 . S
C587 C588 1.383 . S
C587 H595 0.929 . S
C588 C587 1.383 . S
C588 C589 1.377 . S
C589 H573 0.930 . S
C589 C588 1.377 . S
C589 C590 1.379 . S
C590 H574 0.931 . S
C590 C584 1.383 . S
C590 C589 1.379 . S
H591 C585 0.959 . S
H592 C585 0.961 . S
H593 C585 0.960 . S
H594 C586 0.930 . S
H595 C587 0.929 . S
H596 C604 0.929 . S
H597 C606 0.930 . S
H598 C608 0.930 . S
H599 C611 0.929 . S
H600 C614 0.930 . S
H601 C616 0.901 1_565 S
H602 C616 0.960 . S
H603 C616 0.960 . S
C604 H596 0.929 . S
C604 C605 1.377 . S
C604 C606 1.384 . S
C605 C604 1.377 . S
C605 C611 1.390 . S
C606 H597 0.930 . S
C606 C604 1.384 . S
C606 C607 1.372 . S
C607 C606 1.372 . S
C607 C608 1.400 . S
C607 C612 1.490 . S
C608 H598 0.930 . S
C608 C607 1.400 . S
C608 C611 1.386 . S
H609 C625 0.930 . S
H610 C626 0.931 . S
C611 H599 0.929 . S
C611 C605 1.390 . S
C611 C608 1.386 . S
C612 C607 1.490 . S
C612 C614 1.395 . S
C612 C615 1.403 . S
H613 C619 0.930 . S
C614 H600 0.930 . S
C614 C612 1.395 . S
C614 C617 1.403 1_545 S
C615 C612 1.403 . S
C615 C616 1.524 . S
C615 C619 1.400 1_545 S
C616 H601 0.901 1_545 S
C616 H602 0.960 . S
C616 H603 0.960 . S
C616 C615 1.524 . S
C617 C614 1.403 1_565 S
C617 C618 1.392 . S
C617 C621 1.495 . S
C618 C617 1.392 . S
C618 C619 1.385 . S
C618 C620 1.478 . S
C619 H613 0.930 . S
C619 C615 1.400 1_565 S
C619 C618 1.385 . S
C620 C618 1.478 . S
C620 C622 1.381 . S
C620 C626 1.383 . S
C621 C617 1.495 . S
C621 H627 0.959 1_565 S
C621 H628 0.961 . S
C621 H629 0.960 . S
C622 C620 1.381 . S
C622 C623 1.394 . S
C622 H630 0.930 . S
C623 C622 1.394 . S
C623 C624 1.383 . S
C623 H631 0.929 . S
C624 C623 1.383 . S
C624 C625 1.377 . S
C625 H609 0.930 . S
C625 C624 1.377 . S
C625 C626 1.379 . S
C626 H610 0.931 . S
C626 C620 1.383 . S
C626 C625 1.379 . S
H627 C621 0.959 1_545 S
H628 C621 0.961 . S
H629 C621 0.960 . S
H630 C622 0.930 . S
H631 C623 0.929 . S
H632 C640 0.929 . S
H633 C642 0.930 . S
H634 C644 0.930 . S
H635 C647 0.929 . S
H636 C650 0.930 . S
H637 C652 0.960 . S
H638 C652 0.960 . S
H639 C652 0.960 . S
C640 H632 0.929 . S
C640 C641 1.377 . S
C640 C642 1.384 . S
C641 C640 1.377 . S
C641 C647 1.390 . S
C642 H633 0.930 . S
C642 C640 1.384 . S
C642 C643 1.372 . S
C643 C642 1.372 . S
C643 C644 1.400 . S
C643 C648 1.490 . S
C644 H634 0.930 . S
C644 C643 1.400 . S
C644 C647 1.386 . S
H645 C661 0.930 . S
H646 C662 0.931 . S
C647 H635 0.929 . S
C647 C641 1.390 . S
C647 C644 1.386 . S
C648 C643 1.490 . S
C648 C650 1.395 . S
C648 C651 1.403 1_556 S
H649 C655 0.930 . S
C650 H636 0.930 . S
C650 C648 1.395 . S
C650 C653 1.403 . S
C651 C648 1.403 1_554 S
C651 C652 1.524 . S
C651 C655 1.400 . S
C652 H637 0.960 . S
C652 H638 0.960 . S
C652 H639 0.960 . S
C652 C651 1.524 . S
C653 C650 1.403 . S
C653 C654 1.392 1_556 S
C653 C657 1.495 . S
C654 C653 1.392 1_554 S
C654 C655 1.385 . S
C654 C656 1.478 . S
C655 H649 0.930 . S
C655 C651 1.400 . S
C655 C654 1.385 . S
C656 C654 1.478 . S
C656 C658 1.381 . S
C656 C662 1.383 . S
C657 C653 1.495 . S
C657 H663 0.959 . S
C657 H664 0.961 . S
C657 H665 0.960 . S
C658 C656 1.381 . S
C658 C659 1.394 . S
C658 H666 0.930 . S
C659 C658 1.394 . S
C659 C660 1.383 . S
C659 H667 0.929 . S
C660 C659 1.383 . S
C660 C661 1.377 . S
C661 H645 0.930 . S
C661 C660 1.377 . S
C661 C662 1.379 . S
C662 H646 0.931 . S
C662 C656 1.383 . S
C662 C661 1.379 . S
H663 C657 0.959 . S
H664 C657 0.961 . S
H665 C657 0.960 . S
H666 C658 0.930 . S
H667 C659 0.929 . S
H668 C676 0.929 . S
H669 C678 0.930 . S
H670 C680 0.930 . S
H671 C683 0.929 . S
H672 C686 0.930 . S
H673 C688 0.960 . S
H674 C688 0.960 . S
H675 C688 0.960 . S
C676 H668 0.929 . S
C676 C677 1.377 . S
C676 C678 1.384 . S
C677 C676 1.377 . S
C677 C683 1.390 . S
C678 H669 0.930 . S
C678 C676 1.384 . S
C678 C679 1.372 . S
C679 C678 1.372 . S
C679 C680 1.400 . S
C679 C684 1.490 . S
C680 H670 0.930 . S
C680 C679 1.400 . S
C680 C683 1.386 . S
H681 C697 0.930 . S
H682 C698 0.931 . S
C683 H671 0.929 . S
C683 C677 1.390 . S
C683 C680 1.386 . S
C684 C679 1.490 . S
C684 C686 1.395 . S
C684 C687 1.403 . S
H685 C691 0.930 . S
C686 H672 0.930 . S
C686 C684 1.395 . S
C686 C689 1.403 1_565 S
C687 C684 1.403 . S
C687 C688 1.524 . S
C687 C691 1.400 1_565 S
C688 H673 0.960 . S
C688 H674 0.960 . S
C688 H675 0.960 . S
C688 C687 1.524 . S
C689 C686 1.403 1_545 S
C689 C690 1.392 . S
C689 C693 1.495 . S
C690 C689 1.392 . S
C690 C691 1.385 . S
C690 C692 1.478 . S
C691 H685 0.930 . S
C691 C687 1.400 1_545 S
C691 C690 1.385 . S
C692 C690 1.478 . S
C692 C694 1.381 . S
C692 C698 1.383 . S
C693 C689 1.495 . S
C693 H699 0.959 . S
C693 H700 0.961 . S
C693 H701 0.960 . S
C694 C692 1.381 . S
C694 C695 1.394 . S
C694 H702 0.930 . S
C695 C694 1.394 . S
C695 C696 1.383 . S
C695 H703 0.929 . S
C696 C695 1.383 . S
C696 C697 1.377 . S
C697 H681 0.930 . S
C697 C696 1.377 . S
C697 C698 1.379 . S
C698 H682 0.931 . S
C698 C692 1.383 . S
C698 C697 1.379 . S
H699 C693 0.959 . S
H700 C693 0.961 . S
H701 C693 0.960 . S
H702 C694 0.930 . S
H703 C695 0.929 . S
H704 C712 0.929 . S
H705 C714 0.930 . S
H706 C716 0.930 . S
H707 C719 0.929 . S
H708 C722 0.930 . S
H709 C724 0.960 . S
H710 C724 0.960 . S
H711 C724 0.960 . S
C712 H704 0.929 . S
C712 C713 1.377 . S
C712 C714 1.384 . S
C713 C712 1.377 . S
C713 C719 1.390 . S
C714 H705 0.930 . S
C714 C712 1.384 . S
C714 C715 1.372 . S
C715 C714 1.372 . S
C715 C716 1.400 . S
C715 C720 1.490 . S
C716 H706 0.930 . S
C716 C715 1.400 . S
C716 C719 1.386 . S
H717 C733 0.930 . S
H718 C734 0.931 . S
C719 H707 0.929 . S
C719 C713 1.390 . S
C719 C716 1.386 . S
C720 C715 1.490 . S
C720 C722 1.395 . S
C720 C723 1.403 1_556 S
H721 C727 0.930 . S
C722 H708 0.930 . S
C722 C720 1.395 . S
C722 C725 1.403 . S
C723 C720 1.403 1_554 S
C723 C724 1.524 . S
C723 C727 1.400 . S
C724 H709 0.960 . S
C724 H710 0.960 . S
C724 H711 0.960 . S
C724 C723 1.524 . S
C725 C722 1.403 . S
C725 C726 1.392 1_556 S
C725 C729 1.495 . S
C726 C725 1.392 1_554 S
C726 C727 1.385 . S
C726 C728 1.478 . S
C727 H721 0.930 . S
C727 C723 1.400 . S
C727 C726 1.385 . S
C728 C726 1.478 . S
C728 C730 1.381 . S
C728 C734 1.383 . S
C729 C725 1.495 . S
C729 H735 0.959 . S
C729 H736 0.961 . S
C729 H737 0.960 . S
C730 C728 1.381 . S
C730 C731 1.394 . S
C730 H738 0.930 . S
C731 C730 1.394 . S
C731 C732 1.383 . S
C731 H739 0.929 . S
C732 C731 1.383 . S
C732 C733 1.377 . S
C733 H717 0.930 . S
C733 C732 1.377 . S
C733 C734 1.379 . S
C734 H718 0.931 . S
C734 C728 1.383 . S
C734 C733 1.379 . S
H735 C729 0.959 . S
H736 C729 0.961 . S
H737 C729 0.960 . S
H738 C730 0.930 . S
H739 C731 0.929 . S
H740 C748 0.929 . S
H741 C750 0.930 . S
H742 C752 0.930 . S
H743 C755 0.929 . S
H744 C758 0.930 . S
H745 C760 0.960 . S
H746 C760 0.960 . S
H747 C760 0.960 . S
C748 H740 0.929 . S
C748 C749 1.377 . S
C748 C750 1.384 . S
C749 C748 1.377 . S
C749 C755 1.390 . S
C750 H741 0.930 . S
C750 C748 1.384 . S
C750 C751 1.372 . S
C751 C750 1.372 . S
C751 C752 1.400 . S
C751 C756 1.490 . S
C752 H742 0.930 . S
C752 C751 1.400 . S
C752 C755 1.386 . S
H753 C769 0.930 . S
H754 C770 0.931 . S
C755 H743 0.929 . S
C755 C749 1.390 . S
C755 C752 1.386 . S
C756 C751 1.490 . S
C756 C758 1.395 . S
C756 C759 1.403 . S
H757 C763 0.930 . S
C758 H744 0.930 . S
C758 C756 1.395 . S
C758 C761 1.403 . S
C759 C756 1.403 . S
C759 C760 1.524 . S
C759 C763 1.400 . S
C760 H745 0.960 . S
C760 H746 0.960 . S
C760 H747 0.960 . S
C760 C759 1.524 . S
C761 C758 1.403 . S
C761 C762 1.392 . S
C761 C765 1.495 . S
C762 C761 1.392 . S
C762 C763 1.385 . S
C762 C764 1.478 . S
C763 H757 0.930 . S
C763 C759 1.400 . S
C763 C762 1.385 . S
C764 C762 1.478 . S
C764 C766 1.381 . S
C764 C770 1.383 . S
C765 C761 1.495 . S
C765 H771 0.959 . S
C765 H772 0.961 . S
C765 H773 0.960 . S
C766 C764 1.381 . S
C766 C767 1.394 . S
C766 H774 0.930 . S
C767 C766 1.394 . S
C767 C768 1.383 . S
C767 H775 0.929 . S
C768 C767 1.383 . S
C768 C769 1.377 . S
C769 H753 0.930 . S
C769 C768 1.377 . S
C769 C770 1.379 . S
C770 H754 0.931 . S
C770 C764 1.383 . S
C770 C769 1.379 . S
H771 C765 0.959 . S
H772 C765 0.961 . S
H773 C765 0.960 . S
H774 C766 0.930 . S
H775 C767 0.929 . S
H776 C784 0.929 . S
H777 C786 0.930 . S
H778 C788 0.930 . S
H779 C791 0.929 . S
H780 C794 0.930 . S
H781 C796 0.960 . S
H782 C796 0.960 . S
H783 C796 0.960 . S
C784 H776 0.929 . S
C784 C785 1.377 . S
C784 C786 1.384 . S
C785 C784 1.377 . S
C785 C791 1.390 . S
C786 H777 0.930 . S
C786 C784 1.384 . S
C786 C787 1.372 . S
C787 C786 1.372 . S
C787 C788 1.400 . S
C787 C792 1.490 . S
C788 H778 0.930 . S
C788 C787 1.400 . S
C788 C791 1.386 . S
H789 C805 0.930 . S
H790 C806 0.931 . S
C791 H779 0.929 . S
C791 C785 1.390 . S
C791 C788 1.386 . S
C792 C787 1.490 . S
C792 C794 1.395 . S
C792 C795 1.403 . S
H793 C799 0.930 . S
C794 H780 0.930 . S
C794 C792 1.395 . S
C794 C797 1.403 . S
C795 C792 1.403 . S
C795 C796 1.524 . S
C795 C799 1.400 . S
C796 H781 0.960 . S
C796 H782 0.960 . S
C796 H783 0.960 . S
C796 C795 1.524 . S
C797 C794 1.403 . S
C797 C798 1.392 . S
C797 C801 1.495 . S
C798 C797 1.392 . S
C798 C799 1.385 . S
C798 C800 1.478 . S
C799 H793 0.930 . S
C799 C795 1.400 . S
C799 C798 1.385 . S
C800 C798 1.478 . S
C800 C802 1.381 . S
C800 C806 1.383 . S
C801 C797 1.495 . S
C801 H807 0.959 . S
C801 H808 0.961 . S
C801 H809 0.960 . S
C802 C800 1.381 . S
C802 C803 1.394 . S
C802 H810 0.930 . S
C803 C802 1.394 . S
C803 C804 1.383 . S
C803 H811 0.929 . S
C804 C803 1.383 . S
C804 C805 1.377 . S
C805 H789 0.930 . S
C805 C804 1.377 . S
C805 C806 1.379 . S
C806 H790 0.931 . S
C806 C800 1.383 . S
C806 C805 1.379 . S
H807 C801 0.959 . S
H808 C801 0.961 . S
H809 C801 0.960 . S
H810 C802 0.930 . S
H811 C803 0.929 . S
H812 C820 0.929 . S
H813 C822 0.930 . S
H814 C824 0.930 . S
H815 C827 0.929 . S
H816 C830 0.930 . S
H817 C832 0.960 . S
H818 C832 0.960 . S
H819 C832 0.960 . S
C820 H812 0.929 . S
C820 C821 1.377 . S
C820 C822 1.384 . S
C821 C820 1.377 . S
C821 C827 1.390 . S
C822 H813 0.930 . S
C822 C820 1.384 . S
C822 C823 1.372 . S
C823 C822 1.372 . S
C823 C824 1.400 . S
C823 C828 1.490 . S
C824 H814 0.930 . S
C824 C823 1.400 . S
C824 C827 1.386 . S
H825 C841 0.930 . S
H826 C842 0.931 . S
C827 H815 0.929 . S
C827 C821 1.390 . S
C827 C824 1.386 . S
C828 C823 1.490 . S
C828 C830 1.395 . S
C828 C831 1.403 . S
H829 C835 0.930 . S
C830 H816 0.930 . S
C830 C828 1.395 . S
C830 C833 1.403 . S
C831 C828 1.403 . S
C831 C832 1.524 . S
C831 C835 1.400 . S
C832 H817 0.960 . S
C832 H818 0.960 . S
C832 H819 0.960 . S
C832 C831 1.524 . S
C833 C830 1.403 . S
C833 C834 1.392 . S
C833 C837 1.495 . S
C834 C833 1.392 . S
C834 C835 1.385 . S
C834 C836 1.478 . S
C835 H829 0.930 . S
C835 C831 1.400 . S
C835 C834 1.385 . S
C836 C834 1.478 . S
C836 C838 1.381 . S
C836 C842 1.383 . S
C837 C833 1.495 . S
C837 H843 0.959 . S
C837 H844 0.961 . S
C837 H845 0.960 . S
C838 C836 1.381 . S
C838 C839 1.394 . S
C838 H846 0.930 . S
C839 C838 1.394 . S
C839 C840 1.383 . S
C839 H847 0.929 . S
C840 C839 1.383 . S
C840 C841 1.377 . S
C841 H825 0.930 . S
C841 C840 1.377 . S
C841 C842 1.379 . S
C842 H826 0.931 . S
C842 C836 1.383 . S
C842 C841 1.379 . S
H843 C837 0.959 . S
H844 C837 0.961 . S
H845 C837 0.960 . S
H846 C838 0.930 . S
H847 C839 0.929 . S
H848 C856 0.929 . S
H849 C858 0.930 . S
H850 C860 0.930 1_554 S
H851 C863 0.929 . S
H852 C866 0.930 . S
H853 C868 0.960 . S
H854 C868 0.960 . S
H855 C868 0.960 . S
C856 H848 0.929 . S
C856 C857 1.377 . S
C856 C858 1.384 . S
C857 C856 1.377 . S
C857 C863 1.390 . S
C858 H849 0.930 . S
C858 C856 1.384 . S
C858 C859 1.372 . S
C859 C858 1.372 . S
C859 C860 1.400 . S
C859 C864 1.490 . S
C860 H850 0.930 1_556 S
C860 C859 1.400 . S
C860 C863 1.386 . S
H861 C877 0.930 . S
H862 C878 0.931 . S
C863 H851 0.929 . S
C863 C857 1.390 . S
C863 C860 1.386 . S
C864 C859 1.490 . S
C864 C866 1.395 . S
C864 C867 1.403 . S
H865 C871 0.930 . S
C866 H852 0.930 . S
C866 C864 1.395 . S
C866 C869 1.403 1_556 S
C867 C864 1.403 . S
C867 C868 1.524 . S
C867 C871 1.400 1_556 S
C868 H853 0.960 . S
C868 H854 0.960 . S
C868 H855 0.960 . S
C868 C867 1.524 . S
C869 C866 1.403 1_554 S
C869 C870 1.392 . S
C869 C873 1.495 . S
C870 C869 1.392 . S
C870 C871 1.385 . S
C870 C872 1.478 . S
C871 H865 0.930 . S
C871 C867 1.400 1_554 S
C871 C870 1.385 . S
C872 C870 1.478 . S
C872 C874 1.381 . S
C872 C878 1.383 . S
C873 C869 1.495 . S
C873 H879 0.959 . S
C873 H880 0.961 . S
C873 H881 0.960 . S
C874 C872 1.381 . S
C874 C875 1.394 . S
C874 H882 0.930 1_554 S
C875 C874 1.394 . S
C875 C876 1.383 . S
C875 H883 0.929 . S
C876 C875 1.383 . S
C876 C877 1.377 . S
C877 H861 0.930 . S
C877 C876 1.377 . S
C877 C878 1.379 . S
C878 H862 0.931 . S
C878 C872 1.383 . S
C878 C877 1.379 . S
H879 C873 0.959 . S
H880 C873 0.961 . S
H881 C873 0.960 . S
H882 C874 0.930 1_556 S
H883 C875 0.929 . S
H884 C892 0.929 . S
H885 C894 0.930 . S
H886 C896 0.930 . S
H887 C899 0.929 . S
H888 C902 0.930 . S
H889 C904 0.960 . S
H890 C904 0.960 . S
H891 C904 0.960 . S
C892 H884 0.929 . S
C892 C893 1.377 . S
C892 C894 1.384 . S
C893 C892 1.377 . S
C893 C899 1.390 . S
C894 H885 0.930 . S
C894 C892 1.384 . S
C894 C895 1.372 . S
C895 C894 1.372 . S
C895 C896 1.400 . S
C895 C900 1.490 . S
C896 H886 0.930 . S
C896 C895 1.400 . S
C896 C899 1.386 . S
H897 C913 0.930 . S
H898 C914 0.931 . S
C899 H887 0.929 . S
C899 C893 1.390 . S
C899 C896 1.386 . S
C900 C895 1.490 . S
C900 C902 1.395 . S
C900 C903 1.403 . S
H901 C907 0.930 . S
C902 H888 0.930 . S
C902 C900 1.395 . S
C902 C905 1.403 . S
C903 C900 1.403 . S
C903 C904 1.524 . S
C903 C907 1.400 . S
C904 H889 0.960 . S
C904 H890 0.960 . S
C904 H891 0.960 . S
C904 C903 1.524 . S
C905 C902 1.403 . S
C905 C906 1.392 . S
C905 C909 1.495 . S
C906 C905 1.392 . S
C906 C907 1.385 . S
C906 C908 1.478 . S
C907 H901 0.930 . S
C907 C903 1.400 . S
C907 C906 1.385 . S
C908 C906 1.478 . S
C908 C910 1.381 . S
C908 C914 1.383 . S
C909 C905 1.495 . S
C909 H915 0.959 . S
C909 H916 0.961 . S
C909 H917 0.960 . S
C910 C908 1.381 . S
C910 C911 1.394 . S
C910 H918 0.930 . S
C911 C910 1.394 . S
C911 C912 1.383 . S
C911 H919 0.929 . S
C912 C911 1.383 . S
C912 C913 1.377 . S
C913 H897 0.930 . S
C913 C912 1.377 . S
C913 C914 1.379 . S
C914 H898 0.931 . S
C914 C908 1.383 . S
C914 C913 1.379 . S
H915 C909 0.959 . S
H916 C909 0.961 . S
H917 C909 0.960 . S
H918 C910 0.930 . S
H919 C911 0.929 . S
H920 C928 0.929 . S
H921 C930 0.930 . S
H922 C932 0.930 . S
H923 C935 0.929 . S
H924 C938 0.930 . S
H925 C940 0.960 . S
H926 C940 0.960 . S
H927 C940 0.960 . S
C928 H920 0.929 . S
C928 C929 1.377 . S
C928 C930 1.384 . S
C929 C928 1.377 . S
C929 C935 1.390 . S
C930 H921 0.930 . S
C930 C928 1.384 . S
C930 C931 1.372 . S
C931 C930 1.372 . S
C931 C932 1.400 . S
C931 C936 1.490 . S
C932 H922 0.930 . S
C932 C931 1.400 . S
C932 C935 1.386 . S
H933 C949 0.930 . S
H934 C950 0.931 . S
C935 H923 0.929 . S
C935 C929 1.390 . S
C935 C932 1.386 . S
C936 C931 1.490 . S
C936 C938 1.395 . S
C936 C939 1.403 . S
H937 C943 0.930 . S
C938 H924 0.930 . S
C938 C936 1.395 . S
C938 C941 1.403 . S
C939 C936 1.403 . S
C939 C940 1.524 . S
C939 C943 1.400 . S
C940 H925 0.960 . S
C940 H926 0.960 . S
C940 H927 0.960 . S
C940 C939 1.524 . S
C941 C938 1.403 . S
C941 C942 1.392 . S
C941 C945 1.495 . S
C942 C941 1.392 . S
C942 C943 1.385 . S
C942 C944 1.478 . S
C943 H937 0.930 . S
C943 C939 1.400 . S
C943 C942 1.385 . S
C944 C942 1.478 . S
C944 C946 1.381 . S
C944 C950 1.383 . S
C945 C941 1.495 . S
C945 H951 0.959 . S
C945 H952 0.961 . S
C945 H953 0.960 . S
C946 C944 1.381 . S
C946 C947 1.394 . S
C946 H954 0.930 . S
C947 C946 1.394 . S
C947 C948 1.383 . S
C947 H955 0.929 . S
C948 C947 1.383 . S
C948 C949 1.377 . S
C949 H933 0.930 . S
C949 C948 1.377 . S
C949 C950 1.379 . S
C950 H934 0.931 . S
C950 C944 1.383 . S
C950 C949 1.379 . S
H951 C945 0.959 . S
H952 C945 0.961 . S
H953 C945 0.960 . S
H954 C946 0.930 . S
H955 C947 0.929 . S
H956 C964 0.929 . S
H957 C966 0.930 . S
H958 C968 0.930 . S
H959 C971 0.929 . S
H960 C974 0.930 . S
H961 C976 0.960 . S
H962 C976 0.960 . S
H963 C976 0.960 . S
C964 H956 0.929 . S
C964 C965 1.377 . S
C964 C966 1.384 . S
C965 C964 1.377 . S
C965 C971 1.390 . S
C966 H957 0.930 . S
C966 C964 1.384 . S
C966 C967 1.372 . S
C967 C966 1.372 . S
C967 C968 1.400 . S
C967 C972 1.490 . S
C968 H958 0.930 . S
C968 C967 1.400 . S
C968 C971 1.386 . S
H969 C985 0.930 . S
H970 C986 0.931 . S
C971 H959 0.929 . S
C971 C965 1.390 . S
C971 C968 1.386 . S
C972 C967 1.490 . S
C972 C974 1.395 . S
C972 C975 1.403 . S
H973 C979 0.930 . S
C974 H960 0.930 . S
C974 C972 1.395 . S
C974 C977 1.403 . S
C975 C972 1.403 . S
C975 C976 1.524 . S
C975 C979 1.400 . S
C976 H961 0.960 . S
C976 H962 0.960 . S
C976 H963 0.960 . S
C976 C975 1.524 . S
C977 C974 1.403 . S
C977 C978 1.392 . S
C977 C981 1.495 . S
C978 C977 1.392 . S
C978 C979 1.385 . S
C978 C980 1.478 . S
C979 H973 0.930 . S
C979 C975 1.400 . S
C979 C978 1.385 . S
C980 C978 1.478 . S
C980 C982 1.381 . S
C980 C986 1.383 . S
C981 C977 1.495 . S
C981 H987 0.959 . S
C981 H988 0.961 . S
C981 H989 0.960 . S
C982 C980 1.381 . S
C982 C983 1.394 . S
C982 H990 0.930 . S
C983 C982 1.394 . S
C983 C984 1.383 . S
C983 H991 0.929 . S
C984 C983 1.383 . S
C984 C985 1.377 . S
C985 H969 0.930 . S
C985 C984 1.377 . S
C985 C986 1.379 . S
C986 H970 0.931 . S
C986 C980 1.383 . S
C986 C985 1.379 . S
H987 C981 0.959 . S
H988 C981 0.961 . S
H989 C981 0.960 . S
H990 C982 0.930 . S
H991 C983 0.929 . S
H992 C1000 0.929 1_554 S
H993 C1002 0.930 . S
H994 C1004 0.930 . S
H995 C1007 0.929 . S
H996 C1010 0.930 . S
H997 C1012 0.960 . S
H998 C1012 0.960 . S
H999 C1012 0.960 . S
C1000 H992 0.929 1_556 S
C1000 C1001 1.377 . S
C1000 C1002 1.384 1_556 S
C1001 C1000 1.377 . S
C1001 C1007 1.390 . S
C1002 H993 0.930 . S
C1002 C1000 1.384 1_554 S
C1002 C1003 1.372 . S
C1003 C1002 1.372 . S
C1003 C1004 1.400 1_554 S
C1003 C1008 1.490 . S
C1004 H994 0.930 . S
C1004 C1003 1.400 1_556 S
C1004 C1007 1.386 . S
H1005 C1021 0.930 . S
H1006 C1022 0.931 . S
C1007 H995 0.929 . S
C1007 C1001 1.390 . S
C1007 C1004 1.386 . S
C1008 C1003 1.490 . S
C1008 C1010 1.395 . S
C1008 C1011 1.403 . S
H1009 C1015 0.930 . S
C1010 H996 0.930 . S
C1010 C1008 1.395 . S
C1010 C1013 1.403 . S
C1011 C1008 1.403 . S
C1011 C1012 1.524 . S
C1011 C1015 1.400 . S
C1012 H997 0.960 . S
C1012 H998 0.960 . S
C1012 H999 0.960 . S
C1012 C1011 1.524 . S
C1013 C1010 1.403 . S
C1013 C1014 1.392 . S
C1013 C1017 1.495 . S
C1014 C1013 1.392 . S
C1014 C1015 1.385 . S
C1014 C1016 1.478 . S
C1015 H1009 0.930 . S
C1015 C1011 1.400 . S
C1015 C1014 1.385 . S
C1016 C1014 1.478 . S
C1016 C1018 1.381 . S
C1016 C1022 1.383 . S
C1017 C1013 1.495 . S
C1017 H1023 0.959 . S
C1017 H1024 0.961 . S
C1017 H1025 0.960 . S
C1018 C1016 1.381 . S
C1018 C1019 1.394 . S
C1018 H1026 0.930 . S
C1019 C1018 1.394 . S
C1019 C1020 1.383 . S
C1019 H1027 0.929 . S
C1020 C1019 1.383 . S
C1020 C1021 1.377 . S
C1021 H1005 0.930 . S
C1021 C1020 1.377 . S
C1021 C1022 1.379 . S
C1022 H1006 0.931 . S
C1022 C1016 1.383 . S
C1022 C1021 1.379 . S
H1023 C1017 0.959 . S
H1024 C1017 0.961 . S
H1025 C1017 0.960 . S
H1026 C1018 0.930 . S
H1027 C1019 0.929 . S
H1028 C1036 0.929 . S
H1029 C1038 0.930 . S
H1030 C1040 0.930 . S
H1031 C1043 0.929 . S
H1032 C1046 0.930 . S
H1033 C1048 0.960 . S
H1034 C1048 0.960 . S
H1035 C1048 0.960 . S
C1036 H1028 0.929 . S
C1036 C1037 1.377 . S
C1036 C1038 1.384 . S
C1037 C1036 1.377 . S
C1037 C1043 1.390 . S
C1038 H1029 0.930 . S
C1038 C1036 1.384 . S
C1038 C1039 1.372 . S
C1039 C1038 1.372 . S
C1039 C1040 1.400 . S
C1039 C1044 1.490 . S
C1040 H1030 0.930 . S
C1040 C1039 1.400 . S
C1040 C1043 1.386 . S
H1041 C1057 0.930 . S
H1042 C1058 0.931 . S
C1043 H1031 0.929 . S
C1043 C1037 1.390 . S
C1043 C1040 1.386 . S
C1044 C1039 1.490 . S
C1044 C1046 1.395 . S
C1044 C1047 1.403 . S
H1045 C1051 0.930 . S
C1046 H1032 0.930 . S
C1046 C1044 1.395 . S
C1046 C1049 1.403 . S
C1047 C1044 1.403 . S
C1047 C1048 1.524 . S
C1047 C1051 1.400 . S
C1048 H1033 0.960 . S
C1048 H1034 0.960 . S
C1048 H1035 0.960 . S
C1048 C1047 1.524 . S
C1049 C1046 1.403 . S
C1049 C1050 1.392 . S
C1049 C1053 1.495 . S
C1050 C1049 1.392 . S
C1050 C1051 1.385 . S
C1050 C1052 1.478 . S
C1051 H1045 0.930 . S
C1051 C1047 1.400 . S
C1051 C1050 1.385 . S
C1052 C1050 1.478 . S
C1052 C1054 1.381 . S
C1052 C1058 1.383 . S
C1053 C1049 1.495 . S
C1053 H1059 0.959 . S
C1053 H1060 0.961 . S
C1053 H1061 0.960 . S
C1054 C1052 1.381 . S
C1054 C1055 1.394 . S
C1054 H1062 0.930 . S
C1055 C1054 1.394 . S
C1055 C1056 1.383 . S
C1055 H1063 0.929 . S
C1056 C1055 1.383 . S
C1056 C1057 1.377 . S
C1057 H1041 0.930 . S
C1057 C1056 1.377 . S
C1057 C1058 1.379 . S
C1058 H1042 0.931 . S
C1058 C1052 1.383 . S
C1058 C1057 1.379 . S
H1059 C1053 0.959 . S
H1060 C1053 0.961 . S
H1061 C1053 0.960 . S
H1062 C1054 0.930 . S
H1063 C1055 0.929 . S
H1064 C1072 0.929 . S
H1065 C1074 0.930 . S
H1066 C1076 0.930 . S
H1067 C1079 0.929 . S
H1068 C1082 0.930 . S
H1069 C1084 0.960 . S
H1070 C1084 0.960 . S
H1071 C1084 0.960 . S
C1072 H1064 0.929 . S
C1072 C1073 1.377 . S
C1072 C1074 1.384 . S
C1073 C1072 1.377 . S
C1073 C1079 1.390 . S
C1074 H1065 0.930 . S
C1074 C1072 1.384 . S
C1074 C1075 1.372 . S
C1075 C1074 1.372 . S
C1075 C1076 1.400 . S
C1075 C1080 1.490 . S
C1076 H1066 0.930 . S
C1076 C1075 1.400 . S
C1076 C1079 1.386 . S
H1077 C1093 0.930 . S
H1078 C1094 0.931 . S
C1079 H1067 0.929 . S
C1079 C1073 1.390 . S
C1079 C1076 1.386 . S
C1080 C1075 1.490 . S
C1080 C1082 1.395 . S
C1080 C1083 1.403 . S
H1081 C1087 0.930 . S
C1082 H1068 0.930 . S
C1082 C1080 1.395 . S
C1082 C1085 1.403 . S
C1083 C1080 1.403 . S
C1083 C1084 1.524 . S
C1083 C1087 1.400 . S
C1084 H1069 0.960 . S
C1084 H1070 0.960 . S
C1084 H1071 0.960 . S
C1084 C1083 1.524 . S
C1085 C1082 1.403 . S
C1085 C1086 1.392 . S
C1085 C1089 1.495 . S
C1086 C1085 1.392 . S
C1086 C1087 1.385 . S
C1086 C1088 1.478 . S
C1087 H1081 0.930 . S
C1087 C1083 1.400 . S
C1087 C1086 1.385 . S
C1088 C1086 1.478 . S
C1088 C1090 1.381 . S
C1088 C1094 1.383 . S
C1089 C1085 1.495 . S
C1089 H1095 0.959 . S
C1089 H1096 0.961 . S
C1089 H1097 0.960 . S
C1090 C1088 1.381 . S
C1090 C1091 1.394 . S
C1090 H1098 0.930 . S
C1091 C1090 1.394 . S
C1091 C1092 1.383 . S
C1091 H1099 0.929 . S
C1092 C1091 1.383 . S
C1092 C1093 1.377 . S
C1093 H1077 0.930 . S
C1093 C1092 1.377 . S
C1093 C1094 1.379 . S
C1094 H1078 0.931 . S
C1094 C1088 1.383 . S
C1094 C1093 1.379 . S
H1095 C1089 0.959 . S
H1096 C1089 0.961 . S
H1097 C1089 0.960 . S
H1098 C1090 0.930 . S
H1099 C1091 0.929 . S
H1100 C1108 0.929 . S
H1101 C1110 0.930 . S
H1102 C1112 0.930 . S
H1103 C1115 0.929 . S
H1104 C1118 0.930 . S
H1105 C1120 0.960 . S
H1106 C1120 0.960 . S
H1107 C1120 0.960 . S
C1108 H1100 0.929 . S
C1108 C1109 1.377 . S
C1108 C1110 1.384 . S
C1109 C1108 1.377 . S
C1109 C1115 1.390 . S
C1110 H1101 0.930 . S
C1110 C1108 1.384 . S
C1110 C1111 1.372 . S
C1111 C1110 1.372 . S
C1111 C1112 1.400 . S
C1111 C1116 1.490 . S
C1112 H1102 0.930 . S
C1112 C1111 1.400 . S
C1112 C1115 1.386 . S
H1113 C1129 0.930 . S
H1114 C1130 0.931 . S
C1115 H1103 0.929 . S
C1115 C1109 1.390 . S
C1115 C1112 1.386 . S
C1116 C1111 1.490 . S
C1116 C1118 1.395 . S
C1116 C1119 1.403 . S
H1117 C1123 0.930 . S
C1118 H1104 0.930 . S
C1118 C1116 1.395 . S
C1118 C1121 1.403 . S
C1119 C1116 1.403 . S
C1119 C1120 1.524 . S
C1119 C1123 1.400 . S
C1120 H1105 0.960 . S
C1120 H1106 0.960 . S
C1120 H1107 0.960 . S
C1120 C1119 1.524 . S
C1121 C1118 1.403 . S
C1121 C1122 1.392 . S
C1121 C1125 1.495 . S
C1122 C1121 1.392 . S
C1122 C1123 1.385 . S
C1122 C1124 1.478 . S
C1123 H1117 0.930 . S
C1123 C1119 1.400 . S
C1123 C1122 1.385 . S
C1124 C1122 1.478 . S
C1124 C1126 1.381 . S
C1124 C1130 1.383 1_556 S
C1125 C1121 1.495 . S
C1125 H1131 0.959 . S
C1125 H1132 0.961 . S
C1125 H1133 0.960 . S
C1126 C1124 1.381 . S
C1126 C1127 1.394 1_556 S
C1126 H1134 0.930 . S
C1127 C1126 1.394 1_554 S
C1127 C1128 1.384 . S
C1127 H1135 0.929 1_554 S
C1128 C1127 1.384 . S
C1128 C1129 1.377 . S
C1129 H1113 0.930 . S
C1129 C1128 1.377 . S
C1129 C1130 1.379 . S
C1130 H1114 0.931 . S
C1130 C1124 1.383 1_554 S
C1130 C1129 1.379 . S
H1131 C1125 0.959 . S
H1132 C1125 0.961 . S
H1133 C1125 0.960 . S
H1134 C1126 0.930 . S
H1135 C1127 0.929 1_556 S
H1136 C1144 0.929 . S
H1137 C1146 0.930 . S
H1138 C1148 0.930 . S
H1139 C1151 0.933 . S
H1140 C1154 0.930 . S
H1141 C1156 0.960 . S
H1142 C1156 0.960 . S
H1143 C1156 0.960 . S
C1144 H1136 0.929 . S
C1144 C1145 1.377 . S
C1144 C1146 1.384 . S
C1145 C1144 1.377 . S
C1145 C1151 1.371 1_554 S
C1146 H1137 0.930 . S
C1146 C1144 1.384 . S
C1146 C1147 1.372 1_554 S
C1147 C1146 1.372 1_556 S
C1147 C1148 1.400 . S
C1147 C1152 1.490 . S
C1148 H1138 0.930 . S
C1148 C1147 1.400 . S
C1148 C1151 1.401 . S
H1149 C1165 0.930 . S
H1150 C1166 0.931 . S
C1151 H1139 0.933 . S
C1151 C1145 1.371 1_556 S
C1151 C1148 1.401 . S
C1152 C1147 1.490 . S
C1152 C1154 1.395 . S
C1152 C1155 1.403 . S
H1153 C1159 0.930 . S
C1154 H1140 0.930 . S
C1154 C1152 1.395 . S
C1154 C1157 1.403 . S
C1155 C1152 1.403 . S
C1155 C1156 1.524 . S
C1155 C1159 1.400 . S
C1156 H1141 0.960 . S
C1156 H1142 0.960 . S
C1156 H1143 0.960 . S
C1156 C1155 1.524 . S
C1157 C1154 1.403 . S
C1157 C1158 1.392 . S
C1157 C1161 1.495 . S
C1158 C1157 1.392 . S
C1158 C1159 1.385 . S
C1158 C1160 1.478 . S
C1159 H1153 0.930 . S
C1159 C1155 1.400 . S
C1159 C1158 1.385 . S
C1160 C1158 1.478 . S
C1160 C1162 1.381 . S
C1160 C1166 1.383 . S
C1161 C1157 1.495 . S
C1161 H1167 0.959 . S
C1161 H1168 0.961 . S
C1161 H1169 0.960 . S
C1162 C1160 1.381 . S
C1162 C1163 1.394 . S
C1162 H1170 0.930 . S
C1163 C1162 1.394 . S
C1163 C1164 1.383 . S
C1163 H1171 0.929 . S
C1164 C1163 1.383 . S
C1164 C1165 1.377 . S
C1165 H1149 0.930 . S
C1165 C1164 1.377 . S
C1165 C1166 1.379 . S
C1166 H1150 0.931 . S
C1166 C1160 1.383 . S
C1166 C1165 1.379 . S
H1167 C1161 0.959 . S
H1168 C1161 0.961 . S
H1169 C1161 0.960 . S
H1170 C1162 0.930 . S
H1171 C1163 0.929 . S
H1172 C1180 0.929 . S
H1173 C1182 0.930 . S
H1174 C1184 0.930 . S
H1175 C1187 0.929 . S
H1176 C1190 0.930 . S
H1177 C1192 0.960 . S
H1178 C1192 0.960 . S
H1179 C1192 0.960 . S
C1180 H1172 0.929 . S
C1180 C1181 1.377 . S
C1180 C1182 1.384 . S
C1181 C1180 1.377 . S
C1181 C1187 1.390 . S
C1182 H1173 0.930 . S
C1182 C1180 1.384 . S
C1182 C1183 1.372 . S
C1183 C1182 1.372 . S
C1183 C1184 1.400 . S
C1183 C1188 1.490 . S
C1184 H1174 0.930 . S
C1184 C1183 1.400 . S
C1184 C1187 1.386 . S
H1185 C1201 0.930 . S
H1186 C1202 0.931 . S
C1187 H1175 0.929 . S
C1187 C1181 1.390 . S
C1187 C1184 1.386 . S
C1188 C1183 1.490 . S
C1188 C1190 1.395 . S
C1188 C1191 1.403 . S
H1189 C1195 0.930 . S
C1190 H1176 0.930 . S
C1190 C1188 1.395 . S
C1190 C1193 1.403 . S
C1191 C1188 1.403 . S
C1191 C1192 1.524 . S
C1191 C1195 1.400 . S
C1192 H1177 0.960 . S
C1192 H1178 0.960 . S
C1192 H1179 0.960 . S
C1192 C1191 1.524 . S
C1193 C1190 1.403 . S
C1193 C1194 1.392 . S
C1193 C1197 1.495 . S
C1194 C1193 1.392 . S
C1194 C1195 1.385 . S
C1194 C1196 1.478 . S
C1195 H1189 0.930 . S
C1195 C1191 1.400 . S
C1195 C1194 1.385 . S
C1196 C1194 1.478 . S
C1196 C1198 1.381 . S
C1196 C1202 1.383 . S
C1197 C1193 1.495 . S
C1197 H1203 0.959 . S
C1197 H1204 0.961 . S
C1197 H1205 0.960 . S
C1198 C1196 1.381 . S
C1198 C1199 1.394 . S
C1198 H1206 0.930 . S
C1199 C1198 1.394 . S
C1199 C1200 1.383 . S
C1199 H1207 0.929 . S
C1200 C1199 1.383 . S
C1200 C1201 1.377 . S
C1201 H1185 0.930 . S
C1201 C1200 1.377 . S
C1201 C1202 1.379 . S
C1202 H1186 0.931 . S
C1202 C1196 1.383 . S
C1202 C1201 1.379 . S
H1203 C1197 0.959 . S
H1204 C1197 0.961 . S
H1205 C1197 0.960 . S
H1206 C1198 0.930 . S
H1207 C1199 0.929 . S
H1208 C1216 0.929 . S
H1209 C1218 0.930 . S
H1210 C1220 0.930 . S
H1211 C1223 0.929 . S
H1212 C1226 0.930 . S
H1213 C1228 0.960 . S
H1214 C1228 0.960 . S
H1215 C1228 0.960 . S
C1216 H1208 0.929 . S
C1216 C1217 1.377 . S
C1216 C1218 1.384 . S
C1217 C1216 1.377 . S
C1217 C1223 1.390 . S
C1218 H1209 0.930 . S
C1218 C1216 1.384 . S
C1218 C1219 1.372 . S
C1219 C1218 1.372 . S
C1219 C1220 1.400 . S
C1219 C1224 1.490 . S
C1220 H1210 0.930 . S
C1220 C1219 1.400 . S
C1220 C1223 1.386 . S
H1221 C1237 0.930 . S
H1222 C1238 0.931 . S
C1223 H1211 0.929 . S
C1223 C1217 1.390 . S
C1223 C1220 1.386 . S
C1224 C1219 1.490 . S
C1224 C1226 1.395 . S
C1224 C1227 1.403 . S
H1225 C1231 0.930 . S
C1226 H1212 0.930 . S
C1226 C1224 1.395 . S
C1226 C1229 1.403 . S
C1227 C1224 1.403 . S
C1227 C1228 1.524 . S
C1227 C1231 1.400 . S
C1228 H1213 0.960 . S
C1228 H1214 0.960 . S
C1228 H1215 0.960 . S
C1228 C1227 1.524 . S
C1229 C1226 1.403 . S
C1229 C1230 1.392 . S
C1229 C1233 1.495 . S
C1230 C1229 1.392 . S
C1230 C1231 1.385 . S
C1230 C1232 1.478 . S
C1231 H1225 0.930 . S
C1231 C1227 1.400 . S
C1231 C1230 1.385 . S
C1232 C1230 1.478 . S
C1232 C1234 1.381 . S
C1232 C1238 1.383 . S
C1233 C1229 1.495 . S
C1233 H1239 0.959 . S
C1233 H1240 0.961 . S
C1233 H1241 0.960 . S
C1234 C1232 1.381 . S
C1234 C1235 1.394 . S
C1234 H1242 0.930 . S
C1235 C1234 1.394 . S
C1235 C1236 1.383 . S
C1235 H1243 0.929 . S
C1236 C1235 1.383 . S
C1236 C1237 1.377 . S
C1237 H1221 0.930 . S
C1237 C1236 1.377 . S
C1237 C1238 1.379 . S
C1238 H1222 0.931 . S
C1238 C1232 1.383 . S
C1238 C1237 1.379 . S
H1239 C1233 0.959 . S
H1240 C1233 0.961 . S
H1241 C1233 0.960 . S
H1242 C1234 0.930 . S
H1243 C1235 0.929 . S
H1244 C1252 0.929 . S
H1245 C1254 0.930 . S
H1246 C1256 0.930 . S
H1247 C1259 0.928 1_554 S
H1248 C1262 0.930 . S
H1249 C1264 0.960 . S
H1250 C1264 0.960 . S
H1251 C1264 0.960 . S
C1252 H1244 0.929 . S
C1252 C1253 1.377 . S
C1252 C1254 1.384 . S
C1253 C1252 1.377 . S
C1253 C1259 1.397 . S
C1254 H1245 0.930 . S
C1254 C1252 1.384 . S
C1254 C1255 1.372 1_556 S
C1255 C1254 1.372 1_554 S
C1255 C1256 1.400 . S
C1255 C1260 1.490 . S
C1256 H1246 0.930 . S
C1256 C1255 1.400 . S
C1256 C1259 1.379 1_554 S
H1257 C1273 0.930 . S
H1258 C1274 0.931 . S
C1259 H1247 0.928 1_556 S
C1259 C1253 1.397 . S
C1259 C1256 1.379 1_556 S
C1260 C1255 1.490 . S
C1260 C1262 1.395 . S
C1260 C1263 1.403 . S
H1261 C1267 0.930 . S
C1262 H1248 0.930 . S
C1262 C1260 1.395 . S
C1262 C1265 1.403 . S
C1263 C1260 1.403 . S
C1263 C1264 1.524 . S
C1263 C1267 1.400 . S
C1264 H1249 0.960 . S
C1264 H1250 0.960 . S
C1264 H1251 0.960 . S
C1264 C1263 1.524 . S
C1265 C1262 1.403 . S
C1265 C1266 1.392 . S
C1265 C1269 1.495 . S
C1266 C1265 1.392 . S
C1266 C1267 1.385 . S
C1266 C1268 1.478 . S
C1267 H1261 0.930 . S
C1267 C1263 1.400 . S
C1267 C1266 1.385 . S
C1268 C1266 1.478 . S
C1268 C1270 1.381 . S
C1268 C1274 1.383 . S
C1269 C1265 1.495 . S
C1269 H1275 0.959 . S
C1269 H1276 0.961 . S
C1269 H1277 0.960 . S
C1270 C1268 1.381 . S
C1270 C1271 1.394 . S
C1270 H1278 0.930 . S
C1271 C1270 1.394 . S
C1271 C1272 1.383 . S
C1271 H1279 0.929 . S
C1272 C1271 1.383 . S
C1272 C1273 1.377 . S
C1273 H1257 0.930 . S
C1273 C1272 1.377 . S
C1273 C1274 1.379 . S
C1274 H1258 0.931 . S
C1274 C1268 1.383 . S
C1274 C1273 1.379 . S
H1275 C1269 0.959 . S
H1276 C1269 0.961 . S
H1277 C1269 0.960 . S
H1278 C1270 0.930 . S
H1279 C1271 0.929 . S
H1280 C1288 0.929 . S
H1281 C1290 0.930 . S
H1282 C1292 0.930 . S
H1283 C1295 0.929 . S
H1284 C1298 0.930 . S
H1285 C1300 0.960 . S
H1286 C1300 0.960 . S
H1287 C1300 0.960 . S
C1288 H1280 0.929 . S
C1288 C1289 1.377 . S
C1288 C1290 1.384 . S
C1289 C1288 1.377 . S
C1289 C1295 1.390 . S
C1290 H1281 0.930 . S
C1290 C1288 1.384 . S
C1290 C1291 1.372 . S
C1291 C1290 1.372 . S
C1291 C1292 1.400 . S
C1291 C1296 1.490 . S
C1292 H1282 0.930 . S
C1292 C1291 1.400 . S
C1292 C1295 1.386 . S
H1293 C1309 0.930 . S
H1294 C1310 0.931 . S
C1295 H1283 0.929 . S
C1295 C1289 1.390 . S
C1295 C1292 1.386 . S
C1296 C1291 1.490 . S
C1296 C1298 1.395 . S
C1296 C1299 1.403 . S
H1297 C1303 0.930 . S
C1298 H1284 0.930 . S
C1298 C1296 1.395 . S
C1298 C1301 1.403 . S
C1299 C1296 1.403 . S
C1299 C1300 1.524 . S
C1299 C1303 1.400 . S
C1300 H1285 0.960 . S
C1300 H1286 0.960 . S
C1300 H1287 0.960 . S
C1300 C1299 1.524 . S
C1301 C1298 1.403 . S
C1301 C1302 1.392 . S
C1301 C1305 1.495 . S
C1302 C1301 1.392 . S
C1302 C1303 1.385 . S
C1302 C1304 1.478 . S
C1303 H1297 0.930 . S
C1303 C1299 1.400 . S
C1303 C1302 1.385 . S
C1304 C1302 1.478 . S
C1304 C1306 1.381 . S
C1304 C1310 1.383 . S
C1305 C1301 1.495 . S
C1305 H1311 0.959 . S
C1305 H1312 0.961 . S
C1305 H1313 0.960 . S
C1306 C1304 1.381 . S
C1306 C1307 1.394 . S
C1306 H1314 0.930 . S
C1307 C1306 1.394 . S
C1307 C1308 1.383 . S
C1307 H1315 0.929 . S
C1308 C1307 1.383 . S
C1308 C1309 1.377 . S
C1309 H1293 0.930 . S
C1309 C1308 1.377 . S
C1309 C1310 1.379 . S
C1310 H1294 0.931 . S
C1310 C1304 1.383 . S
C1310 C1309 1.379 . S
H1311 C1305 0.959 . S
H1312 C1305 0.961 . S
H1313 C1305 0.960 . S
H1314 C1306 0.930 . S
H1315 C1307 0.929 . S
H1316 C1324 0.929 . S
H1317 C1326 0.930 . S
H1318 C1328 0.930 . S
H1319 C1331 0.929 . S
H1320 C1334 0.930 . S
H1321 C1336 0.960 . S
H1322 C1336 0.960 . S
H1323 C1336 0.960 . S
C1324 H1316 0.929 . S
C1324 C1325 1.377 . S
C1324 C1326 1.384 1_554 S
C1325 C1324 1.377 . S
C1325 C1331 1.390 . S
C1326 H1317 0.930 . S
C1326 C1324 1.384 1_556 S
C1326 C1327 1.372 . S
C1327 C1326 1.372 . S
C1327 C1328 1.400 . S
C1327 C1332 1.490 . S
C1328 H1318 0.930 . S
C1328 C1327 1.400 . S
C1328 C1331 1.386 1_556 S
H1329 C1345 0.930 . S
H1330 C1346 0.931 . S
C1331 H1319 0.929 . S
C1331 C1325 1.390 . S
C1331 C1328 1.386 1_554 S
C1332 C1327 1.490 . S
C1332 C1334 1.395 . S
C1332 C1335 1.403 . S
H1333 C1339 0.930 . S
C1334 H1320 0.930 . S
C1334 C1332 1.395 . S
C1334 C1337 1.403 . S
C1335 C1332 1.403 . S
C1335 C1336 1.524 . S
C1335 C1339 1.400 . S
C1336 H1321 0.960 . S
C1336 H1322 0.960 . S
C1336 H1323 0.960 . S
C1336 C1335 1.524 . S
C1337 C1334 1.403 . S
C1337 C1338 1.392 . S
C1337 C1341 1.495 . S
C1338 C1337 1.392 . S
C1338 C1339 1.385 . S
C1338 C1340 1.478 . S
C1339 H1333 0.930 . S
C1339 C1335 1.400 . S
C1339 C1338 1.385 . S
C1340 C1338 1.478 . S
C1340 C1342 1.381 . S
C1340 C1346 1.383 . S
C1341 C1337 1.495 . S
C1341 H1347 0.959 . S
C1341 H1348 0.961 . S
C1341 H1349 0.960 . S
C1342 C1340 1.381 . S
C1342 C1343 1.394 . S
C1342 H1350 0.930 . S
C1343 C1342 1.394 . S
C1343 C1344 1.383 . S
C1343 H1351 0.929 . S
C1344 C1343 1.383 . S
C1344 C1345 1.377 . S
C1345 H1329 0.930 . S
C1345 C1344 1.377 . S
C1345 C1346 1.379 . S
C1346 H1330 0.931 . S
C1346 C1340 1.383 . S
C1346 C1345 1.379 . S
H1347 C1341 0.959 . S
H1348 C1341 0.961 . S
H1349 C1341 0.960 . S
H1350 C1342 0.930 . S
H1351 C1343 0.929 . S
H1352 C1360 0.929 . S
H1353 C1362 0.930 . S
H1354 C1364 0.930 . S
H1355 C1367 0.929 . S
H1356 C1370 0.930 . S
H1357 C1372 0.960 . S
H1358 C1372 0.960 . S
H1359 C1372 0.960 . S
C1360 H1352 0.929 . S
C1360 C1361 1.377 . S
C1360 C1362 1.384 . S
C1361 C1360 1.377 . S
C1361 C1367 1.390 . S
C1362 H1353 0.930 . S
C1362 C1360 1.384 . S
C1362 C1363 1.372 . S
C1363 C1362 1.372 . S
C1363 C1364 1.400 . S
C1363 C1368 1.490 . S
C1364 H1354 0.930 . S
C1364 C1363 1.400 . S
C1364 C1367 1.386 . S
H1365 C1381 0.930 . S
H1366 C1382 0.931 . S
C1367 H1355 0.929 . S
C1367 C1361 1.390 . S
C1367 C1364 1.386 . S
C1368 C1363 1.490 . S
C1368 C1370 1.395 . S
C1368 C1371 1.403 . S
H1369 C1375 0.930 . S
C1370 H1356 0.930 . S
C1370 C1368 1.395 . S
C1370 C1373 1.403 . S
C1371 C1368 1.403 . S
C1371 C1372 1.524 . S
C1371 C1375 1.400 . S
C1372 H1357 0.960 . S
C1372 H1358 0.960 . S
C1372 H1359 0.960 . S
C1372 C1371 1.524 . S
C1373 C1370 1.403 . S
C1373 C1374 1.392 . S
C1373 C1377 1.495 . S
C1374 C1373 1.392 . S
C1374 C1375 1.385 . S
C1374 C1376 1.478 . S
C1375 H1369 0.930 . S
C1375 C1371 1.400 . S
C1375 C1374 1.385 . S
C1376 C1374 1.478 . S
C1376 C1378 1.381 1_554 S
C1376 C1382 1.383 . S
C1377 C1373 1.495 . S
C1377 H1383 0.959 . S
C1377 H1384 0.961 . S
C1377 H1385 0.960 . S
C1378 C1376 1.381 1_556 S
C1378 C1379 1.394 . S
C1378 H1386 0.930 . S
C1379 C1378 1.394 . S
C1379 C1380 1.383 . S
C1379 H1387 0.929 . S
C1380 C1379 1.383 . S
C1380 C1381 1.377 1_556 S
C1381 H1365 0.930 . S
C1381 C1380 1.377 1_554 S
C1381 C1382 1.379 . S
C1382 H1366 0.931 . S
C1382 C1376 1.383 . S
C1382 C1381 1.379 . S
H1383 C1377 0.959 . S
H1384 C1377 0.961 . S
H1385 C1377 0.960 . S
H1386 C1378 0.930 . S
H1387 C1379 0.929 . S
H1388 C1396 0.929 . S
H1389 C1398 0.930 . S
H1390 C1400 0.930 . S
H1391 C1403 0.929 . S
H1392 C1406 0.930 . S
H1393 C1408 0.960 . S
H1394 C1408 0.960 . S
H1395 C1408 0.960 . S
C1396 H1388 0.929 . S
C1396 C1397 1.377 . S
C1396 C1398 1.384 . S
C1397 C1396 1.377 . S
C1397 C1403 1.390 . S
C1398 H1389 0.930 . S
C1398 C1396 1.384 . S
C1398 C1399 1.372 . S
C1399 C1398 1.372 . S
C1399 C1400 1.400 . S
C1399 C1404 1.490 . S
C1400 H1390 0.930 . S
C1400 C1399 1.400 . S
C1400 C1403 1.386 . S
H1401 C1417 0.930 . S
H1402 C1418 0.931 . S
C1403 H1391 0.929 . S
C1403 C1397 1.390 . S
C1403 C1400 1.386 . S
C1404 C1399 1.490 . S
C1404 C1406 1.395 . S
C1404 C1407 1.403 . S
H1405 C1411 0.930 . S
C1406 H1392 0.930 . S
C1406 C1404 1.395 . S
C1406 C1409 1.403 . S
C1407 C1404 1.403 . S
C1407 C1408 1.524 . S
C1407 C1411 1.400 . S
C1408 H1393 0.960 . S
C1408 H1394 0.960 . S
C1408 H1395 0.960 . S
C1408 C1407 1.524 . S
C1409 C1406 1.403 . S
C1409 C1410 1.392 . S
C1409 C1413 1.495 . S
C1410 C1409 1.392 . S
C1410 C1411 1.385 . S
C1410 C1412 1.478 . S
C1411 H1405 0.930 . S
C1411 C1407 1.400 . S
C1411 C1410 1.385 . S
C1412 C1410 1.478 . S
C1412 C1414 1.381 . S
C1412 C1418 1.383 . S
C1413 C1409 1.495 . S
C1413 H1419 0.959 . S
C1413 H1420 0.961 . S
C1413 H1421 0.960 . S
C1414 C1412 1.381 . S
C1414 C1415 1.394 . S
C1414 H1422 0.930 . S
C1415 C1414 1.394 . S
C1415 C1416 1.383 . S
C1415 H1423 0.929 . S
C1416 C1415 1.383 . S
C1416 C1417 1.377 . S
C1417 H1401 0.930 . S
C1417 C1416 1.377 . S
C1417 C1418 1.379 . S
C1418 H1402 0.931 . S
C1418 C1412 1.383 . S
C1418 C1417 1.379 . S
H1419 C1413 0.959 . S
H1420 C1413 0.961 . S
H1421 C1413 0.960 . S
H1422 C1414 0.930 . S
H1423 C1415 0.929 . S
H1424 C1432 0.929 . S
H1425 C1434 0.930 . S
H1426 C1436 0.930 . S
H1427 C1439 0.929 . S
H1428 C1442 0.930 . S
H1429 C1444 0.960 . S
H1430 C1444 0.960 . S
H1431 C1444 0.960 . S
C1432 H1424 0.929 . S
C1432 C1433 1.377 . S
C1432 C1434 1.384 . S
C1433 C1432 1.377 . S
C1433 C1439 1.390 . S
C1434 H1425 0.930 . S
C1434 C1432 1.384 . S
C1434 C1435 1.372 . S
C1435 C1434 1.372 . S
C1435 C1436 1.400 . S
C1435 C1440 1.490 . S
C1436 H1426 0.930 . S
C1436 C1435 1.400 . S
C1436 C1439 1.386 . S
H1437 C1453 0.930 . S
H1438 C1454 0.931 . S
C1439 H1427 0.929 . S
C1439 C1433 1.390 . S
C1439 C1436 1.386 . S
C1440 C1435 1.490 . S
C1440 C1442 1.395 . S
C1440 C1443 1.403 . S
H1441 C1447 0.930 . S
C1442 H1428 0.930 . S
C1442 C1440 1.395 . S
C1442 C1445 1.403 . S
C1443 C1440 1.403 . S
C1443 C1444 1.524 . S
C1443 C1447 1.400 . S
C1444 H1429 0.960 . S
C1444 H1430 0.960 . S
C1444 H1431 0.960 . S
C1444 C1443 1.524 . S
C1445 C1442 1.403 . S
C1445 C1446 1.392 . S
C1445 C1449 1.495 . S
C1446 C1445 1.392 . S
C1446 C1447 1.385 . S
C1446 C1448 1.478 . S
C1447 H1441 0.930 . S
C1447 C1443 1.400 . S
C1447 C1446 1.385 . S
C1448 C1446 1.478 . S
C1448 C1450 1.381 . S
C1448 C1454 1.383 . S
C1449 C1445 1.495 . S
C1449 H1455 0.959 . S
C1449 H1456 0.961 . S
C1449 H1457 0.960 . S
C1450 C1448 1.381 . S
C1450 C1451 1.394 . S
C1450 H1458 0.930 . S
C1451 C1450 1.394 . S
C1451 C1452 1.383 . S
C1451 H1459 0.929 . S
C1452 C1451 1.383 . S
C1452 C1453 1.377 . S
C1453 H1437 0.930 . S
C1453 C1452 1.377 . S
C1453 C1454 1.379 . S
C1454 H1438 0.931 . S
C1454 C1448 1.383 . S
C1454 C1453 1.379 . S
H1455 C1449 0.959 . S
H1456 C1449 0.961 . S
H1457 C1449 0.960 . S
H1458 C1450 0.930 . S
H1459 C1451 0.929 . S
H1460 C1468 0.929 . S
H1461 C1470 0.930 1_554 S
H1462 C1472 0.930 . S
H1463 C1475 0.929 . S
H1464 C1478 0.930 . S
H1465 C1480 0.960 . S
H1466 C1480 0.960 . S
H1467 C1480 0.960 . S
C1468 H1460 0.929 . S
C1468 C1469 1.377 . S
C1468 C1470 1.384 . S
C1469 C1468 1.377 . S
C1469 C1475 1.390 . S
C1470 H1461 0.930 1_556 S
C1470 C1468 1.384 . S
C1470 C1471 1.372 1_556 S
C1471 C1470 1.372 1_554 S
C1471 C1472 1.400 . S
C1471 C1476 1.490 . S
C1472 H1462 0.930 . S
C1472 C1471 1.400 . S
C1472 C1475 1.386 1_554 S
H1473 C1489 0.930 . S
H1474 C1490 0.931 . S
C1475 H1463 0.929 . S
C1475 C1469 1.390 . S
C1475 C1472 1.386 1_556 S
C1476 C1471 1.490 . S
C1476 C1478 1.395 . S
C1476 C1479 1.403 . S
H1477 C1483 0.930 . S
C1478 H1464 0.930 . S
C1478 C1476 1.395 . S
C1478 C1481 1.403 . S
C1479 C1476 1.403 . S
C1479 C1480 1.524 . S
C1479 C1483 1.400 . S
C1480 H1465 0.960 . S
C1480 H1466 0.960 . S
C1480 H1467 0.960 . S
C1480 C1479 1.524 . S
C1481 C1478 1.403 . S
C1481 C1482 1.392 . S
C1481 C1485 1.495 . S
C1482 C1481 1.392 . S
C1482 C1483 1.385 . S
C1482 C1484 1.478 . S
C1483 H1477 0.930 . S
C1483 C1479 1.400 . S
C1483 C1482 1.385 . S
C1484 C1482 1.478 . S
C1484 C1486 1.381 . S
C1484 C1490 1.383 . S
C1485 C1481 1.495 . S
C1485 H1491 0.959 . S
C1485 H1492 0.961 . S
C1485 H1493 0.960 . S
C1486 C1484 1.381 . S
C1486 C1487 1.394 . S
C1486 H1494 0.930 . S
C1487 C1486 1.394 . S
C1487 C1488 1.383 . S
C1487 H1495 0.929 . S
C1488 C1487 1.383 . S
C1488 C1489 1.377 . S
C1489 H1473 0.930 . S
C1489 C1488 1.377 . S
C1489 C1490 1.379 . S
C1490 H1474 0.931 . S
C1490 C1484 1.383 . S
C1490 C1489 1.379 . S
H1491 C1485 0.959 . S
H1492 C1485 0.961 . S
H1493 C1485 0.960 . S
H1494 C1486 0.930 . S
H1495 C1487 0.929 . S
H1496 C1504 0.929 . S
H1497 C1506 0.930 . S
H1498 C1508 0.930 . S
H1499 C1511 0.929 . S
H1500 C1514 0.930 . S
H1501 C1516 0.960 . S
H1502 C1516 0.960 . S
H1503 C1516 0.960 . S
C1504 H1496 0.929 . S
C1504 C1505 1.377 . S
C1504 C1506 1.384 . S
C1505 C1504 1.377 . S
C1505 C1511 1.390 . S
C1506 H1497 0.930 . S
C1506 C1504 1.384 . S
C1506 C1507 1.372 . S
C1507 C1506 1.372 . S
C1507 C1508 1.400 . S
C1507 C1512 1.490 . S
C1508 H1498 0.930 . S
C1508 C1507 1.400 . S
C1508 C1511 1.386 . S
H1509 C1525 0.930 . S
H1510 C1526 0.931 . S
C1511 H1499 0.929 . S
C1511 C1505 1.390 . S
C1511 C1508 1.386 . S
C1512 C1507 1.490 . S
C1512 C1514 1.395 . S
C1512 C1515 1.403 . S
H1513 C1519 0.930 . S
C1514 H1500 0.930 . S
C1514 C1512 1.395 . S
C1514 C1517 1.403 . S
C1515 C1512 1.403 . S
C1515 C1516 1.524 . S
C1515 C1519 1.400 . S
C1516 H1501 0.960 . S
C1516 H1502 0.960 . S
C1516 H1503 0.960 . S
C1516 C1515 1.524 . S
C1517 C1514 1.403 . S
C1517 C1518 1.392 . S
C1517 C1521 1.495 . S
C1518 C1517 1.392 . S
C1518 C1519 1.385 . S
C1518 C1520 1.478 . S
C1519 H1513 0.930 . S
C1519 C1515 1.400 . S
C1519 C1518 1.385 . S
C1520 C1518 1.478 . S
C1520 C1522 1.381 1_556 S
C1520 C1526 1.383 . S
C1521 C1517 1.495 . S
C1521 H1527 0.959 . S
C1521 H1528 0.961 . S
C1521 H1529 0.960 . S
C1522 C1520 1.381 1_554 S
C1522 C1523 1.394 . S
C1522 H1530 0.930 . S
C1523 C1522 1.394 . S
C1523 C1524 1.383 . S
C1523 H1531 0.929 . S
C1524 C1523 1.383 . S
C1524 C1525 1.377 1_554 S
C1525 H1509 0.930 . S
C1525 C1524 1.377 1_556 S
C1525 C1526 1.379 . S
C1526 H1510 0.931 . S
C1526 C1520 1.383 . S
C1526 C1525 1.379 . S
H1527 C1521 0.959 . S
H1528 C1521 0.961 . S
H1529 C1521 0.960 . S
H1530 C1522 0.930 . S
H1531 C1523 0.929 . S
H1532 C1540 0.929 . S
H1533 C1542 0.930 . S
H1534 C1544 0.930 . S
H1535 C1547 0.929 . S
H1536 C1550 0.930 . S
H1537 C1552 0.960 . S
H1538 C1552 0.960 . S
H1539 C1552 0.960 . S
C1540 H1532 0.929 . S
C1540 C1541 1.377 . S
C1540 C1542 1.384 . S
C1541 C1540 1.377 . S
C1541 C1547 1.390 . S
C1542 H1533 0.930 . S
C1542 C1540 1.384 . S
C1542 C1543 1.372 . S
C1543 C1542 1.372 . S
C1543 C1544 1.400 . S
C1543 C1548 1.490 . S
C1544 H1534 0.930 . S
C1544 C1543 1.400 . S
C1544 C1547 1.386 . S
H1545 C1561 0.930 . S
H1546 C1562 0.931 . S
C1547 H1535 0.929 . S
C1547 C1541 1.390 . S
C1547 C1544 1.386 . S
C1548 C1543 1.490 . S
C1548 C1550 1.395 . S
C1548 C1551 1.403 . S
H1549 C1555 0.930 . S
C1550 H1536 0.930 . S
C1550 C1548 1.395 . S
C1550 C1553 1.403 . S
C1551 C1548 1.403 . S
C1551 C1552 1.524 . S
C1551 C1555 1.400 . S
C1552 H1537 0.960 . S
C1552 H1538 0.960 . S
C1552 H1539 0.960 . S
C1552 C1551 1.524 . S
C1553 C1550 1.403 . S
C1553 C1554 1.392 . S
C1553 C1557 1.495 . S
C1554 C1553 1.392 . S
C1554 C1555 1.385 . S
C1554 C1556 1.478 . S
C1555 H1549 0.930 . S
C1555 C1551 1.400 . S
C1555 C1554 1.385 . S
C1556 C1554 1.478 . S
C1556 C1558 1.381 . S
C1556 C1562 1.383 . S
C1557 C1553 1.495 . S
C1557 H1563 0.959 . S
C1557 H1564 0.961 . S
C1557 H1565 0.960 . S
C1558 C1556 1.381 . S
C1558 C1559 1.394 . S
C1558 H1566 0.930 . S
C1559 C1558 1.394 . S
C1559 C1560 1.383 . S
C1559 H1567 0.929 . S
C1560 C1559 1.383 . S
C1560 C1561 1.377 . S
C1561 H1545 0.930 . S
C1561 C1560 1.377 . S
C1561 C1562 1.379 . S
C1562 H1546 0.931 . S
C1562 C1556 1.383 . S
C1562 C1561 1.379 . S
H1563 C1557 0.959 . S
H1564 C1557 0.961 . S
H1565 C1557 0.960 . S
H1566 C1558 0.930 . S
H1567 C1559 0.929 . S
H1568 C1576 0.929 . S
H1569 C1578 0.930 . S
H1570 C1580 0.930 . S
H1571 C1583 0.929 . S
H1572 C1586 0.930 . S
H1573 C1588 0.960 . S
H1574 C1588 0.960 . S
H1575 C1588 0.960 . S
C1576 H1568 0.929 . S
C1576 C1577 1.377 . S
C1576 C1578 1.384 . S
C1577 C1576 1.377 . S
C1577 C1583 1.390 . S
C1578 H1569 0.930 . S
C1578 C1576 1.384 . S
C1578 C1579 1.372 . S
C1579 C1578 1.372 . S
C1579 C1580 1.400 . S
C1579 C1584 1.490 . S
C1580 H1570 0.930 . S
C1580 C1579 1.400 . S
C1580 C1583 1.386 . S
H1581 C1597 0.930 . S
H1582 C1598 0.931 . S
C1583 H1571 0.929 . S
C1583 C1577 1.390 . S
C1583 C1580 1.386 . S
C1584 C1579 1.490 . S
C1584 C1586 1.395 . S
C1584 C1587 1.403 . S
H1585 C1591 0.930 . S
C1586 H1572 0.930 . S
C1586 C1584 1.395 . S
C1586 C1589 1.403 . S
C1587 C1584 1.403 . S
C1587 C1588 1.524 . S
C1587 C1591 1.400 . S
C1588 H1573 0.960 . S
C1588 H1574 0.960 . S
C1588 H1575 0.960 . S
C1588 C1587 1.524 . S
C1589 C1586 1.403 . S
C1589 C1590 1.392 . S
C1589 C1593 1.495 . S
C1590 C1589 1.392 . S
C1590 C1591 1.385 . S
C1590 C1592 1.478 . S
C1591 H1585 0.930 . S
C1591 C1587 1.400 . S
C1591 C1590 1.385 . S
C1592 C1590 1.478 . S
C1592 C1594 1.381 . S
C1592 C1598 1.383 . S
C1593 C1589 1.495 . S
C1593 H1599 0.959 . S
C1593 H1600 0.961 . S
C1593 H1601 0.960 . S
C1594 C1592 1.381 . S
C1594 C1595 1.394 1_554 S
C1594 H1602 0.930 1_554 S
C1595 C1594 1.394 1_556 S
C1595 C1596 1.383 . S
C1595 H1603 0.929 . S
C1596 C1595 1.383 . S
C1596 C1597 1.377 1_556 S
C1597 H1581 0.930 . S
C1597 C1596 1.377 1_554 S
C1597 C1598 1.379 . S
C1598 H1582 0.931 . S
C1598 C1592 1.383 . S
C1598 C1597 1.379 . S
H1599 C1593 0.959 . S
H1600 C1593 0.961 . S
H1601 C1593 0.960 . S
H1602 C1594 0.930 1_556 S
H1603 C1595 0.929 . S
H1604 C1612 0.929 . S
H1605 C1614 0.930 . S
H1606 C1616 0.930 . S
H1607 C1619 0.929 . S
H1608 C1622 0.930 . S
H1609 C1624 0.960 . S
H1610 C1624 0.954 1_655 S
H1611 C1624 0.958 1_655 S
C1612 H1604 0.929 . S
C1612 C1613 1.377 . S
C1612 C1614 1.384 . S
C1613 C1612 1.377 . S
C1613 C1619 1.390 . S
C1614 H1605 0.930 . S
C1614 C1612 1.384 . S
C1614 C1615 1.372 . S
C1615 C1614 1.372 . S
C1615 C1616 1.400 . S
C1615 C1620 1.490 . S
C1616 H1606 0.930 . S
C1616 C1615 1.400 . S
C1616 C1619 1.386 . S
H1617 C1633 0.930 . S
H1618 C1634 0.931 . S
C1619 H1607 0.929 . S
C1619 C1613 1.390 . S
C1619 C1616 1.386 . S
C1620 C1615 1.490 . S
C1620 C1622 1.395 . S
C1620 C1623 1.408 . S
H1621 C1627 0.930 . S
C1622 H1608 0.930 . S
C1622 C1620 1.395 . S
C1622 C1625 1.403 . S
C1623 C1620 1.408 . S
C1623 C1624 1.522 1_655 S
C1623 C1627 1.396 1_655 S
C1624 H1609 0.960 . S
C1624 H1610 0.954 1_455 S
C1624 H1611 0.958 1_455 S
C1624 C1623 1.522 1_455 S
C1625 C1622 1.403 . S
C1625 C1626 1.392 1_655 S
C1625 C1629 1.495 . S
C1626 C1625 1.392 1_455 S
C1626 C1627 1.385 . S
C1626 C1628 1.478 . S
C1627 H1621 0.930 . S
C1627 C1623 1.396 1_455 S
C1627 C1626 1.385 . S
C1628 C1626 1.478 . S
C1628 C1630 1.381 . S
C1628 C1634 1.383 . S
C1629 C1625 1.495 . S
C1629 H1635 0.959 . S
C1629 H1636 0.961 . S
C1629 H1637 0.960 . S
C1630 C1628 1.381 . S
C1630 C1631 1.394 . S
C1630 H1638 0.930 . S
C1631 C1630 1.394 . S
C1631 C1632 1.383 . S
C1631 H1639 0.929 . S
C1632 C1631 1.383 . S
C1632 C1633 1.377 . S
C1633 H1617 0.930 . S
C1633 C1632 1.377 . S
C1633 C1634 1.379 . S
C1634 H1618 0.931 . S
C1634 C1628 1.383 . S
C1634 C1633 1.379 . S
H1635 C1629 0.959 . S
H1636 C1629 0.961 . S
H1637 C1629 0.960 . S
H1638 C1630 0.930 . S
H1639 C1631 0.929 . S
H1640 C1648 0.929 . S
H1641 C1650 0.930 . S
H1642 C1652 0.930 . S
H1643 C1655 0.929 . S
H1644 C1658 0.930 . S
H1645 C1660 0.960 . S
H1646 C1660 0.960 . S
H1647 C1660 0.960 . S
C1648 H1640 0.929 . S
C1648 C1649 1.377 . S
C1648 C1650 1.384 . S
C1649 C1648 1.377 . S
C1649 C1655 1.390 . S
C1650 H1641 0.930 . S
C1650 C1648 1.384 . S
C1650 C1651 1.372 . S
C1651 C1650 1.372 . S
C1651 C1652 1.400 . S
C1651 C1656 1.490 . S
C1652 H1642 0.930 . S
C1652 C1651 1.400 . S
C1652 C1655 1.386 . S
H1653 C1669 0.930 . S
H1654 C1670 0.931 . S
C1655 H1643 0.929 . S
C1655 C1649 1.390 . S
C1655 C1652 1.386 . S
C1656 C1651 1.490 . S
C1656 C1658 1.395 . S
C1656 C1659 1.403 . S
H1657 C1663 0.930 . S
C1658 H1644 0.930 . S
C1658 C1656 1.395 . S
C1658 C1661 1.403 . S
C1659 C1656 1.403 . S
C1659 C1660 1.524 . S
C1659 C1663 1.400 . S
C1660 H1645 0.960 . S
C1660 H1646 0.960 . S
C1660 H1647 0.960 . S
C1660 C1659 1.524 . S
C1661 C1658 1.403 . S
C1661 C1662 1.392 . S
C1661 C1665 1.495 . S
C1662 C1661 1.392 . S
C1662 C1663 1.385 . S
C1662 C1664 1.478 . S
C1663 H1657 0.930 . S
C1663 C1659 1.400 . S
C1663 C1662 1.385 . S
C1664 C1662 1.478 . S
C1664 C1666 1.381 . S
C1664 C1670 1.383 . S
C1665 C1661 1.495 . S
C1665 H1671 0.959 . S
C1665 H1672 0.961 . S
C1665 H1673 0.960 . S
C1666 C1664 1.381 . S
C1666 C1667 1.394 . S
C1666 H1674 0.930 . S
C1667 C1666 1.394 . S
C1667 C1668 1.383 . S
C1667 H1675 0.929 . S
C1668 C1667 1.383 . S
C1668 C1669 1.377 . S
C1669 H1653 0.930 . S
C1669 C1668 1.377 . S
C1669 C1670 1.379 . S
C1670 H1654 0.931 . S
C1670 C1664 1.383 . S
C1670 C1669 1.379 . S
H1671 C1665 0.959 . S
H1672 C1665 0.961 . S
H1673 C1665 0.960 . S
H1674 C1666 0.930 . S
H1675 C1667 0.929 . S
H1676 C1684 0.929 . S
H1677 C1686 0.930 . S
H1678 C1688 0.930 . S
H1679 C1691 0.929 . S
H1680 C1694 0.930 . S
H1681 C1696 0.960 . S
H1682 C1696 0.960 . S
H1683 C1696 0.960 . S
C1684 H1676 0.929 . S
C1684 C1685 1.377 . S
C1684 C1686 1.384 . S
C1685 C1684 1.377 . S
C1685 C1691 1.390 . S
C1686 H1677 0.930 . S
C1686 C1684 1.384 . S
C1686 C1687 1.372 . S
C1687 C1686 1.372 . S
C1687 C1688 1.400 . S
C1687 C1692 1.490 . S
C1688 H1678 0.930 . S
C1688 C1687 1.400 . S
C1688 C1691 1.386 . S
H1689 C1705 0.930 . S
H1690 C1706 0.931 . S
C1691 H1679 0.929 . S
C1691 C1685 1.390 . S
C1691 C1688 1.386 . S
C1692 C1687 1.490 . S
C1692 C1694 1.395 . S
C1692 C1695 1.403 . S
H1693 C1699 0.930 . S
C1694 H1680 0.930 . S
C1694 C1692 1.395 . S
C1694 C1697 1.403 . S
C1695 C1692 1.403 . S
C1695 C1696 1.524 . S
C1695 C1699 1.400 . S
C1696 H1681 0.960 . S
C1696 H1682 0.960 . S
C1696 H1683 0.960 . S
C1696 C1695 1.524 . S
C1697 C1694 1.403 . S
C1697 C1698 1.392 . S
C1697 C1701 1.495 . S
C1698 C1697 1.392 . S
C1698 C1699 1.385 . S
C1698 C1700 1.478 . S
C1699 H1693 0.930 . S
C1699 C1695 1.400 . S
C1699 C1698 1.385 . S
C1700 C1698 1.478 . S
C1700 C1702 1.381 . S
C1700 C1706 1.383 . S
C1701 C1697 1.495 . S
C1701 H1707 0.959 . S
C1701 H1708 0.961 . S
C1701 H1709 0.960 . S
C1702 C1700 1.381 . S
C1702 C1703 1.394 1_556 S
C1702 H1710 0.930 . S
C1703 C1702 1.394 1_554 S
C1703 C1704 1.383 . S
C1703 H1711 0.929 . S
C1704 C1703 1.383 . S
C1704 C1705 1.377 1_554 S
C1705 H1689 0.930 . S
C1705 C1704 1.377 1_556 S
C1705 C1706 1.379 . S
C1706 H1690 0.931 . S
C1706 C1700 1.383 . S
C1706 C1705 1.379 . S
H1707 C1701 0.959 . S
H1708 C1701 0.961 . S
H1709 C1701 0.960 . S
H1710 C1702 0.930 . S
H1711 C1703 0.929 . S
H1712 C1720 0.929 . S
H1713 C1722 0.930 . S
H1714 C1724 0.930 . S
H1715 C1727 0.929 . S
H1716 C1730 0.930 . S
H1717 C1732 0.960 . S
H1718 C1732 0.960 . S
H1719 C1732 0.960 . S
C1720 H1712 0.929 . S
C1720 C1721 1.377 . S
C1720 C1722 1.384 . S
C1721 C1720 1.377 . S
C1721 C1727 1.390 . S
C1722 H1713 0.930 . S
C1722 C1720 1.384 . S
C1722 C1723 1.372 . S
C1723 C1722 1.372 . S
C1723 C1724 1.400 . S
C1723 C1728 1.490 . S
C1724 H1714 0.930 . S
C1724 C1723 1.400 . S
C1724 C1727 1.386 . S
H1725 C1741 0.930 . S
H1726 C1742 0.931 . S
C1727 H1715 0.929 . S
C1727 C1721 1.390 . S
C1727 C1724 1.386 . S
C1728 C1723 1.490 . S
C1728 C1730 1.395 . S
C1728 C1731 1.403 . S
H1729 C1735 0.930 . S
C1730 H1716 0.930 . S
C1730 C1728 1.395 . S
C1730 C1733 1.403 . S
C1731 C1728 1.403 . S
C1731 C1732 1.524 . S
C1731 C1735 1.400 . S
C1732 H1717 0.960 . S
C1732 H1718 0.960 . S
C1732 H1719 0.960 . S
C1732 C1731 1.524 . S
C1733 C1730 1.403 . S
C1733 C1734 1.392 . S
C1733 C1737 1.495 . S
C1734 C1733 1.392 . S
C1734 C1735 1.385 . S
C1734 C1736 1.478 . S
C1735 H1729 0.930 . S
C1735 C1731 1.400 . S
C1735 C1734 1.385 . S
C1736 C1734 1.478 . S
C1736 C1738 1.381 . S
C1736 C1742 1.383 . S
C1737 C1733 1.495 . S
C1737 H1743 0.959 . S
C1737 H1744 0.961 . S
C1737 H1745 0.960 . S
C1738 C1736 1.381 . S
C1738 C1739 1.394 . S
C1738 H1746 0.930 . S
C1739 C1738 1.394 . S
C1739 C1740 1.383 . S
C1739 H1747 0.929 . S
C1740 C1739 1.383 . S
C1740 C1741 1.377 . S
C1741 H1725 0.930 . S
C1741 C1740 1.377 . S
C1741 C1742 1.379 . S
C1742 H1726 0.931 . S
C1742 C1736 1.383 . S
C1742 C1741 1.379 . S
H1743 C1737 0.959 . S
H1744 C1737 0.961 . S
H1745 C1737 0.960 . S
H1746 C1738 0.930 . S
H1747 C1739 0.929 . S
H1748 C1756 0.929 . S
H1749 C1758 0.930 . S
H1750 C1760 0.930 . S
H1751 C1763 0.929 . S
H1752 C1766 0.930 . S
H1753 C1768 0.960 . S
H1754 C1768 0.960 . S
H1755 C1768 0.960 . S
C1756 H1748 0.929 . S
C1756 C1757 1.377 . S
C1756 C1758 1.384 . S
C1757 C1756 1.377 . S
C1757 C1763 1.390 . S
C1758 H1749 0.930 . S
C1758 C1756 1.384 . S
C1758 C1759 1.372 . S
C1759 C1758 1.372 . S
C1759 C1760 1.400 . S
C1759 C1764 1.490 . S
C1760 H1750 0.930 . S
C1760 C1759 1.400 . S
C1760 C1763 1.386 . S
H1761 C1777 0.930 . S
H1762 C1778 0.931 . S
C1763 H1751 0.929 . S
C1763 C1757 1.390 . S
C1763 C1760 1.386 . S
C1764 C1759 1.490 . S
C1764 C1766 1.395 . S
C1764 C1767 1.403 . S
H1765 C1771 0.930 . S
C1766 H1752 0.930 . S
C1766 C1764 1.395 . S
C1766 C1769 1.403 . S
C1767 C1764 1.403 . S
C1767 C1768 1.524 . S
C1767 C1771 1.400 . S
C1768 H1753 0.960 . S
C1768 H1754 0.960 . S
C1768 H1755 0.960 . S
C1768 C1767 1.524 . S
C1769 C1766 1.403 . S
C1769 C1770 1.392 . S
C1769 C1773 1.495 . S
C1770 C1769 1.392 . S
C1770 C1771 1.385 . S
C1770 C1772 1.478 . S
C1771 H1765 0.930 . S
C1771 C1767 1.400 . S
C1771 C1770 1.385 . S
C1772 C1770 1.478 . S
C1772 C1774 1.381 . S
C1772 C1778 1.383 . S
C1773 C1769 1.495 . S
C1773 H1779 0.959 . S
C1773 H1780 0.961 . S
C1773 H1781 0.960 . S
C1774 C1772 1.381 . S
C1774 C1775 1.394 . S
C1774 H1782 0.930 . S
C1775 C1774 1.394 . S
C1775 C1776 1.383 . S
C1775 H1783 0.929 . S
C1776 C1775 1.383 . S
C1776 C1777 1.377 . S
C1777 H1761 0.930 . S
C1777 C1776 1.377 . S
C1777 C1778 1.379 . S
C1778 H1762 0.931 . S
C1778 C1772 1.383 . S
C1778 C1777 1.379 . S
H1779 C1773 0.959 . S
H1780 C1773 0.961 . S
H1781 C1773 0.960 . S
H1782 C1774 0.930 . S
H1783 C1775 0.929 . S
H1784 C1792 0.929 . S
H1785 C1794 0.930 . S
H1786 C1796 0.930 . S
H1787 C1799 0.929 . S
H1788 C1802 0.930 . S
H1789 C1804 0.960 . S
H1790 C1804 0.960 . S
H1791 C1804 0.960 . S
C1792 H1784 0.929 . S
C1792 C1793 1.377 . S
C1792 C1794 1.384 . S
C1793 C1792 1.377 . S
C1793 C1799 1.390 . S
C1794 H1785 0.930 . S
C1794 C1792 1.384 . S
C1794 C1795 1.372 . S
C1795 C1794 1.372 . S
C1795 C1796 1.400 . S
C1795 C1800 1.490 . S
C1796 H1786 0.930 . S
C1796 C1795 1.400 . S
C1796 C1799 1.386 . S
H1797 C1813 0.930 . S
H1798 C1814 0.931 . S
C1799 H1787 0.929 . S
C1799 C1793 1.390 . S
C1799 C1796 1.386 . S
C1800 C1795 1.490 . S
C1800 C1802 1.395 . S
C1800 C1803 1.403 . S
H1801 C1807 0.930 . S
C1802 H1788 0.930 . S
C1802 C1800 1.395 . S
C1802 C1805 1.403 . S
C1803 C1800 1.403 . S
C1803 C1804 1.524 . S
C1803 C1807 1.400 . S
C1804 H1789 0.960 . S
C1804 H1790 0.960 . S
C1804 H1791 0.960 . S
C1804 C1803 1.524 . S
C1805 C1802 1.403 . S
C1805 C1806 1.392 . S
C1805 C1809 1.495 . S
C1806 C1805 1.392 . S
C1806 C1807 1.385 . S
C1806 C1808 1.478 . S
C1807 H1801 0.930 . S
C1807 C1803 1.400 . S
C1807 C1806 1.385 . S
C1808 C1806 1.478 . S
C1808 C1810 1.381 . S
C1808 C1814 1.383 . S
C1809 C1805 1.495 . S
C1809 H1815 0.959 . S
C1809 H1816 0.961 1_556 S
C1809 H1817 0.960 1_556 S
C1810 C1808 1.381 . S
C1810 C1811 1.394 1_556 S
C1810 H1818 0.930 . S
C1811 C1810 1.394 1_554 S
C1811 C1812 1.383 . S
C1811 H1819 0.929 . S
C1812 C1811 1.383 . S
C1812 C1813 1.377 1_554 S
C1813 H1797 0.930 . S
C1813 C1812 1.377 1_556 S
C1813 C1814 1.379 . S
C1814 H1798 0.931 . S
C1814 C1808 1.383 . S
C1814 C1813 1.379 . S
H1815 C1809 0.959 . S
H1816 C1809 0.961 1_554 S
H1817 C1809 0.960 1_554 S
H1818 C1810 0.930 . S
H1819 C1811 0.929 . S
H1820 C1828 0.929 . S
H1821 C1830 0.928 1_556 S
H1822 C1832 0.930 . S
H1823 C1835 0.929 . S
H1824 C1838 0.930 . S
H1825 C1840 0.960 . S
H1826 C1840 0.960 . S
H1827 C1840 0.960 . S
C1828 H1820 0.929 . S
C1828 C1829 1.377 . S
C1828 C1830 1.380 1_556 S
C1829 C1828 1.377 . S
C1829 C1835 1.390 1_556 S
C1830 H1821 0.928 1_554 S
C1830 C1828 1.380 1_554 S
C1830 C1831 1.378 . S
C1831 C1830 1.378 . S
C1831 C1832 1.400 . S
C1831 C1836 1.490 . S
C1832 H1822 0.930 . S
C1832 C1831 1.400 . S
C1832 C1835 1.386 . S
H1833 C1849 0.930 . S
H1834 C1850 0.931 . S
C1835 H1823 0.929 . S
C1835 C1829 1.390 1_554 S
C1835 C1832 1.386 . S
C1836 C1831 1.490 . S
C1836 C1838 1.395 1_455 S
C1836 C1839 1.403 . S
H1837 C1843 0.930 . S
C1838 H1824 0.930 . S
C1838 C1836 1.395 1_655 S
C1838 C1841 1.403 . S
C1839 C1836 1.403 . S
C1839 C1840 1.524 . S
C1839 C1843 1.400 1_455 S
C1840 H1825 0.960 . S
C1840 H1826 0.960 . S
C1840 H1827 0.960 . S
C1840 C1839 1.524 . S
C1841 C1838 1.403 . S
C1841 C1842 1.392 . S
C1841 C1845 1.495 . S
C1842 C1841 1.392 . S
C1842 C1843 1.385 . S
C1842 C1844 1.478 . S
C1843 H1837 0.930 . S
C1843 C1839 1.400 1_655 S
C1843 C1842 1.385 . S
C1844 C1842 1.478 . S
C1844 C1846 1.381 . S
C1844 C1850 1.383 . S
C1845 C1841 1.495 . S
C1845 H1851 0.959 . S
C1845 H1852 0.961 . S
C1845 H1853 0.960 . S
C1846 C1844 1.381 . S
C1846 C1847 1.394 . S
C1846 H1854 0.930 . S
C1847 C1846 1.394 . S
C1847 C1848 1.383 . S
C1847 H1855 0.929 . S
C1848 C1847 1.383 . S
C1848 C1849 1.377 . S
C1849 H1833 0.930 . S
C1849 C1848 1.377 . S
C1849 C1850 1.379 . S
C1850 H1834 0.931 . S
C1850 C1844 1.383 . S
C1850 C1849 1.379 . S
H1851 C1845 0.959 . S
H1852 C1845 0.961 . S
H1853 C1845 0.960 . S
H1854 C1846 0.930 . S
H1855 C1847 0.929 . S
H1856 C1864 0.929 . S
H1857 C1866 0.930 . S
H1858 C1868 0.930 . S
H1859 C1871 0.929 . S
H1860 C1874 0.930 . S
H1861 C1876 0.960 . S
H1862 C1876 0.960 . S
H1863 C1876 0.960 . S
C1864 H1856 0.929 . S
C1864 C1865 1.377 . S
C1864 C1866 1.384 . S
C1865 C1864 1.377 . S
C1865 C1871 1.390 . S
C1866 H1857 0.930 . S
C1866 C1864 1.384 . S
C1866 C1867 1.372 . S
C1867 C1866 1.372 . S
C1867 C1868 1.400 . S
C1867 C1872 1.490 . S
C1868 H1858 0.930 . S
C1868 C1867 1.400 . S
C1868 C1871 1.386 . S
H1869 C1885 0.930 . S
H1870 C1886 0.931 1_554 S
C1871 H1859 0.929 . S
C1871 C1865 1.390 . S
C1871 C1868 1.386 . S
C1872 C1867 1.490 . S
C1872 C1874 1.395 . S
C1872 C1875 1.403 . S
H1873 C1879 0.930 . S
C1874 H1860 0.930 . S
C1874 C1872 1.395 . S
C1874 C1877 1.403 . S
C1875 C1872 1.403 . S
C1875 C1876 1.524 . S
C1875 C1879 1.400 . S
C1876 H1861 0.960 . S
C1876 H1862 0.960 . S
C1876 H1863 0.960 . S
C1876 C1875 1.524 . S
C1877 C1874 1.403 . S
C1877 C1878 1.392 . S
C1877 C1881 1.495 . S
C1878 C1877 1.392 . S
C1878 C1879 1.385 . S
C1878 C1880 1.478 . S
C1879 H1873 0.930 . S
C1879 C1875 1.400 . S
C1879 C1878 1.385 . S
C1880 C1878 1.478 . S
C1880 C1882 1.381 . S
C1880 C1886 1.383 . S
C1881 C1877 1.495 . S
C1881 H1887 0.959 . S
C1881 H1888 0.961 . S
C1881 H1889 0.960 . S
C1882 C1880 1.381 . S
C1882 C1883 1.394 . S
C1882 H1890 0.930 . S
C1883 C1882 1.394 . S
C1883 C1884 1.383 1_556 S
C1883 H1891 0.929 . S
C1884 C1883 1.383 1_554 S
C1884 C1885 1.377 . S
C1885 H1869 0.930 . S
C1885 C1884 1.377 . S
C1885 C1886 1.379 1_554 S
C1886 H1870 0.931 1_556 S
C1886 C1880 1.383 . S
C1886 C1885 1.379 1_556 S
H1887 C1881 0.959 . S
H1888 C1881 0.961 . S
H1889 C1881 0.960 . S
H1890 C1882 0.930 . S
H1891 C1883 0.929 . S
H1892 C1900 0.929 . S
H1893 C1902 0.930 . S
H1894 C1904 0.930 . S
H1895 C1907 0.929 . S
H1896 C1910 0.930 . S
H1897 C1912 0.960 . S
H1898 C1912 0.960 1_455 S
H1899 C1912 0.959 . S
C1900 H1892 0.929 . S
C1900 C1901 1.377 . S
C1900 C1902 1.384 . S
C1901 C1900 1.377 . S
C1901 C1907 1.390 . S
C1902 H1893 0.930 . S
C1902 C1900 1.384 . S
C1902 C1903 1.372 . S
C1903 C1902 1.372 . S
C1903 C1904 1.400 . S
C1903 C1908 1.490 . S
C1904 H1894 0.930 . S
C1904 C1903 1.400 . S
C1904 C1907 1.386 . S
H1905 C1921 0.930 . S
H1906 C1922 0.931 . S
C1907 H1895 0.929 . S
C1907 C1901 1.390 . S
C1907 C1904 1.386 . S
C1908 C1903 1.490 . S
C1908 C1910 1.395 . S
C1908 C1911 1.444 . S
H1909 C1915 0.930 . S
C1910 H1896 0.930 . S
C1910 C1908 1.395 . S
C1910 C1913 1.403 . S
C1911 C1908 1.444 . S
C1911 C1912 1.515 1_455 S
C1911 C1915 1.367 1_455 S
C1912 H1897 0.960 . S
C1912 H1898 0.960 1_655 S
C1912 H1899 0.959 . S
C1912 C1911 1.515 1_655 S
C1913 C1910 1.403 . S
C1913 C1914 1.392 1_455 S
C1913 C1917 1.495 . S
C1914 C1913 1.392 1_655 S
C1914 C1915 1.385 . S
C1914 C1916 1.478 . S
C1915 H1909 0.930 . S
C1915 C1911 1.367 1_655 S
C1915 C1914 1.385 . S
C1916 C1914 1.478 . S
C1916 C1918 1.381 . S
C1916 C1922 1.383 . S
C1917 C1913 1.495 . S
C1917 H1923 0.959 . S
C1917 H1924 0.961 . S
C1917 H1925 0.960 . S
C1918 C1916 1.381 . S
C1918 C1919 1.394 . S
C1918 H1926 0.930 . S
C1919 C1918 1.394 . S
C1919 C1920 1.383 . S
C1919 H1927 0.929 . S
C1920 C1919 1.383 . S
C1920 C1921 1.377 . S
C1921 H1905 0.930 . S
C1921 C1920 1.377 . S
C1921 C1922 1.379 . S
C1922 H1906 0.931 . S
C1922 C1916 1.383 . S
C1922 C1921 1.379 . S
H1923 C1917 0.959 . S
H1924 C1917 0.961 . S
H1925 C1917 0.960 . S
H1926 C1918 0.930 . S
H1927 C1919 0.929 . S
H1928 C1936 0.929 . S
H1929 C1938 0.930 . S
H1930 C1940 0.930 . S
H1931 C1943 0.929 . S
H1932 C1946 0.930 . S
H1933 C1948 0.960 . S
H1934 C1948 0.960 . S
H1935 C1948 0.960 . S
C1936 H1928 0.929 . S
C1936 C1937 1.377 . S
C1936 C1938 1.384 . S
C1937 C1936 1.377 . S
C1937 C1943 1.390 . S
C1938 H1929 0.930 . S
C1938 C1936 1.384 . S
C1938 C1939 1.372 . S
C1939 C1938 1.372 . S
C1939 C1940 1.400 . S
C1939 C1944 1.490 . S
C1940 H1930 0.930 . S
C1940 C1939 1.400 . S
C1940 C1943 1.386 . S
H1941 C1957 0.930 . S
H1942 C1958 0.931 . S
C1943 H1931 0.929 . S
C1943 C1937 1.390 . S
C1943 C1940 1.386 . S
C1944 C1939 1.490 . S
C1944 C1946 1.395 . S
C1944 C1947 1.403 . S
H1945 C1951 0.930 . S
C1946 H1932 0.930 . S
C1946 C1944 1.395 . S
C1946 C1949 1.403 . S
C1947 C1944 1.403 . S
C1947 C1948 1.524 . S
C1947 C1951 1.400 . S
C1948 H1933 0.960 . S
C1948 H1934 0.960 . S
C1948 H1935 0.960 . S
C1948 C1947 1.524 . S
C1949 C1946 1.403 . S
C1949 C1950 1.392 . S
C1949 C1953 1.495 . S
C1950 C1949 1.392 . S
C1950 C1951 1.385 . S
C1950 C1952 1.478 . S
C1951 H1945 0.930 . S
C1951 C1947 1.400 . S
C1951 C1950 1.385 . S
C1952 C1950 1.478 . S
C1952 C1954 1.381 . S
C1952 C1958 1.383 . S
C1953 C1949 1.495 . S
C1953 H1959 0.959 . S
C1953 H1960 0.961 . S
C1953 H1961 0.960 . S
C1954 C1952 1.381 . S
C1954 C1955 1.394 . S
C1954 H1962 0.930 . S
C1955 C1954 1.394 . S
C1955 C1956 1.383 . S
C1955 H1963 0.929 . S
C1956 C1955 1.383 . S
C1956 C1957 1.377 . S
C1957 H1941 0.930 . S
C1957 C1956 1.377 . S
C1957 C1958 1.379 . S
C1958 H1942 0.931 . S
C1958 C1952 1.383 . S
C1958 C1957 1.379 . S
H1959 C1953 0.959 . S
H1960 C1953 0.961 . S
H1961 C1953 0.960 . S
H1962 C1954 0.930 . S
H1963 C1955 0.929 . S
H1964 C1972 0.929 . S
H1965 C1974 0.930 . S
H1966 C1976 0.930 . S
H1967 C1979 0.929 . S
H1968 C1982 0.930 . S
H1969 C1984 0.960 . S
H1970 C1984 0.960 . S
H1971 C1984 0.960 . S
C1972 H1964 0.929 . S
C1972 C1973 1.377 . S
C1972 C1974 1.384 . S
C1973 C1972 1.377 . S
C1973 C1979 1.390 . S
C1974 H1965 0.930 . S
C1974 C1972 1.384 . S
C1974 C1975 1.372 . S
C1975 C1974 1.372 . S
C1975 C1976 1.400 . S
C1975 C1980 1.490 . S
C1976 H1966 0.930 . S
C1976 C1975 1.400 . S
C1976 C1979 1.386 . S
H1977 C1993 0.930 . S
H1978 C1994 0.931 . S
C1979 H1967 0.929 . S
C1979 C1973 1.390 . S
C1979 C1976 1.386 . S
C1980 C1975 1.490 . S
C1980 C1982 1.395 . S
C1980 C1983 1.403 . S
H1981 C1987 0.930 . S
C1982 H1968 0.930 . S
C1982 C1980 1.395 . S
C1982 C1985 1.403 . S
C1983 C1980 1.403 . S
C1983 C1984 1.524 . S
C1983 C1987 1.400 . S
C1984 H1969 0.960 . S
C1984 H1970 0.960 . S
C1984 H1971 0.960 . S
C1984 C1983 1.524 . S
C1985 C1982 1.403 . S
C1985 C1986 1.392 . S
C1985 C1989 1.495 . S
C1986 C1985 1.392 . S
C1986 C1987 1.385 . S
C1986 C1988 1.478 . S
C1987 H1981 0.930 . S
C1987 C1983 1.400 . S
C1987 C1986 1.385 . S
C1988 C1986 1.478 . S
C1988 C1990 1.381 . S
C1988 C1994 1.383 . S
C1989 C1985 1.495 . S
C1989 H1995 0.959 . S
C1989 H1996 0.961 . S
C1989 H1997 0.960 . S
C1990 C1988 1.381 . S
C1990 C1991 1.394 . S
C1990 H1998 0.930 . S
C1991 C1990 1.394 . S
C1991 C1992 1.383 1_554 S
C1991 H1999 0.929 . S
C1992 C1991 1.383 1_556 S
C1992 C1993 1.377 . S
C1993 H1977 0.930 . S
C1993 C1992 1.377 . S
C1993 C1994 1.379 1_556 S
C1994 H1978 0.931 . S
C1994 C1988 1.383 . S
C1994 C1993 1.379 1_554 S
H1995 C1989 0.959 . S
H1996 C1989 0.961 . S
H1997 C1989 0.960 . S
H1998 C1990 0.930 . S
H1999 C1991 0.929 . S
H2000 C2008 0.929 . S
H2001 C2010 0.930 . S
H2002 C2012 0.930 . S
H2003 C2015 0.929 . S
H2004 C2018 0.930 . S
H2005 C2020 0.960 . S
H2006 C2020 0.960 . S
H2007 C2020 0.960 . S
C2008 H2000 0.929 . S
C2008 C2009 1.377 . S
C2008 C2010 1.384 . S
C2009 C2008 1.377 . S
C2009 C2015 1.390 . S
C2010 H2001 0.930 . S
C2010 C2008 1.384 . S
C2010 C2011 1.372 . S
C2011 C2010 1.372 . S
C2011 C2012 1.400 . S
C2011 C2016 1.490 . S
C2012 H2002 0.930 . S
C2012 C2011 1.400 . S
C2012 C2015 1.386 . S
H2013 C2029 0.930 . S
H2014 C2030 0.931 . S
C2015 H2003 0.929 . S
C2015 C2009 1.390 . S
C2015 C2012 1.386 . S
C2016 C2011 1.490 . S
C2016 C2018 1.395 . S
C2016 C2019 1.403 . S
H2017 C2023 0.930 . S
C2018 H2004 0.930 . S
C2018 C2016 1.395 . S
C2018 C2021 1.403 . S
C2019 C2016 1.403 . S
C2019 C2020 1.524 . S
C2019 C2023 1.400 . S
C2020 H2005 0.960 . S
C2020 H2006 0.960 . S
C2020 H2007 0.960 . S
C2020 C2019 1.524 . S
C2021 C2018 1.403 . S
C2021 C2022 1.392 . S
C2021 C2025 1.495 . S
C2022 C2021 1.392 . S
C2022 C2023 1.385 . S
C2022 C2024 1.478 . S
C2023 H2017 0.930 . S
C2023 C2019 1.400 . S
C2023 C2022 1.385 . S
C2024 C2022 1.478 . S
C2024 C2026 1.381 . S
C2024 C2030 1.383 . S
C2025 C2021 1.495 . S
C2025 H2031 0.959 . S
C2025 H2032 0.961 . S
C2025 H2033 0.960 . S
C2026 C2024 1.381 . S
C2026 C2027 1.394 . S
C2026 H2034 0.930 . S
C2027 C2026 1.394 . S
C2027 C2028 1.383 . S
C2027 H2035 0.929 . S
C2028 C2027 1.383 . S
C2028 C2029 1.377 . S
C2029 H2013 0.930 . S
C2029 C2028 1.377 . S
C2029 C2030 1.379 . S
C2030 H2014 0.931 . S
C2030 C2024 1.383 . S
C2030 C2029 1.379 . S
H2031 C2025 0.959 . S
H2032 C2025 0.961 . S
H2033 C2025 0.960 . S
H2034 C2026 0.930 . S
H2035 C2027 0.929 . S
H2036 C2044 0.929 . S
H2037 C2046 0.930 . S
H2038 C2048 0.930 . S
H2039 C2051 0.929 . S
H2040 C2054 0.930 . S
H2041 C2056 0.960 . S
H2042 C2056 0.960 . S
H2043 C2056 0.960 . S
C2044 H2036 0.929 . S
C2044 C2045 1.377 . S
C2044 C2046 1.384 . S
C2045 C2044 1.377 . S
C2045 C2051 1.390 . S
C2046 H2037 0.930 . S
C2046 C2044 1.384 . S
C2046 C2047 1.372 . S
C2047 C2046 1.372 . S
C2047 C2048 1.400 . S
C2047 C2052 1.490 . S
C2048 H2038 0.930 . S
C2048 C2047 1.400 . S
C2048 C2051 1.386 . S
H2049 C2065 0.930 . S
H2050 C2066 0.931 . S
C2051 H2039 0.929 . S
C2051 C2045 1.390 . S
C2051 C2048 1.386 . S
C2052 C2047 1.490 . S
C2052 C2054 1.395 . S
C2052 C2055 1.403 . S
H2053 C2059 0.930 . S
C2054 H2040 0.930 . S
C2054 C2052 1.395 . S
C2054 C2057 1.403 . S
C2055 C2052 1.403 . S
C2055 C2056 1.524 . S
C2055 C2059 1.400 . S
C2056 H2041 0.960 . S
C2056 H2042 0.960 . S
C2056 H2043 0.960 . S
C2056 C2055 1.524 . S
C2057 C2054 1.403 . S
C2057 C2058 1.392 . S
C2057 C2061 1.495 . S
C2058 C2057 1.392 . S
C2058 C2059 1.385 . S
C2058 C2060 1.478 . S
C2059 H2053 0.930 . S
C2059 C2055 1.400 . S
C2059 C2058 1.385 . S
C2060 C2058 1.478 . S
C2060 C2062 1.381 . S
C2060 C2066 1.383 . S
C2061 C2057 1.495 . S
C2061 H2067 0.959 . S
C2061 H2068 0.961 . S
C2061 H2069 0.960 . S
C2062 C2060 1.381 . S
C2062 C2063 1.394 . S
C2062 H2070 0.930 . S
C2063 C2062 1.394 . S
C2063 C2064 1.383 . S
C2063 H2071 0.929 . S
C2064 C2063 1.383 . S
C2064 C2065 1.377 . S
C2065 H2049 0.930 . S
C2065 C2064 1.377 . S
C2065 C2066 1.379 . S
C2066 H2050 0.931 . S
C2066 C2060 1.383 . S
C2066 C2065 1.379 . S
H2067 C2061 0.959 . S
H2068 C2061 0.961 . S
H2069 C2061 0.960 . S
H2070 C2062 0.930 . S
H2071 C2063 0.929 . S
H2072 C2080 0.929 . S
H2073 C2082 0.930 . S
H2074 C2084 0.930 . S
H2075 C2087 0.929 . S
H2076 C2090 0.930 . S
H2077 C2092 0.960 . S
H2078 C2092 0.960 . S
H2079 C2092 0.960 . S
C2080 H2072 0.929 . S
C2080 C2081 1.377 . S
C2080 C2082 1.384 . S
C2081 C2080 1.377 . S
C2081 C2087 1.390 . S
C2082 H2073 0.930 . S
C2082 C2080 1.384 . S
C2082 C2083 1.372 . S
C2083 C2082 1.372 . S
C2083 C2084 1.400 . S
C2083 C2088 1.490 . S
C2084 H2074 0.930 . S
C2084 C2083 1.400 . S
C2084 C2087 1.386 . S
H2085 C2101 0.930 . S
H2086 C2102 0.931 1_556 S
C2087 H2075 0.929 . S
C2087 C2081 1.390 . S
C2087 C2084 1.386 . S
C2088 C2083 1.490 . S
C2088 C2090 1.395 . S
C2088 C2091 1.403 . S
H2089 C2095 0.930 . S
C2090 H2076 0.930 . S
C2090 C2088 1.395 . S
C2090 C2093 1.403 . S
C2091 C2088 1.403 . S
C2091 C2092 1.524 . S
C2091 C2095 1.400 . S
C2092 H2077 0.960 . S
C2092 H2078 0.960 . S
C2092 H2079 0.960 . S
C2092 C2091 1.524 . S
C2093 C2090 1.403 . S
C2093 C2094 1.392 . S
C2093 C2097 1.495 . S
C2094 C2093 1.392 . S
C2094 C2095 1.385 . S
C2094 C2096 1.478 . S
C2095 H2089 0.930 . S
C2095 C2091 1.400 . S
C2095 C2094 1.385 . S
C2096 C2094 1.478 . S
C2096 C2098 1.381 . S
C2096 C2102 1.383 . S
C2097 C2093 1.495 . S
C2097 H2103 0.959 . S
C2097 H2104 0.961 . S
C2097 H2105 0.960 . S
C2098 C2096 1.381 . S
C2098 C2099 1.394 . S
C2098 H2106 0.930 . S
C2099 C2098 1.394 . S
C2099 C2100 1.383 1_554 S
C2099 H2107 0.929 . S
C2100 C2099 1.383 1_556 S
C2100 C2101 1.377 . S
C2101 H2085 0.930 . S
C2101 C2100 1.377 . S
C2101 C2102 1.379 1_556 S
C2102 H2086 0.931 1_554 S
C2102 C2096 1.383 . S
C2102 C2101 1.379 1_554 S
H2103 C2097 0.959 . S
H2104 C2097 0.961 . S
H2105 C2097 0.960 . S
H2106 C2098 0.930 . S
H2107 C2099 0.929 . S
H2108 C2116 0.929 . S
H2109 C2118 0.930 . S
H2110 C2120 0.930 . S
H2111 C2123 0.929 . S
H2112 C2126 0.930 . S
H2113 C2128 0.960 . S
H2114 C2128 0.960 . S
H2115 C2128 0.960 . S
C2116 H2108 0.929 . S
C2116 C2117 1.377 . S
C2116 C2118 1.384 . S
C2117 C2116 1.377 . S
C2117 C2123 1.390 . S
C2118 H2109 0.930 . S
C2118 C2116 1.384 . S
C2118 C2119 1.372 . S
C2119 C2118 1.372 . S
C2119 C2120 1.400 . S
C2119 C2124 1.490 . S
C2120 H2110 0.930 . S
C2120 C2119 1.400 . S
C2120 C2123 1.386 . S
H2121 C2137 0.930 . S
H2122 C2138 0.931 1_554 S
C2123 H2111 0.929 . S
C2123 C2117 1.390 . S
C2123 C2120 1.386 . S
C2124 C2119 1.490 . S
C2124 C2126 1.395 . S
C2124 C2127 1.403 . S
H2125 C2131 0.930 . S
C2126 H2112 0.930 . S
C2126 C2124 1.395 . S
C2126 C2129 1.403 1_455 S
C2127 C2124 1.403 . S
C2127 C2128 1.524 . S
C2127 C2131 1.400 1_455 S
C2128 H2113 0.960 . S
C2128 H2114 0.960 . S
C2128 H2115 0.960 . S
C2128 C2127 1.524 . S
C2129 C2126 1.403 1_655 S
C2129 C2130 1.392 . S
C2129 C2133 1.495 . S
C2130 C2129 1.392 . S
C2130 C2131 1.385 . S
C2130 C2132 1.478 . S
C2131 H2125 0.930 . S
C2131 C2127 1.400 1_655 S
C2131 C2130 1.385 . S
C2132 C2130 1.478 . S
C2132 C2134 1.381 . S
C2132 C2138 1.383 . S
C2133 C2129 1.495 . S
C2133 H2139 0.943 1_655 S
C2133 H2140 0.961 . S
C2133 H2141 0.960 . S
C2134 C2132 1.381 . S
C2134 C2135 1.394 . S
C2134 H2142 0.930 . S
C2135 C2134 1.394 . S
C2135 C2136 1.383 1_556 S
C2135 H2143 0.929 . S
C2136 C2135 1.383 1_554 S
C2136 C2137 1.377 . S
C2137 H2121 0.930 . S
C2137 C2136 1.377 . S
C2137 C2138 1.379 1_554 S
C2138 H2122 0.931 1_556 S
C2138 C2132 1.383 . S
C2138 C2137 1.379 1_556 S
H2139 C2133 0.943 1_455 S
H2140 C2133 0.961 . S
H2141 C2133 0.960 . S
H2142 C2134 0.930 . S
H2143 C2135 0.929 . S
H2144 C2152 0.929 . S
H2145 C2154 0.930 . S
H2146 C2156 0.930 . S
H2147 C2159 0.929 . S
H2148 C2162 0.930 . S
H2149 C2164 0.960 . S
H2150 C2164 0.960 . S
H2151 C2164 0.960 . S
C2152 H2144 0.929 . S
C2152 C2153 1.377 . S
C2152 C2154 1.384 . S
C2153 C2152 1.377 . S
C2153 C2159 1.390 . S
C2154 H2145 0.930 . S
C2154 C2152 1.384 . S
C2154 C2155 1.372 . S
C2155 C2154 1.372 . S
C2155 C2156 1.400 . S
C2155 C2160 1.490 . S
C2156 H2146 0.930 . S
C2156 C2155 1.400 . S
C2156 C2159 1.386 . S
H2157 C2173 0.930 . S
H2158 C2174 0.931 . S
C2159 H2147 0.929 . S
C2159 C2153 1.390 . S
C2159 C2156 1.386 . S
C2160 C2155 1.490 . S
C2160 C2162 1.395 . S
C2160 C2163 1.403 . S
H2161 C2167 0.930 . S
C2162 H2148 0.930 . S
C2162 C2160 1.395 . S
C2162 C2165 1.403 . S
C2163 C2160 1.403 . S
C2163 C2164 1.524 . S
C2163 C2167 1.400 . S
C2164 H2149 0.960 . S
C2164 H2150 0.960 . S
C2164 H2151 0.960 . S
C2164 C2163 1.524 . S
C2165 C2162 1.403 . S
C2165 C2166 1.392 . S
C2165 C2169 1.495 . S
C2166 C2165 1.392 . S
C2166 C2167 1.385 . S
C2166 C2168 1.478 . S
C2167 H2161 0.930 . S
C2167 C2163 1.400 . S
C2167 C2166 1.385 . S
C2168 C2166 1.478 . S
C2168 C2170 1.381 . S
C2168 C2174 1.383 . S
C2169 C2165 1.495 . S
C2169 H2175 0.959 . S
C2169 H2176 0.961 . S
C2169 H2177 0.960 . S
C2170 C2168 1.381 . S
C2170 C2171 1.394 . S
C2170 H2178 0.930 . S
C2171 C2170 1.394 . S
C2171 C2172 1.383 . S
C2171 H2179 0.929 . S
C2172 C2171 1.383 . S
C2172 C2173 1.377 . S
C2173 H2157 0.930 . S
C2173 C2172 1.377 . S
C2173 C2174 1.379 . S
C2174 H2158 0.931 . S
C2174 C2168 1.383 . S
C2174 C2173 1.379 . S
H2175 C2169 0.959 . S
H2176 C2169 0.961 . S
H2177 C2169 0.960 . S
H2178 C2170 0.930 . S
H2179 C2171 0.929 . S
H2180 C2188 0.929 . S
H2181 C2190 0.930 . S
H2182 C2192 0.930 . S
H2183 C2195 0.929 . S
H2184 C2198 0.930 . S
H2185 C2200 0.960 . S
H2186 C2200 0.960 . S
H2187 C2200 0.960 . S
C2188 H2180 0.929 . S
C2188 C2189 1.377 . S
C2188 C2190 1.384 . S
C2189 C2188 1.377 . S
C2189 C2195 1.390 . S
C2190 H2181 0.930 . S
C2190 C2188 1.384 . S
C2190 C2191 1.372 . S
C2191 C2190 1.372 . S
C2191 C2192 1.400 . S
C2191 C2196 1.490 . S
C2192 H2182 0.930 . S
C2192 C2191 1.400 . S
C2192 C2195 1.386 . S
H2193 C2209 0.930 . S
H2194 C2210 0.931 . S
C2195 H2183 0.929 . S
C2195 C2189 1.390 . S
C2195 C2192 1.386 . S
C2196 C2191 1.490 . S
C2196 C2198 1.395 . S
C2196 C2199 1.403 . S
H2197 C2203 0.930 . S
C2198 H2184 0.930 . S
C2198 C2196 1.395 . S
C2198 C2201 1.403 . S
C2199 C2196 1.403 . S
C2199 C2200 1.524 . S
C2199 C2203 1.400 . S
C2200 H2185 0.960 . S
C2200 H2186 0.960 . S
C2200 H2187 0.960 . S
C2200 C2199 1.524 . S
C2201 C2198 1.403 . S
C2201 C2202 1.392 . S
C2201 C2205 1.499 . S
C2202 C2201 1.392 . S
C2202 C2203 1.385 . S
C2202 C2204 1.478 . S
C2203 H2197 0.930 . S
C2203 C2199 1.400 . S
C2203 C2202 1.385 . S
C2204 C2202 1.478 . S
C2204 C2206 1.381 . S
C2204 C2210 1.383 . S
C2205 C2201 1.499 . S
C2205 H2211 0.959 1_556 S
C2205 H2212 0.960 1_556 S
C2205 H2213 0.957 1_556 S
C2206 C2204 1.381 . S
C2206 C2207 1.394 1_556 S
C2206 H2214 0.930 1_556 S
C2207 C2206 1.394 1_554 S
C2207 C2208 1.383 . S
C2207 H2215 0.929 . S
C2208 C2207 1.383 . S
C2208 C2209 1.377 1_554 S
C2209 H2193 0.930 . S
C2209 C2208 1.377 1_556 S
C2209 C2210 1.379 . S
C2210 H2194 0.931 . S
C2210 C2204 1.383 . S
C2210 C2209 1.379 . S
H2211 C2205 0.959 1_554 S
H2212 C2205 0.960 1_554 S
H2213 C2205 0.957 1_554 S
H2214 C2206 0.930 1_554 S
H2215 C2207 0.929 . S
H2216 C2224 0.929 . S
H2217 C2226 0.930 . S
H2218 C2228 0.930 . S
H2219 C2231 0.929 . S
H2220 C2234 0.930 . S
H2221 C2236 0.960 . S
H2222 C2236 0.960 . S
H2223 C2236 0.960 . S
C2224 H2216 0.929 . S
C2224 C2225 1.377 . S
C2224 C2226 1.384 . S
C2225 C2224 1.377 . S
C2225 C2231 1.390 . S
C2226 H2217 0.930 . S
C2226 C2224 1.384 . S
C2226 C2227 1.372 . S
C2227 C2226 1.372 . S
C2227 C2228 1.400 . S
C2227 C2232 1.490 . S
C2228 H2218 0.930 . S
C2228 C2227 1.400 . S
C2228 C2231 1.386 . S
H2229 C2245 0.930 . S
H2230 C2246 0.931 . S
C2231 H2219 0.929 . S
C2231 C2225 1.390 . S
C2231 C2228 1.386 . S
C2232 C2227 1.490 . S
C2232 C2234 1.395 . S
C2232 C2235 1.403 . S
H2233 C2239 0.930 . S
C2234 H2220 0.930 . S
C2234 C2232 1.395 . S
C2234 C2237 1.403 . S
C2235 C2232 1.403 . S
C2235 C2236 1.524 . S
C2235 C2239 1.400 . S
C2236 H2221 0.960 . S
C2236 H2222 0.960 . S
C2236 H2223 0.960 . S
C2236 C2235 1.524 . S
C2237 C2234 1.403 . S
C2237 C2238 1.392 . S
C2237 C2241 1.495 . S
C2238 C2237 1.392 . S
C2238 C2239 1.385 . S
C2238 C2240 1.478 . S
C2239 H2233 0.930 . S
C2239 C2235 1.400 . S
C2239 C2238 1.385 . S
C2240 C2238 1.478 . S
C2240 C2242 1.381 . S
C2240 C2246 1.383 . S
C2241 C2237 1.495 . S
C2241 H2247 0.959 . S
C2241 H2248 0.961 . S
C2241 H2249 0.960 . S
C2242 C2240 1.381 . S
C2242 C2243 1.394 . S
C2242 H2250 0.930 . S
C2243 C2242 1.394 . S
C2243 C2244 1.383 1_554 S
C2243 H2251 0.929 1_554 S
C2244 C2243 1.383 1_556 S
C2244 C2245 1.377 1_556 S
C2245 H2229 0.930 . S
C2245 C2244 1.377 1_554 S
C2245 C2246 1.379 . S
C2246 H2230 0.931 . S
C2246 C2240 1.383 . S
C2246 C2245 1.379 . S
H2247 C2241 0.959 . S
H2248 C2241 0.961 . S
H2249 C2241 0.960 . S
H2250 C2242 0.930 . S
H2251 C2243 0.929 1_556 S
H2252 C2260 0.929 . S
H2253 C2262 0.930 . S
H2254 C2264 0.930 . S
H2255 C2267 0.929 . S
H2256 C2270 0.930 . S
H2257 C2272 0.960 . S
H2258 C2272 0.960 . S
H2259 C2272 0.960 . S
C2260 H2252 0.929 . S
C2260 C2261 1.377 . S
C2260 C2262 1.384 . S
C2261 C2260 1.377 . S
C2261 C2267 1.390 . S
C2262 H2253 0.930 . S
C2262 C2260 1.384 . S
C2262 C2263 1.372 . S
C2263 C2262 1.372 . S
C2263 C2264 1.400 . S
C2263 C2268 1.490 . S
C2264 H2254 0.930 . S
C2264 C2263 1.400 . S
C2264 C2267 1.386 . S
H2265 C2281 0.930 . S
H2266 C2282 0.931 . S
C2267 H2255 0.929 . S
C2267 C2261 1.390 . S
C2267 C2264 1.386 . S
C2268 C2263 1.490 . S
C2268 C2270 1.395 . S
C2268 C2271 1.403 . S
H2269 C2275 0.930 . S
C2270 H2256 0.930 . S
C2270 C2268 1.395 . S
C2270 C2273 1.403 1_655 S
C2271 C2268 1.403 . S
C2271 C2272 1.524 . S
C2271 C2275 1.400 1_655 S
C2272 H2257 0.960 . S
C2272 H2258 0.960 . S
C2272 H2259 0.960 . S
C2272 C2271 1.524 . S
C2273 C2270 1.403 1_455 S
C2273 C2274 1.392 . S
C2273 C2277 1.495 . S
C2274 C2273 1.392 . S
C2274 C2275 1.385 . S
C2274 C2276 1.478 . S
C2275 H2269 0.930 . S
C2275 C2271 1.400 1_455 S
C2275 C2274 1.385 . S
C2276 C2274 1.478 . S
C2276 C2278 1.381 . S
C2276 C2282 1.383 . S
C2277 C2273 1.495 . S
C2277 H2283 0.959 . S
C2277 H2284 0.961 . S
C2277 H2285 0.960 . S
C2278 C2276 1.381 . S
C2278 C2279 1.394 . S
C2278 H2286 0.930 . S
C2279 C2278 1.394 . S
C2279 C2280 1.383 . S
C2279 H2287 0.929 . S
C2280 C2279 1.383 . S
C2280 C2281 1.377 . S
C2281 H2265 0.930 . S
C2281 C2280 1.377 . S
C2281 C2282 1.379 . S
C2282 H2266 0.931 . S
C2282 C2276 1.383 . S
C2282 C2281 1.379 . S
H2283 C2277 0.959 . S
H2284 C2277 0.961 . S
H2285 C2277 0.960 . S
H2286 C2278 0.930 . S
H2287 C2279 0.929 . S
H2288 C2296 0.929 . S
H2289 C2298 0.930 . S
H2290 C2300 0.930 . S
H2291 C2303 0.929 . S
H2292 C2306 0.930 . S
H2293 C2308 0.960 . S
H2294 C2308 0.960 . S
H2295 C2308 0.960 . S
C2296 H2288 0.929 . S
C2296 C2297 1.377 . S
C2296 C2298 1.384 . S
C2297 C2296 1.377 . S
C2297 C2303 1.390 . S
C2298 H2289 0.930 . S
C2298 C2296 1.384 . S
C2298 C2299 1.372 . S
C2299 C2298 1.372 . S
C2299 C2300 1.400 . S
C2299 C2304 1.490 . S
C2300 H2290 0.930 . S
C2300 C2299 1.400 . S
C2300 C2303 1.386 . S
H2301 C2317 0.930 1_554 S
H2302 C2318 0.931 . S
C2303 H2291 0.929 . S
C2303 C2297 1.390 . S
C2303 C2300 1.386 . S
C2304 C2299 1.490 . S
C2304 C2306 1.395 . S
C2304 C2307 1.403 . S
H2305 C2311 0.930 . S
C2306 H2292 0.930 . S
C2306 C2304 1.395 . S
C2306 C2309 1.403 . S
C2307 C2304 1.403 . S
C2307 C2308 1.524 . S
C2307 C2311 1.400 . S
C2308 H2293 0.960 . S
C2308 H2294 0.960 . S
C2308 H2295 0.960 . S
C2308 C2307 1.524 . S
C2309 C2306 1.403 . S
C2309 C2310 1.392 . S
C2309 C2313 1.495 . S
C2310 C2309 1.392 . S
C2310 C2311 1.385 . S
C2310 C2312 1.478 . S
C2311 H2305 0.930 . S
C2311 C2307 1.400 . S
C2311 C2310 1.385 . S
C2312 C2310 1.478 . S
C2312 C2314 1.381 . S
C2312 C2318 1.383 . S
C2313 C2309 1.495 . S
C2313 H2319 0.959 . S
C2313 H2320 0.961 . S
C2313 H2321 0.960 . S
C2314 C2312 1.381 . S
C2314 C2315 1.394 . S
C2314 H2322 0.930 . S
C2315 C2314 1.394 . S
C2315 C2316 1.383 1_556 S
C2315 H2323 0.929 . S
C2316 C2315 1.383 1_554 S
C2316 C2317 1.377 1_554 S
C2317 H2301 0.930 1_556 S
C2317 C2316 1.377 1_556 S
C2317 C2318 1.379 . S
C2318 H2302 0.931 . S
C2318 C2312 1.383 . S
C2318 C2317 1.379 . S
H2319 C2313 0.959 . S
H2320 C2313 0.961 . S
H2321 C2313 0.960 . S
H2322 C2314 0.930 . S
H2323 C2315 0.929 . S
H2324 C2332 0.929 . S
H2325 C2334 0.930 . S
H2326 C2336 0.930 . S
H2327 C2339 0.929 . S
H2328 C2342 0.930 . S
H2329 C2344 0.960 . S
H2330 C2344 0.960 1_655 S
H2331 C2344 0.960 . S
C2332 H2324 0.929 . S
C2332 C2333 1.377 1_554 S
C2332 C2334 1.384 . S
C2333 C2332 1.377 1_556 S
C2333 C2339 1.390 . S
C2334 H2325 0.930 . S
C2334 C2332 1.384 . S
C2334 C2335 1.372 . S
C2335 C2334 1.372 . S
C2335 C2336 1.400 1_554 S
C2335 C2340 1.490 . S
C2336 H2326 0.930 . S
C2336 C2335 1.400 1_556 S
C2336 C2339 1.386 . S
H2337 C2353 0.930 . S
H2338 C2354 0.931 . S
C2339 H2327 0.929 . S
C2339 C2333 1.390 . S
C2339 C2336 1.386 . S
C2340 C2335 1.490 . S
C2340 C2342 1.395 . S
C2340 C2343 1.403 1_655 S
H2341 C2347 0.930 . S
C2342 H2328 0.930 . S
C2342 C2340 1.395 . S
C2342 C2345 1.372 1_655 S
C2343 C2340 1.403 1_455 S
C2343 C2344 1.524 . S
C2343 C2347 1.400 . S
C2344 H2329 0.960 . S
C2344 H2330 0.960 1_455 S
C2344 H2331 0.960 . S
C2344 C2343 1.524 . S
C2345 C2342 1.372 1_455 S
C2345 C2346 1.427 . S
C2345 C2349 1.492 1_455 S
C2346 C2345 1.427 . S
C2346 C2347 1.385 . S
C2346 C2348 1.478 . S
C2347 H2341 0.930 . S
C2347 C2343 1.400 . S
C2347 C2346 1.385 . S
C2348 C2346 1.478 . S
C2348 C2350 1.381 . S
C2348 C2354 1.383 . S
C2349 C2345 1.492 1_655 S
C2349 H2355 0.992 . S
C2349 H2356 0.934 1_655 S
C2349 H2357 0.956 1_655 S
C2350 C2348 1.381 . S
C2350 C2351 1.394 . S
C2350 H2358 0.930 . S
C2351 C2350 1.394 . S
C2351 C2352 1.383 . S
C2351 H2359 0.929 . S
C2352 C2351 1.383 . S
C2352 C2353 1.377 . S
C2353 H2337 0.930 . S
C2353 C2352 1.377 . S
C2353 C2354 1.379 . S
C2354 H2338 0.931 . S
C2354 C2348 1.383 . S
C2354 C2353 1.379 . S
H2355 C2349 0.992 . S
H2356 C2349 0.934 1_455 S
H2357 C2349 0.956 1_455 S
H2358 C2350 0.930 . S
H2359 C2351 0.929 . S
H2360 C2368 0.929 . S
H2361 C2370 0.930 . S
H2362 C2372 0.930 . S
H2363 C2375 0.929 . S
H2364 C2378 0.930 . S
H2365 C2380 0.960 . S
H2366 C2380 0.960 . S
H2367 C2380 0.960 . S
C2368 H2360 0.929 . S
C2368 C2369 1.377 . S
C2368 C2370 1.384 . S
C2369 C2368 1.377 . S
C2369 C2375 1.390 . S
C2370 H2361 0.930 . S
C2370 C2368 1.384 . S
C2370 C2371 1.372 . S
C2371 C2370 1.372 . S
C2371 C2372 1.400 . S
C2371 C2376 1.490 . S
C2372 H2362 0.930 . S
C2372 C2371 1.400 . S
C2372 C2375 1.386 . S
H2373 C2389 0.930 . S
H2374 C2390 0.931 . S
C2375 H2363 0.929 . S
C2375 C2369 1.390 . S
C2375 C2372 1.386 . S
C2376 C2371 1.490 . S
C2376 C2378 1.395 . S
C2376 C2379 1.403 . S
H2377 C2383 0.930 . S
C2378 H2364 0.930 . S
C2378 C2376 1.395 . S
C2378 C2381 1.403 . S
C2379 C2376 1.403 . S
C2379 C2380 1.524 . S
C2379 C2383 1.400 . S
C2380 H2365 0.960 . S
C2380 H2366 0.960 . S
C2380 H2367 0.960 . S
C2380 C2379 1.524 . S
C2381 C2378 1.403 . S
C2381 C2382 1.392 . S
C2381 C2385 1.495 . S
C2382 C2381 1.392 . S
C2382 C2383 1.385 . S
C2382 C2384 1.478 . S
C2383 H2377 0.930 . S
C2383 C2379 1.400 . S
C2383 C2382 1.385 . S
C2384 C2382 1.478 . S
C2384 C2386 1.381 . S
C2384 C2390 1.383 . S
C2385 C2381 1.495 . S
C2385 H2391 0.959 . S
C2385 H2392 0.961 . S
C2385 H2393 0.960 . S
C2386 C2384 1.381 . S
C2386 C2387 1.394 . S
C2386 H2394 0.930 . S
C2387 C2386 1.394 . S
C2387 C2388 1.383 . S
C2387 H2395 0.929 . S
C2388 C2387 1.383 . S
C2388 C2389 1.377 . S
C2389 H2373 0.930 . S
C2389 C2388 1.377 . S
C2389 C2390 1.379 . S
C2390 H2374 0.931 . S
C2390 C2384 1.383 . S
C2390 C2389 1.379 . S
H2391 C2385 0.959 . S
H2392 C2385 0.961 . S
H2393 C2385 0.960 . S
H2394 C2386 0.930 . S
H2395 C2387 0.929 . S
H2396 C2404 0.929 . S
H2397 C2406 0.930 . S
H2398 C2408 0.930 . S
H2399 C2411 0.929 . S
H2400 C2414 0.930 . S
H2401 C2416 0.960 . S
H2402 C2416 0.960 . S
H2403 C2416 0.960 . S
C2404 H2396 0.929 . S
C2404 C2405 1.377 . S
C2404 C2406 1.384 . S
C2405 C2404 1.377 . S
C2405 C2411 1.390 . S
C2406 H2397 0.930 . S
C2406 C2404 1.384 . S
C2406 C2407 1.372 . S
C2407 C2406 1.372 . S
C2407 C2408 1.400 . S
C2407 C2412 1.490 . S
C2408 H2398 0.930 . S
C2408 C2407 1.400 . S
C2408 C2411 1.386 . S
H2409 C2425 0.930 . S
H2410 C2426 0.931 . S
C2411 H2399 0.929 . S
C2411 C2405 1.390 . S
C2411 C2408 1.386 . S
C2412 C2407 1.490 . S
C2412 C2414 1.395 . S
C2412 C2415 1.403 . S
H2413 C2419 0.930 . S
C2414 H2400 0.930 . S
C2414 C2412 1.395 . S
C2414 C2417 1.403 . S
C2415 C2412 1.403 . S
C2415 C2416 1.524 . S
C2415 C2419 1.400 . S
C2416 H2401 0.960 . S
C2416 H2402 0.960 . S
C2416 H2403 0.960 . S
C2416 C2415 1.524 . S
C2417 C2414 1.403 . S
C2417 C2418 1.392 . S
C2417 C2421 1.495 . S
C2418 C2417 1.392 . S
C2418 C2419 1.385 . S
C2418 C2420 1.478 . S
C2419 H2413 0.930 . S
C2419 C2415 1.400 . S
C2419 C2418 1.385 . S
C2420 C2418 1.478 . S
C2420 C2422 1.381 . S
C2420 C2426 1.383 . S
C2421 C2417 1.495 . S
C2421 H2427 0.959 . S
C2421 H2428 0.961 . S
C2421 H2429 0.960 . S
C2422 C2420 1.381 . S
C2422 C2423 1.394 . S
C2422 H2430 0.930 . S
C2423 C2422 1.394 . S
C2423 C2424 1.383 . S
C2423 H2431 0.929 . S
C2424 C2423 1.383 . S
C2424 C2425 1.377 . S
C2425 H2409 0.930 . S
C2425 C2424 1.377 . S
C2425 C2426 1.379 . S
C2426 H2410 0.931 . S
C2426 C2420 1.383 . S
C2426 C2425 1.379 . S
H2427 C2421 0.959 . S
H2428 C2421 0.961 . S
H2429 C2421 0.960 . S
H2430 C2422 0.930 . S
H2431 C2423 0.929 . S
H2432 C2440 0.929 . S
H2433 C2442 0.930 . S
H2434 C2444 0.930 . S
H2435 C2447 0.929 . S
H2436 C2450 0.930 . S
H2437 C2452 0.960 . S
H2438 C2452 0.960 . S
H2439 C2452 0.960 . S
C2440 H2432 0.929 . S
C2440 C2441 1.377 . S
C2440 C2442 1.384 . S
C2441 C2440 1.377 . S
C2441 C2447 1.390 . S
C2442 H2433 0.930 . S
C2442 C2440 1.384 . S
C2442 C2443 1.372 . S
C2443 C2442 1.372 . S
C2443 C2444 1.400 . S
C2443 C2448 1.490 . S
C2444 H2434 0.930 . S
C2444 C2443 1.400 . S
C2444 C2447 1.386 . S
H2445 C2461 0.930 . S
H2446 C2462 0.931 . S
C2447 H2435 0.929 . S
C2447 C2441 1.390 . S
C2447 C2444 1.386 . S
C2448 C2443 1.490 . S
C2448 C2450 1.395 . S
C2448 C2451 1.403 . S
H2449 C2455 0.930 . S
C2450 H2436 0.930 . S
C2450 C2448 1.395 . S
C2450 C2453 1.403 . S
C2451 C2448 1.403 . S
C2451 C2452 1.524 . S
C2451 C2455 1.400 . S
C2452 H2437 0.960 . S
C2452 H2438 0.960 . S
C2452 H2439 0.960 . S
C2452 C2451 1.524 . S
C2453 C2450 1.403 . S
C2453 C2454 1.392 . S
C2453 C2457 1.495 . S
C2454 C2453 1.392 . S
C2454 C2455 1.385 . S
C2454 C2456 1.478 . S
C2455 H2449 0.930 . S
C2455 C2451 1.400 . S
C2455 C2454 1.385 . S
C2456 C2454 1.478 . S
C2456 C2458 1.381 . S
C2456 C2462 1.383 . S
C2457 C2453 1.495 . S
C2457 H2463 0.959 . S
C2457 H2464 0.961 . S
C2457 H2465 0.960 . S
C2458 C2456 1.381 . S
C2458 C2459 1.394 . S
C2458 H2466 0.930 . S
C2459 C2458 1.394 . S
C2459 C2460 1.383 . S
C2459 H2467 0.929 . S
C2460 C2459 1.383 . S
C2460 C2461 1.377 . S
C2461 H2445 0.930 . S
C2461 C2460 1.377 . S
C2461 C2462 1.379 . S
C2462 H2446 0.931 . S
C2462 C2456 1.383 . S
C2462 C2461 1.379 . S
H2463 C2457 0.959 . S
H2464 C2457 0.961 . S
H2465 C2457 0.960 . S
H2466 C2458 0.930 . S
H2467 C2459 0.929 . S
H2468 C2476 0.929 . S
H2469 C2478 0.930 . S
H2470 C2480 0.930 . S
H2471 C2483 0.929 . S
H2472 C2486 0.930 . S
H2473 C2488 0.960 . S
H2474 C2488 0.960 . S
H2475 C2488 0.960 . S
C2476 H2468 0.929 . S
C2476 C2477 1.377 . S
C2476 C2478 1.384 . S
C2477 C2476 1.377 . S
C2477 C2483 1.390 . S
C2478 H2469 0.930 . S
C2478 C2476 1.384 . S
C2478 C2479 1.372 . S
C2479 C2478 1.372 . S
C2479 C2480 1.400 . S
C2479 C2484 1.490 . S
C2480 H2470 0.930 . S
C2480 C2479 1.400 . S
C2480 C2483 1.386 . S
H2481 C2497 0.930 . S
H2482 C2498 0.931 . S
C2483 H2471 0.929 . S
C2483 C2477 1.390 . S
C2483 C2480 1.386 . S
C2484 C2479 1.490 . S
C2484 C2486 1.395 . S
C2484 C2487 1.403 . S
H2485 C2491 0.930 . S
C2486 H2472 0.930 . S
C2486 C2484 1.395 . S
C2486 C2489 1.403 . S
C2487 C2484 1.403 . S
C2487 C2488 1.524 . S
C2487 C2491 1.400 . S
C2488 H2473 0.960 . S
C2488 H2474 0.960 . S
C2488 H2475 0.960 . S
C2488 C2487 1.524 . S
C2489 C2486 1.403 . S
C2489 C2490 1.392 . S
C2489 C2493 1.495 . S
C2490 C2489 1.392 . S
C2490 C2491 1.385 . S
C2490 C2492 1.478 . S
C2491 H2485 0.930 . S
C2491 C2487 1.400 . S
C2491 C2490 1.385 . S
C2492 C2490 1.478 . S
C2492 C2494 1.381 . S
C2492 C2498 1.383 . S
C2493 C2489 1.495 . S
C2493 H2499 0.959 . S
C2493 H2500 0.961 . S
C2493 H2501 0.960 . S
C2494 C2492 1.381 . S
C2494 C2495 1.394 . S
C2494 H2502 0.930 . S
C2495 C2494 1.394 . S
C2495 C2496 1.383 1_554 S
C2495 H2503 0.929 . S
C2496 C2495 1.383 1_556 S
C2496 C2497 1.377 . S
C2497 H2481 0.930 . S
C2497 C2496 1.377 . S
C2497 C2498 1.379 1_556 S
C2498 H2482 0.931 . S
C2498 C2492 1.383 . S
C2498 C2497 1.379 1_554 S
H2499 C2493 0.959 . S
H2500 C2493 0.961 . S
H2501 C2493 0.960 . S
H2502 C2494 0.930 . S
H2503 C2495 0.929 . S
H2504 C2512 0.929 . S
H2505 C2514 0.930 1_554 S
H2506 C2516 0.930 . S
H2507 C2519 0.929 . S
H2508 C2522 0.930 . S
H2509 C2524 0.960 . S
H2510 C2524 0.960 . S
H2511 C2524 0.960 . S
C2512 H2504 0.929 . S
C2512 C2513 1.377 . S
C2512 C2514 1.384 1_554 S
C2513 C2512 1.377 . S
C2513 C2519 1.390 1_554 S
C2514 H2505 0.930 1_556 S
C2514 C2512 1.384 1_556 S
C2514 C2515 1.372 . S
C2515 C2514 1.372 . S
C2515 C2516 1.400 . S
C2515 C2520 1.490 . S
C2516 H2506 0.930 . S
C2516 C2515 1.400 . S
C2516 C2519 1.386 . S
H2517 C2533 0.930 . S
H2518 C2534 0.931 . S
C2519 H2507 0.929 . S
C2519 C2513 1.390 1_556 S
C2519 C2516 1.386 . S
C2520 C2515 1.490 . S
C2520 C2522 1.395 . S
C2520 C2523 1.403 . S
H2521 C2527 0.930 . S
C2522 H2508 0.930 . S
C2522 C2520 1.395 . S
C2522 C2525 1.403 . S
C2523 C2520 1.403 . S
C2523 C2524 1.524 . S
C2523 C2527 1.400 . S
C2524 H2509 0.960 . S
C2524 H2510 0.960 . S
C2524 H2511 0.960 . S
C2524 C2523 1.524 . S
C2525 C2522 1.403 . S
C2525 C2526 1.392 . S
C2525 C2529 1.495 . S
C2526 C2525 1.392 . S
C2526 C2527 1.385 . S
C2526 C2528 1.478 . S
C2527 H2521 0.930 . S
C2527 C2523 1.400 . S
C2527 C2526 1.385 . S
C2528 C2526 1.478 . S
C2528 C2530 1.381 . S
C2528 C2534 1.383 . S
C2529 C2525 1.495 . S
C2529 H2535 0.959 . S
C2529 H2536 0.961 . S
C2529 H2537 0.960 . S
C2530 C2528 1.381 . S
C2530 C2531 1.394 . S
C2530 H2538 0.930 . S
C2531 C2530 1.394 . S
C2531 C2532 1.383 . S
C2531 H2539 0.929 . S
C2532 C2531 1.383 . S
C2532 C2533 1.377 . S
C2533 H2517 0.930 . S
C2533 C2532 1.377 . S
C2533 C2534 1.379 . S
C2534 H2518 0.931 . S
C2534 C2528 1.383 . S
C2534 C2533 1.379 . S
H2535 C2529 0.959 . S
H2536 C2529 0.961 . S
H2537 C2529 0.960 . S
H2538 C2530 0.930 . S
H2539 C2531 0.929 . S
H2540 C2548 0.929 . S
H2541 C2550 0.930 . S
H2542 C2552 0.930 . S
H2543 C2555 0.929 . S
H2544 C2558 0.930 . S
H2545 C2560 0.960 . S
H2546 C2560 0.960 . S
H2547 C2560 0.960 . S
C2548 H2540 0.929 . S
C2548 C2549 1.377 . S
C2548 C2550 1.384 . S
C2549 C2548 1.377 . S
C2549 C2555 1.390 . S
C2550 H2541 0.930 . S
C2550 C2548 1.384 . S
C2550 C2551 1.372 . S
C2551 C2550 1.372 . S
C2551 C2552 1.400 . S
C2551 C2556 1.490 . S
C2552 H2542 0.930 . S
C2552 C2551 1.400 . S
C2552 C2555 1.386 . S
H2553 C2569 0.930 . S
H2554 C2570 0.931 . S
C2555 H2543 0.929 . S
C2555 C2549 1.390 . S
C2555 C2552 1.386 . S
C2556 C2551 1.490 . S
C2556 C2558 1.395 . S
C2556 C2559 1.403 1_455 S
H2557 C2563 0.930 . S
C2558 H2544 0.930 . S
C2558 C2556 1.395 . S
C2558 C2561 1.468 . S
C2559 C2556 1.403 1_655 S
C2559 C2560 1.524 . S
C2559 C2563 1.400 . S
C2560 H2545 0.960 . S
C2560 H2546 0.960 . S
C2560 H2547 0.960 . S
C2560 C2559 1.524 . S
C2561 C2558 1.468 . S
C2561 C2562 1.316 1_455 S
C2561 C2565 1.512 . S
C2562 C2561 1.316 1_655 S
C2562 C2563 1.385 . S
C2562 C2564 1.478 . S
C2563 H2557 0.930 . S
C2563 C2559 1.400 . S
C2563 C2562 1.385 . S
C2564 C2562 1.478 . S
C2564 C2566 1.381 . S
C2564 C2570 1.383 . S
C2565 C2561 1.512 . S
C2565 H2571 0.959 . S
C2565 H2572 0.961 1_455 S
C2565 H2573 0.960 . S
C2566 C2564 1.381 . S
C2566 C2567 1.394 . S
C2566 H2574 0.930 . S
C2567 C2566 1.394 . S
C2567 C2568 1.383 . S
C2567 H2575 0.929 . S
C2568 C2567 1.383 . S
C2568 C2569 1.377 . S
C2569 H2553 0.930 . S
C2569 C2568 1.377 . S
C2569 C2570 1.379 . S
C2570 H2554 0.931 . S
C2570 C2564 1.383 . S
C2570 C2569 1.379 . S
H2571 C2565 0.959 . S
H2572 C2565 0.961 1_655 S
H2573 C2565 0.960 . S
H2574 C2566 0.930 . S
H2575 C2567 0.929 . S
H2576 C2584 0.929 . S
H2577 C2586 0.930 . S
H2578 C2588 0.930 . S
H2579 C2591 0.929 . S
H2580 C2594 0.930 . S
H2581 C2596 0.960 . S
H2582 C2596 0.960 . S
H2583 C2596 0.960 . S
C2584 H2576 0.929 . S
C2584 C2585 1.377 . S
C2584 C2586 1.384 . S
C2585 C2584 1.377 . S
C2585 C2591 1.390 . S
C2586 H2577 0.930 . S
C2586 C2584 1.384 . S
C2586 C2587 1.372 . S
C2587 C2586 1.372 . S
C2587 C2588 1.400 . S
C2587 C2592 1.490 . S
C2588 H2578 0.930 . S
C2588 C2587 1.400 . S
C2588 C2591 1.386 . S
H2589 C2605 0.930 . S
H2590 C2606 0.931 . S
C2591 H2579 0.929 . S
C2591 C2585 1.390 . S
C2591 C2588 1.386 . S
C2592 C2587 1.490 . S
C2592 C2594 1.395 . S
C2592 C2595 1.403 . S
H2593 C2599 0.930 . S
C2594 H2580 0.930 . S
C2594 C2592 1.395 . S
C2594 C2597 1.403 . S
C2595 C2592 1.403 . S
C2595 C2596 1.524 . S
C2595 C2599 1.400 . S
C2596 H2581 0.960 . S
C2596 H2582 0.960 . S
C2596 H2583 0.960 . S
C2596 C2595 1.524 . S
C2597 C2594 1.403 . S
C2597 C2598 1.392 . S
C2597 C2601 1.495 . S
C2598 C2597 1.392 . S
C2598 C2599 1.385 . S
C2598 C2600 1.478 . S
C2599 H2593 0.930 . S
C2599 C2595 1.400 . S
C2599 C2598 1.385 . S
C2600 C2598 1.478 . S
C2600 C2602 1.381 . S
C2600 C2606 1.383 . S
C2601 C2597 1.495 . S
C2601 H2607 0.959 . S
C2601 H2608 0.961 . S
C2601 H2609 0.960 . S
C2602 C2600 1.381 . S
C2602 C2603 1.394 1_554 S
C2602 H2610 0.930 . S
C2603 C2602 1.394 1_556 S
C2603 C2604 1.383 . S
C2603 H2611 0.929 . S
C2604 C2603 1.383 . S
C2604 C2605 1.377 1_556 S
C2605 H2589 0.930 . S
C2605 C2604 1.377 1_554 S
C2605 C2606 1.379 . S
C2606 H2590 0.931 . S
C2606 C2600 1.383 . S
C2606 C2605 1.379 . S
H2607 C2601 0.959 . S
H2608 C2601 0.961 . S
H2609 C2601 0.960 . S
H2610 C2602 0.930 . S
H2611 C2603 0.929 . S
H2612 C2620 0.929 . S
H2613 C2622 0.930 . S
H2614 C2624 0.930 . S
H2615 C2627 0.929 . S
H2616 C2630 0.929 1_455 S
H2617 C2632 0.960 . S
H2618 C2632 0.960 . S
H2619 C2632 0.960 . S
C2620 H2612 0.929 . S
C2620 C2621 1.377 . S
C2620 C2622 1.384 . S
C2621 C2620 1.377 . S
C2621 C2627 1.390 . S
C2622 H2613 0.930 . S
C2622 C2620 1.384 . S
C2622 C2623 1.372 . S
C2623 C2622 1.372 . S
C2623 C2624 1.400 . S
C2623 C2628 1.490 . S
C2624 H2614 0.930 . S
C2624 C2623 1.400 . S
C2624 C2627 1.386 . S
H2625 C2641 0.930 . S
H2626 C2642 0.931 . S
C2627 H2615 0.929 . S
C2627 C2621 1.390 . S
C2627 C2624 1.386 . S
C2628 C2623 1.490 . S
C2628 C2630 1.388 . S
C2628 C2631 1.403 . S
H2629 C2635 0.930 . S
C2630 H2616 0.929 1_655 S
C2630 C2628 1.388 . S
C2630 C2633 1.410 1_655 S
C2631 C2628 1.403 . S
C2631 C2632 1.524 . S
C2631 C2635 1.400 . S
C2632 H2617 0.960 . S
C2632 H2618 0.960 . S
C2632 H2619 0.960 . S
C2632 C2631 1.524 . S
C2633 C2630 1.410 1_455 S
C2633 C2634 1.392 . S
C2633 C2637 1.495 . S
C2634 C2633 1.392 . S
C2634 C2635 1.385 1_455 S
C2634 C2636 1.478 . S
C2635 H2629 0.930 . S
C2635 C2631 1.400 . S
C2635 C2634 1.385 1_655 S
C2636 C2634 1.478 . S
C2636 C2638 1.381 . S
C2636 C2642 1.383 . S
C2637 C2633 1.495 . S
C2637 H2643 0.959 . S
C2637 H2644 0.961 . S
C2637 H2645 0.960 . S
C2638 C2636 1.381 . S
C2638 C2639 1.394 . S
C2638 H2646 0.930 . S
C2639 C2638 1.394 . S
C2639 C2640 1.383 1_556 S
C2639 H2647 0.929 . S
C2640 C2639 1.383 1_554 S
C2640 C2641 1.377 . S
C2641 H2625 0.930 . S
C2641 C2640 1.377 . S
C2641 C2642 1.379 1_554 S
C2642 H2626 0.931 . S
C2642 C2636 1.383 . S
C2642 C2641 1.379 1_556 S
H2643 C2637 0.959 . S
H2644 C2637 0.961 . S
H2645 C2637 0.960 . S
H2646 C2638 0.930 . S
H2647 C2639 0.929 . S
H2648 C2656 0.929 . S
H2649 C2658 0.930 . S
H2650 C2660 0.930 . S
H2651 C2663 0.929 . S
H2652 C2666 0.930 . S
H2653 C2668 0.960 . S
H2654 C2668 0.960 . S
H2655 C2668 0.960 . S
C2656 H2648 0.929 . S
C2656 C2657 1.377 . S
C2656 C2658 1.384 . S
C2657 C2656 1.377 . S
C2657 C2663 1.390 . S
C2658 H2649 0.930 . S
C2658 C2656 1.384 . S
C2658 C2659 1.372 . S
C2659 C2658 1.372 . S
C2659 C2660 1.400 . S
C2659 C2664 1.490 . S
C2660 H2650 0.930 . S
C2660 C2659 1.400 . S
C2660 C2663 1.386 . S
H2661 C2677 0.930 . S
H2662 C2678 0.931 . S
C2663 H2651 0.929 . S
C2663 C2657 1.390 . S
C2663 C2660 1.386 . S
C2664 C2659 1.490 . S
C2664 C2666 1.395 . S
C2664 C2667 1.403 . S
H2665 C2671 0.930 . S
C2666 H2652 0.930 . S
C2666 C2664 1.395 . S
C2666 C2669 1.403 . S
C2667 C2664 1.403 . S
C2667 C2668 1.524 . S
C2667 C2671 1.400 . S
C2668 H2653 0.960 . S
C2668 H2654 0.960 . S
C2668 H2655 0.960 . S
C2668 C2667 1.524 . S
C2669 C2666 1.403 . S
C2669 C2670 1.392 . S
C2669 C2673 1.495 . S
C2670 C2669 1.392 . S
C2670 C2671 1.385 . S
C2670 C2672 1.478 . S
C2671 H2665 0.930 . S
C2671 C2667 1.400 . S
C2671 C2670 1.385 . S
C2672 C2670 1.478 . S
C2672 C2674 1.381 . S
C2672 C2678 1.383 . S
C2673 C2669 1.495 . S
C2673 H2679 0.959 . S
C2673 H2680 0.961 . S
C2673 H2681 0.960 . S
C2674 C2672 1.381 . S
C2674 C2675 1.394 . S
C2674 H2682 0.930 . S
C2675 C2674 1.394 . S
C2675 C2676 1.383 . S
C2675 H2683 0.929 . S
C2676 C2675 1.383 . S
C2676 C2677 1.377 . S
C2677 H2661 0.930 . S
C2677 C2676 1.377 . S
C2677 C2678 1.379 . S
C2678 H2662 0.931 . S
C2678 C2672 1.383 . S
C2678 C2677 1.379 . S
H2679 C2673 0.959 . S
H2680 C2673 0.961 . S
H2681 C2673 0.960 . S
H2682 C2674 0.930 . S
H2683 C2675 0.929 . S
H2684 C2692 0.929 . S
H2685 C2694 0.930 . S
H2686 C2696 0.930 . S
H2687 C2699 0.929 . S
H2688 C2702 0.930 . S
H2689 C2704 0.960 . S
H2690 C2704 0.960 . S
H2691 C2704 0.960 . S
C2692 H2684 0.929 . S
C2692 C2693 1.377 . S
C2692 C2694 1.384 . S
C2693 C2692 1.377 . S
C2693 C2699 1.390 . S
C2694 H2685 0.930 . S
C2694 C2692 1.384 . S
C2694 C2695 1.372 . S
C2695 C2694 1.372 . S
C2695 C2696 1.400 . S
C2695 C2700 1.490 . S
C2696 H2686 0.930 . S
C2696 C2695 1.400 . S
C2696 C2699 1.386 . S
H2697 C2713 0.930 . S
H2698 C2714 0.931 . S
C2699 H2687 0.929 . S
C2699 C2693 1.390 . S
C2699 C2696 1.386 . S
C2700 C2695 1.490 . S
C2700 C2702 1.395 . S
C2700 C2703 1.403 . S
H2701 C2707 0.930 . S
C2702 H2688 0.930 . S
C2702 C2700 1.395 . S
C2702 C2705 1.403 . S
C2703 C2700 1.403 . S
C2703 C2704 1.524 . S
C2703 C2707 1.400 . S
C2704 H2689 0.960 . S
C2704 H2690 0.960 . S
C2704 H2691 0.960 . S
C2704 C2703 1.524 . S
C2705 C2702 1.403 . S
C2705 C2706 1.392 . S
C2705 C2709 1.495 . S
C2706 C2705 1.392 . S
C2706 C2707 1.385 . S
C2706 C2708 1.478 . S
C2707 H2701 0.930 . S
C2707 C2703 1.400 . S
C2707 C2706 1.385 . S
C2708 C2706 1.478 . S
C2708 C2710 1.381 . S
C2708 C2714 1.383 . S
C2709 C2705 1.495 . S
C2709 H2715 0.959 . S
C2709 H2716 0.961 . S
C2709 H2717 0.960 . S
C2710 C2708 1.381 . S
C2710 C2711 1.394 . S
C2710 H2718 0.930 . S
C2711 C2710 1.394 . S
C2711 C2712 1.383 . S
C2711 H2719 0.929 . S
C2712 C2711 1.383 . S
C2712 C2713 1.377 . S
C2713 H2697 0.930 . S
C2713 C2712 1.377 . S
C2713 C2714 1.379 . S
C2714 H2698 0.931 . S
C2714 C2708 1.383 . S
C2714 C2713 1.379 . S
H2715 C2709 0.959 . S
H2716 C2709 0.961 . S
H2717 C2709 0.960 . S
H2718 C2710 0.930 . S
H2719 C2711 0.929 . S
C425 C88 1.166 . S
C444 C10 1.179 . S
C461 C23 1.177 . S
C480 C101 1.146 . S
C497 C62 1.166 . S
C516 C36 1.164 . S
C533 C49 1.177 . S
C552 C75 1.145 . S
C569 C192 1.175 . S
C588 C114 1.141 . S
C605 C127 1.178 . S
C624 C205 1.141 . S
C641 C166 1.169 . S
C660 C140 1.160 . S
C677 C153 1.167 . S
C696 C179 1.180 . S
C713 C218 1.179 . S
C732 C296 1.167 . S
C749 C309 1.171 . S
C768 C231 1.143 . S
C785 C244 1.179 . S
C804 C270 1.167 . S
C821 C283 1.170 . S
C840 C257 1.143 . S
C857 C400 1.170 . S
C876 C322 1.197 . S
C893 C413 1.170 . S
C912 C335 1.198 . S
C929 C374 1.172 . S
C948 C348 1.194 . S
C965 C361 1.179 . S
C984 C387 1.150 . S
C1001 C91 1.260 . S
C1020 C0 1.245 . S
C1037 C52 1.270 . S
C1056 C13 1.290 . S
C1073 C65 1.269 . S
C1092 C26 1.287 . S
C1109 C78 1.263 . S
C1128 C39 1.253 . S
C1145 C195 1.269 . S
C1164 C104 1.233 . S
C1181 C156 1.258 . S
C1200 C117 1.271 . S
C1217 C169 1.258 . S
C1236 C130 1.263 . S
C1253 C143 1.268 . S
C1272 C182 1.232 . S
C1289 C299 1.270 . S
C1308 C208 1.291 . S
C1325 C221 1.270 . S
C1344 C260 1.292 . S
C1361 C234 1.261 . S
C1380 C273 1.250 . S
C1397 C286 1.269 . S
C1416 C247 1.288 . S
C1433 C403 1.258 . S
C1452 C312 1.269 . S
C1469 C325 1.269 . S
C1488 C364 1.268 . S
C1505 C338 1.258 . S
C1524 C377 1.282 . S
C1541 C390 1.258 . S
C1560 C351 1.282 . S
C1577 C8 0.845 . S
C1596 C395 0.876 . S
C1613 C200 0.804 . S
C1632 C21 0.783 . S
C1649 C369 0.804 . S
C1668 C34 0.781 . S
C1685 C174 0.827 . S
C1704 C47 0.851 . S
C1721 C343 0.816 . S
C1740 C60 0.811 . S
C1757 C73 0.834 . S
C1776 C148 0.831 . S
C1793 C86 0.833 . S
C1812 C317 0.797 . S
C1829 C99 0.832 . S
C1848 C122 0.820 . S
C1865 C112 0.829 . S
C1884 C291 0.887 . S
C1901 C96 0.832 . S
C1920 C125 0.798 . S
C1937 C265 0.833 . S
C1956 C138 0.802 . S
C1973 C70 0.812 . S
C1992 C151 0.885 . S
C2009 C239 0.829 . S
C2028 C164 0.784 . S
C2045 C44 0.821 . S
C2064 C177 0.782 . S
C2081 C190 0.829 . S
C2100 C213 0.887 . S
C2117 C18 0.811 . S
C2136 C203 0.802 . S
C2153 C187 0.817 . S
C2172 C216 0.839 . S
C2189 C408 0.805 . S
C2208 C229 0.781 . S
C2225 C242 0.842 . S
C2244 C161 0.876 . S
C2261 C255 0.845 . S
C2280 C382 0.885 . S
C2297 C268 0.839 . S
C2316 C135 0.862 . S
C2333 C281 0.842 . S
C2352 C356 0.855 . S
C2369 C294 0.831 . S
C2388 C109 0.814 . S
C2405 C307 0.836 . S
C2424 C330 0.814 . S
C2441 C83 0.824 . S
C2460 C320 0.781 . S
C2477 C304 0.814 . S
C2496 C333 0.794 . S
C2513 C57 0.804 . S
C2532 C346 0.853 . S
C2549 C359 0.830 . S
C2568 C278 0.767 . S
C2585 C372 0.845 . S
C2604 C31 0.774 . S
C2621 C252 0.806 . S
C2640 C385 0.872 . S
C2657 C398 0.833 . S
C2676 C5 0.755 . S
C2693 C411 0.837 . S
C2712 C226 0.879 . S
