# Generated by pormake.
# Topology lon, (4)-cn, num edge types: 1
# Building blocks:
#     Node 0, Type 0, BuildingBlock: CEKHIL_clean_sbu_0, # of connection points: 4
#     Node 1, Type 0, BuildingBlock: CEKHIL_clean_sbu_0, # of connection points: 4
#     Node 2, Type 0, BuildingBlock: CEKHIL_clean_sbu_0, # of connection points: 4
#     Node 3, Type 0, BuildingBlock: CEKHIL_clean_sbu_0, # of connection points: 4
#     Edge 4, Type (0, 0), BuildingBlock: FUNLAD_clean_linker_1, # of connection points: 2
#     Edge 5, Type (0, 0), BuildingBlock: FUNLAD_clean_linker_1, # of connection points: 2
#     Edge 6, Type (0, 0), BuildingBlock: FUNLAD_clean_linker_1, # of connection points: 2
#     Edge 7, Type (0, 0), BuildingBlock: FUNLAD_clean_linker_1, # of connection points: 2
#     Edge 8, Type (0, 0), BuildingBlock: FUNLAD_clean_linker_1, # of connection points: 2
#     Edge 9, Type (0, 0), BuildingBlock: FUNLAD_clean_linker_1, # of connection points: 2
#     Edge 10, Type (0, 0), BuildingBlock: FUNLAD_clean_linker_1, # of connection points: 2
#     Edge 11, Type (0, 0), BuildingBlock: FUNLAD_clean_linker_1, # of connection points: 2
# Relax obj value: 0.141
# Max RMSD: 0.174
# Mean RMSD: 0.173
data_MOF--net-lon--node1-CEKHIL_clean_sbu_0--edge1-FUNLAD_clean_linker_1
_symmetry_space_group_name_H-M    P1
_symmetry_Int_Tables_number       1
_symmetry_cell_setting            triclinic
loop_
_symmetry_equiv_pos_as_xyz
'x, y, z'
_cell_length_a     23.41005
_cell_length_b     25.662029
_cell_length_c     42.162115
_cell_angle_alpha  91.347503
_cell_angle_beta   89.267722
_cell_angle_gamma 117.26944
loop_
_atom_site_label
_atom_site_type_symbol
_atom_site_fract_x
_atom_site_fract_y
_atom_site_fract_z
_atom_type_partial_charge
Co0 Co 0.38876 0.72637 0.09167 0.0
O1 O 0.35742 0.76216 0.12399 0.0
O2 O 0.3874 0.6938 0.13297 0.0
C3 C 0.45779 0.81154 0.0683 0.0
O4 O 0.42638 0.68014 0.06627 0.0
Co5 Co 0.37039 0.73216 0.02013 0.0
O6 O 0.4292 0.6964 0.01409 0.0
C7 C 0.26027 0.65143 0.05861 0.0
C8 C 0.36585 0.729 0.14427 0.0
C9 C 0.44253 0.67384 0.03766 0.0
O10 O 0.29747 0.66392 0.08289 0.0
O11 O 0.27919 0.67661 0.0319 0.0
O12 O 0.47413 0.79372 0.0936 0.0
O13 O 0.39923 0.77976 0.05887 0.0
Co14 Co 0.65178 0.33469 0.58801 0.0
O15 O 0.59033 0.3037 0.62226 0.0
O16 O 0.69322 0.32689 0.62623 0.0
C17 C 0.62001 0.40205 0.57375 0.0
O18 O 0.73065 0.37016 0.55847 0.0
Co19 Co 0.60831 0.32918 0.51822 0.0
O20 O 0.6996 0.38402 0.51042 0.0
C21 C 0.60472 0.22333 0.54683 0.0
C22 C 0.6373 0.30819 0.63991 0.0
C23 C 0.7432 0.39026 0.53004 0.0
O24 O 0.63026 0.25209 0.57269 0.0
O25 O 0.58941 0.24548 0.52351 0.0
O26 O 0.66059 0.41337 0.59675 0.0
O27 O 0.59729 0.34995 0.5614 0.0
Co28 Co 0.32256 0.66456 0.4446 0.0
O29 O 0.29869 0.69296 0.40692 0.0
O30 O 0.36959 0.65855 0.40798 0.0
C31 C 0.22126 0.61025 0.46305 0.0
O32 O 0.35943 0.62832 0.47606 0.0
Co33 Co 0.29302 0.68491 0.51468 0.0
O34 O 0.31589 0.6216 0.52447 0.0
C35 C 0.39688 0.78146 0.47914 0.0
C36 C 0.33882 0.67953 0.39148 0.0
C37 C 0.35001 0.6098 0.50471 0.0
O38 O 0.39176 0.74681 0.45541 0.0
O39 O 0.35959 0.76556 0.50336 0.0
O40 O 0.24366 0.58923 0.44047 0.0
O41 O 0.25847 0.66315 0.47223 0.0
Co42 Co 0.68879 0.31222 0.94075 0.0
O43 O 0.63176 0.28457 0.90382 0.0
O44 O 0.73572 0.34526 0.90244 0.0
C45 C 0.65195 0.22316 0.96393 0.0
O46 O 0.76689 0.35041 0.96985 0.0
Co47 Co 0.65307 0.30625 1.01144 0.0
O48 O 0.74593 0.33995 0.02185 0.0
C49 C 0.63985 0.39312 0.97089 0.0
C50 C 0.68269 0.31604 0.88699 0.0
C51 C 0.7855 0.35846 0.99888 0.0
O52 O 0.66822 0.3807 0.94759 0.0
O53 O 0.62571 0.36534 0.997 0.0
O54 O 0.69368 0.23753 0.9409 0.0
O55 O 0.63262 0.26144 0.97157 0.0
H56 H 0.32918 0.7592 0.18575 0.0
C57 C 0.35169 0.73199 0.17852 0.0
H58 H 0.38807 0.67524 0.19351 0.0
H59 H 0.39021 0.81411 0.32961 0.0
H60 H 0.46379 0.90383 0.30373 0.0
H61 H 0.48862 0.90341 0.24674 0.0
H62 H 0.43967 0.81377 0.21515 0.0
C63 C 0.36685 0.70348 0.20076 0.0
C64 C 0.35147 0.70533 0.23535 0.0
C65 C 0.38151 0.75823 0.25369 0.0
C66 C 0.36862 0.75825 0.2869 0.0
C67 C 0.39875 0.81164 0.30446 0.0
C68 C 0.44111 0.8634 0.28992 0.0
C69 C 0.45498 0.86319 0.25781 0.0
C70 C 0.42602 0.81136 0.23985 0.0
H71 H 0.38132 0.66999 0.34618 0.0
C72 C 0.34845 0.68481 0.35662 0.0
H73 H 0.28531 0.72067 0.34707 0.0
H74 H 0.28395 0.59669 0.20766 0.0
H75 H 0.21183 0.50719 0.23396 0.0
H76 H 0.1912 0.50729 0.29146 0.0
H77 H 0.24259 0.59699 0.32307 0.0
C78 C 0.31765 0.70466 0.33734 0.0
C79 C 0.32751 0.70528 0.3021 0.0
C80 C 0.29706 0.65261 0.28379 0.0
C81 C 0.30904 0.65262 0.25052 0.0
C82 C 0.27736 0.59925 0.23299 0.0
C83 C 0.23558 0.54752 0.24777 0.0
C84 C 0.22396 0.54758 0.28015 0.0
C85 C 0.25401 0.59936 0.29804 0.0
H86 H 0.57693 0.27491 0.6826 0.0
C87 C 0.62636 0.29506 0.67419 0.0
H88 H 0.7238 0.33457 0.68779 0.0
H89 H 0.65926 0.40074 0.82542 0.0
H90 H 0.70096 0.49484 0.80001 0.0
H91 H 0.72526 0.50356 0.74272 0.0
H92 H 0.70718 0.41802 0.7104 0.0
C93 C 0.67408 0.31121 0.69551 0.0
C94 C 0.66044 0.30532 0.73048 0.0
C95 C 0.67304 0.35592 0.74937 0.0
C96 C 0.66079 0.35114 0.78269 0.0
C97 C 0.67041 0.4021 0.8004 0.0
C98 C 0.69369 0.45638 0.78603 0.0
C99 C 0.70724 0.46127 0.75376 0.0
C100 C 0.69681 0.41178 0.7355 0.0
H101 H 0.72969 0.34609 0.84091 0.0
C102 C 0.68337 0.31925 0.8519 0.0
H103 H 0.58529 0.26282 0.84336 0.0
H104 H 0.63059 0.19957 0.70159 0.0
H105 H 0.58806 0.10516 0.72688 0.0
H106 H 0.56832 0.09692 0.78458 0.0
H107 H 0.5909 0.18296 0.8174 0.0
C108 C 0.63169 0.29144 0.83305 0.0
C109 C 0.63822 0.29596 0.79753 0.0
C110 C 0.62402 0.24512 0.77846 0.0
C111 C 0.63521 0.24981 0.74502 0.0
C112 C 0.6221 0.19844 0.7269 0.0
C113 C 0.59794 0.14398 0.74114 0.0
C114 C 0.58686 0.13935 0.77364 0.0
C115 C 0.59993 0.18915 0.79221 0.0
H116 H 0.48216 0.61487 0.05257 0.0
C117 C 0.47435 0.63591 0.03215 0.0
H118 H 0.48469 0.64564 0.98239 0.0
H119 H 0.69755 0.55593 0.97401 0.0
H120 H 0.76184 0.65913 0.96326 0.0
H121 H 0.71513 0.7278 0.96789 0.0
H122 H 0.60384 0.69374 0.98365 0.0
C123 C 0.49066 0.62408 1.00304 0.0
C124 C 0.51749 0.58155 0.99803 0.0
C125 C 0.58207 0.60162 0.98785 0.0
C126 C 0.6088 0.56167 0.98465 0.0
C127 C 0.67431 0.5838 0.97607 0.0
C128 C 0.7119 0.64308 0.96997 0.0
C129 C 0.68562 0.68177 0.9726 0.0
C130 C 0.62162 0.66161 0.98159 0.0
H131 H 0.6226 0.45867 0.94428 0.0
C132 C 0.62077 0.44067 0.96755 0.0
H133 H 0.59672 0.44127 0.01594 0.0
H134 H 0.3892 0.52648 1.01285 0.0
H135 H 0.32391 0.42291 0.02209 0.0
H136 H 0.37013 0.35393 0.01697 0.0
H137 H 0.48186 0.38812 1.00234 0.0
C138 C 0.59927 0.46013 0.99283 0.0
C139 C 0.57042 0.50132 0.99098 0.0
C140 C 0.5049 0.48088 0.99963 0.0
C141 C 0.47835 0.5208 1.00296 0.0
C142 C 0.41241 0.49855 1.01086 0.0
C143 C 0.37416 0.43903 0.016 0.0
C144 C 0.40017 0.4002 1.0131 0.0
C145 C 0.46456 0.42053 1.00488 0.0
H146 H 0.15283 0.59537 0.5019 0.0
C147 C 0.15943 0.57671 0.47956 0.0
H148 H 0.11481 0.50943 0.4451 0.0
H149 H 0.88881 0.33902 0.53409 0.0
H150 H 0.9459 0.28215 0.52288 0.0
H151 H 0.0496 0.32555 0.49444 0.0
H152 H 0.09657 0.42593 0.47665 0.0
C153 C 0.10948 0.52906 0.46733 0.0
C154 C 0.04573 0.50244 0.48408 0.0
C155 C 0.01923 0.44398 0.49483 0.0
C156 C 0.95981 0.41923 0.51181 0.0
C157 C 0.93402 0.36029 0.5215 0.0
C158 C 0.96629 0.3271 0.5152 0.0
C159 C 0.02466 0.35152 0.49916 0.0
C160 C 0.05107 0.40922 0.48906 0.0
H161 H 0.81676 0.43747 0.49422 0.0
C162 C 0.81008 0.42017 0.51806 0.0
H163 H 0.85669 0.40632 0.55713 0.0
H164 H 0.07529 0.61189 0.46209 0.0
H165 H 0.02201 0.67079 0.47616 0.0
H166 H 0.92737 0.63249 0.51151 0.0
H167 H 0.88428 0.53424 0.53206 0.0
C168 C 0.86206 0.42548 0.5339 0.0
C169 C 0.9271 0.45316 0.51846 0.0
C170 C 0.95463 0.51225 0.50852 0.0
C171 C 1.01221 0.53597 0.49017 0.0
C172 C 0.03446 0.59298 0.47791 0.0
C173 C 1.00385 0.62711 0.48551 0.0
C174 C 0.95038 0.60544 0.50524 0.0
C175 C 0.92581 0.54873 0.51665 0.0
H176 H 0.5868 0.15859 0.9976 0.0
C177 C 0.62414 0.16597 0.98011 0.0
H178 H 0.67591 0.12856 0.95569 0.0
H179 H 0.5244 0.96383 0.08303 0.0
H180 H 0.58944 0.04987 0.11502 0.0
H181 H 0.66562 0.14201 0.09009 0.0
H182 H 0.67546 0.14905 0.03287 0.0
C183 C 0.64019 0.12262 0.97384 0.0
C184 C 0.60485 0.06376 0.9892 0.0
C185 C 0.60309 0.05877 0.02276 0.0
C186 C 0.56264 1.00413 0.03721 0.0
C187 C 0.55718 1.00268 0.07071 0.0
C188 C 0.59385 0.05207 0.08944 0.0
C189 C 0.63646 0.10404 0.07541 0.0
C190 C 0.6412 0.10761 0.0425 0.0
H191 H 0.55319 0.88635 0.05948 0.0
C192 C 0.50285 0.86678 0.05277 0.0
H193 H 0.43275 0.87547 0.02578 0.0
H194 H 0.59851 0.05609 0.92433 0.0
H195 H 0.54019 0.96828 0.89222 0.0
H196 H 0.47714 0.87245 0.91707 0.0
H197 H 0.47135 0.86392 0.97426 0.0
C198 C 0.48302 0.89531 0.03267 0.0
C199 C 0.52772 0.95293 0.0181 0.0
C200 C 0.53245 0.95732 0.98454 0.0
C201 C 0.5703 0.01259 0.97013 0.0
C202 C 0.5717 0.01538 0.93659 0.0
C203 C 0.53829 0.96525 0.91782 0.0
C204 C 0.5027 0.91131 0.93181 0.0
C205 C 0.49962 0.90711 0.96471 0.0
H206 H 0.62905 0.49132 0.56943 0.0
C207 C 0.59967 0.44542 0.56306 0.0
H208 H 0.51505 0.38248 0.54115 0.0
H209 H 0.46713 0.61988 0.5614 0.0
H210 H 0.48751 0.61673 0.61733 0.0
H211 H 0.51793 0.54337 0.63736 0.0
H212 H 0.53076 0.47457 0.60146 0.0
C213 C 0.54399 0.42856 0.54739 0.0
C214 C 0.52072 0.47054 0.53637 0.0
C215 C 0.5084 0.50731 0.55819 0.0
C216 C 0.48508 0.54606 0.54706 0.0
C217 C 0.48002 0.58663 0.56885 0.0
C218 C 0.49228 0.58576 0.601 0.0
C219 C 0.50982 0.54473 0.61224 0.0
C220 C 0.51772 0.50582 0.59124 0.0
H221 H 0.35954 0.54628 0.53584 0.0
C222 C 0.38106 0.5747 0.51579 0.0
H223 H 0.45825 0.60827 0.4834 0.0
H224 H 0.54334 0.40967 0.48772 0.0
H225 H 0.51685 0.40889 0.43233 0.0
H226 H 0.46605 0.46834 0.41401 0.0
H227 H 0.44234 0.5296 0.45084 0.0
C228 C 0.43638 0.57938 0.50323 0.0
C229 C 0.46772 0.54383 0.51468 0.0
C230 C 0.47996 0.50706 0.49291 0.0
C231 C 0.50741 0.47126 0.50366 0.0
C232 C 0.52096 0.43653 0.48112 0.0
C233 C 0.50627 0.43583 0.44916 0.0
C234 C 0.47781 0.46939 0.43884 0.0
C235 C 0.46463 0.50457 0.46031 0.0
H236 H 0.17469 0.58875 0.08525 0.0
C237 C 0.19235 0.60582 0.06184 0.0
H238 H 0.16954 0.60295 1.01337 0.0
H239 H 0.92824 0.34969 0.05506 0.0
H240 H 1.00892 0.31994 0.06966 0.0
H241 H 0.12407 0.3909 0.06972 0.0
H242 H 0.15938 0.49202 0.05557 0.0
C243 C 0.15243 0.58512 0.03671 0.0
C244 C 0.08272 0.54212 0.03941 0.0
C245 C 0.06293 0.48284 0.04754 0.0
C246 C 0.99642 0.44137 0.0468 0.0
C247 C 0.97805 0.38267 0.05504 0.0
C248 C 0.02383 0.36504 0.06343 0.0
C249 C 0.08867 0.40504 0.06352 0.0
C250 C 0.10829 0.46317 0.05553 0.0
H251 H 0.88647 0.40987 0.98417 0.0
C252 C 0.85523 0.39474 1.00482 0.0
H253 H 0.85118 0.40027 0.05493 0.0
H254 H 0.10292 0.65245 0.02436 0.0
H255 H 0.02195 0.6816 1.00987 0.0
H256 H 0.90722 0.60958 1.00828 0.0
H257 H 0.87276 0.50792 0.0211 0.0
C258 C 0.88085 0.41427 0.03375 0.0
C259 C 0.94989 0.45863 0.03718 0.0
C260 C 0.96941 0.51814 0.02996 0.0
C261 C 0.03568 0.55975 0.03098 0.0
C262 C 0.05345 0.61882 0.02362 0.0
C263 C 1.00742 0.63626 0.0154 0.0
C264 C 0.94283 0.59572 0.0145 0.0
C265 C 0.92375 0.53739 0.02177 0.0
H266 H 0.58201 0.13565 0.56535 0.0
C267 C 0.58966 0.16072 0.54391 0.0
H268 H 0.59018 0.15987 0.49391 0.0
H269 H 0.56254 0.89543 0.52739 0.0
H270 H 0.66642 0.94672 0.55331 0.0
H271 H 0.72024 0.0546 0.55884 0.0
H272 H 0.67031 0.11186 0.53894 0.0
C273 C 0.5818 0.13414 0.51515 0.0
C274 C 0.55228 0.06915 0.51065 0.0
C275 C 0.58298 0.03655 0.52174 0.0
C276 C 0.55257 0.97434 0.51793 0.0
C277 C 0.58358 0.9427 0.52975 0.0
C278 C 0.64326 0.97159 0.54451 0.0
C279 C 0.67354 0.03234 0.54766 0.0
C280 C 0.64412 0.06468 0.53633 0.0
H281 H 0.46862 0.86189 0.4555 0.0
C282 C 0.4452 0.84405 0.47792 0.0
H283 H 0.43379 0.86203 0.52619 0.0
H284 H 0.48109 0.11822 0.48516 0.0
H285 H 0.37948 0.06708 0.45786 0.0
H286 H 0.32769 0.95955 0.4508 0.0
H287 H 0.37741 0.90267 0.4709 0.0
C288 C 0.45564 0.8799 0.50349 0.0
C289 C 0.49243 0.94495 0.50236 0.0
C290 C 0.46306 0.97775 0.49003 0.0
C291 C 0.49299 0.03983 0.49414 0.0
C292 C 0.46143 0.07118 0.48234 0.0
C293 C 0.40271 0.04233 0.46673 0.0
C294 C 0.37355 0.98182 0.46277 0.0
C295 C 0.40288 0.94967 0.47439 0.0
loop_
_geom_bond_atom_site_label_1
_geom_bond_atom_site_label_2
_geom_bond_distance
_geom_bond_site_symmetry_2
_ccdc_geom_bond_type
Co0 O1 2.216 . S
Co0 O2 2.091 . S
Co0 O4 2.004 . S
Co0 O10 2.021 . S
Co0 O12 2.137 . S
Co0 O13 2.244 . S
O1 Co0 2.216 . S
O1 C8 1.247 . S
O2 Co0 2.091 . S
O2 C8 1.261 . S
C3 O12 1.247 . S
C3 O13 1.272 . S
O4 Co0 2.004 . S
O4 C9 1.259 . S
Co5 O6 2.061 1_556 S
Co5 O11 2.052 1_556 S
Co5 O13 2.135 1_556 S
O6 Co5 2.061 1_554 S
O6 C9 1.235 . S
C7 O10 1.238 . S
C7 O11 1.241 . S
C8 O1 1.247 . S
C8 O2 1.261 . S
C9 O4 1.259 . S
C9 O6 1.235 . S
O10 Co0 2.021 . S
O10 C7 1.238 . S
O11 Co5 2.052 1_554 S
O11 C7 1.241 . S
O12 Co0 2.137 . S
O12 C3 1.247 . S
O13 Co0 2.244 . S
O13 C3 1.272 . S
O13 Co5 2.135 1_554 S
Co14 O15 2.216 . S
Co14 O16 2.091 . S
Co14 O18 2.004 . S
Co14 O24 2.021 . S
Co14 O26 2.137 . S
Co14 O27 2.244 . S
O15 Co14 2.216 . S
O15 C22 1.247 . S
O16 Co14 2.091 . S
O16 C22 1.261 . S
C17 O26 1.247 . S
C17 O27 1.272 . S
O18 Co14 2.004 . S
O18 C23 1.259 . S
Co19 O20 2.061 . S
Co19 O25 2.052 . S
Co19 O27 2.135 . S
O20 Co19 2.061 . S
O20 C23 1.235 . S
C21 O24 1.238 . S
C21 O25 1.241 . S
C22 O15 1.247 . S
C22 O16 1.261 . S
C23 O18 1.259 . S
C23 O20 1.235 . S
O24 Co14 2.021 . S
O24 C21 1.238 . S
O25 Co19 2.052 . S
O25 C21 1.241 . S
O26 Co14 2.137 . S
O26 C17 1.247 . S
O27 Co14 2.244 . S
O27 C17 1.272 . S
O27 Co19 2.135 . S
Co28 O29 2.216 . S
Co28 O30 2.091 . S
Co28 O32 2.004 . S
Co28 O38 2.021 . S
Co28 O40 2.137 . S
Co28 O41 2.244 . S
O29 Co28 2.216 . S
O29 C36 1.247 . S
O30 Co28 2.091 . S
O30 C36 1.261 . S
C31 O40 1.247 . S
C31 O41 1.272 . S
O32 Co28 2.004 . S
O32 C37 1.259 . S
Co33 O34 2.061 . S
Co33 O39 2.052 . S
Co33 O41 2.135 . S
O34 Co33 2.061 . S
O34 C37 1.235 . S
C35 O38 1.238 . S
C35 O39 1.241 . S
C36 O29 1.247 . S
C36 O30 1.261 . S
C37 O32 1.259 . S
C37 O34 1.235 . S
O38 Co28 2.021 . S
O38 C35 1.238 . S
O39 Co33 2.052 . S
O39 C35 1.241 . S
O40 Co28 2.137 . S
O40 C31 1.247 . S
O41 Co28 2.244 . S
O41 C31 1.272 . S
O41 Co33 2.135 . S
Co42 O43 2.216 . S
Co42 O44 2.091 . S
Co42 O46 2.004 . S
Co42 O52 2.021 . S
Co42 O54 2.137 . S
Co42 O55 2.244 . S
O43 Co42 2.216 . S
O43 C50 1.247 . S
O44 Co42 2.091 . S
O44 C50 1.261 . S
C45 O54 1.247 . S
C45 O55 1.272 . S
O46 Co42 2.004 . S
O46 C51 1.259 . S
Co47 O48 2.061 1_554 S
Co47 O53 2.052 1_554 S
Co47 O55 2.135 1_554 S
O48 Co47 2.061 1_556 S
O48 C51 1.235 . S
C49 O52 1.238 . S
C49 O53 1.241 . S
C50 O43 1.247 . S
C50 O44 1.261 . S
C51 O46 1.259 . S
C51 O48 1.235 . S
O52 Co42 2.021 . S
O52 C49 1.238 . S
O53 Co47 2.052 1_556 S
O53 C49 1.241 . S
O54 Co42 2.137 . S
O54 C45 1.247 . S
O55 Co42 2.244 . S
O55 C45 1.272 . S
O55 Co47 2.135 1_556 S
H56 C57 0.951 . S
C57 H56 0.951 . S
C57 C63 1.265 . S
H58 C63 0.950 . S
H59 C67 0.949 . S
H60 C68 0.950 . S
H61 C69 0.951 . S
H62 C70 0.951 . S
C63 C57 1.265 . S
C63 H58 0.950 . S
C63 C64 1.478 . S
C64 C63 1.478 . S
C64 C65 1.397 . S
C64 C81 1.394 . S
C65 C64 1.397 . S
C65 C66 1.438 . S
C65 C70 1.429 . S
C66 C65 1.438 . S
C66 C67 1.428 . S
C66 C79 1.394 . S
C67 H59 0.949 . S
C67 C66 1.428 . S
C67 C68 1.345 . S
C68 H60 0.950 . S
C68 C67 1.345 . S
C68 C69 1.424 . S
C69 H61 0.951 . S
C69 C68 1.424 . S
C69 C70 1.347 . S
C70 H62 0.951 . S
C70 C65 1.429 . S
C70 C69 1.347 . S
H71 C72 0.951 . S
C72 H71 0.951 . S
C72 C78 1.265 . S
H73 C78 0.950 . S
H74 C82 0.949 . S
H75 C83 0.950 . S
H76 C84 0.951 . S
H77 C85 0.951 . S
C78 C72 1.265 . S
C78 H73 0.950 . S
C78 C79 1.478 . S
C79 C66 1.394 . S
C79 C78 1.478 . S
C79 C80 1.397 . S
C80 C79 1.397 . S
C80 C81 1.438 . S
C80 C85 1.429 . S
C81 C64 1.394 . S
C81 C80 1.438 . S
C81 C82 1.428 . S
C82 H74 0.949 . S
C82 C81 1.428 . S
C82 C83 1.345 . S
C83 H75 0.950 . S
C83 C82 1.345 . S
C83 C84 1.424 . S
C84 H76 0.951 . S
C84 C83 1.424 . S
C84 C85 1.347 . S
C85 H77 0.951 . S
C85 C80 1.429 . S
C85 C84 1.347 . S
H86 C87 0.951 . S
C87 H86 0.951 . S
C87 C93 1.265 . S
H88 C93 0.950 . S
H89 C97 0.949 . S
H90 C98 0.950 . S
H91 C99 0.951 . S
H92 C100 0.951 . S
C93 C87 1.265 . S
C93 H88 0.950 . S
C93 C94 1.478 . S
C94 C93 1.478 . S
C94 C95 1.397 . S
C94 C111 1.394 . S
C95 C94 1.397 . S
C95 C96 1.438 . S
C95 C100 1.429 . S
C96 C95 1.438 . S
C96 C97 1.428 . S
C96 C109 1.394 . S
C97 H89 0.949 . S
C97 C96 1.428 . S
C97 C98 1.345 . S
C98 H90 0.950 . S
C98 C97 1.345 . S
C98 C99 1.424 . S
C99 H91 0.951 . S
C99 C98 1.424 . S
C99 C100 1.347 . S
C100 H92 0.951 . S
C100 C95 1.429 . S
C100 C99 1.347 . S
H101 C102 0.951 . S
C102 H101 0.951 . S
C102 C108 1.265 . S
H103 C108 0.950 . S
H104 C112 0.949 . S
H105 C113 0.950 . S
H106 C114 0.951 . S
H107 C115 0.951 . S
C108 C102 1.265 . S
C108 H103 0.950 . S
C108 C109 1.478 . S
C109 C96 1.394 . S
C109 C108 1.478 . S
C109 C110 1.397 . S
C110 C109 1.397 . S
C110 C111 1.438 . S
C110 C115 1.429 . S
C111 C94 1.394 . S
C111 C110 1.438 . S
C111 C112 1.428 . S
C112 H104 0.949 . S
C112 C111 1.428 . S
C112 C113 1.345 . S
C113 H105 0.950 . S
C113 C112 1.345 . S
C113 C114 1.424 . S
C114 H106 0.951 . S
C114 C113 1.424 . S
C114 C115 1.347 . S
C115 H107 0.951 . S
C115 C110 1.429 . S
C115 C114 1.347 . S
H116 C117 0.951 . S
C117 H116 0.951 . S
C117 C123 1.265 1_554 S
H118 C123 0.950 . S
H119 C127 0.949 . S
H120 C128 0.950 . S
H121 C129 0.951 . S
H122 C130 0.951 . S
C123 C117 1.265 1_556 S
C123 H118 0.950 . S
C123 C124 1.478 . S
C124 C123 1.478 . S
C124 C125 1.397 . S
C124 C141 1.394 1_556 S
C125 C124 1.397 . S
C125 C126 1.438 . S
C125 C130 1.429 . S
C126 C125 1.438 . S
C126 C127 1.428 . S
C126 C139 1.394 . S
C127 H119 0.949 . S
C127 C126 1.428 . S
C127 C128 1.345 . S
C128 H120 0.950 . S
C128 C127 1.345 . S
C128 C129 1.424 . S
C129 H121 0.951 . S
C129 C128 1.424 . S
C129 C130 1.347 . S
C130 H122 0.951 . S
C130 C125 1.429 . S
C130 C129 1.347 . S
H131 C132 0.951 . S
C132 H131 0.951 . S
C132 C138 1.265 . S
H133 C138 0.950 . S
H134 C142 0.949 . S
H135 C143 0.950 . S
H136 C144 0.951 . S
H137 C145 0.951 . S
C138 C132 1.265 . S
C138 H133 0.950 . S
C138 C139 1.478 . S
C139 C126 1.394 . S
C139 C138 1.478 . S
C139 C140 1.397 1_556 S
C140 C139 1.397 1_554 S
C140 C141 1.438 . S
C140 C145 1.429 . S
C141 C124 1.394 1_554 S
C141 C140 1.438 . S
C141 C142 1.428 . S
C142 H134 0.949 . S
C142 C141 1.428 . S
C142 C143 1.345 . S
C143 H135 0.950 . S
C143 C142 1.345 . S
C143 C144 1.424 . S
C144 H136 0.951 . S
C144 C143 1.424 . S
C144 C145 1.347 . S
C145 H137 0.951 . S
C145 C140 1.429 . S
C145 C144 1.347 . S
H146 C147 0.951 . S
C147 H146 0.951 . S
C147 C153 1.265 . S
H148 C153 0.950 . S
H149 C157 0.949 . S
H150 C158 0.950 . S
H151 C159 0.951 . S
H152 C160 0.951 . S
C153 C147 1.265 . S
C153 H148 0.950 . S
C153 C154 1.478 . S
C154 C153 1.478 . S
C154 C155 1.397 . S
C154 C171 1.394 . S
C155 C154 1.397 . S
C155 C156 1.438 1_455 S
C155 C160 1.429 . S
C156 C155 1.438 1_655 S
C156 C157 1.428 . S
C156 C169 1.394 . S
C157 H149 0.949 . S
C157 C156 1.428 . S
C157 C158 1.345 . S
C158 H150 0.950 . S
C158 C157 1.345 . S
C158 C159 1.424 1_655 S
C159 H151 0.951 . S
C159 C158 1.424 1_455 S
C159 C160 1.347 . S
C160 H152 0.951 . S
C160 C155 1.429 . S
C160 C159 1.347 . S
H161 C162 0.951 . S
C162 H161 0.951 . S
C162 C168 1.265 . S
H163 C168 0.950 . S
H164 C172 0.949 . S
H165 C173 0.950 . S
H166 C174 0.951 . S
H167 C175 0.951 . S
C168 C162 1.265 . S
C168 H163 0.950 . S
C168 C169 1.478 . S
C169 C156 1.394 . S
C169 C168 1.478 . S
C169 C170 1.397 . S
C170 C169 1.397 . S
C170 C171 1.438 1_655 S
C170 C175 1.429 . S
C171 C154 1.394 . S
C171 C170 1.438 1_455 S
C171 C172 1.428 . S
C172 H164 0.949 . S
C172 C171 1.428 . S
C172 C173 1.345 . S
C173 H165 0.950 . S
C173 C172 1.345 . S
C173 C174 1.424 1_455 S
C174 H166 0.951 . S
C174 C173 1.424 1_655 S
C174 C175 1.347 . S
C175 H167 0.951 . S
C175 C170 1.429 . S
C175 C174 1.347 . S
H176 C177 0.951 . S
C177 H176 0.951 . S
C177 C183 1.265 . S
H178 C183 0.950 . S
H179 C187 0.949 . S
H180 C188 0.950 . S
H181 C189 0.951 . S
H182 C190 0.951 . S
C183 C177 1.265 . S
C183 H178 0.950 . S
C183 C184 1.478 . S
C184 C183 1.478 . S
C184 C185 1.397 1_556 S
C184 C201 1.394 . S
C185 C184 1.397 1_554 S
C185 C186 1.438 1_545 S
C185 C190 1.429 . S
C186 C185 1.438 1_565 S
C186 C187 1.428 . S
C186 C199 1.394 . S
C187 H179 0.949 . S
C187 C186 1.428 . S
C187 C188 1.345 1_565 S
C188 H180 0.950 . S
C188 C187 1.345 1_545 S
C188 C189 1.424 . S
C189 H181 0.951 . S
C189 C188 1.424 . S
C189 C190 1.347 . S
C190 H182 0.951 . S
C190 C185 1.429 . S
C190 C189 1.347 . S
H191 C192 0.951 . S
C192 H191 0.951 . S
C192 C198 1.265 . S
H193 C198 0.950 . S
H194 C202 0.949 . S
H195 C203 0.950 . S
H196 C204 0.951 . S
H197 C205 0.951 . S
C198 C192 1.265 . S
C198 H193 0.950 . S
C198 C199 1.478 . S
C199 C186 1.394 . S
C199 C198 1.478 . S
C199 C200 1.397 1_554 S
C200 C199 1.397 1_556 S
C200 C201 1.438 1_565 S
C200 C205 1.429 . S
C201 C184 1.394 . S
C201 C200 1.438 1_545 S
C201 C202 1.428 . S
C202 H194 0.949 . S
C202 C201 1.428 . S
C202 C203 1.345 1_545 S
C203 H195 0.950 . S
C203 C202 1.345 1_565 S
C203 C204 1.424 . S
C204 H196 0.951 . S
C204 C203 1.424 . S
C204 C205 1.347 . S
C205 H197 0.951 . S
C205 C200 1.429 . S
C205 C204 1.347 . S
H206 C207 0.951 . S
C207 H206 0.951 . S
C207 C213 1.265 . S
H208 C213 0.950 . S
H209 C217 0.949 . S
H210 C218 0.950 . S
H211 C219 0.951 . S
H212 C220 0.951 . S
C213 C207 1.265 . S
C213 H208 0.950 . S
C213 C214 1.478 . S
C214 C213 1.478 . S
C214 C215 1.397 . S
C214 C231 1.394 . S
C215 C214 1.397 . S
C215 C216 1.438 . S
C215 C220 1.429 . S
C216 C215 1.438 . S
C216 C217 1.428 . S
C216 C229 1.394 . S
C217 H209 0.949 . S
C217 C216 1.428 . S
C217 C218 1.345 . S
C218 H210 0.950 . S
C218 C217 1.345 . S
C218 C219 1.424 . S
C219 H211 0.951 . S
C219 C218 1.424 . S
C219 C220 1.347 . S
C220 H212 0.951 . S
C220 C215 1.429 . S
C220 C219 1.347 . S
H221 C222 0.951 . S
C222 H221 0.951 . S
C222 C228 1.265 . S
H223 C228 0.950 . S
H224 C232 0.949 . S
H225 C233 0.950 . S
H226 C234 0.951 . S
H227 C235 0.951 . S
C228 C222 1.265 . S
C228 H223 0.950 . S
C228 C229 1.478 . S
C229 C216 1.394 . S
C229 C228 1.478 . S
C229 C230 1.397 . S
C230 C229 1.397 . S
C230 C231 1.438 . S
C230 C235 1.429 . S
C231 C214 1.394 . S
C231 C230 1.438 . S
C231 C232 1.428 . S
C232 H224 0.949 . S
C232 C231 1.428 . S
C232 C233 1.345 . S
C233 H225 0.950 . S
C233 C232 1.345 . S
C233 C234 1.424 . S
C234 H226 0.951 . S
C234 C233 1.424 . S
C234 C235 1.347 . S
C235 H227 0.951 . S
C235 C230 1.429 . S
C235 C234 1.347 . S
H236 C237 0.951 . S
C237 H236 0.951 . S
C237 C243 1.265 . S
H238 C243 0.950 . S
H239 C247 0.949 . S
H240 C248 0.950 . S
H241 C249 0.951 . S
H242 C250 0.951 . S
C243 C237 1.265 . S
C243 H238 0.950 . S
C243 C244 1.478 . S
C244 C243 1.478 . S
C244 C245 1.397 . S
C244 C261 1.394 . S
C245 C244 1.397 . S
C245 C246 1.438 1_455 S
C245 C250 1.429 . S
C246 C245 1.438 1_655 S
C246 C247 1.428 . S
C246 C259 1.394 . S
C247 H239 0.949 . S
C247 C246 1.428 . S
C247 C248 1.345 . S
C248 H240 0.950 . S
C248 C247 1.345 . S
C248 C249 1.424 1_655 S
C249 H241 0.951 . S
C249 C248 1.424 1_455 S
C249 C250 1.347 . S
C250 H242 0.951 . S
C250 C245 1.429 . S
C250 C249 1.347 . S
H251 C252 0.951 . S
C252 H251 0.951 . S
C252 C258 1.265 . S
H253 C258 0.950 1_554 S
H254 C262 0.949 . S
H255 C263 0.950 . S
H256 C264 0.951 . S
H257 C265 0.951 . S
C258 C252 1.265 . S
C258 H253 0.950 1_556 S
C258 C259 1.478 1_556 S
C259 C246 1.394 . S
C259 C258 1.478 1_554 S
C259 C260 1.397 1_554 S
C260 C259 1.397 1_556 S
C260 C261 1.438 1_656 S
C260 C265 1.429 . S
C261 C244 1.394 . S
C261 C260 1.438 1_454 S
C261 C262 1.428 1_554 S
C262 H254 0.949 . S
C262 C261 1.428 1_556 S
C262 C263 1.345 . S
C263 H255 0.950 . S
C263 C262 1.345 . S
C263 C264 1.424 1_455 S
C264 H256 0.951 . S
C264 C263 1.424 1_655 S
C264 C265 1.347 . S
C265 H257 0.951 . S
C265 C260 1.429 . S
C265 C264 1.347 . S
H266 C267 0.951 . S
C267 H266 0.951 . S
C267 C273 1.265 . S
H268 C273 0.950 . S
H269 C277 0.949 . S
H270 C278 0.950 . S
H271 C279 0.951 . S
H272 C280 0.951 . S
C273 C267 1.265 . S
C273 H268 0.950 . S
C273 C274 1.478 . S
C274 C273 1.478 . S
C274 C275 1.397 . S
C274 C291 1.394 . S
C275 C274 1.397 . S
C275 C276 1.438 1_545 S
C275 C280 1.429 . S
C276 C275 1.438 1_565 S
C276 C277 1.428 . S
C276 C289 1.394 . S
C277 H269 0.949 . S
C277 C276 1.428 . S
C277 C278 1.345 . S
C278 H270 0.950 . S
C278 C277 1.345 . S
C278 C279 1.424 . S
C279 H271 0.951 . S
C279 C278 1.424 . S
C279 C280 1.347 1_565 S
C280 H272 0.951 . S
C280 C275 1.429 . S
C280 C279 1.347 1_545 S
H281 C282 0.951 . S
C282 H281 0.951 . S
C282 C288 1.265 . S
H283 C288 0.950 . S
H284 C292 0.949 . S
H285 C293 0.950 . S
H286 C294 0.951 . S
H287 C295 0.951 . S
C288 C282 1.265 . S
C288 H283 0.950 . S
C288 C289 1.478 . S
C289 C276 1.394 . S
C289 C288 1.478 . S
C289 C290 1.397 . S
C290 C289 1.397 . S
C290 C291 1.438 1_565 S
C290 C295 1.429 . S
C291 C274 1.394 . S
C291 C290 1.438 1_545 S
C291 C292 1.428 . S
C292 H284 0.949 . S
C292 C291 1.428 . S
C292 C293 1.345 . S
C293 H285 0.950 . S
C293 C292 1.345 . S
C293 C294 1.424 . S
C294 H286 0.951 . S
C294 C293 1.424 . S
C294 C295 1.347 1_545 S
C295 H287 0.951 . S
C295 C290 1.429 . S
C295 C294 1.347 1_565 S
C57 C8 1.575 . S
C72 C36 1.546 . S
C87 C22 1.573 . S
C102 C50 1.537 . S
C117 C9 1.538 . S
C132 C49 1.520 . S
C147 C31 1.559 . S
C162 C23 1.550 . S
C177 C45 1.572 . S
C192 C3 1.585 . S
C207 C17 1.557 . S
C222 C37 1.542 . S
C237 C7 1.509 . S
C252 C51 1.538 . S
C267 C21 1.460 . S
C282 C35 1.490 . S
