# Generated by pormake.
# Topology wiv, (6)-cn, num edge types: 1
# Building blocks:
#     Node 0, Type 0, BuildingBlock: BETFAJ_clean_sbu_0, # of connection points: 6
#     Node 1, Type 0, BuildingBlock: BETFAJ_clean_sbu_0, # of connection points: 6
#     Node 2, Type 0, BuildingBlock: BETFAJ_clean_sbu_0, # of connection points: 6
#     Node 3, Type 0, BuildingBlock: BETFAJ_clean_sbu_0, # of connection points: 6
#     Node 4, Type 0, BuildingBlock: BETFAJ_clean_sbu_0, # of connection points: 6
#     Node 5, Type 0, BuildingBlock: BETFAJ_clean_sbu_0, # of connection points: 6
#     Node 6, Type 0, BuildingBlock: BETFAJ_clean_sbu_0, # of connection points: 6
#     Node 7, Type 0, BuildingBlock: BETFAJ_clean_sbu_0, # of connection points: 6
#     Node 8, Type 0, BuildingBlock: BETFAJ_clean_sbu_0, # of connection points: 6
#     Node 9, Type 0, BuildingBlock: BETFAJ_clean_sbu_0, # of connection points: 6
#     Node 10, Type 0, BuildingBlock: BETFAJ_clean_sbu_0, # of connection points: 6
#     Node 11, Type 0, BuildingBlock: BETFAJ_clean_sbu_0, # of connection points: 6
#     Node 12, Type 0, BuildingBlock: BETFAJ_clean_sbu_0, # of connection points: 6
#     Node 13, Type 0, BuildingBlock: BETFAJ_clean_sbu_0, # of connection points: 6
#     Node 14, Type 0, BuildingBlock: BETFAJ_clean_sbu_0, # of connection points: 6
#     Node 15, Type 0, BuildingBlock: BETFAJ_clean_sbu_0, # of connection points: 6
#     Edge 16, Type (0, 0), BuildingBlock: CIFDUS_clean_linker_0, # of connection points: 2
#     Edge 17, Type (0, 0), BuildingBlock: CIFDUS_clean_linker_0, # of connection points: 2
#     Edge 18, Type (0, 0), BuildingBlock: CIFDUS_clean_linker_0, # of connection points: 2
#     Edge 19, Type (0, 0), BuildingBlock: CIFDUS_clean_linker_0, # of connection points: 2
#     Edge 20, Type (0, 0), BuildingBlock: CIFDUS_clean_linker_0, # of connection points: 2
#     Edge 21, Type (0, 0), BuildingBlock: CIFDUS_clean_linker_0, # of connection points: 2
#     Edge 22, Type (0, 0), BuildingBlock: CIFDUS_clean_linker_0, # of connection points: 2
#     Edge 23, Type (0, 0), BuildingBlock: CIFDUS_clean_linker_0, # of connection points: 2
#     Edge 24, Type (0, 0), BuildingBlock: CIFDUS_clean_linker_0, # of connection points: 2
#     Edge 25, Type (0, 0), BuildingBlock: CIFDUS_clean_linker_0, # of connection points: 2
#     Edge 26, Type (0, 0), BuildingBlock: CIFDUS_clean_linker_0, # of connection points: 2
#     Edge 27, Type (0, 0), BuildingBlock: CIFDUS_clean_linker_0, # of connection points: 2
#     Edge 28, Type (0, 0), BuildingBlock: CIFDUS_clean_linker_0, # of connection points: 2
#     Edge 29, Type (0, 0), BuildingBlock: CIFDUS_clean_linker_0, # of connection points: 2
#     Edge 30, Type (0, 0), BuildingBlock: CIFDUS_clean_linker_0, # of connection points: 2
#     Edge 31, Type (0, 0), BuildingBlock: CIFDUS_clean_linker_0, # of connection points: 2
#     Edge 32, Type (0, 0), BuildingBlock: CIFDUS_clean_linker_0, # of connection points: 2
#     Edge 33, Type (0, 0), BuildingBlock: CIFDUS_clean_linker_0, # of connection points: 2
#     Edge 34, Type (0, 0), BuildingBlock: CIFDUS_clean_linker_0, # of connection points: 2
#     Edge 35, Type (0, 0), BuildingBlock: CIFDUS_clean_linker_0, # of connection points: 2
#     Edge 36, Type (0, 0), BuildingBlock: CIFDUS_clean_linker_0, # of connection points: 2
#     Edge 37, Type (0, 0), BuildingBlock: CIFDUS_clean_linker_0, # of connection points: 2
#     Edge 38, Type (0, 0), BuildingBlock: CIFDUS_clean_linker_0, # of connection points: 2
#     Edge 39, Type (0, 0), BuildingBlock: CIFDUS_clean_linker_0, # of connection points: 2
#     Edge 40, Type (0, 0), BuildingBlock: CIFDUS_clean_linker_0, # of connection points: 2
#     Edge 41, Type (0, 0), BuildingBlock: CIFDUS_clean_linker_0, # of connection points: 2
#     Edge 42, Type (0, 0), BuildingBlock: CIFDUS_clean_linker_0, # of connection points: 2
#     Edge 43, Type (0, 0), BuildingBlock: CIFDUS_clean_linker_0, # of connection points: 2
#     Edge 44, Type (0, 0), BuildingBlock: CIFDUS_clean_linker_0, # of connection points: 2
#     Edge 45, Type (0, 0), BuildingBlock: CIFDUS_clean_linker_0, # of connection points: 2
#     Edge 46, Type (0, 0), BuildingBlock: CIFDUS_clean_linker_0, # of connection points: 2
#     Edge 47, Type (0, 0), BuildingBlock: CIFDUS_clean_linker_0, # of connection points: 2
#     Edge 48, Type (0, 0), BuildingBlock: CIFDUS_clean_linker_0, # of connection points: 2
#     Edge 49, Type (0, 0), BuildingBlock: CIFDUS_clean_linker_0, # of connection points: 2
#     Edge 50, Type (0, 0), BuildingBlock: CIFDUS_clean_linker_0, # of connection points: 2
#     Edge 51, Type (0, 0), BuildingBlock: CIFDUS_clean_linker_0, # of connection points: 2
#     Edge 52, Type (0, 0), BuildingBlock: CIFDUS_clean_linker_0, # of connection points: 2
#     Edge 53, Type (0, 0), BuildingBlock: CIFDUS_clean_linker_0, # of connection points: 2
#     Edge 54, Type (0, 0), BuildingBlock: CIFDUS_clean_linker_0, # of connection points: 2
#     Edge 55, Type (0, 0), BuildingBlock: CIFDUS_clean_linker_0, # of connection points: 2
#     Edge 56, Type (0, 0), BuildingBlock: CIFDUS_clean_linker_0, # of connection points: 2
#     Edge 57, Type (0, 0), BuildingBlock: CIFDUS_clean_linker_0, # of connection points: 2
#     Edge 58, Type (0, 0), BuildingBlock: CIFDUS_clean_linker_0, # of connection points: 2
#     Edge 59, Type (0, 0), BuildingBlock: CIFDUS_clean_linker_0, # of connection points: 2
#     Edge 60, Type (0, 0), BuildingBlock: CIFDUS_clean_linker_0, # of connection points: 2
#     Edge 61, Type (0, 0), BuildingBlock: CIFDUS_clean_linker_0, # of connection points: 2
#     Edge 62, Type (0, 0), BuildingBlock: CIFDUS_clean_linker_0, # of connection points: 2
#     Edge 63, Type (0, 0), BuildingBlock: CIFDUS_clean_linker_0, # of connection points: 2
# Relax obj value: 0.145
# Max RMSD: 0.195
# Mean RMSD: 0.195
data_MOF--net-wiv--node1-BETFAJ_clean_sbu_0--edge1-CIFDUS_clean_linker_0
_symmetry_space_group_name_H-M    P1
_symmetry_Int_Tables_number       1
_symmetry_cell_setting            triclinic
loop_
_symmetry_equiv_pos_as_xyz
'x, y, z'
_cell_length_a     44.036916
_cell_length_b     44.041051
_cell_length_c     22.961534
_cell_angle_alpha  90.065834
_cell_angle_beta   90.091375
_cell_angle_gamma 90.061407
loop_
_atom_site_label
_atom_site_type_symbol
_atom_site_fract_x
_atom_site_fract_y
_atom_site_fract_z
_atom_type_partial_charge
Sm0 Sm 0.33244 0.09979 0.18648 0.0
Sm1 Sm 0.37465 0.10055 0.08279 0.0
C2 C 0.29866 0.0896 0.28043 0.0
C3 C 0.30379 0.09361 0.344 0.0
C4 C 0.3334 0.09386 0.36693 0.0
C5 C 0.33835 0.09629 0.4271 0.0
C6 C 0.31384 0.0988 0.46627 0.0
C7 C 0.28414 0.09894 0.44289 0.0
C8 C 0.27922 0.09633 0.38253 0.0
C9 C 0.3545 0.15689 0.16106 0.0
C10 C 0.40586 0.10459 0.20854 0.0
C11 C 0.40063 0.10866 0.97923 0.0
C12 C 0.39102 0.11111 0.91735 0.0
C13 C 0.36067 0.11677 0.90151 0.0
C14 C 0.35198 0.11753 0.8425 0.0
C15 C 0.37356 0.11303 0.79805 0.0
C16 C 0.40391 0.10742 0.81441 0.0
C17 C 0.41246 0.10639 0.87321 0.0
C18 C 0.37057 0.04527 0.13974 0.0
C19 C 0.30178 0.0951 0.05433 0.0
O20 O 0.31529 0.06883 0.25515 0.0
O21 O 0.29628 0.11428 0.24897 0.0
O22 O 0.34534 0.13773 0.12362 0.0
O23 O 0.35274 0.14566 0.21301 0.0
O24 O 0.38029 0.09188 0.22663 0.0
O25 O 0.40824 0.11544 0.15501 0.0
O26 O 0.39366 0.13106 1.01433 0.0
O27 O 0.39702 0.08211 1.00349 0.0
O28 O 0.34865 0.06267 0.12778 0.0
O29 O 0.39588 0.0565 0.12011 0.0
O30 O 0.32976 0.09371 0.03489 0.0
O31 O 0.29607 0.09834 0.111 0.0
H32 H 0.35281 0.09174 0.33829 0.0
H33 H 0.36151 0.09549 0.44287 0.0
H34 H 0.26461 0.10124 0.47113 0.0
H35 H 0.25616 0.09624 0.36599 0.0
H36 H 0.34369 0.12063 0.93467 0.0
H37 H 0.32849 0.12214 0.8317 0.0
H38 H 0.42111 0.10341 0.78164 0.0
H39 H 0.43593 0.1017 0.88423 0.0
Sm40 Sm 0.10784 0.62505 0.97605 0.0
Sm41 Sm 0.10688 0.6701 0.87898 0.0
C42 C 0.11646 0.59689 0.07713 0.0
C43 C 0.1144 0.60467 0.14012 0.0
C44 C 0.12832 0.63084 0.16326 0.0
C45 C 0.12629 0.63753 0.22296 0.0
C46 C 0.11037 0.61821 0.2611 0.0
C47 C 0.09627 0.59219 0.23757 0.0
C48 C 0.09827 0.58554 0.17794 0.0
C49 C 0.052 0.63065 0.92139 0.0
C50 C 0.10072 0.6983 1.00974 0.0
C51 C 0.09918 0.69854 0.77749 0.0
C52 C 0.09975 0.69111 0.71438 0.0
C53 C 0.08628 0.66453 0.69215 0.0
C54 C 0.08709 0.65818 0.6322 0.0
C55 C 0.10145 0.6782 0.59301 0.0
C56 C 0.11511 0.70465 0.61578 0.0
C57 C 0.11422 0.71099 0.67559 0.0
C58 C 0.16444 0.66102 0.92315 0.0
C59 C 0.1144 0.59605 0.8499 0.0
O60 O 0.1384 0.60937 0.04709 0.0
O61 O 0.09092 0.59559 0.0481 0.0
O62 O 0.0694 0.65248 0.93521 0.0
O63 O 0.06314 0.6051 0.93979 0.0
O64 O 0.10863 0.67074 1.02618 0.0
O65 O 0.09538 0.70418 0.95389 0.0
O66 O 0.07687 0.68759 0.80846 0.0
O67 O 0.12507 0.69752 0.80509 0.0
O68 O 0.14516 0.64015 0.91387 0.0
O69 O 0.15273 0.68739 0.91179 0.0
O70 O 0.10393 0.6228 0.8327 0.0
O71 O 0.12264 0.59156 0.90453 0.0
H72 H 0.14094 0.6461 0.13534 0.0
H73 H 0.13778 0.65754 0.23941 0.0
H74 H 0.08344 0.57697 0.26522 0.0
H75 H 0.08722 0.56531 0.16132 0.0
H76 H 0.07502 0.64868 0.72103 0.0
H77 H 0.07602 0.63779 0.6165 0.0
H78 H 0.12686 0.72039 0.58746 0.0
H79 H 0.12495 0.73152 0.69163 0.0
Sm80 Sm 0.67832 0.90169 0.18907 0.0
Sm81 Sm 0.62934 0.89853 0.08487 0.0
C82 C 0.70507 0.92228 0.28508 0.0
C83 C 0.70181 0.91816 0.34888 0.0
C84 C 0.70482 0.94358 0.38531 0.0
C85 C 0.69762 0.94172 0.44458 0.0
C86 C 0.68725 0.91433 0.4691 0.0
C87 C 0.68551 0.88846 0.43304 0.0
C88 C 0.69249 0.89041 0.37338 0.0
C89 C 0.66561 0.84166 0.1631 0.0
C90 C 0.6044 0.88621 0.21473 0.0
C91 C 0.60426 0.8889 0.98152 0.0
C92 C 0.61596 0.88925 0.92048 0.0
C93 C 0.61791 0.86218 0.88817 0.0
C94 C 0.62929 0.86223 0.83105 0.0
C95 C 0.63887 0.88942 0.80445 0.0
C96 C 0.63691 0.91649 0.83689 0.0
C97 C 0.62566 0.91642 0.894 0.0
C98 C 0.63403 0.95306 0.14383 0.0
C99 C 0.70331 0.90532 0.0529 0.0
O100 O 0.6821 0.93565 0.25979 0.0
O101 O 0.71616 0.89983 0.25404 0.0
O102 O 0.65482 0.86497 0.13882 0.0
O103 O 0.68462 0.84992 0.20339 0.0
O104 O 0.63093 0.89696 0.23354 0.0
O105 O 0.59885 0.88104 0.15872 0.0
O106 O 0.61353 0.86675 1.0153 0.0
O107 O 0.60286 0.91499 1.00886 0.0
O108 O 0.65606 0.93592 0.12982 0.0
O109 O 0.60867 0.94238 0.12289 0.0
O110 O 0.67491 0.90102 0.0365 0.0
O111 O 0.71101 0.90808 0.10901 0.0
H112 H 0.71178 0.96525 0.36743 0.0
H113 H 0.69961 0.96199 0.47109 0.0
H114 H 0.67739 0.86708 0.45034 0.0
H115 H 0.68958 0.87054 0.34608 0.0
H116 H 0.61061 0.84088 0.90714 0.0
H117 H 0.63014 0.84096 0.80741 0.0
H118 H 0.64452 0.93779 0.81844 0.0
H119 H 0.62476 0.93775 0.91744 0.0
Sm120 Sm 0.89927 0.38496 0.98434 0.0
Sm121 Sm 0.89667 0.34062 0.88571 0.0
C122 C 0.89398 0.41386 0.08542 0.0
C123 C 0.89599 0.4057 0.14789 0.0
C124 C 0.88339 0.37856 0.1692 0.0
C125 C 0.88618 0.37087 0.22817 0.0
C126 C 0.9017 0.3901 0.26727 0.0
C127 C 0.91397 0.41742 0.2457 0.0
C128 C 0.91117 0.42508 0.18673 0.0
C129 C 0.95347 0.37794 0.92488 0.0
C130 C 0.90404 0.31173 1.0158 0.0
C131 C 0.90427 0.31293 0.7837 0.0
C132 C 0.90175 0.32115 0.72136 0.0
C133 C 0.91215 0.34931 0.70047 0.0
C134 C 0.90938 0.35669 0.64133 0.0
C135 C 0.89601 0.33614 0.60182 0.0
C136 C 0.88564 0.308 0.62302 0.0
C137 C 0.8885 0.30062 0.6821 0.0
C138 C 0.84047 0.35007 0.93516 0.0
C139 C 0.8865 0.41484 0.86017 0.0
O140 O 0.87083 0.40307 0.05618 0.0
O141 O 0.91929 0.41291 0.0558 0.0
O142 O 0.93579 0.35664 0.93993 0.0
O143 O 0.9433 0.40388 0.94336 0.0
O144 O 0.89761 0.33942 0.03354 0.0
O145 O 0.90794 0.30587 0.95952 0.0
O146 O 0.92635 0.32543 0.81324 0.0
O147 O 0.879 0.31171 0.81322 0.0
O148 O 0.86009 0.37053 0.92576 0.0
O149 O 0.85043 0.32385 0.91779 0.0
O150 O 0.89542 0.38817 0.83935 0.0
O151 O 0.8822 0.41875 0.9165 0.0
H152 H 0.87156 0.36313 0.14023 0.0
H153 H 0.87662 0.34956 0.24283 0.0
H154 H 0.92557 0.43311 0.27447 0.0
H155 H 0.92096 0.44618 0.17139 0.0
H156 H 0.9223 0.3657 0.72986 0.0
H157 H 0.91723 0.37871 0.62674 0.0
H158 H 0.87552 0.29152 0.5938 0.0
H159 H 0.88029 0.27884 0.69723 0.0
Sm160 Sm 0.33463 0.39127 0.13231 0.0
Sm161 Sm 0.38014 0.39704 0.22988 0.0
C162 C 0.3048 0.39363 0.03132 0.0
C163 C 0.3121 0.39747 0.96838 0.0
C164 C 0.31687 0.42634 0.94385 0.0
C165 C 0.32507 0.42936 0.88511 0.0
C166 C 0.32817 0.40363 0.84911 0.0
C167 C 0.32226 0.37488 0.87319 0.0
C168 C 0.31432 0.37186 0.93194 0.0
C169 C 0.34478 0.33707 0.18921 0.0
C170 C 0.40902 0.38382 0.10541 0.0
C171 C 0.4073 0.39438 0.33291 0.0
C172 C 0.39608 0.39375 0.39422 0.0
C173 C 0.38673 0.36639 0.42028 0.0
C174 C 0.37517 0.36606 0.47712 0.0
C175 C 0.37268 0.39306 0.50971 0.0
C176 C 0.38238 0.42037 0.48386 0.0
C177 C 0.39399 0.42069 0.42701 0.0
C178 C 0.37425 0.44889 0.16334 0.0
C179 C 0.30681 0.40014 0.26314 0.0
O180 O 0.30781 0.41706 0.06599 0.0
O181 O 0.31398 0.36847 0.05561 0.0
O182 O 0.36498 0.35637 0.17634 0.0
O183 O 0.3183 0.34652 0.17224 0.0
O184 O 0.38211 0.39264 0.08542 0.0
O185 O 0.4136 0.37926 0.16158 0.0
O186 O 0.40203 0.37037 0.30069 0.0
O187 O 0.40356 0.41972 0.30411 0.0
O188 O 0.35249 0.43204 0.17967 0.0
O189 O 0.39977 0.43988 0.18581 0.0
O190 O 0.33488 0.39504 0.28013 0.0
O191 O 0.30023 0.40264 0.20683 0.0
H192 H 0.31447 0.44661 0.97009 0.0
H193 H 0.3289 0.45191 0.86783 0.0
H194 H 0.32458 0.35454 0.84703 0.0
H195 H 0.3103 0.3493 0.94905 0.0
H196 H 0.38818 0.34513 0.3967 0.0
H197 H 0.36847 0.3445 0.49572 0.0
H198 H 0.38054 0.44167 0.50718 0.0
H199 H 0.40105 0.44217 0.40851 0.0
Sm200 Sm 0.39742 0.62363 0.83127 0.0
Sm201 Sm 0.40102 0.66943 0.92628 0.0
C202 C 0.38728 0.59727 0.72865 0.0
C203 C 0.3868 0.6077 0.66685 0.0
C204 C 0.37122 0.63415 0.65002 0.0
C205 C 0.37166 0.64405 0.59191 0.0
C206 C 0.38777 0.62788 0.5488 0.0
C207 C 0.40334 0.60138 0.56593 0.0
C208 C 0.40283 0.59146 0.6241 0.0
C209 C 0.45282 0.62337 0.88763 0.0
C210 C 0.41014 0.69579 0.79576 0.0
C211 C 0.40727 0.69818 1.02811 0.0
C212 C 0.41015 0.68968 0.09055 0.0
C213 C 0.42576 0.66341 0.10813 0.0
C214 C 0.42661 0.65491 0.1671 0.0
C215 C 0.41188 0.67247 0.21011 0.0
C216 C 0.39658 0.69896 0.19216 0.0
C217 C 0.39568 0.70736 0.1332 0.0
C218 C 0.34453 0.66669 0.87521 0.0
C219 C 0.38896 0.59615 0.95807 0.0
O220 O 0.36554 0.6068 0.76298 0.0
O221 O 0.41373 0.59718 0.75448 0.0
O222 O 0.43819 0.64726 0.87438 0.0
O223 O 0.43946 0.59929 0.8673 0.0
O224 O 0.4005 0.66865 0.78044 0.0
O225 O 0.41539 0.70221 0.8514 0.0
O226 O 0.42999 0.69216 0.99341 0.0
O227 O 0.38111 0.69243 1.00383 0.0
O228 O 0.36034 0.6437 0.88887 0.0
O229 O 0.35938 0.69158 0.88542 0.0
O230 O 0.40015 0.62282 0.97414 0.0
O231 O 0.38159 0.59094 0.90312 0.0
H232 H 0.35893 0.64746 0.68189 0.0
H233 H 0.35973 0.66477 0.58108 0.0
H234 H 0.4156 0.58795 0.53424 0.0
H235 H 0.41505 0.571 0.63573 0.0
H236 H 0.43692 0.64918 0.07618 0.0
H237 H 0.43829 0.63417 0.17878 0.0
H238 H 0.38541 0.71339 0.22373 0.0
H239 H 0.38339 0.72766 0.1208 0.0
Sm240 Sm 0.66677 0.6005 0.12713 0.0
Sm241 Sm 0.62262 0.60812 0.23692 0.0
C242 C 0.69126 0.58006 1.02934 0.0
C243 C 0.68755 0.58739 0.96669 0.0
C244 C 0.65842 0.59036 0.94218 0.0
C245 C 0.65478 0.59588 0.88269 0.0
C246 C 0.68014 0.59902 0.84592 0.0
C247 C 0.70936 0.59655 0.87075 0.0
C248 C 0.71299 0.59074 0.93048 0.0
C249 C 0.65946 0.66168 0.15266 0.0
C250 C 0.59396 0.62009 0.10939 0.0
C251 C 0.59675 0.62207 0.33763 0.0
C252 C 0.60591 0.62446 0.39935 0.0
C253 C 0.63607 0.63077 0.41541 0.0
C254 C 0.64456 0.63131 0.47431 0.0
C255 C 0.62296 0.62583 0.51816 0.0
C256 C 0.59272 0.61991 0.50173 0.0
C257 C 0.58434 0.61913 0.44296 0.0
C258 C 0.61928 0.55322 0.17865 0.0
C259 C 0.69629 0.59508 0.26062 0.0
O260 O 0.66771 0.56764 0.05454 0.0
O261 O 0.70475 0.60031 0.06238 0.0
O262 O 0.64824 0.63927 0.17894 0.0
O263 O 0.67572 0.65183 0.10966 0.0
O264 O 0.61813 0.60597 0.08776 0.0
O265 O 0.59209 0.62781 0.16508 0.0
O266 O 0.6076 0.64248 0.3017 0.0
O267 O 0.59664 0.59466 0.31563 0.0
O268 O 0.64365 0.56786 0.18883 0.0
O269 O 0.5963 0.56669 0.20301 0.0
O270 O 0.66917 0.60213 0.28108 0.0
O271 O 0.70131 0.59154 0.20362 0.0
H272 H 0.63827 0.58798 0.96881 0.0
H273 H 0.63191 0.59697 0.86542 0.0
H274 H 0.72946 0.59919 0.84412 0.0
H275 H 0.7357 0.58867 0.94831 0.0
H276 H 0.65306 0.63515 0.38244 0.0
H277 H 0.66792 0.63635 0.48559 0.0
H278 H 0.5756 0.61529 0.53437 0.0
H279 H 0.56099 0.61406 0.43151 0.0
Sm280 Sm 0.6055 0.38342 0.82574 0.0
Sm281 Sm 0.60137 0.34208 0.92779 0.0
C282 C 0.61354 0.40738 0.72079 0.0
C283 C 0.61135 0.39501 0.66046 0.0
C284 C 0.63582 0.39781 0.62165 0.0
C285 C 0.63379 0.38621 0.56473 0.0
C286 C 0.60714 0.37163 0.54499 0.0
C287 C 0.58272 0.36887 0.58419 0.0
C288 C 0.58483 0.38025 0.64103 0.0
C289 C 0.55016 0.38607 0.88337 0.0
C290 C 0.59628 0.3111 0.79584 0.0
C291 C 0.5889 0.3092 1.0216 0.0
C292 C 0.59577 0.31329 0.08438 0.0
C293 C 0.57295 0.30839 0.12594 0.0
C294 C 0.57765 0.31616 0.18454 0.0
C295 C 0.60536 0.32905 0.20302 0.0
C296 C 0.62859 0.33277 0.16144 0.0
C297 C 0.6238 0.32518 0.10286 0.0
C298 C 0.66024 0.35906 0.90387 0.0
C299 C 0.61539 0.41437 0.94997 0.0
O300 O 0.63616 0.39803 0.75318 0.0
O301 O 0.58817 0.40931 0.74993 0.0
O302 O 0.56454 0.36186 0.87186 0.0
O303 O 0.5646 0.40951 0.86327 0.0
O304 O 0.59737 0.33908 0.77641 0.0
O305 O 0.59709 0.30551 0.85283 0.0
O306 O 0.57022 0.32916 0.99963 0.0
O307 O 0.61165 0.30319 0.98674 0.0
O308 O 0.64068 0.35149 0.86583 0.0
O309 O 0.64872 0.35793 0.95559 0.0
O310 O 0.59976 0.39058 0.96879 0.0
O311 O 0.62569 0.4152 0.8959 0.0
H312 H 0.65659 0.40892 0.63542 0.0
H313 H 0.65332 0.38838 0.53646 0.0
H314 H 0.56164 0.35827 0.57086 0.0
H315 H 0.56552 0.37749 0.66969 0.0
H316 H 0.55102 0.29956 0.11267 0.0
H317 H 0.55905 0.31323 0.2148 0.0
H318 H 0.65044 0.34204 0.17392 0.0
H319 H 0.64178 0.32944 0.07177 0.0
Sm320 Sm 0.83895 0.60417 0.66874 0.0
Sm321 Sm 0.88375 0.60418 0.57017 0.0
C322 C 0.81012 0.59938 0.77011 0.0
C323 C 0.81928 0.59651 0.83183 0.0
C324 C 0.84463 0.57923 0.8484 0.0
C325 C 0.85466 0.57924 0.90632 0.0
C326 C 0.84 0.59709 0.94889 0.0
C327 C 0.81428 0.61398 0.93197 0.0
C328 C 0.804 0.61354 0.87425 0.0
C329 C 0.84869 0.661 0.62163 0.0
C330 C 0.91277 0.60956 0.69752 0.0
C331 C 0.9108 0.61456 0.46901 0.0
C332 C 0.90043 0.6151 0.40742 0.0
C333 C 0.8761 0.63358 0.38956 0.0
C334 C 0.86581 0.63293 0.33182 0.0
C335 C 0.87933 0.61358 0.2904 0.0
C336 C 0.90383 0.59526 0.30846 0.0
C337 C 0.91428 0.59612 0.36614 0.0
C338 C 0.88019 0.54898 0.62504 0.0
C339 C 0.80998 0.59657 0.53908 0.0
O340 O 0.81494 0.5763 0.73554 0.0
O341 O 0.81684 0.62522 0.74574 0.0
O342 O 0.86897 0.64141 0.63152 0.0
O343 O 0.82221 0.65046 0.63573 0.0
O344 O 0.88596 0.59932 0.71474 0.0
O345 O 0.91739 0.6178 0.64288 0.0
O346 O 0.90096 0.63621 0.50322 0.0
O347 O 0.91101 0.58803 0.49452 0.0
O348 O 0.85735 0.56578 0.61402 0.0
O349 O 0.90492 0.5599 0.60256 0.0
O350 O 0.83763 0.60322 0.52105 0.0
O351 O 0.80422 0.59307 0.59536 0.0
H352 H 0.85713 0.56621 0.81644 0.0
H353 H 0.87414 0.56543 0.91745 0.0
H354 H 0.80257 0.62844 0.96274 0.0
H355 H 0.7846 0.62733 0.86233 0.0
H356 H 0.86477 0.64841 0.42025 0.0
H357 H 0.84724 0.64774 0.31975 0.0
H358 H 0.91455 0.57966 0.27842 0.0
H359 H 0.93294 0.58152 0.37877 0.0
Sm360 Sm 0.60338 0.12723 0.48308 0.0
Sm361 Sm 0.60356 0.16946 0.38054 0.0
C362 C 0.61008 0.10162 0.58713 0.0
C363 C 0.61345 0.11306 0.64763 0.0
C364 C 0.62473 0.14232 0.65911 0.0
C365 C 0.62527 0.15381 0.71618 0.0
C366 C 0.61465 0.13626 0.76332 0.0
C367 C 0.60396 0.10668 0.75148 0.0
C368 C 0.60326 0.09532 0.69438 0.0
C369 C 0.54904 0.12897 0.42171 0.0
C370 C 0.59848 0.20021 0.51267 0.0
C371 C 0.59378 0.20273 0.28578 0.0
C372 C 0.59505 0.19499 0.2228 0.0
C373 C 0.58928 0.16509 0.20438 0.0
C374 C 0.58929 0.15759 0.14517 0.0
C375 C 0.59526 0.17971 0.10251 0.0
C376 C 0.60179 0.20957 0.12095 0.0
C377 C 0.60154 0.21716 0.18057 0.0
C378 C 0.66063 0.14893 0.40986 0.0
C379 C 0.61052 0.09624 0.35764 0.0
O380 O 0.63273 0.10617 0.5512 0.0
O381 O 0.5837 0.10657 0.56287 0.0
O382 O 0.56534 0.15164 0.4349 0.0
O383 O 0.56084 0.10424 0.4426 0.0
O384 O 0.59667 0.17215 0.53172 0.0
O385 O 0.60194 0.20591 0.45601 0.0
O386 O 0.57221 0.18939 0.31528 0.0
O387 O 0.61956 0.20308 0.31416 0.0
O388 O 0.6407 0.15775 0.44602 0.0
O389 O 0.65008 0.14988 0.35724 0.0
O390 O 0.59753 0.12157 0.33909 0.0
O391 O 0.62035 0.09395 0.41197 0.0
H392 H 0.63264 0.15656 0.62381 0.0
H393 H 0.63338 0.17676 0.72303 0.0
H394 H 0.59619 0.09213 0.78638 0.0
H395 H 0.59439 0.07271 0.68666 0.0
H396 H 0.5844 0.14746 0.23581 0.0
H397 H 0.58465 0.13431 0.13276 0.0
H398 H 0.60633 0.2272 0.08927 0.0
H399 H 0.60608 0.24038 0.1936 0.0
Sm400 Sm 0.17111 0.39668 0.68108 0.0
Sm401 Sm 0.1263 0.39599 0.58392 0.0
C402 C 0.19975 0.40433 0.78265 0.0
C403 C 0.19245 0.4039 0.84575 0.0
C404 C 0.16457 0.4147 0.86711 0.0
C405 C 0.15823 0.41398 0.92704 0.0
C406 C 0.17956 0.40233 0.9671 0.0
C407 C 0.20739 0.3914 0.94518 0.0
C408 C 0.21373 0.39224 0.88537 0.0
C409 C 0.16107 0.33894 0.63816 0.0
C410 C 0.09696 0.39115 0.70982 0.0
C411 C 0.09817 0.38701 0.48268 0.0
C412 C 0.10593 0.38884 0.41969 0.0
C413 C 0.13301 0.37646 0.39749 0.0
C414 C 0.1397 0.37821 0.33778 0.0
C415 C 0.11943 0.39227 0.29868 0.0
C416 C 0.09246 0.4048 0.32125 0.0
C417 C 0.08584 0.40311 0.38092 0.0
C418 C 0.13313 0.45218 0.63671 0.0
C419 C 0.19969 0.402 0.55083 0.0
O420 O 0.18882 0.42663 0.75165 0.0
O421 O 0.1984 0.37842 0.75523 0.0
O422 O 0.14051 0.35857 0.64679 0.0
O423 O 0.1876 0.35035 0.6495 0.0
O424 O 0.12394 0.40109 0.72692 0.0
O425 O 0.0923 0.38258 0.65542 0.0
O426 O 0.11073 0.36522 0.51303 0.0
O427 O 0.09689 0.41263 0.51137 0.0
O428 O 0.1546 0.43426 0.62359 0.0
O429 O 0.10734 0.44138 0.61855 0.0
O430 O 0.17196 0.39468 0.53422 0.0
O431 O 0.20571 0.40716 0.60668 0.0
H432 H 0.14769 0.4238 0.83754 0.0
H433 H 0.13674 0.423 0.94197 0.0
H434 H 0.22426 0.3818 0.97412 0.0
H435 H 0.23534 0.38366 0.87 0.0
H436 H 0.14898 0.36524 0.42618 0.0
H437 H 0.16047 0.36795 0.32208 0.0
H438 H 0.07647 0.41615 0.2928 0.0
H439 H 0.06488 0.41293 0.39681 0.0
Sm440 Sm 0.40153 0.87334 0.4747 0.0
Sm441 Sm 0.40064 0.82483 0.36882 0.0
C442 C 0.39358 0.8999 0.57729 0.0
C443 C 0.39438 0.8907 0.63964 0.0
C444 C 0.37857 0.86509 0.66035 0.0
C445 C 0.37969 0.85714 0.71963 0.0
C446 C 0.3967 0.87456 0.75968 0.0
C447 C 0.41296 0.89978 0.73822 0.0
C448 C 0.41169 0.90776 0.67922 0.0
C449 C 0.45456 0.86814 0.41142 0.0
C450 C 0.40767 0.79924 0.50444 0.0
C451 C 0.41604 0.79434 0.27326 0.0
C452 C 0.41109 0.79926 0.21019 0.0
C453 C 0.39322 0.82357 0.1905 0.0
C454 C 0.39002 0.82929 0.13072 0.0
C455 C 0.4047 0.81088 0.08912 0.0
C456 C 0.42231 0.78629 0.1093 0.0
C457 C 0.42549 0.78061 0.16914 0.0
C458 C 0.34173 0.84046 0.39815 0.0
C459 C 0.3897 0.89966 0.3462 0.0
O460 O 0.37104 0.88991 0.54508 0.0
O461 O 0.41959 0.89987 0.54974 0.0
O462 O 0.43692 0.84634 0.42483 0.0
O463 O 0.44553 0.8933 0.43553 0.0
O464 O 0.40545 0.82765 0.52223 0.0
O465 O 0.40727 0.79183 0.44806 0.0
O466 O 0.43374 0.81402 0.29895 0.0
O467 O 0.39213 0.78768 0.3046 0.0
O468 O 0.36591 0.84973 0.42186 0.0
O469 O 0.34851 0.82155 0.35692 0.0
O470 O 0.399 0.87291 0.32598 0.0
O471 O 0.38422 0.90472 0.40212 0.0
H472 H 0.36524 0.85124 0.63083 0.0
H473 H 0.36673 0.83768 0.73415 0.0
H474 H 0.42695 0.9134 0.76697 0.0
H475 H 0.42436 0.92739 0.66444 0.0
H476 H 0.38196 0.83832 0.22144 0.0
H477 H 0.3759 0.84812 0.11715 0.0
H478 H 0.43424 0.77177 0.07892 0.0
H479 H 0.43955 0.76185 0.18338 0.0
Sm480 Sm 0.83438 0.89584 0.62523 0.0
Sm481 Sm 0.87763 0.90001 0.72651 0.0
C482 C 0.79868 0.90033 0.53187 0.0
C483 C 0.80564 0.89639 0.46897 0.0
C484 C 0.83335 0.88342 0.4518 0.0
C485 C 0.84063 0.88027 0.39269 0.0
C486 C 0.82048 0.89015 0.34888 0.0
C487 C 0.79276 0.9034 0.36625 0.0
C488 C 0.78542 0.90641 0.42568 0.0
C489 C 0.85847 0.84058 0.65609 0.0
C490 C 0.90806 0.89196 0.60092 0.0
C491 C 0.90219 0.89625 0.83219 0.0
C492 C 0.89029 0.89667 0.8933 0.0
C493 C 0.87591 0.87126 0.91845 0.0
C494 C 0.86446 0.87252 0.97564 0.0
C495 C 0.86689 0.89927 1.00913 0.0
C496 C 0.88142 0.92452 0.98394 0.0
C497 C 0.89304 0.92319 0.92716 0.0
C498 C 0.87452 0.9526 0.66076 0.0
C499 C 0.80536 0.90368 0.75838 0.0
O500 O 0.81132 0.92371 0.55715 0.0
O501 O 0.80024 0.87595 0.56419 0.0
O502 O 0.84887 0.86038 0.69193 0.0
O503 O 0.85664 0.85057 0.60325 0.0
O504 O 0.88166 0.9023 0.58152 0.0
O505 O 0.91155 0.88385 0.65607 0.0
O506 O 0.89669 0.87237 0.79963 0.0
O507 O 0.89985 0.92161 0.80304 0.0
O508 O 0.85206 0.93606 0.67461 0.0
O509 O 0.89934 0.94255 0.68447 0.0
O510 O 0.83344 0.90827 0.77516 0.0
O511 O 0.79902 0.89754 0.70277 0.0
H512 H 0.84952 0.87584 0.48425 0.0
H513 H 0.86237 0.87047 0.38134 0.0
H514 H 0.77658 0.91109 0.33394 0.0
H515 H 0.76398 0.91662 0.43782 0.0
H516 H 0.87331 0.85041 0.89389 0.0
H517 H 0.8532 0.8527 0.99327 0.0
H518 H 0.88418 0.94537 1.00845 0.0
H519 H 0.90417 0.94312 0.9096 0.0
Sm520 Sm 0.89881 0.12996 0.33339 0.0
Sm521 Sm 0.89735 0.17571 0.43166 0.0
C522 C 0.89092 0.10124 0.23259 0.0
C523 C 0.89201 0.10895 0.1696 0.0
C524 C 0.87782 0.1351 0.1473 0.0
C525 C 0.87902 0.14176 0.08754 0.0
C526 C 0.89443 0.12244 0.04855 0.0
C527 C 0.90884 0.09646 0.07133 0.0
C528 C 0.9076 0.08982 0.13099 0.0
C529 C 0.95374 0.13741 0.38936 0.0
C530 C 0.90397 0.20348 0.30093 0.0
C531 C 0.90475 0.20401 0.53335 0.0
C532 C 0.90343 0.19619 0.59624 0.0
C533 C 0.91863 0.17071 0.61894 0.0
C534 C 0.91733 0.16405 0.67866 0.0
C535 C 0.90093 0.18277 0.71719 0.0
C536 C 0.88554 0.20807 0.69408 0.0
C537 C 0.88677 0.21465 0.63442 0.0
C538 C 0.8407 0.16371 0.38519 0.0
C539 C 0.89197 0.10149 0.46103 0.0
O540 O 0.86857 0.11257 0.26324 0.0
O541 O 0.91675 0.10152 0.26073 0.0
O542 O 0.93569 0.15879 0.37607 0.0
O543 O 0.94389 0.11163 0.36926 0.0
O544 O 0.89737 0.17563 0.28397 0.0
O545 O 0.9082 0.2098 0.35694 0.0
O546 O 0.92708 0.19271 0.50296 0.0
O547 O 0.87911 0.20382 0.50472 0.0
O548 O 0.8611 0.14413 0.39472 0.0
O549 O 0.84996 0.19046 0.40111 0.0
O550 O 0.89984 0.12902 0.47886 0.0
O551 O 0.88595 0.09605 0.40551 0.0
H552 H 0.86566 0.15037 0.17596 0.0
H553 H 0.86736 0.16178 0.07181 0.0
H554 H 0.92137 0.08128 0.04311 0.0
H555 H 0.91887 0.06963 0.14702 0.0
H556 H 0.9317 0.15602 0.59065 0.0
H557 H 0.92969 0.14454 0.6948 0.0
H558 H 0.87225 0.2227 0.7221 0.0
H559 H 0.87467 0.23427 0.61802 0.0
Sm560 Sm 0.16792 0.10052 0.63717 0.0
Sm561 Sm 0.12281 0.10617 0.7317 0.0
C562 C 0.19448 0.09062 0.53477 0.0
C563 C 0.18297 0.09079 0.47393 0.0
C564 C 0.19533 0.0713 0.43178 0.0
C565 C 0.18449 0.0717 0.37414 0.0
C566 C 0.16106 0.09172 0.35724 0.0
C567 C 0.14883 0.11118 0.39999 0.0
C568 C 0.15948 0.11058 0.45746 0.0
C569 C 0.1657 0.15836 0.68252 0.0
C570 C 0.09516 0.11485 0.6064 0.0
C571 C 0.0967 0.11639 0.83434 0.0
C572 C 0.10587 0.11036 0.89554 0.0
C573 C 0.09484 0.12863 0.94092 0.0
C574 C 0.10422 0.12372 0.99866 0.0
C575 C 0.12494 0.1004 1.01252 0.0
C576 C 0.13577 0.08203 0.96669 0.0
C577 C 0.1264 0.08698 0.90903 0.0
C578 C 0.12378 0.04929 0.6805 0.0
C579 C 0.19506 0.0937 0.76706 0.0
O580 O 0.18499 0.06873 0.56846 0.0
O581 O 0.19476 0.11679 0.56149 0.0
O582 O 0.14244 0.14232 0.67106 0.0
O583 O 0.19045 0.14327 0.67269 0.0
O584 O 0.12066 0.10115 0.59103 0.0
O585 O 0.09126 0.12451 0.66025 0.0
O586 O 0.11253 0.13687 0.80652 0.0
O587 O 0.09074 0.09269 0.80194 0.0
O588 O 0.14711 0.06477 0.69361 0.0
O589 O 0.09919 0.06284 0.69732 0.0
O590 O 0.1682 0.10418 0.78196 0.0
O591 O 0.20081 0.08659 0.71201 0.0
H592 H 0.21338 0.05575 0.44343 0.0
H593 H 0.19429 0.05603 0.34308 0.0
H594 H 0.13125 0.12736 0.38905 0.0
H595 H 0.14943 0.12586 0.489 0.0
H596 H 0.07919 0.14695 0.93161 0.0
H597 H 0.09572 0.13873 0.03224 0.0
H598 H 0.15145 0.06364 0.97524 0.0
H599 H 0.1354 0.07261 0.87485 0.0
Sm600 Sm 0.10385 0.88253 0.32175 0.0
Sm601 Sm 0.10294 0.83746 0.42852 0.0
C602 C 0.1124 0.90934 0.21992 0.0
C603 C 0.11512 0.89841 0.15935 0.0
C604 C 0.12701 0.86953 0.14701 0.0
C605 C 0.12714 0.85838 0.08989 0.0
C606 C 0.11543 0.87592 0.0438 0.0
C607 C 0.10429 0.90519 0.05637 0.0
C608 C 0.10403 0.91623 0.11355 0.0
C609 C 0.04957 0.87722 0.38122 0.0
C610 C 0.09996 0.80815 0.29483 0.0
C611 C 0.08371 0.8112 0.5254 0.0
C612 C 0.08676 0.81874 0.58801 0.0
C613 C 0.08267 0.84879 0.60727 0.0
C614 C 0.08386 0.85583 0.66647 0.0
C615 C 0.08944 0.83311 0.70798 0.0
C616 C 0.09452 0.80318 0.68879 0.0
C617 C 0.093 0.79603 0.62922 0.0
C618 C 0.16281 0.85002 0.40306 0.0
C619 C 0.11533 0.91235 0.44801 0.0
O620 O 0.13465 0.90249 0.2555 0.0
O621 O 0.0856 0.90609 0.24364 0.0
O622 O 0.06734 0.85569 0.36797 0.0
O623 O 0.05982 0.9028 0.36081 0.0
O624 O 0.10294 0.83618 0.27541 0.0
O625 O 0.09836 0.80214 0.35179 0.0
O626 O 0.06745 0.83016 0.49471 0.0
O627 O 0.10817 0.80217 0.49799 0.0
O628 O 0.13985 0.86041 0.37645 0.0
O629 O 0.15425 0.83209 0.44462 0.0
O630 O 0.10522 0.88632 0.4704 0.0
O631 O 0.12065 0.91533 0.39165 0.0
H632 H 0.1357 0.85531 0.18167 0.0
H633 H 0.13571 0.8357 0.0822 0.0
H634 H 0.09573 0.91968 1.02201 0.0
H635 H 0.09479 0.93859 0.12211 0.0
H636 H 0.07809 0.8669 0.57664 0.0
H637 H 0.08033 0.87916 0.67987 0.0
H638 H 0.09881 0.78522 0.71992 0.0
H639 H 0.09627 0.77275 0.61539 0.0
H640 H 0.34225 0.93582 0.31187 0.0
H641 H 0.43843 0.92223 0.2904 0.0
H642 H 0.44121 0.96572 0.22474 0.0
H643 H 0.41656 0.00829 0.17424 0.0
H644 H 0.31975 0.02015 0.18875 0.0
H645 H 0.31685 0.97708 0.25592 0.0
C646 C 0.36372 0.94247 0.29259 0.0
C647 C 0.39013 0.92584 0.30578 0.0
C648 C 0.36503 0.96732 0.2537 0.0
C649 C 0.41779 0.93447 0.28035 0.0
C650 C 0.41941 0.95945 0.24298 0.0
C651 C 0.39479 1.00136 0.19186 0.0
C652 C 0.36849 0.01783 0.17732 0.0
C653 C 0.39321 0.97608 0.22933 0.0
C654 C 0.34044 0.0083 0.20014 0.0
C655 C 0.33875 0.98355 0.23841 0.0
H656 H 0.949 0.65692 0.73281 0.0
H657 H 0.93314 0.56133 0.75851 0.0
H658 H 0.97465 0.55926 0.82948 0.0
H659 H 0.01577 0.58446 0.88402 0.0
H660 H 0.02795 0.68118 0.86827 0.0
H661 H 0.98786 0.68312 0.79413 0.0
C662 C 0.95484 0.63568 0.75385 0.0
C663 C 0.93839 0.60917 0.73976 0.0
C664 C 0.9781 0.63491 0.79651 0.0
C665 C 0.94565 0.58193 0.7683 0.0
C666 C 0.96935 0.58077 0.80896 0.0
C667 C 0.00958 0.60603 0.86465 0.0
C668 C 0.02555 0.63255 0.88068 0.0
C669 C 0.98575 0.60709 0.8235 0.0
C670 C 0.01674 0.6603 0.85564 0.0
C671 C 0.99365 0.66143 0.81339 0.0
H672 H 0.58685 0.98615 0.18588 0.0
H673 H 0.6846 0.98205 0.18834 0.0
H674 H 0.68619 0.02432 0.25807 0.0
H675 H 0.65936 0.06292 0.3191 0.0
H676 H 0.56199 0.06997 0.30647 0.0
H677 H 0.5606 0.0264 0.24029 0.0
C678 C 0.60857 0.99451 0.20147 0.0
C679 C 0.63557 0.98021 0.18305 0.0
C680 C 0.6093 0.01947 0.24008 0.0
C681 C 0.66343 0.99194 0.20295 0.0
C682 C 0.66434 0.01626 0.24271 0.0
C683 C 0.6379 0.0547 0.30201 0.0
C684 C 0.61071 0.06933 0.3184 0.0
C685 C 0.63738 0.03014 0.262 0.0
C686 C 0.58313 0.05894 0.2949 0.0
C687 C 0.58235 0.03405 0.25694 0.0
H688 H 0.99263 0.42217 0.88975 0.0
H689 H 0.97577 0.32613 0.87373 0.0
H690 H 0.01701 0.3218 0.8027 0.0
H691 H 0.0581 0.34571 0.74378 0.0
H692 H 0.07852 0.44044 0.76999 0.0
H693 H 0.03607 0.44494 0.83817 0.0
C694 C 0.99803 0.40024 0.87093 0.0
C695 C 0.98041 0.37466 0.88587 0.0
C696 C 0.02256 0.39775 0.83168 0.0
C697 C 0.98825 0.34636 0.8618 0.0
C698 C 0.01202 0.34385 0.82134 0.0
C699 C 0.0531 0.36729 0.76443 0.0
C700 C 0.07114 0.39284 0.75133 0.0
C701 C 0.02921 0.36945 0.80546 0.0
C702 C 0.06487 0.42052 0.77922 0.0
C703 C 0.0406 0.4231 0.81822 0.0
H704 H 0.39086 0.50782 0.17694 0.0
H705 H 0.35626 0.44482 0.05005 0.0
H706 H 0.35666 0.48451 0.97545 0.0
H707 H 0.36825 0.53725 0.94539 0.0
H708 H 0.40378 0.59991 0.0733 0.0
H709 H 0.40153 0.5607 0.14759 0.0
C710 C 0.38292 0.503 0.13315 0.0
C711 C 0.37228 0.47369 0.11963 0.0
C712 C 0.38357 0.52599 0.09031 0.0
C713 C 0.36289 0.46753 0.06237 0.0
C714 C 0.36362 0.49016 1.01943 0.0
C715 C 0.37536 0.5424 0.98953 0.0
C716 C 0.38625 0.57173 1.00314 0.0
C717 C 0.37395 0.51955 0.03278 0.0
C718 C 0.39535 0.57772 0.06093 0.0
C719 C 0.39408 0.55522 0.10381 0.0
H720 H 0.57748 0.59018 1.00987 0.0
H721 H 0.5507 0.66416 0.12171 0.0
H722 H 0.50635 0.67376 0.06008 0.0
H723 H 0.47395 0.65978 0.97603 0.0
H724 H 0.49799 0.58262 0.87078 0.0
H725 H 0.54471 0.57596 0.92697 0.0
C726 C 0.56211 0.6086 1.02047 0.0
C727 C 0.5676 0.62649 0.07035 0.0
C728 C 0.53612 0.61349 0.98564 0.0
C729 C 0.54708 0.64996 0.08377 0.0
C730 C 0.5217 0.65552 0.0484 0.0
C731 C 0.48952 0.64181 0.96507 0.0
C732 C 0.48249 0.62198 0.91887 0.0
C733 C 0.51581 0.6373 0.99941 0.0
C734 C 0.50286 0.59835 0.9059 0.0
C735 C 0.52958 0.59444 0.9382 0.0
H736 H 0.66226 0.52135 0.114 0.0
H737 H 0.5675 0.52156 0.16112 0.0
H738 H 0.55827 0.47816 0.09792 0.0
H739 H 0.57614 0.44109 1.02534 0.0
H740 H 0.66869 0.44521 0.9657 0.0
H741 H 0.67946 0.48641 0.03498 0.0
C742 C 0.63947 0.51246 0.1092 0.0
C743 C 0.61553 0.5255 0.14144 0.0
C744 C 0.63381 0.48824 0.06983 0.0
C745 C 0.58642 0.51242 0.13666 0.0
C746 C 0.58101 0.48753 0.10022 0.0
C747 C 0.59866 0.45106 1.02755 0.0
C748 C 0.6216 0.44005 0.99056 0.0
C749 C 0.60437 0.47546 0.06599 0.0
C750 C 0.65059 0.45341 0.99346 0.0
C751 C 0.65678 0.47688 0.03332 0.0
H752 H 0.43115 0.42266 1.02323 0.0
H753 H 0.44454 0.33362 0.09605 0.0
H754 H 0.4873 0.32482 0.02982 0.0
H755 H 0.52171 0.343 0.95172 0.0
H756 H 0.51302 0.43503 0.89059 0.0
H757 H 0.46744 0.44182 0.94957 0.0
C758 C 0.44338 0.4013 1.02422 0.0
C759 C 0.43453 0.37869 0.06409 0.0
C760 C 0.46883 0.39691 0.98767 0.0
C761 C 0.45089 0.35132 0.06568 0.0
C762 C 0.47533 0.34628 1.02772 0.0
C763 C 0.51018 0.36465 0.95203 0.0
C764 C 0.52125 0.38856 0.9172 0.0
C765 C 0.48472 0.369 0.98874 0.0
C766 C 0.50525 0.41622 0.91704 0.0
C767 C 0.47914 0.42019 0.95098 0.0
H768 H 0.9068 0.42323 0.74821 0.0
H769 H 0.85211 0.46494 0.88193 0.0
H770 H 0.84253 0.50838 0.81888 0.0
H771 H 0.85219 0.5362 0.72773 0.0
H772 H 0.90982 0.49702 0.59706 0.0
H773 H 0.91562 0.45103 0.65603 0.0
C774 C 0.89262 0.44172 0.76337 0.0
C775 C 0.88028 0.44069 0.81997 0.0
C776 C 0.88768 0.46718 0.72714 0.0
C777 C 0.86214 0.46509 0.83889 0.0
C778 C 0.85655 0.49001 0.80273 0.0
C779 C 0.86524 0.51733 0.71162 0.0
C780 C 0.87986 0.51982 0.65756 0.0
C781 C 0.86942 0.49149 0.74698 0.0
C782 C 0.89794 0.49552 0.63825 0.0
C783 C 0.90142 0.46928 0.67213 0.0
H784 H 0.51406 0.08137 0.38528 0.0
H785 H 0.52276 0.17849 0.37003 0.0
H786 H 0.48122 0.17947 0.2991 0.0
H787 H 0.44169 0.15254 0.24124 0.0
H788 H 0.42929 0.05638 0.26599 0.0
H789 H 0.4726 0.0551 0.33302 0.0
C790 C 0.50682 0.10278 0.36658 0.0
C791 C 0.52218 0.12975 0.38189 0.0
C792 C 0.48211 0.10328 0.32727 0.0
C793 C 0.51207 0.15729 0.3578 0.0
C794 C 0.4881 0.15788 0.31745 0.0
C795 C 0.44868 0.13134 0.26114 0.0
C796 C 0.43261 0.10449 0.24811 0.0
C797 C 0.473 0.13099 0.30151 0.0
C798 C 0.44142 0.07728 0.27515 0.0
C799 C 0.46617 0.07656 0.31354 0.0
H800 H 0.16096 0.55775 0.81924 0.0
H801 H 0.06663 0.57702 0.78574 0.0
H802 H 0.06396 0.53442 0.71736 0.0
H803 H 0.08813 0.49113 0.6679 0.0
H804 H 0.18391 0.4753 0.69103 0.0
H805 H 0.18647 0.51682 0.76216 0.0
C806 C 0.13988 0.55249 0.79692 0.0
C807 C 0.11389 0.57026 0.80805 0.0
C808 C 0.1388 0.52851 0.75578 0.0
C809 C 0.08686 0.56361 0.77805 0.0
C810 C 0.08534 0.53925 0.73893 0.0
C811 C 0.10964 0.49684 0.68821 0.0
C812 C 0.13565 0.47944 0.67526 0.0
C813 C 0.11112 0.52149 0.72747 0.0
C814 C 0.16337 0.48763 0.70137 0.0
C815 C 0.16486 0.51155 0.74187 0.0
H816 H 0.54377 0.87608 0.19562 0.0
H817 H 0.60992 0.88431 0.33361 0.0
H818 H 0.57006 0.87754 0.40626 0.0
H819 H 0.51553 0.87121 0.4314 0.0
H820 H 0.44998 0.867 0.29251 0.0
H821 H 0.48991 0.86971 0.22054 0.0
C822 C 0.54958 0.87614 0.24153 0.0
C823 C 0.57998 0.88072 0.25868 0.0
C824 C 0.52643 0.87262 0.28344 0.0
C825 C 0.58681 0.88097 0.3187 0.0
C826 C 0.56396 0.87705 0.36052 0.0
C827 C 0.51013 0.87029 0.38534 0.0
C828 C 0.4796 0.86717 0.36779 0.0
C829 C 0.53358 0.87308 0.34352 0.0
C830 C 0.47302 0.8674 0.3079 0.0
C831 C 0.49605 0.86956 0.26628 0.0
H832 H 0.89312 0.01093 0.67665 0.0
H833 H 0.858 0.95024 0.54612 0.0
H834 H 0.85914 0.99041 0.47383 0.0
H835 H 0.87152 0.04304 0.44614 0.0
H836 H 0.90797 0.10394 0.57608 0.0
H837 H 0.90524 0.06395 0.64908 0.0
C838 C 0.88535 0.00671 0.63252 0.0
C839 C 0.87403 0.97782 0.6177 0.0
C840 C 0.88671 0.03011 0.59051 0.0
C841 C 0.86489 0.97251 0.55996 0.0
C842 C 0.8662 0.99549 0.51803 0.0
C843 C 0.87885 0.04762 0.49039 0.0
C844 C 0.88996 0.07665 0.50514 0.0
C845 C 0.87709 0.02443 0.53269 0.0
C846 C 0.89927 0.08197 0.56303 0.0
C847 C 0.89774 0.05902 0.60509 0.0
H848 H 0.05743 0.16243 0.57735 0.0
H849 H 0.07636 0.06848 0.539 0.0
H850 H 0.03472 0.06727 0.46873 0.0
H851 H 0.99236 0.09233 0.41923 0.0
H852 H 0.97644 0.18775 0.44674 0.0
H853 H 0.01719 0.18912 0.51984 0.0
C854 C 0.05226 0.14176 0.55362 0.0
C855 C 0.06969 0.11543 0.56392 0.0
C856 C 0.02876 0.1415 0.5114 0.0
C857 C 0.06322 0.08896 0.53202 0.0
C858 C 0.0394 0.08825 0.4918 0.0
C859 C 0.99783 0.11352 0.44095 0.0
C860 C 0.98058 0.1397 0.42888 0.0
C861 C 0.02198 0.11432 0.4812 0.0
C862 C 0.98856 0.16704 0.45665 0.0
C863 C 0.01205 0.16784 0.49819 0.0
H864 H 0.10658 0.91861 0.56712 0.0
H865 H 0.13447 0.9686 0.41444 0.0
H866 H 0.14052 0.01433 0.47249 0.0
H867 H 0.13561 0.0414 0.56556 0.0
H868 H 0.10853 0.99282 0.71922 0.0
H869 H 0.1039 0.94575 0.66221 0.0
C870 C 0.11413 0.93942 0.54656 0.0
C871 C 0.11994 0.93977 0.486 0.0
C872 C 0.11767 0.96612 0.58053 0.0
C873 C 0.12971 0.96724 0.46062 0.0
C874 C 0.13321 0.99364 0.49387 0.0
C875 C 0.12988 0.0203 0.58696 0.0
C876 C 0.12365 0.02036 0.64697 0.0
C877 C 0.12715 0.99345 0.55375 0.0
C878 C 0.11412 0.99319 0.6733 0.0
C879 C 0.11137 0.9663 0.6406 0.0
H880 H 0.01704 0.92299 0.43131 0.0
H881 H 0.02085 0.82545 0.41838 0.0
H882 H 0.97884 0.82099 0.48774 0.0
H883 H 0.94066 0.84506 0.55319 0.0
H884 H 0.93442 0.9426 0.55876 0.0
H885 H 0.97742 0.9469 0.49173 0.0
C886 C 0.00861 0.90074 0.44345 0.0
C887 C 0.02263 0.87456 0.42048 0.0
C888 C 0.98396 0.89839 0.48253 0.0
C889 C 0.01098 0.84597 0.43619 0.0
C890 C 0.98687 0.84341 0.47586 0.0
C891 C 0.94896 0.86718 0.5399 0.0
C892 C 0.93477 0.89353 0.56159 0.0
C893 C 0.97326 0.86945 0.49975 0.0
C894 C 0.94521 0.92206 0.54308 0.0
C895 C 0.96975 0.9245 0.50461 0.0
H896 H 0.37813 0.19944 0.23338 0.0
H897 H 0.33078 0.18922 0.06996 0.0
H898 H 0.32372 0.24431 0.06451 0.0
H899 H 0.32787 0.29504 0.1098 0.0
H900 H 0.37739 0.30583 0.27044 0.0
H901 H 0.38669 0.25082 0.27382 0.0
C902 C 0.36663 0.20935 0.19617 0.0
C903 C 0.35477 0.19026 0.15232 0.0
C904 C 0.36269 0.24105 0.1934 0.0
C905 C 0.34016 0.20339 0.10415 0.0
C906 C 0.33592 0.23487 0.10129 0.0
C907 C 0.3407 0.28525 0.14552 0.0
C908 C 0.35145 0.30418 0.19054 0.0
C909 C 0.34648 0.25383 0.14629 0.0
C910 C 0.36866 0.29154 0.2358 0.0
C911 C 0.37398 0.26016 0.23759 0.0
H912 H 0.30355 0.62233 0.90869 0.0
H913 H 0.30971 0.71323 0.83963 0.0
H914 H 0.25515 0.71971 0.85056 0.0
H915 H 0.20613 0.70104 0.88368 0.0
H916 H 0.19756 0.60978 0.94923 0.0
H917 H 0.25249 0.60207 0.93658 0.0
C918 C 0.2928 0.64329 0.89509 0.0
C919 C 0.31079 0.66733 0.87347 0.0
C920 C 0.26106 0.64705 0.90196 0.0
C921 C 0.29649 0.69443 0.85648 0.0
C922 C 0.26526 0.69825 0.86303 0.0
C923 C 0.2162 0.67945 0.89559 0.0
C924 C 0.19778 0.65617 0.91827 0.0
C925 C 0.24744 0.675 0.88673 0.0
C926 C 0.21127 0.62819 0.93229 0.0
C927 C 0.24266 0.62375 0.92474 0.0
H928 H 0.65911 0.79691 0.24206 0.0
H929 H 0.65528 0.81457 0.05768 0.0
H930 H 0.65132 0.75983 0.03823 0.0
H931 H 0.65409 0.70686 0.07396 0.0
H932 H 0.65383 0.6894 0.25857 0.0
H933 H 0.65388 0.74424 0.27812 0.0
C934 C 0.65689 0.78872 0.19767 0.0
C935 C 0.6578 0.80957 0.1512 0.0
C936 C 0.65408 0.75735 0.18711 0.0
C937 C 0.65456 0.79889 0.09399 0.0
C938 C 0.6525 0.76762 0.08297 0.0
C939 C 0.65356 0.71515 0.11846 0.0
C940 C 0.65432 0.69426 0.1649 0.0
C941 C 0.65301 0.74663 0.12915 0.0
C942 C 0.65322 0.7051 0.22229 0.0
C943 C 0.65343 0.73642 0.23336 0.0
H944 H 0.79843 0.32974 0.85829 0.0
H945 H 0.80897 0.38582 1.01087 0.0
H946 H 0.75396 0.39508 1.0126 0.0
H947 H 0.70264 0.3849 0.97324 0.0
H948 H 0.69264 0.3315 0.81689 0.0
H949 H 0.74776 0.32391 0.81322 0.0
C950 C 0.78861 0.34397 0.89192 0.0
C951 C 0.80751 0.35662 0.93523 0.0
C952 C 0.75717 0.3498 0.89156 0.0
C953 C 0.79475 0.37564 0.97761 0.0
C954 C 0.76336 0.38093 0.97847 0.0
C955 C 0.71263 0.37194 0.93793 0.0
C956 C 0.69361 0.35858 0.89557 0.0
C957 C 0.74432 0.36785 0.93602 0.0
C958 C 0.70678 0.34208 0.8498 0.0
C959 C 0.73827 0.33755 0.84802 0.0
H960 H 0.82574 0.70292 0.69613 0.0
H961 H 0.88742 0.69246 0.55204 0.0
H962 H 0.89809 0.74714 0.55359 0.0
H963 H 0.88753 0.79823 0.59257 0.0
H964 H 0.82807 0.80851 0.74021 0.0
H965 H 0.81943 0.75348 0.74189 0.0
C966 C 0.84144 0.71271 0.66501 0.0
C967 C 0.85529 0.69393 0.62301 0.0
C968 C 0.84811 0.74399 0.66742 0.0
C969 C 0.87624 0.7066 0.58409 0.0
C970 C 0.88239 0.7378 0.58517 0.0
C971 C 0.87315 0.7883 0.62584 0.0
C972 C 0.85839 0.80737 0.66614 0.0
C973 C 0.86823 0.75674 0.62627 0.0
C974 C 0.83988 0.7943 0.70909 0.0
C975 C 0.83467 0.76287 0.70957 0.0
H976 H 0.79726 0.18383 0.45919 0.0
H977 H 0.81114 0.12536 0.31108 0.0
H978 H 0.7566 0.11386 0.30807 0.0
H979 H 0.70457 0.12284 0.34459 0.0
H980 H 0.69125 0.17868 0.49676 0.0
H981 H 0.746 0.18834 0.50214 0.0
C982 C 0.78826 0.16857 0.42627 0.0
C983 C 0.80798 0.1559 0.38454 0.0
C984 C 0.75707 0.16144 0.42598 0.0
C985 C 0.7963 0.13558 0.34312 0.0
C986 C 0.76515 0.129 0.34153 0.0
C987 C 0.71377 0.13673 0.37948 0.0
C988 C 0.69388 0.15018 0.42005 0.0
C989 C 0.74528 0.14207 0.38236 0.0
C990 C 0.70606 0.16796 0.46523 0.0
C991 C 0.73734 0.1737 0.46796 0.0
H992 H 0.20099 0.29665 0.67524 0.0
H993 H 0.10909 0.30632 0.61329 0.0
H994 H 0.10105 0.25131 0.62471 0.0
H995 H 0.12121 0.19981 0.65066 0.0
H996 H 0.21286 0.19282 0.71625 0.0
H997 H 0.21963 0.24735 0.70623 0.0
C998 C 0.17917 0.28683 0.6639 0.0
C999 C 0.1558 0.30559 0.64263 0.0
C1000 C 0.17456 0.25555 0.67199 0.0
C1001 C 0.12756 0.29237 0.62922 0.0
C1002 C 0.12294 0.26092 0.63603 0.0
C1003 C 0.14242 0.21038 0.66365 0.0
C1004 C 0.16656 0.19213 0.68405 0.0
C1005 C 0.14633 0.24218 0.65742 0.0
C1006 C 0.19396 0.2062 0.70027 0.0
C1007 C 0.19794 0.23744 0.69429 0.0
H1008 H 0.29827 0.85076 0.31805 0.0
H1009 H 0.31454 0.85189 0.50313 0.0
H1010 H 0.25984 0.8579 0.52073 0.0
H1011 H 0.20718 0.85624 0.48304 0.0
H1012 H 0.19107 0.85779 0.29791 0.0
H1013 H 0.2461 0.85778 0.28028 0.0
C1014 C 0.28984 0.85296 0.36222 0.0
C1015 C 0.31024 0.85057 0.4094 0.0
C1016 C 0.25849 0.85666 0.37172 0.0
C1017 C 0.29924 0.85376 0.46631 0.0
C1018 C 0.26797 0.85696 0.47625 0.0
C1019 C 0.21578 0.85723 0.43884 0.0
C1020 C 0.19521 0.8567 0.39168 0.0
C1021 C 0.24735 0.85747 0.4293 0.0
C1022 C 0.20649 0.85828 0.33472 0.0
C1023 C 0.23792 0.85804 0.32476 0.0
H1024 H 0.18953 0.1099 0.88177 0.0
H1025 H 0.25383 0.07169 0.76037 0.0
H1026 H 0.29142 0.06757 0.83894 0.0
H1027 H 0.30613 0.0751 0.94181 0.0
H1028 H 0.24212 0.11424 0.06261 0.0
H1029 H 0.20447 0.118 0.98393 0.0
C1030 C 0.21168 0.10047 0.87212 0.0
C1031 C 0.21853 0.09091 0.81454 0.0
C1032 C 0.23324 0.09822 0.91764 0.0
C1033 C 0.24765 0.07911 0.80374 0.0
C1034 C 0.26918 0.07672 0.84888 0.0
C1035 C 0.28384 0.0842 0.95148 0.0
C1036 C 0.27714 0.09428 1.00884 0.0
C1037 C 0.26221 0.08615 0.90602 0.0
C1038 C 0.24799 0.10591 1.01968 0.0
C1039 C 0.22643 0.10809 0.97453 0.0
H1040 H 0.10425 0.69149 0.1288 0.0
H1041 H 0.09178 0.76011 0.99693 0.0
H1042 H 0.0895 0.79919 0.07282 0.0
H1043 H 0.09222 0.81425 0.17656 0.0
H1044 H 0.10495 0.74578 0.30863 0.0
H1045 H 0.1058 0.7065 0.2327 0.0
C1046 C 0.10113 0.71498 0.11628 0.0
C1047 C 0.09839 0.72254 0.05632 0.0
C1048 C 0.09992 0.73751 0.1605 0.0
C1049 C 0.094 0.75329 0.04204 0.0
C1050 C 0.09278 0.77576 0.0857 0.0
C1051 C 0.09533 0.79077 0.1892 0.0
C1052 C 0.09879 0.78334 0.24913 0.0
C1053 C 0.09592 0.7682 0.14509 0.0
C1054 C 0.1022 0.7525 0.26359 0.0
C1055 C 0.1028 0.72995 0.21994 0.0
H1056 H 0.69349 0.89921 0.93505 0.0
H1057 H 0.7656 0.91423 0.05971 0.0
H1058 H 0.80242 0.9157 0.97971 0.0
H1059 H 0.81444 0.91209 0.87542 0.0
H1060 H 0.74269 0.89633 0.75039 0.0
H1061 H 0.70555 0.89585 0.83009 0.0
C1062 C 0.71725 0.9029 0.94529 0.0
C1063 C 0.72647 0.90667 1.00437 0.0
C1064 C 0.73844 0.90358 0.89889 0.0
C1065 C 0.75755 0.91129 1.01547 0.0
C1066 C 0.77868 0.9121 0.96952 0.0
C1067 C 0.79066 0.90869 0.86493 0.0
C1068 C 0.78163 0.90439 0.80592 0.0
C1069 C 0.76942 0.90822 0.91114 0.0
C1070 C 0.75057 0.89984 0.7946 0.0
C1071 C 0.72927 0.89951 0.84043 0.0
H1072 H 0.90921 0.31898 0.13398 0.0
H1073 H 0.90369 0.24933 1.00208 0.0
H1074 H 0.90383 0.21031 0.07831 0.0
H1075 H 0.90374 0.19591 0.1822 0.0
H1076 H 0.90946 0.26562 0.31406 0.0
H1077 H 0.91117 0.3045 0.23794 0.0
C1078 C 0.90793 0.29529 0.12154 0.0
C1079 C 0.90612 0.28736 0.06168 0.0
C1080 C 0.90794 0.2729 0.16575 0.0
C1081 C 0.90508 0.25634 0.04722 0.0
C1082 C 0.90503 0.23397 0.09097 0.0
C1083 C 0.90525 0.2196 0.19465 0.0
C1084 C 0.90618 0.22758 0.25455 0.0
C1085 C 0.90613 0.24196 0.15039 0.0
C1086 C 0.9086 0.25855 0.2689 0.0
C1087 C 0.90947 0.28088 0.22515 0.0
H1088 H 0.31494 0.40206 0.382 0.0
H1089 H 0.24436 0.40309 0.25127 0.0
H1090 H 0.20587 0.40465 0.3283 0.0
H1091 H 0.1919 0.40426 0.43233 0.0
H1092 H 0.26228 0.40374 0.56326 0.0
H1093 H 0.30096 0.40377 0.48639 0.0
C1094 C 0.29114 0.40264 0.36991 0.0
C1095 C 0.28283 0.40229 0.31001 0.0
C1096 C 0.26896 0.40354 0.41464 0.0
C1097 C 0.25171 0.4033 0.29629 0.0
C1098 C 0.2296 0.40409 0.34051 0.0
C1099 C 0.21568 0.40403 0.44444 0.0
C1100 C 0.22387 0.40371 0.50428 0.0
C1101 C 0.2379 0.40396 0.39981 0.0
C1102 C 0.25501 0.40397 0.51818 0.0
C1103 C 0.27722 0.40384 0.47402 0.0
H1104 H 0.40933 0.68621 0.67779 0.0
H1105 H 0.41825 0.75794 0.80483 0.0
H1106 H 0.41921 0.79553 0.72601 0.0
H1107 H 0.41501 0.80826 0.6219 0.0
H1108 H 0.40627 0.73654 0.4945 0.0
H1109 H 0.40794 0.69882 0.57279 0.0
C1110 C 0.41141 0.71006 0.68864 0.0
C1111 C 0.41328 0.71904 0.74799 0.0
C1112 C 0.41177 0.73161 0.64293 0.0
C1113 C 0.41657 0.75016 0.76022 0.0
C1114 C 0.41698 0.77171 0.71499 0.0
C1115 C 0.41341 0.78439 0.61079 0.0
C1116 C 0.41024 0.77553 0.55155 0.0
C1117 C 0.41417 0.76275 0.65627 0.0
C1118 C 0.40861 0.7443 0.53906 0.0
C1119 C 0.40941 0.72265 0.5841 0.0
H1120 H 0.69141 0.59471 0.37981 0.0
H1121 H 0.7583 0.58764 0.2433 0.0
H1122 H 0.79863 0.58547 0.31738 0.0
H1123 H 0.81547 0.59048 0.42004 0.0
H1124 H 0.74807 0.59659 0.55585 0.0
H1125 H 0.70775 0.59536 0.48243 0.0
C1126 C 0.71479 0.59311 0.36562 0.0
C1127 C 0.72147 0.59196 0.30513 0.0
C1128 C 0.73801 0.59257 0.40836 0.0
C1129 C 0.75213 0.58894 0.28887 0.0
C1130 C 0.77532 0.58806 0.33129 0.0
C1131 C 0.79195 0.59149 0.43384 0.0
C1132 C 0.7851 0.59393 0.49409 0.0
C1133 C 0.76863 0.59062 0.39109 0.0
C1134 C 0.75432 0.59481 0.51037 0.0
C1135 C 0.73114 0.59424 0.46817 0.0
H1136 H 0.5855 0.195 0.62947 0.0
H1137 H 0.61079 0.26154 0.50034 0.0
H1138 H 0.61306 0.30056 0.57666 0.0
H1139 H 0.60692 0.31624 0.67879 0.0
H1140 H 0.58361 0.24964 0.80909 0.0
H1141 H 0.58119 0.21037 0.73313 0.0
C1142 C 0.59137 0.21805 0.61749 0.0
C1143 C 0.59784 0.22504 0.55825 0.0
C1144 C 0.5926 0.24052 0.66178 0.0
C1145 C 0.60533 0.25525 0.54469 0.0
C1146 C 0.60659 0.27766 0.58849 0.0
C1147 C 0.60114 0.29318 0.69103 0.0
C1148 C 0.59511 0.28626 0.75037 0.0
C1149 C 0.6001 0.27063 0.64703 0.0
C1150 C 0.58822 0.25594 0.7644 0.0
C1151 C 0.5868 0.23343 0.72069 0.0
H1152 H 0.36056 0.12727 0.52418 0.0
H1153 H 0.27961 0.07436 0.55533 0.0
H1154 H 0.2897 0.07552 0.6599 0.0
H1155 H 0.32309 0.08928 0.74303 0.0
H1156 H 0.40472 0.14074 0.71017 0.0
H1157 H 0.3931 0.14169 0.60637 0.0
C1158 C 0.34518 0.11567 0.55352 0.0
C1159 C 0.31938 0.1006 0.53097 0.0
C1160 C 0.35141 0.1159 0.61382 0.0
C1161 C 0.29948 0.08648 0.57069 0.0
C1162 C 0.30537 0.08691 0.63081 0.0
C1163 C 0.33819 0.10094 0.71325 0.0
C1164 C 0.36498 0.11466 0.73481 0.0
C1165 C 0.33144 0.10129 0.65295 0.0
C1166 C 0.38428 0.1295 0.69511 0.0
C1167 C 0.37756 0.13019 0.63556 0.0
H1168 H 0.10846 0.62328 0.53772 0.0
H1169 H 0.0958 0.71874 0.5028 0.0
H1170 H 0.0979 0.70888 0.39835 0.0
H1171 H 0.1028 0.67312 0.3162 0.0
H1172 H 0.115 0.57768 0.35116 0.0
H1173 H 0.11279 0.58754 0.45563 0.0
C1174 C 0.10582 0.64195 0.5074 0.0
C1175 C 0.10211 0.67178 0.52877 0.0
C1176 C 0.10679 0.63611 0.44697 0.0
C1177 C 0.09921 0.69561 0.4882 0.0
C1178 C 0.1002 0.68997 0.42819 0.0
C1179 C 0.10523 0.65448 0.34655 0.0
C1180 C 0.10901 0.62465 0.32525 0.0
C1181 C 0.10407 0.66032 0.40698 0.0
C1182 C 0.11164 0.60081 0.36579 0.0
C1183 C 0.11057 0.60645 0.42578 0.0
H1184 H 0.69852 0.8716 0.55398 0.0
H1185 H 0.6507 0.95549 0.52293 0.0
H1186 H 0.63194 0.95536 0.62276 0.0
H1187 H 0.62828 0.93131 0.71885 0.0
H1188 H 0.67664 0.84796 0.75189 0.0
H1189 H 0.69559 0.84786 0.65184 0.0
C1190 C 0.68393 0.88978 0.56908 0.0
C1191 C 0.67624 0.91362 0.53078 0.0
C1192 C 0.67316 0.88965 0.62709 0.0
C1193 C 0.65743 0.9371 0.55143 0.0
C1194 C 0.64652 0.93697 0.60858 0.0
C1195 C 0.64319 0.91323 0.70449 0.0
C1196 C 0.6508 0.8896 0.74324 0.0
C1197 C 0.65422 0.91341 0.64687 0.0
C1198 C 0.66988 0.8662 0.72307 0.0
C1199 C 0.68092 0.86621 0.66579 0.0
H1200 H 0.86055 0.36195 0.33879 0.0
H1201 H 0.95138 0.39894 0.3375 0.0
H1202 H 0.9574 0.38617 0.44016 0.0
H1203 H 0.93718 0.36407 0.53062 0.0
H1204 H 0.84682 0.32612 0.53138 0.0
H1205 H 0.84072 0.33899 0.42861 0.0
C1206 C 0.88181 0.36696 0.36064 0.0
C1207 C 0.90536 0.38164 0.33003 0.0
C1208 C 0.88532 0.35922 0.4198 0.0
C1209 C 0.93257 0.38823 0.35982 0.0
C1210 C 0.93616 0.38072 0.41862 0.0
C1211 C 0.91606 0.35881 0.50844 0.0
C1212 C 0.89252 0.34412 0.53894 0.0
C1213 C 0.91266 0.3663 0.44915 0.0
C1214 C 0.86548 0.33709 0.50903 0.0
C1215 C 0.86189 0.34459 0.45023 0.0
H1216 H 0.39139 0.42592 0.60484 0.0
H1217 H 0.325 0.35929 0.55124 0.0
H1218 H 0.30512 0.35713 0.65022 0.0
H1219 H 0.30697 0.37343 0.75287 0.0
H1220 H 0.37306 0.44033 0.80628 0.0
H1221 H 0.392 0.44361 0.70658 0.0
C1222 C 0.37235 0.41116 0.6145 0.0
C1223 C 0.35998 0.39263 0.57024 0.0
C1224 C 0.36082 0.41011 0.67173 0.0
C1225 C 0.33549 0.3734 0.58429 0.0
C1226 C 0.32391 0.37228 0.64098 0.0
C1227 C 0.32559 0.38867 0.74278 0.0
C1228 C 0.33855 0.40656 0.78735 0.0
C1229 C 0.33656 0.39032 0.68522 0.0
C1230 C 0.36236 0.42653 0.773 0.0
C1231 C 0.37338 0.42827 0.71594 0.0
H1232 H 0.36596 0.67631 0.29086 0.0
H1233 H 0.45906 0.64746 0.27217 0.0
H1234 H 0.45993 0.63135 0.37387 0.0
H1235 H 0.43444 0.62552 0.46889 0.0
H1236 H 0.34111 0.65391 0.4869 0.0
H1237 H 0.34062 0.6708 0.38588 0.0
C1238 C 0.38659 0.6668 0.30902 0.0
C1239 C 0.41238 0.66312 0.27314 0.0
C1240 C 0.38702 0.65759 0.36797 0.0
C1241 C 0.43867 0.65024 0.29791 0.0
C1242 C 0.43926 0.64115 0.35642 0.0
C1243 C 0.41385 0.63513 0.45077 0.0
C1244 C 0.38786 0.63835 0.48634 0.0
C1245 C 0.41354 0.64458 0.39191 0.0
C1246 C 0.36168 0.65145 0.46157 0.0
C1247 C 0.36127 0.66097 0.40334 0.0
H1248 H 0.63652 0.63303 0.79179 0.0
H1249 H 0.71394 0.57608 0.7552 0.0
H1250 H 0.70454 0.58123 0.65085 0.0
H1251 H 0.67201 0.59883 0.56979 0.0
H1252 H 0.59322 0.65347 0.60766 0.0
H1253 H 0.60504 0.65158 0.71151 0.0
C1254 C 0.65127 0.62148 0.7612 0.0
C1255 C 0.67578 0.60394 0.78192 0.0
C1256 C 0.64527 0.62384 0.70122 0.0
C1257 C 0.69506 0.58996 0.74102 0.0
C1258 C 0.68954 0.59266 0.68113 0.0
C1259 C 0.65768 0.61064 0.60075 0.0
C1260 C 0.63166 0.62614 0.58092 0.0
C1261 C 0.66443 0.60916 0.66072 0.0
C1262 C 0.61314 0.64105 0.62174 0.0
C1263 C 0.61995 0.64007 0.68116 0.0
H1264 H 0.63078 0.39534 0.44403 0.0
H1265 H 0.57716 0.32022 0.50751 0.0
H1266 H 0.57295 0.30006 0.40926 0.0
H1267 H 0.58402 0.30361 0.30444 0.0
H1268 H 0.63558 0.38002 0.24035 0.0
H1269 H 0.64157 0.39907 0.33929 0.0
C1270 C 0.6185 0.37433 0.43674 0.0
C1271 C 0.60471 0.35929 0.48409 0.0
C1272 C 0.61578 0.36289 0.37955 0.0
C1273 C 0.58818 0.33249 0.47268 0.0
C1274 C 0.58573 0.32081 0.41616 0.0
C1275 C 0.59641 0.32455 0.31189 0.0
C1276 C 0.60946 0.3401 0.26438 0.0
C1277 C 0.59932 0.33587 0.36914 0.0
C1278 C 0.62577 0.36704 0.27565 0.0
C1279 C 0.62899 0.3782 0.33241 0.0
H1280 H 0.80811 0.60409 0.05084 0.0
H1281 H 0.89957 0.595 0.98517 0.0
H1282 H 0.91949 0.59857 0.08386 0.0
H1283 H 0.91135 0.60555 0.18893 0.0
H1284 H 0.82022 0.61869 0.25305 0.0
H1285 H 0.80016 0.61333 0.15498 0.0
C1286 C 0.83245 0.60325 0.05767 0.0
C1287 C 0.85211 0.59901 1.00988 0.0
C1288 C 0.84399 0.60627 0.11461 0.0
C1289 C 0.8836 0.59749 1.02064 0.0
C1290 C 0.89515 0.59987 0.07726 0.0
C1291 C 0.88706 0.60693 0.18174 0.0
C1292 C 0.8674 0.61181 0.22929 0.0
C1293 C 0.87558 0.60431 0.12462 0.0
C1294 C 0.83605 0.61454 0.21811 0.0
C1295 C 0.82446 0.61149 0.16171 0.0
H1296 H 0.57248 0.12694 0.84929 0.0
H1297 H 0.65675 0.17384 0.81568 0.0
H1298 H 0.65728 0.19302 0.91548 0.0
H1299 H 0.63508 0.19456 1.0147 0.0
H1300 H 0.55183 0.14592 0.04797 0.0
H1301 H 0.55005 0.12905 0.94682 0.0
C1302 C 0.5912 0.14108 0.86371 0.0
C1303 C 0.61463 0.14863 0.8244 0.0
C1304 C 0.59168 0.15168 0.92167 0.0
C1305 C 0.63818 0.16774 0.84422 0.0
C1306 C 0.63864 0.17862 0.90167 0.0
C1307 C 0.61642 0.18052 0.99962 0.0
C1308 C 0.59376 0.17135 0.03932 0.0
C1309 C 0.61564 0.17055 0.94105 0.0
C1310 C 0.56984 0.15297 1.01886 0.0
C1311 C 0.56873 0.14337 0.96083 0.0
H1312 H 0.17373 0.4036 0.24395 0.0
H1313 H 0.07969 0.38316 0.20836 0.0
H1314 H 0.08969 0.3848 0.1039 0.0
H1315 H 0.12525 0.39104 1.02212 0.0
H1316 H 0.21918 0.41243 0.05777 0.0
H1317 H 0.2092 0.41061 0.16207 0.0
C1318 C 0.15545 0.39925 0.21348 0.0
C1319 C 0.12595 0.3933 0.23457 0.0
C1320 C 0.16137 0.40017 0.15309 0.0
C1321 C 0.10253 0.38821 0.19385 0.0
C1322 C 0.10827 0.38895 0.13389 0.0
C1323 C 0.14354 0.39566 0.05252 0.0
C1324 C 0.17302 0.40172 0.03134 0.0
C1325 C 0.1376 0.39492 0.11291 0.0
C1326 C 0.19638 0.40714 0.07213 0.0
C1327 C 0.19065 0.40632 0.1321 0.0
H1328 H 0.40371 0.86644 0.03557 0.0
H1329 H 0.39982 0.77047 0.99802 0.0
H1330 H 0.39676 0.78137 0.89394 0.0
H1331 H 0.3961 0.81825 0.81283 0.0
H1332 H 0.39779 0.9142 0.85184 0.0
H1333 H 0.40071 0.90308 0.95541 0.0
C1334 C 0.40183 0.84783 1.00483 0.0
C1335 C 0.4021 0.81762 1.02522 0.0
C1336 C 0.39991 0.85425 0.94479 0.0
C1337 C 0.40017 0.79394 0.98405 0.0
C1338 C 0.39826 0.80017 0.92427 0.0
C1339 C 0.39687 0.8368 0.84379 0.0
C1340 C 0.39722 0.86711 0.82361 0.0
C1341 C 0.39827 0.83026 0.904 0.0
C1342 C 0.3983 0.89065 0.86523 0.0
C1343 C 0.39974 0.88432 0.92484 0.0
H1344 H 0.8122 0.93049 0.25868 0.0
H1345 H 0.84735 0.84124 0.29632 0.0
H1346 H 0.86373 0.83569 0.1954 0.0
H1347 H 0.87 0.85679 0.09658 0.0
H1348 H 0.83529 0.94618 0.05891 0.0
H1349 H 0.8168 0.95084 0.15872 0.0
C1350 C 0.82312 0.90967 0.24472 0.0
C1351 C 0.82867 0.88644 0.28571 0.0
C1352 C 0.83278 0.90665 0.18624 0.0
C1353 C 0.84316 0.85977 0.26641 0.0
C1354 C 0.85246 0.85648 0.20841 0.0
C1355 C 0.85812 0.87718 0.10996 0.0
C1356 C 0.85432 0.90115 0.06987 0.0
C1357 C 0.84771 0.87988 0.16797 0.0
C1358 C 0.83907 0.9275 0.08868 0.0
C1359 C 0.82831 0.93016 0.14589 0.0
H1360 H 0.89997 0.1776 0.9936 0.0
H1361 H 0.8902 0.08183 0.95819 0.0
H1362 H 0.89195 0.09178 0.85381 0.0
H1363 H 0.89556 0.12766 0.77184 0.0
H1364 H 0.90475 0.2235 0.80726 0.0
H1365 H 0.90321 0.21354 0.91174 0.0
C1366 C 0.89793 0.15889 0.96322 0.0
C1367 C 0.89512 0.12894 0.9844 0.0
C1368 C 0.89869 0.16479 0.90285 0.0
C1369 C 0.89294 0.10506 0.94372 0.0
C1370 C 0.89373 0.11074 0.88376 0.0
C1371 C 0.89748 0.14638 0.80236 0.0
C1372 C 0.90019 0.17633 0.78125 0.0
C1373 C 0.89665 0.1405 0.86274 0.0
C1374 C 0.90221 0.20025 0.82185 0.0
C1375 C 0.90151 0.19457 0.88182 0.0
H1376 H 0.09269 0.10595 0.11456 0.0
H1377 H 0.18186 0.0836 0.05 0.0
H1378 H 0.20077 0.07906 0.14916 0.0
H1379 H 0.19269 0.08311 0.25499 0.0
H1380 H 0.10259 0.10199 0.31972 0.0
H1381 H 0.08382 0.10666 0.2204 0.0
C1382 C 0.11633 0.10031 0.12199 0.0
C1383 C 0.13587 0.09588 0.07402 0.0
C1384 C 0.12707 0.0972 0.17966 0.0
C1385 C 0.16621 0.0876 0.08531 0.0
C1386 C 0.17713 0.08493 0.14238 0.0
C1387 C 0.16883 0.0878 0.24769 0.0
C1388 C 0.14936 0.09261 0.29566 0.0
C1389 C 0.15784 0.08988 0.19001 0.0
C1390 C 0.11853 0.09896 0.28434 0.0
C1391 C 0.1076 0.10141 0.22724 0.0
H1392 H 0.13155 0.819 0.79132 0.0
H1393 H 0.04616 0.86498 0.76564 0.0
H1394 H 0.04613 0.88123 0.86731 0.0
H1395 H 0.07087 0.88373 0.96255 0.0
H1396 H 0.15763 0.84016 0.98812 0.0
H1397 H 0.15624 0.82109 0.88824 0.0
C1398 C 0.11284 0.83232 0.8083 0.0
C1399 C 0.08898 0.84092 0.77096 0.0
C1400 C 0.11319 0.84204 0.86682 0.0
C1401 C 0.06495 0.85836 0.79336 0.0
C1402 C 0.06489 0.86762 0.85151 0.0
C1403 C 0.0897 0.87037 0.94627 0.0
C1404 C 0.11442 0.86369 0.98307 0.0
C1405 C 0.08907 0.85996 0.88842 0.0
C1406 C 0.13814 0.84554 0.96125 0.0
C1407 C 0.13748 0.83474 0.90387 0.0
loop_
_geom_bond_atom_site_label_1
_geom_bond_atom_site_label_2
_geom_bond_distance
_geom_bond_site_symmetry_2
_ccdc_geom_bond_type
Sm0 C2 2.846 . S
Sm0 O20 2.543 . S
Sm0 O21 2.450 . S
Sm0 O22 2.681 . S
Sm0 O23 2.464 . S
Sm0 O24 2.396 . S
Sm0 O28 2.386 . S
Sm0 O31 2.408 . S
Sm1 C11 2.846 1_554 S
Sm1 O22 2.386 . S
Sm1 O25 2.408 . S
Sm1 O26 2.543 1_554 S
Sm1 O27 2.450 1_554 S
Sm1 O28 2.681 . S
Sm1 O29 2.464 . S
Sm1 O30 2.396 . S
C2 Sm0 2.846 . S
C2 C3 1.506 . S
C2 O20 1.261 . S
C2 O21 1.242 . S
C3 C2 1.506 . S
C3 C4 1.358 . S
C3 C8 1.382 . S
C4 C3 1.358 . S
C4 C5 1.385 . S
C4 H32 0.930 . S
C5 C4 1.385 . S
C5 C6 1.395 . S
C5 H33 0.929 . S
C6 C5 1.395 . S
C6 C7 1.335 . S
C7 C6 1.335 . S
C7 C8 1.398 . S
C7 H34 0.930 . S
C8 C3 1.382 . S
C8 C7 1.398 . S
C8 H35 0.929 . S
C9 O22 1.271 . S
C9 O23 1.251 . S
C10 O24 1.252 . S
C10 O25 1.272 . S
C11 Sm1 2.846 1_556 S
C11 C12 1.506 . S
C11 O26 1.261 . S
C11 O27 1.242 . S
C12 C11 1.506 . S
C12 C13 1.358 . S
C12 C17 1.382 . S
C13 C12 1.358 . S
C13 C14 1.385 . S
C13 H36 0.930 . S
C14 C13 1.385 . S
C14 C15 1.395 . S
C14 H37 0.929 . S
C15 C14 1.395 . S
C15 C16 1.335 . S
C16 C15 1.335 . S
C16 C17 1.398 . S
C16 H38 0.930 . S
C17 C12 1.382 . S
C17 C16 1.398 . S
C17 H39 0.929 . S
C18 O28 1.271 . S
C18 O29 1.251 . S
C19 O30 1.252 . S
C19 O31 1.272 . S
O20 Sm0 2.543 . S
O20 C2 1.261 . S
O21 Sm0 2.450 . S
O21 C2 1.242 . S
O22 Sm0 2.681 . S
O22 Sm1 2.386 . S
O22 C9 1.271 . S
O23 Sm0 2.464 . S
O23 C9 1.251 . S
O24 Sm0 2.396 . S
O24 C10 1.252 . S
O25 Sm1 2.408 . S
O25 C10 1.272 . S
O26 Sm1 2.543 1_556 S
O26 C11 1.261 . S
O27 Sm1 2.450 1_556 S
O27 C11 1.242 . S
O28 Sm0 2.386 . S
O28 Sm1 2.681 . S
O28 C18 1.271 . S
O29 Sm1 2.464 . S
O29 C18 1.251 . S
O30 Sm1 2.396 . S
O30 C19 1.252 . S
O31 Sm0 2.408 . S
O31 C19 1.272 . S
H32 C4 0.930 . S
H33 C5 0.929 . S
H34 C7 0.930 . S
H35 C8 0.929 . S
H36 C13 0.930 . S
H37 C14 0.929 . S
H38 C16 0.930 . S
H39 C17 0.929 . S
Sm40 C42 2.846 1_556 S
Sm40 O60 2.543 1_556 S
Sm40 O61 2.450 1_556 S
Sm40 O62 2.681 . S
Sm40 O63 2.464 . S
Sm40 O64 2.396 . S
Sm40 O68 2.386 . S
Sm40 O71 2.408 . S
Sm41 C51 2.846 . S
Sm41 O62 2.386 . S
Sm41 O65 2.408 . S
Sm41 O66 2.543 . S
Sm41 O67 2.450 . S
Sm41 O68 2.681 . S
Sm41 O69 2.464 . S
Sm41 O70 2.396 . S
C42 Sm40 2.846 1_554 S
C42 C43 1.506 . S
C42 O60 1.261 . S
C42 O61 1.242 . S
C43 C42 1.506 . S
C43 C44 1.358 . S
C43 C48 1.382 . S
C44 C43 1.358 . S
C44 C45 1.385 . S
C44 H72 0.930 . S
C45 C44 1.385 . S
C45 C46 1.395 . S
C45 H73 0.929 . S
C46 C45 1.395 . S
C46 C47 1.335 . S
C47 C46 1.335 . S
C47 C48 1.398 . S
C47 H74 0.930 . S
C48 C43 1.382 . S
C48 C47 1.398 . S
C48 H75 0.929 . S
C49 O62 1.271 . S
C49 O63 1.251 . S
C50 O64 1.252 . S
C50 O65 1.272 . S
C51 Sm41 2.846 . S
C51 C52 1.506 . S
C51 O66 1.261 . S
C51 O67 1.242 . S
C52 C51 1.506 . S
C52 C53 1.358 . S
C52 C57 1.382 . S
C53 C52 1.358 . S
C53 C54 1.385 . S
C53 H76 0.930 . S
C54 C53 1.385 . S
C54 C55 1.395 . S
C54 H77 0.929 . S
C55 C54 1.395 . S
C55 C56 1.335 . S
C56 C55 1.335 . S
C56 C57 1.398 . S
C56 H78 0.930 . S
C57 C52 1.382 . S
C57 C56 1.398 . S
C57 H79 0.929 . S
C58 O68 1.271 . S
C58 O69 1.251 . S
C59 O70 1.252 . S
C59 O71 1.272 . S
O60 Sm40 2.543 1_554 S
O60 C42 1.261 . S
O61 Sm40 2.450 1_554 S
O61 C42 1.242 . S
O62 Sm40 2.681 . S
O62 Sm41 2.386 . S
O62 C49 1.271 . S
O63 Sm40 2.464 . S
O63 C49 1.251 . S
O64 Sm40 2.396 . S
O64 C50 1.252 . S
O65 Sm41 2.408 . S
O65 C50 1.272 . S
O66 Sm41 2.543 . S
O66 C51 1.261 . S
O67 Sm41 2.450 . S
O67 C51 1.242 . S
O68 Sm40 2.386 . S
O68 Sm41 2.681 . S
O68 C58 1.271 . S
O69 Sm41 2.464 . S
O69 C58 1.251 . S
O70 Sm41 2.396 . S
O70 C59 1.252 . S
O71 Sm40 2.408 . S
O71 C59 1.272 . S
H72 C44 0.930 . S
H73 C45 0.929 . S
H74 C47 0.930 . S
H75 C48 0.929 . S
H76 C53 0.930 . S
H77 C54 0.929 . S
H78 C56 0.930 . S
H79 C57 0.929 . S
Sm80 C82 2.846 . S
Sm80 O100 2.543 . S
Sm80 O101 2.450 . S
Sm80 O102 2.681 . S
Sm80 O103 2.464 . S
Sm80 O104 2.396 . S
Sm80 O108 2.386 . S
Sm80 O111 2.408 . S
Sm81 C91 2.846 1_554 S
Sm81 O102 2.386 . S
Sm81 O105 2.408 . S
Sm81 O106 2.543 1_554 S
Sm81 O107 2.450 1_554 S
Sm81 O108 2.681 . S
Sm81 O109 2.464 . S
Sm81 O110 2.396 . S
C82 Sm80 2.846 . S
C82 C83 1.506 . S
C82 O100 1.261 . S
C82 O101 1.242 . S
C83 C82 1.506 . S
C83 C84 1.358 . S
C83 C88 1.382 . S
C84 C83 1.358 . S
C84 C85 1.385 . S
C84 H112 0.930 . S
C85 C84 1.385 . S
C85 C86 1.395 . S
C85 H113 0.929 . S
C86 C85 1.395 . S
C86 C87 1.335 . S
C87 C86 1.335 . S
C87 C88 1.398 . S
C87 H114 0.930 . S
C88 C83 1.382 . S
C88 C87 1.398 . S
C88 H115 0.929 . S
C89 O102 1.271 . S
C89 O103 1.251 . S
C90 O104 1.252 . S
C90 O105 1.272 . S
C91 Sm81 2.846 1_556 S
C91 C92 1.506 . S
C91 O106 1.261 . S
C91 O107 1.242 . S
C92 C91 1.506 . S
C92 C93 1.358 . S
C92 C97 1.382 . S
C93 C92 1.358 . S
C93 C94 1.385 . S
C93 H116 0.930 . S
C94 C93 1.385 . S
C94 C95 1.395 . S
C94 H117 0.929 . S
C95 C94 1.395 . S
C95 C96 1.335 . S
C96 C95 1.335 . S
C96 C97 1.398 . S
C96 H118 0.930 . S
C97 C92 1.382 . S
C97 C96 1.398 . S
C97 H119 0.929 . S
C98 O108 1.271 . S
C98 O109 1.251 . S
C99 O110 1.252 . S
C99 O111 1.272 . S
O100 Sm80 2.543 . S
O100 C82 1.261 . S
O101 Sm80 2.450 . S
O101 C82 1.242 . S
O102 Sm80 2.681 . S
O102 Sm81 2.386 . S
O102 C89 1.271 . S
O103 Sm80 2.464 . S
O103 C89 1.251 . S
O104 Sm80 2.396 . S
O104 C90 1.252 . S
O105 Sm81 2.408 . S
O105 C90 1.272 . S
O106 Sm81 2.543 1_556 S
O106 C91 1.261 . S
O107 Sm81 2.450 1_556 S
O107 C91 1.242 . S
O108 Sm80 2.386 . S
O108 Sm81 2.681 . S
O108 C98 1.271 . S
O109 Sm81 2.464 . S
O109 C98 1.251 . S
O110 Sm81 2.396 . S
O110 C99 1.252 . S
O111 Sm80 2.408 . S
O111 C99 1.272 . S
H112 C84 0.930 . S
H113 C85 0.929 . S
H114 C87 0.930 . S
H115 C88 0.929 . S
H116 C93 0.930 . S
H117 C94 0.929 . S
H118 C96 0.930 . S
H119 C97 0.929 . S
Sm120 C122 2.846 1_556 S
Sm120 O140 2.543 1_556 S
Sm120 O141 2.450 1_556 S
Sm120 O142 2.681 . S
Sm120 O143 2.464 . S
Sm120 O144 2.396 . S
Sm120 O148 2.386 . S
Sm120 O151 2.408 . S
Sm121 C131 2.846 . S
Sm121 O142 2.386 . S
Sm121 O145 2.408 . S
Sm121 O146 2.543 . S
Sm121 O147 2.450 . S
Sm121 O148 2.681 . S
Sm121 O149 2.464 . S
Sm121 O150 2.396 . S
C122 Sm120 2.846 1_554 S
C122 C123 1.506 . S
C122 O140 1.261 . S
C122 O141 1.242 . S
C123 C122 1.506 . S
C123 C124 1.358 . S
C123 C128 1.382 . S
C124 C123 1.358 . S
C124 C125 1.385 . S
C124 H152 0.930 . S
C125 C124 1.385 . S
C125 C126 1.395 . S
C125 H153 0.929 . S
C126 C125 1.395 . S
C126 C127 1.335 . S
C127 C126 1.335 . S
C127 C128 1.398 . S
C127 H154 0.930 . S
C128 C123 1.382 . S
C128 C127 1.398 . S
C128 H155 0.929 . S
C129 O142 1.271 . S
C129 O143 1.251 . S
C130 O144 1.252 . S
C130 O145 1.272 . S
C131 Sm121 2.846 . S
C131 C132 1.506 . S
C131 O146 1.261 . S
C131 O147 1.242 . S
C132 C131 1.506 . S
C132 C133 1.358 . S
C132 C137 1.382 . S
C133 C132 1.358 . S
C133 C134 1.385 . S
C133 H156 0.930 . S
C134 C133 1.385 . S
C134 C135 1.395 . S
C134 H157 0.929 . S
C135 C134 1.395 . S
C135 C136 1.335 . S
C136 C135 1.335 . S
C136 C137 1.398 . S
C136 H158 0.930 . S
C137 C132 1.382 . S
C137 C136 1.398 . S
C137 H159 0.929 . S
C138 O148 1.271 . S
C138 O149 1.251 . S
C139 O150 1.252 . S
C139 O151 1.272 . S
O140 Sm120 2.543 1_554 S
O140 C122 1.261 . S
O141 Sm120 2.450 1_554 S
O141 C122 1.242 . S
O142 Sm120 2.681 . S
O142 Sm121 2.386 . S
O142 C129 1.271 . S
O143 Sm120 2.464 . S
O143 C129 1.251 . S
O144 Sm120 2.396 . S
O144 C130 1.252 . S
O145 Sm121 2.408 . S
O145 C130 1.272 . S
O146 Sm121 2.543 . S
O146 C131 1.261 . S
O147 Sm121 2.450 . S
O147 C131 1.242 . S
O148 Sm120 2.386 . S
O148 Sm121 2.681 . S
O148 C138 1.271 . S
O149 Sm121 2.464 . S
O149 C138 1.251 . S
O150 Sm121 2.396 . S
O150 C139 1.252 . S
O151 Sm120 2.408 . S
O151 C139 1.272 . S
H152 C124 0.930 . S
H153 C125 0.929 . S
H154 C127 0.930 . S
H155 C128 0.929 . S
H156 C133 0.930 . S
H157 C134 0.929 . S
H158 C136 0.930 . S
H159 C137 0.929 . S
Sm160 C162 2.846 1_554 S
Sm160 O180 2.543 1_554 S
Sm160 O181 2.450 1_554 S
Sm160 O182 2.681 . S
Sm160 O183 2.464 . S
Sm160 O184 2.396 . S
Sm160 O188 2.386 . S
Sm160 O191 2.408 . S
Sm161 C171 2.846 . S
Sm161 O182 2.386 . S
Sm161 O185 2.408 . S
Sm161 O186 2.543 . S
Sm161 O187 2.450 . S
Sm161 O188 2.681 . S
Sm161 O189 2.464 . S
Sm161 O190 2.396 . S
C162 Sm160 2.846 1_556 S
C162 C163 1.506 . S
C162 O180 1.261 . S
C162 O181 1.242 . S
C163 C162 1.506 . S
C163 C164 1.358 . S
C163 C168 1.382 . S
C164 C163 1.358 . S
C164 C165 1.385 . S
C164 H192 0.930 . S
C165 C164 1.385 . S
C165 C166 1.395 . S
C165 H193 0.929 . S
C166 C165 1.395 . S
C166 C167 1.335 . S
C167 C166 1.335 . S
C167 C168 1.398 . S
C167 H194 0.930 . S
C168 C163 1.382 . S
C168 C167 1.398 . S
C168 H195 0.929 . S
C169 O182 1.271 . S
C169 O183 1.251 . S
C170 O184 1.252 . S
C170 O185 1.272 . S
C171 Sm161 2.846 . S
C171 C172 1.506 . S
C171 O186 1.261 . S
C171 O187 1.242 . S
C172 C171 1.506 . S
C172 C173 1.358 . S
C172 C177 1.382 . S
C173 C172 1.358 . S
C173 C174 1.385 . S
C173 H196 0.930 . S
C174 C173 1.385 . S
C174 C175 1.395 . S
C174 H197 0.929 . S
C175 C174 1.395 . S
C175 C176 1.335 . S
C176 C175 1.335 . S
C176 C177 1.398 . S
C176 H198 0.930 . S
C177 C172 1.382 . S
C177 C176 1.398 . S
C177 H199 0.929 . S
C178 O188 1.271 . S
C178 O189 1.251 . S
C179 O190 1.252 . S
C179 O191 1.272 . S
O180 Sm160 2.543 1_556 S
O180 C162 1.261 . S
O181 Sm160 2.450 1_556 S
O181 C162 1.242 . S
O182 Sm160 2.681 . S
O182 Sm161 2.386 . S
O182 C169 1.271 . S
O183 Sm160 2.464 . S
O183 C169 1.251 . S
O184 Sm160 2.396 . S
O184 C170 1.252 . S
O185 Sm161 2.408 . S
O185 C170 1.272 . S
O186 Sm161 2.543 . S
O186 C171 1.261 . S
O187 Sm161 2.450 . S
O187 C171 1.242 . S
O188 Sm160 2.386 . S
O188 Sm161 2.681 . S
O188 C178 1.271 . S
O189 Sm161 2.464 . S
O189 C178 1.251 . S
O190 Sm161 2.396 . S
O190 C179 1.252 . S
O191 Sm160 2.408 . S
O191 C179 1.272 . S
H192 C164 0.930 . S
H193 C165 0.929 . S
H194 C167 0.930 . S
H195 C168 0.929 . S
H196 C173 0.930 . S
H197 C174 0.929 . S
H198 C176 0.930 . S
H199 C177 0.929 . S
Sm200 C202 2.846 . S
Sm200 O220 2.543 . S
Sm200 O221 2.450 . S
Sm200 O222 2.681 . S
Sm200 O223 2.464 . S
Sm200 O224 2.396 . S
Sm200 O228 2.386 . S
Sm200 O231 2.408 . S
Sm201 C211 2.846 1_556 S
Sm201 O222 2.386 . S
Sm201 O225 2.408 . S
Sm201 O226 2.543 1_556 S
Sm201 O227 2.450 1_556 S
Sm201 O228 2.681 . S
Sm201 O229 2.464 . S
Sm201 O230 2.396 . S
C202 Sm200 2.846 . S
C202 C203 1.506 . S
C202 O220 1.261 . S
C202 O221 1.242 . S
C203 C202 1.506 . S
C203 C204 1.358 . S
C203 C208 1.382 . S
C204 C203 1.358 . S
C204 C205 1.385 . S
C204 H232 0.930 . S
C205 C204 1.385 . S
C205 C206 1.395 . S
C205 H233 0.929 . S
C206 C205 1.395 . S
C206 C207 1.335 . S
C207 C206 1.335 . S
C207 C208 1.398 . S
C207 H234 0.930 . S
C208 C203 1.382 . S
C208 C207 1.398 . S
C208 H235 0.929 . S
C209 O222 1.271 . S
C209 O223 1.251 . S
C210 O224 1.252 . S
C210 O225 1.272 . S
C211 Sm201 2.846 1_554 S
C211 C212 1.506 . S
C211 O226 1.261 . S
C211 O227 1.242 . S
C212 C211 1.506 . S
C212 C213 1.358 . S
C212 C217 1.382 . S
C213 C212 1.358 . S
C213 C214 1.385 . S
C213 H236 0.930 . S
C214 C213 1.385 . S
C214 C215 1.395 . S
C214 H237 0.929 . S
C215 C214 1.395 . S
C215 C216 1.335 . S
C216 C215 1.335 . S
C216 C217 1.398 . S
C216 H238 0.930 . S
C217 C212 1.382 . S
C217 C216 1.398 . S
C217 H239 0.929 . S
C218 O228 1.271 . S
C218 O229 1.251 . S
C219 O230 1.252 . S
C219 O231 1.272 . S
O220 Sm200 2.543 . S
O220 C202 1.261 . S
O221 Sm200 2.450 . S
O221 C202 1.242 . S
O222 Sm200 2.681 . S
O222 Sm201 2.386 . S
O222 C209 1.271 . S
O223 Sm200 2.464 . S
O223 C209 1.251 . S
O224 Sm200 2.396 . S
O224 C210 1.252 . S
O225 Sm201 2.408 . S
O225 C210 1.272 . S
O226 Sm201 2.543 1_554 S
O226 C211 1.261 . S
O227 Sm201 2.450 1_554 S
O227 C211 1.242 . S
O228 Sm200 2.386 . S
O228 Sm201 2.681 . S
O228 C218 1.271 . S
O229 Sm201 2.464 . S
O229 C218 1.251 . S
O230 Sm201 2.396 . S
O230 C219 1.252 . S
O231 Sm200 2.408 . S
O231 C219 1.272 . S
H232 C204 0.930 . S
H233 C205 0.929 . S
H234 C207 0.930 . S
H235 C208 0.929 . S
H236 C213 0.930 . S
H237 C214 0.929 . S
H238 C216 0.930 . S
H239 C217 0.929 . S
Sm240 C242 2.846 1_554 S
Sm240 O260 2.543 1_554 S
Sm240 O261 2.450 1_554 S
Sm240 O262 2.681 . S
Sm240 O263 2.464 . S
Sm240 O264 2.396 . S
Sm240 O268 2.386 . S
Sm240 O271 2.408 . S
Sm241 C251 2.846 . S
Sm241 O262 2.386 . S
Sm241 O265 2.408 . S
Sm241 O266 2.543 . S
Sm241 O267 2.450 . S
Sm241 O268 2.681 . S
Sm241 O269 2.464 . S
Sm241 O270 2.396 . S
C242 Sm240 2.846 1_556 S
C242 C243 1.506 . S
C242 O260 1.261 . S
C242 O261 1.242 . S
C243 C242 1.506 . S
C243 C244 1.358 . S
C243 C248 1.382 . S
C244 C243 1.358 . S
C244 C245 1.385 . S
C244 H272 0.930 . S
C245 C244 1.385 . S
C245 C246 1.395 . S
C245 H273 0.929 . S
C246 C245 1.395 . S
C246 C247 1.335 . S
C247 C246 1.335 . S
C247 C248 1.398 . S
C247 H274 0.930 . S
C248 C243 1.382 . S
C248 C247 1.398 . S
C248 H275 0.929 . S
C249 O262 1.271 . S
C249 O263 1.251 . S
C250 O264 1.252 . S
C250 O265 1.272 . S
C251 Sm241 2.846 . S
C251 C252 1.506 . S
C251 O266 1.261 . S
C251 O267 1.242 . S
C252 C251 1.506 . S
C252 C253 1.358 . S
C252 C257 1.382 . S
C253 C252 1.358 . S
C253 C254 1.385 . S
C253 H276 0.930 . S
C254 C253 1.385 . S
C254 C255 1.395 . S
C254 H277 0.929 . S
C255 C254 1.395 . S
C255 C256 1.335 . S
C256 C255 1.335 . S
C256 C257 1.398 . S
C256 H278 0.930 . S
C257 C252 1.382 . S
C257 C256 1.398 . S
C257 H279 0.929 . S
C258 O268 1.271 . S
C258 O269 1.251 . S
C259 O270 1.252 . S
C259 O271 1.272 . S
O260 Sm240 2.543 1_556 S
O260 C242 1.261 . S
O261 Sm240 2.450 1_556 S
O261 C242 1.242 . S
O262 Sm240 2.681 . S
O262 Sm241 2.386 . S
O262 C249 1.271 . S
O263 Sm240 2.464 . S
O263 C249 1.251 . S
O264 Sm240 2.396 . S
O264 C250 1.252 . S
O265 Sm241 2.408 . S
O265 C250 1.272 . S
O266 Sm241 2.543 . S
O266 C251 1.261 . S
O267 Sm241 2.450 . S
O267 C251 1.242 . S
O268 Sm240 2.386 . S
O268 Sm241 2.681 . S
O268 C258 1.271 . S
O269 Sm241 2.464 . S
O269 C258 1.251 . S
O270 Sm241 2.396 . S
O270 C259 1.252 . S
O271 Sm240 2.408 . S
O271 C259 1.272 . S
H272 C244 0.930 . S
H273 C245 0.929 . S
H274 C247 0.930 . S
H275 C248 0.929 . S
H276 C253 0.930 . S
H277 C254 0.929 . S
H278 C256 0.930 . S
H279 C257 0.929 . S
Sm280 C282 2.846 . S
Sm280 O300 2.543 . S
Sm280 O301 2.450 . S
Sm280 O302 2.681 . S
Sm280 O303 2.464 . S
Sm280 O304 2.396 . S
Sm280 O308 2.386 . S
Sm280 O311 2.408 . S
Sm281 C291 2.846 1_556 S
Sm281 O302 2.386 . S
Sm281 O305 2.408 . S
Sm281 O306 2.543 1_556 S
Sm281 O307 2.450 1_556 S
Sm281 O308 2.681 . S
Sm281 O309 2.464 . S
Sm281 O310 2.396 . S
C282 Sm280 2.846 . S
C282 C283 1.506 . S
C282 O300 1.261 . S
C282 O301 1.242 . S
C283 C282 1.506 . S
C283 C284 1.358 . S
C283 C288 1.382 . S
C284 C283 1.358 . S
C284 C285 1.385 . S
C284 H312 0.930 . S
C285 C284 1.385 . S
C285 C286 1.395 . S
C285 H313 0.929 . S
C286 C285 1.395 . S
C286 C287 1.335 . S
C287 C286 1.335 . S
C287 C288 1.398 . S
C287 H314 0.930 . S
C288 C283 1.382 . S
C288 C287 1.398 . S
C288 H315 0.929 . S
C289 O302 1.271 . S
C289 O303 1.251 . S
C290 O304 1.252 . S
C290 O305 1.272 . S
C291 Sm281 2.846 1_554 S
C291 C292 1.506 . S
C291 O306 1.261 . S
C291 O307 1.242 . S
C292 C291 1.506 . S
C292 C293 1.358 . S
C292 C297 1.382 . S
C293 C292 1.358 . S
C293 C294 1.385 . S
C293 H316 0.930 . S
C294 C293 1.385 . S
C294 C295 1.395 . S
C294 H317 0.929 . S
C295 C294 1.395 . S
C295 C296 1.335 . S
C296 C295 1.335 . S
C296 C297 1.398 . S
C296 H318 0.930 . S
C297 C292 1.382 . S
C297 C296 1.398 . S
C297 H319 0.929 . S
C298 O308 1.271 . S
C298 O309 1.251 . S
C299 O310 1.252 . S
C299 O311 1.272 . S
O300 Sm280 2.543 . S
O300 C282 1.261 . S
O301 Sm280 2.450 . S
O301 C282 1.242 . S
O302 Sm280 2.681 . S
O302 Sm281 2.386 . S
O302 C289 1.271 . S
O303 Sm280 2.464 . S
O303 C289 1.251 . S
O304 Sm280 2.396 . S
O304 C290 1.252 . S
O305 Sm281 2.408 . S
O305 C290 1.272 . S
O306 Sm281 2.543 1_554 S
O306 C291 1.261 . S
O307 Sm281 2.450 1_554 S
O307 C291 1.242 . S
O308 Sm280 2.386 . S
O308 Sm281 2.681 . S
O308 C298 1.271 . S
O309 Sm281 2.464 . S
O309 C298 1.251 . S
O310 Sm281 2.396 . S
O310 C299 1.252 . S
O311 Sm280 2.408 . S
O311 C299 1.272 . S
H312 C284 0.930 . S
H313 C285 0.929 . S
H314 C287 0.930 . S
H315 C288 0.929 . S
H316 C293 0.930 . S
H317 C294 0.929 . S
H318 C296 0.930 . S
H319 C297 0.929 . S
Sm320 C322 2.846 . S
Sm320 O340 2.543 . S
Sm320 O341 2.450 . S
Sm320 O342 2.681 . S
Sm320 O343 2.464 . S
Sm320 O344 2.396 . S
Sm320 O348 2.386 . S
Sm320 O351 2.408 . S
Sm321 C331 2.846 . S
Sm321 O342 2.386 . S
Sm321 O345 2.408 . S
Sm321 O346 2.543 . S
Sm321 O347 2.450 . S
Sm321 O348 2.681 . S
Sm321 O349 2.464 . S
Sm321 O350 2.396 . S
C322 Sm320 2.846 . S
C322 C323 1.506 . S
C322 O340 1.261 . S
C322 O341 1.242 . S
C323 C322 1.506 . S
C323 C324 1.358 . S
C323 C328 1.382 . S
C324 C323 1.358 . S
C324 C325 1.385 . S
C324 H352 0.930 . S
C325 C324 1.385 . S
C325 C326 1.395 . S
C325 H353 0.929 . S
C326 C325 1.395 . S
C326 C327 1.335 . S
C327 C326 1.335 . S
C327 C328 1.398 . S
C327 H354 0.930 . S
C328 C323 1.382 . S
C328 C327 1.398 . S
C328 H355 0.929 . S
C329 O342 1.271 . S
C329 O343 1.251 . S
C330 O344 1.252 . S
C330 O345 1.272 . S
C331 Sm321 2.846 . S
C331 C332 1.506 . S
C331 O346 1.261 . S
C331 O347 1.242 . S
C332 C331 1.506 . S
C332 C333 1.358 . S
C332 C337 1.382 . S
C333 C332 1.358 . S
C333 C334 1.385 . S
C333 H356 0.930 . S
C334 C333 1.385 . S
C334 C335 1.395 . S
C334 H357 0.929 . S
C335 C334 1.395 . S
C335 C336 1.335 . S
C336 C335 1.335 . S
C336 C337 1.398 . S
C336 H358 0.930 . S
C337 C332 1.382 . S
C337 C336 1.398 . S
C337 H359 0.929 . S
C338 O348 1.271 . S
C338 O349 1.251 . S
C339 O350 1.252 . S
C339 O351 1.272 . S
O340 Sm320 2.543 . S
O340 C322 1.261 . S
O341 Sm320 2.450 . S
O341 C322 1.242 . S
O342 Sm320 2.681 . S
O342 Sm321 2.386 . S
O342 C329 1.271 . S
O343 Sm320 2.464 . S
O343 C329 1.251 . S
O344 Sm320 2.396 . S
O344 C330 1.252 . S
O345 Sm321 2.408 . S
O345 C330 1.272 . S
O346 Sm321 2.543 . S
O346 C331 1.261 . S
O347 Sm321 2.450 . S
O347 C331 1.242 . S
O348 Sm320 2.386 . S
O348 Sm321 2.681 . S
O348 C338 1.271 . S
O349 Sm321 2.464 . S
O349 C338 1.251 . S
O350 Sm321 2.396 . S
O350 C339 1.252 . S
O351 Sm320 2.408 . S
O351 C339 1.272 . S
H352 C324 0.930 . S
H353 C325 0.929 . S
H354 C327 0.930 . S
H355 C328 0.929 . S
H356 C333 0.930 . S
H357 C334 0.929 . S
H358 C336 0.930 . S
H359 C337 0.929 . S
Sm360 C362 2.846 . S
Sm360 O380 2.543 . S
Sm360 O381 2.450 . S
Sm360 O382 2.681 . S
Sm360 O383 2.464 . S
Sm360 O384 2.396 . S
Sm360 O388 2.386 . S
Sm360 O391 2.408 . S
Sm361 C371 2.846 . S
Sm361 O382 2.386 . S
Sm361 O385 2.408 . S
Sm361 O386 2.543 . S
Sm361 O387 2.450 . S
Sm361 O388 2.681 . S
Sm361 O389 2.464 . S
Sm361 O390 2.396 . S
C362 Sm360 2.846 . S
C362 C363 1.506 . S
C362 O380 1.261 . S
C362 O381 1.242 . S
C363 C362 1.506 . S
C363 C364 1.358 . S
C363 C368 1.382 . S
C364 C363 1.358 . S
C364 C365 1.385 . S
C364 H392 0.930 . S
C365 C364 1.385 . S
C365 C366 1.395 . S
C365 H393 0.929 . S
C366 C365 1.395 . S
C366 C367 1.335 . S
C367 C366 1.335 . S
C367 C368 1.398 . S
C367 H394 0.930 . S
C368 C363 1.382 . S
C368 C367 1.398 . S
C368 H395 0.929 . S
C369 O382 1.271 . S
C369 O383 1.251 . S
C370 O384 1.252 . S
C370 O385 1.272 . S
C371 Sm361 2.846 . S
C371 C372 1.506 . S
C371 O386 1.261 . S
C371 O387 1.242 . S
C372 C371 1.506 . S
C372 C373 1.358 . S
C372 C377 1.382 . S
C373 C372 1.358 . S
C373 C374 1.385 . S
C373 H396 0.930 . S
C374 C373 1.385 . S
C374 C375 1.395 . S
C374 H397 0.929 . S
C375 C374 1.395 . S
C375 C376 1.335 . S
C376 C375 1.335 . S
C376 C377 1.398 . S
C376 H398 0.930 . S
C377 C372 1.382 . S
C377 C376 1.398 . S
C377 H399 0.929 . S
C378 O388 1.271 . S
C378 O389 1.251 . S
C379 O390 1.252 . S
C379 O391 1.272 . S
O380 Sm360 2.543 . S
O380 C362 1.261 . S
O381 Sm360 2.450 . S
O381 C362 1.242 . S
O382 Sm360 2.681 . S
O382 Sm361 2.386 . S
O382 C369 1.271 . S
O383 Sm360 2.464 . S
O383 C369 1.251 . S
O384 Sm360 2.396 . S
O384 C370 1.252 . S
O385 Sm361 2.408 . S
O385 C370 1.272 . S
O386 Sm361 2.543 . S
O386 C371 1.261 . S
O387 Sm361 2.450 . S
O387 C371 1.242 . S
O388 Sm360 2.386 . S
O388 Sm361 2.681 . S
O388 C378 1.271 . S
O389 Sm361 2.464 . S
O389 C378 1.251 . S
O390 Sm361 2.396 . S
O390 C379 1.252 . S
O391 Sm360 2.408 . S
O391 C379 1.272 . S
H392 C364 0.930 . S
H393 C365 0.929 . S
H394 C367 0.930 . S
H395 C368 0.929 . S
H396 C373 0.930 . S
H397 C374 0.929 . S
H398 C376 0.930 . S
H399 C377 0.929 . S
Sm400 C402 2.846 . S
Sm400 O420 2.543 . S
Sm400 O421 2.450 . S
Sm400 O422 2.681 . S
Sm400 O423 2.464 . S
Sm400 O424 2.396 . S
Sm400 O428 2.386 . S
Sm400 O431 2.408 . S
Sm401 C411 2.846 . S
Sm401 O422 2.386 . S
Sm401 O425 2.408 . S
Sm401 O426 2.543 . S
Sm401 O427 2.450 . S
Sm401 O428 2.681 . S
Sm401 O429 2.464 . S
Sm401 O430 2.396 . S
C402 Sm400 2.846 . S
C402 C403 1.506 . S
C402 O420 1.261 . S
C402 O421 1.242 . S
C403 C402 1.506 . S
C403 C404 1.358 . S
C403 C408 1.382 . S
C404 C403 1.358 . S
C404 C405 1.385 . S
C404 H432 0.930 . S
C405 C404 1.385 . S
C405 C406 1.395 . S
C405 H433 0.929 . S
C406 C405 1.395 . S
C406 C407 1.335 . S
C407 C406 1.335 . S
C407 C408 1.398 . S
C407 H434 0.930 . S
C408 C403 1.382 . S
C408 C407 1.398 . S
C408 H435 0.929 . S
C409 O422 1.271 . S
C409 O423 1.251 . S
C410 O424 1.252 . S
C410 O425 1.272 . S
C411 Sm401 2.846 . S
C411 C412 1.506 . S
C411 O426 1.261 . S
C411 O427 1.242 . S
C412 C411 1.506 . S
C412 C413 1.358 . S
C412 C417 1.382 . S
C413 C412 1.358 . S
C413 C414 1.385 . S
C413 H436 0.930 . S
C414 C413 1.385 . S
C414 C415 1.395 . S
C414 H437 0.929 . S
C415 C414 1.395 . S
C415 C416 1.335 . S
C416 C415 1.335 . S
C416 C417 1.398 . S
C416 H438 0.930 . S
C417 C412 1.382 . S
C417 C416 1.398 . S
C417 H439 0.929 . S
C418 O428 1.271 . S
C418 O429 1.251 . S
C419 O430 1.252 . S
C419 O431 1.272 . S
O420 Sm400 2.543 . S
O420 C402 1.261 . S
O421 Sm400 2.450 . S
O421 C402 1.242 . S
O422 Sm400 2.681 . S
O422 Sm401 2.386 . S
O422 C409 1.271 . S
O423 Sm400 2.464 . S
O423 C409 1.251 . S
O424 Sm400 2.396 . S
O424 C410 1.252 . S
O425 Sm401 2.408 . S
O425 C410 1.272 . S
O426 Sm401 2.543 . S
O426 C411 1.261 . S
O427 Sm401 2.450 . S
O427 C411 1.242 . S
O428 Sm400 2.386 . S
O428 Sm401 2.681 . S
O428 C418 1.271 . S
O429 Sm401 2.464 . S
O429 C418 1.251 . S
O430 Sm401 2.396 . S
O430 C419 1.252 . S
O431 Sm400 2.408 . S
O431 C419 1.272 . S
H432 C404 0.930 . S
H433 C405 0.929 . S
H434 C407 0.930 . S
H435 C408 0.929 . S
H436 C413 0.930 . S
H437 C414 0.929 . S
H438 C416 0.930 . S
H439 C417 0.929 . S
Sm440 C442 2.846 . S
Sm440 O460 2.543 . S
Sm440 O461 2.450 . S
Sm440 O462 2.681 . S
Sm440 O463 2.464 . S
Sm440 O464 2.396 . S
Sm440 O468 2.386 . S
Sm440 O471 2.408 . S
Sm441 C451 2.846 . S
Sm441 O462 2.386 . S
Sm441 O465 2.408 . S
Sm441 O466 2.543 . S
Sm441 O467 2.450 . S
Sm441 O468 2.681 . S
Sm441 O469 2.464 . S
Sm441 O470 2.396 . S
C442 Sm440 2.846 . S
C442 C443 1.506 . S
C442 O460 1.261 . S
C442 O461 1.242 . S
C443 C442 1.506 . S
C443 C444 1.358 . S
C443 C448 1.382 . S
C444 C443 1.358 . S
C444 C445 1.385 . S
C444 H472 0.930 . S
C445 C444 1.385 . S
C445 C446 1.395 . S
C445 H473 0.929 . S
C446 C445 1.395 . S
C446 C447 1.335 . S
C447 C446 1.335 . S
C447 C448 1.398 . S
C447 H474 0.930 . S
C448 C443 1.382 . S
C448 C447 1.398 . S
C448 H475 0.929 . S
C449 O462 1.271 . S
C449 O463 1.251 . S
C450 O464 1.252 . S
C450 O465 1.272 . S
C451 Sm441 2.846 . S
C451 C452 1.506 . S
C451 O466 1.261 . S
C451 O467 1.242 . S
C452 C451 1.506 . S
C452 C453 1.358 . S
C452 C457 1.382 . S
C453 C452 1.358 . S
C453 C454 1.385 . S
C453 H476 0.930 . S
C454 C453 1.385 . S
C454 C455 1.395 . S
C454 H477 0.929 . S
C455 C454 1.395 . S
C455 C456 1.335 . S
C456 C455 1.335 . S
C456 C457 1.398 . S
C456 H478 0.930 . S
C457 C452 1.382 . S
C457 C456 1.398 . S
C457 H479 0.929 . S
C458 O468 1.271 . S
C458 O469 1.251 . S
C459 O470 1.252 . S
C459 O471 1.272 . S
O460 Sm440 2.543 . S
O460 C442 1.261 . S
O461 Sm440 2.450 . S
O461 C442 1.242 . S
O462 Sm440 2.681 . S
O462 Sm441 2.386 . S
O462 C449 1.271 . S
O463 Sm440 2.464 . S
O463 C449 1.251 . S
O464 Sm440 2.396 . S
O464 C450 1.252 . S
O465 Sm441 2.408 . S
O465 C450 1.272 . S
O466 Sm441 2.543 . S
O466 C451 1.261 . S
O467 Sm441 2.450 . S
O467 C451 1.242 . S
O468 Sm440 2.386 . S
O468 Sm441 2.681 . S
O468 C458 1.271 . S
O469 Sm441 2.464 . S
O469 C458 1.251 . S
O470 Sm441 2.396 . S
O470 C459 1.252 . S
O471 Sm440 2.408 . S
O471 C459 1.272 . S
H472 C444 0.930 . S
H473 C445 0.929 . S
H474 C447 0.930 . S
H475 C448 0.929 . S
H476 C453 0.930 . S
H477 C454 0.929 . S
H478 C456 0.930 . S
H479 C457 0.929 . S
Sm480 C482 2.846 . S
Sm480 O500 2.543 . S
Sm480 O501 2.450 . S
Sm480 O502 2.681 . S
Sm480 O503 2.464 . S
Sm480 O504 2.396 . S
Sm480 O508 2.386 . S
Sm480 O511 2.408 . S
Sm481 C491 2.846 . S
Sm481 O502 2.386 . S
Sm481 O505 2.408 . S
Sm481 O506 2.543 . S
Sm481 O507 2.450 . S
Sm481 O508 2.681 . S
Sm481 O509 2.464 . S
Sm481 O510 2.396 . S
C482 Sm480 2.846 . S
C482 C483 1.506 . S
C482 O500 1.261 . S
C482 O501 1.242 . S
C483 C482 1.506 . S
C483 C484 1.358 . S
C483 C488 1.382 . S
C484 C483 1.358 . S
C484 C485 1.385 . S
C484 H512 0.930 . S
C485 C484 1.385 . S
C485 C486 1.395 . S
C485 H513 0.929 . S
C486 C485 1.395 . S
C486 C487 1.335 . S
C487 C486 1.335 . S
C487 C488 1.398 . S
C487 H514 0.930 . S
C488 C483 1.382 . S
C488 C487 1.398 . S
C488 H515 0.929 . S
C489 O502 1.271 . S
C489 O503 1.251 . S
C490 O504 1.252 . S
C490 O505 1.272 . S
C491 Sm481 2.846 . S
C491 C492 1.506 . S
C491 O506 1.261 . S
C491 O507 1.242 . S
C492 C491 1.506 . S
C492 C493 1.358 . S
C492 C497 1.382 . S
C493 C492 1.358 . S
C493 C494 1.385 . S
C493 H516 0.930 . S
C494 C493 1.385 . S
C494 C495 1.395 . S
C494 H517 0.929 . S
C495 C494 1.395 . S
C495 C496 1.335 . S
C496 C495 1.335 . S
C496 C497 1.398 . S
C496 H518 0.930 . S
C497 C492 1.382 . S
C497 C496 1.398 . S
C497 H519 0.929 . S
C498 O508 1.271 . S
C498 O509 1.251 . S
C499 O510 1.252 . S
C499 O511 1.272 . S
O500 Sm480 2.543 . S
O500 C482 1.261 . S
O501 Sm480 2.450 . S
O501 C482 1.242 . S
O502 Sm480 2.681 . S
O502 Sm481 2.386 . S
O502 C489 1.271 . S
O503 Sm480 2.464 . S
O503 C489 1.251 . S
O504 Sm480 2.396 . S
O504 C490 1.252 . S
O505 Sm481 2.408 . S
O505 C490 1.272 . S
O506 Sm481 2.543 . S
O506 C491 1.261 . S
O507 Sm481 2.450 . S
O507 C491 1.242 . S
O508 Sm480 2.386 . S
O508 Sm481 2.681 . S
O508 C498 1.271 . S
O509 Sm481 2.464 . S
O509 C498 1.251 . S
O510 Sm481 2.396 . S
O510 C499 1.252 . S
O511 Sm480 2.408 . S
O511 C499 1.272 . S
H512 C484 0.930 . S
H513 C485 0.929 . S
H514 C487 0.930 . S
H515 C488 0.929 . S
H516 C493 0.930 . S
H517 C494 0.929 . S
H518 C496 0.930 . S
H519 C497 0.929 . S
Sm520 C522 2.846 . S
Sm520 O540 2.543 . S
Sm520 O541 2.450 . S
Sm520 O542 2.681 . S
Sm520 O543 2.464 . S
Sm520 O544 2.396 . S
Sm520 O548 2.386 . S
Sm520 O551 2.408 . S
Sm521 C531 2.846 . S
Sm521 O542 2.386 . S
Sm521 O545 2.408 . S
Sm521 O546 2.543 . S
Sm521 O547 2.450 . S
Sm521 O548 2.681 . S
Sm521 O549 2.464 . S
Sm521 O550 2.396 . S
C522 Sm520 2.846 . S
C522 C523 1.506 . S
C522 O540 1.261 . S
C522 O541 1.242 . S
C523 C522 1.506 . S
C523 C524 1.358 . S
C523 C528 1.382 . S
C524 C523 1.358 . S
C524 C525 1.385 . S
C524 H552 0.930 . S
C525 C524 1.385 . S
C525 C526 1.395 . S
C525 H553 0.929 . S
C526 C525 1.395 . S
C526 C527 1.335 . S
C527 C526 1.335 . S
C527 C528 1.398 . S
C527 H554 0.930 . S
C528 C523 1.382 . S
C528 C527 1.398 . S
C528 H555 0.929 . S
C529 O542 1.271 . S
C529 O543 1.251 . S
C530 O544 1.252 . S
C530 O545 1.272 . S
C531 Sm521 2.846 . S
C531 C532 1.506 . S
C531 O546 1.261 . S
C531 O547 1.242 . S
C532 C531 1.506 . S
C532 C533 1.358 . S
C532 C537 1.382 . S
C533 C532 1.358 . S
C533 C534 1.385 . S
C533 H556 0.930 . S
C534 C533 1.385 . S
C534 C535 1.395 . S
C534 H557 0.929 . S
C535 C534 1.395 . S
C535 C536 1.335 . S
C536 C535 1.335 . S
C536 C537 1.398 . S
C536 H558 0.930 . S
C537 C532 1.382 . S
C537 C536 1.398 . S
C537 H559 0.929 . S
C538 O548 1.271 . S
C538 O549 1.251 . S
C539 O550 1.252 . S
C539 O551 1.272 . S
O540 Sm520 2.543 . S
O540 C522 1.261 . S
O541 Sm520 2.450 . S
O541 C522 1.242 . S
O542 Sm520 2.681 . S
O542 Sm521 2.386 . S
O542 C529 1.271 . S
O543 Sm520 2.464 . S
O543 C529 1.251 . S
O544 Sm520 2.396 . S
O544 C530 1.252 . S
O545 Sm521 2.408 . S
O545 C530 1.272 . S
O546 Sm521 2.543 . S
O546 C531 1.261 . S
O547 Sm521 2.450 . S
O547 C531 1.242 . S
O548 Sm520 2.386 . S
O548 Sm521 2.681 . S
O548 C538 1.271 . S
O549 Sm521 2.464 . S
O549 C538 1.251 . S
O550 Sm521 2.396 . S
O550 C539 1.252 . S
O551 Sm520 2.408 . S
O551 C539 1.272 . S
H552 C524 0.930 . S
H553 C525 0.929 . S
H554 C527 0.930 . S
H555 C528 0.929 . S
H556 C533 0.930 . S
H557 C534 0.929 . S
H558 C536 0.930 . S
H559 C537 0.929 . S
Sm560 C562 2.846 . S
Sm560 O580 2.543 . S
Sm560 O581 2.450 . S
Sm560 O582 2.681 . S
Sm560 O583 2.464 . S
Sm560 O584 2.396 . S
Sm560 O588 2.386 . S
Sm560 O591 2.408 . S
Sm561 C571 2.846 . S
Sm561 O582 2.386 . S
Sm561 O585 2.408 . S
Sm561 O586 2.543 . S
Sm561 O587 2.450 . S
Sm561 O588 2.681 . S
Sm561 O589 2.464 . S
Sm561 O590 2.396 . S
C562 Sm560 2.846 . S
C562 C563 1.506 . S
C562 O580 1.261 . S
C562 O581 1.242 . S
C563 C562 1.506 . S
C563 C564 1.358 . S
C563 C568 1.382 . S
C564 C563 1.358 . S
C564 C565 1.385 . S
C564 H592 0.930 . S
C565 C564 1.385 . S
C565 C566 1.395 . S
C565 H593 0.929 . S
C566 C565 1.395 . S
C566 C567 1.335 . S
C567 C566 1.335 . S
C567 C568 1.398 . S
C567 H594 0.930 . S
C568 C563 1.382 . S
C568 C567 1.398 . S
C568 H595 0.929 . S
C569 O582 1.271 . S
C569 O583 1.251 . S
C570 O584 1.252 . S
C570 O585 1.272 . S
C571 Sm561 2.846 . S
C571 C572 1.506 . S
C571 O586 1.261 . S
C571 O587 1.242 . S
C572 C571 1.506 . S
C572 C573 1.358 . S
C572 C577 1.382 . S
C573 C572 1.358 . S
C573 C574 1.385 . S
C573 H596 0.930 . S
C574 C573 1.385 . S
C574 C575 1.395 . S
C574 H597 0.929 . S
C575 C574 1.395 . S
C575 C576 1.335 . S
C576 C575 1.335 . S
C576 C577 1.398 . S
C576 H598 0.930 . S
C577 C572 1.382 . S
C577 C576 1.398 . S
C577 H599 0.929 . S
C578 O588 1.271 . S
C578 O589 1.251 . S
C579 O590 1.252 . S
C579 O591 1.272 . S
O580 Sm560 2.543 . S
O580 C562 1.261 . S
O581 Sm560 2.450 . S
O581 C562 1.242 . S
O582 Sm560 2.681 . S
O582 Sm561 2.386 . S
O582 C569 1.271 . S
O583 Sm560 2.464 . S
O583 C569 1.251 . S
O584 Sm560 2.396 . S
O584 C570 1.252 . S
O585 Sm561 2.408 . S
O585 C570 1.272 . S
O586 Sm561 2.543 . S
O586 C571 1.261 . S
O587 Sm561 2.450 . S
O587 C571 1.242 . S
O588 Sm560 2.386 . S
O588 Sm561 2.681 . S
O588 C578 1.271 . S
O589 Sm561 2.464 . S
O589 C578 1.251 . S
O590 Sm561 2.396 . S
O590 C579 1.252 . S
O591 Sm560 2.408 . S
O591 C579 1.272 . S
H592 C564 0.930 . S
H593 C565 0.929 . S
H594 C567 0.930 . S
H595 C568 0.929 . S
H596 C573 0.930 . S
H597 C574 0.929 . S
H598 C576 0.930 . S
H599 C577 0.929 . S
Sm600 C602 2.846 . S
Sm600 O620 2.543 . S
Sm600 O621 2.450 . S
Sm600 O622 2.681 . S
Sm600 O623 2.464 . S
Sm600 O624 2.396 . S
Sm600 O628 2.386 . S
Sm600 O631 2.408 . S
Sm601 C611 2.846 . S
Sm601 O622 2.386 . S
Sm601 O625 2.408 . S
Sm601 O626 2.543 . S
Sm601 O627 2.450 . S
Sm601 O628 2.681 . S
Sm601 O629 2.464 . S
Sm601 O630 2.396 . S
C602 Sm600 2.846 . S
C602 C603 1.506 . S
C602 O620 1.261 . S
C602 O621 1.242 . S
C603 C602 1.506 . S
C603 C604 1.358 . S
C603 C608 1.382 . S
C604 C603 1.358 . S
C604 C605 1.385 . S
C604 H632 0.930 . S
C605 C604 1.385 . S
C605 C606 1.395 . S
C605 H633 0.929 . S
C606 C605 1.395 . S
C606 C607 1.335 . S
C607 C606 1.335 . S
C607 C608 1.398 . S
C607 H634 0.930 . S
C608 C603 1.382 . S
C608 C607 1.398 . S
C608 H635 0.929 . S
C609 O622 1.271 . S
C609 O623 1.251 . S
C610 O624 1.252 . S
C610 O625 1.272 . S
C611 Sm601 2.846 . S
C611 C612 1.506 . S
C611 O626 1.261 . S
C611 O627 1.242 . S
C612 C611 1.506 . S
C612 C613 1.358 . S
C612 C617 1.382 . S
C613 C612 1.358 . S
C613 C614 1.385 . S
C613 H636 0.930 . S
C614 C613 1.385 . S
C614 C615 1.395 . S
C614 H637 0.929 . S
C615 C614 1.395 . S
C615 C616 1.335 . S
C616 C615 1.335 . S
C616 C617 1.398 . S
C616 H638 0.930 . S
C617 C612 1.382 . S
C617 C616 1.398 . S
C617 H639 0.929 . S
C618 O628 1.271 . S
C618 O629 1.251 . S
C619 O630 1.252 . S
C619 O631 1.272 . S
O620 Sm600 2.543 . S
O620 C602 1.261 . S
O621 Sm600 2.450 . S
O621 C602 1.242 . S
O622 Sm600 2.681 . S
O622 Sm601 2.386 . S
O622 C609 1.271 . S
O623 Sm600 2.464 . S
O623 C609 1.251 . S
O624 Sm600 2.396 . S
O624 C610 1.252 . S
O625 Sm601 2.408 . S
O625 C610 1.272 . S
O626 Sm601 2.543 . S
O626 C611 1.261 . S
O627 Sm601 2.450 . S
O627 C611 1.242 . S
O628 Sm600 2.386 . S
O628 Sm601 2.681 . S
O628 C618 1.271 . S
O629 Sm601 2.464 . S
O629 C618 1.251 . S
O630 Sm601 2.396 . S
O630 C619 1.252 . S
O631 Sm600 2.408 . S
O631 C619 1.272 . S
H632 C604 0.930 . S
H633 C605 0.929 . S
H634 C607 0.930 . S
H635 C608 0.929 . S
H636 C613 0.930 . S
H637 C614 0.929 . S
H638 C616 0.930 . S
H639 C617 0.929 . S
H640 C646 0.930 . S
H641 C649 0.930 . S
H642 C650 0.930 . S
H643 C651 0.930 . S
H644 C654 0.930 . S
H645 C655 0.930 . S
C646 H640 0.930 . S
C646 C647 1.355 . S
C646 C648 1.415 . S
C647 C646 1.355 . S
C647 C649 1.419 . S
C648 C646 1.415 . S
C648 C653 1.425 . S
C648 C655 1.409 . S
C649 H641 0.930 . S
C649 C647 1.419 . S
C649 C650 1.362 . S
C650 H642 0.930 . S
C650 C649 1.362 . S
C650 C653 1.409 . S
C651 H643 0.930 . S
C651 C652 1.355 . S
C651 C653 1.415 1_545 S
C652 C651 1.355 . S
C652 C654 1.419 . S
C653 C648 1.425 . S
C653 C650 1.409 . S
C653 C651 1.415 1_565 S
C654 H644 0.930 . S
C654 C652 1.419 . S
C654 C655 1.362 1_545 S
C655 H645 0.930 . S
C655 C648 1.409 . S
C655 C654 1.362 1_565 S
H656 C662 0.930 . S
H657 C665 0.930 . S
H658 C666 0.930 . S
H659 C667 0.930 . S
H660 C670 0.930 . S
H661 C671 0.930 . S
C662 H656 0.930 . S
C662 C663 1.355 . S
C662 C664 1.415 . S
C663 C662 1.355 . S
C663 C665 1.419 . S
C664 C662 1.415 . S
C664 C669 1.425 . S
C664 C671 1.409 1_655 S
C665 H657 0.930 . S
C665 C663 1.419 . S
C665 C666 1.362 . S
C666 H658 0.930 . S
C666 C665 1.362 . S
C666 C669 1.409 . S
C667 H659 0.930 . S
C667 C668 1.355 1_655 S
C667 C669 1.415 . S
C668 C667 1.355 1_455 S
C668 C670 1.419 . S
C669 C664 1.425 . S
C669 C666 1.409 . S
C669 C667 1.415 . S
C670 H660 0.930 . S
C670 C668 1.419 . S
C670 C671 1.362 . S
C671 H661 0.930 . S
C671 C664 1.409 1_455 S
C671 C670 1.362 . S
H672 C678 0.930 . S
H673 C681 0.938 . S
H674 C682 0.930 . S
H675 C683 0.930 . S
H676 C686 0.930 . S
H677 C687 0.930 . S
C678 H672 0.930 . S
C678 C679 1.355 . S
C678 C680 1.415 1_565 S
C679 C678 1.355 . S
C679 C681 1.430 . S
C680 C678 1.415 1_545 S
C680 C685 1.425 . S
C680 C687 1.409 . S
C681 H673 0.938 . S
C681 C679 1.430 . S
C681 C682 1.343 1_565 S
C682 H674 0.930 . S
C682 C681 1.343 1_545 S
C682 C685 1.409 . S
C683 H675 0.930 . S
C683 C684 1.355 . S
C683 C685 1.415 . S
C684 C683 1.355 . S
C684 C686 1.419 . S
C685 C680 1.425 . S
C685 C682 1.409 . S
C685 C683 1.415 . S
C686 H676 0.930 . S
C686 C684 1.419 . S
C686 C687 1.362 . S
C687 H677 0.930 . S
C687 C680 1.409 . S
C687 C686 1.362 . S
H688 C694 0.930 1_655 S
H689 C697 0.930 . S
H690 C698 0.930 . S
H691 C699 0.930 . S
H692 C702 0.930 . S
H693 C703 0.930 . S
C694 H688 0.930 1_455 S
C694 C695 1.355 1_455 S
C694 C696 1.415 . S
C695 C694 1.355 1_655 S
C695 C697 1.419 . S
C696 C694 1.415 . S
C696 C701 1.425 . S
C696 C703 1.409 . S
C697 H689 0.930 . S
C697 C695 1.419 . S
C697 C698 1.362 1_655 S
C698 H690 0.930 . S
C698 C697 1.362 1_455 S
C698 C701 1.409 . S
C699 H691 0.930 . S
C699 C700 1.355 . S
C699 C701 1.415 . S
C700 C699 1.355 . S
C700 C702 1.419 . S
C701 C696 1.425 . S
C701 C698 1.409 . S
C701 C699 1.415 . S
C702 H692 0.930 . S
C702 C700 1.419 . S
C702 C703 1.362 . S
C703 H693 0.930 . S
C703 C696 1.409 . S
C703 C702 1.362 . S
H704 C710 0.930 . S
H705 C713 0.930 . S
H706 C714 0.930 . S
H707 C715 0.933 . S
H708 C718 0.930 1_556 S
H709 C719 0.930 . S
C710 H704 0.930 . S
C710 C711 1.355 . S
C710 C712 1.415 . S
C711 C710 1.355 . S
C711 C713 1.419 . S
C712 C710 1.415 . S
C712 C717 1.425 . S
C712 C719 1.409 . S
C713 H705 0.930 . S
C713 C711 1.419 . S
C713 C714 1.362 . S
C714 H706 0.930 . S
C714 C713 1.362 . S
C714 C717 1.409 . S
C715 H707 0.933 . S
C715 C716 1.357 . S
C715 C717 1.410 1_556 S
C716 C715 1.357 . S
C716 C718 1.419 1_556 S
C717 C712 1.425 . S
C717 C714 1.409 . S
C717 C715 1.410 1_554 S
C718 H708 0.930 1_554 S
C718 C716 1.419 1_554 S
C718 C719 1.362 . S
C719 H709 0.930 . S
C719 C712 1.409 . S
C719 C718 1.362 . S
H720 C726 0.930 . S
H721 C729 0.930 . S
H722 C730 0.930 . S
H723 C731 0.930 . S
H724 C734 0.930 . S
H725 C735 0.930 . S
C726 H720 0.930 . S
C726 C727 1.355 1_556 S
C726 C728 1.415 . S
C727 C726 1.355 1_554 S
C727 C729 1.419 . S
C728 C726 1.415 . S
C728 C733 1.425 . S
C728 C735 1.409 . S
C729 H721 0.930 . S
C729 C727 1.419 . S
C729 C730 1.362 . S
C730 H722 0.930 . S
C730 C729 1.362 . S
C730 C733 1.409 1_554 S
C731 H723 0.930 . S
C731 C732 1.355 . S
C731 C733 1.415 . S
C732 C731 1.355 . S
C732 C734 1.419 . S
C733 C728 1.425 . S
C733 C730 1.409 1_556 S
C733 C731 1.415 . S
C734 H724 0.930 . S
C734 C732 1.419 . S
C734 C735 1.362 . S
C735 H725 0.930 . S
C735 C728 1.409 . S
C735 C734 1.362 . S
H736 C742 0.930 . S
H737 C745 0.930 . S
H738 C746 0.930 . S
H739 C747 0.930 . S
H740 C750 0.930 . S
H741 C751 0.930 . S
C742 H736 0.930 . S
C742 C743 1.355 . S
C742 C744 1.415 . S
C743 C742 1.355 . S
C743 C745 1.419 . S
C744 C742 1.415 . S
C744 C749 1.425 . S
C744 C751 1.409 . S
C745 H737 0.930 . S
C745 C743 1.419 . S
C745 C746 1.362 1_554 S
C746 H738 0.930 . S
C746 C745 1.362 1_556 S
C746 C749 1.409 1_556 S
C747 H739 0.930 . S
C747 C748 1.355 . S
C747 C749 1.415 1_556 S
C748 C747 1.355 . S
C748 C750 1.419 1_556 S
C749 C744 1.425 . S
C749 C746 1.409 1_554 S
C749 C747 1.415 1_554 S
C750 H740 0.930 . S
C750 C748 1.419 1_554 S
C750 C751 1.362 . S
C751 H741 0.930 . S
C751 C744 1.409 . S
C751 C750 1.362 . S
H752 C758 0.930 . S
H753 C761 0.930 . S
H754 C762 0.930 . S
H755 C763 0.930 . S
H756 C766 0.930 . S
H757 C767 0.930 . S
C758 H752 0.930 . S
C758 C759 1.355 . S
C758 C760 1.415 1_554 S
C759 C758 1.355 . S
C759 C761 1.419 1_554 S
C760 C758 1.415 1_556 S
C760 C765 1.425 . S
C760 C767 1.409 . S
C761 H753 0.930 . S
C761 C759 1.419 1_556 S
C761 C762 1.362 . S
C762 H754 0.930 . S
C762 C761 1.362 . S
C762 C765 1.409 . S
C763 H755 0.930 . S
C763 C764 1.355 . S
C763 C765 1.415 . S
C764 C763 1.355 . S
C764 C766 1.419 . S
C765 C760 1.425 . S
C765 C762 1.409 . S
C765 C763 1.415 . S
C766 H756 0.930 . S
C766 C764 1.419 . S
C766 C767 1.362 . S
C767 H757 0.930 . S
C767 C760 1.409 . S
C767 C766 1.362 . S
H768 C774 0.930 . S
H769 C777 0.930 . S
H770 C778 0.930 . S
H771 C779 0.930 . S
H772 C782 0.930 . S
H773 C783 0.930 . S
C774 H768 0.930 . S
C774 C775 1.355 . S
C774 C776 1.415 . S
C775 C774 1.355 . S
C775 C777 1.419 . S
C776 C774 1.415 . S
C776 C781 1.425 . S
C776 C783 1.409 . S
C777 H769 0.930 . S
C777 C775 1.419 . S
C777 C778 1.362 . S
C778 H770 0.930 . S
C778 C777 1.362 . S
C778 C781 1.409 . S
C779 H771 0.930 . S
C779 C780 1.355 . S
C779 C781 1.415 . S
C780 C779 1.355 . S
C780 C782 1.419 . S
C781 C776 1.425 . S
C781 C778 1.409 . S
C781 C779 1.415 . S
C782 H772 0.930 . S
C782 C780 1.419 . S
C782 C783 1.362 . S
C783 H773 0.930 . S
C783 C776 1.409 . S
C783 C782 1.362 . S
H784 C790 0.930 . S
H785 C793 0.930 . S
H786 C794 0.930 . S
H787 C795 0.930 . S
H788 C798 0.930 . S
H789 C799 0.930 . S
C790 H784 0.930 . S
C790 C791 1.355 . S
C790 C792 1.415 . S
C791 C790 1.355 . S
C791 C793 1.419 . S
C792 C790 1.415 . S
C792 C797 1.425 . S
C792 C799 1.409 . S
C793 H785 0.930 . S
C793 C791 1.419 . S
C793 C794 1.362 . S
C794 H786 0.930 . S
C794 C793 1.362 . S
C794 C797 1.409 . S
C795 H787 0.930 . S
C795 C796 1.355 . S
C795 C797 1.415 . S
C796 C795 1.355 . S
C796 C798 1.419 . S
C797 C792 1.425 . S
C797 C794 1.409 . S
C797 C795 1.415 . S
C798 H788 0.930 . S
C798 C796 1.419 . S
C798 C799 1.362 . S
C799 H789 0.930 . S
C799 C792 1.409 . S
C799 C798 1.362 . S
H800 C806 0.930 . S
H801 C809 0.930 . S
H802 C810 0.930 . S
H803 C811 0.930 . S
H804 C814 0.930 . S
H805 C815 0.930 . S
C806 H800 0.930 . S
C806 C807 1.355 . S
C806 C808 1.415 . S
C807 C806 1.355 . S
C807 C809 1.419 . S
C808 C806 1.415 . S
C808 C813 1.425 . S
C808 C815 1.409 . S
C809 H801 0.930 . S
C809 C807 1.419 . S
C809 C810 1.362 . S
C810 H802 0.930 . S
C810 C809 1.362 . S
C810 C813 1.409 . S
C811 H803 0.930 . S
C811 C812 1.355 . S
C811 C813 1.415 . S
C812 C811 1.355 . S
C812 C814 1.419 . S
C813 C808 1.425 . S
C813 C810 1.409 . S
C813 C811 1.415 . S
C814 H804 0.930 . S
C814 C812 1.419 . S
C814 C815 1.362 . S
C815 H805 0.930 . S
C815 C808 1.409 . S
C815 C814 1.362 . S
H816 C822 0.930 . S
H817 C825 0.930 . S
H818 C826 0.930 . S
H819 C827 0.930 . S
H820 C830 0.930 . S
H821 C831 0.930 . S
C822 H816 0.930 . S
C822 C823 1.355 . S
C822 C824 1.415 . S
C823 C822 1.355 . S
C823 C825 1.419 . S
C824 C822 1.415 . S
C824 C829 1.425 . S
C824 C831 1.409 . S
C825 H817 0.930 . S
C825 C823 1.419 . S
C825 C826 1.362 . S
C826 H818 0.930 . S
C826 C825 1.362 . S
C826 C829 1.409 . S
C827 H819 0.930 . S
C827 C828 1.355 . S
C827 C829 1.415 . S
C828 C827 1.355 . S
C828 C830 1.419 . S
C829 C824 1.425 . S
C829 C826 1.409 . S
C829 C827 1.415 . S
C830 H820 0.930 . S
C830 C828 1.419 . S
C830 C831 1.362 . S
C831 H821 0.930 . S
C831 C824 1.409 . S
C831 C830 1.362 . S
H832 C838 0.930 . S
H833 C841 0.930 . S
H834 C842 0.930 . S
H835 C843 0.930 . S
H836 C846 0.930 . S
H837 C847 0.930 . S
C838 H832 0.930 . S
C838 C839 1.355 1_545 S
C838 C840 1.415 . S
C839 C838 1.355 1_565 S
C839 C841 1.419 . S
C840 C838 1.415 . S
C840 C845 1.425 . S
C840 C847 1.409 . S
C841 H833 0.930 . S
C841 C839 1.419 . S
C841 C842 1.362 . S
C842 H834 0.930 . S
C842 C841 1.362 . S
C842 C845 1.409 1_565 S
C843 H835 0.930 . S
C843 C844 1.355 . S
C843 C845 1.415 . S
C844 C843 1.355 . S
C844 C846 1.419 . S
C845 C840 1.425 . S
C845 C842 1.409 1_545 S
C845 C843 1.415 . S
C846 H836 0.930 . S
C846 C844 1.419 . S
C846 C847 1.362 . S
C847 H837 0.930 . S
C847 C840 1.409 . S
C847 C846 1.362 . S
H848 C854 0.930 . S
H849 C857 0.930 . S
H850 C858 0.930 . S
H851 C859 0.930 . S
H852 C862 0.930 . S
H853 C863 0.930 . S
C854 H848 0.930 . S
C854 C855 1.355 . S
C854 C856 1.415 . S
C855 C854 1.355 . S
C855 C857 1.419 . S
C856 C854 1.415 . S
C856 C861 1.425 . S
C856 C863 1.409 1_455 S
C857 H849 0.930 . S
C857 C855 1.419 . S
C857 C858 1.362 . S
C858 H850 0.930 . S
C858 C857 1.362 . S
C858 C861 1.409 . S
C859 H851 0.930 . S
C859 C860 1.355 1_455 S
C859 C861 1.415 . S
C860 C859 1.355 1_655 S
C860 C862 1.419 . S
C861 C856 1.425 . S
C861 C858 1.409 . S
C861 C859 1.415 . S
C862 H852 0.930 . S
C862 C860 1.419 . S
C862 C863 1.362 . S
C863 H853 0.930 . S
C863 C856 1.409 1_655 S
C863 C862 1.362 . S
H864 C870 0.930 . S
H865 C873 0.930 . S
H866 C874 0.930 . S
H867 C875 0.929 . S
H868 C878 0.930 . S
H869 C879 0.930 . S
C870 H864 0.930 . S
C870 C871 1.355 . S
C870 C872 1.415 . S
C871 C870 1.355 . S
C871 C873 1.419 . S
C872 C870 1.415 . S
C872 C877 1.425 . S
C872 C879 1.409 . S
C873 H865 0.930 . S
C873 C871 1.419 . S
C873 C874 1.362 . S
C874 H866 0.930 . S
C874 C873 1.362 . S
C874 C877 1.409 . S
C875 H867 0.929 . S
C875 C876 1.353 . S
C875 C877 1.417 1_545 S
C876 C875 1.353 . S
C876 C878 1.419 . S
C877 C872 1.425 . S
C877 C874 1.409 . S
C877 C875 1.417 1_565 S
C878 H868 0.930 . S
C878 C876 1.419 . S
C878 C879 1.362 1_545 S
C879 H869 0.930 . S
C879 C872 1.409 . S
C879 C878 1.362 1_565 S
H880 C886 0.930 . S
H881 C889 0.930 . S
H882 C890 0.930 . S
H883 C891 0.930 . S
H884 C894 0.930 . S
H885 C895 0.930 . S
C886 H880 0.930 . S
C886 C887 1.355 . S
C886 C888 1.415 1_455 S
C887 C886 1.355 . S
C887 C889 1.419 . S
C888 C886 1.415 1_655 S
C888 C893 1.425 . S
C888 C895 1.409 . S
C889 H881 0.930 . S
C889 C887 1.419 . S
C889 C890 1.362 1_455 S
C890 H882 0.930 . S
C890 C889 1.362 1_655 S
C890 C893 1.409 . S
C891 H883 0.930 . S
C891 C892 1.355 . S
C891 C893 1.415 . S
C892 C891 1.355 . S
C892 C894 1.419 . S
C893 C888 1.425 . S
C893 C890 1.409 . S
C893 C891 1.415 . S
C894 H884 0.930 . S
C894 C892 1.419 . S
C894 C895 1.362 . S
C895 H885 0.930 . S
C895 C888 1.409 . S
C895 C894 1.362 . S
H896 C902 0.930 . S
H897 C905 0.930 . S
H898 C906 0.930 . S
H899 C907 0.930 . S
H900 C910 0.930 . S
H901 C911 0.930 . S
C902 H896 0.930 . S
C902 C903 1.355 . S
C902 C904 1.415 . S
C903 C902 1.355 . S
C903 C905 1.419 . S
C904 C902 1.415 . S
C904 C909 1.425 . S
C904 C911 1.409 . S
C905 H897 0.930 . S
C905 C903 1.419 . S
C905 C906 1.362 . S
C906 H898 0.930 . S
C906 C905 1.362 . S
C906 C909 1.409 . S
C907 H899 0.930 . S
C907 C908 1.355 . S
C907 C909 1.415 . S
C908 C907 1.355 . S
C908 C910 1.419 . S
C909 C904 1.425 . S
C909 C906 1.409 . S
C909 C907 1.415 . S
C910 H900 0.930 . S
C910 C908 1.419 . S
C910 C911 1.362 . S
C911 H901 0.930 . S
C911 C904 1.409 . S
C911 C910 1.362 . S
H912 C918 0.930 . S
H913 C921 0.930 . S
H914 C922 0.930 . S
H915 C923 0.930 . S
H916 C926 0.930 . S
H917 C927 0.930 . S
C918 H912 0.930 . S
C918 C919 1.355 . S
C918 C920 1.415 . S
C919 C918 1.355 . S
C919 C921 1.419 . S
C920 C918 1.415 . S
C920 C925 1.425 . S
C920 C927 1.409 . S
C921 H913 0.930 . S
C921 C919 1.419 . S
C921 C922 1.362 . S
C922 H914 0.930 . S
C922 C921 1.362 . S
C922 C925 1.409 . S
C923 H915 0.930 . S
C923 C924 1.355 . S
C923 C925 1.415 . S
C924 C923 1.355 . S
C924 C926 1.419 . S
C925 C920 1.425 . S
C925 C922 1.409 . S
C925 C923 1.415 . S
C926 H916 0.930 . S
C926 C924 1.419 . S
C926 C927 1.362 . S
C927 H917 0.930 . S
C927 C920 1.409 . S
C927 C926 1.362 . S
H928 C934 0.930 . S
H929 C937 0.930 . S
H930 C938 0.930 . S
H931 C939 0.930 . S
H932 C942 0.930 . S
H933 C943 0.930 . S
C934 H928 0.930 . S
C934 C935 1.355 . S
C934 C936 1.415 . S
C935 C934 1.355 . S
C935 C937 1.419 . S
C936 C934 1.415 . S
C936 C941 1.425 . S
C936 C943 1.409 . S
C937 H929 0.930 . S
C937 C935 1.419 . S
C937 C938 1.362 . S
C938 H930 0.930 . S
C938 C937 1.362 . S
C938 C941 1.409 . S
C939 H931 0.930 . S
C939 C940 1.355 . S
C939 C941 1.415 . S
C940 C939 1.355 . S
C940 C942 1.419 . S
C941 C936 1.425 . S
C941 C938 1.409 . S
C941 C939 1.415 . S
C942 H932 0.930 . S
C942 C940 1.419 . S
C942 C943 1.362 . S
C943 H933 0.930 . S
C943 C936 1.409 . S
C943 C942 1.362 . S
H944 C950 0.930 . S
H945 C953 0.930 . S
H946 C954 0.930 . S
H947 C955 0.930 . S
H948 C958 0.930 . S
H949 C959 0.930 . S
C950 H944 0.930 . S
C950 C951 1.355 . S
C950 C952 1.415 . S
C951 C950 1.355 . S
C951 C953 1.419 . S
C952 C950 1.415 . S
C952 C957 1.425 . S
C952 C959 1.409 . S
C953 H945 0.930 . S
C953 C951 1.419 . S
C953 C954 1.362 . S
C954 H946 0.930 . S
C954 C953 1.362 . S
C954 C957 1.409 . S
C955 H947 0.930 . S
C955 C956 1.355 . S
C955 C957 1.415 . S
C956 C955 1.355 . S
C956 C958 1.419 . S
C957 C952 1.425 . S
C957 C954 1.409 . S
C957 C955 1.415 . S
C958 H948 0.930 . S
C958 C956 1.419 . S
C958 C959 1.362 . S
C959 H949 0.930 . S
C959 C952 1.409 . S
C959 C958 1.362 . S
H960 C966 0.930 . S
H961 C969 0.930 . S
H962 C970 0.930 . S
H963 C971 0.930 . S
H964 C974 0.930 . S
H965 C975 0.930 . S
C966 H960 0.930 . S
C966 C967 1.355 . S
C966 C968 1.415 . S
C967 C966 1.355 . S
C967 C969 1.419 . S
C968 C966 1.415 . S
C968 C973 1.425 . S
C968 C975 1.409 . S
C969 H961 0.930 . S
C969 C967 1.419 . S
C969 C970 1.362 . S
C970 H962 0.930 . S
C970 C969 1.362 . S
C970 C973 1.409 . S
C971 H963 0.930 . S
C971 C972 1.355 . S
C971 C973 1.415 . S
C972 C971 1.355 . S
C972 C974 1.419 . S
C973 C968 1.425 . S
C973 C970 1.409 . S
C973 C971 1.415 . S
C974 H964 0.930 . S
C974 C972 1.419 . S
C974 C975 1.362 . S
C975 H965 0.930 . S
C975 C968 1.409 . S
C975 C974 1.362 . S
H976 C982 0.930 . S
H977 C985 0.930 . S
H978 C986 0.930 . S
H979 C987 0.930 . S
H980 C990 0.930 . S
H981 C991 0.930 . S
C982 H976 0.930 . S
C982 C983 1.355 . S
C982 C984 1.415 . S
C983 C982 1.355 . S
C983 C985 1.419 . S
C984 C982 1.415 . S
C984 C989 1.425 . S
C984 C991 1.409 . S
C985 H977 0.930 . S
C985 C983 1.419 . S
C985 C986 1.362 . S
C986 H978 0.930 . S
C986 C985 1.362 . S
C986 C989 1.409 . S
C987 H979 0.930 . S
C987 C988 1.355 . S
C987 C989 1.415 . S
C988 C987 1.355 . S
C988 C990 1.419 . S
C989 C984 1.425 . S
C989 C986 1.409 . S
C989 C987 1.415 . S
C990 H980 0.930 . S
C990 C988 1.419 . S
C990 C991 1.362 . S
C991 H981 0.930 . S
C991 C984 1.409 . S
C991 C990 1.362 . S
H992 C998 0.930 . S
H993 C1001 0.930 . S
H994 C1002 0.930 . S
H995 C1003 0.930 . S
H996 C1006 0.930 . S
H997 C1007 0.930 . S
C998 H992 0.930 . S
C998 C999 1.355 . S
C998 C1000 1.415 . S
C999 C998 1.355 . S
C999 C1001 1.419 . S
C1000 C998 1.415 . S
C1000 C1005 1.425 . S
C1000 C1007 1.409 . S
C1001 H993 0.930 . S
C1001 C999 1.419 . S
C1001 C1002 1.362 . S
C1002 H994 0.930 . S
C1002 C1001 1.362 . S
C1002 C1005 1.409 . S
C1003 H995 0.930 . S
C1003 C1004 1.355 . S
C1003 C1005 1.415 . S
C1004 C1003 1.355 . S
C1004 C1006 1.419 . S
C1005 C1000 1.425 . S
C1005 C1002 1.409 . S
C1005 C1003 1.415 . S
C1006 H996 0.930 . S
C1006 C1004 1.419 . S
C1006 C1007 1.362 . S
C1007 H997 0.930 . S
C1007 C1000 1.409 . S
C1007 C1006 1.362 . S
H1008 C1014 0.930 . S
H1009 C1017 0.930 . S
H1010 C1018 0.930 . S
H1011 C1019 0.930 . S
H1012 C1022 0.930 . S
H1013 C1023 0.930 . S
C1014 H1008 0.930 . S
C1014 C1015 1.355 . S
C1014 C1016 1.415 . S
C1015 C1014 1.355 . S
C1015 C1017 1.419 . S
C1016 C1014 1.415 . S
C1016 C1021 1.425 . S
C1016 C1023 1.409 . S
C1017 H1009 0.930 . S
C1017 C1015 1.419 . S
C1017 C1018 1.362 . S
C1018 H1010 0.930 . S
C1018 C1017 1.362 . S
C1018 C1021 1.409 . S
C1019 H1011 0.930 . S
C1019 C1020 1.355 . S
C1019 C1021 1.415 . S
C1020 C1019 1.355 . S
C1020 C1022 1.419 . S
C1021 C1016 1.425 . S
C1021 C1018 1.409 . S
C1021 C1019 1.415 . S
C1022 H1012 0.930 . S
C1022 C1020 1.419 . S
C1022 C1023 1.362 . S
C1023 H1013 0.930 . S
C1023 C1016 1.409 . S
C1023 C1022 1.362 . S
H1024 C1030 0.930 . S
H1025 C1033 0.930 . S
H1026 C1034 0.930 . S
H1027 C1035 0.930 . S
H1028 C1038 0.930 . S
H1029 C1039 0.930 . S
C1030 H1024 0.930 . S
C1030 C1031 1.355 . S
C1030 C1032 1.415 . S
C1031 C1030 1.355 . S
C1031 C1033 1.419 . S
C1032 C1030 1.415 . S
C1032 C1037 1.425 . S
C1032 C1039 1.409 . S
C1033 H1025 0.930 . S
C1033 C1031 1.419 . S
C1033 C1034 1.362 . S
C1034 H1026 0.930 . S
C1034 C1033 1.362 . S
C1034 C1037 1.409 . S
C1035 H1027 0.930 . S
C1035 C1036 1.355 . S
C1035 C1037 1.415 . S
C1036 C1035 1.355 . S
C1036 C1038 1.419 . S
C1037 C1032 1.425 . S
C1037 C1034 1.409 . S
C1037 C1035 1.415 . S
C1038 H1028 0.930 . S
C1038 C1036 1.419 . S
C1038 C1039 1.362 . S
C1039 H1029 0.930 . S
C1039 C1032 1.409 . S
C1039 C1038 1.362 . S
H1040 C1046 0.930 . S
H1041 C1049 0.930 1_556 S
H1042 C1050 0.930 . S
H1043 C1051 0.930 . S
H1044 C1054 0.930 . S
H1045 C1055 0.930 . S
C1046 H1040 0.930 . S
C1046 C1047 1.355 . S
C1046 C1048 1.415 . S
C1047 C1046 1.355 . S
C1047 C1049 1.419 . S
C1048 C1046 1.415 . S
C1048 C1053 1.425 . S
C1048 C1055 1.409 . S
C1049 H1041 0.930 1_554 S
C1049 C1047 1.419 . S
C1049 C1050 1.362 . S
C1050 H1042 0.930 . S
C1050 C1049 1.362 . S
C1050 C1053 1.409 . S
C1051 H1043 0.930 . S
C1051 C1052 1.355 . S
C1051 C1053 1.415 . S
C1052 C1051 1.355 . S
C1052 C1054 1.419 . S
C1053 C1048 1.425 . S
C1053 C1050 1.409 . S
C1053 C1051 1.415 . S
C1054 H1044 0.930 . S
C1054 C1052 1.419 . S
C1054 C1055 1.362 . S
C1055 H1045 0.930 . S
C1055 C1048 1.409 . S
C1055 C1054 1.362 . S
H1056 C1062 0.930 . S
H1057 C1065 0.930 . S
H1058 C1066 0.930 . S
H1059 C1067 0.930 . S
H1060 C1070 0.930 . S
H1061 C1071 0.930 . S
C1062 H1056 0.930 . S
C1062 C1063 1.355 . S
C1062 C1064 1.415 . S
C1063 C1062 1.355 . S
C1063 C1065 1.419 . S
C1064 C1062 1.415 . S
C1064 C1069 1.425 . S
C1064 C1071 1.409 . S
C1065 H1057 0.930 . S
C1065 C1063 1.419 . S
C1065 C1066 1.362 . S
C1066 H1058 0.930 . S
C1066 C1065 1.362 . S
C1066 C1069 1.409 . S
C1067 H1059 0.930 . S
C1067 C1068 1.355 . S
C1067 C1069 1.415 . S
C1068 C1067 1.355 . S
C1068 C1070 1.419 . S
C1069 C1064 1.425 . S
C1069 C1066 1.409 . S
C1069 C1067 1.415 . S
C1070 H1060 0.930 . S
C1070 C1068 1.419 . S
C1070 C1071 1.362 . S
C1071 H1061 0.930 . S
C1071 C1064 1.409 . S
C1071 C1070 1.362 . S
H1072 C1078 0.930 . S
H1073 C1081 0.930 . S
H1074 C1082 0.930 . S
H1075 C1083 0.930 . S
H1076 C1086 0.930 . S
H1077 C1087 0.930 . S
C1078 H1072 0.930 . S
C1078 C1079 1.355 . S
C1078 C1080 1.415 . S
C1079 C1078 1.355 . S
C1079 C1081 1.419 . S
C1080 C1078 1.415 . S
C1080 C1085 1.425 . S
C1080 C1087 1.409 . S
C1081 H1073 0.930 . S
C1081 C1079 1.419 . S
C1081 C1082 1.362 . S
C1082 H1074 0.930 . S
C1082 C1081 1.362 . S
C1082 C1085 1.409 . S
C1083 H1075 0.930 . S
C1083 C1084 1.355 . S
C1083 C1085 1.415 . S
C1084 C1083 1.355 . S
C1084 C1086 1.419 . S
C1085 C1080 1.425 . S
C1085 C1082 1.409 . S
C1085 C1083 1.415 . S
C1086 H1076 0.930 . S
C1086 C1084 1.419 . S
C1086 C1087 1.362 . S
C1087 H1077 0.930 . S
C1087 C1080 1.409 . S
C1087 C1086 1.362 . S
H1088 C1094 0.930 . S
H1089 C1097 0.930 . S
H1090 C1098 0.930 . S
H1091 C1099 0.930 . S
H1092 C1102 0.930 . S
H1093 C1103 0.930 . S
C1094 H1088 0.930 . S
C1094 C1095 1.355 . S
C1094 C1096 1.415 . S
C1095 C1094 1.355 . S
C1095 C1097 1.419 . S
C1096 C1094 1.415 . S
C1096 C1101 1.425 . S
C1096 C1103 1.409 . S
C1097 H1089 0.930 . S
C1097 C1095 1.419 . S
C1097 C1098 1.362 . S
C1098 H1090 0.930 . S
C1098 C1097 1.362 . S
C1098 C1101 1.409 . S
C1099 H1091 0.930 . S
C1099 C1100 1.355 . S
C1099 C1101 1.415 . S
C1100 C1099 1.355 . S
C1100 C1102 1.419 . S
C1101 C1096 1.425 . S
C1101 C1098 1.409 . S
C1101 C1099 1.415 . S
C1102 H1092 0.930 . S
C1102 C1100 1.419 . S
C1102 C1103 1.362 . S
C1103 H1093 0.930 . S
C1103 C1096 1.409 . S
C1103 C1102 1.362 . S
H1104 C1110 0.930 . S
H1105 C1113 0.930 . S
H1106 C1114 0.930 . S
H1107 C1115 0.930 . S
H1108 C1118 0.930 . S
H1109 C1119 0.930 . S
C1110 H1104 0.930 . S
C1110 C1111 1.355 . S
C1110 C1112 1.415 . S
C1111 C1110 1.355 . S
C1111 C1113 1.419 . S
C1112 C1110 1.415 . S
C1112 C1117 1.425 . S
C1112 C1119 1.409 . S
C1113 H1105 0.930 . S
C1113 C1111 1.419 . S
C1113 C1114 1.362 . S
C1114 H1106 0.930 . S
C1114 C1113 1.362 . S
C1114 C1117 1.409 . S
C1115 H1107 0.930 . S
C1115 C1116 1.355 . S
C1115 C1117 1.415 . S
C1116 C1115 1.355 . S
C1116 C1118 1.419 . S
C1117 C1112 1.425 . S
C1117 C1114 1.409 . S
C1117 C1115 1.415 . S
C1118 H1108 0.930 . S
C1118 C1116 1.419 . S
C1118 C1119 1.362 . S
C1119 H1109 0.930 . S
C1119 C1112 1.409 . S
C1119 C1118 1.362 . S
H1120 C1126 0.930 . S
H1121 C1129 0.930 . S
H1122 C1130 0.930 . S
H1123 C1131 0.930 . S
H1124 C1134 0.930 . S
H1125 C1135 0.930 . S
C1126 H1120 0.930 . S
C1126 C1127 1.355 . S
C1126 C1128 1.415 . S
C1127 C1126 1.355 . S
C1127 C1129 1.419 . S
C1128 C1126 1.415 . S
C1128 C1133 1.425 . S
C1128 C1135 1.409 . S
C1129 H1121 0.930 . S
C1129 C1127 1.419 . S
C1129 C1130 1.362 . S
C1130 H1122 0.930 . S
C1130 C1129 1.362 . S
C1130 C1133 1.409 . S
C1131 H1123 0.930 . S
C1131 C1132 1.355 . S
C1131 C1133 1.415 . S
C1132 C1131 1.355 . S
C1132 C1134 1.419 . S
C1133 C1128 1.425 . S
C1133 C1130 1.409 . S
C1133 C1131 1.415 . S
C1134 H1124 0.930 . S
C1134 C1132 1.419 . S
C1134 C1135 1.362 . S
C1135 H1125 0.930 . S
C1135 C1128 1.409 . S
C1135 C1134 1.362 . S
H1136 C1142 0.930 . S
H1137 C1145 0.930 . S
H1138 C1146 0.930 . S
H1139 C1147 0.930 . S
H1140 C1150 0.930 . S
H1141 C1151 0.930 . S
C1142 H1136 0.930 . S
C1142 C1143 1.355 . S
C1142 C1144 1.415 . S
C1143 C1142 1.355 . S
C1143 C1145 1.419 . S
C1144 C1142 1.415 . S
C1144 C1149 1.425 . S
C1144 C1151 1.409 . S
C1145 H1137 0.930 . S
C1145 C1143 1.419 . S
C1145 C1146 1.362 . S
C1146 H1138 0.930 . S
C1146 C1145 1.362 . S
C1146 C1149 1.409 . S
C1147 H1139 0.930 . S
C1147 C1148 1.355 . S
C1147 C1149 1.415 . S
C1148 C1147 1.355 . S
C1148 C1150 1.419 . S
C1149 C1144 1.425 . S
C1149 C1146 1.409 . S
C1149 C1147 1.415 . S
C1150 H1140 0.930 . S
C1150 C1148 1.419 . S
C1150 C1151 1.362 . S
C1151 H1141 0.930 . S
C1151 C1144 1.409 . S
C1151 C1150 1.362 . S
H1152 C1158 0.930 . S
H1153 C1161 0.930 . S
H1154 C1162 0.930 . S
H1155 C1163 0.930 . S
H1156 C1166 0.930 . S
H1157 C1167 0.930 . S
C1158 H1152 0.930 . S
C1158 C1159 1.355 . S
C1158 C1160 1.415 . S
C1159 C1158 1.355 . S
C1159 C1161 1.419 . S
C1160 C1158 1.415 . S
C1160 C1165 1.425 . S
C1160 C1167 1.409 . S
C1161 H1153 0.930 . S
C1161 C1159 1.419 . S
C1161 C1162 1.362 . S
C1162 H1154 0.930 . S
C1162 C1161 1.362 . S
C1162 C1165 1.409 . S
C1163 H1155 0.930 . S
C1163 C1164 1.355 . S
C1163 C1165 1.415 . S
C1164 C1163 1.355 . S
C1164 C1166 1.419 . S
C1165 C1160 1.425 . S
C1165 C1162 1.409 . S
C1165 C1163 1.415 . S
C1166 H1156 0.930 . S
C1166 C1164 1.419 . S
C1166 C1167 1.362 . S
C1167 H1157 0.930 . S
C1167 C1160 1.409 . S
C1167 C1166 1.362 . S
H1168 C1174 0.930 . S
H1169 C1177 0.930 . S
H1170 C1178 0.930 . S
H1171 C1179 0.930 . S
H1172 C1182 0.930 . S
H1173 C1183 0.930 . S
C1174 H1168 0.930 . S
C1174 C1175 1.355 . S
C1174 C1176 1.415 . S
C1175 C1174 1.355 . S
C1175 C1177 1.419 . S
C1176 C1174 1.415 . S
C1176 C1181 1.425 . S
C1176 C1183 1.409 . S
C1177 H1169 0.930 . S
C1177 C1175 1.419 . S
C1177 C1178 1.362 . S
C1178 H1170 0.930 . S
C1178 C1177 1.362 . S
C1178 C1181 1.409 . S
C1179 H1171 0.930 . S
C1179 C1180 1.355 . S
C1179 C1181 1.415 . S
C1180 C1179 1.355 . S
C1180 C1182 1.419 . S
C1181 C1176 1.425 . S
C1181 C1178 1.409 . S
C1181 C1179 1.415 . S
C1182 H1172 0.930 . S
C1182 C1180 1.419 . S
C1182 C1183 1.362 . S
C1183 H1173 0.930 . S
C1183 C1176 1.409 . S
C1183 C1182 1.362 . S
H1184 C1190 0.930 . S
H1185 C1193 0.930 . S
H1186 C1194 0.930 . S
H1187 C1195 0.930 . S
H1188 C1198 0.930 . S
H1189 C1199 0.930 . S
C1190 H1184 0.930 . S
C1190 C1191 1.355 . S
C1190 C1192 1.415 . S
C1191 C1190 1.355 . S
C1191 C1193 1.419 . S
C1192 C1190 1.415 . S
C1192 C1197 1.425 . S
C1192 C1199 1.409 . S
C1193 H1185 0.930 . S
C1193 C1191 1.419 . S
C1193 C1194 1.362 . S
C1194 H1186 0.930 . S
C1194 C1193 1.362 . S
C1194 C1197 1.409 . S
C1195 H1187 0.930 . S
C1195 C1196 1.355 . S
C1195 C1197 1.415 . S
C1196 C1195 1.355 . S
C1196 C1198 1.419 . S
C1197 C1192 1.425 . S
C1197 C1194 1.409 . S
C1197 C1195 1.415 . S
C1198 H1188 0.930 . S
C1198 C1196 1.419 . S
C1198 C1199 1.362 . S
C1199 H1189 0.930 . S
C1199 C1192 1.409 . S
C1199 C1198 1.362 . S
H1200 C1206 0.930 . S
H1201 C1209 0.930 . S
H1202 C1210 0.930 . S
H1203 C1211 0.930 . S
H1204 C1214 0.930 . S
H1205 C1215 0.930 . S
C1206 H1200 0.930 . S
C1206 C1207 1.355 . S
C1206 C1208 1.415 . S
C1207 C1206 1.355 . S
C1207 C1209 1.419 . S
C1208 C1206 1.415 . S
C1208 C1213 1.425 . S
C1208 C1215 1.409 . S
C1209 H1201 0.930 . S
C1209 C1207 1.419 . S
C1209 C1210 1.362 . S
C1210 H1202 0.930 . S
C1210 C1209 1.362 . S
C1210 C1213 1.409 . S
C1211 H1203 0.930 . S
C1211 C1212 1.355 . S
C1211 C1213 1.415 . S
C1212 C1211 1.355 . S
C1212 C1214 1.419 . S
C1213 C1208 1.425 . S
C1213 C1210 1.409 . S
C1213 C1211 1.415 . S
C1214 H1204 0.930 . S
C1214 C1212 1.419 . S
C1214 C1215 1.362 . S
C1215 H1205 0.930 . S
C1215 C1208 1.409 . S
C1215 C1214 1.362 . S
H1216 C1222 0.930 . S
H1217 C1225 0.930 . S
H1218 C1226 0.930 . S
H1219 C1227 0.930 . S
H1220 C1230 0.930 . S
H1221 C1231 0.930 . S
C1222 H1216 0.930 . S
C1222 C1223 1.355 . S
C1222 C1224 1.415 . S
C1223 C1222 1.355 . S
C1223 C1225 1.419 . S
C1224 C1222 1.415 . S
C1224 C1229 1.425 . S
C1224 C1231 1.409 . S
C1225 H1217 0.930 . S
C1225 C1223 1.419 . S
C1225 C1226 1.362 . S
C1226 H1218 0.930 . S
C1226 C1225 1.362 . S
C1226 C1229 1.409 . S
C1227 H1219 0.930 . S
C1227 C1228 1.355 . S
C1227 C1229 1.415 . S
C1228 C1227 1.355 . S
C1228 C1230 1.419 . S
C1229 C1224 1.425 . S
C1229 C1226 1.409 . S
C1229 C1227 1.415 . S
C1230 H1220 0.930 . S
C1230 C1228 1.419 . S
C1230 C1231 1.362 . S
C1231 H1221 0.930 . S
C1231 C1224 1.409 . S
C1231 C1230 1.362 . S
H1232 C1238 0.930 . S
H1233 C1241 0.930 . S
H1234 C1242 0.930 . S
H1235 C1243 0.930 . S
H1236 C1246 0.930 . S
H1237 C1247 0.930 . S
C1238 H1232 0.930 . S
C1238 C1239 1.355 . S
C1238 C1240 1.415 . S
C1239 C1238 1.355 . S
C1239 C1241 1.419 . S
C1240 C1238 1.415 . S
C1240 C1245 1.425 . S
C1240 C1247 1.409 . S
C1241 H1233 0.930 . S
C1241 C1239 1.419 . S
C1241 C1242 1.362 . S
C1242 H1234 0.930 . S
C1242 C1241 1.362 . S
C1242 C1245 1.409 . S
C1243 H1235 0.930 . S
C1243 C1244 1.355 . S
C1243 C1245 1.415 . S
C1244 C1243 1.355 . S
C1244 C1246 1.419 . S
C1245 C1240 1.425 . S
C1245 C1242 1.409 . S
C1245 C1243 1.415 . S
C1246 H1236 0.930 . S
C1246 C1244 1.419 . S
C1246 C1247 1.362 . S
C1247 H1237 0.930 . S
C1247 C1240 1.409 . S
C1247 C1246 1.362 . S
H1248 C1254 0.930 . S
H1249 C1257 0.930 . S
H1250 C1258 0.930 . S
H1251 C1259 0.930 . S
H1252 C1262 0.930 . S
H1253 C1263 0.930 . S
C1254 H1248 0.930 . S
C1254 C1255 1.355 . S
C1254 C1256 1.415 . S
C1255 C1254 1.355 . S
C1255 C1257 1.419 . S
C1256 C1254 1.415 . S
C1256 C1261 1.425 . S
C1256 C1263 1.409 . S
C1257 H1249 0.930 . S
C1257 C1255 1.419 . S
C1257 C1258 1.362 . S
C1258 H1250 0.930 . S
C1258 C1257 1.362 . S
C1258 C1261 1.409 . S
C1259 H1251 0.930 . S
C1259 C1260 1.355 . S
C1259 C1261 1.415 . S
C1260 C1259 1.355 . S
C1260 C1262 1.419 . S
C1261 C1256 1.425 . S
C1261 C1258 1.409 . S
C1261 C1259 1.415 . S
C1262 H1252 0.930 . S
C1262 C1260 1.419 . S
C1262 C1263 1.362 . S
C1263 H1253 0.930 . S
C1263 C1256 1.409 . S
C1263 C1262 1.362 . S
H1264 C1270 0.930 . S
H1265 C1273 0.930 . S
H1266 C1274 0.930 . S
H1267 C1275 0.930 . S
H1268 C1278 0.930 . S
H1269 C1279 0.930 . S
C1270 H1264 0.930 . S
C1270 C1271 1.355 . S
C1270 C1272 1.415 . S
C1271 C1270 1.355 . S
C1271 C1273 1.419 . S
C1272 C1270 1.415 . S
C1272 C1277 1.425 . S
C1272 C1279 1.409 . S
C1273 H1265 0.930 . S
C1273 C1271 1.419 . S
C1273 C1274 1.362 . S
C1274 H1266 0.930 . S
C1274 C1273 1.362 . S
C1274 C1277 1.409 . S
C1275 H1267 0.930 . S
C1275 C1276 1.355 . S
C1275 C1277 1.415 . S
C1276 C1275 1.355 . S
C1276 C1278 1.419 . S
C1277 C1272 1.425 . S
C1277 C1274 1.409 . S
C1277 C1275 1.415 . S
C1278 H1268 0.930 . S
C1278 C1276 1.419 . S
C1278 C1279 1.362 . S
C1279 H1269 0.930 . S
C1279 C1272 1.409 . S
C1279 C1278 1.362 . S
H1280 C1286 0.930 . S
H1281 C1289 0.930 . S
H1282 C1290 0.930 . S
H1283 C1291 0.930 . S
H1284 C1294 0.930 . S
H1285 C1295 0.930 . S
C1286 H1280 0.930 . S
C1286 C1287 1.355 . S
C1286 C1288 1.415 . S
C1287 C1286 1.355 . S
C1287 C1289 1.419 . S
C1288 C1286 1.415 . S
C1288 C1293 1.425 . S
C1288 C1295 1.409 . S
C1289 H1281 0.930 . S
C1289 C1287 1.419 . S
C1289 C1290 1.362 . S
C1290 H1282 0.930 . S
C1290 C1289 1.362 . S
C1290 C1293 1.409 . S
C1291 H1283 0.930 . S
C1291 C1292 1.355 . S
C1291 C1293 1.415 . S
C1292 C1291 1.355 . S
C1292 C1294 1.419 . S
C1293 C1288 1.425 . S
C1293 C1290 1.409 . S
C1293 C1291 1.415 . S
C1294 H1284 0.930 . S
C1294 C1292 1.419 . S
C1294 C1295 1.362 . S
C1295 H1285 0.930 . S
C1295 C1288 1.409 . S
C1295 C1294 1.362 . S
H1296 C1302 0.930 . S
H1297 C1305 0.930 . S
H1298 C1306 0.930 . S
H1299 C1307 0.930 . S
H1300 C1310 0.930 . S
H1301 C1311 0.930 . S
C1302 H1296 0.930 . S
C1302 C1303 1.355 . S
C1302 C1304 1.415 . S
C1303 C1302 1.355 . S
C1303 C1305 1.419 . S
C1304 C1302 1.415 . S
C1304 C1309 1.425 . S
C1304 C1311 1.409 . S
C1305 H1297 0.930 . S
C1305 C1303 1.419 . S
C1305 C1306 1.362 . S
C1306 H1298 0.930 . S
C1306 C1305 1.362 . S
C1306 C1309 1.409 . S
C1307 H1299 0.930 . S
C1307 C1308 1.355 . S
C1307 C1309 1.415 . S
C1308 C1307 1.355 . S
C1308 C1310 1.419 . S
C1309 C1304 1.425 . S
C1309 C1306 1.409 . S
C1309 C1307 1.415 . S
C1310 H1300 0.930 . S
C1310 C1308 1.419 . S
C1310 C1311 1.362 . S
C1311 H1301 0.930 . S
C1311 C1304 1.409 . S
C1311 C1310 1.362 . S
H1312 C1318 0.930 . S
H1313 C1321 0.930 . S
H1314 C1322 0.930 . S
H1315 C1323 0.930 . S
H1316 C1326 0.930 . S
H1317 C1327 0.930 . S
C1318 H1312 0.930 . S
C1318 C1319 1.355 . S
C1318 C1320 1.415 . S
C1319 C1318 1.355 . S
C1319 C1321 1.419 . S
C1320 C1318 1.415 . S
C1320 C1325 1.425 . S
C1320 C1327 1.409 . S
C1321 H1313 0.930 . S
C1321 C1319 1.419 . S
C1321 C1322 1.362 . S
C1322 H1314 0.930 . S
C1322 C1321 1.362 . S
C1322 C1325 1.409 . S
C1323 H1315 0.930 . S
C1323 C1324 1.355 . S
C1323 C1325 1.415 . S
C1324 C1323 1.355 . S
C1324 C1326 1.419 . S
C1325 C1320 1.425 . S
C1325 C1322 1.409 . S
C1325 C1323 1.415 . S
C1326 H1316 0.930 . S
C1326 C1324 1.419 . S
C1326 C1327 1.362 . S
C1327 H1317 0.930 . S
C1327 C1320 1.409 . S
C1327 C1326 1.362 . S
H1328 C1334 0.930 . S
H1329 C1337 0.930 . S
H1330 C1338 0.930 . S
H1331 C1339 0.930 . S
H1332 C1342 0.930 . S
H1333 C1343 0.930 . S
C1334 H1328 0.930 . S
C1334 C1335 1.355 . S
C1334 C1336 1.415 . S
C1335 C1334 1.355 . S
C1335 C1337 1.419 . S
C1336 C1334 1.415 . S
C1336 C1341 1.425 . S
C1336 C1343 1.409 . S
C1337 H1329 0.930 . S
C1337 C1335 1.419 . S
C1337 C1338 1.362 . S
C1338 H1330 0.930 . S
C1338 C1337 1.362 . S
C1338 C1341 1.409 . S
C1339 H1331 0.930 . S
C1339 C1340 1.355 . S
C1339 C1341 1.415 . S
C1340 C1339 1.355 . S
C1340 C1342 1.419 . S
C1341 C1336 1.425 . S
C1341 C1338 1.409 . S
C1341 C1339 1.415 . S
C1342 H1332 0.930 . S
C1342 C1340 1.419 . S
C1342 C1343 1.362 . S
C1343 H1333 0.930 . S
C1343 C1336 1.409 . S
C1343 C1342 1.362 . S
H1344 C1350 0.930 . S
H1345 C1353 0.930 . S
H1346 C1354 0.930 . S
H1347 C1355 0.930 . S
H1348 C1358 0.930 . S
H1349 C1359 0.930 . S
C1350 H1344 0.930 . S
C1350 C1351 1.355 . S
C1350 C1352 1.415 . S
C1351 C1350 1.355 . S
C1351 C1353 1.419 . S
C1352 C1350 1.415 . S
C1352 C1357 1.425 . S
C1352 C1359 1.409 . S
C1353 H1345 0.930 . S
C1353 C1351 1.419 . S
C1353 C1354 1.362 . S
C1354 H1346 0.930 . S
C1354 C1353 1.362 . S
C1354 C1357 1.409 . S
C1355 H1347 0.930 . S
C1355 C1356 1.355 . S
C1355 C1357 1.415 . S
C1356 C1355 1.355 . S
C1356 C1358 1.419 . S
C1357 C1352 1.425 . S
C1357 C1354 1.409 . S
C1357 C1355 1.415 . S
C1358 H1348 0.930 . S
C1358 C1356 1.419 . S
C1358 C1359 1.362 . S
C1359 H1349 0.930 . S
C1359 C1352 1.409 . S
C1359 C1358 1.362 . S
H1360 C1366 0.930 . S
H1361 C1369 0.930 . S
H1362 C1370 0.930 . S
H1363 C1371 0.930 . S
H1364 C1374 0.930 . S
H1365 C1375 0.930 . S
C1366 H1360 0.930 . S
C1366 C1367 1.355 . S
C1366 C1368 1.415 . S
C1367 C1366 1.355 . S
C1367 C1369 1.419 . S
C1368 C1366 1.415 . S
C1368 C1373 1.425 . S
C1368 C1375 1.409 . S
C1369 H1361 0.930 . S
C1369 C1367 1.419 . S
C1369 C1370 1.362 . S
C1370 H1362 0.930 . S
C1370 C1369 1.362 . S
C1370 C1373 1.409 . S
C1371 H1363 0.930 . S
C1371 C1372 1.355 . S
C1371 C1373 1.415 . S
C1372 C1371 1.355 . S
C1372 C1374 1.419 . S
C1373 C1368 1.425 . S
C1373 C1370 1.409 . S
C1373 C1371 1.415 . S
C1374 H1364 0.930 . S
C1374 C1372 1.419 . S
C1374 C1375 1.362 . S
C1375 H1365 0.930 . S
C1375 C1368 1.409 . S
C1375 C1374 1.362 . S
H1376 C1382 0.930 . S
H1377 C1385 0.930 . S
H1378 C1386 0.930 . S
H1379 C1387 0.930 . S
H1380 C1390 0.930 . S
H1381 C1391 0.930 . S
C1382 H1376 0.930 . S
C1382 C1383 1.355 . S
C1382 C1384 1.415 . S
C1383 C1382 1.355 . S
C1383 C1385 1.419 . S
C1384 C1382 1.415 . S
C1384 C1389 1.425 . S
C1384 C1391 1.409 . S
C1385 H1377 0.930 . S
C1385 C1383 1.419 . S
C1385 C1386 1.362 . S
C1386 H1378 0.930 . S
C1386 C1385 1.362 . S
C1386 C1389 1.409 . S
C1387 H1379 0.930 . S
C1387 C1388 1.355 . S
C1387 C1389 1.415 . S
C1388 C1387 1.355 . S
C1388 C1390 1.419 . S
C1389 C1384 1.425 . S
C1389 C1386 1.409 . S
C1389 C1387 1.415 . S
C1390 H1380 0.930 . S
C1390 C1388 1.419 . S
C1390 C1391 1.362 . S
C1391 H1381 0.930 . S
C1391 C1384 1.409 . S
C1391 C1390 1.362 . S
H1392 C1398 0.930 . S
H1393 C1401 0.930 . S
H1394 C1402 0.930 . S
H1395 C1403 0.930 . S
H1396 C1406 0.930 1_554 S
H1397 C1407 0.930 . S
C1398 H1392 0.930 . S
C1398 C1399 1.355 . S
C1398 C1400 1.415 . S
C1399 C1398 1.355 . S
C1399 C1401 1.419 . S
C1400 C1398 1.415 . S
C1400 C1405 1.425 . S
C1400 C1407 1.409 . S
C1401 H1393 0.930 . S
C1401 C1399 1.419 . S
C1401 C1402 1.362 . S
C1402 H1394 0.930 . S
C1402 C1401 1.362 . S
C1402 C1405 1.409 . S
C1403 H1395 0.930 . S
C1403 C1404 1.355 . S
C1403 C1405 1.415 . S
C1404 C1403 1.355 . S
C1404 C1406 1.419 . S
C1405 C1400 1.425 . S
C1405 C1402 1.409 . S
C1405 C1403 1.415 . S
C1406 H1396 0.930 1_556 S
C1406 C1404 1.419 . S
C1406 C1407 1.362 . S
C1407 H1397 0.930 . S
C1407 C1400 1.409 . S
C1407 C1406 1.362 . S
C647 C459 1.750 . S
C652 C18 1.750 . S
C663 C330 1.742 . S
C668 C49 1.727 . S
C679 C98 1.746 . S
C684 C379 1.738 . S
C695 C129 1.740 . S
C700 C410 1.750 . S
C711 C178 1.705 . S
C716 C219 1.721 . S
C727 C250 1.707 . S
C732 C209 1.698 . S
C743 C258 1.733 . S
C748 C299 1.747 . S
C759 C170 1.723 . S
C764 C289 1.707 . S
C775 C139 1.702 . S
C780 C338 1.700 . S
C791 C369 1.747 . S
C796 C10 1.752 . S
C807 C59 1.724 . S
C812 C418 1.708 . S
C823 C90 1.749 . S
C828 C449 1.736 . S
C839 C498 1.730 . S
C844 C539 1.745 . S
C855 C570 1.748 . S
C860 C529 1.736 . S
C871 C619 1.702 . S
C876 C578 1.702 . S
C887 C609 1.750 . S
C892 C490 1.749 . S
C903 C9 1.131 . S
C908 C169 1.148 . S
C919 C218 1.244 . S
C924 C58 1.237 . S
C935 C89 1.147 . S
C940 C249 1.182 . S
C951 C138 1.155 . S
C956 C298 1.133 . S
C967 C329 1.186 . S
C972 C489 1.150 . S
C983 C538 1.147 . S
C988 C378 1.131 . S
C999 C409 1.142 . S
C1004 C569 1.131 . S
C1015 C458 1.183 . S
C1020 C618 1.148 . S
C1031 C579 2.346 . S
C1036 C19 2.354 1_556 S
C1047 C50 2.373 1_554 S
C1052 C610 2.379 . S
C1063 C99 2.339 1_556 S
C1068 C499 2.344 . S
C1079 C130 2.356 1_554 S
C1084 C530 2.347 . S
C1095 C179 2.373 . S
C1100 C419 2.379 . S
C1111 C210 2.378 . S
C1116 C450 2.380 . S
C1127 C259 2.342 . S
C1132 C339 2.339 . S
C1143 C370 2.364 . S
C1148 C290 2.372 . S
C1159 C6 1.128 . S
C1164 C15 1.128 . S
C1175 C55 1.132 . S
C1180 C46 1.132 . S
C1191 C86 1.088 . S
C1196 C95 1.088 . S
C1207 C126 1.133 . S
C1212 C135 1.133 . S
C1223 C175 1.087 . S
C1228 C166 1.087 . S
C1239 C215 1.092 . S
C1244 C206 1.092 . S
C1255 C246 1.128 . S
C1260 C255 1.128 . S
C1271 C286 1.111 . S
C1276 C295 1.111 . S
C1287 C326 1.099 1_554 S
C1292 C335 1.099 . S
C1303 C366 1.086 . S
C1308 C375 1.086 1_556 S
C1319 C415 1.132 . S
C1324 C406 1.132 1_554 S
C1335 C455 1.130 1_556 S
C1340 C446 1.130 . S
C1351 C486 1.103 . S
C1356 C495 1.103 1_554 S
C1367 C526 1.110 1_556 S
C1372 C535 1.110 . S
C1383 C575 1.115 1_554 S
C1388 C566 1.115 . S
C1399 C615 1.092 . S
C1404 C606 1.092 1_556 S
