# Generated by pormake.
# Topology hcp, (12)-cn, num edge types: 1
# Building blocks:
#     Node 0, Type 0, BuildingBlock: BOTCEU_clean_sbu_0, # of connection points: 12
#     Node 1, Type 0, BuildingBlock: BOTCEU_clean_sbu_0, # of connection points: 12
#     Edge 2, Type (0, 0), BuildingBlock: OJICUG_clean_linker_0, # of connection points: 2
#     Edge 3, Type (0, 0), BuildingBlock: OJICUG_clean_linker_0, # of connection points: 2
#     Edge 4, Type (0, 0), BuildingBlock: OJICUG_clean_linker_0, # of connection points: 2
#     Edge 5, Type (0, 0), BuildingBlock: OJICUG_clean_linker_0, # of connection points: 2
#     Edge 6, Type (0, 0), BuildingBlock: OJICUG_clean_linker_0, # of connection points: 2
#     Edge 7, Type (0, 0), BuildingBlock: OJICUG_clean_linker_0, # of connection points: 2
#     Edge 8, Type (0, 0), BuildingBlock: OJICUG_clean_linker_0, # of connection points: 2
#     Edge 9, Type (0, 0), BuildingBlock: OJICUG_clean_linker_0, # of connection points: 2
#     Edge 10, Type (0, 0), BuildingBlock: OJICUG_clean_linker_0, # of connection points: 2
#     Edge 11, Type (0, 0), BuildingBlock: OJICUG_clean_linker_0, # of connection points: 2
#     Edge 12, Type (0, 0), BuildingBlock: OJICUG_clean_linker_0, # of connection points: 2
#     Edge 13, Type (0, 0), BuildingBlock: OJICUG_clean_linker_0, # of connection points: 2
# Relax obj value: 0.170
# Max RMSD: 0.247
# Mean RMSD: 0.247
data_MOF--net-hcp--node1-BOTCEU_clean_sbu_0--edge1-OJICUG_clean_linker_0
_symmetry_space_group_name_H-M    P1
_symmetry_Int_Tables_number       1
_symmetry_cell_setting            triclinic
loop_
_symmetry_equiv_pos_as_xyz
'x, y, z'
_cell_length_a     22.892868
_cell_length_b     17.668604
_cell_length_c     36.166831
_cell_angle_alpha  100.12799
_cell_angle_beta   86.826636
_cell_angle_gamma 123.8954
loop_
_atom_site_label
_atom_site_type_symbol
_atom_site_fract_x
_atom_site_fract_y
_atom_site_fract_z
_atom_type_partial_charge
C0 C 0.2989 0.9996 0.25987 0.0
C1 C 0.2842 0.91746 0.26841 0.0
C2 C 0.32527 0.94461 0.30143 0.0
N3 N 0.34209 0.06865 0.28721 0.0
N4 N 0.35827 0.03713 0.31284 0.0
C5 C 0.26759 1.01163 0.2279 0.0
H6 H 0.21986 1.01 0.23679 0.0
H7 H 0.25235 0.95502 0.20355 0.0
H8 H 0.30583 0.07979 0.21951 0.0
C9 C 0.33384 0.88252 0.32015 0.0
H10 H 0.38077 0.92426 0.3399 0.0
H11 H 0.34128 0.83574 0.2987 0.0
H12 H 0.28518 0.83803 0.33446 0.0
C13 C 0.90204 0.40519 0.09861 0.0
C14 C 0.8283 0.42682 0.07289 0.0
C15 C 0.89107 0.43228 0.06717 0.0
N16 N 0.84848 0.3856 0.12118 0.0
N17 N 0.80513 0.39967 0.10605 0.0
H18 H 0.96343 0.34737 0.09224 0.0
H19 H 0.01434 0.47164 0.10218 0.0
H20 H 0.96764 0.40541 0.13924 0.0
C21 C 0.96572 0.40806 0.10894 0.0
H22 H 0.79983 0.42774 0.01733 0.0
H23 H 0.81004 0.51937 0.05329 0.0
H24 H 0.73308 0.40352 0.0516 0.0
C25 C 0.79034 0.44493 0.04711 0.0
C26 C 0.31916 0.19957 0.37412 0.0
C27 C 0.473 0.22431 0.24443 0.0
C28 C 0.68431 0.06458 0.36222 0.0
N29 N 0.71973 0.15297 0.35556 0.0
N30 N 0.73504 0.15128 0.31987 0.0
C31 C 0.67257 1.00488 0.32819 0.0
C32 C 0.70691 0.06373 0.30225 0.0
H33 H 0.70476 0.10146 0.42245 0.0
H34 H 0.70119 0.99863 0.40075 0.0
H35 H 0.62102 0.99325 0.40577 0.0
C36 C 0.67761 0.03893 0.40023 0.0
H37 H 0.7326 0.0935 0.24623 0.0
H38 H 0.67298 0.97116 0.24898 0.0
H39 H 0.76522 0.03179 0.26193 0.0
C40 C 0.71981 0.03854 0.26238 0.0
C41 C 0.26779 0.27781 0.25292 0.0
C42 C 0.2308 0.16833 0.287 0.0
N43 N 0.32158 0.27209 0.26076 0.0
N44 N 0.29952 0.20669 0.2813 0.0
C45 C 0.20899 0.21227 0.26927 0.0
H46 H 0.24068 0.30602 0.2039 0.0
H47 H 0.25036 0.38203 0.24653 0.0
H48 H 0.32822 0.39504 0.22464 0.0
C49 C 0.27268 0.34475 0.23072 0.0
C50 C 0.18595 0.0889 0.30729 0.0
H51 H 0.13471 0.03823 0.29132 0.0
H52 H 0.17467 0.11471 0.33515 0.0
H53 H 0.21279 0.05424 0.31103 0.0
C54 C 0.89492 0.43571 0.36194 0.0
C55 C 0.67785 0.30894 0.3464 0.0
C56 C 0.62836 0.20709 0.08585 0.0
N57 N 0.64551 0.28288 0.11098 0.0
C58 C 0.55922 0.16438 0.0724 0.0
N59 N 0.59169 0.29083 0.11457 0.0
C60 C 0.53764 0.22001 0.09145 0.0
H61 H 0.71625 0.20054 0.09737 0.0
H62 H 0.70906 0.21629 0.05047 0.0
H63 H 0.64978 0.10397 0.06345 0.0
C64 C 0.67856 0.17974 0.07367 0.0
H65 H 0.46713 0.26421 0.10411 0.0
C66 C 0.47172 0.21396 0.08332 0.0
H67 H 0.47266 0.22895 0.05467 0.0
H68 H 0.42499 0.14305 0.08407 0.0
C69 C 0.7891 0.38242 0.48766 0.0
C70 C 0.83674 0.31861 0.45213 0.0
N71 N 0.74752 0.33306 0.45592 0.0
N72 N 0.77729 0.29521 0.4348 0.0
C73 C 0.84835 0.37796 0.48561 0.0
H74 H 0.78862 0.42539 0.54657 0.0
C75 C 0.7743 0.43418 0.51955 0.0
H76 H 0.71755 0.40733 0.51843 0.0
H77 H 0.8076 0.50913 0.51845 0.0
H78 H 0.90724 0.27472 0.45098 0.0
H79 H 0.93642 0.36971 0.42704 0.0
C80 C 0.88948 0.30302 0.43261 0.0
H81 H 0.86593 0.2536 0.40578 0.0
C82 C 0.75644 0.56471 0.13088 0.0
C83 C 0.69192 0.28448 0.195 0.0
C84 C 0.99016 0.494 0.24446 0.0
N85 N 0.92607 0.42847 0.22825 0.0
C86 C 0.01768 0.57061 0.22718 0.0
C87 C 0.9657 0.54583 0.20035 0.0
N88 N 0.91131 0.45858 0.2019 0.0
C89 C 0.02484 0.48286 0.275 0.0
H90 H 0.06091 0.46335 0.2623 0.0
H91 H 0.05657 0.54914 0.29497 0.0
H92 H 0.98509 0.42761 0.29022 0.0
C93 C 0.97065 0.60059 0.17173 0.0
H94 H 0.91833 0.56896 0.15755 0.0
H95 H 0.99131 0.67298 0.18525 0.0
H96 H 0.00815 0.60264 0.15048 0.0
C97 C 0.39217 0.04004 0.42843 0.0
C98 C 0.43211 0.08151 0.46323 0.0
C99 C 0.46292 0.17438 0.46355 0.0
N100 N 0.40516 0.10724 0.40883 0.0
N101 N 0.45236 0.18673 0.42973 0.0
H102 H 0.31921 0.90043 0.43702 0.0
H103 H 0.38112 0.9147 0.40191 0.0
H104 H 0.30786 0.92433 0.39267 0.0
C105 C 0.34738 0.93878 0.41388 0.0
C106 C 0.51097 0.25309 0.49389 0.0
H107 H 0.49951 0.30666 0.49593 0.0
H108 H 0.50336 0.23009 0.52144 0.0
H109 H 0.56667 0.28476 0.48666 0.0
C110 C 0.82844 0.19423 0.15723 0.0
C111 C 0.78806 0.38251 0.27753 0.0
C112 C 0.54673 0.58885 0.23396 0.0
C113 C 0.53508 0.61404 0.27102 0.0
C114 C 0.48505 0.52906 0.28229 0.0
N115 N 0.5067 0.49611 0.22469 0.0
N116 N 0.46995 0.4595 0.25344 0.0
C117 C 0.5949 0.65168 0.20767 0.0
H118 H 0.57616 0.61794 0.17807 0.0
H119 H 0.59845 0.71798 0.21334 0.0
H120 H 0.64838 0.66698 0.21174 0.0
C121 C 0.45493 0.51445 0.32009 0.0
H122 H 0.43275 0.44241 0.32405 0.0
H123 H 0.49596 0.56473 0.34257 0.0
H124 H 0.41203 0.52635 0.32212 0.0
C125 C 0.91306 0.20226 0.29735 0.0
C126 C 0.95773 0.20421 0.26919 0.0
C127 C 0.94504 0.23792 0.24079 0.0
N128 N 0.87688 0.23343 0.28571 0.0
N129 N 0.89528 0.25323 0.25188 0.0
C130 C 0.90584 0.17376 0.33477 0.0
H131 H 0.94147 0.23586 0.35594 0.0
H132 H 0.92033 0.12305 0.3337 0.0
H133 H 0.85107 0.14355 0.34371 0.0
C134 C 0.98644 0.26857 0.20672 0.0
H135 H 0.04346 0.30268 0.21345 0.0
H136 H 0.9687 0.2072 0.18438 0.0
H137 H 0.97817 0.3171 0.19592 0.0
C138 C 0.3558 0.25797 0.16623 0.0
C139 C 0.62642 0.45385 0.22046 0.0
C140 C 0.54933 0.41808 0.43223 0.0
N141 N 0.58208 0.37521 0.42187 0.0
N142 N 0.6414 0.41376 0.44204 0.0
C143 C 0.58399 0.48443 0.46347 0.0
C144 C 0.64349 0.4811 0.46882 0.0
H145 H 0.43934 0.35546 0.44099 0.0
H146 H 0.4744 0.43263 0.40705 0.0
H147 H 0.46184 0.32162 0.39523 0.0
C148 C 0.47653 0.37946 0.4181 0.0
H149 H 0.74977 0.55388 0.49018 0.0
H150 H 0.7035 0.60752 0.50823 0.0
H151 H 0.68293 0.50599 0.52468 0.0
C152 C 0.6986 0.54059 0.49977 0.0
C153 C 0.57203 0.46549 0.08341 0.0
N154 N 0.56876 0.44658 0.11801 0.0
N155 N 0.5177 0.44856 0.13584 0.0
C156 C 0.52098 0.48274 0.07886 0.0
C157 C 0.48683 0.47045 0.11285 0.0
C158 C 0.61569 0.45342 0.05369 0.0
H159 H 0.66174 0.52237 0.04966 0.0
H160 H 0.5845 0.4175 0.0265 0.0
H161 H 0.63471 0.41312 0.06215 0.0
C162 C 0.42607 0.47834 0.12298 0.0
H163 H 0.43093 0.535 0.11084 0.0
H164 H 0.37651 0.41259 0.11105 0.0
H165 H 0.42329 0.49082 0.15402 0.0
C166 C 0.58387 0.13362 0.40607 0.0
C167 C 0.5307 0.28573 0.33283 0.0
Cu168 Cu 0.36543 0.18853 0.29759 0.0
Cu169 Cu 0.40572 0.12692 0.35735 0.0
Cu170 Cu 0.76456 0.27594 0.38311 0.0
Cu171 Cu 0.81374 0.25904 0.308 0.0
Cu172 Cu 0.7299 0.38258 0.134 0.0
Cu173 Cu 0.61296 0.4047 0.14059 0.0
Cu174 Cu 0.8589 0.30811 0.23233 0.0
Cu175 Cu 0.83338 0.3662 0.17041 0.0
Cu176 Cu 0.50229 0.41336 0.1836 0.0
Cu177 Cu 0.41262 0.328 0.24443 0.0
Cu178 Cu 0.53288 0.25022 0.40461 0.0
Cu179 Cu 0.67948 0.33665 0.42922 0.0
H180 H 0.33692 0.22281 0.40423 0.0
H181 H 0.27357 0.12651 0.3705 0.0
H182 H 0.3038 0.24379 0.36568 0.0
H183 H 0.46604 0.16611 0.2562 0.0
H184 H 0.52983 0.27474 0.24144 0.0
H185 H 0.44476 0.19637 0.21643 0.0
H186 H 0.94034 0.45841 0.38088 0.0
H187 H 0.86662 0.46751 0.3747 0.0
H188 H 0.9145 0.45815 0.33459 0.0
H189 H 0.69733 0.27743 0.32454 0.0
H190 H 0.68294 0.36966 0.33801 0.0
H191 H 0.62325 0.25383 0.3499 0.0
H192 H 0.74659 0.61559 0.14714 0.0
H193 H 0.74357 0.55493 0.10068 0.0
H194 H 0.81279 0.59094 0.13496 0.0
H195 H 0.6565 0.22968 0.17155 0.0
H196 H 0.6617 0.30563 0.21371 0.0
H197 H 0.71227 0.25509 0.21088 0.0
H198 H 0.78641 0.15507 0.13441 0.0
H199 H 0.8803 0.23529 0.14494 0.0
H200 H 0.82796 0.14485 0.17261 0.0
H201 H 0.81959 0.43243 0.25846 0.0
H202 H 0.73212 0.35765 0.27337 0.0
H203 H 0.80658 0.41822 0.30689 0.0
H204 H 0.30963 0.20275 0.17885 0.0
H205 H 0.3459 0.31059 0.16203 0.0
H206 H 0.36406 0.22679 0.13879 0.0
H207 H 0.65041 0.52768 0.21896 0.0
H208 H 0.59952 0.43864 0.24722 0.0
H209 H 0.66872 0.44123 0.21936 0.0
H210 H 0.60021 0.13149 0.37682 0.0
H211 H 0.61479 0.12418 0.4248 0.0
H212 H 0.52756 0.07718 0.40642 0.0
H213 H 0.57487 0.35002 0.34947 0.0
H214 H 0.5508 0.27105 0.30595 0.0
H215 H 0.49014 0.29934 0.32946 0.0
O216 O 0.37238 0.2055 0.35261 0.0
O217 O 0.44585 0.26635 0.26784 0.0
O218 O 0.84996 0.34113 0.35656 0.0
O219 O 0.71584 0.33546 0.37921 0.0
O220 O 0.71538 0.48208 0.14341 0.0
O221 O 0.74679 0.35915 0.18103 0.0
O222 O 0.81631 0.25226 0.18156 0.0
O223 O 0.79496 0.30892 0.2697 0.0
O224 O 0.41438 0.29885 0.18981 0.0
O225 O 0.5787 0.39914 0.19056 0.0
O226 O 0.59296 0.2169 0.41942 0.0
O227 O 0.50535 0.21386 0.35209 0.0
C228 C -0.00498 0.54177 0.77088 0.0
C229 C 0.96382 0.4627 0.78705 0.0
C230 C 0.01231 0.48404 0.81542 0.0
N231 N 0.05763 0.60501 0.78918 0.0
N232 N 0.06857 0.57103 0.81545 0.0
C233 C 0.96205 0.56115 0.74242 0.0
H234 H 0.0023 0.62287 0.73055 0.0
H235 H 0.92293 0.57364 0.7562 0.0
H236 H 0.934 0.50148 0.71915 0.0
C237 C 0.00415 0.42425 0.84252 0.0
H238 H 0.05638 0.4481 0.85469 0.0
H239 H 0.97668 0.35093 0.82824 0.0
H240 H 0.97156 0.42818 0.86565 0.0
C241 C 0.59108 0.99178 0.59075 0.0
C242 C 0.51937 0.85755 0.5558 0.0
C243 C 0.55058 0.95055 0.55614 0.0
N244 N 0.57787 0.92435 0.61022 0.0
N245 N 0.5302 0.84499 0.58952 0.0
H246 H 0.66801 0.13016 0.58231 0.0
H247 H 0.60395 0.11941 0.61543 0.0
H248 H 0.67406 0.10646 0.62783 0.0
C249 C 0.63705 0.09302 0.60524 0.0
H250 H 0.48242 0.72539 0.52336 0.0
H251 H 0.47848 0.80208 0.49799 0.0
H252 H 0.41544 0.74756 0.5329 0.0
C253 C 0.47103 0.77903 0.52551 0.0
C254 C 0.15101 0.83166 0.86527 0.0
C255 C 0.1986 0.65749 0.74291 0.0
C256 C 0.44592 0.45249 0.78519 0.0
N257 N 0.4809 0.54501 0.79409 0.0
N258 N 0.51805 0.58347 0.76573 0.0
C259 C 0.46124 0.42949 0.74885 0.0
C260 C 0.50747 0.51516 0.73734 0.0
H261 H 0.37674 0.42018 0.83113 0.0
H262 H 0.42847 0.37143 0.82692 0.0
H263 H 0.35412 0.32178 0.79446 0.0
C264 C 0.398 0.38758 0.81084 0.0
H265 H 0.57634 0.60625 0.69964 0.0
H266 H 0.50179 0.49439 0.67729 0.0
H267 H 0.57485 0.50166 0.69745 0.0
C268 C 0.5425 0.53111 0.70081 0.0
C269 C 0.07567 0.84236 0.72593 0.0
C270 C 0.04096 0.80077 0.78144 0.0
N271 N 0.1111 0.80958 0.73702 0.0
N272 N 0.09113 0.78627 0.77024 0.0
C273 C 0.02969 0.83771 0.75378 0.0
H274 H 0.04899 0.81323 0.66728 0.0
H275 H 0.07039 0.92533 0.69081 0.0
H276 H 0.13929 0.90423 0.68046 0.0
C277 C 0.08431 0.87389 0.68907 0.0
C278 C -0.0026 0.76551 0.81443 0.0
H279 H 0.94078 0.7324 0.807 0.0
H280 H 0.01416 0.8244 0.83789 0.0
H281 H 0.00462 0.71481 0.82403 0.0
C282 C 0.62672 0.78384 0.85488 0.0
C283 C 0.35821 0.58252 0.7977 0.0
C284 C 0.4311 0.61517 0.58778 0.0
N285 N 0.39934 0.65923 0.59837 0.0
C286 C 0.39545 0.54899 0.55661 0.0
N287 N 0.33999 0.6222 0.57851 0.0
C288 C 0.33662 0.55409 0.55161 0.0
H289 H 0.54075 0.67522 0.57817 0.0
H290 H 0.50584 0.59973 0.6127 0.0
H291 H 0.52081 0.71223 0.62404 0.0
C292 C 0.50422 0.65302 0.60142 0.0
H293 H 0.2304 0.48421 0.53056 0.0
C294 C 0.28099 0.49563 0.52083 0.0
H295 H 0.29708 0.53001 0.49585 0.0
H296 H 0.27466 0.42779 0.5124 0.0
C297 C 0.40957 0.56281 0.93424 0.0
C298 C 0.49701 0.56319 0.90502 0.0
N299 N 0.41333 0.5839 0.90003 0.0
N300 N 0.46582 0.5854 0.8824 0.0
C301 C 0.46177 0.54749 0.93869 0.0
H302 H 0.31847 0.50113 0.96683 0.0
C303 C 0.36418 0.57121 0.96381 0.0
H304 H 0.34452 0.61126 0.95585 0.0
H305 H 0.39423 0.60567 0.99137 0.0
H306 H 0.5552 0.5015 0.90644 0.0
H307 H 0.60783 0.6244 0.90727 0.0
C308 C 0.55905 0.5582 0.89485 0.0
H309 H 0.56253 0.54752 0.86383 0.0
C310 C 0.40495 0.90568 0.6161 0.0
C311 C 0.45306 0.74655 0.68682 0.0
C312 C 0.68641 0.04564 0.75745 0.0
N313 N 0.64452 0.97271 0.7309 0.0
C314 C 0.6933 0.12306 0.74819 0.0
C315 C 0.65039 0.08917 0.7154 0.0
N316 N 0.62329 0.99799 0.705 0.0
C317 C 0.72734 0.04356 0.78768 0.0
H318 H 0.70245 0.97186 0.79281 0.0
H319 H 0.78194 0.07073 0.779 0.0
H320 H 0.73019 0.08828 0.81417 0.0
C321 C 0.63128 0.14263 0.69728 0.0
H322 H 0.58511 0.09501 0.67725 0.0
H323 H 0.61799 0.18239 0.71926 0.0
H324 H 0.67721 0.19413 0.68322 0.0
C325 C 0.07316 0.6123 0.91941 0.0
C326 C 0.08311 0.58285 0.95039 0.0
C327 C 0.1459 0.58832 0.94471 0.0
N328 N 0.1272 0.63299 0.8971 0.0
N329 N 0.17001 0.61761 0.91198 0.0
H330 H 0.0146 0.67414 0.92648 0.0
H331 H 0.9613 0.54982 0.91626 0.0
H332 H 0.00893 0.61605 0.87931 0.0
C333 C 0.01067 0.61255 0.90953 0.0
C334 C 0.18365 0.5698 0.97046 0.0
H335 H 0.17427 0.58714 1.00025 0.0
H336 H 0.16357 0.49522 0.96429 0.0
H337 H 0.24091 0.61077 0.96595 0.0
C338 C 0.66528 0.83431 0.64552 0.0
C339 C 0.51637 0.82084 0.77554 0.0
C340 C 0.30368 0.97626 0.65935 0.0
C341 C 0.32031 0.03682 0.69382 0.0
C342 C 0.28543 0.97808 0.71985 0.0
N343 N 0.26602 0.88777 0.66589 0.0
N344 N 0.25263 0.89004 0.70181 0.0
C345 C 0.31356 1.00205 0.6212 0.0
H346 H 0.29198 0.93994 0.59885 0.0
H347 H 0.28503 0.03499 0.61834 0.0
H348 H 0.37026 0.05351 0.61778 0.0
C349 C 0.27467 1.0049 0.75999 0.0
H350 H 0.23925 0.94271 0.77297 0.0
H351 H 0.32599 0.04793 0.77629 0.0
H352 H 0.25211 0.04695 0.76147 0.0
C353 C 0.72032 0.76774 0.76946 0.0
C354 C 0.77928 0.83242 0.75284 0.0
C355 C 0.75724 0.8746 0.73398 0.0
N356 N 0.66637 0.77229 0.76069 0.0
N357 N 0.68845 0.83622 0.73939 0.0
C358 C 0.71516 0.70174 0.79232 0.0
H359 H 0.74567 0.74115 0.8195 0.0
H360 H 0.73891 0.66542 0.77743 0.0
H361 H 0.6594 0.65058 0.79773 0.0
C362 C 0.8016 0.95168 0.71248 0.0
H363 H 0.85332 1.00317 0.72787 0.0
H364 H 0.81179 0.92342 0.68485 0.0
H365 H 0.77472 0.98592 0.70805 0.0
C366 C 0.08943 0.60657 0.66014 0.0
C367 C 0.30772 0.73035 0.6744 0.0
C368 C 0.34532 0.81432 0.9351 0.0
N369 N 0.33007 0.73991 0.90958 0.0
N370 N 0.38557 0.73566 0.90548 0.0
C371 C 0.41501 0.86007 0.94828 0.0
C372 C 0.43888 0.80764 0.92864 0.0
H373 H 0.25545 0.81659 0.92358 0.0
H374 H 0.2632 0.80064 0.97033 0.0
H375 H 0.32045 0.91391 0.9578 0.0
C376 C 0.29331 0.83844 0.94733 0.0
H377 H 0.51027 0.76426 0.91726 0.0
H378 H 0.55168 0.88747 0.93022 0.0
H379 H 0.51284 0.81598 0.96562 0.0
C380 C 0.50727 0.81889 0.93569 0.0
C381 C 0.19539 0.65908 0.53366 0.0
N382 N 0.23679 0.70757 0.5655 0.0
N383 N 0.20714 0.74537 0.58679 0.0
C384 C 0.13624 0.66374 0.53585 0.0
C385 C 0.1478 0.72249 0.56952 0.0
C386 C 0.21053 0.60838 0.50146 0.0
H387 H 0.19797 0.62 0.47463 0.0
H388 H 0.17604 0.533 0.50154 0.0
H389 H 0.26697 0.6338 0.50306 0.0
C390 C 0.09504 0.73784 0.58919 0.0
H391 H 0.07725 0.76638 0.57096 0.0
H392 H 0.04812 0.67099 0.59463 0.0
H393 H 0.11853 0.78693 0.61611 0.0
C394 C 0.22606 0.45979 0.8862 0.0
C395 C 0.28768 0.74264 0.82552 0.0
Cu396 Cu 0.12555 0.72727 0.78839 0.0
Cu397 Cu 0.14509 0.65902 0.84879 0.0
Cu398 Cu 0.48205 0.62446 0.83542 0.0
Cu399 Cu 0.57436 0.71498 0.77583 0.0
Cu400 Cu 0.45025 0.7838 0.61528 0.0
Cu401 Cu 0.30448 0.70243 0.59176 0.0
Cu402 Cu 0.6225 0.85311 0.72219 0.0
Cu403 Cu 0.57722 0.90539 0.66162 0.0
Cu404 Cu 0.2204 0.76476 0.63846 0.0
Cu405 Cu 0.17342 0.78311 0.71408 0.0
Cu406 Cu 0.24746 0.63977 0.88502 0.0
Cu407 Cu 0.36776 0.6247 0.87801 0.0
H408 H 0.19203 0.86868 0.88859 0.0
H409 H 0.09852 0.789 0.87671 0.0
H410 H 0.15228 0.88303 0.85089 0.0
H411 H 0.1675 0.60687 0.7618 0.0
H412 H 0.25458 0.68222 0.74663 0.0
H413 H 0.17961 0.62261 0.71353 0.0
H414 H 0.67306 0.84002 0.84275 0.0
H415 H 0.63767 0.73263 0.8598 0.0
H416 H 0.61634 0.81406 0.88187 0.0
H417 H 0.3405 0.50937 0.79601 0.0
H418 H 0.38474 0.60714 0.77169 0.0
H419 H 0.31145 0.58623 0.8005 0.0
H420 H 0.37985 0.90224 0.64317 0.0
H421 H 0.38537 0.9273 0.5958 0.0
H422 H 0.4624 0.95718 0.62137 0.0
H423 H 0.40823 0.68253 0.67042 0.0
H424 H 0.4338 0.76134 0.71401 0.0
H425 H 0.4936 0.73256 0.68988 0.0
H426 H 0.64641 0.80855 0.61557 0.0
H427 H 0.71075 0.90735 0.64832 0.0
H428 H 0.68135 0.7914 0.65459 0.0
H429 H 0.51859 0.87417 0.76216 0.0
H430 H 0.46111 0.77003 0.78148 0.0
H431 H 0.54914 0.85543 0.80222 0.0
H432 H 0.07185 0.58389 0.68762 0.0
H433 H 0.04285 0.58552 0.64257 0.0
H434 H 0.11589 0.57349 0.64584 0.0
H435 H 0.29016 0.76392 0.69653 0.0
H436 H 0.30143 0.66882 0.68269 0.0
H437 H 0.36257 0.78359 0.6704 0.0
H438 H 0.24168 0.41346 0.8716 0.0
H439 H 0.23499 0.46991 0.91692 0.0
H440 H 0.16941 0.42791 0.87946 0.0
H441 H 0.32378 0.79477 0.84934 0.0
H442 H 0.31701 0.7219 0.80579 0.0
H443 H 0.26831 0.77544 0.81117 0.0
O444 O 0.16419 0.77586 0.84013 0.0
O445 O 0.19173 0.73103 0.75159 0.0
O446 O 0.56918 0.74119 0.83036 0.0
O447 O 0.40404 0.63569 0.82845 0.0
O448 O 0.39247 0.82111 0.6011 0.0
O449 O 0.47825 0.81871 0.66767 0.0
O450 O 0.61267 0.82959 0.66724 0.0
O451 O 0.54207 0.77705 0.75203 0.0
O452 O 0.13557 0.70098 0.66555 0.0
O453 O 0.269 0.70479 0.64196 0.0
O454 O 0.26537 0.54339 0.87431 0.0
O455 O 0.23215 0.66677 0.83855 0.0
C456 C 0.51961 1.01542 0.97623 0.0
C457 C 0.45182 0.93831 0.97997 0.0
H458 H 0.60631 0.14851 1.00256 0.0
C459 C 0.41923 0.93621 0.01421 0.0
H460 H 0.54528 0.01939 0.94991 0.0
C461 C 0.45394 1.01006 0.04424 0.0
C462 C 0.52182 0.08696 0.04052 0.0
H463 H 0.36738 0.87679 0.01799 0.0
H464 H 0.42833 1.00619 0.07059 0.0
C465 C 0.55434 0.0892 1.00627 0.0
C466 C 0.45568 0.55207 0.49571 0.0
C467 C 0.43367 0.51798 0.52963 0.0
H468 H 0.52547 0.57711 0.45034 0.0
C469 C 0.46723 0.48019 0.54304 0.0
H470 H 0.4321 0.58258 0.48453 0.0
C471 C 0.52237 0.47948 0.524 0.0
C472 C 0.54467 0.51406 0.4902 0.0
H473 H 0.45265 0.45454 0.56939 0.0
H474 H 0.54591 0.44889 0.53517 0.0
C475 C 0.51085 0.5514 0.47668 0.0
C476 C 0.95804 0.55436 0.02754 0.0
C477 C 0.93987 0.47038 0.03711 0.0
H478 H 0.01887 0.65668 0.99275 0.0
C479 C 0.96932 0.42392 0.01825 0.0
H480 H 0.93713 0.59245 0.04231 0.0
C481 C 0.01604 0.4607 0.99001 0.0
C482 C 0.0342 0.54467 0.98042 0.0
H483 H 0.95537 0.35854 0.02492 0.0
H484 H 0.03695 0.42261 0.97525 0.0
C485 C 0.00482 0.59119 0.99933 0.0
C486 C 0.56455 0.06635 0.51738 0.0
C487 C 0.52107 0.98674 0.53316 0.0
H488 H 0.57168 0.15694 0.48316 0.0
C489 C 0.44734 0.93741 0.52513 0.0
H490 H 0.62121 0.10541 0.52187 0.0
C491 C 0.4182 0.96631 0.50232 0.0
C492 C 0.46169 0.04572 0.48641 0.0
H493 H 0.41102 0.87574 0.53656 0.0
H494 H 0.36153 0.92744 0.49799 0.0
C495 C 0.53541 0.09517 0.49451 0.0
C496 C 0.43635 0.44813 0.02737 0.0
C497 C 0.50491 0.50167 0.04383 0.0
H498 H 0.36975 0.41823 0.98021 0.0
C499 C 0.55992 0.56829 0.02481 0.0
H500 H 0.39339 0.3948 0.04095 0.0
C501 C 0.54663 0.58133 0.98996 0.0
C502 C 0.47803 0.52792 0.97352 0.0
H503 H 0.61329 0.61081 0.03706 0.0
H504 H 0.5896 0.63484 0.97646 0.0
C505 C 0.4231 0.46097 0.99247 0.0
C506 C 0.9637 0.42976 0.51543 0.0
C507 C 0.92016 0.4522 0.50161 0.0
H508 H 0.0669 0.47942 0.53659 0.0
C509 C 0.94949 0.54389 0.4968 0.0
H510 H 0.94255 0.35929 0.51877 0.0
C511 C 0.02088 0.61206 0.50604 0.0
C512 C 0.06442 0.58958 0.51984 0.0
H513 H 0.91769 0.56237 0.48484 0.0
H514 H 0.04204 0.68255 0.50273 0.0
C515 C 0.03509 0.4979 0.52465 0.0
C516 C 0.67825 0.8669 0.30507 0.0
C517 C 0.63946 0.90285 0.32106 0.0
H518 H 0.67601 0.7472 0.27812 0.0
C519 C 0.56699 0.84082 0.32534 0.0
H520 H 0.73432 0.9128 0.30193 0.0
C521 C 0.53312 0.74539 0.31124 0.0
C522 C 0.57133 0.71058 0.29274 0.0
H523 H 0.53581 0.86683 0.33747 0.0
H524 H 0.47656 0.69997 0.31276 0.0
C525 C 0.64471 0.77203 0.2913 0.0
C526 C 0.92759 0.81154 0.71888 0.0
C527 C 0.97158 0.84976 0.75167 0.0
H528 H 0.83144 0.77763 0.69374 0.0
C529 C 0.95482 0.88977 0.78393 0.0
H530 H 0.93826 0.77811 0.69396 0.0
C531 C 0.89259 0.88641 0.78412 0.0
C532 C 0.84782 0.84525 0.75174 0.0
H533 H 0.98854 0.9206 0.80937 0.0
H534 H 0.87863 0.91397 0.80964 0.0
C535 C 0.86626 0.81019 0.71883 0.0
C536 C 0.15382 0.82323 0.25982 0.0
C537 C 0.21699 0.82723 0.2571 0.0
H538 H 0.04144 0.73872 0.2518 0.0
C539 C 0.21438 0.7457 0.24431 0.0
H540 H 0.15404 0.88444 0.2709 0.0
C541 C 0.1493 0.6616 0.23401 0.0
C542 C 0.08661 0.6588 0.23606 0.0
H543 H 0.26232 0.7471 0.24208 0.0
H544 H 0.14782 0.59893 0.22432 0.0
C545 C 0.08936 0.74004 0.24902 0.0
C546 C 0.38501 0.29049 0.69865 0.0
C547 C 0.43518 0.33391 0.72908 0.0
H548 H 0.30801 0.16193 0.66376 0.0
C549 C 0.4519 0.28062 0.74476 0.0
H550 H 0.37021 0.32975 0.68653 0.0
C551 C 0.4173 0.18541 0.73146 0.0
C552 C 0.36406 0.14036 0.70257 0.0
H553 H 0.48997 0.31215 0.76839 0.0
H554 H 0.43059 0.14618 0.74477 0.0
C555 C 0.3495 0.19437 0.68556 0.0
C556 C 0.09346 0.15297 0.23934 0.0
C557 C 0.14046 0.19922 0.27085 0.0
H558 H -0.00448 0.11443 0.21496 0.0
C559 C 0.12401 0.23843 0.30328 0.0
H560 H 0.10595 0.12216 0.21422 0.0
C561 C 0.06221 0.23595 0.30351 0.0
C562 C 0.01606 0.19286 0.27146 0.0
H563 H 0.16053 0.27467 0.3277 0.0
H564 H 0.05276 0.27222 0.32791 0.0
C565 C 0.03094 0.14889 0.23979 0.0
C566 C 0.87416 0.33168 0.74008 0.0
C567 C 0.89281 0.37801 0.77744 0.0
H568 H 0.79503 0.21551 0.70155 0.0
C569 C 0.84313 0.34391 0.805 0.0
H570 H 0.91221 0.35544 0.71856 0.0
C571 C 0.77585 0.2634 0.79527 0.0
C572 C 0.75763 0.21679 0.75787 0.0
H573 H 0.85636 0.37927 0.83395 0.0
H574 H 0.73872 0.23633 0.81699 0.0
C575 C 0.80705 0.25213 0.73033 0.0
loop_
_geom_bond_atom_site_label_1
_geom_bond_atom_site_label_2
_geom_bond_distance
_geom_bond_site_symmetry_2
_ccdc_geom_bond_type
C0 C1 1.388 1_545 S
C0 N3 1.338 . S
C0 C5 1.503 . S
C1 C0 1.388 1_565 S
C1 C2 1.396 1_565 S
C2 C1 1.396 1_545 S
C2 N4 1.348 . S
C2 C9 1.504 1_545 S
N3 C0 1.338 . S
N3 N4 1.361 . S
N3 Cu168 1.924 . S
N4 C2 1.348 . S
N4 N3 1.361 . S
N4 Cu169 1.964 . S
C5 C0 1.503 . S
C5 H6 0.979 . S
C5 H7 0.979 1_545 S
C5 H8 0.979 . S
H6 C5 0.979 . S
H7 C5 0.979 1_565 S
H8 C5 0.979 . S
C9 C2 1.504 1_565 S
C9 H10 0.981 1_565 S
C9 H11 0.980 . S
C9 H12 0.979 . S
H10 C9 0.981 1_545 S
H11 C9 0.980 . S
H12 C9 0.979 . S
C13 C15 1.402 . S
C13 N16 1.356 . S
C13 C21 1.481 1_655 S
C14 C15 1.400 . S
C14 N17 1.325 . S
C14 C25 1.503 . S
C15 C13 1.402 . S
C15 C14 1.400 . S
N16 C13 1.356 . S
N16 N17 1.365 . S
N16 Cu175 1.941 . S
N17 C14 1.325 . S
N17 N16 1.365 . S
N17 Cu172 1.924 . S
H18 C21 0.980 . S
H19 C21 0.980 . S
H20 C21 0.980 . S
C21 C13 1.481 1_455 S
C21 H18 0.980 . S
C21 H19 0.980 . S
C21 H20 0.980 . S
H22 C25 0.978 . S
H23 C25 0.978 . S
H24 C25 0.983 . S
C25 C14 1.503 . S
C25 H22 0.978 . S
C25 H23 0.978 . S
C25 H24 0.983 . S
C26 H180 0.979 . S
C26 H181 0.981 . S
C26 H182 0.981 . S
C26 O216 1.438 . S
C27 H183 0.980 . S
C27 H184 0.979 . S
C27 H185 0.980 . S
C27 O217 1.533 . S
C28 N29 1.338 . S
C28 C31 1.388 . S
C28 C36 1.503 . S
N29 C28 1.338 . S
N29 N30 1.361 . S
N29 Cu170 1.924 . S
N30 N29 1.361 . S
N30 C32 1.348 . S
N30 Cu171 1.964 . S
C31 C28 1.388 . S
C31 C32 1.396 . S
C32 N30 1.348 . S
C32 C31 1.396 . S
C32 C40 1.504 . S
H33 C36 0.979 . S
H34 C36 0.979 1_565 S
H35 C36 0.979 1_565 S
C36 C28 1.503 . S
C36 H33 0.979 . S
C36 H34 0.979 1_545 S
C36 H35 0.979 1_545 S
H37 C40 0.981 . S
H38 C40 0.980 . S
H39 C40 0.979 . S
C40 C32 1.504 . S
C40 H37 0.981 . S
C40 H38 0.980 . S
C40 H39 0.979 . S
C41 N43 1.356 . S
C41 C45 1.402 . S
C41 C49 1.481 . S
C42 N44 1.325 . S
C42 C45 1.400 . S
C42 C50 1.503 . S
N43 C41 1.356 . S
N43 N44 1.365 . S
N43 Cu177 1.941 . S
N44 C42 1.325 . S
N44 N43 1.365 . S
N44 Cu168 1.924 . S
C45 C41 1.402 . S
C45 C42 1.400 . S
H46 C49 0.980 . S
H47 C49 0.980 . S
H48 C49 0.980 . S
C49 C41 1.481 . S
C49 H46 0.980 . S
C49 H47 0.980 . S
C49 H48 0.980 . S
C50 C42 1.503 . S
C50 H51 0.978 . S
C50 H52 0.978 . S
C50 H53 0.983 . S
H51 C50 0.978 . S
H52 C50 0.978 . S
H53 C50 0.983 . S
C54 H186 0.979 . S
C54 H187 0.981 . S
C54 H188 0.981 . S
C54 O218 1.438 . S
C55 H189 0.980 . S
C55 H190 0.979 . S
C55 H191 0.980 . S
C55 O219 1.533 . S
C56 N57 1.338 . S
C56 C58 1.388 . S
C56 C64 1.503 . S
N57 C56 1.338 . S
N57 N59 1.361 . S
N57 Cu172 1.924 . S
C58 C56 1.388 . S
C58 C60 1.396 . S
N59 N57 1.361 . S
N59 C60 1.348 . S
N59 Cu173 1.964 . S
C60 C58 1.396 . S
C60 N59 1.348 . S
C60 C66 1.504 . S
H61 C64 0.979 . S
H62 C64 0.979 . S
H63 C64 0.979 . S
C64 C56 1.503 . S
C64 H61 0.979 . S
C64 H62 0.979 . S
C64 H63 0.979 . S
H65 C66 0.981 . S
C66 C60 1.504 . S
C66 H65 0.981 . S
C66 H67 0.979 . S
C66 H68 0.980 . S
H67 C66 0.979 . S
H68 C66 0.980 . S
C69 N71 1.356 . S
C69 C73 1.402 . S
C69 C75 1.481 . S
C70 N72 1.325 . S
C70 C73 1.400 . S
C70 C80 1.503 . S
N71 C69 1.356 . S
N71 N72 1.365 . S
N71 Cu179 1.941 . S
N72 C70 1.325 . S
N72 N71 1.365 . S
N72 Cu170 1.924 . S
C73 C69 1.402 . S
C73 C70 1.400 . S
H74 C75 0.980 . S
C75 C69 1.481 . S
C75 H74 0.980 . S
C75 H76 0.980 . S
C75 H77 0.980 . S
H76 C75 0.980 . S
H77 C75 0.980 . S
H78 C80 0.978 . S
H79 C80 0.978 . S
C80 C70 1.503 . S
C80 H78 0.978 . S
C80 H79 0.978 . S
C80 H81 0.983 . S
H81 C80 0.983 . S
C82 H192 0.979 . S
C82 H193 0.981 . S
C82 H194 0.981 . S
C82 O220 1.438 . S
C83 H195 0.980 . S
C83 H196 0.979 . S
C83 H197 0.980 . S
C83 O221 1.533 . S
C84 N85 1.338 1_455 S
C84 C86 1.388 . S
C84 C89 1.503 . S
N85 C84 1.338 1_655 S
N85 N88 1.361 . S
N85 Cu174 1.924 . S
C86 C84 1.388 . S
C86 C87 1.396 1_455 S
C87 C86 1.396 1_655 S
C87 N88 1.348 . S
C87 C93 1.504 . S
N88 N85 1.361 . S
N88 C87 1.348 . S
N88 Cu175 1.964 . S
C89 C84 1.503 . S
C89 H90 0.979 . S
C89 H91 0.979 . S
C89 H92 0.979 . S
H90 C89 0.979 . S
H91 C89 0.979 . S
H92 C89 0.979 . S
C93 C87 1.504 . S
C93 H94 0.981 . S
C93 H95 0.980 . S
C93 H96 0.979 . S
H94 C93 0.981 . S
H95 C93 0.980 . S
H96 C93 0.979 . S
C97 C98 1.402 . S
C97 N100 1.356 . S
C97 C105 1.481 . S
C98 C97 1.402 . S
C98 C99 1.400 . S
C99 C98 1.400 . S
C99 N101 1.325 . S
C99 C106 1.503 . S
N100 C97 1.356 . S
N100 N101 1.365 . S
N100 Cu169 1.941 . S
N101 C99 1.325 . S
N101 N100 1.365 . S
N101 Cu178 1.924 . S
H102 C105 0.980 . S
H103 C105 0.980 1_565 S
H104 C105 0.980 . S
C105 C97 1.481 . S
C105 H102 0.980 . S
C105 H103 0.980 1_545 S
C105 H104 0.980 . S
C106 C99 1.503 . S
C106 H107 0.978 . S
C106 H108 0.978 . S
C106 H109 0.983 . S
H107 C106 0.978 . S
H108 C106 0.978 . S
H109 C106 0.983 . S
C110 H198 0.979 . S
C110 H199 0.981 . S
C110 H200 0.981 . S
C110 O222 1.438 . S
C111 H201 0.980 . S
C111 H202 0.979 . S
C111 H203 0.980 . S
C111 O223 1.533 . S
C112 C113 1.388 . S
C112 N115 1.338 . S
C112 C117 1.503 . S
C113 C112 1.388 . S
C113 C114 1.396 . S
C114 C113 1.396 . S
C114 N116 1.348 . S
C114 C121 1.504 . S
N115 C112 1.338 . S
N115 N116 1.361 . S
N115 Cu176 1.924 . S
N116 C114 1.348 . S
N116 N115 1.361 . S
N116 Cu177 1.964 . S
C117 C112 1.503 . S
C117 H118 0.979 . S
C117 H119 0.979 . S
C117 H120 0.979 . S
H118 C117 0.979 . S
H119 C117 0.979 . S
H120 C117 0.979 . S
C121 C114 1.504 . S
C121 H122 0.981 . S
C121 H123 0.980 . S
C121 H124 0.979 . S
H122 C121 0.981 . S
H123 C121 0.980 . S
H124 C121 0.979 . S
C125 C126 1.402 1_655 S
C125 N128 1.356 . S
C125 C130 1.481 . S
C126 C125 1.402 1_455 S
C126 C127 1.400 . S
C127 C126 1.400 . S
C127 N129 1.325 . S
C127 C134 1.503 . S
N128 C125 1.356 . S
N128 N129 1.365 1_655 S
N128 Cu171 1.941 . S
N129 C127 1.325 . S
N129 N128 1.365 1_455 S
N129 Cu174 1.924 1_455 S
C130 C125 1.481 . S
C130 H131 0.980 . S
C130 H132 0.980 . S
C130 H133 0.980 . S
H131 C130 0.980 . S
H132 C130 0.980 . S
H133 C130 0.980 . S
C134 C127 1.503 . S
C134 H135 0.978 . S
C134 H136 0.978 . S
C134 H137 0.983 . S
H135 C134 0.978 . S
H136 C134 0.978 . S
H137 C134 0.983 . S
C138 H204 0.979 . S
C138 H205 0.981 . S
C138 H206 0.981 . S
C138 O224 1.438 . S
C139 H207 0.980 . S
C139 H208 0.979 . S
C139 H209 0.980 . S
C139 O225 1.533 . S
C140 N141 1.338 . S
C140 C143 1.388 . S
C140 C148 1.503 . S
N141 C140 1.338 . S
N141 N142 1.361 . S
N141 Cu178 1.924 . S
N142 N141 1.361 . S
N142 C144 1.348 . S
N142 Cu179 1.964 . S
C143 C140 1.388 . S
C143 C144 1.396 . S
C144 N142 1.348 . S
C144 C143 1.396 . S
C144 C152 1.504 . S
H145 C148 0.979 . S
H146 C148 0.979 . S
H147 C148 0.979 . S
C148 C140 1.503 . S
C148 H145 0.979 . S
C148 H146 0.979 . S
C148 H147 0.979 . S
H149 C152 0.981 . S
H150 C152 0.980 . S
H151 C152 0.979 . S
C152 C144 1.504 . S
C152 H149 0.981 . S
C152 H150 0.980 . S
C152 H151 0.979 . S
C153 N154 1.356 . S
C153 C156 1.402 . S
C153 C158 1.481 . S
N154 C153 1.356 . S
N154 N155 1.365 . S
N154 Cu173 1.941 . S
N155 N154 1.365 . S
N155 C157 1.325 . S
N155 Cu176 1.924 . S
C156 C153 1.402 . S
C156 C157 1.400 . S
C157 N155 1.325 . S
C157 C156 1.400 . S
C157 C162 1.503 . S
C158 C153 1.481 . S
C158 H159 0.980 1_554 S
C158 H160 0.980 1_554 S
C158 H161 0.980 . S
H159 C158 0.980 1_556 S
H160 C158 0.980 1_556 S
H161 C158 0.980 . S
C162 C157 1.503 . S
C162 H163 0.978 . S
C162 H164 0.978 . S
C162 H165 0.983 . S
H163 C162 0.978 . S
H164 C162 0.978 . S
H165 C162 0.983 . S
C166 H210 0.979 . S
C166 H211 0.981 . S
C166 H212 0.981 . S
C166 O226 1.438 . S
C167 H213 0.980 . S
C167 H214 0.979 . S
C167 H215 0.980 . S
C167 O227 1.533 . S
Cu168 N3 1.924 . S
Cu168 N44 1.924 . S
Cu168 O216 1.923 . S
Cu168 O217 1.930 . S
Cu169 N4 1.964 . S
Cu169 N100 1.941 . S
Cu169 O216 1.905 . S
Cu169 O227 1.920 . S
Cu170 N29 1.924 . S
Cu170 N72 1.924 . S
Cu170 O218 1.923 . S
Cu170 O219 1.930 . S
Cu171 N30 1.964 . S
Cu171 N128 1.941 . S
Cu171 O218 1.905 . S
Cu171 O223 1.920 . S
Cu172 N17 1.924 . S
Cu172 N57 1.924 . S
Cu172 O220 1.923 . S
Cu172 O221 1.930 . S
Cu173 N59 1.964 . S
Cu173 N154 1.941 . S
Cu173 O220 1.905 . S
Cu173 O225 1.920 . S
Cu174 N85 1.924 . S
Cu174 N129 1.924 1_655 S
Cu174 O222 1.923 . S
Cu174 O223 1.930 . S
Cu175 N16 1.941 . S
Cu175 N88 1.964 . S
Cu175 O221 1.920 . S
Cu175 O222 1.905 . S
Cu176 N115 1.924 . S
Cu176 N155 1.924 . S
Cu176 O224 1.923 . S
Cu176 O225 1.930 . S
Cu177 N43 1.941 . S
Cu177 N116 1.964 . S
Cu177 O217 1.920 . S
Cu177 O224 1.905 . S
Cu178 N101 1.924 . S
Cu178 N141 1.924 . S
Cu178 O226 1.923 . S
Cu178 O227 1.930 . S
Cu179 N71 1.941 . S
Cu179 N142 1.964 . S
Cu179 O219 1.920 . S
Cu179 O226 1.905 . S
H180 C26 0.979 . S
H181 C26 0.981 . S
H182 C26 0.981 . S
H183 C27 0.980 . S
H184 C27 0.979 . S
H185 C27 0.980 . S
H186 C54 0.979 . S
H187 C54 0.981 . S
H188 C54 0.981 . S
H189 C55 0.980 . S
H190 C55 0.979 . S
H191 C55 0.980 . S
H192 C82 0.979 . S
H193 C82 0.981 . S
H194 C82 0.981 . S
H195 C83 0.980 . S
H196 C83 0.979 . S
H197 C83 0.980 . S
H198 C110 0.979 . S
H199 C110 0.981 . S
H200 C110 0.981 . S
H201 C111 0.980 . S
H202 C111 0.979 . S
H203 C111 0.980 . S
H204 C138 0.979 . S
H205 C138 0.981 . S
H206 C138 0.981 . S
H207 C139 0.980 . S
H208 C139 0.979 . S
H209 C139 0.980 . S
H210 C166 0.979 . S
H211 C166 0.981 . S
H212 C166 0.981 . S
H213 C167 0.980 . S
H214 C167 0.979 . S
H215 C167 0.980 . S
O216 C26 1.438 . S
O216 Cu168 1.923 . S
O216 Cu169 1.905 . S
O217 C27 1.533 . S
O217 Cu168 1.930 . S
O217 Cu177 1.920 . S
O218 C54 1.438 . S
O218 Cu170 1.923 . S
O218 Cu171 1.905 . S
O219 C55 1.533 . S
O219 Cu170 1.930 . S
O219 Cu179 1.920 . S
O220 C82 1.438 . S
O220 Cu172 1.923 . S
O220 Cu173 1.905 . S
O221 C83 1.533 . S
O221 Cu172 1.930 . S
O221 Cu175 1.920 . S
O222 C110 1.438 . S
O222 Cu174 1.923 . S
O222 Cu175 1.905 . S
O223 C111 1.533 . S
O223 Cu171 1.920 . S
O223 Cu174 1.930 . S
O224 C138 1.438 . S
O224 Cu176 1.923 . S
O224 Cu177 1.905 . S
O225 C139 1.533 . S
O225 Cu173 1.920 . S
O225 Cu176 1.930 . S
O226 C166 1.438 . S
O226 Cu178 1.923 . S
O226 Cu179 1.905 . S
O227 C167 1.533 . S
O227 Cu169 1.920 . S
O227 Cu178 1.930 . S
C228 C229 1.388 . S
C228 N231 1.338 1_655 S
C228 C233 1.503 . S
C229 C228 1.388 . S
C229 C230 1.396 1_655 S
C230 C229 1.396 1_455 S
C230 N232 1.348 . S
C230 C237 1.504 . S
N231 C228 1.338 1_455 S
N231 N232 1.361 . S
N231 Cu396 1.924 . S
N232 C230 1.348 . S
N232 N231 1.361 . S
N232 Cu397 1.964 . S
C233 C228 1.503 . S
C233 H234 0.979 . S
C233 H235 0.979 . S
C233 H236 0.979 . S
H234 C233 0.979 . S
H235 C233 0.979 . S
H236 C233 0.979 . S
C237 C230 1.504 . S
C237 H238 0.981 . S
C237 H239 0.980 . S
C237 H240 0.979 . S
H238 C237 0.981 . S
H239 C237 0.980 . S
H240 C237 0.979 . S
C241 C243 1.402 . S
C241 N244 1.356 . S
C241 C249 1.481 . S
C242 C243 1.400 . S
C242 N245 1.325 . S
C242 C253 1.503 . S
C243 C241 1.402 . S
C243 C242 1.400 . S
N244 C241 1.356 . S
N244 N245 1.365 . S
N244 Cu403 1.941 . S
N245 C242 1.325 . S
N245 N244 1.365 . S
N245 Cu400 1.924 . S
H246 C249 0.980 . S
H247 C249 0.980 1_545 S
H248 C249 0.980 . S
C249 C241 1.481 . S
C249 H246 0.980 . S
C249 H247 0.980 1_565 S
C249 H248 0.980 . S
H250 C253 0.978 . S
H251 C253 0.978 . S
H252 C253 0.983 . S
C253 C242 1.503 . S
C253 H250 0.978 . S
C253 H251 0.978 . S
C253 H252 0.983 . S
C254 H408 0.979 . S
C254 H409 0.981 . S
C254 H410 0.981 . S
C254 O444 1.438 . S
C255 H411 0.980 . S
C255 H412 0.979 . S
C255 H413 0.980 . S
C255 O445 1.533 . S
C256 N257 1.338 . S
C256 C259 1.388 . S
C256 C264 1.503 . S
N257 C256 1.338 . S
N257 N258 1.361 . S
N257 Cu398 1.924 . S
N258 N257 1.361 . S
N258 C260 1.348 . S
N258 Cu399 1.964 . S
C259 C256 1.388 . S
C259 C260 1.396 . S
C260 N258 1.348 . S
C260 C259 1.396 . S
C260 C268 1.504 . S
H261 C264 0.979 . S
H262 C264 0.979 . S
H263 C264 0.979 . S
C264 C256 1.503 . S
C264 H261 0.979 . S
C264 H262 0.979 . S
C264 H263 0.979 . S
H265 C268 0.981 . S
H266 C268 0.980 . S
H267 C268 0.979 . S
C268 C260 1.504 . S
C268 H265 0.981 . S
C268 H266 0.980 . S
C268 H267 0.979 . S
C269 N271 1.356 . S
C269 C273 1.402 1_455 S
C269 C277 1.481 . S
C270 N272 1.325 . S
C270 C273 1.400 . S
C270 C278 1.503 . S
N271 C269 1.356 . S
N271 N272 1.365 1_455 S
N271 Cu405 1.941 . S
N272 C270 1.325 . S
N272 N271 1.365 1_655 S
N272 Cu396 1.924 1_655 S
C273 C269 1.402 1_655 S
C273 C270 1.400 . S
H274 C277 0.980 . S
H275 C277 0.980 . S
H276 C277 0.980 . S
C277 C269 1.481 . S
C277 H274 0.980 . S
C277 H275 0.980 . S
C277 H276 0.980 . S
C278 C270 1.503 . S
C278 H279 0.978 . S
C278 H280 0.978 . S
C278 H281 0.983 . S
H279 C278 0.978 . S
H280 C278 0.978 . S
H281 C278 0.983 . S
C282 H414 0.979 . S
C282 H415 0.981 . S
C282 H416 0.981 . S
C282 O446 1.438 . S
C283 H417 0.980 . S
C283 H418 0.979 . S
C283 H419 0.980 . S
C283 O447 1.533 . S
C284 N285 1.338 . S
C284 C286 1.388 . S
C284 C292 1.503 . S
N285 C284 1.338 . S
N285 N287 1.361 . S
N285 Cu400 1.924 . S
C286 C284 1.388 . S
C286 C288 1.396 . S
N287 N285 1.361 . S
N287 C288 1.348 . S
N287 Cu401 1.964 . S
C288 C286 1.396 . S
C288 N287 1.348 . S
C288 C294 1.504 . S
H289 C292 0.979 . S
H290 C292 0.979 . S
H291 C292 0.979 . S
C292 C284 1.503 . S
C292 H289 0.979 . S
C292 H290 0.979 . S
C292 H291 0.979 . S
H293 C294 0.981 . S
C294 C288 1.504 . S
C294 H293 0.981 . S
C294 H295 0.979 . S
C294 H296 0.980 . S
H295 C294 0.979 . S
H296 C294 0.980 . S
C297 N299 1.356 . S
C297 C301 1.402 . S
C297 C303 1.481 . S
C298 N300 1.325 . S
C298 C301 1.400 . S
C298 C308 1.503 . S
N299 C297 1.356 . S
N299 N300 1.365 . S
N299 Cu407 1.941 . S
N300 C298 1.325 . S
N300 N299 1.365 . S
N300 Cu398 1.924 . S
C301 C297 1.402 . S
C301 C298 1.400 . S
H302 C303 0.980 1_554 S
C303 C297 1.481 . S
C303 H302 0.980 1_556 S
C303 H304 0.980 . S
C303 H305 0.980 1_556 S
H304 C303 0.980 . S
H305 C303 0.980 1_554 S
H306 C308 0.978 . S
H307 C308 0.978 . S
C308 C298 1.503 . S
C308 H306 0.978 . S
C308 H307 0.978 . S
C308 H309 0.983 . S
H309 C308 0.983 . S
C310 H420 0.979 . S
C310 H421 0.981 . S
C310 H422 0.981 . S
C310 O448 1.438 . S
C311 H423 0.980 . S
C311 H424 0.979 . S
C311 H425 0.980 . S
C311 O449 1.533 . S
C312 N313 1.338 . S
C312 C314 1.388 1_565 S
C312 C317 1.503 . S
N313 C312 1.338 . S
N313 N316 1.361 . S
N313 Cu402 1.924 . S
C314 C312 1.388 1_545 S
C314 C315 1.396 1_545 S
C315 C314 1.396 1_565 S
C315 N316 1.348 . S
C315 C321 1.504 1_565 S
N316 N313 1.361 . S
N316 C315 1.348 . S
N316 Cu403 1.964 . S
C317 C312 1.503 . S
C317 H318 0.979 . S
C317 H319 0.979 1_565 S
C317 H320 0.979 . S
H318 C317 0.979 . S
H319 C317 0.979 1_545 S
H320 C317 0.979 . S
C321 C315 1.504 1_545 S
C321 H322 0.981 1_545 S
C321 H323 0.980 . S
C321 H324 0.979 . S
H322 C321 0.981 1_565 S
H323 C321 0.980 . S
H324 C321 0.979 . S
C325 C326 1.402 . S
C325 N328 1.356 . S
C325 C333 1.481 1_455 S
C326 C325 1.402 . S
C326 C327 1.400 . S
C327 C326 1.400 . S
C327 N329 1.325 . S
C327 C334 1.503 . S
N328 C325 1.356 . S
N328 N329 1.365 . S
N328 Cu397 1.941 . S
N329 C327 1.325 . S
N329 N328 1.365 . S
N329 Cu406 1.924 . S
H330 C333 0.980 . S
H331 C333 0.980 . S
H332 C333 0.980 . S
C333 C325 1.481 1_655 S
C333 H330 0.980 . S
C333 H331 0.980 . S
C333 H332 0.980 . S
C334 C327 1.503 . S
C334 H335 0.978 . S
C334 H336 0.978 . S
C334 H337 0.983 . S
H335 C334 0.978 . S
H336 C334 0.978 . S
H337 C334 0.983 . S
C338 H426 0.979 . S
C338 H427 0.981 . S
C338 H428 0.981 . S
C338 O450 1.438 . S
C339 H429 0.980 . S
C339 H430 0.979 . S
C339 H431 0.980 . S
C339 O451 1.533 . S
C340 C341 1.388 . S
C340 N343 1.338 . S
C340 C345 1.503 . S
C341 C340 1.388 . S
C341 C342 1.396 . S
C342 C341 1.396 . S
C342 N344 1.348 . S
C342 C349 1.504 . S
N343 C340 1.338 . S
N343 N344 1.361 . S
N343 Cu404 1.924 . S
N344 C342 1.348 . S
N344 N343 1.361 . S
N344 Cu405 1.964 . S
C345 C340 1.503 . S
C345 H346 0.979 . S
C345 H347 0.979 1_565 S
C345 H348 0.979 1_565 S
H346 C345 0.979 . S
H347 C345 0.979 1_545 S
H348 C345 0.979 1_545 S
C349 C342 1.504 . S
C349 H350 0.981 . S
C349 H351 0.980 . S
C349 H352 0.979 . S
H350 C349 0.981 . S
H351 C349 0.980 . S
H352 C349 0.979 . S
C353 C354 1.402 . S
C353 N356 1.356 . S
C353 C358 1.481 . S
C354 C353 1.402 . S
C354 C355 1.400 . S
C355 C354 1.400 . S
C355 N357 1.325 . S
C355 C362 1.503 . S
N356 C353 1.356 . S
N356 N357 1.365 . S
N356 Cu399 1.941 . S
N357 C355 1.325 . S
N357 N356 1.365 . S
N357 Cu402 1.924 . S
C358 C353 1.481 . S
C358 H359 0.980 . S
C358 H360 0.980 . S
C358 H361 0.980 . S
H359 C358 0.980 . S
H360 C358 0.980 . S
H361 C358 0.980 . S
C362 C355 1.503 . S
C362 H363 0.978 . S
C362 H364 0.978 . S
C362 H365 0.983 . S
H363 C362 0.978 . S
H364 C362 0.978 . S
H365 C362 0.983 . S
C366 H432 0.979 . S
C366 H433 0.981 . S
C366 H434 0.981 . S
C366 O452 1.438 . S
C367 H435 0.980 . S
C367 H436 0.979 . S
C367 H437 0.980 . S
C367 O453 1.533 . S
C368 N369 1.338 . S
C368 C371 1.388 . S
C368 C376 1.503 . S
N369 C368 1.338 . S
N369 N370 1.361 . S
N369 Cu406 1.924 . S
N370 N369 1.361 . S
N370 C372 1.348 . S
N370 Cu407 1.964 . S
C371 C368 1.388 . S
C371 C372 1.396 . S
C372 N370 1.348 . S
C372 C371 1.396 . S
C372 C380 1.504 . S
H373 C376 0.979 . S
H374 C376 0.979 . S
H375 C376 0.979 . S
C376 C368 1.503 . S
C376 H373 0.979 . S
C376 H374 0.979 . S
C376 H375 0.979 . S
H377 C380 0.981 . S
H378 C380 0.980 . S
H379 C380 0.979 . S
C380 C372 1.504 . S
C380 H377 0.981 . S
C380 H378 0.980 . S
C380 H379 0.979 . S
C381 N382 1.356 . S
C381 C384 1.402 . S
C381 C386 1.481 . S
N382 C381 1.356 . S
N382 N383 1.365 . S
N382 Cu401 1.941 . S
N383 N382 1.365 . S
N383 C385 1.325 . S
N383 Cu404 1.924 . S
C384 C381 1.402 . S
C384 C385 1.400 . S
C385 N383 1.325 . S
C385 C384 1.400 . S
C385 C390 1.503 . S
C386 C381 1.481 . S
C386 H387 0.980 . S
C386 H388 0.980 . S
C386 H389 0.980 . S
H387 C386 0.980 . S
H388 C386 0.980 . S
H389 C386 0.980 . S
C390 C385 1.503 . S
C390 H391 0.978 . S
C390 H392 0.978 . S
C390 H393 0.983 . S
H391 C390 0.978 . S
H392 C390 0.978 . S
H393 C390 0.983 . S
C394 H438 0.979 . S
C394 H439 0.981 . S
C394 H440 0.981 . S
C394 O454 1.438 . S
C395 H441 0.980 . S
C395 H442 0.979 . S
C395 H443 0.980 . S
C395 O455 1.533 . S
Cu396 N231 1.924 . S
Cu396 N272 1.924 1_455 S
Cu396 O444 1.923 . S
Cu396 O445 1.930 . S
Cu397 N232 1.964 . S
Cu397 N328 1.941 . S
Cu397 O444 1.905 . S
Cu397 O455 1.920 . S
Cu398 N257 1.924 . S
Cu398 N300 1.924 . S
Cu398 O446 1.923 . S
Cu398 O447 1.930 . S
Cu399 N258 1.964 . S
Cu399 N356 1.941 . S
Cu399 O446 1.905 . S
Cu399 O451 1.920 . S
Cu400 N245 1.924 . S
Cu400 N285 1.924 . S
Cu400 O448 1.923 . S
Cu400 O449 1.930 . S
Cu401 N287 1.964 . S
Cu401 N382 1.941 . S
Cu401 O448 1.905 . S
Cu401 O453 1.920 . S
Cu402 N313 1.924 . S
Cu402 N357 1.924 . S
Cu402 O450 1.923 . S
Cu402 O451 1.930 . S
Cu403 N244 1.941 . S
Cu403 N316 1.964 . S
Cu403 O449 1.920 . S
Cu403 O450 1.905 . S
Cu404 N343 1.924 . S
Cu404 N383 1.924 . S
Cu404 O452 1.923 . S
Cu404 O453 1.930 . S
Cu405 N271 1.941 . S
Cu405 N344 1.964 . S
Cu405 O445 1.920 . S
Cu405 O452 1.905 . S
Cu406 N329 1.924 . S
Cu406 N369 1.924 . S
Cu406 O454 1.923 . S
Cu406 O455 1.930 . S
Cu407 N299 1.941 . S
Cu407 N370 1.964 . S
Cu407 O447 1.920 . S
Cu407 O454 1.905 . S
H408 C254 0.979 . S
H409 C254 0.981 . S
H410 C254 0.981 . S
H411 C255 0.980 . S
H412 C255 0.979 . S
H413 C255 0.980 . S
H414 C282 0.979 . S
H415 C282 0.981 . S
H416 C282 0.981 . S
H417 C283 0.980 . S
H418 C283 0.979 . S
H419 C283 0.980 . S
H420 C310 0.979 . S
H421 C310 0.981 . S
H422 C310 0.981 . S
H423 C311 0.980 . S
H424 C311 0.979 . S
H425 C311 0.980 . S
H426 C338 0.979 . S
H427 C338 0.981 . S
H428 C338 0.981 . S
H429 C339 0.980 . S
H430 C339 0.979 . S
H431 C339 0.980 . S
H432 C366 0.979 . S
H433 C366 0.981 . S
H434 C366 0.981 . S
H435 C367 0.980 . S
H436 C367 0.979 . S
H437 C367 0.980 . S
H438 C394 0.979 . S
H439 C394 0.981 . S
H440 C394 0.981 . S
H441 C395 0.980 . S
H442 C395 0.979 . S
H443 C395 0.980 . S
O444 C254 1.438 . S
O444 Cu396 1.923 . S
O444 Cu397 1.905 . S
O445 C255 1.533 . S
O445 Cu396 1.930 . S
O445 Cu405 1.920 . S
O446 C282 1.438 . S
O446 Cu398 1.923 . S
O446 Cu399 1.905 . S
O447 C283 1.533 . S
O447 Cu398 1.930 . S
O447 Cu407 1.920 . S
O448 C310 1.438 . S
O448 Cu400 1.923 . S
O448 Cu401 1.905 . S
O449 C311 1.533 . S
O449 Cu400 1.930 . S
O449 Cu403 1.920 . S
O450 C338 1.438 . S
O450 Cu402 1.923 . S
O450 Cu403 1.905 . S
O451 C339 1.533 . S
O451 Cu399 1.920 . S
O451 Cu402 1.930 . S
O452 C366 1.438 . S
O452 Cu404 1.923 . S
O452 Cu405 1.905 . S
O453 C367 1.533 . S
O453 Cu401 1.920 . S
O453 Cu404 1.930 . S
O454 C394 1.438 . S
O454 Cu406 1.923 . S
O454 Cu407 1.905 . S
O455 C395 1.533 . S
O455 Cu397 1.920 . S
O455 Cu406 1.930 . S
C456 C457 1.387 1_545 S
C456 H460 0.950 . S
C456 C465 1.390 1_556 S
C457 C456 1.387 1_565 S
C457 C459 1.387 . S
H458 C465 0.950 . S
C459 C457 1.387 . S
C459 C461 1.390 1_556 S
C459 H463 0.950 . S
H460 C456 0.950 . S
C461 C459 1.390 1_554 S
C461 C462 1.387 1_565 S
C461 H464 0.950 . S
C462 C461 1.387 1_545 S
C462 C465 1.387 . S
H463 C459 0.950 . S
H464 C461 0.950 . S
C465 C456 1.390 1_554 S
C465 H458 0.950 . S
C465 C462 1.387 . S
C466 C467 1.387 . S
C466 H470 0.950 . S
C466 C475 1.390 . S
C467 C466 1.387 . S
C467 C469 1.387 . S
H468 C475 0.950 . S
C469 C467 1.387 . S
C469 C471 1.390 . S
C469 H473 0.950 . S
H470 C466 0.950 . S
C471 C469 1.390 . S
C471 C472 1.387 . S
C471 H474 0.950 . S
C472 C471 1.387 . S
C472 C475 1.387 . S
H473 C469 0.950 . S
H474 C471 0.950 . S
C475 C466 1.390 . S
C475 H468 0.950 . S
C475 C472 1.387 . S
C476 C477 1.387 . S
C476 H480 0.950 . S
C476 C485 1.390 1_554 S
C477 C476 1.387 . S
C477 C479 1.387 1_455 S
H478 C485 0.950 . S
C479 C477 1.387 1_655 S
C479 C481 1.390 1_554 S
C479 H483 0.950 . S
H480 C476 0.950 . S
C481 C479 1.390 1_556 S
C481 C482 1.387 . S
C481 H484 0.950 . S
C482 C481 1.387 . S
C482 C485 1.387 1_655 S
H483 C479 0.950 . S
H484 C481 0.950 . S
C485 C476 1.390 1_556 S
C485 H478 0.950 . S
C485 C482 1.387 1_455 S
C486 C487 1.387 1_545 S
C486 H490 0.950 . S
C486 C495 1.390 . S
C487 C486 1.387 1_565 S
C487 C489 1.387 . S
H488 C495 0.950 . S
C489 C487 1.387 . S
C489 C491 1.390 . S
C489 H493 0.950 . S
H490 C486 0.950 . S
C491 C489 1.390 . S
C491 C492 1.387 1_565 S
C491 H494 0.950 . S
C492 C491 1.387 1_545 S
C492 C495 1.387 . S
H493 C489 0.950 . S
H494 C491 0.950 . S
C495 C486 1.390 . S
C495 H488 0.950 . S
C495 C492 1.387 . S
C496 C497 1.387 . S
C496 H500 0.950 . S
C496 C505 1.390 . S
C497 C496 1.387 . S
C497 C499 1.387 1_554 S
H498 C505 0.950 . S
C499 C497 1.387 1_556 S
C499 C501 1.390 . S
C499 H503 0.950 . S
H500 C496 0.950 . S
C501 C499 1.390 . S
C501 C502 1.387 . S
C501 H504 0.950 . S
C502 C501 1.387 . S
C502 C505 1.387 1_556 S
H503 C499 0.950 . S
H504 C501 0.950 . S
C505 C496 1.390 . S
C505 H498 0.950 . S
C505 C502 1.387 1_554 S
C506 C507 1.387 . S
C506 H510 0.950 . S
C506 C515 1.390 1_655 S
C507 C506 1.387 . S
C507 C509 1.387 . S
H508 C515 0.950 . S
C509 C507 1.387 . S
C509 C511 1.390 1_655 S
C509 H513 0.950 . S
H510 C506 0.950 . S
C511 C509 1.390 1_455 S
C511 C512 1.387 . S
C511 H514 0.950 . S
C512 C511 1.387 . S
C512 C515 1.387 . S
H513 C509 0.950 . S
H514 C511 0.950 . S
C515 C506 1.390 1_455 S
C515 H508 0.950 . S
C515 C512 1.387 . S
C516 C517 1.387 . S
C516 H520 0.950 . S
C516 C525 1.390 . S
C517 C516 1.387 . S
C517 C519 1.387 . S
H518 C525 0.950 . S
C519 C517 1.387 . S
C519 C521 1.390 . S
C519 H523 0.950 . S
H520 C516 0.950 . S
C521 C519 1.390 . S
C521 C522 1.387 . S
C521 H524 0.950 . S
C522 C521 1.387 . S
C522 C525 1.387 . S
H523 C519 0.950 . S
H524 C521 0.950 . S
C525 C516 1.390 . S
C525 H518 0.950 . S
C525 C522 1.387 . S
C526 C527 1.387 . S
C526 H530 0.950 . S
C526 C535 1.390 . S
C527 C526 1.387 . S
C527 C529 1.387 . S
H528 C535 0.950 . S
C529 C527 1.387 . S
C529 C531 1.390 . S
C529 H533 0.950 . S
H530 C526 0.950 . S
C531 C529 1.390 . S
C531 C532 1.387 . S
C531 H534 0.950 . S
C532 C531 1.387 . S
C532 C535 1.387 . S
H533 C529 0.950 . S
H534 C531 0.950 . S
C535 C526 1.390 . S
C535 H528 0.950 . S
C535 C532 1.387 . S
C536 C537 1.387 . S
C536 H540 0.950 . S
C536 C545 1.390 . S
C537 C536 1.387 . S
C537 C539 1.387 . S
H538 C545 0.950 . S
C539 C537 1.387 . S
C539 C541 1.390 . S
C539 H543 0.950 . S
H540 C536 0.950 . S
C541 C539 1.390 . S
C541 C542 1.387 . S
C541 H544 0.950 . S
C542 C541 1.387 . S
C542 C545 1.387 . S
H543 C539 0.950 . S
H544 C541 0.950 . S
C545 C536 1.390 . S
C545 H538 0.950 . S
C545 C542 1.387 . S
C546 C547 1.387 . S
C546 H550 0.950 . S
C546 C555 1.390 . S
C547 C546 1.387 . S
C547 C549 1.387 . S
H548 C555 0.950 . S
C549 C547 1.387 . S
C549 C551 1.390 . S
C549 H553 0.950 . S
H550 C546 0.950 . S
C551 C549 1.390 . S
C551 C552 1.387 . S
C551 H554 0.950 . S
C552 C551 1.387 . S
C552 C555 1.387 . S
H553 C549 0.950 . S
H554 C551 0.950 . S
C555 C546 1.390 . S
C555 H548 0.950 . S
C555 C552 1.387 . S
C556 C557 1.387 . S
C556 H560 0.950 . S
C556 C565 1.390 . S
C557 C556 1.387 . S
C557 C559 1.387 . S
H558 C565 0.950 . S
C559 C557 1.387 . S
C559 C561 1.390 . S
C559 H563 0.950 . S
H560 C556 0.950 . S
C561 C559 1.390 . S
C561 C562 1.387 . S
C561 H564 0.950 . S
C562 C561 1.387 . S
C562 C565 1.387 . S
H563 C559 0.950 . S
H564 C561 0.950 . S
C565 C556 1.390 . S
C565 H558 0.950 . S
C565 C562 1.387 . S
C566 C567 1.387 . S
C566 H570 0.950 . S
C566 C575 1.390 . S
C567 C566 1.387 . S
C567 C569 1.387 . S
H568 C575 0.950 . S
C569 C567 1.387 . S
C569 C571 1.390 . S
C569 H573 0.950 . S
H570 C566 0.950 . S
C571 C569 1.390 . S
C571 C572 1.387 . S
C571 H574 0.950 . S
C572 C571 1.387 . S
C572 C575 1.387 . S
H573 C569 0.950 . S
H574 C571 0.950 . S
C575 C566 1.390 . S
C575 H568 0.950 . S
C575 C572 1.387 . S
C457 C371 1.844 . S
C462 C58 1.844 . S
C467 C286 4.072 . S
C472 C143 4.072 . S
C477 C15 1.988 1_455 S
C482 C326 1.988 1_655 S
C487 C243 3.818 . S
C492 C98 3.818 . S
C497 C156 2.015 . S
C502 C301 2.015 . S
C507 C73 1.412 . S
C512 C384 1.412 . S
C517 C31 1.588 1_565 S
C522 C113 1.588 . S
C527 C273 0.982 . S
C532 C354 0.982 . S
C537 C1 1.604 . S
C542 C86 1.604 . S
C547 C259 1.587 . S
C552 C341 1.587 1_545 S
C557 C45 0.982 . S
C562 C126 0.982 . S
C567 C229 1.603 . S
C572 C314 1.603 . S
