# Generated by pormake.
# Topology wkc, (5)-cn, num edge types: 1
# Building blocks:
#     Node 0, Type 0, BuildingBlock: XOMCOT_clean_sbu_1, # of connection points: 5
#     Node 1, Type 0, BuildingBlock: XOMCOT_clean_sbu_1, # of connection points: 5
#     Node 2, Type 0, BuildingBlock: XOMCOT_clean_sbu_1, # of connection points: 5
#     Node 3, Type 0, BuildingBlock: XOMCOT_clean_sbu_1, # of connection points: 5
#     Node 4, Type 0, BuildingBlock: XOMCOT_clean_sbu_1, # of connection points: 5
#     Node 5, Type 0, BuildingBlock: XOMCOT_clean_sbu_1, # of connection points: 5
#     Node 6, Type 0, BuildingBlock: XOMCOT_clean_sbu_1, # of connection points: 5
#     Node 7, Type 0, BuildingBlock: XOMCOT_clean_sbu_1, # of connection points: 5
#     Node 8, Type 0, BuildingBlock: XOMCOT_clean_sbu_1, # of connection points: 5
#     Node 9, Type 0, BuildingBlock: XOMCOT_clean_sbu_1, # of connection points: 5
#     Node 10, Type 0, BuildingBlock: XOMCOT_clean_sbu_1, # of connection points: 5
#     Node 11, Type 0, BuildingBlock: XOMCOT_clean_sbu_1, # of connection points: 5
#     Edge 12, Type (0, 0), BuildingBlock: EZIPEK_clean_linker_0, # of connection points: 2
#     Edge 13, Type (0, 0), BuildingBlock: EZIPEK_clean_linker_0, # of connection points: 2
#     Edge 14, Type (0, 0), BuildingBlock: EZIPEK_clean_linker_0, # of connection points: 2
#     Edge 15, Type (0, 0), BuildingBlock: EZIPEK_clean_linker_0, # of connection points: 2
#     Edge 16, Type (0, 0), BuildingBlock: EZIPEK_clean_linker_0, # of connection points: 2
#     Edge 17, Type (0, 0), BuildingBlock: EZIPEK_clean_linker_0, # of connection points: 2
#     Edge 18, Type (0, 0), BuildingBlock: EZIPEK_clean_linker_0, # of connection points: 2
#     Edge 19, Type (0, 0), BuildingBlock: EZIPEK_clean_linker_0, # of connection points: 2
#     Edge 20, Type (0, 0), BuildingBlock: EZIPEK_clean_linker_0, # of connection points: 2
#     Edge 21, Type (0, 0), BuildingBlock: EZIPEK_clean_linker_0, # of connection points: 2
#     Edge 22, Type (0, 0), BuildingBlock: EZIPEK_clean_linker_0, # of connection points: 2
#     Edge 23, Type (0, 0), BuildingBlock: EZIPEK_clean_linker_0, # of connection points: 2
#     Edge 24, Type (0, 0), BuildingBlock: EZIPEK_clean_linker_0, # of connection points: 2
#     Edge 25, Type (0, 0), BuildingBlock: EZIPEK_clean_linker_0, # of connection points: 2
#     Edge 26, Type (0, 0), BuildingBlock: EZIPEK_clean_linker_0, # of connection points: 2
#     Edge 27, Type (0, 0), BuildingBlock: EZIPEK_clean_linker_0, # of connection points: 2
#     Edge 28, Type (0, 0), BuildingBlock: EZIPEK_clean_linker_0, # of connection points: 2
#     Edge 29, Type (0, 0), BuildingBlock: EZIPEK_clean_linker_0, # of connection points: 2
#     Edge 30, Type (0, 0), BuildingBlock: EZIPEK_clean_linker_0, # of connection points: 2
#     Edge 31, Type (0, 0), BuildingBlock: EZIPEK_clean_linker_0, # of connection points: 2
#     Edge 32, Type (0, 0), BuildingBlock: EZIPEK_clean_linker_0, # of connection points: 2
#     Edge 33, Type (0, 0), BuildingBlock: EZIPEK_clean_linker_0, # of connection points: 2
#     Edge 34, Type (0, 0), BuildingBlock: EZIPEK_clean_linker_0, # of connection points: 2
#     Edge 35, Type (0, 0), BuildingBlock: EZIPEK_clean_linker_0, # of connection points: 2
#     Edge 36, Type (0, 0), BuildingBlock: EZIPEK_clean_linker_0, # of connection points: 2
#     Edge 37, Type (0, 0), BuildingBlock: EZIPEK_clean_linker_0, # of connection points: 2
#     Edge 38, Type (0, 0), BuildingBlock: EZIPEK_clean_linker_0, # of connection points: 2
#     Edge 39, Type (0, 0), BuildingBlock: EZIPEK_clean_linker_0, # of connection points: 2
#     Edge 40, Type (0, 0), BuildingBlock: EZIPEK_clean_linker_0, # of connection points: 2
#     Edge 41, Type (0, 0), BuildingBlock: EZIPEK_clean_linker_0, # of connection points: 2
# Relax obj value: 0.262
# Max RMSD: 0.209
# Mean RMSD: 0.209
data_MOF--net-wkc--node1-XOMCOT_clean_sbu_1--edge1-EZIPEK_clean_linker_0
_symmetry_space_group_name_H-M    P1
_symmetry_Int_Tables_number       1
_symmetry_cell_setting            triclinic
loop_
_symmetry_equiv_pos_as_xyz
'x, y, z'
_cell_length_a     28.733552
_cell_length_b     28.779153
_cell_length_c     35.717006
_cell_angle_alpha  89.798552
_cell_angle_beta   90.10276
_cell_angle_gamma 119.91762
loop_
_atom_site_label
_atom_site_type_symbol
_atom_site_fract_x
_atom_site_fract_y
_atom_site_fract_z
_atom_type_partial_charge
C0 C 0.33485 0.5086 0.05775 0.0
C1 C 0.34507 0.55626 0.07352 0.0
N2 N 0.31442 0.573 0.05617 0.0
N3 N 0.29762 0.49467 0.03047 0.0
C4 C 0.2876 0.53598 0.0293 0.0
H5 H 0.35473 0.48624 0.06488 0.0
Co6 Co 0.2809 0.43751 0.99673 0.0
C7 C 0.16692 0.41933 0.01408 0.0
O8 O 0.18297 0.46077 0.03616 0.0
N9 N 0.26879 0.38267 0.9615 0.0
C10 C 0.23542 0.31443 0.92117 0.0
C11 C 0.22309 0.34336 0.9461 0.0
C12 C 0.30813 0.37714 0.94476 0.0
N13 N 0.28915 0.33597 0.92018 0.0
O14 O 0.29954 0.48768 0.95551 0.0
H15 H 0.18317 0.33611 0.95203 0.0
H16 H 0.35006 0.40134 0.95189 0.0
O17 O 0.20149 0.41184 0.99624 0.0
C18 C 0.35091 0.51099 0.9555 0.0
O19 O 0.37372 0.49535 0.98069 0.0
N20 N 0.26858 0.3903 0.03767 0.0
C21 C 0.27173 0.33799 0.10256 0.0
C22 C 0.24429 0.36662 0.10219 0.0
C23 C 0.24258 0.39189 0.06932 0.0
C24 C 0.29365 0.3606 0.03753 0.0
C25 C 0.29371 0.33227 0.06918 0.0
H26 H 0.22453 0.41671 0.07071 0.0
H27 H 0.31742 0.3617 0.01409 0.0
H28 H 0.26221 0.53969 0.00848 0.0
H29 H 0.37321 0.57733 0.0959 0.0
H30 H 0.20709 0.28037 0.90479 0.0
H31 H 0.22744 0.37241 0.12767 0.0
H32 H 0.3159 0.31094 0.06873 0.0
C33 C 0.84203 0.31859 0.22673 0.0
C34 C 0.80375 0.32708 0.2433 0.0
N35 N 0.75678 0.29718 0.22536 0.0
N36 N 0.81941 0.283 0.19862 0.0
C37 C 0.76758 0.27145 0.19817 0.0
H38 H 0.88439 0.33957 0.23328 0.0
Co39 Co 0.85787 0.27065 0.16123 0.0
C40 C 0.76746 0.1543 0.18102 0.0
O41 O 0.74427 0.16884 0.20628 0.0
N42 N 0.89768 0.2617 0.12215 0.0
C43 C 0.92592 0.22963 0.07603 0.0
C44 C 0.88747 0.21686 0.10336 0.0
C45 C 0.94201 0.30124 0.10501 0.0
N46 N 0.96047 0.28271 0.07741 0.0
O47 O 0.81854 0.28636 0.12432 0.0
H48 H 0.85421 0.17714 0.10878 0.0
H49 H 0.96095 0.34308 0.11271 0.0
O50 O 0.80735 0.19012 0.16194 0.0
C51 C 0.84435 0.33771 0.12188 0.0
O52 O 0.88899 0.36424 0.14119 0.0
N53 N 0.9007 0.26265 0.1981 0.0
C54 C 0.96604 0.27427 0.25905 0.0
C55 C 0.91177 0.23529 0.25959 0.0
C56 C 0.87962 0.23043 0.22892 0.0
C57 C 0.95418 0.29954 0.19696 0.0
C58 C 0.98785 0.30528 0.22683 0.0
H59 H 0.83723 0.20419 0.23182 0.0
H60 H 0.97042 0.32817 0.17447 0.0
H61 H 0.73871 0.24621 0.17729 0.0
H62 H 0.81013 0.35426 0.26615 0.0
H63 H 0.92898 0.20198 0.0571 0.0
H64 H 0.89356 0.21184 0.28463 0.0
H65 H 0.02948 0.33692 0.22616 0.0
C66 C 0.54556 0.84681 0.39098 0.0
C67 C 0.49988 0.81188 0.41027 0.0
N68 N 0.48211 0.76218 0.39682 0.0
N69 N 0.55651 0.81953 0.36513 0.0
C70 C 0.51699 0.76804 0.36928 0.0
H71 H 0.5675 0.88993 0.39391 0.0
Co72 Co 0.60773 0.85213 0.32675 0.0
C73 C 0.66791 0.79217 0.33119 0.0
O74 O 0.71208 0.83872 0.32735 0.0
N75 N 0.65738 0.88687 0.28643 0.0
C76 C 0.70132 0.90265 0.23187 0.0
C77 C 0.67449 0.86538 0.25984 0.0
C78 C 0.67228 0.93648 0.27261 0.0
N79 N 0.69975 0.94735 0.24009 0.0
O80 O 0.55111 0.81844 0.28968 0.0
H81 H 0.66524 0.82411 0.25928 0.0
H82 H 0.66007 0.96316 0.28455 0.0
O83 O 0.62229 0.79035 0.3286 0.0
C84 C 0.52371 0.84241 0.29037 0.0
O85 O 0.53689 0.88063 0.31517 0.0
N86 N 0.66103 0.88895 0.36388 0.0
C87 C 0.71689 0.94533 0.42726 0.0
C88 C 0.69414 0.88976 0.426 0.0
C89 C 0.66553 0.86222 0.39426 0.0
C90 C 0.68494 0.9435 0.36462 0.0
C91 C 0.71388 0.97257 0.39578 0.0
H92 H 0.64264 0.81918 0.39584 0.0
H93 H 0.67722 0.96472 0.34307 0.0
H94 H 0.51158 0.73608 0.35074 0.0
H95 H 0.47997 0.82241 0.43154 0.0
H96 H 0.7183 0.89654 0.20661 0.0
H97 H 0.69392 0.86751 0.4506 0.0
H98 H 0.72922 1.01543 0.39668 0.0
C99 C 0.71271 0.5232 0.56335 0.0
C100 C 0.70381 0.47537 0.57835 0.0
N101 N 0.73666 0.46114 0.56129 0.0
N102 N 0.75108 0.53949 0.53681 0.0
C103 C 0.76424 0.50038 0.53592 0.0
H104 H 0.69005 0.54299 0.56961 0.0
Co105 Co 0.76389 0.59222 0.50059 0.0
C106 C 0.87971 0.61852 0.5227 0.0
O107 O 0.86353 0.58133 0.54859 0.0
N108 N 0.77302 0.64315 0.46278 0.0
C109 C 0.80487 0.71523 0.42577 0.0
C110 C 0.81775 0.68873 0.45246 0.0
C111 C 0.73371 0.64241 0.44107 0.0
N112 N 0.75189 0.68621 0.41872 0.0
O113 O 0.74999 0.53961 0.46239 0.0
H114 H 0.85741 0.70254 0.46357 0.0
H115 H 0.69201 0.61132 0.44253 0.0
O116 O 0.84517 0.62295 0.50203 0.0
C117 C 0.69855 0.5119 0.46057 0.0
O118 O 0.67044 0.52606 0.48183 0.0
N119 N 0.76982 0.64046 0.5384 0.0
C120 C 0.75808 0.69546 0.5981 0.0
C121 C 0.79547 0.6781 0.59995 0.0
C122 C 0.80017 0.64996 0.56999 0.0
C123 C 0.73386 0.65823 0.53611 0.0
C124 C 0.7279 0.68664 0.56548 0.0
H125 H 0.8254 0.63281 0.57373 0.0
H126 H 0.70687 0.6472 0.5126 0.0
H127 H 0.79216 0.4997 0.51591 0.0
H128 H 0.67416 0.45184 0.59939 0.0
H129 H 0.83223 0.7533 0.41278 0.0
H130 H 0.81806 0.68292 0.62538 0.0
H131 H 0.69737 0.69819 0.56385 0.0
C132 C 0.19902 0.70281 0.72881 0.0
C133 C 0.2362 0.6946 0.74749 0.0
N134 N 0.28495 0.72765 0.73278 0.0
N135 N 0.22405 0.74072 0.70223 0.0
C136 C 0.27642 0.75495 0.70525 0.0
H137 H 0.15604 0.68064 0.73299 0.0
Co138 Co 0.18891 0.75759 0.66451 0.0
C139 C 0.24612 0.87708 0.66852 0.0
O140 O 0.19871 0.8733 0.6661 0.0
N141 N 0.15234 0.77079 0.62469 0.0
C142 C 0.13382 0.79841 0.57086 0.0
C143 C 0.17199 0.80989 0.5983 0.0
C144 C 0.10324 0.73452 0.61106 0.0
N145 N 0.09056 0.75093 0.57912 0.0
O146 O 0.2221 0.73496 0.62715 0.0
H147 H 0.21257 0.84327 0.59757 0.0
H148 H 0.078 0.69529 0.62316 0.0
O149 O 0.24953 0.8343 0.6653 0.0
C150 C 0.19522 0.68374 0.62865 0.0
O151 O 0.1567 0.66179 0.65375 0.0
N152 N 0.15203 0.77341 0.70232 0.0
C153 C 0.09652 0.76946 0.76724 0.0
C154 C 0.15232 0.8009 0.76597 0.0
C155 C 0.17929 0.80222 0.73325 0.0
C156 C 0.09723 0.74505 0.70286 0.0
C157 C 0.06863 0.74356 0.73474 0.0
H158 H 0.22229 0.82171 0.73434 0.0
H159 H 0.07498 0.71895 0.68032 0.0
H160 H 0.30728 0.78255 0.68629 0.0
H161 H 0.22796 0.66545 0.76944 0.0
H162 H 0.13809 0.82213 0.54617 0.0
H163 H 0.17508 0.82037 0.79096 0.0
H164 H 1.02539 0.71784 0.73524 0.0
C165 C 0.53651 0.20365 0.87714 0.0
C166 C 0.58185 0.24553 0.89249 0.0
N167 N 0.58379 0.2918 0.88284 0.0
N168 N 0.50989 0.22321 0.8576 0.0
C169 C 0.53951 0.27705 0.86172 0.0
H170 H 0.5245 0.16162 0.87905 0.0
Co171 Co 0.45239 0.18247 0.82525 0.0
C172 C 0.38278 0.23123 0.84125 0.0
O173 O 0.34234 0.1822 0.84518 0.0
N174 N 0.39691 0.14012 0.78993 0.0
C175 C 0.33177 0.10661 0.74688 0.0
C176 C 0.35988 0.14779 0.7719 0.0
C177 C 0.39225 0.09549 0.77338 0.0
N178 N 0.35239 0.07366 0.74768 0.0
O179 O 0.5009 0.21712 0.78369 0.0
H180 H 0.35474 0.18211 0.77503 0.0
H181 H 0.41783 0.07898 0.78009 0.0
O182 O 0.42874 0.23844 0.83013 0.0
C183 C 0.52553 0.19041 0.78077 0.0
O184 O 0.51169 0.14941 0.80331 0.0
N185 N 0.4081 0.14425 0.86691 0.0
C186 C 0.35378 0.08624 0.93052 0.0
C187 C 0.38569 0.1419 0.93203 0.0
C188 C 0.41239 0.17007 0.89994 0.0
C189 C 0.37708 0.08972 0.86542 0.0
C190 C 0.34803 0.06014 0.89646 0.0
H191 H 0.43853 0.21249 0.90229 0.0
H192 H 0.37667 0.06799 0.84108 0.0
H193 H 0.5296 0.30492 0.84862 0.0
H194 H 0.61136 0.24237 0.90954 0.0
H195 H 0.29972 0.10214 0.72859 0.0
H196 H 0.3918 0.16317 0.95819 0.0
H197 H 0.32464 0.01683 0.8947 0.0
C198 C 0.53526 0.69654 0.77768 0.0
C199 C 0.48958 0.68868 0.75961 0.0
N200 N 0.47555 0.72328 0.77376 0.0
N201 N 0.55 0.73581 0.80327 0.0
C202 C 0.5125 0.75094 0.80046 0.0
H203 H 0.55527 0.67357 0.77358 0.0
Co204 Co 0.60385 0.75423 0.83966 0.0
C205 C 0.66509 0.87416 0.83045 0.0
O206 O 0.70954 0.8717 0.83029 0.0
N207 N 0.6561 0.7689 0.87817 0.0
C208 C 0.71429 0.80094 0.92584 0.0
C209 C 0.68534 0.81219 0.90005 0.0
C210 C 0.66549 0.73092 0.89333 0.0
N211 N 0.70159 0.74948 0.9217 0.0
O212 O 0.54998 0.73419 0.87814 0.0
H213 H 0.68437 0.84913 0.89884 0.0
H214 H 0.64597 0.68985 0.88379 0.0
O215 O 0.62001 0.83114 0.83677 0.0
C216 C 0.52741 0.68305 0.87809 0.0
O217 O 0.54594 0.66124 0.8544 0.0
N218 N 0.65408 0.76689 0.80094 0.0
C219 C 0.70476 0.76022 0.73651 0.0
C220 C 0.68168 0.79283 0.73709 0.0
C221 C 0.65587 0.79496 0.76944 0.0
C222 C 0.67833 0.73643 0.80087 0.0
C223 C 0.70467 0.73319 0.7691 0.0
H224 H 0.63301 0.81507 0.76783 0.0
H225 H 0.67324 0.71032 0.82392 0.0
H226 H 0.51085 0.77998 0.81877 0.0
H227 H 0.46758 0.65905 0.73828 0.0
H228 H 0.74155 0.82811 0.94672 0.0
H229 H 0.67951 0.81267 0.71185 0.0
H230 H 0.72067 0.70615 0.76894 0.0
C231 C 0.85962 0.53304 0.93504 0.0
C232 C 0.81969 0.49044 0.9156 0.0
N233 N 0.77219 0.4778 0.93126 0.0
N234 N 0.83711 0.54731 0.96251 0.0
C235 C 0.78385 0.51281 0.95947 0.0
H236 H 0.90231 0.55059 0.93056 0.0
Co237 Co 0.87046 0.59428 0.00204 0.0
C238 C 0.81395 0.66032 0.00122 0.0
O239 O 0.85828 0.7027 0.01255 0.0
N240 N 0.90468 0.63984 0.04376 0.0
C241 C 0.91648 0.6699 0.10264 0.0
C242 C 0.87964 0.64485 0.07421 0.0
C243 C 0.95672 0.66173 0.0548 0.0
N244 N 0.96504 0.68065 0.09021 0.0
O245 O 0.82868 0.53583 0.03586 0.0
H246 H 0.83668 0.62813 0.07653 0.0
H247 H 0.9878 0.66074 0.03864 0.0
O248 O 0.81327 0.61546 -0.00155 0.0
C249 C 0.85388 0.51003 0.04042 0.0
O250 O 0.90159 0.52948 0.0251 0.0
N251 N 0.91539 0.64799 0.96762 0.0
C252 C 0.98274 0.70398 0.90797 0.0
C253 C 0.93256 0.70008 0.91131 0.0
C254 C 0.8992 0.67129 0.94108 0.0
C255 C 0.96462 0.6521 0.96465 0.0
C256 C 0.99962 0.68117 0.93565 0.0
H257 H 0.85911 0.66412 0.94021 0.0
H258 H 0.9748 0.62823 0.98258 0.0
H259 H 0.75418 0.51194 0.97855 0.0
H260 H 0.82507 0.46935 0.89247 0.0
H261 H 0.90796 0.67757 0.13073 0.0
H262 H 0.9176 0.71547 0.88949 0.0
H263 H 0.03735 0.68155 0.9329 0.0
C264 C 0.33419 0.8512 0.09303 0.0
C265 C 0.34031 0.81278 0.07457 0.0
N266 N 0.31075 0.76554 0.09221 0.0
N267 N 0.30131 0.82889 0.12279 0.0
C268 C 0.28772 0.77646 0.12138 0.0
H269 H 0.35655 0.89349 0.08682 0.0
Co270 Co 0.29182 0.86572 0.16404 0.0
C271 C 0.18023 0.78249 0.13866 0.0
O272 O 0.19929 0.78868 0.10451 0.0
N273 N 0.28505 0.9032 0.20559 0.0
C274 C 0.25656 0.92759 0.25564 0.0
C275 C 0.24257 0.88966 0.22797 0.0
C276 C 0.32447 0.94938 0.22079 0.0
N277 N 0.3094 0.96443 0.2527 0.0
O278 O 0.31383 0.8274 0.1985 0.0
H279 H 0.20371 0.85427 0.22489 0.0
H280 H 0.36332 0.97233 0.20777 0.0
O281 O 0.2119 0.80985 0.16578 0.0
C282 C 0.36399 0.84424 0.19298 0.0
O283 O 0.38722 0.87515 0.16384 0.0
N284 N 0.28026 0.9101 0.13136 0.0
C285 C 0.29027 0.97665 0.07216 0.0
C286 C 0.23943 0.93621 0.08338 0.0
C287 C 0.23513 0.90408 0.11405 0.0
C288 C 0.3288 0.95401 0.12394 0.0
C289 C 0.33486 0.98794 0.09428 0.0
H290 H 0.19588 0.8734 0.122 0.0
H291 H 0.36402 0.95965 0.13888 0.0
H292 H 0.26356 0.74738 0.14255 0.0
H293 H 0.36652 0.8195 0.05094 0.0
H294 H 0.22829 0.92786 0.27532 0.0
H295 H 0.204 0.92746 0.06728 0.0
H296 H 0.37469 0.01949 0.08652 0.0
C297 C 0.51643 0.34351 0.26766 0.0
C298 C 0.56058 0.34712 0.24984 0.0
N299 N 0.57001 0.30919 0.26403 0.0
N300 N 0.49771 0.3032 0.29299 0.0
C301 C 0.53146 0.28332 0.29001 0.0
H302 H 0.50198 0.37136 0.26402 0.0
Co303 Co 0.44987 0.28828 0.33331 0.0
C304 C 0.41708 0.1812 0.29877 0.0
O305 O 0.42505 0.20484 0.26597 0.0
N306 N 0.40497 0.27626 0.37438 0.0
C307 C 0.35898 0.2475 0.42765 0.0
C308 C 0.3856 0.23639 0.40001 0.0
C309 C 0.3903 0.31131 0.38715 0.0
N310 N 0.36212 0.29466 0.41937 0.0
O311 O 0.5081 0.30261 0.36668 0.0
H312 H 0.3918 0.20231 0.39936 0.0
H313 H 0.40106 0.34899 0.37352 0.0
O314 O 0.4255 0.209 0.32893 0.0
C315 C 0.53534 0.35371 0.36993 0.0
O316 O 0.51851 0.38272 0.35229 0.0
N317 N 0.39515 0.28207 0.30143 0.0
C318 C 0.33424 0.29168 0.24524 0.0
C319 C 0.32044 0.24102 0.25938 0.0
C320 C 0.35018 0.23729 0.28902 0.0
C321 C 0.40343 0.33146 0.29194 0.0
C322 C 0.37326 0.33732 0.26384 0.0
H323 H 0.33834 0.19834 0.30028 0.0
H324 H 0.43594 0.36675 0.30474 0.0
H325 H 0.5298 0.25252 0.30832 0.0
H326 H 0.5853 0.37678 0.22914 0.0
H327 H 0.33953 0.22337 0.45217 0.0
H328 H 0.28895 0.20489 0.24654 0.0
H329 H 0.38363 0.37716 0.25437 0.0
C330 C 0.20061 0.50864 0.43611 0.0
C331 C 0.2375 0.55597 0.4195 0.0
N332 N 0.28479 0.57412 0.4372 0.0
N333 N 0.22426 0.49647 0.46422 0.0
C334 C 0.27516 0.53842 0.46502 0.0
H335 H 0.15853 0.48545 0.42891 0.0
Co336 Co 0.18564 0.44043 0.49893 0.0
C337 C 0.28126 0.42326 0.47895 0.0
O338 O 0.30325 0.46317 0.4551 0.0
N339 N 0.14466 0.38609 0.53462 0.0
C340 C 0.11112 0.31733 0.57471 0.0
C341 C 0.15218 0.34728 0.54985 0.0
C342 C 0.09942 0.37938 0.55142 0.0
N343 N 0.07798 0.33777 0.57577 0.0
O344 O 0.22007 0.49066 0.5396 0.0
H345 H 0.18546 0.34103 0.54384 0.0
H346 H 0.08131 0.40353 0.54495 0.0
O347 O 0.23965 0.41491 0.49782 0.0
C348 C 0.19402 0.516 0.54109 0.0
O349 O 0.15481 0.50264 0.5169 0.0
N350 N 0.1475 0.39335 0.45921 0.0
C351 C 0.08651 0.33945 0.39684 0.0
C352 C 0.1416 0.35819 0.39734 0.0
C353 C 0.17151 0.38561 0.42868 0.0
C354 C 0.09348 0.37437 0.45903 0.0
C355 C 0.062 0.34634 0.42842 0.0
H356 H 0.21424 0.40389 0.42671 0.0
H357 H 0.07495 0.38435 0.48134 0.0
H358 H 0.3046 0.54305 0.48585 0.0
H359 H 0.23025 0.57569 0.3962 0.0
H360 H 0.10612 0.28332 0.59097 0.0
H361 H 0.16183 0.35501 0.37274 0.0
H362 H 1.01964 0.33385 0.42822 0.0
C363 C 0.71118 0.17918 0.59326 0.0
C364 C 0.70431 0.21784 0.57541 0.0
N365 N 0.73484 0.26484 0.59297 0.0
N366 N 0.74583 0.20175 0.62201 0.0
C367 C 0.75931 0.25391 0.62114 0.0
H368 H 0.68999 0.13679 0.58704 0.0
Co369 Co 0.75995 0.16605 0.66088 0.0
C370 C 0.88067 0.22374 0.65406 0.0
O371 O 0.87799 0.17681 0.65369 0.0
N372 N 0.77115 0.12944 0.70168 0.0
C373 C 0.80116 0.10127 0.74938 0.0
C374 C 0.81485 0.14016 0.72232 0.0
C375 C 0.73071 0.08589 0.71902 0.0
N376 N 0.74798 0.06697 0.74745 0.0
O377 O 0.73627 0.20007 0.69692 0.0
H378 H 0.85403 0.17502 0.71957 0.0
H379 H 0.68908 0.06793 0.71061 0.0
O380 O 0.83764 0.22615 0.66009 0.0
C381 C 0.68506 0.17557 0.69323 0.0
O382 O 0.66429 0.13911 0.66684 0.0
N383 N 0.77502 0.12716 0.62486 0.0
C384 C 0.77266 0.06438 0.56508 0.0
C385 C 0.80399 0.1201 0.56308 0.0
C386 C 0.80406 0.15082 0.59314 0.0
C387 C 0.7457 0.07263 0.62734 0.0
C388 C 0.74484 0.04037 0.59806 0.0
H389 H 0.82394 0.19358 0.58961 0.0
H390 H 0.71881 0.05366 0.6504 0.0
H391 H 0.78458 0.28289 0.64193 0.0
H392 H 0.67768 0.21169 0.55213 0.0
H393 H 0.82811 0.0991 0.76963 0.0
H394 H 0.82442 0.13973 0.53738 0.0
H395 H 0.71863 0.99733 0.59974 0.0
C396 C 0.39058 0.29466 0.89231 0.0
C397 C 0.37402 0.27554 0.85541 0.0
C398 C 0.31185 0.31127 0.85851 0.0
C399 C 0.31968 0.31809 0.89789 0.0
N400 N 0.36098 0.30582 0.95306 0.0
N401 N 0.3185 0.26712 0.80254 0.0
C402 C 0.35799 0.30748 0.91501 0.0
C403 C 0.33463 0.28461 0.8382 0.0
N404 N 0.43803 0.30171 0.90555 0.0
N405 N 0.28428 0.33186 0.84039 0.0
H406 H 0.33762 0.2517 0.78617 0.0
H407 H 0.28544 0.26645 0.78993 0.0
H408 H 0.26982 0.35396 0.85421 0.0
H409 H 0.28086 0.33199 0.81135 0.0
H410 H 0.45376 0.31877 0.93154 0.0
H411 H 0.46448 0.2975 0.88808 0.0
H412 H 0.38536 0.2938 0.96672 0.0
H413 H 0.33437 0.30978 0.97069 0.0
C414 C 0.06801 0.38843 0.01516 0.0
C415 C 0.10963 0.37555 0.01888 0.0
C416 C 0.05162 0.30055 0.06044 0.0
C417 C 1.0098 0.31269 0.0563 0.0
N418 N 0.97342 0.36034 0.0235 0.0
N419 N 0.13197 0.307 0.03426 0.0
C420 C 1.01655 0.35426 0.0316 0.0
C421 C 0.09844 0.32748 0.03782 0.0
N422 N 0.07829 0.43412 0.99654 0.0
N423 N 0.04827 0.26572 0.08779 0.0
H424 H 0.16493 0.32341 0.01651 0.0
H425 H 0.12324 0.26991 0.04522 0.0
H426 H 1.01584 0.24718 0.10614 0.0
H427 H 0.08015 0.25984 0.09491 0.0
H428 H 0.05238 0.44961 0.99654 0.0
H429 H 0.11409 0.45757 0.98201 0.0
H430 H 0.97403 0.38684 0.00333 0.0
H431 H 0.93548 0.33541 0.03492 0.0
C432 C 0.79254 0.08423 0.19834 0.0
C433 C 0.75443 0.09683 0.1829 0.0
C434 C 0.68359 1.00341 0.19473 0.0
C435 C 0.7194 0.99556 0.21755 0.0
N436 N 0.80815 0.02841 0.24197 0.0
N437 N 0.6633 0.06682 0.16419 0.0
C438 C 0.77415 0.03577 0.21922 0.0
C439 C 0.69985 0.05555 0.18003 0.0
N440 N 0.8461 0.11787 0.19267 0.0
N441 N 0.63445 0.96063 0.18668 0.0
H442 H 0.6747 0.10343 0.15106 0.0
H443 H 0.62198 0.04083 0.16525 0.0
H444 H 0.6224 0.92225 0.19692 0.0
H445 H 0.6078 0.96219 0.16761 0.0
H446 H 0.8755 0.10896 0.20111 0.0
H447 H 0.86078 0.15148 0.17548 0.0
H448 H 0.84717 0.05856 0.24793 0.0
H449 H 0.79582 0.99303 0.25704 0.0
C450 C 0.73636 0.71166 0.35522 0.0
C451 C 0.72172 0.70124 0.39355 0.0
C452 C 0.65069 0.72326 0.3818 0.0
C453 C 0.67417 0.74673 0.34682 0.0
N454 N 0.73635 0.75766 0.29795 0.0
N455 N 0.66824 0.70415 0.4445 0.0
C456 C 0.71586 0.73866 0.33272 0.0
C457 C 0.67926 0.70825 0.40712 0.0
N458 N 0.76906 0.69474 0.34034 0.0
N459 N 0.6007 0.71391 0.39064 0.0
H460 H 0.69032 0.6966 0.46427 0.0
H461 H 0.64105 0.71405 0.4561 0.0
H462 H 0.57676 0.71861 0.37096 0.0
H463 H 0.58051 0.69402 0.41497 0.0
H464 H 0.77813 0.69712 0.31194 0.0
H465 H 0.78293 0.67349 0.35608 0.0
H466 H 0.77098 0.75925 0.28763 0.0
H467 H 0.71899 0.77328 0.27983 0.0
C468 C 0.03007 0.6782 0.53591 0.0
C469 C 0.0408 0.72303 0.55823 0.0
C470 C 0.95251 0.71122 0.54144 0.0
C471 C 0.93792 0.66095 0.52468 0.0
N472 N 0.9635 0.59726 0.50434 0.0
N473 N 1.01198 0.78111 0.58443 0.0
C474 C 0.97734 0.64508 0.52103 0.0
C475 C 1.0022 0.73969 0.5611 0.0
N476 N 0.0707 0.66787 0.52881 0.0
N477 N 0.91897 0.73183 0.53874 0.0
H478 H 0.04793 0.80265 0.59911 0.0
H479 H 0.98321 0.79147 0.59154 0.0
H480 H 0.88301 0.7128 0.52412 0.0
H481 H 0.92921 0.77024 0.54749 0.0
H482 H 0.06745 0.63843 0.51043 0.0
H483 H 0.10936 0.69189 0.53942 0.0
H484 H 0.98761 0.57973 0.50455 0.0
H485 H 0.9265 0.57417 0.49112 0.0
C486 C 0.30106 0.97812 0.66545 0.0
C487 C 0.2915 0.92946 0.68252 0.0
C488 C 0.32561 0.97686 0.74185 0.0
C489 C 0.3358 0.02587 0.72509 0.0
N490 N 0.35074 0.07545 0.66765 0.0
N491 N 0.3211 0.892 0.7312 0.0
C492 C 0.32898 0.02729 0.68574 0.0
C493 C 0.31262 0.93189 0.71879 0.0
N494 N 0.28288 0.9772 0.63 0.0
N495 N 0.32408 0.97146 0.77983 0.0
H496 H 0.31637 0.86126 0.71364 0.0
H497 H 0.33945 0.89371 0.75678 0.0
H498 H 0.32732 1.00129 0.79779 0.0
H499 H 0.31259 0.93493 0.79304 0.0
H500 H 0.28291 1.01005 0.6176 0.0
H501 H 0.26596 0.94259 0.61364 0.0
H502 H 0.35059 0.07903 0.63862 0.0
H503 H 0.3743 0.11171 0.68144 0.0
C504 C 0.7528 0.70068 0.00255 0.0
C505 C 0.77127 0.6696 0.9834 0.0
C506 C 0.74336 0.69152 0.92386 0.0
C507 C 0.72284 0.72064 0.9428 0.0
N508 N 0.69365 0.73846 0.00144 0.0
N509 N 0.75951 0.61735 0.92744 0.0
C510 C 0.72328 0.72096 0.98263 0.0
C511 C 0.75854 0.65898 0.94465 0.0
N512 N 0.76329 0.71071 0.03984 0.0
N513 N 0.75192 0.69738 0.88614 0.0
H514 H 0.76639 0.59021 0.94197 0.0
H515 H 0.7466 0.60607 0.89995 0.0
H516 H 0.74617 0.72453 0.87026 0.0
H517 H 0.77118 0.68033 0.87167 0.0
H518 H 0.75677 0.73827 0.05439 0.0
H519 H 0.78046 0.69272 0.05585 0.0
H520 H 0.68871 0.73563 0.03039 0.0
H521 H 0.66916 0.75024 0.98768 0.0
C522 C 0.09389 0.69609 0.13007 0.0
C523 C 0.12021 0.75043 0.14189 0.0
C524 C 0.04027 0.75604 0.12448 0.0
C525 C 1.0148 0.70249 0.11132 0.0
N526 N 1.0103 0.61692 0.11191 0.0
N527 N 0.11036 0.82436 0.16301 0.0
C528 C 0.03945 0.67097 0.11753 0.0
C529 C 0.09051 0.77768 0.1435 0.0
N530 N 0.1219 0.66925 0.1296 0.0
N531 N 1.01836 0.78752 0.11654 0.0
H532 H 0.14648 0.8404 0.1775 0.0
H533 H 0.08864 0.84384 0.16793 0.0
H534 H 0.98255 0.77355 0.10176 0.0
H535 H 0.03799 0.82858 0.12172 0.0
H536 H 0.10783 0.63198 0.11708 0.0
H537 H 0.16046 0.68564 0.14087 0.0
H538 H 1.02415 0.5907 0.11865 0.0
H539 H 0.97007 0.59775 0.10376 0.0
C540 C 0.42329 0.10109 0.27757 0.0
C541 C 0.39563 0.12177 0.29862 0.0
C542 C 0.31947 0.02946 0.3045 0.0
C543 C 0.34172 1.01281 0.27553 0.0
N544 N 0.42703 0.02152 0.2618 0.0
N545 N 0.31794 0.10308 0.33598 0.0
C546 C 0.39753 0.04538 0.26953 0.0
C547 C 0.34417 0.08513 0.31373 0.0
N548 N 0.47403 0.13458 0.26471 0.0
N549 N 0.28096 0.99197 0.32728 0.0
H550 H 0.33591 0.14199 0.34625 0.0
H551 H 0.27759 0.07942 0.34319 0.0
H552 H 0.27219 0.95217 0.32695 0.0
H553 H 0.26557 1.0015 0.35055 0.0
H554 H 0.49307 0.12258 0.24538 0.0
H555 H 0.49614 0.17477 0.27229 0.0
H556 H 0.46881 0.04231 0.26015 0.0
H557 H 0.40959 0.97995 0.26355 0.0
C558 C 0.35442 0.39966 0.47797 0.0
C559 C 0.29857 0.38206 0.47577 0.0
C560 C 0.28454 0.30366 0.43928 0.0
C561 C 0.34025 0.32206 0.44061 0.0
N562 N 0.42676 0.38018 0.46729 0.0
N563 N 0.20891 0.30792 0.46483 0.0
C564 C 0.37472 0.36778 0.46207 0.0
C565 C 0.26306 0.3309 0.45999 0.0
N566 N 0.38808 0.44777 0.49445 0.0
N567 N 0.25255 0.26171 0.41642 0.0
H568 H 0.19137 0.32526 0.48063 0.0
H569 H 0.1816 0.26885 0.45678 0.0
H570 H 0.26716 0.24109 0.40089 0.0
H571 H 0.21278 0.25025 0.41039 0.0
H572 H 0.42977 0.46652 0.49331 0.0
H573 H 0.37378 0.46976 0.50869 0.0
H574 H 0.45351 0.41029 0.48506 0.0
H575 H 0.44212 0.35736 0.45569 0.0
C576 C 0.98135 0.28211 0.65746 0.0
C577 C 0.9322 0.27047 0.6401 0.0
C578 C 0.98004 0.30616 0.5808 0.0
C579 C 0.02939 0.31844 0.59798 0.0
N580 N 0.07884 0.3336 0.6554 0.0
N581 N 0.89183 0.29475 0.59027 0.0
C582 C 0.03064 0.31124 0.63728 0.0
C583 C 0.93388 0.29033 0.60344 0.0
N584 N 0.98072 0.26446 0.69306 0.0
N585 N 0.97585 0.30572 0.54273 0.0
H586 H 0.85979 0.28739 0.60744 0.0
H587 H 0.89247 0.31233 0.56456 0.0
H588 H 1.0073 0.31232 0.52498 0.0
H589 H 0.93934 0.29243 0.52898 0.0
H590 H 1.01403 0.26578 0.70576 0.0
H591 H 0.94589 0.24673 0.7093 0.0
H592 H 0.08239 0.33342 0.68442 0.0
H593 H 0.11517 0.3573 0.64157 0.0
C594 C 0.70615 0.97479 0.83173 0.0
C595 C 0.66891 0.92487 0.81552 0.0
C596 C 0.68041 0.9695 0.75501 0.0
C597 C 0.71719 0.01985 0.77093 0.0
N598 N 0.74903 0.07177 0.82755 0.0
N599 N 0.6025 0.88331 0.76705 0.0
C600 C 0.72506 0.02299 0.8104 0.0
C601 C 0.64986 0.92504 0.77895 0.0
N602 N 0.72403 0.97602 0.86732 0.0
N603 N 0.67743 0.96231 0.71719 0.0
H604 H 0.57765 0.85276 0.78523 0.0
H605 H 0.58545 0.88316 0.74121 0.0
H606 H 0.70357 0.99168 0.69866 0.0
H607 H 0.65382 0.92487 0.70487 0.0
H608 H 0.75575 1.01022 0.8792 0.0
H609 H 0.70801 0.9419 0.88429 0.0
H610 H 0.75239 0.07632 0.85652 0.0
H611 H 0.75981 0.10716 0.81293 0.0
C612 C 0.3158 0.68474 0.11171 0.0
C613 C 0.30908 0.71555 0.08334 0.0
C614 C 0.31381 0.65603 0.03656 0.0
C615 C 0.31118 0.62047 0.06511 0.0
N616 N 0.29331 0.59531 0.13037 0.0
N617 N 0.2869 0.72019 0.01867 0.0
C618 C 0.30704 0.63297 0.10292 0.0
C619 C 0.30341 0.69799 0.04565 0.0
N620 N 0.33446 0.70599 0.14619 0.0
N621 N 0.32992 0.65239 0.00142 0.0
H622 H 0.27504 0.74817 0.0248 0.0
H623 H 0.27897 0.70591 0.99126 0.0
H624 H 0.34412 0.62634 0.99524 0.0
H625 H 0.33617 0.68013 0.98038 0.0
H626 H 0.34361 0.68586 0.16667 0.0
H627 H 0.34795 0.74611 0.15221 0.0
H628 H 0.2866 0.60221 0.15797 0.0
H629 H 0.28217 0.5556 0.12463 0.0
C630 C 0.67514 0.30156 0.20618 0.0
C631 C 0.70611 0.29408 0.23415 0.0
C632 C 0.64749 0.29733 0.28251 0.0
C633 C 0.61406 0.30055 0.25443 0.0
N634 N 0.58737 0.28748 0.18963 0.0
N635 N 0.70943 0.2661 0.29724 0.0
C636 C 0.62522 0.29699 0.21624 0.0
C637 C 0.68835 0.28606 0.27182 0.0
N638 N 0.69405 0.31567 0.17053 0.0
N639 N 0.64273 0.30783 0.31909 0.0
H640 H 0.73696 0.25416 0.2897 0.0
H641 H 0.69468 0.25537 0.32443 0.0
H642 H 0.61551 0.31902 0.32836 0.0
H643 H 0.66995 0.311 0.33966 0.0
H644 H 0.67512 0.32687 0.15044 0.0
H645 H 0.73103 0.32139 0.16192 0.0
H646 H 0.59176 0.28007 0.16168 0.0
H647 H 0.54912 0.28059 0.19637 0.0
C648 C 0.39612 0.6812 0.37935 0.0
C649 C 0.43279 0.71419 0.40721 0.0
C650 C 0.36708 0.65903 0.45492 0.0
C651 C 0.33527 0.62105 0.42734 0.0
N652 N 0.32938 0.59061 0.36362 0.0
N653 N 0.45722 0.72574 0.47265 0.0
C654 C 0.35277 0.63039 0.38958 0.0
C655 C 0.41958 0.7005 0.44545 0.0
N656 N 0.40006 0.69969 0.34371 0.0
N657 N 0.34614 0.6578 0.48931 0.0
H658 H 0.49708 0.7537 0.46654 0.0
H659 H 0.45006 0.71419 0.50072 0.0
H660 H 0.30595 0.63135 0.49558 0.0
H661 H 0.36658 0.68745 0.50933 0.0
H662 H 0.37141 0.67813 0.32326 0.0
H663 H 0.42722 0.73928 0.33648 0.0
H664 H 0.34368 0.59521 0.33625 0.0
H665 H 0.30043 0.55149 0.37064 0.0
C666 C 0.74191 0.381 0.53916 0.0
C667 C 0.73999 0.41324 0.5687 0.0
C668 C 0.72845 0.34377 0.61356 0.0
C669 C 0.73748 0.31534 0.58491 0.0
N670 N 0.7679 0.3158 0.52206 0.0
N671 N 0.75021 0.43157 0.63511 0.0
C672 C 0.7489 0.33671 0.54815 0.0
C673 C 0.73897 0.39654 0.6063 0.0
N674 N 0.73409 0.39008 0.5028 0.0
N675 N 0.70716 0.31967 0.64704 0.0
H676 H 0.76317 0.47207 0.63072 0.0
H677 H 0.75339 0.42182 0.66279 0.0
H678 H 0.69429 0.27936 0.65209 0.0
H679 H 0.69619 0.3379 0.66771 0.0
H680 H 0.73027 0.36419 0.48116 0.0
H681 H 0.72531 0.41948 0.49459 0.0
H682 H 0.7812 0.33305 0.49571 0.0
H683 H 0.77611 0.28519 0.52833 0.0
C684 C 0.36683 0.72387 0.71524 0.0
C685 C 0.3347 0.72961 0.74288 0.0
C686 C 0.39245 0.72472 0.79129 0.0
C687 C 0.42888 0.72725 0.76354 0.0
N688 N 0.45639 0.74349 0.69882 0.0
N689 N 0.32577 0.7492 0.80718 0.0
C690 C 0.41788 0.73134 0.72535 0.0
C691 C 0.35032 0.7344 0.78097 0.0
N692 N 0.34724 0.70746 0.68006 0.0
N693 N 0.39552 0.7093 0.82688 0.0
H694 H 0.29682 0.75952 0.80017 0.0
H695 H 0.33864 0.75698 0.83494 0.0
H696 H 0.4222 0.69625 0.83422 0.0
H697 H 0.36703 0.70274 0.84735 0.0
H698 H 0.36776 0.69859 0.65984 0.0
H699 H 0.30776 0.69587 0.67297 0.0
H700 H 0.45125 0.75068 0.6709 0.0
H701 H 0.49531 0.7524 0.70559 0.0
C702 C 0.70142 0.43401 0.88351 0.0
C703 C 0.71998 0.4349 0.92034 0.0
C704 C 0.63676 0.35166 0.9341 0.0
C705 C 0.62408 0.34459 0.89547 0.0
N706 N 0.64494 0.38101 0.83252 0.0
N707 N 0.70684 0.39182 0.9806 0.0
C708 C 0.65608 0.38661 0.86987 0.0
C709 C 0.68776 0.39334 0.94587 0.0
N710 N 0.72636 0.47931 0.86201 0.0
N711 N 0.59932 0.31861 0.95952 0.0
H712 H 0.7444 0.42089 0.99013 0.0
H713 H 0.68726 0.35924 -0.00127 0.0
H714 H 0.56075 0.28933 0.95146 0.0
H715 H 0.60439 0.32431 0.98836 0.0
H716 H 0.71178 0.48318 0.83616 0.0
H717 H 0.75853 0.51501 0.87191 0.0
H718 H 0.67151 0.40673 0.81233 0.0
H719 H 0.61015 0.34981 0.82129 0.0
C720 C 0.35467 0.32497 0.17976 0.0
C721 C 0.31553 0.2979 0.20789 0.0
C722 C 0.24546 0.28767 0.16408 0.0
C723 C 0.28591 0.32274 0.1387 0.0
N724 N 0.38007 0.38727 0.12859 0.0
N725 N 0.22369 0.25913 0.22876 0.0
C726 C 0.34091 0.34492 0.14819 0.0
C727 C 0.26069 0.28047 0.20063 0.0
N728 N 0.40483 0.331 0.18283 0.0
N729 N 0.19295 0.26052 0.15308 0.0
H730 H 0.23367 0.25406 0.25596 0.0
H731 H 0.18417 0.25075 0.22581 0.0
H732 H 0.18067 0.26405 0.12623 0.0
H733 H 0.1625 0.23088 0.16937 0.0
H734 H 0.43306 0.34684 0.1613 0.0
H735 H 0.41593 0.31459 0.20483 0.0
H736 H 0.42021 0.40725 0.13691 0.0
H737 H 0.3719 0.40666 0.10703 0.0
C738 C 0.04164 0.27107 0.34588 0.0
C739 C 0.05662 0.32206 0.36118 0.0
C740 C 1.0078 0.33845 0.31179 0.0
C741 C 0.99709 0.2899 0.29433 0.0
N742 N 1.00908 0.21288 0.29154 0.0
N743 N 0.0652 0.40955 0.35393 0.0
C744 C 1.01549 0.25688 0.31047 0.0
C745 C 0.04303 0.35734 0.34272 0.0
N746 N 0.05118 0.2359 0.36563 0.0
N747 N 0.98268 0.36555 0.29979 0.0
H748 H 0.09222 0.42562 0.37613 0.0
H749 H 0.06106 0.43832 0.33883 0.0
H750 H 0.95544 0.35262 0.27765 0.0
H751 H 0.98468 0.39792 0.3142 0.0
H752 H 0.03638 0.19616 0.35781 0.0
H753 H 0.07071 0.2454 0.39148 0.0
H754 H 0.02637 0.19022 0.29999 0.0
H755 H 0.9897 0.20131 0.26569 0.0
C756 C 0.78323 0.992 0.47925 0.0
C757 C 0.73146 0.9731 0.4637 0.0
C758 C 0.70893 0.01691 0.51308 0.0
C759 C 0.75907 0.03254 0.53036 0.0
N760 N 0.84155 0.03006 0.53333 0.0
N761 N 0.64077 0.95676 0.47006 0.0
C762 C 0.79566 0.01865 0.51444 0.0
C763 C 0.693 0.98224 0.48196 0.0
N764 N 0.82062 0.98553 0.45994 0.0
N765 N 0.67742 0.03701 0.52539 0.0
H766 H 0.62714 0.93085 0.44725 0.0
H767 H 0.60987 0.95723 0.48495 0.0
H768 H 0.68755 0.0631 0.54799 0.0
H769 H 0.64362 0.0319 0.51101 0.0
H770 H 0.86078 1.00314 0.46778 0.0
H771 H 0.81208 0.96503 0.43455 0.0
H772 H 0.86743 0.0165 0.5251 0.0
H773 H 0.85186 0.05015 0.55892 0.0
C774 C 0.69677 0.6775 0.65224 0.0
C775 C 0.744 0.71386 0.63258 0.0
C776 C 0.76768 0.78053 0.6822 0.0
C777 C 0.71846 0.7455 0.70027 0.0
N778 N 0.63058 0.66616 0.69839 0.0
N779 N 0.82096 0.80212 0.62537 0.0
C780 C 0.6813 0.69562 0.68404 0.0
C781 C 0.77855 0.76614 0.64655 0.0
N782 N 0.66784 0.62496 0.64151 0.0
N783 N 0.80439 0.82667 0.6996 0.0
H784 H 0.83005 0.79248 0.59927 0.0
H785 H 0.84464 0.84245 0.63221 0.0
H786 H 0.79712 0.83857 0.72546 0.0
H787 H 0.84328 0.85126 0.68977 0.0
H788 H 0.63678 0.59547 0.65748 0.0
H789 H 0.67778 0.60951 0.61846 0.0
H790 H 0.60005 0.63258 0.6851 0.0
H791 H 0.6173 0.67795 0.72171 0.0
C792 C 0.04849 0.70121 0.81707 0.0
C793 C 0.06862 0.75437 0.80384 0.0
C794 C 0.03792 0.77689 0.86135 0.0
C795 C 1.01247 0.72214 0.87218 0.0
N796 N 0.98211 0.63 0.85541 0.0
N797 N 0.07732 0.84163 0.81075 0.0
C798 C 1.01444 0.68361 0.84862 0.0
C799 C 0.06199 0.79207 0.82527 0.0
N800 N 0.06341 0.66795 0.80035 0.0
N801 N 0.04019 0.81433 0.88584 0.0
H802 H 0.09523 0.85391 0.78447 0.0
H803 H 0.0686 0.86895 0.8234 0.0
H804 H 1.02287 0.80437 0.91242 0.0
H805 H 0.06274 0.85545 0.88104 0.0
H806 H 0.0541 0.63076 0.81145 0.0
H807 H 0.08985 0.67964 0.77777 0.0
H808 H 0.97823 0.6005 0.83676 0.0
H809 H 0.9548 0.61495 0.8775 0.0
C810 C 0.32823 0.98696 0.00844 0.0
C811 C 0.29912 1.00004 0.03416 0.0
C812 C 0.29554 0.06117 0.98806 0.0
C813 C 0.33279 0.05499 0.96552 0.0
N814 N 0.3942 0.0207 0.9593 0.0
N815 N 0.25793 0.0526 0.05017 0.0
C816 C 0.35169 0.02009 0.97695 0.0
C817 C 0.28313 0.03778 0.02443 0.0
N818 N 0.33285 0.9424 0.01386 0.0
N819 N 0.27138 0.08832 0.97445 0.0
H820 H 0.24794 0.03582 0.07693 0.0
H821 H 0.2504 0.08408 0.04591 0.0
H822 H 0.279 0.10511 0.94766 0.0
H823 H 0.24033 0.0899 0.98829 0.0
H824 H 0.35002 0.92885 0.99414 0.0
H825 H 0.3139 0.91566 0.0359 0.0
H826 H 0.4123 0.99941 0.96922 0.0
H827 H 0.41534 0.04687 0.93746 0.0
C828 C 0.38685 0.60166 0.92198 0.0
C829 C 0.38769 0.5533 0.92852 0.0
C830 C 0.4825 0.59786 0.91266 0.0
C831 C 0.48248 0.64554 0.9032 0.0
N832 N 0.43739 0.69713 0.90671 0.0
N833 N 0.42979 0.50201 0.91245 0.0
C834 C 0.43523 0.64883 0.90979 0.0
C835 C 0.4336 0.55054 0.91832 0.0
N836 N 0.33946 0.60149 0.9251 0.0
N837 N 0.52978 0.59811 0.91744 0.0
H838 H 0.39258 0.46709 0.91176 0.0
H839 H 0.46175 0.49787 0.90273 0.0
H840 H 0.56672 0.63353 0.91673 0.0
H841 H 0.53156 0.56468 0.92686 0.0
H842 H 0.33416 0.63336 0.91724 0.0
H843 H 0.30385 0.56746 0.93291 0.0
H844 H 0.40632 0.70375 0.91449 0.0
H845 H 0.47202 0.73214 0.89894 0.0
C846 C 0.82099 0.45355 0.09871 0.0
C847 C 0.83054 0.45698 0.05972 0.0
C848 C 0.82286 0.36757 0.06111 0.0
C849 C 0.82527 0.36993 0.1007 0.0
N850 N 0.82504 0.41448 0.15784 0.0
N851 N 0.83704 0.41605 0.00264 0.0
C852 C 0.82266 0.41219 0.11964 0.0
C853 C 0.82934 0.41303 0.04052 0.0
N854 N 0.81178 0.49054 0.11593 0.0
N855 N 0.81597 0.32268 0.04322 0.0
H856 H 0.83839 0.44688 0.98645 0.0
H857 H 0.84397 0.38938 0.98736 0.0
H858 H 0.8123 0.28938 0.05746 0.0
H859 H 0.80915 0.31631 0.01459 0.0
H860 H 0.79932 0.48727 0.14364 0.0
H861 H 0.8116 0.52203 0.10163 0.0
H862 H 0.83108 0.44763 0.17331 0.0
H863 H 0.82323 0.38368 0.17423 0.0
C864 C 0.49321 0.88636 0.24482 0.0
C865 C 0.48521 0.83775 0.26051 0.0
C866 C 0.39344 0.79072 0.23437 0.0
C867 C 0.40083 0.84057 0.22093 0.0
N868 N 0.45411 0.93739 0.2212 0.0
N869 N 0.43395 0.74158 0.26202 0.0
C870 C 0.44978 0.88868 0.22837 0.0
C871 C 0.43695 0.78912 0.25306 0.0
N872 N 0.54357 0.9303 0.24436 0.0
N873 N 0.34456 0.74549 0.2304 0.0
H874 H 0.46555 0.73958 0.27476 0.0
H875 H 0.40236 0.70429 0.25427 0.0
H876 H 0.31242 0.74546 0.21684 0.0
H877 H 0.33448 0.70874 0.24253 0.0
H878 H 0.55376 0.9655 0.22979 0.0
H879 H 0.57683 0.92925 0.25479 0.0
H880 H 0.4866 0.97378 0.22954 0.0
H881 H 0.42267 0.94162 0.2107 0.0
C882 C 0.63194 0.42455 0.37524 0.0
C883 C 0.58522 0.38261 0.39266 0.0
C884 C 0.62595 0.41615 0.45411 0.0
C885 C 0.66803 0.46316 0.43691 0.0
N886 N 0.71082 0.51284 0.38077 0.0
N887 N 0.5368 0.33855 0.44883 0.0
C888 C 0.67187 0.46693 0.39733 0.0
C889 C 0.58259 0.37751 0.43213 0.0
N890 N 0.63743 0.42425 0.33728 0.0
N891 N 0.62702 0.40901 0.49184 0.0
H892 H 0.50466 0.30866 0.43394 0.0
H893 H 0.52903 0.33742 0.47737 0.0
H894 H 0.65685 0.4374 0.50895 0.0
H895 H 0.60149 0.37332 0.50568 0.0
H896 H 0.67265 0.44993 0.323 0.0
H897 H 0.60799 0.395 0.32029 0.0
H898 H 0.71142 0.52126 0.35236 0.0
H899 H 0.74129 0.54437 0.39572 0.0
C900 C 0.15364 0.55281 0.5836 0.0
C901 C 0.20144 0.55672 0.56997 0.0
C902 C 0.2509 0.65023 0.59285 0.0
C903 C 0.20079 0.64652 0.60218 0.0
N904 N 0.10494 0.59952 0.5918 0.0
N905 N 0.29779 0.60581 0.56721 0.0
C906 C 0.15242 0.59942 0.59291 0.0
C907 C 0.25107 0.60472 0.57606 0.0
N908 N 0.10941 0.50373 0.58907 0.0
N909 N 0.29755 0.69722 0.59881 0.0
H910 H 0.29851 0.57281 0.55605 0.0
H911 H 0.33596 0.63801 0.57209 0.0
H912 H 0.2986 0.73093 0.61018 0.0
H913 H 0.33549 0.7041 0.59162 0.0
H914 H 0.07415 0.49853 0.60126 0.0
H915 H 0.1116 0.46886 0.58668 0.0
H916 H 0.06928 0.56685 0.58231 0.0
H917 H 0.10285 0.63429 0.59574 0.0
C918 C 0.59196 0.14379 0.71706 0.0
C919 C 0.64696 0.18507 0.71651 0.0
C920 C 0.62135 0.23759 0.75711 0.0
C921 C 0.56616 0.19956 0.7517 0.0
N922 N 0.50058 0.12579 0.71545 0.0
N923 N 0.71108 0.27812 0.73138 0.0
C924 C 0.55231 0.15651 0.72722 0.0
C925 C 0.66109 0.23435 0.73497 0.0
N926 N 0.57742 0.09133 0.71149 0.0
N927 N 0.6361 0.27476 0.78475 0.0
H928 H 0.74111 0.27904 0.71469 0.0
H929 H 0.72075 0.31555 0.74206 0.0
H930 H 0.60771 0.27657 0.80173 0.0
H931 H 0.67594 0.30001 0.79257 0.0
H932 H 0.53774 0.06029 0.71381 0.0
H933 H 0.60529 0.07818 0.71064 0.0
H934 H 0.48908 0.09474 0.69621 0.0
H935 H 0.47148 0.13622 0.72155 0.0
loop_
_geom_bond_atom_site_label_1
_geom_bond_atom_site_label_2
_geom_bond_distance
_geom_bond_site_symmetry_2
_ccdc_geom_bond_type
C0 C1 1.351 . S
C0 N3 1.368 . S
C0 H5 0.931 . S
C1 C0 1.351 . S
C1 N2 1.373 . S
C1 H29 0.930 . S
N2 C1 1.373 . S
N2 C4 1.340 . S
N3 C0 1.368 . S
N3 C4 1.321 . S
N3 Co6 2.135 1_554 S
C4 N2 1.340 . S
C4 N3 1.321 . S
C4 H28 0.930 . S
H5 C0 0.931 . S
Co6 N3 2.135 1_556 S
Co6 N9 2.121 . S
Co6 O14 2.055 . S
Co6 O17 2.039 . S
Co6 N20 2.140 1_556 S
C7 O8 1.227 . S
C7 O17 1.265 1_554 S
O8 C7 1.227 . S
N9 Co6 2.121 . S
N9 C11 1.375 . S
N9 C12 1.313 . S
C10 C11 1.338 . S
C10 N13 1.377 . S
C10 H30 0.930 . S
C11 N9 1.375 . S
C11 C10 1.338 . S
C11 H15 0.931 . S
C12 N9 1.313 . S
C12 N13 1.344 . S
C12 H16 0.930 . S
N13 C10 1.377 . S
N13 C12 1.344 . S
O14 Co6 2.055 . S
O14 C18 1.253 . S
H15 C11 0.931 . S
H16 C12 0.930 . S
O17 Co6 2.039 . S
O17 C7 1.265 1_556 S
C18 O14 1.253 . S
C18 O19 1.227 . S
O19 C18 1.227 . S
N20 Co6 2.140 1_554 S
N20 C23 1.346 . S
N20 C24 1.345 . S
C21 C22 1.387 . S
C21 C25 1.391 . S
C22 C21 1.387 . S
C22 C23 1.369 . S
C22 H31 0.929 . S
C23 N20 1.346 . S
C23 C22 1.369 . S
C23 H26 0.928 . S
C24 N20 1.345 . S
C24 C25 1.371 . S
C24 H27 0.931 . S
C25 C21 1.391 . S
C25 C24 1.371 . S
C25 H32 0.930 . S
H26 C23 0.928 . S
H27 C24 0.931 . S
H28 C4 0.930 . S
H29 C1 0.930 . S
H30 C10 0.930 . S
H31 C22 0.929 . S
H32 C25 0.930 . S
C33 C34 1.351 . S
C33 N36 1.368 . S
C33 H38 0.931 . S
C34 C33 1.351 . S
C34 N35 1.373 . S
C34 H62 0.930 . S
N35 C34 1.373 . S
N35 C37 1.340 . S
N36 C33 1.368 . S
N36 C37 1.321 . S
N36 Co39 2.135 . S
C37 N35 1.340 . S
C37 N36 1.321 . S
C37 H61 0.930 . S
H38 C33 0.931 . S
Co39 N36 2.135 . S
Co39 N42 2.121 . S
Co39 O47 2.055 . S
Co39 O50 2.039 . S
Co39 N53 2.140 . S
C40 O41 1.227 . S
C40 O50 1.265 . S
O41 C40 1.227 . S
N42 Co39 2.121 . S
N42 C44 1.375 . S
N42 C45 1.313 . S
C43 C44 1.338 . S
C43 N46 1.377 . S
C43 H63 0.930 . S
C44 N42 1.375 . S
C44 C43 1.338 . S
C44 H48 0.931 . S
C45 N42 1.313 . S
C45 N46 1.344 . S
C45 H49 0.930 . S
N46 C43 1.377 . S
N46 C45 1.344 . S
O47 Co39 2.055 . S
O47 C51 1.253 . S
H48 C44 0.931 . S
H49 C45 0.930 . S
O50 Co39 2.039 . S
O50 C40 1.265 . S
C51 O47 1.253 . S
C51 O52 1.227 . S
O52 C51 1.227 . S
N53 Co39 2.140 . S
N53 C56 1.346 . S
N53 C57 1.345 . S
C54 C55 1.387 . S
C54 C58 1.391 . S
C55 C54 1.387 . S
C55 C56 1.369 . S
C55 H64 0.929 . S
C56 N53 1.346 . S
C56 C55 1.369 . S
C56 H59 0.928 . S
C57 N53 1.345 . S
C57 C58 1.371 . S
C57 H60 0.931 . S
C58 C54 1.391 . S
C58 C57 1.371 . S
C58 H65 0.930 1_655 S
H59 C56 0.928 . S
H60 C57 0.931 . S
H61 C37 0.930 . S
H62 C34 0.930 . S
H63 C43 0.930 . S
H64 C55 0.929 . S
H65 C58 0.930 1_455 S
C66 C67 1.351 . S
C66 N69 1.368 . S
C66 H71 0.931 . S
C67 C66 1.351 . S
C67 N68 1.373 . S
C67 H95 0.930 . S
N68 C67 1.373 . S
N68 C70 1.340 . S
N69 C66 1.368 . S
N69 C70 1.321 . S
N69 Co72 2.135 . S
C70 N68 1.340 . S
C70 N69 1.321 . S
C70 H94 0.930 . S
H71 C66 0.931 . S
Co72 N69 2.135 . S
Co72 N75 2.121 . S
Co72 O80 2.055 . S
Co72 O83 2.039 . S
Co72 N86 2.140 . S
C73 O74 1.227 . S
C73 O83 1.265 . S
O74 C73 1.227 . S
N75 Co72 2.121 . S
N75 C77 1.375 . S
N75 C78 1.313 . S
C76 C77 1.338 . S
C76 N79 1.377 . S
C76 H96 0.930 . S
C77 N75 1.375 . S
C77 C76 1.338 . S
C77 H81 0.931 . S
C78 N75 1.313 . S
C78 N79 1.344 . S
C78 H82 0.930 . S
N79 C76 1.377 . S
N79 C78 1.344 . S
O80 Co72 2.055 . S
O80 C84 1.253 . S
H81 C77 0.931 . S
H82 C78 0.930 . S
O83 Co72 2.039 . S
O83 C73 1.265 . S
C84 O80 1.253 . S
C84 O85 1.227 . S
O85 C84 1.227 . S
N86 Co72 2.140 . S
N86 C89 1.346 . S
N86 C90 1.345 . S
C87 C88 1.387 . S
C87 C91 1.391 . S
C88 C87 1.387 . S
C88 C89 1.369 . S
C88 H97 0.929 . S
C89 N86 1.346 . S
C89 C88 1.369 . S
C89 H92 0.928 . S
C90 N86 1.345 . S
C90 C91 1.371 . S
C90 H93 0.931 . S
C91 C87 1.391 . S
C91 C90 1.371 . S
C91 H98 0.930 1_565 S
H92 C89 0.928 . S
H93 C90 0.931 . S
H94 C70 0.930 . S
H95 C67 0.930 . S
H96 C76 0.930 . S
H97 C88 0.929 . S
H98 C91 0.930 1_545 S
C99 C100 1.351 . S
C99 N102 1.368 . S
C99 H104 0.931 . S
C100 C99 1.351 . S
C100 N101 1.373 . S
C100 H128 0.930 . S
N101 C100 1.373 . S
N101 C103 1.340 . S
N102 C99 1.368 . S
N102 C103 1.321 . S
N102 Co105 2.135 . S
C103 N101 1.340 . S
C103 N102 1.321 . S
C103 H127 0.930 . S
H104 C99 0.931 . S
Co105 N102 2.135 . S
Co105 N108 2.121 . S
Co105 O113 2.055 . S
Co105 O116 2.039 . S
Co105 N119 2.140 . S
C106 O107 1.227 . S
C106 O116 1.265 . S
O107 C106 1.227 . S
N108 Co105 2.121 . S
N108 C110 1.375 . S
N108 C111 1.313 . S
C109 C110 1.338 . S
C109 N112 1.377 . S
C109 H129 0.930 . S
C110 N108 1.375 . S
C110 C109 1.338 . S
C110 H114 0.931 . S
C111 N108 1.313 . S
C111 N112 1.344 . S
C111 H115 0.930 . S
N112 C109 1.377 . S
N112 C111 1.344 . S
O113 Co105 2.055 . S
O113 C117 1.253 . S
H114 C110 0.931 . S
H115 C111 0.930 . S
O116 Co105 2.039 . S
O116 C106 1.265 . S
C117 O113 1.253 . S
C117 O118 1.227 . S
O118 C117 1.227 . S
N119 Co105 2.140 . S
N119 C122 1.346 . S
N119 C123 1.345 . S
C120 C121 1.387 . S
C120 C124 1.391 . S
C121 C120 1.387 . S
C121 C122 1.369 . S
C121 H130 0.929 . S
C122 N119 1.346 . S
C122 C121 1.369 . S
C122 H125 0.928 . S
C123 N119 1.345 . S
C123 C124 1.371 . S
C123 H126 0.931 . S
C124 C120 1.391 . S
C124 C123 1.371 . S
C124 H131 0.930 . S
H125 C122 0.928 . S
H126 C123 0.931 . S
H127 C103 0.930 . S
H128 C100 0.930 . S
H129 C109 0.930 . S
H130 C121 0.929 . S
H131 C124 0.930 . S
C132 C133 1.351 . S
C132 N135 1.368 . S
C132 H137 0.931 . S
C133 C132 1.351 . S
C133 N134 1.373 . S
C133 H161 0.930 . S
N134 C133 1.373 . S
N134 C136 1.340 . S
N135 C132 1.368 . S
N135 C136 1.321 . S
N135 Co138 2.135 . S
C136 N134 1.340 . S
C136 N135 1.321 . S
C136 H160 0.930 . S
H137 C132 0.931 . S
Co138 N135 2.135 . S
Co138 N141 2.121 . S
Co138 O146 2.055 . S
Co138 O149 2.039 . S
Co138 N152 2.140 . S
C139 O140 1.227 . S
C139 O149 1.265 . S
O140 C139 1.227 . S
N141 Co138 2.121 . S
N141 C143 1.375 . S
N141 C144 1.313 . S
C142 C143 1.338 . S
C142 N145 1.377 . S
C142 H162 0.930 . S
C143 N141 1.375 . S
C143 C142 1.338 . S
C143 H147 0.931 . S
C144 N141 1.313 . S
C144 N145 1.344 . S
C144 H148 0.930 . S
N145 C142 1.377 . S
N145 C144 1.344 . S
O146 Co138 2.055 . S
O146 C150 1.253 . S
H147 C143 0.931 . S
H148 C144 0.930 . S
O149 Co138 2.039 . S
O149 C139 1.265 . S
C150 O146 1.253 . S
C150 O151 1.227 . S
O151 C150 1.227 . S
N152 Co138 2.140 . S
N152 C155 1.346 . S
N152 C156 1.345 . S
C153 C154 1.387 . S
C153 C157 1.391 . S
C154 C153 1.387 . S
C154 C155 1.369 . S
C154 H163 0.929 . S
C155 N152 1.346 . S
C155 C154 1.369 . S
C155 H158 0.928 . S
C156 N152 1.345 . S
C156 C157 1.371 . S
C156 H159 0.931 . S
C157 C153 1.391 . S
C157 C156 1.371 . S
C157 H164 0.930 1_455 S
H158 C155 0.928 . S
H159 C156 0.931 . S
H160 C136 0.930 . S
H161 C133 0.930 . S
H162 C142 0.930 . S
H163 C154 0.929 . S
H164 C157 0.930 1_655 S
C165 C166 1.351 . S
C165 N168 1.368 . S
C165 H170 0.931 . S
C166 C165 1.351 . S
C166 N167 1.373 . S
C166 H194 0.930 . S
N167 C166 1.373 . S
N167 C169 1.340 . S
N168 C165 1.368 . S
N168 C169 1.321 . S
N168 Co171 2.135 . S
C169 N167 1.340 . S
C169 N168 1.321 . S
C169 H193 0.930 . S
H170 C165 0.931 . S
Co171 N168 2.135 . S
Co171 N174 2.121 . S
Co171 O179 2.055 . S
Co171 O182 2.039 . S
Co171 N185 2.140 . S
C172 O173 1.227 . S
C172 O182 1.265 . S
O173 C172 1.227 . S
N174 Co171 2.121 . S
N174 C176 1.375 . S
N174 C177 1.313 . S
C175 C176 1.338 . S
C175 N178 1.377 . S
C175 H195 0.930 . S
C176 N174 1.375 . S
C176 C175 1.338 . S
C176 H180 0.931 . S
C177 N174 1.313 . S
C177 N178 1.344 . S
C177 H181 0.930 . S
N178 C175 1.377 . S
N178 C177 1.344 . S
O179 Co171 2.055 . S
O179 C183 1.253 . S
H180 C176 0.931 . S
H181 C177 0.930 . S
O182 Co171 2.039 . S
O182 C172 1.265 . S
C183 O179 1.253 . S
C183 O184 1.227 . S
O184 C183 1.227 . S
N185 Co171 2.140 . S
N185 C188 1.346 . S
N185 C189 1.345 . S
C186 C187 1.387 . S
C186 C190 1.391 . S
C187 C186 1.387 . S
C187 C188 1.369 . S
C187 H196 0.929 . S
C188 N185 1.346 . S
C188 C187 1.369 . S
C188 H191 0.928 . S
C189 N185 1.345 . S
C189 C190 1.371 . S
C189 H192 0.931 . S
C190 C186 1.391 . S
C190 C189 1.371 . S
C190 H197 0.930 1_545 S
H191 C188 0.928 . S
H192 C189 0.931 . S
H193 C169 0.930 . S
H194 C166 0.930 . S
H195 C175 0.930 . S
H196 C187 0.929 . S
H197 C190 0.930 1_565 S
C198 C199 1.351 . S
C198 N201 1.368 . S
C198 H203 0.931 . S
C199 C198 1.351 . S
C199 N200 1.373 . S
C199 H227 0.930 . S
N200 C199 1.373 . S
N200 C202 1.340 . S
N201 C198 1.368 . S
N201 C202 1.321 . S
N201 Co204 2.135 . S
C202 N200 1.340 . S
C202 N201 1.321 . S
C202 H226 0.930 . S
H203 C198 0.931 . S
Co204 N201 2.135 . S
Co204 N207 2.121 . S
Co204 O212 2.055 . S
Co204 O215 2.039 . S
Co204 N218 2.140 . S
C205 O206 1.227 . S
C205 O215 1.265 . S
O206 C205 1.227 . S
N207 Co204 2.121 . S
N207 C209 1.375 . S
N207 C210 1.313 . S
C208 C209 1.338 . S
C208 N211 1.377 . S
C208 H228 0.930 . S
C209 N207 1.375 . S
C209 C208 1.338 . S
C209 H213 0.931 . S
C210 N207 1.313 . S
C210 N211 1.344 . S
C210 H214 0.930 . S
N211 C208 1.377 . S
N211 C210 1.344 . S
O212 Co204 2.055 . S
O212 C216 1.253 . S
H213 C209 0.931 . S
H214 C210 0.930 . S
O215 Co204 2.039 . S
O215 C205 1.265 . S
C216 O212 1.253 . S
C216 O217 1.227 . S
O217 C216 1.227 . S
N218 Co204 2.140 . S
N218 C221 1.346 . S
N218 C222 1.345 . S
C219 C220 1.387 . S
C219 C223 1.391 . S
C220 C219 1.387 . S
C220 C221 1.369 . S
C220 H229 0.929 . S
C221 N218 1.346 . S
C221 C220 1.369 . S
C221 H224 0.928 . S
C222 N218 1.345 . S
C222 C223 1.371 . S
C222 H225 0.931 . S
C223 C219 1.391 . S
C223 C222 1.371 . S
C223 H230 0.930 . S
H224 C221 0.928 . S
H225 C222 0.931 . S
H226 C202 0.930 . S
H227 C199 0.930 . S
H228 C208 0.930 . S
H229 C220 0.929 . S
H230 C223 0.930 . S
C231 C232 1.351 . S
C231 N234 1.368 . S
C231 H236 0.931 . S
C232 C231 1.351 . S
C232 N233 1.373 . S
C232 H260 0.930 . S
N233 C232 1.373 . S
N233 C235 1.340 . S
N234 C231 1.368 . S
N234 C235 1.321 . S
N234 Co237 2.135 1_556 S
C235 N233 1.340 . S
C235 N234 1.321 . S
C235 H259 0.930 . S
H236 C231 0.931 . S
Co237 N234 2.135 1_554 S
Co237 N240 2.121 . S
Co237 O245 2.055 . S
Co237 O248 2.039 . S
Co237 N251 2.140 1_554 S
C238 O239 1.227 . S
C238 O248 1.265 1_556 S
O239 C238 1.227 . S
N240 Co237 2.121 . S
N240 C242 1.375 . S
N240 C243 1.313 . S
C241 C242 1.338 . S
C241 N244 1.377 . S
C241 H261 0.930 . S
C242 N240 1.375 . S
C242 C241 1.338 . S
C242 H246 0.931 . S
C243 N240 1.313 . S
C243 N244 1.344 . S
C243 H247 0.930 . S
N244 C241 1.377 . S
N244 C243 1.344 . S
O245 Co237 2.055 . S
O245 C249 1.253 . S
H246 C242 0.931 . S
H247 C243 0.930 . S
O248 Co237 2.039 . S
O248 C238 1.265 1_554 S
C249 O245 1.253 . S
C249 O250 1.227 . S
O250 C249 1.227 . S
N251 Co237 2.140 1_556 S
N251 C254 1.346 . S
N251 C255 1.345 . S
C252 C253 1.387 . S
C252 C256 1.391 . S
C253 C252 1.387 . S
C253 C254 1.369 . S
C253 H262 0.929 . S
C254 N251 1.346 . S
C254 C253 1.369 . S
C254 H257 0.928 . S
C255 N251 1.345 . S
C255 C256 1.371 . S
C255 H258 0.931 . S
C256 C252 1.391 . S
C256 C255 1.371 . S
C256 H263 0.930 1_655 S
H257 C254 0.928 . S
H258 C255 0.931 . S
H259 C235 0.930 . S
H260 C232 0.930 . S
H261 C241 0.930 . S
H262 C253 0.929 . S
H263 C256 0.930 1_455 S
C264 C265 1.351 . S
C264 N267 1.368 . S
C264 H269 0.931 . S
C265 C264 1.351 . S
C265 N266 1.373 . S
C265 H293 0.930 . S
N266 C265 1.373 . S
N266 C268 1.340 . S
N267 C264 1.368 . S
N267 C268 1.321 . S
N267 Co270 2.135 . S
C268 N266 1.340 . S
C268 N267 1.321 . S
C268 H292 0.930 . S
H269 C264 0.931 . S
Co270 N267 2.135 . S
Co270 N273 2.121 . S
Co270 O278 2.055 . S
Co270 O281 2.039 . S
Co270 N284 2.140 . S
C271 O272 1.227 . S
C271 O281 1.265 . S
O272 C271 1.227 . S
N273 Co270 2.121 . S
N273 C275 1.375 . S
N273 C276 1.313 . S
C274 C275 1.338 . S
C274 N277 1.377 . S
C274 H294 0.930 . S
C275 N273 1.375 . S
C275 C274 1.338 . S
C275 H279 0.931 . S
C276 N273 1.313 . S
C276 N277 1.344 . S
C276 H280 0.930 . S
N277 C274 1.377 . S
N277 C276 1.344 . S
O278 Co270 2.055 . S
O278 C282 1.253 . S
H279 C275 0.931 . S
H280 C276 0.930 . S
O281 Co270 2.039 . S
O281 C271 1.265 . S
C282 O278 1.253 . S
C282 O283 1.227 . S
O283 C282 1.227 . S
N284 Co270 2.140 . S
N284 C287 1.346 . S
N284 C288 1.345 . S
C285 C286 1.387 . S
C285 C289 1.391 . S
C286 C285 1.387 . S
C286 C287 1.369 . S
C286 H295 0.929 . S
C287 N284 1.346 . S
C287 C286 1.369 . S
C287 H290 0.928 . S
C288 N284 1.345 . S
C288 C289 1.371 . S
C288 H291 0.931 . S
C289 C285 1.391 . S
C289 C288 1.371 . S
C289 H296 0.930 1_565 S
H290 C287 0.928 . S
H291 C288 0.931 . S
H292 C268 0.930 . S
H293 C265 0.930 . S
H294 C274 0.930 . S
H295 C286 0.929 . S
H296 C289 0.930 1_545 S
C297 C298 1.351 . S
C297 N300 1.368 . S
C297 H302 0.931 . S
C298 C297 1.351 . S
C298 N299 1.373 . S
C298 H326 0.930 . S
N299 C298 1.373 . S
N299 C301 1.340 . S
N300 C297 1.368 . S
N300 C301 1.321 . S
N300 Co303 2.135 . S
C301 N299 1.340 . S
C301 N300 1.321 . S
C301 H325 0.930 . S
H302 C297 0.931 . S
Co303 N300 2.135 . S
Co303 N306 2.121 . S
Co303 O311 2.055 . S
Co303 O314 2.039 . S
Co303 N317 2.140 . S
C304 O305 1.227 . S
C304 O314 1.265 . S
O305 C304 1.227 . S
N306 Co303 2.121 . S
N306 C308 1.375 . S
N306 C309 1.313 . S
C307 C308 1.338 . S
C307 N310 1.377 . S
C307 H327 0.930 . S
C308 N306 1.375 . S
C308 C307 1.338 . S
C308 H312 0.931 . S
C309 N306 1.313 . S
C309 N310 1.344 . S
C309 H313 0.930 . S
N310 C307 1.377 . S
N310 C309 1.344 . S
O311 Co303 2.055 . S
O311 C315 1.253 . S
H312 C308 0.931 . S
H313 C309 0.930 . S
O314 Co303 2.039 . S
O314 C304 1.265 . S
C315 O311 1.253 . S
C315 O316 1.227 . S
O316 C315 1.227 . S
N317 Co303 2.140 . S
N317 C320 1.346 . S
N317 C321 1.345 . S
C318 C319 1.387 . S
C318 C322 1.391 . S
C319 C318 1.387 . S
C319 C320 1.369 . S
C319 H328 0.929 . S
C320 N317 1.346 . S
C320 C319 1.369 . S
C320 H323 0.928 . S
C321 N317 1.345 . S
C321 C322 1.371 . S
C321 H324 0.931 . S
C322 C318 1.391 . S
C322 C321 1.371 . S
C322 H329 0.930 . S
H323 C320 0.928 . S
H324 C321 0.931 . S
H325 C301 0.930 . S
H326 C298 0.930 . S
H327 C307 0.930 . S
H328 C319 0.929 . S
H329 C322 0.930 . S
C330 C331 1.351 . S
C330 N333 1.368 . S
C330 H335 0.931 . S
C331 C330 1.351 . S
C331 N332 1.373 . S
C331 H359 0.930 . S
N332 C331 1.373 . S
N332 C334 1.340 . S
N333 C330 1.368 . S
N333 C334 1.321 . S
N333 Co336 2.135 . S
C334 N332 1.340 . S
C334 N333 1.321 . S
C334 H358 0.930 . S
H335 C330 0.931 . S
Co336 N333 2.135 . S
Co336 N339 2.121 . S
Co336 O344 2.055 . S
Co336 O347 2.039 . S
Co336 N350 2.140 . S
C337 O338 1.227 . S
C337 O347 1.265 . S
O338 C337 1.227 . S
N339 Co336 2.121 . S
N339 C341 1.375 . S
N339 C342 1.313 . S
C340 C341 1.338 . S
C340 N343 1.377 . S
C340 H360 0.930 . S
C341 N339 1.375 . S
C341 C340 1.338 . S
C341 H345 0.931 . S
C342 N339 1.313 . S
C342 N343 1.344 . S
C342 H346 0.930 . S
N343 C340 1.377 . S
N343 C342 1.344 . S
O344 Co336 2.055 . S
O344 C348 1.253 . S
H345 C341 0.931 . S
H346 C342 0.930 . S
O347 Co336 2.039 . S
O347 C337 1.265 . S
C348 O344 1.253 . S
C348 O349 1.227 . S
O349 C348 1.227 . S
N350 Co336 2.140 . S
N350 C353 1.346 . S
N350 C354 1.345 . S
C351 C352 1.387 . S
C351 C355 1.391 . S
C352 C351 1.387 . S
C352 C353 1.369 . S
C352 H361 0.929 . S
C353 N350 1.346 . S
C353 C352 1.369 . S
C353 H356 0.928 . S
C354 N350 1.345 . S
C354 C355 1.371 . S
C354 H357 0.931 . S
C355 C351 1.391 . S
C355 C354 1.371 . S
C355 H362 0.930 1_455 S
H356 C353 0.928 . S
H357 C354 0.931 . S
H358 C334 0.930 . S
H359 C331 0.930 . S
H360 C340 0.930 . S
H361 C352 0.929 . S
H362 C355 0.930 1_655 S
C363 C364 1.351 . S
C363 N366 1.368 . S
C363 H368 0.931 . S
C364 C363 1.351 . S
C364 N365 1.373 . S
C364 H392 0.930 . S
N365 C364 1.373 . S
N365 C367 1.340 . S
N366 C363 1.368 . S
N366 C367 1.321 . S
N366 Co369 2.135 . S
C367 N365 1.340 . S
C367 N366 1.321 . S
C367 H391 0.930 . S
H368 C363 0.931 . S
Co369 N366 2.135 . S
Co369 N372 2.121 . S
Co369 O377 2.055 . S
Co369 O380 2.039 . S
Co369 N383 2.140 . S
C370 O371 1.227 . S
C370 O380 1.265 . S
O371 C370 1.227 . S
N372 Co369 2.121 . S
N372 C374 1.375 . S
N372 C375 1.313 . S
C373 C374 1.338 . S
C373 N376 1.377 . S
C373 H393 0.930 . S
C374 N372 1.375 . S
C374 C373 1.338 . S
C374 H378 0.931 . S
C375 N372 1.313 . S
C375 N376 1.344 . S
C375 H379 0.930 . S
N376 C373 1.377 . S
N376 C375 1.344 . S
O377 Co369 2.055 . S
O377 C381 1.253 . S
H378 C374 0.931 . S
H379 C375 0.930 . S
O380 Co369 2.039 . S
O380 C370 1.265 . S
C381 O377 1.253 . S
C381 O382 1.227 . S
O382 C381 1.227 . S
N383 Co369 2.140 . S
N383 C386 1.346 . S
N383 C387 1.345 . S
C384 C385 1.387 . S
C384 C388 1.391 . S
C385 C384 1.387 . S
C385 C386 1.369 . S
C385 H394 0.929 . S
C386 N383 1.346 . S
C386 C385 1.369 . S
C386 H389 0.928 . S
C387 N383 1.345 . S
C387 C388 1.371 . S
C387 H390 0.931 . S
C388 C384 1.391 . S
C388 C387 1.371 . S
C388 H395 0.930 1_545 S
H389 C386 0.928 . S
H390 C387 0.931 . S
H391 C367 0.930 . S
H392 C364 0.930 . S
H393 C373 0.930 . S
H394 C385 0.929 . S
H395 C388 0.930 1_565 S
C396 C397 1.363 . S
C396 C402 1.379 . S
C396 N404 1.356 . S
C397 C396 1.363 . S
C397 C403 1.363 . S
C398 C399 1.363 . S
C398 C403 1.379 . S
C398 N405 1.356 . S
C399 C398 1.363 . S
C399 C402 1.363 . S
N400 C402 1.356 . S
N400 H412 0.984 . S
N400 H413 0.985 . S
N401 C403 1.356 . S
N401 H406 0.984 . S
N401 H407 0.985 . S
C402 C396 1.379 . S
C402 C399 1.363 . S
C402 N400 1.356 . S
C403 C397 1.363 . S
C403 C398 1.379 . S
C403 N401 1.356 . S
N404 C396 1.356 . S
N404 H410 0.984 . S
N404 H411 0.984 . S
N405 C398 1.356 . S
N405 H408 0.984 . S
N405 H409 0.985 . S
H406 N401 0.984 . S
H407 N401 0.985 . S
H408 N405 0.984 . S
H409 N405 0.985 . S
H410 N404 0.984 . S
H411 N404 0.984 . S
H412 N400 0.984 . S
H413 N400 0.985 . S
C414 C415 1.363 . S
C414 C420 1.379 . S
C414 N422 1.356 1_554 S
C415 C414 1.363 . S
C415 C421 1.363 . S
C416 C417 1.363 . S
C416 C421 1.379 . S
C416 N423 1.356 . S
C417 C416 1.363 . S
C417 C420 1.363 . S
N418 C420 1.356 1_655 S
N418 H430 0.984 . S
N418 H431 0.985 . S
N419 C421 1.356 . S
N419 H424 0.984 . S
N419 H425 0.985 . S
C420 C414 1.379 . S
C420 C417 1.363 . S
C420 N418 1.356 1_455 S
C421 C415 1.363 . S
C421 C416 1.379 . S
C421 N419 1.356 . S
N422 C414 1.356 1_556 S
N422 H428 0.984 . S
N422 H429 0.984 . S
N423 C416 1.356 . S
N423 H426 0.984 . S
N423 H427 0.985 . S
H424 N419 0.984 . S
H425 N419 0.985 . S
H426 N423 0.984 . S
H427 N423 0.985 . S
H428 N422 0.984 . S
H429 N422 0.984 . S
H430 N418 0.984 . S
H431 N418 0.985 . S
C432 C433 1.363 . S
C432 C438 1.379 . S
C432 N440 1.356 . S
C433 C432 1.363 . S
C433 C439 1.363 . S
C434 C435 1.363 . S
C434 C439 1.379 . S
C434 N441 1.356 1_545 S
C435 C434 1.363 . S
C435 C438 1.363 . S
N436 C438 1.356 . S
N436 H448 0.984 . S
N436 H449 0.985 . S
N437 C439 1.356 . S
N437 H442 0.984 . S
N437 H443 0.985 . S
C438 C432 1.379 . S
C438 C435 1.363 . S
C438 N436 1.356 . S
C439 C433 1.363 . S
C439 C434 1.379 . S
C439 N437 1.356 . S
N440 C432 1.356 . S
N440 H446 0.984 . S
N440 H447 0.984 . S
N441 C434 1.356 1_565 S
N441 H444 0.984 . S
N441 H445 0.985 . S
H442 N437 0.984 . S
H443 N437 0.985 . S
H444 N441 0.984 . S
H445 N441 0.985 . S
H446 N440 0.984 . S
H447 N440 0.984 . S
H448 N436 0.984 . S
H449 N436 0.985 . S
C450 C451 1.363 . S
C450 C456 1.379 . S
C450 N458 1.356 . S
C451 C450 1.363 . S
C451 C457 1.363 . S
C452 C453 1.363 . S
C452 C457 1.379 . S
C452 N459 1.356 . S
C453 C452 1.363 . S
C453 C456 1.363 . S
N454 C456 1.356 . S
N454 H466 0.984 . S
N454 H467 0.985 . S
N455 C457 1.356 . S
N455 H460 0.984 . S
N455 H461 0.985 . S
C456 C450 1.379 . S
C456 C453 1.363 . S
C456 N454 1.356 . S
C457 C451 1.363 . S
C457 C452 1.379 . S
C457 N455 1.356 . S
N458 C450 1.356 . S
N458 H464 0.984 . S
N458 H465 0.984 . S
N459 C452 1.356 . S
N459 H462 0.984 . S
N459 H463 0.985 . S
H460 N455 0.984 . S
H461 N455 0.985 . S
H462 N459 0.984 . S
H463 N459 0.985 . S
H464 N458 0.984 . S
H465 N458 0.984 . S
H466 N454 0.984 . S
H467 N454 0.985 . S
C468 C469 1.363 . S
C468 C474 1.379 . S
C468 N476 1.356 1_655 S
C469 C468 1.363 . S
C469 C475 1.363 . S
C470 C471 1.363 . S
C470 C475 1.379 . S
C470 N477 1.356 . S
C471 C470 1.363 . S
C471 C474 1.363 . S
N472 C474 1.356 . S
N472 H484 0.984 . S
N472 H485 0.985 . S
N473 C475 1.356 . S
N473 H478 0.984 . S
N473 H479 0.985 . S
C474 C468 1.379 . S
C474 C471 1.363 . S
C474 N472 1.356 . S
C475 C469 1.363 . S
C475 C470 1.379 . S
C475 N473 1.356 . S
N476 C468 1.356 1_455 S
N476 H482 0.984 . S
N476 H483 0.984 . S
N477 C470 1.356 . S
N477 H480 0.984 . S
N477 H481 0.985 . S
H478 N473 0.984 . S
H479 N473 0.985 . S
H480 N477 0.984 . S
H481 N477 0.985 . S
H482 N476 0.984 . S
H483 N476 0.984 . S
H484 N472 0.984 . S
H485 N472 0.985 . S
C486 C487 1.363 . S
C486 C492 1.379 . S
C486 N494 1.356 . S
C487 C486 1.363 . S
C487 C493 1.363 . S
C488 C489 1.363 . S
C488 C493 1.379 . S
C488 N495 1.356 . S
C489 C488 1.363 . S
C489 C492 1.363 . S
N490 C492 1.356 1_545 S
N490 H502 0.984 . S
N490 H503 0.985 . S
N491 C493 1.356 . S
N491 H496 0.984 . S
N491 H497 0.985 . S
C492 C486 1.379 . S
C492 C489 1.363 . S
C492 N490 1.356 1_565 S
C493 C487 1.363 . S
C493 C488 1.379 . S
C493 N491 1.356 . S
N494 C486 1.356 . S
N494 H500 0.984 . S
N494 H501 0.984 . S
N495 C488 1.356 . S
N495 H498 0.984 . S
N495 H499 0.985 . S
H496 N491 0.984 . S
H497 N491 0.985 . S
H498 N495 0.984 . S
H499 N495 0.985 . S
H500 N494 0.984 . S
H501 N494 0.984 . S
H502 N490 0.984 . S
H503 N490 0.985 . S
C504 C505 1.363 . S
C504 C510 1.379 . S
C504 N512 1.356 1_556 S
C505 C504 1.363 . S
C505 C511 1.363 . S
C506 C507 1.363 . S
C506 C511 1.379 . S
C506 N513 1.356 . S
C507 C506 1.363 . S
C507 C510 1.363 . S
N508 C510 1.356 . S
N508 H520 0.984 . S
N508 H521 0.985 . S
N509 C511 1.356 . S
N509 H514 0.984 . S
N509 H515 0.985 . S
C510 C504 1.379 . S
C510 C507 1.363 . S
C510 N508 1.356 . S
C511 C505 1.363 . S
C511 C506 1.379 . S
C511 N509 1.356 . S
N512 C504 1.356 1_554 S
N512 H518 0.984 . S
N512 H519 0.984 . S
N513 C506 1.356 . S
N513 H516 0.984 . S
N513 H517 0.985 . S
H514 N509 0.984 . S
H515 N509 0.985 . S
H516 N513 0.984 . S
H517 N513 0.985 . S
H518 N512 0.984 . S
H519 N512 0.984 . S
H520 N508 0.984 . S
H521 N508 0.985 . S
C522 C523 1.363 . S
C522 C528 1.379 . S
C522 N530 1.356 . S
C523 C522 1.363 . S
C523 C529 1.363 . S
C524 C525 1.363 . S
C524 C529 1.379 . S
C524 N531 1.356 . S
C525 C524 1.363 . S
C525 C528 1.363 . S
N526 C528 1.356 1_655 S
N526 H538 0.984 . S
N526 H539 0.985 . S
N527 C529 1.356 . S
N527 H532 0.984 . S
N527 H533 0.985 . S
C528 C522 1.379 . S
C528 C525 1.363 . S
C528 N526 1.356 1_455 S
C529 C523 1.363 . S
C529 C524 1.379 . S
C529 N527 1.356 . S
N530 C522 1.356 . S
N530 H536 0.984 . S
N530 H537 0.984 . S
N531 C524 1.356 . S
N531 H534 0.984 . S
N531 H535 0.985 . S
H532 N527 0.984 . S
H533 N527 0.985 . S
H534 N531 0.984 . S
H535 N531 0.985 . S
H536 N530 0.984 . S
H537 N530 0.984 . S
H538 N526 0.984 . S
H539 N526 0.985 . S
C540 C541 1.363 . S
C540 C546 1.379 . S
C540 N548 1.356 . S
C541 C540 1.363 . S
C541 C547 1.363 . S
C542 C543 1.363 . S
C542 C547 1.379 . S
C542 N549 1.356 . S
C543 C542 1.363 . S
C543 C546 1.363 . S
N544 C546 1.356 1_565 S
N544 H556 0.984 . S
N544 H557 0.985 . S
N545 C547 1.356 . S
N545 H550 0.984 . S
N545 H551 0.985 . S
C546 C540 1.379 . S
C546 C543 1.363 . S
C546 N544 1.356 1_545 S
C547 C541 1.363 . S
C547 C542 1.379 . S
C547 N545 1.356 . S
N548 C540 1.356 . S
N548 H554 0.984 . S
N548 H555 0.984 . S
N549 C542 1.356 . S
N549 H552 0.984 . S
N549 H553 0.985 . S
H550 N545 0.984 . S
H551 N545 0.985 . S
H552 N549 0.984 . S
H553 N549 0.985 . S
H554 N548 0.984 . S
H555 N548 0.984 . S
H556 N544 0.984 . S
H557 N544 0.985 . S
C558 C559 1.363 . S
C558 C564 1.379 . S
C558 N566 1.356 . S
C559 C558 1.363 . S
C559 C565 1.363 . S
C560 C561 1.363 . S
C560 C565 1.379 . S
C560 N567 1.356 . S
C561 C560 1.363 . S
C561 C564 1.363 . S
N562 C564 1.356 . S
N562 H574 0.984 . S
N562 H575 0.985 . S
N563 C565 1.356 . S
N563 H568 0.984 . S
N563 H569 0.985 . S
C564 C558 1.379 . S
C564 C561 1.363 . S
C564 N562 1.356 . S
C565 C559 1.363 . S
C565 C560 1.379 . S
C565 N563 1.356 . S
N566 C558 1.356 . S
N566 H572 0.984 . S
N566 H573 0.984 . S
N567 C560 1.356 . S
N567 H570 0.984 . S
N567 H571 0.985 . S
H568 N563 0.984 . S
H569 N563 0.985 . S
H570 N567 0.984 . S
H571 N567 0.985 . S
H572 N566 0.984 . S
H573 N566 0.984 . S
H574 N562 0.984 . S
H575 N562 0.985 . S
C576 C577 1.363 . S
C576 C582 1.379 . S
C576 N584 1.356 . S
C577 C576 1.363 . S
C577 C583 1.363 . S
C578 C579 1.363 . S
C578 C583 1.379 . S
C578 N585 1.356 . S
C579 C578 1.363 . S
C579 C582 1.363 . S
N580 C582 1.356 1_455 S
N580 H592 0.984 . S
N580 H593 0.985 . S
N581 C583 1.356 . S
N581 H586 0.984 . S
N581 H587 0.985 . S
C582 C576 1.379 . S
C582 C579 1.363 . S
C582 N580 1.356 1_655 S
C583 C577 1.363 . S
C583 C578 1.379 . S
C583 N581 1.356 . S
N584 C576 1.356 . S
N584 H590 0.984 . S
N584 H591 0.984 . S
N585 C578 1.356 . S
N585 H588 0.984 . S
N585 H589 0.985 . S
H586 N581 0.984 . S
H587 N581 0.985 . S
H588 N585 0.984 . S
H589 N585 0.985 . S
H590 N584 0.984 . S
H591 N584 0.984 . S
H592 N580 0.984 . S
H593 N580 0.985 . S
C594 C595 1.363 . S
C594 C600 1.379 . S
C594 N602 1.356 . S
C595 C594 1.363 . S
C595 C601 1.363 . S
C596 C597 1.363 . S
C596 C601 1.379 . S
C596 N603 1.356 1_565 S
C597 C596 1.363 . S
C597 C600 1.363 . S
N598 C600 1.356 . S
N598 H610 0.984 . S
N598 H611 0.985 1_565 S
N599 C601 1.356 . S
N599 H604 0.984 . S
N599 H605 0.985 . S
C600 C594 1.379 . S
C600 C597 1.363 . S
C600 N598 1.356 . S
C601 C595 1.363 . S
C601 C596 1.379 . S
C601 N599 1.356 . S
N602 C594 1.356 . S
N602 H608 0.984 . S
N602 H609 0.984 . S
N603 C596 1.356 1_545 S
N603 H606 0.984 . S
N603 H607 0.985 . S
H604 N599 0.984 . S
H605 N599 0.985 . S
H606 N603 0.984 . S
H607 N603 0.985 . S
H608 N602 0.984 . S
H609 N602 0.984 . S
H610 N598 0.984 . S
H611 N598 0.985 1_545 S
C612 C613 1.363 . S
C612 C618 1.379 . S
C612 N620 1.356 . S
C613 C612 1.363 . S
C613 C619 1.363 . S
C614 C615 1.363 . S
C614 C619 1.379 . S
C614 N621 1.356 . S
C615 C614 1.363 . S
C615 C618 1.363 . S
N616 C618 1.356 . S
N616 H628 0.984 . S
N616 H629 0.985 . S
N617 C619 1.356 . S
N617 H622 0.984 . S
N617 H623 0.985 . S
C618 C612 1.379 . S
C618 C615 1.363 . S
C618 N616 1.356 . S
C619 C613 1.363 . S
C619 C614 1.379 . S
C619 N617 1.356 . S
N620 C612 1.356 . S
N620 H626 0.984 . S
N620 H627 0.984 . S
N621 C614 1.356 . S
N621 H624 0.984 . S
N621 H625 0.985 1_554 S
H622 N617 0.984 . S
H623 N617 0.985 . S
H624 N621 0.984 . S
H625 N621 0.985 1_556 S
H626 N620 0.984 . S
H627 N620 0.984 . S
H628 N616 0.984 . S
H629 N616 0.985 . S
C630 C631 1.363 . S
C630 C636 1.379 . S
C630 N638 1.356 . S
C631 C630 1.363 . S
C631 C637 1.363 . S
C632 C633 1.363 . S
C632 C637 1.379 . S
C632 N639 1.356 . S
C633 C632 1.363 . S
C633 C636 1.363 . S
N634 C636 1.356 . S
N634 H646 0.984 . S
N634 H647 0.985 . S
N635 C637 1.356 . S
N635 H640 0.984 . S
N635 H641 0.985 . S
C636 C630 1.379 . S
C636 C633 1.363 . S
C636 N634 1.356 . S
C637 C631 1.363 . S
C637 C632 1.379 . S
C637 N635 1.356 . S
N638 C630 1.356 . S
N638 H644 0.984 . S
N638 H645 0.984 . S
N639 C632 1.356 . S
N639 H642 0.984 . S
N639 H643 0.985 . S
H640 N635 0.984 . S
H641 N635 0.985 . S
H642 N639 0.984 . S
H643 N639 0.985 . S
H644 N638 0.984 . S
H645 N638 0.984 . S
H646 N634 0.984 . S
H647 N634 0.985 . S
C648 C649 1.363 . S
C648 C654 1.379 . S
C648 N656 1.356 . S
C649 C648 1.363 . S
C649 C655 1.363 . S
C650 C651 1.363 . S
C650 C655 1.379 . S
C650 N657 1.356 . S
C651 C650 1.363 . S
C651 C654 1.363 . S
N652 C654 1.356 . S
N652 H664 0.984 . S
N652 H665 0.985 . S
N653 C655 1.356 . S
N653 H658 0.984 . S
N653 H659 0.985 . S
C654 C648 1.379 . S
C654 C651 1.363 . S
C654 N652 1.356 . S
C655 C649 1.363 . S
C655 C650 1.379 . S
C655 N653 1.356 . S
N656 C648 1.356 . S
N656 H662 0.984 . S
N656 H663 0.984 . S
N657 C650 1.356 . S
N657 H660 0.984 . S
N657 H661 0.985 . S
H658 N653 0.984 . S
H659 N653 0.985 . S
H660 N657 0.984 . S
H661 N657 0.985 . S
H662 N656 0.984 . S
H663 N656 0.984 . S
H664 N652 0.984 . S
H665 N652 0.985 . S
C666 C667 1.363 . S
C666 C672 1.379 . S
C666 N674 1.356 . S
C667 C666 1.363 . S
C667 C673 1.363 . S
C668 C669 1.363 . S
C668 C673 1.379 . S
C668 N675 1.356 . S
C669 C668 1.363 . S
C669 C672 1.363 . S
N670 C672 1.356 . S
N670 H682 0.984 . S
N670 H683 0.985 . S
N671 C673 1.356 . S
N671 H676 0.984 . S
N671 H677 0.985 . S
C672 C666 1.379 . S
C672 C669 1.363 . S
C672 N670 1.356 . S
C673 C667 1.363 . S
C673 C668 1.379 . S
C673 N671 1.356 . S
N674 C666 1.356 . S
N674 H680 0.984 . S
N674 H681 0.984 . S
N675 C668 1.356 . S
N675 H678 0.984 . S
N675 H679 0.985 . S
H676 N671 0.984 . S
H677 N671 0.985 . S
H678 N675 0.984 . S
H679 N675 0.985 . S
H680 N674 0.984 . S
H681 N674 0.984 . S
H682 N670 0.984 . S
H683 N670 0.985 . S
C684 C685 1.363 . S
C684 C690 1.379 . S
C684 N692 1.356 . S
C685 C684 1.363 . S
C685 C691 1.363 . S
C686 C687 1.363 . S
C686 C691 1.379 . S
C686 N693 1.356 . S
C687 C686 1.363 . S
C687 C690 1.363 . S
N688 C690 1.356 . S
N688 H700 0.984 . S
N688 H701 0.985 . S
N689 C691 1.356 . S
N689 H694 0.984 . S
N689 H695 0.985 . S
C690 C684 1.379 . S
C690 C687 1.363 . S
C690 N688 1.356 . S
C691 C685 1.363 . S
C691 C686 1.379 . S
C691 N689 1.356 . S
N692 C684 1.356 . S
N692 H698 0.984 . S
N692 H699 0.984 . S
N693 C686 1.356 . S
N693 H696 0.984 . S
N693 H697 0.985 . S
H694 N689 0.984 . S
H695 N689 0.985 . S
H696 N693 0.984 . S
H697 N693 0.985 . S
H698 N692 0.984 . S
H699 N692 0.984 . S
H700 N688 0.984 . S
H701 N688 0.985 . S
C702 C703 1.363 . S
C702 C708 1.379 . S
C702 N710 1.356 . S
C703 C702 1.363 . S
C703 C709 1.363 . S
C704 C705 1.363 . S
C704 C709 1.379 . S
C704 N711 1.356 . S
C705 C704 1.363 . S
C705 C708 1.363 . S
N706 C708 1.356 . S
N706 H718 0.984 . S
N706 H719 0.985 . S
N707 C709 1.356 . S
N707 H712 0.984 . S
N707 H713 0.985 . S
C708 C702 1.379 . S
C708 C705 1.363 . S
C708 N706 1.356 . S
C709 C703 1.363 . S
C709 C704 1.379 . S
C709 N707 1.356 . S
N710 C702 1.356 . S
N710 H716 0.984 . S
N710 H717 0.984 . S
N711 C704 1.356 . S
N711 H714 0.984 . S
N711 H715 0.985 . S
H712 N707 0.984 . S
H713 N707 0.985 . S
H714 N711 0.984 . S
H715 N711 0.985 . S
H716 N710 0.984 . S
H717 N710 0.984 . S
H718 N706 0.984 . S
H719 N706 0.985 . S
C720 C721 1.363 . S
C720 C726 1.379 . S
C720 N728 1.356 . S
C721 C720 1.363 . S
C721 C727 1.363 . S
C722 C723 1.363 . S
C722 C727 1.379 . S
C722 N729 1.356 . S
C723 C722 1.363 . S
C723 C726 1.363 . S
N724 C726 1.356 . S
N724 H736 0.984 . S
N724 H737 0.985 . S
N725 C727 1.356 . S
N725 H730 0.984 . S
N725 H731 0.985 . S
C726 C720 1.379 . S
C726 C723 1.363 . S
C726 N724 1.356 . S
C727 C721 1.363 . S
C727 C722 1.379 . S
C727 N725 1.356 . S
N728 C720 1.356 . S
N728 H734 0.984 . S
N728 H735 0.984 . S
N729 C722 1.356 . S
N729 H732 0.984 . S
N729 H733 0.985 . S
H730 N725 0.984 . S
H731 N725 0.985 . S
H732 N729 0.984 . S
H733 N729 0.985 . S
H734 N728 0.984 . S
H735 N728 0.984 . S
H736 N724 0.984 . S
H737 N724 0.985 . S
C738 C739 1.363 . S
C738 C744 1.379 1_455 S
C738 N746 1.356 . S
C739 C738 1.363 . S
C739 C745 1.363 . S
C740 C741 1.363 . S
C740 C745 1.379 1_655 S
C740 N747 1.356 . S
C741 C740 1.363 . S
C741 C744 1.363 . S
N742 C744 1.356 . S
N742 H754 0.984 . S
N742 H755 0.985 . S
N743 C745 1.356 . S
N743 H748 0.984 . S
N743 H749 0.985 . S
C744 C738 1.379 1_655 S
C744 C741 1.363 . S
C744 N742 1.356 . S
C745 C739 1.363 . S
C745 C740 1.379 1_455 S
C745 N743 1.356 . S
N746 C738 1.356 . S
N746 H752 0.984 . S
N746 H753 0.984 . S
N747 C740 1.356 . S
N747 H750 0.984 . S
N747 H751 0.985 . S
H748 N743 0.984 . S
H749 N743 0.985 . S
H750 N747 0.984 . S
H751 N747 0.985 . S
H752 N746 0.984 . S
H753 N746 0.984 . S
H754 N742 0.984 . S
H755 N742 0.985 . S
C756 C757 1.363 . S
C756 C762 1.379 1_565 S
C756 N764 1.356 . S
C757 C756 1.363 . S
C757 C763 1.363 . S
C758 C759 1.363 . S
C758 C763 1.379 1_545 S
C758 N765 1.356 . S
C759 C758 1.363 . S
C759 C762 1.363 . S
N760 C762 1.356 . S
N760 H772 0.984 . S
N760 H773 0.985 . S
N761 C763 1.356 . S
N761 H766 0.984 . S
N761 H767 0.985 . S
C762 C756 1.379 1_545 S
C762 C759 1.363 . S
C762 N760 1.356 . S
C763 C757 1.363 . S
C763 C758 1.379 1_565 S
C763 N761 1.356 . S
N764 C756 1.356 . S
N764 H770 0.984 . S
N764 H771 0.984 . S
N765 C758 1.356 . S
N765 H768 0.984 . S
N765 H769 0.985 . S
H766 N761 0.984 . S
H767 N761 0.985 . S
H768 N765 0.984 . S
H769 N765 0.985 . S
H770 N764 0.984 . S
H771 N764 0.984 . S
H772 N760 0.984 . S
H773 N760 0.985 . S
C774 C775 1.363 . S
C774 C780 1.379 . S
C774 N782 1.356 . S
C775 C774 1.363 . S
C775 C781 1.363 . S
C776 C777 1.363 . S
C776 C781 1.379 . S
C776 N783 1.356 . S
C777 C776 1.363 . S
C777 C780 1.363 . S
N778 C780 1.356 . S
N778 H790 0.984 . S
N778 H791 0.985 . S
N779 C781 1.356 . S
N779 H784 0.984 . S
N779 H785 0.985 . S
C780 C774 1.379 . S
C780 C777 1.363 . S
C780 N778 1.356 . S
C781 C775 1.363 . S
C781 C776 1.379 . S
C781 N779 1.356 . S
N782 C774 1.356 . S
N782 H788 0.984 . S
N782 H789 0.984 . S
N783 C776 1.356 . S
N783 H786 0.984 . S
N783 H787 0.985 . S
H784 N779 0.984 . S
H785 N779 0.985 . S
H786 N783 0.984 . S
H787 N783 0.985 . S
H788 N782 0.984 . S
H789 N782 0.984 . S
H790 N778 0.984 . S
H791 N778 0.985 . S
C792 C793 1.363 1_655 S
C792 C798 1.379 . S
C792 N800 1.356 . S
C793 C792 1.363 1_455 S
C793 C799 1.363 . S
C794 C795 1.363 1_455 S
C794 C799 1.379 . S
C794 N801 1.356 . S
C795 C794 1.363 1_655 S
C795 C798 1.363 . S
N796 C798 1.356 . S
N796 H808 0.984 . S
N796 H809 0.985 . S
N797 C799 1.356 . S
N797 H802 0.984 . S
N797 H803 0.985 . S
C798 C792 1.379 . S
C798 C795 1.363 . S
C798 N796 1.356 . S
C799 C793 1.363 . S
C799 C794 1.379 . S
C799 N797 1.356 . S
N800 C792 1.356 . S
N800 H806 0.984 . S
N800 H807 0.984 . S
N801 C794 1.356 . S
N801 H804 0.984 . S
N801 H805 0.985 . S
H802 N797 0.984 . S
H803 N797 0.985 . S
H804 N801 0.984 . S
H805 N801 0.985 . S
H806 N800 0.984 . S
H807 N800 0.984 . S
H808 N796 0.984 . S
H809 N796 0.985 . S
C810 C811 1.363 1_545 S
C810 C816 1.379 1_554 S
C810 N818 1.356 . S
C811 C810 1.363 1_565 S
C811 C817 1.363 . S
C812 C813 1.363 1_565 S
C812 C817 1.379 1_556 S
C812 N819 1.356 . S
C813 C812 1.363 1_545 S
C813 C816 1.363 . S
N814 C816 1.356 . S
N814 H826 0.984 1_556 S
N814 H827 0.985 . S
N815 C817 1.356 . S
N815 H820 0.984 . S
N815 H821 0.985 1_554 S
C816 C810 1.379 1_556 S
C816 C813 1.363 . S
C816 N814 1.356 . S
C817 C811 1.363 . S
C817 C812 1.379 1_554 S
C817 N815 1.356 . S
N818 C810 1.356 . S
N818 H824 0.984 . S
N818 H825 0.984 . S
N819 C812 1.356 . S
N819 H822 0.984 . S
N819 H823 0.985 . S
H820 N815 0.984 . S
H821 N815 0.985 1_556 S
H822 N819 0.984 . S
H823 N819 0.985 . S
H824 N818 0.984 . S
H825 N818 0.984 . S
H826 N814 0.984 1_554 S
H827 N814 0.985 . S
C828 C829 1.363 . S
C828 C834 1.379 . S
C828 N836 1.356 . S
C829 C828 1.363 . S
C829 C835 1.363 . S
C830 C831 1.363 . S
C830 C835 1.379 . S
C830 N837 1.356 . S
C831 C830 1.363 . S
C831 C834 1.363 . S
N832 C834 1.356 . S
N832 H844 0.984 . S
N832 H845 0.985 . S
N833 C835 1.356 . S
N833 H838 0.984 . S
N833 H839 0.985 . S
C834 C828 1.379 . S
C834 C831 1.363 . S
C834 N832 1.356 . S
C835 C829 1.363 . S
C835 C830 1.379 . S
C835 N833 1.356 . S
N836 C828 1.356 . S
N836 H842 0.984 . S
N836 H843 0.984 . S
N837 C830 1.356 . S
N837 H840 0.984 . S
N837 H841 0.985 . S
H838 N833 0.984 . S
H839 N833 0.985 . S
H840 N837 0.984 . S
H841 N837 0.985 . S
H842 N836 0.984 . S
H843 N836 0.984 . S
H844 N832 0.984 . S
H845 N832 0.985 . S
C846 C847 1.363 . S
C846 C852 1.379 . S
C846 N854 1.356 . S
C847 C846 1.363 . S
C847 C853 1.363 . S
C848 C849 1.363 . S
C848 C853 1.379 . S
C848 N855 1.356 . S
C849 C848 1.363 . S
C849 C852 1.363 . S
N850 C852 1.356 . S
N850 H862 0.984 . S
N850 H863 0.985 . S
N851 C853 1.356 . S
N851 H856 0.984 . S
N851 H857 0.985 . S
C852 C846 1.379 . S
C852 C849 1.363 . S
C852 N850 1.356 . S
C853 C847 1.363 . S
C853 C848 1.379 . S
C853 N851 1.356 . S
N854 C846 1.356 . S
N854 H860 0.984 . S
N854 H861 0.984 . S
N855 C848 1.356 . S
N855 H858 0.984 . S
N855 H859 0.985 . S
H856 N851 0.984 . S
H857 N851 0.985 . S
H858 N855 0.984 . S
H859 N855 0.985 . S
H860 N854 0.984 . S
H861 N854 0.984 . S
H862 N850 0.984 . S
H863 N850 0.985 . S
C864 C865 1.363 . S
C864 C870 1.379 . S
C864 N872 1.356 . S
C865 C864 1.363 . S
C865 C871 1.363 . S
C866 C867 1.363 . S
C866 C871 1.379 . S
C866 N873 1.356 . S
C867 C866 1.363 . S
C867 C870 1.363 . S
N868 C870 1.356 . S
N868 H880 0.984 . S
N868 H881 0.985 . S
N869 C871 1.356 . S
N869 H874 0.984 . S
N869 H875 0.985 . S
C870 C864 1.379 . S
C870 C867 1.363 . S
C870 N868 1.356 . S
C871 C865 1.363 . S
C871 C866 1.379 . S
C871 N869 1.356 . S
N872 C864 1.356 . S
N872 H878 0.984 . S
N872 H879 0.984 . S
N873 C866 1.356 . S
N873 H876 0.984 . S
N873 H877 0.985 . S
H874 N869 0.984 . S
H875 N869 0.985 . S
H876 N873 0.984 . S
H877 N873 0.985 . S
H878 N872 0.984 . S
H879 N872 0.984 . S
H880 N868 0.984 . S
H881 N868 0.985 . S
C882 C883 1.363 . S
C882 C888 1.379 . S
C882 N890 1.356 . S
C883 C882 1.363 . S
C883 C889 1.363 . S
C884 C885 1.363 . S
C884 C889 1.379 . S
C884 N891 1.356 . S
C885 C884 1.363 . S
C885 C888 1.363 . S
N886 C888 1.356 . S
N886 H898 0.984 . S
N886 H899 0.985 . S
N887 C889 1.356 . S
N887 H892 0.984 . S
N887 H893 0.985 . S
C888 C882 1.379 . S
C888 C885 1.363 . S
C888 N886 1.356 . S
C889 C883 1.363 . S
C889 C884 1.379 . S
C889 N887 1.356 . S
N890 C882 1.356 . S
N890 H896 0.984 . S
N890 H897 0.984 . S
N891 C884 1.356 . S
N891 H894 0.984 . S
N891 H895 0.985 . S
H892 N887 0.984 . S
H893 N887 0.985 . S
H894 N891 0.984 . S
H895 N891 0.985 . S
H896 N890 0.984 . S
H897 N890 0.984 . S
H898 N886 0.984 . S
H899 N886 0.985 . S
C900 C901 1.363 . S
C900 C906 1.379 . S
C900 N908 1.356 . S
C901 C900 1.363 . S
C901 C907 1.363 . S
C902 C903 1.363 . S
C902 C907 1.379 . S
C902 N909 1.356 . S
C903 C902 1.363 . S
C903 C906 1.363 . S
N904 C906 1.356 . S
N904 H916 0.984 . S
N904 H917 0.985 . S
N905 C907 1.356 . S
N905 H910 0.984 . S
N905 H911 0.985 . S
C906 C900 1.379 . S
C906 C903 1.363 . S
C906 N904 1.356 . S
C907 C901 1.363 . S
C907 C902 1.379 . S
C907 N905 1.356 . S
N908 C900 1.356 . S
N908 H914 0.984 . S
N908 H915 0.984 . S
N909 C902 1.356 . S
N909 H912 0.984 . S
N909 H913 0.985 . S
H910 N905 0.984 . S
H911 N905 0.985 . S
H912 N909 0.984 . S
H913 N909 0.985 . S
H914 N908 0.984 . S
H915 N908 0.984 . S
H916 N904 0.984 . S
H917 N904 0.985 . S
C918 C919 1.363 . S
C918 C924 1.379 . S
C918 N926 1.356 . S
C919 C918 1.363 . S
C919 C925 1.363 . S
C920 C921 1.363 . S
C920 C925 1.379 . S
C920 N927 1.356 . S
C921 C920 1.363 . S
C921 C924 1.363 . S
N922 C924 1.356 . S
N922 H934 0.984 . S
N922 H935 0.985 . S
N923 C925 1.356 . S
N923 H928 0.984 . S
N923 H929 0.985 . S
C924 C918 1.379 . S
C924 C921 1.363 . S
C924 N922 1.356 . S
C925 C919 1.363 . S
C925 C920 1.379 . S
C925 N923 1.356 . S
N926 C918 1.356 . S
N926 H932 0.984 . S
N926 H933 0.984 . S
N927 C920 1.356 . S
N927 H930 0.984 . S
N927 H931 0.985 . S
H928 N923 0.984 . S
H929 N923 0.985 . S
H930 N927 0.984 . S
H931 N927 0.985 . S
H932 N926 0.984 . S
H933 N926 0.984 . S
H934 N922 0.984 . S
H935 N922 0.985 . S
C397 C172 1.575 . S
C399 N13 1.690 . S
C415 C7 1.574 . S
C417 N46 1.689 1_455 S
C433 C40 1.574 . S
C435 N79 1.690 1_545 S
C451 N112 1.689 . S
C453 C73 1.574 . S
C469 N145 1.690 1_655 S
C471 C106 1.575 . S
C487 C139 1.574 . S
C489 N178 1.689 1_565 S
C505 C238 1.575 . S
C507 N211 1.690 . S
C523 C271 1.574 . S
C525 N244 1.690 1_455 S
C541 C304 1.574 . S
C543 N277 1.689 1_545 S
C559 C337 1.574 . S
C561 N310 1.689 . S
C577 C370 1.574 . S
C579 N343 1.690 1_655 S
C595 C205 1.574 . S
C597 N376 1.690 1_565 S
C613 N266 1.278 . S
C615 N2 1.278 . S
C631 N35 1.278 . S
C633 N299 1.278 . S
C649 N68 1.278 . S
C651 N332 1.278 . S
C667 N101 1.278 . S
C669 N365 1.278 . S
C685 N134 1.278 . S
C687 N200 1.278 . S
C703 N233 1.278 . S
C705 N167 1.278 . S
C721 C318 1.238 . S
C723 C21 1.238 . S
C739 C351 1.238 . S
C741 C54 1.238 . S
C757 C87 1.238 . S
C759 C384 1.238 . S
C775 C120 1.238 . S
C777 C219 1.238 . S
C793 C153 1.238 . S
C795 C252 1.238 . S
C811 C285 1.238 . S
C813 C186 1.238 . S
C829 C18 1.337 . S
C831 C216 1.337 . S
C847 C249 1.337 . S
C849 C51 1.337 . S
C865 C84 1.337 . S
C867 C282 1.337 . S
C883 C315 1.337 . S
C885 C117 1.337 . S
C901 C348 1.337 . S
C903 C150 1.337 . S
C919 C381 1.337 . S
C921 C183 1.337 . S
