# Generated by pormake.
# Topology und, (4)-cn, num edge types: 1
# Building blocks:
#     Node 0, Type 0, BuildingBlock: NAHDIM_clean_sbu_0, # of connection points: 4
#     Node 1, Type 0, BuildingBlock: NAHDIM_clean_sbu_0, # of connection points: 4
#     Node 2, Type 0, BuildingBlock: NAHDIM_clean_sbu_0, # of connection points: 4
#     Node 3, Type 0, BuildingBlock: NAHDIM_clean_sbu_0, # of connection points: 4
#     Node 4, Type 0, BuildingBlock: NAHDIM_clean_sbu_0, # of connection points: 4
#     Node 5, Type 0, BuildingBlock: NAHDIM_clean_sbu_0, # of connection points: 4
#     Node 6, Type 0, BuildingBlock: NAHDIM_clean_sbu_0, # of connection points: 4
#     Node 7, Type 0, BuildingBlock: NAHDIM_clean_sbu_0, # of connection points: 4
#     Node 8, Type 0, BuildingBlock: NAHDIM_clean_sbu_0, # of connection points: 4
#     Node 9, Type 0, BuildingBlock: NAHDIM_clean_sbu_0, # of connection points: 4
#     Node 10, Type 0, BuildingBlock: NAHDIM_clean_sbu_0, # of connection points: 4
#     Node 11, Type 0, BuildingBlock: NAHDIM_clean_sbu_0, # of connection points: 4
#     Node 12, Type 0, BuildingBlock: NAHDIM_clean_sbu_0, # of connection points: 4
#     Node 13, Type 0, BuildingBlock: NAHDIM_clean_sbu_0, # of connection points: 4
#     Node 14, Type 0, BuildingBlock: NAHDIM_clean_sbu_0, # of connection points: 4
#     Node 15, Type 0, BuildingBlock: NAHDIM_clean_sbu_0, # of connection points: 4
#     Edge 16, Type (0, 0), BuildingBlock: CIFDUS_clean_linker_0, # of connection points: 2
#     Edge 17, Type (0, 0), BuildingBlock: CIFDUS_clean_linker_0, # of connection points: 2
#     Edge 18, Type (0, 0), BuildingBlock: CIFDUS_clean_linker_0, # of connection points: 2
#     Edge 19, Type (0, 0), BuildingBlock: CIFDUS_clean_linker_0, # of connection points: 2
#     Edge 20, Type (0, 0), BuildingBlock: CIFDUS_clean_linker_0, # of connection points: 2
#     Edge 21, Type (0, 0), BuildingBlock: CIFDUS_clean_linker_0, # of connection points: 2
#     Edge 22, Type (0, 0), BuildingBlock: CIFDUS_clean_linker_0, # of connection points: 2
#     Edge 23, Type (0, 0), BuildingBlock: CIFDUS_clean_linker_0, # of connection points: 2
#     Edge 24, Type (0, 0), BuildingBlock: CIFDUS_clean_linker_0, # of connection points: 2
#     Edge 25, Type (0, 0), BuildingBlock: CIFDUS_clean_linker_0, # of connection points: 2
#     Edge 26, Type (0, 0), BuildingBlock: CIFDUS_clean_linker_0, # of connection points: 2
#     Edge 27, Type (0, 0), BuildingBlock: CIFDUS_clean_linker_0, # of connection points: 2
#     Edge 28, Type (0, 0), BuildingBlock: CIFDUS_clean_linker_0, # of connection points: 2
#     Edge 29, Type (0, 0), BuildingBlock: CIFDUS_clean_linker_0, # of connection points: 2
#     Edge 30, Type (0, 0), BuildingBlock: CIFDUS_clean_linker_0, # of connection points: 2
#     Edge 31, Type (0, 0), BuildingBlock: CIFDUS_clean_linker_0, # of connection points: 2
#     Edge 32, Type (0, 0), BuildingBlock: CIFDUS_clean_linker_0, # of connection points: 2
#     Edge 33, Type (0, 0), BuildingBlock: CIFDUS_clean_linker_0, # of connection points: 2
#     Edge 34, Type (0, 0), BuildingBlock: CIFDUS_clean_linker_0, # of connection points: 2
#     Edge 35, Type (0, 0), BuildingBlock: CIFDUS_clean_linker_0, # of connection points: 2
#     Edge 36, Type (0, 0), BuildingBlock: CIFDUS_clean_linker_0, # of connection points: 2
#     Edge 37, Type (0, 0), BuildingBlock: CIFDUS_clean_linker_0, # of connection points: 2
#     Edge 38, Type (0, 0), BuildingBlock: CIFDUS_clean_linker_0, # of connection points: 2
#     Edge 39, Type (0, 0), BuildingBlock: CIFDUS_clean_linker_0, # of connection points: 2
#     Edge 40, Type (0, 0), BuildingBlock: CIFDUS_clean_linker_0, # of connection points: 2
#     Edge 41, Type (0, 0), BuildingBlock: CIFDUS_clean_linker_0, # of connection points: 2
#     Edge 42, Type (0, 0), BuildingBlock: CIFDUS_clean_linker_0, # of connection points: 2
#     Edge 43, Type (0, 0), BuildingBlock: CIFDUS_clean_linker_0, # of connection points: 2
#     Edge 44, Type (0, 0), BuildingBlock: CIFDUS_clean_linker_0, # of connection points: 2
#     Edge 45, Type (0, 0), BuildingBlock: CIFDUS_clean_linker_0, # of connection points: 2
#     Edge 46, Type (0, 0), BuildingBlock: CIFDUS_clean_linker_0, # of connection points: 2
#     Edge 47, Type (0, 0), BuildingBlock: CIFDUS_clean_linker_0, # of connection points: 2
# Relax obj value: 0.114
# Max RMSD: 0.175
# Mean RMSD: 0.175
data_MOF--net-und--node1-NAHDIM_clean_sbu_0--edge1-CIFDUS_clean_linker_0
_symmetry_space_group_name_H-M    P1
_symmetry_Int_Tables_number       1
_symmetry_cell_setting            triclinic
loop_
_symmetry_equiv_pos_as_xyz
'x, y, z'
_cell_length_a     53.03281
_cell_length_b     53.123147
_cell_length_c     18.982082
_cell_angle_alpha  90.158491
_cell_angle_beta   90.184158
_cell_angle_gamma 97.202475
loop_
_atom_site_label
_atom_site_type_symbol
_atom_site_fract_x
_atom_site_fract_y
_atom_site_fract_z
_atom_type_partial_charge
C0 C 0.18816 0.37346 0.14376 0.0
O1 O 0.20855 0.37162 0.18195 0.0
O2 O 0.21955 0.3197 0.14992 0.0
Zn3 Zn 0.21354 0.34028 0.06438 0.0
O4 O 0.24418 0.36459 0.03649 0.0
C5 C 0.2165 0.29572 0.98369 0.0
O6 O 0.22958 0.29066 0.03961 0.0
O7 O 0.18513 0.3609 0.08654 0.0
C8 C 0.26414 0.35707 0.01128 0.0
O9 O 0.26592 0.33267 0.0087 0.0
C10 C 0.23934 0.32149 0.18829 0.0
O11 O 0.2583 0.33922 0.1752 0.0
O12 O 0.20591 0.31595 0.98259 0.0
C13 C 0.87986 0.06814 0.15598 0.0
O14 O 0.882 0.04793 0.11745 0.0
O15 O 0.93838 0.04324 0.14941 0.0
Zn16 Zn 0.91392 0.0432 0.22978 0.0
O17 O 0.89033 0.0105 0.23711 0.0
C18 C 0.94817 0.02867 0.32709 0.0
O19 O 0.94703 0.01074 0.27899 0.0
O20 O 0.89264 0.07133 0.21282 0.0
C21 C 0.87967 0.00628 0.29656 0.0
O22 O 0.8846 0.02308 0.34727 0.0
C23 C 0.94328 0.02359 0.11661 0.0
O24 O 0.93102 0.00136 0.13304 0.0
O25 O 0.93487 0.04679 0.31866 0.0
C26 C 0.29697 0.63296 0.59665 0.0
O27 O 0.27721 0.6376 0.6339 0.0
O28 O 0.27612 0.69129 0.60329 0.0
Zn29 Zn 0.27568 0.66846 0.51851 0.0
O30 O 0.2421 0.64691 0.50123 0.0
C31 C 0.27679 0.71229 0.43257 0.0
O32 O 0.26736 0.72061 0.49075 0.0
O33 O 0.30133 0.64455 0.53855 0.0
C34 C 0.22424 0.65456 0.46539 0.0
O35 O 0.22641 0.67829 0.44466 0.0
C36 C 0.25722 0.69901 0.63364 0.0
O37 O 0.23413 0.69113 0.61107 0.0
O38 O 0.28352 0.69011 0.43169 0.0
C39 C 0.60011 0.9669 0.69852 0.0
O40 O 0.59152 0.97896 0.645 0.0
O41 O 0.55012 0.00471 0.6926 0.0
Zn42 Zn 0.57378 0.00219 0.77449 0.0
O43 O 0.5975 0.03425 0.79029 0.0
C44 C 0.52854 0.99063 0.85799 0.0
O45 O 0.51897 0.98047 0.79903 0.0
O46 O 0.59441 0.97306 0.76077 0.0
C47 C 0.58877 0.05522 0.79957 0.0
O48 O 0.56429 0.05618 0.79178 0.0
C49 C 0.5533 0.01983 0.64086 0.0
O50 O 0.57432 0.03571 0.63654 0.0
O51 O 0.55206 -0.00109 0.86102 0.0
C52 C 0.79919 0.67341 0.92813 0.0
O53 O 0.79869 0.69435 0.89177 0.0
O54 O 0.75086 0.71173 0.91449 0.0
Zn55 Zn 0.75494 0.6892 -0.00267 0.0
O56 O 0.72343 0.66471 0.01424 0.0
C57 C 0.77201 0.73346 0.08339 0.0
O58 O 0.78329 0.74233 0.02545 0.0
O59 O 0.78334 0.66834 0.97779 0.0
C60 C 0.70635 0.66988 0.0569 0.0
O61 O 0.70834 0.69247 0.08623 0.0
C62 C 0.73646 0.72911 0.91566 0.0
O63 O 0.72232 0.73158 0.97134 0.0
O64 O 0.76073 0.71092 0.08403 0.0
C65 C 0.11117 0.95977 0.80201 0.0
O66 O 0.10611 0.97582 0.85124 0.0
O67 O 0.0599 0.99268 0.81148 0.0
Zn68 Zn 0.08249 0.99168 0.72698 0.0
O69 O 0.10805 0.02308 0.71739 0.0
C70 C 0.04044 -0.0002 0.64086 0.0
O71 O 0.03552 0.01241 0.69769 0.0
O72 O 0.1025 0.96221 0.74015 0.0
C73 C 0.10421 0.0422 0.68049 0.0
O74 O 0.08196 0.04277 0.65052 0.0
C75 C 0.05572 0.01246 0.84488 0.0
O76 O 0.06739 0.03466 0.82577 0.0
O77 O 0.05998 0.98811 0.64012 0.0
C78 C 0.6911 0.38689 0.42555 0.0
O79 O 0.71146 0.38362 0.38906 0.0
O80 O 0.71979 0.33193 0.43253 0.0
Zn81 Zn 0.71597 0.35597 0.51272 0.0
O82 O 0.74731 0.38084 0.53184 0.0
C83 C 0.71785 0.31444 0.60487 0.0
O84 O 0.73093 0.30737 0.55132 0.0
O85 O 0.68794 0.37629 0.48543 0.0
C86 C 0.76585 0.37559 0.56941 0.0
O87 O 0.766 0.35233 0.5924 0.0
C88 C 0.74005 0.32872 0.4002 0.0
O89 O 0.76141 0.3428 0.41681 0.0
O90 O 0.70815 0.33513 0.60077 0.0
C91 C 0.39863 0.07276 0.34515 0.0
O92 O 0.41929 0.06911 0.38 0.0
O93 O 0.43346 0.0214 0.34354 0.0
Zn94 Zn 0.40924 0.02828 0.26682 0.0
O95 O 0.3826 -0.00133 0.24835 0.0
C96 C 0.45337 0.04132 0.18123 0.0
O97 O 0.46312 0.05088 0.24069 0.0
O98 O 0.39162 0.05849 0.29289 0.0
C99 C 0.38853 0.9788 0.21844 0.0
O100 O 0.41258 0.97702 0.2056 0.0
C101 C 0.43039 0.00541 0.39325 0.0
O102 O 0.40877 0.99052 0.39875 0.0
O103 O 0.42989 0.03287 0.17857 0.0
C104 C 0.70366 0.88077 0.56829 0.0
O105 O 0.71856 0.87636 0.62107 0.0
O106 O 0.74576 0.83671 0.58214 0.0
Zn107 Zn 0.74156 0.85781 0.49636 0.0
O108 O 0.7709 0.88552 0.48552 0.0
C109 C 0.73047 0.81179 0.41352 0.0
O110 O 0.71734 0.80353 0.46922 0.0
O111 O 0.70931 0.87403 0.50652 0.0
C112 C 0.77751 0.89259 0.42358 0.0
O113 O 0.76526 0.88144 0.36944 0.0
C114 C 0.76194 0.82102 0.5849 0.0
O115 O 0.77758 0.81965 0.53187 0.0
O116 O 0.74107 0.83459 0.41235 0.0
C117 C 0.36572 0.52507 0.78072 0.0
O118 O 0.35909 0.51205 0.83792 0.0
O119 O 0.41904 0.47929 0.676 0.0
Zn120 Zn 0.39961 0.48704 0.76205 0.0
O121 O 0.37294 0.45892 0.79064 0.0
C122 C 0.43328 0.51315 0.86965 0.0
O123 O 0.42458 0.53403 0.849 0.0
O124 O 0.38306 0.51821 0.74183 0.0
C125 C 0.37835 0.43699 0.80625 0.0
O126 O 0.40173 0.4318 0.79758 0.0
C127 C 0.43557 0.49768 0.65892 0.0
O128 O 0.43741 0.51861 0.69664 0.0
O129 O 0.42489 0.49215 0.84094 0.0
C130 C 0.7878 0.1738 0.09234 0.0
O131 O 0.78492 0.19395 0.13029 0.0
O132 O 0.73577 0.20668 0.10829 0.0
Zn133 Zn 0.74051 0.18382 0.02627 0.0
O134 O 0.71144 0.15605 0.01012 0.0
C135 C 0.73303 0.22486 0.93451 0.0
O136 O 0.71978 0.23123 0.98858 0.0
O137 O 0.77176 0.16677 0.04399 0.0
C138 C 0.69149 0.15935 0.97577 0.0
O139 O 0.68819 0.18232 0.9555 0.0
C140 C 0.71553 0.20948 0.14124 0.0
O141 O 0.69419 0.19547 0.12406 0.0
O142 O 0.74443 0.20522 0.93861 0.0
C143 C 0.11361 0.48259 0.29732 0.0
O144 O 0.12069 0.49846 0.34898 0.0
O145 O 0.0626 0.52358 0.16843 0.0
Zn146 Zn 0.0817 0.52072 0.25952 0.0
O147 O 0.11043 0.54865 0.27339 0.0
C148 C 0.03665 0.51246 0.35216 0.0
O149 O 0.02571 0.49773 0.30222 0.0
O150 O 0.09646 0.48777 0.25487 0.0
C151 C 0.10695 0.57184 0.27731 0.0
O152 O 0.08429 0.57828 0.2641 0.0
C153 C 0.04212 0.53349 0.16204 0.0
O154 O 0.03313 0.54468 0.21662 0.0
O155 O 0.05939 0.52272 0.34426 0.0
C156 C 0.28636 0.15029 0.46352 0.0
O157 O 0.26448 0.15125 0.43154 0.0
O158 O 0.25328 0.20319 0.48153 0.0
Zn159 Zn 0.25991 0.17772 0.55493 0.0
O160 O 0.23009 0.15093 0.56778 0.0
C161 C 0.24463 0.20739 0.66075 0.0
O162 O 0.22563 0.20512 0.61562 0.0
O163 O 0.29003 0.16101 0.52334 0.0
C164 C 0.23289 0.13386 0.61287 0.0
O165 O 0.25497 0.13417 0.64473 0.0
C166 C 0.23273 0.20287 0.44691 0.0
O167 O 0.21416 0.18447 0.45735 0.0
O168 O 0.26413 0.19654 0.64695 0.0
C169 C 0.61286 0.48582 0.23357 0.0
O170 O 0.61871 0.49901 0.17616 0.0
O171 O 0.55617 0.52762 0.33863 0.0
Zn172 Zn 0.57651 0.52162 0.25294 0.0
O173 O 0.60151 0.55169 0.22762 0.0
C174 C 0.54366 0.49477 0.14417 0.0
O175 O 0.55231 0.47394 0.16537 0.0
O176 O 0.59505 0.49167 0.27246 0.0
C177 C 0.59814 0.57452 0.24016 0.0
O178 O 0.57793 0.57923 0.27525 0.0
C179 C 0.53993 0.50896 0.35548 0.0
O180 O 0.53846 0.48806 0.31772 0.0
O181 O 0.55183 0.51582 0.17295 0.0
C182 C 0.20936 0.87069 0.94931 0.0
O183 O 0.22354 0.86396 0.89763 0.0
O184 O 0.24309 0.82053 0.9403 0.0
Zn185 Zn 0.24378 0.84415 0.02372 0.0
O186 O 0.27558 0.86907 0.0344 0.0
C187 C 0.2509 0.8023 0.11213 0.0
O188 O 0.2609 0.79476 0.05379 0.0
O189 O 0.2142 0.86425 0.01197 0.0
C190 C 0.29689 0.86278 0.0539 0.0
O191 O 0.29953 0.83868 0.06094 0.0
C192 C 0.26152 0.81469 0.90382 0.0
O193 O 0.28473 0.82516 0.91805 0.0
O194 O 0.24102 0.82294 0.11208 0.0
C195 C 0.86676 0.55168 0.83267 0.0
O196 O 0.86603 0.53042 0.86832 0.0
O197 O 0.92004 0.52077 0.84328 0.0
Zn198 Zn 0.89803 0.52376 0.75767 0.0
O199 O 0.87192 0.49339 0.7432 0.0
C200 C 0.94062 0.53816 0.65965 0.0
O201 O 0.95177 0.55176 0.71153 0.0
O202 O 0.87978 0.55408 0.77639 0.0
C203 C 0.877 0.47067 0.74547 0.0
O204 O 0.89987 0.46622 0.76442 0.0
C205 C 0.94169 0.51293 0.84622 0.0
O206 O 0.95121 0.50369 0.78931 0.0
O207 O 0.91846 0.5265 0.66845 0.0
H208 H 0.20466 0.28126 0.22035 0.0
H209 H 0.27901 0.31818 0.27905 0.0
H210 H 0.28334 0.28473 0.36478 0.0
H211 H 0.26646 0.24457 0.42047 0.0
H212 H 0.19224 0.20759 0.36072 0.0
H213 H 0.18748 0.24165 0.27747 0.0
C214 C 0.22179 0.28213 0.2521 0.0
C215 C 0.24152 0.3022 0.2432 0.0
C216 C 0.22423 0.26278 0.30069 0.0
C217 C 0.26355 0.30296 0.28481 0.0
C218 C 0.26606 0.28381 0.33371 0.0
C219 C 0.24922 0.24391 0.38927 0.0
C220 C 0.22976 0.22349 0.39663 0.0
C221 C 0.2466 0.26354 0.3416 0.0
C222 C 0.20752 0.22304 0.356 0.0
C223 C 0.20478 0.24252 0.30843 0.0
H224 H 0.98267 -0.00399 0.34956 0.0
H225 H 0.94925 0.05744 0.44704 0.0
H226 H 0.97458 0.05336 0.55327 0.0
H227 H 0.00585 0.03225 0.6182 0.0
H228 H 0.04017 0.97159 0.51987 0.0
H229 H 0.01461 0.97542 0.41379 0.0
C230 C 0.9809 0.00854 0.39401 0.0
C231 C 0.96404 0.02696 0.39052 0.0
C232 C -0.00443 0.00615 0.45463 0.0
C233 C 0.96213 0.04314 0.44836 0.0
C234 C 0.97654 0.04077 0.50914 0.0
C235 C 0.00769 0.01975 0.57374 0.0
C236 C 0.02477 0.00154 0.57703 0.0
C237 C -0.00677 0.02229 0.51287 0.0
C238 C 0.02712 0.98572 0.51865 0.0
C239 C 0.01253 0.98792 0.45805 0.0
H240 H 0.2226 0.72647 0.69234 0.0
H241 H 0.30241 0.71747 0.69454 0.0
H242 H 0.31094 0.75307 0.77593 0.0
H243 H 0.29595 0.7871 0.84568 0.0
H244 H 0.21613 0.79586 0.84491 0.0
H245 H 0.20751 0.76022 0.76333 0.0
C246 C 0.24182 0.73216 0.71103 0.0
C247 C 0.26179 0.71931 0.68728 0.0
C248 C 0.24668 0.7528 0.75758 0.0
C249 C 0.28663 0.72703 0.71186 0.0
C250 C 0.29159 0.74746 0.75829 0.0
C251 C 0.27671 0.78134 0.82719 0.0
C252 C 0.25676 0.79416 0.85107 0.0
C253 C 0.2718 0.76061 0.78106 0.0
C254 C 0.23186 0.78628 0.82729 0.0
C255 C 0.22688 0.76587 0.78076 0.0
H256 H 0.44147 0.01051 0.06841 0.0
H257 H 0.50345 0.05944 0.16399 0.0
H258 H 0.53244 0.04707 0.07415 0.0
H259 H 0.54028 0.02192 0.9699 0.0
H260 H 0.47832 0.97291 0.87448 0.0
H261 H 0.44927 0.98548 0.96389 0.0
C262 C 0.46126 0.01872 0.06921 0.0
C263 C 0.47025 0.03598 0.12268 0.0
C264 C 0.47789 0.01121 0.01818 0.0
C265 C 0.49601 0.04619 0.1233 0.0
C266 C 0.51263 0.03902 0.07218 0.0
C267 C 0.52048 0.01376 0.96899 0.0
C268 C 0.51152 -0.00363 0.91578 0.0
C269 C 0.50382 0.02135 0.01986 0.0
C270 C 0.48573 0.98625 0.915 0.0
C271 C 0.46908 -0.00647 0.96588 0.0
H272 H 0.27373 0.75978 0.12926 0.0
H273 H 0.23387 0.81306 0.24329 0.0
H274 H 0.23963 0.79047 0.35287 0.0
H275 H 0.25568 0.75568 0.41573 0.0
H276 H 0.29496 0.70188 0.30206 0.0
H277 H 0.29 0.72495 0.19254 0.0
C278 C 0.26621 0.76644 0.178 0.0
C279 C 0.25332 0.78805 0.17803 0.0
C280 C 0.26967 0.75344 0.24078 0.0
C281 C 0.24379 0.79644 0.24172 0.0
C282 C 0.24715 0.78359 0.30443 0.0
C283 C 0.26336 0.74904 0.36717 0.0
C284 C 0.27573 0.7271 0.3671 0.0
C285 C 0.2601 0.76212 0.30451 0.0
C286 C 0.28541 0.71874 0.30357 0.0
C287 C 0.28249 0.73186 0.24094 0.0
H288 H 0.47667 0.03368 0.39375 0.0
H289 H 0.4309 0.97464 0.50875 0.0
H290 H 0.46519 0.97367 0.59473 0.0
H291 H 0.50775 0.99006 0.63791 0.0
H292 H 0.55327 0.0493 0.52297 0.0
H293 H 0.51931 0.04963 0.43589 0.0
C294 C 0.47413 0.02054 0.43752 0.0
C295 C 0.45118 0.00428 0.44486 0.0
C296 C 0.49384 0.02013 0.48668 0.0
C297 C 0.44833 0.98737 0.50186 0.0
C298 C 0.46792 0.98682 0.55105 0.0
C299 C 0.51032 0.00303 0.59374 0.0
C300 C 0.53304 0.01967 0.58705 0.0
C301 C 0.4907 0.00318 0.54407 0.0
C302 C 0.536 0.03631 0.52946 0.0
C303 C 0.51658 0.03652 0.47967 0.0
H304 H 0.20988 0.23901 0.69096 0.0
H305 H 0.27524 0.20884 0.77734 0.0
H306 H 0.27134 0.2327 0.88631 0.0
H307 H 0.24968 0.26232 0.95599 0.0
H308 H 0.1855 0.294 0.86779 0.0
H309 H 0.18851 0.26906 0.7602 0.0
C310 C 0.22327 0.23759 0.73365 0.0
C311 C 0.2428 0.22213 0.72619 0.0
C312 C 0.22104 0.25151 0.79568 0.0
C313 C 0.2601 0.22067 0.78174 0.0
C314 C 0.25782 0.23424 0.84407 0.0
C315 C 0.23618 0.26362 0.91351 0.0
C316 C 0.21726 0.27984 0.91997 0.0
C317 C 0.23837 0.24969 0.85153 0.0
C318 C 0.20018 0.28161 0.86406 0.0
C319 C 0.20193 0.26739 0.8026 0.0
H320 H 0.03453 0.05096 0.90683 0.0
H321 H 0.03123 0.96934 0.90289 0.0
H322 H -0.00424 0.96555 0.98509 0.0
H323 H 0.96523 0.98528 0.05675 0.0
H324 H 0.96848 0.06689 0.06101 0.0
H325 H 0.00425 0.07074 0.97962 0.0
C326 C 0.02619 0.03236 0.92439 0.0
C327 C 0.03552 0.0105 0.89872 0.0
C328 C 0.00561 0.03026 0.97122 0.0
C329 C 0.02439 0.98651 0.92173 0.0
C330 C 0.00405 0.98429 0.96862 0.0
C331 C 0.97366 0.0039 0.03959 0.0
C332 C 0.96415 0.02573 0.06476 0.0
C333 C -0.00563 0.00602 -0.00675 0.0
C334 C 0.97544 0.04974 0.04241 0.0
C335 C -0.00407 0.05199 -0.00403 0.0
H336 H 0.76927 0.73375 0.80557 0.0
H337 H 0.7063 0.76662 0.8963 0.0
H338 H 0.7092 0.79844 0.80306 0.0
H339 H 0.72954 0.81682 0.69603 0.0
H340 H 0.79264 0.78405 0.60567 0.0
H341 H 0.78987 0.75239 0.69925 0.0
C342 C 0.75607 0.74778 0.80484 0.0
C343 C 0.73751 0.74773 0.85769 0.0
C344 C 0.75799 0.76614 0.75152 0.0
C345 C 0.72072 0.76619 0.85619 0.0
C346 C 0.7224 0.78443 0.80299 0.0
C347 C 0.74279 0.80284 0.6969 0.0
C348 C 0.76128 0.80282 0.64387 0.0
C349 C 0.741 0.7846 0.75053 0.0
C350 C 0.77825 0.78453 0.64585 0.0
C351 C 0.77664 0.76637 0.69922 0.0
H352 H 0.69982 0.29424 0.36439 0.0
H353 H 0.77938 0.31604 0.32006 0.0
H354 H 0.7788 0.28062 0.23747 0.0
H355 H 0.7558 0.24365 0.17828 0.0
H356 H 0.6762 0.22185 0.22217 0.0
H357 H 0.67681 0.25714 0.30533 0.0
C358 C 0.71705 0.29134 0.33654 0.0
C359 C 0.73962 0.30784 0.34832 0.0
C360 C 0.71661 0.2709 0.28949 0.0
C361 C 0.76176 0.30369 0.31193 0.0
C362 C 0.76145 0.28341 0.26481 0.0
C363 C 0.73856 0.2465 0.20616 0.0
C364 C 0.71596 0.23008 0.19401 0.0
C365 C 0.739 0.26688 0.25337 0.0
C366 C 0.69384 0.23416 0.23055 0.0
C367 C 0.69417 0.25437 0.27798 0.0
H368 H 0.70818 0.26551 0.90745 0.0
H369 H 0.75763 0.21645 0.81212 0.0
H370 H 0.75645 0.23944 0.70132 0.0
H371 H 0.74158 0.27332 0.63196 0.0
H372 H 0.6925 0.32283 0.72667 0.0
H373 H 0.69316 0.29953 0.83751 0.0
C374 C 0.71877 0.25987 0.86253 0.0
C375 C 0.73301 0.23931 0.86813 0.0
C376 C 0.71795 0.27311 0.79891 0.0
C377 C 0.74656 0.23223 0.80933 0.0
C378 C 0.74585 0.24532 0.74589 0.0
C379 C 0.73089 0.279 0.67664 0.0
C380 C 0.71697 0.29977 0.67101 0.0
C381 C 0.73158 0.26574 0.74012 0.0
C382 C 0.70334 0.30688 0.72959 0.0
C383 C 0.70377 0.29362 0.793 0.0
H384 H 0.74177 0.72349 0.19773 0.0
H385 H 0.79433 0.78226 0.10271 0.0
H386 H 0.7857 0.81181 0.19588 0.0
H387 H 0.76244 0.82121 0.30233 0.0
H388 H 0.7096 0.76248 0.39645 0.0
H389 H 0.71897 0.73271 0.30479 0.0
C390 C 0.75156 0.74269 0.19763 0.0
C391 C 0.76873 0.75063 0.1433 0.0
C392 C 0.74622 0.75967 0.25065 0.0
C393 C 0.78107 0.77563 0.14391 0.0
C394 C 0.77606 0.79257 0.197 0.0
C395 C 0.75285 0.80194 0.30268 0.0
C396 C 0.73523 0.79414 0.35605 0.0
C397 C 0.75846 0.78487 0.25016 0.0
C398 C 0.72316 0.76903 0.35591 0.0
C399 C 0.72858 0.75196 0.30365 0.0
H400 H 0.52031 0.53409 0.09684 0.0
H401 H 0.52138 0.45345 0.07043 0.0
H402 H 0.48705 0.4521 0.98376 0.0
H403 H 0.45674 0.47375 0.91635 0.0
H404 H 0.45571 0.55439 0.94307 0.0
H405 H 0.49009 0.55572 0.02945 0.0
C406 C 0.51313 0.51619 0.07206 0.0
C407 C 0.52344 0.49389 0.09009 0.0
C408 C 0.49336 0.51553 0.02268 0.0
C409 C 0.51382 0.47089 0.0575 0.0
C410 C 0.49417 0.4701 0.00804 0.0
C411 C 0.46396 0.49164 0.94112 0.0
C412 C 0.45363 0.51395 0.92329 0.0
C413 C 0.48376 0.49229 0.99045 0.0
C414 C 0.46329 0.53694 0.95584 0.0
C415 C 0.48297 0.53773 0.00516 0.0
H416 H 0.98574 0.50208 0.37483 0.0
H417 H 0.05518 0.53802 0.46989 0.0
H418 H 0.0315 0.55036 0.57152 0.0
H419 H 0.99117 0.5505 0.63444 0.0
H420 H 0.92173 0.51448 0.53953 0.0
H421 H 0.94529 0.50294 0.43674 0.0
C422 C -0.00429 0.5125 0.41792 0.0
C423 C 0.0222 0.51897 0.4148 0.0
C424 C 0.98196 0.51974 0.47612 0.0
C425 C 0.03479 0.53271 0.47089 0.0
C426 C 0.02126 0.53985 0.52906 0.0
C427 C 0.98115 0.54036 0.59099 0.0
C428 C 0.95473 0.53339 0.59481 0.0
C429 C -0.00516 0.53349 0.53224 0.0
C430 C 0.94208 0.52009 0.5381 0.0
C431 C 0.95554 0.51338 0.4793 0.0
H432 H 0.99277 0.54051 0.14172 0.0
H433 H 0.05772 0.51722 0.03463 0.0
H434 H 0.03224 0.50803 0.92811 0.0
H435 H 0.99138 0.50623 0.86561 0.0
H436 H 0.9264 0.52911 0.97379 0.0
H437 H 0.95199 0.53854 0.07966 0.0
C438 C 0.00143 0.53364 0.09492 0.0
C439 C 0.02714 0.52967 0.09612 0.0
C440 C 0.98659 0.52804 0.03416 0.0
C441 C 0.03797 0.52048 0.03516 0.0
C442 C 0.0234 0.51514 0.97424 0.0
C443 C 0.98276 0.51311 0.91248 0.0
C444 C 0.95698 0.5169 0.91163 0.0
C445 C -0.00237 0.51868 0.97327 0.0
C446 C 0.94619 0.52598 0.97283 0.0
C447 C 0.96082 0.53147 0.03345 0.0
H448 H 0.47301 0.53338 0.61443 0.0
H449 H 0.43732 0.45742 0.5694 0.0
H450 H 0.46672 0.45425 0.47177 0.0
H451 H 0.50248 0.47304 0.39972 0.0
H452 H 0.53804 0.54902 0.44512 0.0
H453 H 0.50866 0.55212 0.54262 0.0
C454 C 0.47159 0.51611 0.58328 0.0
C455 C 0.45298 0.49567 0.59915 0.0
C456 C 0.48854 0.5144 0.52751 0.0
C457 C 0.45146 0.47344 0.55825 0.0
C458 C 0.46827 0.47161 0.50249 0.0
C459 C 0.50386 0.49028 0.43097 0.0
C460 C 0.52245 0.51077 0.41519 0.0
C461 C 0.48689 0.49196 0.48676 0.0
C462 C 0.52393 0.53297 0.45616 0.0
C463 C 0.50713 0.53477 0.51187 0.0
H464 H 0.10737 0.44976 0.18636 0.0
H465 H 0.15149 0.46626 0.3763 0.0
H466 H 0.17749 0.43295 0.34703 0.0
H467 H 0.18942 0.40115 0.26418 0.0
H468 H 0.14606 0.38512 0.07285 0.0
H469 H 0.11795 0.41625 0.10631 0.0
C470 C 0.12251 0.44592 0.22179 0.0
C471 C 0.12756 0.46064 0.28326 0.0
C472 C 0.13763 0.42696 0.20417 0.0
C473 C 0.14723 0.45533 0.32853 0.0
C474 C 0.16216 0.43631 0.31175 0.0
C475 C 0.17375 0.40432 0.22985 0.0
C476 C 0.16999 0.39096 0.16578 0.0
C477 C 0.15782 0.42235 0.24912 0.0
C478 C 0.14946 0.39521 0.1223 0.0
C479 C 0.13339 0.41303 0.14138 0.0
H480 H 0.79948 0.90801 0.29943 0.0
H481 H 0.8015 0.92478 0.52224 0.0
H482 H 0.8337 0.96111 0.50238 0.0
H483 H 0.86017 0.98884 0.42152 0.0
H484 H 0.85866 0.97183 0.19891 0.0
H485 H 0.82735 0.93473 0.21908 0.0
C486 C 0.80699 0.91957 0.34373 0.0
C487 C 0.79796 0.91379 0.41217 0.0
C488 C 0.82553 0.94038 0.33197 0.0
C489 C 0.80809 0.92882 0.46902 0.0
C490 C 0.82646 0.94963 0.4577 0.0
C491 C 0.85303 0.97701 0.37735 0.0
C492 C 0.86159 0.9832 0.30874 0.0
C493 C 0.83513 0.95571 0.38935 0.0
C494 C 0.85235 0.96751 0.25223 0.0
C495 C 0.83442 0.94632 0.26371 0.0
H496 H 0.29301 0.60767 0.72055 0.0
H497 H 0.33777 0.61641 0.53058 0.0
H498 H 0.36377 0.58455 0.57252 0.0
H499 H 0.37275 0.55328 0.66129 0.0
H500 H 0.32747 0.54442 0.85042 0.0
H501 H 0.30278 0.5775 0.81059 0.0
C502 C 0.30848 0.60268 0.68823 0.0
C503 C 0.31335 0.61431 0.62231 0.0
C504 C 0.32325 0.58436 0.71251 0.0
C505 C 0.33357 0.6077 0.58142 0.0
C506 C 0.34843 0.58949 0.60537 0.0
C507 C 0.35758 0.55867 0.69407 0.0
C508 C 0.35191 0.54629 0.75867 0.0
C509 C 0.3433 0.57756 0.67058 0.0
C510 C 0.33221 0.55357 0.80044 0.0
C511 C 0.31804 0.57246 0.77765 0.0
H512 H 0.64648 0.15956 0.9064 0.0
H513 H 0.6973 0.10923 0.98867 0.0
H514 H 0.67054 0.07283 0.93883 0.0
H515 H 0.63323 0.05527 0.87009 0.0
H516 H 0.58131 0.10504 0.79172 0.0
H517 H 0.60814 0.14173 0.84122 0.0
C518 C 0.65162 0.14062 0.91382 0.0
C519 C 0.67393 0.13719 0.95106 0.0
C520 C 0.63611 0.1197 0.88507 0.0
C521 C 0.68023 0.11247 0.9604 0.0
C522 C 0.665 0.09162 0.93159 0.0
C523 C 0.62789 0.07417 0.86333 0.0
C524 C 0.60549 0.0775 0.82663 0.0
C525 C 0.64306 0.09503 0.89328 0.0
C526 C 0.59855 0.10203 0.81951 0.0
C527 C 0.61384 0.12299 0.84793 0.0
H528 H 0.14738 0.56257 0.35602 0.0
H529 H 0.11162 0.62345 0.26463 0.0
H530 H 0.14434 0.65461 0.31693 0.0
H531 H 0.18322 0.66439 0.38819 0.0
H532 H 0.21776 0.60317 0.48279 0.0
H533 H 0.18511 0.57232 0.43042 0.0
C534 C 0.14685 0.58265 0.347 0.0
C535 C 0.12729 0.59071 0.30583 0.0
C536 C 0.16533 0.60039 0.37845 0.0
C537 C 0.12658 0.6168 0.29582 0.0
C538 C 0.14523 0.6346 0.32587 0.0
C539 C 0.18352 0.64431 0.39778 0.0
C540 C 0.20299 0.63614 0.43921 0.0
C541 C 0.16466 0.6266 0.36743 0.0
C542 C 0.20301 0.61004 0.45124 0.0
C543 C 0.18441 0.59234 0.421 0.0
H544 H 0.61436 0.94876 0.57267 0.0
H545 H 0.62611 0.94268 0.79689 0.0
H546 H 0.65829 0.91445 0.77605 0.0
H547 H 0.68476 0.89355 0.69427 0.0
H548 H 0.67321 0.89969 0.47004 0.0
H549 H 0.63912 0.92576 0.49096 0.0
C550 C 0.62382 0.94114 0.61708 0.0
C551 C 0.61796 0.94802 0.68625 0.0
C552 C 0.6424 0.92502 0.60473 0.0
C553 C 0.63029 0.93779 0.74311 0.0
C554 C 0.64875 0.92168 0.73125 0.0
C555 C 0.67472 0.90047 0.64989 0.0
C556 C 0.6817 0.89486 0.58066 0.0
C557 C 0.65523 0.9155 0.66228 0.0
C558 C 0.66829 0.90378 0.52385 0.0
C559 C 0.64883 0.91874 0.53577 0.0
H560 H 0.33436 0.44661 0.8668 0.0
H561 H 0.37959 0.38615 0.82486 0.0
H562 H 0.34852 0.35616 0.88647 0.0
H563 H 0.30851 0.34721 0.95197 0.0
H564 H 0.26407 0.40817 -0.00383 0.0
H565 H 0.29508 0.43794 0.93454 0.0
C566 C 0.33736 0.42683 0.87066 0.0
C567 C 0.35915 0.41856 0.84081 0.0
C568 C 0.3197 0.40984 0.9071 0.0
C569 C 0.36293 0.39296 0.84722 0.0
C570 C 0.34521 0.37583 0.88255 0.0
C571 C 0.30566 0.36703 0.94849 0.0
C572 C 0.28395 0.37541 0.97857 0.0
C573 C 0.32357 0.38408 0.91285 0.0
C574 C 0.28061 0.40118 0.97363 0.0
C575 C 0.29828 0.41823 0.93812 0.0
H576 H 0.79829 0.13114 0.02536 0.0
H577 H 0.8226 0.18081 0.19963 0.0
H578 H 0.85365 0.15281 0.23421 0.0
H579 H 0.87271 0.11322 0.21766 0.0
H580 H 0.84794 0.06384 0.04301 0.0
H581 H 0.81829 0.09274 0.00619 0.0
C582 C 0.81047 0.13597 0.07067 0.0
C583 C 0.80801 0.15799 0.10998 0.0
C584 C 0.82814 0.11974 0.09055 0.0
C585 C 0.82405 0.16396 0.1684 0.0
C586 C 0.84178 0.14792 0.18839 0.0
C587 C 0.86086 0.10882 0.17148 0.0
C588 C 0.86248 0.08632 0.13347 0.0
C589 C 0.84377 0.12558 0.15034 0.0
C590 C 0.84708 0.08099 0.07346 0.0
C591 C 0.83009 0.09751 0.05224 0.0
H592 H 0.80096 0.6266 0.98338 0.0
H593 H 0.83404 0.6771 0.82133 0.0
H594 H 0.85802 0.64397 0.77729 0.0
H595 H 0.86834 0.6 0.78215 0.0
H596 H 0.83463 0.54985 0.94431 0.0
H597 H 0.81209 0.58348 0.99042 0.0
C598 C 0.81357 0.63049 0.93878 0.0
C599 C 0.81562 0.6543 0.90566 0.0
C600 C 0.82704 0.61131 0.91321 0.0
C601 C 0.83207 0.65894 0.84788 0.0
C602 C 0.84573 0.63997 0.82244 0.0
C603 C 0.85604 0.59644 0.8275 0.0
C604 C 0.85311 0.57238 0.85941 0.0
C605 C 0.8431 0.61595 0.85413 0.0
C606 C 0.83722 0.56815 0.9185 0.0
C607 C 0.82432 0.58739 0.94509 0.0
H608 H 0.18331 0.13266 0.57443 0.0
H609 H 0.23422 0.09209 0.69524 0.0
H610 H 0.19875 0.06075 0.7292 0.0
H611 H 0.15345 0.04454 0.72341 0.0
H612 H 0.10246 0.08516 0.60292 0.0
H613 H 0.13779 0.11692 0.57073 0.0
C614 C 0.18666 0.11692 0.608 0.0
C615 C 0.21139 0.11466 0.63196 0.0
C616 C 0.16616 0.09905 0.62778 0.0
C617 C 0.21537 0.09427 0.67593 0.0
C618 C 0.1951 0.07634 0.6955 0.0
C619 C 0.15 0.06042 0.6905 0.0
C620 C 0.12533 0.0624 0.66555 0.0
C621 C 0.17042 0.07854 0.67171 0.0
C622 C 0.12125 0.08312 0.62287 0.0
C623 C 0.14146 0.10128 0.60422 0.0
H624 H 0.69267 0.41051 0.29893 0.0
H625 H 0.64843 0.40013 0.48956 0.0
H626 H 0.61947 0.42878 0.44498 0.0
H627 H 0.60789 0.45813 0.35422 0.0
H628 H 0.65266 0.46892 0.16454 0.0
H629 H 0.68016 0.43852 0.20642 0.0
C630 C 0.67665 0.41442 0.33076 0.0
C631 C 0.67282 0.4033 0.39771 0.0
C632 C 0.66019 0.43097 0.305 0.0
C633 C 0.65187 0.40848 0.43796 0.0
C634 C 0.63531 0.42488 0.41251 0.0
C635 C 0.62354 0.45372 0.32172 0.0
C636 C 0.62827 0.46591 0.25643 0.0
C637 C 0.63945 0.43642 0.34643 0.0
C638 C 0.64862 0.4599 0.21506 0.0
C639 C 0.6644 0.44254 0.23903 0.0
H640 H 0.39426 0.93233 0.16438 0.0
H641 H 0.33757 0.98154 0.21149 0.0
H642 H 0.3046 0.95066 0.16058 0.0
H643 H 0.29174 0.90974 0.1029 0.0
H644 H 0.34771 0.85932 0.06134 0.0
H645 H 0.38116 0.89076 0.10907 0.0
C646 C 0.37468 0.93626 0.16372 0.0
C647 C 0.36843 0.95924 0.19167 0.0
C648 C 0.35573 0.91832 0.13476 0.0
C649 C 0.34293 0.96397 0.19066 0.0
C650 C 0.32405 0.94638 0.16121 0.0
C651 C 0.31131 0.90575 0.10355 0.0
C652 C 0.31733 0.88239 0.07797 0.0
C653 C 0.33024 0.92356 0.13286 0.0
C654 C 0.34266 0.87725 0.08048 0.0
C655 C 0.36175 0.89517 0.10794 0.0
H656 H 0.80784 0.37096 0.64906 0.0
H657 H 0.76786 0.42641 0.54483 0.0
H658 H 0.79822 0.46056 0.5922 0.0
H659 H 0.83555 0.4748 0.66462 0.0
H660 H 0.87656 0.41969 0.7662 0.0
H661 H 0.84617 0.38526 0.71891 0.0
C662 C 0.80584 0.3905 0.63635 0.0
C663 C 0.78553 0.39607 0.59357 0.0
C664 C 0.82338 0.41012 0.66382 0.0
C665 C 0.7833 0.42152 0.57751 0.0
C666 C 0.8006 0.44111 0.60483 0.0
C667 C 0.83777 0.45527 0.67688 0.0
C668 C 0.85815 0.44981 0.71942 0.0
C669 C 0.82056 0.43563 0.6485 0.0
C670 C 0.86097 0.42438 0.73381 0.0
C671 C 0.84364 0.40471 0.70666 0.0
H672 H 0.33411 0.14531 0.51191 0.0
H673 H 0.2822 0.12412 0.33987 0.0
H674 H 0.31299 0.09979 0.28589 0.0
H675 H 0.35368 0.08281 0.28979 0.0
H676 H 0.40581 0.10336 0.4616 0.0
H677 H 0.37606 0.12985 0.51265 0.0
C678 C 0.32959 0.13544 0.4625 0.0
C679 C 0.30578 0.13642 0.43039 0.0
C680 C 0.34743 0.12137 0.43148 0.0
C681 C 0.30031 0.12364 0.36608 0.0
C682 C 0.31792 0.10969 0.33499 0.0
C683 C 0.35869 0.09325 0.33807 0.0
C684 C 0.38189 0.09094 0.37194 0.0
C685 C 0.34141 0.10821 0.36757 0.0
C686 C 0.38805 0.10471 0.43439 0.0
C687 C 0.371 0.11981 0.46383 0.0
H688 H 0.63417 0.57131 0.14084 0.0
H689 H 0.60239 0.62487 0.27519 0.0
H690 H 0.63237 0.65939 0.22789 0.0
H691 H 0.66828 0.67407 0.15045 0.0
H692 H 0.69939 0.62027 0.0151 0.0
H693 H 0.66872 0.58617 0.0603 0.0
C694 C 0.63382 0.59052 0.15999 0.0
C695 C 0.61622 0.59549 0.21192 0.0
C696 C 0.65088 0.61025 0.13211 0.0
C697 C 0.6158 0.62054 0.2354 0.0
C698 C 0.63292 0.64028 0.20835 0.0
C699 C 0.66824 0.65492 0.13042 0.0
C700 C 0.68621 0.64975 0.07966 0.0
C701 C 0.65061 0.63533 0.15686 0.0
C702 C 0.68582 0.62483 0.05418 0.0
C703 C 0.66834 0.60526 0.08019 0.0
H704 H 0.18986 0.88045 0.82154 0.0
H705 H 0.18282 0.8962 0.04336 0.0
H706 H 0.15096 0.92438 0.01715 0.0
H707 H 0.12672 0.94601 0.93094 0.0
H708 H 0.13343 0.9299 0.70921 0.0
H709 H 0.16377 0.90018 0.73586 0.0
C710 C 0.18131 0.88998 0.86424 0.0
C711 C 0.18887 0.88642 0.93427 0.0
C712 C 0.16301 0.90608 0.84881 0.0
C713 C 0.17737 0.89866 0.989 0.0
C714 C 0.1592 0.91481 0.97404 0.0
C715 C 0.13472 0.93593 0.88839 0.0
C716 C 0.12799 0.94033 0.81812 0.0
C717 C 0.15213 0.9189 0.90409 0.0
C718 C 0.13832 0.92689 0.76373 0.0
C719 C 0.15572 0.90995 0.77891 0.0
loop_
_geom_bond_atom_site_label_1
_geom_bond_atom_site_label_2
_geom_bond_distance
_geom_bond_site_symmetry_2
_ccdc_geom_bond_type
C0 O1 1.160 . S
C0 O7 1.185 . S
O1 C0 1.160 . S
O2 Zn3 1.899 . S
O2 C10 1.284 . S
Zn3 O2 1.899 . S
Zn3 O4 2.032 . S
Zn3 O7 2.086 . S
Zn3 O12 1.977 1_554 S
O4 Zn3 2.032 . S
O4 C8 1.278 1_554 S
C5 O6 1.203 . S
C5 O12 1.267 . S
O6 C5 1.203 . S
O7 C0 1.185 . S
O7 Zn3 2.086 . S
C8 O4 1.278 1_556 S
C8 O9 1.211 . S
O9 C8 1.211 . S
C10 O2 1.284 . S
C10 O11 1.273 . S
O11 C10 1.273 . S
O12 Zn3 1.977 1_556 S
O12 C5 1.267 . S
C13 O14 1.160 . S
C13 O20 1.185 . S
O14 C13 1.160 . S
O15 Zn16 1.899 . S
O15 C23 1.284 . S
Zn16 O15 1.899 . S
Zn16 O17 2.032 . S
Zn16 O20 2.086 . S
Zn16 O25 1.977 . S
O17 Zn16 2.032 . S
O17 C21 1.278 1_545 S
C18 O19 1.203 . S
C18 O25 1.267 . S
O19 C18 1.203 . S
O20 C13 1.185 . S
O20 Zn16 2.086 . S
C21 O17 1.278 1_565 S
C21 O22 1.211 . S
O22 C21 1.211 . S
C23 O15 1.284 . S
C23 O24 1.273 1_545 S
O24 C23 1.273 1_565 S
O25 Zn16 1.977 . S
O25 C18 1.267 . S
C26 O27 1.160 . S
C26 O33 1.185 . S
O27 C26 1.160 . S
O28 Zn29 1.899 . S
O28 C36 1.284 . S
Zn29 O28 1.899 . S
Zn29 O30 2.032 . S
Zn29 O33 2.086 . S
Zn29 O38 1.977 . S
O30 Zn29 2.032 . S
O30 C34 1.278 . S
C31 O32 1.203 . S
C31 O38 1.267 . S
O32 C31 1.203 . S
O33 C26 1.185 . S
O33 Zn29 2.086 . S
C34 O30 1.278 . S
C34 O35 1.211 . S
O35 C34 1.211 . S
C36 O28 1.284 . S
C36 O37 1.273 . S
O37 C36 1.273 . S
O38 Zn29 1.977 . S
O38 C31 1.267 . S
C39 O40 1.160 . S
C39 O46 1.185 . S
O40 C39 1.160 . S
O41 Zn42 1.899 . S
O41 C49 1.284 . S
Zn42 O41 1.899 . S
Zn42 O43 2.032 . S
Zn42 O46 2.086 1_545 S
Zn42 O51 1.977 . S
O43 Zn42 2.032 . S
O43 C47 1.278 . S
C44 O45 1.203 . S
C44 O51 1.267 . S
O45 C44 1.203 . S
O46 C39 1.185 . S
O46 Zn42 2.086 1_565 S
C47 O43 1.278 . S
C47 O48 1.211 . S
O48 C47 1.211 . S
C49 O41 1.284 . S
C49 O50 1.273 . S
O50 C49 1.273 . S
O51 Zn42 1.977 . S
O51 C44 1.267 . S
C52 O53 1.160 . S
C52 O59 1.185 1_556 S
O53 C52 1.160 . S
O54 Zn55 1.899 1_556 S
O54 C62 1.284 . S
Zn55 O54 1.899 1_554 S
Zn55 O56 2.032 . S
Zn55 O59 2.086 . S
Zn55 O64 1.977 . S
O56 Zn55 2.032 . S
O56 C60 1.278 . S
C57 O58 1.203 . S
C57 O64 1.267 . S
O58 C57 1.203 . S
O59 C52 1.185 1_554 S
O59 Zn55 2.086 . S
C60 O56 1.278 . S
C60 O61 1.211 . S
O61 C60 1.211 . S
C62 O54 1.284 . S
C62 O63 1.273 . S
O63 C62 1.273 . S
O64 Zn55 1.977 . S
O64 C57 1.267 . S
C65 O66 1.160 . S
C65 O72 1.185 . S
O66 C65 1.160 . S
O67 Zn68 1.899 . S
O67 C75 1.284 . S
Zn68 O67 1.899 . S
Zn68 O69 2.032 . S
Zn68 O72 2.086 1_545 S
Zn68 O77 1.977 . S
O69 Zn68 2.032 . S
O69 C73 1.278 . S
C70 O71 1.203 . S
C70 O77 1.267 . S
O71 C70 1.203 . S
O72 C65 1.185 . S
O72 Zn68 2.086 1_565 S
C73 O69 1.278 . S
C73 O74 1.211 . S
O74 C73 1.211 . S
C75 O67 1.284 . S
C75 O76 1.273 . S
O76 C75 1.273 . S
O77 Zn68 1.977 . S
O77 C70 1.267 . S
C78 O79 1.160 . S
C78 O85 1.185 . S
O79 C78 1.160 . S
O80 Zn81 1.899 . S
O80 C88 1.284 . S
Zn81 O80 1.899 . S
Zn81 O82 2.032 . S
Zn81 O85 2.086 . S
Zn81 O90 1.977 . S
O82 Zn81 2.032 . S
O82 C86 1.278 . S
C83 O84 1.203 . S
C83 O90 1.267 . S
O84 C83 1.203 . S
O85 C78 1.185 . S
O85 Zn81 2.086 . S
C86 O82 1.278 . S
C86 O87 1.211 . S
O87 C86 1.211 . S
C88 O80 1.284 . S
C88 O89 1.273 . S
O89 C88 1.273 . S
O90 Zn81 1.977 . S
O90 C83 1.267 . S
C91 O92 1.160 . S
C91 O98 1.185 . S
O92 C91 1.160 . S
O93 Zn94 1.899 . S
O93 C101 1.284 . S
Zn94 O93 1.899 . S
Zn94 O95 2.032 . S
Zn94 O98 2.086 . S
Zn94 O103 1.977 . S
O95 Zn94 2.032 . S
O95 C99 1.278 1_545 S
C96 O97 1.203 . S
C96 O103 1.267 . S
O97 C96 1.203 . S
O98 C91 1.185 . S
O98 Zn94 2.086 . S
C99 O95 1.278 1_565 S
C99 O100 1.211 . S
O100 C99 1.211 . S
C101 O93 1.284 . S
C101 O102 1.273 1_545 S
O102 C101 1.273 1_565 S
O103 Zn94 1.977 . S
O103 C96 1.267 . S
C104 O105 1.160 . S
C104 O111 1.185 . S
O105 C104 1.160 . S
O106 Zn107 1.899 . S
O106 C114 1.284 . S
Zn107 O106 1.899 . S
Zn107 O108 2.032 . S
Zn107 O111 2.086 . S
Zn107 O116 1.977 . S
O108 Zn107 2.032 . S
O108 C112 1.278 . S
C109 O110 1.203 . S
C109 O116 1.267 . S
O110 C109 1.203 . S
O111 C104 1.185 . S
O111 Zn107 2.086 . S
C112 O108 1.278 . S
C112 O113 1.211 . S
O113 C112 1.211 . S
C114 O106 1.284 . S
C114 O115 1.273 . S
O115 C114 1.273 . S
O116 Zn107 1.977 . S
O116 C109 1.267 . S
C117 O118 1.160 . S
C117 O124 1.185 . S
O118 C117 1.160 . S
O119 Zn120 1.899 . S
O119 C127 1.284 . S
Zn120 O119 1.899 . S
Zn120 O121 2.032 . S
Zn120 O124 2.086 . S
Zn120 O129 1.977 . S
O121 Zn120 2.032 . S
O121 C125 1.278 . S
C122 O123 1.203 . S
C122 O129 1.267 . S
O123 C122 1.203 . S
O124 C117 1.185 . S
O124 Zn120 2.086 . S
C125 O121 1.278 . S
C125 O126 1.211 . S
O126 C125 1.211 . S
C127 O119 1.284 . S
C127 O128 1.273 . S
O128 C127 1.273 . S
O129 Zn120 1.977 . S
O129 C122 1.267 . S
C130 O131 1.160 . S
C130 O137 1.185 . S
O131 C130 1.160 . S
O132 Zn133 1.899 . S
O132 C140 1.284 . S
Zn133 O132 1.899 . S
Zn133 O134 2.032 . S
Zn133 O137 2.086 . S
Zn133 O142 1.977 1_554 S
O134 Zn133 2.032 . S
O134 C138 1.278 1_554 S
C135 O136 1.203 . S
C135 O142 1.267 . S
O136 C135 1.203 . S
O137 C130 1.185 . S
O137 Zn133 2.086 . S
C138 O134 1.278 1_556 S
C138 O139 1.211 . S
O139 C138 1.211 . S
C140 O132 1.284 . S
C140 O141 1.273 . S
O141 C140 1.273 . S
O142 Zn133 1.977 1_556 S
O142 C135 1.267 . S
C143 O144 1.160 . S
C143 O150 1.185 . S
O144 C143 1.160 . S
O145 Zn146 1.899 . S
O145 C153 1.284 . S
Zn146 O145 1.899 . S
Zn146 O147 2.032 . S
Zn146 O150 2.086 . S
Zn146 O155 1.977 . S
O147 Zn146 2.032 . S
O147 C151 1.278 . S
C148 O149 1.203 . S
C148 O155 1.267 . S
O149 C148 1.203 . S
O150 C143 1.185 . S
O150 Zn146 2.086 . S
C151 O147 1.278 . S
C151 O152 1.211 . S
O152 C151 1.211 . S
C153 O145 1.284 . S
C153 O154 1.273 . S
O154 C153 1.273 . S
O155 Zn146 1.977 . S
O155 C148 1.267 . S
C156 O157 1.160 . S
C156 O163 1.185 . S
O157 C156 1.160 . S
O158 Zn159 1.899 . S
O158 C166 1.284 . S
Zn159 O158 1.899 . S
Zn159 O160 2.032 . S
Zn159 O163 2.086 . S
Zn159 O168 1.977 . S
O160 Zn159 2.032 . S
O160 C164 1.278 . S
C161 O162 1.203 . S
C161 O168 1.267 . S
O162 C161 1.203 . S
O163 C156 1.185 . S
O163 Zn159 2.086 . S
C164 O160 1.278 . S
C164 O165 1.211 . S
O165 C164 1.211 . S
C166 O158 1.284 . S
C166 O167 1.273 . S
O167 C166 1.273 . S
O168 Zn159 1.977 . S
O168 C161 1.267 . S
C169 O170 1.160 . S
C169 O176 1.185 . S
O170 C169 1.160 . S
O171 Zn172 1.899 . S
O171 C179 1.284 . S
Zn172 O171 1.899 . S
Zn172 O173 2.032 . S
Zn172 O176 2.086 . S
Zn172 O181 1.977 . S
O173 Zn172 2.032 . S
O173 C177 1.278 . S
C174 O175 1.203 . S
C174 O181 1.267 . S
O175 C174 1.203 . S
O176 C169 1.185 . S
O176 Zn172 2.086 . S
C177 O173 1.278 . S
C177 O178 1.211 . S
O178 C177 1.211 . S
C179 O171 1.284 . S
C179 O180 1.273 . S
O180 C179 1.273 . S
O181 Zn172 1.977 . S
O181 C174 1.267 . S
C182 O183 1.160 . S
C182 O189 1.185 1_556 S
O183 C182 1.160 . S
O184 Zn185 1.899 1_556 S
O184 C192 1.284 . S
Zn185 O184 1.899 1_554 S
Zn185 O186 2.032 . S
Zn185 O189 2.086 . S
Zn185 O194 1.977 . S
O186 Zn185 2.032 . S
O186 C190 1.278 . S
C187 O188 1.203 . S
C187 O194 1.267 . S
O188 C187 1.203 . S
O189 C182 1.185 1_554 S
O189 Zn185 2.086 . S
C190 O186 1.278 . S
C190 O191 1.211 . S
O191 C190 1.211 . S
C192 O184 1.284 . S
C192 O193 1.273 . S
O193 C192 1.273 . S
O194 Zn185 1.977 . S
O194 C187 1.267 . S
C195 O196 1.160 . S
C195 O202 1.185 . S
O196 C195 1.160 . S
O197 Zn198 1.899 . S
O197 C205 1.284 . S
Zn198 O197 1.899 . S
Zn198 O199 2.032 . S
Zn198 O202 2.086 . S
Zn198 O207 1.977 . S
O199 Zn198 2.032 . S
O199 C203 1.278 . S
C200 O201 1.203 . S
C200 O207 1.267 . S
O201 C200 1.203 . S
O202 C195 1.185 . S
O202 Zn198 2.086 . S
C203 O199 1.278 . S
C203 O204 1.211 . S
O204 C203 1.211 . S
C205 O197 1.284 . S
C205 O206 1.273 . S
O206 C205 1.273 . S
O207 Zn198 1.977 . S
O207 C200 1.267 . S
H208 C214 0.930 . S
H209 C217 0.930 . S
H210 C218 0.930 . S
H211 C219 0.930 . S
H212 C222 0.930 . S
H213 C223 0.930 . S
C214 H208 0.930 . S
C214 C215 1.355 . S
C214 C216 1.415 . S
C215 C214 1.355 . S
C215 C217 1.419 . S
C216 C214 1.415 . S
C216 C221 1.425 . S
C216 C223 1.409 . S
C217 H209 0.930 . S
C217 C215 1.419 . S
C217 C218 1.362 . S
C218 H210 0.930 . S
C218 C217 1.362 . S
C218 C221 1.409 . S
C219 H211 0.930 . S
C219 C220 1.355 . S
C219 C221 1.415 . S
C220 C219 1.355 . S
C220 C222 1.419 . S
C221 C216 1.425 . S
C221 C218 1.409 . S
C221 C219 1.415 . S
C222 H212 0.930 . S
C222 C220 1.419 . S
C222 C223 1.362 . S
C223 H213 0.930 . S
C223 C216 1.409 . S
C223 C222 1.362 . S
H224 C230 0.926 1_455 S
H225 C233 0.930 . S
H226 C234 0.930 . S
H227 C235 0.926 1_655 S
H228 C238 0.930 . S
H229 C239 0.930 . S
C230 H224 0.926 1_655 S
C230 C231 1.355 . S
C230 C232 1.415 1_655 S
C231 C230 1.355 . S
C231 C233 1.419 . S
C232 C230 1.415 1_455 S
C232 C237 1.425 1_455 S
C232 C239 1.409 . S
C233 H225 0.930 . S
C233 C231 1.419 . S
C233 C234 1.362 . S
C234 H226 0.930 . S
C234 C233 1.362 . S
C234 C237 1.409 . S
C235 H227 0.926 1_455 S
C235 C236 1.355 . S
C235 C237 1.415 1_455 S
C236 C235 1.355 . S
C236 C238 1.419 . S
C237 C232 1.425 1_655 S
C237 C234 1.409 . S
C237 C235 1.415 1_655 S
C238 H228 0.930 . S
C238 C236 1.419 . S
C238 C239 1.362 . S
C239 H229 0.930 . S
C239 C232 1.409 . S
C239 C238 1.362 . S
H240 C246 0.930 . S
H241 C249 0.930 . S
H242 C250 0.930 . S
H243 C251 0.930 . S
H244 C254 0.930 . S
H245 C255 0.930 . S
C246 H240 0.930 . S
C246 C247 1.355 . S
C246 C248 1.415 . S
C247 C246 1.355 . S
C247 C249 1.419 . S
C248 C246 1.415 . S
C248 C253 1.425 . S
C248 C255 1.409 . S
C249 H241 0.930 . S
C249 C247 1.419 . S
C249 C250 1.362 . S
C250 H242 0.930 . S
C250 C249 1.362 . S
C250 C253 1.409 . S
C251 H243 0.930 . S
C251 C252 1.355 . S
C251 C253 1.415 . S
C252 C251 1.355 . S
C252 C254 1.419 . S
C253 C248 1.425 . S
C253 C250 1.409 . S
C253 C251 1.415 . S
C254 H244 0.930 . S
C254 C252 1.419 . S
C254 C255 1.362 . S
C255 H245 0.930 . S
C255 C248 1.409 . S
C255 C254 1.362 . S
H256 C262 0.930 . S
H257 C265 0.930 1_565 S
H258 C266 0.930 . S
H259 C267 0.911 1_564 S
H260 C270 0.930 . S
H261 C271 0.930 . S
C262 H256 0.930 . S
C262 C263 1.355 . S
C262 C264 1.415 . S
C263 C262 1.355 . S
C263 C265 1.419 . S
C264 C262 1.415 . S
C264 C269 1.425 . S
C264 C271 1.409 1_554 S
C265 H257 0.930 1_545 S
C265 C263 1.419 . S
C265 C266 1.362 1_545 S
C266 H258 0.930 . S
C266 C265 1.362 1_565 S
C266 C269 1.409 1_565 S
C267 H259 0.911 1_546 S
C267 C268 1.364 . S
C267 C269 1.424 1_556 S
C268 C267 1.364 . S
C268 C270 1.419 . S
C269 C264 1.425 . S
C269 C266 1.409 1_545 S
C269 C267 1.424 1_554 S
C270 H260 0.930 . S
C270 C268 1.419 . S
C270 C271 1.362 . S
C271 H261 0.930 . S
C271 C264 1.409 1_556 S
C271 C270 1.362 . S
H272 C278 0.930 . S
H273 C281 0.930 . S
H274 C282 0.930 . S
H275 C283 0.930 . S
H276 C286 0.930 . S
H277 C287 0.930 . S
C278 H272 0.930 . S
C278 C279 1.355 . S
C278 C280 1.415 . S
C279 C278 1.355 . S
C279 C281 1.419 . S
C280 C278 1.415 . S
C280 C285 1.425 . S
C280 C287 1.409 . S
C281 H273 0.930 . S
C281 C279 1.419 . S
C281 C282 1.362 . S
C282 H274 0.930 . S
C282 C281 1.362 . S
C282 C285 1.409 . S
C283 H275 0.930 . S
C283 C284 1.355 . S
C283 C285 1.415 . S
C284 C283 1.355 . S
C284 C286 1.419 . S
C285 C280 1.425 . S
C285 C282 1.409 . S
C285 C283 1.415 . S
C286 H276 0.930 . S
C286 C284 1.419 . S
C286 C287 1.362 . S
C287 H277 0.930 . S
C287 C280 1.409 . S
C287 C286 1.362 . S
H288 C294 0.930 . S
H289 C297 0.930 . S
H290 C298 0.930 . S
H291 C299 0.930 . S
H292 C302 0.930 . S
H293 C303 0.930 . S
C294 H288 0.930 . S
C294 C295 1.355 . S
C294 C296 1.415 . S
C295 C294 1.355 . S
C295 C297 1.419 . S
C296 C294 1.415 . S
C296 C301 1.425 . S
C296 C303 1.409 . S
C297 H289 0.930 . S
C297 C295 1.419 . S
C297 C298 1.362 . S
C298 H290 0.930 . S
C298 C297 1.362 . S
C298 C301 1.409 . S
C299 H291 0.930 . S
C299 C300 1.355 . S
C299 C301 1.415 . S
C300 C299 1.355 . S
C300 C302 1.419 . S
C301 C296 1.425 . S
C301 C298 1.409 . S
C301 C299 1.415 . S
C302 H292 0.930 . S
C302 C300 1.419 . S
C302 C303 1.362 . S
C303 H293 0.930 . S
C303 C296 1.409 . S
C303 C302 1.362 . S
H304 C310 0.930 . S
H305 C313 0.930 . S
H306 C314 0.930 . S
H307 C315 0.930 . S
H308 C318 0.930 . S
H309 C319 0.930 . S
C310 H304 0.930 . S
C310 C311 1.355 . S
C310 C312 1.415 . S
C311 C310 1.355 . S
C311 C313 1.419 . S
C312 C310 1.415 . S
C312 C317 1.425 . S
C312 C319 1.409 . S
C313 H305 0.930 . S
C313 C311 1.419 . S
C313 C314 1.362 . S
C314 H306 0.930 . S
C314 C313 1.362 . S
C314 C317 1.409 . S
C315 H307 0.930 . S
C315 C316 1.355 . S
C315 C317 1.415 . S
C316 C315 1.355 . S
C316 C318 1.419 . S
C317 C312 1.425 . S
C317 C314 1.409 . S
C317 C315 1.415 . S
C318 H308 0.930 . S
C318 C316 1.419 . S
C318 C319 1.362 . S
C319 H309 0.930 . S
C319 C312 1.409 . S
C319 C318 1.362 . S
H320 C326 0.930 . S
H321 C329 0.930 . S
H322 C330 0.930 . S
H323 C331 0.930 . S
H324 C334 0.930 . S
H325 C335 0.930 . S
C326 H320 0.930 . S
C326 C327 1.355 . S
C326 C328 1.415 1_455 S
C327 C326 1.355 . S
C327 C329 1.419 1_556 S
C328 C326 1.415 1_655 S
C328 C333 1.425 1_656 S
C328 C335 1.409 . S
C329 H321 0.930 . S
C329 C327 1.419 1_554 S
C329 C330 1.362 . S
C330 H322 0.930 . S
C330 C329 1.362 . S
C330 C333 1.409 . S
C331 H323 0.930 . S
C331 C332 1.355 . S
C331 C333 1.415 1_655 S
C332 C331 1.355 . S
C332 C334 1.419 . S
C333 C328 1.425 1_454 S
C333 C330 1.409 . S
C333 C331 1.415 1_455 S
C334 H324 0.930 . S
C334 C332 1.419 . S
C334 C335 1.362 1_554 S
C335 H325 0.930 . S
C335 C328 1.409 . S
C335 C334 1.362 1_556 S
H336 C342 0.930 . S
H337 C345 0.930 . S
H338 C346 0.930 . S
H339 C347 0.930 . S
H340 C350 0.930 . S
H341 C351 0.930 . S
C342 H336 0.930 . S
C342 C343 1.355 . S
C342 C344 1.415 . S
C343 C342 1.355 . S
C343 C345 1.419 . S
C344 C342 1.415 . S
C344 C349 1.425 . S
C344 C351 1.409 . S
C345 H337 0.930 . S
C345 C343 1.419 . S
C345 C346 1.362 . S
C346 H338 0.930 . S
C346 C345 1.362 . S
C346 C349 1.409 . S
C347 H339 0.930 . S
C347 C348 1.355 . S
C347 C349 1.415 . S
C348 C347 1.355 . S
C348 C350 1.419 . S
C349 C344 1.425 . S
C349 C346 1.409 . S
C349 C347 1.415 . S
C350 H340 0.930 . S
C350 C348 1.419 . S
C350 C351 1.362 . S
C351 H341 0.930 . S
C351 C344 1.409 . S
C351 C350 1.362 . S
H352 C358 0.930 . S
H353 C361 0.930 . S
H354 C362 0.930 . S
H355 C363 0.930 . S
H356 C366 0.930 . S
H357 C367 0.930 . S
C358 H352 0.930 . S
C358 C359 1.355 . S
C358 C360 1.415 . S
C359 C358 1.355 . S
C359 C361 1.419 . S
C360 C358 1.415 . S
C360 C365 1.425 . S
C360 C367 1.409 . S
C361 H353 0.930 . S
C361 C359 1.419 . S
C361 C362 1.362 . S
C362 H354 0.930 . S
C362 C361 1.362 . S
C362 C365 1.409 . S
C363 H355 0.930 . S
C363 C364 1.355 . S
C363 C365 1.415 . S
C364 C363 1.355 . S
C364 C366 1.419 . S
C365 C360 1.425 . S
C365 C362 1.409 . S
C365 C363 1.415 . S
C366 H356 0.930 . S
C366 C364 1.419 . S
C366 C367 1.362 . S
C367 H357 0.930 . S
C367 C360 1.409 . S
C367 C366 1.362 . S
H368 C374 0.930 . S
H369 C377 0.930 . S
H370 C378 0.930 . S
H371 C379 0.930 . S
H372 C382 0.930 . S
H373 C383 0.930 . S
C374 H368 0.930 . S
C374 C375 1.355 . S
C374 C376 1.415 . S
C375 C374 1.355 . S
C375 C377 1.419 . S
C376 C374 1.415 . S
C376 C381 1.425 . S
C376 C383 1.409 . S
C377 H369 0.930 . S
C377 C375 1.419 . S
C377 C378 1.362 . S
C378 H370 0.930 . S
C378 C377 1.362 . S
C378 C381 1.409 . S
C379 H371 0.930 . S
C379 C380 1.355 . S
C379 C381 1.415 . S
C380 C379 1.355 . S
C380 C382 1.419 . S
C381 C376 1.425 . S
C381 C378 1.409 . S
C381 C379 1.415 . S
C382 H372 0.930 . S
C382 C380 1.419 . S
C382 C383 1.362 . S
C383 H373 0.930 . S
C383 C376 1.409 . S
C383 C382 1.362 . S
H384 C390 0.930 . S
H385 C393 0.930 . S
H386 C394 0.930 . S
H387 C395 0.930 . S
H388 C398 0.930 . S
H389 C399 0.930 . S
C390 H384 0.930 . S
C390 C391 1.355 . S
C390 C392 1.415 . S
C391 C390 1.355 . S
C391 C393 1.419 . S
C392 C390 1.415 . S
C392 C397 1.425 . S
C392 C399 1.409 . S
C393 H385 0.930 . S
C393 C391 1.419 . S
C393 C394 1.362 . S
C394 H386 0.930 . S
C394 C393 1.362 . S
C394 C397 1.409 . S
C395 H387 0.930 . S
C395 C396 1.355 . S
C395 C397 1.415 . S
C396 C395 1.355 . S
C396 C398 1.419 . S
C397 C392 1.425 . S
C397 C394 1.409 . S
C397 C395 1.415 . S
C398 H388 0.930 . S
C398 C396 1.419 . S
C398 C399 1.362 . S
C399 H389 0.930 . S
C399 C392 1.409 . S
C399 C398 1.362 . S
H400 C406 0.930 . S
H401 C409 0.930 . S
H402 C410 0.930 . S
H403 C411 0.930 . S
H404 C414 0.930 . S
H405 C415 0.930 . S
C406 H400 0.930 . S
C406 C407 1.355 . S
C406 C408 1.415 . S
C407 C406 1.355 . S
C407 C409 1.419 . S
C408 C406 1.415 . S
C408 C413 1.425 . S
C408 C415 1.409 1_554 S
C409 H401 0.930 . S
C409 C407 1.419 . S
C409 C410 1.362 . S
C410 H402 0.930 . S
C410 C409 1.362 . S
C410 C413 1.409 . S
C411 H403 0.930 . S
C411 C412 1.355 . S
C411 C413 1.415 1_556 S
C412 C411 1.355 . S
C412 C414 1.419 . S
C413 C408 1.425 . S
C413 C410 1.409 . S
C413 C411 1.415 1_554 S
C414 H404 0.930 . S
C414 C412 1.419 . S
C414 C415 1.362 . S
C415 H405 0.930 . S
C415 C408 1.409 1_556 S
C415 C414 1.362 . S
H416 C422 0.930 . S
H417 C425 0.930 . S
H418 C426 0.930 . S
H419 C427 0.930 . S
H420 C430 0.930 . S
H421 C431 0.930 . S
C422 H416 0.930 . S
C422 C423 1.355 . S
C422 C424 1.415 1_455 S
C423 C422 1.355 . S
C423 C425 1.419 . S
C424 C422 1.415 1_655 S
C424 C429 1.425 1_655 S
C424 C431 1.409 . S
C425 H417 0.930 . S
C425 C423 1.419 . S
C425 C426 1.362 . S
C426 H418 0.930 . S
C426 C425 1.362 . S
C426 C429 1.409 . S
C427 H419 0.930 . S
C427 C428 1.355 . S
C427 C429 1.415 1_655 S
C428 C427 1.355 . S
C428 C430 1.419 . S
C429 C424 1.425 1_455 S
C429 C426 1.409 . S
C429 C427 1.415 1_455 S
C430 H420 0.930 . S
C430 C428 1.419 . S
C430 C431 1.362 . S
C431 H421 0.930 . S
C431 C424 1.409 . S
C431 C430 1.362 . S
H432 C438 0.930 . S
H433 C441 0.930 . S
H434 C442 0.930 . S
H435 C443 0.930 . S
H436 C446 0.930 . S
H437 C447 0.930 . S
C438 H432 0.930 . S
C438 C439 1.355 . S
C438 C440 1.415 . S
C439 C438 1.355 . S
C439 C441 1.419 . S
C440 C438 1.415 . S
C440 C445 1.425 1_455 S
C440 C447 1.409 1_454 S
C441 H433 0.930 . S
C441 C439 1.419 . S
C441 C442 1.362 . S
C442 H434 0.930 . S
C442 C441 1.362 . S
C442 C445 1.409 1_455 S
C443 H435 0.930 . S
C443 C444 1.355 . S
C443 C445 1.415 1_556 S
C444 C443 1.355 . S
C444 C446 1.419 . S
C445 C440 1.425 1_655 S
C445 C442 1.409 1_655 S
C445 C443 1.415 1_554 S
C446 H436 0.930 . S
C446 C444 1.419 . S
C446 C447 1.362 . S
C447 H437 0.930 . S
C447 C440 1.409 1_656 S
C447 C446 1.362 . S
H448 C454 0.930 . S
H449 C457 0.930 . S
H450 C458 0.930 . S
H451 C459 0.930 . S
H452 C462 0.930 . S
H453 C463 0.930 . S
C454 H448 0.930 . S
C454 C455 1.355 . S
C454 C456 1.415 . S
C455 C454 1.355 . S
C455 C457 1.419 . S
C456 C454 1.415 . S
C456 C461 1.425 . S
C456 C463 1.409 . S
C457 H449 0.930 . S
C457 C455 1.419 . S
C457 C458 1.362 . S
C458 H450 0.930 . S
C458 C457 1.362 . S
C458 C461 1.409 . S
C459 H451 0.930 . S
C459 C460 1.355 . S
C459 C461 1.415 . S
C460 C459 1.355 . S
C460 C462 1.419 . S
C461 C456 1.425 . S
C461 C458 1.409 . S
C461 C459 1.415 . S
C462 H452 0.930 . S
C462 C460 1.419 . S
C462 C463 1.362 . S
C463 H453 0.930 . S
C463 C456 1.409 . S
C463 C462 1.362 . S
H464 C470 0.930 . S
H465 C473 0.930 . S
H466 C474 0.930 . S
H467 C475 0.930 . S
H468 C478 0.930 . S
H469 C479 0.930 . S
C470 H464 0.930 . S
C470 C471 1.355 . S
C470 C472 1.415 . S
C471 C470 1.355 . S
C471 C473 1.419 . S
C472 C470 1.415 . S
C472 C477 1.425 . S
C472 C479 1.409 . S
C473 H465 0.930 . S
C473 C471 1.419 . S
C473 C474 1.362 . S
C474 H466 0.930 . S
C474 C473 1.362 . S
C474 C477 1.409 . S
C475 H467 0.930 . S
C475 C476 1.355 . S
C475 C477 1.415 . S
C476 C475 1.355 . S
C476 C478 1.419 . S
C477 C472 1.425 . S
C477 C474 1.409 . S
C477 C475 1.415 . S
C478 H468 0.930 . S
C478 C476 1.419 . S
C478 C479 1.362 . S
C479 H469 0.930 . S
C479 C472 1.409 . S
C479 C478 1.362 . S
H480 C486 0.930 . S
H481 C489 0.930 . S
H482 C490 0.930 . S
H483 C491 0.930 . S
H484 C494 0.930 . S
H485 C495 0.930 . S
C486 H480 0.930 . S
C486 C487 1.355 . S
C486 C488 1.415 . S
C487 C486 1.355 . S
C487 C489 1.419 . S
C488 C486 1.415 . S
C488 C493 1.425 . S
C488 C495 1.409 . S
C489 H481 0.930 . S
C489 C487 1.419 . S
C489 C490 1.362 . S
C490 H482 0.930 . S
C490 C489 1.362 . S
C490 C493 1.409 . S
C491 H483 0.930 . S
C491 C492 1.355 . S
C491 C493 1.415 . S
C492 C491 1.355 . S
C492 C494 1.419 . S
C493 C488 1.425 . S
C493 C490 1.409 . S
C493 C491 1.415 . S
C494 H484 0.930 . S
C494 C492 1.419 . S
C494 C495 1.362 . S
C495 H485 0.930 . S
C495 C488 1.409 . S
C495 C494 1.362 . S
H496 C502 0.930 . S
H497 C505 0.930 . S
H498 C506 0.930 . S
H499 C507 0.930 . S
H500 C510 0.930 . S
H501 C511 0.930 . S
C502 H496 0.930 . S
C502 C503 1.355 . S
C502 C504 1.415 . S
C503 C502 1.355 . S
C503 C505 1.419 . S
C504 C502 1.415 . S
C504 C509 1.425 . S
C504 C511 1.409 . S
C505 H497 0.930 . S
C505 C503 1.419 . S
C505 C506 1.362 . S
C506 H498 0.930 . S
C506 C505 1.362 . S
C506 C509 1.409 . S
C507 H499 0.930 . S
C507 C508 1.355 . S
C507 C509 1.415 . S
C508 C507 1.355 . S
C508 C510 1.419 . S
C509 C504 1.425 . S
C509 C506 1.409 . S
C509 C507 1.415 . S
C510 H500 0.930 . S
C510 C508 1.419 . S
C510 C511 1.362 . S
C511 H501 0.930 . S
C511 C504 1.409 . S
C511 C510 1.362 . S
H512 C518 0.930 . S
H513 C521 0.930 1_554 S
H514 C522 0.930 . S
H515 C523 0.930 . S
H516 C526 0.930 . S
H517 C527 0.930 . S
C518 H512 0.930 . S
C518 C519 1.355 . S
C518 C520 1.415 . S
C519 C518 1.355 . S
C519 C521 1.419 . S
C520 C518 1.415 . S
C520 C525 1.425 . S
C520 C527 1.409 . S
C521 H513 0.930 1_556 S
C521 C519 1.419 . S
C521 C522 1.362 . S
C522 H514 0.930 . S
C522 C521 1.362 . S
C522 C525 1.409 . S
C523 H515 0.930 . S
C523 C524 1.355 . S
C523 C525 1.415 . S
C524 C523 1.355 . S
C524 C526 1.419 . S
C525 C520 1.425 . S
C525 C522 1.409 . S
C525 C523 1.415 . S
C526 H516 0.930 . S
C526 C524 1.419 . S
C526 C527 1.362 . S
C527 H517 0.930 . S
C527 C520 1.409 . S
C527 C526 1.362 . S
H528 C534 0.930 . S
H529 C537 0.930 . S
H530 C538 0.930 . S
H531 C539 0.930 . S
H532 C542 0.930 . S
H533 C543 0.930 . S
C534 H528 0.930 . S
C534 C535 1.355 . S
C534 C536 1.415 . S
C535 C534 1.355 . S
C535 C537 1.419 . S
C536 C534 1.415 . S
C536 C541 1.425 . S
C536 C543 1.409 . S
C537 H529 0.930 . S
C537 C535 1.419 . S
C537 C538 1.362 . S
C538 H530 0.930 . S
C538 C537 1.362 . S
C538 C541 1.409 . S
C539 H531 0.930 . S
C539 C540 1.355 . S
C539 C541 1.415 . S
C540 C539 1.355 . S
C540 C542 1.419 . S
C541 C536 1.425 . S
C541 C538 1.409 . S
C541 C539 1.415 . S
C542 H532 0.930 . S
C542 C540 1.419 . S
C542 C543 1.362 . S
C543 H533 0.930 . S
C543 C536 1.409 . S
C543 C542 1.362 . S
H544 C550 0.930 . S
H545 C553 0.930 . S
H546 C554 0.930 . S
H547 C555 0.930 . S
H548 C558 0.930 . S
H549 C559 0.930 . S
C550 H544 0.930 . S
C550 C551 1.355 . S
C550 C552 1.415 . S
C551 C550 1.355 . S
C551 C553 1.419 . S
C552 C550 1.415 . S
C552 C557 1.425 . S
C552 C559 1.409 . S
C553 H545 0.930 . S
C553 C551 1.419 . S
C553 C554 1.362 . S
C554 H546 0.930 . S
C554 C553 1.362 . S
C554 C557 1.409 . S
C555 H547 0.930 . S
C555 C556 1.355 . S
C555 C557 1.415 . S
C556 C555 1.355 . S
C556 C558 1.419 . S
C557 C552 1.425 . S
C557 C554 1.409 . S
C557 C555 1.415 . S
C558 H548 0.930 . S
C558 C556 1.419 . S
C558 C559 1.362 . S
C559 H549 0.930 . S
C559 C552 1.409 . S
C559 C558 1.362 . S
H560 C566 0.930 . S
H561 C569 0.930 . S
H562 C570 0.930 . S
H563 C571 0.930 . S
H564 C574 0.930 1_554 S
H565 C575 0.930 . S
C566 H560 0.930 . S
C566 C567 1.355 . S
C566 C568 1.415 . S
C567 C566 1.355 . S
C567 C569 1.419 . S
C568 C566 1.415 . S
C568 C573 1.425 . S
C568 C575 1.409 . S
C569 H561 0.930 . S
C569 C567 1.419 . S
C569 C570 1.362 . S
C570 H562 0.930 . S
C570 C569 1.362 . S
C570 C573 1.409 . S
C571 H563 0.930 . S
C571 C572 1.355 . S
C571 C573 1.415 . S
C572 C571 1.355 . S
C572 C574 1.419 . S
C573 C568 1.425 . S
C573 C570 1.409 . S
C573 C571 1.415 . S
C574 H564 0.930 1_556 S
C574 C572 1.419 . S
C574 C575 1.362 . S
C575 H565 0.930 . S
C575 C568 1.409 . S
C575 C574 1.362 . S
H576 C582 0.930 . S
H577 C585 0.930 . S
H578 C586 0.930 . S
H579 C587 0.930 . S
H580 C590 0.930 . S
H581 C591 0.930 . S
C582 H576 0.930 . S
C582 C583 1.355 . S
C582 C584 1.415 . S
C583 C582 1.355 . S
C583 C585 1.419 . S
C584 C582 1.415 . S
C584 C589 1.425 . S
C584 C591 1.409 . S
C585 H577 0.930 . S
C585 C583 1.419 . S
C585 C586 1.362 . S
C586 H578 0.930 . S
C586 C585 1.362 . S
C586 C589 1.409 . S
C587 H579 0.930 . S
C587 C588 1.355 . S
C587 C589 1.415 . S
C588 C587 1.355 . S
C588 C590 1.419 . S
C589 C584 1.425 . S
C589 C586 1.409 . S
C589 C587 1.415 . S
C590 H580 0.930 . S
C590 C588 1.419 . S
C590 C591 1.362 . S
C591 H581 0.930 . S
C591 C584 1.409 . S
C591 C590 1.362 . S
H592 C598 0.930 1_554 S
H593 C601 0.930 . S
H594 C602 0.930 . S
H595 C603 0.930 . S
H596 C606 0.930 . S
H597 C607 0.930 1_554 S
C598 H592 0.930 1_556 S
C598 C599 1.355 . S
C598 C600 1.415 . S
C599 C598 1.355 . S
C599 C601 1.419 . S
C600 C598 1.415 . S
C600 C605 1.425 . S
C600 C607 1.409 . S
C601 H593 0.930 . S
C601 C599 1.419 . S
C601 C602 1.362 . S
C602 H594 0.930 . S
C602 C601 1.362 . S
C602 C605 1.409 . S
C603 H595 0.930 . S
C603 C604 1.355 . S
C603 C605 1.415 . S
C604 C603 1.355 . S
C604 C606 1.419 . S
C605 C600 1.425 . S
C605 C602 1.409 . S
C605 C603 1.415 . S
C606 H596 0.930 . S
C606 C604 1.419 . S
C606 C607 1.362 . S
C607 H597 0.930 1_556 S
C607 C600 1.409 . S
C607 C606 1.362 . S
H608 C614 0.930 . S
H609 C617 0.930 . S
H610 C618 0.930 . S
H611 C619 0.930 . S
H612 C622 0.930 . S
H613 C623 0.930 . S
C614 H608 0.930 . S
C614 C615 1.355 . S
C614 C616 1.415 . S
C615 C614 1.355 . S
C615 C617 1.419 . S
C616 C614 1.415 . S
C616 C621 1.425 . S
C616 C623 1.409 . S
C617 H609 0.930 . S
C617 C615 1.419 . S
C617 C618 1.362 . S
C618 H610 0.930 . S
C618 C617 1.362 . S
C618 C621 1.409 . S
C619 H611 0.930 . S
C619 C620 1.355 . S
C619 C621 1.415 . S
C620 C619 1.355 . S
C620 C622 1.419 . S
C621 C616 1.425 . S
C621 C618 1.409 . S
C621 C619 1.415 . S
C622 H612 0.930 . S
C622 C620 1.419 . S
C622 C623 1.362 . S
C623 H613 0.930 . S
C623 C616 1.409 . S
C623 C622 1.362 . S
H624 C630 0.930 . S
H625 C633 0.930 . S
H626 C634 0.930 . S
H627 C635 0.930 . S
H628 C638 0.930 . S
H629 C639 0.930 . S
C630 H624 0.930 . S
C630 C631 1.355 . S
C630 C632 1.415 . S
C631 C630 1.355 . S
C631 C633 1.419 . S
C632 C630 1.415 . S
C632 C637 1.425 . S
C632 C639 1.409 . S
C633 H625 0.930 . S
C633 C631 1.419 . S
C633 C634 1.362 . S
C634 H626 0.930 . S
C634 C633 1.362 . S
C634 C637 1.409 . S
C635 H627 0.930 . S
C635 C636 1.355 . S
C635 C637 1.415 . S
C636 C635 1.355 . S
C636 C638 1.419 . S
C637 C632 1.425 . S
C637 C634 1.409 . S
C637 C635 1.415 . S
C638 H628 0.930 . S
C638 C636 1.419 . S
C638 C639 1.362 . S
C639 H629 0.930 . S
C639 C632 1.409 . S
C639 C638 1.362 . S
H640 C646 0.930 . S
H641 C649 0.930 . S
H642 C650 0.930 . S
H643 C651 0.930 . S
H644 C654 0.930 . S
H645 C655 0.930 . S
C646 H640 0.930 . S
C646 C647 1.355 . S
C646 C648 1.415 . S
C647 C646 1.355 . S
C647 C649 1.419 . S
C648 C646 1.415 . S
C648 C653 1.425 . S
C648 C655 1.409 . S
C649 H641 0.930 . S
C649 C647 1.419 . S
C649 C650 1.362 . S
C650 H642 0.930 . S
C650 C649 1.362 . S
C650 C653 1.409 . S
C651 H643 0.930 . S
C651 C652 1.355 . S
C651 C653 1.415 . S
C652 C651 1.355 . S
C652 C654 1.419 . S
C653 C648 1.425 . S
C653 C650 1.409 . S
C653 C651 1.415 . S
C654 H644 0.930 . S
C654 C652 1.419 . S
C654 C655 1.362 . S
C655 H645 0.930 . S
C655 C648 1.409 . S
C655 C654 1.362 . S
H656 C662 0.930 . S
H657 C665 0.930 . S
H658 C666 0.930 . S
H659 C667 0.930 . S
H660 C670 0.930 . S
H661 C671 0.930 . S
C662 H656 0.930 . S
C662 C663 1.355 . S
C662 C664 1.415 . S
C663 C662 1.355 . S
C663 C665 1.419 . S
C664 C662 1.415 . S
C664 C669 1.425 . S
C664 C671 1.409 . S
C665 H657 0.930 . S
C665 C663 1.419 . S
C665 C666 1.362 . S
C666 H658 0.930 . S
C666 C665 1.362 . S
C666 C669 1.409 . S
C667 H659 0.930 . S
C667 C668 1.355 . S
C667 C669 1.415 . S
C668 C667 1.355 . S
C668 C670 1.419 . S
C669 C664 1.425 . S
C669 C666 1.409 . S
C669 C667 1.415 . S
C670 H660 0.930 . S
C670 C668 1.419 . S
C670 C671 1.362 . S
C671 H661 0.930 . S
C671 C664 1.409 . S
C671 C670 1.362 . S
H672 C678 0.930 . S
H673 C681 0.930 . S
H674 C682 0.930 . S
H675 C683 0.930 . S
H676 C686 0.930 . S
H677 C687 0.930 . S
C678 H672 0.930 . S
C678 C679 1.355 . S
C678 C680 1.415 . S
C679 C678 1.355 . S
C679 C681 1.419 . S
C680 C678 1.415 . S
C680 C685 1.425 . S
C680 C687 1.409 . S
C681 H673 0.930 . S
C681 C679 1.419 . S
C681 C682 1.362 . S
C682 H674 0.930 . S
C682 C681 1.362 . S
C682 C685 1.409 . S
C683 H675 0.930 . S
C683 C684 1.355 . S
C683 C685 1.415 . S
C684 C683 1.355 . S
C684 C686 1.419 . S
C685 C680 1.425 . S
C685 C682 1.409 . S
C685 C683 1.415 . S
C686 H676 0.930 . S
C686 C684 1.419 . S
C686 C687 1.362 . S
C687 H677 0.930 . S
C687 C680 1.409 . S
C687 C686 1.362 . S
H688 C694 0.930 . S
H689 C697 0.930 . S
H690 C698 0.930 . S
H691 C699 0.930 . S
H692 C702 0.930 1_556 S
H693 C703 0.930 . S
C694 H688 0.930 . S
C694 C695 1.355 . S
C694 C696 1.415 . S
C695 C694 1.355 . S
C695 C697 1.419 . S
C696 C694 1.415 . S
C696 C701 1.425 . S
C696 C703 1.409 . S
C697 H689 0.930 . S
C697 C695 1.419 . S
C697 C698 1.362 . S
C698 H690 0.930 . S
C698 C697 1.362 . S
C698 C701 1.409 . S
C699 H691 0.930 . S
C699 C700 1.355 . S
C699 C701 1.415 . S
C700 C699 1.355 . S
C700 C702 1.419 . S
C701 C696 1.425 . S
C701 C698 1.409 . S
C701 C699 1.415 . S
C702 H692 0.930 1_554 S
C702 C700 1.419 . S
C702 C703 1.362 . S
C703 H693 0.930 . S
C703 C696 1.409 . S
C703 C702 1.362 . S
H704 C710 0.930 . S
H705 C713 0.930 . S
H706 C714 0.930 1_554 S
H707 C715 0.930 . S
H708 C718 0.930 . S
H709 C719 0.930 . S
C710 H704 0.930 . S
C710 C711 1.355 . S
C710 C712 1.415 . S
C711 C710 1.355 . S
C711 C713 1.419 1_556 S
C712 C710 1.415 . S
C712 C717 1.425 . S
C712 C719 1.409 . S
C713 H705 0.930 . S
C713 C711 1.419 1_554 S
C713 C714 1.362 1_554 S
C714 H706 0.930 1_556 S
C714 C713 1.362 1_556 S
C714 C717 1.409 . S
C715 H707 0.930 . S
C715 C716 1.355 . S
C715 C717 1.415 . S
C716 C715 1.355 . S
C716 C718 1.419 . S
C717 C712 1.425 . S
C717 C714 1.409 . S
C717 C715 1.415 . S
C718 H708 0.930 . S
C718 C716 1.419 . S
C718 C719 1.362 . S
C719 H709 0.930 . S
C719 C712 1.409 . S
C719 C718 1.362 . S
C215 C10 1.325 . S
C220 C166 1.325 . S
C231 C18 1.090 . S
C236 C70 1.090 . S
C247 C36 1.319 . S
C252 C192 1.319 . S
C263 C96 1.024 . S
C268 C44 1.024 . S
C279 C187 1.137 . S
C284 C31 1.137 . S
C295 C101 1.333 . S
C300 C49 1.333 . S
C311 C161 1.134 . S
C316 C5 1.134 . S
C327 C75 1.332 . S
C332 C23 1.332 . S
C343 C62 1.320 . S
C348 C114 1.320 . S
C359 C88 1.333 . S
C364 C140 1.333 . S
C375 C135 1.043 . S
C380 C83 1.043 . S
C391 C57 1.018 . S
C396 C109 1.018 . S
C407 C174 1.093 . S
C412 C122 1.093 . S
C423 C148 1.033 . S
C428 C200 1.033 . S
C439 C153 1.318 . S
C444 C205 1.318 . S
C455 C127 1.326 . S
C460 C179 1.326 . S
C471 C143 1.439 . S
C476 C0 1.435 . S
C487 C112 1.479 . S
C492 C21 1.492 . S
C503 C26 1.425 . S
C508 C117 1.429 . S
C519 C138 1.497 . S
C524 C47 1.487 . S
C535 C151 1.465 . S
C540 C34 1.480 . S
C551 C39 1.463 . S
C556 C104 1.465 . S
C567 C125 1.461 . S
C572 C8 1.476 . S
C583 C130 1.396 . S
C588 C13 1.395 . S
C599 C52 1.396 . S
C604 C195 1.398 . S
C615 C164 1.421 . S
C620 C73 1.419 . S
C631 C78 1.434 . S
C636 C169 1.438 . S
C647 C99 1.427 . S
C652 C190 1.420 . S
C663 C86 1.438 . S
C668 C203 1.427 . S
C679 C156 1.395 . S
C684 C91 1.394 . S
C695 C177 1.497 . S
C700 C60 1.502 . S
C711 C182 1.462 . S
C716 C65 1.459 . S
