# Generated by pormake.
# Topology yfx, (5)-cn, num edge types: 1
# Building blocks:
#     Node 0, Type 0, BuildingBlock: XOMCOT_clean_sbu_0, # of connection points: 5
#     Node 1, Type 0, BuildingBlock: XOMCOT_clean_sbu_0, # of connection points: 5
#     Node 2, Type 0, BuildingBlock: XOMCOT_clean_sbu_0, # of connection points: 5
#     Node 3, Type 0, BuildingBlock: XOMCOT_clean_sbu_0, # of connection points: 5
#     Node 4, Type 0, BuildingBlock: XOMCOT_clean_sbu_0, # of connection points: 5
#     Node 5, Type 0, BuildingBlock: XOMCOT_clean_sbu_0, # of connection points: 5
#     Node 6, Type 0, BuildingBlock: XOMCOT_clean_sbu_0, # of connection points: 5
#     Node 7, Type 0, BuildingBlock: XOMCOT_clean_sbu_0, # of connection points: 5
#     Edge 8, Type (0, 0), BuildingBlock: CIFDUS_clean_linker_0, # of connection points: 2
#     Edge 9, Type (0, 0), BuildingBlock: CIFDUS_clean_linker_0, # of connection points: 2
#     Edge 10, Type (0, 0), BuildingBlock: CIFDUS_clean_linker_0, # of connection points: 2
#     Edge 11, Type (0, 0), BuildingBlock: CIFDUS_clean_linker_0, # of connection points: 2
#     Edge 12, Type (0, 0), BuildingBlock: CIFDUS_clean_linker_0, # of connection points: 2
#     Edge 13, Type (0, 0), BuildingBlock: CIFDUS_clean_linker_0, # of connection points: 2
#     Edge 14, Type (0, 0), BuildingBlock: CIFDUS_clean_linker_0, # of connection points: 2
#     Edge 15, Type (0, 0), BuildingBlock: CIFDUS_clean_linker_0, # of connection points: 2
#     Edge 16, Type (0, 0), BuildingBlock: CIFDUS_clean_linker_0, # of connection points: 2
#     Edge 17, Type (0, 0), BuildingBlock: CIFDUS_clean_linker_0, # of connection points: 2
#     Edge 18, Type (0, 0), BuildingBlock: CIFDUS_clean_linker_0, # of connection points: 2
#     Edge 19, Type (0, 0), BuildingBlock: CIFDUS_clean_linker_0, # of connection points: 2
#     Edge 20, Type (0, 0), BuildingBlock: CIFDUS_clean_linker_0, # of connection points: 2
#     Edge 21, Type (0, 0), BuildingBlock: CIFDUS_clean_linker_0, # of connection points: 2
#     Edge 22, Type (0, 0), BuildingBlock: CIFDUS_clean_linker_0, # of connection points: 2
#     Edge 23, Type (0, 0), BuildingBlock: CIFDUS_clean_linker_0, # of connection points: 2
#     Edge 24, Type (0, 0), BuildingBlock: CIFDUS_clean_linker_0, # of connection points: 2
#     Edge 25, Type (0, 0), BuildingBlock: CIFDUS_clean_linker_0, # of connection points: 2
#     Edge 26, Type (0, 0), BuildingBlock: CIFDUS_clean_linker_0, # of connection points: 2
#     Edge 27, Type (0, 0), BuildingBlock: CIFDUS_clean_linker_0, # of connection points: 2
# Relax obj value: 0.101
# Max RMSD: 0.108
# Mean RMSD: 0.108
data_MOF--net-yfx--node1-XOMCOT_clean_sbu_0--edge1-CIFDUS_clean_linker_0
_symmetry_space_group_name_H-M    P1
_symmetry_Int_Tables_number       1
_symmetry_cell_setting            triclinic
loop_
_symmetry_equiv_pos_as_xyz
'x, y, z'
_cell_length_a     31.337372
_cell_length_b     31.298973
_cell_length_c     25.920465
_cell_angle_alpha  89.971059
_cell_angle_beta   89.716598
_cell_angle_gamma 90.074107
loop_
_atom_site_label
_atom_site_type_symbol
_atom_site_fract_x
_atom_site_fract_y
_atom_site_fract_z
_atom_type_partial_charge
Co0 Co 0.22017 0.36848 0.04007 0.0
C1 C 0.305 0.32315 0.03074 0.0
C2 C 0.30437 0.37457 0.08543 0.0
C3 C 0.34442 0.35707 0.08474 0.0
N4 N 0.27955 0.35363 0.0514 0.0
N5 N 0.34479 0.32479 0.05036 0.0
H6 H 0.29529 0.29996 1.00251 0.0
H7 H 0.29414 0.40147 0.10854 0.0
C8 C 0.27196 0.44094 0.99849 0.0
O9 O 0.29721 0.41224 0.97748 0.0
N10 N 0.16145 0.38478 0.03101 0.0
C11 C 0.12915 0.36177 1.0112 0.0
C12 C 0.09293 0.38692 1.01107 0.0
C13 C 0.14471 0.42316 0.04289 0.0
N14 N 0.1029 0.4256 0.03085 0.0
C15 C 0.2237 0.30695 0.95858 0.0
C16 C 0.23123 0.36334 0.87723 0.0
C17 C 0.23833 0.31962 0.8681 0.0
C18 C 0.23193 0.29124 0.90927 0.0
C19 C 0.22201 0.3776 0.92733 0.0
N20 N 0.22263 0.34984 0.96803 0.0
H21 H 0.22085 0.28428 0.98974 0.0
H22 H 0.21571 0.41111 0.93323 0.0
H23 H 0.13187 0.32932 0.99724 0.0
H24 H 0.16292 0.44875 0.06022 0.0
O25 O 0.2031 0.31503 0.0712 0.0
O26 O 0.21399 0.37486 0.11437 0.0
O27 O 0.23838 0.42907 0.02289 0.0
C28 C 0.20561 0.33409 0.11553 0.0
H29 H 0.37149 0.36802 0.1069 0.0
H30 H 0.06203 0.37776 0.99624 0.0
H31 H 0.23406 0.38664 0.84654 0.0
H32 H 0.23419 0.25701 0.90393 0.0
Co33 Co 0.66545 0.21752 0.05004 0.0
C34 C 0.70804 0.30196 0.03649 0.0
C35 C 0.65502 0.30389 0.08941 0.0
C36 C 0.67075 0.34457 0.0837 0.0
N37 N 0.67805 0.27733 0.0595 0.0
N38 N 0.70382 0.34339 0.05019 0.0
H39 H 0.73122 0.29023 1.00888 0.0
H40 H 0.62802 0.29438 0.11293 0.0
C41 C 0.57288 0.22091 1.0156 0.0
O42 O 0.57917 0.19471 0.97671 0.0
N43 N 0.65079 0.15734 0.04235 0.0
C44 C 0.67055 0.1257 1.01622 0.0
C45 C 0.64537 0.08946 1.01822 0.0
C46 C 0.61478 0.13924 0.0613 0.0
N47 N 0.60997 0.09826 0.04603 0.0
C48 C 0.71428 0.20841 0.95716 0.0
C49 C 0.66719 0.26411 0.89742 0.0
C50 C 0.7056 0.24803 0.87763 0.0
C51 C 0.72892 0.21938 0.90794 0.0
C52 C 0.65388 0.25264 0.94718 0.0
N53 N 0.67694 0.2245 0.97633 0.0
H54 H 0.73461 0.18906 0.98108 0.0
H55 H 0.62672 0.26908 0.96329 0.0
H56 H 0.70054 0.12832 0.99602 0.0
H57 H 0.59178 0.15627 0.08476 0.0
O58 O 0.72244 0.20373 0.07384 0.0
O59 O 0.66536 0.21042 0.1238 0.0
O60 O 0.60372 0.23308 0.04394 0.0
C61 C 0.70635 0.20478 0.12027 0.0
H62 H 0.65855 0.37296 0.10247 0.0
H63 H 0.65173 0.05961 0.99858 0.0
H64 H 0.64889 0.28737 0.87591 0.0
H65 H 0.75902 0.20652 0.89436 0.0
Co66 Co 0.80508 0.65975 0.04926 0.0
C67 C 0.72161 0.70459 0.03754 0.0
C68 C 0.71808 0.64841 0.08511 0.0
C69 C 0.67777 0.66474 0.08002 0.0
N70 N 0.74549 0.67313 0.05832 0.0
N71 N 0.67992 0.69977 0.04975 0.0
H72 H 0.73397 0.72935 1.01247 0.0
H73 H 0.72678 0.61978 0.10591 0.0
C74 C 0.80104 0.57162 0.99842 0.0
O75 O 0.83608 0.57699 0.97117 0.0
N76 N 0.86483 0.64456 0.04157 0.0
C77 C 0.89668 0.66623 1.01811 0.0
C78 C 0.93301 0.64153 1.01879 0.0
C79 C 0.88274 0.6077 0.05772 0.0
N80 N 0.92411 0.60446 0.04318 0.0
C81 C 0.81768 0.72308 0.97153 0.0
C82 C 0.77135 0.68425 0.8943 0.0
C83 C 0.78634 0.72606 0.88629 0.0
C84 C 0.80999 0.74519 0.92587 0.0
C85 C 0.77902 0.66349 0.94122 0.0
N86 N 0.80248 0.68265 0.97914 0.0
H87 H 0.83429 0.73968 1.00183 0.0
H88 H 0.76374 0.63313 0.9475 0.0
H89 H 0.89411 0.69729 1.00053 0.0
H90 H 0.86519 0.58304 0.07803 0.0
O91 O 0.82044 0.7114 0.08591 0.0
O92 O 0.80829 0.64853 0.12246 0.0
O93 O 0.78658 0.60101 0.02772 0.0
C94 C 0.8165 0.689 0.12786 0.0
H95 H 0.64897 0.65152 0.09686 0.0
H96 H 0.96308 0.64956 1.00048 0.0
H97 H 0.75292 0.66785 0.86517 0.0
H98 H 0.82111 0.77785 0.9229 0.0
Co99 Co 0.36608 0.80717 0.05149 0.0
C100 C 0.32195 0.7223 0.04009 0.0
C101 C 0.37652 0.72127 0.09009 0.0
C102 C 0.36128 0.68041 0.08567 0.0
N103 N 0.35226 0.74752 0.06133 0.0
N104 N 0.32713 0.68112 0.05445 0.0
H105 H 0.29811 0.73325 1.01308 0.0
H106 H 0.40448 0.73108 0.11134 0.0
C107 C 0.45418 0.80152 1.00269 0.0
O108 O 0.44768 0.83452 0.97243 0.0
N109 N 0.3826 0.86691 0.04395 0.0
C110 C 0.36213 0.9 1.02172 0.0
C111 C 0.38806 0.93564 0.02361 0.0
C112 C 0.41997 0.8835 0.06056 0.0
N113 N 0.42469 0.92506 0.04752 0.0
C114 C 0.30883 0.82157 0.96845 0.0
C115 C 0.34748 0.7691 0.89656 0.0
C116 C 0.30831 0.78824 0.88422 0.0
C117 C 0.28916 0.81472 0.92121 0.0
C118 C 0.36596 0.77643 0.94493 0.0
N119 N 0.3471 0.80323 0.97997 0.0
H120 H 0.29177 0.84013 0.99677 0.0
H121 H 0.39406 0.75847 0.9548 0.0
H122 H 0.33095 0.89893 1.00452 0.0
H123 H 0.44384 0.86498 0.08061 0.0
O124 O 0.31254 0.82302 0.08268 0.0
O125 O 0.3724 0.81232 0.12567 0.0
O126 O 0.42556 0.7884 0.03408 0.0
C127 C 0.33159 0.82024 0.12687 0.0
H128 H 0.37497 0.65199 0.1027 0.0
H129 H 0.38112 0.96648 1.00673 0.0
H130 H 0.36336 0.74792 0.86966 0.0
H131 H 0.25808 0.82881 0.91489 0.0
Co132 Co 0.71693 0.86736 0.55008 0.0
C133 C 0.80084 0.82227 0.53696 0.0
C134 C 0.80325 0.87644 0.58775 0.0
C135 C 0.84368 0.86045 0.58244 0.0
N136 N 0.77636 0.85278 0.55921 0.0
N137 N 0.84234 0.82671 0.55014 0.0
H138 H 0.7891 0.79856 0.51019 0.0
H139 H 0.79417 0.9043 0.60987 0.0
C140 C 0.72371 0.95532 0.49923 0.0
O141 O 0.68866 0.95118 0.47214 0.0
N142 N 0.65744 0.88399 0.54248 0.0
C143 C 0.62496 0.86232 0.52074 0.0
C144 C 0.5889 0.8875 0.52189 0.0
C145 C 0.64016 0.92144 0.55804 0.0
N146 N 0.59858 0.92492 0.54485 0.0
C147 C 0.70343 0.80442 0.47222 0.0
C148 C 0.75093 0.84249 0.39487 0.0
C149 C 0.73508 0.80105 0.38677 0.0
C150 C 0.71081 0.78231 0.4264 0.0
C151 C 0.74355 0.86323 0.44193 0.0
N152 N 0.71952 0.84446 0.47993 0.0
H153 H 0.68633 0.7881 0.50257 0.0
H154 H 0.75953 0.89319 0.4482 0.0
H155 H 0.62687 0.83077 0.50432 0.0
H156 H 0.65817 0.94622 0.5773 0.0
O157 O 0.70019 0.81601 0.58676 0.0
O158 O 0.71329 0.87862 0.62323 0.0
O159 O 0.73705 0.92554 0.52854 0.0
C160 C 0.70433 0.8383 0.6287 0.0
H161 H 0.87207 0.8731 0.60055 0.0
H162 H 0.55837 0.87946 0.50509 0.0
H163 H 0.76982 0.85862 0.36571 0.0
H164 H 0.69896 0.74993 0.42332 0.0
Co165 Co 0.15852 0.7222 0.55349 0.0
C166 C 0.20502 0.80514 0.54212 0.0
C167 C 0.14894 0.80933 0.58992 0.0
C168 C 0.16556 0.84958 0.58393 0.0
N169 N 0.17332 0.78155 0.56336 0.0
N170 N 0.20047 0.84702 0.55344 0.0
H171 H 0.22939 0.79247 0.5167 0.0
H172 H 0.12011 0.80098 0.61073 0.0
C173 C 0.07095 0.72889 0.50377 0.0
O174 O 0.07748 0.69584 0.47357 0.0
N175 N 0.1418 0.66267 0.54542 0.0
C176 C 0.16362 0.62951 0.52511 0.0
C177 C 0.13835 0.59352 0.52708 0.0
C178 C 0.10419 0.64577 0.56113 0.0
N179 N 0.10078 0.60385 0.54933 0.0
C180 C 0.21727 0.70818 0.47068 0.0
C181 C 0.18354 0.76832 0.40452 0.0
C182 C 0.22353 0.75054 0.39278 0.0
C183 C 0.23941 0.71883 0.42571 0.0
C184 C 0.16179 0.75589 0.44935 0.0
N185 N 0.17891 0.72648 0.48239 0.0
H186 H 0.23304 0.68774 0.498 0.0
H187 H 0.13349 0.77347 0.45966 0.0
H188 H 0.19552 0.63052 0.50971 0.0
H189 H 0.07948 0.66412 0.58019 0.0
O190 O 0.21119 0.70542 0.58644 0.0
O191 O 0.1499 0.71746 0.627 0.0
O192 O 0.09946 0.74174 0.53515 0.0
C193 C 0.19038 0.70863 0.62974 0.0
H194 H 0.15233 0.87871 0.59979 0.0
H195 H 0.14664 0.56244 0.51178 0.0
H196 H 0.17027 0.79376 0.38132 0.0
H197 H 0.26981 0.70358 0.4183 0.0
Co198 Co 0.30188 0.16054 0.54293 0.0
C199 C 0.21818 0.20659 0.54434 0.0
C200 C 0.2179 0.14752 0.58687 0.0
C201 C 0.17858 0.16612 0.59198 0.0
N202 N 0.24274 0.1728 0.55727 0.0
N203 N 0.17877 0.20306 0.5653 0.0
H204 H 0.22897 0.23332 0.52119 0.0
H205 H 0.22802 0.11775 0.60409 0.0
C206 C 0.2966 0.07339 0.49167 0.0
O207 O 0.32951 0.0806 0.46134 0.0
N208 N 0.36146 0.14544 0.53101 0.0
C209 C 0.39315 0.16558 0.5052 0.0
C210 C 0.42945 0.14064 0.50703 0.0
C211 C 0.37946 0.10919 0.54909 0.0
N212 N 0.42065 0.10495 0.53426 0.0
C213 C 0.31196 0.22088 0.46121 0.0
C214 C 0.25082 0.18713 0.39656 0.0
C215 C 0.2686 0.22716 0.38437 0.0
C216 C 0.30052 0.24319 0.41681 0.0
C217 C 0.26391 0.1653 0.441 0.0
N218 N 0.29416 0.18224 0.47295 0.0
H219 H 0.33347 0.23623 0.48774 0.0
H220 H 0.24703 0.13653 0.45154 0.0
H221 H 0.39081 0.19578 0.4856 0.0
H222 H 0.3622 0.08581 0.57183 0.0
O223 O 0.31755 0.21336 0.57624 0.0
O224 O 0.3102 0.15108 0.61604 0.0
O225 O 0.28345 0.10134 0.52373 0.0
C226 C 0.31671 0.19208 0.61929 0.0
H227 H 0.15167 0.1534 0.61342 0.0
H228 H 0.45953 0.14759 0.48808 0.0
H229 H 0.22529 0.17373 0.37368 0.0
H230 H 0.31579 0.27359 0.40912 0.0
Co231 Co 0.87258 0.3028 0.54958 0.0
C232 C 0.83004 0.21872 0.54048 0.0
C233 C 0.89059 0.21449 0.57873 0.0
C234 C 0.87407 0.17399 0.57375 0.0
N235 N 0.86317 0.24232 0.55744 0.0
N236 N 0.83619 0.17668 0.54934 0.0
H237 H 0.8029 0.23184 0.52032 0.0
H238 H 0.92084 0.22303 0.59583 0.0
C239 C 0.95866 0.30688 0.49677 0.0
O240 O 0.94453 0.3337 0.46182 0.0
N241 N 0.88391 0.36369 0.54319 0.0
C242 C 0.86222 0.39533 0.51961 0.0
C243 C 0.88603 0.43242 0.52214 0.0
C244 C 0.91981 0.38243 0.56086 0.0
N245 N 0.92251 0.42407 0.54762 0.0
C246 C 0.81313 0.31335 0.46721 0.0
C247 C 0.85223 0.25764 0.39914 0.0
C248 C 0.8113 0.27278 0.38754 0.0
C249 C 0.79239 0.30203 0.42167 0.0
C250 C 0.87212 0.27015 0.44497 0.0
N251 N 0.85266 0.29781 0.47854 0.0
H252 H 0.7958 0.33218 0.49511 0.0
H253 H 0.90144 0.25439 0.45528 0.0
H254 H 0.83193 0.3923 0.50061 0.0
H255 H 0.94419 0.36528 0.58176 0.0
O256 O 0.81857 0.31327 0.58446 0.0
O257 O 0.88123 0.30721 0.62288 0.0
O258 O 0.9336 0.29089 0.53064 0.0
C259 C 0.84015 0.31176 0.62726 0.0
H260 H 0.88897 0.14481 0.58692 0.0
H261 H 0.87792 0.46262 0.5044 0.0
H262 H 0.86766 0.23405 0.37487 0.0
H263 H 0.76085 0.31474 0.41451 0.0
H264 H 0.50208 0.22859 0.95414 0.0
H265 H 0.54694 0.24598 0.11006 0.0
H266 H 0.47879 0.2763 0.13528 0.0
H267 H 0.40852 0.30236 0.11261 0.0
H268 H 0.36262 0.28921 0.95705 0.0
H269 H 0.42842 0.25194 0.93239 0.0
C270 C 0.49662 0.23866 0.99365 0.0
C271 C 0.52972 0.23563 0.02991 0.0
C272 C 0.45721 0.25688 1.00801 0.0
C273 C 0.52226 0.24866 0.0811 0.0
C274 C 0.48324 0.26591 0.09572 0.0
C275 C 0.41294 0.29142 0.07328 0.0
C276 C 0.38112 0.29905 0.03662 0.0
C277 C 0.45091 0.27101 0.05933 0.0
C278 C 0.3867 0.28362 0.98607 0.0
C279 C 0.42443 0.26259 0.97189 0.0
H280 H 0.67255 0.42133 0.03262 0.0
H281 H 0.78778 0.34683 0.02424 0.0
H282 H 0.82858 0.41102 1.00034 0.0
H283 H 0.83201 0.49013 0.99088 0.0
H284 H 0.71569 0.56312 1.00358 0.0
H285 H 0.6747 0.49783 1.01643 0.0
C286 C 0.70661 0.41915 0.02558 0.0
C287 C 0.72733 0.37972 0.03116 0.0
C288 C 0.7296 0.456 1.01262 0.0
C289 C 0.77123 0.37699 1.02036 0.0
C290 C 0.79451 0.41368 1.00693 0.0
C291 C 0.7976 0.49143 0.99529 0.0
C292 C 0.77685 0.53126 0.99655 0.0
C293 C 0.77417 0.45362 1.00408 0.0
C294 C 0.73232 0.53277 1.00284 0.0
C295 C 0.70887 0.49551 1.01033 0.0
H296 H 0.6018 0.67008 0.02989 0.0
H297 H 0.67797 0.78472 0.02839 0.0
H298 H 0.61471 0.82707 1.00623 0.0
H299 H 0.53585 0.83174 0.99647 0.0
H300 H 0.46103 0.7161 1.00439 0.0
H301 H 0.52557 0.67374 1.01464 0.0
C302 C 0.60458 0.70435 0.02488 0.0
C303 C 0.64419 0.7244 0.03184 0.0
C304 C 0.56823 0.72823 1.01326 0.0
C305 C 0.64766 0.76864 0.02345 0.0
C306 C 0.6115 0.79281 1.01101 0.0
C307 C 0.53403 0.79721 0.99938 0.0
C308 C 0.494 0.77691 0.99988 0.0
C309 C 0.57136 0.77304 1.00701 0.0
C310 C 0.49165 0.73226 1.00419 0.0
C311 C 0.52845 0.70807 1.01019 0.0
H312 H 0.22668 0.51035 0.03305 0.0
H313 H 0.34482 0.47453 0.95811 0.0
H314 H 0.36987 0.54793 0.96277 0.0
H315 H 0.36212 0.62042 0.9972 0.0
H316 H 0.24565 0.65768 0.07265 0.0
H317 H 0.2155 0.586 0.05808 0.0
C318 C 0.25767 0.51873 1.01719 0.0
C319 C 0.28407 0.4867 0.99603 0.0
C320 C 0.27215 0.56129 1.02012 0.0
C321 C 0.32393 0.49828 0.97508 0.0
C322 C 0.33839 0.54033 0.97772 0.0
C323 C 0.32973 0.6129 1.00907 0.0
C324 C 0.30588 0.64373 0.03567 0.0
C325 C 0.31331 0.57176 1.00135 0.0
C326 C 0.26411 0.63421 0.05152 0.0
C327 C 0.24723 0.59322 0.04368 0.0
H328 H 0.98953 0.69807 0.49455 0.0
H329 H 0.06275 0.81414 0.5104 0.0
H330 H 0.99744 0.85534 0.52102 0.0
H331 H 0.92072 0.85776 0.53378 0.0
H332 H 0.84581 0.74261 0.52415 0.0
H333 H 0.91024 0.70166 0.50204 0.0
C334 C 0.99089 0.73247 0.49928 0.0
C335 C 0.03074 0.75314 0.50186 0.0
C336 C 0.95302 0.75598 0.50697 0.0
C337 C 0.03236 0.79762 0.5086 0.0
C338 C 0.99509 0.82118 0.51477 0.0
C339 C 0.91844 0.82367 0.52701 0.0
C340 C 0.87878 0.80307 0.53168 0.0
C341 C 0.95544 0.80055 0.51551 0.0
C342 C 0.87608 0.75913 0.521 0.0
C343 C 0.91293 0.73574 0.50863 0.0
H344 H 0.329 0.9924 0.4904 0.0
H345 H 0.21153 0.06407 0.49153 0.0
H346 H 0.17079 0.99879 0.50607 0.0
H347 H 0.169 0.92328 0.52771 0.0
H348 H 0.28534 0.85038 0.53225 0.0
H349 H 0.32624 0.9138 0.50557 0.0
C350 C 0.29444 0.99329 0.49255 0.0
C351 C 0.27312 0.03274 0.48989 0.0
C352 C 0.27119 0.95561 0.50274 0.0
C353 C 0.22844 0.03392 0.4935 0.0
C354 C 0.20518 0.9967 0.50207 0.0
C355 C 0.20333 0.92128 0.52296 0.0
C356 C 0.22431 0.88262 0.53306 0.0
C357 C 0.22632 0.95771 0.50847 0.0
C358 C 0.26861 0.88 0.52501 0.0
C359 C 0.29192 0.91625 0.50994 0.0
H360 H 0.14765 0.23872 0.47851 0.0
H361 H 0.12954 0.22987 0.64299 0.0
H362 H 0.06057 0.26547 0.63618 0.0
H363 H 1.00225 0.29077 0.58297 0.0
H364 H 0.01738 0.2994 0.41797 0.0
H365 H 0.09091 0.27265 0.42507 0.0
C366 C 0.12889 0.24573 0.51272 0.0
C367 C 0.14313 0.23153 0.56118 0.0
C368 C 0.08865 0.2654 0.50825 0.0
C369 C 0.11872 0.24029 0.60542 0.0
C370 C 0.07935 0.26045 0.60149 0.0
C371 C 0.02174 0.28706 0.54853 0.0
C372 C 1.00436 0.29608 0.49995 0.0
C373 C 0.06341 0.27167 0.553 0.0
C374 C 0.03016 0.29227 0.45576 0.0
C375 C 0.07206 0.27688 0.45985 0.0
H376 H 0.86191 0.09745 0.52537 0.0
H377 H 0.7502 0.17716 0.5366 0.0
H378 H 0.70479 0.11615 0.51452 0.0
H379 H 0.6967 0.03812 0.50002 0.0
H380 H 0.80931 0.95915 0.49453 0.0
H381 H 0.85455 0.02178 0.50606 0.0
C382 C 0.82763 0.1015 0.5233 0.0
C383 C 0.80945 0.1416 0.53352 0.0
C384 C 0.80188 0.06632 0.51138 0.0
C385 C 0.76502 0.14658 0.52901 0.0
C386 C 0.73903 0.11167 0.51654 0.0
C387 C 0.73117 0.03501 0.50014 0.0
C388 C 0.7498 0.99433 0.49635 0.0
C389 C 0.75706 0.07114 0.50855 0.0
C390 C 0.79442 0.99031 0.49739 0.0
C391 C 0.82026 0.02601 0.50423 0.0
H392 H 0.24008 0.19916 0.29019 0.0
H393 H 0.26015 0.31438 0.37857 0.0
H394 H 0.23949 0.35752 0.3048 0.0
H395 H 0.21986 0.36307 0.21326 0.0
H396 H 0.19661 0.24796 0.1262 0.0
H397 H 0.21275 0.20465 0.2018 0.0
C398 C 0.2393 0.23365 0.29381 0.0
C399 C 0.25281 0.25318 0.33991 0.0
C400 C 0.22644 0.25855 0.25139 0.0
C401 C 0.25154 0.29814 0.34326 0.0
C402 C 0.23919 0.32303 0.30115 0.0
C403 C 0.21749 0.32854 0.2111 0.0
C404 C 0.20724 0.3089 0.16396 0.0
C405 C 0.22724 0.30364 0.25472 0.0
C406 C 0.20442 0.26405 0.16192 0.0
C407 C 0.21395 0.23914 0.20512 0.0
H408 H 0.68015 0.2095 0.21978 0.0
H409 H 0.79361 0.20949 0.12486 0.0
H410 H 0.83671 0.22919 0.1997 0.0
H411 H 0.8409 0.25303 0.29048 0.0
H412 H 0.7266 0.25239 0.38431 0.0
H413 H 0.68517 0.22725 0.31128 0.0
C414 C 0.71443 0.21307 0.21553 0.0
C415 C 0.73356 0.20814 0.1667 0.0
C416 C 0.7388 0.2253 0.25837 0.0
C417 C 0.77804 0.2129 0.16203 0.0
C418 C 0.80266 0.22456 0.20475 0.0
C419 C 0.80703 0.24694 0.29514 0.0
C420 C 0.78689 0.25564 0.34276 0.0
C421 C 0.78321 0.23193 0.25287 0.0
C422 C 0.74288 0.24744 0.34786 0.0
C423 C 0.71913 0.23255 0.30619 0.0
H424 H 0.75101 0.67902 0.19295 0.0
H425 H 0.86851 0.74854 0.17244 0.0
H426 H 0.85443 0.7888 0.25216 0.0
H427 H 0.80755 0.80478 0.3263 0.0
H428 H 0.68485 0.74189 0.33771 0.0
H429 H 0.70233 0.69822 0.26323 0.0
C430 C 0.77384 0.7025 0.20656 0.0
C431 C 0.81123 0.71022 0.17805 0.0
C432 C 0.76439 0.72686 0.25053 0.0
C433 C 0.83991 0.74172 0.19462 0.0
C434 C 0.83168 0.76483 0.23986 0.0
C435 C 0.78419 0.78212 0.31222 0.0
C436 C 0.74504 0.77655 0.33865 0.0
C437 C 0.7937 0.758 0.26782 0.0
C438 C 0.71573 0.74633 0.31958 0.0
C439 C 0.72552 0.72141 0.27656 0.0
H440 H 0.36023 0.80415 0.22405 0.0
H441 H 0.24565 0.82916 0.13746 0.0
H442 H 0.20202 0.8105 0.2122 0.0
H443 H 0.19623 0.78026 0.29909 0.0
H444 H 0.31075 0.75903 0.38764 0.0
H445 H 0.35425 0.78192 0.3148 0.0
C446 C 0.32575 0.80637 0.22187 0.0
C447 C 0.30631 0.81772 0.1751 0.0
C448 C 0.30068 0.79516 0.26494 0.0
C449 C 0.26154 0.82043 0.17294 0.0
C450 C 0.23647 0.80945 0.2156 0.0
C451 C 0.23063 0.78126 0.30301 0.0
C452 C 0.24988 0.76678 0.34875 0.0
C453 C 0.25567 0.79565 0.26136 0.0
C454 C 0.29474 0.76831 0.35248 0.0
C455 C 0.31982 0.782 0.31097 0.0
H456 H 0.76897 0.8492 0.69394 0.0
H457 H 0.65303 0.77748 0.67291 0.0
H458 H 0.66742 0.73686 0.75218 0.0
H459 H 0.71427 0.72117 0.82602 0.0
H460 H 0.83568 0.78634 0.83739 0.0
H461 H 0.81766 0.8303 0.76357 0.0
C462 C 0.74651 0.82516 0.70732 0.0
C463 C 0.70949 0.81693 0.67879 0.0
C464 C 0.75621 0.80059 0.75092 0.0
C465 C 0.68134 0.78472 0.6951 0.0
C466 C 0.68976 0.7614 0.74008 0.0
C467 C 0.73723 0.74441 0.81206 0.0
C468 C 0.77613 0.75056 0.83836 0.0
C469 C 0.72745 0.76873 0.76798 0.0
C470 C 0.80496 0.78146 0.81942 0.0
C471 C 0.79487 0.80657 0.77677 0.0
H472 H 0.19125 0.77884 0.68708 0.0
H473 H 0.24321 0.65183 0.67847 0.0
H474 H 0.28509 0.66509 0.75704 0.0
H475 H 0.30611 0.71349 0.82816 0.0
H476 H 0.26015 0.8437 0.82764 0.0
H477 H 0.21673 0.82853 0.75256 0.0
C478 C 0.2114 0.75394 0.7029 0.0
C479 C 0.2135 0.71411 0.67839 0.0
C480 C 0.23658 0.76254 0.74613 0.0
C481 C 0.2407 0.68245 0.6977 0.0
C482 C 0.26472 0.69017 0.74226 0.0
C483 C 0.28723 0.73881 0.81122 0.0
C484 C 0.28592 0.77952 0.83461 0.0
C485 C 0.26304 0.73027 0.76672 0.0
C486 C 0.26094 0.81171 0.8118 0.0
C487 C 0.23617 0.80319 0.76854 0.0
H488 H 0.27797 0.26737 0.6367 0.0
H489 H 0.34429 0.16515 0.71356 0.0
H490 H 0.3283 0.19769 0.79751 0.0
H491 H 0.29207 0.25279 0.84853 0.0
H492 H 0.21793 0.34984 0.77137 0.0
H493 H 0.24112 0.32219 0.68794 0.0
C494 C 0.28974 0.25278 0.67184 0.0
C495 C 0.31296 0.21439 0.66916 0.0
C496 C 0.27864 0.27054 0.7198 0.0
C497 C 0.32684 0.19499 0.71486 0.0
C498 C 0.31745 0.21345 0.76273 0.0
C499 C 0.28036 0.2677 0.81362 0.0
C500 C 0.25287 0.30334 0.81674 0.0
C501 C 0.2926 0.25072 0.76565 0.0
C502 C 0.23938 0.32277 0.77065 0.0
C503 C 0.25243 0.30678 0.72274 0.0
H504 H 0.78602 0.27539 0.85713 0.0
H505 H 0.66373 0.25551 0.78555 0.0
H506 H 0.69342 0.27773 0.70206 0.0
H507 H 0.75571 0.2981 0.64843 0.0
H508 H 0.8779 0.31695 0.72116 0.0
H509 H 0.84663 0.30025 0.80509 0.0
C510 C 0.7659 0.27579 0.82319 0.0
C511 C 0.72292 0.26319 0.82732 0.0
C512 C 0.78317 0.2886 0.77553 0.0
C513 C 0.69696 0.26493 0.7833 0.0
C514 C 0.71395 0.27757 0.73558 0.0
C515 C 0.77528 0.29934 0.68279 0.0
C516 C 0.81913 0.30867 0.67845 0.0
C517 C 0.75719 0.28896 0.73108 0.0
C518 C 0.8441 0.3098 0.72333 0.0
C519 C 0.8263 0.30005 0.77138 0.0
H520 H 1.01021 0.60324 0.04294 0.0
H521 H 0.89947 0.52131 0.0494 0.0
H522 H 0.94526 0.45839 0.04785 0.0
H523 H 0.01689 0.42637 0.04107 0.0
H524 H 0.12717 0.50878 0.03112 0.0
H525 H 0.08154 0.57143 0.03748 0.0
C526 C 0.99603 0.57166 0.04389 0.0
C527 C 0.95134 0.56728 0.0462 0.0
C528 C 0.02255 0.5355 0.04218 0.0
C529 C 0.93368 0.52592 0.04831 0.0
C530 C 0.95989 0.48978 0.04696 0.0
C531 C 0.03094 0.458 0.04003 0.0
C532 C 0.07554 0.46259 0.03562 0.0
C533 C 1.00437 0.49416 0.04327 0.0
C534 C 0.09312 0.504 0.03517 0.0
C535 C 0.06697 0.54001 0.03849 0.0
H536 H 0.60606 1.01192 0.04851 0.0
H537 H 0.52814 0.12534 0.05467 0.0
H538 H 0.4638 0.0816 0.05809 0.0
H539 H 0.42908 1.01103 0.05553 0.0
H540 H 0.5067 0.8975 0.04842 0.0
H541 H 0.5713 0.94109 0.04945 0.0
C542 C 0.57501 0.02703 0.05067 0.0
C543 C 0.57218 0.07195 0.05139 0.0
C544 C 0.53787 1.00157 0.0524 0.0
C545 C 0.53155 0.09094 0.05481 0.0
C546 C 0.49458 0.0659 0.05636 0.0
C547 C 0.46012 0.99584 0.05424 0.0
C548 C 0.46281 0.95096 0.0518 0.0
C549 C 0.49729 0.02119 0.05464 0.0
C550 C 0.50346 0.93185 0.05091 0.0
C551 C 0.54053 0.95683 0.05111 0.0
H552 H 0.50689 0.10373 0.53905 0.0
H553 H 0.39571 0.02242 0.54414 0.0
H554 H 0.4411 0.95947 0.55072 0.0
H555 H 0.51252 0.92694 0.5513 0.0
H556 H 0.6239 1.00789 0.54476 0.0
H557 H 0.57854 0.07121 0.54298 0.0
C558 C 0.49262 0.07225 0.54157 0.0
C559 C 0.44783 0.06803 0.54102 0.0
C560 C 0.51903 0.03595 0.54516 0.0
C561 C 0.42994 0.02688 0.5451 0.0
C562 C 0.45595 0.99072 0.54852 0.0
C563 C 0.52689 0.95841 0.54949 0.0
C564 C 0.57168 0.96242 0.54801 0.0
C565 C 0.50054 0.9948 0.54806 0.0
C566 C 0.58965 1.00365 0.54653 0.0
C567 C 0.56366 0.03997 0.54509 0.0
H568 H 0.09945 0.51801 0.55842 0.0
H569 H 0.01778 0.62862 0.55059 0.0
H570 H 0.95483 0.5826 0.55204 0.0
H571 H 0.92292 0.5105 0.55114 0.0
H572 H 1.00539 0.4002 0.55554 0.0
H573 H 0.06773 0.44639 0.55994 0.0
C574 C 0.06792 0.53209 0.55694 0.0
C575 C 0.06356 0.57679 0.55419 0.0
C576 C 0.03182 0.50539 0.55711 0.0
C577 C 0.02227 0.59443 0.55329 0.0
C578 C 0.98616 0.56806 0.5537 0.0
C579 C 0.95451 0.49658 0.55302 0.0
C580 C 0.95916 0.4518 0.5531 0.0
C581 C 0.99055 0.52345 0.55492 0.0
C582 C 1.00049 0.4344 0.55625 0.0
C583 C 0.03635 0.46086 0.55835 0.0
loop_
_geom_bond_atom_site_label_1
_geom_bond_atom_site_label_2
_geom_bond_distance
_geom_bond_site_symmetry_2
_ccdc_geom_bond_type
Co0 N4 2.148 . S
Co0 N10 2.128 . S
Co0 N20 2.194 1_554 S
Co0 O25 2.351 . S
Co0 O26 2.155 . S
Co0 O27 2.096 . S
C1 N4 1.301 . S
C1 N5 1.328 . S
C1 H6 0.930 . S
C2 C3 1.333 . S
C2 N4 1.317 . S
C2 H7 0.930 . S
C3 C2 1.333 . S
C3 N5 1.350 . S
C3 H29 0.931 . S
N4 Co0 2.148 . S
N4 C1 1.301 . S
N4 C2 1.317 . S
N5 C1 1.328 . S
N5 C3 1.350 . S
H6 C1 0.930 . S
H7 C2 0.930 . S
C8 O9 1.224 1_554 S
C8 O27 1.247 . S
O9 C8 1.224 1_556 S
N10 Co0 2.128 . S
N10 C11 1.355 . S
N10 C13 1.311 . S
C11 N10 1.355 . S
C11 C12 1.363 1_554 S
C11 H23 0.929 1_554 S
C12 C11 1.363 1_556 S
C12 N14 1.375 1_556 S
C12 H30 0.931 . S
C13 N10 1.311 . S
C13 N14 1.347 . S
C13 H24 0.929 . S
N14 C12 1.375 1_554 S
N14 C13 1.347 . S
C15 C18 1.365 . S
C15 N20 1.328 . S
C15 H21 0.929 . S
C16 C17 1.362 . S
C16 C19 1.378 . S
C16 H31 0.929 . S
C17 C16 1.362 . S
C17 C18 1.366 . S
C18 C15 1.365 . S
C18 C17 1.366 . S
C18 H32 0.930 . S
C19 C16 1.378 . S
C19 N20 1.315 . S
C19 H22 0.930 . S
N20 Co0 2.194 1_556 S
N20 C15 1.328 . S
N20 C19 1.315 . S
H21 C15 0.929 . S
H22 C19 0.930 . S
H23 C11 0.929 1_556 S
H24 C13 0.929 . S
O25 Co0 2.351 . S
O25 C28 1.244 . S
O26 Co0 2.155 . S
O26 C28 1.240 . S
O27 Co0 2.096 . S
O27 C8 1.247 . S
C28 O25 1.244 . S
C28 O26 1.240 . S
H29 C3 0.931 . S
H30 C12 0.931 . S
H31 C16 0.929 . S
H32 C18 0.930 . S
Co33 N37 2.148 . S
Co33 N43 2.128 . S
Co33 N53 2.194 1_554 S
Co33 O58 2.351 . S
Co33 O59 2.155 . S
Co33 O60 2.096 . S
C34 N37 1.301 . S
C34 N38 1.328 . S
C34 H39 0.930 . S
C35 C36 1.333 . S
C35 N37 1.317 . S
C35 H40 0.930 . S
C36 C35 1.333 . S
C36 N38 1.350 . S
C36 H62 0.931 . S
N37 Co33 2.148 . S
N37 C34 1.301 . S
N37 C35 1.317 . S
N38 C34 1.328 . S
N38 C36 1.350 . S
H39 C34 0.930 . S
H40 C35 0.930 . S
C41 O42 1.224 1_554 S
C41 O60 1.247 . S
O42 C41 1.224 1_556 S
N43 Co33 2.128 . S
N43 C44 1.355 . S
N43 C46 1.311 . S
C44 N43 1.355 . S
C44 C45 1.363 1_554 S
C44 H56 0.929 1_554 S
C45 C44 1.363 1_556 S
C45 N47 1.375 1_556 S
C45 H63 0.931 . S
C46 N43 1.311 . S
C46 N47 1.347 . S
C46 H57 0.929 . S
N47 C45 1.375 1_554 S
N47 C46 1.347 . S
C48 C51 1.365 . S
C48 N53 1.328 . S
C48 H54 0.929 . S
C49 C50 1.362 . S
C49 C52 1.378 . S
C49 H64 0.929 . S
C50 C49 1.362 . S
C50 C51 1.366 . S
C51 C48 1.365 . S
C51 C50 1.366 . S
C51 H65 0.930 . S
C52 C49 1.378 . S
C52 N53 1.315 . S
C52 H55 0.930 . S
N53 Co33 2.194 1_556 S
N53 C48 1.328 . S
N53 C52 1.315 . S
H54 C48 0.929 . S
H55 C52 0.930 . S
H56 C44 0.929 1_556 S
H57 C46 0.929 . S
O58 Co33 2.351 . S
O58 C61 1.244 . S
O59 Co33 2.155 . S
O59 C61 1.240 . S
O60 Co33 2.096 . S
O60 C41 1.247 . S
C61 O58 1.244 . S
C61 O59 1.240 . S
H62 C36 0.931 . S
H63 C45 0.931 . S
H64 C49 0.929 . S
H65 C51 0.930 . S
Co66 N70 2.148 . S
Co66 N76 2.128 . S
Co66 N86 2.194 1_554 S
Co66 O91 2.351 . S
Co66 O92 2.155 . S
Co66 O93 2.096 . S
C67 N70 1.301 . S
C67 N71 1.328 . S
C67 H72 0.930 . S
C68 C69 1.333 . S
C68 N70 1.317 . S
C68 H73 0.930 . S
C69 C68 1.333 . S
C69 N71 1.350 . S
C69 H95 0.931 . S
N70 Co66 2.148 . S
N70 C67 1.301 . S
N70 C68 1.317 . S
N71 C67 1.328 . S
N71 C69 1.350 . S
H72 C67 0.930 . S
H73 C68 0.930 . S
C74 O75 1.224 1_554 S
C74 O93 1.247 . S
O75 C74 1.224 1_556 S
N76 Co66 2.128 . S
N76 C77 1.355 . S
N76 C79 1.311 . S
C77 N76 1.355 . S
C77 C78 1.363 1_554 S
C77 H89 0.929 1_554 S
C78 C77 1.363 1_556 S
C78 N80 1.375 1_556 S
C78 H96 0.931 . S
C79 N76 1.311 . S
C79 N80 1.347 . S
C79 H90 0.929 . S
N80 C78 1.375 1_554 S
N80 C79 1.347 . S
C81 C84 1.365 . S
C81 N86 1.328 . S
C81 H87 0.929 . S
C82 C83 1.362 . S
C82 C85 1.378 . S
C82 H97 0.929 . S
C83 C82 1.362 . S
C83 C84 1.366 . S
C84 C81 1.365 . S
C84 C83 1.366 . S
C84 H98 0.930 . S
C85 C82 1.378 . S
C85 N86 1.315 . S
C85 H88 0.930 . S
N86 Co66 2.194 1_556 S
N86 C81 1.328 . S
N86 C85 1.315 . S
H87 C81 0.929 . S
H88 C85 0.930 . S
H89 C77 0.929 1_556 S
H90 C79 0.929 . S
O91 Co66 2.351 . S
O91 C94 1.244 . S
O92 Co66 2.155 . S
O92 C94 1.240 . S
O93 Co66 2.096 . S
O93 C74 1.247 . S
C94 O91 1.244 . S
C94 O92 1.240 . S
H95 C69 0.931 . S
H96 C78 0.931 . S
H97 C82 0.929 . S
H98 C84 0.930 . S
Co99 N103 2.148 . S
Co99 N109 2.128 . S
Co99 N119 2.194 1_554 S
Co99 O124 2.351 . S
Co99 O125 2.155 . S
Co99 O126 2.096 . S
C100 N103 1.301 . S
C100 N104 1.328 . S
C100 H105 0.930 . S
C101 C102 1.333 . S
C101 N103 1.317 . S
C101 H106 0.930 . S
C102 C101 1.333 . S
C102 N104 1.350 . S
C102 H128 0.931 . S
N103 Co99 2.148 . S
N103 C100 1.301 . S
N103 C101 1.317 . S
N104 C100 1.328 . S
N104 C102 1.350 . S
H105 C100 0.930 . S
H106 C101 0.930 . S
C107 O108 1.224 1_554 S
C107 O126 1.247 . S
O108 C107 1.224 1_556 S
N109 Co99 2.128 . S
N109 C110 1.355 . S
N109 C112 1.311 . S
C110 N109 1.355 . S
C110 C111 1.363 1_554 S
C110 H122 0.929 1_554 S
C111 C110 1.363 1_556 S
C111 N113 1.375 1_556 S
C111 H129 0.931 . S
C112 N109 1.311 . S
C112 N113 1.347 . S
C112 H123 0.929 . S
N113 C111 1.375 1_554 S
N113 C112 1.347 . S
C114 C117 1.365 . S
C114 N119 1.328 . S
C114 H120 0.929 . S
C115 C116 1.362 . S
C115 C118 1.378 . S
C115 H130 0.929 . S
C116 C115 1.362 . S
C116 C117 1.366 . S
C117 C114 1.365 . S
C117 C116 1.366 . S
C117 H131 0.930 . S
C118 C115 1.378 . S
C118 N119 1.315 . S
C118 H121 0.930 . S
N119 Co99 2.194 1_556 S
N119 C114 1.328 . S
N119 C118 1.315 . S
H120 C114 0.929 . S
H121 C118 0.930 . S
H122 C110 0.929 1_556 S
H123 C112 0.929 . S
O124 Co99 2.351 . S
O124 C127 1.244 . S
O125 Co99 2.155 . S
O125 C127 1.240 . S
O126 Co99 2.096 . S
O126 C107 1.247 . S
C127 O124 1.244 . S
C127 O125 1.240 . S
H128 C102 0.931 . S
H129 C111 0.931 . S
H130 C115 0.929 . S
H131 C117 0.930 . S
Co132 N136 2.148 . S
Co132 N142 2.128 . S
Co132 N152 2.194 . S
Co132 O157 2.351 . S
Co132 O158 2.155 . S
Co132 O159 2.096 . S
C133 N136 1.301 . S
C133 N137 1.328 . S
C133 H138 0.930 . S
C134 C135 1.333 . S
C134 N136 1.317 . S
C134 H139 0.930 . S
C135 C134 1.333 . S
C135 N137 1.350 . S
C135 H161 0.931 . S
N136 Co132 2.148 . S
N136 C133 1.301 . S
N136 C134 1.317 . S
N137 C133 1.328 . S
N137 C135 1.350 . S
H138 C133 0.930 . S
H139 C134 0.930 . S
C140 O141 1.224 . S
C140 O159 1.247 . S
O141 C140 1.224 . S
N142 Co132 2.128 . S
N142 C143 1.355 . S
N142 C145 1.311 . S
C143 N142 1.355 . S
C143 C144 1.363 . S
C143 H155 0.929 . S
C144 C143 1.363 . S
C144 N146 1.375 . S
C144 H162 0.931 . S
C145 N142 1.311 . S
C145 N146 1.347 . S
C145 H156 0.929 . S
N146 C144 1.375 . S
N146 C145 1.347 . S
C147 C150 1.365 . S
C147 N152 1.328 . S
C147 H153 0.929 . S
C148 C149 1.362 . S
C148 C151 1.378 . S
C148 H163 0.929 . S
C149 C148 1.362 . S
C149 C150 1.366 . S
C150 C147 1.365 . S
C150 C149 1.366 . S
C150 H164 0.930 . S
C151 C148 1.378 . S
C151 N152 1.315 . S
C151 H154 0.930 . S
N152 Co132 2.194 . S
N152 C147 1.328 . S
N152 C151 1.315 . S
H153 C147 0.929 . S
H154 C151 0.930 . S
H155 C143 0.929 . S
H156 C145 0.929 . S
O157 Co132 2.351 . S
O157 C160 1.244 . S
O158 Co132 2.155 . S
O158 C160 1.240 . S
O159 Co132 2.096 . S
O159 C140 1.247 . S
C160 O157 1.244 . S
C160 O158 1.240 . S
H161 C135 0.931 . S
H162 C144 0.931 . S
H163 C148 0.929 . S
H164 C150 0.930 . S
Co165 N169 2.148 . S
Co165 N175 2.128 . S
Co165 N185 2.194 . S
Co165 O190 2.351 . S
Co165 O191 2.155 . S
Co165 O192 2.096 . S
C166 N169 1.301 . S
C166 N170 1.328 . S
C166 H171 0.930 . S
C167 C168 1.333 . S
C167 N169 1.317 . S
C167 H172 0.930 . S
C168 C167 1.333 . S
C168 N170 1.350 . S
C168 H194 0.931 . S
N169 Co165 2.148 . S
N169 C166 1.301 . S
N169 C167 1.317 . S
N170 C166 1.328 . S
N170 C168 1.350 . S
H171 C166 0.930 . S
H172 C167 0.930 . S
C173 O174 1.224 . S
C173 O192 1.247 . S
O174 C173 1.224 . S
N175 Co165 2.128 . S
N175 C176 1.355 . S
N175 C178 1.311 . S
C176 N175 1.355 . S
C176 C177 1.363 . S
C176 H188 0.929 . S
C177 C176 1.363 . S
C177 N179 1.375 . S
C177 H195 0.931 . S
C178 N175 1.311 . S
C178 N179 1.347 . S
C178 H189 0.929 . S
N179 C177 1.375 . S
N179 C178 1.347 . S
C180 C183 1.365 . S
C180 N185 1.328 . S
C180 H186 0.929 . S
C181 C182 1.362 . S
C181 C184 1.378 . S
C181 H196 0.929 . S
C182 C181 1.362 . S
C182 C183 1.366 . S
C183 C180 1.365 . S
C183 C182 1.366 . S
C183 H197 0.930 . S
C184 C181 1.378 . S
C184 N185 1.315 . S
C184 H187 0.930 . S
N185 Co165 2.194 . S
N185 C180 1.328 . S
N185 C184 1.315 . S
H186 C180 0.929 . S
H187 C184 0.930 . S
H188 C176 0.929 . S
H189 C178 0.929 . S
O190 Co165 2.351 . S
O190 C193 1.244 . S
O191 Co165 2.155 . S
O191 C193 1.240 . S
O192 Co165 2.096 . S
O192 C173 1.247 . S
C193 O190 1.244 . S
C193 O191 1.240 . S
H194 C168 0.931 . S
H195 C177 0.931 . S
H196 C181 0.929 . S
H197 C183 0.930 . S
Co198 N202 2.148 . S
Co198 N208 2.128 . S
Co198 N218 2.194 . S
Co198 O223 2.351 . S
Co198 O224 2.155 . S
Co198 O225 2.096 . S
C199 N202 1.301 . S
C199 N203 1.328 . S
C199 H204 0.930 . S
C200 C201 1.333 . S
C200 N202 1.317 . S
C200 H205 0.930 . S
C201 C200 1.333 . S
C201 N203 1.350 . S
C201 H227 0.931 . S
N202 Co198 2.148 . S
N202 C199 1.301 . S
N202 C200 1.317 . S
N203 C199 1.328 . S
N203 C201 1.350 . S
H204 C199 0.930 . S
H205 C200 0.930 . S
C206 O207 1.224 . S
C206 O225 1.247 . S
O207 C206 1.224 . S
N208 Co198 2.128 . S
N208 C209 1.355 . S
N208 C211 1.311 . S
C209 N208 1.355 . S
C209 C210 1.363 . S
C209 H221 0.929 . S
C210 C209 1.363 . S
C210 N212 1.375 . S
C210 H228 0.931 . S
C211 N208 1.311 . S
C211 N212 1.347 . S
C211 H222 0.929 . S
N212 C210 1.375 . S
N212 C211 1.347 . S
C213 C216 1.365 . S
C213 N218 1.328 . S
C213 H219 0.929 . S
C214 C215 1.362 . S
C214 C217 1.378 . S
C214 H229 0.929 . S
C215 C214 1.362 . S
C215 C216 1.366 . S
C216 C213 1.365 . S
C216 C215 1.366 . S
C216 H230 0.930 . S
C217 C214 1.378 . S
C217 N218 1.315 . S
C217 H220 0.930 . S
N218 Co198 2.194 . S
N218 C213 1.328 . S
N218 C217 1.315 . S
H219 C213 0.929 . S
H220 C217 0.930 . S
H221 C209 0.929 . S
H222 C211 0.929 . S
O223 Co198 2.351 . S
O223 C226 1.244 . S
O224 Co198 2.155 . S
O224 C226 1.240 . S
O225 Co198 2.096 . S
O225 C206 1.247 . S
C226 O223 1.244 . S
C226 O224 1.240 . S
H227 C201 0.931 . S
H228 C210 0.931 . S
H229 C214 0.929 . S
H230 C216 0.930 . S
Co231 N235 2.148 . S
Co231 N241 2.128 . S
Co231 N251 2.194 . S
Co231 O256 2.351 . S
Co231 O257 2.155 . S
Co231 O258 2.096 . S
C232 N235 1.301 . S
C232 N236 1.328 . S
C232 H237 0.930 . S
C233 C234 1.333 . S
C233 N235 1.317 . S
C233 H238 0.930 . S
C234 C233 1.333 . S
C234 N236 1.350 . S
C234 H260 0.931 . S
N235 Co231 2.148 . S
N235 C232 1.301 . S
N235 C233 1.317 . S
N236 C232 1.328 . S
N236 C234 1.350 . S
H237 C232 0.930 . S
H238 C233 0.930 . S
C239 O240 1.224 . S
C239 O258 1.247 . S
O240 C239 1.224 . S
N241 Co231 2.128 . S
N241 C242 1.355 . S
N241 C244 1.311 . S
C242 N241 1.355 . S
C242 C243 1.363 . S
C242 H254 0.929 . S
C243 C242 1.363 . S
C243 N245 1.375 . S
C243 H261 0.931 . S
C244 N241 1.311 . S
C244 N245 1.347 . S
C244 H255 0.929 . S
N245 C243 1.375 . S
N245 C244 1.347 . S
C246 C249 1.365 . S
C246 N251 1.328 . S
C246 H252 0.929 . S
C247 C248 1.362 . S
C247 C250 1.378 . S
C247 H262 0.929 . S
C248 C247 1.362 . S
C248 C249 1.366 . S
C249 C246 1.365 . S
C249 C248 1.366 . S
C249 H263 0.930 . S
C250 C247 1.378 . S
C250 N251 1.315 . S
C250 H253 0.930 . S
N251 Co231 2.194 . S
N251 C246 1.328 . S
N251 C250 1.315 . S
H252 C246 0.929 . S
H253 C250 0.930 . S
H254 C242 0.929 . S
H255 C244 0.929 . S
O256 Co231 2.351 . S
O256 C259 1.244 . S
O257 Co231 2.155 . S
O257 C259 1.240 . S
O258 Co231 2.096 . S
O258 C239 1.247 . S
C259 O256 1.244 . S
C259 O257 1.240 . S
H260 C234 0.931 . S
H261 C243 0.931 . S
H262 C247 0.929 . S
H263 C249 0.930 . S
H264 C270 0.930 . S
H265 C273 0.930 . S
H266 C274 0.930 . S
H267 C275 0.930 . S
H268 C278 0.930 . S
H269 C279 0.930 . S
C270 H264 0.930 . S
C270 C271 1.355 1_556 S
C270 C272 1.415 . S
C271 C270 1.355 1_554 S
C271 C273 1.419 . S
C272 C270 1.415 . S
C272 C277 1.425 1_556 S
C272 C279 1.409 . S
C273 H265 0.930 . S
C273 C271 1.419 . S
C273 C274 1.362 . S
C274 H266 0.930 . S
C274 C273 1.362 . S
C274 C277 1.409 . S
C275 H267 0.930 . S
C275 C276 1.355 . S
C275 C277 1.415 . S
C276 C275 1.355 . S
C276 C278 1.419 1_554 S
C277 C272 1.425 1_554 S
C277 C274 1.409 . S
C277 C275 1.415 . S
C278 H268 0.930 . S
C278 C276 1.419 1_556 S
C278 C279 1.362 . S
C279 H269 0.930 . S
C279 C272 1.409 . S
C279 C278 1.362 . S
H280 C286 0.930 . S
H281 C289 0.930 . S
H282 C290 0.930 . S
H283 C291 0.930 . S
H284 C294 0.930 . S
H285 C295 0.930 1_556 S
C286 H280 0.930 . S
C286 C287 1.355 . S
C286 C288 1.415 . S
C287 C286 1.355 . S
C287 C289 1.419 . S
C288 C286 1.415 . S
C288 C293 1.425 . S
C288 C295 1.409 . S
C289 H281 0.930 . S
C289 C287 1.419 . S
C289 C290 1.362 . S
C290 H282 0.930 . S
C290 C289 1.362 . S
C290 C293 1.409 . S
C291 H283 0.930 . S
C291 C292 1.355 . S
C291 C293 1.415 . S
C292 C291 1.355 . S
C292 C294 1.419 1_554 S
C293 C288 1.425 . S
C293 C290 1.409 . S
C293 C291 1.415 . S
C294 H284 0.930 . S
C294 C292 1.419 1_556 S
C294 C295 1.362 1_556 S
C295 H285 0.930 1_554 S
C295 C288 1.409 . S
C295 C294 1.362 1_554 S
H296 C302 0.930 . S
H297 C305 0.930 . S
H298 C306 0.930 . S
H299 C307 0.930 . S
H300 C310 0.930 . S
H301 C311 0.930 . S
C302 H296 0.930 . S
C302 C303 1.355 . S
C302 C304 1.415 . S
C303 C302 1.355 . S
C303 C305 1.419 . S
C304 C302 1.415 . S
C304 C309 1.425 . S
C304 C311 1.409 1_554 S
C305 H297 0.930 . S
C305 C303 1.419 . S
C305 C306 1.362 . S
C306 H298 0.930 . S
C306 C305 1.362 . S
C306 C309 1.409 . S
C307 H299 0.930 . S
C307 C308 1.355 . S
C307 C309 1.415 . S
C308 C307 1.355 . S
C308 C310 1.419 1_554 S
C309 C304 1.425 . S
C309 C306 1.409 . S
C309 C307 1.415 . S
C310 H300 0.930 . S
C310 C308 1.419 1_556 S
C310 C311 1.362 . S
C311 H301 0.930 . S
C311 C304 1.409 1_556 S
C311 C310 1.362 . S
H312 C318 0.930 . S
H313 C321 0.930 . S
H314 C322 0.930 . S
H315 C323 0.930 1_556 S
H316 C326 0.930 . S
H317 C327 0.930 . S
C318 H312 0.930 . S
C318 C319 1.355 . S
C318 C320 1.415 . S
C319 C318 1.355 . S
C319 C321 1.419 1_554 S
C320 C318 1.415 . S
C320 C325 1.425 . S
C320 C327 1.409 . S
C321 H313 0.930 . S
C321 C319 1.419 1_556 S
C321 C322 1.362 . S
C322 H314 0.930 . S
C322 C321 1.362 . S
C322 C325 1.409 1_556 S
C323 H315 0.930 1_554 S
C323 C324 1.355 . S
C323 C325 1.415 . S
C324 C323 1.355 . S
C324 C326 1.419 . S
C325 C320 1.425 . S
C325 C322 1.409 1_554 S
C325 C323 1.415 . S
C326 H316 0.930 . S
C326 C324 1.419 . S
C326 C327 1.362 . S
C327 H317 0.930 . S
C327 C320 1.409 . S
C327 C326 1.362 . S
H328 C334 0.930 . S
H329 C337 0.930 . S
H330 C338 0.930 . S
H331 C339 0.930 . S
H332 C342 0.930 . S
H333 C343 0.930 . S
C334 H328 0.930 . S
C334 C335 1.355 1_655 S
C334 C336 1.415 . S
C335 C334 1.355 1_455 S
C335 C337 1.419 . S
C336 C334 1.415 . S
C336 C341 1.425 . S
C336 C343 1.409 . S
C337 H329 0.930 . S
C337 C335 1.419 . S
C337 C338 1.362 1_455 S
C338 H330 0.930 . S
C338 C337 1.362 1_655 S
C338 C341 1.409 . S
C339 H331 0.930 . S
C339 C340 1.355 . S
C339 C341 1.415 . S
C340 C339 1.355 . S
C340 C342 1.419 . S
C341 C336 1.425 . S
C341 C338 1.409 . S
C341 C339 1.415 . S
C342 H332 0.930 . S
C342 C340 1.419 . S
C342 C343 1.362 . S
C343 H333 0.930 . S
C343 C336 1.409 . S
C343 C342 1.362 . S
H344 C350 0.930 1_545 S
H345 C353 0.930 . S
H346 C354 0.930 . S
H347 C355 0.930 . S
H348 C358 0.930 . S
H349 C359 0.930 . S
C350 H344 0.930 1_565 S
C350 C351 1.355 1_565 S
C350 C352 1.415 . S
C351 C350 1.355 1_545 S
C351 C353 1.419 . S
C352 C350 1.415 . S
C352 C357 1.425 . S
C352 C359 1.409 . S
C353 H345 0.930 . S
C353 C351 1.419 . S
C353 C354 1.362 1_545 S
C354 H346 0.930 . S
C354 C353 1.362 1_565 S
C354 C357 1.409 . S
C355 H347 0.930 . S
C355 C356 1.355 . S
C355 C357 1.415 . S
C356 C355 1.355 . S
C356 C358 1.419 . S
C357 C352 1.425 . S
C357 C354 1.409 . S
C357 C355 1.415 . S
C358 H348 0.930 . S
C358 C356 1.419 . S
C358 C359 1.362 . S
C359 H349 0.930 . S
C359 C352 1.409 . S
C359 C358 1.362 . S
H360 C366 0.930 . S
H361 C369 0.930 . S
H362 C370 0.930 . S
H363 C371 0.930 . S
H364 C374 0.930 . S
H365 C375 0.930 . S
C366 H360 0.930 . S
C366 C367 1.355 . S
C366 C368 1.415 . S
C367 C366 1.355 . S
C367 C369 1.419 . S
C368 C366 1.415 . S
C368 C373 1.425 . S
C368 C375 1.409 . S
C369 H361 0.930 . S
C369 C367 1.419 . S
C369 C370 1.362 . S
C370 H362 0.930 . S
C370 C369 1.362 . S
C370 C373 1.409 . S
C371 H363 0.930 . S
C371 C372 1.355 . S
C371 C373 1.415 1_655 S
C372 C371 1.355 . S
C372 C374 1.419 . S
C373 C368 1.425 . S
C373 C370 1.409 . S
C373 C371 1.415 1_455 S
C374 H364 0.930 . S
C374 C372 1.419 . S
C374 C375 1.362 1_655 S
C375 H365 0.930 . S
C375 C368 1.409 . S
C375 C374 1.362 1_455 S
H376 C382 0.930 . S
H377 C385 0.930 . S
H378 C386 0.930 . S
H379 C387 0.930 . S
H380 C390 0.930 . S
H381 C391 0.930 . S
C382 H376 0.930 . S
C382 C383 1.355 . S
C382 C384 1.415 . S
C383 C382 1.355 . S
C383 C385 1.419 . S
C384 C382 1.415 . S
C384 C389 1.425 . S
C384 C391 1.409 . S
C385 H377 0.930 . S
C385 C383 1.419 . S
C385 C386 1.362 . S
C386 H378 0.930 . S
C386 C385 1.362 . S
C386 C389 1.409 . S
C387 H379 0.930 . S
C387 C388 1.355 1_545 S
C387 C389 1.415 . S
C388 C387 1.355 1_565 S
C388 C390 1.419 . S
C389 C384 1.425 . S
C389 C386 1.409 . S
C389 C387 1.415 . S
C390 H380 0.930 . S
C390 C388 1.419 . S
C390 C391 1.362 1_565 S
C391 H381 0.930 . S
C391 C384 1.409 . S
C391 C390 1.362 1_545 S
H392 C398 0.930 . S
H393 C401 0.930 . S
H394 C402 0.930 . S
H395 C403 0.930 . S
H396 C406 0.930 . S
H397 C407 0.930 . S
C398 H392 0.930 . S
C398 C399 1.355 . S
C398 C400 1.415 . S
C399 C398 1.355 . S
C399 C401 1.419 . S
C400 C398 1.415 . S
C400 C405 1.425 . S
C400 C407 1.409 . S
C401 H393 0.930 . S
C401 C399 1.419 . S
C401 C402 1.362 . S
C402 H394 0.930 . S
C402 C401 1.362 . S
C402 C405 1.409 . S
C403 H395 0.930 . S
C403 C404 1.355 . S
C403 C405 1.415 . S
C404 C403 1.355 . S
C404 C406 1.419 . S
C405 C400 1.425 . S
C405 C402 1.409 . S
C405 C403 1.415 . S
C406 H396 0.930 . S
C406 C404 1.419 . S
C406 C407 1.362 . S
C407 H397 0.930 . S
C407 C400 1.409 . S
C407 C406 1.362 . S
H408 C414 0.930 . S
H409 C417 0.930 . S
H410 C418 0.930 . S
H411 C419 0.930 . S
H412 C422 0.930 . S
H413 C423 0.930 . S
C414 H408 0.930 . S
C414 C415 1.355 . S
C414 C416 1.415 . S
C415 C414 1.355 . S
C415 C417 1.419 . S
C416 C414 1.415 . S
C416 C421 1.425 . S
C416 C423 1.409 . S
C417 H409 0.930 . S
C417 C415 1.419 . S
C417 C418 1.362 . S
C418 H410 0.930 . S
C418 C417 1.362 . S
C418 C421 1.409 . S
C419 H411 0.930 . S
C419 C420 1.355 . S
C419 C421 1.415 . S
C420 C419 1.355 . S
C420 C422 1.419 . S
C421 C416 1.425 . S
C421 C418 1.409 . S
C421 C419 1.415 . S
C422 H412 0.930 . S
C422 C420 1.419 . S
C422 C423 1.362 . S
C423 H413 0.930 . S
C423 C416 1.409 . S
C423 C422 1.362 . S
H424 C430 0.930 . S
H425 C433 0.930 . S
H426 C434 0.930 . S
H427 C435 0.930 . S
H428 C438 0.930 . S
H429 C439 0.930 . S
C430 H424 0.930 . S
C430 C431 1.355 . S
C430 C432 1.415 . S
C431 C430 1.355 . S
C431 C433 1.419 . S
C432 C430 1.415 . S
C432 C437 1.425 . S
C432 C439 1.409 . S
C433 H425 0.930 . S
C433 C431 1.419 . S
C433 C434 1.362 . S
C434 H426 0.930 . S
C434 C433 1.362 . S
C434 C437 1.409 . S
C435 H427 0.930 . S
C435 C436 1.355 . S
C435 C437 1.415 . S
C436 C435 1.355 . S
C436 C438 1.419 . S
C437 C432 1.425 . S
C437 C434 1.409 . S
C437 C435 1.415 . S
C438 H428 0.930 . S
C438 C436 1.419 . S
C438 C439 1.362 . S
C439 H429 0.930 . S
C439 C432 1.409 . S
C439 C438 1.362 . S
H440 C446 0.930 . S
H441 C449 0.930 . S
H442 C450 0.930 . S
H443 C451 0.930 . S
H444 C454 0.930 . S
H445 C455 0.930 . S
C446 H440 0.930 . S
C446 C447 1.355 . S
C446 C448 1.415 . S
C447 C446 1.355 . S
C447 C449 1.419 . S
C448 C446 1.415 . S
C448 C453 1.425 . S
C448 C455 1.409 . S
C449 H441 0.930 . S
C449 C447 1.419 . S
C449 C450 1.362 . S
C450 H442 0.930 . S
C450 C449 1.362 . S
C450 C453 1.409 . S
C451 H443 0.930 . S
C451 C452 1.355 . S
C451 C453 1.415 . S
C452 C451 1.355 . S
C452 C454 1.419 . S
C453 C448 1.425 . S
C453 C450 1.409 . S
C453 C451 1.415 . S
C454 H444 0.930 . S
C454 C452 1.419 . S
C454 C455 1.362 . S
C455 H445 0.930 . S
C455 C448 1.409 . S
C455 C454 1.362 . S
H456 C462 0.930 . S
H457 C465 0.930 . S
H458 C466 0.930 . S
H459 C467 0.930 . S
H460 C470 0.930 . S
H461 C471 0.930 . S
C462 H456 0.930 . S
C462 C463 1.355 . S
C462 C464 1.415 . S
C463 C462 1.355 . S
C463 C465 1.419 . S
C464 C462 1.415 . S
C464 C469 1.425 . S
C464 C471 1.409 . S
C465 H457 0.930 . S
C465 C463 1.419 . S
C465 C466 1.362 . S
C466 H458 0.930 . S
C466 C465 1.362 . S
C466 C469 1.409 . S
C467 H459 0.930 . S
C467 C468 1.355 . S
C467 C469 1.415 . S
C468 C467 1.355 . S
C468 C470 1.419 . S
C469 C464 1.425 . S
C469 C466 1.409 . S
C469 C467 1.415 . S
C470 H460 0.930 . S
C470 C468 1.419 . S
C470 C471 1.362 . S
C471 H461 0.930 . S
C471 C464 1.409 . S
C471 C470 1.362 . S
H472 C478 0.930 . S
H473 C481 0.930 . S
H474 C482 0.930 . S
H475 C483 0.930 . S
H476 C486 0.930 . S
H477 C487 0.930 . S
C478 H472 0.930 . S
C478 C479 1.355 . S
C478 C480 1.415 . S
C479 C478 1.355 . S
C479 C481 1.419 . S
C480 C478 1.415 . S
C480 C485 1.425 . S
C480 C487 1.409 . S
C481 H473 0.930 . S
C481 C479 1.419 . S
C481 C482 1.362 . S
C482 H474 0.930 . S
C482 C481 1.362 . S
C482 C485 1.409 . S
C483 H475 0.930 . S
C483 C484 1.355 . S
C483 C485 1.415 . S
C484 C483 1.355 . S
C484 C486 1.419 . S
C485 C480 1.425 . S
C485 C482 1.409 . S
C485 C483 1.415 . S
C486 H476 0.930 . S
C486 C484 1.419 . S
C486 C487 1.362 . S
C487 H477 0.930 . S
C487 C480 1.409 . S
C487 C486 1.362 . S
H488 C494 0.930 . S
H489 C497 0.930 . S
H490 C498 0.930 . S
H491 C499 0.930 . S
H492 C502 0.930 . S
H493 C503 0.930 . S
C494 H488 0.930 . S
C494 C495 1.355 . S
C494 C496 1.415 . S
C495 C494 1.355 . S
C495 C497 1.419 . S
C496 C494 1.415 . S
C496 C501 1.425 . S
C496 C503 1.409 . S
C497 H489 0.930 . S
C497 C495 1.419 . S
C497 C498 1.362 . S
C498 H490 0.930 . S
C498 C497 1.362 . S
C498 C501 1.409 . S
C499 H491 0.930 . S
C499 C500 1.355 . S
C499 C501 1.415 . S
C500 C499 1.355 . S
C500 C502 1.419 . S
C501 C496 1.425 . S
C501 C498 1.409 . S
C501 C499 1.415 . S
C502 H492 0.930 . S
C502 C500 1.419 . S
C502 C503 1.362 . S
C503 H493 0.930 . S
C503 C496 1.409 . S
C503 C502 1.362 . S
H504 C510 0.930 . S
H505 C513 0.930 . S
H506 C514 0.930 . S
H507 C515 0.930 . S
H508 C518 0.930 . S
H509 C519 0.930 . S
C510 H504 0.930 . S
C510 C511 1.355 . S
C510 C512 1.415 . S
C511 C510 1.355 . S
C511 C513 1.419 . S
C512 C510 1.415 . S
C512 C517 1.425 . S
C512 C519 1.409 . S
C513 H505 0.930 . S
C513 C511 1.419 . S
C513 C514 1.362 . S
C514 H506 0.930 . S
C514 C513 1.362 . S
C514 C517 1.409 . S
C515 H507 0.930 . S
C515 C516 1.355 . S
C515 C517 1.415 . S
C516 C515 1.355 . S
C516 C518 1.419 . S
C517 C512 1.425 . S
C517 C514 1.409 . S
C517 C515 1.415 . S
C518 H508 0.930 . S
C518 C516 1.419 . S
C518 C519 1.362 . S
C519 H509 0.930 . S
C519 C512 1.409 . S
C519 C518 1.362 . S
H520 C526 0.930 . S
H521 C529 0.930 . S
H522 C530 0.930 . S
H523 C531 0.930 . S
H524 C534 0.930 . S
H525 C535 0.930 . S
C526 H520 0.930 . S
C526 C527 1.355 . S
C526 C528 1.415 1_655 S
C527 C526 1.355 . S
C527 C529 1.419 1_554 S
C528 C526 1.415 1_455 S
C528 C533 1.425 1_454 S
C528 C535 1.409 . S
C529 H521 0.930 . S
C529 C527 1.419 1_556 S
C529 C530 1.362 . S
C530 H522 0.930 . S
C530 C529 1.362 . S
C530 C533 1.409 . S
C531 H523 0.930 . S
C531 C532 1.355 1_556 S
C531 C533 1.415 1_455 S
C532 C531 1.355 1_554 S
C532 C534 1.419 . S
C533 C528 1.425 1_656 S
C533 C530 1.409 . S
C533 C531 1.415 1_655 S
C534 H524 0.930 . S
C534 C532 1.419 . S
C534 C535 1.362 . S
C535 H525 0.930 . S
C535 C528 1.409 . S
C535 C534 1.362 . S
H536 C542 0.930 . S
H537 C545 0.930 . S
H538 C546 0.930 . S
H539 C547 0.930 . S
H540 C550 0.930 . S
H541 C551 0.930 . S
C542 H536 0.930 . S
C542 C543 1.355 1_556 S
C542 C544 1.415 1_546 S
C543 C542 1.355 1_554 S
C543 C545 1.419 . S
C544 C542 1.415 1_564 S
C544 C549 1.425 1_565 S
C544 C551 1.409 1_554 S
C545 H537 0.930 . S
C545 C543 1.419 . S
C545 C546 1.362 . S
C546 H538 0.930 . S
C546 C545 1.362 . S
C546 C549 1.409 . S
C547 H539 0.930 . S
C547 C548 1.355 . S
C547 C549 1.415 1_565 S
C548 C547 1.355 . S
C548 C550 1.419 1_554 S
C549 C544 1.425 1_545 S
C549 C546 1.409 . S
C549 C547 1.415 1_545 S
C550 H540 0.930 . S
C550 C548 1.419 1_556 S
C550 C551 1.362 . S
C551 H541 0.930 . S
C551 C544 1.409 1_556 S
C551 C550 1.362 . S
H552 C558 0.930 . S
H553 C561 0.930 . S
H554 C562 0.930 . S
H555 C563 0.930 . S
H556 C566 0.930 . S
H557 C567 0.930 . S
C558 H552 0.930 . S
C558 C559 1.355 . S
C558 C560 1.415 . S
C559 C558 1.355 . S
C559 C561 1.419 . S
C560 C558 1.415 . S
C560 C565 1.425 1_545 S
C560 C567 1.409 1_545 S
C561 H553 0.930 . S
C561 C559 1.419 . S
C561 C562 1.362 . S
C562 H554 0.930 . S
C562 C561 1.362 . S
C562 C565 1.409 1_545 S
C563 H555 0.930 . S
C563 C564 1.355 . S
C563 C565 1.415 . S
C564 C563 1.355 . S
C564 C566 1.419 . S
C565 C560 1.425 1_565 S
C565 C562 1.409 1_565 S
C565 C563 1.415 . S
C566 H556 0.930 . S
C566 C564 1.419 . S
C566 C567 1.362 . S
C567 H557 0.930 . S
C567 C560 1.409 1_565 S
C567 C566 1.362 . S
H568 C574 0.930 . S
H569 C577 0.930 . S
H570 C578 0.930 . S
H571 C579 0.930 . S
H572 C582 0.930 . S
H573 C583 0.930 . S
C574 H568 0.930 . S
C574 C575 1.355 . S
C574 C576 1.415 . S
C575 C574 1.355 . S
C575 C577 1.419 . S
C576 C574 1.415 . S
C576 C581 1.425 1_455 S
C576 C583 1.409 . S
C577 H569 0.930 . S
C577 C575 1.419 . S
C577 C578 1.362 1_455 S
C578 H570 0.930 . S
C578 C577 1.362 1_655 S
C578 C581 1.409 . S
C579 H571 0.930 . S
C579 C580 1.355 . S
C579 C581 1.415 . S
C580 C579 1.355 . S
C580 C582 1.419 . S
C581 C576 1.425 1_655 S
C581 C578 1.409 . S
C581 C579 1.415 . S
C582 H572 0.930 . S
C582 C580 1.419 . S
C582 C583 1.362 1_655 S
C583 H573 0.930 . S
C583 C576 1.409 . S
C583 C582 1.362 1_455 S
C271 C41 0.911 . S
C276 N5 0.876 . S
C287 N38 0.949 . S
C292 C74 0.906 . S
C303 N71 0.950 . S
C308 C107 0.907 . S
C319 C8 0.926 . S
C324 N104 0.847 . S
C335 C173 0.913 . S
C340 N137 0.952 . S
C351 C206 0.919 . S
C356 N170 0.937 . S
C367 N203 0.925 . S
C372 C239 0.922 . S
C383 N236 0.909 . S
C388 C140 0.906 . S
C399 C215 1.564 . S
C404 C28 1.592 . S
C415 C61 1.550 . S
C420 C248 1.499 . S
C431 C94 1.582 . S
C436 C149 1.536 . S
C447 C127 1.581 . S
C452 C182 1.534 . S
C463 C160 1.594 . S
C468 C83 1.564 . S
C479 C193 1.586 . S
C484 C116 1.548 . S
C495 C226 1.593 . S
C500 C17 1.575 . S
C511 C50 1.554 . S
C516 C259 1.575 . S
C527 N80 2.099 . S
C532 N14 2.097 . S
C543 N47 2.103 . S
C548 N113 2.103 . S
C559 N212 2.095 . S
C564 N146 2.093 . S
C575 N179 2.102 . S
C580 N245 2.103 . S
