# Generated by pormake.
# Topology lcy-e, (6)-cn, num edge types: 1
# Building blocks:
#     Node 0, Type 0, BuildingBlock: GEDQOX_clean_sbu_0, # of connection points: 6
#     Node 1, Type 0, BuildingBlock: GEDQOX_clean_sbu_0, # of connection points: 6
#     Node 2, Type 0, BuildingBlock: GEDQOX_clean_sbu_0, # of connection points: 6
#     Node 3, Type 0, BuildingBlock: GEDQOX_clean_sbu_0, # of connection points: 6
#     Node 4, Type 0, BuildingBlock: GEDQOX_clean_sbu_0, # of connection points: 6
#     Node 5, Type 0, BuildingBlock: GEDQOX_clean_sbu_0, # of connection points: 6
#     Node 6, Type 0, BuildingBlock: GEDQOX_clean_sbu_0, # of connection points: 6
#     Node 7, Type 0, BuildingBlock: GEDQOX_clean_sbu_0, # of connection points: 6
#     Node 8, Type 0, BuildingBlock: GEDQOX_clean_sbu_0, # of connection points: 6
#     Node 9, Type 0, BuildingBlock: GEDQOX_clean_sbu_0, # of connection points: 6
#     Node 10, Type 0, BuildingBlock: GEDQOX_clean_sbu_0, # of connection points: 6
#     Node 11, Type 0, BuildingBlock: GEDQOX_clean_sbu_0, # of connection points: 6
#     Edge 12, Type (0, 0), BuildingBlock: OJICUG_clean_linker_0, # of connection points: 2
#     Edge 13, Type (0, 0), BuildingBlock: OJICUG_clean_linker_0, # of connection points: 2
#     Edge 14, Type (0, 0), BuildingBlock: OJICUG_clean_linker_0, # of connection points: 2
#     Edge 15, Type (0, 0), BuildingBlock: OJICUG_clean_linker_0, # of connection points: 2
#     Edge 16, Type (0, 0), BuildingBlock: OJICUG_clean_linker_0, # of connection points: 2
#     Edge 17, Type (0, 0), BuildingBlock: OJICUG_clean_linker_0, # of connection points: 2
#     Edge 18, Type (0, 0), BuildingBlock: OJICUG_clean_linker_0, # of connection points: 2
#     Edge 19, Type (0, 0), BuildingBlock: OJICUG_clean_linker_0, # of connection points: 2
#     Edge 20, Type (0, 0), BuildingBlock: OJICUG_clean_linker_0, # of connection points: 2
#     Edge 21, Type (0, 0), BuildingBlock: OJICUG_clean_linker_0, # of connection points: 2
#     Edge 22, Type (0, 0), BuildingBlock: OJICUG_clean_linker_0, # of connection points: 2
#     Edge 23, Type (0, 0), BuildingBlock: OJICUG_clean_linker_0, # of connection points: 2
#     Edge 24, Type (0, 0), BuildingBlock: OJICUG_clean_linker_0, # of connection points: 2
#     Edge 25, Type (0, 0), BuildingBlock: OJICUG_clean_linker_0, # of connection points: 2
#     Edge 26, Type (0, 0), BuildingBlock: OJICUG_clean_linker_0, # of connection points: 2
#     Edge 27, Type (0, 0), BuildingBlock: OJICUG_clean_linker_0, # of connection points: 2
#     Edge 28, Type (0, 0), BuildingBlock: OJICUG_clean_linker_0, # of connection points: 2
#     Edge 29, Type (0, 0), BuildingBlock: OJICUG_clean_linker_0, # of connection points: 2
#     Edge 30, Type (0, 0), BuildingBlock: OJICUG_clean_linker_0, # of connection points: 2
#     Edge 31, Type (0, 0), BuildingBlock: OJICUG_clean_linker_0, # of connection points: 2
#     Edge 32, Type (0, 0), BuildingBlock: OJICUG_clean_linker_0, # of connection points: 2
#     Edge 33, Type (0, 0), BuildingBlock: OJICUG_clean_linker_0, # of connection points: 2
#     Edge 34, Type (0, 0), BuildingBlock: OJICUG_clean_linker_0, # of connection points: 2
#     Edge 35, Type (0, 0), BuildingBlock: OJICUG_clean_linker_0, # of connection points: 2
#     Edge 36, Type (0, 0), BuildingBlock: OJICUG_clean_linker_0, # of connection points: 2
#     Edge 37, Type (0, 0), BuildingBlock: OJICUG_clean_linker_0, # of connection points: 2
#     Edge 38, Type (0, 0), BuildingBlock: OJICUG_clean_linker_0, # of connection points: 2
#     Edge 39, Type (0, 0), BuildingBlock: OJICUG_clean_linker_0, # of connection points: 2
#     Edge 40, Type (0, 0), BuildingBlock: OJICUG_clean_linker_0, # of connection points: 2
#     Edge 41, Type (0, 0), BuildingBlock: OJICUG_clean_linker_0, # of connection points: 2
#     Edge 42, Type (0, 0), BuildingBlock: OJICUG_clean_linker_0, # of connection points: 2
#     Edge 43, Type (0, 0), BuildingBlock: OJICUG_clean_linker_0, # of connection points: 2
#     Edge 44, Type (0, 0), BuildingBlock: OJICUG_clean_linker_0, # of connection points: 2
#     Edge 45, Type (0, 0), BuildingBlock: OJICUG_clean_linker_0, # of connection points: 2
#     Edge 46, Type (0, 0), BuildingBlock: OJICUG_clean_linker_0, # of connection points: 2
#     Edge 47, Type (0, 0), BuildingBlock: OJICUG_clean_linker_0, # of connection points: 2
# Relax obj value: 0.434
# Max RMSD: 0.359
# Mean RMSD: 0.267
data_MOF--net-lcy-e--node1-GEDQOX_clean_sbu_0--edge1-OJICUG_clean_linker_0
_symmetry_space_group_name_H-M    P1
_symmetry_Int_Tables_number       1
_symmetry_cell_setting            triclinic
loop_
_symmetry_equiv_pos_as_xyz
'x, y, z'
_cell_length_a     28.091856
_cell_length_b     34.990958
_cell_length_c     33.565877
_cell_angle_alpha  91.043311
_cell_angle_beta   86.749748
_cell_angle_gamma 74.148799
loop_
_atom_site_label
_atom_site_type_symbol
_atom_site_fract_x
_atom_site_fract_y
_atom_site_fract_z
_atom_type_partial_charge
Nd0 Nd 0.12359 0.24709 0.47378 0.0
Nd1 Nd 0.19328 0.27206 0.51325 0.0
C2 C 0.05002 0.21731 0.45105 0.0
C3 C 1.021 0.1868 0.45527 0.0
C4 C 0.98548 0.18776 0.48693 0.0
C5 C 0.95604 0.16065 0.48756 0.0
C6 C 0.96014 0.13193 0.45615 0.0
C7 C 0.99621 0.13123 0.42475 0.0
C8 C 0.02596 0.1578 0.4245 0.0
C9 C 0.21709 0.22526 0.43128 0.0
C10 C 0.17552 0.19 0.54153 0.0
C11 C 0.27357 0.28643 0.53604 0.0
C12 C 0.29032 0.31746 0.51568 0.0
C13 C 0.29095 0.31847 0.47356 0.0
C14 C 0.2901 0.35351 0.45416 0.0
C15 C 0.28848 0.38769 0.47674 0.0
C16 C 0.28944 0.38653 0.51845 0.0
C17 C 0.29056 0.3516 0.5378 0.0
C18 C 0.10577 0.30706 0.55786 0.0
C19 C 0.15297 0.3216 0.43325 0.0
O20 O 0.0429 0.24744 0.47659 0.0
O21 O 0.096 0.20509 0.43696 0.0
O22 O 0.17566 0.24112 0.41522 0.0
O23 O 0.20797 0.22144 0.46806 0.0
O24 O 0.1524 0.19142 0.50857 0.0
O25 O 0.19263 0.21962 0.55274 0.0
O26 O 0.27539 0.25476 0.51423 0.0
O27 O 0.23131 0.29988 0.55666 0.0
O28 O 0.13443 0.32649 0.5411 0.0
O29 O 0.11737 0.27161 0.54177 0.0
O30 O 0.1892 0.3116 0.45754 0.0
O31 O 0.11573 0.30524 0.43804 0.0
H32 H 0.98003 0.2097 0.51114 0.0
H33 H 0.93005 0.16253 0.51301 0.0
H34 H 1.00103 0.11093 0.39927 0.0
H35 H 0.05225 0.1563 0.39923 0.0
H36 H 0.28963 0.2928 0.45565 0.0
H37 H 0.28934 0.3542 0.42194 0.0
H38 H 0.2879 0.41311 0.53615 0.0
H39 H 0.28838 0.35193 0.57015 0.0
Nd40 Nd 1.01461 0.96151 0.7339 0.0
Nd41 Nd 0.98904 0.88901 0.74525 0.0
C42 C 1.0183 0.03545 0.72367 0.0
C43 C 0.0447 0.05461 0.69507 0.0
C44 C 0.03305 0.09606 0.69526 0.0
C45 C 0.061 0.1147 0.67082 0.0
C46 C 0.1012 0.09205 0.64599 0.0
C47 C 0.11181 0.05041 0.64492 0.0
C48 C 0.08371 0.03177 0.66938 0.0
C49 C 0.08778 0.89912 0.70113 0.0
C50 C 0.94699 0.93214 0.6642 0.0
C51 C 0.9843 0.81565 0.75455 0.0
C52 C 1.01905 0.77945 0.76689 0.0
C53 C 0.07034 0.77232 0.75835 0.0
C54 C 0.10337 0.73995 0.77454 0.0
C55 C 0.08546 0.71475 0.79988 0.0
C56 C 0.03381 0.72154 0.80699 0.0
C57 C 1.00098 0.75351 0.79047 0.0
C58 C 0.91713 0.95419 0.77963 0.0
C59 C 0.06991 0.908 0.80679 0.0
O60 O 0.98358 1.02149 0.71006 0.0
O61 O 0.04644 1.01108 0.74702 0.0
O62 O 0.0959 0.93028 0.71727 0.0
O63 O 0.04214 0.90307 0.69895 0.0
O64 O 0.96295 0.96184 0.679 0.0
O65 O 0.9554 0.89882 0.68365 0.0
O66 O 0.9958 0.82893 0.7203 0.0
O67 O 0.96854 0.84361 0.78235 0.0
O68 O 0.90762 0.92607 0.75858 0.0
O69 O 0.96336 0.94765 0.78156 0.0
O70 O 0.05372 0.87983 0.78956 0.0
O71 O 0.05462 0.94473 0.79374 0.0
H72 H 1.00287 0.11398 0.71481 0.0
H73 H 0.05113 0.14688 0.67135 0.0
H74 H 0.14241 0.0323 0.62591 0.0
H75 H 0.09308 0.9996 0.66892 0.0
H76 H 0.08493 0.79249 0.7404 0.0
H77 H 0.1428 0.73561 0.76849 0.0
H78 H 1.01845 0.70373 0.82738 0.0
H79 H 0.96152 0.75906 0.79765 0.0
Nd80 Nd 0.30229 0.86608 0.97682 0.0
Nd81 Nd 0.24366 0.82827 1.02089 0.0
C82 C 0.36162 0.90739 0.94608 0.0
C83 C 0.41052 0.9155 0.9502 0.0
C84 C 0.42605 0.92579 0.98714 0.0
C85 C 0.47047 0.93694 0.98902 0.0
C86 C 0.50019 0.93818 0.95401 0.0
C87 C 0.48525 0.92629 0.91751 0.0
C88 C 0.44108 0.91531 0.91565 0.0
C89 C 0.2206 0.86232 0.93121 0.0
C90 C 0.23782 0.91948 1.04997 0.0
C91 C 0.20279 0.77223 1.05063 0.0
C92 C 0.21935 0.73079 0.06811 0.0
C93 C 0.21259 0.69731 1.04768 0.0
C94 C 0.2216 0.65949 0.06512 0.0
C95 C 0.23998 0.65274 0.10351 0.0
C96 C 0.24957 0.68587 0.12317 0.0
C97 C 0.23892 0.72407 0.10613 0.0
C98 C 0.31381 0.83865 0.06934 0.0
C99 C 0.34421 0.77483 0.97319 0.0
O100 O 0.36142 0.87233 0.93212 0.0
O101 O 0.32655 0.9214 0.97404 0.0
O102 O 0.26685 0.8542 0.91886 0.0
O103 O 0.2174 0.87023 0.96896 0.0
O104 O 0.27475 0.9149 1.02347 0.0
O105 O 0.21267 0.89211 1.05244 0.0
O106 O 0.21123 0.77647 1.01253 0.0
O107 O 0.20738 0.80276 0.07119 0.0
O108 O 0.26752 0.84398 0.07903 0.0
O109 O 0.32383 0.82816 1.03239 0.0
O110 O 0.29707 0.77817 0.98126 0.0
O111 O 0.35973 0.80648 0.97665 0.0
H112 H 0.40335 0.92614 1.0144 0.0
H113 H 0.4805 0.94599 1.01767 0.0
H114 H 0.50745 0.92596 0.88999 0.0
H115 H 0.4302 0.90747 0.88683 0.0
H116 H 0.20008 0.70062 1.01785 0.0
H117 H 0.21481 0.63519 1.04805 0.0
H118 H 0.26405 0.68264 0.1525 0.0
H119 H 0.24561 0.7485 0.1231 0.0
Nd120 Nd 0.44949 0.12031 0.25636 0.0
Nd121 Nd 0.50879 0.16465 0.27786 0.0
C122 C 0.4032 0.067 0.2329 0.0
C123 C 0.37908 0.0479 0.20266 0.0
C124 C 0.38721 1.00642 0.20182 0.0
C125 C 0.35894 0.98798 0.17867 0.0
C126 C 0.32133 1.01051 0.15566 0.0
C127 C 0.3147 0.05204 0.15543 0.0
C128 C 0.34304 0.07043 0.17859 0.0
C129 C 0.40911 0.20177 0.23975 0.0
C130 C 0.54105 0.12349 0.19113 0.0
C131 C 0.55156 0.21884 0.30093 0.0
C132 C 0.53067 0.25946 0.31559 0.0
C133 C 0.48035 0.27784 0.31113 0.0
C134 C 0.45562 0.31042 0.33559 0.0
C135 C 0.48105 0.32377 0.36528 0.0
C136 C 0.53289 0.30912 0.36528 0.0
C137 C 0.55767 0.27667 0.34056 0.0
C138 C 0.556 0.08621 0.29696 0.0
C139 C 0.40906 0.16584 0.33679 0.0
O140 O 0.45144 0.05915 0.23269 0.0
O141 O 0.38084 0.10317 0.2457 0.0
O142 O 0.38455 0.17902 0.25571 0.0
O143 O 0.45318 0.18109 0.23182 0.0
O144 O 0.50682 0.10533 0.20115 0.0
O145 O 0.54716 0.15147 0.21512 0.0
O146 O 0.54397 0.21237 0.26385 0.0
O147 O 0.54243 0.19212 0.32462 0.0
O148 O 0.57444 0.10867 0.27436 0.0
O149 O 0.50964 0.10399 0.304 0.0
O150 O 0.43571 0.18869 0.3212 0.0
O151 O 0.41841 0.12958 0.32152 0.0
H152 H 0.4145 0.98822 0.22018 0.0
H153 H 0.36655 0.95595 0.17908 0.0
H154 H 0.28634 0.07076 0.1384 0.0
H155 H 0.33554 0.10249 0.17864 0.0
H156 H 0.45916 0.26451 0.29196 0.0
H157 H 0.41564 0.32142 0.33509 0.0
H158 H 0.55324 0.31884 0.38807 0.0
H159 H 0.59659 0.26257 0.34404 0.0
Nd160 Nd 0.60447 0.39375 0.66915 0.0
Nd161 Nd 0.51129 0.37662 0.65224 0.0
C162 C 0.69291 0.40322 0.67521 0.0
C163 C 0.71272 0.42336 0.7062 0.0
C164 C 0.74541 0.40075 0.73234 0.0
C165 C 0.76713 0.41956 0.75994 0.0
C166 C 0.7571 0.46123 0.76121 0.0
C167 C 0.72144 0.48396 0.73741 0.0
C168 C 0.69911 0.46514 0.71014 0.0
C169 C 0.52102 0.45681 0.68613 0.0
C170 C 0.5521 0.36246 0.74177 0.0
C171 C 0.42122 0.36994 0.64661 0.0
C172 C 0.39658 0.37067 0.60932 0.0
C173 C 0.39073 0.40421 0.58571 0.0
C174 C 0.39624 0.39946 0.54441 0.0
C175 C 0.40709 0.36129 0.52645 0.0
C176 C 0.40531 0.32886 0.55005 0.0
C177 C 0.39807 0.33391 0.59123 0.0
C178 C 0.59235 0.31671 0.62633 0.0
C179 C 0.567 0.41286 0.58293 0.0
O180 O 0.68202 0.37061 0.6855 0.0
O181 O 0.65974 0.426 0.65396 0.0
O182 O 0.55846 0.44873 0.7085 0.0
O183 O 0.53026 0.43324 0.65684 0.0
O184 O 0.59472 0.36649 0.72773 0.0
O185 O 0.51318 0.3699 0.72016 0.0
O186 O 0.42986 0.40322 0.65814 0.0
O187 O 0.45997 0.33934 0.64859 0.0
O188 O 0.55442 0.33054 0.60523 0.0
O189 O 0.58703 0.33493 0.6599 0.0
O190 O 0.52204 0.41448 0.59836 0.0
O191 O 0.60543 0.39167 0.60089 0.0
H192 H 0.75587 0.36854 0.73025 0.0
H193 H 0.79536 0.40133 0.77755 0.0
H194 H 0.71374 0.51604 0.73781 0.0
H195 H 0.67301 0.48338 0.69096 0.0
H196 H 0.38804 0.43329 0.59888 0.0
H197 H 0.39492 0.42529 0.52676 0.0
H198 H 0.4129 0.29903 0.53723 0.0
H199 H 0.4016 0.3078 0.60895 0.0
Nd200 Nd 1.01088 0.36898 0.82741 0.0
Nd201 Nd 0.05768 0.4163 0.7922 0.0
C202 C 0.96959 0.31376 0.85641 0.0
C203 C 0.94391 0.28461 0.87365 0.0
C204 C 0.96735 0.24347 0.87384 0.0
C205 C 0.94303 0.21686 0.89143 0.0
C206 C 0.89448 0.23054 0.90964 0.0
C207 C 0.87173 0.2719 0.90989 0.0
C208 C 0.89581 0.29828 0.89217 0.0
C209 C 0.99728 0.43824 0.87872 0.0
C210 C 0.94439 0.44279 0.78984 0.0
C211 C 0.11125 0.46062 0.7612 0.0
C212 C 0.1437 0.48592 0.76874 0.0
C213 C 0.12797 0.51961 0.79455 0.0
C214 C 0.15397 0.5483 0.79375 0.0
C215 C 0.19585 0.54376 0.76734 0.0
C216 C 0.21377 0.50834 0.74415 0.0
C217 C 0.18778 0.47968 0.74484 0.0
C218 C 0.0418 0.36707 0.72944 0.0
C219 C 0.11577 0.3616 0.86204 0.0
O220 O 1.01641 0.30536 0.84428 0.0
O221 O 0.94526 0.35044 0.85084 0.0
O222 O 0.96425 0.41985 0.87212 0.0
O223 O 0.03681 0.41983 0.8589 0.0
O224 O 0.95328 0.404 0.78751 0.0
O225 O 0.97981 0.45825 0.79901 0.0
O226 O 0.06441 0.47434 0.77311 0.0
O227 O 0.12891 0.42223 0.76462 0.0
O228 O 0.0274 0.40524 0.73236 0.0
O229 O 0.05648 0.3547 0.76408 0.0
O230 O 0.1152 0.3917 0.83893 0.0
O231 O 0.08176 0.34284 0.85856 0.0
H232 H 1.00456 0.23177 0.86028 0.0
H233 H 0.96209 0.18544 0.89009 0.0
H234 H 0.83512 0.28431 0.92427 0.0
H235 H 0.87668 0.32972 0.89345 0.0
H236 H 0.09411 0.52498 0.8135 0.0
H237 H 0.13982 0.57495 0.81214 0.0
H238 H 0.24559 0.50412 0.72309 0.0
H239 H 0.20027 0.45391 0.72461 0.0
Nd240 Nd 0.91347 0.60663 0.09019 0.0
Nd241 Nd 0.99603 0.63379 0.06453 0.0
C242 C 0.83036 0.58994 0.11213 0.0
C243 C 0.78652 0.60898 0.13727 0.0
C244 C 0.77174 0.65042 0.14278 0.0
C245 C 0.7359 0.66795 0.17271 0.0
C246 C 0.71517 0.64405 0.19746 0.0
C247 C 0.72845 0.60271 0.19063 0.0
C248 C 0.76412 0.58522 0.16056 0.0
C249 C 1.00047 0.56758 0.12441 0.0
C250 C 0.92858 0.68134 0.14386 0.0
C251 C 0.08279 0.64779 1.05297 0.0
C252 C 0.11446 0.6452 1.01623 0.0
C253 C 0.13215 0.60926 0.99368 0.0
C254 C 0.15137 0.60936 0.95444 0.0
C255 C 0.15323 0.64532 0.93739 0.0
C256 C 0.13964 0.68046 0.96133 0.0
C257 C 0.11996 0.6804 1.0002 0.0
C258 C 0.9128 0.67894 1.03027 0.0
C259 C 0.97208 0.56306 1.00884 0.0
O260 O 0.83665 0.60715 0.07872 0.0
O261 O 0.8706 0.57859 0.13143 0.0
O262 O 0.97154 0.54914 0.10863 0.0
O263 O 0.98401 0.60382 0.11984 0.0
O264 O 0.89743 0.65991 0.13655 0.0
O265 O 0.97076 0.67526 0.12155 0.0
O266 O 0.07759 0.61414 0.06625 0.0
O267 O 0.04094 0.67592 1.05406 0.0
O268 O 0.9552 0.66333 1.01073 0.0
O269 O 0.91441 0.66625 0.06523 0.0
O270 O 1.00836 0.57662 1.02184 0.0
O271 O 0.9278 0.57681 1.02695 0.0
H272 H 0.78967 0.669 0.12542 0.0
H273 H 0.72662 0.69985 0.17801 0.0
H274 H 0.71264 0.58391 0.2095 0.0
H275 H 0.77605 0.55311 0.15684 0.0
H276 H 0.12789 0.58157 1.00514 0.0
H277 H 0.16112 0.58195 0.93652 0.0
H278 H 0.13962 0.70887 0.94903 0.0
H279 H 0.10629 0.70843 1.01697 0.0
Nd280 Nd 0.56419 0.72513 0.42534 0.0
Nd281 Nd 0.50563 0.78036 0.38258 0.0
C282 C 0.6045 0.67136 0.47703 0.0
C283 C 0.59784 0.63319 0.49016 0.0
C284 C 0.55049 0.62778 0.49798 0.0
C285 C 0.54535 0.59102 0.51026 0.0
C286 C 0.58746 0.55872 0.51422 0.0
C287 C 0.6347 0.56435 0.50514 0.0
C288 C 0.63975 0.60123 0.49373 0.0
C289 C 0.60059 0.79196 0.42234 0.0
C290 C 0.46246 0.77425 0.46665 0.0
C291 C 0.46937 0.8327 0.32866 0.0
C292 C 0.45698 0.82686 0.2872 0.0
C293 C 0.47197 0.84839 0.2563 0.0
C294 C 0.45837 0.84418 0.21722 0.0
C295 C 0.42958 0.81833 0.20861 0.0
C296 C 0.41791 0.79464 0.23911 0.0
C297 C 0.4313 0.79892 0.27796 0.0
C298 C 0.46958 0.71377 0.38165 0.0
C299 C 0.59831 0.71549 0.3371 0.0
O300 O 0.62272 0.67156 0.44049 0.0
O301 O 0.5687 0.70325 0.48694 0.0
O302 O 0.62592 0.75572 0.41423 0.0
O303 O 0.55534 0.79327 0.42955 0.0
O304 O 0.48936 0.73789 0.45884 0.0
O305 O 0.46877 0.80289 0.44415 0.0
O306 O 0.51637 0.82138 0.3352 0.0
O307 O 0.44179 0.82256 0.35693 0.0
O308 O 0.44264 0.75004 0.38651 0.0
O309 O 0.51503 0.71263 0.3775 0.0
O310 O 0.57254 0.75293 0.33842 0.0
O311 O 0.59483 0.69332 0.36726 0.0
H312 H 0.51745 0.65199 0.49489 0.0
H313 H 0.50837 0.58833 0.51731 0.0
H314 H 0.66816 0.54024 0.5065 0.0
H315 H 0.67657 0.6047 0.48733 0.0
H316 H 0.49292 0.86933 0.26263 0.0
H317 H 0.46774 0.86285 0.19439 0.0
H318 H 0.39617 0.77411 0.23329 0.0
H319 H 0.42042 0.78102 0.30091 0.0
Nd320 Nd 0.22765 0.42086 0.20886 0.0
Nd321 Nd 0.25805 0.46614 0.25777 0.0
C322 C 0.20762 0.38472 0.14487 0.0
C323 C 0.18873 0.3857 0.10506 0.0
C324 C 0.18316 0.41852 0.08049 0.0
C325 C 0.1717 0.41532 1.04055 0.0
C326 C 0.16656 0.37906 1.02473 0.0
C327 C 0.17183 0.34682 1.05017 0.0
C328 C 0.18211 0.35033 0.08982 0.0
C329 C 0.21214 0.39264 0.2858 0.0
C330 C 0.1422 0.49713 0.23206 0.0
C331 C 0.29005 0.5071 0.31329 0.0
C332 C 0.31349 0.53978 0.32008 0.0
C333 C 0.31334 0.55431 0.35922 0.0
C334 C 0.33969 0.58175 0.368 0.0
C335 C 0.36752 0.59548 0.33813 0.0
C336 C 0.36723 0.58119 0.29853 0.0
C337 C 0.34044 0.55365 0.28959 0.0
C338 C 0.27185 0.49553 0.18195 0.0
C339 C 0.32771 0.37627 0.23692 0.0
O340 O 0.24892 0.39445 0.14823 0.0
O341 O 0.17645 0.3948 0.17614 0.0
O342 O 0.22587 0.3711 0.25321 0.0
O343 O 0.20624 0.42908 0.27809 0.0
O344 O 0.15227 0.46252 0.21378 0.0
O345 O 0.17697 0.50764 0.25149 0.0
O346 O 0.31751 0.47537 0.29404 0.0
O347 O 0.24374 0.51556 0.30433 0.0
O348 O 0.30655 0.48373 0.2064 0.0
O349 O 0.23514 0.48378 0.19474 0.0
O350 O 0.30677 0.40021 0.26755 0.0
O351 O 0.31031 0.38805 0.20294 0.0
H352 H 0.18866 0.44609 0.09188 0.0
H353 H 0.16727 0.44101 1.02216 0.0
H354 H 0.16974 0.31806 1.03932 0.0
H355 H 0.18708 0.32458 0.10825 0.0
H356 H 0.29362 0.54369 0.38337 0.0
H357 H 0.33897 0.59185 0.39859 0.0
H358 H 0.38741 0.5914 0.27443 0.0
H359 H 0.34148 0.54269 0.25907 0.0
Nd360 Nd 0.68729 0.08911 0.95929 0.0
Nd361 Nd 0.75768 0.03927 0.99244 0.0
C362 C 0.61773 0.14898 0.93388 0.0
C363 C 0.60661 0.18329 0.90909 0.0
C364 C 0.64286 0.19131 0.8828 0.0
C365 C 0.63066 0.22496 0.85984 0.0
C366 C 0.58224 0.25053 0.86319 0.0
C367 C 0.5464 0.24245 0.88987 0.0
C368 C 0.55866 0.209 0.91287 0.0
C369 C 0.65929 0.08233 1.03919 0.0
C370 C 0.7822 0.12063 0.96758 0.0
C371 C 0.80933 0.97915 1.03355 0.0
C372 C 0.81925 0.93501 1.03056 0.0
C373 C 0.78381 0.91584 1.04453 0.0
C374 C 0.79396 0.87424 1.04151 0.0
C375 C 0.83978 0.85061 1.02437 0.0
C376 C 0.87496 0.86998 1.01024 0.0
C377 C 0.86488 0.91146 1.01337 0.0
C378 C 0.79023 0.03736 0.91352 0.0
C379 C 0.66601 1.00851 0.95544 0.0
O380 O 0.63138 0.11397 0.91592 0.0
O381 O 0.64258 0.15163 0.96492 0.0
O382 O 0.63641 0.07475 1.0092 0.0
O383 O 0.70013 0.08847 1.02699 0.0
O384 O 0.74715 0.11993 0.94382 0.0
O385 O 0.79051 0.0945 0.99642 0.0
O386 O 0.76454 1.00023 1.04482 0.0
O387 O 0.82881 0.99564 1.00489 0.0
O388 O 0.81618 0.03953 0.94353 0.0
O389 O 0.74595 0.03779 0.92516 0.0
O390 O 0.69891 1.00298 0.98298 0.0
O391 O 0.66041 0.03975 0.93391 0.0
H392 H 0.68016 0.17157 0.87999 0.0
H393 H 0.65859 0.23059 0.83892 0.0
H394 H 0.50901 0.26199 0.89286 0.0
H395 H 0.53066 0.20311 0.93356 0.0
H396 H 0.74815 0.93292 1.05787 0.0
H397 H 0.76569 0.86062 1.05246 0.0
H398 H 0.911 0.85302 0.99755 0.0
H399 H 0.89314 0.92514 1.00248 0.0
Nd400 Nd 0.80906 0.93817 0.43218 0.0
Nd401 Nd 0.73274 0.99404 0.48112 0.0
C402 C 0.86465 0.89063 0.37392 0.0
C403 C 0.86997 0.86217 0.33905 0.0
C404 C 0.8296 0.85237 0.32269 0.0
C405 C 0.83736 0.82364 0.29096 0.0
C406 C 0.88576 0.8036 0.27497 0.0
C407 C 0.92575 0.81337 0.29234 0.0
C408 C 0.91792 0.84215 0.32352 0.0
C409 C 0.84581 0.93439 0.51054 0.0
C410 C 0.71055 0.90874 0.45619 0.0
C411 C 0.66964 0.03779 0.53649 0.0
C412 C 0.66836 0.07542 0.5567 0.0
C413 C 0.70658 0.09338 0.54823 0.0
C414 C 0.70299 0.1314 0.5636 0.0
C415 C 0.66122 0.15183 0.58792 0.0
C416 C 0.62371 0.1332 0.5974 0.0
C417 C 0.6272 0.09524 0.58171 0.0
C418 C 0.71555 1.01085 0.40293 0.0
C419 C 0.83103 1.0227 0.45295 0.0
O420 O 0.84521 0.92892 0.37004 0.0
O421 O 0.85412 0.87866 0.40914 0.0
O422 O 0.86708 0.91231 0.47975 0.0
O423 O 0.80478 0.95606 0.49994 0.0
O424 O 0.75475 0.90006 0.43761 0.0
O425 O 0.69348 0.94285 0.47678 0.0
O426 O 0.70589 1.0072 0.54469 0.0
O427 O 0.66319 0.0403 0.4984 0.0
O428 O 0.72255 0.03572 0.42961 0.0
O429 O 0.72876 0.97527 0.4161 0.0
O430 O 0.79426 1.02703 0.48057 0.0
O431 O 0.8399 0.99313 0.42596 0.0
H432 H 0.79215 0.86679 0.33448 0.0
H433 H 0.80525 0.81752 0.27879 0.0
H434 H 0.96367 0.79828 0.28246 0.0
H435 H 0.94985 0.84837 0.33605 0.0
H436 H 0.73844 0.07853 0.52875 0.0
H437 H 0.7323 0.14515 0.55582 0.0
H438 H 0.59066 0.1487 0.61548 0.0
H439 H 0.59714 0.08191 0.58807 0.0
Nd440 Nd 0.35505 0.70384 0.67472 0.0
Nd441 Nd 0.30281 0.67711 0.6181 0.0
C442 C 0.39906 0.73366 0.72942 0.0
C443 C 0.41981 0.71792 0.76612 0.0
C444 C 0.41497 0.68119 0.77896 0.0
C445 C 0.42585 0.66977 0.81765 0.0
C446 C 0.44045 0.69555 0.84394 0.0
C447 C 0.4512 0.7299 0.8288 0.0
C448 C 0.44063 0.74106 0.79009 0.0
C449 C 0.38088 0.7204 0.59839 0.0
C450 C 0.24712 0.75997 0.65973 0.0
C451 C 0.2789 0.65152 0.54986 0.0
C452 C 0.27897 0.61419 0.52947 0.0
C453 C 0.31109 0.60057 0.49555 0.0
C454 C 0.31117 0.56527 0.4757 0.0
C455 C 0.27792 0.54392 0.48851 0.0
C456 C 0.24643 0.55732 0.52295 0.0
C457 C 0.24695 0.5921 0.54326 0.0
C458 C 0.26749 0.66205 0.69223 0.0
C459 C 0.39774 0.61272 0.65643 0.0
O460 O 0.42243 0.71497 0.69711 0.0
O461 O 0.35085 0.7412 0.72916 0.0
O462 O 0.4122 0.70138 0.62256 0.0
O463 O 0.33759 0.72685 0.6133 0.0
O464 O 0.27965 0.74848 0.68664 0.0
O465 O 0.25198 0.74024 0.62544 0.0
O466 O 0.32229 0.65737 0.55483 0.0
O467 O 0.2474 0.66324 0.58078 0.0
O468 O 0.23994 0.67461 0.66284 0.0
O469 O 0.31275 0.65733 0.68191 0.0
O470 O 0.37087 0.62086 0.62475 0.0
O471 O 0.39175 0.6397 0.68502 0.0
H472 H 0.39943 0.6628 0.76016 0.0
H473 H 0.41796 0.64293 0.82816 0.0
H474 H 0.46225 0.75077 0.84792 0.0
H475 H 0.44513 0.7692 0.78001 0.0
H476 H 0.33641 0.61703 0.4846 0.0
H477 H 0.33747 0.55443 0.45063 0.0
H478 H 0.22215 0.54044 0.53493 0.0
H479 H 0.22235 0.60147 0.56978 0.0
C480 C 0.32629 0.4383 0.4513 0.0
C481 C 0.28348 0.42587 0.45847 0.0
H482 H 0.3589 0.48615 0.457 0.0
C483 C 0.23723 0.45401 0.46313 0.0
H484 H 0.36187 0.41684 0.44638 0.0
C485 C 0.23482 0.49405 0.46771 0.0
C486 C 0.27879 0.50577 0.46872 0.0
H487 H 0.20371 0.44474 0.46849 0.0
H488 H 0.19903 0.51512 0.47485 0.0
C489 C 0.32429 0.47814 0.45715 0.0
C490 C 0.86449 1.02712 0.86633 0.0
C491 C 0.81689 1.02194 0.87433 0.0
H492 H 0.93293 1.01017 0.83046 0.0
C493 C 0.80013 0.99762 0.84782 0.0
H494 H 0.87858 0.0458 0.88601 0.0
C495 C 0.83172 0.97702 0.81556 0.0
C496 C 0.88055 0.98032 0.80937 0.0
H497 H 0.76389 0.99279 0.85325 0.0
H498 H 0.81874 0.95708 0.79663 0.0
C499 C 0.89584 1.00661 0.83445 0.0
C500 C 0.21625 0.58762 0.11844 0.0
C501 C 0.24899 0.61174 0.12259 0.0
H502 H 0.19704 0.53354 0.13326 0.0
C503 C 0.29032 0.59599 0.14542 0.0
H504 H 0.18358 0.59816 0.10176 0.0
C505 C 0.29856 0.55821 0.16303 0.0
C506 C 0.26549 0.53437 0.15939 0.0
H507 H 0.31692 0.61281 0.1495 0.0
H508 H 0.3307 0.54802 0.18036 0.0
C509 C 0.22404 0.55011 0.13667 0.0
C510 C 0.61078 1.02248 0.32744 0.0
C511 C 0.59049 0.06437 0.32775 0.0
H512 H 0.66506 0.97211 0.35046 0.0
C513 C 0.61246 0.08688 0.35229 0.0
H514 H 0.59636 1.00386 0.30802 0.0
C515 C 0.65278 0.06903 0.375 0.0
C516 C 0.6735 1.02732 0.37525 0.0
H517 H 0.59955 0.11904 0.35276 0.0
H518 H 0.66794 0.08863 0.39257 0.0
C519 C 0.65108 1.00419 0.35129 0.0
C520 C 0.62127 0.24786 0.6492 0.0
C521 C 0.62192 0.27546 0.61955 0.0
H522 H 0.63307 0.18635 0.6621 0.0
C523 C 0.6423 0.26213 0.58106 0.0
H524 H 0.605 0.25765 0.67896 0.0
C525 C 0.65892 0.22149 0.57156 0.0
C526 C 0.6541 0.1938 0.60025 0.0
H527 H 0.64276 0.28314 0.55781 0.0
H528 H 0.67201 0.21187 0.54106 0.0
C529 C 0.63681 0.20722 0.63949 0.0
C530 C 0.18295 0.61475 0.75071 0.0
C531 C 0.21578 0.57789 0.75864 0.0
H532 H 0.17425 0.67094 0.72369 0.0
C533 C 0.26699 0.57226 0.75131 0.0
H534 H 0.14324 0.61972 0.75538 0.0
C535 C 0.28472 0.60169 0.73315 0.0
C536 C 0.25133 0.63694 0.72173 0.0
H537 H 0.29303 0.54413 0.75725 0.0
H538 H 0.32405 0.59536 0.72507 0.0
C539 C 0.20062 0.64402 0.73236 0.0
C540 C 0.83729 0.78542 1.05475 0.0
C541 C 0.85205 0.806 1.02278 0.0
H542 H 0.84359 0.72936 0.08164 0.0
C543 C 0.88129 0.78341 0.99045 0.0
H544 H 0.81517 0.80151 0.08036 0.0
C545 C 0.89794 0.74175 0.99126 0.0
C546 C 0.88569 0.72142 1.02437 0.0
H547 H 0.89254 0.798 0.96485 0.0
H548 H 0.92242 0.72564 0.96679 0.0
C549 C 0.85369 0.74381 1.05546 0.0
C550 C 0.40142 0.68133 0.39087 0.0
C551 C 0.44733 0.6809 0.37185 0.0
H552 H 0.34028 0.65629 0.39492 0.0
C553 C 0.46793 0.65164 0.34164 0.0
H554 H 0.38455 0.70348 0.41422 0.0
C555 C 0.44219 0.62409 0.33018 0.0
C556 C 0.39563 0.62489 0.34908 0.0
H557 H 0.50306 0.65084 0.32607 0.0
H558 H 0.4589 0.60209 0.30671 0.0
C559 C 0.37608 0.6539 0.37979 0.0
C560 C 0.46817 0.36939 0.42507 0.0
C561 C 0.45398 0.34045 0.40295 0.0
H562 H 0.46539 0.39807 0.48217 0.0
C563 C 0.42266 0.31983 0.42111 0.0
H564 H 0.49342 0.38479 0.4118 0.0
C565 C 0.40804 0.32643 0.46121 0.0
C566 C 0.42221 0.35506 0.48367 0.0
H567 H 0.4127 0.29615 0.40526 0.0
H568 H 0.38683 0.30811 0.47475 0.0
C569 C 0.45247 0.37663 0.46527 0.0
C570 C 0.07245 0.35997 0.61401 0.0
C571 C 0.08563 0.31934 0.60201 0.0
H572 H 0.0495 0.40541 0.66013 0.0
C573 C 0.0848 0.29281 0.6338 0.0
H574 H 0.07306 0.38195 0.59182 0.0
C575 C 0.07167 0.30667 0.67502 0.0
C576 C 0.05821 0.34783 0.68649 0.0
H577 H 0.09547 0.26114 0.62706 0.0
H578 H 0.07195 0.28506 0.69773 0.0
C579 C 0.05894 0.3736 0.6543 0.0
C580 C 0.10578 0.65194 0.83691 0.0
C581 C 0.1192 0.68575 0.82422 0.0
H582 H 0.10727 0.61141 0.88355 0.0
C583 C 0.15813 0.69617 0.84222 0.0
H584 H 0.07741 0.64212 0.82252 0.0
C585 C 0.17676 0.67747 0.87661 0.0
C586 C 0.1558 0.64897 0.89366 0.0
H587 H 0.16996 0.7218 0.83301 0.0
H588 H 0.20244 0.68907 0.89274 0.0
C589 C 0.12372 0.63375 0.87159 0.0
C590 C 0.42687 0.82186 0.1327 0.0
C591 C 0.4035 0.82136 0.17104 0.0
H592 H 0.41723 0.82708 0.0692 0.0
C593 C 0.35246 0.82609 0.17451 0.0
H594 H 0.46636 0.81858 0.12933 0.0
C595 C 0.32522 0.83091 0.14115 0.0
C596 C 0.34758 0.83143 0.10255 0.0
H597 H 0.33289 0.82704 0.20345 0.0
H598 H 0.28578 0.8346 0.14628 0.0
C599 C 0.399 0.82657 0.09841 0.0
C600 C 0.18248 0.37595 0.39737 0.0
C601 C 0.16092 0.34389 0.3959 0.0
H602 H 0.21394 0.41706 0.36488 0.0
C603 C 0.15448 0.32948 0.35757 0.0
H604 H 0.1888 0.38768 0.42604 0.0
C605 C 0.17064 0.34542 0.32235 0.0
C606 C 0.19247 0.37733 0.32382 0.0
H607 H 0.13915 0.3044 0.35472 0.0
H608 H 0.16631 0.33241 0.29371 0.0
C609 C 0.19709 0.39283 0.3621 0.0
C610 C 0.89144 0.97016 0.60942 0.0
C611 C 0.92061 0.93439 0.62475 0.0
H612 H 0.84399 0.99853 0.5633 0.0
C613 C 0.92334 0.89921 0.60207 0.0
H614 H 0.88779 0.99807 0.6254 0.0
C615 C 0.89922 0.8996 0.5659 0.0
C616 C 0.86929 0.935 0.5509 0.0
H617 H 0.94508 0.87086 0.61203 0.0
H618 H 0.90376 0.87167 0.54966 0.0
C619 C 0.86573 0.97038 0.57367 0.0
C620 C 0.4542 0.71279 0.91369 0.0
C621 C 0.42922 0.69452 0.88743 0.0
H622 H 0.44512 0.75491 0.96232 0.0
C623 C 0.38242 0.69019 0.90032 0.0
H624 H 0.49121 0.71493 0.90543 0.0
C625 C 0.35631 0.71248 0.93329 0.0
C626 C 0.37705 0.7389 0.95327 0.0
H627 H 0.36236 0.67528 0.88162 0.0
H628 H 0.31773 0.71325 0.93922 0.0
C629 C 0.4277 0.73587 0.94612 0.0
C630 C 0.56224 0.08681 0.12421 0.0
C631 C 0.57329 0.11209 0.15309 0.0
H632 H 0.58077 0.05772 0.06654 0.0
C633 C 0.61548 0.12613 0.1451 0.0
H634 H 0.53036 0.0753 0.12902 0.0
C635 C 0.64522 0.11551 0.10902 0.0
C636 C 0.63314 0.0909 0.07989 0.0
H637 H 0.62546 0.14554 0.16666 0.0
H638 H 0.67664 0.12742 0.10349 0.0
C639 C 0.59143 0.07662 0.08826 0.0
C640 C 0.51946 0.31723 0.78443 0.0
C641 C 0.55124 0.34172 0.77908 0.0
H642 H 0.50538 0.26816 0.81538 0.0
C643 C 0.58907 0.33961 0.80524 0.0
H644 H 0.4905 0.31788 0.76425 0.0
C645 C 0.59779 0.31098 0.83412 0.0
C646 C 0.56851 0.28446 0.83729 0.0
H647 H 0.61388 0.35837 0.80172 0.0
H648 H 0.62863 0.30844 0.85282 0.0
C649 C 0.52816 0.28864 0.8134 0.0
C650 C 0.17521 0.39324 0.95109 0.0
C651 C 0.15634 0.37376 0.98207 0.0
H652 H 0.17849 0.40393 0.8883 0.0
C653 C 0.12859 0.34752 0.9719 0.0
H654 H 0.19716 0.4134 0.95756 0.0
C655 C 0.12045 0.34042 0.93231 0.0
C656 C 0.13765 0.36076 0.90139 0.0
H657 H 0.11175 0.33294 0.99463 0.0
H658 H 0.0977 0.32071 0.92643 0.0
C659 C 0.16559 0.38705 0.91121 0.0
C660 C 0.93751 0.76671 0.21386 0.0
C661 C 0.89523 0.77281 0.24064 0.0
H662 H 0.98113 0.73386 0.16357 0.0
C663 C 0.86316 0.74866 0.23436 0.0
H664 H 0.9628 0.78493 0.21629 0.0
C665 C 0.87348 0.71936 0.20306 0.0
C666 C 0.91637 0.71294 0.17702 0.0
H667 H 0.83041 0.7517 0.25408 0.0
H668 H 0.84796 0.70144 0.19957 0.0
C669 C 0.94798 0.73731 0.18298 0.0
C670 C 0.43541 0.75894 0.57013 0.0
C671 C 0.39452 0.74382 0.56652 0.0
H672 H 0.48679 0.78541 0.54022 0.0
C673 C 0.36789 0.75047 0.53208 0.0
H674 H 0.45589 0.75461 0.59686 0.0
C675 C 0.38564 0.7682 0.49967 0.0
C676 C 0.42926 0.78011 0.50211 0.0
H677 H 0.33598 0.73912 0.52909 0.0
H678 H 0.36869 0.7684 0.47142 0.0
C679 C 0.45214 0.77767 0.53829 0.0
C680 C 0.29471 0.17025 0.40851 0.0
C681 C 0.26751 0.21059 0.40891 0.0
H682 H 0.35918 0.12462 0.38543 0.0
C683 C 0.28909 0.23664 0.38743 0.0
H684 H 0.27955 0.1492 0.42454 0.0
C685 C 0.33633 0.22285 0.36654 0.0
C686 C 0.36264 0.1821 0.36454 0.0
H687 H 0.26955 0.26794 0.38706 0.0
H688 H 0.35154 0.24405 0.35091 0.0
C689 C 0.34077 0.15617 0.38611 0.0
C690 C 0.16263 0.12407 0.55478 0.0
C691 C 0.1714 0.15921 0.56943 0.0
H692 H 0.13299 0.07523 0.56768 0.0
C693 C 0.16437 0.16863 0.6105 0.0
H694 H 0.16784 0.11626 0.52313 0.0
C695 C 0.14398 0.14539 0.63592 0.0
C696 C 0.13087 0.11224 0.62065 0.0
H697 H 0.17048 0.19575 0.62248 0.0
H698 H 0.13618 0.15447 0.66718 0.0
C699 C 0.14259 0.10067 0.58023 0.0
C700 C 0.15221 0.90838 0.83771 0.0
C701 C 0.10694 0.89789 0.84009 0.0
H702 H 0.22233 0.9052 0.86277 0.0
C703 C 0.09862 0.87674 0.87434 0.0
H704 H 0.16102 0.92425 0.81216 0.0
C705 C 0.1335 0.86695 0.90469 0.0
C706 C 0.17942 0.87648 0.90164 0.0
H707 H 0.06466 0.86785 0.87789 0.0
H708 H 0.12511 0.85064 0.93001 0.0
C709 C 0.18776 0.89731 0.86716 0.0
C710 C 0.27694 0.95652 0.14501 0.0
C711 C 0.28967 0.99084 0.13184 0.0
H712 H 0.24652 0.90818 0.13059 0.0
C713 C 0.27308 1.00547 0.09479 0.0
H714 H 0.28796 0.94447 0.17361 0.0
C715 C 0.24799 0.98512 0.0707 0.0
C716 C 0.23869 0.94916 0.08238 0.0
H717 H 0.28229 1.03129 0.08293 0.0
H718 H 0.24025 0.99549 1.0409 0.0
C719 C 0.25172 0.93611 0.12073 0.0
C720 C 0.86072 0.46082 0.82162 0.0
C721 C 0.8934 0.46665 0.79067 0.0
H722 H 0.7875 0.45674 0.8369 0.0
C723 C 0.87512 0.48504 0.75602 0.0
H724 H 0.87459 0.44665 0.84866 0.0
C725 C 0.82511 0.49142 0.74959 0.0
C726 C 0.79425 0.47829 0.77745 0.0
H727 H 0.90022 0.48943 0.73191 0.0
H728 H 0.81292 0.50019 0.72023 0.0
C729 C 0.81086 0.46692 0.81512 0.0
C730 C 0.94624 0.48642 0.93372 0.0
C731 C 0.99201 0.47032 0.91176 0.0
H732 H 0.90422 0.52703 0.98006 0.0
C733 C 0.03173 0.48558 0.922 0.0
H734 H 0.9145 0.476 0.9272 0.0
C735 C 0.02582 0.51542 0.95292 0.0
C736 C 0.97987 0.53142 0.97489 0.0
H737 H 0.06767 0.47435 0.90613 0.0
H738 H 0.05743 0.52593 0.9596 0.0
C739 C 0.94032 0.51613 0.96436 0.0
C740 C 0.6454 0.69681 0.23008 0.0
C741 C 0.68383 0.66185 0.23282 0.0
H742 H 0.58778 0.74163 0.26174 0.0
C743 C 0.69437 0.64502 0.26999 0.0
H744 H 0.63681 0.71005 0.20151 0.0
C745 C 0.66653 0.66282 0.30411 0.0
C746 C 0.62823 0.69781 0.30139 0.0
H747 H 0.72472 0.61854 0.27277 0.0
H748 H 0.67532 0.64946 0.33261 0.0
C749 C 0.61773 0.71484 0.26433 0.0
C750 C 0.61654 0.45977 0.56507 0.0
C751 C 0.57419 0.44668 0.55963 0.0
H752 H 0.65192 0.50585 0.55862 0.0
C753 C 0.53647 0.47007 0.53769 0.0
H754 H 0.6463 0.44301 0.58206 0.0
C755 C 0.54108 0.50589 0.52186 0.0
C756 C 0.58271 0.51974 0.52892 0.0
H757 H 0.50317 0.46101 0.53332 0.0
H758 H 0.51173 0.52278 0.50448 0.0
C759 C 0.62011 0.49607 0.551 0.0
C760 C 0.39384 0.31206 0.21485 0.0
C761 C 0.35328 0.33248 0.24101 0.0
H762 H 0.44446 0.25566 0.19471 0.0
C763 C 0.33221 0.30923 0.26673 0.0
H764 H 0.41065 0.32863 0.19408 0.0
C765 C 0.34947 0.26729 0.26516 0.0
C766 C 0.39039 0.2468 0.23954 0.0
H767 H 0.30066 0.32329 0.28696 0.0
H768 H 0.33044 0.25078 0.28414 0.0
C769 C 0.41291 0.27004 0.21486 0.0
C770 C 0.81486 0.21102 0.92507 0.0
C771 C 0.86667 0.20236 0.92712 0.0
H772 H 0.74864 0.19311 0.93686 0.0
C773 C 0.89064 0.16669 0.94557 0.0
H774 H 0.79451 0.23728 0.9105 0.0
C775 C 0.86362 0.14078 0.96106 0.0
C776 C 0.8119 0.14966 0.95828 0.0
H777 H 0.93037 0.15865 0.94802 0.0
H778 H 0.88343 0.11318 0.97377 0.0
C779 C 0.78824 0.18533 0.94023 0.0
C780 C 0.10217 0.55754 0.19641 0.0
C781 C 0.09711 0.52521 0.21873 0.0
H782 H 0.07608 0.59543 0.14807 0.0
C783 C 0.0564 0.50994 0.21268 0.0
H784 H 0.13372 0.5693 0.19957 0.0
C785 C 0.02532 0.52315 0.18171 0.0
C786 C 0.03319 0.55296 0.15706 0.0
H787 H 0.05197 0.48462 0.2291 0.0
H788 H 0.9959 0.50944 0.17651 0.0
C789 C 0.07021 0.57148 0.16599 0.0
C790 C 0.70412 0.84145 0.43424 0.0
C791 C 0.68014 0.87966 0.45063 0.0
H792 H 0.69842 0.78534 0.41246 0.0
C793 C 0.62801 0.88944 0.45784 0.0
H794 H 0.74393 0.83235 0.42795 0.0
C795 C 0.60115 0.86168 0.4486 0.0
C796 C 0.62587 0.82353 0.43201 0.0
H797 H 0.60792 0.91869 0.46986 0.0
H798 H 0.56127 0.87006 0.45436 0.0
C799 C 0.6777 0.81417 0.42514 0.0
C800 C 0.48993 0.52935 0.70435 0.0
C801 C 0.48565 0.49609 0.68275 0.0
H802 H 0.46607 0.59253 0.71212 0.0
C803 C 0.45132 0.50119 0.65284 0.0
H804 H 0.51627 0.52628 0.72724 0.0
C805 C 0.42338 0.53903 0.64341 0.0
C806 C 0.42868 0.57247 0.66416 0.0
H807 H 0.44713 0.47589 0.63574 0.0
H808 H 0.39759 0.54203 0.6201 0.0
C809 C 0.46159 0.56723 0.69518 0.0
C810 C 0.16034 0.80113 0.6511 0.0
C811 C 0.20586 0.79558 0.66868 0.0
H812 H 0.0859 0.83859 0.64837 0.0
C813 C 0.21174 0.82395 0.69657 0.0
H814 H 0.15493 0.77925 0.62986 0.0
C815 C 0.17316 0.85764 0.70646 0.0
C816 C 0.12757 0.86333 0.68925 0.0
H817 H 0.2464 0.82028 0.71066 0.0
H818 H 0.17887 0.87903 0.72815 0.0
C819 C 0.12102 0.83475 0.66175 0.0
C820 C 0.578 0.94606 0.98525 0.0
C821 C 0.54476 0.95408 0.95449 0.0
H822 H 0.64329 0.95603 1.00945 0.0
C823 C 0.55398 0.97819 0.92356 0.0
H824 H 0.5722 0.92763 1.00961 0.0
C825 C 0.5948 0.99371 0.92314 0.0
C826 C 0.6279 0.98609 0.95383 0.0
H827 H 0.5288 0.98608 0.89989 0.0
H828 H 0.59951 1.01281 0.89905 0.0
C829 C 0.61921 0.96183 0.98488 0.0
C830 C 0.90897 0.04239 0.43026 0.0
C831 C 0.86355 0.0508 0.4532 0.0
H832 H 0.97513 0.05885 0.41423 0.0
C833 C 0.85028 0.08596 0.47734 0.0
H834 H 0.92108 1.01554 0.41154 0.0
C835 C 0.88094 0.11192 0.4782 0.0
C836 C 0.9269 0.1036 0.45551 0.0
H837 H 0.81569 0.09379 0.4955 0.0
H838 H 0.8677 0.13889 0.4965 0.0
C839 C 0.94014 0.06791 0.43168 0.0
loop_
_geom_bond_atom_site_label_1
_geom_bond_atom_site_label_2
_geom_bond_distance
_geom_bond_site_symmetry_2
_ccdc_geom_bond_type
Nd0 C2 2.836 1_455 S
Nd0 O20 2.500 1_455 S
Nd0 O21 2.492 . S
Nd0 O22 2.487 . S
Nd0 O23 2.682 . S
Nd0 O24 2.410 . S
Nd0 O29 2.414 . S
Nd0 O31 2.424 . S
Nd1 C11 2.836 . S
Nd1 O23 2.414 . S
Nd1 O25 2.424 . S
Nd1 O26 2.500 . S
Nd1 O27 2.492 . S
Nd1 O28 2.487 . S
Nd1 O29 2.682 . S
Nd1 O30 2.410 . S
C2 Nd0 2.836 1_655 S
C2 C3 1.498 . S
C2 O20 1.258 . S
C2 O21 1.239 1_655 S
C3 C2 1.498 . S
C3 C4 1.366 . S
C3 C8 1.407 . S
C4 C3 1.366 . S
C4 C5 1.392 . S
C4 H32 0.930 . S
C5 C4 1.392 . S
C5 C6 1.398 . S
C5 H33 0.929 . S
C6 C5 1.398 . S
C6 C7 1.352 . S
C7 C6 1.352 . S
C7 C8 1.384 . S
C7 H34 0.930 . S
C8 C3 1.407 . S
C8 C7 1.384 . S
C8 H35 0.929 . S
C9 O22 1.241 . S
C9 O23 1.273 . S
C10 O24 1.251 . S
C10 O25 1.268 . S
C11 Nd1 2.836 . S
C11 C12 1.498 . S
C11 O26 1.258 . S
C11 O27 1.239 . S
C12 C11 1.498 . S
C12 C13 1.366 . S
C12 C17 1.407 . S
C13 C12 1.366 . S
C13 C14 1.392 . S
C13 H36 0.930 . S
C14 C13 1.392 . S
C14 C15 1.398 . S
C14 H37 0.929 . S
C15 C14 1.398 . S
C15 C16 1.352 . S
C16 C15 1.352 . S
C16 C17 1.384 . S
C16 H38 0.930 . S
C17 C12 1.407 . S
C17 C16 1.384 . S
C17 H39 0.929 . S
C18 O28 1.241 . S
C18 O29 1.273 . S
C19 O30 1.251 . S
C19 O31 1.268 . S
O20 Nd0 2.500 1_655 S
O20 C2 1.258 . S
O21 Nd0 2.492 . S
O21 C2 1.239 1_455 S
O22 Nd0 2.487 . S
O22 C9 1.241 . S
O23 Nd0 2.682 . S
O23 Nd1 2.414 . S
O23 C9 1.273 . S
O24 Nd0 2.410 . S
O24 C10 1.251 . S
O25 Nd1 2.424 . S
O25 C10 1.268 . S
O26 Nd1 2.500 . S
O26 C11 1.258 . S
O27 Nd1 2.492 . S
O27 C11 1.239 . S
O28 Nd1 2.487 . S
O28 C18 1.241 . S
O29 Nd0 2.414 . S
O29 Nd1 2.682 . S
O29 C18 1.273 . S
O30 Nd1 2.410 . S
O30 C19 1.251 . S
O31 Nd0 2.424 . S
O31 C19 1.268 . S
H32 C4 0.930 . S
H33 C5 0.929 . S
H34 C7 0.930 . S
H35 C8 0.929 . S
H36 C13 0.930 . S
H37 C14 0.929 . S
H38 C16 0.930 . S
H39 C17 0.929 . S
Nd40 C42 2.836 . S
Nd40 O60 2.500 . S
Nd40 O61 2.492 . S
Nd40 O62 2.487 . S
Nd40 O63 2.682 . S
Nd40 O64 2.410 . S
Nd40 O69 2.414 . S
Nd40 O71 2.424 . S
Nd41 C51 2.836 . S
Nd41 O63 2.414 . S
Nd41 O65 2.424 . S
Nd41 O66 2.500 . S
Nd41 O67 2.492 . S
Nd41 O68 2.487 1_455 S
Nd41 O69 2.682 . S
Nd41 O70 2.410 . S
C42 Nd40 2.836 . S
C42 C43 1.498 . S
C42 O60 1.258 . S
C42 O61 1.239 . S
C43 C42 1.498 . S
C43 C44 1.366 . S
C43 C48 1.407 . S
C44 C43 1.366 . S
C44 C45 1.392 1_565 S
C44 H72 0.930 . S
C45 C44 1.392 1_545 S
C45 C46 1.398 . S
C45 H73 0.929 . S
C46 C45 1.398 . S
C46 C47 1.352 1_545 S
C47 C46 1.352 1_565 S
C47 C48 1.384 . S
C47 H74 0.930 . S
C48 C43 1.407 . S
C48 C47 1.384 . S
C48 H75 0.929 . S
C49 O62 1.241 . S
C49 O63 1.273 . S
C50 O64 1.251 . S
C50 O65 1.268 . S
C51 Nd41 2.836 . S
C51 C52 1.498 . S
C51 O66 1.258 . S
C51 O67 1.239 . S
C52 C51 1.498 . S
C52 C53 1.366 . S
C52 C57 1.407 . S
C53 C52 1.366 . S
C53 C54 1.392 . S
C53 H76 0.930 . S
C54 C53 1.392 . S
C54 C55 1.398 . S
C54 H77 0.929 . S
C55 C54 1.398 . S
C55 C56 1.352 . S
C56 C55 1.352 . S
C56 C57 1.384 . S
C56 H78 0.930 1_455 S
C57 C52 1.407 . S
C57 C56 1.384 . S
C57 H79 0.929 1_455 S
C58 O68 1.241 . S
C58 O69 1.273 1_655 S
C59 O70 1.251 . S
C59 O71 1.268 . S
O60 Nd40 2.500 . S
O60 C42 1.258 . S
O61 Nd40 2.492 . S
O61 C42 1.239 . S
O62 Nd40 2.487 . S
O62 C49 1.241 . S
O63 Nd40 2.682 . S
O63 Nd41 2.414 . S
O63 C49 1.273 . S
O64 Nd40 2.410 . S
O64 C50 1.251 . S
O65 Nd41 2.424 . S
O65 C50 1.268 . S
O66 Nd41 2.500 . S
O66 C51 1.258 . S
O67 Nd41 2.492 . S
O67 C51 1.239 . S
O68 Nd41 2.487 1_655 S
O68 C58 1.241 . S
O69 Nd40 2.414 . S
O69 Nd41 2.682 . S
O69 C58 1.273 1_455 S
O70 Nd41 2.410 . S
O70 C59 1.251 . S
O71 Nd40 2.424 . S
O71 C59 1.268 . S
H72 C44 0.930 . S
H73 C45 0.929 . S
H74 C47 0.930 . S
H75 C48 0.929 . S
H76 C53 0.930 . S
H77 C54 0.929 . S
H78 C56 0.930 1_655 S
H79 C57 0.929 1_655 S
Nd80 C82 2.836 . S
Nd80 O100 2.500 . S
Nd80 O101 2.492 . S
Nd80 O102 2.487 . S
Nd80 O103 2.682 . S
Nd80 O104 2.410 . S
Nd80 O109 2.414 . S
Nd80 O111 2.424 . S
Nd81 C91 2.836 . S
Nd81 O103 2.414 . S
Nd81 O105 2.424 . S
Nd81 O106 2.500 . S
Nd81 O107 2.492 . S
Nd81 O108 2.487 1_556 S
Nd81 O109 2.682 . S
Nd81 O110 2.410 . S
C82 Nd80 2.836 . S
C82 C83 1.498 . S
C82 O100 1.258 . S
C82 O101 1.239 . S
C83 C82 1.498 . S
C83 C84 1.366 . S
C83 C88 1.407 . S
C84 C83 1.366 . S
C84 C85 1.392 . S
C84 H112 0.930 . S
C85 C84 1.392 . S
C85 C86 1.398 . S
C85 H113 0.929 . S
C86 C85 1.398 . S
C86 C87 1.352 . S
C87 C86 1.352 . S
C87 C88 1.384 . S
C87 H114 0.930 . S
C88 C83 1.407 . S
C88 C87 1.384 . S
C88 H115 0.929 . S
C89 O102 1.241 . S
C89 O103 1.273 . S
C90 O104 1.251 . S
C90 O105 1.268 . S
C91 Nd81 2.836 . S
C91 C92 1.498 . S
C91 O106 1.258 . S
C91 O107 1.239 . S
C92 C91 1.498 . S
C92 C93 1.366 . S
C92 C97 1.406 1_556 S
C93 C92 1.366 . S
C93 C94 1.392 . S
C93 H116 0.930 . S
C94 C93 1.392 . S
C94 C95 1.398 . S
C94 H117 0.929 . S
C95 C94 1.398 . S
C95 C96 1.348 1_556 S
C96 C95 1.348 1_554 S
C96 C97 1.385 . S
C96 H118 0.933 . S
C97 C92 1.406 1_554 S
C97 C96 1.385 . S
C97 H119 0.930 . S
C98 O108 1.241 1_556 S
C98 O109 1.273 . S
C99 O110 1.251 . S
C99 O111 1.268 . S
O100 Nd80 2.500 . S
O100 C82 1.258 . S
O101 Nd80 2.492 . S
O101 C82 1.239 . S
O102 Nd80 2.487 . S
O102 C89 1.241 . S
O103 Nd80 2.682 . S
O103 Nd81 2.414 . S
O103 C89 1.273 . S
O104 Nd80 2.410 . S
O104 C90 1.251 . S
O105 Nd81 2.424 . S
O105 C90 1.268 . S
O106 Nd81 2.500 . S
O106 C91 1.258 . S
O107 Nd81 2.492 . S
O107 C91 1.239 . S
O108 Nd81 2.487 1_554 S
O108 C98 1.241 1_554 S
O109 Nd80 2.414 . S
O109 Nd81 2.682 . S
O109 C98 1.273 . S
O110 Nd81 2.410 . S
O110 C99 1.251 . S
O111 Nd80 2.424 . S
O111 C99 1.268 . S
H112 C84 0.930 . S
H113 C85 0.929 . S
H114 C87 0.930 . S
H115 C88 0.929 . S
H116 C93 0.930 . S
H117 C94 0.929 . S
H118 C96 0.933 . S
H119 C97 0.930 . S
Nd120 C122 2.836 . S
Nd120 O140 2.500 . S
Nd120 O141 2.492 . S
Nd120 O142 2.487 . S
Nd120 O143 2.682 . S
Nd120 O144 2.410 . S
Nd120 O149 2.414 . S
Nd120 O151 2.424 . S
Nd121 C131 2.836 . S
Nd121 O143 2.414 . S
Nd121 O145 2.424 . S
Nd121 O146 2.500 . S
Nd121 O147 2.492 . S
Nd121 O148 2.487 . S
Nd121 O149 2.682 . S
Nd121 O150 2.410 . S
C122 Nd120 2.836 . S
C122 C123 1.498 . S
C122 O140 1.258 . S
C122 O141 1.239 . S
C123 C122 1.498 . S
C123 C124 1.366 . S
C123 C128 1.407 . S
C124 C123 1.366 . S
C124 C125 1.392 . S
C124 H152 0.930 . S
C125 C124 1.392 . S
C125 C126 1.398 1_554 S
C125 H153 0.929 1_545 S
C126 C125 1.398 1_556 S
C126 C127 1.352 1_556 S
C127 C126 1.352 1_554 S
C127 C128 1.405 . S
C127 H154 0.909 1_554 S
C128 C123 1.407 . S
C128 C127 1.405 . S
C128 H155 0.929 . S
C129 O142 1.241 . S
C129 O143 1.273 . S
C130 O144 1.251 . S
C130 O145 1.268 . S
C131 Nd121 2.836 . S
C131 C132 1.498 . S
C131 O146 1.258 . S
C131 O147 1.239 . S
C132 C131 1.498 . S
C132 C133 1.366 . S
C132 C137 1.407 . S
C133 C132 1.366 . S
C133 C134 1.392 . S
C133 H156 0.930 . S
C134 C133 1.392 . S
C134 C135 1.398 . S
C134 H157 0.929 . S
C135 C134 1.398 . S
C135 C136 1.352 . S
C136 C135 1.352 . S
C136 C137 1.384 . S
C136 H158 0.930 . S
C137 C132 1.407 . S
C137 C136 1.384 . S
C137 H159 0.929 . S
C138 O148 1.241 . S
C138 O149 1.273 . S
C139 O150 1.251 . S
C139 O151 1.268 . S
O140 Nd120 2.500 . S
O140 C122 1.258 . S
O141 Nd120 2.492 . S
O141 C122 1.239 . S
O142 Nd120 2.487 . S
O142 C129 1.241 . S
O143 Nd120 2.682 . S
O143 Nd121 2.414 . S
O143 C129 1.273 . S
O144 Nd120 2.410 . S
O144 C130 1.251 . S
O145 Nd121 2.424 . S
O145 C130 1.268 . S
O146 Nd121 2.500 . S
O146 C131 1.258 . S
O147 Nd121 2.492 . S
O147 C131 1.239 . S
O148 Nd121 2.487 . S
O148 C138 1.241 . S
O149 Nd120 2.414 . S
O149 Nd121 2.682 . S
O149 C138 1.273 . S
O150 Nd121 2.410 . S
O150 C139 1.251 . S
O151 Nd120 2.424 . S
O151 C139 1.268 . S
H152 C124 0.930 . S
H153 C125 0.929 1_565 S
H154 C127 0.909 1_556 S
H155 C128 0.929 . S
H156 C133 0.930 . S
H157 C134 0.929 . S
H158 C136 0.930 . S
H159 C137 0.929 . S
Nd160 C162 2.836 . S
Nd160 O180 2.500 . S
Nd160 O181 2.492 . S
Nd160 O182 2.487 . S
Nd160 O183 2.682 . S
Nd160 O184 2.410 . S
Nd160 O189 2.414 . S
Nd160 O191 2.424 . S
Nd161 C171 2.836 . S
Nd161 O183 2.414 . S
Nd161 O185 2.424 . S
Nd161 O186 2.500 . S
Nd161 O187 2.492 . S
Nd161 O188 2.487 . S
Nd161 O189 2.682 . S
Nd161 O190 2.410 . S
C162 Nd160 2.836 . S
C162 C163 1.498 . S
C162 O180 1.258 . S
C162 O181 1.239 . S
C163 C162 1.498 . S
C163 C164 1.366 . S
C163 C168 1.407 . S
C164 C163 1.366 . S
C164 C165 1.392 . S
C164 H192 0.930 . S
C165 C164 1.392 . S
C165 C166 1.398 . S
C165 H193 0.929 . S
C166 C165 1.398 . S
C166 C167 1.352 . S
C167 C166 1.352 . S
C167 C168 1.384 . S
C167 H194 0.930 . S
C168 C163 1.407 . S
C168 C167 1.384 . S
C168 H195 0.929 . S
C169 O182 1.241 . S
C169 O183 1.273 . S
C170 O184 1.251 . S
C170 O185 1.268 . S
C171 Nd161 2.836 . S
C171 C172 1.498 . S
C171 O186 1.258 . S
C171 O187 1.239 . S
C172 C171 1.498 . S
C172 C173 1.366 . S
C172 C177 1.407 . S
C173 C172 1.366 . S
C173 C174 1.392 . S
C173 H196 0.930 . S
C174 C173 1.392 . S
C174 C175 1.398 . S
C174 H197 0.929 . S
C175 C174 1.398 . S
C175 C176 1.352 . S
C176 C175 1.352 . S
C176 C177 1.384 . S
C176 H198 0.930 . S
C177 C172 1.407 . S
C177 C176 1.384 . S
C177 H199 0.929 . S
C178 O188 1.241 . S
C178 O189 1.273 . S
C179 O190 1.251 . S
C179 O191 1.268 . S
O180 Nd160 2.500 . S
O180 C162 1.258 . S
O181 Nd160 2.492 . S
O181 C162 1.239 . S
O182 Nd160 2.487 . S
O182 C169 1.241 . S
O183 Nd160 2.682 . S
O183 Nd161 2.414 . S
O183 C169 1.273 . S
O184 Nd160 2.410 . S
O184 C170 1.251 . S
O185 Nd161 2.424 . S
O185 C170 1.268 . S
O186 Nd161 2.500 . S
O186 C171 1.258 . S
O187 Nd161 2.492 . S
O187 C171 1.239 . S
O188 Nd161 2.487 . S
O188 C178 1.241 . S
O189 Nd160 2.414 . S
O189 Nd161 2.682 . S
O189 C178 1.273 . S
O190 Nd161 2.410 . S
O190 C179 1.251 . S
O191 Nd160 2.424 . S
O191 C179 1.268 . S
H192 C164 0.930 . S
H193 C165 0.929 . S
H194 C167 0.930 . S
H195 C168 0.929 . S
H196 C173 0.930 . S
H197 C174 0.929 . S
H198 C176 0.930 . S
H199 C177 0.929 . S
Nd200 C202 2.836 . S
Nd200 O220 2.500 . S
Nd200 O221 2.492 . S
Nd200 O222 2.487 . S
Nd200 O223 2.682 . S
Nd200 O224 2.410 . S
Nd200 O229 2.417 . S
Nd200 O231 2.424 1_655 S
Nd201 C211 2.836 1_655 S
Nd201 O223 2.414 . S
Nd201 O225 2.424 . S
Nd201 O226 2.500 1_655 S
Nd201 O227 2.492 1_655 S
Nd201 O228 2.487 1_655 S
Nd201 O229 2.679 . S
Nd201 O230 2.410 1_655 S
C202 Nd200 2.836 . S
C202 C203 1.498 . S
C202 O220 1.258 . S
C202 O221 1.239 . S
C203 C202 1.498 . S
C203 C204 1.366 . S
C203 C208 1.407 . S
C204 C203 1.366 . S
C204 C205 1.392 . S
C204 H232 0.930 . S
C205 C204 1.392 . S
C205 C206 1.398 . S
C205 H233 0.929 . S
C206 C205 1.398 . S
C206 C207 1.352 . S
C207 C206 1.352 . S
C207 C208 1.384 . S
C207 H234 0.930 . S
C208 C203 1.407 . S
C208 C207 1.384 . S
C208 H235 0.929 . S
C209 O222 1.241 . S
C209 O223 1.273 . S
C210 O224 1.251 . S
C210 O225 1.268 . S
C211 Nd201 2.836 1_455 S
C211 C212 1.498 . S
C211 O226 1.258 . S
C211 O227 1.239 . S
C212 C211 1.498 . S
C212 C213 1.366 . S
C212 C217 1.407 . S
C213 C212 1.366 . S
C213 C214 1.392 . S
C213 H236 0.930 . S
C214 C213 1.392 . S
C214 C215 1.398 . S
C214 H237 0.929 . S
C215 C214 1.398 . S
C215 C216 1.352 . S
C216 C215 1.352 . S
C216 C217 1.384 . S
C216 H238 0.930 . S
C217 C212 1.407 . S
C217 C216 1.384 . S
C217 H239 0.929 . S
C218 O228 1.241 . S
C218 O229 1.268 1_455 S
C219 O230 1.251 . S
C219 O231 1.268 . S
O220 Nd200 2.500 . S
O220 C202 1.258 . S
O221 Nd200 2.492 . S
O221 C202 1.239 . S
O222 Nd200 2.487 . S
O222 C209 1.241 . S
O223 Nd200 2.682 . S
O223 Nd201 2.414 . S
O223 C209 1.273 . S
O224 Nd200 2.410 . S
O224 C210 1.251 . S
O225 Nd201 2.424 . S
O225 C210 1.268 . S
O226 Nd201 2.500 1_455 S
O226 C211 1.258 . S
O227 Nd201 2.492 1_455 S
O227 C211 1.239 . S
O228 Nd201 2.487 1_455 S
O228 C218 1.241 . S
O229 Nd200 2.417 . S
O229 Nd201 2.679 . S
O229 C218 1.268 1_655 S
O230 Nd201 2.410 1_455 S
O230 C219 1.251 . S
O231 Nd200 2.424 1_455 S
O231 C219 1.268 . S
H232 C204 0.930 . S
H233 C205 0.929 . S
H234 C207 0.930 . S
H235 C208 0.929 . S
H236 C213 0.930 . S
H237 C214 0.929 . S
H238 C216 0.930 . S
H239 C217 0.929 . S
Nd240 C242 2.836 . S
Nd240 O260 2.500 . S
Nd240 O261 2.492 . S
Nd240 O262 2.487 . S
Nd240 O263 2.682 . S
Nd240 O264 2.410 . S
Nd240 O269 2.414 . S
Nd240 O271 2.424 . S
Nd241 C251 2.836 1_554 S
Nd241 O263 2.414 . S
Nd241 O265 2.424 . S
Nd241 O266 2.500 1_554 S
Nd241 O267 2.492 1_554 S
Nd241 O268 2.487 . S
Nd241 O269 2.682 . S
Nd241 O270 2.410 1_554 S
C242 Nd240 2.836 . S
C242 C243 1.498 . S
C242 O260 1.258 . S
C242 O261 1.239 . S
C243 C242 1.498 . S
C243 C244 1.366 . S
C243 C248 1.407 . S
C244 C243 1.366 . S
C244 C245 1.392 . S
C244 H272 0.930 . S
C245 C244 1.392 . S
C245 C246 1.398 . S
C245 H273 0.929 . S
C246 C245 1.398 . S
C246 C247 1.352 . S
C247 C246 1.352 . S
C247 C248 1.384 . S
C247 H274 0.930 . S
C248 C243 1.407 . S
C248 C247 1.384 . S
C248 H275 0.929 . S
C249 O262 1.241 . S
C249 O263 1.273 . S
C250 O264 1.251 . S
C250 O265 1.268 . S
C251 Nd241 2.836 1_556 S
C251 C252 1.498 1_655 S
C251 O266 1.258 . S
C251 O267 1.239 . S
C252 C251 1.498 1_455 S
C252 C253 1.366 . S
C252 C257 1.407 . S
C253 C252 1.366 . S
C253 C254 1.392 . S
C253 H276 0.930 . S
C254 C253 1.392 . S
C254 C255 1.398 . S
C254 H277 0.929 . S
C255 C254 1.398 . S
C255 C256 1.352 . S
C256 C255 1.352 . S
C256 C257 1.384 . S
C256 H278 0.930 . S
C257 C252 1.407 . S
C257 C256 1.384 . S
C257 H279 0.929 1_455 S
C258 O268 1.241 . S
C258 O269 1.273 . S
C259 O270 1.251 . S
C259 O271 1.268 1_556 S
O260 Nd240 2.500 . S
O260 C242 1.258 . S
O261 Nd240 2.492 . S
O261 C242 1.239 . S
O262 Nd240 2.487 . S
O262 C249 1.241 . S
O263 Nd240 2.682 . S
O263 Nd241 2.414 . S
O263 C249 1.273 . S
O264 Nd240 2.410 . S
O264 C250 1.251 . S
O265 Nd241 2.424 . S
O265 C250 1.268 . S
O266 Nd241 2.500 1_556 S
O266 C251 1.258 . S
O267 Nd241 2.492 1_556 S
O267 C251 1.239 . S
O268 Nd241 2.487 . S
O268 C258 1.241 . S
O269 Nd240 2.414 . S
O269 Nd241 2.682 . S
O269 C258 1.273 . S
O270 Nd241 2.410 1_556 S
O270 C259 1.251 . S
O271 Nd240 2.424 . S
O271 C259 1.268 1_554 S
H272 C244 0.930 . S
H273 C245 0.929 . S
H274 C247 0.930 . S
H275 C248 0.929 . S
H276 C253 0.930 . S
H277 C254 0.929 . S
H278 C256 0.930 . S
H279 C257 0.929 1_655 S
Nd280 C282 2.836 . S
Nd280 O300 2.500 . S
Nd280 O301 2.492 . S
Nd280 O302 2.487 . S
Nd280 O303 2.682 . S
Nd280 O304 2.410 . S
Nd280 O309 2.414 . S
Nd280 O311 2.424 . S
Nd281 C291 2.836 . S
Nd281 O303 2.414 . S
Nd281 O305 2.424 . S
Nd281 O306 2.500 . S
Nd281 O307 2.492 . S
Nd281 O308 2.487 . S
Nd281 O309 2.682 . S
Nd281 O310 2.410 . S
C282 Nd280 2.836 . S
C282 C283 1.498 . S
C282 O300 1.258 . S
C282 O301 1.239 . S
C283 C282 1.498 . S
C283 C284 1.366 . S
C283 C288 1.407 . S
C284 C283 1.366 . S
C284 C285 1.392 . S
C284 H312 0.930 . S
C285 C284 1.392 . S
C285 C286 1.398 . S
C285 H313 0.929 . S
C286 C285 1.398 . S
C286 C287 1.352 . S
C287 C286 1.352 . S
C287 C288 1.384 . S
C287 H314 0.930 . S
C288 C283 1.407 . S
C288 C287 1.384 . S
C288 H315 0.929 . S
C289 O302 1.241 . S
C289 O303 1.273 . S
C290 O304 1.251 . S
C290 O305 1.268 . S
C291 Nd281 2.836 . S
C291 C292 1.498 . S
C291 O306 1.258 . S
C291 O307 1.239 . S
C292 C291 1.498 . S
C292 C293 1.366 . S
C292 C297 1.407 . S
C293 C292 1.366 . S
C293 C294 1.392 . S
C293 H316 0.930 . S
C294 C293 1.392 . S
C294 C295 1.398 . S
C294 H317 0.929 . S
C295 C294 1.398 . S
C295 C296 1.352 . S
C296 C295 1.352 . S
C296 C297 1.384 . S
C296 H318 0.930 . S
C297 C292 1.407 . S
C297 C296 1.384 . S
C297 H319 0.929 . S
C298 O308 1.241 . S
C298 O309 1.273 . S
C299 O310 1.251 . S
C299 O311 1.268 . S
O300 Nd280 2.500 . S
O300 C282 1.258 . S
O301 Nd280 2.492 . S
O301 C282 1.239 . S
O302 Nd280 2.487 . S
O302 C289 1.241 . S
O303 Nd280 2.682 . S
O303 Nd281 2.414 . S
O303 C289 1.273 . S
O304 Nd280 2.410 . S
O304 C290 1.251 . S
O305 Nd281 2.424 . S
O305 C290 1.268 . S
O306 Nd281 2.500 . S
O306 C291 1.258 . S
O307 Nd281 2.492 . S
O307 C291 1.239 . S
O308 Nd281 2.487 . S
O308 C298 1.241 . S
O309 Nd280 2.414 . S
O309 Nd281 2.682 . S
O309 C298 1.273 . S
O310 Nd281 2.410 . S
O310 C299 1.251 . S
O311 Nd280 2.424 . S
O311 C299 1.268 . S
H312 C284 0.930 . S
H313 C285 0.929 . S
H314 C287 0.930 . S
H315 C288 0.929 . S
H316 C293 0.930 . S
H317 C294 0.929 . S
H318 C296 0.930 . S
H319 C297 0.929 . S
Nd320 C322 2.836 . S
Nd320 O340 2.500 . S
Nd320 O341 2.492 . S
Nd320 O342 2.487 . S
Nd320 O343 2.682 . S
Nd320 O344 2.410 . S
Nd320 O349 2.414 . S
Nd320 O351 2.424 . S
Nd321 C331 2.836 . S
Nd321 O343 2.414 . S
Nd321 O345 2.424 . S
Nd321 O346 2.500 . S
Nd321 O347 2.492 . S
Nd321 O348 2.487 . S
Nd321 O349 2.682 . S
Nd321 O350 2.410 . S
C322 Nd320 2.836 . S
C322 C323 1.498 . S
C322 O340 1.258 . S
C322 O341 1.239 . S
C323 C322 1.498 . S
C323 C324 1.366 1_554 S
C323 C328 1.407 . S
C324 C323 1.366 1_556 S
C324 C325 1.392 . S
C324 H352 0.930 . S
C325 C324 1.392 . S
C325 C326 1.398 . S
C325 H353 0.929 . S
C326 C325 1.398 . S
C326 C327 1.352 . S
C327 C326 1.352 . S
C327 C328 1.384 1_556 S
C327 H354 0.930 . S
C328 C323 1.407 . S
C328 C327 1.384 1_554 S
C328 H355 0.929 . S
C329 O342 1.241 . S
C329 O343 1.273 . S
C330 O344 1.251 . S
C330 O345 1.268 . S
C331 Nd321 2.836 . S
C331 C332 1.498 . S
C331 O346 1.258 . S
C331 O347 1.239 . S
C332 C331 1.498 . S
C332 C333 1.366 . S
C332 C337 1.407 . S
C333 C332 1.366 . S
C333 C334 1.392 . S
C333 H356 0.930 . S
C334 C333 1.392 . S
C334 C335 1.398 . S
C334 H357 0.929 . S
C335 C334 1.398 . S
C335 C336 1.352 . S
C336 C335 1.352 . S
C336 C337 1.384 . S
C336 H358 0.930 . S
C337 C332 1.407 . S
C337 C336 1.384 . S
C337 H359 0.929 . S
C338 O348 1.241 . S
C338 O349 1.273 . S
C339 O350 1.251 . S
C339 O351 1.268 . S
O340 Nd320 2.500 . S
O340 C322 1.258 . S
O341 Nd320 2.492 . S
O341 C322 1.239 . S
O342 Nd320 2.487 . S
O342 C329 1.241 . S
O343 Nd320 2.682 . S
O343 Nd321 2.414 . S
O343 C329 1.273 . S
O344 Nd320 2.410 . S
O344 C330 1.251 . S
O345 Nd321 2.424 . S
O345 C330 1.268 . S
O346 Nd321 2.500 . S
O346 C331 1.258 . S
O347 Nd321 2.492 . S
O347 C331 1.239 . S
O348 Nd321 2.487 . S
O348 C338 1.241 . S
O349 Nd320 2.414 . S
O349 Nd321 2.682 . S
O349 C338 1.273 . S
O350 Nd321 2.410 . S
O350 C339 1.251 . S
O351 Nd320 2.424 . S
O351 C339 1.268 . S
H352 C324 0.930 . S
H353 C325 0.929 . S
H354 C327 0.930 . S
H355 C328 0.929 . S
H356 C333 0.930 . S
H357 C334 0.929 . S
H358 C336 0.930 . S
H359 C337 0.929 . S
Nd360 C362 2.836 . S
Nd360 O380 2.500 . S
Nd360 O381 2.492 . S
Nd360 O382 2.487 . S
Nd360 O383 2.682 . S
Nd360 O384 2.410 . S
Nd360 O389 2.414 . S
Nd360 O391 2.424 . S
Nd361 C371 2.836 1_545 S
Nd361 O383 2.414 . S
Nd361 O385 2.424 . S
Nd361 O386 2.500 1_545 S
Nd361 O387 2.492 1_545 S
Nd361 O388 2.487 1_545 S
Nd361 O389 2.682 . S
Nd361 O390 2.410 1_545 S
C362 Nd360 2.836 . S
C362 C363 1.498 . S
C362 O380 1.258 . S
C362 O381 1.239 . S
C363 C362 1.498 . S
C363 C364 1.366 . S
C363 C368 1.407 . S
C364 C363 1.366 . S
C364 C365 1.392 . S
C364 H392 0.930 . S
C365 C364 1.392 . S
C365 C366 1.398 . S
C365 H393 0.929 . S
C366 C365 1.398 . S
C366 C367 1.352 . S
C367 C366 1.352 . S
C367 C368 1.384 . S
C367 H394 0.930 . S
C368 C363 1.407 . S
C368 C367 1.384 . S
C368 H395 0.929 . S
C369 O382 1.241 . S
C369 O383 1.273 . S
C370 O384 1.251 . S
C370 O385 1.268 . S
C371 Nd361 2.836 1_565 S
C371 C372 1.498 . S
C371 O386 1.258 . S
C371 O387 1.239 . S
C372 C371 1.498 . S
C372 C373 1.366 1_556 S
C372 C377 1.407 . S
C373 C372 1.366 1_554 S
C373 C374 1.392 . S
C373 H396 0.930 . S
C374 C373 1.392 . S
C374 C375 1.398 . S
C374 H397 0.929 . S
C375 C374 1.398 . S
C375 C376 1.352 . S
C376 C375 1.352 . S
C376 C377 1.384 1_554 S
C376 H398 0.931 . S
C377 C372 1.407 . S
C377 C376 1.384 1_556 S
C377 H399 0.929 . S
C378 O388 1.241 1_545 S
C378 O389 1.273 . S
C379 O390 1.251 . S
C379 O391 1.268 1_565 S
O380 Nd360 2.500 . S
O380 C362 1.258 . S
O381 Nd360 2.492 . S
O381 C362 1.239 . S
O382 Nd360 2.487 . S
O382 C369 1.241 . S
O383 Nd360 2.682 . S
O383 Nd361 2.414 . S
O383 C369 1.273 . S
O384 Nd360 2.410 . S
O384 C370 1.251 . S
O385 Nd361 2.424 . S
O385 C370 1.268 . S
O386 Nd361 2.500 1_565 S
O386 C371 1.258 . S
O387 Nd361 2.492 1_565 S
O387 C371 1.239 . S
O388 Nd361 2.487 1_565 S
O388 C378 1.241 1_565 S
O389 Nd360 2.414 . S
O389 Nd361 2.682 . S
O389 C378 1.273 . S
O390 Nd361 2.410 1_565 S
O390 C379 1.251 . S
O391 Nd360 2.424 . S
O391 C379 1.268 1_545 S
H392 C364 0.930 . S
H393 C365 0.929 . S
H394 C367 0.930 . S
H395 C368 0.929 . S
H396 C373 0.930 . S
H397 C374 0.929 . S
H398 C376 0.931 . S
H399 C377 0.929 . S
Nd400 C402 2.836 . S
Nd400 O420 2.500 . S
Nd400 O421 2.492 . S
Nd400 O422 2.487 . S
Nd400 O423 2.682 . S
Nd400 O424 2.410 . S
Nd400 O429 2.414 . S
Nd400 O431 2.424 . S
Nd401 C411 2.836 1_565 S
Nd401 O423 2.414 . S
Nd401 O425 2.424 . S
Nd401 O426 2.500 . S
Nd401 O427 2.492 1_565 S
Nd401 O428 2.487 . S
Nd401 O429 2.682 . S
Nd401 O430 2.410 . S
C402 Nd400 2.836 . S
C402 C403 1.498 . S
C402 O420 1.258 . S
C402 O421 1.239 . S
C403 C402 1.498 . S
C403 C404 1.366 . S
C403 C408 1.407 . S
C404 C403 1.366 . S
C404 C405 1.392 . S
C404 H432 0.930 . S
C405 C404 1.392 . S
C405 C406 1.398 . S
C405 H433 0.929 . S
C406 C405 1.398 . S
C406 C407 1.352 . S
C407 C406 1.352 . S
C407 C408 1.384 . S
C407 H434 0.930 . S
C408 C403 1.407 . S
C408 C407 1.384 . S
C408 H435 0.929 . S
C409 O422 1.241 . S
C409 O423 1.273 . S
C410 O424 1.251 . S
C410 O425 1.268 . S
C411 Nd401 2.836 1_545 S
C411 C412 1.498 . S
C411 O426 1.258 1_545 S
C411 O427 1.239 . S
C412 C411 1.498 . S
C412 C413 1.366 . S
C412 C417 1.407 . S
C413 C412 1.366 . S
C413 C414 1.392 . S
C413 H436 0.930 . S
C414 C413 1.392 . S
C414 C415 1.398 . S
C414 H437 0.929 . S
C415 C414 1.398 . S
C415 C416 1.352 . S
C416 C415 1.352 . S
C416 C417 1.384 . S
C416 H438 0.930 . S
C417 C412 1.407 . S
C417 C416 1.384 . S
C417 H439 0.929 . S
C418 O428 1.241 . S
C418 O429 1.273 . S
C419 O430 1.251 . S
C419 O431 1.268 . S
O420 Nd400 2.500 . S
O420 C402 1.258 . S
O421 Nd400 2.492 . S
O421 C402 1.239 . S
O422 Nd400 2.487 . S
O422 C409 1.241 . S
O423 Nd400 2.682 . S
O423 Nd401 2.414 . S
O423 C409 1.273 . S
O424 Nd400 2.410 . S
O424 C410 1.251 . S
O425 Nd401 2.424 . S
O425 C410 1.268 . S
O426 Nd401 2.500 . S
O426 C411 1.258 1_565 S
O427 Nd401 2.492 1_545 S
O427 C411 1.239 . S
O428 Nd401 2.487 . S
O428 C418 1.241 . S
O429 Nd400 2.414 . S
O429 Nd401 2.682 . S
O429 C418 1.273 . S
O430 Nd401 2.410 . S
O430 C419 1.251 . S
O431 Nd400 2.424 . S
O431 C419 1.268 . S
H432 C404 0.930 . S
H433 C405 0.929 . S
H434 C407 0.930 . S
H435 C408 0.929 . S
H436 C413 0.930 . S
H437 C414 0.929 . S
H438 C416 0.930 . S
H439 C417 0.929 . S
Nd440 C442 2.836 . S
Nd440 O460 2.500 . S
Nd440 O461 2.492 . S
Nd440 O462 2.487 . S
Nd440 O463 2.682 . S
Nd440 O464 2.410 . S
Nd440 O469 2.414 . S
Nd440 O471 2.424 . S
Nd441 C451 2.836 . S
Nd441 O463 2.414 . S
Nd441 O465 2.424 . S
Nd441 O466 2.500 . S
Nd441 O467 2.492 . S
Nd441 O468 2.487 . S
Nd441 O469 2.682 . S
Nd441 O470 2.410 . S
C442 Nd440 2.836 . S
C442 C443 1.498 . S
C442 O460 1.258 . S
C442 O461 1.239 . S
C443 C442 1.498 . S
C443 C444 1.366 . S
C443 C448 1.407 . S
C444 C443 1.366 . S
C444 C445 1.392 . S
C444 H472 0.930 . S
C445 C444 1.392 . S
C445 C446 1.398 . S
C445 H473 0.929 . S
C446 C445 1.398 . S
C446 C447 1.352 . S
C447 C446 1.352 . S
C447 C448 1.384 . S
C447 H474 0.930 . S
C448 C443 1.407 . S
C448 C447 1.384 . S
C448 H475 0.929 . S
C449 O462 1.241 . S
C449 O463 1.273 . S
C450 O464 1.251 . S
C450 O465 1.268 . S
C451 Nd441 2.836 . S
C451 C452 1.498 . S
C451 O466 1.258 . S
C451 O467 1.239 . S
C452 C451 1.498 . S
C452 C453 1.366 . S
C452 C457 1.407 . S
C453 C452 1.366 . S
C453 C454 1.392 . S
C453 H476 0.930 . S
C454 C453 1.392 . S
C454 C455 1.398 . S
C454 H477 0.929 . S
C455 C454 1.398 . S
C455 C456 1.352 . S
C456 C455 1.352 . S
C456 C457 1.384 . S
C456 H478 0.930 . S
C457 C452 1.407 . S
C457 C456 1.384 . S
C457 H479 0.929 . S
C458 O468 1.241 . S
C458 O469 1.273 . S
C459 O470 1.251 . S
C459 O471 1.268 . S
O460 Nd440 2.500 . S
O460 C442 1.258 . S
O461 Nd440 2.492 . S
O461 C442 1.239 . S
O462 Nd440 2.487 . S
O462 C449 1.241 . S
O463 Nd440 2.682 . S
O463 Nd441 2.414 . S
O463 C449 1.273 . S
O464 Nd440 2.410 . S
O464 C450 1.251 . S
O465 Nd441 2.424 . S
O465 C450 1.268 . S
O466 Nd441 2.500 . S
O466 C451 1.258 . S
O467 Nd441 2.492 . S
O467 C451 1.239 . S
O468 Nd441 2.487 . S
O468 C458 1.241 . S
O469 Nd440 2.414 . S
O469 Nd441 2.682 . S
O469 C458 1.273 . S
O470 Nd441 2.410 . S
O470 C459 1.251 . S
O471 Nd440 2.424 . S
O471 C459 1.268 . S
H472 C444 0.930 . S
H473 C445 0.929 . S
H474 C447 0.930 . S
H475 C448 0.929 . S
H476 C453 0.930 . S
H477 C454 0.929 . S
H478 C456 0.930 . S
H479 C457 0.929 . S
C480 C481 1.387 . S
C480 H484 0.950 . S
C480 C489 1.390 . S
C481 C480 1.387 . S
C481 C483 1.387 . S
H482 C489 0.950 . S
C483 C481 1.387 . S
C483 C485 1.390 . S
C483 H487 0.950 . S
H484 C480 0.950 . S
C485 C483 1.390 . S
C485 C486 1.387 . S
C485 H488 0.950 . S
C486 C485 1.387 . S
C486 C489 1.387 . S
H487 C483 0.950 . S
H488 C485 0.950 . S
C489 C480 1.390 . S
C489 H482 0.950 . S
C489 C486 1.387 . S
C490 C491 1.394 . S
C490 H494 0.943 1_565 S
C490 C499 1.391 . S
C491 C490 1.394 . S
C491 C493 1.387 . S
H492 C499 0.950 1_545 S
C493 C491 1.387 . S
C493 C495 1.390 . S
C493 H497 0.950 . S
H494 C490 0.943 1_545 S
C495 C493 1.390 . S
C495 C496 1.387 . S
C495 H498 0.950 . S
C496 C495 1.387 . S
C496 C499 1.387 . S
H497 C493 0.950 . S
H498 C495 0.950 . S
C499 C490 1.391 . S
C499 H492 0.950 1_565 S
C499 C496 1.387 . S
C500 C501 1.387 1_556 S
C500 H504 0.950 . S
C500 C509 1.390 1_556 S
C501 C500 1.387 1_554 S
C501 C503 1.387 . S
H502 C509 0.950 . S
C503 C501 1.387 . S
C503 C505 1.390 . S
C503 H507 0.950 . S
H504 C500 0.950 . S
C505 C503 1.390 . S
C505 C506 1.387 . S
C505 H508 0.950 . S
C506 C505 1.387 . S
C506 C509 1.387 . S
H507 C503 0.950 . S
H508 C505 0.950 . S
C509 C500 1.390 1_554 S
C509 H502 0.950 . S
C509 C506 1.387 . S
C510 C511 1.387 . S
C510 H514 0.950 . S
C510 C519 1.390 1_545 S
C511 C510 1.387 . S
C511 C513 1.387 . S
H512 C519 0.950 . S
C513 C511 1.387 . S
C513 C515 1.390 . S
C513 H517 0.950 . S
H514 C510 0.950 . S
C515 C513 1.390 . S
C515 C516 1.387 . S
C515 H518 0.950 . S
C516 C515 1.387 . S
C516 C519 1.387 1_545 S
H517 C513 0.950 . S
H518 C515 0.950 . S
C519 C510 1.390 1_565 S
C519 H512 0.950 . S
C519 C516 1.387 1_565 S
C520 C521 1.387 . S
C520 H524 0.950 . S
C520 C529 1.390 . S
C521 C520 1.387 . S
C521 C523 1.387 . S
H522 C529 0.950 . S
C523 C521 1.387 . S
C523 C525 1.390 . S
C523 H527 0.950 . S
H524 C520 0.950 . S
C525 C523 1.390 . S
C525 C526 1.387 . S
C525 H528 0.950 . S
C526 C525 1.387 . S
C526 C529 1.387 . S
H527 C523 0.950 . S
H528 C525 0.950 . S
C529 C520 1.390 . S
C529 H522 0.950 . S
C529 C526 1.387 . S
C530 C531 1.387 . S
C530 H534 0.950 . S
C530 C539 1.390 . S
C531 C530 1.387 . S
C531 C533 1.387 . S
H532 C539 0.950 . S
C533 C531 1.387 . S
C533 C535 1.390 . S
C533 H537 0.950 . S
H534 C530 0.950 . S
C535 C533 1.390 . S
C535 C536 1.387 . S
C535 H538 0.950 . S
C536 C535 1.387 . S
C536 C539 1.387 . S
H537 C533 0.950 . S
H538 C535 0.950 . S
C539 C530 1.390 . S
C539 H532 0.950 . S
C539 C536 1.387 . S
C540 C541 1.387 . S
C540 H544 0.950 . S
C540 C549 1.390 . S
C541 C540 1.387 . S
C541 C543 1.387 . S
H542 C549 0.950 . S
C543 C541 1.387 . S
C543 C545 1.390 . S
C543 H547 0.950 1_554 S
H544 C540 0.950 . S
C545 C543 1.390 . S
C545 C546 1.387 . S
C545 H548 0.950 1_554 S
C546 C545 1.387 . S
C546 C549 1.387 . S
H547 C543 0.950 1_556 S
H548 C545 0.950 1_556 S
C549 C540 1.390 . S
C549 H542 0.950 . S
C549 C546 1.387 . S
C550 C551 1.387 . S
C550 H554 0.950 . S
C550 C559 1.390 . S
C551 C550 1.387 . S
C551 C553 1.387 . S
H552 C559 0.950 . S
C553 C551 1.387 . S
C553 C555 1.390 . S
C553 H557 0.950 . S
H554 C550 0.950 . S
C555 C553 1.390 . S
C555 C556 1.387 . S
C555 H558 0.950 . S
C556 C555 1.387 . S
C556 C559 1.387 . S
H557 C553 0.950 . S
H558 C555 0.950 . S
C559 C550 1.390 . S
C559 H552 0.950 . S
C559 C556 1.387 . S
C560 C561 1.387 . S
C560 H564 0.950 . S
C560 C569 1.390 . S
C561 C560 1.387 . S
C561 C563 1.387 . S
H562 C569 0.950 . S
C563 C561 1.387 . S
C563 C565 1.390 . S
C563 H567 0.950 . S
H564 C560 0.950 . S
C565 C563 1.390 . S
C565 C566 1.387 . S
C565 H568 0.950 . S
C566 C565 1.387 . S
C566 C569 1.387 . S
H567 C563 0.950 . S
H568 C565 0.950 . S
C569 C560 1.390 . S
C569 H562 0.950 . S
C569 C566 1.387 . S
C570 C571 1.387 . S
C570 H574 0.950 . S
C570 C579 1.390 . S
C571 C570 1.387 . S
C571 C573 1.387 . S
H572 C579 0.950 . S
C573 C571 1.387 . S
C573 C575 1.390 . S
C573 H577 0.950 . S
H574 C570 0.950 . S
C575 C573 1.390 . S
C575 C576 1.387 . S
C575 H578 0.950 . S
C576 C575 1.387 . S
C576 C579 1.387 . S
H577 C573 0.950 . S
H578 C575 0.950 . S
C579 C570 1.390 . S
C579 H572 0.950 . S
C579 C576 1.387 . S
C580 C581 1.387 . S
C580 H584 0.950 . S
C580 C589 1.390 . S
C581 C580 1.387 . S
C581 C583 1.387 . S
H582 C589 0.950 . S
C583 C581 1.387 . S
C583 C585 1.390 . S
C583 H587 0.950 . S
H584 C580 0.950 . S
C585 C583 1.390 . S
C585 C586 1.387 . S
C585 H588 0.950 . S
C586 C585 1.387 . S
C586 C589 1.387 . S
H587 C583 0.950 . S
H588 C585 0.950 . S
C589 C580 1.390 . S
C589 H582 0.950 . S
C589 C586 1.387 . S
C590 C591 1.387 . S
C590 H594 0.950 . S
C590 C599 1.390 . S
C591 C590 1.387 . S
C591 C593 1.387 . S
H592 C599 0.950 . S
C593 C591 1.387 . S
C593 C595 1.390 . S
C593 H597 0.950 . S
H594 C590 0.950 . S
C595 C593 1.390 . S
C595 C596 1.387 . S
C595 H598 0.950 . S
C596 C595 1.387 . S
C596 C599 1.387 . S
H597 C593 0.950 . S
H598 C595 0.950 . S
C599 C590 1.390 . S
C599 H592 0.950 . S
C599 C596 1.387 . S
C600 C601 1.387 . S
C600 H604 0.950 . S
C600 C609 1.390 . S
C601 C600 1.387 . S
C601 C603 1.387 . S
H602 C609 0.950 . S
C603 C601 1.387 . S
C603 C605 1.390 . S
C603 H607 0.950 . S
H604 C600 0.950 . S
C605 C603 1.390 . S
C605 C606 1.387 . S
C605 H608 0.950 . S
C606 C605 1.387 . S
C606 C609 1.387 . S
H607 C603 0.950 . S
H608 C605 0.950 . S
C609 C600 1.390 . S
C609 H602 0.950 . S
C609 C606 1.387 . S
C610 C611 1.387 . S
C610 H614 0.950 . S
C610 C619 1.390 . S
C611 C610 1.387 . S
C611 C613 1.387 . S
H612 C619 0.950 . S
C613 C611 1.387 . S
C613 C615 1.390 . S
C613 H617 0.950 . S
H614 C610 0.950 . S
C615 C613 1.390 . S
C615 C616 1.387 . S
C615 H618 0.950 . S
C616 C615 1.387 . S
C616 C619 1.387 . S
H617 C613 0.950 . S
H618 C615 0.950 . S
C619 C610 1.390 . S
C619 H612 0.950 . S
C619 C616 1.387 . S
C620 C621 1.387 . S
C620 H624 0.950 . S
C620 C629 1.390 . S
C621 C620 1.387 . S
C621 C623 1.387 . S
H622 C629 0.950 . S
C623 C621 1.387 . S
C623 C625 1.390 . S
C623 H627 0.950 . S
H624 C620 0.950 . S
C625 C623 1.390 . S
C625 C626 1.387 . S
C625 H628 0.950 . S
C626 C625 1.387 . S
C626 C629 1.387 . S
H627 C623 0.950 . S
H628 C625 0.950 . S
C629 C620 1.390 . S
C629 H622 0.950 . S
C629 C626 1.387 . S
C630 C631 1.387 . S
C630 H634 0.950 . S
C630 C639 1.390 . S
C631 C630 1.387 . S
C631 C633 1.387 . S
H632 C639 0.950 . S
C633 C631 1.387 . S
C633 C635 1.390 . S
C633 H637 0.950 . S
H634 C630 0.950 . S
C635 C633 1.390 . S
C635 C636 1.387 . S
C635 H638 0.950 1_554 S
C636 C635 1.387 . S
C636 C639 1.403 . S
H637 C633 0.950 . S
H638 C635 0.950 1_556 S
C639 C630 1.390 . S
C639 H632 0.950 . S
C639 C636 1.403 . S
C640 C641 1.387 . S
C640 H644 0.950 . S
C640 C649 1.390 . S
C641 C640 1.387 . S
C641 C643 1.387 . S
H642 C649 0.950 . S
C643 C641 1.387 . S
C643 C645 1.390 . S
C643 H647 0.950 . S
H644 C640 0.950 . S
C645 C643 1.390 . S
C645 C646 1.387 . S
C645 H648 0.950 . S
C646 C645 1.387 . S
C646 C649 1.387 . S
H647 C643 0.950 . S
H648 C645 0.950 . S
C649 C640 1.390 . S
C649 H642 0.950 . S
C649 C646 1.387 . S
C650 C651 1.387 . S
C650 H654 0.950 . S
C650 C659 1.390 . S
C651 C650 1.387 . S
C651 C653 1.387 . S
H652 C659 0.950 . S
C653 C651 1.387 . S
C653 C655 1.390 . S
C653 H657 0.950 . S
H654 C650 0.950 . S
C655 C653 1.390 . S
C655 C656 1.387 . S
C655 H658 0.950 . S
C656 C655 1.387 . S
C656 C659 1.387 . S
H657 C653 0.950 . S
H658 C655 0.950 . S
C659 C650 1.390 . S
C659 H652 0.950 . S
C659 C656 1.387 . S
C660 C661 1.387 . S
C660 H664 0.950 . S
C660 C669 1.390 . S
C661 C660 1.387 . S
C661 C663 1.387 . S
H662 C669 0.950 . S
C663 C661 1.387 . S
C663 C665 1.390 . S
C663 H667 0.950 . S
H664 C660 0.950 . S
C665 C663 1.390 . S
C665 C666 1.387 . S
C665 H668 0.950 . S
C666 C665 1.387 . S
C666 C669 1.387 . S
H667 C663 0.950 . S
H668 C665 0.950 . S
C669 C660 1.390 . S
C669 H662 0.950 . S
C669 C666 1.387 . S
C670 C671 1.387 . S
C670 H674 0.950 . S
C670 C679 1.390 . S
C671 C670 1.387 . S
C671 C673 1.387 . S
H672 C679 0.950 . S
C673 C671 1.387 . S
C673 C675 1.390 . S
C673 H677 0.950 . S
H674 C670 0.950 . S
C675 C673 1.390 . S
C675 C676 1.387 . S
C675 H678 0.950 . S
C676 C675 1.387 . S
C676 C679 1.387 . S
H677 C673 0.950 . S
H678 C675 0.950 . S
C679 C670 1.390 . S
C679 H672 0.950 . S
C679 C676 1.387 . S
C680 C681 1.387 . S
C680 H684 0.950 . S
C680 C689 1.390 . S
C681 C680 1.387 . S
C681 C683 1.387 . S
H682 C689 0.950 . S
C683 C681 1.387 . S
C683 C685 1.390 . S
C683 H687 0.950 . S
H684 C680 0.950 . S
C685 C683 1.390 . S
C685 C686 1.387 . S
C685 H688 0.950 . S
C686 C685 1.387 . S
C686 C689 1.387 . S
H687 C683 0.950 . S
H688 C685 0.950 . S
C689 C680 1.390 . S
C689 H682 0.950 . S
C689 C686 1.387 . S
C690 C691 1.387 . S
C690 H694 0.950 . S
C690 C699 1.390 . S
C691 C690 1.387 . S
C691 C693 1.387 . S
H692 C699 0.950 . S
C693 C691 1.387 . S
C693 C695 1.390 . S
C693 H697 0.950 . S
H694 C690 0.950 . S
C695 C693 1.390 . S
C695 C696 1.387 . S
C695 H698 0.950 . S
C696 C695 1.387 . S
C696 C699 1.387 . S
H697 C693 0.950 . S
H698 C695 0.950 . S
C699 C690 1.390 . S
C699 H692 0.950 . S
C699 C696 1.387 . S
C700 C701 1.387 . S
C700 H704 0.950 . S
C700 C709 1.390 . S
C701 C700 1.387 . S
C701 C703 1.387 . S
H702 C709 0.950 . S
C703 C701 1.387 . S
C703 C705 1.390 . S
C703 H707 0.950 . S
H704 C700 0.950 . S
C705 C703 1.390 . S
C705 C706 1.387 . S
C705 H708 0.950 . S
C706 C705 1.387 . S
C706 C709 1.387 . S
H707 C703 0.950 . S
H708 C705 0.950 . S
C709 C700 1.390 . S
C709 H702 0.950 . S
C709 C706 1.387 . S
C710 C711 1.387 1_554 S
C710 H714 0.950 . S
C710 C719 1.390 . S
C711 C710 1.387 1_556 S
C711 C713 1.387 . S
H712 C719 0.950 . S
C713 C711 1.387 . S
C713 C715 1.390 . S
C713 H717 0.950 . S
H714 C710 0.950 . S
C715 C713 1.390 . S
C715 C716 1.387 . S
C715 H718 0.950 . S
C716 C715 1.387 . S
C716 C719 1.387 1_556 S
H717 C713 0.950 . S
H718 C715 0.950 . S
C719 C710 1.390 . S
C719 H712 0.950 . S
C719 C716 1.387 1_554 S
C720 C721 1.387 . S
C720 H724 0.950 . S
C720 C729 1.390 . S
C721 C720 1.387 . S
C721 C723 1.387 . S
H722 C729 0.950 . S
C723 C721 1.387 . S
C723 C725 1.390 . S
C723 H727 0.950 . S
H724 C720 0.950 . S
C725 C723 1.390 . S
C725 C726 1.387 . S
C725 H728 0.950 . S
C726 C725 1.387 . S
C726 C729 1.387 . S
H727 C723 0.950 . S
H728 C725 0.950 . S
C729 C720 1.390 . S
C729 H722 0.950 . S
C729 C726 1.387 . S
C730 C731 1.387 . S
C730 H734 0.950 . S
C730 C739 1.390 . S
C731 C730 1.387 . S
C731 C733 1.387 . S
H732 C739 0.950 . S
C733 C731 1.387 . S
C733 C735 1.390 . S
C733 H737 0.950 . S
H734 C730 0.950 . S
C735 C733 1.390 . S
C735 C736 1.387 . S
C735 H738 0.950 . S
C736 C735 1.387 . S
C736 C739 1.387 . S
H737 C733 0.950 . S
H738 C735 0.950 . S
C739 C730 1.390 . S
C739 H732 0.950 . S
C739 C736 1.387 . S
C740 C741 1.387 . S
C740 H744 0.950 . S
C740 C749 1.390 . S
C741 C740 1.387 . S
C741 C743 1.387 . S
H742 C749 0.950 . S
C743 C741 1.387 . S
C743 C745 1.390 . S
C743 H747 0.950 . S
H744 C740 0.950 . S
C745 C743 1.390 . S
C745 C746 1.387 . S
C745 H748 0.950 . S
C746 C745 1.387 . S
C746 C749 1.387 . S
H747 C743 0.950 . S
H748 C745 0.950 . S
C749 C740 1.390 . S
C749 H742 0.950 . S
C749 C746 1.387 . S
C750 C751 1.387 . S
C750 H754 0.950 . S
C750 C759 1.390 . S
C751 C750 1.387 . S
C751 C753 1.387 . S
H752 C759 0.950 . S
C753 C751 1.387 . S
C753 C755 1.390 . S
C753 H757 0.950 . S
H754 C750 0.950 . S
C755 C753 1.390 . S
C755 C756 1.387 . S
C755 H758 0.950 . S
C756 C755 1.387 . S
C756 C759 1.387 . S
H757 C753 0.950 . S
H758 C755 0.950 . S
C759 C750 1.390 . S
C759 H752 0.950 . S
C759 C756 1.387 . S
C760 C761 1.387 . S
C760 H764 0.950 . S
C760 C769 1.390 . S
C761 C760 1.387 . S
C761 C763 1.387 . S
H762 C769 0.950 . S
C763 C761 1.387 . S
C763 C765 1.390 . S
C763 H767 0.950 . S
H764 C760 0.950 . S
C765 C763 1.390 . S
C765 C766 1.387 . S
C765 H768 0.950 . S
C766 C765 1.387 . S
C766 C769 1.387 . S
H767 C763 0.950 . S
H768 C765 0.950 . S
C769 C760 1.390 . S
C769 H762 0.950 . S
C769 C766 1.387 . S
C770 C771 1.387 . S
C770 H774 0.950 . S
C770 C779 1.390 . S
C771 C770 1.387 . S
C771 C773 1.387 . S
H772 C779 0.950 . S
C773 C771 1.387 . S
C773 C775 1.390 . S
C773 H777 0.950 . S
H774 C770 0.950 . S
C775 C773 1.390 . S
C775 C776 1.387 . S
C775 H778 0.950 . S
C776 C775 1.387 . S
C776 C779 1.387 . S
H777 C773 0.950 . S
H778 C775 0.950 . S
C779 C770 1.390 . S
C779 H772 0.950 . S
C779 C776 1.387 . S
C780 C781 1.387 . S
C780 H784 0.950 . S
C780 C789 1.390 . S
C781 C780 1.387 . S
C781 C783 1.387 . S
H782 C789 0.950 1_655 S
C783 C781 1.387 . S
C783 C785 1.390 . S
C783 H787 0.950 . S
H784 C780 0.950 . S
C785 C783 1.390 . S
C785 C786 1.387 1_455 S
C785 H788 0.950 . S
C786 C785 1.387 1_655 S
C786 C789 1.387 1_655 S
H787 C783 0.950 . S
H788 C785 0.950 . S
C789 C780 1.390 . S
C789 H782 0.950 1_455 S
C789 C786 1.387 1_455 S
C790 C791 1.387 . S
C790 H794 0.950 . S
C790 C799 1.390 . S
C791 C790 1.387 . S
C791 C793 1.387 . S
H792 C799 0.950 . S
C793 C791 1.387 . S
C793 C795 1.390 . S
C793 H797 0.950 . S
H794 C790 0.950 . S
C795 C793 1.390 . S
C795 C796 1.387 . S
C795 H798 0.950 . S
C796 C795 1.387 . S
C796 C799 1.387 . S
H797 C793 0.950 . S
H798 C795 0.950 . S
C799 C790 1.390 . S
C799 H792 0.950 . S
C799 C796 1.387 . S
C800 C801 1.387 . S
C800 H804 0.950 . S
C800 C809 1.390 . S
C801 C800 1.387 . S
C801 C803 1.387 . S
H802 C809 0.950 . S
C803 C801 1.387 . S
C803 C805 1.390 . S
C803 H807 0.950 . S
H804 C800 0.950 . S
C805 C803 1.390 . S
C805 C806 1.387 . S
C805 H808 0.950 . S
C806 C805 1.387 . S
C806 C809 1.387 . S
H807 C803 0.950 . S
H808 C805 0.950 . S
C809 C800 1.390 . S
C809 H802 0.950 . S
C809 C806 1.387 . S
C810 C811 1.387 . S
C810 H814 0.950 . S
C810 C819 1.390 . S
C811 C810 1.387 . S
C811 C813 1.387 . S
H812 C819 0.950 . S
C813 C811 1.387 . S
C813 C815 1.390 . S
C813 H817 0.950 . S
H814 C810 0.950 . S
C815 C813 1.390 . S
C815 C816 1.387 . S
C815 H818 0.950 . S
C816 C815 1.387 . S
C816 C819 1.387 . S
H817 C813 0.950 . S
H818 C815 0.950 . S
C819 C810 1.390 . S
C819 H812 0.950 . S
C819 C816 1.387 . S
C820 C821 1.387 . S
C820 H824 0.950 . S
C820 C829 1.390 . S
C821 C820 1.387 . S
C821 C823 1.387 . S
H822 C829 0.950 . S
C823 C821 1.387 . S
C823 C825 1.390 . S
C823 H827 0.950 . S
H824 C820 0.950 . S
C825 C823 1.390 . S
C825 C826 1.387 . S
C825 H828 0.936 1_565 S
C826 C825 1.387 . S
C826 C829 1.387 . S
H827 C823 0.950 . S
H828 C825 0.936 1_545 S
C829 C820 1.390 . S
C829 H822 0.950 . S
C829 C826 1.387 . S
C830 C831 1.387 . S
C830 H834 0.950 . S
C830 C839 1.390 . S
C831 C830 1.387 . S
C831 C833 1.387 . S
H832 C839 0.950 . S
C833 C831 1.387 . S
C833 C835 1.390 . S
C833 H837 0.950 . S
H834 C830 0.950 . S
C835 C833 1.390 . S
C835 C836 1.387 . S
C835 H838 0.950 . S
C836 C835 1.387 . S
C836 C839 1.387 . S
H837 C833 0.950 . S
H838 C835 0.950 . S
C839 C830 1.390 . S
C839 H832 0.950 . S
C839 C836 1.387 . S
C481 C15 0.566 . S
C486 C455 0.610 . S
C491 C378 3.057 1_565 S
C496 C58 2.885 . S
C501 C95 2.642 1_554 S
C506 C338 2.786 . S
C511 C138 3.160 . S
C516 C418 3.317 1_545 S
C521 C178 1.613 . S
C526 C415 1.780 . S
C531 C215 1.569 . S
C536 C458 1.482 . S
C541 C375 2.003 . S
C546 C258 1.711 . S
C551 C298 2.219 . S
C556 C335 1.911 . S
C561 C135 1.817 . S
C566 C175 1.552 . S
C571 C18 3.603 . S
C576 C218 3.748 . S
C581 C55 0.828 . S
C586 C255 0.775 . S
C591 C295 2.137 . S
C596 C98 2.121 1_554 S
C601 C19 3.208 . S
C606 C329 3.286 . S
C611 C50 3.105 1_655 S
C616 C409 3.041 . S
C621 C446 1.204 . S
C626 C99 1.145 . S
C631 C130 2.140 . S
C636 C369 2.070 1_554 S
C641 C170 1.166 . S
C646 C366 1.118 . S
C651 C326 1.459 . S
C656 C219 1.348 . S
C661 C406 1.725 . S
C666 C250 1.754 . S
C671 C449 2.120 . S
C676 C290 2.050 . S
C681 C9 2.382 . S
C686 C139 2.310 . S
C691 C10 1.718 . S
C696 C46 1.652 . S
C701 C59 3.169 . S
C706 C89 3.146 . S
C711 C126 1.963 1_565 S
C716 C90 2.073 . S
C721 C210 1.468 . S
C726 C166 1.317 . S
C731 C209 2.316 . S
C736 C259 2.325 . S
C741 C246 0.748 . S
C746 C299 0.747 . S
C751 C179 1.305 . S
C756 C286 1.329 . S
C761 C339 1.503 . S
C766 C129 1.755 . S
C771 C206 1.736 . S
C776 C370 1.775 . S
C781 C330 1.818 . S
C786 C249 1.832 . S
C791 C410 3.332 . S
C796 C289 3.270 . S
C801 C169 0.843 . S
C806 C459 0.850 . S
C811 C450 1.573 . S
C816 C49 1.595 . S
C821 C86 1.280 . S
C826 C379 1.258 . S
C831 C419 1.968 1_545 S
C836 C6 1.994 . S
