# Generated by pormake.
# Topology crb, (4)-cn, num edge types: 1
# Building blocks:
#     Node 0, Type 0, BuildingBlock: KUFVIS_clean_sbu_0, # of connection points: 4
#     Node 1, Type 0, BuildingBlock: KUFVIS_clean_sbu_0, # of connection points: 4
#     Node 2, Type 0, BuildingBlock: KUFVIS_clean_sbu_0, # of connection points: 4
#     Node 3, Type 0, BuildingBlock: KUFVIS_clean_sbu_0, # of connection points: 4
#     Node 4, Type 0, BuildingBlock: KUFVIS_clean_sbu_0, # of connection points: 4
#     Node 5, Type 0, BuildingBlock: KUFVIS_clean_sbu_0, # of connection points: 4
#     Node 6, Type 0, BuildingBlock: KUFVIS_clean_sbu_0, # of connection points: 4
#     Node 7, Type 0, BuildingBlock: KUFVIS_clean_sbu_0, # of connection points: 4
#     Edge 8, Type (0, 0), BuildingBlock: MIFKUJ_clean_linker_0, # of connection points: 2
#     Edge 9, Type (0, 0), BuildingBlock: MIFKUJ_clean_linker_0, # of connection points: 2
#     Edge 10, Type (0, 0), BuildingBlock: MIFKUJ_clean_linker_0, # of connection points: 2
#     Edge 11, Type (0, 0), BuildingBlock: MIFKUJ_clean_linker_0, # of connection points: 2
#     Edge 12, Type (0, 0), BuildingBlock: MIFKUJ_clean_linker_0, # of connection points: 2
#     Edge 13, Type (0, 0), BuildingBlock: MIFKUJ_clean_linker_0, # of connection points: 2
#     Edge 14, Type (0, 0), BuildingBlock: MIFKUJ_clean_linker_0, # of connection points: 2
#     Edge 15, Type (0, 0), BuildingBlock: MIFKUJ_clean_linker_0, # of connection points: 2
#     Edge 16, Type (0, 0), BuildingBlock: MIFKUJ_clean_linker_0, # of connection points: 2
#     Edge 17, Type (0, 0), BuildingBlock: MIFKUJ_clean_linker_0, # of connection points: 2
#     Edge 18, Type (0, 0), BuildingBlock: MIFKUJ_clean_linker_0, # of connection points: 2
#     Edge 19, Type (0, 0), BuildingBlock: MIFKUJ_clean_linker_0, # of connection points: 2
#     Edge 20, Type (0, 0), BuildingBlock: MIFKUJ_clean_linker_0, # of connection points: 2
#     Edge 21, Type (0, 0), BuildingBlock: MIFKUJ_clean_linker_0, # of connection points: 2
#     Edge 22, Type (0, 0), BuildingBlock: MIFKUJ_clean_linker_0, # of connection points: 2
#     Edge 23, Type (0, 0), BuildingBlock: MIFKUJ_clean_linker_0, # of connection points: 2
# Relax obj value: 0.084
# Max RMSD: 0.128
# Mean RMSD: 0.128
data_MOF--net-crb--node1-KUFVIS_clean_sbu_0--edge1-MIFKUJ_clean_linker_0
_symmetry_space_group_name_H-M    P1
_symmetry_Int_Tables_number       1
_symmetry_cell_setting            triclinic
loop_
_symmetry_equiv_pos_as_xyz
'x, y, z'
_cell_length_a     53.920452
_cell_length_b     56.9804
_cell_length_c     30.266924
_cell_angle_alpha  89.926276
_cell_angle_beta   89.828908
_cell_angle_gamma 90.006623
loop_
_atom_site_label
_atom_site_type_symbol
_atom_site_fract_x
_atom_site_fract_y
_atom_site_fract_z
_atom_type_partial_charge
Mn0 Mn 0.32908 0.34175 0.02782 0.0
Mn1 Mn 0.34922 0.28769 0.99999 0.0
C2 C 0.37088 0.33178 0.03431 0.0
C3 C 0.31981 0.38132 0.01456 0.0
C4 C 0.32036 0.29743 0.08372 0.0
O5 O 0.30119 0.32974 0.98745 0.0
O6 O 0.31746 0.2944 0.96976 0.0
C7 C 0.3601 0.29651 0.9054 0.0
N8 N 0.36747 0.28892 0.94597 0.0
C9 C 0.40694 0.27649 0.91746 0.0
C10 C 0.39977 0.28392 0.87523 0.0
C11 C 0.37648 0.29449 0.86941 0.0
C12 C 0.39035 0.27993 0.95237 0.0
H13 H 0.34195 0.30413 0.90069 0.0
C14 C 0.30052 0.3101 0.96688 0.0
O15 O 0.30946 0.36955 0.04624 0.0
O16 O 0.33497 0.36984 0.98898 0.0
N17 N 0.37992 0.27912 0.02691 0.0
C18 C 0.38497 0.2752 0.07039 0.0
C19 C 0.40836 0.26652 0.08248 0.0
C20 C 0.42605 0.26146 0.04969 0.0
C21 C 0.42031 0.26552 1.00518 0.0
C22 C 0.39693 0.27469 0.99523 0.0
H23 H 0.37125 0.27864 0.09562 0.0
O24 O 0.36143 0.34838 0.05843 0.0
O25 O 0.35554 0.32128 1.00808 0.0
O26 O 0.31842 0.31942 0.07742 0.0
O27 O 0.33122 0.28385 0.05644 0.0
C28 C 0.43671 0.2605 0.97021 0.0
C29 C 0.42993 0.26586 0.92634 0.0
H30 H 0.41218 0.282 0.84725 0.0
H31 H 0.37122 0.30096 0.83719 0.0
H32 H 0.41262 0.26344 0.11692 0.0
H33 H 0.44397 0.25448 0.05906 0.0
H34 H 0.45449 0.25243 0.97675 0.0
H35 H 0.44234 0.26158 0.89951 0.0
Mn36 Mn 0.67621 0.35465 0.01913 0.0
Mn37 Mn 0.64388 0.30542 0.04357 0.0
C38 C 0.63413 0.35234 1.00377 0.0
C39 C 0.69035 0.39254 0.0353 0.0
C40 C 0.67894 0.30902 0.96527 0.0
O41 O 0.69866 0.33843 0.0645 0.0
O42 O 0.67464 0.30694 0.07929 0.0
C43 C 0.63027 0.31628 0.13622 0.0
N44 N 0.62342 0.31045 0.09437 0.0
C45 C 0.58043 0.3082 0.11561 0.0
C46 C 0.58704 0.31409 0.15898 0.0
C47 C 0.61206 0.3182 0.16929 0.0
C48 C 0.59939 0.3065 0.08407 0.0
H49 H 0.64947 0.31944 0.1443 0.0
C50 C 0.69412 0.3194 0.08563 0.0
O51 O 0.7012 0.37956 1.0058 0.0
O52 O 0.67241 0.38289 0.05748 0.0
N53 N 0.61345 0.30196 0.01183 0.0
C54 C 0.61001 0.29804 0.96787 0.0
C55 C 0.58597 0.29402 0.95189 0.0
C56 C 0.56576 0.29394 0.98127 0.0
C57 C 0.56972 0.29819 0.02631 0.0
C58 C 0.59413 0.30185 0.04039 0.0
H59 H 0.62549 0.29795 0.94517 0.0
O60 O 0.64825 0.36664 0.9818 0.0
O61 O 0.64509 0.33939 0.03315 0.0
O62 O 0.68552 0.33023 0.97193 0.0
O63 O 0.66369 0.29816 0.99031 0.0
C64 C 0.55039 0.29931 0.05766 0.0
C65 C 0.55573 0.30439 0.10225 0.0
H66 H 0.57304 0.31568 0.18455 0.0
H67 H 0.6173 0.32283 0.20265 0.0
H68 H 0.58302 0.2909 0.91704 0.0
H69 H 0.54728 0.29072 0.96882 0.0
H70 H 0.53131 0.2967 0.04771 0.0
H71 H 0.54067 0.30561 0.1259 0.0
Mn72 Mn 0.6794 0.68364 0.02965 0.0
Mn73 Mn 0.65373 0.7359 1.00294 0.0
C74 C 0.63772 0.69077 0.04439 0.0
C75 C 0.69002 0.64446 0.01572 0.0
C76 C 0.68623 0.72916 0.0831 0.0
O77 O 0.70416 0.69658 0.98422 0.0
O78 O 0.68535 0.73115 0.97066 0.0
C79 C 0.64238 0.72556 0.90924 0.0
N80 N 0.63479 0.73267 0.95004 0.0
C81 C 0.59348 0.74017 0.92369 0.0
C82 C 0.60087 0.73301 0.88133 0.0
C83 C 0.6254 0.72559 0.87413 0.0
C84 C 0.6112 0.73967 0.9574 0.0
H85 H 0.66124 0.71994 0.90352 0.0
C86 C 0.70298 0.71644 0.9646 0.0
O87 O 0.70166 0.65691 0.0449 0.0
O88 O 0.673 0.65511 0.99296 0.0
N89 N 0.62288 0.74302 0.03109 0.0
C90 C 0.61848 0.74835 0.07428 0.0
C91 C 0.59493 0.75643 0.08696 0.0
C92 C 0.57624 0.75901 0.05509 0.0
C93 C 0.58102 0.7529 0.01109 0.0
C94 C 0.60497 0.7454 1.00025 0.0
H95 H 0.63295 0.74682 0.09871 0.0
O96 O 0.65002 0.67531 0.06695 0.0
O97 O 0.65026 0.702 0.01424 0.0
O98 O 0.69094 0.70755 0.07597 0.0
O99 O 0.67233 0.74139 0.05801 0.0
C100 C 0.563 0.75405 0.97754 0.0
C101 C 0.56918 0.7475 0.93392 0.0
H102 H 0.58783 0.73302 0.85417 0.0
H103 H 0.63123 0.71998 0.84157 0.0
H104 H 0.5913 0.761 0.12107 0.0
H105 H 0.55833 0.76591 0.06462 0.0
H106 H 0.54427 0.7597 0.98502 0.0
H107 H 0.55508 0.74813 0.90852 0.0
Mn108 Mn 0.33046 0.67256 0.02014 0.0
Mn109 Mn 0.35725 0.72403 0.04812 0.0
C110 C 0.37251 0.67874 1.00869 0.0
C111 C 0.31907 0.63355 0.03354 0.0
C112 C 0.32552 0.71831 0.96659 0.0
O113 O 0.30529 0.68632 0.064 0.0
O114 O 0.32509 0.72027 0.07938 0.0
C115 C 0.36732 0.71335 0.14219 0.0
N116 N 0.37569 0.71968 0.10136 0.0
C117 C 0.41749 0.72355 0.12804 0.0
C118 C 0.40931 0.71715 0.1704 0.0
C119 C 0.38413 0.71194 0.17745 0.0
C120 C 0.39992 0.72446 0.09412 0.0
H121 H 0.34797 0.70944 0.14783 0.0
C122 C 0.30685 0.70604 0.0841 0.0
O123 O 0.30808 0.64613 1.00368 0.0
O124 O 0.33558 0.64408 0.05755 0.0
N125 N 0.3887 0.72967 0.02058 0.0
C126 C 0.39369 0.73496 0.97753 0.0
C127 C 0.41814 0.74019 0.96478 0.0
C128 C 0.43712 0.74024 0.99648 0.0
C129 C 0.43146 0.73507 0.04067 0.0
C130 C 0.40678 0.72991 0.05141 0.0
H131 H 0.37915 0.73511 0.95309 0.0
O132 O 0.36062 0.66347 0.98506 0.0
O133 O 0.35937 0.69022 0.03733 0.0
O134 O 0.32045 0.69672 0.97317 0.0
O135 O 0.33926 0.73026 0.99246 0.0
C136 C 0.44935 0.73482 0.07449 0.0
C137 C 0.44239 0.72897 0.11812 0.0
H138 H 0.4222 0.71611 0.19771 0.0
H139 H 0.37769 0.70693 0.21002 0.0
H140 H 0.42234 0.74421 0.93061 0.0
H141 H 0.45597 0.74424 0.98651 0.0
H142 H 0.46859 0.73879 0.06722 0.0
H143 H 0.45639 0.72851 0.1437 0.0
Mn144 Mn 0.83421 0.85255 0.52848 0.0
Mn145 Mn 0.85785 0.79982 0.49884 0.0
C146 C 0.87572 0.8439 0.54155 0.0
C147 C 0.82472 0.89227 0.51712 0.0
C148 C 0.82608 0.80657 0.58022 0.0
O149 O 0.80856 0.84086 0.48358 0.0
O150 O 0.82629 0.80604 0.46761 0.0
C151 C 0.86962 0.8118 0.40576 0.0
N152 N 0.87679 0.80321 0.44574 0.0
C153 C 0.91774 0.79466 0.41828 0.0
C154 C 0.91076 0.80329 0.37674 0.0
C155 C 0.88669 0.8121 0.3706 0.0
C156 C 0.90006 0.79511 0.45223 0.0
H157 H 0.85109 0.81849 0.40086 0.0
C158 C 0.80899 0.82123 0.46309 0.0
O159 O 0.81306 0.87962 0.54612 0.0
O160 O 0.84105 0.88153 0.49281 0.0
N161 N 0.88846 0.79118 0.52598 0.0
C162 C 0.89274 0.78504 0.56881 0.0
C163 C 0.91589 0.77571 0.58056 0.0
C164 C 0.93431 0.77275 0.54814 0.0
C165 C 0.92972 0.77977 0.50458 0.0
C166 C 0.90612 0.78844 0.49463 0.0
H167 H 0.87845 0.78684 0.59364 0.0
O168 O 0.86416 0.85953 0.56498 0.0
O169 O 0.8626 0.83346 0.51136 0.0
O170 O 0.82231 0.82842 0.57423 0.0
O171 O 0.83921 0.79415 0.55409 0.0
C172 C 0.9476 0.77844 0.47063 0.0
C173 C 0.94168 0.78611 0.42759 0.0
H174 H 0.92384 0.80352 0.3495 0.0
H175 H 0.8814 0.81918 0.33884 0.0
H176 H 0.9194 0.77047 0.61434 0.0
H177 H 0.95185 0.76486 0.55691 0.0
H178 H 0.96606 0.7719 0.47743 0.0
H179 H 0.95573 0.78547 0.40195 0.0
Mn180 Mn 0.18369 0.84633 0.51903 0.0
Mn181 Mn 0.15469 0.79584 0.54674 0.0
C182 C 0.14149 0.84177 0.50729 0.0
C183 C 0.19652 0.88479 0.53325 0.0
C184 C 0.1874 0.80056 0.46566 0.0
O185 O 0.20806 0.83147 0.56288 0.0
O186 O 0.18643 0.79861 0.57938 0.0
C187 C 0.14331 0.80661 0.6404 0.0
N188 N 0.13547 0.80069 0.59915 0.0
C189 C 0.09306 0.79823 0.62381 0.0
C190 C 0.10069 0.80425 0.66655 0.0
C191 C 0.1259 0.80857 0.67481 0.0
C192 C 0.11121 0.79674 0.59074 0.0
H193 H 0.16269 0.80982 0.64699 0.0
C194 C 0.20533 0.81208 0.58383 0.0
O195 O 0.20714 0.87207 0.50312 0.0
O196 O 0.17952 0.87466 0.55701 0.0
N197 N 0.12355 0.79133 0.51774 0.0
C198 C 0.1191 0.78658 0.47436 0.0
C199 C 0.09468 0.78242 0.46037 0.0
C200 C 0.07515 0.78293 0.49117 0.0
C201 C 0.08022 0.7876 0.53571 0.0
C202 C 0.10492 0.79167 0.54769 0.0
H203 H 0.13406 0.78604 0.45057 0.0
O204 O 0.15411 0.85671 0.48394 0.0
O205 O 0.15401 0.82969 0.53586 0.0
O206 O 0.19289 0.82209 0.47167 0.0
O207 O 0.1734 0.789 0.49192 0.0
C208 C 0.06174 0.78847 0.56864 0.0
C209 C 0.06815 0.79381 0.61265 0.0
H210 H 0.08734 0.80573 0.69321 0.0
H211 H 0.13185 0.81336 0.70767 0.0
H212 H 0.09093 0.77882 0.42594 0.0
H213 H 0.05633 0.77978 0.48024 0.0
H214 H 0.04247 0.78536 0.56038 0.0
H215 H 0.0537 0.79475 0.63756 0.0
Mn216 Mn 0.17364 0.17365 0.53275 0.0
Mn217 Mn 0.14445 0.22456 0.50784 0.0
C218 C 0.13161 0.17789 0.54662 0.0
C219 C 0.18735 0.1356 0.51708 0.0
C220 C 0.17748 0.21889 0.58774 0.0
O221 O 0.19757 0.189 0.48861 0.0
O222 O 0.17593 0.22202 0.47397 0.0
C223 C 0.13229 0.21433 0.41447 0.0
N224 N 0.12485 0.22047 0.45591 0.0
C225 C 0.08245 0.22437 0.43237 0.0
C226 C 0.08967 0.21819 0.38938 0.0
C227 C 0.11468 0.21307 0.38045 0.0
C228 C 0.10081 0.22529 0.46493 0.0
H229 H 0.15149 0.2104 0.40747 0.0
C230 C 0.19473 0.20856 0.46842 0.0
O231 O 0.19773 0.14838 0.54723 0.0
O232 O 0.16975 0.14536 0.4943 0.0
N233 N 0.11358 0.22934 0.53788 0.0
C234 C 0.10949 0.23386 0.5815 0.0
C235 C 0.0854 0.23923 0.59604 0.0
C236 C 0.06582 0.24004 0.56558 0.0
C237 C 0.07045 0.23519 0.52092 0.0
C238 C 0.09489 0.23024 0.50827 0.0
H239 H 0.12452 0.23351 0.605 0.0
O240 O 0.1446 0.16273 0.56867 0.0
O241 O 0.1436 0.1904 0.51767 0.0
O242 O 0.18292 0.19745 0.58063 0.0
O243 O 0.16351 0.23082 0.56227 0.0
C244 C 0.05173 0.23482 0.48854 0.0
C245 C 0.05771 0.2293 0.44433 0.0
H246 H 0.07615 0.21715 0.36306 0.0
H247 H 0.12038 0.2082 0.34739 0.0
H248 H 0.08195 0.24287 0.6306 0.0
H249 H 0.04732 0.2444 0.57687 0.0
H250 H 0.03263 0.23841 0.49738 0.0
H251 H 0.0431 0.22871 0.41987 0.0
Mn252 Mn 0.8275 0.18596 0.5239 0.0
Mn253 Mn 0.84296 0.24054 0.55743 0.0
C254 C 0.86836 0.199 0.51917 0.0
C255 C 0.8214 0.14548 0.53351 0.0
C256 C 0.8169 0.23107 0.47109 0.0
O257 O 0.79838 0.19471 0.56453 0.0
O258 O 0.8108 0.23115 0.58383 0.0
C259 C 0.85031 0.23118 0.65276 0.0
N260 N 0.85918 0.23917 0.61333 0.0
C261 C 0.89638 0.25359 0.64741 0.0
C262 C 0.88767 0.24557 0.68844 0.0
C263 C 0.86463 0.23411 0.69105 0.0
C264 C 0.88157 0.24967 0.61028 0.0
H265 H 0.83238 0.22282 0.65503 0.0
C266 C 0.79546 0.21402 0.58551 0.0
O267 O 0.81052 0.15719 0.5024 0.0
O268 O 0.83519 0.15746 0.56051 0.0
N269 N 0.87384 0.2518 0.5348 0.0
C270 C 0.88005 0.25744 0.49242 0.0
C271 C 0.90302 0.26816 0.48381 0.0
C272 C 0.919 0.27352 0.51896 0.0
C273 C 0.91205 0.26768 0.56228 0.0
C274 C 0.88929 0.25643 0.5687 0.0
H275 H 0.86755 0.25384 0.46545 0.0
O276 O 0.86033 0.18247 0.49341 0.0
O277 O 0.85219 0.20768 0.54651 0.0
O278 O 0.81567 0.2089 0.47597 0.0
O279 O 0.82678 0.24453 0.4996 0.0
C280 C 0.92658 0.27299 0.59945 0.0
C281 C 0.91891 0.26574 0.64196 0.0
H282 H 0.89851 0.24813 0.71813 0.0
H283 H 0.85777 0.22787 0.72258 0.0
H284 H 0.90822 0.27261 0.45027 0.0
H285 H 0.93654 0.28212 0.51231 0.0
H286 H 0.94343 0.283 0.59563 0.0
H287 H 0.93031 0.26984 0.67031 0.0
H288 H 0.28534 0.40776 0.05756 0.0
H289 H 0.2817 0.45042 0.05896 0.0
H290 H 0.34262 0.45608 0.96681 0.0
H291 H 0.34599 0.41318 0.96456 0.0
H292 H 0.31275 0.48131 0.08814 0.0
H293 H 0.33765 0.50699 0.9078 0.0
H294 H 0.33273 0.49137 0.83234 0.0
H295 H 0.26894 0.45194 0.87409 0.0
H296 H 0.27328 0.46757 0.94961 0.0
H297 H 0.34731 0.60128 0.07734 0.0
H298 H 0.3444 0.55858 0.07329 0.0
H299 H 0.27931 0.56468 0.99145 0.0
H300 H 0.28273 0.60749 0.99408 0.0
H301 H 0.308 0.53351 0.95723 0.0
H302 H 0.2771 0.54642 0.10345 0.0
H303 H 0.27735 0.56205 0.1794 0.0
H304 H 0.34431 0.52403 0.20696 0.0
H305 H 0.34464 0.50841 0.13097 0.0
C306 C 0.29775 0.41804 0.03704 0.0
C307 C 0.31597 0.40704 0.01091 0.0
C308 C 0.29573 0.44248 0.03807 0.0
C309 C 0.31186 0.45659 0.01306 0.0
C310 C 0.32971 0.44564 0.98601 0.0
C311 C 0.33164 0.42109 0.98474 0.0
C312 C 0.31067 0.48267 0.01709 0.0
C313 C 0.31168 0.4927 0.05946 0.0
C314 C 0.30885 0.49764 0.97987 0.0
C315 C 0.30598 0.48827 0.93447 0.0
C316 C 0.32254 0.49505 0.90084 0.0
C317 C 0.31985 0.48618 0.85806 0.0
C318 C 0.30059 0.47061 0.84847 0.0
C319 C 0.28392 0.46393 0.88161 0.0
C320 C 0.28651 0.47276 0.92442 0.0
C321 C 0.33213 0.59355 0.05906 0.0
C322 C 0.31518 0.60781 0.03619 0.0
C323 C 0.33046 0.56907 0.05679 0.0
C324 C 0.3115 0.55825 0.03234 0.0
C325 C 0.29417 0.57251 0.01042 0.0
C326 C 0.29603 0.59701 0.01221 0.0
C327 C 0.3103 0.53216 0.02828 0.0
C328 C 0.30898 0.52212 0.98592 0.0
C329 C 0.31121 0.51714 0.06559 0.0
C330 C 0.31099 0.5264 0.1114 0.0
C331 C 0.29197 0.54152 0.12562 0.0
C332 C 0.29199 0.55035 0.16869 0.0
C333 C 0.31086 0.54408 0.19795 0.0
C334 C 0.32971 0.52889 0.18424 0.0
C335 C 0.32979 0.52002 0.14119 0.0
H336 H 0.31085 0.55094 0.23128 0.0
H337 H 0.29854 0.46376 0.81534 0.0
H338 H 0.3957 0.33357 0.95648 0.0
H339 H 0.44014 0.33838 0.94511 0.0
H340 H 0.45196 0.33187 0.08557 0.0
H341 H 0.40705 0.32855 0.09702 0.0
H342 H 0.4739 0.36845 0.0588 0.0
H343 H 0.4981 0.28472 0.99033 0.0
H344 H 0.49904 0.25436 0.9323 0.0
H345 H 0.47498 0.30498 0.8364 0.0
H346 H 0.47518 0.33582 0.8935 0.0
H347 H 0.60366 0.3565 0.07436 0.0
H348 H 0.55852 0.35703 0.07476 0.0
H349 H 0.55863 0.35968 0.932 0.0
H350 H 0.60401 0.35697 0.93203 0.0
H351 H 0.52962 0.32937 0.95163 0.0
H352 H 0.53562 0.40633 1.00775 0.0
H353 H 0.55016 0.43859 0.05529 0.0
H354 H 0.52012 0.40378 0.1694 0.0
H355 H 0.50569 0.37113 0.12265 0.0
C356 C 0.40791 0.3325 0.98478 0.0
C357 C 0.39803 0.3304 0.02762 0.0
C358 C 0.43349 0.33499 0.97818 0.0
C359 C 0.44984 0.33504 0.01425 0.0
C360 C 0.43991 0.33187 0.05701 0.0
C361 C 0.41425 0.32994 0.06367 0.0
C362 C 0.47653 0.34167 1.00865 0.0
C363 C 0.48617 0.35952 0.03586 0.0
C364 C 0.49256 0.33132 0.97701 0.0
C365 C 0.48546 0.31229 0.94662 0.0
C366 C 0.49224 0.28916 0.95716 0.0
C367 C 0.49327 0.27203 0.92418 0.0
C368 C 0.48716 0.27776 0.88064 0.0
C369 C 0.47966 0.30055 0.87014 0.0
C370 C 0.4792 0.31786 0.9028 0.0
C371 C 0.59392 0.35696 0.04312 0.0
C372 C 0.60702 0.35532 1.00316 0.0
C373 C 0.56806 0.35793 0.04331 0.0
C374 C 0.55481 0.3584 1.00339 0.0
C375 C 0.56824 0.35894 0.96335 0.0
C376 C 0.59414 0.3574 0.96324 0.0
C377 C 0.52733 0.35513 1.00333 0.0
C378 C 0.51747 0.33819 0.9749 0.0
C379 C 0.51119 0.36652 0.03342 0.0
C380 C 0.51966 0.38622 0.06167 0.0
C381 C 0.53223 0.40548 0.04301 0.0
C382 C 0.54044 0.42385 0.06983 0.0
C383 C 0.53609 0.42322 0.11534 0.0
C384 C 0.52347 0.40424 0.13414 0.0
C385 C 0.51522 0.38582 0.10748 0.0
H386 H 0.54248 0.43745 0.13604 0.0
H387 H 0.488 0.26448 0.85515 0.0
H388 H 0.6672 0.42473 0.08814 0.0
H389 H 0.67088 0.46743 0.08475 0.0
H390 H 0.72889 0.461 0.98708 0.0
H391 H 0.72497 0.41823 0.98968 0.0
H392 H 0.70482 0.4997 0.09905 0.0
H393 H 0.72228 0.50442 0.91029 0.0
H394 H 0.7137 0.48108 0.8434 0.0
H395 H 0.6506 0.44977 0.9072 0.0
H396 H 0.65859 0.47315 0.97417 0.0
H397 H 0.72842 0.61877 0.04947 0.0
H398 H 0.73247 0.57603 0.05154 0.0
H399 H 0.66421 0.56925 0.97861 0.0
H400 H 0.66062 0.61198 0.97497 0.0
H401 H 0.69393 0.53698 0.95213 0.0
H402 H 0.66756 0.56354 0.09497 0.0
H403 H 0.6698 0.5868 0.16352 0.0
H404 H 0.74006 0.55544 0.19448 0.0
H405 H 0.73836 0.5322 0.12579 0.0
C406 C 0.68104 0.43236 0.06645 0.0
C407 C 0.69566 0.41803 0.03893 0.0
C408 C 0.68313 0.45682 0.06455 0.0
C409 C 0.69984 0.46752 0.03507 0.0
C410 C 0.71551 0.45321 0.00948 0.0
C411 C 0.71337 0.42872 0.01124 0.0
C412 C 0.69985 0.49354 0.02948 0.0
C413 C 0.70262 0.50784 0.06688 0.0
C414 C 0.69635 0.50428 0.98769 0.0
C415 C 0.69124 0.49032 0.9474 0.0
C416 C 0.70654 0.4926 0.90997 0.0
C417 C 0.70178 0.47936 0.87205 0.0
C418 C 0.68168 0.46389 0.87111 0.0
C419 C 0.66623 0.46169 0.90803 0.0
C420 C 0.67088 0.47491 0.94598 0.0
C421 C 0.71447 0.60817 0.0333 0.0
C422 C 0.69413 0.61878 0.01223 0.0
C423 C 0.7167 0.5837 0.03479 0.0
C424 C 0.69835 0.56927 0.01615 0.0
C425 C 0.6786 0.57989 0.99341 0.0
C426 C 0.67655 0.60437 0.99134 0.0
C427 C 0.69916 0.54322 0.02167 0.0
C428 C 0.69647 0.52889 0.98426 0.0
C429 C 0.70193 0.53245 0.06366 0.0
C430 C 0.70295 0.54632 0.10504 0.0
C431 C 0.68356 0.56173 0.11626 0.0
C432 C 0.68472 0.57489 0.15515 0.0
C433 C 0.70509 0.57265 0.18327 0.0
C434 C 0.72431 0.55718 0.17262 0.0
C435 C 0.72325 0.544 0.13374 0.0
H436 H 0.70596 0.58285 0.21336 0.0
H437 H 0.67804 0.45365 0.84175 0.0
H438 H 0.40781 0.68418 0.94445 0.0
H439 H 0.45292 0.6829 0.95418 0.0
H440 H 0.44255 0.66529 0.09199 0.0
H441 H 0.39777 0.66865 0.08275 0.0
H442 H 0.47566 0.69333 0.0913 0.0
H443 H 0.46514 0.62502 1.00603 0.0
H444 H 0.45093 0.59994 0.94481 0.0
H445 H 0.49328 0.6411 0.85268 0.0
H446 H 0.50749 0.66665 0.91326 0.0
H447 H 0.60717 0.6833 0.11509 0.0
H448 H 0.56239 0.67693 0.11386 0.0
H449 H 0.56187 0.69088 0.97346 0.0
H450 H 0.60688 0.69321 0.9741 0.0
H451 H 0.53404 0.65842 0.98354 0.0
H452 H 0.5304 0.73399 0.07261 0.0
H453 H 0.54145 0.75838 0.13758 0.0
H454 H 0.52395 0.70092 0.22397 0.0
H455 H 0.51267 0.67651 0.15969 0.0
C456 C 0.41536 0.68008 0.97667 0.0
C457 C 0.39958 0.67705 0.01307 0.0
C458 C 0.44111 0.679 0.98221 0.0
C459 C 0.45141 0.67363 0.02378 0.0
C460 C 0.43533 0.66964 0.05965 0.0
C461 C 0.40972 0.67153 0.0544 0.0
C462 C 0.47882 0.67372 0.03073 0.0
C463 C 0.48829 0.68571 0.06747 0.0
C464 C 0.49568 0.66323 1.00076 0.0
C465 C 0.48724 0.64786 0.96419 0.0
C466 C 0.4713 0.62882 0.97268 0.0
C467 C 0.46326 0.61451 0.93809 0.0
C468 C 0.47116 0.61895 0.89487 0.0
C469 C 0.48716 0.63769 0.88617 0.0
C470 C 0.49525 0.65208 0.92063 0.0
C471 C 0.59731 0.68528 0.08417 0.0
C472 C 0.61032 0.6902 0.045 0.0
C473 C 0.57155 0.68201 0.08352 0.0
C474 C 0.55814 0.68431 0.04385 0.0
C475 C 0.57138 0.6892 1.00478 0.0
C476 C 0.59716 0.6913 1.00521 0.0
C477 C 0.53074 0.68012 0.04171 0.0
C478 C 0.52128 0.66667 1.00652 0.0
C479 C 0.51378 0.68916 0.07324 0.0
C480 C 0.5215 0.70339 0.11151 0.0
C481 C 0.52944 0.72659 0.10551 0.0
C482 C 0.53554 0.7404 0.14211 0.0
C483 C 0.53374 0.73109 0.18473 0.0
C484 C 0.52555 0.70805 0.19093 0.0
C485 C 0.51922 0.69428 0.15448 0.0
H486 H 0.5385 0.7418 0.21298 0.0
H487 H 0.4649 0.60785 0.86814 0.0
H488 H 0.84707 0.92403 0.4614 0.0
H489 H 0.84469 0.96693 0.4648 0.0
H490 H 0.79337 0.96193 0.57403 0.0
H491 H 0.79512 0.9192 0.56997 0.0
H492 H 0.77945 0.99605 0.52353 0.0
H493 H 0.85647 0.9734 0.58896 0.0
H494 H 0.89718 0.95377 0.59238 0.0
H495 H 0.92274 0.99471 0.48207 0.0
H496 H 0.88204 0.01436 0.47762 0.0
H497 H 0.84266 0.11529 0.59344 0.0
H498 H 0.84126 0.07225 0.59308 0.0
H499 H 0.79541 0.07394 0.47657 0.0
H500 H 0.79622 0.1167 0.47741 0.0
H501 H 0.85771 0.04131 0.53623 0.0
H502 H 0.75717 0.0274 0.47266 0.0
H503 H 0.7162 0.04646 0.4783 0.0
H504 H 0.73727 0.07795 0.6014 0.0
H505 H 0.77823 0.05884 0.59681 0.0
C506 C 0.83502 0.93208 0.48573 0.0
C507 C 0.82136 0.91815 0.5155 0.0
C508 C 0.83382 0.95664 0.4879 0.0
C509 C 0.81921 0.96779 0.52026 0.0
C510 C 0.80484 0.95386 0.54884 0.0
C511 C 0.80588 0.92935 0.54648 0.0
C512 C 0.81931 0.99387 0.52528 0.0
C513 C 0.79659 1.00592 0.52616 0.0
C514 C 0.84159 1.00685 0.52994 0.0
C515 C 0.86613 0.99518 0.5327 0.0
C516 C 0.87072 0.9781 0.56525 0.0
C517 C 0.8938 0.96699 0.5674 0.0
C518 C 0.91252 0.97295 0.53739 0.0
C519 C 0.90821 0.99009 0.50525 0.0
C520 C 0.88515 1.00123 0.50292 0.0
C521 C 0.83202 0.10648 0.56811 0.0
C522 C 0.81943 0.11948 0.53564 0.0
C523 C 0.83135 0.08185 0.56777 0.0
C524 C 0.81804 0.06973 0.53502 0.0
C525 C 0.80542 0.08276 0.50271 0.0
C526 C 0.80597 0.10729 0.50317 0.0
C527 C 0.81786 0.04352 0.5337 0.0
C528 C 0.84058 0.03145 0.5335 0.0
C529 C 0.79554 0.03046 0.53086 0.0
C530 C 0.77086 0.04186 0.53414 0.0
C531 C 0.75302 0.03832 0.50101 0.0
C532 C 0.72981 0.04915 0.50401 0.0
C533 C 0.72417 0.06347 0.54011 0.0
C534 C 0.7417 0.06693 0.57337 0.0
C535 C 0.76493 0.05613 0.57055 0.0
H536 H 0.70619 0.07184 0.54236 0.0
H537 H 0.93037 0.96432 0.5391 0.0
H538 H 0.10627 0.83843 0.44278 0.0
H539 H 0.06123 0.84203 0.45224 0.0
H540 H 0.07178 0.85769 0.59062 0.0
H541 H 0.11638 0.85222 0.58156 0.0
H542 H 0.03701 0.8311 0.58821 0.0
H543 H 0.05266 0.90006 0.50653 0.0
H544 H 0.0689 0.92508 0.44653 0.0
H545 H 0.02427 0.88795 0.35241 0.0
H546 H 0.00801 0.86249 0.41176 0.0
H547 H 0.90637 0.84874 0.61248 0.0
H548 H 0.95144 0.85268 0.61158 0.0
H549 H 0.95174 0.84096 0.47054 0.0
H550 H 0.90664 0.84112 0.47105 0.0
H551 H 0.98171 0.87144 0.48243 0.0
H552 H 0.98297 0.79324 0.56728 0.0
H553 H 0.9703 0.76818 0.63057 0.0
H554 H 0.98529 0.82482 0.71993 0.0
H555 H 0.99814 0.8499 0.65725 0.0
C556 C 0.09878 0.84259 0.47508 0.0
C557 C 0.11449 0.84451 0.51165 0.0
C558 C 0.07309 0.84498 0.48047 0.0
C559 C 0.06289 0.85052 0.52211 0.0
C560 C 0.07896 0.85329 0.55821 0.0
C561 C 0.10445 0.85017 0.55307 0.0
C562 C 0.0355 0.85193 0.52885 0.0
C563 C 0.02505 0.83992 0.56485 0.0
C564 C 0.01957 0.86394 0.49941 0.0
C565 C 0.02926 0.87925 0.46359 0.0
C566 C 0.04643 0.89713 0.473 0.0
C567 C 0.05563 0.9114 0.43911 0.0
C568 C 0.04766 0.90807 0.39568 0.0
C569 C 0.03044 0.8905 0.38607 0.0
C570 C 0.0212 0.87616 0.41983 0.0
C571 C 0.91622 0.84673 0.58148 0.0
C572 C 0.90311 0.84314 0.54207 0.0
C573 C 0.94214 0.84856 0.58101 0.0
C574 C 0.95557 0.84611 0.54127 0.0
C575 C 0.94221 0.84266 0.50193 0.0
C576 C 0.91633 0.84201 0.50223 0.0
C577 C 0.9832 0.84866 0.53945 0.0
C578 C 0.99375 0.86205 0.50499 0.0
C579 C 0.99935 0.83803 0.57044 0.0
C580 C 0.99052 0.82352 0.60768 0.0
C581 C 0.98294 0.80034 0.60042 0.0
C582 C 0.97599 0.78614 0.63611 0.0
C583 C 0.97662 0.79502 0.67911 0.0
C584 C 0.98456 0.81802 0.68659 0.0
C585 C 0.99175 0.83219 0.65105 0.0
H586 H 0.9712 0.78402 0.70666 0.0
H587 H 0.0548 0.91914 0.36949 0.0
H588 H 0.22598 0.11195 0.55458 0.0
H589 H 0.23315 0.0696 0.55515 0.0
H590 H 0.16891 0.05956 0.47262 0.0
H591 H 0.1621 0.10197 0.47091 0.0
H592 H 0.2063 0.03672 0.58886 0.0
H593 H 0.17349 1.00973 0.41342 0.0
H594 H 0.17386 0.02554 0.33751 0.0
H595 H 0.23745 0.06774 0.3684 0.0
H596 H 0.23767 0.05196 0.4443 0.0
H597 H 0.17093 0.91712 0.58194 0.0
H598 H 0.17463 0.95977 0.57862 0.0
H599 H 0.2362 0.95326 0.48807 0.0
H600 H 0.23208 0.9105 0.49026 0.0
H601 H 0.20587 0.98454 0.45786 0.0
H602 H 0.2437 0.97171 0.59791 0.0
H603 H 0.24755 0.95607 0.67359 0.0
H604 H 0.18225 0.99387 0.71291 0.0
H605 H 0.1778 1.00949 0.6373 0.0
C606 C 0.21365 0.10076 0.53587 0.0
C607 C 0.1935 0.11035 0.51261 0.0
C608 C 0.21769 0.07651 0.53642 0.0
C609 C 0.20165 0.06127 0.51387 0.0
C610 C 0.18185 0.07089 0.4897 0.0
C611 C 0.17793 0.09518 0.48879 0.0
C612 C 0.20477 0.03533 0.51776 0.0
C613 C 0.20631 0.02534 0.56015 0.0
C614 C 0.20526 0.02039 0.48041 0.0
C615 C 0.20544 0.0298 0.43467 0.0
C616 C 0.18762 0.02231 0.40396 0.0
C617 C 0.18771 0.03128 0.36094 0.0
C618 C 0.20562 0.04769 0.34818 0.0
C619 C 0.22353 0.0551 0.37837 0.0
C620 C 0.22353 0.04617 0.42141 0.0
C621 C 0.18555 0.92473 0.56191 0.0
C622 C 0.20125 0.91038 0.53643 0.0
C623 C 0.18768 0.94918 0.56009 0.0
C624 C 0.20581 0.95986 0.5333 0.0
C625 C 0.22201 0.94551 0.50889 0.0
C626 C 0.21975 0.92104 0.5104 0.0
C627 C 0.20695 0.98592 0.52898 0.0
C628 C 0.20609 0.99593 0.48654 0.0
C629 C 0.20767 1.00092 0.56625 0.0
C630 C 0.21032 0.99163 0.61183 0.0
C631 C 0.23006 0.97656 0.62262 0.0
C632 C 0.23237 0.96772 0.66552 0.0
C633 C 0.21513 0.97394 0.69801 0.0
C634 C 0.19558 0.98906 0.6877 0.0
C635 C 0.19318 0.99793 0.64484 0.0
H636 H 0.21695 0.96707 0.7312 0.0
H637 H 0.20565 0.05462 0.31487 0.0
H638 H 0.89402 0.19999 0.59625 0.0
H639 H 0.93887 0.19746 0.60564 0.0
H640 H 0.94865 0.20168 0.46431 0.0
H641 H 0.90354 0.20352 0.45497 0.0
H642 H 0.97095 0.16473 0.49465 0.0
H643 H 0.99485 0.25023 0.54274 0.0
H644 H 0.99477 0.28525 0.5906 0.0
H645 H 0.97335 0.24277 0.70165 0.0
H646 H 0.97457 0.20739 0.65473 0.0
H647 H 0.10117 0.17482 0.47607 0.0
H648 H 0.05596 0.17603 0.47569 0.0
H649 H 0.05551 0.17592 0.61847 0.0
H650 H 0.10103 0.17628 0.61842 0.0
H651 H 0.02756 0.20767 0.59438 0.0
H652 H 0.0324 0.12837 0.54916 0.0
H653 H 0.04656 0.09431 0.50572 0.0
H654 H 0.01685 0.12521 0.38775 0.0
H655 H 0.0028 0.15962 0.43036 0.0
C656 C 0.90582 0.2013 0.56733 0.0
C657 C 0.89537 0.20236 0.5249 0.0
C658 C 0.93157 0.19997 0.57274 0.0
C659 C 0.94742 0.19973 0.53579 0.0
C660 C 0.93692 0.20192 0.49344 0.0
C661 C 0.91116 0.20299 0.48803 0.0
C662 C 0.97417 0.19352 0.54051 0.0
C663 C 0.98345 0.17448 0.51583 0.0
C664 C 0.99045 0.20524 0.56965 0.0
C665 C 0.98373 0.22639 0.59489 0.0
C666 C 0.98945 0.24851 0.57709 0.0
C667 C 0.98986 0.26831 0.60428 0.0
C668 C 0.98397 0.26626 0.64912 0.0
C669 C 0.97775 0.24437 0.66686 0.0
C670 C 0.97794 0.22443 0.64001 0.0
C671 C 0.09132 0.17521 0.50731 0.0
C672 C 0.10436 0.17661 0.54722 0.0
C673 C 0.06543 0.17533 0.50715 0.0
C674 C 0.05208 0.17597 0.54708 0.0
C675 C 0.06529 0.17565 0.58716 0.0
C676 C 0.09124 0.17587 0.58722 0.0
C677 C 0.02472 0.17978 0.54688 0.0
C678 C 0.01522 0.19806 0.57274 0.0
C679 C 0.0084 0.1674 0.5187 0.0
C680 C 0.01666 0.14665 0.49296 0.0
C681 C 0.02901 0.12797 0.51391 0.0
C682 C 0.037 0.10859 0.48944 0.0
C683 C 0.03263 0.10761 0.444 0.0
C684 C 0.02021 0.12599 0.42296 0.0
C685 C 0.01219 0.14542 0.44727 0.0
H686 H 0.03884 0.09259 0.42511 0.0
H687 H 0.98415 0.28163 0.67008 0.0
H688 H 0.22373 0.18108 0.4143 0.0
H689 H 0.24823 0.19428 0.35039 0.0
H690 H 0.2314 0.26629 0.38276 0.0
H691 H 0.20651 0.25321 0.4454 0.0
H692 H 0.22151 0.25887 0.30021 0.0
H693 H 0.29085 0.24099 0.39499 0.0
H694 H 0.31651 0.21577 0.44281 0.0
H695 H 0.32767 0.16769 0.33544 0.0
H696 H 0.30181 0.19249 0.28711 0.0
H697 H 0.29914 0.32055 0.15368 0.0
H698 H 0.28096 0.30362 0.22036 0.0
H699 H 0.29864 0.2341 0.17378 0.0
H700 H 0.31741 0.2509 0.10722 0.0
H701 H 0.30796 0.23766 0.26067 0.0
H702 H 0.23959 0.25584 0.16574 0.0
H703 H 0.21396 0.28091 0.11758 0.0
H704 H 0.20067 0.32808 0.2256 0.0
H705 H 0.22651 0.30346 0.27427 0.0
C706 C 0.22574 0.19972 0.40824 0.0
C707 C 0.21309 0.2161 0.43471 0.0
C708 C 0.23974 0.20727 0.37169 0.0
C709 C 0.24165 0.23133 0.36157 0.0
C710 C 0.23005 0.24765 0.3895 0.0
C711 C 0.21588 0.24014 0.42545 0.0
C712 C 0.25405 0.23972 0.32037 0.0
C713 C 0.24055 0.25446 0.29199 0.0
C714 C 0.27858 0.23334 0.30859 0.0
C715 C 0.29418 0.21847 0.33758 0.0
C716 C 0.29861 0.22494 0.38168 0.0
C717 C 0.31323 0.21074 0.40885 0.0
C718 C 0.32366 0.19011 0.39221 0.0
C719 C 0.31955 0.18366 0.34831 0.0
C720 C 0.30494 0.19779 0.321 0.0
C721 C 0.29922 0.30165 0.15748 0.0
C722 C 0.30958 0.28712 0.1247 0.0
C723 C 0.28874 0.29198 0.19569 0.0
C724 C 0.28806 0.26754 0.20185 0.0
C725 C 0.29888 0.25299 0.16974 0.0
C726 C 0.30951 0.26266 0.13157 0.0
C727 C 0.27558 0.25725 0.24135 0.0
C728 C 0.28895 0.24205 0.26908 0.0
C729 C 0.25087 0.26316 0.25266 0.0
C730 C 0.23515 0.2779 0.22354 0.0
C731 C 0.23133 0.27164 0.17914 0.0
C732 C 0.21675 0.28576 0.15177 0.0
C733 C 0.20573 0.3061 0.1685 0.0
C734 C 0.20923 0.31233 0.21268 0.0
C735 C 0.22382 0.29829 0.24018 0.0
H736 H 0.19446 0.31701 0.14725 0.0
H737 H 0.33497 0.17914 0.4133 0.0
H738 H 0.68737 0.28243 0.14169 0.0
H739 H 0.71243 0.27095 0.2045 0.0
H740 H 0.76439 0.32635 0.17546 0.0
H741 H 0.73904 0.33841 0.11181 0.0
H742 H 0.78564 0.27898 0.20038 0.0
H743 H 0.72898 0.33841 0.25187 0.0
H744 H 0.68768 0.35671 0.25816 0.0
H745 H 0.65954 0.29479 0.32193 0.0
H746 H 0.70059 0.27597 0.31536 0.0
H747 H 0.80719 0.27752 0.45546 0.0
H748 H 0.7905 0.29534 0.38833 0.0
H749 H 0.78694 0.22724 0.32681 0.0
H750 H 0.80348 0.20915 0.39399 0.0
H751 H 0.7453 0.28675 0.34733 0.0
H752 H 0.80115 0.23558 0.21558 0.0
H753 H 0.842 0.21654 0.20759 0.0
H754 H 0.87256 0.26303 0.3048 0.0
H755 H 0.83201 0.28258 0.31288 0.0
C756 C 0.70421 0.29219 0.14803 0.0
C757 C 0.71104 0.31153 0.12153 0.0
C758 C 0.71853 0.28552 0.18416 0.0
C759 C 0.74014 0.29787 0.19479 0.0
C760 C 0.74772 0.3166 0.16769 0.0
C761 C 0.73319 0.3235 0.13145 0.0
C762 C 0.75369 0.29168 0.23577 0.0
C763 C 0.77698 0.28084 0.23258 0.0
C764 C 0.74236 0.29421 0.27774 0.0
C765 C 0.71783 0.30573 0.28288 0.0
C766 C 0.71395 0.32865 0.26703 0.0
C767 C 0.69059 0.33912 0.27065 0.0
C768 C 0.67099 0.3269 0.29035 0.0
C769 C 0.67474 0.30423 0.30665 0.0
C770 C 0.69807 0.29366 0.30305 0.0
C771 C 0.80291 0.26627 0.42768 0.0
C772 C 0.80666 0.24185 0.43025 0.0
C773 C 0.79332 0.27652 0.38934 0.0
C774 C 0.78766 0.26267 0.35246 0.0
C775 C 0.79143 0.2383 0.35475 0.0
C776 C 0.80075 0.22798 0.39329 0.0
C777 C 0.77713 0.2736 0.31204 0.0
C778 C 0.75423 0.28518 0.31531 0.0
C779 C 0.78887 0.27176 0.27025 0.0
C780 C 0.81347 0.2604 0.26509 0.0
C781 C 0.81662 0.24181 0.23508 0.0
C782 C 0.83972 0.23092 0.23057 0.0
C783 C 0.85985 0.23852 0.25576 0.0
C784 C 0.85693 0.2571 0.28541 0.0
C785 C 0.83388 0.26807 0.29002 0.0
H786 H 0.8777 0.23005 0.25225 0.0
H787 H 0.6529 0.33502 0.29305 0.0
H788 H 0.7914 0.77796 0.44455 0.0
H789 H 0.76636 0.76619 0.38156 0.0
H790 H 0.75787 0.83867 0.34351 0.0
H791 H 0.78309 0.85074 0.40742 0.0
H792 H 0.7138 0.80808 0.32879 0.0
H793 H 0.80033 0.81266 0.29067 0.0
H794 H 0.84485 0.80609 0.30307 0.0
H795 H 0.8327 0.73164 0.30768 0.0
H796 H 0.78794 0.73783 0.295 0.0
H797 H 0.68438 0.77571 0.10626 0.0
H798 H 0.70181 0.79432 0.17184 0.0
H799 H 0.72913 0.72722 0.21643 0.0
H800 H 0.71232 0.70855 0.15047 0.0
H801 H 0.76358 0.75918 0.22581 0.0
H802 H 0.67667 0.75458 0.262 0.0
H803 H 0.63204 0.76139 0.24985 0.0
H804 H 0.64429 0.83586 0.24998 0.0
H805 H 0.68907 0.82948 0.26149 0.0
C806 C 0.78379 0.7915 0.42339 0.0
C807 C 0.78946 0.81528 0.43064 0.0
C808 C 0.76946 0.78472 0.38739 0.0
C809 C 0.76061 0.80151 0.35746 0.0
C810 C 0.76458 0.82545 0.36625 0.0
C811 C 0.77892 0.83232 0.40275 0.0
C812 C 0.74978 0.79348 0.315 0.0
C813 C 0.72471 0.79774 0.30578 0.0
C814 C 0.76393 0.77964 0.28543 0.0
C815 C 0.79082 0.77572 0.29221 0.0
C816 C 0.80714 0.7949 0.29452 0.0
C817 C 0.83243 0.79124 0.30159 0.0
C818 C 0.84164 0.76847 0.30652 0.0
C819 C 0.82555 0.74928 0.30395 0.0
C820 C 0.80023 0.75285 0.29662 0.0
C821 C 0.6941 0.76486 0.12997 0.0
C822 C 0.69694 0.74057 0.1229 0.0
C823 C 0.70392 0.77555 0.16768 0.0
C824 C 0.71653 0.76216 0.19949 0.0
C825 C 0.71947 0.73795 0.19243 0.0
C826 C 0.70982 0.72727 0.15461 0.0
C827 C 0.72731 0.77335 0.23955 0.0
C828 C 0.75254 0.76966 0.24841 0.0
C829 C 0.71321 0.78768 0.26858 0.0
C830 C 0.68626 0.79154 0.26215 0.0
C831 C 0.66987 0.77241 0.25912 0.0
C832 C 0.64454 0.77619 0.2524 0.0
C833 C 0.63534 0.79904 0.24903 0.0
C834 C 0.65144 0.81816 0.25253 0.0
C835 C 0.6768 0.81447 0.25918 0.0
H836 H 0.61573 0.80193 0.2438 0.0
H837 H 0.86123 0.7657 0.31218 0.0
H838 H 0.21227 0.82003 0.39543 0.0
H839 H 0.22733 0.80038 0.32891 0.0
H840 H 0.19996 0.7342 0.3781 0.0
H841 H 0.18475 0.75368 0.44494 0.0
H842 H 0.24761 0.73089 0.34269 0.0
H843 H 0.16846 0.76086 0.29947 0.0
H844 H 0.13597 0.79098 0.29131 0.0
H845 H 0.18456 0.83219 0.2096 0.0
H846 H 0.2175 0.80247 0.21783 0.0
H847 H 0.27702 0.67761 0.1354 0.0
H848 H 0.2509 0.68998 0.19796 0.0
H849 H 0.26813 0.7624 0.1697 0.0
H850 H 0.29384 0.75028 0.10758 0.0
H851 H 0.22049 0.75796 0.19461 0.0
H852 H 0.30078 0.73198 0.2456 0.0
H853 H 0.33473 0.70337 0.25427 0.0
H854 H 0.28537 0.65618 0.32178 0.0
H855 H 0.251 0.6844 0.31286 0.0
C856 C 0.20947 0.80128 0.39231 0.0
C857 C 0.19721 0.78849 0.42568 0.0
C858 C 0.218 0.79009 0.35409 0.0
C859 C 0.21454 0.76586 0.3483 0.0
C860 C 0.20277 0.75292 0.38181 0.0
C861 C 0.19404 0.76413 0.41997 0.0
C862 C 0.22329 0.75417 0.30719 0.0
C863 C 0.24131 0.73646 0.31033 0.0
C864 C 0.21536 0.76168 0.26492 0.0
C865 C 0.19552 0.7795 0.25953 0.0
C866 C 0.17229 0.77642 0.28001 0.0
C867 C 0.15378 0.79341 0.27534 0.0
C868 C 0.15822 0.8135 0.25001 0.0
C869 C 0.18116 0.81662 0.22922 0.0
C870 C 0.19974 0.79969 0.23384 0.0
C871 C 0.27472 0.69617 0.14197 0.0
C872 C 0.28765 0.71295 0.11678 0.0
C873 C 0.25996 0.70321 0.17789 0.0
C874 C 0.25783 0.72713 0.18891 0.0
C875 C 0.26949 0.74387 0.16199 0.0
C876 C 0.2843 0.73688 0.12653 0.0
C877 C 0.24513 0.73497 0.23006 0.0
C878 C 0.22643 0.75204 0.22697 0.0
C879 C 0.25259 0.72703 0.27236 0.0
C880 C 0.27326 0.71015 0.27807 0.0
C881 C 0.29712 0.71542 0.26198 0.0
C882 C 0.31644 0.69929 0.26697 0.0
C883 C 0.31219 0.67793 0.28844 0.0
C884 C 0.28862 0.6727 0.30507 0.0
C885 C 0.26921 0.68875 0.30005 0.0
H886 H 0.32718 0.66547 0.29229 0.0
H887 H 0.14386 0.82665 0.24644 0.0
H888 H 0.21504 0.76773 0.61143 0.0
H889 H 0.23928 0.75559 0.67514 0.0
H890 H 0.26144 0.8273 0.69735 0.0
H891 H 0.23708 0.83974 0.6327 0.0
H892 H 0.29983 0.79289 0.71531 0.0
H893 H 0.21615 0.80942 0.75684 0.0
H894 H 0.17077 0.80792 0.74857 0.0
H895 H 0.17232 0.73288 0.7617 0.0
H896 H 0.21785 0.73394 0.76975 0.0
H897 H 0.33191 0.76403 0.93949 0.0
H898 H 0.31464 0.78308 0.87401 0.0
H899 H 0.27878 0.71833 0.8374 0.0
H900 H 0.29557 0.69924 0.90298 0.0
H901 H 0.2476 0.75437 0.82968 0.0
H902 H 0.33221 0.73831 0.78557 0.0
H903 H 0.37769 0.7405 0.79284 0.0
H904 H 0.37447 0.81569 0.78503 0.0
H905 H 0.3289 0.81395 0.77834 0.0
C906 C 0.22536 0.78096 0.62931 0.0
C907 C 0.22385 0.80477 0.61731 0.0
C908 C 0.23924 0.77396 0.66578 0.0
C909 C 0.25177 0.79058 0.69149 0.0
C910 C 0.25181 0.8142 0.678 0.0
C911 C 0.23792 0.82128 0.64106 0.0
C912 C 0.26273 0.78319 0.73431 0.0
C913 C 0.28842 0.78485 0.74074 0.0
C914 C 0.24784 0.7725 0.76727 0.0
C915 C 0.22041 0.77175 0.7636 0.0
C916 C 0.20682 0.79258 0.75776 0.0
C917 C 0.18107 0.79181 0.75311 0.0
C918 C 0.16864 0.7703 0.75439 0.0
C919 C 0.18196 0.74953 0.76065 0.0
C920 C 0.20775 0.75021 0.76538 0.0
C921 C 0.32034 0.7538 0.91756 0.0
C922 C 0.31516 0.73004 0.92672 0.0
C923 C 0.31058 0.76472 0.87994 0.0
C924 C 0.29558 0.7521 0.85048 0.0
C925 C 0.2903 0.72845 0.85962 0.0
C926 C 0.29999 0.71753 0.89719 0.0
C927 C 0.2849 0.76346 0.81048 0.0
C928 C 0.2591 0.7626 0.8046 0.0
C929 C 0.29974 0.77498 0.77831 0.0
C930 C 0.32713 0.77601 0.78193 0.0
C931 C 0.34118 0.75532 0.78573 0.0
C932 C 0.36698 0.75647 0.7897 0.0
C933 C 0.37895 0.77822 0.78953 0.0
C934 C 0.36516 0.79886 0.78524 0.0
C935 C 0.33935 0.7978 0.78133 0.0
H936 H 0.39893 0.77908 0.79262 0.0
H937 H 0.14869 0.76974 0.75064 0.0
H938 H 0.2785 0.26808 0.95443 0.0
H939 H 0.2526 0.25626 0.89245 0.0
H940 H 0.25153 0.32763 0.845 0.0
H941 H 0.2774 0.33973 0.90802 0.0
H942 H 0.20539 0.30149 0.83045 0.0
H943 H 0.29282 0.29458 0.79543 0.0
H944 H 0.33606 0.28326 0.80955 0.0
H945 H 0.31371 0.21171 0.82968 0.0
H946 H 0.27021 0.22258 0.81441 0.0
H947 H 0.17844 0.26588 0.60796 0.0
H948 H 0.195 0.2844 0.67449 0.0
H949 H 0.21434 0.21627 0.72638 0.0
H950 H 0.19865 0.19776 0.65953 0.0
H951 H 0.25105 0.24422 0.73731 0.0
H952 H 0.16343 0.25051 0.76481 0.0
H953 H 0.12036 0.26194 0.74807 0.0
H954 H 0.14191 0.33445 0.74374 0.0
H955 H 0.18521 0.32342 0.75981 0.0
C956 C 0.2722 0.28141 0.9315 0.0
C957 C 0.2801 0.3048 0.93587 0.0
C958 C 0.25744 0.27462 0.89602 0.0
C959 C 0.25052 0.29096 0.86365 0.0
C960 C 0.25671 0.31473 0.86961 0.0
C961 C 0.2714 0.32164 0.90564 0.0
C962 C 0.23948 0.28242 0.82166 0.0
C963 C 0.21542 0.28923 0.80964 0.0
C964 C 0.25237 0.26612 0.79492 0.0
C965 C 0.27835 0.25942 0.80418 0.0
C966 C 0.29714 0.27646 0.80307 0.0
C967 C 0.3217 0.27011 0.81125 0.0
C968 C 0.32769 0.24683 0.8211 0.0
C969 C 0.30907 0.22976 0.8222 0.0
C970 C 0.28447 0.23597 0.81348 0.0
C971 C 0.18619 0.25483 0.63357 0.0
C972 C 0.18732 0.23031 0.62819 0.0
C973 C 0.19549 0.26546 0.67182 0.0
C974 C 0.20568 0.25176 0.70588 0.0
C975 C 0.20662 0.22728 0.70064 0.0
C976 C 0.19765 0.21668 0.66227 0.0
C977 C 0.21655 0.26278 0.74608 0.0
C978 C 0.2408 0.25648 0.75782 0.0
C979 C 0.20366 0.27944 0.77238 0.0
C980 C 0.17761 0.28611 0.76306 0.0
C981 C 0.15902 0.26888 0.75996 0.0
C982 C 0.13456 0.27528 0.75064 0.0
C983 C 0.12841 0.2989 0.74473 0.0
C984 C 0.14671 0.31616 0.74826 0.0
C985 C 0.17121 0.30984 0.7575 0.0
H986 H 0.10947 0.30383 0.73751 0.0
H987 H 0.34675 0.24201 0.82762 0.0
H988 H 0.66302 0.26722 0.93073 0.0
H989 H 0.67906 0.24646 0.86614 0.0
H990 H 0.73334 0.30101 0.8459 0.0
H991 H 0.71738 0.32204 0.91052 0.0
H992 H 0.6822 0.26014 0.77863 0.0
H993 H 0.78686 0.27446 0.80841 0.0
H994 H 0.81565 0.28022 0.87065 0.0
H995 H 0.76615 0.24264 0.95673 0.0
H996 H 0.73724 0.23636 0.89488 0.0
H997 H 0.76368 0.25058 0.5923 0.0
H998 H 0.73857 0.26087 0.65692 0.0
H999 H 0.75842 0.19529 0.71864 0.0
H1000 H 0.78317 0.18469 0.65325 0.0
H1001 H 0.77041 0.23586 0.7687 0.0
H1002 H 0.70056 0.2026 0.69546 0.0
H1003 H 0.6717 0.19608 0.63366 0.0
H1004 H 0.65114 0.26886 0.63584 0.0
H1005 H 0.68016 0.27591 0.69725 0.0
C1006 C 0.67843 0.27485 0.91271 0.0
C1007 C 0.68895 0.29633 0.92609 0.0
C1008 C 0.68749 0.26297 0.8756 0.0
C1009 C 0.70749 0.27208 0.85131 0.0
C1010 C 0.71802 0.29353 0.86439 0.0
C1011 C 0.70883 0.30556 0.90131 0.0
C1012 C 0.71732 0.25916 0.81231 0.0
C1013 C 0.70147 0.25478 0.77649 0.0
C1014 C 0.74236 0.25179 0.80977 0.0
C1015 C 0.75979 0.25514 0.84707 0.0
C1016 C 0.78217 0.26734 0.84057 0.0
C1017 C 0.79851 0.2707 0.87579 0.0
C1018 C 0.7927 0.26186 0.91765 0.0
C1019 C 0.77059 0.24955 0.92433 0.0
C1020 C 0.7542 0.24611 0.88921 0.0
C1021 C 0.76181 0.23795 0.61889 0.0
C1022 C 0.77502 0.2167 0.6176 0.0
C1023 C 0.74758 0.24389 0.65589 0.0
C1024 C 0.74668 0.22889 0.69266 0.0
C1025 C 0.75882 0.20708 0.69054 0.0
C1026 C 0.77268 0.2009 0.65302 0.0
C1027 C 0.73543 0.2373 0.73466 0.0
C1028 C 0.75107 0.24099 0.77099 0.0
C1029 C 0.71021 0.24397 0.73767 0.0
C1030 C 0.69269 0.23981 0.70077 0.0
C1031 C 0.69005 0.21726 0.68253 0.0
C1032 C 0.67362 0.21346 0.64761 0.0
C1033 C 0.65963 0.23205 0.63078 0.0
C1034 C 0.662 0.25448 0.6489 0.0
C1035 C 0.67841 0.25838 0.68381 0.0
H1036 H 0.64692 0.22907 0.60375 0.0
H1037 H 0.80536 0.26451 0.94488 0.0
H1038 H 0.73125 0.68741 0.91163 0.0
H1039 H 0.75559 0.69928 0.84638 0.0
H1040 H 0.74044 0.77198 0.87541 0.0
H1041 H 0.71629 0.76038 0.9398 0.0
H1042 H 0.7273 0.76049 0.79193 0.0
H1043 H 0.79803 0.74902 0.88805 0.0
H1044 H 0.82512 0.72603 0.93731 0.0
H1045 H 0.83891 0.67667 0.833 0.0
H1046 H 0.81162 0.69922 0.78328 0.0
H1047 H 0.80059 0.82732 0.64822 0.0
H1048 H 0.78264 0.80858 0.7133 0.0
H1049 H 0.80824 0.74111 0.66763 0.0
H1050 H 0.82683 0.7598 0.60266 0.0
H1051 H 0.81542 0.74497 0.75471 0.0
H1052 H 0.7473 0.75673 0.65727 0.0
H1053 H 0.71985 0.77863 0.60693 0.0
H1054 H 0.69999 0.82552 0.7122 0.0
H1055 H 0.72761 0.8041 0.76304 0.0
C1056 C 0.73368 0.70592 0.90463 0.0
C1057 C 0.72165 0.72294 0.93062 0.0
C1058 C 0.74751 0.71268 0.86728 0.0
C1059 C 0.74962 0.73654 0.85577 0.0
C1060 C 0.73885 0.75348 0.88331 0.0
C1061 C 0.72507 0.74679 0.92023 0.0
C1062 C 0.76121 0.74417 0.81348 0.0
C1063 C 0.74665 0.75727 0.78402 0.0
C1064 C 0.78614 0.73917 0.80226 0.0
C1065 C 0.80255 0.72565 0.83212 0.0
C1066 C 0.80665 0.73315 0.87575 0.0
C1067 C 0.82209 0.72022 0.90372 0.0
C1068 C 0.83367 0.69986 0.88834 0.0
C1069 C 0.82989 0.69242 0.8449 0.0
C1070 C 0.81446 0.70528 0.8168 0.0
C1071 C 0.80241 0.80848 0.65181 0.0
C1072 C 0.81501 0.79509 0.61982 0.0
C1073 C 0.79206 0.79776 0.6891 0.0
C1074 C 0.79373 0.77336 0.69509 0.0
C1075 C 0.80665 0.75995 0.66369 0.0
C1076 C 0.81717 0.77069 0.62643 0.0
C1077 C 0.78169 0.76199 0.73395 0.0
C1078 C 0.79604 0.74806 0.76251 0.0
C1079 C 0.75643 0.76602 0.74431 0.0
C1080 C 0.73968 0.7789 0.71388 0.0
C1081 C 0.73721 0.77181 0.66962 0.0
C1082 C 0.7216 0.78412 0.641 0.0
C1083 C 0.70822 0.80348 0.65633 0.0
C1084 C 0.71038 0.81053 0.70036 0.0
C1085 C 0.72599 0.79829 0.7291 0.0
H1086 H 0.69615 0.813 0.63413 0.0
H1087 H 0.84561 0.68988 0.91004 0.0
loop_
_geom_bond_atom_site_label_1
_geom_bond_atom_site_label_2
_geom_bond_distance
_geom_bond_site_symmetry_2
_ccdc_geom_bond_type
Mn0 O5 2.095 1_554 S
Mn0 O15 2.162 . S
Mn0 O16 2.297 1_554 S
Mn0 O24 2.385 . S
Mn0 O25 2.209 . S
Mn0 O26 2.094 . S
Mn1 O6 2.121 1_554 S
Mn1 N8 2.257 1_554 S
Mn1 N17 2.282 . S
Mn1 O25 2.215 . S
Mn1 O27 2.117 . S
C2 O24 1.234 . S
C2 O25 1.283 . S
C3 O15 1.281 . S
C3 O16 1.236 1_554 S
C4 O26 1.240 . S
C4 O27 1.264 . S
O5 Mn0 2.095 1_556 S
O5 C14 1.250 . S
O6 Mn1 2.121 1_556 S
O6 C14 1.258 . S
C7 N8 1.326 . S
C7 C11 1.460 . S
C7 H13 0.929 . S
N8 Mn1 2.257 1_556 S
N8 C7 1.326 . S
N8 C12 1.362 . S
C9 C10 1.258 . S
C9 C12 1.431 . S
C9 C29 1.449 . S
C10 C9 1.258 . S
C10 C11 1.477 . S
C10 H30 0.931 . S
C11 C7 1.460 . S
C11 C10 1.477 . S
C11 H31 0.930 . S
C12 N8 1.362 . S
C12 C9 1.431 . S
C12 C22 1.476 1_556 S
H13 C7 0.929 . S
C14 O5 1.250 . S
C14 O6 1.258 . S
O15 Mn0 2.162 . S
O15 C3 1.281 . S
O16 Mn0 2.297 1_556 S
O16 C3 1.236 1_556 S
N17 Mn1 2.282 . S
N17 C18 1.328 . S
N17 C22 1.318 . S
C18 N17 1.328 . S
C18 C19 1.457 . S
C18 H23 0.929 . S
C19 C18 1.457 . S
C19 C20 1.291 . S
C19 H32 0.931 . S
C20 C19 1.291 . S
C20 C21 1.373 . S
C20 H33 0.929 . S
C21 C20 1.373 . S
C21 C22 1.396 . S
C21 C28 1.403 . S
C22 C12 1.476 1_554 S
C22 N17 1.318 . S
C22 C21 1.396 . S
H23 C18 0.929 . S
O24 Mn0 2.385 . S
O24 C2 1.234 . S
O25 Mn0 2.209 . S
O25 Mn1 2.215 . S
O25 C2 1.283 . S
O26 Mn0 2.094 . S
O26 C4 1.240 . S
O27 Mn1 2.117 . S
O27 C4 1.264 . S
C28 C21 1.403 . S
C28 C29 1.399 1_554 S
C28 H34 0.929 . S
C29 C9 1.449 . S
C29 C28 1.399 1_556 S
C29 H35 0.930 . S
H30 C10 0.931 . S
H31 C11 0.930 . S
H32 C19 0.931 . S
H33 C20 0.929 . S
H34 C28 0.929 . S
H35 C29 0.930 . S
Mn36 O41 2.094 . S
Mn36 O51 2.162 1_554 S
Mn36 O52 2.296 . S
Mn36 O60 2.386 1_554 S
Mn36 O61 2.208 . S
Mn36 O62 2.095 1_554 S
Mn37 O42 2.121 . S
Mn37 N44 2.257 . S
Mn37 N53 2.282 1_554 S
Mn37 O61 2.215 . S
Mn37 O63 2.117 1_554 S
C38 O60 1.234 . S
C38 O61 1.283 1_556 S
C39 O51 1.281 1_554 S
C39 O52 1.236 . S
C40 O62 1.240 . S
C40 O63 1.264 . S
O41 Mn36 2.094 . S
O41 C50 1.250 . S
O42 Mn37 2.121 . S
O42 C50 1.258 . S
C43 N44 1.326 . S
C43 C47 1.460 . S
C43 H49 0.929 . S
N44 Mn37 2.257 . S
N44 C43 1.326 . S
N44 C48 1.362 . S
C45 C46 1.258 . S
C45 C48 1.431 . S
C45 C65 1.449 . S
C46 C45 1.258 . S
C46 C47 1.477 . S
C46 H66 0.931 . S
C47 C43 1.460 . S
C47 C46 1.477 . S
C47 H67 0.930 . S
C48 N44 1.362 . S
C48 C45 1.431 . S
C48 C58 1.449 1_554 S
H49 C43 0.929 . S
C50 O41 1.250 . S
C50 O42 1.258 . S
O51 Mn36 2.162 1_556 S
O51 C39 1.281 1_556 S
O52 Mn36 2.296 . S
O52 C39 1.236 . S
N53 Mn37 2.282 1_556 S
N53 C54 1.328 . S
N53 C58 1.331 . S
C54 N53 1.328 . S
C54 C55 1.457 . S
C54 H59 0.929 . S
C55 C54 1.457 . S
C55 C56 1.291 . S
C55 H68 0.931 . S
C56 C55 1.291 . S
C56 C57 1.373 . S
C56 H69 0.929 . S
C57 C56 1.373 . S
C57 C58 1.409 . S
C57 C64 1.403 1_556 S
C58 C48 1.449 1_556 S
C58 N53 1.331 . S
C58 C57 1.409 . S
H59 C54 0.929 . S
O60 Mn36 2.386 1_556 S
O60 C38 1.234 . S
O61 Mn36 2.208 . S
O61 Mn37 2.215 . S
O61 C38 1.283 1_554 S
O62 Mn36 2.095 1_556 S
O62 C40 1.240 . S
O63 Mn37 2.117 1_556 S
O63 C40 1.264 . S
C64 C57 1.403 1_554 S
C64 C65 1.399 . S
C64 H70 0.929 1_554 S
C65 C45 1.449 . S
C65 C64 1.399 . S
C65 H71 0.930 . S
H66 C46 0.931 . S
H67 C47 0.930 . S
H68 C55 0.931 . S
H69 C56 0.929 . S
H70 C64 0.929 1_556 S
H71 C65 0.930 . S
Mn72 O77 2.095 1_554 S
Mn72 O87 2.162 . S
Mn72 O88 2.297 1_554 S
Mn72 O96 2.385 . S
Mn72 O97 2.209 . S
Mn72 O98 2.094 . S
Mn73 O78 2.121 1_554 S
Mn73 N80 2.257 1_554 S
Mn73 N89 2.282 . S
Mn73 O97 2.215 . S
Mn73 O99 2.117 . S
C74 O96 1.234 . S
C74 O97 1.283 . S
C75 O87 1.281 . S
C75 O88 1.236 1_554 S
C76 O98 1.240 . S
C76 O99 1.264 . S
O77 Mn72 2.095 1_556 S
O77 C86 1.250 . S
O78 Mn73 2.121 1_556 S
O78 C86 1.258 . S
C79 N80 1.326 . S
C79 C83 1.460 . S
C79 H85 0.929 . S
N80 Mn73 2.257 1_556 S
N80 C79 1.326 . S
N80 C84 1.362 . S
C81 C82 1.258 . S
C81 C84 1.431 . S
C81 C101 1.449 . S
C82 C81 1.258 . S
C82 C83 1.477 . S
C82 H102 0.931 . S
C83 C79 1.460 . S
C83 C82 1.477 . S
C83 H103 0.930 . S
C84 N80 1.362 . S
C84 C81 1.431 . S
C84 C94 1.476 1_556 S
H85 C79 0.929 . S
C86 O77 1.250 . S
C86 O78 1.258 . S
O87 Mn72 2.162 . S
O87 C75 1.281 . S
O88 Mn72 2.297 1_556 S
O88 C75 1.236 1_556 S
N89 Mn73 2.282 . S
N89 C90 1.328 . S
N89 C94 1.318 . S
C90 N89 1.328 . S
C90 C91 1.457 . S
C90 H95 0.929 . S
C91 C90 1.457 . S
C91 C92 1.291 . S
C91 H104 0.931 . S
C92 C91 1.291 . S
C92 C93 1.373 . S
C92 H105 0.929 . S
C93 C92 1.373 . S
C93 C94 1.396 . S
C93 C100 1.403 . S
C94 C84 1.476 1_554 S
C94 N89 1.318 . S
C94 C93 1.396 . S
H95 C90 0.929 . S
O96 Mn72 2.385 . S
O96 C74 1.234 . S
O97 Mn72 2.209 . S
O97 Mn73 2.215 . S
O97 C74 1.283 . S
O98 Mn72 2.094 . S
O98 C76 1.240 . S
O99 Mn73 2.117 . S
O99 C76 1.264 . S
C100 C93 1.403 . S
C100 C101 1.399 1_554 S
C100 H106 0.929 . S
C101 C81 1.449 . S
C101 C100 1.399 1_556 S
C101 H107 0.930 . S
H102 C82 0.931 . S
H103 C83 0.930 . S
H104 C91 0.931 . S
H105 C92 0.929 . S
H106 C100 0.929 . S
H107 C101 0.930 . S
Mn108 O113 2.094 . S
Mn108 O123 2.162 1_554 S
Mn108 O124 2.296 . S
Mn108 O132 2.386 1_554 S
Mn108 O133 2.208 . S
Mn108 O134 2.095 1_554 S
Mn109 O114 2.121 . S
Mn109 N116 2.257 . S
Mn109 N125 2.282 1_554 S
Mn109 O133 2.215 . S
Mn109 O135 2.117 1_554 S
C110 O132 1.234 . S
C110 O133 1.283 1_556 S
C111 O123 1.281 1_554 S
C111 O124 1.236 . S
C112 O134 1.240 . S
C112 O135 1.264 . S
O113 Mn108 2.094 . S
O113 C122 1.250 . S
O114 Mn109 2.121 . S
O114 C122 1.258 . S
C115 N116 1.326 . S
C115 C119 1.460 . S
C115 H121 0.929 . S
N116 Mn109 2.257 . S
N116 C115 1.326 . S
N116 C120 1.362 . S
C117 C118 1.258 . S
C117 C120 1.431 . S
C117 C137 1.449 . S
C118 C117 1.258 . S
C118 C119 1.477 . S
C118 H138 0.931 . S
C119 C115 1.460 . S
C119 C118 1.477 . S
C119 H139 0.930 . S
C120 N116 1.362 . S
C120 C117 1.431 . S
C120 C130 1.449 1_554 S
H121 C115 0.929 . S
C122 O113 1.250 . S
C122 O114 1.258 . S
O123 Mn108 2.162 1_556 S
O123 C111 1.281 1_556 S
O124 Mn108 2.296 . S
O124 C111 1.236 . S
N125 Mn109 2.282 1_556 S
N125 C126 1.328 . S
N125 C130 1.331 . S
C126 N125 1.328 . S
C126 C127 1.457 . S
C126 H131 0.929 . S
C127 C126 1.457 . S
C127 C128 1.291 . S
C127 H140 0.931 . S
C128 C127 1.291 . S
C128 C129 1.373 . S
C128 H141 0.929 . S
C129 C128 1.373 . S
C129 C130 1.409 . S
C129 C136 1.403 1_556 S
C130 C120 1.449 1_556 S
C130 N125 1.331 . S
C130 C129 1.409 . S
H131 C126 0.929 . S
O132 Mn108 2.386 1_556 S
O132 C110 1.234 . S
O133 Mn108 2.208 . S
O133 Mn109 2.215 . S
O133 C110 1.283 1_554 S
O134 Mn108 2.095 1_556 S
O134 C112 1.240 . S
O135 Mn109 2.117 1_556 S
O135 C112 1.264 . S
C136 C129 1.403 1_554 S
C136 C137 1.399 . S
C136 H142 0.929 1_554 S
C137 C117 1.449 . S
C137 C136 1.399 . S
C137 H143 0.930 . S
H138 C118 0.931 . S
H139 C119 0.930 . S
H140 C127 0.931 . S
H141 C128 0.929 . S
H142 C136 0.929 1_556 S
H143 C137 0.930 . S
Mn144 O149 2.095 . S
Mn144 O159 2.162 . S
Mn144 O160 2.297 . S
Mn144 O168 2.385 . S
Mn144 O169 2.209 . S
Mn144 O170 2.094 . S
Mn145 O150 2.121 . S
Mn145 N152 2.257 . S
Mn145 N161 2.282 . S
Mn145 O169 2.215 . S
Mn145 O171 2.117 . S
C146 O168 1.234 . S
C146 O169 1.283 . S
C147 O159 1.281 . S
C147 O160 1.236 . S
C148 O170 1.240 . S
C148 O171 1.264 . S
O149 Mn144 2.095 . S
O149 C158 1.250 . S
O150 Mn145 2.121 . S
O150 C158 1.258 . S
C151 N152 1.326 . S
C151 C155 1.460 . S
C151 H157 0.929 . S
N152 Mn145 2.257 . S
N152 C151 1.326 . S
N152 C156 1.362 . S
C153 C154 1.258 . S
C153 C156 1.431 . S
C153 C173 1.449 . S
C154 C153 1.258 . S
C154 C155 1.477 . S
C154 H174 0.931 . S
C155 C151 1.460 . S
C155 C154 1.477 . S
C155 H175 0.930 . S
C156 N152 1.362 . S
C156 C153 1.431 . S
C156 C166 1.476 . S
H157 C151 0.929 . S
C158 O149 1.250 . S
C158 O150 1.258 . S
O159 Mn144 2.162 . S
O159 C147 1.281 . S
O160 Mn144 2.297 . S
O160 C147 1.236 . S
N161 Mn145 2.282 . S
N161 C162 1.328 . S
N161 C166 1.318 . S
C162 N161 1.328 . S
C162 C163 1.457 . S
C162 H167 0.929 . S
C163 C162 1.457 . S
C163 C164 1.291 . S
C163 H176 0.931 . S
C164 C163 1.291 . S
C164 C165 1.373 . S
C164 H177 0.929 . S
C165 C164 1.373 . S
C165 C166 1.396 . S
C165 C172 1.403 . S
C166 C156 1.476 . S
C166 N161 1.318 . S
C166 C165 1.396 . S
H167 C162 0.929 . S
O168 Mn144 2.385 . S
O168 C146 1.234 . S
O169 Mn144 2.209 . S
O169 Mn145 2.215 . S
O169 C146 1.283 . S
O170 Mn144 2.094 . S
O170 C148 1.240 . S
O171 Mn145 2.117 . S
O171 C148 1.264 . S
C172 C165 1.403 . S
C172 C173 1.399 . S
C172 H178 0.929 . S
C173 C153 1.449 . S
C173 C172 1.399 . S
C173 H179 0.930 . S
H174 C154 0.931 . S
H175 C155 0.930 . S
H176 C163 0.931 . S
H177 C164 0.929 . S
H178 C172 0.929 . S
H179 C173 0.930 . S
Mn180 O185 2.095 . S
Mn180 O195 2.162 . S
Mn180 O196 2.297 . S
Mn180 O204 2.385 . S
Mn180 O205 2.209 . S
Mn180 O206 2.094 . S
Mn181 O186 2.121 . S
Mn181 N188 2.257 . S
Mn181 N197 2.282 . S
Mn181 O205 2.215 . S
Mn181 O207 2.117 . S
C182 O204 1.234 . S
C182 O205 1.283 . S
C183 O195 1.281 . S
C183 O196 1.236 . S
C184 O206 1.240 . S
C184 O207 1.264 . S
O185 Mn180 2.095 . S
O185 C194 1.250 . S
O186 Mn181 2.121 . S
O186 C194 1.258 . S
C187 N188 1.326 . S
C187 C191 1.460 . S
C187 H193 0.929 . S
N188 Mn181 2.257 . S
N188 C187 1.326 . S
N188 C192 1.362 . S
C189 C190 1.258 . S
C189 C192 1.431 . S
C189 C209 1.449 . S
C190 C189 1.258 . S
C190 C191 1.477 . S
C190 H210 0.931 . S
C191 C187 1.460 . S
C191 C190 1.477 . S
C191 H211 0.930 . S
C192 N188 1.362 . S
C192 C189 1.431 . S
C192 C202 1.476 . S
H193 C187 0.929 . S
C194 O185 1.250 . S
C194 O186 1.258 . S
O195 Mn180 2.162 . S
O195 C183 1.281 . S
O196 Mn180 2.297 . S
O196 C183 1.236 . S
N197 Mn181 2.282 . S
N197 C198 1.328 . S
N197 C202 1.318 . S
C198 N197 1.328 . S
C198 C199 1.457 . S
C198 H203 0.929 . S
C199 C198 1.457 . S
C199 C200 1.291 . S
C199 H212 0.931 . S
C200 C199 1.291 . S
C200 C201 1.373 . S
C200 H213 0.929 . S
C201 C200 1.373 . S
C201 C202 1.396 . S
C201 C208 1.403 . S
C202 C192 1.476 . S
C202 N197 1.318 . S
C202 C201 1.396 . S
H203 C198 0.929 . S
O204 Mn180 2.385 . S
O204 C182 1.234 . S
O205 Mn180 2.209 . S
O205 Mn181 2.215 . S
O205 C182 1.283 . S
O206 Mn180 2.094 . S
O206 C184 1.240 . S
O207 Mn181 2.117 . S
O207 C184 1.264 . S
C208 C201 1.403 . S
C208 C209 1.399 . S
C208 H214 0.929 . S
C209 C189 1.449 . S
C209 C208 1.399 . S
C209 H215 0.930 . S
H210 C190 0.931 . S
H211 C191 0.930 . S
H212 C199 0.931 . S
H213 C200 0.929 . S
H214 C208 0.929 . S
H215 C209 0.930 . S
Mn216 O221 2.095 . S
Mn216 O231 2.162 . S
Mn216 O232 2.297 . S
Mn216 O240 2.385 . S
Mn216 O241 2.209 . S
Mn216 O242 2.094 . S
Mn217 O222 2.121 . S
Mn217 N224 2.257 . S
Mn217 N233 2.282 . S
Mn217 O241 2.215 . S
Mn217 O243 2.117 . S
C218 O240 1.234 . S
C218 O241 1.283 . S
C219 O231 1.281 . S
C219 O232 1.236 . S
C220 O242 1.240 . S
C220 O243 1.264 . S
O221 Mn216 2.095 . S
O221 C230 1.250 . S
O222 Mn217 2.121 . S
O222 C230 1.258 . S
C223 N224 1.326 . S
C223 C227 1.460 . S
C223 H229 0.929 . S
N224 Mn217 2.257 . S
N224 C223 1.326 . S
N224 C228 1.362 . S
C225 C226 1.258 . S
C225 C228 1.431 . S
C225 C245 1.449 . S
C226 C225 1.258 . S
C226 C227 1.477 . S
C226 H246 0.931 . S
C227 C223 1.460 . S
C227 C226 1.477 . S
C227 H247 0.930 . S
C228 N224 1.362 . S
C228 C225 1.431 . S
C228 C238 1.476 . S
H229 C223 0.929 . S
C230 O221 1.250 . S
C230 O222 1.258 . S
O231 Mn216 2.162 . S
O231 C219 1.281 . S
O232 Mn216 2.297 . S
O232 C219 1.236 . S
N233 Mn217 2.282 . S
N233 C234 1.328 . S
N233 C238 1.318 . S
C234 N233 1.328 . S
C234 C235 1.457 . S
C234 H239 0.929 . S
C235 C234 1.457 . S
C235 C236 1.291 . S
C235 H248 0.931 . S
C236 C235 1.291 . S
C236 C237 1.373 . S
C236 H249 0.929 . S
C237 C236 1.373 . S
C237 C238 1.396 . S
C237 C244 1.403 . S
C238 C228 1.476 . S
C238 N233 1.318 . S
C238 C237 1.396 . S
H239 C234 0.929 . S
O240 Mn216 2.385 . S
O240 C218 1.234 . S
O241 Mn216 2.209 . S
O241 Mn217 2.215 . S
O241 C218 1.283 . S
O242 Mn216 2.094 . S
O242 C220 1.240 . S
O243 Mn217 2.117 . S
O243 C220 1.264 . S
C244 C237 1.403 . S
C244 C245 1.399 . S
C244 H250 0.929 . S
C245 C225 1.449 . S
C245 C244 1.399 . S
C245 H251 0.930 . S
H246 C226 0.931 . S
H247 C227 0.930 . S
H248 C235 0.931 . S
H249 C236 0.929 . S
H250 C244 0.929 . S
H251 C245 0.930 . S
Mn252 O257 2.095 . S
Mn252 O267 2.162 . S
Mn252 O268 2.297 . S
Mn252 O276 2.385 . S
Mn252 O277 2.209 . S
Mn252 O278 2.094 . S
Mn253 O258 2.121 . S
Mn253 N260 2.257 . S
Mn253 N269 2.282 . S
Mn253 O277 2.215 . S
Mn253 O279 2.117 . S
C254 O276 1.234 . S
C254 O277 1.283 . S
C255 O267 1.281 . S
C255 O268 1.236 . S
C256 O278 1.240 . S
C256 O279 1.264 . S
O257 Mn252 2.095 . S
O257 C266 1.250 . S
O258 Mn253 2.121 . S
O258 C266 1.258 . S
C259 N260 1.326 . S
C259 C263 1.460 . S
C259 H265 0.929 . S
N260 Mn253 2.257 . S
N260 C259 1.326 . S
N260 C264 1.362 . S
C261 C262 1.258 . S
C261 C264 1.431 . S
C261 C281 1.449 . S
C262 C261 1.258 . S
C262 C263 1.477 . S
C262 H282 0.931 . S
C263 C259 1.460 . S
C263 C262 1.477 . S
C263 H283 0.930 . S
C264 N260 1.362 . S
C264 C261 1.431 . S
C264 C274 1.476 . S
H265 C259 0.929 . S
C266 O257 1.250 . S
C266 O258 1.258 . S
O267 Mn252 2.162 . S
O267 C255 1.281 . S
O268 Mn252 2.297 . S
O268 C255 1.236 . S
N269 Mn253 2.282 . S
N269 C270 1.328 . S
N269 C274 1.318 . S
C270 N269 1.328 . S
C270 C271 1.457 . S
C270 H275 0.929 . S
C271 C270 1.457 . S
C271 C272 1.291 . S
C271 H284 0.931 . S
C272 C271 1.291 . S
C272 C273 1.373 . S
C272 H285 0.929 . S
C273 C272 1.373 . S
C273 C274 1.396 . S
C273 C280 1.403 . S
C274 C264 1.476 . S
C274 N269 1.318 . S
C274 C273 1.396 . S
H275 C270 0.929 . S
O276 Mn252 2.385 . S
O276 C254 1.234 . S
O277 Mn252 2.209 . S
O277 Mn253 2.215 . S
O277 C254 1.283 . S
O278 Mn252 2.094 . S
O278 C256 1.240 . S
O279 Mn253 2.117 . S
O279 C256 1.264 . S
C280 C273 1.403 . S
C280 C281 1.399 . S
C280 H286 0.929 . S
C281 C261 1.449 . S
C281 C280 1.399 . S
C281 H287 0.930 . S
H282 C262 0.931 . S
H283 C263 0.930 . S
H284 C271 0.931 . S
H285 C272 0.929 . S
H286 C280 0.929 . S
H287 C281 0.930 . S
H288 C306 0.951 . S
H289 C308 0.951 . S
H290 C310 0.955 . S
H291 C311 0.950 . S
H292 C313 0.950 . S
H293 C316 0.950 . S
H294 C317 0.950 . S
H295 C319 0.950 . S
H296 C320 0.950 . S
H297 C321 0.951 . S
H298 C323 0.951 . S
H299 C325 0.950 . S
H300 C326 0.950 . S
H301 C328 0.962 . S
H302 C331 0.950 . S
H303 C332 0.950 . S
H304 C334 0.950 . S
H305 C335 0.950 . S
C306 H288 0.951 . S
C306 C307 1.366 . S
C306 C308 1.388 . S
C307 C306 1.366 . S
C307 C311 1.385 1_554 S
C308 H289 0.951 . S
C308 C306 1.388 . S
C308 C309 1.366 . S
C309 C308 1.366 . S
C309 C310 1.409 1_554 S
C309 C312 1.499 . S
C310 H290 0.955 . S
C310 C309 1.409 1_556 S
C310 C311 1.375 . S
C311 H291 0.950 . S
C311 C307 1.385 1_556 S
C311 C310 1.375 . S
C312 C309 1.499 . S
C312 C313 1.373 . S
C312 C314 1.389 1_554 S
C313 H292 0.950 . S
C313 C312 1.373 . S
C313 C329 1.377 . S
C314 C312 1.389 1_556 S
C314 C315 1.524 . S
C314 C328 1.380 . S
C315 C314 1.524 . S
C315 C316 1.397 . S
C315 C320 1.363 . S
C316 H293 0.950 . S
C316 C315 1.397 . S
C316 C317 1.334 . S
C317 H294 0.950 . S
C317 C316 1.334 . S
C317 C318 1.287 . S
C318 C317 1.287 . S
C318 C319 1.524 . S
C318 H337 0.913 . S
C319 H295 0.950 . S
C319 C318 1.524 . S
C319 C320 1.415 . S
C320 H296 0.950 . S
C320 C315 1.363 . S
C320 C319 1.415 . S
C321 H297 0.951 . S
C321 C322 1.366 . S
C321 C323 1.388 . S
C322 C321 1.366 . S
C322 C326 1.385 . S
C323 H298 0.951 . S
C323 C321 1.388 . S
C323 C324 1.366 . S
C324 C323 1.366 . S
C324 C325 1.414 . S
C324 C327 1.499 . S
C325 H299 0.950 . S
C325 C324 1.414 . S
C325 C326 1.374 . S
C326 H300 0.950 . S
C326 C322 1.385 . S
C326 C325 1.374 . S
C327 C324 1.499 . S
C327 C328 1.359 1_554 S
C327 C329 1.389 . S
C328 H301 0.962 . S
C328 C314 1.380 . S
C328 C327 1.359 1_556 S
C329 C313 1.377 . S
C329 C327 1.389 . S
C329 C330 1.524 . S
C330 C329 1.524 . S
C330 C331 1.397 . S
C330 C335 1.363 . S
C331 H302 0.950 . S
C331 C330 1.397 . S
C331 C332 1.334 . S
C332 H303 0.950 . S
C332 C331 1.334 . S
C332 C333 1.287 . S
C333 C332 1.287 . S
C333 C334 1.524 . S
C333 H336 0.999 . S
C334 H304 0.950 . S
C334 C333 1.524 . S
C334 C335 1.415 . S
C335 H305 0.950 . S
C335 C330 1.363 . S
C335 C334 1.415 . S
H336 C333 0.999 . S
H337 C318 0.913 . S
H338 C356 0.951 1_556 S
H339 C358 0.951 1_556 S
H340 C360 0.950 . S
H341 C361 0.950 . S
H342 C363 0.950 . S
H343 C366 0.950 . S
H344 C367 0.950 . S
H345 C369 0.950 . S
H346 C370 0.950 . S
H347 C371 0.951 . S
H348 C373 0.951 . S
H349 C375 0.950 . S
H350 C376 0.950 . S
H351 C378 0.950 . S
H352 C381 0.950 . S
H353 C382 0.950 . S
H354 C384 0.950 . S
H355 C385 0.950 . S
C356 H338 0.951 1_554 S
C356 C357 1.366 . S
C356 C358 1.388 . S
C357 C356 1.366 . S
C357 C361 1.385 . S
C358 H339 0.951 1_554 S
C358 C356 1.388 . S
C358 C359 1.366 . S
C359 C358 1.366 . S
C359 C360 1.414 . S
C359 C362 1.499 . S
C360 H340 0.950 . S
C360 C359 1.414 . S
C360 C361 1.374 . S
C361 H341 0.950 . S
C361 C357 1.385 . S
C361 C360 1.374 . S
C362 C359 1.499 . S
C362 C363 1.373 . S
C362 C364 1.389 1_554 S
C363 H342 0.950 . S
C363 C362 1.373 . S
C363 C379 1.377 . S
C364 C362 1.389 1_556 S
C364 C365 1.524 . S
C364 C378 1.377 . S
C365 C364 1.524 . S
C365 C366 1.397 . S
C365 C370 1.363 . S
C366 H343 0.950 . S
C366 C365 1.397 . S
C366 C367 1.334 . S
C367 H344 0.950 . S
C367 C366 1.334 . S
C367 C368 1.287 . S
C368 C367 1.287 . S
C368 C369 1.524 . S
C368 H387 0.913 . S
C369 H345 0.950 . S
C369 C368 1.524 . S
C369 C370 1.415 . S
C370 H346 0.950 . S
C370 C365 1.363 . S
C370 C369 1.415 . S
C371 H347 0.951 . S
C371 C372 1.366 . S
C371 C373 1.388 . S
C372 C371 1.366 . S
C372 C376 1.385 1_554 S
C373 H348 0.951 . S
C373 C371 1.388 . S
C373 C374 1.366 . S
C374 C373 1.366 . S
C374 C375 1.414 1_554 S
C374 C377 1.499 . S
C375 H349 0.950 . S
C375 C374 1.414 1_556 S
C375 C376 1.374 . S
C376 H350 0.950 . S
C376 C372 1.385 1_556 S
C376 C375 1.374 . S
C377 C374 1.499 . S
C377 C378 1.373 1_554 S
C377 C379 1.389 . S
C378 H351 0.950 . S
C378 C364 1.377 . S
C378 C377 1.373 1_556 S
C379 C363 1.377 . S
C379 C377 1.389 . S
C379 C380 1.524 . S
C380 C379 1.524 . S
C380 C381 1.397 . S
C380 C385 1.363 . S
C381 H352 0.950 . S
C381 C380 1.397 . S
C381 C382 1.334 . S
C382 H353 0.950 . S
C382 C381 1.334 . S
C382 C383 1.287 . S
C383 C382 1.287 . S
C383 C384 1.524 . S
C383 H386 0.999 . S
C384 H354 0.950 . S
C384 C383 1.524 . S
C384 C385 1.415 . S
C385 H355 0.950 . S
C385 C380 1.363 . S
C385 C384 1.415 . S
H386 C383 0.999 . S
H387 C368 0.913 . S
H388 C406 0.951 . S
H389 C408 0.951 . S
H390 C410 0.950 . S
H391 C411 0.950 . S
H392 C413 0.950 . S
H393 C416 0.950 . S
H394 C417 0.950 . S
H395 C419 0.950 . S
H396 C420 0.950 . S
H397 C421 0.951 . S
H398 C423 0.951 1_556 S
H399 C425 0.950 . S
H400 C426 0.950 . S
H401 C428 0.950 . S
H402 C431 0.950 . S
H403 C432 0.950 . S
H404 C434 0.950 . S
H405 C435 0.950 . S
C406 H388 0.951 . S
C406 C407 1.366 . S
C406 C408 1.388 . S
C407 C406 1.366 . S
C407 C411 1.385 . S
C408 H389 0.951 . S
C408 C406 1.388 . S
C408 C409 1.366 . S
C409 C408 1.366 . S
C409 C410 1.414 . S
C409 C412 1.499 . S
C410 H390 0.950 . S
C410 C409 1.414 . S
C410 C411 1.374 . S
C411 H391 0.950 . S
C411 C407 1.385 . S
C411 C410 1.374 . S
C412 C409 1.499 . S
C412 C413 1.373 . S
C412 C414 1.389 1_554 S
C413 H392 0.950 . S
C413 C412 1.373 . S
C413 C429 1.377 . S
C414 C412 1.389 1_556 S
C414 C415 1.524 . S
C414 C428 1.377 . S
C415 C414 1.524 . S
C415 C416 1.397 . S
C415 C420 1.363 . S
C416 H393 0.950 . S
C416 C415 1.397 . S
C416 C417 1.334 . S
C417 H394 0.950 . S
C417 C416 1.334 . S
C417 C418 1.287 . S
C418 C417 1.287 . S
C418 C419 1.524 . S
C418 H437 0.913 . S
C419 H395 0.950 . S
C419 C418 1.524 . S
C419 C420 1.415 . S
C420 H396 0.950 . S
C420 C415 1.363 . S
C420 C419 1.415 . S
C421 H397 0.951 . S
C421 C422 1.366 1_556 S
C421 C423 1.388 1_556 S
C422 C421 1.366 1_554 S
C422 C426 1.385 . S
C423 H398 0.951 1_554 S
C423 C421 1.388 1_554 S
C423 C424 1.366 . S
C424 C423 1.366 . S
C424 C425 1.414 . S
C424 C427 1.499 . S
C425 H399 0.950 . S
C425 C424 1.414 . S
C425 C426 1.374 . S
C426 H400 0.950 . S
C426 C422 1.385 . S
C426 C425 1.374 . S
C427 C424 1.499 . S
C427 C428 1.373 1_554 S
C427 C429 1.389 . S
C428 H401 0.950 . S
C428 C414 1.377 . S
C428 C427 1.373 1_556 S
C429 C413 1.377 . S
C429 C427 1.389 . S
C429 C430 1.524 . S
C430 C429 1.524 . S
C430 C431 1.397 . S
C430 C435 1.363 . S
C431 H402 0.950 . S
C431 C430 1.397 . S
C431 C432 1.334 . S
C432 H403 0.950 . S
C432 C431 1.334 . S
C432 C433 1.287 . S
C433 C432 1.287 . S
C433 C434 1.524 . S
C433 H436 0.999 . S
C434 H404 0.950 . S
C434 C433 1.524 . S
C434 C435 1.415 . S
C435 H405 0.950 . S
C435 C430 1.363 . S
C435 C434 1.415 . S
H436 C433 0.999 . S
H437 C418 0.913 . S
H438 C456 0.951 . S
H439 C458 0.951 . S
H440 C460 0.950 . S
H441 C461 0.950 . S
H442 C463 0.950 . S
H443 C466 0.951 . S
H444 C467 0.950 1_554 S
H445 C469 0.950 . S
H446 C470 0.950 . S
H447 C471 0.951 . S
H448 C473 0.951 . S
H449 C475 0.950 . S
H450 C476 0.950 . S
H451 C478 0.950 . S
H452 C481 0.950 . S
H453 C482 0.950 . S
H454 C484 0.950 . S
H455 C485 0.950 . S
C456 H438 0.951 . S
C456 C457 1.366 1_556 S
C456 C458 1.388 . S
C457 C456 1.366 1_554 S
C457 C461 1.385 . S
C458 H439 0.951 . S
C458 C456 1.388 . S
C458 C459 1.366 1_556 S
C459 C458 1.366 1_554 S
C459 C460 1.414 . S
C459 C462 1.499 . S
C460 H440 0.950 . S
C460 C459 1.414 . S
C460 C461 1.374 . S
C461 H441 0.950 . S
C461 C457 1.385 . S
C461 C460 1.374 . S
C462 C459 1.499 . S
C462 C463 1.373 . S
C462 C464 1.389 1_554 S
C463 H442 0.950 . S
C463 C462 1.373 . S
C463 C479 1.377 . S
C464 C462 1.389 1_556 S
C464 C465 1.524 . S
C464 C478 1.377 . S
C465 C464 1.524 . S
C465 C466 1.396 1_556 S
C465 C470 1.363 . S
C466 H443 0.951 . S
C466 C465 1.396 1_554 S
C466 C467 1.334 1_554 S
C467 H444 0.950 1_556 S
C467 C466 1.334 1_556 S
C467 C468 1.287 . S
C468 C467 1.287 . S
C468 C469 1.524 . S
C468 H487 0.913 . S
C469 H445 0.950 . S
C469 C468 1.524 . S
C469 C470 1.415 . S
C470 H446 0.950 . S
C470 C465 1.363 . S
C470 C469 1.415 . S
C471 H447 0.951 . S
C471 C472 1.366 . S
C471 C473 1.388 . S
C472 C471 1.366 . S
C472 C476 1.385 1_554 S
C473 H448 0.951 . S
C473 C471 1.388 . S
C473 C474 1.366 . S
C474 C473 1.366 . S
C474 C475 1.414 1_554 S
C474 C477 1.499 . S
C475 H449 0.950 . S
C475 C474 1.414 1_556 S
C475 C476 1.374 . S
C476 H450 0.950 . S
C476 C472 1.385 1_556 S
C476 C475 1.374 . S
C477 C474 1.499 . S
C477 C478 1.373 1_554 S
C477 C479 1.389 . S
C478 H451 0.950 . S
C478 C464 1.377 . S
C478 C477 1.373 1_556 S
C479 C463 1.377 . S
C479 C477 1.389 . S
C479 C480 1.524 . S
C480 C479 1.524 . S
C480 C481 1.397 . S
C480 C485 1.363 . S
C481 H452 0.950 . S
C481 C480 1.397 . S
C481 C482 1.334 . S
C482 H453 0.950 . S
C482 C481 1.334 . S
C482 C483 1.287 . S
C483 C482 1.287 . S
C483 C484 1.524 . S
C483 H486 0.999 . S
C484 H454 0.950 . S
C484 C483 1.524 . S
C484 C485 1.415 . S
C485 H455 0.950 . S
C485 C480 1.363 . S
C485 C484 1.415 . S
H486 C483 0.999 . S
H487 C468 0.913 . S
H488 C506 0.951 . S
H489 C508 0.951 . S
H490 C510 0.950 . S
H491 C511 0.950 . S
H492 C513 0.950 . S
H493 C516 0.950 . S
H494 C517 0.950 . S
H495 C519 0.950 . S
H496 C520 0.950 . S
H497 C521 0.951 . S
H498 C523 0.951 . S
H499 C525 0.950 . S
H500 C526 0.950 . S
H501 C528 0.950 . S
H502 C531 0.950 . S
H503 C532 0.950 . S
H504 C534 0.950 . S
H505 C535 0.950 . S
C506 H488 0.951 . S
C506 C507 1.366 . S
C506 C508 1.388 . S
C507 C506 1.366 . S
C507 C511 1.385 . S
C508 H489 0.951 . S
C508 C506 1.388 . S
C508 C509 1.366 . S
C509 C508 1.366 . S
C509 C510 1.414 . S
C509 C512 1.499 . S
C510 H490 0.950 . S
C510 C509 1.414 . S
C510 C511 1.374 . S
C511 H491 0.950 . S
C511 C507 1.385 . S
C511 C510 1.374 . S
C512 C509 1.499 . S
C512 C513 1.373 . S
C512 C514 1.389 . S
C513 H492 0.950 . S
C513 C512 1.373 . S
C513 C529 1.377 1_565 S
C514 C512 1.389 . S
C514 C515 1.524 . S
C514 C528 1.377 1_565 S
C515 C514 1.524 . S
C515 C516 1.397 . S
C515 C520 1.363 . S
C516 H493 0.950 . S
C516 C515 1.397 . S
C516 C517 1.334 . S
C517 H494 0.950 . S
C517 C516 1.334 . S
C517 C518 1.287 . S
C518 C517 1.287 . S
C518 C519 1.524 . S
C518 H537 0.913 . S
C519 H495 0.950 . S
C519 C518 1.524 . S
C519 C520 1.415 . S
C520 H496 0.950 . S
C520 C515 1.363 . S
C520 C519 1.415 . S
C521 H497 0.951 . S
C521 C522 1.366 . S
C521 C523 1.388 . S
C522 C521 1.366 . S
C522 C526 1.385 . S
C523 H498 0.951 . S
C523 C521 1.388 . S
C523 C524 1.366 . S
C524 C523 1.366 . S
C524 C525 1.414 . S
C524 C527 1.499 . S
C525 H499 0.950 . S
C525 C524 1.414 . S
C525 C526 1.374 . S
C526 H500 0.950 . S
C526 C522 1.385 . S
C526 C525 1.374 . S
C527 C524 1.499 . S
C527 C528 1.373 . S
C527 C529 1.389 . S
C528 H501 0.950 . S
C528 C514 1.377 1_545 S
C528 C527 1.373 . S
C529 C513 1.377 1_545 S
C529 C527 1.389 . S
C529 C530 1.524 . S
C530 C529 1.524 . S
C530 C531 1.397 . S
C530 C535 1.363 . S
C531 H502 0.950 . S
C531 C530 1.397 . S
C531 C532 1.334 . S
C532 H503 0.950 . S
C532 C531 1.334 . S
C532 C533 1.287 . S
C533 C532 1.287 . S
C533 C534 1.524 . S
C533 H536 0.999 . S
C534 H504 0.950 . S
C534 C533 1.524 . S
C534 C535 1.415 . S
C535 H505 0.950 . S
C535 C530 1.363 . S
C535 C534 1.415 . S
H536 C533 0.999 . S
H537 C518 0.913 . S
H538 C556 0.951 . S
H539 C558 0.951 . S
H540 C560 0.950 . S
H541 C561 0.950 . S
H542 C563 0.950 . S
H543 C566 0.950 . S
H544 C567 0.950 . S
H545 C569 0.950 . S
H546 C570 0.980 . S
H547 C571 0.951 . S
H548 C573 0.951 . S
H549 C575 0.950 . S
H550 C576 0.950 . S
H551 C578 0.950 . S
H552 C581 0.950 . S
H553 C582 0.950 . S
H554 C584 0.950 . S
H555 C585 0.979 . S
C556 H538 0.951 . S
C556 C557 1.366 . S
C556 C558 1.388 . S
C557 C556 1.366 . S
C557 C561 1.385 . S
C558 H539 0.951 . S
C558 C556 1.388 . S
C558 C559 1.366 . S
C559 C558 1.366 . S
C559 C560 1.414 . S
C559 C562 1.499 . S
C560 H540 0.950 . S
C560 C559 1.414 . S
C560 C561 1.374 . S
C561 H541 0.950 . S
C561 C557 1.385 . S
C561 C560 1.374 . S
C562 C559 1.499 . S
C562 C563 1.373 . S
C562 C564 1.389 . S
C563 H542 0.950 . S
C563 C562 1.373 . S
C563 C579 1.377 1_455 S
C564 C562 1.389 . S
C564 C565 1.524 . S
C564 C578 1.377 1_455 S
C565 C564 1.524 . S
C565 C566 1.397 . S
C565 C570 1.363 . S
C566 H543 0.950 . S
C566 C565 1.397 . S
C566 C567 1.334 . S
C567 H544 0.950 . S
C567 C566 1.334 . S
C567 C568 1.287 . S
C568 C567 1.287 . S
C568 C569 1.524 . S
C568 H587 0.913 . S
C569 H545 0.950 . S
C569 C568 1.524 . S
C569 C570 1.415 . S
C570 H546 0.980 . S
C570 C565 1.363 . S
C570 C569 1.415 . S
C571 H547 0.951 . S
C571 C572 1.366 . S
C571 C573 1.388 . S
C572 C571 1.366 . S
C572 C576 1.385 . S
C573 H548 0.951 . S
C573 C571 1.388 . S
C573 C574 1.366 . S
C574 C573 1.366 . S
C574 C575 1.414 . S
C574 C577 1.499 . S
C575 H549 0.950 . S
C575 C574 1.414 . S
C575 C576 1.374 . S
C576 H550 0.950 . S
C576 C572 1.385 . S
C576 C575 1.374 . S
C577 C574 1.499 . S
C577 C578 1.373 . S
C577 C579 1.389 . S
C578 H551 0.950 . S
C578 C564 1.377 1_655 S
C578 C577 1.373 . S
C579 C563 1.377 1_655 S
C579 C577 1.389 . S
C579 C580 1.524 . S
C580 C579 1.524 . S
C580 C581 1.397 . S
C580 C585 1.363 . S
C581 H552 0.950 . S
C581 C580 1.397 . S
C581 C582 1.334 . S
C582 H553 0.950 . S
C582 C581 1.334 . S
C582 C583 1.287 . S
C583 C582 1.287 . S
C583 C584 1.524 . S
C583 H586 0.999 . S
C584 H554 0.950 . S
C584 C583 1.524 . S
C584 C585 1.415 . S
C585 H555 0.979 . S
C585 C580 1.363 . S
C585 C584 1.415 . S
H586 C583 0.999 . S
H587 C568 0.913 . S
H588 C606 0.951 . S
H589 C608 0.951 . S
H590 C610 0.950 . S
H591 C611 0.950 . S
H592 C613 0.950 . S
H593 C616 0.950 . S
H594 C617 0.950 . S
H595 C619 0.950 . S
H596 C620 0.950 . S
H597 C621 0.951 . S
H598 C623 0.951 . S
H599 C625 0.950 . S
H600 C626 0.950 . S
H601 C628 0.950 . S
H602 C631 0.950 . S
H603 C632 0.950 . S
H604 C634 0.950 . S
H605 C635 0.950 . S
C606 H588 0.951 . S
C606 C607 1.366 . S
C606 C608 1.388 . S
C607 C606 1.366 . S
C607 C611 1.385 . S
C608 H589 0.951 . S
C608 C606 1.388 . S
C608 C609 1.366 . S
C609 C608 1.366 . S
C609 C610 1.414 . S
C609 C612 1.499 . S
C610 H590 0.950 . S
C610 C609 1.414 . S
C610 C611 1.374 . S
C611 H591 0.950 . S
C611 C607 1.385 . S
C611 C610 1.374 . S
C612 C609 1.499 . S
C612 C613 1.373 . S
C612 C614 1.389 . S
C613 H592 0.950 . S
C613 C612 1.373 . S
C613 C629 1.377 1_545 S
C614 C612 1.389 . S
C614 C615 1.524 . S
C614 C628 1.377 1_545 S
C615 C614 1.524 . S
C615 C616 1.397 . S
C615 C620 1.363 . S
C616 H593 0.950 . S
C616 C615 1.397 . S
C616 C617 1.334 . S
C617 H594 0.950 . S
C617 C616 1.334 . S
C617 C618 1.287 . S
C618 C617 1.287 . S
C618 C619 1.524 . S
C618 H637 0.913 . S
C619 H595 0.950 . S
C619 C618 1.524 . S
C619 C620 1.415 . S
C620 H596 0.950 . S
C620 C615 1.363 . S
C620 C619 1.415 . S
C621 H597 0.951 . S
C621 C622 1.366 . S
C621 C623 1.388 . S
C622 C621 1.366 . S
C622 C626 1.385 . S
C623 H598 0.951 . S
C623 C621 1.388 . S
C623 C624 1.366 . S
C624 C623 1.366 . S
C624 C625 1.414 . S
C624 C627 1.499 . S
C625 H599 0.950 . S
C625 C624 1.414 . S
C625 C626 1.374 . S
C626 H600 0.950 . S
C626 C622 1.385 . S
C626 C625 1.374 . S
C627 C624 1.499 . S
C627 C628 1.373 . S
C627 C629 1.389 . S
C628 H601 0.950 . S
C628 C614 1.377 1_565 S
C628 C627 1.373 . S
C629 C613 1.377 1_565 S
C629 C627 1.389 . S
C629 C630 1.524 . S
C630 C629 1.524 . S
C630 C631 1.397 . S
C630 C635 1.363 . S
C631 H602 0.950 . S
C631 C630 1.397 . S
C631 C632 1.334 . S
C632 H603 0.950 . S
C632 C631 1.334 . S
C632 C633 1.287 . S
C633 C632 1.287 . S
C633 C634 1.524 . S
C633 H636 0.999 . S
C634 H604 0.950 . S
C634 C633 1.524 . S
C634 C635 1.415 . S
C635 H605 0.950 . S
C635 C630 1.363 . S
C635 C634 1.415 . S
H636 C633 0.999 . S
H637 C618 0.913 . S
H638 C656 0.951 . S
H639 C658 0.951 . S
H640 C660 0.950 . S
H641 C661 0.950 . S
H642 C663 0.950 . S
H643 C666 0.950 . S
H644 C667 0.950 . S
H645 C669 0.950 . S
H646 C670 0.950 . S
H647 C671 0.951 . S
H648 C673 0.951 . S
H649 C675 0.950 . S
H650 C676 0.950 . S
H651 C678 0.950 . S
H652 C681 0.950 . S
H653 C682 0.950 . S
H654 C684 0.950 . S
H655 C685 0.950 . S
C656 H638 0.951 . S
C656 C657 1.366 . S
C656 C658 1.388 . S
C657 C656 1.366 . S
C657 C661 1.385 . S
C658 H639 0.951 . S
C658 C656 1.388 . S
C658 C659 1.366 . S
C659 C658 1.366 . S
C659 C660 1.414 . S
C659 C662 1.499 . S
C660 H640 0.950 . S
C660 C659 1.414 . S
C660 C661 1.374 . S
C661 H641 0.950 . S
C661 C657 1.385 . S
C661 C660 1.374 . S
C662 C659 1.499 . S
C662 C663 1.373 . S
C662 C664 1.389 . S
C663 H642 0.950 . S
C663 C662 1.373 . S
C663 C679 1.377 1_655 S
C664 C662 1.389 . S
C664 C665 1.524 . S
C664 C678 1.377 1_655 S
C665 C664 1.524 . S
C665 C666 1.397 . S
C665 C670 1.363 . S
C666 H643 0.950 . S
C666 C665 1.397 . S
C666 C667 1.334 . S
C667 H644 0.950 . S
C667 C666 1.334 . S
C667 C668 1.287 . S
C668 C667 1.287 . S
C668 C669 1.524 . S
C668 H687 0.913 . S
C669 H645 0.950 . S
C669 C668 1.524 . S
C669 C670 1.415 . S
C670 H646 0.950 . S
C670 C665 1.363 . S
C670 C669 1.415 . S
C671 H647 0.951 . S
C671 C672 1.366 . S
C671 C673 1.388 . S
C672 C671 1.366 . S
C672 C676 1.385 . S
C673 H648 0.951 . S
C673 C671 1.388 . S
C673 C674 1.366 . S
C674 C673 1.366 . S
C674 C675 1.414 . S
C674 C677 1.499 . S
C675 H649 0.950 . S
C675 C674 1.414 . S
C675 C676 1.374 . S
C676 H650 0.950 . S
C676 C672 1.385 . S
C676 C675 1.374 . S
C677 C674 1.499 . S
C677 C678 1.373 . S
C677 C679 1.389 . S
C678 H651 0.950 . S
C678 C664 1.377 1_455 S
C678 C677 1.373 . S
C679 C663 1.377 1_455 S
C679 C677 1.389 . S
C679 C680 1.524 . S
C680 C679 1.524 . S
C680 C681 1.397 . S
C680 C685 1.363 . S
C681 H652 0.950 . S
C681 C680 1.397 . S
C681 C682 1.334 . S
C682 H653 0.950 . S
C682 C681 1.334 . S
C682 C683 1.287 . S
C683 C682 1.287 . S
C683 C684 1.524 . S
C683 H686 0.999 . S
C684 H654 0.950 . S
C684 C683 1.524 . S
C684 C685 1.415 . S
C685 H655 0.950 . S
C685 C680 1.363 . S
C685 C684 1.415 . S
H686 C683 0.999 . S
H687 C668 0.913 . S
H688 C706 0.951 . S
H689 C708 0.951 . S
H690 C710 0.950 . S
H691 C711 0.950 . S
H692 C713 0.950 . S
H693 C716 0.950 . S
H694 C717 0.950 . S
H695 C719 0.950 . S
H696 C720 0.950 . S
H697 C721 0.951 . S
H698 C723 0.951 . S
H699 C725 0.950 . S
H700 C726 0.950 . S
H701 C728 0.950 . S
H702 C731 0.950 . S
H703 C732 0.950 . S
H704 C734 0.950 . S
H705 C735 0.950 . S
C706 H688 0.951 . S
C706 C707 1.366 . S
C706 C708 1.388 . S
C707 C706 1.366 . S
C707 C711 1.385 . S
C708 H689 0.951 . S
C708 C706 1.388 . S
C708 C709 1.366 . S
C709 C708 1.366 . S
C709 C710 1.414 . S
C709 C712 1.499 . S
C710 H690 0.950 . S
C710 C709 1.414 . S
C710 C711 1.374 . S
C711 H691 0.950 . S
C711 C707 1.385 . S
C711 C710 1.374 . S
C712 C709 1.499 . S
C712 C713 1.373 . S
C712 C714 1.389 . S
C713 H692 0.950 . S
C713 C712 1.373 . S
C713 C729 1.377 . S
C714 C712 1.389 . S
C714 C715 1.524 . S
C714 C728 1.377 . S
C715 C714 1.524 . S
C715 C716 1.397 . S
C715 C720 1.363 . S
C716 H693 0.950 . S
C716 C715 1.397 . S
C716 C717 1.334 . S
C717 H694 0.950 . S
C717 C716 1.334 . S
C717 C718 1.287 . S
C718 C717 1.287 . S
C718 C719 1.524 . S
C718 H737 0.913 . S
C719 H695 0.950 . S
C719 C718 1.524 . S
C719 C720 1.415 . S
C720 H696 0.950 . S
C720 C715 1.363 . S
C720 C719 1.415 . S
C721 H697 0.951 . S
C721 C722 1.366 . S
C721 C723 1.388 . S
C722 C721 1.366 . S
C722 C726 1.385 . S
C723 H698 0.951 . S
C723 C721 1.388 . S
C723 C724 1.366 . S
C724 C723 1.366 . S
C724 C725 1.414 . S
C724 C727 1.499 . S
C725 H699 0.950 . S
C725 C724 1.414 . S
C725 C726 1.374 . S
C726 H700 0.950 . S
C726 C722 1.385 . S
C726 C725 1.374 . S
C727 C724 1.499 . S
C727 C728 1.373 . S
C727 C729 1.389 . S
C728 H701 0.950 . S
C728 C714 1.377 . S
C728 C727 1.373 . S
C729 C713 1.377 . S
C729 C727 1.389 . S
C729 C730 1.524 . S
C730 C729 1.524 . S
C730 C731 1.397 . S
C730 C735 1.363 . S
C731 H702 0.950 . S
C731 C730 1.397 . S
C731 C732 1.334 . S
C732 H703 0.950 . S
C732 C731 1.334 . S
C732 C733 1.287 . S
C733 C732 1.287 . S
C733 C734 1.524 . S
C733 H736 0.999 . S
C734 H704 0.950 . S
C734 C733 1.524 . S
C734 C735 1.415 . S
C735 H705 0.950 . S
C735 C730 1.363 . S
C735 C734 1.415 . S
H736 C733 0.999 . S
H737 C718 0.913 . S
H738 C756 0.951 . S
H739 C758 0.951 . S
H740 C760 0.950 . S
H741 C761 0.950 . S
H742 C763 0.950 . S
H743 C766 0.950 . S
H744 C767 0.950 . S
H745 C769 0.950 . S
H746 C770 0.950 . S
H747 C771 0.951 . S
H748 C773 0.951 . S
H749 C775 0.950 . S
H750 C776 0.950 . S
H751 C778 0.950 . S
H752 C781 0.950 . S
H753 C782 0.950 . S
H754 C784 0.950 . S
H755 C785 0.950 . S
C756 H738 0.951 . S
C756 C757 1.366 . S
C756 C758 1.388 . S
C757 C756 1.366 . S
C757 C761 1.385 . S
C758 H739 0.951 . S
C758 C756 1.388 . S
C758 C759 1.366 . S
C759 C758 1.366 . S
C759 C760 1.414 . S
C759 C762 1.499 . S
C760 H740 0.950 . S
C760 C759 1.414 . S
C760 C761 1.374 . S
C761 H741 0.950 . S
C761 C757 1.385 . S
C761 C760 1.374 . S
C762 C759 1.499 . S
C762 C763 1.373 . S
C762 C764 1.389 . S
C763 H742 0.950 . S
C763 C762 1.373 . S
C763 C779 1.377 . S
C764 C762 1.389 . S
C764 C765 1.524 . S
C764 C778 1.377 . S
C765 C764 1.524 . S
C765 C766 1.397 . S
C765 C770 1.363 . S
C766 H743 0.950 . S
C766 C765 1.397 . S
C766 C767 1.334 . S
C767 H744 0.950 . S
C767 C766 1.334 . S
C767 C768 1.287 . S
C768 C767 1.287 . S
C768 C769 1.524 . S
C768 H787 0.913 . S
C769 H745 0.950 . S
C769 C768 1.524 . S
C769 C770 1.415 . S
C770 H746 0.950 . S
C770 C765 1.363 . S
C770 C769 1.415 . S
C771 H747 0.951 . S
C771 C772 1.366 . S
C771 C773 1.388 . S
C772 C771 1.366 . S
C772 C776 1.385 . S
C773 H748 0.951 . S
C773 C771 1.388 . S
C773 C774 1.366 . S
C774 C773 1.366 . S
C774 C775 1.414 . S
C774 C777 1.499 . S
C775 H749 0.950 . S
C775 C774 1.414 . S
C775 C776 1.374 . S
C776 H750 0.950 . S
C776 C772 1.385 . S
C776 C775 1.374 . S
C777 C774 1.499 . S
C777 C778 1.373 . S
C777 C779 1.389 . S
C778 H751 0.950 . S
C778 C764 1.377 . S
C778 C777 1.373 . S
C779 C763 1.377 . S
C779 C777 1.389 . S
C779 C780 1.524 . S
C780 C779 1.524 . S
C780 C781 1.397 . S
C780 C785 1.363 . S
C781 H752 0.950 . S
C781 C780 1.397 . S
C781 C782 1.334 . S
C782 H753 0.950 . S
C782 C781 1.334 . S
C782 C783 1.287 . S
C783 C782 1.287 . S
C783 C784 1.524 . S
C783 H786 0.999 . S
C784 H754 0.950 . S
C784 C783 1.524 . S
C784 C785 1.415 . S
C785 H755 0.950 . S
C785 C780 1.363 . S
C785 C784 1.415 . S
H786 C783 0.999 . S
H787 C768 0.913 . S
H788 C806 0.951 . S
H789 C808 0.951 . S
H790 C810 0.950 . S
H791 C811 0.950 . S
H792 C813 0.950 . S
H793 C816 0.950 . S
H794 C817 0.950 . S
H795 C819 0.950 . S
H796 C820 0.950 . S
H797 C821 0.951 . S
H798 C823 0.951 . S
H799 C825 0.950 . S
H800 C826 0.950 . S
H801 C828 0.950 . S
H802 C831 0.950 . S
H803 C832 0.950 . S
H804 C834 0.950 . S
H805 C835 0.950 . S
C806 H788 0.951 . S
C806 C807 1.366 . S
C806 C808 1.388 . S
C807 C806 1.366 . S
C807 C811 1.385 . S
C808 H789 0.951 . S
C808 C806 1.388 . S
C808 C809 1.366 . S
C809 C808 1.366 . S
C809 C810 1.414 . S
C809 C812 1.499 . S
C810 H790 0.950 . S
C810 C809 1.414 . S
C810 C811 1.374 . S
C811 H791 0.950 . S
C811 C807 1.385 . S
C811 C810 1.374 . S
C812 C809 1.499 . S
C812 C813 1.373 . S
C812 C814 1.389 . S
C813 H792 0.950 . S
C813 C812 1.373 . S
C813 C829 1.377 . S
C814 C812 1.389 . S
C814 C815 1.524 . S
C814 C828 1.377 . S
C815 C814 1.524 . S
C815 C816 1.397 . S
C815 C820 1.363 . S
C816 H793 0.950 . S
C816 C815 1.397 . S
C816 C817 1.334 . S
C817 H794 0.950 . S
C817 C816 1.334 . S
C817 C818 1.287 . S
C818 C817 1.287 . S
C818 C819 1.524 . S
C818 H837 0.913 . S
C819 H795 0.950 . S
C819 C818 1.524 . S
C819 C820 1.415 . S
C820 H796 0.950 . S
C820 C815 1.363 . S
C820 C819 1.415 . S
C821 H797 0.951 . S
C821 C822 1.366 . S
C821 C823 1.388 . S
C822 C821 1.366 . S
C822 C826 1.385 . S
C823 H798 0.951 . S
C823 C821 1.388 . S
C823 C824 1.366 . S
C824 C823 1.366 . S
C824 C825 1.414 . S
C824 C827 1.499 . S
C825 H799 0.950 . S
C825 C824 1.414 . S
C825 C826 1.374 . S
C826 H800 0.950 . S
C826 C822 1.385 . S
C826 C825 1.374 . S
C827 C824 1.499 . S
C827 C828 1.373 . S
C827 C829 1.389 . S
C828 H801 0.950 . S
C828 C814 1.377 . S
C828 C827 1.373 . S
C829 C813 1.377 . S
C829 C827 1.389 . S
C829 C830 1.524 . S
C830 C829 1.524 . S
C830 C831 1.397 . S
C830 C835 1.363 . S
C831 H802 0.950 . S
C831 C830 1.397 . S
C831 C832 1.334 . S
C832 H803 0.950 . S
C832 C831 1.334 . S
C832 C833 1.287 . S
C833 C832 1.287 . S
C833 C834 1.524 . S
C833 H836 0.999 . S
C834 H804 0.950 . S
C834 C833 1.524 . S
C834 C835 1.415 . S
C835 H805 0.950 . S
C835 C830 1.363 . S
C835 C834 1.415 . S
H836 C833 0.999 . S
H837 C818 0.913 . S
H838 C856 0.951 . S
H839 C858 0.951 . S
H840 C860 0.950 . S
H841 C861 0.950 . S
H842 C863 0.950 . S
H843 C866 0.950 . S
H844 C867 0.950 . S
H845 C869 0.950 . S
H846 C870 0.950 . S
H847 C871 0.951 . S
H848 C873 0.951 . S
H849 C875 0.950 . S
H850 C876 0.950 . S
H851 C878 0.950 . S
H852 C881 0.950 . S
H853 C882 0.950 . S
H854 C884 0.950 . S
H855 C885 0.950 . S
C856 H838 0.951 . S
C856 C857 1.366 . S
C856 C858 1.388 . S
C857 C856 1.366 . S
C857 C861 1.385 . S
C858 H839 0.951 . S
C858 C856 1.388 . S
C858 C859 1.366 . S
C859 C858 1.366 . S
C859 C860 1.414 . S
C859 C862 1.499 . S
C860 H840 0.950 . S
C860 C859 1.414 . S
C860 C861 1.374 . S
C861 H841 0.950 . S
C861 C857 1.385 . S
C861 C860 1.374 . S
C862 C859 1.499 . S
C862 C863 1.373 . S
C862 C864 1.389 . S
C863 H842 0.950 . S
C863 C862 1.373 . S
C863 C879 1.377 . S
C864 C862 1.389 . S
C864 C865 1.524 . S
C864 C878 1.377 . S
C865 C864 1.524 . S
C865 C866 1.397 . S
C865 C870 1.363 . S
C866 H843 0.950 . S
C866 C865 1.397 . S
C866 C867 1.334 . S
C867 H844 0.950 . S
C867 C866 1.334 . S
C867 C868 1.287 . S
C868 C867 1.287 . S
C868 C869 1.524 . S
C868 H887 0.913 . S
C869 H845 0.950 . S
C869 C868 1.524 . S
C869 C870 1.415 . S
C870 H846 0.950 . S
C870 C865 1.363 . S
C870 C869 1.415 . S
C871 H847 0.951 . S
C871 C872 1.366 . S
C871 C873 1.388 . S
C872 C871 1.366 . S
C872 C876 1.385 . S
C873 H848 0.951 . S
C873 C871 1.388 . S
C873 C874 1.366 . S
C874 C873 1.366 . S
C874 C875 1.414 . S
C874 C877 1.499 . S
C875 H849 0.950 . S
C875 C874 1.414 . S
C875 C876 1.374 . S
C876 H850 0.950 . S
C876 C872 1.385 . S
C876 C875 1.374 . S
C877 C874 1.499 . S
C877 C878 1.373 . S
C877 C879 1.389 . S
C878 H851 0.950 . S
C878 C864 1.377 . S
C878 C877 1.373 . S
C879 C863 1.377 . S
C879 C877 1.389 . S
C879 C880 1.524 . S
C880 C879 1.524 . S
C880 C881 1.397 . S
C880 C885 1.363 . S
C881 H852 0.950 . S
C881 C880 1.397 . S
C881 C882 1.334 . S
C882 H853 0.950 . S
C882 C881 1.334 . S
C882 C883 1.287 . S
C883 C882 1.287 . S
C883 C884 1.524 . S
C883 H886 0.999 . S
C884 H854 0.950 . S
C884 C883 1.524 . S
C884 C885 1.415 . S
C885 H855 0.950 . S
C885 C880 1.363 . S
C885 C884 1.415 . S
H886 C883 0.999 . S
H887 C868 0.913 . S
H888 C906 0.951 . S
H889 C908 0.951 . S
H890 C910 0.950 . S
H891 C911 0.950 . S
H892 C913 0.950 . S
H893 C916 0.950 . S
H894 C917 0.950 . S
H895 C919 0.950 . S
H896 C920 0.950 . S
H897 C921 0.951 . S
H898 C923 0.951 . S
H899 C925 0.950 . S
H900 C926 0.950 . S
H901 C928 0.950 . S
H902 C931 0.950 . S
H903 C932 0.950 . S
H904 C934 0.950 . S
H905 C935 0.950 . S
C906 H888 0.951 . S
C906 C907 1.366 . S
C906 C908 1.388 . S
C907 C906 1.366 . S
C907 C911 1.385 . S
C908 H889 0.951 . S
C908 C906 1.388 . S
C908 C909 1.366 . S
C909 C908 1.366 . S
C909 C910 1.414 . S
C909 C912 1.499 . S
C910 H890 0.950 . S
C910 C909 1.414 . S
C910 C911 1.374 . S
C911 H891 0.950 . S
C911 C907 1.385 . S
C911 C910 1.374 . S
C912 C909 1.499 . S
C912 C913 1.373 . S
C912 C914 1.389 . S
C913 H892 0.950 . S
C913 C912 1.373 . S
C913 C929 1.377 . S
C914 C912 1.389 . S
C914 C915 1.524 . S
C914 C928 1.377 . S
C915 C914 1.524 . S
C915 C916 1.397 . S
C915 C920 1.363 . S
C916 H893 0.950 . S
C916 C915 1.397 . S
C916 C917 1.334 . S
C917 H894 0.950 . S
C917 C916 1.334 . S
C917 C918 1.287 . S
C918 C917 1.287 . S
C918 C919 1.524 . S
C918 H937 0.913 . S
C919 H895 0.950 . S
C919 C918 1.524 . S
C919 C920 1.415 . S
C920 H896 0.950 . S
C920 C915 1.363 . S
C920 C919 1.415 . S
C921 H897 0.951 . S
C921 C922 1.366 . S
C921 C923 1.388 . S
C922 C921 1.366 . S
C922 C926 1.385 . S
C923 H898 0.951 . S
C923 C921 1.388 . S
C923 C924 1.366 . S
C924 C923 1.366 . S
C924 C925 1.414 . S
C924 C927 1.499 . S
C925 H899 0.950 . S
C925 C924 1.414 . S
C925 C926 1.374 . S
C926 H900 0.950 . S
C926 C922 1.385 . S
C926 C925 1.374 . S
C927 C924 1.499 . S
C927 C928 1.373 . S
C927 C929 1.389 . S
C928 H901 0.950 . S
C928 C914 1.377 . S
C928 C927 1.373 . S
C929 C913 1.377 . S
C929 C927 1.389 . S
C929 C930 1.524 . S
C930 C929 1.524 . S
C930 C931 1.397 . S
C930 C935 1.363 . S
C931 H902 0.950 . S
C931 C930 1.397 . S
C931 C932 1.334 . S
C932 H903 0.950 . S
C932 C931 1.334 . S
C932 C933 1.287 . S
C933 C932 1.287 . S
C933 C934 1.524 . S
C933 H936 0.999 . S
C934 H904 0.950 . S
C934 C933 1.524 . S
C934 C935 1.415 . S
C935 H905 0.950 . S
C935 C930 1.363 . S
C935 C934 1.415 . S
H936 C933 0.999 . S
H937 C918 0.913 . S
H938 C956 0.951 . S
H939 C958 0.951 . S
H940 C960 0.950 . S
H941 C961 0.950 . S
H942 C963 0.950 . S
H943 C966 0.950 . S
H944 C967 0.950 . S
H945 C969 0.950 . S
H946 C970 0.950 . S
H947 C971 0.951 . S
H948 C973 0.951 . S
H949 C975 0.950 . S
H950 C976 0.950 . S
H951 C978 0.950 . S
H952 C981 0.950 . S
H953 C982 0.950 . S
H954 C984 0.950 . S
H955 C985 0.950 . S
C956 H938 0.951 . S
C956 C957 1.366 . S
C956 C958 1.388 . S
C957 C956 1.366 . S
C957 C961 1.385 . S
C958 H939 0.951 . S
C958 C956 1.388 . S
C958 C959 1.366 . S
C959 C958 1.366 . S
C959 C960 1.414 . S
C959 C962 1.499 . S
C960 H940 0.950 . S
C960 C959 1.414 . S
C960 C961 1.374 . S
C961 H941 0.950 . S
C961 C957 1.385 . S
C961 C960 1.374 . S
C962 C959 1.499 . S
C962 C963 1.373 . S
C962 C964 1.389 . S
C963 H942 0.950 . S
C963 C962 1.373 . S
C963 C979 1.377 . S
C964 C962 1.389 . S
C964 C965 1.524 . S
C964 C978 1.377 . S
C965 C964 1.524 . S
C965 C966 1.397 . S
C965 C970 1.363 . S
C966 H943 0.950 . S
C966 C965 1.397 . S
C966 C967 1.334 . S
C967 H944 0.950 . S
C967 C966 1.334 . S
C967 C968 1.287 . S
C968 C967 1.287 . S
C968 C969 1.524 . S
C968 H987 0.913 . S
C969 H945 0.950 . S
C969 C968 1.524 . S
C969 C970 1.415 . S
C970 H946 0.950 . S
C970 C965 1.363 . S
C970 C969 1.415 . S
C971 H947 0.951 . S
C971 C972 1.366 . S
C971 C973 1.388 . S
C972 C971 1.366 . S
C972 C976 1.385 . S
C973 H948 0.951 . S
C973 C971 1.388 . S
C973 C974 1.366 . S
C974 C973 1.366 . S
C974 C975 1.414 . S
C974 C977 1.499 . S
C975 H949 0.950 . S
C975 C974 1.414 . S
C975 C976 1.374 . S
C976 H950 0.950 . S
C976 C972 1.385 . S
C976 C975 1.374 . S
C977 C974 1.499 . S
C977 C978 1.373 . S
C977 C979 1.389 . S
C978 H951 0.950 . S
C978 C964 1.377 . S
C978 C977 1.373 . S
C979 C963 1.377 . S
C979 C977 1.389 . S
C979 C980 1.524 . S
C980 C979 1.524 . S
C980 C981 1.397 . S
C980 C985 1.363 . S
C981 H952 0.950 . S
C981 C980 1.397 . S
C981 C982 1.334 . S
C982 H953 0.950 . S
C982 C981 1.334 . S
C982 C983 1.287 . S
C983 C982 1.287 . S
C983 C984 1.524 . S
C983 H986 0.999 . S
C984 H954 0.950 . S
C984 C983 1.524 . S
C984 C985 1.415 . S
C985 H955 0.950 . S
C985 C980 1.363 . S
C985 C984 1.415 . S
H986 C983 0.999 . S
H987 C968 0.913 . S
H988 C1006 0.951 . S
H989 C1008 0.951 . S
H990 C1010 0.950 . S
H991 C1011 0.950 . S
H992 C1013 0.950 . S
H993 C1016 0.950 . S
H994 C1017 0.950 . S
H995 C1019 0.950 . S
H996 C1020 0.950 . S
H997 C1021 0.951 . S
H998 C1023 0.951 . S
H999 C1025 0.950 . S
H1000 C1026 0.950 . S
H1001 C1028 0.950 . S
H1002 C1031 0.950 . S
H1003 C1032 0.950 . S
H1004 C1034 0.950 . S
H1005 C1035 0.950 . S
C1006 H988 0.951 . S
C1006 C1007 1.366 . S
C1006 C1008 1.388 . S
C1007 C1006 1.366 . S
C1007 C1011 1.385 . S
C1008 H989 0.951 . S
C1008 C1006 1.388 . S
C1008 C1009 1.366 . S
C1009 C1008 1.366 . S
C1009 C1010 1.414 . S
C1009 C1012 1.499 . S
C1010 H990 0.950 . S
C1010 C1009 1.414 . S
C1010 C1011 1.374 . S
C1011 H991 0.950 . S
C1011 C1007 1.385 . S
C1011 C1010 1.374 . S
C1012 C1009 1.499 . S
C1012 C1013 1.373 . S
C1012 C1014 1.389 . S
C1013 H992 0.950 . S
C1013 C1012 1.373 . S
C1013 C1029 1.377 . S
C1014 C1012 1.389 . S
C1014 C1015 1.524 . S
C1014 C1028 1.377 . S
C1015 C1014 1.524 . S
C1015 C1016 1.397 . S
C1015 C1020 1.363 . S
C1016 H993 0.950 . S
C1016 C1015 1.397 . S
C1016 C1017 1.334 . S
C1017 H994 0.950 . S
C1017 C1016 1.334 . S
C1017 C1018 1.287 . S
C1018 C1017 1.287 . S
C1018 C1019 1.524 . S
C1018 H1037 0.913 . S
C1019 H995 0.950 . S
C1019 C1018 1.524 . S
C1019 C1020 1.415 . S
C1020 H996 0.950 . S
C1020 C1015 1.363 . S
C1020 C1019 1.415 . S
C1021 H997 0.951 . S
C1021 C1022 1.366 . S
C1021 C1023 1.388 . S
C1022 C1021 1.366 . S
C1022 C1026 1.385 . S
C1023 H998 0.951 . S
C1023 C1021 1.388 . S
C1023 C1024 1.366 . S
C1024 C1023 1.366 . S
C1024 C1025 1.414 . S
C1024 C1027 1.499 . S
C1025 H999 0.950 . S
C1025 C1024 1.414 . S
C1025 C1026 1.374 . S
C1026 H1000 0.950 . S
C1026 C1022 1.385 . S
C1026 C1025 1.374 . S
C1027 C1024 1.499 . S
C1027 C1028 1.373 . S
C1027 C1029 1.389 . S
C1028 H1001 0.950 . S
C1028 C1014 1.377 . S
C1028 C1027 1.373 . S
C1029 C1013 1.377 . S
C1029 C1027 1.389 . S
C1029 C1030 1.524 . S
C1030 C1029 1.524 . S
C1030 C1031 1.397 . S
C1030 C1035 1.363 . S
C1031 H1002 0.950 . S
C1031 C1030 1.397 . S
C1031 C1032 1.334 . S
C1032 H1003 0.950 . S
C1032 C1031 1.334 . S
C1032 C1033 1.287 . S
C1033 C1032 1.287 . S
C1033 C1034 1.524 . S
C1033 H1036 0.999 . S
C1034 H1004 0.950 . S
C1034 C1033 1.524 . S
C1034 C1035 1.415 . S
C1035 H1005 0.950 . S
C1035 C1030 1.363 . S
C1035 C1034 1.415 . S
H1036 C1033 0.999 . S
H1037 C1018 0.913 . S
H1038 C1056 0.951 . S
H1039 C1058 0.951 . S
H1040 C1060 0.950 . S
H1041 C1061 0.950 . S
H1042 C1063 0.950 . S
H1043 C1066 0.950 . S
H1044 C1067 0.950 . S
H1045 C1069 0.950 . S
H1046 C1070 0.950 . S
H1047 C1071 0.951 . S
H1048 C1073 0.951 . S
H1049 C1075 0.950 . S
H1050 C1076 0.950 . S
H1051 C1078 0.950 . S
H1052 C1081 0.950 . S
H1053 C1082 0.950 . S
H1054 C1084 0.950 . S
H1055 C1085 0.950 . S
C1056 H1038 0.951 . S
C1056 C1057 1.366 . S
C1056 C1058 1.388 . S
C1057 C1056 1.366 . S
C1057 C1061 1.385 . S
C1058 H1039 0.951 . S
C1058 C1056 1.388 . S
C1058 C1059 1.366 . S
C1059 C1058 1.366 . S
C1059 C1060 1.414 . S
C1059 C1062 1.499 . S
C1060 H1040 0.950 . S
C1060 C1059 1.414 . S
C1060 C1061 1.374 . S
C1061 H1041 0.950 . S
C1061 C1057 1.385 . S
C1061 C1060 1.374 . S
C1062 C1059 1.499 . S
C1062 C1063 1.373 . S
C1062 C1064 1.389 . S
C1063 H1042 0.950 . S
C1063 C1062 1.373 . S
C1063 C1079 1.377 . S
C1064 C1062 1.389 . S
C1064 C1065 1.524 . S
C1064 C1078 1.377 . S
C1065 C1064 1.524 . S
C1065 C1066 1.397 . S
C1065 C1070 1.363 . S
C1066 H1043 0.950 . S
C1066 C1065 1.397 . S
C1066 C1067 1.334 . S
C1067 H1044 0.950 . S
C1067 C1066 1.334 . S
C1067 C1068 1.287 . S
C1068 C1067 1.287 . S
C1068 C1069 1.524 . S
C1068 H1087 0.913 . S
C1069 H1045 0.950 . S
C1069 C1068 1.524 . S
C1069 C1070 1.415 . S
C1070 H1046 0.950 . S
C1070 C1065 1.363 . S
C1070 C1069 1.415 . S
C1071 H1047 0.951 . S
C1071 C1072 1.366 . S
C1071 C1073 1.388 . S
C1072 C1071 1.366 . S
C1072 C1076 1.385 . S
C1073 H1048 0.951 . S
C1073 C1071 1.388 . S
C1073 C1074 1.366 . S
C1074 C1073 1.366 . S
C1074 C1075 1.414 . S
C1074 C1077 1.499 . S
C1075 H1049 0.950 . S
C1075 C1074 1.414 . S
C1075 C1076 1.374 . S
C1076 H1050 0.950 . S
C1076 C1072 1.385 . S
C1076 C1075 1.374 . S
C1077 C1074 1.499 . S
C1077 C1078 1.373 . S
C1077 C1079 1.389 . S
C1078 H1051 0.950 . S
C1078 C1064 1.377 . S
C1078 C1077 1.373 . S
C1079 C1063 1.377 . S
C1079 C1077 1.389 . S
C1079 C1080 1.524 . S
C1080 C1079 1.524 . S
C1080 C1081 1.397 . S
C1080 C1085 1.363 . S
C1081 H1052 0.950 . S
C1081 C1080 1.397 . S
C1081 C1082 1.334 . S
C1082 H1053 0.950 . S
C1082 C1081 1.334 . S
C1082 C1083 1.287 . S
C1083 C1082 1.287 . S
C1083 C1084 1.524 . S
C1083 H1086 0.999 . S
C1084 H1054 0.950 . S
C1084 C1083 1.524 . S
C1084 C1085 1.415 . S
C1085 H1055 0.950 . S
C1085 C1080 1.363 . S
C1085 C1084 1.415 . S
H1086 C1083 0.999 . S
H1087 C1068 0.913 . S
C307 C3 1.491 . S
C322 C111 1.491 . S
C357 C2 1.491 . S
C372 C38 1.491 1_554 S
C407 C39 1.491 . S
C422 C75 1.491 . S
C457 C110 1.491 1_554 S
C472 C74 1.491 . S
C507 C147 1.491 . S
C522 C255 1.491 . S
C557 C182 1.491 . S
C572 C146 1.491 . S
C607 C219 1.491 . S
C622 C183 1.491 . S
C657 C254 1.491 . S
C672 C218 1.491 . S
C707 C230 1.393 . S
C722 C4 1.457 . S
C757 C50 1.393 . S
C772 C256 1.457 . S
C807 C158 1.394 . S
C822 C76 1.457 . S
C857 C184 1.457 . S
C872 C122 1.393 . S
C907 C194 1.394 . S
C922 C112 1.457 . S
C957 C14 1.394 . S
C972 C220 1.457 . S
C1007 C40 1.457 . S
C1022 C266 1.393 . S
C1057 C86 1.393 . S
C1072 C148 1.457 . S
