# Generated by pormake.
# Topology fcm, (5)-cn, num edge types: 1
# Building blocks:
#     Node 0, Type 0, BuildingBlock: BEQFEK_clean_sbu_0, # of connection points: 5
#     Node 1, Type 0, BuildingBlock: BEQFEK_clean_sbu_0, # of connection points: 5
#     Node 2, Type 0, BuildingBlock: BEQFEK_clean_sbu_0, # of connection points: 5
#     Node 3, Type 0, BuildingBlock: BEQFEK_clean_sbu_0, # of connection points: 5
#     Node 4, Type 0, BuildingBlock: BEQFEK_clean_sbu_0, # of connection points: 5
#     Node 5, Type 0, BuildingBlock: BEQFEK_clean_sbu_0, # of connection points: 5
#     Node 6, Type 0, BuildingBlock: BEQFEK_clean_sbu_0, # of connection points: 5
#     Node 7, Type 0, BuildingBlock: BEQFEK_clean_sbu_0, # of connection points: 5
#     Node 8, Type 0, BuildingBlock: BEQFEK_clean_sbu_0, # of connection points: 5
#     Node 9, Type 0, BuildingBlock: BEQFEK_clean_sbu_0, # of connection points: 5
#     Node 10, Type 0, BuildingBlock: BEQFEK_clean_sbu_0, # of connection points: 5
#     Node 11, Type 0, BuildingBlock: BEQFEK_clean_sbu_0, # of connection points: 5
#     Node 12, Type 0, BuildingBlock: BEQFEK_clean_sbu_0, # of connection points: 5
#     Node 13, Type 0, BuildingBlock: BEQFEK_clean_sbu_0, # of connection points: 5
#     Node 14, Type 0, BuildingBlock: BEQFEK_clean_sbu_0, # of connection points: 5
#     Node 15, Type 0, BuildingBlock: BEQFEK_clean_sbu_0, # of connection points: 5
#     Node 16, Type 0, BuildingBlock: BEQFEK_clean_sbu_0, # of connection points: 5
#     Node 17, Type 0, BuildingBlock: BEQFEK_clean_sbu_0, # of connection points: 5
#     Node 18, Type 0, BuildingBlock: BEQFEK_clean_sbu_0, # of connection points: 5
#     Node 19, Type 0, BuildingBlock: BEQFEK_clean_sbu_0, # of connection points: 5
#     Node 20, Type 0, BuildingBlock: BEQFEK_clean_sbu_0, # of connection points: 5
#     Node 21, Type 0, BuildingBlock: BEQFEK_clean_sbu_0, # of connection points: 5
#     Node 22, Type 0, BuildingBlock: BEQFEK_clean_sbu_0, # of connection points: 5
#     Node 23, Type 0, BuildingBlock: BEQFEK_clean_sbu_0, # of connection points: 5
#     Node 24, Type 0, BuildingBlock: BEQFEK_clean_sbu_0, # of connection points: 5
#     Node 25, Type 0, BuildingBlock: BEQFEK_clean_sbu_0, # of connection points: 5
#     Node 26, Type 0, BuildingBlock: BEQFEK_clean_sbu_0, # of connection points: 5
#     Node 27, Type 0, BuildingBlock: BEQFEK_clean_sbu_0, # of connection points: 5
#     Node 28, Type 0, BuildingBlock: BEQFEK_clean_sbu_0, # of connection points: 5
#     Node 29, Type 0, BuildingBlock: BEQFEK_clean_sbu_0, # of connection points: 5
#     Node 30, Type 0, BuildingBlock: BEQFEK_clean_sbu_0, # of connection points: 5
#     Node 31, Type 0, BuildingBlock: BEQFEK_clean_sbu_0, # of connection points: 5
#     Node 32, Type 0, BuildingBlock: BEQFEK_clean_sbu_0, # of connection points: 5
#     Node 33, Type 0, BuildingBlock: BEQFEK_clean_sbu_0, # of connection points: 5
#     Node 34, Type 0, BuildingBlock: BEQFEK_clean_sbu_0, # of connection points: 5
#     Node 35, Type 0, BuildingBlock: BEQFEK_clean_sbu_0, # of connection points: 5
#     Node 36, Type 0, BuildingBlock: BEQFEK_clean_sbu_0, # of connection points: 5
#     Node 37, Type 0, BuildingBlock: BEQFEK_clean_sbu_0, # of connection points: 5
#     Node 38, Type 0, BuildingBlock: BEQFEK_clean_sbu_0, # of connection points: 5
#     Node 39, Type 0, BuildingBlock: BEQFEK_clean_sbu_0, # of connection points: 5
#     Node 40, Type 0, BuildingBlock: BEQFEK_clean_sbu_0, # of connection points: 5
#     Node 41, Type 0, BuildingBlock: BEQFEK_clean_sbu_0, # of connection points: 5
#     Node 42, Type 0, BuildingBlock: BEQFEK_clean_sbu_0, # of connection points: 5
#     Node 43, Type 0, BuildingBlock: BEQFEK_clean_sbu_0, # of connection points: 5
#     Node 44, Type 0, BuildingBlock: BEQFEK_clean_sbu_0, # of connection points: 5
#     Node 45, Type 0, BuildingBlock: BEQFEK_clean_sbu_0, # of connection points: 5
#     Node 46, Type 0, BuildingBlock: BEQFEK_clean_sbu_0, # of connection points: 5
#     Node 47, Type 0, BuildingBlock: BEQFEK_clean_sbu_0, # of connection points: 5
#     Edge 48, Type (0, 0), BuildingBlock: AJUNOK_clean_linker_0, # of connection points: 2
#     Edge 49, Type (0, 0), BuildingBlock: AJUNOK_clean_linker_0, # of connection points: 2
#     Edge 50, Type (0, 0), BuildingBlock: AJUNOK_clean_linker_0, # of connection points: 2
#     Edge 51, Type (0, 0), BuildingBlock: AJUNOK_clean_linker_0, # of connection points: 2
#     Edge 52, Type (0, 0), BuildingBlock: AJUNOK_clean_linker_0, # of connection points: 2
#     Edge 53, Type (0, 0), BuildingBlock: AJUNOK_clean_linker_0, # of connection points: 2
#     Edge 54, Type (0, 0), BuildingBlock: AJUNOK_clean_linker_0, # of connection points: 2
#     Edge 55, Type (0, 0), BuildingBlock: AJUNOK_clean_linker_0, # of connection points: 2
#     Edge 56, Type (0, 0), BuildingBlock: AJUNOK_clean_linker_0, # of connection points: 2
#     Edge 57, Type (0, 0), BuildingBlock: AJUNOK_clean_linker_0, # of connection points: 2
#     Edge 58, Type (0, 0), BuildingBlock: AJUNOK_clean_linker_0, # of connection points: 2
#     Edge 59, Type (0, 0), BuildingBlock: AJUNOK_clean_linker_0, # of connection points: 2
#     Edge 60, Type (0, 0), BuildingBlock: AJUNOK_clean_linker_0, # of connection points: 2
#     Edge 61, Type (0, 0), BuildingBlock: AJUNOK_clean_linker_0, # of connection points: 2
#     Edge 62, Type (0, 0), BuildingBlock: AJUNOK_clean_linker_0, # of connection points: 2
#     Edge 63, Type (0, 0), BuildingBlock: AJUNOK_clean_linker_0, # of connection points: 2
#     Edge 64, Type (0, 0), BuildingBlock: AJUNOK_clean_linker_0, # of connection points: 2
#     Edge 65, Type (0, 0), BuildingBlock: AJUNOK_clean_linker_0, # of connection points: 2
#     Edge 66, Type (0, 0), BuildingBlock: AJUNOK_clean_linker_0, # of connection points: 2
#     Edge 67, Type (0, 0), BuildingBlock: AJUNOK_clean_linker_0, # of connection points: 2
#     Edge 68, Type (0, 0), BuildingBlock: AJUNOK_clean_linker_0, # of connection points: 2
#     Edge 69, Type (0, 0), BuildingBlock: AJUNOK_clean_linker_0, # of connection points: 2
#     Edge 70, Type (0, 0), BuildingBlock: AJUNOK_clean_linker_0, # of connection points: 2
#     Edge 71, Type (0, 0), BuildingBlock: AJUNOK_clean_linker_0, # of connection points: 2
#     Edge 72, Type (0, 0), BuildingBlock: AJUNOK_clean_linker_0, # of connection points: 2
#     Edge 73, Type (0, 0), BuildingBlock: AJUNOK_clean_linker_0, # of connection points: 2
#     Edge 74, Type (0, 0), BuildingBlock: AJUNOK_clean_linker_0, # of connection points: 2
#     Edge 75, Type (0, 0), BuildingBlock: AJUNOK_clean_linker_0, # of connection points: 2
#     Edge 76, Type (0, 0), BuildingBlock: AJUNOK_clean_linker_0, # of connection points: 2
#     Edge 77, Type (0, 0), BuildingBlock: AJUNOK_clean_linker_0, # of connection points: 2
#     Edge 78, Type (0, 0), BuildingBlock: AJUNOK_clean_linker_0, # of connection points: 2
#     Edge 79, Type (0, 0), BuildingBlock: AJUNOK_clean_linker_0, # of connection points: 2
#     Edge 80, Type (0, 0), BuildingBlock: AJUNOK_clean_linker_0, # of connection points: 2
#     Edge 81, Type (0, 0), BuildingBlock: AJUNOK_clean_linker_0, # of connection points: 2
#     Edge 82, Type (0, 0), BuildingBlock: AJUNOK_clean_linker_0, # of connection points: 2
#     Edge 83, Type (0, 0), BuildingBlock: AJUNOK_clean_linker_0, # of connection points: 2
#     Edge 84, Type (0, 0), BuildingBlock: AJUNOK_clean_linker_0, # of connection points: 2
#     Edge 85, Type (0, 0), BuildingBlock: AJUNOK_clean_linker_0, # of connection points: 2
#     Edge 86, Type (0, 0), BuildingBlock: AJUNOK_clean_linker_0, # of connection points: 2
#     Edge 87, Type (0, 0), BuildingBlock: AJUNOK_clean_linker_0, # of connection points: 2
#     Edge 88, Type (0, 0), BuildingBlock: AJUNOK_clean_linker_0, # of connection points: 2
#     Edge 89, Type (0, 0), BuildingBlock: AJUNOK_clean_linker_0, # of connection points: 2
#     Edge 90, Type (0, 0), BuildingBlock: AJUNOK_clean_linker_0, # of connection points: 2
#     Edge 91, Type (0, 0), BuildingBlock: AJUNOK_clean_linker_0, # of connection points: 2
#     Edge 92, Type (0, 0), BuildingBlock: AJUNOK_clean_linker_0, # of connection points: 2
#     Edge 93, Type (0, 0), BuildingBlock: AJUNOK_clean_linker_0, # of connection points: 2
#     Edge 94, Type (0, 0), BuildingBlock: AJUNOK_clean_linker_0, # of connection points: 2
#     Edge 95, Type (0, 0), BuildingBlock: AJUNOK_clean_linker_0, # of connection points: 2
#     Edge 96, Type (0, 0), BuildingBlock: AJUNOK_clean_linker_0, # of connection points: 2
#     Edge 97, Type (0, 0), BuildingBlock: AJUNOK_clean_linker_0, # of connection points: 2
#     Edge 98, Type (0, 0), BuildingBlock: AJUNOK_clean_linker_0, # of connection points: 2
#     Edge 99, Type (0, 0), BuildingBlock: AJUNOK_clean_linker_0, # of connection points: 2
#     Edge 100, Type (0, 0), BuildingBlock: AJUNOK_clean_linker_0, # of connection points: 2
#     Edge 101, Type (0, 0), BuildingBlock: AJUNOK_clean_linker_0, # of connection points: 2
#     Edge 102, Type (0, 0), BuildingBlock: AJUNOK_clean_linker_0, # of connection points: 2
#     Edge 103, Type (0, 0), BuildingBlock: AJUNOK_clean_linker_0, # of connection points: 2
#     Edge 104, Type (0, 0), BuildingBlock: AJUNOK_clean_linker_0, # of connection points: 2
#     Edge 105, Type (0, 0), BuildingBlock: AJUNOK_clean_linker_0, # of connection points: 2
#     Edge 106, Type (0, 0), BuildingBlock: AJUNOK_clean_linker_0, # of connection points: 2
#     Edge 107, Type (0, 0), BuildingBlock: AJUNOK_clean_linker_0, # of connection points: 2
#     Edge 108, Type (0, 0), BuildingBlock: AJUNOK_clean_linker_0, # of connection points: 2
#     Edge 109, Type (0, 0), BuildingBlock: AJUNOK_clean_linker_0, # of connection points: 2
#     Edge 110, Type (0, 0), BuildingBlock: AJUNOK_clean_linker_0, # of connection points: 2
#     Edge 111, Type (0, 0), BuildingBlock: AJUNOK_clean_linker_0, # of connection points: 2
#     Edge 112, Type (0, 0), BuildingBlock: AJUNOK_clean_linker_0, # of connection points: 2
#     Edge 113, Type (0, 0), BuildingBlock: AJUNOK_clean_linker_0, # of connection points: 2
#     Edge 114, Type (0, 0), BuildingBlock: AJUNOK_clean_linker_0, # of connection points: 2
#     Edge 115, Type (0, 0), BuildingBlock: AJUNOK_clean_linker_0, # of connection points: 2
#     Edge 116, Type (0, 0), BuildingBlock: AJUNOK_clean_linker_0, # of connection points: 2
#     Edge 117, Type (0, 0), BuildingBlock: AJUNOK_clean_linker_0, # of connection points: 2
#     Edge 118, Type (0, 0), BuildingBlock: AJUNOK_clean_linker_0, # of connection points: 2
#     Edge 119, Type (0, 0), BuildingBlock: AJUNOK_clean_linker_0, # of connection points: 2
#     Edge 120, Type (0, 0), BuildingBlock: AJUNOK_clean_linker_0, # of connection points: 2
#     Edge 121, Type (0, 0), BuildingBlock: AJUNOK_clean_linker_0, # of connection points: 2
#     Edge 122, Type (0, 0), BuildingBlock: AJUNOK_clean_linker_0, # of connection points: 2
#     Edge 123, Type (0, 0), BuildingBlock: AJUNOK_clean_linker_0, # of connection points: 2
#     Edge 124, Type (0, 0), BuildingBlock: AJUNOK_clean_linker_0, # of connection points: 2
#     Edge 125, Type (0, 0), BuildingBlock: AJUNOK_clean_linker_0, # of connection points: 2
#     Edge 126, Type (0, 0), BuildingBlock: AJUNOK_clean_linker_0, # of connection points: 2
#     Edge 127, Type (0, 0), BuildingBlock: AJUNOK_clean_linker_0, # of connection points: 2
#     Edge 128, Type (0, 0), BuildingBlock: AJUNOK_clean_linker_0, # of connection points: 2
#     Edge 129, Type (0, 0), BuildingBlock: AJUNOK_clean_linker_0, # of connection points: 2
#     Edge 130, Type (0, 0), BuildingBlock: AJUNOK_clean_linker_0, # of connection points: 2
#     Edge 131, Type (0, 0), BuildingBlock: AJUNOK_clean_linker_0, # of connection points: 2
#     Edge 132, Type (0, 0), BuildingBlock: AJUNOK_clean_linker_0, # of connection points: 2
#     Edge 133, Type (0, 0), BuildingBlock: AJUNOK_clean_linker_0, # of connection points: 2
#     Edge 134, Type (0, 0), BuildingBlock: AJUNOK_clean_linker_0, # of connection points: 2
#     Edge 135, Type (0, 0), BuildingBlock: AJUNOK_clean_linker_0, # of connection points: 2
#     Edge 136, Type (0, 0), BuildingBlock: AJUNOK_clean_linker_0, # of connection points: 2
#     Edge 137, Type (0, 0), BuildingBlock: AJUNOK_clean_linker_0, # of connection points: 2
#     Edge 138, Type (0, 0), BuildingBlock: AJUNOK_clean_linker_0, # of connection points: 2
#     Edge 139, Type (0, 0), BuildingBlock: AJUNOK_clean_linker_0, # of connection points: 2
#     Edge 140, Type (0, 0), BuildingBlock: AJUNOK_clean_linker_0, # of connection points: 2
#     Edge 141, Type (0, 0), BuildingBlock: AJUNOK_clean_linker_0, # of connection points: 2
#     Edge 142, Type (0, 0), BuildingBlock: AJUNOK_clean_linker_0, # of connection points: 2
#     Edge 143, Type (0, 0), BuildingBlock: AJUNOK_clean_linker_0, # of connection points: 2
#     Edge 144, Type (0, 0), BuildingBlock: AJUNOK_clean_linker_0, # of connection points: 2
#     Edge 145, Type (0, 0), BuildingBlock: AJUNOK_clean_linker_0, # of connection points: 2
#     Edge 146, Type (0, 0), BuildingBlock: AJUNOK_clean_linker_0, # of connection points: 2
#     Edge 147, Type (0, 0), BuildingBlock: AJUNOK_clean_linker_0, # of connection points: 2
#     Edge 148, Type (0, 0), BuildingBlock: AJUNOK_clean_linker_0, # of connection points: 2
#     Edge 149, Type (0, 0), BuildingBlock: AJUNOK_clean_linker_0, # of connection points: 2
#     Edge 150, Type (0, 0), BuildingBlock: AJUNOK_clean_linker_0, # of connection points: 2
#     Edge 151, Type (0, 0), BuildingBlock: AJUNOK_clean_linker_0, # of connection points: 2
#     Edge 152, Type (0, 0), BuildingBlock: AJUNOK_clean_linker_0, # of connection points: 2
#     Edge 153, Type (0, 0), BuildingBlock: AJUNOK_clean_linker_0, # of connection points: 2
#     Edge 154, Type (0, 0), BuildingBlock: AJUNOK_clean_linker_0, # of connection points: 2
#     Edge 155, Type (0, 0), BuildingBlock: AJUNOK_clean_linker_0, # of connection points: 2
#     Edge 156, Type (0, 0), BuildingBlock: AJUNOK_clean_linker_0, # of connection points: 2
#     Edge 157, Type (0, 0), BuildingBlock: AJUNOK_clean_linker_0, # of connection points: 2
#     Edge 158, Type (0, 0), BuildingBlock: AJUNOK_clean_linker_0, # of connection points: 2
#     Edge 159, Type (0, 0), BuildingBlock: AJUNOK_clean_linker_0, # of connection points: 2
#     Edge 160, Type (0, 0), BuildingBlock: AJUNOK_clean_linker_0, # of connection points: 2
#     Edge 161, Type (0, 0), BuildingBlock: AJUNOK_clean_linker_0, # of connection points: 2
#     Edge 162, Type (0, 0), BuildingBlock: AJUNOK_clean_linker_0, # of connection points: 2
#     Edge 163, Type (0, 0), BuildingBlock: AJUNOK_clean_linker_0, # of connection points: 2
#     Edge 164, Type (0, 0), BuildingBlock: AJUNOK_clean_linker_0, # of connection points: 2
#     Edge 165, Type (0, 0), BuildingBlock: AJUNOK_clean_linker_0, # of connection points: 2
#     Edge 166, Type (0, 0), BuildingBlock: AJUNOK_clean_linker_0, # of connection points: 2
#     Edge 167, Type (0, 0), BuildingBlock: AJUNOK_clean_linker_0, # of connection points: 2
# Relax obj value: 0.521
# Max RMSD: 0.212
# Mean RMSD: 0.212
data_MOF--net-fcm--node1-BEQFEK_clean_sbu_0--edge1-AJUNOK_clean_linker_0
_symmetry_space_group_name_H-M    P1
_symmetry_Int_Tables_number       1
_symmetry_cell_setting            triclinic
loop_
_symmetry_equiv_pos_as_xyz
'x, y, z'
_cell_length_a     53.750239
_cell_length_b     53.773409
_cell_length_c     53.751604
_cell_angle_alpha  89.973572
_cell_angle_beta   89.975403
_cell_angle_gamma 89.980411
loop_
_atom_site_label
_atom_site_type_symbol
_atom_site_fract_x
_atom_site_fract_y
_atom_site_fract_z
_atom_type_partial_charge
Co0 Co 0.02888 0.07367 0.33192 0.0
Co1 Co 0.98755 0.03836 0.35325 0.0
C2 C 0.00722 0.02899 0.3035 0.0
O3 O 0.01936 0.04913 0.30568 0.0
O4 O 0.99537 0.01989 0.32188 0.0
C5 C 0.07651 0.06227 0.32254 0.0
O6 O 0.06454 0.04106 0.3243 0.0
C7 C 0.96675 0.99411 0.37751 0.0
C8 C 0.94268 0.01061 0.40636 0.0
C9 C 0.95325 0.9883 0.39886 0.0
N10 N 0.96518 0.0188 0.3734 0.0
N11 N 0.95021 0.02842 0.39037 0.0
C12 C 0.98128 0.97675 0.36128 0.0
H13 H 0.9758 0.97966 0.34161 0.0
H14 H 1.00141 0.98102 0.36276 0.0
H15 H 0.97783 0.95702 0.36626 0.0
C16 C 0.04702 0.06931 0.38287 0.0
N17 N 0.03116 0.06228 0.36483 0.0
N18 N 0.01614 0.04512 0.37344 0.0
C19 C 0.02317 0.03973 0.39708 0.0
C20 C 0.04313 0.05478 0.40362 0.0
C21 C 0.06182 0.0928 0.38256 0.0
H22 H 0.0596 0.10296 0.36478 0.0
H23 H 0.08156 0.0885 0.38642 0.0
H24 H 0.05538 0.10502 0.39791 0.0
O25 O 1.00209 0.09819 0.33081 0.0
O26 O 0.97187 0.0715 0.34195 0.0
H27 H 0.99306 0.02689 0.41947 0.0
H28 H 0.0232 0.01589 0.42948 0.0
C29 C 0.01152 0.02035 0.41305 0.0
H30 H 0.00919 1.00345 0.40179 0.0
H31 H 0.94659 0.0474 0.39214 0.0
O32 O 0.06407 0.08249 0.32364 0.0
C33 C 0.97909 0.09301 0.33424 0.0
Co34 Co 0.18443 0.77658 0.57855 0.0
Co35 Co 0.21729 0.73578 0.60351 0.0
C36 C 0.23028 0.75412 0.55352 0.0
O37 O 0.21091 0.76745 0.55493 0.0
O38 O 0.23706 0.7406 0.5718 0.0
C39 C 0.19397 0.82337 0.56741 0.0
O40 O 0.21517 0.81333 0.57424 0.0
C41 C 0.25892 0.71558 0.63198 0.0
C42 C 0.23967 0.69245 0.65993 0.0
C43 C 0.26266 0.70259 0.65406 0.0
N44 N 0.23473 0.71405 0.62578 0.0
N45 N 0.22346 0.69963 0.64221 0.0
C46 C 0.27772 0.72979 0.61709 0.0
H47 H 0.27625 0.72429 0.59726 0.0
H48 H 0.27368 0.74999 0.6181 0.0
H49 H 0.29696 0.72613 0.62358 0.0
C50 C 0.18887 0.79993 0.62737 0.0
N51 N 0.19486 0.78158 0.6114 0.0
N52 N 0.21056 0.76614 0.6219 0.0
C53 C 0.21572 0.77494 0.64503 0.0
C54 C 0.20235 0.79683 0.64905 0.0
C55 C 0.16814 0.81812 0.62322 0.0
H56 H 0.15398 0.81008 0.61055 0.0
H57 H 0.17559 0.83532 0.61468 0.0
H58 H 0.1592 0.82323 0.64113 0.0
O59 O 0.16 0.74972 0.57763 0.0
O60 O 0.18481 0.7197 0.59248 0.0
H61 H 0.22574 0.74447 0.66848 0.0
H62 H 0.23584 0.77432 0.68001 0.0
C63 C 0.23312 0.76292 0.66306 0.0
H64 H 0.25142 0.76045 0.65409 0.0
H65 H 0.20435 0.69622 0.64238 0.0
O66 O 0.17463 0.80967 0.56645 0.0
C67 C 0.16408 0.72698 0.58315 0.0
Co68 Co 0.47592 0.93777 0.8287 0.0
Co69 Co 0.51997 0.96852 0.85185 0.0
C70 C 0.5011 0.98068 0.8016 0.0
O71 O 0.48696 0.96189 0.80315 0.0
O72 O 0.51393 0.98769 0.82022 0.0
C73 C 0.42896 0.9508 0.81749 0.0
O74 O 0.44126 0.97168 0.82055 0.0
C75 C 0.54091 0.01173 0.87697 0.0
C76 C 0.56648 0.99495 0.9043 0.0
C77 C 0.55497 0.0172 0.89802 0.0
N78 N 0.54296 0.98727 0.872 0.0
N79 N 0.55887 0.97749 0.88798 0.0
C80 C 0.52568 0.02923 0.86157 0.0
H81 H 0.53066 0.02681 0.84171 0.0
H82 H 0.50566 0.02461 0.86363 0.0
H83 H 0.52909 0.04891 0.86671 0.0
C84 C 0.45612 0.94347 0.87933 0.0
N85 N 0.47321 0.9492 0.86183 0.0
N86 N 0.49083 0.96281 0.87187 0.0
C87 C 0.48498 0.96654 0.89617 0.0
C88 C 0.46279 0.9545 0.90152 0.0
C89 C 0.43398 0.92716 0.8752 0.0
H90 H 0.43809 0.91282 0.861 0.0
H91 H 0.41833 0.93902 0.86905 0.0
H92 H 0.4279 0.91779 0.89249 0.0
O93 O 0.5019 0.91165 0.82767 0.0
O94 O 0.53394 0.93511 0.84072 0.0
H95 H 0.5193 0.96876 0.91594 0.0
H96 H 0.49278 0.97907 0.93364 0.0
C97 C 0.50137 0.97885 0.91487 0.0
H98 H 0.50486 0.99816 0.90898 0.0
H99 H 0.56309 0.95857 0.88893 0.0
O100 O 0.44098 0.93034 0.81869 0.0
C101 C 0.52516 0.91464 0.83202 0.0
Co102 Co 0.31816 0.22604 0.07565 0.0
Co103 Co 0.28895 0.27003 0.10009 0.0
C104 C 0.27399 0.24998 0.05061 0.0
O105 O 0.29163 0.23447 0.05201 0.0
O106 O 0.26964 0.26508 0.06833 0.0
C107 C 0.30905 0.17831 0.06527 0.0
O108 O 0.28757 0.18762 0.07231 0.0
C109 C 0.24634 0.28887 0.12698 0.0
C110 C 0.26129 0.32078 0.14804 0.0
C111 C 0.24007 0.30639 0.14494 0.0
N112 N 0.27005 0.29268 0.12 0.0
N113 N 0.27879 0.31206 0.13231 0.0
C114 C 0.23152 0.26671 0.11891 0.0
H115 H 0.24406 0.25132 0.11326 0.0
H116 H 0.21894 0.26028 0.13398 0.0
H117 H 0.22015 0.27183 0.10247 0.0
C118 C 0.31372 0.2051 0.12617 0.0
N119 N 0.30817 0.22273 0.10916 0.0
N120 N 0.29497 0.24042 0.11967 0.0
C121 C 0.29126 0.23413 0.14385 0.0
C122 C 0.30274 0.21141 0.14858 0.0
C123 C 0.3299 0.18291 0.12129 0.0
H124 H 0.34373 0.1871 0.10661 0.0
H125 H 0.31806 0.16711 0.11548 0.0
H126 H 0.34011 0.17691 0.13808 0.0
O127 O 0.34324 0.2529 0.07328 0.0
O128 O 0.32176 0.28474 0.08947 0.0
H129 H 0.28629 0.2699 0.16075 0.0
H130 H 0.28414 0.24418 0.18215 0.0
C131 C 0.2796 0.25058 0.16305 0.0
H132 H 0.25911 0.25025 0.16086 0.0
H133 H 0.29707 0.31847 0.13098 0.0
O134 O 0.32792 0.19262 0.06411 0.0
C135 C 0.34135 0.2759 0.07913 0.0
Co136 Co 0.02757 0.9369 0.178 0.0
Co137 Co 0.98459 0.97012 0.15607 0.0
C138 C 0.00723 0.98086 0.20615 0.0
O139 O 0.02095 0.96174 0.20414 0.0
O140 O 0.99307 0.98768 0.18833 0.0
C141 C 0.0727 0.92669 0.20475 0.0
O142 O 0.06214 0.93992 0.22236 0.0
C143 C 0.96978 0.01408 0.12849 0.0
C144 C 0.93553 1.0021 0.10935 0.0
C145 C 0.9528 0.02129 0.11031 0.0
N146 N 0.96322 0.99155 0.13718 0.0
N147 N 0.94239 0.98471 0.12607 0.0
C148 C 0.99372 0.02663 0.13527 0.0
H149 H 0.00659 0.01339 0.14447 0.0
H150 H 1.00275 0.0347 0.11854 0.0
H151 H 0.98975 0.04194 0.14853 0.0
C152 C 0.05007 0.94845 0.12934 0.0
N153 N 0.03162 0.95129 0.14607 0.0
N154 N 0.01299 0.96307 0.13551 0.0
C155 C 0.01878 0.96698 0.11122 0.0
C156 C 0.04253 0.95789 0.10669 0.0
C157 C 0.07452 0.93659 0.13475 0.0
H158 H 0.07148 0.91631 0.13657 0.0
H159 H 0.08203 0.9442 0.15235 0.0
H160 H 0.0883 0.94001 0.11976 0.0
O161 O 0.99868 0.91371 0.1783 0.0
O162 O 0.96743 0.93824 0.16592 0.0
H163 H 0.98185 0.97063 0.09633 0.0
H164 H 0.00612 0.96873 0.07319 0.0
C165 C 1.00114 0.97623 0.09178 0.0
H166 H 1.00228 0.99677 0.0907 0.0
H167 H 0.93381 0.96752 0.12869 0.0
O168 O 0.05977 0.92032 0.186 0.0
C169 C 0.97555 0.91741 0.17414 0.0
Co170 Co 0.3187 0.77675 0.42682 0.0
Co171 Co 0.28723 0.73239 0.40495 0.0
C172 C 0.27581 0.75473 0.45515 0.0
O173 O 0.29337 0.77021 0.45231 0.0
O174 O 0.2706 0.73892 0.43824 0.0
C175 C 0.32797 0.82094 0.45493 0.0
O176 O 0.31729 0.8085 0.47303 0.0
C177 C 0.24245 0.71616 0.37957 0.0
C178 C 0.2544 0.68245 0.35944 0.0
C179 C 0.23448 0.69867 0.36223 0.0
N180 N 0.26586 0.71059 0.38646 0.0
N181 N 0.27277 0.69015 0.37469 0.0
C182 C 0.22964 0.73976 0.38706 0.0
H183 H 0.24341 0.75405 0.39261 0.0
H184 H 0.21786 0.747 0.37171 0.0
H185 H 0.21767 0.73603 0.40345 0.0
C186 C 0.30773 0.79856 0.37814 0.0
N187 N 0.3048 0.78022 0.39495 0.0
N188 N 0.29282 0.76157 0.38467 0.0
C189 C 0.28843 0.76744 0.36048 0.0
C190 C 0.29765 0.79113 0.35577 0.0
C191 C 0.32005 0.82288 0.38333 0.0
H192 H 0.3105 0.83175 0.3993 0.0
H193 H 0.3191 0.83573 0.36722 0.0
H194 H 0.33983 0.81957 0.38818 0.0
O195 O 0.3426 0.74848 0.42716 0.0
O196 O 0.32 0.71642 0.41323 0.0
H197 H 0.28397 0.75565 0.32236 0.0
H198 H 0.25757 0.75047 0.34211 0.0
C199 C 0.27817 0.75003 0.34137 0.0
H200 H 0.28466 0.73082 0.34503 0.0
H201 H 0.29047 0.68229 0.37597 0.0
O202 O 0.3338 0.80944 0.43511 0.0
C203 C 0.34032 0.72541 0.42182 0.0
Co204 Co 0.48188 0.07081 0.67504 0.0
Co205 Co 0.52235 0.03616 0.65296 0.0
C206 C 0.50473 0.02729 0.70365 0.0
O207 O 0.49252 0.04734 0.70147 0.0
O208 O 0.5159 0.01785 0.685 0.0
C209 C 0.43557 0.0614 0.68911 0.0
O210 O 0.4462 0.03967 0.68571 0.0
C211 C 0.54217 0.99272 0.62732 0.0
C212 C 0.57174 0.00887 0.60386 0.0
C213 C 0.5587 0.98701 0.60821 0.0
N214 N 0.54494 0.01684 0.63336 0.0
N215 N 0.56303 0.02626 0.61966 0.0
C216 C 0.52197 0.97659 0.63774 0.0
H217 H 0.50694 0.98814 0.64591 0.0
H218 H 0.5141 0.96428 0.62318 0.0
H219 H 0.52989 0.96474 0.65267 0.0
C220 C 0.45879 0.06266 0.62662 0.0
N221 N 0.47701 0.05765 0.64303 0.0
N222 N 0.49281 0.04183 0.63325 0.0
C223 C 0.48441 0.03567 0.61018 0.0
C224 C 0.46218 0.04833 0.60558 0.0
C225 C 0.44048 0.08344 0.62937 0.0
H226 H 0.44772 0.09791 0.64215 0.0
H227 H 0.42287 0.07589 0.63681 0.0
H228 H 0.43639 0.09202 0.61103 0.0
O229 O 0.50798 0.09577 0.67374 0.0
O230 O 0.53835 0.06929 0.66312 0.0
H231 H 0.51733 0.02387 0.59106 0.0
H232 H 0.48897 0.01891 0.57377 0.0
C233 C 0.49747 0.01857 0.59254 0.0
H234 H 0.49623 0.99931 0.59964 0.0
H235 H 0.56838 0.04491 0.62002 0.0
O236 O 0.44845 0.08107 0.68609 0.0
C237 C 0.53094 0.09094 0.67004 0.0
Co238 Co 0.1851 0.2303 0.92352 0.0
Co239 Co 0.21881 0.27329 0.90272 0.0
C240 C 0.22938 0.25211 0.95206 0.0
O241 O 0.21049 0.23826 0.94915 0.0
O242 O 0.23667 0.26652 0.93473 0.0
C243 C 0.1961 0.18218 0.93132 0.0
O244 O 0.21753 0.19352 0.92838 0.0
C245 C 0.2622 0.29365 0.8773 0.0
C246 C 0.24592 0.32331 0.85407 0.0
C247 C 0.26781 0.31018 0.85812 0.0
N248 N 0.23811 0.29648 0.8836 0.0
N249 N 0.22864 0.31465 0.87004 0.0
C250 C 0.27833 0.27333 0.88747 0.0
H251 H 0.26677 0.25834 0.89571 0.0
H252 H 0.29046 0.26542 0.87276 0.0
H253 H 0.29038 0.28112 0.9023 0.0
C254 C 0.18912 0.21325 0.87275 0.0
N255 N 0.1961 0.22923 0.89062 0.0
N256 N 0.2131 0.24446 0.882 0.0
C257 C 0.21868 0.23722 0.85838 0.0
C258 C 0.20395 0.2168 0.85217 0.0
C259 C 0.16464 0.19998 0.87247 0.0
H260 H 0.15551 0.20027 0.89091 0.0
H261 H 0.16685 0.18078 0.86546 0.0
H262 H 0.15214 0.20959 0.85913 0.0
O263 O 0.16042 0.25694 0.92594 0.0
O264 O 0.1854 0.28813 0.91364 0.0
H265 H 0.23204 0.26998 0.84017 0.0
H266 H 0.23662 0.24181 0.82258 0.0
C267 C 0.23674 0.24998 0.84151 0.0
H268 H 0.25573 0.24804 0.84916 0.0
H269 H 0.20998 0.31999 0.87051 0.0
O270 O 0.17613 0.19503 0.93114 0.0
C271 C 0.16446 0.28005 0.92194 0.0
Co272 Co 0.32911 0.02461 0.0723 0.0
Co273 Co 0.35276 0.98335 0.03895 0.0
C274 C 0.30237 1.00152 0.02806 0.0
O275 O 0.30399 0.01435 0.04772 0.0
O276 O 0.32111 0.98962 0.01979 0.0
C277 C 0.31861 0.07132 0.06128 0.0
O278 O 0.32499 0.06053 0.04031 0.0
C279 C 0.37978 0.96484 0.99559 0.0
C280 C 0.40532 0.93721 0.01196 0.0
C281 C 0.40044 0.95016 0.99015 0.0
N282 N 0.37354 0.96147 0.01963 0.0
N283 N 0.38851 0.94444 0.02914 0.0
C284 C 0.3662 0.98217 0.97851 0.0
H285 H 0.34588 0.97975 0.98092 0.0
H286 H 0.37077 1.0017 0.98334 0.0
H287 H 0.37087 0.9786 0.95873 0.0
C288 C 0.37885 0.04664 0.06697 0.0
N289 N 0.36205 0.02896 0.06103 0.0
N290 N 0.37212 0.01283 0.04572 0.0
C291 C 0.39573 0.02036 0.04085 0.0
C292 C 0.40058 0.04219 0.05391 0.0
C293 C 0.37445 0.06694 0.08557 0.0
H294 H 0.35972 0.06152 0.09892 0.0
H295 H 0.36888 0.08414 0.07571 0.0
H296 H 0.39151 0.07127 0.0962 0.0
O297 O 0.32885 0.99803 0.09716 0.0
O298 O 0.34173 0.96743 0.07183 0.0
H299 H 0.41501 0.98647 0.03307 0.0
H300 H 0.43341 0.01388 0.02807 0.0
C301 C 0.41448 0.00587 0.02627 0.0
H302 H 0.40924 0.00596 0.00637 0.0
H303 H 0.38837 0.93902 0.04778 0.0
O304 O 0.31731 0.05825 0.08106 0.0
C305 C 0.33342 0.97508 0.09293 0.0
Co306 Co 0.22886 0.07807 0.3207 0.0
Co307 Co 0.27183 0.09959 0.28662 0.0
C308 C 0.24915 0.04963 0.27677 0.0
O309 O 0.23556 0.05201 0.29593 0.0
O310 O 0.26318 0.06729 0.26932 0.0
C311 C 0.18359 0.05142 0.33067 0.0
O312 O 0.19416 0.03373 0.31757 0.0
C313 C 0.2876 0.12617 0.24194 0.0
C314 C 0.31873 0.14911 0.2556 0.0
C315 C 0.30302 0.14597 0.23533 0.0
N316 N 0.29315 0.11901 0.26531 0.0
N317 N 0.31221 0.1324 0.27313 0.0
C318 C 0.26784 0.11393 0.22663 0.0
H319 H 0.24926 0.12008 0.2332 0.0
H320 H 0.27008 0.11828 0.20657 0.0
H321 H 0.26881 0.09349 0.22914 0.0
C322 C 0.20703 0.127 0.30987 0.0
N323 N 0.22513 0.10998 0.30658 0.0
N324 N 0.24352 0.1201 0.29405 0.0
C325 C 0.23783 0.14434 0.28993 0.0
C326 C 0.21444 0.14925 0.29962 0.0
C327 C 0.18309 0.12223 0.32289 0.0
H328 H 0.18719 0.11926 0.34287 0.0
H329 H 0.17439 0.10538 0.31488 0.0
H330 H 0.16984 0.13793 0.32099 0.0
O331 O 0.25779 0.07746 0.34351 0.0
O332 O 0.28893 0.08917 0.31839 0.0
H333 H 0.2742 0.16042 0.28768 0.0
H334 H 0.24914 0.18256 0.28484 0.0
C335 C 0.25535 0.16348 0.27999 0.0
H336 H 0.25599 0.16202 0.25955 0.0
H337 H 0.31965 0.1313 0.29102 0.0
O338 O 0.19659 0.07009 0.33712 0.0
C339 C 0.28091 0.08112 0.33935 0.0
Co340 Co 0.1761 0.97769 0.56718 0.0
Co341 Co 0.15236 0.02315 0.53996 0.0
C342 C 0.20024 1.00057 0.52237 0.0
O343 O 0.19817 0.98448 0.53936 0.0
O344 O 0.18373 0.01734 0.51954 0.0
C345 C 0.18393 0.92978 0.55772 0.0
O346 O 0.17427 0.93881 0.53717 0.0
C347 C 0.12469 0.04151 0.49786 0.0
C348 C 0.10311 0.07298 0.51299 0.0
C349 C 0.10583 0.05819 0.49198 0.0
N350 N 0.13229 0.04589 0.52128 0.0
N351 N 0.1197 0.06506 0.5301 0.0
C352 C 0.13296 0.01944 0.48299 0.0
H353 H 0.14112 0.00502 0.4953 0.0
H354 H 0.11719 0.01137 0.47241 0.0
H355 H 0.14743 0.02542 0.46954 0.0
C356 C 0.12471 0.95893 0.56558 0.0
N357 N 0.14205 0.97606 0.55956 0.0
N358 N 0.13178 0.99408 0.54663 0.0
C359 C 0.10738 0.98833 0.54339 0.0
C360 C 0.1023 0.96574 0.55501 0.0
C361 C 0.1293 0.93669 0.58175 0.0
H362 H 0.14527 0.93996 0.59433 0.0
H363 H 0.13297 0.9203 0.56985 0.0
H364 H 0.11289 0.93228 0.59335 0.0
O365 O 0.18227 0.00464 0.59093 0.0
O366 O 0.16482 0.03775 0.57251 0.0
H367 H 0.06919 0.99878 0.53629 0.0
H368 H 0.09049 0.00443 0.51118 0.0
C369 C 0.08836 0.00493 0.53166 0.0
H370 H 0.09086 0.02425 0.53828 0.0
H371 H 0.12129 0.07172 0.54826 0.0
O372 O 0.18723 0.94415 0.57627 0.0
C373 C 0.17709 0.02786 0.59044 0.0
Co374 Co 0.2769 0.92735 0.81942 0.0
Co375 Co 0.2322 0.90498 0.78849 0.0
C376 C 0.25428 0.95509 0.77653 0.0
O377 O 0.2699 0.95239 0.79397 0.0
O378 O 0.23872 0.93794 0.7713 0.0
C379 C 0.32129 0.95581 0.82746 0.0
O380 O 0.30864 0.97361 0.81654 0.0
C381 C 0.21601 0.87887 0.7441 0.0
C382 C 0.18231 0.85884 0.75628 0.0
C383 C 0.19855 0.86141 0.73635 0.0
N384 N 0.2104 0.88608 0.7674 0.0
N385 N 0.18997 0.87436 0.77445 0.0
C386 C 0.23962 0.88616 0.73118 0.0
H387 H 0.25394 0.89181 0.74489 0.0
H388 H 0.24679 0.87069 0.71954 0.0
H389 H 0.2359 0.90243 0.71905 0.0
C390 C 0.29846 0.8785 0.80908 0.0
N391 N 0.28011 0.89525 0.80599 0.0
N392 N 0.26125 0.88469 0.7946 0.0
C393 C 0.26695 0.86034 0.79094 0.0
C394 C 0.29074 0.85578 0.80004 0.0
C395 C 0.32332 0.88431 0.81994 0.0
H396 H 0.33116 0.9005 0.8099 0.0
H397 H 0.33655 0.86859 0.81814 0.0
H398 H 0.32103 0.889 0.8399 0.0
O399 O 0.24858 0.92846 0.84339 0.0
O400 O 0.21633 0.91452 0.82096 0.0
H401 H 0.2549 0.8222 0.78756 0.0
H402 H 0.24954 0.84134 0.76073 0.0
C403 C 0.24932 0.84109 0.78134 0.0
H404 H 0.2302 0.84503 0.78793 0.0
H405 H 0.18208 0.87586 0.79213 0.0
O406 O 0.30993 0.93606 0.83386 0.0
C407 C 0.2254 0.92356 0.84105 0.0
Co408 Co 0.32912 0.97579 0.43719 0.0
Co409 Co 0.34981 0.02022 0.46927 0.0
C410 C 0.29974 0.99905 0.47955 0.0
O411 O 0.30306 0.98461 0.46127 0.0
O412 O 0.31697 0.01373 0.48656 0.0
C413 C 0.32007 0.92854 0.44936 0.0
O414 O 0.3239 0.94063 0.47023 0.0
C415 C 0.3755 0.03661 0.51363 0.0
C416 C 0.39645 0.06965 0.50129 0.0
C417 C 0.39375 0.05339 0.52122 0.0
N418 N 0.36825 0.04248 0.49038 0.0
N419 N 0.38044 0.06263 0.48329 0.0
C420 C 0.36764 0.01308 0.52638 0.0
H421 H 0.36121 0.99916 0.51261 0.0
H422 H 0.38306 0.00515 0.53759 0.0
H423 H 0.35174 0.01718 0.53889 0.0
C424 C 0.37991 0.95767 0.44342 0.0
N425 N 0.36187 0.97413 0.44913 0.0
N426 N 0.371 0.99174 0.46338 0.0
C427 C 0.39539 0.98644 0.46757 0.0
C428 C 0.40151 0.96456 0.45529 0.0
C429 C 0.37699 0.93624 0.4259 0.0
H430 H 0.36241 0.94018 0.41191 0.0
H431 H 0.37212 0.91948 0.43683 0.0
H432 H 0.39452 0.93214 0.41591 0.0
O433 O 0.32783 1.00263 0.412 0.0
O434 O 0.34015 0.03483 0.43573 0.0
H435 H 0.41051 0.0227 0.47442 0.0
H436 H 0.43311 0.998 0.47523 0.0
C437 C 0.41372 1.00319 0.48011 0.0
H438 H 0.41172 1.00152 0.50054 0.0
H439 H 0.37914 0.07047 0.46561 0.0
O440 O 0.32036 0.94072 0.42894 0.0
C441 C 0.33212 0.0259 0.41504 0.0
Co442 Co 0.28068 0.08159 0.69255 0.0
Co443 Co 0.23276 0.10396 0.71777 0.0
C444 C 0.25458 0.05449 0.73346 0.0
O445 O 0.27194 0.05714 0.71782 0.0
O446 O 0.23802 0.07127 0.73624 0.0
C447 C 0.32868 0.063 0.69733 0.0
O448 O 0.32001 0.05945 0.71986 0.0
C449 C 0.21562 0.13079 0.76067 0.0
C450 C 0.18276 0.15153 0.74747 0.0
C451 C 0.19875 0.14914 0.76763 0.0
N452 N 0.21002 0.12303 0.73756 0.0
N453 N 0.19002 0.13511 0.72991 0.0
C454 C 0.23905 0.12338 0.77389 0.0
H455 H 0.25306 0.11619 0.7606 0.0
H456 H 0.24697 0.13927 0.78441 0.0
H457 H 0.23481 0.10809 0.78707 0.0
C458 C 0.29981 0.13173 0.70143 0.0
N459 N 0.28204 0.11433 0.70426 0.0
N460 N 0.26189 0.12466 0.71348 0.0
C461 C 0.26637 0.14936 0.71638 0.0
C462 C 0.29061 0.15437 0.70906 0.0
C463 C 0.32482 0.12713 0.6903 0.0
H464 H 0.33511 0.11417 0.70255 0.0
H465 H 0.33591 0.14442 0.68845 0.0
H466 H 0.32246 0.11864 0.67167 0.0
O467 O 0.25434 0.07852 0.66715 0.0
O468 O 0.21954 0.0938 0.68414 0.0
H469 H 0.25282 0.18714 0.71625 0.0
H470 H 0.24583 0.16958 0.74372 0.0
C471 C 0.24734 0.16848 0.72319 0.0
H472 H 0.22903 0.16346 0.71523 0.0
H473 H 0.18242 0.13344 0.71214 0.0
O474 O 0.31447 0.07223 0.68077 0.0
C475 C 0.231 0.08315 0.66613 0.0
Co476 Co 0.178 0.02834 0.93705 0.0
Co477 Co 0.15393 0.98578 0.96959 0.0
C478 C 0.20503 0.00486 0.98047 0.0
O479 O 0.20363 0.0189 0.96154 0.0
O480 O 0.18637 0.99198 0.9875 0.0
C481 C 0.20367 0.07466 0.93346 0.0
O482 O 0.21635 0.0652 0.95206 0.0
C483 C 0.12524 0.97035 0.01293 0.0
C484 C 0.10492 0.93738 0.99943 0.0
C485 C 0.10652 0.95369 0.01938 0.0
N486 N 0.13363 0.96464 0.99004 0.0
N487 N 0.12172 0.94461 0.98224 0.0
C488 C 0.1349 0.99169 0.02799 0.0
H489 H 0.15498 0.99447 0.02427 0.0
H490 H 0.12509 0.00901 0.02259 0.0
H491 H 0.13202 0.98838 0.04817 0.0
C492 C 0.12959 0.05198 0.9471 0.0
N493 N 0.14595 0.03334 0.95088 0.0
N494 N 0.13479 0.01523 0.96294 0.0
C495 C 0.1106 0.0217 0.96641 0.0
C496 C 0.10677 0.0453 0.95669 0.0
C497 C 0.13525 0.07532 0.9333 0.0
H498 H 0.13989 0.07039 0.91383 0.0
H499 H 0.15136 0.08454 0.94219 0.0
H500 H 0.11938 0.08851 0.93333 0.0
O501 O 0.17725 1.00026 0.9131 0.0
O502 O 0.16382 0.96919 0.93743 0.0
H503 H 0.09416 0.98538 0.96895 0.0
H504 H 0.07204 0.0106 0.96819 0.0
C505 C 0.0905 0.00462 0.97529 0.0
H506 H 0.08969 0.00504 0.99585 0.0
H507 H 0.12407 0.9367 0.96467 0.0
O508 O 0.18816 0.06084 0.92208 0.0
C509 C 0.17244 0.97725 0.91671 0.0
Co510 Co 0.22784 0.9241 0.18446 0.0
Co511 Co 0.26822 0.90206 0.22011 0.0
C512 C 0.24924 0.95185 0.22983 0.0
O513 O 0.2372 0.9499 0.20957 0.0
O514 O 0.26118 0.93339 0.23869 0.0
C515 C 0.18008 0.933 0.19548 0.0
O516 O 0.19182 0.93089 0.21679 0.0
C517 C 0.28825 0.87583 0.2633 0.0
C518 C 0.31323 0.84831 0.24586 0.0
C519 C 0.30221 0.8546 0.26832 0.0
N520 N 0.2903 0.88121 0.23893 0.0
N521 N 0.30572 0.86501 0.22873 0.0
C522 C 0.27299 0.89089 0.28112 0.0
H523 H 0.25366 0.8927 0.27415 0.0
H524 H 0.27306 0.8829 0.30013 0.0
H525 H 0.2808 0.90997 0.28198 0.0
C526 C 0.20864 0.87392 0.18866 0.0
N527 N 0.22508 0.89135 0.19573 0.0
N528 N 0.23902 0.88274 0.21376 0.0
C529 C 0.23048 0.85981 0.21996 0.0
C530 C 0.21067 0.85381 0.20444 0.0
C531 C 0.19645 0.87347 0.16364 0.0
H532 H 0.19804 0.89163 0.15408 0.0
H533 H 0.17683 0.8675 0.16514 0.0
H534 H 0.20595 0.85932 0.15197 0.0
O535 O 0.25466 0.925 0.16008 0.0
O536 O 0.28422 0.91303 0.18706 0.0
H537 H 0.26009 0.83802 0.235 0.0
H538 H 0.22953 0.82689 0.2432 0.0
C539 C 0.24096 0.84376 0.24007 0.0
H540 H 0.24154 0.85445 0.25758 0.0
H541 H 0.30972 0.86428 0.20975 0.0
O542 O 0.19273 0.93244 0.17536 0.0
C543 C 0.27748 0.92098 0.1655 0.0
Co544 Co 0.06788 0.33032 0.02676 0.0
Co545 Co 0.03769 0.35415 0.98224 0.0
C546 C 0.02451 0.30391 1.00388 0.0
O547 O 0.04174 0.30586 0.01987 0.0
O548 O 0.02016 0.32126 0.98825 0.0
C549 C 0.07456 0.30385 0.07264 0.0
O550 O 0.05916 0.28786 0.06249 0.0
C551 C 0.99488 0.38365 0.96782 0.0
C552 C 0.00831 0.40432 0.93502 0.0
C553 C 0.98881 0.40321 0.95196 0.0
N554 N 0.01721 0.37446 0.96117 0.0
N555 N 0.0249 0.38654 0.94119 0.0
C556 C 0.98031 0.3742 0.98962 0.0
H557 H 0.98378 0.35404 0.99225 0.0
H558 H 0.98642 0.38387 0.00678 0.0
H559 H 0.9601 0.37744 0.98692 0.0
C560 C 0.05745 0.37906 0.0493 0.0
N561 N 0.05488 0.36262 0.03055 0.0
N562 N 0.04414 0.37365 0.01156 0.0
C563 C 0.04072 0.39796 0.01748 0.0
C564 C 0.04874 0.40189 0.04166 0.0
C565 C 0.06858 0.37328 0.074 0.0
H566 H 0.08885 0.37077 0.07138 0.0
H567 H 0.06021 0.35599 0.08139 0.0
H568 H 0.06544 0.3884 0.08767 0.0
O569 O 0.09157 0.32899 0.99805 0.0
O570 O 0.06977 0.34456 0.96612 0.0
H571 H 0.0402 0.41354 0.98066 0.0
H572 H 0.04171 0.43616 0.00535 0.0
C573 C 0.03358 0.41807 0.99962 0.0
H574 H 0.01312 0.42028 0.99958 0.0
H575 H 0.0422 0.38382 0.9328 0.0
O576 O 0.0833 0.32134 0.05928 0.0
C577 C 0.08946 0.33453 0.97498 0.0
Co578 Co 0.57287 0.17668 0.97877 0.0
Co579 Co 0.53878 0.15297 0.01984 0.0
C580 C 0.52762 0.20303 1.00037 0.0
O581 O 0.54747 0.20144 0.98779 0.0
O582 O 0.5197 0.18447 0.0128 0.0
C583 C 0.56306 0.18575 0.93133 0.0
O584 O 0.54212 0.17811 0.94136 0.0
C585 C 0.49456 0.12679 0.03816 0.0
C586 C 0.5104 0.1001 0.06499 0.0
C587 C 0.48864 0.1059 0.05235 0.0
N588 N 0.51884 0.13215 0.04134 0.0
N589 N 0.52803 0.11649 0.05791 0.0
C590 C 0.47755 0.14191 0.02211 0.0
H591 H 0.47998 0.16187 0.02656 0.0
H592 H 0.48262 0.13927 1.00227 0.0
H593 H 0.45775 0.13697 0.02517 0.0
C594 C 0.56915 0.12644 0.95778 0.0
N595 N 0.56241 0.14351 0.9749 0.0
N596 N 0.5467 0.13356 0.99075 0.0
C597 C 0.54237 0.1098 0.98352 0.0
C598 C 0.55621 0.10469 0.96225 0.0
C599 C 0.58829 0.13064 0.93793 0.0
H600 H 0.60089 0.14609 0.94307 0.0
H601 H 0.57884 0.13493 0.92014 0.0
H602 H 0.59972 0.11381 0.93488 0.0
O603 O 0.59685 0.17767 0.00617 0.0
O604 O 0.57122 0.16414 0.03634 0.0
H605 H 0.53442 0.08993 0.01695 0.0
H606 H 0.52781 0.07263 0.98916 0.0
C607 C 0.5272 0.09138 0.99774 0.0
H608 H 0.50772 0.09785 0.99832 0.0
H609 H 0.54671 0.11593 0.06316 0.0
O610 O 0.58228 0.18809 0.94506 0.0
C611 C 0.59228 0.17287 0.02904 0.0
Co612 Co 0.08226 0.32425 0.22754 0.0
Co613 Co 0.10552 0.28813 0.26701 0.0
C614 C 0.05535 0.27828 0.24883 0.0
O615 O 0.05681 0.29878 0.23713 0.0
O616 O 0.0742 0.26943 0.26012 0.0
C617 C 0.07182 0.31369 0.18002 0.0
O618 O 0.07455 0.29227 0.19143 0.0
C619 C 0.1315 0.24397 0.28595 0.0
C620 C 0.16011 0.26048 0.31028 0.0
C621 C 0.15292 0.23828 0.29934 0.0
N622 N 0.12689 0.26851 0.28812 0.0
N623 N 0.14378 0.27815 0.30314 0.0
C624 C 0.11542 0.22652 0.27136 0.0
H625 H 0.09611 0.22767 0.27854 0.0
H626 H 0.1149 0.23231 0.25156 0.0
H627 H 0.1219 0.207 0.27292 0.0
C628 C 0.13252 0.32131 0.20757 0.0
N629 N 0.11519 0.31361 0.22392 0.0
N630 N 0.12426 0.29567 0.23767 0.0
C631 C 0.14736 0.29025 0.22914 0.0
C632 C 0.15309 0.30609 0.20955 0.0
C633 C 0.13241 0.3464 0.19555 0.0
H634 H 0.11376 0.35508 0.19625 0.0
H635 H 0.13954 0.34532 0.17627 0.0
H636 H 0.14544 0.35864 0.20588 0.0
O637 O 0.08173 0.34802 0.25488 0.0
O638 O 0.09456 0.32078 0.28391 0.0
H639 H 0.17006 0.27503 0.25789 0.0
H640 H 0.17977 0.26648 0.22687 0.0
C641 C 0.16347 0.27004 0.23902 0.0
H642 H 0.15212 0.25303 0.24008 0.0
H643 H 0.14513 0.29706 0.30725 0.0
O644 O 0.07287 0.33369 0.1928 0.0
C645 C 0.0863 0.34236 0.27755 0.0
Co646 Co 0.93408 0.8282 0.47751 0.0
Co647 Co 0.96655 0.85202 0.52026 0.0
C648 C 0.97734 0.80121 0.50201 0.0
O649 O 0.95815 0.80279 0.48844 0.0
O650 O 0.98526 0.81998 0.51413 0.0
C651 C 0.9413 0.8101 0.43036 0.0
O652 O 0.96371 0.80969 0.44005 0.0
C653 C 0.01006 0.87981 0.53772 0.0
C654 C 0.99437 0.90389 0.56698 0.0
C655 C 0.01565 0.90015 0.55282 0.0
N656 N 0.98634 0.87283 0.54193 0.0
N657 N 0.97727 0.88695 0.5599 0.0
C658 C 0.02673 0.86696 0.51948 0.0
H659 H 0.02097 0.87185 0.50026 0.0
H660 H 0.04652 0.87202 0.52243 0.0
H661 H 0.02474 0.84654 0.52151 0.0
C662 C 0.94148 0.87756 0.45533 0.0
N663 N 0.94656 0.86068 0.4732 0.0
N664 N 0.95975 0.87128 0.49083 0.0
C665 C 0.96339 0.89543 0.48442 0.0
C666 C 0.95222 0.89993 0.46162 0.0
C667 C 0.92631 0.87257 0.43266 0.0
H668 H 0.91021 0.86064 0.43744 0.0
H669 H 0.93842 0.86309 0.41898 0.0
H670 H 0.91937 0.88988 0.42392 0.0
O671 O 0.90923 0.82869 0.50446 0.0
O672 O 0.93372 0.8413 0.53588 0.0
H673 H 0.96628 0.91359 0.51968 0.0
H674 H 0.97109 0.93387 0.49341 0.0
C675 C 0.97444 0.91489 0.50082 0.0
H676 H 0.99467 0.9119 0.50193 0.0
H677 H 0.95893 0.88609 0.56622 0.0
O678 O 0.92306 0.81678 0.44398 0.0
C679 C 0.91286 0.83311 0.52757 0.0
Co680 Co 0.92954 0.18584 0.22899 0.0
Co681 Co 0.90759 0.22098 0.26963 0.0
C682 C 0.95788 0.23027 0.25073 0.0
O683 O 0.95562 0.2102 0.23853 0.0
O684 O 0.93947 0.23934 0.2626 0.0
C685 C 0.94285 0.19438 0.18153 0.0
O686 O 0.94092 0.21651 0.19165 0.0
C687 C 0.88085 0.26428 0.28881 0.0
C688 C 0.85746 0.24777 0.31823 0.0
C689 C 0.86111 0.26958 0.30486 0.0
N690 N 0.88769 0.24041 0.29207 0.0
N691 N 0.87405 0.23083 0.31012 0.0
C692 C 0.89128 0.28042 0.26861 0.0
H693 H 0.90038 0.26891 0.25409 0.0
H694 H 0.87655 0.292 0.25997 0.0
H695 H 0.90549 0.29298 0.27673 0.0
C696 C 0.88016 0.19199 0.20782 0.0
N697 N 0.89718 0.19824 0.22504 0.0
N698 N 0.88775 0.21474 0.24034 0.0
C699 C 0.86441 0.22037 0.23231 0.0
C700 C 0.85922 0.20648 0.21103 0.0
C701 C 0.88158 0.16909 0.19207 0.0
H702 H 0.89695 0.15676 0.19811 0.0
H703 H 0.88407 0.17445 0.17242 0.0
H704 H 0.86378 0.15868 0.19325 0.0
O705 O 0.9293 0.16136 0.25573 0.0
O706 O 0.91796 0.18785 0.28587 0.0
H707 H 0.84519 0.23284 0.2649 0.0
H708 H 0.82821 0.23782 0.23641 0.0
C709 C 0.84692 0.2379 0.245 0.0
H710 H 0.85428 0.25702 0.24349 0.0
H711 H 0.87491 0.21227 0.31574 0.0
O712 O 0.93947 0.17519 0.19505 0.0
C713 C 0.92532 0.16626 0.27865 0.0
Co714 Co 0.43575 0.67425 0.52271 0.0
Co715 Co 0.47132 0.65418 0.48107 0.0
C716 C 0.47933 0.70412 0.50171 0.0
O717 O 0.45942 0.70129 0.5141 0.0
O718 O 0.48862 0.6862 0.4893 0.0
C719 C 0.44122 0.68788 0.57105 0.0
O720 O 0.46393 0.68798 0.56202 0.0
C721 C 0.51599 0.63059 0.46177 0.0
C722 C 0.50156 0.60706 0.43137 0.0
C723 C 0.5229 0.61198 0.44507 0.0
N724 N 0.49179 0.63592 0.45826 0.0
N725 N 0.4834 0.62222 0.43969 0.0
C726 C 0.53071 0.64075 0.48315 0.0
H727 H 0.51811 0.6466 0.49843 0.0
H728 H 0.54417 0.62683 0.4903 0.0
H729 H 0.54108 0.65744 0.47685 0.0
C730 C 0.44441 0.6245 0.54287 0.0
N731 N 0.44945 0.64211 0.52584 0.0
N732 N 0.46539 0.63329 0.50955 0.0
C733 C 0.47157 0.60975 0.51653 0.0
C734 C 0.45859 0.60373 0.53814 0.0
C735 C 0.42413 0.62606 0.5617 0.0
H736 H 0.40959 0.63934 0.55565 0.0
H737 H 0.43256 0.6319 0.57955 0.0
H738 H 0.4154 0.60758 0.56467 0.0
O739 O 0.4117 0.6742 0.49544 0.0
O740 O 0.43846 0.66445 0.46496 0.0
H741 H 0.48385 0.59177 0.48315 0.0
H742 H 0.49008 0.57428 0.51119 0.0
C743 C 0.48932 0.59315 0.50297 0.0
H744 H 0.50826 0.60101 0.50417 0.0
H745 H 0.46489 0.62198 0.43384 0.0
O746 O 0.42316 0.68325 0.55642 0.0
C747 C 0.4168 0.67126 0.47242 0.0
Co748 Co 0.07631 0.68429 0.27801 0.0
Co749 Co 0.10092 0.71757 0.2377 0.0
C750 C 0.05009 0.72868 0.25444 0.0
O751 O 0.0511 0.70888 0.2672 0.0
O752 O 0.06926 0.73669 0.24307 0.0
C753 C 0.06455 0.6947 0.32465 0.0
O754 O 0.06947 0.716 0.31376 0.0
C755 C 0.12715 0.76068 0.21896 0.0
C756 C 0.15128 0.74502 0.18962 0.0
C757 C 0.14637 0.76675 0.20268 0.0
N758 N 0.12134 0.73659 0.21576 0.0
N759 N 0.13546 0.72742 0.19786 0.0
C760 C 0.11662 0.77614 0.23963 0.0
H761 H 0.11004 0.76407 0.25504 0.0
H762 H 0.13061 0.7895 0.24683 0.0
H763 H 0.10032 0.78666 0.23258 0.0
C764 C 0.12502 0.69015 0.30165 0.0
N765 N 0.10893 0.696 0.28335 0.0
N766 N 0.11958 0.71128 0.26759 0.0
C767 C 0.14291 0.71622 0.27595 0.0
C768 C 0.14689 0.70325 0.29811 0.0
C769 C 0.121 0.66948 0.31995 0.0
H770 H 0.10845 0.65519 0.31197 0.0
H771 H 0.1124 0.67696 0.33712 0.0
H772 H 0.13894 0.66065 0.32514 0.0
O773 O 0.07704 0.65928 0.25155 0.0
O774 O 0.09077 0.68485 0.22161 0.0
H775 H 0.16316 0.72663 0.24322 0.0
H776 H 0.1798 0.73228 0.27184 0.0
C777 C 0.16128 0.73257 0.26286 0.0
H778 H 0.15456 0.75199 0.26329 0.0
H779 H 0.13531 0.70882 0.19232 0.0
O780 O 0.06446 0.67494 0.3115 0.0
C781 C 0.08231 0.6637 0.22878 0.0
Co782 Co 0.42719 0.32344 0.77504 0.0
Co783 Co 0.40247 0.28903 0.73551 0.0
C784 C 0.4527 0.2773 0.75336 0.0
O785 O 0.45168 0.29751 0.76551 0.0
O786 O 0.43366 0.26926 0.74175 0.0
C787 C 0.43673 0.3142 0.8222 0.0
O788 O 0.43078 0.29288 0.81188 0.0
C789 C 0.3748 0.24648 0.71622 0.0
C790 C 0.34721 0.26445 0.69168 0.0
C791 C 0.35325 0.24191 0.70265 0.0
N792 N 0.38061 0.27072 0.71408 0.0
N793 N 0.36439 0.28123 0.69888 0.0
C794 C 0.38959 0.22842 0.73144 0.0
H795 H 0.39044 0.23474 0.75106 0.0
H796 H 0.38191 0.20931 0.73044 0.0
H797 H 0.40898 0.2281 0.72438 0.0
C798 C 0.37765 0.31992 0.79771 0.0
N799 N 0.39412 0.31306 0.78007 0.0
N800 N 0.38388 0.29672 0.76516 0.0
C801 C 0.36056 0.29195 0.77361 0.0
C802 C 0.35593 0.30655 0.79454 0.0
C803 C 0.38145 0.34101 0.81549 0.0
H804 H 0.39565 0.35412 0.80829 0.0
H805 H 0.38763 0.33361 0.83372 0.0
H806 H 0.36372 0.35116 0.81855 0.0
O807 O 0.42765 0.34748 0.74775 0.0
O808 O 0.41372 0.32117 0.71856 0.0
H809 H 0.33729 0.27953 0.74388 0.0
H810 H 0.32658 0.27025 0.77437 0.0
C811 C 0.34324 0.27324 0.76258 0.0
H812 H 0.35302 0.25528 0.76083 0.0
H813 H 0.364 0.30021 0.69482 0.0
O814 O 0.43862 0.33348 0.80848 0.0
C815 C 0.42254 0.34239 0.7251 0.0
Co816 Co 0.52424 0.57039 0.82666 0.0
Co817 Co 0.48317 0.53673 0.84994 0.0
C818 C 0.50232 0.52548 0.80004 0.0
O819 O 0.51484 0.54534 0.80167 0.0
O820 O 0.49027 0.51722 0.81868 0.0
C821 C 0.57143 0.56023 0.81769 0.0
O822 O 0.56087 0.53912 0.82399 0.0
C823 C 0.46608 0.4935 0.87749 0.0
C824 C 0.43418 0.50786 0.89896 0.0
C825 C 0.44942 0.48715 0.89631 0.0
N826 N 0.46126 0.5169 0.86999 0.0
N827 N 0.44183 0.52522 0.88254 0.0
C828 C 0.48828 0.47903 0.86882 0.0
H829 H 0.50243 0.49164 0.86064 0.0
H830 H 0.49669 0.46837 0.88436 0.0
H831 H 0.48233 0.46571 0.85423 0.0
C832 C 0.5453 0.56641 0.87687 0.0
N833 N 0.52808 0.55979 0.85986 0.0
N834 N 0.51203 0.54437 0.86993 0.0
C835 C 0.51921 0.54015 0.89379 0.0
C836 C 0.54069 0.55372 0.89871 0.0
C837 C 0.56514 0.58556 0.87274 0.0
H838 H 0.55972 0.59856 0.8577 0.0
H839 H 0.5828 0.57617 0.86781 0.0
H840 H 0.5686 0.59648 0.88984 0.0
O841 O 0.49729 0.59476 0.82562 0.0
O842 O 0.46678 0.56919 0.83836 0.0
H843 H 0.48472 0.53056 0.91139 0.0
H844 H 0.51123 0.5299 0.93186 0.0
C845 C 0.5047 0.52578 0.91271 0.0
H846 H 0.50715 0.50563 0.90935 0.0
H847 H 0.43474 0.54321 0.88096 0.0
O848 O 0.55798 0.57967 0.81561 0.0
C849 C 0.47433 0.59027 0.82995 0.0
Co850 Co 0.68733 0.27622 0.07926 0.0
Co851 Co 0.72005 0.23401 0.10251 0.0
C852 C 0.73209 0.25451 0.05264 0.0
O853 O 0.71348 0.26883 0.05462 0.0
O854 O 0.73818 0.23998 0.07033 0.0
C855 C 0.69515 0.32427 0.07135 0.0
O856 O 0.71683 0.31478 0.07744 0.0
C857 C 0.76449 0.21687 0.12769 0.0
C858 C 0.75087 0.18654 0.15176 0.0
C859 C 0.7718 0.20087 0.14677 0.0
N860 N 0.74051 0.21236 0.12215 0.0
N861 N 0.73259 0.19384 0.13623 0.0
C862 C 0.77848 0.2386 0.11718 0.0
H863 H 0.76536 0.25321 0.11083 0.0
H864 H 0.79144 0.2466 0.1311 0.0
H865 H 0.78928 0.23237 0.10073 0.0
C866 C 0.69133 0.29661 0.12938 0.0
N867 N 0.69787 0.27947 0.11234 0.0
N868 N 0.71333 0.26338 0.12226 0.0
C869 C 0.71786 0.27061 0.14607 0.0
C870 C 0.70414 0.29206 0.15113 0.0
C871 C 0.67054 0.31494 0.12624 0.0
H872 H 0.65714 0.30839 0.11201 0.0
H873 H 0.67823 0.33319 0.12055 0.0
H874 H 0.66055 0.31768 0.14411 0.0
O875 O 0.66335 0.24873 0.07764 0.0
O876 O 0.68732 0.21783 0.09232 0.0
H877 H 0.72934 0.2378 0.16555 0.0
H878 H 0.73525 0.26634 0.18231 0.0
C879 C 0.73498 0.25753 0.16371 0.0
H880 H 0.75416 0.25835 0.15642 0.0
H881 H 0.71433 0.1873 0.13635 0.0
O882 O 0.67647 0.30981 0.06916 0.0
C883 C 0.66677 0.22583 0.08311 0.0
Co884 Co 0.98092 0.43245 0.32827 0.0
Co885 Co 0.02081 0.46788 0.35149 0.0
C886 C 1.00221 0.47758 0.30103 0.0
O887 O 0.98998 0.45751 0.30292 0.0
O888 O 0.01403 0.48635 0.31961 0.0
C889 C 0.93348 0.4403 0.31808 0.0
O890 O 0.94292 0.46197 0.32424 0.0
C891 C 0.04047 0.51232 0.37661 0.0
C892 C 0.06324 0.49573 0.40646 0.0
C893 C 0.05314 0.51809 0.39849 0.0
N894 N 0.04204 0.48762 0.37266 0.0
N895 N 0.05624 0.47794 0.39024 0.0
C896 C 0.02689 0.52974 0.35964 0.0
H897 H 0.00661 0.52603 0.36069 0.0
H898 H 0.03074 0.54946 0.36432 0.0
H899 H 0.0328 0.52629 0.34018 0.0
C900 C 0.95845 0.43796 0.37766 0.0
N901 N 0.97605 0.44407 0.36086 0.0
N902 N 0.99126 0.46053 0.37048 0.0
C903 C 0.98308 0.46603 0.39371 0.0
C904 C 0.96202 0.4519 0.39893 0.0
C905 C 0.94019 0.41715 0.37461 0.0
H906 H 0.94713 0.40335 0.36095 0.0
H907 H 0.92217 0.42477 0.36808 0.0
H908 H 0.93683 0.40775 0.39269 0.0
O909 O 0.0084 0.40874 0.3285 0.0
O910 O 0.03796 0.43534 0.34113 0.0
H911 H 0.01258 0.47816 0.41734 0.0
H912 H 0.98227 0.4895 0.42642 0.0
C913 C 0.99446 0.48507 0.41036 0.0
H914 H 0.9975 0.50222 0.39955 0.0
H915 H 0.05971 0.45894 0.39217 0.0
O916 O 0.94778 0.4214 0.31705 0.0
C917 C 0.03114 0.41383 0.33319 0.0
Co918 Co 0.81766 0.72791 0.57906 0.0
Co919 Co 0.78555 0.77095 0.60195 0.0
C920 C 0.7726 0.7495 0.55275 0.0
O921 O 0.79119 0.73523 0.55494 0.0
O922 O 0.76669 0.7645 0.57011 0.0
C923 C 0.80902 0.67966 0.57134 0.0
O924 O 0.78763 0.6892 0.57831 0.0
C925 C 0.74236 0.78871 0.62931 0.0
C926 C 0.75716 0.82037 0.65078 0.0
C927 C 0.73628 0.80538 0.64816 0.0
N928 N 0.76581 0.79324 0.62175 0.0
N929 N 0.77437 0.81256 0.63427 0.0
C930 C 0.72758 0.76668 0.62082 0.0
H931 H 0.73996 0.75244 0.61244 0.0
H932 H 0.71703 0.75839 0.63651 0.0
H933 H 0.71408 0.7728 0.60646 0.0
C934 C 0.81413 0.70839 0.62997 0.0
N935 N 0.80767 0.72526 0.61252 0.0
N936 N 0.79282 0.74202 0.62232 0.0
C937 C 0.7888 0.73565 0.64646 0.0
C938 C 0.80188 0.71396 0.65186 0.0
C939 C 0.83266 0.6879 0.62607 0.0
H940 H 0.84557 0.69254 0.61071 0.0
H941 H 0.82269 0.67039 0.62185 0.0
H942 H 0.8439 0.68456 0.64297 0.0
O943 O 0.84175 0.75552 0.57617 0.0
O944 O 0.81796 0.78668 0.5906 0.0
H945 H 0.78085 0.7709 0.66328 0.0
H946 H 0.77932 0.745 0.68443 0.0
C947 C 0.77525 0.75119 0.66516 0.0
H948 H 0.75496 0.74955 0.66207 0.0
H949 H 0.79247 0.8194 0.63268 0.0
O950 O 0.82771 0.69404 0.56867 0.0
C951 C 0.83828 0.77858 0.58099 0.0
Co952 Co 0.52594 0.43412 0.67447 0.0
Co953 Co 0.48522 0.4687 0.65147 0.0
C954 C 0.50345 0.4781 0.70241 0.0
O955 O 0.51625 0.45833 0.70068 0.0
O956 O 0.49145 0.48645 0.68373 0.0
C957 C 0.5736 0.43853 0.69115 0.0
O958 O 0.56509 0.46142 0.6917 0.0
C959 C 0.46769 0.51228 0.62467 0.0
C960 C 0.43849 0.49658 0.60047 0.0
C961 C 0.45255 0.51791 0.60433 0.0
N962 N 0.46342 0.48859 0.63152 0.0
N963 N 0.44545 0.47952 0.61745 0.0
C964 C 0.4882 0.52768 0.63561 0.0
H965 H 0.50199 0.51567 0.64517 0.0
H966 H 0.49776 0.53884 0.62113 0.0
H967 H 0.48015 0.54062 0.64953 0.0
C968 C 0.54934 0.44246 0.62595 0.0
N969 N 0.53111 0.44744 0.64239 0.0
N970 N 0.515 0.46275 0.63225 0.0
C971 C 0.5232 0.46852 0.60899 0.0
C972 C 0.5456 0.45622 0.6046 0.0
C973 C 0.56785 0.422 0.62891 0.0
H974 H 0.55993 0.40686 0.64046 0.0
H975 H 0.58462 0.42972 0.63794 0.0
H976 H 0.57343 0.41426 0.6106 0.0
O977 O 0.49876 0.40999 0.67317 0.0
O978 O 0.46856 0.43599 0.66104 0.0
H979 H 0.48999 0.47899 0.58961 0.0
H980 H 0.51802 0.4841 0.57201 0.0
C981 C 0.50972 0.48475 0.59083 0.0
H982 H 0.51081 0.50426 0.5971 0.0
H983 H 0.43926 0.46115 0.6182 0.0
O984 O 0.55876 0.42104 0.68527 0.0
C985 C 0.4759 0.41457 0.66861 0.0
Co986 Co 0.81929 0.27571 0.92506 0.0
Co987 Co 0.78603 0.23227 0.90385 0.0
C988 C 0.77559 0.25351 0.95358 0.0
O989 O 0.79419 0.26775 0.95085 0.0
O990 O 0.7687 0.23892 0.93625 0.0
C991 C 0.8107 0.32396 0.93573 0.0
O992 O 0.78871 0.31356 0.9336 0.0
C993 C 0.74164 0.21264 0.88005 0.0
C994 C 0.75626 0.18257 0.85623 0.0
C995 C 0.73477 0.19596 0.86141 0.0
N996 N 0.76593 0.20939 0.88519 0.0
N997 N 0.77445 0.19102 0.87128 0.0
C998 C 0.72673 0.23378 0.89045 0.0
H999 H 0.73919 0.24914 0.89635 0.0
H1000 H 0.71314 0.24088 0.87662 0.0
H1001 H 0.7165 0.22726 0.90714 0.0
C1002 C 0.81232 0.29485 0.87484 0.0
N1003 N 0.80703 0.27784 0.89239 0.0
N1004 N 0.79155 0.26128 0.88331 0.0
C1005 C 0.7858 0.26812 0.85961 0.0
C1006 C 0.79866 0.28988 0.85376 0.0
C1007 C 0.83245 0.31386 0.8768 0.0
H1008 H 0.84651 0.30823 0.89078 0.0
H1009 H 0.82385 0.33184 0.88192 0.0
H1010 H 0.84186 0.31642 0.85858 0.0
O1011 O 0.84376 0.24836 0.92676 0.0
O1012 O 0.81914 0.21709 0.91416 0.0
H1013 H 0.77451 0.23472 0.8411 0.0
H1014 H 0.76748 0.26285 0.82403 0.0
C1015 C 0.76846 0.25434 0.84277 0.0
H1016 H 0.7495 0.25484 0.85067 0.0
H1017 H 0.79302 0.18536 0.87089 0.0
O1018 O 0.82999 0.31026 0.93378 0.0
C1019 C 0.83994 0.22524 0.92261 0.0
Co1020 Co 0.97792 0.57335 0.17973 0.0
Co1021 Co 0.01656 0.53862 0.15361 0.0
C1022 C 0.99958 0.52693 0.20431 0.0
O1023 O 0.9876 0.54725 0.2038 0.0
O1024 O 0.01064 0.51892 0.18491 0.0
C1025 C 0.93079 0.56542 0.19073 0.0
O1026 O 0.94025 0.54378 0.18443 0.0
C1027 C 0.03405 0.49515 0.12557 0.0
C1028 C 0.06009 0.5119 0.09859 0.0
C1029 C 0.0481 0.48986 0.10449 0.0
N1030 N 0.03694 0.51937 0.13128 0.0
N1031 N 0.05292 0.52914 0.11534 0.0
C1032 C 0.01809 0.47766 0.14024 0.0
H1033 H 0.99874 0.4848 0.14106 0.0
H1034 H 0.01834 0.45858 0.13239 0.0
H1035 H 0.02509 0.47691 0.15963 0.0
C1036 C 0.9539 0.57057 0.13101 0.0
N1037 N 0.97191 0.56332 0.14687 0.0
N1038 N 0.98663 0.54727 0.1359 0.0
C1039 C 0.97771 0.54318 0.11267 0.0
C1040 C 0.95645 0.55753 0.109 0.0
C1041 C 0.93686 0.5922 0.13541 0.0
H1042 H 0.94545 0.60555 0.14858 0.0
H1043 H 0.91906 0.58556 0.14336 0.0
H1044 H 0.93262 0.60186 0.11765 0.0
O1045 O 0.00553 0.59673 0.17942 0.0
O1046 O 0.03443 0.57041 0.16471 0.0
H1047 H 0.00776 0.53189 0.08927 0.0
H1048 H 0.97738 0.52343 0.0775 0.0
C1049 C 0.98886 0.52551 0.09449 0.0
H1050 H 0.99027 0.50726 0.10365 0.0
H1051 H 0.05787 0.5479 0.11504 0.0
O1052 O 0.94514 0.58426 0.19197 0.0
C1053 C 0.02803 0.59161 0.17371 0.0
Co1054 Co 0.68429 0.72786 0.42685 0.0
Co1055 Co 0.71762 0.76933 0.40344 0.0
C1056 C 0.7291 0.74977 0.4536 0.0
O1057 O 0.71001 0.73619 0.45139 0.0
O1058 O 0.7361 0.76379 0.43581 0.0
C1059 C 0.69404 0.68067 0.43631 0.0
O1060 O 0.71506 0.69072 0.42894 0.0
C1061 C 0.7607 0.78748 0.37605 0.0
C1062 C 0.74471 0.81718 0.35267 0.0
C1063 C 0.76625 0.80334 0.35624 0.0
N1064 N 0.73695 0.79131 0.38303 0.0
N1065 N 0.72766 0.80948 0.36937 0.0
C1066 C 0.77635 0.76689 0.38648 0.0
H1067 H 0.76449 0.7528 0.3958 0.0
H1068 H 0.7875 0.75779 0.3717 0.0
H1069 H 0.78928 0.77473 0.40052 0.0
C1070 C 0.68869 0.70645 0.37742 0.0
N1071 N 0.69519 0.72399 0.39401 0.0
N1072 N 0.71097 0.73964 0.38393 0.0
C1073 C 0.71567 0.73174 0.36035 0.0
C1074 C 0.70201 0.71011 0.35572 0.0
C1075 C 0.66721 0.68899 0.38091 0.0
H1076 H 0.6533 0.69724 0.39374 0.0
H1077 H 0.67383 0.67127 0.38904 0.0
H1078 H 0.6582 0.68475 0.36282 0.0
O1079 O 0.65996 0.75493 0.42774 0.0
O1080 O 0.68473 0.78535 0.41349 0.0
H1081 H 0.72703 0.76452 0.34077 0.0
H1082 H 0.73201 0.73615 0.32359 0.0
C1083 C 0.73245 0.7447 0.3423 0.0
H1084 H 0.75181 0.7435 0.34905 0.0
H1085 H 0.70924 0.81553 0.37035 0.0
O1086 O 0.67462 0.69423 0.43792 0.0
C1087 C 0.66384 0.77774 0.42226 0.0
Co1088 Co 0.83052 0.52507 0.5707 0.0
Co1089 Co 0.854 0.48349 0.53749 0.0
C1090 C 0.80416 0.50329 0.52574 0.0
O1091 O 0.80557 0.51623 0.54537 0.0
O1092 O 0.82272 0.49059 0.51828 0.0
C1093 C 0.81935 0.57283 0.56289 0.0
O1094 O 0.826 0.56394 0.54112 0.0
C1095 C 0.88088 0.4659 0.49397 0.0
C1096 C 0.90228 0.43397 0.50837 0.0
C1097 C 0.89934 0.44895 0.48752 0.0
N1098 N 0.87377 0.46147 0.51756 0.0
N1099 N 0.88625 0.44202 0.52592 0.0
C1100 C 0.87227 0.48794 0.47926 0.0
H1101 H 0.86441 0.50237 0.49175 0.0
H1102 H 0.8878 0.49596 0.46826 0.0
H1103 H 0.85748 0.48194 0.46618 0.0
C1104 C 0.88072 0.54651 0.56557 0.0
N1105 N 0.86362 0.52918 0.55949 0.0
N1106 N 0.87384 0.51238 0.54494 0.0
C1107 C 0.8979 0.51895 0.54099 0.0
C1108 C 0.90287 0.54081 0.55381 0.0
C1109 C 0.87617 0.5679 0.58286 0.0
H1110 H 0.86259 0.56262 0.59745 0.0
H1111 H 0.8688 0.58381 0.57205 0.0
H1112 H 0.89349 0.57433 0.5919 0.0
O1113 O 0.82958 0.49761 0.59488 0.0
O1114 O 0.84283 0.46709 0.56972 0.0
H1115 H 0.91514 0.48389 0.5331 0.0
H1116 H 0.93597 0.51008 0.5314 0.0
C1117 C 0.91677 0.50361 0.52745 0.0
H1118 H 0.91354 0.50514 0.50716 0.0
H1119 H 0.88489 0.43516 0.54403 0.0
O1120 O 0.81891 0.55822 0.58157 0.0
C1121 C 0.83412 0.47465 0.59064 0.0
Co1122 Co 0.72632 0.57496 0.81894 0.0
Co1123 Co 0.76898 0.5998 0.78749 0.0
C1124 C 0.74841 0.55036 0.77323 0.0
O1125 O 0.73402 0.55167 0.79182 0.0
O1126 O 0.76325 0.56809 0.76806 0.0
C1127 C 0.67861 0.56552 0.81052 0.0
O1128 O 0.68796 0.57302 0.78922 0.0
C1129 C 0.78679 0.62759 0.74411 0.0
C1130 C 0.81402 0.65349 0.76052 0.0
C1131 C 0.80094 0.64868 0.73879 0.0
N1132 N 0.7904 0.62121 0.76809 0.0
N1133 N 0.80721 0.6364 0.7776 0.0
C1134 C 0.77014 0.61341 0.72689 0.0
H1135 H 0.75043 0.61666 0.73214 0.0
H1136 H 0.77325 0.61875 0.7072 0.0
H1137 H 0.77383 0.59323 0.72886 0.0
C1138 C 0.70516 0.62535 0.81613 0.0
N1139 N 0.72259 0.60846 0.8096 0.0
N1140 N 0.73929 0.61897 0.79516 0.0
C1141 C 0.73235 0.64298 0.79157 0.0
C1142 C 0.7104 0.64762 0.80446 0.0
C1143 C 0.68427 0.62064 0.83399 0.0
H1144 H 0.68924 0.60567 0.84724 0.0
H1145 H 0.66739 0.61534 0.82343 0.0
H1146 H 0.67964 0.63755 0.84477 0.0
O1147 O 0.75401 0.57261 0.84289 0.0
O1148 O 0.78508 0.58848 0.81987 0.0
H1149 H 0.73904 0.68094 0.77985 0.0
H1150 H 0.74837 0.65709 0.75837 0.0
C1151 C 0.74737 0.66213 0.77822 0.0
H1152 H 0.76638 0.66266 0.78607 0.0
H1153 H 0.81279 0.63617 0.79619 0.0
O1154 O 0.69301 0.56349 0.82927 0.0
C1155 C 0.77692 0.57835 0.83993 0.0
Co1156 Co 0.67643 0.47899 0.06965 0.0
Co1157 Co 0.65253 0.52028 0.03577 0.0
C1158 C 0.70258 0.50062 0.02422 0.0
O1159 O 0.70062 0.48685 0.04327 0.0
O1160 O 0.68472 0.51468 0.01745 0.0
C1161 C 0.68596 0.431 0.0628 0.0
O1162 O 0.67929 0.4397 0.04095 0.0
C1163 C 0.62681 0.54045 0.99176 0.0
C1164 C 0.59684 0.56257 0.009 0.0
C1165 C 0.60473 0.55298 0.98638 0.0
N1166 N 0.63096 0.54161 0.01647 0.0
N1167 N 0.61329 0.55543 0.02654 0.0
C1168 C 0.64379 0.52739 0.97396 0.0
H1169 H 0.64293 0.50703 0.97724 0.0
H1170 H 0.63895 0.53163 0.95435 0.0
H1171 H 0.66323 0.53336 0.97745 0.0
C1172 C 0.62688 0.45728 0.06518 0.0
N1173 N 0.64364 0.47482 0.05895 0.0
N1174 N 0.6339 0.49024 0.04272 0.0
C1175 C 0.61065 0.48206 0.03729 0.0
C1176 C 0.60553 0.46091 0.05138 0.0
C1177 C 0.63004 0.43909 0.08606 0.0
H1178 H 0.64382 0.44603 0.09974 0.0
H1179 H 0.63644 0.42101 0.0785 0.0
H1180 H 0.61202 0.43586 0.09564 0.0
O1181 O 0.67744 0.50661 0.09325 0.0
O1182 O 0.66283 0.53684 0.06844 0.0
H1183 H 0.58662 0.51124 0.02512 0.0
H1184 H 0.57831 0.4809 0.01334 0.0
C1185 C 0.59405 0.49334 0.01813 0.0
H1186 H 0.60503 0.49676 1.00115 0.0
H1187 H 0.61147 0.55853 0.04561 0.0
O1188 O 0.68743 0.44595 0.08114 0.0
C1189 C 0.67191 0.52937 0.08926 0.0
Co1190 Co 0.77855 0.42783 0.31816 0.0
Co1191 Co 0.73644 0.404 0.28586 0.0
C1192 C 0.75585 0.45407 0.2734 0.0
O1193 O 0.7703 0.45226 0.29194 0.0
O1194 O 0.7416 0.43615 0.26729 0.0
C1195 C 0.82642 0.43587 0.30938 0.0
O1196 O 0.81647 0.43009 0.28783 0.0
C1197 C 0.71694 0.37682 0.24324 0.0
C1198 C 0.68809 0.35309 0.26025 0.0
C1199 C 0.70101 0.35696 0.23819 0.0
N1200 N 0.71404 0.38354 0.26717 0.0
N1201 N 0.69634 0.36969 0.27709 0.0
C1202 C 0.73678 0.38753 0.22682 0.0
H1203 H 0.75124 0.39693 0.23814 0.0
H1204 H 0.74561 0.37287 0.21528 0.0
H1205 H 0.72828 0.40151 0.21424 0.0
C1206 C 0.79955 0.37789 0.31417 0.0
N1207 N 0.78211 0.3947 0.30774 0.0
N1208 N 0.76618 0.38463 0.29224 0.0
C1209 C 0.77381 0.36097 0.28758 0.0
C1210 C 0.79535 0.35614 0.30125 0.0
C1211 C 0.81785 0.3812 0.33494 0.0
H1212 H 0.81127 0.39552 0.34823 0.0
H1213 H 0.83611 0.3868 0.32722 0.0
H1214 H 0.82059 0.3634 0.34505 0.0
O1215 O 0.75143 0.42942 0.34267 0.0
O1216 O 0.72084 0.41441 0.31863 0.0
H1217 H 0.74154 0.34049 0.27639 0.0
H1218 H 0.77061 0.32505 0.2694 0.0
C1219 C 0.76105 0.34327 0.27033 0.0
H1220 H 0.76113 0.3511 0.25136 0.0
H1221 H 0.69104 0.37048 0.29574 0.0
O1222 O 0.8123 0.43811 0.32833 0.0
C1223 C 0.72857 0.42385 0.33913 0.0
Co1224 Co 0.83129 0.47825 0.93988 0.0
Co1225 Co 0.85139 0.52487 0.96955 0.0
C1226 C 0.8021 0.50066 0.98163 0.0
O1227 O 0.80546 0.48423 0.96504 0.0
O1228 O 0.81847 0.51726 0.98603 0.0
C1229 C 0.80613 0.43181 0.93175 0.0
O1230 O 0.78811 0.44263 0.9442 0.0
C1231 C 0.87553 0.54318 0.01406 0.0
C1232 C 0.89447 0.57738 1.0016 0.0
C1233 C 0.89205 0.56149 0.02182 0.0
N1234 N 0.86867 0.54799 0.99049 0.0
N1235 N 0.87969 0.56873 0.98326 0.0
C1236 C 0.86899 0.51955 0.02733 0.0
H1237 H 0.8638 0.50484 0.01385 0.0
H1238 H 0.88471 0.51307 0.03905 0.0
H1239 H 0.85264 0.52293 0.03946 0.0
C1240 C 0.88099 0.45933 0.95183 0.0
N1241 N 0.86336 0.47696 0.95398 0.0
N1242 N 0.87295 0.49668 0.96474 0.0
C1243 C 0.89751 0.4923 0.96885 0.0
C1244 C 0.90322 0.46844 0.96074 0.0
C1245 C 0.87698 0.43438 0.94052 0.0
H1246 H 0.87432 0.43691 0.92024 0.0
H1247 H 0.86019 0.42579 0.94884 0.0
H1248 H 0.89298 0.42172 0.94366 0.0
O1249 O 0.82878 0.50616 0.91537 0.0
O1250 O 0.84179 0.53948 0.93671 0.0
H1251 H 0.91106 0.52981 0.97029 0.0
H1252 H 0.93503 0.50623 0.97206 0.0
C1253 C 0.91582 0.51122 0.97779 0.0
H1254 H 0.9153 0.51195 0.99839 0.0
H1255 H 0.87833 0.57614 0.96536 0.0
O1256 O 0.82478 0.44478 0.92512 0.0
C1257 C 0.83282 0.52956 0.91701 0.0
Co1258 Co 0.77601 0.57967 0.18409 0.0
Co1259 Co 0.73378 0.60258 0.21688 0.0
C1260 C 0.75424 0.55277 0.22885 0.0
O1261 O 0.7683 0.5549 0.21006 0.0
O1262 O 0.73985 0.57045 0.2353 0.0
C1263 C 0.82358 0.57233 0.1938 0.0
O1264 O 0.81293 0.57834 0.21496 0.0
C1265 C 0.71528 0.6278 0.26076 0.0
C1266 C 0.68483 0.65126 0.24629 0.0
C1267 C 0.69865 0.64652 0.26761 0.0
N1268 N 0.71153 0.62217 0.23668 0.0
N1269 N 0.69299 0.6359 0.22823 0.0
C1270 C 0.73676 0.61765 0.27536 0.0
H1271 H 0.75186 0.61157 0.26266 0.0
H1272 H 0.74414 0.63168 0.28856 0.0
H1273 H 0.73052 0.60106 0.28593 0.0
C1274 C 0.79613 0.6299 0.1881 0.0
N1275 N 0.779 0.61283 0.19458 0.0
N1276 N 0.76298 0.62262 0.21019 0.0
C1277 C 0.77021 0.64642 0.21481 0.0
C1278 C 0.79163 0.65161 0.20102 0.0
C1279 C 0.8146 0.62672 0.16743 0.0
H1280 H 0.80815 0.61242 0.15406 0.0
H1281 H 0.83281 0.62106 0.17524 0.0
H1282 H 0.81738 0.64456 0.1574 0.0
O1283 O 0.74873 0.57774 0.15976 0.0
O1284 O 0.71799 0.59204 0.18416 0.0
H1285 H 0.7374 0.66583 0.22646 0.0
H1286 H 0.76602 0.68245 0.23259 0.0
C1287 C 0.75713 0.66389 0.2321 0.0
H1288 H 0.75785 0.65635 0.2512 0.0
H1289 H 0.68691 0.63584 0.2098 0.0
O1290 O 0.8101 0.56984 0.17441 0.0
C1291 C 0.72579 0.58286 0.16352 0.0
Co1292 Co 0.68072 0.52701 0.43267 0.0
Co1293 Co 0.65638 0.4875 0.46704 0.0
C1294 C 0.70731 0.50408 0.47706 0.0
O1295 O 0.70606 0.51631 0.45697 0.0
O1296 O 0.68814 0.49337 0.48593 0.0
C1297 C 0.69181 0.57353 0.44308 0.0
O1298 O 0.68708 0.56248 0.46436 0.0
C1299 C 0.62997 0.47044 0.51093 0.0
C1300 C 0.60687 0.43961 0.4968 0.0
C1301 C 0.61116 0.45395 0.51787 0.0
N1302 N 0.63606 0.46612 0.48705 0.0
N1303 N 0.62252 0.44736 0.47881 0.0
C1304 C 0.64006 0.49212 0.52527 0.0
H1305 H 0.64667 0.50682 0.51238 0.0
H1306 H 0.62579 0.49997 0.53796 0.0
H1307 H 0.6563 0.4859 0.53637 0.0
C1308 C 0.63214 0.55039 0.43744 0.0
N1309 N 0.64819 0.53238 0.44416 0.0
N1310 N 0.63756 0.51725 0.46005 0.0
C1311 C 0.61424 0.5259 0.46467 0.0
C1312 C 0.61029 0.54754 0.45076 0.0
C1313 C 0.63614 0.56733 0.41563 0.0
H1314 H 0.64849 0.55833 0.40176 0.0
H1315 H 0.64505 0.5848 0.42189 0.0
H1316 H 0.61817 0.57216 0.40666 0.0
O1317 O 0.67976 0.50055 0.40809 0.0
O1318 O 0.66673 0.47075 0.4343 0.0
H1319 H 0.59439 0.49356 0.47694 0.0
H1320 H 0.57726 0.5222 0.48075 0.0
C1321 C 0.59591 0.51356 0.48165 0.0
H1322 H 0.60242 0.51532 0.50106 0.0
H1323 H 0.62299 0.44078 0.46056 0.0
O1324 O 0.69228 0.56047 0.42326 0.0
C1325 C 0.67475 0.47782 0.41289 0.0
Co1326 Co 0.72931 0.42283 0.68318 0.0
Co1327 Co 0.77099 0.40249 0.71853 0.0
C1328 C 0.74949 0.45202 0.7279 0.0
O1329 O 0.73619 0.44882 0.70865 0.0
O1330 O 0.76399 0.43495 0.73564 0.0
C1331 C 0.68075 0.43152 0.69102 0.0
O1332 O 0.69042 0.42828 0.71321 0.0
C1333 C 0.78946 0.37652 0.76231 0.0
C1334 C 0.81853 0.35229 0.74641 0.0
C1335 C 0.80472 0.35624 0.7679 0.0
N1336 N 0.79343 0.38323 0.73851 0.0
N1337 N 0.81133 0.36914 0.72932 0.0
C1338 C 0.76911 0.38753 0.7779 0.0
H1339 H 0.75512 0.39691 0.76598 0.0
H1340 H 0.75976 0.37315 0.78937 0.0
H1341 H 0.77729 0.40159 0.79059 0.0
C1342 C 0.71123 0.3723 0.68807 0.0
N1343 N 0.7273 0.39018 0.69488 0.0
N1344 N 0.742 0.38191 0.71252 0.0
C1345 C 0.73428 0.35858 0.71864 0.0
C1346 C 0.71414 0.35222 0.70368 0.0
C1347 C 0.69932 0.37096 0.66294 0.0
H1348 H 0.69813 0.38941 0.65397 0.0
H1349 H 0.68091 0.36181 0.66399 0.0
H1350 H 0.71106 0.35903 0.65084 0.0
O1351 O 0.75676 0.42451 0.65942 0.0
O1352 O 0.78708 0.41242 0.68545 0.0
H1353 H 0.76644 0.34009 0.73298 0.0
H1354 H 0.738 0.32309 0.73747 0.0
C1355 C 0.74639 0.3419 0.73729 0.0
H1356 H 0.74402 0.34985 0.75607 0.0
H1357 H 0.81725 0.36972 0.71084 0.0
O1358 O 0.69492 0.43088 0.67199 0.0
C1359 C 0.77969 0.42031 0.66412 0.0
Co1360 Co 0.57239 0.82721 0.52638 0.0
Co1361 Co 0.53758 0.8522 0.48701 0.0
C1362 C 0.52621 0.80191 0.50467 0.0
O1363 O 0.54638 0.80297 0.51687 0.0
O1364 O 0.51805 0.82092 0.49307 0.0
C1365 C 0.56429 0.81694 0.57375 0.0
O1366 O 0.54273 0.82355 0.56432 0.0
C1367 C 0.49443 0.87946 0.46745 0.0
C1368 C 0.51252 0.90915 0.44561 0.0
C1369 C 0.48975 0.90186 0.45528 0.0
N1370 N 0.51896 0.87452 0.46605 0.0
N1371 N 0.52954 0.89203 0.4524 0.0
C1372 C 0.47614 0.86294 0.48042 0.0
H1373 H 0.47861 0.84358 0.47375 0.0
H1374 H 0.4799 0.86296 0.50072 0.0
H1375 H 0.45668 0.86879 0.47681 0.0
C1376 C 0.56889 0.8765 0.54929 0.0
N1377 N 0.56199 0.86006 0.53167 0.0
N1378 N 0.54556 0.87029 0.51684 0.0
C1379 C 0.54077 0.89352 0.52534 0.0
C1380 C 0.55547 0.89818 0.54613 0.0
C1381 C 0.58992 0.87262 0.56715 0.0
H1382 H 0.60316 0.85857 0.55987 0.0
H1383 H 0.58242 0.86619 0.58525 0.0
H1384 H 0.59996 0.89036 0.57045 0.0
O1385 O 0.59606 0.82707 0.49894 0.0
O1386 O 0.56968 0.84107 0.46978 0.0
H1387 H 0.52822 0.91816 0.49684 0.0
H1388 H 0.51722 0.9261 0.52759 0.0
C1389 C 0.52157 0.91052 0.51479 0.0
H1390 H 0.50445 0.89973 0.51166 0.0
H1391 H 0.54865 0.89325 0.4492 0.0
O1392 O 0.58312 0.81538 0.55939 0.0
C1393 C 0.59093 0.83228 0.47633 0.0
Co1394 Co 0.06989 0.6779 0.4792 0.0
Co1395 Co 0.03701 0.65362 0.52055 0.0
C1396 C 0.02509 0.70385 0.50238 0.0
O1397 O 0.04461 0.70252 0.48923 0.0
O1398 O 0.01752 0.68508 0.5147 0.0
C1399 C 0.05968 0.68774 0.43187 0.0
O1400 O 0.03873 0.67991 0.44174 0.0
C1401 C 0.99453 0.62602 0.54042 0.0
C1402 C 0.01236 0.60043 0.5671 0.0
C1403 C 0.98995 0.60524 0.55521 0.0
N1404 N 0.01863 0.63242 0.54274 0.0
N1405 N 0.02903 0.61742 0.55921 0.0
C1406 C 0.97654 0.63966 0.52408 0.0
H1407 H 0.97885 0.65995 0.52676 0.0
H1408 H 0.98057 0.63551 0.50428 0.0
H1409 H 0.957 0.63468 0.52845 0.0
C1410 C 0.06585 0.62796 0.45756 0.0
N1411 N 0.05933 0.64478 0.475 0.0
N1412 N 0.04383 0.6346 0.49091 0.0
C1413 C 0.03923 0.61099 0.48328 0.0
C1414 C 0.05289 0.60619 0.46181 0.0
C1415 C 0.08502 0.63227 0.43778 0.0
H1416 H 0.09765 0.64766 0.44304 0.0
H1417 H 0.07561 0.63671 0.42 0.0
H1418 H 0.09637 0.61538 0.43463 0.0
O1419 O 0.09471 0.67846 0.50575 0.0
O1420 O 0.06979 0.66462 0.53626 0.0
H1421 H 0.03102 0.59088 0.51659 0.0
H1422 H 0.02511 0.57362 0.48859 0.0
C1423 C 0.02408 0.59231 0.49727 0.0
H1424 H 0.00439 0.59832 0.49762 0.0
H1425 H 0.04789 0.6177 0.5638 0.0
O1426 O 0.07889 0.6898 0.44563 0.0
C1427 C 0.0907 0.67329 0.52862 0.0
Co1428 Co 0.57708 0.81929 0.72876 0.0
Co1429 Co 0.60025 0.78593 0.77089 0.0
C1430 C 0.55091 0.77363 0.74987 0.0
O1431 O 0.55301 0.79274 0.73624 0.0
O1432 O 0.56844 0.76709 0.76443 0.0
C1433 C 0.56991 0.81043 0.68092 0.0
O1434 O 0.57611 0.7891 0.6911 0.0
C1435 C 0.62564 0.74175 0.7908 0.0
C1436 C 0.65468 0.75835 0.81453 0.0
C1437 C 0.64725 0.73603 0.80395 0.0
N1438 N 0.6213 0.76639 0.7926 0.0
N1439 N 0.63842 0.77606 0.80735 0.0
C1440 C 0.60939 0.72434 0.77639 0.0
H1441 H 0.61074 0.72868 0.75625 0.0
H1442 H 0.61447 0.70463 0.77977 0.0
H1443 H 0.58974 0.72715 0.78202 0.0
C1444 C 0.62737 0.81569 0.70853 0.0
N1445 N 0.61028 0.8093 0.72574 0.0
N1446 N 0.6199 0.7933 0.74146 0.0
C1447 C 0.64349 0.78831 0.73388 0.0
C1448 C 0.64885 0.80228 0.71269 0.0
C1449 C 0.62433 0.83642 0.69014 0.0
H1450 H 0.60994 0.84976 0.6965 0.0
H1451 H 0.6189 0.82868 0.67183 0.0
H1452 H 0.64222 0.84643 0.68757 0.0
O1453 O 0.57457 0.84304 0.75629 0.0
O1454 O 0.58868 0.81853 0.78709 0.0
H1455 H 0.66664 0.77711 0.76412 0.0
H1456 H 0.6768 0.76567 0.73417 0.0
C1457 C 0.66034 0.76985 0.7459 0.0
H1458 H 0.64987 0.7525 0.74885 0.0
H1459 H 0.64004 0.79503 0.81111 0.0
O1460 O 0.56716 0.82944 0.69485 0.0
C1461 C 0.57933 0.83912 0.77927 0.0
Co1462 Co 0.43565 0.32797 0.97718 0.0
Co1463 Co 0.46982 0.35061 0.01812 0.0
C1464 C 0.48043 0.30071 0.99894 0.0
O1465 O 0.46063 0.30263 0.98628 0.0
O1466 O 0.48889 0.3192 0.01108 0.0
C1467 C 0.44378 0.31888 0.92937 0.0
O1468 O 0.46548 0.32498 0.93881 0.0
C1469 C 0.51278 0.37725 0.03774 0.0
C1470 C 0.49602 0.40078 0.0669 0.0
C1471 C 0.51798 0.39683 0.05387 0.0
N1472 N 0.48881 0.37062 0.04066 0.0
N1473 N 0.47905 0.38436 0.05854 0.0
C1474 C 0.52912 0.36699 0.01761 0.0
H1475 H 0.51773 0.35841 1.00271 0.0
H1476 H 0.54104 0.38175 0.00949 0.0
H1477 H 0.54136 0.35245 0.02565 0.0
C1478 C 0.44067 0.3779 0.95598 0.0
N1479 N 0.44691 0.36088 0.97329 0.0
N1480 N 0.46262 0.37067 0.9892 0.0
C1481 C 0.46741 0.39438 0.98185 0.0
C1482 C 0.45373 0.39953 0.96042 0.0
C1483 C 0.42027 0.37474 0.93726 0.0
H1484 H 0.40661 0.36069 0.94368 0.0
H1485 H 0.42837 0.36875 0.91927 0.0
H1486 H 0.41052 0.39266 0.93405 0.0
O1487 O 0.41141 0.32699 0.00416 0.0
O1488 O 0.43749 0.33902 0.0344 0.0
H1489 H 0.47889 0.41417 0.01444 0.0
H1490 H 0.48542 0.43031 0.98567 0.0
C1491 C 0.48474 0.41186 0.99481 0.0
H1492 H 0.50376 0.4041 0.99437 0.0
H1493 H 0.4604 0.38364 0.06388 0.0
O1494 O 0.425 0.31737 0.94378 0.0
C1495 C 0.41626 0.33092 0.02707 0.0
Co1496 Co 0.42201 0.68805 0.72722 0.0
Co1497 Co 0.40189 0.71939 0.77284 0.0
C1498 C 0.45163 0.73025 0.74953 0.0
O1499 O 0.44832 0.71261 0.73426 0.0
O1500 O 0.43494 0.73598 0.7654 0.0
C1501 C 0.43615 0.69204 0.67834 0.0
O1502 O 0.4364 0.71502 0.68653 0.0
C1503 C 0.37496 0.76316 0.78903 0.0
C1504 C 0.35577 0.75061 0.82304 0.0
C1505 C 0.35668 0.77005 0.80603 0.0
N1506 N 0.3836 0.74047 0.79515 0.0
N1507 N 0.37245 0.73329 0.81586 0.0
C1508 C 0.38366 0.77732 0.76665 0.0
H1509 H 0.37301 0.77129 0.75006 0.0
H1510 H 0.38103 0.79762 0.76931 0.0
H1511 H 0.40357 0.77335 0.76306 0.0
C1512 C 0.37161 0.69802 0.70865 0.0
N1513 N 0.38972 0.70179 0.72555 0.0
N1514 N 0.38042 0.71381 0.74471 0.0
C1515 C 0.35572 0.71742 0.74054 0.0
C1516 C 0.34972 0.70796 0.71736 0.0
C1517 C 0.37457 0.68337 0.68539 0.0
H1518 H 0.38402 0.66563 0.68991 0.0
H1519 H 0.38587 0.69445 0.67223 0.0
H1520 H 0.35658 0.67923 0.67623 0.0
O1521 O 0.42367 0.66365 0.75519 0.0
O1522 O 0.41124 0.68649 0.78784 0.0
H1523 H 0.34254 0.71906 0.77821 0.0
H1524 H 0.31831 0.71851 0.75506 0.0
C1525 C 0.33714 0.72573 0.7595 0.0
H1526 H 0.33603 0.74626 0.75945 0.0
H1527 H 0.37497 0.71591 0.82412 0.0
O1528 O 0.43034 0.67466 0.69338 0.0
C1529 C 0.41967 0.6662 0.77856 0.0
Co1530 Co 0.93685 0.17736 0.02692 0.0
Co1531 Co 0.96937 0.1547 0.98381 0.0
C1532 C 0.98014 0.20519 1.00313 0.0
O1533 O 0.96163 0.20274 0.01753 0.0
O1534 O 0.98703 0.18739 0.98906 0.0
C1535 C 0.94494 0.19209 0.07433 0.0
O1536 O 0.96726 0.19001 0.06464 0.0
C1537 C 0.0133 0.12935 0.9644 0.0
C1538 C 0.99726 0.10266 0.93771 0.0
C1539 C 0.01917 0.10868 0.94994 0.0
N1540 N 0.98895 0.13454 0.9616 0.0
N1541 N 0.97962 0.11891 0.9451 0.0
C1542 C 0.03019 0.14367 0.98129 0.0
H1543 H 0.02434 0.14106 1.00091 0.0
H1544 H 0.04991 0.13805 0.97899 0.0
H1545 H 0.02851 0.16379 0.97706 0.0
C1546 C 0.9449 0.12812 0.04861 0.0
N1547 N 0.9495 0.14503 0.0307 0.0
N1548 N 0.96416 0.13524 0.01376 0.0
C1549 C 0.96978 0.11166 0.02105 0.0
C1550 C 0.95795 0.10668 0.04354 0.0
C1551 C 0.92603 0.13096 0.0688 0.0
H1552 H 0.91171 0.14484 0.06366 0.0
H1553 H 0.93581 0.13657 0.08601 0.0
H1554 H 0.91668 0.11294 0.07261 0.0
O1555 O 0.91195 0.1775 1.00004 0.0
O1556 O 0.93598 0.16425 0.96859 0.0
H1557 H 0.97819 0.09114 0.98805 0.0
H1558 H 0.98745 0.0757 0.01644 0.0
C1559 C 0.98587 0.09394 0.00695 0.0
H1560 H 0.00473 0.10183 0.0055 0.0
H1561 H 0.96084 0.11817 0.94024 0.0
O1562 O 0.92602 0.18799 0.06064 0.0
C1563 C 0.91521 0.17259 0.97698 0.0
Co1564 Co 0.576 0.18294 0.77713 0.0
Co1565 Co 0.60056 0.21769 0.73803 0.0
C1566 C 0.54948 0.22782 0.75448 0.0
O1567 O 0.55071 0.20765 0.76664 0.0
O1568 O 0.56871 0.23665 0.74377 0.0
C1569 C 0.56499 0.19273 0.82397 0.0
O1570 O 0.5695 0.21414 0.81311 0.0
C1571 C 0.6278 0.26092 0.72027 0.0
C1572 C 0.65141 0.24529 0.69049 0.0
C1573 C 0.64722 0.26686 0.70408 0.0
N1574 N 0.62132 0.23705 0.71654 0.0
N1575 N 0.63514 0.22794 0.69839 0.0
C1576 C 0.61748 0.27616 0.74121 0.0
H1577 H 0.61024 0.26389 0.75616 0.0
H1578 H 0.6318 0.28882 0.74898 0.0
H1579 H 0.60162 0.28737 0.73423 0.0
C1580 C 0.6247 0.18752 0.8007 0.0
N1581 N 0.60862 0.19436 0.78274 0.0
N1582 N 0.6192 0.2105 0.76783 0.0
C1583 C 0.64248 0.21512 0.77655 0.0
C1584 C 0.64651 0.20095 0.798 0.0
C1585 C 0.62078 0.16559 0.81749 0.0
H1586 H 0.60836 0.15182 0.80845 0.0
H1587 H 0.61198 0.17173 0.83508 0.0
H1588 H 0.63877 0.15657 0.82214 0.0
O1589 O 0.57692 0.15854 0.75019 0.0
O1590 O 0.59045 0.18519 0.72108 0.0
H1591 H 0.66294 0.22741 0.74461 0.0
H1592 H 0.67914 0.23206 0.77365 0.0
C1593 C 0.66072 0.23237 0.76449 0.0
H1594 H 0.65368 0.25162 0.7658 0.0
H1595 H 0.63448 0.2095 0.6924 0.0
O1596 O 0.56448 0.1731 0.81063 0.0
C1597 C 0.58218 0.16373 0.72757 0.0
Co1598 Co 0.92473 0.82018 0.27565 0.0
Co1599 Co 0.90277 0.78699 0.2332 0.0
C1600 C 0.95286 0.77671 0.25215 0.0
O1601 O 0.95072 0.7962 0.26523 0.0
O1602 O 0.93444 0.76823 0.23991 0.0
C1603 C 0.93841 0.81002 0.32293 0.0
O1604 O 0.9365 0.78818 0.31219 0.0
C1605 C 0.87646 0.74398 0.21322 0.0
C1606 C 0.85284 0.76064 0.18409 0.0
C1607 C 0.85671 0.7387 0.19721 0.0
N1608 N 0.88308 0.76795 0.21022 0.0
N1609 N 0.86931 0.77762 0.19232 0.0
C1610 C 0.88695 0.72778 0.23336 0.0
H1611 H 0.89578 0.73926 0.24804 0.0
H1612 H 0.8723 0.71599 0.24186 0.0
H1613 H 0.90136 0.71544 0.22523 0.0
C1614 C 0.87489 0.81325 0.29628 0.0
N1615 N 0.89214 0.80783 0.27894 0.0
N1616 N 0.88256 0.79268 0.26236 0.0
C1617 C 0.85883 0.78736 0.26941 0.0
C1618 C 0.85346 0.80011 0.29132 0.0
C1619 C 0.87734 0.83318 0.31547 0.0
H1620 H 0.89241 0.84637 0.31068 0.0
H1621 H 0.88093 0.82427 0.33366 0.0
H1622 H 0.85961 0.84366 0.31719 0.0
O1623 O 0.92499 0.84554 0.2495 0.0
O1624 O 0.91379 0.82037 0.21816 0.0
H1625 H 0.83957 0.77689 0.23615 0.0
H1626 H 0.82277 0.76986 0.26441 0.0
C1627 C 0.84142 0.77057 0.25567 0.0
H1628 H 0.84888 0.75145 0.25595 0.0
H1629 H 0.86996 0.79626 0.18695 0.0
O1630 O 0.9349 0.82957 0.30995 0.0
C1631 C 0.92136 0.84153 0.22634 0.0
C1632 C 0.08425 0.05236 0.4249 0.0
C1633 C 0.05829 0.05511 0.42668 0.0
C1634 C 0.09949 0.05375 0.446 0.0
C1635 C 0.08936 0.05781 0.46977 0.0
H1636 H 0.09288 0.04909 0.40697 0.0
H1637 H 0.11939 0.05185 0.44358 0.0
S1638 S 0.02242 0.06668 0.48437 0.0
N1639 N 0.02308 0.06271 0.4539 0.0
N1640 N 0.05161 0.06474 0.4938 0.0
C1641 C 0.06338 0.06076 0.47179 0.0
C1642 C 0.04786 0.0594 0.45022 0.0
C1643 C 0.19541 0.81958 0.71592 0.0
C1644 C 0.19916 0.84542 0.71376 0.0
C1645 C 0.1968 0.80387 0.69504 0.0
C1646 C 0.20201 0.81342 0.67125 0.0
H1647 H 0.19166 0.81137 0.73394 0.0
H1648 H 0.19349 0.78415 0.6975 0.0
S1649 S 0.21164 0.87987 0.65531 0.0
N1650 N 0.20647 0.87996 0.68558 0.0
N1651 N 0.21054 0.85042 0.64672 0.0
C1652 C 0.20553 0.83924 0.66883 0.0
C1653 C 0.20377 0.85523 0.68998 0.0
C1654 C 0.42181 0.97372 0.95562 0.0
C1655 C 0.41702 0.95102 0.96791 0.0
C1656 C 0.43732 0.97484 0.93462 0.0
C1657 C 0.44898 0.9534 0.92538 0.0
H1658 H 0.41373 0.99089 0.96228 0.0
H1659 H 0.43988 0.99251 0.92528 0.0
S1660 S 0.44569 0.89015 0.95252 0.0
N1661 N 0.42713 0.907 0.9703 0.0
N1662 N 0.45697 0.9094 0.93139 0.0
C1663 C 0.44563 0.93092 0.93824 0.0
C1664 C 0.42957 0.92968 0.95941 0.0
C1665 C 0.32444 0.1725 0.20363 0.0
C1666 C 0.30206 0.16291 0.21333 0.0
C1667 C 0.32454 0.18895 0.18333 0.0
C1668 C 0.30229 0.19628 0.17172 0.0
H1669 H 0.3421 0.1671 0.21169 0.0
H1670 H 0.34222 0.19586 0.17659 0.0
S1671 S 0.23847 0.1802 0.19203 0.0
N1672 N 0.25676 0.16523 0.21163 0.0
N1673 N 0.25725 0.19477 0.1726 0.0
C1674 C 0.27976 0.18787 0.18182 0.0
C1675 C 0.27956 0.17144 0.20275 0.0
C1676 C 0.07996 0.97728 0.05003 0.0
C1677 C 0.08932 0.95445 0.04108 0.0
C1678 C 0.06382 0.97824 0.0706 0.0
C1679 C 0.05645 0.95643 0.08289 0.0
H1680 H 0.08499 0.99458 0.0411 0.0
H1681 H 0.05766 0.9962 0.07737 0.0
S1682 S 0.07351 0.89192 0.06556 0.0
N1683 N 0.08849 0.90946 0.04525 0.0
N1684 N 0.058 0.91132 0.08365 0.0
C1685 C 0.06469 0.93348 0.0735 0.0
C1686 C 0.08111 0.93248 0.05263 0.0
C1687 C 0.27713 0.81542 0.32186 0.0
C1688 C 0.29882 0.80508 0.33205 0.0
C1689 C 0.27837 0.83172 0.30146 0.0
C1690 C 0.30134 0.83821 0.29055 0.0
H1691 H 0.25919 0.81142 0.33014 0.0
H1692 H 0.26116 0.83915 0.29415 0.0
S1693 S 0.3633 0.8148 0.30969 0.0
N1694 N 0.34375 0.80153 0.32934 0.0
N1695 N 0.34607 0.83192 0.29084 0.0
C1696 C 0.32303 0.82726 0.30014 0.0
C1697 C 0.32178 0.81081 0.32097 0.0
C1698 C 0.43661 0.05566 0.53978 0.0
C1699 C 0.41087 0.05161 0.54301 0.0
C1700 C 0.45338 0.05373 0.55981 0.0
C1701 C 0.44506 0.04743 0.58379 0.0
H1702 H 0.44391 0.06037 0.52159 0.0
H1703 H 0.47285 0.0578 0.55662 0.0
S1704 S 0.37962 0.03604 0.60259 0.0
N1705 N 0.37791 0.04262 0.57264 0.0
N1706 N 0.40948 0.03708 0.60966 0.0
C1707 C 0.41946 0.04318 0.58723 0.0
C1708 C 0.40235 0.04572 0.56703 0.0
C1709 C 0.19714 0.19207 0.78608 0.0
C1710 C 0.20022 0.16621 0.78938 0.0
C1711 C 0.19927 0.20871 0.80619 0.0
C1712 C 0.20472 0.20003 0.83024 0.0
H1713 H 0.19315 0.19952 0.76779 0.0
H1714 H 0.1961 0.22834 0.80303 0.0
S1715 S 0.21354 0.13426 0.84912 0.0
N1716 N 0.20747 0.13286 0.81905 0.0
N1717 N 0.21328 0.1641 0.85627 0.0
C1718 C 0.20802 0.17432 0.83372 0.0
C1719 C 0.2053 0.15741 0.81347 0.0
C1720 C 0.43662 0.06344 0.0749 0.0
C1721 C 0.42325 0.058 0.05309 0.0
C1722 C 0.45742 0.07926 0.07443 0.0
C1723 C 0.46577 0.09017 0.05212 0.0
H1724 H 0.43114 0.0552 0.09245 0.0
H1725 H 0.46706 0.08299 0.09173 0.0
S1726 S 0.43903 0.07882 0.98931 0.0
N1727 N 0.42062 0.06331 0.00838 0.0
N1728 N 0.46046 0.09171 0.00711 0.0
C1729 C 0.45313 0.0839 0.02998 0.0
C1730 C 0.43174 0.06811 0.03057 0.0
C1731 C 0.19302 0.18439 0.32148 0.0
C1732 C 0.20008 0.17272 0.29917 0.0
C1733 C 0.17761 0.20551 0.32134 0.0
C1734 C 0.16823 0.21525 0.29892 0.0
H1735 H 0.19934 0.17704 0.33915 0.0
H1736 H 0.17274 0.2141 0.33891 0.0
S1737 S 0.18239 0.19169 0.23546 0.0
N1738 N 0.19751 0.17265 0.2542 0.0
N1739 N 0.16835 0.21196 0.25374 0.0
C1740 C 0.17552 0.20376 0.2765 0.0
C1741 C 0.19152 0.18258 0.27667 0.0
C1742 C 0.04669 0.9267 0.57524 0.0
C1743 C 0.03773 0.91702 0.5526 0.0
C1744 C 0.06703 0.94313 0.57592 0.0
C1745 C 0.07921 0.95054 0.55398 0.0
H1746 H 0.03805 0.92136 0.59265 0.0
H1747 H 0.07329 0.95001 0.59377 0.0
S1748 S 0.06126 0.93373 0.48965 0.0
N1749 N 0.04117 0.91876 0.5074 0.0
N1750 N 0.07986 0.94868 0.50894 0.0
C1751 C 0.06991 0.94193 0.5312 0.0
C1752 C 0.04912 0.92535 0.53043 0.0
C1753 C 0.31264 0.81972 0.78033 0.0
C1754 C 0.3047 0.83204 0.80191 0.0
C1755 C 0.32934 0.79965 0.78173 0.0
C1756 C 0.33882 0.79126 0.80476 0.0
H1757 H 0.30654 0.82615 0.76223 0.0
H1758 H 0.33472 0.79073 0.76455 0.0
S1759 S 0.32166 0.8161 0.86682 0.0
N1760 N 0.30582 0.83344 0.84702 0.0
N1761 N 0.33738 0.796 0.84971 0.0
C1762 C 0.33 0.80281 0.82651 0.0
C1763 C 0.31296 0.82315 0.82506 0.0
C1764 C 0.45964 0.93035 0.43414 0.0
C1765 C 0.46714 0.91782 0.45587 0.0
C1766 C 0.43889 0.94624 0.43417 0.0
C1767 C 0.42507 0.95032 0.45599 0.0
H1768 H 0.46972 0.92762 0.4169 0.0
H1769 H 0.43343 0.95517 0.41695 0.0
S1770 S 0.43857 0.92486 0.51849 0.0
N1771 N 0.46029 0.91284 0.50042 0.0
N1772 N 0.42113 0.94225 0.50014 0.0
C1773 C 0.4329 0.93885 0.47802 0.0
C1774 C 0.45394 0.92265 0.47804 0.0
C1775 C 0.31446 0.18878 0.72883 0.0
C1776 C 0.30371 0.17846 0.70743 0.0
C1777 C 0.33055 0.20926 0.72714 0.0
C1778 C 0.33651 0.22002 0.70397 0.0
H1779 H 0.311 0.18049 0.74688 0.0
H1780 H 0.33838 0.21663 0.74414 0.0
S1781 S 0.31199 0.20038 0.64263 0.0
N1782 N 0.29922 0.18079 0.66258 0.0
N1783 N 0.32928 0.21948 0.65938 0.0
C1784 C 0.32509 0.21035 0.68257 0.0
C1785 C 0.30881 0.18945 0.6843 0.0
C1786 C 0.07289 0.0704 0.97616 0.0
C1787 C 0.08333 0.05968 0.95479 0.0
C1788 C 0.05242 0.08653 0.97443 0.0
C1789 C 0.04158 0.09247 0.95127 0.0
H1790 H 0.08096 0.06673 0.99426 0.0
H1791 H 0.04499 0.0942 0.99147 0.0
S1792 S 0.06147 0.06791 0.88995 0.0
N1793 N 0.08105 0.05518 0.90994 0.0
N1794 N 0.04238 0.08528 0.90666 0.0
C1795 C 0.0515 0.08118 0.92987 0.0
C1796 C 0.07245 0.0649 0.93163 0.0
C1797 C 0.18835 0.7868 0.2014 0.0
C1798 C 0.16226 0.78933 0.2026 0.0
C1799 C 0.20406 0.80764 0.20239 0.0
C1800 C 0.19421 0.83171 0.20469 0.0
H1801 H 0.19674 0.76854 0.19999 0.0
H1802 H 0.22399 0.80494 0.2011 0.0
S1803 S 0.12737 0.84866 0.20755 0.0
N1804 N 0.12742 0.8181 0.20453 0.0
N1805 N 0.15691 0.85701 0.2083 0.0
C1806 C 0.16823 0.83452 0.20587 0.0
C1807 C 0.15225 0.8134 0.20433 0.0
C1808 C 0.07063 0.43543 0.06544 0.0
C1809 C 0.04837 0.42513 0.05635 0.0
C1810 C 0.07035 0.45638 0.08106 0.0
C1811 C 0.04779 0.46729 0.0886 0.0
H1812 H 0.08833 0.42714 0.06053 0.0
H1813 H 0.08788 0.46388 0.08757 0.0
S1814 S 0.98455 0.44769 0.06874 0.0
N1815 N 1.0034 0.4277 0.05505 0.0
N1816 N 1.00269 0.46674 0.08457 0.0
C1817 C 0.02546 0.45725 0.07925 0.0
C1818 C 0.02581 0.43624 0.06306 0.0
C1819 C 0.57694 0.04789 0.92528 0.0
C1820 C 0.55475 0.03992 0.91389 0.0
C1821 C 0.57732 0.06857 0.94126 0.0
C1822 C 0.55552 0.08211 0.94638 0.0
H1823 H 0.59419 0.03805 0.92182 0.0
H1824 H 0.59475 0.07382 0.94985 0.0
S1825 S 0.49202 0.0674 0.92413 0.0
N1826 N 0.50983 0.04585 0.91145 0.0
N1827 N 0.51098 0.08541 0.94016 0.0
C1828 C 0.53313 0.07401 0.93575 0.0
C1829 C 0.53263 0.05279 0.9198 0.0
C1830 C 0.22011 0.30939 0.18695 0.0
C1831 C 0.21757 0.30707 0.16096 0.0
C1832 C 0.19925 0.30883 0.20272 0.0
C1833 C 0.17516 0.3061 0.193 0.0
H1834 H 0.2384 0.31121 0.1952 0.0
H1835 H 0.20196 0.31068 0.2226 0.0
S1836 S 0.15826 0.30025 0.12638 0.0
N1837 N 0.18884 0.30323 0.12627 0.0
N1838 N 0.14985 0.30104 0.15591 0.0
C1839 C 0.17235 0.30398 0.16709 0.0
C1840 C 0.19349 0.30476 0.15106 0.0
C1841 C 0.93117 0.95674 0.42505 0.0
C1842 C 0.95344 0.96516 0.41411 0.0
C1843 C 0.93085 0.93585 0.44078 0.0
C1844 C 0.95285 0.92289 0.44641 0.0
H1845 H 0.91383 0.96631 0.42131 0.0
H1846 H 0.91328 0.92975 0.44854 0.0
S1847 S 0.01635 0.93833 0.42489 0.0
N1848 N 0.99838 0.95945 0.41172 0.0
N1849 N 0.9975 0.92036 0.44113 0.0
C1850 C 0.97526 0.9314 0.4363 0.0
C1851 C 0.97564 0.95247 0.42013 0.0
C1852 C 0.81312 0.20131 0.20438 0.0
C1853 C 0.83686 0.20637 0.19471 0.0
C1854 C 0.79231 0.19939 0.18866 0.0
C1855 C 0.79451 0.20205 0.16264 0.0
H1856 H 0.81065 0.19842 0.22417 0.0
H1857 H 0.7743 0.19591 0.19703 0.0
S1858 S 0.85318 0.21333 0.12799 0.0
N1859 N 0.86148 0.21387 0.15754 0.0
N1860 N 0.823 0.20765 0.12794 0.0
C1861 C 0.81836 0.20626 0.15274 0.0
C1862 C 0.83935 0.20904 0.16878 0.0
C1863 C 0.46306 0.58352 0.57959 0.0
C1864 C 0.45905 0.58102 0.55385 0.0
C1865 C 0.46044 0.56329 0.59581 0.0
C1866 C 0.45433 0.53947 0.58692 0.0
H1867 H 0.46772 0.60151 0.58737 0.0
H1868 H 0.46274 0.56659 0.61552 0.0
S1869 S 0.44068 0.52335 0.52103 0.0
N1870 N 0.44701 0.55338 0.52032 0.0
N1871 N 0.44378 0.51478 0.55037 0.0
C1872 C 0.45021 0.53674 0.5611 0.0
C1873 C 0.45233 0.55757 0.54466 0.0
C1874 C 0.21372 0.69503 0.3206 0.0
C1875 C 0.2118 0.69931 0.34639 0.0
C1876 C 0.19279 0.69656 0.30498 0.0
C1877 C 0.16921 0.70268 0.31453 0.0
H1878 H 0.23159 0.69069 0.31236 0.0
H1879 H 0.19505 0.69263 0.28535 0.0
S1880 S 0.15376 0.71321 0.38098 0.0
N1881 N 0.1839 0.70743 0.38099 0.0
N1882 N 0.14503 0.7121 0.35155 0.0
C1883 C 0.16699 0.70657 0.34032 0.0
C1884 C 0.18816 0.70449 0.35626 0.0
C1885 C 0.31414 0.30669 0.85169 0.0
C1886 C 0.29021 0.31042 0.84172 0.0
C1887 C 0.3352 0.30543 0.83626 0.0
C1888 C 0.33322 0.30798 0.81029 0.0
H1889 H 0.31671 0.3048 0.87156 0.0
H1890 H 0.35318 0.3022 0.84474 0.0
S1891 S 0.27536 0.32031 0.77492 0.0
N1892 N 0.26607 0.31784 0.80411 0.0
N1893 N 0.30582 0.31638 0.77543 0.0
C1894 C 0.30962 0.31262 0.80013 0.0
C1895 C 0.28812 0.31372 0.81577 0.0
C1896 C 0.56073 0.57479 0.93535 0.0
C1897 C 0.55659 0.55316 0.92128 0.0
C1898 C 0.57674 0.5746 0.95603 0.0
C1899 C 0.58938 0.55282 0.96328 0.0
H1900 H 0.55136 0.59195 0.93047 0.0
H1901 H 0.57925 0.59165 0.96645 0.0
S1902 S 0.5829 0.49073 0.93353 0.0
N1903 N 0.56532 0.50923 0.91647 0.0
N1904 N 0.59478 0.50849 0.95556 0.0
C1905 C 0.58482 0.53091 0.94959 0.0
C1906 C 0.56854 0.53117 0.92858 0.0
C1907 C 0.70749 0.33357 0.17153 0.0
C1908 C 0.70341 0.30784 0.17379 0.0
C1909 C 0.70596 0.34942 0.19217 0.0
C1910 C 0.70086 0.34012 0.21611 0.0
H1911 H 0.71184 0.34158 0.15356 0.0
H1912 H 0.7086 0.36911 0.18915 0.0
S1913 S 0.68611 0.2743 0.23145 0.0
N1914 N 0.69141 0.27406 0.2012 0.0
N1915 N 0.69016 0.30338 0.24045 0.0
C1916 C 0.69604 0.31441 0.21847 0.0
C1917 C 0.69708 0.29837 0.19726 0.0
C1918 C 0.90545 0.4536 0.44136 0.0
C1919 C 0.91558 0.44917 0.46509 0.0
C1920 C 0.92066 0.45461 0.42014 0.0
C1921 C 0.94656 0.45128 0.42183 0.0
H1922 H 0.8856 0.45608 0.43909 0.0
H1923 H 0.91208 0.45815 0.40224 0.0
S1924 S 0.98228 0.43806 0.47928 0.0
N1925 N 0.95321 0.44088 0.48885 0.0
N1926 N 0.98158 0.44229 0.44885 0.0
C1927 C 0.9569 0.44644 0.44531 0.0
C1928 C 0.94145 0.4454 0.46693 0.0
C1929 C 0.82268 0.67647 0.70834 0.0
C1930 C 0.80044 0.66534 0.71656 0.0
C1931 C 0.823 0.69282 0.68793 0.0
C1932 C 0.80109 0.6986 0.67486 0.0
H1933 H 0.84007 0.67239 0.71767 0.0
H1934 H 0.84055 0.701 0.68237 0.0
S1935 S 0.7374 0.67772 0.69076 0.0
N1936 N 0.75536 0.66416 0.71164 0.0
N1937 N 0.75633 0.69369 0.67262 0.0
C1938 C 0.77861 0.68851 0.68341 0.0
C1939 C 0.77818 0.67211 0.70436 0.0
C1940 C 0.56927 0.45007 0.53802 0.0
C1941 C 0.59506 0.45428 0.54047 0.0
C1942 C 0.55325 0.45103 0.55866 0.0
C1943 C 0.56229 0.45681 0.58248 0.0
H1944 H 0.56131 0.44607 0.51995 0.0
H1945 H 0.53374 0.4468 0.55597 0.0
S1946 S 0.62839 0.46684 0.59962 0.0
N1947 N 0.62909 0.46135 0.56942 0.0
N1948 N 0.59874 0.46599 0.60756 0.0
C1949 C 0.58802 0.46079 0.58526 0.0
C1950 C 0.60445 0.45888 0.56445 0.0
C1951 C 0.79696 0.34763 0.81335 0.0
C1952 C 0.80307 0.3388 0.78949 0.0
C1953 C 0.79431 0.33138 0.83356 0.0
C1954 C 0.79838 0.30565 0.83104 0.0
H1955 H 0.79463 0.36732 0.81669 0.0
H1956 H 0.78953 0.33913 0.85154 0.0
S1957 S 0.81686 0.27295 0.77329 0.0
N1958 N 0.8137 0.30229 0.76476 0.0
N1959 N 0.81052 0.27219 0.80334 0.0
C1960 C 0.80515 0.29652 0.80757 0.0
C1961 C 0.80725 0.31299 0.78674 0.0
C1962 C 0.93371 0.5653 0.04233 0.0
C1963 C 0.90786 0.56155 0.04449 0.0
C1964 C 0.9494 0.56389 0.0632 0.0
C1965 C 0.93978 0.55871 0.08696 0.0
H1966 H 0.94196 0.56888 0.02429 0.0
H1967 H 0.96917 0.56695 0.06074 0.0
S1968 S 0.87333 0.54908 0.10293 0.0
N1969 N 0.87325 0.55421 0.07263 0.0
N1970 N 0.90278 0.55037 0.11155 0.0
C1971 C 0.91396 0.55538 0.08943 0.0
C1972 C 0.89798 0.55706 0.06827 0.0
C1973 C 0.69653 0.7036 0.30957 0.0
C1974 C 0.70155 0.69381 0.33329 0.0
C1975 C 0.69532 0.68809 0.28855 0.0
C1976 C 0.69863 0.66214 0.2905 0.0
H1977 H 0.69327 0.72334 0.30723 0.0
H1978 H 0.69203 0.69658 0.27057 0.0
S1979 S 0.70914 0.62702 0.34899 0.0
N1980 N 0.70903 0.65647 0.3576 0.0
N1981 N 0.70408 0.62723 0.31871 0.0
C1982 C 0.70239 0.65205 0.31432 0.0
C1983 C 0.70447 0.6679 0.33553 0.0
C1984 C 0.93433 0.56747 0.53253 0.0
C1985 C 0.92617 0.55552 0.55425 0.0
C1986 C 0.95494 0.58349 0.53294 0.0
C1987 C 0.96793 0.58843 0.5552 0.0
H1988 H 0.92447 0.5647 0.51517 0.0
H1989 H 0.96081 0.59178 0.51557 0.0
S1990 S 0.9555 0.55919 0.6165 0.0
N1991 N 0.93395 0.5475 0.59799 0.0
N1992 N 0.97216 0.57826 0.59908 0.0
C1993 C 0.96049 0.57566 0.57681 0.0
C1994 C 0.93969 0.55913 0.57629 0.0
C1995 C 0.67389 0.70457 0.82576 0.0
C1996 C 0.66256 0.71288 0.80365 0.0
C1997 C 0.68959 0.68364 0.82597 0.0
C1998 C 0.6947 0.67036 0.80402 0.0
H1999 H 0.67056 0.71432 0.84308 0.0
H2000 H 0.69794 0.67793 0.84339 0.0
S2001 S 0.67224 0.68571 0.74075 0.0
N2002 N 0.65959 0.70709 0.75879 0.0
N2003 N 0.68848 0.66759 0.75947 0.0
C2004 C 0.68413 0.67878 0.78173 0.0
C2005 C 0.66818 0.70004 0.78146 0.0
C2006 C 0.58509 0.4192 0.04947 0.0
C2007 C 0.58285 0.44515 0.05189 0.0
C2008 C 0.56417 0.40364 0.05061 0.0
C2009 C 0.54013 0.41345 0.05395 0.0
H2010 H 0.60319 0.41082 0.04657 0.0
H2011 H 0.56695 0.38377 0.04903 0.0
S2012 S 0.52448 0.4802 0.06266 0.0
N2013 N 0.55501 0.4799 0.05928 0.0
N2014 N 0.5155 0.45092 0.0604 0.0
C2015 C 0.53773 0.43941 0.05681 0.0
C2016 C 0.5591 0.4552 0.05588 0.0
C2017 C 0.83713 0.33604 0.298 0.0
C2018 C 0.81138 0.3336 0.30198 0.0
C2019 C 0.85316 0.31551 0.29953 0.0
C2020 C 0.84405 0.29152 0.30469 0.0
H2021 H 0.845 0.35406 0.2937 0.0
H2022 H 0.87286 0.31862 0.29688 0.0
S2023 S 0.77821 0.27564 0.31889 0.0
N2024 N 0.77774 0.30588 0.31362 0.0
N2025 N 0.80743 0.2669 0.3151 0.0
C2026 C 0.81831 0.28897 0.30933 0.0
C2027 C 0.80207 0.31003 0.30817 0.0
C2028 C 0.93958 0.44649 0.97969 0.0
C2029 C 0.92762 0.45582 0.95847 0.0
C2030 C 0.95959 0.42979 0.97754 0.0
C2031 C 0.96816 0.42161 0.95407 0.0
H2032 H 0.93278 0.45132 0.99804 0.0
H2033 H 0.9682 0.42323 0.99447 0.0
S2034 S 0.94431 0.4428 0.89286 0.0
N2035 N 0.92682 0.45753 0.91338 0.0
N2036 N 0.96411 0.42595 0.90923 0.0
C2037 C 0.95709 0.43199 0.93276 0.0
C2038 C 0.93687 0.44907 0.93498 0.0
C2039 C 0.83322 0.67207 0.20412 0.0
C2040 C 0.80743 0.67432 0.20031 0.0
C2041 C 0.8491 0.6927 0.20243 0.0
C2042 C 0.83979 0.71664 0.19735 0.0
H2043 H 0.84127 0.65411 0.20837 0.0
H2044 H 0.86883 0.6897 0.20493 0.0
S2045 S 0.77378 0.73204 0.18346 0.0
N2046 N 0.77355 0.7018 0.18877 0.0
N2047 N 0.80294 0.74099 0.18711 0.0
C2048 C 0.81401 0.719 0.19286 0.0
C2049 C 0.79793 0.69782 0.19413 0.0
C2050 C 0.54342 0.57014 0.44304 0.0
C2051 C 0.54564 0.59615 0.44541 0.0
C2052 C 0.56428 0.55447 0.44481 0.0
C2053 C 0.5881 0.56415 0.44956 0.0
H2054 H 0.52535 0.56173 0.44006 0.0
H2055 H 0.56173 0.53467 0.4422 0.0
S2056 S 0.60441 0.63108 0.45424 0.0
N2057 N 0.57409 0.63096 0.44947 0.0
N2058 N 0.61283 0.60157 0.45531 0.0
C2059 C 0.59063 0.59016 0.45139 0.0
C2060 C 0.56953 0.60613 0.44876 0.0
C2061 C 0.68971 0.28582 0.70096 0.0
C2062 C 0.66382 0.28903 0.70406 0.0
C2063 C 0.70612 0.30616 0.7013 0.0
C2064 C 0.69725 0.33043 0.70497 0.0
H2065 H 0.69742 0.26739 0.69836 0.0
H2066 H 0.72578 0.30291 0.69831 0.0
S2067 S 0.63136 0.34932 0.71286 0.0
N2068 N 0.63019 0.31889 0.70908 0.0
N2069 N 0.66114 0.35673 0.71168 0.0
C2070 C 0.67151 0.33395 0.70806 0.0
C2071 C 0.65477 0.31337 0.70713 0.0
C2072 C 0.55473 0.91933 0.58759 0.0
C2073 C 0.55698 0.921 0.56158 0.0
C2074 C 0.55586 0.94062 0.60265 0.0
C2075 C 0.55913 0.96442 0.59223 0.0
H2076 H 0.55177 0.90143 0.59637 0.0
H2077 H 0.5542 0.93836 0.62258 0.0
S2078 S 0.56786 0.97847 0.52511 0.0
N2079 N 0.56443 0.94798 0.52615 0.0
N2080 N 0.56567 0.98813 0.55418 0.0
C2081 C 0.56208 0.9662 0.56623 0.0
C2082 C 0.5611 0.94449 0.55097 0.0
C2083 C 0.07445 0.54901 0.42599 0.0
C2084 C 0.05269 0.5413 0.41362 0.0
C2085 C 0.07442 0.56982 0.4418 0.0
C2086 C 0.05259 0.58363 0.44592 0.0
H2087 H 0.09165 0.53882 0.42348 0.0
H2088 H 0.09154 0.57497 0.45108 0.0
S2089 S 0.99011 0.57007 0.42037 0.0
N2090 N 0.00816 0.54821 0.40858 0.0
N2091 N 0.00849 0.58767 0.43752 0.0
C2092 C 0.03063 0.5759 0.43421 0.0
C2093 C 0.03058 0.55468 0.41822 0.0
C2094 C 0.66948 0.79902 0.6711 0.0
C2095 C 0.67161 0.80259 0.69694 0.0
C2096 C 0.69035 0.80015 0.65543 0.0
C2097 C 0.71424 0.80488 0.66499 0.0
H2098 H 0.65148 0.79529 0.66289 0.0
H2099 H 0.68763 0.79759 0.63565 0.0
S2100 S 0.72967 0.81652 0.73132 0.0
N2101 N 0.69928 0.81203 0.73131 0.0
N2102 N 0.73868 0.81358 0.70209 0.0
C2103 C 0.71657 0.80877 0.69082 0.0
C2104 C 0.69526 0.80766 0.70675 0.0
C2105 C 0.45776 0.42052 0.91917 0.0
C2106 C 0.45305 0.42235 0.94484 0.0
C2107 C 0.45619 0.44138 0.90355 0.0
C2108 C 0.45003 0.465 0.91301 0.0
H2109 H 0.46266 0.40274 0.91105 0.0
H2110 H 0.45955 0.43883 0.88387 0.0
S2111 S 0.43416 0.47926 0.97877 0.0
N2112 N 0.44022 0.44916 0.9788 0.0
N2113 N 0.43822 0.48866 0.94979 0.0
C2114 C 0.44477 0.46694 0.93865 0.0
C2115 C 0.44616 0.4456 0.95449 0.0
C2116 C 0.29669 0.72652 0.67535 0.0
C2117 C 0.28423 0.70381 0.67128 0.0
C2118 C 0.317 0.72808 0.69164 0.0
C2119 C 0.32541 0.70708 0.70459 0.0
H2120 H 0.29084 0.74326 0.66586 0.0
H2121 H 0.32673 0.74564 0.69347 0.0
S2122 S 0.29838 0.6438 0.70219 0.0
N2123 N 0.28103 0.66023 0.68284 0.0
N2124 N 0.31928 0.66328 0.71348 0.0
C2125 C 0.31257 0.68456 0.70162 0.0
C2126 C 0.29191 0.68292 0.68501 0.0
C2127 C 0.96497 0.08621 0.08458 0.0
C2128 C 0.95832 0.08404 0.05938 0.0
C2129 C 0.96306 0.06596 0.10093 0.0
C2130 C 0.95455 0.04264 0.0927 0.0
H2131 H 0.97133 0.1039 0.09184 0.0
H2132 H 0.96774 0.06887 0.12028 0.0
S2133 S 0.93401 0.02752 0.02846 0.0
N2134 N 0.94197 0.05715 0.02707 0.0
N2135 N 0.93917 0.01872 0.05745 0.0
C2136 C 0.94778 0.04027 0.06745 0.0
C2137 C 0.94958 0.061 0.05086 0.0
C2138 C 0.69263 0.19522 0.80444 0.0
C2139 C 0.66885 0.19959 0.81443 0.0
C2140 C 0.71371 0.19368 0.81983 0.0
C2141 C 0.71179 0.19598 0.84589 0.0
H2142 H 0.69499 0.19281 0.78457 0.0
H2143 H 0.73171 0.191 0.81118 0.0
S2144 S 0.65328 0.20385 0.88159 0.0
N2145 N 0.64449 0.20481 0.85218 0.0
N2146 N 0.68368 0.19955 0.88108 0.0
C2147 C 0.68795 0.19893 0.85618 0.0
C2148 C 0.66661 0.20125 0.84049 0.0
C2149 C 0.81205 0.79677 0.34842 0.0
C2150 C 0.78829 0.8029 0.33929 0.0
C2151 C 0.83269 0.79513 0.33254 0.0
C2152 C 0.83063 0.80015 0.30694 0.0
H2153 H 0.81499 0.79355 0.36805 0.0
H2154 H 0.85053 0.79009 0.34044 0.0
S2155 S 0.77346 0.81969 0.27381 0.0
N2156 N 0.76431 0.81512 0.30279 0.0
N2157 N 0.80357 0.81364 0.27345 0.0
C2158 C 0.80732 0.80723 0.29761 0.0
C2159 C 0.78611 0.80838 0.31368 0.0
C2160 C 0.14178 0.03712 0.31625 0.0
C2161 C 0.15599 0.05329 0.33115 0.0
C2162 C 0.11625 0.04092 0.31277 0.0
C2163 C 0.10398 0.0615 0.32328 0.0
H2164 H 0.15042 0.02156 0.30683 0.0
H2165 H 0.106 0.02758 0.30167 0.0
S2166 S 0.13198 0.10832 0.36532 0.0
N2167 N 0.15485 0.08873 0.35929 0.0
N2168 N 0.10798 0.09834 0.34901 0.0
C2169 C 0.11792 0.07795 0.33795 0.0
C2170 C 0.14355 0.07309 0.343 0.0
C2171 C 0.17245 0.86096 0.55106 0.0
C2172 C 0.19237 0.85051 0.5643 0.0
C2173 C 0.17022 0.88673 0.5486 0.0
C2174 C 0.18739 0.90286 0.55996 0.0
H2175 H 0.15856 0.84918 0.54246 0.0
H2176 H 0.15462 0.89408 0.53816 0.0
S2177 S 0.2436 0.88504 0.59541 0.0
N2178 N 0.2304 0.85838 0.58784 0.0
N2179 N 0.22543 0.90692 0.58383 0.0
C2180 C 0.20747 0.89277 0.57303 0.0
C2181 C 0.21017 0.86653 0.57503 0.0
C2182 C 0.36241 0.93461 0.83387 0.0
C2183 C 0.34896 0.95581 0.8263 0.0
C2184 C 0.38791 0.9322 0.82909 0.0
C2185 C 0.40144 0.95166 0.81812 0.0
H2186 H 0.3532 0.91953 0.84343 0.0
H2187 H 0.39725 0.91538 0.83507 0.0
S2188 S 0.37586 0.01208 0.79651 0.0
N2189 N 0.35154 0.99699 0.80759 0.0
N2190 N 0.39978 0.99321 0.8003 0.0
C2191 C 0.3885 0.97333 0.81113 0.0
C2192 C 0.36231 0.97537 0.8151 0.0
C2193 C 0.29863 0.10985 0.07734 0.0
C2194 C 0.31639 0.09853 0.06199 0.0
C2195 C 0.29604 0.13573 0.07771 0.0
C2196 C 0.3117 0.15114 0.06338 0.0
H2197 H 0.28643 0.09863 0.08882 0.0
H2198 H 0.28202 0.14372 0.08978 0.0
S2199 S 0.36173 0.13047 0.02075 0.0
N2200 N 0.34992 0.10448 0.03206 0.0
N2201 N 0.34573 0.15326 0.03374 0.0
C2202 C 0.32977 0.14005 0.04824 0.0
C2203 C 0.33193 0.11368 0.04728 0.0
C2204 C 0.11454 0.94048 0.21953 0.0
C2205 C 0.10031 0.92578 0.2032 0.0
C2206 C 0.14019 0.94343 0.21616 0.0
C2207 C 0.15261 0.93245 0.19594 0.0
H2208 H 0.10582 0.95021 0.23487 0.0
H2209 H 0.1504 0.95452 0.22954 0.0
S2210 S 0.12468 0.89036 0.1491 0.0
N2211 N 0.10144 0.89746 0.16789 0.0
N2212 N 0.14894 0.90595 0.15962 0.0
C2213 C 0.13874 0.91773 0.17947 0.0
C2214 C 0.11284 0.91352 0.1837 0.0
C2215 C 0.33585 0.86178 0.43377 0.0
C2216 C 0.32723 0.84858 0.45475 0.0
C2217 C 0.3318 0.88739 0.43119 0.0
C2218 C 0.32023 0.9011 0.45015 0.0
H2219 H 0.34565 0.85227 0.419 0.0
H2220 H 0.33868 0.89663 0.41465 0.0
S2221 S 0.29512 0.87613 0.50945 0.0
N2222 N 0.30659 0.85159 0.49501 0.0
N2223 N 0.30039 0.89991 0.49077 0.0
C2224 C 0.31203 0.88837 0.4715 0.0
C2225 C 0.31542 0.86216 0.47379 0.0
C2226 C 0.36839 0.07938 0.67987 0.0
C2227 C 0.35565 0.06098 0.69338 0.0
C2228 C 0.39438 0.08054 0.6801 0.0
C2229 C 0.40847 0.06225 0.6923 0.0
H2230 H 0.35835 0.09348 0.66969 0.0
H2231 H 0.40344 0.0955 0.67011 0.0
S2232 S 0.38399 0.00883 0.72844 0.0
N2233 N 0.35893 0.0238 0.71887 0.0
N2234 N 0.40792 0.0246 0.71739 0.0
C2235 C 0.39596 0.04316 0.70504 0.0
C2236 C 0.36952 0.04273 0.70586 0.0
C2237 C 0.21435 0.14294 0.94705 0.0
C2238 C 0.19617 0.15482 0.93254 0.0
C2239 C 0.21735 0.1171 0.94638 0.0
C2240 C 0.20288 0.10214 0.93047 0.0
H2241 H 0.22629 0.15375 0.95917 0.0
H2242 H 0.23098 0.10885 0.95871 0.0
S2243 S 0.155 0.12491 0.88613 0.0
N2244 N 0.16402 0.15 0.90132 0.0
N2245 N 0.1719 0.10189 0.89741 0.0
C2246 C 0.1857 0.11409 0.91468 0.0
C2247 C 0.18167 0.14028 0.91649 0.0
C2248 C 0.05804 0.29435 0.14055 0.0
C2249 C 0.07115 0.31347 0.1526 0.0
C2250 C 0.06004 0.29074 0.11484 0.0
C2251 C 0.07592 0.3056 0.10021 0.0
H2252 H 0.04611 0.28201 0.15113 0.0
H2253 H 0.04879 0.27632 0.10642 0.0
S2254 S 0.11646 0.35644 0.12347 0.0
N2255 N 0.10066 0.34726 0.14815 0.0
N2256 N 0.10718 0.33835 0.10048 0.0
C2257 C 0.09011 0.32397 0.11234 0.0
C2258 C 0.08691 0.32856 0.13831 0.0
C2259 C 0.55213 0.17009 0.88935 0.0
C2260 C 0.56445 0.18783 0.90414 0.0
C2261 C 0.55254 0.17162 0.86337 0.0
C2262 C 0.56453 0.19144 0.85137 0.0
H2263 H 0.54231 0.15472 0.89793 0.0
H2264 H 0.54311 0.15741 0.85265 0.0
S2265 S 0.59825 0.24349 0.88203 0.0
N2266 N 0.58853 0.22589 0.90526 0.0
N2267 N 0.58861 0.2296 0.85639 0.0
C2268 C 0.57658 0.20957 0.86607 0.0
C2269 C 0.57673 0.20755 0.89249 0.0
C2270 C 0.92469 0.82641 0.36408 0.0
C2271 C 0.94045 0.81088 0.35021 0.0
C2272 C 0.9231 0.82417 0.38998 0.0
C2273 C 0.93895 0.80802 0.4031 0.0
H2274 H 0.91312 0.84005 0.35492 0.0
H2275 H 0.91002 0.8359 0.39976 0.0
S2276 S 0.9842 0.7639 0.3754 0.0
N2277 N 0.97159 0.77814 0.35126 0.0
N2278 N 0.97088 0.77612 0.40026 0.0
C2279 C 0.95517 0.79273 0.38945 0.0
C2280 C 0.95558 0.79384 0.36297 0.0
C2281 C 0.92867 0.17724 0.1409 0.0
C2282 C 0.94478 0.1928 0.15431 0.0
C2283 C 0.92693 0.17895 0.11497 0.0
C2284 C 0.94288 0.19463 0.10148 0.0
H2285 H 0.91701 0.16397 0.15044 0.0
H2286 H 0.91361 0.16726 0.10548 0.0
S2287 S 0.98919 0.23839 0.12778 0.0
N2288 N 0.9765 0.22492 0.15233 0.0
N2289 N 0.97546 0.2259 0.10331 0.0
C2290 C 0.95953 0.20985 0.11463 0.0
C2291 C 0.96013 0.20928 0.14109 0.0
C2292 C 0.45523 0.7034 0.63801 0.0
C2293 C 0.43875 0.68806 0.6513 0.0
C2294 C 0.45537 0.70366 0.612 0.0
C2295 C 0.43805 0.68971 0.59827 0.0
H2296 H 0.46813 0.71538 0.64784 0.0
H2297 H 0.46903 0.7151 0.60256 0.0
S2298 S 0.39038 0.64707 0.62415 0.0
N2299 N 0.40606 0.65693 0.64861 0.0
N2300 N 0.40272 0.66153 0.60003 0.0
C2301 C 0.42079 0.67505 0.61133 0.0
C2302 C 0.42218 0.67304 0.63777 0.0
C2303 C 0.04947 0.67232 0.38963 0.0
C2304 C 0.06127 0.69012 0.40474 0.0
C2305 C 0.05068 0.6738 0.36368 0.0
C2306 C 0.06297 0.69365 0.35202 0.0
H2307 H 0.03957 0.65685 0.39794 0.0
H2308 H 0.04174 0.65947 0.3527 0.0
S2309 S 0.09505 0.74616 0.3836 0.0
N2310 N 0.08484 0.72847 0.40655 0.0
N2311 N 0.08638 0.73213 0.3577 0.0
C2312 C 0.07429 0.71198 0.36703 0.0
C2313 C 0.07364 0.70999 0.39345 0.0
C2314 C 0.45489 0.33162 0.86109 0.0
C2315 C 0.43777 0.3158 0.84947 0.0
C2316 C 0.45676 0.33227 0.88705 0.0
C2317 C 0.4411 0.31764 0.90218 0.0
H2318 H 0.46726 0.34311 0.85008 0.0
H2319 H 0.47041 0.34455 0.89534 0.0
S2320 S 0.39196 0.2745 0.88066 0.0
N2321 N 0.40425 0.28578 0.85486 0.0
N2322 N 0.4073 0.28776 0.90373 0.0
C2323 C 0.42338 0.30236 0.89078 0.0
C2324 C 0.42186 0.30122 0.86437 0.0
C2325 C 0.61024 0.57721 0.79907 0.0
C2326 C 0.5987 0.56152 0.81636 0.0
C2327 C 0.63617 0.578 0.79717 0.0
C2328 C 0.65141 0.56367 0.813 0.0
H2329 H 0.59917 0.58859 0.78664 0.0
H2330 H 0.64433 0.59028 0.78342 0.0
S2331 S 0.63009 0.52069 0.86245 0.0
N2332 N 0.60423 0.53168 0.85005 0.0
N2333 N 0.6531 0.53398 0.84701 0.0
C2334 C 0.64009 0.54835 0.83078 0.0
C2335 C 0.61367 0.54704 0.8323 0.0
C2336 C 0.67403 0.38802 0.05085 0.0
C2337 C 0.68821 0.40395 0.06609 0.0
C2338 C 0.67586 0.36217 0.05303 0.0
C2339 C 0.69242 0.35143 0.07006 0.0
H2340 H 0.66124 0.39559 0.03723 0.0
H2341 H 0.66471 0.35054 0.04094 0.0
S2342 S 0.73289 0.38492 0.11492 0.0
N2343 N 0.71842 0.4072 0.09948 0.0
N2344 N 0.72262 0.35852 0.1031 0.0
C2345 C 0.70653 0.36713 0.08559 0.0
C2346 C 0.7042 0.39345 0.08376 0.0
C2347 C 0.86509 0.45238 0.32876 0.0
C2348 C 0.85367 0.43628 0.31177 0.0
C2349 C 0.89103 0.45347 0.33057 0.0
C2350 C 0.90633 0.438 0.31595 0.0
H2351 H 0.85396 0.46457 0.34033 0.0
H2352 H 0.89916 0.46642 0.3437 0.0
S2353 S 0.88541 0.39134 0.26991 0.0
N2354 N 0.85947 0.40389 0.28058 0.0
N2355 N 0.90828 0.40543 0.28479 0.0
C2356 C 0.89514 0.42124 0.29949 0.0
C2357 C 0.86876 0.42055 0.29716 0.0
C2358 C 0.82783 0.64185 0.55227 0.0
C2359 C 0.81158 0.65245 0.56968 0.0
C2360 C 0.8299 0.616 0.55008 0.0
C2361 C 0.81636 0.59991 0.56575 0.0
H2362 H 0.83867 0.65358 0.53997 0.0
H2363 H 0.84252 0.60858 0.53622 0.0
S2364 S 0.77209 0.61849 0.61517 0.0
N2365 N 0.78184 0.64501 0.60311 0.0
N2366 N 0.78666 0.59638 0.59959 0.0
C2367 C 0.80046 0.61027 0.5836 0.0
C2368 C 0.7978 0.63658 0.58538 0.0
C2369 C 0.64145 0.45203 0.70323 0.0
C2370 C 0.65362 0.43381 0.68908 0.0
C2371 C 0.61547 0.45282 0.70453 0.0
C2372 C 0.60077 0.43466 0.69272 0.0
H2373 H 0.65212 0.46589 0.71323 0.0
H2374 H 0.60684 0.46784 0.71483 0.0
S2375 S 0.62407 0.38165 0.65518 0.0
N2376 N 0.64928 0.39727 0.66308 0.0
N2377 N 0.60066 0.39648 0.66839 0.0
C2378 C 0.61288 0.41545 0.67975 0.0
C2379 C 0.63926 0.41567 0.67709 0.0
C2380 C 0.78947 0.39028 0.94411 0.0
C2381 C 0.80741 0.40418 0.93105 0.0
C2382 C 0.79149 0.36446 0.94648 0.0
C2383 C 0.81188 0.35142 0.93654 0.0
H2384 H 0.77368 0.39934 0.95276 0.0
H2385 H 0.77678 0.35458 0.9561 0.0
S2386 S 0.86371 0.3786 0.90007 0.0
N2387 N 0.84517 0.40232 0.90607 0.0
N2388 N 0.85092 0.35438 0.91393 0.0
C2389 C 0.83038 0.36503 0.92408 0.0
C2390 C 0.82754 0.3912 0.92032 0.0
C2391 C 0.88871 0.5522 0.17704 0.0
C2392 C 0.90358 0.56802 0.19174 0.0
C2393 C 0.86277 0.55413 0.17717 0.0
C2394 C 0.85086 0.57143 0.19257 0.0
H2395 H 0.89719 0.53837 0.16508 0.0
H2396 H 0.85198 0.54163 0.16563 0.0
S2397 S 0.88131 0.61758 0.23399 0.0
N2398 N 0.90461 0.60213 0.22126 0.0
N2399 N 0.8557 0.60519 0.2224 0.0
C2400 C 0.86549 0.58745 0.20727 0.0
C2401 C 0.89193 0.58591 0.20661 0.0
C2402 C 0.70497 0.61286 0.42252 0.0
C2403 C 0.69258 0.60088 0.4421 0.0
C2404 C 0.7055 0.6388 0.42112 0.0
C2405 C 0.69282 0.65356 0.4386 0.0
H2406 H 0.7146 0.60216 0.40841 0.0
H2407 H 0.71576 0.6474 0.40608 0.0
S2408 S 0.65864 0.63151 0.49406 0.0
N2409 N 0.66829 0.60587 0.48017 0.0
N2410 N 0.66848 0.65473 0.47652 0.0
C2411 C 0.68035 0.64195 0.45822 0.0
C2412 C 0.68044 0.61554 0.46021 0.0
C2413 C 0.55266 0.82877 0.64205 0.0
C2414 C 0.56927 0.81239 0.65365 0.0
C2415 C 0.55118 0.82993 0.61609 0.0
C2416 C 0.56673 0.81523 0.60093 0.0
H2417 H 0.54036 0.84034 0.65306 0.0
H2418 H 0.5379 0.84266 0.60784 0.0
S2419 S 0.61461 0.77063 0.62235 0.0
N2420 N 0.60221 0.78171 0.64818 0.0
N2421 N 0.5999 0.78465 0.59931 0.0
C2422 C 0.58396 0.79937 0.6123 0.0
C2423 C 0.58508 0.79773 0.63871 0.0
C2424 C 0.95024 0.15464 0.31602 0.0
C2425 C 0.93352 0.14758 0.29716 0.0
C2426 C 0.96382 0.13673 0.3294 0.0
C2427 C 0.96055 0.11115 0.32494 0.0
H2428 H 0.95439 0.17412 0.31905 0.0
H2429 H 0.97789 0.14295 0.34242 0.0
S2430 S 0.91707 0.08306 0.27938 0.0
N2431 N 0.91322 0.11334 0.27589 0.0
N2432 N 0.9379 0.0797 0.30172 0.0
C2433 C 0.94243 0.10387 0.30755 0.0
C2434 C 0.92914 0.12209 0.29347 0.0
C2435 C 0.12036 0.71208 0.57874 0.0
C2436 C 0.14589 0.70845 0.57434 0.0
C2437 C 0.10239 0.69851 0.56553 0.0
C2438 C 0.10941 0.68155 0.54689 0.0
H2439 H 0.11426 0.72641 0.59153 0.0
H2440 H 0.08292 0.70286 0.56845 0.0
S2441 S 0.17378 0.66415 0.52947 0.0
N2442 N 0.17727 0.6852 0.55157 0.0
N2443 N 0.14346 0.66061 0.52589 0.0
C2444 C 0.13483 0.67682 0.54326 0.0
C2445 C 0.15311 0.69005 0.55723 0.0
C2446 C 0.53671 0.86987 0.82578 0.0
C2447 C 0.54262 0.89522 0.82309 0.0
C2448 C 0.55047 0.8514 0.81335 0.0
C2449 C 0.57011 0.85774 0.79725 0.0
H2450 H 0.52073 0.86435 0.83676 0.0
H2451 H 0.54451 0.83221 0.81491 0.0
S2452 S 0.5937 0.92119 0.78456 0.0
N2453 N 0.57054 0.92548 0.80431 0.0
N2454 N 0.5955 0.89084 0.78012 0.0
C2455 C 0.57683 0.88286 0.79518 0.0
C2456 C 0.56333 0.90159 0.80836 0.0
C2457 C 0.40442 0.29839 0.05734 0.0
C2458 C 0.39858 0.3209 0.0454 0.0
C2459 C 0.38602 0.28456 0.06963 0.0
C2460 C 0.36128 0.29303 0.07083 0.0
H2461 H 0.42292 0.29054 0.05562 0.0
H2462 H 0.39097 0.26658 0.07728 0.0
S2463 S 0.33722 0.3521 0.04436 0.0
N2464 N 0.36696 0.3518 0.03657 0.0
N2465 N 0.33244 0.32641 0.06054 0.0
C2466 C 0.35567 0.31643 0.06044 0.0
C2467 C 0.37431 0.33019 0.04741 0.0
C2468 C 0.94918 0.85432 0.19154 0.0
C2469 C 0.93039 0.8606 0.20866 0.0
C2470 C 0.96288 0.87284 0.17913 0.0
C2471 C 0.95771 0.89824 0.18281 0.0
H2472 H 0.95464 0.83507 0.18916 0.0
H2473 H 0.97832 0.86729 0.16742 0.0
S2474 S 0.90874 0.92419 0.22396 0.0
N2475 N 0.90641 0.89377 0.22764 0.0
N2476 N 0.93125 0.92854 0.20348 0.0
C2477 C 0.93774 0.90463 0.19851 0.0
C2478 C 0.92433 0.88581 0.21168 0.0
C2479 C 0.37352 0.67351 0.45567 0.0
C2480 C 0.39857 0.68087 0.45428 0.0
C2481 C 0.35487 0.68676 0.44301 0.0
C2482 C 0.36059 0.70837 0.42935 0.0
H2483 H 0.36818 0.65815 0.46758 0.0
H2484 H 0.33567 0.68119 0.44558 0.0
S2485 S 0.42352 0.73459 0.41897 0.0
N2486 N 0.42833 0.71003 0.4368 0.0
N2487 N 0.39321 0.73557 0.41395 0.0
C2488 C 0.3857 0.7152 0.4269 0.0
C2489 C 0.40472 0.70128 0.43915 0.0
C2490 C 0.56658 0.10228 0.69719 0.0
C2491 C 0.54916 0.10943 0.679 0.0
C2492 C 0.57876 0.12012 0.71186 0.0
C2493 C 0.57454 0.14569 0.70828 0.0
H2494 H 0.56915 0.08279 0.70164 0.0
H2495 H 0.59053 0.11386 0.72699 0.0
S2496 S 0.53291 0.17396 0.6611 0.0
N2497 N 0.5297 0.14369 0.65697 0.0
N2498 N 0.55343 0.17725 0.68372 0.0
C2499 C 0.55883 0.15306 0.68871 0.0
C2500 C 0.5459 0.1349 0.67427 0.0
C2501 C 0.15226 0.31542 0.94923 0.0
C2502 C 0.14562 0.29791 0.93095 0.0
C2503 C 0.13398 0.32841 0.96269 0.0
C2504 C 0.10855 0.32495 0.95767 0.0
H2505 H 0.17159 0.31774 0.95444 0.0
H2506 H 0.13971 0.3405 0.97775 0.0
S2507 S 0.08169 0.28263 0.9103 0.0
N2508 N 0.11206 0.27855 0.90783 0.0
N2509 N 0.07776 0.30383 0.93218 0.0
C2510 C 0.1018 0.30872 0.9383 0.0
C2511 C 0.12034 0.29495 0.92517 0.0
C2512 C 0.29338 0.92541 0.122 0.0
C2513 C 0.29648 0.9298 0.14762 0.0
C2514 C 0.30751 0.93843 0.10426 0.0
C2515 C 0.32461 0.95684 0.11155 0.0
H2516 H 0.27906 0.91277 0.11561 0.0
H2517 H 0.30351 0.93552 0.08472 0.0
S2518 S 0.34086 0.97413 0.17624 0.0
N2519 N 0.31941 0.95234 0.17936 0.0
N2520 N 0.34508 0.97758 0.14599 0.0
C2521 C 0.32881 0.96044 0.13707 0.0
C2522 C 0.31498 0.94668 0.15513 0.0
C2523 C 0.29636 0.07735 0.38304 0.0
C2524 C 0.2987 0.07114 0.35775 0.0
C2525 C 0.30916 0.06389 0.40145 0.0
C2526 C 0.32397 0.0432 0.39521 0.0
H2527 H 0.28371 0.09199 0.3887 0.0
H2528 H 0.30595 0.06858 0.42079 0.0
S2529 S 0.33693 0.02007 0.33157 0.0
N2530 N 0.31813 0.04401 0.3273 0.0
N2531 N 0.34127 0.01804 0.36193 0.0
C2532 C 0.32723 0.03747 0.36993 0.0
C2533 C 0.31481 0.05163 0.35118 0.0
C2534 C 0.21454 0.03793 0.61497 0.0
C2535 C 0.18982 0.04378 0.60891 0.0
C2536 C 0.22777 0.05166 0.63251 0.0
C2537 C 0.21681 0.07172 0.6453 0.0
H2538 H 0.22389 0.02246 0.60604 0.0
H2539 H 0.24659 0.04575 0.63662 0.0
S2540 S 0.15272 0.09552 0.63533 0.0
N2541 N 0.15507 0.07181 0.61589 0.0
N2542 N 0.17976 0.0974 0.64987 0.0
C2543 C 0.19216 0.07822 0.63908 0.0
C2544 C 0.17875 0.06438 0.6206 0.0
C2545 C 0.17616 0.96249 0.87271 0.0
C2546 C 0.18171 0.9593 0.89807 0.0
C2547 C 0.18895 0.94897 0.85433 0.0
C2548 C 0.20834 0.93253 0.86069 0.0
H2549 H 0.16258 0.97625 0.86702 0.0
H2550 H 0.18489 0.95279 0.83496 0.0
S2551 S 0.2294 0.91698 0.92443 0.0
N2552 N 0.20681 0.9374 0.92863 0.0
N2553 N 0.23166 0.91301 0.89403 0.0
C2554 C 0.21342 0.92854 0.88598 0.0
C2555 C 0.19988 0.94167 0.90469 0.0
C2556 C 0.65433 0.18924 0.05773 0.0
C2557 C 0.64769 0.20795 0.07476 0.0
C2558 C 0.63609 0.17648 0.04405 0.0
C2559 C 0.61064 0.18144 0.0476 0.0
H2560 H 0.67375 0.18589 0.05344 0.0
H2561 H 0.64196 0.16357 0.02973 0.0
S2562 S 0.58366 0.22683 0.09193 0.0
N2563 N 0.61405 0.22968 0.0956 0.0
N2564 N 0.57973 0.20488 0.0708 0.0
C2565 C 0.60377 0.19867 0.06602 0.0
C2566 C 0.62233 0.21216 0.07937 0.0
C2567 C 0.08179 0.38564 0.29385 0.0
C2568 C 0.07767 0.35998 0.29685 0.0
C2569 C 0.06848 0.40319 0.30794 0.0
C2570 C 0.05004 0.39563 0.32491 0.0
H2571 H 0.09435 0.39223 0.27952 0.0
H2572 H 0.07109 0.42276 0.3039 0.0
S2573 S 0.03364 0.33069 0.34115 0.0
N2574 N 0.05554 0.3279 0.31976 0.0
N2575 N 0.02976 0.36088 0.34539 0.0
C2576 C 0.04686 0.37005 0.32917 0.0
C2577 C 0.0609 0.35221 0.31536 0.0
C2578 C 0.90061 0.8061 0.56308 0.0
C2579 C 0.89387 0.82406 0.54527 0.0
C2580 C 0.88244 0.79225 0.57579 0.0
C2581 C 0.85696 0.79652 0.57172 0.0
H2582 H 0.92002 0.80137 0.56583 0.0
H2583 H 0.88835 0.77742 0.5881 0.0
S2584 S 0.82974 0.84299 0.52862 0.0
N2585 N 0.86011 0.84621 0.5251 0.0
N2586 N 0.82595 0.82112 0.54987 0.0
C2587 C 0.85003 0.81564 0.55526 0.0
C2588 C 0.86851 0.82917 0.54177 0.0
C2589 C 0.07701 0.61974 0.21469 0.0
C2590 C 0.07415 0.64533 0.21003 0.0
C2591 C 0.06402 0.60199 0.20062 0.0
C2592 C 0.04721 0.60933 0.18197 0.0
H2593 H 0.08825 0.61349 0.23021 0.0
H2594 H 0.06546 0.58258 0.20587 0.0
S2595 S 0.03454 0.67375 0.16119 0.0
N2596 N 0.05501 0.67691 0.18388 0.0
N2597 N 0.02976 0.64354 0.15832 0.0
C2598 C 0.04535 0.63468 0.17614 0.0
C2599 C 0.05908 0.65271 0.18994 0.0
C2600 C 0.43922 0.40342 0.69447 0.0
C2601 C 0.45748 0.39608 0.67719 0.0
C2602 C 0.42646 0.38574 0.70888 0.0
C2603 C 0.43094 0.36015 0.70588 0.0
H2604 H 0.43634 0.42296 0.69845 0.0
H2605 H 0.414 0.39217 0.72337 0.0
S2606 S 0.47473 0.33136 0.66104 0.0
N2607 N 0.47804 0.36158 0.65659 0.0
N2608 N 0.45322 0.32832 0.68279 0.0
C2609 C 0.44755 0.35256 0.68715 0.0
C2610 C 0.46106 0.37055 0.67303 0.0
C2611 C 0.43948 0.60274 0.80215 0.0
C2612 C 0.45607 0.60891 0.82141 0.0
C2613 C 0.42646 0.62132 0.78913 0.0
C2614 C 0.42904 0.64657 0.79547 0.0
H2615 H 0.43797 0.58365 0.79587 0.0
H2616 H 0.41513 0.616 0.77335 0.0
S2617 S 0.46869 0.67199 0.84592 0.0
N2618 N 0.47352 0.64167 0.84699 0.0
N2619 N 0.44826 0.67651 0.82342 0.0
C2620 C 0.44428 0.65272 0.81586 0.0
C2621 C 0.45804 0.6339 0.82859 0.0
C2622 C 0.90222 0.19703 0.93976 0.0
C2623 C 0.89576 0.18088 0.95936 0.0
C2624 C 0.88391 0.21039 0.9267 0.0
C2625 C 0.85852 0.20734 0.9322 0.0
H2626 H 0.92161 0.20084 0.93579 0.0
H2627 H 0.88969 0.22397 0.91297 0.0
S2628 S 0.83184 0.16562 0.98023 0.0
N2629 N 0.86222 0.16163 0.98269 0.0
N2630 N 0.82779 0.18576 0.95737 0.0
C2631 C 0.85177 0.18991 0.9505 0.0
C2632 C 0.87041 0.17692 0.96429 0.0
C2633 C 0.63413 0.82881 0.4598 0.0
C2634 C 0.60863 0.82363 0.45722 0.0
C2635 C 0.65202 0.81551 0.44617 0.0
C2636 C 0.64496 0.79602 0.43021 0.0
H2637 H 0.64035 0.84224 0.47347 0.0
H2638 H 0.67152 0.81905 0.4498 0.0
S2639 S 0.58052 0.77648 0.41556 0.0
N2640 N 0.57713 0.79928 0.43588 0.0
N2641 N 0.6108 0.7735 0.41115 0.0
C2642 C 0.61949 0.79167 0.4264 0.0
C2643 C 0.60128 0.8057 0.4397 0.0
C2644 C 0.82888 0.46058 0.63466 0.0
C2645 C 0.8252 0.45631 0.60911 0.0
C2646 C 0.81584 0.44681 0.65265 0.0
C2647 C 0.79811 0.4289 0.64563 0.0
H2648 H 0.84099 0.47548 0.64075 0.0
H2649 H 0.81816 0.45164 0.67208 0.0
S2650 S 0.78284 0.40956 0.5813 0.0
N2651 N 0.80409 0.43147 0.5778 0.0
N2652 N 0.77876 0.40647 0.61161 0.0
C2653 C 0.79522 0.42358 0.62024 0.0
C2654 C 0.80902 0.43706 0.60196 0.0
C2655 C 0.82667 0.54045 0.87209 0.0
C2656 C 0.82248 0.54579 0.89736 0.0
C2657 C 0.81325 0.5528 0.85331 0.0
C2658 C 0.79464 0.57022 0.85928 0.0
H2659 H 0.83973 0.52603 0.86687 0.0
H2660 H 0.81627 0.54744 0.83412 0.0
S2661 S 0.77687 0.59106 0.92251 0.0
N2662 N 0.79925 0.57053 0.92725 0.0
N2663 N 0.77327 0.59274 0.89203 0.0
C2664 C 0.79082 0.57623 0.88439 0.0
C2665 C 0.80497 0.56427 0.90342 0.0
C2666 C 0.69799 0.56561 0.10122 0.0
C2667 C 0.68021 0.54764 0.10797 0.0
C2668 C 0.71175 0.57836 0.11941 0.0
C2669 C 0.70757 0.57412 0.1449 0.0
H2670 H 0.70275 0.56833 0.08182 0.0
H2671 H 0.72656 0.59069 0.11352 0.0
S2672 S 0.66141 0.53069 0.17209 0.0
N2673 N 0.65816 0.52729 0.14172 0.0
N2674 N 0.68312 0.55209 0.1759 0.0
C2675 C 0.68849 0.55763 0.15182 0.0
C2676 C 0.67504 0.54415 0.13333 0.0
C2677 C 0.71486 0.4288 0.38327 0.0
C2678 C 0.71032 0.43247 0.35777 0.0
C2679 C 0.70108 0.44166 0.40137 0.0
C2680 C 0.68291 0.45918 0.39448 0.0
H2681 H 0.73 0.41689 0.38921 0.0
H2682 H 0.70618 0.43946 0.42075 0.0
S2683 S 0.66298 0.47444 0.3303 0.0
N2684 N 0.68505 0.45337 0.32664 0.0
N2685 N 0.66004 0.4784 0.36064 0.0
C2686 C 0.67732 0.46203 0.36914 0.0
C2687 C 0.69082 0.44842 0.35076 0.0
C2688 C 0.01001 0.97985 0.25268 0.0
C2689 C 0.00653 0.99375 0.23065 0.0
C2690 C 0.00951 0.99115 0.27626 0.0
C2691 C 0.00624 0.01693 0.27868 0.0
H2692 H 0.01293 0.95993 0.25174 0.0
H2693 H 0.01231 0.97974 0.29264 0.0
S2694 S 0.99561 0.06172 0.22715 0.0
N2695 N 0.99875 0.03461 0.21304 0.0
N2696 N 0.99874 0.05603 0.2572 0.0
C2697 C 1.00261 0.03106 0.25688 0.0
C2698 C 1.00248 0.01944 0.23292 0.0
C2699 C 0.2592 0.73197 0.49264 0.0
C2700 C 0.26295 0.75442 0.47962 0.0
C2701 C 0.24997 0.73188 0.51724 0.0
C2702 C 0.24383 0.75423 0.52944 0.0
H2703 H 0.26395 0.71441 0.48398 0.0
H2704 H 0.24693 0.71423 0.52647 0.0
S2705 S 0.24988 0.81787 0.50335 0.0
N2706 N 0.25984 0.79946 0.48087 0.0
N2707 N 0.24206 0.79928 0.52652 0.0
C2708 C 0.24742 0.7767 0.5165 0.0
C2709 C 0.25708 0.7768 0.49177 0.0
C2710 C 0.50352 0.98963 0.73132 0.0
C2711 C 0.50583 0.01549 0.72862 0.0
C2712 C 0.50207 0.97867 0.75504 0.0
C2713 C 0.50353 0.99307 0.77698 0.0
H2714 H 0.50198 0.97788 0.71503 0.0
H2715 H 0.49978 0.95869 0.75621 0.0
S2716 S 0.5113 0.06145 0.77994 0.0
N2717 N 0.51042 0.05518 0.74987 0.0
N2718 N 0.50844 0.03443 0.79429 0.0
C2719 C 0.50675 0.01883 0.7745 0.0
C2720 C 0.50767 0.03006 0.75038 0.0
C2721 C 0.24328 0.22991 0.99047 0.0
C2722 C 0.2415 0.25222 0.97687 0.0
C2723 C 0.253 0.22952 0.01469 0.0
C2724 C 0.26046 0.25154 0.02667 0.0
H2725 H 0.23739 0.21251 0.98218 0.0
H2726 H 0.25484 0.21179 0.02412 0.0
S2727 S 0.25903 0.31495 0.9996 0.0
N2728 N 0.24787 0.29698 0.97731 0.0
N2729 N 0.26543 0.2963 0.02318 0.0
C2730 C 0.25835 0.27406 0.01353 0.0
C2731 C 0.24908 0.27438 0.98855 0.0
C2732 C 0.25165 0.00506 0.97892 0.0
C2733 C 0.22958 1.00247 0.993 0.0
C2734 C 0.27528 1.00356 0.99005 0.0
C2735 C 0.27771 1.00005 0.01579 0.0
H2736 H 0.25068 0.00829 0.95904 0.0
H2737 H 0.29169 0.00606 0.9786 0.0
S2738 S 0.22609 0.99108 0.06089 0.0
N2739 N 0.21195 0.99497 0.03389 0.0
N2740 N 0.25619 0.99299 0.05499 0.0
C2741 C 0.25586 0.99699 0.03002 0.0
C2742 C 0.23186 0.99795 0.0186 0.0
C2743 C 0.24915 0.02218 0.23889 0.0
C2744 C 0.25022 0.02479 0.26485 0.0
C2745 C 0.2487 0.99848 0.22782 0.0
C2746 C 0.25001 0.97654 0.24225 0.0
H2747 H 0.24804 0.03851 0.22713 0.0
H2748 H 0.2475 0.99734 0.20774 0.0
S2749 S 0.25471 0.97352 0.31098 0.0
N2750 N 0.25342 1.00356 0.3047 0.0
N2751 N 0.25335 0.95921 0.28383 0.0
C2752 C 0.25185 0.979 0.26817 0.0
C2753 C 0.25173 1.00306 0.27947 0.0
C2754 C 0.23829 0.02268 0.50645 0.0
C2755 C 0.22406 1.00077 0.50841 0.0
C2756 C 0.26319 0.02201 0.49808 0.0
C2757 C 0.27457 0.99945 0.49109 0.0
H2758 H 0.23048 0.04029 0.51235 0.0
H2759 H 0.27346 0.03929 0.49674 0.0
S2760 S 0.24511 0.93699 0.49258 0.0
N2761 N 0.2232 0.956 0.50265 0.0
N2762 N 0.26941 0.95476 0.48652 0.0
C2763 C 0.2603 0.97754 0.49263 0.0
C2764 C 0.23524 0.9782 0.50137 0.0
C2765 C 0.2755 0.01797 0.75279 0.0
C2766 C 0.2532 0.03015 0.74646 0.0
C2767 C 0.27558 0.99349 0.76168 0.0
C2768 C 0.2534 0.97981 0.76417 0.0
H2769 H 0.29317 0.02742 0.75071 0.0
H2770 H 0.29327 0.98517 0.76659 0.0
S2771 S 0.1899 1.00292 0.75001 0.0
N2772 N 0.20824 0.02666 0.74328 0.0
N2773 N 0.20838 0.98039 0.75984 0.0
C2774 C 0.2309 0.99165 0.75784 0.0
C2775 C 0.23079 0.01688 0.74913 0.0
C2776 C 1.00376 0.26808 0.0247 0.0
C2777 C 0.01134 0.27975 1.00255 0.0
C2778 C 0.99417 0.24383 0.02463 0.0
C2779 C 0.99253 0.22988 1.00252 0.0
H2780 H 0.00534 0.27779 0.04229 0.0
H2781 H 0.98817 0.23586 0.04215 0.0
S2782 S 0.01075 0.25159 0.93958 0.0
N2783 N 0.01687 0.2755 0.95789 0.0
N2784 N 0.99942 0.22957 0.95782 0.0
C2785 C 1.00035 0.24118 0.98024 0.0
C2786 C 0.00955 0.26621 0.98023 0.0
C2787 C 0.52935 0.24956 0.99974 0.0
C2788 C 0.51498 0.22761 1.00136 0.0
C2789 C 0.51825 0.27324 0.99974 0.0
C2790 C 0.4923 0.27584 1.00069 0.0
H2791 H 0.54944 0.24846 0.9985 0.0
H2792 H 0.53 0.28954 0.99829 0.0
S2793 S 0.4463 0.22453 0.00614 0.0
N2794 N 0.47349 0.21024 0.00503 0.0
N2795 N 0.45249 0.25456 0.00434 0.0
C2796 C 0.47772 0.2541 1.00268 0.0
C2797 C 0.48908 0.23004 1.00323 0.0
C2798 C 0.98511 0.26834 0.25083 0.0
C2799 C 0.98276 0.24234 0.2514 0.0
C2800 C 0.00868 0.27971 0.24983 0.0
C2801 C 0.03081 0.26554 0.25003 0.0
H2802 H 0.96865 0.27997 0.25051 0.0
H2803 H 0.00956 0.29982 0.24907 0.0
S2804 S 0.03478 0.19678 0.25275 0.0
N2805 N 0.00463 0.2027 0.25277 0.0
N2806 N 0.0487 0.22413 0.2516 0.0
C2807 C 0.02868 0.23956 0.25129 0.0
C2808 C 0.00474 0.22796 0.25176 0.0
C2809 C 0.02661 0.75043 0.50258 0.0
C2810 C 0.01238 0.72837 0.50408 0.0
C2811 C 0.01538 0.77405 0.503 0.0
C2812 C 0.98943 0.77649 0.50426 0.0
H2813 H 0.04669 0.74944 0.50101 0.0
H2814 H 0.02701 0.79043 0.50144 0.0
S2815 S 0.94378 0.72487 0.50959 0.0
N2816 N 0.97103 0.71074 0.50807 0.0
N2817 N 0.94979 0.75496 0.50808 0.0
C2818 C 0.97501 0.75464 0.50622 0.0
C2819 C 0.9865 0.73064 0.50636 0.0
C2820 C 0.52793 0.7554 0.50388 0.0
C2821 C 0.51355 0.77738 0.50289 0.0
C2822 C 0.5169 0.73175 0.50275 0.0
C2823 C 0.49098 0.72914 0.50125 0.0
H2824 H 0.548 0.75645 0.50542 0.0
H2825 H 0.52868 0.71543 0.50372 0.0
S2826 S 0.44494 0.78052 0.49703 0.0
N2827 N 0.47205 0.79481 0.49918 0.0
N2828 N 0.45117 0.75044 0.49781 0.0
C2829 C 0.47636 0.7509 0.49994 0.0
C2830 C 0.48767 0.77499 0.50053 0.0
C2831 C 1.00352 0.72732 0.25307 0.0
C2832 C 0.02565 0.74146 0.25227 0.0
C2833 C 0.97997 0.73866 0.25206 0.0
C2834 C 0.97766 0.76463 0.25089 0.0
H2835 H 0.00438 0.70724 0.2545 0.0
H2836 H 0.9635 0.72709 0.25301 0.0
S2837 S 0.02962 0.81006 0.24731 0.0
N2838 N 0.04359 0.78275 0.24905 0.0
N2839 N 0.99946 0.80419 0.24796 0.0
C2840 C 0.99961 0.77897 0.24968 0.0
C2841 C 0.02356 0.76737 0.25013 0.0
C2842 C 0.52281 0.26626 0.75393 0.0
C2843 C 0.52486 0.24028 0.75245 0.0
C2844 C 0.49938 0.27791 0.75411 0.0
C2845 C 0.47707 0.26413 0.75217 0.0
H2846 H 0.53937 0.2776 0.75575 0.0
H2847 H 0.49876 0.29798 0.75578 0.0
S2848 S 0.47248 0.19566 0.74587 0.0
N2849 N 0.50265 0.20111 0.74788 0.0
N2850 N 0.45881 0.22312 0.74753 0.0
C2851 C 0.47895 0.23822 0.74973 0.0
C2852 C 0.50277 0.22629 0.75007 0.0
C2853 C 0.5045 0.47636 0.7491 0.0
C2854 C 0.50191 0.49055 0.7271 0.0
C2855 C 0.50365 0.48748 0.77278 0.0
C2856 C 0.50082 0.5133 0.77531 0.0
H2857 H 0.50716 0.45642 0.74803 0.0
H2858 H 0.506 0.47593 0.78912 0.0
S2859 S 0.49232 0.55874 0.72392 0.0
N2860 N 0.49534 0.5317 0.70968 0.0
N2861 N 0.49449 0.5527 0.75397 0.0
C2862 C 0.49788 0.52765 0.75354 0.0
C2863 C 0.4982 0.51627 0.7295 0.0
C2864 C 0.74848 0.27582 0.01476 0.0
C2865 C 0.74495 0.25365 0.02824 0.0
C2866 C 0.75798 0.27554 0.99044 0.0
C2867 C 0.76342 0.25303 0.97829 0.0
H2868 H 0.74386 0.29357 0.02311 0.0
H2869 H 0.76093 0.2931 0.98097 0.0
S2870 S 0.75754 0.18984 0.00526 0.0
N2871 N 0.748 0.20855 0.02771 0.0
N2872 N 0.76511 0.20802 0.98165 0.0
C2873 C 0.75988 0.23071 0.99145 0.0
C2874 C 0.75087 0.23102 0.01652 0.0
C2875 C 1.00239 0.51595 0.2743 0.0
C2876 C 1.0031 0.48994 0.2763 0.0
C2877 C 1.0013 0.52759 0.2509 0.0
C2878 C 1.00154 0.51373 0.22856 0.0
H2879 H 1.00193 0.52735 0.29091 0.0
H2880 H 1.00031 0.54771 0.25032 0.0
S2881 S 0.00509 0.4451 0.2237 0.0
N2882 N 0.00498 0.45061 0.25393 0.0
N2883 N 1.00366 0.47262 0.21011 0.0
C2884 C 1.00315 0.48776 0.23033 0.0
C2885 C 1.00371 0.47585 0.25414 0.0
C2886 C 0.75606 0.7721 0.51526 0.0
C2887 C 0.75966 0.74969 0.52838 0.0
C2888 C 0.74745 0.7721 0.49046 0.0
C2889 C 0.74179 0.7497 0.47813 0.0
H2890 H 0.7606 0.78969 0.52397 0.0
H2891 H 0.7446 0.78972 0.48111 0.0
S2892 S 0.74787 0.68613 0.50438 0.0
N2893 N 0.75714 0.70464 0.52706 0.0
N2894 N 0.74027 0.70463 0.48105 0.0
C2895 C 0.74515 0.72726 0.49119 0.0
C2896 C 0.75427 0.72726 0.51612 0.0
C2897 C 0.7576 0.50463 0.52674 0.0
C2898 C 0.77976 0.5021 0.51281 0.0
C2899 C 0.73411 0.50428 0.51528 0.0
C2900 C 0.73191 0.50202 0.48938 0.0
H2901 H 0.75839 0.50688 0.54675 0.0
H2902 H 0.71764 0.50659 0.52668 0.0
S2903 S 0.78388 0.49375 0.44452 0.0
N2904 N 0.79776 0.49607 0.47183 0.0
N2905 N 0.75376 0.49617 0.45014 0.0
C2906 C 0.75386 0.49907 0.47526 0.0
C2907 C 0.77773 0.49887 0.487 0.0
C2908 C 0.77125 0.51345 0.75593 0.0
C2909 C 0.74882 0.52658 0.75927 0.0
C2910 C 0.77133 0.48892 0.74666 0.0
C2911 C 0.74903 0.47688 0.73996 0.0
H2912 H 0.78874 0.52186 0.76133 0.0
H2913 H 0.78898 0.47946 0.74434 0.0
S2914 S 0.68548 0.5034 0.74484 0.0
N2915 N 0.70385 0.52567 0.7553 0.0
N2916 N 0.70405 0.4802 0.73703 0.0
C2917 C 0.7266 0.49005 0.74281 0.0
C2918 C 0.72648 0.5147 0.75271 0.0
C2919 C 0.76573 0.47932 1.00102 0.0
C2920 C 0.77734 0.50158 0.99373 0.0
C2921 C 0.74128 0.47919 0.01015 0.0
C2922 C 0.72711 0.50119 0.01155 0.0
H2923 H 0.77568 0.46184 0.99975 0.0
H2924 H 0.73337 0.46165 0.01618 0.0
S2925 S 0.74849 0.56425 0.99354 0.0
N2926 N 0.7727 0.54616 0.98793 0.0
N2927 N 0.72644 0.54583 0.00449 0.0
C2928 C 0.7383 0.52353 1.00381 0.0
C2929 C 0.7635 0.52375 0.9951 0.0
C2930 C 0.77682 0.49144 0.25551 0.0
C2931 C 0.75465 0.47847 0.26056 0.0
C2932 C 0.77644 0.51569 0.24584 0.0
C2933 C 0.75388 0.52835 0.24173 0.0
H2934 H 0.79465 0.4827 0.259 0.0
H2935 H 0.79398 0.52467 0.24162 0.0
S2936 S 0.69065 0.50299 0.25257 0.0
N2937 N 0.70948 0.48015 0.26089 0.0
N2938 N 0.70877 0.52608 0.24342 0.0
C2939 C 0.73156 0.51577 0.24704 0.0
C2940 C 0.73194 0.49075 0.25624 0.0
C2941 C 0.48954 0.74596 0.77206 0.0
C2942 C 0.4764 0.74252 0.74965 0.0
C2943 C 0.5143 0.75466 0.77207 0.0
C2944 C 0.52657 0.76061 0.74968 0.0
H2945 H 0.48083 0.74138 0.78966 0.0
H2946 H 0.52362 0.75746 0.78971 0.0
S2947 S 0.50033 0.75504 0.6861 0.0
N2948 N 0.4777 0.74557 0.70459 0.0
N2949 N 0.52366 0.76245 0.70463 0.0
C2950 C 0.51355 0.75731 0.72725 0.0
C2951 C 0.48864 0.74812 0.72722 0.0
loop_
_geom_bond_atom_site_label_1
_geom_bond_atom_site_label_2
_geom_bond_distance
_geom_bond_site_symmetry_2
_ccdc_geom_bond_type
Co0 O3 1.970 . S
Co0 N17 1.989 . S
Co0 O25 1.967 1_455 S
Co0 O32 1.920 . S
Co1 O4 1.966 . S
Co1 N10 2.022 . S
Co1 N18 1.993 1_655 S
Co1 O26 1.941 . S
C2 O3 1.258 1_655 S
C2 O4 1.263 . S
O3 Co0 1.970 . S
O3 C2 1.258 1_455 S
O4 Co1 1.966 . S
O4 C2 1.263 . S
C5 O6 1.235 . S
C5 O32 1.289 . S
O6 C5 1.235 . S
C7 C9 1.400 . S
C7 N10 1.351 1_565 S
C7 C12 1.501 . S
C8 C9 1.387 1_545 S
C8 N11 1.341 . S
C9 C7 1.400 . S
C9 C8 1.387 1_565 S
N10 Co1 2.022 . S
N10 C7 1.351 1_545 S
N10 N11 1.365 . S
N11 C8 1.341 . S
N11 N10 1.365 . S
N11 H31 0.862 . S
C12 C7 1.501 . S
C12 H13 0.961 . S
C12 H14 0.961 . S
C12 H15 0.960 . S
H13 C12 0.961 . S
H14 C12 0.961 . S
H15 C12 0.960 . S
C16 N17 1.342 . S
C16 C20 1.401 . S
C16 C21 1.499 . S
N17 Co0 1.989 . S
N17 C16 1.342 . S
N17 N18 1.388 . S
N18 Co1 1.993 1_455 S
N18 N17 1.388 . S
N18 C19 1.346 . S
C19 N18 1.346 . S
C19 C20 1.396 . S
C19 C29 1.510 1_455 S
C20 C16 1.401 . S
C20 C19 1.396 . S
C21 C16 1.499 . S
C21 H22 0.959 . S
C21 H23 0.960 . S
C21 H24 0.961 . S
H22 C21 0.959 . S
H23 C21 0.960 . S
H24 C21 0.961 . S
O25 Co0 1.967 1_655 S
O25 C33 1.258 . S
O26 Co1 1.941 . S
O26 C33 1.266 . S
H27 C29 0.959 . S
H28 C29 0.961 1_455 S
C29 C19 1.510 1_655 S
C29 H27 0.959 . S
C29 H28 0.961 1_655 S
C29 H30 0.960 . S
H30 C29 0.960 . S
H31 N11 0.862 . S
O32 Co0 1.920 . S
O32 C5 1.289 . S
C33 O25 1.258 . S
C33 O26 1.266 . S
Co34 O37 1.970 . S
Co34 N51 1.989 . S
Co34 O59 1.967 . S
Co34 O66 1.920 . S
Co35 O38 1.966 . S
Co35 N44 2.022 . S
Co35 N52 1.993 . S
Co35 O60 1.941 . S
C36 O37 1.258 . S
C36 O38 1.263 . S
O37 Co34 1.970 . S
O37 C36 1.258 . S
O38 Co35 1.966 . S
O38 C36 1.263 . S
C39 O40 1.235 . S
C39 O66 1.289 . S
O40 C39 1.235 . S
C41 C43 1.400 . S
C41 N44 1.351 . S
C41 C46 1.501 . S
C42 C43 1.387 . S
C42 N45 1.341 . S
C43 C41 1.400 . S
C43 C42 1.387 . S
N44 Co35 2.022 . S
N44 C41 1.351 . S
N44 N45 1.365 . S
N45 C42 1.341 . S
N45 N44 1.365 . S
N45 H65 0.862 . S
C46 C41 1.501 . S
C46 H47 0.961 . S
C46 H48 0.961 . S
C46 H49 0.960 . S
H47 C46 0.961 . S
H48 C46 0.961 . S
H49 C46 0.960 . S
C50 N51 1.342 . S
C50 C54 1.401 . S
C50 C55 1.499 . S
N51 Co34 1.989 . S
N51 C50 1.342 . S
N51 N52 1.388 . S
N52 Co35 1.993 . S
N52 N51 1.388 . S
N52 C53 1.346 . S
C53 N52 1.346 . S
C53 C54 1.396 . S
C53 C63 1.510 . S
C54 C50 1.401 . S
C54 C53 1.396 . S
C55 C50 1.499 . S
C55 H56 0.959 . S
C55 H57 0.960 . S
C55 H58 0.961 . S
H56 C55 0.959 . S
H57 C55 0.960 . S
H58 C55 0.961 . S
O59 Co34 1.967 . S
O59 C67 1.258 . S
O60 Co35 1.941 . S
O60 C67 1.266 . S
H61 C63 0.959 . S
H62 C63 0.961 . S
C63 C53 1.510 . S
C63 H61 0.959 . S
C63 H62 0.961 . S
C63 H64 0.960 . S
H64 C63 0.960 . S
H65 N45 0.862 . S
O66 Co34 1.920 . S
O66 C39 1.289 . S
C67 O59 1.258 . S
C67 O60 1.266 . S
Co68 O71 1.970 . S
Co68 N85 1.989 . S
Co68 O93 1.967 . S
Co68 O100 1.920 . S
Co69 O72 1.966 . S
Co69 N78 2.022 . S
Co69 N86 1.993 . S
Co69 O94 1.941 . S
C70 O71 1.258 . S
C70 O72 1.263 . S
O71 Co68 1.970 . S
O71 C70 1.258 . S
O72 Co69 1.966 . S
O72 C70 1.263 . S
C73 O74 1.235 . S
C73 O100 1.289 . S
O74 C73 1.235 . S
C75 C77 1.400 . S
C75 N78 1.351 1_545 S
C75 C80 1.501 . S
C76 C77 1.387 1_565 S
C76 N79 1.341 . S
C77 C75 1.400 . S
C77 C76 1.387 1_545 S
N78 Co69 2.022 . S
N78 C75 1.351 1_565 S
N78 N79 1.365 . S
N79 C76 1.341 . S
N79 N78 1.365 . S
N79 H99 0.862 . S
C80 C75 1.501 . S
C80 H81 0.961 . S
C80 H82 0.961 . S
C80 H83 0.960 . S
H81 C80 0.961 . S
H82 C80 0.961 . S
H83 C80 0.960 . S
C84 N85 1.342 . S
C84 C88 1.401 . S
C84 C89 1.499 . S
N85 Co68 1.989 . S
N85 C84 1.342 . S
N85 N86 1.388 . S
N86 Co69 1.993 . S
N86 N85 1.388 . S
N86 C87 1.346 . S
C87 N86 1.346 . S
C87 C88 1.396 . S
C87 C97 1.510 . S
C88 C84 1.401 . S
C88 C87 1.396 . S
C89 C84 1.499 . S
C89 H90 0.959 . S
C89 H91 0.960 . S
C89 H92 0.961 . S
H90 C89 0.959 . S
H91 C89 0.960 . S
H92 C89 0.961 . S
O93 Co68 1.967 . S
O93 C101 1.258 . S
O94 Co69 1.941 . S
O94 C101 1.266 . S
H95 C97 0.959 . S
H96 C97 0.961 . S
C97 C87 1.510 . S
C97 H95 0.959 . S
C97 H96 0.961 . S
C97 H98 0.960 . S
H98 C97 0.960 . S
H99 N79 0.862 . S
O100 Co68 1.920 . S
O100 C73 1.289 . S
C101 O93 1.258 . S
C101 O94 1.266 . S
Co102 O105 1.970 . S
Co102 N119 1.989 . S
Co102 O127 1.967 . S
Co102 O134 1.920 . S
Co103 O106 1.966 . S
Co103 N112 2.022 . S
Co103 N120 1.993 . S
Co103 O128 1.941 . S
C104 O105 1.258 . S
C104 O106 1.263 . S
O105 Co102 1.970 . S
O105 C104 1.258 . S
O106 Co103 1.966 . S
O106 C104 1.263 . S
C107 O108 1.235 . S
C107 O134 1.289 . S
O108 C107 1.235 . S
C109 C111 1.400 . S
C109 N112 1.351 . S
C109 C114 1.501 . S
C110 C111 1.387 . S
C110 N113 1.341 . S
C111 C109 1.400 . S
C111 C110 1.387 . S
N112 Co103 2.022 . S
N112 C109 1.351 . S
N112 N113 1.365 . S
N113 C110 1.341 . S
N113 N112 1.365 . S
N113 H133 0.862 . S
C114 C109 1.501 . S
C114 H115 0.961 . S
C114 H116 0.961 . S
C114 H117 0.960 . S
H115 C114 0.961 . S
H116 C114 0.961 . S
H117 C114 0.960 . S
C118 N119 1.342 . S
C118 C122 1.401 . S
C118 C123 1.499 . S
N119 Co102 1.989 . S
N119 C118 1.342 . S
N119 N120 1.388 . S
N120 Co103 1.993 . S
N120 N119 1.388 . S
N120 C121 1.346 . S
C121 N120 1.346 . S
C121 C122 1.396 . S
C121 C131 1.510 . S
C122 C118 1.401 . S
C122 C121 1.396 . S
C123 C118 1.499 . S
C123 H124 0.959 . S
C123 H125 0.960 . S
C123 H126 0.961 . S
H124 C123 0.959 . S
H125 C123 0.960 . S
H126 C123 0.961 . S
O127 Co102 1.967 . S
O127 C135 1.258 . S
O128 Co103 1.941 . S
O128 C135 1.266 . S
H129 C131 0.959 . S
H130 C131 0.961 . S
C131 C121 1.510 . S
C131 H129 0.959 . S
C131 H130 0.961 . S
C131 H132 0.960 . S
H132 C131 0.960 . S
H133 N113 0.862 . S
O134 Co102 1.920 . S
O134 C107 1.289 . S
C135 O127 1.258 . S
C135 O128 1.266 . S
Co136 O139 1.970 . S
Co136 N153 1.989 . S
Co136 O161 1.967 1_455 S
Co136 O168 1.920 . S
Co137 O140 1.966 . S
Co137 N146 2.022 . S
Co137 N154 1.993 1_655 S
Co137 O162 1.941 . S
C138 O139 1.258 1_655 S
C138 O140 1.263 . S
O139 Co136 1.970 . S
O139 C138 1.258 1_455 S
O140 Co137 1.966 . S
O140 C138 1.263 . S
C141 O142 1.235 . S
C141 O168 1.289 . S
O142 C141 1.235 . S
C143 C145 1.400 . S
C143 N146 1.351 1_545 S
C143 C148 1.501 . S
C144 C145 1.387 1_565 S
C144 N147 1.341 . S
C145 C143 1.400 . S
C145 C144 1.387 1_545 S
N146 Co137 2.022 . S
N146 C143 1.351 1_565 S
N146 N147 1.365 . S
N147 C144 1.341 . S
N147 N146 1.365 . S
N147 H167 0.862 . S
C148 C143 1.501 . S
C148 H149 0.961 . S
C148 H150 0.961 . S
C148 H151 0.960 . S
H149 C148 0.961 . S
H150 C148 0.961 . S
H151 C148 0.960 . S
C152 N153 1.342 . S
C152 C156 1.401 . S
C152 C157 1.499 . S
N153 Co136 1.989 . S
N153 C152 1.342 . S
N153 N154 1.388 . S
N154 Co137 1.993 1_455 S
N154 N153 1.388 . S
N154 C155 1.346 . S
C155 N154 1.346 . S
C155 C156 1.396 . S
C155 C165 1.510 1_455 S
C156 C152 1.401 . S
C156 C155 1.396 . S
C157 C152 1.499 . S
C157 H158 0.959 . S
C157 H159 0.960 . S
C157 H160 0.961 . S
H158 C157 0.959 . S
H159 C157 0.960 . S
H160 C157 0.961 . S
O161 Co136 1.967 1_655 S
O161 C169 1.258 . S
O162 Co137 1.941 . S
O162 C169 1.266 . S
H163 C165 0.959 . S
H164 C165 0.961 1_455 S
C165 C155 1.510 1_655 S
C165 H163 0.959 . S
C165 H164 0.961 1_655 S
C165 H166 0.960 . S
H166 C165 0.960 . S
H167 N147 0.862 . S
O168 Co136 1.920 . S
O168 C141 1.289 . S
C169 O161 1.258 . S
C169 O162 1.266 . S
Co170 O173 1.970 . S
Co170 N187 1.989 . S
Co170 O195 1.967 . S
Co170 O202 1.920 . S
Co171 O174 1.966 . S
Co171 N180 2.022 . S
Co171 N188 1.993 . S
Co171 O196 1.941 . S
C172 O173 1.258 . S
C172 O174 1.263 . S
O173 Co170 1.970 . S
O173 C172 1.258 . S
O174 Co171 1.966 . S
O174 C172 1.263 . S
C175 O176 1.235 . S
C175 O202 1.289 . S
O176 C175 1.235 . S
C177 C179 1.400 . S
C177 N180 1.351 . S
C177 C182 1.501 . S
C178 C179 1.387 . S
C178 N181 1.341 . S
C179 C177 1.400 . S
C179 C178 1.387 . S
N180 Co171 2.022 . S
N180 C177 1.351 . S
N180 N181 1.365 . S
N181 C178 1.341 . S
N181 N180 1.365 . S
N181 H201 0.862 . S
C182 C177 1.501 . S
C182 H183 0.961 . S
C182 H184 0.961 . S
C182 H185 0.960 . S
H183 C182 0.961 . S
H184 C182 0.961 . S
H185 C182 0.960 . S
C186 N187 1.342 . S
C186 C190 1.401 . S
C186 C191 1.499 . S
N187 Co170 1.989 . S
N187 C186 1.342 . S
N187 N188 1.388 . S
N188 Co171 1.993 . S
N188 N187 1.388 . S
N188 C189 1.346 . S
C189 N188 1.346 . S
C189 C190 1.396 . S
C189 C199 1.510 . S
C190 C186 1.401 . S
C190 C189 1.396 . S
C191 C186 1.499 . S
C191 H192 0.959 . S
C191 H193 0.960 . S
C191 H194 0.961 . S
H192 C191 0.959 . S
H193 C191 0.960 . S
H194 C191 0.961 . S
O195 Co170 1.967 . S
O195 C203 1.258 . S
O196 Co171 1.941 . S
O196 C203 1.266 . S
H197 C199 0.959 . S
H198 C199 0.961 . S
C199 C189 1.510 . S
C199 H197 0.959 . S
C199 H198 0.961 . S
C199 H200 0.960 . S
H200 C199 0.960 . S
H201 N181 0.862 . S
O202 Co170 1.920 . S
O202 C175 1.289 . S
C203 O195 1.258 . S
C203 O196 1.266 . S
Co204 O207 1.970 . S
Co204 N221 1.989 . S
Co204 O229 1.967 . S
Co204 O236 1.920 . S
Co205 O208 1.966 . S
Co205 N214 2.022 . S
Co205 N222 1.993 . S
Co205 O230 1.941 . S
C206 O207 1.258 . S
C206 O208 1.263 . S
O207 Co204 1.970 . S
O207 C206 1.258 . S
O208 Co205 1.966 . S
O208 C206 1.263 . S
C209 O210 1.235 . S
C209 O236 1.289 . S
O210 C209 1.235 . S
C211 C213 1.400 . S
C211 N214 1.351 1_565 S
C211 C216 1.501 . S
C212 C213 1.387 1_545 S
C212 N215 1.341 . S
C213 C211 1.400 . S
C213 C212 1.387 1_565 S
N214 Co205 2.022 . S
N214 C211 1.351 1_545 S
N214 N215 1.365 . S
N215 C212 1.341 . S
N215 N214 1.365 . S
N215 H235 0.862 . S
C216 C211 1.501 . S
C216 H217 0.961 . S
C216 H218 0.961 . S
C216 H219 0.960 . S
H217 C216 0.961 . S
H218 C216 0.961 . S
H219 C216 0.960 . S
C220 N221 1.342 . S
C220 C224 1.401 . S
C220 C225 1.499 . S
N221 Co204 1.989 . S
N221 C220 1.342 . S
N221 N222 1.388 . S
N222 Co205 1.993 . S
N222 N221 1.388 . S
N222 C223 1.346 . S
C223 N222 1.346 . S
C223 C224 1.396 . S
C223 C233 1.510 . S
C224 C220 1.401 . S
C224 C223 1.396 . S
C225 C220 1.499 . S
C225 H226 0.959 . S
C225 H227 0.960 . S
C225 H228 0.961 . S
H226 C225 0.959 . S
H227 C225 0.960 . S
H228 C225 0.961 . S
O229 Co204 1.967 . S
O229 C237 1.258 . S
O230 Co205 1.941 . S
O230 C237 1.266 . S
H231 C233 0.959 . S
H232 C233 0.961 . S
C233 C223 1.510 . S
C233 H231 0.959 . S
C233 H232 0.961 . S
C233 H234 0.960 . S
H234 C233 0.960 . S
H235 N215 0.862 . S
O236 Co204 1.920 . S
O236 C209 1.289 . S
C237 O229 1.258 . S
C237 O230 1.266 . S
Co238 O241 1.970 . S
Co238 N255 1.989 . S
Co238 O263 1.967 . S
Co238 O270 1.920 . S
Co239 O242 1.966 . S
Co239 N248 2.022 . S
Co239 N256 1.993 . S
Co239 O264 1.941 . S
C240 O241 1.258 . S
C240 O242 1.263 . S
O241 Co238 1.970 . S
O241 C240 1.258 . S
O242 Co239 1.966 . S
O242 C240 1.263 . S
C243 O244 1.235 . S
C243 O270 1.289 . S
O244 C243 1.235 . S
C245 C247 1.400 . S
C245 N248 1.351 . S
C245 C250 1.501 . S
C246 C247 1.387 . S
C246 N249 1.341 . S
C247 C245 1.400 . S
C247 C246 1.387 . S
N248 Co239 2.022 . S
N248 C245 1.351 . S
N248 N249 1.365 . S
N249 C246 1.341 . S
N249 N248 1.365 . S
N249 H269 0.862 . S
C250 C245 1.501 . S
C250 H251 0.961 . S
C250 H252 0.961 . S
C250 H253 0.960 . S
H251 C250 0.961 . S
H252 C250 0.961 . S
H253 C250 0.960 . S
C254 N255 1.342 . S
C254 C258 1.401 . S
C254 C259 1.499 . S
N255 Co238 1.989 . S
N255 C254 1.342 . S
N255 N256 1.388 . S
N256 Co239 1.993 . S
N256 N255 1.388 . S
N256 C257 1.346 . S
C257 N256 1.346 . S
C257 C258 1.396 . S
C257 C267 1.510 . S
C258 C254 1.401 . S
C258 C257 1.396 . S
C259 C254 1.499 . S
C259 H260 0.959 . S
C259 H261 0.960 . S
C259 H262 0.961 . S
H260 C259 0.959 . S
H261 C259 0.960 . S
H262 C259 0.961 . S
O263 Co238 1.967 . S
O263 C271 1.258 . S
O264 Co239 1.941 . S
O264 C271 1.266 . S
H265 C267 0.959 . S
H266 C267 0.961 . S
C267 C257 1.510 . S
C267 H265 0.959 . S
C267 H266 0.961 . S
C267 H268 0.960 . S
H268 C267 0.960 . S
H269 N249 0.862 . S
O270 Co238 1.920 . S
O270 C243 1.289 . S
C271 O263 1.258 . S
C271 O264 1.266 . S
Co272 O275 1.970 . S
Co272 N289 1.989 . S
Co272 O297 1.967 1_545 S
Co272 O304 1.920 . S
Co273 O276 1.966 . S
Co273 N282 2.022 . S
Co273 N290 1.993 1_565 S
Co273 O298 1.941 . S
C274 O275 1.258 1_565 S
C274 O276 1.263 . S
O275 Co272 1.970 . S
O275 C274 1.258 1_545 S
O276 Co273 1.966 . S
O276 C274 1.263 . S
C277 O278 1.235 . S
C277 O304 1.289 . S
O278 C277 1.235 . S
C279 C281 1.400 . S
C279 N282 1.351 1_556 S
C279 C284 1.501 . S
C280 C281 1.387 1_554 S
C280 N283 1.341 . S
C281 C279 1.400 . S
C281 C280 1.387 1_556 S
N282 Co273 2.022 . S
N282 C279 1.351 1_554 S
N282 N283 1.365 . S
N283 C280 1.341 . S
N283 N282 1.365 . S
N283 H303 0.862 . S
C284 C279 1.501 . S
C284 H285 0.961 . S
C284 H286 0.961 . S
C284 H287 0.960 . S
H285 C284 0.961 . S
H286 C284 0.961 . S
H287 C284 0.960 . S
C288 N289 1.342 . S
C288 C292 1.401 . S
C288 C293 1.499 . S
N289 Co272 1.989 . S
N289 C288 1.342 . S
N289 N290 1.388 . S
N290 Co273 1.993 1_545 S
N290 N289 1.388 . S
N290 C291 1.346 . S
C291 N290 1.346 . S
C291 C292 1.396 . S
C291 C301 1.510 1_545 S
C292 C288 1.401 . S
C292 C291 1.396 . S
C293 C288 1.499 . S
C293 H294 0.959 . S
C293 H295 0.960 . S
C293 H296 0.961 . S
H294 C293 0.959 . S
H295 C293 0.960 . S
H296 C293 0.961 . S
O297 Co272 1.967 1_565 S
O297 C305 1.258 . S
O298 Co273 1.941 . S
O298 C305 1.266 . S
H299 C301 0.959 . S
H300 C301 0.961 1_545 S
C301 C291 1.510 1_565 S
C301 H299 0.959 . S
C301 H300 0.961 1_565 S
C301 H302 0.960 . S
H302 C301 0.960 . S
H303 N283 0.862 . S
O304 Co272 1.920 . S
O304 C277 1.289 . S
C305 O297 1.258 . S
C305 O298 1.266 . S
Co306 O309 1.970 . S
Co306 N323 1.989 . S
Co306 O331 1.967 . S
Co306 O338 1.920 . S
Co307 O310 1.966 . S
Co307 N316 2.022 . S
Co307 N324 1.993 . S
Co307 O332 1.941 . S
C308 O309 1.258 . S
C308 O310 1.263 . S
O309 Co306 1.970 . S
O309 C308 1.258 . S
O310 Co307 1.966 . S
O310 C308 1.263 . S
C311 O312 1.235 . S
C311 O338 1.289 . S
O312 C311 1.235 . S
C313 C315 1.400 . S
C313 N316 1.351 . S
C313 C318 1.501 . S
C314 C315 1.387 . S
C314 N317 1.341 . S
C315 C313 1.400 . S
C315 C314 1.387 . S
N316 Co307 2.022 . S
N316 C313 1.351 . S
N316 N317 1.365 . S
N317 C314 1.341 . S
N317 N316 1.365 . S
N317 H337 0.862 . S
C318 C313 1.501 . S
C318 H319 0.961 . S
C318 H320 0.961 . S
C318 H321 0.960 . S
H319 C318 0.961 . S
H320 C318 0.961 . S
H321 C318 0.960 . S
C322 N323 1.342 . S
C322 C326 1.401 . S
C322 C327 1.499 . S
N323 Co306 1.989 . S
N323 C322 1.342 . S
N323 N324 1.388 . S
N324 Co307 1.993 . S
N324 N323 1.388 . S
N324 C325 1.346 . S
C325 N324 1.346 . S
C325 C326 1.396 . S
C325 C335 1.510 . S
C326 C322 1.401 . S
C326 C325 1.396 . S
C327 C322 1.499 . S
C327 H328 0.959 . S
C327 H329 0.960 . S
C327 H330 0.961 . S
H328 C327 0.959 . S
H329 C327 0.960 . S
H330 C327 0.961 . S
O331 Co306 1.967 . S
O331 C339 1.258 . S
O332 Co307 1.941 . S
O332 C339 1.266 . S
H333 C335 0.959 . S
H334 C335 0.961 . S
C335 C325 1.510 . S
C335 H333 0.959 . S
C335 H334 0.961 . S
C335 H336 0.960 . S
H336 C335 0.960 . S
H337 N317 0.862 . S
O338 Co306 1.920 . S
O338 C311 1.289 . S
C339 O331 1.258 . S
C339 O332 1.266 . S
Co340 O343 1.970 . S
Co340 N357 1.989 . S
Co340 O365 1.967 1_565 S
Co340 O372 1.920 . S
Co341 O344 1.966 . S
Co341 N350 2.022 . S
Co341 N358 1.993 1_545 S
Co341 O366 1.941 . S
C342 O343 1.234 1_545 S
C342 O344 1.285 . S
O343 Co340 1.970 . S
O343 C342 1.234 1_565 S
O344 Co341 1.966 . S
O344 C342 1.285 . S
C345 O346 1.235 . S
C345 O372 1.289 . S
O346 C345 1.235 . S
C347 C349 1.400 . S
C347 N350 1.351 . S
C347 C352 1.501 . S
C348 C349 1.387 . S
C348 N351 1.341 . S
C349 C347 1.400 . S
C349 C348 1.387 . S
N350 Co341 2.022 . S
N350 C347 1.351 . S
N350 N351 1.365 . S
N351 C348 1.341 . S
N351 N350 1.365 . S
N351 H371 0.862 . S
C352 C347 1.501 . S
C352 H353 0.961 . S
C352 H354 0.961 . S
C352 H355 0.960 . S
H353 C352 0.961 . S
H354 C352 0.961 . S
H355 C352 0.960 . S
C356 N357 1.342 . S
C356 C360 1.401 . S
C356 C361 1.499 . S
N357 Co340 1.989 . S
N357 C356 1.342 . S
N357 N358 1.388 . S
N358 Co341 1.993 1_565 S
N358 N357 1.388 . S
N358 C359 1.346 . S
C359 N358 1.346 . S
C359 C360 1.396 . S
C359 C369 1.510 1_565 S
C360 C356 1.401 . S
C360 C359 1.396 . S
C361 C356 1.499 . S
C361 H362 0.959 . S
C361 H363 0.960 . S
C361 H364 0.961 . S
H362 C361 0.959 . S
H363 C361 0.960 . S
H364 C361 0.961 . S
O365 Co340 1.967 1_545 S
O365 C373 1.258 . S
O366 Co341 1.941 . S
O366 C373 1.266 . S
H367 C369 0.959 . S
H368 C369 0.961 1_565 S
C369 C359 1.510 1_545 S
C369 H367 0.959 . S
C369 H368 0.961 1_545 S
C369 H370 0.960 . S
H370 C369 0.960 . S
H371 N351 0.862 . S
O372 Co340 1.920 . S
O372 C345 1.289 . S
C373 O365 1.258 . S
C373 O366 1.266 . S
Co374 O377 1.970 . S
Co374 N391 1.989 . S
Co374 O399 1.967 . S
Co374 O406 1.920 . S
Co375 O378 1.966 . S
Co375 N384 2.022 . S
Co375 N392 1.993 . S
Co375 O400 1.941 . S
C376 O377 1.258 . S
C376 O378 1.263 . S
O377 Co374 1.970 . S
O377 C376 1.258 . S
O378 Co375 1.966 . S
O378 C376 1.263 . S
C379 O380 1.235 . S
C379 O406 1.289 . S
O380 C379 1.235 . S
C381 C383 1.400 . S
C381 N384 1.351 . S
C381 C386 1.501 . S
C382 C383 1.387 . S
C382 N385 1.341 . S
C383 C381 1.400 . S
C383 C382 1.387 . S
N384 Co375 2.022 . S
N384 C381 1.351 . S
N384 N385 1.365 . S
N385 C382 1.341 . S
N385 N384 1.365 . S
N385 H405 0.862 . S
C386 C381 1.501 . S
C386 H387 0.961 . S
C386 H388 0.961 . S
C386 H389 0.960 . S
H387 C386 0.961 . S
H388 C386 0.961 . S
H389 C386 0.960 . S
C390 N391 1.342 . S
C390 C394 1.401 . S
C390 C395 1.499 . S
N391 Co374 1.989 . S
N391 C390 1.342 . S
N391 N392 1.388 . S
N392 Co375 1.993 . S
N392 N391 1.388 . S
N392 C393 1.346 . S
C393 N392 1.346 . S
C393 C394 1.396 . S
C393 C403 1.510 . S
C394 C390 1.401 . S
C394 C393 1.396 . S
C395 C390 1.499 . S
C395 H396 0.959 . S
C395 H397 0.960 . S
C395 H398 0.961 . S
H396 C395 0.959 . S
H397 C395 0.960 . S
H398 C395 0.961 . S
O399 Co374 1.967 . S
O399 C407 1.258 . S
O400 Co375 1.941 . S
O400 C407 1.266 . S
H401 C403 0.959 . S
H402 C403 0.961 . S
C403 C393 1.510 . S
C403 H401 0.959 . S
C403 H402 0.961 . S
C403 H404 0.960 . S
H404 C403 0.960 . S
H405 N385 0.862 . S
O406 Co374 1.920 . S
O406 C379 1.289 . S
C407 O399 1.258 . S
C407 O400 1.266 . S
Co408 O411 1.970 . S
Co408 N425 1.989 . S
Co408 O433 1.967 1_565 S
Co408 O440 1.920 . S
Co409 O412 1.966 . S
Co409 N418 2.022 . S
Co409 N426 1.993 1_545 S
Co409 O434 1.941 . S
C410 O411 1.234 1_545 S
C410 O412 1.284 . S
O411 Co408 1.970 . S
O411 C410 1.234 1_565 S
O412 Co409 1.966 . S
O412 C410 1.284 . S
C413 O414 1.235 . S
C413 O440 1.289 . S
O414 C413 1.235 . S
C415 C417 1.400 . S
C415 N418 1.351 . S
C415 C420 1.501 . S
C416 C417 1.387 . S
C416 N419 1.341 . S
C417 C415 1.400 . S
C417 C416 1.387 . S
N418 Co409 2.022 . S
N418 C415 1.351 . S
N418 N419 1.365 . S
N419 C416 1.341 . S
N419 N418 1.365 . S
N419 H439 0.862 . S
C420 C415 1.501 . S
C420 H421 0.961 . S
C420 H422 0.961 . S
C420 H423 0.960 . S
H421 C420 0.961 . S
H422 C420 0.961 . S
H423 C420 0.960 . S
C424 N425 1.342 . S
C424 C428 1.401 . S
C424 C429 1.499 . S
N425 Co408 1.989 . S
N425 C424 1.342 . S
N425 N426 1.388 . S
N426 Co409 1.993 1_565 S
N426 N425 1.388 . S
N426 C427 1.346 . S
C427 N426 1.346 . S
C427 C428 1.396 . S
C427 C437 1.510 1_565 S
C428 C424 1.401 . S
C428 C427 1.396 . S
C429 C424 1.499 . S
C429 H430 0.959 . S
C429 H431 0.960 . S
C429 H432 0.961 . S
H430 C429 0.959 . S
H431 C429 0.960 . S
H432 C429 0.961 . S
O433 Co408 1.967 1_545 S
O433 C441 1.258 . S
O434 Co409 1.941 . S
O434 C441 1.266 . S
H435 C437 0.959 . S
H436 C437 0.961 1_565 S
C437 C427 1.510 1_545 S
C437 H435 0.959 . S
C437 H436 0.961 1_545 S
C437 H438 0.960 . S
H438 C437 0.960 . S
H439 N419 0.862 . S
O440 Co408 1.920 . S
O440 C413 1.289 . S
C441 O433 1.258 . S
C441 O434 1.266 . S
Co442 O445 1.970 . S
Co442 N459 1.989 . S
Co442 O467 1.967 . S
Co442 O474 1.920 . S
Co443 O446 1.966 . S
Co443 N452 2.022 . S
Co443 N460 1.993 . S
Co443 O468 1.941 . S
C444 O445 1.258 . S
C444 O446 1.263 . S
O445 Co442 1.970 . S
O445 C444 1.258 . S
O446 Co443 1.966 . S
O446 C444 1.263 . S
C447 O448 1.235 . S
C447 O474 1.289 . S
O448 C447 1.235 . S
C449 C451 1.400 . S
C449 N452 1.351 . S
C449 C454 1.501 . S
C450 C451 1.387 . S
C450 N453 1.341 . S
C451 C449 1.400 . S
C451 C450 1.387 . S
N452 Co443 2.022 . S
N452 C449 1.351 . S
N452 N453 1.365 . S
N453 C450 1.341 . S
N453 N452 1.365 . S
N453 H473 0.862 . S
C454 C449 1.501 . S
C454 H455 0.961 . S
C454 H456 0.961 . S
C454 H457 0.960 . S
H455 C454 0.961 . S
H456 C454 0.961 . S
H457 C454 0.960 . S
C458 N459 1.342 . S
C458 C462 1.401 . S
C458 C463 1.499 . S
N459 Co442 1.989 . S
N459 C458 1.342 . S
N459 N460 1.388 . S
N460 Co443 1.993 . S
N460 N459 1.388 . S
N460 C461 1.346 . S
C461 N460 1.346 . S
C461 C462 1.396 . S
C461 C471 1.510 . S
C462 C458 1.401 . S
C462 C461 1.396 . S
C463 C458 1.499 . S
C463 H464 0.959 . S
C463 H465 0.960 . S
C463 H466 0.961 . S
H464 C463 0.959 . S
H465 C463 0.960 . S
H466 C463 0.961 . S
O467 Co442 1.967 . S
O467 C475 1.258 . S
O468 Co443 1.941 . S
O468 C475 1.266 . S
H469 C471 0.959 . S
H470 C471 0.961 . S
C471 C461 1.510 . S
C471 H469 0.959 . S
C471 H470 0.961 . S
C471 H472 0.960 . S
H472 C471 0.960 . S
H473 N453 0.862 . S
O474 Co442 1.920 . S
O474 C447 1.289 . S
C475 O467 1.258 . S
C475 O468 1.266 . S
Co476 O479 1.970 . S
Co476 N493 1.989 . S
Co476 O501 1.967 1_545 S
Co476 O508 1.920 . S
Co477 O480 1.966 . S
Co477 N486 2.022 . S
Co477 N494 1.993 1_565 S
Co477 O502 1.941 . S
C478 O479 1.258 1_565 S
C478 O480 1.263 . S
O479 Co476 1.970 . S
O479 C478 1.258 1_545 S
O480 Co477 1.966 . S
O480 C478 1.263 . S
C481 O482 1.235 . S
C481 O508 1.289 . S
O482 C481 1.235 . S
C483 C485 1.400 . S
C483 N486 1.351 1_554 S
C483 C488 1.501 . S
C484 C485 1.387 1_556 S
C484 N487 1.341 . S
C485 C483 1.400 . S
C485 C484 1.387 1_554 S
N486 Co477 2.022 . S
N486 C483 1.351 1_556 S
N486 N487 1.365 . S
N487 C484 1.341 . S
N487 N486 1.365 . S
N487 H507 0.862 . S
C488 C483 1.501 . S
C488 H489 0.961 . S
C488 H490 0.961 . S
C488 H491 0.960 . S
H489 C488 0.961 . S
H490 C488 0.961 . S
H491 C488 0.960 . S
C492 N493 1.342 . S
C492 C496 1.401 . S
C492 C497 1.499 . S
N493 Co476 1.989 . S
N493 C492 1.342 . S
N493 N494 1.388 . S
N494 Co477 1.993 1_545 S
N494 N493 1.388 . S
N494 C495 1.346 . S
C495 N494 1.346 . S
C495 C496 1.396 . S
C495 C505 1.510 1_545 S
C496 C492 1.401 . S
C496 C495 1.396 . S
C497 C492 1.499 . S
C497 H498 0.959 . S
C497 H499 0.960 . S
C497 H500 0.961 . S
H498 C497 0.959 . S
H499 C497 0.960 . S
H500 C497 0.961 . S
O501 Co476 1.967 1_565 S
O501 C509 1.258 . S
O502 Co477 1.941 . S
O502 C509 1.266 . S
H503 C505 0.959 . S
H504 C505 0.961 1_545 S
C505 C495 1.510 1_565 S
C505 H503 0.959 . S
C505 H504 0.961 1_565 S
C505 H506 0.960 . S
H506 C505 0.960 . S
H507 N487 0.862 . S
O508 Co476 1.920 . S
O508 C481 1.289 . S
C509 O501 1.258 . S
C509 O502 1.266 . S
Co510 O513 1.970 . S
Co510 N527 1.989 . S
Co510 O535 1.967 . S
Co510 O542 1.920 . S
Co511 O514 1.966 . S
Co511 N520 2.022 . S
Co511 N528 1.993 . S
Co511 O536 1.941 . S
C512 O513 1.258 . S
C512 O514 1.263 . S
O513 Co510 1.970 . S
O513 C512 1.258 . S
O514 Co511 1.966 . S
O514 C512 1.263 . S
C515 O516 1.235 . S
C515 O542 1.289 . S
O516 C515 1.235 . S
C517 C519 1.400 . S
C517 N520 1.351 . S
C517 C522 1.501 . S
C518 C519 1.387 . S
C518 N521 1.341 . S
C519 C517 1.400 . S
C519 C518 1.387 . S
N520 Co511 2.022 . S
N520 C517 1.351 . S
N520 N521 1.365 . S
N521 C518 1.341 . S
N521 N520 1.365 . S
N521 H541 0.862 . S
C522 C517 1.501 . S
C522 H523 0.961 . S
C522 H524 0.961 . S
C522 H525 0.960 . S
H523 C522 0.961 . S
H524 C522 0.961 . S
H525 C522 0.960 . S
C526 N527 1.342 . S
C526 C530 1.401 . S
C526 C531 1.499 . S
N527 Co510 1.989 . S
N527 C526 1.342 . S
N527 N528 1.388 . S
N528 Co511 1.993 . S
N528 N527 1.388 . S
N528 C529 1.346 . S
C529 N528 1.346 . S
C529 C530 1.396 . S
C529 C539 1.510 . S
C530 C526 1.401 . S
C530 C529 1.396 . S
C531 C526 1.499 . S
C531 H532 0.959 . S
C531 H533 0.960 . S
C531 H534 0.961 . S
H532 C531 0.959 . S
H533 C531 0.960 . S
H534 C531 0.961 . S
O535 Co510 1.967 . S
O535 C543 1.258 . S
O536 Co511 1.941 . S
O536 C543 1.266 . S
H537 C539 0.959 . S
H538 C539 0.961 . S
C539 C529 1.510 . S
C539 H537 0.959 . S
C539 H538 0.961 . S
C539 H540 0.960 . S
H540 C539 0.960 . S
H541 N521 0.862 . S
O542 Co510 1.920 . S
O542 C515 1.289 . S
C543 O535 1.258 . S
C543 O536 1.266 . S
Co544 O547 1.970 . S
Co544 N561 1.989 . S
Co544 O569 1.967 1_554 S
Co544 O576 1.920 . S
Co545 O548 1.966 . S
Co545 N554 2.022 . S
Co545 N562 1.993 1_556 S
Co545 O570 1.941 . S
C546 O547 1.258 1_556 S
C546 O548 1.263 . S
O547 Co544 1.970 . S
O547 C546 1.258 1_554 S
O548 Co545 1.966 . S
O548 C546 1.263 . S
C549 O550 1.235 . S
C549 O576 1.289 . S
O550 C549 1.235 . S
C551 C553 1.400 . S
C551 N554 1.351 1_655 S
C551 C556 1.501 . S
C552 C553 1.387 1_455 S
C552 N555 1.341 . S
C553 C551 1.400 . S
C553 C552 1.387 1_655 S
N554 Co545 2.022 . S
N554 C551 1.351 1_455 S
N554 N555 1.365 . S
N555 C552 1.341 . S
N555 N554 1.365 . S
N555 H575 0.862 . S
C556 C551 1.501 . S
C556 H557 0.961 . S
C556 H558 0.961 . S
C556 H559 0.960 . S
H557 C556 0.961 . S
H558 C556 0.961 . S
H559 C556 0.960 . S
C560 N561 1.342 . S
C560 C564 1.401 . S
C560 C565 1.499 . S
N561 Co544 1.989 . S
N561 C560 1.342 . S
N561 N562 1.388 . S
N562 Co545 1.993 1_554 S
N562 N561 1.388 . S
N562 C563 1.346 . S
C563 N562 1.346 . S
C563 C564 1.396 . S
C563 C573 1.510 1_554 S
C564 C560 1.401 . S
C564 C563 1.396 . S
C565 C560 1.499 . S
C565 H566 0.959 . S
C565 H567 0.960 . S
C565 H568 0.961 . S
H566 C565 0.959 . S
H567 C565 0.960 . S
H568 C565 0.961 . S
O569 Co544 1.967 1_556 S
O569 C577 1.258 . S
O570 Co545 1.941 . S
O570 C577 1.266 . S
H571 C573 0.959 . S
H572 C573 0.961 1_554 S
C573 C563 1.510 1_556 S
C573 H571 0.959 . S
C573 H572 0.961 1_556 S
C573 H574 0.960 . S
H574 C573 0.960 . S
H575 N555 0.862 . S
O576 Co544 1.920 . S
O576 C549 1.289 . S
C577 O569 1.258 . S
C577 O570 1.266 . S
Co578 O581 1.970 . S
Co578 N595 1.989 . S
Co578 O603 1.967 1_556 S
Co578 O610 1.920 . S
Co579 O582 1.966 . S
Co579 N588 2.022 . S
Co579 N596 1.993 1_554 S
Co579 O604 1.941 . S
C580 O581 1.234 1_554 S
C580 O582 1.285 . S
O581 Co578 1.970 . S
O581 C580 1.234 1_556 S
O582 Co579 1.966 . S
O582 C580 1.285 . S
C583 O584 1.235 . S
C583 O610 1.289 . S
O584 C583 1.235 . S
C585 C587 1.400 . S
C585 N588 1.351 . S
C585 C590 1.501 . S
C586 C587 1.387 . S
C586 N589 1.341 . S
C587 C585 1.400 . S
C587 C586 1.387 . S
N588 Co579 2.022 . S
N588 C585 1.351 . S
N588 N589 1.365 . S
N589 C586 1.341 . S
N589 N588 1.365 . S
N589 H609 0.862 . S
C590 C585 1.501 . S
C590 H591 0.961 . S
C590 H592 0.961 . S
C590 H593 0.960 . S
H591 C590 0.961 . S
H592 C590 0.961 . S
H593 C590 0.960 . S
C594 N595 1.342 . S
C594 C598 1.401 . S
C594 C599 1.499 . S
N595 Co578 1.989 . S
N595 C594 1.342 . S
N595 N596 1.388 . S
N596 Co579 1.993 1_556 S
N596 N595 1.388 . S
N596 C597 1.346 . S
C597 N596 1.346 . S
C597 C598 1.396 . S
C597 C607 1.510 1_556 S
C598 C594 1.401 . S
C598 C597 1.396 . S
C599 C594 1.499 . S
C599 H600 0.959 . S
C599 H601 0.960 . S
C599 H602 0.961 . S
H600 C599 0.959 . S
H601 C599 0.960 . S
H602 C599 0.961 . S
O603 Co578 1.967 1_554 S
O603 C611 1.258 . S
O604 Co579 1.941 . S
O604 C611 1.266 . S
H605 C607 0.959 . S
H606 C607 0.961 1_556 S
C607 C597 1.510 1_554 S
C607 H605 0.959 . S
C607 H606 0.961 1_554 S
C607 H608 0.960 . S
H608 C607 0.960 . S
H609 N589 0.862 . S
O610 Co578 1.920 . S
O610 C583 1.289 . S
C611 O603 1.258 . S
C611 O604 1.266 . S
Co612 O615 1.970 . S
Co612 N629 1.989 . S
Co612 O637 1.967 . S
Co612 O644 1.920 . S
Co613 O616 1.966 . S
Co613 N622 2.022 . S
Co613 N630 1.993 . S
Co613 O638 1.941 . S
C614 O615 1.258 . S
C614 O616 1.263 . S
O615 Co612 1.970 . S
O615 C614 1.258 . S
O616 Co613 1.966 . S
O616 C614 1.263 . S
C617 O618 1.235 . S
C617 O644 1.289 . S
O618 C617 1.235 . S
C619 C621 1.400 . S
C619 N622 1.351 . S
C619 C624 1.501 . S
C620 C621 1.387 . S
C620 N623 1.341 . S
C621 C619 1.400 . S
C621 C620 1.387 . S
N622 Co613 2.022 . S
N622 C619 1.351 . S
N622 N623 1.365 . S
N623 C620 1.341 . S
N623 N622 1.365 . S
N623 H643 0.862 . S
C624 C619 1.501 . S
C624 H625 0.961 . S
C624 H626 0.961 . S
C624 H627 0.960 . S
H625 C624 0.961 . S
H626 C624 0.961 . S
H627 C624 0.960 . S
C628 N629 1.342 . S
C628 C632 1.401 . S
C628 C633 1.499 . S
N629 Co612 1.989 . S
N629 C628 1.342 . S
N629 N630 1.388 . S
N630 Co613 1.993 . S
N630 N629 1.388 . S
N630 C631 1.346 . S
C631 N630 1.346 . S
C631 C632 1.396 . S
C631 C641 1.510 . S
C632 C628 1.401 . S
C632 C631 1.396 . S
C633 C628 1.499 . S
C633 H634 0.959 . S
C633 H635 0.960 . S
C633 H636 0.961 . S
H634 C633 0.959 . S
H635 C633 0.960 . S
H636 C633 0.961 . S
O637 Co612 1.967 . S
O637 C645 1.258 . S
O638 Co613 1.941 . S
O638 C645 1.266 . S
H639 C641 0.959 . S
H640 C641 0.961 . S
C641 C631 1.510 . S
C641 H639 0.959 . S
C641 H640 0.961 . S
C641 H642 0.960 . S
H642 C641 0.960 . S
H643 N623 0.862 . S
O644 Co612 1.920 . S
O644 C617 1.289 . S
C645 O637 1.258 . S
C645 O638 1.266 . S
Co646 O649 1.970 . S
Co646 N663 1.989 . S
Co646 O671 1.967 . S
Co646 O678 1.920 . S
Co647 O650 1.966 . S
Co647 N656 2.022 . S
Co647 N664 1.993 . S
Co647 O672 1.941 . S
C648 O649 1.258 . S
C648 O650 1.263 . S
O649 Co646 1.970 . S
O649 C648 1.258 . S
O650 Co647 1.966 . S
O650 C648 1.263 . S
C651 O652 1.235 . S
C651 O678 1.289 . S
O652 C651 1.235 . S
C653 C655 1.400 . S
C653 N656 1.351 1_455 S
C653 C658 1.501 . S
C654 C655 1.387 1_655 S
C654 N657 1.341 . S
C655 C653 1.400 . S
C655 C654 1.387 1_455 S
N656 Co647 2.022 . S
N656 C653 1.351 1_655 S
N656 N657 1.365 . S
N657 C654 1.341 . S
N657 N656 1.365 . S
N657 H677 0.862 . S
C658 C653 1.501 . S
C658 H659 0.961 . S
C658 H660 0.961 . S
C658 H661 0.960 . S
H659 C658 0.961 . S
H660 C658 0.961 . S
H661 C658 0.960 . S
C662 N663 1.342 . S
C662 C666 1.401 . S
C662 C667 1.499 . S
N663 Co646 1.989 . S
N663 C662 1.342 . S
N663 N664 1.388 . S
N664 Co647 1.993 . S
N664 N663 1.388 . S
N664 C665 1.346 . S
C665 N664 1.346 . S
C665 C666 1.396 . S
C665 C675 1.510 . S
C666 C662 1.401 . S
C666 C665 1.396 . S
C667 C662 1.499 . S
C667 H668 0.959 . S
C667 H669 0.960 . S
C667 H670 0.961 . S
H668 C667 0.959 . S
H669 C667 0.960 . S
H670 C667 0.961 . S
O671 Co646 1.967 . S
O671 C679 1.258 . S
O672 Co647 1.941 . S
O672 C679 1.266 . S
H673 C675 0.959 . S
H674 C675 0.961 . S
C675 C665 1.510 . S
C675 H673 0.959 . S
C675 H674 0.961 . S
C675 H676 0.960 . S
H676 C675 0.960 . S
H677 N657 0.862 . S
O678 Co646 1.920 . S
O678 C651 1.289 . S
C679 O671 1.258 . S
C679 O672 1.266 . S
Co680 O683 1.970 . S
Co680 N697 1.989 . S
Co680 O705 1.967 . S
Co680 O712 1.920 . S
Co681 O684 1.966 . S
Co681 N690 2.022 . S
Co681 N698 1.993 . S
Co681 O706 1.941 . S
C682 O683 1.258 . S
C682 O684 1.263 . S
O683 Co680 1.970 . S
O683 C682 1.258 . S
O684 Co681 1.966 . S
O684 C682 1.263 . S
C685 O686 1.235 . S
C685 O712 1.289 . S
O686 C685 1.235 . S
C687 C689 1.400 . S
C687 N690 1.351 . S
C687 C692 1.501 . S
C688 C689 1.387 . S
C688 N691 1.341 . S
C689 C687 1.400 . S
C689 C688 1.387 . S
N690 Co681 2.022 . S
N690 C687 1.351 . S
N690 N691 1.365 . S
N691 C688 1.341 . S
N691 N690 1.365 . S
N691 H711 0.862 . S
C692 C687 1.501 . S
C692 H693 0.961 . S
C692 H694 0.961 . S
C692 H695 0.960 . S
H693 C692 0.961 . S
H694 C692 0.961 . S
H695 C692 0.960 . S
C696 N697 1.342 . S
C696 C700 1.401 . S
C696 C701 1.499 . S
N697 Co680 1.989 . S
N697 C696 1.342 . S
N697 N698 1.388 . S
N698 Co681 1.993 . S
N698 N697 1.388 . S
N698 C699 1.346 . S
C699 N698 1.346 . S
C699 C700 1.396 . S
C699 C709 1.510 . S
C700 C696 1.401 . S
C700 C699 1.396 . S
C701 C696 1.499 . S
C701 H702 0.959 . S
C701 H703 0.960 . S
C701 H704 0.961 . S
H702 C701 0.959 . S
H703 C701 0.960 . S
H704 C701 0.961 . S
O705 Co680 1.967 . S
O705 C713 1.258 . S
O706 Co681 1.941 . S
O706 C713 1.266 . S
H707 C709 0.959 . S
H708 C709 0.961 . S
C709 C699 1.510 . S
C709 H707 0.959 . S
C709 H708 0.961 . S
C709 H710 0.960 . S
H710 C709 0.960 . S
H711 N691 0.862 . S
O712 Co680 1.920 . S
O712 C685 1.289 . S
C713 O705 1.258 . S
C713 O706 1.266 . S
Co714 O717 1.970 . S
Co714 N731 1.989 . S
Co714 O739 1.967 . S
Co714 O746 1.920 . S
Co715 O718 1.966 . S
Co715 N724 2.022 . S
Co715 N732 1.993 . S
Co715 O740 1.941 . S
C716 O717 1.258 . S
C716 O718 1.263 . S
O717 Co714 1.970 . S
O717 C716 1.258 . S
O718 Co715 1.966 . S
O718 C716 1.263 . S
C719 O720 1.235 . S
C719 O746 1.289 . S
O720 C719 1.235 . S
C721 C723 1.400 . S
C721 N724 1.351 . S
C721 C726 1.501 . S
C722 C723 1.387 . S
C722 N725 1.341 . S
C723 C721 1.400 . S
C723 C722 1.387 . S
N724 Co715 2.022 . S
N724 C721 1.351 . S
N724 N725 1.365 . S
N725 C722 1.341 . S
N725 N724 1.365 . S
N725 H745 0.862 . S
C726 C721 1.501 . S
C726 H727 0.961 . S
C726 H728 0.961 . S
C726 H729 0.960 . S
H727 C726 0.961 . S
H728 C726 0.961 . S
H729 C726 0.960 . S
C730 N731 1.342 . S
C730 C734 1.401 . S
C730 C735 1.499 . S
N731 Co714 1.989 . S
N731 C730 1.342 . S
N731 N732 1.388 . S
N732 Co715 1.993 . S
N732 N731 1.388 . S
N732 C733 1.346 . S
C733 N732 1.346 . S
C733 C734 1.396 . S
C733 C743 1.510 . S
C734 C730 1.401 . S
C734 C733 1.396 . S
C735 C730 1.499 . S
C735 H736 0.959 . S
C735 H737 0.960 . S
C735 H738 0.961 . S
H736 C735 0.959 . S
H737 C735 0.960 . S
H738 C735 0.961 . S
O739 Co714 1.967 . S
O739 C747 1.258 . S
O740 Co715 1.941 . S
O740 C747 1.266 . S
H741 C743 0.959 . S
H742 C743 0.961 . S
C743 C733 1.510 . S
C743 H741 0.959 . S
C743 H742 0.961 . S
C743 H744 0.960 . S
H744 C743 0.960 . S
H745 N725 0.862 . S
O746 Co714 1.920 . S
O746 C719 1.289 . S
C747 O739 1.258 . S
C747 O740 1.266 . S
Co748 O751 1.970 . S
Co748 N765 1.989 . S
Co748 O773 1.967 . S
Co748 O780 1.920 . S
Co749 O752 1.966 . S
Co749 N758 2.022 . S
Co749 N766 1.993 . S
Co749 O774 1.941 . S
C750 O751 1.258 . S
C750 O752 1.263 . S
O751 Co748 1.970 . S
O751 C750 1.258 . S
O752 Co749 1.966 . S
O752 C750 1.263 . S
C753 O754 1.235 . S
C753 O780 1.289 . S
O754 C753 1.235 . S
C755 C757 1.400 . S
C755 N758 1.351 . S
C755 C760 1.501 . S
C756 C757 1.387 . S
C756 N759 1.341 . S
C757 C755 1.400 . S
C757 C756 1.387 . S
N758 Co749 2.022 . S
N758 C755 1.351 . S
N758 N759 1.365 . S
N759 C756 1.341 . S
N759 N758 1.365 . S
N759 H779 0.862 . S
C760 C755 1.501 . S
C760 H761 0.961 . S
C760 H762 0.961 . S
C760 H763 0.960 . S
H761 C760 0.961 . S
H762 C760 0.961 . S
H763 C760 0.960 . S
C764 N765 1.342 . S
C764 C768 1.401 . S
C764 C769 1.499 . S
N765 Co748 1.989 . S
N765 C764 1.342 . S
N765 N766 1.388 . S
N766 Co749 1.993 . S
N766 N765 1.388 . S
N766 C767 1.346 . S
C767 N766 1.346 . S
C767 C768 1.396 . S
C767 C777 1.510 . S
C768 C764 1.401 . S
C768 C767 1.396 . S
C769 C764 1.499 . S
C769 H770 0.959 . S
C769 H771 0.960 . S
C769 H772 0.961 . S
H770 C769 0.959 . S
H771 C769 0.960 . S
H772 C769 0.961 . S
O773 Co748 1.967 . S
O773 C781 1.258 . S
O774 Co749 1.941 . S
O774 C781 1.266 . S
H775 C777 0.959 . S
H776 C777 0.961 . S
C777 C767 1.510 . S
C777 H775 0.959 . S
C777 H776 0.961 . S
C777 H778 0.960 . S
H778 C777 0.960 . S
H779 N759 0.862 . S
O780 Co748 1.920 . S
O780 C753 1.289 . S
C781 O773 1.258 . S
C781 O774 1.266 . S
Co782 O785 1.970 . S
Co782 N799 1.989 . S
Co782 O807 1.967 . S
Co782 O814 1.920 . S
Co783 O786 1.966 . S
Co783 N792 2.022 . S
Co783 N800 1.993 . S
Co783 O808 1.941 . S
C784 O785 1.258 . S
C784 O786 1.263 . S
O785 Co782 1.970 . S
O785 C784 1.258 . S
O786 Co783 1.966 . S
O786 C784 1.263 . S
C787 O788 1.235 . S
C787 O814 1.289 . S
O788 C787 1.235 . S
C789 C791 1.400 . S
C789 N792 1.351 . S
C789 C794 1.501 . S
C790 C791 1.387 . S
C790 N793 1.341 . S
C791 C789 1.400 . S
C791 C790 1.387 . S
N792 Co783 2.022 . S
N792 C789 1.351 . S
N792 N793 1.365 . S
N793 C790 1.341 . S
N793 N792 1.365 . S
N793 H813 0.862 . S
C794 C789 1.501 . S
C794 H795 0.961 . S
C794 H796 0.961 . S
C794 H797 0.960 . S
H795 C794 0.961 . S
H796 C794 0.961 . S
H797 C794 0.960 . S
C798 N799 1.342 . S
C798 C802 1.401 . S
C798 C803 1.499 . S
N799 Co782 1.989 . S
N799 C798 1.342 . S
N799 N800 1.388 . S
N800 Co783 1.993 . S
N800 N799 1.388 . S
N800 C801 1.346 . S
C801 N800 1.346 . S
C801 C802 1.396 . S
C801 C811 1.510 . S
C802 C798 1.401 . S
C802 C801 1.396 . S
C803 C798 1.499 . S
C803 H804 0.959 . S
C803 H805 0.960 . S
C803 H806 0.961 . S
H804 C803 0.959 . S
H805 C803 0.960 . S
H806 C803 0.961 . S
O807 Co782 1.967 . S
O807 C815 1.258 . S
O808 Co783 1.941 . S
O808 C815 1.266 . S
H809 C811 0.959 . S
H810 C811 0.961 . S
C811 C801 1.510 . S
C811 H809 0.959 . S
C811 H810 0.961 . S
C811 H812 0.960 . S
H812 C811 0.960 . S
H813 N793 0.862 . S
O814 Co782 1.920 . S
O814 C787 1.289 . S
C815 O807 1.258 . S
C815 O808 1.266 . S
Co816 O819 1.970 . S
Co816 N833 1.989 . S
Co816 O841 1.967 . S
Co816 O848 1.920 . S
Co817 O820 1.966 . S
Co817 N826 2.022 . S
Co817 N834 1.993 . S
Co817 O842 1.941 . S
C818 O819 1.258 . S
C818 O820 1.263 . S
O819 Co816 1.970 . S
O819 C818 1.258 . S
O820 Co817 1.966 . S
O820 C818 1.263 . S
C821 O822 1.235 . S
C821 O848 1.289 . S
O822 C821 1.235 . S
C823 C825 1.400 . S
C823 N826 1.351 . S
C823 C828 1.501 . S
C824 C825 1.387 . S
C824 N827 1.341 . S
C825 C823 1.400 . S
C825 C824 1.387 . S
N826 Co817 2.022 . S
N826 C823 1.351 . S
N826 N827 1.365 . S
N827 C824 1.341 . S
N827 N826 1.365 . S
N827 H847 0.862 . S
C828 C823 1.501 . S
C828 H829 0.961 . S
C828 H830 0.961 . S
C828 H831 0.960 . S
H829 C828 0.961 . S
H830 C828 0.961 . S
H831 C828 0.960 . S
C832 N833 1.342 . S
C832 C836 1.401 . S
C832 C837 1.499 . S
N833 Co816 1.989 . S
N833 C832 1.342 . S
N833 N834 1.388 . S
N834 Co817 1.993 . S
N834 N833 1.388 . S
N834 C835 1.346 . S
C835 N834 1.346 . S
C835 C836 1.396 . S
C835 C845 1.510 . S
C836 C832 1.401 . S
C836 C835 1.396 . S
C837 C832 1.499 . S
C837 H838 0.959 . S
C837 H839 0.960 . S
C837 H840 0.961 . S
H838 C837 0.959 . S
H839 C837 0.960 . S
H840 C837 0.961 . S
O841 Co816 1.967 . S
O841 C849 1.258 . S
O842 Co817 1.941 . S
O842 C849 1.266 . S
H843 C845 0.959 . S
H844 C845 0.961 . S
C845 C835 1.510 . S
C845 H843 0.959 . S
C845 H844 0.961 . S
C845 H846 0.960 . S
H846 C845 0.960 . S
H847 N827 0.862 . S
O848 Co816 1.920 . S
O848 C821 1.289 . S
C849 O841 1.258 . S
C849 O842 1.266 . S
Co850 O853 1.970 . S
Co850 N867 1.989 . S
Co850 O875 1.967 . S
Co850 O882 1.920 . S
Co851 O854 1.966 . S
Co851 N860 2.022 . S
Co851 N868 1.993 . S
Co851 O876 1.941 . S
C852 O853 1.258 . S
C852 O854 1.263 . S
O853 Co850 1.970 . S
O853 C852 1.258 . S
O854 Co851 1.966 . S
O854 C852 1.263 . S
C855 O856 1.235 . S
C855 O882 1.289 . S
O856 C855 1.235 . S
C857 C859 1.400 . S
C857 N860 1.351 . S
C857 C862 1.501 . S
C858 C859 1.387 . S
C858 N861 1.341 . S
C859 C857 1.400 . S
C859 C858 1.387 . S
N860 Co851 2.022 . S
N860 C857 1.351 . S
N860 N861 1.365 . S
N861 C858 1.341 . S
N861 N860 1.365 . S
N861 H881 0.862 . S
C862 C857 1.501 . S
C862 H863 0.961 . S
C862 H864 0.961 . S
C862 H865 0.960 . S
H863 C862 0.961 . S
H864 C862 0.961 . S
H865 C862 0.960 . S
C866 N867 1.342 . S
C866 C870 1.401 . S
C866 C871 1.499 . S
N867 Co850 1.989 . S
N867 C866 1.342 . S
N867 N868 1.388 . S
N868 Co851 1.993 . S
N868 N867 1.388 . S
N868 C869 1.346 . S
C869 N868 1.346 . S
C869 C870 1.396 . S
C869 C879 1.510 . S
C870 C866 1.401 . S
C870 C869 1.396 . S
C871 C866 1.499 . S
C871 H872 0.959 . S
C871 H873 0.960 . S
C871 H874 0.961 . S
H872 C871 0.959 . S
H873 C871 0.960 . S
H874 C871 0.961 . S
O875 Co850 1.967 . S
O875 C883 1.258 . S
O876 Co851 1.941 . S
O876 C883 1.266 . S
H877 C879 0.959 . S
H878 C879 0.961 . S
C879 C869 1.510 . S
C879 H877 0.959 . S
C879 H878 0.961 . S
C879 H880 0.960 . S
H880 C879 0.960 . S
H881 N861 0.862 . S
O882 Co850 1.920 . S
O882 C855 1.289 . S
C883 O875 1.258 . S
C883 O876 1.266 . S
Co884 O887 1.970 . S
Co884 N901 1.989 . S
Co884 O909 1.967 1_655 S
Co884 O916 1.920 . S
Co885 O888 1.966 . S
Co885 N894 2.022 . S
Co885 N902 1.993 1_455 S
Co885 O910 1.941 . S
C886 O887 1.234 1_455 S
C886 O888 1.284 . S
O887 Co884 1.970 . S
O887 C886 1.234 1_655 S
O888 Co885 1.966 . S
O888 C886 1.284 . S
C889 O890 1.235 . S
C889 O916 1.289 . S
O890 C889 1.235 . S
C891 C893 1.400 . S
C891 N894 1.351 . S
C891 C896 1.501 . S
C892 C893 1.387 . S
C892 N895 1.341 . S
C893 C891 1.400 . S
C893 C892 1.387 . S
N894 Co885 2.022 . S
N894 C891 1.351 . S
N894 N895 1.365 . S
N895 C892 1.341 . S
N895 N894 1.365 . S
N895 H915 0.862 . S
C896 C891 1.501 . S
C896 H897 0.961 . S
C896 H898 0.961 . S
C896 H899 0.960 . S
H897 C896 0.961 . S
H898 C896 0.961 . S
H899 C896 0.960 . S
C900 N901 1.342 . S
C900 C904 1.401 . S
C900 C905 1.499 . S
N901 Co884 1.989 . S
N901 C900 1.342 . S
N901 N902 1.388 . S
N902 Co885 1.993 1_655 S
N902 N901 1.388 . S
N902 C903 1.346 . S
C903 N902 1.346 . S
C903 C904 1.396 . S
C903 C913 1.510 1_655 S
C904 C900 1.401 . S
C904 C903 1.396 . S
C905 C900 1.499 . S
C905 H906 0.959 . S
C905 H907 0.960 . S
C905 H908 0.961 . S
H906 C905 0.959 . S
H907 C905 0.960 . S
H908 C905 0.961 . S
O909 Co884 1.967 1_455 S
O909 C917 1.258 . S
O910 Co885 1.941 . S
O910 C917 1.266 . S
H911 C913 0.959 . S
H912 C913 0.961 1_655 S
C913 C903 1.510 1_455 S
C913 H911 0.959 . S
C913 H912 0.961 1_455 S
C913 H914 0.960 . S
H914 C913 0.960 . S
H915 N895 0.862 . S
O916 Co884 1.920 . S
O916 C889 1.289 . S
C917 O909 1.258 . S
C917 O910 1.266 . S
Co918 O921 1.970 . S
Co918 N935 1.989 . S
Co918 O943 1.967 . S
Co918 O950 1.920 . S
Co919 O922 1.966 . S
Co919 N928 2.022 . S
Co919 N936 1.993 . S
Co919 O944 1.941 . S
C920 O921 1.258 . S
C920 O922 1.263 . S
O921 Co918 1.970 . S
O921 C920 1.258 . S
O922 Co919 1.966 . S
O922 C920 1.263 . S
C923 O924 1.235 . S
C923 O950 1.289 . S
O924 C923 1.235 . S
C925 C927 1.400 . S
C925 N928 1.351 . S
C925 C930 1.501 . S
C926 C927 1.387 . S
C926 N929 1.341 . S
C927 C925 1.400 . S
C927 C926 1.387 . S
N928 Co919 2.022 . S
N928 C925 1.351 . S
N928 N929 1.365 . S
N929 C926 1.341 . S
N929 N928 1.365 . S
N929 H949 0.862 . S
C930 C925 1.501 . S
C930 H931 0.961 . S
C930 H932 0.961 . S
C930 H933 0.960 . S
H931 C930 0.961 . S
H932 C930 0.961 . S
H933 C930 0.960 . S
C934 N935 1.342 . S
C934 C938 1.401 . S
C934 C939 1.499 . S
N935 Co918 1.989 . S
N935 C934 1.342 . S
N935 N936 1.388 . S
N936 Co919 1.993 . S
N936 N935 1.388 . S
N936 C937 1.346 . S
C937 N936 1.346 . S
C937 C938 1.396 . S
C937 C947 1.510 . S
C938 C934 1.401 . S
C938 C937 1.396 . S
C939 C934 1.499 . S
C939 H940 0.959 . S
C939 H941 0.960 . S
C939 H942 0.961 . S
H940 C939 0.959 . S
H941 C939 0.960 . S
H942 C939 0.961 . S
O943 Co918 1.967 . S
O943 C951 1.258 . S
O944 Co919 1.941 . S
O944 C951 1.266 . S
H945 C947 0.959 . S
H946 C947 0.961 . S
C947 C937 1.510 . S
C947 H945 0.959 . S
C947 H946 0.961 . S
C947 H948 0.960 . S
H948 C947 0.960 . S
H949 N929 0.862 . S
O950 Co918 1.920 . S
O950 C923 1.289 . S
C951 O943 1.258 . S
C951 O944 1.266 . S
Co952 O955 1.970 . S
Co952 N969 1.989 . S
Co952 O977 1.967 . S
Co952 O984 1.920 . S
Co953 O956 1.966 . S
Co953 N962 2.022 . S
Co953 N970 1.993 . S
Co953 O978 1.941 . S
C954 O955 1.258 . S
C954 O956 1.263 . S
O955 Co952 1.970 . S
O955 C954 1.258 . S
O956 Co953 1.966 . S
O956 C954 1.263 . S
C957 O958 1.235 . S
C957 O984 1.289 . S
O958 C957 1.235 . S
C959 C961 1.400 . S
C959 N962 1.351 . S
C959 C964 1.501 . S
C960 C961 1.387 . S
C960 N963 1.341 . S
C961 C959 1.400 . S
C961 C960 1.387 . S
N962 Co953 2.022 . S
N962 C959 1.351 . S
N962 N963 1.365 . S
N963 C960 1.341 . S
N963 N962 1.365 . S
N963 H983 0.862 . S
C964 C959 1.501 . S
C964 H965 0.961 . S
C964 H966 0.961 . S
C964 H967 0.960 . S
H965 C964 0.961 . S
H966 C964 0.961 . S
H967 C964 0.960 . S
C968 N969 1.342 . S
C968 C972 1.401 . S
C968 C973 1.499 . S
N969 Co952 1.989 . S
N969 C968 1.342 . S
N969 N970 1.388 . S
N970 Co953 1.993 . S
N970 N969 1.388 . S
N970 C971 1.346 . S
C971 N970 1.346 . S
C971 C972 1.396 . S
C971 C981 1.510 . S
C972 C968 1.401 . S
C972 C971 1.396 . S
C973 C968 1.499 . S
C973 H974 0.959 . S
C973 H975 0.960 . S
C973 H976 0.961 . S
H974 C973 0.959 . S
H975 C973 0.960 . S
H976 C973 0.961 . S
O977 Co952 1.967 . S
O977 C985 1.258 . S
O978 Co953 1.941 . S
O978 C985 1.266 . S
H979 C981 0.959 . S
H980 C981 0.961 . S
C981 C971 1.510 . S
C981 H979 0.959 . S
C981 H980 0.961 . S
C981 H982 0.960 . S
H982 C981 0.960 . S
H983 N963 0.862 . S
O984 Co952 1.920 . S
O984 C957 1.289 . S
C985 O977 1.258 . S
C985 O978 1.266 . S
Co986 O989 1.970 . S
Co986 N1003 1.989 . S
Co986 O1011 1.967 . S
Co986 O1018 1.920 . S
Co987 O990 1.966 . S
Co987 N996 2.022 . S
Co987 N1004 1.993 . S
Co987 O1012 1.941 . S
C988 O989 1.258 . S
C988 O990 1.263 . S
O989 Co986 1.970 . S
O989 C988 1.258 . S
O990 Co987 1.966 . S
O990 C988 1.263 . S
C991 O992 1.235 . S
C991 O1018 1.289 . S
O992 C991 1.235 . S
C993 C995 1.400 . S
C993 N996 1.351 . S
C993 C998 1.501 . S
C994 C995 1.387 . S
C994 N997 1.341 . S
C995 C993 1.400 . S
C995 C994 1.387 . S
N996 Co987 2.022 . S
N996 C993 1.351 . S
N996 N997 1.365 . S
N997 C994 1.341 . S
N997 N996 1.365 . S
N997 H1017 0.862 . S
C998 C993 1.501 . S
C998 H999 0.961 . S
C998 H1000 0.961 . S
C998 H1001 0.960 . S
H999 C998 0.961 . S
H1000 C998 0.961 . S
H1001 C998 0.960 . S
C1002 N1003 1.342 . S
C1002 C1006 1.401 . S
C1002 C1007 1.499 . S
N1003 Co986 1.989 . S
N1003 C1002 1.342 . S
N1003 N1004 1.388 . S
N1004 Co987 1.993 . S
N1004 N1003 1.388 . S
N1004 C1005 1.346 . S
C1005 N1004 1.346 . S
C1005 C1006 1.396 . S
C1005 C1015 1.510 . S
C1006 C1002 1.401 . S
C1006 C1005 1.396 . S
C1007 C1002 1.499 . S
C1007 H1008 0.959 . S
C1007 H1009 0.960 . S
C1007 H1010 0.961 . S
H1008 C1007 0.959 . S
H1009 C1007 0.960 . S
H1010 C1007 0.961 . S
O1011 Co986 1.967 . S
O1011 C1019 1.258 . S
O1012 Co987 1.941 . S
O1012 C1019 1.266 . S
H1013 C1015 0.959 . S
H1014 C1015 0.961 . S
C1015 C1005 1.510 . S
C1015 H1013 0.959 . S
C1015 H1014 0.961 . S
C1015 H1016 0.960 . S
H1016 C1015 0.960 . S
H1017 N997 0.862 . S
O1018 Co986 1.920 . S
O1018 C991 1.289 . S
C1019 O1011 1.258 . S
C1019 O1012 1.266 . S
Co1020 O1023 1.970 . S
Co1020 N1037 1.989 . S
Co1020 O1045 1.967 1_655 S
Co1020 O1052 1.920 . S
Co1021 O1024 1.966 . S
Co1021 N1030 2.022 . S
Co1021 N1038 1.993 1_455 S
Co1021 O1046 1.941 . S
C1022 O1023 1.234 1_455 S
C1022 O1024 1.285 . S
O1023 Co1020 1.970 . S
O1023 C1022 1.234 1_655 S
O1024 Co1021 1.966 . S
O1024 C1022 1.285 . S
C1025 O1026 1.235 . S
C1025 O1052 1.289 . S
O1026 C1025 1.235 . S
C1027 C1029 1.400 . S
C1027 N1030 1.351 . S
C1027 C1032 1.501 . S
C1028 C1029 1.387 . S
C1028 N1031 1.341 . S
C1029 C1027 1.400 . S
C1029 C1028 1.387 . S
N1030 Co1021 2.022 . S
N1030 C1027 1.351 . S
N1030 N1031 1.365 . S
N1031 C1028 1.341 . S
N1031 N1030 1.365 . S
N1031 H1051 0.862 . S
C1032 C1027 1.501 . S
C1032 H1033 0.961 . S
C1032 H1034 0.961 . S
C1032 H1035 0.960 . S
H1033 C1032 0.961 . S
H1034 C1032 0.961 . S
H1035 C1032 0.960 . S
C1036 N1037 1.342 . S
C1036 C1040 1.401 . S
C1036 C1041 1.499 . S
N1037 Co1020 1.989 . S
N1037 C1036 1.342 . S
N1037 N1038 1.388 . S
N1038 Co1021 1.993 1_655 S
N1038 N1037 1.388 . S
N1038 C1039 1.346 . S
C1039 N1038 1.346 . S
C1039 C1040 1.396 . S
C1039 C1049 1.510 1_655 S
C1040 C1036 1.401 . S
C1040 C1039 1.396 . S
C1041 C1036 1.499 . S
C1041 H1042 0.959 . S
C1041 H1043 0.960 . S
C1041 H1044 0.961 . S
H1042 C1041 0.959 . S
H1043 C1041 0.960 . S
H1044 C1041 0.961 . S
O1045 Co1020 1.967 1_455 S
O1045 C1053 1.258 . S
O1046 Co1021 1.941 . S
O1046 C1053 1.266 . S
H1047 C1049 0.959 . S
H1048 C1049 0.961 1_655 S
C1049 C1039 1.510 1_455 S
C1049 H1047 0.959 . S
C1049 H1048 0.961 1_455 S
C1049 H1050 0.960 . S
H1050 C1049 0.960 . S
H1051 N1031 0.862 . S
O1052 Co1020 1.920 . S
O1052 C1025 1.289 . S
C1053 O1045 1.258 . S
C1053 O1046 1.266 . S
Co1054 O1057 1.970 . S
Co1054 N1071 1.989 . S
Co1054 O1079 1.967 . S
Co1054 O1086 1.920 . S
Co1055 O1058 1.966 . S
Co1055 N1064 2.022 . S
Co1055 N1072 1.993 . S
Co1055 O1080 1.941 . S
C1056 O1057 1.258 . S
C1056 O1058 1.263 . S
O1057 Co1054 1.970 . S
O1057 C1056 1.258 . S
O1058 Co1055 1.966 . S
O1058 C1056 1.263 . S
C1059 O1060 1.235 . S
C1059 O1086 1.289 . S
O1060 C1059 1.235 . S
C1061 C1063 1.400 . S
C1061 N1064 1.351 . S
C1061 C1066 1.501 . S
C1062 C1063 1.387 . S
C1062 N1065 1.341 . S
C1063 C1061 1.400 . S
C1063 C1062 1.387 . S
N1064 Co1055 2.022 . S
N1064 C1061 1.351 . S
N1064 N1065 1.365 . S
N1065 C1062 1.341 . S
N1065 N1064 1.365 . S
N1065 H1085 0.862 . S
C1066 C1061 1.501 . S
C1066 H1067 0.961 . S
C1066 H1068 0.961 . S
C1066 H1069 0.960 . S
H1067 C1066 0.961 . S
H1068 C1066 0.961 . S
H1069 C1066 0.960 . S
C1070 N1071 1.342 . S
C1070 C1074 1.401 . S
C1070 C1075 1.499 . S
N1071 Co1054 1.989 . S
N1071 C1070 1.342 . S
N1071 N1072 1.388 . S
N1072 Co1055 1.993 . S
N1072 N1071 1.388 . S
N1072 C1073 1.346 . S
C1073 N1072 1.346 . S
C1073 C1074 1.396 . S
C1073 C1083 1.510 . S
C1074 C1070 1.401 . S
C1074 C1073 1.396 . S
C1075 C1070 1.499 . S
C1075 H1076 0.959 . S
C1075 H1077 0.960 . S
C1075 H1078 0.961 . S
H1076 C1075 0.959 . S
H1077 C1075 0.960 . S
H1078 C1075 0.961 . S
O1079 Co1054 1.967 . S
O1079 C1087 1.258 . S
O1080 Co1055 1.941 . S
O1080 C1087 1.266 . S
H1081 C1083 0.959 . S
H1082 C1083 0.961 . S
C1083 C1073 1.510 . S
C1083 H1081 0.959 . S
C1083 H1082 0.961 . S
C1083 H1084 0.960 . S
H1084 C1083 0.960 . S
H1085 N1065 0.862 . S
O1086 Co1054 1.920 . S
O1086 C1059 1.289 . S
C1087 O1079 1.258 . S
C1087 O1080 1.266 . S
Co1088 O1091 1.970 . S
Co1088 N1105 1.989 . S
Co1088 O1113 1.967 . S
Co1088 O1120 1.920 . S
Co1089 O1092 1.966 . S
Co1089 N1098 2.022 . S
Co1089 N1106 1.993 . S
Co1089 O1114 1.941 . S
C1090 O1091 1.258 . S
C1090 O1092 1.263 . S
O1091 Co1088 1.970 . S
O1091 C1090 1.258 . S
O1092 Co1089 1.966 . S
O1092 C1090 1.263 . S
C1093 O1094 1.235 . S
C1093 O1120 1.289 . S
O1094 C1093 1.235 . S
C1095 C1097 1.400 . S
C1095 N1098 1.351 . S
C1095 C1100 1.501 . S
C1096 C1097 1.387 . S
C1096 N1099 1.341 . S
C1097 C1095 1.400 . S
C1097 C1096 1.387 . S
N1098 Co1089 2.022 . S
N1098 C1095 1.351 . S
N1098 N1099 1.365 . S
N1099 C1096 1.341 . S
N1099 N1098 1.365 . S
N1099 H1119 0.862 . S
C1100 C1095 1.501 . S
C1100 H1101 0.961 . S
C1100 H1102 0.961 . S
C1100 H1103 0.960 . S
H1101 C1100 0.961 . S
H1102 C1100 0.961 . S
H1103 C1100 0.960 . S
C1104 N1105 1.342 . S
C1104 C1108 1.401 . S
C1104 C1109 1.499 . S
N1105 Co1088 1.989 . S
N1105 C1104 1.342 . S
N1105 N1106 1.388 . S
N1106 Co1089 1.993 . S
N1106 N1105 1.388 . S
N1106 C1107 1.346 . S
C1107 N1106 1.346 . S
C1107 C1108 1.396 . S
C1107 C1117 1.510 . S
C1108 C1104 1.401 . S
C1108 C1107 1.396 . S
C1109 C1104 1.499 . S
C1109 H1110 0.959 . S
C1109 H1111 0.960 . S
C1109 H1112 0.961 . S
H1110 C1109 0.959 . S
H1111 C1109 0.960 . S
H1112 C1109 0.961 . S
O1113 Co1088 1.967 . S
O1113 C1121 1.258 . S
O1114 Co1089 1.941 . S
O1114 C1121 1.266 . S
H1115 C1117 0.959 . S
H1116 C1117 0.961 . S
C1117 C1107 1.510 . S
C1117 H1115 0.959 . S
C1117 H1116 0.961 . S
C1117 H1118 0.960 . S
H1118 C1117 0.960 . S
H1119 N1099 0.862 . S
O1120 Co1088 1.920 . S
O1120 C1093 1.289 . S
C1121 O1113 1.258 . S
C1121 O1114 1.266 . S
Co1122 O1125 1.970 . S
Co1122 N1139 1.989 . S
Co1122 O1147 1.967 . S
Co1122 O1154 1.920 . S
Co1123 O1126 1.966 . S
Co1123 N1132 2.022 . S
Co1123 N1140 1.993 . S
Co1123 O1148 1.941 . S
C1124 O1125 1.258 . S
C1124 O1126 1.263 . S
O1125 Co1122 1.970 . S
O1125 C1124 1.258 . S
O1126 Co1123 1.966 . S
O1126 C1124 1.263 . S
C1127 O1128 1.235 . S
C1127 O1154 1.289 . S
O1128 C1127 1.235 . S
C1129 C1131 1.400 . S
C1129 N1132 1.351 . S
C1129 C1134 1.501 . S
C1130 C1131 1.387 . S
C1130 N1133 1.341 . S
C1131 C1129 1.400 . S
C1131 C1130 1.387 . S
N1132 Co1123 2.022 . S
N1132 C1129 1.351 . S
N1132 N1133 1.365 . S
N1133 C1130 1.341 . S
N1133 N1132 1.365 . S
N1133 H1153 0.862 . S
C1134 C1129 1.501 . S
C1134 H1135 0.961 . S
C1134 H1136 0.961 . S
C1134 H1137 0.960 . S
H1135 C1134 0.961 . S
H1136 C1134 0.961 . S
H1137 C1134 0.960 . S
C1138 N1139 1.342 . S
C1138 C1142 1.401 . S
C1138 C1143 1.499 . S
N1139 Co1122 1.989 . S
N1139 C1138 1.342 . S
N1139 N1140 1.388 . S
N1140 Co1123 1.993 . S
N1140 N1139 1.388 . S
N1140 C1141 1.346 . S
C1141 N1140 1.346 . S
C1141 C1142 1.396 . S
C1141 C1151 1.510 . S
C1142 C1138 1.401 . S
C1142 C1141 1.396 . S
C1143 C1138 1.499 . S
C1143 H1144 0.959 . S
C1143 H1145 0.960 . S
C1143 H1146 0.961 . S
H1144 C1143 0.959 . S
H1145 C1143 0.960 . S
H1146 C1143 0.961 . S
O1147 Co1122 1.967 . S
O1147 C1155 1.258 . S
O1148 Co1123 1.941 . S
O1148 C1155 1.266 . S
H1149 C1151 0.959 . S
H1150 C1151 0.961 . S
C1151 C1141 1.510 . S
C1151 H1149 0.959 . S
C1151 H1150 0.961 . S
C1151 H1152 0.960 . S
H1152 C1151 0.960 . S
H1153 N1133 0.862 . S
O1154 Co1122 1.920 . S
O1154 C1127 1.289 . S
C1155 O1147 1.258 . S
C1155 O1148 1.266 . S
Co1156 O1159 1.970 . S
Co1156 N1173 1.989 . S
Co1156 O1181 1.967 . S
Co1156 O1188 1.920 . S
Co1157 O1160 1.966 . S
Co1157 N1166 2.022 . S
Co1157 N1174 1.993 . S
Co1157 O1182 1.941 . S
C1158 O1159 1.258 . S
C1158 O1160 1.263 . S
O1159 Co1156 1.970 . S
O1159 C1158 1.258 . S
O1160 Co1157 1.966 . S
O1160 C1158 1.263 . S
C1161 O1162 1.235 . S
C1161 O1188 1.289 . S
O1162 C1161 1.235 . S
C1163 C1165 1.400 . S
C1163 N1166 1.351 1_556 S
C1163 C1168 1.501 . S
C1164 C1165 1.387 1_554 S
C1164 N1167 1.341 . S
C1165 C1163 1.400 . S
C1165 C1164 1.387 1_556 S
N1166 Co1157 2.022 . S
N1166 C1163 1.351 1_554 S
N1166 N1167 1.365 . S
N1167 C1164 1.341 . S
N1167 N1166 1.365 . S
N1167 H1187 0.862 . S
C1168 C1163 1.501 . S
C1168 H1169 0.961 . S
C1168 H1170 0.961 . S
C1168 H1171 0.960 . S
H1169 C1168 0.961 . S
H1170 C1168 0.961 . S
H1171 C1168 0.960 . S
C1172 N1173 1.342 . S
C1172 C1176 1.401 . S
C1172 C1177 1.499 . S
N1173 Co1156 1.989 . S
N1173 C1172 1.342 . S
N1173 N1174 1.388 . S
N1174 Co1157 1.993 . S
N1174 N1173 1.388 . S
N1174 C1175 1.346 . S
C1175 N1174 1.346 . S
C1175 C1176 1.396 . S
C1175 C1185 1.510 . S
C1176 C1172 1.401 . S
C1176 C1175 1.396 . S
C1177 C1172 1.499 . S
C1177 H1178 0.959 . S
C1177 H1179 0.960 . S
C1177 H1180 0.961 . S
H1178 C1177 0.959 . S
H1179 C1177 0.960 . S
H1180 C1177 0.961 . S
O1181 Co1156 1.967 . S
O1181 C1189 1.258 . S
O1182 Co1157 1.941 . S
O1182 C1189 1.266 . S
H1183 C1185 0.959 . S
H1184 C1185 0.961 . S
C1185 C1175 1.510 . S
C1185 H1183 0.959 . S
C1185 H1184 0.961 . S
C1185 H1186 0.960 . S
H1186 C1185 0.960 . S
H1187 N1167 0.862 . S
O1188 Co1156 1.920 . S
O1188 C1161 1.289 . S
C1189 O1181 1.258 . S
C1189 O1182 1.266 . S
Co1190 O1193 1.970 . S
Co1190 N1207 1.989 . S
Co1190 O1215 1.967 . S
Co1190 O1222 1.920 . S
Co1191 O1194 1.966 . S
Co1191 N1200 2.022 . S
Co1191 N1208 1.993 . S
Co1191 O1216 1.941 . S
C1192 O1193 1.258 . S
C1192 O1194 1.263 . S
O1193 Co1190 1.970 . S
O1193 C1192 1.258 . S
O1194 Co1191 1.966 . S
O1194 C1192 1.263 . S
C1195 O1196 1.235 . S
C1195 O1222 1.289 . S
O1196 C1195 1.235 . S
C1197 C1199 1.400 . S
C1197 N1200 1.351 . S
C1197 C1202 1.501 . S
C1198 C1199 1.387 . S
C1198 N1201 1.341 . S
C1199 C1197 1.400 . S
C1199 C1198 1.387 . S
N1200 Co1191 2.022 . S
N1200 C1197 1.351 . S
N1200 N1201 1.365 . S
N1201 C1198 1.341 . S
N1201 N1200 1.365 . S
N1201 H1221 0.862 . S
C1202 C1197 1.501 . S
C1202 H1203 0.961 . S
C1202 H1204 0.961 . S
C1202 H1205 0.960 . S
H1203 C1202 0.961 . S
H1204 C1202 0.961 . S
H1205 C1202 0.960 . S
C1206 N1207 1.342 . S
C1206 C1210 1.401 . S
C1206 C1211 1.499 . S
N1207 Co1190 1.989 . S
N1207 C1206 1.342 . S
N1207 N1208 1.388 . S
N1208 Co1191 1.993 . S
N1208 N1207 1.388 . S
N1208 C1209 1.346 . S
C1209 N1208 1.346 . S
C1209 C1210 1.396 . S
C1209 C1219 1.510 . S
C1210 C1206 1.401 . S
C1210 C1209 1.396 . S
C1211 C1206 1.499 . S
C1211 H1212 0.959 . S
C1211 H1213 0.960 . S
C1211 H1214 0.961 . S
H1212 C1211 0.959 . S
H1213 C1211 0.960 . S
H1214 C1211 0.961 . S
O1215 Co1190 1.967 . S
O1215 C1223 1.258 . S
O1216 Co1191 1.941 . S
O1216 C1223 1.266 . S
H1217 C1219 0.959 . S
H1218 C1219 0.961 . S
C1219 C1209 1.510 . S
C1219 H1217 0.959 . S
C1219 H1218 0.961 . S
C1219 H1220 0.960 . S
H1220 C1219 0.960 . S
H1221 N1201 0.862 . S
O1222 Co1190 1.920 . S
O1222 C1195 1.289 . S
C1223 O1215 1.258 . S
C1223 O1216 1.266 . S
Co1224 O1227 1.970 . S
Co1224 N1241 1.989 . S
Co1224 O1249 1.967 . S
Co1224 O1256 1.920 . S
Co1225 O1228 1.966 . S
Co1225 N1234 2.022 . S
Co1225 N1242 1.993 . S
Co1225 O1250 1.941 . S
C1226 O1227 1.258 . S
C1226 O1228 1.263 . S
O1227 Co1224 1.970 . S
O1227 C1226 1.258 . S
O1228 Co1225 1.966 . S
O1228 C1226 1.263 . S
C1229 O1230 1.235 . S
C1229 O1256 1.289 . S
O1230 C1229 1.235 . S
C1231 C1233 1.400 . S
C1231 N1234 1.351 1_554 S
C1231 C1236 1.501 . S
C1232 C1233 1.387 1_556 S
C1232 N1235 1.341 . S
C1233 C1231 1.400 . S
C1233 C1232 1.387 1_554 S
N1234 Co1225 2.022 . S
N1234 C1231 1.351 1_556 S
N1234 N1235 1.365 . S
N1235 C1232 1.341 . S
N1235 N1234 1.365 . S
N1235 H1255 0.862 . S
C1236 C1231 1.501 . S
C1236 H1237 0.961 . S
C1236 H1238 0.961 . S
C1236 H1239 0.960 . S
H1237 C1236 0.961 . S
H1238 C1236 0.961 . S
H1239 C1236 0.960 . S
C1240 N1241 1.342 . S
C1240 C1244 1.401 . S
C1240 C1245 1.499 . S
N1241 Co1224 1.989 . S
N1241 C1240 1.342 . S
N1241 N1242 1.388 . S
N1242 Co1225 1.993 . S
N1242 N1241 1.388 . S
N1242 C1243 1.346 . S
C1243 N1242 1.346 . S
C1243 C1244 1.396 . S
C1243 C1253 1.510 . S
C1244 C1240 1.401 . S
C1244 C1243 1.396 . S
C1245 C1240 1.499 . S
C1245 H1246 0.959 . S
C1245 H1247 0.960 . S
C1245 H1248 0.961 . S
H1246 C1245 0.959 . S
H1247 C1245 0.960 . S
H1248 C1245 0.961 . S
O1249 Co1224 1.967 . S
O1249 C1257 1.258 . S
O1250 Co1225 1.941 . S
O1250 C1257 1.266 . S
H1251 C1253 0.959 . S
H1252 C1253 0.961 . S
C1253 C1243 1.510 . S
C1253 H1251 0.959 . S
C1253 H1252 0.961 . S
C1253 H1254 0.960 . S
H1254 C1253 0.960 . S
H1255 N1235 0.862 . S
O1256 Co1224 1.920 . S
O1256 C1229 1.289 . S
C1257 O1249 1.258 . S
C1257 O1250 1.266 . S
Co1258 O1261 1.970 . S
Co1258 N1275 1.989 . S
Co1258 O1283 1.967 . S
Co1258 O1290 1.920 . S
Co1259 O1262 1.966 . S
Co1259 N1268 2.022 . S
Co1259 N1276 1.993 . S
Co1259 O1284 1.941 . S
C1260 O1261 1.258 . S
C1260 O1262 1.263 . S
O1261 Co1258 1.970 . S
O1261 C1260 1.258 . S
O1262 Co1259 1.966 . S
O1262 C1260 1.263 . S
C1263 O1264 1.235 . S
C1263 O1290 1.289 . S
O1264 C1263 1.235 . S
C1265 C1267 1.400 . S
C1265 N1268 1.351 . S
C1265 C1270 1.501 . S
C1266 C1267 1.387 . S
C1266 N1269 1.341 . S
C1267 C1265 1.400 . S
C1267 C1266 1.387 . S
N1268 Co1259 2.022 . S
N1268 C1265 1.351 . S
N1268 N1269 1.365 . S
N1269 C1266 1.341 . S
N1269 N1268 1.365 . S
N1269 H1289 0.862 . S
C1270 C1265 1.501 . S
C1270 H1271 0.961 . S
C1270 H1272 0.961 . S
C1270 H1273 0.960 . S
H1271 C1270 0.961 . S
H1272 C1270 0.961 . S
H1273 C1270 0.960 . S
C1274 N1275 1.342 . S
C1274 C1278 1.401 . S
C1274 C1279 1.499 . S
N1275 Co1258 1.989 . S
N1275 C1274 1.342 . S
N1275 N1276 1.388 . S
N1276 Co1259 1.993 . S
N1276 N1275 1.388 . S
N1276 C1277 1.346 . S
C1277 N1276 1.346 . S
C1277 C1278 1.396 . S
C1277 C1287 1.510 . S
C1278 C1274 1.401 . S
C1278 C1277 1.396 . S
C1279 C1274 1.499 . S
C1279 H1280 0.959 . S
C1279 H1281 0.960 . S
C1279 H1282 0.961 . S
H1280 C1279 0.959 . S
H1281 C1279 0.960 . S
H1282 C1279 0.961 . S
O1283 Co1258 1.967 . S
O1283 C1291 1.258 . S
O1284 Co1259 1.941 . S
O1284 C1291 1.266 . S
H1285 C1287 0.959 . S
H1286 C1287 0.961 . S
C1287 C1277 1.510 . S
C1287 H1285 0.959 . S
C1287 H1286 0.961 . S
C1287 H1288 0.960 . S
H1288 C1287 0.960 . S
H1289 N1269 0.862 . S
O1290 Co1258 1.920 . S
O1290 C1263 1.289 . S
C1291 O1283 1.258 . S
C1291 O1284 1.266 . S
Co1292 O1295 1.970 . S
Co1292 N1309 1.989 . S
Co1292 O1317 1.967 . S
Co1292 O1324 1.920 . S
Co1293 O1296 1.966 . S
Co1293 N1302 2.022 . S
Co1293 N1310 1.993 . S
Co1293 O1318 1.941 . S
C1294 O1295 1.258 . S
C1294 O1296 1.263 . S
O1295 Co1292 1.970 . S
O1295 C1294 1.258 . S
O1296 Co1293 1.966 . S
O1296 C1294 1.263 . S
C1297 O1298 1.235 . S
C1297 O1324 1.289 . S
O1298 C1297 1.235 . S
C1299 C1301 1.400 . S
C1299 N1302 1.351 . S
C1299 C1304 1.501 . S
C1300 C1301 1.387 . S
C1300 N1303 1.341 . S
C1301 C1299 1.400 . S
C1301 C1300 1.387 . S
N1302 Co1293 2.022 . S
N1302 C1299 1.351 . S
N1302 N1303 1.365 . S
N1303 C1300 1.341 . S
N1303 N1302 1.365 . S
N1303 H1323 0.862 . S
C1304 C1299 1.501 . S
C1304 H1305 0.961 . S
C1304 H1306 0.961 . S
C1304 H1307 0.960 . S
H1305 C1304 0.961 . S
H1306 C1304 0.961 . S
H1307 C1304 0.960 . S
C1308 N1309 1.342 . S
C1308 C1312 1.401 . S
C1308 C1313 1.499 . S
N1309 Co1292 1.989 . S
N1309 C1308 1.342 . S
N1309 N1310 1.388 . S
N1310 Co1293 1.993 . S
N1310 N1309 1.388 . S
N1310 C1311 1.346 . S
C1311 N1310 1.346 . S
C1311 C1312 1.396 . S
C1311 C1321 1.510 . S
C1312 C1308 1.401 . S
C1312 C1311 1.396 . S
C1313 C1308 1.499 . S
C1313 H1314 0.959 . S
C1313 H1315 0.960 . S
C1313 H1316 0.961 . S
H1314 C1313 0.959 . S
H1315 C1313 0.960 . S
H1316 C1313 0.961 . S
O1317 Co1292 1.967 . S
O1317 C1325 1.258 . S
O1318 Co1293 1.941 . S
O1318 C1325 1.266 . S
H1319 C1321 0.959 . S
H1320 C1321 0.961 . S
C1321 C1311 1.510 . S
C1321 H1319 0.959 . S
C1321 H1320 0.961 . S
C1321 H1322 0.960 . S
H1322 C1321 0.960 . S
H1323 N1303 0.862 . S
O1324 Co1292 1.920 . S
O1324 C1297 1.289 . S
C1325 O1317 1.258 . S
C1325 O1318 1.266 . S
Co1326 O1329 1.970 . S
Co1326 N1343 1.989 . S
Co1326 O1351 1.967 . S
Co1326 O1358 1.920 . S
Co1327 O1330 1.966 . S
Co1327 N1336 2.022 . S
Co1327 N1344 1.993 . S
Co1327 O1352 1.941 . S
C1328 O1329 1.258 . S
C1328 O1330 1.263 . S
O1329 Co1326 1.970 . S
O1329 C1328 1.258 . S
O1330 Co1327 1.966 . S
O1330 C1328 1.263 . S
C1331 O1332 1.235 . S
C1331 O1358 1.289 . S
O1332 C1331 1.235 . S
C1333 C1335 1.400 . S
C1333 N1336 1.351 . S
C1333 C1338 1.501 . S
C1334 C1335 1.387 . S
C1334 N1337 1.341 . S
C1335 C1333 1.400 . S
C1335 C1334 1.387 . S
N1336 Co1327 2.022 . S
N1336 C1333 1.351 . S
N1336 N1337 1.365 . S
N1337 C1334 1.341 . S
N1337 N1336 1.365 . S
N1337 H1357 0.862 . S
C1338 C1333 1.501 . S
C1338 H1339 0.961 . S
C1338 H1340 0.961 . S
C1338 H1341 0.960 . S
H1339 C1338 0.961 . S
H1340 C1338 0.961 . S
H1341 C1338 0.960 . S
C1342 N1343 1.342 . S
C1342 C1346 1.401 . S
C1342 C1347 1.499 . S
N1343 Co1326 1.989 . S
N1343 C1342 1.342 . S
N1343 N1344 1.388 . S
N1344 Co1327 1.993 . S
N1344 N1343 1.388 . S
N1344 C1345 1.346 . S
C1345 N1344 1.346 . S
C1345 C1346 1.396 . S
C1345 C1355 1.510 . S
C1346 C1342 1.401 . S
C1346 C1345 1.396 . S
C1347 C1342 1.499 . S
C1347 H1348 0.959 . S
C1347 H1349 0.960 . S
C1347 H1350 0.961 . S
H1348 C1347 0.959 . S
H1349 C1347 0.960 . S
H1350 C1347 0.961 . S
O1351 Co1326 1.967 . S
O1351 C1359 1.258 . S
O1352 Co1327 1.941 . S
O1352 C1359 1.266 . S
H1353 C1355 0.959 . S
H1354 C1355 0.961 . S
C1355 C1345 1.510 . S
C1355 H1353 0.959 . S
C1355 H1354 0.961 . S
C1355 H1356 0.960 . S
H1356 C1355 0.960 . S
H1357 N1337 0.862 . S
O1358 Co1326 1.920 . S
O1358 C1331 1.289 . S
C1359 O1351 1.258 . S
C1359 O1352 1.266 . S
Co1360 O1363 1.970 . S
Co1360 N1377 1.989 . S
Co1360 O1385 1.967 . S
Co1360 O1392 1.920 . S
Co1361 O1364 1.966 . S
Co1361 N1370 2.022 . S
Co1361 N1378 1.993 . S
Co1361 O1386 1.941 . S
C1362 O1363 1.258 . S
C1362 O1364 1.263 . S
O1363 Co1360 1.970 . S
O1363 C1362 1.258 . S
O1364 Co1361 1.966 . S
O1364 C1362 1.263 . S
C1365 O1366 1.235 . S
C1365 O1392 1.289 . S
O1366 C1365 1.235 . S
C1367 C1369 1.400 . S
C1367 N1370 1.351 . S
C1367 C1372 1.501 . S
C1368 C1369 1.387 . S
C1368 N1371 1.341 . S
C1369 C1367 1.400 . S
C1369 C1368 1.387 . S
N1370 Co1361 2.022 . S
N1370 C1367 1.351 . S
N1370 N1371 1.365 . S
N1371 C1368 1.341 . S
N1371 N1370 1.365 . S
N1371 H1391 0.862 . S
C1372 C1367 1.501 . S
C1372 H1373 0.961 . S
C1372 H1374 0.961 . S
C1372 H1375 0.960 . S
H1373 C1372 0.961 . S
H1374 C1372 0.961 . S
H1375 C1372 0.960 . S
C1376 N1377 1.342 . S
C1376 C1380 1.401 . S
C1376 C1381 1.499 . S
N1377 Co1360 1.989 . S
N1377 C1376 1.342 . S
N1377 N1378 1.388 . S
N1378 Co1361 1.993 . S
N1378 N1377 1.388 . S
N1378 C1379 1.346 . S
C1379 N1378 1.346 . S
C1379 C1380 1.396 . S
C1379 C1389 1.510 . S
C1380 C1376 1.401 . S
C1380 C1379 1.396 . S
C1381 C1376 1.499 . S
C1381 H1382 0.959 . S
C1381 H1383 0.960 . S
C1381 H1384 0.961 . S
H1382 C1381 0.959 . S
H1383 C1381 0.960 . S
H1384 C1381 0.961 . S
O1385 Co1360 1.967 . S
O1385 C1393 1.258 . S
O1386 Co1361 1.941 . S
O1386 C1393 1.266 . S
H1387 C1389 0.959 . S
H1388 C1389 0.961 . S
C1389 C1379 1.510 . S
C1389 H1387 0.959 . S
C1389 H1388 0.961 . S
C1389 H1390 0.960 . S
H1390 C1389 0.960 . S
H1391 N1371 0.862 . S
O1392 Co1360 1.920 . S
O1392 C1365 1.289 . S
C1393 O1385 1.258 . S
C1393 O1386 1.266 . S
Co1394 O1397 1.970 . S
Co1394 N1411 1.989 . S
Co1394 O1419 1.967 . S
Co1394 O1426 1.920 . S
Co1395 O1398 1.966 . S
Co1395 N1404 2.022 . S
Co1395 N1412 1.993 . S
Co1395 O1420 1.941 . S
C1396 O1397 1.258 . S
C1396 O1398 1.263 . S
O1397 Co1394 1.970 . S
O1397 C1396 1.258 . S
O1398 Co1395 1.966 . S
O1398 C1396 1.263 . S
C1399 O1400 1.235 . S
C1399 O1426 1.289 . S
O1400 C1399 1.235 . S
C1401 C1403 1.400 . S
C1401 N1404 1.351 1_655 S
C1401 C1406 1.501 . S
C1402 C1403 1.387 1_455 S
C1402 N1405 1.341 . S
C1403 C1401 1.400 . S
C1403 C1402 1.387 1_655 S
N1404 Co1395 2.022 . S
N1404 C1401 1.351 1_455 S
N1404 N1405 1.365 . S
N1405 C1402 1.341 . S
N1405 N1404 1.365 . S
N1405 H1425 0.862 . S
C1406 C1401 1.501 . S
C1406 H1407 0.961 . S
C1406 H1408 0.961 . S
C1406 H1409 0.960 . S
H1407 C1406 0.961 . S
H1408 C1406 0.961 . S
H1409 C1406 0.960 . S
C1410 N1411 1.342 . S
C1410 C1414 1.401 . S
C1410 C1415 1.499 . S
N1411 Co1394 1.989 . S
N1411 C1410 1.342 . S
N1411 N1412 1.388 . S
N1412 Co1395 1.993 . S
N1412 N1411 1.388 . S
N1412 C1413 1.346 . S
C1413 N1412 1.346 . S
C1413 C1414 1.396 . S
C1413 C1423 1.510 . S
C1414 C1410 1.401 . S
C1414 C1413 1.396 . S
C1415 C1410 1.499 . S
C1415 H1416 0.959 . S
C1415 H1417 0.960 . S
C1415 H1418 0.961 . S
H1416 C1415 0.959 . S
H1417 C1415 0.960 . S
H1418 C1415 0.961 . S
O1419 Co1394 1.967 . S
O1419 C1427 1.258 . S
O1420 Co1395 1.941 . S
O1420 C1427 1.266 . S
H1421 C1423 0.959 . S
H1422 C1423 0.961 . S
C1423 C1413 1.510 . S
C1423 H1421 0.959 . S
C1423 H1422 0.961 . S
C1423 H1424 0.960 . S
H1424 C1423 0.960 . S
H1425 N1405 0.862 . S
O1426 Co1394 1.920 . S
O1426 C1399 1.289 . S
C1427 O1419 1.258 . S
C1427 O1420 1.266 . S
Co1428 O1431 1.970 . S
Co1428 N1445 1.989 . S
Co1428 O1453 1.967 . S
Co1428 O1460 1.920 . S
Co1429 O1432 1.966 . S
Co1429 N1438 2.022 . S
Co1429 N1446 1.993 . S
Co1429 O1454 1.941 . S
C1430 O1431 1.258 . S
C1430 O1432 1.263 . S
O1431 Co1428 1.970 . S
O1431 C1430 1.258 . S
O1432 Co1429 1.966 . S
O1432 C1430 1.263 . S
C1433 O1434 1.235 . S
C1433 O1460 1.289 . S
O1434 C1433 1.235 . S
C1435 C1437 1.400 . S
C1435 N1438 1.351 . S
C1435 C1440 1.501 . S
C1436 C1437 1.387 . S
C1436 N1439 1.341 . S
C1437 C1435 1.400 . S
C1437 C1436 1.387 . S
N1438 Co1429 2.022 . S
N1438 C1435 1.351 . S
N1438 N1439 1.365 . S
N1439 C1436 1.341 . S
N1439 N1438 1.365 . S
N1439 H1459 0.862 . S
C1440 C1435 1.501 . S
C1440 H1441 0.961 . S
C1440 H1442 0.961 . S
C1440 H1443 0.960 . S
H1441 C1440 0.961 . S
H1442 C1440 0.961 . S
H1443 C1440 0.960 . S
C1444 N1445 1.342 . S
C1444 C1448 1.401 . S
C1444 C1449 1.499 . S
N1445 Co1428 1.989 . S
N1445 C1444 1.342 . S
N1445 N1446 1.388 . S
N1446 Co1429 1.993 . S
N1446 N1445 1.388 . S
N1446 C1447 1.346 . S
C1447 N1446 1.346 . S
C1447 C1448 1.396 . S
C1447 C1457 1.510 . S
C1448 C1444 1.401 . S
C1448 C1447 1.396 . S
C1449 C1444 1.499 . S
C1449 H1450 0.959 . S
C1449 H1451 0.960 . S
C1449 H1452 0.961 . S
H1450 C1449 0.959 . S
H1451 C1449 0.960 . S
H1452 C1449 0.961 . S
O1453 Co1428 1.967 . S
O1453 C1461 1.258 . S
O1454 Co1429 1.941 . S
O1454 C1461 1.266 . S
H1455 C1457 0.959 . S
H1456 C1457 0.961 . S
C1457 C1447 1.510 . S
C1457 H1455 0.959 . S
C1457 H1456 0.961 . S
C1457 H1458 0.960 . S
H1458 C1457 0.960 . S
H1459 N1439 0.862 . S
O1460 Co1428 1.920 . S
O1460 C1433 1.289 . S
C1461 O1453 1.258 . S
C1461 O1454 1.266 . S
Co1462 O1465 1.970 . S
Co1462 N1479 1.989 . S
Co1462 O1487 1.967 1_556 S
Co1462 O1494 1.920 . S
Co1463 O1466 1.966 . S
Co1463 N1472 2.022 . S
Co1463 N1480 1.993 1_554 S
Co1463 O1488 1.941 . S
C1464 O1465 1.234 1_554 S
C1464 O1466 1.284 . S
O1465 Co1462 1.970 . S
O1465 C1464 1.234 1_556 S
O1466 Co1463 1.966 . S
O1466 C1464 1.284 . S
C1467 O1468 1.235 . S
C1467 O1494 1.289 . S
O1468 C1467 1.235 . S
C1469 C1471 1.400 . S
C1469 N1472 1.351 . S
C1469 C1474 1.501 . S
C1470 C1471 1.387 . S
C1470 N1473 1.341 . S
C1471 C1469 1.400 . S
C1471 C1470 1.387 . S
N1472 Co1463 2.022 . S
N1472 C1469 1.351 . S
N1472 N1473 1.365 . S
N1473 C1470 1.341 . S
N1473 N1472 1.365 . S
N1473 H1493 0.862 . S
C1474 C1469 1.501 . S
C1474 H1475 0.961 . S
C1474 H1476 0.961 . S
C1474 H1477 0.960 . S
H1475 C1474 0.961 . S
H1476 C1474 0.961 . S
H1477 C1474 0.960 . S
C1478 N1479 1.342 . S
C1478 C1482 1.401 . S
C1478 C1483 1.499 . S
N1479 Co1462 1.989 . S
N1479 C1478 1.342 . S
N1479 N1480 1.388 . S
N1480 Co1463 1.993 1_556 S
N1480 N1479 1.388 . S
N1480 C1481 1.346 . S
C1481 N1480 1.346 . S
C1481 C1482 1.396 . S
C1481 C1491 1.510 1_556 S
C1482 C1478 1.401 . S
C1482 C1481 1.396 . S
C1483 C1478 1.499 . S
C1483 H1484 0.959 . S
C1483 H1485 0.960 . S
C1483 H1486 0.961 . S
H1484 C1483 0.959 . S
H1485 C1483 0.960 . S
H1486 C1483 0.961 . S
O1487 Co1462 1.967 1_554 S
O1487 C1495 1.258 . S
O1488 Co1463 1.941 . S
O1488 C1495 1.266 . S
H1489 C1491 0.959 . S
H1490 C1491 0.961 1_556 S
C1491 C1481 1.510 1_554 S
C1491 H1489 0.959 . S
C1491 H1490 0.961 1_554 S
C1491 H1492 0.960 . S
H1492 C1491 0.960 . S
H1493 N1473 0.862 . S
O1494 Co1462 1.920 . S
O1494 C1467 1.289 . S
C1495 O1487 1.258 . S
C1495 O1488 1.266 . S
Co1496 O1499 1.970 . S
Co1496 N1513 1.989 . S
Co1496 O1521 1.967 . S
Co1496 O1528 1.920 . S
Co1497 O1500 1.966 . S
Co1497 N1506 2.022 . S
Co1497 N1514 1.993 . S
Co1497 O1522 1.941 . S
C1498 O1499 1.258 . S
C1498 O1500 1.263 . S
O1499 Co1496 1.970 . S
O1499 C1498 1.258 . S
O1500 Co1497 1.966 . S
O1500 C1498 1.263 . S
C1501 O1502 1.235 . S
C1501 O1528 1.289 . S
O1502 C1501 1.235 . S
C1503 C1505 1.400 . S
C1503 N1506 1.351 . S
C1503 C1508 1.501 . S
C1504 C1505 1.387 . S
C1504 N1507 1.341 . S
C1505 C1503 1.400 . S
C1505 C1504 1.387 . S
N1506 Co1497 2.022 . S
N1506 C1503 1.351 . S
N1506 N1507 1.365 . S
N1507 C1504 1.341 . S
N1507 N1506 1.365 . S
N1507 H1527 0.862 . S
C1508 C1503 1.501 . S
C1508 H1509 0.961 . S
C1508 H1510 0.961 . S
C1508 H1511 0.960 . S
H1509 C1508 0.961 . S
H1510 C1508 0.961 . S
H1511 C1508 0.960 . S
C1512 N1513 1.342 . S
C1512 C1516 1.401 . S
C1512 C1517 1.499 . S
N1513 Co1496 1.989 . S
N1513 C1512 1.342 . S
N1513 N1514 1.388 . S
N1514 Co1497 1.993 . S
N1514 N1513 1.388 . S
N1514 C1515 1.346 . S
C1515 N1514 1.346 . S
C1515 C1516 1.396 . S
C1515 C1525 1.510 . S
C1516 C1512 1.401 . S
C1516 C1515 1.396 . S
C1517 C1512 1.499 . S
C1517 H1518 0.959 . S
C1517 H1519 0.960 . S
C1517 H1520 0.961 . S
H1518 C1517 0.959 . S
H1519 C1517 0.960 . S
H1520 C1517 0.961 . S
O1521 Co1496 1.967 . S
O1521 C1529 1.258 . S
O1522 Co1497 1.941 . S
O1522 C1529 1.266 . S
H1523 C1525 0.959 . S
H1524 C1525 0.961 . S
C1525 C1515 1.510 . S
C1525 H1523 0.959 . S
C1525 H1524 0.961 . S
C1525 H1526 0.960 . S
H1526 C1525 0.960 . S
H1527 N1507 0.862 . S
O1528 Co1496 1.920 . S
O1528 C1501 1.289 . S
C1529 O1521 1.258 . S
C1529 O1522 1.266 . S
Co1530 O1533 1.970 . S
Co1530 N1547 1.989 . S
Co1530 O1555 1.967 1_554 S
Co1530 O1562 1.920 . S
Co1531 O1534 1.966 . S
Co1531 N1540 2.022 . S
Co1531 N1548 1.993 1_556 S
Co1531 O1556 1.941 . S
C1532 O1533 1.258 1_556 S
C1532 O1534 1.263 . S
O1533 Co1530 1.970 . S
O1533 C1532 1.258 1_554 S
O1534 Co1531 1.966 . S
O1534 C1532 1.263 . S
C1535 O1536 1.235 . S
C1535 O1562 1.289 . S
O1536 C1535 1.235 . S
C1537 C1539 1.400 . S
C1537 N1540 1.351 1_455 S
C1537 C1542 1.501 . S
C1538 C1539 1.387 1_655 S
C1538 N1541 1.341 . S
C1539 C1537 1.400 . S
C1539 C1538 1.387 1_455 S
N1540 Co1531 2.022 . S
N1540 C1537 1.351 1_655 S
N1540 N1541 1.365 . S
N1541 C1538 1.341 . S
N1541 N1540 1.365 . S
N1541 H1561 0.862 . S
C1542 C1537 1.501 . S
C1542 H1543 0.961 . S
C1542 H1544 0.961 . S
C1542 H1545 0.960 . S
H1543 C1542 0.961 . S
H1544 C1542 0.961 . S
H1545 C1542 0.960 . S
C1546 N1547 1.342 . S
C1546 C1550 1.401 . S
C1546 C1551 1.499 . S
N1547 Co1530 1.989 . S
N1547 C1546 1.342 . S
N1547 N1548 1.388 . S
N1548 Co1531 1.993 1_554 S
N1548 N1547 1.388 . S
N1548 C1549 1.346 . S
C1549 N1548 1.346 . S
C1549 C1550 1.396 . S
C1549 C1559 1.510 1_554 S
C1550 C1546 1.401 . S
C1550 C1549 1.396 . S
C1551 C1546 1.499 . S
C1551 H1552 0.959 . S
C1551 H1553 0.960 . S
C1551 H1554 0.961 . S
H1552 C1551 0.959 . S
H1553 C1551 0.960 . S
H1554 C1551 0.961 . S
O1555 Co1530 1.967 1_556 S
O1555 C1563 1.258 . S
O1556 Co1531 1.941 . S
O1556 C1563 1.266 . S
H1557 C1559 0.959 . S
H1558 C1559 0.961 1_554 S
C1559 C1549 1.510 1_556 S
C1559 H1557 0.959 . S
C1559 H1558 0.961 1_556 S
C1559 H1560 0.960 . S
H1560 C1559 0.960 . S
H1561 N1541 0.862 . S
O1562 Co1530 1.920 . S
O1562 C1535 1.289 . S
C1563 O1555 1.258 . S
C1563 O1556 1.266 . S
Co1564 O1567 1.970 . S
Co1564 N1581 1.989 . S
Co1564 O1589 1.967 . S
Co1564 O1596 1.920 . S
Co1565 O1568 1.966 . S
Co1565 N1574 2.022 . S
Co1565 N1582 1.993 . S
Co1565 O1590 1.941 . S
C1566 O1567 1.258 . S
C1566 O1568 1.263 . S
O1567 Co1564 1.970 . S
O1567 C1566 1.258 . S
O1568 Co1565 1.966 . S
O1568 C1566 1.263 . S
C1569 O1570 1.235 . S
C1569 O1596 1.289 . S
O1570 C1569 1.235 . S
C1571 C1573 1.400 . S
C1571 N1574 1.351 . S
C1571 C1576 1.501 . S
C1572 C1573 1.387 . S
C1572 N1575 1.341 . S
C1573 C1571 1.400 . S
C1573 C1572 1.387 . S
N1574 Co1565 2.022 . S
N1574 C1571 1.351 . S
N1574 N1575 1.365 . S
N1575 C1572 1.341 . S
N1575 N1574 1.365 . S
N1575 H1595 0.862 . S
C1576 C1571 1.501 . S
C1576 H1577 0.961 . S
C1576 H1578 0.961 . S
C1576 H1579 0.960 . S
H1577 C1576 0.961 . S
H1578 C1576 0.961 . S
H1579 C1576 0.960 . S
C1580 N1581 1.342 . S
C1580 C1584 1.401 . S
C1580 C1585 1.499 . S
N1581 Co1564 1.989 . S
N1581 C1580 1.342 . S
N1581 N1582 1.388 . S
N1582 Co1565 1.993 . S
N1582 N1581 1.388 . S
N1582 C1583 1.346 . S
C1583 N1582 1.346 . S
C1583 C1584 1.396 . S
C1583 C1593 1.510 . S
C1584 C1580 1.401 . S
C1584 C1583 1.396 . S
C1585 C1580 1.499 . S
C1585 H1586 0.959 . S
C1585 H1587 0.960 . S
C1585 H1588 0.961 . S
H1586 C1585 0.959 . S
H1587 C1585 0.960 . S
H1588 C1585 0.961 . S
O1589 Co1564 1.967 . S
O1589 C1597 1.258 . S
O1590 Co1565 1.941 . S
O1590 C1597 1.266 . S
H1591 C1593 0.959 . S
H1592 C1593 0.961 . S
C1593 C1583 1.510 . S
C1593 H1591 0.959 . S
C1593 H1592 0.961 . S
C1593 H1594 0.960 . S
H1594 C1593 0.960 . S
H1595 N1575 0.862 . S
O1596 Co1564 1.920 . S
O1596 C1569 1.289 . S
C1597 O1589 1.258 . S
C1597 O1590 1.266 . S
Co1598 O1601 1.970 . S
Co1598 N1615 1.989 . S
Co1598 O1623 1.967 . S
Co1598 O1630 1.920 . S
Co1599 O1602 1.966 . S
Co1599 N1608 2.022 . S
Co1599 N1616 1.993 . S
Co1599 O1624 1.941 . S
C1600 O1601 1.258 . S
C1600 O1602 1.263 . S
O1601 Co1598 1.970 . S
O1601 C1600 1.258 . S
O1602 Co1599 1.966 . S
O1602 C1600 1.263 . S
C1603 O1604 1.235 . S
C1603 O1630 1.289 . S
O1604 C1603 1.235 . S
C1605 C1607 1.400 . S
C1605 N1608 1.351 . S
C1605 C1610 1.501 . S
C1606 C1607 1.387 . S
C1606 N1609 1.341 . S
C1607 C1605 1.400 . S
C1607 C1606 1.387 . S
N1608 Co1599 2.022 . S
N1608 C1605 1.351 . S
N1608 N1609 1.365 . S
N1609 C1606 1.341 . S
N1609 N1608 1.365 . S
N1609 H1629 0.862 . S
C1610 C1605 1.501 . S
C1610 H1611 0.961 . S
C1610 H1612 0.961 . S
C1610 H1613 0.960 . S
H1611 C1610 0.961 . S
H1612 C1610 0.961 . S
H1613 C1610 0.960 . S
C1614 N1615 1.342 . S
C1614 C1618 1.401 . S
C1614 C1619 1.499 . S
N1615 Co1598 1.989 . S
N1615 C1614 1.342 . S
N1615 N1616 1.388 . S
N1616 Co1599 1.993 . S
N1616 N1615 1.388 . S
N1616 C1617 1.346 . S
C1617 N1616 1.346 . S
C1617 C1618 1.396 . S
C1617 C1627 1.510 . S
C1618 C1614 1.401 . S
C1618 C1617 1.396 . S
C1619 C1614 1.499 . S
C1619 H1620 0.959 . S
C1619 H1621 0.960 . S
C1619 H1622 0.961 . S
H1620 C1619 0.959 . S
H1621 C1619 0.960 . S
H1622 C1619 0.961 . S
O1623 Co1598 1.967 . S
O1623 C1631 1.258 . S
O1624 Co1599 1.941 . S
O1624 C1631 1.266 . S
H1625 C1627 0.959 . S
H1626 C1627 0.961 . S
C1627 C1617 1.510 . S
C1627 H1625 0.959 . S
C1627 H1626 0.961 . S
C1627 H1628 0.960 . S
H1628 C1627 0.960 . S
H1629 N1609 0.862 . S
O1630 Co1598 1.920 . S
O1630 C1603 1.289 . S
C1631 O1623 1.258 . S
C1631 O1624 1.266 . S
C1632 C1633 1.369 . S
C1632 C1634 1.419 . S
C1632 H1636 0.930 . S
C1633 C1632 1.369 . S
C1633 C1642 1.429 . S
C1634 C1632 1.419 . S
C1634 C1635 1.363 . S
C1634 H1637 0.929 . S
C1635 C1634 1.363 . S
C1635 C1641 1.428 . S
H1636 C1632 0.930 . S
H1637 C1634 0.929 . S
S1638 N1639 1.613 . S
S1638 N1640 1.610 . S
N1639 S1638 1.613 . S
N1639 C1642 1.350 . S
N1640 S1638 1.610 . S
N1640 C1641 1.351 . S
C1641 C1635 1.428 . S
C1641 N1640 1.351 . S
C1641 C1642 1.434 . S
C1642 C1633 1.429 . S
C1642 N1639 1.350 . S
C1642 C1641 1.434 . S
C1643 C1644 1.369 . S
C1643 C1645 1.419 . S
C1643 H1647 0.930 . S
C1644 C1643 1.369 . S
C1644 C1653 1.429 . S
C1645 C1643 1.419 . S
C1645 C1646 1.363 . S
C1645 H1648 0.929 . S
C1646 C1645 1.363 . S
C1646 C1652 1.428 . S
H1647 C1643 0.930 . S
H1648 C1645 0.929 . S
S1649 N1650 1.613 . S
S1649 N1651 1.610 . S
N1650 S1649 1.613 . S
N1650 C1653 1.350 . S
N1651 S1649 1.610 . S
N1651 C1652 1.351 . S
C1652 C1646 1.428 . S
C1652 N1651 1.351 . S
C1652 C1653 1.434 . S
C1653 C1644 1.429 . S
C1653 N1650 1.350 . S
C1653 C1652 1.434 . S
C1654 C1655 1.369 . S
C1654 C1656 1.419 . S
C1654 H1658 0.930 . S
C1655 C1654 1.369 . S
C1655 C1664 1.429 . S
C1656 C1654 1.419 . S
C1656 C1657 1.363 . S
C1656 H1659 0.929 . S
C1657 C1656 1.363 . S
C1657 C1663 1.428 . S
H1658 C1654 0.930 . S
H1659 C1656 0.929 . S
S1660 N1661 1.613 . S
S1660 N1662 1.610 . S
N1661 S1660 1.613 . S
N1661 C1664 1.350 . S
N1662 S1660 1.610 . S
N1662 C1663 1.351 . S
C1663 C1657 1.428 . S
C1663 N1662 1.351 . S
C1663 C1664 1.434 . S
C1664 C1655 1.429 . S
C1664 N1661 1.350 . S
C1664 C1663 1.434 . S
C1665 C1666 1.369 . S
C1665 C1667 1.419 . S
C1665 H1669 0.930 . S
C1666 C1665 1.369 . S
C1666 C1675 1.429 . S
C1667 C1665 1.419 . S
C1667 C1668 1.363 . S
C1667 H1670 0.929 . S
C1668 C1667 1.363 . S
C1668 C1674 1.428 . S
H1669 C1665 0.930 . S
H1670 C1667 0.929 . S
S1671 N1672 1.613 . S
S1671 N1673 1.610 . S
N1672 S1671 1.613 . S
N1672 C1675 1.350 . S
N1673 S1671 1.610 . S
N1673 C1674 1.351 . S
C1674 C1668 1.428 . S
C1674 N1673 1.351 . S
C1674 C1675 1.434 . S
C1675 C1666 1.429 . S
C1675 N1672 1.350 . S
C1675 C1674 1.434 . S
C1676 C1677 1.369 . S
C1676 C1678 1.419 . S
C1676 H1680 0.930 . S
C1677 C1676 1.369 . S
C1677 C1686 1.429 . S
C1678 C1676 1.419 . S
C1678 C1679 1.363 . S
C1678 H1681 0.929 . S
C1679 C1678 1.363 . S
C1679 C1685 1.428 . S
H1680 C1676 0.930 . S
H1681 C1678 0.929 . S
S1682 N1683 1.613 . S
S1682 N1684 1.610 . S
N1683 S1682 1.613 . S
N1683 C1686 1.350 . S
N1684 S1682 1.610 . S
N1684 C1685 1.351 . S
C1685 C1679 1.428 . S
C1685 N1684 1.351 . S
C1685 C1686 1.434 . S
C1686 C1677 1.429 . S
C1686 N1683 1.350 . S
C1686 C1685 1.434 . S
C1687 C1688 1.369 . S
C1687 C1689 1.419 . S
C1687 H1691 0.930 . S
C1688 C1687 1.369 . S
C1688 C1697 1.429 . S
C1689 C1687 1.419 . S
C1689 C1690 1.363 . S
C1689 H1692 0.929 . S
C1690 C1689 1.363 . S
C1690 C1696 1.428 . S
H1691 C1687 0.930 . S
H1692 C1689 0.929 . S
S1693 N1694 1.613 . S
S1693 N1695 1.610 . S
N1694 S1693 1.613 . S
N1694 C1697 1.350 . S
N1695 S1693 1.610 . S
N1695 C1696 1.351 . S
C1696 C1690 1.428 . S
C1696 N1695 1.351 . S
C1696 C1697 1.434 . S
C1697 C1688 1.429 . S
C1697 N1694 1.350 . S
C1697 C1696 1.434 . S
C1698 C1699 1.369 . S
C1698 C1700 1.419 . S
C1698 H1702 0.930 . S
C1699 C1698 1.369 . S
C1699 C1708 1.429 . S
C1700 C1698 1.419 . S
C1700 C1701 1.363 . S
C1700 H1703 0.929 . S
C1701 C1700 1.363 . S
C1701 C1707 1.428 . S
H1702 C1698 0.930 . S
H1703 C1700 0.929 . S
S1704 N1705 1.613 . S
S1704 N1706 1.610 . S
N1705 S1704 1.613 . S
N1705 C1708 1.350 . S
N1706 S1704 1.610 . S
N1706 C1707 1.351 . S
C1707 C1701 1.428 . S
C1707 N1706 1.351 . S
C1707 C1708 1.434 . S
C1708 C1699 1.429 . S
C1708 N1705 1.350 . S
C1708 C1707 1.434 . S
C1709 C1710 1.369 . S
C1709 C1711 1.419 . S
C1709 H1713 0.930 . S
C1710 C1709 1.369 . S
C1710 C1719 1.429 . S
C1711 C1709 1.419 . S
C1711 C1712 1.363 . S
C1711 H1714 0.929 . S
C1712 C1711 1.363 . S
C1712 C1718 1.428 . S
H1713 C1709 0.930 . S
H1714 C1711 0.929 . S
S1715 N1716 1.613 . S
S1715 N1717 1.610 . S
N1716 S1715 1.613 . S
N1716 C1719 1.350 . S
N1717 S1715 1.610 . S
N1717 C1718 1.351 . S
C1718 C1712 1.428 . S
C1718 N1717 1.351 . S
C1718 C1719 1.434 . S
C1719 C1710 1.429 . S
C1719 N1716 1.350 . S
C1719 C1718 1.434 . S
C1720 C1721 1.369 . S
C1720 C1722 1.419 . S
C1720 H1724 0.930 . S
C1721 C1720 1.369 . S
C1721 C1730 1.429 . S
C1722 C1720 1.419 . S
C1722 C1723 1.363 . S
C1722 H1725 0.929 . S
C1723 C1722 1.363 . S
C1723 C1729 1.428 . S
H1724 C1720 0.930 . S
H1725 C1722 0.929 . S
S1726 N1727 1.613 . S
S1726 N1728 1.610 . S
N1727 S1726 1.613 . S
N1727 C1730 1.350 . S
N1728 S1726 1.610 . S
N1728 C1729 1.351 . S
C1729 C1723 1.428 . S
C1729 N1728 1.351 . S
C1729 C1730 1.434 . S
C1730 C1721 1.429 . S
C1730 N1727 1.350 . S
C1730 C1729 1.434 . S
C1731 C1732 1.369 . S
C1731 C1733 1.419 . S
C1731 H1735 0.930 . S
C1732 C1731 1.369 . S
C1732 C1741 1.429 . S
C1733 C1731 1.419 . S
C1733 C1734 1.363 . S
C1733 H1736 0.929 . S
C1734 C1733 1.363 . S
C1734 C1740 1.428 . S
H1735 C1731 0.930 . S
H1736 C1733 0.929 . S
S1737 N1738 1.613 . S
S1737 N1739 1.610 . S
N1738 S1737 1.613 . S
N1738 C1741 1.350 . S
N1739 S1737 1.610 . S
N1739 C1740 1.351 . S
C1740 C1734 1.428 . S
C1740 N1739 1.351 . S
C1740 C1741 1.434 . S
C1741 C1732 1.429 . S
C1741 N1738 1.350 . S
C1741 C1740 1.434 . S
C1742 C1743 1.369 . S
C1742 C1744 1.419 . S
C1742 H1746 0.930 . S
C1743 C1742 1.369 . S
C1743 C1752 1.429 . S
C1744 C1742 1.419 . S
C1744 C1745 1.363 . S
C1744 H1747 0.929 . S
C1745 C1744 1.363 . S
C1745 C1751 1.428 . S
H1746 C1742 0.930 . S
H1747 C1744 0.929 . S
S1748 N1749 1.613 . S
S1748 N1750 1.610 . S
N1749 S1748 1.613 . S
N1749 C1752 1.350 . S
N1750 S1748 1.610 . S
N1750 C1751 1.351 . S
C1751 C1745 1.428 . S
C1751 N1750 1.351 . S
C1751 C1752 1.434 . S
C1752 C1743 1.429 . S
C1752 N1749 1.350 . S
C1752 C1751 1.434 . S
C1753 C1754 1.369 . S
C1753 C1755 1.419 . S
C1753 H1757 0.930 . S
C1754 C1753 1.369 . S
C1754 C1763 1.429 . S
C1755 C1753 1.419 . S
C1755 C1756 1.363 . S
C1755 H1758 0.929 . S
C1756 C1755 1.363 . S
C1756 C1762 1.428 . S
H1757 C1753 0.930 . S
H1758 C1755 0.929 . S
S1759 N1760 1.613 . S
S1759 N1761 1.610 . S
N1760 S1759 1.613 . S
N1760 C1763 1.350 . S
N1761 S1759 1.610 . S
N1761 C1762 1.351 . S
C1762 C1756 1.428 . S
C1762 N1761 1.351 . S
C1762 C1763 1.434 . S
C1763 C1754 1.429 . S
C1763 N1760 1.350 . S
C1763 C1762 1.434 . S
C1764 C1765 1.369 . S
C1764 C1766 1.419 . S
C1764 H1768 0.930 . S
C1765 C1764 1.369 . S
C1765 C1774 1.429 . S
C1766 C1764 1.419 . S
C1766 C1767 1.363 . S
C1766 H1769 0.929 . S
C1767 C1766 1.363 . S
C1767 C1773 1.428 . S
H1768 C1764 0.930 . S
H1769 C1766 0.929 . S
S1770 N1771 1.613 . S
S1770 N1772 1.610 . S
N1771 S1770 1.613 . S
N1771 C1774 1.350 . S
N1772 S1770 1.610 . S
N1772 C1773 1.351 . S
C1773 C1767 1.428 . S
C1773 N1772 1.351 . S
C1773 C1774 1.434 . S
C1774 C1765 1.429 . S
C1774 N1771 1.350 . S
C1774 C1773 1.434 . S
C1775 C1776 1.369 . S
C1775 C1777 1.419 . S
C1775 H1779 0.930 . S
C1776 C1775 1.369 . S
C1776 C1785 1.429 . S
C1777 C1775 1.419 . S
C1777 C1778 1.363 . S
C1777 H1780 0.929 . S
C1778 C1777 1.363 . S
C1778 C1784 1.428 . S
H1779 C1775 0.930 . S
H1780 C1777 0.929 . S
S1781 N1782 1.613 . S
S1781 N1783 1.610 . S
N1782 S1781 1.613 . S
N1782 C1785 1.350 . S
N1783 S1781 1.610 . S
N1783 C1784 1.351 . S
C1784 C1778 1.428 . S
C1784 N1783 1.351 . S
C1784 C1785 1.434 . S
C1785 C1776 1.429 . S
C1785 N1782 1.350 . S
C1785 C1784 1.434 . S
C1786 C1787 1.369 . S
C1786 C1788 1.419 . S
C1786 H1790 0.930 . S
C1787 C1786 1.369 . S
C1787 C1796 1.429 . S
C1788 C1786 1.419 . S
C1788 C1789 1.363 . S
C1788 H1791 0.929 . S
C1789 C1788 1.363 . S
C1789 C1795 1.428 . S
H1790 C1786 0.930 . S
H1791 C1788 0.929 . S
S1792 N1793 1.613 . S
S1792 N1794 1.610 . S
N1793 S1792 1.613 . S
N1793 C1796 1.350 . S
N1794 S1792 1.610 . S
N1794 C1795 1.351 . S
C1795 C1789 1.428 . S
C1795 N1794 1.351 . S
C1795 C1796 1.434 . S
C1796 C1787 1.429 . S
C1796 N1793 1.350 . S
C1796 C1795 1.434 . S
C1797 C1798 1.369 . S
C1797 C1799 1.419 . S
C1797 H1801 0.930 . S
C1798 C1797 1.369 . S
C1798 C1807 1.429 . S
C1799 C1797 1.419 . S
C1799 C1800 1.363 . S
C1799 H1802 0.929 . S
C1800 C1799 1.363 . S
C1800 C1806 1.428 . S
H1801 C1797 0.930 . S
H1802 C1799 0.929 . S
S1803 N1804 1.613 . S
S1803 N1805 1.610 . S
N1804 S1803 1.613 . S
N1804 C1807 1.350 . S
N1805 S1803 1.610 . S
N1805 C1806 1.351 . S
C1806 C1800 1.428 . S
C1806 N1805 1.351 . S
C1806 C1807 1.434 . S
C1807 C1798 1.429 . S
C1807 N1804 1.350 . S
C1807 C1806 1.434 . S
C1808 C1809 1.369 . S
C1808 C1810 1.419 . S
C1808 H1812 0.930 . S
C1809 C1808 1.369 . S
C1809 C1818 1.429 . S
C1810 C1808 1.419 . S
C1810 C1811 1.363 . S
C1810 H1813 0.929 . S
C1811 C1810 1.363 . S
C1811 C1817 1.428 . S
H1812 C1808 0.930 . S
H1813 C1810 0.929 . S
S1814 N1815 1.613 1_655 S
S1814 N1816 1.610 1_655 S
N1815 S1814 1.613 1_455 S
N1815 C1818 1.350 . S
N1816 S1814 1.610 1_455 S
N1816 C1817 1.351 . S
C1817 C1811 1.428 . S
C1817 N1816 1.351 . S
C1817 C1818 1.434 . S
C1818 C1809 1.429 . S
C1818 N1815 1.350 . S
C1818 C1817 1.434 . S
C1819 C1820 1.369 . S
C1819 C1821 1.419 . S
C1819 H1823 0.930 . S
C1820 C1819 1.369 . S
C1820 C1829 1.429 . S
C1821 C1819 1.419 . S
C1821 C1822 1.363 . S
C1821 H1824 0.929 . S
C1822 C1821 1.363 . S
C1822 C1828 1.428 . S
H1823 C1819 0.930 . S
H1824 C1821 0.929 . S
S1825 N1826 1.613 . S
S1825 N1827 1.610 . S
N1826 S1825 1.613 . S
N1826 C1829 1.350 . S
N1827 S1825 1.610 . S
N1827 C1828 1.351 . S
C1828 C1822 1.428 . S
C1828 N1827 1.351 . S
C1828 C1829 1.434 . S
C1829 C1820 1.429 . S
C1829 N1826 1.350 . S
C1829 C1828 1.434 . S
C1830 C1831 1.369 . S
C1830 C1832 1.419 . S
C1830 H1834 0.930 . S
C1831 C1830 1.369 . S
C1831 C1840 1.429 . S
C1832 C1830 1.419 . S
C1832 C1833 1.363 . S
C1832 H1835 0.929 . S
C1833 C1832 1.363 . S
C1833 C1839 1.428 . S
H1834 C1830 0.930 . S
H1835 C1832 0.929 . S
S1836 N1837 1.613 . S
S1836 N1838 1.610 . S
N1837 S1836 1.613 . S
N1837 C1840 1.350 . S
N1838 S1836 1.610 . S
N1838 C1839 1.351 . S
C1839 C1833 1.428 . S
C1839 N1838 1.351 . S
C1839 C1840 1.434 . S
C1840 C1831 1.429 . S
C1840 N1837 1.350 . S
C1840 C1839 1.434 . S
C1841 C1842 1.369 . S
C1841 C1843 1.419 . S
C1841 H1845 0.930 . S
C1842 C1841 1.369 . S
C1842 C1851 1.429 . S
C1843 C1841 1.419 . S
C1843 C1844 1.363 . S
C1843 H1846 0.929 . S
C1844 C1843 1.363 . S
C1844 C1850 1.428 . S
H1845 C1841 0.930 . S
H1846 C1843 0.929 . S
S1847 N1848 1.613 . S
S1847 N1849 1.610 . S
N1848 S1847 1.613 . S
N1848 C1851 1.350 . S
N1849 S1847 1.610 . S
N1849 C1850 1.351 . S
C1850 C1844 1.428 . S
C1850 N1849 1.351 . S
C1850 C1851 1.434 . S
C1851 C1842 1.429 . S
C1851 N1848 1.350 . S
C1851 C1850 1.434 . S
C1852 C1853 1.369 . S
C1852 C1854 1.419 . S
C1852 H1856 0.930 . S
C1853 C1852 1.369 . S
C1853 C1862 1.429 . S
C1854 C1852 1.419 . S
C1854 C1855 1.363 . S
C1854 H1857 0.929 . S
C1855 C1854 1.363 . S
C1855 C1861 1.428 . S
H1856 C1852 0.930 . S
H1857 C1854 0.929 . S
S1858 N1859 1.613 . S
S1858 N1860 1.610 . S
N1859 S1858 1.613 . S
N1859 C1862 1.350 . S
N1860 S1858 1.610 . S
N1860 C1861 1.351 . S
C1861 C1855 1.428 . S
C1861 N1860 1.351 . S
C1861 C1862 1.434 . S
C1862 C1853 1.429 . S
C1862 N1859 1.350 . S
C1862 C1861 1.434 . S
C1863 C1864 1.369 . S
C1863 C1865 1.419 . S
C1863 H1867 0.930 . S
C1864 C1863 1.369 . S
C1864 C1873 1.429 . S
C1865 C1863 1.419 . S
C1865 C1866 1.363 . S
C1865 H1868 0.929 . S
C1866 C1865 1.363 . S
C1866 C1872 1.428 . S
H1867 C1863 0.930 . S
H1868 C1865 0.929 . S
S1869 N1870 1.613 . S
S1869 N1871 1.610 . S
N1870 S1869 1.613 . S
N1870 C1873 1.350 . S
N1871 S1869 1.610 . S
N1871 C1872 1.351 . S
C1872 C1866 1.428 . S
C1872 N1871 1.351 . S
C1872 C1873 1.434 . S
C1873 C1864 1.429 . S
C1873 N1870 1.350 . S
C1873 C1872 1.434 . S
C1874 C1875 1.369 . S
C1874 C1876 1.419 . S
C1874 H1878 0.930 . S
C1875 C1874 1.369 . S
C1875 C1884 1.429 . S
C1876 C1874 1.419 . S
C1876 C1877 1.363 . S
C1876 H1879 0.929 . S
C1877 C1876 1.363 . S
C1877 C1883 1.428 . S
H1878 C1874 0.930 . S
H1879 C1876 0.929 . S
S1880 N1881 1.613 . S
S1880 N1882 1.610 . S
N1881 S1880 1.613 . S
N1881 C1884 1.350 . S
N1882 S1880 1.610 . S
N1882 C1883 1.351 . S
C1883 C1877 1.428 . S
C1883 N1882 1.351 . S
C1883 C1884 1.434 . S
C1884 C1875 1.429 . S
C1884 N1881 1.350 . S
C1884 C1883 1.434 . S
C1885 C1886 1.369 . S
C1885 C1887 1.419 . S
C1885 H1889 0.930 . S
C1886 C1885 1.369 . S
C1886 C1895 1.429 . S
C1887 C1885 1.419 . S
C1887 C1888 1.363 . S
C1887 H1890 0.929 . S
C1888 C1887 1.363 . S
C1888 C1894 1.428 . S
H1889 C1885 0.930 . S
H1890 C1887 0.929 . S
S1891 N1892 1.613 . S
S1891 N1893 1.610 . S
N1892 S1891 1.613 . S
N1892 C1895 1.350 . S
N1893 S1891 1.610 . S
N1893 C1894 1.351 . S
C1894 C1888 1.428 . S
C1894 N1893 1.351 . S
C1894 C1895 1.434 . S
C1895 C1886 1.429 . S
C1895 N1892 1.350 . S
C1895 C1894 1.434 . S
C1896 C1897 1.369 . S
C1896 C1898 1.419 . S
C1896 H1900 0.930 . S
C1897 C1896 1.369 . S
C1897 C1906 1.429 . S
C1898 C1896 1.419 . S
C1898 C1899 1.363 . S
C1898 H1901 0.929 . S
C1899 C1898 1.363 . S
C1899 C1905 1.428 . S
H1900 C1896 0.930 . S
H1901 C1898 0.929 . S
S1902 N1903 1.613 . S
S1902 N1904 1.610 . S
N1903 S1902 1.613 . S
N1903 C1906 1.350 . S
N1904 S1902 1.610 . S
N1904 C1905 1.351 . S
C1905 C1899 1.428 . S
C1905 N1904 1.351 . S
C1905 C1906 1.434 . S
C1906 C1897 1.429 . S
C1906 N1903 1.350 . S
C1906 C1905 1.434 . S
C1907 C1908 1.369 . S
C1907 C1909 1.419 . S
C1907 H1911 0.930 . S
C1908 C1907 1.369 . S
C1908 C1917 1.429 . S
C1909 C1907 1.419 . S
C1909 C1910 1.363 . S
C1909 H1912 0.929 . S
C1910 C1909 1.363 . S
C1910 C1916 1.428 . S
H1911 C1907 0.930 . S
H1912 C1909 0.929 . S
S1913 N1914 1.613 . S
S1913 N1915 1.610 . S
N1914 S1913 1.613 . S
N1914 C1917 1.350 . S
N1915 S1913 1.610 . S
N1915 C1916 1.351 . S
C1916 C1910 1.428 . S
C1916 N1915 1.351 . S
C1916 C1917 1.434 . S
C1917 C1908 1.429 . S
C1917 N1914 1.350 . S
C1917 C1916 1.434 . S
C1918 C1919 1.369 . S
C1918 C1920 1.419 . S
C1918 H1922 0.930 . S
C1919 C1918 1.369 . S
C1919 C1928 1.429 . S
C1920 C1918 1.419 . S
C1920 C1921 1.363 . S
C1920 H1923 0.929 . S
C1921 C1920 1.363 . S
C1921 C1927 1.428 . S
H1922 C1918 0.930 . S
H1923 C1920 0.929 . S
S1924 N1925 1.613 . S
S1924 N1926 1.610 . S
N1925 S1924 1.613 . S
N1925 C1928 1.350 . S
N1926 S1924 1.610 . S
N1926 C1927 1.351 . S
C1927 C1921 1.428 . S
C1927 N1926 1.351 . S
C1927 C1928 1.434 . S
C1928 C1919 1.429 . S
C1928 N1925 1.350 . S
C1928 C1927 1.434 . S
C1929 C1930 1.369 . S
C1929 C1931 1.419 . S
C1929 H1933 0.930 . S
C1930 C1929 1.369 . S
C1930 C1939 1.429 . S
C1931 C1929 1.419 . S
C1931 C1932 1.363 . S
C1931 H1934 0.929 . S
C1932 C1931 1.363 . S
C1932 C1938 1.428 . S
H1933 C1929 0.930 . S
H1934 C1931 0.929 . S
S1935 N1936 1.613 . S
S1935 N1937 1.610 . S
N1936 S1935 1.613 . S
N1936 C1939 1.350 . S
N1937 S1935 1.610 . S
N1937 C1938 1.351 . S
C1938 C1932 1.428 . S
C1938 N1937 1.351 . S
C1938 C1939 1.434 . S
C1939 C1930 1.429 . S
C1939 N1936 1.350 . S
C1939 C1938 1.434 . S
C1940 C1941 1.369 . S
C1940 C1942 1.419 . S
C1940 H1944 0.930 . S
C1941 C1940 1.369 . S
C1941 C1950 1.429 . S
C1942 C1940 1.419 . S
C1942 C1943 1.363 . S
C1942 H1945 0.929 . S
C1943 C1942 1.363 . S
C1943 C1949 1.428 . S
H1944 C1940 0.930 . S
H1945 C1942 0.929 . S
S1946 N1947 1.613 . S
S1946 N1948 1.610 . S
N1947 S1946 1.613 . S
N1947 C1950 1.350 . S
N1948 S1946 1.610 . S
N1948 C1949 1.351 . S
C1949 C1943 1.428 . S
C1949 N1948 1.351 . S
C1949 C1950 1.434 . S
C1950 C1941 1.429 . S
C1950 N1947 1.350 . S
C1950 C1949 1.434 . S
C1951 C1952 1.369 . S
C1951 C1953 1.419 . S
C1951 H1955 0.930 . S
C1952 C1951 1.369 . S
C1952 C1961 1.429 . S
C1953 C1951 1.419 . S
C1953 C1954 1.363 . S
C1953 H1956 0.929 . S
C1954 C1953 1.363 . S
C1954 C1960 1.428 . S
H1955 C1951 0.930 . S
H1956 C1953 0.929 . S
S1957 N1958 1.613 . S
S1957 N1959 1.610 . S
N1958 S1957 1.613 . S
N1958 C1961 1.350 . S
N1959 S1957 1.610 . S
N1959 C1960 1.351 . S
C1960 C1954 1.428 . S
C1960 N1959 1.351 . S
C1960 C1961 1.434 . S
C1961 C1952 1.429 . S
C1961 N1958 1.350 . S
C1961 C1960 1.434 . S
C1962 C1963 1.369 . S
C1962 C1964 1.419 . S
C1962 H1966 0.930 . S
C1963 C1962 1.369 . S
C1963 C1972 1.429 . S
C1964 C1962 1.419 . S
C1964 C1965 1.363 . S
C1964 H1967 0.929 . S
C1965 C1964 1.363 . S
C1965 C1971 1.428 . S
H1966 C1962 0.930 . S
H1967 C1964 0.929 . S
S1968 N1969 1.613 . S
S1968 N1970 1.610 . S
N1969 S1968 1.613 . S
N1969 C1972 1.350 . S
N1970 S1968 1.610 . S
N1970 C1971 1.351 . S
C1971 C1965 1.428 . S
C1971 N1970 1.351 . S
C1971 C1972 1.434 . S
C1972 C1963 1.429 . S
C1972 N1969 1.350 . S
C1972 C1971 1.434 . S
C1973 C1974 1.369 . S
C1973 C1975 1.419 . S
C1973 H1977 0.930 . S
C1974 C1973 1.369 . S
C1974 C1983 1.429 . S
C1975 C1973 1.419 . S
C1975 C1976 1.363 . S
C1975 H1978 0.929 . S
C1976 C1975 1.363 . S
C1976 C1982 1.428 . S
H1977 C1973 0.930 . S
H1978 C1975 0.929 . S
S1979 N1980 1.613 . S
S1979 N1981 1.610 . S
N1980 S1979 1.613 . S
N1980 C1983 1.350 . S
N1981 S1979 1.610 . S
N1981 C1982 1.351 . S
C1982 C1976 1.428 . S
C1982 N1981 1.351 . S
C1982 C1983 1.434 . S
C1983 C1974 1.429 . S
C1983 N1980 1.350 . S
C1983 C1982 1.434 . S
C1984 C1985 1.369 . S
C1984 C1986 1.419 . S
C1984 H1988 0.930 . S
C1985 C1984 1.369 . S
C1985 C1994 1.429 . S
C1986 C1984 1.419 . S
C1986 C1987 1.363 . S
C1986 H1989 0.929 . S
C1987 C1986 1.363 . S
C1987 C1993 1.428 . S
H1988 C1984 0.930 . S
H1989 C1986 0.929 . S
S1990 N1991 1.613 . S
S1990 N1992 1.610 . S
N1991 S1990 1.613 . S
N1991 C1994 1.350 . S
N1992 S1990 1.610 . S
N1992 C1993 1.351 . S
C1993 C1987 1.428 . S
C1993 N1992 1.351 . S
C1993 C1994 1.434 . S
C1994 C1985 1.429 . S
C1994 N1991 1.350 . S
C1994 C1993 1.434 . S
C1995 C1996 1.369 . S
C1995 C1997 1.419 . S
C1995 H1999 0.930 . S
C1996 C1995 1.369 . S
C1996 C2005 1.429 . S
C1997 C1995 1.419 . S
C1997 C1998 1.363 . S
C1997 H2000 0.929 . S
C1998 C1997 1.363 . S
C1998 C2004 1.428 . S
H1999 C1995 0.930 . S
H2000 C1997 0.929 . S
S2001 N2002 1.613 . S
S2001 N2003 1.610 . S
N2002 S2001 1.613 . S
N2002 C2005 1.350 . S
N2003 S2001 1.610 . S
N2003 C2004 1.351 . S
C2004 C1998 1.428 . S
C2004 N2003 1.351 . S
C2004 C2005 1.434 . S
C2005 C1996 1.429 . S
C2005 N2002 1.350 . S
C2005 C2004 1.434 . S
C2006 C2007 1.369 . S
C2006 C2008 1.419 . S
C2006 H2010 0.930 . S
C2007 C2006 1.369 . S
C2007 C2016 1.429 . S
C2008 C2006 1.419 . S
C2008 C2009 1.363 . S
C2008 H2011 0.929 . S
C2009 C2008 1.363 . S
C2009 C2015 1.428 . S
H2010 C2006 0.930 . S
H2011 C2008 0.929 . S
S2012 N2013 1.613 . S
S2012 N2014 1.610 . S
N2013 S2012 1.613 . S
N2013 C2016 1.350 . S
N2014 S2012 1.610 . S
N2014 C2015 1.351 . S
C2015 C2009 1.428 . S
C2015 N2014 1.351 . S
C2015 C2016 1.434 . S
C2016 C2007 1.429 . S
C2016 N2013 1.350 . S
C2016 C2015 1.434 . S
C2017 C2018 1.369 . S
C2017 C2019 1.419 . S
C2017 H2021 0.930 . S
C2018 C2017 1.369 . S
C2018 C2027 1.429 . S
C2019 C2017 1.419 . S
C2019 C2020 1.363 . S
C2019 H2022 0.929 . S
C2020 C2019 1.363 . S
C2020 C2026 1.428 . S
H2021 C2017 0.930 . S
H2022 C2019 0.929 . S
S2023 N2024 1.613 . S
S2023 N2025 1.610 . S
N2024 S2023 1.613 . S
N2024 C2027 1.350 . S
N2025 S2023 1.610 . S
N2025 C2026 1.351 . S
C2026 C2020 1.428 . S
C2026 N2025 1.351 . S
C2026 C2027 1.434 . S
C2027 C2018 1.429 . S
C2027 N2024 1.350 . S
C2027 C2026 1.434 . S
C2028 C2029 1.369 . S
C2028 C2030 1.419 . S
C2028 H2032 0.930 . S
C2029 C2028 1.369 . S
C2029 C2038 1.429 . S
C2030 C2028 1.419 . S
C2030 C2031 1.363 . S
C2030 H2033 0.929 . S
C2031 C2030 1.363 . S
C2031 C2037 1.428 . S
H2032 C2028 0.930 . S
H2033 C2030 0.929 . S
S2034 N2035 1.613 . S
S2034 N2036 1.610 . S
N2035 S2034 1.613 . S
N2035 C2038 1.350 . S
N2036 S2034 1.610 . S
N2036 C2037 1.351 . S
C2037 C2031 1.428 . S
C2037 N2036 1.351 . S
C2037 C2038 1.434 . S
C2038 C2029 1.429 . S
C2038 N2035 1.350 . S
C2038 C2037 1.434 . S
C2039 C2040 1.369 . S
C2039 C2041 1.419 . S
C2039 H2043 0.930 . S
C2040 C2039 1.369 . S
C2040 C2049 1.429 . S
C2041 C2039 1.419 . S
C2041 C2042 1.363 . S
C2041 H2044 0.929 . S
C2042 C2041 1.363 . S
C2042 C2048 1.428 . S
H2043 C2039 0.930 . S
H2044 C2041 0.929 . S
S2045 N2046 1.613 . S
S2045 N2047 1.610 . S
N2046 S2045 1.613 . S
N2046 C2049 1.350 . S
N2047 S2045 1.610 . S
N2047 C2048 1.351 . S
C2048 C2042 1.428 . S
C2048 N2047 1.351 . S
C2048 C2049 1.434 . S
C2049 C2040 1.429 . S
C2049 N2046 1.350 . S
C2049 C2048 1.434 . S
C2050 C2051 1.369 . S
C2050 C2052 1.419 . S
C2050 H2054 0.930 . S
C2051 C2050 1.369 . S
C2051 C2060 1.429 . S
C2052 C2050 1.419 . S
C2052 C2053 1.363 . S
C2052 H2055 0.929 . S
C2053 C2052 1.363 . S
C2053 C2059 1.428 . S
H2054 C2050 0.930 . S
H2055 C2052 0.929 . S
S2056 N2057 1.613 . S
S2056 N2058 1.610 . S
N2057 S2056 1.613 . S
N2057 C2060 1.350 . S
N2058 S2056 1.610 . S
N2058 C2059 1.351 . S
C2059 C2053 1.428 . S
C2059 N2058 1.351 . S
C2059 C2060 1.434 . S
C2060 C2051 1.429 . S
C2060 N2057 1.350 . S
C2060 C2059 1.434 . S
C2061 C2062 1.369 . S
C2061 C2063 1.419 . S
C2061 H2065 0.930 . S
C2062 C2061 1.369 . S
C2062 C2071 1.429 . S
C2063 C2061 1.419 . S
C2063 C2064 1.363 . S
C2063 H2066 0.929 . S
C2064 C2063 1.363 . S
C2064 C2070 1.428 . S
H2065 C2061 0.930 . S
H2066 C2063 0.929 . S
S2067 N2068 1.613 . S
S2067 N2069 1.610 . S
N2068 S2067 1.613 . S
N2068 C2071 1.350 . S
N2069 S2067 1.610 . S
N2069 C2070 1.351 . S
C2070 C2064 1.428 . S
C2070 N2069 1.351 . S
C2070 C2071 1.434 . S
C2071 C2062 1.429 . S
C2071 N2068 1.350 . S
C2071 C2070 1.434 . S
C2072 C2073 1.369 . S
C2072 C2074 1.419 . S
C2072 H2076 0.930 . S
C2073 C2072 1.369 . S
C2073 C2082 1.429 . S
C2074 C2072 1.419 . S
C2074 C2075 1.363 . S
C2074 H2077 0.929 . S
C2075 C2074 1.363 . S
C2075 C2081 1.428 . S
H2076 C2072 0.930 . S
H2077 C2074 0.929 . S
S2078 N2079 1.613 . S
S2078 N2080 1.610 . S
N2079 S2078 1.613 . S
N2079 C2082 1.350 . S
N2080 S2078 1.610 . S
N2080 C2081 1.351 . S
C2081 C2075 1.428 . S
C2081 N2080 1.351 . S
C2081 C2082 1.434 . S
C2082 C2073 1.429 . S
C2082 N2079 1.350 . S
C2082 C2081 1.434 . S
C2083 C2084 1.369 . S
C2083 C2085 1.419 . S
C2083 H2087 0.930 . S
C2084 C2083 1.369 . S
C2084 C2093 1.429 . S
C2085 C2083 1.419 . S
C2085 C2086 1.363 . S
C2085 H2088 0.929 . S
C2086 C2085 1.363 . S
C2086 C2092 1.428 . S
H2087 C2083 0.930 . S
H2088 C2085 0.929 . S
S2089 N2090 1.613 1_655 S
S2089 N2091 1.610 1_655 S
N2090 S2089 1.613 1_455 S
N2090 C2093 1.350 . S
N2091 S2089 1.610 1_455 S
N2091 C2092 1.351 . S
C2092 C2086 1.428 . S
C2092 N2091 1.351 . S
C2092 C2093 1.434 . S
C2093 C2084 1.429 . S
C2093 N2090 1.350 . S
C2093 C2092 1.434 . S
C2094 C2095 1.369 . S
C2094 C2096 1.419 . S
C2094 H2098 0.930 . S
C2095 C2094 1.369 . S
C2095 C2104 1.429 . S
C2096 C2094 1.419 . S
C2096 C2097 1.363 . S
C2096 H2099 0.929 . S
C2097 C2096 1.363 . S
C2097 C2103 1.428 . S
H2098 C2094 0.930 . S
H2099 C2096 0.929 . S
S2100 N2101 1.613 . S
S2100 N2102 1.610 . S
N2101 S2100 1.613 . S
N2101 C2104 1.350 . S
N2102 S2100 1.610 . S
N2102 C2103 1.351 . S
C2103 C2097 1.428 . S
C2103 N2102 1.351 . S
C2103 C2104 1.434 . S
C2104 C2095 1.429 . S
C2104 N2101 1.350 . S
C2104 C2103 1.434 . S
C2105 C2106 1.369 . S
C2105 C2107 1.419 . S
C2105 H2109 0.930 . S
C2106 C2105 1.369 . S
C2106 C2115 1.429 . S
C2107 C2105 1.419 . S
C2107 C2108 1.363 . S
C2107 H2110 0.929 . S
C2108 C2107 1.363 . S
C2108 C2114 1.428 . S
H2109 C2105 0.930 . S
H2110 C2107 0.929 . S
S2111 N2112 1.613 . S
S2111 N2113 1.610 . S
N2112 S2111 1.613 . S
N2112 C2115 1.350 . S
N2113 S2111 1.610 . S
N2113 C2114 1.351 . S
C2114 C2108 1.428 . S
C2114 N2113 1.351 . S
C2114 C2115 1.434 . S
C2115 C2106 1.429 . S
C2115 N2112 1.350 . S
C2115 C2114 1.434 . S
C2116 C2117 1.369 . S
C2116 C2118 1.419 . S
C2116 H2120 0.930 . S
C2117 C2116 1.369 . S
C2117 C2126 1.429 . S
C2118 C2116 1.419 . S
C2118 C2119 1.363 . S
C2118 H2121 0.929 . S
C2119 C2118 1.363 . S
C2119 C2125 1.428 . S
H2120 C2116 0.930 . S
H2121 C2118 0.929 . S
S2122 N2123 1.613 . S
S2122 N2124 1.610 . S
N2123 S2122 1.613 . S
N2123 C2126 1.350 . S
N2124 S2122 1.610 . S
N2124 C2125 1.351 . S
C2125 C2119 1.428 . S
C2125 N2124 1.351 . S
C2125 C2126 1.434 . S
C2126 C2117 1.429 . S
C2126 N2123 1.350 . S
C2126 C2125 1.434 . S
C2127 C2128 1.369 . S
C2127 C2129 1.419 . S
C2127 H2131 0.930 . S
C2128 C2127 1.369 . S
C2128 C2137 1.429 . S
C2129 C2127 1.419 . S
C2129 C2130 1.363 . S
C2129 H2132 0.929 . S
C2130 C2129 1.363 . S
C2130 C2136 1.428 . S
H2131 C2127 0.930 . S
H2132 C2129 0.929 . S
S2133 N2134 1.628 . S
S2133 N2135 1.610 1_545 S
N2134 S2133 1.628 . S
N2134 C2137 1.350 . S
N2135 S2133 1.610 1_565 S
N2135 C2136 1.345 1_565 S
C2136 C2130 1.428 . S
C2136 N2135 1.345 1_545 S
C2136 C2137 1.434 . S
C2137 C2128 1.429 . S
C2137 N2134 1.350 . S
C2137 C2136 1.434 . S
C2138 C2139 1.369 . S
C2138 C2140 1.419 . S
C2138 H2142 0.930 . S
C2139 C2138 1.369 . S
C2139 C2148 1.429 . S
C2140 C2138 1.419 . S
C2140 C2141 1.363 . S
C2140 H2143 0.929 . S
C2141 C2140 1.363 . S
C2141 C2147 1.428 . S
H2142 C2138 0.930 . S
H2143 C2140 0.929 . S
S2144 N2145 1.613 . S
S2144 N2146 1.610 . S
N2145 S2144 1.613 . S
N2145 C2148 1.350 . S
N2146 S2144 1.610 . S
N2146 C2147 1.351 . S
C2147 C2141 1.428 . S
C2147 N2146 1.351 . S
C2147 C2148 1.434 . S
C2148 C2139 1.429 . S
C2148 N2145 1.350 . S
C2148 C2147 1.434 . S
C2149 C2150 1.369 . S
C2149 C2151 1.419 . S
C2149 H2153 0.930 . S
C2150 C2149 1.369 . S
C2150 C2159 1.429 . S
C2151 C2149 1.419 . S
C2151 C2152 1.363 . S
C2151 H2154 0.929 . S
C2152 C2151 1.363 . S
C2152 C2158 1.428 . S
H2153 C2149 0.930 . S
H2154 C2151 0.929 . S
S2155 N2156 1.613 . S
S2155 N2157 1.610 . S
N2156 S2155 1.613 . S
N2156 C2159 1.350 . S
N2157 S2155 1.610 . S
N2157 C2158 1.351 . S
C2158 C2152 1.428 . S
C2158 N2157 1.351 . S
C2158 C2159 1.434 . S
C2159 C2150 1.429 . S
C2159 N2156 1.350 . S
C2159 C2158 1.434 . S
C2160 C2161 1.369 . S
C2160 C2162 1.419 . S
C2160 H2164 0.930 . S
C2161 C2160 1.369 . S
C2161 C2170 1.429 . S
C2162 C2160 1.419 . S
C2162 C2163 1.363 . S
C2162 H2165 0.929 . S
C2163 C2162 1.363 . S
C2163 C2169 1.428 . S
H2164 C2160 0.930 . S
H2165 C2162 0.929 . S
S2166 N2167 1.613 . S
S2166 N2168 1.610 . S
N2167 S2166 1.613 . S
N2167 C2170 1.350 . S
N2168 S2166 1.610 . S
N2168 C2169 1.351 . S
C2169 C2163 1.428 . S
C2169 N2168 1.351 . S
C2169 C2170 1.434 . S
C2170 C2161 1.429 . S
C2170 N2167 1.350 . S
C2170 C2169 1.434 . S
C2171 C2172 1.369 . S
C2171 C2173 1.419 . S
C2171 H2175 0.930 . S
C2172 C2171 1.369 . S
C2172 C2181 1.429 . S
C2173 C2171 1.419 . S
C2173 C2174 1.363 . S
C2173 H2176 0.929 . S
C2174 C2173 1.363 . S
C2174 C2180 1.428 . S
H2175 C2171 0.930 . S
H2176 C2173 0.929 . S
S2177 N2178 1.613 . S
S2177 N2179 1.610 . S
N2178 S2177 1.613 . S
N2178 C2181 1.350 . S
N2179 S2177 1.610 . S
N2179 C2180 1.351 . S
C2180 C2174 1.428 . S
C2180 N2179 1.351 . S
C2180 C2181 1.434 . S
C2181 C2172 1.429 . S
C2181 N2178 1.350 . S
C2181 C2180 1.434 . S
C2182 C2183 1.369 . S
C2182 C2184 1.419 . S
C2182 H2186 0.930 . S
C2183 C2182 1.369 . S
C2183 C2192 1.429 . S
C2184 C2182 1.419 . S
C2184 C2185 1.363 . S
C2184 H2187 0.929 . S
C2185 C2184 1.363 . S
C2185 C2191 1.428 . S
H2186 C2182 0.930 . S
H2187 C2184 0.929 . S
S2188 N2189 1.613 . S
S2188 N2190 1.610 . S
N2189 S2188 1.613 . S
N2189 C2192 1.350 . S
N2190 S2188 1.610 . S
N2190 C2191 1.351 . S
C2191 C2185 1.428 . S
C2191 N2190 1.351 . S
C2191 C2192 1.434 . S
C2192 C2183 1.429 . S
C2192 N2189 1.350 . S
C2192 C2191 1.434 . S
C2193 C2194 1.369 . S
C2193 C2195 1.419 . S
C2193 H2197 0.930 . S
C2194 C2193 1.369 . S
C2194 C2203 1.429 . S
C2195 C2193 1.419 . S
C2195 C2196 1.363 . S
C2195 H2198 0.929 . S
C2196 C2195 1.363 . S
C2196 C2202 1.428 . S
H2197 C2193 0.930 . S
H2198 C2195 0.929 . S
S2199 N2200 1.613 . S
S2199 N2201 1.610 . S
N2200 S2199 1.613 . S
N2200 C2203 1.350 . S
N2201 S2199 1.610 . S
N2201 C2202 1.351 . S
C2202 C2196 1.428 . S
C2202 N2201 1.351 . S
C2202 C2203 1.434 . S
C2203 C2194 1.429 . S
C2203 N2200 1.350 . S
C2203 C2202 1.434 . S
C2204 C2205 1.369 . S
C2204 C2206 1.419 . S
C2204 H2208 0.930 . S
C2205 C2204 1.369 . S
C2205 C2214 1.429 . S
C2206 C2204 1.419 . S
C2206 C2207 1.363 . S
C2206 H2209 0.929 . S
C2207 C2206 1.363 . S
C2207 C2213 1.428 . S
H2208 C2204 0.930 . S
H2209 C2206 0.929 . S
S2210 N2211 1.613 . S
S2210 N2212 1.610 . S
N2211 S2210 1.613 . S
N2211 C2214 1.350 . S
N2212 S2210 1.610 . S
N2212 C2213 1.351 . S
C2213 C2207 1.428 . S
C2213 N2212 1.351 . S
C2213 C2214 1.434 . S
C2214 C2205 1.429 . S
C2214 N2211 1.350 . S
C2214 C2213 1.434 . S
C2215 C2216 1.369 . S
C2215 C2217 1.419 . S
C2215 H2219 0.930 . S
C2216 C2215 1.369 . S
C2216 C2225 1.429 . S
C2217 C2215 1.419 . S
C2217 C2218 1.363 . S
C2217 H2220 0.929 . S
C2218 C2217 1.363 . S
C2218 C2224 1.428 . S
H2219 C2215 0.930 . S
H2220 C2217 0.929 . S
S2221 N2222 1.613 . S
S2221 N2223 1.610 . S
N2222 S2221 1.613 . S
N2222 C2225 1.350 . S
N2223 S2221 1.610 . S
N2223 C2224 1.351 . S
C2224 C2218 1.428 . S
C2224 N2223 1.351 . S
C2224 C2225 1.434 . S
C2225 C2216 1.429 . S
C2225 N2222 1.350 . S
C2225 C2224 1.434 . S
C2226 C2227 1.369 . S
C2226 C2228 1.419 . S
C2226 H2230 0.930 . S
C2227 C2226 1.369 . S
C2227 C2236 1.429 . S
C2228 C2226 1.419 . S
C2228 C2229 1.363 . S
C2228 H2231 0.929 . S
C2229 C2228 1.363 . S
C2229 C2235 1.428 . S
H2230 C2226 0.930 . S
H2231 C2228 0.929 . S
S2232 N2233 1.613 . S
S2232 N2234 1.610 . S
N2233 S2232 1.613 . S
N2233 C2236 1.350 . S
N2234 S2232 1.610 . S
N2234 C2235 1.351 . S
C2235 C2229 1.428 . S
C2235 N2234 1.351 . S
C2235 C2236 1.434 . S
C2236 C2227 1.429 . S
C2236 N2233 1.350 . S
C2236 C2235 1.434 . S
C2237 C2238 1.369 . S
C2237 C2239 1.419 . S
C2237 H2241 0.930 . S
C2238 C2237 1.369 . S
C2238 C2247 1.429 . S
C2239 C2237 1.419 . S
C2239 C2240 1.363 . S
C2239 H2242 0.929 . S
C2240 C2239 1.363 . S
C2240 C2246 1.428 . S
H2241 C2237 0.930 . S
H2242 C2239 0.929 . S
S2243 N2244 1.613 . S
S2243 N2245 1.610 . S
N2244 S2243 1.613 . S
N2244 C2247 1.350 . S
N2245 S2243 1.610 . S
N2245 C2246 1.351 . S
C2246 C2240 1.428 . S
C2246 N2245 1.351 . S
C2246 C2247 1.434 . S
C2247 C2238 1.429 . S
C2247 N2244 1.350 . S
C2247 C2246 1.434 . S
C2248 C2249 1.369 . S
C2248 C2250 1.419 . S
C2248 H2252 0.930 . S
C2249 C2248 1.369 . S
C2249 C2258 1.429 . S
C2250 C2248 1.419 . S
C2250 C2251 1.363 . S
C2250 H2253 0.929 . S
C2251 C2250 1.363 . S
C2251 C2257 1.428 . S
H2252 C2248 0.930 . S
H2253 C2250 0.929 . S
S2254 N2255 1.613 . S
S2254 N2256 1.610 . S
N2255 S2254 1.613 . S
N2255 C2258 1.350 . S
N2256 S2254 1.610 . S
N2256 C2257 1.351 . S
C2257 C2251 1.428 . S
C2257 N2256 1.351 . S
C2257 C2258 1.434 . S
C2258 C2249 1.429 . S
C2258 N2255 1.350 . S
C2258 C2257 1.434 . S
C2259 C2260 1.369 . S
C2259 C2261 1.419 . S
C2259 H2263 0.930 . S
C2260 C2259 1.369 . S
C2260 C2269 1.429 . S
C2261 C2259 1.419 . S
C2261 C2262 1.363 . S
C2261 H2264 0.929 . S
C2262 C2261 1.363 . S
C2262 C2268 1.428 . S
H2263 C2259 0.930 . S
H2264 C2261 0.929 . S
S2265 N2266 1.613 . S
S2265 N2267 1.610 . S
N2266 S2265 1.613 . S
N2266 C2269 1.350 . S
N2267 S2265 1.610 . S
N2267 C2268 1.351 . S
C2268 C2262 1.428 . S
C2268 N2267 1.351 . S
C2268 C2269 1.434 . S
C2269 C2260 1.429 . S
C2269 N2266 1.350 . S
C2269 C2268 1.434 . S
C2270 C2271 1.369 . S
C2270 C2272 1.419 . S
C2270 H2274 0.930 . S
C2271 C2270 1.369 . S
C2271 C2280 1.429 . S
C2272 C2270 1.419 . S
C2272 C2273 1.363 . S
C2272 H2275 0.929 . S
C2273 C2272 1.363 . S
C2273 C2279 1.428 . S
H2274 C2270 0.930 . S
H2275 C2272 0.929 . S
S2276 N2277 1.613 . S
S2276 N2278 1.610 . S
N2277 S2276 1.613 . S
N2277 C2280 1.350 . S
N2278 S2276 1.610 . S
N2278 C2279 1.351 . S
C2279 C2273 1.428 . S
C2279 N2278 1.351 . S
C2279 C2280 1.434 . S
C2280 C2271 1.429 . S
C2280 N2277 1.350 . S
C2280 C2279 1.434 . S
C2281 C2282 1.369 . S
C2281 C2283 1.419 . S
C2281 H2285 0.930 . S
C2282 C2281 1.369 . S
C2282 C2291 1.429 . S
C2283 C2281 1.419 . S
C2283 C2284 1.363 . S
C2283 H2286 0.929 . S
C2284 C2283 1.363 . S
C2284 C2290 1.428 . S
H2285 C2281 0.930 . S
H2286 C2283 0.929 . S
S2287 N2288 1.613 . S
S2287 N2289 1.610 . S
N2288 S2287 1.613 . S
N2288 C2291 1.350 . S
N2289 S2287 1.610 . S
N2289 C2290 1.351 . S
C2290 C2284 1.428 . S
C2290 N2289 1.351 . S
C2290 C2291 1.434 . S
C2291 C2282 1.429 . S
C2291 N2288 1.350 . S
C2291 C2290 1.434 . S
C2292 C2293 1.369 . S
C2292 C2294 1.419 . S
C2292 H2296 0.930 . S
C2293 C2292 1.369 . S
C2293 C2302 1.429 . S
C2294 C2292 1.419 . S
C2294 C2295 1.363 . S
C2294 H2297 0.929 . S
C2295 C2294 1.363 . S
C2295 C2301 1.428 . S
H2296 C2292 0.930 . S
H2297 C2294 0.929 . S
S2298 N2299 1.613 . S
S2298 N2300 1.610 . S
N2299 S2298 1.613 . S
N2299 C2302 1.350 . S
N2300 S2298 1.610 . S
N2300 C2301 1.351 . S
C2301 C2295 1.428 . S
C2301 N2300 1.351 . S
C2301 C2302 1.434 . S
C2302 C2293 1.429 . S
C2302 N2299 1.350 . S
C2302 C2301 1.434 . S
C2303 C2304 1.369 . S
C2303 C2305 1.419 . S
C2303 H2307 0.930 . S
C2304 C2303 1.369 . S
C2304 C2313 1.429 . S
C2305 C2303 1.419 . S
C2305 C2306 1.363 . S
C2305 H2308 0.929 . S
C2306 C2305 1.363 . S
C2306 C2312 1.428 . S
H2307 C2303 0.930 . S
H2308 C2305 0.929 . S
S2309 N2310 1.613 . S
S2309 N2311 1.610 . S
N2310 S2309 1.613 . S
N2310 C2313 1.350 . S
N2311 S2309 1.610 . S
N2311 C2312 1.351 . S
C2312 C2306 1.428 . S
C2312 N2311 1.351 . S
C2312 C2313 1.434 . S
C2313 C2304 1.429 . S
C2313 N2310 1.350 . S
C2313 C2312 1.434 . S
C2314 C2315 1.369 . S
C2314 C2316 1.419 . S
C2314 H2318 0.930 . S
C2315 C2314 1.369 . S
C2315 C2324 1.429 . S
C2316 C2314 1.419 . S
C2316 C2317 1.363 . S
C2316 H2319 0.929 . S
C2317 C2316 1.363 . S
C2317 C2323 1.428 . S
H2318 C2314 0.930 . S
H2319 C2316 0.929 . S
S2320 N2321 1.613 . S
S2320 N2322 1.610 . S
N2321 S2320 1.613 . S
N2321 C2324 1.350 . S
N2322 S2320 1.610 . S
N2322 C2323 1.351 . S
C2323 C2317 1.428 . S
C2323 N2322 1.351 . S
C2323 C2324 1.434 . S
C2324 C2315 1.429 . S
C2324 N2321 1.350 . S
C2324 C2323 1.434 . S
C2325 C2326 1.369 . S
C2325 C2327 1.419 . S
C2325 H2329 0.930 . S
C2326 C2325 1.369 . S
C2326 C2335 1.429 . S
C2327 C2325 1.419 . S
C2327 C2328 1.363 . S
C2327 H2330 0.929 . S
C2328 C2327 1.363 . S
C2328 C2334 1.428 . S
H2329 C2325 0.930 . S
H2330 C2327 0.929 . S
S2331 N2332 1.613 . S
S2331 N2333 1.610 . S
N2332 S2331 1.613 . S
N2332 C2335 1.350 . S
N2333 S2331 1.610 . S
N2333 C2334 1.351 . S
C2334 C2328 1.428 . S
C2334 N2333 1.351 . S
C2334 C2335 1.434 . S
C2335 C2326 1.429 . S
C2335 N2332 1.350 . S
C2335 C2334 1.434 . S
C2336 C2337 1.369 . S
C2336 C2338 1.419 . S
C2336 H2340 0.930 . S
C2337 C2336 1.369 . S
C2337 C2346 1.429 . S
C2338 C2336 1.419 . S
C2338 C2339 1.363 . S
C2338 H2341 0.929 . S
C2339 C2338 1.363 . S
C2339 C2345 1.428 . S
H2340 C2336 0.930 . S
H2341 C2338 0.929 . S
S2342 N2343 1.613 . S
S2342 N2344 1.610 . S
N2343 S2342 1.613 . S
N2343 C2346 1.350 . S
N2344 S2342 1.610 . S
N2344 C2345 1.351 . S
C2345 C2339 1.428 . S
C2345 N2344 1.351 . S
C2345 C2346 1.434 . S
C2346 C2337 1.429 . S
C2346 N2343 1.350 . S
C2346 C2345 1.434 . S
C2347 C2348 1.369 . S
C2347 C2349 1.419 . S
C2347 H2351 0.930 . S
C2348 C2347 1.369 . S
C2348 C2357 1.429 . S
C2349 C2347 1.419 . S
C2349 C2350 1.363 . S
C2349 H2352 0.929 . S
C2350 C2349 1.363 . S
C2350 C2356 1.428 . S
H2351 C2347 0.930 . S
H2352 C2349 0.929 . S
S2353 N2354 1.613 . S
S2353 N2355 1.610 . S
N2354 S2353 1.613 . S
N2354 C2357 1.350 . S
N2355 S2353 1.610 . S
N2355 C2356 1.351 . S
C2356 C2350 1.428 . S
C2356 N2355 1.351 . S
C2356 C2357 1.434 . S
C2357 C2348 1.429 . S
C2357 N2354 1.350 . S
C2357 C2356 1.434 . S
C2358 C2359 1.369 . S
C2358 C2360 1.419 . S
C2358 H2362 0.930 . S
C2359 C2358 1.369 . S
C2359 C2368 1.429 . S
C2360 C2358 1.419 . S
C2360 C2361 1.363 . S
C2360 H2363 0.929 . S
C2361 C2360 1.363 . S
C2361 C2367 1.428 . S
H2362 C2358 0.930 . S
H2363 C2360 0.929 . S
S2364 N2365 1.613 . S
S2364 N2366 1.610 . S
N2365 S2364 1.613 . S
N2365 C2368 1.350 . S
N2366 S2364 1.610 . S
N2366 C2367 1.351 . S
C2367 C2361 1.428 . S
C2367 N2366 1.351 . S
C2367 C2368 1.434 . S
C2368 C2359 1.429 . S
C2368 N2365 1.350 . S
C2368 C2367 1.434 . S
C2369 C2370 1.369 . S
C2369 C2371 1.419 . S
C2369 H2373 0.930 . S
C2370 C2369 1.369 . S
C2370 C2379 1.429 . S
C2371 C2369 1.419 . S
C2371 C2372 1.363 . S
C2371 H2374 0.929 . S
C2372 C2371 1.363 . S
C2372 C2378 1.428 . S
H2373 C2369 0.930 . S
H2374 C2371 0.929 . S
S2375 N2376 1.613 . S
S2375 N2377 1.610 . S
N2376 S2375 1.613 . S
N2376 C2379 1.350 . S
N2377 S2375 1.610 . S
N2377 C2378 1.351 . S
C2378 C2372 1.428 . S
C2378 N2377 1.351 . S
C2378 C2379 1.434 . S
C2379 C2370 1.429 . S
C2379 N2376 1.350 . S
C2379 C2378 1.434 . S
C2380 C2381 1.369 . S
C2380 C2382 1.419 . S
C2380 H2384 0.930 . S
C2381 C2380 1.369 . S
C2381 C2390 1.429 . S
C2382 C2380 1.419 . S
C2382 C2383 1.363 . S
C2382 H2385 0.929 . S
C2383 C2382 1.363 . S
C2383 C2389 1.428 . S
H2384 C2380 0.930 . S
H2385 C2382 0.929 . S
S2386 N2387 1.613 . S
S2386 N2388 1.610 . S
N2387 S2386 1.613 . S
N2387 C2390 1.350 . S
N2388 S2386 1.610 . S
N2388 C2389 1.351 . S
C2389 C2383 1.428 . S
C2389 N2388 1.351 . S
C2389 C2390 1.434 . S
C2390 C2381 1.429 . S
C2390 N2387 1.350 . S
C2390 C2389 1.434 . S
C2391 C2392 1.369 . S
C2391 C2393 1.419 . S
C2391 H2395 0.930 . S
C2392 C2391 1.369 . S
C2392 C2401 1.429 . S
C2393 C2391 1.419 . S
C2393 C2394 1.363 . S
C2393 H2396 0.929 . S
C2394 C2393 1.363 . S
C2394 C2400 1.428 . S
H2395 C2391 0.930 . S
H2396 C2393 0.929 . S
S2397 N2398 1.613 . S
S2397 N2399 1.610 . S
N2398 S2397 1.613 . S
N2398 C2401 1.350 . S
N2399 S2397 1.610 . S
N2399 C2400 1.351 . S
C2400 C2394 1.428 . S
C2400 N2399 1.351 . S
C2400 C2401 1.434 . S
C2401 C2392 1.429 . S
C2401 N2398 1.350 . S
C2401 C2400 1.434 . S
C2402 C2403 1.369 . S
C2402 C2404 1.419 . S
C2402 H2406 0.930 . S
C2403 C2402 1.369 . S
C2403 C2412 1.429 . S
C2404 C2402 1.419 . S
C2404 C2405 1.363 . S
C2404 H2407 0.929 . S
C2405 C2404 1.363 . S
C2405 C2411 1.428 . S
H2406 C2402 0.930 . S
H2407 C2404 0.929 . S
S2408 N2409 1.613 . S
S2408 N2410 1.610 . S
N2409 S2408 1.613 . S
N2409 C2412 1.350 . S
N2410 S2408 1.610 . S
N2410 C2411 1.351 . S
C2411 C2405 1.428 . S
C2411 N2410 1.351 . S
C2411 C2412 1.434 . S
C2412 C2403 1.429 . S
C2412 N2409 1.350 . S
C2412 C2411 1.434 . S
C2413 C2414 1.369 . S
C2413 C2415 1.419 . S
C2413 H2417 0.930 . S
C2414 C2413 1.369 . S
C2414 C2423 1.429 . S
C2415 C2413 1.419 . S
C2415 C2416 1.363 . S
C2415 H2418 0.929 . S
C2416 C2415 1.363 . S
C2416 C2422 1.428 . S
H2417 C2413 0.930 . S
H2418 C2415 0.929 . S
S2419 N2420 1.613 . S
S2419 N2421 1.610 . S
N2420 S2419 1.613 . S
N2420 C2423 1.350 . S
N2421 S2419 1.610 . S
N2421 C2422 1.351 . S
C2422 C2416 1.428 . S
C2422 N2421 1.351 . S
C2422 C2423 1.434 . S
C2423 C2414 1.429 . S
C2423 N2420 1.350 . S
C2423 C2422 1.434 . S
C2424 C2425 1.369 . S
C2424 C2426 1.419 . S
C2424 H2428 0.930 . S
C2425 C2424 1.369 . S
C2425 C2434 1.429 . S
C2426 C2424 1.419 . S
C2426 C2427 1.363 . S
C2426 H2429 0.929 . S
C2427 C2426 1.363 . S
C2427 C2433 1.428 . S
H2428 C2424 0.930 . S
H2429 C2426 0.929 . S
S2430 N2431 1.613 . S
S2430 N2432 1.610 . S
N2431 S2430 1.613 . S
N2431 C2434 1.350 . S
N2432 S2430 1.610 . S
N2432 C2433 1.351 . S
C2433 C2427 1.428 . S
C2433 N2432 1.351 . S
C2433 C2434 1.434 . S
C2434 C2425 1.429 . S
C2434 N2431 1.350 . S
C2434 C2433 1.434 . S
C2435 C2436 1.369 . S
C2435 C2437 1.419 . S
C2435 H2439 0.930 . S
C2436 C2435 1.369 . S
C2436 C2445 1.429 . S
C2437 C2435 1.419 . S
C2437 C2438 1.363 . S
C2437 H2440 0.929 . S
C2438 C2437 1.363 . S
C2438 C2444 1.428 . S
H2439 C2435 0.930 . S
H2440 C2437 0.929 . S
S2441 N2442 1.613 . S
S2441 N2443 1.610 . S
N2442 S2441 1.613 . S
N2442 C2445 1.350 . S
N2443 S2441 1.610 . S
N2443 C2444 1.351 . S
C2444 C2438 1.428 . S
C2444 N2443 1.351 . S
C2444 C2445 1.434 . S
C2445 C2436 1.429 . S
C2445 N2442 1.350 . S
C2445 C2444 1.434 . S
C2446 C2447 1.369 . S
C2446 C2448 1.419 . S
C2446 H2450 0.930 . S
C2447 C2446 1.369 . S
C2447 C2456 1.429 . S
C2448 C2446 1.419 . S
C2448 C2449 1.363 . S
C2448 H2451 0.929 . S
C2449 C2448 1.363 . S
C2449 C2455 1.428 . S
H2450 C2446 0.930 . S
H2451 C2448 0.929 . S
S2452 N2453 1.613 . S
S2452 N2454 1.610 . S
N2453 S2452 1.613 . S
N2453 C2456 1.350 . S
N2454 S2452 1.610 . S
N2454 C2455 1.351 . S
C2455 C2449 1.428 . S
C2455 N2454 1.351 . S
C2455 C2456 1.434 . S
C2456 C2447 1.429 . S
C2456 N2453 1.350 . S
C2456 C2455 1.434 . S
C2457 C2458 1.369 . S
C2457 C2459 1.419 . S
C2457 H2461 0.930 . S
C2458 C2457 1.369 . S
C2458 C2467 1.429 . S
C2459 C2457 1.419 . S
C2459 C2460 1.363 . S
C2459 H2462 0.929 . S
C2460 C2459 1.363 . S
C2460 C2466 1.428 . S
H2461 C2457 0.930 . S
H2462 C2459 0.929 . S
S2463 N2464 1.613 . S
S2463 N2465 1.610 . S
N2464 S2463 1.613 . S
N2464 C2467 1.350 . S
N2465 S2463 1.610 . S
N2465 C2466 1.351 . S
C2466 C2460 1.428 . S
C2466 N2465 1.351 . S
C2466 C2467 1.434 . S
C2467 C2458 1.429 . S
C2467 N2464 1.350 . S
C2467 C2466 1.434 . S
C2468 C2469 1.369 . S
C2468 C2470 1.419 . S
C2468 H2472 0.930 . S
C2469 C2468 1.369 . S
C2469 C2478 1.429 . S
C2470 C2468 1.419 . S
C2470 C2471 1.363 . S
C2470 H2473 0.929 . S
C2471 C2470 1.363 . S
C2471 C2477 1.428 . S
H2472 C2468 0.930 . S
H2473 C2470 0.929 . S
S2474 N2475 1.613 . S
S2474 N2476 1.610 . S
N2475 S2474 1.613 . S
N2475 C2478 1.350 . S
N2476 S2474 1.610 . S
N2476 C2477 1.351 . S
C2477 C2471 1.428 . S
C2477 N2476 1.351 . S
C2477 C2478 1.434 . S
C2478 C2469 1.429 . S
C2478 N2475 1.350 . S
C2478 C2477 1.434 . S
C2479 C2480 1.369 . S
C2479 C2481 1.419 . S
C2479 H2483 0.930 . S
C2480 C2479 1.369 . S
C2480 C2489 1.429 . S
C2481 C2479 1.419 . S
C2481 C2482 1.363 . S
C2481 H2484 0.929 . S
C2482 C2481 1.363 . S
C2482 C2488 1.428 . S
H2483 C2479 0.930 . S
H2484 C2481 0.929 . S
S2485 N2486 1.613 . S
S2485 N2487 1.610 . S
N2486 S2485 1.613 . S
N2486 C2489 1.350 . S
N2487 S2485 1.610 . S
N2487 C2488 1.351 . S
C2488 C2482 1.428 . S
C2488 N2487 1.351 . S
C2488 C2489 1.434 . S
C2489 C2480 1.429 . S
C2489 N2486 1.350 . S
C2489 C2488 1.434 . S
C2490 C2491 1.369 . S
C2490 C2492 1.419 . S
C2490 H2494 0.930 . S
C2491 C2490 1.369 . S
C2491 C2500 1.429 . S
C2492 C2490 1.419 . S
C2492 C2493 1.363 . S
C2492 H2495 0.929 . S
C2493 C2492 1.363 . S
C2493 C2499 1.428 . S
H2494 C2490 0.930 . S
H2495 C2492 0.929 . S
S2496 N2497 1.613 . S
S2496 N2498 1.610 . S
N2497 S2496 1.613 . S
N2497 C2500 1.350 . S
N2498 S2496 1.610 . S
N2498 C2499 1.351 . S
C2499 C2493 1.428 . S
C2499 N2498 1.351 . S
C2499 C2500 1.434 . S
C2500 C2491 1.429 . S
C2500 N2497 1.350 . S
C2500 C2499 1.434 . S
C2501 C2502 1.369 . S
C2501 C2503 1.419 . S
C2501 H2505 0.930 . S
C2502 C2501 1.369 . S
C2502 C2511 1.429 . S
C2503 C2501 1.419 . S
C2503 C2504 1.363 . S
C2503 H2506 0.929 . S
C2504 C2503 1.363 . S
C2504 C2510 1.428 . S
H2505 C2501 0.930 . S
H2506 C2503 0.929 . S
S2507 N2508 1.613 . S
S2507 N2509 1.610 . S
N2508 S2507 1.613 . S
N2508 C2511 1.350 . S
N2509 S2507 1.610 . S
N2509 C2510 1.351 . S
C2510 C2504 1.428 . S
C2510 N2509 1.351 . S
C2510 C2511 1.434 . S
C2511 C2502 1.429 . S
C2511 N2508 1.350 . S
C2511 C2510 1.434 . S
C2512 C2513 1.369 . S
C2512 C2514 1.419 . S
C2512 H2516 0.930 . S
C2513 C2512 1.369 . S
C2513 C2522 1.429 . S
C2514 C2512 1.419 . S
C2514 C2515 1.363 . S
C2514 H2517 0.929 . S
C2515 C2514 1.363 . S
C2515 C2521 1.428 . S
H2516 C2512 0.930 . S
H2517 C2514 0.929 . S
S2518 N2519 1.613 . S
S2518 N2520 1.610 . S
N2519 S2518 1.613 . S
N2519 C2522 1.350 . S
N2520 S2518 1.610 . S
N2520 C2521 1.351 . S
C2521 C2515 1.428 . S
C2521 N2520 1.351 . S
C2521 C2522 1.434 . S
C2522 C2513 1.429 . S
C2522 N2519 1.350 . S
C2522 C2521 1.434 . S
C2523 C2524 1.369 . S
C2523 C2525 1.419 . S
C2523 H2527 0.930 . S
C2524 C2523 1.369 . S
C2524 C2533 1.429 . S
C2525 C2523 1.419 . S
C2525 C2526 1.363 . S
C2525 H2528 0.929 . S
C2526 C2525 1.363 . S
C2526 C2532 1.428 . S
H2527 C2523 0.930 . S
H2528 C2525 0.929 . S
S2529 N2530 1.613 . S
S2529 N2531 1.610 . S
N2530 S2529 1.613 . S
N2530 C2533 1.350 . S
N2531 S2529 1.610 . S
N2531 C2532 1.351 . S
C2532 C2526 1.428 . S
C2532 N2531 1.351 . S
C2532 C2533 1.434 . S
C2533 C2524 1.429 . S
C2533 N2530 1.350 . S
C2533 C2532 1.434 . S
C2534 C2535 1.369 . S
C2534 C2536 1.419 . S
C2534 H2538 0.930 . S
C2535 C2534 1.369 . S
C2535 C2544 1.429 . S
C2536 C2534 1.419 . S
C2536 C2537 1.363 . S
C2536 H2539 0.929 . S
C2537 C2536 1.363 . S
C2537 C2543 1.428 . S
H2538 C2534 0.930 . S
H2539 C2536 0.929 . S
S2540 N2541 1.613 . S
S2540 N2542 1.610 . S
N2541 S2540 1.613 . S
N2541 C2544 1.350 . S
N2542 S2540 1.610 . S
N2542 C2543 1.351 . S
C2543 C2537 1.428 . S
C2543 N2542 1.351 . S
C2543 C2544 1.434 . S
C2544 C2535 1.429 . S
C2544 N2541 1.350 . S
C2544 C2543 1.434 . S
C2545 C2546 1.369 . S
C2545 C2547 1.419 . S
C2545 H2549 0.930 . S
C2546 C2545 1.369 . S
C2546 C2555 1.429 . S
C2547 C2545 1.419 . S
C2547 C2548 1.363 . S
C2547 H2550 0.929 . S
C2548 C2547 1.363 . S
C2548 C2554 1.428 . S
H2549 C2545 0.930 . S
H2550 C2547 0.929 . S
S2551 N2552 1.613 . S
S2551 N2553 1.610 . S
N2552 S2551 1.613 . S
N2552 C2555 1.350 . S
N2553 S2551 1.610 . S
N2553 C2554 1.351 . S
C2554 C2548 1.428 . S
C2554 N2553 1.351 . S
C2554 C2555 1.434 . S
C2555 C2546 1.429 . S
C2555 N2552 1.350 . S
C2555 C2554 1.434 . S
C2556 C2557 1.369 . S
C2556 C2558 1.419 . S
C2556 H2560 0.930 . S
C2557 C2556 1.369 . S
C2557 C2566 1.429 . S
C2558 C2556 1.419 . S
C2558 C2559 1.363 . S
C2558 H2561 0.929 . S
C2559 C2558 1.363 . S
C2559 C2565 1.428 . S
H2560 C2556 0.930 . S
H2561 C2558 0.929 . S
S2562 N2563 1.613 . S
S2562 N2564 1.610 . S
N2563 S2562 1.613 . S
N2563 C2566 1.350 . S
N2564 S2562 1.610 . S
N2564 C2565 1.351 . S
C2565 C2559 1.428 . S
C2565 N2564 1.351 . S
C2565 C2566 1.434 . S
C2566 C2557 1.429 . S
C2566 N2563 1.350 . S
C2566 C2565 1.434 . S
C2567 C2568 1.369 . S
C2567 C2569 1.419 . S
C2567 H2571 0.930 . S
C2568 C2567 1.369 . S
C2568 C2577 1.429 . S
C2569 C2567 1.419 . S
C2569 C2570 1.363 . S
C2569 H2572 0.929 . S
C2570 C2569 1.363 . S
C2570 C2576 1.428 . S
H2571 C2567 0.930 . S
H2572 C2569 0.929 . S
S2573 N2574 1.613 . S
S2573 N2575 1.610 . S
N2574 S2573 1.613 . S
N2574 C2577 1.350 . S
N2575 S2573 1.610 . S
N2575 C2576 1.351 . S
C2576 C2570 1.428 . S
C2576 N2575 1.351 . S
C2576 C2577 1.434 . S
C2577 C2568 1.429 . S
C2577 N2574 1.350 . S
C2577 C2576 1.434 . S
C2578 C2579 1.369 . S
C2578 C2580 1.419 . S
C2578 H2582 0.930 . S
C2579 C2578 1.369 . S
C2579 C2588 1.429 . S
C2580 C2578 1.419 . S
C2580 C2581 1.363 . S
C2580 H2583 0.929 . S
C2581 C2580 1.363 . S
C2581 C2587 1.428 . S
H2582 C2578 0.930 . S
H2583 C2580 0.929 . S
S2584 N2585 1.613 . S
S2584 N2586 1.610 . S
N2585 S2584 1.613 . S
N2585 C2588 1.350 . S
N2586 S2584 1.610 . S
N2586 C2587 1.351 . S
C2587 C2581 1.428 . S
C2587 N2586 1.351 . S
C2587 C2588 1.434 . S
C2588 C2579 1.429 . S
C2588 N2585 1.350 . S
C2588 C2587 1.434 . S
C2589 C2590 1.369 . S
C2589 C2591 1.419 . S
C2589 H2593 0.930 . S
C2590 C2589 1.369 . S
C2590 C2599 1.429 . S
C2591 C2589 1.419 . S
C2591 C2592 1.363 . S
C2591 H2594 0.929 . S
C2592 C2591 1.363 . S
C2592 C2598 1.428 . S
H2593 C2589 0.930 . S
H2594 C2591 0.929 . S
S2595 N2596 1.613 . S
S2595 N2597 1.610 . S
N2596 S2595 1.613 . S
N2596 C2599 1.350 . S
N2597 S2595 1.610 . S
N2597 C2598 1.351 . S
C2598 C2592 1.428 . S
C2598 N2597 1.351 . S
C2598 C2599 1.434 . S
C2599 C2590 1.429 . S
C2599 N2596 1.350 . S
C2599 C2598 1.434 . S
C2600 C2601 1.369 . S
C2600 C2602 1.419 . S
C2600 H2604 0.930 . S
C2601 C2600 1.369 . S
C2601 C2610 1.429 . S
C2602 C2600 1.419 . S
C2602 C2603 1.363 . S
C2602 H2605 0.929 . S
C2603 C2602 1.363 . S
C2603 C2609 1.428 . S
H2604 C2600 0.930 . S
H2605 C2602 0.929 . S
S2606 N2607 1.613 . S
S2606 N2608 1.610 . S
N2607 S2606 1.613 . S
N2607 C2610 1.350 . S
N2608 S2606 1.610 . S
N2608 C2609 1.351 . S
C2609 C2603 1.428 . S
C2609 N2608 1.351 . S
C2609 C2610 1.434 . S
C2610 C2601 1.429 . S
C2610 N2607 1.350 . S
C2610 C2609 1.434 . S
C2611 C2612 1.369 . S
C2611 C2613 1.419 . S
C2611 H2615 0.930 . S
C2612 C2611 1.369 . S
C2612 C2621 1.429 . S
C2613 C2611 1.419 . S
C2613 C2614 1.363 . S
C2613 H2616 0.929 . S
C2614 C2613 1.363 . S
C2614 C2620 1.428 . S
H2615 C2611 0.930 . S
H2616 C2613 0.929 . S
S2617 N2618 1.613 . S
S2617 N2619 1.610 . S
N2618 S2617 1.613 . S
N2618 C2621 1.350 . S
N2619 S2617 1.610 . S
N2619 C2620 1.351 . S
C2620 C2614 1.428 . S
C2620 N2619 1.351 . S
C2620 C2621 1.434 . S
C2621 C2612 1.429 . S
C2621 N2618 1.350 . S
C2621 C2620 1.434 . S
C2622 C2623 1.369 . S
C2622 C2624 1.419 . S
C2622 H2626 0.930 . S
C2623 C2622 1.369 . S
C2623 C2632 1.429 . S
C2624 C2622 1.419 . S
C2624 C2625 1.363 . S
C2624 H2627 0.929 . S
C2625 C2624 1.363 . S
C2625 C2631 1.428 . S
H2626 C2622 0.930 . S
H2627 C2624 0.929 . S
S2628 N2629 1.613 . S
S2628 N2630 1.610 . S
N2629 S2628 1.613 . S
N2629 C2632 1.350 . S
N2630 S2628 1.610 . S
N2630 C2631 1.351 . S
C2631 C2625 1.428 . S
C2631 N2630 1.351 . S
C2631 C2632 1.434 . S
C2632 C2623 1.429 . S
C2632 N2629 1.350 . S
C2632 C2631 1.434 . S
C2633 C2634 1.369 . S
C2633 C2635 1.419 . S
C2633 H2637 0.930 . S
C2634 C2633 1.369 . S
C2634 C2643 1.429 . S
C2635 C2633 1.419 . S
C2635 C2636 1.363 . S
C2635 H2638 0.929 . S
C2636 C2635 1.363 . S
C2636 C2642 1.428 . S
H2637 C2633 0.930 . S
H2638 C2635 0.929 . S
S2639 N2640 1.613 . S
S2639 N2641 1.610 . S
N2640 S2639 1.613 . S
N2640 C2643 1.350 . S
N2641 S2639 1.610 . S
N2641 C2642 1.351 . S
C2642 C2636 1.428 . S
C2642 N2641 1.351 . S
C2642 C2643 1.434 . S
C2643 C2634 1.429 . S
C2643 N2640 1.350 . S
C2643 C2642 1.434 . S
C2644 C2645 1.369 . S
C2644 C2646 1.419 . S
C2644 H2648 0.930 . S
C2645 C2644 1.369 . S
C2645 C2654 1.429 . S
C2646 C2644 1.419 . S
C2646 C2647 1.363 . S
C2646 H2649 0.929 . S
C2647 C2646 1.363 . S
C2647 C2653 1.428 . S
H2648 C2644 0.930 . S
H2649 C2646 0.929 . S
S2650 N2651 1.613 . S
S2650 N2652 1.610 . S
N2651 S2650 1.613 . S
N2651 C2654 1.350 . S
N2652 S2650 1.610 . S
N2652 C2653 1.351 . S
C2653 C2647 1.428 . S
C2653 N2652 1.351 . S
C2653 C2654 1.434 . S
C2654 C2645 1.429 . S
C2654 N2651 1.350 . S
C2654 C2653 1.434 . S
C2655 C2656 1.369 . S
C2655 C2657 1.419 . S
C2655 H2659 0.930 . S
C2656 C2655 1.369 . S
C2656 C2665 1.429 . S
C2657 C2655 1.419 . S
C2657 C2658 1.363 . S
C2657 H2660 0.929 . S
C2658 C2657 1.363 . S
C2658 C2664 1.428 . S
H2659 C2655 0.930 . S
H2660 C2657 0.929 . S
S2661 N2662 1.613 . S
S2661 N2663 1.610 . S
N2662 S2661 1.613 . S
N2662 C2665 1.350 . S
N2663 S2661 1.610 . S
N2663 C2664 1.351 . S
C2664 C2658 1.428 . S
C2664 N2663 1.351 . S
C2664 C2665 1.434 . S
C2665 C2656 1.429 . S
C2665 N2662 1.350 . S
C2665 C2664 1.434 . S
C2666 C2667 1.369 . S
C2666 C2668 1.419 . S
C2666 H2670 0.930 . S
C2667 C2666 1.369 . S
C2667 C2676 1.429 . S
C2668 C2666 1.419 . S
C2668 C2669 1.363 . S
C2668 H2671 0.929 . S
C2669 C2668 1.363 . S
C2669 C2675 1.428 . S
H2670 C2666 0.930 . S
H2671 C2668 0.929 . S
S2672 N2673 1.613 . S
S2672 N2674 1.610 . S
N2673 S2672 1.613 . S
N2673 C2676 1.350 . S
N2674 S2672 1.610 . S
N2674 C2675 1.351 . S
C2675 C2669 1.428 . S
C2675 N2674 1.351 . S
C2675 C2676 1.434 . S
C2676 C2667 1.429 . S
C2676 N2673 1.350 . S
C2676 C2675 1.434 . S
C2677 C2678 1.369 . S
C2677 C2679 1.419 . S
C2677 H2681 0.930 . S
C2678 C2677 1.369 . S
C2678 C2687 1.429 . S
C2679 C2677 1.419 . S
C2679 C2680 1.363 . S
C2679 H2682 0.929 . S
C2680 C2679 1.363 . S
C2680 C2686 1.428 . S
H2681 C2677 0.930 . S
H2682 C2679 0.929 . S
S2683 N2684 1.613 . S
S2683 N2685 1.610 . S
N2684 S2683 1.613 . S
N2684 C2687 1.350 . S
N2685 S2683 1.610 . S
N2685 C2686 1.351 . S
C2686 C2680 1.428 . S
C2686 N2685 1.351 . S
C2686 C2687 1.434 . S
C2687 C2678 1.429 . S
C2687 N2684 1.350 . S
C2687 C2686 1.434 . S
C2688 C2689 1.369 . S
C2688 C2690 1.419 . S
C2688 H2692 0.930 . S
C2689 C2688 1.369 . S
C2689 C2698 1.430 1_565 S
C2690 C2688 1.419 . S
C2690 C2691 1.363 1_565 S
C2690 H2693 0.929 . S
C2691 C2690 1.363 1_545 S
C2691 C2697 1.431 . S
H2692 C2688 0.930 . S
H2693 C2690 0.929 . S
S2694 N2695 1.613 . S
S2694 N2696 1.610 . S
N2695 S2694 1.613 . S
N2695 C2698 1.348 1_455 S
N2696 S2694 1.610 . S
N2696 C2697 1.348 1_455 S
C2697 C2691 1.431 . S
C2697 N2696 1.348 1_655 S
C2697 C2698 1.434 . S
C2698 C2689 1.430 1_545 S
C2698 N2695 1.348 1_655 S
C2698 C2697 1.434 . S
C2699 C2700 1.369 . S
C2699 C2701 1.419 . S
C2699 H2703 0.930 . S
C2700 C2699 1.369 . S
C2700 C2709 1.429 . S
C2701 C2699 1.419 . S
C2701 C2702 1.363 . S
C2701 H2704 0.929 . S
C2702 C2701 1.363 . S
C2702 C2708 1.428 . S
H2703 C2699 0.930 . S
H2704 C2701 0.929 . S
S2705 N2706 1.613 . S
S2705 N2707 1.610 . S
N2706 S2705 1.613 . S
N2706 C2709 1.350 . S
N2707 S2705 1.610 . S
N2707 C2708 1.351 . S
C2708 C2702 1.428 . S
C2708 N2707 1.351 . S
C2708 C2709 1.434 . S
C2709 C2700 1.429 . S
C2709 N2706 1.350 . S
C2709 C2708 1.434 . S
C2710 C2711 1.369 1_565 S
C2710 C2712 1.419 . S
C2710 H2714 0.930 . S
C2711 C2710 1.369 1_545 S
C2711 C2720 1.429 . S
C2712 C2710 1.419 . S
C2712 C2713 1.363 . S
C2712 H2715 0.929 . S
C2713 C2712 1.363 . S
C2713 C2719 1.428 1_565 S
H2714 C2710 0.930 . S
H2715 C2712 0.929 . S
S2716 N2717 1.613 . S
S2716 N2718 1.610 . S
N2717 S2716 1.613 . S
N2717 C2720 1.350 . S
N2718 S2716 1.610 . S
N2718 C2719 1.351 . S
C2719 C2713 1.428 1_545 S
C2719 N2718 1.351 . S
C2719 C2720 1.434 . S
C2720 C2711 1.429 . S
C2720 N2717 1.350 . S
C2720 C2719 1.434 . S
C2721 C2722 1.369 . S
C2721 C2723 1.419 1_556 S
C2721 H2725 0.930 . S
C2722 C2721 1.369 . S
C2722 C2731 1.429 . S
C2723 C2721 1.419 1_554 S
C2723 C2724 1.363 . S
C2723 H2726 0.929 . S
C2724 C2723 1.363 . S
C2724 C2730 1.428 . S
H2725 C2721 0.930 . S
H2726 C2723 0.929 . S
S2727 N2728 1.613 . S
S2727 N2729 1.610 1_556 S
N2728 S2727 1.613 . S
N2728 C2731 1.350 . S
N2729 S2727 1.610 1_554 S
N2729 C2730 1.351 . S
C2730 C2724 1.428 . S
C2730 N2729 1.351 . S
C2730 C2731 1.434 1_554 S
C2731 C2722 1.429 . S
C2731 N2728 1.350 . S
C2731 C2730 1.434 1_556 S
C2732 C2733 1.372 . S
C2732 C2734 1.418 . S
C2732 H2736 0.928 1_565 S
C2733 C2732 1.372 . S
C2733 C2742 1.429 1_556 S
C2734 C2732 1.418 . S
C2734 C2735 1.364 1_556 S
C2734 H2737 0.928 1_565 S
C2735 C2734 1.364 1_554 S
C2735 C2741 1.428 . S
H2736 C2732 0.928 1_545 S
H2737 C2734 0.928 1_545 S
S2738 N2739 1.613 . S
S2738 N2740 1.610 . S
N2739 S2738 1.613 . S
N2739 C2742 1.350 . S
N2740 S2738 1.610 . S
N2740 C2741 1.351 . S
C2741 C2735 1.428 . S
C2741 N2740 1.351 . S
C2741 C2742 1.434 . S
C2742 C2733 1.429 1_554 S
C2742 N2739 1.350 . S
C2742 C2741 1.434 . S
C2743 C2744 1.369 . S
C2743 C2745 1.419 1_545 S
C2743 H2747 0.930 . S
C2744 C2743 1.369 . S
C2744 C2753 1.429 . S
C2745 C2743 1.419 1_565 S
C2745 C2746 1.363 . S
C2745 H2748 0.929 . S
C2746 C2745 1.363 . S
C2746 C2752 1.428 . S
H2747 C2743 0.930 . S
H2748 C2745 0.929 . S
S2749 N2750 1.613 1_565 S
S2749 N2751 1.610 . S
N2750 S2749 1.613 1_545 S
N2750 C2753 1.350 . S
N2751 S2749 1.610 . S
N2751 C2752 1.351 . S
C2752 C2746 1.428 . S
C2752 N2751 1.351 . S
C2752 C2753 1.434 1_565 S
C2753 C2744 1.429 . S
C2753 N2750 1.350 . S
C2753 C2752 1.434 1_545 S
C2754 C2755 1.369 . S
C2754 C2756 1.419 . S
C2754 H2758 0.930 . S
C2755 C2754 1.369 . S
C2755 C2764 1.429 1_545 S
C2756 C2754 1.419 . S
C2756 C2757 1.363 . S
C2756 H2759 0.929 . S
C2757 C2756 1.363 . S
C2757 C2763 1.428 1_545 S
H2758 C2754 0.930 . S
H2759 C2756 0.929 . S
S2760 N2761 1.613 . S
S2760 N2762 1.610 . S
N2761 S2760 1.613 . S
N2761 C2764 1.350 . S
N2762 S2760 1.610 . S
N2762 C2763 1.351 . S
C2763 C2757 1.428 1_565 S
C2763 N2762 1.351 . S
C2763 C2764 1.434 . S
C2764 C2755 1.429 1_565 S
C2764 N2761 1.350 . S
C2764 C2763 1.434 . S
C2765 C2766 1.369 . S
C2765 C2767 1.419 1_545 S
C2765 H2769 0.930 . S
C2766 C2765 1.369 . S
C2766 C2775 1.429 . S
C2767 C2765 1.419 1_565 S
C2767 C2768 1.363 . S
C2767 H2770 0.929 . S
C2768 C2767 1.363 . S
C2768 C2774 1.428 . S
H2769 C2765 0.930 . S
H2770 C2767 0.929 . S
S2771 N2772 1.613 . S
S2771 N2773 1.610 1_545 S
N2772 S2771 1.613 . S
N2772 C2775 1.350 . S
N2773 S2771 1.610 1_565 S
N2773 C2774 1.351 . S
C2774 C2768 1.428 . S
C2774 N2773 1.351 . S
C2774 C2775 1.434 1_565 S
C2775 C2766 1.429 . S
C2775 N2772 1.350 . S
C2775 C2774 1.434 1_545 S
C2776 C2777 1.369 1_554 S
C2776 C2778 1.419 . S
C2776 H2780 0.930 . S
C2777 C2776 1.369 1_556 S
C2777 C2786 1.429 1_455 S
C2778 C2776 1.419 . S
C2778 C2779 1.363 1_454 S
C2778 H2781 0.929 . S
C2779 C2778 1.363 1_656 S
C2779 C2785 1.428 . S
H2780 C2776 0.930 . S
H2781 C2778 0.929 . S
S2782 N2783 1.613 . S
S2782 N2784 1.610 . S
N2783 S2782 1.613 . S
N2783 C2786 1.350 . S
N2784 S2782 1.610 . S
N2784 C2785 1.351 . S
C2785 C2779 1.428 . S
C2785 N2784 1.351 . S
C2785 C2786 1.434 . S
C2786 C2777 1.429 1_655 S
C2786 N2783 1.350 . S
C2786 C2785 1.434 . S
C2787 C2788 1.369 1_556 S
C2787 C2789 1.419 . S
C2787 H2791 0.930 . S
C2788 C2787 1.369 1_554 S
C2788 C2797 1.429 . S
C2789 C2787 1.419 . S
C2789 C2790 1.363 1_556 S
C2789 H2792 0.929 . S
C2790 C2789 1.363 1_554 S
C2790 C2796 1.428 . S
H2791 C2787 0.930 . S
H2792 C2789 0.929 . S
S2793 N2794 1.613 . S
S2793 N2795 1.610 . S
N2794 S2793 1.613 . S
N2794 C2797 1.350 . S
N2795 S2793 1.610 . S
N2795 C2796 1.351 . S
C2796 C2790 1.428 . S
C2796 N2795 1.351 . S
C2796 C2797 1.434 . S
C2797 C2788 1.429 . S
C2797 N2794 1.350 . S
C2797 C2796 1.434 . S
C2798 C2799 1.369 . S
C2798 C2800 1.419 1_655 S
C2798 H2802 0.930 . S
C2799 C2798 1.369 . S
C2799 C2808 1.429 . S
C2800 C2798 1.419 1_455 S
C2800 C2801 1.363 . S
C2800 H2803 0.929 . S
C2801 C2800 1.363 . S
C2801 C2807 1.428 . S
H2802 C2798 0.930 . S
H2803 C2800 0.929 . S
S2804 N2805 1.613 1_455 S
S2804 N2806 1.610 . S
N2805 S2804 1.613 1_655 S
N2805 C2808 1.350 . S
N2806 S2804 1.610 . S
N2806 C2807 1.351 . S
C2807 C2801 1.428 . S
C2807 N2806 1.351 . S
C2807 C2808 1.434 1_455 S
C2808 C2799 1.429 . S
C2808 N2805 1.350 . S
C2808 C2807 1.434 1_655 S
C2809 C2810 1.369 . S
C2809 C2811 1.419 . S
C2809 H2813 0.930 . S
C2810 C2809 1.369 . S
C2810 C2819 1.429 1_455 S
C2811 C2809 1.419 . S
C2811 C2812 1.363 1_455 S
C2811 H2814 0.929 . S
C2812 C2811 1.363 1_655 S
C2812 C2818 1.428 . S
H2813 C2809 0.930 . S
H2814 C2811 0.929 . S
S2815 N2816 1.613 . S
S2815 N2817 1.610 . S
N2816 S2815 1.613 . S
N2816 C2819 1.350 . S
N2817 S2815 1.610 . S
N2817 C2818 1.351 . S
C2818 C2812 1.428 . S
C2818 N2817 1.351 . S
C2818 C2819 1.434 . S
C2819 C2810 1.429 1_655 S
C2819 N2816 1.350 . S
C2819 C2818 1.434 . S
C2820 C2821 1.369 . S
C2820 C2822 1.419 . S
C2820 H2824 0.930 . S
C2821 C2820 1.369 . S
C2821 C2830 1.429 . S
C2822 C2820 1.419 . S
C2822 C2823 1.363 . S
C2822 H2825 0.929 . S
C2823 C2822 1.363 . S
C2823 C2829 1.428 . S
H2824 C2820 0.930 . S
H2825 C2822 0.929 . S
S2826 N2827 1.613 . S
S2826 N2828 1.610 . S
N2827 S2826 1.613 . S
N2827 C2830 1.350 . S
N2828 S2826 1.610 . S
N2828 C2829 1.351 . S
C2829 C2823 1.428 . S
C2829 N2828 1.351 . S
C2829 C2830 1.434 . S
C2830 C2821 1.429 . S
C2830 N2827 1.350 . S
C2830 C2829 1.434 . S
C2831 C2832 1.369 . S
C2831 C2833 1.419 1_455 S
C2831 H2835 0.930 . S
C2832 C2831 1.369 . S
C2832 C2841 1.429 . S
C2833 C2831 1.419 1_655 S
C2833 C2834 1.363 . S
C2833 H2836 0.929 . S
C2834 C2833 1.363 . S
C2834 C2840 1.428 . S
H2835 C2831 0.930 . S
H2836 C2833 0.929 . S
S2837 N2838 1.613 . S
S2837 N2839 1.610 1_455 S
N2838 S2837 1.613 . S
N2838 C2841 1.350 . S
N2839 S2837 1.610 1_655 S
N2839 C2840 1.351 . S
C2840 C2834 1.428 . S
C2840 N2839 1.351 . S
C2840 C2841 1.434 1_655 S
C2841 C2832 1.429 . S
C2841 N2838 1.350 . S
C2841 C2840 1.434 1_455 S
C2842 C2843 1.369 . S
C2842 C2844 1.419 . S
C2842 H2846 0.930 . S
C2843 C2842 1.369 . S
C2843 C2852 1.429 . S
C2844 C2842 1.419 . S
C2844 C2845 1.363 . S
C2844 H2847 0.929 . S
C2845 C2844 1.363 . S
C2845 C2851 1.428 . S
H2846 C2842 0.930 . S
H2847 C2844 0.929 . S
S2848 N2849 1.613 . S
S2848 N2850 1.610 . S
N2849 S2848 1.613 . S
N2849 C2852 1.350 . S
N2850 S2848 1.610 . S
N2850 C2851 1.351 . S
C2851 C2845 1.428 . S
C2851 N2850 1.351 . S
C2851 C2852 1.434 . S
C2852 C2843 1.429 . S
C2852 N2849 1.350 . S
C2852 C2851 1.434 . S
C2853 C2854 1.369 . S
C2853 C2855 1.419 . S
C2853 H2857 0.930 . S
C2854 C2853 1.369 . S
C2854 C2863 1.429 . S
C2855 C2853 1.419 . S
C2855 C2856 1.363 . S
C2855 H2858 0.929 . S
C2856 C2855 1.363 . S
C2856 C2862 1.428 . S
H2857 C2853 0.930 . S
H2858 C2855 0.929 . S
S2859 N2860 1.613 . S
S2859 N2861 1.610 . S
N2860 S2859 1.613 . S
N2860 C2863 1.350 . S
N2861 S2859 1.610 . S
N2861 C2862 1.351 . S
C2862 C2856 1.428 . S
C2862 N2861 1.351 . S
C2862 C2863 1.434 . S
C2863 C2854 1.429 . S
C2863 N2860 1.350 . S
C2863 C2862 1.434 . S
C2864 C2865 1.369 . S
C2864 C2866 1.419 1_554 S
C2864 H2868 0.930 . S
C2865 C2864 1.369 . S
C2865 C2874 1.429 . S
C2866 C2864 1.419 1_556 S
C2866 C2867 1.363 . S
C2866 H2869 0.929 . S
C2867 C2866 1.363 . S
C2867 C2873 1.428 . S
H2868 C2864 0.930 . S
H2869 C2866 0.929 . S
S2870 N2871 1.613 1_556 S
S2870 N2872 1.610 . S
N2871 S2870 1.613 1_554 S
N2871 C2874 1.350 . S
N2872 S2870 1.610 . S
N2872 C2873 1.351 . S
C2873 C2867 1.428 . S
C2873 N2872 1.351 . S
C2873 C2874 1.434 1_556 S
C2874 C2865 1.429 . S
C2874 N2871 1.350 . S
C2874 C2873 1.434 1_554 S
C2875 C2876 1.369 . S
C2875 C2877 1.419 . S
C2875 H2879 0.930 . S
C2876 C2875 1.369 . S
C2876 C2885 1.429 1_455 S
C2877 C2875 1.419 . S
C2877 C2878 1.363 . S
C2877 H2880 0.929 . S
C2878 C2877 1.363 . S
C2878 C2884 1.428 1_455 S
H2879 C2875 0.930 . S
H2880 C2877 0.929 . S
S2881 N2882 1.613 . S
S2881 N2883 1.610 . S
N2882 S2881 1.613 . S
N2882 C2885 1.350 . S
N2883 S2881 1.610 . S
N2883 C2884 1.351 . S
C2884 C2878 1.428 1_655 S
C2884 N2883 1.351 . S
C2884 C2885 1.434 . S
C2885 C2876 1.429 1_655 S
C2885 N2882 1.350 . S
C2885 C2884 1.434 . S
C2886 C2887 1.369 . S
C2886 C2888 1.419 . S
C2886 H2890 0.930 . S
C2887 C2886 1.369 . S
C2887 C2896 1.429 . S
C2888 C2886 1.419 . S
C2888 C2889 1.363 . S
C2888 H2891 0.929 . S
C2889 C2888 1.363 . S
C2889 C2895 1.428 . S
H2890 C2886 0.930 . S
H2891 C2888 0.929 . S
S2892 N2893 1.613 . S
S2892 N2894 1.610 . S
N2893 S2892 1.613 . S
N2893 C2896 1.350 . S
N2894 S2892 1.610 . S
N2894 C2895 1.351 . S
C2895 C2889 1.428 . S
C2895 N2894 1.351 . S
C2895 C2896 1.434 . S
C2896 C2887 1.429 . S
C2896 N2893 1.350 . S
C2896 C2895 1.434 . S
C2897 C2898 1.369 . S
C2897 C2899 1.419 . S
C2897 H2901 0.930 . S
C2898 C2897 1.369 . S
C2898 C2907 1.429 . S
C2899 C2897 1.419 . S
C2899 C2900 1.363 . S
C2899 H2902 0.929 . S
C2900 C2899 1.363 . S
C2900 C2906 1.428 . S
H2901 C2897 0.930 . S
H2902 C2899 0.929 . S
S2903 N2904 1.613 . S
S2903 N2905 1.610 . S
N2904 S2903 1.613 . S
N2904 C2907 1.350 . S
N2905 S2903 1.610 . S
N2905 C2906 1.351 . S
C2906 C2900 1.428 . S
C2906 N2905 1.351 . S
C2906 C2907 1.434 . S
C2907 C2898 1.429 . S
C2907 N2904 1.350 . S
C2907 C2906 1.434 . S
C2908 C2909 1.369 . S
C2908 C2910 1.419 . S
C2908 H2912 0.930 . S
C2909 C2908 1.369 . S
C2909 C2918 1.429 . S
C2910 C2908 1.419 . S
C2910 C2911 1.363 . S
C2910 H2913 0.929 . S
C2911 C2910 1.363 . S
C2911 C2917 1.428 . S
H2912 C2908 0.930 . S
H2913 C2910 0.929 . S
S2914 N2915 1.613 . S
S2914 N2916 1.610 . S
N2915 S2914 1.613 . S
N2915 C2918 1.350 . S
N2916 S2914 1.610 . S
N2916 C2917 1.351 . S
C2917 C2911 1.428 . S
C2917 N2916 1.351 . S
C2917 C2918 1.434 . S
C2918 C2909 1.429 . S
C2918 N2915 1.350 . S
C2918 C2917 1.434 . S
C2919 C2920 1.369 . S
C2919 C2921 1.419 1_556 S
C2919 H2923 0.930 . S
C2920 C2919 1.369 . S
C2920 C2929 1.429 . S
C2921 C2919 1.419 1_554 S
C2921 C2922 1.363 . S
C2921 H2924 0.929 . S
C2922 C2921 1.363 . S
C2922 C2928 1.428 . S
H2923 C2919 0.930 . S
H2924 C2921 0.929 . S
S2925 N2926 1.600 1_554 S
S2925 N2927 1.622 . S
N2926 S2925 1.600 1_556 S
N2926 C2929 1.350 . S
N2927 S2925 1.622 . S
N2927 C2928 1.351 . S
C2928 C2922 1.428 . S
C2928 N2927 1.351 . S
C2928 C2929 1.434 1_554 S
C2929 C2920 1.429 . S
C2929 N2926 1.350 . S
C2929 C2928 1.434 1_556 S
C2930 C2931 1.369 . S
C2930 C2932 1.419 . S
C2930 H2934 0.930 . S
C2931 C2930 1.369 . S
C2931 C2940 1.429 . S
C2932 C2930 1.419 . S
C2932 C2933 1.363 . S
C2932 H2935 0.929 . S
C2933 C2932 1.363 . S
C2933 C2939 1.428 . S
H2934 C2930 0.930 . S
H2935 C2932 0.929 . S
S2936 N2937 1.613 . S
S2936 N2938 1.610 . S
N2937 S2936 1.613 . S
N2937 C2940 1.350 . S
N2938 S2936 1.610 . S
N2938 C2939 1.351 . S
C2939 C2933 1.428 . S
C2939 N2938 1.351 . S
C2939 C2940 1.434 . S
C2940 C2931 1.429 . S
C2940 N2937 1.350 . S
C2940 C2939 1.434 . S
C2941 C2942 1.369 . S
C2941 C2943 1.419 . S
C2941 H2945 0.930 . S
C2942 C2941 1.369 . S
C2942 C2951 1.429 . S
C2943 C2941 1.419 . S
C2943 C2944 1.363 . S
C2943 H2946 0.929 . S
C2944 C2943 1.363 . S
C2944 C2950 1.428 . S
H2945 C2941 0.930 . S
H2946 C2943 0.929 . S
S2947 N2948 1.613 . S
S2947 N2949 1.610 . S
N2948 S2947 1.613 . S
N2948 C2951 1.350 . S
N2949 S2947 1.610 . S
N2949 C2950 1.351 . S
C2950 C2944 1.428 . S
C2950 N2949 1.351 . S
C2950 C2951 1.434 . S
C2951 C2942 1.429 . S
C2951 N2948 1.350 . S
C2951 C2950 1.434 . S
C1633 C20 1.443 . S
C1635 C349 1.360 . S
C1644 C383 1.370 . S
C1646 C54 1.437 . S
C1655 C281 1.367 . S
C1657 C88 1.439 . S
C1666 C315 1.363 . S
C1668 C122 1.441 . S
C1677 C485 1.360 . S
C1679 C156 1.442 . S
C1688 C190 1.436 . S
C1690 C519 1.370 . S
C1699 C417 1.371 . S
C1701 C224 1.437 . S
C1710 C451 1.371 . S
C1712 C258 1.437 . S
C1721 C292 1.438 . S
C1723 C587 1.366 . S
C1732 C326 1.441 . S
C1734 C621 1.363 . S
C1743 C655 1.359 . S
C1745 C360 1.442 . S
C1754 C394 1.436 . S
C1756 C1505 1.370 . S
C1765 C1369 1.366 . S
C1767 C428 1.439 . S
C1776 C462 1.436 . S
C1778 C791 1.370 . S
C1787 C496 1.436 . S
C1789 C1539 1.369 . S
C1798 C757 1.371 . S
C1800 C530 1.437 . S
C1809 C564 1.443 . S
C1811 C1029 1.360 . S
C1820 C77 1.370 . S
C1822 C598 1.437 . S
C1831 C111 1.371 . S
C1833 C632 1.437 . S
C1842 C9 1.370 . S
C1844 C666 1.437 . S
C1853 C700 1.436 . S
C1855 C859 1.370 . S
C1864 C734 1.444 . S
C1866 C961 1.359 . S
C1875 C179 1.371 . S
C1877 C768 1.437 . S
C1886 C247 1.358 . S
C1888 C802 1.443 . S
C1897 C836 1.443 . S
C1899 C1165 1.360 . S
C1908 C870 1.443 . S
C1910 C1199 1.361 . S
C1919 C1097 1.358 . S
C1921 C904 1.443 . S
C1930 C1131 1.365 . S
C1932 C938 1.439 . S
C1941 C1301 1.371 . S
C1943 C972 1.437 . S
C1952 C1335 1.359 . S
C1954 C1006 1.443 . S
C1963 C1233 1.371 . S
C1965 C1040 1.437 . S
C1974 C1074 1.436 . S
C1976 C1267 1.370 . S
C1985 C1108 1.440 . S
C1987 C1403 1.364 . S
C1996 C1437 1.360 . S
C1998 C1142 1.441 . S
C2007 C1176 1.442 . S
C2009 C1471 1.362 . S
C2018 C1210 1.444 . S
C2020 C689 1.359 . S
C2029 C1244 1.440 . S
C2031 C553 1.365 . S
C2040 C1278 1.443 . S
C2042 C1607 1.361 . S
C2051 C723 1.371 . S
C2053 C1312 1.437 . S
C2062 C1573 1.371 . S
C2064 C1346 1.437 . S
C2073 C1380 1.443 . S
C2075 C213 1.360 . S
C2084 C893 1.363 . S
C2086 C1414 1.440 . S
C2095 C1448 1.443 . S
C2097 C927 1.361 . S
C2106 C1482 1.444 . S
C2108 C825 1.359 . S
C2117 C43 1.359 . S
C2119 C1516 1.443 . S
C2128 C1550 1.444 . S
C2130 C145 1.360 . S
C2139 C1584 1.437 . S
C2141 C995 1.368 . S
C2150 C1063 1.358 . S
C2152 C1618 1.443 . S
C2161 C311 1.679 . S
C2163 C5 1.674 . S
C2172 C39 1.667 . S
C2174 C345 1.679 . S
C2183 C379 1.672 . S
C2185 C73 1.672 . S
C2194 C277 1.675 . S
C2196 C107 1.677 . S
C2205 C141 1.679 . S
C2207 C515 1.674 . S
C2216 C175 1.675 . S
C2218 C413 1.671 . S
C2227 C447 1.669 . S
C2229 C209 1.675 . S
C2238 C243 1.681 . S
C2240 C481 1.671 . S
C2249 C617 1.672 . S
C2251 C549 1.679 . S
C2260 C583 1.681 . S
C2262 C1569 1.669 . S
C2271 C1603 1.672 . S
C2273 C651 1.673 . S
C2282 C685 1.671 . S
C2284 C1535 1.673 . S
C2293 C1501 1.676 . S
C2295 C719 1.676 . S
C2304 C1399 1.680 . S
C2306 C753 1.668 . S
C2315 C787 1.674 . S
C2317 C1467 1.677 . S
C2326 C821 1.667 . S
C2328 C1127 1.677 . S
C2337 C1161 1.680 . S
C2339 C855 1.673 . S
C2348 C1195 1.669 . S
C2350 C889 1.680 . S
C2359 C923 1.667 . S
C2361 C1093 1.679 . S
C2370 C1331 1.677 . S
C2372 C957 1.675 . S
C2381 C1229 1.676 . S
C2383 C991 1.676 . S
C2392 C1025 1.681 . S
C2394 C1263 1.668 . S
C2403 C1297 1.667 . S
C2405 C1059 1.679 . S
C2414 C1433 1.671 . S
C2416 C1365 1.679 . S
C2425 C713 1.544 . S
C2427 C33 1.545 . S
C2436 C67 1.539 . S
C2438 C1427 1.543 . S
C2447 C101 1.540 . S
C2449 C1461 1.546 . S
C2458 C1495 1.543 . S
C2460 C135 1.545 . S
C2469 C1631 1.547 . S
C2471 C169 1.541 . S
C2480 C747 1.540 . S
C2482 C203 1.543 . S
C2491 C237 1.544 . S
C2493 C1597 1.545 . S
C2502 C271 1.546 . S
C2504 C577 1.543 . S
C2513 C543 1.539 . S
C2515 C305 1.545 . S
C2524 C339 1.540 . S
C2526 C441 1.546 . S
C2535 C373 1.542 . S
C2537 C475 1.545 . S
C2546 C509 1.542 . S
C2548 C407 1.541 . S
C2557 C883 1.546 . S
C2559 C611 1.542 . S
C2568 C645 1.540 . S
C2570 C917 1.542 . S
C2579 C679 1.546 . S
C2581 C951 1.543 . S
C2590 C781 1.541 . S
C2592 C1053 1.546 . S
C2601 C985 1.543 . S
C2603 C815 1.541 . S
C2612 C849 1.544 . S
C2614 C1529 1.540 . S
C2623 C1563 1.547 . S
C2625 C1019 1.540 . S
C2634 C1393 1.539 . S
C2636 C1087 1.546 . S
C2645 C1121 1.541 . S
C2647 C1359 1.541 . S
C2656 C1257 1.539 . S
C2658 C1155 1.545 . S
C2667 C1189 1.547 . S
C2669 C1291 1.540 . S
C2678 C1223 1.539 . S
C2680 C1325 1.545 . S
C2689 C138 2.314 . S
C2691 C2 2.314 . S
C2700 C172 2.314 . S
C2702 C36 2.314 . S
C2711 C206 2.314 . S
C2713 C70 2.315 . S
C2722 C240 2.315 . S
C2724 C104 2.315 . S
C2733 C478 2.315 . S
C2735 C274 2.314 . S
C2744 C308 2.314 . S
C2746 C512 2.315 . S
C2755 C342 2.315 . S
C2757 C410 2.316 . S
C2766 C444 2.315 . S
C2768 C376 2.315 . S
C2777 C546 2.315 . S
C2779 C1532 2.314 . S
C2788 C580 2.316 . S
C2790 C1464 2.315 . S
C2799 C682 2.313 . S
C2801 C614 2.315 . S
C2810 C1396 2.314 . S
C2812 C648 2.314 . S
C2821 C1362 2.315 . S
C2823 C716 2.314 . S
C2832 C750 2.315 . S
C2834 C1600 2.314 . S
C2843 C1566 2.314 . S
C2845 C784 2.315 . S
C2854 C954 2.315 . S
C2856 C818 2.314 . S
C2865 C852 2.315 . S
C2867 C988 2.315 . S
C2876 C886 2.315 . S
C2878 C1022 2.316 . S
C2887 C920 2.313 . S
C2889 C1056 2.314 . S
C2898 C1090 2.315 . S
C2900 C1294 2.314 . S
C2909 C1124 2.314 . S
C2911 C1328 2.314 . S
C2920 C1226 2.315 . S
C2922 C1158 2.315 . S
C2931 C1192 2.315 . S
C2933 C1260 2.315 . S
C2942 C1498 2.313 . S
C2944 C1430 2.314 . S
