# Generated by pormake.
# Topology ukb, (4)-cn, num edge types: 1
# Building blocks:
#     Node 0, Type 0, BuildingBlock: CEKHIL_clean_sbu_0, # of connection points: 4
#     Node 1, Type 0, BuildingBlock: CEKHIL_clean_sbu_0, # of connection points: 4
#     Node 2, Type 0, BuildingBlock: CEKHIL_clean_sbu_0, # of connection points: 4
#     Node 3, Type 0, BuildingBlock: CEKHIL_clean_sbu_0, # of connection points: 4
#     Node 4, Type 0, BuildingBlock: CEKHIL_clean_sbu_0, # of connection points: 4
#     Node 5, Type 0, BuildingBlock: CEKHIL_clean_sbu_0, # of connection points: 4
#     Node 6, Type 0, BuildingBlock: CEKHIL_clean_sbu_0, # of connection points: 4
#     Node 7, Type 0, BuildingBlock: CEKHIL_clean_sbu_0, # of connection points: 4
#     Node 8, Type 0, BuildingBlock: CEKHIL_clean_sbu_0, # of connection points: 4
#     Node 9, Type 0, BuildingBlock: CEKHIL_clean_sbu_0, # of connection points: 4
#     Node 10, Type 0, BuildingBlock: CEKHIL_clean_sbu_0, # of connection points: 4
#     Node 11, Type 0, BuildingBlock: CEKHIL_clean_sbu_0, # of connection points: 4
#     Node 12, Type 0, BuildingBlock: CEKHIL_clean_sbu_0, # of connection points: 4
#     Node 13, Type 0, BuildingBlock: CEKHIL_clean_sbu_0, # of connection points: 4
#     Node 14, Type 0, BuildingBlock: CEKHIL_clean_sbu_0, # of connection points: 4
#     Node 15, Type 0, BuildingBlock: CEKHIL_clean_sbu_0, # of connection points: 4
#     Edge 16, Type (0, 0), BuildingBlock: AJUNOK_clean_linker_0, # of connection points: 2
#     Edge 17, Type (0, 0), BuildingBlock: AJUNOK_clean_linker_0, # of connection points: 2
#     Edge 18, Type (0, 0), BuildingBlock: AJUNOK_clean_linker_0, # of connection points: 2
#     Edge 19, Type (0, 0), BuildingBlock: AJUNOK_clean_linker_0, # of connection points: 2
#     Edge 20, Type (0, 0), BuildingBlock: AJUNOK_clean_linker_0, # of connection points: 2
#     Edge 21, Type (0, 0), BuildingBlock: AJUNOK_clean_linker_0, # of connection points: 2
#     Edge 22, Type (0, 0), BuildingBlock: AJUNOK_clean_linker_0, # of connection points: 2
#     Edge 23, Type (0, 0), BuildingBlock: AJUNOK_clean_linker_0, # of connection points: 2
#     Edge 24, Type (0, 0), BuildingBlock: AJUNOK_clean_linker_0, # of connection points: 2
#     Edge 25, Type (0, 0), BuildingBlock: AJUNOK_clean_linker_0, # of connection points: 2
#     Edge 26, Type (0, 0), BuildingBlock: AJUNOK_clean_linker_0, # of connection points: 2
#     Edge 27, Type (0, 0), BuildingBlock: AJUNOK_clean_linker_0, # of connection points: 2
#     Edge 28, Type (0, 0), BuildingBlock: AJUNOK_clean_linker_0, # of connection points: 2
#     Edge 29, Type (0, 0), BuildingBlock: AJUNOK_clean_linker_0, # of connection points: 2
#     Edge 30, Type (0, 0), BuildingBlock: AJUNOK_clean_linker_0, # of connection points: 2
#     Edge 31, Type (0, 0), BuildingBlock: AJUNOK_clean_linker_0, # of connection points: 2
#     Edge 32, Type (0, 0), BuildingBlock: AJUNOK_clean_linker_0, # of connection points: 2
#     Edge 33, Type (0, 0), BuildingBlock: AJUNOK_clean_linker_0, # of connection points: 2
#     Edge 34, Type (0, 0), BuildingBlock: AJUNOK_clean_linker_0, # of connection points: 2
#     Edge 35, Type (0, 0), BuildingBlock: AJUNOK_clean_linker_0, # of connection points: 2
#     Edge 36, Type (0, 0), BuildingBlock: AJUNOK_clean_linker_0, # of connection points: 2
#     Edge 37, Type (0, 0), BuildingBlock: AJUNOK_clean_linker_0, # of connection points: 2
#     Edge 38, Type (0, 0), BuildingBlock: AJUNOK_clean_linker_0, # of connection points: 2
#     Edge 39, Type (0, 0), BuildingBlock: AJUNOK_clean_linker_0, # of connection points: 2
#     Edge 40, Type (0, 0), BuildingBlock: AJUNOK_clean_linker_0, # of connection points: 2
#     Edge 41, Type (0, 0), BuildingBlock: AJUNOK_clean_linker_0, # of connection points: 2
#     Edge 42, Type (0, 0), BuildingBlock: AJUNOK_clean_linker_0, # of connection points: 2
#     Edge 43, Type (0, 0), BuildingBlock: AJUNOK_clean_linker_0, # of connection points: 2
#     Edge 44, Type (0, 0), BuildingBlock: AJUNOK_clean_linker_0, # of connection points: 2
#     Edge 45, Type (0, 0), BuildingBlock: AJUNOK_clean_linker_0, # of connection points: 2
#     Edge 46, Type (0, 0), BuildingBlock: AJUNOK_clean_linker_0, # of connection points: 2
#     Edge 47, Type (0, 0), BuildingBlock: AJUNOK_clean_linker_0, # of connection points: 2
# Relax obj value: 0.091
# Max RMSD: 0.050
# Mean RMSD: 0.050
data_MOF--net-ukb--node1-CEKHIL_clean_sbu_0--edge1-AJUNOK_clean_linker_0
_symmetry_space_group_name_H-M    P1
_symmetry_Int_Tables_number       1
_symmetry_cell_setting            triclinic
loop_
_symmetry_equiv_pos_as_xyz
'x, y, z'
_cell_length_a     32.186163
_cell_length_b     32.181731
_cell_length_c     27.301948
_cell_angle_alpha  90.004472
_cell_angle_beta   90.007815
_cell_angle_gamma 89.993628
loop_
_atom_site_label
_atom_site_type_symbol
_atom_site_fract_x
_atom_site_fract_y
_atom_site_fract_z
_atom_type_partial_charge
Co0 Co 0.52699 0.18188 0.17182 0.0
O1 O 0.49695 0.13045 0.16297 0.0
O2 O 0.49184 0.17134 0.22788 0.0
C3 C 0.516 0.20773 0.09571 0.0
O4 O 0.55111 0.23737 0.19397 0.0
Co5 Co 0.60543 0.20367 0.11085 0.0
O6 O 0.60095 0.25913 0.14251 0.0
C7 C 0.61207 0.14352 0.19203 0.0
C8 C 0.4803 0.13761 0.20551 0.0
C9 C 0.57769 0.26473 0.17971 0.0
O10 O 0.57439 0.15155 0.20481 0.0
O11 O 0.62872 0.15815 0.15308 0.0
O12 O 0.48739 0.21096 0.12912 0.0
O13 O 0.54804 0.18598 0.10797 0.0
Co14 Co 0.3223 0.52958 0.67248 0.0
O15 O 0.3735 0.4986 0.66613 0.0
O16 O 0.33113 0.49555 0.72986 0.0
C17 C 0.29844 0.51704 0.59585 0.0
O18 O 0.26682 0.55467 0.69253 0.0
Co19 Co 0.30181 0.6065 0.60918 0.0
O20 O 0.24581 0.60376 0.63989 0.0
C21 C 0.35978 0.61504 0.69257 0.0
C22 C 0.36536 0.48332 0.70912 0.0
C23 C 0.23972 0.58117 0.67754 0.0
O24 O 0.35248 0.57718 0.70515 0.0
O25 O 0.34537 0.63132 0.65326 0.0
O26 O 0.29321 0.48972 0.6304 0.0
O27 O 0.32027 0.54918 0.60756 0.0
Co28 Co 0.97765 0.32318 0.17219 0.0
O29 O 0.00857 0.37452 0.1659 0.0
O30 O 0.01217 0.33173 0.22918 0.0
C31 C 0.98906 0.29897 0.0953 0.0
O32 O 0.95272 0.26738 0.19197 0.0
Co33 Co 0.89968 0.30373 0.10926 0.0
O34 O 0.90368 0.24729 0.1385 0.0
C35 C 0.89322 0.3632 0.19113 0.0
C36 C 0.02429 0.36607 0.20863 0.0
C37 C 0.92653 0.24042 0.17575 0.0
O38 O 0.93012 0.35341 0.20539 0.0
O39 O 0.87712 0.34966 0.15131 0.0
O40 O 0.01734 0.29463 0.12895 0.0
O41 O 0.95725 0.32088 0.10791 0.0
Co42 Co 0.18098 0.97953 0.67192 0.0
O43 O 0.12967 0.00972 0.66211 0.0
O44 O 0.17012 0.01535 0.72727 0.0
C45 C 0.20754 0.98947 0.59582 0.0
O46 O 0.23613 0.95548 0.69533 0.0
Co47 Co 0.20314 0.90027 0.61254 0.0
O48 O 0.25813 0.90468 0.64531 0.0
C49 C 0.14216 0.89484 0.69302 0.0
C50 C 0.13651 0.0267 0.70454 0.0
C51 C 0.2634 0.92842 0.68217 0.0
O52 O 0.15021 0.93263 0.70534 0.0
O53 O 0.1571 0.8777 0.65451 0.0
O54 O 0.21058 0.01848 0.6288 0.0
O55 O 0.18561 0.95766 0.60841 0.0
Co56 Co 0.52769 0.3229 0.83394 0.0
O57 O 0.49785 0.37447 0.84314 0.0
O58 O 0.4928 0.33408 0.77783 0.0
C59 C 0.51623 0.29656 0.90976 0.0
O60 O 0.55153 0.26735 0.81138 0.0
Co61 Co 0.60563 0.30013 0.89552 0.0
O62 O 0.60007 0.24468 0.86409 0.0
C63 C 0.61286 0.36161 0.81582 0.0
C64 C 0.48128 0.36769 0.80048 0.0
C65 C 0.57716 0.2394 0.82653 0.0
O66 O 0.57556 0.35325 0.80174 0.0
O67 O 0.62902 0.3465 0.8548 0.0
O68 O 0.48773 0.29371 0.87616 0.0
O69 O 0.5484 0.31821 0.89785 0.0
Co70 Co 0.18586 0.52734 0.33365 0.0
O71 O 0.13577 0.49535 0.344 0.0
O72 O 0.17397 0.49365 0.27668 0.0
C73 C 0.21496 0.51458 0.40767 0.0
O74 O 0.23944 0.55383 0.30911 0.0
Co75 Co 0.20791 0.60434 0.39674 0.0
O76 O 0.26064 0.6052 0.35882 0.0
C77 C 0.1446 0.61187 0.31905 0.0
C78 C 0.1415 0.4804 0.3003 0.0
C79 C 0.26565 0.58222 0.32124 0.0
O80 O 0.15289 0.57473 0.30446 0.0
O81 O 0.1605 0.62792 0.35767 0.0
O82 O 0.21819 0.4875 0.37256 0.0
O83 O 0.19181 0.54636 0.39852 0.0
Co84 Co 0.97532 0.18697 0.8316 0.0
O85 O 0.00593 0.13555 0.8387 0.0
O86 O 0.00927 0.17732 0.77441 0.0
C87 C 0.98742 0.21219 0.90783 0.0
O88 O 0.95051 0.24259 0.81085 0.0
Co89 Co 0.89774 0.20749 0.89455 0.0
O90 O 0.90157 0.26345 0.86401 0.0
C91 C 0.89013 0.14803 0.81287 0.0
C92 C 0.02122 0.14318 0.79555 0.0
C93 C 0.92429 0.26977 0.82653 0.0
O94 O 0.92752 0.15659 0.79941 0.0
O95 O 0.87396 0.1622 0.85234 0.0
O96 O 0.01547 0.21589 0.87381 0.0
O97 O 0.95536 0.19029 0.89602 0.0
Co98 Co 0.3198 0.97654 0.33203 0.0
O99 O 0.37124 0.00707 0.33952 0.0
O100 O 0.32938 0.01103 0.27537 0.0
C101 C 0.29452 0.98793 0.40842 0.0
O102 O 0.26425 0.95209 0.31078 0.0
Co103 Co 0.29866 0.89843 0.39364 0.0
O104 O 0.24302 0.90213 0.36226 0.0
C105 C 0.35922 0.89182 0.31286 0.0
C106 C 0.36355 0.02277 0.29658 0.0
C107 C 0.23707 0.92541 0.32513 0.0
O108 O 0.3502 0.92904 0.29915 0.0
O109 O 0.34475 0.87539 0.35203 0.0
O110 O 0.29089 0.01628 0.37472 0.0
O111 O 0.31633 0.9559 0.39622 0.0
Co112 Co 0.47489 0.82433 0.82917 0.0
O113 O 0.50668 0.87512 0.83654 0.0
O114 O 0.50915 0.83361 0.77205 0.0
C115 C 0.48639 0.79849 0.90559 0.0
O116 O 0.44895 0.76941 0.80773 0.0
Co117 Co 0.39702 0.80456 0.89214 0.0
O118 O 0.39949 0.74898 0.86048 0.0
C119 C 0.39065 0.86535 0.81151 0.0
C120 C 0.52184 0.86741 0.79334 0.0
C121 C 0.42207 0.74269 0.82286 0.0
O122 O 0.42761 0.85585 0.79716 0.0
O123 O 0.37447 0.85107 0.85091 0.0
O124 O 0.51435 0.79432 0.87152 0.0
O125 O 0.4548 0.82099 0.89367 0.0
Co126 Co 0.68214 0.47654 0.32776 0.0
O127 O 0.63086 0.50752 0.33563 0.0
O128 O 0.67318 0.51248 0.27209 0.0
C129 C 0.70674 0.48565 0.40543 0.0
O130 O 0.73762 0.45208 0.30593 0.0
Co131 Co 0.703 0.39714 0.3865 0.0
O132 O 0.75879 0.40109 0.35598 0.0
C133 C 0.64147 0.39282 0.30693 0.0
C134 C 0.63889 0.52399 0.29317 0.0
C135 C 0.76473 0.42501 0.31948 0.0
O136 O 0.65132 0.4299 0.29325 0.0
O137 O 0.65572 0.37596 0.3459 0.0
O138 O 0.71128 0.51477 0.37277 0.0
O139 O 0.68486 0.45435 0.39122 0.0
Co140 Co 0.02832 0.68469 0.82851 0.0
O141 O 0.99785 0.63339 0.83698 0.0
O142 O 0.99132 0.67563 0.77358 0.0
C143 C 0.01999 0.70867 0.90664 0.0
O144 O 0.05251 0.74039 0.80681 0.0
Co145 Co 0.10841 0.70468 0.88677 0.0
O146 O 0.10293 0.76106 0.85815 0.0
C147 C 0.11186 0.64445 0.80563 0.0
C148 C 0.98015 0.64147 0.79527 0.0
C149 C 0.07907 0.76754 0.82172 0.0
O150 O 0.07456 0.65426 0.79281 0.0
O151 O 0.12921 0.65821 0.84456 0.0
O152 O 0.99056 0.71344 0.87444 0.0
O153 O 0.05117 0.68698 0.89167 0.0
Co154 Co 0.82239 0.02982 0.32832 0.0
O155 O 0.87321 0.99872 0.3377 0.0
O156 O 0.8314 0.99237 0.27384 0.0
C157 C 0.79717 0.02249 0.40602 0.0
O158 O 0.76719 0.05449 0.3057 0.0
Co159 Co 0.80352 0.11083 0.38483 0.0
O160 O 0.74707 0.10565 0.35631 0.0
C161 C 0.86355 0.11288 0.30389 0.0
C162 C 0.86525 0.98092 0.29601 0.0
C163 C 0.74033 0.08148 0.32024 0.0
O164 O 0.85367 0.07531 0.2923 0.0
O165 O 0.85007 0.13095 0.34247 0.0
O166 O 0.79269 0.99279 0.37411 0.0
O167 O 0.81968 0.05322 0.3913 0.0
Co168 Co 0.47575 0.68507 0.16981 0.0
O169 O 0.50603 0.63374 0.15997 0.0
O170 O 0.51111 0.67372 0.22556 0.0
C171 C 0.48641 0.71201 0.09376 0.0
O172 O 0.45152 0.74006 0.19357 0.0
Co173 Co 0.39717 0.70812 0.10951 0.0
O174 O 0.40086 0.76253 0.14366 0.0
C175 C 0.39075 0.64637 0.18922 0.0
C176 C 0.52267 0.64026 0.20268 0.0
C177 C 0.42433 0.76734 0.18083 0.0
O178 O 0.42839 0.65421 0.20242 0.0
O179 O 0.37408 0.66189 0.15076 0.0
O180 O 0.5151 0.71488 0.12715 0.0
O181 O 0.45444 0.6902 0.10598 0.0
Co182 Co 0.81925 0.47861 0.67182 0.0
O183 O 0.87005 0.51014 0.6623 0.0
O184 O 0.82853 0.51526 0.72659 0.0
C185 C 0.79234 0.48626 0.59498 0.0
O186 O 0.76461 0.45382 0.69565 0.0
Co187 Co 0.80104 0.39718 0.6156 0.0
O188 O 0.74807 0.39647 0.6531 0.0
C189 C 0.86152 0.39572 0.69564 0.0
C190 C 0.86245 0.52683 0.70479 0.0
C191 C 0.74028 0.42311 0.68631 0.0
O192 O 0.85103 0.4331 0.7072 0.0
O193 O 0.84849 0.37757 0.65691 0.0
O194 O 0.78886 0.51593 0.62706 0.0
O195 O 0.81532 0.4554 0.6085 0.0
Co196 Co 0.02785 0.81856 0.17467 0.0
O197 O 0.99641 0.86936 0.16467 0.0
O198 O 0.99126 0.82835 0.22937 0.0
C199 C 0.02003 0.79127 0.09801 0.0
O200 O 0.05254 0.76401 0.19908 0.0
Co201 Co 0.10903 0.79942 0.11834 0.0
O202 O 0.1093 0.74654 0.156 0.0
C203 C 0.11032 0.86187 0.19632 0.0
C204 C 0.9797 0.86211 0.20722 0.0
C205 C 0.0829 0.73928 0.18963 0.0
O206 O 0.07353 0.85062 0.20942 0.0
O207 O 0.12804 0.84838 0.15755 0.0
O208 O 0.99041 0.78795 0.13018 0.0
O209 O 0.05095 0.81416 0.11138 0.0
Co210 Co 0.6824 0.03151 0.6712 0.0
O211 O 0.63171 1.00034 0.66036 0.0
O212 O 0.67208 0.99434 0.7255 0.0
C213 C 0.71009 0.02399 0.59469 0.0
O214 O 0.73702 0.05619 0.69581 0.0
Co215 Co 0.70085 0.11301 0.61522 0.0
O216 O 0.755 0.11141 0.65014 0.0
C217 C 0.63984 0.11437 0.69471 0.0
C218 C 0.63863 0.98289 0.70254 0.0
C219 C 0.7624 0.08553 0.68428 0.0
O220 O 0.65025 0.07695 0.70625 0.0
O221 O 0.65326 0.13263 0.65624 0.0
O222 O 0.71321 0.99426 0.62674 0.0
O223 O 0.68697 0.05479 0.60802 0.0
C224 C 0.44655 0.1056 0.27908 0.0
C225 C 0.45004 0.10845 0.2278 0.0
C226 C 0.41879 0.07752 0.30106 0.0
C227 C 0.39273 0.05206 0.27258 0.0
H228 H 0.46589 0.12471 0.30247 0.0
H229 H 0.41743 0.07612 0.34067 0.0
S230 S 0.38929 0.04812 0.13677 0.0
N231 N 0.42507 0.08337 0.14915 0.0
N232 N 0.37215 0.03159 0.19034 0.0
C233 C 0.39556 0.05499 0.22127 0.0
C234 C 0.42444 0.08289 0.19892 0.0
C235 C 0.41964 0.4277 0.70499 0.0
C236 C 0.39413 0.45378 0.73339 0.0
C237 C 0.44723 0.39951 0.72702 0.0
C238 C 0.45115 0.3971 0.77828 0.0
H239 H 0.41798 0.42874 0.66537 0.0
H240 H 0.46612 0.37994 0.70363 0.0
S241 S 0.39194 0.4592 0.86911 0.0
N242 N 0.37451 0.47537 0.81551 0.0
N243 N 0.42715 0.42334 0.85687 0.0
C244 C 0.42608 0.42327 0.80711 0.0
C245 C 0.39734 0.45133 0.78468 0.0
C246 C 0.07926 0.42115 0.20457 0.0
C247 C 0.05426 0.39449 0.23287 0.0
C248 C 0.10791 0.44826 0.22665 0.0
C249 C 0.11193 0.4505 0.27792 0.0
H250 H 0.07699 0.4208 0.16499 0.0
H251 H 0.12653 0.46813 0.20333 0.0
S252 S 0.05339 0.38764 0.36858 0.0
N253 N 0.03559 0.37192 0.31496 0.0
N254 N 0.0885 0.42359 0.35639 0.0
C255 C 0.08693 0.42422 0.30665 0.0
C256 C 0.05839 0.39601 0.28416 0.0
C257 C 0.10551 0.06178 0.77785 0.0
C258 C 0.10706 0.05687 0.72664 0.0
C259 C 0.07737 0.08944 0.79986 0.0
C260 C 0.05046 0.11403 0.77145 0.0
H261 H 0.12577 0.04364 0.80125 0.0
H262 H 0.07706 0.09193 0.83944 0.0
S263 S 0.04218 0.11316 0.6359 0.0
N264 N 0.07883 0.07877 0.64814 0.0
N265 N 0.02688 0.13153 0.68942 0.0
C266 C 0.05192 0.10974 0.72021 0.0
C267 C 0.07993 0.08093 0.69784 0.0
C268 C 0.57847 0.92081 0.79773 0.0
C269 C 0.55168 0.89611 0.76926 0.0
C270 C 0.607 0.94813 0.77577 0.0
C271 C 0.60911 0.95264 0.72452 0.0
H272 H 0.57772 0.91871 0.83732 0.0
H273 H 0.62704 0.96643 0.79925 0.0
S274 S 0.54508 0.89575 0.63353 0.0
N275 N 0.52908 0.87794 0.68703 0.0
N276 N 0.5817 0.93013 0.64592 0.0
C277 C 0.58222 0.92841 0.69565 0.0
C278 C 0.55381 0.89991 0.71796 0.0
C279 C 0.55641 0.60763 0.27607 0.0
C280 C 0.55277 0.61067 0.22478 0.0
C281 C 0.584 0.57926 0.29793 0.0
C282 C 0.60985 0.55366 0.26934 0.0
H283 H 0.53729 0.62685 0.29958 0.0
H284 H 0.58543 0.57775 0.33753 0.0
S285 S 0.61279 0.54988 0.13349 0.0
N286 N 0.57733 0.58542 0.14604 0.0
N287 N 0.62998 0.53317 0.18697 0.0
C288 C 0.60686 0.55673 0.21803 0.0
C289 C 0.57811 0.58491 0.1958 0.0
C290 C 0.94479 0.61068 0.72174 0.0
C291 C 0.94942 0.61265 0.773 0.0
C292 C 0.91691 0.58261 0.69981 0.0
C293 C 0.89178 0.5563 0.72838 0.0
H294 H 0.96342 0.63043 0.6983 0.0
H295 H 0.91471 0.58182 0.66023 0.0
S296 S 0.89154 0.54967 0.86413 0.0
N297 N 0.92652 0.58567 0.85164 0.0
N298 N 0.87339 0.534 0.81066 0.0
C299 C 0.89573 0.55836 0.77967 0.0
C300 C 0.92474 0.58621 0.80191 0.0
C301 C 0.89693 0.94575 0.22294 0.0
C302 C 0.89391 0.94985 0.27418 0.0
C303 C 0.92496 0.91758 0.20145 0.0
C304 C 0.95016 0.89163 0.23043 0.0
H305 H 0.87809 0.96506 0.19919 0.0
H306 H 0.9266 0.91584 0.16188 0.0
S307 S 0.95344 0.88961 0.36636 0.0
N308 N 0.91849 0.9255 0.35326 0.0
N309 N 0.97006 0.8718 0.31313 0.0
C310 C 0.94695 0.89502 0.28171 0.0
C311 C 0.91915 0.92432 0.30351 0.0
C312 C 0.60809 0.3359 0.19217 0.0
C313 C 0.58567 0.3018 0.21102 0.0
C314 C 0.62309 0.36751 0.22298 0.0
C315 C 0.61675 0.36586 0.27389 0.0
H316 H 0.6158 0.33728 0.15358 0.0
H317 H 0.64223 0.39175 0.20719 0.0
S318 S 0.5553 0.28672 0.34113 0.0
N319 N 0.55401 0.27114 0.28356 0.0
N320 N 0.58264 0.33011 0.34116 0.0
C321 C 0.59186 0.33369 0.29274 0.0
C322 C 0.57616 0.30181 0.2614 0.0
C323 C 0.16951 0.61392 0.69029 0.0
C324 C 0.20253 0.58959 0.70858 0.0
C325 C 0.1379 0.62872 0.72125 0.0
C326 C 0.13846 0.62022 0.77176 0.0
H327 H 0.16901 0.62322 0.65217 0.0
H328 H 0.11456 0.64931 0.7061 0.0
S329 S 0.21421 0.55345 0.83723 0.0
N330 N 0.23074 0.55392 0.78002 0.0
N331 N 0.17185 0.58234 0.83781 0.0
C332 C 0.16946 0.5936 0.78989 0.0
C333 C 0.20132 0.57809 0.75842 0.0
C334 C 0.91133 0.17228 0.28733 0.0
C335 C 0.88764 0.1389 0.26916 0.0
C336 C 0.92663 0.2033 0.25618 0.0
C337 C 0.91826 0.20262 0.20557 0.0
H338 H 0.91638 0.1756 0.32638 0.0
H339 H 0.94273 0.2294 0.27254 0.0
S340 S 0.8629 0.11882 0.13857 0.0
N341 N 0.86069 0.10442 0.19657 0.0
N342 N 0.889 0.163 0.13791 0.0
C343 C 0.89733 0.16776 0.18639 0.0
C344 C 0.8822 0.13579 0.21817 0.0
C345 C 0.33463 0.89882 0.69606 0.0
C346 C 0.29988 0.9205 0.71438 0.0
C347 C 0.36586 0.88395 0.72743 0.0
C348 C 0.3632 0.88957 0.77843 0.0
H349 H 0.33687 0.89169 0.65737 0.0
H350 H 0.39076 0.86554 0.71186 0.0
S351 S 0.28172 0.94877 0.8446 0.0
N352 N 0.26725 0.9506 0.78664 0.0
N353 N 0.32553 0.92211 0.84535 0.0
C354 C 0.33021 0.91359 0.79689 0.0
C355 C 0.29871 0.92924 0.76495 0.0
C356 C 0.57798 0.20506 0.7444 0.0
C357 C 0.58493 0.20241 0.7952 0.0
C358 C 0.59328 0.17468 0.71234 0.0
C359 C 0.61557 0.14004 0.72974 0.0
H360 H 0.5631 0.23218 0.72877 0.0
H361 H 0.58936 0.17948 0.67333 0.0
S362 S 0.6359 0.11481 0.86022 0.0
N363 N 0.61107 0.15969 0.86197 0.0
N364 N 0.63939 0.10234 0.80169 0.0
C365 C 0.61944 0.13505 0.78075 0.0
C366 C 0.60431 0.16633 0.81345 0.0
C367 C 0.36705 0.62753 0.27368 0.0
C368 C 0.36334 0.62251 0.22266 0.0
C369 C 0.33629 0.61262 0.30566 0.0
C370 C 0.30102 0.59146 0.28792 0.0
H371 H 0.39254 0.64537 0.28886 0.0
H372 H 0.33946 0.61902 0.34444 0.0
S373 S 0.27955 0.56564 0.15771 0.0
N374 N 0.3237 0.59169 0.1562 0.0
N375 N 0.26633 0.56308 0.21605 0.0
C376 C 0.29855 0.58366 0.23722 0.0
C377 C 0.32955 0.59937 0.20468 0.0
C378 C 0.90916 0.33635 0.7135 0.0
C379 C 0.88536 0.36994 0.73092 0.0
C380 C 0.92441 0.30578 0.74533 0.0
C381 C 0.91587 0.3071 0.79589 0.0
H382 H 0.9144 0.33255 0.67455 0.0
H383 H 0.94067 0.27952 0.72956 0.0
S384 S 0.85972 0.3915 0.86097 0.0
N385 N 0.85783 0.40517 0.80272 0.0
N386 N 0.88601 0.34745 0.8626 0.0
C387 C 0.89467 0.34212 0.81428 0.0
C388 C 0.87961 0.37363 0.78182 0.0
C389 C 0.13556 0.87796 0.2808 0.0
C390 C 0.13624 0.88665 0.23034 0.0
C391 C 0.16693 0.89286 0.31198 0.0
C392 C 0.19986 0.91745 0.29399 0.0
H393 H 0.11241 0.85705 0.29572 0.0
H394 H 0.1664 0.8833 0.35002 0.0
S395 S 0.21139 0.95469 0.1658 0.0
N396 N 0.16935 0.92533 0.16475 0.0
N397 N 0.22782 0.95399 0.22307 0.0
C398 C 0.19861 0.92937 0.2443 0.0
C399 C 0.16698 0.91374 0.21256 0.0
C400 C 0.40371 0.6777 0.70903 0.0
C401 C 0.38225 0.64281 0.72707 0.0
C402 C 0.41909 0.70841 0.74067 0.0
C403 C 0.4129 0.70593 0.79165 0.0
H404 H 0.40741 0.6821 0.66993 0.0
H405 H 0.43379 0.73548 0.72467 0.0
S406 S 0.3623 0.61888 0.85801 0.0
N407 N 0.35872 0.60582 0.79968 0.0
N408 N 0.38693 0.66389 0.85905 0.0
C409 C 0.39349 0.67009 0.81042 0.0
C410 C 0.37841 0.63844 0.77819 0.0
C411 C 0.86712 0.37955 0.27527 0.0
C412 C 0.86573 0.38696 0.22453 0.0
C413 C 0.83556 0.39415 0.30636 0.0
C414 C 0.80176 0.4173 0.28803 0.0
H415 H 0.89121 0.35998 0.29066 0.0
H416 H 0.83678 0.38565 0.34472 0.0
S417 S 0.78751 0.45067 0.15878 0.0
N418 N 0.83056 0.42279 0.1581 0.0
N419 N 0.77171 0.45087 0.21629 0.0
C420 C 0.80201 0.42784 0.23791 0.0
C421 C 0.83382 0.41246 0.20623 0.0
C422 C 0.08106 0.80247 0.74003 0.0
C423 C 0.08703 0.8048 0.79102 0.0
C424 C 0.09676 0.8332 0.70868 0.0
C425 C 0.11836 0.86789 0.72709 0.0
H426 H 0.06663 0.77536 0.72378 0.0
H427 H 0.09353 0.82879 0.66952 0.0
S428 S 0.13684 0.89179 0.85831 0.0
N429 N 0.11215 0.8468 0.85891 0.0
N430 N 0.14104 0.90491 0.80005 0.0
C431 C 0.12151 0.87235 0.77824 0.0
C432 C 0.10606 0.8407 0.81017 0.0
C433 C 0.67425 0.09876 0.20744 0.0
C434 C 0.63945 0.12011 0.226 0.0
C435 C 0.70522 0.08334 0.23866 0.0
C436 C 0.70302 0.08936 0.28965 0.0
H437 H 0.67851 0.09547 0.16827 0.0
H438 H 0.73238 0.06908 0.22232 0.0
S439 S 0.61599 0.13863 0.35733 0.0
N440 N 0.60259 0.14265 0.29914 0.0
N441 N 0.66116 0.11429 0.35772 0.0
C442 C 0.6671 0.10818 0.30895 0.0
C443 C 0.6352 0.12334 0.27718 0.0
C444 C 0.39392 0.83798 0.19635 0.0
C445 C 0.41574 0.80307 0.21398 0.0
C446 C 0.37839 0.8684 0.22839 0.0
C447 C 0.38343 0.86469 0.2794 0.0
H448 H 0.38725 0.84101 0.15762 0.0
H449 H 0.36004 0.89353 0.21324 0.0
S450 S 0.44256 0.78233 0.34411 0.0
N451 N 0.44523 0.76913 0.28576 0.0
N452 N 0.41544 0.82585 0.34573 0.0
C453 C 0.40745 0.83148 0.29728 0.0
C454 C 0.42381 0.80084 0.26466 0.0
C455 C 0.66914 0.39398 0.7003 0.0
C456 C 0.70402 0.4154 0.71855 0.0
C457 C 0.63779 0.37961 0.73176 0.0
C458 C 0.64064 0.38532 0.78274 0.0
H459 H 0.66685 0.38684 0.66161 0.0
H460 H 0.61263 0.36148 0.7163 0.0
S461 S 0.72346 0.44296 0.84855 0.0
N462 N 0.73761 0.44477 0.79047 0.0
N463 N 0.67918 0.41705 0.84958 0.0
C464 C 0.67407 0.4088 0.80112 0.0
C465 C 0.70561 0.42406 0.76902 0.0
C466 C 0.12586 0.63664 0.23525 0.0
C467 C 0.12059 0.63969 0.28629 0.0
C468 C 0.11148 0.66797 0.20379 0.0
C469 C 0.09047 0.70307 0.22206 0.0
H470 H 0.14371 0.61132 0.21968 0.0
H471 H 0.11833 0.66547 0.16504 0.0
S472 S 0.06384 0.723 0.35224 0.0
N473 N 0.0896 0.67861 0.35326 0.0
N474 N 0.06171 0.73701 0.29412 0.0
C475 C 0.08215 0.70486 0.27263 0.0
C476 C 0.09748 0.67333 0.30475 0.0
C477 C 0.82694 0.1044 0.79782 0.0
C478 C 0.86252 0.12445 0.77919 0.0
C479 C 0.79607 0.08875 0.76656 0.0
C480 C 0.79925 0.09324 0.71549 0.0
H481 H 0.82199 0.1023 0.83699 0.0
H482 H 0.76827 0.0756 0.78271 0.0
S483 S 0.88841 0.13813 0.6476 0.0
N484 N 0.90107 0.14366 0.70586 0.0
N485 N 0.84259 0.11504 0.64733 0.0
C486 C 0.83582 0.11066 0.6962 0.0
C487 C 0.86762 0.12598 0.72798 0.0
C488 C 0.55166 0.24114 0.02492 0.0
C489 C 0.51435 0.23037 0.04845 0.0
C490 C 0.55171 0.26275 0.98047 0.0
C491 C 0.51444 0.27357 0.95679 0.0
H492 H 0.58131 0.23336 0.04116 0.0
H493 H 0.5814 0.2706 0.96441 0.0
S494 S 0.40808 0.25187 1.00235 0.0
N495 N 0.4389 0.23215 0.04482 0.0
N496 N 0.439 0.27164 0.96003 0.0
C497 C 0.47677 0.26254 0.97945 0.0
C498 C 0.47672 0.2413 0.02558 0.0
C499 C 0.21852 0.49576 0.49631 0.0
C500 C 0.2382 0.51111 0.45405 0.0
C501 C 0.23878 0.49624 0.542 0.0
C502 C 0.27885 0.51321 0.54698 0.0
H503 H 0.18703 0.484 0.49417 0.0
H504 H 0.22237 0.48474 0.57388 0.0
S505 S 0.34434 0.55504 0.44663 0.0
N506 N 0.30072 0.54106 0.41935 0.0
N507 N 0.33807 0.54394 0.50525 0.0
C508 C 0.29899 0.52795 0.5047 0.0
C509 C 0.27881 0.52642 0.45817 0.0
C510 C 0.9529 0.2666 0.02406 0.0
C511 C 0.99039 0.2768 0.04764 0.0
C512 C 0.9525 0.24544 0.9793 0.0
C513 C 0.98957 0.23457 0.95528 0.0
H514 H 0.92337 0.27449 0.04048 0.0
H515 H 0.92269 0.23804 0.96322 0.0
S516 S 0.09628 0.25488 1.00069 0.0
N517 N 0.06578 0.27437 0.04363 0.0
N518 N 0.06504 0.23586 0.9582 0.0
C519 C 0.02741 0.24505 0.97794 0.0
C520 C 0.02782 0.26577 0.02443 0.0
C521 C 0.26235 0.95284 0.4806 0.0
C522 C 0.27236 0.98994 0.45606 0.0
C523 C 0.2412 0.95321 0.52543 0.0
C524 C 0.23012 0.9907 0.54844 0.0
H525 H 0.27037 0.92306 0.46484 0.0
H526 H 0.23393 0.92369 0.54234 0.0
S527 S 0.24984 0.09663 0.50019 0.0
N528 N 0.26954 0.0654 0.45812 0.0
N529 N 0.23098 0.0661 0.54347 0.0
C530 C 0.24041 0.02814 0.52477 0.0
C531 C 0.26116 0.02776 0.47832 0.0
C532 C 0.45088 0.76725 0.97819 0.0
C533 C 0.48811 0.77626 0.95334 0.0
C534 C 0.45087 0.74636 0.02322 0.0
C535 C 0.48813 0.73452 0.04623 0.0
H536 H 0.42124 0.77591 0.96255 0.0
H537 H 0.42124 0.73991 0.0403 0.0
S538 S 0.59431 0.75133 0.99727 0.0
N539 N 0.56347 0.77155 0.95515 0.0
N540 N 0.56349 0.7335 0.04088 0.0
C541 C 0.52572 0.74377 0.02227 0.0
C542 C 0.5257 0.76423 0.97557 0.0
C543 C 0.76741 0.52254 0.51835 0.0
C544 C 0.76965 0.48641 0.54738 0.0
C545 C 0.74735 0.52226 0.4723 0.0
C546 C 0.72766 0.48618 0.45434 0.0
H547 H 0.78209 0.55094 0.53077 0.0
H548 H 0.74712 0.55054 0.4508 0.0
S549 S 0.72139 0.38453 0.51878 0.0
N550 N 0.74932 0.41423 0.55525 0.0
N551 N 0.70951 0.41423 0.47168 0.0
C552 C 0.7285 0.45043 0.48414 0.0
C553 C 0.75005 0.45041 0.52982 0.0
C554 C 0.98343 0.76732 0.02116 0.0
C555 C 0.0196 0.76896 0.05017 0.0
C556 C 0.98361 0.7481 0.97462 0.0
C557 C 0.01965 0.72873 0.95604 0.0
H558 H 0.95511 0.78191 0.03395 0.0
H559 H 0.9553 0.74831 0.95318 0.0
S560 S 0.12136 0.72107 0.02009 0.0
N561 N 0.09173 0.74824 0.05744 0.0
N562 N 0.09161 0.71023 0.97267 0.0
C563 C 0.05544 0.72896 0.98576 0.0
C564 C 0.05554 0.74956 0.03207 0.0
C565 C 0.73762 0.98664 0.52008 0.0
C566 C 0.73289 0.02363 0.54713 0.0
C567 C 0.75803 0.98638 0.47427 0.0
C568 C 0.77572 0.02284 0.45459 0.0
H569 H 0.72468 0.95786 0.53389 0.0
H570 H 0.76023 0.95734 0.45438 0.0
S571 S 0.77464 0.12721 0.51304 0.0
N572 N 0.7483 0.09732 0.55089 0.0
N573 N 0.78897 0.09639 0.46793 0.0
C574 C 0.77229 0.0596 0.48229 0.0
C575 C 0.75027 0.06011 0.52769 0.0
loop_
_geom_bond_atom_site_label_1
_geom_bond_atom_site_label_2
_geom_bond_distance
_geom_bond_site_symmetry_2
_ccdc_geom_bond_type
Co0 O1 2.216 . S
Co0 O2 2.091 . S
Co0 O4 2.004 . S
Co0 O10 2.021 . S
Co0 O12 2.137 . S
Co0 O13 2.244 . S
O1 Co0 2.216 . S
O1 C8 1.247 . S
O2 Co0 2.091 . S
O2 C8 1.261 . S
C3 O12 1.247 . S
C3 O13 1.272 . S
O4 Co0 2.004 . S
O4 C9 1.259 . S
Co5 O6 2.061 . S
Co5 O11 2.052 . S
Co5 O13 2.135 . S
O6 Co5 2.061 . S
O6 C9 1.235 . S
C7 O10 1.238 . S
C7 O11 1.241 . S
C8 O1 1.247 . S
C8 O2 1.261 . S
C9 O4 1.259 . S
C9 O6 1.235 . S
O10 Co0 2.021 . S
O10 C7 1.238 . S
O11 Co5 2.052 . S
O11 C7 1.241 . S
O12 Co0 2.137 . S
O12 C3 1.247 . S
O13 Co0 2.244 . S
O13 C3 1.272 . S
O13 Co5 2.135 . S
Co14 O15 2.216 . S
Co14 O16 2.091 . S
Co14 O18 2.004 . S
Co14 O24 2.021 . S
Co14 O26 2.137 . S
Co14 O27 2.244 . S
O15 Co14 2.216 . S
O15 C22 1.247 . S
O16 Co14 2.091 . S
O16 C22 1.261 . S
C17 O26 1.247 . S
C17 O27 1.272 . S
O18 Co14 2.004 . S
O18 C23 1.259 . S
Co19 O20 2.061 . S
Co19 O25 2.052 . S
Co19 O27 2.135 . S
O20 Co19 2.061 . S
O20 C23 1.235 . S
C21 O24 1.238 . S
C21 O25 1.241 . S
C22 O15 1.247 . S
C22 O16 1.261 . S
C23 O18 1.259 . S
C23 O20 1.235 . S
O24 Co14 2.021 . S
O24 C21 1.238 . S
O25 Co19 2.052 . S
O25 C21 1.241 . S
O26 Co14 2.137 . S
O26 C17 1.247 . S
O27 Co14 2.244 . S
O27 C17 1.272 . S
O27 Co19 2.135 . S
Co28 O29 2.216 1_655 S
Co28 O30 2.091 1_655 S
Co28 O32 2.004 . S
Co28 O38 2.021 . S
Co28 O40 2.137 1_655 S
Co28 O41 2.244 . S
O29 Co28 2.216 1_455 S
O29 C36 1.247 . S
O30 Co28 2.091 1_455 S
O30 C36 1.261 . S
C31 O40 1.247 1_655 S
C31 O41 1.272 . S
O32 Co28 2.004 . S
O32 C37 1.259 . S
Co33 O34 2.061 . S
Co33 O39 2.052 . S
Co33 O41 2.135 . S
O34 Co33 2.061 . S
O34 C37 1.235 . S
C35 O38 1.238 . S
C35 O39 1.241 . S
C36 O29 1.247 . S
C36 O30 1.261 . S
C37 O32 1.259 . S
C37 O34 1.235 . S
O38 Co28 2.021 . S
O38 C35 1.238 . S
O39 Co33 2.052 . S
O39 C35 1.241 . S
O40 Co28 2.137 1_455 S
O40 C31 1.247 1_455 S
O41 Co28 2.244 . S
O41 C31 1.272 . S
O41 Co33 2.135 . S
Co42 O43 2.216 1_565 S
Co42 O44 2.091 1_565 S
Co42 O46 2.004 . S
Co42 O52 2.021 . S
Co42 O54 2.137 1_565 S
Co42 O55 2.244 . S
O43 Co42 2.216 1_545 S
O43 C50 1.247 . S
O44 Co42 2.091 1_545 S
O44 C50 1.261 . S
C45 O54 1.247 1_565 S
C45 O55 1.272 . S
O46 Co42 2.004 . S
O46 C51 1.259 . S
Co47 O48 2.061 . S
Co47 O53 2.052 . S
Co47 O55 2.135 . S
O48 Co47 2.061 . S
O48 C51 1.235 . S
C49 O52 1.238 . S
C49 O53 1.241 . S
C50 O43 1.247 . S
C50 O44 1.261 . S
C51 O46 1.259 . S
C51 O48 1.235 . S
O52 Co42 2.021 . S
O52 C49 1.238 . S
O53 Co47 2.052 . S
O53 C49 1.241 . S
O54 Co42 2.137 1_545 S
O54 C45 1.247 1_545 S
O55 Co42 2.244 . S
O55 C45 1.272 . S
O55 Co47 2.135 . S
Co56 O57 2.216 . S
Co56 O58 2.091 . S
Co56 O60 2.004 . S
Co56 O66 2.021 . S
Co56 O68 2.137 . S
Co56 O69 2.244 . S
O57 Co56 2.216 . S
O57 C64 1.247 . S
O58 Co56 2.091 . S
O58 C64 1.261 . S
C59 O68 1.247 . S
C59 O69 1.272 . S
O60 Co56 2.004 . S
O60 C65 1.259 . S
Co61 O62 2.061 . S
Co61 O67 2.052 . S
Co61 O69 2.135 . S
O62 Co61 2.061 . S
O62 C65 1.235 . S
C63 O66 1.238 . S
C63 O67 1.241 . S
C64 O57 1.247 . S
C64 O58 1.261 . S
C65 O60 1.259 . S
C65 O62 1.235 . S
O66 Co56 2.021 . S
O66 C63 1.238 . S
O67 Co61 2.052 . S
O67 C63 1.241 . S
O68 Co56 2.137 . S
O68 C59 1.247 . S
O69 Co56 2.244 . S
O69 C59 1.272 . S
O69 Co61 2.135 . S
Co70 O71 2.216 . S
Co70 O72 2.091 . S
Co70 O74 2.004 . S
Co70 O80 2.021 . S
Co70 O82 2.137 . S
Co70 O83 2.244 . S
O71 Co70 2.216 . S
O71 C78 1.247 . S
O72 Co70 2.091 . S
O72 C78 1.261 . S
C73 O82 1.247 . S
C73 O83 1.272 . S
O74 Co70 2.004 . S
O74 C79 1.259 . S
Co75 O76 2.061 . S
Co75 O81 2.052 . S
Co75 O83 2.135 . S
O76 Co75 2.061 . S
O76 C79 1.235 . S
C77 O80 1.238 . S
C77 O81 1.241 . S
C78 O71 1.247 . S
C78 O72 1.261 . S
C79 O74 1.259 . S
C79 O76 1.235 . S
O80 Co70 2.021 . S
O80 C77 1.238 . S
O81 Co75 2.052 . S
O81 C77 1.241 . S
O82 Co70 2.137 . S
O82 C73 1.247 . S
O83 Co70 2.244 . S
O83 C73 1.272 . S
O83 Co75 2.135 . S
Co84 O85 2.216 1_655 S
Co84 O86 2.091 1_655 S
Co84 O88 2.004 . S
Co84 O94 2.021 . S
Co84 O96 2.137 1_655 S
Co84 O97 2.244 . S
O85 Co84 2.216 1_455 S
O85 C92 1.247 . S
O86 Co84 2.091 1_455 S
O86 C92 1.261 . S
C87 O96 1.247 1_655 S
C87 O97 1.272 . S
O88 Co84 2.004 . S
O88 C93 1.259 . S
Co89 O90 2.061 . S
Co89 O95 2.052 . S
Co89 O97 2.135 . S
O90 Co89 2.061 . S
O90 C93 1.235 . S
C91 O94 1.238 . S
C91 O95 1.241 . S
C92 O85 1.247 . S
C92 O86 1.261 . S
C93 O88 1.259 . S
C93 O90 1.235 . S
O94 Co84 2.021 . S
O94 C91 1.238 . S
O95 Co89 2.052 . S
O95 C91 1.241 . S
O96 Co84 2.137 1_455 S
O96 C87 1.247 1_455 S
O97 Co84 2.244 . S
O97 C87 1.272 . S
O97 Co89 2.135 . S
Co98 O99 2.216 1_565 S
Co98 O100 2.091 1_565 S
Co98 O102 2.004 . S
Co98 O108 2.021 . S
Co98 O110 2.137 1_565 S
Co98 O111 2.244 . S
O99 Co98 2.216 1_545 S
O99 C106 1.247 . S
O100 Co98 2.091 1_545 S
O100 C106 1.261 . S
C101 O110 1.247 1_565 S
C101 O111 1.272 . S
O102 Co98 2.004 . S
O102 C107 1.259 . S
Co103 O104 2.061 . S
Co103 O109 2.052 . S
Co103 O111 2.135 . S
O104 Co103 2.061 . S
O104 C107 1.235 . S
C105 O108 1.238 . S
C105 O109 1.241 . S
C106 O99 1.247 . S
C106 O100 1.261 . S
C107 O102 1.259 . S
C107 O104 1.235 . S
O108 Co98 2.021 . S
O108 C105 1.238 . S
O109 Co103 2.052 . S
O109 C105 1.241 . S
O110 Co98 2.137 1_545 S
O110 C101 1.247 1_545 S
O111 Co98 2.244 . S
O111 C101 1.272 . S
O111 Co103 2.135 . S
Co112 O113 2.216 . S
Co112 O114 2.091 . S
Co112 O116 2.004 . S
Co112 O122 2.021 . S
Co112 O124 2.137 . S
Co112 O125 2.244 . S
O113 Co112 2.216 . S
O113 C120 1.247 . S
O114 Co112 2.091 . S
O114 C120 1.261 . S
C115 O124 1.247 . S
C115 O125 1.272 . S
O116 Co112 2.004 . S
O116 C121 1.259 . S
Co117 O118 2.061 . S
Co117 O123 2.052 . S
Co117 O125 2.135 . S
O118 Co117 2.061 . S
O118 C121 1.235 . S
C119 O122 1.238 . S
C119 O123 1.241 . S
C120 O113 1.247 . S
C120 O114 1.261 . S
C121 O116 1.259 . S
C121 O118 1.235 . S
O122 Co112 2.021 . S
O122 C119 1.238 . S
O123 Co117 2.052 . S
O123 C119 1.241 . S
O124 Co112 2.137 . S
O124 C115 1.247 . S
O125 Co112 2.244 . S
O125 C115 1.272 . S
O125 Co117 2.135 . S
Co126 O127 2.216 . S
Co126 O128 2.091 . S
Co126 O130 2.004 . S
Co126 O136 2.021 . S
Co126 O138 2.137 . S
Co126 O139 2.244 . S
O127 Co126 2.216 . S
O127 C134 1.247 . S
O128 Co126 2.091 . S
O128 C134 1.261 . S
C129 O138 1.247 . S
C129 O139 1.272 . S
O130 Co126 2.004 . S
O130 C135 1.259 . S
Co131 O132 2.061 . S
Co131 O137 2.052 . S
Co131 O139 2.135 . S
O132 Co131 2.061 . S
O132 C135 1.235 . S
C133 O136 1.238 . S
C133 O137 1.241 . S
C134 O127 1.247 . S
C134 O128 1.261 . S
C135 O130 1.259 . S
C135 O132 1.235 . S
O136 Co126 2.021 . S
O136 C133 1.238 . S
O137 Co131 2.052 . S
O137 C133 1.241 . S
O138 Co126 2.137 . S
O138 C129 1.247 . S
O139 Co126 2.244 . S
O139 C129 1.272 . S
O139 Co131 2.135 . S
Co140 O141 2.216 1_455 S
Co140 O142 2.091 1_455 S
Co140 O144 2.004 . S
Co140 O150 2.021 . S
Co140 O152 2.137 1_455 S
Co140 O153 2.244 . S
O141 Co140 2.216 1_655 S
O141 C148 1.247 . S
O142 Co140 2.091 1_655 S
O142 C148 1.261 . S
C143 O152 1.247 1_455 S
C143 O153 1.272 . S
O144 Co140 2.004 . S
O144 C149 1.259 . S
Co145 O146 2.061 . S
Co145 O151 2.052 . S
Co145 O153 2.135 . S
O146 Co145 2.061 . S
O146 C149 1.235 . S
C147 O150 1.238 . S
C147 O151 1.241 . S
C148 O141 1.247 . S
C148 O142 1.261 . S
C149 O144 1.259 . S
C149 O146 1.235 . S
O150 Co140 2.021 . S
O150 C147 1.238 . S
O151 Co145 2.052 . S
O151 C147 1.241 . S
O152 Co140 2.137 1_655 S
O152 C143 1.247 1_655 S
O153 Co140 2.244 . S
O153 C143 1.272 . S
O153 Co145 2.135 . S
Co154 O155 2.216 1_545 S
Co154 O156 2.091 1_545 S
Co154 O158 2.004 . S
Co154 O164 2.021 . S
Co154 O166 2.137 1_545 S
Co154 O167 2.244 . S
O155 Co154 2.216 1_565 S
O155 C162 1.247 . S
O156 Co154 2.091 1_565 S
O156 C162 1.261 . S
C157 O166 1.247 1_545 S
C157 O167 1.272 . S
O158 Co154 2.004 . S
O158 C163 1.259 . S
Co159 O160 2.061 . S
Co159 O165 2.052 . S
Co159 O167 2.135 . S
O160 Co159 2.061 . S
O160 C163 1.235 . S
C161 O164 1.238 . S
C161 O165 1.241 . S
C162 O155 1.247 . S
C162 O156 1.261 . S
C163 O158 1.259 . S
C163 O160 1.235 . S
O164 Co154 2.021 . S
O164 C161 1.238 . S
O165 Co159 2.052 . S
O165 C161 1.241 . S
O166 Co154 2.137 1_565 S
O166 C157 1.247 1_565 S
O167 Co154 2.244 . S
O167 C157 1.272 . S
O167 Co159 2.135 . S
Co168 O169 2.216 . S
Co168 O170 2.091 . S
Co168 O172 2.004 . S
Co168 O178 2.021 . S
Co168 O180 2.137 . S
Co168 O181 2.244 . S
O169 Co168 2.216 . S
O169 C176 1.247 . S
O170 Co168 2.091 . S
O170 C176 1.261 . S
C171 O180 1.247 . S
C171 O181 1.272 . S
O172 Co168 2.004 . S
O172 C177 1.259 . S
Co173 O174 2.061 . S
Co173 O179 2.052 . S
Co173 O181 2.135 . S
O174 Co173 2.061 . S
O174 C177 1.235 . S
C175 O178 1.238 . S
C175 O179 1.241 . S
C176 O169 1.247 . S
C176 O170 1.261 . S
C177 O172 1.259 . S
C177 O174 1.235 . S
O178 Co168 2.021 . S
O178 C175 1.238 . S
O179 Co173 2.052 . S
O179 C175 1.241 . S
O180 Co168 2.137 . S
O180 C171 1.247 . S
O181 Co168 2.244 . S
O181 C171 1.272 . S
O181 Co173 2.135 . S
Co182 O183 2.216 . S
Co182 O184 2.091 . S
Co182 O186 2.004 . S
Co182 O192 2.021 . S
Co182 O194 2.137 . S
Co182 O195 2.244 . S
O183 Co182 2.216 . S
O183 C190 1.247 . S
O184 Co182 2.091 . S
O184 C190 1.261 . S
C185 O194 1.247 . S
C185 O195 1.272 . S
O186 Co182 2.004 . S
O186 C191 1.259 . S
Co187 O188 2.061 . S
Co187 O193 2.052 . S
Co187 O195 2.135 . S
O188 Co187 2.061 . S
O188 C191 1.235 . S
C189 O192 1.238 . S
C189 O193 1.241 . S
C190 O183 1.247 . S
C190 O184 1.261 . S
C191 O186 1.259 . S
C191 O188 1.235 . S
O192 Co182 2.021 . S
O192 C189 1.238 . S
O193 Co187 2.052 . S
O193 C189 1.241 . S
O194 Co182 2.137 . S
O194 C185 1.247 . S
O195 Co182 2.244 . S
O195 C185 1.272 . S
O195 Co187 2.135 . S
Co196 O197 2.216 1_455 S
Co196 O198 2.091 1_455 S
Co196 O200 2.004 . S
Co196 O206 2.021 . S
Co196 O208 2.137 1_455 S
Co196 O209 2.244 . S
O197 Co196 2.216 1_655 S
O197 C204 1.247 . S
O198 Co196 2.091 1_655 S
O198 C204 1.261 . S
C199 O208 1.247 1_455 S
C199 O209 1.272 . S
O200 Co196 2.004 . S
O200 C205 1.259 . S
Co201 O202 2.061 . S
Co201 O207 2.052 . S
Co201 O209 2.135 . S
O202 Co201 2.061 . S
O202 C205 1.235 . S
C203 O206 1.238 . S
C203 O207 1.241 . S
C204 O197 1.247 . S
C204 O198 1.261 . S
C205 O200 1.259 . S
C205 O202 1.235 . S
O206 Co196 2.021 . S
O206 C203 1.238 . S
O207 Co201 2.052 . S
O207 C203 1.241 . S
O208 Co196 2.137 1_655 S
O208 C199 1.247 1_655 S
O209 Co196 2.244 . S
O209 C199 1.272 . S
O209 Co201 2.135 . S
Co210 O211 2.216 1_545 S
Co210 O212 2.091 1_545 S
Co210 O214 2.004 . S
Co210 O220 2.021 . S
Co210 O222 2.137 1_545 S
Co210 O223 2.244 . S
O211 Co210 2.216 1_565 S
O211 C218 1.247 . S
O212 Co210 2.091 1_565 S
O212 C218 1.261 . S
C213 O222 1.247 1_545 S
C213 O223 1.272 . S
O214 Co210 2.004 . S
O214 C219 1.259 . S
Co215 O216 2.061 . S
Co215 O221 2.052 . S
Co215 O223 2.135 . S
O216 Co215 2.061 . S
O216 C219 1.235 . S
C217 O220 1.238 . S
C217 O221 1.241 . S
C218 O211 1.247 . S
C218 O212 1.261 . S
C219 O214 1.259 . S
C219 O216 1.235 . S
O220 Co210 2.021 . S
O220 C217 1.238 . S
O221 Co215 2.052 . S
O221 C217 1.241 . S
O222 Co210 2.137 1_565 S
O222 C213 1.247 1_565 S
O223 Co210 2.244 . S
O223 C213 1.272 . S
O223 Co215 2.135 . S
C224 C225 1.369 . S
C224 C226 1.419 . S
C224 H228 0.930 . S
C225 C224 1.369 . S
C225 C234 1.429 . S
C226 C224 1.419 . S
C226 C227 1.363 . S
C226 H229 0.929 . S
C227 C226 1.363 . S
C227 C233 1.428 . S
H228 C224 0.930 . S
H229 C226 0.929 . S
S230 N231 1.613 . S
S230 N232 1.610 . S
N231 S230 1.613 . S
N231 C234 1.350 . S
N232 S230 1.610 . S
N232 C233 1.351 . S
C233 C227 1.428 . S
C233 N232 1.351 . S
C233 C234 1.434 . S
C234 C225 1.429 . S
C234 N231 1.350 . S
C234 C233 1.434 . S
C235 C236 1.369 . S
C235 C237 1.419 . S
C235 H239 0.930 . S
C236 C235 1.369 . S
C236 C245 1.429 . S
C237 C235 1.419 . S
C237 C238 1.363 . S
C237 H240 0.929 . S
C238 C237 1.363 . S
C238 C244 1.428 . S
H239 C235 0.930 . S
H240 C237 0.929 . S
S241 N242 1.613 . S
S241 N243 1.610 . S
N242 S241 1.613 . S
N242 C245 1.350 . S
N243 S241 1.610 . S
N243 C244 1.351 . S
C244 C238 1.428 . S
C244 N243 1.351 . S
C244 C245 1.434 . S
C245 C236 1.429 . S
C245 N242 1.350 . S
C245 C244 1.434 . S
C246 C247 1.369 . S
C246 C248 1.419 . S
C246 H250 0.930 . S
C247 C246 1.369 . S
C247 C256 1.429 . S
C248 C246 1.419 . S
C248 C249 1.363 . S
C248 H251 0.929 . S
C249 C248 1.363 . S
C249 C255 1.428 . S
H250 C246 0.930 . S
H251 C248 0.929 . S
S252 N253 1.613 . S
S252 N254 1.610 . S
N253 S252 1.613 . S
N253 C256 1.350 . S
N254 S252 1.610 . S
N254 C255 1.351 . S
C255 C249 1.428 . S
C255 N254 1.351 . S
C255 C256 1.434 . S
C256 C247 1.429 . S
C256 N253 1.350 . S
C256 C255 1.434 . S
C257 C258 1.369 . S
C257 C259 1.419 . S
C257 H261 0.930 . S
C258 C257 1.369 . S
C258 C267 1.429 . S
C259 C257 1.419 . S
C259 C260 1.363 . S
C259 H262 0.929 . S
C260 C259 1.363 . S
C260 C266 1.428 . S
H261 C257 0.930 . S
H262 C259 0.929 . S
S263 N264 1.613 . S
S263 N265 1.610 . S
N264 S263 1.613 . S
N264 C267 1.350 . S
N265 S263 1.610 . S
N265 C266 1.351 . S
C266 C260 1.428 . S
C266 N265 1.351 . S
C266 C267 1.434 . S
C267 C258 1.429 . S
C267 N264 1.350 . S
C267 C266 1.434 . S
C268 C269 1.369 . S
C268 C270 1.419 . S
C268 H272 0.930 . S
C269 C268 1.369 . S
C269 C278 1.429 . S
C270 C268 1.419 . S
C270 C271 1.363 . S
C270 H273 0.929 . S
C271 C270 1.363 . S
C271 C277 1.428 . S
H272 C268 0.930 . S
H273 C270 0.929 . S
S274 N275 1.613 . S
S274 N276 1.610 . S
N275 S274 1.613 . S
N275 C278 1.350 . S
N276 S274 1.610 . S
N276 C277 1.351 . S
C277 C271 1.428 . S
C277 N276 1.351 . S
C277 C278 1.434 . S
C278 C269 1.429 . S
C278 N275 1.350 . S
C278 C277 1.434 . S
C279 C280 1.369 . S
C279 C281 1.419 . S
C279 H283 0.930 . S
C280 C279 1.369 . S
C280 C289 1.429 . S
C281 C279 1.419 . S
C281 C282 1.363 . S
C281 H284 0.929 . S
C282 C281 1.363 . S
C282 C288 1.428 . S
H283 C279 0.930 . S
H284 C281 0.929 . S
S285 N286 1.613 . S
S285 N287 1.610 . S
N286 S285 1.613 . S
N286 C289 1.350 . S
N287 S285 1.610 . S
N287 C288 1.351 . S
C288 C282 1.428 . S
C288 N287 1.351 . S
C288 C289 1.434 . S
C289 C280 1.429 . S
C289 N286 1.350 . S
C289 C288 1.434 . S
C290 C291 1.369 . S
C290 C292 1.419 . S
C290 H294 0.930 . S
C291 C290 1.369 . S
C291 C300 1.429 . S
C292 C290 1.419 . S
C292 C293 1.363 . S
C292 H295 0.929 . S
C293 C292 1.363 . S
C293 C299 1.428 . S
H294 C290 0.930 . S
H295 C292 0.929 . S
S296 N297 1.613 . S
S296 N298 1.610 . S
N297 S296 1.613 . S
N297 C300 1.350 . S
N298 S296 1.610 . S
N298 C299 1.351 . S
C299 C293 1.428 . S
C299 N298 1.351 . S
C299 C300 1.434 . S
C300 C291 1.429 . S
C300 N297 1.350 . S
C300 C299 1.434 . S
C301 C302 1.369 . S
C301 C303 1.419 . S
C301 H305 0.930 . S
C302 C301 1.369 . S
C302 C311 1.429 . S
C303 C301 1.419 . S
C303 C304 1.363 . S
C303 H306 0.929 . S
C304 C303 1.363 . S
C304 C310 1.428 . S
H305 C301 0.930 . S
H306 C303 0.929 . S
S307 N308 1.613 . S
S307 N309 1.610 . S
N308 S307 1.613 . S
N308 C311 1.350 . S
N309 S307 1.610 . S
N309 C310 1.351 . S
C310 C304 1.428 . S
C310 N309 1.351 . S
C310 C311 1.434 . S
C311 C302 1.429 . S
C311 N308 1.350 . S
C311 C310 1.434 . S
C312 C313 1.369 . S
C312 C314 1.419 . S
C312 H316 0.930 . S
C313 C312 1.369 . S
C313 C322 1.429 . S
C314 C312 1.419 . S
C314 C315 1.363 . S
C314 H317 0.929 . S
C315 C314 1.363 . S
C315 C321 1.428 . S
H316 C312 0.930 . S
H317 C314 0.929 . S
S318 N319 1.613 . S
S318 N320 1.610 . S
N319 S318 1.613 . S
N319 C322 1.350 . S
N320 S318 1.610 . S
N320 C321 1.351 . S
C321 C315 1.428 . S
C321 N320 1.351 . S
C321 C322 1.434 . S
C322 C313 1.429 . S
C322 N319 1.350 . S
C322 C321 1.434 . S
C323 C324 1.369 . S
C323 C325 1.419 . S
C323 H327 0.930 . S
C324 C323 1.369 . S
C324 C333 1.429 . S
C325 C323 1.419 . S
C325 C326 1.363 . S
C325 H328 0.929 . S
C326 C325 1.363 . S
C326 C332 1.428 . S
H327 C323 0.930 . S
H328 C325 0.929 . S
S329 N330 1.613 . S
S329 N331 1.610 . S
N330 S329 1.613 . S
N330 C333 1.350 . S
N331 S329 1.610 . S
N331 C332 1.351 . S
C332 C326 1.428 . S
C332 N331 1.351 . S
C332 C333 1.434 . S
C333 C324 1.429 . S
C333 N330 1.350 . S
C333 C332 1.434 . S
C334 C335 1.369 . S
C334 C336 1.419 . S
C334 H338 0.930 . S
C335 C334 1.369 . S
C335 C344 1.429 . S
C336 C334 1.419 . S
C336 C337 1.363 . S
C336 H339 0.929 . S
C337 C336 1.363 . S
C337 C343 1.428 . S
H338 C334 0.930 . S
H339 C336 0.929 . S
S340 N341 1.613 . S
S340 N342 1.610 . S
N341 S340 1.613 . S
N341 C344 1.350 . S
N342 S340 1.610 . S
N342 C343 1.351 . S
C343 C337 1.428 . S
C343 N342 1.351 . S
C343 C344 1.434 . S
C344 C335 1.429 . S
C344 N341 1.350 . S
C344 C343 1.434 . S
C345 C346 1.369 . S
C345 C347 1.419 . S
C345 H349 0.930 . S
C346 C345 1.369 . S
C346 C355 1.429 . S
C347 C345 1.419 . S
C347 C348 1.363 . S
C347 H350 0.929 . S
C348 C347 1.363 . S
C348 C354 1.428 . S
H349 C345 0.930 . S
H350 C347 0.929 . S
S351 N352 1.613 . S
S351 N353 1.610 . S
N352 S351 1.613 . S
N352 C355 1.350 . S
N353 S351 1.610 . S
N353 C354 1.351 . S
C354 C348 1.428 . S
C354 N353 1.351 . S
C354 C355 1.434 . S
C355 C346 1.429 . S
C355 N352 1.350 . S
C355 C354 1.434 . S
C356 C357 1.369 . S
C356 C358 1.419 . S
C356 H360 0.930 . S
C357 C356 1.369 . S
C357 C366 1.429 . S
C358 C356 1.419 . S
C358 C359 1.363 . S
C358 H361 0.929 . S
C359 C358 1.363 . S
C359 C365 1.428 . S
H360 C356 0.930 . S
H361 C358 0.929 . S
S362 N363 1.613 . S
S362 N364 1.610 . S
N363 S362 1.613 . S
N363 C366 1.350 . S
N364 S362 1.610 . S
N364 C365 1.351 . S
C365 C359 1.428 . S
C365 N364 1.351 . S
C365 C366 1.434 . S
C366 C357 1.429 . S
C366 N363 1.350 . S
C366 C365 1.434 . S
C367 C368 1.369 . S
C367 C369 1.419 . S
C367 H371 0.930 . S
C368 C367 1.369 . S
C368 C377 1.429 . S
C369 C367 1.419 . S
C369 C370 1.363 . S
C369 H372 0.929 . S
C370 C369 1.363 . S
C370 C376 1.428 . S
H371 C367 0.930 . S
H372 C369 0.929 . S
S373 N374 1.613 . S
S373 N375 1.610 . S
N374 S373 1.613 . S
N374 C377 1.350 . S
N375 S373 1.610 . S
N375 C376 1.351 . S
C376 C370 1.428 . S
C376 N375 1.351 . S
C376 C377 1.434 . S
C377 C368 1.429 . S
C377 N374 1.350 . S
C377 C376 1.434 . S
C378 C379 1.369 . S
C378 C380 1.419 . S
C378 H382 0.930 . S
C379 C378 1.369 . S
C379 C388 1.429 . S
C380 C378 1.419 . S
C380 C381 1.363 . S
C380 H383 0.929 . S
C381 C380 1.363 . S
C381 C387 1.428 . S
H382 C378 0.930 . S
H383 C380 0.929 . S
S384 N385 1.613 . S
S384 N386 1.610 . S
N385 S384 1.613 . S
N385 C388 1.350 . S
N386 S384 1.610 . S
N386 C387 1.351 . S
C387 C381 1.428 . S
C387 N386 1.351 . S
C387 C388 1.434 . S
C388 C379 1.429 . S
C388 N385 1.350 . S
C388 C387 1.434 . S
C389 C390 1.369 . S
C389 C391 1.419 . S
C389 H393 0.930 . S
C390 C389 1.369 . S
C390 C399 1.429 . S
C391 C389 1.419 . S
C391 C392 1.363 . S
C391 H394 0.929 . S
C392 C391 1.363 . S
C392 C398 1.428 . S
H393 C389 0.930 . S
H394 C391 0.929 . S
S395 N396 1.613 . S
S395 N397 1.610 . S
N396 S395 1.613 . S
N396 C399 1.350 . S
N397 S395 1.610 . S
N397 C398 1.351 . S
C398 C392 1.428 . S
C398 N397 1.351 . S
C398 C399 1.434 . S
C399 C390 1.429 . S
C399 N396 1.350 . S
C399 C398 1.434 . S
C400 C401 1.369 . S
C400 C402 1.419 . S
C400 H404 0.930 . S
C401 C400 1.369 . S
C401 C410 1.429 . S
C402 C400 1.419 . S
C402 C403 1.363 . S
C402 H405 0.929 . S
C403 C402 1.363 . S
C403 C409 1.428 . S
H404 C400 0.930 . S
H405 C402 0.929 . S
S406 N407 1.613 . S
S406 N408 1.610 . S
N407 S406 1.613 . S
N407 C410 1.350 . S
N408 S406 1.610 . S
N408 C409 1.351 . S
C409 C403 1.428 . S
C409 N408 1.351 . S
C409 C410 1.434 . S
C410 C401 1.429 . S
C410 N407 1.350 . S
C410 C409 1.434 . S
C411 C412 1.369 . S
C411 C413 1.419 . S
C411 H415 0.930 . S
C412 C411 1.369 . S
C412 C421 1.429 . S
C413 C411 1.419 . S
C413 C414 1.363 . S
C413 H416 0.929 . S
C414 C413 1.363 . S
C414 C420 1.428 . S
H415 C411 0.930 . S
H416 C413 0.929 . S
S417 N418 1.613 . S
S417 N419 1.610 . S
N418 S417 1.613 . S
N418 C421 1.350 . S
N419 S417 1.610 . S
N419 C420 1.351 . S
C420 C414 1.428 . S
C420 N419 1.351 . S
C420 C421 1.434 . S
C421 C412 1.429 . S
C421 N418 1.350 . S
C421 C420 1.434 . S
C422 C423 1.369 . S
C422 C424 1.419 . S
C422 H426 0.930 . S
C423 C422 1.369 . S
C423 C432 1.429 . S
C424 C422 1.419 . S
C424 C425 1.363 . S
C424 H427 0.929 . S
C425 C424 1.363 . S
C425 C431 1.428 . S
H426 C422 0.930 . S
H427 C424 0.929 . S
S428 N429 1.613 . S
S428 N430 1.610 . S
N429 S428 1.613 . S
N429 C432 1.350 . S
N430 S428 1.610 . S
N430 C431 1.351 . S
C431 C425 1.428 . S
C431 N430 1.351 . S
C431 C432 1.434 . S
C432 C423 1.429 . S
C432 N429 1.350 . S
C432 C431 1.434 . S
C433 C434 1.369 . S
C433 C435 1.419 . S
C433 H437 0.930 . S
C434 C433 1.369 . S
C434 C443 1.429 . S
C435 C433 1.419 . S
C435 C436 1.363 . S
C435 H438 0.929 . S
C436 C435 1.363 . S
C436 C442 1.428 . S
H437 C433 0.930 . S
H438 C435 0.929 . S
S439 N440 1.613 . S
S439 N441 1.610 . S
N440 S439 1.613 . S
N440 C443 1.350 . S
N441 S439 1.610 . S
N441 C442 1.351 . S
C442 C436 1.428 . S
C442 N441 1.351 . S
C442 C443 1.434 . S
C443 C434 1.429 . S
C443 N440 1.350 . S
C443 C442 1.434 . S
C444 C445 1.369 . S
C444 C446 1.419 . S
C444 H448 0.930 . S
C445 C444 1.369 . S
C445 C454 1.429 . S
C446 C444 1.419 . S
C446 C447 1.363 . S
C446 H449 0.929 . S
C447 C446 1.363 . S
C447 C453 1.428 . S
H448 C444 0.930 . S
H449 C446 0.929 . S
S450 N451 1.613 . S
S450 N452 1.610 . S
N451 S450 1.613 . S
N451 C454 1.350 . S
N452 S450 1.610 . S
N452 C453 1.351 . S
C453 C447 1.428 . S
C453 N452 1.351 . S
C453 C454 1.434 . S
C454 C445 1.429 . S
C454 N451 1.350 . S
C454 C453 1.434 . S
C455 C456 1.369 . S
C455 C457 1.419 . S
C455 H459 0.930 . S
C456 C455 1.369 . S
C456 C465 1.429 . S
C457 C455 1.419 . S
C457 C458 1.363 . S
C457 H460 0.929 . S
C458 C457 1.363 . S
C458 C464 1.428 . S
H459 C455 0.930 . S
H460 C457 0.929 . S
S461 N462 1.613 . S
S461 N463 1.610 . S
N462 S461 1.613 . S
N462 C465 1.350 . S
N463 S461 1.610 . S
N463 C464 1.351 . S
C464 C458 1.428 . S
C464 N463 1.351 . S
C464 C465 1.434 . S
C465 C456 1.429 . S
C465 N462 1.350 . S
C465 C464 1.434 . S
C466 C467 1.369 . S
C466 C468 1.419 . S
C466 H470 0.930 . S
C467 C466 1.369 . S
C467 C476 1.429 . S
C468 C466 1.419 . S
C468 C469 1.363 . S
C468 H471 0.929 . S
C469 C468 1.363 . S
C469 C475 1.428 . S
H470 C466 0.930 . S
H471 C468 0.929 . S
S472 N473 1.613 . S
S472 N474 1.610 . S
N473 S472 1.613 . S
N473 C476 1.350 . S
N474 S472 1.610 . S
N474 C475 1.351 . S
C475 C469 1.428 . S
C475 N474 1.351 . S
C475 C476 1.434 . S
C476 C467 1.429 . S
C476 N473 1.350 . S
C476 C475 1.434 . S
C477 C478 1.369 . S
C477 C479 1.419 . S
C477 H481 0.930 . S
C478 C477 1.369 . S
C478 C487 1.429 . S
C479 C477 1.419 . S
C479 C480 1.363 . S
C479 H482 0.929 . S
C480 C479 1.363 . S
C480 C486 1.428 . S
H481 C477 0.930 . S
H482 C479 0.929 . S
S483 N484 1.613 . S
S483 N485 1.610 . S
N484 S483 1.613 . S
N484 C487 1.350 . S
N485 S483 1.610 . S
N485 C486 1.351 . S
C486 C480 1.428 . S
C486 N485 1.351 . S
C486 C487 1.434 . S
C487 C478 1.429 . S
C487 N484 1.350 . S
C487 C486 1.434 . S
C488 C489 1.369 . S
C488 C490 1.419 1_554 S
C488 H492 0.930 . S
C489 C488 1.369 . S
C489 C498 1.429 . S
C490 C488 1.419 1_556 S
C490 C491 1.363 . S
C490 H493 0.929 . S
C491 C490 1.363 . S
C491 C497 1.428 . S
H492 C488 0.930 . S
H493 C490 0.929 . S
S494 N495 1.613 1_556 S
S494 N496 1.610 . S
N495 S494 1.613 1_554 S
N495 C498 1.350 . S
N496 S494 1.610 . S
N496 C497 1.351 . S
C497 C491 1.428 . S
C497 N496 1.351 . S
C497 C498 1.434 1_556 S
C498 C489 1.429 . S
C498 N495 1.350 . S
C498 C497 1.434 1_554 S
C499 C500 1.369 . S
C499 C501 1.419 . S
C499 H503 0.930 . S
C500 C499 1.369 . S
C500 C509 1.429 . S
C501 C499 1.419 . S
C501 C502 1.363 . S
C501 H504 0.929 . S
C502 C501 1.363 . S
C502 C508 1.428 . S
H503 C499 0.930 . S
H504 C501 0.929 . S
S505 N506 1.613 . S
S505 N507 1.610 . S
N506 S505 1.613 . S
N506 C509 1.350 . S
N507 S505 1.610 . S
N507 C508 1.351 . S
C508 C502 1.428 . S
C508 N507 1.351 . S
C508 C509 1.434 . S
C509 C500 1.429 . S
C509 N506 1.350 . S
C509 C508 1.434 . S
C510 C511 1.369 . S
C510 C512 1.419 1_554 S
C510 H514 0.930 . S
C511 C510 1.369 . S
C511 C520 1.429 1_655 S
C512 C510 1.419 1_556 S
C512 C513 1.363 . S
C512 H515 0.929 . S
C513 C512 1.363 . S
C513 C519 1.428 1_655 S
H514 C510 0.930 . S
H515 C512 0.929 . S
S516 N517 1.613 1_556 S
S516 N518 1.610 . S
N517 S516 1.613 1_554 S
N517 C520 1.350 . S
N518 S516 1.610 . S
N518 C519 1.351 . S
C519 C513 1.428 1_455 S
C519 N518 1.351 . S
C519 C520 1.434 1_556 S
C520 C511 1.429 1_455 S
C520 N517 1.350 . S
C520 C519 1.434 1_554 S
C521 C522 1.369 . S
C521 C523 1.419 . S
C521 H525 0.930 . S
C522 C521 1.369 . S
C522 C531 1.429 1_565 S
C523 C521 1.419 . S
C523 C524 1.363 . S
C523 H526 0.929 . S
C524 C523 1.363 . S
C524 C530 1.428 1_565 S
H525 C521 0.930 . S
H526 C523 0.929 . S
S527 N528 1.613 . S
S527 N529 1.610 . S
N528 S527 1.613 . S
N528 C531 1.350 . S
N529 S527 1.610 . S
N529 C530 1.351 . S
C530 C524 1.428 1_545 S
C530 N529 1.351 . S
C530 C531 1.434 . S
C531 C522 1.429 1_545 S
C531 N528 1.350 . S
C531 C530 1.434 . S
C532 C533 1.369 . S
C532 C534 1.419 1_556 S
C532 H536 0.930 . S
C533 C532 1.369 . S
C533 C542 1.429 . S
C534 C532 1.419 1_554 S
C534 C535 1.363 . S
C534 H537 0.929 . S
C535 C534 1.363 . S
C535 C541 1.428 . S
H536 C532 0.930 . S
H537 C534 0.929 . S
S538 N539 1.613 . S
S538 N540 1.610 1_556 S
N539 S538 1.613 . S
N539 C542 1.350 . S
N540 S538 1.610 1_554 S
N540 C541 1.351 . S
C541 C535 1.428 . S
C541 N540 1.351 . S
C541 C542 1.434 1_554 S
C542 C533 1.429 . S
C542 N539 1.350 . S
C542 C541 1.434 1_556 S
C543 C544 1.369 . S
C543 C545 1.419 . S
C543 H547 0.930 . S
C544 C543 1.369 . S
C544 C553 1.429 . S
C545 C543 1.419 . S
C545 C546 1.363 . S
C545 H548 0.929 . S
C546 C545 1.363 . S
C546 C552 1.428 . S
H547 C543 0.930 . S
H548 C545 0.929 . S
S549 N550 1.613 . S
S549 N551 1.610 . S
N550 S549 1.613 . S
N550 C553 1.350 . S
N551 S549 1.610 . S
N551 C552 1.351 . S
C552 C546 1.428 . S
C552 N551 1.351 . S
C552 C553 1.434 . S
C553 C544 1.429 . S
C553 N550 1.350 . S
C553 C552 1.434 . S
C554 C555 1.369 1_655 S
C554 C556 1.419 1_554 S
C554 H558 0.930 . S
C555 C554 1.369 1_455 S
C555 C564 1.429 . S
C556 C554 1.419 1_556 S
C556 C557 1.363 1_655 S
C556 H559 0.929 . S
C557 C556 1.363 1_455 S
C557 C563 1.428 . S
H558 C554 0.930 . S
H559 C556 0.929 . S
S560 N561 1.613 . S
S560 N562 1.610 1_554 S
N561 S560 1.613 . S
N561 C564 1.350 . S
N562 S560 1.610 1_556 S
N562 C563 1.351 . S
C563 C557 1.428 . S
C563 N562 1.351 . S
C563 C564 1.434 1_556 S
C564 C555 1.429 . S
C564 N561 1.350 . S
C564 C563 1.434 1_554 S
C565 C566 1.369 1_565 S
C565 C567 1.419 . S
C565 H569 0.930 . S
C566 C565 1.369 1_545 S
C566 C575 1.429 . S
C567 C565 1.419 . S
C567 C568 1.363 1_565 S
C567 H570 0.929 . S
C568 C567 1.363 1_545 S
C568 C574 1.428 . S
H569 C565 0.930 . S
H570 C567 0.929 . S
S571 N572 1.613 . S
S571 N573 1.610 . S
N572 S571 1.613 . S
N572 C575 1.350 . S
N573 S571 1.610 . S
N573 C574 1.351 . S
C574 C568 1.428 . S
C574 N573 1.351 . S
C574 C575 1.434 . S
C575 C566 1.429 . S
C575 N572 1.350 . S
C575 C574 1.434 . S
C225 C8 1.385 . S
C227 C106 1.384 . S
C236 C22 1.383 . S
C238 C64 1.384 . S
C247 C36 1.384 . S
C249 C78 1.384 . S
C258 C50 1.383 . S
C260 C92 1.383 . S
C269 C120 1.382 . S
C271 C218 1.383 . S
C280 C176 1.384 . S
C282 C134 1.383 . S
C291 C148 1.385 . S
C293 C190 1.384 . S
C302 C162 1.385 . S
C304 C204 1.384 . S
C313 C9 1.439 . S
C315 C133 1.471 . S
C324 C23 1.442 . S
C326 C147 1.471 . S
C335 C161 1.476 . S
C337 C37 1.444 . S
C346 C51 1.446 . S
C348 C119 1.475 . S
C357 C65 1.444 . S
C359 C217 1.477 . S
C368 C175 1.472 . S
C370 C79 1.438 . S
C379 C189 1.473 . S
C381 C93 1.437 . S
C390 C203 1.470 . S
C392 C107 1.442 . S
C401 C21 1.471 . S
C403 C121 1.439 . S
C412 C35 1.473 . S
C414 C135 1.445 . S
C423 C149 1.447 . S
C425 C49 1.475 . S
C434 C7 1.477 . S
C436 C163 1.444 . S
C445 C177 1.446 . S
C447 C105 1.473 . S
C456 C191 1.445 . S
C458 C63 1.472 . S
C467 C77 1.470 . S
C469 C205 1.439 . S
C478 C91 1.477 . S
C480 C219 1.439 . S
C489 C3 1.598 . S
C491 C59 1.599 . S
C500 C73 1.599 . S
C502 C17 1.598 . S
C511 C31 1.598 . S
C513 C87 1.599 . S
C522 C101 1.599 . S
C524 C45 1.599 . S
C533 C115 1.599 . S
C535 C171 1.599 . S
C544 C185 1.598 . S
C546 C129 1.598 . S
C555 C199 1.598 . S
C557 C143 1.598 . S
C566 C213 1.598 . S
C568 C157 1.598 . S
