# Generated by pormake.
# Topology sxi, (6)-cn, num edge types: 1
# Building blocks:
#     Node 0, Type 0, BuildingBlock: OJICUG_clean_sbu_0, # of connection points: 6
#     Node 1, Type 0, BuildingBlock: OJICUG_clean_sbu_0, # of connection points: 6
#     Node 2, Type 0, BuildingBlock: OJICUG_clean_sbu_0, # of connection points: 6
#     Node 3, Type 0, BuildingBlock: OJICUG_clean_sbu_0, # of connection points: 6
#     Node 4, Type 0, BuildingBlock: OJICUG_clean_sbu_0, # of connection points: 6
#     Node 5, Type 0, BuildingBlock: OJICUG_clean_sbu_0, # of connection points: 6
#     Node 6, Type 0, BuildingBlock: OJICUG_clean_sbu_0, # of connection points: 6
#     Node 7, Type 0, BuildingBlock: OJICUG_clean_sbu_0, # of connection points: 6
#     Node 8, Type 0, BuildingBlock: OJICUG_clean_sbu_0, # of connection points: 6
#     Node 9, Type 0, BuildingBlock: OJICUG_clean_sbu_0, # of connection points: 6
#     Node 10, Type 0, BuildingBlock: OJICUG_clean_sbu_0, # of connection points: 6
#     Node 11, Type 0, BuildingBlock: OJICUG_clean_sbu_0, # of connection points: 6
#     Node 12, Type 0, BuildingBlock: OJICUG_clean_sbu_0, # of connection points: 6
#     Node 13, Type 0, BuildingBlock: OJICUG_clean_sbu_0, # of connection points: 6
#     Node 14, Type 0, BuildingBlock: OJICUG_clean_sbu_0, # of connection points: 6
#     Node 15, Type 0, BuildingBlock: OJICUG_clean_sbu_0, # of connection points: 6
#     Node 16, Type 0, BuildingBlock: OJICUG_clean_sbu_0, # of connection points: 6
#     Node 17, Type 0, BuildingBlock: OJICUG_clean_sbu_0, # of connection points: 6
#     Node 18, Type 0, BuildingBlock: OJICUG_clean_sbu_0, # of connection points: 6
#     Node 19, Type 0, BuildingBlock: OJICUG_clean_sbu_0, # of connection points: 6
#     Node 20, Type 0, BuildingBlock: OJICUG_clean_sbu_0, # of connection points: 6
#     Node 21, Type 0, BuildingBlock: OJICUG_clean_sbu_0, # of connection points: 6
#     Node 22, Type 0, BuildingBlock: OJICUG_clean_sbu_0, # of connection points: 6
#     Node 23, Type 0, BuildingBlock: OJICUG_clean_sbu_0, # of connection points: 6
#     Edge 24, Type (0, 0), BuildingBlock: UVAHIK_clean_linker_0, # of connection points: 2
#     Edge 25, Type (0, 0), BuildingBlock: UVAHIK_clean_linker_0, # of connection points: 2
#     Edge 26, Type (0, 0), BuildingBlock: UVAHIK_clean_linker_0, # of connection points: 2
#     Edge 27, Type (0, 0), BuildingBlock: UVAHIK_clean_linker_0, # of connection points: 2
#     Edge 28, Type (0, 0), BuildingBlock: UVAHIK_clean_linker_0, # of connection points: 2
#     Edge 29, Type (0, 0), BuildingBlock: UVAHIK_clean_linker_0, # of connection points: 2
#     Edge 30, Type (0, 0), BuildingBlock: UVAHIK_clean_linker_0, # of connection points: 2
#     Edge 31, Type (0, 0), BuildingBlock: UVAHIK_clean_linker_0, # of connection points: 2
#     Edge 32, Type (0, 0), BuildingBlock: UVAHIK_clean_linker_0, # of connection points: 2
#     Edge 33, Type (0, 0), BuildingBlock: UVAHIK_clean_linker_0, # of connection points: 2
#     Edge 34, Type (0, 0), BuildingBlock: UVAHIK_clean_linker_0, # of connection points: 2
#     Edge 35, Type (0, 0), BuildingBlock: UVAHIK_clean_linker_0, # of connection points: 2
#     Edge 36, Type (0, 0), BuildingBlock: UVAHIK_clean_linker_0, # of connection points: 2
#     Edge 37, Type (0, 0), BuildingBlock: UVAHIK_clean_linker_0, # of connection points: 2
#     Edge 38, Type (0, 0), BuildingBlock: UVAHIK_clean_linker_0, # of connection points: 2
#     Edge 39, Type (0, 0), BuildingBlock: UVAHIK_clean_linker_0, # of connection points: 2
#     Edge 40, Type (0, 0), BuildingBlock: UVAHIK_clean_linker_0, # of connection points: 2
#     Edge 41, Type (0, 0), BuildingBlock: UVAHIK_clean_linker_0, # of connection points: 2
#     Edge 42, Type (0, 0), BuildingBlock: UVAHIK_clean_linker_0, # of connection points: 2
#     Edge 43, Type (0, 0), BuildingBlock: UVAHIK_clean_linker_0, # of connection points: 2
#     Edge 44, Type (0, 0), BuildingBlock: UVAHIK_clean_linker_0, # of connection points: 2
#     Edge 45, Type (0, 0), BuildingBlock: UVAHIK_clean_linker_0, # of connection points: 2
#     Edge 46, Type (0, 0), BuildingBlock: UVAHIK_clean_linker_0, # of connection points: 2
#     Edge 47, Type (0, 0), BuildingBlock: UVAHIK_clean_linker_0, # of connection points: 2
#     Edge 48, Type (0, 0), BuildingBlock: UVAHIK_clean_linker_0, # of connection points: 2
#     Edge 49, Type (0, 0), BuildingBlock: UVAHIK_clean_linker_0, # of connection points: 2
#     Edge 50, Type (0, 0), BuildingBlock: UVAHIK_clean_linker_0, # of connection points: 2
#     Edge 51, Type (0, 0), BuildingBlock: UVAHIK_clean_linker_0, # of connection points: 2
#     Edge 52, Type (0, 0), BuildingBlock: UVAHIK_clean_linker_0, # of connection points: 2
#     Edge 53, Type (0, 0), BuildingBlock: UVAHIK_clean_linker_0, # of connection points: 2
#     Edge 54, Type (0, 0), BuildingBlock: UVAHIK_clean_linker_0, # of connection points: 2
#     Edge 55, Type (0, 0), BuildingBlock: UVAHIK_clean_linker_0, # of connection points: 2
#     Edge 56, Type (0, 0), BuildingBlock: UVAHIK_clean_linker_0, # of connection points: 2
#     Edge 57, Type (0, 0), BuildingBlock: UVAHIK_clean_linker_0, # of connection points: 2
#     Edge 58, Type (0, 0), BuildingBlock: UVAHIK_clean_linker_0, # of connection points: 2
#     Edge 59, Type (0, 0), BuildingBlock: UVAHIK_clean_linker_0, # of connection points: 2
#     Edge 60, Type (0, 0), BuildingBlock: UVAHIK_clean_linker_0, # of connection points: 2
#     Edge 61, Type (0, 0), BuildingBlock: UVAHIK_clean_linker_0, # of connection points: 2
#     Edge 62, Type (0, 0), BuildingBlock: UVAHIK_clean_linker_0, # of connection points: 2
#     Edge 63, Type (0, 0), BuildingBlock: UVAHIK_clean_linker_0, # of connection points: 2
#     Edge 64, Type (0, 0), BuildingBlock: UVAHIK_clean_linker_0, # of connection points: 2
#     Edge 65, Type (0, 0), BuildingBlock: UVAHIK_clean_linker_0, # of connection points: 2
#     Edge 66, Type (0, 0), BuildingBlock: UVAHIK_clean_linker_0, # of connection points: 2
#     Edge 67, Type (0, 0), BuildingBlock: UVAHIK_clean_linker_0, # of connection points: 2
#     Edge 68, Type (0, 0), BuildingBlock: UVAHIK_clean_linker_0, # of connection points: 2
#     Edge 69, Type (0, 0), BuildingBlock: UVAHIK_clean_linker_0, # of connection points: 2
#     Edge 70, Type (0, 0), BuildingBlock: UVAHIK_clean_linker_0, # of connection points: 2
#     Edge 71, Type (0, 0), BuildingBlock: UVAHIK_clean_linker_0, # of connection points: 2
#     Edge 72, Type (0, 0), BuildingBlock: UVAHIK_clean_linker_0, # of connection points: 2
#     Edge 73, Type (0, 0), BuildingBlock: UVAHIK_clean_linker_0, # of connection points: 2
#     Edge 74, Type (0, 0), BuildingBlock: UVAHIK_clean_linker_0, # of connection points: 2
#     Edge 75, Type (0, 0), BuildingBlock: UVAHIK_clean_linker_0, # of connection points: 2
#     Edge 76, Type (0, 0), BuildingBlock: UVAHIK_clean_linker_0, # of connection points: 2
#     Edge 77, Type (0, 0), BuildingBlock: UVAHIK_clean_linker_0, # of connection points: 2
#     Edge 78, Type (0, 0), BuildingBlock: UVAHIK_clean_linker_0, # of connection points: 2
#     Edge 79, Type (0, 0), BuildingBlock: UVAHIK_clean_linker_0, # of connection points: 2
#     Edge 80, Type (0, 0), BuildingBlock: UVAHIK_clean_linker_0, # of connection points: 2
#     Edge 81, Type (0, 0), BuildingBlock: UVAHIK_clean_linker_0, # of connection points: 2
#     Edge 82, Type (0, 0), BuildingBlock: UVAHIK_clean_linker_0, # of connection points: 2
#     Edge 83, Type (0, 0), BuildingBlock: UVAHIK_clean_linker_0, # of connection points: 2
#     Edge 84, Type (0, 0), BuildingBlock: UVAHIK_clean_linker_0, # of connection points: 2
#     Edge 85, Type (0, 0), BuildingBlock: UVAHIK_clean_linker_0, # of connection points: 2
#     Edge 86, Type (0, 0), BuildingBlock: UVAHIK_clean_linker_0, # of connection points: 2
#     Edge 87, Type (0, 0), BuildingBlock: UVAHIK_clean_linker_0, # of connection points: 2
#     Edge 88, Type (0, 0), BuildingBlock: UVAHIK_clean_linker_0, # of connection points: 2
#     Edge 89, Type (0, 0), BuildingBlock: UVAHIK_clean_linker_0, # of connection points: 2
#     Edge 90, Type (0, 0), BuildingBlock: UVAHIK_clean_linker_0, # of connection points: 2
#     Edge 91, Type (0, 0), BuildingBlock: UVAHIK_clean_linker_0, # of connection points: 2
#     Edge 92, Type (0, 0), BuildingBlock: UVAHIK_clean_linker_0, # of connection points: 2
#     Edge 93, Type (0, 0), BuildingBlock: UVAHIK_clean_linker_0, # of connection points: 2
#     Edge 94, Type (0, 0), BuildingBlock: UVAHIK_clean_linker_0, # of connection points: 2
#     Edge 95, Type (0, 0), BuildingBlock: UVAHIK_clean_linker_0, # of connection points: 2
# Relax obj value: 0.447
# Max RMSD: 0.271
# Mean RMSD: 0.271
data_MOF--net-sxi--node1-OJICUG_clean_sbu_0--edge1-UVAHIK_clean_linker_0
_symmetry_space_group_name_H-M    P1
_symmetry_Int_Tables_number       1
_symmetry_cell_setting            triclinic
loop_
_symmetry_equiv_pos_as_xyz
'x, y, z'
_cell_length_a     60.690153
_cell_length_b     60.711933
_cell_length_c     60.706621
_cell_angle_alpha  89.992072
_cell_angle_beta   89.978987
_cell_angle_gamma 89.972116
loop_
_atom_site_label
_atom_site_type_symbol
_atom_site_fract_x
_atom_site_fract_y
_atom_site_fract_z
_atom_type_partial_charge
Sc0 Sc 0.02456 0.32051 0.39645 0.0
Sc1 Sc 0.07403 0.33707 0.37128 0.0
Sc2 Sc 0.04035 0.37561 0.39839 0.0
O3 O 0.04629 0.34438 0.38871 0.0
C4 C 0.99283 0.36069 0.38371 0.0
C5 C 0.03877 0.30448 0.34941 0.0
C6 C 0.05855 0.38114 0.3488 0.0
C7 C 0.07174 0.29807 0.40542 0.0
C8 C 0.02313 0.34853 0.44037 0.0
C9 C 0.09134 0.37322 0.40549 0.0
O10 O 0.99635 0.34046 0.38798 0.0
O11 O 0.05827 0.31201 0.35097 0.0
O12 O 0.05106 0.38863 0.36695 0.0
O13 O 0.05073 0.29824 0.40581 0.0
O14 O 0.02853 0.36637 0.43078 0.0
O15 O 0.09457 0.36059 0.38907 0.0
O16 O 0.02234 0.3302 0.43034 0.0
O17 O 0.08312 0.31222 0.39488 0.0
O18 O 0.07236 0.37843 0.41239 0.0
O19 O 0.02392 0.30836 0.36353 0.0
O20 O 0.00754 0.37542 0.38558 0.0
O21 O 0.06605 0.36162 0.34679 0.0
Sc22 Sc 0.92568 0.77008 0.63828 0.0
Sc23 Sc 0.90514 0.82019 0.61687 0.0
Sc24 Sc 0.86929 0.78078 0.63999 0.0
O25 O 0.90009 0.79038 0.63168 0.0
C26 C 0.88903 0.73628 0.62157 0.0
C27 C 0.94082 0.78965 0.59255 0.0
C28 C 0.86237 0.80297 0.59239 0.0
C29 C 0.94423 0.81782 0.65139 0.0
C30 C 0.89688 0.7628 0.68121 0.0
C31 C 0.86749 0.83116 0.65243 0.0
O32 O 0.9088 0.74133 0.62629 0.0
O33 O 0.93081 0.80796 0.59479 0.0
O34 O 0.85595 0.79228 0.60924 0.0
O35 O 0.94511 0.79687 0.65092 0.0
O36 O 0.87891 0.76803 0.6718 0.0
O37 O 0.88085 0.83726 0.6374 0.0
O38 O 0.91535 0.76345 0.67144 0.0
O39 O 0.9299 0.82894 0.6408 0.0
O40 O 0.86287 0.81115 0.65604 0.0
O41 O 0.93904 0.77392 0.60611 0.0
O42 O 0.87291 0.74917 0.62493 0.0
O43 O 0.88071 0.8132 0.59173 0.0
Sc44 Sc 0.47844 0.67701 0.89472 0.0
Sc45 Sc 0.42856 0.65855 0.87157 0.0
Sc46 Sc 0.46335 0.62202 0.89959 0.0
O47 O 0.45682 0.65258 0.88861 0.0
C48 C 0.51024 0.63663 0.88292 0.0
C49 C 0.46261 0.69115 0.84772 0.0
C50 C 0.44442 0.61394 0.85073 0.0
C51 C 0.43102 0.69895 0.90394 0.0
C52 C 0.48108 0.65114 0.93987 0.0
C53 C 0.41259 0.62363 0.90775 0.0
O54 O 0.50681 0.65701 0.88654 0.0
O55 O 0.44328 0.68344 0.85026 0.0
O56 O 0.45206 0.6075 0.8692 0.0
O57 O 0.45205 0.69928 0.90356 0.0
O58 O 0.47579 0.63287 0.9311 0.0
O59 O 0.40886 0.63517 0.89062 0.0
O60 O 0.48153 0.66905 0.92908 0.0
O61 O 0.41961 0.68402 0.89455 0.0
O62 O 0.43186 0.61959 0.91463 0.0
O63 O 0.47811 0.68755 0.86121 0.0
O64 O 0.49563 0.62199 0.88579 0.0
O65 O 0.43658 0.63322 0.84776 0.0
Sc66 Sc 0.56898 0.23071 0.14028 0.0
Sc67 Sc 0.59014 0.18038 0.11966 0.0
Sc68 Sc 0.62548 0.22022 0.14275 0.0
O69 O 0.5948 0.2104 0.1342 0.0
C70 C 0.60566 0.26425 0.12298 0.0
C71 C 0.55504 0.21042 0.09425 0.0
C72 C 0.63346 0.19723 0.09576 0.0
C73 C 0.55033 0.18304 0.15362 0.0
C74 C 0.59738 0.23873 0.18336 0.0
C75 C 0.62701 0.16999 0.15613 0.0
O76 O 0.58578 0.25932 0.12748 0.0
O77 O 0.56554 0.19241 0.09648 0.0
O78 O 0.63942 0.20853 0.11236 0.0
O79 O 0.54961 0.20402 0.15355 0.0
O80 O 0.6154 0.23315 0.17428 0.0
O81 O 0.6136 0.16367 0.14126 0.0
O82 O 0.57906 0.23824 0.17333 0.0
O83 O 0.56456 0.17202 0.14281 0.0
O84 O 0.63193 0.19003 0.15919 0.0
O85 O 0.55577 0.22594 0.10816 0.0
O86 O 0.62174 0.25155 0.12716 0.0
O87 O 0.61531 0.18671 0.09513 0.0
Sc88 Sc 0.53432 0.11996 0.60383 0.0
Sc89 Sc 0.57055 0.15802 0.62818 0.0
Sc90 Sc 0.51939 0.17538 0.60634 0.0
O91 O 0.54142 0.15119 0.61279 0.0
C92 C 0.51462 0.14671 0.56293 0.0
C93 C 0.58489 0.12145 0.59281 0.0
C94 C 0.56617 0.19678 0.59351 0.0
C95 C 0.55555 0.11428 0.6521 0.0
C96 C 0.48825 0.13609 0.62223 0.0
C97 C 0.53767 0.19173 0.65216 0.0
O98 O 0.52159 0.12911 0.57187 0.0
O99 O 0.58967 0.13472 0.60835 0.0
O100 O 0.54515 0.19656 0.59378 0.0
O101 O 0.54607 0.10712 0.6348 0.0
O102 O 0.49178 0.15638 0.61827 0.0
O103 O 0.5566 0.18299 0.64995 0.0
O104 O 0.5023 0.12114 0.61827 0.0
O105 O 0.56436 0.13331 0.65316 0.0
O106 O 0.52213 0.18883 0.63858 0.0
O107 O 0.56532 0.11593 0.58828 0.0
O108 O 0.51336 0.16488 0.57315 0.0
O109 O 0.57796 0.18311 0.60424 0.0
Sc110 Sc 0.12762 0.28165 0.86352 0.0
Sc111 Sc 0.08977 0.32176 0.88229 0.0
Sc112 Sc 0.07126 0.27156 0.85918 0.0
O113 O 0.09617 0.29178 0.86832 0.0
C114 C 0.10544 0.26512 0.81943 0.0
C115 C 0.13193 0.33298 0.85326 0.0
C116 C 0.05418 0.31871 0.84355 0.0
C117 C 0.12894 0.30202 0.91176 0.0
C118 C 0.10461 0.23679 0.87831 0.0
C119 C 0.05201 0.29217 0.90351 0.0
O120 O 0.12188 0.27364 0.8293 0.0
O121 O 0.1138 0.33871 0.86203 0.0
O122 O 0.05498 0.29783 0.84214 0.0
O123 O 0.1353 0.28836 0.89722 0.0
O124 O 0.08497 0.24337 0.87551 0.0
O125 O 0.06431 0.30911 0.90401 0.0
O126 O 0.12121 0.24842 0.87331 0.0
O127 O 0.11366 0.31613 0.90855 0.0
O128 O 0.05282 0.27779 0.88843 0.0
O129 O 0.13901 0.31336 0.85341 0.0
O130 O 0.08681 0.26245 0.82862 0.0
O131 O 0.06546 0.32971 0.85744 0.0
Sc132 Sc 0.96485 0.87601 0.11151 0.0
Sc133 Sc 0.92763 0.83684 0.1335 0.0
Sc134 Sc 0.97771 0.82006 0.10864 0.0
O135 O 0.95662 0.84427 0.11788 0.0
C136 C 0.98098 0.85285 0.06753 0.0
C137 C 0.91308 0.87733 0.10333 0.0
C138 C 0.93056 0.80053 0.09555 0.0
C139 C 0.94618 0.87797 0.16069 0.0
C140 C 0.0113 0.856 0.1257 0.0
C141 C 0.96011 0.8011 0.15428 0.0
O142 O 0.97276 0.86943 0.07741 0.0
O143 O 0.90852 0.86007 0.11423 0.0
O144 O 0.95141 0.80172 0.09371 0.0
O145 O 0.95809 0.885 0.14495 0.0
O146 O 0.00599 0.83598 0.12282 0.0
O147 O 0.94221 0.81199 0.15473 0.0
O148 O 0.99844 0.87184 0.12128 0.0
O149 O 0.93361 0.8612 0.15913 0.0
O150 O 0.97415 0.80277 0.13894 0.0
O151 O 0.93242 0.88483 0.10122 0.0
O152 O 0.98432 0.83451 0.07701 0.0
O153 O 0.91956 0.81211 0.1092 0.0
Sc154 Sc 0.37597 0.72626 0.36272 0.0
Sc155 Sc 0.40743 0.67968 0.37793 0.0
Sc156 Sc 0.43323 0.72804 0.35742 0.0
O157 O 0.4056 0.71126 0.36608 0.0
C158 C 0.40064 0.74365 0.31958 0.0
C159 C 0.36607 0.67782 0.34515 0.0
C160 C 0.44392 0.67974 0.33978 0.0
C161 C 0.36952 0.70033 0.40807 0.0
C162 C 0.4051 0.76521 0.38164 0.0
C163 C 0.44875 0.70275 0.40081 0.0
O164 O 0.38329 0.73963 0.33059 0.0
O165 O 0.38138 0.66823 0.3559 0.0
O166 O 0.44601 0.70056 0.33941 0.0
O167 O 0.36498 0.71547 0.39442 0.0
O168 O 0.42338 0.75768 0.37465 0.0
O169 O 0.43401 0.68779 0.40076 0.0
O170 O 0.38688 0.75549 0.37857 0.0
O171 O 0.38415 0.68574 0.40447 0.0
O172 O 0.45009 0.71776 0.38636 0.0
O173 O 0.3624 0.69835 0.34647 0.0
O174 O 0.41982 0.74002 0.32702 0.0
O175 O 0.43094 0.66983 0.35295 0.0
Sc176 Sc 0.39456 0.03566 0.37395 0.0
Sc177 Sc 0.36776 0.07136 0.33728 0.0
Sc178 Sc 0.39051 0.0212 0.31864 0.0
O179 O 0.38426 0.04271 0.34324 0.0
C180 C 0.43514 0.01774 0.3452 0.0
C181 C 0.40401 0.08633 0.37247 0.0
C182 C 0.40062 0.06865 0.29714 0.0
C183 C 0.34587 0.0554 0.38155 0.0
C184 C 0.37825 0.98893 0.3585 0.0
C185 C 0.34355 0.03769 0.30456 0.0
O186 O 0.42625 0.02326 0.36336 0.0
O187 O 0.38735 0.09078 0.36053 0.0
O188 O 0.40019 0.04764 0.29671 0.0
O189 O 0.36391 0.04693 0.38821 0.0
O190 O 0.38192 0.99264 0.33818 0.0
O191 O 0.34608 0.05692 0.31253 0.0
O192 O 0.38075 0.00345 0.3733 0.0
O193 O 0.34367 0.0638 0.36243 0.0
O194 O 0.35719 0.0222 0.30763 0.0
O195 O 0.4098 0.06687 0.37711 0.0
O196 O 0.42462 0.01737 0.32714 0.0
O197 O 0.3909 0.08 0.3119 0.0
Sc198 Sc 0.23171 0.1367 0.57118 0.0
Sc199 Sc 0.18134 0.11607 0.59153 0.0
Sc200 Sc 0.22099 0.13802 0.62739 0.0
O201 O 0.21132 0.13023 0.59662 0.0
C202 C 0.26494 0.11881 0.60809 0.0
C203 C 0.21179 0.09144 0.55595 0.0
C204 C 0.19751 0.09106 0.63402 0.0
C205 C 0.184 0.15031 0.55254 0.0
C206 C 0.23982 0.17908 0.59997 0.0
C207 C 0.17133 0.15196 0.629 0.0
O208 O 0.26064 0.12511 0.58854 0.0
O209 O 0.19319 0.0945 0.56523 0.0
O210 O 0.20765 0.10804 0.64097 0.0
O211 O 0.20492 0.14894 0.55115 0.0
O212 O 0.23578 0.16898 0.61789 0.0
O213 O 0.16485 0.13631 0.61656 0.0
O214 O 0.23757 0.17005 0.58127 0.0
O215 O 0.17286 0.14062 0.56745 0.0
O216 O 0.19145 0.15578 0.63295 0.0
O217 O 0.22809 0.1042 0.55855 0.0
O218 O 0.25149 0.12105 0.62392 0.0
O219 O 0.18824 0.09033 0.61521 0.0
Sc220 Sc 0.10692 0.97643 0.81664 0.0
Sc221 Sc 0.12636 0.92596 0.83831 0.0
Sc222 Sc 0.10336 0.96631 0.873 0.0
O223 O 0.11225 0.95622 0.84259 0.0
C224 C 0.1235 0.0101 0.85351 0.0
C225 C 0.15254 0.95542 0.80317 0.0
C226 C 0.15011 0.94288 0.88145 0.0
C227 C 0.093 0.9288 0.79833 0.0
C228 C 0.06342 0.98511 0.84409 0.0
C229 C 0.08946 0.91646 0.87486 0.0
O230 O 0.11902 0.00513 0.83366 0.0
O231 O 0.14934 0.93722 0.81309 0.0
O232 O 0.13329 0.95389 0.88741 0.0
O233 O 0.09421 0.94971 0.79705 0.0
O234 O 0.07231 0.97995 0.86233 0.0
O235 O 0.10495 0.90975 0.86237 0.0
O236 O 0.07357 0.98396 0.82585 0.0
O237 O 0.10276 0.91762 0.81317 0.0
O238 O 0.08605 0.9366 0.87897 0.0
O239 O 0.13947 0.97162 0.80448 0.0
O240 O 0.11959 0.99732 0.86958 0.0
O241 O 0.1511 0.93265 0.86314 0.0
Sc242 Sc 0.26946 0.85577 0.07043 0.0
Sc243 Sc 0.31854 0.87953 0.08947 0.0
Sc244 Sc 0.28324 0.85233 0.12587 0.0
O245 O 0.29036 0.86249 0.09519 0.0
C246 C 0.23685 0.86893 0.10976 0.0
C247 C 0.28554 0.90216 0.0552 0.0
C248 C 0.30173 0.90155 0.13282 0.0
C249 C 0.31758 0.84598 0.05023 0.0
C250 C 0.2657 0.81144 0.09735 0.0
C251 C 0.33375 0.84468 0.12597 0.0
O252 O 0.24071 0.86436 0.08964 0.0
O253 O 0.30478 0.89959 0.06307 0.0
O254 O 0.29485 0.88301 0.13998 0.0
O255 O 0.29657 0.84654 0.04907 0.0
O256 O 0.27038 0.82068 0.11558 0.0
O257 O 0.33736 0.86195 0.11462 0.0
O258 O 0.26625 0.82166 0.07913 0.0
O259 O 0.3285 0.85555 0.06541 0.0
O260 O 0.31461 0.83694 0.12892 0.0
O261 O 0.26984 0.88906 0.05924 0.0
O262 O 0.25113 0.86665 0.12486 0.0
O263 O 0.30908 0.90414 0.11331 0.0
Sc264 Sc 0.89022 0.47556 0.67683 0.0
Sc265 Sc 0.86692 0.42494 0.65987 0.0
Sc266 Sc 0.88548 0.46401 0.62076 0.0
O267 O 0.8809 0.45471 0.65252 0.0
C268 C 0.87061 0.50937 0.64261 0.0
C269 C 0.84578 0.45584 0.69667 0.0
C270 C 0.8373 0.44332 0.6202 0.0
C271 C 0.90574 0.42889 0.69526 0.0
C272 C 0.92974 0.4812 0.64235 0.0
C273 C 0.89611 0.41264 0.61804 0.0
O274 O 0.874 0.50341 0.66235 0.0
O275 O 0.84525 0.43841 0.68506 0.0
O276 O 0.85183 0.45672 0.61331 0.0
O277 O 0.90717 0.44974 0.69391 0.0
O278 O 0.91968 0.4726 0.62607 0.0
O279 O 0.88717 0.40736 0.63622 0.0
O280 O 0.92076 0.484 0.66105 0.0
O281 O 0.89184 0.41763 0.68427 0.0
O282 O 0.89599 0.43206 0.61042 0.0
O283 O 0.86093 0.4701 0.69528 0.0
O284 O 0.87525 0.49729 0.62624 0.0
O285 O 0.84054 0.42981 0.63599 0.0
Sc286 Sc 0.77741 0.63678 0.87342 0.0
Sc287 Sc 0.81999 0.61894 0.90888 0.0
Sc288 Sc 0.76958 0.63919 0.93024 0.0
O289 O 0.78906 0.63162 0.90423 0.0
C290 C 0.75889 0.67929 0.89859 0.0
C291 C 0.82705 0.65218 0.86843 0.0
C292 C 0.81727 0.65548 0.94618 0.0
C293 C 0.80206 0.59024 0.86902 0.0
C294 C 0.73485 0.61813 0.89674 0.0
C295 C 0.79198 0.59512 0.94681 0.0
O296 O 0.76338 0.66859 0.88114 0.0
O297 O 0.83468 0.63933 0.88318 0.0
O298 O 0.79639 0.65438 0.94772 0.0
O299 O 0.78925 0.60537 0.8623 0.0
O300 O 0.74039 0.62477 0.91582 0.0
O301 O 0.80965 0.59737 0.93572 0.0
O302 O 0.74695 0.62069 0.87994 0.0
O303 O 0.81424 0.59217 0.88599 0.0
O304 O 0.77576 0.6082 0.94545 0.0
O305 O 0.80671 0.65347 0.86387 0.0
O306 O 0.76127 0.67122 0.91773 0.0
O307 O 0.8283 0.6444 0.93219 0.0
Sc308 Sc 0.60485 0.53656 0.11713 0.0
Sc309 Sc 0.62965 0.56943 0.15835 0.0
Sc310 Sc 0.60379 0.51907 0.172 0.0
O311 O 0.61277 0.54175 0.14918 0.0
C312 C 0.56144 0.51912 0.14093 0.0
C313 C 0.59789 0.58814 0.12062 0.0
C314 C 0.59269 0.56506 0.19539 0.0
C315 C 0.65464 0.55439 0.11465 0.0
C316 C 0.6189 0.48837 0.13236 0.0
C317 C 0.65037 0.53353 0.19086 0.0
O318 O 0.57118 0.52748 0.12436 0.0
O319 O 0.61112 0.59099 0.13659 0.0
O320 O 0.59089 0.54426 0.19337 0.0
O321 O 0.63767 0.54493 0.10677 0.0
O322 O 0.61584 0.49185 0.15278 0.0
O323 O 0.6505 0.55253 0.18207 0.0
O324 O 0.61524 0.50284 0.11773 0.0
O325 O 0.65476 0.5638 0.13345 0.0
O326 O 0.63504 0.51972 0.18787 0.0
O327 O 0.5936 0.56947 0.11244 0.0
O328 O 0.57122 0.51504 0.15894 0.0
O329 O 0.6057 0.57665 0.18366 0.0
Sc330 Sc 0.72221 0.35703 0.37393 0.0
Sc331 Sc 0.68107 0.37876 0.40899 0.0
Sc332 Sc 0.73019 0.35579 0.4308 0.0
O333 O 0.71109 0.3639 0.40462 0.0
C334 C 0.7379 0.31409 0.40018 0.0
C335 C 0.6715 0.34495 0.36966 0.0
C336 C 0.68164 0.34305 0.44736 0.0
C337 C 0.70061 0.40486 0.36795 0.0
C338 C 0.76607 0.37366 0.39674 0.0
C339 C 0.71063 0.40184 0.44602 0.0
O340 O 0.73339 0.3244 0.38251 0.0
O341 O 0.66485 0.35833 0.38439 0.0
O342 O 0.70257 0.34235 0.44849 0.0
O343 O 0.71278 0.38892 0.36196 0.0
O344 O 0.76001 0.36848 0.41611 0.0
O345 O 0.69303 0.40077 0.43466 0.0
O346 O 0.75397 0.37079 0.37997 0.0
O347 O 0.68816 0.4041 0.38482 0.0
O348 O 0.72564 0.38733 0.44542 0.0
O349 O 0.69165 0.34249 0.36475 0.0
O350 O 0.73696 0.32311 0.41902 0.0
O351 O 0.67134 0.35493 0.43348 0.0
Sc352 Sc 0.31975 0.38672 0.01019 0.0
Sc353 Sc 0.33995 0.3684 0.06177 0.0
Sc354 Sc 0.37568 0.3919 0.02237 0.0
O355 O 0.34507 0.38228 0.03147 0.0
C356 C 0.35803 0.37014 0.97822 0.0
C357 C 0.30615 0.34121 0.03194 0.0
C358 C 0.38432 0.34544 0.04632 0.0
C359 C 0.29962 0.4014 0.0568 0.0
C360 C 0.34672 0.43079 0.00191 0.0
C361 C 0.3752 0.40617 0.07236 0.0
O362 O 0.33777 0.3732 0.9827 0.0
O363 O 0.31628 0.34428 0.05001 0.0
O364 O 0.39015 0.36199 0.03484 0.0
O365 O 0.2996 0.40081 0.03582 0.0
O366 O 0.36485 0.42299 0.00891 0.0
O367 O 0.36222 0.39097 0.0787 0.0
O368 O 0.32908 0.41964 0.00143 0.0
O369 O 0.31346 0.391 0.06868 0.0
O370 O 0.38062 0.409 0.05244 0.0
O371 O 0.30704 0.35456 0.01594 0.0
O372 O 0.37349 0.37594 0.99104 0.0
O373 O 0.36599 0.34456 0.05653 0.0
Sc374 Sc 0.87826 0.10479 0.96977 0.0
Sc375 Sc 0.84144 0.12756 0.93112 0.0
Sc376 Sc 0.82205 0.10617 0.98157 0.0
O377 O 0.8472 0.11285 0.9608 0.0
C378 C 0.85122 0.06338 0.98819 0.0
C379 C 0.87926 0.09253 0.91937 0.0
C380 C 0.80268 0.0929 0.93415 0.0
C381 C 0.88414 0.15248 0.94748 0.0
C382 C 0.85934 0.12326 0.01461 0.0
C383 C 0.80631 0.15174 0.96225 0.0
O384 O 0.86909 0.07302 0.98301 0.0
O385 O 0.86576 0.10757 0.91368 0.0
O386 O 0.80198 0.09357 0.95512 0.0
O387 O 0.89115 0.13562 0.9578 0.0
O388 O 0.83952 0.11815 0.01011 0.0
O389 O 0.81575 0.14925 0.9437 0.0
O390 O 0.87516 0.12013 0.00131 0.0
O391 O 0.86551 0.15296 0.93781 0.0
O392 O 0.80864 0.13842 0.97814 0.0
O393 O 0.88414 0.08861 0.93928 0.0
O394 O 0.83267 0.07301 0.98758 0.0
O395 O 0.81693 0.10333 0.92282 0.0
Sc396 Sc 0.14486 0.56889 0.21915 0.0
Sc397 Sc 0.11664 0.58625 0.17113 0.0
Sc398 Sc 0.13844 0.62505 0.20874 0.0
O399 O 0.13331 0.59336 0.19957 0.0
C400 C 0.12737 0.60245 0.25484 0.0
C401 C 0.09886 0.54887 0.20325 0.0
C402 C 0.0888 0.62601 0.1918 0.0
C403 C 0.156 0.55123 0.17107 0.0
C404 C 0.18418 0.60386 0.22242 0.0
C405 C 0.14496 0.62804 0.15672 0.0
O406 O 0.13074 0.58274 0.24865 0.0
O407 O 0.09615 0.56128 0.18658 0.0
O408 O 0.10434 0.63271 0.20409 0.0
O409 O 0.16006 0.55288 0.19155 0.0
O410 O 0.17319 0.62011 0.21498 0.0
O411 O 0.13548 0.60995 0.152 0.0
O412 O 0.17572 0.58497 0.22537 0.0
O413 O 0.1404 0.5615 0.16151 0.0
O414 O 0.14651 0.63549 0.17614 0.0
O415 O 0.11558 0.54975 0.2157 0.0
O416 O 0.13064 0.61892 0.24243 0.0
O417 O 0.09092 0.61025 0.17808 0.0
Sc418 Sc 0.67855 0.89002 0.47791 0.0
Sc419 Sc 0.65576 0.86975 0.42825 0.0
Sc420 Sc 0.62189 0.89379 0.46905 0.0
O421 O 0.65211 0.88451 0.45835 0.0
C422 C 0.64269 0.87415 0.51277 0.0
C423 C 0.69157 0.84398 0.45718 0.0
C424 C 0.61293 0.84634 0.4473 0.0
C425 C 0.69599 0.90319 0.42976 0.0
C426 C 0.65124 0.93392 0.4864 0.0
C427 C 0.6187 0.9062 0.41855 0.0
O428 O 0.66251 0.87748 0.50688 0.0
O429 O 0.68063 0.84639 0.43947 0.0
O430 O 0.60757 0.86308 0.45874 0.0
O431 O 0.69719 0.90295 0.4507 0.0
O432 O 0.63286 0.92556 0.48081 0.0
O433 O 0.63201 0.89134 0.41203 0.0
O434 O 0.66916 0.92317 0.48592 0.0
O435 O 0.68135 0.89268 0.41898 0.0
O436 O 0.61438 0.90951 0.43869 0.0
O437 O 0.69125 0.85778 0.47279 0.0
O438 O 0.62631 0.87911 0.50078 0.0
O439 O 0.63044 0.84562 0.43569 0.0
Sc440 Sc 0.35142 0.3712 0.70871 0.0
Sc441 Sc 0.37824 0.40889 0.67403 0.0
Sc442 Sc 0.35438 0.42641 0.72399 0.0
O443 O 0.36136 0.40224 0.70227 0.0
C444 C 0.31037 0.3986 0.72745 0.0
C445 C 0.34293 0.37312 0.65805 0.0
C446 C 0.34393 0.44803 0.67674 0.0
C447 C 0.40041 0.36466 0.68933 0.0
C448 C 0.36868 0.38649 0.75534 0.0
C449 C 0.40106 0.44218 0.70792 0.0
O450 O 0.31954 0.38071 0.72154 0.0
O451 O 0.35964 0.38523 0.65432 0.0
O452 O 0.34373 0.44801 0.69777 0.0
O453 O 0.3822 0.35758 0.69705 0.0
O454 O 0.36445 0.40677 0.75195 0.0
O455 O 0.39931 0.43391 0.68876 0.0
O456 O 0.36557 0.37167 0.74093 0.0
O457 O 0.4027 0.38412 0.68177 0.0
O458 O 0.38707 0.43905 0.72303 0.0
O459 O 0.33625 0.36846 0.67724 0.0
O460 O 0.32064 0.41677 0.72803 0.0
O461 O 0.35462 0.43397 0.66534 0.0
Sc462 Sc 0.12186 0.60695 0.52693 0.0
Sc463 Sc 0.15722 0.63013 0.56652 0.0
Sc464 Sc 0.17815 0.60847 0.51677 0.0
O465 O 0.15246 0.61526 0.53677 0.0
C466 C 0.1499 0.5656 0.5096 0.0
C467 C 0.12017 0.59399 0.57698 0.0
C468 C 0.19688 0.59643 0.56479 0.0
C469 C 0.11426 0.65424 0.5496 0.0
C470 C 0.14139 0.62446 0.48245 0.0
C471 C 0.19237 0.65464 0.53546 0.0
O472 O 0.13185 0.57563 0.51322 0.0
O473 O 0.13271 0.6096 0.58333 0.0
O474 O 0.1982 0.5973 0.54388 0.0
O475 O 0.10788 0.63719 0.53921 0.0
O476 O 0.16096 0.61871 0.48733 0.0
O477 O 0.18297 0.65206 0.55407 0.0
O478 O 0.12542 0.62281 0.49582 0.0
O479 O 0.13284 0.65526 0.55932 0.0
O480 O 0.19025 0.64122 0.51961 0.0
O481 O 0.11604 0.5901 0.55692 0.0
O482 O 0.16852 0.57485 0.5118 0.0
O483 O 0.18188 0.60626 0.5757 0.0
Sc484 Sc 0.6407 0.93024 0.77336 0.0
Sc485 Sc 0.61822 0.9096 0.82268 0.0
Sc486 Sc 0.64407 0.87424 0.78501 0.0
O487 O 0.63434 0.90476 0.79366 0.0
C488 C 0.62589 0.89245 0.73987 0.0
C489 C 0.59453 0.94492 0.7915 0.0
C490 C 0.59564 0.86649 0.80531 0.0
C491 C 0.65227 0.94881 0.82161 0.0
C492 C 0.68462 0.9029 0.76704 0.0
C493 C 0.6537 0.87261 0.83542 0.0
O494 O 0.63037 0.91239 0.74453 0.0
O495 O 0.59708 0.93586 0.81022 0.0
O496 O 0.61367 0.85992 0.79676 0.0
O497 O 0.65159 0.95026 0.80065 0.0
O498 O 0.67556 0.88469 0.77203 0.0
O499 O 0.63702 0.88442 0.84023 0.0
O500 O 0.67446 0.92115 0.76791 0.0
O501 O 0.64227 0.93382 0.83243 0.0
O502 O 0.66014 0.86955 0.81582 0.0
O503 O 0.60783 0.94225 0.77569 0.0
O504 O 0.62904 0.87665 0.75321 0.0
O505 O 0.59342 0.88554 0.8139 0.0
Sc506 Sc 0.85524 0.07063 0.27006 0.0
Sc507 Sc 0.87873 0.0881 0.32019 0.0
Sc508 Sc 0.85133 0.12572 0.28579 0.0
O509 O 0.86177 0.09476 0.29199 0.0
C510 C 0.86857 0.1109 0.23887 0.0
C511 C 0.90219 0.05542 0.2861 0.0
C512 C 0.90029 0.13274 0.30507 0.0
C513 C 0.84506 0.0485 0.3171 0.0
C514 C 0.81067 0.09774 0.2672 0.0
C515 C 0.84308 0.12332 0.33661 0.0
O516 O 0.8651 0.09051 0.2423 0.0
O517 O 0.90028 0.06365 0.30526 0.0
O518 O 0.88212 0.1396 0.29704 0.0
O519 O 0.84478 0.04871 0.29608 0.0
O520 O 0.81941 0.11566 0.27361 0.0
O521 O 0.85971 0.11108 0.34022 0.0
O522 O 0.82138 0.07985 0.26589 0.0
O523 O 0.85561 0.06256 0.3286 0.0
O524 O 0.83654 0.12837 0.31748 0.0
O525 O 0.88813 0.05846 0.27102 0.0
O526 O 0.86495 0.12563 0.25327 0.0
O527 O 0.90271 0.11336 0.31279 0.0
C528 C 0.95391 0.35191 0.37345 0.0
C529 C 0.97025 0.36766 0.37791 0.0
C530 C 0.93204 0.35835 0.37067 0.0
C531 C 0.89452 0.40019 0.39012 0.0
H532 H 0.85389 0.37166 0.34998 0.0
C533 C 0.80421 0.3818 0.41024 0.0
C534 C 0.78866 0.38196 0.39311 0.0
C535 C 0.82629 0.38654 0.40589 0.0
C536 C 0.86503 0.38015 0.36103 0.0
H537 H 0.97663 0.40269 0.38167 0.0
H538 H 0.93831 0.41382 0.37701 0.0
H539 H 0.89344 0.36719 0.34465 0.0
H540 H 0.78374 0.3892 0.35837 0.0
H541 H 0.82226 0.39739 0.35091 0.0
H542 H 0.86606 0.41241 0.40705 0.0
C543 C 0.94251 0.39651 0.37578 0.0
C544 C 0.88764 0.37741 0.35808 0.0
C545 C 0.96443 0.3901 0.37838 0.0
C546 C 0.79536 0.38852 0.3719 0.0
C547 C 0.81741 0.39323 0.36757 0.0
C548 C 0.87189 0.40283 0.39316 0.0
C549 C 0.92607 0.38064 0.37241 0.0
C550 C 0.90255 0.38683 0.373 0.0
C551 C 0.83319 0.39156 0.38436 0.0
C552 C 0.85694 0.39227 0.37904 0.0
H553 H 0.95787 0.33452 0.37281 0.0
H554 H 0.91964 0.34574 0.36828 0.0
H555 H 0.90568 0.40752 0.40196 0.0
H556 H 0.79958 0.37697 0.42678 0.0
H557 H 0.83814 0.38497 0.41914 0.0
C558 C 0.86069 0.53961 0.61651 0.0
C559 C 0.86314 0.53209 0.63831 0.0
C560 C 0.85817 0.56201 0.61218 0.0
C561 C 0.87785 0.6122 0.63632 0.0
H562 H 0.84431 0.64192 0.59074 0.0
C563 C 0.90148 0.69838 0.6116 0.0
C564 C 0.88424 0.71358 0.61436 0.0
C565 C 0.89691 0.67599 0.60976 0.0
C566 C 0.85377 0.63372 0.60345 0.0
H567 H 0.86215 0.54183 0.67272 0.0
H568 H 0.85771 0.58094 0.66507 0.0
H569 H 0.83642 0.60317 0.59943 0.0
H570 H 0.84863 0.7175 0.61462 0.0
H571 H 0.84078 0.6783 0.61172 0.0
H572 H 0.89521 0.6424 0.64047 0.0
C573 C 0.85822 0.5695 0.65138 0.0
C574 C 0.84925 0.61169 0.60844 0.0
C575 C 0.86075 0.54712 0.65574 0.0
C576 C 0.86232 0.70617 0.61287 0.0
C577 C 0.85777 0.68374 0.61106 0.0
C578 C 0.88248 0.634 0.63122 0.0
C579 C 0.85802 0.5772 0.62957 0.0
C580 C 0.86124 0.60082 0.625 0.0
C581 C 0.87507 0.66844 0.61065 0.0
C582 C 0.87058 0.64494 0.6147 0.0
H583 H 0.86208 0.52841 0.6027 0.0
H584 H 0.85803 0.56755 0.59521 0.0
H585 H 0.88765 0.6041 0.64885 0.0
H586 H 0.91854 0.70357 0.61222 0.0
H587 H 0.91052 0.66444 0.60899 0.0
C588 C 0.70622 0.60181 0.87216 0.0
C589 C 0.71257 0.60901 0.89326 0.0
C590 C 0.6842 0.59727 0.86757 0.0
C591 C 0.62897 0.58974 0.89184 0.0
H592 H 0.60986 0.62766 0.84401 0.0
C593 C 0.53755 0.6066 0.87598 0.0
C594 C 0.53259 0.62925 0.87674 0.0
C595 C 0.5592 0.59949 0.8732 0.0
C596 C 0.61499 0.61679 0.8572 0.0
H597 H 0.70117 0.61488 0.92664 0.0
H598 H 0.66267 0.60702 0.91856 0.0
H599 H 0.6491 0.62112 0.84975 0.0
H600 H 0.54627 0.66212 0.87351 0.0
H601 H 0.58412 0.64963 0.86863 0.0
H602 H 0.59486 0.58638 0.89999 0.0
C603 C 0.67475 0.60495 0.90558 0.0
C604 C 0.63739 0.61288 0.86039 0.0
C605 C 0.69679 0.60959 0.91018 0.0
C606 C 0.54955 0.64458 0.87318 0.0
C607 C 0.57119 0.63743 0.87023 0.0
C608 C 0.60655 0.59349 0.88852 0.0
C609 C 0.66817 0.59967 0.88403 0.0
C610 C 0.64458 0.59994 0.87819 0.0
C611 C 0.57625 0.61486 0.87089 0.0
C612 C 0.59945 0.60767 0.87165 0.0
H613 H 0.71803 0.60077 0.85882 0.0
H614 H 0.67954 0.59292 0.85091 0.0
H615 H 0.63415 0.57963 0.90561 0.0
H616 H 0.52486 0.5943 0.87845 0.0
H617 H 0.56271 0.58199 0.87356 0.0
C618 C 0.59402 0.30225 0.11196 0.0
C619 C 0.61062 0.28622 0.11375 0.0
C620 C 0.59934 0.32384 0.10616 0.0
C621 C 0.64508 0.36152 0.1128 0.0
H622 H 0.60536 0.40185 0.08322 0.0
C623 C 0.63071 0.44978 0.1407 0.0
C624 C 0.6257 0.46615 0.12513 0.0
C625 C 0.63451 0.42816 0.13399 0.0
C626 C 0.61694 0.39081 0.09112 0.0
H627 H 0.64554 0.27983 0.10892 0.0
H628 H 0.65471 0.31752 0.0988 0.0
H629 H 0.60035 0.36226 0.07877 0.0
H630 H 0.62225 0.47291 0.09013 0.0
H631 H 0.62877 0.43504 0.07852 0.0
H632 H 0.66111 0.39005 0.12586 0.0
C633 C 0.63768 0.31344 0.10226 0.0
C634 C 0.61392 0.36816 0.08874 0.0
C635 C 0.63238 0.29187 0.10808 0.0
C636 C 0.62585 0.46067 0.1026 0.0
C637 C 0.62955 0.43899 0.0959 0.0
C638 C 0.64807 0.38416 0.1152 0.0
C639 C 0.62134 0.32979 0.10197 0.0
C640 C 0.6274 0.35332 0.10029 0.0
C641 C 0.63335 0.42245 0.11158 0.0
C642 C 0.63346 0.39898 0.10513 0.0
H643 H 0.57708 0.29844 0.11605 0.0
H644 H 0.58639 0.33612 0.10628 0.0
H645 H 0.65568 0.35052 0.12201 0.0
H646 H 0.63092 0.45347 0.15816 0.0
H647 H 0.63716 0.4157 0.14649 0.0
C648 C 0.46142 0.10664 0.6326 0.0
C649 C 0.46628 0.12918 0.6301 0.0
C650 C 0.43989 0.09975 0.63659 0.0
C651 C 0.38405 0.11845 0.65167 0.0
H652 H 0.36497 0.07846 0.60558 0.0
C653 C 0.30353 0.10939 0.59692 0.0
C654 C 0.28714 0.11028 0.61324 0.0
C655 C 0.3253 0.10477 0.60262 0.0
C656 C 0.37011 0.08938 0.61873 0.0
H657 H 0.45268 0.16221 0.63177 0.0
H658 H 0.41507 0.15013 0.63865 0.0
H659 H 0.40423 0.0848 0.6114 0.0
H660 H 0.28043 0.10498 0.64805 0.0
H661 H 0.31848 0.09714 0.65788 0.0
H662 H 0.3499 0.12406 0.6581 0.0
C663 C 0.42795 0.13782 0.63751 0.0
C664 C 0.39254 0.09288 0.62219 0.0
C665 C 0.44947 0.14474 0.63339 0.0
C666 C 0.29269 0.10479 0.63508 0.0
C667 C 0.31447 0.10028 0.64077 0.0
C668 C 0.36162 0.11482 0.64831 0.0
C669 C 0.42287 0.11526 0.63836 0.0
C670 C 0.39965 0.10811 0.63812 0.0
C671 C 0.33106 0.10099 0.62473 0.0
C672 C 0.35447 0.10091 0.63125 0.0
H673 H 0.47403 0.09418 0.63048 0.0
H674 H 0.4364 0.08227 0.63743 0.0
H675 H 0.38916 0.13014 0.66414 0.0
H676 H 0.29979 0.11334 0.57993 0.0
H677 H 0.33783 0.10557 0.58993 0.0
C678 C 0.09089 0.19894 0.8869 0.0
C679 C 0.10851 0.21383 0.88525 0.0
C680 C 0.09498 0.17641 0.88861 0.0
C681 C 0.13771 0.13355 0.89611 0.0
H682 H 0.10515 0.10455 0.84942 0.0
C683 C 0.13323 0.04824 0.84152 0.0
C684 C 0.13099 0.03268 0.8585 0.0
C685 C 0.1352 0.07055 0.84652 0.0
C686 C 0.11457 0.11248 0.86233 0.0
H687 H 0.14416 0.21705 0.88687 0.0
H688 H 0.15118 0.17773 0.88947 0.0
H689 H 0.09705 0.14262 0.8583 0.0
H690 H 0.13188 0.02802 0.89401 0.0
H691 H 0.13497 0.067 0.90261 0.0
H692 H 0.15535 0.10313 0.89987 0.0
C693 C 0.13426 0.18344 0.88937 0.0
C694 C 0.10962 0.13414 0.86773 0.0
C695 C 0.1302 0.20596 0.88768 0.0
C696 C 0.13318 0.03963 0.88052 0.0
C697 C 0.13511 0.06195 0.88549 0.0
C698 C 0.14259 0.11168 0.89078 0.0
C699 C 0.11672 0.16845 0.88871 0.0
C700 C 0.1211 0.1449 0.88465 0.0
C701 C 0.13497 0.07764 0.86854 0.0
C702 C 0.13114 0.10106 0.87372 0.0
H703 H 0.07398 0.20448 0.88547 0.0
H704 H 0.08115 0.16512 0.88854 0.0
H705 H 0.14685 0.14157 0.90917 0.0
H706 H 0.13205 0.04341 0.82439 0.0
H707 H 0.13558 0.08237 0.83316 0.0
C708 C 0.04979 0.84478 0.13544 0.0
C709 C 0.03381 0.86137 0.13322 0.0
C710 C 0.0717 0.85029 0.13963 0.0
C711 C 0.10944 0.89467 0.12738 0.0
H712 H 0.15061 0.85827 0.15992 0.0
C713 C 0.20891 0.87833 0.13858 0.0
C714 C 0.21443 0.87586 0.11619 0.0
C715 C 0.18715 0.88216 0.14487 0.0
C716 C 0.13932 0.86892 0.1511 0.0
H717 H 0.02796 0.89663 0.13553 0.0
H718 H 0.06622 0.90612 0.14276 0.0
H719 H 0.11111 0.85354 0.16565 0.0
H720 H 0.20166 0.87706 0.08281 0.0
H721 H 0.16369 0.88358 0.09383 0.0
H722 H 0.13762 0.90941 0.11216 0.0
C723 C 0.06182 0.88893 0.14092 0.0
C724 C 0.11674 0.86606 0.15425 0.0
C725 C 0.03992 0.88344 0.13677 0.0
C726 C 0.19796 0.87869 0.10019 0.0
C727 C 0.17622 0.88263 0.1065 0.0
C728 C 0.132 0.89747 0.12417 0.0
C729 C 0.07801 0.87246 0.14169 0.0
C730 C 0.10161 0.87837 0.14184 0.0
C731 C 0.17054 0.88377 0.12891 0.0
C732 C 0.1471 0.88407 0.13543 0.0
H733 H 0.04561 0.82761 0.13296 0.0
H734 H 0.08388 0.83724 0.13995 0.0
H735 H 0.09815 0.90431 0.11746 0.0
H736 H 0.22123 0.87648 0.15136 0.0
H737 H 0.1832 0.88321 0.16225 0.0
C738 C 0.42033 0.80317 0.38647 0.0
C739 C 0.40404 0.78747 0.39127 0.0
C740 C 0.41619 0.82551 0.39016 0.0
C741 C 0.40254 0.87254 0.40403 0.0
H742 H 0.34942 0.88587 0.37086 0.0
C743 C 0.37409 0.96112 0.38848 0.0
C744 C 0.37371 0.96618 0.36583 0.0
C745 C 0.37442 0.93931 0.39552 0.0
C746 C 0.36411 0.88234 0.38037 0.0
H747 H 0.37204 0.78239 0.4065 0.0
H748 H 0.36484 0.82134 0.41264 0.0
H749 H 0.35877 0.84757 0.37908 0.0
H750 H 0.37125 0.95229 0.33298 0.0
H751 H 0.37137 0.91403 0.34547 0.0
H752 H 0.40813 0.90735 0.40475 0.0
C753 C 0.38055 0.81643 0.40572 0.0
C754 C 0.36939 0.86054 0.38521 0.0
C755 C 0.38471 0.79418 0.40217 0.0
C756 C 0.37172 0.94895 0.3505 0.0
C757 C 0.37173 0.92709 0.35762 0.0
C758 C 0.39704 0.89439 0.39951 0.0
C759 C 0.39575 0.83229 0.39867 0.0
C760 C 0.38887 0.85546 0.39667 0.0
C761 C 0.37394 0.92217 0.38012 0.0
C762 C 0.37805 0.89937 0.38723 0.0
H763 H 0.43542 0.79846 0.37817 0.0
H764 H 0.42816 0.83752 0.38461 0.0
H765 H 0.41767 0.86894 0.41278 0.0
H766 H 0.37542 0.97395 0.4008 0.0
H767 H 0.37588 0.9358 0.41297 0.0
C768 C 0.3864 0.35815 0.9508 0.0
C769 C 0.36409 0.36113 0.95643 0.0
C770 C 0.39241 0.35327 0.92917 0.0
C771 C 0.37059 0.3383 0.87403 0.0
H772 H 0.41191 0.38246 0.85335 0.0
C773 C 0.37961 0.35705 0.78208 0.0
C774 C 0.37639 0.37953 0.77736 0.0
C775 C 0.38437 0.35019 0.80348 0.0
C776 C 0.40055 0.36986 0.85889 0.0
H777 H 0.33054 0.35928 0.94419 0.0
H778 H 0.34104 0.35109 0.90646 0.0
H779 H 0.40744 0.3764 0.89274 0.0
H780 H 0.37716 0.41251 0.79115 0.0
H781 H 0.3852 0.4005 0.82849 0.0
H782 H 0.36256 0.33292 0.8402 0.0
C783 C 0.35389 0.35242 0.91876 0.0
C784 C 0.39815 0.3662 0.88143 0.0
C785 C 0.34787 0.35732 0.94038 0.0
C786 C 0.37936 0.39507 0.79423 0.0
C787 C 0.38418 0.3882 0.81561 0.0
C788 C 0.37303 0.34194 0.85147 0.0
C789 C 0.37625 0.3512 0.91279 0.0
C790 C 0.38245 0.35106 0.88923 0.0
C791 C 0.38613 0.36566 0.82055 0.0
C792 C 0.38734 0.35843 0.84377 0.0
H793 H 0.39933 0.36059 0.96284 0.0
H794 H 0.40974 0.35208 0.92506 0.0
H795 H 0.35858 0.32634 0.87961 0.0
H796 H 0.37771 0.34463 0.76943 0.0
H797 H 0.38601 0.33274 0.80682 0.0
C798 C 0.84786 0.13423 0.05266 0.0
C799 C 0.86453 0.1319 0.03677 0.0
C800 C 0.85318 0.13951 0.07436 0.0
C801 C 0.89789 0.13026 0.11262 0.0
H802 H 0.85906 0.16157 0.15253 0.0
C803 C 0.88052 0.10234 0.20036 0.0
C804 C 0.87596 0.118 0.21678 0.0
C805 C 0.88504 0.10905 0.17888 0.0
C806 C 0.87041 0.15315 0.14162 0.0
H807 H 0.89972 0.13508 0.03085 0.0
H808 H 0.9089 0.14425 0.0688 0.0
H809 H 0.85503 0.16665 0.11291 0.0
H810 H 0.87407 0.15306 0.22381 0.0
H811 H 0.88187 0.16466 0.18618 0.0
H812 H 0.91267 0.11608 0.14131 0.0
C813 C 0.89178 0.14168 0.06447 0.0
C814 C 0.86795 0.15591 0.11895 0.0
C815 C 0.88647 0.13643 0.04274 0.0
C816 C 0.87727 0.14054 0.21151 0.0
C817 C 0.88172 0.14723 0.18997 0.0
C818 C 0.90033 0.12749 0.13529 0.0
C819 C 0.87526 0.14259 0.08061 0.0
C820 C 0.88105 0.14378 0.10424 0.0
C821 C 0.88509 0.13153 0.17335 0.0
C822 C 0.88599 0.13819 0.14995 0.0
H823 H 0.83078 0.13104 0.0486 0.0
H824 H 0.84008 0.13987 0.08649 0.0
H825 H 0.90818 0.1206 0.10171 0.0
H826 H 0.87983 0.08487 0.20388 0.0
H827 H 0.88732 0.09654 0.16635 0.0
C828 C 0.11551 0.62859 0.28421 0.0
C829 C 0.12078 0.60693 0.27781 0.0
C830 C 0.11256 0.6338 0.30632 0.0
C831 C 0.12894 0.64098 0.35286 0.0
H832 H 0.09802 0.6054 0.39594 0.0
C833 C 0.15331 0.63253 0.44382 0.0
C834 C 0.13638 0.63086 0.45953 0.0
C835 C 0.14822 0.63451 0.42151 0.0
C836 C 0.10643 0.61571 0.38405 0.0
H837 H 0.12531 0.57344 0.28946 0.0
H838 H 0.12014 0.58264 0.32828 0.0
H839 H 0.09308 0.59786 0.35669 0.0
H840 H 0.10087 0.63189 0.46429 0.0
H841 H 0.09215 0.63509 0.4253 0.0
H842 H 0.14301 0.65823 0.38023 0.0
C843 C 0.11836 0.59552 0.31606 0.0
C844 C 0.10375 0.61127 0.36168 0.0
C845 C 0.12142 0.59028 0.29387 0.0
C846 C 0.11434 0.63289 0.45262 0.0
C847 C 0.10928 0.63466 0.43031 0.0
C848 C 0.13181 0.64527 0.37522 0.0
C849 C 0.11465 0.61745 0.32247 0.0
C850 C 0.11529 0.62362 0.34594 0.0
C851 C 0.12616 0.63473 0.41456 0.0
C852 C 0.12089 0.63241 0.39099 0.0
H853 H 0.11449 0.64177 0.27222 0.0
H854 H 0.10937 0.65076 0.31088 0.0
H855 H 0.1382 0.65061 0.34102 0.0
H856 H 0.17045 0.63122 0.44861 0.0
H857 H 0.16154 0.63446 0.40961 0.0
C858 C 0.65599 0.86251 0.54992 0.0
C859 C 0.6384 0.86627 0.53537 0.0
C860 C 0.652 0.85959 0.57232 0.0
C861 C 0.63873 0.87955 0.61547 0.0
H862 H 0.59305 0.84711 0.64626 0.0
C863 C 0.61567 0.90417 0.70182 0.0
C864 C 0.61884 0.88719 0.71721 0.0
C865 C 0.61347 0.89928 0.67953 0.0
C866 C 0.6058 0.85625 0.63775 0.0
H867 H 0.60271 0.86724 0.53248 0.0
H868 H 0.59586 0.86247 0.5717 0.0
H869 H 0.60034 0.83936 0.60713 0.0
H870 H 0.61965 0.85166 0.72161 0.0
H871 H 0.61606 0.84324 0.68251 0.0
H872 H 0.64419 0.89658 0.64567 0.0
C873 C 0.61269 0.86183 0.56575 0.0
C874 C 0.60999 0.8518 0.61552 0.0
C875 C 0.61666 0.86476 0.54332 0.0
C876 C 0.61755 0.86515 0.71012 0.0
C877 C 0.61534 0.86027 0.68777 0.0
C878 C 0.63439 0.88414 0.63743 0.0
C879 C 0.63038 0.86035 0.58052 0.0
C880 C 0.62658 0.86341 0.60429 0.0
C881 C 0.61438 0.87736 0.67227 0.0
C882 C 0.61784 0.87265 0.64874 0.0
H883 H 0.67292 0.86313 0.54429 0.0
H884 H 0.66589 0.85808 0.58343 0.0
H885 H 0.65132 0.88903 0.60708 0.0
H886 H 0.61612 0.92131 0.70677 0.0
H887 H 0.61235 0.9127 0.66782 0.0
C888 C 0.12885 0.53174 0.49897 0.0
C889 C 0.14916 0.54245 0.50185 0.0
C890 C 0.128 0.51031 0.49072 0.0
C891 C 0.15925 0.47066 0.45727 0.0
H892 H 0.11438 0.4307 0.47877 0.0
C893 C 0.11303 0.38166 0.43884 0.0
C894 C 0.10988 0.38441 0.41614 0.0
C895 C 0.12485 0.39728 0.45087 0.0
C896 C 0.1274 0.44132 0.47278 0.0
H897 H 0.18462 0.53873 0.49862 0.0
H898 H 0.18308 0.50119 0.48433 0.0
H899 H 0.12067 0.4652 0.49774 0.0
H900 H 0.11768 0.4045 0.3878 0.0
H901 H 0.13779 0.43223 0.40877 0.0
H902 H 0.16582 0.44674 0.43215 0.0
C903 C 0.1678 0.50954 0.48828 0.0
C904 C 0.13073 0.46134 0.48351 0.0
C905 C 0.16867 0.53102 0.49657 0.0
C906 C 0.12029 0.40191 0.40527 0.0
C907 C 0.13177 0.41781 0.41737 0.0
C908 C 0.15598 0.45051 0.44654 0.0
C909 C 0.14745 0.49899 0.48517 0.0
C910 C 0.14619 0.47654 0.4755 0.0
C911 C 0.13312 0.41629 0.44049 0.0
C912 C 0.13958 0.43584 0.45382 0.0
H913 H 0.11348 0.54 0.50279 0.0
H914 H 0.11202 0.50282 0.48818 0.0
H915 H 0.1713 0.48204 0.45066 0.0
H916 H 0.10496 0.36831 0.44752 0.0
H917 H 0.1261 0.39525 0.46855 0.0
C918 C 0.8502 0.84132 0.68798 0.0
C919 C 0.85613 0.84748 0.66648 0.0
C920 C 0.83605 0.85433 0.70044 0.0
C921 C 0.79045 0.89279 0.69244 0.0
H922 H 0.79003 0.89097 0.75633 0.0
C923 C 0.71501 0.91964 0.7446 0.0
C924 C 0.70749 0.90268 0.75852 0.0
C925 C 0.7358 0.91835 0.73473 0.0
C926 C 0.79001 0.89177 0.7385 0.0
H927 H 0.85308 0.87292 0.64167 0.0
H928 H 0.82814 0.89605 0.66368 0.0
H929 H 0.82339 0.88072 0.73634 0.0
H930 H 0.7163 0.8716 0.77376 0.0
H931 H 0.75279 0.86961 0.7569 0.0
H932 H 0.75686 0.90347 0.69475 0.0
C933 C 0.83436 0.8809 0.67074 0.0
C934 C 0.80907 0.88586 0.72702 0.0
C935 C 0.84877 0.8678 0.65821 0.0
C936 C 0.72157 0.88488 0.76307 0.0
C937 C 0.74251 0.88381 0.75353 0.0
C938 C 0.77148 0.89902 0.70397 0.0
C939 C 0.82735 0.87396 0.69178 0.0
C940 C 0.80922 0.88532 0.70383 0.0
C941 C 0.74966 0.90032 0.73896 0.0
C942 C 0.77083 0.89771 0.72706 0.0
H943 H 0.85577 0.82581 0.69488 0.0
H944 H 0.83088 0.8482 0.71637 0.0
H945 H 0.78985 0.89241 0.67462 0.0
H946 H 0.70451 0.93353 0.74068 0.0
H947 H 0.74095 0.93129 0.72357 0.0
C948 C 0.37631 0.60377 0.90785 0.0
C949 C 0.39446 0.61232 0.91935 0.0
C950 C 0.36255 0.58817 0.9179 0.0
C951 C 0.35259 0.55867 0.97155 0.0
H952 H 0.3468 0.50758 0.93369 0.0
C953 C 0.36168 0.4692 0.00093 0.0
C954 C 0.34609 0.45371 0.99372 0.0
C955 C 0.36123 0.49076 0.99289 0.0
C956 C 0.34793 0.52181 0.9444 0.0
H957 H 0.41101 0.61329 0.95096 0.0
H958 H 0.38757 0.58622 0.96824 0.0
H959 H 0.35567 0.54321 0.91758 0.0
H960 H 0.31773 0.44868 0.97253 0.0
H961 H 0.31748 0.48627 0.95796 0.0
H962 H 0.34661 0.53664 0.99851 0.0
C963 C 0.38361 0.59131 0.95162 0.0
C964 C 0.35286 0.54231 0.93517 0.0
C965 C 0.39727 0.60677 0.94162 0.0
C966 C 0.32994 0.46027 0.97843 0.0
C967 C 0.32977 0.48172 0.97007 0.0
C968 C 0.34806 0.53808 0.98078 0.0
C969 C 0.36671 0.58102 0.93961 0.0
C970 C 0.35612 0.56084 0.94873 0.0
C971 C 0.34544 0.49713 0.97721 0.0
C972 C 0.34643 0.51937 0.96733 0.0
H973 H 0.37376 0.60781 0.89066 0.0
H974 H 0.3494 0.58088 0.90831 0.0
H975 H 0.35443 0.57267 0.98245 0.0
H976 H 0.37422 0.46467 0.01279 0.0
H977 H 0.37365 0.5023 0.99845 0.0
C978 C 0.64442 0.13291 0.16289 0.0
C979 C 0.63815 0.15383 0.17053 0.0
C980 C 0.65852 0.11968 0.17558 0.0
C981 C 0.68511 0.11567 0.23124 0.0
H982 H 0.73596 0.09587 0.19804 0.0
C983 C 0.77348 0.11566 0.26489 0.0
C984 C 0.78746 0.09795 0.25967 0.0
C985 C 0.75219 0.11669 0.25619 0.0
C986 C 0.72172 0.10091 0.20755 0.0
H987 H 0.64003 0.17649 0.19809 0.0
H988 H 0.66446 0.15384 0.21986 0.0
H989 H 0.70271 0.10709 0.17855 0.0
H990 H 0.78973 0.06709 0.2417 0.0
H991 H 0.75267 0.06922 0.2262 0.0
H992 H 0.70481 0.11092 0.26016 0.0
C993 C 0.65866 0.14737 0.20428 0.0
C994 C 0.70259 0.10724 0.19639 0.0
C995 C 0.64479 0.16053 0.19165 0.0
C996 C 0.7794 0.08097 0.24608 0.0
C997 C 0.75822 0.08218 0.23713 0.0
C998 C 0.70432 0.1096 0.24237 0.0
C999 C 0.66632 0.1271 0.19615 0.0
C1000 C 0.68436 0.11552 0.20806 0.0
C1001 C 0.74452 0.10019 0.24188 0.0
C1002 C 0.72305 0.10288 0.23058 0.0
H1003 H 0.63949 0.12735 0.14667 0.0
H1004 H 0.66395 0.10403 0.16895 0.0
H1005 H 0.67119 0.1215 0.24077 0.0
H1006 H 0.77913 0.12894 0.27537 0.0
H1007 H 0.74205 0.13089 0.25995 0.0
C1008 C 0.66859 0.96367 0.50912 0.0
C1009 C 0.65171 0.95682 0.49477 0.0
C1010 C 0.66827 0.98477 0.51834 0.0
C1011 C 0.64625 0.04049 0.51169 0.0
H1012 H 0.64327 0.04239 0.57547 0.0
C1013 C 0.59777 0.10568 0.55753 0.0
C1014 C 0.60229 0.11072 0.57963 0.0
C1015 C 0.61092 0.09089 0.54598 0.0
C1016 C 0.64474 0.04242 0.55769 0.0
H1017 H 0.62178 0.96703 0.47817 0.0
H1018 H 0.62152 0.00411 0.49392 0.0
H1019 H 0.65257 0.00799 0.55702 0.0
H1020 H 0.62524 0.10582 0.60647 0.0
H1021 H 0.64874 0.07996 0.58606 0.0
H1022 H 0.63818 0.07476 0.5122 0.0
C1023 C 0.63488 0.99304 0.49811 0.0
C1024 C 0.64992 0.02261 0.54713 0.0
C1025 C 0.63495 0.97179 0.48923 0.0
C1026 C 0.62143 0.1022 0.58942 0.0
C1027 C 0.63469 0.08722 0.57779 0.0
C1028 C 0.64147 0.06038 0.52224 0.0
C1029 C 0.65135 -0.00041 0.51301 0.0
C1030 C 0.64983 0.02129 0.52404 0.0
C1031 C 0.62903 0.0807 0.55621 0.0
C1032 C 0.63962 0.06137 0.54535 0.0
H1033 H 0.6817 0.95249 0.51378 0.0
H1034 H 0.68112 0.98946 0.52979 0.0
H1035 H 0.64645 0.03994 0.49386 0.0
H1036 H 0.58315 0.11214 0.54954 0.0
H1037 H 0.60577 0.08624 0.52955 0.0
C1038 C 0.27499 0.37846 0.73502 0.0
C1039 C 0.28737 0.39802 0.73575 0.0
C1040 C 0.25442 0.37725 0.74534 0.0
C1041 C 0.22588 0.40067 0.7924 0.0
H1042 H 0.17632 0.36668 0.77074 0.0
C1043 C 0.16831 0.3501 0.84682 0.0
C1044 C 0.14573 0.34939 0.84203 0.0
C1045 C 0.18262 0.36226 0.83361 0.0
C1046 C 0.18983 0.3766 0.77687 0.0
H1047 H 0.28715 0.43204 0.74689 0.0
H1048 H 0.2514 0.42977 0.76499 0.0
H1049 H 0.20675 0.37572 0.74586 0.0
H1050 H 0.12008 0.36123 0.82029 0.0
H1051 H 0.1454 0.38224 0.79657 0.0
H1052 H 0.20952 0.40056 0.82368 0.0
C1053 C 0.25771 0.41537 0.75654 0.0
C1054 C 0.20732 0.38157 0.7627 0.0
C1055 C 0.27818 0.41665 0.74609 0.0
C1056 C 0.13744 0.36182 0.82439 0.0
C1057 C 0.15189 0.37365 0.8108 0.0
C1058 C 0.20852 0.3955 0.8066 0.0
C1059 C 0.24585 0.39552 0.75671 0.0
C1060 C 0.22579 0.39314 0.7705 0.0
C1061 C 0.17468 0.37356 0.81506 0.0
C1062 C 0.19064 0.38289 0.79913 0.0
H1063 H 0.28149 0.36384 0.72714 0.0
H1064 H 0.24575 0.36167 0.74535 0.0
H1065 H 0.23994 0.40948 0.79894 0.0
H1066 H 0.17503 0.34048 0.86028 0.0
H1067 H 0.20011 0.36167 0.83714 0.0
C1068 C 0.88777 0.88391 0.0719 0.0
C1069 C 0.89548 0.89001 0.09279 0.0
C1070 C 0.87609 0.89907 0.05903 0.0
C1071 C 0.87352 0.9405 0.03092 0.0
H1072 H 0.83496 0.98602 0.05377 0.0
C1073 C 0.87216 0.02878 0.99692 0.0
C1074 C 0.85208 0.04032 0.99623 0.0
C1075 C 0.87321 0.00768 0.00606 0.0
C1076 C 0.84543 0.97327 0.04696 0.0
H1077 H 0.89635 0.91587 0.11724 0.0
H1078 H 0.87573 0.94224 0.09506 0.0
H1079 H 0.84191 0.95303 0.07565 0.0
H1080 H 0.81716 0.03823 0.00388 0.0
H1081 H 0.81909 0.00145 0.01981 0.0
H1082 H 0.87758 0.96104 0.00253 0.0
C1083 C 0.87833 0.92583 0.08857 0.0
C1084 C 0.84951 0.95445 0.05956 0.0
C1085 C 0.89013 0.91077 0.1013 0.0
C1086 C 0.83295 0.02992 0.00424 0.0
C1087 C 0.83403 0.00885 0.01346 0.0
C1088 C 0.8695 0.95935 0.01835 0.0
C1089 C 0.87199 0.92048 0.06694 0.0
C1090 C 0.86413 0.93817 0.05197 0.0
C1091 C 0.85423 0.99763 0.01476 0.0
C1092 C 0.85593 0.97624 0.02652 0.0
H1093 H 0.89213 0.86806 0.06494 0.0
H1094 H 0.87127 0.89445 0.04249 0.0
H1095 H 0.88503 0.92838 0.02466 0.0
H1096 H 0.8872 0.03621 0.99086 0.0
H1097 H 0.88908 -0.00042 0.00705 0.0
C1098 C 0.34076 0.67691 0.31298 0.0
C1099 C 0.35209 0.66531 0.32954 0.0
C1100 C 0.32664 0.66609 0.2986 0.0
C1101 C 0.29095 0.61819 0.29486 0.0
H1102 H 0.28484 0.63829 0.23447 0.0
C1103 C 0.21896 0.58992 0.23981 0.0
C1104 C 0.20729 0.60724 0.22968 0.0
C1105 C 0.23963 0.59357 0.2492 0.0
C1106 C 0.28636 0.63248 0.25127 0.0
H1107 H 0.3579 0.63297 0.3435 0.0
H1108 H 0.33274 0.61382 0.31816 0.0
H1109 H 0.31657 0.64992 0.25622 0.0
H1110 H 0.20887 0.64175 0.22053 0.0
H1111 H 0.24502 0.64809 0.23689 0.0
H1112 H 0.26039 0.60126 0.29008 0.0
C1113 C 0.33493 0.63144 0.31653 0.0
C1114 C 0.30453 0.63909 0.26372 0.0
C1115 C 0.34936 0.64236 0.33096 0.0
C1116 C 0.21733 0.62805 0.22821 0.0
C1117 C 0.23811 0.63165 0.23751 0.0
C1118 C 0.27282 0.61146 0.28234 0.0
C1119 C 0.32334 0.64329 0.30026 0.0
C1120 C 0.30662 0.63266 0.2859 0.0
C1121 C 0.24924 0.61457 0.24854 0.0
C1122 C 0.26999 0.61912 0.26065 0.0
H1123 H 0.34259 0.69457 0.31118 0.0
H1124 H 0.31772 0.67581 0.28658 0.0
H1125 H 0.29197 0.61311 0.31194 0.0
H1126 H 0.21186 0.57361 0.24115 0.0
H1127 H 0.24794 0.58003 0.25734 0.0
C1128 C 0.40703 0.11861 0.39774 0.0
C1129 C 0.417 0.10383 0.38301 0.0
C1130 C 0.4198 0.12922 0.41382 0.0
C1131 C 0.46485 0.11279 0.44717 0.0
H1132 H 0.46853 0.17235 0.46973 0.0
C1133 C 0.51488 0.1302 0.52516 0.0
C1134 C 0.50648 0.14578 0.54001 0.0
C1135 C 0.50612 0.12844 0.50396 0.0
C1136 C 0.46748 0.15557 0.4638 0.0
H1137 H 0.44805 0.09036 0.37172 0.0
H1138 H 0.47025 0.10897 0.3995 0.0
H1139 H 0.44853 0.16516 0.43539 0.0
H1140 H 0.4826 0.17201 0.54425 0.0
H1141 H 0.46652 0.1682 0.50777 0.0
H1142 H 0.48237 0.10265 0.47578 0.0
C1143 C 0.45271 0.11227 0.39885 0.0
C1144 C 0.45615 0.15156 0.44407 0.0
C1145 C 0.44004 0.10175 0.38291 0.0
C1146 C 0.48949 0.1599 0.53309 0.0
C1147 C 0.48036 0.1578 0.51206 0.0
C1148 C 0.47572 0.11667 0.46699 0.0
C1149 C 0.44256 0.12504 0.41521 0.0
C1150 C 0.45489 0.13012 0.43558 0.0
C1151 C 0.48832 0.1418 0.49728 0.0
C1152 C 0.4773 0.13811 0.47562 0.0
H1153 H 0.38926 0.12019 0.3983 0.0
H1154 H 0.41164 0.13896 0.42635 0.0
H1155 H 0.4637 0.09601 0.44118 0.0
H1156 H 0.5282 0.11932 0.52996 0.0
H1157 H 0.51319 0.11636 0.4929 0.0
C1158 C 0.13884 0.15736 0.65391 0.0
C1159 C 0.15551 0.16626 0.64056 0.0
C1160 C 0.12881 0.17045 0.67013 0.0
C1161 C 0.14651 0.21386 0.70621 0.0
H1162 H 0.08572 0.22015 0.72461 0.0
C1163 C 0.12517 0.26466 0.78307 0.0
C1164 C 0.10826 0.25674 0.7967 0.0
C1165 C 0.12837 0.25573 0.76207 0.0
C1166 C 0.10281 0.21836 0.71985 0.0
H1167 H 0.17313 0.19605 0.63192 0.0
H1168 H 0.15553 0.21881 0.65989 0.0
H1169 H 0.09437 0.20012 0.69066 0.0
H1170 H 0.08127 0.2334 0.7989 0.0
H1171 H 0.08743 0.21722 0.76288 0.0
H1172 H 0.15534 0.23086 0.73558 0.0
C1173 C 0.15041 0.2018 0.65817 0.0
C1174 C 0.10768 0.20699 0.70034 0.0
C1175 C 0.16037 0.18882 0.64211 0.0
C1176 C 0.09438 0.23999 0.78874 0.0
C1177 C 0.09783 0.23079 0.76794 0.0
C1178 C 0.14172 0.22484 0.72579 0.0
C1179 C 0.13542 0.19248 0.67307 0.0
C1180 C 0.12959 0.20476 0.69333 0.0
C1181 C 0.11504 0.23834 0.75438 0.0
C1182 C 0.11982 0.22731 0.73293 0.0
H1183 H 0.13501 0.13995 0.65315 0.0
H1184 H 0.11728 0.16291 0.68148 0.0
H1185 H 0.1636 0.21199 0.7014 0.0
H1186 H 0.13596 0.27772 0.78864 0.0
H1187 H 0.14145 0.2624 0.75194 0.0
C1188 C 0.05242 0.90611 0.88796 0.0
C1189 C 0.07488 0.90083 0.88629 0.0
C1190 C 0.0393 0.8962 0.90393 0.0
C1191 C 0.03416 0.85335 0.94621 0.0
H1192 H 0.01096 0.90127 0.98158 0.0
C1193 C 0.00465 0.84125 0.03589 0.0
C1194 C 0.98818 0.85519 0.04436 0.0
C1195 C 0.01283 0.84432 0.01462 0.0
C1196 C 0.01677 0.88757 0.97175 0.0
H1197 H 0.10085 0.87966 0.89848 0.0
H1198 H 0.07769 0.8621 0.9267 0.0
H1199 H 0.02903 0.90925 0.94692 0.0
H1200 H 0.96654 0.88252 0.03674 0.0
H1201 H 0.98009 0.88735 -0.00075 0.0
H1202 H 0.0217 0.8316 0.97102 0.0
C1203 C 0.0703 0.87387 0.91552 0.0
C1204 C 0.02727 0.8922 0.95188 0.0
C1205 C 0.08352 0.88382 0.89936 0.0
C1206 C 0.97943 0.87171 0.03077 0.0
C1207 C 0.98733 0.87453 0.00931 0.0
C1208 C 0.02327 0.84864 0.96603 0.0
C1209 C 0.04841 0.88089 0.91864 0.0
C1210 C 0.0362 0.87519 0.93898 0.0
C1211 C 0.0045 0.86119 0.0011 0.0
C1212 C 0.01463 0.86575 0.97918 0.0
H1213 H 0.04539 0.91913 0.87796 0.0
H1214 H 0.02239 0.90163 0.90579 0.0
H1215 H 0.04089 0.83996 0.93652 0.0
H1216 H 0.01184 0.82842 0.046 0.0
H1217 H 0.02626 0.83394 0.00913 0.0
C1218 C 0.35111 0.8117 0.14273 0.0
C1219 C 0.35161 0.83449 0.13885 0.0
C1220 C 0.36382 0.80246 0.15947 0.0
C1221 C 0.39525 0.78602 0.19494 0.0
H1222 H 0.3806 0.81691 0.24894 0.0
C1223 C 0.41646 0.75372 0.28275 0.0
C1224 C 0.39857 0.75381 0.29751 0.0
C1225 C 0.41484 0.76421 0.26231 0.0
C1226 C 0.38494 0.80818 0.23398 0.0
H1227 H 0.367 0.86529 0.14812 0.0
H1228 H 0.38914 0.84912 0.17779 0.0
H1229 H 0.37327 0.83432 0.21348 0.0
H1230 H 0.36491 0.76489 0.30229 0.0
H1231 H 0.3622 0.78336 0.2667 0.0
H1232 H 0.40614 0.75951 0.21561 0.0
C1233 C 0.37896 0.83843 0.16777 0.0
C1234 C 0.38103 0.81825 0.21369 0.0
C1235 C 0.36645 0.84765 0.15072 0.0
C1236 C 0.37897 0.76446 0.2913 0.0
C1237 C 0.37748 0.7752 0.27102 0.0
C1238 C 0.39941 0.77603 0.21529 0.0
C1239 C 0.37702 0.8159 0.17288 0.0
C1240 C 0.38554 0.80702 0.19396 0.0
C1241 C 0.39542 0.77528 0.25639 0.0
C1242 C 0.39364 0.78678 0.23496 0.0
H1243 H 0.33979 0.80123 0.13375 0.0
H1244 H 0.36186 0.78509 0.16308 0.0
H1245 H 0.39889 0.77701 0.17997 0.0
H1246 H 0.43177 0.74558 0.287 0.0
H1247 H 0.4289 0.76402 0.25131 0.0
C1248 C 0.01527 0.36926 0.47536 0.0
C1249 C 0.01546 0.34931 0.46358 0.0
C1250 C 0.00515 0.37055 0.49602 0.0
C1251 C 0.95978 0.34527 0.52582 0.0
H1252 H 0.97956 0.38236 0.5739 0.0
C1253 C 0.9264 0.38523 0.61329 0.0
C1254 C 0.90774 0.396 0.60489 0.0
C1255 C 0.9405 0.37372 0.59907 0.0
C1256 C 0.97398 0.37159 0.56082 0.0
H1257 H 0.00636 0.31472 0.46509 0.0
H1258 H 0.98866 0.31711 0.501 0.0
H1259 H 0.00473 0.3739 0.54356 0.0
H1260 H 0.88832 0.40228 0.57568 0.0
H1261 H 0.91238 0.38161 0.55102 0.0
H1262 H 0.9287 0.34386 0.54251 0.0
C1263 C 0.99617 0.33177 0.49412 0.0
C1264 C 0.9883 0.36695 0.54336 0.0
C1265 C 0.00639 0.33042 0.47355 0.0
C1266 C 0.90253 0.39387 0.5825 0.0
C1267 C 0.91629 0.38203 0.56843 0.0
C1268 C 0.94541 0.3501 0.54314 0.0
C1269 C 0.99493 0.35196 0.50532 0.0
C1270 C 0.98114 0.35422 0.5254 0.0
C1271 C 0.93581 0.37251 0.5764 0.0
C1272 C 0.95217 0.36379 0.5605 0.0
H1273 H 0.02217 0.38411 0.46827 0.0
H1274 H 0.00433 0.3864 0.50418 0.0
H1275 H 0.95371 0.33556 0.51214 0.0
H1276 H 0.93086 0.387 0.63048 0.0
H1277 H 0.95546 0.3665 0.6056 0.0
C1278 C 0.86352 0.66006 0.85013 0.0
C1279 C 0.84198 0.66652 0.85562 0.0
C1280 C 0.87599 0.67265 0.83526 0.0
C1281 C 0.87708 0.72705 0.80636 0.0
H1282 H 0.90005 0.69357 0.75706 0.0
C1283 C 0.87773 0.75899 0.71759 0.0
C1284 C 0.89616 0.75475 0.70423 0.0
C1285 C 0.87648 0.75029 0.73884 0.0
C1286 C 0.89411 0.70318 0.77088 0.0
H1287 H 0.81723 0.69195 0.85122 0.0
H1288 H 0.83865 0.71359 0.82558 0.0
H1289 H 0.88909 0.67444 0.79068 0.0
H1290 H 0.92793 0.73833 0.70291 0.0
H1291 H 0.92545 0.72276 0.73998 0.0
H1292 H 0.8808 0.75561 0.78597 0.0
C1293 C 0.84613 0.69898 0.83257 0.0
C1294 C 0.88792 0.69223 0.79019 0.0
C1295 C 0.83371 0.6864 0.84713 0.0
C1296 C 0.91352 0.74196 0.7128 0.0
C1297 C 0.9121 0.73296 0.73396 0.0
C1298 C 0.88306 0.73793 0.78701 0.0
C1299 C 0.8672 0.69203 0.82599 0.0
C1300 C 0.87851 0.70396 0.80782 0.0
C1301 C 0.89349 0.73692 0.74712 0.0
C1302 C 0.8909 0.72601 0.76881 0.0
H1303 H 0.87029 0.6448 0.85645 0.0
H1304 H 0.89225 0.66695 0.83059 0.0
H1305 H 0.87033 0.73662 0.81983 0.0
H1306 H 0.86414 0.76885 0.71153 0.0
H1307 H 0.86181 0.75339 0.74854 0.0
C1308 C 0.56628 0.61372 0.11695 0.0
C1309 C 0.5873 0.60706 0.11007 0.0
C1310 C 0.55302 0.62642 0.10301 0.0
C1311 C 0.55197 0.65574 0.04869 0.0
H1312 H 0.49504 0.62732 0.04304 0.0
C1313 C 0.49643 0.67071 0.97299 0.0
C1314 C 0.4884 0.65129 0.9632 0.0
C1315 C 0.50548 0.67028 0.99418 0.0
C1316 C 0.51083 0.63551 0.04443 0.0
H1317 H 0.61156 0.60913 0.0841 0.0
H1318 H 0.58862 0.63121 0.05972 0.0
H1319 H 0.51796 0.61949 0.07491 0.0
H1320 H 0.48269 0.6164 0.96854 0.0
H1321 H 0.49864 0.61563 0.00519 0.0
H1322 H 0.54543 0.67052 0.01737 0.0
C1323 C 0.58233 0.62718 0.07592 0.0
C1324 C 0.52387 0.63129 0.0629 0.0
C1325 C 0.59555 0.61454 0.08986 0.0
C1326 C 0.48875 0.63167 0.97549 0.0
C1327 C 0.49776 0.63126 0.99664 0.0
C1328 C 0.53893 0.65991 0.03016 0.0
C1329 C 0.56053 0.63239 0.08189 0.0
C1330 C 0.54495 0.64072 0.06488 0.0
C1331 C 0.50663 0.65046 0.00609 0.0
C1332 C 0.51856 0.6492 0.02745 0.0
H1333 H 0.55952 0.60775 0.13236 0.0
H1334 H 0.53642 0.6304 0.10822 0.0
H1335 H 0.56798 0.66351 0.04984 0.0
H1336 H 0.49631 0.68616 0.96409 0.0
H1337 H 0.51193 0.68541 0.00109 0.0
C1338 C 0.66247 0.31097 0.3489 0.0
C1339 C 0.65555 0.33139 0.35729 0.0
C1340 C 0.64908 0.29905 0.33466 0.0
C1341 C 0.60768 0.30833 0.29258 0.0
H1342 H 0.61097 0.24464 0.28843 0.0
C1343 C 0.5809 0.26023 0.21458 0.0
C1344 C 0.59789 0.24675 0.20637 0.0
C1345 C 0.58219 0.26902 0.23584 0.0
C1346 C 0.60973 0.26241 0.28947 0.0
H1347 H 0.62864 0.35481 0.35835 0.0
H1348 H 0.605 0.33387 0.33301 0.0
H1349 H 0.62228 0.26297 0.32237 0.0
H1350 H 0.62907 0.23118 0.21432 0.0
H1351 H 0.63116 0.24629 0.25146 0.0
H1352 H 0.59584 0.30772 0.25934 0.0
C1353 C 0.62093 0.3272 0.33752 0.0
C1354 C 0.6162 0.27292 0.30886 0.0
C1355 C 0.63436 0.33911 0.35209 0.0
C1356 C 0.61578 0.24161 0.22011 0.0
C1357 C 0.61688 0.2501 0.24145 0.0
C1358 C 0.601 0.29778 0.27323 0.0
C1359 C 0.6284 0.30725 0.3283 0.0
C1360 C 0.61625 0.29605 0.31026 0.0
C1361 C 0.60027 0.26414 0.24941 0.0
C1362 C 0.60289 0.2748 0.27119 0.0
H1363 H 0.67864 0.30447 0.3528 0.0
H1364 H 0.65555 0.28396 0.32767 0.0
H1365 H 0.60765 0.32616 0.29304 0.0
H1366 H 0.56691 0.26452 0.20437 0.0
H1367 H 0.56917 0.27978 0.24162 0.0
C1368 C 0.52964 0.49562 0.15234 0.0
C1369 C 0.53812 0.51241 0.13883 0.0
C1370 C 0.50835 0.48757 0.14907 0.0
C1371 C 0.46632 0.48429 0.10516 0.0
H1372 H 0.43108 0.45743 0.15125 0.0
C1373 C 0.38579 0.44392 0.08285 0.0
C1374 C 0.38513 0.42146 0.08827 0.0
C1375 C 0.40039 0.45801 0.09351 0.0
C1376 C 0.44075 0.46496 0.13829 0.0
H1377 H 0.53042 0.53496 0.11226 0.0
H1378 H 0.4929 0.52163 0.10712 0.0
H1379 H 0.4646 0.47768 0.16094 0.0
H1380 H 0.39761 0.39637 0.11029 0.0
H1381 H 0.42353 0.42116 0.12904 0.0
H1382 H 0.44261 0.4716 0.08255 0.0
C1383 C 0.50298 0.51402 0.11972 0.0
C1384 C 0.46 0.47646 0.14376 0.0
C1385 C 0.52445 0.52178 0.12271 0.0
C1386 C 0.39774 0.41369 0.10601 0.0
C1387 C 0.41257 0.42785 0.11666 0.0
C1388 C 0.44702 0.47314 0.09978 0.0
C1389 C 0.49485 0.49637 0.13243 0.0
C1390 C 0.47322 0.48601 0.12719 0.0
C1391 C 0.41479 0.44985 0.10964 0.0
C1392 C 0.43415 0.46316 0.11621 0.0
H1393 H 0.5398 0.48797 0.16486 0.0
H1394 H 0.50291 0.47379 0.15899 0.0
H1395 H 0.47624 0.49082 0.09185 0.0
H1396 H 0.3761 0.45027 0.06925 0.0
H1397 H 0.4015 0.47497 0.08806 0.0
C1398 C 0.0329 0.00747 0.82745 0.0
C1399 C 0.04052 0.99344 0.84426 0.0
C1400 C 0.01178 0.01666 0.82857 0.0
C1401 C 0.9574 0.01044 0.85453 0.0
H1402 H 0.95549 0.07428 0.85561 0.0
C1403 C 0.8977 0.05783 0.90818 0.0
C1404 C 0.89067 0.07914 0.90256 0.0
C1405 C 0.9117 0.0461 0.89434 0.0
C1406 C 0.95547 0.05646 0.85473 0.0
H1407 H 0.03167 0.97729 0.87487 0.0
H1408 H 0.99472 0.99301 0.87659 0.0
H1409 H 0.98901 0.05555 0.8437 0.0
H1410 H 0.89159 0.10435 0.87733 0.0
H1411 H 0.91636 0.08368 0.85286 0.0
H1412 H 0.92416 0.01124 0.86618 0.0
C1413 C 0.00511 0.99698 0.86263 0.0
C1414 C 0.97473 0.04575 0.848 0.0
C1415 C 0.02632 0.98814 0.86174 0.0
C1416 C 0.89679 0.08795 0.88205 0.0
C1417 C 0.91106 0.07618 0.86816 0.0
C1418 C 0.93808 0.02113 0.861 0.0
C1419 C 0.99776 0.0116 0.84625 0.0
C1420 C 0.97616 0.02267 0.84878 0.0
C1421 C 0.91915 0.05536 0.87448 0.0
C1422 C 0.93724 0.04426 0.86221 0.0
H1423 H 0.0435 0.01191 0.8138 0.0
H1424 H 0.00648 0.02789 0.81575 0.0
H1425 H 0.95799 0.99261 0.85493 0.0
H1426 H 0.89309 0.05052 0.9238 0.0
H1427 H 0.91775 0.03029 0.89997 0.0
C1428 C 0.17467 0.6344 0.12915 0.0
C1429 C 0.15515 0.64142 0.13935 0.0
C1430 C 0.18785 0.64954 0.11775 0.0
C1431 C 0.18965 0.70643 0.09516 0.0
H1432 H 0.24869 0.70791 0.11958 0.0
C1433 C 0.24846 0.77901 0.07834 0.0
C1434 C 0.25761 0.78836 0.09749 0.0
C1435 C 0.2384 0.75831 0.07903 0.0
C1436 C 0.23232 0.70763 0.11249 0.0
H1437 H 0.1333 0.66904 0.14474 0.0
H1438 H 0.15582 0.6953 0.12437 0.0
H1439 H 0.22495 0.67623 0.12675 0.0
H1440 H 0.26436 0.78261 0.13212 0.0
H1441 H 0.24685 0.74651 0.13328 0.0
H1442 H 0.1966 0.7383 0.08181 0.0
C1443 C 0.16106 0.67826 0.12501 0.0
C1444 C 0.21881 0.68938 0.11636 0.0
C1445 C 0.14814 0.66325 0.13666 0.0
C1446 C 0.25742 0.77599 0.11708 0.0
C1447 C 0.2475 0.75521 0.11772 0.0
C1448 C 0.20321 0.7246 0.09114 0.0
C1449 C 0.1815 0.6718 0.11622 0.0
C1450 C 0.19709 0.6889 0.10832 0.0
C1451 C 0.23744 0.74637 0.09883 0.0
C1452 C 0.22445 0.72569 0.10032 0.0
H1453 H 0.18054 0.6177 0.13143 0.0
H1454 H 0.20348 0.64412 0.11106 0.0
H1455 H 0.17302 0.70647 0.08868 0.0
H1456 H 0.24836 0.78798 0.06292 0.0
H1457 H 0.23099 0.75182 0.06416 0.0
C1458 C 0.47226 0.01513 0.36306 0.0
C1459 C 0.45829 0.01002 0.34534 0.0
C1460 C 0.49343 0.00616 0.36418 0.0
C1461 C 0.52345 0.9571 0.34895 0.0
H1462 H 0.57414 0.99006 0.36943 0.0
C1463 C 0.60076 0.91248 0.38163 0.0
C1464 C 0.60702 0.9203 0.40249 0.0
C1465 C 0.58651 0.92496 0.36835 0.0
C1466 C 0.56017 0.9806 0.36363 0.0
H1467 H 0.45583 0.99194 0.31458 0.0
H1468 H 0.49273 0.97592 0.31687 0.0
H1469 H 0.5408 0.00965 0.35834 0.0
H1470 H 0.60479 0.94793 0.42503 0.0
H1471 H 0.58015 0.96936 0.40227 0.0
H1472 H 0.54216 0.92799 0.35565 0.0
C1473 C 0.48727 0.987 0.32975 0.0
C1474 C 0.54113 0.99184 0.35726 0.0
C1475 C 0.46621 0.99626 0.32844 0.0
C1476 C 0.60007 0.94135 0.40913 0.0
C1477 C 0.58608 0.95379 0.39591 0.0
C1478 C 0.54243 0.94582 0.35556 0.0
C1479 C 0.50098 0.99166 0.34778 0.0
C1480 C 0.52233 0.98016 0.3506 0.0
C1481 C 0.57858 0.94553 0.37564 0.0
C1482 C 0.5607 0.95742 0.36381 0.0
H1483 H 0.4667 0.02573 0.37629 0.0
H1484 H 0.50357 0.00986 0.37839 0.0
H1485 H 0.50914 0.94767 0.34396 0.0
H1486 H 0.60589 0.89631 0.37611 0.0
H1487 H 0.58117 0.91823 0.35272 0.0
C1488 C 0.30892 0.36366 0.63783 0.0
C1489 C 0.33182 0.36166 0.63993 0.0
C1490 C 0.29691 0.34778 0.62634 0.0
C1491 C 0.27626 0.30316 0.62396 0.0
H1492 H 0.29774 0.26378 0.57853 0.0
C1493 C 0.25133 0.21239 0.62145 0.0
C1494 C 0.24787 0.20212 0.601 0.0
C1495 C 0.25951 0.23384 0.62251 0.0
C1496 C 0.2913 0.27477 0.59103 0.0
H1497 H 0.36047 0.34267 0.63058 0.0
H1498 H 0.33957 0.31445 0.61108 0.0
H1499 H 0.31554 0.29944 0.58395 0.0
H1500 H 0.25009 0.20659 0.56556 0.0
H1501 H 0.26422 0.24416 0.5675 0.0
H1502 H 0.25213 0.27858 0.63113 0.0
C1503 C 0.33076 0.32849 0.61767 0.0
C1504 C 0.30164 0.29513 0.59427 0.0
C1505 C 0.34281 0.34468 0.6288 0.0
C1506 C 0.2526 0.21395 0.58161 0.0
C1507 C 0.2608 0.23546 0.58269 0.0
C1508 C 0.26591 0.28294 0.62066 0.0
C1509 C 0.30755 0.32923 0.61737 0.0
C1510 C 0.29459 0.30935 0.61117 0.0
C1511 C 0.26439 0.24563 0.60317 0.0
C1512 C 0.2737 0.26821 0.60462 0.0
H1513 H 0.30015 0.37662 0.64642 0.0
H1514 H 0.27913 0.34925 0.62587 0.0
H1515 H 0.27048 0.3134 0.63737 0.0
H1516 H 0.24796 0.20381 0.63672 0.0
H1517 H 0.26245 0.24101 0.63858 0.0
C1518 C 0.96057 0.50616 0.65325 0.0
C1519 C 0.95246 0.48953 0.63933 0.0
C1520 C 0.98141 0.51522 0.64981 0.0
C1521 C 0.02369 0.52109 0.60607 0.0
H1522 H 0.05876 0.54526 0.65376 0.0
C1523 C 0.10753 0.55708 0.58817 0.0
C1524 C 0.10881 0.57969 0.59291 0.0
C1525 C 0.0915 0.54402 0.59806 0.0
C1526 C 0.04909 0.53854 0.64035 0.0
H1527 H 0.96026 0.46866 0.61146 0.0
H1528 H 0.99708 0.48376 0.60596 0.0
H1529 H 0.02474 0.52526 0.66211 0.0
H1530 H 0.09582 0.60601 0.61314 0.0
H1531 H 0.06758 0.5829 0.63079 0.0
H1532 H 0.04821 0.53404 0.5844 0.0
C1533 C 0.98703 0.49042 0.6191 0.0
C1534 C 0.02955 0.52719 0.64505 0.0
C1535 C 0.96596 0.48163 0.6223 0.0
C1536 C 0.09527 0.58857 0.60943 0.0
C1537 C 0.07909 0.57539 0.6194 0.0
C1538 C 0.04333 0.53203 0.60146 0.0
C1539 C 0.99489 0.50765 0.63256 0.0
C1540 C 0.01646 0.51848 0.62793 0.0
C1541 C 0.0764 0.55331 0.61287 0.0
C1542 C 0.05615 0.54096 0.6185 0.0
H1543 H 0.95051 0.51275 0.66644 0.0
H1544 H 0.98659 0.52869 0.66028 0.0
H1545 H 0.0139 0.51522 0.59237 0.0
H1546 H 0.11786 0.54988 0.57551 0.0
H1547 H 0.08993 0.52698 0.59299 0.0
C1548 C 0.74928 0.71617 0.91465 0.0
C1549 C 0.74927 0.70162 0.8966 0.0
C1550 C 0.73887 0.73668 0.91317 0.0
C1551 C 0.69443 0.76471 0.88416 0.0
H1552 H 0.72502 0.81924 0.89724 0.0
C1553 C 0.65269 0.84748 0.86797 0.0
C1554 C 0.66493 0.85964 0.85257 0.0
C1555 C 0.66275 0.83045 0.87986 0.0
C1556 C 0.71618 0.80411 0.89386 0.0
H1557 H 0.73853 0.69732 0.86278 0.0
H1558 H 0.72012 0.73298 0.86036 0.0
H1559 H 0.74336 0.78386 0.90399 0.0
H1560 H 0.69748 0.8652 0.83906 0.0
H1561 H 0.71512 0.83597 0.86014 0.0
H1562 H 0.66756 0.78477 0.87336 0.0
C1563 C 0.72821 0.72847 0.87562 0.0
C1564 C 0.72665 0.78393 0.89772 0.0
C1565 C 0.73891 0.70815 0.87696 0.0
C1566 C 0.68772 0.85602 0.85085 0.0
C1567 C 0.69782 0.83933 0.86298 0.0
C1568 C 0.68387 0.78482 0.88061 0.0
C1569 C 0.72793 0.74283 0.89376 0.0
C1570 C 0.71608 0.76409 0.89226 0.0
C1571 C 0.68524 0.82569 0.87678 0.0
C1572 C 0.69486 0.80474 0.88483 0.0
H1573 H 0.7572 0.71165 0.92999 0.0
H1574 H 0.7389 0.74751 0.92736 0.0
H1575 H 0.68586 0.7496 0.88004 0.0
H1576 H 0.63506 0.84986 0.86943 0.0
H1577 H 0.65272 0.82023 0.8905 0.0
C1578 C 0.75055 0.27879 0.4178 0.0
C1579 C 0.74529 0.29085 0.39869 0.0
C1580 C 0.75863 0.25726 0.41625 0.0
C1581 C 0.76353 0.21028 0.37745 0.0
H1582 H 0.81442 0.19439 0.41265 0.0
C1583 C 0.84229 0.15124 0.36633 0.0
C1584 C 0.83172 0.1342 0.35493 0.0
C1585 C 0.82986 0.16674 0.37802 0.0
C1586 C 0.80017 0.19853 0.40274 0.0
H1587 H 0.74413 0.28947 0.36297 0.0
H1588 H 0.75847 0.25225 0.36029 0.0
H1589 H 0.79582 0.22943 0.41919 0.0
H1590 H 0.80047 0.11843 0.34839 0.0
H1591 H 0.77882 0.14459 0.36992 0.0
H1592 H 0.7686 0.18034 0.35995 0.0
C1593 C 0.75602 0.25925 0.37651 0.0
C1594 C 0.78937 0.21853 0.40664 0.0
C1595 C 0.74792 0.28071 0.37805 0.0
C1596 C 0.80891 0.13146 0.3572 0.0
C1597 C 0.79654 0.14664 0.36926 0.0
C1598 C 0.77437 0.19044 0.37346 0.0
C1599 C 0.76161 0.24731 0.39557 0.0
C1600 C 0.7713 0.2249 0.39359 0.0
C1601 C 0.80669 0.16525 0.37863 0.0
C1602 C 0.79319 0.18452 0.38565 0.0
H1603 H 0.74865 0.28603 0.43399 0.0
H1604 H 0.76257 0.24843 0.43124 0.0
H1605 H 0.7494 0.21449 0.36739 0.0
H1606 H 0.85986 0.15381 0.36444 0.0
H1607 H 0.83831 0.18086 0.38488 0.0
C1608 C 0.08374 0.5114 0.19776 0.0
C1609 C 0.08268 0.53176 0.20862 0.0
C1610 C 0.07477 0.49256 0.20758 0.0
C1611 C 0.0414 0.47229 0.25503 0.0
H1612 H 0.08789 0.42876 0.26041 0.0
C1613 C 0.05016 0.41758 0.3313 0.0
C1614 C 0.05798 0.39585 0.32924 0.0
C1615 C 0.04933 0.43156 0.31308 0.0
C1616 C 0.07448 0.44042 0.25878 0.0
H1617 H 0.07039 0.54894 0.23728 0.0
H1618 H 0.05424 0.51633 0.25422 0.0
H1619 H 0.09113 0.45796 0.23316 0.0
H1620 H 0.07077 0.37178 0.30611 0.0
H1621 H 0.06925 0.39628 0.2742 0.0
H1622 H 0.02512 0.45518 0.28121 0.0
C1623 C 0.06176 0.51473 0.23812 0.0
C1624 C 0.07631 0.45718 0.24308 0.0
C1625 C 0.07092 0.53345 0.22841 0.0
C1626 C 0.06479 0.38844 0.30836 0.0
C1627 C 0.06393 0.40249 0.29006 0.0
C1628 C 0.03952 0.45548 0.27066 0.0
C1629 C 0.06458 0.49389 0.22837 0.0
C1630 C 0.06016 0.47373 0.24154 0.0
C1631 C 0.05621 0.42424 0.29223 0.0
C1632 C 0.05642 0.43981 0.27327 0.0
H1633 H 0.09319 0.5097 0.1827 0.0
H1634 H 0.07704 0.47676 0.19961 0.0
H1635 H 0.02856 0.48465 0.25405 0.0
H1636 H 0.04479 0.42395 0.34708 0.0
H1637 H 0.04374 0.44832 0.31551 0.0
C1638 C 0.82679 0.79299 0.57417 0.0
C1639 C 0.84778 0.80273 0.57272 0.0
C1640 C 0.81294 0.79208 0.55589 0.0
C1641 C 0.80171 0.81934 0.5031 0.0
H1642 H 0.76064 0.77074 0.49705 0.0
C1643 C 0.72751 0.82809 0.44651 0.0
C1644 C 0.70823 0.82656 0.45919 0.0
C1645 C 0.7472 0.81882 0.45419 0.0
C1646 C 0.77217 0.7843 0.49832 0.0
H1647 H 0.87065 0.81901 0.55061 0.0
H1648 H 0.84632 0.81734 0.51848 0.0
H1649 H 0.79125 0.76787 0.52298 0.0
H1650 H 0.69367 0.81245 0.48846 0.0
H1651 H 0.72765 0.79553 0.50146 0.0
H1652 H 0.78215 0.83606 0.47901 0.0
C1653 C 0.84062 0.81054 0.53395 0.0
C1654 C 0.78961 0.78276 0.51329 0.0
C1655 C 0.85456 0.81151 0.55237 0.0
C1656 C 0.70827 0.81347 0.47822 0.0
C1657 C 0.7278 0.8039 0.4857 0.0
C1658 C 0.78437 0.8208 0.48799 0.0
C1659 C 0.81963 0.80076 0.53551 0.0
C1660 C 0.804 0.80065 0.51658 0.0
C1661 C 0.74773 0.80766 0.47449 0.0
C1662 C 0.7689 0.80365 0.4861 0.0
H1663 H 0.82086 0.78613 0.58953 0.0
H1664 H 0.79671 0.78495 0.55794 0.0
H1665 H 0.81236 0.83348 0.50524 0.0
H1666 H 0.72796 0.8385 0.43201 0.0
H1667 H 0.7623 0.82183 0.44515 0.0
C1668 C 0.41378 0.48063 0.70529 0.0
C1669 C 0.41771 0.45904 0.71253 0.0
C1670 C 0.423 0.4985 0.71655 0.0
C1671 C 0.43947 0.50925 0.77367 0.0
H1672 H 0.44892 0.56892 0.75293 0.0
C1673 C 0.45755 0.57852 0.83441 0.0
C1674 C 0.44525 0.59805 0.83215 0.0
C1675 C 0.45793 0.56286 0.81767 0.0
C1676 C 0.44623 0.55233 0.75891 0.0
H1677 H 0.43598 0.43886 0.73546 0.0
H1678 H 0.45338 0.46986 0.75419 0.0
H1679 H 0.44573 0.53874 0.72627 0.0
H1680 H 0.42444 0.61675 0.80992 0.0
H1681 H 0.42483 0.58896 0.78059 0.0
H1682 H 0.43955 0.52266 0.80614 0.0
C1683 C 0.44254 0.4732 0.74041 0.0
C1684 C 0.44447 0.53503 0.74367 0.0
C1685 C 0.43294 0.4554 0.72946 0.0
C1686 C 0.43395 0.60184 0.81227 0.0
C1687 C 0.4343 0.58601 0.79542 0.0
C1688 C 0.44135 0.5264 0.78878 0.0
C1689 C 0.43644 0.49497 0.73512 0.0
C1690 C 0.44092 0.51326 0.75089 0.0
C1691 C 0.44597 0.56615 0.79817 0.0
C1692 C 0.44462 0.54815 0.78164 0.0
H1693 H 0.40168 0.48378 0.69254 0.0
H1694 H 0.41786 0.51495 0.71198 0.0
H1695 H 0.43599 0.49293 0.77995 0.0
H1696 H 0.46683 0.57515 0.84927 0.0
H1697 H 0.46744 0.54795 0.82012 0.0
C1698 C 0.66946 0.20644 0.07796 0.0
C1699 C 0.64837 0.19698 0.07635 0.0
C1700 C 0.68362 0.20679 0.0599 0.0
C1701 C 0.69511 0.17828 0.00776 0.0
H1702 H 0.73755 0.22569 0.00174 0.0
C1703 C 0.7701 0.16769 0.95208 0.0
C1704 C 0.78917 0.16859 0.96513 0.0
C1705 C 0.75048 0.17724 0.9596 0.0
C1706 C 0.72562 0.21248 0.00299 0.0
H1707 H 0.6256 0.18065 0.05419 0.0
H1708 H 0.65044 0.18137 0.02242 0.0
H1709 H 0.70653 0.22979 0.02702 0.0
H1710 H 0.80348 0.18178 0.99495 0.0
H1711 H 0.7696 0.19919 0.00766 0.0
H1712 H 0.71465 0.16072 0.98425 0.0
C1713 C 0.65601 0.18836 0.03786 0.0
C1714 C 0.70796 0.21471 0.0176 0.0
C1715 C 0.64178 0.18793 0.05606 0.0
C1716 C 0.78902 0.18116 0.9845 0.0
C1717 C 0.76959 0.19107 0.99177 0.0
C1718 C 0.71265 0.17615 0.99298 0.0
C1719 C 0.67713 0.19781 0.03958 0.0
C1720 C 0.69307 0.19723 0.02092 0.0
C1721 C 0.74985 0.18813 0.98003 0.0
C1722 C 0.72859 0.19286 0.99113 0.0
H1723 H 0.67523 0.21349 0.0933 0.0
H1724 H 0.69993 0.21367 0.06209 0.0
H1725 H 0.68407 0.16444 0.00993 0.0
H1726 H 0.76977 0.15772 0.93728 0.0
H1727 H 0.7355 0.17481 0.95021 0.0
C1728 C 0.56524 0.96193 0.76891 0.0
C1729 C 0.57784 0.96216 0.78827 0.0
C1730 C 0.55595 0.98135 0.76085 0.0
C1731 C 0.57256 0.03802 0.75799 0.0
H1732 H 0.5203 0.04373 0.72179 0.0
C1733 C 0.56341 0.10713 0.69236 0.0
C1734 C 0.55535 0.09984 0.67188 0.0
C1735 C 0.56234 0.09344 0.71095 0.0
C1736 C 0.53498 0.04243 0.73183 0.0
H1737 H 0.58923 0.9823 0.81537 0.0
H1738 H 0.5731 0.0165 0.80115 0.0
H1739 H 0.5229 0.01366 0.74836 0.0
H1740 H 0.53993 0.07227 0.65505 0.0
H1741 H 0.53853 0.04855 0.68701 0.0
H1742 H 0.5853 0.06586 0.74051 0.0
C1743 C 0.57026 0.00126 0.79231 0.0
C1744 C 0.53638 0.0253 0.74715 0.0
C1745 C 0.57923 0.98167 0.80059 0.0
C1746 C 0.54626 0.07857 0.67049 0.0
C1747 C 0.5452 0.06498 0.68896 0.0
C1748 C 0.57123 0.05508 0.74256 0.0
C1749 C 0.55949 0.00145 0.77179 0.0
C1750 C 0.55553 0.02241 0.7598 0.0
C1751 C 0.55314 0.0722 0.70946 0.0
C1752 C 0.55281 0.05693 0.72866 0.0
H1753 H 0.56426 0.94712 0.75899 0.0
H1754 H 0.5479 0.98093 0.74493 0.0
H1755 H 0.58766 0.03611 0.76731 0.0
H1756 H 0.5704 0.12345 0.69409 0.0
H1757 H 0.56857 0.09953 0.72651 0.0
C1758 C 0.27285 0.3218 0.04577 0.0
C1759 C 0.28967 0.32357 0.02999 0.0
C1760 C 0.25279 0.31182 0.04022 0.0
C1761 C 0.20966 0.31347 0.01471 0.0
H1762 H 0.20294 0.26847 0.97001 0.0
C1763 C 0.1473 0.32029 0.94389 0.0
C1764 C 0.14031 0.30107 0.93318 0.0
C1765 C 0.1617 0.31891 0.96187 0.0
C1766 C 0.20416 0.2808 0.98282 0.0
H1767 H 0.29994 0.31423 0.99718 0.0
H1768 H 0.26544 0.29653 0.9876 0.0
H1769 H 0.23644 0.2698 0.99169 0.0
H1770 H 0.14091 0.2654 0.93402 0.0
H1771 H 0.1651 0.26294 0.96589 0.0
H1772 H 0.17753 0.32478 0.00549 0.0
C1773 C 0.26737 0.30279 0.00419 0.0
C1774 C 0.22355 0.28165 0.99514 0.0
C1775 C 0.28722 0.31293 0.00965 0.0
C1776 C 0.1464 0.28049 0.94182 0.0
C1777 C 0.16037 0.27909 0.96 0.0
C1778 C 0.19015 0.31252 0.00248 0.0
C1779 C 0.24947 0.3033 0.01892 0.0
C1780 C 0.22696 0.29861 0.01049 0.0
C1781 C 0.16903 0.29827 0.96965 0.0
C1782 C 0.18755 0.29676 0.98571 0.0
H1783 H 0.2743 0.33011 0.0615 0.0
H1784 H 0.23941 0.31219 0.05202 0.0
H1785 H 0.21175 0.32684 0.02632 0.0
H1786 H 0.14286 0.33633 0.93746 0.0
H1787 H 0.16812 0.33407 0.96871 0.0
C1788 C 0.92343 0.02178 0.29649 0.0
C1789 C 0.91938 0.03892 0.28148 0.0
C1790 C 0.93375 0.00238 0.2894 0.0
C1791 C 0.96212 0.9764 0.24127 0.0
H1792 H 0.92489 0.92631 0.25485 0.0
C1793 C 0.96768 0.89903 0.18839 0.0
C1794 C 0.94737 0.89031 0.18157 0.0
C1795 C 0.96879 0.91357 0.20614 0.0
C1796 C 0.93548 0.9401 0.25089 0.0
H1797 H 0.92487 0.05033 0.24815 0.0
H1798 H 0.94303 0.01694 0.23588 0.0
H1799 H 0.92103 0.96021 0.27598 0.0
H1800 H 0.91247 0.88889 0.18861 0.0
H1801 H 0.91409 0.91514 0.21908 0.0
H1802 H 0.9753 0.95716 0.21507 0.0
C1803 C 0.93832 0.01816 0.25304 0.0
C1804 C 0.93353 0.95945 0.26326 0.0
C1805 C 0.92786 0.03735 0.26004 0.0
C1806 C 0.92832 0.89537 0.19362 0.0
C1807 C 0.92934 0.91035 0.21115 0.0
C1808 C 0.96394 0.95717 0.22881 0.0
C1809 C 0.94038 1e-05 0.2673 0.0
C1810 C 0.94623 0.97811 0.25801 0.0
C1811 C 0.94952 0.92019 0.21717 0.0
C1812 C 0.9501 0.93901 0.23294 0.0
H1813 H 0.91687 0.02254 0.31307 0.0
H1814 H 0.93537 0.98878 0.30084 0.0
H1815 H 0.97235 0.99037 0.237 0.0
H1816 H 0.98269 0.89507 0.17956 0.0
H1817 H 0.98469 0.92025 0.21066 0.0
C1818 C 0.22739 0.67286 0.54649 0.0
C1819 C 0.20916 0.67183 0.5323 0.0
C1820 C 0.24713 0.68249 0.53932 0.0
C1821 C 0.28844 0.6819 0.51073 0.0
H1822 H 0.29177 0.72815 0.46691 0.0
C1823 C 0.35045 0.68006 0.43872 0.0
C1824 C 0.35674 0.69997 0.42881 0.0
C1825 C 0.3356 0.68007 0.45642 0.0
C1826 C 0.29148 0.71543 0.47941 0.0
H1827 H 0.19634 0.68187 0.50062 0.0
H1828 H 0.23028 0.69895 0.48826 0.0
H1829 H 0.25941 0.72535 0.49016 0.0
H1830 H 0.35411 0.73552 0.43081 0.0
H1831 H 0.32911 0.73561 0.46211 0.0
H1832 H 0.32046 0.67185 0.49981 0.0
C1833 C 0.22969 0.69243 0.50485 0.0
C1834 C 0.27272 0.71371 0.49263 0.0
C1835 C 0.21014 0.68267 0.51192 0.0
C1836 C 0.3492 0.71989 0.43788 0.0
C1837 C 0.33475 0.71992 0.45577 0.0
C1838 C 0.30732 0.68372 0.49761 0.0
C1839 C 0.24878 0.69139 0.51795 0.0
C1840 C 0.27057 0.69641 0.50784 0.0
C1841 C 0.32708 0.70002 0.46478 0.0
C1842 C 0.30876 0.70004 0.48121 0.0
H1843 H 0.22711 0.66434 0.56217 0.0
H1844 H 0.26145 0.68172 0.54992 0.0
H1845 H 0.28733 0.66826 0.52217 0.0
H1846 H 0.35599 0.66448 0.43202 0.0
H1847 H 0.32997 0.66438 0.46274 0.0
C1848 C 0.20162 0.07665 0.51928 0.0
C1849 C 0.21435 0.07485 0.5385 0.0
C1850 C 0.20941 0.06792 0.49938 0.0
C1851 C 0.25418 0.03436 0.47387 0.0
H1852 H 0.25912 0.0836 0.43346 0.0
C1853 C 0.32895 0.04532 0.41782 0.0
C1854 C 0.32663 0.05461 0.39671 0.0
C1855 C 0.31102 0.04392 0.43211 0.0
C1856 C 0.25756 0.06945 0.44421 0.0
H1857 H 0.24381 0.06071 0.55269 0.0
H1858 H 0.25703 0.04483 0.51835 0.0
H1859 H 0.23323 0.08552 0.46402 0.0
H1860 H 0.30332 0.06955 0.37411 0.0
H1861 H 0.27187 0.06712 0.39922 0.0
H1862 H 0.27916 0.01865 0.45456 0.0
C1863 C 0.24117 0.05301 0.51838 0.0
C1864 C 0.24263 0.07052 0.46174 0.0
C1865 C 0.23358 0.06203 0.53812 0.0
C1866 C 0.30576 0.06242 0.39027 0.0
C1867 C 0.28773 0.06102 0.40466 0.0
C1868 C 0.26902 0.03323 0.45628 0.0
C1869 C 0.22986 0.05701 0.49856 0.0
C1870 C 0.24141 0.05336 0.47726 0.0
C1871 C 0.29016 0.05171 0.42576 0.0
C1872 C 0.27155 0.05116 0.44178 0.0
H1873 H 0.18693 0.08681 0.5191 0.0
H1874 H 0.20026 0.07107 0.48439 0.0
H1875 H 0.25342 0.02076 0.48541 0.0
H1876 H 0.34472 0.03912 0.42346 0.0
H1877 H 0.31367 0.03713 0.44839 0.0
C1878 C 0.16869 0.94476 0.76727 0.0
C1879 C 0.16998 0.95747 0.78653 0.0
C1880 C 0.17845 0.95228 0.74776 0.0
C1881 C 0.21404 0.99599 0.72352 0.0
H1882 H 0.1657 0.00361 0.68242 0.0
C1883 C 0.20657 0.0725 0.66969 0.0
C1884 C 0.19737 0.07129 0.64846 0.0
C1885 C 0.2072 0.05405 0.68332 0.0
C1886 C 0.17962 0.00127 0.69333 0.0
H1887 H 0.18421 0.98657 0.80132 0.0
H1888 H 0.20193 -0.00071 0.76767 0.0
H1889 H 0.16231 0.97719 0.71237 0.0
H1890 H 0.18172 0.04943 0.62492 0.0
H1891 H 0.18283 0.01702 0.64889 0.0
H1892 H 0.23101 0.0207 0.70499 0.0
C1893 C 0.19336 0.98364 0.76738 0.0
C1894 C 0.1777 0.98604 0.71052 0.0
C1895 C 0.18329 0.97634 0.78671 0.0
C1896 C 0.18881 0.05101 0.64122 0.0
C1897 C 0.18946 0.03243 0.65494 0.0
C1898 C 0.21603 0.01108 0.70624 0.0
C1899 C 0.1899 0.97242 0.74742 0.0
C1900 C 0.1945 0.98394 0.72633 0.0
C1901 C 0.19872 0.03375 0.67617 0.0
C1902 C 0.19844 0.01463 0.69155 0.0
H1903 H 0.15816 0.93036 0.76667 0.0
H1904 H 0.17566 0.94323 0.73263 0.0
H1905 H 0.22735 0.99454 0.73532 0.0
H1906 H 0.21327 0.0878 0.67595 0.0
H1907 H 0.21392 0.05589 0.69974 0.0
C1908 C 0.16737 0.95185 0.91774 0.0
C1909 C 0.16939 0.94276 0.89652 0.0
C1910 C 0.18535 0.9526 0.93197 0.0
C1911 C 0.23844 0.92596 0.94342 0.0
H1912 H 0.24276 0.97358 0.98582 0.0
C1913 C 0.29461 0.91782 0.01851 0.0
C1914 C 0.28157 0.91834 0.03762 0.0
C1915 C 0.28663 0.92682 0.99882 0.0
C1916 C 0.24197 0.96033 0.97391 0.0
H1917 H 0.19216 0.9274 0.87365 0.0
H1918 H 0.22379 0.92879 0.89864 0.0
H1919 H 0.21739 0.97679 0.9548 0.0
H1920 H 0.25121 0.93039 0.05188 0.0
H1921 H 0.23766 0.94685 0.01787 0.0
H1922 H 0.26254 0.90923 0.96299 0.0
C1923 C 0.2081 0.93521 0.90423 0.0
C1924 C 0.22733 0.96204 0.95624 0.0
C1925 C 0.18998 0.93439 0.88992 0.0
C1926 C 0.26162 0.93002 0.03738 0.0
C1927 C 0.25389 0.9394 0.01788 0.0
C1928 C 0.25327 0.92435 0.96098 0.0
C1929 C 0.20599 0.9444 0.92542 0.0
C1930 C 0.22464 0.94445 0.94136 0.0
C1931 C 0.26574 0.93683 0.99815 0.0
C1932 C 0.2545 0.94112 0.9769 0.0
H1933 H 0.15178 0.95835 0.92353 0.0
H1934 H 0.18288 0.95923 0.94834 0.0
H1935 H 0.23678 0.91205 0.93237 0.0
H1936 H 0.30988 0.90859 0.01823 0.0
H1937 H 0.29611 0.92471 0.98384 0.0
C1938 C 0.29315 0.91788 0.16972 0.0
C1939 C 0.30061 0.92075 0.14797 0.0
C1940 C 0.29171 0.93571 0.18411 0.0
C1941 C 0.31486 0.99062 0.19415 0.0
H1942 H 0.27012 0.99143 0.23982 0.0
C1943 C 0.32521 0.04645 0.26901 0.0
C1944 C 0.32629 0.03341 0.28809 0.0
C1945 C 0.31527 0.03819 0.2499 0.0
C1946 C 0.28256 0.99161 0.22702 0.0
H1947 H 0.31215 0.94491 0.12429 0.0
H1948 H 0.3096 0.97619 0.14955 0.0
H1949 H 0.26666 0.96586 0.20898 0.0
H1950 H 0.31602 0.00274 0.30302 0.0
H1951 H 0.29807 0.98863 0.27008 0.0
H1952 H 0.33117 0.01578 0.21265 0.0
C1953 C 0.305 0.95999 0.15544 0.0
C1954 C 0.28069 0.97687 0.20943 0.0
C1955 C 0.30647 0.94205 0.14095 0.0
C1956 C 0.31519 0.01316 0.28855 0.0
C1957 C 0.30494 0.00509 0.26963 0.0
C1958 C 0.31664 0.00548 0.21167 0.0
C1959 C 0.29762 0.957 0.17722 0.0
C1960 C 0.29733 0.97552 0.19331 0.0
C1961 C 0.30597 0.01696 0.24977 0.0
C1962 C 0.30098 0.00549 0.22876 0.0
H1963 H 0.28851 0.90176 0.1758 0.0
H1964 H 0.28646 0.93265 0.20089 0.0
H1965 H 0.32803 0.99 0.18213 0.0
H1966 H 0.33395 0.06199 0.26819 0.0
H1967 H 0.31617 0.04774 0.23485 0.0
C1968 C 0.73402 0.42951 0.46433 0.0
C1969 C 0.71347 0.41912 0.4627 0.0
C1970 C 0.74041 0.43955 0.48394 0.0
C1971 C 0.75122 0.46122 0.52705 0.0
H1972 H 0.74269 0.41899 0.57421 0.0
C1973 C 0.80702 0.46432 0.60244 0.0
C1974 C 0.81577 0.44393 0.60899 0.0
C1975 C 0.78852 0.4653 0.58886 0.0
C1976 C 0.74523 0.43098 0.56126 0.0
H1977 H 0.68269 0.41256 0.47943 0.0
H1978 H 0.69381 0.43033 0.51397 0.0
H1979 H 0.72065 0.41619 0.54081 0.0
H1980 H 0.81143 0.4086 0.60761 0.0
H1981 H 0.77964 0.41012 0.58296 0.0
H1982 H 0.77704 0.47488 0.54646 0.0
C1983 C 0.70501 0.43065 0.50008 0.0
C1984 C 0.7323 0.42962 0.54222 0.0
C1985 C 0.69851 0.42077 0.48025 0.0
C1986 C 0.80493 0.42451 0.60279 0.0
C1987 C 0.78663 0.42546 0.58876 0.0
C1988 C 0.76425 0.46248 0.54595 0.0
C1989 C 0.72646 0.43916 0.50244 0.0
C1990 C 0.73581 0.44417 0.52452 0.0
C1991 C 0.77864 0.44588 0.58102 0.0
C1992 C 0.76201 0.44686 0.56296 0.0
H1993 H 0.7459 0.42818 0.45105 0.0
H1994 H 0.75711 0.44573 0.48514 0.0
H1995 H 0.75414 0.47286 0.51384 0.0
H1996 H 0.81492 0.47956 0.60733 0.0
H1997 H 0.7825 0.48132 0.58383 0.0
C1998 C 0.82751 0.44654 0.73218 0.0
C1999 C 0.82895 0.46008 0.71351 0.0
C2000 C 0.81781 0.45457 0.75156 0.0
C2001 C 0.78727 0.5029 0.77493 0.0
H2002 H 0.82767 0.49592 0.82389 0.0
C2003 C 0.78173 0.56127 0.84855 0.0
C2004 C 0.80182 0.56934 0.85665 0.0
C2005 C 0.7812 0.54284 0.83485 0.0
C2006 C 0.81623 0.49811 0.81038 0.0
H2007 H 0.81998 0.49159 0.69957 0.0
H2008 H 0.80289 0.50549 0.73287 0.0
H2009 H 0.83129 0.47232 0.79168 0.0
H2010 H 0.83704 0.56405 0.85767 0.0
H2011 H 0.83643 0.53248 0.83269 0.0
H2012 H 0.77342 0.52988 0.79254 0.0
C2013 C 0.80896 0.48872 0.7329 0.0
C2014 C 0.81805 0.48426 0.79204 0.0
C2015 C 0.81875 0.48078 0.71373 0.0
C2016 C 0.82135 0.55809 0.85161 0.0
C2017 C 0.82091 0.53989 0.83741 0.0
C2018 C 0.78564 0.5169 0.79308 0.0
C2019 C 0.80936 0.47617 0.75239 0.0
C2020 C 0.8041 0.48706 0.77373 0.0
C2021 C 0.80084 0.53236 0.82839 0.0
C2022 C 0.80056 0.5152 0.81078 0.0
H2023 H 0.83562 0.43064 0.73244 0.0
H2024 H 0.81812 0.44439 0.76621 0.0
H2025 H 0.77603 0.50528 0.76128 0.0
H2026 H 0.76636 0.56946 0.85256 0.0
H2027 H 0.76538 0.53719 0.82888 0.0
C2028 C 0.67492 0.54332 0.08051 0.0
C2029 C 0.67511 0.55378 0.10119 0.0
C2030 C 0.69385 0.54246 0.06755 0.0
C2031 C 0.74567 0.57158 0.05743 0.0
H2032 H 0.7552 0.52227 0.01789 0.0
C2033 C 0.80271 0.58155 0.98371 0.0
C2034 C 0.79045 0.57855 0.96434 0.0
C2035 C 0.79534 0.57247 0.0036 0.0
C2036 C 0.75297 0.53604 0.02901 0.0
H2037 H 0.69573 0.57128 0.12454 0.0
H2038 H 0.72899 0.56978 0.10173 0.0
H2039 H 0.72872 0.51888 0.04798 0.0
H2040 H 0.76231 0.56222 0.94992 0.0
H2041 H 0.74984 0.54572 0.98428 0.0
H2042 H 0.76924 0.58903 0.0379 0.0
C2043 C 0.71399 0.56234 0.09559 0.0
C2044 C 0.7377 0.53419 0.04616 0.0
C2045 C 0.69493 0.5632 0.10866 0.0
C2046 C 0.77222 0.56439 0.9646 0.0
C2047 C 0.76506 0.55503 0.98434 0.0
C2048 C 0.76106 0.57337 0.04037 0.0
C2049 C 0.71363 0.55198 0.07484 0.0
C2050 C 0.73312 0.55229 0.05992 0.0
C2051 C 0.77577 0.56007 0.00426 0.0
C2052 C 0.76416 0.55595 0.0254 0.0
H2053 H 0.66003 0.53586 0.07409 0.0
H2054 H 0.69274 0.53482 0.05147 0.0
H2055 H 0.74252 0.58588 0.06762 0.0
H2056 H 0.81658 0.59279 0.98394 0.0
H2057 H 0.80398 0.5765 0.01868 0.0
C2058 C 0.68229 0.4376 0.35057 0.0
C2059 C 0.7013 0.425 0.35432 0.0
C2060 C 0.68261 0.45477 0.33514 0.0
C2061 C 0.71379 0.47098 0.28539 0.0
H2062 H 0.67308 0.52016 0.286 0.0
C2063 C 0.67302 0.54174 0.22426 0.0
C2064 C 0.66729 0.52733 0.2071 0.0
C2065 C 0.68372 0.53366 0.24307 0.0
C2066 C 0.68495 0.50684 0.28571 0.0
H2067 H 0.73599 0.42162 0.34653 0.0
H2068 H 0.73683 0.45201 0.32045 0.0
H2069 H 0.67856 0.49855 0.3194 0.0
H2070 H 0.66992 0.49387 0.19506 0.0
H2071 H 0.68871 0.47988 0.22741 0.0
H2072 H 0.71999 0.4791 0.25168 0.0
C2073 C 0.72141 0.44819 0.32857 0.0
C2074 C 0.68782 0.49421 0.30478 0.0
C2075 C 0.72097 0.43082 0.3436 0.0
C2076 C 0.67422 0.50531 0.20808 0.0
C2077 C 0.68506 0.49733 0.22665 0.0
C2078 C 0.71106 0.4837 0.26644 0.0
C2079 C 0.70206 0.45988 0.32349 0.0
C2080 C 0.70166 0.47561 0.30462 0.0
C2081 C 0.68907 0.51115 0.24478 0.0
C2082 C 0.69594 0.50121 0.26609 0.0
H2083 H 0.66692 0.43342 0.35861 0.0
H2084 H 0.66731 0.46321 0.33156 0.0
H2085 H 0.72448 0.45674 0.28444 0.0
H2086 H 0.66765 0.55876 0.22394 0.0
H2087 H 0.68681 0.54476 0.25669 0.0
C2088 C 0.5194 0.20044 0.07716 0.0
C2089 C 0.53874 0.21308 0.07659 0.0
C2090 C 0.50015 0.2083 0.06716 0.0
C2091 C 0.46299 0.24216 0.06782 0.0
H2092 H 0.45848 0.27751 0.01486 0.0
C2093 C 0.42082 0.32807 0.03816 0.0
C2094 C 0.39947 0.32624 0.04699 0.0
C2095 C 0.43506 0.31005 0.03795 0.0
C2096 C 0.45946 0.26774 0.02976 0.0
H2097 H 0.55396 0.2425 0.06351 0.0
H2098 H 0.52075 0.25584 0.04538 0.0
H2099 H 0.48898 0.2516 0.01895 0.0
H2100 H 0.37635 0.30375 0.06239 0.0
H2101 H 0.40129 0.27211 0.06189 0.0
H2102 H 0.43443 0.25928 0.07936 0.0
C2103 C 0.52022 0.23997 0.05353 0.0
C2104 C 0.47683 0.25277 0.03198 0.0
C2105 C 0.5393 0.23232 0.06383 0.0
C2106 C 0.39273 0.30581 0.05562 0.0
C2107 C 0.40703 0.28767 0.05531 0.0
C2108 C 0.44573 0.25727 0.0657 0.0
C2109 C 0.50015 0.22873 0.05623 0.0
C2110 C 0.47921 0.24039 0.05136 0.0
C2111 C 0.42838 0.28958 0.04642 0.0
C2112 C 0.44424 0.27085 0.047 0.0
H2113 H 0.51853 0.18576 0.08728 0.0
H2114 H 0.48493 0.19925 0.06937 0.0
H2115 H 0.46452 0.23307 0.0831 0.0
H2116 H 0.42669 0.34354 0.03147 0.0
H2117 H 0.45154 0.31236 0.03151 0.0
C2118 C 0.03527 0.27026 0.93333 0.0
C2119 C 0.03467 0.28911 0.92002 0.0
C2120 C 0.016 0.26228 0.94299 0.0
C2121 C 0.97233 0.24887 0.96341 0.0
H2122 H 0.93147 0.23994 0.9151 0.0
C2123 C 0.91944 0.17156 0.95687 0.0
C2124 C 0.89829 0.17243 0.94745 0.0
C2125 C 0.93286 0.19017 0.95738 0.0
C2126 C 0.94232 0.24264 0.929 0.0
H2127 H 0.01406 0.31528 0.90739 0.0
H2128 H 0.98013 0.30127 0.92426 0.0
H2129 H 0.96096 0.26679 0.91141 0.0
H2130 H 0.8746 0.19387 0.93141 0.0
H2131 H 0.89814 0.22654 0.93235 0.0
H2132 H 0.95418 0.2241 0.98069 0.0
C2133 C 0.99551 0.29279 0.92741 0.0
C2134 C 0.95924 0.2581 0.9269 0.0
C2135 C 0.01492 0.30095 0.91799 0.0
C2136 C 0.89085 0.19254 0.93865 0.0
C2137 C 0.90434 0.21127 0.9392 0.0
C2138 C 0.95531 0.23352 0.96558 0.0
C2139 C 0.99571 0.27278 0.9391 0.0
C2140 C 0.97495 0.26073 0.94372 0.0
C2141 C 0.92553 0.21028 0.94857 0.0
C2142 C 0.9407 0.22953 0.94802 0.0
H2143 H 0.05028 0.26066 0.93468 0.0
H2144 H 0.0167 0.24672 0.9517 0.0
H2145 H 0.98405 0.25073 0.97673 0.0
H2146 H 0.92583 0.15639 0.96377 0.0
H2147 H 0.94926 0.18859 0.96423 0.0
C2148 C 0.94975 0.76683 0.17438 0.0
C2149 C 0.96465 0.78417 0.17097 0.0
C2150 C 0.95692 0.7472 0.18422 0.0
C2151 C 0.98364 0.70456 0.18294 0.0
H2152 H 0.03173 0.70186 0.22479 0.0
C2153 C 0.05512 0.64299 0.175 0.0
C2154 C 0.06752 0.63761 0.19372 0.0
C2155 C 0.03704 0.65723 0.17678 0.0
C2156 C 0.01801 0.70195 0.2134 0.0
H2157 H 0.99788 0.79564 0.17679 0.0
H2158 H 0.01029 0.76189 0.1942 0.0
H2159 H 0.00904 0.73464 0.22296 0.0
H2160 H 0.06966 0.64097 0.22918 0.0
H2161 H 0.03762 0.66485 0.23248 0.0
H2162 H 0.99286 0.67196 0.17313 0.0
C2163 C 0.99314 0.76312 0.18944 0.0
C2164 C 0.00511 0.72094 0.21223 0.0
C2165 C 0.98607 0.78251 0.17943 0.0
C2166 C 0.06056 0.64522 0.21442 0.0
C2167 C 0.04227 0.65901 0.21628 0.0
C2168 C 0.99645 0.68543 0.18425 0.0
C2169 C 0.97899 0.74484 0.19096 0.0
C2170 C 0.98846 0.72288 0.19629 0.0
C2171 C 0.03082 0.666 0.19739 0.0
C2172 C 0.01442 0.68425 0.19883 0.0
H2173 H 0.93322 0.76769 0.16771 0.0
H2174 H 0.94559 0.73347 0.18537 0.0
H2175 H 0.97099 0.70551 0.17041 0.0
H2176 H 0.06021 0.63735 0.15885 0.0
H2177 H 0.02882 0.66235 0.1618 0.0
C2178 C 0.48777 0.69918 0.41058 0.0
C2179 C 0.46611 0.7032 0.41757 0.0
C2180 C 0.5055 0.70926 0.4212 0.0
C2181 C 0.51325 0.76198 0.44885 0.0
H2182 H 0.57505 0.746 0.44594 0.0
C2183 C 0.58061 0.82646 0.46346 0.0
C2184 C 0.5981 0.82689 0.44821 0.0
C2185 C 0.56615 0.80864 0.4643 0.0
C2186 C 0.55785 0.75069 0.44679 0.0
H2187 H 0.44598 0.71872 0.44249 0.0
H2188 H 0.47701 0.73557 0.46186 0.0
H2189 H 0.54684 0.71744 0.4423 0.0
H2190 H 0.61438 0.80839 0.42233 0.0
H2191 H 0.58871 0.77733 0.42352 0.0
H2192 H 0.52407 0.7952 0.45263 0.0
C2193 C 0.48036 0.72509 0.44781 0.0
C2194 C 0.54168 0.73433 0.44481 0.0
C2195 C 0.46259 0.71511 0.43702 0.0
C2196 C 0.60105 0.80867 0.4342 0.0
C2197 C 0.58645 0.79079 0.43501 0.0
C2198 C 0.52934 0.77824 0.45092 0.0
C2199 C 0.50183 0.72359 0.43903 0.0
C2200 C 0.51914 0.73985 0.44532 0.0
C2201 C 0.56864 0.79074 0.44988 0.0
C2202 C 0.55183 0.7729 0.44948 0.0
H2203 H 0.4908 0.69037 0.39534 0.0
H2204 H 0.52169 0.70768 0.41388 0.0
H2205 H 0.49615 0.76707 0.44878 0.0
H2206 H 0.57795 0.83998 0.47479 0.0
H2207 H 0.55286 0.80898 0.47622 0.0
C2208 C 0.54638 0.22823 0.66837 0.0
C2209 C 0.5338 0.20884 0.66888 0.0
C2210 C 0.5379 0.24777 0.67729 0.0
C2211 C 0.50451 0.28535 0.67458 0.0
H2212 H 0.46576 0.29021 0.72509 0.0
C2213 C 0.44079 0.35636 0.68334 0.0
C2214 C 0.41966 0.34952 0.69002 0.0
C2215 C 0.45881 0.34192 0.68472 0.0
C2216 C 0.47652 0.28914 0.7109 0.0
H2217 H 0.50374 0.19394 0.68088 0.0
H2218 H 0.48929 0.22764 0.69709 0.0
H2219 H 0.49167 0.25954 0.72277 0.0
H2220 H 0.40107 0.32198 0.70336 0.0
H2221 H 0.43207 0.29702 0.70533 0.0
H2222 H 0.48849 0.31415 0.66204 0.0
C2223 C 0.50557 0.22801 0.68978 0.0
C2224 C 0.49145 0.27165 0.70966 0.0
C2225 C 0.51386 0.20865 0.68056 0.0
C2226 C 0.41704 0.32795 0.6981 0.0
C2227 C 0.43495 0.31363 0.69948 0.0
C2228 C 0.48948 0.30279 0.67576 0.0
C2229 C 0.5169 0.24804 0.68712 0.0
C2230 C 0.50505 0.2691 0.69111 0.0
C2231 C 0.45608 0.32039 0.69288 0.0
C2232 C 0.47471 0.3044 0.69352 0.0
H2233 H 0.56163 0.22885 0.6591 0.0
H2234 H 0.54707 0.26292 0.67517 0.0
H2235 H 0.51457 0.28373 0.65993 0.0
H2236 H 0.44346 0.37287 0.67715 0.0
H2237 H 0.47488 0.34768 0.67955 0.0
C2238 C 0.97761 0.79917 0.57768 0.0
C2239 C 0.9581 0.7869 0.57579 0.0
C2240 C 0.99732 0.79107 0.56879 0.0
C2241 C 0.02191 0.74707 0.53385 0.0
H2242 H 0.0627 0.73975 0.58248 0.0
C2243 C 0.0782 0.67197 0.54021 0.0
C2244 C 0.09926 0.67364 0.54978 0.0
C2245 C 0.06391 0.68995 0.5399 0.0
C2246 C 0.05186 0.74199 0.5685 0.0
H2247 H 0.94329 0.75783 0.56156 0.0
H2248 H 0.97733 0.74414 0.54526 0.0
H2249 H 0.03228 0.76571 0.58577 0.0
H2250 H 0.12176 0.69587 0.56636 0.0
H2251 H 0.09669 0.72747 0.56573 0.0
H2252 H 0.04105 0.72287 0.51681 0.0
C2253 C 0.97762 0.75989 0.55364 0.0
C2254 C 0.0344 0.75694 0.57037 0.0
C2255 C 0.95806 0.76776 0.56286 0.0
C2256 C 0.10565 0.69393 0.55897 0.0
C2257 C 0.09126 0.71205 0.55861 0.0
C2258 C 0.03947 0.73227 0.53189 0.0
C2259 C 0.99768 0.77078 0.5576 0.0
C2260 C 0.01876 0.75902 0.5534 0.0
C2261 C 0.07019 0.71026 0.54905 0.0
C2262 C 0.05413 0.72887 0.54955 0.0
H2263 H 0.97812 0.81373 0.58799 0.0
H2264 H 0.01251 0.79988 0.57196 0.0
H2265 H 0.01026 0.7485 0.52041 0.0
H2266 H 0.07256 0.65664 0.53303 0.0
H2267 H 0.04766 0.6877 0.5329 0.0
C2268 C 0.4535 0.72701 0.83018 0.0
C2269 C 0.4669 0.70816 0.83098 0.0
C2270 C 0.46145 0.74648 0.82068 0.0
C2271 C 0.50693 0.77085 0.78781 0.0
H2272 H 0.50885 0.81498 0.83398 0.0
C2273 C 0.57957 0.82956 0.79668 0.0
C2274 C 0.57662 0.85109 0.80472 0.0
C2275 C 0.56199 0.81485 0.7957 0.0
C2276 C 0.5081 0.80318 0.82062 0.0
H2277 H 0.49798 0.69406 0.8207 0.0
H2278 H 0.51152 0.72764 0.80339 0.0
H2279 H 0.48385 0.78379 0.83734 0.0
H2280 H 0.55254 0.87403 0.81783 0.0
H2281 H 0.52163 0.84819 0.81604 0.0
H2282 H 0.53167 0.78981 0.7714 0.0
C2283 C 0.49502 0.7276 0.81021 0.0
C2284 C 0.49372 0.78528 0.82254 0.0
C2285 C 0.48728 0.70834 0.82008 0.0
C2286 C 0.55545 0.85755 0.81167 0.0
C2287 C 0.53774 0.84274 0.81064 0.0
C2288 C 0.52114 0.78884 0.78578 0.0
C2289 C 0.4827 0.74717 0.81147 0.0
C2290 C 0.49365 0.76848 0.8066 0.0
C2291 C 0.54082 0.82118 0.80263 0.0
C2292 C 0.52263 0.8047 0.80264 0.0
H2293 H 0.43786 0.72736 0.83879 0.0
H2294 H 0.45158 0.76132 0.82177 0.0
H2295 H 0.50704 0.75826 0.77517 0.0
H2296 H 0.59559 0.82386 0.79125 0.0
H2297 H 0.56518 0.79825 0.78999 0.0
C2298 C 0.94063 0.14113 0.31077 0.0
C2299 C 0.91934 0.1481 0.30477 0.0
C2300 C 0.95845 0.15579 0.3099 0.0
C2301 C 0.97507 0.21041 0.28688 0.0
H2302 H 0.0143 0.21244 0.33718 0.0
C2303 C 0.01267 0.28866 0.32236 0.0
C2304 C 0.03335 0.28786 0.33263 0.0
C2305 C 0.00399 0.26995 0.31225 0.0
C2306 C 0.00388 0.2118 0.32271 0.0
H2307 H 0.90022 0.17609 0.29324 0.0
H2308 H 0.9309 0.20149 0.29226 0.0
H2309 H 0.98838 0.18206 0.33353 0.0
H2310 H 0.06192 0.26751 0.33912 0.0
H2311 H 0.04656 0.23449 0.32164 0.0
H2312 H 0.98966 0.24097 0.2769 0.0
C2313 C 0.93406 0.18461 0.29709 0.0
C2314 C 0.98896 0.19437 0.32064 0.0
C2315 C 0.91635 0.17002 0.2979 0.0
C2316 C 0.04605 0.26859 0.33101 0.0
C2317 C 0.03717 0.24967 0.32124 0.0
C2318 C 0.98985 0.22792 0.28906 0.0
C2319 C 0.95536 0.17773 0.30303 0.0
C2320 C 0.97379 0.19392 0.30314 0.0
C2321 C 0.01566 0.24995 0.31261 0.0
C2322 C 0.00387 0.22918 0.3074 0.0
H2323 H 0.94357 0.12433 0.31601 0.0
H2324 H 0.97466 0.14991 0.31449 0.0
H2325 H 0.96402 0.21027 0.27288 0.0
H2326 H 0.00251 0.30329 0.32361 0.0
H2327 H 0.98732 0.27067 0.30591 0.0
C2328 C 0.0712 0.26618 0.43158 0.0
C2329 C 0.0833 0.28105 0.41856 0.0
C2330 C 0.08197 0.25093 0.44497 0.0
C2331 C 0.13485 0.22262 0.45373 0.0
H2332 H 0.11379 0.21673 0.51378 0.0
C2333 C 0.18405 0.17691 0.52096 0.0
C2334 C 0.17222 0.16407 0.53619 0.0
C2335 C 0.173 0.19029 0.50587 0.0
C2336 C 0.11969 0.21792 0.49698 0.0
H2337 H 0.11629 0.29111 0.40905 0.0
H2338 H 0.13507 0.26444 0.43254 0.0
H2339 H 0.09495 0.24153 0.48851 0.0
H2340 H 0.13941 0.15495 0.54716 0.0
H2341 H 0.12018 0.17805 0.52061 0.0
H2342 H 0.15961 0.19899 0.46222 0.0
C2343 C 0.11722 0.26459 0.43224 0.0
C2344 C 0.10891 0.23216 0.48252 0.0
C2345 C 0.10645 0.27993 0.41886 0.0
C2346 C 0.14906 0.16472 0.53578 0.0
C2347 C 0.13802 0.17805 0.52062 0.0
C2348 C 0.1456 0.2083 0.46819 0.0
C2349 C 0.10507 0.25013 0.44563 0.0
C2350 C 0.1164 0.2347 0.46077 0.0
C2351 C 0.14987 0.19108 0.50559 0.0
C2352 C 0.13817 0.20584 0.49 0.0
H2353 H 0.05336 0.26646 0.43172 0.0
H2354 H 0.07218 0.23977 0.45488 0.0
H2355 H 0.14083 0.22407 0.43698 0.0
H2356 H 0.2019 0.1769 0.52084 0.0
H2357 H 0.18263 0.20036 0.49472 0.0
C2358 C 0.07808 0.89404 0.78166 0.0
C2359 C 0.07908 0.91717 0.78204 0.0
C2360 C 0.06434 0.88323 0.76672 0.0
C2361 C 0.03334 0.89135 0.71484 0.0
H2362 H -0.00059 0.84148 0.73583 0.0
C2363 C 0.96121 0.85269 0.66586 0.0
C2364 C 0.96043 0.82954 0.66533 0.0
C2365 C 0.97627 0.86352 0.6795 0.0
C2366 C 0.00894 0.85525 0.72968 0.0
H2367 H 0.06649 0.94704 0.76682 0.0
H2368 H 0.04237 0.92818 0.74111 0.0
H2369 H 0.02498 0.85987 0.76066 0.0
H2370 H 0.97513 0.79967 0.67857 0.0
H2371 H 0.00127 0.81858 0.70218 0.0
H2372 H 0.01701 0.88682 0.68389 0.0
C2373 C 0.05246 0.91839 0.7521 0.0
C2374 C 0.02362 0.86575 0.74387 0.0
C2375 C 0.06623 0.9292 0.76697 0.0
C2376 C 0.97518 0.81752 0.67857 0.0
C2377 C 0.99011 0.82833 0.69223 0.0
C2378 C 0.01856 0.88089 0.70065 0.0
C2379 C 0.05126 0.8953 0.75189 0.0
C2380 C 0.036 0.88391 0.73661 0.0
C2381 C 0.99073 0.85141 0.69294 0.0
C2382 C 0.00625 0.86272 0.70794 0.0
H2383 H 0.08784 0.88425 0.79295 0.0
H2384 H 0.06402 0.86539 0.76674 0.0
H2385 H 0.04285 0.90512 0.70867 0.0
H2386 H 0.95012 0.86246 0.65588 0.0
H2387 H 0.97631 0.88136 0.67986 0.0
C2388 C 0.39637 0.71722 0.91732 0.0
C2389 C 0.41952 0.71634 0.9166 0.0
C2390 C 0.38567 0.73294 0.93029 0.0
C2391 C 0.39443 0.76694 0.97931 0.0
H2392 H 0.34279 0.79866 0.95908 0.0
C2393 C 0.35285 0.8334 0.03267 0.0
C2394 C 0.32969 0.83315 0.03339 0.0
C2395 C 0.3642 0.82063 0.01726 0.0
C2396 C 0.35708 0.78979 0.96502 0.0
H2397 H 0.44953 0.73178 0.92858 0.0
H2398 H 0.43081 0.75911 0.95109 0.0
H2399 H 0.36173 0.77345 0.93409 0.0
H2400 H 0.30034 0.81939 0.01822 0.0
H2401 H 0.32015 0.79689 0.99171 0.0
H2402 H 0.38961 0.78283 0.01034 0.0
C2403 C 0.42099 0.74749 0.94179 0.0
C2404 C 0.36792 0.77539 0.95071 0.0
C2405 C 0.43168 0.73186 0.92877 0.0
C2406 C 0.31817 0.82008 0.01812 0.0
C2407 C 0.32953 0.80725 0.00279 0.0
C2408 C 0.38355 0.78124 0.99364 0.0
C2409 C 0.39789 0.74803 0.94288 0.0
C2410 C 0.38665 0.76377 0.95775 0.0
C2411 C 0.35267 0.80725 0.00229 0.0
C2412 C 0.3647 0.79276 0.9867 0.0
H2413 H 0.38648 0.70555 0.90814 0.0
H2414 H 0.36783 0.73288 0.93096 0.0
H2415 H 0.40863 0.75794 0.98529 0.0
H2416 H 0.36225 0.84339 0.04407 0.0
H2417 H 0.38203 0.82125 0.01708 0.0
C2418 C 0.53281 0.14784 0.16643 0.0
C2419 C 0.53388 0.17097 0.16703 0.0
C2420 C 0.51743 0.13652 0.17927 0.0
C2421 C 0.46525 0.144 0.20998 0.0
H2422 H 0.48387 0.091 0.24039 0.0
C2423 C 0.4149 0.10343 0.27991 0.0
C2424 C 0.41385 0.08029 0.28024 0.0
C2425 C 0.4285 0.11429 0.26485 0.0
C2426 C 0.47834 0.10562 0.23178 0.0
H2427 H 0.51951 0.2003 0.18167 0.0
H2428 H 0.49299 0.18053 0.20425 0.0
H2429 H 0.50976 0.1103 0.21657 0.0
H2430 H 0.42591 0.05048 0.26451 0.0
H2431 H 0.44951 0.06948 0.23826 0.0
H2432 H 0.43389 0.13944 0.22552 0.0
C2433 C 0.5038 0.17117 0.19357 0.0
C2434 C 0.49317 0.11667 0.21812 0.0
C2435 C 0.51913 0.1825 0.1807 0.0
C2436 C 0.42634 0.06831 0.26482 0.0
C2437 C 0.43999 0.07917 0.24984 0.0
C2438 C 0.45043 0.13298 0.22371 0.0
C2439 C 0.5028 0.14805 0.19304 0.0
C2440 C 0.48682 0.13603 0.20712 0.0
C2441 C 0.4414 0.10226 0.24986 0.0
C2442 C 0.45685 0.1137 0.2348 0.0
H2443 H 0.54383 0.13842 0.15602 0.0
H2444 H 0.51689 0.11872 0.17827 0.0
H2445 H 0.45975 0.15869 0.20147 0.0
H2446 H 0.40551 0.1132 0.29152 0.0
H2447 H 0.42939 0.1321 0.26538 0.0
C2448 C 0.56503 0.22802 0.56648 0.0
C2449 C 0.57736 0.21349 0.57967 0.0
C2450 C 0.57556 0.2433 0.5529 0.0
C2451 C 0.62839 0.27203 0.54455 0.0
H2452 H 0.60786 0.27862 0.4844 0.0
C2453 C 0.67982 0.31557 0.47807 0.0
C2454 C 0.66886 0.32933 0.46298 0.0
C2455 C 0.66795 0.30255 0.4928 0.0
C2456 C 0.6136 0.27721 0.50124 0.0
H2457 H 0.61053 0.20388 0.58905 0.0
H2458 H 0.62886 0.23045 0.56525 0.0
H2459 H 0.58844 0.25393 0.50945 0.0
H2460 H 0.63669 0.34017 0.45168 0.0
H2461 H 0.61596 0.3175 0.47759 0.0
H2462 H 0.65364 0.29518 0.53632 0.0
C2463 C 0.61101 0.23013 0.5656 0.0
C2464 C 0.60248 0.26306 0.51557 0.0
C2465 C 0.60049 0.21481 0.57915 0.0
C2466 C 0.64568 0.32974 0.46302 0.0
C2467 C 0.63379 0.31668 0.4778 0.0
C2468 C 0.63948 0.2862 0.53023 0.0
C2469 C 0.59867 0.24444 0.55223 0.0
C2470 C 0.60989 0.26017 0.53732 0.0
C2471 C 0.64481 0.30295 0.49285 0.0
C2472 C 0.63233 0.28878 0.50835 0.0
H2473 H 0.54718 0.22754 0.56648 0.0
H2474 H 0.56561 0.25429 0.54297 0.0
H2475 H 0.63427 0.27041 0.56132 0.0
H2476 H 0.69765 0.31472 0.47848 0.0
H2477 H 0.67693 0.29188 0.50393 0.0
C2478 C 0.9215 0.39429 0.71163 0.0
C2479 C 0.921 0.41741 0.71042 0.0
C2480 C 0.93604 0.38368 0.72598 0.0
C2481 C 0.96861 0.39273 0.77629 0.0
H2482 H 0.00197 0.34215 0.75608 0.0
C2483 C 0.03849 0.35367 0.82782 0.0
C2484 C 0.03926 0.33053 0.8283 0.0
C2485 C 0.0243 0.36456 0.81332 0.0
C2486 C 0.99261 0.35612 0.76204 0.0
H2487 H 0.93546 0.44748 0.72344 0.0
H2488 H 0.96075 0.42894 0.74827 0.0
H2489 H 0.97624 0.36024 0.73109 0.0
H2490 H 0.02555 0.30073 0.81394 0.0
H2491 H 0.00076 0.3197 0.78903 0.0
H2492 H 0.98485 0.38856 0.80729 0.0
C2493 C 0.94977 0.41904 0.73828 0.0
C2494 C 0.97787 0.36645 0.74773 0.0
C2495 C 0.93534 0.42964 0.72392 0.0
C2496 C 0.02552 0.31857 0.81398 0.0
C2497 C 0.01136 0.32944 0.79956 0.0
C2498 C 0.9833 0.38237 0.79063 0.0
C2499 C 0.95028 0.39597 0.73948 0.0
C2500 C 0.96572 0.38485 0.75472 0.0
C2501 C 0.01061 0.35254 0.79902 0.0
C2502 C 0.99542 0.36392 0.78367 0.0
H2503 H 0.9107 0.38436 0.70148 0.0
H2504 H 0.93596 0.36585 0.72672 0.0
H2505 H 0.95925 0.40673 0.78221 0.0
H2506 H 0.04889 0.36339 0.83857 0.0
H2507 H 0.02424 0.3824 0.81311 0.0
C2508 C 0.89558 0.78348 0.08143 0.0
C2509 C 0.91868 0.78515 0.0808 0.0
C2510 C 0.88453 0.76927 0.06707 0.0
C2511 C 0.89136 0.74041 0.01411 0.0
H2512 H 0.84296 0.70435 0.03498 0.0
C2513 C 0.85221 0.67193 0.96104 0.0
C2514 C 0.8291 0.6703 0.96152 0.0
C2515 C 0.86321 0.68586 0.97569 0.0
C2516 C 0.8563 0.71448 0.02886 0.0
H2517 H 0.94827 0.77292 0.0647 0.0
H2518 H 0.929 0.74813 0.03995 0.0
H2519 H 0.8618 0.72896 0.06053 0.0
H2520 H 0.79946 0.68222 0.97775 0.0
H2521 H 0.81866 0.70655 0.00303 0.0
H2522 H 0.88585 0.72598 0.98244 0.0
C2523 C 0.91942 0.75802 0.05131 0.0
C2524 C 0.86707 0.72858 0.04348 0.0
C2525 C 0.93045 0.77217 0.06563 0.0
C2526 C 0.81729 0.68296 0.97693 0.0
C2527 C 0.82828 0.69684 0.99155 0.0
C2528 C 0.88059 0.72633 -0.00051 0.0
C2529 C 0.89635 0.75649 0.05179 0.0
C2530 C 0.88473 0.74167 0.03626 0.0
C2531 C 0.85135 0.69842 0.99112 0.0
C2532 C 0.86294 0.71321 0.0067 0.0
H2533 H 0.88598 0.79325 0.09285 0.0
H2534 H 0.8667 0.76858 0.06768 0.0
H2535 H 0.90469 0.75056 0.00798 0.0
H2536 H 0.86184 0.66241 0.94944 0.0
H2537 H 0.88104 0.68656 0.97513 0.0
C2538 C 0.47102 0.67749 0.30885 0.0
C2539 C 0.45767 0.66669 0.32441 0.0
C2540 C 0.48471 0.66554 0.29483 0.0
C2541 C 0.51322 0.61248 0.28968 0.0
H2542 H 0.52027 0.63081 0.22886 0.0
C2543 C 0.56485 0.56389 0.22588 0.0
C2544 C 0.57814 0.57627 0.21147 0.0
C2545 C 0.55002 0.57432 0.24004 0.0
C2546 C 0.51864 0.62564 0.24587 0.0
H2547 H 0.44807 0.63469 0.33713 0.0
H2548 H 0.47198 0.61374 0.3124 0.0
H2549 H 0.49356 0.64953 0.25227 0.0
H2550 H 0.58656 0.60943 0.20107 0.0
H2551 H 0.56074 0.62761 0.22589 0.0
H2552 H 0.53839 0.58859 0.2832 0.0
C2553 C 0.47193 0.63155 0.31131 0.0
C2554 C 0.50331 0.63632 0.25926 0.0
C2555 C 0.45814 0.64355 0.32537 0.0
C2556 C 0.57658 0.59937 0.21191 0.0
C2557 C 0.56167 0.60979 0.22601 0.0
C2558 C 0.52854 0.60174 0.27624 0.0
C2559 C 0.48541 0.64246 0.29594 0.0
C2560 C 0.50061 0.63003 0.28138 0.0
C2561 C 0.54807 0.59736 0.24004 0.0
C2562 C 0.53156 0.60838 0.25426 0.0
H2563 H 0.47113 0.69529 0.30757 0.0
H2564 H 0.49512 0.67446 0.28341 0.0
H2565 H 0.51171 0.60743 0.30673 0.0
H2566 H 0.56562 0.54606 0.22604 0.0
H2567 H 0.53966 0.5643 0.25056 0.0
C2568 C 0.27497 0.43428 0.05708 0.0
C2569 C 0.28318 0.4155 0.0678 0.0
C2570 C 0.26019 0.44827 0.06777 0.0
C2571 C 0.23999 0.46244 0.12377 0.0
H2572 H 0.19644 0.49539 0.09067 0.0
C2573 C 0.1921 0.53307 0.16405 0.0
C2574 C 0.17006 0.53641 0.15797 0.0
C2575 C 0.20531 0.51834 0.1524 0.0
C2576 C 0.20828 0.48612 0.10027 0.0
H2577 H 0.28183 0.39614 0.09774 0.0
H2578 H 0.25522 0.41994 0.11608 0.0
H2579 H 0.21921 0.46839 0.07192 0.0
H2580 H 0.14446 0.5271 0.13493 0.0
H2581 H 0.1672 0.50054 0.1151 0.0
H2582 H 0.22831 0.47923 0.15231 0.0
C2583 C 0.26078 0.4244 0.09974 0.0
C2584 C 0.22163 0.47085 0.08941 0.0
C2585 C 0.27593 0.41065 0.0892 0.0
C2586 C 0.16148 0.52491 0.13985 0.0
C2587 C 0.17457 0.50978 0.12844 0.0
C2588 C 0.22636 0.47737 0.13468 0.0
C2589 C 0.25294 0.44358 0.08928 0.0
C2590 C 0.23786 0.45899 0.10097 0.0
C2591 C 0.19663 0.50618 0.13468 0.0
C2592 C 0.21053 0.48966 0.12305 0.0
H2593 H 0.28046 0.43853 0.04063 0.0
H2594 H 0.25494 0.46307 0.05931 0.0
H2595 H 0.25246 0.45391 0.13324 0.0
H2596 H 0.19921 0.54197 0.1778 0.0
H2597 H 0.22236 0.51656 0.15731 0.0
C2598 C 0.77192 0.06541 0.9346 0.0
C2599 C 0.78626 0.07909 0.92258 0.0
C2600 C 0.75669 0.05205 0.92377 0.0
C2601 C 0.74584 0.02627 0.86995 0.0
H2602 H 0.68691 0.0184 0.89346 0.0
C2603 C 0.67846 0.98061 0.82195 0.0
C2604 C 0.66602 0.96494 0.83366 0.0
C2605 C 0.69237 0.99512 0.83302 0.0
C2606 C 0.70337 0.02032 0.88683 0.0
H2607 H 0.79554 0.08964 0.88969 0.0
H2608 H 0.76871 0.06655 0.87083 0.0
H2609 H 0.71267 0.04299 0.91215 0.0
H2610 H 0.65812 0.95267 0.86632 0.0
H2611 H 0.68252 0.97813 0.88565 0.0
H2612 H 0.73652 0.00368 0.8446 0.0
C2613 C 0.76954 0.06591 0.88864 0.0
C2614 C 0.71812 0.03437 0.89751 0.0
C2615 C 0.78485 0.07923 0.89946 0.0
C2616 C 0.66747 0.96449 0.85678 0.0
C2617 C 0.68136 0.97913 0.86787 0.0
C2618 C 0.73108 0.01232 0.85923 0.0
C2619 C 0.75537 0.05209 0.90068 0.0
C2620 C 0.73953 0.03748 0.88919 0.0
C2621 C 0.69414 0.99439 0.85605 0.0
C2622 C 0.7097 0.00921 0.86756 0.0
H2623 H 0.77259 0.06478 0.95242 0.0
H2624 H 0.74624 0.04137 0.93351 0.0
H2625 H 0.76233 0.02797 0.86335 0.0
H2626 H 0.67773 0.98154 0.80415 0.0
H2627 H 0.70177 0.00694 0.82351 0.0
C2628 C 0.81805 0.01731 0.31653 0.0
C2629 C 0.83175 0.03159 0.32858 0.0
C2630 C 0.80443 0.00227 0.32734 0.0
C2631 C 0.77746 0.99327 0.3808 0.0
H2632 H 0.76736 0.93435 0.35823 0.0
C2633 C 0.72809 0.929 0.4293 0.0
C2634 C 0.71233 0.91665 0.41763 0.0
C2635 C 0.7432 0.94219 0.41817 0.0
C2636 C 0.76988 0.95083 0.36459 0.0
H2637 H 0.84238 0.04068 0.36149 0.0
H2638 H 0.81885 0.0142 0.38031 0.0
H2639 H 0.7935 0.95861 0.33957 0.0
H2640 H 0.70043 0.90828 0.38497 0.0
H2641 H 0.72692 0.93151 0.36549 0.0
H2642 H 0.75389 0.98553 0.4058 0.0
C2643 C 0.81835 0.01496 0.36249 0.0
C2644 C 0.78484 0.96471 0.35393 0.0
C2645 C 0.83194 0.03006 0.35169 0.0
C2646 C 0.71231 0.91758 0.39448 0.0
C2647 C 0.72754 0.93078 0.38331 0.0
C2648 C 0.76258 0.9794 0.39147 0.0
C2649 C 0.80424 0.00111 0.35044 0.0
C2650 C 0.78879 0.98608 0.36194 0.0
C2651 C 0.743 0.94336 0.39509 0.0
C2652 C 0.75866 0.95804 0.3835 0.0
H2653 H 0.81742 0.01803 0.29871 0.0
H2654 H 0.79358 0.992 0.31759 0.0
H2655 H 0.77977 0.00979 0.38713 0.0
H2656 H 0.72872 0.92865 0.44714 0.0
H2657 H 0.75514 0.95144 0.42767 0.0
C2658 C 0.33068 0.46631 0.64207 0.0
C2659 C 0.33051 0.46483 0.66518 0.0
C2660 C 0.31726 0.48157 0.63125 0.0
C2661 C 0.28466 0.53248 0.64003 0.0
H2662 H 0.25393 0.51311 0.58751 0.0
C2663 C 0.21318 0.58147 0.59984 0.0
C2664 C 0.21328 0.5828 0.5767 0.0
C2665 C 0.22822 0.56789 0.61081 0.0
C2666 C 0.26257 0.51884 0.60203 0.0
H2667 H 0.3162 0.47852 0.69502 0.0
H2668 H 0.29265 0.50477 0.67613 0.0
H2669 H 0.2791 0.48802 0.60611 0.0
H2670 H 0.22962 0.57113 0.54704 0.0
H2671 H 0.25573 0.54763 0.56619 0.0
H2672 H 0.26781 0.56325 0.63602 0.0
C2673 C 0.3034 0.49439 0.66638 0.0
C2674 C 0.27704 0.50449 0.61266 0.0
C2675 C 0.31685 0.47921 0.6772 0.0
C2676 C 0.22896 0.57049 0.56486 0.0
C2677 C 0.24388 0.55689 0.57581 0.0
C2678 C 0.2701 0.54683 0.62943 0.0
C2679 C 0.30331 0.49564 0.64327 0.0
C2680 C 0.28827 0.51113 0.63177 0.0
C2681 C 0.24357 0.5553 0.59887 0.0
C2682 C 0.25894 0.54015 0.6103 0.0
H2683 H 0.34107 0.4556 0.63228 0.0
H2684 H 0.31783 0.48235 0.61343 0.0
H2685 H 0.29327 0.53821 0.65457 0.0
H2686 H 0.20136 0.59072 0.60948 0.0
H2687 H 0.22751 0.56685 0.62861 0.0
loop_
_geom_bond_atom_site_label_1
_geom_bond_atom_site_label_2
_geom_bond_distance
_geom_bond_site_symmetry_2
_ccdc_geom_bond_type
Sc0 O3 2.025 . S
Sc0 O10 2.105 1_455 S
Sc0 O13 2.105 . S
Sc0 O16 2.105 . S
Sc0 O19 2.105 . S
Sc1 O3 2.025 . S
Sc1 O11 2.105 . S
Sc1 O15 2.105 . S
Sc1 O17 2.105 . S
Sc1 O21 2.105 . S
Sc2 O3 2.025 . S
Sc2 O12 2.105 . S
Sc2 O14 2.105 . S
Sc2 O18 2.105 . S
Sc2 O20 2.105 1_455 S
O3 Sc0 2.025 . S
O3 Sc1 2.025 . S
O3 Sc2 2.025 . S
C4 O10 1.268 . S
C4 O20 1.268 . S
C5 O11 1.268 . S
C5 O19 1.268 . S
C6 O12 1.268 . S
C6 O21 1.268 . S
C7 O13 1.268 . S
C7 O17 1.268 . S
C8 O14 1.268 . S
C8 O16 1.268 . S
C9 O15 1.268 . S
C9 O18 1.268 . S
O10 Sc0 2.105 1_655 S
O10 C4 1.268 . S
O11 Sc1 2.105 . S
O11 C5 1.268 . S
O12 Sc2 2.105 . S
O12 C6 1.268 . S
O13 Sc0 2.105 . S
O13 C7 1.268 . S
O14 Sc2 2.105 . S
O14 C8 1.268 . S
O15 Sc1 2.105 . S
O15 C9 1.268 . S
O16 Sc0 2.105 . S
O16 C8 1.268 . S
O17 Sc1 2.105 . S
O17 C7 1.268 . S
O18 Sc2 2.105 . S
O18 C9 1.268 . S
O19 Sc0 2.105 . S
O19 C5 1.268 . S
O20 Sc2 2.105 1_655 S
O20 C4 1.268 . S
O21 Sc1 2.105 . S
O21 C6 1.268 . S
Sc22 O25 2.025 . S
Sc22 O32 2.105 . S
Sc22 O35 2.105 . S
Sc22 O38 2.105 . S
Sc22 O41 2.105 . S
Sc23 O25 2.025 . S
Sc23 O33 2.105 . S
Sc23 O37 2.105 . S
Sc23 O39 2.105 . S
Sc23 O43 2.105 . S
Sc24 O25 2.025 . S
Sc24 O34 2.105 . S
Sc24 O36 2.105 . S
Sc24 O40 2.105 . S
Sc24 O42 2.105 . S
O25 Sc22 2.025 . S
O25 Sc23 2.025 . S
O25 Sc24 2.025 . S
C26 O32 1.268 . S
C26 O42 1.268 . S
C27 O33 1.268 . S
C27 O41 1.268 . S
C28 O34 1.268 . S
C28 O43 1.268 . S
C29 O35 1.268 . S
C29 O39 1.268 . S
C30 O36 1.268 . S
C30 O38 1.268 . S
C31 O37 1.268 . S
C31 O40 1.268 . S
O32 Sc22 2.105 . S
O32 C26 1.268 . S
O33 Sc23 2.105 . S
O33 C27 1.268 . S
O34 Sc24 2.105 . S
O34 C28 1.268 . S
O35 Sc22 2.105 . S
O35 C29 1.268 . S
O36 Sc24 2.105 . S
O36 C30 1.268 . S
O37 Sc23 2.105 . S
O37 C31 1.268 . S
O38 Sc22 2.105 . S
O38 C30 1.268 . S
O39 Sc23 2.105 . S
O39 C29 1.268 . S
O40 Sc24 2.105 . S
O40 C31 1.268 . S
O41 Sc22 2.105 . S
O41 C27 1.268 . S
O42 Sc24 2.105 . S
O42 C26 1.268 . S
O43 Sc23 2.105 . S
O43 C28 1.268 . S
Sc44 O47 2.025 . S
Sc44 O54 2.105 . S
Sc44 O57 2.105 . S
Sc44 O60 2.105 . S
Sc44 O63 2.105 . S
Sc45 O47 2.025 . S
Sc45 O55 2.105 . S
Sc45 O59 2.105 . S
Sc45 O61 2.105 . S
Sc45 O65 2.105 . S
Sc46 O47 2.025 . S
Sc46 O56 2.105 . S
Sc46 O58 2.105 . S
Sc46 O62 2.105 . S
Sc46 O64 2.105 . S
O47 Sc44 2.025 . S
O47 Sc45 2.025 . S
O47 Sc46 2.025 . S
C48 O54 1.268 . S
C48 O64 1.268 . S
C49 O55 1.268 . S
C49 O63 1.268 . S
C50 O56 1.268 . S
C50 O65 1.268 . S
C51 O57 1.268 . S
C51 O61 1.268 . S
C52 O58 1.268 . S
C52 O60 1.268 . S
C53 O59 1.268 . S
C53 O62 1.268 . S
O54 Sc44 2.105 . S
O54 C48 1.268 . S
O55 Sc45 2.105 . S
O55 C49 1.268 . S
O56 Sc46 2.105 . S
O56 C50 1.268 . S
O57 Sc44 2.105 . S
O57 C51 1.268 . S
O58 Sc46 2.105 . S
O58 C52 1.268 . S
O59 Sc45 2.105 . S
O59 C53 1.268 . S
O60 Sc44 2.105 . S
O60 C52 1.268 . S
O61 Sc45 2.105 . S
O61 C51 1.268 . S
O62 Sc46 2.105 . S
O62 C53 1.268 . S
O63 Sc44 2.105 . S
O63 C49 1.268 . S
O64 Sc46 2.105 . S
O64 C48 1.268 . S
O65 Sc45 2.105 . S
O65 C50 1.268 . S
Sc66 O69 2.025 . S
Sc66 O76 2.105 . S
Sc66 O79 2.105 . S
Sc66 O82 2.105 . S
Sc66 O85 2.105 . S
Sc67 O69 2.025 . S
Sc67 O77 2.105 . S
Sc67 O81 2.105 . S
Sc67 O83 2.105 . S
Sc67 O87 2.105 . S
Sc68 O69 2.025 . S
Sc68 O78 2.105 . S
Sc68 O80 2.105 . S
Sc68 O84 2.105 . S
Sc68 O86 2.105 . S
O69 Sc66 2.025 . S
O69 Sc67 2.025 . S
O69 Sc68 2.025 . S
C70 O76 1.268 . S
C70 O86 1.268 . S
C71 O77 1.268 . S
C71 O85 1.268 . S
C72 O78 1.268 . S
C72 O87 1.268 . S
C73 O79 1.268 . S
C73 O83 1.268 . S
C74 O80 1.268 . S
C74 O82 1.268 . S
C75 O81 1.268 . S
C75 O84 1.268 . S
O76 Sc66 2.105 . S
O76 C70 1.268 . S
O77 Sc67 2.105 . S
O77 C71 1.268 . S
O78 Sc68 2.105 . S
O78 C72 1.268 . S
O79 Sc66 2.105 . S
O79 C73 1.268 . S
O80 Sc68 2.105 . S
O80 C74 1.268 . S
O81 Sc67 2.105 . S
O81 C75 1.268 . S
O82 Sc66 2.105 . S
O82 C74 1.268 . S
O83 Sc67 2.105 . S
O83 C73 1.268 . S
O84 Sc68 2.105 . S
O84 C75 1.268 . S
O85 Sc66 2.105 . S
O85 C71 1.268 . S
O86 Sc68 2.105 . S
O86 C70 1.268 . S
O87 Sc67 2.105 . S
O87 C72 1.268 . S
Sc88 O91 2.025 . S
Sc88 O98 2.105 . S
Sc88 O101 2.105 . S
Sc88 O104 2.105 . S
Sc88 O107 2.105 . S
Sc89 O91 2.025 . S
Sc89 O99 2.105 . S
Sc89 O103 2.105 . S
Sc89 O105 2.105 . S
Sc89 O109 2.105 . S
Sc90 O91 2.025 . S
Sc90 O100 2.105 . S
Sc90 O102 2.105 . S
Sc90 O106 2.105 . S
Sc90 O108 2.105 . S
O91 Sc88 2.025 . S
O91 Sc89 2.025 . S
O91 Sc90 2.025 . S
C92 O98 1.268 . S
C92 O108 1.268 . S
C93 O99 1.268 . S
C93 O107 1.268 . S
C94 O100 1.268 . S
C94 O109 1.268 . S
C95 O101 1.268 . S
C95 O105 1.268 . S
C96 O102 1.268 . S
C96 O104 1.268 . S
C97 O103 1.268 . S
C97 O106 1.268 . S
O98 Sc88 2.105 . S
O98 C92 1.268 . S
O99 Sc89 2.105 . S
O99 C93 1.268 . S
O100 Sc90 2.105 . S
O100 C94 1.268 . S
O101 Sc88 2.105 . S
O101 C95 1.268 . S
O102 Sc90 2.105 . S
O102 C96 1.268 . S
O103 Sc89 2.105 . S
O103 C97 1.268 . S
O104 Sc88 2.105 . S
O104 C96 1.268 . S
O105 Sc89 2.105 . S
O105 C95 1.268 . S
O106 Sc90 2.105 . S
O106 C97 1.268 . S
O107 Sc88 2.105 . S
O107 C93 1.268 . S
O108 Sc90 2.105 . S
O108 C92 1.268 . S
O109 Sc89 2.105 . S
O109 C94 1.268 . S
Sc110 O113 2.025 . S
Sc110 O120 2.105 . S
Sc110 O123 2.105 . S
Sc110 O126 2.105 . S
Sc110 O129 2.105 . S
Sc111 O113 2.025 . S
Sc111 O121 2.105 . S
Sc111 O125 2.105 . S
Sc111 O127 2.105 . S
Sc111 O131 2.105 . S
Sc112 O113 2.025 . S
Sc112 O122 2.105 . S
Sc112 O124 2.105 . S
Sc112 O128 2.105 . S
Sc112 O130 2.105 . S
O113 Sc110 2.025 . S
O113 Sc111 2.025 . S
O113 Sc112 2.025 . S
C114 O120 1.268 . S
C114 O130 1.268 . S
C115 O121 1.268 . S
C115 O129 1.268 . S
C116 O122 1.268 . S
C116 O131 1.268 . S
C117 O123 1.268 . S
C117 O127 1.268 . S
C118 O124 1.268 . S
C118 O126 1.268 . S
C119 O125 1.268 . S
C119 O128 1.268 . S
O120 Sc110 2.105 . S
O120 C114 1.268 . S
O121 Sc111 2.105 . S
O121 C115 1.268 . S
O122 Sc112 2.105 . S
O122 C116 1.268 . S
O123 Sc110 2.105 . S
O123 C117 1.268 . S
O124 Sc112 2.105 . S
O124 C118 1.268 . S
O125 Sc111 2.105 . S
O125 C119 1.268 . S
O126 Sc110 2.105 . S
O126 C118 1.268 . S
O127 Sc111 2.105 . S
O127 C117 1.268 . S
O128 Sc112 2.105 . S
O128 C119 1.268 . S
O129 Sc110 2.105 . S
O129 C115 1.268 . S
O130 Sc112 2.105 . S
O130 C114 1.268 . S
O131 Sc111 2.105 . S
O131 C116 1.268 . S
Sc132 O135 2.025 . S
Sc132 O142 2.105 . S
Sc132 O145 2.105 . S
Sc132 O148 2.105 1_655 S
Sc132 O151 2.105 . S
Sc133 O135 2.025 . S
Sc133 O143 2.105 . S
Sc133 O147 2.105 . S
Sc133 O149 2.105 . S
Sc133 O153 2.105 . S
Sc134 O135 2.025 . S
Sc134 O144 2.105 . S
Sc134 O146 2.105 1_655 S
Sc134 O150 2.105 . S
Sc134 O152 2.105 . S
O135 Sc132 2.025 . S
O135 Sc133 2.025 . S
O135 Sc134 2.025 . S
C136 O142 1.268 . S
C136 O152 1.268 . S
C137 O143 1.268 . S
C137 O151 1.268 . S
C138 O144 1.268 . S
C138 O153 1.268 . S
C139 O145 1.268 . S
C139 O149 1.268 . S
C140 O146 1.268 . S
C140 O148 1.268 . S
C141 O147 1.268 . S
C141 O150 1.268 . S
O142 Sc132 2.105 . S
O142 C136 1.268 . S
O143 Sc133 2.105 . S
O143 C137 1.268 . S
O144 Sc134 2.105 . S
O144 C138 1.268 . S
O145 Sc132 2.105 . S
O145 C139 1.268 . S
O146 Sc134 2.105 1_455 S
O146 C140 1.268 . S
O147 Sc133 2.105 . S
O147 C141 1.268 . S
O148 Sc132 2.105 1_455 S
O148 C140 1.268 . S
O149 Sc133 2.105 . S
O149 C139 1.268 . S
O150 Sc134 2.105 . S
O150 C141 1.268 . S
O151 Sc132 2.105 . S
O151 C137 1.268 . S
O152 Sc134 2.105 . S
O152 C136 1.268 . S
O153 Sc133 2.105 . S
O153 C138 1.268 . S
Sc154 O157 2.025 . S
Sc154 O164 2.105 . S
Sc154 O167 2.105 . S
Sc154 O170 2.105 . S
Sc154 O173 2.105 . S
Sc155 O157 2.025 . S
Sc155 O165 2.105 . S
Sc155 O169 2.105 . S
Sc155 O171 2.105 . S
Sc155 O175 2.105 . S
Sc156 O157 2.025 . S
Sc156 O166 2.105 . S
Sc156 O168 2.105 . S
Sc156 O172 2.105 . S
Sc156 O174 2.105 . S
O157 Sc154 2.025 . S
O157 Sc155 2.025 . S
O157 Sc156 2.025 . S
C158 O164 1.268 . S
C158 O174 1.268 . S
C159 O165 1.268 . S
C159 O173 1.268 . S
C160 O166 1.268 . S
C160 O175 1.268 . S
C161 O167 1.268 . S
C161 O171 1.268 . S
C162 O168 1.268 . S
C162 O170 1.268 . S
C163 O169 1.268 . S
C163 O172 1.268 . S
O164 Sc154 2.105 . S
O164 C158 1.268 . S
O165 Sc155 2.105 . S
O165 C159 1.268 . S
O166 Sc156 2.105 . S
O166 C160 1.268 . S
O167 Sc154 2.105 . S
O167 C161 1.268 . S
O168 Sc156 2.105 . S
O168 C162 1.268 . S
O169 Sc155 2.105 . S
O169 C163 1.268 . S
O170 Sc154 2.105 . S
O170 C162 1.268 . S
O171 Sc155 2.105 . S
O171 C161 1.268 . S
O172 Sc156 2.105 . S
O172 C163 1.268 . S
O173 Sc154 2.105 . S
O173 C159 1.268 . S
O174 Sc156 2.105 . S
O174 C158 1.268 . S
O175 Sc155 2.105 . S
O175 C160 1.268 . S
Sc176 O179 2.025 . S
Sc176 O186 2.105 . S
Sc176 O189 2.105 . S
Sc176 O192 2.105 1_545 S
Sc176 O195 2.105 . S
Sc177 O179 2.025 . S
Sc177 O187 2.105 . S
Sc177 O191 2.105 . S
Sc177 O193 2.105 . S
Sc177 O197 2.105 . S
Sc178 O179 2.025 . S
Sc178 O188 2.105 . S
Sc178 O190 2.105 1_545 S
Sc178 O194 2.105 . S
Sc178 O196 2.105 . S
O179 Sc176 2.025 . S
O179 Sc177 2.025 . S
O179 Sc178 2.025 . S
C180 O186 1.268 . S
C180 O196 1.268 . S
C181 O187 1.268 . S
C181 O195 1.268 . S
C182 O188 1.268 . S
C182 O197 1.268 . S
C183 O189 1.268 . S
C183 O193 1.268 . S
C184 O190 1.268 . S
C184 O192 1.268 . S
C185 O191 1.268 . S
C185 O194 1.268 . S
O186 Sc176 2.105 . S
O186 C180 1.268 . S
O187 Sc177 2.105 . S
O187 C181 1.268 . S
O188 Sc178 2.105 . S
O188 C182 1.268 . S
O189 Sc176 2.105 . S
O189 C183 1.268 . S
O190 Sc178 2.105 1_565 S
O190 C184 1.268 . S
O191 Sc177 2.105 . S
O191 C185 1.268 . S
O192 Sc176 2.105 1_565 S
O192 C184 1.268 . S
O193 Sc177 2.105 . S
O193 C183 1.268 . S
O194 Sc178 2.105 . S
O194 C185 1.268 . S
O195 Sc176 2.105 . S
O195 C181 1.268 . S
O196 Sc178 2.105 . S
O196 C180 1.268 . S
O197 Sc177 2.105 . S
O197 C182 1.268 . S
Sc198 O201 2.025 . S
Sc198 O208 2.105 . S
Sc198 O211 2.105 . S
Sc198 O214 2.105 . S
Sc198 O217 2.105 . S
Sc199 O201 2.025 . S
Sc199 O209 2.105 . S
Sc199 O213 2.105 . S
Sc199 O215 2.105 . S
Sc199 O219 2.105 . S
Sc200 O201 2.025 . S
Sc200 O210 2.105 . S
Sc200 O212 2.105 . S
Sc200 O216 2.105 . S
Sc200 O218 2.105 . S
O201 Sc198 2.025 . S
O201 Sc199 2.025 . S
O201 Sc200 2.025 . S
C202 O208 1.268 . S
C202 O218 1.268 . S
C203 O209 1.268 . S
C203 O217 1.268 . S
C204 O210 1.268 . S
C204 O219 1.268 . S
C205 O211 1.268 . S
C205 O215 1.268 . S
C206 O212 1.268 . S
C206 O214 1.268 . S
C207 O213 1.268 . S
C207 O216 1.268 . S
O208 Sc198 2.105 . S
O208 C202 1.268 . S
O209 Sc199 2.105 . S
O209 C203 1.268 . S
O210 Sc200 2.105 . S
O210 C204 1.268 . S
O211 Sc198 2.105 . S
O211 C205 1.268 . S
O212 Sc200 2.105 . S
O212 C206 1.268 . S
O213 Sc199 2.105 . S
O213 C207 1.268 . S
O214 Sc198 2.105 . S
O214 C206 1.268 . S
O215 Sc199 2.105 . S
O215 C205 1.268 . S
O216 Sc200 2.105 . S
O216 C207 1.268 . S
O217 Sc198 2.105 . S
O217 C203 1.268 . S
O218 Sc200 2.105 . S
O218 C202 1.268 . S
O219 Sc199 2.105 . S
O219 C204 1.268 . S
Sc220 O223 2.025 . S
Sc220 O230 2.105 1_565 S
Sc220 O233 2.105 . S
Sc220 O236 2.105 . S
Sc220 O239 2.105 . S
Sc221 O223 2.025 . S
Sc221 O231 2.105 . S
Sc221 O235 2.105 . S
Sc221 O237 2.105 . S
Sc221 O241 2.105 . S
Sc222 O223 2.025 . S
Sc222 O232 2.105 . S
Sc222 O234 2.105 . S
Sc222 O238 2.105 . S
Sc222 O240 2.105 1_565 S
O223 Sc220 2.025 . S
O223 Sc221 2.025 . S
O223 Sc222 2.025 . S
C224 O230 1.268 . S
C224 O240 1.268 . S
C225 O231 1.268 . S
C225 O239 1.268 . S
C226 O232 1.268 . S
C226 O241 1.268 . S
C227 O233 1.268 . S
C227 O237 1.268 . S
C228 O234 1.268 . S
C228 O236 1.268 . S
C229 O235 1.268 . S
C229 O238 1.268 . S
O230 Sc220 2.105 1_545 S
O230 C224 1.268 . S
O231 Sc221 2.105 . S
O231 C225 1.268 . S
O232 Sc222 2.105 . S
O232 C226 1.268 . S
O233 Sc220 2.105 . S
O233 C227 1.268 . S
O234 Sc222 2.105 . S
O234 C228 1.268 . S
O235 Sc221 2.105 . S
O235 C229 1.268 . S
O236 Sc220 2.105 . S
O236 C228 1.268 . S
O237 Sc221 2.105 . S
O237 C227 1.268 . S
O238 Sc222 2.105 . S
O238 C229 1.268 . S
O239 Sc220 2.105 . S
O239 C225 1.268 . S
O240 Sc222 2.105 1_545 S
O240 C224 1.268 . S
O241 Sc221 2.105 . S
O241 C226 1.268 . S
Sc242 O245 2.025 . S
Sc242 O252 2.105 . S
Sc242 O255 2.105 . S
Sc242 O258 2.105 . S
Sc242 O261 2.105 . S
Sc243 O245 2.025 . S
Sc243 O253 2.105 . S
Sc243 O257 2.105 . S
Sc243 O259 2.105 . S
Sc243 O263 2.105 . S
Sc244 O245 2.025 . S
Sc244 O254 2.105 . S
Sc244 O256 2.105 . S
Sc244 O260 2.105 . S
Sc244 O262 2.105 . S
O245 Sc242 2.025 . S
O245 Sc243 2.025 . S
O245 Sc244 2.025 . S
C246 O252 1.268 . S
C246 O262 1.268 . S
C247 O253 1.268 . S
C247 O261 1.268 . S
C248 O254 1.268 . S
C248 O263 1.268 . S
C249 O255 1.268 . S
C249 O259 1.268 . S
C250 O256 1.268 . S
C250 O258 1.268 . S
C251 O257 1.268 . S
C251 O260 1.268 . S
O252 Sc242 2.105 . S
O252 C246 1.268 . S
O253 Sc243 2.105 . S
O253 C247 1.268 . S
O254 Sc244 2.105 . S
O254 C248 1.268 . S
O255 Sc242 2.105 . S
O255 C249 1.268 . S
O256 Sc244 2.105 . S
O256 C250 1.268 . S
O257 Sc243 2.105 . S
O257 C251 1.268 . S
O258 Sc242 2.105 . S
O258 C250 1.268 . S
O259 Sc243 2.105 . S
O259 C249 1.268 . S
O260 Sc244 2.105 . S
O260 C251 1.268 . S
O261 Sc242 2.105 . S
O261 C247 1.268 . S
O262 Sc244 2.105 . S
O262 C246 1.268 . S
O263 Sc243 2.105 . S
O263 C248 1.268 . S
Sc264 O267 2.025 . S
Sc264 O274 2.105 . S
Sc264 O277 2.105 . S
Sc264 O280 2.105 . S
Sc264 O283 2.105 . S
Sc265 O267 2.025 . S
Sc265 O275 2.105 . S
Sc265 O279 2.105 . S
Sc265 O281 2.105 . S
Sc265 O285 2.105 . S
Sc266 O267 2.025 . S
Sc266 O276 2.105 . S
Sc266 O278 2.105 . S
Sc266 O282 2.105 . S
Sc266 O284 2.105 . S
O267 Sc264 2.025 . S
O267 Sc265 2.025 . S
O267 Sc266 2.025 . S
C268 O274 1.268 . S
C268 O284 1.268 . S
C269 O275 1.268 . S
C269 O283 1.268 . S
C270 O276 1.268 . S
C270 O285 1.268 . S
C271 O277 1.268 . S
C271 O281 1.268 . S
C272 O278 1.268 . S
C272 O280 1.268 . S
C273 O279 1.268 . S
C273 O282 1.268 . S
O274 Sc264 2.105 . S
O274 C268 1.268 . S
O275 Sc265 2.105 . S
O275 C269 1.268 . S
O276 Sc266 2.105 . S
O276 C270 1.268 . S
O277 Sc264 2.105 . S
O277 C271 1.268 . S
O278 Sc266 2.105 . S
O278 C272 1.268 . S
O279 Sc265 2.105 . S
O279 C273 1.268 . S
O280 Sc264 2.105 . S
O280 C272 1.268 . S
O281 Sc265 2.105 . S
O281 C271 1.268 . S
O282 Sc266 2.105 . S
O282 C273 1.268 . S
O283 Sc264 2.105 . S
O283 C269 1.268 . S
O284 Sc266 2.105 . S
O284 C268 1.268 . S
O285 Sc265 2.105 . S
O285 C270 1.268 . S
Sc286 O289 2.025 . S
Sc286 O296 2.105 . S
Sc286 O299 2.105 . S
Sc286 O302 2.105 . S
Sc286 O305 2.105 . S
Sc287 O289 2.025 . S
Sc287 O297 2.105 . S
Sc287 O301 2.105 . S
Sc287 O303 2.105 . S
Sc287 O307 2.105 . S
Sc288 O289 2.025 . S
Sc288 O298 2.105 . S
Sc288 O300 2.105 . S
Sc288 O304 2.105 . S
Sc288 O306 2.105 . S
O289 Sc286 2.025 . S
O289 Sc287 2.025 . S
O289 Sc288 2.025 . S
C290 O296 1.268 . S
C290 O306 1.268 . S
C291 O297 1.268 . S
C291 O305 1.268 . S
C292 O298 1.268 . S
C292 O307 1.268 . S
C293 O299 1.268 . S
C293 O303 1.268 . S
C294 O300 1.268 . S
C294 O302 1.268 . S
C295 O301 1.268 . S
C295 O304 1.268 . S
O296 Sc286 2.105 . S
O296 C290 1.268 . S
O297 Sc287 2.105 . S
O297 C291 1.268 . S
O298 Sc288 2.105 . S
O298 C292 1.268 . S
O299 Sc286 2.105 . S
O299 C293 1.268 . S
O300 Sc288 2.105 . S
O300 C294 1.268 . S
O301 Sc287 2.105 . S
O301 C295 1.268 . S
O302 Sc286 2.105 . S
O302 C294 1.268 . S
O303 Sc287 2.105 . S
O303 C293 1.268 . S
O304 Sc288 2.105 . S
O304 C295 1.268 . S
O305 Sc286 2.105 . S
O305 C291 1.268 . S
O306 Sc288 2.105 . S
O306 C290 1.268 . S
O307 Sc287 2.105 . S
O307 C292 1.268 . S
Sc308 O311 2.025 . S
Sc308 O318 2.105 . S
Sc308 O321 2.105 . S
Sc308 O324 2.105 . S
Sc308 O327 2.105 . S
Sc309 O311 2.025 . S
Sc309 O319 2.105 . S
Sc309 O323 2.105 . S
Sc309 O325 2.105 . S
Sc309 O329 2.105 . S
Sc310 O311 2.025 . S
Sc310 O320 2.105 . S
Sc310 O322 2.105 . S
Sc310 O326 2.105 . S
Sc310 O328 2.105 . S
O311 Sc308 2.025 . S
O311 Sc309 2.025 . S
O311 Sc310 2.025 . S
C312 O318 1.268 . S
C312 O328 1.268 . S
C313 O319 1.268 . S
C313 O327 1.268 . S
C314 O320 1.268 . S
C314 O329 1.268 . S
C315 O321 1.268 . S
C315 O325 1.268 . S
C316 O322 1.268 . S
C316 O324 1.268 . S
C317 O323 1.268 . S
C317 O326 1.268 . S
O318 Sc308 2.105 . S
O318 C312 1.268 . S
O319 Sc309 2.105 . S
O319 C313 1.268 . S
O320 Sc310 2.105 . S
O320 C314 1.268 . S
O321 Sc308 2.105 . S
O321 C315 1.268 . S
O322 Sc310 2.105 . S
O322 C316 1.268 . S
O323 Sc309 2.105 . S
O323 C317 1.268 . S
O324 Sc308 2.105 . S
O324 C316 1.268 . S
O325 Sc309 2.105 . S
O325 C315 1.268 . S
O326 Sc310 2.105 . S
O326 C317 1.268 . S
O327 Sc308 2.105 . S
O327 C313 1.268 . S
O328 Sc310 2.105 . S
O328 C312 1.268 . S
O329 Sc309 2.105 . S
O329 C314 1.268 . S
Sc330 O333 2.025 . S
Sc330 O340 2.105 . S
Sc330 O343 2.105 . S
Sc330 O346 2.105 . S
Sc330 O349 2.105 . S
Sc331 O333 2.025 . S
Sc331 O341 2.105 . S
Sc331 O345 2.105 . S
Sc331 O347 2.105 . S
Sc331 O351 2.105 . S
Sc332 O333 2.025 . S
Sc332 O342 2.105 . S
Sc332 O344 2.105 . S
Sc332 O348 2.105 . S
Sc332 O350 2.105 . S
O333 Sc330 2.025 . S
O333 Sc331 2.025 . S
O333 Sc332 2.025 . S
C334 O340 1.268 . S
C334 O350 1.268 . S
C335 O341 1.268 . S
C335 O349 1.268 . S
C336 O342 1.268 . S
C336 O351 1.268 . S
C337 O343 1.268 . S
C337 O347 1.268 . S
C338 O344 1.268 . S
C338 O346 1.268 . S
C339 O345 1.268 . S
C339 O348 1.268 . S
O340 Sc330 2.105 . S
O340 C334 1.268 . S
O341 Sc331 2.105 . S
O341 C335 1.268 . S
O342 Sc332 2.105 . S
O342 C336 1.268 . S
O343 Sc330 2.105 . S
O343 C337 1.268 . S
O344 Sc332 2.105 . S
O344 C338 1.268 . S
O345 Sc331 2.105 . S
O345 C339 1.268 . S
O346 Sc330 2.105 . S
O346 C338 1.268 . S
O347 Sc331 2.105 . S
O347 C337 1.268 . S
O348 Sc332 2.105 . S
O348 C339 1.268 . S
O349 Sc330 2.105 . S
O349 C335 1.268 . S
O350 Sc332 2.105 . S
O350 C334 1.268 . S
O351 Sc331 2.105 . S
O351 C336 1.268 . S
Sc352 O355 2.025 . S
Sc352 O362 2.105 1_554 S
Sc352 O365 2.105 . S
Sc352 O368 2.105 . S
Sc352 O371 2.105 . S
Sc353 O355 2.025 . S
Sc353 O363 2.105 . S
Sc353 O367 2.105 . S
Sc353 O369 2.105 . S
Sc353 O373 2.105 . S
Sc354 O355 2.025 . S
Sc354 O364 2.105 . S
Sc354 O366 2.105 . S
Sc354 O370 2.105 . S
Sc354 O372 2.105 1_554 S
O355 Sc352 2.025 . S
O355 Sc353 2.025 . S
O355 Sc354 2.025 . S
C356 O362 1.268 . S
C356 O372 1.268 . S
C357 O363 1.268 . S
C357 O371 1.268 . S
C358 O364 1.268 . S
C358 O373 1.268 . S
C359 O365 1.268 . S
C359 O369 1.268 . S
C360 O366 1.268 . S
C360 O368 1.268 . S
C361 O367 1.268 . S
C361 O370 1.268 . S
O362 Sc352 2.105 1_556 S
O362 C356 1.268 . S
O363 Sc353 2.105 . S
O363 C357 1.268 . S
O364 Sc354 2.105 . S
O364 C358 1.268 . S
O365 Sc352 2.105 . S
O365 C359 1.268 . S
O366 Sc354 2.105 . S
O366 C360 1.268 . S
O367 Sc353 2.105 . S
O367 C361 1.268 . S
O368 Sc352 2.105 . S
O368 C360 1.268 . S
O369 Sc353 2.105 . S
O369 C359 1.268 . S
O370 Sc354 2.105 . S
O370 C361 1.268 . S
O371 Sc352 2.105 . S
O371 C357 1.268 . S
O372 Sc354 2.105 1_556 S
O372 C356 1.268 . S
O373 Sc353 2.105 . S
O373 C358 1.268 . S
Sc374 O377 2.025 . S
Sc374 O384 2.105 . S
Sc374 O387 2.105 . S
Sc374 O390 2.105 1_556 S
Sc374 O393 2.105 . S
Sc375 O377 2.025 . S
Sc375 O385 2.105 . S
Sc375 O389 2.105 . S
Sc375 O391 2.105 . S
Sc375 O395 2.105 . S
Sc376 O377 2.025 . S
Sc376 O386 2.105 . S
Sc376 O388 2.105 1_556 S
Sc376 O392 2.105 . S
Sc376 O394 2.105 . S
O377 Sc374 2.025 . S
O377 Sc375 2.025 . S
O377 Sc376 2.025 . S
C378 O384 1.268 . S
C378 O394 1.268 . S
C379 O385 1.268 . S
C379 O393 1.268 . S
C380 O386 1.268 . S
C380 O395 1.268 . S
C381 O387 1.268 . S
C381 O391 1.268 . S
C382 O388 1.268 . S
C382 O390 1.268 . S
C383 O389 1.268 . S
C383 O392 1.268 . S
O384 Sc374 2.105 . S
O384 C378 1.268 . S
O385 Sc375 2.105 . S
O385 C379 1.268 . S
O386 Sc376 2.105 . S
O386 C380 1.268 . S
O387 Sc374 2.105 . S
O387 C381 1.268 . S
O388 Sc376 2.105 1_554 S
O388 C382 1.268 . S
O389 Sc375 2.105 . S
O389 C383 1.268 . S
O390 Sc374 2.105 1_554 S
O390 C382 1.268 . S
O391 Sc375 2.105 . S
O391 C381 1.268 . S
O392 Sc376 2.105 . S
O392 C383 1.268 . S
O393 Sc374 2.105 . S
O393 C379 1.268 . S
O394 Sc376 2.105 . S
O394 C378 1.268 . S
O395 Sc375 2.105 . S
O395 C380 1.268 . S
Sc396 O399 2.025 . S
Sc396 O406 2.105 . S
Sc396 O409 2.105 . S
Sc396 O412 2.105 . S
Sc396 O415 2.105 . S
Sc397 O399 2.025 . S
Sc397 O407 2.105 . S
Sc397 O411 2.105 . S
Sc397 O413 2.105 . S
Sc397 O417 2.105 . S
Sc398 O399 2.025 . S
Sc398 O408 2.105 . S
Sc398 O410 2.105 . S
Sc398 O414 2.105 . S
Sc398 O416 2.105 . S
O399 Sc396 2.025 . S
O399 Sc397 2.025 . S
O399 Sc398 2.025 . S
C400 O406 1.268 . S
C400 O416 1.268 . S
C401 O407 1.268 . S
C401 O415 1.268 . S
C402 O408 1.268 . S
C402 O417 1.268 . S
C403 O409 1.268 . S
C403 O413 1.268 . S
C404 O410 1.268 . S
C404 O412 1.268 . S
C405 O411 1.268 . S
C405 O414 1.268 . S
O406 Sc396 2.105 . S
O406 C400 1.268 . S
O407 Sc397 2.105 . S
O407 C401 1.268 . S
O408 Sc398 2.105 . S
O408 C402 1.268 . S
O409 Sc396 2.105 . S
O409 C403 1.268 . S
O410 Sc398 2.105 . S
O410 C404 1.268 . S
O411 Sc397 2.105 . S
O411 C405 1.268 . S
O412 Sc396 2.105 . S
O412 C404 1.268 . S
O413 Sc397 2.105 . S
O413 C403 1.268 . S
O414 Sc398 2.105 . S
O414 C405 1.268 . S
O415 Sc396 2.105 . S
O415 C401 1.268 . S
O416 Sc398 2.105 . S
O416 C400 1.268 . S
O417 Sc397 2.105 . S
O417 C402 1.268 . S
Sc418 O421 2.025 . S
Sc418 O428 2.105 . S
Sc418 O431 2.105 . S
Sc418 O434 2.105 . S
Sc418 O437 2.105 . S
Sc419 O421 2.025 . S
Sc419 O429 2.105 . S
Sc419 O433 2.105 . S
Sc419 O435 2.105 . S
Sc419 O439 2.105 . S
Sc420 O421 2.025 . S
Sc420 O430 2.105 . S
Sc420 O432 2.105 . S
Sc420 O436 2.105 . S
Sc420 O438 2.105 . S
O421 Sc418 2.025 . S
O421 Sc419 2.025 . S
O421 Sc420 2.025 . S
C422 O428 1.268 . S
C422 O438 1.268 . S
C423 O429 1.268 . S
C423 O437 1.268 . S
C424 O430 1.268 . S
C424 O439 1.268 . S
C425 O431 1.268 . S
C425 O435 1.268 . S
C426 O432 1.268 . S
C426 O434 1.268 . S
C427 O433 1.268 . S
C427 O436 1.268 . S
O428 Sc418 2.105 . S
O428 C422 1.268 . S
O429 Sc419 2.105 . S
O429 C423 1.268 . S
O430 Sc420 2.105 . S
O430 C424 1.268 . S
O431 Sc418 2.105 . S
O431 C425 1.268 . S
O432 Sc420 2.105 . S
O432 C426 1.268 . S
O433 Sc419 2.105 . S
O433 C427 1.268 . S
O434 Sc418 2.105 . S
O434 C426 1.268 . S
O435 Sc419 2.105 . S
O435 C425 1.268 . S
O436 Sc420 2.105 . S
O436 C427 1.268 . S
O437 Sc418 2.105 . S
O437 C423 1.268 . S
O438 Sc420 2.105 . S
O438 C422 1.268 . S
O439 Sc419 2.105 . S
O439 C424 1.268 . S
Sc440 O443 2.025 . S
Sc440 O450 2.105 . S
Sc440 O453 2.105 . S
Sc440 O456 2.105 . S
Sc440 O459 2.105 . S
Sc441 O443 2.025 . S
Sc441 O451 2.105 . S
Sc441 O455 2.105 . S
Sc441 O457 2.105 . S
Sc441 O461 2.105 . S
Sc442 O443 2.025 . S
Sc442 O452 2.105 . S
Sc442 O454 2.105 . S
Sc442 O458 2.105 . S
Sc442 O460 2.105 . S
O443 Sc440 2.025 . S
O443 Sc441 2.025 . S
O443 Sc442 2.025 . S
C444 O450 1.268 . S
C444 O460 1.268 . S
C445 O451 1.268 . S
C445 O459 1.268 . S
C446 O452 1.268 . S
C446 O461 1.268 . S
C447 O453 1.268 . S
C447 O457 1.268 . S
C448 O454 1.268 . S
C448 O456 1.268 . S
C449 O455 1.268 . S
C449 O458 1.268 . S
O450 Sc440 2.105 . S
O450 C444 1.268 . S
O451 Sc441 2.105 . S
O451 C445 1.268 . S
O452 Sc442 2.105 . S
O452 C446 1.268 . S
O453 Sc440 2.105 . S
O453 C447 1.268 . S
O454 Sc442 2.105 . S
O454 C448 1.268 . S
O455 Sc441 2.105 . S
O455 C449 1.268 . S
O456 Sc440 2.105 . S
O456 C448 1.268 . S
O457 Sc441 2.105 . S
O457 C447 1.268 . S
O458 Sc442 2.105 . S
O458 C449 1.268 . S
O459 Sc440 2.105 . S
O459 C445 1.268 . S
O460 Sc442 2.105 . S
O460 C444 1.268 . S
O461 Sc441 2.105 . S
O461 C446 1.268 . S
Sc462 O465 2.025 . S
Sc462 O472 2.105 . S
Sc462 O475 2.105 . S
Sc462 O478 2.105 . S
Sc462 O481 2.105 . S
Sc463 O465 2.025 . S
Sc463 O473 2.105 . S
Sc463 O477 2.105 . S
Sc463 O479 2.105 . S
Sc463 O483 2.105 . S
Sc464 O465 2.025 . S
Sc464 O474 2.105 . S
Sc464 O476 2.105 . S
Sc464 O480 2.105 . S
Sc464 O482 2.105 . S
O465 Sc462 2.025 . S
O465 Sc463 2.025 . S
O465 Sc464 2.025 . S
C466 O472 1.268 . S
C466 O482 1.268 . S
C467 O473 1.268 . S
C467 O481 1.268 . S
C468 O474 1.268 . S
C468 O483 1.268 . S
C469 O475 1.268 . S
C469 O479 1.268 . S
C470 O476 1.268 . S
C470 O478 1.268 . S
C471 O477 1.268 . S
C471 O480 1.268 . S
O472 Sc462 2.105 . S
O472 C466 1.268 . S
O473 Sc463 2.105 . S
O473 C467 1.268 . S
O474 Sc464 2.105 . S
O474 C468 1.268 . S
O475 Sc462 2.105 . S
O475 C469 1.268 . S
O476 Sc464 2.105 . S
O476 C470 1.268 . S
O477 Sc463 2.105 . S
O477 C471 1.268 . S
O478 Sc462 2.105 . S
O478 C470 1.268 . S
O479 Sc463 2.105 . S
O479 C469 1.268 . S
O480 Sc464 2.105 . S
O480 C471 1.268 . S
O481 Sc462 2.105 . S
O481 C467 1.268 . S
O482 Sc464 2.105 . S
O482 C466 1.268 . S
O483 Sc463 2.105 . S
O483 C468 1.268 . S
Sc484 O487 2.025 . S
Sc484 O494 2.105 . S
Sc484 O497 2.105 . S
Sc484 O500 2.105 . S
Sc484 O503 2.105 . S
Sc485 O487 2.025 . S
Sc485 O495 2.105 . S
Sc485 O499 2.105 . S
Sc485 O501 2.105 . S
Sc485 O505 2.105 . S
Sc486 O487 2.025 . S
Sc486 O496 2.105 . S
Sc486 O498 2.105 . S
Sc486 O502 2.105 . S
Sc486 O504 2.105 . S
O487 Sc484 2.025 . S
O487 Sc485 2.025 . S
O487 Sc486 2.025 . S
C488 O494 1.268 . S
C488 O504 1.268 . S
C489 O495 1.268 . S
C489 O503 1.268 . S
C490 O496 1.268 . S
C490 O505 1.268 . S
C491 O497 1.268 . S
C491 O501 1.268 . S
C492 O498 1.268 . S
C492 O500 1.268 . S
C493 O499 1.268 . S
C493 O502 1.268 . S
O494 Sc484 2.105 . S
O494 C488 1.268 . S
O495 Sc485 2.105 . S
O495 C489 1.268 . S
O496 Sc486 2.105 . S
O496 C490 1.268 . S
O497 Sc484 2.105 . S
O497 C491 1.268 . S
O498 Sc486 2.105 . S
O498 C492 1.268 . S
O499 Sc485 2.105 . S
O499 C493 1.268 . S
O500 Sc484 2.105 . S
O500 C492 1.268 . S
O501 Sc485 2.105 . S
O501 C491 1.268 . S
O502 Sc486 2.105 . S
O502 C493 1.268 . S
O503 Sc484 2.105 . S
O503 C489 1.268 . S
O504 Sc486 2.105 . S
O504 C488 1.268 . S
O505 Sc485 2.105 . S
O505 C490 1.268 . S
Sc506 O509 2.025 . S
Sc506 O516 2.105 . S
Sc506 O519 2.105 . S
Sc506 O522 2.105 . S
Sc506 O525 2.105 . S
Sc507 O509 2.025 . S
Sc507 O517 2.105 . S
Sc507 O521 2.105 . S
Sc507 O523 2.105 . S
Sc507 O527 2.105 . S
Sc508 O509 2.025 . S
Sc508 O518 2.105 . S
Sc508 O520 2.105 . S
Sc508 O524 2.105 . S
Sc508 O526 2.105 . S
O509 Sc506 2.025 . S
O509 Sc507 2.025 . S
O509 Sc508 2.025 . S
C510 O516 1.268 . S
C510 O526 1.268 . S
C511 O517 1.268 . S
C511 O525 1.268 . S
C512 O518 1.268 . S
C512 O527 1.268 . S
C513 O519 1.268 . S
C513 O523 1.268 . S
C514 O520 1.268 . S
C514 O522 1.268 . S
C515 O521 1.268 . S
C515 O524 1.268 . S
O516 Sc506 2.105 . S
O516 C510 1.268 . S
O517 Sc507 2.105 . S
O517 C511 1.268 . S
O518 Sc508 2.105 . S
O518 C512 1.268 . S
O519 Sc506 2.105 . S
O519 C513 1.268 . S
O520 Sc508 2.105 . S
O520 C514 1.268 . S
O521 Sc507 2.105 . S
O521 C515 1.268 . S
O522 Sc506 2.105 . S
O522 C514 1.268 . S
O523 Sc507 2.105 . S
O523 C513 1.268 . S
O524 Sc508 2.105 . S
O524 C515 1.268 . S
O525 Sc506 2.105 . S
O525 C511 1.268 . S
O526 Sc508 2.105 . S
O526 C510 1.268 . S
O527 Sc507 2.105 . S
O527 C512 1.268 . S
C528 C529 1.349 . S
C528 C530 1.327 . S
C528 H553 0.950 . S
C529 C528 1.349 . S
C529 C545 1.349 . S
C530 C528 1.327 . S
C530 C549 1.429 . S
C530 H554 0.950 . S
C531 C548 1.574 . S
C531 C550 1.368 . S
C531 H555 0.949 . S
H532 C536 0.949 . S
C533 C534 1.349 . S
C533 C535 1.327 . S
C533 H556 0.950 . S
C534 C533 1.349 . S
C534 C546 1.349 . S
C535 C533 1.327 . S
C535 C551 1.429 . S
C535 H557 0.950 . S
C536 H532 0.949 . S
C536 C544 1.574 . S
C536 C552 1.368 . S
H537 C545 0.950 . S
H538 C543 0.950 . S
H539 C544 0.949 . S
H540 C546 0.950 . S
H541 C547 0.950 . S
H542 C548 0.949 . S
C543 H538 0.950 . S
C543 C545 1.327 . S
C543 C549 1.429 . S
C544 C536 1.574 . S
C544 H539 0.949 . S
C544 C550 1.368 . S
C545 C529 1.349 . S
C545 H537 0.950 . S
C545 C543 1.327 . S
C546 C534 1.349 . S
C546 H540 0.950 . S
C546 C547 1.327 . S
C547 H541 0.950 . S
C547 C546 1.327 . S
C547 C551 1.429 . S
C548 C531 1.574 . S
C548 H542 0.949 . S
C548 C552 1.368 . S
C549 C530 1.429 . S
C549 C543 1.429 . S
C549 C550 1.523 . S
C550 C531 1.368 . S
C550 C544 1.368 . S
C550 C549 1.523 . S
C551 C535 1.429 . S
C551 C547 1.429 . S
C551 C552 1.523 . S
C552 C536 1.368 . S
C552 C548 1.368 . S
C552 C551 1.523 . S
H553 C528 0.950 . S
H554 C530 0.950 . S
H555 C531 0.949 . S
H556 C533 0.950 . S
H557 C535 0.950 . S
C558 C559 1.349 . S
C558 C560 1.327 . S
C558 H583 0.950 . S
C559 C558 1.349 . S
C559 C575 1.349 . S
C560 C558 1.327 . S
C560 C579 1.429 . S
C560 H584 0.950 . S
C561 C578 1.574 . S
C561 C580 1.368 . S
C561 H585 0.949 . S
H562 C566 0.949 . S
C563 C564 1.349 . S
C563 C565 1.327 . S
C563 H586 0.950 . S
C564 C563 1.349 . S
C564 C576 1.349 . S
C565 C563 1.327 . S
C565 C581 1.429 . S
C565 H587 0.950 . S
C566 H562 0.949 . S
C566 C574 1.574 . S
C566 C582 1.368 . S
H567 C575 0.950 . S
H568 C573 0.950 . S
H569 C574 0.949 . S
H570 C576 0.950 . S
H571 C577 0.950 . S
H572 C578 0.949 . S
C573 H568 0.950 . S
C573 C575 1.327 . S
C573 C579 1.429 . S
C574 C566 1.574 . S
C574 H569 0.949 . S
C574 C580 1.368 . S
C575 C559 1.349 . S
C575 H567 0.950 . S
C575 C573 1.327 . S
C576 C564 1.349 . S
C576 H570 0.950 . S
C576 C577 1.327 . S
C577 H571 0.950 . S
C577 C576 1.327 . S
C577 C581 1.429 . S
C578 C561 1.574 . S
C578 H572 0.949 . S
C578 C582 1.368 . S
C579 C560 1.429 . S
C579 C573 1.429 . S
C579 C580 1.523 . S
C580 C561 1.368 . S
C580 C574 1.368 . S
C580 C579 1.523 . S
C581 C565 1.429 . S
C581 C577 1.429 . S
C581 C582 1.523 . S
C582 C566 1.368 . S
C582 C578 1.368 . S
C582 C581 1.523 . S
H583 C558 0.950 . S
H584 C560 0.950 . S
H585 C561 0.949 . S
H586 C563 0.950 . S
H587 C565 0.950 . S
C588 C589 1.349 . S
C588 C590 1.327 . S
C588 H613 0.950 . S
C589 C588 1.349 . S
C589 C605 1.349 . S
C590 C588 1.327 . S
C590 C609 1.429 . S
C590 H614 0.950 . S
C591 C608 1.574 . S
C591 C610 1.368 . S
C591 H615 0.949 . S
H592 C596 0.949 . S
C593 C594 1.349 . S
C593 C595 1.327 . S
C593 H616 0.950 . S
C594 C593 1.349 . S
C594 C606 1.349 . S
C595 C593 1.327 . S
C595 C611 1.429 . S
C595 H617 0.950 . S
C596 H592 0.949 . S
C596 C604 1.574 . S
C596 C612 1.368 . S
H597 C605 0.950 . S
H598 C603 0.950 . S
H599 C604 0.949 . S
H600 C606 0.950 . S
H601 C607 0.950 . S
H602 C608 0.949 . S
C603 H598 0.950 . S
C603 C605 1.327 . S
C603 C609 1.429 . S
C604 C596 1.574 . S
C604 H599 0.949 . S
C604 C610 1.368 . S
C605 C589 1.349 . S
C605 H597 0.950 . S
C605 C603 1.327 . S
C606 C594 1.349 . S
C606 H600 0.950 . S
C606 C607 1.327 . S
C607 H601 0.950 . S
C607 C606 1.327 . S
C607 C611 1.429 . S
C608 C591 1.574 . S
C608 H602 0.949 . S
C608 C612 1.368 . S
C609 C590 1.429 . S
C609 C603 1.429 . S
C609 C610 1.523 . S
C610 C591 1.368 . S
C610 C604 1.368 . S
C610 C609 1.523 . S
C611 C595 1.429 . S
C611 C607 1.429 . S
C611 C612 1.523 . S
C612 C596 1.368 . S
C612 C608 1.368 . S
C612 C611 1.523 . S
H613 C588 0.950 . S
H614 C590 0.950 . S
H615 C591 0.949 . S
H616 C593 0.950 . S
H617 C595 0.950 . S
C618 C619 1.349 . S
C618 C620 1.327 . S
C618 H643 0.950 . S
C619 C618 1.349 . S
C619 C635 1.349 . S
C620 C618 1.327 . S
C620 C639 1.429 . S
C620 H644 0.950 . S
C621 C638 1.574 . S
C621 C640 1.368 . S
C621 H645 0.949 . S
H622 C626 0.949 . S
C623 C624 1.349 . S
C623 C625 1.327 . S
C623 H646 0.950 . S
C624 C623 1.349 . S
C624 C636 1.349 . S
C625 C623 1.327 . S
C625 C641 1.429 . S
C625 H647 0.950 . S
C626 H622 0.949 . S
C626 C634 1.574 . S
C626 C642 1.368 . S
H627 C635 0.950 . S
H628 C633 0.950 . S
H629 C634 0.949 . S
H630 C636 0.950 . S
H631 C637 0.950 . S
H632 C638 0.949 . S
C633 H628 0.950 . S
C633 C635 1.327 . S
C633 C639 1.429 . S
C634 C626 1.574 . S
C634 H629 0.949 . S
C634 C640 1.368 . S
C635 C619 1.349 . S
C635 H627 0.950 . S
C635 C633 1.327 . S
C636 C624 1.349 . S
C636 H630 0.950 . S
C636 C637 1.327 . S
C637 H631 0.950 . S
C637 C636 1.327 . S
C637 C641 1.429 . S
C638 C621 1.574 . S
C638 H632 0.949 . S
C638 C642 1.368 . S
C639 C620 1.429 . S
C639 C633 1.429 . S
C639 C640 1.523 . S
C640 C621 1.368 . S
C640 C634 1.368 . S
C640 C639 1.523 . S
C641 C625 1.429 . S
C641 C637 1.429 . S
C641 C642 1.523 . S
C642 C626 1.368 . S
C642 C638 1.368 . S
C642 C641 1.523 . S
H643 C618 0.950 . S
H644 C620 0.950 . S
H645 C621 0.949 . S
H646 C623 0.950 . S
H647 C625 0.950 . S
C648 C649 1.349 . S
C648 C650 1.327 . S
C648 H673 0.950 . S
C649 C648 1.349 . S
C649 C665 1.349 . S
C650 C648 1.327 . S
C650 C669 1.429 . S
C650 H674 0.950 . S
C651 C668 1.574 . S
C651 C670 1.368 . S
C651 H675 0.949 . S
H652 C656 0.949 . S
C653 C654 1.349 . S
C653 C655 1.327 . S
C653 H676 0.950 . S
C654 C653 1.349 . S
C654 C666 1.349 . S
C655 C653 1.327 . S
C655 C671 1.429 . S
C655 H677 0.950 . S
C656 H652 0.949 . S
C656 C664 1.574 . S
C656 C672 1.368 . S
H657 C665 0.950 . S
H658 C663 0.950 . S
H659 C664 0.949 . S
H660 C666 0.950 . S
H661 C667 0.950 . S
H662 C668 0.949 . S
C663 H658 0.950 . S
C663 C665 1.327 . S
C663 C669 1.429 . S
C664 C656 1.574 . S
C664 H659 0.949 . S
C664 C670 1.368 . S
C665 C649 1.349 . S
C665 H657 0.950 . S
C665 C663 1.327 . S
C666 C654 1.349 . S
C666 H660 0.950 . S
C666 C667 1.327 . S
C667 H661 0.950 . S
C667 C666 1.327 . S
C667 C671 1.429 . S
C668 C651 1.574 . S
C668 H662 0.949 . S
C668 C672 1.368 . S
C669 C650 1.429 . S
C669 C663 1.429 . S
C669 C670 1.523 . S
C670 C651 1.368 . S
C670 C664 1.368 . S
C670 C669 1.523 . S
C671 C655 1.429 . S
C671 C667 1.429 . S
C671 C672 1.523 . S
C672 C656 1.368 . S
C672 C668 1.368 . S
C672 C671 1.523 . S
H673 C648 0.950 . S
H674 C650 0.950 . S
H675 C651 0.949 . S
H676 C653 0.950 . S
H677 C655 0.950 . S
C678 C679 1.349 . S
C678 C680 1.327 . S
C678 H703 0.950 . S
C679 C678 1.349 . S
C679 C695 1.349 . S
C680 C678 1.327 . S
C680 C699 1.429 . S
C680 H704 0.950 . S
C681 C698 1.574 . S
C681 C700 1.368 . S
C681 H705 0.949 . S
H682 C686 0.949 . S
C683 C684 1.349 . S
C683 C685 1.327 . S
C683 H706 0.950 . S
C684 C683 1.349 . S
C684 C696 1.349 . S
C685 C683 1.327 . S
C685 C701 1.429 . S
C685 H707 0.950 . S
C686 H682 0.949 . S
C686 C694 1.574 . S
C686 C702 1.368 . S
H687 C695 0.950 . S
H688 C693 0.950 . S
H689 C694 0.949 . S
H690 C696 0.950 . S
H691 C697 0.950 . S
H692 C698 0.949 . S
C693 H688 0.950 . S
C693 C695 1.327 . S
C693 C699 1.429 . S
C694 C686 1.574 . S
C694 H689 0.949 . S
C694 C700 1.368 . S
C695 C679 1.349 . S
C695 H687 0.950 . S
C695 C693 1.327 . S
C696 C684 1.349 . S
C696 H690 0.950 . S
C696 C697 1.327 . S
C697 H691 0.950 . S
C697 C696 1.327 . S
C697 C701 1.429 . S
C698 C681 1.574 . S
C698 H692 0.949 . S
C698 C702 1.368 . S
C699 C680 1.429 . S
C699 C693 1.429 . S
C699 C700 1.523 . S
C700 C681 1.368 . S
C700 C694 1.368 . S
C700 C699 1.523 . S
C701 C685 1.429 . S
C701 C697 1.429 . S
C701 C702 1.523 . S
C702 C686 1.368 . S
C702 C698 1.368 . S
C702 C701 1.523 . S
H703 C678 0.950 . S
H704 C680 0.950 . S
H705 C681 0.949 . S
H706 C683 0.950 . S
H707 C685 0.950 . S
C708 C709 1.349 . S
C708 C710 1.327 . S
C708 H733 0.950 . S
C709 C708 1.349 . S
C709 C725 1.349 . S
C710 C708 1.327 . S
C710 C729 1.429 . S
C710 H734 0.950 . S
C711 C728 1.574 . S
C711 C730 1.368 . S
C711 H735 0.949 . S
H712 C716 0.949 . S
C713 C714 1.349 . S
C713 C715 1.327 . S
C713 H736 0.950 . S
C714 C713 1.349 . S
C714 C726 1.349 . S
C715 C713 1.327 . S
C715 C731 1.429 . S
C715 H737 0.950 . S
C716 H712 0.949 . S
C716 C724 1.574 . S
C716 C732 1.368 . S
H717 C725 0.950 . S
H718 C723 0.950 . S
H719 C724 0.949 . S
H720 C726 0.950 . S
H721 C727 0.950 . S
H722 C728 0.949 . S
C723 H718 0.950 . S
C723 C725 1.327 . S
C723 C729 1.429 . S
C724 C716 1.574 . S
C724 H719 0.949 . S
C724 C730 1.368 . S
C725 C709 1.349 . S
C725 H717 0.950 . S
C725 C723 1.327 . S
C726 C714 1.349 . S
C726 H720 0.950 . S
C726 C727 1.327 . S
C727 H721 0.950 . S
C727 C726 1.327 . S
C727 C731 1.429 . S
C728 C711 1.574 . S
C728 H722 0.949 . S
C728 C732 1.368 . S
C729 C710 1.429 . S
C729 C723 1.429 . S
C729 C730 1.523 . S
C730 C711 1.368 . S
C730 C724 1.368 . S
C730 C729 1.523 . S
C731 C715 1.429 . S
C731 C727 1.429 . S
C731 C732 1.523 . S
C732 C716 1.368 . S
C732 C728 1.368 . S
C732 C731 1.523 . S
H733 C708 0.950 . S
H734 C710 0.950 . S
H735 C711 0.949 . S
H736 C713 0.950 . S
H737 C715 0.950 . S
C738 C739 1.349 . S
C738 C740 1.327 . S
C738 H763 0.950 . S
C739 C738 1.349 . S
C739 C755 1.349 . S
C740 C738 1.327 . S
C740 C759 1.429 . S
C740 H764 0.950 . S
C741 C758 1.574 . S
C741 C760 1.368 . S
C741 H765 0.949 . S
H742 C746 0.949 . S
C743 C744 1.349 . S
C743 C745 1.327 . S
C743 H766 0.950 . S
C744 C743 1.349 . S
C744 C756 1.349 . S
C745 C743 1.327 . S
C745 C761 1.429 . S
C745 H767 0.950 . S
C746 H742 0.949 . S
C746 C754 1.574 . S
C746 C762 1.368 . S
H747 C755 0.950 . S
H748 C753 0.950 . S
H749 C754 0.949 . S
H750 C756 0.950 . S
H751 C757 0.950 . S
H752 C758 0.949 . S
C753 H748 0.950 . S
C753 C755 1.327 . S
C753 C759 1.429 . S
C754 C746 1.574 . S
C754 H749 0.949 . S
C754 C760 1.368 . S
C755 C739 1.349 . S
C755 H747 0.950 . S
C755 C753 1.327 . S
C756 C744 1.349 . S
C756 H750 0.950 . S
C756 C757 1.327 . S
C757 H751 0.950 . S
C757 C756 1.327 . S
C757 C761 1.429 . S
C758 C741 1.574 . S
C758 H752 0.949 . S
C758 C762 1.368 . S
C759 C740 1.429 . S
C759 C753 1.429 . S
C759 C760 1.523 . S
C760 C741 1.368 . S
C760 C754 1.368 . S
C760 C759 1.523 . S
C761 C745 1.429 . S
C761 C757 1.429 . S
C761 C762 1.523 . S
C762 C746 1.368 . S
C762 C758 1.368 . S
C762 C761 1.523 . S
H763 C738 0.950 . S
H764 C740 0.950 . S
H765 C741 0.949 . S
H766 C743 0.950 . S
H767 C745 0.950 . S
C768 C769 1.349 . S
C768 C770 1.327 . S
C768 H793 0.950 . S
C769 C768 1.349 . S
C769 C785 1.349 . S
C770 C768 1.327 . S
C770 C789 1.429 . S
C770 H794 0.950 . S
C771 C788 1.574 . S
C771 C790 1.368 . S
C771 H795 0.949 . S
H772 C776 0.949 . S
C773 C774 1.349 . S
C773 C775 1.327 . S
C773 H796 0.950 . S
C774 C773 1.349 . S
C774 C786 1.349 . S
C775 C773 1.327 . S
C775 C791 1.429 . S
C775 H797 0.950 . S
C776 H772 0.949 . S
C776 C784 1.574 . S
C776 C792 1.368 . S
H777 C785 0.950 . S
H778 C783 0.950 . S
H779 C784 0.949 . S
H780 C786 0.950 . S
H781 C787 0.950 . S
H782 C788 0.949 . S
C783 H778 0.950 . S
C783 C785 1.327 . S
C783 C789 1.429 . S
C784 C776 1.574 . S
C784 H779 0.949 . S
C784 C790 1.368 . S
C785 C769 1.349 . S
C785 H777 0.950 . S
C785 C783 1.327 . S
C786 C774 1.349 . S
C786 H780 0.950 . S
C786 C787 1.327 . S
C787 H781 0.950 . S
C787 C786 1.327 . S
C787 C791 1.429 . S
C788 C771 1.574 . S
C788 H782 0.949 . S
C788 C792 1.368 . S
C789 C770 1.429 . S
C789 C783 1.429 . S
C789 C790 1.523 . S
C790 C771 1.368 . S
C790 C784 1.368 . S
C790 C789 1.523 . S
C791 C775 1.429 . S
C791 C787 1.429 . S
C791 C792 1.523 . S
C792 C776 1.368 . S
C792 C788 1.368 . S
C792 C791 1.523 . S
H793 C768 0.950 . S
H794 C770 0.950 . S
H795 C771 0.949 . S
H796 C773 0.950 . S
H797 C775 0.950 . S
C798 C799 1.349 . S
C798 C800 1.327 . S
C798 H823 0.950 . S
C799 C798 1.349 . S
C799 C815 1.349 . S
C800 C798 1.327 . S
C800 C819 1.429 . S
C800 H824 0.950 . S
C801 C818 1.574 . S
C801 C820 1.368 . S
C801 H825 0.949 . S
H802 C806 0.949 . S
C803 C804 1.349 . S
C803 C805 1.327 . S
C803 H826 0.950 . S
C804 C803 1.349 . S
C804 C816 1.349 . S
C805 C803 1.327 . S
C805 C821 1.429 . S
C805 H827 0.950 . S
C806 H802 0.949 . S
C806 C814 1.574 . S
C806 C822 1.368 . S
H807 C815 0.950 . S
H808 C813 0.950 . S
H809 C814 0.949 . S
H810 C816 0.950 . S
H811 C817 0.950 . S
H812 C818 0.949 . S
C813 H808 0.950 . S
C813 C815 1.327 . S
C813 C819 1.429 . S
C814 C806 1.574 . S
C814 H809 0.949 . S
C814 C820 1.368 . S
C815 C799 1.349 . S
C815 H807 0.950 . S
C815 C813 1.327 . S
C816 C804 1.349 . S
C816 H810 0.950 . S
C816 C817 1.327 . S
C817 H811 0.950 . S
C817 C816 1.327 . S
C817 C821 1.429 . S
C818 C801 1.574 . S
C818 H812 0.949 . S
C818 C822 1.368 . S
C819 C800 1.429 . S
C819 C813 1.429 . S
C819 C820 1.523 . S
C820 C801 1.368 . S
C820 C814 1.368 . S
C820 C819 1.523 . S
C821 C805 1.429 . S
C821 C817 1.429 . S
C821 C822 1.523 . S
C822 C806 1.368 . S
C822 C818 1.368 . S
C822 C821 1.523 . S
H823 C798 0.950 . S
H824 C800 0.950 . S
H825 C801 0.949 . S
H826 C803 0.950 . S
H827 C805 0.950 . S
C828 C829 1.349 . S
C828 C830 1.327 . S
C828 H853 0.950 . S
C829 C828 1.349 . S
C829 C845 1.349 . S
C830 C828 1.327 . S
C830 C849 1.429 . S
C830 H854 0.950 . S
C831 C848 1.574 . S
C831 C850 1.368 . S
C831 H855 0.949 . S
H832 C836 0.949 . S
C833 C834 1.349 . S
C833 C835 1.327 . S
C833 H856 0.950 . S
C834 C833 1.349 . S
C834 C846 1.349 . S
C835 C833 1.327 . S
C835 C851 1.429 . S
C835 H857 0.950 . S
C836 H832 0.949 . S
C836 C844 1.574 . S
C836 C852 1.368 . S
H837 C845 0.950 . S
H838 C843 0.950 . S
H839 C844 0.949 . S
H840 C846 0.950 . S
H841 C847 0.950 . S
H842 C848 0.949 . S
C843 H838 0.950 . S
C843 C845 1.327 . S
C843 C849 1.429 . S
C844 C836 1.574 . S
C844 H839 0.949 . S
C844 C850 1.368 . S
C845 C829 1.349 . S
C845 H837 0.950 . S
C845 C843 1.327 . S
C846 C834 1.349 . S
C846 H840 0.950 . S
C846 C847 1.327 . S
C847 H841 0.950 . S
C847 C846 1.327 . S
C847 C851 1.429 . S
C848 C831 1.574 . S
C848 H842 0.949 . S
C848 C852 1.368 . S
C849 C830 1.429 . S
C849 C843 1.429 . S
C849 C850 1.523 . S
C850 C831 1.368 . S
C850 C844 1.368 . S
C850 C849 1.523 . S
C851 C835 1.429 . S
C851 C847 1.429 . S
C851 C852 1.523 . S
C852 C836 1.368 . S
C852 C848 1.368 . S
C852 C851 1.523 . S
H853 C828 0.950 . S
H854 C830 0.950 . S
H855 C831 0.949 . S
H856 C833 0.950 . S
H857 C835 0.950 . S
C858 C859 1.349 . S
C858 C860 1.327 . S
C858 H883 0.950 . S
C859 C858 1.349 . S
C859 C875 1.349 . S
C860 C858 1.327 . S
C860 C879 1.429 . S
C860 H884 0.950 . S
C861 C878 1.574 . S
C861 C880 1.368 . S
C861 H885 0.949 . S
H862 C866 0.949 . S
C863 C864 1.349 . S
C863 C865 1.327 . S
C863 H886 0.950 . S
C864 C863 1.349 . S
C864 C876 1.349 . S
C865 C863 1.327 . S
C865 C881 1.429 . S
C865 H887 0.950 . S
C866 H862 0.949 . S
C866 C874 1.574 . S
C866 C882 1.368 . S
H867 C875 0.950 . S
H868 C873 0.950 . S
H869 C874 0.949 . S
H870 C876 0.950 . S
H871 C877 0.950 . S
H872 C878 0.949 . S
C873 H868 0.950 . S
C873 C875 1.327 . S
C873 C879 1.429 . S
C874 C866 1.574 . S
C874 H869 0.949 . S
C874 C880 1.368 . S
C875 C859 1.349 . S
C875 H867 0.950 . S
C875 C873 1.327 . S
C876 C864 1.349 . S
C876 H870 0.950 . S
C876 C877 1.327 . S
C877 H871 0.950 . S
C877 C876 1.327 . S
C877 C881 1.429 . S
C878 C861 1.574 . S
C878 H872 0.949 . S
C878 C882 1.368 . S
C879 C860 1.429 . S
C879 C873 1.429 . S
C879 C880 1.523 . S
C880 C861 1.368 . S
C880 C874 1.368 . S
C880 C879 1.523 . S
C881 C865 1.429 . S
C881 C877 1.429 . S
C881 C882 1.523 . S
C882 C866 1.368 . S
C882 C878 1.368 . S
C882 C881 1.523 . S
H883 C858 0.950 . S
H884 C860 0.950 . S
H885 C861 0.949 . S
H886 C863 0.950 . S
H887 C865 0.950 . S
C888 C889 1.349 . S
C888 C890 1.327 . S
C888 H913 0.950 . S
C889 C888 1.349 . S
C889 C905 1.349 . S
C890 C888 1.327 . S
C890 C909 1.429 . S
C890 H914 0.950 . S
C891 C908 1.574 . S
C891 C910 1.368 . S
C891 H915 0.949 . S
H892 C896 0.949 . S
C893 C894 1.349 . S
C893 C895 1.327 . S
C893 H916 0.950 . S
C894 C893 1.349 . S
C894 C906 1.349 . S
C895 C893 1.327 . S
C895 C911 1.429 . S
C895 H917 0.950 . S
C896 H892 0.949 . S
C896 C904 1.574 . S
C896 C912 1.368 . S
H897 C905 0.950 . S
H898 C903 0.950 . S
H899 C904 0.949 . S
H900 C906 0.950 . S
H901 C907 0.950 . S
H902 C908 0.949 . S
C903 H898 0.950 . S
C903 C905 1.327 . S
C903 C909 1.429 . S
C904 C896 1.574 . S
C904 H899 0.949 . S
C904 C910 1.368 . S
C905 C889 1.349 . S
C905 H897 0.950 . S
C905 C903 1.327 . S
C906 C894 1.349 . S
C906 H900 0.950 . S
C906 C907 1.327 . S
C907 H901 0.950 . S
C907 C906 1.327 . S
C907 C911 1.429 . S
C908 C891 1.574 . S
C908 H902 0.949 . S
C908 C912 1.368 . S
C909 C890 1.429 . S
C909 C903 1.429 . S
C909 C910 1.523 . S
C910 C891 1.368 . S
C910 C904 1.368 . S
C910 C909 1.523 . S
C911 C895 1.429 . S
C911 C907 1.429 . S
C911 C912 1.523 . S
C912 C896 1.368 . S
C912 C908 1.368 . S
C912 C911 1.523 . S
H913 C888 0.950 . S
H914 C890 0.950 . S
H915 C891 0.949 . S
H916 C893 0.950 . S
H917 C895 0.950 . S
C918 C919 1.349 . S
C918 C920 1.327 . S
C918 H943 0.950 . S
C919 C918 1.349 . S
C919 C935 1.349 . S
C920 C918 1.327 . S
C920 C939 1.429 . S
C920 H944 0.950 . S
C921 C938 1.574 . S
C921 C940 1.368 . S
C921 H945 0.949 . S
H922 C926 0.949 . S
C923 C924 1.349 . S
C923 C925 1.327 . S
C923 H946 0.950 . S
C924 C923 1.349 . S
C924 C936 1.349 . S
C925 C923 1.327 . S
C925 C941 1.429 . S
C925 H947 0.950 . S
C926 H922 0.949 . S
C926 C934 1.574 . S
C926 C942 1.368 . S
H927 C935 0.950 . S
H928 C933 0.950 . S
H929 C934 0.949 . S
H930 C936 0.950 . S
H931 C937 0.950 . S
H932 C938 0.949 . S
C933 H928 0.950 . S
C933 C935 1.327 . S
C933 C939 1.429 . S
C934 C926 1.574 . S
C934 H929 0.949 . S
C934 C940 1.368 . S
C935 C919 1.349 . S
C935 H927 0.950 . S
C935 C933 1.327 . S
C936 C924 1.349 . S
C936 H930 0.950 . S
C936 C937 1.327 . S
C937 H931 0.950 . S
C937 C936 1.327 . S
C937 C941 1.429 . S
C938 C921 1.574 . S
C938 H932 0.949 . S
C938 C942 1.368 . S
C939 C920 1.429 . S
C939 C933 1.429 . S
C939 C940 1.523 . S
C940 C921 1.368 . S
C940 C934 1.368 . S
C940 C939 1.523 . S
C941 C925 1.429 . S
C941 C937 1.429 . S
C941 C942 1.523 . S
C942 C926 1.368 . S
C942 C938 1.368 . S
C942 C941 1.523 . S
H943 C918 0.950 . S
H944 C920 0.950 . S
H945 C921 0.949 . S
H946 C923 0.950 . S
H947 C925 0.950 . S
C948 C949 1.349 . S
C948 C950 1.327 . S
C948 H973 0.950 . S
C949 C948 1.349 . S
C949 C965 1.349 . S
C950 C948 1.327 . S
C950 C969 1.429 . S
C950 H974 0.950 . S
C951 C968 1.574 . S
C951 C970 1.368 . S
C951 H975 0.949 . S
H952 C956 0.949 . S
C953 C954 1.349 . S
C953 C955 1.327 . S
C953 H976 0.950 . S
C954 C953 1.349 . S
C954 C966 1.349 1_554 S
C955 C953 1.327 . S
C955 C971 1.429 1_554 S
C955 H977 0.950 . S
C956 H952 0.949 . S
C956 C964 1.574 . S
C956 C972 1.368 . S
H957 C965 0.950 . S
H958 C963 0.950 . S
H959 C964 0.949 . S
H960 C966 0.950 . S
H961 C967 0.950 . S
H962 C968 0.949 . S
C963 H958 0.950 . S
C963 C965 1.327 . S
C963 C969 1.429 . S
C964 C956 1.574 . S
C964 H959 0.949 . S
C964 C970 1.368 . S
C965 C949 1.349 . S
C965 H957 0.950 . S
C965 C963 1.327 . S
C966 C954 1.349 1_556 S
C966 H960 0.950 . S
C966 C967 1.327 . S
C967 H961 0.950 . S
C967 C966 1.327 . S
C967 C971 1.429 . S
C968 C951 1.574 . S
C968 H962 0.949 . S
C968 C972 1.368 . S
C969 C950 1.429 . S
C969 C963 1.429 . S
C969 C970 1.523 . S
C970 C951 1.368 . S
C970 C964 1.368 . S
C970 C969 1.523 . S
C971 C955 1.429 1_556 S
C971 C967 1.429 . S
C971 C972 1.523 . S
C972 C956 1.368 . S
C972 C968 1.368 . S
C972 C971 1.523 . S
H973 C948 0.950 . S
H974 C950 0.950 . S
H975 C951 0.949 . S
H976 C953 0.950 . S
H977 C955 0.950 . S
C978 C979 1.349 . S
C978 C980 1.327 . S
C978 H1003 0.950 . S
C979 C978 1.349 . S
C979 C995 1.349 . S
C980 C978 1.327 . S
C980 C999 1.429 . S
C980 H1004 0.950 . S
C981 C998 1.574 . S
C981 C1000 1.368 . S
C981 H1005 0.949 . S
H982 C986 0.949 . S
C983 C984 1.349 . S
C983 C985 1.327 . S
C983 H1006 0.950 . S
C984 C983 1.349 . S
C984 C996 1.349 . S
C985 C983 1.327 . S
C985 C1001 1.429 . S
C985 H1007 0.950 . S
C986 H982 0.949 . S
C986 C994 1.574 . S
C986 C1002 1.368 . S
H987 C995 0.950 . S
H988 C993 0.950 . S
H989 C994 0.949 . S
H990 C996 0.950 . S
H991 C997 0.950 . S
H992 C998 0.949 . S
C993 H988 0.950 . S
C993 C995 1.327 . S
C993 C999 1.429 . S
C994 C986 1.574 . S
C994 H989 0.949 . S
C994 C1000 1.368 . S
C995 C979 1.349 . S
C995 H987 0.950 . S
C995 C993 1.327 . S
C996 C984 1.349 . S
C996 H990 0.950 . S
C996 C997 1.327 . S
C997 H991 0.950 . S
C997 C996 1.327 . S
C997 C1001 1.429 . S
C998 C981 1.574 . S
C998 H992 0.949 . S
C998 C1002 1.368 . S
C999 C980 1.429 . S
C999 C993 1.429 . S
C999 C1000 1.523 . S
C1000 C981 1.368 . S
C1000 C994 1.368 . S
C1000 C999 1.523 . S
C1001 C985 1.429 . S
C1001 C997 1.429 . S
C1001 C1002 1.523 . S
C1002 C986 1.368 . S
C1002 C998 1.368 . S
C1002 C1001 1.523 . S
H1003 C978 0.950 . S
H1004 C980 0.950 . S
H1005 C981 0.949 . S
H1006 C983 0.950 . S
H1007 C985 0.950 . S
C1008 C1009 1.349 . S
C1008 C1010 1.327 . S
C1008 H1033 0.950 . S
C1009 C1008 1.349 . S
C1009 C1025 1.349 . S
C1010 C1008 1.327 . S
C1010 C1029 1.429 . S
C1010 H1034 0.950 . S
C1011 C1028 1.574 . S
C1011 C1030 1.368 . S
C1011 H1035 0.949 . S
H1012 C1016 0.949 . S
C1013 C1014 1.349 . S
C1013 C1015 1.327 . S
C1013 H1036 0.950 . S
C1014 C1013 1.349 . S
C1014 C1026 1.349 . S
C1015 C1013 1.327 . S
C1015 C1031 1.429 . S
C1015 H1037 0.950 . S
C1016 H1012 0.949 . S
C1016 C1024 1.574 . S
C1016 C1032 1.368 . S
H1017 C1025 0.950 . S
H1018 C1023 0.950 1_545 S
H1019 C1024 0.949 1_565 S
H1020 C1026 0.950 . S
H1021 C1027 0.950 . S
H1022 C1028 0.949 . S
C1023 H1018 0.950 1_565 S
C1023 C1025 1.327 . S
C1023 C1029 1.429 . S
C1024 C1016 1.574 . S
C1024 H1019 0.949 1_545 S
C1024 C1030 1.368 . S
C1025 C1009 1.349 . S
C1025 H1017 0.950 . S
C1025 C1023 1.327 . S
C1026 C1014 1.349 . S
C1026 H1020 0.950 . S
C1026 C1027 1.327 . S
C1027 H1021 0.950 . S
C1027 C1026 1.327 . S
C1027 C1031 1.429 . S
C1028 C1011 1.574 . S
C1028 H1022 0.949 . S
C1028 C1032 1.368 . S
C1029 C1010 1.429 . S
C1029 C1023 1.429 . S
C1029 C1030 1.523 1_565 S
C1030 C1011 1.368 . S
C1030 C1024 1.368 . S
C1030 C1029 1.523 1_545 S
C1031 C1015 1.429 . S
C1031 C1027 1.429 . S
C1031 C1032 1.523 . S
C1032 C1016 1.368 . S
C1032 C1028 1.368 . S
C1032 C1031 1.523 . S
H1033 C1008 0.950 . S
H1034 C1010 0.950 . S
H1035 C1011 0.949 . S
H1036 C1013 0.950 . S
H1037 C1015 0.950 . S
C1038 C1039 1.349 . S
C1038 C1040 1.327 . S
C1038 H1063 0.950 . S
C1039 C1038 1.349 . S
C1039 C1055 1.349 . S
C1040 C1038 1.327 . S
C1040 C1059 1.429 . S
C1040 H1064 0.950 . S
C1041 C1058 1.574 . S
C1041 C1060 1.368 . S
C1041 H1065 0.949 . S
H1042 C1046 0.949 . S
C1043 C1044 1.349 . S
C1043 C1045 1.327 . S
C1043 H1066 0.950 . S
C1044 C1043 1.349 . S
C1044 C1056 1.349 . S
C1045 C1043 1.327 . S
C1045 C1061 1.429 . S
C1045 H1067 0.950 . S
C1046 H1042 0.949 . S
C1046 C1054 1.574 . S
C1046 C1062 1.368 . S
H1047 C1055 0.950 . S
H1048 C1053 0.950 . S
H1049 C1054 0.949 . S
H1050 C1056 0.950 . S
H1051 C1057 0.950 . S
H1052 C1058 0.949 . S
C1053 H1048 0.950 . S
C1053 C1055 1.327 . S
C1053 C1059 1.429 . S
C1054 C1046 1.574 . S
C1054 H1049 0.949 . S
C1054 C1060 1.368 . S
C1055 C1039 1.349 . S
C1055 H1047 0.950 . S
C1055 C1053 1.327 . S
C1056 C1044 1.349 . S
C1056 H1050 0.950 . S
C1056 C1057 1.327 . S
C1057 H1051 0.950 . S
C1057 C1056 1.327 . S
C1057 C1061 1.429 . S
C1058 C1041 1.574 . S
C1058 H1052 0.949 . S
C1058 C1062 1.368 . S
C1059 C1040 1.429 . S
C1059 C1053 1.429 . S
C1059 C1060 1.523 . S
C1060 C1041 1.368 . S
C1060 C1054 1.368 . S
C1060 C1059 1.523 . S
C1061 C1045 1.429 . S
C1061 C1057 1.429 . S
C1061 C1062 1.523 . S
C1062 C1046 1.368 . S
C1062 C1058 1.368 . S
C1062 C1061 1.523 . S
H1063 C1038 0.950 . S
H1064 C1040 0.950 . S
H1065 C1041 0.949 . S
H1066 C1043 0.950 . S
H1067 C1045 0.950 . S
C1068 C1069 1.349 . S
C1068 C1070 1.327 . S
C1068 H1093 0.950 . S
C1069 C1068 1.349 . S
C1069 C1085 1.349 . S
C1070 C1068 1.327 . S
C1070 C1089 1.429 . S
C1070 H1094 0.950 . S
C1071 C1088 1.574 . S
C1071 C1090 1.368 . S
C1071 H1095 0.949 . S
H1072 C1076 0.949 . S
C1073 C1074 1.349 1_554 S
C1073 C1075 1.327 . S
C1073 H1096 0.950 . S
C1074 C1073 1.349 1_556 S
C1074 C1086 1.349 . S
C1075 C1073 1.327 . S
C1075 C1091 1.429 . S
C1075 H1097 0.950 . S
C1076 H1072 0.949 . S
C1076 C1084 1.574 . S
C1076 C1092 1.368 . S
H1077 C1085 0.950 . S
H1078 C1083 0.950 . S
H1079 C1084 0.949 . S
H1080 C1086 0.950 . S
H1081 C1087 0.950 1_565 S
H1082 C1088 0.949 1_545 S
C1083 H1078 0.950 . S
C1083 C1085 1.327 . S
C1083 C1089 1.429 . S
C1084 C1076 1.574 . S
C1084 H1079 0.949 . S
C1084 C1090 1.368 . S
C1085 C1069 1.349 . S
C1085 H1077 0.950 . S
C1085 C1083 1.327 . S
C1086 C1074 1.349 . S
C1086 H1080 0.950 . S
C1086 C1087 1.327 . S
C1087 H1081 0.950 1_545 S
C1087 C1086 1.327 . S
C1087 C1091 1.429 1_556 S
C1088 C1071 1.574 . S
C1088 H1082 0.949 1_565 S
C1088 C1092 1.368 . S
C1089 C1070 1.429 . S
C1089 C1083 1.429 . S
C1089 C1090 1.523 . S
C1090 C1071 1.368 . S
C1090 C1084 1.368 . S
C1090 C1089 1.523 . S
C1091 C1075 1.429 . S
C1091 C1087 1.429 1_554 S
C1091 C1092 1.523 1_545 S
C1092 C1076 1.368 . S
C1092 C1088 1.368 . S
C1092 C1091 1.523 1_565 S
H1093 C1068 0.950 . S
H1094 C1070 0.950 . S
H1095 C1071 0.949 . S
H1096 C1073 0.950 . S
H1097 C1075 0.950 . S
C1098 C1099 1.349 . S
C1098 C1100 1.327 . S
C1098 H1123 0.950 . S
C1099 C1098 1.349 . S
C1099 C1115 1.349 . S
C1100 C1098 1.327 . S
C1100 C1119 1.429 . S
C1100 H1124 0.950 . S
C1101 C1118 1.574 . S
C1101 C1120 1.368 . S
C1101 H1125 0.949 . S
H1102 C1106 0.949 . S
C1103 C1104 1.349 . S
C1103 C1105 1.327 . S
C1103 H1126 0.950 . S
C1104 C1103 1.349 . S
C1104 C1116 1.349 . S
C1105 C1103 1.327 . S
C1105 C1121 1.429 . S
C1105 H1127 0.950 . S
C1106 H1102 0.949 . S
C1106 C1114 1.574 . S
C1106 C1122 1.368 . S
H1107 C1115 0.950 . S
H1108 C1113 0.950 . S
H1109 C1114 0.949 . S
H1110 C1116 0.950 . S
H1111 C1117 0.950 . S
H1112 C1118 0.949 . S
C1113 H1108 0.950 . S
C1113 C1115 1.327 . S
C1113 C1119 1.429 . S
C1114 C1106 1.574 . S
C1114 H1109 0.949 . S
C1114 C1120 1.368 . S
C1115 C1099 1.349 . S
C1115 H1107 0.950 . S
C1115 C1113 1.327 . S
C1116 C1104 1.349 . S
C1116 H1110 0.950 . S
C1116 C1117 1.327 . S
C1117 H1111 0.950 . S
C1117 C1116 1.327 . S
C1117 C1121 1.429 . S
C1118 C1101 1.574 . S
C1118 H1112 0.949 . S
C1118 C1122 1.368 . S
C1119 C1100 1.429 . S
C1119 C1113 1.429 . S
C1119 C1120 1.523 . S
C1120 C1101 1.368 . S
C1120 C1114 1.368 . S
C1120 C1119 1.523 . S
C1121 C1105 1.429 . S
C1121 C1117 1.429 . S
C1121 C1122 1.523 . S
C1122 C1106 1.368 . S
C1122 C1118 1.368 . S
C1122 C1121 1.523 . S
H1123 C1098 0.950 . S
H1124 C1100 0.950 . S
H1125 C1101 0.949 . S
H1126 C1103 0.950 . S
H1127 C1105 0.950 . S
C1128 C1129 1.349 . S
C1128 C1130 1.327 . S
C1128 H1153 0.950 . S
C1129 C1128 1.349 . S
C1129 C1145 1.349 . S
C1130 C1128 1.327 . S
C1130 C1149 1.429 . S
C1130 H1154 0.950 . S
C1131 C1148 1.574 . S
C1131 C1150 1.368 . S
C1131 H1155 0.949 . S
H1132 C1136 0.949 . S
C1133 C1134 1.349 . S
C1133 C1135 1.327 . S
C1133 H1156 0.950 . S
C1134 C1133 1.349 . S
C1134 C1146 1.349 . S
C1135 C1133 1.327 . S
C1135 C1151 1.429 . S
C1135 H1157 0.950 . S
C1136 H1132 0.949 . S
C1136 C1144 1.574 . S
C1136 C1152 1.368 . S
H1137 C1145 0.950 . S
H1138 C1143 0.950 . S
H1139 C1144 0.949 . S
H1140 C1146 0.950 . S
H1141 C1147 0.950 . S
H1142 C1148 0.949 . S
C1143 H1138 0.950 . S
C1143 C1145 1.327 . S
C1143 C1149 1.429 . S
C1144 C1136 1.574 . S
C1144 H1139 0.949 . S
C1144 C1150 1.368 . S
C1145 C1129 1.349 . S
C1145 H1137 0.950 . S
C1145 C1143 1.327 . S
C1146 C1134 1.349 . S
C1146 H1140 0.950 . S
C1146 C1147 1.327 . S
C1147 H1141 0.950 . S
C1147 C1146 1.327 . S
C1147 C1151 1.429 . S
C1148 C1131 1.574 . S
C1148 H1142 0.949 . S
C1148 C1152 1.368 . S
C1149 C1130 1.429 . S
C1149 C1143 1.429 . S
C1149 C1150 1.523 . S
C1150 C1131 1.368 . S
C1150 C1144 1.368 . S
C1150 C1149 1.523 . S
C1151 C1135 1.429 . S
C1151 C1147 1.429 . S
C1151 C1152 1.523 . S
C1152 C1136 1.368 . S
C1152 C1148 1.368 . S
C1152 C1151 1.523 . S
H1153 C1128 0.950 . S
H1154 C1130 0.950 . S
H1155 C1131 0.949 . S
H1156 C1133 0.950 . S
H1157 C1135 0.950 . S
C1158 C1159 1.349 . S
C1158 C1160 1.327 . S
C1158 H1183 0.950 . S
C1159 C1158 1.349 . S
C1159 C1175 1.349 . S
C1160 C1158 1.327 . S
C1160 C1179 1.429 . S
C1160 H1184 0.950 . S
C1161 C1178 1.574 . S
C1161 C1180 1.368 . S
C1161 H1185 0.949 . S
H1162 C1166 0.949 . S
C1163 C1164 1.349 . S
C1163 C1165 1.327 . S
C1163 H1186 0.950 . S
C1164 C1163 1.349 . S
C1164 C1176 1.349 . S
C1165 C1163 1.327 . S
C1165 C1181 1.429 . S
C1165 H1187 0.950 . S
C1166 H1162 0.949 . S
C1166 C1174 1.574 . S
C1166 C1182 1.368 . S
H1167 C1175 0.950 . S
H1168 C1173 0.950 . S
H1169 C1174 0.949 . S
H1170 C1176 0.950 . S
H1171 C1177 0.950 . S
H1172 C1178 0.949 . S
C1173 H1168 0.950 . S
C1173 C1175 1.327 . S
C1173 C1179 1.429 . S
C1174 C1166 1.574 . S
C1174 H1169 0.949 . S
C1174 C1180 1.368 . S
C1175 C1159 1.349 . S
C1175 H1167 0.950 . S
C1175 C1173 1.327 . S
C1176 C1164 1.349 . S
C1176 H1170 0.950 . S
C1176 C1177 1.327 . S
C1177 H1171 0.950 . S
C1177 C1176 1.327 . S
C1177 C1181 1.429 . S
C1178 C1161 1.574 . S
C1178 H1172 0.949 . S
C1178 C1182 1.368 . S
C1179 C1160 1.429 . S
C1179 C1173 1.429 . S
C1179 C1180 1.523 . S
C1180 C1161 1.368 . S
C1180 C1174 1.368 . S
C1180 C1179 1.523 . S
C1181 C1165 1.429 . S
C1181 C1177 1.429 . S
C1181 C1182 1.523 . S
C1182 C1166 1.368 . S
C1182 C1178 1.368 . S
C1182 C1181 1.523 . S
H1183 C1158 0.950 . S
H1184 C1160 0.950 . S
H1185 C1161 0.949 . S
H1186 C1163 0.950 . S
H1187 C1165 0.950 . S
C1188 C1189 1.349 . S
C1188 C1190 1.327 . S
C1188 H1213 0.950 . S
C1189 C1188 1.349 . S
C1189 C1205 1.349 . S
C1190 C1188 1.327 . S
C1190 C1209 1.429 . S
C1190 H1214 0.950 . S
C1191 C1208 1.574 . S
C1191 C1210 1.368 . S
C1191 H1215 0.949 . S
H1192 C1196 0.949 . S
C1193 C1194 1.349 1_455 S
C1193 C1195 1.327 . S
C1193 H1216 0.950 . S
C1194 C1193 1.349 1_655 S
C1194 C1206 1.349 . S
C1195 C1193 1.327 . S
C1195 C1211 1.429 . S
C1195 H1217 0.950 . S
C1196 H1192 0.949 . S
C1196 C1204 1.574 . S
C1196 C1212 1.368 . S
H1197 C1205 0.950 . S
H1198 C1203 0.950 . S
H1199 C1204 0.949 . S
H1200 C1206 0.950 . S
H1201 C1207 0.951 . S
H1202 C1208 0.949 . S
C1203 H1198 0.950 . S
C1203 C1205 1.327 . S
C1203 C1209 1.429 . S
C1204 C1196 1.574 . S
C1204 H1199 0.949 . S
C1204 C1210 1.368 . S
C1205 C1189 1.349 . S
C1205 H1197 0.950 . S
C1205 C1203 1.327 . S
C1206 C1194 1.349 . S
C1206 H1200 0.950 . S
C1206 C1207 1.327 1_655 S
C1207 H1201 0.951 . S
C1207 C1206 1.327 1_455 S
C1207 C1211 1.429 . S
C1208 C1191 1.574 . S
C1208 H1202 0.949 . S
C1208 C1212 1.368 . S
C1209 C1190 1.429 . S
C1209 C1203 1.429 . S
C1209 C1210 1.523 . S
C1210 C1191 1.368 . S
C1210 C1204 1.368 . S
C1210 C1209 1.523 . S
C1211 C1195 1.429 . S
C1211 C1207 1.429 . S
C1211 C1212 1.523 1_554 S
C1212 C1196 1.368 . S
C1212 C1208 1.368 . S
C1212 C1211 1.523 1_556 S
H1213 C1188 0.950 . S
H1214 C1190 0.950 . S
H1215 C1191 0.949 . S
H1216 C1193 0.950 . S
H1217 C1195 0.950 . S
C1218 C1219 1.349 . S
C1218 C1220 1.327 . S
C1218 H1243 0.950 . S
C1219 C1218 1.349 . S
C1219 C1235 1.349 . S
C1220 C1218 1.327 . S
C1220 C1239 1.429 . S
C1220 H1244 0.950 . S
C1221 C1238 1.574 . S
C1221 C1240 1.368 . S
C1221 H1245 0.949 . S
H1222 C1226 0.949 . S
C1223 C1224 1.349 . S
C1223 C1225 1.327 . S
C1223 H1246 0.950 . S
C1224 C1223 1.349 . S
C1224 C1236 1.349 . S
C1225 C1223 1.327 . S
C1225 C1241 1.429 . S
C1225 H1247 0.950 . S
C1226 H1222 0.949 . S
C1226 C1234 1.574 . S
C1226 C1242 1.368 . S
H1227 C1235 0.950 . S
H1228 C1233 0.950 . S
H1229 C1234 0.949 . S
H1230 C1236 0.950 . S
H1231 C1237 0.950 . S
H1232 C1238 0.949 . S
C1233 H1228 0.950 . S
C1233 C1235 1.327 . S
C1233 C1239 1.429 . S
C1234 C1226 1.574 . S
C1234 H1229 0.949 . S
C1234 C1240 1.368 . S
C1235 C1219 1.349 . S
C1235 H1227 0.950 . S
C1235 C1233 1.327 . S
C1236 C1224 1.349 . S
C1236 H1230 0.950 . S
C1236 C1237 1.327 . S
C1237 H1231 0.950 . S
C1237 C1236 1.327 . S
C1237 C1241 1.429 . S
C1238 C1221 1.574 . S
C1238 H1232 0.949 . S
C1238 C1242 1.368 . S
C1239 C1220 1.429 . S
C1239 C1233 1.429 . S
C1239 C1240 1.523 . S
C1240 C1221 1.368 . S
C1240 C1234 1.368 . S
C1240 C1239 1.523 . S
C1241 C1225 1.429 . S
C1241 C1237 1.429 . S
C1241 C1242 1.523 . S
C1242 C1226 1.368 . S
C1242 C1238 1.368 . S
C1242 C1241 1.523 . S
H1243 C1218 0.950 . S
H1244 C1220 0.950 . S
H1245 C1221 0.949 . S
H1246 C1223 0.950 . S
H1247 C1225 0.950 . S
C1248 C1249 1.349 1_655 S
C1248 C1250 1.327 . S
C1248 H1273 0.950 . S
C1249 C1248 1.349 1_455 S
C1249 C1265 1.349 . S
C1250 C1248 1.327 . S
C1250 C1269 1.429 . S
C1250 H1274 0.950 . S
C1251 C1268 1.574 . S
C1251 C1270 1.368 . S
C1251 H1275 0.949 . S
H1252 C1256 0.949 . S
C1253 C1254 1.349 . S
C1253 C1255 1.327 . S
C1253 H1276 0.950 . S
C1254 C1253 1.349 . S
C1254 C1266 1.349 . S
C1255 C1253 1.327 . S
C1255 C1271 1.429 . S
C1255 H1277 0.950 . S
C1256 H1252 0.949 . S
C1256 C1264 1.574 . S
C1256 C1272 1.368 . S
H1257 C1265 0.950 . S
H1258 C1263 0.946 1_455 S
H1259 C1264 0.949 . S
H1260 C1266 0.950 . S
H1261 C1267 0.950 . S
H1262 C1268 0.949 . S
C1263 H1258 0.946 1_655 S
C1263 C1265 1.311 1_655 S
C1263 C1269 1.449 . S
C1264 C1256 1.574 . S
C1264 H1259 0.949 . S
C1264 C1270 1.368 . S
C1265 C1249 1.349 . S
C1265 H1257 0.950 . S
C1265 C1263 1.311 1_455 S
C1266 C1254 1.349 . S
C1266 H1260 0.950 . S
C1266 C1267 1.327 . S
C1267 H1261 0.950 . S
C1267 C1266 1.327 . S
C1267 C1271 1.429 . S
C1268 C1251 1.574 . S
C1268 H1262 0.949 . S
C1268 C1272 1.368 . S
C1269 C1250 1.429 . S
C1269 C1263 1.449 . S
C1269 C1270 1.523 . S
C1270 C1251 1.368 . S
C1270 C1264 1.368 . S
C1270 C1269 1.523 . S
C1271 C1255 1.429 . S
C1271 C1267 1.429 . S
C1271 C1272 1.523 . S
C1272 C1256 1.368 . S
C1272 C1268 1.368 . S
C1272 C1271 1.523 . S
H1273 C1248 0.950 . S
H1274 C1250 0.950 . S
H1275 C1251 0.949 . S
H1276 C1253 0.950 . S
H1277 C1255 0.950 . S
C1278 C1279 1.349 . S
C1278 C1280 1.327 . S
C1278 H1303 0.950 . S
C1279 C1278 1.349 . S
C1279 C1295 1.349 . S
C1280 C1278 1.327 . S
C1280 C1299 1.429 . S
C1280 H1304 0.950 . S
C1281 C1298 1.574 . S
C1281 C1300 1.368 . S
C1281 H1305 0.949 . S
H1282 C1286 0.949 . S
C1283 C1284 1.349 . S
C1283 C1285 1.327 . S
C1283 H1306 0.950 . S
C1284 C1283 1.349 . S
C1284 C1296 1.349 . S
C1285 C1283 1.327 . S
C1285 C1301 1.429 . S
C1285 H1307 0.950 . S
C1286 H1282 0.949 . S
C1286 C1294 1.574 . S
C1286 C1302 1.368 . S
H1287 C1295 0.950 . S
H1288 C1293 0.950 . S
H1289 C1294 0.949 . S
H1290 C1296 0.950 . S
H1291 C1297 0.950 . S
H1292 C1298 0.949 . S
C1293 H1288 0.950 . S
C1293 C1295 1.327 . S
C1293 C1299 1.429 . S
C1294 C1286 1.574 . S
C1294 H1289 0.949 . S
C1294 C1300 1.368 . S
C1295 C1279 1.349 . S
C1295 H1287 0.950 . S
C1295 C1293 1.327 . S
C1296 C1284 1.349 . S
C1296 H1290 0.950 . S
C1296 C1297 1.327 . S
C1297 H1291 0.950 . S
C1297 C1296 1.327 . S
C1297 C1301 1.429 . S
C1298 C1281 1.574 . S
C1298 H1292 0.949 . S
C1298 C1302 1.368 . S
C1299 C1280 1.429 . S
C1299 C1293 1.429 . S
C1299 C1300 1.523 . S
C1300 C1281 1.368 . S
C1300 C1294 1.368 . S
C1300 C1299 1.523 . S
C1301 C1285 1.429 . S
C1301 C1297 1.429 . S
C1301 C1302 1.523 . S
C1302 C1286 1.368 . S
C1302 C1298 1.368 . S
C1302 C1301 1.523 . S
H1303 C1278 0.950 . S
H1304 C1280 0.950 . S
H1305 C1281 0.949 . S
H1306 C1283 0.950 . S
H1307 C1285 0.950 . S
C1308 C1309 1.349 . S
C1308 C1310 1.327 . S
C1308 H1333 0.950 . S
C1309 C1308 1.349 . S
C1309 C1325 1.349 . S
C1310 C1308 1.327 . S
C1310 C1329 1.429 . S
C1310 H1334 0.950 . S
C1311 C1328 1.574 . S
C1311 C1330 1.368 . S
C1311 H1335 0.949 . S
H1312 C1316 0.949 . S
C1313 C1314 1.349 . S
C1313 C1315 1.327 . S
C1313 H1336 0.950 . S
C1314 C1313 1.349 . S
C1314 C1326 1.349 . S
C1315 C1313 1.327 . S
C1315 C1331 1.429 . S
C1315 H1337 0.950 . S
C1316 H1312 0.949 . S
C1316 C1324 1.574 . S
C1316 C1332 1.368 . S
H1317 C1325 0.950 . S
H1318 C1323 0.950 . S
H1319 C1324 0.949 . S
H1320 C1326 0.950 . S
H1321 C1327 0.950 . S
H1322 C1328 0.949 . S
C1323 H1318 0.950 . S
C1323 C1325 1.327 . S
C1323 C1329 1.429 . S
C1324 C1316 1.574 . S
C1324 H1319 0.949 . S
C1324 C1330 1.368 . S
C1325 C1309 1.349 . S
C1325 H1317 0.950 . S
C1325 C1323 1.327 . S
C1326 C1314 1.349 . S
C1326 H1320 0.950 . S
C1326 C1327 1.327 . S
C1327 H1321 0.950 . S
C1327 C1326 1.327 . S
C1327 C1331 1.429 . S
C1328 C1311 1.574 . S
C1328 H1322 0.949 . S
C1328 C1332 1.368 . S
C1329 C1310 1.429 . S
C1329 C1323 1.429 . S
C1329 C1330 1.523 . S
C1330 C1311 1.368 . S
C1330 C1324 1.368 . S
C1330 C1329 1.523 . S
C1331 C1315 1.429 . S
C1331 C1327 1.429 . S
C1331 C1332 1.523 1_556 S
C1332 C1316 1.368 . S
C1332 C1328 1.368 . S
C1332 C1331 1.523 1_554 S
H1333 C1308 0.950 . S
H1334 C1310 0.950 . S
H1335 C1311 0.949 . S
H1336 C1313 0.950 . S
H1337 C1315 0.950 . S
C1338 C1339 1.349 . S
C1338 C1340 1.327 . S
C1338 H1363 0.950 . S
C1339 C1338 1.349 . S
C1339 C1355 1.349 . S
C1340 C1338 1.327 . S
C1340 C1359 1.429 . S
C1340 H1364 0.950 . S
C1341 C1358 1.574 . S
C1341 C1360 1.368 . S
C1341 H1365 0.949 . S
H1342 C1346 0.949 . S
C1343 C1344 1.349 . S
C1343 C1345 1.327 . S
C1343 H1366 0.950 . S
C1344 C1343 1.349 . S
C1344 C1356 1.349 . S
C1345 C1343 1.327 . S
C1345 C1361 1.429 . S
C1345 H1367 0.950 . S
C1346 H1342 0.949 . S
C1346 C1354 1.574 . S
C1346 C1362 1.368 . S
H1347 C1355 0.950 . S
H1348 C1353 0.950 . S
H1349 C1354 0.949 . S
H1350 C1356 0.950 . S
H1351 C1357 0.950 . S
H1352 C1358 0.949 . S
C1353 H1348 0.950 . S
C1353 C1355 1.327 . S
C1353 C1359 1.429 . S
C1354 C1346 1.574 . S
C1354 H1349 0.949 . S
C1354 C1360 1.368 . S
C1355 C1339 1.349 . S
C1355 H1347 0.950 . S
C1355 C1353 1.327 . S
C1356 C1344 1.349 . S
C1356 H1350 0.950 . S
C1356 C1357 1.327 . S
C1357 H1351 0.950 . S
C1357 C1356 1.327 . S
C1357 C1361 1.429 . S
C1358 C1341 1.574 . S
C1358 H1352 0.949 . S
C1358 C1362 1.368 . S
C1359 C1340 1.429 . S
C1359 C1353 1.429 . S
C1359 C1360 1.523 . S
C1360 C1341 1.368 . S
C1360 C1354 1.368 . S
C1360 C1359 1.523 . S
C1361 C1345 1.429 . S
C1361 C1357 1.429 . S
C1361 C1362 1.523 . S
C1362 C1346 1.368 . S
C1362 C1358 1.368 . S
C1362 C1361 1.523 . S
H1363 C1338 0.950 . S
H1364 C1340 0.950 . S
H1365 C1341 0.949 . S
H1366 C1343 0.950 . S
H1367 C1345 0.950 . S
C1368 C1369 1.349 . S
C1368 C1370 1.327 . S
C1368 H1393 0.950 . S
C1369 C1368 1.349 . S
C1369 C1385 1.349 . S
C1370 C1368 1.327 . S
C1370 C1389 1.429 . S
C1370 H1394 0.950 . S
C1371 C1388 1.574 . S
C1371 C1390 1.368 . S
C1371 H1395 0.949 . S
H1372 C1376 0.949 . S
C1373 C1374 1.349 . S
C1373 C1375 1.327 . S
C1373 H1396 0.950 . S
C1374 C1373 1.349 . S
C1374 C1386 1.349 . S
C1375 C1373 1.327 . S
C1375 C1391 1.429 . S
C1375 H1397 0.950 . S
C1376 H1372 0.949 . S
C1376 C1384 1.574 . S
C1376 C1392 1.368 . S
H1377 C1385 0.950 . S
H1378 C1383 0.950 . S
H1379 C1384 0.949 . S
H1380 C1386 0.950 . S
H1381 C1387 0.950 . S
H1382 C1388 0.949 . S
C1383 H1378 0.950 . S
C1383 C1385 1.327 . S
C1383 C1389 1.429 . S
C1384 C1376 1.574 . S
C1384 H1379 0.949 . S
C1384 C1390 1.368 . S
C1385 C1369 1.349 . S
C1385 H1377 0.950 . S
C1385 C1383 1.327 . S
C1386 C1374 1.349 . S
C1386 H1380 0.950 . S
C1386 C1387 1.327 . S
C1387 H1381 0.950 . S
C1387 C1386 1.327 . S
C1387 C1391 1.429 . S
C1388 C1371 1.574 . S
C1388 H1382 0.949 . S
C1388 C1392 1.368 . S
C1389 C1370 1.429 . S
C1389 C1383 1.429 . S
C1389 C1390 1.523 . S
C1390 C1371 1.368 . S
C1390 C1384 1.368 . S
C1390 C1389 1.523 . S
C1391 C1375 1.429 . S
C1391 C1387 1.429 . S
C1391 C1392 1.523 . S
C1392 C1376 1.368 . S
C1392 C1388 1.368 . S
C1392 C1391 1.523 . S
H1393 C1368 0.950 . S
H1394 C1370 0.950 . S
H1395 C1371 0.949 . S
H1396 C1373 0.950 . S
H1397 C1375 0.950 . S
C1398 C1399 1.349 1_545 S
C1398 C1400 1.327 . S
C1398 H1423 0.950 . S
C1399 C1398 1.349 1_565 S
C1399 C1415 1.349 . S
C1400 C1398 1.327 . S
C1400 C1419 1.429 . S
C1400 H1424 0.950 . S
C1401 C1418 1.574 . S
C1401 C1420 1.368 . S
C1401 H1425 0.971 . S
H1402 C1406 0.949 . S
C1403 C1404 1.349 . S
C1403 C1405 1.327 . S
C1403 H1426 0.950 . S
C1404 C1403 1.349 . S
C1404 C1416 1.349 . S
C1405 C1403 1.327 . S
C1405 C1421 1.429 . S
C1405 H1427 0.950 . S
C1406 H1402 0.949 . S
C1406 C1414 1.574 . S
C1406 C1422 1.368 . S
H1407 C1415 0.950 . S
H1408 C1413 0.950 1_655 S
H1409 C1414 0.949 1_455 S
H1410 C1416 0.950 . S
H1411 C1417 0.950 . S
H1412 C1418 0.949 . S
C1413 H1408 0.950 1_455 S
C1413 C1415 1.327 . S
C1413 C1419 1.429 1_565 S
C1414 C1406 1.574 . S
C1414 H1409 0.949 1_655 S
C1414 C1420 1.368 . S
C1415 C1399 1.349 . S
C1415 H1407 0.950 . S
C1415 C1413 1.327 . S
C1416 C1404 1.349 . S
C1416 H1410 0.950 . S
C1416 C1417 1.327 . S
C1417 H1411 0.950 . S
C1417 C1416 1.327 . S
C1417 C1421 1.429 . S
C1418 C1401 1.574 . S
C1418 H1412 0.949 . S
C1418 C1422 1.368 . S
C1419 C1400 1.429 . S
C1419 C1413 1.429 1_545 S
C1419 C1420 1.523 1_455 S
C1420 C1401 1.368 . S
C1420 C1414 1.368 . S
C1420 C1419 1.523 1_655 S
C1421 C1405 1.429 . S
C1421 C1417 1.429 . S
C1421 C1422 1.523 . S
C1422 C1406 1.368 . S
C1422 C1418 1.368 . S
C1422 C1421 1.523 . S
H1423 C1398 0.950 . S
H1424 C1400 0.950 . S
H1425 C1401 0.971 . S
H1426 C1403 0.950 . S
H1427 C1405 0.950 . S
C1428 C1429 1.349 . S
C1428 C1430 1.327 . S
C1428 H1453 0.950 . S
C1429 C1428 1.349 . S
C1429 C1445 1.349 . S
C1430 C1428 1.327 . S
C1430 C1449 1.429 . S
C1430 H1454 0.950 . S
C1431 C1448 1.574 . S
C1431 C1450 1.368 . S
C1431 H1455 0.949 . S
H1432 C1436 0.949 . S
C1433 C1434 1.349 . S
C1433 C1435 1.327 . S
C1433 H1456 0.950 . S
C1434 C1433 1.349 . S
C1434 C1446 1.349 . S
C1435 C1433 1.327 . S
C1435 C1451 1.429 . S
C1435 H1457 0.950 . S
C1436 H1432 0.949 . S
C1436 C1444 1.574 . S
C1436 C1452 1.368 . S
H1437 C1445 0.950 . S
H1438 C1443 0.950 . S
H1439 C1444 0.949 . S
H1440 C1446 0.950 . S
H1441 C1447 0.950 . S
H1442 C1448 0.949 . S
C1443 H1438 0.950 . S
C1443 C1445 1.327 . S
C1443 C1449 1.429 . S
C1444 C1436 1.574 . S
C1444 H1439 0.949 . S
C1444 C1450 1.368 . S
C1445 C1429 1.349 . S
C1445 H1437 0.950 . S
C1445 C1443 1.327 . S
C1446 C1434 1.349 . S
C1446 H1440 0.950 . S
C1446 C1447 1.327 . S
C1447 H1441 0.950 . S
C1447 C1446 1.327 . S
C1447 C1451 1.429 . S
C1448 C1431 1.574 . S
C1448 H1442 0.949 . S
C1448 C1452 1.368 . S
C1449 C1430 1.429 . S
C1449 C1443 1.429 . S
C1449 C1450 1.523 . S
C1450 C1431 1.368 . S
C1450 C1444 1.368 . S
C1450 C1449 1.523 . S
C1451 C1435 1.429 . S
C1451 C1447 1.429 . S
C1451 C1452 1.523 . S
C1452 C1436 1.368 . S
C1452 C1448 1.368 . S
C1452 C1451 1.523 . S
H1453 C1428 0.950 . S
H1454 C1430 0.950 . S
H1455 C1431 0.949 . S
H1456 C1433 0.950 . S
H1457 C1435 0.950 . S
C1458 C1459 1.349 . S
C1458 C1460 1.327 . S
C1458 H1483 0.950 . S
C1459 C1458 1.349 . S
C1459 C1475 1.349 1_545 S
C1460 C1458 1.327 . S
C1460 C1479 1.429 1_545 S
C1460 H1484 0.950 . S
C1461 C1478 1.574 . S
C1461 C1480 1.368 . S
C1461 H1485 0.949 . S
H1462 C1466 0.949 . S
C1463 C1464 1.349 . S
C1463 C1465 1.327 . S
C1463 H1486 0.950 . S
C1464 C1463 1.349 . S
C1464 C1476 1.349 . S
C1465 C1463 1.327 . S
C1465 C1481 1.429 . S
C1465 H1487 0.950 . S
C1466 H1462 0.949 . S
C1466 C1474 1.574 . S
C1466 C1482 1.368 . S
H1467 C1475 0.950 . S
H1468 C1473 0.950 . S
H1469 C1474 0.950 1_545 S
H1470 C1476 0.950 . S
H1471 C1477 0.950 . S
H1472 C1478 0.949 . S
C1473 H1468 0.950 . S
C1473 C1475 1.327 . S
C1473 C1479 1.429 . S
C1474 C1466 1.574 . S
C1474 H1469 0.950 1_565 S
C1474 C1480 1.368 . S
C1475 C1459 1.349 1_565 S
C1475 H1467 0.950 . S
C1475 C1473 1.327 . S
C1476 C1464 1.349 . S
C1476 H1470 0.950 . S
C1476 C1477 1.327 . S
C1477 H1471 0.950 . S
C1477 C1476 1.327 . S
C1477 C1481 1.429 . S
C1478 C1461 1.574 . S
C1478 H1472 0.949 . S
C1478 C1482 1.368 . S
C1479 C1460 1.429 1_565 S
C1479 C1473 1.429 . S
C1479 C1480 1.523 . S
C1480 C1461 1.368 . S
C1480 C1474 1.368 . S
C1480 C1479 1.523 . S
C1481 C1465 1.429 . S
C1481 C1477 1.429 . S
C1481 C1482 1.523 . S
C1482 C1466 1.368 . S
C1482 C1478 1.368 . S
C1482 C1481 1.523 . S
H1483 C1458 0.950 . S
H1484 C1460 0.950 . S
H1485 C1461 0.949 . S
H1486 C1463 0.950 . S
H1487 C1465 0.950 . S
C1488 C1489 1.349 . S
C1488 C1490 1.327 . S
C1488 H1513 0.950 . S
C1489 C1488 1.349 . S
C1489 C1505 1.349 . S
C1490 C1488 1.327 . S
C1490 C1509 1.429 . S
C1490 H1514 0.950 . S
C1491 C1508 1.574 . S
C1491 C1510 1.368 . S
C1491 H1515 0.949 . S
H1492 C1496 0.949 . S
C1493 C1494 1.349 . S
C1493 C1495 1.327 . S
C1493 H1516 0.950 . S
C1494 C1493 1.349 . S
C1494 C1506 1.349 . S
C1495 C1493 1.327 . S
C1495 C1511 1.429 . S
C1495 H1517 0.950 . S
C1496 H1492 0.949 . S
C1496 C1504 1.574 . S
C1496 C1512 1.368 . S
H1497 C1505 0.950 . S
H1498 C1503 0.950 . S
H1499 C1504 0.949 . S
H1500 C1506 0.950 . S
H1501 C1507 0.950 . S
H1502 C1508 0.949 . S
C1503 H1498 0.950 . S
C1503 C1505 1.327 . S
C1503 C1509 1.429 . S
C1504 C1496 1.574 . S
C1504 H1499 0.949 . S
C1504 C1510 1.368 . S
C1505 C1489 1.349 . S
C1505 H1497 0.950 . S
C1505 C1503 1.327 . S
C1506 C1494 1.349 . S
C1506 H1500 0.950 . S
C1506 C1507 1.327 . S
C1507 H1501 0.950 . S
C1507 C1506 1.327 . S
C1507 C1511 1.429 . S
C1508 C1491 1.574 . S
C1508 H1502 0.949 . S
C1508 C1512 1.368 . S
C1509 C1490 1.429 . S
C1509 C1503 1.429 . S
C1509 C1510 1.523 . S
C1510 C1491 1.368 . S
C1510 C1504 1.368 . S
C1510 C1509 1.523 . S
C1511 C1495 1.429 . S
C1511 C1507 1.429 . S
C1511 C1512 1.523 . S
C1512 C1496 1.368 . S
C1512 C1508 1.368 . S
C1512 C1511 1.523 . S
H1513 C1488 0.950 . S
H1514 C1490 0.950 . S
H1515 C1491 0.949 . S
H1516 C1493 0.950 . S
H1517 C1495 0.950 . S
C1518 C1519 1.349 . S
C1518 C1520 1.327 . S
C1518 H1543 0.950 . S
C1519 C1518 1.349 . S
C1519 C1535 1.349 . S
C1520 C1518 1.327 . S
C1520 C1539 1.429 . S
C1520 H1544 0.950 1_655 S
C1521 C1538 1.574 . S
C1521 C1540 1.368 . S
C1521 H1545 0.909 1_455 S
H1522 C1526 0.949 . S
C1523 C1524 1.349 . S
C1523 C1525 1.327 . S
C1523 H1546 0.950 . S
C1524 C1523 1.349 . S
C1524 C1536 1.349 . S
C1525 C1523 1.327 . S
C1525 C1541 1.429 . S
C1525 H1547 0.950 . S
C1526 H1522 0.949 . S
C1526 C1534 1.574 . S
C1526 C1542 1.368 . S
H1527 C1535 0.950 . S
H1528 C1533 0.950 . S
H1529 C1534 0.949 . S
H1530 C1536 0.950 . S
H1531 C1537 0.950 . S
H1532 C1538 0.949 . S
C1533 H1528 0.950 . S
C1533 C1535 1.327 . S
C1533 C1539 1.429 . S
C1534 C1526 1.574 . S
C1534 H1529 0.949 . S
C1534 C1540 1.368 . S
C1535 C1519 1.349 . S
C1535 H1527 0.950 . S
C1535 C1533 1.327 . S
C1536 C1524 1.349 . S
C1536 H1530 0.950 . S
C1536 C1537 1.327 . S
C1537 H1531 0.950 . S
C1537 C1536 1.327 . S
C1537 C1541 1.429 . S
C1538 C1521 1.574 . S
C1538 H1532 0.949 . S
C1538 C1542 1.368 . S
C1539 C1520 1.429 . S
C1539 C1533 1.429 . S
C1539 C1540 1.523 1_655 S
C1540 C1521 1.368 . S
C1540 C1534 1.368 . S
C1540 C1539 1.523 1_455 S
C1541 C1525 1.429 . S
C1541 C1537 1.429 . S
C1541 C1542 1.523 . S
C1542 C1526 1.368 . S
C1542 C1538 1.368 . S
C1542 C1541 1.523 . S
H1543 C1518 0.950 . S
H1544 C1520 0.950 1_455 S
H1545 C1521 0.909 1_655 S
H1546 C1523 0.950 . S
H1547 C1525 0.950 . S
C1548 C1549 1.349 . S
C1548 C1550 1.327 . S
C1548 H1573 0.950 . S
C1549 C1548 1.349 . S
C1549 C1565 1.349 . S
C1550 C1548 1.327 . S
C1550 C1569 1.429 . S
C1550 H1574 0.950 . S
C1551 C1568 1.574 . S
C1551 C1570 1.368 . S
C1551 H1575 0.949 . S
H1552 C1556 0.949 . S
C1553 C1554 1.349 . S
C1553 C1555 1.327 . S
C1553 H1576 0.950 . S
C1554 C1553 1.349 . S
C1554 C1566 1.349 . S
C1555 C1553 1.327 . S
C1555 C1571 1.429 . S
C1555 H1577 0.950 . S
C1556 H1552 0.949 . S
C1556 C1564 1.574 . S
C1556 C1572 1.368 . S
H1557 C1565 0.950 . S
H1558 C1563 0.950 . S
H1559 C1564 0.949 . S
H1560 C1566 0.950 . S
H1561 C1567 0.950 . S
H1562 C1568 0.949 . S
C1563 H1558 0.950 . S
C1563 C1565 1.327 . S
C1563 C1569 1.429 . S
C1564 C1556 1.574 . S
C1564 H1559 0.949 . S
C1564 C1570 1.368 . S
C1565 C1549 1.349 . S
C1565 H1557 0.950 . S
C1565 C1563 1.327 . S
C1566 C1554 1.349 . S
C1566 H1560 0.950 . S
C1566 C1567 1.327 . S
C1567 H1561 0.950 . S
C1567 C1566 1.327 . S
C1567 C1571 1.429 . S
C1568 C1551 1.574 . S
C1568 H1562 0.949 . S
C1568 C1572 1.368 . S
C1569 C1550 1.429 . S
C1569 C1563 1.429 . S
C1569 C1570 1.523 . S
C1570 C1551 1.368 . S
C1570 C1564 1.368 . S
C1570 C1569 1.523 . S
C1571 C1555 1.429 . S
C1571 C1567 1.429 . S
C1571 C1572 1.523 . S
C1572 C1556 1.368 . S
C1572 C1568 1.368 . S
C1572 C1571 1.523 . S
H1573 C1548 0.950 . S
H1574 C1550 0.950 . S
H1575 C1551 0.949 . S
H1576 C1553 0.950 . S
H1577 C1555 0.950 . S
C1578 C1579 1.349 . S
C1578 C1580 1.327 . S
C1578 H1603 0.950 . S
C1579 C1578 1.349 . S
C1579 C1595 1.349 . S
C1580 C1578 1.327 . S
C1580 C1599 1.429 . S
C1580 H1604 0.950 . S
C1581 C1598 1.574 . S
C1581 C1600 1.368 . S
C1581 H1605 0.949 . S
H1582 C1586 0.949 . S
C1583 C1584 1.349 . S
C1583 C1585 1.327 . S
C1583 H1606 0.950 . S
C1584 C1583 1.349 . S
C1584 C1596 1.349 . S
C1585 C1583 1.327 . S
C1585 C1601 1.429 . S
C1585 H1607 0.950 . S
C1586 H1582 0.949 . S
C1586 C1594 1.574 . S
C1586 C1602 1.368 . S
H1587 C1595 0.950 . S
H1588 C1593 0.950 . S
H1589 C1594 0.949 . S
H1590 C1596 0.950 . S
H1591 C1597 0.950 . S
H1592 C1598 0.949 . S
C1593 H1588 0.950 . S
C1593 C1595 1.327 . S
C1593 C1599 1.429 . S
C1594 C1586 1.574 . S
C1594 H1589 0.949 . S
C1594 C1600 1.368 . S
C1595 C1579 1.349 . S
C1595 H1587 0.950 . S
C1595 C1593 1.327 . S
C1596 C1584 1.349 . S
C1596 H1590 0.950 . S
C1596 C1597 1.327 . S
C1597 H1591 0.950 . S
C1597 C1596 1.327 . S
C1597 C1601 1.429 . S
C1598 C1581 1.574 . S
C1598 H1592 0.949 . S
C1598 C1602 1.368 . S
C1599 C1580 1.429 . S
C1599 C1593 1.429 . S
C1599 C1600 1.523 . S
C1600 C1581 1.368 . S
C1600 C1594 1.368 . S
C1600 C1599 1.523 . S
C1601 C1585 1.429 . S
C1601 C1597 1.429 . S
C1601 C1602 1.523 . S
C1602 C1586 1.368 . S
C1602 C1598 1.368 . S
C1602 C1601 1.523 . S
H1603 C1578 0.950 . S
H1604 C1580 0.950 . S
H1605 C1581 0.949 . S
H1606 C1583 0.950 . S
H1607 C1585 0.950 . S
C1608 C1609 1.349 . S
C1608 C1610 1.327 . S
C1608 H1633 0.950 . S
C1609 C1608 1.349 . S
C1609 C1625 1.349 . S
C1610 C1608 1.327 . S
C1610 C1629 1.429 . S
C1610 H1634 0.950 . S
C1611 C1628 1.574 . S
C1611 C1630 1.368 . S
C1611 H1635 0.949 . S
H1612 C1616 0.949 . S
C1613 C1614 1.349 . S
C1613 C1615 1.327 . S
C1613 H1636 0.950 . S
C1614 C1613 1.349 . S
C1614 C1626 1.349 . S
C1615 C1613 1.327 . S
C1615 C1631 1.429 . S
C1615 H1637 0.950 . S
C1616 H1612 0.949 . S
C1616 C1624 1.574 . S
C1616 C1632 1.368 . S
H1617 C1625 0.950 . S
H1618 C1623 0.950 . S
H1619 C1624 0.949 . S
H1620 C1626 0.950 . S
H1621 C1627 0.950 . S
H1622 C1628 0.949 . S
C1623 H1618 0.950 . S
C1623 C1625 1.327 . S
C1623 C1629 1.429 . S
C1624 C1616 1.574 . S
C1624 H1619 0.949 . S
C1624 C1630 1.368 . S
C1625 C1609 1.349 . S
C1625 H1617 0.950 . S
C1625 C1623 1.327 . S
C1626 C1614 1.349 . S
C1626 H1620 0.950 . S
C1626 C1627 1.327 . S
C1627 H1621 0.950 . S
C1627 C1626 1.327 . S
C1627 C1631 1.429 . S
C1628 C1611 1.574 . S
C1628 H1622 0.949 . S
C1628 C1632 1.368 . S
C1629 C1610 1.429 . S
C1629 C1623 1.429 . S
C1629 C1630 1.523 . S
C1630 C1611 1.368 . S
C1630 C1624 1.368 . S
C1630 C1629 1.523 . S
C1631 C1615 1.429 . S
C1631 C1627 1.429 . S
C1631 C1632 1.523 . S
C1632 C1616 1.368 . S
C1632 C1628 1.368 . S
C1632 C1631 1.523 . S
H1633 C1608 0.950 . S
H1634 C1610 0.950 . S
H1635 C1611 0.949 . S
H1636 C1613 0.950 . S
H1637 C1615 0.950 . S
C1638 C1639 1.349 . S
C1638 C1640 1.327 . S
C1638 H1663 0.950 . S
C1639 C1638 1.349 . S
C1639 C1655 1.349 . S
C1640 C1638 1.327 . S
C1640 C1659 1.429 . S
C1640 H1664 0.950 . S
C1641 C1658 1.574 . S
C1641 C1660 1.368 . S
C1641 H1665 0.949 . S
H1642 C1646 0.949 . S
C1643 C1644 1.349 . S
C1643 C1645 1.327 . S
C1643 H1666 0.950 . S
C1644 C1643 1.349 . S
C1644 C1656 1.349 . S
C1645 C1643 1.327 . S
C1645 C1661 1.429 . S
C1645 H1667 0.950 . S
C1646 H1642 0.949 . S
C1646 C1654 1.574 . S
C1646 C1662 1.368 . S
H1647 C1655 0.950 . S
H1648 C1653 0.950 . S
H1649 C1654 0.949 . S
H1650 C1656 0.950 . S
H1651 C1657 0.950 . S
H1652 C1658 0.949 . S
C1653 H1648 0.950 . S
C1653 C1655 1.327 . S
C1653 C1659 1.429 . S
C1654 C1646 1.574 . S
C1654 H1649 0.949 . S
C1654 C1660 1.368 . S
C1655 C1639 1.349 . S
C1655 H1647 0.950 . S
C1655 C1653 1.327 . S
C1656 C1644 1.349 . S
C1656 H1650 0.950 . S
C1656 C1657 1.327 . S
C1657 H1651 0.950 . S
C1657 C1656 1.327 . S
C1657 C1661 1.429 . S
C1658 C1641 1.574 . S
C1658 H1652 0.949 . S
C1658 C1662 1.368 . S
C1659 C1640 1.429 . S
C1659 C1653 1.429 . S
C1659 C1660 1.523 . S
C1660 C1641 1.368 . S
C1660 C1654 1.368 . S
C1660 C1659 1.523 . S
C1661 C1645 1.429 . S
C1661 C1657 1.429 . S
C1661 C1662 1.523 . S
C1662 C1646 1.368 . S
C1662 C1658 1.368 . S
C1662 C1661 1.523 . S
H1663 C1638 0.950 . S
H1664 C1640 0.950 . S
H1665 C1641 0.949 . S
H1666 C1643 0.950 . S
H1667 C1645 0.950 . S
C1668 C1669 1.349 . S
C1668 C1670 1.327 . S
C1668 H1693 0.950 . S
C1669 C1668 1.349 . S
C1669 C1685 1.349 . S
C1670 C1668 1.327 . S
C1670 C1689 1.429 . S
C1670 H1694 0.950 . S
C1671 C1688 1.574 . S
C1671 C1690 1.368 . S
C1671 H1695 0.949 . S
H1672 C1676 0.949 . S
C1673 C1674 1.349 . S
C1673 C1675 1.327 . S
C1673 H1696 0.950 . S
C1674 C1673 1.349 . S
C1674 C1686 1.349 . S
C1675 C1673 1.327 . S
C1675 C1691 1.429 . S
C1675 H1697 0.950 . S
C1676 H1672 0.949 . S
C1676 C1684 1.574 . S
C1676 C1692 1.368 . S
H1677 C1685 0.950 . S
H1678 C1683 0.950 . S
H1679 C1684 0.949 . S
H1680 C1686 0.950 . S
H1681 C1687 0.950 . S
H1682 C1688 0.949 . S
C1683 H1678 0.950 . S
C1683 C1685 1.327 . S
C1683 C1689 1.429 . S
C1684 C1676 1.574 . S
C1684 H1679 0.949 . S
C1684 C1690 1.368 . S
C1685 C1669 1.349 . S
C1685 H1677 0.950 . S
C1685 C1683 1.327 . S
C1686 C1674 1.349 . S
C1686 H1680 0.950 . S
C1686 C1687 1.327 . S
C1687 H1681 0.950 . S
C1687 C1686 1.327 . S
C1687 C1691 1.429 . S
C1688 C1671 1.574 . S
C1688 H1682 0.949 . S
C1688 C1692 1.368 . S
C1689 C1670 1.429 . S
C1689 C1683 1.429 . S
C1689 C1690 1.523 . S
C1690 C1671 1.368 . S
C1690 C1684 1.368 . S
C1690 C1689 1.523 . S
C1691 C1675 1.429 . S
C1691 C1687 1.429 . S
C1691 C1692 1.523 . S
C1692 C1676 1.368 . S
C1692 C1688 1.368 . S
C1692 C1691 1.523 . S
H1693 C1668 0.950 . S
H1694 C1670 0.950 . S
H1695 C1671 0.949 . S
H1696 C1673 0.950 . S
H1697 C1675 0.950 . S
C1698 C1699 1.349 . S
C1698 C1700 1.327 . S
C1698 H1723 0.950 . S
C1699 C1698 1.349 . S
C1699 C1715 1.349 . S
C1700 C1698 1.327 . S
C1700 C1719 1.429 . S
C1700 H1724 0.950 . S
C1701 C1718 1.574 . S
C1701 C1720 1.368 . S
C1701 H1725 0.949 . S
H1702 C1706 0.949 . S
C1703 C1704 1.349 . S
C1703 C1705 1.327 . S
C1703 H1726 0.950 . S
C1704 C1703 1.349 . S
C1704 C1716 1.349 . S
C1705 C1703 1.327 . S
C1705 C1721 1.429 1_556 S
C1705 H1727 0.950 . S
C1706 H1702 0.949 . S
C1706 C1714 1.574 . S
C1706 C1722 1.368 . S
H1707 C1715 0.950 . S
H1708 C1713 0.950 . S
H1709 C1714 0.949 . S
H1710 C1716 0.950 . S
H1711 C1717 0.950 1_554 S
H1712 C1718 0.949 . S
C1713 H1708 0.950 . S
C1713 C1715 1.327 . S
C1713 C1719 1.429 . S
C1714 C1706 1.574 . S
C1714 H1709 0.949 . S
C1714 C1720 1.368 . S
C1715 C1699 1.349 . S
C1715 H1707 0.950 . S
C1715 C1713 1.327 . S
C1716 C1704 1.349 . S
C1716 H1710 0.950 . S
C1716 C1717 1.327 . S
C1717 H1711 0.950 1_556 S
C1717 C1716 1.327 . S
C1717 C1721 1.429 1_556 S
C1718 C1701 1.574 . S
C1718 H1712 0.949 . S
C1718 C1722 1.368 . S
C1719 C1700 1.429 . S
C1719 C1713 1.429 . S
C1719 C1720 1.523 . S
C1720 C1701 1.368 . S
C1720 C1714 1.368 . S
C1720 C1719 1.523 . S
C1721 C1705 1.429 1_554 S
C1721 C1717 1.429 1_554 S
C1721 C1722 1.523 . S
C1722 C1706 1.368 . S
C1722 C1718 1.368 . S
C1722 C1721 1.523 . S
H1723 C1698 0.950 . S
H1724 C1700 0.950 . S
H1725 C1701 0.949 . S
H1726 C1703 0.950 . S
H1727 C1705 0.950 . S
C1728 C1729 1.349 . S
C1728 C1730 1.327 . S
C1728 H1753 0.950 . S
C1729 C1728 1.349 . S
C1729 C1745 1.349 . S
C1730 C1728 1.327 . S
C1730 C1749 1.459 . S
C1730 H1754 0.950 . S
C1731 C1748 1.574 . S
C1731 C1750 1.368 . S
C1731 H1755 0.949 . S
H1732 C1736 0.949 . S
C1733 C1734 1.349 . S
C1733 C1735 1.327 . S
C1733 H1756 0.950 . S
C1734 C1733 1.349 . S
C1734 C1746 1.349 . S
C1735 C1733 1.327 . S
C1735 C1751 1.429 . S
C1735 H1757 0.950 . S
C1736 H1732 0.949 . S
C1736 C1744 1.574 . S
C1736 C1752 1.368 . S
H1737 C1745 0.950 . S
H1738 C1743 0.950 1_545 S
H1739 C1744 0.949 . S
H1740 C1746 0.950 . S
H1741 C1747 0.950 . S
H1742 C1748 0.949 . S
C1743 H1738 0.950 1_565 S
C1743 C1745 1.327 . S
C1743 C1749 1.430 . S
C1744 C1736 1.574 . S
C1744 H1739 0.949 . S
C1744 C1750 1.368 . S
C1745 C1729 1.349 . S
C1745 H1737 0.950 . S
C1745 C1743 1.327 . S
C1746 C1734 1.349 . S
C1746 H1740 0.950 . S
C1746 C1747 1.327 . S
C1747 H1741 0.950 . S
C1747 C1746 1.327 . S
C1747 C1751 1.429 . S
C1748 C1731 1.574 . S
C1748 H1742 0.949 . S
C1748 C1752 1.368 . S
C1749 C1730 1.459 . S
C1749 C1743 1.430 . S
C1749 C1750 1.494 1_565 S
C1750 C1731 1.368 . S
C1750 C1744 1.368 . S
C1750 C1749 1.494 1_545 S
C1751 C1735 1.429 . S
C1751 C1747 1.429 . S
C1751 C1752 1.523 . S
C1752 C1736 1.368 . S
C1752 C1748 1.368 . S
C1752 C1751 1.523 . S
H1753 C1728 0.950 . S
H1754 C1730 0.950 . S
H1755 C1731 0.949 . S
H1756 C1733 0.950 . S
H1757 C1735 0.950 . S
C1758 C1759 1.349 . S
C1758 C1760 1.327 . S
C1758 H1783 0.950 . S
C1759 C1758 1.349 . S
C1759 C1775 1.349 . S
C1760 C1758 1.327 . S
C1760 C1779 1.429 1_554 S
C1760 H1784 0.950 . S
C1761 C1778 1.574 . S
C1761 C1780 1.368 . S
C1761 H1785 0.949 . S
H1762 C1766 0.949 . S
C1763 C1764 1.349 . S
C1763 C1765 1.327 . S
C1763 H1786 0.950 . S
C1764 C1763 1.349 . S
C1764 C1776 1.349 . S
C1765 C1763 1.327 . S
C1765 C1781 1.429 . S
C1765 H1787 0.950 . S
C1766 H1762 0.949 . S
C1766 C1774 1.574 . S
C1766 C1782 1.368 . S
H1767 C1775 0.950 1_556 S
H1768 C1773 0.950 . S
H1769 C1774 0.949 1_554 S
H1770 C1776 0.950 . S
H1771 C1777 0.950 . S
H1772 C1778 0.949 . S
C1773 H1768 0.950 . S
C1773 C1775 1.327 1_556 S
C1773 C1779 1.429 . S
C1774 C1766 1.574 . S
C1774 H1769 0.949 1_556 S
C1774 C1780 1.368 . S
C1775 C1759 1.349 . S
C1775 H1767 0.950 1_554 S
C1775 C1773 1.327 1_554 S
C1776 C1764 1.349 . S
C1776 H1770 0.950 . S
C1776 C1777 1.327 . S
C1777 H1771 0.950 . S
C1777 C1776 1.327 . S
C1777 C1781 1.429 . S
C1778 C1761 1.574 . S
C1778 H1772 0.949 . S
C1778 C1782 1.368 . S
C1779 C1760 1.429 1_556 S
C1779 C1773 1.429 . S
C1779 C1780 1.523 . S
C1780 C1761 1.368 . S
C1780 C1774 1.368 . S
C1780 C1779 1.523 . S
C1781 C1765 1.429 . S
C1781 C1777 1.429 . S
C1781 C1782 1.523 . S
C1782 C1766 1.368 . S
C1782 C1778 1.368 . S
C1782 C1781 1.523 . S
H1783 C1758 0.950 . S
H1784 C1760 0.950 . S
H1785 C1761 0.949 . S
H1786 C1763 0.950 . S
H1787 C1765 0.950 . S
C1788 C1789 1.349 . S
C1788 C1790 1.291 1_545 S
C1788 H1813 0.950 . S
C1789 C1788 1.349 . S
C1789 C1805 1.349 . S
C1790 C1788 1.291 1_565 S
C1790 C1809 1.425 1_565 S
C1790 H1814 0.991 . S
C1791 C1808 1.574 . S
C1791 C1810 1.368 . S
C1791 H1815 0.910 1_565 S
H1792 C1796 0.949 . S
C1793 C1794 1.349 . S
C1793 C1795 1.327 . S
C1793 H1816 0.950 . S
C1794 C1793 1.349 . S
C1794 C1806 1.349 . S
C1795 C1793 1.327 . S
C1795 C1811 1.429 . S
C1795 H1817 0.950 . S
C1796 H1792 0.949 . S
C1796 C1804 1.574 . S
C1796 C1812 1.368 . S
H1797 C1805 0.950 . S
H1798 C1803 0.950 . S
H1799 C1804 0.949 . S
H1800 C1806 0.950 . S
H1801 C1807 0.950 . S
H1802 C1808 0.949 . S
C1803 H1798 0.950 . S
C1803 C1805 1.327 . S
C1803 C1809 1.463 . S
C1804 C1796 1.574 . S
C1804 H1799 0.949 . S
C1804 C1810 1.368 . S
C1805 C1789 1.349 . S
C1805 H1797 0.950 . S
C1805 C1803 1.327 . S
C1806 C1794 1.349 . S
C1806 H1800 0.950 . S
C1806 C1807 1.327 . S
C1807 H1801 0.950 . S
C1807 C1806 1.327 . S
C1807 C1811 1.429 . S
C1808 C1791 1.574 . S
C1808 H1802 0.949 . S
C1808 C1812 1.368 . S
C1809 C1790 1.425 1_545 S
C1809 C1803 1.463 . S
C1809 C1810 1.494 1_545 S
C1810 C1791 1.368 . S
C1810 C1804 1.368 . S
C1810 C1809 1.494 1_565 S
C1811 C1795 1.429 . S
C1811 C1807 1.429 . S
C1811 C1812 1.523 . S
C1812 C1796 1.368 . S
C1812 C1808 1.368 . S
C1812 C1811 1.523 . S
H1813 C1788 0.950 . S
H1814 C1790 0.991 . S
H1815 C1791 0.910 1_545 S
H1816 C1793 0.950 . S
H1817 C1795 0.950 . S
C1818 C1819 1.349 . S
C1818 C1820 1.327 . S
C1818 H1843 0.950 . S
C1819 C1818 1.349 . S
C1819 C1835 1.349 . S
C1820 C1818 1.327 . S
C1820 C1839 1.429 . S
C1820 H1844 0.950 . S
C1821 C1838 1.574 . S
C1821 C1840 1.368 . S
C1821 H1845 0.949 . S
H1822 C1826 0.949 . S
C1823 C1824 1.349 . S
C1823 C1825 1.327 . S
C1823 H1846 0.950 . S
C1824 C1823 1.349 . S
C1824 C1836 1.349 . S
C1825 C1823 1.327 . S
C1825 C1841 1.429 . S
C1825 H1847 0.950 . S
C1826 H1822 0.949 . S
C1826 C1834 1.574 . S
C1826 C1842 1.368 . S
H1827 C1835 0.950 . S
H1828 C1833 0.950 . S
H1829 C1834 0.949 . S
H1830 C1836 0.950 . S
H1831 C1837 0.950 . S
H1832 C1838 0.949 . S
C1833 H1828 0.950 . S
C1833 C1835 1.327 . S
C1833 C1839 1.429 . S
C1834 C1826 1.574 . S
C1834 H1829 0.949 . S
C1834 C1840 1.368 . S
C1835 C1819 1.349 . S
C1835 H1827 0.950 . S
C1835 C1833 1.327 . S
C1836 C1824 1.349 . S
C1836 H1830 0.950 . S
C1836 C1837 1.327 . S
C1837 H1831 0.950 . S
C1837 C1836 1.327 . S
C1837 C1841 1.429 . S
C1838 C1821 1.574 . S
C1838 H1832 0.949 . S
C1838 C1842 1.368 . S
C1839 C1820 1.429 . S
C1839 C1833 1.429 . S
C1839 C1840 1.523 . S
C1840 C1821 1.368 . S
C1840 C1834 1.368 . S
C1840 C1839 1.523 . S
C1841 C1825 1.429 . S
C1841 C1837 1.429 . S
C1841 C1842 1.523 . S
C1842 C1826 1.368 . S
C1842 C1838 1.368 . S
C1842 C1841 1.523 . S
H1843 C1818 0.950 . S
H1844 C1820 0.950 . S
H1845 C1821 0.949 . S
H1846 C1823 0.950 . S
H1847 C1825 0.950 . S
C1848 C1849 1.349 . S
C1848 C1850 1.327 . S
C1848 H1873 0.950 . S
C1849 C1848 1.349 . S
C1849 C1865 1.349 . S
C1850 C1848 1.327 . S
C1850 C1869 1.429 . S
C1850 H1874 0.950 . S
C1851 C1868 1.574 . S
C1851 C1870 1.368 . S
C1851 H1875 0.949 . S
H1852 C1856 0.949 . S
C1853 C1854 1.349 . S
C1853 C1855 1.327 . S
C1853 H1876 0.950 . S
C1854 C1853 1.349 . S
C1854 C1866 1.349 . S
C1855 C1853 1.327 . S
C1855 C1871 1.429 . S
C1855 H1877 0.950 . S
C1856 H1852 0.949 . S
C1856 C1864 1.574 . S
C1856 C1872 1.368 . S
H1857 C1865 0.950 . S
H1858 C1863 0.950 . S
H1859 C1864 0.949 . S
H1860 C1866 0.950 . S
H1861 C1867 0.950 . S
H1862 C1868 0.949 . S
C1863 H1858 0.950 . S
C1863 C1865 1.327 . S
C1863 C1869 1.429 . S
C1864 C1856 1.574 . S
C1864 H1859 0.949 . S
C1864 C1870 1.368 . S
C1865 C1849 1.349 . S
C1865 H1857 0.950 . S
C1865 C1863 1.327 . S
C1866 C1854 1.349 . S
C1866 H1860 0.950 . S
C1866 C1867 1.327 . S
C1867 H1861 0.950 . S
C1867 C1866 1.327 . S
C1867 C1871 1.429 . S
C1868 C1851 1.574 . S
C1868 H1862 0.949 . S
C1868 C1872 1.368 . S
C1869 C1850 1.429 . S
C1869 C1863 1.429 . S
C1869 C1870 1.523 . S
C1870 C1851 1.368 . S
C1870 C1864 1.368 . S
C1870 C1869 1.523 . S
C1871 C1855 1.429 . S
C1871 C1867 1.429 . S
C1871 C1872 1.523 . S
C1872 C1856 1.368 . S
C1872 C1868 1.368 . S
C1872 C1871 1.523 . S
H1873 C1848 0.950 . S
H1874 C1850 0.950 . S
H1875 C1851 0.949 . S
H1876 C1853 0.950 . S
H1877 C1855 0.950 . S
C1878 C1879 1.349 . S
C1878 C1880 1.327 . S
C1878 H1903 0.950 . S
C1879 C1878 1.349 . S
C1879 C1895 1.349 . S
C1880 C1878 1.327 . S
C1880 C1899 1.429 1_565 S
C1880 H1904 0.950 . S
C1881 C1898 1.574 . S
C1881 C1900 1.368 . S
C1881 H1905 0.949 . S
H1882 C1886 0.949 . S
C1883 C1884 1.349 . S
C1883 C1885 1.327 . S
C1883 H1906 0.950 . S
C1884 C1883 1.349 . S
C1884 C1896 1.349 . S
C1885 C1883 1.327 . S
C1885 C1901 1.429 . S
C1885 H1907 0.950 . S
C1886 H1882 0.949 . S
C1886 C1894 1.574 . S
C1886 C1902 1.368 . S
H1887 C1895 0.950 . S
H1888 C1893 0.950 . S
H1889 C1894 0.949 1_565 S
H1890 C1896 0.950 . S
H1891 C1897 0.950 . S
H1892 C1898 0.949 . S
C1893 H1888 0.950 . S
C1893 C1895 1.327 1_545 S
C1893 C1899 1.429 . S
C1894 C1886 1.574 . S
C1894 H1889 0.949 1_545 S
C1894 C1900 1.368 . S
C1895 C1879 1.349 . S
C1895 H1887 0.950 . S
C1895 C1893 1.327 1_565 S
C1896 C1884 1.349 . S
C1896 H1890 0.950 . S
C1896 C1897 1.327 . S
C1897 H1891 0.950 . S
C1897 C1896 1.327 . S
C1897 C1901 1.429 . S
C1898 C1881 1.574 . S
C1898 H1892 0.949 . S
C1898 C1902 1.368 . S
C1899 C1880 1.429 1_545 S
C1899 C1893 1.429 . S
C1899 C1900 1.523 . S
C1900 C1881 1.368 . S
C1900 C1894 1.368 . S
C1900 C1899 1.523 . S
C1901 C1885 1.429 . S
C1901 C1897 1.429 . S
C1901 C1902 1.523 . S
C1902 C1886 1.368 . S
C1902 C1898 1.368 . S
C1902 C1901 1.523 . S
H1903 C1878 0.950 . S
H1904 C1880 0.950 . S
H1905 C1881 0.949 . S
H1906 C1883 0.950 . S
H1907 C1885 0.950 . S
C1908 C1909 1.349 . S
C1908 C1910 1.327 . S
C1908 H1933 0.950 . S
C1909 C1908 1.349 . S
C1909 C1925 1.349 . S
C1910 C1908 1.327 . S
C1910 C1929 1.429 . S
C1910 H1934 0.950 . S
C1911 C1928 1.574 . S
C1911 C1930 1.368 . S
C1911 H1935 0.949 . S
H1912 C1916 0.949 1_554 S
C1913 C1914 1.349 . S
C1913 C1915 1.327 1_554 S
C1913 H1936 0.950 . S
C1914 C1913 1.349 . S
C1914 C1926 1.349 . S
C1915 C1913 1.327 1_556 S
C1915 C1931 1.426 1_556 S
C1915 H1937 0.950 . S
C1916 H1912 0.949 1_556 S
C1916 C1924 1.574 . S
C1916 C1932 1.368 . S
H1917 C1925 0.950 . S
H1918 C1923 0.950 . S
H1919 C1924 0.949 . S
H1920 C1926 0.950 . S
H1921 C1927 0.950 . S
H1922 C1928 0.949 . S
C1923 H1918 0.950 . S
C1923 C1925 1.327 . S
C1923 C1929 1.429 . S
C1924 C1916 1.574 . S
C1924 H1919 0.949 . S
C1924 C1930 1.368 . S
C1925 C1909 1.349 . S
C1925 H1917 0.950 . S
C1925 C1923 1.327 . S
C1926 C1914 1.349 . S
C1926 H1920 0.950 . S
C1926 C1927 1.327 . S
C1927 H1921 0.950 . S
C1927 C1926 1.327 . S
C1927 C1931 1.464 . S
C1928 C1911 1.574 . S
C1928 H1922 0.949 . S
C1928 C1932 1.368 . S
C1929 C1910 1.429 . S
C1929 C1923 1.429 . S
C1929 C1930 1.523 . S
C1930 C1911 1.368 . S
C1930 C1924 1.368 . S
C1930 C1929 1.523 . S
C1931 C1915 1.426 1_554 S
C1931 C1927 1.464 . S
C1931 C1932 1.494 1_554 S
C1932 C1916 1.368 . S
C1932 C1928 1.368 . S
C1932 C1931 1.494 1_556 S
H1933 C1908 0.950 . S
H1934 C1910 0.950 . S
H1935 C1911 0.949 . S
H1936 C1913 0.950 . S
H1937 C1915 0.950 . S
C1938 C1939 1.349 . S
C1938 C1940 1.327 . S
C1938 H1963 0.950 . S
C1939 C1938 1.349 . S
C1939 C1955 1.349 . S
C1940 C1938 1.327 . S
C1940 C1959 1.429 . S
C1940 H1964 0.950 . S
C1941 C1958 1.574 . S
C1941 C1960 1.368 . S
C1941 H1965 0.949 . S
H1942 C1946 0.949 . S
C1943 C1944 1.349 . S
C1943 C1945 1.327 . S
C1943 H1966 0.950 . S
C1944 C1943 1.349 . S
C1944 C1956 1.349 . S
C1945 C1943 1.327 . S
C1945 C1961 1.429 1_545 S
C1945 H1967 0.950 . S
C1946 H1942 0.949 . S
C1946 C1954 1.574 . S
C1946 C1962 1.368 . S
H1947 C1955 0.950 . S
H1948 C1953 0.950 . S
H1949 C1954 0.949 . S
H1950 C1956 0.941 1_565 S
H1951 C1957 0.950 . S
H1952 C1958 0.949 1_545 S
C1953 H1948 0.950 . S
C1953 C1955 1.327 . S
C1953 C1959 1.429 . S
C1954 C1946 1.574 . S
C1954 H1949 0.949 . S
C1954 C1960 1.368 . S
C1955 C1939 1.349 . S
C1955 H1947 0.950 . S
C1955 C1953 1.327 . S
C1956 C1944 1.349 . S
C1956 H1950 0.941 1_545 S
C1956 C1957 1.327 1_545 S
C1957 H1951 0.950 . S
C1957 C1956 1.327 1_565 S
C1957 C1961 1.429 . S
C1958 C1941 1.574 . S
C1958 H1952 0.949 1_565 S
C1958 C1962 1.368 . S
C1959 C1940 1.429 . S
C1959 C1953 1.429 . S
C1959 C1960 1.523 . S
C1960 C1941 1.368 . S
C1960 C1954 1.368 . S
C1960 C1959 1.523 . S
C1961 C1945 1.429 1_565 S
C1961 C1957 1.429 . S
C1961 C1962 1.523 . S
C1962 C1946 1.368 . S
C1962 C1958 1.368 . S
C1962 C1961 1.523 . S
H1963 C1938 0.950 . S
H1964 C1940 0.950 . S
H1965 C1941 0.949 . S
H1966 C1943 0.950 . S
H1967 C1945 0.950 . S
C1968 C1969 1.349 . S
C1968 C1970 1.327 . S
C1968 H1993 0.950 . S
C1969 C1968 1.349 . S
C1969 C1985 1.349 . S
C1970 C1968 1.327 . S
C1970 C1989 1.429 . S
C1970 H1994 0.950 . S
C1971 C1988 1.574 . S
C1971 C1990 1.368 . S
C1971 H1995 0.949 . S
H1972 C1976 0.949 . S
C1973 C1974 1.349 . S
C1973 C1975 1.327 . S
C1973 H1996 0.950 . S
C1974 C1973 1.349 . S
C1974 C1986 1.349 . S
C1975 C1973 1.327 . S
C1975 C1991 1.429 . S
C1975 H1997 0.950 . S
C1976 H1972 0.949 . S
C1976 C1984 1.574 . S
C1976 C1992 1.368 . S
H1977 C1985 0.950 . S
H1978 C1983 0.950 . S
H1979 C1984 0.949 . S
H1980 C1986 0.950 . S
H1981 C1987 0.950 . S
H1982 C1988 0.949 . S
C1983 H1978 0.950 . S
C1983 C1985 1.327 . S
C1983 C1989 1.429 . S
C1984 C1976 1.574 . S
C1984 H1979 0.949 . S
C1984 C1990 1.368 . S
C1985 C1969 1.349 . S
C1985 H1977 0.950 . S
C1985 C1983 1.327 . S
C1986 C1974 1.349 . S
C1986 H1980 0.950 . S
C1986 C1987 1.327 . S
C1987 H1981 0.950 . S
C1987 C1986 1.327 . S
C1987 C1991 1.429 . S
C1988 C1971 1.574 . S
C1988 H1982 0.949 . S
C1988 C1992 1.368 . S
C1989 C1970 1.429 . S
C1989 C1983 1.429 . S
C1989 C1990 1.523 . S
C1990 C1971 1.368 . S
C1990 C1984 1.368 . S
C1990 C1989 1.523 . S
C1991 C1975 1.429 . S
C1991 C1987 1.429 . S
C1991 C1992 1.523 . S
C1992 C1976 1.368 . S
C1992 C1988 1.368 . S
C1992 C1991 1.523 . S
H1993 C1968 0.950 . S
H1994 C1970 0.950 . S
H1995 C1971 0.949 . S
H1996 C1973 0.950 . S
H1997 C1975 0.950 . S
C1998 C1999 1.349 . S
C1998 C2000 1.327 . S
C1998 H2023 0.950 . S
C1999 C1998 1.349 . S
C1999 C2015 1.349 . S
C2000 C1998 1.327 . S
C2000 C2019 1.429 . S
C2000 H2024 0.950 . S
C2001 C2018 1.574 . S
C2001 C2020 1.368 . S
C2001 H2025 0.949 . S
H2002 C2006 0.949 . S
C2003 C2004 1.349 . S
C2003 C2005 1.327 . S
C2003 H2026 0.950 . S
C2004 C2003 1.349 . S
C2004 C2016 1.349 . S
C2005 C2003 1.327 . S
C2005 C2021 1.429 . S
C2005 H2027 0.950 . S
C2006 H2002 0.949 . S
C2006 C2014 1.574 . S
C2006 C2022 1.368 . S
H2007 C2015 0.950 . S
H2008 C2013 0.950 . S
H2009 C2014 0.949 . S
H2010 C2016 0.950 . S
H2011 C2017 0.950 . S
H2012 C2018 0.949 . S
C2013 H2008 0.950 . S
C2013 C2015 1.327 . S
C2013 C2019 1.429 . S
C2014 C2006 1.574 . S
C2014 H2009 0.949 . S
C2014 C2020 1.368 . S
C2015 C1999 1.349 . S
C2015 H2007 0.950 . S
C2015 C2013 1.327 . S
C2016 C2004 1.349 . S
C2016 H2010 0.950 . S
C2016 C2017 1.327 . S
C2017 H2011 0.950 . S
C2017 C2016 1.327 . S
C2017 C2021 1.429 . S
C2018 C2001 1.574 . S
C2018 H2012 0.949 . S
C2018 C2022 1.368 . S
C2019 C2000 1.429 . S
C2019 C2013 1.429 . S
C2019 C2020 1.523 . S
C2020 C2001 1.368 . S
C2020 C2014 1.368 . S
C2020 C2019 1.523 . S
C2021 C2005 1.429 . S
C2021 C2017 1.429 . S
C2021 C2022 1.523 . S
C2022 C2006 1.368 . S
C2022 C2018 1.368 . S
C2022 C2021 1.523 . S
H2023 C1998 0.950 . S
H2024 C2000 0.950 . S
H2025 C2001 0.949 . S
H2026 C2003 0.950 . S
H2027 C2005 0.950 . S
C2028 C2029 1.349 . S
C2028 C2030 1.327 . S
C2028 H2053 0.950 . S
C2029 C2028 1.349 . S
C2029 C2045 1.349 . S
C2030 C2028 1.327 . S
C2030 C2049 1.429 . S
C2030 H2054 0.950 . S
C2031 C2048 1.574 . S
C2031 C2050 1.368 . S
C2031 H2055 0.949 . S
H2032 C2036 0.949 . S
C2033 C2034 1.349 . S
C2033 C2035 1.327 . S
C2033 H2056 0.950 . S
C2034 C2033 1.349 . S
C2034 C2046 1.349 . S
C2035 C2033 1.327 . S
C2035 C2051 1.430 . S
C2035 H2057 0.950 1_556 S
C2036 H2032 0.949 . S
C2036 C2044 1.574 . S
C2036 C2052 1.368 . S
H2037 C2045 0.950 . S
H2038 C2043 0.950 . S
H2039 C2044 0.949 . S
H2040 C2046 0.950 . S
H2041 C2047 0.950 . S
H2042 C2048 0.949 . S
C2043 H2038 0.950 . S
C2043 C2045 1.327 . S
C2043 C2049 1.429 . S
C2044 C2036 1.574 . S
C2044 H2039 0.949 . S
C2044 C2050 1.368 . S
C2045 C2029 1.349 . S
C2045 H2037 0.950 . S
C2045 C2043 1.327 . S
C2046 C2034 1.349 . S
C2046 H2040 0.950 . S
C2046 C2047 1.327 . S
C2047 H2041 0.950 . S
C2047 C2046 1.327 . S
C2047 C2051 1.460 . S
C2048 C2031 1.574 . S
C2048 H2042 0.949 . S
C2048 C2052 1.368 . S
C2049 C2030 1.429 . S
C2049 C2043 1.429 . S
C2049 C2050 1.523 . S
C2050 C2031 1.368 . S
C2050 C2044 1.368 . S
C2050 C2049 1.523 . S
C2051 C2035 1.430 . S
C2051 C2047 1.460 . S
C2051 C2052 1.494 1_556 S
C2052 C2036 1.368 . S
C2052 C2048 1.368 . S
C2052 C2051 1.494 1_554 S
H2053 C2028 0.950 . S
H2054 C2030 0.950 . S
H2055 C2031 0.949 . S
H2056 C2033 0.950 . S
H2057 C2035 0.950 1_554 S
C2058 C2059 1.349 . S
C2058 C2060 1.327 . S
C2058 H2083 0.950 . S
C2059 C2058 1.349 . S
C2059 C2075 1.349 . S
C2060 C2058 1.327 . S
C2060 C2079 1.429 . S
C2060 H2084 0.950 . S
C2061 C2078 1.574 . S
C2061 C2080 1.368 . S
C2061 H2085 0.949 . S
H2062 C2066 0.949 . S
C2063 C2064 1.349 . S
C2063 C2065 1.327 . S
C2063 H2086 0.950 . S
C2064 C2063 1.349 . S
C2064 C2076 1.349 . S
C2065 C2063 1.327 . S
C2065 C2081 1.429 . S
C2065 H2087 0.950 . S
C2066 H2062 0.949 . S
C2066 C2074 1.574 . S
C2066 C2082 1.368 . S
H2067 C2075 0.950 . S
H2068 C2073 0.950 . S
H2069 C2074 0.949 . S
H2070 C2076 0.950 . S
H2071 C2077 0.950 . S
H2072 C2078 0.949 . S
C2073 H2068 0.950 . S
C2073 C2075 1.327 . S
C2073 C2079 1.429 . S
C2074 C2066 1.574 . S
C2074 H2069 0.949 . S
C2074 C2080 1.368 . S
C2075 C2059 1.349 . S
C2075 H2067 0.950 . S
C2075 C2073 1.327 . S
C2076 C2064 1.349 . S
C2076 H2070 0.950 . S
C2076 C2077 1.327 . S
C2077 H2071 0.950 . S
C2077 C2076 1.327 . S
C2077 C2081 1.429 . S
C2078 C2061 1.574 . S
C2078 H2072 0.949 . S
C2078 C2082 1.368 . S
C2079 C2060 1.429 . S
C2079 C2073 1.429 . S
C2079 C2080 1.523 . S
C2080 C2061 1.368 . S
C2080 C2074 1.368 . S
C2080 C2079 1.523 . S
C2081 C2065 1.429 . S
C2081 C2077 1.429 . S
C2081 C2082 1.523 . S
C2082 C2066 1.368 . S
C2082 C2078 1.368 . S
C2082 C2081 1.523 . S
H2083 C2058 0.950 . S
H2084 C2060 0.950 . S
H2085 C2061 0.949 . S
H2086 C2063 0.950 . S
H2087 C2065 0.950 . S
C2088 C2089 1.349 . S
C2088 C2090 1.327 . S
C2088 H2113 0.950 . S
C2089 C2088 1.349 . S
C2089 C2105 1.349 . S
C2090 C2088 1.327 . S
C2090 C2109 1.429 . S
C2090 H2114 0.950 . S
C2091 C2108 1.574 . S
C2091 C2110 1.368 . S
C2091 H2115 0.949 . S
H2092 C2096 0.949 . S
C2093 C2094 1.349 . S
C2093 C2095 1.327 . S
C2093 H2116 0.950 . S
C2094 C2093 1.349 . S
C2094 C2106 1.349 . S
C2095 C2093 1.327 . S
C2095 C2111 1.429 . S
C2095 H2117 0.950 . S
C2096 H2092 0.949 . S
C2096 C2104 1.574 . S
C2096 C2112 1.368 . S
H2097 C2105 0.950 . S
H2098 C2103 0.950 . S
H2099 C2104 0.949 . S
H2100 C2106 0.950 . S
H2101 C2107 0.950 . S
H2102 C2108 0.949 . S
C2103 H2098 0.950 . S
C2103 C2105 1.327 . S
C2103 C2109 1.429 . S
C2104 C2096 1.574 . S
C2104 H2099 0.949 . S
C2104 C2110 1.368 . S
C2105 C2089 1.349 . S
C2105 H2097 0.950 . S
C2105 C2103 1.327 . S
C2106 C2094 1.349 . S
C2106 H2100 0.950 . S
C2106 C2107 1.327 . S
C2107 H2101 0.950 . S
C2107 C2106 1.327 . S
C2107 C2111 1.429 . S
C2108 C2091 1.574 . S
C2108 H2102 0.949 . S
C2108 C2112 1.368 . S
C2109 C2090 1.429 . S
C2109 C2103 1.429 . S
C2109 C2110 1.523 . S
C2110 C2091 1.368 . S
C2110 C2104 1.368 . S
C2110 C2109 1.523 . S
C2111 C2095 1.429 . S
C2111 C2107 1.429 . S
C2111 C2112 1.523 . S
C2112 C2096 1.368 . S
C2112 C2108 1.368 . S
C2112 C2111 1.523 . S
H2113 C2088 0.950 . S
H2114 C2090 0.950 . S
H2115 C2091 0.949 . S
H2116 C2093 0.950 . S
H2117 C2095 0.950 . S
C2118 C2119 1.349 . S
C2118 C2120 1.327 . S
C2118 H2143 0.950 . S
C2119 C2118 1.349 . S
C2119 C2135 1.349 . S
C2120 C2118 1.327 . S
C2120 C2139 1.450 . S
C2120 H2144 0.950 . S
C2121 C2138 1.574 . S
C2121 C2140 1.368 . S
C2121 H2145 0.949 . S
H2122 C2126 0.949 . S
C2123 C2124 1.349 . S
C2123 C2125 1.327 . S
C2123 H2146 0.950 . S
C2124 C2123 1.349 . S
C2124 C2136 1.349 . S
C2125 C2123 1.327 . S
C2125 C2141 1.429 . S
C2125 H2147 0.950 . S
C2126 H2122 0.949 . S
C2126 C2134 1.574 . S
C2126 C2142 1.368 . S
H2127 C2135 0.950 . S
H2128 C2133 0.950 1_655 S
H2129 C2134 0.949 . S
H2130 C2136 0.950 . S
H2131 C2137 0.950 . S
H2132 C2138 0.949 . S
C2133 H2128 0.950 1_455 S
C2133 C2135 1.327 . S
C2133 C2139 1.439 . S
C2134 C2126 1.574 . S
C2134 H2129 0.949 . S
C2134 C2140 1.368 . S
C2135 C2119 1.349 . S
C2135 H2127 0.950 . S
C2135 C2133 1.327 . S
C2136 C2124 1.349 . S
C2136 H2130 0.950 . S
C2136 C2137 1.327 . S
C2137 H2131 0.950 . S
C2137 C2136 1.327 . S
C2137 C2141 1.429 . S
C2138 C2121 1.574 . S
C2138 H2132 0.949 . S
C2138 C2142 1.368 . S
C2139 C2120 1.450 . S
C2139 C2133 1.439 . S
C2139 C2140 1.494 1_455 S
C2140 C2121 1.368 . S
C2140 C2134 1.368 . S
C2140 C2139 1.494 1_655 S
C2141 C2125 1.429 . S
C2141 C2137 1.429 . S
C2141 C2142 1.523 . S
C2142 C2126 1.368 . S
C2142 C2138 1.368 . S
C2142 C2141 1.523 . S
H2143 C2118 0.950 . S
H2144 C2120 0.950 . S
H2145 C2121 0.949 . S
H2146 C2123 0.950 . S
H2147 C2125 0.950 . S
C2148 C2149 1.349 . S
C2148 C2150 1.327 . S
C2148 H2173 0.950 . S
C2149 C2148 1.349 . S
C2149 C2165 1.349 . S
C2150 C2148 1.327 . S
C2150 C2169 1.429 1_655 S
C2150 H2174 0.950 . S
C2151 C2168 1.574 . S
C2151 C2170 1.368 . S
C2151 H2175 0.949 . S
H2152 C2156 0.949 . S
C2153 C2154 1.349 . S
C2153 C2155 1.327 . S
C2153 H2176 0.950 . S
C2154 C2153 1.349 . S
C2154 C2166 1.349 . S
C2155 C2153 1.327 . S
C2155 C2171 1.429 . S
C2155 H2177 0.950 . S
C2156 H2152 0.949 . S
C2156 C2164 1.574 . S
C2156 C2172 1.368 . S
H2157 C2165 0.950 1_455 S
H2158 C2163 0.950 . S
H2159 C2164 0.949 1_655 S
H2160 C2166 0.950 . S
H2161 C2167 0.950 . S
H2162 C2168 0.949 . S
C2163 H2158 0.950 . S
C2163 C2165 1.327 1_455 S
C2163 C2169 1.429 . S
C2164 C2156 1.574 . S
C2164 H2159 0.949 1_455 S
C2164 C2170 1.368 . S
C2165 C2149 1.349 . S
C2165 H2157 0.950 1_655 S
C2165 C2163 1.327 1_655 S
C2166 C2154 1.349 . S
C2166 H2160 0.950 . S
C2166 C2167 1.327 . S
C2167 H2161 0.950 . S
C2167 C2166 1.327 . S
C2167 C2171 1.429 . S
C2168 C2151 1.574 . S
C2168 H2162 0.949 . S
C2168 C2172 1.368 . S
C2169 C2150 1.429 1_455 S
C2169 C2163 1.429 . S
C2169 C2170 1.523 . S
C2170 C2151 1.368 . S
C2170 C2164 1.368 . S
C2170 C2169 1.523 . S
C2171 C2155 1.429 . S
C2171 C2167 1.429 . S
C2171 C2172 1.523 . S
C2172 C2156 1.368 . S
C2172 C2168 1.368 . S
C2172 C2171 1.523 . S
H2173 C2148 0.950 . S
H2174 C2150 0.950 . S
H2175 C2151 0.949 . S
H2176 C2153 0.950 . S
H2177 C2155 0.950 . S
C2178 C2179 1.349 . S
C2178 C2180 1.327 . S
C2178 H2203 0.950 . S
C2179 C2178 1.349 . S
C2179 C2195 1.349 . S
C2180 C2178 1.327 . S
C2180 C2199 1.429 . S
C2180 H2204 0.950 . S
C2181 C2198 1.574 . S
C2181 C2200 1.368 . S
C2181 H2205 0.949 . S
H2182 C2186 0.949 . S
C2183 C2184 1.349 . S
C2183 C2185 1.327 . S
C2183 H2206 0.950 . S
C2184 C2183 1.349 . S
C2184 C2196 1.349 . S
C2185 C2183 1.327 . S
C2185 C2201 1.429 . S
C2185 H2207 0.950 . S
C2186 H2182 0.949 . S
C2186 C2194 1.574 . S
C2186 C2202 1.368 . S
H2187 C2195 0.950 . S
H2188 C2193 0.950 . S
H2189 C2194 0.949 . S
H2190 C2196 0.950 . S
H2191 C2197 0.950 . S
H2192 C2198 0.949 . S
C2193 H2188 0.950 . S
C2193 C2195 1.327 . S
C2193 C2199 1.429 . S
C2194 C2186 1.574 . S
C2194 H2189 0.949 . S
C2194 C2200 1.368 . S
C2195 C2179 1.349 . S
C2195 H2187 0.950 . S
C2195 C2193 1.327 . S
C2196 C2184 1.349 . S
C2196 H2190 0.950 . S
C2196 C2197 1.327 . S
C2197 H2191 0.950 . S
C2197 C2196 1.327 . S
C2197 C2201 1.429 . S
C2198 C2181 1.574 . S
C2198 H2192 0.949 . S
C2198 C2202 1.368 . S
C2199 C2180 1.429 . S
C2199 C2193 1.429 . S
C2199 C2200 1.523 . S
C2200 C2181 1.368 . S
C2200 C2194 1.368 . S
C2200 C2199 1.523 . S
C2201 C2185 1.429 . S
C2201 C2197 1.429 . S
C2201 C2202 1.523 . S
C2202 C2186 1.368 . S
C2202 C2198 1.368 . S
C2202 C2201 1.523 . S
H2203 C2178 0.950 . S
H2204 C2180 0.950 . S
H2205 C2181 0.949 . S
H2206 C2183 0.950 . S
H2207 C2185 0.950 . S
C2208 C2209 1.349 . S
C2208 C2210 1.327 . S
C2208 H2233 0.950 . S
C2209 C2208 1.349 . S
C2209 C2225 1.349 . S
C2210 C2208 1.327 . S
C2210 C2229 1.429 . S
C2210 H2234 0.950 . S
C2211 C2228 1.574 . S
C2211 C2230 1.368 . S
C2211 H2235 0.949 . S
H2212 C2216 0.949 . S
C2213 C2214 1.349 . S
C2213 C2215 1.327 . S
C2213 H2236 0.950 . S
C2214 C2213 1.349 . S
C2214 C2226 1.349 . S
C2215 C2213 1.327 . S
C2215 C2231 1.429 . S
C2215 H2237 0.950 . S
C2216 H2212 0.949 . S
C2216 C2224 1.574 . S
C2216 C2232 1.368 . S
H2217 C2225 0.950 . S
H2218 C2223 0.950 . S
H2219 C2224 0.949 . S
H2220 C2226 0.950 . S
H2221 C2227 0.950 . S
H2222 C2228 0.949 . S
C2223 H2218 0.950 . S
C2223 C2225 1.327 . S
C2223 C2229 1.429 . S
C2224 C2216 1.574 . S
C2224 H2219 0.949 . S
C2224 C2230 1.368 . S
C2225 C2209 1.349 . S
C2225 H2217 0.950 . S
C2225 C2223 1.327 . S
C2226 C2214 1.349 . S
C2226 H2220 0.950 . S
C2226 C2227 1.327 . S
C2227 H2221 0.950 . S
C2227 C2226 1.327 . S
C2227 C2231 1.429 . S
C2228 C2211 1.574 . S
C2228 H2222 0.949 . S
C2228 C2232 1.368 . S
C2229 C2210 1.429 . S
C2229 C2223 1.429 . S
C2229 C2230 1.523 . S
C2230 C2211 1.368 . S
C2230 C2224 1.368 . S
C2230 C2229 1.523 . S
C2231 C2215 1.429 . S
C2231 C2227 1.429 . S
C2231 C2232 1.523 . S
C2232 C2216 1.368 . S
C2232 C2228 1.368 . S
C2232 C2231 1.523 . S
H2233 C2208 0.950 . S
H2234 C2210 0.950 . S
H2235 C2211 0.949 . S
H2236 C2213 0.950 . S
H2237 C2215 0.950 . S
C2238 C2239 1.349 . S
C2238 C2240 1.294 1_655 S
C2238 H2263 0.950 . S
C2239 C2238 1.349 . S
C2239 C2255 1.349 . S
C2240 C2238 1.294 1_455 S
C2240 C2259 1.426 1_455 S
C2240 H2264 0.987 . S
C2241 C2258 1.574 . S
C2241 C2260 1.368 . S
C2241 H2265 0.917 1_455 S
H2242 C2246 0.949 . S
C2243 C2244 1.349 . S
C2243 C2245 1.327 . S
C2243 H2266 0.950 . S
C2244 C2243 1.349 . S
C2244 C2256 1.349 . S
C2245 C2243 1.327 . S
C2245 C2261 1.429 . S
C2245 H2267 0.950 . S
C2246 H2242 0.949 . S
C2246 C2254 1.574 . S
C2246 C2262 1.368 . S
H2247 C2255 0.950 . S
H2248 C2253 0.950 . S
H2249 C2254 0.949 . S
H2250 C2256 0.950 . S
H2251 C2257 0.950 . S
H2252 C2258 0.949 . S
C2253 H2248 0.950 . S
C2253 C2255 1.327 . S
C2253 C2259 1.463 . S
C2254 C2246 1.574 . S
C2254 H2249 0.949 . S
C2254 C2260 1.368 . S
C2255 C2239 1.349 . S
C2255 H2247 0.950 . S
C2255 C2253 1.327 . S
C2256 C2244 1.349 . S
C2256 H2250 0.950 . S
C2256 C2257 1.327 . S
C2257 H2251 0.950 . S
C2257 C2256 1.327 . S
C2257 C2261 1.429 . S
C2258 C2241 1.574 . S
C2258 H2252 0.949 . S
C2258 C2262 1.368 . S
C2259 C2240 1.426 1_655 S
C2259 C2253 1.463 . S
C2259 C2260 1.494 1_655 S
C2260 C2241 1.368 . S
C2260 C2254 1.368 . S
C2260 C2259 1.494 1_455 S
C2261 C2245 1.429 . S
C2261 C2257 1.429 . S
C2261 C2262 1.523 . S
C2262 C2246 1.368 . S
C2262 C2258 1.368 . S
C2262 C2261 1.523 . S
H2263 C2238 0.950 . S
H2264 C2240 0.987 . S
H2265 C2241 0.917 1_655 S
H2266 C2243 0.950 . S
H2267 C2245 0.950 . S
C2268 C2269 1.349 . S
C2268 C2270 1.327 . S
C2268 H2293 0.950 . S
C2269 C2268 1.349 . S
C2269 C2285 1.349 . S
C2270 C2268 1.327 . S
C2270 C2289 1.429 . S
C2270 H2294 0.950 . S
C2271 C2288 1.574 . S
C2271 C2290 1.368 . S
C2271 H2295 0.949 . S
H2272 C2276 0.949 . S
C2273 C2274 1.349 . S
C2273 C2275 1.327 . S
C2273 H2296 0.950 . S
C2274 C2273 1.349 . S
C2274 C2286 1.349 . S
C2275 C2273 1.327 . S
C2275 C2291 1.429 . S
C2275 H2297 0.950 . S
C2276 H2272 0.949 . S
C2276 C2284 1.574 . S
C2276 C2292 1.368 . S
H2277 C2285 0.950 . S
H2278 C2283 0.950 . S
H2279 C2284 0.949 . S
H2280 C2286 0.950 . S
H2281 C2287 0.950 . S
H2282 C2288 0.949 . S
C2283 H2278 0.950 . S
C2283 C2285 1.327 . S
C2283 C2289 1.429 . S
C2284 C2276 1.574 . S
C2284 H2279 0.949 . S
C2284 C2290 1.368 . S
C2285 C2269 1.349 . S
C2285 H2277 0.950 . S
C2285 C2283 1.327 . S
C2286 C2274 1.349 . S
C2286 H2280 0.950 . S
C2286 C2287 1.327 . S
C2287 H2281 0.950 . S
C2287 C2286 1.327 . S
C2287 C2291 1.429 . S
C2288 C2271 1.574 . S
C2288 H2282 0.949 . S
C2288 C2292 1.368 . S
C2289 C2270 1.429 . S
C2289 C2283 1.429 . S
C2289 C2290 1.523 . S
C2290 C2271 1.368 . S
C2290 C2284 1.368 . S
C2290 C2289 1.523 . S
C2291 C2275 1.429 . S
C2291 C2287 1.429 . S
C2291 C2292 1.523 . S
C2292 C2276 1.368 . S
C2292 C2288 1.368 . S
C2292 C2291 1.523 . S
H2293 C2268 0.950 . S
H2294 C2270 0.950 . S
H2295 C2271 0.949 . S
H2296 C2273 0.950 . S
H2297 C2275 0.950 . S
C2298 C2299 1.349 . S
C2298 C2300 1.327 . S
C2298 H2323 0.950 . S
C2299 C2298 1.349 . S
C2299 C2315 1.349 . S
C2300 C2298 1.327 . S
C2300 C2319 1.429 . S
C2300 H2324 0.950 . S
C2301 C2318 1.574 . S
C2301 C2320 1.368 . S
C2301 H2325 0.949 . S
H2302 C2306 0.949 1_455 S
C2303 C2304 1.349 . S
C2303 C2305 1.327 1_455 S
C2303 H2326 0.959 . S
C2304 C2303 1.349 . S
C2304 C2316 1.349 . S
C2305 C2303 1.327 1_655 S
C2305 C2321 1.429 . S
C2305 H2327 0.950 . S
C2306 H2302 0.949 1_655 S
C2306 C2314 1.574 . S
C2306 C2322 1.368 . S
H2307 C2315 0.950 . S
H2308 C2313 0.950 . S
H2309 C2314 0.949 . S
H2310 C2316 0.950 . S
H2311 C2317 0.950 . S
H2312 C2318 0.949 . S
C2313 H2308 0.950 . S
C2313 C2315 1.327 . S
C2313 C2319 1.429 . S
C2314 C2306 1.574 . S
C2314 H2309 0.949 . S
C2314 C2320 1.368 . S
C2315 C2299 1.349 . S
C2315 H2307 0.950 . S
C2315 C2313 1.327 . S
C2316 C2304 1.349 . S
C2316 H2310 0.950 . S
C2316 C2317 1.327 . S
C2317 H2311 0.950 . S
C2317 C2316 1.327 . S
C2317 C2321 1.429 1_455 S
C2318 C2301 1.574 . S
C2318 H2312 0.949 . S
C2318 C2322 1.368 . S
C2319 C2300 1.429 . S
C2319 C2313 1.429 . S
C2319 C2320 1.523 . S
C2320 C2301 1.368 . S
C2320 C2314 1.368 . S
C2320 C2319 1.523 . S
C2321 C2305 1.429 . S
C2321 C2317 1.429 1_655 S
C2321 C2322 1.523 . S
C2322 C2306 1.368 . S
C2322 C2318 1.368 . S
C2322 C2321 1.523 . S
H2323 C2298 0.950 . S
H2324 C2300 0.950 . S
H2325 C2301 0.949 . S
H2326 C2303 0.959 . S
H2327 C2305 0.950 . S
C2328 C2329 1.349 . S
C2328 C2330 1.327 . S
C2328 H2353 0.950 . S
C2329 C2328 1.349 . S
C2329 C2345 1.349 . S
C2330 C2328 1.327 . S
C2330 C2349 1.429 . S
C2330 H2354 0.950 . S
C2331 C2348 1.574 . S
C2331 C2350 1.368 . S
C2331 H2355 0.949 . S
H2332 C2336 0.949 . S
C2333 C2334 1.349 . S
C2333 C2335 1.327 . S
C2333 H2356 0.950 . S
C2334 C2333 1.349 . S
C2334 C2346 1.349 . S
C2335 C2333 1.327 . S
C2335 C2351 1.429 . S
C2335 H2357 0.950 . S
C2336 H2332 0.949 . S
C2336 C2344 1.574 . S
C2336 C2352 1.368 . S
H2337 C2345 0.950 . S
H2338 C2343 0.950 . S
H2339 C2344 0.949 . S
H2340 C2346 0.950 . S
H2341 C2347 0.950 . S
H2342 C2348 0.949 . S
C2343 H2338 0.950 . S
C2343 C2345 1.327 . S
C2343 C2349 1.429 . S
C2344 C2336 1.574 . S
C2344 H2339 0.949 . S
C2344 C2350 1.368 . S
C2345 C2329 1.349 . S
C2345 H2337 0.950 . S
C2345 C2343 1.327 . S
C2346 C2334 1.349 . S
C2346 H2340 0.950 . S
C2346 C2347 1.327 . S
C2347 H2341 0.950 . S
C2347 C2346 1.327 . S
C2347 C2351 1.429 . S
C2348 C2331 1.574 . S
C2348 H2342 0.949 . S
C2348 C2352 1.368 . S
C2349 C2330 1.429 . S
C2349 C2343 1.429 . S
C2349 C2350 1.523 . S
C2350 C2331 1.368 . S
C2350 C2344 1.368 . S
C2350 C2349 1.523 . S
C2351 C2335 1.429 . S
C2351 C2347 1.429 . S
C2351 C2352 1.523 . S
C2352 C2336 1.368 . S
C2352 C2348 1.368 . S
C2352 C2351 1.523 . S
H2353 C2328 0.950 . S
H2354 C2330 0.950 . S
H2355 C2331 0.949 . S
H2356 C2333 0.950 . S
H2357 C2335 0.950 . S
C2358 C2359 1.349 . S
C2358 C2360 1.327 . S
C2358 H2383 0.950 . S
C2359 C2358 1.349 . S
C2359 C2375 1.349 . S
C2360 C2358 1.327 . S
C2360 C2379 1.429 . S
C2360 H2384 0.950 . S
C2361 C2378 1.574 . S
C2361 C2380 1.368 . S
C2361 H2385 0.949 . S
H2362 C2366 0.949 . S
C2363 C2364 1.349 . S
C2363 C2365 1.327 . S
C2363 H2386 0.950 . S
C2364 C2363 1.349 . S
C2364 C2376 1.349 . S
C2365 C2363 1.327 . S
C2365 C2381 1.429 . S
C2365 H2387 0.950 . S
C2366 H2362 0.949 . S
C2366 C2374 1.573 1_655 S
C2366 C2382 1.368 . S
H2367 C2375 0.950 . S
H2368 C2373 0.950 . S
H2369 C2374 0.949 1_655 S
H2370 C2376 0.950 . S
H2371 C2377 0.950 . S
H2372 C2378 0.949 . S
C2373 H2368 0.950 . S
C2373 C2375 1.327 . S
C2373 C2379 1.429 . S
C2374 C2366 1.573 1_455 S
C2374 H2369 0.949 1_455 S
C2374 C2380 1.369 . S
C2375 C2359 1.349 . S
C2375 H2367 0.950 . S
C2375 C2373 1.327 . S
C2376 C2364 1.349 . S
C2376 H2370 0.950 . S
C2376 C2377 1.327 . S
C2377 H2371 0.950 . S
C2377 C2376 1.327 . S
C2377 C2381 1.429 . S
C2378 C2361 1.574 . S
C2378 H2372 0.949 . S
C2378 C2382 1.368 1_455 S
C2379 C2360 1.429 . S
C2379 C2373 1.429 . S
C2379 C2380 1.523 . S
C2380 C2361 1.368 . S
C2380 C2374 1.369 . S
C2380 C2379 1.523 . S
C2381 C2365 1.429 . S
C2381 C2377 1.429 . S
C2381 C2382 1.523 . S
C2382 C2366 1.368 . S
C2382 C2378 1.368 1_655 S
C2382 C2381 1.523 . S
H2383 C2358 0.950 . S
H2384 C2360 0.950 . S
H2385 C2361 0.949 . S
H2386 C2363 0.950 . S
H2387 C2365 0.950 . S
C2388 C2389 1.349 . S
C2388 C2390 1.327 . S
C2388 H2413 0.950 . S
C2389 C2388 1.349 . S
C2389 C2405 1.349 . S
C2390 C2388 1.327 . S
C2390 C2409 1.429 . S
C2390 H2414 0.950 . S
C2391 C2408 1.590 . S
C2391 C2410 1.345 1_554 S
C2391 H2415 0.956 . S
H2392 C2396 0.949 . S
C2393 C2394 1.349 . S
C2393 C2395 1.327 . S
C2393 H2416 0.950 . S
C2394 C2393 1.349 . S
C2394 C2406 1.349 . S
C2395 C2393 1.327 . S
C2395 C2411 1.429 . S
C2395 H2417 0.950 . S
C2396 H2392 0.949 . S
C2396 C2404 1.574 . S
C2396 C2412 1.368 1_556 S
H2397 C2405 0.950 . S
H2398 C2403 0.950 . S
H2399 C2404 0.949 . S
H2400 C2406 0.950 . S
H2401 C2407 0.950 . S
H2402 C2408 0.949 . S
C2403 H2398 0.950 . S
C2403 C2405 1.327 . S
C2403 C2409 1.429 . S
C2404 C2396 1.574 . S
C2404 H2399 0.949 . S
C2404 C2410 1.368 . S
C2405 C2389 1.349 . S
C2405 H2397 0.950 . S
C2405 C2403 1.327 . S
C2406 C2394 1.349 . S
C2406 H2400 0.950 . S
C2406 C2407 1.327 . S
C2407 H2401 0.950 . S
C2407 C2406 1.327 . S
C2407 C2411 1.429 . S
C2408 C2391 1.590 . S
C2408 H2402 0.949 . S
C2408 C2412 1.368 . S
C2409 C2390 1.429 . S
C2409 C2403 1.429 . S
C2409 C2410 1.523 . S
C2410 C2391 1.345 1_556 S
C2410 C2404 1.368 . S
C2410 C2409 1.523 . S
C2411 C2395 1.429 . S
C2411 C2407 1.429 . S
C2411 C2412 1.523 . S
C2412 C2396 1.368 1_554 S
C2412 C2408 1.368 . S
C2412 C2411 1.523 . S
H2413 C2388 0.950 . S
H2414 C2390 0.950 . S
H2415 C2391 0.956 . S
H2416 C2393 0.950 . S
H2417 C2395 0.950 . S
C2418 C2419 1.349 . S
C2418 C2420 1.327 . S
C2418 H2443 0.950 . S
C2419 C2418 1.349 . S
C2419 C2435 1.349 . S
C2420 C2418 1.327 . S
C2420 C2439 1.429 . S
C2420 H2444 0.950 . S
C2421 C2438 1.574 . S
C2421 C2440 1.368 . S
C2421 H2445 0.949 . S
H2422 C2426 0.949 . S
C2423 C2424 1.349 . S
C2423 C2425 1.327 . S
C2423 H2446 0.950 . S
C2424 C2423 1.349 . S
C2424 C2436 1.349 . S
C2425 C2423 1.327 . S
C2425 C2441 1.429 . S
C2425 H2447 0.950 . S
C2426 H2422 0.949 . S
C2426 C2434 1.574 . S
C2426 C2442 1.368 . S
H2427 C2435 0.950 . S
H2428 C2433 0.950 . S
H2429 C2434 0.949 . S
H2430 C2436 0.950 . S
H2431 C2437 0.950 . S
H2432 C2438 0.949 . S
C2433 H2428 0.950 . S
C2433 C2435 1.327 . S
C2433 C2439 1.429 . S
C2434 C2426 1.574 . S
C2434 H2429 0.949 . S
C2434 C2440 1.368 . S
C2435 C2419 1.349 . S
C2435 H2427 0.950 . S
C2435 C2433 1.327 . S
C2436 C2424 1.349 . S
C2436 H2430 0.950 . S
C2436 C2437 1.327 . S
C2437 H2431 0.950 . S
C2437 C2436 1.327 . S
C2437 C2441 1.429 . S
C2438 C2421 1.574 . S
C2438 H2432 0.949 . S
C2438 C2442 1.368 . S
C2439 C2420 1.429 . S
C2439 C2433 1.429 . S
C2439 C2440 1.523 . S
C2440 C2421 1.368 . S
C2440 C2434 1.368 . S
C2440 C2439 1.523 . S
C2441 C2425 1.429 . S
C2441 C2437 1.429 . S
C2441 C2442 1.523 . S
C2442 C2426 1.368 . S
C2442 C2438 1.368 . S
C2442 C2441 1.523 . S
H2443 C2418 0.950 . S
H2444 C2420 0.950 . S
H2445 C2421 0.949 . S
H2446 C2423 0.950 . S
H2447 C2425 0.950 . S
C2448 C2449 1.349 . S
C2448 C2450 1.327 . S
C2448 H2473 0.950 . S
C2449 C2448 1.349 . S
C2449 C2465 1.349 . S
C2450 C2448 1.327 . S
C2450 C2469 1.429 . S
C2450 H2474 0.950 . S
C2451 C2468 1.574 . S
C2451 C2470 1.368 . S
C2451 H2475 0.949 . S
H2452 C2456 0.949 . S
C2453 C2454 1.349 . S
C2453 C2455 1.327 . S
C2453 H2476 0.950 . S
C2454 C2453 1.349 . S
C2454 C2466 1.349 . S
C2455 C2453 1.327 . S
C2455 C2471 1.429 . S
C2455 H2477 0.950 . S
C2456 H2452 0.949 . S
C2456 C2464 1.574 . S
C2456 C2472 1.368 . S
H2457 C2465 0.950 . S
H2458 C2463 0.950 . S
H2459 C2464 0.949 . S
H2460 C2466 0.950 . S
H2461 C2467 0.950 . S
H2462 C2468 0.949 . S
C2463 H2458 0.950 . S
C2463 C2465 1.327 . S
C2463 C2469 1.429 . S
C2464 C2456 1.574 . S
C2464 H2459 0.949 . S
C2464 C2470 1.368 . S
C2465 C2449 1.349 . S
C2465 H2457 0.950 . S
C2465 C2463 1.327 . S
C2466 C2454 1.349 . S
C2466 H2460 0.950 . S
C2466 C2467 1.327 . S
C2467 H2461 0.950 . S
C2467 C2466 1.327 . S
C2467 C2471 1.429 . S
C2468 C2451 1.574 . S
C2468 H2462 0.949 . S
C2468 C2472 1.368 . S
C2469 C2450 1.429 . S
C2469 C2463 1.429 . S
C2469 C2470 1.523 . S
C2470 C2451 1.368 . S
C2470 C2464 1.368 . S
C2470 C2469 1.523 . S
C2471 C2455 1.429 . S
C2471 C2467 1.429 . S
C2471 C2472 1.523 . S
C2472 C2456 1.368 . S
C2472 C2468 1.368 . S
C2472 C2471 1.523 . S
H2473 C2448 0.950 . S
H2474 C2450 0.950 . S
H2475 C2451 0.949 . S
H2476 C2453 0.950 . S
H2477 C2455 0.950 . S
C2478 C2479 1.349 . S
C2478 C2480 1.327 . S
C2478 H2503 0.950 . S
C2479 C2478 1.349 . S
C2479 C2495 1.349 . S
C2480 C2478 1.327 . S
C2480 C2499 1.429 . S
C2480 H2504 0.950 . S
C2481 C2498 1.574 1_655 S
C2481 C2500 1.368 . S
C2481 H2505 0.949 . S
H2482 C2486 0.949 . S
C2483 C2484 1.349 . S
C2483 C2485 1.327 . S
C2483 H2506 0.950 . S
C2484 C2483 1.349 . S
C2484 C2496 1.349 . S
C2485 C2483 1.327 . S
C2485 C2501 1.429 . S
C2485 H2507 0.950 . S
C2486 H2482 0.949 . S
C2486 C2494 1.574 1_455 S
C2486 C2502 1.368 . S
H2487 C2495 0.950 . S
H2488 C2493 0.950 . S
H2489 C2494 0.949 . S
H2490 C2496 0.950 . S
H2491 C2497 0.950 . S
H2492 C2498 0.949 . S
C2493 H2488 0.950 . S
C2493 C2495 1.327 . S
C2493 C2499 1.429 . S
C2494 C2486 1.574 1_655 S
C2494 H2489 0.949 . S
C2494 C2500 1.368 . S
C2495 C2479 1.349 . S
C2495 H2487 0.950 . S
C2495 C2493 1.327 . S
C2496 C2484 1.349 . S
C2496 H2490 0.950 . S
C2496 C2497 1.327 . S
C2497 H2491 0.950 . S
C2497 C2496 1.327 . S
C2497 C2501 1.429 . S
C2498 C2481 1.574 1_455 S
C2498 H2492 0.949 . S
C2498 C2502 1.368 . S
C2499 C2480 1.429 . S
C2499 C2493 1.429 . S
C2499 C2500 1.523 . S
C2500 C2481 1.368 . S
C2500 C2494 1.368 . S
C2500 C2499 1.523 . S
C2501 C2485 1.429 . S
C2501 C2497 1.429 . S
C2501 C2502 1.523 . S
C2502 C2486 1.368 . S
C2502 C2498 1.368 . S
C2502 C2501 1.523 . S
H2503 C2478 0.950 . S
H2504 C2480 0.950 . S
H2505 C2481 0.949 . S
H2506 C2483 0.950 . S
H2507 C2485 0.950 . S
C2508 C2509 1.349 . S
C2508 C2510 1.327 . S
C2508 H2533 0.950 . S
C2509 C2508 1.349 . S
C2509 C2525 1.349 . S
C2510 C2508 1.327 . S
C2510 C2529 1.429 . S
C2510 H2534 0.950 . S
C2511 C2528 1.574 1_554 S
C2511 C2530 1.368 . S
C2511 H2535 0.949 . S
H2512 C2516 0.949 . S
C2513 C2514 1.349 . S
C2513 C2515 1.327 . S
C2513 H2536 0.950 . S
C2514 C2513 1.349 . S
C2514 C2526 1.349 . S
C2515 C2513 1.327 . S
C2515 C2531 1.429 . S
C2515 H2537 0.950 . S
C2516 H2512 0.949 . S
C2516 C2524 1.574 . S
C2516 C2532 1.368 1_554 S
H2517 C2525 0.950 . S
H2518 C2523 0.950 . S
H2519 C2524 0.949 . S
H2520 C2526 0.950 . S
H2521 C2527 0.950 . S
H2522 C2528 0.949 . S
C2523 H2518 0.950 . S
C2523 C2525 1.327 . S
C2523 C2529 1.429 . S
C2524 C2516 1.574 . S
C2524 H2519 0.949 . S
C2524 C2530 1.368 . S
C2525 C2509 1.349 . S
C2525 H2517 0.950 . S
C2525 C2523 1.327 . S
C2526 C2514 1.349 . S
C2526 H2520 0.950 . S
C2526 C2527 1.327 . S
C2527 H2521 0.950 . S
C2527 C2526 1.327 . S
C2527 C2531 1.429 . S
C2528 C2511 1.574 1_556 S
C2528 H2522 0.949 . S
C2528 C2532 1.368 . S
C2529 C2510 1.429 . S
C2529 C2523 1.429 . S
C2529 C2530 1.523 . S
C2530 C2511 1.368 . S
C2530 C2524 1.368 . S
C2530 C2529 1.523 . S
C2531 C2515 1.429 . S
C2531 C2527 1.429 . S
C2531 C2532 1.523 . S
C2532 C2516 1.368 1_556 S
C2532 C2528 1.368 . S
C2532 C2531 1.523 . S
H2533 C2508 0.950 . S
H2534 C2510 0.950 . S
H2535 C2511 0.949 . S
H2536 C2513 0.950 . S
H2537 C2515 0.950 . S
C2538 C2539 1.349 . S
C2538 C2540 1.327 . S
C2538 H2563 0.950 . S
C2539 C2538 1.349 . S
C2539 C2555 1.349 . S
C2540 C2538 1.327 . S
C2540 C2559 1.429 . S
C2540 H2564 0.950 . S
C2541 C2558 1.574 . S
C2541 C2560 1.368 . S
C2541 H2565 0.949 . S
H2542 C2546 0.949 . S
C2543 C2544 1.349 . S
C2543 C2545 1.327 . S
C2543 H2566 0.950 . S
C2544 C2543 1.349 . S
C2544 C2556 1.349 . S
C2545 C2543 1.327 . S
C2545 C2561 1.429 . S
C2545 H2567 0.950 . S
C2546 H2542 0.949 . S
C2546 C2554 1.574 . S
C2546 C2562 1.368 . S
H2547 C2555 0.950 . S
H2548 C2553 0.950 . S
H2549 C2554 0.949 . S
H2550 C2556 0.950 . S
H2551 C2557 0.950 . S
H2552 C2558 0.949 . S
C2553 H2548 0.950 . S
C2553 C2555 1.327 . S
C2553 C2559 1.429 . S
C2554 C2546 1.574 . S
C2554 H2549 0.949 . S
C2554 C2560 1.368 . S
C2555 C2539 1.349 . S
C2555 H2547 0.950 . S
C2555 C2553 1.327 . S
C2556 C2544 1.349 . S
C2556 H2550 0.950 . S
C2556 C2557 1.327 . S
C2557 H2551 0.950 . S
C2557 C2556 1.327 . S
C2557 C2561 1.429 . S
C2558 C2541 1.574 . S
C2558 H2552 0.949 . S
C2558 C2562 1.368 . S
C2559 C2540 1.429 . S
C2559 C2553 1.429 . S
C2559 C2560 1.523 . S
C2560 C2541 1.368 . S
C2560 C2554 1.368 . S
C2560 C2559 1.523 . S
C2561 C2545 1.429 . S
C2561 C2557 1.429 . S
C2561 C2562 1.523 . S
C2562 C2546 1.368 . S
C2562 C2558 1.368 . S
C2562 C2561 1.523 . S
H2563 C2538 0.950 . S
H2564 C2540 0.950 . S
H2565 C2541 0.949 . S
H2566 C2543 0.950 . S
H2567 C2545 0.950 . S
C2568 C2569 1.349 . S
C2568 C2570 1.327 . S
C2568 H2593 0.950 . S
C2569 C2568 1.349 . S
C2569 C2585 1.349 . S
C2570 C2568 1.327 . S
C2570 C2589 1.429 . S
C2570 H2594 0.950 . S
C2571 C2588 1.574 . S
C2571 C2590 1.368 . S
C2571 H2595 0.949 . S
H2572 C2576 0.949 . S
C2573 C2574 1.349 . S
C2573 C2575 1.327 . S
C2573 H2596 0.950 . S
C2574 C2573 1.349 . S
C2574 C2586 1.349 . S
C2575 C2573 1.327 . S
C2575 C2591 1.429 . S
C2575 H2597 0.950 . S
C2576 H2572 0.949 . S
C2576 C2584 1.574 . S
C2576 C2592 1.368 . S
H2577 C2585 0.950 . S
H2578 C2583 0.950 . S
H2579 C2584 0.949 . S
H2580 C2586 0.950 . S
H2581 C2587 0.950 . S
H2582 C2588 0.949 . S
C2583 H2578 0.950 . S
C2583 C2585 1.327 . S
C2583 C2589 1.429 . S
C2584 C2576 1.574 . S
C2584 H2579 0.949 . S
C2584 C2590 1.368 . S
C2585 C2569 1.349 . S
C2585 H2577 0.950 . S
C2585 C2583 1.327 . S
C2586 C2574 1.349 . S
C2586 H2580 0.950 . S
C2586 C2587 1.327 . S
C2587 H2581 0.950 . S
C2587 C2586 1.327 . S
C2587 C2591 1.429 . S
C2588 C2571 1.574 . S
C2588 H2582 0.949 . S
C2588 C2592 1.368 . S
C2589 C2570 1.429 . S
C2589 C2583 1.429 . S
C2589 C2590 1.523 . S
C2590 C2571 1.368 . S
C2590 C2584 1.368 . S
C2590 C2589 1.523 . S
C2591 C2575 1.429 . S
C2591 C2587 1.429 . S
C2591 C2592 1.523 . S
C2592 C2576 1.368 . S
C2592 C2588 1.368 . S
C2592 C2591 1.523 . S
H2593 C2568 0.950 . S
H2594 C2570 0.950 . S
H2595 C2571 0.949 . S
H2596 C2573 0.950 . S
H2597 C2575 0.950 . S
C2598 C2599 1.349 . S
C2598 C2600 1.327 . S
C2598 H2623 0.950 . S
C2599 C2598 1.349 . S
C2599 C2615 1.349 . S
C2600 C2598 1.327 . S
C2600 C2619 1.429 . S
C2600 H2624 0.950 . S
C2601 C2618 1.574 . S
C2601 C2620 1.368 . S
C2601 H2625 0.949 . S
H2602 C2606 0.949 . S
C2603 C2604 1.349 . S
C2603 C2605 1.327 . S
C2603 H2626 0.950 . S
C2604 C2603 1.349 . S
C2604 C2616 1.349 . S
C2605 C2603 1.327 . S
C2605 C2621 1.429 . S
C2605 H2627 0.950 . S
C2606 H2602 0.949 . S
C2606 C2614 1.574 1_565 S
C2606 C2622 1.368 . S
H2607 C2615 0.950 . S
H2608 C2613 0.950 . S
H2609 C2614 0.949 . S
H2610 C2616 0.950 . S
H2611 C2617 0.950 . S
H2612 C2618 0.949 . S
C2613 H2608 0.950 . S
C2613 C2615 1.327 . S
C2613 C2619 1.429 . S
C2614 C2606 1.574 1_545 S
C2614 H2609 0.949 . S
C2614 C2620 1.368 . S
C2615 C2599 1.349 . S
C2615 H2607 0.950 . S
C2615 C2613 1.327 . S
C2616 C2604 1.349 . S
C2616 H2610 0.950 . S
C2616 C2617 1.327 . S
C2617 H2611 0.950 . S
C2617 C2616 1.327 . S
C2617 C2621 1.429 . S
C2618 C2601 1.574 . S
C2618 H2612 0.949 . S
C2618 C2622 1.368 1_545 S
C2619 C2600 1.429 . S
C2619 C2613 1.429 . S
C2619 C2620 1.523 . S
C2620 C2601 1.368 . S
C2620 C2614 1.368 . S
C2620 C2619 1.523 . S
C2621 C2605 1.429 . S
C2621 C2617 1.429 . S
C2621 C2622 1.523 . S
C2622 C2606 1.368 . S
C2622 C2618 1.368 1_565 S
C2622 C2621 1.523 . S
H2623 C2598 0.950 . S
H2624 C2600 0.950 . S
H2625 C2601 0.949 . S
H2626 C2603 0.950 . S
H2627 C2605 0.950 . S
C2628 C2629 1.349 . S
C2628 C2630 1.327 . S
C2628 H2653 0.950 . S
C2629 C2628 1.349 . S
C2629 C2645 1.349 . S
C2630 C2628 1.327 . S
C2630 C2649 1.429 . S
C2630 H2654 0.950 . S
C2631 C2648 1.600 . S
C2631 C2650 1.368 . S
C2631 H2655 0.949 . S
H2632 C2636 0.949 . S
C2633 C2634 1.349 . S
C2633 C2635 1.327 . S
C2633 H2656 0.950 . S
C2634 C2633 1.349 . S
C2634 C2646 1.349 . S
C2635 C2633 1.327 . S
C2635 C2651 1.429 . S
C2635 H2657 0.950 . S
C2636 H2632 0.949 . S
C2636 C2644 1.574 . S
C2636 C2652 1.368 . S
H2637 C2645 0.950 . S
H2638 C2643 0.950 . S
H2639 C2644 0.949 . S
H2640 C2646 0.950 . S
H2641 C2647 0.950 . S
H2642 C2648 0.961 . S
C2643 H2638 0.950 . S
C2643 C2645 1.327 . S
C2643 C2649 1.429 . S
C2644 C2636 1.574 . S
C2644 H2639 0.949 . S
C2644 C2650 1.368 1_565 S
C2645 C2629 1.349 . S
C2645 H2637 0.950 . S
C2645 C2643 1.327 . S
C2646 C2634 1.349 . S
C2646 H2640 0.950 . S
C2646 C2647 1.327 . S
C2647 H2641 0.950 . S
C2647 C2646 1.327 . S
C2647 C2651 1.429 . S
C2648 C2631 1.600 . S
C2648 H2642 0.961 . S
C2648 C2652 1.330 1_545 S
C2649 C2630 1.429 . S
C2649 C2643 1.429 . S
C2649 C2650 1.523 . S
C2650 C2631 1.368 . S
C2650 C2644 1.368 1_545 S
C2650 C2649 1.523 . S
C2651 C2635 1.429 . S
C2651 C2647 1.429 . S
C2651 C2652 1.523 . S
C2652 C2636 1.368 . S
C2652 C2648 1.330 1_565 S
C2652 C2651 1.523 . S
H2653 C2628 0.950 . S
H2654 C2630 0.950 . S
H2655 C2631 0.949 . S
H2656 C2633 0.950 . S
H2657 C2635 0.950 . S
C2658 C2659 1.349 . S
C2658 C2660 1.327 . S
C2658 H2683 0.950 . S
C2659 C2658 1.349 . S
C2659 C2675 1.349 . S
C2660 C2658 1.327 . S
C2660 C2679 1.429 . S
C2660 H2684 0.950 . S
C2661 C2678 1.574 . S
C2661 C2680 1.368 . S
C2661 H2685 0.949 . S
H2662 C2666 0.949 . S
C2663 C2664 1.349 . S
C2663 C2665 1.327 . S
C2663 H2686 0.950 . S
C2664 C2663 1.349 . S
C2664 C2676 1.349 . S
C2665 C2663 1.327 . S
C2665 C2681 1.429 . S
C2665 H2687 0.950 . S
C2666 H2662 0.949 . S
C2666 C2674 1.574 . S
C2666 C2682 1.368 . S
H2667 C2675 0.950 . S
H2668 C2673 0.950 . S
H2669 C2674 0.949 . S
H2670 C2676 0.950 . S
H2671 C2677 0.950 . S
H2672 C2678 0.949 . S
C2673 H2668 0.950 . S
C2673 C2675 1.327 . S
C2673 C2679 1.429 . S
C2674 C2666 1.574 . S
C2674 H2669 0.949 . S
C2674 C2680 1.368 . S
C2675 C2659 1.349 . S
C2675 H2667 0.950 . S
C2675 C2673 1.327 . S
C2676 C2664 1.349 . S
C2676 H2670 0.950 . S
C2676 C2677 1.327 . S
C2677 H2671 0.950 . S
C2677 C2676 1.327 . S
C2677 C2681 1.429 . S
C2678 C2661 1.574 . S
C2678 H2672 0.949 . S
C2678 C2682 1.368 . S
C2679 C2660 1.429 . S
C2679 C2673 1.429 . S
C2679 C2680 1.523 . S
C2680 C2661 1.368 . S
C2680 C2674 1.368 . S
C2680 C2679 1.523 . S
C2681 C2665 1.429 . S
C2681 C2677 1.429 . S
C2681 C2682 1.523 . S
C2682 C2666 1.368 . S
C2682 C2678 1.368 . S
C2682 C2681 1.523 . S
H2683 C2658 0.950 . S
H2684 C2660 0.950 . S
H2685 C2661 0.949 . S
H2686 C2663 0.950 . S
H2687 C2665 0.950 . S
C529 C4 0.880 . S
C534 C338 0.880 . S
C559 C268 0.880 . S
C564 C26 0.880 . S
C589 C294 0.880 . S
C594 C48 0.880 . S
C619 C70 0.880 . S
C624 C316 0.880 . S
C649 C96 0.880 . S
C654 C202 0.880 . S
C679 C118 0.880 . S
C684 C224 0.880 . S
C709 C140 0.880 . S
C714 C246 0.880 . S
C739 C162 0.880 . S
C744 C184 0.880 . S
C769 C356 0.880 . S
C774 C448 0.880 . S
C799 C382 0.880 . S
C804 C510 0.880 . S
C829 C400 0.880 . S
C834 C470 0.880 . S
C859 C422 0.880 . S
C864 C488 0.880 . S
C889 C466 0.897 . S
C894 C9 0.895 . S
C919 C31 0.895 . S
C924 C492 0.897 . S
C949 C53 0.895 . S
C954 C360 0.897 . S
C979 C75 0.895 . S
C984 C514 0.897 . S
C1009 C426 0.897 . S
C1014 C93 0.895 . S
C1039 C444 0.897 . S
C1044 C115 0.895 . S
C1069 C137 0.895 . S
C1074 C378 0.897 . S
C1099 C159 0.895 . S
C1104 C404 0.897 . S
C1129 C181 0.895 . S
C1134 C92 0.897 . S
C1159 C207 0.895 . S
C1164 C114 0.897 . S
C1189 C229 0.895 . S
C1194 C136 0.897 . S
C1219 C251 0.895 . S
C1224 C158 0.897 . S
C1249 C8 0.897 . S
C1254 C273 0.895 . S
C1279 C291 0.895 . S
C1284 C30 0.897 . S
C1309 C313 0.895 . S
C1314 C52 0.897 . S
C1339 C335 0.895 . S
C1344 C74 0.897 . S
C1369 C312 0.897 . S
C1374 C361 0.895 . S
C1399 C228 0.897 . S
C1404 C379 0.895 . S
C1429 C405 0.895 . S
C1434 C250 0.897 . S
C1459 C180 0.897 . S
C1464 C427 0.895 . S
C1489 C445 0.895 . S
C1494 C206 0.897 . S
C1519 C272 0.897 . S
C1524 C467 0.895 . S
C1549 C290 0.897 . S
C1554 C493 0.895 . S
C1579 C334 0.897 . S
C1584 C515 0.895 . S
C1609 C401 1.465 . S
C1614 C6 1.417 . S
C1639 C28 1.417 . S
C1644 C423 1.465 . S
C1669 C449 1.465 . S
C1674 C50 1.417 . S
C1699 C72 1.417 . S
C1704 C383 1.465 . S
C1729 C489 1.465 . S
C1734 C95 1.417 . S
C1759 C357 1.465 . S
C1764 C117 1.417 . S
C1789 C511 1.465 . S
C1794 C139 1.417 . S
C1819 C471 1.465 . S
C1824 C161 1.417 . S
C1849 C203 1.465 . S
C1854 C183 1.417 . S
C1879 C225 1.465 . S
C1884 C204 1.417 . S
C1909 C226 1.417 . S
C1914 C247 1.465 . S
C1939 C248 1.417 . S
C1944 C185 1.465 . S
C1969 C339 1.465 . S
C1974 C270 1.417 . S
C1999 C269 1.465 . S
C2004 C293 1.417 . S
C2029 C315 1.417 . S
C2034 C295 1.465 . S
C2059 C337 1.417 . S
C2064 C317 1.465 . S
C2089 C71 1.465 . S
C2094 C358 1.417 . S
C2119 C119 1.465 . S
C2124 C381 1.417 . S
C2149 C141 1.465 . S
C2154 C402 1.417 . S
C2179 C163 1.465 . S
C2184 C424 1.417 . S
C2209 C97 1.465 . S
C2214 C447 1.417 . S
C2239 C27 1.465 . S
C2244 C469 1.417 . S
C2269 C49 1.465 . S
C2274 C490 1.417 . S
C2299 C512 1.417 . S
C2304 C5 1.465 . S
C2329 C7 1.525 . S
C2334 C205 1.525 . S
C2359 C227 1.525 . S
C2364 C29 1.525 . S
C2389 C51 1.525 . S
C2394 C249 1.525 . S
C2419 C73 1.525 . S
C2424 C182 1.525 . S
C2449 C94 1.525 . S
C2454 C336 1.525 . S
C2479 C271 1.525 . S
C2484 C116 1.525 . S
C2509 C138 1.525 . S
C2514 C292 1.525 . S
C2539 C160 1.525 . S
C2544 C314 1.525 . S
C2569 C359 1.525 . S
C2574 C403 1.525 . S
C2599 C380 1.525 . S
C2604 C491 1.525 . S
C2629 C513 1.525 . S
C2634 C425 1.525 . S
C2659 C446 1.525 . S
C2664 C468 1.525 . S
