# Generated by pormake.
# Topology ukd, (4)-cn, num edge types: 1
# Building blocks:
#     Node 0, Type 0, BuildingBlock: GALJAG_clean_sbu_0, # of connection points: 4
#     Node 1, Type 0, BuildingBlock: GALJAG_clean_sbu_0, # of connection points: 4
#     Node 2, Type 0, BuildingBlock: GALJAG_clean_sbu_0, # of connection points: 4
#     Node 3, Type 0, BuildingBlock: GALJAG_clean_sbu_0, # of connection points: 4
#     Node 4, Type 0, BuildingBlock: GALJAG_clean_sbu_0, # of connection points: 4
#     Node 5, Type 0, BuildingBlock: GALJAG_clean_sbu_0, # of connection points: 4
#     Node 6, Type 0, BuildingBlock: GALJAG_clean_sbu_0, # of connection points: 4
#     Node 7, Type 0, BuildingBlock: GALJAG_clean_sbu_0, # of connection points: 4
#     Node 8, Type 0, BuildingBlock: GALJAG_clean_sbu_0, # of connection points: 4
#     Node 9, Type 0, BuildingBlock: GALJAG_clean_sbu_0, # of connection points: 4
#     Node 10, Type 0, BuildingBlock: GALJAG_clean_sbu_0, # of connection points: 4
#     Node 11, Type 0, BuildingBlock: GALJAG_clean_sbu_0, # of connection points: 4
#     Node 12, Type 0, BuildingBlock: GALJAG_clean_sbu_0, # of connection points: 4
#     Node 13, Type 0, BuildingBlock: GALJAG_clean_sbu_0, # of connection points: 4
#     Node 14, Type 0, BuildingBlock: GALJAG_clean_sbu_0, # of connection points: 4
#     Node 15, Type 0, BuildingBlock: GALJAG_clean_sbu_0, # of connection points: 4
#     Node 16, Type 0, BuildingBlock: GALJAG_clean_sbu_0, # of connection points: 4
#     Node 17, Type 0, BuildingBlock: GALJAG_clean_sbu_0, # of connection points: 4
#     Node 18, Type 0, BuildingBlock: GALJAG_clean_sbu_0, # of connection points: 4
#     Node 19, Type 0, BuildingBlock: GALJAG_clean_sbu_0, # of connection points: 4
#     Node 20, Type 0, BuildingBlock: GALJAG_clean_sbu_0, # of connection points: 4
#     Node 21, Type 0, BuildingBlock: GALJAG_clean_sbu_0, # of connection points: 4
#     Node 22, Type 0, BuildingBlock: GALJAG_clean_sbu_0, # of connection points: 4
#     Node 23, Type 0, BuildingBlock: GALJAG_clean_sbu_0, # of connection points: 4
#     Node 24, Type 0, BuildingBlock: GALJAG_clean_sbu_0, # of connection points: 4
#     Node 25, Type 0, BuildingBlock: GALJAG_clean_sbu_0, # of connection points: 4
#     Node 26, Type 0, BuildingBlock: GALJAG_clean_sbu_0, # of connection points: 4
#     Node 27, Type 0, BuildingBlock: GALJAG_clean_sbu_0, # of connection points: 4
#     Node 28, Type 0, BuildingBlock: GALJAG_clean_sbu_0, # of connection points: 4
#     Node 29, Type 0, BuildingBlock: GALJAG_clean_sbu_0, # of connection points: 4
#     Node 30, Type 0, BuildingBlock: GALJAG_clean_sbu_0, # of connection points: 4
#     Node 31, Type 0, BuildingBlock: GALJAG_clean_sbu_0, # of connection points: 4
#     Edge 32, Type (0, 0), BuildingBlock: XIVTED_clean_linker_0, # of connection points: 2
#     Edge 33, Type (0, 0), BuildingBlock: XIVTED_clean_linker_0, # of connection points: 2
#     Edge 34, Type (0, 0), BuildingBlock: XIVTED_clean_linker_0, # of connection points: 2
#     Edge 35, Type (0, 0), BuildingBlock: XIVTED_clean_linker_0, # of connection points: 2
#     Edge 36, Type (0, 0), BuildingBlock: XIVTED_clean_linker_0, # of connection points: 2
#     Edge 37, Type (0, 0), BuildingBlock: XIVTED_clean_linker_0, # of connection points: 2
#     Edge 38, Type (0, 0), BuildingBlock: XIVTED_clean_linker_0, # of connection points: 2
#     Edge 39, Type (0, 0), BuildingBlock: XIVTED_clean_linker_0, # of connection points: 2
#     Edge 40, Type (0, 0), BuildingBlock: XIVTED_clean_linker_0, # of connection points: 2
#     Edge 41, Type (0, 0), BuildingBlock: XIVTED_clean_linker_0, # of connection points: 2
#     Edge 42, Type (0, 0), BuildingBlock: XIVTED_clean_linker_0, # of connection points: 2
#     Edge 43, Type (0, 0), BuildingBlock: XIVTED_clean_linker_0, # of connection points: 2
#     Edge 44, Type (0, 0), BuildingBlock: XIVTED_clean_linker_0, # of connection points: 2
#     Edge 45, Type (0, 0), BuildingBlock: XIVTED_clean_linker_0, # of connection points: 2
#     Edge 46, Type (0, 0), BuildingBlock: XIVTED_clean_linker_0, # of connection points: 2
#     Edge 47, Type (0, 0), BuildingBlock: XIVTED_clean_linker_0, # of connection points: 2
#     Edge 48, Type (0, 0), BuildingBlock: XIVTED_clean_linker_0, # of connection points: 2
#     Edge 49, Type (0, 0), BuildingBlock: XIVTED_clean_linker_0, # of connection points: 2
#     Edge 50, Type (0, 0), BuildingBlock: XIVTED_clean_linker_0, # of connection points: 2
#     Edge 51, Type (0, 0), BuildingBlock: XIVTED_clean_linker_0, # of connection points: 2
#     Edge 52, Type (0, 0), BuildingBlock: XIVTED_clean_linker_0, # of connection points: 2
#     Edge 53, Type (0, 0), BuildingBlock: XIVTED_clean_linker_0, # of connection points: 2
#     Edge 54, Type (0, 0), BuildingBlock: XIVTED_clean_linker_0, # of connection points: 2
#     Edge 55, Type (0, 0), BuildingBlock: XIVTED_clean_linker_0, # of connection points: 2
#     Edge 56, Type (0, 0), BuildingBlock: XIVTED_clean_linker_0, # of connection points: 2
#     Edge 57, Type (0, 0), BuildingBlock: XIVTED_clean_linker_0, # of connection points: 2
#     Edge 58, Type (0, 0), BuildingBlock: XIVTED_clean_linker_0, # of connection points: 2
#     Edge 59, Type (0, 0), BuildingBlock: XIVTED_clean_linker_0, # of connection points: 2
#     Edge 60, Type (0, 0), BuildingBlock: XIVTED_clean_linker_0, # of connection points: 2
#     Edge 61, Type (0, 0), BuildingBlock: XIVTED_clean_linker_0, # of connection points: 2
#     Edge 62, Type (0, 0), BuildingBlock: XIVTED_clean_linker_0, # of connection points: 2
#     Edge 63, Type (0, 0), BuildingBlock: XIVTED_clean_linker_0, # of connection points: 2
#     Edge 64, Type (0, 0), BuildingBlock: XIVTED_clean_linker_0, # of connection points: 2
#     Edge 65, Type (0, 0), BuildingBlock: XIVTED_clean_linker_0, # of connection points: 2
#     Edge 66, Type (0, 0), BuildingBlock: XIVTED_clean_linker_0, # of connection points: 2
#     Edge 67, Type (0, 0), BuildingBlock: XIVTED_clean_linker_0, # of connection points: 2
#     Edge 68, Type (0, 0), BuildingBlock: XIVTED_clean_linker_0, # of connection points: 2
#     Edge 69, Type (0, 0), BuildingBlock: XIVTED_clean_linker_0, # of connection points: 2
#     Edge 70, Type (0, 0), BuildingBlock: XIVTED_clean_linker_0, # of connection points: 2
#     Edge 71, Type (0, 0), BuildingBlock: XIVTED_clean_linker_0, # of connection points: 2
#     Edge 72, Type (0, 0), BuildingBlock: XIVTED_clean_linker_0, # of connection points: 2
#     Edge 73, Type (0, 0), BuildingBlock: XIVTED_clean_linker_0, # of connection points: 2
#     Edge 74, Type (0, 0), BuildingBlock: XIVTED_clean_linker_0, # of connection points: 2
#     Edge 75, Type (0, 0), BuildingBlock: XIVTED_clean_linker_0, # of connection points: 2
#     Edge 76, Type (0, 0), BuildingBlock: XIVTED_clean_linker_0, # of connection points: 2
#     Edge 77, Type (0, 0), BuildingBlock: XIVTED_clean_linker_0, # of connection points: 2
#     Edge 78, Type (0, 0), BuildingBlock: XIVTED_clean_linker_0, # of connection points: 2
#     Edge 79, Type (0, 0), BuildingBlock: XIVTED_clean_linker_0, # of connection points: 2
#     Edge 80, Type (0, 0), BuildingBlock: XIVTED_clean_linker_0, # of connection points: 2
#     Edge 81, Type (0, 0), BuildingBlock: XIVTED_clean_linker_0, # of connection points: 2
#     Edge 82, Type (0, 0), BuildingBlock: XIVTED_clean_linker_0, # of connection points: 2
#     Edge 83, Type (0, 0), BuildingBlock: XIVTED_clean_linker_0, # of connection points: 2
#     Edge 84, Type (0, 0), BuildingBlock: XIVTED_clean_linker_0, # of connection points: 2
#     Edge 85, Type (0, 0), BuildingBlock: XIVTED_clean_linker_0, # of connection points: 2
#     Edge 86, Type (0, 0), BuildingBlock: XIVTED_clean_linker_0, # of connection points: 2
#     Edge 87, Type (0, 0), BuildingBlock: XIVTED_clean_linker_0, # of connection points: 2
#     Edge 88, Type (0, 0), BuildingBlock: XIVTED_clean_linker_0, # of connection points: 2
#     Edge 89, Type (0, 0), BuildingBlock: XIVTED_clean_linker_0, # of connection points: 2
#     Edge 90, Type (0, 0), BuildingBlock: XIVTED_clean_linker_0, # of connection points: 2
#     Edge 91, Type (0, 0), BuildingBlock: XIVTED_clean_linker_0, # of connection points: 2
#     Edge 92, Type (0, 0), BuildingBlock: XIVTED_clean_linker_0, # of connection points: 2
#     Edge 93, Type (0, 0), BuildingBlock: XIVTED_clean_linker_0, # of connection points: 2
#     Edge 94, Type (0, 0), BuildingBlock: XIVTED_clean_linker_0, # of connection points: 2
#     Edge 95, Type (0, 0), BuildingBlock: XIVTED_clean_linker_0, # of connection points: 2
# Relax obj value: 0.105
# Max RMSD: 0.103
# Mean RMSD: 0.103
data_MOF--net-ukd--node1-GALJAG_clean_sbu_0--edge1-XIVTED_clean_linker_0
_symmetry_space_group_name_H-M    P1
_symmetry_Int_Tables_number       1
_symmetry_cell_setting            triclinic
loop_
_symmetry_equiv_pos_as_xyz
'x, y, z'
_cell_length_a     46.183963
_cell_length_b     46.110096
_cell_length_c     71.825727
_cell_angle_alpha  89.983407
_cell_angle_beta   89.970876
_cell_angle_gamma 89.929332
loop_
_atom_site_label
_atom_site_type_symbol
_atom_site_fract_x
_atom_site_fract_y
_atom_site_fract_z
_atom_type_partial_charge
In0 In 0.21387 0.17802 0.34322 0.0
O1 O 0.1779 0.14599 0.33601 0.0
O2 O 0.18661 0.1543 0.36459 0.0
C3 C 0.22744 0.19913 0.30963 0.0
C4 C 0.26197 0.14742 0.35099 0.0
C5 C 0.19157 0.22775 0.3565 0.0
O6 O 0.20798 0.1802 0.3119 0.0
O7 O 0.2404 0.20692 0.32428 0.0
O8 O 0.21364 0.21617 0.36387 0.0
O9 O 0.18117 0.21412 0.34286 0.0
C10 C 0.1713 0.14112 0.35278 0.0
O11 O 0.25346 0.16788 0.36137 0.0
O12 O 0.24622 0.14261 0.33701 0.0
In13 In 0.06163 0.96575 0.59485 0.0
O14 O 0.07237 0.00279 0.61478 0.0
O15 O 0.09416 0.00125 0.58869 0.0
C16 C 0.01122 0.94532 0.60824 0.0
C17 C 0.10003 0.9238 0.60358 0.0
C18 C 0.04148 0.97893 0.56094 0.0
O19 O 0.02278 0.96798 0.61473 0.0
O20 O 0.02539 0.93298 0.5955 0.0
O21 O 0.06043 0.95955 0.56352 0.0
O22 O 0.03319 0.99201 0.57544 0.0
C23 C 0.09067 0.01422 0.60397 0.0
O24 O 0.09392 0.93019 0.58696 0.0
O25 O 0.08698 0.93868 0.61567 0.0
In26 In 0.28411 0.80863 0.84189 0.0
O27 O 0.24619 0.81663 0.86164 0.0
O28 O 0.24509 0.83646 0.83489 0.0
C29 C 0.31255 0.76441 0.85826 0.0
C30 C 0.31972 0.85367 0.84832 0.0
C31 C 0.27445 0.78326 0.80889 0.0
O32 O 0.28661 0.7704 0.86234 0.0
O33 O 0.32386 0.78091 0.84634 0.0
O34 O 0.29088 0.80493 0.81073 0.0
O35 O 0.26239 0.77473 0.82368 0.0
C36 C 0.23277 0.83287 0.85039 0.0
O37 O 0.31619 0.84312 0.83227 0.0
O38 O 0.30499 0.84177 0.86098 0.0
In39 In 0.42945 0.02935 0.09211 0.0
O40 O 0.42037 0.9913 0.11165 0.0
O41 O 0.3942 0.99606 0.08745 0.0
C42 C 0.48018 0.05062 0.10426 0.0
C43 C 0.39278 0.07233 0.10164 0.0
C44 C 0.44945 0.01473 0.05839 0.0
O45 O 0.46843 0.02893 0.11195 0.0
O46 O 0.46613 0.0614 0.09092 0.0
O47 O 0.43184 0.03542 0.06076 0.0
O48 O 0.45621 0.00098 0.07296 0.0
C49 C 0.39971 0.98164 0.10194 0.0
O50 O 0.39616 0.06445 0.08495 0.0
O51 O 0.4074 0.05819 0.11336 0.0
In52 In 0.20609 0.80752 0.15145 0.0
O53 O 0.23987 0.81915 0.12946 0.0
O54 O 0.24529 0.83594 0.15682 0.0
C55 C 0.18064 0.76054 0.1362 0.0
C56 C 0.16637 0.84997 0.14733 0.0
C57 C 0.22105 0.78526 0.18459 0.0
O58 O 0.20553 0.76881 0.13125 0.0
O59 O 0.16876 0.77623 0.14834 0.0
O60 O 0.20426 0.80672 0.18294 0.0
O61 O 0.23084 0.77529 0.16947 0.0
C62 C 0.2548 0.83451 0.14039 0.0
O63 O 0.17022 0.83686 0.16254 0.0
O64 O 0.18266 0.84183 0.13424 0.0
In65 In 0.43757 0.95015 0.39318 0.0
O66 O 0.42061 0.98232 0.37153 0.0
O67 O 0.4144 0.99239 0.40009 0.0
C68 C 0.48093 0.92974 0.3715 0.0
C69 C 0.39625 0.90898 0.39343 0.0
C70 C 0.46209 0.95953 0.42661 0.0
O71 O 0.47847 0.95624 0.37554 0.0
O72 O 0.46121 0.91381 0.37796 0.0
O73 O 0.43686 0.94947 0.42488 0.0
O74 O 0.47492 0.96482 0.41149 0.0
C75 C 0.41054 -0.00019 0.3834 0.0
O76 O 0.41765 0.90846 0.40435 0.0
O77 O 0.39571 0.93027 0.38238 0.0
In78 In 0.28512 0.19234 0.6473 0.0
O79 O 0.32167 0.16012 0.65355 0.0
O80 O 0.31567 0.17392 0.6256 0.0
C81 C 0.27013 0.20991 0.68145 0.0
C82 C 0.2385 0.16098 0.63765 0.0
C83 C 0.30227 0.24517 0.63618 0.0
O84 O 0.29196 0.19393 0.67858 0.0
O85 O 0.25554 0.21625 0.66715 0.0
O86 O 0.28313 0.23121 0.62736 0.0
O87 O 0.31271 0.23226 0.6501 0.0
C88 C 0.33016 0.15881 0.63687 0.0
O89 O 0.24699 0.18233 0.62808 0.0
O90 O 0.25365 0.15547 0.65181 0.0
In91 In 0.06322 0.03063 0.89659 0.0
O92 O 0.09693 0.06372 0.90586 0.0
O93 O 0.09383 0.05421 0.87698 0.0
C94 C 0.04199 0.01774 0.93031 0.0
C95 C 0.08808 0.98025 0.88641 0.0
C96 C 0.01642 0.05803 0.88264 0.0
O97 O 0.06315 0.03467 0.92801 0.0
O98 O 0.03166 0.00703 0.91556 0.0
O99 O 0.02365 0.03296 0.87727 0.0
O100 O 0.03286 0.069 0.89471 0.0
C101 C 0.106 0.06876 0.88961 0.0
O102 O 0.07137 0.99407 0.87567 0.0
O103 O 0.092 0.99179 0.9021 0.0
In104 In 0.78045 0.81871 0.65356 0.0
O105 O 0.74263 0.8259 0.63359 0.0
O106 O 0.74681 0.85404 0.65694 0.0
C107 C 0.80458 0.76886 0.64189 0.0
C108 C 0.82298 0.85576 0.64418 0.0
C109 C 0.76386 0.79961 0.68713 0.0
O110 O 0.78241 0.77937 0.63404 0.0
O111 O 0.81424 0.78354 0.65532 0.0
O112 O 0.78275 0.81921 0.68519 0.0
O113 O 0.7531 0.79018 0.67215 0.0
C114 C 0.73266 0.84725 0.64258 0.0
O115 O 0.81599 0.85126 0.66093 0.0
O116 O 0.80809 0.84215 0.63236 0.0
In117 In 0.9324 0.03191 0.40291 0.0
O118 O 0.97181 0.03018 0.38351 0.0
O119 O 0.96949 0.06368 0.40385 0.0
C120 C 0.90281 0.98428 0.39285 0.0
C121 C 0.95055 0.01761 0.4371 0.0
C122 C 0.89589 0.07474 0.39285 0.0
O123 O 0.92351 0.99408 0.38324 0.0
O124 O 0.89724 -0.00156 0.40743 0.0
O125 O 0.89976 0.06777 0.40966 0.0
O126 O 0.91016 0.05996 0.38128 0.0
C127 C 0.9837 0.05204 0.39086 0.0
O128 O 0.93249 0.03777 0.4343 0.0
O129 O 0.95886 0.00434 0.42267 0.0
In130 In 0.70835 0.18426 0.14954 0.0
O131 O 0.67192 0.15258 0.15648 0.0
O132 O 0.67933 0.16294 0.12804 0.0
C133 C 0.72317 0.20251 0.18357 0.0
C134 C 0.75552 0.15306 0.14056 0.0
C135 C 0.68979 0.23626 0.13749 0.0
O136 O 0.7021 0.18555 0.18087 0.0
O137 O 0.737 0.20972 0.16913 0.0
O138 O 0.71018 0.22293 0.1294 0.0
O139 O 0.67878 0.22308 0.15113 0.0
C140 C 0.66447 0.14901 0.13974 0.0
O141 O 0.74722 0.17434 0.13084 0.0
O142 O 0.73993 0.14756 0.15452 0.0
In143 In 0.5523 0.95978 0.89954 0.0
O144 O 0.51909 0.96154 0.87575 0.0
O145 O 0.50526 0.94746 0.90252 0.0
C146 C 0.59093 -0.00042 0.88785 0.0
C147 C 0.5402 0.97556 0.93467 0.0
C148 C 0.57681 0.90805 0.89207 0.0
O149 O 0.56412 0.00251 0.88506 0.0
O150 O 0.59799 0.97672 0.89627 0.0
O151 O 0.57992 0.92065 0.90754 0.0
O152 O 0.56132 0.92151 0.88046 0.0
C153 C 0.49854 0.95259 0.88585 0.0
O154 O 0.54897 0.95043 0.93053 0.0
O155 O 0.53835 0.99293 0.92114 0.0
In156 In 0.78095 0.18207 0.83775 0.0
O157 O 0.81833 0.1517 0.83048 0.0
O158 O 0.82001 0.17409 0.85634 0.0
C159 C 0.76707 0.19133 0.8019 0.0
C160 C 0.73994 0.14571 0.85068 0.0
C161 C 0.78781 0.23625 0.8511 0.0
O162 O 0.79246 0.18516 0.80705 0.0
O163 O 0.74855 0.19218 0.8148 0.0
O164 O 0.7796 0.21559 0.86137 0.0
O165 O 0.79231 0.22949 0.83436 0.0
C166 C 0.83204 0.15644 0.84536 0.0
O167 O 0.7368 0.17287 0.85107 0.0
O168 O 0.76367 0.13715 0.84403 0.0
In169 In 0.56198 0.03696 0.58293 0.0
O170 O 0.56553 0.03062 0.55167 0.0
O171 O 0.52945 0.01174 0.56561 0.0
C172 C 0.60284 0.07875 0.58494 0.0
C173 C 0.51411 0.06192 0.59737 0.0
C174 C 0.58825 0.98967 0.59691 0.0
O175 O 0.58648 0.07586 0.57104 0.0
O176 O 0.59866 0.06058 0.59776 0.0
O177 O 0.57335 0.00654 0.60694 0.0
O178 O 0.5897 0.99665 0.57996 0.0
C179 C 0.54254 0.01597 0.55041 0.0
O180 O 0.52452 0.03877 0.60395 0.0
O181 O 0.52808 0.07243 0.58392 0.0
In182 In 0.71645 0.80628 0.33499 0.0
O183 O 0.66755 0.80978 0.33135 0.0
O184 O 0.69038 0.84807 0.3386 0.0
C185 C 0.73032 0.79112 0.3 0.0
C186 C 0.76108 0.83801 0.34794 0.0
C187 C 0.70782 0.75702 0.35457 0.0
O188 O 0.70807 0.806 0.3037 0.0
O189 O 0.74544 0.78406 0.31391 0.0
O190 O 0.70087 0.78163 0.3608 0.0
O191 O 0.71967 0.75744 0.33878 0.0
C192 C 0.66627 0.83645 0.33514 0.0
O193 O 0.74647 0.82156 0.35835 0.0
O194 O 0.75304 0.83854 0.3312 0.0
In195 In 0.94337 0.96955 0.09212 0.0
O196 O 0.94568 0.95929 0.06109 0.0
O197 O 0.96788 0.9966 0.07109 0.0
C198 C 0.91193 0.92026 0.09134 0.0
C199 C 0.99158 0.96049 0.11267 0.0
C200 C 0.91103 0.01481 0.1037 0.0
O201 O 0.93896 0.92065 0.08887 0.0
O202 O 0.90061 0.94481 0.09405 0.0
O203 O 0.9249 -0.001 0.11494 0.0
O204 O 0.91361 0.00779 0.08685 0.0
C205 C 0.96155 0.9808 0.05736 0.0
O206 O 0.99158 0.97423 0.09754 0.0
O207 O 0.96692 0.95216 0.11798 0.0
In208 In 0.70627 0.67906 0.84138 0.0
O209 O 0.74282 0.67043 0.8621 0.0
O210 O 0.74555 0.6512 0.83523 0.0
C211 C 0.67774 0.72419 0.8566 0.0
C212 C 0.66926 0.63495 0.84736 0.0
C213 C 0.71925 0.70356 0.80858 0.0
O214 O 0.70288 0.71711 0.86187 0.0
O215 O 0.66721 0.70831 0.84405 0.0
O216 O 0.70338 0.68135 0.80987 0.0
O217 O 0.7289 0.71311 0.82383 0.0
C218 C 0.75689 0.65441 0.85105 0.0
O219 O 0.67328 0.64564 0.83139 0.0
O220 O 0.68415 0.64627 0.86014 0.0
In221 In 0.5577 0.46446 0.09399 0.0
O222 O 0.56763 0.50361 0.11251 0.0
O223 O 0.59043 0.49908 0.08689 0.0
C224 C 0.50845 0.44156 0.10743 0.0
C225 C 0.59683 0.42357 0.10316 0.0
C226 C 0.53538 0.47671 0.06053 0.0
O227 O 0.51894 0.46463 0.11416 0.0
O228 O 0.52313 0.43026 0.09454 0.0
O229 O 0.55414 0.45705 0.06284 0.0
O230 O 0.52847 0.49056 0.07504 0.0
C231 C 0.58628 0.51384 0.10142 0.0
O232 O 0.59126 0.42998 0.08645 0.0
O233 O 0.58315 0.43821 0.11511 0.0
In234 In 0.77801 0.30923 0.342 0.0
O235 O 0.73963 0.31992 0.36094 0.0
O236 O 0.74562 0.34488 0.33629 0.0
C237 C 0.79813 0.25831 0.35486 0.0
C238 C 0.82113 0.34562 0.35143 0.0
C239 C 0.76328 0.28976 0.30825 0.0
O240 O 0.77663 0.27075 0.36231 0.0
O241 O 0.80932 0.27179 0.3414 0.0
O242 O 0.78353 0.3078 0.31065 0.0
O243 O 0.75016 0.28205 0.32287 0.0
C244 C 0.73071 0.34036 0.3507 0.0
O245 O 0.81495 0.34017 0.33468 0.0
O246 O 0.80538 0.33301 0.36326 0.0
In247 In 0.93535 0.53762 0.59605 0.0
O248 O 0.92978 0.49428 0.61128 0.0
O249 O 0.8922 0.5161 0.60131 0.0
C250 C 0.98767 0.55679 0.60685 0.0
C251 C 0.90424 0.5849 0.6047 0.0
C252 C 0.94817 0.51852 0.56171 0.0
O253 O 0.97273 0.54028 0.61713 0.0
O254 O 0.9762 0.56316 0.59148 0.0
O255 O 0.93411 0.54166 0.56442 0.0
O256 O 0.95471 0.50469 0.57627 0.0
C257 C 0.90256 0.49436 0.60959 0.0
O258 O 0.90418 0.57419 0.58848 0.0
O259 O 0.91978 0.5716 0.61639 0.0
In260 In 0.71831 0.2994 0.64277 0.0
O261 O 0.75807 0.31556 0.62672 0.0
O262 O 0.74502 0.33822 0.65115 0.0
C263 C 0.71109 0.25424 0.61907 0.0
C264 C 0.67022 0.33242 0.64117 0.0
C265 C 0.72687 0.27651 0.6768 0.0
O266 O 0.72658 0.25296 0.63343 0.0
O267 O 0.70025 0.27886 0.61602 0.0
O268 O 0.70255 0.28613 0.67169 0.0
O269 O 0.74679 0.27898 0.66491 0.0
C270 C 0.76262 0.33636 0.63779 0.0
O271 O 0.67085 0.30833 0.64954 0.0
O272 O 0.69372 0.33968 0.63353 0.0
In273 In 0.92421 0.45551 0.89864 0.0
O274 O 0.91663 0.49363 0.87891 0.0
O275 O 0.89495 0.49368 0.90507 0.0
C276 C 0.97036 0.42837 0.88372 0.0
C277 C 0.88125 0.41799 0.89089 0.0
C278 C 0.94741 0.46725 0.93199 0.0
O279 O 0.9627 0.45338 0.87845 0.0
O280 O 0.95455 0.41727 0.8961 0.0
O281 O 0.92582 0.45072 0.9301 0.0
O282 O 0.95693 0.47818 0.91708 0.0
C283 C 0.89942 0.50649 0.88982 0.0
O284 O 0.89069 0.42166 0.9072 0.0
O285 O 0.89314 0.43357 0.87865 0.0
In286 In 0.78 0.69394 0.13818 0.0
O287 O 0.74307 0.68159 0.11847 0.0
O288 O 0.74166 0.66605 0.14632 0.0
C289 C 0.80451 0.73935 0.12052 0.0
C290 C 0.81743 0.65034 0.13183 0.0
C291 C 0.77193 0.71806 0.17178 0.0
O292 O 0.77749 0.73516 0.12024 0.0
O293 O 0.81875 0.72064 0.12942 0.0
O294 O 0.78961 0.69758 0.16911 0.0
O295 O 0.75839 0.72639 0.15749 0.0
C296 C 0.72978 0.66679 0.13055 0.0
O297 O 0.81332 0.6607 0.14789 0.0
O298 O 0.80229 0.66166 0.11912 0.0
In299 In 0.56272 0.54101 0.39886 0.0
O300 O 0.58713 0.58076 0.40913 0.0
O301 O 0.60062 0.56161 0.3836 0.0
C302 C 0.54168 0.52877 0.43285 0.0
C303 C 0.58951 0.4918 0.3883 0.0
C304 C 0.51666 0.56314 0.38053 0.0
O305 O 0.56474 0.54294 0.43049 0.0
O306 O 0.52913 0.52108 0.41807 0.0
O307 O 0.52134 0.53624 0.38157 0.0
O308 O 0.53532 0.57871 0.38846 0.0
C309 C 0.60429 0.58147 0.39546 0.0
O310 O 0.57623 0.50784 0.37689 0.0
O311 O 0.58922 0.50062 0.40489 0.0
In312 In 0.27886 0.30982 0.1518 0.0
O313 O 0.24273 0.31986 0.13103 0.0
O314 O 0.24418 0.34396 0.15625 0.0
C315 C 0.29953 0.25851 0.13985 0.0
C316 C 0.32238 0.34634 0.14312 0.0
C317 C 0.26372 0.2908 0.18565 0.0
O318 O 0.27782 0.27038 0.13229 0.0
O319 O 0.31068 0.2727 0.15301 0.0
O320 O 0.28376 0.30907 0.18323 0.0
O321 O 0.25095 0.28271 0.171 0.0
C322 C 0.23152 0.33943 0.141 0.0
O323 O 0.31366 0.34299 0.15963 0.0
O324 O 0.30883 0.33174 0.13114 0.0
In325 In 0.43758 0.52866 0.90032 0.0
O326 O 0.44064 0.53904 0.93118 0.0
O327 O 0.4492 0.49569 0.9226 0.0
C328 C 0.41363 0.58091 0.89373 0.0
C329 C 0.49145 0.53495 0.88651 0.0
C330 C 0.39956 0.48894 0.88766 0.0
O331 O 0.40869 0.56678 0.90844 0.0
O332 O 0.43065 0.56872 0.88242 0.0
O333 O 0.42656 0.48515 0.88654 0.0
O334 O 0.39203 0.51267 0.89481 0.0
C335 C 0.44787 0.51364 0.93583 0.0
O336 O 0.47025 0.52847 0.87621 0.0
O337 O 0.48535 0.53797 0.90349 0.0
In338 In 0.21948 0.68839 0.64907 0.0
O339 O 0.2648 0.68357 0.63631 0.0
O340 O 0.23925 0.64571 0.63998 0.0
C341 C 0.20337 0.74207 0.63832 0.0
C342 C 0.17144 0.65843 0.64067 0.0
C343 C 0.23675 0.69604 0.68441 0.0
O344 O 0.21742 0.72541 0.62767 0.0
O345 O 0.19776 0.73165 0.65411 0.0
O346 O 0.21333 0.68341 0.68041 0.0
O347 O 0.25163 0.70397 0.6706 0.0
C348 C 0.26286 0.65643 0.6346 0.0
O349 O 0.18251 0.65792 0.65676 0.0
O350 O 0.1846 0.67407 0.62897 0.0
In351 In 0.05696 0.45536 0.40534 0.0
O352 O 0.05481 0.44943 0.43679 0.0
O353 O 0.03596 0.48742 0.42502 0.0
C354 C 0.08845 0.40866 0.3957 0.0
C355 C 0.00482 0.43861 0.39276 0.0
C356 C 0.09181 0.49883 0.39455 0.0
O357 O 0.08683 0.41734 0.41236 0.0
O358 O 0.07418 0.42349 0.38411 0.0
O359 O 0.06545 0.49797 0.38987 0.0
O360 O 0.10023 0.47803 0.40457 0.0
C361 C 0.04076 0.4726 0.43946 0.0
O362 O 0.02069 0.45563 0.38345 0.0
O363 O 0.01547 0.43019 0.40798 0.0
In364 In 0.27838 0.68392 0.34407 0.0
O365 O 0.23888 0.67185 0.36184 0.0
O366 O 0.25454 0.64132 0.34203 0.0
C367 C 0.28594 0.73269 0.36436 0.0
C368 C 0.33006 0.65711 0.34664 0.0
C369 C 0.2645 0.69789 0.3088 0.0
O370 O 0.29234 0.70793 0.37061 0.0
O371 O 0.27479 0.73254 0.34839 0.0
O372 O 0.28826 0.68602 0.31292 0.0
O373 O 0.2477 0.70208 0.32236 0.0
C374 C 0.2362 0.64713 0.35447 0.0
O375 O 0.32708 0.68141 0.33877 0.0
O376 O 0.30706 0.64647 0.35318 0.0
In377 In 0.0518 0.52883 0.08958 0.0
O378 O 0.05303 0.53287 0.05809 0.0
O379 O 0.02856 0.49827 0.07002 0.0
C380 C 0.08374 0.57544 0.09916 0.0
C381 C -0.00174 0.54592 0.09938 0.0
C382 C 0.08373 0.48344 0.10118 0.0
O383 O 0.08333 0.56569 0.08275 0.0
O384 O 0.06852 0.56145 0.1106 0.0
O385 O 0.06195 0.49228 0.11019 0.0
O386 O 0.08931 0.49757 0.08661 0.0
C387 C 0.0367 0.51126 0.05544 0.0
O388 O 0.01218 0.52748 0.10889 0.0
O389 O 0.01149 0.55562 0.08536 0.0
In390 In 0.20766 0.30661 0.84063 0.0
O391 O 0.25043 0.3171 0.85534 0.0
O392 O 0.22505 0.35197 0.845 0.0
C393 C 0.19979 0.25193 0.85273 0.0
C394 C 0.15622 0.33117 0.84851 0.0
C395 C 0.22402 0.29655 0.80537 0.0
O396 O 0.20895 0.27165 0.86343 0.0
O397 O 0.19471 0.25994 0.8363 0.0
O398 O 0.19893 0.30535 0.8095 0.0
O399 O 0.24103 0.29368 0.81898 0.0
C400 C 0.24786 0.34413 0.85315 0.0
O401 O 0.1687 0.33462 0.83304 0.0
O402 O 0.16968 0.31537 0.85996 0.0
In403 In 0.44529 0.46489 0.59287 0.0
O404 O 0.44902 0.45712 0.5617 0.0
O405 O 0.47724 0.48807 0.57402 0.0
C406 C 0.40397 0.42585 0.60031 0.0
C407 C 0.49029 0.44054 0.61091 0.0
C408 C 0.41429 0.51321 0.59947 0.0
O409 O 0.41457 0.42893 0.5842 0.0
O410 O 0.41413 0.44265 0.61258 0.0
O411 O 0.43402 0.50497 0.61048 0.0
O412 O 0.41085 0.49739 0.58536 0.0
C413 C 0.46902 0.47539 0.5594 0.0
O414 O 0.48551 0.46752 0.61166 0.0
O415 O 0.47249 0.42634 0.60128 0.0
H416 H 0.09169 0.38481 0.36118 0.0
H417 H 0.2024 0.25824 0.38878 0.0
H418 H 0.12383 0.37433 0.4172 0.0
H419 H 0.15118 0.25981 0.33854 0.0
H420 H 0.17873 0.30357 0.39872 0.0
H421 H 0.11866 0.34187 0.35179 0.0
C422 C 0.10449 0.37346 0.37152 0.0
C423 C 0.10539 0.38302 0.39002 0.0
C424 C 0.17279 0.2939 0.38553 0.0
C425 C 0.13642 0.33372 0.37935 0.0
C426 C 0.1863 0.26817 0.37985 0.0
C427 C 0.17862 0.25526 0.36287 0.0
C428 C 0.15181 0.30679 0.37399 0.0
C429 C 0.15765 0.26892 0.35179 0.0
C430 C 0.11986 0.3489 0.36615 0.0
C431 C 0.12245 0.36754 0.4028 0.0
N432 N 0.14505 0.2939 0.35753 0.0
N433 N 0.13733 0.34356 0.39723 0.0
H434 H 0.97976 0.96043 0.63929 0.0
H435 H 0.84461 0.86326 0.60933 0.0
H436 H 0.97764 0.90597 0.59046 0.0
H437 H 0.85894 0.88788 0.66657 0.0
H438 H 0.88935 0.88773 0.60064 0.0
H439 H 0.93181 0.94169 0.64823 0.0
C440 C 0.9692 0.9446 0.63048 0.0
C441 C 0.98266 0.93456 0.61419 0.0
C442 C 0.88265 0.88793 0.61509 0.0
C443 C 0.92809 0.91363 0.62407 0.0
C444 C 0.85704 0.87409 0.62005 0.0
C445 C 0.84823 0.87334 0.63872 0.0
C446 C 0.89954 0.90128 0.62887 0.0
C447 C 0.86513 0.88784 0.65203 0.0
C448 C 0.94196 0.93395 0.63557 0.0
C449 C 0.96813 0.91412 0.6032 0.0
N450 N 0.89014 0.90118 0.64685 0.0
N451 N 0.9416 0.90443 0.60831 0.0
H452 H 0.42731 0.61866 0.86596 0.0
H453 H 0.29417 0.72501 0.88443 0.0
H454 H 0.36916 0.60733 0.91244 0.0
H455 H 0.36649 0.74602 0.84883 0.0
H456 H 0.31986 0.68108 0.89453 0.0
H457 H 0.4037 0.66468 0.8588 0.0
C458 C 0.40959 0.62594 0.87469 0.0
C459 C 0.4001 0.6092 0.88978 0.0
C460 C 0.33014 0.69548 0.88463 0.0
C461 C 0.37285 0.66176 0.88163 0.0
C462 C 0.3155 0.72049 0.87887 0.0
C463 C 0.32819 0.73906 0.86573 0.0
C464 C 0.35743 0.68899 0.87701 0.0
C465 C 0.35586 0.73226 0.85895 0.0
C466 C 0.39617 0.65225 0.87064 0.0
C467 C 0.37712 0.61966 0.90068 0.0
N468 N 0.36943 0.70768 0.86456 0.0
N469 N 0.36409 0.64523 0.89631 0.0
H470 H 0.51166 0.03897 0.13593 0.0
H471 H 0.64188 0.14267 0.10501 0.0
H472 H 0.51304 0.08916 0.0852 0.0
H473 H 0.62995 0.11517 0.16195 0.0
H474 H 0.59832 0.11617 0.09629 0.0
H475 H 0.55849 0.06044 0.14465 0.0
C476 C 0.52186 0.05439 0.12663 0.0
C477 C 0.50846 0.06247 0.10989 0.0
C478 C 0.60525 0.11583 0.11069 0.0
C479 C 0.56175 0.08668 0.1196 0.0
C480 C 0.63018 0.13087 0.11566 0.0
C481 C 0.63937 0.13127 0.13425 0.0
C482 C 0.58943 0.10094 0.12438 0.0
C483 C 0.62344 0.11552 0.14747 0.0
C484 C 0.54846 0.06663 0.13161 0.0
C485 C 0.52251 0.08248 0.09831 0.0
N486 N 0.59911 0.10101 0.14229 0.0
N487 N 0.54838 0.09384 0.10336 0.0
H488 H 0.19843 0.72456 0.10783 0.0
H489 H 0.08011 0.60452 0.13196 0.0
H490 H 0.13175 0.73531 0.1494 0.0
H491 H 0.12294 0.60669 0.07855 0.0
H492 H 0.10425 0.64959 0.14039 0.0
H493 H 0.17565 0.6787 0.09827 0.0
C494 C 0.17898 0.71733 0.11487 0.0
C495 C 0.16692 0.73369 0.12941 0.0
C496 C 0.1084 0.64024 0.12682 0.0
C497 C 0.14121 0.68145 0.11881 0.0
C498 C 0.09474 0.61443 0.12203 0.0
C499 C 0.09949 0.60194 0.10451 0.0
C500 C 0.1272 0.65359 0.11408 0.0
C501 C 0.11865 0.61573 0.09218 0.0
C502 C 0.16603 0.69126 0.10942 0.0
C503 C 0.14175 0.72341 0.1381 0.0
N504 N 0.13192 0.64088 0.09722 0.0
N505 N 0.12987 0.69789 0.13275 0.0
H506 H 0.48826 0.87468 0.35851 0.0
H507 H 0.65785 0.894 0.34274 0.0
H508 H 0.53161 0.95725 0.36269 0.0
H509 H 0.61168 0.81476 0.33106 0.0
H510 H 0.61156 0.91854 0.34803 0.0
H511 H 0.53269 0.85329 0.34621 0.0
C512 C 0.50707 0.88838 0.35662 0.0
C513 C 0.50636 0.91771 0.36175 0.0
C514 C 0.61154 0.89587 0.34411 0.0
C515 C 0.55743 0.89331 0.34791 0.0
C516 C 0.63795 0.88185 0.34111 0.0
C517 C 0.63857 0.85226 0.33661 0.0
C518 C 0.58561 0.88009 0.34275 0.0
C519 C 0.61218 0.83757 0.33461 0.0
C520 C 0.53245 0.87617 0.3496 0.0
C521 C 0.53129 0.93451 0.35894 0.0
N522 N 0.58679 0.85157 0.33787 0.0
N523 N 0.55596 0.92198 0.35242 0.0
H524 H 0.32903 0.28418 0.65836 0.0
H525 H 0.37774 0.38771 0.57647 0.0
H526 H 0.29791 0.2724 0.60225 0.0
H527 H 0.38314 0.41126 0.63452 0.0
H528 H 0.34783 0.34591 0.58503 0.0
H529 H 0.34872 0.33113 0.64953 0.0
C530 C 0.32624 0.29161 0.64416 0.0
C531 C 0.31209 0.27438 0.63095 0.0
C532 C 0.35524 0.36048 0.59584 0.0
C533 C 0.33479 0.32804 0.62067 0.0
C534 C 0.37234 0.38427 0.59098 0.0
C535 C 0.38316 0.40273 0.60485 0.0
C536 C 0.34932 0.35504 0.61469 0.0
C537 C 0.37542 0.39743 0.62341 0.0
C538 C 0.33736 0.31849 0.63915 0.0
C539 C 0.30878 0.28511 0.61281 0.0
N540 N 0.35927 0.37386 0.6278 0.0
N541 N 0.32046 0.31119 0.60809 0.0
H542 H 0.99552 0.10982 0.89474 0.0
H543 H 0.85895 0.11246 0.82641 0.0
H544 H 0.97777 0.04096 0.8557 0.0
H545 H 0.86821 0.16804 0.87437 0.0
H546 H 0.90474 0.08864 0.83457 0.0
H547 H 0.95136 0.13429 0.8849 0.0
C548 C 0.98235 0.09988 0.88402 0.0
C549 C 0.99025 0.07326 0.87605 0.0
C550 C 0.89671 0.10606 0.84327 0.0
C551 C 0.93954 0.10122 0.86473 0.0
C552 C 0.87067 0.11969 0.83861 0.0
C553 C 0.8598 0.14219 0.84977 0.0
C554 C 0.91204 0.11524 0.85909 0.0
C555 C 0.87577 0.15072 0.86542 0.0
C556 C 0.95708 0.11384 0.87845 0.0
C557 C 0.97238 0.06143 0.86222 0.0
N558 N 0.9011 0.13726 0.86959 0.0
N559 N 0.94778 0.07551 0.85697 0.0
H560 H 0.86617 0.61602 0.58315 0.0
H561 H 0.84778 0.74023 0.6597 0.0
H562 H 0.90541 0.6138 0.63765 0.0
H563 H 0.79276 0.73506 0.61126 0.0
H564 H 0.87098 0.6951 0.65053 0.0
H565 H 0.84059 0.66068 0.59195 0.0
C566 C 0.86934 0.62489 0.59696 0.0
C567 C 0.88796 0.61128 0.60969 0.0
C568 C 0.85379 0.7037 0.64189 0.0
C569 C 0.85904 0.66217 0.61976 0.0
C570 C 0.84057 0.72955 0.64709 0.0
C571 C 0.81832 0.74138 0.63621 0.0
C572 C 0.8449 0.68955 0.62557 0.0
C573 C 0.80984 0.72659 0.62004 0.0
C574 C 0.85472 0.6503 0.60197 0.0
C575 C 0.89128 0.62359 0.6274 0.0
N576 N 0.82325 0.7014 0.61514 0.0
N577 N 0.87707 0.64837 0.63186 0.0
H578 H 0.13567 0.10878 0.33039 0.0
H579 H 0.01727 0.09036 0.4096 0.0
H580 H 0.14916 0.13411 0.38758 0.0
H581 H 0.01531 0.03853 0.35959 0.0
H582 H 0.06456 0.10891 0.40056 0.0
H583 H 0.09077 0.0843 0.3397 0.0
C584 C 0.12934 0.10892 0.34491 0.0
C585 C 0.14601 0.12361 0.35823 0.0
C586 C 0.05391 0.09337 0.39158 0.0
C587 C 0.09477 0.09613 0.36886 0.0
C588 C 0.02683 0.0829 0.39668 0.0
C589 C 0.01237 0.06297 0.38528 0.0
C590 C 0.06655 0.08418 0.37482 0.0
C591 C 0.02582 0.0539 0.36875 0.0
C592 C 0.10378 0.09496 0.3502 0.0
C593 C 0.13691 0.12312 0.37685 0.0
N594 N 0.05216 0.06478 0.3639 0.0
N595 N 0.11175 0.10988 0.38157 0.0
H596 H 0.60862 0.40393 0.13807 0.0
H597 H 0.70061 0.26605 0.10501 0.0
H598 H 0.62768 0.38736 0.0802 0.0
H599 H 0.65637 0.27278 0.15777 0.0
H600 H 0.68194 0.31432 0.09656 0.0
H601 H 0.63501 0.36005 0.14651 0.0
C602 C 0.61864 0.39121 0.12715 0.0
C603 C 0.61571 0.39909 0.1084 0.0
C604 C 0.67648 0.30516 0.10999 0.0
C605 C 0.64581 0.34872 0.11795 0.0
C606 C 0.68711 0.27773 0.11481 0.0
C607 C 0.67978 0.2654 0.13203 0.0
C608 C 0.65886 0.32033 0.12264 0.0
C609 C 0.66231 0.28138 0.14427 0.0
C610 C 0.6336 0.36609 0.13196 0.0
C611 C 0.62928 0.38188 0.09482 0.0
N612 N 0.65248 0.30799 0.13935 0.0
N613 N 0.64363 0.35731 0.09985 0.0
H614 H 0.48075 0.94704 0.84954 0.0
H615 H 0.32827 0.88202 0.88109 0.0
H616 H 0.44989 0.94382 0.9062 0.0
H617 H 0.36082 0.8761 0.82489 0.0
H618 H 0.36868 0.9136 0.88906 0.0
H619 H 0.43327 0.92974 0.83891 0.0
C620 C 0.46383 0.94316 0.85968 0.0
C621 C 0.46927 0.94641 0.87877 0.0
C622 C 0.36687 0.90569 0.87492 0.0
C623 C 0.41526 0.9267 0.86682 0.0
C624 C 0.34377 0.88768 0.87036 0.0
C625 C 0.34149 0.87611 0.85239 0.0
C626 C 0.38804 0.91196 0.86145 0.0
C627 C 0.36198 0.88439 0.83897 0.0
C628 C 0.43682 0.93323 0.85364 0.0
C629 C 0.44669 0.94117 0.89137 0.0
N630 N 0.38469 0.90152 0.84384 0.0
N631 N 0.42079 0.93135 0.88518 0.0
H632 H 0.85622 0.40811 0.85716 0.0
H633 H 0.79151 0.25453 0.88739 0.0
H634 H 0.85839 0.37615 0.91362 0.0
H635 H 0.79824 0.28471 0.83068 0.0
H636 H 0.80792 0.30224 0.89821 0.0
H637 H 0.82665 0.36661 0.84828 0.0
C638 C 0.85017 0.3925 0.86774 0.0
C639 C 0.86007 0.39531 0.88609 0.0
C640 C 0.80545 0.29848 0.88342 0.0
C641 C 0.82649 0.34755 0.87599 0.0
C642 C 0.79603 0.27133 0.87725 0.0
C643 C 0.79391 0.26563 0.85813 0.0
C644 C 0.81264 0.31997 0.87032 0.0
C645 C 0.79995 0.2881 0.84556 0.0
C646 C 0.83331 0.36877 0.86266 0.0
C647 C 0.85137 0.37462 0.89928 0.0
N648 N 0.80925 0.31417 0.85187 0.0
N649 N 0.83535 0.35135 0.89392 0.0
H650 H 0.35513 0.15839 0.60261 0.0
H651 H 0.48204 0.04757 0.62829 0.0
H652 H 0.36402 0.12209 0.65771 0.0
H653 H 0.48434 0.10629 0.58151 0.0
H654 H 0.43611 0.06974 0.63823 0.0
H655 H 0.39949 0.13374 0.59327 0.0
C656 C 0.36636 0.14507 0.61273 0.0
C657 C 0.35599 0.14237 0.63098 0.0
C658 C 0.44679 0.07774 0.62583 0.0
C659 C 0.40689 0.11412 0.62039 0.0
C660 C 0.47292 0.06513 0.62016 0.0
C661 C 0.48698 0.07518 0.60409 0.0
C662 C 0.43463 0.10021 0.61518 0.0
C663 C 0.47428 0.09793 0.59402 0.0
C664 C 0.39176 0.1311 0.60741 0.0
C665 C 0.3714 0.12479 0.64351 0.0
N666 N 0.44879 0.10956 0.59969 0.0
N667 N 0.39617 0.11129 0.63798 0.0
H668 H 0.7198 0.70195 0.34314 0.0
H669 H 0.6116 0.63019 0.41663 0.0
H670 H 0.6772 0.7499 0.3869 0.0
H671 H 0.64476 0.58646 0.36796 0.0
H672 H 0.64273 0.67168 0.40958 0.0
H673 H 0.70004 0.65707 0.35588 0.0
C674 C 0.70661 0.70298 0.3556 0.0
C675 C 0.69978 0.72968 0.36385 0.0
C676 C 0.64342 0.65287 0.40057 0.0
C677 C 0.67689 0.67845 0.37839 0.0
C678 C 0.62571 0.62918 0.4046 0.0
C679 C 0.62538 0.60505 0.39271 0.0
C680 C 0.66091 0.65234 0.38457 0.0
C681 C 0.64415 0.60478 0.37737 0.0
C682 C 0.69527 0.67735 0.36284 0.0
C683 C 0.68278 0.72975 0.38004 0.0
N684 N 0.66098 0.62819 0.37365 0.0
N685 N 0.67161 0.70452 0.38667 0.0
H686 H 0.15962 0.88726 0.1182 0.0
H687 H -0.00178 0.92773 0.14426 0.0
H688 H 0.12083 0.86205 0.17041 0.0
H689 H 0.04671 0.97165 0.10133 0.0
H690 H 0.04323 0.90551 0.15536 0.0
H691 H 0.11894 0.91999 0.1126 0.0
C692 C 0.14263 0.88883 0.12856 0.0
C693 C 0.1434 0.87179 0.1447 0.0
C694 C 0.04406 0.92041 0.14371 0.0
C695 C 0.09665 0.90893 0.13834 0.0
C696 C 0.0184 0.93311 0.1374 0.0
C697 C 0.01872 0.95125 0.12173 0.0
C698 C 0.07005 0.92564 0.1341 0.0
C699 C 0.04544 0.95757 0.11337 0.0
C700 C 0.11946 0.90759 0.1254 0.0
C701 C 0.12095 0.87477 0.15774 0.0
N702 N 0.06997 0.94443 0.11947 0.0
N703 N 0.09824 0.89269 0.15415 0.0
H704 H 0.69388 0.76153 0.88454 0.0
H705 H 0.56673 0.87341 0.86209 0.0
H706 H 0.6263 0.74552 0.84436 0.0
H707 H 0.61823 0.87909 0.91207 0.0
H708 H 0.59047 0.82761 0.85452 0.0
H709 H 0.66841 0.80579 0.89427 0.0
C710 C 0.67364 0.76724 0.87786 0.0
C711 C 0.6622 0.74993 0.8636 0.0
C712 C 0.59651 0.83877 0.8672 0.0
C713 C 0.63325 0.80039 0.87448 0.0
C714 C 0.58302 0.86496 0.87149 0.0
C715 C 0.59057 0.88002 0.88771 0.0
C716 C 0.61796 0.8277 0.87911 0.0
C717 C 0.61177 0.86808 0.89943 0.0
C718 C 0.65913 0.79243 0.88342 0.0
C719 C 0.63592 0.75826 0.8554 0.0
N720 N 0.62491 0.84265 0.89484 0.0
N721 N 0.62245 0.78298 0.86086 0.0
H722 H 0.47856 0.39925 0.08986 0.0
H723 H 0.3551 0.38115 0.16593 0.0
H724 H 0.47464 0.45546 0.13784 0.0
H725 H 0.34771 0.35146 0.10915 0.0
H726 H 0.39998 0.40665 0.15753 0.0
H727 H 0.43213 0.37864 0.09854 0.0
C728 C 0.46792 0.40723 0.1023 0.0
C729 C 0.48047 0.42908 0.11318 0.0
C730 C 0.3883 0.39476 0.14693 0.0
C731 C 0.42708 0.40548 0.12323 0.0
C732 C 0.36278 0.38022 0.15169 0.0
C733 C 0.34782 0.36405 0.13822 0.0
C734 C 0.39896 0.39269 0.12867 0.0
C735 C 0.3586 0.36356 0.11999 0.0
C736 C 0.44128 0.39555 0.10718 0.0
C737 C 0.46562 0.43864 0.12909 0.0
N738 N 0.38362 0.37743 0.1158 0.0
N739 N 0.43966 0.42662 0.13374 0.0
H740 H 0.88747 0.09497 0.35772 0.0
H741 H 0.78663 0.22847 0.38722 0.0
H742 H 0.8628 0.1105 0.41483 0.0
H743 H 0.83506 0.2235 0.33592 0.0
H744 H 0.80739 0.18149 0.39662 0.0
H745 H 0.86054 0.13804 0.3484 0.0
C746 C 0.87619 0.10736 0.36829 0.0
C747 C 0.87758 0.09935 0.38709 0.0
C748 C 0.81333 0.19076 0.3833 0.0
C749 C 0.84678 0.14879 0.37653 0.0
C750 C 0.80149 0.21744 0.37794 0.0
C751 C 0.80934 0.22989 0.36085 0.0
C752 C 0.83271 0.17645 0.37132 0.0
C753 C 0.82862 0.21479 0.34929 0.0
C754 C 0.8609 0.132 0.36297 0.0
C755 C 0.86241 0.1161 0.40019 0.0
N756 N 0.83959 0.18889 0.35473 0.0
N757 N 0.84769 0.1402 0.39467 0.0
H758 H 0.14519 0.65556 0.60685 0.0
H759 H 0.01552 0.55296 0.64066 0.0
H760 H 0.13822 0.62372 0.66319 0.0
H761 H 0.02406 0.58833 0.58529 0.0
H762 H 0.06148 0.57624 0.64922 0.0
H763 H 0.10168 0.62877 0.59868 0.0
C764 C 0.13447 0.64289 0.61751 0.0
C765 C 0.14524 0.64193 0.63573 0.0
C766 C 0.05329 0.57875 0.63519 0.0
C767 C 0.09526 0.61111 0.62649 0.0
C768 C 0.02715 0.56544 0.63031 0.0
C769 C 0.01596 0.56887 0.61229 0.0
C770 C 0.06818 0.59547 0.6219 0.0
C771 C 0.03181 0.58524 0.59938 0.0
C772 C 0.1096 0.62754 0.61285 0.0
C773 C 0.13053 0.62507 0.64898 0.0
N774 N 0.05701 0.59796 0.60446 0.0
N775 N 0.10618 0.61033 0.64411 0.0
H776 H 0.64652 0.08369 0.6102 0.0
H777 H 0.67325 0.24985 0.5898 0.0
H778 H 0.6073 0.12763 0.56354 0.0
H779 H 0.72814 0.19861 0.62564 0.0
H780 H 0.65133 0.20513 0.57804 0.0
H781 H 0.67866 0.12508 0.61468 0.0
C782 C 0.64487 0.10199 0.6008 0.0
C783 C 0.62409 0.10242 0.5866 0.0
C784 C 0.66856 0.20367 0.58821 0.0
C785 C 0.66058 0.15 0.59172 0.0
C786 C 0.68114 0.22918 0.59488 0.0
C787 C 0.70225 0.22791 0.60889 0.0
C788 C 0.67697 0.17685 0.5958 0.0
C789 C 0.7117 0.20059 0.61498 0.0
C790 C 0.66329 0.12558 0.6033 0.0
C791 C 0.62298 0.12655 0.57471 0.0
N792 N 0.69866 0.17617 0.60862 0.0
N793 N 0.6407 0.14961 0.5777 0.0
H794 H 0.12187 0.32052 0.87855 0.0
H795 H 0.00769 0.44575 0.85608 0.0
H796 H 0.12691 0.37267 0.82875 0.0
H797 H 0.99286 0.3774 0.89603 0.0
H798 H 0.05267 0.42145 0.84655 0.0
H799 H 0.07578 0.34356 0.88617 0.0
C800 C 0.11323 0.33683 0.86921 0.0
C801 C 0.12817 0.34473 0.85301 0.0
C802 C 0.03942 0.41175 0.85731 0.0
C803 C 0.07551 0.3713 0.86166 0.0
C804 C 0.01382 0.42559 0.86275 0.0
C805 C 0.99662 0.41358 0.87688 0.0
C806 C 0.04788 0.38597 0.86624 0.0
C807 C 0.00549 0.38744 0.88509 0.0
C808 C 0.08688 0.34991 0.87353 0.0
C809 C 0.11599 0.36594 0.84137 0.0
N810 N 0.03058 0.37463 0.87973 0.0
N811 N 0.09038 0.37865 0.84598 0.0
H812 H 0.93246 0.86503 0.08825 0.0
H813 H 0.77936 0.79008 0.10869 0.0
H814 H 0.85342 0.9136 0.09595 0.0
H815 H 0.86188 0.74684 0.11383 0.0
H816 H 0.80463 0.8341 0.09837 0.0
H817 H 0.90522 0.82006 0.09192 0.0
C818 C 0.90931 0.86621 0.09057 0.0
C819 C 0.8952 0.89305 0.09199 0.0
C820 C 0.81712 0.81485 0.1016 0.0
C821 C 0.86389 0.84169 0.09624 0.0
C822 C 0.80273 0.78975 0.10739 0.0
C823 C 0.81862 0.76495 0.11225 0.0
C824 C 0.84751 0.81491 0.10052 0.0
C825 C 0.84883 0.76561 0.11038 0.0
C826 C 0.89378 0.84054 0.09269 0.0
C827 C 0.86515 0.89332 0.09491 0.0
N828 N 0.86229 0.79022 0.10474 0.0
N829 N 0.85047 0.86799 0.09705 0.0
H830 H 0.46729 0.53478 0.37015 0.0
H831 H 0.38388 0.67973 0.34033 0.0
H832 H 0.50628 0.61974 0.37182 0.0
H833 H 0.34035 0.60137 0.35747 0.0
H834 H 0.43055 0.6558 0.34569 0.0
H835 H 0.42211 0.55682 0.35915 0.0
C836 C 0.46644 0.55801 0.36796 0.0
C837 C 0.4904 0.57553 0.37202 0.0
C838 C 0.41076 0.64383 0.34816 0.0
C839 C 0.43903 0.60077 0.35947 0.0
C840 C 0.38417 0.65743 0.34507 0.0
C841 C 0.3583 0.64254 0.34862 0.0
C842 C 0.41138 0.61509 0.35463 0.0
C843 C 0.35984 0.61368 0.35472 0.0
C844 C 0.44066 0.57056 0.36178 0.0
C845 C 0.48818 0.60551 0.36898 0.0
N846 N 0.38596 0.60088 0.35756 0.0
N847 N 0.46289 0.61722 0.36293 0.0
H848 H 0.35882 0.10688 0.07939 0.0
H849 H 0.33792 0.22522 0.15878 0.0
H850 H 0.38668 0.09533 0.13626 0.0
H851 H 0.2872 0.22689 0.10835 0.0
H852 H 0.35768 0.17841 0.14968 0.0
H853 H 0.33337 0.15138 0.0887 0.0
C854 C 0.35934 0.11356 0.09384 0.0
C855 C 0.37501 0.09754 0.10707 0.0
C856 C 0.34212 0.18886 0.14061 0.0
C857 C 0.34636 0.1483 0.1177 0.0
C858 C 0.33094 0.21569 0.14576 0.0
C859 C 0.31098 0.22996 0.13426 0.0
C860 C 0.33361 0.17625 0.1237 0.0
C861 C 0.30257 0.21653 0.11759 0.0
C862 C 0.34483 0.13889 0.09913 0.0
C863 C 0.37498 0.10708 0.12559 0.0
N864 N 0.31412 0.19043 0.1127 0.0
N865 N 0.36112 0.13195 0.13031 0.0
H866 H 0.54106 0.53942 0.90652 0.0
H867 H 0.62872 0.61279 0.82344 0.0
H868 H 0.50819 0.54509 0.85042 0.0
H869 H 0.65907 0.60711 0.88013 0.0
H870 H 0.58798 0.58123 0.83157 0.0
H871 H 0.58782 0.55692 0.89565 0.0
C872 C 0.54383 0.54405 0.89184 0.0
C873 C 0.52068 0.54121 0.87937 0.0
C874 C 0.60378 0.58658 0.84215 0.0
C875 C 0.57407 0.5617 0.86683 0.0
C876 C 0.62704 0.60455 0.83752 0.0
C877 C 0.64702 0.61286 0.85121 0.0
C878 C 0.60058 0.57697 0.8606 0.0
C879 C 0.64395 0.60151 0.8692 0.0
C880 C 0.57055 0.55406 0.88562 0.0
C881 C 0.52551 0.54718 0.86048 0.0
N882 N 0.621 0.58439 0.87341 0.0
N883 N 0.55161 0.55759 0.8548 0.0
H884 H 0.20323 0.76662 0.60346 0.0
H885 H 0.1161 0.90671 0.63835 0.0
H886 H 0.17956 0.78324 0.6606 0.0
H887 H 0.12838 0.88622 0.58026 0.0
H888 H 0.14534 0.86465 0.64671 0.0
H889 H 0.18173 0.81339 0.59464 0.0
C890 C 0.19377 0.78023 0.61415 0.0
C891 C 0.19293 0.77102 0.63275 0.0
C892 C 0.14181 0.86939 0.63211 0.0
C893 C 0.16844 0.82425 0.62283 0.0
C894 C 0.12513 0.89343 0.62734 0.0
C895 C 0.11962 0.89977 0.60859 0.0
C896 C 0.15303 0.85144 0.61804 0.0
C897 C 0.13201 0.88195 0.59489 0.0
C898 C 0.18147 0.80683 0.60912 0.0
C899 C 0.18046 0.78941 0.64607 0.0
N900 N 0.14801 0.85842 0.59989 0.0
N901 N 0.16862 0.81506 0.64084 0.0
H902 H 0.96416 0.41167 0.41368 0.0
H903 H 0.85988 0.37385 0.32884 0.0
H904 H 0.98014 0.44298 0.35799 0.0
H905 H 0.8389 0.35842 0.38656 0.0
H906 H 0.90337 0.40024 0.33869 0.0
H907 H 0.91771 0.39273 0.40356 0.0
C908 C 0.9578 0.41464 0.39928 0.0
C909 C 0.97606 0.42874 0.38661 0.0
C910 C 0.88906 0.3913 0.34917 0.0
C911 C 0.92279 0.40691 0.37484 0.0
C912 C 0.86429 0.37626 0.34357 0.0
C913 C 0.84594 0.36377 0.35692 0.0
C914 C 0.89549 0.39362 0.36822 0.0
C915 C 0.85256 0.36755 0.37579 0.0
C916 C 0.93119 0.40389 0.39351 0.0
C917 C 0.96664 0.43218 0.36817 0.0
N918 N 0.87689 0.38193 0.38086 0.0
N919 N 0.94067 0.42106 0.36276 0.0
H920 H 0.31989 0.73949 0.39534 0.0
H921 H 0.34762 0.90615 0.37194 0.0
H922 H 0.27283 0.78784 0.35372 0.0
H923 H 0.39567 0.85849 0.41342 0.0
H924 H 0.31478 0.86502 0.36869 0.0
H925 H 0.34213 0.78471 0.406 0.0
C926 C 0.31378 0.7597 0.38871 0.0
C927 C 0.29483 0.75992 0.37347 0.0
C928 C 0.33231 0.86362 0.37865 0.0
C929 C 0.3204 0.81154 0.38537 0.0
C930 C 0.35108 0.8871 0.38049 0.0
C931 C 0.37459 0.88553 0.39278 0.0
C932 C 0.33722 0.83829 0.38908 0.0
C933 C 0.37793 0.86046 0.40365 0.0
C934 C 0.32658 0.78548 0.39474 0.0
C935 C 0.28761 0.78667 0.36539 0.0
N936 N 0.35965 0.83766 0.40138 0.0
N937 N 0.30069 0.81134 0.37128 0.0
H938 H 0.95978 0.57182 0.07631 0.0
H939 H 0.85382 0.62321 0.15647 0.0
H940 H 0.97011 0.54294 0.13306 0.0
H941 H 0.83314 0.62883 0.09799 0.0
H942 H 0.89557 0.59259 0.14876 0.0
H943 H 0.91269 0.59201 0.08432 0.0
C944 C 0.952 0.56962 0.09048 0.0
C945 C 0.96889 0.55594 0.1041 0.0
C946 C 0.88163 0.60019 0.13766 0.0
C947 C 0.91502 0.57926 0.11345 0.0
C948 C 0.85784 0.61767 0.14204 0.0
C949 C 0.84022 0.6288 0.12781 0.0
C950 C 0.88791 0.59417 0.11893 0.0
C951 C 0.8463 0.6209 0.10938 0.0
C952 C 0.92504 0.58103 0.09503 0.0
C953 C 0.95769 0.55341 0.12218 0.0
N954 N 0.86983 0.60437 0.10546 0.0
N955 N 0.93153 0.56536 0.12643 0.0
H956 H 0.19086 0.20489 0.83086 0.0
H957 H 0.1304 0.10759 0.9138 0.0
H958 H 0.19447 0.23124 0.88844 0.0
H959 H 0.12922 0.08262 0.8559 0.0
H960 H 0.15996 0.1498 0.90565 0.0
H961 H 0.17464 0.15703 0.84056 0.0
C962 C 0.18847 0.20046 0.8456 0.0
C963 C 0.19362 0.2221 0.85888 0.0
C964 C 0.15355 0.13487 0.89478 0.0
C965 C 0.17468 0.16738 0.87011 0.0
C966 C 0.13673 0.11077 0.89942 0.0
C967 C 0.12707 0.09184 0.88545 0.0
C968 C 0.16063 0.14001 0.87605 0.0
C969 C 0.13595 0.09686 0.86707 0.0
C970 C 0.17922 0.1731 0.85114 0.0
C971 C 0.19054 0.21514 0.87778 0.0
N972 N 0.15197 0.12061 0.86289 0.0
N973 N 0.18084 0.18842 0.88285 0.0
H974 H 0.49545 0.38396 0.62063 0.0
H975 H 0.66571 0.38842 0.62912 0.0
H976 H 0.54249 0.46471 0.62032 0.0
H977 H 0.61485 0.31722 0.65029 0.0
H978 H 0.62126 0.41679 0.62521 0.0
H979 H 0.5391 0.35896 0.63117 0.0
C980 C 0.51496 0.39646 0.623 0.0
C981 C 0.51552 0.42637 0.61953 0.0
C982 C 0.61989 0.39508 0.6309 0.0
C983 C 0.56562 0.39787 0.63125 0.0
C984 C 0.64519 0.37884 0.63304 0.0
C985 C 0.64386 0.35037 0.63989 0.0
C986 C 0.59308 0.38256 0.63535 0.0
C987 C 0.61678 0.33906 0.64488 0.0
C988 C 0.53983 0.38221 0.62905 0.0
C989 C 0.54124 0.44161 0.62287 0.0
N990 N 0.5924 0.35506 0.6423 0.0
N991 N 0.56549 0.42708 0.62828 0.0
H992 H 0.22275 0.25028 0.19402 0.0
H993 H 0.2674 0.2408 0.30148 0.0
H994 H 0.28955 0.30288 0.21895 0.0
H995 H 0.20119 0.18765 0.27638 0.0
H996 H 0.27571 0.264 0.27138 0.0
H997 H 0.21387 0.22774 0.22425 0.0
C998 C 0.23542 0.2572 0.2059 0.0
C999 C 0.25693 0.27844 0.20402 0.0
C1000 C 0.2594 0.24723 0.27244 0.0
C1001 C 0.24706 0.25263 0.23858 0.0
C1002 C 0.2547 0.23393 0.2896 0.0
C1003 C 0.23359 0.21228 0.29138 0.0
C1004 C 0.24283 0.23882 0.25697 0.0
C1005 C 0.21771 0.20424 0.27558 0.0
C1006 C 0.23041 0.24427 0.22314 0.0
C1007 C 0.27276 0.28658 0.21982 0.0
N1008 N 0.22263 0.21756 0.25902 0.0
N1009 N 0.26755 0.27359 0.23645 0.0
H1010 H 0.05443 0.95268 0.52789 0.0
H1011 H 0.93733 0.04387 0.47012 0.0
H1012 H -0.00033 0.01851 0.55219 0.0
H1013 H 0.99108 0.97695 0.44614 0.0
H1014 H 0.95959 0.03464 0.50042 0.0
H1015 H 0.03162 0.96148 0.49772 0.0
C1016 C 0.03768 0.96908 0.52684 0.0
C1017 C 0.0289 0.98491 0.54251 0.0
C1018 C 0.96645 0.02191 0.48854 0.0
C1019 C 0.00262 0.99497 0.50814 0.0
C1020 C 0.9537 0.02712 0.47127 0.0
C1021 C 0.96242 0.01115 0.45564 0.0
C1022 C 0.9881 0.00062 0.49015 0.0
C1023 C 0.98374 0.98975 0.45786 0.0
C1024 C 0.02462 0.97404 0.50964 0.0
C1025 C 0.00709 0.00584 0.54042 0.0
N1026 N 0.99592 0.98516 0.4748 0.0
N1027 N 0.99465 0.01025 0.52354 0.0
H1028 H 0.20735 0.68395 0.7166 0.0
H1029 H 0.30285 0.79368 0.77634 0.0
H1030 H 0.28385 0.72674 0.69572 0.0
H1031 H 0.23679 0.7394 0.80064 0.0
H1032 H 0.2959 0.76913 0.74661 0.0
H1033 H 0.21792 0.70301 0.74767 0.0
C1034 C 0.22656 0.69704 0.71862 0.0
C1035 C 0.24466 0.70398 0.70359 0.0
C1036 C 0.28298 0.76247 0.75845 0.0
C1037 C 0.25664 0.72608 0.73889 0.0
C1038 C 0.28685 0.77659 0.77539 0.0
C1039 C 0.27026 0.76862 0.7909 0.0
C1040 C 0.2622 0.74038 0.75696 0.0
C1041 C 0.24996 0.74623 0.78896 0.0
C1042 C 0.23255 0.70795 0.73632 0.0
C1043 C 0.26925 0.72099 0.70692 0.0
N1044 N 0.24636 0.73296 0.77224 0.0
N1045 N 0.27437 0.73169 0.72419 0.0
H1046 H 0.48544 0.96981 0.04962 0.0
H1047 H 0.51396 0.02568 0.94582 0.0
H1048 H 0.44416 0.04536 0.02601 0.0
H1049 H 0.54231 0.9422 0.96606 0.0
H1050 H 0.49223 0.03558 0.97619 0.0
H1051 H 0.50961 0.9611 0.01987 0.0
C1052 C 0.48135 0.98447 0.03813 0.0
C1053 C 0.46273 0.00829 0.04022 0.0
C1054 C 0.50332 0.01515 0.97401 0.0
C1055 C 0.49051 -0.00133 0.00627 0.0
C1056 C 0.51587 0.00957 0.95673 0.0
C1057 C 0.52985 0.98305 0.95345 0.0
C1058 C 0.50486 0.99409 0.9881 0.0
C1059 C 0.53166 0.9629 0.96803 0.0
C1060 C 0.49519 0.97953 0.02118 0.0
C1061 C 0.45827 0.02667 0.02494 0.0
N1062 N 0.5192 0.96881 0.98473 0.0
N1063 N 0.47215 0.02152 0.0086 0.0
H1064 H 0.29574 0.68987 0.27678 0.0
H1065 H 0.19698 0.79856 0.2181 0.0
H1066 H 0.21778 0.72966 0.298 0.0
H1067 H 0.26011 0.74223 0.1924 0.0
H1068 H 0.20702 0.77583 0.24808 0.0
H1069 H 0.28526 0.71052 0.24605 0.0
C1070 C 0.27634 0.70277 0.27492 0.0
C1071 C 0.25761 0.70815 0.28991 0.0
C1072 C 0.21866 0.76839 0.23589 0.0
C1073 C 0.24573 0.732 0.25504 0.0
C1074 C 0.21305 0.78145 0.2188 0.0
C1075 C 0.22776 0.77223 0.20279 0.0
C1076 C 0.23932 0.74609 0.23702 0.0
C1077 C 0.24829 0.74993 0.20445 0.0
C1078 C 0.27039 0.71454 0.25742 0.0
C1079 C 0.2328 0.72499 0.28681 0.0
N1080 N 0.25356 0.73763 0.22131 0.0
N1081 N 0.22768 0.73649 0.26974 0.0
H1082 H 0.51561 0.98194 0.43361 0.0
H1083 H 0.49263 0.98588 0.54402 0.0
H1084 H 0.43851 0.95076 0.46103 0.0
H1085 H 0.56734 0.02155 0.51612 0.0
H1086 H 0.47381 0.96985 0.51393 0.0
H1087 H 0.53636 0.9936 0.46395 0.0
C1088 C 0.50311 0.97746 0.44604 0.0
C1089 C 0.47528 0.96551 0.44485 0.0
C1090 C 0.49437 0.9811 0.5144 0.0
C1091 C 0.4988 0.97883 0.47958 0.0
C1092 C 0.50512 0.99022 0.53155 0.0
C1093 C 0.5315 0.00516 0.5325 0.0
C1094 C 0.51015 0.98696 0.49811 0.0
C1095 C 0.54685 0.01019 0.51598 0.0
C1096 C 0.51494 0.98413 0.46335 0.0
C1097 C 0.46002 0.96005 0.46136 0.0
N1098 N 0.5359 0.00117 0.49943 0.0
N1099 N 0.47196 0.96685 0.47807 0.0
H1100 H 0.19126 0.30021 0.77381 0.0
H1101 H 0.30124 0.20448 0.7136 0.0
H1102 H 0.27422 0.27079 0.79408 0.0
H1103 H 0.22382 0.24348 0.69103 0.0
H1104 H 0.29097 0.22751 0.74353 0.0
H1105 H 0.20257 0.27943 0.74336 0.0
C1106 C 0.21198 0.28964 0.77178 0.0
C1107 C 0.23182 0.28712 0.78645 0.0
C1108 C 0.27622 0.23102 0.73204 0.0
C1109 C 0.24473 0.26299 0.75182 0.0
C1110 C 0.28198 0.21775 0.715 0.0
C1111 C 0.26331 0.22208 0.69987 0.0
C1112 C 0.25155 0.24863 0.73395 0.0
C1113 C 0.23875 0.23957 0.70238 0.0
C1114 C 0.21839 0.2777 0.75443 0.0
C1115 C 0.25832 0.27319 0.78312 0.0
N1116 N 0.23357 0.25221 0.71911 0.0
N1117 N 0.26393 0.26145 0.76617 0.0
H1118 H -0.00143 0.97991 0.9392 0.0
H1119 H -0.00093 0.02329 0.04695 0.0
H1120 H 0.05784 0.04152 0.96348 0.0
H1121 H 0.94954 0.95166 0.02508 0.0
H1122 H 0.01856 0.03215 0.01592 0.0
H1123 H 0.97826 0.9708 0.97014 0.0
C1124 C 0.00732 0.99147 0.95105 0.0
C1125 C 0.0299 0.01148 0.94883 0.0
C1126 C 0.00343 0.01449 0.01788 0.0
C1127 C 0.00676 0.00132 0.98412 0.0
C1128 C 0.99223 0.00947 0.03558 0.0
C1129 C 0.9727 0.9867 0.03854 0.0
C1130 C 0.99494 0.99667 0.00301 0.0
C1131 C 0.96459 0.96944 0.02335 0.0
C1132 C 0.99575 0.98625 0.96868 0.0
C1133 C 0.04047 0.02588 0.9646 0.0
N1134 N 0.97576 0.9748 0.00619 0.0
N1135 N 0.02875 0.02057 0.98158 0.0
H1136 H 0.7844 0.81523 0.7214 0.0
H1137 H 0.69925 0.68843 0.7742 0.0
H1138 H 0.72588 0.75585 0.69425 0.0
H1139 H 0.7532 0.75101 0.80229 0.0
H1140 H 0.70907 0.71284 0.7447 0.0
H1141 H 0.77316 0.79231 0.75126 0.0
C1142 C 0.76906 0.79749 0.72176 0.0
C1143 C 0.75607 0.78735 0.70537 0.0
C1144 C 0.71876 0.72126 0.75731 0.0
C1145 C 0.74328 0.76096 0.73935 0.0
C1146 C 0.71322 0.70729 0.77413 0.0
C1147 C 0.72548 0.71772 0.79066 0.0
C1148 C 0.73675 0.74581 0.75702 0.0
C1149 C 0.74335 0.74226 0.78982 0.0
C1150 C 0.76269 0.78439 0.73878 0.0
C1151 C 0.73638 0.76431 0.70657 0.0
N1152 N 0.74848 0.75548 0.77326 0.0
N1153 N 0.73067 0.75181 0.72327 0.0
H1154 H 0.76627 0.24039 0.19242 0.0
H1155 H 0.72121 0.25045 0.29978 0.0
H1156 H 0.69572 0.19192 0.21658 0.0
H1157 H 0.78996 0.30083 0.27509 0.0
H1158 H 0.71168 0.22847 0.26946 0.0
H1159 H 0.77592 0.26201 0.2228 0.0
C1160 C 0.75291 0.23419 0.20416 0.0
C1161 C 0.73016 0.21438 0.20203 0.0
C1162 C 0.72881 0.24438 0.27066 0.0
C1163 C 0.74093 0.23912 0.23676 0.0
C1164 C 0.7342 0.25697 0.28794 0.0
C1165 C 0.75639 0.27746 0.28989 0.0
C1166 C 0.74577 0.25232 0.25526 0.0
C1167 C 0.77262 0.28512 0.27415 0.0
C1168 C 0.75837 0.2466 0.22148 0.0
C1169 C 0.71349 0.20712 0.21766 0.0
N1170 N 0.76702 0.27248 0.25748 0.0
N1171 N 0.71918 0.21955 0.23439 0.0
H1172 H 0.80365 0.19282 0.77209 0.0
H1173 H 0.68756 0.26783 0.70476 0.0
H1174 H 0.71503 0.20939 0.788 0.0
H1175 H 0.77702 0.25324 0.69004 0.0
H1176 H 0.69623 0.24402 0.73471 0.0
H1177 H 0.79317 0.2117 0.74107 0.0
C1178 C 0.7819 0.20018 0.76898 0.0
C1179 C 0.7602 0.19971 0.78262 0.0
C1180 C 0.71394 0.246 0.72491 0.0
C1181 C 0.7481 0.22161 0.74725 0.0
C1182 C 0.70901 0.25964 0.70786 0.0
C1183 C 0.73165 0.26261 0.69499 0.0
C1184 C 0.74169 0.23528 0.72907 0.0
C1185 C 0.75899 0.25151 0.69962 0.0
C1186 C 0.77594 0.21105 0.75129 0.0
C1187 C 0.73239 0.20947 0.77787 0.0
N1188 N 0.76326 0.23838 0.7163 0.0
N1189 N 0.72717 0.22022 0.76058 0.0
H1190 H 0.77569 0.75725 0.2892 0.0
H1191 H 0.73271 0.75987 0.18132 0.0
H1192 H 0.70213 0.80424 0.26758 0.0
H1193 H 0.79962 0.70511 0.2043 0.0
H1194 H 0.72352 0.77941 0.21241 0.0
H1195 H 0.78712 0.74094 0.25772 0.0
C1196 C 0.76199 0.76421 0.2778 0.0
C1197 C 0.73787 0.78201 0.28097 0.0
C1198 C 0.74025 0.76317 0.21064 0.0
C1199 C 0.75079 0.76344 0.24494 0.0
C1200 C 0.74553 0.75205 0.19291 0.0
C1201 C 0.76688 0.73078 0.1903 0.0
C1202 C 0.75649 0.75297 0.22582 0.0
C1203 C 0.78289 0.72142 0.20575 0.0
C1204 C 0.76851 0.75487 0.25984 0.0
C1205 C 0.72089 0.79044 0.26572 0.0
N1206 N 0.77733 0.73256 0.22287 0.0
N1207 N 0.72765 0.78102 0.24833 0.0
H1208 H 0.49802 0.5204 0.05158 0.0
H1209 H 0.47177 0.46294 0.94797 0.0
H1210 H 0.54086 0.44531 0.02851 0.0
H1211 H 0.44542 0.54787 0.9668 0.0
H1212 H 0.49187 0.45316 0.97881 0.0
H1213 H 0.47396 0.52829 0.0217 0.0
C1214 C 0.5024 0.50562 0.0402 0.0
C1215 C 0.52153 0.48225 0.04244 0.0
C1216 C 0.48156 0.47387 0.97621 0.0
C1217 C 0.49392 0.49095 0.00837 0.0
C1218 C 0.46993 0.4794 0.95867 0.0
C1219 C 0.45707 0.5063 0.95486 0.0
C1220 C 0.48016 0.49536 0.99003 0.0
C1221 C 0.45528 0.52688 0.96918 0.0
C1222 C 0.48865 0.51011 0.02317 0.0
C1223 C 0.52638 0.46369 0.0273 0.0
N1224 N 0.46682 0.52101 0.98615 0.0
N1225 N 0.5126 0.46841 0.01089 0.0
H1226 H 0.00824 0.52017 0.44796 0.0
H1227 H 0.97913 0.47007 0.55292 0.0
H1228 H 0.04421 0.44237 0.47213 0.0
H1229 H 0.94278 0.54768 0.52873 0.0
H1230 H 0.00198 0.45882 0.52314 0.0
H1231 H 0.984 0.5306 0.47742 0.0
C1232 C 0.01123 0.50541 0.45954 0.0
C1233 C 0.02828 0.48039 0.45765 0.0
C1234 C 0.98888 0.47823 0.5243 0.0
C1235 C 0.00035 0.492 0.49131 0.0
C1236 C 0.97572 0.48459 0.54127 0.0
C1237 C 0.95911 0.50988 0.54327 0.0
C1238 C 0.98549 0.49735 0.50924 0.0
C1239 C 0.95541 0.52795 0.52776 0.0
C1240 C -0.00273 0.51129 0.47632 0.0
C1241 C 0.03132 0.46194 0.47304 0.0
N1242 N 0.96865 0.52141 0.51139 0.0
N1243 N 0.01741 0.46809 0.48923 0.0
H1244 H 0.05102 0.53543 0.02193 0.0
H1245 H 0.93317 0.44369 0.96564 0.0
H1246 H -0.00202 0.46879 0.04676 0.0
H1247 H 0.99258 0.50344 0.93959 0.0
H1248 H 0.95649 0.4529 -0.00441 0.0
H1249 H 0.03015 0.52391 0.99155 0.0
C1250 C 0.03514 0.51823 0.02095 0.0
C1251 C 0.02613 0.50308 0.03685 0.0
C1252 C 0.96447 0.46396 0.98332 0.0
C1253 C 0.002 0.48997 0.00226 0.0
C1254 C 0.9511 0.45879 0.96625 0.0
C1255 C 0.96095 0.4729 0.95017 0.0
C1256 C 0.98775 0.48348 0.9843 0.0
C1257 C 0.98431 0.49216 0.95169 0.0
C1258 C 0.02321 0.51169 0.00363 0.0
C1259 C 0.0055 0.48101 0.03483 0.0
N1260 N -0.00311 0.49694 0.96848 0.0
N1261 N 0.994 0.47523 0.01785 0.0
H1262 H 0.49481 0.49526 0.44115 0.0
H1263 H 0.51344 0.51224 0.55127 0.0
H1264 H 0.56376 0.54426 0.46668 0.0
H1265 H 0.45161 0.4546 0.52565 0.0
H1266 H 0.53152 0.52523 0.5204 0.0
H1267 H 0.47761 0.48143 0.47206 0.0
C1268 C 0.50627 0.50316 0.45328 0.0
C1269 C 0.53071 0.52093 0.45141 0.0
C1270 C 0.51407 0.50966 0.52153 0.0
C1271 C 0.51124 0.50518 0.48676 0.0
C1272 C 0.50376 0.50224 0.53913 0.0
C1273 C 0.481 0.48236 0.54096 0.0
C1274 C 0.50139 0.49722 0.50567 0.0
C1275 C 0.46922 0.47003 0.52482 0.0
C1276 C 0.49651 0.4952 0.47091 0.0
C1277 C 0.54481 0.53052 0.46755 0.0
N1278 N 0.47949 0.47775 0.50782 0.0
N1279 N 0.53484 0.52254 0.48457 0.0
H1280 H 0.28858 0.10938 0.32771 0.0
H1281 H 0.38886 0.04156 0.40652 0.0
H1282 H 0.29387 0.14483 0.38319 0.0
H1283 H 0.39321 0.01665 0.34867 0.0
H1284 H 0.35621 0.08125 0.39814 0.0
H1285 H 0.32875 0.07697 0.3349 0.0
C1286 C 0.29835 0.11044 0.3414 0.0
C1287 C 0.28776 0.1296 0.35495 0.0
C1288 C 0.36455 0.06731 0.38725 0.0
C1289 C 0.33368 0.09238 0.36334 0.0
C1290 C 0.38317 0.04465 0.39202 0.0
C1291 C 0.3935 0.02566 0.37827 0.0
C1292 C 0.35602 0.07081 0.36863 0.0
C1293 C 0.38559 0.0307 0.35971 0.0
C1294 C 0.32136 0.09198 0.34548 0.0
C1295 C 0.30136 0.13027 0.37239 0.0
N1296 N 0.36707 0.05262 0.35546 0.0
N1297 N 0.32347 0.11165 0.37617 0.0
H1298 H 0.09757 0.03819 0.63847 0.0
H1299 H 0.21037 0.15838 0.60416 0.0
H1300 H 0.12307 0.04825 0.58102 0.0
H1301 H 0.20907 0.12354 0.65993 0.0
H1302 H 0.17025 0.12597 0.59589 0.0
H1303 H 0.13035 0.07782 0.64692 0.0
C1304 C 0.1098 0.04899 0.62763 0.0
C1305 C 0.10792 0.03982 0.60907 0.0
C1306 C 0.17867 0.12564 0.60996 0.0
C1307 C 0.14514 0.085 0.61858 0.0
C1308 C 0.20144 0.14412 0.61468 0.0
C1309 C 0.21315 0.14332 0.63268 0.0
C1310 C 0.16738 0.10668 0.62343 0.0
C1311 C 0.20084 0.12454 0.64583 0.0
C1312 C 0.12853 0.07146 0.63246 0.0
C1313 C 0.12417 0.05451 0.59553 0.0
N1314 N 0.17862 0.10691 0.64094 0.0
N1315 N 0.14221 0.07636 0.60056 0.0
H1316 H 0.207 0.83655 0.88458 0.0
H1317 H 0.09308 0.95691 0.85149 0.0
H1318 H 0.19809 0.86512 0.82765 0.0
H1319 H 0.11826 0.94325 0.90868 0.0
H1320 H 0.12363 0.91581 0.84232 0.0
H1321 H 0.16646 0.86798 0.8933 0.0
C1322 C 0.19624 0.84913 0.87388 0.0
C1323 C 0.20609 0.84857 0.85543 0.0
C1324 C 0.12219 0.92165 0.85689 0.0
C1325 C 0.1599 0.88452 0.86527 0.0
C1326 C 0.10473 0.94501 0.86213 0.0
C1327 C 0.10349 0.95364 0.88082 0.0
C1328 C 0.13829 0.9068 0.87049 0.0
C1329 C 0.11891 0.93748 0.89407 0.0
C1330 C 0.17319 0.86712 0.87887 0.0
C1331 C 0.19134 0.86519 0.84209 0.0
N1332 N 0.13583 0.91494 0.88864 0.0
N1333 N 0.1691 0.88269 0.8473 0.0
H1334 H 0.27342 0.84393 0.10476 0.0
H1335 H 0.3994 0.95308 0.13537 0.0
H1336 H 0.2937 0.86345 0.16205 0.0
H1337 H 0.36088 0.95218 0.08064 0.0
H1338 H 0.36756 0.91299 0.14449 0.0
H1339 H 0.31253 0.87627 0.09487 0.0
C1340 C 0.28634 0.85475 0.11525 0.0
C1341 C 0.28019 0.8513 0.13423 0.0
C1342 C 0.36627 0.92147 0.13045 0.0
C1343 C 0.3248 0.8882 0.12305 0.0
C1344 C 0.38444 0.94425 0.12524 0.0
C1345 C 0.3825 0.95609 0.1073 0.0
C1346 C 0.34629 0.91035 0.11756 0.0
C1347 C 0.36283 0.94385 0.09468 0.0
C1348 C 0.30855 0.87326 0.1096 0.0
C1349 C 0.29759 0.86576 0.14725 0.0
N1350 N 0.34541 0.9217 0.10007 0.0
N1351 N 0.31905 0.88371 0.14142 0.0
H1352 H 0.70401 0.84389 0.6093 0.0
H1353 H 0.59766 0.97589 0.63345 0.0
H1354 H 0.70339 0.88857 0.66209 0.0
H1355 H 0.61569 0.94695 0.5775 0.0
H1356 H 0.629 0.93728 0.64542 0.0
H1357 H 0.66427 0.87506 0.59872 0.0
C1358 C 0.69531 0.86006 0.61871 0.0
C1359 C 0.70715 0.86394 0.6365 0.0
C1360 C 0.62587 0.93925 0.63054 0.0
C1361 C 0.66183 0.89945 0.62457 0.0
C1362 C 0.60794 0.96119 0.62372 0.0
C1363 C 0.6044 0.96476 0.60447 0.0
C1364 C 0.64013 0.92071 0.618 0.0
C1365 C 0.61813 0.94511 0.59244 0.0
C1366 C 0.67271 0.87785 0.61267 0.0
C1367 C 0.69506 0.88511 0.64818 0.0
N1368 N 0.63553 0.92399 0.5994 0.0
N1369 N 0.67313 0.90217 0.64198 0.0
H1370 H 0.8632 0.95481 0.4136 0.0
H1371 H 0.8002 0.8682 0.32725 0.0
H1372 H 0.90273 0.9567 0.35916 0.0
H1373 H 0.77655 0.84877 0.38403 0.0
H1374 H 0.83804 0.90059 0.33864 0.0
H1375 H 0.83145 0.91572 0.40318 0.0
C1376 C 0.86531 0.94682 0.39948 0.0
C1377 C 0.88541 0.95909 0.38716 0.0
C1378 C 0.82476 0.88905 0.34862 0.0
C1379 C 0.84906 0.91463 0.37511 0.0
C1380 C 0.8031 0.87066 0.34214 0.0
C1381 C 0.78513 0.85602 0.35475 0.0
C1382 C 0.8282 0.89312 0.36786 0.0
C1383 C 0.78991 0.85978 0.37386 0.0
C1384 C 0.84726 0.92447 0.39356 0.0
C1385 C 0.88743 0.94786 0.36907 0.0
N1386 N 0.81083 0.87824 0.37986 0.0
N1387 N 0.86921 0.92644 0.36351 0.0
H1388 H 0.78143 0.11213 0.1622 0.0
H1389 H 0.88535 0.0556 0.08181 0.0
H1390 H 0.78798 0.15408 0.10865 0.0
H1391 H 0.89298 0.02793 0.139 0.0
H1392 H 0.85013 0.09223 0.09135 0.0
H1393 H 0.8225 0.08131 0.15402 0.0
C1394 C 0.79162 0.11491 0.14873 0.0
C1395 C 0.78121 0.1355 0.136 0.0
C1396 C 0.8597 0.07836 0.10185 0.0
C1397 C 0.82811 0.10024 0.12653 0.0
C1398 C 0.87975 0.05741 0.09641 0.0
C1399 C 0.89188 0.03861 0.10964 0.0
C1400 C 0.85145 0.08025 0.12062 0.0
C1401 C 0.88404 0.04197 0.12837 0.0
C1402 C 0.81513 0.09739 0.1441 0.0
C1403 C 0.79531 0.13837 0.11882 0.0
N1404 N 0.86405 0.06221 0.13329 0.0
N1405 N 0.81792 0.12071 0.1145 0.0
H1406 H 0.64939 0.9934 0.88784 0.0
H1407 H 0.68322 0.1572 0.85929 0.0
H1408 H 0.58175 0.05499 0.87518 0.0
H1409 H 0.74565 0.08766 0.85597 0.0
H1410 H 0.64607 0.12182 0.86835 0.0
H1411 H 0.68547 0.02954 0.87928 0.0
C1412 C 0.64214 0.01457 0.88322 0.0
C1413 C 0.61258 0.02125 0.88216 0.0
C1414 C 0.66792 0.1144 0.86563 0.0
C1415 C 0.65377 0.0628 0.87247 0.0
C1416 C 0.68911 0.13454 0.86057 0.0
C1417 C 0.71747 0.12526 0.85689 0.0
C1418 C 0.67538 0.08496 0.8672 0.0
C1419 C 0.72401 0.0957 0.85865 0.0
C1420 C 0.66275 0.03518 0.87831 0.0
C1421 C 0.60438 0.04899 0.8761 0.0
N1422 N 0.70314 0.07662 0.86372 0.0
N1423 N 0.62492 0.06888 0.87154 0.0
H1424 H 0.79428 0.62508 0.82853 0.0
H1425 H 0.86744 0.54136 0.91255 0.0
H1426 H 0.77917 0.64742 0.88606 0.0
H1427 H 0.89619 0.53254 0.85566 0.0
H1428 H 0.83745 0.58257 0.90335 0.0
H1429 H 0.83411 0.59363 0.83817 0.0
C1430 C 0.79959 0.6236 0.84319 0.0
C1431 C 0.78325 0.63857 0.85655 0.0
C1432 C 0.85058 0.57189 0.89291 0.0
C1433 C 0.82854 0.6024 0.86771 0.0
C1434 C 0.86765 0.54831 0.89814 0.0
C1435 C 0.88402 0.53336 0.88478 0.0
C1436 C 0.84958 0.5803 0.87413 0.0
C1437 C 0.88372 0.54339 0.86636 0.0
C1438 C 0.82236 0.60569 0.84868 0.0
C1439 C 0.79116 0.6361 0.87533 0.0
N1440 N 0.86642 0.56603 0.86151 0.0
N1441 N 0.81302 0.61798 0.88038 0.0
H1442 H 0.69418 0.63942 0.15517 0.0
H1443 H 0.6191 0.54458 0.07698 0.0
H1444 H 0.70644 0.65472 0.09643 0.0
H1445 H 0.59116 0.54359 0.1343 0.0
H1446 H 0.64976 0.5863 0.08372 0.0
H1447 H 0.65482 0.60596 0.1479 0.0
C1448 C 0.68834 0.63597 0.14074 0.0
C1449 C 0.70373 0.64959 0.12635 0.0
C1450 C 0.63671 0.57719 0.0948 0.0
C1451 C 0.65898 0.61114 0.11793 0.0
C1452 C 0.61929 0.5533 0.09098 0.0
C1453 C 0.60283 0.54049 0.10517 0.0
C1454 C 0.63802 0.58811 0.11301 0.0
C1455 C 0.60365 0.55279 0.123 0.0
C1456 C 0.66584 0.61691 0.1366 0.0
C1457 C 0.69519 0.64454 0.10792 0.0
N1458 N 0.62129 0.57574 0.12649 0.0
N1459 N 0.67361 0.62539 0.10422 0.0
H1460 H 0.7028 0.37867 0.32819 0.0
H1461 H 0.61465 0.45135 0.41079 0.0
H1462 H 0.70181 0.34377 0.38393 0.0
H1463 H 0.60115 0.47302 0.35299 0.0
H1464 H 0.64518 0.41067 0.40125 0.0
H1465 H 0.6642 0.41221 0.33684 0.0
C1466 C 0.69426 0.37795 0.34223 0.0
C1467 C 0.70563 0.35865 0.35544 0.0
C1468 C 0.63529 0.42412 0.39064 0.0
C1469 C 0.66165 0.39711 0.36549 0.0
C1470 C 0.61794 0.44737 0.39608 0.0
C1471 C 0.60563 0.46569 0.38264 0.0
C1472 C 0.64064 0.41939 0.37165 0.0
C1473 C 0.61038 0.45949 0.36379 0.0
C1474 C 0.67218 0.39704 0.34715 0.0
C1475 C 0.69367 0.35842 0.37338 0.0
N1476 N 0.62781 0.43703 0.35884 0.0
N1477 N 0.67252 0.37766 0.37796 0.0
H1478 H 0.84686 0.49846 0.62098 0.0
H1479 H 0.81089 0.33235 0.6156 0.0
H1480 H 0.91577 0.43663 0.61252 0.0
H1481 H 0.76658 0.38949 0.65376 0.0
H1482 H 0.84762 0.37023 0.61058 0.0
H1483 H 0.81444 0.45871 0.62945 0.0
C1484 C 0.85516 0.47647 0.62104 0.0
C1485 C 0.88393 0.47067 0.61613 0.0
C1486 C 0.82995 0.37421 0.62017 0.0
C1487 C 0.84694 0.42523 0.62535 0.0
C1488 C 0.80899 0.35278 0.62294 0.0
C1489 C 0.7857 0.35794 0.63504 0.0
C1490 C 0.82703 0.40102 0.62923 0.0
C1491 C 0.78421 0.38466 0.64431 0.0
C1492 C 0.83673 0.45387 0.6259 0.0
C1493 C 0.89371 0.44186 0.61638 0.0
N1494 N 0.80439 0.40536 0.64103 0.0
N1495 N 0.87507 0.42001 0.62067 0.0
H1496 H 0.08645 0.45828 0.13568 0.0
H1497 H 0.20831 0.34378 0.10611 0.0
H1498 H 0.12207 0.45282 0.08024 0.0
H1499 H 0.1975 0.37426 0.16249 0.0
H1500 H 0.16881 0.37587 0.09627 0.0
H1501 H 0.11957 0.41953 0.14557 0.0
C1502 C 0.10103 0.44872 0.12558 0.0
C1503 C 0.10181 0.45886 0.10719 0.0
C1504 C 0.17499 0.37532 0.11081 0.0
C1505 C 0.13928 0.41463 0.11828 0.0
C1506 C 0.19741 0.35699 0.11643 0.0
C1507 C 0.20628 0.35666 0.13508 0.0
C1508 C 0.16119 0.39307 0.12401 0.0
C1509 C 0.19146 0.37414 0.14792 0.0
C1510 C 0.11992 0.42674 0.13122 0.0
C1511 C 0.12104 0.44579 0.09461 0.0
N1512 N 0.16963 0.39172 0.14214 0.0
N1513 N 0.13906 0.42434 0.10039 0.0
H1514 H 0.409 0.43207 0.87819 0.0
H1515 H 0.24269 0.40274 0.85467 0.0
H1516 H 0.34148 0.49621 0.88414 0.0
H1517 H 0.30362 0.33331 0.86433 0.0
H1518 H 0.2801 0.4378 0.86267 0.0
H1519 H 0.37211 0.39591 0.87005 0.0
C1520 C 0.38646 0.43855 0.87767 0.0
C1521 C 0.3782 0.4671 0.88183 0.0
C1522 C 0.28531 0.4149 0.86312 0.0
C1523 C 0.33617 0.42613 0.87259 0.0
C1524 C 0.26397 0.39488 0.85855 0.0
C1525 C 0.27012 0.36513 0.85889 0.0
C1526 C 0.31313 0.40514 0.86789 0.0
C1527 C 0.29803 0.35611 0.864 0.0
C1528 C 0.36546 0.41792 0.87314 0.0
C1529 C 0.34876 0.4744 0.88106 0.0
N1530 N 0.31864 0.3761 0.86822 0.0
N1531 N 0.32882 0.45406 0.87649 0.0
H1532 H 0.41929 0.55542 0.62639 0.0
H1533 H 0.25753 0.60511 0.61672 0.0
H1534 H 0.36496 0.52692 0.58107 0.0
H1535 H 0.32132 0.66599 0.63651 0.0
H1536 H 0.29647 0.57282 0.60665 0.0
H1537 H 0.38367 0.59371 0.63343 0.0
C1538 C 0.40006 0.55738 0.61786 0.0
C1539 C 0.39491 0.53793 0.60322 0.0
C1540 C 0.30196 0.59336 0.61305 0.0
C1541 C 0.35434 0.58097 0.6113 0.0
C1542 C 0.2798 0.61169 0.61883 0.0
C1543 C 0.28637 0.63815 0.62738 0.0
C1544 C 0.33086 0.6012 0.61628 0.0
C1545 C 0.31553 0.64577 0.62983 0.0
C1546 C 0.3799 0.57921 0.62182 0.0
C1547 C 0.36974 0.54139 0.59253 0.0
N1548 N 0.33686 0.62711 0.62453 0.0
N1549 N 0.3502 0.56222 0.59695 0.0
H1550 H 0.07873 0.55401 0.38288 0.0
H1551 H 0.23806 0.58893 0.34973 0.0
H1552 H 0.15027 0.49566 0.39259 0.0
H1553 H 0.18435 0.65723 0.37205 0.0
H1554 H 0.20189 0.55338 0.35941 0.0
H1555 H 0.11346 0.59166 0.37317 0.0
C1556 C 0.10168 0.54915 0.3829 0.0
C1557 C 0.11177 0.52181 0.38852 0.0
C1558 C 0.19804 0.57616 0.36217 0.0
C1559 C 0.15108 0.56416 0.37728 0.0
C1560 C 0.21855 0.59643 0.35661 0.0
C1561 C 0.21414 0.62596 0.3602 0.0
C1562 C 0.17266 0.58554 0.37103 0.0
C1563 C 0.18855 0.63457 0.36918 0.0
C1564 C 0.12137 0.57058 0.37749 0.0
C1565 C 0.14165 0.51652 0.38841 0.0
N1566 N 0.16853 0.61438 0.37421 0.0
N1567 N 0.16026 0.53742 0.38271 0.0
loop_
_geom_bond_atom_site_label_1
_geom_bond_atom_site_label_2
_geom_bond_distance
_geom_bond_site_symmetry_2
_ccdc_geom_bond_type
In0 O1 2.294 . S
In0 O2 2.326 . S
In0 O6 2.266 . S
In0 O7 2.326 . S
In0 O8 2.266 . S
In0 O9 2.326 . S
In0 O11 2.294 . S
In0 O12 2.326 . S
O1 In0 2.294 . S
O1 C10 1.240 . S
O2 In0 2.326 . S
O2 C10 1.252 . S
C3 O6 1.252 . S
C3 O7 1.260 . S
C4 O11 1.240 . S
C4 O12 1.252 . S
C5 O8 1.252 . S
C5 O9 1.260 . S
O6 In0 2.266 . S
O6 C3 1.252 . S
O7 In0 2.326 . S
O7 C3 1.260 . S
O8 In0 2.266 . S
O8 C5 1.252 . S
O9 In0 2.326 . S
O9 C5 1.260 . S
C10 O1 1.240 . S
C10 O2 1.252 . S
O11 In0 2.294 . S
O11 C4 1.240 . S
O12 In0 2.326 . S
O12 C4 1.252 . S
In13 O14 2.321 . S
In13 O15 2.326 . S
In13 O19 2.266 . S
In13 O20 2.326 . S
In13 O21 2.266 . S
In13 O22 2.326 . S
In13 O24 2.294 . S
In13 O25 2.326 . S
O14 In13 2.321 . S
O14 C23 1.236 1_565 S
O15 In13 2.326 . S
O15 C23 1.252 1_565 S
C16 O19 1.252 . S
C16 O20 1.260 . S
C17 O24 1.240 . S
C17 O25 1.252 . S
C18 O21 1.252 . S
C18 O22 1.260 . S
O19 In13 2.266 . S
O19 C16 1.252 . S
O20 In13 2.326 . S
O20 C16 1.260 . S
O21 In13 2.266 . S
O21 C18 1.252 . S
O22 In13 2.326 . S
O22 C18 1.260 . S
C23 O14 1.236 1_545 S
C23 O15 1.252 1_545 S
O24 In13 2.294 . S
O24 C17 1.240 . S
O25 In13 2.326 . S
O25 C17 1.252 . S
In26 O27 2.294 . S
In26 O28 2.326 . S
In26 O32 2.266 . S
In26 O33 2.326 . S
In26 O34 2.266 . S
In26 O35 2.326 . S
In26 O37 2.294 . S
In26 O38 2.326 . S
O27 In26 2.294 . S
O27 C36 1.240 . S
O28 In26 2.326 . S
O28 C36 1.252 . S
C29 O32 1.252 . S
C29 O33 1.260 . S
C30 O37 1.240 . S
C30 O38 1.252 . S
C31 O34 1.252 . S
C31 O35 1.260 . S
O32 In26 2.266 . S
O32 C29 1.252 . S
O33 In26 2.326 . S
O33 C29 1.260 . S
O34 In26 2.266 . S
O34 C31 1.252 . S
O35 In26 2.326 . S
O35 C31 1.260 . S
C36 O27 1.240 . S
C36 O28 1.252 . S
O37 In26 2.294 . S
O37 C30 1.240 . S
O38 In26 2.326 . S
O38 C30 1.252 . S
In39 O40 2.321 . S
In39 O41 2.326 . S
In39 O45 2.266 . S
In39 O46 2.326 . S
In39 O47 2.266 . S
In39 O48 2.326 . S
In39 O50 2.294 . S
In39 O51 2.326 . S
O40 In39 2.321 . S
O40 C49 1.236 1_545 S
O41 In39 2.326 . S
O41 C49 1.252 1_545 S
C42 O45 1.252 . S
C42 O46 1.260 . S
C43 O50 1.240 . S
C43 O51 1.252 . S
C44 O47 1.252 . S
C44 O48 1.260 . S
O45 In39 2.266 . S
O45 C42 1.252 . S
O46 In39 2.326 . S
O46 C42 1.260 . S
O47 In39 2.266 . S
O47 C44 1.252 . S
O48 In39 2.326 . S
O48 C44 1.260 . S
C49 O40 1.236 1_565 S
C49 O41 1.252 1_565 S
O50 In39 2.294 . S
O50 C43 1.240 . S
O51 In39 2.326 . S
O51 C43 1.252 . S
In52 O53 2.294 . S
In52 O54 2.326 . S
In52 O58 2.266 . S
In52 O59 2.326 . S
In52 O60 2.266 . S
In52 O61 2.326 . S
In52 O63 2.294 . S
In52 O64 2.326 . S
O53 In52 2.294 . S
O53 C62 1.240 . S
O54 In52 2.326 . S
O54 C62 1.252 . S
C55 O58 1.252 . S
C55 O59 1.260 . S
C56 O63 1.240 . S
C56 O64 1.252 . S
C57 O60 1.252 . S
C57 O61 1.260 . S
O58 In52 2.266 . S
O58 C55 1.252 . S
O59 In52 2.326 . S
O59 C55 1.260 . S
O60 In52 2.266 . S
O60 C57 1.252 . S
O61 In52 2.326 . S
O61 C57 1.260 . S
C62 O53 1.240 . S
C62 O54 1.252 . S
O63 In52 2.294 . S
O63 C56 1.240 . S
O64 In52 2.326 . S
O64 C56 1.252 . S
In65 O66 2.321 . S
In65 O67 2.326 . S
In65 O71 2.266 . S
In65 O72 2.326 . S
In65 O73 2.266 . S
In65 O74 2.326 . S
In65 O76 2.294 . S
In65 O77 2.326 . S
O66 In65 2.321 . S
O66 C75 1.236 1_565 S
O67 In65 2.326 . S
O67 C75 1.252 1_565 S
C68 O71 1.252 . S
C68 O72 1.260 . S
C69 O76 1.240 . S
C69 O77 1.252 . S
C70 O73 1.252 . S
C70 O74 1.260 . S
O71 In65 2.266 . S
O71 C68 1.252 . S
O72 In65 2.326 . S
O72 C68 1.260 . S
O73 In65 2.266 . S
O73 C70 1.252 . S
O74 In65 2.326 . S
O74 C70 1.260 . S
C75 O66 1.236 1_545 S
C75 O67 1.252 1_545 S
O76 In65 2.294 . S
O76 C69 1.240 . S
O77 In65 2.326 . S
O77 C69 1.252 . S
In78 O79 2.294 . S
In78 O80 2.326 . S
In78 O84 2.266 . S
In78 O85 2.326 . S
In78 O86 2.266 . S
In78 O87 2.326 . S
In78 O89 2.294 . S
In78 O90 2.326 . S
O79 In78 2.294 . S
O79 C88 1.240 . S
O80 In78 2.326 . S
O80 C88 1.252 . S
C81 O84 1.252 . S
C81 O85 1.260 . S
C82 O89 1.240 . S
C82 O90 1.252 . S
C83 O86 1.252 . S
C83 O87 1.260 . S
O84 In78 2.266 . S
O84 C81 1.252 . S
O85 In78 2.326 . S
O85 C81 1.260 . S
O86 In78 2.266 . S
O86 C83 1.252 . S
O87 In78 2.326 . S
O87 C83 1.260 . S
C88 O79 1.240 . S
C88 O80 1.252 . S
O89 In78 2.294 . S
O89 C82 1.240 . S
O90 In78 2.326 . S
O90 C82 1.252 . S
In91 O92 2.294 . S
In91 O93 2.326 . S
In91 O97 2.266 . S
In91 O98 2.326 . S
In91 O99 2.266 . S
In91 O100 2.326 . S
In91 O102 2.321 . S
In91 O103 2.326 . S
O92 In91 2.294 . S
O92 C101 1.240 . S
O93 In91 2.326 . S
O93 C101 1.252 . S
C94 O97 1.252 . S
C94 O98 1.260 . S
C95 O102 1.236 1_565 S
C95 O103 1.252 1_565 S
C96 O99 1.252 . S
C96 O100 1.260 . S
O97 In91 2.266 . S
O97 C94 1.252 . S
O98 In91 2.326 . S
O98 C94 1.260 . S
O99 In91 2.266 . S
O99 C96 1.252 . S
O100 In91 2.326 . S
O100 C96 1.260 . S
C101 O92 1.240 . S
C101 O93 1.252 . S
O102 In91 2.321 . S
O102 C95 1.236 1_545 S
O103 In91 2.326 . S
O103 C95 1.252 1_545 S
In104 O105 2.294 . S
In104 O106 2.326 . S
In104 O110 2.266 . S
In104 O111 2.326 . S
In104 O112 2.266 . S
In104 O113 2.326 . S
In104 O115 2.294 . S
In104 O116 2.326 . S
O105 In104 2.294 . S
O105 C114 1.240 . S
O106 In104 2.326 . S
O106 C114 1.252 . S
C107 O110 1.252 . S
C107 O111 1.260 . S
C108 O115 1.240 . S
C108 O116 1.252 . S
C109 O112 1.252 . S
C109 O113 1.260 . S
O110 In104 2.266 . S
O110 C107 1.252 . S
O111 In104 2.326 . S
O111 C107 1.260 . S
O112 In104 2.266 . S
O112 C109 1.252 . S
O113 In104 2.326 . S
O113 C109 1.260 . S
C114 O105 1.240 . S
C114 O106 1.252 . S
O115 In104 2.294 . S
O115 C108 1.240 . S
O116 In104 2.326 . S
O116 C108 1.252 . S
In117 O118 2.294 . S
In117 O119 2.326 . S
In117 O123 2.266 . S
In117 O124 2.326 . S
In117 O125 2.266 . S
In117 O126 2.326 . S
In117 O128 2.294 . S
In117 O129 2.326 . S
O118 In117 2.294 . S
O118 C127 1.240 . S
O119 In117 2.326 . S
O119 C127 1.252 . S
C120 O123 1.252 1_565 S
C120 O124 1.260 1_565 S
C121 O128 1.240 . S
C121 O129 1.252 . S
C122 O125 1.252 . S
C122 O126 1.260 . S
O123 In117 2.266 . S
O123 C120 1.252 1_545 S
O124 In117 2.326 . S
O124 C120 1.260 1_545 S
O125 In117 2.266 . S
O125 C122 1.252 . S
O126 In117 2.326 . S
O126 C122 1.260 . S
C127 O118 1.240 . S
C127 O119 1.252 . S
O128 In117 2.294 . S
O128 C121 1.240 . S
O129 In117 2.326 . S
O129 C121 1.252 . S
In130 O131 2.294 . S
In130 O132 2.326 . S
In130 O136 2.266 . S
In130 O137 2.326 . S
In130 O138 2.266 . S
In130 O139 2.326 . S
In130 O141 2.294 . S
In130 O142 2.326 . S
O131 In130 2.294 . S
O131 C140 1.240 . S
O132 In130 2.326 . S
O132 C140 1.252 . S
C133 O136 1.252 . S
C133 O137 1.260 . S
C134 O141 1.240 . S
C134 O142 1.252 . S
C135 O138 1.252 . S
C135 O139 1.260 . S
O136 In130 2.266 . S
O136 C133 1.252 . S
O137 In130 2.326 . S
O137 C133 1.260 . S
O138 In130 2.266 . S
O138 C135 1.252 . S
O139 In130 2.326 . S
O139 C135 1.260 . S
C140 O131 1.240 . S
C140 O132 1.252 . S
O141 In130 2.294 . S
O141 C134 1.240 . S
O142 In130 2.326 . S
O142 C134 1.252 . S
In143 O144 2.294 . S
In143 O145 2.326 . S
In143 O149 2.266 . S
In143 O150 2.326 . S
In143 O151 2.266 . S
In143 O152 2.326 . S
In143 O154 2.294 . S
In143 O155 2.326 . S
O144 In143 2.294 . S
O144 C153 1.240 . S
O145 In143 2.326 . S
O145 C153 1.252 . S
C146 O149 1.252 1_545 S
C146 O150 1.260 1_545 S
C147 O154 1.240 . S
C147 O155 1.252 . S
C148 O151 1.252 . S
C148 O152 1.260 . S
O149 In143 2.266 . S
O149 C146 1.252 1_565 S
O150 In143 2.326 . S
O150 C146 1.260 1_565 S
O151 In143 2.266 . S
O151 C148 1.252 . S
O152 In143 2.326 . S
O152 C148 1.260 . S
C153 O144 1.240 . S
C153 O145 1.252 . S
O154 In143 2.294 . S
O154 C147 1.240 . S
O155 In143 2.326 . S
O155 C147 1.252 . S
In156 O157 2.294 . S
In156 O158 2.326 . S
In156 O162 2.266 . S
In156 O163 2.326 . S
In156 O164 2.266 . S
In156 O165 2.326 . S
In156 O167 2.294 . S
In156 O168 2.326 . S
O157 In156 2.294 . S
O157 C166 1.240 . S
O158 In156 2.326 . S
O158 C166 1.252 . S
C159 O162 1.252 . S
C159 O163 1.260 . S
C160 O167 1.240 . S
C160 O168 1.252 . S
C161 O164 1.252 . S
C161 O165 1.260 . S
O162 In156 2.266 . S
O162 C159 1.252 . S
O163 In156 2.326 . S
O163 C159 1.260 . S
O164 In156 2.266 . S
O164 C161 1.252 . S
O165 In156 2.326 . S
O165 C161 1.260 . S
C166 O157 1.240 . S
C166 O158 1.252 . S
O167 In156 2.294 . S
O167 C160 1.240 . S
O168 In156 2.326 . S
O168 C160 1.252 . S
In169 O170 2.294 . S
In169 O171 2.326 . S
In169 O175 2.266 . S
In169 O176 2.326 . S
In169 O177 2.266 . S
In169 O178 2.326 . S
In169 O180 2.294 . S
In169 O181 2.326 . S
O170 In169 2.294 . S
O170 C179 1.240 . S
O171 In169 2.326 . S
O171 C179 1.252 . S
C172 O175 1.252 . S
C172 O176 1.260 . S
C173 O180 1.240 . S
C173 O181 1.252 . S
C174 O177 1.252 1_565 S
C174 O178 1.260 1_565 S
O175 In169 2.266 . S
O175 C172 1.252 . S
O176 In169 2.326 . S
O176 C172 1.260 . S
O177 In169 2.266 . S
O177 C174 1.252 1_545 S
O178 In169 2.326 . S
O178 C174 1.260 1_545 S
C179 O170 1.240 . S
C179 O171 1.252 . S
O180 In169 2.294 . S
O180 C173 1.240 . S
O181 In169 2.326 . S
O181 C173 1.252 . S
In182 O183 2.294 . S
In182 O184 2.326 . S
In182 O188 2.266 . S
In182 O189 2.326 . S
In182 O190 2.266 . S
In182 O191 2.326 . S
In182 O193 2.294 . S
In182 O194 2.326 . S
O183 In182 2.294 . S
O183 C192 1.240 . S
O184 In182 2.326 . S
O184 C192 1.252 . S
C185 O188 1.252 . S
C185 O189 1.260 . S
C186 O193 1.240 . S
C186 O194 1.252 . S
C187 O190 1.252 . S
C187 O191 1.260 . S
O188 In182 2.266 . S
O188 C185 1.252 . S
O189 In182 2.326 . S
O189 C185 1.260 . S
O190 In182 2.266 . S
O190 C187 1.252 . S
O191 In182 2.326 . S
O191 C187 1.260 . S
C192 O183 1.240 . S
C192 O184 1.252 . S
O193 In182 2.294 . S
O193 C186 1.240 . S
O194 In182 2.326 . S
O194 C186 1.252 . S
In195 O196 2.294 . S
In195 O197 2.326 . S
In195 O201 2.266 . S
In195 O202 2.326 . S
In195 O203 2.266 . S
In195 O204 2.326 . S
In195 O206 2.294 . S
In195 O207 2.326 . S
O196 In195 2.294 . S
O196 C205 1.240 . S
O197 In195 2.326 . S
O197 C205 1.252 . S
C198 O201 1.252 . S
C198 O202 1.260 . S
C199 O206 1.240 . S
C199 O207 1.252 . S
C200 O203 1.252 1_545 S
C200 O204 1.260 1_545 S
O201 In195 2.266 . S
O201 C198 1.252 . S
O202 In195 2.326 . S
O202 C198 1.260 . S
O203 In195 2.266 . S
O203 C200 1.252 1_565 S
O204 In195 2.326 . S
O204 C200 1.260 1_565 S
C205 O196 1.240 . S
C205 O197 1.252 . S
O206 In195 2.294 . S
O206 C199 1.240 . S
O207 In195 2.326 . S
O207 C199 1.252 . S
In208 O209 2.294 . S
In208 O210 2.326 . S
In208 O214 2.266 . S
In208 O215 2.326 . S
In208 O216 2.266 . S
In208 O217 2.326 . S
In208 O219 2.294 . S
In208 O220 2.326 . S
O209 In208 2.294 . S
O209 C218 1.240 . S
O210 In208 2.326 . S
O210 C218 1.252 . S
C211 O214 1.252 . S
C211 O215 1.260 . S
C212 O219 1.240 . S
C212 O220 1.252 . S
C213 O216 1.252 . S
C213 O217 1.260 . S
O214 In208 2.266 . S
O214 C211 1.252 . S
O215 In208 2.326 . S
O215 C211 1.260 . S
O216 In208 2.266 . S
O216 C213 1.252 . S
O217 In208 2.326 . S
O217 C213 1.260 . S
C218 O209 1.240 . S
C218 O210 1.252 . S
O219 In208 2.294 . S
O219 C212 1.240 . S
O220 In208 2.326 . S
O220 C212 1.252 . S
In221 O222 2.294 . S
In221 O223 2.326 . S
In221 O227 2.266 . S
In221 O228 2.326 . S
In221 O229 2.266 . S
In221 O230 2.326 . S
In221 O232 2.294 . S
In221 O233 2.326 . S
O222 In221 2.294 . S
O222 C231 1.240 . S
O223 In221 2.326 . S
O223 C231 1.252 . S
C224 O227 1.252 . S
C224 O228 1.260 . S
C225 O232 1.240 . S
C225 O233 1.252 . S
C226 O229 1.252 . S
C226 O230 1.260 . S
O227 In221 2.266 . S
O227 C224 1.252 . S
O228 In221 2.326 . S
O228 C224 1.260 . S
O229 In221 2.266 . S
O229 C226 1.252 . S
O230 In221 2.326 . S
O230 C226 1.260 . S
C231 O222 1.240 . S
C231 O223 1.252 . S
O232 In221 2.294 . S
O232 C225 1.240 . S
O233 In221 2.326 . S
O233 C225 1.252 . S
In234 O235 2.294 . S
In234 O236 2.326 . S
In234 O240 2.266 . S
In234 O241 2.326 . S
In234 O242 2.266 . S
In234 O243 2.326 . S
In234 O245 2.294 . S
In234 O246 2.326 . S
O235 In234 2.294 . S
O235 C244 1.240 . S
O236 In234 2.326 . S
O236 C244 1.252 . S
C237 O240 1.252 . S
C237 O241 1.260 . S
C238 O245 1.240 . S
C238 O246 1.252 . S
C239 O242 1.252 . S
C239 O243 1.260 . S
O240 In234 2.266 . S
O240 C237 1.252 . S
O241 In234 2.326 . S
O241 C237 1.260 . S
O242 In234 2.266 . S
O242 C239 1.252 . S
O243 In234 2.326 . S
O243 C239 1.260 . S
C244 O235 1.240 . S
C244 O236 1.252 . S
O245 In234 2.294 . S
O245 C238 1.240 . S
O246 In234 2.326 . S
O246 C238 1.252 . S
In247 O248 2.294 . S
In247 O249 2.326 . S
In247 O253 2.266 . S
In247 O254 2.326 . S
In247 O255 2.266 . S
In247 O256 2.326 . S
In247 O258 2.294 . S
In247 O259 2.326 . S
O248 In247 2.294 . S
O248 C257 1.240 . S
O249 In247 2.326 . S
O249 C257 1.252 . S
C250 O253 1.252 . S
C250 O254 1.260 . S
C251 O258 1.240 . S
C251 O259 1.252 . S
C252 O255 1.252 . S
C252 O256 1.260 . S
O253 In247 2.266 . S
O253 C250 1.252 . S
O254 In247 2.326 . S
O254 C250 1.260 . S
O255 In247 2.266 . S
O255 C252 1.252 . S
O256 In247 2.326 . S
O256 C252 1.260 . S
C257 O248 1.240 . S
C257 O249 1.252 . S
O258 In247 2.294 . S
O258 C251 1.240 . S
O259 In247 2.326 . S
O259 C251 1.252 . S
In260 O261 2.294 . S
In260 O262 2.326 . S
In260 O266 2.266 . S
In260 O267 2.326 . S
In260 O268 2.266 . S
In260 O269 2.326 . S
In260 O271 2.294 . S
In260 O272 2.326 . S
O261 In260 2.294 . S
O261 C270 1.240 . S
O262 In260 2.326 . S
O262 C270 1.252 . S
C263 O266 1.252 . S
C263 O267 1.260 . S
C264 O271 1.240 . S
C264 O272 1.252 . S
C265 O268 1.252 . S
C265 O269 1.260 . S
O266 In260 2.266 . S
O266 C263 1.252 . S
O267 In260 2.326 . S
O267 C263 1.260 . S
O268 In260 2.266 . S
O268 C265 1.252 . S
O269 In260 2.326 . S
O269 C265 1.260 . S
C270 O261 1.240 . S
C270 O262 1.252 . S
O271 In260 2.294 . S
O271 C264 1.240 . S
O272 In260 2.326 . S
O272 C264 1.252 . S
In273 O274 2.294 . S
In273 O275 2.326 . S
In273 O279 2.266 . S
In273 O280 2.326 . S
In273 O281 2.266 . S
In273 O282 2.326 . S
In273 O284 2.294 . S
In273 O285 2.326 . S
O274 In273 2.294 . S
O274 C283 1.240 . S
O275 In273 2.326 . S
O275 C283 1.252 . S
C276 O279 1.252 . S
C276 O280 1.260 . S
C277 O284 1.240 . S
C277 O285 1.252 . S
C278 O281 1.252 . S
C278 O282 1.260 . S
O279 In273 2.266 . S
O279 C276 1.252 . S
O280 In273 2.326 . S
O280 C276 1.260 . S
O281 In273 2.266 . S
O281 C278 1.252 . S
O282 In273 2.326 . S
O282 C278 1.260 . S
C283 O274 1.240 . S
C283 O275 1.252 . S
O284 In273 2.294 . S
O284 C277 1.240 . S
O285 In273 2.326 . S
O285 C277 1.252 . S
In286 O287 2.294 . S
In286 O288 2.326 . S
In286 O292 2.266 . S
In286 O293 2.326 . S
In286 O294 2.266 . S
In286 O295 2.326 . S
In286 O297 2.294 . S
In286 O298 2.326 . S
O287 In286 2.294 . S
O287 C296 1.240 . S
O288 In286 2.326 . S
O288 C296 1.252 . S
C289 O292 1.252 . S
C289 O293 1.260 . S
C290 O297 1.240 . S
C290 O298 1.252 . S
C291 O294 1.252 . S
C291 O295 1.260 . S
O292 In286 2.266 . S
O292 C289 1.252 . S
O293 In286 2.326 . S
O293 C289 1.260 . S
O294 In286 2.266 . S
O294 C291 1.252 . S
O295 In286 2.326 . S
O295 C291 1.260 . S
C296 O287 1.240 . S
C296 O288 1.252 . S
O297 In286 2.294 . S
O297 C290 1.240 . S
O298 In286 2.326 . S
O298 C290 1.252 . S
In299 O300 2.294 . S
In299 O301 2.326 . S
In299 O305 2.266 . S
In299 O306 2.326 . S
In299 O307 2.266 . S
In299 O308 2.326 . S
In299 O310 2.294 . S
In299 O311 2.326 . S
O300 In299 2.294 . S
O300 C309 1.240 . S
O301 In299 2.326 . S
O301 C309 1.252 . S
C302 O305 1.252 . S
C302 O306 1.260 . S
C303 O310 1.240 . S
C303 O311 1.252 . S
C304 O307 1.252 . S
C304 O308 1.260 . S
O305 In299 2.266 . S
O305 C302 1.252 . S
O306 In299 2.326 . S
O306 C302 1.260 . S
O307 In299 2.266 . S
O307 C304 1.252 . S
O308 In299 2.326 . S
O308 C304 1.260 . S
C309 O300 1.240 . S
C309 O301 1.252 . S
O310 In299 2.294 . S
O310 C303 1.240 . S
O311 In299 2.326 . S
O311 C303 1.252 . S
In312 O313 2.294 . S
In312 O314 2.326 . S
In312 O318 2.266 . S
In312 O319 2.326 . S
In312 O320 2.266 . S
In312 O321 2.326 . S
In312 O323 2.294 . S
In312 O324 2.326 . S
O313 In312 2.294 . S
O313 C322 1.240 . S
O314 In312 2.326 . S
O314 C322 1.252 . S
C315 O318 1.252 . S
C315 O319 1.260 . S
C316 O323 1.240 . S
C316 O324 1.252 . S
C317 O320 1.252 . S
C317 O321 1.260 . S
O318 In312 2.266 . S
O318 C315 1.252 . S
O319 In312 2.326 . S
O319 C315 1.260 . S
O320 In312 2.266 . S
O320 C317 1.252 . S
O321 In312 2.326 . S
O321 C317 1.260 . S
C322 O313 1.240 . S
C322 O314 1.252 . S
O323 In312 2.294 . S
O323 C316 1.240 . S
O324 In312 2.326 . S
O324 C316 1.252 . S
In325 O326 2.294 . S
In325 O327 2.326 . S
In325 O331 2.266 . S
In325 O332 2.326 . S
In325 O333 2.266 . S
In325 O334 2.326 . S
In325 O336 2.294 . S
In325 O337 2.326 . S
O326 In325 2.294 . S
O326 C335 1.240 . S
O327 In325 2.326 . S
O327 C335 1.252 . S
C328 O331 1.252 . S
C328 O332 1.260 . S
C329 O336 1.240 . S
C329 O337 1.252 . S
C330 O333 1.252 . S
C330 O334 1.260 . S
O331 In325 2.266 . S
O331 C328 1.252 . S
O332 In325 2.326 . S
O332 C328 1.260 . S
O333 In325 2.266 . S
O333 C330 1.252 . S
O334 In325 2.326 . S
O334 C330 1.260 . S
C335 O326 1.240 . S
C335 O327 1.252 . S
O336 In325 2.294 . S
O336 C329 1.240 . S
O337 In325 2.326 . S
O337 C329 1.252 . S
In338 O339 2.294 . S
In338 O340 2.326 . S
In338 O344 2.266 . S
In338 O345 2.326 . S
In338 O346 2.266 . S
In338 O347 2.326 . S
In338 O349 2.294 . S
In338 O350 2.326 . S
O339 In338 2.294 . S
O339 C348 1.240 . S
O340 In338 2.326 . S
O340 C348 1.252 . S
C341 O344 1.252 . S
C341 O345 1.260 . S
C342 O349 1.240 . S
C342 O350 1.252 . S
C343 O346 1.252 . S
C343 O347 1.260 . S
O344 In338 2.266 . S
O344 C341 1.252 . S
O345 In338 2.326 . S
O345 C341 1.260 . S
O346 In338 2.266 . S
O346 C343 1.252 . S
O347 In338 2.326 . S
O347 C343 1.260 . S
C348 O339 1.240 . S
C348 O340 1.252 . S
O349 In338 2.294 . S
O349 C342 1.240 . S
O350 In338 2.326 . S
O350 C342 1.252 . S
In351 O352 2.294 . S
In351 O353 2.326 . S
In351 O357 2.266 . S
In351 O358 2.326 . S
In351 O359 2.266 . S
In351 O360 2.326 . S
In351 O362 2.294 . S
In351 O363 2.326 . S
O352 In351 2.294 . S
O352 C361 1.240 . S
O353 In351 2.326 . S
O353 C361 1.252 . S
C354 O357 1.252 . S
C354 O358 1.260 . S
C355 O362 1.240 . S
C355 O363 1.252 . S
C356 O359 1.252 . S
C356 O360 1.260 . S
O357 In351 2.266 . S
O357 C354 1.252 . S
O358 In351 2.326 . S
O358 C354 1.260 . S
O359 In351 2.266 . S
O359 C356 1.252 . S
O360 In351 2.326 . S
O360 C356 1.260 . S
C361 O352 1.240 . S
C361 O353 1.252 . S
O362 In351 2.294 . S
O362 C355 1.240 . S
O363 In351 2.326 . S
O363 C355 1.252 . S
In364 O365 2.294 . S
In364 O366 2.326 . S
In364 O370 2.266 . S
In364 O371 2.326 . S
In364 O372 2.266 . S
In364 O373 2.326 . S
In364 O375 2.294 . S
In364 O376 2.326 . S
O365 In364 2.294 . S
O365 C374 1.240 . S
O366 In364 2.326 . S
O366 C374 1.252 . S
C367 O370 1.252 . S
C367 O371 1.260 . S
C368 O375 1.240 . S
C368 O376 1.252 . S
C369 O372 1.252 . S
C369 O373 1.260 . S
O370 In364 2.266 . S
O370 C367 1.252 . S
O371 In364 2.326 . S
O371 C367 1.260 . S
O372 In364 2.266 . S
O372 C369 1.252 . S
O373 In364 2.326 . S
O373 C369 1.260 . S
C374 O365 1.240 . S
C374 O366 1.252 . S
O375 In364 2.294 . S
O375 C368 1.240 . S
O376 In364 2.326 . S
O376 C368 1.252 . S
In377 O378 2.294 . S
In377 O379 2.326 . S
In377 O383 2.266 . S
In377 O384 2.326 . S
In377 O385 2.266 . S
In377 O386 2.326 . S
In377 O388 2.294 . S
In377 O389 2.326 . S
O378 In377 2.294 . S
O378 C387 1.240 . S
O379 In377 2.326 . S
O379 C387 1.252 . S
C380 O383 1.252 . S
C380 O384 1.260 . S
C381 O388 1.240 . S
C381 O389 1.252 . S
C382 O385 1.252 . S
C382 O386 1.260 . S
O383 In377 2.266 . S
O383 C380 1.252 . S
O384 In377 2.326 . S
O384 C380 1.260 . S
O385 In377 2.266 . S
O385 C382 1.252 . S
O386 In377 2.326 . S
O386 C382 1.260 . S
C387 O378 1.240 . S
C387 O379 1.252 . S
O388 In377 2.294 . S
O388 C381 1.240 . S
O389 In377 2.326 . S
O389 C381 1.252 . S
In390 O391 2.294 . S
In390 O392 2.326 . S
In390 O396 2.266 . S
In390 O397 2.326 . S
In390 O398 2.266 . S
In390 O399 2.326 . S
In390 O401 2.294 . S
In390 O402 2.326 . S
O391 In390 2.294 . S
O391 C400 1.240 . S
O392 In390 2.326 . S
O392 C400 1.252 . S
C393 O396 1.252 . S
C393 O397 1.260 . S
C394 O401 1.240 . S
C394 O402 1.252 . S
C395 O398 1.252 . S
C395 O399 1.260 . S
O396 In390 2.266 . S
O396 C393 1.252 . S
O397 In390 2.326 . S
O397 C393 1.260 . S
O398 In390 2.266 . S
O398 C395 1.252 . S
O399 In390 2.326 . S
O399 C395 1.260 . S
C400 O391 1.240 . S
C400 O392 1.252 . S
O401 In390 2.294 . S
O401 C394 1.240 . S
O402 In390 2.326 . S
O402 C394 1.252 . S
In403 O404 2.294 . S
In403 O405 2.326 . S
In403 O409 2.266 . S
In403 O410 2.326 . S
In403 O411 2.266 . S
In403 O412 2.326 . S
In403 O414 2.294 . S
In403 O415 2.326 . S
O404 In403 2.294 . S
O404 C413 1.240 . S
O405 In403 2.326 . S
O405 C413 1.252 . S
C406 O409 1.252 . S
C406 O410 1.260 . S
C407 O414 1.240 . S
C407 O415 1.252 . S
C408 O411 1.252 . S
C408 O412 1.260 . S
O409 In403 2.266 . S
O409 C406 1.252 . S
O410 In403 2.326 . S
O410 C406 1.260 . S
O411 In403 2.266 . S
O411 C408 1.252 . S
O412 In403 2.326 . S
O412 C408 1.260 . S
C413 O404 1.240 . S
C413 O405 1.252 . S
O414 In403 2.294 . S
O414 C407 1.240 . S
O415 In403 2.326 . S
O415 C407 1.252 . S
H416 C422 0.930 . S
H417 C426 0.930 . S
H418 C431 0.929 . S
H419 C429 0.929 . S
H420 C424 0.929 . S
H421 C430 0.929 . S
C422 H416 0.930 . S
C422 C423 1.367 . S
C422 C430 1.378 . S
C423 C422 1.367 . S
C423 C431 1.433 . S
C424 H420 0.929 . S
C424 C426 1.378 . S
C424 C428 1.350 . S
C425 C428 1.463 . S
C425 C430 1.350 . S
C425 N433 1.427 . S
C426 H417 0.930 . S
C426 C424 1.378 . S
C426 C427 1.367 . S
C427 C426 1.367 . S
C427 C429 1.433 . S
C428 C424 1.350 . S
C428 C425 1.463 . S
C428 N432 1.427 . S
C429 H419 0.929 . S
C429 C427 1.433 . S
C429 N432 1.384 . S
C430 H421 0.929 . S
C430 C422 1.378 . S
C430 C425 1.350 . S
C431 H418 0.929 . S
C431 C423 1.433 . S
C431 N433 1.384 . S
N432 C428 1.427 . S
N432 C429 1.384 . S
N433 C425 1.427 . S
N433 C431 1.384 . S
H434 C440 0.930 . S
H435 C444 0.930 . S
H436 C449 0.929 . S
H437 C447 0.929 . S
H438 C442 0.929 . S
H439 C448 0.929 . S
C440 H434 0.930 . S
C440 C441 1.367 . S
C440 C448 1.378 . S
C441 C440 1.367 . S
C441 C449 1.433 . S
C442 H438 0.929 . S
C442 C444 1.378 . S
C442 C446 1.350 . S
C443 C446 1.463 . S
C443 C448 1.350 . S
C443 N451 1.427 . S
C444 H435 0.930 . S
C444 C442 1.378 . S
C444 C445 1.367 . S
C445 C444 1.367 . S
C445 C447 1.433 . S
C446 C442 1.350 . S
C446 C443 1.463 . S
C446 N450 1.427 . S
C447 H437 0.929 . S
C447 C445 1.433 . S
C447 N450 1.384 . S
C448 H439 0.929 . S
C448 C440 1.378 . S
C448 C443 1.350 . S
C449 H436 0.929 . S
C449 C441 1.433 . S
C449 N451 1.384 . S
N450 C446 1.427 . S
N450 C447 1.384 . S
N451 C443 1.427 . S
N451 C449 1.384 . S
H452 C458 0.930 . S
H453 C462 0.930 . S
H454 C467 0.929 . S
H455 C465 0.929 . S
H456 C460 0.929 . S
H457 C466 0.929 . S
C458 H452 0.930 . S
C458 C459 1.367 . S
C458 C466 1.378 . S
C459 C458 1.367 . S
C459 C467 1.433 . S
C460 H456 0.929 . S
C460 C462 1.378 . S
C460 C464 1.350 . S
C461 C464 1.463 . S
C461 C466 1.350 . S
C461 N469 1.427 . S
C462 H453 0.930 . S
C462 C460 1.378 . S
C462 C463 1.367 . S
C463 C462 1.367 . S
C463 C465 1.433 . S
C464 C460 1.350 . S
C464 C461 1.463 . S
C464 N468 1.427 . S
C465 H455 0.929 . S
C465 C463 1.433 . S
C465 N468 1.384 . S
C466 H457 0.929 . S
C466 C458 1.378 . S
C466 C461 1.350 . S
C467 H454 0.929 . S
C467 C459 1.433 . S
C467 N469 1.384 . S
N468 C464 1.427 . S
N468 C465 1.384 . S
N469 C461 1.427 . S
N469 C467 1.384 . S
H470 C476 0.930 . S
H471 C480 0.930 . S
H472 C485 0.929 . S
H473 C483 0.929 . S
H474 C478 0.929 . S
H475 C484 0.929 . S
C476 H470 0.930 . S
C476 C477 1.367 . S
C476 C484 1.378 . S
C477 C476 1.367 . S
C477 C485 1.433 . S
C478 H474 0.929 . S
C478 C480 1.378 . S
C478 C482 1.350 . S
C479 C482 1.463 . S
C479 C484 1.350 . S
C479 N487 1.427 . S
C480 H471 0.930 . S
C480 C478 1.378 . S
C480 C481 1.367 . S
C481 C480 1.367 . S
C481 C483 1.433 . S
C482 C478 1.350 . S
C482 C479 1.463 . S
C482 N486 1.427 . S
C483 H473 0.929 . S
C483 C481 1.433 . S
C483 N486 1.384 . S
C484 H475 0.929 . S
C484 C476 1.378 . S
C484 C479 1.350 . S
C485 H472 0.929 . S
C485 C477 1.433 . S
C485 N487 1.384 . S
N486 C482 1.427 . S
N486 C483 1.384 . S
N487 C479 1.427 . S
N487 C485 1.384 . S
H488 C494 0.930 . S
H489 C498 0.930 . S
H490 C503 0.929 . S
H491 C501 0.929 . S
H492 C496 0.929 . S
H493 C502 0.929 . S
C494 H488 0.930 . S
C494 C495 1.367 . S
C494 C502 1.378 . S
C495 C494 1.367 . S
C495 C503 1.433 . S
C496 H492 0.929 . S
C496 C498 1.378 . S
C496 C500 1.350 . S
C497 C500 1.463 . S
C497 C502 1.350 . S
C497 N505 1.427 . S
C498 H489 0.930 . S
C498 C496 1.378 . S
C498 C499 1.367 . S
C499 C498 1.367 . S
C499 C501 1.433 . S
C500 C496 1.350 . S
C500 C497 1.463 . S
C500 N504 1.427 . S
C501 H491 0.929 . S
C501 C499 1.433 . S
C501 N504 1.384 . S
C502 H493 0.929 . S
C502 C494 1.378 . S
C502 C497 1.350 . S
C503 H490 0.929 . S
C503 C495 1.433 . S
C503 N505 1.384 . S
N504 C500 1.427 . S
N504 C501 1.384 . S
N505 C497 1.427 . S
N505 C503 1.384 . S
H506 C512 0.930 . S
H507 C516 0.930 . S
H508 C521 0.929 . S
H509 C519 0.929 . S
H510 C514 0.929 . S
H511 C520 0.929 . S
C512 H506 0.930 . S
C512 C513 1.367 . S
C512 C520 1.378 . S
C513 C512 1.367 . S
C513 C521 1.433 . S
C514 H510 0.929 . S
C514 C516 1.378 . S
C514 C518 1.350 . S
C515 C518 1.463 . S
C515 C520 1.350 . S
C515 N523 1.427 . S
C516 H507 0.930 . S
C516 C514 1.378 . S
C516 C517 1.367 . S
C517 C516 1.367 . S
C517 C519 1.433 . S
C518 C514 1.350 . S
C518 C515 1.463 . S
C518 N522 1.427 . S
C519 H509 0.929 . S
C519 C517 1.433 . S
C519 N522 1.384 . S
C520 H511 0.929 . S
C520 C512 1.378 . S
C520 C515 1.350 . S
C521 H508 0.929 . S
C521 C513 1.433 . S
C521 N523 1.384 . S
N522 C518 1.427 . S
N522 C519 1.384 . S
N523 C515 1.427 . S
N523 C521 1.384 . S
H524 C530 0.930 . S
H525 C534 0.930 . S
H526 C539 0.929 . S
H527 C537 0.929 . S
H528 C532 0.929 . S
H529 C538 0.929 . S
C530 H524 0.930 . S
C530 C531 1.367 . S
C530 C538 1.378 . S
C531 C530 1.367 . S
C531 C539 1.433 . S
C532 H528 0.929 . S
C532 C534 1.378 . S
C532 C536 1.350 . S
C533 C536 1.463 . S
C533 C538 1.350 . S
C533 N541 1.427 . S
C534 H525 0.930 . S
C534 C532 1.378 . S
C534 C535 1.367 . S
C535 C534 1.367 . S
C535 C537 1.433 . S
C536 C532 1.350 . S
C536 C533 1.463 . S
C536 N540 1.427 . S
C537 H527 0.929 . S
C537 C535 1.433 . S
C537 N540 1.384 . S
C538 H529 0.929 . S
C538 C530 1.378 . S
C538 C533 1.350 . S
C539 H526 0.929 . S
C539 C531 1.433 . S
C539 N541 1.384 . S
N540 C536 1.427 . S
N540 C537 1.384 . S
N541 C533 1.427 . S
N541 C539 1.384 . S
H542 C548 0.930 . S
H543 C552 0.930 . S
H544 C557 0.929 . S
H545 C555 0.929 . S
H546 C550 0.929 . S
H547 C556 0.929 . S
C548 H542 0.930 . S
C548 C549 1.367 . S
C548 C556 1.378 . S
C549 C548 1.367 . S
C549 C557 1.433 . S
C550 H546 0.929 . S
C550 C552 1.378 . S
C550 C554 1.350 . S
C551 C554 1.463 . S
C551 C556 1.350 . S
C551 N559 1.427 . S
C552 H543 0.930 . S
C552 C550 1.378 . S
C552 C553 1.367 . S
C553 C552 1.367 . S
C553 C555 1.433 . S
C554 C550 1.350 . S
C554 C551 1.463 . S
C554 N558 1.427 . S
C555 H545 0.929 . S
C555 C553 1.433 . S
C555 N558 1.384 . S
C556 H547 0.929 . S
C556 C548 1.378 . S
C556 C551 1.350 . S
C557 H544 0.929 . S
C557 C549 1.433 . S
C557 N559 1.384 . S
N558 C554 1.427 . S
N558 C555 1.384 . S
N559 C551 1.427 . S
N559 C557 1.384 . S
H560 C566 0.930 . S
H561 C570 0.930 . S
H562 C575 0.929 . S
H563 C573 0.929 . S
H564 C568 0.929 . S
H565 C574 0.929 . S
C566 H560 0.930 . S
C566 C567 1.367 . S
C566 C574 1.378 . S
C567 C566 1.367 . S
C567 C575 1.433 . S
C568 H564 0.929 . S
C568 C570 1.378 . S
C568 C572 1.350 . S
C569 C572 1.463 . S
C569 C574 1.350 . S
C569 N577 1.427 . S
C570 H561 0.930 . S
C570 C568 1.378 . S
C570 C571 1.367 . S
C571 C570 1.367 . S
C571 C573 1.433 . S
C572 C568 1.350 . S
C572 C569 1.463 . S
C572 N576 1.427 . S
C573 H563 0.929 . S
C573 C571 1.433 . S
C573 N576 1.384 . S
C574 H565 0.929 . S
C574 C566 1.378 . S
C574 C569 1.350 . S
C575 H562 0.929 . S
C575 C567 1.433 . S
C575 N577 1.384 . S
N576 C572 1.427 . S
N576 C573 1.384 . S
N577 C569 1.427 . S
N577 C575 1.384 . S
H578 C584 0.930 . S
H579 C588 0.930 . S
H580 C593 0.929 . S
H581 C591 0.929 . S
H582 C586 0.929 . S
H583 C592 0.929 . S
C584 H578 0.930 . S
C584 C585 1.367 . S
C584 C592 1.378 . S
C585 C584 1.367 . S
C585 C593 1.433 . S
C586 H582 0.929 . S
C586 C588 1.378 . S
C586 C590 1.350 . S
C587 C590 1.463 . S
C587 C592 1.350 . S
C587 N595 1.427 . S
C588 H579 0.930 . S
C588 C586 1.378 . S
C588 C589 1.367 . S
C589 C588 1.367 . S
C589 C591 1.433 . S
C590 C586 1.350 . S
C590 C587 1.463 . S
C590 N594 1.427 . S
C591 H581 0.929 . S
C591 C589 1.433 . S
C591 N594 1.384 . S
C592 H583 0.929 . S
C592 C584 1.378 . S
C592 C587 1.350 . S
C593 H580 0.929 . S
C593 C585 1.433 . S
C593 N595 1.384 . S
N594 C590 1.427 . S
N594 C591 1.384 . S
N595 C587 1.427 . S
N595 C593 1.384 . S
H596 C602 0.930 . S
H597 C606 0.930 . S
H598 C611 0.929 . S
H599 C609 0.929 . S
H600 C604 0.929 . S
H601 C610 0.929 . S
C602 H596 0.930 . S
C602 C603 1.367 . S
C602 C610 1.378 . S
C603 C602 1.367 . S
C603 C611 1.433 . S
C604 H600 0.929 . S
C604 C606 1.378 . S
C604 C608 1.350 . S
C605 C608 1.463 . S
C605 C610 1.350 . S
C605 N613 1.427 . S
C606 H597 0.930 . S
C606 C604 1.378 . S
C606 C607 1.367 . S
C607 C606 1.367 . S
C607 C609 1.433 . S
C608 C604 1.350 . S
C608 C605 1.463 . S
C608 N612 1.427 . S
C609 H599 0.929 . S
C609 C607 1.433 . S
C609 N612 1.384 . S
C610 H601 0.929 . S
C610 C602 1.378 . S
C610 C605 1.350 . S
C611 H598 0.929 . S
C611 C603 1.433 . S
C611 N613 1.384 . S
N612 C608 1.427 . S
N612 C609 1.384 . S
N613 C605 1.427 . S
N613 C611 1.384 . S
H614 C620 0.930 . S
H615 C624 0.930 . S
H616 C629 0.929 . S
H617 C627 0.929 . S
H618 C622 0.929 . S
H619 C628 0.929 . S
C620 H614 0.930 . S
C620 C621 1.367 . S
C620 C628 1.378 . S
C621 C620 1.367 . S
C621 C629 1.433 . S
C622 H618 0.929 . S
C622 C624 1.378 . S
C622 C626 1.350 . S
C623 C626 1.463 . S
C623 C628 1.350 . S
C623 N631 1.427 . S
C624 H615 0.930 . S
C624 C622 1.378 . S
C624 C625 1.367 . S
C625 C624 1.367 . S
C625 C627 1.433 . S
C626 C622 1.350 . S
C626 C623 1.463 . S
C626 N630 1.427 . S
C627 H617 0.929 . S
C627 C625 1.433 . S
C627 N630 1.384 . S
C628 H619 0.929 . S
C628 C620 1.378 . S
C628 C623 1.350 . S
C629 H616 0.929 . S
C629 C621 1.433 . S
C629 N631 1.384 . S
N630 C626 1.427 . S
N630 C627 1.384 . S
N631 C623 1.427 . S
N631 C629 1.384 . S
H632 C638 0.930 . S
H633 C642 0.930 . S
H634 C647 0.929 . S
H635 C645 0.929 . S
H636 C640 0.929 . S
H637 C646 0.929 . S
C638 H632 0.930 . S
C638 C639 1.367 . S
C638 C646 1.378 . S
C639 C638 1.367 . S
C639 C647 1.433 . S
C640 H636 0.929 . S
C640 C642 1.378 . S
C640 C644 1.350 . S
C641 C644 1.463 . S
C641 C646 1.350 . S
C641 N649 1.427 . S
C642 H633 0.930 . S
C642 C640 1.378 . S
C642 C643 1.367 . S
C643 C642 1.367 . S
C643 C645 1.433 . S
C644 C640 1.350 . S
C644 C641 1.463 . S
C644 N648 1.427 . S
C645 H635 0.929 . S
C645 C643 1.433 . S
C645 N648 1.384 . S
C646 H637 0.929 . S
C646 C638 1.378 . S
C646 C641 1.350 . S
C647 H634 0.929 . S
C647 C639 1.433 . S
C647 N649 1.384 . S
N648 C644 1.427 . S
N648 C645 1.384 . S
N649 C641 1.427 . S
N649 C647 1.384 . S
H650 C656 0.930 . S
H651 C660 0.930 . S
H652 C665 0.929 . S
H653 C663 0.929 . S
H654 C658 0.929 . S
H655 C664 0.929 . S
C656 H650 0.930 . S
C656 C657 1.367 . S
C656 C664 1.378 . S
C657 C656 1.367 . S
C657 C665 1.433 . S
C658 H654 0.929 . S
C658 C660 1.378 . S
C658 C662 1.350 . S
C659 C662 1.463 . S
C659 C664 1.350 . S
C659 N667 1.427 . S
C660 H651 0.930 . S
C660 C658 1.378 . S
C660 C661 1.367 . S
C661 C660 1.367 . S
C661 C663 1.433 . S
C662 C658 1.350 . S
C662 C659 1.463 . S
C662 N666 1.427 . S
C663 H653 0.929 . S
C663 C661 1.433 . S
C663 N666 1.384 . S
C664 H655 0.929 . S
C664 C656 1.378 . S
C664 C659 1.350 . S
C665 H652 0.929 . S
C665 C657 1.433 . S
C665 N667 1.384 . S
N666 C662 1.427 . S
N666 C663 1.384 . S
N667 C659 1.427 . S
N667 C665 1.384 . S
H668 C674 0.930 . S
H669 C678 0.930 . S
H670 C683 0.929 . S
H671 C681 0.929 . S
H672 C676 0.929 . S
H673 C682 0.929 . S
C674 H668 0.930 . S
C674 C675 1.367 . S
C674 C682 1.378 . S
C675 C674 1.367 . S
C675 C683 1.433 . S
C676 H672 0.929 . S
C676 C678 1.378 . S
C676 C680 1.350 . S
C677 C680 1.463 . S
C677 C682 1.350 . S
C677 N685 1.427 . S
C678 H669 0.930 . S
C678 C676 1.378 . S
C678 C679 1.367 . S
C679 C678 1.367 . S
C679 C681 1.433 . S
C680 C676 1.350 . S
C680 C677 1.463 . S
C680 N684 1.427 . S
C681 H671 0.929 . S
C681 C679 1.433 . S
C681 N684 1.384 . S
C682 H673 0.929 . S
C682 C674 1.378 . S
C682 C677 1.350 . S
C683 H670 0.929 . S
C683 C675 1.433 . S
C683 N685 1.384 . S
N684 C680 1.427 . S
N684 C681 1.384 . S
N685 C677 1.427 . S
N685 C683 1.384 . S
H686 C692 0.930 . S
H687 C696 0.953 . S
H688 C701 0.929 . S
H689 C699 0.929 . S
H690 C694 0.929 . S
H691 C700 0.929 . S
C692 H686 0.930 . S
C692 C693 1.367 . S
C692 C700 1.378 . S
C693 C692 1.367 . S
C693 C701 1.433 . S
C694 H690 0.929 . S
C694 C696 1.378 . S
C694 C698 1.350 . S
C695 C698 1.463 . S
C695 C700 1.350 . S
C695 N703 1.427 . S
C696 H687 0.953 . S
C696 C694 1.378 . S
C696 C697 1.367 . S
C697 C696 1.367 . S
C697 C699 1.433 . S
C698 C694 1.350 . S
C698 C695 1.463 . S
C698 N702 1.427 . S
C699 H689 0.929 . S
C699 C697 1.433 . S
C699 N702 1.384 . S
C700 H691 0.929 . S
C700 C692 1.378 . S
C700 C695 1.350 . S
C701 H688 0.929 . S
C701 C693 1.433 . S
C701 N703 1.384 . S
N702 C698 1.427 . S
N702 C699 1.384 . S
N703 C695 1.427 . S
N703 C701 1.384 . S
H704 C710 0.930 . S
H705 C714 0.930 . S
H706 C719 0.929 . S
H707 C717 0.929 . S
H708 C712 0.929 . S
H709 C718 0.929 . S
C710 H704 0.930 . S
C710 C711 1.367 . S
C710 C718 1.378 . S
C711 C710 1.367 . S
C711 C719 1.433 . S
C712 H708 0.929 . S
C712 C714 1.378 . S
C712 C716 1.350 . S
C713 C716 1.463 . S
C713 C718 1.350 . S
C713 N721 1.427 . S
C714 H705 0.930 . S
C714 C712 1.378 . S
C714 C715 1.367 . S
C715 C714 1.367 . S
C715 C717 1.433 . S
C716 C712 1.350 . S
C716 C713 1.463 . S
C716 N720 1.427 . S
C717 H707 0.929 . S
C717 C715 1.433 . S
C717 N720 1.384 . S
C718 H709 0.929 . S
C718 C710 1.378 . S
C718 C713 1.350 . S
C719 H706 0.929 . S
C719 C711 1.433 . S
C719 N721 1.384 . S
N720 C716 1.427 . S
N720 C717 1.384 . S
N721 C713 1.427 . S
N721 C719 1.384 . S
H722 C728 0.930 . S
H723 C732 0.930 . S
H724 C737 0.929 . S
H725 C735 0.929 . S
H726 C730 0.929 . S
H727 C736 0.929 . S
C728 H722 0.930 . S
C728 C729 1.367 . S
C728 C736 1.378 . S
C729 C728 1.367 . S
C729 C737 1.433 . S
C730 H726 0.929 . S
C730 C732 1.378 . S
C730 C734 1.350 . S
C731 C734 1.463 . S
C731 C736 1.350 . S
C731 N739 1.427 . S
C732 H723 0.930 . S
C732 C730 1.378 . S
C732 C733 1.367 . S
C733 C732 1.367 . S
C733 C735 1.433 . S
C734 C730 1.350 . S
C734 C731 1.463 . S
C734 N738 1.427 . S
C735 H725 0.929 . S
C735 C733 1.433 . S
C735 N738 1.384 . S
C736 H727 0.929 . S
C736 C728 1.378 . S
C736 C731 1.350 . S
C737 H724 0.929 . S
C737 C729 1.433 . S
C737 N739 1.384 . S
N738 C734 1.427 . S
N738 C735 1.384 . S
N739 C731 1.427 . S
N739 C737 1.384 . S
H740 C746 0.930 . S
H741 C750 0.930 . S
H742 C755 0.929 . S
H743 C753 0.929 . S
H744 C748 0.929 . S
H745 C754 0.929 . S
C746 H740 0.930 . S
C746 C747 1.367 . S
C746 C754 1.378 . S
C747 C746 1.367 . S
C747 C755 1.433 . S
C748 H744 0.929 . S
C748 C750 1.378 . S
C748 C752 1.350 . S
C749 C752 1.463 . S
C749 C754 1.350 . S
C749 N757 1.427 . S
C750 H741 0.930 . S
C750 C748 1.378 . S
C750 C751 1.367 . S
C751 C750 1.367 . S
C751 C753 1.433 . S
C752 C748 1.350 . S
C752 C749 1.463 . S
C752 N756 1.427 . S
C753 H743 0.929 . S
C753 C751 1.433 . S
C753 N756 1.384 . S
C754 H745 0.929 . S
C754 C746 1.378 . S
C754 C749 1.350 . S
C755 H742 0.929 . S
C755 C747 1.433 . S
C755 N757 1.384 . S
N756 C752 1.427 . S
N756 C753 1.384 . S
N757 C749 1.427 . S
N757 C755 1.384 . S
H758 C764 0.930 . S
H759 C768 0.952 . S
H760 C773 0.929 . S
H761 C771 0.929 . S
H762 C766 0.929 . S
H763 C772 0.929 . S
C764 H758 0.930 . S
C764 C765 1.367 . S
C764 C772 1.378 . S
C765 C764 1.367 . S
C765 C773 1.433 . S
C766 H762 0.929 . S
C766 C768 1.378 . S
C766 C770 1.350 . S
C767 C770 1.463 . S
C767 C772 1.350 . S
C767 N775 1.427 . S
C768 H759 0.952 . S
C768 C766 1.378 . S
C768 C769 1.367 . S
C769 C768 1.367 . S
C769 C771 1.433 . S
C770 C766 1.350 . S
C770 C767 1.463 . S
C770 N774 1.427 . S
C771 H761 0.929 . S
C771 C769 1.433 . S
C771 N774 1.384 . S
C772 H763 0.929 . S
C772 C764 1.378 . S
C772 C767 1.350 . S
C773 H760 0.929 . S
C773 C765 1.433 . S
C773 N775 1.384 . S
N774 C770 1.427 . S
N774 C771 1.384 . S
N775 C767 1.427 . S
N775 C773 1.384 . S
H776 C782 0.930 . S
H777 C786 0.930 . S
H778 C791 0.929 . S
H779 C789 0.929 . S
H780 C784 0.929 . S
H781 C790 0.929 . S
C782 H776 0.930 . S
C782 C783 1.367 . S
C782 C790 1.378 . S
C783 C782 1.367 . S
C783 C791 1.433 . S
C784 H780 0.929 . S
C784 C786 1.378 . S
C784 C788 1.350 . S
C785 C788 1.463 . S
C785 C790 1.350 . S
C785 N793 1.427 . S
C786 H777 0.930 . S
C786 C784 1.378 . S
C786 C787 1.367 . S
C787 C786 1.367 . S
C787 C789 1.433 . S
C788 C784 1.350 . S
C788 C785 1.463 . S
C788 N792 1.427 . S
C789 H779 0.929 . S
C789 C787 1.433 . S
C789 N792 1.384 . S
C790 H781 0.929 . S
C790 C782 1.378 . S
C790 C785 1.350 . S
C791 H778 0.929 . S
C791 C783 1.433 . S
C791 N793 1.384 . S
N792 C788 1.427 . S
N792 C789 1.384 . S
N793 C785 1.427 . S
N793 C791 1.384 . S
H794 C800 0.930 . S
H795 C804 0.930 . S
H796 C809 0.929 . S
H797 C807 0.929 . S
H798 C802 0.929 . S
H799 C808 0.929 . S
C800 H794 0.930 . S
C800 C801 1.367 . S
C800 C808 1.378 . S
C801 C800 1.367 . S
C801 C809 1.433 . S
C802 H798 0.929 . S
C802 C804 1.378 . S
C802 C806 1.350 . S
C803 C806 1.463 . S
C803 C808 1.350 . S
C803 N811 1.427 . S
C804 H795 0.930 . S
C804 C802 1.378 . S
C804 C805 1.367 . S
C805 C804 1.367 . S
C805 C807 1.433 . S
C806 C802 1.350 . S
C806 C803 1.463 . S
C806 N810 1.427 . S
C807 H797 0.929 . S
C807 C805 1.433 . S
C807 N810 1.384 . S
C808 H799 0.929 . S
C808 C800 1.378 . S
C808 C803 1.350 . S
C809 H796 0.929 . S
C809 C801 1.433 . S
C809 N811 1.384 . S
N810 C806 1.427 . S
N810 C807 1.384 . S
N811 C803 1.427 . S
N811 C809 1.384 . S
H812 C818 0.930 . S
H813 C822 0.930 . S
H814 C827 0.929 . S
H815 C825 0.929 . S
H816 C820 0.929 . S
H817 C826 0.929 . S
C818 H812 0.930 . S
C818 C819 1.367 . S
C818 C826 1.378 . S
C819 C818 1.367 . S
C819 C827 1.433 . S
C820 H816 0.929 . S
C820 C822 1.378 . S
C820 C824 1.350 . S
C821 C824 1.463 . S
C821 C826 1.350 . S
C821 N829 1.427 . S
C822 H813 0.930 . S
C822 C820 1.378 . S
C822 C823 1.367 . S
C823 C822 1.367 . S
C823 C825 1.433 . S
C824 C820 1.350 . S
C824 C821 1.463 . S
C824 N828 1.427 . S
C825 H815 0.929 . S
C825 C823 1.433 . S
C825 N828 1.384 . S
C826 H817 0.929 . S
C826 C818 1.378 . S
C826 C821 1.350 . S
C827 H814 0.929 . S
C827 C819 1.433 . S
C827 N829 1.384 . S
N828 C824 1.427 . S
N828 C825 1.384 . S
N829 C821 1.427 . S
N829 C827 1.384 . S
H830 C836 0.930 . S
H831 C840 0.930 . S
H832 C845 0.929 . S
H833 C843 0.929 . S
H834 C838 0.929 . S
H835 C844 0.929 . S
C836 H830 0.930 . S
C836 C837 1.367 . S
C836 C844 1.378 . S
C837 C836 1.367 . S
C837 C845 1.433 . S
C838 H834 0.929 . S
C838 C840 1.378 . S
C838 C842 1.350 . S
C839 C842 1.463 . S
C839 C844 1.350 . S
C839 N847 1.427 . S
C840 H831 0.930 . S
C840 C838 1.378 . S
C840 C841 1.367 . S
C841 C840 1.367 . S
C841 C843 1.433 . S
C842 C838 1.350 . S
C842 C839 1.463 . S
C842 N846 1.427 . S
C843 H833 0.929 . S
C843 C841 1.433 . S
C843 N846 1.384 . S
C844 H835 0.929 . S
C844 C836 1.378 . S
C844 C839 1.350 . S
C845 H832 0.929 . S
C845 C837 1.433 . S
C845 N847 1.384 . S
N846 C842 1.427 . S
N846 C843 1.384 . S
N847 C839 1.427 . S
N847 C845 1.384 . S
H848 C854 0.930 . S
H849 C858 0.930 . S
H850 C863 0.929 . S
H851 C861 0.929 . S
H852 C856 0.929 . S
H853 C862 0.929 . S
C854 H848 0.930 . S
C854 C855 1.367 . S
C854 C862 1.378 . S
C855 C854 1.367 . S
C855 C863 1.433 . S
C856 H852 0.929 . S
C856 C858 1.378 . S
C856 C860 1.350 . S
C857 C860 1.463 . S
C857 C862 1.350 . S
C857 N865 1.427 . S
C858 H849 0.930 . S
C858 C856 1.378 . S
C858 C859 1.367 . S
C859 C858 1.367 . S
C859 C861 1.433 . S
C860 C856 1.350 . S
C860 C857 1.463 . S
C860 N864 1.427 . S
C861 H851 0.929 . S
C861 C859 1.433 . S
C861 N864 1.384 . S
C862 H853 0.929 . S
C862 C854 1.378 . S
C862 C857 1.350 . S
C863 H850 0.929 . S
C863 C855 1.433 . S
C863 N865 1.384 . S
N864 C860 1.427 . S
N864 C861 1.384 . S
N865 C857 1.427 . S
N865 C863 1.384 . S
H866 C872 0.930 . S
H867 C876 0.930 . S
H868 C881 0.929 . S
H869 C879 0.929 . S
H870 C874 0.929 . S
H871 C880 0.929 . S
C872 H866 0.930 . S
C872 C873 1.367 . S
C872 C880 1.378 . S
C873 C872 1.367 . S
C873 C881 1.433 . S
C874 H870 0.929 . S
C874 C876 1.378 . S
C874 C878 1.350 . S
C875 C878 1.463 . S
C875 C880 1.350 . S
C875 N883 1.427 . S
C876 H867 0.930 . S
C876 C874 1.378 . S
C876 C877 1.367 . S
C877 C876 1.367 . S
C877 C879 1.433 . S
C878 C874 1.350 . S
C878 C875 1.463 . S
C878 N882 1.427 . S
C879 H869 0.929 . S
C879 C877 1.433 . S
C879 N882 1.384 . S
C880 H871 0.929 . S
C880 C872 1.378 . S
C880 C875 1.350 . S
C881 H868 0.929 . S
C881 C873 1.433 . S
C881 N883 1.384 . S
N882 C878 1.427 . S
N882 C879 1.384 . S
N883 C875 1.427 . S
N883 C881 1.384 . S
H884 C890 0.930 . S
H885 C894 0.930 . S
H886 C899 0.929 . S
H887 C897 0.929 . S
H888 C892 0.929 . S
H889 C898 0.929 . S
C890 H884 0.930 . S
C890 C891 1.367 . S
C890 C898 1.378 . S
C891 C890 1.367 . S
C891 C899 1.433 . S
C892 H888 0.929 . S
C892 C894 1.378 . S
C892 C896 1.350 . S
C893 C896 1.463 . S
C893 C898 1.350 . S
C893 N901 1.427 . S
C894 H885 0.930 . S
C894 C892 1.378 . S
C894 C895 1.367 . S
C895 C894 1.367 . S
C895 C897 1.433 . S
C896 C892 1.350 . S
C896 C893 1.463 . S
C896 N900 1.427 . S
C897 H887 0.929 . S
C897 C895 1.433 . S
C897 N900 1.384 . S
C898 H889 0.929 . S
C898 C890 1.378 . S
C898 C893 1.350 . S
C899 H886 0.929 . S
C899 C891 1.433 . S
C899 N901 1.384 . S
N900 C896 1.427 . S
N900 C897 1.384 . S
N901 C893 1.427 . S
N901 C899 1.384 . S
H902 C908 0.930 . S
H903 C912 0.930 . S
H904 C917 0.929 . S
H905 C915 0.929 . S
H906 C910 0.929 . S
H907 C916 0.929 . S
C908 H902 0.930 . S
C908 C909 1.367 . S
C908 C916 1.378 . S
C909 C908 1.367 . S
C909 C917 1.433 . S
C910 H906 0.929 . S
C910 C912 1.378 . S
C910 C914 1.350 . S
C911 C914 1.463 . S
C911 C916 1.350 . S
C911 N919 1.427 . S
C912 H903 0.930 . S
C912 C910 1.378 . S
C912 C913 1.367 . S
C913 C912 1.367 . S
C913 C915 1.433 . S
C914 C910 1.350 . S
C914 C911 1.463 . S
C914 N918 1.427 . S
C915 H905 0.929 . S
C915 C913 1.433 . S
C915 N918 1.384 . S
C916 H907 0.929 . S
C916 C908 1.378 . S
C916 C911 1.350 . S
C917 H904 0.929 . S
C917 C909 1.433 . S
C917 N919 1.384 . S
N918 C914 1.427 . S
N918 C915 1.384 . S
N919 C911 1.427 . S
N919 C917 1.384 . S
H920 C926 0.930 . S
H921 C930 0.930 . S
H922 C935 0.929 . S
H923 C933 0.929 . S
H924 C928 0.929 . S
H925 C934 0.929 . S
C926 H920 0.930 . S
C926 C927 1.367 . S
C926 C934 1.378 . S
C927 C926 1.367 . S
C927 C935 1.433 . S
C928 H924 0.929 . S
C928 C930 1.378 . S
C928 C932 1.350 . S
C929 C932 1.463 . S
C929 C934 1.350 . S
C929 N937 1.427 . S
C930 H921 0.930 . S
C930 C928 1.378 . S
C930 C931 1.367 . S
C931 C930 1.367 . S
C931 C933 1.433 . S
C932 C928 1.350 . S
C932 C929 1.463 . S
C932 N936 1.427 . S
C933 H923 0.929 . S
C933 C931 1.433 . S
C933 N936 1.384 . S
C934 H925 0.929 . S
C934 C926 1.378 . S
C934 C929 1.350 . S
C935 H922 0.929 . S
C935 C927 1.433 . S
C935 N937 1.384 . S
N936 C932 1.427 . S
N936 C933 1.384 . S
N937 C929 1.427 . S
N937 C935 1.384 . S
H938 C944 0.930 . S
H939 C948 0.930 . S
H940 C953 0.929 . S
H941 C951 0.929 . S
H942 C946 0.929 . S
H943 C952 0.929 . S
C944 H938 0.930 . S
C944 C945 1.367 . S
C944 C952 1.378 . S
C945 C944 1.367 . S
C945 C953 1.433 . S
C946 H942 0.929 . S
C946 C948 1.378 . S
C946 C950 1.350 . S
C947 C950 1.463 . S
C947 C952 1.350 . S
C947 N955 1.427 . S
C948 H939 0.930 . S
C948 C946 1.378 . S
C948 C949 1.367 . S
C949 C948 1.367 . S
C949 C951 1.433 . S
C950 C946 1.350 . S
C950 C947 1.463 . S
C950 N954 1.427 . S
C951 H941 0.929 . S
C951 C949 1.433 . S
C951 N954 1.384 . S
C952 H943 0.929 . S
C952 C944 1.378 . S
C952 C947 1.350 . S
C953 H940 0.929 . S
C953 C945 1.433 . S
C953 N955 1.384 . S
N954 C950 1.427 . S
N954 C951 1.384 . S
N955 C947 1.427 . S
N955 C953 1.384 . S
H956 C962 0.930 . S
H957 C966 0.930 . S
H958 C971 0.929 . S
H959 C969 0.929 . S
H960 C964 0.929 . S
H961 C970 0.929 . S
C962 H956 0.930 . S
C962 C963 1.367 . S
C962 C970 1.378 . S
C963 C962 1.367 . S
C963 C971 1.433 . S
C964 H960 0.929 . S
C964 C966 1.378 . S
C964 C968 1.350 . S
C965 C968 1.463 . S
C965 C970 1.350 . S
C965 N973 1.427 . S
C966 H957 0.930 . S
C966 C964 1.378 . S
C966 C967 1.367 . S
C967 C966 1.367 . S
C967 C969 1.433 . S
C968 C964 1.350 . S
C968 C965 1.463 . S
C968 N972 1.427 . S
C969 H959 0.929 . S
C969 C967 1.433 . S
C969 N972 1.384 . S
C970 H961 0.929 . S
C970 C962 1.378 . S
C970 C965 1.350 . S
C971 H958 0.929 . S
C971 C963 1.433 . S
C971 N973 1.384 . S
N972 C968 1.427 . S
N972 C969 1.384 . S
N973 C965 1.427 . S
N973 C971 1.384 . S
H974 C980 0.930 . S
H975 C984 0.930 . S
H976 C989 0.929 . S
H977 C987 0.929 . S
H978 C982 0.929 . S
H979 C988 0.929 . S
C980 H974 0.930 . S
C980 C981 1.367 . S
C980 C988 1.378 . S
C981 C980 1.367 . S
C981 C989 1.433 . S
C982 H978 0.929 . S
C982 C984 1.378 . S
C982 C986 1.350 . S
C983 C986 1.463 . S
C983 C988 1.350 . S
C983 N991 1.427 . S
C984 H975 0.930 . S
C984 C982 1.378 . S
C984 C985 1.367 . S
C985 C984 1.367 . S
C985 C987 1.433 . S
C986 C982 1.350 . S
C986 C983 1.463 . S
C986 N990 1.427 . S
C987 H977 0.929 . S
C987 C985 1.433 . S
C987 N990 1.384 . S
C988 H979 0.929 . S
C988 C980 1.378 . S
C988 C983 1.350 . S
C989 H976 0.929 . S
C989 C981 1.433 . S
C989 N991 1.384 . S
N990 C986 1.427 . S
N990 C987 1.384 . S
N991 C983 1.427 . S
N991 C989 1.384 . S
H992 C998 0.930 . S
H993 C1002 0.930 . S
H994 C1007 0.929 . S
H995 C1005 0.929 . S
H996 C1000 0.929 . S
H997 C1006 0.929 . S
C998 H992 0.930 . S
C998 C999 1.367 . S
C998 C1006 1.378 . S
C999 C998 1.367 . S
C999 C1007 1.433 . S
C1000 H996 0.929 . S
C1000 C1002 1.378 . S
C1000 C1004 1.350 . S
C1001 C1004 1.463 . S
C1001 C1006 1.350 . S
C1001 N1009 1.427 . S
C1002 H993 0.930 . S
C1002 C1000 1.378 . S
C1002 C1003 1.367 . S
C1003 C1002 1.367 . S
C1003 C1005 1.433 . S
C1004 C1000 1.350 . S
C1004 C1001 1.463 . S
C1004 N1008 1.427 . S
C1005 H995 0.929 . S
C1005 C1003 1.433 . S
C1005 N1008 1.384 . S
C1006 H997 0.929 . S
C1006 C998 1.378 . S
C1006 C1001 1.350 . S
C1007 H994 0.929 . S
C1007 C999 1.433 . S
C1007 N1009 1.384 . S
N1008 C1004 1.427 . S
N1008 C1005 1.384 . S
N1009 C1001 1.427 . S
N1009 C1007 1.384 . S
H1010 C1016 0.930 . S
H1011 C1020 0.930 . S
H1012 C1025 0.929 . S
H1013 C1023 0.929 . S
H1014 C1018 0.929 1_455 S
H1015 C1024 0.929 1_655 S
C1016 H1010 0.930 . S
C1016 C1017 1.367 . S
C1016 C1024 1.378 . S
C1017 C1016 1.367 . S
C1017 C1025 1.433 1_565 S
C1018 H1014 0.929 1_655 S
C1018 C1020 1.378 . S
C1018 C1022 1.350 . S
C1019 C1022 1.463 1_465 S
C1019 C1024 1.350 . S
C1019 N1027 1.427 1_565 S
C1020 H1011 0.930 . S
C1020 C1018 1.378 . S
C1020 C1021 1.367 . S
C1021 C1020 1.367 . S
C1021 C1023 1.433 1_545 S
C1022 C1018 1.350 . S
C1022 C1019 1.463 1_645 S
C1022 N1026 1.427 1_545 S
C1023 H1013 0.929 . S
C1023 C1021 1.433 1_565 S
C1023 N1026 1.384 . S
C1024 H1015 0.929 1_455 S
C1024 C1016 1.378 . S
C1024 C1019 1.350 . S
C1025 H1012 0.929 . S
C1025 C1017 1.433 1_545 S
C1025 N1027 1.384 . S
N1026 C1022 1.427 1_565 S
N1026 C1023 1.384 . S
N1027 C1019 1.427 1_545 S
N1027 C1025 1.384 . S
H1028 C1034 0.930 . S
H1029 C1038 0.930 . S
H1030 C1043 0.929 . S
H1031 C1041 0.929 . S
H1032 C1036 0.929 . S
H1033 C1042 0.929 . S
C1034 H1028 0.930 . S
C1034 C1035 1.367 . S
C1034 C1042 1.378 . S
C1035 C1034 1.367 . S
C1035 C1043 1.433 . S
C1036 H1032 0.929 . S
C1036 C1038 1.378 . S
C1036 C1040 1.350 . S
C1037 C1040 1.463 . S
C1037 C1042 1.350 . S
C1037 N1045 1.427 . S
C1038 H1029 0.930 . S
C1038 C1036 1.378 . S
C1038 C1039 1.367 . S
C1039 C1038 1.367 . S
C1039 C1041 1.433 . S
C1040 C1036 1.350 . S
C1040 C1037 1.463 . S
C1040 N1044 1.427 . S
C1041 H1031 0.929 . S
C1041 C1039 1.433 . S
C1041 N1044 1.384 . S
C1042 H1033 0.929 . S
C1042 C1034 1.378 . S
C1042 C1037 1.350 . S
C1043 H1030 0.929 . S
C1043 C1035 1.433 . S
C1043 N1045 1.384 . S
N1044 C1040 1.427 . S
N1044 C1041 1.384 . S
N1045 C1037 1.427 . S
N1045 C1043 1.384 . S
H1046 C1052 0.930 . S
H1047 C1056 0.930 . S
H1048 C1061 0.929 . S
H1049 C1059 0.929 . S
H1050 C1054 0.929 . S
H1051 C1060 0.929 . S
C1052 H1046 0.930 . S
C1052 C1053 1.367 1_565 S
C1052 C1060 1.378 . S
C1053 C1052 1.367 1_545 S
C1053 C1061 1.433 . S
C1054 H1050 0.929 . S
C1054 C1056 1.378 . S
C1054 C1058 1.350 1_545 S
C1055 C1058 1.463 1_544 S
C1055 C1060 1.350 1_545 S
C1055 N1063 1.427 . S
C1056 H1047 0.930 . S
C1056 C1054 1.378 . S
C1056 C1057 1.367 1_545 S
C1057 C1056 1.367 1_565 S
C1057 C1059 1.433 . S
C1058 C1054 1.350 1_565 S
C1058 C1055 1.463 1_566 S
C1058 N1062 1.427 . S
C1059 H1049 0.929 . S
C1059 C1057 1.433 . S
C1059 N1062 1.384 . S
C1060 H1051 0.929 . S
C1060 C1052 1.378 . S
C1060 C1055 1.350 1_565 S
C1061 H1048 0.929 . S
C1061 C1053 1.433 . S
C1061 N1063 1.384 . S
N1062 C1058 1.427 . S
N1062 C1059 1.384 . S
N1063 C1055 1.427 . S
N1063 C1061 1.384 . S
H1064 C1070 0.930 . S
H1065 C1074 0.930 . S
H1066 C1079 0.929 . S
H1067 C1077 0.929 . S
H1068 C1072 0.929 . S
H1069 C1078 0.929 . S
C1070 H1064 0.930 . S
C1070 C1071 1.367 . S
C1070 C1078 1.378 . S
C1071 C1070 1.367 . S
C1071 C1079 1.433 . S
C1072 H1068 0.929 . S
C1072 C1074 1.378 . S
C1072 C1076 1.350 . S
C1073 C1076 1.463 . S
C1073 C1078 1.350 . S
C1073 N1081 1.427 . S
C1074 H1065 0.930 . S
C1074 C1072 1.378 . S
C1074 C1075 1.367 . S
C1075 C1074 1.367 . S
C1075 C1077 1.433 . S
C1076 C1072 1.350 . S
C1076 C1073 1.463 . S
C1076 N1080 1.427 . S
C1077 H1067 0.929 . S
C1077 C1075 1.433 . S
C1077 N1080 1.384 . S
C1078 H1069 0.929 . S
C1078 C1070 1.378 . S
C1078 C1073 1.350 . S
C1079 H1066 0.929 . S
C1079 C1071 1.433 . S
C1079 N1081 1.384 . S
N1080 C1076 1.427 . S
N1080 C1077 1.384 . S
N1081 C1073 1.427 . S
N1081 C1079 1.384 . S
H1082 C1088 0.930 . S
H1083 C1092 0.930 . S
H1084 C1097 0.926 1_545 S
H1085 C1095 0.928 1_565 S
H1086 C1090 0.929 . S
H1087 C1096 0.929 . S
C1088 H1082 0.930 . S
C1088 C1089 1.367 . S
C1088 C1096 1.378 . S
C1089 C1088 1.367 . S
C1089 C1097 1.439 . S
C1090 H1086 0.929 . S
C1090 C1092 1.378 . S
C1090 C1094 1.350 . S
C1091 C1094 1.463 1_565 S
C1091 C1096 1.350 . S
C1091 N1099 1.427 1_565 S
C1092 H1083 0.930 . S
C1092 C1090 1.378 . S
C1092 C1093 1.367 . S
C1093 C1092 1.367 . S
C1093 C1095 1.435 . S
C1094 C1090 1.350 . S
C1094 C1091 1.463 1_545 S
C1094 N1098 1.427 1_545 S
C1095 H1085 0.928 1_545 S
C1095 C1093 1.435 . S
C1095 N1098 1.383 1_545 S
C1096 H1087 0.929 . S
C1096 C1088 1.378 . S
C1096 C1091 1.350 . S
C1097 H1084 0.926 1_565 S
C1097 C1089 1.439 . S
C1097 N1099 1.381 1_565 S
N1098 C1094 1.427 1_565 S
N1098 C1095 1.383 1_565 S
N1099 C1091 1.427 1_545 S
N1099 C1097 1.381 1_545 S
H1100 C1106 0.930 . S
H1101 C1110 0.930 . S
H1102 C1115 0.929 . S
H1103 C1113 0.929 . S
H1104 C1108 0.929 . S
H1105 C1114 0.929 . S
C1106 H1100 0.930 . S
C1106 C1107 1.367 . S
C1106 C1114 1.378 . S
C1107 C1106 1.367 . S
C1107 C1115 1.433 . S
C1108 H1104 0.929 . S
C1108 C1110 1.378 . S
C1108 C1112 1.350 . S
C1109 C1112 1.463 . S
C1109 C1114 1.350 . S
C1109 N1117 1.427 . S
C1110 H1101 0.930 . S
C1110 C1108 1.378 . S
C1110 C1111 1.367 . S
C1111 C1110 1.367 . S
C1111 C1113 1.433 . S
C1112 C1108 1.350 . S
C1112 C1109 1.463 . S
C1112 N1116 1.427 . S
C1113 H1103 0.929 . S
C1113 C1111 1.433 . S
C1113 N1116 1.384 . S
C1114 H1105 0.929 . S
C1114 C1106 1.378 . S
C1114 C1109 1.350 . S
C1115 H1102 0.929 . S
C1115 C1107 1.433 . S
C1115 N1117 1.384 . S
N1116 C1112 1.427 . S
N1116 C1113 1.384 . S
N1117 C1109 1.427 . S
N1117 C1115 1.384 . S
H1118 C1124 0.930 . S
H1119 C1128 0.930 . S
H1120 C1133 0.929 1_655 S
H1121 C1131 0.929 1_455 S
H1122 C1126 0.929 . S
H1123 C1132 0.929 . S
C1124 H1118 0.930 . S
C1124 C1125 1.367 1_565 S
C1124 C1132 1.378 . S
C1125 C1124 1.367 1_545 S
C1125 C1133 1.433 . S
C1126 H1122 0.929 . S
C1126 C1128 1.378 . S
C1126 C1130 1.350 1_545 S
C1127 C1130 1.463 1_446 S
C1127 C1132 1.350 1_545 S
C1127 N1135 1.427 1_455 S
C1128 H1119 0.930 . S
C1128 C1126 1.378 . S
C1128 C1129 1.367 1_545 S
C1129 C1128 1.367 1_565 S
C1129 C1131 1.433 . S
C1130 C1126 1.350 1_565 S
C1130 C1127 1.463 1_664 S
C1130 N1134 1.427 1_655 S
C1131 H1121 0.929 1_655 S
C1131 C1129 1.433 . S
C1131 N1134 1.384 1_655 S
C1132 H1123 0.929 . S
C1132 C1124 1.378 . S
C1132 C1127 1.350 1_565 S
C1133 H1120 0.929 1_455 S
C1133 C1125 1.433 . S
C1133 N1135 1.384 1_455 S
N1134 C1130 1.427 1_455 S
N1134 C1131 1.384 1_455 S
N1135 C1127 1.427 1_655 S
N1135 C1133 1.384 1_655 S
H1136 C1142 0.930 . S
H1137 C1146 0.930 . S
H1138 C1151 0.929 . S
H1139 C1149 0.929 . S
H1140 C1144 0.929 . S
H1141 C1150 0.929 . S
C1142 H1136 0.930 . S
C1142 C1143 1.367 . S
C1142 C1150 1.378 . S
C1143 C1142 1.367 . S
C1143 C1151 1.433 . S
C1144 H1140 0.929 . S
C1144 C1146 1.378 . S
C1144 C1148 1.350 . S
C1145 C1148 1.463 . S
C1145 C1150 1.350 . S
C1145 N1153 1.427 . S
C1146 H1137 0.930 . S
C1146 C1144 1.378 . S
C1146 C1147 1.367 . S
C1147 C1146 1.367 . S
C1147 C1149 1.433 . S
C1148 C1144 1.350 . S
C1148 C1145 1.463 . S
C1148 N1152 1.427 . S
C1149 H1139 0.929 . S
C1149 C1147 1.433 . S
C1149 N1152 1.384 . S
C1150 H1141 0.929 . S
C1150 C1142 1.378 . S
C1150 C1145 1.350 . S
C1151 H1138 0.929 . S
C1151 C1143 1.433 . S
C1151 N1153 1.384 . S
N1152 C1148 1.427 . S
N1152 C1149 1.384 . S
N1153 C1145 1.427 . S
N1153 C1151 1.384 . S
H1154 C1160 0.930 . S
H1155 C1164 0.930 . S
H1156 C1169 0.929 . S
H1157 C1167 0.929 . S
H1158 C1162 0.929 . S
H1159 C1168 0.929 . S
C1160 H1154 0.930 . S
C1160 C1161 1.367 . S
C1160 C1168 1.378 . S
C1161 C1160 1.367 . S
C1161 C1169 1.433 . S
C1162 H1158 0.929 . S
C1162 C1164 1.378 . S
C1162 C1166 1.350 . S
C1163 C1166 1.463 . S
C1163 C1168 1.350 . S
C1163 N1171 1.427 . S
C1164 H1155 0.930 . S
C1164 C1162 1.378 . S
C1164 C1165 1.367 . S
C1165 C1164 1.367 . S
C1165 C1167 1.433 . S
C1166 C1162 1.350 . S
C1166 C1163 1.463 . S
C1166 N1170 1.427 . S
C1167 H1157 0.929 . S
C1167 C1165 1.433 . S
C1167 N1170 1.384 . S
C1168 H1159 0.929 . S
C1168 C1160 1.378 . S
C1168 C1163 1.350 . S
C1169 H1156 0.929 . S
C1169 C1161 1.433 . S
C1169 N1171 1.384 . S
N1170 C1166 1.427 . S
N1170 C1167 1.384 . S
N1171 C1163 1.427 . S
N1171 C1169 1.384 . S
H1172 C1178 0.930 . S
H1173 C1182 0.930 . S
H1174 C1187 0.929 . S
H1175 C1185 0.929 . S
H1176 C1180 0.929 . S
H1177 C1186 0.929 . S
C1178 H1172 0.930 . S
C1178 C1179 1.367 . S
C1178 C1186 1.378 . S
C1179 C1178 1.367 . S
C1179 C1187 1.433 . S
C1180 H1176 0.929 . S
C1180 C1182 1.378 . S
C1180 C1184 1.350 . S
C1181 C1184 1.463 . S
C1181 C1186 1.350 . S
C1181 N1189 1.427 . S
C1182 H1173 0.930 . S
C1182 C1180 1.378 . S
C1182 C1183 1.367 . S
C1183 C1182 1.367 . S
C1183 C1185 1.433 . S
C1184 C1180 1.350 . S
C1184 C1181 1.463 . S
C1184 N1188 1.427 . S
C1185 H1175 0.929 . S
C1185 C1183 1.433 . S
C1185 N1188 1.384 . S
C1186 H1177 0.929 . S
C1186 C1178 1.378 . S
C1186 C1181 1.350 . S
C1187 H1174 0.929 . S
C1187 C1179 1.433 . S
C1187 N1189 1.384 . S
N1188 C1184 1.427 . S
N1188 C1185 1.384 . S
N1189 C1181 1.427 . S
N1189 C1187 1.384 . S
H1190 C1196 0.930 . S
H1191 C1200 0.930 . S
H1192 C1205 0.929 . S
H1193 C1203 0.929 . S
H1194 C1198 0.929 . S
H1195 C1204 0.929 . S
C1196 H1190 0.930 . S
C1196 C1197 1.367 . S
C1196 C1204 1.378 . S
C1197 C1196 1.367 . S
C1197 C1205 1.433 . S
C1198 H1194 0.929 . S
C1198 C1200 1.378 . S
C1198 C1202 1.350 . S
C1199 C1202 1.463 . S
C1199 C1204 1.350 . S
C1199 N1207 1.427 . S
C1200 H1191 0.930 . S
C1200 C1198 1.378 . S
C1200 C1201 1.367 . S
C1201 C1200 1.367 . S
C1201 C1203 1.433 . S
C1202 C1198 1.350 . S
C1202 C1199 1.463 . S
C1202 N1206 1.427 . S
C1203 H1193 0.929 . S
C1203 C1201 1.433 . S
C1203 N1206 1.384 . S
C1204 H1195 0.929 . S
C1204 C1196 1.378 . S
C1204 C1199 1.350 . S
C1205 H1192 0.929 . S
C1205 C1197 1.433 . S
C1205 N1207 1.384 . S
N1206 C1202 1.427 . S
N1206 C1203 1.384 . S
N1207 C1199 1.427 . S
N1207 C1205 1.384 . S
H1208 C1214 0.930 . S
H1209 C1218 0.930 . S
H1210 C1223 0.929 . S
H1211 C1221 0.929 . S
H1212 C1216 0.929 . S
H1213 C1222 0.929 . S
C1214 H1208 0.930 . S
C1214 C1215 1.367 . S
C1214 C1222 1.378 . S
C1215 C1214 1.367 . S
C1215 C1223 1.433 . S
C1216 H1212 0.929 . S
C1216 C1218 1.378 . S
C1216 C1220 1.350 . S
C1217 C1220 1.463 1_554 S
C1217 C1222 1.350 . S
C1217 N1225 1.427 . S
C1218 H1209 0.930 . S
C1218 C1216 1.378 . S
C1218 C1219 1.367 . S
C1219 C1218 1.367 . S
C1219 C1221 1.433 . S
C1220 C1216 1.350 . S
C1220 C1217 1.463 1_556 S
C1220 N1224 1.427 . S
C1221 H1211 0.929 . S
C1221 C1219 1.433 . S
C1221 N1224 1.384 . S
C1222 H1213 0.929 . S
C1222 C1214 1.378 . S
C1222 C1217 1.350 . S
C1223 H1210 0.929 . S
C1223 C1215 1.433 . S
C1223 N1225 1.384 . S
N1224 C1220 1.427 . S
N1224 C1221 1.384 . S
N1225 C1217 1.427 . S
N1225 C1223 1.384 . S
H1226 C1232 0.930 . S
H1227 C1236 0.930 . S
H1228 C1241 0.929 . S
H1229 C1239 0.929 . S
H1230 C1234 0.923 1_455 S
H1231 C1240 0.921 1_655 S
C1232 H1226 0.930 . S
C1232 C1233 1.367 . S
C1232 C1240 1.378 . S
C1233 C1232 1.367 . S
C1233 C1241 1.433 . S
C1234 H1230 0.923 1_655 S
C1234 C1236 1.378 . S
C1234 C1238 1.350 . S
C1235 C1238 1.463 1_455 S
C1235 C1240 1.350 . S
C1235 N1243 1.427 . S
C1236 H1227 0.930 . S
C1236 C1234 1.378 . S
C1236 C1237 1.367 . S
C1237 C1236 1.367 . S
C1237 C1239 1.433 . S
C1238 C1234 1.350 . S
C1238 C1235 1.463 1_655 S
C1238 N1242 1.427 . S
C1239 H1229 0.929 . S
C1239 C1237 1.433 . S
C1239 N1242 1.384 . S
C1240 H1231 0.921 1_455 S
C1240 C1232 1.378 . S
C1240 C1235 1.350 . S
C1241 H1228 0.929 . S
C1241 C1233 1.433 . S
C1241 N1243 1.384 . S
N1242 C1238 1.427 . S
N1242 C1239 1.384 . S
N1243 C1235 1.427 . S
N1243 C1241 1.384 . S
H1244 C1250 0.930 . S
H1245 C1254 0.930 . S
H1246 C1259 0.911 1_655 S
H1247 C1257 0.929 1_455 S
H1248 C1252 0.952 . S
H1249 C1258 0.927 1_556 S
C1250 H1244 0.930 . S
C1250 C1251 1.367 . S
C1250 C1258 1.378 . S
C1251 C1250 1.367 . S
C1251 C1259 1.466 . S
C1252 H1248 0.952 . S
C1252 C1254 1.378 . S
C1252 C1256 1.350 . S
C1253 C1256 1.463 1_454 S
C1253 C1258 1.350 . S
C1253 N1261 1.427 1_455 S
C1254 H1245 0.930 . S
C1254 C1252 1.378 . S
C1254 C1255 1.367 . S
C1255 C1254 1.367 . S
C1255 C1257 1.433 . S
C1256 C1252 1.350 . S
C1256 C1253 1.463 1_656 S
C1256 N1260 1.427 1_655 S
C1257 H1247 0.929 1_655 S
C1257 C1255 1.433 . S
C1257 N1260 1.384 1_655 S
C1258 H1249 0.927 1_554 S
C1258 C1250 1.378 . S
C1258 C1253 1.350 . S
C1259 H1246 0.911 1_455 S
C1259 C1251 1.466 . S
C1259 N1261 1.370 1_455 S
N1260 C1256 1.427 1_455 S
N1260 C1257 1.384 1_455 S
N1261 C1253 1.427 1_655 S
N1261 C1259 1.370 1_655 S
H1262 C1268 0.930 . S
H1263 C1272 0.930 . S
H1264 C1277 0.929 . S
H1265 C1275 0.929 . S
H1266 C1270 0.929 . S
H1267 C1276 0.929 . S
C1268 H1262 0.930 . S
C1268 C1269 1.367 . S
C1268 C1276 1.378 . S
C1269 C1268 1.367 . S
C1269 C1277 1.433 . S
C1270 H1266 0.929 . S
C1270 C1272 1.378 . S
C1270 C1274 1.350 . S
C1271 C1274 1.463 . S
C1271 C1276 1.350 . S
C1271 N1279 1.427 . S
C1272 H1263 0.930 . S
C1272 C1270 1.378 . S
C1272 C1273 1.367 . S
C1273 C1272 1.367 . S
C1273 C1275 1.433 . S
C1274 C1270 1.350 . S
C1274 C1271 1.463 . S
C1274 N1278 1.427 . S
C1275 H1265 0.929 . S
C1275 C1273 1.433 . S
C1275 N1278 1.384 . S
C1276 H1267 0.929 . S
C1276 C1268 1.378 . S
C1276 C1271 1.350 . S
C1277 H1264 0.929 . S
C1277 C1269 1.433 . S
C1277 N1279 1.384 . S
N1278 C1274 1.427 . S
N1278 C1275 1.384 . S
N1279 C1271 1.427 . S
N1279 C1277 1.384 . S
H1280 C1286 0.930 . S
H1281 C1290 0.930 . S
H1282 C1295 0.929 . S
H1283 C1293 0.929 . S
H1284 C1288 0.929 . S
H1285 C1294 0.929 . S
C1286 H1280 0.930 . S
C1286 C1287 1.367 . S
C1286 C1294 1.378 . S
C1287 C1286 1.367 . S
C1287 C1295 1.433 . S
C1288 H1284 0.929 . S
C1288 C1290 1.378 . S
C1288 C1292 1.350 . S
C1289 C1292 1.463 . S
C1289 C1294 1.350 . S
C1289 N1297 1.427 . S
C1290 H1281 0.930 . S
C1290 C1288 1.378 . S
C1290 C1291 1.367 . S
C1291 C1290 1.367 . S
C1291 C1293 1.433 . S
C1292 C1288 1.350 . S
C1292 C1289 1.463 . S
C1292 N1296 1.427 . S
C1293 H1283 0.929 . S
C1293 C1291 1.433 . S
C1293 N1296 1.384 . S
C1294 H1285 0.929 . S
C1294 C1286 1.378 . S
C1294 C1289 1.350 . S
C1295 H1282 0.929 . S
C1295 C1287 1.433 . S
C1295 N1297 1.384 . S
N1296 C1292 1.427 . S
N1296 C1293 1.384 . S
N1297 C1289 1.427 . S
N1297 C1295 1.384 . S
H1298 C1304 0.930 . S
H1299 C1308 0.930 . S
H1300 C1313 0.929 . S
H1301 C1311 0.929 . S
H1302 C1306 0.929 . S
H1303 C1312 0.929 . S
C1304 H1298 0.930 . S
C1304 C1305 1.367 . S
C1304 C1312 1.378 . S
C1305 C1304 1.367 . S
C1305 C1313 1.433 . S
C1306 H1302 0.929 . S
C1306 C1308 1.378 . S
C1306 C1310 1.350 . S
C1307 C1310 1.463 . S
C1307 C1312 1.350 . S
C1307 N1315 1.427 . S
C1308 H1299 0.930 . S
C1308 C1306 1.378 . S
C1308 C1309 1.367 . S
C1309 C1308 1.367 . S
C1309 C1311 1.433 . S
C1310 C1306 1.350 . S
C1310 C1307 1.463 . S
C1310 N1314 1.427 . S
C1311 H1301 0.929 . S
C1311 C1309 1.433 . S
C1311 N1314 1.384 . S
C1312 H1303 0.929 . S
C1312 C1304 1.378 . S
C1312 C1307 1.350 . S
C1313 H1300 0.929 . S
C1313 C1305 1.433 . S
C1313 N1315 1.384 . S
N1314 C1310 1.427 . S
N1314 C1311 1.384 . S
N1315 C1307 1.427 . S
N1315 C1313 1.384 . S
H1316 C1322 0.930 . S
H1317 C1326 0.930 . S
H1318 C1331 0.929 . S
H1319 C1329 0.929 . S
H1320 C1324 0.929 . S
H1321 C1330 0.929 . S
C1322 H1316 0.930 . S
C1322 C1323 1.367 . S
C1322 C1330 1.378 . S
C1323 C1322 1.367 . S
C1323 C1331 1.433 . S
C1324 H1320 0.929 . S
C1324 C1326 1.378 . S
C1324 C1328 1.350 . S
C1325 C1328 1.463 . S
C1325 C1330 1.350 . S
C1325 N1333 1.427 . S
C1326 H1317 0.930 . S
C1326 C1324 1.378 . S
C1326 C1327 1.367 . S
C1327 C1326 1.367 . S
C1327 C1329 1.433 . S
C1328 C1324 1.350 . S
C1328 C1325 1.463 . S
C1328 N1332 1.427 . S
C1329 H1319 0.929 . S
C1329 C1327 1.433 . S
C1329 N1332 1.384 . S
C1330 H1321 0.929 . S
C1330 C1322 1.378 . S
C1330 C1325 1.350 . S
C1331 H1318 0.929 . S
C1331 C1323 1.433 . S
C1331 N1333 1.384 . S
N1332 C1328 1.427 . S
N1332 C1329 1.384 . S
N1333 C1325 1.427 . S
N1333 C1331 1.384 . S
H1334 C1340 0.930 . S
H1335 C1344 0.930 . S
H1336 C1349 0.929 . S
H1337 C1347 0.929 . S
H1338 C1342 0.929 . S
H1339 C1348 0.929 . S
C1340 H1334 0.930 . S
C1340 C1341 1.367 . S
C1340 C1348 1.378 . S
C1341 C1340 1.367 . S
C1341 C1349 1.433 . S
C1342 H1338 0.929 . S
C1342 C1344 1.378 . S
C1342 C1346 1.350 . S
C1343 C1346 1.463 . S
C1343 C1348 1.350 . S
C1343 N1351 1.427 . S
C1344 H1335 0.930 . S
C1344 C1342 1.378 . S
C1344 C1345 1.367 . S
C1345 C1344 1.367 . S
C1345 C1347 1.433 . S
C1346 C1342 1.350 . S
C1346 C1343 1.463 . S
C1346 N1350 1.427 . S
C1347 H1337 0.929 . S
C1347 C1345 1.433 . S
C1347 N1350 1.384 . S
C1348 H1339 0.929 . S
C1348 C1340 1.378 . S
C1348 C1343 1.350 . S
C1349 H1336 0.929 . S
C1349 C1341 1.433 . S
C1349 N1351 1.384 . S
N1350 C1346 1.427 . S
N1350 C1347 1.384 . S
N1351 C1343 1.427 . S
N1351 C1349 1.384 . S
H1352 C1358 0.930 . S
H1353 C1362 0.930 . S
H1354 C1367 0.929 . S
H1355 C1365 0.929 . S
H1356 C1360 0.929 . S
H1357 C1366 0.929 . S
C1358 H1352 0.930 . S
C1358 C1359 1.367 . S
C1358 C1366 1.378 . S
C1359 C1358 1.367 . S
C1359 C1367 1.433 . S
C1360 H1356 0.929 . S
C1360 C1362 1.378 . S
C1360 C1364 1.350 . S
C1361 C1364 1.463 . S
C1361 C1366 1.350 . S
C1361 N1369 1.427 . S
C1362 H1353 0.930 . S
C1362 C1360 1.378 . S
C1362 C1363 1.367 . S
C1363 C1362 1.367 . S
C1363 C1365 1.433 . S
C1364 C1360 1.350 . S
C1364 C1361 1.463 . S
C1364 N1368 1.427 . S
C1365 H1355 0.929 . S
C1365 C1363 1.433 . S
C1365 N1368 1.384 . S
C1366 H1357 0.929 . S
C1366 C1358 1.378 . S
C1366 C1361 1.350 . S
C1367 H1354 0.929 . S
C1367 C1359 1.433 . S
C1367 N1369 1.384 . S
N1368 C1364 1.427 . S
N1368 C1365 1.384 . S
N1369 C1361 1.427 . S
N1369 C1367 1.384 . S
H1370 C1376 0.930 . S
H1371 C1380 0.930 . S
H1372 C1385 0.929 . S
H1373 C1383 0.929 . S
H1374 C1378 0.929 . S
H1375 C1384 0.929 . S
C1376 H1370 0.930 . S
C1376 C1377 1.367 . S
C1376 C1384 1.378 . S
C1377 C1376 1.367 . S
C1377 C1385 1.433 . S
C1378 H1374 0.929 . S
C1378 C1380 1.378 . S
C1378 C1382 1.350 . S
C1379 C1382 1.463 . S
C1379 C1384 1.350 . S
C1379 N1387 1.427 . S
C1380 H1371 0.930 . S
C1380 C1378 1.378 . S
C1380 C1381 1.367 . S
C1381 C1380 1.367 . S
C1381 C1383 1.433 . S
C1382 C1378 1.350 . S
C1382 C1379 1.463 . S
C1382 N1386 1.427 . S
C1383 H1373 0.929 . S
C1383 C1381 1.433 . S
C1383 N1386 1.384 . S
C1384 H1375 0.929 . S
C1384 C1376 1.378 . S
C1384 C1379 1.350 . S
C1385 H1372 0.929 . S
C1385 C1377 1.433 . S
C1385 N1387 1.384 . S
N1386 C1382 1.427 . S
N1386 C1383 1.384 . S
N1387 C1379 1.427 . S
N1387 C1385 1.384 . S
H1388 C1394 0.930 . S
H1389 C1398 0.930 . S
H1390 C1403 0.929 . S
H1391 C1401 0.929 . S
H1392 C1396 0.929 . S
H1393 C1402 0.929 . S
C1394 H1388 0.930 . S
C1394 C1395 1.367 . S
C1394 C1402 1.378 . S
C1395 C1394 1.367 . S
C1395 C1403 1.433 . S
C1396 H1392 0.929 . S
C1396 C1398 1.378 . S
C1396 C1400 1.350 . S
C1397 C1400 1.463 . S
C1397 C1402 1.350 . S
C1397 N1405 1.427 . S
C1398 H1389 0.930 . S
C1398 C1396 1.378 . S
C1398 C1399 1.367 . S
C1399 C1398 1.367 . S
C1399 C1401 1.433 . S
C1400 C1396 1.350 . S
C1400 C1397 1.463 . S
C1400 N1404 1.427 . S
C1401 H1391 0.929 . S
C1401 C1399 1.433 . S
C1401 N1404 1.384 . S
C1402 H1393 0.929 . S
C1402 C1394 1.378 . S
C1402 C1397 1.350 . S
C1403 H1390 0.929 . S
C1403 C1395 1.433 . S
C1403 N1405 1.384 . S
N1404 C1400 1.427 . S
N1404 C1401 1.384 . S
N1405 C1397 1.427 . S
N1405 C1403 1.384 . S
H1406 C1412 0.930 1_565 S
H1407 C1416 0.930 . S
H1408 C1421 0.929 . S
H1409 C1419 0.929 . S
H1410 C1414 0.929 . S
H1411 C1420 0.929 . S
C1412 H1406 0.930 1_545 S
C1412 C1413 1.367 . S
C1412 C1420 1.378 . S
C1413 C1412 1.367 . S
C1413 C1421 1.433 . S
C1414 H1410 0.929 . S
C1414 C1416 1.378 . S
C1414 C1418 1.350 . S
C1415 C1418 1.463 . S
C1415 C1420 1.350 . S
C1415 N1423 1.427 . S
C1416 H1407 0.930 . S
C1416 C1414 1.378 . S
C1416 C1417 1.367 . S
C1417 C1416 1.367 . S
C1417 C1419 1.433 . S
C1418 C1414 1.350 . S
C1418 C1415 1.463 . S
C1418 N1422 1.427 . S
C1419 H1409 0.929 . S
C1419 C1417 1.433 . S
C1419 N1422 1.384 . S
C1420 H1411 0.929 . S
C1420 C1412 1.378 . S
C1420 C1415 1.350 . S
C1421 H1408 0.929 . S
C1421 C1413 1.433 . S
C1421 N1423 1.384 . S
N1422 C1418 1.427 . S
N1422 C1419 1.384 . S
N1423 C1415 1.427 . S
N1423 C1421 1.384 . S
H1424 C1430 0.930 . S
H1425 C1434 0.930 . S
H1426 C1439 0.929 . S
H1427 C1437 0.929 . S
H1428 C1432 0.929 . S
H1429 C1438 0.929 . S
C1430 H1424 0.930 . S
C1430 C1431 1.367 . S
C1430 C1438 1.378 . S
C1431 C1430 1.367 . S
C1431 C1439 1.433 . S
C1432 H1428 0.929 . S
C1432 C1434 1.378 . S
C1432 C1436 1.350 . S
C1433 C1436 1.463 . S
C1433 C1438 1.350 . S
C1433 N1441 1.427 . S
C1434 H1425 0.930 . S
C1434 C1432 1.378 . S
C1434 C1435 1.367 . S
C1435 C1434 1.367 . S
C1435 C1437 1.433 . S
C1436 C1432 1.350 . S
C1436 C1433 1.463 . S
C1436 N1440 1.427 . S
C1437 H1427 0.929 . S
C1437 C1435 1.433 . S
C1437 N1440 1.384 . S
C1438 H1429 0.929 . S
C1438 C1430 1.378 . S
C1438 C1433 1.350 . S
C1439 H1426 0.929 . S
C1439 C1431 1.433 . S
C1439 N1441 1.384 . S
N1440 C1436 1.427 . S
N1440 C1437 1.384 . S
N1441 C1433 1.427 . S
N1441 C1439 1.384 . S
H1442 C1448 0.930 . S
H1443 C1452 0.930 . S
H1444 C1457 0.929 . S
H1445 C1455 0.929 . S
H1446 C1450 0.929 . S
H1447 C1456 0.929 . S
C1448 H1442 0.930 . S
C1448 C1449 1.367 . S
C1448 C1456 1.378 . S
C1449 C1448 1.367 . S
C1449 C1457 1.433 . S
C1450 H1446 0.929 . S
C1450 C1452 1.378 . S
C1450 C1454 1.350 . S
C1451 C1454 1.463 . S
C1451 C1456 1.350 . S
C1451 N1459 1.427 . S
C1452 H1443 0.930 . S
C1452 C1450 1.378 . S
C1452 C1453 1.367 . S
C1453 C1452 1.367 . S
C1453 C1455 1.433 . S
C1454 C1450 1.350 . S
C1454 C1451 1.463 . S
C1454 N1458 1.427 . S
C1455 H1445 0.929 . S
C1455 C1453 1.433 . S
C1455 N1458 1.384 . S
C1456 H1447 0.929 . S
C1456 C1448 1.378 . S
C1456 C1451 1.350 . S
C1457 H1444 0.929 . S
C1457 C1449 1.433 . S
C1457 N1459 1.384 . S
N1458 C1454 1.427 . S
N1458 C1455 1.384 . S
N1459 C1451 1.427 . S
N1459 C1457 1.384 . S
H1460 C1466 0.930 . S
H1461 C1470 0.930 . S
H1462 C1475 0.929 . S
H1463 C1473 0.929 . S
H1464 C1468 0.929 . S
H1465 C1474 0.929 . S
C1466 H1460 0.930 . S
C1466 C1467 1.367 . S
C1466 C1474 1.378 . S
C1467 C1466 1.367 . S
C1467 C1475 1.433 . S
C1468 H1464 0.929 . S
C1468 C1470 1.378 . S
C1468 C1472 1.350 . S
C1469 C1472 1.463 . S
C1469 C1474 1.350 . S
C1469 N1477 1.427 . S
C1470 H1461 0.930 . S
C1470 C1468 1.378 . S
C1470 C1471 1.367 . S
C1471 C1470 1.367 . S
C1471 C1473 1.433 . S
C1472 C1468 1.350 . S
C1472 C1469 1.463 . S
C1472 N1476 1.427 . S
C1473 H1463 0.929 . S
C1473 C1471 1.433 . S
C1473 N1476 1.384 . S
C1474 H1465 0.929 . S
C1474 C1466 1.378 . S
C1474 C1469 1.350 . S
C1475 H1462 0.929 . S
C1475 C1467 1.433 . S
C1475 N1477 1.384 . S
N1476 C1472 1.427 . S
N1476 C1473 1.384 . S
N1477 C1469 1.427 . S
N1477 C1475 1.384 . S
H1478 C1484 0.930 . S
H1479 C1488 0.930 . S
H1480 C1493 0.929 . S
H1481 C1491 0.929 . S
H1482 C1486 0.929 . S
H1483 C1492 0.929 . S
C1484 H1478 0.930 . S
C1484 C1485 1.367 . S
C1484 C1492 1.378 . S
C1485 C1484 1.367 . S
C1485 C1493 1.433 . S
C1486 H1482 0.929 . S
C1486 C1488 1.378 . S
C1486 C1490 1.350 . S
C1487 C1490 1.463 . S
C1487 C1492 1.350 . S
C1487 N1495 1.427 . S
C1488 H1479 0.930 . S
C1488 C1486 1.378 . S
C1488 C1489 1.367 . S
C1489 C1488 1.367 . S
C1489 C1491 1.433 . S
C1490 C1486 1.350 . S
C1490 C1487 1.463 . S
C1490 N1494 1.427 . S
C1491 H1481 0.929 . S
C1491 C1489 1.433 . S
C1491 N1494 1.384 . S
C1492 H1483 0.929 . S
C1492 C1484 1.378 . S
C1492 C1487 1.350 . S
C1493 H1480 0.929 . S
C1493 C1485 1.433 . S
C1493 N1495 1.384 . S
N1494 C1490 1.427 . S
N1494 C1491 1.384 . S
N1495 C1487 1.427 . S
N1495 C1493 1.384 . S
H1496 C1502 0.930 . S
H1497 C1506 0.930 . S
H1498 C1511 0.929 . S
H1499 C1509 0.929 . S
H1500 C1504 0.929 . S
H1501 C1510 0.929 . S
C1502 H1496 0.930 . S
C1502 C1503 1.367 . S
C1502 C1510 1.378 . S
C1503 C1502 1.367 . S
C1503 C1511 1.433 . S
C1504 H1500 0.929 . S
C1504 C1506 1.378 . S
C1504 C1508 1.350 . S
C1505 C1508 1.463 . S
C1505 C1510 1.350 . S
C1505 N1513 1.427 . S
C1506 H1497 0.930 . S
C1506 C1504 1.378 . S
C1506 C1507 1.367 . S
C1507 C1506 1.367 . S
C1507 C1509 1.433 . S
C1508 C1504 1.350 . S
C1508 C1505 1.463 . S
C1508 N1512 1.427 . S
C1509 H1499 0.929 . S
C1509 C1507 1.433 . S
C1509 N1512 1.384 . S
C1510 H1501 0.929 . S
C1510 C1502 1.378 . S
C1510 C1505 1.350 . S
C1511 H1498 0.929 . S
C1511 C1503 1.433 . S
C1511 N1513 1.384 . S
N1512 C1508 1.427 . S
N1512 C1509 1.384 . S
N1513 C1505 1.427 . S
N1513 C1511 1.384 . S
H1514 C1520 0.930 . S
H1515 C1524 0.930 . S
H1516 C1529 0.929 . S
H1517 C1527 0.929 . S
H1518 C1522 0.929 . S
H1519 C1528 0.929 . S
C1520 H1514 0.930 . S
C1520 C1521 1.367 . S
C1520 C1528 1.378 . S
C1521 C1520 1.367 . S
C1521 C1529 1.433 . S
C1522 H1518 0.929 . S
C1522 C1524 1.378 . S
C1522 C1526 1.350 . S
C1523 C1526 1.463 . S
C1523 C1528 1.350 . S
C1523 N1531 1.427 . S
C1524 H1515 0.930 . S
C1524 C1522 1.378 . S
C1524 C1525 1.367 . S
C1525 C1524 1.367 . S
C1525 C1527 1.433 . S
C1526 C1522 1.350 . S
C1526 C1523 1.463 . S
C1526 N1530 1.427 . S
C1527 H1517 0.929 . S
C1527 C1525 1.433 . S
C1527 N1530 1.384 . S
C1528 H1519 0.929 . S
C1528 C1520 1.378 . S
C1528 C1523 1.350 . S
C1529 H1516 0.929 . S
C1529 C1521 1.433 . S
C1529 N1531 1.384 . S
N1530 C1526 1.427 . S
N1530 C1527 1.384 . S
N1531 C1523 1.427 . S
N1531 C1529 1.384 . S
H1532 C1538 0.930 . S
H1533 C1542 0.930 . S
H1534 C1547 0.929 . S
H1535 C1545 0.929 . S
H1536 C1540 0.929 . S
H1537 C1546 0.929 . S
C1538 H1532 0.930 . S
C1538 C1539 1.367 . S
C1538 C1546 1.378 . S
C1539 C1538 1.367 . S
C1539 C1547 1.433 . S
C1540 H1536 0.929 . S
C1540 C1542 1.378 . S
C1540 C1544 1.350 . S
C1541 C1544 1.463 . S
C1541 C1546 1.350 . S
C1541 N1549 1.427 . S
C1542 H1533 0.930 . S
C1542 C1540 1.378 . S
C1542 C1543 1.367 . S
C1543 C1542 1.367 . S
C1543 C1545 1.433 . S
C1544 C1540 1.350 . S
C1544 C1541 1.463 . S
C1544 N1548 1.427 . S
C1545 H1535 0.929 . S
C1545 C1543 1.433 . S
C1545 N1548 1.384 . S
C1546 H1537 0.929 . S
C1546 C1538 1.378 . S
C1546 C1541 1.350 . S
C1547 H1534 0.929 . S
C1547 C1539 1.433 . S
C1547 N1549 1.384 . S
N1548 C1544 1.427 . S
N1548 C1545 1.384 . S
N1549 C1541 1.427 . S
N1549 C1547 1.384 . S
H1550 C1556 0.930 . S
H1551 C1560 0.930 . S
H1552 C1565 0.929 . S
H1553 C1563 0.929 . S
H1554 C1558 0.929 . S
H1555 C1564 0.929 . S
C1556 H1550 0.930 . S
C1556 C1557 1.367 . S
C1556 C1564 1.378 . S
C1557 C1556 1.367 . S
C1557 C1565 1.433 . S
C1558 H1554 0.929 . S
C1558 C1560 1.378 . S
C1558 C1562 1.350 . S
C1559 C1562 1.463 . S
C1559 C1564 1.350 . S
C1559 N1567 1.427 . S
C1560 H1551 0.930 . S
C1560 C1558 1.378 . S
C1560 C1561 1.367 . S
C1561 C1560 1.367 . S
C1561 C1563 1.433 . S
C1562 C1558 1.350 . S
C1562 C1559 1.463 . S
C1562 N1566 1.427 . S
C1563 H1553 0.929 . S
C1563 C1561 1.433 . S
C1563 N1566 1.384 . S
C1564 H1555 0.929 . S
C1564 C1556 1.378 . S
C1564 C1559 1.350 . S
C1565 H1552 0.929 . S
C1565 C1557 1.433 . S
C1565 N1567 1.384 . S
N1566 C1562 1.427 . S
N1566 C1563 1.384 . S
N1567 C1559 1.427 . S
N1567 C1565 1.384 . S
C423 C354 1.490 . S
C427 C5 1.496 . S
C441 C16 1.487 1_655 S
C445 C108 1.484 . S
C459 C328 1.491 . S
C463 C29 1.496 . S
C477 C42 1.487 . S
C481 C140 1.485 . S
C495 C55 1.495 . S
C499 C380 1.492 . S
C513 C68 1.483 . S
C517 C192 1.488 . S
C531 C83 1.491 . S
C535 C406 1.496 . S
C549 C96 1.485 1_655 S
C553 C166 1.485 . S
C567 C251 1.497 . S
C571 C107 1.495 . S
C585 C10 1.488 . S
C589 C127 1.484 1_455 S
C603 C225 1.497 . S
C607 C135 1.497 . S
C621 C153 1.488 . S
C625 C30 1.485 . S
C639 C277 1.498 . S
C643 C161 1.496 . S
C657 C88 1.484 . S
C661 C173 1.489 . S
C675 C187 1.494 . S
C679 C309 1.498 . S
C693 C56 1.488 . S
C697 C199 1.485 1_455 S
C711 C211 1.495 . S
C715 C148 1.492 . S
C729 C224 1.482 . S
C733 C316 1.488 . S
C747 C122 1.493 . S
C751 C237 1.494 . S
C765 C342 1.488 . S
C769 C250 1.483 1_455 S
C783 C172 1.496 . S
C787 C263 1.491 . S
C801 C394 1.487 . S
C805 C276 1.485 1_455 S
C819 C198 1.490 . S
C823 C289 1.496 . S
C837 C304 1.487 . S
C841 C368 1.484 . S
C855 C43 1.499 . S
C859 C315 1.493 . S
C873 C329 1.484 . S
C877 C212 1.486 . S
C891 C341 1.494 . S
C895 C17 1.499 . S
C909 C355 1.484 1_655 S
C913 C238 1.488 . S
C927 C367 1.495 . S
C931 C69 1.499 . S
C945 C381 1.485 1_655 S
C949 C290 1.486 . S
C963 C393 1.494 . S
C967 C101 1.498 . S
C981 C407 1.485 . S
C985 C264 1.488 . S
C999 C317 1.533 . S
C1003 C3 1.533 . S
C1017 C18 1.532 . S
C1021 C121 1.528 . S
C1035 C343 1.530 . S
C1039 C31 1.530 . S
C1053 C44 1.536 . S
C1057 C147 1.533 . S
C1071 C369 1.529 . S
C1075 C57 1.529 . S
C1089 C70 1.533 . S
C1093 C179 1.530 . S
C1107 C395 1.529 . S
C1111 C81 1.529 . S
C1125 C94 1.536 . S
C1129 C205 1.533 . S
C1143 C109 1.532 . S
C1147 C213 1.532 . S
C1161 C133 1.533 . S
C1165 C239 1.533 . S
C1179 C159 1.529 . S
C1183 C265 1.530 . S
C1197 C185 1.530 . S
C1201 C291 1.530 . S
C1215 C226 1.536 . S
C1219 C335 1.533 . S
C1233 C361 1.533 . S
C1237 C252 1.536 . S
C1251 C387 1.531 . S
C1255 C278 1.534 . S
C1269 C302 1.536 . S
C1273 C413 1.534 . S
C1287 C4 1.387 . S
C1291 C75 1.386 . S
C1305 C23 1.388 . S
C1309 C82 1.388 . S
C1323 C36 1.387 . S
C1327 C95 1.388 . S
C1341 C62 1.387 . S
C1345 C49 1.388 . S
C1359 C114 1.389 . S
C1363 C174 1.390 . S
C1377 C120 1.387 . S
C1381 C186 1.388 . S
C1395 C134 1.388 . S
C1399 C200 1.388 . S
C1413 C146 1.387 . S
C1417 C160 1.390 . S
C1431 C218 1.387 . S
C1435 C283 1.387 . S
C1449 C296 1.387 . S
C1453 C231 1.387 . S
C1467 C244 1.387 . S
C1471 C303 1.387 . S
C1485 C257 1.386 . S
C1489 C270 1.388 . S
C1503 C382 1.390 . S
C1507 C322 1.389 . S
C1521 C330 1.389 . S
C1525 C400 1.388 . S
C1539 C408 1.389 . S
C1543 C348 1.388 . S
C1557 C356 1.390 . S
C1561 C374 1.388 . S
