# Generated by pormake.
# Topology sra, (4)-cn, num edge types: 1
# Building blocks:
#     Node 0, Type 0, BuildingBlock: TATPOV_clean_sbu_0, # of connection points: 4
#     Node 1, Type 0, BuildingBlock: TATPOV_clean_sbu_0, # of connection points: 4
#     Node 2, Type 0, BuildingBlock: TATPOV_clean_sbu_0, # of connection points: 4
#     Node 3, Type 0, BuildingBlock: TATPOV_clean_sbu_0, # of connection points: 4
#     Node 4, Type 0, BuildingBlock: TATPOV_clean_sbu_0, # of connection points: 4
#     Node 5, Type 0, BuildingBlock: TATPOV_clean_sbu_0, # of connection points: 4
#     Node 6, Type 0, BuildingBlock: TATPOV_clean_sbu_0, # of connection points: 4
#     Node 7, Type 0, BuildingBlock: TATPOV_clean_sbu_0, # of connection points: 4
#     Edge 8, Type (0, 0), BuildingBlock: KIFKEQ_clean_linker_1, # of connection points: 2
#     Edge 9, Type (0, 0), BuildingBlock: KIFKEQ_clean_linker_1, # of connection points: 2
#     Edge 10, Type (0, 0), BuildingBlock: KIFKEQ_clean_linker_1, # of connection points: 2
#     Edge 11, Type (0, 0), BuildingBlock: KIFKEQ_clean_linker_1, # of connection points: 2
#     Edge 12, Type (0, 0), BuildingBlock: KIFKEQ_clean_linker_1, # of connection points: 2
#     Edge 13, Type (0, 0), BuildingBlock: KIFKEQ_clean_linker_1, # of connection points: 2
#     Edge 14, Type (0, 0), BuildingBlock: KIFKEQ_clean_linker_1, # of connection points: 2
#     Edge 15, Type (0, 0), BuildingBlock: KIFKEQ_clean_linker_1, # of connection points: 2
#     Edge 16, Type (0, 0), BuildingBlock: KIFKEQ_clean_linker_1, # of connection points: 2
#     Edge 17, Type (0, 0), BuildingBlock: KIFKEQ_clean_linker_1, # of connection points: 2
#     Edge 18, Type (0, 0), BuildingBlock: KIFKEQ_clean_linker_1, # of connection points: 2
#     Edge 19, Type (0, 0), BuildingBlock: KIFKEQ_clean_linker_1, # of connection points: 2
#     Edge 20, Type (0, 0), BuildingBlock: KIFKEQ_clean_linker_1, # of connection points: 2
#     Edge 21, Type (0, 0), BuildingBlock: KIFKEQ_clean_linker_1, # of connection points: 2
#     Edge 22, Type (0, 0), BuildingBlock: KIFKEQ_clean_linker_1, # of connection points: 2
#     Edge 23, Type (0, 0), BuildingBlock: KIFKEQ_clean_linker_1, # of connection points: 2
# Relax obj value: 0.055
# Max RMSD: 0.069
# Mean RMSD: 0.069
data_MOF--net-sra--node1-TATPOV_clean_sbu_0--edge1-KIFKEQ_clean_linker_1
_symmetry_space_group_name_H-M    P1
_symmetry_Int_Tables_number       1
_symmetry_cell_setting            triclinic
loop_
_symmetry_equiv_pos_as_xyz
'x, y, z'
_cell_length_a     28.084272
_cell_length_b     43.372568
_cell_length_c     40.948246
_cell_angle_alpha  89.664494
_cell_angle_beta   91.031189
_cell_angle_gamma 90.949384
loop_
_atom_site_label
_atom_site_type_symbol
_atom_site_fract_x
_atom_site_fract_y
_atom_site_fract_z
_atom_type_partial_charge
Zn0 Zn 0.02607 0.11098 0.25067 0.0
Zn1 Zn 0.01637 0.08537 0.19251 0.0
O2 O 0.08151 0.06973 0.21074 0.0
O3 O 0.08466 0.08764 0.26091 0.0
O4 O 0.01052 0.06509 0.14796 0.0
O5 O 0.96328 0.09315 0.26418 0.0
O6 O 0.95721 0.06898 0.21713 0.0
C7 C 0.10255 0.07179 0.23858 0.0
C8 C 0.02203 0.15599 0.19961 0.0
O9 O 0.01354 0.1323 0.18197 0.0
O10 O 0.03098 0.153 0.22984 0.0
C11 C 0.04394 0.0683 0.12758 0.0
O12 O 0.08166 0.08501 0.13586 0.0
C13 C 0.94092 0.07476 0.24531 0.0
Zn14 Zn 0.96765 0.42159 0.25336 0.0
Zn15 Zn -0.02134 0.44737 0.19544 0.0
O16 O 0.91284 0.46237 0.21135 0.0
O17 O 0.91115 0.44701 0.26271 0.0
O18 O -0.01407 0.4691 0.15153 0.0
O19 O 0.03183 0.4368 0.26851 0.0
O20 O 0.03813 0.46241 0.2222 0.0
C21 C 0.89274 0.46169 0.23907 0.0
C22 C 0.9701 0.37711 0.20179 0.0
O23 O -0.01911 0.40077 0.18464 0.0
O24 O 0.95972 0.38004 0.23157 0.0
C25 C 0.96464 0.45941 0.12577 0.0
O26 O 0.93747 0.43453 0.12755 0.0
C27 C 0.05473 0.45535 0.25046 0.0
Zn28 Zn 0.00412 0.91999 0.78447 0.0
Zn29 Zn -0.00029 0.94353 0.84376 0.0
O30 O 0.05973 0.96397 0.82308 0.0
O31 O 0.05619 0.94922 0.7717 0.0
O32 O -0.00246 0.96337 0.88855 0.0
O33 O 0.93691 0.93143 0.77444 0.0
O34 O 0.9349 0.95489 0.8219 0.0
C35 C 0.07591 0.96503 0.79414 0.0
C36 C 0.01672 0.87461 0.83528 0.0
O37 O 0.00678 0.89688 0.85402 0.0
O38 O 0.01998 0.87886 0.80479 0.0
C39 C 0.03412 0.9628 0.90733 0.0
O40 O 0.07247 0.94902 0.89727 0.0
C41 C 0.91507 0.94778 0.79459 0.0
Zn42 Zn 0.00671 0.60115 0.77874 0.0
Zn43 Zn 0.00217 0.57996 0.83882 0.0
O44 O 0.93612 0.5688 0.8178 0.0
O45 O 0.94041 0.58785 0.76799 0.0
O46 O -0.00115 0.56018 0.88407 0.0
O47 O 0.05962 0.57386 0.76735 0.0
O48 O 0.06057 0.55834 0.81857 0.0
C49 C 0.91716 0.57362 0.78968 0.0
C50 C 0.02037 0.64902 0.82629 0.0
O51 O 0.01244 0.62717 0.84662 0.0
O52 O 0.02087 0.64349 0.79599 0.0
C53 C -0.01106 0.57427 0.91022 0.0
O54 O -0.01991 0.6039 0.90885 0.0
C55 C 0.07788 0.55772 0.78994 0.0
Zn56 Zn 0.48104 0.60526 0.75823 0.0
Zn57 Zn 0.48306 0.58445 0.69818 0.0
O58 O 0.54935 0.57295 0.71749 0.0
O59 O 0.54818 0.59316 0.76665 0.0
O60 O 0.48234 0.56657 0.65239 0.0
O61 O 0.42905 0.57646 0.77098 0.0
O62 O 0.42515 0.56195 0.71962 0.0
C63 C 0.56979 0.57848 0.745 0.0
C64 C 0.46585 0.65303 0.71089 0.0
O65 O 0.47446 0.63165 0.69065 0.0
O66 O 0.46483 0.6473 0.7412 0.0
C67 C 0.51205 0.575 0.63086 0.0
O68 O 0.54462 0.59598 0.63846 0.0
C69 C 0.40935 0.5605 0.74867 0.0
Zn70 Zn 0.47959 0.93505 0.75774 0.0
Zn71 Zn 0.48626 0.94865 0.69538 0.0
O72 O 0.42477 0.97012 0.71094 0.0
O73 O 0.42521 0.96303 0.76423 0.0
O74 O 0.49229 0.9635 0.64841 0.0
O75 O 0.54499 0.95004 0.76858 0.0
O76 O 0.55131 0.96236 0.71663 0.0
C77 C 0.40648 0.97461 0.73881 0.0
C78 C 0.47038 0.88164 0.71534 0.0
O79 O 0.47817 0.90114 0.69252 0.0
O80 O 0.46826 0.89069 0.74465 0.0
C81 C 0.45725 0.96248 0.62829 0.0
O82 O 0.4164 0.95072 0.63795 0.0
C83 C 0.56922 0.96122 0.74552 0.0
Zn84 Zn 0.47466 0.42154 0.28923 0.0
Zn85 Zn 0.48143 0.44281 0.3501 0.0
O86 O 0.54234 0.46005 0.32802 0.0
O87 O 0.53601 0.44269 0.27761 0.0
O88 O 0.48555 0.45996 0.3962 0.0
O89 O 0.41439 0.44355 0.28076 0.0
O90 O 0.4163 0.45896 0.33191 0.0
C91 C 0.55853 0.45809 0.29919 0.0
C92 C 0.47842 0.3731 0.33758 0.0
O93 O 0.48372 0.39556 0.35734 0.0
O94 O 0.47258 0.37807 0.30728 0.0
C95 C 0.49227 0.48863 0.40136 0.0
O96 O 0.49657 0.50738 0.37623 0.0
C97 C 0.39555 0.45785 0.30389 0.0
Zn98 Zn 0.52706 0.10681 0.28444 0.0
Zn99 Zn 0.5201 0.08019 0.34227 0.0
O100 O 0.45964 0.06444 0.31733 0.0
O101 O 0.46356 0.08953 0.27056 0.0
O102 O 0.51628 0.05907 0.38662 0.0
O103 O 0.58496 0.0836 0.27398 0.0
O104 O 0.58467 0.06514 0.32415 0.0
C105 C 0.44196 0.07086 0.28921 0.0
C106 C 0.52561 0.15086 0.33589 0.0
O107 O 0.51778 0.12687 0.35328 0.0
O108 O 0.53324 0.14843 0.30566 0.0
C109 C 0.47962 0.06161 0.40417 0.0
O110 O 0.44393 0.07814 0.39312 0.0
C111 C 0.60422 0.06761 0.2963 0.0
H112 H 0.91061 0.32861 0.21342 0.0
H113 H 0.03731 0.35468 0.16121 0.0
H114 H 0.92372 0.27448 0.20066 0.0
H115 H 0.05141 0.30012 0.1494 0.0
H116 H 0.08352 0.20375 0.20973 0.0
H117 H 0.06941 0.25824 0.19826 0.0
H118 H 0.93596 0.23413 0.15035 0.0
H119 H 0.95107 0.17923 0.16081 0.0
C120 C 0.94062 0.32276 0.19852 0.0
C121 C 0.97303 0.34572 0.18835 0.0
C122 C 0.94796 0.29184 0.19107 0.0
C123 C -0.01147 0.28321 0.17404 0.0
C124 C 0.01973 0.30629 0.1624 0.0
C125 C 0.01162 0.33741 0.16909 0.0
C126 C 0.05205 0.21005 0.19569 0.0
C127 C 0.0184 0.18744 0.18608 0.0
C128 C 0.04406 0.24116 0.18903 0.0
C129 C 0.00163 0.25029 0.17343 0.0
C130 C 0.96907 0.22757 0.16224 0.0
C131 C -0.02224 0.19627 0.16811 0.0
H132 H 0.95263 0.8362 0.86488 0.0
H133 H 0.09777 0.8425 0.83277 0.0
H134 H 0.95996 0.78021 0.87136 0.0
H135 H 0.10622 0.78707 0.84068 0.0
H136 H 0.06768 0.69392 0.79375 0.0
H137 H 0.07242 0.74833 0.80573 0.0
H138 H -0.00453 0.73266 0.89494 0.0
H139 H -0.00983 0.67725 0.88243 0.0
C140 C -0.01332 0.82569 0.86061 0.0
C141 C 0.02461 0.84337 0.84819 0.0
C142 C -0.00902 0.79367 0.86435 0.0
C143 C 0.03341 0.77905 0.8559 0.0
C144 C 0.07269 0.79747 0.84665 0.0
C145 C 0.06808 0.82922 0.84236 0.0
C146 C 0.05227 0.70188 0.81619 0.0
C147 C 0.02822 0.68129 0.837 0.0
C148 C 0.05542 0.73318 0.82329 0.0
C149 C 0.03453 0.74499 0.85143 0.0
C150 C 0.0118 0.72429 0.87301 0.0
C151 C 0.00902 0.6926 0.86598 0.0
H152 H 0.39318 0.68869 0.72818 0.0
H153 H 0.52043 0.68943 0.6708 0.0
H154 H 0.38783 0.7444 0.72222 0.0
H155 H 0.51656 0.74584 0.66596 0.0
H156 H 0.48336 0.85042 0.65748 0.0
H157 H 0.47578 0.7945 0.64861 0.0
H158 H 0.43745 0.78203 0.74959 0.0
H159 H 0.44404 0.8369 0.7582 0.0
C160 C 0.41947 0.70085 0.71368 0.0
C161 C 0.45736 0.68496 0.70014 0.0
C162 C 0.41669 0.73276 0.71046 0.0
C163 C 0.45251 0.74969 0.69439 0.0
C164 C 0.48841 0.7335 0.6785 0.0
C165 C 0.49068 0.70125 0.68124 0.0
C166 C 0.47286 0.83565 0.6776 0.0
C167 C 0.46429 0.8482 0.70854 0.0
C168 C 0.46872 0.80366 0.67256 0.0
C169 C 0.45544 0.7838 0.69827 0.0
C170 C 0.44661 0.79659 0.72898 0.0
C171 C 0.45087 0.82821 0.73401 0.0
H172 H 0.54233 0.34841 0.38106 0.0
H173 H 0.42132 0.32526 0.31901 0.0
H174 H 0.55533 0.29321 0.39145 0.0
H175 H 0.43308 0.27048 0.33044 0.0
H176 H 0.45497 0.17397 0.37289 0.0
H177 H 0.44103 0.22884 0.38347 0.0
H178 H 0.57545 0.2526 0.33976 0.0
H179 H 0.58837 0.19816 0.32802 0.0
C180 C 0.51763 0.33158 0.37061 0.0
C181 C 0.48095 0.34091 0.34917 0.0
C182 C 0.52508 0.30013 0.37651 0.0
C183 C 0.49495 0.27777 0.3619 0.0
C184 C 0.45636 0.28732 0.34231 0.0
C185 C 0.44981 0.31858 0.33565 0.0
C186 C 0.48213 0.1909 0.36657 0.0
C187 C 0.52272 0.18204 0.34968 0.0
C188 C 0.47411 0.22217 0.37251 0.0
C189 C 0.50732 0.24476 0.36254 0.0
C190 C 0.54965 0.23556 0.34805 0.0
C191 C 0.55697 0.2045 0.34125 0.0
H192 H 0.39628 0.0804 0.23094 0.0
H193 H 0.38035 0.03369 0.32374 0.0
H194 H 0.31393 0.06895 0.21708 0.0
H195 H 0.29762 0.02101 0.30919 0.0
H196 H 0.14744 0.06442 0.29725 0.0
H197 H 0.23029 0.05305 0.3073 0.0
H198 H 0.24812 0.03577 0.20437 0.0
H199 H 0.16459 0.04844 0.1941 0.0
C200 C 0.37548 0.067 0.24813 0.0
C201 C 0.39458 0.05865 0.27884 0.0
C202 C 0.32816 0.06005 0.23994 0.0
C203 C 0.29876 0.04438 0.26216 0.0
C204 C 0.31903 0.03369 0.29177 0.0
C205 C 0.36647 0.04086 0.30009 0.0
C206 C 0.16871 0.05769 0.27675 0.0
C207 C 0.14978 0.05814 0.24474 0.0
C208 C 0.21632 0.05075 0.2826 0.0
C209 C 0.24627 0.04392 0.2566 0.0
C210 C 0.22623 0.04157 0.22488 0.0
C211 C 0.17834 0.04865 0.21898 0.0
H212 H 0.63682 0.46367 0.33902 0.0
H213 H 0.58639 0.48134 0.24068 0.0
H214 H 0.71805 0.47421 0.32237 0.0
H215 H 0.66725 0.4941 0.22415 0.0
H216 H 0.81603 0.45797 0.1978 0.0
H217 H 0.73363 0.46636 0.2121 0.0
H218 H 0.78063 0.50438 0.30499 0.0
H219 H 0.86273 0.49366 0.29126 0.0
C220 C 0.64305 0.47094 0.31408 0.0
C221 C 0.60559 0.47126 0.29104 0.0
C222 C 0.68973 0.4772 0.30442 0.0
C223 C 0.69976 0.4846 0.27161 0.0
C224 C 0.66136 0.48756 0.24933 0.0
C225 C 0.6149 0.48054 0.25884 0.0
C226 C 0.80861 0.46891 0.22085 0.0
C227 C 0.8454 0.47488 0.24358 0.0
C228 C 0.76127 0.47384 0.22916 0.0
C229 C 0.74997 0.4855 0.26015 0.0
C230 C 0.78758 0.49439 0.28142 0.0
C231 C 0.83472 0.48865 0.27343 0.0
H232 H 0.15222 0.97469 0.83499 0.0
H233 H 0.10131 0.99152 0.73656 0.0
H234 H 0.23248 0.98891 0.81897 0.0
H235 H 0.18113 1.00765 0.72067 0.0
H236 H 0.33109 0.97072 0.69635 0.0
H237 H 0.24856 0.97993 0.70936 0.0
H238 H 0.29359 0.02095 0.80117 0.0
H239 H 0.37602 1.00978 0.78873 0.0
C240 C 0.15795 0.98266 0.81022 0.0
C241 C 0.12087 0.98149 0.78688 0.0
C242 C 0.20408 0.991 0.80092 0.0
C243 C 0.21381 0.9989 0.7682 0.0
C244 C 0.17543 1.00079 0.74578 0.0
C245 C 0.12957 0.99181 0.75493 0.0
C246 C 0.32336 0.98261 0.71879 0.0
C247 C 0.35968 0.98908 0.74177 0.0
C248 C 0.27588 0.98801 0.72636 0.0
C249 C 0.26398 1.00054 0.75682 0.0
C250 C 0.30113 1.01031 0.77802 0.0
C251 C 0.34844 1.00425 0.77076 0.0
H252 H 0.61972 0.58489 0.80211 0.0
H253 H 0.63189 0.55038 0.70382 0.0
H254 H 0.70311 0.57515 0.81254 0.0
H255 H 0.71592 0.53961 0.71473 0.0
H256 H 0.86948 0.57925 0.7316 0.0
H257 H 0.78505 0.57221 0.72095 0.0
H258 H 0.76642 0.53943 0.81987 0.0
H259 H 0.8515 0.54756 0.83099 0.0
C260 C 0.64003 0.57471 0.78282 0.0
C261 C 0.61929 0.56892 0.7519 0.0
C262 C 0.68791 0.56874 0.78899 0.0
C263 C 0.71637 0.55669 0.76446 0.0
C264 C 0.69508 0.54931 0.73402 0.0
C265 C 0.64696 0.5554 0.72778 0.0
C266 C 0.84763 0.57017 0.75106 0.0
C267 C 0.8671 0.56457 0.78239 0.0
C268 C 0.7991 0.56578 0.74479 0.0
C269 C 0.76879 0.55552 0.76962 0.0
C270 C 0.78874 0.5479 0.80037 0.0
C271 C 0.83748 0.55243 0.80672 0.0
H272 H 0.61483 0.96352 0.80469 0.0
H273 H 0.63786 0.97845 0.70167 0.0
H274 H 0.69966 0.96781 0.81541 0.0
H275 H 0.72338 0.98393 0.71266 0.0
H276 H 0.86395 0.93467 0.73918 0.0
H277 H 0.78184 0.9466 0.72659 0.0
H278 H 0.77288 0.99638 0.81737 0.0
H279 H 0.85546 0.98347 0.83059 0.0
C280 C 0.63794 0.96845 0.78434 0.0
C281 C 0.61962 0.96997 0.75218 0.0
C282 C 0.68676 0.97122 0.7906 0.0
C283 C 0.71854 0.97579 0.76487 0.0
C284 C 0.69991 0.97975 0.73297 0.0
C285 C 0.65089 0.97681 0.72666 0.0
C286 C 0.84476 0.9484 0.75644 0.0
C287 C 0.86615 0.95772 0.78617 0.0
C288 C 0.79764 0.95559 0.74897 0.0
C289 C 0.77058 0.97245 0.77093 0.0
C290 C 0.79255 0.98299 0.80008 0.0
C291 C 0.83987 0.97565 0.80766 0.0
H292 H 0.36654 0.55569 0.80753 0.0
H293 H 0.35092 0.52676 0.70705 0.0
H294 H 0.28537 0.54049 0.81757 0.0
H295 H 0.2695 0.50944 0.71766 0.0
H296 H 0.12083 0.55215 0.73141 0.0
H297 H 0.20198 0.53838 0.72209 0.0
H298 H 0.21762 0.51041 0.82329 0.0
H299 H 0.13612 0.52629 0.83307 0.0
C300 C 0.34615 0.54513 0.78773 0.0
C301 C 0.36467 0.54352 0.75613 0.0
C302 C 0.29936 0.53593 0.79366 0.0
C303 C 0.26997 0.52443 0.76822 0.0
C304 C 0.29049 0.51922 0.73759 0.0
C305 C 0.3373 0.52896 0.7315 0.0
C306 C 0.14116 0.54258 0.75166 0.0
C307 C 0.12253 0.54141 0.78329 0.0
C308 C 0.18794 0.53418 0.74618 0.0
C309 C 0.21725 0.52398 0.77211 0.0
C310 C 0.19666 0.51918 0.80294 0.0
C311 C 0.1498 0.52808 0.80856 0.0
H312 H 0.64565 0.06032 0.23757 0.0
H313 H 0.67003 0.04579 0.34096 0.0
H314 H 0.72863 0.05116 0.22744 0.0
H315 H 0.75374 0.03531 0.33064 0.0
H316 H 0.89707 0.08404 0.30309 0.0
H317 H 0.81617 0.07049 0.31713 0.0
H318 H 0.79836 0.0214 0.22601 0.0
H319 H 0.87954 0.03615 0.21127 0.0
C320 C 0.66858 0.05432 0.25812 0.0
C321 C 0.65156 0.05461 0.29019 0.0
C322 C 0.71629 0.04866 0.25223 0.0
C323 C 0.74825 0.043 0.27827 0.0
C324 C 0.73024 0.04029 0.31009 0.0
C325 C 0.68224 0.04608 0.31602 0.0
C326 C 0.87627 0.06998 0.28615 0.0
C327 C 0.89443 0.06183 0.25566 0.0
C328 C 0.82983 0.06182 0.29445 0.0
C329 C 0.80037 0.0451 0.27258 0.0
C330 C 0.8198 0.03481 0.24316 0.0
C331 C 0.86634 0.0432 0.23473 0.0
H332 H 0.11649 0.49482 0.2189 0.0
H333 H 0.10056 0.44173 0.3078 0.0
H334 H 0.19874 0.50736 0.23485 0.0
H335 H 0.18254 0.45308 0.32298 0.0
H336 H 0.33068 0.47602 0.3493 0.0
H337 H 0.24637 0.48657 0.339 0.0
H338 H 0.26794 0.47727 0.23525 0.0
H339 H 0.35145 0.46804 0.24543 0.0
C340 C 0.1303 0.48612 0.24197 0.0
C341 C 0.10222 0.46678 0.26173 0.0
C342 C 0.17749 0.49322 0.25111 0.0
C343 C 0.19764 0.48089 0.28002 0.0
C344 C 0.16837 0.46331 0.30074 0.0
C345 C 0.12127 0.45645 0.29177 0.0
C346 C 0.31752 0.47713 0.3243 0.0
C347 C 0.34747 0.47053 0.29825 0.0
C348 C 0.26917 0.48295 0.31837 0.0
C349 C 0.25003 0.48223 0.2863 0.0
C350 C 0.28113 0.47825 0.26023 0.0
C351 C 0.32918 0.47257 0.26614 0.0
H352 H 0.97056 0.03304 0.10163 0.0
H353 H 0.11082 0.06919 0.07996 0.0
H354 H 0.96717 1.00736 0.04864 0.0
H355 H 0.1071 0.04398 0.02701 0.0
H356 H 0.10762 0.9671 0.95174 0.0
H357 H 0.10866 0.99224 1.00473 0.0
H358 H 0.96208 0.01825 0.98967 0.0
H359 H 0.96076 0.99262 0.93664 0.0
C360 C 0.00058 0.03563 0.08555 0.0
C361 C 0.04103 0.05312 0.09515 0.0
C362 C -0.00148 0.02103 0.05509 0.0
C363 C 0.03694 0.02348 0.03358 0.0
C364 C 0.07717 0.04119 0.04314 0.0
C365 C 0.07917 0.05582 0.07348 0.0
C366 C 0.07552 0.97812 0.95967 0.0
C367 C 0.03413 0.97787 0.93983 0.0
C368 C 0.07622 0.99272 0.99003 0.0
C369 C 0.03554 1.00744 1.00144 0.0
C370 C -0.00608 1.00691 0.98177 0.0
C371 C -0.00675 0.99236 0.95129 0.0
H372 H 0.97392 0.59795 0.97096 0.0
H373 H -0.00061 0.51232 0.92131 0.0
H374 H 0.96923 0.57019 0.02282 0.0
H375 H -0.00479 0.48464 0.97326 0.0
H376 H 0.92903 0.44246 0.06579 0.0
H377 H 0.93598 0.4701 1.01406 0.0
H378 H 0.01915 0.54171 0.06217 0.0
H379 H 0.0118 0.5142 0.1141 0.0
C380 C -0.02131 0.57322 0.97108 0.0
C381 C -0.01307 0.55739 0.94189 0.0
C382 C -0.02371 0.55732 1.00089 0.0
C383 C -0.01819 0.52516 1.00225 0.0
C384 C -0.00977 0.50935 0.97306 0.0
C385 C -0.00712 0.52526 0.94328 0.0
C386 C 0.94888 0.46408 0.06539 0.0
C387 C 0.96979 0.4761 0.09418 0.0
C388 C 0.9531 0.47985 0.03564 0.0
C389 C -0.02186 0.50815 0.0339 0.0
C390 C -0.00083 0.52015 0.06268 0.0
C391 C -0.00482 0.50428 0.09244 0.0
H392 H 0.50883 0.54824 0.4204 0.0
H393 H 0.48255 0.45674 0.45904 0.0
H394 H 0.5135 0.56854 0.47572 0.0
H395 H 0.488 0.47704 0.5145 0.0
H396 H 0.44983 0.53082 0.60702 0.0
H397 H 0.44514 0.50977 0.5519 0.0
H398 H 0.56461 0.56756 0.52414 0.0
H399 H 0.56883 0.58896 0.57903 0.0
C400 C 0.50419 0.5324 0.44069 0.0
C401 C 0.4953 0.50083 0.4352 0.0
C402 C 0.50717 0.54404 0.47247 0.0
C403 C 0.50125 0.52444 0.49964 0.0
C404 C 0.49223 0.49286 0.49416 0.0
C405 C 0.48937 0.48119 0.46234 0.0
C406 C 0.47514 0.53903 0.58918 0.0
C407 C 0.50963 0.56167 0.5975 0.0
C408 C 0.47262 0.52681 0.55759 0.0
C409 C 0.50443 0.53698 0.53349 0.0
C410 C 0.53909 0.55949 0.54191 0.0
C411 C 0.54168 0.57166 0.57349 0.0
H412 H 0.53561 0.99004 0.6007 0.0
H413 H 0.38883 0.9646 0.57997 0.0
H414 H 0.54147 1.01337 0.5465 0.0
H415 H 0.39497 0.98738 0.52567 0.0
H416 H 0.40613 0.06231 0.44702 0.0
H417 H 0.40173 0.0378 0.50053 0.0
H418 H 0.54244 1.00125 0.48852 0.0
H419 H 0.54723 0.0263 0.43508 0.0
C420 C 0.50468 0.98921 0.58453 0.0
C421 C 0.46169 0.97552 0.5948 0.0
C422 C 0.50813 1.00246 0.55335 0.0
C423 C 0.46864 1.00239 0.53169 0.0
C424 C 0.42588 0.9883 0.54185 0.0
C425 C 0.42245 0.97505 0.57298 0.0
C426 C 0.43618 0.04905 0.45573 0.0
C427 C 0.47705 0.04632 0.43668 0.0
C428 C 0.43352 0.0348 0.48639 0.0
C429 C 0.47166 0.01742 0.49888 0.0
C430 C 0.5126 1.01471 0.47985 0.0
C431 C 0.51524 0.02895 0.44911 0.0
loop_
_geom_bond_atom_site_label_1
_geom_bond_atom_site_label_2
_geom_bond_distance
_geom_bond_site_symmetry_2
_ccdc_geom_bond_type
Zn0 O3 2.031 . S
Zn0 O5 2.049 1_455 S
Zn0 O10 2.065 1_455 S
Zn1 O2 1.962 . S
Zn1 O4 1.986 1_455 S
Zn1 O6 1.996 1_455 S
Zn1 O9 1.943 . S
O2 Zn1 1.962 . S
O2 C7 1.254 . S
O3 Zn0 2.031 . S
O3 C7 1.269 . S
O4 Zn1 1.986 1_655 S
O4 C11 1.262 1_655 S
O5 Zn0 2.049 1_655 S
O5 C13 1.260 . S
O6 Zn1 1.996 1_655 S
O6 C13 1.257 . S
C7 O2 1.254 . S
C7 O3 1.269 . S
C8 O9 1.249 . S
C8 O10 1.265 1_455 S
O9 Zn1 1.943 . S
O9 C8 1.249 . S
O10 Zn0 2.065 1_655 S
O10 C8 1.265 1_655 S
C11 O4 1.262 1_455 S
C11 O12 1.232 . S
O12 C11 1.232 . S
C13 O5 1.260 . S
C13 O6 1.257 . S
Zn14 O17 2.031 1_455 S
Zn14 O19 2.049 . S
Zn14 O24 2.067 . S
Zn15 O16 1.962 1_455 S
Zn15 O18 1.986 . S
Zn15 O20 1.996 . S
Zn15 O23 1.943 . S
O16 Zn15 1.962 1_655 S
O16 C21 1.254 . S
O17 Zn14 2.031 1_655 S
O17 C21 1.269 . S
O18 Zn15 1.986 . S
O18 C25 1.262 . S
O19 Zn14 2.049 . S
O19 C27 1.260 . S
O20 Zn15 1.996 . S
O20 C27 1.257 . S
C21 O16 1.254 . S
C21 O17 1.269 . S
C22 O23 1.249 . S
C22 O24 1.270 . S
O23 Zn15 1.943 . S
O23 C22 1.249 . S
O24 Zn14 2.067 . S
O24 C22 1.270 . S
C25 O18 1.262 . S
C25 O26 1.232 1_455 S
O26 C25 1.232 1_655 S
C27 O19 1.260 . S
C27 O20 1.257 . S
Zn28 O31 2.031 . S
Zn28 O33 2.049 1_455 S
Zn28 O38 2.065 1_455 S
Zn29 O30 1.962 . S
Zn29 O32 1.986 1_455 S
Zn29 O34 1.996 1_455 S
Zn29 O37 1.943 . S
O30 Zn29 1.962 . S
O30 C35 1.254 . S
O31 Zn28 2.031 . S
O31 C35 1.269 . S
O32 Zn29 1.986 1_655 S
O32 C39 1.262 1_655 S
O33 Zn28 2.049 1_655 S
O33 C41 1.260 . S
O34 Zn29 1.996 1_655 S
O34 C41 1.257 . S
C35 O30 1.254 . S
C35 O31 1.269 . S
C36 O37 1.249 . S
C36 O38 1.265 1_455 S
O37 Zn29 1.943 . S
O37 C36 1.249 . S
O38 Zn28 2.065 1_655 S
O38 C36 1.265 1_655 S
C39 O32 1.262 1_455 S
C39 O40 1.232 . S
O40 C39 1.232 . S
C41 O33 1.260 . S
C41 O34 1.257 . S
Zn42 O45 2.031 1_455 S
Zn42 O47 2.049 . S
Zn42 O52 2.067 . S
Zn43 O44 1.962 1_455 S
Zn43 O46 1.986 . S
Zn43 O48 1.996 . S
Zn43 O51 1.943 . S
O44 Zn43 1.962 1_655 S
O44 C49 1.254 . S
O45 Zn42 2.031 1_655 S
O45 C49 1.269 . S
O46 Zn43 1.986 . S
O46 C53 1.262 . S
O47 Zn42 2.049 . S
O47 C55 1.260 . S
O48 Zn43 1.996 . S
O48 C55 1.257 . S
C49 O44 1.254 . S
C49 O45 1.269 . S
C50 O51 1.249 . S
C50 O52 1.270 . S
O51 Zn43 1.943 . S
O51 C50 1.249 . S
O52 Zn42 2.067 . S
O52 C50 1.270 . S
C53 O46 1.262 . S
C53 O54 1.232 1_455 S
O54 C53 1.232 1_655 S
C55 O47 1.260 . S
C55 O48 1.257 . S
Zn56 O59 2.031 . S
Zn56 O61 2.049 . S
Zn56 O66 2.067 . S
Zn57 O58 1.962 . S
Zn57 O60 1.986 . S
Zn57 O62 1.996 . S
Zn57 O65 1.943 . S
O58 Zn57 1.962 . S
O58 C63 1.254 . S
O59 Zn56 2.031 . S
O59 C63 1.269 . S
O60 Zn57 1.986 . S
O60 C67 1.262 . S
O61 Zn56 2.049 . S
O61 C69 1.260 . S
O62 Zn57 1.996 . S
O62 C69 1.257 . S
C63 O58 1.254 . S
C63 O59 1.269 . S
C64 O65 1.249 . S
C64 O66 1.270 . S
O65 Zn57 1.943 . S
O65 C64 1.249 . S
O66 Zn56 2.067 . S
O66 C64 1.270 . S
C67 O60 1.262 . S
C67 O68 1.232 . S
O68 C67 1.232 . S
C69 O61 1.260 . S
C69 O62 1.257 . S
Zn70 O73 2.031 . S
Zn70 O75 2.049 . S
Zn70 O80 2.067 . S
Zn71 O72 1.962 . S
Zn71 O74 1.986 . S
Zn71 O76 1.996 . S
Zn71 O79 1.943 . S
O72 Zn71 1.962 . S
O72 C77 1.254 . S
O73 Zn70 2.031 . S
O73 C77 1.269 . S
O74 Zn71 1.986 . S
O74 C81 1.262 . S
O75 Zn70 2.049 . S
O75 C83 1.260 . S
O76 Zn71 1.996 . S
O76 C83 1.257 . S
C77 O72 1.254 . S
C77 O73 1.269 . S
C78 O79 1.249 . S
C78 O80 1.270 . S
O79 Zn71 1.943 . S
O79 C78 1.249 . S
O80 Zn70 2.067 . S
O80 C78 1.270 . S
C81 O74 1.262 . S
C81 O82 1.232 . S
O82 C81 1.232 . S
C83 O75 1.260 . S
C83 O76 1.257 . S
Zn84 O87 2.031 . S
Zn84 O89 2.049 . S
Zn84 O94 2.067 . S
Zn85 O86 1.962 . S
Zn85 O88 1.986 . S
Zn85 O90 1.996 . S
Zn85 O93 1.943 . S
O86 Zn85 1.962 . S
O86 C91 1.254 . S
O87 Zn84 2.031 . S
O87 C91 1.269 . S
O88 Zn85 1.986 . S
O88 C95 1.262 . S
O89 Zn84 2.049 . S
O89 C97 1.260 . S
O90 Zn85 1.996 . S
O90 C97 1.257 . S
C91 O86 1.254 . S
C91 O87 1.269 . S
C92 O93 1.249 . S
C92 O94 1.270 . S
O93 Zn85 1.943 . S
O93 C92 1.249 . S
O94 Zn84 2.067 . S
O94 C92 1.270 . S
C95 O88 1.262 . S
C95 O96 1.232 . S
O96 C95 1.232 . S
C97 O89 1.260 . S
C97 O90 1.257 . S
Zn98 O101 2.031 . S
Zn98 O103 2.049 . S
Zn98 O108 2.067 . S
Zn99 O100 1.962 . S
Zn99 O102 1.986 . S
Zn99 O104 1.996 . S
Zn99 O107 1.943 . S
O100 Zn99 1.962 . S
O100 C105 1.254 . S
O101 Zn98 2.031 . S
O101 C105 1.269 . S
O102 Zn99 1.986 . S
O102 C109 1.262 . S
O103 Zn98 2.049 . S
O103 C111 1.260 . S
O104 Zn99 1.996 . S
O104 C111 1.257 . S
C105 O100 1.254 . S
C105 O101 1.269 . S
C106 O107 1.249 . S
C106 O108 1.270 . S
O107 Zn99 1.943 . S
O107 C106 1.249 . S
O108 Zn98 2.067 . S
O108 C106 1.270 . S
C109 O102 1.262 . S
C109 O110 1.232 . S
O110 C109 1.232 . S
C111 O103 1.260 . S
C111 O104 1.257 . S
H112 C120 0.950 . S
H113 C125 0.950 . S
H114 C122 0.950 . S
H115 C124 0.950 . S
H116 C126 0.950 . S
H117 C128 0.950 . S
H118 C130 0.950 . S
H119 C131 0.950 . S
C120 H112 0.950 . S
C120 C121 1.386 1_655 S
C120 C122 1.391 . S
C121 C120 1.386 1_455 S
C121 C125 1.393 . S
C122 H114 0.950 . S
C122 C120 1.391 . S
C122 C123 1.400 1_655 S
C123 C122 1.400 1_455 S
C123 C124 1.398 . S
C123 C129 1.491 . S
C124 H115 0.950 . S
C124 C123 1.398 . S
C124 C125 1.391 . S
C125 H113 0.950 . S
C125 C121 1.393 . S
C125 C124 1.391 . S
C126 H116 0.950 . S
C126 C127 1.386 . S
C126 C128 1.391 . S
C127 C126 1.386 . S
C127 C131 1.393 1_455 S
C128 H117 0.950 . S
C128 C126 1.391 . S
C128 C129 1.400 . S
C129 C123 1.491 . S
C129 C128 1.400 . S
C129 C130 1.398 1_455 S
C130 H118 0.950 . S
C130 C129 1.398 1_655 S
C130 C131 1.391 . S
C131 H119 0.950 . S
C131 C127 1.393 1_655 S
C131 C130 1.391 . S
H132 C140 0.950 . S
H133 C145 0.950 . S
H134 C142 0.950 . S
H135 C144 0.950 . S
H136 C146 0.950 . S
H137 C148 0.950 . S
H138 C150 0.950 . S
H139 C151 0.950 . S
C140 H132 0.950 . S
C140 C141 1.386 1_655 S
C140 C142 1.391 . S
C141 C140 1.386 1_455 S
C141 C145 1.393 . S
C142 H134 0.950 . S
C142 C140 1.391 . S
C142 C143 1.400 1_655 S
C143 C142 1.400 1_455 S
C143 C144 1.398 . S
C143 C149 1.491 . S
C144 H135 0.950 . S
C144 C143 1.398 . S
C144 C145 1.391 . S
C145 H133 0.950 . S
C145 C141 1.393 . S
C145 C144 1.391 . S
C146 H136 0.950 . S
C146 C147 1.386 . S
C146 C148 1.391 . S
C147 C146 1.386 . S
C147 C151 1.393 1_455 S
C148 H137 0.950 . S
C148 C146 1.391 . S
C148 C149 1.400 . S
C149 C143 1.491 . S
C149 C148 1.400 . S
C149 C150 1.398 1_455 S
C150 H138 0.950 . S
C150 C149 1.398 1_655 S
C150 C151 1.391 . S
C151 H139 0.950 . S
C151 C147 1.393 1_655 S
C151 C150 1.391 . S
H152 C160 0.950 . S
H153 C165 0.950 . S
H154 C162 0.950 . S
H155 C164 0.950 . S
H156 C166 0.950 . S
H157 C168 0.950 . S
H158 C170 0.950 . S
H159 C171 0.950 . S
C160 H152 0.950 . S
C160 C161 1.386 . S
C160 C162 1.391 . S
C161 C160 1.386 . S
C161 C165 1.393 . S
C162 H154 0.950 . S
C162 C160 1.391 . S
C162 C163 1.400 . S
C163 C162 1.400 . S
C163 C164 1.398 . S
C163 C169 1.491 . S
C164 H155 0.950 . S
C164 C163 1.398 . S
C164 C165 1.391 . S
C165 H153 0.950 . S
C165 C161 1.393 . S
C165 C164 1.391 . S
C166 H156 0.950 . S
C166 C167 1.386 . S
C166 C168 1.391 . S
C167 C166 1.386 . S
C167 C171 1.393 . S
C168 H157 0.950 . S
C168 C166 1.391 . S
C168 C169 1.400 . S
C169 C163 1.491 . S
C169 C168 1.400 . S
C169 C170 1.398 . S
C170 H158 0.950 . S
C170 C169 1.398 . S
C170 C171 1.391 . S
C171 H159 0.950 . S
C171 C167 1.393 . S
C171 C170 1.391 . S
H172 C180 0.950 . S
H173 C185 0.950 . S
H174 C182 0.950 . S
H175 C184 0.950 . S
H176 C186 0.950 . S
H177 C188 0.950 . S
H178 C190 0.950 . S
H179 C191 0.950 . S
C180 H172 0.950 . S
C180 C181 1.386 . S
C180 C182 1.391 . S
C181 C180 1.386 . S
C181 C185 1.393 . S
C182 H174 0.950 . S
C182 C180 1.391 . S
C182 C183 1.400 . S
C183 C182 1.400 . S
C183 C184 1.398 . S
C183 C189 1.491 . S
C184 H175 0.950 . S
C184 C183 1.398 . S
C184 C185 1.391 . S
C185 H173 0.950 . S
C185 C181 1.393 . S
C185 C184 1.391 . S
C186 H176 0.950 . S
C186 C187 1.386 . S
C186 C188 1.391 . S
C187 C186 1.386 . S
C187 C191 1.393 . S
C188 H177 0.950 . S
C188 C186 1.391 . S
C188 C189 1.400 . S
C189 C183 1.491 . S
C189 C188 1.400 . S
C189 C190 1.398 . S
C190 H178 0.950 . S
C190 C189 1.398 . S
C190 C191 1.391 . S
C191 H179 0.950 . S
C191 C187 1.393 . S
C191 C190 1.391 . S
H192 C200 0.950 . S
H193 C205 0.950 . S
H194 C202 0.950 . S
H195 C204 0.950 . S
H196 C206 0.950 . S
H197 C208 0.950 . S
H198 C210 0.950 . S
H199 C211 0.950 . S
C200 H192 0.950 . S
C200 C201 1.386 . S
C200 C202 1.391 . S
C201 C200 1.386 . S
C201 C205 1.393 . S
C202 H194 0.950 . S
C202 C200 1.391 . S
C202 C203 1.400 . S
C203 C202 1.400 . S
C203 C204 1.398 . S
C203 C209 1.491 . S
C204 H195 0.950 . S
C204 C203 1.398 . S
C204 C205 1.391 . S
C205 H193 0.950 . S
C205 C201 1.393 . S
C205 C204 1.391 . S
C206 H196 0.950 . S
C206 C207 1.386 . S
C206 C208 1.391 . S
C207 C206 1.386 . S
C207 C211 1.393 . S
C208 H197 0.950 . S
C208 C206 1.391 . S
C208 C209 1.400 . S
C209 C203 1.491 . S
C209 C208 1.400 . S
C209 C210 1.398 . S
C210 H198 0.950 . S
C210 C209 1.398 . S
C210 C211 1.391 . S
C211 H199 0.950 . S
C211 C207 1.393 . S
C211 C210 1.391 . S
H212 C220 0.950 . S
H213 C225 0.950 . S
H214 C222 0.950 . S
H215 C224 0.950 . S
H216 C226 0.950 . S
H217 C228 0.950 . S
H218 C230 0.950 . S
H219 C231 0.950 . S
C220 H212 0.950 . S
C220 C221 1.386 . S
C220 C222 1.391 . S
C221 C220 1.386 . S
C221 C225 1.393 . S
C222 H214 0.950 . S
C222 C220 1.391 . S
C222 C223 1.400 . S
C223 C222 1.400 . S
C223 C224 1.398 . S
C223 C229 1.491 . S
C224 H215 0.950 . S
C224 C223 1.398 . S
C224 C225 1.391 . S
C225 H213 0.950 . S
C225 C221 1.393 . S
C225 C224 1.391 . S
C226 H216 0.950 . S
C226 C227 1.386 . S
C226 C228 1.391 . S
C227 C226 1.386 . S
C227 C231 1.393 . S
C228 H217 0.950 . S
C228 C226 1.391 . S
C228 C229 1.400 . S
C229 C223 1.491 . S
C229 C228 1.400 . S
C229 C230 1.398 . S
C230 H218 0.950 . S
C230 C229 1.398 . S
C230 C231 1.391 . S
C231 H219 0.950 . S
C231 C227 1.393 . S
C231 C230 1.391 . S
H232 C240 0.950 . S
H233 C245 0.950 . S
H234 C242 0.950 . S
H235 C244 0.950 . S
H236 C246 0.950 . S
H237 C248 0.950 . S
H238 C250 0.950 . S
H239 C251 0.950 . S
C240 H232 0.950 . S
C240 C241 1.386 . S
C240 C242 1.391 . S
C241 C240 1.386 . S
C241 C245 1.393 . S
C242 H234 0.950 . S
C242 C240 1.391 . S
C242 C243 1.400 . S
C243 C242 1.400 . S
C243 C244 1.398 . S
C243 C249 1.491 . S
C244 H235 0.950 . S
C244 C243 1.398 . S
C244 C245 1.391 . S
C245 H233 0.950 . S
C245 C241 1.393 . S
C245 C244 1.391 . S
C246 H236 0.950 . S
C246 C247 1.386 . S
C246 C248 1.391 . S
C247 C246 1.386 . S
C247 C251 1.393 . S
C248 H237 0.950 . S
C248 C246 1.391 . S
C248 C249 1.400 . S
C249 C243 1.491 . S
C249 C248 1.400 . S
C249 C250 1.398 . S
C250 H238 0.950 . S
C250 C249 1.398 . S
C250 C251 1.391 . S
C251 H239 0.950 . S
C251 C247 1.393 . S
C251 C250 1.391 . S
H252 C260 0.950 . S
H253 C265 0.950 . S
H254 C262 0.950 . S
H255 C264 0.950 . S
H256 C266 0.950 . S
H257 C268 0.950 . S
H258 C270 0.950 . S
H259 C271 0.950 . S
C260 H252 0.950 . S
C260 C261 1.386 . S
C260 C262 1.391 . S
C261 C260 1.386 . S
C261 C265 1.393 . S
C262 H254 0.950 . S
C262 C260 1.391 . S
C262 C263 1.400 . S
C263 C262 1.400 . S
C263 C264 1.398 . S
C263 C269 1.491 . S
C264 H255 0.950 . S
C264 C263 1.398 . S
C264 C265 1.391 . S
C265 H253 0.950 . S
C265 C261 1.393 . S
C265 C264 1.391 . S
C266 H256 0.950 . S
C266 C267 1.386 . S
C266 C268 1.391 . S
C267 C266 1.386 . S
C267 C271 1.393 . S
C268 H257 0.950 . S
C268 C266 1.391 . S
C268 C269 1.400 . S
C269 C263 1.491 . S
C269 C268 1.400 . S
C269 C270 1.398 . S
C270 H258 0.950 . S
C270 C269 1.398 . S
C270 C271 1.391 . S
C271 H259 0.950 . S
C271 C267 1.393 . S
C271 C270 1.391 . S
H272 C280 0.950 . S
H273 C285 0.950 . S
H274 C282 0.950 . S
H275 C284 0.950 . S
H276 C286 0.950 . S
H277 C288 0.950 . S
H278 C290 0.950 . S
H279 C291 0.950 . S
C280 H272 0.950 . S
C280 C281 1.386 . S
C280 C282 1.391 . S
C281 C280 1.386 . S
C281 C285 1.393 . S
C282 H274 0.950 . S
C282 C280 1.391 . S
C282 C283 1.400 . S
C283 C282 1.400 . S
C283 C284 1.398 . S
C283 C289 1.491 . S
C284 H275 0.950 . S
C284 C283 1.398 . S
C284 C285 1.391 . S
C285 H273 0.950 . S
C285 C281 1.393 . S
C285 C284 1.391 . S
C286 H276 0.950 . S
C286 C287 1.386 . S
C286 C288 1.391 . S
C287 C286 1.386 . S
C287 C291 1.393 . S
C288 H277 0.950 . S
C288 C286 1.391 . S
C288 C289 1.400 . S
C289 C283 1.491 . S
C289 C288 1.400 . S
C289 C290 1.398 . S
C290 H278 0.950 . S
C290 C289 1.398 . S
C290 C291 1.391 . S
C291 H279 0.950 . S
C291 C287 1.393 . S
C291 C290 1.391 . S
H292 C300 0.950 . S
H293 C305 0.950 . S
H294 C302 0.950 . S
H295 C304 0.950 . S
H296 C306 0.950 . S
H297 C308 0.950 . S
H298 C310 0.950 . S
H299 C311 0.950 . S
C300 H292 0.950 . S
C300 C301 1.386 . S
C300 C302 1.391 . S
C301 C300 1.386 . S
C301 C305 1.393 . S
C302 H294 0.950 . S
C302 C300 1.391 . S
C302 C303 1.400 . S
C303 C302 1.400 . S
C303 C304 1.398 . S
C303 C309 1.491 . S
C304 H295 0.950 . S
C304 C303 1.398 . S
C304 C305 1.391 . S
C305 H293 0.950 . S
C305 C301 1.393 . S
C305 C304 1.391 . S
C306 H296 0.950 . S
C306 C307 1.386 . S
C306 C308 1.391 . S
C307 C306 1.386 . S
C307 C311 1.393 . S
C308 H297 0.950 . S
C308 C306 1.391 . S
C308 C309 1.400 . S
C309 C303 1.491 . S
C309 C308 1.400 . S
C309 C310 1.398 . S
C310 H298 0.950 . S
C310 C309 1.398 . S
C310 C311 1.391 . S
C311 H299 0.950 . S
C311 C307 1.393 . S
C311 C310 1.391 . S
H312 C320 0.950 . S
H313 C325 0.950 . S
H314 C322 0.950 . S
H315 C324 0.950 . S
H316 C326 0.950 . S
H317 C328 0.950 . S
H318 C330 0.950 . S
H319 C331 0.950 . S
C320 H312 0.950 . S
C320 C321 1.386 . S
C320 C322 1.391 . S
C321 C320 1.386 . S
C321 C325 1.393 . S
C322 H314 0.950 . S
C322 C320 1.391 . S
C322 C323 1.400 . S
C323 C322 1.400 . S
C323 C324 1.398 . S
C323 C329 1.491 . S
C324 H315 0.950 . S
C324 C323 1.398 . S
C324 C325 1.391 . S
C325 H313 0.950 . S
C325 C321 1.393 . S
C325 C324 1.391 . S
C326 H316 0.950 . S
C326 C327 1.386 . S
C326 C328 1.391 . S
C327 C326 1.386 . S
C327 C331 1.393 . S
C328 H317 0.950 . S
C328 C326 1.391 . S
C328 C329 1.400 . S
C329 C323 1.491 . S
C329 C328 1.400 . S
C329 C330 1.398 . S
C330 H318 0.950 . S
C330 C329 1.398 . S
C330 C331 1.391 . S
C331 H319 0.950 . S
C331 C327 1.393 . S
C331 C330 1.391 . S
H332 C340 0.950 . S
H333 C345 0.950 . S
H334 C342 0.950 . S
H335 C344 0.950 . S
H336 C346 0.950 . S
H337 C348 0.950 . S
H338 C350 0.950 . S
H339 C351 0.950 . S
C340 H332 0.950 . S
C340 C341 1.386 . S
C340 C342 1.391 . S
C341 C340 1.386 . S
C341 C345 1.393 . S
C342 H334 0.950 . S
C342 C340 1.391 . S
C342 C343 1.400 . S
C343 C342 1.400 . S
C343 C344 1.398 . S
C343 C349 1.491 . S
C344 H335 0.950 . S
C344 C343 1.398 . S
C344 C345 1.391 . S
C345 H333 0.950 . S
C345 C341 1.393 . S
C345 C344 1.391 . S
C346 H336 0.950 . S
C346 C347 1.386 . S
C346 C348 1.391 . S
C347 C346 1.386 . S
C347 C351 1.393 . S
C348 H337 0.950 . S
C348 C346 1.391 . S
C348 C349 1.400 . S
C349 C343 1.491 . S
C349 C348 1.400 . S
C349 C350 1.398 . S
C350 H338 0.950 . S
C350 C349 1.398 . S
C350 C351 1.391 . S
C351 H339 0.950 . S
C351 C347 1.393 . S
C351 C350 1.391 . S
H352 C360 0.950 . S
H353 C365 0.950 . S
H354 C362 0.954 . S
H355 C364 0.950 . S
H356 C366 0.950 . S
H357 C368 0.954 . S
H358 C370 0.950 . S
H359 C371 0.950 . S
C360 H352 0.950 . S
C360 C361 1.386 1_655 S
C360 C362 1.389 1_545 S
C361 C360 1.386 1_455 S
C361 C365 1.393 . S
C362 H354 0.954 . S
C362 C360 1.389 1_565 S
C362 C363 1.399 1_665 S
C363 C362 1.399 1_445 S
C363 C364 1.398 . S
C363 C369 1.491 1_544 S
C364 H355 0.950 . S
C364 C363 1.398 . S
C364 C365 1.391 . S
C365 H353 0.950 . S
C365 C361 1.393 . S
C365 C364 1.391 . S
C366 H356 0.950 . S
C366 C367 1.386 . S
C366 C368 1.389 1_565 S
C367 C366 1.386 . S
C367 C371 1.393 1_455 S
C368 H357 0.954 . S
C368 C366 1.389 1_545 S
C368 C369 1.399 1_545 S
C369 C363 1.491 1_566 S
C369 C368 1.399 1_565 S
C369 C370 1.398 1_455 S
C370 H358 0.950 . S
C370 C369 1.398 1_655 S
C370 C371 1.391 . S
C371 H359 0.950 . S
C371 C367 1.393 1_655 S
C371 C370 1.391 . S
H372 C380 0.950 . S
H373 C385 0.945 1_655 S
H374 C382 0.968 . S
H375 C384 0.950 1_655 S
H376 C386 0.950 . S
H377 C388 0.968 . S
H378 C390 0.950 . S
H379 C391 0.950 . S
C380 H372 0.950 . S
C380 C381 1.386 . S
C380 C382 1.391 . S
C381 C380 1.386 . S
C381 C385 1.393 . S
C382 H374 0.968 . S
C382 C380 1.391 . S
C382 C383 1.400 . S
C383 C382 1.400 . S
C383 C384 1.398 . S
C383 C389 1.491 1_556 S
C384 H375 0.950 1_455 S
C384 C383 1.398 . S
C384 C385 1.391 . S
C385 H373 0.945 1_455 S
C385 C381 1.393 . S
C385 C384 1.391 . S
C386 H376 0.950 . S
C386 C387 1.386 . S
C386 C388 1.391 . S
C387 C386 1.386 . S
C387 C391 1.393 . S
C388 H377 0.968 . S
C388 C386 1.391 . S
C388 C389 1.400 . S
C389 C383 1.491 1_554 S
C389 C388 1.400 . S
C389 C390 1.398 . S
C390 H378 0.950 . S
C390 C389 1.398 . S
C390 C391 1.391 . S
C391 H379 0.950 . S
C391 C387 1.393 . S
C391 C390 1.391 . S
H392 C400 0.950 . S
H393 C405 0.950 . S
H394 C402 0.950 . S
H395 C404 0.950 . S
H396 C406 0.950 . S
H397 C408 0.950 . S
H398 C410 0.950 . S
H399 C411 0.950 . S
C400 H392 0.950 . S
C400 C401 1.386 . S
C400 C402 1.391 . S
C401 C400 1.386 . S
C401 C405 1.393 . S
C402 H394 0.950 . S
C402 C400 1.391 . S
C402 C403 1.400 . S
C403 C402 1.400 . S
C403 C404 1.398 . S
C403 C409 1.491 . S
C404 H395 0.950 . S
C404 C403 1.398 . S
C404 C405 1.391 . S
C405 H393 0.950 . S
C405 C401 1.393 . S
C405 C404 1.391 . S
C406 H396 0.950 . S
C406 C407 1.386 . S
C406 C408 1.391 . S
C407 C406 1.386 . S
C407 C411 1.393 . S
C408 H397 0.950 . S
C408 C406 1.391 . S
C408 C409 1.400 . S
C409 C403 1.491 . S
C409 C408 1.400 . S
C409 C410 1.398 . S
C410 H398 0.950 . S
C410 C409 1.398 . S
C410 C411 1.391 . S
C411 H399 0.950 . S
C411 C407 1.393 . S
C411 C410 1.391 . S
H412 C420 0.950 . S
H413 C425 0.950 . S
H414 C422 0.950 . S
H415 C424 0.950 . S
H416 C426 0.950 . S
H417 C428 0.950 . S
H418 C430 0.950 . S
H419 C431 0.950 . S
C420 H412 0.950 . S
C420 C421 1.386 . S
C420 C422 1.391 . S
C421 C420 1.386 . S
C421 C425 1.393 . S
C422 H414 0.950 . S
C422 C420 1.391 . S
C422 C423 1.400 . S
C423 C422 1.400 . S
C423 C424 1.398 . S
C423 C429 1.491 1_565 S
C424 H415 0.950 . S
C424 C423 1.398 . S
C424 C425 1.391 . S
C425 H413 0.950 . S
C425 C421 1.393 . S
C425 C424 1.391 . S
C426 H416 0.950 . S
C426 C427 1.386 . S
C426 C428 1.391 . S
C427 C426 1.386 . S
C427 C431 1.393 . S
C428 H417 0.950 . S
C428 C426 1.391 . S
C428 C429 1.400 . S
C429 C423 1.491 1_545 S
C429 C428 1.400 . S
C429 C430 1.398 . S
C430 H418 0.950 . S
C430 C429 1.398 . S
C430 C431 1.391 . S
C431 H419 0.950 . S
C431 C427 1.393 . S
C431 C430 1.391 . S
C121 C22 1.428 . S
C127 C8 1.407 . S
C141 C36 1.420 . S
C147 C50 1.432 . S
C161 C64 1.410 . S
C167 C78 1.431 . S
C181 C92 1.433 . S
C187 C106 1.416 . S
C201 C105 1.503 . S
C207 C7 1.502 . S
C221 C91 1.500 . S
C227 C21 1.508 . S
C241 C35 1.500 . S
C247 C77 1.508 . S
C261 C63 1.505 . S
C267 C49 1.501 . S
C281 C83 1.203 . S
C287 C41 1.215 . S
C301 C69 1.203 . S
C307 C55 1.223 . S
C321 C111 1.231 . S
C327 C13 1.245 . S
C341 C27 1.211 . S
C347 C97 1.204 . S
C361 C11 1.361 . S
C367 C39 1.355 . S
C381 C53 1.353 . S
C387 C25 1.363 . S
C401 C95 1.361 . S
C407 C67 1.356 . S
C421 C81 1.356 . S
C427 C109 1.359 . S
