# Generated by pormake.
# Topology ukb, (4)-cn, num edge types: 1
# Building blocks:
#     Node 0, Type 0, BuildingBlock: GALJAG_clean_sbu_0, # of connection points: 4
#     Node 1, Type 0, BuildingBlock: GALJAG_clean_sbu_0, # of connection points: 4
#     Node 2, Type 0, BuildingBlock: GALJAG_clean_sbu_0, # of connection points: 4
#     Node 3, Type 0, BuildingBlock: GALJAG_clean_sbu_0, # of connection points: 4
#     Node 4, Type 0, BuildingBlock: GALJAG_clean_sbu_0, # of connection points: 4
#     Node 5, Type 0, BuildingBlock: GALJAG_clean_sbu_0, # of connection points: 4
#     Node 6, Type 0, BuildingBlock: GALJAG_clean_sbu_0, # of connection points: 4
#     Node 7, Type 0, BuildingBlock: GALJAG_clean_sbu_0, # of connection points: 4
#     Node 8, Type 0, BuildingBlock: GALJAG_clean_sbu_0, # of connection points: 4
#     Node 9, Type 0, BuildingBlock: GALJAG_clean_sbu_0, # of connection points: 4
#     Node 10, Type 0, BuildingBlock: GALJAG_clean_sbu_0, # of connection points: 4
#     Node 11, Type 0, BuildingBlock: GALJAG_clean_sbu_0, # of connection points: 4
#     Node 12, Type 0, BuildingBlock: GALJAG_clean_sbu_0, # of connection points: 4
#     Node 13, Type 0, BuildingBlock: GALJAG_clean_sbu_0, # of connection points: 4
#     Node 14, Type 0, BuildingBlock: GALJAG_clean_sbu_0, # of connection points: 4
#     Node 15, Type 0, BuildingBlock: GALJAG_clean_sbu_0, # of connection points: 4
#     Edge 16, Type (0, 0), BuildingBlock: MIFKUJ_clean_linker_0, # of connection points: 2
#     Edge 17, Type (0, 0), BuildingBlock: MIFKUJ_clean_linker_0, # of connection points: 2
#     Edge 18, Type (0, 0), BuildingBlock: MIFKUJ_clean_linker_0, # of connection points: 2
#     Edge 19, Type (0, 0), BuildingBlock: MIFKUJ_clean_linker_0, # of connection points: 2
#     Edge 20, Type (0, 0), BuildingBlock: MIFKUJ_clean_linker_0, # of connection points: 2
#     Edge 21, Type (0, 0), BuildingBlock: MIFKUJ_clean_linker_0, # of connection points: 2
#     Edge 22, Type (0, 0), BuildingBlock: MIFKUJ_clean_linker_0, # of connection points: 2
#     Edge 23, Type (0, 0), BuildingBlock: MIFKUJ_clean_linker_0, # of connection points: 2
#     Edge 24, Type (0, 0), BuildingBlock: MIFKUJ_clean_linker_0, # of connection points: 2
#     Edge 25, Type (0, 0), BuildingBlock: MIFKUJ_clean_linker_0, # of connection points: 2
#     Edge 26, Type (0, 0), BuildingBlock: MIFKUJ_clean_linker_0, # of connection points: 2
#     Edge 27, Type (0, 0), BuildingBlock: MIFKUJ_clean_linker_0, # of connection points: 2
#     Edge 28, Type (0, 0), BuildingBlock: MIFKUJ_clean_linker_0, # of connection points: 2
#     Edge 29, Type (0, 0), BuildingBlock: MIFKUJ_clean_linker_0, # of connection points: 2
#     Edge 30, Type (0, 0), BuildingBlock: MIFKUJ_clean_linker_0, # of connection points: 2
#     Edge 31, Type (0, 0), BuildingBlock: MIFKUJ_clean_linker_0, # of connection points: 2
#     Edge 32, Type (0, 0), BuildingBlock: MIFKUJ_clean_linker_0, # of connection points: 2
#     Edge 33, Type (0, 0), BuildingBlock: MIFKUJ_clean_linker_0, # of connection points: 2
#     Edge 34, Type (0, 0), BuildingBlock: MIFKUJ_clean_linker_0, # of connection points: 2
#     Edge 35, Type (0, 0), BuildingBlock: MIFKUJ_clean_linker_0, # of connection points: 2
#     Edge 36, Type (0, 0), BuildingBlock: MIFKUJ_clean_linker_0, # of connection points: 2
#     Edge 37, Type (0, 0), BuildingBlock: MIFKUJ_clean_linker_0, # of connection points: 2
#     Edge 38, Type (0, 0), BuildingBlock: MIFKUJ_clean_linker_0, # of connection points: 2
#     Edge 39, Type (0, 0), BuildingBlock: MIFKUJ_clean_linker_0, # of connection points: 2
#     Edge 40, Type (0, 0), BuildingBlock: MIFKUJ_clean_linker_0, # of connection points: 2
#     Edge 41, Type (0, 0), BuildingBlock: MIFKUJ_clean_linker_0, # of connection points: 2
#     Edge 42, Type (0, 0), BuildingBlock: MIFKUJ_clean_linker_0, # of connection points: 2
#     Edge 43, Type (0, 0), BuildingBlock: MIFKUJ_clean_linker_0, # of connection points: 2
#     Edge 44, Type (0, 0), BuildingBlock: MIFKUJ_clean_linker_0, # of connection points: 2
#     Edge 45, Type (0, 0), BuildingBlock: MIFKUJ_clean_linker_0, # of connection points: 2
#     Edge 46, Type (0, 0), BuildingBlock: MIFKUJ_clean_linker_0, # of connection points: 2
#     Edge 47, Type (0, 0), BuildingBlock: MIFKUJ_clean_linker_0, # of connection points: 2
# Relax obj value: 0.140
# Max RMSD: 0.093
# Mean RMSD: 0.093
data_MOF--net-ukb--node1-GALJAG_clean_sbu_0--edge1-MIFKUJ_clean_linker_0
_symmetry_space_group_name_H-M    P1
_symmetry_Int_Tables_number       1
_symmetry_cell_setting            triclinic
loop_
_symmetry_equiv_pos_as_xyz
'x, y, z'
_cell_length_a     57.551334
_cell_length_b     57.546022
_cell_length_c     49.037069
_cell_angle_alpha  89.986966
_cell_angle_beta   90.001053
_cell_angle_gamma 89.990767
loop_
_atom_site_label
_atom_site_type_symbol
_atom_site_fract_x
_atom_site_fract_y
_atom_site_fract_z
_atom_type_partial_charge
In0 In 0.52402 0.19863 0.185 0.0
O1 O 0.5528 0.17294 0.17413 0.0
O2 O 0.54886 0.18251 0.21578 0.0
C3 C 0.51291 0.20952 0.13307 0.0
C4 C 0.48525 0.17698 0.20313 0.0
C5 C 0.54257 0.23824 0.20441 0.0
O6 O 0.52388 0.1913 0.13924 0.0
O7 O 0.50729 0.22208 0.15306 0.0
O8 O 0.52612 0.22791 0.21648 0.0
O9 O 0.54942 0.22859 0.18274 0.0
C10 C 0.55992 0.17077 0.19835 0.0
O11 O 0.48817 0.19858 0.20586 0.0
O12 O 0.50179 0.1666 0.19163 0.0
In13 In 0.30099 0.52729 0.69015 0.0
O14 O 0.3033 0.49109 0.71007 0.0
O15 O 0.33362 0.50526 0.69204 0.0
C16 C 0.26052 0.54349 0.71021 0.0
C17 C 0.32893 0.56155 0.70814 0.0
C18 C 0.28999 0.52043 0.63718 0.0
O19 O 0.2693 0.52456 0.71829 0.0
O20 O 0.27217 0.55403 0.69228 0.0
O21 O 0.30583 0.53411 0.64467 0.0
O22 O 0.27992 0.50989 0.65634 0.0
C23 C 0.32456 0.48849 0.70459 0.0
O24 O 0.32751 0.55597 0.68331 0.0
O25 O 0.31635 0.5497 0.72404 0.0
In26 In 0.97555 0.30287 0.18655 0.0
O27 O 0.00549 0.30748 0.21677 0.0
O28 O 0.00638 0.32722 0.1803 0.0
C29 C 0.9582 0.26201 0.204 0.0
C30 C 0.94272 0.3337 0.20255 0.0
C31 C 0.98293 0.29074 0.13434 0.0
O32 O 0.97672 0.27051 0.21356 0.0
O33 O 0.94858 0.27407 0.18574 0.0
O34 O 0.97 0.30751 0.1411 0.0
O35 O 0.99253 0.28026 0.15399 0.0
C36 C 0.0161 0.32232 0.20257 0.0
O37 O 0.94895 0.33158 0.17805 0.0
O38 O 0.95326 0.32057 0.21895 0.0
In39 In 0.1963 0.97431 0.68756 0.0
O40 O 0.1921 0.00424 0.71792 0.0
O41 O 0.17278 0.00562 0.68113 0.0
C42 C 0.23629 0.95644 0.70679 0.0
C43 C 0.16355 0.94365 0.7038 0.0
C44 C 0.20994 0.97916 0.63534 0.0
O45 O 0.23023 0.97716 0.71151 0.0
O46 O 0.22223 0.94494 0.6924 0.0
O47 O 0.19467 0.96468 0.64255 0.0
O48 O 0.21817 0.99132 0.65443 0.0
C49 C 0.17774 0.01526 0.70343 0.0
O50 O 0.16374 0.95231 0.68017 0.0
O51 O 0.17952 0.95079 0.71925 0.0
In52 In 0.52733 0.29692 0.80475 0.0
O53 O 0.55894 0.31723 0.81966 0.0
O54 O 0.55052 0.31884 0.77741 0.0
C55 C 0.5143 0.28495 0.8558 0.0
C56 C 0.48963 0.3197 0.78559 0.0
C57 C 0.54577 0.25873 0.78131 0.0
O58 O 0.523 0.30452 0.85031 0.0
O59 O 0.51181 0.27174 0.83555 0.0
O60 O 0.52854 0.26916 0.77103 0.0
O61 O 0.55343 0.26761 0.803 0.0
C62 C 0.56393 0.3252 0.79637 0.0
O63 O 0.49078 0.2978 0.78564 0.0
O64 O 0.50723 0.32977 0.79517 0.0
In65 In 0.19979 0.52782 0.30638 0.0
O66 O 0.19271 0.49914 0.27497 0.0
O67 O 0.18312 0.49285 0.31598 0.0
C68 C 0.23687 0.54099 0.27647 0.0
C69 C 0.16628 0.56033 0.2998 0.0
C70 C 0.21357 0.52624 0.35895 0.0
O71 O 0.23668 0.52239 0.29015 0.0
O72 O 0.21831 0.55262 0.27758 0.0
O73 O 0.19268 0.52351 0.35187 0.0
O74 O 0.22747 0.52997 0.33956 0.0
C75 C 0.18356 0.48542 0.29186 0.0
O76 O 0.1821 0.56218 0.31745 0.0
O77 O 0.16724 0.54204 0.28572 0.0
In78 In 0.97628 0.19898 0.80454 0.0
O79 O 0.94758 0.17469 0.81967 0.0
O80 O 0.96229 0.16785 0.78085 0.0
C81 C 0.9799 0.21242 0.85695 0.0
C82 C 0.01895 0.18637 0.7867 0.0
C83 C 0.95651 0.23545 0.77877 0.0
O84 O 0.98219 0.19149 0.84969 0.0
O85 O 0.97581 0.22648 0.8378 0.0
O86 O 0.97789 0.23493 0.78455 0.0
O87 O 0.94535 0.21754 0.78565 0.0
C88 C 0.94762 0.16205 0.79867 0.0
O89 O 0.00247 0.19096 0.77067 0.0
O90 O 0.01407 0.18869 0.81157 0.0
In91 In 0.29825 0.97416 0.30459 0.0
O92 O 0.30776 0.9362 0.31146 0.0
O93 O 0.33096 0.95677 0.28789 0.0
C94 C 0.28799 0.97977 0.3578 0.0
C95 C 0.31803 0.01482 0.28943 0.0
C96 C 0.25995 0.96101 0.27665 0.0
O97 O 0.30439 0.96698 0.34969 0.0
O98 O 0.27688 0.9899 0.33908 0.0
O99 O 0.25906 0.9704 0.29983 0.0
O100 O 0.28017 0.95889 0.26705 0.0
C101 C 0.32645 0.93712 0.29804 0.0
O102 O 0.30087 0.00631 0.27695 0.0
O103 O 0.32506 0.00287 0.30928 0.0
In104 In 0.47001 0.8039 0.81819 0.0
O105 O 0.50308 0.80866 0.79257 0.0
O106 O 0.49504 0.83397 0.82267 0.0
C107 C 0.45211 0.76376 0.79924 0.0
C108 C 0.436 0.83338 0.8029 0.0
C109 C 0.48046 0.79103 0.86947 0.0
O110 O 0.46993 0.77293 0.78867 0.0
O111 O 0.4436 0.77483 0.81903 0.0
O112 O 0.46639 0.80722 0.8641 0.0
O113 O 0.48956 0.78146 0.84891 0.0
C114 C 0.50875 0.82743 0.80418 0.0
O115 O 0.43994 0.82837 0.82751 0.0
O116 O 0.44928 0.82358 0.78597 0.0
In117 In 0.69815 0.47279 0.3093 0.0
O118 O 0.66945 0.44624 0.31748 0.0
O119 O 0.68146 0.44986 0.2768 0.0
C120 C 0.71132 0.48094 0.36104 0.0
C121 C 0.6769 0.51297 0.29555 0.0
C122 C 0.73855 0.45513 0.2908 0.0
O123 O 0.69635 0.46582 0.35482 0.0
O124 O 0.71946 0.49224 0.34114 0.0
O125 O 0.72856 0.47197 0.27911 0.0
O126 O 0.72815 0.44738 0.31152 0.0
C127 C 0.66796 0.43959 0.29306 0.0
O128 O 0.6954 0.50632 0.28413 0.0
O129 O 0.66928 0.49938 0.31358 0.0
In130 In 0.02633 0.69916 0.8074 0.0
O131 O 0.05924 0.67862 0.81716 0.0
O132 O 0.04132 0.67016 0.78071 0.0
C133 C 0.01842 0.7119 0.85937 0.0
C134 C 0.98567 0.67948 0.79289 0.0
C135 C 0.04311 0.73871 0.78496 0.0
O136 O 0.0293 0.6936 0.85316 0.0
O137 O 0.01119 0.72362 0.83932 0.0
O138 O 0.02262 0.73184 0.78065 0.0
O139 O 0.05497 0.72549 0.79993 0.0
C140 C 0.05841 0.66615 0.79607 0.0
O141 O 0.99826 0.69033 0.77607 0.0
O142 O 0.99354 0.6787 0.81687 0.0
In143 In 0.8009 0.03042 0.31184 0.0
O144 O 0.80609 0.99759 0.28601 0.0
O145 O 0.83034 0.00472 0.31759 0.0
C146 C 0.76086 0.04759 0.29155 0.0
C147 C 0.83151 0.06323 0.29584 0.0
C148 C 0.78737 0.02185 0.36342 0.0
O149 O 0.76967 0.0289 0.28278 0.0
O150 O 0.77215 0.05725 0.31043 0.0
O151 O 0.80094 0.03823 0.3572 0.0
O152 O 0.78061 0.00964 0.34356 0.0
C153 C 0.82425 0.99138 0.29851 0.0
O154 O 0.82843 0.05797 0.32054 0.0
O155 O 0.81928 0.05183 0.27922 0.0
In156 In 0.47211 0.69819 0.19734 0.0
O157 O 0.43718 0.68387 0.18328 0.0
O158 O 0.45768 0.6625 0.20904 0.0
C159 C 0.47738 0.71101 0.14489 0.0
C160 C 0.51316 0.6829 0.21745 0.0
C161 C 0.45681 0.73447 0.22747 0.0
O162 O 0.48043 0.69034 0.15277 0.0
O163 O 0.47157 0.72507 0.16342 0.0
O164 O 0.47559 0.73516 0.21424 0.0
O165 O 0.44627 0.71532 0.22622 0.0
C166 C 0.43894 0.66493 0.19602 0.0
O167 O 0.49514 0.68457 0.23192 0.0
O168 O 0.5106 0.68944 0.19314 0.0
In169 In 0.7988 0.47402 0.69112 0.0
O170 O 0.80325 0.50386 0.72178 0.0
O171 O 0.82293 0.50488 0.68526 0.0
C172 C 0.7593 0.46208 0.71744 0.0
C173 C 0.82705 0.43702 0.69861 0.0
C174 C 0.78962 0.48005 0.63777 0.0
O175 O 0.77888 0.46197 0.729 0.0
O176 O 0.7596 0.46895 0.69304 0.0
O177 O 0.8051 0.46626 0.64619 0.0
O178 O 0.77883 0.49084 0.65627 0.0
C179 C 0.81807 0.51453 0.70756 0.0
O180 O 0.80697 0.43531 0.68856 0.0
O181 O 0.83306 0.45745 0.70461 0.0
In182 In 0.0255 0.79827 0.19047 0.0
O183 O 0.06299 0.80943 0.18269 0.0
O184 O 0.04318 0.82925 0.21085 0.0
C185 C 0.01981 0.78959 0.1369 0.0
C186 C 0.9869 0.82169 0.20527 0.0
C187 C 0.035 0.75775 0.21648 0.0
O188 O 0.03822 0.7982 0.14657 0.0
O189 O 0.00413 0.78553 0.15425 0.0
O190 O 0.03895 0.7773 0.22701 0.0
O191 O 0.02563 0.75864 0.19332 0.0
C192 C 0.06236 0.82646 0.19886 0.0
O193 O 0.99352 0.80359 0.21759 0.0
O194 O 0.99961 0.8277 0.18555 0.0
In195 In 0.70563 0.02368 0.69443 0.0
O196 O 0.69058 0.98703 0.69213 0.0
O197 O 0.68931 0.00417 0.73031 0.0
C198 C 0.74763 0.03757 0.71288 0.0
C199 C 0.67488 0.05824 0.70361 0.0
C200 C 0.71537 0.01638 0.64149 0.0
O201 O 0.73837 0.01885 0.72083 0.0
O202 O 0.73588 0.04876 0.69564 0.0
O203 O 0.70129 0.03182 0.64935 0.0
O204 O 0.72446 0.00454 0.66037 0.0
C205 C 0.68435 0.98627 0.71671 0.0
O206 O 0.67221 0.04374 0.68454 0.0
O207 O 0.69275 0.05505 0.71797 0.0
H208 H 0.47788 0.13046 0.20249 0.0
H209 H 0.44297 0.10951 0.21587 0.0
H210 H 0.40956 0.17424 0.23678 0.0
H211 H 0.44495 0.19546 0.22384 0.0
H212 H 0.40089 0.14213 0.27452 0.0
H213 H 0.39374 0.14602 0.17883 0.0
H214 H 0.40614 0.14354 0.1308 0.0
H215 H 0.41843 0.07036 0.13988 0.0
H216 H 0.40644 0.07243 0.18809 0.0
H217 H 0.30608 0.04426 0.24781 0.0
H218 H 0.32707 0.07908 0.23279 0.0
H219 H 0.37754 0.06852 0.29672 0.0
H220 H 0.35644 0.03428 0.31211 0.0
H221 H 0.36842 0.08217 0.21259 0.0
H222 H 0.40159 0.11752 0.31767 0.0
H223 H 0.38663 0.12232 0.36445 0.0
H224 H 0.31662 0.12186 0.3342 0.0
H225 H 0.33114 0.11742 0.2872 0.0
C226 C 0.46313 0.14029 0.20992 0.0
C227 C 0.46409 0.16461 0.21199 0.0
C228 C 0.44311 0.12829 0.21741 0.0
C229 C 0.42348 0.14034 0.22678 0.0
C230 C 0.42447 0.16463 0.2294 0.0
C231 C 0.44465 0.1767 0.222 0.0
C232 C 0.40228 0.12717 0.23432 0.0
C233 C 0.3936 0.12917 0.26094 0.0
C234 C 0.39219 0.11086 0.21624 0.0
C235 C 0.39925 0.10942 0.18714 0.0
C236 C 0.39921 0.12941 0.17063 0.0
C237 C 0.40616 0.12808 0.14336 0.0
C238 C 0.41309 0.10681 0.1323 0.0
C239 C 0.41304 0.08682 0.14847 0.0
C240 C 0.40613 0.08806 0.17577 0.0
C241 C 0.32148 0.0496 0.25884 0.0
C242 C 0.32966 0.03656 0.28109 0.0
C243 C 0.33345 0.06947 0.25026 0.0
C244 C 0.35372 0.07662 0.26383 0.0
C245 C 0.36165 0.06373 0.2863 0.0
C246 C 0.34967 0.04401 0.29494 0.0
C247 C 0.3679 0.09621 0.25331 0.0
C248 C 0.37528 0.09545 0.22606 0.0
C249 C 0.37633 0.11402 0.27063 0.0
C250 C 0.36748 0.11701 0.29888 0.0
C251 C 0.38301 0.1186 0.32096 0.0
C252 C 0.3746 0.12122 0.34753 0.0
C253 C 0.35069 0.12235 0.3523 0.0
C254 C 0.33513 0.12092 0.33049 0.0
C255 C 0.34345 0.11831 0.30388 0.0
H256 H 0.34422 0.12436 0.37289 0.0
H257 H 0.41848 0.10581 0.11118 0.0
H258 H 0.37133 0.48361 0.70309 0.0
H259 H 0.39422 0.44939 0.71431 0.0
H260 H 0.33152 0.4116 0.73342 0.0
H261 H 0.30837 0.44641 0.723 0.0
H262 H 0.36385 0.40208 0.76987 0.0
H263 H 0.36151 0.40066 0.67365 0.0
H264 H 0.36372 0.41594 0.62675 0.0
H265 H 0.43585 0.43225 0.63822 0.0
H266 H 0.43402 0.4174 0.68534 0.0
H267 H 0.44515 0.30422 0.77665 0.0
H268 H 0.41189 0.32732 0.76035 0.0
H269 H 0.45609 0.38759 0.75399 0.0
H270 H 0.489 0.36496 0.7707 0.0
H271 H 0.42654 0.37748 0.70664 0.0
H272 H 0.42441 0.38462 0.80643 0.0
H273 H 0.42114 0.36811 0.8527 0.0
H274 H 0.3552 0.33801 0.83195 0.0
H275 H 0.35826 0.3541 0.78541 0.0
C276 C 0.36236 0.46803 0.70964 0.0
C277 C 0.33806 0.46761 0.71198 0.0
C278 C 0.37547 0.44839 0.71589 0.0
C279 C 0.36457 0.4277 0.72403 0.0
C280 C 0.34028 0.42731 0.72693 0.0
C281 C 0.3271 0.44716 0.72097 0.0
C282 C 0.37894 0.40687 0.72999 0.0
C283 C 0.37717 0.39633 0.75575 0.0
C284 C 0.39628 0.39918 0.71156 0.0
C285 C 0.39759 0.40798 0.68311 0.0
C286 C 0.37782 0.40762 0.66624 0.0
C287 C 0.379 0.4162 0.6396 0.0
C288 C 0.3999 0.42508 0.62952 0.0
C289 C 0.41968 0.42536 0.64605 0.0
C290 C 0.41858 0.41682 0.67271 0.0
C291 C 0.4477 0.32238 0.77166 0.0
C292 C 0.46958 0.33285 0.77497 0.0
C293 C 0.42874 0.3355 0.76243 0.0
C294 C 0.43164 0.3591 0.75599 0.0
C295 C 0.45357 0.36938 0.7588 0.0
C296 C 0.47231 0.35645 0.76844 0.0
C297 C 0.41196 0.37361 0.74676 0.0
C298 C 0.41276 0.38288 0.72036 0.0
C299 C 0.39355 0.3798 0.76439 0.0
C300 C 0.39171 0.37028 0.79237 0.0
C301 C 0.40933 0.37429 0.81166 0.0
C302 C 0.40749 0.36506 0.83795 0.0
C303 C 0.38802 0.35195 0.84523 0.0
C304 C 0.3703 0.34812 0.82626 0.0
C305 C 0.37208 0.3573 0.79994 0.0
H306 H 0.38662 0.34482 0.86559 0.0
H307 H 0.40078 0.43172 0.6089 0.0
H308 H 0.03472 0.32212 0.2537 0.0
H309 H 0.06783 0.34495 0.27008 0.0
H310 H 0.07874 0.37169 0.18892 0.0
H311 H 0.04548 0.34914 0.17245 0.0
H312 H 0.12091 0.35975 0.21831 0.0
H313 H 0.04982 0.40378 0.22828 0.0
H314 H 0.00952 0.40989 0.24377 0.0
H315 H 0.03088 0.40028 0.32692 0.0
H316 H 0.07128 0.39374 0.31185 0.0
H317 H 0.17806 0.46797 0.24045 0.0
H318 H 0.15425 0.4347 0.22693 0.0
H319 H 0.13928 0.42031 0.3115 0.0
H320 H 0.16277 0.45373 0.3251 0.0
H321 H 0.10054 0.42303 0.28276 0.0
H322 H 0.1726 0.38322 0.27361 0.0
H323 H 0.21291 0.37683 0.25839 0.0
H324 H 0.19061 0.37801 0.17484 0.0
H325 H 0.15018 0.38476 0.18954 0.0
C326 C 0.04438 0.33261 0.23929 0.0
C327 C 0.03745 0.33405 0.21187 0.0
C328 C 0.06326 0.3456 0.24866 0.0
C329 C 0.07559 0.36003 0.23069 0.0
C330 C 0.06944 0.36058 0.20303 0.0
C331 C 0.05039 0.34782 0.19372 0.0
C332 C 0.0935 0.37613 0.24115 0.0
C333 C 0.11654 0.3737 0.23227 0.0
C334 C 0.08774 0.39394 0.2598 0.0
C335 C 0.0635 0.39797 0.26891 0.0
C336 C 0.04588 0.40274 0.24984 0.0
C337 C 0.02303 0.40633 0.25855 0.0
C338 C 0.01762 0.40539 0.2863 0.0
C339 C 0.03508 0.40094 0.30542 0.0
C340 C 0.05796 0.3973 0.29681 0.0
C341 C 0.17004 0.45745 0.25617 0.0
C342 C 0.17212 0.46351 0.28381 0.0
C343 C 0.15652 0.43838 0.24843 0.0
C344 C 0.14503 0.42498 0.26823 0.0
C345 C 0.14796 0.43044 0.2959 0.0
C346 C 0.16142 0.44951 0.30363 0.0
C347 C 0.12818 0.4068 0.25997 0.0
C348 C 0.10518 0.40891 0.26913 0.0
C349 C 0.13406 0.38871 0.24167 0.0
C350 C 0.15837 0.38471 0.23269 0.0
C351 C 0.17631 0.38233 0.25198 0.0
C352 C 0.19918 0.3786 0.24345 0.0
C353 C 0.20433 0.37707 0.21566 0.0
C354 C 0.1866 0.37922 0.19636 0.0
C355 C 0.16369 0.38297 0.20478 0.0
H356 H 0.22205 0.37417 0.2091 0.0
H357 H -8e-05 0.40819 0.29301 0.0
H358 H 0.14755 0.0421 0.67459 0.0
H359 H 0.12757 0.07716 0.68986 0.0
H360 H 0.1635 0.07345 0.76698 0.0
H361 H 0.18344 0.03809 0.75186 0.0
H362 H 0.11759 0.07847 0.77371 0.0
H363 H 0.17616 0.11661 0.72188 0.0
H364 H 0.20095 0.1243 0.6819 0.0
H365 H 0.14063 0.14081 0.63414 0.0
H366 H 0.11542 0.13289 0.67373 0.0
H367 H 0.05758 0.17777 0.81725 0.0
H368 H 0.09162 0.15506 0.80381 0.0
H369 H 0.0641 0.14872 0.7223 0.0
H370 H 0.0303 0.17191 0.73544 0.0
H371 H 0.11108 0.15207 0.72149 0.0
H372 H 0.05293 0.10747 0.77016 0.0
H373 H 0.02731 0.0988 0.80918 0.0
H374 H 0.0867 0.09347 0.86183 0.0
H375 H 0.11266 0.10244 0.82315 0.0
C376 C 0.15139 0.04888 0.69469 0.0
C377 C 0.16697 0.03732 0.71209 0.0
C378 C 0.1401 0.06902 0.70332 0.0
C379 C 0.14425 0.07807 0.72944 0.0
C380 C 0.16014 0.06681 0.74669 0.0
C381 C 0.1715 0.04663 0.73804 0.0
C382 C 0.13043 0.09805 0.73943 0.0
C383 C 0.11662 0.09479 0.76267 0.0
C384 C 0.12878 0.11912 0.72464 0.0
C385 C 0.14388 0.12401 0.70077 0.0
C386 C 0.16815 0.12171 0.70281 0.0
C387 C 0.18229 0.12615 0.68021 0.0
C388 C 0.17237 0.133 0.65548 0.0
C389 C 0.14829 0.13549 0.65331 0.0
C390 C 0.13407 0.13107 0.67584 0.0
C391 C 0.05904 0.17196 0.79631 0.0
C392 C 0.04117 0.17631 0.77746 0.0
C393 C 0.07847 0.15897 0.78868 0.0
C394 C 0.08013 0.14981 0.76222 0.0
C395 C 0.06311 0.15556 0.74285 0.0
C396 C 0.04378 0.16875 0.7504 0.0
C397 C 0.09809 0.13228 0.75548 0.0
C398 C 0.11252 0.13595 0.73282 0.0
C399 C 0.10026 0.11146 0.77067 0.0
C400 C 0.0847 0.10589 0.79386 0.0
C401 C 0.0605 0.10461 0.7901 0.0
C402 C 0.04593 0.09962 0.81214 0.0
C403 C 0.05536 0.09566 0.83799 0.0
C404 C 0.07941 0.0966 0.84182 0.0
C405 C 0.09406 0.10162 0.81985 0.0
H406 H 0.04405 0.0918 0.85503 0.0
H407 H 0.18335 0.13642 0.63801 0.0
H408 H 0.53999 0.8189 0.76315 0.0
H409 H 0.57266 0.84357 0.74917 0.0
H410 H 0.55638 0.89175 0.81384 0.0
H411 H 0.52372 0.86746 0.82761 0.0
H412 H 0.56242 0.914 0.7669 0.0
H413 H 0.60323 0.85577 0.81799 0.0
H414 H 0.61522 0.81602 0.83043 0.0
H415 H 0.64419 0.80621 0.75056 0.0
H416 H 0.63207 0.84582 0.73751 0.0
H417 H 0.66196 0.98464 0.76564 0.0
H418 H 0.63479 0.95482 0.7814 0.0
H419 H 0.64795 0.91464 0.7088 0.0
H420 H 0.67507 0.9445 0.69276 0.0
H421 H 0.64418 0.88758 0.75815 0.0
H422 H 0.60297 0.94631 0.70761 0.0
H423 H 0.59181 0.98655 0.69633 0.0
H424 H 0.56386 0.99558 0.77681 0.0
H425 H 0.5752 0.95547 0.78872 0.0
C426 C 0.54353 0.83467 0.77446 0.0
C427 C 0.52929 0.84129 0.79641 0.0
C428 C 0.56221 0.84869 0.76654 0.0
C429 C 0.56699 0.86945 0.78055 0.0
C430 C 0.55297 0.87585 0.8027 0.0
C431 C 0.53434 0.86191 0.81057 0.0
C432 C 0.58596 0.88513 0.7716 0.0
C433 C 0.58033 0.90826 0.76533 0.0
C434 C 0.60924 0.8775 0.76892 0.0
C435 C 0.6165 0.85367 0.77667 0.0
C436 C 0.61196 0.84506 0.80299 0.0
C437 C 0.61882 0.82257 0.81017 0.0
C438 C 0.6304 0.80857 0.79127 0.0
C439 C 0.63518 0.81706 0.76516 0.0
C440 C 0.62833 0.83953 0.75787 0.0
C441 C 0.65936 0.96928 0.75324 0.0
C442 C 0.67046 0.96695 0.72788 0.0
C443 C 0.64383 0.95231 0.76225 0.0
C444 C 0.63926 0.9327 0.7461 0.0
C445 C 0.65128 0.92968 0.7215 0.0
C446 C 0.66667 0.94677 0.71235 0.0
C447 C 0.62058 0.91637 0.75391 0.0
C448 C 0.62624 0.8932 0.75978 0.0
C449 C 0.59729 0.92393 0.75637 0.0
C450 C 0.59016 0.94796 0.74915 0.0
C451 C 0.59461 0.95693 0.72298 0.0
C452 C 0.58823 0.97971 0.71646 0.0
C453 C 0.5772 0.99364 0.73587 0.0
C454 C 0.57244 0.98478 0.76181 0.0
C455 C 0.57883 0.96202 0.76845 0.0
H456 H 0.57229 0.01127 0.73079 0.0
H457 H 0.63571 0.79117 0.79687 0.0
H458 H 0.52067 0.66168 0.26639 0.0
H459 H 0.55457 0.63889 0.27984 0.0
H460 H 0.5885 0.65664 0.20416 0.0
H461 H 0.55434 0.67902 0.19031 0.0
H462 H 0.58996 0.61183 0.21163 0.0
H463 H 0.60873 0.67716 0.26645 0.0
H464 H 0.60216 0.70879 0.29945 0.0
H465 H 0.58675 0.65882 0.36192 0.0
H466 H 0.5929 0.62687 0.3292 0.0
H467 H 0.68694 0.54321 0.25401 0.0
H468 H 0.66493 0.57799 0.24087 0.0
H469 H 0.6174 0.56621 0.30749 0.0
H470 H 0.63926 0.53168 0.32075 0.0
H471 H 0.62868 0.61244 0.30201 0.0
H472 H 0.60382 0.54826 0.24451 0.0
H473 H 0.61006 0.51668 0.2113 0.0
H474 H 0.63737 0.56568 0.15354 0.0
H475 H 0.63156 0.59752 0.18658 0.0
C476 C 0.53552 0.66108 0.25285 0.0
C477 C 0.53483 0.67201 0.22726 0.0
C478 C 0.55497 0.64814 0.26061 0.0
C479 C 0.57419 0.64618 0.2431 0.0
C480 C 0.57388 0.65791 0.218 0.0
C481 C 0.55437 0.67072 0.21015 0.0
C482 C 0.59348 0.63004 0.24985 0.0
C483 C 0.59883 0.61236 0.23115 0.0
C484 C 0.60482 0.63044 0.27547 0.0
C485 C 0.60115 0.6496 0.29529 0.0
C486 C 0.60378 0.67291 0.28717 0.0
C487 C 0.60015 0.6909 0.30584 0.0
C488 C 0.59401 0.68582 0.33275 0.0
C489 C 0.59152 0.66273 0.34106 0.0
C490 C 0.5951 0.64467 0.32247 0.0
C491 C 0.67191 0.54818 0.26595 0.0
C492 C 0.66469 0.53466 0.28826 0.0
C493 C 0.65937 0.56801 0.25843 0.0
C494 C 0.63946 0.57456 0.27313 0.0
C495 C 0.63274 0.5615 0.29593 0.0
C496 C 0.64517 0.54168 0.30337 0.0
C497 C 0.62467 0.59414 0.26402 0.0
C498 C 0.62014 0.61236 0.28229 0.0
C499 C 0.61411 0.59431 0.23798 0.0
C500 C 0.61753 0.5752 0.21811 0.0
C501 C 0.61133 0.55226 0.2248 0.0
C502 C 0.61476 0.53433 0.206 0.0
C503 C 0.62418 0.53916 0.18036 0.0
C504 C 0.63013 0.56195 0.17343 0.0
C505 C 0.62677 0.57995 0.19218 0.0
H506 H 0.62681 0.52525 0.16582 0.0
H507 H 0.59121 0.69978 0.34718 0.0
H508 H 0.9703 0.66972 0.74149 0.0
H509 H 0.93655 0.64632 0.72883 0.0
H510 H 0.91826 0.63916 0.8138 0.0
H511 H 0.95249 0.66182 0.82656 0.0
H512 H 0.91718 0.59901 0.79118 0.0
H513 H 0.88539 0.67275 0.76746 0.0
H514 H 0.88408 0.71138 0.74576 0.0
H515 H 0.88845 0.67972 0.66665 0.0
H516 H 0.89011 0.6409 0.68788 0.0
H517 H 0.81558 0.53535 0.75764 0.0
H518 H 0.83871 0.56835 0.77391 0.0
H519 H 0.87058 0.57451 0.69462 0.0
H520 H 0.84755 0.54172 0.67824 0.0
H521 H 0.86074 0.61748 0.71784 0.0
H522 H 0.8975 0.54458 0.74291 0.0
H523 H 0.89861 0.50602 0.76485 0.0
H524 H 0.88412 0.53727 0.84253 0.0
H525 H 0.88261 0.576 0.82095 0.0
C526 C 0.95889 0.6634 0.75742 0.0
C527 C 0.96404 0.66748 0.785 0.0
C528 C 0.93951 0.65015 0.75017 0.0
C529 C 0.92467 0.64115 0.77035 0.0
C530 C 0.92943 0.64589 0.79788 0.0
C531 C 0.94898 0.65885 0.80514 0.0
C532 C 0.90538 0.62521 0.76291 0.0
C533 C 0.90453 0.60334 0.77558 0.0
C534 C 0.8891 0.63058 0.74217 0.0
C535 C 0.88804 0.6539 0.7293 0.0
C536 C 0.88624 0.67402 0.74544 0.0
C537 C 0.88541 0.69596 0.73322 0.0
C538 C 0.88623 0.698 0.70485 0.0
C539 C 0.88783 0.67811 0.68863 0.0
C540 C 0.88868 0.65613 0.70074 0.0
C541 C 0.82728 0.54397 0.7436 0.0
C542 C 0.82996 0.53585 0.71677 0.0
C543 C 0.84047 0.56278 0.75292 0.0
C544 C 0.8565 0.57369 0.73552 0.0
C545 C 0.8583 0.56634 0.70835 0.0
C546 C 0.84523 0.54752 0.69908 0.0
C547 C 0.8728 0.59146 0.74601 0.0
C548 C 0.87316 0.61351 0.73382 0.0
C549 C 0.88859 0.58637 0.76729 0.0
C550 C 0.88967 0.56312 0.78028 0.0
C551 C 0.89438 0.54319 0.76463 0.0
C552 C 0.89511 0.52132 0.777 0.0
C553 C 0.89137 0.51918 0.80505 0.0
C554 C 0.88697 0.53894 0.8208 0.0
C555 C 0.88618 0.56085 0.80851 0.0
H556 H 0.89194 0.50223 0.81459 0.0
H557 H 0.88558 0.715 0.69542 0.0
H558 H 0.81752 0.96198 0.25528 0.0
H559 H 0.8426 0.92972 0.2411 0.0
H560 H 0.88699 0.94201 0.31054 0.0
H561 H 0.8623 0.97435 0.32452 0.0
H562 H 0.91182 0.93903 0.26558 0.0
H563 H 0.85147 0.89452 0.30773 0.0
H564 H 0.81124 0.88161 0.31604 0.0
H565 H 0.80581 0.85847 0.23304 0.0
H566 H 0.84593 0.87154 0.22413 0.0
H567 H 0.95868 0.81461 0.24945 0.0
H568 H 0.928 0.84051 0.26629 0.0
H569 H 0.93907 0.88609 0.19768 0.0
H570 H 0.96976 0.86053 0.18092 0.0
H571 H 0.88654 0.85841 0.24531 0.0
H572 H 0.93932 0.94137 0.22135 0.0
H573 H 0.98026 0.9533 0.21606 0.0
H574 H 0.00175 0.89815 0.2694 0.0
H575 H 0.96093 0.88613 0.27534 0.0
C576 C 0.8325 0.95762 0.26764 0.0
C577 C 0.83804 0.97074 0.29091 0.0
C578 C 0.84675 0.93914 0.2596 0.0
C579 C 0.86663 0.93342 0.27483 0.0
C580 C 0.87179 0.94617 0.29844 0.0
C581 C 0.85764 0.96462 0.30642 0.0
C582 C 0.88294 0.91519 0.26534 0.0
C583 C 0.90625 0.92141 0.2612 0.0
C584 C 0.87575 0.89212 0.2599 0.0
C585 C 0.85164 0.88421 0.2652 0.0
C586 C 0.84164 0.88685 0.29119 0.0
C587 C 0.81886 0.87947 0.29602 0.0
C588 C 0.80596 0.86928 0.27506 0.0
C589 C 0.81582 0.86639 0.24924 0.0
C590 C 0.83858 0.87376 0.2443 0.0
C591 C 0.95435 0.83001 0.23782 0.0
C592 C 0.96677 0.83571 0.21406 0.0
C593 C 0.93678 0.84471 0.24739 0.0
C594 C 0.93151 0.86533 0.23339 0.0
C595 C 0.9431 0.8704 0.20894 0.0
C596 C 0.96062 0.85578 0.19941 0.0
C597 C 0.9152 0.88246 0.24525 0.0
C598 C 0.89199 0.87605 0.24975 0.0
C599 C 0.92251 0.90531 0.25151 0.0
C600 C 0.94709 0.91272 0.24856 0.0
C601 C 0.95278 0.93187 0.23205 0.0
C602 C 0.97596 0.93863 0.22893 0.0
C603 C 0.9936 0.92644 0.24231 0.0
C604 C 0.98808 0.90753 0.25896 0.0
C605 C 0.96493 0.90072 0.2622 0.0
H606 H 0.01154 0.93168 0.23982 0.0
H607 H 0.78833 0.86357 0.27884 0.0
H608 H 0.57779 0.2627 0.18124 0.0
H609 H 0.59687 0.29744 0.19876 0.0
H610 H 0.55144 0.29711 0.26874 0.0
H611 H 0.53196 0.26226 0.25106 0.0
H612 H 0.55719 0.34087 0.24852 0.0
H613 H 0.60585 0.27861 0.27602 0.0
H614 H 0.62908 0.24281 0.27171 0.0
H615 H 0.67415 0.2766 0.2143 0.0
H616 H 0.65097 0.31254 0.21794 0.0
H617 H 0.63322 0.41898 0.32234 0.0
H618 H 0.60933 0.38564 0.30871 0.0
H619 H 0.64447 0.38345 0.23107 0.0
H620 H 0.66816 0.41688 0.24437 0.0
H621 H 0.64292 0.34037 0.2595 0.0
H622 H 0.59179 0.40283 0.23219 0.0
H623 H 0.56881 0.43842 0.2397 0.0
H624 H 0.52852 0.40347 0.30095 0.0
H625 H 0.55151 0.36775 0.29407 0.0
C626 C 0.57179 0.27002 0.20034 0.0
C627 C 0.55347 0.25969 0.21488 0.0
C628 C 0.58277 0.28984 0.21037 0.0
C629 C 0.57579 0.29966 0.23524 0.0
C630 C 0.55713 0.28974 0.24954 0.0
C631 C 0.54608 0.26983 0.23948 0.0
C632 C 0.58832 0.32014 0.24621 0.0
C633 C 0.57589 0.34067 0.25135 0.0
C634 C 0.61273 0.3199 0.24971 0.0
C635 C 0.62655 0.29822 0.2471 0.0
C636 C 0.62057 0.27835 0.26226 0.0
C637 C 0.63376 0.25804 0.25998 0.0
C638 C 0.65306 0.25745 0.24274 0.0
C639 C 0.65919 0.27711 0.22766 0.0
C640 C 0.64604 0.29746 0.22984 0.0
C641 C 0.63568 0.4115 0.30228 0.0
C642 C 0.65255 0.42047 0.28441 0.0
C643 C 0.62201 0.39254 0.29452 0.0
C644 C 0.62517 0.38216 0.2689 0.0
C645 C 0.64181 0.39125 0.25094 0.0
C646 C 0.65526 0.41037 0.25853 0.0
C647 C 0.61189 0.36118 0.26116 0.0
C648 C 0.62421 0.34051 0.25676 0.0
C649 C 0.5874 0.36125 0.25875 0.0
C650 C 0.57355 0.3827 0.26284 0.0
C651 C 0.57818 0.4028 0.24745 0.0
C652 C 0.56512 0.42298 0.25155 0.0
C653 C 0.54726 0.42323 0.27085 0.0
C654 C 0.54239 0.40327 0.28604 0.0
C655 C 0.55541 0.38304 0.28203 0.0
H656 H 0.53717 0.43887 0.27399 0.0
H657 H 0.66334 0.24178 0.24118 0.0
H658 H 0.22796 0.52121 0.74152 0.0
H659 H 0.1903 0.53655 0.75664 0.0
H660 H 0.20589 0.60215 0.71808 0.0
H661 H 0.24294 0.58673 0.70225 0.0
H662 H 0.17734 0.57021 0.78864 0.0
H663 H 0.15919 0.6272 0.69235 0.0
H664 H 0.16643 0.62571 0.6428 0.0
H665 H 0.17161 0.55134 0.64646 0.0
H666 H 0.16406 0.55234 0.69594 0.0
H667 H 0.10136 0.66213 0.81882 0.0
H668 H 0.13253 0.63577 0.80542 0.0
H669 H 0.08748 0.60454 0.7453 0.0
H670 H 0.05656 0.63171 0.75786 0.0
H671 H 0.12622 0.61148 0.72311 0.0
H672 H 0.10485 0.57547 0.80593 0.0
H673 H 0.09483 0.57239 0.85468 0.0
H674 H 0.16299 0.5963 0.87655 0.0
H675 H 0.17334 0.59984 0.82792 0.0
C676 C 0.22327 0.53888 0.73628 0.0
C677 C 0.23825 0.55271 0.72051 0.0
C678 C 0.2018 0.54763 0.74495 0.0
C679 C 0.19505 0.57036 0.73805 0.0
C680 C 0.2104 0.58436 0.72304 0.0
C681 C 0.23164 0.57557 0.71412 0.0
C682 C 0.17214 0.57974 0.74661 0.0
C683 C 0.16607 0.57912 0.77432 0.0
C684 C 0.15699 0.59064 0.72779 0.0
C685 C 0.16122 0.58988 0.69792 0.0
C686 C 0.16174 0.61052 0.68256 0.0
C687 C 0.16593 0.60976 0.65449 0.0
C688 C 0.16953 0.58845 0.64151 0.0
C689 C 0.16889 0.56784 0.65655 0.0
C690 C 0.16468 0.5685 0.68462 0.0
C691 C 0.09804 0.64949 0.80293 0.0
C692 C 0.07657 0.64897 0.78934 0.0
C693 C 0.11583 0.63428 0.7954 0.0
C694 C 0.11233 0.61786 0.77459 0.0
C695 C 0.09065 0.61702 0.76141 0.0
C696 C 0.07298 0.63252 0.76862 0.0
C697 C 0.1318 0.60278 0.76537 0.0
C698 C 0.13725 0.60232 0.73747 0.0
C699 C 0.1459 0.5902 0.78391 0.0
C700 C 0.13982 0.58806 0.81324 0.0
C701 C 0.11766 0.58022 0.82112 0.0
C702 C 0.11193 0.57837 0.84874 0.0
C703 C 0.12825 0.58418 0.86869 0.0
C704 C 0.15036 0.59181 0.86107 0.0
C705 C 0.15618 0.5937 0.83347 0.0
H706 H 0.12378 0.58274 0.89007 0.0
H707 H 0.1728 0.5879 0.61978 0.0
H708 H 0.83736 0.08047 0.24455 0.0
H709 H 0.86251 0.11243 0.23039 0.0
H710 H 0.88732 0.11968 0.31302 0.0
H711 H 0.86167 0.08804 0.32745 0.0
H712 H 0.87733 0.16066 0.29284 0.0
H713 H 0.92175 0.09595 0.26231 0.0
H714 H 0.92938 0.05881 0.23891 0.0
H715 H 0.91169 0.0899 0.16206 0.0
H716 H 0.90362 0.12716 0.18505 0.0
H717 H 0.96788 0.23899 0.25135 0.0
H718 H 0.94947 0.20329 0.26824 0.0
H719 H 0.90805 0.19943 0.1951 0.0
H720 H 0.92596 0.2353 0.17837 0.0
H721 H 0.93002 0.15584 0.21292 0.0
H722 H 0.88254 0.21961 0.24559 0.0
H723 H 0.87608 0.25664 0.2697 0.0
H724 H 0.90152 0.22639 0.34398 0.0
H725 H 0.90853 0.18926 0.32015 0.0
C726 C 0.84829 0.08876 0.25967 0.0
C727 C 0.84758 0.08176 0.28709 0.0
C728 C 0.86276 0.10695 0.25153 0.0
C729 C 0.87705 0.11826 0.27057 0.0
C730 C 0.87649 0.11117 0.29797 0.0
C731 C 0.86187 0.09307 0.30616 0.0
C732 C 0.89177 0.13814 0.26203 0.0
C733 C 0.88918 0.15943 0.2757 0.0
C734 C 0.90702 0.13669 0.23941 0.0
C735 C 0.9119 0.11431 0.22546 0.0
C736 C 0.91931 0.09483 0.24045 0.0
C737 C 0.92374 0.07376 0.22725 0.0
C738 C 0.92097 0.07199 0.19902 0.0
C739 C 0.91381 0.0913 0.18393 0.0
C740 C 0.90933 0.11241 0.19703 0.0
C741 C 0.95495 0.23042 0.23884 0.0
C742 C 0.94823 0.2399 0.21364 0.0
C743 C 0.94447 0.2101 0.24849 0.0
C744 C 0.92743 0.19885 0.23288 0.0
C745 C 0.92123 0.2079 0.20736 0.0
C746 C 0.93137 0.2284 0.19792 0.0
C747 C 0.91528 0.17816 0.24356 0.0
C748 C 0.91836 0.15682 0.23027 0.0
C749 C 0.90066 0.17949 0.26665 0.0
C750 C 0.89634 0.20176 0.28101 0.0
C751 C 0.88698 0.22092 0.267 0.0
C752 C 0.88317 0.24192 0.28062 0.0
C753 C 0.88844 0.24389 0.30833 0.0
C754 C 0.89749 0.22485 0.32249 0.0
C755 C 0.90139 0.20383 0.30894 0.0
H756 H 0.88546 0.26016 0.31885 0.0
H757 H 0.92441 0.05566 0.18884 0.0
H758 H 0.25041 0.91148 0.70263 0.0
H759 H 0.28556 0.89396 0.72151 0.0
H760 H 0.30617 0.9604 0.75426 0.0
H761 H 0.2709 0.97815 0.73534 0.0
H762 H 0.34263 0.93677 0.72933 0.0
H763 H 0.28418 0.92236 0.79642 0.0
H764 H 0.24599 0.90935 0.81332 0.0
H765 H 0.26045 0.83993 0.78609 0.0
H766 H 0.29861 0.8526 0.76865 0.0
H767 H 0.40551 0.85639 0.8358 0.0
H768 H 0.37308 0.88121 0.82188 0.0
H769 H 0.39074 0.87001 0.73738 0.0
H770 H 0.42339 0.84547 0.75117 0.0
H771 H 0.33562 0.87017 0.79314 0.0
H772 H 0.37623 0.91778 0.70032 0.0
H773 H 0.41452 0.93223 0.68537 0.0
H774 H 0.43627 0.93844 0.76881 0.0
H775 H 0.39802 0.92434 0.78427 0.0
C776 C 0.26244 0.9224 0.71379 0.0
C777 C 0.25788 0.94616 0.71764 0.0
C778 C 0.28247 0.91235 0.72461 0.0
C779 C 0.29831 0.92586 0.73948 0.0
C780 C 0.2941 0.9497 0.74287 0.0
C781 C 0.27395 0.95977 0.73215 0.0
C782 C 0.31907 0.91485 0.75172 0.0
C783 C 0.34116 0.92226 0.74336 0.0
C784 C 0.31706 0.89623 0.7704 0.0
C785 C 0.29419 0.88848 0.78104 0.0
C786 C 0.27915 0.90436 0.79386 0.0
C787 C 0.25752 0.89703 0.80356 0.0
C788 C 0.25078 0.87384 0.80073 0.0
C789 C 0.26569 0.8579 0.78825 0.0
C790 C 0.28733 0.86513 0.77847 0.0
C791 C 0.40258 0.85937 0.81426 0.0
C792 C 0.41696 0.84902 0.79455 0.0
C793 C 0.38404 0.87351 0.80635 0.0
C794 C 0.37962 0.87761 0.77862 0.0
C795 C 0.39407 0.86739 0.75891 0.0
C796 C 0.41263 0.85329 0.7668 0.0
C797 C 0.35926 0.89168 0.77025 0.0
C798 C 0.33718 0.88479 0.77929 0.0
C799 C 0.36134 0.91098 0.75251 0.0
C800 C 0.38431 0.91981 0.74343 0.0
C801 C 0.38914 0.92234 0.71548 0.0
C802 C 0.41085 0.93044 0.70692 0.0
C803 C 0.42784 0.93619 0.72612 0.0
C804 C 0.42313 0.93391 0.75395 0.0
C805 C 0.40144 0.92583 0.76262 0.0
H806 H 0.44464 0.94244 0.71945 0.0
H807 H 0.23402 0.8682 0.80826 0.0
H808 H 0.58438 0.23633 0.79896 0.0
H809 H 0.60287 0.20216 0.77934 0.0
H810 H 0.55023 0.19927 0.71683 0.0
H811 H 0.53139 0.2338 0.73656 0.0
H812 H 0.56111 0.15523 0.74062 0.0
H813 H 0.60044 0.21861 0.69843 0.0
H814 H 0.62052 0.25642 0.69664 0.0
H815 H 0.67468 0.22985 0.74818 0.0
H816 H 0.65474 0.19198 0.75064 0.0
H817 H 0.635 0.06927 0.67581 0.0
H818 H 0.60982 0.10316 0.68317 0.0
H819 H 0.65388 0.12536 0.74941 0.0
H820 H 0.67901 0.09185 0.74212 0.0
H821 H 0.64421 0.16063 0.71435 0.0
H822 H 0.60234 0.09948 0.76141 0.0
H823 H 0.58241 0.06161 0.76415 0.0
H824 H 0.53324 0.08392 0.70371 0.0
H825 H 0.55312 0.12182 0.70031 0.0
C826 C 0.57666 0.22848 0.78104 0.0
C827 C 0.5565 0.23782 0.76919 0.0
C828 C 0.58729 0.20896 0.76983 0.0
C829 C 0.57806 0.19837 0.74648 0.0
C830 C 0.55764 0.20729 0.73482 0.0
C831 C 0.54698 0.22701 0.74602 0.0
C832 C 0.59023 0.17815 0.73445 0.0
C833 C 0.57912 0.15644 0.73425 0.0
C834 C 0.61379 0.17977 0.72645 0.0
C835 C 0.626 0.20247 0.72483 0.0
C836 C 0.61655 0.22087 0.70953 0.0
C837 C 0.62792 0.24231 0.70838 0.0
C838 C 0.64884 0.24554 0.72231 0.0
C839 C 0.65847 0.22732 0.73739 0.0
C840 C 0.64715 0.20585 0.73863 0.0
C841 C 0.6392 0.08136 0.692 0.0
C842 C 0.65896 0.07794 0.70838 0.0
C843 C 0.62481 0.10065 0.6962 0.0
C844 C 0.63 0.11675 0.71685 0.0
C845 C 0.64963 0.11321 0.73328 0.0
C846 C 0.66393 0.09399 0.72915 0.0
C847 C 0.61537 0.13757 0.72143 0.0
C848 C 0.62606 0.15945 0.72016 0.0
C849 C 0.59149 0.13604 0.72808 0.0
C850 C 0.57939 0.11337 0.73035 0.0
C851 C 0.5874 0.09624 0.74854 0.0
C852 C 0.57609 0.07478 0.75024 0.0
C853 C 0.55662 0.07033 0.73405 0.0
C854 C 0.54836 0.08737 0.7162 0.0
C855 C 0.55964 0.10884 0.71438 0.0
H856 H 0.5479 0.05371 0.73539 0.0
H857 H 0.65762 0.26216 0.7214 0.0
H858 H 0.39655 0.66784 0.17153 0.0
H859 H 0.36283 0.6429 0.17935 0.0
H860 H 0.40371 0.59934 0.23248 0.0
H861 H 0.43765 0.62416 0.2246 0.0
H862 H 0.37225 0.57407 0.19973 0.0
H863 H 0.37243 0.64024 0.26018 0.0
H864 H 0.37442 0.68204 0.271 0.0
H865 H 0.31327 0.69438 0.22294 0.0
H866 H 0.31115 0.65268 0.21147 0.0
H867 H 0.28158 0.52567 0.28152 0.0
H868 H 0.31649 0.54335 0.26202 0.0
H869 H 0.2739 0.59318 0.21918 0.0
H870 H 0.23909 0.57608 0.2394 0.0
H871 H 0.30655 0.61469 0.24471 0.0
H872 H 0.30467 0.54815 0.18609 0.0
H873 H 0.30284 0.50647 0.17464 0.0
H874 H 0.36645 0.49456 0.21822 0.0
H875 H 0.3685 0.53613 0.23025 0.0
C876 C 0.39848 0.65273 0.18451 0.0
C877 C 0.41965 0.64808 0.19772 0.0
C878 C 0.3792 0.63852 0.18896 0.0
C879 C 0.38073 0.61949 0.20678 0.0
C880 C 0.4022 0.61397 0.21868 0.0
C881 C 0.42152 0.62821 0.21425 0.0
C882 C 0.35949 0.60675 0.21493 0.0
C883 C 0.3579 0.58283 0.20976 0.0
C884 C 0.34069 0.61835 0.22757 0.0
C885 C 0.34177 0.64338 0.23474 0.0
C886 C 0.35951 0.65189 0.25176 0.0
C887 C 0.36065 0.67556 0.25803 0.0
C888 C 0.34402 0.69087 0.24761 0.0
C889 C 0.32617 0.68251 0.23096 0.0
C890 C 0.32498 0.65886 0.22458 0.0
C891 C 0.27968 0.54016 0.26759 0.0
C892 C 0.25766 0.54958 0.26205 0.0
C893 C 0.29963 0.55019 0.25635 0.0
C894 C 0.29785 0.56953 0.23896 0.0
C895 C 0.27574 0.57833 0.23259 0.0
C896 C 0.25585 0.56852 0.24411 0.0
C897 C 0.31898 0.58187 0.22928 0.0
C898 C 0.32068 0.60581 0.2344 0.0
C899 C 0.33778 0.57024 0.21653 0.0
C900 C 0.33662 0.54523 0.20928 0.0
C901 C 0.31817 0.53662 0.19341 0.0
C902 C 0.31712 0.51302 0.18678 0.0
C903 C 0.33449 0.49787 0.19575 0.0
C904 C 0.35299 0.50631 0.21131 0.0
C905 C 0.35412 0.5299 0.21801 0.0
H906 H 0.33364 0.4796 0.19059 0.0
H907 H 0.34493 0.70919 0.25248 0.0
H908 H 0.81546 0.39138 0.693 0.0
H909 H 0.83919 0.35748 0.70432 0.0
H910 H 0.89575 0.40246 0.72761 0.0
H911 H 0.87205 0.43655 0.71635 0.0
H912 H 0.90994 0.36385 0.69649 0.0
H913 H 0.86375 0.38047 0.77564 0.0
H914 H 0.82751 0.38819 0.80088 0.0
H915 H 0.80109 0.32126 0.77773 0.0
H916 H 0.83702 0.31332 0.7519 0.0
H917 H 0.97443 0.27902 0.77158 0.0
H918 H 0.95388 0.3136 0.75533 0.0
H919 H 0.89221 0.27245 0.74203 0.0
H920 H 0.91243 0.23807 0.75902 0.0
H921 H 0.88137 0.31019 0.76825 0.0
H922 H 0.92687 0.29337 0.68857 0.0
H923 H 0.96269 0.28548 0.66259 0.0
H924 H 0.99005 0.35201 0.68585 0.0
H925 H 0.95449 0.36016 0.71228 0.0
C926 C 0.83301 0.39406 0.70034 0.0
C927 C 0.84189 0.4166 0.70393 0.0
C928 C 0.84651 0.37469 0.70686 0.0
C929 C 0.86913 0.37751 0.71702 0.0
C930 C 0.87832 0.39996 0.71981 0.0
C931 C 0.86475 0.41938 0.71347 0.0
C932 C 0.88281 0.357 0.72563 0.0
C933 C 0.90389 0.35223 0.7124 0.0
C934 C 0.87461 0.34168 0.74602 0.0
C935 C 0.85299 0.3464 0.7616 0.0
C936 C 0.85013 0.36748 0.77571 0.0
C937 C 0.82965 0.37189 0.79015 0.0
C938 C 0.81199 0.35525 0.79085 0.0
C939 C 0.81478 0.33415 0.77714 0.0
C940 C 0.83519 0.32969 0.76259 0.0
C941 C 0.95657 0.27734 0.76489 0.0
C942 C 0.945 0.25589 0.76659 0.0
C943 C 0.94486 0.29709 0.75551 0.0
C944 C 0.92152 0.29562 0.74726 0.0
C945 C 0.91018 0.27404 0.74835 0.0
C946 C 0.92177 0.25439 0.75798 0.0
C947 C 0.90846 0.3167 0.73886 0.0
C948 C 0.88748 0.3217 0.75226 0.0
C949 C 0.91673 0.33213 0.71854 0.0
C950 C 0.93811 0.32727 0.70263 0.0
C951 C 0.9406 0.30624 0.68833 0.0
C952 C 0.96084 0.30173 0.67348 0.0
C953 C 0.97866 0.31821 0.67263 0.0
C954 C 0.97624 0.33925 0.68656 0.0
C955 C 0.95604 0.34383 0.70145 0.0
H956 H 0.99432 0.31469 0.66112 0.0
H957 H 0.79615 0.35869 0.80206 0.0
H958 H 0.06561 0.86262 0.2346 0.0
H959 H 0.09925 0.88753 0.24297 0.0
H960 H 0.13812 0.85022 0.18177 0.0
H961 H 0.10464 0.8249 0.17371 0.0
H962 H 0.16351 0.85621 0.22631 0.0
H963 H 0.117 0.90527 0.16955 0.0
H964 H 0.08128 0.92551 0.15511 0.0
H965 H 0.08048 0.96384 0.23022 0.0
H966 H 0.11604 0.94361 0.24527 0.0
H967 H 0.25821 0.9346 0.23038 0.0
H968 H 0.22439 0.91406 0.21199 0.0
H969 H 0.18124 0.94413 0.27468 0.0
H970 H 0.21489 0.9648 0.29304 0.0
H971 H 0.15885 0.94232 0.22529 0.0
H972 H 0.20359 0.89135 0.28308 0.0
H973 H 0.23889 0.87071 0.29809 0.0
H974 H 0.2425 0.83544 0.22104 0.0
H975 H 0.20749 0.85627 0.20536 0.0
C976 C 0.0813 0.85978 0.22286 0.0
C977 C 0.08251 0.84183 0.20349 0.0
C978 C 0.10047 0.87411 0.22755 0.0
C979 C 0.12111 0.87095 0.21273 0.0
C980 C 0.12235 0.85301 0.19338 0.0
C981 C 0.10321 0.83859 0.18877 0.0
C982 C 0.14166 0.88582 0.21816 0.0
C983 C 0.1626 0.87504 0.22555 0.0
C984 C 0.14034 0.91039 0.21773 0.0
C985 C 0.11909 0.92279 0.20862 0.0
C986 C 0.10913 0.91791 0.18306 0.0
C987 C 0.08892 0.9294 0.17476 0.0
C988 C 0.07859 0.94591 0.19176 0.0
C989 C 0.0885 0.95104 0.21707 0.0
C990 C 0.1087 0.93959 0.22549 0.0
C991 C 0.24143 0.93714 0.23994 0.0
C992 C 0.23919 0.95115 0.26326 0.0
C993 C 0.22216 0.92534 0.22948 0.0
C994 C 0.2004 0.92734 0.24222 0.0
C995 C 0.1979 0.94232 0.26459 0.0
C996 C 0.21714 0.95406 0.2751 0.0
C997 C 0.18058 0.91268 0.23352 0.0
C998 C 0.15979 0.92349 0.22564 0.0
C999 C 0.18201 0.88812 0.2335 0.0
C1000 C 0.20309 0.8756 0.24291 0.0
C1001 C 0.21205 0.87938 0.26923 0.0
C1002 C 0.232 0.86763 0.27787 0.0
C1003 C 0.243 0.85185 0.26049 0.0
C1004 C 0.23403 0.84775 0.23445 0.0
C1005 C 0.21414 0.85953 0.22566 0.0
H1006 H 0.25841 0.84273 0.26724 0.0
H1007 H 0.06294 0.95477 0.18531 0.0
H1008 H 0.36331 0.58369 0.68007 0.0
H1009 H 0.38645 0.61705 0.69512 0.0
H1010 H 0.35044 0.61689 0.77224 0.0
H1011 H 0.32747 0.5833 0.75751 0.0
H1012 H 0.35223 0.66096 0.74512 0.0
H1013 H 0.4029 0.59829 0.7721 0.0
H1014 H 0.42585 0.56268 0.76463 0.0
H1015 H 0.46703 0.59794 0.70446 0.0
H1016 H 0.44407 0.6337 0.71129 0.0
H1017 H 0.41685 0.73959 0.8226 0.0
H1018 H 0.39803 0.70448 0.80579 0.0
H1019 H 0.44417 0.70355 0.73645 0.0
H1020 H 0.46354 0.73867 0.75358 0.0
H1021 H 0.43792 0.66034 0.7566 0.0
H1022 H 0.38903 0.72289 0.72932 0.0
H1023 H 0.36614 0.7588 0.7348 0.0
H1024 H 0.32149 0.72445 0.79221 0.0
H1025 H 0.34433 0.6884 0.78739 0.0
C1026 C 0.36045 0.59067 0.70031 0.0
C1027 C 0.3436 0.58094 0.71764 0.0
C1028 C 0.37371 0.60965 0.70887 0.0
C1029 C 0.37015 0.61934 0.73478 0.0
C1030 C 0.35342 0.6096 0.75217 0.0
C1031 C 0.34039 0.59041 0.74377 0.0
C1032 C 0.38328 0.64017 0.7434 0.0
C1033 C 0.37093 0.66079 0.74798 0.0
C1034 C 0.40774 0.64005 0.74608 0.0
C1035 C 0.42159 0.61859 0.74199 0.0
C1036 C 0.4167 0.59839 0.75708 0.0
C1037 C 0.42974 0.5782 0.75301 0.0
C1038 C 0.44784 0.57803 0.73402 0.0
C1039 C 0.45298 0.59809 0.71913 0.0
C1040 C 0.43997 0.61833 0.72311 0.0
C1041 C 0.42307 0.73191 0.80379 0.0
C1042 C 0.44154 0.74198 0.78926 0.0
C1043 C 0.41223 0.71188 0.79417 0.0
C1044 C 0.41941 0.70164 0.7696 0.0
C1045 C 0.4383 0.71125 0.75538 0.0
C1046 C 0.44929 0.73131 0.76514 0.0
C1047 C 0.40682 0.68112 0.7588 0.0
C1048 C 0.41924 0.66058 0.75367 0.0
C1049 C 0.38239 0.68136 0.75526 0.0
C1050 C 0.36853 0.70299 0.75817 0.0
C1051 C 0.37444 0.72303 0.74328 0.0
C1052 C 0.36146 0.74341 0.74624 0.0
C1053 C 0.34241 0.74392 0.76389 0.0
C1054 C 0.33627 0.72403 0.77857 0.0
C1055 C 0.34921 0.70361 0.77571 0.0
H1056 H 0.33238 0.75971 0.76615 0.0
H1057 H 0.45793 0.56238 0.7309 0.0
H1058 H 0.92411 0.33782 0.25337 0.0
H1059 H 0.89037 0.36088 0.26693 0.0
H1060 H 0.88425 0.38739 0.18497 0.0
H1061 H 0.91811 0.36432 0.17119 0.0
H1062 H 0.87729 0.4215 0.22579 0.0
H1063 H 0.85 0.34499 0.20245 0.0
H1064 H 0.84999 0.30218 0.20463 0.0
H1065 H 0.8356 0.30494 0.29048 0.0
H1066 H 0.83583 0.34781 0.28889 0.0
H1067 H 0.76078 0.46291 0.24225 0.0
H1068 H 0.79645 0.44429 0.22584 0.0
H1069 H 0.80179 0.40618 0.30141 0.0
H1070 H 0.76591 0.42411 0.31745 0.0
H1071 H 0.80904 0.37818 0.26097 0.0
H1072 H 0.83725 0.45394 0.28563 0.0
H1073 H 0.83853 0.49677 0.28493 0.0
H1074 H 0.8522 0.49575 0.19885 0.0
H1075 H 0.8507 0.45289 0.19897 0.0
C1076 C 0.91574 0.34873 0.23828 0.0
C1077 C 0.92362 0.34916 0.21117 0.0
C1078 C 0.89645 0.36185 0.24605 0.0
C1079 C 0.8847 0.3756 0.22686 0.0
C1080 C 0.89309 0.37683 0.20004 0.0
C1081 C 0.91236 0.36361 0.1922 0.0
C1082 C 0.86302 0.38776 0.2346 0.0
C1083 C 0.86221 0.41208 0.23314 0.0
C1084 C 0.84358 0.3754 0.24464 0.0
C1085 C 0.84311 0.34961 0.24558 0.0
C1086 C 0.84698 0.33647 0.22183 0.0
C1087 C 0.84691 0.3122 0.22295 0.0
C1088 C 0.84283 0.30085 0.24768 0.0
C1089 C 0.83876 0.31376 0.27134 0.0
C1090 C 0.83883 0.33805 0.27033 0.0
C1091 C 0.76967 0.45063 0.25536 0.0
C1092 C 0.76057 0.44491 0.28108 0.0
C1093 C 0.79009 0.44008 0.24603 0.0
C1094 C 0.80194 0.42396 0.26249 0.0
C1095 C 0.79295 0.41849 0.2883 0.0
C1096 C 0.77246 0.42879 0.29747 0.0
C1097 C 0.82329 0.41211 0.25268 0.0
C1098 C 0.82403 0.38773 0.2536 0.0
C1099 C 0.8427 0.42447 0.24238 0.0
C1100 C 0.84361 0.45022 0.24226 0.0
C1101 C 0.84034 0.46286 0.26651 0.0
C1102 C 0.84114 0.48714 0.26622 0.0
C1103 C 0.84537 0.49898 0.24185 0.0
C1104 C 0.84888 0.48656 0.21771 0.0
C1105 C 0.84807 0.46227 0.21788 0.0
H1106 H 0.84599 0.51778 0.24167 0.0
H1107 H 0.84276 0.28206 0.2485 0.0
H1108 H 0.02312 0.76877 0.74835 0.0
H1109 H 0.03862 0.80637 0.73294 0.0
H1110 H 0.09907 0.79649 0.78362 0.0
H1111 H 0.08394 0.75908 0.7988 0.0
H1112 H 0.07805 0.84062 0.78912 0.0
H1113 H 0.10348 0.78718 0.71792 0.0
H1114 H 0.09677 0.7584 0.6815 0.0
H1115 H 0.05421 0.80744 0.63833 0.0
H1116 H 0.06043 0.83642 0.67471 0.0
H1117 H 0.16687 0.9152 0.7478 0.0
H1118 H 0.14129 0.88321 0.76022 0.0
H1119 H 0.09683 0.89922 0.69181 0.0
H1120 H 0.12319 0.93074 0.67853 0.0
H1121 H 0.10257 0.85516 0.69365 0.0
H1122 H 0.08066 0.91055 0.76048 0.0
H1123 H 0.08591 0.93996 0.79651 0.0
H1124 H 0.1186 0.88909 0.84781 0.0
H1125 H 0.11385 0.85943 0.81195 0.0
C1126 C 0.03975 0.77462 0.75607 0.0
C1127 C 0.05236 0.761 0.77472 0.0
C1128 C 0.04856 0.79605 0.74727 0.0
C1129 C 0.06996 0.80415 0.75721 0.0
C1130 C 0.08248 0.79056 0.77582 0.0
C1131 C 0.07386 0.76914 0.78436 0.0
C1132 C 0.07962 0.82678 0.74842 0.0
C1133 C 0.08351 0.84386 0.76828 0.0
C1134 C 0.08583 0.83124 0.72104 0.0
C1135 C 0.08218 0.81384 0.69918 0.0
C1136 C 0.09252 0.79174 0.70078 0.0
C1137 C 0.08884 0.77542 0.68012 0.0
C1138 C 0.075 0.78106 0.65766 0.0
C1139 C 0.06488 0.80307 0.65577 0.0
C1140 C 0.06848 0.81946 0.67639 0.0
C1141 C 0.15151 0.91207 0.73556 0.0
C1142 C 0.14695 0.92549 0.71226 0.0
C1143 C 0.13678 0.89384 0.74278 0.0
C1144 C 0.1168 0.88902 0.7273 0.0
C1145 C 0.11206 0.90263 0.70415 0.0
C1146 C 0.12707 0.92066 0.69662 0.0
C1147 C 0.10175 0.86895 0.73457 0.0
C1148 C 0.09677 0.8523 0.71443 0.0
C1149 C 0.0942 0.86503 0.76169 0.0
C1150 C 0.097 0.88279 0.78343 0.0
C1151 C 0.08909 0.90566 0.77938 0.0
C1152 C 0.09197 0.92238 0.79978 0.0
C1153 C 0.10261 0.91641 0.82442 0.0
C1154 C 0.11036 0.89369 0.82872 0.0
C1155 C 0.10754 0.87691 0.80837 0.0
H1156 H 0.10483 0.92937 0.84018 0.0
H1157 H 0.07218 0.7684 0.64168 0.0
H1158 H 0.58534 0.17251 0.24503 0.0
H1159 H 0.61954 0.14928 0.25674 0.0
H1160 H 0.61385 0.1125 0.18043 0.0
H1161 H 0.57983 0.13613 0.16823 0.0
H1162 H 0.62151 0.08387 0.23064 0.0
H1163 H 0.65272 0.14769 0.18019 0.0
H1164 H 0.65842 0.18877 0.16767 0.0
H1165 H 0.68544 0.20308 0.24754 0.0
H1166 H 0.67942 0.16217 0.26075 0.0
H1167 H 0.7348 0.03247 0.24819 0.0
H1168 H 0.70018 0.05116 0.22886 0.0
H1169 H 0.70399 0.10451 0.29053 0.0
H1170 H 0.7386 0.08624 0.30954 0.0
H1171 H 0.69766 0.12319 0.24164 0.0
H1172 H 0.66367 0.06043 0.29339 0.0
H1173 H 0.65777 0.01949 0.30656 0.0
H1174 H 0.63601 0.00319 0.22502 0.0
H1175 H 0.64209 0.044 0.21127 0.0
C1176 C 0.59131 0.15942 0.23078 0.0
C1177 C 0.58 0.15613 0.2057 0.0
C1178 C 0.61083 0.14622 0.23748 0.0
C1179 C 0.61916 0.12927 0.21939 0.0
C1180 C 0.6076 0.12551 0.19461 0.0
C1181 C 0.58829 0.13905 0.18766 0.0
C1182 C 0.64032 0.11599 0.22636 0.0
C1183 C 0.63829 0.09229 0.2326 0.0
C1184 C 0.66202 0.12718 0.22927 0.0
C1185 C 0.66539 0.15189 0.22155 0.0
C1186 C 0.65959 0.15965 0.19521 0.0
C1187 C 0.66293 0.18291 0.18796 0.0
C1188 C 0.67223 0.19855 0.2068 0.0
C1189 C 0.67818 0.19097 0.23297 0.0
C1190 C 0.67481 0.16774 0.24035 0.0
C1191 C 0.72814 0.04812 0.25766 0.0
C1192 C 0.7394 0.05792 0.28034 0.0
C1193 C 0.70835 0.05873 0.24666 0.0
C1194 C 0.69945 0.07919 0.25833 0.0
C1195 C 0.7106 0.0888 0.28112 0.0
C1196 C 0.73034 0.07829 0.29202 0.0
C1197 C 0.67886 0.09109 0.24665 0.0
C1198 C 0.68098 0.11461 0.23945 0.0
C1199 C 0.65726 0.07971 0.24299 0.0
C1200 C 0.6536 0.0552 0.25123 0.0
C1201 C 0.65782 0.04807 0.27821 0.0
C1202 C 0.65441 0.0249 0.28579 0.0
C1203 C 0.64659 0.00873 0.26662 0.0
C1204 C 0.64211 0.01572 0.23983 0.0
C1205 C 0.64553 0.03887 0.23214 0.0
H1206 H 0.64395 0.99081 0.27253 0.0
H1207 H 0.6749 0.21651 0.20108 0.0
H1208 H 0.47175 0.77946 0.22462 0.0
H1209 H 0.45142 0.81403 0.24109 0.0
H1210 H 0.3983 0.7706 0.27663 0.0
H1211 H 0.41824 0.73603 0.2596 0.0
H1212 H 0.37927 0.80329 0.24693 0.0
H1213 H 0.43806 0.80158 0.31617 0.0
H1214 H 0.47798 0.80001 0.33433 0.0
H1215 H 0.49445 0.86386 0.29336 0.0
H1216 H 0.4547 0.86567 0.27464 0.0
H1217 H 0.31849 0.89273 0.31501 0.0
H1218 H 0.34267 0.85848 0.30689 0.0
H1219 H 0.39257 0.90087 0.26405 0.0
H1220 H 0.36847 0.9353 0.2722 0.0
H1221 H 0.41344 0.86892 0.29884 0.0
H1222 H 0.35577 0.86966 0.22811 0.0
H1223 H 0.31602 0.87157 0.20948 0.0
H1224 H 0.29776 0.80954 0.25318 0.0
H1225 H 0.33737 0.80742 0.27237 0.0
C1226 C 0.45596 0.77728 0.23638 0.0
C1227 C 0.44654 0.75507 0.24077 0.0
C1228 C 0.44438 0.79705 0.24586 0.0
C1229 C 0.42337 0.79493 0.26023 0.0
C1230 C 0.41445 0.77267 0.26554 0.0
C1231 C 0.42591 0.75293 0.25589 0.0
C1232 C 0.40974 0.81586 0.26785 0.0
C1233 C 0.38666 0.81743 0.25873 0.0
C1234 C 0.41955 0.83465 0.28251 0.0
C1235 C 0.44345 0.83364 0.2938 0.0
C1236 C 0.45024 0.8152 0.31086 0.0
C1237 C 0.47283 0.81428 0.32129 0.0
C1238 C 0.48876 0.8318 0.31495 0.0
C1239 C 0.4821 0.8503 0.29823 0.0
C1240 C 0.45954 0.85129 0.28773 0.0
C1241 C 0.33467 0.89479 0.30398 0.0
C1242 C 0.34153 0.91665 0.29408 0.0
C1243 C 0.34844 0.87521 0.29933 0.0
C1244 C 0.36929 0.87714 0.28467 0.0
C1245 C 0.37653 0.89905 0.27542 0.0
C1246 C 0.3627 0.91865 0.27997 0.0
C1247 C 0.38306 0.85612 0.2781 0.0
C1248 C 0.40611 0.85463 0.28726 0.0
C1249 C 0.37327 0.83736 0.26345 0.0
C1250 C 0.34947 0.8385 0.25187 0.0
C1251 C 0.34323 0.85652 0.23392 0.0
C1252 C 0.32075 0.85762 0.22323 0.0
C1253 C 0.30438 0.8407 0.23017 0.0
C1254 C 0.31047 0.82263 0.24783 0.0
C1255 C 0.33294 0.82146 0.25859 0.0
H1256 H 0.28702 0.84156 0.2218 0.0
H1257 H 0.50624 0.83105 0.32304 0.0
H1258 H 0.75471 0.44384 0.76867 0.0
H1259 H 0.72082 0.42365 0.78741 0.0
H1260 H 0.68261 0.43794 0.71357 0.0
H1261 H 0.71618 0.45848 0.695 0.0
H1262 H 0.65488 0.44193 0.75672 0.0
H1263 H 0.70967 0.38595 0.72296 0.0
H1264 H 0.74789 0.36685 0.71915 0.0
H1265 H 0.74582 0.34949 0.80428 0.0
H1266 H 0.70766 0.36877 0.80867 0.0
H1267 H 0.57369 0.34967 0.75024 0.0
H1268 H 0.60648 0.3758 0.7422 0.0
H1269 H 0.63196 0.36232 0.82339 0.0
H1270 H 0.599 0.33621 0.8317 0.0
H1271 H 0.66628 0.35918 0.78198 0.0
H1272 H 0.60753 0.41229 0.81256 0.0
H1273 H 0.56859 0.43015 0.8129 0.0
H1274 H 0.57748 0.45164 0.72969 0.0
H1275 H 0.61635 0.4336 0.72872 0.0
C1276 C 0.73895 0.443 0.75664 0.0
C1277 C 0.73813 0.45258 0.73029 0.0
C1278 C 0.71965 0.43137 0.76731 0.0
C1279 C 0.69932 0.42895 0.7517 0.0
C1280 C 0.69811 0.43954 0.72596 0.0
C1281 C 0.71734 0.45123 0.71534 0.0
C1282 C 0.67978 0.41425 0.76131 0.0
C1283 C 0.65735 0.42382 0.76213 0.0
C1284 C 0.68306 0.39069 0.76875 0.0
C1285 C 0.70595 0.37903 0.76621 0.0
C1286 C 0.71745 0.37822 0.74092 0.0
C1287 C 0.73907 0.36734 0.73864 0.0
C1288 C 0.74929 0.35701 0.76147 0.0
C1289 C 0.73788 0.35752 0.78663 0.0
C1290 C 0.71625 0.36842 0.78902 0.0
C1291 C 0.58625 0.35229 0.76641 0.0
C1292 C 0.58379 0.34094 0.79162 0.0
C1293 C 0.60491 0.36729 0.76182 0.0
C1294 C 0.6215 0.37112 0.78229 0.0
C1295 C 0.61926 0.35962 0.80739 0.0
C1296 C 0.60043 0.34478 0.81211 0.0
C1297 C 0.6414 0.38682 0.77711 0.0
C1298 C 0.66388 0.3774 0.77703 0.0
C1299 C 0.63811 0.4104 0.76994 0.0
C1300 C 0.61479 0.42143 0.77052 0.0
C1301 C 0.60112 0.42066 0.79427 0.0
C1302 C 0.57906 0.43085 0.79459 0.0
C1303 C 0.57055 0.44199 0.77132 0.0
C1304 C 0.58409 0.443 0.7477 0.0
C1305 C 0.60615 0.43282 0.74727 0.0
H1306 H 0.55347 0.44986 0.7716 0.0
H1307 H 0.76599 0.34854 0.75961 0.0
H1308 H 0.1334 0.56158 0.25986 0.0
H1309 H 0.10706 0.59358 0.24888 0.0
H1310 H 0.13369 0.63275 0.31703 0.0
H1311 H 0.16013 0.60073 0.32821 0.0
H1312 H 0.0853 0.63665 0.31107 0.0
H1313 H 0.1543 0.64427 0.2568 0.0
H1314 H 0.18476 0.63102 0.22504 0.0
H1315 H 0.13321 0.61845 0.16348 0.0
H1316 H 0.10238 0.63129 0.19505 0.0
H1317 H 0.05654 0.75156 0.26562 0.0
H1318 H 0.07431 0.71582 0.28291 0.0
H1319 H 0.04962 0.67862 0.21224 0.0
H1320 H 0.03191 0.71427 0.19481 0.0
H1321 H 0.0958 0.67288 0.22006 0.0
H1322 H 0.02679 0.66756 0.274 0.0
H1323 H 0.9967 0.68118 0.30602 0.0
H1324 H 0.04835 0.6902 0.36831 0.0
H1325 H 0.07883 0.67695 0.33653 0.0
C1326 C 0.13348 0.57689 0.2727 0.0
C1327 C 0.14895 0.57876 0.29476 0.0
C1328 C 0.11844 0.59515 0.26638 0.0
C1329 C 0.11862 0.61559 0.28198 0.0
C1330 C 0.13331 0.61711 0.30475 0.0
C1331 C 0.14845 0.59886 0.31102 0.0
C1332 C 0.10457 0.63589 0.27345 0.0
C1333 C 0.0877 0.64476 0.2913 0.0
C1334 C 0.1075 0.64615 0.24746 0.0
C1335 C 0.12601 0.63849 0.22839 0.0
C1336 C 0.14944 0.63848 0.23657 0.0
C1337 C 0.16677 0.63108 0.21859 0.0
C1338 C 0.16092 0.62383 0.19228 0.0
C1339 C 0.13771 0.62403 0.18388 0.0
C1340 C 0.1203 0.63137 0.2018 0.0
C1341 C 0.05455 0.73567 0.25402 0.0
C1342 C 0.04294 0.73571 0.22881 0.0
C1343 C 0.06464 0.71525 0.26396 0.0
C1344 C 0.06325 0.69456 0.24886 0.0
C1345 C 0.05091 0.69441 0.22418 0.0
C1346 C 0.04075 0.71477 0.2143 0.0
C1347 C 0.07632 0.67364 0.25757 0.0
C1348 C 0.09319 0.66471 0.23977 0.0
C1349 C 0.0734 0.66345 0.28362 0.0
C1350 C 0.05513 0.67148 0.30278 0.0
C1351 C 0.03177 0.67265 0.29444 0.0
C1352 C 0.01464 0.68026 0.31257 0.0
C1353 C 0.02062 0.68661 0.33916 0.0
C1354 C 0.04375 0.68531 0.34769 0.0
C1355 C 0.06096 0.67772 0.32964 0.0
H1356 H 0.00733 0.69249 0.35316 0.0
H1357 H 0.17436 0.61812 0.17839 0.0
H1358 H 0.9408 0.13681 0.75236 0.0
H1359 H 0.90875 0.11024 0.74266 0.0
H1360 H 0.88383 0.1182 0.82512 0.0
H1361 H 0.91556 0.14532 0.83475 0.0
H1362 H 0.89135 0.06985 0.76105 0.0
H1363 H 0.82512 0.12249 0.82311 0.0
H1364 H 0.82008 0.162 0.84183 0.0
H1365 H 0.86233 0.18993 0.77752 0.0
H1366 H 0.86736 0.15065 0.75825 0.0
H1367 H 0.77715 0.0171 0.74982 0.0
H1368 H 0.81318 0.03359 0.76857 0.0
H1369 H 0.80396 0.09469 0.71873 0.0
H1370 H 0.76825 0.07848 0.70009 0.0
H1371 H 0.81344 0.10579 0.7712 0.0
H1372 H 0.84308 0.05472 0.70129 0.0
H1373 H 0.84853 0.01706 0.67818 0.0
H1374 H 0.87974 0.98889 0.75053 0.0
H1375 H 0.87418 0.02633 0.77421 0.0
C1376 C 0.9287 0.13263 0.76856 0.0
C1377 C 0.93045 0.1434 0.79419 0.0
C1378 C 0.91046 0.11734 0.76302 0.0
C1379 C 0.89371 0.11251 0.78303 0.0
C1380 C 0.89637 0.12197 0.80925 0.0
C1381 C 0.9145 0.13744 0.81473 0.0
C1382 C 0.87232 0.09967 0.77547 0.0
C1383 C 0.87428 0.07757 0.76355 0.0
C1384 C 0.85007 0.10987 0.77838 0.0
C1385 C 0.84682 0.13362 0.78947 0.0
C1386 C 0.83326 0.13709 0.81294 0.0
C1387 C 0.83041 0.15943 0.82364 0.0
C1388 C 0.84094 0.17845 0.81093 0.0
C1389 C 0.85425 0.17518 0.7874 0.0
C1390 C 0.85711 0.15288 0.77659 0.0
C1391 C 0.78293 0.03398 0.74281 0.0
C1392 C 0.76989 0.04652 0.72353 0.0
C1393 C 0.80348 0.04335 0.75349 0.0
C1394 C 0.81118 0.06538 0.74505 0.0
C1395 C 0.79825 0.07773 0.72563 0.0
C1396 C 0.77789 0.06839 0.71492 0.0
C1397 C 0.83245 0.07605 0.75655 0.0
C1398 C 0.83044 0.0978 0.76925 0.0
C1399 C 0.85462 0.06571 0.7538 0.0
C1400 C 0.85794 0.04321 0.73962 0.0
C1401 C 0.8509 0.04042 0.71236 0.0
C1402 C 0.85406 0.01914 0.69914 0.0
C1403 C 0.8644 0.00056 0.71291 0.0
C1404 C 0.87168 0.00327 0.73991 0.0
C1405 C 0.86854 0.02452 0.75324 0.0
H1406 H 0.86684 0.9841 0.70263 0.0
H1407 H 0.83875 0.19572 0.81927 0.0
H1408 H 0.51325 0.18182 0.08802 0.0
H1409 H 0.50857 0.19384 0.04049 0.0
H1410 H 0.49894 0.26488 0.06646 0.0
H1411 H 0.50241 0.25269 0.11405 0.0
H1412 H 0.47185 0.25723 0.02569 0.0
H1413 H 0.55261 0.24324 0.04275 0.0
H1414 H 0.58693 0.22088 0.05758 0.0
H1415 H 0.57266 0.16902 0.99691 0.0
H1416 H 0.53807 0.19093 0.98195 0.0
H1417 H 0.51281 0.31154 0.90195 0.0
H1418 H 0.50758 0.29795 0.94898 0.0
H1419 H 0.4997 0.22766 0.91996 0.0
H1420 H 0.50453 0.2411 0.87298 0.0
H1421 H 0.53434 0.23439 0.96134 0.0
H1422 H 0.45406 0.25227 0.94291 0.0
H1423 H 0.42171 0.27748 0.92833 0.0
H1424 H 0.43801 0.32587 0.99216 0.0
H1425 H 0.47069 0.30111 0.00688 0.0
C1426 C 0.50989 0.19995 0.08354 0.0
C1427 C 0.50838 0.21638 0.10462 0.0
C1428 C 0.50734 0.20683 0.0564 0.0
C1429 C 0.50397 0.23037 0.04982 0.0
C1430 C 0.5016 0.24664 0.07098 0.0
C1431 C 0.50365 0.23968 0.09816 0.0
C1432 C 0.50389 0.23819 0.02096 0.0
C1433 C 0.48565 0.2524 0.01172 0.0
C1434 C 0.52177 0.23177 0.00257 0.0
C1435 C 0.54262 0.2186 0.01143 0.0
C1436 C 0.55671 0.22699 0.0327 0.0
C1437 C 0.57621 0.21441 0.04111 0.0
C1438 C 0.58193 0.19351 0.02825 0.0
C1439 C 0.56819 0.18519 0.00689 0.0
C1440 C 0.54864 0.19769 0.99842 0.0
C1441 C 0.50964 0.29325 0.90561 0.0
C1442 C 0.50912 0.27736 0.88387 0.0
C1443 C 0.5066 0.28554 0.93241 0.0
C1444 C 0.50324 0.26183 0.93782 0.0
C1445 C 0.50225 0.24602 0.91612 0.0
C1446 C 0.50496 0.25374 0.88933 0.0
C1447 C 0.50234 0.25328 0.96622 0.0
C1448 C 0.5205 0.23904 0.97534 0.0
C1449 C 0.48469 0.26009 0.98456 0.0
C1450 C 0.46497 0.27494 0.97582 0.0
C1451 C 0.45088 0.26839 0.95369 0.0
C1452 C 0.43245 0.28257 0.94543 0.0
C1453 C 0.42784 0.30329 0.95927 0.0
C1454 C 0.44162 0.30983 0.98144 0.0
C1455 C 0.46008 0.29572 0.98976 0.0
H1456 H 0.41357 0.31425 0.95284 0.0
H1457 H 0.59704 0.18379 0.03479 0.0
H1458 H 0.18847 0.5115 0.40282 0.0
H1459 H 0.2015 0.50837 0.45013 0.0
H1460 H 0.26881 0.53504 0.42711 0.0
H1461 H 0.25609 0.53744 0.3796 0.0
H1462 H 0.27411 0.50019 0.4606 0.0
H1463 H 0.22721 0.56906 0.46008 0.0
H1464 H 0.1921 0.59258 0.4517 0.0
H1465 H 0.153 0.54889 0.50587 0.0
H1466 H 0.18782 0.52491 0.51429 0.0
H1467 H 0.31267 0.5366 0.59224 0.0
H1468 H 0.29961 0.53484 0.54477 0.0
H1469 H 0.23815 0.49762 0.56977 0.0
H1470 H 0.2512 0.49913 0.61731 0.0
H1471 H 0.22931 0.53627 0.53597 0.0
H1472 H 0.27816 0.46865 0.53773 0.0
H1473 H 0.31431 0.4469 0.54649 0.0
H1474 H 0.35102 0.49069 0.49019 0.0
H1475 H 0.31515 0.51294 0.48138 0.0
C1476 C 0.20602 0.51673 0.40788 0.0
C1477 C 0.22124 0.52481 0.38759 0.0
C1478 C 0.21343 0.51502 0.43493 0.0
C1479 C 0.23604 0.52178 0.44226 0.0
C1480 C 0.25129 0.52973 0.42195 0.0
C1481 C 0.24398 0.53118 0.39484 0.0
C1482 C 0.24387 0.52045 0.47105 0.0
C1483 C 0.26444 0.50833 0.47702 0.0
C1484 C 0.23103 0.53065 0.49259 0.0
C1485 C 0.21007 0.54505 0.48758 0.0
C1486 C 0.21108 0.56436 0.47003 0.0
C1487 C 0.19124 0.57779 0.46531 0.0
C1488 C 0.17032 0.57219 0.47818 0.0
C1489 C 0.16921 0.55318 0.49587 0.0
C1490 C 0.189 0.53967 0.50064 0.0
C1491 C 0.29649 0.52785 0.58758 0.0
C1492 C 0.28294 0.518 0.60841 0.0
C1493 C 0.28909 0.52681 0.56048 0.0
C1494 C 0.26798 0.51603 0.55383 0.0
C1495 C 0.25451 0.50598 0.57456 0.0
C1496 C 0.26203 0.50679 0.60163 0.0
C1497 C 0.25952 0.51615 0.52536 0.0
C1498 C 0.23887 0.52806 0.5195 0.0
C1499 C 0.27242 0.50602 0.50391 0.0
C1500 C 0.294 0.4926 0.50909 0.0
C1501 C 0.29398 0.47378 0.52739 0.0
C1502 C 0.31442 0.46133 0.53233 0.0
C1503 C 0.33496 0.46745 0.51896 0.0
C1504 C 0.3351 0.48599 0.50056 0.0
C1505 C 0.31472 0.49851 0.49556 0.0
H1506 H 0.35076 0.45779 0.52281 0.0
H1507 H 0.15498 0.58261 0.4745 0.0
H1508 H 0.00409 0.25149 0.11528 0.0
H1509 H 0.00546 0.23773 0.0681 0.0
H1510 H 0.96913 0.29941 0.04179 0.0
H1511 H 0.96718 0.31293 0.08895 0.0
H1512 H 0.95007 0.26244 0.02005 0.0
H1513 H 0.02793 0.29109 0.02956 0.0
H1514 H 0.06665 0.29471 0.05067 0.0
H1515 H 0.07908 0.22199 0.03759 0.0
H1516 H 0.04028 0.21787 0.01672 0.0
H1517 H 0.96909 0.25485 0.87786 0.0
H1518 H 0.97128 0.26721 0.9255 0.0
H1519 H 0.99712 0.1996 0.94833 0.0
H1520 H 0.99481 0.18698 0.90062 0.0
H1521 H 0.02182 0.23776 0.97198 0.0
H1522 H 0.94367 0.20994 0.96146 0.0
H1523 H 0.90523 0.20729 0.9395 0.0
H1524 H 0.89379 0.28 0.95387 0.0
H1525 H 0.93235 0.28317 0.97556 0.0
C1526 C 0.99661 0.2622 0.09938 0.0
C1527 C 0.98551 0.28326 0.10575 0.0
C1528 C 0.99747 0.25436 0.07242 0.0
C1529 C 0.98753 0.26762 0.05138 0.0
C1530 C 0.97685 0.28887 0.05771 0.0
C1531 C 0.97582 0.29661 0.08464 0.0
C1532 C 0.9873 0.25894 0.02292 0.0
C1533 C 0.96583 0.25735 0.00945 0.0
C1534 C 0.00776 0.25169 0.00932 0.0
C1535 C 0.0311 0.25413 0.02184 0.0
C1536 C 0.03884 0.27583 0.03139 0.0
C1537 C 0.06082 0.27798 0.04327 0.0
C1538 C 0.07529 0.25858 0.04554 0.0
C1539 C 0.06784 0.237 0.03586 0.0
C1540 C 0.04586 0.23475 0.02398 0.0
C1541 C 0.97528 0.24262 0.89301 0.0
C1542 C 0.98169 0.21993 0.88561 0.0
C1543 C 0.97648 0.2497 0.92018 0.0
C1544 C 0.98423 0.23425 0.94036 0.0
C1545 C 0.9911 0.21173 0.93298 0.0
C1546 C 0.98967 0.20454 0.90581 0.0
C1547 C 0.9847 0.24161 0.96921 0.0
C1548 C 0.00614 0.24286 0.98271 0.0
C1549 C 0.96425 0.24871 0.98282 0.0
C1550 C 0.941 0.24683 0.9699 0.0
C1551 C 0.93305 0.22541 0.95973 0.0
C1552 C 0.91122 0.2238 0.94737 0.0
C1553 C 0.8971 0.24347 0.94523 0.0
C1554 C 0.90476 0.26478 0.95551 0.0
C1555 C 0.92659 0.26649 0.96786 0.0
H1556 H 0.88021 0.24219 0.93565 0.0
H1557 H 0.0923 0.26028 0.05474 0.0
H1558 H 0.25012 0.00147 0.37942 0.0
H1559 H 0.23871 0.00322 0.42738 0.0
H1560 H 0.30048 0.96514 0.44967 0.0
H1561 H 0.31165 0.96279 0.40163 0.0
H1562 H 0.26478 0.94769 0.47484 0.0
H1563 H 0.29503 0.02409 0.46226 0.0
H1564 H 0.29942 0.06235 0.44019 0.0
H1565 H 0.22776 0.07783 0.45645 0.0
H1566 H 0.22285 0.03951 0.47829 0.0
H1567 H 0.24521 0.00622 0.61608 0.0
H1568 H 0.26016 0.00789 0.56942 0.0
H1569 H 0.20783 0.95881 0.54384 0.0
H1570 H 0.19313 0.95668 0.59056 0.0
H1571 H 0.24231 0.02064 0.5219 0.0
H1572 H 0.23011 0.92299 0.49613 0.0
H1573 H 0.22969 0.88517 0.51985 0.0
H1574 H 0.27293 0.91309 0.58324 0.0
H1575 H 0.27388 0.95096 0.55971 0.0
C1576 C 0.26134 0.99362 0.39458 0.0
C1577 C 0.28176 0.982 0.38684 0.0
C1578 C 0.25486 0.99472 0.42199 0.0
C1579 C 0.26886 0.98451 0.44215 0.0
C1580 C 0.28941 0.97313 0.43445 0.0
C1581 C 0.2958 0.97185 0.40702 0.0
C1582 C 0.2616 0.98488 0.47115 0.0
C1583 C 0.25993 0.96366 0.48513 0.0
C1584 C 0.25564 0.00574 0.48475 0.0
C1585 C 0.25853 0.02884 0.47171 0.0
C1586 C 0.28016 0.03558 0.46095 0.0
C1587 C 0.28275 0.05729 0.44851 0.0
C1588 C 0.26386 0.07249 0.44687 0.0
C1589 C 0.24236 0.06603 0.45772 0.0
C1590 C 0.23968 0.04433 0.47016 0.0
C1591 C 0.23686 0.99584 0.60047 0.0
C1592 C 0.21813 0.98118 0.60695 0.0
C1593 C 0.24537 0.99687 0.57383 0.0
C1594 C 0.2353 0.98325 0.55325 0.0
C1595 C 0.21612 0.96915 0.55953 0.0
C1596 C 0.20769 0.96801 0.58618 0.0
C1597 C 0.24514 0.98342 0.52534 0.0
C1598 C 0.24724 0.00471 0.51159 0.0
C1599 C 0.25208 0.96268 0.51215 0.0
C1600 C 0.25187 0.93987 0.52628 0.0
C1601 C 0.23961 0.92102 0.51507 0.0
C1602 C 0.23926 0.89959 0.52849 0.0
C1603 C 0.25121 0.89675 0.55308 0.0
C1604 C 0.26361 0.91533 0.56425 0.0
C1605 C 0.26403 0.93679 0.55089 0.0
H1606 H 0.2509 0.88015 0.56345 0.0
H1607 H 0.2659 0.08928 0.43723 0.0
H1608 H 0.50429 0.75242 0.88586 0.0
H1609 H 0.50858 0.73777 0.93253 0.0
H1610 H 0.47067 0.797 0.96299 0.0
H1611 H 0.46629 0.81171 0.91651 0.0
H1612 H 0.50957 0.78583 0.99452 0.0
H1613 H 0.44296 0.74753 0.95371 0.0
H1614 H 0.42348 0.72383 0.9186 0.0
H1615 H 0.46944 0.66689 0.9358 0.0
H1616 H 0.48942 0.6904 0.97076 0.0
H1617 H 0.46667 0.75296 0.12264 0.0
H1618 H 0.47179 0.76528 0.07542 0.0
H1619 H 0.50088 0.69826 0.05548 0.0
H1620 H 0.49512 0.68558 0.1027 0.0
H1621 H 0.47139 0.71104 0.01758 0.0
H1622 H 0.53559 0.74718 0.06159 0.0
H1623 H 0.55585 0.7705 0.09642 0.0
H1624 H 0.51645 0.83069 0.07317 0.0
H1625 H 0.49571 0.80766 0.03844 0.0
C1626 C 0.4971 0.76242 0.90255 0.0
C1627 C 0.48484 0.78312 0.89759 0.0
C1628 C 0.49951 0.75402 0.92914 0.0
C1629 C 0.48976 0.76623 0.95111 0.0
C1630 C 0.47831 0.78735 0.94628 0.0
C1631 C 0.47575 0.79566 0.91973 0.0
C1632 C 0.49039 0.75658 0.97904 0.0
C1633 C 0.50114 0.76954 -0.00032 0.0
C1634 C 0.47998 0.735 0.98545 0.0
C1635 C 0.46785 0.72081 0.96461 0.0
C1636 C 0.44903 0.73002 0.94984 0.0
C1637 C 0.43788 0.71662 0.93 0.0
C1638 C 0.44526 0.69389 0.92491 0.0
C1639 C 0.46377 0.68451 0.93972 0.0
C1640 C 0.475 0.69786 0.95956 0.0
C1641 C 0.47419 0.74086 0.10821 0.0
C1642 C 0.48056 0.71834 0.11633 0.0
C1643 C 0.47726 0.74797 0.08126 0.0
C1644 C 0.48713 0.73284 0.06201 0.0
C1645 C 0.49334 0.71025 0.07003 0.0
C1646 C 0.49006 0.70304 0.09698 0.0
C1647 C 0.49023 0.74049 0.03336 0.0
C1648 C 0.48016 0.72716 0.01252 0.0
C1649 C 0.50145 0.76166 0.02674 0.0
C1650 C 0.51397 0.77563 0.04753 0.0
C1651 C 0.53113 0.76535 0.06402 0.0
C1652 C 0.54272 0.77853 0.08373 0.0
C1653 C 0.53741 0.80205 0.08704 0.0
C1654 C 0.52054 0.81247 0.07059 0.0
C1655 C 0.50888 0.79937 0.05086 0.0
H1656 H 0.54641 0.81222 0.10231 0.0
H1657 H 0.43661 0.68354 0.90954 0.0
H1658 H 0.81332 0.46244 0.59429 0.0
H1659 H 0.80326 0.46591 0.546 0.0
H1660 H 0.74291 0.50661 0.56729 0.0
H1661 H 0.75329 0.50378 0.61548 0.0
H1662 H 0.76768 0.45022 0.51989 0.0
H1663 H 0.72881 0.54366 0.51671 0.0
H1664 H 0.7352 0.58172 0.53859 0.0
H1665 H 0.8061 0.5633 0.55523 0.0
H1666 H 0.80024 0.52527 0.53312 0.0
H1667 H 0.69435 0.46065 0.40705 0.0
H1668 H 0.70999 0.46339 0.45324 0.0
H1669 H 0.76309 0.51048 0.42485 0.0
H1670 H 0.74718 0.5082 0.3786 0.0
H1671 H 0.74701 0.524 0.4734 0.0
H1672 H 0.77586 0.45386 0.43462 0.0
H1673 H 0.77358 0.41621 0.41077 0.0
H1674 H 0.73087 0.38882 0.47499 0.0
H1675 H 0.73261 0.42644 0.49903 0.0
C1676 C 0.79804 0.47231 0.58862 0.0
C1677 C 0.78409 0.48286 0.6086 0.0
C1678 C 0.79229 0.47425 0.56105 0.0
C1679 C 0.77245 0.48669 0.55298 0.0
C1680 C 0.75856 0.49732 0.57295 0.0
C1681 C 0.76443 0.49558 0.6005 0.0
C1682 C 0.76556 0.48747 0.52385 0.0
C1683 C 0.76326 0.46638 0.50974 0.0
C1684 C 0.76024 0.50858 0.51036 0.0
C1685 C 0.764 0.53152 0.52346 0.0
C1686 C 0.74579 0.54777 0.52493 0.0
C1687 C 0.74932 0.56933 0.5374 0.0
C1688 C 0.77102 0.5749 0.54836 0.0
C1689 C 0.78927 0.55894 0.54681 0.0
C1690 C 0.78584 0.53736 0.53435 0.0
C1691 C 0.70923 0.47175 0.41069 0.0
C1692 C 0.71967 0.48408 0.38923 0.0
C1693 C 0.7182 0.47323 0.43705 0.0
C1694 C 0.73795 0.48681 0.44236 0.0
C1695 C 0.74789 0.49983 0.42116 0.0
C1696 C 0.73882 0.49848 0.39477 0.0
C1697 C 0.7486 0.48673 0.46986 0.0
C1698 C 0.75158 0.5079 0.4836 0.0
C1699 C 0.75518 0.46576 0.4828 0.0
C1700 C 0.75422 0.44303 0.46852 0.0
C1701 C 0.76585 0.43986 0.44356 0.0
C1702 C 0.76467 0.41852 0.43002 0.0
C1703 C 0.75205 0.40015 0.44133 0.0
C1704 C 0.74063 0.40307 0.46624 0.0
C1705 C 0.74172 0.42439 0.47985 0.0
H1706 H 0.75116 0.38364 0.43081 0.0
H1707 H 0.77371 0.59159 0.55802 0.0
H1708 H 0.98109 0.77365 0.11067 0.0
H1709 H 0.97783 0.7619 0.06284 0.0
H1710 H 0.04978 0.77993 0.04993 0.0
H1711 H 0.05296 0.79226 0.09743 0.0
H1712 H 0.02503 0.79313 0.00778 0.0
H1713 H 0.03253 0.72331 0.06097 0.0
H1714 H 0.022 0.69555 0.09724 0.0
H1715 H 0.95469 0.68621 0.06107 0.0
H1716 H 0.96473 0.71418 0.02477 0.0
H1717 H 0.03615 0.69176 0.90512 0.0
H1718 H 0.03349 0.70596 0.95196 0.0
H1719 H 0.99064 0.76305 0.92494 0.0
H1720 H 0.99372 0.74923 0.87788 0.0
H1721 H 0.99941 0.71275 0.98686 0.0
H1722 H 0.00361 0.81098 0.96279 0.0
H1723 H 0.01873 0.83718 0.9271 0.0
H1724 H 0.07076 0.78682 0.90596 0.0
H1725 H 0.05616 0.76049 0.94175 0.0
C1726 C 0.99614 0.77527 0.09755 0.0
C1727 C 0.01732 0.78373 0.10777 0.0
C1728 C 0.99428 0.76848 0.07028 0.0
C1729 C 0.01366 0.76973 0.05292 0.0
C1730 C 0.03461 0.77882 0.06295 0.0
C1731 C 0.03643 0.78578 0.09012 0.0
C1732 C 0.01245 0.76089 0.02456 0.0
C1733 C 0.01929 0.77561 0.00319 0.0
C1734 C 0.00533 0.7379 0.0186 0.0
C1735 C 0.99929 0.72102 0.04033 0.0
C1736 C 0.01542 0.71546 0.06087 0.0
C1737 C 0.00955 0.69968 0.08141 0.0
C1738 C 0.98766 0.68918 0.08151 0.0
C1739 C 0.97162 0.69439 0.061 0.0
C1740 C 0.9774 0.7102 0.04043 0.0
C1741 C 0.02605 0.70727 0.90918 0.0
C1742 C 0.0153 0.7195 0.88785 0.0
C1743 C 0.02448 0.71531 0.93596 0.0
C1744 C 0.0121 0.73571 0.9419 0.0
C1745 C 0.00061 0.74748 0.92075 0.0
C1746 C 0.00231 0.73953 0.89391 0.0
C1747 C 0.01199 0.74499 0.97009 0.0
C1748 C 0.00488 0.73037 0.99141 0.0
C1749 C 0.01948 0.76786 0.97609 0.0
C1750 C 0.0286 0.78368 0.95473 0.0
C1751 C 0.01832 0.80555 0.95057 0.0
C1752 C 0.0268 0.82041 0.93032 0.0
C1753 C 0.04564 0.81363 0.9142 0.0
C1754 C 0.05611 0.79201 0.91838 0.0
C1755 C 0.04773 0.7771 0.93863 0.0
H1756 H 0.05216 0.82515 0.89852 0.0
H1757 H 0.98315 0.67695 0.09743 0.0
H1758 H 0.70176 0.04276 0.5982 0.0
H1759 H 0.71301 0.03812 0.5505 0.0
H1760 H 0.75306 0.97727 0.57149 0.0
H1761 H 0.74234 0.98221 0.61943 0.0
H1762 H 0.77743 0.00397 0.53978 0.0
H1763 H 0.70104 0.97291 0.5364 0.0
H1764 H 0.65875 0.97158 0.5443 0.0
H1765 H 0.64972 0.0325 0.49484 0.0
H1766 H 0.692 0.03439 0.48694 0.0
H1767 H 0.75909 0.98718 0.38221 0.0
H1768 H 0.7465 0.98059 0.42934 0.0
H1769 H 0.78551 0.04069 0.45525 0.0
H1770 H 0.79844 0.0471 0.40847 0.0
H1771 H 0.72134 0.00656 0.46298 0.0
H1772 H 0.80726 0.03249 0.51781 0.0
H1773 H 0.8495 0.03016 0.50977 0.0
H1774 H 0.8393 0.97203 0.45622 0.0
H1775 H 0.79705 0.97379 0.46423 0.0
C1776 C 0.71283 0.0283 0.59261 0.0
C1777 C 0.7212 0.01285 0.6125 0.0
C1778 C 0.71914 0.02558 0.56532 0.0
C1779 C 0.73365 0.00717 0.55735 0.0
C1780 C 0.74182 0.99157 0.57717 0.0
C1781 C 0.73566 0.99439 0.60452 0.0
C1782 C 0.74123 0.00499 0.52856 0.0
C1783 C 0.76515 0.00439 0.523 0.0
C1784 C 0.72521 0.00498 0.50665 0.0
C1785 C 0.69973 0.00387 0.51123 0.0
C1786 C 0.69006 0.98612 0.52735 0.0
C1787 C 0.66608 0.98525 0.53181 0.0
C1788 C 0.65156 0.00197 0.52012 0.0
C1789 C 0.66099 0.01956 0.50389 0.0
C1790 C 0.68496 0.02052 0.49939 0.0
C1791 C 0.76506 0.99889 0.39802 0.0
C1792 C 0.77982 0.0176 0.39173 0.0
C1793 C 0.75781 0.99514 0.42488 0.0
C1794 C 0.7653 0.00998 0.44584 0.0
C1795 C 0.77988 0.02876 0.43949 0.0
C1796 C 0.78717 0.03247 0.41273 0.0
C1797 C 0.7575 0.0063 0.47431 0.0
C1798 C 0.73358 0.00585 0.47979 0.0
C1799 C 0.7735 0.00478 0.49615 0.0
C1800 C 0.79895 0.00341 0.49148 0.0
C1801 C 0.81404 0.01914 0.50443 0.0
C1802 C 0.83799 0.01793 0.49985 0.0
C1803 C 0.84708 0.001 0.48244 0.0
C1804 C 0.83224 0.98519 0.46963 0.0
C1805 C 0.80828 0.9863 0.47416 0.0
H1806 H 0.86562 0.0001 0.47891 0.0
H1807 H 0.633 0.00127 0.5236 0.0
loop_
_geom_bond_atom_site_label_1
_geom_bond_atom_site_label_2
_geom_bond_distance
_geom_bond_site_symmetry_2
_ccdc_geom_bond_type
In0 O1 2.294 . S
In0 O2 2.326 . S
In0 O6 2.266 . S
In0 O7 2.326 . S
In0 O8 2.266 . S
In0 O9 2.326 . S
In0 O11 2.294 . S
In0 O12 2.326 . S
O1 In0 2.294 . S
O1 C10 1.240 . S
O2 In0 2.326 . S
O2 C10 1.252 . S
C3 O6 1.252 . S
C3 O7 1.260 . S
C4 O11 1.240 . S
C4 O12 1.252 . S
C5 O8 1.252 . S
C5 O9 1.260 . S
O6 In0 2.266 . S
O6 C3 1.252 . S
O7 In0 2.326 . S
O7 C3 1.260 . S
O8 In0 2.266 . S
O8 C5 1.252 . S
O9 In0 2.326 . S
O9 C5 1.260 . S
C10 O1 1.240 . S
C10 O2 1.252 . S
O11 In0 2.294 . S
O11 C4 1.240 . S
O12 In0 2.326 . S
O12 C4 1.252 . S
In13 O14 2.294 . S
In13 O15 2.326 . S
In13 O19 2.266 . S
In13 O20 2.326 . S
In13 O21 2.266 . S
In13 O22 2.326 . S
In13 O24 2.294 . S
In13 O25 2.326 . S
O14 In13 2.294 . S
O14 C23 1.240 . S
O15 In13 2.326 . S
O15 C23 1.252 . S
C16 O19 1.252 . S
C16 O20 1.260 . S
C17 O24 1.240 . S
C17 O25 1.252 . S
C18 O21 1.252 . S
C18 O22 1.260 . S
O19 In13 2.266 . S
O19 C16 1.252 . S
O20 In13 2.326 . S
O20 C16 1.260 . S
O21 In13 2.266 . S
O21 C18 1.252 . S
O22 In13 2.326 . S
O22 C18 1.260 . S
C23 O14 1.240 . S
C23 O15 1.252 . S
O24 In13 2.294 . S
O24 C17 1.240 . S
O25 In13 2.326 . S
O25 C17 1.252 . S
In26 O27 2.294 1_655 S
In26 O28 2.326 . S
In26 O32 2.266 . S
In26 O33 2.326 . S
In26 O34 2.266 . S
In26 O35 2.330 . S
In26 O37 2.294 . S
In26 O38 2.326 . S
O27 In26 2.294 1_455 S
O27 C36 1.240 . S
O28 In26 2.326 . S
O28 C36 1.252 1_655 S
C29 O32 1.252 . S
C29 O33 1.260 . S
C30 O37 1.240 . S
C30 O38 1.252 . S
C31 O34 1.252 . S
C31 O35 1.265 . S
O32 In26 2.266 . S
O32 C29 1.252 . S
O33 In26 2.326 . S
O33 C29 1.260 . S
O34 In26 2.266 . S
O34 C31 1.252 . S
O35 In26 2.330 . S
O35 C31 1.265 . S
C36 O27 1.240 . S
C36 O28 1.252 1_455 S
O37 In26 2.294 . S
O37 C30 1.240 . S
O38 In26 2.326 . S
O38 C30 1.252 . S
In39 O40 2.294 1_565 S
In39 O41 2.326 . S
In39 O45 2.266 . S
In39 O46 2.326 . S
In39 O47 2.266 . S
In39 O48 2.330 . S
In39 O50 2.294 . S
In39 O51 2.326 . S
O40 In39 2.294 1_545 S
O40 C49 1.240 . S
O41 In39 2.326 . S
O41 C49 1.252 1_565 S
C42 O45 1.252 . S
C42 O46 1.260 . S
C43 O50 1.240 . S
C43 O51 1.252 . S
C44 O47 1.252 . S
C44 O48 1.265 . S
O45 In39 2.266 . S
O45 C42 1.252 . S
O46 In39 2.326 . S
O46 C42 1.260 . S
O47 In39 2.266 . S
O47 C44 1.252 . S
O48 In39 2.330 . S
O48 C44 1.265 . S
C49 O40 1.240 . S
C49 O41 1.252 1_545 S
O50 In39 2.294 . S
O50 C43 1.240 . S
O51 In39 2.326 . S
O51 C43 1.252 . S
In52 O53 2.294 . S
In52 O54 2.326 . S
In52 O58 2.266 . S
In52 O59 2.326 . S
In52 O60 2.266 . S
In52 O61 2.326 . S
In52 O63 2.294 . S
In52 O64 2.326 . S
O53 In52 2.294 . S
O53 C62 1.240 . S
O54 In52 2.326 . S
O54 C62 1.252 . S
C55 O58 1.252 . S
C55 O59 1.260 . S
C56 O63 1.240 . S
C56 O64 1.252 . S
C57 O60 1.252 . S
C57 O61 1.260 . S
O58 In52 2.266 . S
O58 C55 1.252 . S
O59 In52 2.326 . S
O59 C55 1.260 . S
O60 In52 2.266 . S
O60 C57 1.252 . S
O61 In52 2.326 . S
O61 C57 1.260 . S
C62 O53 1.240 . S
C62 O54 1.252 . S
O63 In52 2.294 . S
O63 C56 1.240 . S
O64 In52 2.326 . S
O64 C56 1.252 . S
In65 O66 2.294 . S
In65 O67 2.326 . S
In65 O71 2.266 . S
In65 O72 2.326 . S
In65 O73 2.266 . S
In65 O74 2.326 . S
In65 O76 2.294 . S
In65 O77 2.326 . S
O66 In65 2.294 . S
O66 C75 1.240 . S
O67 In65 2.326 . S
O67 C75 1.252 . S
C68 O71 1.252 . S
C68 O72 1.260 . S
C69 O76 1.240 . S
C69 O77 1.252 . S
C70 O73 1.252 . S
C70 O74 1.260 . S
O71 In65 2.266 . S
O71 C68 1.252 . S
O72 In65 2.326 . S
O72 C68 1.260 . S
O73 In65 2.266 . S
O73 C70 1.252 . S
O74 In65 2.326 . S
O74 C70 1.260 . S
C75 O66 1.240 . S
C75 O67 1.252 . S
O76 In65 2.294 . S
O76 C69 1.240 . S
O77 In65 2.326 . S
O77 C69 1.252 . S
In78 O79 2.294 . S
In78 O80 2.326 . S
In78 O84 2.266 . S
In78 O85 2.330 . S
In78 O86 2.266 . S
In78 O87 2.326 . S
In78 O89 2.294 1_655 S
In78 O90 2.326 . S
O79 In78 2.294 . S
O79 C88 1.240 . S
O80 In78 2.326 . S
O80 C88 1.252 . S
C81 O84 1.252 . S
C81 O85 1.265 . S
C82 O89 1.240 . S
C82 O90 1.252 1_455 S
C83 O86 1.252 . S
C83 O87 1.260 . S
O84 In78 2.266 . S
O84 C81 1.252 . S
O85 In78 2.330 . S
O85 C81 1.265 . S
O86 In78 2.266 . S
O86 C83 1.252 . S
O87 In78 2.326 . S
O87 C83 1.260 . S
C88 O79 1.240 . S
C88 O80 1.252 . S
O89 In78 2.294 1_455 S
O89 C82 1.240 . S
O90 In78 2.326 . S
O90 C82 1.252 1_655 S
In91 O92 2.294 . S
In91 O93 2.326 . S
In91 O97 2.266 . S
In91 O98 2.330 . S
In91 O99 2.266 . S
In91 O100 2.326 . S
In91 O102 2.294 1_565 S
In91 O103 2.326 . S
O92 In91 2.294 . S
O92 C101 1.240 . S
O93 In91 2.326 . S
O93 C101 1.252 . S
C94 O97 1.252 . S
C94 O98 1.265 . S
C95 O102 1.240 . S
C95 O103 1.252 1_545 S
C96 O99 1.252 . S
C96 O100 1.260 . S
O97 In91 2.266 . S
O97 C94 1.252 . S
O98 In91 2.330 . S
O98 C94 1.265 . S
O99 In91 2.266 . S
O99 C96 1.252 . S
O100 In91 2.326 . S
O100 C96 1.260 . S
C101 O92 1.240 . S
C101 O93 1.252 . S
O102 In91 2.294 1_545 S
O102 C95 1.240 . S
O103 In91 2.326 . S
O103 C95 1.252 1_565 S
In104 O105 2.294 . S
In104 O106 2.326 . S
In104 O110 2.266 . S
In104 O111 2.326 . S
In104 O112 2.266 . S
In104 O113 2.326 . S
In104 O115 2.294 . S
In104 O116 2.326 . S
O105 In104 2.294 . S
O105 C114 1.240 . S
O106 In104 2.326 . S
O106 C114 1.252 . S
C107 O110 1.252 . S
C107 O111 1.260 . S
C108 O115 1.240 . S
C108 O116 1.252 . S
C109 O112 1.252 . S
C109 O113 1.260 . S
O110 In104 2.266 . S
O110 C107 1.252 . S
O111 In104 2.326 . S
O111 C107 1.260 . S
O112 In104 2.266 . S
O112 C109 1.252 . S
O113 In104 2.326 . S
O113 C109 1.260 . S
C114 O105 1.240 . S
C114 O106 1.252 . S
O115 In104 2.294 . S
O115 C108 1.240 . S
O116 In104 2.326 . S
O116 C108 1.252 . S
In117 O118 2.294 . S
In117 O119 2.326 . S
In117 O123 2.266 . S
In117 O124 2.326 . S
In117 O125 2.266 . S
In117 O126 2.326 . S
In117 O128 2.294 . S
In117 O129 2.326 . S
O118 In117 2.294 . S
O118 C127 1.240 . S
O119 In117 2.326 . S
O119 C127 1.252 . S
C120 O123 1.252 . S
C120 O124 1.260 . S
C121 O128 1.240 . S
C121 O129 1.252 . S
C122 O125 1.252 . S
C122 O126 1.260 . S
O123 In117 2.266 . S
O123 C120 1.252 . S
O124 In117 2.326 . S
O124 C120 1.260 . S
O125 In117 2.266 . S
O125 C122 1.252 . S
O126 In117 2.326 . S
O126 C122 1.260 . S
C127 O118 1.240 . S
C127 O119 1.252 . S
O128 In117 2.294 . S
O128 C121 1.240 . S
O129 In117 2.326 . S
O129 C121 1.252 . S
In130 O131 2.294 . S
In130 O132 2.326 . S
In130 O136 2.266 . S
In130 O137 2.330 . S
In130 O138 2.266 . S
In130 O139 2.326 . S
In130 O141 2.294 1_455 S
In130 O142 2.326 . S
O131 In130 2.294 . S
O131 C140 1.240 . S
O132 In130 2.326 . S
O132 C140 1.252 . S
C133 O136 1.252 . S
C133 O137 1.265 . S
C134 O141 1.240 . S
C134 O142 1.252 1_655 S
C135 O138 1.252 . S
C135 O139 1.260 . S
O136 In130 2.266 . S
O136 C133 1.252 . S
O137 In130 2.330 . S
O137 C133 1.265 . S
O138 In130 2.266 . S
O138 C135 1.252 . S
O139 In130 2.326 . S
O139 C135 1.260 . S
C140 O131 1.240 . S
C140 O132 1.252 . S
O141 In130 2.294 1_655 S
O141 C134 1.240 . S
O142 In130 2.326 . S
O142 C134 1.252 1_455 S
In143 O144 2.294 1_545 S
In143 O145 2.326 . S
In143 O149 2.266 . S
In143 O150 2.326 . S
In143 O151 2.266 . S
In143 O152 2.330 . S
In143 O154 2.294 . S
In143 O155 2.326 . S
O144 In143 2.294 1_565 S
O144 C153 1.240 . S
O145 In143 2.326 . S
O145 C153 1.252 1_545 S
C146 O149 1.252 . S
C146 O150 1.260 . S
C147 O154 1.240 . S
C147 O155 1.252 . S
C148 O151 1.252 . S
C148 O152 1.265 . S
O149 In143 2.266 . S
O149 C146 1.252 . S
O150 In143 2.326 . S
O150 C146 1.260 . S
O151 In143 2.266 . S
O151 C148 1.252 . S
O152 In143 2.330 . S
O152 C148 1.265 . S
C153 O144 1.240 . S
C153 O145 1.252 1_565 S
O154 In143 2.294 . S
O154 C147 1.240 . S
O155 In143 2.326 . S
O155 C147 1.252 . S
In156 O157 2.294 . S
In156 O158 2.326 . S
In156 O162 2.266 . S
In156 O163 2.326 . S
In156 O164 2.266 . S
In156 O165 2.326 . S
In156 O167 2.294 . S
In156 O168 2.326 . S
O157 In156 2.294 . S
O157 C166 1.240 . S
O158 In156 2.326 . S
O158 C166 1.252 . S
C159 O162 1.252 . S
C159 O163 1.260 . S
C160 O167 1.240 . S
C160 O168 1.252 . S
C161 O164 1.252 . S
C161 O165 1.260 . S
O162 In156 2.266 . S
O162 C159 1.252 . S
O163 In156 2.326 . S
O163 C159 1.260 . S
O164 In156 2.266 . S
O164 C161 1.252 . S
O165 In156 2.326 . S
O165 C161 1.260 . S
C166 O157 1.240 . S
C166 O158 1.252 . S
O167 In156 2.294 . S
O167 C160 1.240 . S
O168 In156 2.326 . S
O168 C160 1.252 . S
In169 O170 2.294 . S
In169 O171 2.326 . S
In169 O175 2.266 . S
In169 O176 2.326 . S
In169 O177 2.266 . S
In169 O178 2.326 . S
In169 O180 2.294 . S
In169 O181 2.326 . S
O170 In169 2.294 . S
O170 C179 1.240 . S
O171 In169 2.326 . S
O171 C179 1.252 . S
C172 O175 1.252 . S
C172 O176 1.260 . S
C173 O180 1.240 . S
C173 O181 1.252 . S
C174 O177 1.252 . S
C174 O178 1.260 . S
O175 In169 2.266 . S
O175 C172 1.252 . S
O176 In169 2.326 . S
O176 C172 1.260 . S
O177 In169 2.266 . S
O177 C174 1.252 . S
O178 In169 2.326 . S
O178 C174 1.260 . S
C179 O170 1.240 . S
C179 O171 1.252 . S
O180 In169 2.294 . S
O180 C173 1.240 . S
O181 In169 2.326 . S
O181 C173 1.252 . S
In182 O183 2.294 . S
In182 O184 2.326 . S
In182 O188 2.266 . S
In182 O189 2.330 . S
In182 O190 2.266 . S
In182 O191 2.326 . S
In182 O193 2.294 1_455 S
In182 O194 2.326 . S
O183 In182 2.294 . S
O183 C192 1.240 . S
O184 In182 2.326 . S
O184 C192 1.252 . S
C185 O188 1.252 . S
C185 O189 1.265 . S
C186 O193 1.240 . S
C186 O194 1.252 1_655 S
C187 O190 1.252 . S
C187 O191 1.260 . S
O188 In182 2.266 . S
O188 C185 1.252 . S
O189 In182 2.330 . S
O189 C185 1.265 . S
O190 In182 2.266 . S
O190 C187 1.252 . S
O191 In182 2.326 . S
O191 C187 1.260 . S
C192 O183 1.240 . S
C192 O184 1.252 . S
O193 In182 2.294 1_655 S
O193 C186 1.240 . S
O194 In182 2.326 . S
O194 C186 1.252 1_455 S
In195 O196 2.294 1_545 S
In195 O197 2.326 . S
In195 O201 2.266 . S
In195 O202 2.326 . S
In195 O203 2.266 . S
In195 O204 2.330 . S
In195 O206 2.294 . S
In195 O207 2.326 . S
O196 In195 2.294 1_565 S
O196 C205 1.240 . S
O197 In195 2.326 . S
O197 C205 1.252 1_545 S
C198 O201 1.252 . S
C198 O202 1.260 . S
C199 O206 1.240 . S
C199 O207 1.252 . S
C200 O203 1.252 . S
C200 O204 1.265 . S
O201 In195 2.266 . S
O201 C198 1.252 . S
O202 In195 2.326 . S
O202 C198 1.260 . S
O203 In195 2.266 . S
O203 C200 1.252 . S
O204 In195 2.330 . S
O204 C200 1.265 . S
C205 O196 1.240 . S
C205 O197 1.252 1_565 S
O206 In195 2.294 . S
O206 C199 1.240 . S
O207 In195 2.326 . S
O207 C199 1.252 . S
H208 C226 0.951 . S
H209 C228 0.951 . S
H210 C230 0.950 . S
H211 C231 0.950 . S
H212 C233 0.950 . S
H213 C236 0.950 . S
H214 C237 0.950 . S
H215 C239 0.950 . S
H216 C240 0.950 . S
H217 C241 0.951 . S
H218 C243 0.951 . S
H219 C245 0.950 . S
H220 C246 0.950 . S
H221 C248 0.950 . S
H222 C251 0.950 . S
H223 C252 0.950 . S
H224 C254 0.950 . S
H225 C255 0.950 . S
C226 H208 0.951 . S
C226 C227 1.366 . S
C226 C228 1.388 . S
C227 C226 1.366 . S
C227 C231 1.385 . S
C228 H209 0.951 . S
C228 C226 1.388 . S
C228 C229 1.366 . S
C229 C228 1.366 . S
C229 C230 1.414 . S
C229 C232 1.499 . S
C230 H210 0.950 . S
C230 C229 1.414 . S
C230 C231 1.374 . S
C231 H211 0.950 . S
C231 C227 1.385 . S
C231 C230 1.374 . S
C232 C229 1.499 . S
C232 C233 1.373 . S
C232 C234 1.389 . S
C233 H212 0.950 . S
C233 C232 1.373 . S
C233 C249 1.377 . S
C234 C232 1.389 . S
C234 C235 1.524 . S
C234 C248 1.377 . S
C235 C234 1.524 . S
C235 C236 1.397 . S
C235 C240 1.363 . S
C236 H213 0.950 . S
C236 C235 1.397 . S
C236 C237 1.334 . S
C237 H214 0.950 . S
C237 C236 1.334 . S
C237 C238 1.287 . S
C238 C237 1.287 . S
C238 C239 1.524 . S
C238 H257 0.913 . S
C239 H215 0.950 . S
C239 C238 1.524 . S
C239 C240 1.415 . S
C240 H216 0.950 . S
C240 C235 1.363 . S
C240 C239 1.415 . S
C241 H217 0.951 . S
C241 C242 1.366 . S
C241 C243 1.388 . S
C242 C241 1.366 . S
C242 C246 1.385 . S
C243 H218 0.951 . S
C243 C241 1.388 . S
C243 C244 1.366 . S
C244 C243 1.366 . S
C244 C245 1.414 . S
C244 C247 1.499 . S
C245 H219 0.950 . S
C245 C244 1.414 . S
C245 C246 1.374 . S
C246 H220 0.950 . S
C246 C242 1.385 . S
C246 C245 1.374 . S
C247 C244 1.499 . S
C247 C248 1.373 . S
C247 C249 1.389 . S
C248 H221 0.950 . S
C248 C234 1.377 . S
C248 C247 1.373 . S
C249 C233 1.377 . S
C249 C247 1.389 . S
C249 C250 1.524 . S
C250 C249 1.524 . S
C250 C251 1.397 . S
C250 C255 1.363 . S
C251 H222 0.950 . S
C251 C250 1.397 . S
C251 C252 1.334 . S
C252 H223 0.950 . S
C252 C251 1.334 . S
C252 C253 1.287 . S
C253 C252 1.287 . S
C253 C254 1.524 . S
C253 H256 0.999 . S
C254 H224 0.950 . S
C254 C253 1.524 . S
C254 C255 1.415 . S
C255 H225 0.950 . S
C255 C250 1.363 . S
C255 C254 1.415 . S
H256 C253 0.999 . S
H257 C238 0.913 . S
H258 C276 0.951 . S
H259 C278 0.951 . S
H260 C280 0.950 . S
H261 C281 0.950 . S
H262 C283 0.950 . S
H263 C286 0.950 . S
H264 C287 0.950 . S
H265 C289 0.950 . S
H266 C290 0.950 . S
H267 C291 0.951 . S
H268 C293 0.951 . S
H269 C295 0.950 . S
H270 C296 0.950 . S
H271 C298 0.950 . S
H272 C301 0.950 . S
H273 C302 0.950 . S
H274 C304 0.950 . S
H275 C305 0.950 . S
C276 H258 0.951 . S
C276 C277 1.366 . S
C276 C278 1.388 . S
C277 C276 1.366 . S
C277 C281 1.385 . S
C278 H259 0.951 . S
C278 C276 1.388 . S
C278 C279 1.366 . S
C279 C278 1.366 . S
C279 C280 1.414 . S
C279 C282 1.499 . S
C280 H260 0.950 . S
C280 C279 1.414 . S
C280 C281 1.374 . S
C281 H261 0.950 . S
C281 C277 1.385 . S
C281 C280 1.374 . S
C282 C279 1.499 . S
C282 C283 1.373 . S
C282 C284 1.389 . S
C283 H262 0.950 . S
C283 C282 1.373 . S
C283 C299 1.377 . S
C284 C282 1.389 . S
C284 C285 1.524 . S
C284 C298 1.377 . S
C285 C284 1.524 . S
C285 C286 1.397 . S
C285 C290 1.363 . S
C286 H263 0.950 . S
C286 C285 1.397 . S
C286 C287 1.334 . S
C287 H264 0.950 . S
C287 C286 1.334 . S
C287 C288 1.287 . S
C288 C287 1.287 . S
C288 C289 1.524 . S
C288 H307 0.913 . S
C289 H265 0.950 . S
C289 C288 1.524 . S
C289 C290 1.415 . S
C290 H266 0.950 . S
C290 C285 1.363 . S
C290 C289 1.415 . S
C291 H267 0.951 . S
C291 C292 1.366 . S
C291 C293 1.388 . S
C292 C291 1.366 . S
C292 C296 1.385 . S
C293 H268 0.951 . S
C293 C291 1.388 . S
C293 C294 1.366 . S
C294 C293 1.366 . S
C294 C295 1.414 . S
C294 C297 1.499 . S
C295 H269 0.950 . S
C295 C294 1.414 . S
C295 C296 1.374 . S
C296 H270 0.950 . S
C296 C292 1.385 . S
C296 C295 1.374 . S
C297 C294 1.499 . S
C297 C298 1.373 . S
C297 C299 1.389 . S
C298 H271 0.950 . S
C298 C284 1.377 . S
C298 C297 1.373 . S
C299 C283 1.377 . S
C299 C297 1.389 . S
C299 C300 1.524 . S
C300 C299 1.524 . S
C300 C301 1.397 . S
C300 C305 1.363 . S
C301 H272 0.950 . S
C301 C300 1.397 . S
C301 C302 1.334 . S
C302 H273 0.950 . S
C302 C301 1.334 . S
C302 C303 1.287 . S
C303 C302 1.287 . S
C303 C304 1.524 . S
C303 H306 0.999 . S
C304 H274 0.950 . S
C304 C303 1.524 . S
C304 C305 1.415 . S
C305 H275 0.950 . S
C305 C300 1.363 . S
C305 C304 1.415 . S
H306 C303 0.999 . S
H307 C288 0.913 . S
H308 C326 0.951 . S
H309 C328 0.951 . S
H310 C330 0.950 . S
H311 C331 0.950 . S
H312 C333 0.950 . S
H313 C336 0.950 . S
H314 C337 0.950 . S
H315 C339 0.950 . S
H316 C340 0.950 . S
H317 C341 0.951 . S
H318 C343 0.951 . S
H319 C345 0.950 . S
H320 C346 0.950 . S
H321 C348 0.950 . S
H322 C351 0.950 . S
H323 C352 0.950 . S
H324 C354 0.950 . S
H325 C355 0.950 . S
C326 H308 0.951 . S
C326 C327 1.366 . S
C326 C328 1.388 . S
C327 C326 1.366 . S
C327 C331 1.385 . S
C328 H309 0.951 . S
C328 C326 1.388 . S
C328 C329 1.366 . S
C329 C328 1.366 . S
C329 C330 1.414 . S
C329 C332 1.499 . S
C330 H310 0.950 . S
C330 C329 1.414 . S
C330 C331 1.374 . S
C331 H311 0.950 . S
C331 C327 1.385 . S
C331 C330 1.374 . S
C332 C329 1.499 . S
C332 C333 1.373 . S
C332 C334 1.389 . S
C333 H312 0.950 . S
C333 C332 1.373 . S
C333 C349 1.377 . S
C334 C332 1.389 . S
C334 C335 1.524 . S
C334 C348 1.377 . S
C335 C334 1.524 . S
C335 C336 1.397 . S
C335 C340 1.363 . S
C336 H313 0.950 . S
C336 C335 1.397 . S
C336 C337 1.334 . S
C337 H314 0.950 . S
C337 C336 1.334 . S
C337 C338 1.287 . S
C338 C337 1.287 . S
C338 C339 1.524 . S
C338 H357 0.913 1_455 S
C339 H315 0.950 . S
C339 C338 1.524 . S
C339 C340 1.415 . S
C340 H316 0.950 . S
C340 C335 1.363 . S
C340 C339 1.415 . S
C341 H317 0.951 . S
C341 C342 1.366 . S
C341 C343 1.388 . S
C342 C341 1.366 . S
C342 C346 1.385 . S
C343 H318 0.951 . S
C343 C341 1.388 . S
C343 C344 1.366 . S
C344 C343 1.366 . S
C344 C345 1.414 . S
C344 C347 1.499 . S
C345 H319 0.950 . S
C345 C344 1.414 . S
C345 C346 1.374 . S
C346 H320 0.950 . S
C346 C342 1.385 . S
C346 C345 1.374 . S
C347 C344 1.499 . S
C347 C348 1.373 . S
C347 C349 1.389 . S
C348 H321 0.950 . S
C348 C334 1.377 . S
C348 C347 1.373 . S
C349 C333 1.377 . S
C349 C347 1.389 . S
C349 C350 1.524 . S
C350 C349 1.524 . S
C350 C351 1.397 . S
C350 C355 1.363 . S
C351 H322 0.950 . S
C351 C350 1.397 . S
C351 C352 1.334 . S
C352 H323 0.950 . S
C352 C351 1.334 . S
C352 C353 1.287 . S
C353 C352 1.287 . S
C353 C354 1.524 . S
C353 H356 0.999 . S
C354 H324 0.950 . S
C354 C353 1.524 . S
C354 C355 1.415 . S
C355 H325 0.950 . S
C355 C350 1.363 . S
C355 C354 1.415 . S
H356 C353 0.999 . S
H357 C338 0.913 1_655 S
H358 C376 0.951 . S
H359 C378 0.951 . S
H360 C380 0.950 . S
H361 C381 0.950 . S
H362 C383 0.950 . S
H363 C386 0.950 . S
H364 C387 0.950 . S
H365 C389 0.950 . S
H366 C390 0.950 . S
H367 C391 0.951 . S
H368 C393 0.951 . S
H369 C395 0.950 . S
H370 C396 0.950 . S
H371 C398 0.950 . S
H372 C401 0.950 . S
H373 C402 0.950 . S
H374 C404 0.950 . S
H375 C405 0.950 . S
C376 H358 0.951 . S
C376 C377 1.366 . S
C376 C378 1.388 . S
C377 C376 1.366 . S
C377 C381 1.385 . S
C378 H359 0.951 . S
C378 C376 1.388 . S
C378 C379 1.366 . S
C379 C378 1.366 . S
C379 C380 1.414 . S
C379 C382 1.499 . S
C380 H360 0.950 . S
C380 C379 1.414 . S
C380 C381 1.374 . S
C381 H361 0.950 . S
C381 C377 1.385 . S
C381 C380 1.374 . S
C382 C379 1.499 . S
C382 C383 1.373 . S
C382 C384 1.389 . S
C383 H362 0.950 . S
C383 C382 1.373 . S
C383 C399 1.377 . S
C384 C382 1.389 . S
C384 C385 1.524 . S
C384 C398 1.377 . S
C385 C384 1.524 . S
C385 C386 1.397 . S
C385 C390 1.363 . S
C386 H363 0.950 . S
C386 C385 1.397 . S
C386 C387 1.334 . S
C387 H364 0.950 . S
C387 C386 1.334 . S
C387 C388 1.287 . S
C388 C387 1.287 . S
C388 C389 1.524 . S
C388 H407 0.913 . S
C389 H365 0.950 . S
C389 C388 1.524 . S
C389 C390 1.415 . S
C390 H366 0.950 . S
C390 C385 1.363 . S
C390 C389 1.415 . S
C391 H367 0.951 . S
C391 C392 1.366 . S
C391 C393 1.388 . S
C392 C391 1.366 . S
C392 C396 1.385 . S
C393 H368 0.951 . S
C393 C391 1.388 . S
C393 C394 1.366 . S
C394 C393 1.366 . S
C394 C395 1.414 . S
C394 C397 1.499 . S
C395 H369 0.950 . S
C395 C394 1.414 . S
C395 C396 1.374 . S
C396 H370 0.950 . S
C396 C392 1.385 . S
C396 C395 1.374 . S
C397 C394 1.499 . S
C397 C398 1.373 . S
C397 C399 1.389 . S
C398 H371 0.950 . S
C398 C384 1.377 . S
C398 C397 1.373 . S
C399 C383 1.377 . S
C399 C397 1.389 . S
C399 C400 1.524 . S
C400 C399 1.524 . S
C400 C401 1.397 . S
C400 C405 1.363 . S
C401 H372 0.950 . S
C401 C400 1.397 . S
C401 C402 1.334 . S
C402 H373 0.950 . S
C402 C401 1.334 . S
C402 C403 1.287 . S
C403 C402 1.287 . S
C403 C404 1.524 . S
C403 H406 0.999 . S
C404 H374 0.950 . S
C404 C403 1.524 . S
C404 C405 1.415 . S
C405 H375 0.950 . S
C405 C400 1.363 . S
C405 C404 1.415 . S
H406 C403 0.999 . S
H407 C388 0.913 . S
H408 C426 0.951 . S
H409 C428 0.951 . S
H410 C430 0.950 . S
H411 C431 0.950 . S
H412 C433 0.950 . S
H413 C436 0.950 . S
H414 C437 0.950 . S
H415 C439 0.950 . S
H416 C440 0.950 . S
H417 C441 0.951 . S
H418 C443 0.951 . S
H419 C445 0.950 . S
H420 C446 0.950 . S
H421 C448 0.950 . S
H422 C451 0.950 . S
H423 C452 0.950 . S
H424 C454 0.950 . S
H425 C455 0.950 . S
C426 H408 0.951 . S
C426 C427 1.366 . S
C426 C428 1.388 . S
C427 C426 1.366 . S
C427 C431 1.385 . S
C428 H409 0.951 . S
C428 C426 1.388 . S
C428 C429 1.366 . S
C429 C428 1.366 . S
C429 C430 1.414 . S
C429 C432 1.499 . S
C430 H410 0.950 . S
C430 C429 1.414 . S
C430 C431 1.374 . S
C431 H411 0.950 . S
C431 C427 1.385 . S
C431 C430 1.374 . S
C432 C429 1.499 . S
C432 C433 1.373 . S
C432 C434 1.389 . S
C433 H412 0.950 . S
C433 C432 1.373 . S
C433 C449 1.377 . S
C434 C432 1.389 . S
C434 C435 1.524 . S
C434 C448 1.377 . S
C435 C434 1.524 . S
C435 C436 1.397 . S
C435 C440 1.363 . S
C436 H413 0.950 . S
C436 C435 1.397 . S
C436 C437 1.334 . S
C437 H414 0.950 . S
C437 C436 1.334 . S
C437 C438 1.287 . S
C438 C437 1.287 . S
C438 C439 1.524 . S
C438 H457 0.913 . S
C439 H415 0.950 . S
C439 C438 1.524 . S
C439 C440 1.415 . S
C440 H416 0.950 . S
C440 C435 1.363 . S
C440 C439 1.415 . S
C441 H417 0.951 . S
C441 C442 1.366 . S
C441 C443 1.388 . S
C442 C441 1.366 . S
C442 C446 1.385 . S
C443 H418 0.951 . S
C443 C441 1.388 . S
C443 C444 1.366 . S
C444 C443 1.366 . S
C444 C445 1.414 . S
C444 C447 1.499 . S
C445 H419 0.950 . S
C445 C444 1.414 . S
C445 C446 1.374 . S
C446 H420 0.950 . S
C446 C442 1.385 . S
C446 C445 1.374 . S
C447 C444 1.499 . S
C447 C448 1.373 . S
C447 C449 1.389 . S
C448 H421 0.950 . S
C448 C434 1.377 . S
C448 C447 1.373 . S
C449 C433 1.377 . S
C449 C447 1.389 . S
C449 C450 1.524 . S
C450 C449 1.524 . S
C450 C451 1.397 . S
C450 C455 1.363 . S
C451 H422 0.950 . S
C451 C450 1.397 . S
C451 C452 1.334 . S
C452 H423 0.950 . S
C452 C451 1.334 . S
C452 C453 1.287 . S
C453 C452 1.287 . S
C453 C454 1.524 . S
C453 H456 0.999 . S
C454 H424 0.950 . S
C454 C453 1.524 . S
C454 C455 1.415 . S
C455 H425 0.950 . S
C455 C450 1.363 . S
C455 C454 1.415 . S
H456 C453 0.999 . S
H457 C438 0.913 . S
H458 C476 0.951 . S
H459 C478 0.951 . S
H460 C480 0.950 . S
H461 C481 0.950 . S
H462 C483 0.950 . S
H463 C486 0.950 . S
H464 C487 0.950 . S
H465 C489 0.950 . S
H466 C490 0.950 . S
H467 C491 0.951 . S
H468 C493 0.951 . S
H469 C495 0.950 . S
H470 C496 0.950 . S
H471 C498 0.950 . S
H472 C501 0.950 . S
H473 C502 0.950 . S
H474 C504 0.950 . S
H475 C505 0.950 . S
C476 H458 0.951 . S
C476 C477 1.366 . S
C476 C478 1.388 . S
C477 C476 1.366 . S
C477 C481 1.385 . S
C478 H459 0.951 . S
C478 C476 1.388 . S
C478 C479 1.366 . S
C479 C478 1.366 . S
C479 C480 1.414 . S
C479 C482 1.499 . S
C480 H460 0.950 . S
C480 C479 1.414 . S
C480 C481 1.374 . S
C481 H461 0.950 . S
C481 C477 1.385 . S
C481 C480 1.374 . S
C482 C479 1.499 . S
C482 C483 1.373 . S
C482 C484 1.389 . S
C483 H462 0.950 . S
C483 C482 1.373 . S
C483 C499 1.377 . S
C484 C482 1.389 . S
C484 C485 1.524 . S
C484 C498 1.377 . S
C485 C484 1.524 . S
C485 C486 1.397 . S
C485 C490 1.363 . S
C486 H463 0.950 . S
C486 C485 1.397 . S
C486 C487 1.334 . S
C487 H464 0.950 . S
C487 C486 1.334 . S
C487 C488 1.287 . S
C488 C487 1.287 . S
C488 C489 1.524 . S
C488 H507 0.913 . S
C489 H465 0.950 . S
C489 C488 1.524 . S
C489 C490 1.415 . S
C490 H466 0.950 . S
C490 C485 1.363 . S
C490 C489 1.415 . S
C491 H467 0.951 . S
C491 C492 1.366 . S
C491 C493 1.388 . S
C492 C491 1.366 . S
C492 C496 1.385 . S
C493 H468 0.951 . S
C493 C491 1.388 . S
C493 C494 1.366 . S
C494 C493 1.366 . S
C494 C495 1.414 . S
C494 C497 1.499 . S
C495 H469 0.950 . S
C495 C494 1.414 . S
C495 C496 1.374 . S
C496 H470 0.950 . S
C496 C492 1.385 . S
C496 C495 1.374 . S
C497 C494 1.499 . S
C497 C498 1.373 . S
C497 C499 1.389 . S
C498 H471 0.950 . S
C498 C484 1.377 . S
C498 C497 1.373 . S
C499 C483 1.377 . S
C499 C497 1.389 . S
C499 C500 1.524 . S
C500 C499 1.524 . S
C500 C501 1.397 . S
C500 C505 1.363 . S
C501 H472 0.950 . S
C501 C500 1.397 . S
C501 C502 1.334 . S
C502 H473 0.950 . S
C502 C501 1.334 . S
C502 C503 1.287 . S
C503 C502 1.287 . S
C503 C504 1.524 . S
C503 H506 0.999 . S
C504 H474 0.950 . S
C504 C503 1.524 . S
C504 C505 1.415 . S
C505 H475 0.950 . S
C505 C500 1.363 . S
C505 C504 1.415 . S
H506 C503 0.999 . S
H507 C488 0.913 . S
H508 C526 0.951 . S
H509 C528 0.951 . S
H510 C530 0.950 . S
H511 C531 0.950 . S
H512 C533 0.950 . S
H513 C536 0.950 . S
H514 C537 0.950 . S
H515 C539 0.950 . S
H516 C540 0.950 . S
H517 C541 0.951 . S
H518 C543 0.951 . S
H519 C545 0.950 . S
H520 C546 0.950 . S
H521 C548 0.950 . S
H522 C551 0.950 . S
H523 C552 0.950 . S
H524 C554 0.950 . S
H525 C555 0.950 . S
C526 H508 0.951 . S
C526 C527 1.366 . S
C526 C528 1.388 . S
C527 C526 1.366 . S
C527 C531 1.385 . S
C528 H509 0.951 . S
C528 C526 1.388 . S
C528 C529 1.366 . S
C529 C528 1.366 . S
C529 C530 1.414 . S
C529 C532 1.499 . S
C530 H510 0.950 . S
C530 C529 1.414 . S
C530 C531 1.374 . S
C531 H511 0.950 . S
C531 C527 1.385 . S
C531 C530 1.374 . S
C532 C529 1.499 . S
C532 C533 1.373 . S
C532 C534 1.389 . S
C533 H512 0.950 . S
C533 C532 1.373 . S
C533 C549 1.377 . S
C534 C532 1.389 . S
C534 C535 1.524 . S
C534 C548 1.377 . S
C535 C534 1.524 . S
C535 C536 1.397 . S
C535 C540 1.363 . S
C536 H513 0.950 . S
C536 C535 1.397 . S
C536 C537 1.334 . S
C537 H514 0.950 . S
C537 C536 1.334 . S
C537 C538 1.287 . S
C538 C537 1.287 . S
C538 C539 1.524 . S
C538 H557 0.913 . S
C539 H515 0.950 . S
C539 C538 1.524 . S
C539 C540 1.415 . S
C540 H516 0.950 . S
C540 C535 1.363 . S
C540 C539 1.415 . S
C541 H517 0.951 . S
C541 C542 1.366 . S
C541 C543 1.388 . S
C542 C541 1.366 . S
C542 C546 1.385 . S
C543 H518 0.951 . S
C543 C541 1.388 . S
C543 C544 1.366 . S
C544 C543 1.366 . S
C544 C545 1.414 . S
C544 C547 1.499 . S
C545 H519 0.950 . S
C545 C544 1.414 . S
C545 C546 1.374 . S
C546 H520 0.950 . S
C546 C542 1.385 . S
C546 C545 1.374 . S
C547 C544 1.499 . S
C547 C548 1.373 . S
C547 C549 1.389 . S
C548 H521 0.950 . S
C548 C534 1.377 . S
C548 C547 1.373 . S
C549 C533 1.377 . S
C549 C547 1.389 . S
C549 C550 1.524 . S
C550 C549 1.524 . S
C550 C551 1.397 . S
C550 C555 1.363 . S
C551 H522 0.950 . S
C551 C550 1.397 . S
C551 C552 1.334 . S
C552 H523 0.950 . S
C552 C551 1.334 . S
C552 C553 1.287 . S
C553 C552 1.287 . S
C553 C554 1.524 . S
C553 H556 0.999 . S
C554 H524 0.950 . S
C554 C553 1.524 . S
C554 C555 1.415 . S
C555 H525 0.950 . S
C555 C550 1.363 . S
C555 C554 1.415 . S
H556 C553 0.999 . S
H557 C538 0.913 . S
H558 C576 0.951 . S
H559 C578 0.951 . S
H560 C580 0.950 . S
H561 C581 0.950 . S
H562 C583 0.950 . S
H563 C586 0.950 . S
H564 C587 0.950 . S
H565 C589 0.950 . S
H566 C590 0.950 . S
H567 C591 0.951 . S
H568 C593 0.951 . S
H569 C595 0.950 . S
H570 C596 0.950 . S
H571 C598 0.950 . S
H572 C601 0.950 . S
H573 C602 0.950 . S
H574 C604 0.950 . S
H575 C605 0.950 . S
C576 H558 0.951 . S
C576 C577 1.366 . S
C576 C578 1.388 . S
C577 C576 1.366 . S
C577 C581 1.385 . S
C578 H559 0.951 . S
C578 C576 1.388 . S
C578 C579 1.366 . S
C579 C578 1.366 . S
C579 C580 1.414 . S
C579 C582 1.499 . S
C580 H560 0.950 . S
C580 C579 1.414 . S
C580 C581 1.374 . S
C581 H561 0.950 . S
C581 C577 1.385 . S
C581 C580 1.374 . S
C582 C579 1.499 . S
C582 C583 1.373 . S
C582 C584 1.389 . S
C583 H562 0.950 . S
C583 C582 1.373 . S
C583 C599 1.377 . S
C584 C582 1.389 . S
C584 C585 1.524 . S
C584 C598 1.377 . S
C585 C584 1.524 . S
C585 C586 1.397 . S
C585 C590 1.363 . S
C586 H563 0.950 . S
C586 C585 1.397 . S
C586 C587 1.334 . S
C587 H564 0.950 . S
C587 C586 1.334 . S
C587 C588 1.287 . S
C588 C587 1.287 . S
C588 C589 1.524 . S
C588 H607 0.913 . S
C589 H565 0.950 . S
C589 C588 1.524 . S
C589 C590 1.415 . S
C590 H566 0.950 . S
C590 C585 1.363 . S
C590 C589 1.415 . S
C591 H567 0.951 . S
C591 C592 1.366 . S
C591 C593 1.388 . S
C592 C591 1.366 . S
C592 C596 1.385 . S
C593 H568 0.951 . S
C593 C591 1.388 . S
C593 C594 1.366 . S
C594 C593 1.366 . S
C594 C595 1.414 . S
C594 C597 1.499 . S
C595 H569 0.950 . S
C595 C594 1.414 . S
C595 C596 1.374 . S
C596 H570 0.950 . S
C596 C592 1.385 . S
C596 C595 1.374 . S
C597 C594 1.499 . S
C597 C598 1.373 . S
C597 C599 1.389 . S
C598 H571 0.950 . S
C598 C584 1.377 . S
C598 C597 1.373 . S
C599 C583 1.377 . S
C599 C597 1.389 . S
C599 C600 1.524 . S
C600 C599 1.524 . S
C600 C601 1.397 . S
C600 C605 1.363 . S
C601 H572 0.950 . S
C601 C600 1.397 . S
C601 C602 1.334 . S
C602 H573 0.950 . S
C602 C601 1.334 . S
C602 C603 1.287 . S
C603 C602 1.287 . S
C603 C604 1.524 . S
C603 H606 0.999 1_655 S
C604 H574 0.950 . S
C604 C603 1.524 . S
C604 C605 1.415 . S
C605 H575 0.950 . S
C605 C600 1.363 . S
C605 C604 1.415 . S
H606 C603 0.999 1_455 S
H607 C588 0.913 . S
H608 C626 0.951 . S
H609 C628 0.951 . S
H610 C630 0.950 . S
H611 C631 0.950 . S
H612 C633 0.950 . S
H613 C636 0.950 . S
H614 C637 0.950 . S
H615 C639 0.950 . S
H616 C640 0.950 . S
H617 C641 0.951 . S
H618 C643 0.951 . S
H619 C645 0.950 . S
H620 C646 0.950 . S
H621 C648 0.950 . S
H622 C651 0.950 . S
H623 C652 0.950 . S
H624 C654 0.950 . S
H625 C655 0.950 . S
C626 H608 0.951 . S
C626 C627 1.366 . S
C626 C628 1.388 . S
C627 C626 1.366 . S
C627 C631 1.385 . S
C628 H609 0.951 . S
C628 C626 1.388 . S
C628 C629 1.366 . S
C629 C628 1.366 . S
C629 C630 1.414 . S
C629 C632 1.499 . S
C630 H610 0.950 . S
C630 C629 1.414 . S
C630 C631 1.374 . S
C631 H611 0.950 . S
C631 C627 1.385 . S
C631 C630 1.374 . S
C632 C629 1.499 . S
C632 C633 1.373 . S
C632 C634 1.389 . S
C633 H612 0.950 . S
C633 C632 1.373 . S
C633 C649 1.377 . S
C634 C632 1.389 . S
C634 C635 1.524 . S
C634 C648 1.377 . S
C635 C634 1.524 . S
C635 C636 1.397 . S
C635 C640 1.363 . S
C636 H613 0.950 . S
C636 C635 1.397 . S
C636 C637 1.334 . S
C637 H614 0.950 . S
C637 C636 1.334 . S
C637 C638 1.287 . S
C638 C637 1.287 . S
C638 C639 1.524 . S
C638 H657 0.913 . S
C639 H615 0.950 . S
C639 C638 1.524 . S
C639 C640 1.415 . S
C640 H616 0.950 . S
C640 C635 1.363 . S
C640 C639 1.415 . S
C641 H617 0.951 . S
C641 C642 1.366 . S
C641 C643 1.388 . S
C642 C641 1.366 . S
C642 C646 1.385 . S
C643 H618 0.951 . S
C643 C641 1.388 . S
C643 C644 1.366 . S
C644 C643 1.366 . S
C644 C645 1.414 . S
C644 C647 1.499 . S
C645 H619 0.950 . S
C645 C644 1.414 . S
C645 C646 1.374 . S
C646 H620 0.950 . S
C646 C642 1.385 . S
C646 C645 1.374 . S
C647 C644 1.499 . S
C647 C648 1.373 . S
C647 C649 1.389 . S
C648 H621 0.950 . S
C648 C634 1.377 . S
C648 C647 1.373 . S
C649 C633 1.377 . S
C649 C647 1.389 . S
C649 C650 1.524 . S
C650 C649 1.524 . S
C650 C651 1.397 . S
C650 C655 1.363 . S
C651 H622 0.950 . S
C651 C650 1.397 . S
C651 C652 1.334 . S
C652 H623 0.950 . S
C652 C651 1.334 . S
C652 C653 1.287 . S
C653 C652 1.287 . S
C653 C654 1.524 . S
C653 H656 0.999 . S
C654 H624 0.950 . S
C654 C653 1.524 . S
C654 C655 1.415 . S
C655 H625 0.950 . S
C655 C650 1.363 . S
C655 C654 1.415 . S
H656 C653 0.999 . S
H657 C638 0.913 . S
H658 C676 0.951 . S
H659 C678 0.951 . S
H660 C680 0.950 . S
H661 C681 0.950 . S
H662 C683 0.950 . S
H663 C686 0.950 . S
H664 C687 0.950 . S
H665 C689 0.950 . S
H666 C690 0.950 . S
H667 C691 0.951 . S
H668 C693 0.951 . S
H669 C695 0.950 . S
H670 C696 0.950 . S
H671 C698 0.950 . S
H672 C701 0.950 . S
H673 C702 0.950 . S
H674 C704 0.950 . S
H675 C705 0.950 . S
C676 H658 0.951 . S
C676 C677 1.366 . S
C676 C678 1.388 . S
C677 C676 1.366 . S
C677 C681 1.385 . S
C678 H659 0.951 . S
C678 C676 1.388 . S
C678 C679 1.366 . S
C679 C678 1.366 . S
C679 C680 1.414 . S
C679 C682 1.499 . S
C680 H660 0.950 . S
C680 C679 1.414 . S
C680 C681 1.374 . S
C681 H661 0.950 . S
C681 C677 1.385 . S
C681 C680 1.374 . S
C682 C679 1.499 . S
C682 C683 1.373 . S
C682 C684 1.389 . S
C683 H662 0.950 . S
C683 C682 1.373 . S
C683 C699 1.377 . S
C684 C682 1.389 . S
C684 C685 1.524 . S
C684 C698 1.377 . S
C685 C684 1.524 . S
C685 C686 1.397 . S
C685 C690 1.363 . S
C686 H663 0.950 . S
C686 C685 1.397 . S
C686 C687 1.334 . S
C687 H664 0.950 . S
C687 C686 1.334 . S
C687 C688 1.287 . S
C688 C687 1.287 . S
C688 C689 1.524 . S
C688 H707 0.913 . S
C689 H665 0.950 . S
C689 C688 1.524 . S
C689 C690 1.415 . S
C690 H666 0.950 . S
C690 C685 1.363 . S
C690 C689 1.415 . S
C691 H667 0.951 . S
C691 C692 1.366 . S
C691 C693 1.388 . S
C692 C691 1.366 . S
C692 C696 1.385 . S
C693 H668 0.951 . S
C693 C691 1.388 . S
C693 C694 1.366 . S
C694 C693 1.366 . S
C694 C695 1.414 . S
C694 C697 1.499 . S
C695 H669 0.950 . S
C695 C694 1.414 . S
C695 C696 1.374 . S
C696 H670 0.950 . S
C696 C692 1.385 . S
C696 C695 1.374 . S
C697 C694 1.499 . S
C697 C698 1.373 . S
C697 C699 1.389 . S
C698 H671 0.950 . S
C698 C684 1.377 . S
C698 C697 1.373 . S
C699 C683 1.377 . S
C699 C697 1.389 . S
C699 C700 1.524 . S
C700 C699 1.524 . S
C700 C701 1.397 . S
C700 C705 1.363 . S
C701 H672 0.950 . S
C701 C700 1.397 . S
C701 C702 1.334 . S
C702 H673 0.950 . S
C702 C701 1.334 . S
C702 C703 1.287 . S
C703 C702 1.287 . S
C703 C704 1.524 . S
C703 H706 0.999 . S
C704 H674 0.950 . S
C704 C703 1.524 . S
C704 C705 1.415 . S
C705 H675 0.950 . S
C705 C700 1.363 . S
C705 C704 1.415 . S
H706 C703 0.999 . S
H707 C688 0.913 . S
H708 C726 0.951 . S
H709 C728 0.951 . S
H710 C730 0.950 . S
H711 C731 0.950 . S
H712 C733 0.950 . S
H713 C736 0.950 . S
H714 C737 0.950 . S
H715 C739 0.950 . S
H716 C740 0.950 . S
H717 C741 0.951 . S
H718 C743 0.951 . S
H719 C745 0.950 . S
H720 C746 0.950 . S
H721 C748 0.950 . S
H722 C751 0.950 . S
H723 C752 0.950 . S
H724 C754 0.950 . S
H725 C755 0.950 . S
C726 H708 0.951 . S
C726 C727 1.366 . S
C726 C728 1.388 . S
C727 C726 1.366 . S
C727 C731 1.385 . S
C728 H709 0.951 . S
C728 C726 1.388 . S
C728 C729 1.366 . S
C729 C728 1.366 . S
C729 C730 1.414 . S
C729 C732 1.499 . S
C730 H710 0.950 . S
C730 C729 1.414 . S
C730 C731 1.374 . S
C731 H711 0.950 . S
C731 C727 1.385 . S
C731 C730 1.374 . S
C732 C729 1.499 . S
C732 C733 1.373 . S
C732 C734 1.389 . S
C733 H712 0.950 . S
C733 C732 1.373 . S
C733 C749 1.377 . S
C734 C732 1.389 . S
C734 C735 1.524 . S
C734 C748 1.377 . S
C735 C734 1.524 . S
C735 C736 1.397 . S
C735 C740 1.363 . S
C736 H713 0.950 . S
C736 C735 1.397 . S
C736 C737 1.334 . S
C737 H714 0.950 . S
C737 C736 1.334 . S
C737 C738 1.287 . S
C738 C737 1.287 . S
C738 C739 1.524 . S
C738 H757 0.913 . S
C739 H715 0.950 . S
C739 C738 1.524 . S
C739 C740 1.415 . S
C740 H716 0.950 . S
C740 C735 1.363 . S
C740 C739 1.415 . S
C741 H717 0.951 . S
C741 C742 1.366 . S
C741 C743 1.388 . S
C742 C741 1.366 . S
C742 C746 1.385 . S
C743 H718 0.951 . S
C743 C741 1.388 . S
C743 C744 1.366 . S
C744 C743 1.366 . S
C744 C745 1.414 . S
C744 C747 1.499 . S
C745 H719 0.950 . S
C745 C744 1.414 . S
C745 C746 1.374 . S
C746 H720 0.950 . S
C746 C742 1.385 . S
C746 C745 1.374 . S
C747 C744 1.499 . S
C747 C748 1.373 . S
C747 C749 1.389 . S
C748 H721 0.950 . S
C748 C734 1.377 . S
C748 C747 1.373 . S
C749 C733 1.377 . S
C749 C747 1.389 . S
C749 C750 1.524 . S
C750 C749 1.524 . S
C750 C751 1.397 . S
C750 C755 1.363 . S
C751 H722 0.950 . S
C751 C750 1.397 . S
C751 C752 1.334 . S
C752 H723 0.950 . S
C752 C751 1.334 . S
C752 C753 1.287 . S
C753 C752 1.287 . S
C753 C754 1.524 . S
C753 H756 0.999 . S
C754 H724 0.950 . S
C754 C753 1.524 . S
C754 C755 1.415 . S
C755 H725 0.950 . S
C755 C750 1.363 . S
C755 C754 1.415 . S
H756 C753 0.999 . S
H757 C738 0.913 . S
H758 C776 0.951 . S
H759 C778 0.951 . S
H760 C780 0.950 . S
H761 C781 0.950 . S
H762 C783 0.950 . S
H763 C786 0.950 . S
H764 C787 0.950 . S
H765 C789 0.950 . S
H766 C790 0.950 . S
H767 C791 0.951 . S
H768 C793 0.951 . S
H769 C795 0.950 . S
H770 C796 0.950 . S
H771 C798 0.950 . S
H772 C801 0.950 . S
H773 C802 0.950 . S
H774 C804 0.950 . S
H775 C805 0.950 . S
C776 H758 0.951 . S
C776 C777 1.366 . S
C776 C778 1.388 . S
C777 C776 1.366 . S
C777 C781 1.385 . S
C778 H759 0.951 . S
C778 C776 1.388 . S
C778 C779 1.366 . S
C779 C778 1.366 . S
C779 C780 1.414 . S
C779 C782 1.499 . S
C780 H760 0.950 . S
C780 C779 1.414 . S
C780 C781 1.374 . S
C781 H761 0.950 . S
C781 C777 1.385 . S
C781 C780 1.374 . S
C782 C779 1.499 . S
C782 C783 1.373 . S
C782 C784 1.389 . S
C783 H762 0.950 . S
C783 C782 1.373 . S
C783 C799 1.377 . S
C784 C782 1.389 . S
C784 C785 1.524 . S
C784 C798 1.377 . S
C785 C784 1.524 . S
C785 C786 1.397 . S
C785 C790 1.363 . S
C786 H763 0.950 . S
C786 C785 1.397 . S
C786 C787 1.334 . S
C787 H764 0.950 . S
C787 C786 1.334 . S
C787 C788 1.287 . S
C788 C787 1.287 . S
C788 C789 1.524 . S
C788 H807 0.913 . S
C789 H765 0.950 . S
C789 C788 1.524 . S
C789 C790 1.415 . S
C790 H766 0.950 . S
C790 C785 1.363 . S
C790 C789 1.415 . S
C791 H767 0.951 . S
C791 C792 1.366 . S
C791 C793 1.388 . S
C792 C791 1.366 . S
C792 C796 1.385 . S
C793 H768 0.951 . S
C793 C791 1.388 . S
C793 C794 1.366 . S
C794 C793 1.366 . S
C794 C795 1.414 . S
C794 C797 1.499 . S
C795 H769 0.950 . S
C795 C794 1.414 . S
C795 C796 1.374 . S
C796 H770 0.950 . S
C796 C792 1.385 . S
C796 C795 1.374 . S
C797 C794 1.499 . S
C797 C798 1.373 . S
C797 C799 1.389 . S
C798 H771 0.950 . S
C798 C784 1.377 . S
C798 C797 1.373 . S
C799 C783 1.377 . S
C799 C797 1.389 . S
C799 C800 1.524 . S
C800 C799 1.524 . S
C800 C801 1.397 . S
C800 C805 1.363 . S
C801 H772 0.950 . S
C801 C800 1.397 . S
C801 C802 1.334 . S
C802 H773 0.950 . S
C802 C801 1.334 . S
C802 C803 1.287 . S
C803 C802 1.287 . S
C803 C804 1.524 . S
C803 H806 0.999 . S
C804 H774 0.950 . S
C804 C803 1.524 . S
C804 C805 1.415 . S
C805 H775 0.950 . S
C805 C800 1.363 . S
C805 C804 1.415 . S
H806 C803 0.999 . S
H807 C788 0.913 . S
H808 C826 0.951 . S
H809 C828 0.951 . S
H810 C830 0.950 . S
H811 C831 0.950 . S
H812 C833 0.950 . S
H813 C836 0.950 . S
H814 C837 0.950 . S
H815 C839 0.950 . S
H816 C840 0.950 . S
H817 C841 0.951 . S
H818 C843 0.951 . S
H819 C845 0.950 . S
H820 C846 0.950 . S
H821 C848 0.950 . S
H822 C851 0.950 . S
H823 C852 0.950 . S
H824 C854 0.950 . S
H825 C855 0.950 . S
C826 H808 0.951 . S
C826 C827 1.366 . S
C826 C828 1.388 . S
C827 C826 1.366 . S
C827 C831 1.385 . S
C828 H809 0.951 . S
C828 C826 1.388 . S
C828 C829 1.366 . S
C829 C828 1.366 . S
C829 C830 1.414 . S
C829 C832 1.499 . S
C830 H810 0.950 . S
C830 C829 1.414 . S
C830 C831 1.374 . S
C831 H811 0.950 . S
C831 C827 1.385 . S
C831 C830 1.374 . S
C832 C829 1.499 . S
C832 C833 1.373 . S
C832 C834 1.389 . S
C833 H812 0.950 . S
C833 C832 1.373 . S
C833 C849 1.377 . S
C834 C832 1.389 . S
C834 C835 1.524 . S
C834 C848 1.377 . S
C835 C834 1.524 . S
C835 C836 1.397 . S
C835 C840 1.363 . S
C836 H813 0.950 . S
C836 C835 1.397 . S
C836 C837 1.334 . S
C837 H814 0.950 . S
C837 C836 1.334 . S
C837 C838 1.287 . S
C838 C837 1.287 . S
C838 C839 1.524 . S
C838 H857 0.913 . S
C839 H815 0.950 . S
C839 C838 1.524 . S
C839 C840 1.415 . S
C840 H816 0.950 . S
C840 C835 1.363 . S
C840 C839 1.415 . S
C841 H817 0.951 . S
C841 C842 1.366 . S
C841 C843 1.388 . S
C842 C841 1.366 . S
C842 C846 1.385 . S
C843 H818 0.951 . S
C843 C841 1.388 . S
C843 C844 1.366 . S
C844 C843 1.366 . S
C844 C845 1.414 . S
C844 C847 1.499 . S
C845 H819 0.950 . S
C845 C844 1.414 . S
C845 C846 1.374 . S
C846 H820 0.950 . S
C846 C842 1.385 . S
C846 C845 1.374 . S
C847 C844 1.499 . S
C847 C848 1.373 . S
C847 C849 1.389 . S
C848 H821 0.950 . S
C848 C834 1.377 . S
C848 C847 1.373 . S
C849 C833 1.377 . S
C849 C847 1.389 . S
C849 C850 1.524 . S
C850 C849 1.524 . S
C850 C851 1.397 . S
C850 C855 1.363 . S
C851 H822 0.950 . S
C851 C850 1.397 . S
C851 C852 1.334 . S
C852 H823 0.950 . S
C852 C851 1.334 . S
C852 C853 1.287 . S
C853 C852 1.287 . S
C853 C854 1.524 . S
C853 H856 0.999 . S
C854 H824 0.950 . S
C854 C853 1.524 . S
C854 C855 1.415 . S
C855 H825 0.950 . S
C855 C850 1.363 . S
C855 C854 1.415 . S
H856 C853 0.999 . S
H857 C838 0.913 . S
H858 C876 0.951 . S
H859 C878 0.951 . S
H860 C880 0.950 . S
H861 C881 0.950 . S
H862 C883 0.950 . S
H863 C886 0.950 . S
H864 C887 0.950 . S
H865 C889 0.950 . S
H866 C890 0.950 . S
H867 C891 0.951 . S
H868 C893 0.951 . S
H869 C895 0.950 . S
H870 C896 0.950 . S
H871 C898 0.950 . S
H872 C901 0.950 . S
H873 C902 0.950 . S
H874 C904 0.950 . S
H875 C905 0.950 . S
C876 H858 0.951 . S
C876 C877 1.366 . S
C876 C878 1.388 . S
C877 C876 1.366 . S
C877 C881 1.385 . S
C878 H859 0.951 . S
C878 C876 1.388 . S
C878 C879 1.366 . S
C879 C878 1.366 . S
C879 C880 1.414 . S
C879 C882 1.499 . S
C880 H860 0.950 . S
C880 C879 1.414 . S
C880 C881 1.374 . S
C881 H861 0.950 . S
C881 C877 1.385 . S
C881 C880 1.374 . S
C882 C879 1.499 . S
C882 C883 1.373 . S
C882 C884 1.389 . S
C883 H862 0.950 . S
C883 C882 1.373 . S
C883 C899 1.377 . S
C884 C882 1.389 . S
C884 C885 1.524 . S
C884 C898 1.377 . S
C885 C884 1.524 . S
C885 C886 1.397 . S
C885 C890 1.363 . S
C886 H863 0.950 . S
C886 C885 1.397 . S
C886 C887 1.334 . S
C887 H864 0.950 . S
C887 C886 1.334 . S
C887 C888 1.287 . S
C888 C887 1.287 . S
C888 C889 1.524 . S
C888 H907 0.913 . S
C889 H865 0.950 . S
C889 C888 1.524 . S
C889 C890 1.415 . S
C890 H866 0.950 . S
C890 C885 1.363 . S
C890 C889 1.415 . S
C891 H867 0.951 . S
C891 C892 1.366 . S
C891 C893 1.388 . S
C892 C891 1.366 . S
C892 C896 1.385 . S
C893 H868 0.951 . S
C893 C891 1.388 . S
C893 C894 1.366 . S
C894 C893 1.366 . S
C894 C895 1.414 . S
C894 C897 1.499 . S
C895 H869 0.950 . S
C895 C894 1.414 . S
C895 C896 1.374 . S
C896 H870 0.950 . S
C896 C892 1.385 . S
C896 C895 1.374 . S
C897 C894 1.499 . S
C897 C898 1.373 . S
C897 C899 1.389 . S
C898 H871 0.950 . S
C898 C884 1.377 . S
C898 C897 1.373 . S
C899 C883 1.377 . S
C899 C897 1.389 . S
C899 C900 1.524 . S
C900 C899 1.524 . S
C900 C901 1.397 . S
C900 C905 1.363 . S
C901 H872 0.950 . S
C901 C900 1.397 . S
C901 C902 1.334 . S
C902 H873 0.950 . S
C902 C901 1.334 . S
C902 C903 1.287 . S
C903 C902 1.287 . S
C903 C904 1.524 . S
C903 H906 0.999 . S
C904 H874 0.950 . S
C904 C903 1.524 . S
C904 C905 1.415 . S
C905 H875 0.950 . S
C905 C900 1.363 . S
C905 C904 1.415 . S
H906 C903 0.999 . S
H907 C888 0.913 . S
H908 C926 0.951 . S
H909 C928 0.951 . S
H910 C930 0.950 . S
H911 C931 0.950 . S
H912 C933 0.950 . S
H913 C936 0.950 . S
H914 C937 0.950 . S
H915 C939 0.950 . S
H916 C940 0.950 . S
H917 C941 0.951 . S
H918 C943 0.951 . S
H919 C945 0.950 . S
H920 C946 0.950 . S
H921 C948 0.950 . S
H922 C951 0.950 . S
H923 C952 0.950 . S
H924 C954 0.950 . S
H925 C955 0.950 . S
C926 H908 0.951 . S
C926 C927 1.366 . S
C926 C928 1.388 . S
C927 C926 1.366 . S
C927 C931 1.385 . S
C928 H909 0.951 . S
C928 C926 1.388 . S
C928 C929 1.366 . S
C929 C928 1.366 . S
C929 C930 1.414 . S
C929 C932 1.499 . S
C930 H910 0.950 . S
C930 C929 1.414 . S
C930 C931 1.374 . S
C931 H911 0.950 . S
C931 C927 1.385 . S
C931 C930 1.374 . S
C932 C929 1.499 . S
C932 C933 1.373 . S
C932 C934 1.389 . S
C933 H912 0.950 . S
C933 C932 1.373 . S
C933 C949 1.377 . S
C934 C932 1.389 . S
C934 C935 1.524 . S
C934 C948 1.377 . S
C935 C934 1.524 . S
C935 C936 1.397 . S
C935 C940 1.363 . S
C936 H913 0.950 . S
C936 C935 1.397 . S
C936 C937 1.334 . S
C937 H914 0.950 . S
C937 C936 1.334 . S
C937 C938 1.287 . S
C938 C937 1.287 . S
C938 C939 1.524 . S
C938 H957 0.913 . S
C939 H915 0.950 . S
C939 C938 1.524 . S
C939 C940 1.415 . S
C940 H916 0.950 . S
C940 C935 1.363 . S
C940 C939 1.415 . S
C941 H917 0.951 . S
C941 C942 1.366 . S
C941 C943 1.388 . S
C942 C941 1.366 . S
C942 C946 1.385 . S
C943 H918 0.951 . S
C943 C941 1.388 . S
C943 C944 1.366 . S
C944 C943 1.366 . S
C944 C945 1.414 . S
C944 C947 1.499 . S
C945 H919 0.950 . S
C945 C944 1.414 . S
C945 C946 1.374 . S
C946 H920 0.950 . S
C946 C942 1.385 . S
C946 C945 1.374 . S
C947 C944 1.499 . S
C947 C948 1.373 . S
C947 C949 1.389 . S
C948 H921 0.950 . S
C948 C934 1.377 . S
C948 C947 1.373 . S
C949 C933 1.377 . S
C949 C947 1.389 . S
C949 C950 1.524 . S
C950 C949 1.524 . S
C950 C951 1.397 . S
C950 C955 1.363 . S
C951 H922 0.950 . S
C951 C950 1.397 . S
C951 C952 1.334 . S
C952 H923 0.950 . S
C952 C951 1.334 . S
C952 C953 1.287 . S
C953 C952 1.287 . S
C953 C954 1.524 . S
C953 H956 0.999 1_655 S
C954 H924 0.950 . S
C954 C953 1.524 . S
C954 C955 1.415 . S
C955 H925 0.950 . S
C955 C950 1.363 . S
C955 C954 1.415 . S
H956 C953 0.999 1_455 S
H957 C938 0.913 . S
H958 C976 0.951 . S
H959 C978 0.951 . S
H960 C980 0.950 . S
H961 C981 0.950 . S
H962 C983 0.950 . S
H963 C986 0.950 . S
H964 C987 0.950 . S
H965 C989 0.950 . S
H966 C990 0.950 . S
H967 C991 0.951 . S
H968 C993 0.951 . S
H969 C995 0.950 . S
H970 C996 0.950 . S
H971 C998 0.950 . S
H972 C1001 0.950 . S
H973 C1002 0.950 . S
H974 C1004 0.950 . S
H975 C1005 0.950 . S
C976 H958 0.951 . S
C976 C977 1.366 . S
C976 C978 1.388 . S
C977 C976 1.366 . S
C977 C981 1.385 . S
C978 H959 0.951 . S
C978 C976 1.388 . S
C978 C979 1.366 . S
C979 C978 1.366 . S
C979 C980 1.414 . S
C979 C982 1.499 . S
C980 H960 0.950 . S
C980 C979 1.414 . S
C980 C981 1.374 . S
C981 H961 0.950 . S
C981 C977 1.385 . S
C981 C980 1.374 . S
C982 C979 1.499 . S
C982 C983 1.373 . S
C982 C984 1.389 . S
C983 H962 0.950 . S
C983 C982 1.373 . S
C983 C999 1.377 . S
C984 C982 1.389 . S
C984 C985 1.524 . S
C984 C998 1.377 . S
C985 C984 1.524 . S
C985 C986 1.397 . S
C985 C990 1.363 . S
C986 H963 0.950 . S
C986 C985 1.397 . S
C986 C987 1.334 . S
C987 H964 0.950 . S
C987 C986 1.334 . S
C987 C988 1.287 . S
C988 C987 1.287 . S
C988 C989 1.524 . S
C988 H1007 0.913 . S
C989 H965 0.950 . S
C989 C988 1.524 . S
C989 C990 1.415 . S
C990 H966 0.950 . S
C990 C985 1.363 . S
C990 C989 1.415 . S
C991 H967 0.951 . S
C991 C992 1.366 . S
C991 C993 1.388 . S
C992 C991 1.366 . S
C992 C996 1.385 . S
C993 H968 0.951 . S
C993 C991 1.388 . S
C993 C994 1.366 . S
C994 C993 1.366 . S
C994 C995 1.414 . S
C994 C997 1.499 . S
C995 H969 0.950 . S
C995 C994 1.414 . S
C995 C996 1.374 . S
C996 H970 0.950 . S
C996 C992 1.385 . S
C996 C995 1.374 . S
C997 C994 1.499 . S
C997 C998 1.373 . S
C997 C999 1.389 . S
C998 H971 0.950 . S
C998 C984 1.377 . S
C998 C997 1.373 . S
C999 C983 1.377 . S
C999 C997 1.389 . S
C999 C1000 1.524 . S
C1000 C999 1.524 . S
C1000 C1001 1.397 . S
C1000 C1005 1.363 . S
C1001 H972 0.950 . S
C1001 C1000 1.397 . S
C1001 C1002 1.334 . S
C1002 H973 0.950 . S
C1002 C1001 1.334 . S
C1002 C1003 1.287 . S
C1003 C1002 1.287 . S
C1003 C1004 1.524 . S
C1003 H1006 0.999 . S
C1004 H974 0.950 . S
C1004 C1003 1.524 . S
C1004 C1005 1.415 . S
C1005 H975 0.950 . S
C1005 C1000 1.363 . S
C1005 C1004 1.415 . S
H1006 C1003 0.999 . S
H1007 C988 0.913 . S
H1008 C1026 0.951 . S
H1009 C1028 0.951 . S
H1010 C1030 0.950 . S
H1011 C1031 0.950 . S
H1012 C1033 0.950 . S
H1013 C1036 0.950 . S
H1014 C1037 0.950 . S
H1015 C1039 0.950 . S
H1016 C1040 0.950 . S
H1017 C1041 0.951 . S
H1018 C1043 0.951 . S
H1019 C1045 0.950 . S
H1020 C1046 0.950 . S
H1021 C1048 0.950 . S
H1022 C1051 0.950 . S
H1023 C1052 0.950 . S
H1024 C1054 0.950 . S
H1025 C1055 0.950 . S
C1026 H1008 0.951 . S
C1026 C1027 1.366 . S
C1026 C1028 1.388 . S
C1027 C1026 1.366 . S
C1027 C1031 1.385 . S
C1028 H1009 0.951 . S
C1028 C1026 1.388 . S
C1028 C1029 1.366 . S
C1029 C1028 1.366 . S
C1029 C1030 1.414 . S
C1029 C1032 1.499 . S
C1030 H1010 0.950 . S
C1030 C1029 1.414 . S
C1030 C1031 1.374 . S
C1031 H1011 0.950 . S
C1031 C1027 1.385 . S
C1031 C1030 1.374 . S
C1032 C1029 1.499 . S
C1032 C1033 1.373 . S
C1032 C1034 1.389 . S
C1033 H1012 0.950 . S
C1033 C1032 1.373 . S
C1033 C1049 1.377 . S
C1034 C1032 1.389 . S
C1034 C1035 1.524 . S
C1034 C1048 1.377 . S
C1035 C1034 1.524 . S
C1035 C1036 1.397 . S
C1035 C1040 1.363 . S
C1036 H1013 0.950 . S
C1036 C1035 1.397 . S
C1036 C1037 1.334 . S
C1037 H1014 0.950 . S
C1037 C1036 1.334 . S
C1037 C1038 1.287 . S
C1038 C1037 1.287 . S
C1038 C1039 1.524 . S
C1038 H1057 0.913 . S
C1039 H1015 0.950 . S
C1039 C1038 1.524 . S
C1039 C1040 1.415 . S
C1040 H1016 0.950 . S
C1040 C1035 1.363 . S
C1040 C1039 1.415 . S
C1041 H1017 0.951 . S
C1041 C1042 1.366 . S
C1041 C1043 1.388 . S
C1042 C1041 1.366 . S
C1042 C1046 1.385 . S
C1043 H1018 0.951 . S
C1043 C1041 1.388 . S
C1043 C1044 1.366 . S
C1044 C1043 1.366 . S
C1044 C1045 1.414 . S
C1044 C1047 1.499 . S
C1045 H1019 0.950 . S
C1045 C1044 1.414 . S
C1045 C1046 1.374 . S
C1046 H1020 0.950 . S
C1046 C1042 1.385 . S
C1046 C1045 1.374 . S
C1047 C1044 1.499 . S
C1047 C1048 1.373 . S
C1047 C1049 1.389 . S
C1048 H1021 0.950 . S
C1048 C1034 1.377 . S
C1048 C1047 1.373 . S
C1049 C1033 1.377 . S
C1049 C1047 1.389 . S
C1049 C1050 1.524 . S
C1050 C1049 1.524 . S
C1050 C1051 1.397 . S
C1050 C1055 1.363 . S
C1051 H1022 0.950 . S
C1051 C1050 1.397 . S
C1051 C1052 1.334 . S
C1052 H1023 0.950 . S
C1052 C1051 1.334 . S
C1052 C1053 1.287 . S
C1053 C1052 1.287 . S
C1053 C1054 1.524 . S
C1053 H1056 0.999 . S
C1054 H1024 0.950 . S
C1054 C1053 1.524 . S
C1054 C1055 1.415 . S
C1055 H1025 0.950 . S
C1055 C1050 1.363 . S
C1055 C1054 1.415 . S
H1056 C1053 0.999 . S
H1057 C1038 0.913 . S
H1058 C1076 0.951 . S
H1059 C1078 0.951 . S
H1060 C1080 0.950 . S
H1061 C1081 0.950 . S
H1062 C1083 0.950 . S
H1063 C1086 0.950 . S
H1064 C1087 0.950 . S
H1065 C1089 0.950 . S
H1066 C1090 0.950 . S
H1067 C1091 0.951 . S
H1068 C1093 0.951 . S
H1069 C1095 0.950 . S
H1070 C1096 0.950 . S
H1071 C1098 0.950 . S
H1072 C1101 0.950 . S
H1073 C1102 0.950 . S
H1074 C1104 0.950 . S
H1075 C1105 0.950 . S
C1076 H1058 0.951 . S
C1076 C1077 1.366 . S
C1076 C1078 1.388 . S
C1077 C1076 1.366 . S
C1077 C1081 1.385 . S
C1078 H1059 0.951 . S
C1078 C1076 1.388 . S
C1078 C1079 1.366 . S
C1079 C1078 1.366 . S
C1079 C1080 1.414 . S
C1079 C1082 1.499 . S
C1080 H1060 0.950 . S
C1080 C1079 1.414 . S
C1080 C1081 1.374 . S
C1081 H1061 0.950 . S
C1081 C1077 1.385 . S
C1081 C1080 1.374 . S
C1082 C1079 1.499 . S
C1082 C1083 1.373 . S
C1082 C1084 1.389 . S
C1083 H1062 0.950 . S
C1083 C1082 1.373 . S
C1083 C1099 1.377 . S
C1084 C1082 1.389 . S
C1084 C1085 1.524 . S
C1084 C1098 1.377 . S
C1085 C1084 1.524 . S
C1085 C1086 1.397 . S
C1085 C1090 1.363 . S
C1086 H1063 0.950 . S
C1086 C1085 1.397 . S
C1086 C1087 1.334 . S
C1087 H1064 0.950 . S
C1087 C1086 1.334 . S
C1087 C1088 1.287 . S
C1088 C1087 1.287 . S
C1088 C1089 1.524 . S
C1088 H1107 0.913 . S
C1089 H1065 0.950 . S
C1089 C1088 1.524 . S
C1089 C1090 1.415 . S
C1090 H1066 0.950 . S
C1090 C1085 1.363 . S
C1090 C1089 1.415 . S
C1091 H1067 0.951 . S
C1091 C1092 1.366 . S
C1091 C1093 1.388 . S
C1092 C1091 1.366 . S
C1092 C1096 1.385 . S
C1093 H1068 0.951 . S
C1093 C1091 1.388 . S
C1093 C1094 1.366 . S
C1094 C1093 1.366 . S
C1094 C1095 1.414 . S
C1094 C1097 1.499 . S
C1095 H1069 0.950 . S
C1095 C1094 1.414 . S
C1095 C1096 1.374 . S
C1096 H1070 0.950 . S
C1096 C1092 1.385 . S
C1096 C1095 1.374 . S
C1097 C1094 1.499 . S
C1097 C1098 1.373 . S
C1097 C1099 1.389 . S
C1098 H1071 0.950 . S
C1098 C1084 1.377 . S
C1098 C1097 1.373 . S
C1099 C1083 1.377 . S
C1099 C1097 1.389 . S
C1099 C1100 1.524 . S
C1100 C1099 1.524 . S
C1100 C1101 1.397 . S
C1100 C1105 1.363 . S
C1101 H1072 0.950 . S
C1101 C1100 1.397 . S
C1101 C1102 1.334 . S
C1102 H1073 0.950 . S
C1102 C1101 1.334 . S
C1102 C1103 1.287 . S
C1103 C1102 1.287 . S
C1103 C1104 1.524 . S
C1103 H1106 0.999 . S
C1104 H1074 0.950 . S
C1104 C1103 1.524 . S
C1104 C1105 1.415 . S
C1105 H1075 0.950 . S
C1105 C1100 1.363 . S
C1105 C1104 1.415 . S
H1106 C1103 0.999 . S
H1107 C1088 0.913 . S
H1108 C1126 0.951 . S
H1109 C1128 0.951 . S
H1110 C1130 0.950 . S
H1111 C1131 0.950 . S
H1112 C1133 0.950 . S
H1113 C1136 0.950 . S
H1114 C1137 0.950 . S
H1115 C1139 0.950 . S
H1116 C1140 0.950 . S
H1117 C1141 0.951 . S
H1118 C1143 0.951 . S
H1119 C1145 0.950 . S
H1120 C1146 0.950 . S
H1121 C1148 0.950 . S
H1122 C1151 0.950 . S
H1123 C1152 0.950 . S
H1124 C1154 0.950 . S
H1125 C1155 0.950 . S
C1126 H1108 0.951 . S
C1126 C1127 1.366 . S
C1126 C1128 1.388 . S
C1127 C1126 1.366 . S
C1127 C1131 1.385 . S
C1128 H1109 0.951 . S
C1128 C1126 1.388 . S
C1128 C1129 1.366 . S
C1129 C1128 1.366 . S
C1129 C1130 1.414 . S
C1129 C1132 1.499 . S
C1130 H1110 0.950 . S
C1130 C1129 1.414 . S
C1130 C1131 1.374 . S
C1131 H1111 0.950 . S
C1131 C1127 1.385 . S
C1131 C1130 1.374 . S
C1132 C1129 1.499 . S
C1132 C1133 1.373 . S
C1132 C1134 1.389 . S
C1133 H1112 0.950 . S
C1133 C1132 1.373 . S
C1133 C1149 1.377 . S
C1134 C1132 1.389 . S
C1134 C1135 1.524 . S
C1134 C1148 1.377 . S
C1135 C1134 1.524 . S
C1135 C1136 1.397 . S
C1135 C1140 1.363 . S
C1136 H1113 0.950 . S
C1136 C1135 1.397 . S
C1136 C1137 1.334 . S
C1137 H1114 0.950 . S
C1137 C1136 1.334 . S
C1137 C1138 1.287 . S
C1138 C1137 1.287 . S
C1138 C1139 1.524 . S
C1138 H1157 0.913 . S
C1139 H1115 0.950 . S
C1139 C1138 1.524 . S
C1139 C1140 1.415 . S
C1140 H1116 0.950 . S
C1140 C1135 1.363 . S
C1140 C1139 1.415 . S
C1141 H1117 0.951 . S
C1141 C1142 1.366 . S
C1141 C1143 1.388 . S
C1142 C1141 1.366 . S
C1142 C1146 1.385 . S
C1143 H1118 0.951 . S
C1143 C1141 1.388 . S
C1143 C1144 1.366 . S
C1144 C1143 1.366 . S
C1144 C1145 1.414 . S
C1144 C1147 1.499 . S
C1145 H1119 0.950 . S
C1145 C1144 1.414 . S
C1145 C1146 1.374 . S
C1146 H1120 0.950 . S
C1146 C1142 1.385 . S
C1146 C1145 1.374 . S
C1147 C1144 1.499 . S
C1147 C1148 1.373 . S
C1147 C1149 1.389 . S
C1148 H1121 0.950 . S
C1148 C1134 1.377 . S
C1148 C1147 1.373 . S
C1149 C1133 1.377 . S
C1149 C1147 1.389 . S
C1149 C1150 1.524 . S
C1150 C1149 1.524 . S
C1150 C1151 1.397 . S
C1150 C1155 1.363 . S
C1151 H1122 0.950 . S
C1151 C1150 1.397 . S
C1151 C1152 1.334 . S
C1152 H1123 0.950 . S
C1152 C1151 1.334 . S
C1152 C1153 1.287 . S
C1153 C1152 1.287 . S
C1153 C1154 1.524 . S
C1153 H1156 0.999 . S
C1154 H1124 0.950 . S
C1154 C1153 1.524 . S
C1154 C1155 1.415 . S
C1155 H1125 0.950 . S
C1155 C1150 1.363 . S
C1155 C1154 1.415 . S
H1156 C1153 0.999 . S
H1157 C1138 0.913 . S
H1158 C1176 0.951 . S
H1159 C1178 0.951 . S
H1160 C1180 0.950 . S
H1161 C1181 0.950 . S
H1162 C1183 0.950 . S
H1163 C1186 0.950 . S
H1164 C1187 0.950 . S
H1165 C1189 0.950 . S
H1166 C1190 0.950 . S
H1167 C1191 0.951 . S
H1168 C1193 0.951 . S
H1169 C1195 0.950 . S
H1170 C1196 0.950 . S
H1171 C1198 0.950 . S
H1172 C1201 0.950 . S
H1173 C1202 0.950 . S
H1174 C1204 0.950 . S
H1175 C1205 0.950 . S
C1176 H1158 0.951 . S
C1176 C1177 1.366 . S
C1176 C1178 1.388 . S
C1177 C1176 1.366 . S
C1177 C1181 1.385 . S
C1178 H1159 0.951 . S
C1178 C1176 1.388 . S
C1178 C1179 1.366 . S
C1179 C1178 1.366 . S
C1179 C1180 1.414 . S
C1179 C1182 1.499 . S
C1180 H1160 0.950 . S
C1180 C1179 1.414 . S
C1180 C1181 1.374 . S
C1181 H1161 0.950 . S
C1181 C1177 1.385 . S
C1181 C1180 1.374 . S
C1182 C1179 1.499 . S
C1182 C1183 1.373 . S
C1182 C1184 1.389 . S
C1183 H1162 0.950 . S
C1183 C1182 1.373 . S
C1183 C1199 1.377 . S
C1184 C1182 1.389 . S
C1184 C1185 1.524 . S
C1184 C1198 1.377 . S
C1185 C1184 1.524 . S
C1185 C1186 1.397 . S
C1185 C1190 1.363 . S
C1186 H1163 0.950 . S
C1186 C1185 1.397 . S
C1186 C1187 1.334 . S
C1187 H1164 0.950 . S
C1187 C1186 1.334 . S
C1187 C1188 1.287 . S
C1188 C1187 1.287 . S
C1188 C1189 1.524 . S
C1188 H1207 0.913 . S
C1189 H1165 0.950 . S
C1189 C1188 1.524 . S
C1189 C1190 1.415 . S
C1190 H1166 0.950 . S
C1190 C1185 1.363 . S
C1190 C1189 1.415 . S
C1191 H1167 0.951 . S
C1191 C1192 1.366 . S
C1191 C1193 1.388 . S
C1192 C1191 1.366 . S
C1192 C1196 1.385 . S
C1193 H1168 0.951 . S
C1193 C1191 1.388 . S
C1193 C1194 1.366 . S
C1194 C1193 1.366 . S
C1194 C1195 1.414 . S
C1194 C1197 1.499 . S
C1195 H1169 0.950 . S
C1195 C1194 1.414 . S
C1195 C1196 1.374 . S
C1196 H1170 0.950 . S
C1196 C1192 1.385 . S
C1196 C1195 1.374 . S
C1197 C1194 1.499 . S
C1197 C1198 1.373 . S
C1197 C1199 1.389 . S
C1198 H1171 0.950 . S
C1198 C1184 1.377 . S
C1198 C1197 1.373 . S
C1199 C1183 1.377 . S
C1199 C1197 1.389 . S
C1199 C1200 1.524 . S
C1200 C1199 1.524 . S
C1200 C1201 1.397 . S
C1200 C1205 1.363 . S
C1201 H1172 0.950 . S
C1201 C1200 1.397 . S
C1201 C1202 1.334 . S
C1202 H1173 0.950 . S
C1202 C1201 1.334 . S
C1202 C1203 1.287 . S
C1203 C1202 1.287 . S
C1203 C1204 1.524 . S
C1203 H1206 0.999 . S
C1204 H1174 0.950 . S
C1204 C1203 1.524 . S
C1204 C1205 1.415 . S
C1205 H1175 0.950 . S
C1205 C1200 1.363 . S
C1205 C1204 1.415 . S
H1206 C1203 0.999 . S
H1207 C1188 0.913 . S
H1208 C1226 0.951 . S
H1209 C1228 0.951 . S
H1210 C1230 0.950 . S
H1211 C1231 0.950 . S
H1212 C1233 0.950 . S
H1213 C1236 0.950 . S
H1214 C1237 0.950 . S
H1215 C1239 0.950 . S
H1216 C1240 0.950 . S
H1217 C1241 0.951 . S
H1218 C1243 0.951 . S
H1219 C1245 0.950 . S
H1220 C1246 0.950 . S
H1221 C1248 0.950 . S
H1222 C1251 0.950 . S
H1223 C1252 0.950 . S
H1224 C1254 0.950 . S
H1225 C1255 0.950 . S
C1226 H1208 0.951 . S
C1226 C1227 1.366 . S
C1226 C1228 1.388 . S
C1227 C1226 1.366 . S
C1227 C1231 1.385 . S
C1228 H1209 0.951 . S
C1228 C1226 1.388 . S
C1228 C1229 1.366 . S
C1229 C1228 1.366 . S
C1229 C1230 1.414 . S
C1229 C1232 1.499 . S
C1230 H1210 0.950 . S
C1230 C1229 1.414 . S
C1230 C1231 1.374 . S
C1231 H1211 0.950 . S
C1231 C1227 1.385 . S
C1231 C1230 1.374 . S
C1232 C1229 1.499 . S
C1232 C1233 1.373 . S
C1232 C1234 1.389 . S
C1233 H1212 0.950 . S
C1233 C1232 1.373 . S
C1233 C1249 1.377 . S
C1234 C1232 1.389 . S
C1234 C1235 1.524 . S
C1234 C1248 1.377 . S
C1235 C1234 1.524 . S
C1235 C1236 1.397 . S
C1235 C1240 1.363 . S
C1236 H1213 0.950 . S
C1236 C1235 1.397 . S
C1236 C1237 1.334 . S
C1237 H1214 0.950 . S
C1237 C1236 1.334 . S
C1237 C1238 1.287 . S
C1238 C1237 1.287 . S
C1238 C1239 1.524 . S
C1238 H1257 0.913 . S
C1239 H1215 0.950 . S
C1239 C1238 1.524 . S
C1239 C1240 1.415 . S
C1240 H1216 0.950 . S
C1240 C1235 1.363 . S
C1240 C1239 1.415 . S
C1241 H1217 0.951 . S
C1241 C1242 1.366 . S
C1241 C1243 1.388 . S
C1242 C1241 1.366 . S
C1242 C1246 1.385 . S
C1243 H1218 0.951 . S
C1243 C1241 1.388 . S
C1243 C1244 1.366 . S
C1244 C1243 1.366 . S
C1244 C1245 1.414 . S
C1244 C1247 1.499 . S
C1245 H1219 0.950 . S
C1245 C1244 1.414 . S
C1245 C1246 1.374 . S
C1246 H1220 0.950 . S
C1246 C1242 1.385 . S
C1246 C1245 1.374 . S
C1247 C1244 1.499 . S
C1247 C1248 1.373 . S
C1247 C1249 1.389 . S
C1248 H1221 0.950 . S
C1248 C1234 1.377 . S
C1248 C1247 1.373 . S
C1249 C1233 1.377 . S
C1249 C1247 1.389 . S
C1249 C1250 1.524 . S
C1250 C1249 1.524 . S
C1250 C1251 1.397 . S
C1250 C1255 1.363 . S
C1251 H1222 0.950 . S
C1251 C1250 1.397 . S
C1251 C1252 1.334 . S
C1252 H1223 0.950 . S
C1252 C1251 1.334 . S
C1252 C1253 1.287 . S
C1253 C1252 1.287 . S
C1253 C1254 1.524 . S
C1253 H1256 0.999 . S
C1254 H1224 0.950 . S
C1254 C1253 1.524 . S
C1254 C1255 1.415 . S
C1255 H1225 0.950 . S
C1255 C1250 1.363 . S
C1255 C1254 1.415 . S
H1256 C1253 0.999 . S
H1257 C1238 0.913 . S
H1258 C1276 0.951 . S
H1259 C1278 0.951 . S
H1260 C1280 0.950 . S
H1261 C1281 0.950 . S
H1262 C1283 0.950 . S
H1263 C1286 0.950 . S
H1264 C1287 0.950 . S
H1265 C1289 0.950 . S
H1266 C1290 0.950 . S
H1267 C1291 0.951 . S
H1268 C1293 0.951 . S
H1269 C1295 0.950 . S
H1270 C1296 0.950 . S
H1271 C1298 0.950 . S
H1272 C1301 0.950 . S
H1273 C1302 0.950 . S
H1274 C1304 0.950 . S
H1275 C1305 0.950 . S
C1276 H1258 0.951 . S
C1276 C1277 1.366 . S
C1276 C1278 1.388 . S
C1277 C1276 1.366 . S
C1277 C1281 1.385 . S
C1278 H1259 0.951 . S
C1278 C1276 1.388 . S
C1278 C1279 1.366 . S
C1279 C1278 1.366 . S
C1279 C1280 1.414 . S
C1279 C1282 1.499 . S
C1280 H1260 0.950 . S
C1280 C1279 1.414 . S
C1280 C1281 1.374 . S
C1281 H1261 0.950 . S
C1281 C1277 1.385 . S
C1281 C1280 1.374 . S
C1282 C1279 1.499 . S
C1282 C1283 1.373 . S
C1282 C1284 1.389 . S
C1283 H1262 0.950 . S
C1283 C1282 1.373 . S
C1283 C1299 1.377 . S
C1284 C1282 1.389 . S
C1284 C1285 1.524 . S
C1284 C1298 1.377 . S
C1285 C1284 1.524 . S
C1285 C1286 1.397 . S
C1285 C1290 1.363 . S
C1286 H1263 0.950 . S
C1286 C1285 1.397 . S
C1286 C1287 1.334 . S
C1287 H1264 0.950 . S
C1287 C1286 1.334 . S
C1287 C1288 1.287 . S
C1288 C1287 1.287 . S
C1288 C1289 1.524 . S
C1288 H1307 0.913 . S
C1289 H1265 0.950 . S
C1289 C1288 1.524 . S
C1289 C1290 1.415 . S
C1290 H1266 0.950 . S
C1290 C1285 1.363 . S
C1290 C1289 1.415 . S
C1291 H1267 0.951 . S
C1291 C1292 1.366 . S
C1291 C1293 1.388 . S
C1292 C1291 1.366 . S
C1292 C1296 1.385 . S
C1293 H1268 0.951 . S
C1293 C1291 1.388 . S
C1293 C1294 1.366 . S
C1294 C1293 1.366 . S
C1294 C1295 1.414 . S
C1294 C1297 1.499 . S
C1295 H1269 0.950 . S
C1295 C1294 1.414 . S
C1295 C1296 1.374 . S
C1296 H1270 0.950 . S
C1296 C1292 1.385 . S
C1296 C1295 1.374 . S
C1297 C1294 1.499 . S
C1297 C1298 1.373 . S
C1297 C1299 1.389 . S
C1298 H1271 0.950 . S
C1298 C1284 1.377 . S
C1298 C1297 1.373 . S
C1299 C1283 1.377 . S
C1299 C1297 1.389 . S
C1299 C1300 1.524 . S
C1300 C1299 1.524 . S
C1300 C1301 1.397 . S
C1300 C1305 1.363 . S
C1301 H1272 0.950 . S
C1301 C1300 1.397 . S
C1301 C1302 1.334 . S
C1302 H1273 0.950 . S
C1302 C1301 1.334 . S
C1302 C1303 1.287 . S
C1303 C1302 1.287 . S
C1303 C1304 1.524 . S
C1303 H1306 0.999 . S
C1304 H1274 0.950 . S
C1304 C1303 1.524 . S
C1304 C1305 1.415 . S
C1305 H1275 0.950 . S
C1305 C1300 1.363 . S
C1305 C1304 1.415 . S
H1306 C1303 0.999 . S
H1307 C1288 0.913 . S
H1308 C1326 0.951 . S
H1309 C1328 0.951 . S
H1310 C1330 0.950 . S
H1311 C1331 0.950 . S
H1312 C1333 0.950 . S
H1313 C1336 0.950 . S
H1314 C1337 0.950 . S
H1315 C1339 0.950 . S
H1316 C1340 0.950 . S
H1317 C1341 0.951 . S
H1318 C1343 0.951 . S
H1319 C1345 0.950 . S
H1320 C1346 0.950 . S
H1321 C1348 0.950 . S
H1322 C1351 0.950 . S
H1323 C1352 0.950 . S
H1324 C1354 0.950 . S
H1325 C1355 0.950 . S
C1326 H1308 0.951 . S
C1326 C1327 1.366 . S
C1326 C1328 1.388 . S
C1327 C1326 1.366 . S
C1327 C1331 1.385 . S
C1328 H1309 0.951 . S
C1328 C1326 1.388 . S
C1328 C1329 1.366 . S
C1329 C1328 1.366 . S
C1329 C1330 1.414 . S
C1329 C1332 1.499 . S
C1330 H1310 0.950 . S
C1330 C1329 1.414 . S
C1330 C1331 1.374 . S
C1331 H1311 0.950 . S
C1331 C1327 1.385 . S
C1331 C1330 1.374 . S
C1332 C1329 1.499 . S
C1332 C1333 1.373 . S
C1332 C1334 1.389 . S
C1333 H1312 0.950 . S
C1333 C1332 1.373 . S
C1333 C1349 1.377 . S
C1334 C1332 1.389 . S
C1334 C1335 1.524 . S
C1334 C1348 1.377 . S
C1335 C1334 1.524 . S
C1335 C1336 1.397 . S
C1335 C1340 1.363 . S
C1336 H1313 0.950 . S
C1336 C1335 1.397 . S
C1336 C1337 1.334 . S
C1337 H1314 0.950 . S
C1337 C1336 1.334 . S
C1337 C1338 1.287 . S
C1338 C1337 1.287 . S
C1338 C1339 1.524 . S
C1338 H1357 0.913 . S
C1339 H1315 0.950 . S
C1339 C1338 1.524 . S
C1339 C1340 1.415 . S
C1340 H1316 0.950 . S
C1340 C1335 1.363 . S
C1340 C1339 1.415 . S
C1341 H1317 0.951 . S
C1341 C1342 1.366 . S
C1341 C1343 1.388 . S
C1342 C1341 1.366 . S
C1342 C1346 1.385 . S
C1343 H1318 0.951 . S
C1343 C1341 1.388 . S
C1343 C1344 1.366 . S
C1344 C1343 1.366 . S
C1344 C1345 1.414 . S
C1344 C1347 1.499 . S
C1345 H1319 0.950 . S
C1345 C1344 1.414 . S
C1345 C1346 1.374 . S
C1346 H1320 0.950 . S
C1346 C1342 1.385 . S
C1346 C1345 1.374 . S
C1347 C1344 1.499 . S
C1347 C1348 1.373 . S
C1347 C1349 1.389 . S
C1348 H1321 0.950 . S
C1348 C1334 1.377 . S
C1348 C1347 1.373 . S
C1349 C1333 1.377 . S
C1349 C1347 1.389 . S
C1349 C1350 1.524 . S
C1350 C1349 1.524 . S
C1350 C1351 1.397 . S
C1350 C1355 1.363 . S
C1351 H1322 0.950 . S
C1351 C1350 1.397 . S
C1351 C1352 1.334 . S
C1352 H1323 0.950 . S
C1352 C1351 1.334 . S
C1352 C1353 1.287 . S
C1353 C1352 1.287 . S
C1353 C1354 1.524 . S
C1353 H1356 0.999 1_455 S
C1354 H1324 0.950 . S
C1354 C1353 1.524 . S
C1354 C1355 1.415 . S
C1355 H1325 0.950 . S
C1355 C1350 1.363 . S
C1355 C1354 1.415 . S
H1356 C1353 0.999 1_655 S
H1357 C1338 0.913 . S
H1358 C1376 0.951 . S
H1359 C1378 0.951 . S
H1360 C1380 0.950 . S
H1361 C1381 0.950 . S
H1362 C1383 0.950 . S
H1363 C1386 0.950 . S
H1364 C1387 0.950 . S
H1365 C1389 0.950 . S
H1366 C1390 0.950 . S
H1367 C1391 0.951 . S
H1368 C1393 0.951 . S
H1369 C1395 0.950 . S
H1370 C1396 0.950 . S
H1371 C1398 0.950 . S
H1372 C1401 0.950 . S
H1373 C1402 0.950 . S
H1374 C1404 0.950 . S
H1375 C1405 0.950 . S
C1376 H1358 0.951 . S
C1376 C1377 1.366 . S
C1376 C1378 1.388 . S
C1377 C1376 1.366 . S
C1377 C1381 1.385 . S
C1378 H1359 0.951 . S
C1378 C1376 1.388 . S
C1378 C1379 1.366 . S
C1379 C1378 1.366 . S
C1379 C1380 1.414 . S
C1379 C1382 1.499 . S
C1380 H1360 0.950 . S
C1380 C1379 1.414 . S
C1380 C1381 1.374 . S
C1381 H1361 0.950 . S
C1381 C1377 1.385 . S
C1381 C1380 1.374 . S
C1382 C1379 1.499 . S
C1382 C1383 1.373 . S
C1382 C1384 1.389 . S
C1383 H1362 0.950 . S
C1383 C1382 1.373 . S
C1383 C1399 1.377 . S
C1384 C1382 1.389 . S
C1384 C1385 1.524 . S
C1384 C1398 1.377 . S
C1385 C1384 1.524 . S
C1385 C1386 1.397 . S
C1385 C1390 1.363 . S
C1386 H1363 0.950 . S
C1386 C1385 1.397 . S
C1386 C1387 1.334 . S
C1387 H1364 0.950 . S
C1387 C1386 1.334 . S
C1387 C1388 1.287 . S
C1388 C1387 1.287 . S
C1388 C1389 1.524 . S
C1388 H1407 0.913 . S
C1389 H1365 0.950 . S
C1389 C1388 1.524 . S
C1389 C1390 1.415 . S
C1390 H1366 0.950 . S
C1390 C1385 1.363 . S
C1390 C1389 1.415 . S
C1391 H1367 0.951 . S
C1391 C1392 1.366 . S
C1391 C1393 1.388 . S
C1392 C1391 1.366 . S
C1392 C1396 1.385 . S
C1393 H1368 0.951 . S
C1393 C1391 1.388 . S
C1393 C1394 1.366 . S
C1394 C1393 1.366 . S
C1394 C1395 1.414 . S
C1394 C1397 1.499 . S
C1395 H1369 0.950 . S
C1395 C1394 1.414 . S
C1395 C1396 1.374 . S
C1396 H1370 0.950 . S
C1396 C1392 1.385 . S
C1396 C1395 1.374 . S
C1397 C1394 1.499 . S
C1397 C1398 1.373 . S
C1397 C1399 1.389 . S
C1398 H1371 0.950 . S
C1398 C1384 1.377 . S
C1398 C1397 1.373 . S
C1399 C1383 1.377 . S
C1399 C1397 1.389 . S
C1399 C1400 1.524 . S
C1400 C1399 1.524 . S
C1400 C1401 1.397 . S
C1400 C1405 1.363 . S
C1401 H1372 0.950 . S
C1401 C1400 1.397 . S
C1401 C1402 1.334 . S
C1402 H1373 0.950 . S
C1402 C1401 1.334 . S
C1402 C1403 1.287 . S
C1403 C1402 1.287 . S
C1403 C1404 1.524 . S
C1403 H1406 0.999 . S
C1404 H1374 0.950 . S
C1404 C1403 1.524 . S
C1404 C1405 1.415 . S
C1405 H1375 0.950 . S
C1405 C1400 1.363 . S
C1405 C1404 1.415 . S
H1406 C1403 0.999 . S
H1407 C1388 0.913 . S
H1408 C1426 0.951 . S
H1409 C1428 0.951 . S
H1410 C1430 0.950 . S
H1411 C1431 0.950 . S
H1412 C1433 0.950 . S
H1413 C1436 0.950 . S
H1414 C1437 0.950 . S
H1415 C1439 0.950 . S
H1416 C1440 0.950 1_556 S
H1417 C1441 0.951 . S
H1418 C1443 0.951 . S
H1419 C1445 0.950 . S
H1420 C1446 0.950 . S
H1421 C1448 0.950 . S
H1422 C1451 0.950 . S
H1423 C1452 0.950 . S
H1424 C1454 0.950 . S
H1425 C1455 0.950 1_554 S
C1426 H1408 0.951 . S
C1426 C1427 1.366 . S
C1426 C1428 1.388 . S
C1427 C1426 1.366 . S
C1427 C1431 1.385 . S
C1428 H1409 0.951 . S
C1428 C1426 1.388 . S
C1428 C1429 1.366 . S
C1429 C1428 1.366 . S
C1429 C1430 1.414 . S
C1429 C1432 1.499 . S
C1430 H1410 0.950 . S
C1430 C1429 1.414 . S
C1430 C1431 1.374 . S
C1431 H1411 0.950 . S
C1431 C1427 1.385 . S
C1431 C1430 1.374 . S
C1432 C1429 1.499 . S
C1432 C1433 1.373 . S
C1432 C1434 1.389 . S
C1433 H1412 0.950 . S
C1433 C1432 1.373 . S
C1433 C1449 1.377 1_554 S
C1434 C1432 1.389 . S
C1434 C1435 1.524 . S
C1434 C1448 1.377 1_554 S
C1435 C1434 1.524 . S
C1435 C1436 1.397 . S
C1435 C1440 1.363 . S
C1436 H1413 0.950 . S
C1436 C1435 1.397 . S
C1436 C1437 1.334 . S
C1437 H1414 0.950 . S
C1437 C1436 1.334 . S
C1437 C1438 1.287 . S
C1438 C1437 1.287 . S
C1438 C1439 1.524 . S
C1438 H1457 0.913 . S
C1439 H1415 0.950 . S
C1439 C1438 1.524 . S
C1439 C1440 1.415 . S
C1440 H1416 0.950 1_554 S
C1440 C1435 1.363 . S
C1440 C1439 1.415 . S
C1441 H1417 0.951 . S
C1441 C1442 1.366 . S
C1441 C1443 1.388 . S
C1442 C1441 1.366 . S
C1442 C1446 1.385 . S
C1443 H1418 0.951 . S
C1443 C1441 1.388 . S
C1443 C1444 1.366 . S
C1444 C1443 1.366 . S
C1444 C1445 1.414 . S
C1444 C1447 1.499 . S
C1445 H1419 0.950 . S
C1445 C1444 1.414 . S
C1445 C1446 1.374 . S
C1446 H1420 0.950 . S
C1446 C1442 1.385 . S
C1446 C1445 1.374 . S
C1447 C1444 1.499 . S
C1447 C1448 1.373 . S
C1447 C1449 1.389 . S
C1448 H1421 0.950 . S
C1448 C1434 1.377 1_556 S
C1448 C1447 1.373 . S
C1449 C1433 1.377 1_556 S
C1449 C1447 1.389 . S
C1449 C1450 1.524 . S
C1450 C1449 1.524 . S
C1450 C1451 1.397 . S
C1450 C1455 1.363 . S
C1451 H1422 0.950 . S
C1451 C1450 1.397 . S
C1451 C1452 1.334 . S
C1452 H1423 0.950 . S
C1452 C1451 1.334 . S
C1452 C1453 1.287 . S
C1453 C1452 1.287 . S
C1453 C1454 1.524 . S
C1453 H1456 0.999 . S
C1454 H1424 0.950 . S
C1454 C1453 1.524 . S
C1454 C1455 1.415 . S
C1455 H1425 0.950 1_556 S
C1455 C1450 1.363 . S
C1455 C1454 1.415 . S
H1456 C1453 0.999 . S
H1457 C1438 0.913 . S
H1458 C1476 0.951 . S
H1459 C1478 0.951 . S
H1460 C1480 0.950 . S
H1461 C1481 0.950 . S
H1462 C1483 0.950 . S
H1463 C1486 0.950 . S
H1464 C1487 0.950 . S
H1465 C1489 0.950 . S
H1466 C1490 0.950 . S
H1467 C1491 0.951 . S
H1468 C1493 0.951 . S
H1469 C1495 0.950 . S
H1470 C1496 0.950 . S
H1471 C1498 0.950 . S
H1472 C1501 0.950 . S
H1473 C1502 0.950 . S
H1474 C1504 0.950 . S
H1475 C1505 0.950 . S
C1476 H1458 0.951 . S
C1476 C1477 1.366 . S
C1476 C1478 1.388 . S
C1477 C1476 1.366 . S
C1477 C1481 1.385 . S
C1478 H1459 0.951 . S
C1478 C1476 1.388 . S
C1478 C1479 1.366 . S
C1479 C1478 1.366 . S
C1479 C1480 1.414 . S
C1479 C1482 1.499 . S
C1480 H1460 0.950 . S
C1480 C1479 1.414 . S
C1480 C1481 1.374 . S
C1481 H1461 0.950 . S
C1481 C1477 1.385 . S
C1481 C1480 1.374 . S
C1482 C1479 1.499 . S
C1482 C1483 1.373 . S
C1482 C1484 1.389 . S
C1483 H1462 0.950 . S
C1483 C1482 1.373 . S
C1483 C1499 1.377 . S
C1484 C1482 1.389 . S
C1484 C1485 1.524 . S
C1484 C1498 1.377 . S
C1485 C1484 1.524 . S
C1485 C1486 1.397 . S
C1485 C1490 1.363 . S
C1486 H1463 0.950 . S
C1486 C1485 1.397 . S
C1486 C1487 1.334 . S
C1487 H1464 0.950 . S
C1487 C1486 1.334 . S
C1487 C1488 1.287 . S
C1488 C1487 1.287 . S
C1488 C1489 1.524 . S
C1488 H1507 0.913 . S
C1489 H1465 0.950 . S
C1489 C1488 1.524 . S
C1489 C1490 1.415 . S
C1490 H1466 0.950 . S
C1490 C1485 1.363 . S
C1490 C1489 1.415 . S
C1491 H1467 0.951 . S
C1491 C1492 1.366 . S
C1491 C1493 1.388 . S
C1492 C1491 1.366 . S
C1492 C1496 1.385 . S
C1493 H1468 0.951 . S
C1493 C1491 1.388 . S
C1493 C1494 1.366 . S
C1494 C1493 1.366 . S
C1494 C1495 1.414 . S
C1494 C1497 1.499 . S
C1495 H1469 0.950 . S
C1495 C1494 1.414 . S
C1495 C1496 1.374 . S
C1496 H1470 0.950 . S
C1496 C1492 1.385 . S
C1496 C1495 1.374 . S
C1497 C1494 1.499 . S
C1497 C1498 1.373 . S
C1497 C1499 1.389 . S
C1498 H1471 0.950 . S
C1498 C1484 1.377 . S
C1498 C1497 1.373 . S
C1499 C1483 1.377 . S
C1499 C1497 1.389 . S
C1499 C1500 1.524 . S
C1500 C1499 1.524 . S
C1500 C1501 1.397 . S
C1500 C1505 1.363 . S
C1501 H1472 0.950 . S
C1501 C1500 1.397 . S
C1501 C1502 1.334 . S
C1502 H1473 0.950 . S
C1502 C1501 1.334 . S
C1502 C1503 1.287 . S
C1503 C1502 1.287 . S
C1503 C1504 1.524 . S
C1503 H1506 0.999 . S
C1504 H1474 0.950 . S
C1504 C1503 1.524 . S
C1504 C1505 1.415 . S
C1505 H1475 0.950 . S
C1505 C1500 1.363 . S
C1505 C1504 1.415 . S
H1506 C1503 0.999 . S
H1507 C1488 0.913 . S
H1508 C1526 0.951 . S
H1509 C1528 0.951 . S
H1510 C1530 0.950 . S
H1511 C1531 0.950 . S
H1512 C1533 0.950 . S
H1513 C1536 0.950 . S
H1514 C1537 0.950 . S
H1515 C1539 0.950 . S
H1516 C1540 0.950 . S
H1517 C1541 0.951 . S
H1518 C1543 0.951 . S
H1519 C1545 0.950 . S
H1520 C1546 0.950 . S
H1521 C1548 0.950 . S
H1522 C1551 0.950 . S
H1523 C1552 0.950 . S
H1524 C1554 0.950 . S
H1525 C1555 0.950 . S
C1526 H1508 0.951 . S
C1526 C1527 1.366 1_455 S
C1526 C1528 1.388 . S
C1527 C1526 1.366 1_655 S
C1527 C1531 1.385 . S
C1528 H1509 0.951 . S
C1528 C1526 1.388 . S
C1528 C1529 1.366 1_455 S
C1529 C1528 1.366 1_655 S
C1529 C1530 1.414 . S
C1529 C1532 1.499 . S
C1530 H1510 0.950 . S
C1530 C1529 1.414 . S
C1530 C1531 1.374 . S
C1531 H1511 0.950 . S
C1531 C1527 1.385 . S
C1531 C1530 1.374 . S
C1532 C1529 1.499 . S
C1532 C1533 1.373 . S
C1532 C1534 1.389 1_655 S
C1533 H1512 0.950 . S
C1533 C1532 1.373 . S
C1533 C1549 1.377 1_554 S
C1534 C1532 1.389 1_455 S
C1534 C1535 1.524 . S
C1534 C1548 1.377 1_554 S
C1535 C1534 1.524 . S
C1535 C1536 1.397 . S
C1535 C1540 1.363 . S
C1536 H1513 0.950 . S
C1536 C1535 1.397 . S
C1536 C1537 1.334 . S
C1537 H1514 0.950 . S
C1537 C1536 1.334 . S
C1537 C1538 1.287 . S
C1538 C1537 1.287 . S
C1538 C1539 1.524 . S
C1538 H1557 0.913 . S
C1539 H1515 0.950 . S
C1539 C1538 1.524 . S
C1539 C1540 1.415 . S
C1540 H1516 0.950 . S
C1540 C1535 1.363 . S
C1540 C1539 1.415 . S
C1541 H1517 0.951 . S
C1541 C1542 1.366 . S
C1541 C1543 1.388 . S
C1542 C1541 1.366 . S
C1542 C1546 1.385 1_655 S
C1543 H1518 0.951 . S
C1543 C1541 1.388 . S
C1543 C1544 1.366 . S
C1544 C1543 1.366 . S
C1544 C1545 1.414 1_655 S
C1544 C1547 1.499 . S
C1545 H1519 0.950 . S
C1545 C1544 1.414 1_455 S
C1545 C1546 1.374 . S
C1546 H1520 0.950 . S
C1546 C1542 1.385 1_455 S
C1546 C1545 1.374 . S
C1547 C1544 1.499 . S
C1547 C1548 1.373 1_655 S
C1547 C1549 1.389 . S
C1548 H1521 0.950 . S
C1548 C1534 1.377 1_556 S
C1548 C1547 1.373 1_455 S
C1549 C1533 1.377 1_556 S
C1549 C1547 1.389 . S
C1549 C1550 1.524 . S
C1550 C1549 1.524 . S
C1550 C1551 1.397 . S
C1550 C1555 1.363 . S
C1551 H1522 0.950 . S
C1551 C1550 1.397 . S
C1551 C1552 1.334 . S
C1552 H1523 0.950 . S
C1552 C1551 1.334 . S
C1552 C1553 1.287 . S
C1553 C1552 1.287 . S
C1553 C1554 1.524 . S
C1553 H1556 0.999 . S
C1554 H1524 0.950 . S
C1554 C1553 1.524 . S
C1554 C1555 1.415 . S
C1555 H1525 0.950 . S
C1555 C1550 1.363 . S
C1555 C1554 1.415 . S
H1556 C1553 0.999 . S
H1557 C1538 0.913 . S
H1558 C1576 0.950 . S
H1559 C1578 0.962 . S
H1560 C1580 0.950 . S
H1561 C1581 0.950 . S
H1562 C1583 0.950 . S
H1563 C1586 0.950 . S
H1564 C1587 0.950 . S
H1565 C1589 0.950 . S
H1566 C1590 0.950 . S
H1567 C1591 0.951 . S
H1568 C1593 0.951 . S
H1569 C1595 0.948 1_545 S
H1570 C1596 0.952 1_545 S
H1571 C1598 0.950 . S
H1572 C1601 0.950 . S
H1573 C1602 0.950 . S
H1574 C1604 0.950 . S
H1575 C1605 0.950 . S
C1576 H1558 0.950 . S
C1576 C1577 1.367 1_545 S
C1576 C1578 1.388 . S
C1577 C1576 1.367 1_565 S
C1577 C1581 1.385 . S
C1578 H1559 0.962 . S
C1578 C1576 1.388 . S
C1578 C1579 1.356 1_545 S
C1579 C1578 1.356 1_565 S
C1579 C1580 1.414 . S
C1579 C1582 1.499 . S
C1580 H1560 0.950 . S
C1580 C1579 1.414 . S
C1580 C1581 1.374 . S
C1581 H1561 0.950 . S
C1581 C1577 1.385 . S
C1581 C1580 1.374 . S
C1582 C1579 1.499 . S
C1582 C1583 1.373 . S
C1582 C1584 1.389 1_565 S
C1583 H1562 0.950 . S
C1583 C1582 1.373 . S
C1583 C1599 1.377 . S
C1584 C1582 1.389 1_545 S
C1584 C1585 1.524 . S
C1584 C1598 1.377 . S
C1585 C1584 1.524 . S
C1585 C1586 1.397 . S
C1585 C1590 1.363 . S
C1586 H1563 0.950 . S
C1586 C1585 1.397 . S
C1586 C1587 1.334 . S
C1587 H1564 0.950 . S
C1587 C1586 1.334 . S
C1587 C1588 1.287 . S
C1588 C1587 1.287 . S
C1588 C1589 1.524 . S
C1588 H1607 0.913 . S
C1589 H1565 0.950 . S
C1589 C1588 1.524 . S
C1589 C1590 1.415 . S
C1590 H1566 0.950 . S
C1590 C1585 1.363 . S
C1590 C1589 1.415 . S
C1591 H1567 0.951 . S
C1591 C1592 1.366 . S
C1591 C1593 1.388 . S
C1592 C1591 1.366 . S
C1592 C1596 1.383 . S
C1593 H1568 0.951 . S
C1593 C1591 1.388 . S
C1593 C1594 1.366 . S
C1594 C1593 1.366 . S
C1594 C1595 1.417 . S
C1594 C1597 1.499 . S
C1595 H1569 0.948 1_565 S
C1595 C1594 1.417 . S
C1595 C1596 1.374 . S
C1596 H1570 0.952 1_565 S
C1596 C1592 1.383 . S
C1596 C1595 1.374 . S
C1597 C1594 1.499 . S
C1597 C1598 1.373 1_565 S
C1597 C1599 1.389 . S
C1598 H1571 0.950 . S
C1598 C1584 1.377 . S
C1598 C1597 1.373 1_545 S
C1599 C1583 1.377 . S
C1599 C1597 1.389 . S
C1599 C1600 1.524 . S
C1600 C1599 1.524 . S
C1600 C1601 1.397 . S
C1600 C1605 1.363 . S
C1601 H1572 0.950 . S
C1601 C1600 1.397 . S
C1601 C1602 1.334 . S
C1602 H1573 0.950 . S
C1602 C1601 1.334 . S
C1602 C1603 1.287 . S
C1603 C1602 1.287 . S
C1603 C1604 1.524 . S
C1603 H1606 0.999 . S
C1604 H1574 0.950 . S
C1604 C1603 1.524 . S
C1604 C1605 1.415 . S
C1605 H1575 0.950 . S
C1605 C1600 1.363 . S
C1605 C1604 1.415 . S
H1606 C1603 0.999 . S
H1607 C1588 0.913 . S
H1608 C1626 0.951 . S
H1609 C1628 0.951 . S
H1610 C1630 0.950 . S
H1611 C1631 0.950 . S
H1612 C1633 0.950 . S
H1613 C1636 0.950 . S
H1614 C1637 0.950 . S
H1615 C1639 0.950 . S
H1616 C1640 0.950 . S
H1617 C1641 0.951 . S
H1618 C1643 0.951 . S
H1619 C1645 0.950 . S
H1620 C1646 0.950 . S
H1621 C1648 0.950 . S
H1622 C1651 0.950 . S
H1623 C1652 0.950 . S
H1624 C1654 0.950 . S
H1625 C1655 0.950 . S
C1626 H1608 0.951 . S
C1626 C1627 1.366 . S
C1626 C1628 1.388 . S
C1627 C1626 1.366 . S
C1627 C1631 1.385 . S
C1628 H1609 0.951 . S
C1628 C1626 1.388 . S
C1628 C1629 1.366 . S
C1629 C1628 1.366 . S
C1629 C1630 1.414 . S
C1629 C1632 1.499 . S
C1630 H1610 0.950 . S
C1630 C1629 1.414 . S
C1630 C1631 1.374 . S
C1631 H1611 0.950 . S
C1631 C1627 1.385 . S
C1631 C1630 1.374 . S
C1632 C1629 1.499 . S
C1632 C1633 1.373 . S
C1632 C1634 1.389 . S
C1633 H1612 0.950 . S
C1633 C1632 1.373 . S
C1633 C1649 1.377 1_556 S
C1634 C1632 1.389 . S
C1634 C1635 1.524 . S
C1634 C1648 1.377 1_556 S
C1635 C1634 1.524 . S
C1635 C1636 1.397 . S
C1635 C1640 1.363 . S
C1636 H1613 0.950 . S
C1636 C1635 1.397 . S
C1636 C1637 1.334 . S
C1637 H1614 0.950 . S
C1637 C1636 1.334 . S
C1637 C1638 1.287 . S
C1638 C1637 1.287 . S
C1638 C1639 1.524 . S
C1638 H1657 0.913 . S
C1639 H1615 0.950 . S
C1639 C1638 1.524 . S
C1639 C1640 1.415 . S
C1640 H1616 0.950 . S
C1640 C1635 1.363 . S
C1640 C1639 1.415 . S
C1641 H1617 0.951 . S
C1641 C1642 1.366 . S
C1641 C1643 1.388 . S
C1642 C1641 1.366 . S
C1642 C1646 1.385 . S
C1643 H1618 0.951 . S
C1643 C1641 1.388 . S
C1643 C1644 1.366 . S
C1644 C1643 1.366 . S
C1644 C1645 1.414 . S
C1644 C1647 1.499 . S
C1645 H1619 0.950 . S
C1645 C1644 1.414 . S
C1645 C1646 1.374 . S
C1646 H1620 0.950 . S
C1646 C1642 1.385 . S
C1646 C1645 1.374 . S
C1647 C1644 1.499 . S
C1647 C1648 1.373 . S
C1647 C1649 1.389 . S
C1648 H1621 0.950 . S
C1648 C1634 1.377 1_554 S
C1648 C1647 1.373 . S
C1649 C1633 1.377 1_554 S
C1649 C1647 1.389 . S
C1649 C1650 1.524 . S
C1650 C1649 1.524 . S
C1650 C1651 1.397 . S
C1650 C1655 1.363 . S
C1651 H1622 0.950 . S
C1651 C1650 1.397 . S
C1651 C1652 1.334 . S
C1652 H1623 0.950 . S
C1652 C1651 1.334 . S
C1652 C1653 1.287 . S
C1653 C1652 1.287 . S
C1653 C1654 1.524 . S
C1653 H1656 0.999 . S
C1654 H1624 0.950 . S
C1654 C1653 1.524 . S
C1654 C1655 1.415 . S
C1655 H1625 0.950 . S
C1655 C1650 1.363 . S
C1655 C1654 1.415 . S
H1656 C1653 0.999 . S
H1657 C1638 0.913 . S
H1658 C1676 0.951 . S
H1659 C1678 0.951 . S
H1660 C1680 0.950 . S
H1661 C1681 0.950 . S
H1662 C1683 0.950 . S
H1663 C1686 0.950 . S
H1664 C1687 0.950 . S
H1665 C1689 0.950 . S
H1666 C1690 0.950 . S
H1667 C1691 0.951 . S
H1668 C1693 0.951 . S
H1669 C1695 0.950 . S
H1670 C1696 0.950 . S
H1671 C1698 0.950 . S
H1672 C1701 0.950 . S
H1673 C1702 0.950 . S
H1674 C1704 0.950 . S
H1675 C1705 0.950 . S
C1676 H1658 0.951 . S
C1676 C1677 1.366 . S
C1676 C1678 1.388 . S
C1677 C1676 1.366 . S
C1677 C1681 1.385 . S
C1678 H1659 0.951 . S
C1678 C1676 1.388 . S
C1678 C1679 1.366 . S
C1679 C1678 1.366 . S
C1679 C1680 1.414 . S
C1679 C1682 1.499 . S
C1680 H1660 0.950 . S
C1680 C1679 1.414 . S
C1680 C1681 1.374 . S
C1681 H1661 0.950 . S
C1681 C1677 1.385 . S
C1681 C1680 1.374 . S
C1682 C1679 1.499 . S
C1682 C1683 1.373 . S
C1682 C1684 1.389 . S
C1683 H1662 0.950 . S
C1683 C1682 1.373 . S
C1683 C1699 1.377 . S
C1684 C1682 1.389 . S
C1684 C1685 1.524 . S
C1684 C1698 1.377 . S
C1685 C1684 1.524 . S
C1685 C1686 1.397 . S
C1685 C1690 1.363 . S
C1686 H1663 0.950 . S
C1686 C1685 1.397 . S
C1686 C1687 1.334 . S
C1687 H1664 0.950 . S
C1687 C1686 1.334 . S
C1687 C1688 1.287 . S
C1688 C1687 1.287 . S
C1688 C1689 1.524 . S
C1688 H1707 0.913 . S
C1689 H1665 0.950 . S
C1689 C1688 1.524 . S
C1689 C1690 1.415 . S
C1690 H1666 0.950 . S
C1690 C1685 1.363 . S
C1690 C1689 1.415 . S
C1691 H1667 0.951 . S
C1691 C1692 1.366 . S
C1691 C1693 1.388 . S
C1692 C1691 1.366 . S
C1692 C1696 1.385 . S
C1693 H1668 0.951 . S
C1693 C1691 1.388 . S
C1693 C1694 1.366 . S
C1694 C1693 1.366 . S
C1694 C1695 1.414 . S
C1694 C1697 1.499 . S
C1695 H1669 0.950 . S
C1695 C1694 1.414 . S
C1695 C1696 1.374 . S
C1696 H1670 0.950 . S
C1696 C1692 1.385 . S
C1696 C1695 1.374 . S
C1697 C1694 1.499 . S
C1697 C1698 1.373 . S
C1697 C1699 1.389 . S
C1698 H1671 0.950 . S
C1698 C1684 1.377 . S
C1698 C1697 1.373 . S
C1699 C1683 1.377 . S
C1699 C1697 1.389 . S
C1699 C1700 1.524 . S
C1700 C1699 1.524 . S
C1700 C1701 1.397 . S
C1700 C1705 1.363 . S
C1701 H1672 0.950 . S
C1701 C1700 1.397 . S
C1701 C1702 1.334 . S
C1702 H1673 0.950 . S
C1702 C1701 1.334 . S
C1702 C1703 1.287 . S
C1703 C1702 1.287 . S
C1703 C1704 1.524 . S
C1703 H1706 0.999 . S
C1704 H1674 0.950 . S
C1704 C1703 1.524 . S
C1704 C1705 1.415 . S
C1705 H1675 0.950 . S
C1705 C1700 1.363 . S
C1705 C1704 1.415 . S
H1706 C1703 0.999 . S
H1707 C1688 0.913 . S
H1708 C1726 0.951 . S
H1709 C1728 0.951 . S
H1710 C1730 0.950 . S
H1711 C1731 0.950 . S
H1712 C1733 0.950 . S
H1713 C1736 0.950 1_455 S
H1714 C1737 0.950 . S
H1715 C1739 0.950 . S
H1716 C1740 0.950 . S
H1717 C1741 0.951 . S
H1718 C1743 0.951 . S
H1719 C1745 0.950 . S
H1720 C1746 0.950 . S
H1721 C1748 0.950 . S
H1722 C1751 0.950 . S
H1723 C1752 0.950 . S
H1724 C1754 0.950 . S
H1725 C1755 0.950 . S
C1726 H1708 0.951 . S
C1726 C1727 1.366 1_655 S
C1726 C1728 1.388 . S
C1727 C1726 1.366 1_455 S
C1727 C1731 1.385 . S
C1728 H1709 0.951 . S
C1728 C1726 1.388 . S
C1728 C1729 1.366 1_655 S
C1729 C1728 1.366 1_455 S
C1729 C1730 1.414 . S
C1729 C1732 1.499 . S
C1730 H1710 0.950 . S
C1730 C1729 1.414 . S
C1730 C1731 1.374 . S
C1731 H1711 0.950 . S
C1731 C1727 1.385 . S
C1731 C1730 1.374 . S
C1732 C1729 1.499 . S
C1732 C1733 1.373 . S
C1732 C1734 1.389 1_455 S
C1733 H1712 0.950 . S
C1733 C1732 1.373 . S
C1733 C1749 1.377 1_554 S
C1734 C1732 1.389 1_655 S
C1734 C1735 1.524 . S
C1734 C1748 1.377 1_554 S
C1735 C1734 1.524 . S
C1735 C1736 1.397 . S
C1735 C1740 1.363 . S
C1736 H1713 0.950 1_655 S
C1736 C1735 1.397 . S
C1736 C1737 1.334 . S
C1737 H1714 0.950 . S
C1737 C1736 1.334 . S
C1737 C1738 1.287 . S
C1738 C1737 1.287 . S
C1738 C1739 1.524 . S
C1738 H1757 0.913 . S
C1739 H1715 0.950 . S
C1739 C1738 1.524 . S
C1739 C1740 1.415 . S
C1740 H1716 0.950 . S
C1740 C1735 1.363 . S
C1740 C1739 1.415 . S
C1741 H1717 0.951 . S
C1741 C1742 1.366 . S
C1741 C1743 1.388 . S
C1742 C1741 1.366 . S
C1742 C1746 1.385 1_455 S
C1743 H1718 0.951 . S
C1743 C1741 1.388 . S
C1743 C1744 1.366 . S
C1744 C1743 1.366 . S
C1744 C1745 1.414 1_455 S
C1744 C1747 1.499 . S
C1745 H1719 0.950 . S
C1745 C1744 1.414 1_655 S
C1745 C1746 1.374 . S
C1746 H1720 0.950 . S
C1746 C1742 1.385 1_655 S
C1746 C1745 1.374 . S
C1747 C1744 1.499 . S
C1747 C1748 1.373 1_455 S
C1747 C1749 1.389 . S
C1748 H1721 0.950 . S
C1748 C1734 1.377 1_556 S
C1748 C1747 1.373 1_655 S
C1749 C1733 1.377 1_556 S
C1749 C1747 1.389 . S
C1749 C1750 1.524 . S
C1750 C1749 1.524 . S
C1750 C1751 1.397 . S
C1750 C1755 1.363 . S
C1751 H1722 0.950 . S
C1751 C1750 1.397 . S
C1751 C1752 1.334 . S
C1752 H1723 0.950 . S
C1752 C1751 1.334 . S
C1752 C1753 1.287 . S
C1753 C1752 1.287 . S
C1753 C1754 1.524 . S
C1753 H1756 0.999 . S
C1754 H1724 0.950 . S
C1754 C1753 1.524 . S
C1754 C1755 1.415 . S
C1755 H1725 0.950 . S
C1755 C1750 1.363 . S
C1755 C1754 1.415 . S
H1756 C1753 0.999 . S
H1757 C1738 0.913 . S
H1758 C1776 0.951 . S
H1759 C1778 0.951 . S
H1760 C1780 0.950 . S
H1761 C1781 0.950 . S
H1762 C1783 0.950 . S
H1763 C1786 0.950 . S
H1764 C1787 0.950 . S
H1765 C1789 0.950 . S
H1766 C1790 0.950 . S
H1767 C1791 0.951 . S
H1768 C1793 0.951 . S
H1769 C1795 0.950 . S
H1770 C1796 0.950 . S
H1771 C1798 0.950 . S
H1772 C1801 0.950 . S
H1773 C1802 0.950 . S
H1774 C1804 0.950 . S
H1775 C1805 0.950 . S
C1776 H1758 0.951 . S
C1776 C1777 1.366 . S
C1776 C1778 1.388 . S
C1777 C1776 1.366 . S
C1777 C1781 1.385 1_545 S
C1778 H1759 0.951 . S
C1778 C1776 1.388 . S
C1778 C1779 1.366 . S
C1779 C1778 1.366 . S
C1779 C1780 1.414 1_545 S
C1779 C1782 1.499 . S
C1780 H1760 0.950 . S
C1780 C1779 1.414 1_565 S
C1780 C1781 1.374 . S
C1781 H1761 0.950 . S
C1781 C1777 1.385 1_565 S
C1781 C1780 1.374 . S
C1782 C1779 1.499 . S
C1782 C1783 1.373 . S
C1782 C1784 1.389 . S
C1783 H1762 0.950 . S
C1783 C1782 1.373 . S
C1783 C1799 1.377 . S
C1784 C1782 1.389 . S
C1784 C1785 1.524 . S
C1784 C1798 1.377 . S
C1785 C1784 1.524 . S
C1785 C1786 1.397 1_545 S
C1785 C1790 1.363 . S
C1786 H1763 0.950 . S
C1786 C1785 1.397 1_565 S
C1786 C1787 1.334 . S
C1787 H1764 0.950 . S
C1787 C1786 1.334 . S
C1787 C1788 1.287 1_565 S
C1788 C1787 1.287 1_545 S
C1788 C1789 1.524 . S
C1788 H1807 0.913 . S
C1789 H1765 0.950 . S
C1789 C1788 1.524 . S
C1789 C1790 1.415 . S
C1790 H1766 0.950 . S
C1790 C1785 1.363 . S
C1790 C1789 1.415 . S
C1791 H1767 0.951 . S
C1791 C1792 1.366 1_565 S
C1791 C1793 1.388 . S
C1792 C1791 1.366 1_545 S
C1792 C1796 1.385 . S
C1793 H1768 0.951 . S
C1793 C1791 1.388 . S
C1793 C1794 1.366 1_565 S
C1794 C1793 1.366 1_545 S
C1794 C1795 1.414 . S
C1794 C1797 1.499 . S
C1795 H1769 0.950 . S
C1795 C1794 1.414 . S
C1795 C1796 1.374 . S
C1796 H1770 0.950 . S
C1796 C1792 1.385 . S
C1796 C1795 1.374 . S
C1797 C1794 1.499 . S
C1797 C1798 1.373 . S
C1797 C1799 1.389 . S
C1798 H1771 0.950 . S
C1798 C1784 1.377 . S
C1798 C1797 1.373 . S
C1799 C1783 1.377 . S
C1799 C1797 1.389 . S
C1799 C1800 1.524 . S
C1800 C1799 1.524 . S
C1800 C1801 1.397 . S
C1800 C1805 1.363 1_545 S
C1801 H1772 0.950 . S
C1801 C1800 1.397 . S
C1801 C1802 1.334 . S
C1802 H1773 0.950 . S
C1802 C1801 1.334 . S
C1802 C1803 1.287 . S
C1803 C1802 1.287 . S
C1803 C1804 1.524 1_545 S
C1803 H1806 0.999 . S
C1804 H1774 0.950 . S
C1804 C1803 1.524 1_565 S
C1804 C1805 1.415 . S
C1805 H1775 0.950 . S
C1805 C1800 1.363 1_565 S
C1805 C1804 1.415 . S
H1806 C1803 0.999 . S
H1807 C1788 0.913 . S
C227 C4 1.182 . S
C242 C95 1.182 . S
C277 C23 1.182 . S
C292 C56 1.182 . S
C327 C36 1.183 . S
C342 C75 1.182 . S
C377 C49 1.182 . S
C392 C82 1.182 . S
C427 C114 1.182 . S
C442 C205 1.182 . S
C477 C160 1.182 . S
C492 C121 1.182 . S
C527 C134 1.182 . S
C542 C179 1.183 . S
C577 C153 1.182 . S
C592 C186 1.182 . S
C627 C5 1.603 . S
C642 C127 1.611 . S
C677 C16 1.603 . S
C692 C140 1.611 . S
C727 C147 1.611 . S
C742 C29 1.603 . S
C777 C42 1.603 . S
C792 C108 1.611 . S
C827 C57 1.603 . S
C842 C199 1.611 . S
C877 C166 1.611 . S
C892 C68 1.602 . S
C927 C173 1.611 . S
C942 C83 1.602 . S
C977 C192 1.611 . S
C992 C96 1.603 . S
C1027 C17 1.611 . S
C1042 C107 1.603 . S
C1077 C30 1.611 . S
C1092 C122 1.602 . S
C1127 C135 1.603 . S
C1142 C43 1.611 . S
C1177 C10 1.611 . S
C1192 C146 1.602 . S
C1227 C161 1.602 . S
C1242 C101 1.611 . S
C1277 C172 1.603 . S
C1292 C62 1.611 . S
C1327 C69 1.611 . S
C1342 C187 1.602 . S
C1377 C88 1.611 . S
C1392 C198 1.603 . S
C1427 C3 1.640 . S
C1442 C55 1.640 . S
C1477 C70 1.640 . S
C1492 C18 1.640 . S
C1527 C31 1.640 . S
C1542 C81 1.640 . S
C1577 C94 1.640 . S
C1592 C44 1.640 . S
C1627 C109 1.640 . S
C1642 C159 1.640 . S
C1677 C174 1.640 . S
C1692 C120 1.640 . S
C1727 C185 1.640 . S
C1742 C133 1.640 . S
C1777 C200 1.640 . S
C1792 C148 1.640 . S
