# Generated by pormake.
# Topology uli, (4)-cn, num edge types: 1
# Building blocks:
#     Node 0, Type 0, BuildingBlock: QUQFOY_clean_sbu_1, # of connection points: 4
#     Node 1, Type 0, BuildingBlock: QUQFOY_clean_sbu_1, # of connection points: 4
#     Node 2, Type 0, BuildingBlock: QUQFOY_clean_sbu_1, # of connection points: 4
#     Node 3, Type 0, BuildingBlock: QUQFOY_clean_sbu_1, # of connection points: 4
#     Node 4, Type 0, BuildingBlock: QUQFOY_clean_sbu_1, # of connection points: 4
#     Node 5, Type 0, BuildingBlock: QUQFOY_clean_sbu_1, # of connection points: 4
#     Node 6, Type 0, BuildingBlock: QUQFOY_clean_sbu_1, # of connection points: 4
#     Node 7, Type 0, BuildingBlock: QUQFOY_clean_sbu_1, # of connection points: 4
#     Node 8, Type 0, BuildingBlock: QUQFOY_clean_sbu_1, # of connection points: 4
#     Node 9, Type 0, BuildingBlock: QUQFOY_clean_sbu_1, # of connection points: 4
#     Node 10, Type 0, BuildingBlock: QUQFOY_clean_sbu_1, # of connection points: 4
#     Node 11, Type 0, BuildingBlock: QUQFOY_clean_sbu_1, # of connection points: 4
#     Node 12, Type 0, BuildingBlock: QUQFOY_clean_sbu_1, # of connection points: 4
#     Node 13, Type 0, BuildingBlock: QUQFOY_clean_sbu_1, # of connection points: 4
#     Node 14, Type 0, BuildingBlock: QUQFOY_clean_sbu_1, # of connection points: 4
#     Node 15, Type 0, BuildingBlock: QUQFOY_clean_sbu_1, # of connection points: 4
#     Node 16, Type 0, BuildingBlock: QUQFOY_clean_sbu_1, # of connection points: 4
#     Node 17, Type 0, BuildingBlock: QUQFOY_clean_sbu_1, # of connection points: 4
#     Node 18, Type 0, BuildingBlock: QUQFOY_clean_sbu_1, # of connection points: 4
#     Node 19, Type 0, BuildingBlock: QUQFOY_clean_sbu_1, # of connection points: 4
#     Node 20, Type 0, BuildingBlock: QUQFOY_clean_sbu_1, # of connection points: 4
#     Node 21, Type 0, BuildingBlock: QUQFOY_clean_sbu_1, # of connection points: 4
#     Node 22, Type 0, BuildingBlock: QUQFOY_clean_sbu_1, # of connection points: 4
#     Node 23, Type 0, BuildingBlock: QUQFOY_clean_sbu_1, # of connection points: 4
#     Node 24, Type 0, BuildingBlock: QUQFOY_clean_sbu_1, # of connection points: 4
#     Node 25, Type 0, BuildingBlock: QUQFOY_clean_sbu_1, # of connection points: 4
#     Node 26, Type 0, BuildingBlock: QUQFOY_clean_sbu_1, # of connection points: 4
#     Node 27, Type 0, BuildingBlock: QUQFOY_clean_sbu_1, # of connection points: 4
#     Node 28, Type 0, BuildingBlock: QUQFOY_clean_sbu_1, # of connection points: 4
#     Node 29, Type 0, BuildingBlock: QUQFOY_clean_sbu_1, # of connection points: 4
#     Node 30, Type 0, BuildingBlock: QUQFOY_clean_sbu_1, # of connection points: 4
#     Node 31, Type 0, BuildingBlock: QUQFOY_clean_sbu_1, # of connection points: 4
#     Node 32, Type 0, BuildingBlock: QUQFOY_clean_sbu_1, # of connection points: 4
#     Node 33, Type 0, BuildingBlock: QUQFOY_clean_sbu_1, # of connection points: 4
#     Node 34, Type 0, BuildingBlock: QUQFOY_clean_sbu_1, # of connection points: 4
#     Node 35, Type 0, BuildingBlock: QUQFOY_clean_sbu_1, # of connection points: 4
#     Node 36, Type 0, BuildingBlock: QUQFOY_clean_sbu_1, # of connection points: 4
#     Node 37, Type 0, BuildingBlock: QUQFOY_clean_sbu_1, # of connection points: 4
#     Node 38, Type 0, BuildingBlock: QUQFOY_clean_sbu_1, # of connection points: 4
#     Node 39, Type 0, BuildingBlock: QUQFOY_clean_sbu_1, # of connection points: 4
#     Node 40, Type 0, BuildingBlock: QUQFOY_clean_sbu_1, # of connection points: 4
#     Node 41, Type 0, BuildingBlock: QUQFOY_clean_sbu_1, # of connection points: 4
#     Node 42, Type 0, BuildingBlock: QUQFOY_clean_sbu_1, # of connection points: 4
#     Node 43, Type 0, BuildingBlock: QUQFOY_clean_sbu_1, # of connection points: 4
#     Node 44, Type 0, BuildingBlock: QUQFOY_clean_sbu_1, # of connection points: 4
#     Node 45, Type 0, BuildingBlock: QUQFOY_clean_sbu_1, # of connection points: 4
#     Node 46, Type 0, BuildingBlock: QUQFOY_clean_sbu_1, # of connection points: 4
#     Node 47, Type 0, BuildingBlock: QUQFOY_clean_sbu_1, # of connection points: 4
#     Edge 48, Type (0, 0), BuildingBlock: XUDNAN_clean_linker_2, # of connection points: 2
#     Edge 49, Type (0, 0), BuildingBlock: XUDNAN_clean_linker_2, # of connection points: 2
#     Edge 50, Type (0, 0), BuildingBlock: XUDNAN_clean_linker_2, # of connection points: 2
#     Edge 51, Type (0, 0), BuildingBlock: XUDNAN_clean_linker_2, # of connection points: 2
#     Edge 52, Type (0, 0), BuildingBlock: XUDNAN_clean_linker_2, # of connection points: 2
#     Edge 53, Type (0, 0), BuildingBlock: XUDNAN_clean_linker_2, # of connection points: 2
#     Edge 54, Type (0, 0), BuildingBlock: XUDNAN_clean_linker_2, # of connection points: 2
#     Edge 55, Type (0, 0), BuildingBlock: XUDNAN_clean_linker_2, # of connection points: 2
#     Edge 56, Type (0, 0), BuildingBlock: XUDNAN_clean_linker_2, # of connection points: 2
#     Edge 57, Type (0, 0), BuildingBlock: XUDNAN_clean_linker_2, # of connection points: 2
#     Edge 58, Type (0, 0), BuildingBlock: XUDNAN_clean_linker_2, # of connection points: 2
#     Edge 59, Type (0, 0), BuildingBlock: XUDNAN_clean_linker_2, # of connection points: 2
#     Edge 60, Type (0, 0), BuildingBlock: XUDNAN_clean_linker_2, # of connection points: 2
#     Edge 61, Type (0, 0), BuildingBlock: XUDNAN_clean_linker_2, # of connection points: 2
#     Edge 62, Type (0, 0), BuildingBlock: XUDNAN_clean_linker_2, # of connection points: 2
#     Edge 63, Type (0, 0), BuildingBlock: XUDNAN_clean_linker_2, # of connection points: 2
#     Edge 64, Type (0, 0), BuildingBlock: XUDNAN_clean_linker_2, # of connection points: 2
#     Edge 65, Type (0, 0), BuildingBlock: XUDNAN_clean_linker_2, # of connection points: 2
#     Edge 66, Type (0, 0), BuildingBlock: XUDNAN_clean_linker_2, # of connection points: 2
#     Edge 67, Type (0, 0), BuildingBlock: XUDNAN_clean_linker_2, # of connection points: 2
#     Edge 68, Type (0, 0), BuildingBlock: XUDNAN_clean_linker_2, # of connection points: 2
#     Edge 69, Type (0, 0), BuildingBlock: XUDNAN_clean_linker_2, # of connection points: 2
#     Edge 70, Type (0, 0), BuildingBlock: XUDNAN_clean_linker_2, # of connection points: 2
#     Edge 71, Type (0, 0), BuildingBlock: XUDNAN_clean_linker_2, # of connection points: 2
#     Edge 72, Type (0, 0), BuildingBlock: XUDNAN_clean_linker_2, # of connection points: 2
#     Edge 73, Type (0, 0), BuildingBlock: XUDNAN_clean_linker_2, # of connection points: 2
#     Edge 74, Type (0, 0), BuildingBlock: XUDNAN_clean_linker_2, # of connection points: 2
#     Edge 75, Type (0, 0), BuildingBlock: XUDNAN_clean_linker_2, # of connection points: 2
#     Edge 76, Type (0, 0), BuildingBlock: XUDNAN_clean_linker_2, # of connection points: 2
#     Edge 77, Type (0, 0), BuildingBlock: XUDNAN_clean_linker_2, # of connection points: 2
#     Edge 78, Type (0, 0), BuildingBlock: XUDNAN_clean_linker_2, # of connection points: 2
#     Edge 79, Type (0, 0), BuildingBlock: XUDNAN_clean_linker_2, # of connection points: 2
#     Edge 80, Type (0, 0), BuildingBlock: XUDNAN_clean_linker_2, # of connection points: 2
#     Edge 81, Type (0, 0), BuildingBlock: XUDNAN_clean_linker_2, # of connection points: 2
#     Edge 82, Type (0, 0), BuildingBlock: XUDNAN_clean_linker_2, # of connection points: 2
#     Edge 83, Type (0, 0), BuildingBlock: XUDNAN_clean_linker_2, # of connection points: 2
#     Edge 84, Type (0, 0), BuildingBlock: XUDNAN_clean_linker_2, # of connection points: 2
#     Edge 85, Type (0, 0), BuildingBlock: XUDNAN_clean_linker_2, # of connection points: 2
#     Edge 86, Type (0, 0), BuildingBlock: XUDNAN_clean_linker_2, # of connection points: 2
#     Edge 87, Type (0, 0), BuildingBlock: XUDNAN_clean_linker_2, # of connection points: 2
#     Edge 88, Type (0, 0), BuildingBlock: XUDNAN_clean_linker_2, # of connection points: 2
#     Edge 89, Type (0, 0), BuildingBlock: XUDNAN_clean_linker_2, # of connection points: 2
#     Edge 90, Type (0, 0), BuildingBlock: XUDNAN_clean_linker_2, # of connection points: 2
#     Edge 91, Type (0, 0), BuildingBlock: XUDNAN_clean_linker_2, # of connection points: 2
#     Edge 92, Type (0, 0), BuildingBlock: XUDNAN_clean_linker_2, # of connection points: 2
#     Edge 93, Type (0, 0), BuildingBlock: XUDNAN_clean_linker_2, # of connection points: 2
#     Edge 94, Type (0, 0), BuildingBlock: XUDNAN_clean_linker_2, # of connection points: 2
#     Edge 95, Type (0, 0), BuildingBlock: XUDNAN_clean_linker_2, # of connection points: 2
#     Edge 96, Type (0, 0), BuildingBlock: XUDNAN_clean_linker_2, # of connection points: 2
#     Edge 97, Type (0, 0), BuildingBlock: XUDNAN_clean_linker_2, # of connection points: 2
#     Edge 98, Type (0, 0), BuildingBlock: XUDNAN_clean_linker_2, # of connection points: 2
#     Edge 99, Type (0, 0), BuildingBlock: XUDNAN_clean_linker_2, # of connection points: 2
#     Edge 100, Type (0, 0), BuildingBlock: XUDNAN_clean_linker_2, # of connection points: 2
#     Edge 101, Type (0, 0), BuildingBlock: XUDNAN_clean_linker_2, # of connection points: 2
#     Edge 102, Type (0, 0), BuildingBlock: XUDNAN_clean_linker_2, # of connection points: 2
#     Edge 103, Type (0, 0), BuildingBlock: XUDNAN_clean_linker_2, # of connection points: 2
#     Edge 104, Type (0, 0), BuildingBlock: XUDNAN_clean_linker_2, # of connection points: 2
#     Edge 105, Type (0, 0), BuildingBlock: XUDNAN_clean_linker_2, # of connection points: 2
#     Edge 106, Type (0, 0), BuildingBlock: XUDNAN_clean_linker_2, # of connection points: 2
#     Edge 107, Type (0, 0), BuildingBlock: XUDNAN_clean_linker_2, # of connection points: 2
#     Edge 108, Type (0, 0), BuildingBlock: XUDNAN_clean_linker_2, # of connection points: 2
#     Edge 109, Type (0, 0), BuildingBlock: XUDNAN_clean_linker_2, # of connection points: 2
#     Edge 110, Type (0, 0), BuildingBlock: XUDNAN_clean_linker_2, # of connection points: 2
#     Edge 111, Type (0, 0), BuildingBlock: XUDNAN_clean_linker_2, # of connection points: 2
#     Edge 112, Type (0, 0), BuildingBlock: XUDNAN_clean_linker_2, # of connection points: 2
#     Edge 113, Type (0, 0), BuildingBlock: XUDNAN_clean_linker_2, # of connection points: 2
#     Edge 114, Type (0, 0), BuildingBlock: XUDNAN_clean_linker_2, # of connection points: 2
#     Edge 115, Type (0, 0), BuildingBlock: XUDNAN_clean_linker_2, # of connection points: 2
#     Edge 116, Type (0, 0), BuildingBlock: XUDNAN_clean_linker_2, # of connection points: 2
#     Edge 117, Type (0, 0), BuildingBlock: XUDNAN_clean_linker_2, # of connection points: 2
#     Edge 118, Type (0, 0), BuildingBlock: XUDNAN_clean_linker_2, # of connection points: 2
#     Edge 119, Type (0, 0), BuildingBlock: XUDNAN_clean_linker_2, # of connection points: 2
#     Edge 120, Type (0, 0), BuildingBlock: XUDNAN_clean_linker_2, # of connection points: 2
#     Edge 121, Type (0, 0), BuildingBlock: XUDNAN_clean_linker_2, # of connection points: 2
#     Edge 122, Type (0, 0), BuildingBlock: XUDNAN_clean_linker_2, # of connection points: 2
#     Edge 123, Type (0, 0), BuildingBlock: XUDNAN_clean_linker_2, # of connection points: 2
#     Edge 124, Type (0, 0), BuildingBlock: XUDNAN_clean_linker_2, # of connection points: 2
#     Edge 125, Type (0, 0), BuildingBlock: XUDNAN_clean_linker_2, # of connection points: 2
#     Edge 126, Type (0, 0), BuildingBlock: XUDNAN_clean_linker_2, # of connection points: 2
#     Edge 127, Type (0, 0), BuildingBlock: XUDNAN_clean_linker_2, # of connection points: 2
#     Edge 128, Type (0, 0), BuildingBlock: XUDNAN_clean_linker_2, # of connection points: 2
#     Edge 129, Type (0, 0), BuildingBlock: XUDNAN_clean_linker_2, # of connection points: 2
#     Edge 130, Type (0, 0), BuildingBlock: XUDNAN_clean_linker_2, # of connection points: 2
#     Edge 131, Type (0, 0), BuildingBlock: XUDNAN_clean_linker_2, # of connection points: 2
#     Edge 132, Type (0, 0), BuildingBlock: XUDNAN_clean_linker_2, # of connection points: 2
#     Edge 133, Type (0, 0), BuildingBlock: XUDNAN_clean_linker_2, # of connection points: 2
#     Edge 134, Type (0, 0), BuildingBlock: XUDNAN_clean_linker_2, # of connection points: 2
#     Edge 135, Type (0, 0), BuildingBlock: XUDNAN_clean_linker_2, # of connection points: 2
#     Edge 136, Type (0, 0), BuildingBlock: XUDNAN_clean_linker_2, # of connection points: 2
#     Edge 137, Type (0, 0), BuildingBlock: XUDNAN_clean_linker_2, # of connection points: 2
#     Edge 138, Type (0, 0), BuildingBlock: XUDNAN_clean_linker_2, # of connection points: 2
#     Edge 139, Type (0, 0), BuildingBlock: XUDNAN_clean_linker_2, # of connection points: 2
#     Edge 140, Type (0, 0), BuildingBlock: XUDNAN_clean_linker_2, # of connection points: 2
#     Edge 141, Type (0, 0), BuildingBlock: XUDNAN_clean_linker_2, # of connection points: 2
#     Edge 142, Type (0, 0), BuildingBlock: XUDNAN_clean_linker_2, # of connection points: 2
#     Edge 143, Type (0, 0), BuildingBlock: XUDNAN_clean_linker_2, # of connection points: 2
# Relax obj value: 0.320
# Max RMSD: 0.107
# Mean RMSD: 0.107
data_MOF--net-uli--node1-QUQFOY_clean_sbu_1--edge1-XUDNAN_clean_linker_2
_symmetry_space_group_name_H-M    P1
_symmetry_Int_Tables_number       1
_symmetry_cell_setting            triclinic
loop_
_symmetry_equiv_pos_as_xyz
'x, y, z'
_cell_length_a     72.728266
_cell_length_b     72.695005
_cell_length_c     72.680935
_cell_angle_alpha  90.007609
_cell_angle_beta   89.979976
_cell_angle_gamma 90.008306
loop_
_atom_site_label
_atom_site_type_symbol
_atom_site_fract_x
_atom_site_fract_y
_atom_site_fract_z
_atom_type_partial_charge
O0 O 0.09202 0.22942 0.1988 0.0
Cd1 Cd 0.08482 0.25426 0.18764 0.0
Cd2 Cd 0.11164 0.26644 0.20922 0.0
O3 O 0.10687 0.24155 0.22219 0.0
O4 O 0.05916 0.25029 0.18009 0.0
O5 O 0.06723 0.26897 0.20286 0.0
C6 C 0.05444 0.26047 0.19387 0.0
C7 C 0.12436 0.2903 0.22671 0.0
C8 C 0.09981 0.22763 0.2143 0.0
C9 C 0.11701 0.26537 0.16751 0.0
O10 O 0.12381 0.26583 0.1836 0.0
O11 O 0.0999 0.26279 0.16534 0.0
O12 O 0.13304 0.27525 0.22352 0.0
O13 O 0.1077 0.29162 0.22076 0.0
O14 O 0.77257 0.09968 0.22434 0.0
Cd15 Cd 0.74676 0.09228 0.21532 0.0
Cd16 Cd 0.73752 0.11837 0.23589 0.0
O17 O 0.76251 0.11443 0.24872 0.0
O18 O 0.75031 0.06692 0.2066 0.0
O19 O 0.73372 0.07395 0.23123 0.0
C20 C 0.74132 0.06159 0.22095 0.0
C21 C 0.70921 0.12106 0.2498 0.0
C22 C 0.77573 0.10743 0.23967 0.0
C23 C 0.73431 0.12475 0.19582 0.0
O24 O 0.73747 0.13233 0.21125 0.0
O25 O 0.73505 0.10736 0.19442 0.0
O26 O 0.72162 0.13358 0.25176 0.0
O27 O 0.71352 0.106 0.24141 0.0
O28 O 0.90454 0.78167 0.21246 0.0
Cd29 Cd 0.91264 0.75755 0.20029 0.0
Cd30 Cd 0.88972 0.74271 0.22239 0.0
O31 O 0.89262 0.76735 0.23627 0.0
O32 O 0.93835 0.76177 0.19296 0.0
O33 O 0.93001 0.74271 0.21539 0.0
C34 C 0.94288 0.75134 0.20664 0.0
C35 C 0.88635 0.71553 0.23901 0.0
C36 C 0.89777 0.78216 0.22854 0.0
C37 C 0.87992 0.74389 0.1822 0.0
O38 O 0.87415 0.7429 0.19867 0.0
O39 O 0.89669 0.74768 0.17909 0.0
O40 O 0.87419 0.72837 0.23948 0.0
O41 O 0.90112 0.71831 0.22956 0.0
O42 O 0.2267 0.89134 0.21088 0.0
Cd43 Cd 0.24173 0.90619 0.19217 0.0
Cd44 Cd 0.26861 0.87974 0.20635 0.0
O45 O 0.24858 0.87717 0.22635 0.0
O46 O 0.22227 0.92349 0.18423 0.0
O47 O 0.24724 0.93263 0.19884 0.0
C48 C 0.23143 0.93655 0.19181 0.0
C49 C 0.29783 0.86856 0.2144 0.0
C50 C 0.23178 0.88154 0.22438 0.0
C51 C 0.25463 0.87793 0.16633 0.0
O52 O 0.26217 0.87062 0.18027 0.0
O53 O 0.24735 0.89373 0.16751 0.0
O54 O 0.28375 0.85807 0.21279 0.0
O55 O 0.29537 0.886 0.21233 0.0
O56 O 0.09086 0.78288 0.8115 0.0
Cd57 Cd 0.08401 0.7588 0.8245 0.0
Cd58 Cd 0.10946 0.74373 0.80433 0.0
O59 O 0.10601 0.76804 0.78993 0.0
O60 O 0.05727 0.75903 0.82827 0.0
O61 O 0.07148 0.74053 0.80845 0.0
C62 C 0.05634 0.74719 0.81501 0.0
C63 C 0.11942 0.71815 0.78756 0.0
C64 C 0.09915 0.78288 0.79614 0.0
C65 C 0.11537 0.74757 0.84575 0.0
O66 O 0.12195 0.74479 0.8298 0.0
O67 O 0.09864 0.75212 0.84762 0.0
O68 O 0.1296 0.7324 0.78999 0.0
O69 O 0.10295 0.71853 0.79413 0.0
O70 O 0.23035 0.10401 0.7728 0.0
Cd71 Cd 0.25139 0.09081 0.78617 0.0
Cd72 Cd 0.27059 0.11691 0.77033 0.0
O73 O 0.24795 0.11886 0.75323 0.0
O74 O 0.24031 0.06667 0.79107 0.0
O75 O 0.26397 0.07054 0.77223 0.0
C76 C 0.25148 0.05989 0.77908 0.0
C77 C 0.29936 0.12524 0.75896 0.0
C78 C 0.23208 0.11371 0.7584 0.0
C79 C 0.26391 0.1181 0.81175 0.0
O80 O 0.26761 0.12651 0.7969 0.0
O81 O 0.25888 0.10141 0.81121 0.0
O82 O 0.28643 0.13703 0.76142 0.0
O83 O 0.29575 0.1081 0.7618 0.0
O84 O 0.8942 0.22214 0.79034 0.0
Cd85 Cd 0.90888 0.24208 0.80344 0.0
Cd86 Cd 0.88411 0.26517 0.78563 0.0
O87 O 0.88358 0.2414 0.76955 0.0
O88 O 0.93327 0.23088 0.80668 0.0
O89 O 0.92802 0.2547 0.78827 0.0
C90 C 0.9391 0.24211 0.79421 0.0
C91 C 0.87029 0.29092 0.77181 0.0
C92 C 0.8865 0.22502 0.77499 0.0
C93 C 0.88371 0.25951 0.82814 0.0
O94 O 0.87645 0.26479 0.81314 0.0
O95 O 0.89874 0.25071 0.8281 0.0
O96 O 0.86114 0.27654 0.77639 0.0
O97 O 0.88785 0.29059 0.7743 0.0
O98 O 0.78539 0.89271 0.77867 0.0
Cd99 Cd 0.76333 0.90321 0.79258 0.0
Cd100 Cd 0.74405 0.88117 0.76769 0.0
O101 O 0.76986 0.88027 0.75582 0.0
O102 O 0.77433 0.92429 0.8057 0.0
O103 O 0.75387 0.92735 0.7833 0.0
C104 C 0.76536 0.93484 0.79463 0.0
C105 C 0.71924 0.87668 0.74777 0.0
C106 C 0.78505 0.88475 0.76316 0.0
C107 C 0.74297 0.87215 0.80878 0.0
O108 O 0.73976 0.86755 0.79223 0.0
O109 O 0.75148 0.88696 0.8124 0.0
O110 O 0.73127 0.8641 0.75073 0.0
O111 O 0.7215 0.8924 0.75567 0.0
O112 O 0.20142 0.10042 0.21803 0.0
Cd113 Cd 0.18305 0.08739 0.23501 0.0
Cd114 Cd 0.20081 0.11141 0.26071 0.0
O115 O 0.22013 0.11003 0.23982 0.0
O116 O 0.1744 0.0671 0.21915 0.0
O117 O 0.19081 0.06261 0.24442 0.0
C118 C 0.18308 0.05598 0.22985 0.0
C119 C 0.21181 0.12409 0.28832 0.0
C120 C 0.21677 0.1071 0.22292 0.0
C121 C 0.16027 0.11699 0.24914 0.0
O122 O 0.17535 0.12293 0.25563 0.0
O123 O 0.15949 0.10124 0.24172 0.0
O124 O 0.2108 0.13333 0.27333 0.0
O125 O 0.20741 0.10691 0.28767 0.0
O126 O 0.89436 0.20832 0.21487 0.0
Cd127 Cd 0.90982 0.19644 0.23517 0.0
Cd128 Cd 0.88845 0.21457 0.25817 0.0
O129 O 0.88236 0.22838 0.23407 0.0
O130 O 0.93497 0.19478 0.22532 0.0
O131 O 0.92694 0.21348 0.24818 0.0
C132 C 0.93915 0.20803 0.23644 0.0
C133 C 0.88463 0.23232 0.28458 0.0
C134 C 0.88503 0.22277 0.21774 0.0
C135 C 0.88611 0.17244 0.25601 0.0
O136 O 0.87958 0.18774 0.26136 0.0
O137 O 0.90033 0.17212 0.24588 0.0
O138 O 0.87088 0.22606 0.27545 0.0
O139 O 0.90099 0.22869 0.27875 0.0
O140 O 0.79486 0.90534 0.22234 0.0
Cd141 Cd 0.80432 0.91443 0.24727 0.0
Cd142 Cd 0.78545 0.88705 0.26062 0.0
O143 O 0.77298 0.88882 0.23503 0.0
O144 O 0.80758 0.94093 0.24369 0.0
O145 O 0.78631 0.92893 0.26213 0.0
C146 C 0.79321 0.94313 0.25391 0.0
C147 C 0.76774 0.87538 0.28481 0.0
C148 C 0.78028 0.89591 0.22081 0.0
C149 C 0.82746 0.8857 0.26122 0.0
O150 O 0.81213 0.87735 0.26208 0.0
O151 O 0.82794 0.90261 0.25698 0.0
O152 O 0.77258 0.86547 0.27099 0.0
O153 O 0.77231 0.89253 0.28469 0.0
O154 O 0.10311 0.78125 0.21806 0.0
Cd155 Cd 0.09498 0.79457 0.2415 0.0
Cd156 Cd 0.11381 0.76932 0.25826 0.0
O157 O 0.10853 0.7559 0.23357 0.0
O158 O 0.06971 0.8031 0.23701 0.0
O159 O 0.07685 0.78047 0.25635 0.0
C160 C 0.06447 0.78973 0.24753 0.0
C161 C 0.11874 0.75198 0.28482 0.0
C162 C 0.10621 0.76408 0.21829 0.0
C163 C 0.12813 0.80866 0.25737 0.0
O164 O 0.13153 0.79157 0.25877 0.0
O165 O 0.11241 0.81404 0.25206 0.0
O166 O 0.12942 0.75094 0.27076 0.0
O167 O 0.10415 0.76198 0.28343 0.0
O168 O 0.21067 0.90132 0.77883 0.0
Cd169 Cd 0.19604 0.90965 0.75619 0.0
Cd170 Cd 0.21064 0.87991 0.74093 0.0
O171 O 0.22736 0.88091 0.76397 0.0
O172 O 0.19208 0.93598 0.7607 0.0
O173 O 0.2098 0.92541 0.73821 0.0
C174 C 0.20365 0.93919 0.74763 0.0
C175 C 0.2227 0.86687 0.71411 0.0
C176 C 0.22394 0.89 0.77851 0.0
C177 C 0.16932 0.88112 0.74835 0.0
O178 O 0.18367 0.87195 0.7445 0.0
O179 O 0.1706 0.89805 0.75233 0.0
O180 O 0.21957 0.85735 0.72867 0.0
O181 O 0.21989 0.88438 0.7149 0.0
O182 O 0.09273 0.19727 0.78301 0.0
Cd183 Cd 0.08542 0.18707 0.75778 0.0
Cd184 Cd 0.10497 0.21452 0.74431 0.0
O185 O 0.10197 0.22359 0.77118 0.0
O186 O 0.05933 0.17968 0.75899 0.0
O187 O 0.06949 0.20406 0.74354 0.0
C188 C 0.05585 0.19459 0.7499 0.0
C189 C 0.10907 0.23601 0.72083 0.0
C190 C 0.09808 0.21376 0.78513 0.0
C191 C 0.11836 0.17502 0.7392 0.0
O192 O 0.12157 0.19218 0.73898 0.0
O193 O 0.10321 0.16892 0.74539 0.0
O194 O 0.12067 0.23419 0.73404 0.0
O195 O 0.09413 0.22647 0.72153 0.0
O196 O 0.77859 0.10018 0.7638 0.0
Cd197 Cd 0.79911 0.08895 0.7482 0.0
Cd198 Cd 0.78057 0.1143 0.72184 0.0
O199 O 0.76305 0.11734 0.74409 0.0
O200 O 0.80875 0.0708 0.76604 0.0
O201 O 0.79497 0.06277 0.74016 0.0
C202 C 0.80211 0.05806 0.75573 0.0
C203 C 0.76952 0.12454 0.69341 0.0
C204 C 0.76516 0.11065 0.76009 0.0
C205 C 0.8216 0.11909 0.73262 0.0
O206 O 0.80702 0.12385 0.72433 0.0
O207 O 0.82186 0.10493 0.74282 0.0
O208 O 0.77239 0.13546 0.70696 0.0
O209 O 0.77166 0.10715 0.69613 0.0
O210 O 0.89545 0.76801 0.7711 0.0
Cd211 Cd 0.91025 0.7798 0.7501 0.0
Cd212 Cd 0.88548 0.76312 0.73154 0.0
O213 O 0.88422 0.74576 0.75409 0.0
O214 O 0.93322 0.78602 0.76281 0.0
O215 O 0.93165 0.76518 0.74058 0.0
C216 C 0.94104 0.77321 0.75337 0.0
C217 C 0.87986 0.75403 0.70155 0.0
C218 C 0.88739 0.75259 0.76988 0.0
C219 C 0.88336 0.80416 0.73562 0.0
O220 O 0.87456 0.78912 0.73453 0.0
O221 O 0.90035 0.80394 0.73946 0.0
O222 O 0.86732 0.75326 0.71401 0.0
O223 O 0.89643 0.75807 0.70646 0.0
O224 O 0.22587 0.20925 0.09929 0.0
Cd225 Cd 0.2498 0.19651 0.09183 0.0
Cd226 Cd 0.26496 0.21857 0.117 0.0
O227 O 0.23993 0.23187 0.11368 0.0
O228 O 0.24524 0.18855 0.06642 0.0
O229 O 0.26504 0.21062 0.07378 0.0
C230 C 0.25606 0.20167 0.06128 0.0
C231 C 0.28962 0.23611 0.12789 0.0
C232 C 0.22534 0.22482 0.10712 0.0
C233 C 0.26328 0.17706 0.12379 0.0
O234 O 0.26556 0.19327 0.12986 0.0
O235 O 0.25796 0.17444 0.10738 0.0
O236 O 0.275 0.2334 0.13742 0.0
O237 O 0.29 0.22972 0.11133 0.0
O238 O 0.2291 0.79864 0.90989 0.0
Cd239 Cd 0.25457 0.80822 0.9172 0.0
Cd240 Cd 0.26613 0.78563 0.89233 0.0
O241 O 0.24077 0.77377 0.8973 0.0
O242 O 0.25159 0.81479 0.94321 0.0
O243 O 0.26817 0.79095 0.93362 0.0
C244 C 0.26027 0.79972 0.94695 0.0
C245 C 0.28978 0.76626 0.88239 0.0
C246 C 0.22696 0.78263 0.90329 0.0
C247 C 0.26701 0.8268 0.88478 0.0
O248 O 0.26658 0.81047 0.87857 0.0
O249 O 0.26477 0.82965 0.90187 0.0
O250 O 0.27541 0.76942 0.8726 0.0
O251 O 0.29058 0.77363 0.89853 0.0
O252 O 0.20929 0.21438 0.90099 0.0
Cd253 Cd 0.19671 0.23637 0.91323 0.0
Cd254 Cd 0.21069 0.25455 0.88398 0.0
O255 O 0.22658 0.23092 0.88247 0.0
O256 O 0.1944 0.22798 0.93883 0.0
O257 O 0.21241 0.25115 0.93047 0.0
C258 C 0.20694 0.2398 0.94304 0.0
C259 C 0.22298 0.28113 0.87049 0.0
C260 C 0.22244 0.2155 0.8896 0.0
C261 C 0.16902 0.24847 0.88747 0.0
O262 O 0.18306 0.25255 0.87791 0.0
O263 O 0.1709 0.24284 0.90387 0.0
O264 O 0.21847 0.26692 0.86101 0.0
O265 O 0.22133 0.28011 0.88814 0.0
O266 O 0.77809 0.20523 0.89192 0.0
Cd267 Cd 0.75561 0.19093 0.90138 0.0
Cd268 Cd 0.73788 0.2165 0.88372 0.0
O269 O 0.76196 0.23056 0.88921 0.0
O270 O 0.76503 0.17717 0.92272 0.0
O271 O 0.74515 0.20026 0.92494 0.0
C272 C 0.75587 0.18848 0.93288 0.0
C273 C 0.7108 0.23352 0.88165 0.0
C274 C 0.77745 0.22256 0.89002 0.0
C275 C 0.73833 0.17836 0.86801 0.0
O276 O 0.73807 0.19547 0.86446 0.0
O277 O 0.7427 0.17292 0.884 0.0
O278 O 0.72411 0.23556 0.87019 0.0
O279 O 0.71306 0.22221 0.89514 0.0
O280 O 0.78376 0.77229 0.89251 0.0
Cd281 Cd 0.7985 0.75284 0.90643 0.0
Cd282 Cd 0.77737 0.72912 0.88806 0.0
O283 O 0.76207 0.75289 0.88414 0.0
O284 O 0.80332 0.76273 0.93119 0.0
O285 O 0.78432 0.73939 0.92563 0.0
C286 C 0.79109 0.75123 0.93708 0.0
C287 C 0.76266 0.70098 0.88367 0.0
C288 C 0.76808 0.76927 0.88548 0.0
C289 C 0.81887 0.73224 0.87968 0.0
O290 O 0.80278 0.72688 0.8756 0.0
O291 O 0.82141 0.74265 0.89345 0.0
O292 O 0.76486 0.71262 0.87059 0.0
O293 O 0.76751 0.70573 0.90006 0.0
O294 O 0.77471 0.78697 0.09898 0.0
Cd295 Cd 0.75345 0.80176 0.08788 0.0
Cd296 Cd 0.73504 0.78632 0.11593 0.0
O297 O 0.75835 0.77014 0.11816 0.0
O298 O 0.76205 0.80631 0.06257 0.0
O299 O 0.73817 0.78851 0.06912 0.0
C300 C 0.74967 0.79484 0.05711 0.0
C301 C 0.70671 0.77441 0.12532 0.0
C302 C 0.77361 0.7739 0.1105 0.0
C303 C 0.74223 0.82778 0.11605 0.0
O304 O 0.73746 0.81319 0.12436 0.0
O305 O 0.74806 0.82697 0.09961 0.0
O306 O 0.71982 0.77763 0.13672 0.0
O307 O 0.70993 0.77682 0.10803 0.0
O308 O 0.19302 0.77403 0.09086 0.0
Cd309 Cd 0.18338 0.75024 0.07953 0.0
Cd310 Cd 0.20384 0.73382 0.10514 0.0
O311 O 0.21598 0.7597 0.10433 0.0
O312 O 0.18101 0.75588 0.05324 0.0
O313 O 0.20212 0.73685 0.06463 0.0
C314 C 0.19585 0.74635 0.05093 0.0
C315 C 0.22169 0.71005 0.11748 0.0
C316 C 0.2083 0.77456 0.09922 0.0
C317 C 0.16153 0.73276 0.10714 0.0
O318 O 0.17721 0.73091 0.11458 0.0
O319 O 0.16006 0.73944 0.0911 0.0
O320 O 0.21647 0.72392 0.12709 0.0
O321 O 0.2176 0.70995 0.10021 0.0
O322 O 0.7688 0.21802 0.10063 0.0
Cd323 Cd 0.78645 0.2357 0.08776 0.0
Cd324 Cd 0.7664 0.26119 0.11173 0.0
O325 O 0.75082 0.23762 0.11526 0.0
O326 O 0.79724 0.2188 0.06942 0.0
O327 O 0.78002 0.24268 0.06179 0.0
C328 C 0.78877 0.22801 0.0569 0.0
C329 C 0.75178 0.28837 0.12108 0.0
C330 C 0.75479 0.2213 0.11045 0.0
C331 C 0.80806 0.25472 0.11648 0.0
O332 O 0.79283 0.26139 0.12178 0.0
O333 O 0.80895 0.24454 0.10233 0.0
O334 O 0.75496 0.27502 0.13214 0.0
O335 O 0.7563 0.2863 0.10406 0.0
O336 O 0.59097 0.72966 0.69112 0.0
Cd337 Cd 0.57195 0.74042 0.67254 0.0
Cd338 Cd 0.60836 0.77187 0.69233 0.0
O339 O 0.61256 0.74672 0.70489 0.0
O340 O 0.55585 0.71967 0.66564 0.0
O341 O 0.54693 0.74318 0.68309 0.0
C342 C 0.54357 0.72715 0.67609 0.0
C343 C 0.62459 0.79783 0.70052 0.0
C344 C 0.60443 0.73137 0.70227 0.0
C345 C 0.59138 0.76743 0.65597 0.0
O346 O 0.58863 0.77187 0.67261 0.0
O347 O 0.5812 0.75477 0.64978 0.0
O348 O 0.63105 0.78639 0.68852 0.0
O349 O 0.60886 0.79429 0.70806 0.0
O350 O 0.26247 0.59004 0.71271 0.0
Cd351 Cd 0.23761 0.58212 0.70202 0.0
Cd352 Cd 0.22619 0.61111 0.72115 0.0
O353 O 0.25075 0.60694 0.73486 0.0
O354 O 0.24338 0.5568 0.69463 0.0
O355 O 0.22415 0.56345 0.71733 0.0
C356 C 0.23373 0.55135 0.70848 0.0
C357 C 0.20225 0.62509 0.73738 0.0
C358 C 0.26444 0.59886 0.72762 0.0
C359 C 0.22714 0.61277 0.6792 0.0
O360 O 0.22715 0.62106 0.69458 0.0
O361 O 0.22907 0.59544 0.67864 0.0
O362 O 0.21722 0.63361 0.73343 0.0
O363 O 0.20106 0.60795 0.73292 0.0
O364 O 0.39429 0.28204 0.69675 0.0
Cd365 Cd 0.40577 0.26217 0.68034 0.0
Cd366 Cd 0.38886 0.24007 0.70329 0.0
O367 O 0.39245 0.26285 0.71995 0.0
O368 O 0.4272 0.27442 0.66922 0.0
O369 O 0.42931 0.25198 0.68988 0.0
C370 C 0.4372 0.26466 0.68017 0.0
C371 C 0.38596 0.212 0.71866 0.0
C372 C 0.39212 0.2792 0.71383 0.0
C373 C 0.37403 0.24489 0.66467 0.0
O374 O 0.37053 0.2417 0.68151 0.0
O375 O 0.3897 0.25104 0.66011 0.0
O376 O 0.37421 0.22505 0.72051 0.0
O377 O 0.40004 0.21487 0.70827 0.0
O378 O 0.71437 0.4076 0.70292 0.0
Cd379 Cd 0.7375 0.41783 0.69084 0.0
Cd380 Cd 0.75494 0.39122 0.71054 0.0
O381 O 0.72952 0.39156 0.72366 0.0
O382 O 0.73158 0.44378 0.68596 0.0
O383 O 0.75221 0.43483 0.70664 0.0
C384 C 0.74255 0.44787 0.69932 0.0
C385 C 0.77969 0.37972 0.72772 0.0
C386 C 0.71448 0.39799 0.71747 0.0
C387 C 0.75335 0.38908 0.66827 0.0
O388 O 0.75677 0.38178 0.68377 0.0
O389 O 0.74616 0.40494 0.6673 0.0
O390 O 0.76594 0.36967 0.72306 0.0
O391 O 0.77921 0.39691 0.72331 0.0
O392 O 0.60341 0.28131 0.2701 0.0
Cd393 Cd 0.60088 0.2578 0.28549 0.0
Cd394 Cd 0.62463 0.24702 0.26285 0.0
O395 O 0.61469 0.26744 0.2458 0.0
O396 O 0.57719 0.26122 0.29839 0.0
O397 O 0.58167 0.24016 0.27681 0.0
C398 C 0.57053 0.24877 0.28763 0.0
C399 C 0.62541 0.2159 0.25636 0.0
C400 C 0.60786 0.28171 0.25322 0.0
C401 C 0.63792 0.25503 0.30029 0.0
O402 O 0.64248 0.25518 0.2834 0.0
O403 O 0.62111 0.25312 0.30471 0.0
O404 O 0.63656 0.2272 0.24837 0.0
O405 O 0.61298 0.22251 0.2672 0.0
O406 O 0.73138 0.60112 0.28615 0.0
Cd407 Cd 0.74712 0.59017 0.30677 0.0
Cd408 Cd 0.77437 0.6132 0.28776 0.0
O409 O 0.75282 0.61426 0.26911 0.0
O410 O 0.73008 0.57192 0.31754 0.0
O411 O 0.75588 0.56412 0.3034 0.0
C412 C 0.74085 0.55925 0.31151 0.0
C413 C 0.80292 0.62334 0.27686 0.0
C414 C 0.73616 0.60956 0.27163 0.0
C415 C 0.76268 0.62088 0.32809 0.0
O416 O 0.77106 0.62499 0.31335 0.0
O417 O 0.75271 0.60661 0.32895 0.0
O418 O 0.78897 0.63402 0.27829 0.0
O419 O 0.80058 0.60611 0.28033 0.0
O420 O 0.40065 0.71513 0.2805 0.0
Cd421 Cd 0.41515 0.73415 0.29519 0.0
Cd422 Cd 0.39845 0.75735 0.26934 0.0
O423 O 0.40005 0.73229 0.25563 0.0
O424 O 0.43453 0.71895 0.30655 0.0
O425 O 0.44 0.7398 0.28492 0.0
C426 C 0.44579 0.72627 0.29493 0.0
C427 C 0.39078 0.78239 0.2505 0.0
C428 C 0.39846 0.71665 0.26327 0.0
C429 C 0.38696 0.75725 0.31042 0.0
O430 O 0.38361 0.76023 0.29352 0.0
O431 O 0.40115 0.74825 0.31513 0.0
O432 O 0.37998 0.76865 0.25293 0.0
O433 O 0.40678 0.78173 0.25813 0.0
O434 O 0.28075 0.40297 0.30145 0.0
Cd435 Cd 0.25622 0.41287 0.31108 0.0
Cd436 Cd 0.24248 0.38578 0.29165 0.0
O437 O 0.26808 0.38688 0.2792 0.0
O438 O 0.26101 0.43918 0.31501 0.0
O439 O 0.24233 0.42858 0.29327 0.0
C440 C 0.25118 0.44222 0.30052 0.0
C441 C 0.21759 0.37446 0.27467 0.0
C442 C 0.28232 0.39352 0.28687 0.0
C443 C 0.24227 0.38371 0.33368 0.0
O444 O 0.24134 0.37577 0.31815 0.0
O445 O 0.24641 0.40065 0.33459 0.0
O446 O 0.23145 0.36438 0.27894 0.0
O447 O 0.21819 0.39164 0.27911 0.0
O448 O 0.71768 0.61063 0.72164 0.0
Cd449 Cd 0.70039 0.5999 0.74119 0.0
Cd450 Cd 0.71626 0.62331 0.76219 0.0
O451 O 0.73547 0.62493 0.74145 0.0
O452 O 0.69413 0.5755 0.73116 0.0
O453 O 0.71097 0.57946 0.7563 0.0
C454 C 0.70442 0.56856 0.74385 0.0
C455 C 0.72634 0.62287 0.7925 0.0
C456 C 0.73213 0.61974 0.72513 0.0
C457 C 0.67723 0.63105 0.75156 0.0
O458 O 0.69227 0.6376 0.75756 0.0
O459 O 0.67653 0.61445 0.74608 0.0
O460 O 0.72841 0.63709 0.78217 0.0
O461 O 0.71863 0.60843 0.78563 0.0
O462 O 0.39509 0.68821 0.72818 0.0
Cd463 Cd 0.40869 0.67103 0.74589 0.0
Cd464 Cd 0.38717 0.69257 0.77109 0.0
O465 O 0.38935 0.70983 0.74857 0.0
O466 O 0.42759 0.66039 0.72947 0.0
O467 O 0.43413 0.67915 0.75258 0.0
C468 C 0.4395 0.67017 0.7382 0.0
C469 C 0.37511 0.70747 0.79715 0.0
C470 C 0.39038 0.70458 0.73194 0.0
C471 C 0.37888 0.65143 0.76324 0.0
O472 O 0.37409 0.66743 0.76839 0.0
O473 O 0.39441 0.64891 0.75573 0.0
O474 O 0.3658 0.705 0.78239 0.0
O475 O 0.39197 0.70198 0.79719 0.0
O476 O 0.29185 0.40129 0.71833 0.0
Cd477 Cd 0.30266 0.40987 0.7428 0.0
Cd478 Cd 0.2823 0.38389 0.75768 0.0
O479 O 0.26937 0.38671 0.73233 0.0
O480 O 0.30652 0.43637 0.73972 0.0
O481 O 0.28525 0.42445 0.75822 0.0
C482 C 0.29223 0.43866 0.75007 0.0
C483 C 0.2645 0.37275 0.78204 0.0
C484 C 0.2765 0.39307 0.71767 0.0
C485 C 0.32423 0.3801 0.75719 0.0
O486 O 0.30846 0.37282 0.75907 0.0
O487 O 0.32577 0.3966 0.75177 0.0
O488 O 0.26824 0.36293 0.76783 0.0
O489 O 0.27016 0.38957 0.78221 0.0
O490 O 0.59532 0.28367 0.72824 0.0
Cd491 Cd 0.58281 0.30216 0.74551 0.0
Cd492 Cd 0.61198 0.28521 0.76808 0.0
O493 O 0.61454 0.26795 0.74569 0.0
O494 O 0.56567 0.3125 0.72709 0.0
O495 O 0.55613 0.29649 0.75102 0.0
C496 C 0.55242 0.30466 0.7357 0.0
C497 C 0.62192 0.27445 0.79668 0.0
C498 C 0.60677 0.27068 0.7303 0.0
C499 C 0.61278 0.32647 0.7589 0.0
O500 O 0.6205 0.3119 0.76458 0.0
O501 O 0.59666 0.32593 0.75223 0.0
O502 O 0.63307 0.27746 0.78332 0.0
O503 O 0.60456 0.27644 0.79367 0.0
O504 O 0.70188 0.3886 0.2862 0.0
Cd505 Cd 0.68844 0.40785 0.27083 0.0
Cd506 Cd 0.7103 0.38969 0.24187 0.0
O507 O 0.72465 0.38524 0.26644 0.0
O508 O 0.68204 0.42752 0.28841 0.0
O509 O 0.70207 0.4311 0.26563 0.0
C510 C 0.69398 0.43766 0.28006 0.0
C511 C 0.7239 0.37695 0.21562 0.0
C512 C 0.71807 0.38325 0.28255 0.0
C513 C 0.66676 0.38943 0.24361 0.0
O514 O 0.68253 0.38465 0.23784 0.0
O515 O 0.66525 0.40017 0.25722 0.0
O516 O 0.71793 0.36707 0.22898 0.0
O517 O 0.72378 0.39458 0.21771 0.0
O518 O 0.60014 0.69503 0.27224 0.0
Cd519 Cd 0.59309 0.68115 0.24883 0.0
Cd520 Cd 0.61163 0.70905 0.23255 0.0
O521 O 0.60698 0.72091 0.25805 0.0
O522 O 0.5717 0.66656 0.25689 0.0
O523 O 0.56973 0.69008 0.23752 0.0
C524 C 0.56164 0.67813 0.24795 0.0
C525 C 0.61596 0.72887 0.20759 0.0
C526 C 0.60378 0.71208 0.27279 0.0
C527 C 0.62771 0.67027 0.2321 0.0
O528 O 0.63004 0.68752 0.23067 0.0
O529 O 0.61247 0.66385 0.23771 0.0
O530 O 0.62685 0.72867 0.2215 0.0
O531 O 0.60168 0.71835 0.2081 0.0
O532 O 0.29909 0.59557 0.27092 0.0
Cd533 Cd 0.30871 0.58423 0.24709 0.0
Cd534 Cd 0.28851 0.61102 0.23122 0.0
O535 O 0.27719 0.61152 0.25746 0.0
O536 O 0.31374 0.55863 0.25415 0.0
O537 O 0.29148 0.56659 0.23481 0.0
C538 C 0.29936 0.55411 0.24476 0.0
C539 C 0.27052 0.62293 0.20733 0.0
C540 C 0.28473 0.60539 0.272 0.0
C541 C 0.33073 0.61209 0.22941 0.0
O542 O 0.31521 0.61987 0.2276 0.0
O543 O 0.33188 0.59606 0.23618 0.0
O544 O 0.27619 0.63289 0.22077 0.0
O545 O 0.27416 0.60557 0.20781 0.0
O546 O 0.39989 0.2784 0.29411 0.0
Cd547 Cd 0.41336 0.29334 0.27443 0.0
Cd548 Cd 0.38875 0.27773 0.25185 0.0
O549 O 0.388 0.25946 0.27375 0.0
O550 O 0.43888 0.29542 0.28307 0.0
O551 O 0.4306 0.27917 0.2585 0.0
C552 C 0.44322 0.28412 0.27005 0.0
C553 C 0.37675 0.26706 0.22392 0.0
C554 C 0.39161 0.26351 0.29037 0.0
C555 C 0.38692 0.3191 0.26092 0.0
O556 O 0.37939 0.30433 0.25545 0.0
O557 O 0.40285 0.31864 0.26796 0.0
O558 O 0.36683 0.26908 0.23838 0.0
O559 O 0.39419 0.26994 0.22543 0.0
O560 O 0.71853 0.73253 0.61018 0.0
Cd561 Cd 0.74075 0.72028 0.59766 0.0
Cd562 Cd 0.75668 0.74244 0.62062 0.0
O563 O 0.73257 0.75748 0.61967 0.0
O564 O 0.72764 0.70529 0.57918 0.0
O565 O 0.74602 0.72829 0.57165 0.0
C566 C 0.73439 0.71582 0.56668 0.0
C567 C 0.78596 0.7546 0.61827 0.0
C568 C 0.71778 0.74874 0.61661 0.0
C569 C 0.75824 0.70279 0.62905 0.0
O570 O 0.75684 0.71868 0.63621 0.0
O571 O 0.75509 0.70069 0.61202 0.0
O572 O 0.77551 0.7582 0.63216 0.0
O573 O 0.77912 0.74532 0.60472 0.0
O574 O 0.73719 0.30528 0.39423 0.0
Cd575 Cd 0.75007 0.31795 0.41629 0.0
Cd576 Cd 0.77952 0.31064 0.37701 0.0
O577 O 0.75393 0.30124 0.36865 0.0
O578 O 0.7337 0.31592 0.43782 0.0
O579 O 0.76035 0.30111 0.43526 0.0
C580 C 0.7453 0.30409 0.44429 0.0
C581 C 0.80648 0.29999 0.36436 0.0
C582 C 0.73888 0.29977 0.37763 0.0
C583 C 0.77129 0.34181 0.39923 0.0
O584 O 0.77984 0.32665 0.39974 0.0
O585 O 0.7597 0.34428 0.41193 0.0
O586 O 0.79915 0.31512 0.35853 0.0
O587 O 0.7983 0.29091 0.3773 0.0
O588 O 0.70003 0.72077 0.39949 0.0
Cd589 Cd 0.68347 0.7399 0.41186 0.0
Cd590 Cd 0.70252 0.76286 0.38729 0.0
O591 O 0.72049 0.74091 0.39002 0.0
O592 O 0.67489 0.72637 0.43377 0.0
O593 O 0.69286 0.75093 0.43534 0.0
C594 C 0.68477 0.73737 0.44353 0.0
C595 C 0.71632 0.78898 0.37417 0.0
C596 C 0.71586 0.72437 0.39316 0.0
C597 C 0.66141 0.75372 0.38184 0.0
O598 O 0.67688 0.75886 0.37554 0.0
O599 O 0.66021 0.74738 0.39804 0.0
O600 O 0.71415 0.77388 0.36531 0.0
O601 O 0.71101 0.78939 0.3911 0.0
O602 O 0.28432 0.71987 0.3913 0.0
Cd603 Cd 0.26757 0.70247 0.40588 0.0
Cd604 Cd 0.24286 0.7191 0.3804 0.0
O605 O 0.26402 0.73795 0.37793 0.0
O606 O 0.28566 0.69391 0.42428 0.0
O607 O 0.26109 0.71011 0.43177 0.0
C608 C 0.27636 0.70246 0.43664 0.0
C609 C 0.21332 0.72778 0.37113 0.0
C610 C 0.28058 0.73418 0.38204 0.0
C611 C 0.25332 0.6782 0.37736 0.0
O612 O 0.24748 0.69304 0.37027 0.0
O613 O 0.26026 0.67825 0.39336 0.0
O614 O 0.22683 0.72672 0.35982 0.0
O615 O 0.21669 0.72538 0.38838 0.0
O616 O 0.2855 0.2728 0.40956 0.0
Cd617 Cd 0.29397 0.2473 0.41792 0.0
Cd618 Cd 0.27283 0.23452 0.39151 0.0
O619 O 0.26286 0.26124 0.39316 0.0
O620 O 0.29792 0.24915 0.44455 0.0
O621 O 0.27501 0.23327 0.432 0.0
C622 C 0.2828 0.24002 0.44652 0.0
C623 C 0.25292 0.21186 0.38043 0.0
C624 C 0.27097 0.27506 0.4002 0.0
C625 C 0.31456 0.23049 0.38849 0.0
O626 O 0.2988 0.22993 0.38101 0.0
O627 O 0.31635 0.23625 0.40485 0.0
O628 O 0.25831 0.22541 0.37044 0.0
O629 O 0.258 0.21157 0.39743 0.0
O630 O 0.2596 0.28989 0.59699 0.0
Cd631 Cd 0.23658 0.30281 0.5872 0.0
Cd632 Cd 0.22221 0.28723 0.61663 0.0
O633 O 0.24543 0.2708 0.61569 0.0
O634 O 0.24399 0.30656 0.56154 0.0
O635 O 0.22155 0.28755 0.56974 0.0
C636 C 0.23271 0.29356 0.55726 0.0
C637 C 0.19528 0.27585 0.62975 0.0
C638 C 0.25993 0.2759 0.60739 0.0
C639 C 0.22812 0.32889 0.6155 0.0
O640 O 0.22576 0.31415 0.62456 0.0
O641 O 0.23097 0.32819 0.59829 0.0
O642 O 0.20994 0.27857 0.63923 0.0
O643 O 0.19613 0.27832 0.61219 0.0
O644 O 0.70357 0.28383 0.59784 0.0
Cd645 Cd 0.69042 0.26057 0.5885 0.0
Cd646 Cd 0.71411 0.2435 0.60808 0.0
O647 O 0.72838 0.26777 0.60397 0.0
O648 O 0.68297 0.26507 0.56276 0.0
O649 O 0.70532 0.24588 0.57096 0.0
C650 C 0.6965 0.25448 0.55812 0.0
C651 C 0.73061 0.2161 0.61034 0.0
C652 C 0.72056 0.28324 0.60181 0.0
C653 C 0.67491 0.24476 0.62129 0.0
O654 O 0.69179 0.24373 0.62569 0.0
O655 O 0.67047 0.24927 0.605 0.0
O656 O 0.73218 0.22904 0.62231 0.0
O657 O 0.72009 0.21891 0.59633 0.0
O658 O 0.28949 0.7098 0.60162 0.0
Cd659 Cd 0.30672 0.73077 0.5942 0.0
Cd660 Cd 0.283 0.75145 0.61699 0.0
O661 O 0.26835 0.72709 0.61478 0.0
O662 O 0.31998 0.72048 0.57288 0.0
O663 O 0.30042 0.74378 0.57075 0.0
C664 C 0.31102 0.73194 0.56276 0.0
C665 C 0.26546 0.77715 0.6255 0.0
C666 C 0.27381 0.7115 0.60907 0.0
C667 C 0.32354 0.74637 0.62757 0.0
O668 O 0.30738 0.75165 0.63151 0.0
O669 O 0.32683 0.73827 0.61248 0.0
O670 O 0.26745 0.76312 0.63601 0.0
O671 O 0.27294 0.77654 0.60942 0.0
H672 H 0.96263 0.20543 0.20753 0.0
H673 H 0.95445 0.23419 0.25922 0.0
H674 H 0.98184 0.25344 0.25267 0.0
H675 H 0.01161 0.20461 0.20812 0.0
H676 H 0.01344 0.20807 0.18363 0.0
H677 H 0.99356 0.19675 0.19303 0.0
H678 H 0.97265 0.22073 0.17685 0.0
H679 H 0.99254 0.2324 0.16779 0.0
H680 H 0.97599 0.24488 0.1814 0.0
H681 H 0.01104 0.26881 0.24039 0.0
H682 H 0.03999 0.27735 0.22459 0.0
H683 H 0.02659 0.23971 0.18021 0.0
C684 C 0.96668 0.2156 0.21764 0.0
C685 C 0.95655 0.21819 0.23398 0.0
C686 C 0.96215 0.23188 0.24667 0.0
C687 C 0.97758 0.24296 0.243 0.0
C688 C 0.98699 0.2403 0.22648 0.0
C689 C 0.98172 0.2269 0.21406 0.0
C690 C 0.99398 0.22662 0.19732 0.0
C691 C 0.00373 0.20791 0.19543 0.0
C692 C 0.98313 0.23145 0.17981 0.0
C693 C 0.00728 0.24174 0.20234 0.0
C694 C 0.00307 0.24957 0.21915 0.0
C695 C 0.01433 0.26293 0.22711 0.0
C696 C 0.03067 0.26779 0.21798 0.0
C697 C 0.03549 0.25931 0.20109 0.0
C698 C 0.02322 0.24669 0.19294 0.0
H699 H 0.79665 0.9695 0.22808 0.0
H700 H 0.76661 0.95596 0.27784 0.0
H701 H 0.74764 0.98412 0.27383 0.0
H702 H 0.79737 0.01823 0.23304 0.0
H703 H 0.79428 0.0221 0.20874 0.0
H704 H 0.80555 0.00155 0.21661 0.0
H705 H 0.78195 0.98196 0.19833 0.0
H706 H 0.77031 0.00248 0.19081 0.0
H707 H 0.75773 0.98478 0.20278 0.0
H708 H 0.73286 0.01488 0.26424 0.0
H709 H 0.72446 0.045 0.25064 0.0
H710 H 0.76257 0.03509 0.20577 0.0
C711 C 0.78633 0.97256 0.23838 0.0
C712 C 0.78329 0.96078 0.25346 0.0
C713 C 0.76928 0.96501 0.26631 0.0
C714 C 0.75839 0.98086 0.26406 0.0
C715 C 0.7615 0.99195 0.24868 0.0
C716 C 0.77514 0.98787 0.23608 0.0
C717 C 0.77563 0.00147 0.22045 0.0
C718 C 0.79431 0.01143 0.21968 0.0
C719 C 0.77113 0.99211 0.20201 0.0
C720 C 0.7604 0.0142 0.22635 0.0
C721 C 0.75234 0.00862 0.24265 0.0
C722 C 0.7389 0.01921 0.25134 0.0
C723 C 0.73413 0.03623 0.24347 0.0
C724 C 0.74272 0.0423 0.22705 0.0
C725 C 0.75548 0.03075 0.21814 0.0
H726 H 0.03802 0.80074 0.22358 0.0
H727 H 0.04808 0.763 0.26873 0.0
H728 H 0.01812 0.74796 0.26269 0.0
H729 H 0.98829 0.80493 0.22917 0.0
H730 H 0.98461 0.80561 0.20465 0.0
H731 H 0.00571 0.81433 0.21422 0.0
H732 H 0.02402 0.79249 0.19274 0.0
H733 H 0.00297 0.78329 0.18353 0.0
H734 H 0.01972 0.76808 0.19365 0.0
H735 H 0.98739 0.73625 0.25041 0.0
H736 H 0.95784 0.73048 0.23445 0.0
H737 H 0.97013 0.77467 0.19622 0.0
C738 C 0.03376 0.78965 0.23257 0.0
C739 C 0.04529 0.78317 0.24676 0.0
C740 C 0.03934 0.76832 0.25791 0.0
C741 C 0.02243 0.75962 0.25449 0.0
C742 C 0.01179 0.76587 0.23981 0.0
C743 C 0.01719 0.78066 0.22916 0.0
C744 C 0.00387 0.78424 0.21364 0.0
C745 C 0.9951 0.80341 0.21554 0.0
C746 C 0.01321 0.78188 0.19478 0.0
C747 C 0.99008 0.76914 0.21716 0.0
C748 C 0.99477 0.75869 0.23232 0.0
C749 C 0.98363 0.74433 0.23848 0.0
C750 C 0.96696 0.74105 0.22925 0.0
C751 C 0.96178 0.75199 0.21398 0.0
C752 C 0.97379 0.76584 0.20765 0.0
H753 H 0.241 0.96406 0.21592 0.0
H754 H 0.20213 0.94985 0.17285 0.0
H755 H 0.18465 0.97814 0.17927 0.0
H756 H 0.20824 0.98193 0.24736 0.0
H757 H 0.22256 0.00044 0.25554 0.0
H758 H 0.23291 0.97959 0.24705 0.0
H759 H 0.252 0.99821 0.22338 0.0
H760 H 0.24203 0.01915 0.23208 0.0
H761 H 0.24041 0.01376 0.20793 0.0
H762 H 0.17075 0.00698 0.19083 0.0
H763 H 0.16288 0.0368 0.20491 0.0
H764 H 0.21023 0.03232 0.24101 0.0
C765 C 0.22903 0.96712 0.2076 0.0
C766 C 0.22293 0.95482 0.19386 0.0
C767 C 0.20704 0.95911 0.18344 0.0
C768 C 0.19697 0.97509 0.18703 0.0
C769 C 0.20295 0.98659 0.2011 0.0
C770 C 0.21872 0.98299 0.21108 0.0
C771 C 0.22195 0.99765 0.22555 0.0
C772 C 0.22138 0.9894 0.24503 0.0
C773 C 0.24017 0.0078 0.22201 0.0
C774 C 0.20554 0.01 0.22209 0.0
C775 C 0.19474 0.00327 0.20798 0.0
C776 C 0.17907 0.01242 0.20191 0.0
C777 C 0.17467 0.02929 0.21005 0.0
C778 C 0.18587 0.03677 0.22411 0.0
C779 C 0.20124 0.02676 0.23051 0.0
H780 H 0.95944 0.78246 0.78435 0.0
H781 H 0.96346 0.7482 0.7356 0.0
H782 H 0.99254 0.73491 0.74758 0.0
H783 H 0.00688 0.79228 0.78957 0.0
H784 H 0.00584 0.79145 0.81434 0.0
H785 H 0.98582 0.79793 0.80138 0.0
H786 H 0.96733 0.772 0.81753 0.0
H787 H 0.98747 0.76514 0.83021 0.0
H788 H 0.97542 0.74859 0.81621 0.0
H789 H 0.022 0.72648 0.76499 0.0
H790 H 0.04953 0.72514 0.78497 0.0
H791 H 0.02369 0.76341 0.82282 0.0
C792 C 0.96646 0.7723 0.77601 0.0
C793 C 0.95932 0.76648 0.75895 0.0
C794 C 0.96883 0.75295 0.74866 0.0
C795 C 0.98524 0.74525 0.75542 0.0
C796 C 0.99164 0.75104 0.77258 0.0
C797 C 0.98249 0.7643 0.78265 0.0
C798 C 0.99202 0.7684 0.8006 0.0
C799 C 0.998 0.78871 0.80151 0.0
C800 C 0.97983 0.76322 0.81711 0.0
C801 C 0.00829 0.75568 0.79898 0.0
C802 C 0.00789 0.74567 0.7828 0.0
C803 C 0.02231 0.73406 0.7778 0.0
C804 C 0.03784 0.7333 0.78929 0.0
C805 C 0.0387 0.74408 0.80552 0.0
C806 C 0.02339 0.75478 0.81068 0.0
H807 H 0.22263 0.03774 0.78704 0.0
H808 H 0.2725 0.04019 0.7543 0.0
H809 H 0.26437 0.01026 0.74 0.0
H810 H 0.22261 0.98964 0.7956 0.0
H811 H 0.19794 0.98788 0.79397 0.0
H812 H 0.20833 0.00907 0.80139 0.0
H813 H 0.19098 0.02635 0.77541 0.0
H814 H 0.1809 0.00509 0.76763 0.0
H815 H 0.19391 0.01912 0.75186 0.0
H816 H 0.25046 0.97938 0.72994 0.0
H817 H 0.23352 0.94995 0.72692 0.0
H818 H 0.19226 0.97009 0.76507 0.0
C819 C 0.23203 0.03197 0.77701 0.0
C820 C 0.24828 0.0412 0.77188 0.0
C821 C 0.26003 0.03323 0.75853 0.0
C822 C 0.25544 0.01635 0.75024 0.0
C823 C 0.23899 0.00787 0.75533 0.0
C824 C 0.22755 0.01545 0.76848 0.0
C825 C 0.2107 0.00384 0.77175 0.0
C826 C 0.20986 0.99721 0.79186 0.0
C827 C 0.19309 0.01422 0.76633 0.0
C828 C 0.21454 0.98821 0.75868 0.0
C829 C 0.23083 0.99072 0.74919 0.0
C830 C 0.2376 0.97738 0.73717 0.0
C831 C 0.22783 0.96077 0.73543 0.0
C832 C 0.21154 0.95778 0.74571 0.0
C833 C 0.20457 0.97199 0.7569 0.0
H834 H 0.02636 0.18218 0.76923 0.0
H835 H 0.04355 0.2254 0.73181 0.0
H836 H 0.01476 0.24232 0.73828 0.0
H837 H 0.97612 0.18517 0.76049 0.0
H838 H 0.97103 0.18095 0.78439 0.0
H839 H 0.9913 0.17108 0.77412 0.0
H840 H 0.01112 0.18622 0.79961 0.0
H841 H 0.99104 0.19662 0.80963 0.0
H842 H 0.01018 0.21081 0.80278 0.0
H843 H 0.98537 0.25598 0.75162 0.0
H844 H 0.95709 0.26393 0.76896 0.0
H845 H 0.96121 0.21237 0.79879 0.0
C846 C 0.02382 0.19486 0.76184 0.0
C847 C 0.03712 0.20239 0.74989 0.0
C848 C 0.03344 0.21928 0.74088 0.0
C849 C 0.01718 0.22904 0.74455 0.0
C850 C 0.00483 0.22169 0.75724 0.0
C851 C 0.00789 0.20485 0.76555 0.0
C852 C 0.99342 0.2006 0.77983 0.0
C853 C 0.9823 0.18344 0.77437 0.0
C854 C 0.00196 0.19844 0.79909 0.0
C855 C 0.98192 0.21782 0.77857 0.0
C856 C 0.98852 0.22979 0.76536 0.0
C857 C 0.98003 0.24665 0.76192 0.0
C858 C 0.96409 0.25112 0.77192 0.0
C859 C 0.95706 0.23886 0.78534 0.0
C860 C 0.96632 0.22216 0.78879 0.0
H861 H 0.78109 0.02972 0.7422 0.0
H862 H 0.81899 0.04408 0.78608 0.0
H863 H 0.81216 0.01476 0.80161 0.0
H864 H 0.74733 0.00909 0.77033 0.0
H865 H 0.7417 0.99083 0.75453 0.0
H866 H 0.75029 0.01243 0.74593 0.0
H867 H 0.77684 0.99567 0.72903 0.0
H868 H 0.76804 0.97399 0.73717 0.0
H869 H 0.79156 0.98031 0.74175 0.0
H870 H 0.8 0.98512 0.81336 0.0
H871 H 0.78643 0.95451 0.81857 0.0
H872 H 0.7563 0.95913 0.76719 0.0
C873 C 0.78827 0.02649 0.75484 0.0
C874 C 0.80059 0.03916 0.76292 0.0
C875 C 0.80952 0.03456 0.77963 0.0
C876 C 0.80565 0.018 0.78862 0.0
C877 C 0.79286 0.00618 0.7807 0.0
C878 C 0.78454 0.01 0.76405 0.0
C879 C 0.77125 0.99489 0.75864 0.0
C880 C 0.75147 0.00226 0.75728 0.0
C881 C 0.77729 0.98567 0.74058 0.0
C882 C 0.7734 0.98204 0.7749 0.0
C883 C 0.78583 0.98893 0.78751 0.0
C884 C 0.7903 0.97951 0.80356 0.0
C885 C 0.78243 0.96219 0.80644 0.0
C886 C 0.77029 0.95446 0.79331 0.0
C887 C 0.76535 0.96477 0.77759 0.0
H888 H 0.23551 0.1874 0.03364 0.0
H889 H 0.2737 0.23157 0.046 0.0
H890 H 0.26595 0.24639 0.01631 0.0
H891 H 0.24173 0.18647 0.98324 0.0
H892 H 0.2176 0.18206 0.97968 0.0
H893 H 0.22879 0.17377 0.00017 0.0
H894 H 0.20436 0.19069 0.01992 0.0
H895 H 0.19345 0.19951 -0.00044 0.0
H896 H 0.20128 0.21514 0.01715 0.0
H897 H 0.25138 0.2577 0.98615 0.0
H898 H 0.23294 0.26316 0.95793 0.0
H899 H 0.20307 0.21247 0.96805 0.0
C900 C 0.24275 0.19988 0.02991 0.0
C901 C 0.25531 0.20825 0.04208 0.0
C902 C 0.26418 0.22478 0.03677 0.0
C903 C 0.25977 0.23336 0.02 0.0
C904 C 0.24647 0.22521 0.00882 0.0
C905 C 0.23829 0.2087 0.01353 0.0
C906 C 0.22333 0.20341 0.00017 0.0
C907 C 0.22816 0.18536 0.99022 0.0
C908 C 0.2045 0.20212 0.00978 0.0
C909 C 0.22413 0.21963 0.98728 0.0
C910 C 0.23763 0.23203 0.99227 0.0
C911 C 0.2408 0.24803 0.98212 0.0
C912 C 0.23019 0.2511 0.96623 0.0
C913 C 0.21645 0.23835 0.96091 0.0
C914 C 0.21329 0.22264 0.97182 0.0
H915 H 0.2357 0.80999 0.97295 0.0
H916 H 0.27648 0.76821 0.9606 0.0
H917 H 0.26475 0.74936 0.98651 0.0
H918 H 0.23336 0.80392 0.02321 0.0
H919 H 0.20883 0.80746 0.02313 0.0
H920 H 0.22299 0.81865 0.00617 0.0
H921 H 0.20284 0.80429 0.98047 0.0
H922 H 0.18904 0.79249 0.99728 0.0
H923 H 0.20031 0.77964 0.97932 0.0
H924 H 0.24649 0.73426 0.01298 0.0
H925 H 0.22439 0.72519 0.03745 0.0
H926 H 0.19402 0.77571 0.02829 0.0
C927 C 0.2427 0.79721 0.97604 0.0
C928 C 0.25719 0.7907 0.96491 0.0
C929 C 0.26553 0.7736 0.96916 0.0
C930 C 0.25887 0.76275 0.98375 0.0
C931 C 0.24376 0.76915 0.99373 0.0
C932 C 0.23591 0.78608 0.99005 0.0
C933 C 0.21873 0.78922 0.00126 0.0
C934 C 0.22113 0.80579 0.01422 0.0
C935 C 0.20174 0.79154 0.98884 0.0
C936 C 0.21798 0.77138 0.01178 0.0
C937 C 0.23261 0.76001 0.00756 0.0
C938 C 0.23494 0.74305 0.01628 0.0
C939 C 0.22226 0.73792 0.03001 0.0
C940 C 0.20729 0.74955 0.03447 0.0
C941 C 0.20502 0.76626 0.02489 0.0
H942 H 0.74535 0.21554 0.95699 0.0
H943 H 0.77625 0.16453 0.95327 0.0
H944 H 0.78851 0.16973 0.98441 0.0
H945 H 0.77917 0.24121 0.9792 0.0
H946 H 0.76383 0.25375 0.99411 0.0
H947 H 0.75575 0.24539 0.97224 0.0
H948 H 0.7293 0.22765 0.98825 0.0
H949 H 0.73699 0.23637 0.01014 0.0
H950 H 0.73457 0.21193 0.0067 0.0
H951 H 0.79984 0.18177 0.01421 0.0
H952 H 0.80608 0.19765 0.04344 0.0
H953 H 0.76765 0.24081 0.02826 0.0
C954 C 0.75426 0.20519 0.96293 0.0
C955 C 0.75983 0.18962 0.95272 0.0
C956 C 0.77176 0.17655 0.96086 0.0
C957 C 0.77889 0.17942 0.9785 0.0
C958 C 0.77384 0.19535 0.98782 0.0
C959 C 0.76151 0.20784 0.98055 0.0
C960 C 0.75876 0.22406 0.99335 0.0
C961 C 0.76474 0.24216 0.98417 0.0
C962 C 0.73872 0.22505 1e-05 0.0
C963 C 0.77167 0.21881 0.00882 0.0
C964 C 0.78029 0.20225 0.00525 0.0
C965 C 0.79304 0.19464 0.01729 0.0
C966 C 0.79657 0.20385 0.0338 0.0
C967 C 0.78731 0.22045 0.03815 0.0
C968 C 0.775 0.2282 0.02528 0.0
H969 H 0.80018 0.7772 0.9625 0.0
H970 H 0.76388 0.73065 0.95346 0.0
H971 H 0.74785 0.73764 0.98269 0.0
H972 H 0.80382 0.77282 0.01198 0.0
H973 H 0.80405 0.79737 0.01539 0.0
H974 H 0.813 0.78773 0.99441 0.0
H975 H 0.79082 0.80851 0.97573 0.0
H976 H 0.78147 0.81787 0.99668 0.0
H977 H 0.76644 0.80727 0.98006 0.0
H978 H 0.73521 0.75068 0.01273 0.0
H979 H 0.72911 0.7668 0.04213 0.0
H980 H 0.77315 0.80522 0.0299 0.0
C981 C 0.78908 0.76823 0.96677 0.0
C982 C 0.78334 0.75332 0.95575 0.0
C983 C 0.7686 0.74208 0.96178 0.0
C984 C 0.75933 0.74602 0.97828 0.0
C985 C 0.76495 0.76126 0.98848 0.0
C986 C 0.77963 0.77204 0.98301 0.0
C987 C 0.78291 0.78778 0.99617 0.0
C988 C 0.80208 0.78633 0.00502 0.0
C989 C 0.78024 0.80646 0.98658 0.0
C990 C 0.76783 0.78417 0.00998 0.0
C991 C 0.75754 0.76888 0.00535 0.0
C992 C 0.74317 0.76269 0.01646 0.0
C993 C 0.73971 0.77202 0.03305 0.0
C994 C 0.7506 0.78731 0.03827 0.0
C995 C 0.76446 0.79367 0.02628 0.0
H996 H 0.51953 0.73537 0.70387 0.0
H997 H 0.53163 0.6943 0.6622 0.0
H998 H 0.50788 0.67396 0.67542 0.0
H999 H 0.51278 0.70418 0.74082 0.0
H1000 H 0.49418 0.71693 0.75112 0.0
H1001 H 0.51151 0.72879 0.73797 0.0
H1002 H 0.48652 0.74271 0.71668 0.0
H1003 H 0.4691 0.73132 0.73009 0.0
H1004 H 0.47024 0.72765 0.70559 0.0
H1005 H 0.48334 0.65792 0.69346 0.0
H1006 H 0.45713 0.64871 0.71299 0.0
H1007 H 0.46191 0.69979 0.74351 0.0
C1008 C 0.51696 0.72226 0.69729 0.0
C1009 C 0.52737 0.71644 0.68196 0.0
C1010 C 0.52375 0.69906 0.67391 0.0
C1011 C 0.5104 0.68736 0.68141 0.0
C1012 C 0.50088 0.69323 0.69696 0.0
C1013 C 0.5038 0.71035 0.70467 0.0
C1014 C 0.49167 0.71337 0.72132 0.0
C1015 C 0.50324 0.71597 0.73884 0.0
C1016 C 0.47861 0.72972 0.71823 0.0
C1017 C 0.48138 0.69529 0.7217 0.0
C1018 C 0.48698 0.68382 0.7076 0.0
C1019 C 0.47888 0.66673 0.70461 0.0
C1020 C 0.4641 0.66156 0.71584 0.0
C1021 C 0.45765 0.67345 0.72987 0.0
C1022 C 0.46682 0.69024 0.73319 0.0
H1023 H 0.29793 0.46642 0.72603 0.0
H1024 H 0.26299 0.44997 0.77154 0.0
H1025 H 0.24278 0.47681 0.7655 0.0
H1026 H 0.29324 0.51593 0.7306 0.0
H1027 H 0.29297 0.51908 0.70601 0.0
H1028 H 0.30538 0.50008 0.71589 0.0
H1029 H 0.28686 0.47769 0.69514 0.0
H1030 H 0.27396 0.49656 0.68565 0.0
H1031 H 0.2621 0.47761 0.69639 0.0
H1032 H 0.22611 0.50579 0.75332 0.0
H1033 H 0.21563 0.53396 0.73708 0.0
H1034 H 0.26015 0.5275 0.69785 0.0
C1035 C 0.28635 0.46866 0.73512 0.0
C1036 C 0.28219 0.45627 0.74944 0.0
C1037 C 0.26657 0.45949 0.76065 0.0
C1038 C 0.25495 0.47459 0.75722 0.0
C1039 C 0.25906 0.48607 0.74238 0.0
C1040 C 0.27446 0.48322 0.7316 0.0
C1041 C 0.27544 0.49655 0.71576 0.0
C1042 C 0.29278 0.50863 0.71716 0.0
C1043 C 0.27453 0.4865 0.69715 0.0
C1044 C 0.25822 0.50751 0.71926 0.0
C1045 C 0.24895 0.5015 0.73473 0.0
C1046 C 0.23319 0.51047 0.74108 0.0
C1047 C 0.22724 0.52634 0.7317 0.0
C1048 C 0.2369 0.53278 0.71604 0.0
C1049 C 0.25219 0.5228 0.70953 0.0
H1050 H 0.45929 0.25382 0.70873 0.0
H1051 H 0.45785 0.28888 0.66036 0.0
H1052 H 0.4866 0.30377 0.67032 0.0
H1053 H 0.47441 0.28717 0.73963 0.0
H1054 H 0.48947 0.27236 0.7526 0.0
H1055 H 0.46977 0.26284 0.74099 0.0
H1056 H 0.49058 0.24002 0.72319 0.0
H1057 H 0.51029 0.24906 0.73517 0.0
H1058 H 0.50998 0.24867 0.71038 0.0
H1059 H 0.51343 0.31687 0.68675 0.0
H1060 H 0.54017 0.32409 0.7062 0.0
H1061 H 0.52451 0.28056 0.74402 0.0
C1062 C 0.46533 0.26422 0.69993 0.0
C1063 C 0.45636 0.27018 0.68375 0.0
C1064 C 0.46452 0.28406 0.67278 0.0
C1065 C 0.48077 0.2927 0.67838 0.0
C1066 C 0.48871 0.28719 0.6949 0.0
C1067 C 0.48155 0.27301 0.70533 0.0
C1068 C 0.49265 0.27008 0.72272 0.0
C1069 C 0.48086 0.27331 0.74 0.0
C1070 C 0.5014 0.25082 0.72286 0.0
C1071 C 0.50703 0.28498 0.72051 0.0
C1072 C 0.50438 0.29475 0.70442 0.0
C1073 C 0.51578 0.30922 0.69931 0.0
C1074 C 0.53085 0.3133 0.71052 0.0
C1075 C 0.5344 0.30288 0.72662 0.0
C1076 C 0.52202 0.28889 0.73192 0.0
H1077 H 0.72083 0.47639 0.6887 0.0
H1078 H 0.76153 0.46076 0.72947 0.0
H1079 H 0.75543 0.48967 0.74646 0.0
H1080 H 0.72972 0.5256 0.6891 0.0
H1081 H 0.70571 0.53107 0.68631 0.0
H1082 H 0.71475 0.51 0.67696 0.0
H1083 H 0.69007 0.49173 0.69513 0.0
H1084 H 0.68128 0.5127 0.70494 0.0
H1085 H 0.68869 0.49426 0.71977 0.0
H1086 H 0.74344 0.52 0.75964 0.0
H1087 H 0.72878 0.55006 0.76617 0.0
H1088 H 0.69511 0.54396 0.71725 0.0
C1089 C 0.7288 0.47916 0.70098 0.0
C1090 C 0.74174 0.46636 0.7077 0.0
C1091 C 0.75166 0.47046 0.72397 0.0
C1092 C 0.74819 0.48677 0.73378 0.0
C1093 C 0.73473 0.49871 0.72713 0.0
C1094 C 0.72537 0.49514 0.71097 0.0
C1095 C 0.71119 0.50975 0.70691 0.0
C1096 C 0.71562 0.5197 0.68875 0.0
C1097 C 0.69166 0.50161 0.70668 0.0
C1098 C 0.71398 0.52217 0.72331 0.0
C1099 C 0.72758 0.51565 0.73487 0.0
C1100 C 0.73276 0.52521 0.75068 0.0
C1101 C 0.72426 0.54219 0.75436 0.0
C1102 C 0.71073 0.54931 0.74229 0.0
C1103 C 0.70527 0.53886 0.72687 0.0
H1104 H 0.47136 0.29079 0.29376 0.0
H1105 H 0.45666 0.25831 0.24584 0.0
H1106 H 0.48679 0.24252 0.24744 0.0
H1107 H 0.51817 0.29745 0.28227 0.0
H1108 H 0.5259 0.29601 0.30579 0.0
H1109 H 0.50304 0.30398 0.30081 0.0
H1110 H 0.48984 0.27872 0.32231 0.0
H1111 H 0.5127 0.2704 0.327 0.0
H1112 H 0.49548 0.25493 0.31811 0.0
H1113 H 0.5191 0.23115 0.25393 0.0
H1114 H 0.55176 0.2276 0.26261 0.0
H1115 H 0.5441 0.26697 0.30687 0.0
C1116 C 0.47444 0.28041 0.28353 0.0
C1117 C 0.4617 0.2758 0.26965 0.0
C1118 C 0.46628 0.26211 0.25655 0.0
C1119 C 0.48327 0.25296 0.25746 0.0
C1120 C 0.49535 0.2576 0.27162 0.0
C1121 C 0.49116 0.27111 0.28431 0.0
C1122 C 0.50669 0.27418 0.29773 0.0
C1123 C 0.51387 0.29407 0.29656 0.0
C1124 C 0.50082 0.26926 0.31746 0.0
C1125 C 0.52053 0.26056 0.29038 0.0
C1126 C 0.51371 0.25093 0.27547 0.0
C1127 C 0.52452 0.23847 0.2657 0.0
C1128 C 0.54303 0.23647 0.27081 0.0
C1129 C 0.55045 0.24698 0.28545 0.0
C1130 C 0.53881 0.25857 0.29576 0.0
H1131 H 0.72094 0.46121 0.26793 0.0
H1132 H 0.67874 0.45476 0.30976 0.0
H1133 H 0.68853 0.48382 0.32414 0.0
H1134 H 0.7557 0.48099 0.29776 0.0
H1135 H 0.76399 0.49686 0.2806 0.0
H1136 H 0.75413 0.47518 0.2737 0.0
H1137 H 0.73056 0.49217 0.25304 0.0
H1138 H 0.74054 0.51384 0.25965 0.0
H1139 H 0.71629 0.50988 0.26293 0.0
H1140 H 0.70188 0.51374 0.33339 0.0
H1141 H 0.71661 0.5442 0.33562 0.0
H1142 H 0.75069 0.53126 0.28833 0.0
C1143 C 0.71373 0.46595 0.28008 0.0
C1144 C 0.69908 0.45573 0.28772 0.0
C1145 C 0.68999 0.46236 0.30364 0.0
C1146 C 0.69552 0.47879 0.31199 0.0
C1147 C 0.71019 0.48837 0.3043 0.0
C1148 C 0.7191 0.48232 0.28864 0.0
C1149 C 0.734 0.49566 0.2828 0.0
C1150 C 0.75309 0.48663 0.28378 0.0
C1151 C 0.73011 0.50334 0.26346 0.0
C1152 C 0.73181 0.51031 0.29746 0.0
C1153 C 0.71811 0.50569 0.30982 0.0
C1154 C 0.71276 0.51746 0.32394 0.0
C1155 C 0.72122 0.53469 0.32511 0.0
C1156 C 0.73488 0.53994 0.31226 0.0
C1157 C 0.74059 0.5274 0.29859 0.0
H1158 H 0.53842 0.70664 0.23947 0.0
H1159 H 0.54097 0.65442 0.26837 0.0
H1160 H 0.5117 0.66154 0.28381 0.0
H1161 H 0.52249 0.73261 0.27561 0.0
H1162 H 0.507 0.74695 0.26261 0.0
H1163 H 0.5268 0.73701 0.25157 0.0
H1164 H 0.50615 0.72159 0.22697 0.0
H1165 H 0.48629 0.73199 0.23755 0.0
H1166 H 0.4871 0.70744 0.23418 0.0
H1167 H 0.48508 0.6761 0.29951 0.0
H1168 H 0.45875 0.69452 0.31008 0.0
H1169 H 0.47265 0.7371 0.27049 0.0
C1170 C 0.53247 0.69638 0.24849 0.0
C1171 C 0.54199 0.67997 0.25271 0.0
C1172 C 0.53391 0.66706 0.26488 0.0
C1173 C 0.51734 0.67104 0.27383 0.0
C1174 C 0.50892 0.68785 0.27027 0.0
C1175 C 0.51587 0.70011 0.25751 0.0
C1176 C 0.50439 0.7175 0.25677 0.0
C1177 C 0.51586 0.73452 0.26195 0.0
C1178 C 0.49545 0.71976 0.23774 0.0
C1179 C 0.49019 0.71324 0.27142 0.0
C1180 C 0.49318 0.69613 0.2791 0.0
C1181 C 0.48237 0.68939 0.29338 0.0
C1182 C 0.46756 0.70008 0.29942 0.0
C1183 C 0.46358 0.71725 0.29108 0.0
C1184 C 0.47533 0.72406 0.27716 0.0
H1185 H 0.30751 0.53011 0.27201 0.0
H1186 H 0.27043 0.5382 0.22596 0.0
H1187 H 0.2527 0.51066 0.23565 0.0
H1188 H 0.30734 0.48035 0.27278 0.0
H1189 H 0.30784 0.47968 0.29756 0.0
H1190 H 0.31818 0.49867 0.2855 0.0
H1191 H 0.29797 0.52123 0.3044 0.0
H1192 H 0.2872 0.50229 0.31614 0.0
H1193 H 0.27331 0.5188 0.30394 0.0
H1194 H 0.23893 0.48194 0.25136 0.0
H1195 H 0.23131 0.45487 0.27072 0.0
H1196 H 0.27611 0.46897 0.30753 0.0
C1197 C 0.29594 0.52591 0.26362 0.0
C1198 C 0.2905 0.53614 0.24807 0.0
C1199 C 0.27497 0.53038 0.2378 0.0
C1200 C 0.26477 0.51486 0.24328 0.0
C1201 C 0.27017 0.50551 0.25916 0.0
C1202 C 0.28546 0.51087 0.2691 0.0
C1203 C 0.28804 0.49935 0.28615 0.0
C1204 C 0.30643 0.48889 0.28544 0.0
C1205 C 0.28653 0.51113 0.30369 0.0
C1206 C 0.27189 0.4865 0.2843 0.0
C1207 C 0.26174 0.49007 0.26863 0.0
C1208 C 0.24671 0.47916 0.26374 0.0
C1209 C 0.24239 0.46391 0.27487 0.0
C1210 C 0.25294 0.45996 0.29078 0.0
C1211 C 0.26751 0.47177 0.2957 0.0
H1212 H 0.74068 0.73978 0.53801 0.0
H1213 H 0.71095 0.69012 0.55294 0.0
H1214 H 0.69424 0.69126 0.52356 0.0
H1215 H 0.70374 0.76268 0.51667 0.0
H1216 H 0.71706 0.77254 0.49822 0.0
H1217 H 0.72784 0.76747 0.51994 0.0
H1218 H 0.75212 0.74712 0.5036 0.0
H1219 H 0.74168 0.75247 0.48178 0.0
H1220 H 0.74461 0.72882 0.48863 0.0
H1221 H 0.67904 0.69886 0.49417 0.0
H1222 H 0.66929 0.7099 0.46372 0.0
H1223 H 0.70912 0.75435 0.46703 0.0
C1224 C 0.73096 0.72893 0.53491 0.0
C1225 C 0.72709 0.71489 0.54778 0.0
C1226 C 0.71414 0.70103 0.5433 0.0
C1227 C 0.70449 0.70159 0.52669 0.0
C1228 C 0.70806 0.71601 0.51465 0.0
C1229 C 0.72122 0.72923 0.5183 0.0
C1230 C 0.72226 0.74324 0.50289 0.0
C1231 C 0.71744 0.76263 0.50985 0.0
C1232 C 0.74129 0.74288 0.49368 0.0
C1233 C 0.70749 0.73588 0.49015 0.0
C1234 C 0.69941 0.72026 0.49733 0.0
C1235 C 0.68535 0.71099 0.48828 0.0
C1236 C 0.67984 0.71746 0.47104 0.0
C1237 C 0.68846 0.73297 0.46298 0.0
C1238 C 0.70219 0.74253 0.47288 0.0
H1239 H 0.71419 0.30668 0.4651 0.0
H1240 H 0.76577 0.27694 0.46075 0.0
H1241 H 0.75683 0.25775 0.4874 0.0
H1242 H 0.71265 0.30843 0.51353 0.0
H1243 H 0.68804 0.30571 0.51476 0.0
H1244 H 0.69832 0.31608 0.4948 0.0
H1245 H 0.68216 0.29186 0.47415 0.0
H1246 H 0.67213 0.28118 0.49415 0.0
H1247 H 0.68583 0.26772 0.47847 0.0
H1248 H 0.74279 0.24294 0.5155 0.0
H1249 H 0.72634 0.23594 0.54439 0.0
H1250 H 0.68377 0.27502 0.52946 0.0
C1251 C 0.72363 0.29612 0.4697 0.0
C1252 C 0.74069 0.29331 0.46087 0.0
C1253 C 0.75265 0.27937 0.46736 0.0
C1254 C 0.74762 0.2683 0.48237 0.0
C1255 C 0.73056 0.27129 0.49059 0.0
C1256 C 0.71882 0.28495 0.48454 0.0
C1257 C 0.70174 0.28613 0.49632 0.0
C1258 C 0.7001 0.30521 0.50539 0.0
C1259 C 0.68445 0.28144 0.4851 0.0
C1260 C 0.70589 0.27131 0.51029 0.0
C1261 C 0.72244 0.2627 0.50662 0.0
C1262 C 0.72971 0.24944 0.5184 0.0
C1263 C 0.72022 0.24548 0.53473 0.0
C1264 C 0.70373 0.25488 0.53915 0.0
C1265 C 0.69619 0.2674 0.52638 0.0
H1266 H 0.26259 0.72312 0.46529 0.0
H1267 H 0.308 0.68748 0.44981 0.0
H1268 H 0.32321 0.69402 0.4793 0.0
H1269 H 0.28964 0.75734 0.48889 0.0
H1270 H 0.27306 0.76096 0.50696 0.0
H1271 H 0.26551 0.75382 0.48445 0.0
H1272 H 0.24902 0.72552 0.49858 0.0
H1273 H 0.25618 0.73282 0.52114 0.0
H1274 H 0.26178 0.71002 0.51313 0.0
H1275 H 0.33357 0.70404 0.51005 0.0
H1276 H 0.33671 0.71411 0.54227 0.0
H1277 H 0.28487 0.74342 0.53822 0.0
C1278 C 0.27565 0.71658 0.46819 0.0
C1279 C 0.28412 0.70482 0.45523 0.0
C1280 C 0.30124 0.69655 0.45951 0.0
C1281 C 0.31007 0.70027 0.47617 0.0
C1282 C 0.30162 0.71228 0.48842 0.0
C1283 C 0.2847 0.72012 0.48481 0.0
C1284 C 0.27838 0.73198 0.50075 0.0
C1285 C 0.27654 0.75223 0.4949 0.0
C1286 C 0.26027 0.72464 0.50888 0.0
C1287 C 0.29431 0.72935 0.51392 0.0
C1288 C 0.30766 0.71811 0.50638 0.0
C1289 C 0.32329 0.71293 0.51612 0.0
C1290 C 0.32498 0.71877 0.53437 0.0
C1291 C 0.3111 0.72962 0.54265 0.0
C1292 C 0.29586 0.73544 0.5321 0.0
H1293 H 0.26468 0.29073 0.53907 0.0
H1294 H 0.20804 0.27219 0.53758 0.0
H1295 H 0.21537 0.25268 0.51038 0.0
H1296 H 0.27316 0.29322 0.49166 0.0
H1297 H 0.29639 0.28484 0.49371 0.0
H1298 H 0.28596 0.29693 0.51257 0.0
H1299 H 0.29299 0.26914 0.5339 0.0
H1300 H 0.30304 0.25678 0.51491 0.0
H1301 H 0.28448 0.24665 0.52786 0.0
H1302 H 0.22934 0.23701 0.48173 0.0
H1303 H 0.24779 0.22789 0.45458 0.0
H1304 H 0.29552 0.25467 0.47831 0.0
C1305 C 0.25367 0.28281 0.5329 0.0
C1306 C 0.23568 0.28329 0.54006 0.0
C1307 C 0.22185 0.27221 0.53201 0.0
C1308 C 0.22595 0.261 0.51673 0.0
C1309 C 0.24403 0.26068 0.51021 0.0
C1310 C 0.25763 0.27126 0.51821 0.0
C1311 C 0.27601 0.26865 0.509 0.0
C1312 C 0.28329 0.28699 0.50127 0.0
C1313 C 0.28994 0.25977 0.52221 0.0
C1314 C 0.27059 0.25553 0.4939 0.0
C1315 C 0.25216 0.25089 0.49479 0.0
C1316 C 0.24384 0.24029 0.48112 0.0
C1317 C 0.25446 0.23506 0.4658 0.0
C1318 C 0.27313 0.24051 0.46437 0.0
C1319 C 0.28138 0.25008 0.47906 0.0
H1320 H 0.15804 0.15161 0.26333 0.0
H1321 H 0.12723 0.11153 0.23159 0.0
H1322 H 0.1043 0.13537 0.22401 0.0
H1323 H 0.11713 0.1806 0.27884 0.0
H1324 H 0.13046 0.20135 0.27627 0.0
H1325 H 0.14153 0.18026 0.2832 0.0
H1326 H 0.16434 0.18347 0.25601 0.0
H1327 H 0.15329 0.20433 0.24885 0.0
H1328 H 0.15552 0.18546 0.23291 0.0
H1329 H 0.08901 0.16444 0.21432 0.0
H1330 H 0.08205 0.19603 0.20413 0.0
H1331 H 0.12289 0.21726 0.2421 0.0
C1332 C 0.1461 0.14763 0.25537 0.0
C1333 C 0.14443 0.1297 0.24805 0.0
C1334 C 0.12875 0.12514 0.23746 0.0
C1335 C 0.11562 0.1386 0.23311 0.0
C1336 C 0.11826 0.15644 0.23969 0.0
C1337 C 0.13299 0.16089 0.25087 0.0
C1338 C 0.13426 0.18144 0.254 0.0
C1339 C 0.13062 0.18619 0.27428 0.0
C1340 C 0.15295 0.18911 0.24755 0.0
C1341 C 0.11871 0.18798 0.24186 0.0
C1342 C 0.10937 0.17335 0.23406 0.0
C1343 C 0.09588 0.17599 0.22071 0.0
C1344 C 0.09211 0.19399 0.21493 0.0
C1345 C 0.10189 0.20911 0.22239 0.0
C1346 C 0.11495 0.20603 0.2364 0.0
H1347 H 0.85504 0.16909 0.27664 0.0
H1348 H 0.89137 0.13822 0.24076 0.0
H1349 H 0.86805 0.11371 0.23841 0.0
H1350 H 0.83004 0.12746 0.29817 0.0
H1351 H 0.80871 0.14008 0.29791 0.0
H1352 H 0.83014 0.15202 0.30161 0.0
H1353 H 0.82254 0.17369 0.27438 0.0
H1354 H 0.80137 0.16174 0.27037 0.0
H1355 H 0.81792 0.16395 0.25203 0.0
H1356 H 0.83862 0.09723 0.23328 0.0
H1357 H 0.80624 0.08952 0.2269 0.0
H1358 H 0.78866 0.13119 0.26582 0.0
C1359 C 0.85846 0.15679 0.26897 0.0
C1360 C 0.87503 0.15559 0.25887 0.0
C1361 C 0.87885 0.1394 0.24874 0.0
C1362 C 0.86565 0.12538 0.24734 0.0
C1363 C 0.84886 0.12764 0.25638 0.0
C1364 C 0.84538 0.14281 0.26733 0.0
C1365 C 0.82538 0.1436 0.2731 0.0
C1366 C 0.82346 0.1406 0.29394 0.0
C1367 C 0.81629 0.16181 0.26709 0.0
C1368 C 0.81782 0.12739 0.26249 0.0
C1369 C 0.83166 0.11804 0.25335 0.0
C1370 C 0.82775 0.10408 0.24079 0.0
C1371 C 0.80929 0.09989 0.23716 0.0
C1372 C 0.79494 0.10972 0.24594 0.0
C1373 C 0.79934 0.12319 0.2592 0.0
H1374 H 0.87302 0.7896 0.25564 0.0
H1375 H 0.91414 0.81516 0.22084 0.0
H1376 H 0.90474 0.84574 0.23222 0.0
H1377 H 0.8394 0.81869 0.24532 0.0
H1378 H 0.82857 0.8194 0.26763 0.0
H1379 H 0.84186 0.7997 0.26109 0.0
H1380 H 0.86223 0.80369 0.29009 0.0
H1381 H 0.84891 0.82354 0.29674 0.0
H1382 H 0.87351 0.82537 0.29429 0.0
H1383 H 0.88716 0.87325 0.24233 0.0
H1384 H 0.86163 0.89484 0.24811 0.0
H1385 H 0.83138 0.85146 0.27571 0.0
C1386 C 0.88056 0.80159 0.25102 0.0
C1387 C 0.8944 0.80005 0.23752 0.0
C1388 C 0.90354 0.81607 0.23127 0.0
C1389 C 0.8984 0.83348 0.23779 0.0
C1390 C 0.88414 0.83462 0.25056 0.0
C1391 C 0.87538 0.81905 0.25716 0.0
C1392 C 0.85843 0.82398 0.26819 0.0
C1393 C 0.84106 0.81492 0.26005 0.0
C1394 C 0.86093 0.81884 0.28854 0.0
C1395 C 0.85829 0.84463 0.26565 0.0
C1396 C 0.87358 0.85061 0.25605 0.0
C1397 C 0.87536 0.86882 0.25025 0.0
C1398 C 0.86078 0.88102 0.25361 0.0
C1399 C 0.84454 0.87479 0.26234 0.0
C1400 C 0.84372 0.85663 0.26916 0.0
H1401 H 0.19454 0.88511 0.22141 0.0
H1402 H 0.23697 0.85938 0.25458 0.0
H1403 H 0.21313 0.84204 0.27139 0.0
H1404 H 0.1571 0.8856 0.25794 0.0
H1405 H 0.13984 0.8803 0.24096 0.0
H1406 H 0.1596 0.89394 0.23472 0.0
H1407 H 0.16705 0.87103 0.20844 0.0
H1408 H 0.14749 0.85731 0.21463 0.0
H1409 H 0.17001 0.84699 0.21379 0.0
H1410 H 0.18611 0.8231 0.27986 0.0
H1411 H 0.15799 0.80416 0.27945 0.0
H1412 H 0.13282 0.8422 0.24105 0.0
C1413 C 0.19881 0.87634 0.23265 0.0
C1414 C 0.21763 0.87365 0.2367 0.0
C1415 C 0.22263 0.86174 0.25127 0.0
C1416 C 0.20918 0.85189 0.26097 0.0
C1417 C 0.19079 0.85427 0.25606 0.0
C1418 C 0.18557 0.86637 0.24236 0.0
C1419 C 0.1653 0.86455 0.23792 0.0
C1420 C 0.15484 0.88214 0.24321 0.0
C1421 C 0.16231 0.85967 0.2175 0.0
C1422 C 0.16016 0.84873 0.25043 0.0
C1423 C 0.17496 0.84328 0.26108 0.0
C1424 C 0.17428 0.82754 0.27199 0.0
C1425 C 0.15829 0.81682 0.2716 0.0
C1426 C 0.14322 0.82186 0.26036 0.0
C1427 C 0.14396 0.83834 0.25015 0.0
H1428 H 0.12019 0.78816 0.76553 0.0
H1429 H 0.0858 0.81717 0.80474 0.0
H1430 H 0.09524 0.84675 0.79103 0.0
H1431 H 0.15656 0.81551 0.76934 0.0
H1432 H 0.16373 0.81481 0.7456 0.0
H1433 H 0.15062 0.79616 0.75498 0.0
H1434 H 0.12615 0.80033 0.72939 0.0
H1435 H 0.13927 0.81911 0.71989 0.0
H1436 H 0.11551 0.82248 0.72608 0.0
H1437 H 0.11301 0.87286 0.77752 0.0
H1438 H 0.13839 0.89267 0.76673 0.0
H1439 H 0.16122 0.84663 0.73643 0.0
C1440 C 0.1141 0.80069 0.77081 0.0
C1441 C 0.10223 0.80035 0.78617 0.0
C1442 C 0.09488 0.81708 0.79293 0.0
C1443 C 0.10007 0.83396 0.78513 0.0
C1444 C 0.11244 0.83385 0.77047 0.0
C1445 C 0.11923 0.81759 0.76327 0.0
C1446 C 0.13444 0.82112 0.74953 0.0
C1447 C 0.15238 0.81134 0.75522 0.0
C1448 C 0.12848 0.81542 0.73006 0.0
C1449 C 0.13608 0.84179 0.75111 0.0
C1450 C 0.12289 0.84899 0.76277 0.0
C1451 C 0.1231 0.86747 0.76801 0.0
C1452 C 0.13758 0.87864 0.76179 0.0
C1453 C 0.15177 0.87117 0.75076 0.0
C1454 C 0.15047 0.85276 0.74472 0.0
H1455 H 0.19629 0.10758 0.76803 0.0
H1456 H 0.23021 0.13456 0.72696 0.0
H1457 H 0.20244 0.14832 0.71318 0.0
H1458 H 0.15423 0.10057 0.738 0.0
H1459 H 0.13913 0.10547 0.75705 0.0
H1460 H 0.16098 0.09446 0.76106 0.0
H1461 H 0.16967 0.1201 0.78427 0.0
H1462 H 0.14795 0.13112 0.78036 0.0
H1463 H 0.16898 0.1438 0.77698 0.0
H1464 H 0.17262 0.16376 0.7079 0.0
H1465 H 0.14319 0.18015 0.71184 0.0
H1466 H 0.1281 0.14286 0.75581 0.0
C1467 C 0.19785 0.11592 0.75577 0.0
C1468 C 0.21543 0.11996 0.74853 0.0
C1469 C 0.2169 0.13121 0.7327 0.0
C1470 C 0.20117 0.13899 0.72472 0.0
C1471 C 0.18408 0.13521 0.73259 0.0
C1472 C 0.18231 0.1238 0.74769 0.0
C1473 C 0.16283 0.12391 0.75508 0.0
C1474 C 0.15376 0.10497 0.75264 0.0
C1475 C 0.16235 0.13011 0.77536 0.0
C1476 C 0.15417 0.13805 0.7425 0.0
C1477 C 0.16657 0.14407 0.72934 0.0
C1478 C 0.16262 0.1588 0.71775 0.0
C1479 C 0.1459 0.16804 0.7201 0.0
C1480 C 0.13334 0.1625 0.7339 0.0
C1481 C 0.13722 0.1469 0.74474 0.0
H1482 H 0.88297 0.1892 0.78578 0.0
H1483 H 0.87644 0.22525 0.73865 0.0
H1484 H 0.86491 0.19908 0.72033 0.0
H1485 H 0.89494 0.1462 0.75966 0.0
H1486 H 0.88173 0.1321 0.7752 0.0
H1487 H 0.89285 0.15266 0.78351 0.0
H1488 H 0.86164 0.16475 0.79584 0.0
H1489 H 0.85055 0.14422 0.78775 0.0
H1490 H 0.84234 0.16642 0.78036 0.0
H1491 H 0.85011 0.17069 0.70869 0.0
H1492 H 0.83055 0.14321 0.70546 0.0
H1493 H 0.84642 0.12535 0.7601 0.0
C1494 C 0.87958 0.19149 0.77146 0.0
C1495 C 0.88072 0.20923 0.76359 0.0
C1496 C 0.87571 0.21177 0.74494 0.0
C1497 C 0.86932 0.19694 0.73439 0.0
C1498 C 0.8681 0.17968 0.74266 0.0
C1499 C 0.87304 0.17689 0.7608 0.0
C1500 C 0.86807 0.15768 0.76717 0.0
C1501 C 0.88544 0.1465 0.77164 0.0
C1502 C 0.85486 0.15832 0.78374 0.0
C1503 C 0.85867 0.1504 0.75007 0.0
C1504 C 0.8593 0.16314 0.73593 0.0
C1505 C 0.84986 0.16045 0.71949 0.0
C1506 C 0.83879 0.14479 0.71778 0.0
C1507 C 0.83715 0.1321 0.73247 0.0
C1508 C 0.84786 0.13454 0.74846 0.0
H1509 H 0.84886 0.80915 0.72218 0.0
H1510 H 0.89452 0.83834 0.74711 0.0
H1511 H 0.8748 0.86571 0.75101 0.0
H1512 H 0.82585 0.85112 0.70018 0.0
H1513 H 0.80345 0.84182 0.7053 0.0
H1514 H 0.82229 0.82658 0.7 0.0
H1515 H 0.81678 0.80933 0.73068 0.0
H1516 H 0.79817 0.82454 0.73618 0.0
H1517 H 0.81709 0.82203 0.752 0.0
H1518 H 0.84887 0.88635 0.75906 0.0
H1519 H 0.81919 0.89923 0.76926 0.0
H1520 H 0.79036 0.85705 0.73847 0.0
C1521 C 0.8549 0.82153 0.72785 0.0
C1522 C 0.87317 0.82165 0.7344 0.0
C1523 C 0.88058 0.83801 0.74189 0.0
C1524 C 0.86948 0.85363 0.74412 0.0
C1525 C 0.85118 0.85273 0.73843 0.0
C1526 C 0.84403 0.83718 0.73011 0.0
C1527 C 0.82344 0.83866 0.72757 0.0
C1528 C 0.81847 0.83961 0.70704 0.0
C1529 C 0.8133 0.82271 0.73719 0.0
C1530 C 0.81989 0.85685 0.73702 0.0
C1531 C 0.8361 0.86496 0.74283 0.0
C1532 C 0.83614 0.88047 0.75409 0.0
C1533 C 0.81922 0.88761 0.75992 0.0
C1534 C 0.80252 0.8792 0.7545 0.0
C1535 C 0.80291 0.86403 0.74242 0.0
H1536 H 0.21217 0.10679 0.18558 0.0
H1537 H 0.25141 0.12104 0.22824 0.0
H1538 H 0.2717 0.13482 0.20483 0.0
H1539 H 0.24709 0.09914 0.14714 0.0
H1540 H 0.23179 0.10941 0.13056 0.0
H1541 H 0.22256 0.09669 0.14977 0.0
H1542 H 0.20292 0.12494 0.15908 0.0
H1543 H 0.21202 0.13766 0.13999 0.0
H1544 H 0.2141 0.14674 0.16298 0.0
H1545 H 0.28407 0.15269 0.17878 0.0
H1546 H 0.28728 0.17353 0.15219 0.0
H1547 H 0.24078 0.14726 0.12583 0.0
C1548 C 0.22532 0.11223 0.18993 0.0
C1549 C 0.23021 0.1128 0.20874 0.0
C1550 C 0.24738 0.12039 0.21391 0.0
C1551 C 0.25907 0.12814 0.20068 0.0
C1552 C 0.25351 0.12799 0.18232 0.0
C1553 C 0.23711 0.12006 0.1769 0.0
C1554 C 0.23304 0.12401 0.15685 0.0
C1555 C 0.23366 0.10625 0.1454 0.0
C1556 C 0.21443 0.13393 0.15462 0.0
C1557 C 0.24904 0.13649 0.15218 0.0
C1558 C 0.26095 0.13822 0.16694 0.0
C1559 C 0.27522 0.15101 0.16693 0.0
C1560 C 0.27693 0.16281 0.1518 0.0
C1561 C 0.26448 0.16169 0.1369 0.0
C1562 C 0.25087 0.14788 0.13677 0.0
H1563 H 0.83637 0.23061 0.12123 0.0
H1564 H 0.8149 0.28296 0.14007 0.0
H1565 H 0.83688 0.28277 0.16585 0.0
H1566 H 0.83792 0.21079 0.16227 0.0
H1567 H 0.85882 0.19778 0.1594 0.0
H1568 H 0.84552 0.20413 0.13961 0.0
H1569 H 0.87377 0.22035 0.1252 0.0
H1570 H 0.88738 0.21372 0.14486 0.0
H1571 H 0.88597 0.23757 0.13822 0.0
H1572 H 0.85544 0.27384 0.19275 0.0
H1573 H 0.87099 0.25762 0.21814 0.0
H1574 H 0.88056 0.21082 0.1823 0.0
C1575 C 0.83699 0.24246 0.13025 0.0
C1576 C 0.82413 0.25689 0.1286 0.0
C1577 C 0.82477 0.27185 0.14105 0.0
C1578 C 0.83724 0.27187 0.15571 0.0
C1579 C 0.84901 0.25689 0.15764 0.0
C1580 C 0.84924 0.24257 0.14509 0.0
C1581 C 0.86122 0.22689 0.15178 0.0
C1582 C 0.8502 0.20885 0.15336 0.0
C1583 C 0.87809 0.2245 0.13927 0.0
C1584 C 0.86671 0.23415 0.17051 0.0
C1585 C 0.85983 0.25163 0.17345 0.0
C1586 C 0.86135 0.26037 0.19044 0.0
C1587 C 0.87005 0.25098 0.20483 0.0
C1588 C 0.87705 0.233 0.20215 0.0
C1589 C 0.87563 0.22468 0.18465 0.0
H1590 H 0.75148 0.87331 0.21223 0.0
H1591 H 0.79165 0.91001 0.1877 0.0
H1592 H 0.78097 0.901 0.15678 0.0
H1593 H 0.75844 0.83783 0.18344 0.0
H1594 H 0.73487 0.83024 0.18216 0.0
H1595 H 0.74269 0.84264 0.20201 0.0
H1596 H 0.71691 0.8668 0.19715 0.0
H1597 H 0.70905 0.85443 0.17713 0.0
H1598 H 0.71497 0.87844 0.17534 0.0
H1599 H 0.77004 0.88396 0.12895 0.0
H1600 H 0.76102 0.85943 0.10723 0.0
H1601 H 0.72763 0.83432 0.14984 0.0
C1602 C 0.75765 0.8799 0.20037 0.0
C1603 C 0.77237 0.89238 0.20239 0.0
C1604 C 0.78031 0.90043 0.18651 0.0
C1605 C 0.77424 0.8955 0.16887 0.0
C1606 C 0.76006 0.88269 0.16734 0.0
C1607 C 0.75177 0.87511 0.18271 0.0
C1608 C 0.73864 0.85986 0.17749 0.0
C1609 C 0.744 0.84158 0.18681 0.0
C1610 C 0.71871 0.86521 0.18205 0.0
C1611 C 0.74172 0.85923 0.15692 0.0
C1612 C 0.75373 0.87282 0.1512 0.0
C1613 C 0.76028 0.87354 0.13316 0.0
C1614 C 0.75505 0.85956 0.12088 0.0
C1615 C 0.74362 0.84497 0.12684 0.0
C1616 C 0.73624 0.84539 0.14482 0.0
H1617 H 0.10499 0.778 0.18334 0.0
H1618 H 0.11244 0.72718 0.21372 0.0
H1619 H 0.11992 0.71108 0.18485 0.0
H1620 H 0.08765 0.75598 0.13867 0.0
H1621 H 0.10011 0.77263 0.12517 0.0
H1622 H 0.09069 0.77906 0.14721 0.0
H1623 H 0.12294 0.7898 0.15797 0.0
H1624 H 0.13232 0.78358 0.13604 0.0
H1625 H 0.14199 0.77396 0.15675 0.0
H1626 H 0.1336 0.70252 0.15513 0.0
H1627 H 0.15312 0.70263 0.12737 0.0
H1628 H 0.13575 0.75817 0.11513 0.0
C1629 C 0.10757 0.76333 0.18383 0.0
C1630 C 0.10811 0.75385 0.20079 0.0
C1631 C 0.1119 0.73474 0.20091 0.0
C1632 C 0.11601 0.72544 0.18453 0.0
C1633 C 0.11602 0.73534 0.1681 0.0
C1634 C 0.11172 0.75386 0.1676 0.0
C1635 C 0.11542 0.76199 0.14877 0.0
C1636 C 0.09739 0.76775 0.1394 0.0
C1637 C 0.12898 0.77826 0.14997 0.0
C1638 C 0.12388 0.74552 0.13919 0.0
C1639 C 0.1236 0.73013 0.15041 0.0
C1640 C 0.13329 0.7142 0.14591 0.0
C1641 C 0.14429 0.71433 0.13009 0.0
C1642 C 0.14536 0.7302 0.11893 0.0
C1643 C 0.13436 0.74561 0.12302 0.0
H1644 H 0.24778 0.86172 0.7853 0.0
H1645 H 0.22362 0.91022 0.81033 0.0
H1646 H 0.2382 0.90222 0.8399 0.0
H1647 H 0.23871 0.83287 0.82037 0.0
H1648 H 0.25944 0.81938 0.81871 0.0
H1649 H 0.2508 0.83109 0.79878 0.0
H1650 H 0.28208 0.84779 0.79491 0.0
H1651 H 0.29082 0.8361 0.81496 0.0
H1652 H 0.29141 0.86086 0.81381 0.0
H1653 H 0.25071 0.8863 0.86769 0.0
H1654 H 0.25841 0.86306 0.89124 0.0
H1655 H 0.27446 0.82503 0.84813 0.0
C1656 C 0.24607 0.871 0.79684 0.0
C1657 C 0.23464 0.88663 0.79548 0.0
C1658 C 0.23236 0.89818 0.81103 0.0
C1659 C 0.24071 0.89382 0.82786 0.0
C1660 C 0.25142 0.87797 0.82891 0.0
C1661 C 0.25419 0.86678 0.81375 0.0
C1662 C 0.26406 0.84924 0.819 0.0
C1663 C 0.25256 0.83215 0.81393 0.0
C1664 C 0.28324 0.84846 0.81014 0.0
C1665 C 0.2654 0.85178 0.83961 0.0
C1666 C 0.25852 0.86865 0.84504 0.0
C1667 C 0.25653 0.87323 0.86359 0.0
C1668 C 0.26097 0.85994 0.87689 0.0
C1669 C 0.26705 0.84224 0.87152 0.0
C1670 C 0.27002 0.8385 0.85268 0.0
H1671 H 0.11772 0.24426 0.79456 0.0
H1672 H 0.08636 0.19922 0.81793 0.0
H1673 H 0.0958 0.20887 0.84909 0.0
H1674 H 0.15497 0.23816 0.82031 0.0
H1675 H 0.16102 0.26206 0.82305 0.0
H1676 H 0.14784 0.25494 0.80348 0.0
H1677 H 0.12239 0.27841 0.81201 0.0
H1678 H 0.13557 0.28559 0.83177 0.0
H1679 H 0.11221 0.27782 0.83462 0.0
H1680 H 0.1133 0.21934 0.87664 0.0
H1681 H 0.13892 0.22791 0.89721 0.0
H1682 H 0.15922 0.26583 0.8559 0.0
C1683 C 0.11225 0.23686 0.80627 0.0
C1684 C 0.10122 0.22108 0.80384 0.0
C1685 C 0.09478 0.21141 0.81948 0.0
C1686 C 0.09994 0.21689 0.83725 0.0
C1687 C 0.11145 0.23212 0.83916 0.0
C1688 C 0.11746 0.24202 0.82404 0.0
C1689 C 0.13213 0.25579 0.82932 0.0
C1690 C 0.15003 0.25252 0.81841 0.0
C1691 C 0.12515 0.27558 0.82678 0.0
C1692 C 0.1344 0.25119 0.84948 0.0
C1693 C 0.12191 0.23798 0.8551 0.0
C1694 C 0.12285 0.23001 0.87255 0.0
C1695 C 0.13743 0.23499 0.88418 0.0
C1696 C 0.15102 0.24753 0.87811 0.0
C1697 C 0.14889 0.25635 0.86095 0.0
H1698 H 0.75089 0.1447 0.76633 0.0
H1699 H 0.75398 0.08962 0.78883 0.0
H1700 H 0.74064 0.10067 0.81798 0.0
H1701 H 0.76755 0.1657 0.80308 0.0
H1702 H 0.75369 0.18624 0.80235 0.0
H1703 H 0.75789 0.17354 0.78162 0.0
H1704 H 0.72286 0.17029 0.77608 0.0
H1705 H 0.71849 0.18327 0.79678 0.0
H1706 H 0.70845 0.16078 0.79388 0.0
H1707 H 0.73413 0.11824 0.84619 0.0
H1708 H 0.73448 0.14103 0.8713 0.0
H1709 H 0.73607 0.18513 0.83109 0.0
C1710 C 0.7478 0.13486 0.77709 0.0
C1711 C 0.75312 0.1163 0.77534 0.0
C1712 C 0.74975 0.10387 0.78992 0.0
C1713 C 0.74212 0.11002 0.80649 0.0
C1714 C 0.73795 0.12864 0.80824 0.0
C1715 C 0.74047 0.14089 0.79386 0.0
C1716 C 0.73793 0.16056 0.80025 0.0
C1717 C 0.7553 0.17217 0.79662 0.0
C1718 C 0.72091 0.16923 0.79121 0.0
C1719 C 0.73486 0.15751 0.82062 0.0
C1720 C 0.73442 0.13898 0.82487 0.0
C1721 C 0.73393 0.13278 0.84301 0.0
C1722 C 0.73426 0.14583 0.8572 0.0
C1723 C 0.73523 0.16485 0.85315 0.0
C1724 C 0.73499 0.1707 0.83461 0.0
H1725 H 0.8481 0.75406 0.87075 0.0
H1726 H 0.82211 0.70194 0.85806 0.0
H1727 H 0.84158 0.69884 0.83049 0.0
H1728 H 0.84694 0.77064 0.82831 0.0
H1729 H 0.8687 0.78252 0.82828 0.0
H1730 H 0.85697 0.77845 0.84961 0.0
H1731 H 0.88554 0.76163 0.86262 0.0
H1732 H 0.89757 0.76595 0.84136 0.0
H1733 H 0.8955 0.74278 0.84994 0.0
H1734 H 0.85813 0.70465 0.8012 0.0
H1735 H 0.87197 0.71822 0.77327 0.0
H1736 H 0.88728 0.76662 0.80471 0.0
C1737 C 0.84726 0.74155 0.86269 0.0
C1738 C 0.83382 0.72813 0.86661 0.0
C1739 C 0.83249 0.71229 0.85535 0.0
C1740 C 0.84352 0.71039 0.83967 0.0
C1741 C 0.85587 0.72441 0.83549 0.0
C1742 C 0.85806 0.73957 0.84684 0.0
C1743 C 0.8702 0.75394 0.83788 0.0
C1744 C 0.86009 0.77246 0.8359 0.0
C1745 C 0.88828 0.7562 0.84859 0.0
C1746 C 0.87351 0.745 0.81935 0.0
C1747 C 0.86546 0.72783 0.81836 0.0
C1748 C 0.86495 0.71786 0.80195 0.0
C1749 C 0.87273 0.72572 0.78612 0.0
C1750 C 0.8808 0.74342 0.78681 0.0
C1751 C 0.88149 0.75293 0.80377 0.0
H1752 H 0.15257 0.27677 0.16704 0.0
H1753 H 0.11053 0.2519 0.13283 0.0
H1754 H 0.1342 0.24358 0.10993 0.0
H1755 H 0.18438 0.29215 0.12785 0.0
H1756 H 0.20427 0.28657 0.14155 0.0
H1757 H 0.18363 0.29493 0.15248 0.0
H1758 H 0.18334 0.26615 0.17348 0.0
H1759 H 0.20366 0.25752 0.16247 0.0
H1760 H 0.18316 0.24359 0.16316 0.0
H1761 H 0.16267 0.23137 0.09514 0.0
H1762 H 0.19334 0.21848 0.08835 0.0
H1763 H 0.21689 0.25171 0.13194 0.0
C1764 C 0.14823 0.27028 0.15435 0.0
C1765 C 0.12974 0.26498 0.15168 0.0
C1766 C 0.12459 0.25627 0.13506 0.0
C1767 C 0.13797 0.25146 0.12198 0.0
C1768 C 0.15631 0.25582 0.12562 0.0
C1769 C 0.16138 0.26544 0.14123 0.0
C1770 C 0.18208 0.26631 0.14326 0.0
C1771 C 0.18899 0.28617 0.14115 0.0
C1772 C 0.18841 0.25788 0.16167 0.0
C1773 C 0.18786 0.25459 0.12709 0.0
C1774 C 0.17284 0.24894 0.11686 0.0
C1775 C 0.17457 0.23615 0.10268 0.0
C1776 C 0.19202 0.2288 0.09902 0.0
C1777 C 0.2075 0.23422 0.10954 0.0
C1778 C 0.20539 0.24763 0.12341 0.0
H1779 H 0.21605 0.75471 0.88079 0.0
H1780 H 0.19573 0.79348 0.92133 0.0
H1781 H 0.16399 0.78295 0.91544 0.0
H1782 H 0.18374 0.76355 0.84904 0.0
H1783 H 0.18152 0.74044 0.84033 0.0
H1784 H 0.2026 0.74757 0.85095 0.0
H1785 H 0.20021 0.72048 0.87405 0.0
H1786 H 0.17897 0.71329 0.86346 0.0
H1787 H 0.17975 0.71787 0.88782 0.0
H1788 H 0.13452 0.77227 0.90151 0.0
H1789 H 0.11021 0.76441 0.87915 0.0
H1790 H 0.14975 0.73303 0.84736 0.0
C1791 C 0.20498 0.76051 0.8889 0.0
C1792 C 0.20832 0.77479 0.90159 0.0
C1793 C 0.19345 0.78246 0.91156 0.0
C1794 C 0.1754 0.77645 0.90843 0.0
C1795 C 0.17248 0.76273 0.89535 0.0
C1796 C 0.18691 0.75483 0.88576 0.0
C1797 C 0.18005 0.74254 0.87045 0.0
C1798 C 0.1874 0.74892 0.8516 0.0
C1799 C 0.18504 0.72234 0.87417 0.0
C1800 C 0.15956 0.74563 0.87218 0.0
C1801 C 0.15539 0.75683 0.88698 0.0
C1802 C 0.13755 0.76316 0.89012 0.0
C1803 C 0.1238 0.7586 0.87737 0.0
C1804 C 0.12812 0.74812 0.86153 0.0
C1805 C 0.14602 0.74093 0.85943 0.0
H1806 H 0.24758 0.21173 0.86181 0.0
H1807 H 0.21869 0.18087 0.90396 0.0
H1808 H 0.23167 0.15203 0.89173 0.0
H1809 H 0.23841 0.18277 0.82678 0.0
H1810 H 0.26016 0.18504 0.8151 0.0
H1811 H 0.25198 0.20335 0.82949 0.0
H1812 H 0.28209 0.20199 0.84854 0.0
H1813 H 0.29038 0.18357 0.83414 0.0
H1814 H 0.28918 0.18053 0.85872 0.0
H1815 H 0.2431 0.12646 0.87184 0.0
H1816 H 0.25126 0.10657 0.84552 0.0
H1817 H 0.27312 0.15407 0.8167 0.0
C1818 C 0.24445 0.19898 0.86884 0.0
C1819 C 0.23216 0.19857 0.88385 0.0
C1820 C 0.22811 0.18154 0.89244 0.0
C1821 C 0.23552 0.16508 0.88567 0.0
C1822 C 0.24713 0.16588 0.87044 0.0
C1823 C 0.2517 0.18244 0.86223 0.0
C1824 C 0.2625 0.17945 0.84469 0.0
C1825 C 0.25266 0.18816 0.82805 0.0
C1826 C 0.28221 0.18682 0.84665 0.0
C1827 C 0.26231 0.15867 0.84374 0.0
C1828 C 0.25378 0.15104 0.85893 0.0
C1829 C 0.2502 0.13222 0.86008 0.0
C1830 C 0.25488 0.12101 0.84506 0.0
C1831 C 0.26285 0.12875 0.82906 0.0
C1832 C 0.26724 0.14768 0.8288 0.0
H1833 H 0.81261 0.20935 0.88779 0.0
H1834 H 0.78086 0.25984 0.88575 0.0
H1835 H 0.80869 0.27695 0.87682 0.0
H1836 H 0.85822 0.23149 0.90257 0.0
H1837 H 0.87089 0.21581 0.88813 0.0
H1838 H 0.84987 0.2084 0.89904 0.0
H1839 H 0.83662 0.19908 0.86727 0.0
H1840 H 0.85752 0.20631 0.85638 0.0
H1841 H 0.83587 0.2159 0.84905 0.0
H1842 H 0.8369 0.28686 0.86108 0.0
H1843 H 0.86302 0.28848 0.83949 0.0
H1844 H 0.87766 0.23235 0.85278 0.0
C1845 C 0.81166 0.22412 0.88611 0.0
C1846 C 0.79457 0.23325 0.88747 0.0
C1847 C 0.7938 0.25253 0.88482 0.0
C1848 C 0.80959 0.26241 0.87989 0.0
C1849 C 0.82611 0.25288 0.87793 0.0
C1850 C 0.82731 0.23417 0.88117 0.0
C1851 C 0.84588 0.22668 0.87545 0.0
C1852 C 0.85686 0.22022 0.89231 0.0
C1853 C 0.84383 0.2111 0.86119 0.0
C1854 C 0.85437 0.24377 0.86709 0.0
C1855 C 0.84294 0.25887 0.86914 0.0
C1856 C 0.84631 0.27538 0.85997 0.0
C1857 C 0.86118 0.27621 0.84775 0.0
C1858 C 0.87252 0.26069 0.84493 0.0
C1859 C 0.86962 0.24462 0.85538 0.0
H1860 H 0.76172 0.86731 0.84081 0.0
H1861 H 0.7159 0.8462 0.80909 0.0
H1862 H 0.71352 0.81967 0.83013 0.0
H1863 H 0.78348 0.82739 0.84469 0.0
H1864 H 0.79231 0.83029 0.86768 0.0
H1865 H 0.78718 0.85012 0.85391 0.0
H1866 H 0.76531 0.86244 0.87921 0.0
H1867 H 0.77057 0.84268 0.89326 0.0
H1868 H 0.74702 0.84802 0.88771 0.0
H1869 H 0.72007 0.79282 0.85008 0.0
H1870 H 0.73515 0.76769 0.86714 0.0
H1871 H 0.77743 0.8057 0.88537 0.0
C1872 C 0.75062 0.85756 0.83888 0.0
C1873 C 0.73883 0.85887 0.82353 0.0
C1874 C 0.72495 0.84549 0.82091 0.0
C1875 C 0.72345 0.83043 0.83283 0.0
C1876 C 0.73593 0.82898 0.8473 0.0
C1877 C 0.74917 0.84229 0.85048 0.0
C1878 C 0.7628 0.83605 0.86494 0.0
C1879 C 0.7826 0.83595 0.85733 0.0
C1880 C 0.76133 0.84801 0.88231 0.0
C1881 C 0.75586 0.81676 0.8685 0.0
C1882 C 0.74005 0.81312 0.85861 0.0
C1883 C 0.73219 0.79563 0.85824 0.0
C1884 C 0.74091 0.78141 0.86791 0.0
C1885 C 0.75747 0.78473 0.8776 0.0
C1886 C 0.76468 0.80276 0.87827 0.0
H1887 H 0.7801 0.75529 0.14254 0.0
H1888 H 0.80568 0.77155 0.09113 0.0
H1889 H 0.83552 0.75995 0.10229 0.0
H1890 H 0.81393 0.771 0.17005 0.0
H1891 H 0.81286 0.75299 0.18707 0.0
H1892 H 0.79287 0.7584 0.17365 0.0
H1893 H 0.79075 0.72451 0.16277 0.0
H1894 H 0.81077 0.71895 0.1763 0.0
H1895 H 0.81038 0.71383 0.15204 0.0
H1896 H 0.86319 0.7518 0.12073 0.0
H1897 H 0.88645 0.74836 0.14522 0.0
H1898 H 0.84299 0.73765 0.18474 0.0
C1899 C 0.79183 0.75574 0.13337 0.0
C1900 C 0.79057 0.76416 0.11594 0.0
C1901 C 0.80635 0.76506 0.10454 0.0
C1902 C 0.82334 0.75841 0.11071 0.0
C1903 C 0.82431 0.75083 0.12828 0.0
C1904 C 0.80894 0.74933 0.13941 0.0
C1905 C 0.81409 0.74305 0.15858 0.0
C1906 C 0.80809 0.75721 0.17318 0.0
C1907 C 0.80602 0.72394 0.16266 0.0
C1908 C 0.83481 0.74222 0.15676 0.0
C1909 C 0.84042 0.74632 0.13907 0.0
C1910 C 0.85897 0.74816 0.13454 0.0
C1911 C 0.8721 0.74623 0.14855 0.0
C1912 C 0.86656 0.7427 0.1669 0.0
C1913 C 0.8477 0.74013 0.17083 0.0
H1914 H 0.23706 0.78134 0.12251 0.0
H1915 H 0.19861 0.80836 0.08572 0.0
H1916 H 0.21113 0.83855 0.09484 0.0
H1917 H 0.23192 0.8112 0.15814 0.0
H1918 H 0.25553 0.81078 0.16567 0.0
H1919 H 0.24615 0.79141 0.15356 0.0
H1920 H 0.27221 0.79391 0.12932 0.0
H1921 H 0.28162 0.81345 0.14137 0.0
H1922 H 0.27579 0.81533 0.11734 0.0
H1923 H 0.22431 0.86564 0.11128 0.0
H1924 H 0.23565 0.88715 0.13495 0.0
H1925 H 0.26573 0.84251 0.16078 0.0
C1926 C 0.23162 0.79357 0.11598 0.0
C1927 C 0.21691 0.79249 0.10337 0.0
C1928 C 0.2099 0.80885 0.09543 0.0
C1929 C 0.21703 0.82606 0.10039 0.0
C1930 C 0.23125 0.82668 0.11321 0.0
C1931 C 0.23852 0.81084 0.12086 0.0
C1932 C 0.25207 0.81528 0.136 0.0
C1933 C 0.24604 0.80667 0.15442 0.0
C1934 C 0.27158 0.80913 0.13068 0.0
C1935 C 0.25057 0.83603 0.13634 0.0
C1936 C 0.23885 0.8424 0.1228 0.0
C1937 C 0.23382 0.86088 0.12169 0.0
C1938 C 0.24034 0.87302 0.13521 0.0
C1939 C 0.2516 0.86654 0.14973 0.0
C1940 C 0.25735 0.84797 0.14975 0.0
H1941 H 0.72762 0.16168 0.19503 0.0
H1942 H 0.73416 0.11404 0.15965 0.0
H1943 H 0.73342 0.13426 0.1324 0.0
H1944 H 0.69829 0.18973 0.16185 0.0
H1945 H 0.70951 0.21067 0.16895 0.0
H1946 H 0.70626 0.1922 0.1852 0.0
H1947 H 0.74126 0.19208 0.19197 0.0
H1948 H 0.7446 0.2104 0.17578 0.0
H1949 H 0.75723 0.18922 0.1732 0.0
H1950 H 0.73892 0.15949 0.11017 0.0
H1951 H 0.74963 0.18772 0.09466 0.0
H1952 H 0.73831 0.2192 0.14401 0.0
C1953 C 0.72835 0.15544 0.18152 0.0
C1954 C 0.73101 0.13631 0.17944 0.0
C1955 C 0.73204 0.12867 0.16156 0.0
C1956 C 0.73154 0.14004 0.14599 0.0
C1957 C 0.72963 0.15896 0.14855 0.0
C1958 C 0.72777 0.16659 0.16588 0.0
C1959 C 0.72819 0.18739 0.16512 0.0
C1960 C 0.70945 0.19548 0.1706 0.0
C1961 C 0.74375 0.19521 0.17722 0.0
C1962 C 0.73199 0.19027 0.14485 0.0
C1963 C 0.73234 0.17371 0.13545 0.0
C1964 C 0.73811 0.17259 0.1172 0.0
C1965 C 0.74423 0.18866 0.10852 0.0
C1966 C 0.7445 0.20561 0.1181 0.0
C1967 C 0.73764 0.20652 0.13622 0.0
H1968 H 0.67726 0.66853 0.75367 0.0
H1969 H 0.64202 0.62195 0.74128 0.0
H1970 H 0.61778 0.64329 0.73073 0.0
H1971 H 0.64019 0.70156 0.7675 0.0
H1972 H 0.65192 0.72048 0.75657 0.0
H1973 H 0.66496 0.70181 0.76637 0.0
H1974 H 0.68119 0.69684 0.73502 0.0
H1975 H 0.66809 0.71528 0.72505 0.0
H1976 H 0.66751 0.69273 0.71475 0.0
H1977 H 0.59936 0.66918 0.71757 0.0
H1978 H 0.58783 0.69757 0.70318 0.0
H1979 H 0.63553 0.72727 0.72348 0.0
C1980 C 0.66422 0.66279 0.74935 0.0
C1981 C 0.66148 0.64355 0.74845 0.0
C1982 C 0.64438 0.63663 0.74222 0.0
C1983 C 0.63052 0.64865 0.73623 0.0
C1984 C 0.63398 0.66752 0.73661 0.0
C1985 C 0.65037 0.67456 0.74316 0.0
C1986 C 0.65151 0.69517 0.74026 0.0
C1987 C 0.65218 0.70535 0.75878 0.0
C1988 C 0.66805 0.70029 0.72804 0.0
C1989 C 0.63349 0.69855 0.73044 0.0
C1990 C 0.62347 0.68248 0.72873 0.0
C1991 C 0.60695 0.6819 0.71909 0.0
C1992 C 0.60057 0.69812 0.71088 0.0
C1993 C 0.61076 0.71472 0.7122 0.0
C1994 C 0.6273 0.71491 0.72238 0.0
H1995 H 0.27592 0.62331 0.75384 0.0
H1996 H 0.29475 0.57802 0.71983 0.0
H1997 H 0.32638 0.58275 0.73104 0.0
H1998 H 0.3111 0.65194 0.74408 0.0
H1999 H 0.31299 0.66227 0.76656 0.0
H2000 H 0.29146 0.6527 0.75922 0.0
H2001 H 0.29088 0.63175 0.7881 0.0
H2002 H 0.31256 0.64127 0.79548 0.0
H2003 H 0.31006 0.61675 0.79274 0.0
H2004 H 0.35632 0.59564 0.74143 0.0
H2005 H 0.38195 0.61664 0.74872 0.0
H2006 H 0.34378 0.65336 0.77626 0.0
C2007 C 0.2866 0.61401 0.74923 0.0
C2008 C 0.28288 0.60027 0.73603 0.0
C2009 C 0.29729 0.58865 0.72995 0.0
C2010 C 0.31529 0.59112 0.73637 0.0
C2011 C 0.31863 0.60517 0.74897 0.0
C2012 C 0.30466 0.61638 0.75541 0.0
C2013 C 0.31219 0.63207 0.76682 0.0
C2014 C 0.30661 0.65083 0.75867 0.0
C2015 C 0.30606 0.63035 0.78698 0.0
C2016 C 0.33261 0.62857 0.76486 0.0
C2017 C 0.33606 0.61272 0.75494 0.0
C2018 C 0.35383 0.60785 0.74958 0.0
C2019 C 0.36833 0.61987 0.75379 0.0
C2020 C 0.36489 0.63665 0.76307 0.0
C2021 C 0.34692 0.64054 0.76936 0.0
H2022 H 0.3906 0.31581 0.70529 0.0
H2023 H 0.38319 0.27742 0.75039 0.0
H2024 H 0.3712 0.30251 0.76974 0.0
H2025 H 0.40124 0.35798 0.73513 0.0
H2026 H 0.38867 0.37263 0.71957 0.0
H2027 H 0.40089 0.35287 0.71086 0.0
H2028 H 0.3709 0.34091 0.69577 0.0
H2029 H 0.35868 0.36053 0.70436 0.0
H2030 H 0.35072 0.33769 0.70984 0.0
H2031 H 0.35329 0.32891 0.78111 0.0
H2032 H 0.33147 0.3548 0.78369 0.0
H2033 H 0.35177 0.37718 0.73239 0.0
C2034 C 0.38705 0.31282 0.71944 0.0
C2035 C 0.38781 0.29466 0.72631 0.0
C2036 C 0.38278 0.29123 0.74482 0.0
C2037 C 0.37606 0.30543 0.75597 0.0
C2038 C 0.37477 0.32306 0.74854 0.0
C2039 C 0.38039 0.32687 0.73077 0.0
C2040 C 0.37527 0.34628 0.72521 0.0
C2041 C 0.39255 0.35814 0.72254 0.0
C2042 C 0.36317 0.34633 0.70778 0.0
C2043 C 0.3646 0.35228 0.74206 0.0
C2044 C 0.36485 0.33883 0.75556 0.0
C2045 C 0.35355 0.33986 0.77103 0.0
C2046 C 0.3412 0.35458 0.7724 0.0
C2047 C 0.34042 0.36813 0.75848 0.0
C2048 C 0.35278 0.36738 0.74357 0.0
H2049 H 0.64812 0.33136 0.77032 0.0
H2050 H 0.60297 0.35952 0.74331 0.0
H2051 H 0.62405 0.3846 0.73449 0.0
H2052 H 0.67506 0.37411 0.78453 0.0
H2053 H 0.69646 0.3626 0.77961 0.0
H2054 H 0.67706 0.34964 0.78805 0.0
H2055 H 0.67957 0.32792 0.75992 0.0
H2056 H 0.69867 0.34089 0.75123 0.0
H2057 H 0.67863 0.3375 0.73705 0.0
H2058 H 0.65075 0.40264 0.72288 0.0
H2059 H 0.6806 0.41282 0.71045 0.0
H2060 H 0.70848 0.37262 0.74465 0.0
C2061 C 0.64246 0.34314 0.7632 0.0
C2062 C 0.62388 0.34347 0.75752 0.0
C2063 C 0.61712 0.35901 0.74793 0.0
C2064 C 0.629 0.37335 0.74287 0.0
C2065 C 0.64751 0.37202 0.74772 0.0
C2066 C 0.65415 0.35744 0.75795 0.0
C2067 C 0.67493 0.35779 0.75914 0.0
C2068 C 0.68125 0.36125 0.77902 0.0
C2069 C 0.68343 0.33998 0.75136 0.0
C2070 C 0.67904 0.37416 0.747 0.0
C2071 C 0.66305 0.38245 0.74089 0.0
C2072 C 0.66335 0.39657 0.72794 0.0
C2073 C 0.68039 0.40217 0.72086 0.0
C2074 C 0.69688 0.39354 0.72662 0.0
C2075 C 0.69615 0.37968 0.7402 0.0
H2076 H 0.63484 0.38189 0.26149 0.0
H2077 H 0.66325 0.37361 0.20983 0.0
H2078 H 0.64203 0.34851 0.20205 0.0
H2079 H 0.63405 0.34065 0.27395 0.0
H2080 H 0.61167 0.33914 0.28454 0.0
H2081 H 0.62276 0.36097 0.28264 0.0
H2082 H 0.59476 0.37416 0.26508 0.0
H2083 H 0.58334 0.35222 0.26714 0.0
H2084 H 0.58634 0.36261 0.24482 0.0
H2085 H 0.62682 0.31885 0.20486 0.0
H2086 H 0.61839 0.28862 0.21756 0.0
H2087 H 0.59876 0.31512 0.26725 0.0
C2088 C 0.63576 0.37554 0.24805 0.0
C2089 C 0.65059 0.37963 0.23627 0.0
C2090 C 0.6519 0.37069 0.21903 0.0
C2091 C 0.63981 0.35644 0.21446 0.0
C2092 C 0.62636 0.35141 0.22717 0.0
C2093 C 0.62393 0.36103 0.24349 0.0
C2094 C 0.61143 0.35062 0.25652 0.0
C2095 C 0.62055 0.34766 0.27549 0.0
C2096 C 0.59286 0.36049 0.25849 0.0
C2097 C 0.60926 0.33275 0.24604 0.0
C2098 C 0.61724 0.33375 0.22879 0.0
C2099 C 0.6199 0.31806 0.21802 0.0
C2100 C 0.61516 0.30088 0.22539 0.0
C2101 C 0.60799 0.29953 0.24343 0.0
C2102 C 0.60401 0.31577 0.25333 0.0
H2103 H 0.69933 0.60241 0.27349 0.0
H2104 H 0.74034 0.63049 0.24041 0.0
H2105 H 0.71563 0.64434 0.22175 0.0
H2106 H 0.66382 0.59607 0.23551 0.0
H2107 H 0.64536 0.60037 0.25149 0.0
H2108 H 0.6661 0.5892 0.25923 0.0
H2109 H 0.67002 0.61406 0.2845 0.0
H2110 H 0.64943 0.62527 0.27685 0.0
H2111 H 0.67069 0.63798 0.27797 0.0
H2112 H 0.6872 0.66008 0.21136 0.0
H2113 H 0.65746 0.67632 0.21012 0.0
H2114 H 0.63464 0.63772 0.24941 0.0
C2115 C 0.70317 0.61097 0.26193 0.0
C2116 C 0.72179 0.61534 0.25842 0.0
C2117 C 0.72619 0.62685 0.24333 0.0
C2118 C 0.71223 0.63472 0.23258 0.0
C2119 C 0.69398 0.63073 0.23693 0.0
C2120 C 0.68943 0.61893 0.25112 0.0
C2121 C 0.6689 0.61883 0.25467 0.0
C2122 C 0.66055 0.6 0.24994 0.0
C2123 C 0.66452 0.62438 0.27467 0.0
C2124 C 0.66274 0.63337 0.24112 0.0
C2125 C 0.67735 0.63975 0.2307 0.0
C2126 C 0.67556 0.65484 0.21902 0.0
C2127 C 0.65863 0.66402 0.21844 0.0
C2128 C 0.64373 0.6581 0.2295 0.0
C2129 C 0.64564 0.64217 0.2404 0.0
H2130 H 0.3585 0.61701 0.25352 0.0
H2131 H 0.33819 0.63427 0.20034 0.0
H2132 H 0.35954 0.66065 0.20063 0.0
H2133 H 0.3564 0.65766 0.27228 0.0
H2134 H 0.37652 0.65661 0.28672 0.0
H2135 H 0.36525 0.63577 0.27989 0.0
H2136 H 0.3955 0.62336 0.2658 0.0
H2137 H 0.4071 0.64408 0.273 0.0
H2138 H 0.40786 0.63705 0.24922 0.0
H2139 H 0.37666 0.68853 0.20981 0.0
H2140 H 0.38853 0.71535 0.22688 0.0
H2141 H 0.3965 0.681 0.27505 0.0
C2142 C 0.35951 0.62569 0.24146 0.0
C2143 C 0.3472 0.62343 0.22667 0.0
C2144 C 0.34792 0.63561 0.21154 0.0
C2145 C 0.35999 0.65063 0.21163 0.0
C2146 C 0.37112 0.6533 0.22701 0.0
C2147 C 0.37116 0.64102 0.2416 0.0
C2148 C 0.38148 0.6488 0.25795 0.0
C2149 C 0.36917 0.64977 0.2752 0.0
C2150 C 0.39904 0.63766 0.26171 0.0
C2151 C 0.38606 0.66779 0.25076 0.0
C2152 C 0.3805 0.66993 0.23271 0.0
C2153 C 0.38152 0.68688 0.22379 0.0
C2154 C 0.38818 0.70209 0.23362 0.0
C2155 C 0.39342 0.70028 0.2523 0.0
C2156 C 0.39273 0.6828 0.26074 0.0
H2157 H 0.35336 0.32425 0.24526 0.0
H2158 H 0.39522 0.35222 0.2773 0.0
H2159 H 0.37381 0.37808 0.28247 0.0
H2160 H 0.33005 0.36696 0.22606 0.0
H2161 H 0.30781 0.35623 0.22828 0.0
H2162 H 0.32777 0.34243 0.22317 0.0
H2163 H 0.32069 0.32192 0.25143 0.0
H2164 H 0.30093 0.33568 0.25677 0.0
H2165 H 0.3186 0.3324 0.27383 0.0
H2166 H 0.34623 0.39728 0.28956 0.0
H2167 H 0.31522 0.40842 0.29752 0.0
H2168 H 0.29128 0.36771 0.26101 0.0
C2169 C 0.35829 0.3361 0.25282 0.0
C2170 C 0.37596 0.33623 0.26088 0.0
C2171 C 0.38179 0.35188 0.27088 0.0
C2172 C 0.36972 0.36666 0.27385 0.0
C2173 C 0.35202 0.36563 0.26651 0.0
C2174 C 0.34642 0.35084 0.25595 0.0
C2175 C 0.32605 0.35168 0.25178 0.0
C2176 C 0.32273 0.3545 0.23109 0.0
C2177 C 0.316 0.33441 0.25889 0.0
C2178 C 0.32079 0.36862 0.26262 0.0
C2179 C 0.336 0.37674 0.27066 0.0
C2180 C 0.33429 0.39133 0.28296 0.0
C2181 C 0.31659 0.3975 0.28748 0.0
C2182 C 0.30083 0.38896 0.27983 0.0
C2183 C 0.30306 0.37472 0.26683 0.0
H2184 H 0.75049 0.65215 0.72345 0.0
H2185 H 0.73774 0.60324 0.69188 0.0
H2186 H 0.75049 0.61788 0.66402 0.0
H2187 H 0.73388 0.68141 0.69317 0.0
H2188 H 0.75033 0.69971 0.69622 0.0
H2189 H 0.74615 0.6838 0.71459 0.0
H2190 H 0.78079 0.67559 0.71583 0.0
H2191 H 0.78518 0.69173 0.69749 0.0
H2192 H 0.79238 0.66812 0.69521 0.0
H2193 H 0.75796 0.63954 0.63897 0.0
H2194 H 0.75831 0.6666 0.6186 0.0
H2195 H 0.76475 0.7022 0.66611 0.0
C2196 C 0.7513 0.64421 0.71086 0.0
C2197 C 0.74346 0.62651 0.70979 0.0
C2198 C 0.74391 0.61677 0.69295 0.0
C2199 C 0.75121 0.62494 0.6771 0.0
C2200 C 0.75794 0.64287 0.67835 0.0
C2201 C 0.75815 0.65237 0.69486 0.0
C2202 C 0.76272 0.67249 0.69196 0.0
C2203 C 0.74735 0.68507 0.69941 0.0
C2204 C 0.78138 0.67726 0.70064 0.0
C2205 C 0.76375 0.67308 0.67119 0.0
C2206 C 0.76161 0.65575 0.66363 0.0
C2207 C 0.76009 0.65311 0.64471 0.0
C2208 C 0.76022 0.6686 0.63325 0.0
C2209 C 0.76152 0.68652 0.64079 0.0
C2210 C 0.76393 0.68867 0.65994 0.0
H2211 H 0.39109 0.69773 0.69497 0.0
H2212 H 0.37633 0.73947 0.73505 0.0
H2213 H 0.36277 0.75829 0.71031 0.0
H2214 H 0.3996 0.73037 0.65499 0.0
H2215 H 0.38972 0.71419 0.63901 0.0
H2216 H 0.4019 0.70601 0.65901 0.0
H2217 H 0.37335 0.68695 0.66864 0.0
H2218 H 0.36114 0.69504 0.64878 0.0
H2219 H 0.35151 0.69838 0.67139 0.0
H2220 H 0.3454 0.7692 0.68308 0.0
H2221 H 0.32581 0.77139 0.65546 0.0
H2222 H 0.35254 0.72324 0.63261 0.0
C2223 C 0.38552 0.71108 0.69848 0.0
C2224 C 0.38476 0.71711 0.71694 0.0
C2225 C 0.37713 0.73457 0.72099 0.0
C2226 C 0.36948 0.74542 0.70701 0.0
C2227 C 0.36985 0.73875 0.68902 0.0
C2228 C 0.37789 0.72208 0.68469 0.0
C2229 C 0.37445 0.71691 0.66481 0.0
C2230 C 0.39249 0.71688 0.65381 0.0
C2231 C 0.36451 0.69823 0.66334 0.0
C2232 C 0.36215 0.73265 0.65898 0.0
C2233 C 0.36 0.74533 0.67302 0.0
C2234 C 0.34739 0.7597 0.67179 0.0
C2235 C 0.33628 0.76081 0.65608 0.0
C2236 C 0.33788 0.74762 0.64184 0.0
C2237 C 0.35146 0.73382 0.64304 0.0
H2238 H 0.24577 0.37258 0.71077 0.0
H2239 H 0.28672 0.40677 0.684 0.0
H2240 H 0.27328 0.39915 0.65378 0.0
H2241 H 0.24828 0.33725 0.68112 0.0
H2242 H 0.22422 0.3313 0.68145 0.0
H2243 H 0.23425 0.34281 0.70082 0.0
H2244 H 0.20987 0.36871 0.69806 0.0
H2245 H 0.19984 0.35726 0.67848 0.0
H2246 H 0.20725 0.38084 0.67659 0.0
H2247 H 0.25919 0.38352 0.62654 0.0
H2248 H 0.24743 0.35972 0.60531 0.0
H2249 H 0.21547 0.33613 0.64978 0.0
C2250 C 0.25157 0.37893 0.6986 0.0
C2251 C 0.26725 0.39029 0.69976 0.0
C2252 C 0.27466 0.39803 0.68347 0.0
C2253 C 0.26702 0.39391 0.66623 0.0
C2254 C 0.25185 0.38221 0.66552 0.0
C2255 C 0.24415 0.37491 0.68133 0.0
C2256 C 0.22968 0.36067 0.67685 0.0
C2257 C 0.23441 0.34191 0.68556 0.0
C2258 C 0.21052 0.36728 0.68285 0.0
C2259 C 0.2313 0.36021 0.65611 0.0
C2260 C 0.24373 0.37311 0.64974 0.0
C2261 C 0.24909 0.37368 0.63129 0.0
C2262 C 0.24229 0.36015 0.61929 0.0
C2263 C 0.23053 0.34614 0.62593 0.0
C2264 C 0.22428 0.34682 0.6443 0.0
H2265 H 0.68035 0.24004 0.65815 0.0
H2266 H 0.6374 0.24505 0.617 0.0
H2267 H 0.61407 0.24588 0.64165 0.0
H2268 H 0.65264 0.21321 0.6933 0.0
H2269 H 0.66322 0.22565 0.71195 0.0
H2270 H 0.67604 0.22112 0.69119 0.0
H2271 H 0.68262 0.25598 0.68767 0.0
H2272 H 0.66985 0.2606 0.70828 0.0
H2273 H 0.66363 0.27191 0.68711 0.0
H2274 H 0.59641 0.25211 0.67012 0.0
H2275 H 0.58578 0.26382 0.70011 0.0
H2276 H 0.64003 0.25471 0.72306 0.0
C2277 C 0.66599 0.24068 0.65426 0.0
C2278 C 0.66069 0.2424 0.63563 0.0
C2279 C 0.64178 0.24362 0.63117 0.0
C2280 C 0.62843 0.244 0.64509 0.0
C2281 C 0.63419 0.24295 0.66336 0.0
C2282 C 0.65254 0.24117 0.66797 0.0
C2283 C 0.65541 0.24288 0.68855 0.0
C2284 C 0.66223 0.22462 0.69673 0.0
C2285 C 0.66864 0.25879 0.69315 0.0
C2286 C 0.63597 0.24704 0.6947 0.0
C2287 C 0.62388 0.24657 0.68 0.0
C2288 C 0.60562 0.25206 0.68181 0.0
C2289 C 0.59974 0.25875 0.69888 0.0
C2290 C 0.61207 0.25997 0.7139 0.0
C2291 C 0.63021 0.25342 0.71194 0.0
H2292 H 0.70655 0.37076 0.31608 0.0
H2293 H 0.75565 0.37937 0.28322 0.0
H2294 H 0.77486 0.36991 0.30968 0.0
H2295 H 0.72318 0.3879 0.35778 0.0
H2296 H 0.71208 0.3709 0.37202 0.0
H2297 H 0.70218 0.37711 0.3502 0.0
H2298 H 0.70272 0.34294 0.33993 0.0
H2299 H 0.71251 0.3365 0.36177 0.0
H2300 H 0.72403 0.33033 0.34071 0.0
H2301 H 0.78869 0.36085 0.34049 0.0
H2302 H 0.79577 0.35119 0.37246 0.0
H2303 H 0.73746 0.34893 0.38461 0.0
C2304 C 0.72134 0.37051 0.31436 0.0
C2305 C 0.72961 0.37589 0.29761 0.0
C2306 C 0.74901 0.37525 0.29591 0.0
C2307 C 0.76003 0.36996 0.31088 0.0
C2308 C 0.75141 0.36517 0.32734 0.0
C2309 C 0.73249 0.36514 0.32905 0.0
C2310 C 0.72655 0.35948 0.34818 0.0
C2311 C 0.71534 0.37476 0.35759 0.0
C2312 C 0.71582 0.34124 0.34761 0.0
C2313 C 0.7451 0.35701 0.35721 0.0
C2314 C 0.7593 0.36013 0.34495 0.0
C2315 C 0.77767 0.35838 0.35018 0.0
C2316 C 0.78157 0.35301 0.36834 0.0
C2317 C 0.76719 0.34964 0.38099 0.0
C2318 C 0.74875 0.35185 0.37534 0.0
H2319 H 0.62547 0.74133 0.28168 0.0
H2320 H 0.58613 0.70283 0.30456 0.0
H2321 H 0.59193 0.71528 0.33561 0.0
H2322 H 0.65761 0.73476 0.31398 0.0
H2323 H 0.666 0.75807 0.31508 0.0
H2324 H 0.65523 0.74988 0.29445 0.0
H2325 H 0.63178 0.77669 0.29596 0.0
H2326 H 0.64253 0.78497 0.31672 0.0
H2327 H 0.61825 0.78002 0.31648 0.0
H2328 H 0.60583 0.72754 0.3642 0.0
H2329 H 0.6283 0.73663 0.38789 0.0
H2330 H 0.65934 0.76668 0.34667 0.0
C2331 C 0.61756 0.73607 0.29316 0.0
C2332 C 0.60523 0.7213 0.29078 0.0
C2333 C 0.59559 0.71424 0.30615 0.0
C2334 C 0.59867 0.72134 0.3238 0.0
C2335 C 0.61144 0.73548 0.32584 0.0
C2336 C 0.62074 0.7428 0.31091 0.0
C2337 C 0.63596 0.7556 0.31704 0.0
C2338 C 0.6548 0.74918 0.30971 0.0
C2339 C 0.63188 0.7755 0.3112 0.0
C2340 C 0.63455 0.75341 0.3377 0.0
C2341 C 0.61993 0.74226 0.34253 0.0
C2342 C 0.61708 0.73663 0.36065 0.0
C2343 C 0.62993 0.74186 0.37404 0.0
C2344 C 0.6456 0.75234 0.36913 0.0
C2345 C 0.64741 0.75882 0.35089 0.0
H2346 H 0.24015 0.67425 0.34248 0.0
H2347 H 0.26922 0.64486 0.38555 0.0
H2348 H 0.27605 0.61981 0.36364 0.0
H2349 H 0.22264 0.63249 0.31666 0.0
H2350 H 0.22633 0.64383 0.29491 0.0
H2351 H 0.22002 0.65709 0.3149 0.0
H2352 H 0.24878 0.67758 0.31022 0.0
H2353 H 0.25533 0.66432 0.29045 0.0
H2354 H 0.2712 0.66702 0.30931 0.0
H2355 H 0.28485 0.60138 0.33604 0.0
H2356 H 0.29409 0.59049 0.30527 0.0
H2357 H 0.25946 0.63211 0.28014 0.0
C2358 C 0.24739 0.66225 0.34753 0.0
C2359 C 0.25414 0.66151 0.36575 0.0
C2360 C 0.26381 0.64569 0.3717 0.0
C2361 C 0.26773 0.63137 0.35935 0.0
C2362 C 0.26168 0.63302 0.34121 0.0
C2363 C 0.25147 0.64796 0.33539 0.0
C2364 C 0.24862 0.6477 0.31476 0.0
C2365 C 0.22819 0.64512 0.31003 0.0
C2366 C 0.25646 0.66518 0.30567 0.0
C2367 C 0.2597 0.63085 0.30971 0.0
C2368 C 0.26681 0.62236 0.32518 0.0
C2369 C 0.279 0.60764 0.32386 0.0
C2370 C 0.28426 0.60164 0.30631 0.0
C2371 C 0.27744 0.61042 0.2903 0.0
C2372 C 0.26467 0.62492 0.2921 0.0
H2373 H 0.34596 0.25051 0.38679 0.0
H2374 H 0.31827 0.20349 0.363 0.0
H2375 H 0.34095 0.20276 0.33778 0.0
H2376 H 0.34997 0.27333 0.34824 0.0
H2377 H 0.37216 0.28373 0.35196 0.0
H2378 H 0.3584 0.27698 0.37129 0.0
H2379 H 0.38488 0.2566 0.38358 0.0
H2380 H 0.39895 0.26354 0.36435 0.0
H2381 H 0.39505 0.23946 0.36882 0.0
H2382 H 0.3607 0.21166 0.31188 0.0
H2383 H 0.37631 0.2292 0.28744 0.0
H2384 H 0.39093 0.2713 0.32716 0.0
C2385 C 0.34542 0.23943 0.37684 0.0
C2386 C 0.33072 0.22681 0.37694 0.0
C2387 C 0.3297 0.21305 0.36324 0.0
C2388 C 0.34254 0.21253 0.34891 0.0
C2389 C 0.35626 0.22591 0.34847 0.0
C2390 C 0.35795 0.23902 0.36221 0.0
C2391 C 0.37148 0.25391 0.35676 0.0
C2392 C 0.36245 0.2731 0.35707 0.0
C2393 C 0.38861 0.25333 0.36911 0.0
C2394 C 0.37603 0.24788 0.33735 0.0
C2395 C 0.36757 0.23141 0.33303 0.0
C2396 C 0.36784 0.22428 0.31523 0.0
C2397 C 0.37664 0.23442 0.30139 0.0
C2398 C 0.38488 0.2516 0.30541 0.0
C2399 C 0.38503 0.25806 0.32374 0.0
H2400 H 0.68448 0.73204 0.61328 0.0
H2401 H 0.70987 0.78333 0.63029 0.0
H2402 H 0.67921 0.79541 0.63905 0.0
H2403 H 0.6416 0.75134 0.59539 0.0
H2404 H 0.62816 0.73237 0.60403 0.0
H2405 H 0.65175 0.7288 0.59731 0.0
H2406 H 0.65904 0.71549 0.62962 0.0
H2407 H 0.63552 0.71893 0.63637 0.0
H2408 H 0.65379 0.72897 0.64978 0.0
H2409 H 0.64559 0.80081 0.64788 0.0
H2410 H 0.61303 0.79813 0.65777 0.0
H2411 H 0.61089 0.74291 0.63541 0.0
C2412 C 0.68366 0.74595 0.61856 0.0
C2413 C 0.69959 0.75678 0.62101 0.0
C2414 C 0.69784 0.77481 0.62821 0.0
C2415 C 0.68048 0.7818 0.63315 0.0
C2416 C 0.66507 0.7706 0.6307 0.0
C2417 C 0.66659 0.75304 0.62358 0.0
C2418 C 0.64835 0.74309 0.62363 0.0
C2419 C 0.6421 0.73865 0.60392 0.0
C2420 C 0.64924 0.7256 0.63556 0.0
C2421 C 0.63631 0.75761 0.63228 0.0
C2422 C 0.64605 0.77352 0.63603 0.0
C2423 C 0.63785 0.78846 0.64487 0.0
C2424 C 0.61942 0.78681 0.65048 0.0
C2425 C 0.6096 0.77028 0.64752 0.0
C2426 C 0.61802 0.75578 0.63777 0.0
H2427 H 0.73236 0.29382 0.3407 0.0
H2428 H 0.70865 0.28609 0.39503 0.0
H2429 H 0.68123 0.27205 0.38112 0.0
H2430 H 0.69039 0.30654 0.31894 0.0
H2431 H 0.69547 0.29509 0.29753 0.0
H2432 H 0.71391 0.3035 0.31175 0.0
H2433 H 0.72834 0.27091 0.31244 0.0
H2434 H 0.70992 0.26235 0.29824 0.0
H2435 H 0.71469 0.25167 0.3201 0.0
H2436 H 0.65595 0.25992 0.36167 0.0
H2437 H 0.63373 0.25143 0.3375 0.0
H2438 H 0.6734 0.26709 0.29563 0.0
C2439 C 0.72149 0.28898 0.34966 0.0
C2440 C 0.7227 0.29102 0.36895 0.0
C2441 C 0.70804 0.28476 0.3802 0.0
C2442 C 0.69241 0.27666 0.37246 0.0
C2443 C 0.69159 0.27496 0.35343 0.0
C2444 C 0.70565 0.28099 0.34214 0.0
C2445 C 0.70078 0.27836 0.32205 0.0
C2446 C 0.70009 0.29698 0.31198 0.0
C2447 C 0.71423 0.26502 0.31266 0.0
C2448 C 0.68179 0.26995 0.32387 0.0
C2449 C 0.67682 0.26804 0.34211 0.0
C2450 C 0.6597 0.26122 0.34731 0.0
C2451 C 0.64717 0.25644 0.33349 0.0
C2452 C 0.65184 0.25851 0.31468 0.0
C2453 C 0.66949 0.26513 0.30988 0.0
H2454 H 0.73609 0.6257 0.35413 0.0
H2455 H 0.78826 0.64742 0.33507 0.0
H2456 H 0.78426 0.67455 0.355 0.0
H2457 H 0.71303 0.66491 0.35105 0.0
H2458 H 0.69863 0.66228 0.37107 0.0
H2459 H 0.70766 0.6423 0.35974 0.0
H2460 H 0.72259 0.63131 0.39017 0.0
H2461 H 0.71333 0.6512 0.40176 0.0
H2462 H 0.73766 0.64654 0.40263 0.0
H2463 H 0.77173 0.70187 0.37101 0.0
H2464 H 0.75207 0.72683 0.38293 0.0
H2465 H 0.70784 0.68767 0.39155 0.0
C2466 C 0.74709 0.63573 0.35487 0.0
C2467 C 0.76255 0.63441 0.34322 0.0
C2468 C 0.77635 0.64812 0.34401 0.0
C2469 C 0.77423 0.66356 0.35533 0.0
C2470 C 0.75829 0.66501 0.36586 0.0
C2471 C 0.74505 0.65133 0.36595 0.0
C2472 C 0.72798 0.65743 0.37621 0.0
C2473 C 0.71083 0.65669 0.36377 0.0
C2474 C 0.72524 0.64594 0.39374 0.0
C2475 C 0.73324 0.67704 0.38084 0.0
C2476 C 0.75092 0.68102 0.37512 0.0
C2477 C 0.75805 0.6988 0.37602 0.0
C2478 C 0.74673 0.71292 0.38269 0.0
C2479 C 0.72845 0.70918 0.38825 0.0
C2480 C 0.72186 0.69091 0.38771 0.0
H2481 H 0.31725 0.72755 0.38601 0.0
H2482 H 0.27867 0.76532 0.36059 0.0
H2483 H 0.30433 0.78029 0.34413 0.0
H2484 H 0.35819 0.76011 0.38792 0.0
H2485 H 0.37367 0.74156 0.38235 0.0
H2486 H 0.35321 0.73707 0.39564 0.0
H2487 H 0.34334 0.71228 0.37201 0.0
H2488 H 0.36362 0.7167 0.35868 0.0
H2489 H 0.34128 0.71848 0.34807 0.0
H2490 H 0.33252 0.78669 0.32597 0.0
H2491 H 0.3604 0.78348 0.30698 0.0
H2492 H 0.38082 0.7414 0.34398 0.0
C2493 C 0.31422 0.73941 0.37749 0.0
C2494 C 0.29593 0.74531 0.37463 0.0
C2495 C 0.29255 0.76062 0.36308 0.0
C2496 C 0.30709 0.76926 0.35376 0.0
C2497 C 0.32489 0.76256 0.35629 0.0
C2498 C 0.32852 0.74805 0.36803 0.0
C2499 C 0.34823 0.74156 0.36629 0.0
C2500 C 0.35896 0.74531 0.38411 0.0
C2501 C 0.34915 0.72106 0.36093 0.0
C2502 C 0.35483 0.75385 0.35084 0.0
C2503 C 0.34133 0.76622 0.34563 0.0
C2504 C 0.34336 0.77742 0.33022 0.0
C2505 C 0.35922 0.77545 0.31948 0.0
C2506 C 0.37281 0.76227 0.3241 0.0
C2507 C 0.37089 0.75191 0.3404 0.0
H2508 H 0.24492 0.28538 0.37521 0.0
H2509 H 0.28177 0.30724 0.41672 0.0
H2510 H 0.27262 0.33881 0.40817 0.0
H2511 H 0.25626 0.31565 0.34198 0.0
H2512 H 0.23366 0.31773 0.33202 0.0
H2513 H 0.23983 0.29719 0.3442 0.0
H2514 H 0.21167 0.30144 0.3657 0.0
H2515 H 0.20548 0.32217 0.35356 0.0
H2516 H 0.20882 0.32271 0.37813 0.0
H2517 H 0.26349 0.36772 0.39179 0.0
H2518 H 0.25729 0.3908 0.36761 0.0
H2519 H 0.22657 0.35001 0.33681 0.0
C2520 C 0.25062 0.29677 0.38292 0.0
C2521 C 0.26397 0.29384 0.39669 0.0
C2522 C 0.27147 0.30915 0.40614 0.0
C2523 C 0.26624 0.32714 0.40149 0.0
C2524 C 0.2534 0.32958 0.38745 0.0
C2525 C 0.24566 0.31477 0.37834 0.0
C2526 C 0.23431 0.32096 0.36206 0.0
C2527 C 0.24146 0.31239 0.34402 0.0
C2528 C 0.21385 0.31656 0.36505 0.0
C2529 C 0.23775 0.34146 0.36276 0.0
C2530 C 0.24832 0.34629 0.37781 0.0
C2531 C 0.25486 0.36419 0.38019 0.0
C2532 C 0.25122 0.37725 0.36642 0.0
C2533 C 0.24143 0.37217 0.35038 0.0
C2534 C 0.23393 0.35431 0.34903 0.0
H2535 H 0.33788 0.23692 0.67099 0.0
H2536 H 0.37622 0.25132 0.62754 0.0
H2537 H 0.35028 0.25533 0.60608 0.0
H2538 H 0.30196 0.21418 0.64044 0.0
H2539 H 0.28363 0.22364 0.6542 0.0
H2540 H 0.30521 0.21758 0.66479 0.0
H2541 H 0.30803 0.25067 0.67775 0.0
H2542 H 0.28666 0.25689 0.66709 0.0
H2543 H 0.30716 0.26993 0.66214 0.0
H2544 H 0.32069 0.26389 0.5915 0.0
H2545 H 0.28965 0.27561 0.5846 0.0
H2546 H 0.27025 0.25557 0.63735 0.0
C2547 C 0.3409 0.24024 0.65678 0.0
C2548 C 0.35909 0.24377 0.65093 0.0
C2549 C 0.36241 0.24847 0.63232 0.0
C2550 C 0.34775 0.25071 0.62 0.0
C2551 C 0.3299 0.24798 0.62646 0.0
C2552 C 0.32643 0.2426 0.64437 0.0
C2553 C 0.30603 0.24295 0.64859 0.0
C2554 C 0.29878 0.22342 0.65221 0.0
C2555 C 0.30173 0.25588 0.66484 0.0
C2556 C 0.29866 0.25047 0.63065 0.0
C2557 C 0.31262 0.2529 0.61793 0.0
C2558 C 0.30958 0.26161 0.60114 0.0
C2559 C 0.29193 0.26833 0.5974 0.0
C2560 C 0.27757 0.26637 0.61042 0.0
C2561 C 0.28088 0.25686 0.627 0.0
H2562 H 0.70696 0.31831 0.60417 0.0
H2563 H 0.7574 0.28674 0.60852 0.0
H2564 H 0.77364 0.31429 0.61963 0.0
H2565 H 0.72968 0.36446 0.59246 0.0
H2566 H 0.71303 0.37662 0.60624 0.0
H2567 H 0.70648 0.35591 0.59425 0.0
H2568 H 0.69522 0.34167 0.62494 0.0
H2569 H 0.70167 0.36223 0.63694 0.0
H2570 H 0.71086 0.34036 0.64415 0.0
H2571 H 0.78231 0.34202 0.63694 0.0
H2572 H 0.78262 0.36794 0.65888 0.0
H2573 H 0.72743 0.38277 0.64235 0.0
C2574 C 0.72158 0.31738 0.60679 0.0
C2575 C 0.73091 0.30038 0.60545 0.0
C2576 C 0.74995 0.29961 0.60941 0.0
C2577 C 0.75935 0.31524 0.61561 0.0
C2578 C 0.74959 0.33163 0.61754 0.0
C2579 C 0.73116 0.33288 0.61302 0.0
C2580 C 0.72322 0.35126 0.61882 0.0
C2581 C 0.71779 0.36275 0.60193 0.0
C2582 C 0.7068 0.34871 0.632 0.0
C2583 C 0.73968 0.35957 0.62853 0.0
C2584 C 0.7549 0.3482 0.62723 0.0
C2585 C 0.77078 0.3514 0.63749 0.0
C2586 C 0.77086 0.36614 0.6499 0.0
C2587 C 0.75525 0.37755 0.6518 0.0
C2588 C 0.7398 0.3747 0.64046 0.0
H2589 H 0.21778 0.64876 0.6755 0.0
H2590 H 0.23913 0.60216 0.64499 0.0
H2591 H 0.24802 0.62293 0.61965 0.0
H2592 H 0.20325 0.67763 0.63354 0.0
H2593 H 0.2104 0.69834 0.64515 0.0
H2594 H 0.201 0.67943 0.65818 0.0
H2595 H 0.23016 0.67925 0.67863 0.0
H2596 H 0.23976 0.69785 0.66559 0.0
H2597 H 0.25241 0.67666 0.66798 0.0
H2598 H 0.26164 0.64894 0.60202 0.0
H2599 H 0.27687 0.67777 0.59256 0.0
H2600 H 0.24621 0.70757 0.63417 0.0
C2601 C 0.2236 0.64282 0.66313 0.0
C2602 C 0.22777 0.62387 0.66219 0.0
C2603 C 0.23563 0.61661 0.64593 0.0
C2604 C 0.24074 0.62833 0.63145 0.0
C2605 C 0.23753 0.64716 0.63335 0.0
C2606 C 0.22873 0.65431 0.64863 0.0
C2607 C 0.22922 0.67513 0.64867 0.0
C2608 C 0.20981 0.6831 0.64623 0.0
C2609 C 0.23845 0.68264 0.66624 0.0
C2610 C 0.2409 0.67857 0.63181 0.0
C2611 C 0.24522 0.66231 0.62291 0.0
C2612 C 0.25787 0.66181 0.60849 0.0
C2613 C 0.26655 0.67823 0.6033 0.0
C2614 C 0.26259 0.69492 0.61255 0.0
C2615 C 0.24917 0.69511 0.62656 0.0
H2616 H 0.21314 0.33841 0.2663 0.0
H2617 H 0.1847 0.39086 0.2648 0.0
H2618 H 0.15662 0.37507 0.25342 0.0
H2619 H 0.1932 0.319 0.22578 0.0
H2620 H 0.19226 0.2962 0.23547 0.0
H2621 H 0.20976 0.31205 0.24288 0.0
H2622 H 0.19922 0.30766 0.27671 0.0
H2623 H 0.1815 0.292 0.26937 0.0
H2624 H 0.17558 0.312 0.28278 0.0
H2625 H 0.13144 0.35255 0.24217 0.0
H2626 H 0.1127 0.32626 0.231 0.0
H2627 H 0.15848 0.2895 0.24161 0.0
C2628 C 0.20111 0.34671 0.26345 0.0
C2629 C 0.20113 0.36589 0.26635 0.0
C2630 C 0.185 0.37614 0.26255 0.0
C2631 C 0.16899 0.36727 0.25619 0.0
C2632 C 0.1694 0.3482 0.25383 0.0
C2633 C 0.18514 0.33814 0.25731 0.0
C2634 C 0.18231 0.31787 0.25393 0.0
C2635 C 0.19514 0.31088 0.2386 0.0
C2636 C 0.1848 0.30674 0.27176 0.0
C2637 C 0.16251 0.31798 0.24782 0.0
C2638 C 0.15515 0.33551 0.24784 0.0
C2639 C 0.13709 0.33878 0.24218 0.0
C2640 C 0.12652 0.32377 0.23596 0.0
C2641 C 0.13411 0.30583 0.23549 0.0
C2642 C 0.1522 0.30301 0.24185 0.0
H2643 H 0.69007 0.13835 0.22426 0.0
H2644 H 0.68663 0.1181 0.28003 0.0
H2645 H 0.65751 0.13535 0.28448 0.0
H2646 H 0.68204 0.18102 0.23484 0.0
H2647 H 0.6692 0.1876 0.21467 0.0
H2648 H 0.68502 0.16879 0.21345 0.0
H2649 H 0.65907 0.14729 0.20195 0.0
H2650 H 0.64305 0.1662 0.20297 0.0
H2651 H 0.63814 0.14511 0.21507 0.0
H2652 H 0.63325 0.1596 0.28491 0.0
H2653 H 0.61909 0.1904 0.28306 0.0
H2654 H 0.64059 0.19703 0.2279 0.0
C2655 C 0.68251 0.13678 0.23703 0.0
C2656 C 0.68998 0.12653 0.25162 0.0
C2657 C 0.68061 0.12545 0.26856 0.0
C2658 C 0.6641 0.13519 0.27113 0.0
C2659 C 0.65743 0.146 0.25665 0.0
C2660 C 0.66643 0.1468 0.23987 0.0
C2661 C 0.65927 0.16234 0.22802 0.0
C2662 C 0.6748 0.17571 0.22246 0.0
C2663 C 0.64928 0.15477 0.21099 0.0
C2664 C 0.64586 0.17111 0.24125 0.0
C2665 C 0.64428 0.16099 0.25732 0.0
C2666 C 0.63406 0.16739 0.27225 0.0
C2667 C 0.62603 0.1849 0.27107 0.0
C2668 C 0.62878 0.19596 0.25529 0.0
C2669 C 0.63814 0.18867 0.23998 0.0
H2670 H 0.8148 0.65564 0.28963 0.0
H2671 H 0.83146 0.60967 0.25563 0.0
H2672 H 0.8597 0.62681 0.24659 0.0
H2673 H 0.82526 0.68916 0.26011 0.0
H2674 H 0.83315 0.70557 0.27696 0.0
H2675 H 0.817 0.68813 0.28349 0.0
H2676 H 0.83906 0.67718 0.3093 0.0
H2677 H 0.85539 0.69467 0.30278 0.0
H2678 H 0.86237 0.6709 0.30366 0.0
H2679 H 0.88279 0.65168 0.23713 0.0
H2680 H 0.89719 0.68114 0.22771 0.0
H2681 H 0.86494 0.7099 0.2687 0.0
C2682 C 0.82464 0.64898 0.28063 0.0
C2683 C 0.82106 0.63147 0.2732 0.0
C2684 C 0.83414 0.62309 0.26151 0.0
C2685 C 0.85018 0.63271 0.25639 0.0
C2686 C 0.85299 0.65038 0.26353 0.0
C2687 C 0.84061 0.65824 0.27564 0.0
C2688 C 0.84526 0.67802 0.27984 0.0
C2689 C 0.82923 0.69096 0.27478 0.0
C2690 C 0.85086 0.68032 0.3001 0.0
C2691 C 0.86152 0.68061 0.26724 0.0
C2692 C 0.86619 0.66447 0.25826 0.0
C2693 C 0.87954 0.66424 0.24443 0.0
C2694 C 0.88771 0.681 0.23921 0.0
C2695 C 0.88217 0.69767 0.2476 0.0
C2696 C 0.86954 0.69727 0.26225 0.0
H2697 H 0.36284 0.7834 0.22624 0.0
H2698 H 0.40187 0.81846 0.25447 0.0
H2699 H 0.38418 0.84593 0.24459 0.0
H2700 H 0.35065 0.81572 0.18777 0.0
H2701 H 0.32699 0.80838 0.18866 0.0
H2702 H 0.34512 0.79243 0.19425 0.0
H2703 H 0.32955 0.78613 0.22572 0.0
H2704 H 0.31164 0.80225 0.22045 0.0
H2705 H 0.32508 0.80509 0.24109 0.0
H2706 H 0.35874 0.86904 0.23586 0.0
H2707 H 0.32925 0.88479 0.2286 0.0
H2708 H 0.30741 0.83344 0.20759 0.0
C2709 C 0.36809 0.7969 0.22977 0.0
C2710 C 0.38373 0.79886 0.241 0.0
C2711 C 0.39004 0.8167 0.2456 0.0
C2712 C 0.38002 0.83236 0.24012 0.0
C2713 C 0.36394 0.82983 0.2299 0.0
C2714 C 0.35825 0.81246 0.22455 0.0
C2715 C 0.33951 0.81285 0.21568 0.0
C2716 C 0.34065 0.80701 0.19538 0.0
C2717 C 0.32565 0.80088 0.22638 0.0
C2718 C 0.3351 0.83302 0.21749 0.0
C2719 C 0.34937 0.84279 0.22539 0.0
C2720 C 0.34764 0.86153 0.22939 0.0
C2721 C 0.33087 0.87036 0.2253 0.0
C2722 C 0.31606 0.86028 0.21767 0.0
C2723 C 0.31845 0.84151 0.21351 0.0
H2724 H 0.15247 0.71567 0.77062 0.0
H2725 H 0.10439 0.68333 0.78485 0.0
H2726 H 0.11993 0.65531 0.77298 0.0
H2727 H 0.16469 0.69104 0.72883 0.0
H2728 H 0.18895 0.69346 0.73325 0.0
H2729 H 0.17313 0.7107 0.74137 0.0
H2730 H 0.18559 0.70635 0.77453 0.0
H2731 H 0.20123 0.68891 0.76659 0.0
H2732 H 0.18522 0.68379 0.78481 0.0
H2733 H 0.14229 0.63044 0.76078 0.0
H2734 H 0.16836 0.61194 0.7487 0.0
H2735 H 0.20104 0.66168 0.74413 0.0
C2736 C 0.14502 0.70278 0.77104 0.0
C2737 C 0.12722 0.70166 0.77863 0.0
C2738 C 0.11802 0.68448 0.77896 0.0
C2739 C 0.12676 0.66852 0.77232 0.0
C2740 C 0.14461 0.67008 0.7654 0.0
C2741 C 0.1535 0.68688 0.76462 0.0
C2742 C 0.17281 0.68511 0.75731 0.0
C2743 C 0.17501 0.6957 0.73911 0.0
C2744 C 0.18704 0.69141 0.77167 0.0
C2745 C 0.17363 0.66463 0.7543 0.0
C2746 C 0.15728 0.65607 0.75887 0.0
C2747 C 0.15511 0.63706 0.75713 0.0
C2748 C 0.16998 0.62665 0.75035 0.0
C2749 C 0.18676 0.63535 0.74558 0.0
C2750 C 0.18848 0.65454 0.74775 0.0
H2751 H 0.36801 0.2063 0.7504 0.0
H2752 H 0.39347 0.17759 0.7049 0.0
H2753 H 0.37796 0.14876 0.71448 0.0
H2754 H 0.36504 0.16536 0.78369 0.0
H2755 H 0.34301 0.17347 0.79164 0.0
H2756 H 0.36042 0.1897 0.78467 0.0
H2757 H 0.33735 0.20424 0.76173 0.0
H2758 H 0.32007 0.18796 0.76827 0.0
H2759 H 0.32676 0.18991 0.74446 0.0
H2760 H 0.35393 0.12536 0.72483 0.0
H2761 H 0.32492 0.11035 0.73507 0.0
H2762 H 0.31515 0.15544 0.77272 0.0
C2763 C 0.371 0.19371 0.743 0.0
C2764 C 0.38195 0.19402 0.72705 0.0
C2765 C 0.38536 0.17748 0.71739 0.0
C2766 C 0.37654 0.16108 0.72273 0.0
C2767 C 0.36472 0.16152 0.73789 0.0
C2768 C 0.3623 0.17743 0.74811 0.0
C2769 C 0.34686 0.17551 0.76185 0.0
C2770 C 0.35428 0.17603 0.78164 0.0
C2771 C 0.33189 0.19026 0.75887 0.0
C2772 C 0.34003 0.15657 0.75692 0.0
C2773 C 0.35073 0.14836 0.74349 0.0
C2774 C 0.34575 0.13149 0.73565 0.0
C2775 C 0.32929 0.12308 0.74147 0.0
C2776 C 0.31793 0.13189 0.75456 0.0
C2777 C 0.32368 0.14848 0.76266 0.0
H2778 H 0.78102 0.34596 0.74334 0.0
H2779 H 0.81489 0.39358 0.73134 0.0
H2780 H 0.84244 0.37647 0.74208 0.0
H2781 H 0.80583 0.33065 0.78429 0.0
H2782 H 0.80243 0.30676 0.7786 0.0
H2783 H 0.78568 0.32363 0.77168 0.0
H2784 H 0.78901 0.31281 0.73783 0.0
H2785 H 0.80598 0.29614 0.74457 0.0
H2786 H 0.81139 0.31293 0.72715 0.0
H2787 H 0.86671 0.35241 0.75214 0.0
H2788 H 0.88446 0.32493 0.76207 0.0
H2789 H 0.83358 0.29404 0.76634 0.0
C2790 C 0.79416 0.35297 0.74324 0.0
C2791 C 0.79584 0.37109 0.73654 0.0
C2792 C 0.8133 0.37973 0.73659 0.0
C2793 C 0.82901 0.37008 0.74257 0.0
C2794 C 0.8269 0.35194 0.74853 0.0
C2795 C 0.8098 0.34363 0.74909 0.0
C2796 C 0.81098 0.32387 0.75531 0.0
C2797 C 0.80062 0.32107 0.77355 0.0
C2798 C 0.80393 0.31067 0.74032 0.0
C2799 C 0.83147 0.32213 0.75789 0.0
C2800 C 0.84055 0.33838 0.75404 0.0
C2801 C 0.85968 0.33967 0.75529 0.0
C2802 C 0.86966 0.324 0.76084 0.0
C2803 C 0.86043 0.30733 0.76494 0.0
C2804 C 0.84112 0.30653 0.7633 0.0
H2805 H 0.71643 0.85143 0.72057 0.0
H2806 H 0.68454 0.89066 0.75213 0.0
H2807 H 0.65583 0.87697 0.73996 0.0
H2808 H 0.68358 0.84811 0.68002 0.0
H2809 H 0.68839 0.8239 0.67758 0.0
H2810 H 0.70606 0.83931 0.68567 0.0
H2811 H 0.71022 0.81896 0.71465 0.0
H2812 H 0.69241 0.80373 0.70688 0.0
H2813 H 0.69067 0.81439 0.72921 0.0
H2814 H 0.63117 0.85477 0.72973 0.0
H2815 H 0.61254 0.82817 0.71951 0.0
H2816 H 0.6608 0.80439 0.69371 0.0
C2817 C 0.7034 0.8576 0.72433 0.0
C2818 C 0.7026 0.87211 0.73718 0.0
C2819 C 0.68538 0.87971 0.74206 0.0
C2820 C 0.66903 0.87196 0.73528 0.0
C2821 C 0.67027 0.85696 0.72334 0.0
C2822 C 0.68707 0.85019 0.71753 0.0
C2823 C 0.68485 0.83295 0.70609 0.0
C2824 C 0.69109 0.83627 0.68615 0.0
C2825 C 0.69514 0.81656 0.71474 0.0
C2826 C 0.66427 0.83045 0.70721 0.0
C2827 C 0.65603 0.84449 0.71706 0.0
C2828 C 0.63739 0.84399 0.72156 0.0
C2829 C 0.62696 0.82878 0.71582 0.0
C2830 C 0.63522 0.81432 0.70571 0.0
C2831 C 0.65403 0.8154 0.70114 0.0
H2832 H 0.23734 0.21187 0.34667 0.0
H2833 H 0.24696 0.17687 0.39401 0.0
H2834 H 0.23557 0.15 0.37626 0.0
H2835 H 0.19627 0.18821 0.32878 0.0
H2836 H 0.20347 0.19186 0.30533 0.0
H2837 H 0.20964 0.20824 0.32287 0.0
H2838 H 0.24399 0.20446 0.31401 0.0
H2839 H 0.23799 0.18784 0.29671 0.0
H2840 H 0.25424 0.18189 0.31446 0.0
H2841 H 0.22597 0.12636 0.3514 0.0
H2842 H 0.21813 0.10917 0.32286 0.0
H2843 H 0.21655 0.16069 0.29276 0.0
C2844 C 0.23664 0.19867 0.35354 0.0
C2845 C 0.24296 0.19645 0.37172 0.0
C2846 C 0.24197 0.17889 0.38012 0.0
C2847 C 0.23561 0.16356 0.37011 0.0
C2848 C 0.23023 0.16614 0.35184 0.0
C2849 C 0.23051 0.18338 0.34379 0.0
C2850 C 0.22549 0.18263 0.32369 0.0
C2851 C 0.20765 0.19336 0.31995 0.0
C2852 C 0.24138 0.18961 0.31151 0.0
C2853 C 0.22267 0.16222 0.32146 0.0
C2854 C 0.22525 0.15282 0.33778 0.0
C2855 C 0.22377 0.13366 0.33861 0.0
C2856 C 0.21941 0.12401 0.32236 0.0
C2857 C 0.21683 0.13358 0.30558 0.0
C2858 C 0.21851 0.15289 0.3053 0.0
H2859 H 0.86272 0.22384 0.31311 0.0
H2860 H 0.89743 0.26692 0.2912 0.0
H2861 H 0.88408 0.28899 0.31352 0.0
H2862 H 0.82443 0.24769 0.31701 0.0
H2863 H 0.81614 0.2382 0.33837 0.0
H2864 H 0.83135 0.22496 0.32415 0.0
H2865 H 0.8543 0.2214 0.35115 0.0
H2866 H 0.83893 0.23434 0.36571 0.0
H2867 H 0.86249 0.24156 0.36304 0.0
H2868 H 0.86139 0.30731 0.332 0.0
H2869 H 0.83435 0.31969 0.34858 0.0
H2870 H 0.81611 0.26417 0.3603 0.0
C2871 C 0.86811 0.23772 0.31371 0.0
C2872 C 0.88116 0.24379 0.30076 0.0
C2873 C 0.88769 0.26206 0.30138 0.0
C2874 C 0.88012 0.27465 0.31393 0.0
C2875 C 0.86649 0.26847 0.32599 0.0
C2876 C 0.86098 0.25026 0.32638 0.0
C2877 C 0.84488 0.24739 0.33924 0.0
C2878 C 0.82823 0.23909 0.32907 0.0
C2879 C 0.85049 0.23547 0.35577 0.0
C2880 C 0.84129 0.26703 0.34502 0.0
C2881 C 0.85396 0.279 0.33737 0.0
C2882 C 0.85182 0.29803 0.33863 0.0
C2883 C 0.83637 0.30494 0.34791 0.0
C2884 C 0.82341 0.29283 0.35592 0.0
C2885 C 0.82615 0.27369 0.35476 0.0
H2886 H 0.75733 0.83973 0.28745 0.0
H2887 H 0.75742 0.89102 0.31799 0.0
H2888 H 0.74414 0.87476 0.34497 0.0
H2889 H 0.71514 0.82141 0.30539 0.0
H2890 H 0.72385 0.79819 0.30569 0.0
H2891 H 0.73238 0.81438 0.28901 0.0
H2892 H 0.7657 0.80821 0.30018 0.0
H2893 H 0.75726 0.79217 0.31704 0.0
H2894 H 0.77128 0.81134 0.32415 0.0
H2895 H 0.73148 0.85163 0.36909 0.0
H2896 H 0.72005 0.82474 0.38689 0.0
H2897 H 0.72976 0.78975 0.3395 0.0
C2898 C 0.75442 0.8477 0.29971 0.0
C2899 C 0.75835 0.86666 0.3006 0.0
C2900 C 0.7544 0.87647 0.31698 0.0
C2901 C 0.74693 0.86734 0.33237 0.0
C2902 C 0.74357 0.84846 0.33107 0.0
C2903 C 0.74716 0.83887 0.31504 0.0
C2904 C 0.74289 0.81867 0.31694 0.0
C2905 C 0.72766 0.81283 0.30347 0.0
C2906 C 0.76032 0.80692 0.31444 0.0
C2907 C 0.73626 0.81826 0.33657 0.0
C2908 C 0.73669 0.83547 0.34464 0.0
C2909 C 0.73109 0.83812 0.36285 0.0
C2910 C 0.72469 0.8228 0.37287 0.0
C2911 C 0.72401 0.80516 0.36459 0.0
C2912 C 0.73006 0.80302 0.34628 0.0
H2913 H 0.20109 0.71367 0.33939 0.0
H2914 H 0.18345 0.74599 0.38623 0.0
H2915 H 0.15309 0.75091 0.37116 0.0
H2916 H 0.18337 0.74055 0.30602 0.0
H2917 H 0.17682 0.72203 0.29089 0.0
H2918 H 0.19527 0.71881 0.30691 0.0
H2919 H 0.17854 0.69033 0.32043 0.0
H2920 H 0.15985 0.69361 0.30447 0.0
H2921 H 0.15532 0.69258 0.32883 0.0
H2922 H 0.12705 0.75651 0.34806 0.0
H2923 H 0.10907 0.76276 0.3198 0.0
H2924 H 0.14378 0.72501 0.28947 0.0
C2925 C 0.19072 0.72153 0.34665 0.0
C2926 C 0.19454 0.72963 0.36382 0.0
C2927 C 0.18067 0.73968 0.37302 0.0
C2928 C 0.16342 0.74244 0.3646 0.0
C2929 C 0.16026 0.73457 0.34731 0.0
C2930 C 0.17354 0.72407 0.33864 0.0
C2931 C 0.16778 0.71844 0.31952 0.0
C2932 C 0.18161 0.72539 0.305 0.0
C2933 C 0.16522 0.69749 0.31825 0.0
C2934 C 0.1496 0.72832 0.31819 0.0
C2935 C 0.1452 0.73729 0.33442 0.0
C2936 C 0.13012 0.74915 0.33548 0.0
C2937 C 0.1199 0.75255 0.31939 0.0
C2938 C 0.12501 0.74426 0.30252 0.0
C2939 C 0.13942 0.73133 0.30225 0.0
H2940 H 0.24268 0.77856 0.65474 0.0
H2941 H 0.26826 0.81305 0.61336 0.0
H2942 H 0.25758 0.84084 0.63014 0.0
H2943 H 0.20294 0.80891 0.66536 0.0
H2944 H 0.20409 0.80299 0.68941 0.0
H2945 H 0.21089 0.78645 0.67224 0.0
H2946 H 0.24259 0.78317 0.68825 0.0
H2947 H 0.23607 0.7999 0.70523 0.0
H2948 H 0.25658 0.80335 0.69174 0.0
H2949 H 0.24714 0.86478 0.65429 0.0
H2950 H 0.23744 0.88186 0.68232 0.0
H2951 H 0.22031 0.83045 0.70729 0.0
C2952 C 0.24562 0.79194 0.64887 0.0
C2953 C 0.25623 0.7937 0.63276 0.0
C2954 C 0.25993 0.81144 0.62561 0.0
C2955 C 0.25398 0.82727 0.63509 0.0
C2956 C 0.24424 0.82499 0.65151 0.0
C2957 C 0.2399 0.80768 0.65813 0.0
C2958 C 0.23087 0.80854 0.67678 0.0
C2959 C 0.21102 0.8013 0.67589 0.0
C2960 C 0.24221 0.79813 0.69135 0.0
C2961 C 0.2313 0.829 0.68003 0.0
C2962 C 0.23877 0.83843 0.6653 0.0
C2963 C 0.2411 0.85751 0.66579 0.0
C2964 C 0.23564 0.86708 0.68175 0.0
C2965 C 0.22828 0.85745 0.697 0.0
C2966 C 0.22601 0.83823 0.69593 0.0
H2967 H 0.18794 0.28172 0.66562 0.0
H2968 H 0.16353 0.26041 0.61555 0.0
H2969 H 0.13519 0.25248 0.63299 0.0
H2970 H 0.1727 0.2481 0.69483 0.0
H2971 H 0.16893 0.2633 0.71406 0.0
H2972 H 0.18572 0.26911 0.69692 0.0
H2973 H 0.16934 0.30039 0.69161 0.0
H2974 H 0.15229 0.2945 0.70863 0.0
H2975 H 0.14528 0.30075 0.68567 0.0
H2976 H 0.11137 0.24332 0.6573 0.0
H2977 H 0.09566 0.23263 0.6856 0.0
H2978 H 0.13579 0.26173 0.7187 0.0
C2979 C 0.17659 0.27553 0.65822 0.0
C2980 C 0.17793 0.27148 0.63931 0.0
C2981 C 0.16273 0.26356 0.63009 0.0
C2982 C 0.14659 0.25915 0.63986 0.0
C2983 C 0.14584 0.26319 0.65865 0.0
C2984 C 0.16047 0.27135 0.66762 0.0
C2985 C 0.15712 0.27308 0.68802 0.0
C2986 C 0.17198 0.26278 0.69909 0.0
C2987 C 0.15593 0.29339 0.69382 0.0
C2988 C 0.13864 0.26378 0.68943 0.0
C2989 C 0.1321 0.25841 0.67237 0.0
C2990 C 0.11617 0.24782 0.67066 0.0
C2991 C 0.10726 0.2419 0.6868 0.0
C2992 C 0.1145 0.24645 0.7043 0.0
C2993 C 0.12983 0.25823 0.7055 0.0
H2994 H 0.78288 0.15617 0.68027 0.0
H2995 H 0.74684 0.11097 0.666 0.0
H2996 H 0.73726 0.12776 0.63774 0.0
H2997 H 0.754 0.19028 0.67035 0.0
H2998 H 0.77095 0.20604 0.66144 0.0
H2999 H 0.77765 0.18873 0.67764 0.0
H3000 H 0.80218 0.17665 0.65471 0.0
H3001 H 0.79547 0.19401 0.63832 0.0
H3002 H 0.7954 0.1701 0.63177 0.0
H3003 H 0.72751 0.1524 0.61468 0.0
H3004 H 0.71808 0.18188 0.60038 0.0
H3005 H 0.76134 0.21004 0.63005 0.0
C3006 C 0.77331 0.14958 0.67094 0.0
C3007 C 0.76546 0.13242 0.67522 0.0
C3008 C 0.75304 0.12413 0.66279 0.0
C3009 C 0.74761 0.13354 0.64673 0.0
C3010 C 0.75518 0.1509 0.64324 0.0
C3011 C 0.76801 0.15865 0.65496 0.0
C3012 C 0.77254 0.17821 0.64974 0.0
C3013 C 0.76852 0.19158 0.66573 0.0
C3014 C 0.79259 0.17983 0.64324 0.0
C3015 C 0.75935 0.18085 0.63397 0.0
C3016 C 0.74975 0.16488 0.62999 0.0
C3017 C 0.73529 0.16481 0.61735 0.0
C3018 C 0.73006 0.18159 0.60922 0.0
C3019 C 0.7391 0.19812 0.6141 0.0
C3020 C 0.75439 0.19751 0.62594 0.0
H3021 H 0.80251 0.78239 0.63653 0.0
H3022 H 0.81374 0.73287 0.60554 0.0
H3023 H 0.84481 0.73141 0.61908 0.0
H3024 H 0.85369 0.79988 0.63862 0.0
H3025 H 0.84952 0.80818 0.66162 0.0
H3026 H 0.83146 0.80907 0.64464 0.0
H3027 H 0.81022 0.79098 0.66677 0.0
H3028 H 0.82816 0.7897 0.68352 0.0
H3029 H 0.81757 0.76885 0.67526 0.0
H3030 H 0.86942 0.72957 0.64316 0.0
H3031 H 0.88601 0.72959 0.67308 0.0
H3032 H 0.85929 0.78066 0.68769 0.0
C3033 C 0.81199 0.77193 0.63177 0.0
C3034 C 0.80588 0.75784 0.61998 0.0
C3035 C 0.81833 0.74401 0.61431 0.0
C3036 C 0.836 0.74303 0.62203 0.0
C3037 C 0.84112 0.75629 0.63496 0.0
C3038 C 0.82963 0.77089 0.6393 0.0
C3039 C 0.83678 0.78158 0.65566 0.0
C3040 C 0.84325 0.80082 0.64977 0.0
C3041 C 0.82233 0.7828 0.6712 0.0
C3042 C 0.85289 0.76963 0.66103 0.0
C3043 C 0.85563 0.75539 0.64869 0.0
C3044 C 0.86793 0.74106 0.65251 0.0
C3045 C 0.87726 0.7411 0.66949 0.0
C3046 C 0.874 0.75529 0.68231 0.0
C3047 C 0.86222 0.76993 0.67775 0.0
H3048 H 0.29009 0.25432 0.16026 0.0
H3049 H 0.32583 0.23548 0.11638 0.0
H3050 H 0.35306 0.24355 0.13533 0.0
H3051 H 0.31959 0.29191 0.17788 0.0
H3052 H 0.31311 0.28686 0.20128 0.0
H3053 H 0.29711 0.28271 0.18283 0.0
H3054 H 0.29392 0.24882 0.19352 0.0
H3055 H 0.31017 0.25271 0.21172 0.0
H3056 H 0.31419 0.23465 0.19522 0.0
H3057 H 0.37634 0.25056 0.16136 0.0
H3058 H 0.39266 0.25664 0.19083 0.0
H3059 H 0.34038 0.26886 0.21685 0.0
C3060 C 0.30362 0.25237 0.15435 0.0
C3061 C 0.30587 0.24436 0.13684 0.0
C3062 C 0.32382 0.24183 0.12971 0.0
C3063 C 0.33934 0.24629 0.14041 0.0
C3064 C 0.33657 0.25333 0.15809 0.0
C3065 C 0.31907 0.25653 0.16483 0.0
C3066 C 0.31936 0.26249 0.18469 0.0
C3067 C 0.31186 0.28216 0.18679 0.0
C3068 C 0.3088 0.24885 0.197 0.0
C3069 C 0.33973 0.26175 0.18833 0.0
C3070 C 0.3496 0.25669 0.17289 0.0
C3071 C 0.36871 0.25468 0.17347 0.0
C3072 C 0.37785 0.25805 0.19024 0.0
C3073 C 0.36777 0.26304 0.20615 0.0
C3074 C 0.34852 0.2649 0.20501 0.0
H3075 H 0.33908 0.71588 0.80032 0.0
H3076 H 0.39043 0.71748 0.83065 0.0
H3077 H 0.37396 0.73113 0.85737 0.0
H3078 H 0.32148 0.75822 0.81573 0.0
H3079 H 0.29806 0.75013 0.81644 0.0
H3080 H 0.31409 0.7401 0.8005 0.0
H3081 H 0.30711 0.70774 0.81388 0.0
H3082 H 0.29114 0.71771 0.82998 0.0
H3083 H 0.30988 0.70373 0.8382 0.0
H3084 H 0.35103 0.74607 0.88035 0.0
H3085 H 0.32478 0.761 0.89636 0.0
H3086 H 0.28954 0.74791 0.85003 0.0
C3087 C 0.34699 0.71903 0.81254 0.0
C3088 C 0.36606 0.71569 0.81339 0.0
C3089 C 0.37579 0.71998 0.82972 0.0
C3090 C 0.36654 0.72767 0.84494 0.0
C3091 C 0.34762 0.73077 0.84356 0.0
C3092 C 0.33805 0.7265 0.82769 0.0
C3093 C 0.31797 0.73137 0.82914 0.0
C3094 C 0.3126 0.74582 0.8146 0.0
C3095 C 0.30582 0.71411 0.82772 0.0
C3096 C 0.3176 0.73933 0.84827 0.0
C3097 C 0.33472 0.73888 0.85653 0.0
C3098 C 0.33756 0.74632 0.87402 0.0
C3099 C 0.32259 0.7547 0.88304 0.0
C3100 C 0.30512 0.75556 0.87446 0.0
C3101 C 0.30267 0.74743 0.85704 0.0
H3102 H 0.22476 0.28645 0.83365 0.0
H3103 H 0.23437 0.31415 0.88565 0.0
H3104 H 0.24347 0.3424 0.86868 0.0
H3105 H 0.2624 0.30497 0.80978 0.0
H3106 H 0.25028 0.30654 0.78821 0.0
H3107 H 0.24384 0.28932 0.80475 0.0
H3108 H 0.21032 0.30155 0.80432 0.0
H3109 H 0.21673 0.31897 0.78791 0.0
H3110 H 0.20597 0.32545 0.8093 0.0
H3111 H 0.25289 0.36726 0.84514 0.0
H3112 H 0.26321 0.38512 0.81792 0.0
H3113 H 0.2463 0.34028 0.78238 0.0
C3114 C 0.22873 0.29842 0.84158 0.0
C3115 C 0.22892 0.29809 0.86098 0.0
C3116 C 0.23418 0.31411 0.87075 0.0
C3117 C 0.23926 0.33021 0.86123 0.0
C3118 C 0.23881 0.33002 0.84202 0.0
C3119 C 0.23368 0.31446 0.83239 0.0
C3120 C 0.2349 0.31726 0.81186 0.0
C3121 C 0.24868 0.30373 0.80315 0.0
C3122 C 0.21585 0.31572 0.80282 0.0
C3123 C 0.24195 0.33676 0.81131 0.0
C3124 C 0.24398 0.34408 0.82875 0.0
C3125 C 0.25117 0.36169 0.83144 0.0
C3126 C 0.25691 0.37177 0.81592 0.0
C3127 C 0.25551 0.36408 0.79807 0.0
C3128 C 0.24748 0.34658 0.79584 0.0
H3129 H 0.65355 0.28716 0.81062 0.0
H3130 H 0.60746 0.25174 0.82355 0.0
H3131 H 0.62335 0.2417 0.85213 0.0
H3132 H 0.68706 0.25782 0.82147 0.0
H3133 H 0.70271 0.27456 0.83094 0.0
H3134 H 0.68598 0.28152 0.81425 0.0
H3135 H 0.67349 0.30609 0.83694 0.0
H3136 H 0.69024 0.29908 0.85383 0.0
H3137 H 0.66613 0.29925 0.85962 0.0
H3138 H 0.64723 0.23132 0.87566 0.0
H3139 H 0.67616 0.22133 0.89064 0.0
H3140 H 0.7056 0.26472 0.86239 0.0
C3141 C 0.64659 0.27763 0.81973 0.0
C3142 C 0.62941 0.27009 0.81497 0.0
C3143 C 0.62063 0.2577 0.82711 0.0
C3144 C 0.62954 0.25201 0.84336 0.0
C3145 C 0.64689 0.2593 0.84736 0.0
C3146 C 0.65512 0.2721 0.83593 0.0
C3147 C 0.67455 0.27639 0.8418 0.0
C3148 C 0.68837 0.27231 0.8262 0.0
C3149 C 0.67619 0.29639 0.84845 0.0
C3150 C 0.67655 0.26307 0.85758 0.0
C3151 C 0.66038 0.25361 0.86098 0.0
C3152 C 0.65979 0.239 0.87346 0.0
C3153 C 0.67626 0.23345 0.88198 0.0
C3154 C 0.69301 0.24237 0.87768 0.0
C3155 C 0.6929 0.25785 0.86607 0.0
H3156 H 0.75962 0.63259 0.80475 0.0
H3157 H 0.7051 0.61761 0.82297 0.0
H3158 H 0.71193 0.63018 0.8539 0.0
H3159 H 0.78381 0.62746 0.85256 0.0
H3160 H 0.79802 0.64704 0.84714 0.0
H3161 H 0.79109 0.63139 0.82918 0.0
H3162 H 0.77761 0.65878 0.8108 0.0
H3163 H 0.7842 0.67436 0.82864 0.0
H3164 H 0.7605 0.67326 0.82146 0.0
H3165 H 0.72116 0.65259 0.87857 0.0
H3166 H 0.73249 0.68066 0.89445 0.0
H3167 H 0.78135 0.67989 0.86061 0.0
C3168 C 0.7496 0.631 0.81567 0.0
C3169 C 0.73203 0.62397 0.8118 0.0
C3170 C 0.71883 0.62257 0.82597 0.0
C3171 C 0.7226 0.62973 0.84354 0.0
C3172 C 0.73977 0.63778 0.84667 0.0
C3173 C 0.75327 0.63792 0.83319 0.0
C3174 C 0.76933 0.64994 0.83858 0.0
C3175 C 0.78658 0.63825 0.84208 0.0
C3176 C 0.77309 0.66496 0.82402 0.0
C3177 C 0.76205 0.65797 0.85629 0.0
C3178 C 0.74523 0.65048 0.86114 0.0
C3179 C 0.73464 0.65803 0.87536 0.0
C3180 C 0.74111 0.67393 0.88433 0.0
C3181 C 0.75786 0.68203 0.87881 0.0
C3182 C 0.7687 0.67352 0.86526 0.0
H3183 H 0.69302 0.78311 0.15857 0.0
H3184 H 0.67933 0.75426 0.10824 0.0
H3185 H 0.64998 0.74385 0.12241 0.0
H3186 H 0.67911 0.75051 0.18854 0.0
H3187 H 0.67029 0.76617 0.20563 0.0
H3188 H 0.68808 0.77357 0.19024 0.0
H3189 H 0.66772 0.801 0.17991 0.0
H3190 H 0.64971 0.79351 0.19524 0.0
H3191 H 0.64494 0.79671 0.17112 0.0
H3192 H 0.62483 0.73261 0.14435 0.0
H3193 H 0.60772 0.72105 0.1715 0.0
H3194 H 0.6379 0.75871 0.20641 0.0
C3195 C 0.6837 0.77486 0.15038 0.0
C3196 C 0.68842 0.76932 0.13242 0.0
C3197 C 0.67588 0.75864 0.12206 0.0
C3198 C 0.65918 0.75277 0.12998 0.0
C3199 C 0.65515 0.75817 0.148 0.0
C3200 C 0.66705 0.7692 0.15793 0.0
C3201 C 0.66072 0.7718 0.17752 0.0
C3202 C 0.67541 0.7651 0.19127 0.0
C3203 C 0.65546 0.79196 0.18115 0.0
C3204 C 0.64398 0.75956 0.17755 0.0
C3205 C 0.64062 0.7521 0.16035 0.0
C3206 C 0.62705 0.73874 0.15774 0.0
C3207 C 0.61732 0.73231 0.17321 0.0
C3208 C 0.62147 0.73911 0.19098 0.0
C3209 C 0.63431 0.75347 0.19293 0.0
H3210 H 0.25964 0.65846 0.20503 0.0
H3211 H 0.26185 0.60783 0.17349 0.0
H3212 H 0.25042 0.62465 0.14603 0.0
H3213 H 0.21865 0.67703 0.18452 0.0
H3214 H 0.22723 0.70028 0.18542 0.0
H3215 H 0.23463 0.68372 0.20226 0.0
H3216 H 0.2686 0.6904 0.19361 0.0
H3217 H 0.26129 0.70672 0.17649 0.0
H3218 H 0.27593 0.68777 0.17005 0.0
H3219 H 0.23951 0.64819 0.12163 0.0
H3220 H 0.22825 0.67514 0.10388 0.0
H3221 H 0.23474 0.70937 0.15234 0.0
C3222 C 0.25755 0.65077 0.19244 0.0
C3223 C 0.26159 0.63183 0.19139 0.0
C3224 C 0.2587 0.62235 0.17461 0.0
C3225 C 0.25234 0.63181 0.15894 0.0
C3226 C 0.24899 0.65068 0.16038 0.0
C3227 C 0.25138 0.65993 0.17682 0.0
C3228 C 0.24714 0.68015 0.17505 0.0
C3229 C 0.23095 0.68561 0.18755 0.0
C3230 C 0.26426 0.69195 0.17903 0.0
C3231 C 0.24193 0.68097 0.155 0.0
C3232 C 0.24308 0.66393 0.14663 0.0
C3233 C 0.23859 0.66157 0.12809 0.0
C3234 C 0.23233 0.67695 0.11809 0.0
C3235 C 0.23065 0.69434 0.12673 0.0
C3236 C 0.23588 0.69629 0.14529 0.0
H3237 H 0.7153 0.34227 0.20582 0.0
H3238 H 0.74248 0.39133 0.18549 0.0
H3239 H 0.74909 0.37516 0.15603 0.0
H3240 H 0.74548 0.31009 0.18805 0.0
H3241 H 0.72779 0.2935 0.18288 0.0
H3242 H 0.72443 0.30976 0.20117 0.0
H3243 H 0.6941 0.32058 0.18574 0.0
H3244 H 0.69759 0.30451 0.16719 0.0
H3245 H 0.69451 0.32862 0.16229 0.0
H3246 H 0.75475 0.35179 0.12969 0.0
H3247 H 0.76048 0.3238 0.1109 0.0
H3248 H 0.72813 0.29166 0.14921 0.0
C3249 C 0.72266 0.34974 0.19523 0.0
C3250 C 0.72859 0.36798 0.198 0.0
C3251 C 0.73793 0.37727 0.18365 0.0
C3252 C 0.7416 0.36824 0.16687 0.0
C3253 C 0.73546 0.35014 0.16465 0.0
C3254 C 0.72612 0.34112 0.17853 0.0
C3255 C 0.72162 0.32153 0.17349 0.0
C3256 C 0.73036 0.30793 0.1872 0.0
C3257 C 0.70071 0.31865 0.17209 0.0
C3258 C 0.73059 0.3205 0.15484 0.0
C3259 C 0.73826 0.33714 0.14968 0.0
C3260 C 0.74851 0.33882 0.13349 0.0
C3261 C 0.75158 0.32292 0.12281 0.0
C3262 C 0.74459 0.30571 0.12862 0.0
C3263 C 0.73342 0.30473 0.14439 0.0
loop_
_geom_bond_atom_site_label_1
_geom_bond_atom_site_label_2
_geom_bond_distance
_geom_bond_site_symmetry_2
_ccdc_geom_bond_type
O0 Cd1 2.223 . S
O0 C8 1.315 . S
Cd1 O0 2.223 . S
Cd1 O4 2.297 . S
Cd1 O5 2.439 . S
Cd1 O11 2.240 . S
Cd2 O3 2.240 . S
Cd2 O10 2.223 . S
Cd2 O12 2.297 . S
Cd2 O13 2.439 . S
O3 Cd2 2.240 . S
O3 C8 1.279 . S
O4 Cd1 2.297 . S
O4 C6 1.247 . S
O5 Cd1 2.439 . S
O5 C6 1.208 . S
C6 O4 1.247 . S
C6 O5 1.208 . S
C7 O12 1.247 . S
C7 O13 1.208 . S
C8 O0 1.315 . S
C8 O3 1.279 . S
C9 O10 1.315 . S
C9 O11 1.279 . S
O10 Cd2 2.223 . S
O10 C9 1.315 . S
O11 Cd1 2.240 . S
O11 C9 1.279 . S
O12 Cd2 2.297 . S
O12 C7 1.247 . S
O13 Cd2 2.439 . S
O13 C7 1.208 . S
O14 Cd15 2.223 . S
O14 C22 1.315 . S
Cd15 O14 2.223 . S
Cd15 O18 2.297 . S
Cd15 O19 2.439 . S
Cd15 O25 2.240 . S
Cd16 O17 2.240 . S
Cd16 O24 2.223 . S
Cd16 O26 2.297 . S
Cd16 O27 2.439 . S
O17 Cd16 2.240 . S
O17 C22 1.279 . S
O18 Cd15 2.297 . S
O18 C20 1.247 . S
O19 Cd15 2.439 . S
O19 C20 1.208 . S
C20 O18 1.247 . S
C20 O19 1.208 . S
C21 O26 1.247 . S
C21 O27 1.208 . S
C22 O14 1.315 . S
C22 O17 1.279 . S
C23 O24 1.315 . S
C23 O25 1.279 . S
O24 Cd16 2.223 . S
O24 C23 1.315 . S
O25 Cd15 2.240 . S
O25 C23 1.279 . S
O26 Cd16 2.297 . S
O26 C21 1.247 . S
O27 Cd16 2.439 . S
O27 C21 1.208 . S
O28 Cd29 2.223 . S
O28 C36 1.315 . S
Cd29 O28 2.223 . S
Cd29 O32 2.297 . S
Cd29 O33 2.439 . S
Cd29 O39 2.240 . S
Cd30 O31 2.240 . S
Cd30 O38 2.223 . S
Cd30 O40 2.297 . S
Cd30 O41 2.439 . S
O31 Cd30 2.240 . S
O31 C36 1.279 . S
O32 Cd29 2.297 . S
O32 C34 1.247 . S
O33 Cd29 2.439 . S
O33 C34 1.208 . S
C34 O32 1.247 . S
C34 O33 1.208 . S
C35 O40 1.247 . S
C35 O41 1.208 . S
C36 O28 1.315 . S
C36 O31 1.279 . S
C37 O38 1.315 . S
C37 O39 1.279 . S
O38 Cd30 2.223 . S
O38 C37 1.315 . S
O39 Cd29 2.240 . S
O39 C37 1.279 . S
O40 Cd30 2.297 . S
O40 C35 1.247 . S
O41 Cd30 2.439 . S
O41 C35 1.208 . S
O42 Cd43 2.223 . S
O42 C50 1.315 . S
Cd43 O42 2.223 . S
Cd43 O46 2.297 . S
Cd43 O47 2.439 . S
Cd43 O53 2.240 . S
Cd44 O45 2.240 . S
Cd44 O52 2.223 . S
Cd44 O54 2.297 . S
Cd44 O55 2.439 . S
O45 Cd44 2.240 . S
O45 C50 1.279 . S
O46 Cd43 2.297 . S
O46 C48 1.247 . S
O47 Cd43 2.439 . S
O47 C48 1.208 . S
C48 O46 1.247 . S
C48 O47 1.208 . S
C49 O54 1.247 . S
C49 O55 1.208 . S
C50 O42 1.315 . S
C50 O45 1.279 . S
C51 O52 1.315 . S
C51 O53 1.279 . S
O52 Cd44 2.223 . S
O52 C51 1.315 . S
O53 Cd43 2.240 . S
O53 C51 1.279 . S
O54 Cd44 2.297 . S
O54 C49 1.247 . S
O55 Cd44 2.439 . S
O55 C49 1.208 . S
O56 Cd57 2.223 . S
O56 C64 1.315 . S
Cd57 O56 2.223 . S
Cd57 O60 2.297 . S
Cd57 O61 2.439 . S
Cd57 O67 2.240 . S
Cd58 O59 2.240 . S
Cd58 O66 2.223 . S
Cd58 O68 2.297 . S
Cd58 O69 2.439 . S
O59 Cd58 2.240 . S
O59 C64 1.279 . S
O60 Cd57 2.297 . S
O60 C62 1.247 . S
O61 Cd57 2.439 . S
O61 C62 1.208 . S
C62 O60 1.247 . S
C62 O61 1.208 . S
C63 O68 1.247 . S
C63 O69 1.208 . S
C64 O56 1.315 . S
C64 O59 1.279 . S
C65 O66 1.315 . S
C65 O67 1.279 . S
O66 Cd58 2.223 . S
O66 C65 1.315 . S
O67 Cd57 2.240 . S
O67 C65 1.279 . S
O68 Cd58 2.297 . S
O68 C63 1.247 . S
O69 Cd58 2.439 . S
O69 C63 1.208 . S
O70 Cd71 2.223 . S
O70 C78 1.315 . S
Cd71 O70 2.223 . S
Cd71 O74 2.297 . S
Cd71 O75 2.439 . S
Cd71 O81 2.240 . S
Cd72 O73 2.240 . S
Cd72 O80 2.223 . S
Cd72 O82 2.297 . S
Cd72 O83 2.439 . S
O73 Cd72 2.240 . S
O73 C78 1.279 . S
O74 Cd71 2.297 . S
O74 C76 1.247 . S
O75 Cd71 2.439 . S
O75 C76 1.208 . S
C76 O74 1.247 . S
C76 O75 1.208 . S
C77 O82 1.247 . S
C77 O83 1.208 . S
C78 O70 1.315 . S
C78 O73 1.279 . S
C79 O80 1.315 . S
C79 O81 1.279 . S
O80 Cd72 2.223 . S
O80 C79 1.315 . S
O81 Cd71 2.240 . S
O81 C79 1.279 . S
O82 Cd72 2.297 . S
O82 C77 1.247 . S
O83 Cd72 2.439 . S
O83 C77 1.208 . S
O84 Cd85 2.223 . S
O84 C92 1.315 . S
Cd85 O84 2.223 . S
Cd85 O88 2.297 . S
Cd85 O89 2.439 . S
Cd85 O95 2.240 . S
Cd86 O87 2.240 . S
Cd86 O94 2.223 . S
Cd86 O96 2.297 . S
Cd86 O97 2.439 . S
O87 Cd86 2.240 . S
O87 C92 1.279 . S
O88 Cd85 2.297 . S
O88 C90 1.247 . S
O89 Cd85 2.439 . S
O89 C90 1.208 . S
C90 O88 1.247 . S
C90 O89 1.208 . S
C91 O96 1.247 . S
C91 O97 1.208 . S
C92 O84 1.315 . S
C92 O87 1.279 . S
C93 O94 1.315 . S
C93 O95 1.279 . S
O94 Cd86 2.223 . S
O94 C93 1.315 . S
O95 Cd85 2.240 . S
O95 C93 1.279 . S
O96 Cd86 2.297 . S
O96 C91 1.247 . S
O97 Cd86 2.439 . S
O97 C91 1.208 . S
O98 Cd99 2.223 . S
O98 C106 1.315 . S
Cd99 O98 2.223 . S
Cd99 O102 2.297 . S
Cd99 O103 2.439 . S
Cd99 O109 2.240 . S
Cd100 O101 2.240 . S
Cd100 O108 2.223 . S
Cd100 O110 2.297 . S
Cd100 O111 2.439 . S
O101 Cd100 2.240 . S
O101 C106 1.279 . S
O102 Cd99 2.297 . S
O102 C104 1.247 . S
O103 Cd99 2.439 . S
O103 C104 1.208 . S
C104 O102 1.247 . S
C104 O103 1.208 . S
C105 O110 1.247 . S
C105 O111 1.208 . S
C106 O98 1.315 . S
C106 O101 1.279 . S
C107 O108 1.315 . S
C107 O109 1.279 . S
O108 Cd100 2.223 . S
O108 C107 1.315 . S
O109 Cd99 2.240 . S
O109 C107 1.279 . S
O110 Cd100 2.297 . S
O110 C105 1.247 . S
O111 Cd100 2.439 . S
O111 C105 1.208 . S
O112 Cd113 2.223 . S
O112 C120 1.315 . S
Cd113 O112 2.223 . S
Cd113 O116 2.297 . S
Cd113 O117 2.439 . S
Cd113 O123 2.240 . S
Cd114 O115 2.240 . S
Cd114 O122 2.223 . S
Cd114 O124 2.297 . S
Cd114 O125 2.439 . S
O115 Cd114 2.240 . S
O115 C120 1.279 . S
O116 Cd113 2.297 . S
O116 C118 1.247 . S
O117 Cd113 2.439 . S
O117 C118 1.208 . S
C118 O116 1.247 . S
C118 O117 1.208 . S
C119 O124 1.247 . S
C119 O125 1.208 . S
C120 O112 1.315 . S
C120 O115 1.279 . S
C121 O122 1.315 . S
C121 O123 1.279 . S
O122 Cd114 2.223 . S
O122 C121 1.315 . S
O123 Cd113 2.240 . S
O123 C121 1.279 . S
O124 Cd114 2.297 . S
O124 C119 1.247 . S
O125 Cd114 2.439 . S
O125 C119 1.208 . S
O126 Cd127 2.223 . S
O126 C134 1.315 . S
Cd127 O126 2.223 . S
Cd127 O130 2.297 . S
Cd127 O131 2.439 . S
Cd127 O137 2.240 . S
Cd128 O129 2.240 . S
Cd128 O136 2.223 . S
Cd128 O138 2.297 . S
Cd128 O139 2.439 . S
O129 Cd128 2.240 . S
O129 C134 1.279 . S
O130 Cd127 2.297 . S
O130 C132 1.247 . S
O131 Cd127 2.439 . S
O131 C132 1.208 . S
C132 O130 1.247 . S
C132 O131 1.208 . S
C133 O138 1.247 . S
C133 O139 1.208 . S
C134 O126 1.315 . S
C134 O129 1.279 . S
C135 O136 1.315 . S
C135 O137 1.279 . S
O136 Cd128 2.223 . S
O136 C135 1.315 . S
O137 Cd127 2.240 . S
O137 C135 1.279 . S
O138 Cd128 2.297 . S
O138 C133 1.247 . S
O139 Cd128 2.439 . S
O139 C133 1.208 . S
O140 Cd141 2.223 . S
O140 C148 1.315 . S
Cd141 O140 2.223 . S
Cd141 O144 2.297 . S
Cd141 O145 2.439 . S
Cd141 O151 2.240 . S
Cd142 O143 2.240 . S
Cd142 O150 2.223 . S
Cd142 O152 2.297 . S
Cd142 O153 2.439 . S
O143 Cd142 2.240 . S
O143 C148 1.279 . S
O144 Cd141 2.297 . S
O144 C146 1.247 . S
O145 Cd141 2.439 . S
O145 C146 1.208 . S
C146 O144 1.247 . S
C146 O145 1.208 . S
C147 O152 1.247 . S
C147 O153 1.208 . S
C148 O140 1.315 . S
C148 O143 1.279 . S
C149 O150 1.315 . S
C149 O151 1.279 . S
O150 Cd142 2.223 . S
O150 C149 1.315 . S
O151 Cd141 2.240 . S
O151 C149 1.279 . S
O152 Cd142 2.297 . S
O152 C147 1.247 . S
O153 Cd142 2.439 . S
O153 C147 1.208 . S
O154 Cd155 2.223 . S
O154 C162 1.315 . S
Cd155 O154 2.223 . S
Cd155 O158 2.297 . S
Cd155 O159 2.439 . S
Cd155 O165 2.240 . S
Cd156 O157 2.240 . S
Cd156 O164 2.223 . S
Cd156 O166 2.297 . S
Cd156 O167 2.439 . S
O157 Cd156 2.240 . S
O157 C162 1.279 . S
O158 Cd155 2.297 . S
O158 C160 1.247 . S
O159 Cd155 2.439 . S
O159 C160 1.208 . S
C160 O158 1.247 . S
C160 O159 1.208 . S
C161 O166 1.247 . S
C161 O167 1.208 . S
C162 O154 1.315 . S
C162 O157 1.279 . S
C163 O164 1.315 . S
C163 O165 1.279 . S
O164 Cd156 2.223 . S
O164 C163 1.315 . S
O165 Cd155 2.240 . S
O165 C163 1.279 . S
O166 Cd156 2.297 . S
O166 C161 1.247 . S
O167 Cd156 2.439 . S
O167 C161 1.208 . S
O168 Cd169 2.223 . S
O168 C176 1.315 . S
Cd169 O168 2.223 . S
Cd169 O172 2.297 . S
Cd169 O173 2.439 . S
Cd169 O179 2.240 . S
Cd170 O171 2.240 . S
Cd170 O178 2.223 . S
Cd170 O180 2.297 . S
Cd170 O181 2.439 . S
O171 Cd170 2.240 . S
O171 C176 1.279 . S
O172 Cd169 2.297 . S
O172 C174 1.247 . S
O173 Cd169 2.439 . S
O173 C174 1.208 . S
C174 O172 1.247 . S
C174 O173 1.208 . S
C175 O180 1.247 . S
C175 O181 1.208 . S
C176 O168 1.315 . S
C176 O171 1.279 . S
C177 O178 1.315 . S
C177 O179 1.279 . S
O178 Cd170 2.223 . S
O178 C177 1.315 . S
O179 Cd169 2.240 . S
O179 C177 1.279 . S
O180 Cd170 2.297 . S
O180 C175 1.247 . S
O181 Cd170 2.439 . S
O181 C175 1.208 . S
O182 Cd183 2.223 . S
O182 C190 1.315 . S
Cd183 O182 2.223 . S
Cd183 O186 2.297 . S
Cd183 O187 2.439 . S
Cd183 O193 2.240 . S
Cd184 O185 2.240 . S
Cd184 O192 2.223 . S
Cd184 O194 2.297 . S
Cd184 O195 2.439 . S
O185 Cd184 2.240 . S
O185 C190 1.279 . S
O186 Cd183 2.297 . S
O186 C188 1.247 . S
O187 Cd183 2.439 . S
O187 C188 1.208 . S
C188 O186 1.247 . S
C188 O187 1.208 . S
C189 O194 1.247 . S
C189 O195 1.208 . S
C190 O182 1.315 . S
C190 O185 1.279 . S
C191 O192 1.315 . S
C191 O193 1.279 . S
O192 Cd184 2.223 . S
O192 C191 1.315 . S
O193 Cd183 2.240 . S
O193 C191 1.279 . S
O194 Cd184 2.297 . S
O194 C189 1.247 . S
O195 Cd184 2.439 . S
O195 C189 1.208 . S
O196 Cd197 2.223 . S
O196 C204 1.315 . S
Cd197 O196 2.223 . S
Cd197 O200 2.297 . S
Cd197 O201 2.439 . S
Cd197 O207 2.240 . S
Cd198 O199 2.240 . S
Cd198 O206 2.223 . S
Cd198 O208 2.297 . S
Cd198 O209 2.439 . S
O199 Cd198 2.240 . S
O199 C204 1.279 . S
O200 Cd197 2.297 . S
O200 C202 1.247 . S
O201 Cd197 2.439 . S
O201 C202 1.208 . S
C202 O200 1.247 . S
C202 O201 1.208 . S
C203 O208 1.247 . S
C203 O209 1.208 . S
C204 O196 1.315 . S
C204 O199 1.279 . S
C205 O206 1.315 . S
C205 O207 1.279 . S
O206 Cd198 2.223 . S
O206 C205 1.315 . S
O207 Cd197 2.240 . S
O207 C205 1.279 . S
O208 Cd198 2.297 . S
O208 C203 1.247 . S
O209 Cd198 2.439 . S
O209 C203 1.208 . S
O210 Cd211 2.223 . S
O210 C218 1.315 . S
Cd211 O210 2.223 . S
Cd211 O214 2.297 . S
Cd211 O215 2.439 . S
Cd211 O221 2.240 . S
Cd212 O213 2.240 . S
Cd212 O220 2.223 . S
Cd212 O222 2.297 . S
Cd212 O223 2.439 . S
O213 Cd212 2.240 . S
O213 C218 1.279 . S
O214 Cd211 2.297 . S
O214 C216 1.247 . S
O215 Cd211 2.439 . S
O215 C216 1.208 . S
C216 O214 1.247 . S
C216 O215 1.208 . S
C217 O222 1.247 . S
C217 O223 1.208 . S
C218 O210 1.315 . S
C218 O213 1.279 . S
C219 O220 1.315 . S
C219 O221 1.279 . S
O220 Cd212 2.223 . S
O220 C219 1.315 . S
O221 Cd211 2.240 . S
O221 C219 1.279 . S
O222 Cd212 2.297 . S
O222 C217 1.247 . S
O223 Cd212 2.439 . S
O223 C217 1.208 . S
O224 Cd225 2.223 . S
O224 C232 1.315 . S
Cd225 O224 2.223 . S
Cd225 O228 2.297 . S
Cd225 O229 2.439 . S
Cd225 O235 2.240 . S
Cd226 O227 2.240 . S
Cd226 O234 2.223 . S
Cd226 O236 2.297 . S
Cd226 O237 2.439 . S
O227 Cd226 2.240 . S
O227 C232 1.279 . S
O228 Cd225 2.297 . S
O228 C230 1.247 . S
O229 Cd225 2.439 . S
O229 C230 1.208 . S
C230 O228 1.247 . S
C230 O229 1.208 . S
C231 O236 1.247 . S
C231 O237 1.208 . S
C232 O224 1.315 . S
C232 O227 1.279 . S
C233 O234 1.315 . S
C233 O235 1.279 . S
O234 Cd226 2.223 . S
O234 C233 1.315 . S
O235 Cd225 2.240 . S
O235 C233 1.279 . S
O236 Cd226 2.297 . S
O236 C231 1.247 . S
O237 Cd226 2.439 . S
O237 C231 1.208 . S
O238 Cd239 2.223 . S
O238 C246 1.315 . S
Cd239 O238 2.223 . S
Cd239 O242 2.297 . S
Cd239 O243 2.439 . S
Cd239 O249 2.240 . S
Cd240 O241 2.240 . S
Cd240 O248 2.223 . S
Cd240 O250 2.297 . S
Cd240 O251 2.439 . S
O241 Cd240 2.240 . S
O241 C246 1.279 . S
O242 Cd239 2.297 . S
O242 C244 1.247 . S
O243 Cd239 2.439 . S
O243 C244 1.208 . S
C244 O242 1.247 . S
C244 O243 1.208 . S
C245 O250 1.247 . S
C245 O251 1.208 . S
C246 O238 1.315 . S
C246 O241 1.279 . S
C247 O248 1.315 . S
C247 O249 1.279 . S
O248 Cd240 2.223 . S
O248 C247 1.315 . S
O249 Cd239 2.240 . S
O249 C247 1.279 . S
O250 Cd240 2.297 . S
O250 C245 1.247 . S
O251 Cd240 2.439 . S
O251 C245 1.208 . S
O252 Cd253 2.223 . S
O252 C260 1.315 . S
Cd253 O252 2.223 . S
Cd253 O256 2.297 . S
Cd253 O257 2.439 . S
Cd253 O263 2.240 . S
Cd254 O255 2.240 . S
Cd254 O262 2.223 . S
Cd254 O264 2.297 . S
Cd254 O265 2.439 . S
O255 Cd254 2.240 . S
O255 C260 1.279 . S
O256 Cd253 2.297 . S
O256 C258 1.247 . S
O257 Cd253 2.439 . S
O257 C258 1.208 . S
C258 O256 1.247 . S
C258 O257 1.208 . S
C259 O264 1.247 . S
C259 O265 1.208 . S
C260 O252 1.315 . S
C260 O255 1.279 . S
C261 O262 1.315 . S
C261 O263 1.279 . S
O262 Cd254 2.223 . S
O262 C261 1.315 . S
O263 Cd253 2.240 . S
O263 C261 1.279 . S
O264 Cd254 2.297 . S
O264 C259 1.247 . S
O265 Cd254 2.439 . S
O265 C259 1.208 . S
O266 Cd267 2.223 . S
O266 C274 1.315 . S
Cd267 O266 2.223 . S
Cd267 O270 2.297 . S
Cd267 O271 2.439 . S
Cd267 O277 2.240 . S
Cd268 O269 2.240 . S
Cd268 O276 2.223 . S
Cd268 O278 2.297 . S
Cd268 O279 2.439 . S
O269 Cd268 2.240 . S
O269 C274 1.279 . S
O270 Cd267 2.297 . S
O270 C272 1.247 . S
O271 Cd267 2.439 . S
O271 C272 1.208 . S
C272 O270 1.247 . S
C272 O271 1.208 . S
C273 O278 1.247 . S
C273 O279 1.208 . S
C274 O266 1.315 . S
C274 O269 1.279 . S
C275 O276 1.315 . S
C275 O277 1.279 . S
O276 Cd268 2.223 . S
O276 C275 1.315 . S
O277 Cd267 2.240 . S
O277 C275 1.279 . S
O278 Cd268 2.297 . S
O278 C273 1.247 . S
O279 Cd268 2.439 . S
O279 C273 1.208 . S
O280 Cd281 2.223 . S
O280 C288 1.315 . S
Cd281 O280 2.223 . S
Cd281 O284 2.297 . S
Cd281 O285 2.439 . S
Cd281 O291 2.240 . S
Cd282 O283 2.240 . S
Cd282 O290 2.223 . S
Cd282 O292 2.297 . S
Cd282 O293 2.439 . S
O283 Cd282 2.240 . S
O283 C288 1.279 . S
O284 Cd281 2.297 . S
O284 C286 1.247 . S
O285 Cd281 2.439 . S
O285 C286 1.208 . S
C286 O284 1.247 . S
C286 O285 1.208 . S
C287 O292 1.247 . S
C287 O293 1.208 . S
C288 O280 1.315 . S
C288 O283 1.279 . S
C289 O290 1.315 . S
C289 O291 1.279 . S
O290 Cd282 2.223 . S
O290 C289 1.315 . S
O291 Cd281 2.240 . S
O291 C289 1.279 . S
O292 Cd282 2.297 . S
O292 C287 1.247 . S
O293 Cd282 2.439 . S
O293 C287 1.208 . S
O294 Cd295 2.223 . S
O294 C302 1.315 . S
Cd295 O294 2.223 . S
Cd295 O298 2.297 . S
Cd295 O299 2.439 . S
Cd295 O305 2.240 . S
Cd296 O297 2.240 . S
Cd296 O304 2.223 . S
Cd296 O306 2.297 . S
Cd296 O307 2.439 . S
O297 Cd296 2.240 . S
O297 C302 1.279 . S
O298 Cd295 2.297 . S
O298 C300 1.247 . S
O299 Cd295 2.439 . S
O299 C300 1.208 . S
C300 O298 1.247 . S
C300 O299 1.208 . S
C301 O306 1.247 . S
C301 O307 1.208 . S
C302 O294 1.315 . S
C302 O297 1.279 . S
C303 O304 1.315 . S
C303 O305 1.279 . S
O304 Cd296 2.223 . S
O304 C303 1.315 . S
O305 Cd295 2.240 . S
O305 C303 1.279 . S
O306 Cd296 2.297 . S
O306 C301 1.247 . S
O307 Cd296 2.439 . S
O307 C301 1.208 . S
O308 Cd309 2.223 . S
O308 C316 1.315 . S
Cd309 O308 2.223 . S
Cd309 O312 2.297 . S
Cd309 O313 2.439 . S
Cd309 O319 2.240 . S
Cd310 O311 2.240 . S
Cd310 O318 2.223 . S
Cd310 O320 2.297 . S
Cd310 O321 2.439 . S
O311 Cd310 2.240 . S
O311 C316 1.279 . S
O312 Cd309 2.297 . S
O312 C314 1.247 . S
O313 Cd309 2.439 . S
O313 C314 1.208 . S
C314 O312 1.247 . S
C314 O313 1.208 . S
C315 O320 1.247 . S
C315 O321 1.208 . S
C316 O308 1.315 . S
C316 O311 1.279 . S
C317 O318 1.315 . S
C317 O319 1.279 . S
O318 Cd310 2.223 . S
O318 C317 1.315 . S
O319 Cd309 2.240 . S
O319 C317 1.279 . S
O320 Cd310 2.297 . S
O320 C315 1.247 . S
O321 Cd310 2.439 . S
O321 C315 1.208 . S
O322 Cd323 2.223 . S
O322 C330 1.315 . S
Cd323 O322 2.223 . S
Cd323 O326 2.297 . S
Cd323 O327 2.439 . S
Cd323 O333 2.240 . S
Cd324 O325 2.240 . S
Cd324 O332 2.223 . S
Cd324 O334 2.297 . S
Cd324 O335 2.439 . S
O325 Cd324 2.240 . S
O325 C330 1.279 . S
O326 Cd323 2.297 . S
O326 C328 1.247 . S
O327 Cd323 2.439 . S
O327 C328 1.208 . S
C328 O326 1.247 . S
C328 O327 1.208 . S
C329 O334 1.247 . S
C329 O335 1.208 . S
C330 O322 1.315 . S
C330 O325 1.279 . S
C331 O332 1.315 . S
C331 O333 1.279 . S
O332 Cd324 2.223 . S
O332 C331 1.315 . S
O333 Cd323 2.240 . S
O333 C331 1.279 . S
O334 Cd324 2.297 . S
O334 C329 1.247 . S
O335 Cd324 2.439 . S
O335 C329 1.208 . S
O336 Cd337 2.223 . S
O336 C344 1.315 . S
Cd337 O336 2.223 . S
Cd337 O340 2.297 . S
Cd337 O341 2.439 . S
Cd337 O347 2.240 . S
Cd338 O339 2.240 . S
Cd338 O346 2.223 . S
Cd338 O348 2.297 . S
Cd338 O349 2.439 . S
O339 Cd338 2.240 . S
O339 C344 1.279 . S
O340 Cd337 2.297 . S
O340 C342 1.247 . S
O341 Cd337 2.439 . S
O341 C342 1.208 . S
C342 O340 1.247 . S
C342 O341 1.208 . S
C343 O348 1.247 . S
C343 O349 1.208 . S
C344 O336 1.315 . S
C344 O339 1.279 . S
C345 O346 1.315 . S
C345 O347 1.279 . S
O346 Cd338 2.223 . S
O346 C345 1.315 . S
O347 Cd337 2.240 . S
O347 C345 1.279 . S
O348 Cd338 2.297 . S
O348 C343 1.247 . S
O349 Cd338 2.439 . S
O349 C343 1.208 . S
O350 Cd351 2.223 . S
O350 C358 1.315 . S
Cd351 O350 2.223 . S
Cd351 O354 2.297 . S
Cd351 O355 2.439 . S
Cd351 O361 2.240 . S
Cd352 O353 2.240 . S
Cd352 O360 2.223 . S
Cd352 O362 2.297 . S
Cd352 O363 2.439 . S
O353 Cd352 2.240 . S
O353 C358 1.279 . S
O354 Cd351 2.297 . S
O354 C356 1.247 . S
O355 Cd351 2.439 . S
O355 C356 1.208 . S
C356 O354 1.247 . S
C356 O355 1.208 . S
C357 O362 1.247 . S
C357 O363 1.208 . S
C358 O350 1.315 . S
C358 O353 1.279 . S
C359 O360 1.315 . S
C359 O361 1.279 . S
O360 Cd352 2.223 . S
O360 C359 1.315 . S
O361 Cd351 2.240 . S
O361 C359 1.279 . S
O362 Cd352 2.297 . S
O362 C357 1.247 . S
O363 Cd352 2.439 . S
O363 C357 1.208 . S
O364 Cd365 2.223 . S
O364 C372 1.315 . S
Cd365 O364 2.223 . S
Cd365 O368 2.297 . S
Cd365 O369 2.439 . S
Cd365 O375 2.240 . S
Cd366 O367 2.240 . S
Cd366 O374 2.223 . S
Cd366 O376 2.297 . S
Cd366 O377 2.439 . S
O367 Cd366 2.240 . S
O367 C372 1.279 . S
O368 Cd365 2.297 . S
O368 C370 1.247 . S
O369 Cd365 2.439 . S
O369 C370 1.208 . S
C370 O368 1.247 . S
C370 O369 1.208 . S
C371 O376 1.247 . S
C371 O377 1.208 . S
C372 O364 1.315 . S
C372 O367 1.279 . S
C373 O374 1.315 . S
C373 O375 1.279 . S
O374 Cd366 2.223 . S
O374 C373 1.315 . S
O375 Cd365 2.240 . S
O375 C373 1.279 . S
O376 Cd366 2.297 . S
O376 C371 1.247 . S
O377 Cd366 2.439 . S
O377 C371 1.208 . S
O378 Cd379 2.223 . S
O378 C386 1.315 . S
Cd379 O378 2.223 . S
Cd379 O382 2.297 . S
Cd379 O383 2.439 . S
Cd379 O389 2.240 . S
Cd380 O381 2.240 . S
Cd380 O388 2.223 . S
Cd380 O390 2.297 . S
Cd380 O391 2.439 . S
O381 Cd380 2.240 . S
O381 C386 1.279 . S
O382 Cd379 2.297 . S
O382 C384 1.247 . S
O383 Cd379 2.439 . S
O383 C384 1.208 . S
C384 O382 1.247 . S
C384 O383 1.208 . S
C385 O390 1.247 . S
C385 O391 1.208 . S
C386 O378 1.315 . S
C386 O381 1.279 . S
C387 O388 1.315 . S
C387 O389 1.279 . S
O388 Cd380 2.223 . S
O388 C387 1.315 . S
O389 Cd379 2.240 . S
O389 C387 1.279 . S
O390 Cd380 2.297 . S
O390 C385 1.247 . S
O391 Cd380 2.439 . S
O391 C385 1.208 . S
O392 Cd393 2.223 . S
O392 C400 1.315 . S
Cd393 O392 2.223 . S
Cd393 O396 2.297 . S
Cd393 O397 2.439 . S
Cd393 O403 2.240 . S
Cd394 O395 2.240 . S
Cd394 O402 2.223 . S
Cd394 O404 2.297 . S
Cd394 O405 2.439 . S
O395 Cd394 2.240 . S
O395 C400 1.279 . S
O396 Cd393 2.297 . S
O396 C398 1.247 . S
O397 Cd393 2.439 . S
O397 C398 1.208 . S
C398 O396 1.247 . S
C398 O397 1.208 . S
C399 O404 1.247 . S
C399 O405 1.208 . S
C400 O392 1.315 . S
C400 O395 1.279 . S
C401 O402 1.315 . S
C401 O403 1.279 . S
O402 Cd394 2.223 . S
O402 C401 1.315 . S
O403 Cd393 2.240 . S
O403 C401 1.279 . S
O404 Cd394 2.297 . S
O404 C399 1.247 . S
O405 Cd394 2.439 . S
O405 C399 1.208 . S
O406 Cd407 2.223 . S
O406 C414 1.315 . S
Cd407 O406 2.223 . S
Cd407 O410 2.297 . S
Cd407 O411 2.439 . S
Cd407 O417 2.240 . S
Cd408 O409 2.240 . S
Cd408 O416 2.223 . S
Cd408 O418 2.297 . S
Cd408 O419 2.439 . S
O409 Cd408 2.240 . S
O409 C414 1.279 . S
O410 Cd407 2.297 . S
O410 C412 1.247 . S
O411 Cd407 2.439 . S
O411 C412 1.208 . S
C412 O410 1.247 . S
C412 O411 1.208 . S
C413 O418 1.247 . S
C413 O419 1.208 . S
C414 O406 1.315 . S
C414 O409 1.279 . S
C415 O416 1.315 . S
C415 O417 1.279 . S
O416 Cd408 2.223 . S
O416 C415 1.315 . S
O417 Cd407 2.240 . S
O417 C415 1.279 . S
O418 Cd408 2.297 . S
O418 C413 1.247 . S
O419 Cd408 2.439 . S
O419 C413 1.208 . S
O420 Cd421 2.223 . S
O420 C428 1.315 . S
Cd421 O420 2.223 . S
Cd421 O424 2.297 . S
Cd421 O425 2.439 . S
Cd421 O431 2.240 . S
Cd422 O423 2.240 . S
Cd422 O430 2.223 . S
Cd422 O432 2.297 . S
Cd422 O433 2.439 . S
O423 Cd422 2.240 . S
O423 C428 1.279 . S
O424 Cd421 2.297 . S
O424 C426 1.247 . S
O425 Cd421 2.439 . S
O425 C426 1.208 . S
C426 O424 1.247 . S
C426 O425 1.208 . S
C427 O432 1.247 . S
C427 O433 1.208 . S
C428 O420 1.315 . S
C428 O423 1.279 . S
C429 O430 1.315 . S
C429 O431 1.279 . S
O430 Cd422 2.223 . S
O430 C429 1.315 . S
O431 Cd421 2.240 . S
O431 C429 1.279 . S
O432 Cd422 2.297 . S
O432 C427 1.247 . S
O433 Cd422 2.439 . S
O433 C427 1.208 . S
O434 Cd435 2.223 . S
O434 C442 1.315 . S
Cd435 O434 2.223 . S
Cd435 O438 2.297 . S
Cd435 O439 2.439 . S
Cd435 O445 2.240 . S
Cd436 O437 2.240 . S
Cd436 O444 2.223 . S
Cd436 O446 2.297 . S
Cd436 O447 2.439 . S
O437 Cd436 2.240 . S
O437 C442 1.279 . S
O438 Cd435 2.297 . S
O438 C440 1.247 . S
O439 Cd435 2.439 . S
O439 C440 1.208 . S
C440 O438 1.247 . S
C440 O439 1.208 . S
C441 O446 1.247 . S
C441 O447 1.208 . S
C442 O434 1.315 . S
C442 O437 1.279 . S
C443 O444 1.315 . S
C443 O445 1.279 . S
O444 Cd436 2.223 . S
O444 C443 1.315 . S
O445 Cd435 2.240 . S
O445 C443 1.279 . S
O446 Cd436 2.297 . S
O446 C441 1.247 . S
O447 Cd436 2.439 . S
O447 C441 1.208 . S
O448 Cd449 2.223 . S
O448 C456 1.315 . S
Cd449 O448 2.223 . S
Cd449 O452 2.297 . S
Cd449 O453 2.439 . S
Cd449 O459 2.240 . S
Cd450 O451 2.240 . S
Cd450 O458 2.223 . S
Cd450 O460 2.297 . S
Cd450 O461 2.439 . S
O451 Cd450 2.240 . S
O451 C456 1.279 . S
O452 Cd449 2.297 . S
O452 C454 1.247 . S
O453 Cd449 2.439 . S
O453 C454 1.208 . S
C454 O452 1.247 . S
C454 O453 1.208 . S
C455 O460 1.247 . S
C455 O461 1.208 . S
C456 O448 1.315 . S
C456 O451 1.279 . S
C457 O458 1.315 . S
C457 O459 1.279 . S
O458 Cd450 2.223 . S
O458 C457 1.315 . S
O459 Cd449 2.240 . S
O459 C457 1.279 . S
O460 Cd450 2.297 . S
O460 C455 1.247 . S
O461 Cd450 2.439 . S
O461 C455 1.208 . S
O462 Cd463 2.223 . S
O462 C470 1.315 . S
Cd463 O462 2.223 . S
Cd463 O466 2.297 . S
Cd463 O467 2.439 . S
Cd463 O473 2.240 . S
Cd464 O465 2.240 . S
Cd464 O472 2.223 . S
Cd464 O474 2.297 . S
Cd464 O475 2.439 . S
O465 Cd464 2.240 . S
O465 C470 1.279 . S
O466 Cd463 2.297 . S
O466 C468 1.247 . S
O467 Cd463 2.439 . S
O467 C468 1.208 . S
C468 O466 1.247 . S
C468 O467 1.208 . S
C469 O474 1.247 . S
C469 O475 1.208 . S
C470 O462 1.315 . S
C470 O465 1.279 . S
C471 O472 1.315 . S
C471 O473 1.279 . S
O472 Cd464 2.223 . S
O472 C471 1.315 . S
O473 Cd463 2.240 . S
O473 C471 1.279 . S
O474 Cd464 2.297 . S
O474 C469 1.247 . S
O475 Cd464 2.439 . S
O475 C469 1.208 . S
O476 Cd477 2.223 . S
O476 C484 1.315 . S
Cd477 O476 2.223 . S
Cd477 O480 2.297 . S
Cd477 O481 2.439 . S
Cd477 O487 2.240 . S
Cd478 O479 2.240 . S
Cd478 O486 2.223 . S
Cd478 O488 2.297 . S
Cd478 O489 2.439 . S
O479 Cd478 2.240 . S
O479 C484 1.279 . S
O480 Cd477 2.297 . S
O480 C482 1.247 . S
O481 Cd477 2.439 . S
O481 C482 1.208 . S
C482 O480 1.247 . S
C482 O481 1.208 . S
C483 O488 1.247 . S
C483 O489 1.208 . S
C484 O476 1.315 . S
C484 O479 1.279 . S
C485 O486 1.315 . S
C485 O487 1.279 . S
O486 Cd478 2.223 . S
O486 C485 1.315 . S
O487 Cd477 2.240 . S
O487 C485 1.279 . S
O488 Cd478 2.297 . S
O488 C483 1.247 . S
O489 Cd478 2.439 . S
O489 C483 1.208 . S
O490 Cd491 2.223 . S
O490 C498 1.315 . S
Cd491 O490 2.223 . S
Cd491 O494 2.297 . S
Cd491 O495 2.439 . S
Cd491 O501 2.240 . S
Cd492 O493 2.240 . S
Cd492 O500 2.223 . S
Cd492 O502 2.297 . S
Cd492 O503 2.439 . S
O493 Cd492 2.240 . S
O493 C498 1.279 . S
O494 Cd491 2.297 . S
O494 C496 1.247 . S
O495 Cd491 2.439 . S
O495 C496 1.208 . S
C496 O494 1.247 . S
C496 O495 1.208 . S
C497 O502 1.247 . S
C497 O503 1.208 . S
C498 O490 1.315 . S
C498 O493 1.279 . S
C499 O500 1.315 . S
C499 O501 1.279 . S
O500 Cd492 2.223 . S
O500 C499 1.315 . S
O501 Cd491 2.240 . S
O501 C499 1.279 . S
O502 Cd492 2.297 . S
O502 C497 1.247 . S
O503 Cd492 2.439 . S
O503 C497 1.208 . S
O504 Cd505 2.223 . S
O504 C512 1.315 . S
Cd505 O504 2.223 . S
Cd505 O508 2.297 . S
Cd505 O509 2.439 . S
Cd505 O515 2.240 . S
Cd506 O507 2.240 . S
Cd506 O514 2.223 . S
Cd506 O516 2.297 . S
Cd506 O517 2.439 . S
O507 Cd506 2.240 . S
O507 C512 1.279 . S
O508 Cd505 2.297 . S
O508 C510 1.247 . S
O509 Cd505 2.439 . S
O509 C510 1.208 . S
C510 O508 1.247 . S
C510 O509 1.208 . S
C511 O516 1.247 . S
C511 O517 1.208 . S
C512 O504 1.315 . S
C512 O507 1.279 . S
C513 O514 1.315 . S
C513 O515 1.279 . S
O514 Cd506 2.223 . S
O514 C513 1.315 . S
O515 Cd505 2.240 . S
O515 C513 1.279 . S
O516 Cd506 2.297 . S
O516 C511 1.247 . S
O517 Cd506 2.439 . S
O517 C511 1.208 . S
O518 Cd519 2.223 . S
O518 C526 1.315 . S
Cd519 O518 2.223 . S
Cd519 O522 2.297 . S
Cd519 O523 2.439 . S
Cd519 O529 2.240 . S
Cd520 O521 2.240 . S
Cd520 O528 2.223 . S
Cd520 O530 2.297 . S
Cd520 O531 2.439 . S
O521 Cd520 2.240 . S
O521 C526 1.279 . S
O522 Cd519 2.297 . S
O522 C524 1.247 . S
O523 Cd519 2.439 . S
O523 C524 1.208 . S
C524 O522 1.247 . S
C524 O523 1.208 . S
C525 O530 1.247 . S
C525 O531 1.208 . S
C526 O518 1.315 . S
C526 O521 1.279 . S
C527 O528 1.315 . S
C527 O529 1.279 . S
O528 Cd520 2.223 . S
O528 C527 1.315 . S
O529 Cd519 2.240 . S
O529 C527 1.279 . S
O530 Cd520 2.297 . S
O530 C525 1.247 . S
O531 Cd520 2.439 . S
O531 C525 1.208 . S
O532 Cd533 2.223 . S
O532 C540 1.315 . S
Cd533 O532 2.223 . S
Cd533 O536 2.297 . S
Cd533 O537 2.439 . S
Cd533 O543 2.240 . S
Cd534 O535 2.240 . S
Cd534 O542 2.223 . S
Cd534 O544 2.297 . S
Cd534 O545 2.439 . S
O535 Cd534 2.240 . S
O535 C540 1.279 . S
O536 Cd533 2.297 . S
O536 C538 1.247 . S
O537 Cd533 2.439 . S
O537 C538 1.208 . S
C538 O536 1.247 . S
C538 O537 1.208 . S
C539 O544 1.247 . S
C539 O545 1.208 . S
C540 O532 1.315 . S
C540 O535 1.279 . S
C541 O542 1.315 . S
C541 O543 1.279 . S
O542 Cd534 2.223 . S
O542 C541 1.315 . S
O543 Cd533 2.240 . S
O543 C541 1.279 . S
O544 Cd534 2.297 . S
O544 C539 1.247 . S
O545 Cd534 2.439 . S
O545 C539 1.208 . S
O546 Cd547 2.223 . S
O546 C554 1.315 . S
Cd547 O546 2.223 . S
Cd547 O550 2.297 . S
Cd547 O551 2.439 . S
Cd547 O557 2.240 . S
Cd548 O549 2.240 . S
Cd548 O556 2.223 . S
Cd548 O558 2.297 . S
Cd548 O559 2.439 . S
O549 Cd548 2.240 . S
O549 C554 1.279 . S
O550 Cd547 2.297 . S
O550 C552 1.247 . S
O551 Cd547 2.439 . S
O551 C552 1.208 . S
C552 O550 1.247 . S
C552 O551 1.208 . S
C553 O558 1.247 . S
C553 O559 1.208 . S
C554 O546 1.315 . S
C554 O549 1.279 . S
C555 O556 1.315 . S
C555 O557 1.279 . S
O556 Cd548 2.223 . S
O556 C555 1.315 . S
O557 Cd547 2.240 . S
O557 C555 1.279 . S
O558 Cd548 2.297 . S
O558 C553 1.247 . S
O559 Cd548 2.439 . S
O559 C553 1.208 . S
O560 Cd561 2.223 . S
O560 C568 1.315 . S
Cd561 O560 2.223 . S
Cd561 O564 2.297 . S
Cd561 O565 2.439 . S
Cd561 O571 2.240 . S
Cd562 O563 2.240 . S
Cd562 O570 2.223 . S
Cd562 O572 2.297 . S
Cd562 O573 2.439 . S
O563 Cd562 2.240 . S
O563 C568 1.279 . S
O564 Cd561 2.297 . S
O564 C566 1.247 . S
O565 Cd561 2.439 . S
O565 C566 1.208 . S
C566 O564 1.247 . S
C566 O565 1.208 . S
C567 O572 1.247 . S
C567 O573 1.208 . S
C568 O560 1.315 . S
C568 O563 1.279 . S
C569 O570 1.315 . S
C569 O571 1.279 . S
O570 Cd562 2.223 . S
O570 C569 1.315 . S
O571 Cd561 2.240 . S
O571 C569 1.279 . S
O572 Cd562 2.297 . S
O572 C567 1.247 . S
O573 Cd562 2.439 . S
O573 C567 1.208 . S
O574 Cd575 2.223 . S
O574 C582 1.315 . S
Cd575 O574 2.223 . S
Cd575 O578 2.297 . S
Cd575 O579 2.439 . S
Cd575 O585 2.240 . S
Cd576 O577 2.240 . S
Cd576 O584 2.223 . S
Cd576 O586 2.297 . S
Cd576 O587 2.439 . S
O577 Cd576 2.240 . S
O577 C582 1.279 . S
O578 Cd575 2.297 . S
O578 C580 1.247 . S
O579 Cd575 2.439 . S
O579 C580 1.208 . S
C580 O578 1.247 . S
C580 O579 1.208 . S
C581 O586 1.247 . S
C581 O587 1.208 . S
C582 O574 1.315 . S
C582 O577 1.279 . S
C583 O584 1.315 . S
C583 O585 1.279 . S
O584 Cd576 2.223 . S
O584 C583 1.315 . S
O585 Cd575 2.240 . S
O585 C583 1.279 . S
O586 Cd576 2.297 . S
O586 C581 1.247 . S
O587 Cd576 2.439 . S
O587 C581 1.208 . S
O588 Cd589 2.223 . S
O588 C596 1.315 . S
Cd589 O588 2.223 . S
Cd589 O592 2.297 . S
Cd589 O593 2.439 . S
Cd589 O599 2.240 . S
Cd590 O591 2.240 . S
Cd590 O598 2.223 . S
Cd590 O600 2.297 . S
Cd590 O601 2.439 . S
O591 Cd590 2.240 . S
O591 C596 1.279 . S
O592 Cd589 2.297 . S
O592 C594 1.247 . S
O593 Cd589 2.439 . S
O593 C594 1.208 . S
C594 O592 1.247 . S
C594 O593 1.208 . S
C595 O600 1.247 . S
C595 O601 1.208 . S
C596 O588 1.315 . S
C596 O591 1.279 . S
C597 O598 1.315 . S
C597 O599 1.279 . S
O598 Cd590 2.223 . S
O598 C597 1.315 . S
O599 Cd589 2.240 . S
O599 C597 1.279 . S
O600 Cd590 2.297 . S
O600 C595 1.247 . S
O601 Cd590 2.439 . S
O601 C595 1.208 . S
O602 Cd603 2.223 . S
O602 C610 1.315 . S
Cd603 O602 2.223 . S
Cd603 O606 2.297 . S
Cd603 O607 2.439 . S
Cd603 O613 2.240 . S
Cd604 O605 2.240 . S
Cd604 O612 2.223 . S
Cd604 O614 2.297 . S
Cd604 O615 2.439 . S
O605 Cd604 2.240 . S
O605 C610 1.279 . S
O606 Cd603 2.297 . S
O606 C608 1.247 . S
O607 Cd603 2.439 . S
O607 C608 1.208 . S
C608 O606 1.247 . S
C608 O607 1.208 . S
C609 O614 1.247 . S
C609 O615 1.208 . S
C610 O602 1.315 . S
C610 O605 1.279 . S
C611 O612 1.315 . S
C611 O613 1.279 . S
O612 Cd604 2.223 . S
O612 C611 1.315 . S
O613 Cd603 2.240 . S
O613 C611 1.279 . S
O614 Cd604 2.297 . S
O614 C609 1.247 . S
O615 Cd604 2.439 . S
O615 C609 1.208 . S
O616 Cd617 2.223 . S
O616 C624 1.315 . S
Cd617 O616 2.223 . S
Cd617 O620 2.297 . S
Cd617 O621 2.439 . S
Cd617 O627 2.240 . S
Cd618 O619 2.240 . S
Cd618 O626 2.223 . S
Cd618 O628 2.297 . S
Cd618 O629 2.439 . S
O619 Cd618 2.240 . S
O619 C624 1.279 . S
O620 Cd617 2.297 . S
O620 C622 1.247 . S
O621 Cd617 2.439 . S
O621 C622 1.208 . S
C622 O620 1.247 . S
C622 O621 1.208 . S
C623 O628 1.247 . S
C623 O629 1.208 . S
C624 O616 1.315 . S
C624 O619 1.279 . S
C625 O626 1.315 . S
C625 O627 1.279 . S
O626 Cd618 2.223 . S
O626 C625 1.315 . S
O627 Cd617 2.240 . S
O627 C625 1.279 . S
O628 Cd618 2.297 . S
O628 C623 1.247 . S
O629 Cd618 2.439 . S
O629 C623 1.208 . S
O630 Cd631 2.223 . S
O630 C638 1.315 . S
Cd631 O630 2.223 . S
Cd631 O634 2.297 . S
Cd631 O635 2.439 . S
Cd631 O641 2.240 . S
Cd632 O633 2.240 . S
Cd632 O640 2.223 . S
Cd632 O642 2.297 . S
Cd632 O643 2.439 . S
O633 Cd632 2.240 . S
O633 C638 1.279 . S
O634 Cd631 2.297 . S
O634 C636 1.247 . S
O635 Cd631 2.439 . S
O635 C636 1.208 . S
C636 O634 1.247 . S
C636 O635 1.208 . S
C637 O642 1.247 . S
C637 O643 1.208 . S
C638 O630 1.315 . S
C638 O633 1.279 . S
C639 O640 1.315 . S
C639 O641 1.279 . S
O640 Cd632 2.223 . S
O640 C639 1.315 . S
O641 Cd631 2.240 . S
O641 C639 1.279 . S
O642 Cd632 2.297 . S
O642 C637 1.247 . S
O643 Cd632 2.439 . S
O643 C637 1.208 . S
O644 Cd645 2.223 . S
O644 C652 1.315 . S
Cd645 O644 2.223 . S
Cd645 O648 2.297 . S
Cd645 O649 2.439 . S
Cd645 O655 2.240 . S
Cd646 O647 2.240 . S
Cd646 O654 2.223 . S
Cd646 O656 2.297 . S
Cd646 O657 2.439 . S
O647 Cd646 2.240 . S
O647 C652 1.279 . S
O648 Cd645 2.297 . S
O648 C650 1.247 . S
O649 Cd645 2.439 . S
O649 C650 1.208 . S
C650 O648 1.247 . S
C650 O649 1.208 . S
C651 O656 1.247 . S
C651 O657 1.208 . S
C652 O644 1.315 . S
C652 O647 1.279 . S
C653 O654 1.315 . S
C653 O655 1.279 . S
O654 Cd646 2.223 . S
O654 C653 1.315 . S
O655 Cd645 2.240 . S
O655 C653 1.279 . S
O656 Cd646 2.297 . S
O656 C651 1.247 . S
O657 Cd646 2.439 . S
O657 C651 1.208 . S
O658 Cd659 2.223 . S
O658 C666 1.315 . S
Cd659 O658 2.223 . S
Cd659 O662 2.297 . S
Cd659 O663 2.439 . S
Cd659 O669 2.240 . S
Cd660 O661 2.240 . S
Cd660 O668 2.223 . S
Cd660 O670 2.297 . S
Cd660 O671 2.439 . S
O661 Cd660 2.240 . S
O661 C666 1.279 . S
O662 Cd659 2.297 . S
O662 C664 1.247 . S
O663 Cd659 2.439 . S
O663 C664 1.208 . S
C664 O662 1.247 . S
C664 O663 1.208 . S
C665 O670 1.247 . S
C665 O671 1.208 . S
C666 O658 1.315 . S
C666 O661 1.279 . S
C667 O668 1.315 . S
C667 O669 1.279 . S
O668 Cd660 2.223 . S
O668 C667 1.315 . S
O669 Cd659 2.240 . S
O669 C667 1.279 . S
O670 Cd660 2.297 . S
O670 C665 1.247 . S
O671 Cd660 2.439 . S
O671 C665 1.208 . S
H672 C684 0.930 . S
H673 C686 0.930 . S
H674 C687 0.930 . S
H675 C691 0.959 . S
H676 C691 0.959 . S
H677 C691 0.961 . S
H678 C692 0.960 . S
H679 C692 0.961 . S
H680 C692 0.959 . S
H681 C695 0.929 . S
H682 C696 0.931 . S
H683 C698 0.930 . S
C684 H672 0.930 . S
C684 C685 1.399 . S
C684 C689 1.399 . S
C685 C684 1.399 . S
C685 C686 1.376 . S
C686 H673 0.930 . S
C686 C685 1.376 . S
C686 C687 1.388 . S
C687 H674 0.930 . S
C687 C686 1.388 . S
C687 C688 1.390 . S
C688 C687 1.390 . S
C688 C689 1.394 . S
C688 C694 1.465 1_655 S
C689 C684 1.399 . S
C689 C688 1.394 . S
C689 C690 1.508 1_655 S
C690 C689 1.508 1_455 S
C690 C691 1.509 . S
C690 C692 1.554 1_455 S
C690 C693 1.533 . S
C691 H675 0.959 . S
C691 H676 0.959 . S
C691 H677 0.961 . S
C691 C690 1.509 . S
C692 H678 0.960 . S
C692 H679 0.961 . S
C692 H680 0.959 . S
C692 C690 1.554 1_655 S
C693 C690 1.533 . S
C693 C694 1.396 . S
C693 C698 1.390 . S
C694 C688 1.465 1_455 S
C694 C693 1.396 . S
C694 C695 1.399 . S
C695 H681 0.929 . S
C695 C694 1.399 . S
C695 C696 1.385 . S
C696 H682 0.931 . S
C696 C695 1.385 . S
C696 C697 1.389 . S
C697 C696 1.389 . S
C697 C698 1.387 . S
C698 H683 0.930 . S
C698 C693 1.390 . S
C698 C697 1.387 . S
H699 C711 0.930 . S
H700 C713 0.930 . S
H701 C714 0.930 . S
H702 C718 0.959 1_545 S
H703 C718 0.944 1_545 S
H704 C718 0.961 . S
H705 C719 0.960 . S
H706 C719 0.961 . S
H707 C719 0.959 . S
H708 C722 0.929 . S
H709 C723 0.931 . S
H710 C725 0.930 . S
C711 H699 0.930 . S
C711 C712 1.399 . S
C711 C716 1.399 . S
C712 C711 1.399 . S
C712 C713 1.376 . S
C713 H700 0.930 . S
C713 C712 1.376 . S
C713 C714 1.388 . S
C714 H701 0.930 . S
C714 C713 1.388 . S
C714 C715 1.390 . S
C715 C714 1.390 . S
C715 C716 1.394 . S
C715 C721 1.465 1_565 S
C716 C711 1.399 . S
C716 C715 1.394 . S
C716 C717 1.516 . S
C717 C716 1.516 . S
C717 C718 1.502 . S
C717 C719 1.561 . S
C717 C720 1.526 1_565 S
C718 H702 0.959 1_565 S
C718 H703 0.944 1_565 S
C718 H704 0.961 . S
C718 C717 1.502 . S
C719 H705 0.960 . S
C719 H706 0.961 . S
C719 H707 0.959 . S
C719 C717 1.561 . S
C720 C717 1.526 1_545 S
C720 C721 1.396 . S
C720 C725 1.390 . S
C721 C715 1.465 1_545 S
C721 C720 1.396 . S
C721 C722 1.399 . S
C722 H708 0.929 . S
C722 C721 1.399 . S
C722 C723 1.385 . S
C723 H709 0.931 . S
C723 C722 1.385 . S
C723 C724 1.389 . S
C724 C723 1.389 . S
C724 C725 1.387 . S
C725 H710 0.930 . S
C725 C720 1.390 . S
C725 C724 1.387 . S
H726 C738 0.930 . S
H727 C740 0.930 . S
H728 C741 0.930 . S
H729 C745 0.959 . S
H730 C745 0.959 . S
H731 C745 0.961 1_455 S
H732 C746 0.960 . S
H733 C746 0.961 . S
H734 C746 0.959 . S
H735 C749 0.929 . S
H736 C750 0.931 . S
H737 C752 0.930 . S
C738 H726 0.930 . S
C738 C739 1.399 . S
C738 C743 1.399 . S
C739 C738 1.399 . S
C739 C740 1.376 . S
C740 H727 0.930 . S
C740 C739 1.376 . S
C740 C741 1.388 . S
C741 H728 0.930 . S
C741 C740 1.388 . S
C741 C742 1.390 . S
C742 C741 1.390 . S
C742 C743 1.394 . S
C742 C748 1.465 1_455 S
C743 C738 1.399 . S
C743 C742 1.394 . S
C743 C744 1.516 . S
C744 C743 1.516 . S
C744 C745 1.502 1_455 S
C744 C746 1.561 . S
C744 C747 1.526 1_455 S
C745 H729 0.959 . S
C745 H730 0.959 . S
C745 H731 0.961 1_655 S
C745 C744 1.502 1_655 S
C746 H732 0.960 . S
C746 H733 0.961 . S
C746 H734 0.959 . S
C746 C744 1.561 . S
C747 C744 1.526 1_655 S
C747 C748 1.396 . S
C747 C752 1.390 . S
C748 C742 1.465 1_655 S
C748 C747 1.396 . S
C748 C749 1.399 . S
C749 H735 0.929 . S
C749 C748 1.399 . S
C749 C750 1.385 . S
C750 H736 0.931 . S
C750 C749 1.385 . S
C750 C751 1.389 . S
C751 C750 1.389 . S
C751 C752 1.387 . S
C752 H737 0.930 . S
C752 C747 1.390 . S
C752 C751 1.387 . S
H753 C765 0.930 . S
H754 C767 0.930 . S
H755 C768 0.930 1_545 S
H756 C772 0.959 . S
H757 C772 0.959 . S
H758 C772 0.961 . S
H759 C773 0.960 . S
H760 C773 0.961 . S
H761 C773 0.959 . S
H762 C776 0.929 . S
H763 C777 0.931 . S
H764 C779 0.930 . S
C765 H753 0.930 . S
C765 C766 1.399 . S
C765 C770 1.399 . S
C766 C765 1.399 . S
C766 C767 1.376 . S
C767 H754 0.930 . S
C767 C766 1.376 . S
C767 C768 1.388 . S
C768 H755 0.930 1_565 S
C768 C767 1.388 . S
C768 C769 1.390 . S
C769 C768 1.390 . S
C769 C770 1.394 . S
C769 C775 1.465 1_565 S
C770 C765 1.399 . S
C770 C769 1.394 . S
C770 C771 1.516 . S
C771 C770 1.516 . S
C771 C772 1.502 . S
C771 C773 1.561 . S
C771 C774 1.526 1_565 S
C772 H756 0.959 . S
C772 H757 0.959 . S
C772 H758 0.961 . S
C772 C771 1.502 . S
C773 H759 0.960 . S
C773 H760 0.961 . S
C773 H761 0.959 . S
C773 C771 1.561 . S
C774 C771 1.526 1_545 S
C774 C775 1.396 . S
C774 C779 1.390 . S
C775 C769 1.465 1_545 S
C775 C774 1.396 . S
C775 C776 1.399 . S
C776 H762 0.929 . S
C776 C775 1.399 . S
C776 C777 1.385 . S
C777 H763 0.931 . S
C777 C776 1.385 . S
C777 C778 1.389 . S
C778 C777 1.389 . S
C778 C779 1.387 . S
C779 H764 0.930 . S
C779 C774 1.390 . S
C779 C778 1.387 . S
H780 C792 0.930 . S
H781 C794 0.930 . S
H782 C795 0.930 . S
H783 C799 0.959 . S
H784 C799 0.959 . S
H785 C799 0.961 . S
H786 C800 0.960 1_655 S
H787 C800 0.961 . S
H788 C800 0.959 1_655 S
H789 C803 0.929 1_655 S
H790 C804 0.931 . S
H791 C806 0.930 . S
C792 H780 0.930 . S
C792 C793 1.399 . S
C792 C797 1.399 . S
C793 C792 1.399 . S
C793 C794 1.376 . S
C794 H781 0.930 . S
C794 C793 1.376 . S
C794 C795 1.388 . S
C795 H782 0.930 . S
C795 C794 1.388 . S
C795 C796 1.390 . S
C796 C795 1.390 . S
C796 C797 1.394 . S
C796 C802 1.465 1_655 S
C797 C792 1.399 . S
C797 C796 1.394 . S
C797 C798 1.516 1_655 S
C798 C797 1.516 1_455 S
C798 C799 1.502 . S
C798 C800 1.561 . S
C798 C801 1.526 . S
C799 H783 0.959 . S
C799 H784 0.959 . S
C799 H785 0.961 . S
C799 C798 1.502 . S
C800 H786 0.960 1_455 S
C800 H787 0.961 . S
C800 H788 0.959 1_455 S
C800 C798 1.561 . S
C801 C798 1.526 . S
C801 C802 1.396 . S
C801 C806 1.390 . S
C802 C796 1.465 1_455 S
C802 C801 1.396 . S
C802 C803 1.399 . S
C803 H789 0.929 1_455 S
C803 C802 1.399 . S
C803 C804 1.385 . S
C804 H790 0.931 . S
C804 C803 1.385 . S
C804 C805 1.389 . S
C805 C804 1.389 . S
C805 C806 1.387 . S
C806 H791 0.930 . S
C806 C801 1.390 . S
C806 C805 1.387 . S
H807 C819 0.930 . S
H808 C821 0.930 . S
H809 C822 0.930 1_565 S
H810 C826 0.959 . S
H811 C826 0.959 . S
H812 C826 0.961 . S
H813 C827 0.960 . S
H814 C827 0.961 . S
H815 C827 0.959 . S
H816 C830 0.929 . S
H817 C831 0.931 . S
H818 C833 0.930 . S
C819 H807 0.930 . S
C819 C820 1.399 . S
C819 C824 1.399 . S
C820 C819 1.399 . S
C820 C821 1.376 . S
C821 H808 0.930 . S
C821 C820 1.376 . S
C821 C822 1.388 . S
C822 H809 0.930 1_545 S
C822 C821 1.388 . S
C822 C823 1.390 . S
C823 C822 1.390 . S
C823 C824 1.394 . S
C823 C829 1.465 1_545 S
C824 C819 1.399 . S
C824 C823 1.394 . S
C824 C825 1.516 . S
C825 C824 1.516 . S
C825 C826 1.502 . S
C825 C827 1.561 . S
C825 C828 1.526 1_545 S
C826 H810 0.959 . S
C826 H811 0.959 . S
C826 H812 0.961 . S
C826 C825 1.502 . S
C827 H813 0.960 . S
C827 H814 0.961 . S
C827 H815 0.959 . S
C827 C825 1.561 . S
C828 C825 1.526 1_565 S
C828 C829 1.396 . S
C828 C833 1.390 . S
C829 C823 1.465 1_565 S
C829 C828 1.396 . S
C829 C830 1.399 . S
C830 H816 0.929 . S
C830 C829 1.399 . S
C830 C831 1.385 . S
C831 H817 0.931 . S
C831 C830 1.385 . S
C831 C832 1.389 . S
C832 C831 1.389 . S
C832 C833 1.387 . S
C833 H818 0.930 . S
C833 C828 1.390 . S
C833 C832 1.387 . S
H834 C846 0.930 . S
H835 C848 0.930 . S
H836 C849 0.930 1_655 S
H837 C853 0.959 . S
H838 C853 0.959 . S
H839 C853 0.961 . S
H840 C854 0.960 . S
H841 C854 0.961 . S
H842 C854 0.959 . S
H843 C857 0.929 . S
H844 C858 0.931 . S
H845 C860 0.930 . S
C846 H834 0.930 . S
C846 C847 1.399 . S
C846 C851 1.399 . S
C847 C846 1.399 . S
C847 C848 1.376 . S
C848 H835 0.930 . S
C848 C847 1.376 . S
C848 C849 1.388 . S
C849 H836 0.930 1_455 S
C849 C848 1.388 . S
C849 C850 1.390 . S
C850 C849 1.390 . S
C850 C851 1.394 . S
C850 C856 1.465 1_455 S
C851 C846 1.399 . S
C851 C850 1.394 . S
C851 C852 1.516 . S
C852 C851 1.516 . S
C852 C853 1.502 . S
C852 C854 1.561 . S
C852 C855 1.526 1_455 S
C853 H837 0.959 . S
C853 H838 0.959 . S
C853 H839 0.961 . S
C853 C852 1.502 . S
C854 H840 0.960 . S
C854 H841 0.961 . S
C854 H842 0.959 . S
C854 C852 1.561 . S
C855 C852 1.526 1_655 S
C855 C856 1.396 . S
C855 C860 1.390 . S
C856 C850 1.465 1_655 S
C856 C855 1.396 . S
C856 C857 1.399 . S
C857 H843 0.929 . S
C857 C856 1.399 . S
C857 C858 1.385 . S
C858 H844 0.931 . S
C858 C857 1.385 . S
C858 C859 1.389 . S
C859 C858 1.389 . S
C859 C860 1.387 . S
C860 H845 0.930 . S
C860 C855 1.390 . S
C860 C859 1.387 . S
H861 C873 0.930 . S
H862 C875 0.930 . S
H863 C876 0.930 . S
H864 C880 0.959 . S
H865 C880 0.959 1_565 S
H866 C880 0.961 . S
H867 C881 0.960 . S
H868 C881 0.961 . S
H869 C881 0.959 . S
H870 C884 0.929 . S
H871 C885 0.931 . S
H872 C887 0.930 . S
C873 H861 0.930 . S
C873 C874 1.399 . S
C873 C878 1.399 . S
C874 C873 1.399 . S
C874 C875 1.376 . S
C875 H862 0.930 . S
C875 C874 1.376 . S
C875 C876 1.388 . S
C876 H863 0.930 . S
C876 C875 1.388 . S
C876 C877 1.390 . S
C877 C876 1.390 . S
C877 C878 1.394 . S
C877 C883 1.465 1_545 S
C878 C873 1.399 . S
C878 C877 1.394 . S
C878 C879 1.516 1_545 S
C879 C878 1.516 1_565 S
C879 C880 1.502 1_565 S
C879 C881 1.561 . S
C879 C882 1.526 . S
C880 H864 0.959 . S
C880 H865 0.959 1_545 S
C880 H866 0.961 . S
C880 C879 1.502 1_545 S
C881 H867 0.960 . S
C881 H868 0.961 . S
C881 H869 0.959 . S
C881 C879 1.561 . S
C882 C879 1.526 . S
C882 C883 1.396 . S
C882 C887 1.390 . S
C883 C877 1.465 1_565 S
C883 C882 1.396 . S
C883 C884 1.399 . S
C884 H870 0.929 . S
C884 C883 1.399 . S
C884 C885 1.385 . S
C885 H871 0.931 . S
C885 C884 1.385 . S
C885 C886 1.389 . S
C886 C885 1.389 . S
C886 C887 1.387 . S
C887 H872 0.930 . S
C887 C882 1.390 . S
C887 C886 1.387 . S
H888 C900 0.930 . S
H889 C902 0.930 . S
H890 C903 0.930 . S
H891 C907 0.959 . S
H892 C907 0.959 . S
H893 C907 0.961 1_554 S
H894 C908 0.960 . S
H895 C908 0.961 . S
H896 C908 0.959 . S
H897 C911 0.929 . S
H898 C912 0.931 . S
H899 C914 0.930 . S
C900 H888 0.930 . S
C900 C901 1.399 . S
C900 C905 1.399 . S
C901 C900 1.399 . S
C901 C902 1.376 . S
C902 H889 0.930 . S
C902 C901 1.376 . S
C902 C903 1.388 . S
C903 H890 0.930 . S
C903 C902 1.388 . S
C903 C904 1.390 . S
C904 C903 1.390 . S
C904 C905 1.394 . S
C904 C910 1.465 1_554 S
C905 C900 1.399 . S
C905 C904 1.394 . S
C905 C906 1.516 . S
C906 C905 1.516 . S
C906 C907 1.502 1_554 S
C906 C908 1.561 . S
C906 C909 1.526 1_554 S
C907 H891 0.959 . S
C907 H892 0.959 . S
C907 H893 0.961 1_556 S
C907 C906 1.502 1_556 S
C908 H894 0.960 . S
C908 H895 0.961 . S
C908 H896 0.959 . S
C908 C906 1.561 . S
C909 C906 1.526 1_556 S
C909 C910 1.396 . S
C909 C914 1.390 . S
C910 C904 1.465 1_556 S
C910 C909 1.396 . S
C910 C911 1.399 . S
C911 H897 0.929 . S
C911 C910 1.399 . S
C911 C912 1.385 . S
C912 H898 0.931 . S
C912 C911 1.385 . S
C912 C913 1.389 . S
C913 C912 1.389 . S
C913 C914 1.387 . S
C914 H899 0.930 . S
C914 C909 1.390 . S
C914 C913 1.387 . S
H915 C927 0.930 . S
H916 C929 0.930 . S
H917 C930 0.930 . S
H918 C934 0.959 . S
H919 C934 0.959 . S
H920 C934 0.961 . S
H921 C935 0.960 . S
H922 C935 0.961 . S
H923 C935 0.959 . S
H924 C938 0.929 1_556 S
H925 C939 0.931 . S
H926 C941 0.930 . S
C927 H915 0.930 . S
C927 C928 1.399 . S
C927 C932 1.399 . S
C928 C927 1.399 . S
C928 C929 1.376 . S
C929 H916 0.930 . S
C929 C928 1.376 . S
C929 C930 1.388 . S
C930 H917 0.930 . S
C930 C929 1.388 . S
C930 C931 1.390 . S
C931 C930 1.390 . S
C931 C932 1.394 . S
C931 C937 1.465 1_556 S
C932 C927 1.399 . S
C932 C931 1.394 . S
C932 C933 1.516 1_556 S
C933 C932 1.516 1_554 S
C933 C934 1.502 . S
C933 C935 1.561 . S
C933 C936 1.526 . S
C934 H918 0.959 . S
C934 H919 0.959 . S
C934 H920 0.961 . S
C934 C933 1.502 . S
C935 H921 0.960 . S
C935 H922 0.961 . S
C935 H923 0.959 . S
C935 C933 1.561 . S
C936 C933 1.526 . S
C936 C937 1.396 . S
C936 C941 1.390 . S
C937 C931 1.465 1_554 S
C937 C936 1.396 . S
C937 C938 1.399 . S
C938 H924 0.929 1_554 S
C938 C937 1.399 . S
C938 C939 1.385 . S
C939 H925 0.931 . S
C939 C938 1.385 . S
C939 C940 1.389 . S
C940 C939 1.389 . S
C940 C941 1.387 . S
C941 H926 0.930 . S
C941 C936 1.390 . S
C941 C940 1.387 . S
H942 C954 0.930 . S
H943 C956 0.930 . S
H944 C957 0.930 1_554 S
H945 C961 0.959 . S
H946 C961 0.959 . S
H947 C961 0.961 . S
H948 C962 0.960 . S
H949 C962 0.961 . S
H950 C962 0.959 . S
H951 C965 0.929 . S
H952 C966 0.931 . S
H953 C968 0.930 . S
C954 H942 0.930 . S
C954 C955 1.399 . S
C954 C959 1.399 . S
C955 C954 1.399 . S
C955 C956 1.376 . S
C956 H943 0.930 . S
C956 C955 1.376 . S
C956 C957 1.388 . S
C957 H944 0.930 1_556 S
C957 C956 1.388 . S
C957 C958 1.390 . S
C958 C957 1.390 . S
C958 C959 1.394 . S
C958 C964 1.465 1_556 S
C959 C954 1.399 . S
C959 C958 1.394 . S
C959 C960 1.516 . S
C960 C959 1.516 . S
C960 C961 1.502 . S
C960 C962 1.561 . S
C960 C963 1.526 1_556 S
C961 H945 0.959 . S
C961 H946 0.959 . S
C961 H947 0.961 . S
C961 C960 1.502 . S
C962 H948 0.960 . S
C962 H949 0.961 . S
C962 H950 0.959 . S
C962 C960 1.561 . S
C963 C960 1.526 1_554 S
C963 C964 1.396 . S
C963 C968 1.390 . S
C964 C958 1.465 1_554 S
C964 C963 1.396 . S
C964 C965 1.399 . S
C965 H951 0.929 . S
C965 C964 1.399 . S
C965 C966 1.385 . S
C966 H952 0.931 . S
C966 C965 1.385 . S
C966 C967 1.389 . S
C967 C966 1.389 . S
C967 C968 1.387 . S
C968 H953 0.930 . S
C968 C963 1.390 . S
C968 C967 1.387 . S
H969 C981 0.930 . S
H970 C983 0.930 . S
H971 C984 0.930 . S
H972 C988 0.959 . S
H973 C988 0.959 . S
H974 C988 0.961 1_556 S
H975 C989 0.960 . S
H976 C989 0.961 . S
H977 C989 0.959 . S
H978 C992 0.929 . S
H979 C993 0.931 . S
H980 C995 0.930 . S
C981 H969 0.930 . S
C981 C982 1.399 . S
C981 C986 1.399 . S
C982 C981 1.399 . S
C982 C983 1.376 . S
C983 H970 0.930 . S
C983 C982 1.376 . S
C983 C984 1.388 . S
C984 H971 0.930 . S
C984 C983 1.388 . S
C984 C985 1.390 . S
C985 C984 1.390 . S
C985 C986 1.394 . S
C985 C991 1.465 1_556 S
C986 C981 1.399 . S
C986 C985 1.394 . S
C986 C987 1.516 . S
C987 C986 1.516 . S
C987 C988 1.502 1_556 S
C987 C989 1.561 . S
C987 C990 1.526 1_556 S
C988 H972 0.959 . S
C988 H973 0.959 . S
C988 H974 0.961 1_554 S
C988 C987 1.502 1_554 S
C989 H975 0.960 . S
C989 H976 0.961 . S
C989 H977 0.959 . S
C989 C987 1.561 . S
C990 C987 1.526 1_554 S
C990 C991 1.396 . S
C990 C995 1.390 . S
C991 C985 1.465 1_554 S
C991 C990 1.396 . S
C991 C992 1.399 . S
C992 H978 0.929 . S
C992 C991 1.399 . S
C992 C993 1.385 . S
C993 H979 0.931 . S
C993 C992 1.385 . S
C993 C994 1.389 . S
C994 C993 1.389 . S
C994 C995 1.387 . S
C995 H980 0.930 . S
C995 C990 1.390 . S
C995 C994 1.387 . S
H996 C1008 0.930 . S
H997 C1010 0.930 . S
H998 C1011 0.930 . S
H999 C1015 0.959 . S
H1000 C1015 0.959 . S
H1001 C1015 0.961 . S
H1002 C1016 0.960 . S
H1003 C1016 0.961 . S
H1004 C1016 0.959 . S
H1005 C1019 0.929 . S
H1006 C1020 0.931 . S
H1007 C1022 0.930 . S
C1008 H996 0.930 . S
C1008 C1009 1.399 . S
C1008 C1013 1.399 . S
C1009 C1008 1.399 . S
C1009 C1010 1.376 . S
C1010 H997 0.930 . S
C1010 C1009 1.376 . S
C1010 C1011 1.388 . S
C1011 H998 0.930 . S
C1011 C1010 1.388 . S
C1011 C1012 1.390 . S
C1012 C1011 1.390 . S
C1012 C1013 1.394 . S
C1012 C1018 1.465 . S
C1013 C1008 1.399 . S
C1013 C1012 1.394 . S
C1013 C1014 1.516 . S
C1014 C1013 1.516 . S
C1014 C1015 1.502 . S
C1014 C1016 1.561 . S
C1014 C1017 1.526 . S
C1015 H999 0.959 . S
C1015 H1000 0.959 . S
C1015 H1001 0.961 . S
C1015 C1014 1.502 . S
C1016 H1002 0.960 . S
C1016 H1003 0.961 . S
C1016 H1004 0.959 . S
C1016 C1014 1.561 . S
C1017 C1014 1.526 . S
C1017 C1018 1.396 . S
C1017 C1022 1.390 . S
C1018 C1012 1.465 . S
C1018 C1017 1.396 . S
C1018 C1019 1.399 . S
C1019 H1005 0.929 . S
C1019 C1018 1.399 . S
C1019 C1020 1.385 . S
C1020 H1006 0.931 . S
C1020 C1019 1.385 . S
C1020 C1021 1.389 . S
C1021 C1020 1.389 . S
C1021 C1022 1.387 . S
C1022 H1007 0.930 . S
C1022 C1017 1.390 . S
C1022 C1021 1.387 . S
H1023 C1035 0.930 . S
H1024 C1037 0.930 . S
H1025 C1038 0.930 . S
H1026 C1042 0.959 . S
H1027 C1042 0.959 . S
H1028 C1042 0.961 . S
H1029 C1043 0.960 . S
H1030 C1043 0.961 . S
H1031 C1043 0.959 . S
H1032 C1046 0.929 . S
H1033 C1047 0.931 . S
H1034 C1049 0.930 . S
C1035 H1023 0.930 . S
C1035 C1036 1.399 . S
C1035 C1040 1.399 . S
C1036 C1035 1.399 . S
C1036 C1037 1.376 . S
C1037 H1024 0.930 . S
C1037 C1036 1.376 . S
C1037 C1038 1.388 . S
C1038 H1025 0.930 . S
C1038 C1037 1.388 . S
C1038 C1039 1.390 . S
C1039 C1038 1.390 . S
C1039 C1040 1.394 . S
C1039 C1045 1.465 . S
C1040 C1035 1.399 . S
C1040 C1039 1.394 . S
C1040 C1041 1.516 . S
C1041 C1040 1.516 . S
C1041 C1042 1.502 . S
C1041 C1043 1.561 . S
C1041 C1044 1.526 . S
C1042 H1026 0.959 . S
C1042 H1027 0.959 . S
C1042 H1028 0.961 . S
C1042 C1041 1.502 . S
C1043 H1029 0.960 . S
C1043 H1030 0.961 . S
C1043 H1031 0.959 . S
C1043 C1041 1.561 . S
C1044 C1041 1.526 . S
C1044 C1045 1.396 . S
C1044 C1049 1.390 . S
C1045 C1039 1.465 . S
C1045 C1044 1.396 . S
C1045 C1046 1.399 . S
C1046 H1032 0.929 . S
C1046 C1045 1.399 . S
C1046 C1047 1.385 . S
C1047 H1033 0.931 . S
C1047 C1046 1.385 . S
C1047 C1048 1.389 . S
C1048 C1047 1.389 . S
C1048 C1049 1.387 . S
C1049 H1034 0.930 . S
C1049 C1044 1.390 . S
C1049 C1048 1.387 . S
H1050 C1062 0.930 . S
H1051 C1064 0.930 . S
H1052 C1065 0.930 . S
H1053 C1069 0.959 . S
H1054 C1069 0.959 . S
H1055 C1069 0.961 . S
H1056 C1070 0.960 . S
H1057 C1070 0.961 . S
H1058 C1070 0.959 . S
H1059 C1073 0.929 . S
H1060 C1074 0.931 . S
H1061 C1076 0.930 . S
C1062 H1050 0.930 . S
C1062 C1063 1.399 . S
C1062 C1067 1.399 . S
C1063 C1062 1.399 . S
C1063 C1064 1.376 . S
C1064 H1051 0.930 . S
C1064 C1063 1.376 . S
C1064 C1065 1.388 . S
C1065 H1052 0.930 . S
C1065 C1064 1.388 . S
C1065 C1066 1.390 . S
C1066 C1065 1.390 . S
C1066 C1067 1.394 . S
C1066 C1072 1.465 . S
C1067 C1062 1.399 . S
C1067 C1066 1.394 . S
C1067 C1068 1.516 . S
C1068 C1067 1.516 . S
C1068 C1069 1.502 . S
C1068 C1070 1.561 . S
C1068 C1071 1.526 . S
C1069 H1053 0.959 . S
C1069 H1054 0.959 . S
C1069 H1055 0.961 . S
C1069 C1068 1.502 . S
C1070 H1056 0.960 . S
C1070 H1057 0.961 . S
C1070 H1058 0.959 . S
C1070 C1068 1.561 . S
C1071 C1068 1.526 . S
C1071 C1072 1.396 . S
C1071 C1076 1.390 . S
C1072 C1066 1.465 . S
C1072 C1071 1.396 . S
C1072 C1073 1.399 . S
C1073 H1059 0.929 . S
C1073 C1072 1.399 . S
C1073 C1074 1.385 . S
C1074 H1060 0.931 . S
C1074 C1073 1.385 . S
C1074 C1075 1.389 . S
C1075 C1074 1.389 . S
C1075 C1076 1.387 . S
C1076 H1061 0.930 . S
C1076 C1071 1.390 . S
C1076 C1075 1.387 . S
H1077 C1089 0.930 . S
H1078 C1091 0.930 . S
H1079 C1092 0.930 . S
H1080 C1096 0.959 . S
H1081 C1096 0.959 . S
H1082 C1096 0.961 . S
H1083 C1097 0.960 . S
H1084 C1097 0.961 . S
H1085 C1097 0.959 . S
H1086 C1100 0.929 . S
H1087 C1101 0.931 . S
H1088 C1103 0.930 . S
C1089 H1077 0.930 . S
C1089 C1090 1.399 . S
C1089 C1094 1.399 . S
C1090 C1089 1.399 . S
C1090 C1091 1.376 . S
C1091 H1078 0.930 . S
C1091 C1090 1.376 . S
C1091 C1092 1.388 . S
C1092 H1079 0.930 . S
C1092 C1091 1.388 . S
C1092 C1093 1.390 . S
C1093 C1092 1.390 . S
C1093 C1094 1.394 . S
C1093 C1099 1.465 . S
C1094 C1089 1.399 . S
C1094 C1093 1.394 . S
C1094 C1095 1.516 . S
C1095 C1094 1.516 . S
C1095 C1096 1.502 . S
C1095 C1097 1.561 . S
C1095 C1098 1.526 . S
C1096 H1080 0.959 . S
C1096 H1081 0.959 . S
C1096 H1082 0.961 . S
C1096 C1095 1.502 . S
C1097 H1083 0.960 . S
C1097 H1084 0.961 . S
C1097 H1085 0.959 . S
C1097 C1095 1.561 . S
C1098 C1095 1.526 . S
C1098 C1099 1.396 . S
C1098 C1103 1.390 . S
C1099 C1093 1.465 . S
C1099 C1098 1.396 . S
C1099 C1100 1.399 . S
C1100 H1086 0.929 . S
C1100 C1099 1.399 . S
C1100 C1101 1.385 . S
C1101 H1087 0.931 . S
C1101 C1100 1.385 . S
C1101 C1102 1.389 . S
C1102 C1101 1.389 . S
C1102 C1103 1.387 . S
C1103 H1088 0.930 . S
C1103 C1098 1.390 . S
C1103 C1102 1.387 . S
H1104 C1116 0.930 . S
H1105 C1118 0.930 . S
H1106 C1119 0.930 . S
H1107 C1123 0.959 . S
H1108 C1123 0.959 . S
H1109 C1123 0.961 . S
H1110 C1124 0.960 . S
H1111 C1124 0.961 . S
H1112 C1124 0.959 . S
H1113 C1127 0.929 . S
H1114 C1128 0.931 . S
H1115 C1130 0.930 . S
C1116 H1104 0.930 . S
C1116 C1117 1.399 . S
C1116 C1121 1.399 . S
C1117 C1116 1.399 . S
C1117 C1118 1.376 . S
C1118 H1105 0.930 . S
C1118 C1117 1.376 . S
C1118 C1119 1.388 . S
C1119 H1106 0.930 . S
C1119 C1118 1.388 . S
C1119 C1120 1.390 . S
C1120 C1119 1.390 . S
C1120 C1121 1.394 . S
C1120 C1126 1.465 . S
C1121 C1116 1.399 . S
C1121 C1120 1.394 . S
C1121 C1122 1.516 . S
C1122 C1121 1.516 . S
C1122 C1123 1.502 . S
C1122 C1124 1.561 . S
C1122 C1125 1.526 . S
C1123 H1107 0.959 . S
C1123 H1108 0.959 . S
C1123 H1109 0.961 . S
C1123 C1122 1.502 . S
C1124 H1110 0.960 . S
C1124 H1111 0.961 . S
C1124 H1112 0.959 . S
C1124 C1122 1.561 . S
C1125 C1122 1.526 . S
C1125 C1126 1.396 . S
C1125 C1130 1.390 . S
C1126 C1120 1.465 . S
C1126 C1125 1.396 . S
C1126 C1127 1.399 . S
C1127 H1113 0.929 . S
C1127 C1126 1.399 . S
C1127 C1128 1.385 . S
C1128 H1114 0.931 . S
C1128 C1127 1.385 . S
C1128 C1129 1.389 . S
C1129 C1128 1.389 . S
C1129 C1130 1.387 . S
C1130 H1115 0.930 . S
C1130 C1125 1.390 . S
C1130 C1129 1.387 . S
H1131 C1143 0.930 . S
H1132 C1145 0.930 . S
H1133 C1146 0.930 . S
H1134 C1150 0.959 . S
H1135 C1150 0.959 . S
H1136 C1150 0.961 . S
H1137 C1151 0.960 . S
H1138 C1151 0.961 . S
H1139 C1151 0.959 . S
H1140 C1154 0.929 . S
H1141 C1155 0.931 . S
H1142 C1157 0.930 . S
C1143 H1131 0.930 . S
C1143 C1144 1.399 . S
C1143 C1148 1.399 . S
C1144 C1143 1.399 . S
C1144 C1145 1.376 . S
C1145 H1132 0.930 . S
C1145 C1144 1.376 . S
C1145 C1146 1.388 . S
C1146 H1133 0.930 . S
C1146 C1145 1.388 . S
C1146 C1147 1.390 . S
C1147 C1146 1.390 . S
C1147 C1148 1.394 . S
C1147 C1153 1.465 . S
C1148 C1143 1.399 . S
C1148 C1147 1.394 . S
C1148 C1149 1.516 . S
C1149 C1148 1.516 . S
C1149 C1150 1.502 . S
C1149 C1151 1.561 . S
C1149 C1152 1.526 . S
C1150 H1134 0.959 . S
C1150 H1135 0.959 . S
C1150 H1136 0.961 . S
C1150 C1149 1.502 . S
C1151 H1137 0.960 . S
C1151 H1138 0.961 . S
C1151 H1139 0.959 . S
C1151 C1149 1.561 . S
C1152 C1149 1.526 . S
C1152 C1153 1.396 . S
C1152 C1157 1.390 . S
C1153 C1147 1.465 . S
C1153 C1152 1.396 . S
C1153 C1154 1.399 . S
C1154 H1140 0.929 . S
C1154 C1153 1.399 . S
C1154 C1155 1.385 . S
C1155 H1141 0.931 . S
C1155 C1154 1.385 . S
C1155 C1156 1.389 . S
C1156 C1155 1.389 . S
C1156 C1157 1.387 . S
C1157 H1142 0.930 . S
C1157 C1152 1.390 . S
C1157 C1156 1.387 . S
H1158 C1170 0.930 . S
H1159 C1172 0.930 . S
H1160 C1173 0.930 . S
H1161 C1177 0.959 . S
H1162 C1177 0.959 . S
H1163 C1177 0.961 . S
H1164 C1178 0.960 . S
H1165 C1178 0.961 . S
H1166 C1178 0.959 . S
H1167 C1181 0.929 . S
H1168 C1182 0.931 . S
H1169 C1184 0.930 . S
C1170 H1158 0.930 . S
C1170 C1171 1.399 . S
C1170 C1175 1.399 . S
C1171 C1170 1.399 . S
C1171 C1172 1.376 . S
C1172 H1159 0.930 . S
C1172 C1171 1.376 . S
C1172 C1173 1.388 . S
C1173 H1160 0.930 . S
C1173 C1172 1.388 . S
C1173 C1174 1.390 . S
C1174 C1173 1.390 . S
C1174 C1175 1.394 . S
C1174 C1180 1.465 . S
C1175 C1170 1.399 . S
C1175 C1174 1.394 . S
C1175 C1176 1.516 . S
C1176 C1175 1.516 . S
C1176 C1177 1.502 . S
C1176 C1178 1.561 . S
C1176 C1179 1.526 . S
C1177 H1161 0.959 . S
C1177 H1162 0.959 . S
C1177 H1163 0.961 . S
C1177 C1176 1.502 . S
C1178 H1164 0.960 . S
C1178 H1165 0.961 . S
C1178 H1166 0.959 . S
C1178 C1176 1.561 . S
C1179 C1176 1.526 . S
C1179 C1180 1.396 . S
C1179 C1184 1.390 . S
C1180 C1174 1.465 . S
C1180 C1179 1.396 . S
C1180 C1181 1.399 . S
C1181 H1167 0.929 . S
C1181 C1180 1.399 . S
C1181 C1182 1.385 . S
C1182 H1168 0.931 . S
C1182 C1181 1.385 . S
C1182 C1183 1.389 . S
C1183 C1182 1.389 . S
C1183 C1184 1.387 . S
C1184 H1169 0.930 . S
C1184 C1179 1.390 . S
C1184 C1183 1.387 . S
H1185 C1197 0.930 . S
H1186 C1199 0.930 . S
H1187 C1200 0.930 . S
H1188 C1204 0.959 . S
H1189 C1204 0.959 . S
H1190 C1204 0.961 . S
H1191 C1205 0.960 . S
H1192 C1205 0.961 . S
H1193 C1205 0.959 . S
H1194 C1208 0.929 . S
H1195 C1209 0.931 . S
H1196 C1211 0.930 . S
C1197 H1185 0.930 . S
C1197 C1198 1.399 . S
C1197 C1202 1.399 . S
C1198 C1197 1.399 . S
C1198 C1199 1.376 . S
C1199 H1186 0.930 . S
C1199 C1198 1.376 . S
C1199 C1200 1.388 . S
C1200 H1187 0.930 . S
C1200 C1199 1.388 . S
C1200 C1201 1.390 . S
C1201 C1200 1.390 . S
C1201 C1202 1.394 . S
C1201 C1207 1.465 . S
C1202 C1197 1.399 . S
C1202 C1201 1.394 . S
C1202 C1203 1.516 . S
C1203 C1202 1.516 . S
C1203 C1204 1.502 . S
C1203 C1205 1.561 . S
C1203 C1206 1.526 . S
C1204 H1188 0.959 . S
C1204 H1189 0.959 . S
C1204 H1190 0.961 . S
C1204 C1203 1.502 . S
C1205 H1191 0.960 . S
C1205 H1192 0.961 . S
C1205 H1193 0.959 . S
C1205 C1203 1.561 . S
C1206 C1203 1.526 . S
C1206 C1207 1.396 . S
C1206 C1211 1.390 . S
C1207 C1201 1.465 . S
C1207 C1206 1.396 . S
C1207 C1208 1.399 . S
C1208 H1194 0.929 . S
C1208 C1207 1.399 . S
C1208 C1209 1.385 . S
C1209 H1195 0.931 . S
C1209 C1208 1.385 . S
C1209 C1210 1.389 . S
C1210 C1209 1.389 . S
C1210 C1211 1.387 . S
C1211 H1196 0.930 . S
C1211 C1206 1.390 . S
C1211 C1210 1.387 . S
H1212 C1224 0.930 . S
H1213 C1226 0.930 . S
H1214 C1227 0.930 . S
H1215 C1231 0.959 . S
H1216 C1231 0.959 . S
H1217 C1231 0.961 . S
H1218 C1232 0.960 . S
H1219 C1232 0.961 . S
H1220 C1232 0.959 . S
H1221 C1235 0.929 . S
H1222 C1236 0.931 . S
H1223 C1238 0.930 . S
C1224 H1212 0.930 . S
C1224 C1225 1.399 . S
C1224 C1229 1.399 . S
C1225 C1224 1.399 . S
C1225 C1226 1.376 . S
C1226 H1213 0.930 . S
C1226 C1225 1.376 . S
C1226 C1227 1.388 . S
C1227 H1214 0.930 . S
C1227 C1226 1.388 . S
C1227 C1228 1.390 . S
C1228 C1227 1.390 . S
C1228 C1229 1.394 . S
C1228 C1234 1.465 . S
C1229 C1224 1.399 . S
C1229 C1228 1.394 . S
C1229 C1230 1.516 . S
C1230 C1229 1.516 . S
C1230 C1231 1.502 . S
C1230 C1232 1.561 . S
C1230 C1233 1.526 . S
C1231 H1215 0.959 . S
C1231 H1216 0.959 . S
C1231 H1217 0.961 . S
C1231 C1230 1.502 . S
C1232 H1218 0.960 . S
C1232 H1219 0.961 . S
C1232 H1220 0.959 . S
C1232 C1230 1.561 . S
C1233 C1230 1.526 . S
C1233 C1234 1.396 . S
C1233 C1238 1.390 . S
C1234 C1228 1.465 . S
C1234 C1233 1.396 . S
C1234 C1235 1.399 . S
C1235 H1221 0.929 . S
C1235 C1234 1.399 . S
C1235 C1236 1.385 . S
C1236 H1222 0.931 . S
C1236 C1235 1.385 . S
C1236 C1237 1.389 . S
C1237 C1236 1.389 . S
C1237 C1238 1.387 . S
C1238 H1223 0.930 . S
C1238 C1233 1.390 . S
C1238 C1237 1.387 . S
H1239 C1251 0.930 . S
H1240 C1253 0.930 . S
H1241 C1254 0.930 . S
H1242 C1258 0.959 . S
H1243 C1258 0.959 . S
H1244 C1258 0.961 . S
H1245 C1259 0.960 . S
H1246 C1259 0.961 . S
H1247 C1259 0.959 . S
H1248 C1262 0.929 . S
H1249 C1263 0.931 . S
H1250 C1265 0.930 . S
C1251 H1239 0.930 . S
C1251 C1252 1.399 . S
C1251 C1256 1.399 . S
C1252 C1251 1.399 . S
C1252 C1253 1.376 . S
C1253 H1240 0.930 . S
C1253 C1252 1.376 . S
C1253 C1254 1.388 . S
C1254 H1241 0.930 . S
C1254 C1253 1.388 . S
C1254 C1255 1.390 . S
C1255 C1254 1.390 . S
C1255 C1256 1.394 . S
C1255 C1261 1.465 . S
C1256 C1251 1.399 . S
C1256 C1255 1.394 . S
C1256 C1257 1.516 . S
C1257 C1256 1.516 . S
C1257 C1258 1.502 . S
C1257 C1259 1.561 . S
C1257 C1260 1.526 . S
C1258 H1242 0.959 . S
C1258 H1243 0.959 . S
C1258 H1244 0.961 . S
C1258 C1257 1.502 . S
C1259 H1245 0.960 . S
C1259 H1246 0.961 . S
C1259 H1247 0.959 . S
C1259 C1257 1.561 . S
C1260 C1257 1.526 . S
C1260 C1261 1.396 . S
C1260 C1265 1.390 . S
C1261 C1255 1.465 . S
C1261 C1260 1.396 . S
C1261 C1262 1.399 . S
C1262 H1248 0.929 . S
C1262 C1261 1.399 . S
C1262 C1263 1.385 . S
C1263 H1249 0.931 . S
C1263 C1262 1.385 . S
C1263 C1264 1.389 . S
C1264 C1263 1.389 . S
C1264 C1265 1.387 . S
C1265 H1250 0.930 . S
C1265 C1260 1.390 . S
C1265 C1264 1.387 . S
H1266 C1278 0.930 . S
H1267 C1280 0.930 . S
H1268 C1281 0.930 . S
H1269 C1285 0.959 . S
H1270 C1285 0.959 . S
H1271 C1285 0.961 . S
H1272 C1286 0.960 . S
H1273 C1286 0.961 . S
H1274 C1286 0.959 . S
H1275 C1289 0.929 . S
H1276 C1290 0.931 . S
H1277 C1292 0.930 . S
C1278 H1266 0.930 . S
C1278 C1279 1.399 . S
C1278 C1283 1.399 . S
C1279 C1278 1.399 . S
C1279 C1280 1.376 . S
C1280 H1267 0.930 . S
C1280 C1279 1.376 . S
C1280 C1281 1.388 . S
C1281 H1268 0.930 . S
C1281 C1280 1.388 . S
C1281 C1282 1.390 . S
C1282 C1281 1.390 . S
C1282 C1283 1.394 . S
C1282 C1288 1.465 . S
C1283 C1278 1.399 . S
C1283 C1282 1.394 . S
C1283 C1284 1.516 . S
C1284 C1283 1.516 . S
C1284 C1285 1.502 . S
C1284 C1286 1.561 . S
C1284 C1287 1.526 . S
C1285 H1269 0.959 . S
C1285 H1270 0.959 . S
C1285 H1271 0.961 . S
C1285 C1284 1.502 . S
C1286 H1272 0.960 . S
C1286 H1273 0.961 . S
C1286 H1274 0.959 . S
C1286 C1284 1.561 . S
C1287 C1284 1.526 . S
C1287 C1288 1.396 . S
C1287 C1292 1.390 . S
C1288 C1282 1.465 . S
C1288 C1287 1.396 . S
C1288 C1289 1.399 . S
C1289 H1275 0.929 . S
C1289 C1288 1.399 . S
C1289 C1290 1.385 . S
C1290 H1276 0.931 . S
C1290 C1289 1.385 . S
C1290 C1291 1.389 . S
C1291 C1290 1.389 . S
C1291 C1292 1.387 . S
C1292 H1277 0.930 . S
C1292 C1287 1.390 . S
C1292 C1291 1.387 . S
H1293 C1305 0.930 . S
H1294 C1307 0.930 . S
H1295 C1308 0.930 . S
H1296 C1312 0.959 . S
H1297 C1312 0.959 . S
H1298 C1312 0.961 . S
H1299 C1313 0.960 . S
H1300 C1313 0.961 . S
H1301 C1313 0.959 . S
H1302 C1316 0.929 . S
H1303 C1317 0.931 . S
H1304 C1319 0.930 . S
C1305 H1293 0.930 . S
C1305 C1306 1.399 . S
C1305 C1310 1.399 . S
C1306 C1305 1.399 . S
C1306 C1307 1.376 . S
C1307 H1294 0.930 . S
C1307 C1306 1.376 . S
C1307 C1308 1.388 . S
C1308 H1295 0.930 . S
C1308 C1307 1.388 . S
C1308 C1309 1.390 . S
C1309 C1308 1.390 . S
C1309 C1310 1.394 . S
C1309 C1315 1.465 . S
C1310 C1305 1.399 . S
C1310 C1309 1.394 . S
C1310 C1311 1.516 . S
C1311 C1310 1.516 . S
C1311 C1312 1.502 . S
C1311 C1313 1.561 . S
C1311 C1314 1.526 . S
C1312 H1296 0.959 . S
C1312 H1297 0.959 . S
C1312 H1298 0.961 . S
C1312 C1311 1.502 . S
C1313 H1299 0.960 . S
C1313 H1300 0.961 . S
C1313 H1301 0.959 . S
C1313 C1311 1.561 . S
C1314 C1311 1.526 . S
C1314 C1315 1.396 . S
C1314 C1319 1.390 . S
C1315 C1309 1.465 . S
C1315 C1314 1.396 . S
C1315 C1316 1.399 . S
C1316 H1302 0.929 . S
C1316 C1315 1.399 . S
C1316 C1317 1.385 . S
C1317 H1303 0.931 . S
C1317 C1316 1.385 . S
C1317 C1318 1.389 . S
C1318 C1317 1.389 . S
C1318 C1319 1.387 . S
C1319 H1304 0.930 . S
C1319 C1314 1.390 . S
C1319 C1318 1.387 . S
H1320 C1332 0.930 . S
H1321 C1334 0.930 . S
H1322 C1335 0.930 . S
H1323 C1339 0.959 . S
H1324 C1339 0.959 . S
H1325 C1339 0.961 . S
H1326 C1340 0.960 . S
H1327 C1340 0.961 . S
H1328 C1340 0.959 . S
H1329 C1343 0.929 . S
H1330 C1344 0.931 . S
H1331 C1346 0.930 . S
C1332 H1320 0.930 . S
C1332 C1333 1.399 . S
C1332 C1337 1.399 . S
C1333 C1332 1.399 . S
C1333 C1334 1.376 . S
C1334 H1321 0.930 . S
C1334 C1333 1.376 . S
C1334 C1335 1.388 . S
C1335 H1322 0.930 . S
C1335 C1334 1.388 . S
C1335 C1336 1.390 . S
C1336 C1335 1.390 . S
C1336 C1337 1.394 . S
C1336 C1342 1.465 . S
C1337 C1332 1.399 . S
C1337 C1336 1.394 . S
C1337 C1338 1.516 . S
C1338 C1337 1.516 . S
C1338 C1339 1.502 . S
C1338 C1340 1.561 . S
C1338 C1341 1.526 . S
C1339 H1323 0.959 . S
C1339 H1324 0.959 . S
C1339 H1325 0.961 . S
C1339 C1338 1.502 . S
C1340 H1326 0.960 . S
C1340 H1327 0.961 . S
C1340 H1328 0.959 . S
C1340 C1338 1.561 . S
C1341 C1338 1.526 . S
C1341 C1342 1.396 . S
C1341 C1346 1.390 . S
C1342 C1336 1.465 . S
C1342 C1341 1.396 . S
C1342 C1343 1.399 . S
C1343 H1329 0.929 . S
C1343 C1342 1.399 . S
C1343 C1344 1.385 . S
C1344 H1330 0.931 . S
C1344 C1343 1.385 . S
C1344 C1345 1.389 . S
C1345 C1344 1.389 . S
C1345 C1346 1.387 . S
C1346 H1331 0.930 . S
C1346 C1341 1.390 . S
C1346 C1345 1.387 . S
H1347 C1359 0.930 . S
H1348 C1361 0.930 . S
H1349 C1362 0.930 . S
H1350 C1366 0.959 . S
H1351 C1366 0.959 . S
H1352 C1366 0.961 . S
H1353 C1367 0.960 . S
H1354 C1367 0.961 . S
H1355 C1367 0.959 . S
H1356 C1370 0.929 . S
H1357 C1371 0.931 . S
H1358 C1373 0.930 . S
C1359 H1347 0.930 . S
C1359 C1360 1.399 . S
C1359 C1364 1.399 . S
C1360 C1359 1.399 . S
C1360 C1361 1.376 . S
C1361 H1348 0.930 . S
C1361 C1360 1.376 . S
C1361 C1362 1.388 . S
C1362 H1349 0.930 . S
C1362 C1361 1.388 . S
C1362 C1363 1.390 . S
C1363 C1362 1.390 . S
C1363 C1364 1.394 . S
C1363 C1369 1.465 . S
C1364 C1359 1.399 . S
C1364 C1363 1.394 . S
C1364 C1365 1.516 . S
C1365 C1364 1.516 . S
C1365 C1366 1.502 . S
C1365 C1367 1.561 . S
C1365 C1368 1.526 . S
C1366 H1350 0.959 . S
C1366 H1351 0.959 . S
C1366 H1352 0.961 . S
C1366 C1365 1.502 . S
C1367 H1353 0.960 . S
C1367 H1354 0.961 . S
C1367 H1355 0.959 . S
C1367 C1365 1.561 . S
C1368 C1365 1.526 . S
C1368 C1369 1.396 . S
C1368 C1373 1.390 . S
C1369 C1363 1.465 . S
C1369 C1368 1.396 . S
C1369 C1370 1.399 . S
C1370 H1356 0.929 . S
C1370 C1369 1.399 . S
C1370 C1371 1.385 . S
C1371 H1357 0.931 . S
C1371 C1370 1.385 . S
C1371 C1372 1.389 . S
C1372 C1371 1.389 . S
C1372 C1373 1.387 . S
C1373 H1358 0.930 . S
C1373 C1368 1.390 . S
C1373 C1372 1.387 . S
H1374 C1386 0.930 . S
H1375 C1388 0.930 . S
H1376 C1389 0.930 . S
H1377 C1393 0.959 . S
H1378 C1393 0.959 . S
H1379 C1393 0.961 . S
H1380 C1394 0.960 . S
H1381 C1394 0.961 . S
H1382 C1394 0.959 . S
H1383 C1397 0.929 . S
H1384 C1398 0.931 . S
H1385 C1400 0.930 . S
C1386 H1374 0.930 . S
C1386 C1387 1.399 . S
C1386 C1391 1.399 . S
C1387 C1386 1.399 . S
C1387 C1388 1.376 . S
C1388 H1375 0.930 . S
C1388 C1387 1.376 . S
C1388 C1389 1.388 . S
C1389 H1376 0.930 . S
C1389 C1388 1.388 . S
C1389 C1390 1.390 . S
C1390 C1389 1.390 . S
C1390 C1391 1.394 . S
C1390 C1396 1.465 . S
C1391 C1386 1.399 . S
C1391 C1390 1.394 . S
C1391 C1392 1.516 . S
C1392 C1391 1.516 . S
C1392 C1393 1.502 . S
C1392 C1394 1.561 . S
C1392 C1395 1.526 . S
C1393 H1377 0.959 . S
C1393 H1378 0.959 . S
C1393 H1379 0.961 . S
C1393 C1392 1.502 . S
C1394 H1380 0.960 . S
C1394 H1381 0.961 . S
C1394 H1382 0.959 . S
C1394 C1392 1.561 . S
C1395 C1392 1.526 . S
C1395 C1396 1.396 . S
C1395 C1400 1.390 . S
C1396 C1390 1.465 . S
C1396 C1395 1.396 . S
C1396 C1397 1.399 . S
C1397 H1383 0.929 . S
C1397 C1396 1.399 . S
C1397 C1398 1.385 . S
C1398 H1384 0.931 . S
C1398 C1397 1.385 . S
C1398 C1399 1.389 . S
C1399 C1398 1.389 . S
C1399 C1400 1.387 . S
C1400 H1385 0.930 . S
C1400 C1395 1.390 . S
C1400 C1399 1.387 . S
H1401 C1413 0.930 . S
H1402 C1415 0.930 . S
H1403 C1416 0.930 . S
H1404 C1420 0.959 . S
H1405 C1420 0.959 . S
H1406 C1420 0.961 . S
H1407 C1421 0.960 . S
H1408 C1421 0.961 . S
H1409 C1421 0.959 . S
H1410 C1424 0.929 . S
H1411 C1425 0.931 . S
H1412 C1427 0.930 . S
C1413 H1401 0.930 . S
C1413 C1414 1.399 . S
C1413 C1418 1.399 . S
C1414 C1413 1.399 . S
C1414 C1415 1.376 . S
C1415 H1402 0.930 . S
C1415 C1414 1.376 . S
C1415 C1416 1.388 . S
C1416 H1403 0.930 . S
C1416 C1415 1.388 . S
C1416 C1417 1.390 . S
C1417 C1416 1.390 . S
C1417 C1418 1.394 . S
C1417 C1423 1.465 . S
C1418 C1413 1.399 . S
C1418 C1417 1.394 . S
C1418 C1419 1.516 . S
C1419 C1418 1.516 . S
C1419 C1420 1.502 . S
C1419 C1421 1.561 . S
C1419 C1422 1.526 . S
C1420 H1404 0.959 . S
C1420 H1405 0.959 . S
C1420 H1406 0.961 . S
C1420 C1419 1.502 . S
C1421 H1407 0.960 . S
C1421 H1408 0.961 . S
C1421 H1409 0.959 . S
C1421 C1419 1.561 . S
C1422 C1419 1.526 . S
C1422 C1423 1.396 . S
C1422 C1427 1.390 . S
C1423 C1417 1.465 . S
C1423 C1422 1.396 . S
C1423 C1424 1.399 . S
C1424 H1410 0.929 . S
C1424 C1423 1.399 . S
C1424 C1425 1.385 . S
C1425 H1411 0.931 . S
C1425 C1424 1.385 . S
C1425 C1426 1.389 . S
C1426 C1425 1.389 . S
C1426 C1427 1.387 . S
C1427 H1412 0.930 . S
C1427 C1422 1.390 . S
C1427 C1426 1.387 . S
H1428 C1440 0.930 . S
H1429 C1442 0.930 . S
H1430 C1443 0.930 . S
H1431 C1447 0.959 . S
H1432 C1447 0.959 . S
H1433 C1447 0.961 . S
H1434 C1448 0.960 . S
H1435 C1448 0.961 . S
H1436 C1448 0.959 . S
H1437 C1451 0.929 . S
H1438 C1452 0.931 . S
H1439 C1454 0.930 . S
C1440 H1428 0.930 . S
C1440 C1441 1.399 . S
C1440 C1445 1.399 . S
C1441 C1440 1.399 . S
C1441 C1442 1.376 . S
C1442 H1429 0.930 . S
C1442 C1441 1.376 . S
C1442 C1443 1.388 . S
C1443 H1430 0.930 . S
C1443 C1442 1.388 . S
C1443 C1444 1.390 . S
C1444 C1443 1.390 . S
C1444 C1445 1.394 . S
C1444 C1450 1.465 . S
C1445 C1440 1.399 . S
C1445 C1444 1.394 . S
C1445 C1446 1.516 . S
C1446 C1445 1.516 . S
C1446 C1447 1.502 . S
C1446 C1448 1.561 . S
C1446 C1449 1.526 . S
C1447 H1431 0.959 . S
C1447 H1432 0.959 . S
C1447 H1433 0.961 . S
C1447 C1446 1.502 . S
C1448 H1434 0.960 . S
C1448 H1435 0.961 . S
C1448 H1436 0.959 . S
C1448 C1446 1.561 . S
C1449 C1446 1.526 . S
C1449 C1450 1.396 . S
C1449 C1454 1.390 . S
C1450 C1444 1.465 . S
C1450 C1449 1.396 . S
C1450 C1451 1.399 . S
C1451 H1437 0.929 . S
C1451 C1450 1.399 . S
C1451 C1452 1.385 . S
C1452 H1438 0.931 . S
C1452 C1451 1.385 . S
C1452 C1453 1.389 . S
C1453 C1452 1.389 . S
C1453 C1454 1.387 . S
C1454 H1439 0.930 . S
C1454 C1449 1.390 . S
C1454 C1453 1.387 . S
H1455 C1467 0.930 . S
H1456 C1469 0.930 . S
H1457 C1470 0.930 . S
H1458 C1474 0.959 . S
H1459 C1474 0.959 . S
H1460 C1474 0.961 . S
H1461 C1475 0.960 . S
H1462 C1475 0.961 . S
H1463 C1475 0.959 . S
H1464 C1478 0.929 . S
H1465 C1479 0.931 . S
H1466 C1481 0.930 . S
C1467 H1455 0.930 . S
C1467 C1468 1.399 . S
C1467 C1472 1.399 . S
C1468 C1467 1.399 . S
C1468 C1469 1.376 . S
C1469 H1456 0.930 . S
C1469 C1468 1.376 . S
C1469 C1470 1.388 . S
C1470 H1457 0.930 . S
C1470 C1469 1.388 . S
C1470 C1471 1.390 . S
C1471 C1470 1.390 . S
C1471 C1472 1.394 . S
C1471 C1477 1.465 . S
C1472 C1467 1.399 . S
C1472 C1471 1.394 . S
C1472 C1473 1.516 . S
C1473 C1472 1.516 . S
C1473 C1474 1.502 . S
C1473 C1475 1.561 . S
C1473 C1476 1.526 . S
C1474 H1458 0.959 . S
C1474 H1459 0.959 . S
C1474 H1460 0.961 . S
C1474 C1473 1.502 . S
C1475 H1461 0.960 . S
C1475 H1462 0.961 . S
C1475 H1463 0.959 . S
C1475 C1473 1.561 . S
C1476 C1473 1.526 . S
C1476 C1477 1.396 . S
C1476 C1481 1.390 . S
C1477 C1471 1.465 . S
C1477 C1476 1.396 . S
C1477 C1478 1.399 . S
C1478 H1464 0.929 . S
C1478 C1477 1.399 . S
C1478 C1479 1.385 . S
C1479 H1465 0.931 . S
C1479 C1478 1.385 . S
C1479 C1480 1.389 . S
C1480 C1479 1.389 . S
C1480 C1481 1.387 . S
C1481 H1466 0.930 . S
C1481 C1476 1.390 . S
C1481 C1480 1.387 . S
H1482 C1494 0.930 . S
H1483 C1496 0.930 . S
H1484 C1497 0.930 . S
H1485 C1501 0.959 . S
H1486 C1501 0.959 . S
H1487 C1501 0.961 . S
H1488 C1502 0.960 . S
H1489 C1502 0.961 . S
H1490 C1502 0.959 . S
H1491 C1505 0.929 . S
H1492 C1506 0.931 . S
H1493 C1508 0.930 . S
C1494 H1482 0.930 . S
C1494 C1495 1.399 . S
C1494 C1499 1.399 . S
C1495 C1494 1.399 . S
C1495 C1496 1.376 . S
C1496 H1483 0.930 . S
C1496 C1495 1.376 . S
C1496 C1497 1.388 . S
C1497 H1484 0.930 . S
C1497 C1496 1.388 . S
C1497 C1498 1.390 . S
C1498 C1497 1.390 . S
C1498 C1499 1.394 . S
C1498 C1504 1.465 . S
C1499 C1494 1.399 . S
C1499 C1498 1.394 . S
C1499 C1500 1.516 . S
C1500 C1499 1.516 . S
C1500 C1501 1.502 . S
C1500 C1502 1.561 . S
C1500 C1503 1.526 . S
C1501 H1485 0.959 . S
C1501 H1486 0.959 . S
C1501 H1487 0.961 . S
C1501 C1500 1.502 . S
C1502 H1488 0.960 . S
C1502 H1489 0.961 . S
C1502 H1490 0.959 . S
C1502 C1500 1.561 . S
C1503 C1500 1.526 . S
C1503 C1504 1.396 . S
C1503 C1508 1.390 . S
C1504 C1498 1.465 . S
C1504 C1503 1.396 . S
C1504 C1505 1.399 . S
C1505 H1491 0.929 . S
C1505 C1504 1.399 . S
C1505 C1506 1.385 . S
C1506 H1492 0.931 . S
C1506 C1505 1.385 . S
C1506 C1507 1.389 . S
C1507 C1506 1.389 . S
C1507 C1508 1.387 . S
C1508 H1493 0.930 . S
C1508 C1503 1.390 . S
C1508 C1507 1.387 . S
H1509 C1521 0.930 . S
H1510 C1523 0.930 . S
H1511 C1524 0.930 . S
H1512 C1528 0.959 . S
H1513 C1528 0.959 . S
H1514 C1528 0.961 . S
H1515 C1529 0.960 . S
H1516 C1529 0.961 . S
H1517 C1529 0.959 . S
H1518 C1532 0.929 . S
H1519 C1533 0.931 . S
H1520 C1535 0.930 . S
C1521 H1509 0.930 . S
C1521 C1522 1.399 . S
C1521 C1526 1.399 . S
C1522 C1521 1.399 . S
C1522 C1523 1.376 . S
C1523 H1510 0.930 . S
C1523 C1522 1.376 . S
C1523 C1524 1.388 . S
C1524 H1511 0.930 . S
C1524 C1523 1.388 . S
C1524 C1525 1.390 . S
C1525 C1524 1.390 . S
C1525 C1526 1.394 . S
C1525 C1531 1.465 . S
C1526 C1521 1.399 . S
C1526 C1525 1.394 . S
C1526 C1527 1.516 . S
C1527 C1526 1.516 . S
C1527 C1528 1.502 . S
C1527 C1529 1.561 . S
C1527 C1530 1.526 . S
C1528 H1512 0.959 . S
C1528 H1513 0.959 . S
C1528 H1514 0.961 . S
C1528 C1527 1.502 . S
C1529 H1515 0.960 . S
C1529 H1516 0.961 . S
C1529 H1517 0.959 . S
C1529 C1527 1.561 . S
C1530 C1527 1.526 . S
C1530 C1531 1.396 . S
C1530 C1535 1.390 . S
C1531 C1525 1.465 . S
C1531 C1530 1.396 . S
C1531 C1532 1.399 . S
C1532 H1518 0.929 . S
C1532 C1531 1.399 . S
C1532 C1533 1.385 . S
C1533 H1519 0.931 . S
C1533 C1532 1.385 . S
C1533 C1534 1.389 . S
C1534 C1533 1.389 . S
C1534 C1535 1.387 . S
C1535 H1520 0.930 . S
C1535 C1530 1.390 . S
C1535 C1534 1.387 . S
H1536 C1548 0.930 . S
H1537 C1550 0.930 . S
H1538 C1551 0.930 . S
H1539 C1555 0.959 . S
H1540 C1555 0.959 . S
H1541 C1555 0.961 . S
H1542 C1556 0.960 . S
H1543 C1556 0.961 . S
H1544 C1556 0.959 . S
H1545 C1559 0.929 . S
H1546 C1560 0.931 . S
H1547 C1562 0.930 . S
C1548 H1536 0.930 . S
C1548 C1549 1.399 . S
C1548 C1553 1.399 . S
C1549 C1548 1.399 . S
C1549 C1550 1.376 . S
C1550 H1537 0.930 . S
C1550 C1549 1.376 . S
C1550 C1551 1.388 . S
C1551 H1538 0.930 . S
C1551 C1550 1.388 . S
C1551 C1552 1.390 . S
C1552 C1551 1.390 . S
C1552 C1553 1.394 . S
C1552 C1558 1.465 . S
C1553 C1548 1.399 . S
C1553 C1552 1.394 . S
C1553 C1554 1.516 . S
C1554 C1553 1.516 . S
C1554 C1555 1.502 . S
C1554 C1556 1.561 . S
C1554 C1557 1.526 . S
C1555 H1539 0.959 . S
C1555 H1540 0.959 . S
C1555 H1541 0.961 . S
C1555 C1554 1.502 . S
C1556 H1542 0.960 . S
C1556 H1543 0.961 . S
C1556 H1544 0.959 . S
C1556 C1554 1.561 . S
C1557 C1554 1.526 . S
C1557 C1558 1.396 . S
C1557 C1562 1.390 . S
C1558 C1552 1.465 . S
C1558 C1557 1.396 . S
C1558 C1559 1.399 . S
C1559 H1545 0.929 . S
C1559 C1558 1.399 . S
C1559 C1560 1.385 . S
C1560 H1546 0.931 . S
C1560 C1559 1.385 . S
C1560 C1561 1.389 . S
C1561 C1560 1.389 . S
C1561 C1562 1.387 . S
C1562 H1547 0.930 . S
C1562 C1557 1.390 . S
C1562 C1561 1.387 . S
H1563 C1575 0.930 . S
H1564 C1577 0.930 . S
H1565 C1578 0.930 . S
H1566 C1582 0.959 . S
H1567 C1582 0.959 . S
H1568 C1582 0.961 . S
H1569 C1583 0.960 . S
H1570 C1583 0.961 . S
H1571 C1583 0.959 . S
H1572 C1586 0.929 . S
H1573 C1587 0.931 . S
H1574 C1589 0.930 . S
C1575 H1563 0.930 . S
C1575 C1576 1.399 . S
C1575 C1580 1.399 . S
C1576 C1575 1.399 . S
C1576 C1577 1.376 . S
C1577 H1564 0.930 . S
C1577 C1576 1.376 . S
C1577 C1578 1.388 . S
C1578 H1565 0.930 . S
C1578 C1577 1.388 . S
C1578 C1579 1.390 . S
C1579 C1578 1.390 . S
C1579 C1580 1.394 . S
C1579 C1585 1.465 . S
C1580 C1575 1.399 . S
C1580 C1579 1.394 . S
C1580 C1581 1.516 . S
C1581 C1580 1.516 . S
C1581 C1582 1.502 . S
C1581 C1583 1.561 . S
C1581 C1584 1.526 . S
C1582 H1566 0.959 . S
C1582 H1567 0.959 . S
C1582 H1568 0.961 . S
C1582 C1581 1.502 . S
C1583 H1569 0.960 . S
C1583 H1570 0.961 . S
C1583 H1571 0.959 . S
C1583 C1581 1.561 . S
C1584 C1581 1.526 . S
C1584 C1585 1.396 . S
C1584 C1589 1.390 . S
C1585 C1579 1.465 . S
C1585 C1584 1.396 . S
C1585 C1586 1.399 . S
C1586 H1572 0.929 . S
C1586 C1585 1.399 . S
C1586 C1587 1.385 . S
C1587 H1573 0.931 . S
C1587 C1586 1.385 . S
C1587 C1588 1.389 . S
C1588 C1587 1.389 . S
C1588 C1589 1.387 . S
C1589 H1574 0.930 . S
C1589 C1584 1.390 . S
C1589 C1588 1.387 . S
H1590 C1602 0.930 . S
H1591 C1604 0.930 . S
H1592 C1605 0.930 . S
H1593 C1609 0.959 . S
H1594 C1609 0.959 . S
H1595 C1609 0.961 . S
H1596 C1610 0.960 . S
H1597 C1610 0.961 . S
H1598 C1610 0.959 . S
H1599 C1613 0.929 . S
H1600 C1614 0.931 . S
H1601 C1616 0.930 . S
C1602 H1590 0.930 . S
C1602 C1603 1.399 . S
C1602 C1607 1.399 . S
C1603 C1602 1.399 . S
C1603 C1604 1.376 . S
C1604 H1591 0.930 . S
C1604 C1603 1.376 . S
C1604 C1605 1.388 . S
C1605 H1592 0.930 . S
C1605 C1604 1.388 . S
C1605 C1606 1.390 . S
C1606 C1605 1.390 . S
C1606 C1607 1.394 . S
C1606 C1612 1.465 . S
C1607 C1602 1.399 . S
C1607 C1606 1.394 . S
C1607 C1608 1.516 . S
C1608 C1607 1.516 . S
C1608 C1609 1.502 . S
C1608 C1610 1.561 . S
C1608 C1611 1.526 . S
C1609 H1593 0.959 . S
C1609 H1594 0.959 . S
C1609 H1595 0.961 . S
C1609 C1608 1.502 . S
C1610 H1596 0.960 . S
C1610 H1597 0.961 . S
C1610 H1598 0.959 . S
C1610 C1608 1.561 . S
C1611 C1608 1.526 . S
C1611 C1612 1.396 . S
C1611 C1616 1.390 . S
C1612 C1606 1.465 . S
C1612 C1611 1.396 . S
C1612 C1613 1.399 . S
C1613 H1599 0.929 . S
C1613 C1612 1.399 . S
C1613 C1614 1.385 . S
C1614 H1600 0.931 . S
C1614 C1613 1.385 . S
C1614 C1615 1.389 . S
C1615 C1614 1.389 . S
C1615 C1616 1.387 . S
C1616 H1601 0.930 . S
C1616 C1611 1.390 . S
C1616 C1615 1.387 . S
H1617 C1629 0.930 . S
H1618 C1631 0.930 . S
H1619 C1632 0.930 . S
H1620 C1636 0.959 . S
H1621 C1636 0.959 . S
H1622 C1636 0.961 . S
H1623 C1637 0.960 . S
H1624 C1637 0.961 . S
H1625 C1637 0.959 . S
H1626 C1640 0.929 . S
H1627 C1641 0.931 . S
H1628 C1643 0.930 . S
C1629 H1617 0.930 . S
C1629 C1630 1.399 . S
C1629 C1634 1.399 . S
C1630 C1629 1.399 . S
C1630 C1631 1.376 . S
C1631 H1618 0.930 . S
C1631 C1630 1.376 . S
C1631 C1632 1.388 . S
C1632 H1619 0.930 . S
C1632 C1631 1.388 . S
C1632 C1633 1.390 . S
C1633 C1632 1.390 . S
C1633 C1634 1.394 . S
C1633 C1639 1.465 . S
C1634 C1629 1.399 . S
C1634 C1633 1.394 . S
C1634 C1635 1.516 . S
C1635 C1634 1.516 . S
C1635 C1636 1.502 . S
C1635 C1637 1.561 . S
C1635 C1638 1.526 . S
C1636 H1620 0.959 . S
C1636 H1621 0.959 . S
C1636 H1622 0.961 . S
C1636 C1635 1.502 . S
C1637 H1623 0.960 . S
C1637 H1624 0.961 . S
C1637 H1625 0.959 . S
C1637 C1635 1.561 . S
C1638 C1635 1.526 . S
C1638 C1639 1.396 . S
C1638 C1643 1.390 . S
C1639 C1633 1.465 . S
C1639 C1638 1.396 . S
C1639 C1640 1.399 . S
C1640 H1626 0.929 . S
C1640 C1639 1.399 . S
C1640 C1641 1.385 . S
C1641 H1627 0.931 . S
C1641 C1640 1.385 . S
C1641 C1642 1.389 . S
C1642 C1641 1.389 . S
C1642 C1643 1.387 . S
C1643 H1628 0.930 . S
C1643 C1638 1.390 . S
C1643 C1642 1.387 . S
H1644 C1656 0.930 . S
H1645 C1658 0.930 . S
H1646 C1659 0.930 . S
H1647 C1663 0.959 . S
H1648 C1663 0.959 . S
H1649 C1663 0.961 . S
H1650 C1664 0.960 . S
H1651 C1664 0.961 . S
H1652 C1664 0.959 . S
H1653 C1667 0.929 . S
H1654 C1668 0.931 . S
H1655 C1670 0.930 . S
C1656 H1644 0.930 . S
C1656 C1657 1.399 . S
C1656 C1661 1.399 . S
C1657 C1656 1.399 . S
C1657 C1658 1.376 . S
C1658 H1645 0.930 . S
C1658 C1657 1.376 . S
C1658 C1659 1.388 . S
C1659 H1646 0.930 . S
C1659 C1658 1.388 . S
C1659 C1660 1.390 . S
C1660 C1659 1.390 . S
C1660 C1661 1.394 . S
C1660 C1666 1.465 . S
C1661 C1656 1.399 . S
C1661 C1660 1.394 . S
C1661 C1662 1.516 . S
C1662 C1661 1.516 . S
C1662 C1663 1.502 . S
C1662 C1664 1.561 . S
C1662 C1665 1.526 . S
C1663 H1647 0.959 . S
C1663 H1648 0.959 . S
C1663 H1649 0.961 . S
C1663 C1662 1.502 . S
C1664 H1650 0.960 . S
C1664 H1651 0.961 . S
C1664 H1652 0.959 . S
C1664 C1662 1.561 . S
C1665 C1662 1.526 . S
C1665 C1666 1.396 . S
C1665 C1670 1.390 . S
C1666 C1660 1.465 . S
C1666 C1665 1.396 . S
C1666 C1667 1.399 . S
C1667 H1653 0.929 . S
C1667 C1666 1.399 . S
C1667 C1668 1.385 . S
C1668 H1654 0.931 . S
C1668 C1667 1.385 . S
C1668 C1669 1.389 . S
C1669 C1668 1.389 . S
C1669 C1670 1.387 . S
C1670 H1655 0.930 . S
C1670 C1665 1.390 . S
C1670 C1669 1.387 . S
H1671 C1683 0.930 . S
H1672 C1685 0.930 . S
H1673 C1686 0.930 . S
H1674 C1690 0.959 . S
H1675 C1690 0.959 . S
H1676 C1690 0.961 . S
H1677 C1691 0.960 . S
H1678 C1691 0.961 . S
H1679 C1691 0.959 . S
H1680 C1694 0.929 . S
H1681 C1695 0.931 . S
H1682 C1697 0.930 . S
C1683 H1671 0.930 . S
C1683 C1684 1.399 . S
C1683 C1688 1.399 . S
C1684 C1683 1.399 . S
C1684 C1685 1.376 . S
C1685 H1672 0.930 . S
C1685 C1684 1.376 . S
C1685 C1686 1.388 . S
C1686 H1673 0.930 . S
C1686 C1685 1.388 . S
C1686 C1687 1.390 . S
C1687 C1686 1.390 . S
C1687 C1688 1.394 . S
C1687 C1693 1.465 . S
C1688 C1683 1.399 . S
C1688 C1687 1.394 . S
C1688 C1689 1.516 . S
C1689 C1688 1.516 . S
C1689 C1690 1.502 . S
C1689 C1691 1.561 . S
C1689 C1692 1.526 . S
C1690 H1674 0.959 . S
C1690 H1675 0.959 . S
C1690 H1676 0.961 . S
C1690 C1689 1.502 . S
C1691 H1677 0.960 . S
C1691 H1678 0.961 . S
C1691 H1679 0.959 . S
C1691 C1689 1.561 . S
C1692 C1689 1.526 . S
C1692 C1693 1.396 . S
C1692 C1697 1.390 . S
C1693 C1687 1.465 . S
C1693 C1692 1.396 . S
C1693 C1694 1.399 . S
C1694 H1680 0.929 . S
C1694 C1693 1.399 . S
C1694 C1695 1.385 . S
C1695 H1681 0.931 . S
C1695 C1694 1.385 . S
C1695 C1696 1.389 . S
C1696 C1695 1.389 . S
C1696 C1697 1.387 . S
C1697 H1682 0.930 . S
C1697 C1692 1.390 . S
C1697 C1696 1.387 . S
H1698 C1710 0.930 . S
H1699 C1712 0.930 . S
H1700 C1713 0.930 . S
H1701 C1717 0.959 . S
H1702 C1717 0.959 . S
H1703 C1717 0.961 . S
H1704 C1718 0.960 . S
H1705 C1718 0.961 . S
H1706 C1718 0.959 . S
H1707 C1721 0.929 . S
H1708 C1722 0.931 . S
H1709 C1724 0.930 . S
C1710 H1698 0.930 . S
C1710 C1711 1.399 . S
C1710 C1715 1.399 . S
C1711 C1710 1.399 . S
C1711 C1712 1.376 . S
C1712 H1699 0.930 . S
C1712 C1711 1.376 . S
C1712 C1713 1.388 . S
C1713 H1700 0.930 . S
C1713 C1712 1.388 . S
C1713 C1714 1.390 . S
C1714 C1713 1.390 . S
C1714 C1715 1.394 . S
C1714 C1720 1.465 . S
C1715 C1710 1.399 . S
C1715 C1714 1.394 . S
C1715 C1716 1.516 . S
C1716 C1715 1.516 . S
C1716 C1717 1.502 . S
C1716 C1718 1.561 . S
C1716 C1719 1.526 . S
C1717 H1701 0.959 . S
C1717 H1702 0.959 . S
C1717 H1703 0.961 . S
C1717 C1716 1.502 . S
C1718 H1704 0.960 . S
C1718 H1705 0.961 . S
C1718 H1706 0.959 . S
C1718 C1716 1.561 . S
C1719 C1716 1.526 . S
C1719 C1720 1.396 . S
C1719 C1724 1.390 . S
C1720 C1714 1.465 . S
C1720 C1719 1.396 . S
C1720 C1721 1.399 . S
C1721 H1707 0.929 . S
C1721 C1720 1.399 . S
C1721 C1722 1.385 . S
C1722 H1708 0.931 . S
C1722 C1721 1.385 . S
C1722 C1723 1.389 . S
C1723 C1722 1.389 . S
C1723 C1724 1.387 . S
C1724 H1709 0.930 . S
C1724 C1719 1.390 . S
C1724 C1723 1.387 . S
H1725 C1737 0.930 . S
H1726 C1739 0.930 . S
H1727 C1740 0.930 . S
H1728 C1744 0.959 . S
H1729 C1744 0.959 . S
H1730 C1744 0.961 . S
H1731 C1745 0.960 . S
H1732 C1745 0.961 . S
H1733 C1745 0.959 . S
H1734 C1748 0.929 . S
H1735 C1749 0.931 . S
H1736 C1751 0.930 . S
C1737 H1725 0.930 . S
C1737 C1738 1.399 . S
C1737 C1742 1.399 . S
C1738 C1737 1.399 . S
C1738 C1739 1.376 . S
C1739 H1726 0.930 . S
C1739 C1738 1.376 . S
C1739 C1740 1.388 . S
C1740 H1727 0.930 . S
C1740 C1739 1.388 . S
C1740 C1741 1.390 . S
C1741 C1740 1.390 . S
C1741 C1742 1.394 . S
C1741 C1747 1.465 . S
C1742 C1737 1.399 . S
C1742 C1741 1.394 . S
C1742 C1743 1.516 . S
C1743 C1742 1.516 . S
C1743 C1744 1.502 . S
C1743 C1745 1.561 . S
C1743 C1746 1.526 . S
C1744 H1728 0.959 . S
C1744 H1729 0.959 . S
C1744 H1730 0.961 . S
C1744 C1743 1.502 . S
C1745 H1731 0.960 . S
C1745 H1732 0.961 . S
C1745 H1733 0.959 . S
C1745 C1743 1.561 . S
C1746 C1743 1.526 . S
C1746 C1747 1.396 . S
C1746 C1751 1.390 . S
C1747 C1741 1.465 . S
C1747 C1746 1.396 . S
C1747 C1748 1.399 . S
C1748 H1734 0.929 . S
C1748 C1747 1.399 . S
C1748 C1749 1.385 . S
C1749 H1735 0.931 . S
C1749 C1748 1.385 . S
C1749 C1750 1.389 . S
C1750 C1749 1.389 . S
C1750 C1751 1.387 . S
C1751 H1736 0.930 . S
C1751 C1746 1.390 . S
C1751 C1750 1.387 . S
H1752 C1764 0.930 . S
H1753 C1766 0.930 . S
H1754 C1767 0.930 . S
H1755 C1771 0.959 . S
H1756 C1771 0.959 . S
H1757 C1771 0.961 . S
H1758 C1772 0.960 . S
H1759 C1772 0.961 . S
H1760 C1772 0.959 . S
H1761 C1775 0.929 . S
H1762 C1776 0.931 . S
H1763 C1778 0.930 . S
C1764 H1752 0.930 . S
C1764 C1765 1.399 . S
C1764 C1769 1.399 . S
C1765 C1764 1.399 . S
C1765 C1766 1.376 . S
C1766 H1753 0.930 . S
C1766 C1765 1.376 . S
C1766 C1767 1.388 . S
C1767 H1754 0.930 . S
C1767 C1766 1.388 . S
C1767 C1768 1.390 . S
C1768 C1767 1.390 . S
C1768 C1769 1.394 . S
C1768 C1774 1.465 . S
C1769 C1764 1.399 . S
C1769 C1768 1.394 . S
C1769 C1770 1.516 . S
C1770 C1769 1.516 . S
C1770 C1771 1.502 . S
C1770 C1772 1.561 . S
C1770 C1773 1.526 . S
C1771 H1755 0.959 . S
C1771 H1756 0.959 . S
C1771 H1757 0.961 . S
C1771 C1770 1.502 . S
C1772 H1758 0.960 . S
C1772 H1759 0.961 . S
C1772 H1760 0.959 . S
C1772 C1770 1.561 . S
C1773 C1770 1.526 . S
C1773 C1774 1.396 . S
C1773 C1778 1.390 . S
C1774 C1768 1.465 . S
C1774 C1773 1.396 . S
C1774 C1775 1.399 . S
C1775 H1761 0.929 . S
C1775 C1774 1.399 . S
C1775 C1776 1.385 . S
C1776 H1762 0.931 . S
C1776 C1775 1.385 . S
C1776 C1777 1.389 . S
C1777 C1776 1.389 . S
C1777 C1778 1.387 . S
C1778 H1763 0.930 . S
C1778 C1773 1.390 . S
C1778 C1777 1.387 . S
H1779 C1791 0.930 . S
H1780 C1793 0.930 . S
H1781 C1794 0.930 . S
H1782 C1798 0.959 . S
H1783 C1798 0.959 . S
H1784 C1798 0.961 . S
H1785 C1799 0.960 . S
H1786 C1799 0.961 . S
H1787 C1799 0.959 . S
H1788 C1802 0.929 . S
H1789 C1803 0.931 . S
H1790 C1805 0.930 . S
C1791 H1779 0.930 . S
C1791 C1792 1.399 . S
C1791 C1796 1.399 . S
C1792 C1791 1.399 . S
C1792 C1793 1.376 . S
C1793 H1780 0.930 . S
C1793 C1792 1.376 . S
C1793 C1794 1.388 . S
C1794 H1781 0.930 . S
C1794 C1793 1.388 . S
C1794 C1795 1.390 . S
C1795 C1794 1.390 . S
C1795 C1796 1.394 . S
C1795 C1801 1.465 . S
C1796 C1791 1.399 . S
C1796 C1795 1.394 . S
C1796 C1797 1.516 . S
C1797 C1796 1.516 . S
C1797 C1798 1.502 . S
C1797 C1799 1.561 . S
C1797 C1800 1.526 . S
C1798 H1782 0.959 . S
C1798 H1783 0.959 . S
C1798 H1784 0.961 . S
C1798 C1797 1.502 . S
C1799 H1785 0.960 . S
C1799 H1786 0.961 . S
C1799 H1787 0.959 . S
C1799 C1797 1.561 . S
C1800 C1797 1.526 . S
C1800 C1801 1.396 . S
C1800 C1805 1.390 . S
C1801 C1795 1.465 . S
C1801 C1800 1.396 . S
C1801 C1802 1.399 . S
C1802 H1788 0.929 . S
C1802 C1801 1.399 . S
C1802 C1803 1.385 . S
C1803 H1789 0.931 . S
C1803 C1802 1.385 . S
C1803 C1804 1.389 . S
C1804 C1803 1.389 . S
C1804 C1805 1.387 . S
C1805 H1790 0.930 . S
C1805 C1800 1.390 . S
C1805 C1804 1.387 . S
H1806 C1818 0.930 . S
H1807 C1820 0.930 . S
H1808 C1821 0.930 . S
H1809 C1825 0.959 . S
H1810 C1825 0.959 . S
H1811 C1825 0.961 . S
H1812 C1826 0.960 . S
H1813 C1826 0.961 . S
H1814 C1826 0.959 . S
H1815 C1829 0.929 . S
H1816 C1830 0.931 . S
H1817 C1832 0.930 . S
C1818 H1806 0.930 . S
C1818 C1819 1.399 . S
C1818 C1823 1.399 . S
C1819 C1818 1.399 . S
C1819 C1820 1.376 . S
C1820 H1807 0.930 . S
C1820 C1819 1.376 . S
C1820 C1821 1.388 . S
C1821 H1808 0.930 . S
C1821 C1820 1.388 . S
C1821 C1822 1.390 . S
C1822 C1821 1.390 . S
C1822 C1823 1.394 . S
C1822 C1828 1.465 . S
C1823 C1818 1.399 . S
C1823 C1822 1.394 . S
C1823 C1824 1.516 . S
C1824 C1823 1.516 . S
C1824 C1825 1.502 . S
C1824 C1826 1.561 . S
C1824 C1827 1.526 . S
C1825 H1809 0.959 . S
C1825 H1810 0.959 . S
C1825 H1811 0.961 . S
C1825 C1824 1.502 . S
C1826 H1812 0.960 . S
C1826 H1813 0.961 . S
C1826 H1814 0.959 . S
C1826 C1824 1.561 . S
C1827 C1824 1.526 . S
C1827 C1828 1.396 . S
C1827 C1832 1.390 . S
C1828 C1822 1.465 . S
C1828 C1827 1.396 . S
C1828 C1829 1.399 . S
C1829 H1815 0.929 . S
C1829 C1828 1.399 . S
C1829 C1830 1.385 . S
C1830 H1816 0.931 . S
C1830 C1829 1.385 . S
C1830 C1831 1.389 . S
C1831 C1830 1.389 . S
C1831 C1832 1.387 . S
C1832 H1817 0.930 . S
C1832 C1827 1.390 . S
C1832 C1831 1.387 . S
H1833 C1845 0.930 . S
H1834 C1847 0.930 . S
H1835 C1848 0.930 . S
H1836 C1852 0.959 . S
H1837 C1852 0.959 . S
H1838 C1852 0.961 . S
H1839 C1853 0.960 . S
H1840 C1853 0.961 . S
H1841 C1853 0.959 . S
H1842 C1856 0.929 . S
H1843 C1857 0.931 . S
H1844 C1859 0.930 . S
C1845 H1833 0.930 . S
C1845 C1846 1.399 . S
C1845 C1850 1.399 . S
C1846 C1845 1.399 . S
C1846 C1847 1.376 . S
C1847 H1834 0.930 . S
C1847 C1846 1.376 . S
C1847 C1848 1.388 . S
C1848 H1835 0.930 . S
C1848 C1847 1.388 . S
C1848 C1849 1.390 . S
C1849 C1848 1.390 . S
C1849 C1850 1.394 . S
C1849 C1855 1.465 . S
C1850 C1845 1.399 . S
C1850 C1849 1.394 . S
C1850 C1851 1.516 . S
C1851 C1850 1.516 . S
C1851 C1852 1.502 . S
C1851 C1853 1.561 . S
C1851 C1854 1.526 . S
C1852 H1836 0.959 . S
C1852 H1837 0.959 . S
C1852 H1838 0.961 . S
C1852 C1851 1.502 . S
C1853 H1839 0.960 . S
C1853 H1840 0.961 . S
C1853 H1841 0.959 . S
C1853 C1851 1.561 . S
C1854 C1851 1.526 . S
C1854 C1855 1.396 . S
C1854 C1859 1.390 . S
C1855 C1849 1.465 . S
C1855 C1854 1.396 . S
C1855 C1856 1.399 . S
C1856 H1842 0.929 . S
C1856 C1855 1.399 . S
C1856 C1857 1.385 . S
C1857 H1843 0.931 . S
C1857 C1856 1.385 . S
C1857 C1858 1.389 . S
C1858 C1857 1.389 . S
C1858 C1859 1.387 . S
C1859 H1844 0.930 . S
C1859 C1854 1.390 . S
C1859 C1858 1.387 . S
H1860 C1872 0.930 . S
H1861 C1874 0.930 . S
H1862 C1875 0.930 . S
H1863 C1879 0.959 . S
H1864 C1879 0.959 . S
H1865 C1879 0.961 . S
H1866 C1880 0.960 . S
H1867 C1880 0.961 . S
H1868 C1880 0.959 . S
H1869 C1883 0.929 . S
H1870 C1884 0.931 . S
H1871 C1886 0.930 . S
C1872 H1860 0.930 . S
C1872 C1873 1.399 . S
C1872 C1877 1.399 . S
C1873 C1872 1.399 . S
C1873 C1874 1.376 . S
C1874 H1861 0.930 . S
C1874 C1873 1.376 . S
C1874 C1875 1.388 . S
C1875 H1862 0.930 . S
C1875 C1874 1.388 . S
C1875 C1876 1.390 . S
C1876 C1875 1.390 . S
C1876 C1877 1.394 . S
C1876 C1882 1.465 . S
C1877 C1872 1.399 . S
C1877 C1876 1.394 . S
C1877 C1878 1.516 . S
C1878 C1877 1.516 . S
C1878 C1879 1.502 . S
C1878 C1880 1.561 . S
C1878 C1881 1.526 . S
C1879 H1863 0.959 . S
C1879 H1864 0.959 . S
C1879 H1865 0.961 . S
C1879 C1878 1.502 . S
C1880 H1866 0.960 . S
C1880 H1867 0.961 . S
C1880 H1868 0.959 . S
C1880 C1878 1.561 . S
C1881 C1878 1.526 . S
C1881 C1882 1.396 . S
C1881 C1886 1.390 . S
C1882 C1876 1.465 . S
C1882 C1881 1.396 . S
C1882 C1883 1.399 . S
C1883 H1869 0.929 . S
C1883 C1882 1.399 . S
C1883 C1884 1.385 . S
C1884 H1870 0.931 . S
C1884 C1883 1.385 . S
C1884 C1885 1.389 . S
C1885 C1884 1.389 . S
C1885 C1886 1.387 . S
C1886 H1871 0.930 . S
C1886 C1881 1.390 . S
C1886 C1885 1.387 . S
H1887 C1899 0.930 . S
H1888 C1901 0.930 . S
H1889 C1902 0.930 . S
H1890 C1906 0.959 . S
H1891 C1906 0.959 . S
H1892 C1906 0.961 . S
H1893 C1907 0.960 . S
H1894 C1907 0.961 . S
H1895 C1907 0.959 . S
H1896 C1910 0.929 . S
H1897 C1911 0.931 . S
H1898 C1913 0.930 . S
C1899 H1887 0.930 . S
C1899 C1900 1.399 . S
C1899 C1904 1.399 . S
C1900 C1899 1.399 . S
C1900 C1901 1.376 . S
C1901 H1888 0.930 . S
C1901 C1900 1.376 . S
C1901 C1902 1.388 . S
C1902 H1889 0.930 . S
C1902 C1901 1.388 . S
C1902 C1903 1.390 . S
C1903 C1902 1.390 . S
C1903 C1904 1.394 . S
C1903 C1909 1.465 . S
C1904 C1899 1.399 . S
C1904 C1903 1.394 . S
C1904 C1905 1.516 . S
C1905 C1904 1.516 . S
C1905 C1906 1.502 . S
C1905 C1907 1.561 . S
C1905 C1908 1.526 . S
C1906 H1890 0.959 . S
C1906 H1891 0.959 . S
C1906 H1892 0.961 . S
C1906 C1905 1.502 . S
C1907 H1893 0.960 . S
C1907 H1894 0.961 . S
C1907 H1895 0.959 . S
C1907 C1905 1.561 . S
C1908 C1905 1.526 . S
C1908 C1909 1.396 . S
C1908 C1913 1.390 . S
C1909 C1903 1.465 . S
C1909 C1908 1.396 . S
C1909 C1910 1.399 . S
C1910 H1896 0.929 . S
C1910 C1909 1.399 . S
C1910 C1911 1.385 . S
C1911 H1897 0.931 . S
C1911 C1910 1.385 . S
C1911 C1912 1.389 . S
C1912 C1911 1.389 . S
C1912 C1913 1.387 . S
C1913 H1898 0.930 . S
C1913 C1908 1.390 . S
C1913 C1912 1.387 . S
H1914 C1926 0.930 . S
H1915 C1928 0.930 . S
H1916 C1929 0.930 . S
H1917 C1933 0.959 . S
H1918 C1933 0.959 . S
H1919 C1933 0.961 . S
H1920 C1934 0.960 . S
H1921 C1934 0.961 . S
H1922 C1934 0.959 . S
H1923 C1937 0.929 . S
H1924 C1938 0.931 . S
H1925 C1940 0.930 . S
C1926 H1914 0.930 . S
C1926 C1927 1.399 . S
C1926 C1931 1.399 . S
C1927 C1926 1.399 . S
C1927 C1928 1.376 . S
C1928 H1915 0.930 . S
C1928 C1927 1.376 . S
C1928 C1929 1.388 . S
C1929 H1916 0.930 . S
C1929 C1928 1.388 . S
C1929 C1930 1.390 . S
C1930 C1929 1.390 . S
C1930 C1931 1.394 . S
C1930 C1936 1.465 . S
C1931 C1926 1.399 . S
C1931 C1930 1.394 . S
C1931 C1932 1.516 . S
C1932 C1931 1.516 . S
C1932 C1933 1.502 . S
C1932 C1934 1.561 . S
C1932 C1935 1.526 . S
C1933 H1917 0.959 . S
C1933 H1918 0.959 . S
C1933 H1919 0.961 . S
C1933 C1932 1.502 . S
C1934 H1920 0.960 . S
C1934 H1921 0.961 . S
C1934 H1922 0.959 . S
C1934 C1932 1.561 . S
C1935 C1932 1.526 . S
C1935 C1936 1.396 . S
C1935 C1940 1.390 . S
C1936 C1930 1.465 . S
C1936 C1935 1.396 . S
C1936 C1937 1.399 . S
C1937 H1923 0.929 . S
C1937 C1936 1.399 . S
C1937 C1938 1.385 . S
C1938 H1924 0.931 . S
C1938 C1937 1.385 . S
C1938 C1939 1.389 . S
C1939 C1938 1.389 . S
C1939 C1940 1.387 . S
C1940 H1925 0.930 . S
C1940 C1935 1.390 . S
C1940 C1939 1.387 . S
H1941 C1953 0.930 . S
H1942 C1955 0.930 . S
H1943 C1956 0.930 . S
H1944 C1960 0.959 . S
H1945 C1960 0.959 . S
H1946 C1960 0.961 . S
H1947 C1961 0.960 . S
H1948 C1961 0.961 . S
H1949 C1961 0.959 . S
H1950 C1964 0.929 . S
H1951 C1965 0.931 . S
H1952 C1967 0.930 . S
C1953 H1941 0.930 . S
C1953 C1954 1.399 . S
C1953 C1958 1.399 . S
C1954 C1953 1.399 . S
C1954 C1955 1.376 . S
C1955 H1942 0.930 . S
C1955 C1954 1.376 . S
C1955 C1956 1.388 . S
C1956 H1943 0.930 . S
C1956 C1955 1.388 . S
C1956 C1957 1.390 . S
C1957 C1956 1.390 . S
C1957 C1958 1.394 . S
C1957 C1963 1.465 . S
C1958 C1953 1.399 . S
C1958 C1957 1.394 . S
C1958 C1959 1.516 . S
C1959 C1958 1.516 . S
C1959 C1960 1.502 . S
C1959 C1961 1.561 . S
C1959 C1962 1.526 . S
C1960 H1944 0.959 . S
C1960 H1945 0.959 . S
C1960 H1946 0.961 . S
C1960 C1959 1.502 . S
C1961 H1947 0.960 . S
C1961 H1948 0.961 . S
C1961 H1949 0.959 . S
C1961 C1959 1.561 . S
C1962 C1959 1.526 . S
C1962 C1963 1.396 . S
C1962 C1967 1.390 . S
C1963 C1957 1.465 . S
C1963 C1962 1.396 . S
C1963 C1964 1.399 . S
C1964 H1950 0.929 . S
C1964 C1963 1.399 . S
C1964 C1965 1.385 . S
C1965 H1951 0.931 . S
C1965 C1964 1.385 . S
C1965 C1966 1.389 . S
C1966 C1965 1.389 . S
C1966 C1967 1.387 . S
C1967 H1952 0.930 . S
C1967 C1962 1.390 . S
C1967 C1966 1.387 . S
H1968 C1980 0.930 . S
H1969 C1982 0.930 . S
H1970 C1983 0.930 . S
H1971 C1987 0.959 . S
H1972 C1987 0.959 . S
H1973 C1987 0.961 . S
H1974 C1988 0.960 . S
H1975 C1988 0.961 . S
H1976 C1988 0.959 . S
H1977 C1991 0.929 . S
H1978 C1992 0.931 . S
H1979 C1994 0.930 . S
C1980 H1968 0.930 . S
C1980 C1981 1.399 . S
C1980 C1985 1.399 . S
C1981 C1980 1.399 . S
C1981 C1982 1.376 . S
C1982 H1969 0.930 . S
C1982 C1981 1.376 . S
C1982 C1983 1.388 . S
C1983 H1970 0.930 . S
C1983 C1982 1.388 . S
C1983 C1984 1.390 . S
C1984 C1983 1.390 . S
C1984 C1985 1.394 . S
C1984 C1990 1.465 . S
C1985 C1980 1.399 . S
C1985 C1984 1.394 . S
C1985 C1986 1.516 . S
C1986 C1985 1.516 . S
C1986 C1987 1.502 . S
C1986 C1988 1.561 . S
C1986 C1989 1.526 . S
C1987 H1971 0.959 . S
C1987 H1972 0.959 . S
C1987 H1973 0.961 . S
C1987 C1986 1.502 . S
C1988 H1974 0.960 . S
C1988 H1975 0.961 . S
C1988 H1976 0.959 . S
C1988 C1986 1.561 . S
C1989 C1986 1.526 . S
C1989 C1990 1.396 . S
C1989 C1994 1.390 . S
C1990 C1984 1.465 . S
C1990 C1989 1.396 . S
C1990 C1991 1.399 . S
C1991 H1977 0.929 . S
C1991 C1990 1.399 . S
C1991 C1992 1.385 . S
C1992 H1978 0.931 . S
C1992 C1991 1.385 . S
C1992 C1993 1.389 . S
C1993 C1992 1.389 . S
C1993 C1994 1.387 . S
C1994 H1979 0.930 . S
C1994 C1989 1.390 . S
C1994 C1993 1.387 . S
H1995 C2007 0.930 . S
H1996 C2009 0.930 . S
H1997 C2010 0.930 . S
H1998 C2014 0.959 . S
H1999 C2014 0.959 . S
H2000 C2014 0.961 . S
H2001 C2015 0.960 . S
H2002 C2015 0.961 . S
H2003 C2015 0.959 . S
H2004 C2018 0.929 . S
H2005 C2019 0.931 . S
H2006 C2021 0.930 . S
C2007 H1995 0.930 . S
C2007 C2008 1.399 . S
C2007 C2012 1.399 . S
C2008 C2007 1.399 . S
C2008 C2009 1.376 . S
C2009 H1996 0.930 . S
C2009 C2008 1.376 . S
C2009 C2010 1.388 . S
C2010 H1997 0.930 . S
C2010 C2009 1.388 . S
C2010 C2011 1.390 . S
C2011 C2010 1.390 . S
C2011 C2012 1.394 . S
C2011 C2017 1.465 . S
C2012 C2007 1.399 . S
C2012 C2011 1.394 . S
C2012 C2013 1.516 . S
C2013 C2012 1.516 . S
C2013 C2014 1.502 . S
C2013 C2015 1.561 . S
C2013 C2016 1.526 . S
C2014 H1998 0.959 . S
C2014 H1999 0.959 . S
C2014 H2000 0.961 . S
C2014 C2013 1.502 . S
C2015 H2001 0.960 . S
C2015 H2002 0.961 . S
C2015 H2003 0.959 . S
C2015 C2013 1.561 . S
C2016 C2013 1.526 . S
C2016 C2017 1.396 . S
C2016 C2021 1.390 . S
C2017 C2011 1.465 . S
C2017 C2016 1.396 . S
C2017 C2018 1.399 . S
C2018 H2004 0.929 . S
C2018 C2017 1.399 . S
C2018 C2019 1.385 . S
C2019 H2005 0.931 . S
C2019 C2018 1.385 . S
C2019 C2020 1.389 . S
C2020 C2019 1.389 . S
C2020 C2021 1.387 . S
C2021 H2006 0.930 . S
C2021 C2016 1.390 . S
C2021 C2020 1.387 . S
H2022 C2034 0.930 . S
H2023 C2036 0.930 . S
H2024 C2037 0.930 . S
H2025 C2041 0.959 . S
H2026 C2041 0.959 . S
H2027 C2041 0.961 . S
H2028 C2042 0.960 . S
H2029 C2042 0.961 . S
H2030 C2042 0.959 . S
H2031 C2045 0.929 . S
H2032 C2046 0.931 . S
H2033 C2048 0.930 . S
C2034 H2022 0.930 . S
C2034 C2035 1.399 . S
C2034 C2039 1.399 . S
C2035 C2034 1.399 . S
C2035 C2036 1.376 . S
C2036 H2023 0.930 . S
C2036 C2035 1.376 . S
C2036 C2037 1.388 . S
C2037 H2024 0.930 . S
C2037 C2036 1.388 . S
C2037 C2038 1.390 . S
C2038 C2037 1.390 . S
C2038 C2039 1.394 . S
C2038 C2044 1.465 . S
C2039 C2034 1.399 . S
C2039 C2038 1.394 . S
C2039 C2040 1.516 . S
C2040 C2039 1.516 . S
C2040 C2041 1.502 . S
C2040 C2042 1.561 . S
C2040 C2043 1.526 . S
C2041 H2025 0.959 . S
C2041 H2026 0.959 . S
C2041 H2027 0.961 . S
C2041 C2040 1.502 . S
C2042 H2028 0.960 . S
C2042 H2029 0.961 . S
C2042 H2030 0.959 . S
C2042 C2040 1.561 . S
C2043 C2040 1.526 . S
C2043 C2044 1.396 . S
C2043 C2048 1.390 . S
C2044 C2038 1.465 . S
C2044 C2043 1.396 . S
C2044 C2045 1.399 . S
C2045 H2031 0.929 . S
C2045 C2044 1.399 . S
C2045 C2046 1.385 . S
C2046 H2032 0.931 . S
C2046 C2045 1.385 . S
C2046 C2047 1.389 . S
C2047 C2046 1.389 . S
C2047 C2048 1.387 . S
C2048 H2033 0.930 . S
C2048 C2043 1.390 . S
C2048 C2047 1.387 . S
H2049 C2061 0.930 . S
H2050 C2063 0.930 . S
H2051 C2064 0.930 . S
H2052 C2068 0.959 . S
H2053 C2068 0.959 . S
H2054 C2068 0.961 . S
H2055 C2069 0.960 . S
H2056 C2069 0.961 . S
H2057 C2069 0.959 . S
H2058 C2072 0.929 . S
H2059 C2073 0.931 . S
H2060 C2075 0.930 . S
C2061 H2049 0.930 . S
C2061 C2062 1.399 . S
C2061 C2066 1.399 . S
C2062 C2061 1.399 . S
C2062 C2063 1.376 . S
C2063 H2050 0.930 . S
C2063 C2062 1.376 . S
C2063 C2064 1.388 . S
C2064 H2051 0.930 . S
C2064 C2063 1.388 . S
C2064 C2065 1.390 . S
C2065 C2064 1.390 . S
C2065 C2066 1.394 . S
C2065 C2071 1.465 . S
C2066 C2061 1.399 . S
C2066 C2065 1.394 . S
C2066 C2067 1.516 . S
C2067 C2066 1.516 . S
C2067 C2068 1.502 . S
C2067 C2069 1.561 . S
C2067 C2070 1.526 . S
C2068 H2052 0.959 . S
C2068 H2053 0.959 . S
C2068 H2054 0.961 . S
C2068 C2067 1.502 . S
C2069 H2055 0.960 . S
C2069 H2056 0.961 . S
C2069 H2057 0.959 . S
C2069 C2067 1.561 . S
C2070 C2067 1.526 . S
C2070 C2071 1.396 . S
C2070 C2075 1.390 . S
C2071 C2065 1.465 . S
C2071 C2070 1.396 . S
C2071 C2072 1.399 . S
C2072 H2058 0.929 . S
C2072 C2071 1.399 . S
C2072 C2073 1.385 . S
C2073 H2059 0.931 . S
C2073 C2072 1.385 . S
C2073 C2074 1.389 . S
C2074 C2073 1.389 . S
C2074 C2075 1.387 . S
C2075 H2060 0.930 . S
C2075 C2070 1.390 . S
C2075 C2074 1.387 . S
H2076 C2088 0.930 . S
H2077 C2090 0.930 . S
H2078 C2091 0.930 . S
H2079 C2095 0.959 . S
H2080 C2095 0.959 . S
H2081 C2095 0.961 . S
H2082 C2096 0.960 . S
H2083 C2096 0.961 . S
H2084 C2096 0.959 . S
H2085 C2099 0.929 . S
H2086 C2100 0.931 . S
H2087 C2102 0.930 . S
C2088 H2076 0.930 . S
C2088 C2089 1.399 . S
C2088 C2093 1.399 . S
C2089 C2088 1.399 . S
C2089 C2090 1.376 . S
C2090 H2077 0.930 . S
C2090 C2089 1.376 . S
C2090 C2091 1.388 . S
C2091 H2078 0.930 . S
C2091 C2090 1.388 . S
C2091 C2092 1.390 . S
C2092 C2091 1.390 . S
C2092 C2093 1.394 . S
C2092 C2098 1.465 . S
C2093 C2088 1.399 . S
C2093 C2092 1.394 . S
C2093 C2094 1.516 . S
C2094 C2093 1.516 . S
C2094 C2095 1.502 . S
C2094 C2096 1.561 . S
C2094 C2097 1.526 . S
C2095 H2079 0.959 . S
C2095 H2080 0.959 . S
C2095 H2081 0.961 . S
C2095 C2094 1.502 . S
C2096 H2082 0.960 . S
C2096 H2083 0.961 . S
C2096 H2084 0.959 . S
C2096 C2094 1.561 . S
C2097 C2094 1.526 . S
C2097 C2098 1.396 . S
C2097 C2102 1.390 . S
C2098 C2092 1.465 . S
C2098 C2097 1.396 . S
C2098 C2099 1.399 . S
C2099 H2085 0.929 . S
C2099 C2098 1.399 . S
C2099 C2100 1.385 . S
C2100 H2086 0.931 . S
C2100 C2099 1.385 . S
C2100 C2101 1.389 . S
C2101 C2100 1.389 . S
C2101 C2102 1.387 . S
C2102 H2087 0.930 . S
C2102 C2097 1.390 . S
C2102 C2101 1.387 . S
H2103 C2115 0.930 . S
H2104 C2117 0.930 . S
H2105 C2118 0.930 . S
H2106 C2122 0.959 . S
H2107 C2122 0.959 . S
H2108 C2122 0.961 . S
H2109 C2123 0.960 . S
H2110 C2123 0.961 . S
H2111 C2123 0.959 . S
H2112 C2126 0.929 . S
H2113 C2127 0.931 . S
H2114 C2129 0.930 . S
C2115 H2103 0.930 . S
C2115 C2116 1.399 . S
C2115 C2120 1.399 . S
C2116 C2115 1.399 . S
C2116 C2117 1.376 . S
C2117 H2104 0.930 . S
C2117 C2116 1.376 . S
C2117 C2118 1.388 . S
C2118 H2105 0.930 . S
C2118 C2117 1.388 . S
C2118 C2119 1.390 . S
C2119 C2118 1.390 . S
C2119 C2120 1.394 . S
C2119 C2125 1.465 . S
C2120 C2115 1.399 . S
C2120 C2119 1.394 . S
C2120 C2121 1.516 . S
C2121 C2120 1.516 . S
C2121 C2122 1.502 . S
C2121 C2123 1.561 . S
C2121 C2124 1.526 . S
C2122 H2106 0.959 . S
C2122 H2107 0.959 . S
C2122 H2108 0.961 . S
C2122 C2121 1.502 . S
C2123 H2109 0.960 . S
C2123 H2110 0.961 . S
C2123 H2111 0.959 . S
C2123 C2121 1.561 . S
C2124 C2121 1.526 . S
C2124 C2125 1.396 . S
C2124 C2129 1.390 . S
C2125 C2119 1.465 . S
C2125 C2124 1.396 . S
C2125 C2126 1.399 . S
C2126 H2112 0.929 . S
C2126 C2125 1.399 . S
C2126 C2127 1.385 . S
C2127 H2113 0.931 . S
C2127 C2126 1.385 . S
C2127 C2128 1.389 . S
C2128 C2127 1.389 . S
C2128 C2129 1.387 . S
C2129 H2114 0.930 . S
C2129 C2124 1.390 . S
C2129 C2128 1.387 . S
H2130 C2142 0.930 . S
H2131 C2144 0.930 . S
H2132 C2145 0.930 . S
H2133 C2149 0.959 . S
H2134 C2149 0.959 . S
H2135 C2149 0.961 . S
H2136 C2150 0.960 . S
H2137 C2150 0.961 . S
H2138 C2150 0.959 . S
H2139 C2153 0.929 . S
H2140 C2154 0.931 . S
H2141 C2156 0.930 . S
C2142 H2130 0.930 . S
C2142 C2143 1.399 . S
C2142 C2147 1.399 . S
C2143 C2142 1.399 . S
C2143 C2144 1.376 . S
C2144 H2131 0.930 . S
C2144 C2143 1.376 . S
C2144 C2145 1.388 . S
C2145 H2132 0.930 . S
C2145 C2144 1.388 . S
C2145 C2146 1.390 . S
C2146 C2145 1.390 . S
C2146 C2147 1.394 . S
C2146 C2152 1.465 . S
C2147 C2142 1.399 . S
C2147 C2146 1.394 . S
C2147 C2148 1.516 . S
C2148 C2147 1.516 . S
C2148 C2149 1.502 . S
C2148 C2150 1.561 . S
C2148 C2151 1.526 . S
C2149 H2133 0.959 . S
C2149 H2134 0.959 . S
C2149 H2135 0.961 . S
C2149 C2148 1.502 . S
C2150 H2136 0.960 . S
C2150 H2137 0.961 . S
C2150 H2138 0.959 . S
C2150 C2148 1.561 . S
C2151 C2148 1.526 . S
C2151 C2152 1.396 . S
C2151 C2156 1.390 . S
C2152 C2146 1.465 . S
C2152 C2151 1.396 . S
C2152 C2153 1.399 . S
C2153 H2139 0.929 . S
C2153 C2152 1.399 . S
C2153 C2154 1.385 . S
C2154 H2140 0.931 . S
C2154 C2153 1.385 . S
C2154 C2155 1.389 . S
C2155 C2154 1.389 . S
C2155 C2156 1.387 . S
C2156 H2141 0.930 . S
C2156 C2151 1.390 . S
C2156 C2155 1.387 . S
H2157 C2169 0.930 . S
H2158 C2171 0.930 . S
H2159 C2172 0.930 . S
H2160 C2176 0.959 . S
H2161 C2176 0.959 . S
H2162 C2176 0.961 . S
H2163 C2177 0.960 . S
H2164 C2177 0.961 . S
H2165 C2177 0.959 . S
H2166 C2180 0.929 . S
H2167 C2181 0.931 . S
H2168 C2183 0.930 . S
C2169 H2157 0.930 . S
C2169 C2170 1.399 . S
C2169 C2174 1.399 . S
C2170 C2169 1.399 . S
C2170 C2171 1.376 . S
C2171 H2158 0.930 . S
C2171 C2170 1.376 . S
C2171 C2172 1.388 . S
C2172 H2159 0.930 . S
C2172 C2171 1.388 . S
C2172 C2173 1.390 . S
C2173 C2172 1.390 . S
C2173 C2174 1.394 . S
C2173 C2179 1.465 . S
C2174 C2169 1.399 . S
C2174 C2173 1.394 . S
C2174 C2175 1.516 . S
C2175 C2174 1.516 . S
C2175 C2176 1.502 . S
C2175 C2177 1.561 . S
C2175 C2178 1.526 . S
C2176 H2160 0.959 . S
C2176 H2161 0.959 . S
C2176 H2162 0.961 . S
C2176 C2175 1.502 . S
C2177 H2163 0.960 . S
C2177 H2164 0.961 . S
C2177 H2165 0.959 . S
C2177 C2175 1.561 . S
C2178 C2175 1.526 . S
C2178 C2179 1.396 . S
C2178 C2183 1.390 . S
C2179 C2173 1.465 . S
C2179 C2178 1.396 . S
C2179 C2180 1.399 . S
C2180 H2166 0.929 . S
C2180 C2179 1.399 . S
C2180 C2181 1.385 . S
C2181 H2167 0.931 . S
C2181 C2180 1.385 . S
C2181 C2182 1.389 . S
C2182 C2181 1.389 . S
C2182 C2183 1.387 . S
C2183 H2168 0.930 . S
C2183 C2178 1.390 . S
C2183 C2182 1.387 . S
H2184 C2196 0.930 . S
H2185 C2198 0.930 . S
H2186 C2199 0.930 . S
H2187 C2203 0.959 . S
H2188 C2203 0.959 . S
H2189 C2203 0.961 . S
H2190 C2204 0.960 . S
H2191 C2204 0.961 . S
H2192 C2204 0.959 . S
H2193 C2207 0.929 . S
H2194 C2208 0.931 . S
H2195 C2210 0.930 . S
C2196 H2184 0.930 . S
C2196 C2197 1.399 . S
C2196 C2201 1.399 . S
C2197 C2196 1.399 . S
C2197 C2198 1.376 . S
C2198 H2185 0.930 . S
C2198 C2197 1.376 . S
C2198 C2199 1.388 . S
C2199 H2186 0.930 . S
C2199 C2198 1.388 . S
C2199 C2200 1.390 . S
C2200 C2199 1.390 . S
C2200 C2201 1.394 . S
C2200 C2206 1.465 . S
C2201 C2196 1.399 . S
C2201 C2200 1.394 . S
C2201 C2202 1.516 . S
C2202 C2201 1.516 . S
C2202 C2203 1.502 . S
C2202 C2204 1.561 . S
C2202 C2205 1.526 . S
C2203 H2187 0.959 . S
C2203 H2188 0.959 . S
C2203 H2189 0.961 . S
C2203 C2202 1.502 . S
C2204 H2190 0.960 . S
C2204 H2191 0.961 . S
C2204 H2192 0.959 . S
C2204 C2202 1.561 . S
C2205 C2202 1.526 . S
C2205 C2206 1.396 . S
C2205 C2210 1.390 . S
C2206 C2200 1.465 . S
C2206 C2205 1.396 . S
C2206 C2207 1.399 . S
C2207 H2193 0.929 . S
C2207 C2206 1.399 . S
C2207 C2208 1.385 . S
C2208 H2194 0.931 . S
C2208 C2207 1.385 . S
C2208 C2209 1.389 . S
C2209 C2208 1.389 . S
C2209 C2210 1.387 . S
C2210 H2195 0.930 . S
C2210 C2205 1.390 . S
C2210 C2209 1.387 . S
H2211 C2223 0.930 . S
H2212 C2225 0.930 . S
H2213 C2226 0.930 . S
H2214 C2230 0.959 . S
H2215 C2230 0.959 . S
H2216 C2230 0.961 . S
H2217 C2231 0.960 . S
H2218 C2231 0.961 . S
H2219 C2231 0.959 . S
H2220 C2234 0.929 . S
H2221 C2235 0.931 . S
H2222 C2237 0.930 . S
C2223 H2211 0.930 . S
C2223 C2224 1.399 . S
C2223 C2228 1.399 . S
C2224 C2223 1.399 . S
C2224 C2225 1.376 . S
C2225 H2212 0.930 . S
C2225 C2224 1.376 . S
C2225 C2226 1.388 . S
C2226 H2213 0.930 . S
C2226 C2225 1.388 . S
C2226 C2227 1.390 . S
C2227 C2226 1.390 . S
C2227 C2228 1.394 . S
C2227 C2233 1.465 . S
C2228 C2223 1.399 . S
C2228 C2227 1.394 . S
C2228 C2229 1.516 . S
C2229 C2228 1.516 . S
C2229 C2230 1.502 . S
C2229 C2231 1.561 . S
C2229 C2232 1.526 . S
C2230 H2214 0.959 . S
C2230 H2215 0.959 . S
C2230 H2216 0.961 . S
C2230 C2229 1.502 . S
C2231 H2217 0.960 . S
C2231 H2218 0.961 . S
C2231 H2219 0.959 . S
C2231 C2229 1.561 . S
C2232 C2229 1.526 . S
C2232 C2233 1.396 . S
C2232 C2237 1.390 . S
C2233 C2227 1.465 . S
C2233 C2232 1.396 . S
C2233 C2234 1.399 . S
C2234 H2220 0.929 . S
C2234 C2233 1.399 . S
C2234 C2235 1.385 . S
C2235 H2221 0.931 . S
C2235 C2234 1.385 . S
C2235 C2236 1.389 . S
C2236 C2235 1.389 . S
C2236 C2237 1.387 . S
C2237 H2222 0.930 . S
C2237 C2232 1.390 . S
C2237 C2236 1.387 . S
H2238 C2250 0.930 . S
H2239 C2252 0.930 . S
H2240 C2253 0.930 . S
H2241 C2257 0.959 . S
H2242 C2257 0.959 . S
H2243 C2257 0.961 . S
H2244 C2258 0.960 . S
H2245 C2258 0.961 . S
H2246 C2258 0.959 . S
H2247 C2261 0.929 . S
H2248 C2262 0.931 . S
H2249 C2264 0.930 . S
C2250 H2238 0.930 . S
C2250 C2251 1.399 . S
C2250 C2255 1.399 . S
C2251 C2250 1.399 . S
C2251 C2252 1.376 . S
C2252 H2239 0.930 . S
C2252 C2251 1.376 . S
C2252 C2253 1.388 . S
C2253 H2240 0.930 . S
C2253 C2252 1.388 . S
C2253 C2254 1.390 . S
C2254 C2253 1.390 . S
C2254 C2255 1.394 . S
C2254 C2260 1.465 . S
C2255 C2250 1.399 . S
C2255 C2254 1.394 . S
C2255 C2256 1.516 . S
C2256 C2255 1.516 . S
C2256 C2257 1.502 . S
C2256 C2258 1.561 . S
C2256 C2259 1.526 . S
C2257 H2241 0.959 . S
C2257 H2242 0.959 . S
C2257 H2243 0.961 . S
C2257 C2256 1.502 . S
C2258 H2244 0.960 . S
C2258 H2245 0.961 . S
C2258 H2246 0.959 . S
C2258 C2256 1.561 . S
C2259 C2256 1.526 . S
C2259 C2260 1.396 . S
C2259 C2264 1.390 . S
C2260 C2254 1.465 . S
C2260 C2259 1.396 . S
C2260 C2261 1.399 . S
C2261 H2247 0.929 . S
C2261 C2260 1.399 . S
C2261 C2262 1.385 . S
C2262 H2248 0.931 . S
C2262 C2261 1.385 . S
C2262 C2263 1.389 . S
C2263 C2262 1.389 . S
C2263 C2264 1.387 . S
C2264 H2249 0.930 . S
C2264 C2259 1.390 . S
C2264 C2263 1.387 . S
H2265 C2277 0.930 . S
H2266 C2279 0.930 . S
H2267 C2280 0.930 . S
H2268 C2284 0.959 . S
H2269 C2284 0.959 . S
H2270 C2284 0.961 . S
H2271 C2285 0.960 . S
H2272 C2285 0.961 . S
H2273 C2285 0.959 . S
H2274 C2288 0.929 . S
H2275 C2289 0.931 . S
H2276 C2291 0.930 . S
C2277 H2265 0.930 . S
C2277 C2278 1.399 . S
C2277 C2282 1.399 . S
C2278 C2277 1.399 . S
C2278 C2279 1.376 . S
C2279 H2266 0.930 . S
C2279 C2278 1.376 . S
C2279 C2280 1.388 . S
C2280 H2267 0.930 . S
C2280 C2279 1.388 . S
C2280 C2281 1.390 . S
C2281 C2280 1.390 . S
C2281 C2282 1.394 . S
C2281 C2287 1.465 . S
C2282 C2277 1.399 . S
C2282 C2281 1.394 . S
C2282 C2283 1.516 . S
C2283 C2282 1.516 . S
C2283 C2284 1.502 . S
C2283 C2285 1.561 . S
C2283 C2286 1.526 . S
C2284 H2268 0.959 . S
C2284 H2269 0.959 . S
C2284 H2270 0.961 . S
C2284 C2283 1.502 . S
C2285 H2271 0.960 . S
C2285 H2272 0.961 . S
C2285 H2273 0.959 . S
C2285 C2283 1.561 . S
C2286 C2283 1.526 . S
C2286 C2287 1.396 . S
C2286 C2291 1.390 . S
C2287 C2281 1.465 . S
C2287 C2286 1.396 . S
C2287 C2288 1.399 . S
C2288 H2274 0.929 . S
C2288 C2287 1.399 . S
C2288 C2289 1.385 . S
C2289 H2275 0.931 . S
C2289 C2288 1.385 . S
C2289 C2290 1.389 . S
C2290 C2289 1.389 . S
C2290 C2291 1.387 . S
C2291 H2276 0.930 . S
C2291 C2286 1.390 . S
C2291 C2290 1.387 . S
H2292 C2304 0.930 . S
H2293 C2306 0.930 . S
H2294 C2307 0.930 . S
H2295 C2311 0.959 . S
H2296 C2311 0.959 . S
H2297 C2311 0.961 . S
H2298 C2312 0.960 . S
H2299 C2312 0.961 . S
H2300 C2312 0.959 . S
H2301 C2315 0.929 . S
H2302 C2316 0.931 . S
H2303 C2318 0.930 . S
C2304 H2292 0.930 . S
C2304 C2305 1.399 . S
C2304 C2309 1.399 . S
C2305 C2304 1.399 . S
C2305 C2306 1.376 . S
C2306 H2293 0.930 . S
C2306 C2305 1.376 . S
C2306 C2307 1.388 . S
C2307 H2294 0.930 . S
C2307 C2306 1.388 . S
C2307 C2308 1.390 . S
C2308 C2307 1.390 . S
C2308 C2309 1.394 . S
C2308 C2314 1.465 . S
C2309 C2304 1.399 . S
C2309 C2308 1.394 . S
C2309 C2310 1.516 . S
C2310 C2309 1.516 . S
C2310 C2311 1.502 . S
C2310 C2312 1.561 . S
C2310 C2313 1.526 . S
C2311 H2295 0.959 . S
C2311 H2296 0.959 . S
C2311 H2297 0.961 . S
C2311 C2310 1.502 . S
C2312 H2298 0.960 . S
C2312 H2299 0.961 . S
C2312 H2300 0.959 . S
C2312 C2310 1.561 . S
C2313 C2310 1.526 . S
C2313 C2314 1.396 . S
C2313 C2318 1.390 . S
C2314 C2308 1.465 . S
C2314 C2313 1.396 . S
C2314 C2315 1.399 . S
C2315 H2301 0.929 . S
C2315 C2314 1.399 . S
C2315 C2316 1.385 . S
C2316 H2302 0.931 . S
C2316 C2315 1.385 . S
C2316 C2317 1.389 . S
C2317 C2316 1.389 . S
C2317 C2318 1.387 . S
C2318 H2303 0.930 . S
C2318 C2313 1.390 . S
C2318 C2317 1.387 . S
H2319 C2331 0.930 . S
H2320 C2333 0.930 . S
H2321 C2334 0.930 . S
H2322 C2338 0.959 . S
H2323 C2338 0.959 . S
H2324 C2338 0.961 . S
H2325 C2339 0.960 . S
H2326 C2339 0.961 . S
H2327 C2339 0.959 . S
H2328 C2342 0.929 . S
H2329 C2343 0.931 . S
H2330 C2345 0.930 . S
C2331 H2319 0.930 . S
C2331 C2332 1.399 . S
C2331 C2336 1.399 . S
C2332 C2331 1.399 . S
C2332 C2333 1.376 . S
C2333 H2320 0.930 . S
C2333 C2332 1.376 . S
C2333 C2334 1.388 . S
C2334 H2321 0.930 . S
C2334 C2333 1.388 . S
C2334 C2335 1.390 . S
C2335 C2334 1.390 . S
C2335 C2336 1.394 . S
C2335 C2341 1.465 . S
C2336 C2331 1.399 . S
C2336 C2335 1.394 . S
C2336 C2337 1.516 . S
C2337 C2336 1.516 . S
C2337 C2338 1.502 . S
C2337 C2339 1.561 . S
C2337 C2340 1.526 . S
C2338 H2322 0.959 . S
C2338 H2323 0.959 . S
C2338 H2324 0.961 . S
C2338 C2337 1.502 . S
C2339 H2325 0.960 . S
C2339 H2326 0.961 . S
C2339 H2327 0.959 . S
C2339 C2337 1.561 . S
C2340 C2337 1.526 . S
C2340 C2341 1.396 . S
C2340 C2345 1.390 . S
C2341 C2335 1.465 . S
C2341 C2340 1.396 . S
C2341 C2342 1.399 . S
C2342 H2328 0.929 . S
C2342 C2341 1.399 . S
C2342 C2343 1.385 . S
C2343 H2329 0.931 . S
C2343 C2342 1.385 . S
C2343 C2344 1.389 . S
C2344 C2343 1.389 . S
C2344 C2345 1.387 . S
C2345 H2330 0.930 . S
C2345 C2340 1.390 . S
C2345 C2344 1.387 . S
H2346 C2358 0.930 . S
H2347 C2360 0.930 . S
H2348 C2361 0.930 . S
H2349 C2365 0.959 . S
H2350 C2365 0.959 . S
H2351 C2365 0.961 . S
H2352 C2366 0.960 . S
H2353 C2366 0.961 . S
H2354 C2366 0.959 . S
H2355 C2369 0.929 . S
H2356 C2370 0.931 . S
H2357 C2372 0.930 . S
C2358 H2346 0.930 . S
C2358 C2359 1.399 . S
C2358 C2363 1.399 . S
C2359 C2358 1.399 . S
C2359 C2360 1.376 . S
C2360 H2347 0.930 . S
C2360 C2359 1.376 . S
C2360 C2361 1.388 . S
C2361 H2348 0.930 . S
C2361 C2360 1.388 . S
C2361 C2362 1.390 . S
C2362 C2361 1.390 . S
C2362 C2363 1.394 . S
C2362 C2368 1.465 . S
C2363 C2358 1.399 . S
C2363 C2362 1.394 . S
C2363 C2364 1.516 . S
C2364 C2363 1.516 . S
C2364 C2365 1.502 . S
C2364 C2366 1.561 . S
C2364 C2367 1.526 . S
C2365 H2349 0.959 . S
C2365 H2350 0.959 . S
C2365 H2351 0.961 . S
C2365 C2364 1.502 . S
C2366 H2352 0.960 . S
C2366 H2353 0.961 . S
C2366 H2354 0.959 . S
C2366 C2364 1.561 . S
C2367 C2364 1.526 . S
C2367 C2368 1.396 . S
C2367 C2372 1.390 . S
C2368 C2362 1.465 . S
C2368 C2367 1.396 . S
C2368 C2369 1.399 . S
C2369 H2355 0.929 . S
C2369 C2368 1.399 . S
C2369 C2370 1.385 . S
C2370 H2356 0.931 . S
C2370 C2369 1.385 . S
C2370 C2371 1.389 . S
C2371 C2370 1.389 . S
C2371 C2372 1.387 . S
C2372 H2357 0.930 . S
C2372 C2367 1.390 . S
C2372 C2371 1.387 . S
H2373 C2385 0.930 . S
H2374 C2387 0.930 . S
H2375 C2388 0.930 . S
H2376 C2392 0.959 . S
H2377 C2392 0.959 . S
H2378 C2392 0.961 . S
H2379 C2393 0.960 . S
H2380 C2393 0.961 . S
H2381 C2393 0.959 . S
H2382 C2396 0.929 . S
H2383 C2397 0.931 . S
H2384 C2399 0.930 . S
C2385 H2373 0.930 . S
C2385 C2386 1.399 . S
C2385 C2390 1.399 . S
C2386 C2385 1.399 . S
C2386 C2387 1.376 . S
C2387 H2374 0.930 . S
C2387 C2386 1.376 . S
C2387 C2388 1.388 . S
C2388 H2375 0.930 . S
C2388 C2387 1.388 . S
C2388 C2389 1.390 . S
C2389 C2388 1.390 . S
C2389 C2390 1.394 . S
C2389 C2395 1.465 . S
C2390 C2385 1.399 . S
C2390 C2389 1.394 . S
C2390 C2391 1.516 . S
C2391 C2390 1.516 . S
C2391 C2392 1.502 . S
C2391 C2393 1.561 . S
C2391 C2394 1.526 . S
C2392 H2376 0.959 . S
C2392 H2377 0.959 . S
C2392 H2378 0.961 . S
C2392 C2391 1.502 . S
C2393 H2379 0.960 . S
C2393 H2380 0.961 . S
C2393 H2381 0.959 . S
C2393 C2391 1.561 . S
C2394 C2391 1.526 . S
C2394 C2395 1.396 . S
C2394 C2399 1.390 . S
C2395 C2389 1.465 . S
C2395 C2394 1.396 . S
C2395 C2396 1.399 . S
C2396 H2382 0.929 . S
C2396 C2395 1.399 . S
C2396 C2397 1.385 . S
C2397 H2383 0.931 . S
C2397 C2396 1.385 . S
C2397 C2398 1.389 . S
C2398 C2397 1.389 . S
C2398 C2399 1.387 . S
C2399 H2384 0.930 . S
C2399 C2394 1.390 . S
C2399 C2398 1.387 . S
H2400 C2412 0.930 . S
H2401 C2414 0.930 . S
H2402 C2415 0.930 . S
H2403 C2419 0.959 . S
H2404 C2419 0.959 . S
H2405 C2419 0.961 . S
H2406 C2420 0.960 . S
H2407 C2420 0.961 . S
H2408 C2420 0.959 . S
H2409 C2423 0.929 . S
H2410 C2424 0.931 . S
H2411 C2426 0.930 . S
C2412 H2400 0.930 . S
C2412 C2413 1.399 . S
C2412 C2417 1.399 . S
C2413 C2412 1.399 . S
C2413 C2414 1.376 . S
C2414 H2401 0.930 . S
C2414 C2413 1.376 . S
C2414 C2415 1.388 . S
C2415 H2402 0.930 . S
C2415 C2414 1.388 . S
C2415 C2416 1.390 . S
C2416 C2415 1.390 . S
C2416 C2417 1.394 . S
C2416 C2422 1.465 . S
C2417 C2412 1.399 . S
C2417 C2416 1.394 . S
C2417 C2418 1.516 . S
C2418 C2417 1.516 . S
C2418 C2419 1.502 . S
C2418 C2420 1.561 . S
C2418 C2421 1.526 . S
C2419 H2403 0.959 . S
C2419 H2404 0.959 . S
C2419 H2405 0.961 . S
C2419 C2418 1.502 . S
C2420 H2406 0.960 . S
C2420 H2407 0.961 . S
C2420 H2408 0.959 . S
C2420 C2418 1.561 . S
C2421 C2418 1.526 . S
C2421 C2422 1.396 . S
C2421 C2426 1.390 . S
C2422 C2416 1.465 . S
C2422 C2421 1.396 . S
C2422 C2423 1.399 . S
C2423 H2409 0.929 . S
C2423 C2422 1.399 . S
C2423 C2424 1.385 . S
C2424 H2410 0.931 . S
C2424 C2423 1.385 . S
C2424 C2425 1.389 . S
C2425 C2424 1.389 . S
C2425 C2426 1.387 . S
C2426 H2411 0.930 . S
C2426 C2421 1.390 . S
C2426 C2425 1.387 . S
H2427 C2439 0.930 . S
H2428 C2441 0.930 . S
H2429 C2442 0.930 . S
H2430 C2446 0.959 . S
H2431 C2446 0.959 . S
H2432 C2446 0.961 . S
H2433 C2447 0.960 . S
H2434 C2447 0.961 . S
H2435 C2447 0.959 . S
H2436 C2450 0.929 . S
H2437 C2451 0.931 . S
H2438 C2453 0.930 . S
C2439 H2427 0.930 . S
C2439 C2440 1.399 . S
C2439 C2444 1.399 . S
C2440 C2439 1.399 . S
C2440 C2441 1.376 . S
C2441 H2428 0.930 . S
C2441 C2440 1.376 . S
C2441 C2442 1.388 . S
C2442 H2429 0.930 . S
C2442 C2441 1.388 . S
C2442 C2443 1.390 . S
C2443 C2442 1.390 . S
C2443 C2444 1.394 . S
C2443 C2449 1.465 . S
C2444 C2439 1.399 . S
C2444 C2443 1.394 . S
C2444 C2445 1.516 . S
C2445 C2444 1.516 . S
C2445 C2446 1.502 . S
C2445 C2447 1.561 . S
C2445 C2448 1.526 . S
C2446 H2430 0.959 . S
C2446 H2431 0.959 . S
C2446 H2432 0.961 . S
C2446 C2445 1.502 . S
C2447 H2433 0.960 . S
C2447 H2434 0.961 . S
C2447 H2435 0.959 . S
C2447 C2445 1.561 . S
C2448 C2445 1.526 . S
C2448 C2449 1.396 . S
C2448 C2453 1.390 . S
C2449 C2443 1.465 . S
C2449 C2448 1.396 . S
C2449 C2450 1.399 . S
C2450 H2436 0.929 . S
C2450 C2449 1.399 . S
C2450 C2451 1.385 . S
C2451 H2437 0.931 . S
C2451 C2450 1.385 . S
C2451 C2452 1.389 . S
C2452 C2451 1.389 . S
C2452 C2453 1.387 . S
C2453 H2438 0.930 . S
C2453 C2448 1.390 . S
C2453 C2452 1.387 . S
H2454 C2466 0.930 . S
H2455 C2468 0.930 . S
H2456 C2469 0.930 . S
H2457 C2473 0.959 . S
H2458 C2473 0.959 . S
H2459 C2473 0.961 . S
H2460 C2474 0.960 . S
H2461 C2474 0.961 . S
H2462 C2474 0.959 . S
H2463 C2477 0.929 . S
H2464 C2478 0.931 . S
H2465 C2480 0.930 . S
C2466 H2454 0.930 . S
C2466 C2467 1.399 . S
C2466 C2471 1.399 . S
C2467 C2466 1.399 . S
C2467 C2468 1.376 . S
C2468 H2455 0.930 . S
C2468 C2467 1.376 . S
C2468 C2469 1.388 . S
C2469 H2456 0.930 . S
C2469 C2468 1.388 . S
C2469 C2470 1.390 . S
C2470 C2469 1.390 . S
C2470 C2471 1.394 . S
C2470 C2476 1.465 . S
C2471 C2466 1.399 . S
C2471 C2470 1.394 . S
C2471 C2472 1.516 . S
C2472 C2471 1.516 . S
C2472 C2473 1.502 . S
C2472 C2474 1.561 . S
C2472 C2475 1.526 . S
C2473 H2457 0.959 . S
C2473 H2458 0.959 . S
C2473 H2459 0.961 . S
C2473 C2472 1.502 . S
C2474 H2460 0.960 . S
C2474 H2461 0.961 . S
C2474 H2462 0.959 . S
C2474 C2472 1.561 . S
C2475 C2472 1.526 . S
C2475 C2476 1.396 . S
C2475 C2480 1.390 . S
C2476 C2470 1.465 . S
C2476 C2475 1.396 . S
C2476 C2477 1.399 . S
C2477 H2463 0.929 . S
C2477 C2476 1.399 . S
C2477 C2478 1.385 . S
C2478 H2464 0.931 . S
C2478 C2477 1.385 . S
C2478 C2479 1.389 . S
C2479 C2478 1.389 . S
C2479 C2480 1.387 . S
C2480 H2465 0.930 . S
C2480 C2475 1.390 . S
C2480 C2479 1.387 . S
H2481 C2493 0.930 . S
H2482 C2495 0.930 . S
H2483 C2496 0.930 . S
H2484 C2500 0.959 . S
H2485 C2500 0.959 . S
H2486 C2500 0.961 . S
H2487 C2501 0.960 . S
H2488 C2501 0.961 . S
H2489 C2501 0.959 . S
H2490 C2504 0.929 . S
H2491 C2505 0.931 . S
H2492 C2507 0.930 . S
C2493 H2481 0.930 . S
C2493 C2494 1.399 . S
C2493 C2498 1.399 . S
C2494 C2493 1.399 . S
C2494 C2495 1.376 . S
C2495 H2482 0.930 . S
C2495 C2494 1.376 . S
C2495 C2496 1.388 . S
C2496 H2483 0.930 . S
C2496 C2495 1.388 . S
C2496 C2497 1.390 . S
C2497 C2496 1.390 . S
C2497 C2498 1.394 . S
C2497 C2503 1.465 . S
C2498 C2493 1.399 . S
C2498 C2497 1.394 . S
C2498 C2499 1.516 . S
C2499 C2498 1.516 . S
C2499 C2500 1.502 . S
C2499 C2501 1.561 . S
C2499 C2502 1.526 . S
C2500 H2484 0.959 . S
C2500 H2485 0.959 . S
C2500 H2486 0.961 . S
C2500 C2499 1.502 . S
C2501 H2487 0.960 . S
C2501 H2488 0.961 . S
C2501 H2489 0.959 . S
C2501 C2499 1.561 . S
C2502 C2499 1.526 . S
C2502 C2503 1.396 . S
C2502 C2507 1.390 . S
C2503 C2497 1.465 . S
C2503 C2502 1.396 . S
C2503 C2504 1.399 . S
C2504 H2490 0.929 . S
C2504 C2503 1.399 . S
C2504 C2505 1.385 . S
C2505 H2491 0.931 . S
C2505 C2504 1.385 . S
C2505 C2506 1.389 . S
C2506 C2505 1.389 . S
C2506 C2507 1.387 . S
C2507 H2492 0.930 . S
C2507 C2502 1.390 . S
C2507 C2506 1.387 . S
H2508 C2520 0.930 . S
H2509 C2522 0.930 . S
H2510 C2523 0.930 . S
H2511 C2527 0.959 . S
H2512 C2527 0.959 . S
H2513 C2527 0.961 . S
H2514 C2528 0.960 . S
H2515 C2528 0.961 . S
H2516 C2528 0.959 . S
H2517 C2531 0.929 . S
H2518 C2532 0.931 . S
H2519 C2534 0.930 . S
C2520 H2508 0.930 . S
C2520 C2521 1.399 . S
C2520 C2525 1.399 . S
C2521 C2520 1.399 . S
C2521 C2522 1.376 . S
C2522 H2509 0.930 . S
C2522 C2521 1.376 . S
C2522 C2523 1.388 . S
C2523 H2510 0.930 . S
C2523 C2522 1.388 . S
C2523 C2524 1.390 . S
C2524 C2523 1.390 . S
C2524 C2525 1.394 . S
C2524 C2530 1.465 . S
C2525 C2520 1.399 . S
C2525 C2524 1.394 . S
C2525 C2526 1.516 . S
C2526 C2525 1.516 . S
C2526 C2527 1.502 . S
C2526 C2528 1.561 . S
C2526 C2529 1.526 . S
C2527 H2511 0.959 . S
C2527 H2512 0.959 . S
C2527 H2513 0.961 . S
C2527 C2526 1.502 . S
C2528 H2514 0.960 . S
C2528 H2515 0.961 . S
C2528 H2516 0.959 . S
C2528 C2526 1.561 . S
C2529 C2526 1.526 . S
C2529 C2530 1.396 . S
C2529 C2534 1.390 . S
C2530 C2524 1.465 . S
C2530 C2529 1.396 . S
C2530 C2531 1.399 . S
C2531 H2517 0.929 . S
C2531 C2530 1.399 . S
C2531 C2532 1.385 . S
C2532 H2518 0.931 . S
C2532 C2531 1.385 . S
C2532 C2533 1.389 . S
C2533 C2532 1.389 . S
C2533 C2534 1.387 . S
C2534 H2519 0.930 . S
C2534 C2529 1.390 . S
C2534 C2533 1.387 . S
H2535 C2547 0.930 . S
H2536 C2549 0.930 . S
H2537 C2550 0.930 . S
H2538 C2554 0.959 . S
H2539 C2554 0.959 . S
H2540 C2554 0.961 . S
H2541 C2555 0.960 . S
H2542 C2555 0.961 . S
H2543 C2555 0.959 . S
H2544 C2558 0.929 . S
H2545 C2559 0.931 . S
H2546 C2561 0.930 . S
C2547 H2535 0.930 . S
C2547 C2548 1.399 . S
C2547 C2552 1.399 . S
C2548 C2547 1.399 . S
C2548 C2549 1.376 . S
C2549 H2536 0.930 . S
C2549 C2548 1.376 . S
C2549 C2550 1.388 . S
C2550 H2537 0.930 . S
C2550 C2549 1.388 . S
C2550 C2551 1.390 . S
C2551 C2550 1.390 . S
C2551 C2552 1.394 . S
C2551 C2557 1.465 . S
C2552 C2547 1.399 . S
C2552 C2551 1.394 . S
C2552 C2553 1.516 . S
C2553 C2552 1.516 . S
C2553 C2554 1.502 . S
C2553 C2555 1.561 . S
C2553 C2556 1.526 . S
C2554 H2538 0.959 . S
C2554 H2539 0.959 . S
C2554 H2540 0.961 . S
C2554 C2553 1.502 . S
C2555 H2541 0.960 . S
C2555 H2542 0.961 . S
C2555 H2543 0.959 . S
C2555 C2553 1.561 . S
C2556 C2553 1.526 . S
C2556 C2557 1.396 . S
C2556 C2561 1.390 . S
C2557 C2551 1.465 . S
C2557 C2556 1.396 . S
C2557 C2558 1.399 . S
C2558 H2544 0.929 . S
C2558 C2557 1.399 . S
C2558 C2559 1.385 . S
C2559 H2545 0.931 . S
C2559 C2558 1.385 . S
C2559 C2560 1.389 . S
C2560 C2559 1.389 . S
C2560 C2561 1.387 . S
C2561 H2546 0.930 . S
C2561 C2556 1.390 . S
C2561 C2560 1.387 . S
H2562 C2574 0.930 . S
H2563 C2576 0.930 . S
H2564 C2577 0.930 . S
H2565 C2581 0.959 . S
H2566 C2581 0.959 . S
H2567 C2581 0.961 . S
H2568 C2582 0.960 . S
H2569 C2582 0.961 . S
H2570 C2582 0.959 . S
H2571 C2585 0.929 . S
H2572 C2586 0.931 . S
H2573 C2588 0.930 . S
C2574 H2562 0.930 . S
C2574 C2575 1.399 . S
C2574 C2579 1.399 . S
C2575 C2574 1.399 . S
C2575 C2576 1.376 . S
C2576 H2563 0.930 . S
C2576 C2575 1.376 . S
C2576 C2577 1.388 . S
C2577 H2564 0.930 . S
C2577 C2576 1.388 . S
C2577 C2578 1.390 . S
C2578 C2577 1.390 . S
C2578 C2579 1.394 . S
C2578 C2584 1.465 . S
C2579 C2574 1.399 . S
C2579 C2578 1.394 . S
C2579 C2580 1.516 . S
C2580 C2579 1.516 . S
C2580 C2581 1.502 . S
C2580 C2582 1.561 . S
C2580 C2583 1.526 . S
C2581 H2565 0.959 . S
C2581 H2566 0.959 . S
C2581 H2567 0.961 . S
C2581 C2580 1.502 . S
C2582 H2568 0.960 . S
C2582 H2569 0.961 . S
C2582 H2570 0.959 . S
C2582 C2580 1.561 . S
C2583 C2580 1.526 . S
C2583 C2584 1.396 . S
C2583 C2588 1.390 . S
C2584 C2578 1.465 . S
C2584 C2583 1.396 . S
C2584 C2585 1.399 . S
C2585 H2571 0.929 . S
C2585 C2584 1.399 . S
C2585 C2586 1.385 . S
C2586 H2572 0.931 . S
C2586 C2585 1.385 . S
C2586 C2587 1.389 . S
C2587 C2586 1.389 . S
C2587 C2588 1.387 . S
C2588 H2573 0.930 . S
C2588 C2583 1.390 . S
C2588 C2587 1.387 . S
H2589 C2601 0.930 . S
H2590 C2603 0.930 . S
H2591 C2604 0.930 . S
H2592 C2608 0.959 . S
H2593 C2608 0.959 . S
H2594 C2608 0.961 . S
H2595 C2609 0.960 . S
H2596 C2609 0.961 . S
H2597 C2609 0.959 . S
H2598 C2612 0.929 . S
H2599 C2613 0.931 . S
H2600 C2615 0.930 . S
C2601 H2589 0.930 . S
C2601 C2602 1.399 . S
C2601 C2606 1.399 . S
C2602 C2601 1.399 . S
C2602 C2603 1.376 . S
C2603 H2590 0.930 . S
C2603 C2602 1.376 . S
C2603 C2604 1.388 . S
C2604 H2591 0.930 . S
C2604 C2603 1.388 . S
C2604 C2605 1.390 . S
C2605 C2604 1.390 . S
C2605 C2606 1.394 . S
C2605 C2611 1.465 . S
C2606 C2601 1.399 . S
C2606 C2605 1.394 . S
C2606 C2607 1.516 . S
C2607 C2606 1.516 . S
C2607 C2608 1.502 . S
C2607 C2609 1.561 . S
C2607 C2610 1.526 . S
C2608 H2592 0.959 . S
C2608 H2593 0.959 . S
C2608 H2594 0.961 . S
C2608 C2607 1.502 . S
C2609 H2595 0.960 . S
C2609 H2596 0.961 . S
C2609 H2597 0.959 . S
C2609 C2607 1.561 . S
C2610 C2607 1.526 . S
C2610 C2611 1.396 . S
C2610 C2615 1.390 . S
C2611 C2605 1.465 . S
C2611 C2610 1.396 . S
C2611 C2612 1.399 . S
C2612 H2598 0.929 . S
C2612 C2611 1.399 . S
C2612 C2613 1.385 . S
C2613 H2599 0.931 . S
C2613 C2612 1.385 . S
C2613 C2614 1.389 . S
C2614 C2613 1.389 . S
C2614 C2615 1.387 . S
C2615 H2600 0.930 . S
C2615 C2610 1.390 . S
C2615 C2614 1.387 . S
H2616 C2628 0.930 . S
H2617 C2630 0.930 . S
H2618 C2631 0.930 . S
H2619 C2635 0.959 . S
H2620 C2635 0.959 . S
H2621 C2635 0.961 . S
H2622 C2636 0.960 . S
H2623 C2636 0.961 . S
H2624 C2636 0.959 . S
H2625 C2639 0.929 . S
H2626 C2640 0.931 . S
H2627 C2642 0.930 . S
C2628 H2616 0.930 . S
C2628 C2629 1.399 . S
C2628 C2633 1.399 . S
C2629 C2628 1.399 . S
C2629 C2630 1.376 . S
C2630 H2617 0.930 . S
C2630 C2629 1.376 . S
C2630 C2631 1.388 . S
C2631 H2618 0.930 . S
C2631 C2630 1.388 . S
C2631 C2632 1.390 . S
C2632 C2631 1.390 . S
C2632 C2633 1.394 . S
C2632 C2638 1.465 . S
C2633 C2628 1.399 . S
C2633 C2632 1.394 . S
C2633 C2634 1.516 . S
C2634 C2633 1.516 . S
C2634 C2635 1.502 . S
C2634 C2636 1.561 . S
C2634 C2637 1.526 . S
C2635 H2619 0.959 . S
C2635 H2620 0.959 . S
C2635 H2621 0.961 . S
C2635 C2634 1.502 . S
C2636 H2622 0.960 . S
C2636 H2623 0.961 . S
C2636 H2624 0.959 . S
C2636 C2634 1.561 . S
C2637 C2634 1.526 . S
C2637 C2638 1.396 . S
C2637 C2642 1.390 . S
C2638 C2632 1.465 . S
C2638 C2637 1.396 . S
C2638 C2639 1.399 . S
C2639 H2625 0.929 . S
C2639 C2638 1.399 . S
C2639 C2640 1.385 . S
C2640 H2626 0.931 . S
C2640 C2639 1.385 . S
C2640 C2641 1.389 . S
C2641 C2640 1.389 . S
C2641 C2642 1.387 . S
C2642 H2627 0.930 . S
C2642 C2637 1.390 . S
C2642 C2641 1.387 . S
H2643 C2655 0.930 . S
H2644 C2657 0.930 . S
H2645 C2658 0.930 . S
H2646 C2662 0.959 . S
H2647 C2662 0.959 . S
H2648 C2662 0.961 . S
H2649 C2663 0.960 . S
H2650 C2663 0.961 . S
H2651 C2663 0.959 . S
H2652 C2666 0.929 . S
H2653 C2667 0.931 . S
H2654 C2669 0.930 . S
C2655 H2643 0.930 . S
C2655 C2656 1.399 . S
C2655 C2660 1.399 . S
C2656 C2655 1.399 . S
C2656 C2657 1.376 . S
C2657 H2644 0.930 . S
C2657 C2656 1.376 . S
C2657 C2658 1.388 . S
C2658 H2645 0.930 . S
C2658 C2657 1.388 . S
C2658 C2659 1.390 . S
C2659 C2658 1.390 . S
C2659 C2660 1.394 . S
C2659 C2665 1.465 . S
C2660 C2655 1.399 . S
C2660 C2659 1.394 . S
C2660 C2661 1.516 . S
C2661 C2660 1.516 . S
C2661 C2662 1.502 . S
C2661 C2663 1.561 . S
C2661 C2664 1.526 . S
C2662 H2646 0.959 . S
C2662 H2647 0.959 . S
C2662 H2648 0.961 . S
C2662 C2661 1.502 . S
C2663 H2649 0.960 . S
C2663 H2650 0.961 . S
C2663 H2651 0.959 . S
C2663 C2661 1.561 . S
C2664 C2661 1.526 . S
C2664 C2665 1.396 . S
C2664 C2669 1.390 . S
C2665 C2659 1.465 . S
C2665 C2664 1.396 . S
C2665 C2666 1.399 . S
C2666 H2652 0.929 . S
C2666 C2665 1.399 . S
C2666 C2667 1.385 . S
C2667 H2653 0.931 . S
C2667 C2666 1.385 . S
C2667 C2668 1.389 . S
C2668 C2667 1.389 . S
C2668 C2669 1.387 . S
C2669 H2654 0.930 . S
C2669 C2664 1.390 . S
C2669 C2668 1.387 . S
H2670 C2682 0.930 . S
H2671 C2684 0.930 . S
H2672 C2685 0.930 . S
H2673 C2689 0.959 . S
H2674 C2689 0.959 . S
H2675 C2689 0.961 . S
H2676 C2690 0.960 . S
H2677 C2690 0.961 . S
H2678 C2690 0.959 . S
H2679 C2693 0.929 . S
H2680 C2694 0.931 . S
H2681 C2696 0.930 . S
C2682 H2670 0.930 . S
C2682 C2683 1.399 . S
C2682 C2687 1.399 . S
C2683 C2682 1.399 . S
C2683 C2684 1.376 . S
C2684 H2671 0.930 . S
C2684 C2683 1.376 . S
C2684 C2685 1.388 . S
C2685 H2672 0.930 . S
C2685 C2684 1.388 . S
C2685 C2686 1.390 . S
C2686 C2685 1.390 . S
C2686 C2687 1.394 . S
C2686 C2692 1.465 . S
C2687 C2682 1.399 . S
C2687 C2686 1.394 . S
C2687 C2688 1.516 . S
C2688 C2687 1.516 . S
C2688 C2689 1.502 . S
C2688 C2690 1.561 . S
C2688 C2691 1.526 . S
C2689 H2673 0.959 . S
C2689 H2674 0.959 . S
C2689 H2675 0.961 . S
C2689 C2688 1.502 . S
C2690 H2676 0.960 . S
C2690 H2677 0.961 . S
C2690 H2678 0.959 . S
C2690 C2688 1.561 . S
C2691 C2688 1.526 . S
C2691 C2692 1.396 . S
C2691 C2696 1.390 . S
C2692 C2686 1.465 . S
C2692 C2691 1.396 . S
C2692 C2693 1.399 . S
C2693 H2679 0.929 . S
C2693 C2692 1.399 . S
C2693 C2694 1.385 . S
C2694 H2680 0.931 . S
C2694 C2693 1.385 . S
C2694 C2695 1.389 . S
C2695 C2694 1.389 . S
C2695 C2696 1.387 . S
C2696 H2681 0.930 . S
C2696 C2691 1.390 . S
C2696 C2695 1.387 . S
H2697 C2709 0.930 . S
H2698 C2711 0.930 . S
H2699 C2712 0.930 . S
H2700 C2716 0.959 . S
H2701 C2716 0.959 . S
H2702 C2716 0.961 . S
H2703 C2717 0.960 . S
H2704 C2717 0.961 . S
H2705 C2717 0.959 . S
H2706 C2720 0.929 . S
H2707 C2721 0.931 . S
H2708 C2723 0.930 . S
C2709 H2697 0.930 . S
C2709 C2710 1.399 . S
C2709 C2714 1.399 . S
C2710 C2709 1.399 . S
C2710 C2711 1.376 . S
C2711 H2698 0.930 . S
C2711 C2710 1.376 . S
C2711 C2712 1.388 . S
C2712 H2699 0.930 . S
C2712 C2711 1.388 . S
C2712 C2713 1.390 . S
C2713 C2712 1.390 . S
C2713 C2714 1.394 . S
C2713 C2719 1.465 . S
C2714 C2709 1.399 . S
C2714 C2713 1.394 . S
C2714 C2715 1.516 . S
C2715 C2714 1.516 . S
C2715 C2716 1.502 . S
C2715 C2717 1.561 . S
C2715 C2718 1.526 . S
C2716 H2700 0.959 . S
C2716 H2701 0.959 . S
C2716 H2702 0.961 . S
C2716 C2715 1.502 . S
C2717 H2703 0.960 . S
C2717 H2704 0.961 . S
C2717 H2705 0.959 . S
C2717 C2715 1.561 . S
C2718 C2715 1.526 . S
C2718 C2719 1.396 . S
C2718 C2723 1.390 . S
C2719 C2713 1.465 . S
C2719 C2718 1.396 . S
C2719 C2720 1.399 . S
C2720 H2706 0.929 . S
C2720 C2719 1.399 . S
C2720 C2721 1.385 . S
C2721 H2707 0.931 . S
C2721 C2720 1.385 . S
C2721 C2722 1.389 . S
C2722 C2721 1.389 . S
C2722 C2723 1.387 . S
C2723 H2708 0.930 . S
C2723 C2718 1.390 . S
C2723 C2722 1.387 . S
H2724 C2736 0.930 . S
H2725 C2738 0.930 . S
H2726 C2739 0.930 . S
H2727 C2743 0.959 . S
H2728 C2743 0.959 . S
H2729 C2743 0.961 . S
H2730 C2744 0.960 . S
H2731 C2744 0.961 . S
H2732 C2744 0.959 . S
H2733 C2747 0.929 . S
H2734 C2748 0.931 . S
H2735 C2750 0.930 . S
C2736 H2724 0.930 . S
C2736 C2737 1.399 . S
C2736 C2741 1.399 . S
C2737 C2736 1.399 . S
C2737 C2738 1.376 . S
C2738 H2725 0.930 . S
C2738 C2737 1.376 . S
C2738 C2739 1.388 . S
C2739 H2726 0.930 . S
C2739 C2738 1.388 . S
C2739 C2740 1.390 . S
C2740 C2739 1.390 . S
C2740 C2741 1.394 . S
C2740 C2746 1.465 . S
C2741 C2736 1.399 . S
C2741 C2740 1.394 . S
C2741 C2742 1.516 . S
C2742 C2741 1.516 . S
C2742 C2743 1.502 . S
C2742 C2744 1.561 . S
C2742 C2745 1.526 . S
C2743 H2727 0.959 . S
C2743 H2728 0.959 . S
C2743 H2729 0.961 . S
C2743 C2742 1.502 . S
C2744 H2730 0.960 . S
C2744 H2731 0.961 . S
C2744 H2732 0.959 . S
C2744 C2742 1.561 . S
C2745 C2742 1.526 . S
C2745 C2746 1.396 . S
C2745 C2750 1.390 . S
C2746 C2740 1.465 . S
C2746 C2745 1.396 . S
C2746 C2747 1.399 . S
C2747 H2733 0.929 . S
C2747 C2746 1.399 . S
C2747 C2748 1.385 . S
C2748 H2734 0.931 . S
C2748 C2747 1.385 . S
C2748 C2749 1.389 . S
C2749 C2748 1.389 . S
C2749 C2750 1.387 . S
C2750 H2735 0.930 . S
C2750 C2745 1.390 . S
C2750 C2749 1.387 . S
H2751 C2763 0.930 . S
H2752 C2765 0.930 . S
H2753 C2766 0.930 . S
H2754 C2770 0.959 . S
H2755 C2770 0.959 . S
H2756 C2770 0.961 . S
H2757 C2771 0.960 . S
H2758 C2771 0.961 . S
H2759 C2771 0.959 . S
H2760 C2774 0.929 . S
H2761 C2775 0.931 . S
H2762 C2777 0.930 . S
C2763 H2751 0.930 . S
C2763 C2764 1.399 . S
C2763 C2768 1.399 . S
C2764 C2763 1.399 . S
C2764 C2765 1.376 . S
C2765 H2752 0.930 . S
C2765 C2764 1.376 . S
C2765 C2766 1.388 . S
C2766 H2753 0.930 . S
C2766 C2765 1.388 . S
C2766 C2767 1.390 . S
C2767 C2766 1.390 . S
C2767 C2768 1.394 . S
C2767 C2773 1.465 . S
C2768 C2763 1.399 . S
C2768 C2767 1.394 . S
C2768 C2769 1.516 . S
C2769 C2768 1.516 . S
C2769 C2770 1.502 . S
C2769 C2771 1.561 . S
C2769 C2772 1.526 . S
C2770 H2754 0.959 . S
C2770 H2755 0.959 . S
C2770 H2756 0.961 . S
C2770 C2769 1.502 . S
C2771 H2757 0.960 . S
C2771 H2758 0.961 . S
C2771 H2759 0.959 . S
C2771 C2769 1.561 . S
C2772 C2769 1.526 . S
C2772 C2773 1.396 . S
C2772 C2777 1.390 . S
C2773 C2767 1.465 . S
C2773 C2772 1.396 . S
C2773 C2774 1.399 . S
C2774 H2760 0.929 . S
C2774 C2773 1.399 . S
C2774 C2775 1.385 . S
C2775 H2761 0.931 . S
C2775 C2774 1.385 . S
C2775 C2776 1.389 . S
C2776 C2775 1.389 . S
C2776 C2777 1.387 . S
C2777 H2762 0.930 . S
C2777 C2772 1.390 . S
C2777 C2776 1.387 . S
H2778 C2790 0.930 . S
H2779 C2792 0.930 . S
H2780 C2793 0.930 . S
H2781 C2797 0.959 . S
H2782 C2797 0.959 . S
H2783 C2797 0.961 . S
H2784 C2798 0.960 . S
H2785 C2798 0.961 . S
H2786 C2798 0.959 . S
H2787 C2801 0.929 . S
H2788 C2802 0.931 . S
H2789 C2804 0.930 . S
C2790 H2778 0.930 . S
C2790 C2791 1.399 . S
C2790 C2795 1.399 . S
C2791 C2790 1.399 . S
C2791 C2792 1.376 . S
C2792 H2779 0.930 . S
C2792 C2791 1.376 . S
C2792 C2793 1.388 . S
C2793 H2780 0.930 . S
C2793 C2792 1.388 . S
C2793 C2794 1.390 . S
C2794 C2793 1.390 . S
C2794 C2795 1.394 . S
C2794 C2800 1.465 . S
C2795 C2790 1.399 . S
C2795 C2794 1.394 . S
C2795 C2796 1.516 . S
C2796 C2795 1.516 . S
C2796 C2797 1.502 . S
C2796 C2798 1.561 . S
C2796 C2799 1.526 . S
C2797 H2781 0.959 . S
C2797 H2782 0.959 . S
C2797 H2783 0.961 . S
C2797 C2796 1.502 . S
C2798 H2784 0.960 . S
C2798 H2785 0.961 . S
C2798 H2786 0.959 . S
C2798 C2796 1.561 . S
C2799 C2796 1.526 . S
C2799 C2800 1.396 . S
C2799 C2804 1.390 . S
C2800 C2794 1.465 . S
C2800 C2799 1.396 . S
C2800 C2801 1.399 . S
C2801 H2787 0.929 . S
C2801 C2800 1.399 . S
C2801 C2802 1.385 . S
C2802 H2788 0.931 . S
C2802 C2801 1.385 . S
C2802 C2803 1.389 . S
C2803 C2802 1.389 . S
C2803 C2804 1.387 . S
C2804 H2789 0.930 . S
C2804 C2799 1.390 . S
C2804 C2803 1.387 . S
H2805 C2817 0.930 . S
H2806 C2819 0.930 . S
H2807 C2820 0.930 . S
H2808 C2824 0.959 . S
H2809 C2824 0.959 . S
H2810 C2824 0.961 . S
H2811 C2825 0.960 . S
H2812 C2825 0.961 . S
H2813 C2825 0.959 . S
H2814 C2828 0.929 . S
H2815 C2829 0.931 . S
H2816 C2831 0.930 . S
C2817 H2805 0.930 . S
C2817 C2818 1.399 . S
C2817 C2822 1.399 . S
C2818 C2817 1.399 . S
C2818 C2819 1.376 . S
C2819 H2806 0.930 . S
C2819 C2818 1.376 . S
C2819 C2820 1.388 . S
C2820 H2807 0.930 . S
C2820 C2819 1.388 . S
C2820 C2821 1.390 . S
C2821 C2820 1.390 . S
C2821 C2822 1.394 . S
C2821 C2827 1.465 . S
C2822 C2817 1.399 . S
C2822 C2821 1.394 . S
C2822 C2823 1.516 . S
C2823 C2822 1.516 . S
C2823 C2824 1.502 . S
C2823 C2825 1.561 . S
C2823 C2826 1.526 . S
C2824 H2808 0.959 . S
C2824 H2809 0.959 . S
C2824 H2810 0.961 . S
C2824 C2823 1.502 . S
C2825 H2811 0.960 . S
C2825 H2812 0.961 . S
C2825 H2813 0.959 . S
C2825 C2823 1.561 . S
C2826 C2823 1.526 . S
C2826 C2827 1.396 . S
C2826 C2831 1.390 . S
C2827 C2821 1.465 . S
C2827 C2826 1.396 . S
C2827 C2828 1.399 . S
C2828 H2814 0.929 . S
C2828 C2827 1.399 . S
C2828 C2829 1.385 . S
C2829 H2815 0.931 . S
C2829 C2828 1.385 . S
C2829 C2830 1.389 . S
C2830 C2829 1.389 . S
C2830 C2831 1.387 . S
C2831 H2816 0.930 . S
C2831 C2826 1.390 . S
C2831 C2830 1.387 . S
H2832 C2844 0.930 . S
H2833 C2846 0.930 . S
H2834 C2847 0.930 . S
H2835 C2851 0.959 . S
H2836 C2851 0.959 . S
H2837 C2851 0.961 . S
H2838 C2852 0.960 . S
H2839 C2852 0.961 . S
H2840 C2852 0.959 . S
H2841 C2855 0.929 . S
H2842 C2856 0.931 . S
H2843 C2858 0.930 . S
C2844 H2832 0.930 . S
C2844 C2845 1.399 . S
C2844 C2849 1.399 . S
C2845 C2844 1.399 . S
C2845 C2846 1.376 . S
C2846 H2833 0.930 . S
C2846 C2845 1.376 . S
C2846 C2847 1.388 . S
C2847 H2834 0.930 . S
C2847 C2846 1.388 . S
C2847 C2848 1.390 . S
C2848 C2847 1.390 . S
C2848 C2849 1.394 . S
C2848 C2854 1.465 . S
C2849 C2844 1.399 . S
C2849 C2848 1.394 . S
C2849 C2850 1.516 . S
C2850 C2849 1.516 . S
C2850 C2851 1.502 . S
C2850 C2852 1.561 . S
C2850 C2853 1.526 . S
C2851 H2835 0.959 . S
C2851 H2836 0.959 . S
C2851 H2837 0.961 . S
C2851 C2850 1.502 . S
C2852 H2838 0.960 . S
C2852 H2839 0.961 . S
C2852 H2840 0.959 . S
C2852 C2850 1.561 . S
C2853 C2850 1.526 . S
C2853 C2854 1.396 . S
C2853 C2858 1.390 . S
C2854 C2848 1.465 . S
C2854 C2853 1.396 . S
C2854 C2855 1.399 . S
C2855 H2841 0.929 . S
C2855 C2854 1.399 . S
C2855 C2856 1.385 . S
C2856 H2842 0.931 . S
C2856 C2855 1.385 . S
C2856 C2857 1.389 . S
C2857 C2856 1.389 . S
C2857 C2858 1.387 . S
C2858 H2843 0.930 . S
C2858 C2853 1.390 . S
C2858 C2857 1.387 . S
H2859 C2871 0.930 . S
H2860 C2873 0.930 . S
H2861 C2874 0.930 . S
H2862 C2878 0.959 . S
H2863 C2878 0.959 . S
H2864 C2878 0.961 . S
H2865 C2879 0.960 . S
H2866 C2879 0.961 . S
H2867 C2879 0.959 . S
H2868 C2882 0.929 . S
H2869 C2883 0.931 . S
H2870 C2885 0.930 . S
C2871 H2859 0.930 . S
C2871 C2872 1.399 . S
C2871 C2876 1.399 . S
C2872 C2871 1.399 . S
C2872 C2873 1.376 . S
C2873 H2860 0.930 . S
C2873 C2872 1.376 . S
C2873 C2874 1.388 . S
C2874 H2861 0.930 . S
C2874 C2873 1.388 . S
C2874 C2875 1.390 . S
C2875 C2874 1.390 . S
C2875 C2876 1.394 . S
C2875 C2881 1.465 . S
C2876 C2871 1.399 . S
C2876 C2875 1.394 . S
C2876 C2877 1.516 . S
C2877 C2876 1.516 . S
C2877 C2878 1.502 . S
C2877 C2879 1.561 . S
C2877 C2880 1.526 . S
C2878 H2862 0.959 . S
C2878 H2863 0.959 . S
C2878 H2864 0.961 . S
C2878 C2877 1.502 . S
C2879 H2865 0.960 . S
C2879 H2866 0.961 . S
C2879 H2867 0.959 . S
C2879 C2877 1.561 . S
C2880 C2877 1.526 . S
C2880 C2881 1.396 . S
C2880 C2885 1.390 . S
C2881 C2875 1.465 . S
C2881 C2880 1.396 . S
C2881 C2882 1.399 . S
C2882 H2868 0.929 . S
C2882 C2881 1.399 . S
C2882 C2883 1.385 . S
C2883 H2869 0.931 . S
C2883 C2882 1.385 . S
C2883 C2884 1.389 . S
C2884 C2883 1.389 . S
C2884 C2885 1.387 . S
C2885 H2870 0.930 . S
C2885 C2880 1.390 . S
C2885 C2884 1.387 . S
H2886 C2898 0.930 . S
H2887 C2900 0.930 . S
H2888 C2901 0.930 . S
H2889 C2905 0.959 . S
H2890 C2905 0.959 . S
H2891 C2905 0.961 . S
H2892 C2906 0.960 . S
H2893 C2906 0.961 . S
H2894 C2906 0.959 . S
H2895 C2909 0.929 . S
H2896 C2910 0.931 . S
H2897 C2912 0.930 . S
C2898 H2886 0.930 . S
C2898 C2899 1.399 . S
C2898 C2903 1.399 . S
C2899 C2898 1.399 . S
C2899 C2900 1.376 . S
C2900 H2887 0.930 . S
C2900 C2899 1.376 . S
C2900 C2901 1.388 . S
C2901 H2888 0.930 . S
C2901 C2900 1.388 . S
C2901 C2902 1.390 . S
C2902 C2901 1.390 . S
C2902 C2903 1.394 . S
C2902 C2908 1.465 . S
C2903 C2898 1.399 . S
C2903 C2902 1.394 . S
C2903 C2904 1.516 . S
C2904 C2903 1.516 . S
C2904 C2905 1.502 . S
C2904 C2906 1.561 . S
C2904 C2907 1.526 . S
C2905 H2889 0.959 . S
C2905 H2890 0.959 . S
C2905 H2891 0.961 . S
C2905 C2904 1.502 . S
C2906 H2892 0.960 . S
C2906 H2893 0.961 . S
C2906 H2894 0.959 . S
C2906 C2904 1.561 . S
C2907 C2904 1.526 . S
C2907 C2908 1.396 . S
C2907 C2912 1.390 . S
C2908 C2902 1.465 . S
C2908 C2907 1.396 . S
C2908 C2909 1.399 . S
C2909 H2895 0.929 . S
C2909 C2908 1.399 . S
C2909 C2910 1.385 . S
C2910 H2896 0.931 . S
C2910 C2909 1.385 . S
C2910 C2911 1.389 . S
C2911 C2910 1.389 . S
C2911 C2912 1.387 . S
C2912 H2897 0.930 . S
C2912 C2907 1.390 . S
C2912 C2911 1.387 . S
H2913 C2925 0.930 . S
H2914 C2927 0.930 . S
H2915 C2928 0.930 . S
H2916 C2932 0.959 . S
H2917 C2932 0.959 . S
H2918 C2932 0.961 . S
H2919 C2933 0.960 . S
H2920 C2933 0.961 . S
H2921 C2933 0.959 . S
H2922 C2936 0.929 . S
H2923 C2937 0.931 . S
H2924 C2939 0.930 . S
C2925 H2913 0.930 . S
C2925 C2926 1.399 . S
C2925 C2930 1.399 . S
C2926 C2925 1.399 . S
C2926 C2927 1.376 . S
C2927 H2914 0.930 . S
C2927 C2926 1.376 . S
C2927 C2928 1.388 . S
C2928 H2915 0.930 . S
C2928 C2927 1.388 . S
C2928 C2929 1.390 . S
C2929 C2928 1.390 . S
C2929 C2930 1.394 . S
C2929 C2935 1.465 . S
C2930 C2925 1.399 . S
C2930 C2929 1.394 . S
C2930 C2931 1.516 . S
C2931 C2930 1.516 . S
C2931 C2932 1.502 . S
C2931 C2933 1.561 . S
C2931 C2934 1.526 . S
C2932 H2916 0.959 . S
C2932 H2917 0.959 . S
C2932 H2918 0.961 . S
C2932 C2931 1.502 . S
C2933 H2919 0.960 . S
C2933 H2920 0.961 . S
C2933 H2921 0.959 . S
C2933 C2931 1.561 . S
C2934 C2931 1.526 . S
C2934 C2935 1.396 . S
C2934 C2939 1.390 . S
C2935 C2929 1.465 . S
C2935 C2934 1.396 . S
C2935 C2936 1.399 . S
C2936 H2922 0.929 . S
C2936 C2935 1.399 . S
C2936 C2937 1.385 . S
C2937 H2923 0.931 . S
C2937 C2936 1.385 . S
C2937 C2938 1.389 . S
C2938 C2937 1.389 . S
C2938 C2939 1.387 . S
C2939 H2924 0.930 . S
C2939 C2934 1.390 . S
C2939 C2938 1.387 . S
H2940 C2952 0.930 . S
H2941 C2954 0.930 . S
H2942 C2955 0.930 . S
H2943 C2959 0.959 . S
H2944 C2959 0.959 . S
H2945 C2959 0.961 . S
H2946 C2960 0.960 . S
H2947 C2960 0.961 . S
H2948 C2960 0.959 . S
H2949 C2963 0.929 . S
H2950 C2964 0.931 . S
H2951 C2966 0.930 . S
C2952 H2940 0.930 . S
C2952 C2953 1.399 . S
C2952 C2957 1.399 . S
C2953 C2952 1.399 . S
C2953 C2954 1.376 . S
C2954 H2941 0.930 . S
C2954 C2953 1.376 . S
C2954 C2955 1.388 . S
C2955 H2942 0.930 . S
C2955 C2954 1.388 . S
C2955 C2956 1.390 . S
C2956 C2955 1.390 . S
C2956 C2957 1.394 . S
C2956 C2962 1.465 . S
C2957 C2952 1.399 . S
C2957 C2956 1.394 . S
C2957 C2958 1.516 . S
C2958 C2957 1.516 . S
C2958 C2959 1.502 . S
C2958 C2960 1.561 . S
C2958 C2961 1.526 . S
C2959 H2943 0.959 . S
C2959 H2944 0.959 . S
C2959 H2945 0.961 . S
C2959 C2958 1.502 . S
C2960 H2946 0.960 . S
C2960 H2947 0.961 . S
C2960 H2948 0.959 . S
C2960 C2958 1.561 . S
C2961 C2958 1.526 . S
C2961 C2962 1.396 . S
C2961 C2966 1.390 . S
C2962 C2956 1.465 . S
C2962 C2961 1.396 . S
C2962 C2963 1.399 . S
C2963 H2949 0.929 . S
C2963 C2962 1.399 . S
C2963 C2964 1.385 . S
C2964 H2950 0.931 . S
C2964 C2963 1.385 . S
C2964 C2965 1.389 . S
C2965 C2964 1.389 . S
C2965 C2966 1.387 . S
C2966 H2951 0.930 . S
C2966 C2961 1.390 . S
C2966 C2965 1.387 . S
H2967 C2979 0.930 . S
H2968 C2981 0.930 . S
H2969 C2982 0.930 . S
H2970 C2986 0.959 . S
H2971 C2986 0.959 . S
H2972 C2986 0.961 . S
H2973 C2987 0.960 . S
H2974 C2987 0.961 . S
H2975 C2987 0.959 . S
H2976 C2990 0.929 . S
H2977 C2991 0.931 . S
H2978 C2993 0.930 . S
C2979 H2967 0.930 . S
C2979 C2980 1.399 . S
C2979 C2984 1.399 . S
C2980 C2979 1.399 . S
C2980 C2981 1.376 . S
C2981 H2968 0.930 . S
C2981 C2980 1.376 . S
C2981 C2982 1.388 . S
C2982 H2969 0.930 . S
C2982 C2981 1.388 . S
C2982 C2983 1.390 . S
C2983 C2982 1.390 . S
C2983 C2984 1.394 . S
C2983 C2989 1.465 . S
C2984 C2979 1.399 . S
C2984 C2983 1.394 . S
C2984 C2985 1.516 . S
C2985 C2984 1.516 . S
C2985 C2986 1.502 . S
C2985 C2987 1.561 . S
C2985 C2988 1.526 . S
C2986 H2970 0.959 . S
C2986 H2971 0.959 . S
C2986 H2972 0.961 . S
C2986 C2985 1.502 . S
C2987 H2973 0.960 . S
C2987 H2974 0.961 . S
C2987 H2975 0.959 . S
C2987 C2985 1.561 . S
C2988 C2985 1.526 . S
C2988 C2989 1.396 . S
C2988 C2993 1.390 . S
C2989 C2983 1.465 . S
C2989 C2988 1.396 . S
C2989 C2990 1.399 . S
C2990 H2976 0.929 . S
C2990 C2989 1.399 . S
C2990 C2991 1.385 . S
C2991 H2977 0.931 . S
C2991 C2990 1.385 . S
C2991 C2992 1.389 . S
C2992 C2991 1.389 . S
C2992 C2993 1.387 . S
C2993 H2978 0.930 . S
C2993 C2988 1.390 . S
C2993 C2992 1.387 . S
H2994 C3006 0.930 . S
H2995 C3008 0.930 . S
H2996 C3009 0.930 . S
H2997 C3013 0.959 . S
H2998 C3013 0.959 . S
H2999 C3013 0.961 . S
H3000 C3014 0.960 . S
H3001 C3014 0.961 . S
H3002 C3014 0.959 . S
H3003 C3017 0.929 . S
H3004 C3018 0.931 . S
H3005 C3020 0.930 . S
C3006 H2994 0.930 . S
C3006 C3007 1.399 . S
C3006 C3011 1.399 . S
C3007 C3006 1.399 . S
C3007 C3008 1.376 . S
C3008 H2995 0.930 . S
C3008 C3007 1.376 . S
C3008 C3009 1.388 . S
C3009 H2996 0.930 . S
C3009 C3008 1.388 . S
C3009 C3010 1.390 . S
C3010 C3009 1.390 . S
C3010 C3011 1.394 . S
C3010 C3016 1.465 . S
C3011 C3006 1.399 . S
C3011 C3010 1.394 . S
C3011 C3012 1.516 . S
C3012 C3011 1.516 . S
C3012 C3013 1.502 . S
C3012 C3014 1.561 . S
C3012 C3015 1.526 . S
C3013 H2997 0.959 . S
C3013 H2998 0.959 . S
C3013 H2999 0.961 . S
C3013 C3012 1.502 . S
C3014 H3000 0.960 . S
C3014 H3001 0.961 . S
C3014 H3002 0.959 . S
C3014 C3012 1.561 . S
C3015 C3012 1.526 . S
C3015 C3016 1.396 . S
C3015 C3020 1.390 . S
C3016 C3010 1.465 . S
C3016 C3015 1.396 . S
C3016 C3017 1.399 . S
C3017 H3003 0.929 . S
C3017 C3016 1.399 . S
C3017 C3018 1.385 . S
C3018 H3004 0.931 . S
C3018 C3017 1.385 . S
C3018 C3019 1.389 . S
C3019 C3018 1.389 . S
C3019 C3020 1.387 . S
C3020 H3005 0.930 . S
C3020 C3015 1.390 . S
C3020 C3019 1.387 . S
H3021 C3033 0.930 . S
H3022 C3035 0.930 . S
H3023 C3036 0.930 . S
H3024 C3040 0.959 . S
H3025 C3040 0.959 . S
H3026 C3040 0.961 . S
H3027 C3041 0.960 . S
H3028 C3041 0.961 . S
H3029 C3041 0.959 . S
H3030 C3044 0.929 . S
H3031 C3045 0.931 . S
H3032 C3047 0.930 . S
C3033 H3021 0.930 . S
C3033 C3034 1.399 . S
C3033 C3038 1.399 . S
C3034 C3033 1.399 . S
C3034 C3035 1.376 . S
C3035 H3022 0.930 . S
C3035 C3034 1.376 . S
C3035 C3036 1.388 . S
C3036 H3023 0.930 . S
C3036 C3035 1.388 . S
C3036 C3037 1.390 . S
C3037 C3036 1.390 . S
C3037 C3038 1.394 . S
C3037 C3043 1.465 . S
C3038 C3033 1.399 . S
C3038 C3037 1.394 . S
C3038 C3039 1.516 . S
C3039 C3038 1.516 . S
C3039 C3040 1.502 . S
C3039 C3041 1.561 . S
C3039 C3042 1.526 . S
C3040 H3024 0.959 . S
C3040 H3025 0.959 . S
C3040 H3026 0.961 . S
C3040 C3039 1.502 . S
C3041 H3027 0.960 . S
C3041 H3028 0.961 . S
C3041 H3029 0.959 . S
C3041 C3039 1.561 . S
C3042 C3039 1.526 . S
C3042 C3043 1.396 . S
C3042 C3047 1.390 . S
C3043 C3037 1.465 . S
C3043 C3042 1.396 . S
C3043 C3044 1.399 . S
C3044 H3030 0.929 . S
C3044 C3043 1.399 . S
C3044 C3045 1.385 . S
C3045 H3031 0.931 . S
C3045 C3044 1.385 . S
C3045 C3046 1.389 . S
C3046 C3045 1.389 . S
C3046 C3047 1.387 . S
C3047 H3032 0.930 . S
C3047 C3042 1.390 . S
C3047 C3046 1.387 . S
H3048 C3060 0.930 . S
H3049 C3062 0.930 . S
H3050 C3063 0.930 . S
H3051 C3067 0.959 . S
H3052 C3067 0.959 . S
H3053 C3067 0.961 . S
H3054 C3068 0.960 . S
H3055 C3068 0.961 . S
H3056 C3068 0.959 . S
H3057 C3071 0.929 . S
H3058 C3072 0.931 . S
H3059 C3074 0.930 . S
C3060 H3048 0.930 . S
C3060 C3061 1.399 . S
C3060 C3065 1.399 . S
C3061 C3060 1.399 . S
C3061 C3062 1.376 . S
C3062 H3049 0.930 . S
C3062 C3061 1.376 . S
C3062 C3063 1.388 . S
C3063 H3050 0.930 . S
C3063 C3062 1.388 . S
C3063 C3064 1.390 . S
C3064 C3063 1.390 . S
C3064 C3065 1.394 . S
C3064 C3070 1.465 . S
C3065 C3060 1.399 . S
C3065 C3064 1.394 . S
C3065 C3066 1.516 . S
C3066 C3065 1.516 . S
C3066 C3067 1.502 . S
C3066 C3068 1.561 . S
C3066 C3069 1.526 . S
C3067 H3051 0.959 . S
C3067 H3052 0.959 . S
C3067 H3053 0.961 . S
C3067 C3066 1.502 . S
C3068 H3054 0.960 . S
C3068 H3055 0.961 . S
C3068 H3056 0.959 . S
C3068 C3066 1.561 . S
C3069 C3066 1.526 . S
C3069 C3070 1.396 . S
C3069 C3074 1.390 . S
C3070 C3064 1.465 . S
C3070 C3069 1.396 . S
C3070 C3071 1.399 . S
C3071 H3057 0.929 . S
C3071 C3070 1.399 . S
C3071 C3072 1.385 . S
C3072 H3058 0.931 . S
C3072 C3071 1.385 . S
C3072 C3073 1.389 . S
C3073 C3072 1.389 . S
C3073 C3074 1.387 . S
C3074 H3059 0.930 . S
C3074 C3069 1.390 . S
C3074 C3073 1.387 . S
H3075 C3087 0.930 . S
H3076 C3089 0.930 . S
H3077 C3090 0.930 . S
H3078 C3094 0.959 . S
H3079 C3094 0.959 . S
H3080 C3094 0.961 . S
H3081 C3095 0.960 . S
H3082 C3095 0.961 . S
H3083 C3095 0.959 . S
H3084 C3098 0.929 . S
H3085 C3099 0.931 . S
H3086 C3101 0.930 . S
C3087 H3075 0.930 . S
C3087 C3088 1.399 . S
C3087 C3092 1.399 . S
C3088 C3087 1.399 . S
C3088 C3089 1.376 . S
C3089 H3076 0.930 . S
C3089 C3088 1.376 . S
C3089 C3090 1.388 . S
C3090 H3077 0.930 . S
C3090 C3089 1.388 . S
C3090 C3091 1.390 . S
C3091 C3090 1.390 . S
C3091 C3092 1.394 . S
C3091 C3097 1.465 . S
C3092 C3087 1.399 . S
C3092 C3091 1.394 . S
C3092 C3093 1.516 . S
C3093 C3092 1.516 . S
C3093 C3094 1.502 . S
C3093 C3095 1.561 . S
C3093 C3096 1.526 . S
C3094 H3078 0.959 . S
C3094 H3079 0.959 . S
C3094 H3080 0.961 . S
C3094 C3093 1.502 . S
C3095 H3081 0.960 . S
C3095 H3082 0.961 . S
C3095 H3083 0.959 . S
C3095 C3093 1.561 . S
C3096 C3093 1.526 . S
C3096 C3097 1.396 . S
C3096 C3101 1.390 . S
C3097 C3091 1.465 . S
C3097 C3096 1.396 . S
C3097 C3098 1.399 . S
C3098 H3084 0.929 . S
C3098 C3097 1.399 . S
C3098 C3099 1.385 . S
C3099 H3085 0.931 . S
C3099 C3098 1.385 . S
C3099 C3100 1.389 . S
C3100 C3099 1.389 . S
C3100 C3101 1.387 . S
C3101 H3086 0.930 . S
C3101 C3096 1.390 . S
C3101 C3100 1.387 . S
H3102 C3114 0.930 . S
H3103 C3116 0.930 . S
H3104 C3117 0.930 . S
H3105 C3121 0.959 . S
H3106 C3121 0.959 . S
H3107 C3121 0.961 . S
H3108 C3122 0.960 . S
H3109 C3122 0.961 . S
H3110 C3122 0.959 . S
H3111 C3125 0.929 . S
H3112 C3126 0.931 . S
H3113 C3128 0.930 . S
C3114 H3102 0.930 . S
C3114 C3115 1.399 . S
C3114 C3119 1.399 . S
C3115 C3114 1.399 . S
C3115 C3116 1.376 . S
C3116 H3103 0.930 . S
C3116 C3115 1.376 . S
C3116 C3117 1.388 . S
C3117 H3104 0.930 . S
C3117 C3116 1.388 . S
C3117 C3118 1.390 . S
C3118 C3117 1.390 . S
C3118 C3119 1.394 . S
C3118 C3124 1.465 . S
C3119 C3114 1.399 . S
C3119 C3118 1.394 . S
C3119 C3120 1.516 . S
C3120 C3119 1.516 . S
C3120 C3121 1.502 . S
C3120 C3122 1.561 . S
C3120 C3123 1.526 . S
C3121 H3105 0.959 . S
C3121 H3106 0.959 . S
C3121 H3107 0.961 . S
C3121 C3120 1.502 . S
C3122 H3108 0.960 . S
C3122 H3109 0.961 . S
C3122 H3110 0.959 . S
C3122 C3120 1.561 . S
C3123 C3120 1.526 . S
C3123 C3124 1.396 . S
C3123 C3128 1.390 . S
C3124 C3118 1.465 . S
C3124 C3123 1.396 . S
C3124 C3125 1.399 . S
C3125 H3111 0.929 . S
C3125 C3124 1.399 . S
C3125 C3126 1.385 . S
C3126 H3112 0.931 . S
C3126 C3125 1.385 . S
C3126 C3127 1.389 . S
C3127 C3126 1.389 . S
C3127 C3128 1.387 . S
C3128 H3113 0.930 . S
C3128 C3123 1.390 . S
C3128 C3127 1.387 . S
H3129 C3141 0.930 . S
H3130 C3143 0.930 . S
H3131 C3144 0.930 . S
H3132 C3148 0.959 . S
H3133 C3148 0.959 . S
H3134 C3148 0.961 . S
H3135 C3149 0.960 . S
H3136 C3149 0.961 . S
H3137 C3149 0.959 . S
H3138 C3152 0.929 . S
H3139 C3153 0.931 . S
H3140 C3155 0.930 . S
C3141 H3129 0.930 . S
C3141 C3142 1.399 . S
C3141 C3146 1.399 . S
C3142 C3141 1.399 . S
C3142 C3143 1.376 . S
C3143 H3130 0.930 . S
C3143 C3142 1.376 . S
C3143 C3144 1.388 . S
C3144 H3131 0.930 . S
C3144 C3143 1.388 . S
C3144 C3145 1.390 . S
C3145 C3144 1.390 . S
C3145 C3146 1.394 . S
C3145 C3151 1.465 . S
C3146 C3141 1.399 . S
C3146 C3145 1.394 . S
C3146 C3147 1.516 . S
C3147 C3146 1.516 . S
C3147 C3148 1.502 . S
C3147 C3149 1.561 . S
C3147 C3150 1.526 . S
C3148 H3132 0.959 . S
C3148 H3133 0.959 . S
C3148 H3134 0.961 . S
C3148 C3147 1.502 . S
C3149 H3135 0.960 . S
C3149 H3136 0.961 . S
C3149 H3137 0.959 . S
C3149 C3147 1.561 . S
C3150 C3147 1.526 . S
C3150 C3151 1.396 . S
C3150 C3155 1.390 . S
C3151 C3145 1.465 . S
C3151 C3150 1.396 . S
C3151 C3152 1.399 . S
C3152 H3138 0.929 . S
C3152 C3151 1.399 . S
C3152 C3153 1.385 . S
C3153 H3139 0.931 . S
C3153 C3152 1.385 . S
C3153 C3154 1.389 . S
C3154 C3153 1.389 . S
C3154 C3155 1.387 . S
C3155 H3140 0.930 . S
C3155 C3150 1.390 . S
C3155 C3154 1.387 . S
H3156 C3168 0.930 . S
H3157 C3170 0.930 . S
H3158 C3171 0.930 . S
H3159 C3175 0.959 . S
H3160 C3175 0.959 . S
H3161 C3175 0.961 . S
H3162 C3176 0.960 . S
H3163 C3176 0.961 . S
H3164 C3176 0.959 . S
H3165 C3179 0.929 . S
H3166 C3180 0.931 . S
H3167 C3182 0.930 . S
C3168 H3156 0.930 . S
C3168 C3169 1.399 . S
C3168 C3173 1.399 . S
C3169 C3168 1.399 . S
C3169 C3170 1.376 . S
C3170 H3157 0.930 . S
C3170 C3169 1.376 . S
C3170 C3171 1.388 . S
C3171 H3158 0.930 . S
C3171 C3170 1.388 . S
C3171 C3172 1.390 . S
C3172 C3171 1.390 . S
C3172 C3173 1.394 . S
C3172 C3178 1.465 . S
C3173 C3168 1.399 . S
C3173 C3172 1.394 . S
C3173 C3174 1.516 . S
C3174 C3173 1.516 . S
C3174 C3175 1.502 . S
C3174 C3176 1.561 . S
C3174 C3177 1.526 . S
C3175 H3159 0.959 . S
C3175 H3160 0.959 . S
C3175 H3161 0.961 . S
C3175 C3174 1.502 . S
C3176 H3162 0.960 . S
C3176 H3163 0.961 . S
C3176 H3164 0.959 . S
C3176 C3174 1.561 . S
C3177 C3174 1.526 . S
C3177 C3178 1.396 . S
C3177 C3182 1.390 . S
C3178 C3172 1.465 . S
C3178 C3177 1.396 . S
C3178 C3179 1.399 . S
C3179 H3165 0.929 . S
C3179 C3178 1.399 . S
C3179 C3180 1.385 . S
C3180 H3166 0.931 . S
C3180 C3179 1.385 . S
C3180 C3181 1.389 . S
C3181 C3180 1.389 . S
C3181 C3182 1.387 . S
C3182 H3167 0.930 . S
C3182 C3177 1.390 . S
C3182 C3181 1.387 . S
H3183 C3195 0.930 . S
H3184 C3197 0.930 . S
H3185 C3198 0.930 . S
H3186 C3202 0.959 . S
H3187 C3202 0.959 . S
H3188 C3202 0.961 . S
H3189 C3203 0.960 . S
H3190 C3203 0.961 . S
H3191 C3203 0.959 . S
H3192 C3206 0.929 . S
H3193 C3207 0.931 . S
H3194 C3209 0.930 . S
C3195 H3183 0.930 . S
C3195 C3196 1.399 . S
C3195 C3200 1.399 . S
C3196 C3195 1.399 . S
C3196 C3197 1.376 . S
C3197 H3184 0.930 . S
C3197 C3196 1.376 . S
C3197 C3198 1.388 . S
C3198 H3185 0.930 . S
C3198 C3197 1.388 . S
C3198 C3199 1.390 . S
C3199 C3198 1.390 . S
C3199 C3200 1.394 . S
C3199 C3205 1.465 . S
C3200 C3195 1.399 . S
C3200 C3199 1.394 . S
C3200 C3201 1.516 . S
C3201 C3200 1.516 . S
C3201 C3202 1.502 . S
C3201 C3203 1.561 . S
C3201 C3204 1.526 . S
C3202 H3186 0.959 . S
C3202 H3187 0.959 . S
C3202 H3188 0.961 . S
C3202 C3201 1.502 . S
C3203 H3189 0.960 . S
C3203 H3190 0.961 . S
C3203 H3191 0.959 . S
C3203 C3201 1.561 . S
C3204 C3201 1.526 . S
C3204 C3205 1.396 . S
C3204 C3209 1.390 . S
C3205 C3199 1.465 . S
C3205 C3204 1.396 . S
C3205 C3206 1.399 . S
C3206 H3192 0.929 . S
C3206 C3205 1.399 . S
C3206 C3207 1.385 . S
C3207 H3193 0.931 . S
C3207 C3206 1.385 . S
C3207 C3208 1.389 . S
C3208 C3207 1.389 . S
C3208 C3209 1.387 . S
C3209 H3194 0.930 . S
C3209 C3204 1.390 . S
C3209 C3208 1.387 . S
H3210 C3222 0.930 . S
H3211 C3224 0.930 . S
H3212 C3225 0.930 . S
H3213 C3229 0.959 . S
H3214 C3229 0.959 . S
H3215 C3229 0.961 . S
H3216 C3230 0.960 . S
H3217 C3230 0.961 . S
H3218 C3230 0.959 . S
H3219 C3233 0.929 . S
H3220 C3234 0.931 . S
H3221 C3236 0.930 . S
C3222 H3210 0.930 . S
C3222 C3223 1.399 . S
C3222 C3227 1.399 . S
C3223 C3222 1.399 . S
C3223 C3224 1.376 . S
C3224 H3211 0.930 . S
C3224 C3223 1.376 . S
C3224 C3225 1.388 . S
C3225 H3212 0.930 . S
C3225 C3224 1.388 . S
C3225 C3226 1.390 . S
C3226 C3225 1.390 . S
C3226 C3227 1.394 . S
C3226 C3232 1.465 . S
C3227 C3222 1.399 . S
C3227 C3226 1.394 . S
C3227 C3228 1.516 . S
C3228 C3227 1.516 . S
C3228 C3229 1.502 . S
C3228 C3230 1.561 . S
C3228 C3231 1.526 . S
C3229 H3213 0.959 . S
C3229 H3214 0.959 . S
C3229 H3215 0.961 . S
C3229 C3228 1.502 . S
C3230 H3216 0.960 . S
C3230 H3217 0.961 . S
C3230 H3218 0.959 . S
C3230 C3228 1.561 . S
C3231 C3228 1.526 . S
C3231 C3232 1.396 . S
C3231 C3236 1.390 . S
C3232 C3226 1.465 . S
C3232 C3231 1.396 . S
C3232 C3233 1.399 . S
C3233 H3219 0.929 . S
C3233 C3232 1.399 . S
C3233 C3234 1.385 . S
C3234 H3220 0.931 . S
C3234 C3233 1.385 . S
C3234 C3235 1.389 . S
C3235 C3234 1.389 . S
C3235 C3236 1.387 . S
C3236 H3221 0.930 . S
C3236 C3231 1.390 . S
C3236 C3235 1.387 . S
H3237 C3249 0.930 . S
H3238 C3251 0.930 . S
H3239 C3252 0.930 . S
H3240 C3256 0.959 . S
H3241 C3256 0.959 . S
H3242 C3256 0.961 . S
H3243 C3257 0.960 . S
H3244 C3257 0.961 . S
H3245 C3257 0.959 . S
H3246 C3260 0.929 . S
H3247 C3261 0.931 . S
H3248 C3263 0.930 . S
C3249 H3237 0.930 . S
C3249 C3250 1.399 . S
C3249 C3254 1.399 . S
C3250 C3249 1.399 . S
C3250 C3251 1.376 . S
C3251 H3238 0.930 . S
C3251 C3250 1.376 . S
C3251 C3252 1.388 . S
C3252 H3239 0.930 . S
C3252 C3251 1.388 . S
C3252 C3253 1.390 . S
C3253 C3252 1.390 . S
C3253 C3254 1.394 . S
C3253 C3259 1.465 . S
C3254 C3249 1.399 . S
C3254 C3253 1.394 . S
C3254 C3255 1.516 . S
C3255 C3254 1.516 . S
C3255 C3256 1.502 . S
C3255 C3257 1.561 . S
C3255 C3258 1.526 . S
C3256 H3240 0.959 . S
C3256 H3241 0.959 . S
C3256 H3242 0.961 . S
C3256 C3255 1.502 . S
C3257 H3243 0.960 . S
C3257 H3244 0.961 . S
C3257 H3245 0.959 . S
C3257 C3255 1.561 . S
C3258 C3255 1.526 . S
C3258 C3259 1.396 . S
C3258 C3263 1.390 . S
C3259 C3253 1.465 . S
C3259 C3258 1.396 . S
C3259 C3260 1.399 . S
C3260 H3246 0.929 . S
C3260 C3259 1.399 . S
C3260 C3261 1.385 . S
C3261 H3247 0.931 . S
C3261 C3260 1.385 . S
C3261 C3262 1.389 . S
C3262 C3261 1.389 . S
C3262 C3263 1.387 . S
C3263 H3248 0.930 . S
C3263 C3258 1.390 . S
C3263 C3262 1.387 . S
C685 C132 1.528 . S
C697 C6 1.553 . S
C712 C146 1.549 . S
C724 C20 1.536 . S
C739 C160 1.539 . S
C751 C34 1.546 . S
C766 C48 1.550 . S
C778 C118 1.486 . S
C793 C216 1.503 . S
C805 C62 1.559 . S
C820 C76 1.559 . S
C832 C174 1.501 . S
C847 C188 1.557 . S
C859 C90 1.521 . S
C874 C202 1.505 . S
C886 C104 1.490 . S
C901 C230 1.537 . S
C913 C258 1.547 . S
C928 C244 1.495 . S
C940 C314 1.557 . S
C955 C272 1.545 . S
C967 C328 1.483 . S
C982 C286 1.538 . S
C994 C300 1.547 . S
C1009 C342 1.533 . S
C1021 C468 1.480 . S
C1036 C482 1.554 . S
C1048 C356 1.527 . S
C1063 C370 1.503 . S
C1075 C496 1.491 . S
C1090 C384 1.488 . S
C1102 C454 1.553 . S
C1117 C552 1.556 . S
C1129 C398 1.523 . S
C1144 C510 1.550 . S
C1156 C412 1.486 . S
C1171 C524 1.512 . S
C1183 C426 1.485 . S
C1198 C538 1.534 . S
C1210 C440 1.550 . S
C1225 C566 1.541 . S
C1237 C594 1.481 . S
C1252 C580 1.484 . S
C1264 C650 1.549 . S
C1279 C608 1.550 . S
C1291 C664 1.486 . S
C1306 C636 1.551 . S
C1318 C622 1.486 . S
C1333 C121 1.412 . S
C1345 C8 1.452 . S
C1360 C135 1.325 . S
C1372 C22 1.463 . S
C1387 C36 1.455 . S
C1399 C149 1.396 . S
C1414 C50 1.462 . S
C1426 C163 1.307 . S
C1441 C64 1.457 . S
C1453 C177 1.390 . S
C1468 C78 1.456 . S
C1480 C191 1.325 . S
C1495 C92 1.459 . S
C1507 C205 1.310 . S
C1522 C219 1.403 . S
C1534 C106 1.454 . S
C1549 C120 1.448 . S
C1561 C233 1.397 . S
C1576 C331 1.367 . S
C1588 C134 1.450 . S
C1603 C148 1.459 . S
C1615 C303 1.372 . S
C1630 C162 1.449 . S
C1642 C317 1.382 . S
C1657 C176 1.462 . S
C1669 C247 1.347 . S
C1684 C190 1.461 . S
C1696 C261 1.352 . S
C1711 C204 1.448 . S
C1723 C275 1.405 . S
C1738 C289 1.406 . S
C1750 C218 1.449 . S
C1765 C9 1.311 . S
C1777 C232 1.463 . S
C1792 C246 1.462 . S
C1804 C65 1.339 . S
C1819 C260 1.456 . S
C1831 C79 1.390 . S
C1846 C274 1.449 . S
C1858 C93 1.386 . S
C1873 C107 1.347 . S
C1885 C288 1.453 . S
C1900 C302 1.455 . S
C1912 C37 1.397 . S
C1927 C316 1.448 . S
C1939 C51 1.410 . S
C1954 C23 1.390 . S
C1966 C330 1.457 . S
C1981 C457 1.327 . S
C1993 C344 1.463 . S
C2008 C358 1.463 . S
C2020 C471 1.336 . S
C2035 C372 1.451 . S
C2047 C485 1.361 . S
C2062 C499 1.335 . S
C2074 C386 1.463 . S
C2089 C513 1.316 . S
C2101 C400 1.458 . S
C2116 C414 1.462 . S
C2128 C527 1.309 . S
C2143 C541 1.413 . S
C2155 C428 1.449 . S
C2170 C555 1.397 . S
C2182 C442 1.456 . S
C2197 C456 1.449 . S
C2209 C569 1.412 . S
C2224 C470 1.452 . S
C2236 C667 1.353 . S
C2251 C484 1.463 . S
C2263 C639 1.319 . S
C2278 C653 1.317 . S
C2290 C498 1.463 . S
C2305 C512 1.461 . S
C2317 C583 1.307 . S
C2332 C526 1.463 . S
C2344 C597 1.323 . S
C2359 C611 1.407 . S
C2371 C540 1.453 . S
C2386 C625 1.408 . S
C2398 C554 1.449 . S
C2413 C568 1.461 . S
C2425 C345 1.307 . S
C2440 C582 1.449 . S
C2452 C401 1.411 . S
C2467 C415 1.378 . S
C2479 C596 1.450 . S
C2494 C610 1.457 . S
C2506 C429 1.320 . S
C2521 C624 1.450 . S
C2533 C443 1.413 . S
C2548 C373 1.359 . S
C2560 C638 1.461 . S
C2575 C652 1.460 . S
C2587 C387 1.310 . S
C2602 C359 1.396 . S
C2614 C666 1.456 . S
C2629 C441 1.671 . S
C2641 C7 1.682 . S
C2656 C21 1.578 . S
C2668 C399 1.595 . S
C2683 C413 1.617 . S
C2695 C35 1.649 . S
C2710 C427 1.679 . S
C2722 C49 1.681 . S
C2737 C63 1.645 . S
C2749 C357 1.613 . S
C2764 C371 1.645 . S
C2776 C77 1.613 . S
C2791 C385 1.679 . S
C2803 C91 1.658 . S
C2818 C105 1.594 . S
C2830 C343 1.579 . S
C2845 C623 1.661 . S
C2857 C119 1.680 . S
C2872 C133 1.605 . S
C2884 C581 1.637 . S
C2899 C147 1.585 . S
C2911 C595 1.611 . S
C2926 C609 1.675 . S
C2938 C161 1.682 . S
C2953 C665 1.663 . S
C2965 C175 1.632 . S
C2980 C637 1.625 . S
C2992 C189 1.596 . S
C3007 C203 1.678 . S
C3019 C651 1.682 . S
C3034 C567 1.595 . S
C3046 C217 1.580 . S
C3061 C231 1.668 . S
C3073 C553 1.682 . S
C3088 C469 1.663 . S
C3100 C245 1.632 . S
C3115 C259 1.683 . S
C3127 C483 1.675 . S
C3142 C497 1.619 . S
C3154 C273 1.651 . S
C3169 C455 1.674 . S
C3181 C287 1.648 . S
C3196 C301 1.681 . S
C3208 C525 1.679 . S
C3223 C539 1.680 . S
C3235 C315 1.680 . S
C3250 C511 1.624 . S
C3262 C329 1.656 . S
