# Generated by pormake.
# Topology uml, (4)-cn, num edge types: 1
# Building blocks:
#     Node 0, Type 0, BuildingBlock: QUQFOY_clean_sbu_1, # of connection points: 4
#     Node 1, Type 0, BuildingBlock: QUQFOY_clean_sbu_1, # of connection points: 4
#     Node 2, Type 0, BuildingBlock: QUQFOY_clean_sbu_1, # of connection points: 4
#     Node 3, Type 0, BuildingBlock: QUQFOY_clean_sbu_1, # of connection points: 4
#     Node 4, Type 0, BuildingBlock: QUQFOY_clean_sbu_1, # of connection points: 4
#     Node 5, Type 0, BuildingBlock: QUQFOY_clean_sbu_1, # of connection points: 4
#     Node 6, Type 0, BuildingBlock: QUQFOY_clean_sbu_1, # of connection points: 4
#     Node 7, Type 0, BuildingBlock: QUQFOY_clean_sbu_1, # of connection points: 4
#     Node 8, Type 0, BuildingBlock: QUQFOY_clean_sbu_1, # of connection points: 4
#     Node 9, Type 0, BuildingBlock: QUQFOY_clean_sbu_1, # of connection points: 4
#     Node 10, Type 0, BuildingBlock: QUQFOY_clean_sbu_1, # of connection points: 4
#     Node 11, Type 0, BuildingBlock: QUQFOY_clean_sbu_1, # of connection points: 4
#     Node 12, Type 0, BuildingBlock: QUQFOY_clean_sbu_1, # of connection points: 4
#     Node 13, Type 0, BuildingBlock: QUQFOY_clean_sbu_1, # of connection points: 4
#     Node 14, Type 0, BuildingBlock: QUQFOY_clean_sbu_1, # of connection points: 4
#     Node 15, Type 0, BuildingBlock: QUQFOY_clean_sbu_1, # of connection points: 4
#     Node 16, Type 0, BuildingBlock: QUQFOY_clean_sbu_1, # of connection points: 4
#     Node 17, Type 0, BuildingBlock: QUQFOY_clean_sbu_1, # of connection points: 4
#     Node 18, Type 0, BuildingBlock: QUQFOY_clean_sbu_1, # of connection points: 4
#     Node 19, Type 0, BuildingBlock: QUQFOY_clean_sbu_1, # of connection points: 4
#     Node 20, Type 0, BuildingBlock: QUQFOY_clean_sbu_1, # of connection points: 4
#     Node 21, Type 0, BuildingBlock: QUQFOY_clean_sbu_1, # of connection points: 4
#     Node 22, Type 0, BuildingBlock: QUQFOY_clean_sbu_1, # of connection points: 4
#     Node 23, Type 0, BuildingBlock: QUQFOY_clean_sbu_1, # of connection points: 4
#     Node 24, Type 0, BuildingBlock: QUQFOY_clean_sbu_1, # of connection points: 4
#     Node 25, Type 0, BuildingBlock: QUQFOY_clean_sbu_1, # of connection points: 4
#     Node 26, Type 0, BuildingBlock: QUQFOY_clean_sbu_1, # of connection points: 4
#     Node 27, Type 0, BuildingBlock: QUQFOY_clean_sbu_1, # of connection points: 4
#     Node 28, Type 0, BuildingBlock: QUQFOY_clean_sbu_1, # of connection points: 4
#     Node 29, Type 0, BuildingBlock: QUQFOY_clean_sbu_1, # of connection points: 4
#     Node 30, Type 0, BuildingBlock: QUQFOY_clean_sbu_1, # of connection points: 4
#     Node 31, Type 0, BuildingBlock: QUQFOY_clean_sbu_1, # of connection points: 4
#     Node 32, Type 0, BuildingBlock: QUQFOY_clean_sbu_1, # of connection points: 4
#     Node 33, Type 0, BuildingBlock: QUQFOY_clean_sbu_1, # of connection points: 4
#     Node 34, Type 0, BuildingBlock: QUQFOY_clean_sbu_1, # of connection points: 4
#     Node 35, Type 0, BuildingBlock: QUQFOY_clean_sbu_1, # of connection points: 4
#     Edge 36, Type (0, 0), BuildingBlock: CIFDUS_clean_linker_0, # of connection points: 2
#     Edge 37, Type (0, 0), BuildingBlock: CIFDUS_clean_linker_0, # of connection points: 2
#     Edge 38, Type (0, 0), BuildingBlock: CIFDUS_clean_linker_0, # of connection points: 2
#     Edge 39, Type (0, 0), BuildingBlock: CIFDUS_clean_linker_0, # of connection points: 2
#     Edge 40, Type (0, 0), BuildingBlock: CIFDUS_clean_linker_0, # of connection points: 2
#     Edge 41, Type (0, 0), BuildingBlock: CIFDUS_clean_linker_0, # of connection points: 2
#     Edge 42, Type (0, 0), BuildingBlock: CIFDUS_clean_linker_0, # of connection points: 2
#     Edge 43, Type (0, 0), BuildingBlock: CIFDUS_clean_linker_0, # of connection points: 2
#     Edge 44, Type (0, 0), BuildingBlock: CIFDUS_clean_linker_0, # of connection points: 2
#     Edge 45, Type (0, 0), BuildingBlock: CIFDUS_clean_linker_0, # of connection points: 2
#     Edge 46, Type (0, 0), BuildingBlock: CIFDUS_clean_linker_0, # of connection points: 2
#     Edge 47, Type (0, 0), BuildingBlock: CIFDUS_clean_linker_0, # of connection points: 2
#     Edge 48, Type (0, 0), BuildingBlock: CIFDUS_clean_linker_0, # of connection points: 2
#     Edge 49, Type (0, 0), BuildingBlock: CIFDUS_clean_linker_0, # of connection points: 2
#     Edge 50, Type (0, 0), BuildingBlock: CIFDUS_clean_linker_0, # of connection points: 2
#     Edge 51, Type (0, 0), BuildingBlock: CIFDUS_clean_linker_0, # of connection points: 2
#     Edge 52, Type (0, 0), BuildingBlock: CIFDUS_clean_linker_0, # of connection points: 2
#     Edge 53, Type (0, 0), BuildingBlock: CIFDUS_clean_linker_0, # of connection points: 2
#     Edge 54, Type (0, 0), BuildingBlock: CIFDUS_clean_linker_0, # of connection points: 2
#     Edge 55, Type (0, 0), BuildingBlock: CIFDUS_clean_linker_0, # of connection points: 2
#     Edge 56, Type (0, 0), BuildingBlock: CIFDUS_clean_linker_0, # of connection points: 2
#     Edge 57, Type (0, 0), BuildingBlock: CIFDUS_clean_linker_0, # of connection points: 2
#     Edge 58, Type (0, 0), BuildingBlock: CIFDUS_clean_linker_0, # of connection points: 2
#     Edge 59, Type (0, 0), BuildingBlock: CIFDUS_clean_linker_0, # of connection points: 2
#     Edge 60, Type (0, 0), BuildingBlock: CIFDUS_clean_linker_0, # of connection points: 2
#     Edge 61, Type (0, 0), BuildingBlock: CIFDUS_clean_linker_0, # of connection points: 2
#     Edge 62, Type (0, 0), BuildingBlock: CIFDUS_clean_linker_0, # of connection points: 2
#     Edge 63, Type (0, 0), BuildingBlock: CIFDUS_clean_linker_0, # of connection points: 2
#     Edge 64, Type (0, 0), BuildingBlock: CIFDUS_clean_linker_0, # of connection points: 2
#     Edge 65, Type (0, 0), BuildingBlock: CIFDUS_clean_linker_0, # of connection points: 2
#     Edge 66, Type (0, 0), BuildingBlock: CIFDUS_clean_linker_0, # of connection points: 2
#     Edge 67, Type (0, 0), BuildingBlock: CIFDUS_clean_linker_0, # of connection points: 2
#     Edge 68, Type (0, 0), BuildingBlock: CIFDUS_clean_linker_0, # of connection points: 2
#     Edge 69, Type (0, 0), BuildingBlock: CIFDUS_clean_linker_0, # of connection points: 2
#     Edge 70, Type (0, 0), BuildingBlock: CIFDUS_clean_linker_0, # of connection points: 2
#     Edge 71, Type (0, 0), BuildingBlock: CIFDUS_clean_linker_0, # of connection points: 2
#     Edge 72, Type (0, 0), BuildingBlock: CIFDUS_clean_linker_0, # of connection points: 2
#     Edge 73, Type (0, 0), BuildingBlock: CIFDUS_clean_linker_0, # of connection points: 2
#     Edge 74, Type (0, 0), BuildingBlock: CIFDUS_clean_linker_0, # of connection points: 2
#     Edge 75, Type (0, 0), BuildingBlock: CIFDUS_clean_linker_0, # of connection points: 2
#     Edge 76, Type (0, 0), BuildingBlock: CIFDUS_clean_linker_0, # of connection points: 2
#     Edge 77, Type (0, 0), BuildingBlock: CIFDUS_clean_linker_0, # of connection points: 2
#     Edge 78, Type (0, 0), BuildingBlock: CIFDUS_clean_linker_0, # of connection points: 2
#     Edge 79, Type (0, 0), BuildingBlock: CIFDUS_clean_linker_0, # of connection points: 2
#     Edge 80, Type (0, 0), BuildingBlock: CIFDUS_clean_linker_0, # of connection points: 2
#     Edge 81, Type (0, 0), BuildingBlock: CIFDUS_clean_linker_0, # of connection points: 2
#     Edge 82, Type (0, 0), BuildingBlock: CIFDUS_clean_linker_0, # of connection points: 2
#     Edge 83, Type (0, 0), BuildingBlock: CIFDUS_clean_linker_0, # of connection points: 2
#     Edge 84, Type (0, 0), BuildingBlock: CIFDUS_clean_linker_0, # of connection points: 2
#     Edge 85, Type (0, 0), BuildingBlock: CIFDUS_clean_linker_0, # of connection points: 2
#     Edge 86, Type (0, 0), BuildingBlock: CIFDUS_clean_linker_0, # of connection points: 2
#     Edge 87, Type (0, 0), BuildingBlock: CIFDUS_clean_linker_0, # of connection points: 2
#     Edge 88, Type (0, 0), BuildingBlock: CIFDUS_clean_linker_0, # of connection points: 2
#     Edge 89, Type (0, 0), BuildingBlock: CIFDUS_clean_linker_0, # of connection points: 2
#     Edge 90, Type (0, 0), BuildingBlock: CIFDUS_clean_linker_0, # of connection points: 2
#     Edge 91, Type (0, 0), BuildingBlock: CIFDUS_clean_linker_0, # of connection points: 2
#     Edge 92, Type (0, 0), BuildingBlock: CIFDUS_clean_linker_0, # of connection points: 2
#     Edge 93, Type (0, 0), BuildingBlock: CIFDUS_clean_linker_0, # of connection points: 2
#     Edge 94, Type (0, 0), BuildingBlock: CIFDUS_clean_linker_0, # of connection points: 2
#     Edge 95, Type (0, 0), BuildingBlock: CIFDUS_clean_linker_0, # of connection points: 2
#     Edge 96, Type (0, 0), BuildingBlock: CIFDUS_clean_linker_0, # of connection points: 2
#     Edge 97, Type (0, 0), BuildingBlock: CIFDUS_clean_linker_0, # of connection points: 2
#     Edge 98, Type (0, 0), BuildingBlock: CIFDUS_clean_linker_0, # of connection points: 2
#     Edge 99, Type (0, 0), BuildingBlock: CIFDUS_clean_linker_0, # of connection points: 2
#     Edge 100, Type (0, 0), BuildingBlock: CIFDUS_clean_linker_0, # of connection points: 2
#     Edge 101, Type (0, 0), BuildingBlock: CIFDUS_clean_linker_0, # of connection points: 2
#     Edge 102, Type (0, 0), BuildingBlock: CIFDUS_clean_linker_0, # of connection points: 2
#     Edge 103, Type (0, 0), BuildingBlock: CIFDUS_clean_linker_0, # of connection points: 2
#     Edge 104, Type (0, 0), BuildingBlock: CIFDUS_clean_linker_0, # of connection points: 2
#     Edge 105, Type (0, 0), BuildingBlock: CIFDUS_clean_linker_0, # of connection points: 2
#     Edge 106, Type (0, 0), BuildingBlock: CIFDUS_clean_linker_0, # of connection points: 2
#     Edge 107, Type (0, 0), BuildingBlock: CIFDUS_clean_linker_0, # of connection points: 2
# Relax obj value: 0.055
# Max RMSD: 0.281
# Mean RMSD: 0.182
data_MOF--net-uml--node1-QUQFOY_clean_sbu_1--edge1-CIFDUS_clean_linker_0
_symmetry_space_group_name_H-M    P1
_symmetry_Int_Tables_number       1
_symmetry_cell_setting            triclinic
loop_
_symmetry_equiv_pos_as_xyz
'x, y, z'
_cell_length_a     85.825591
_cell_length_b     85.970029
_cell_length_c     25.371863
_cell_angle_alpha  90.052114
_cell_angle_beta   89.954534
_cell_angle_gamma 119.96919
loop_
_atom_site_label
_atom_site_type_symbol
_atom_site_fract_x
_atom_site_fract_y
_atom_site_fract_z
_atom_type_partial_charge
O0 O 0.33917 0.15554 0.17383 0.0
Cd1 Cd 0.34044 0.13226 0.17916 0.0
Cd2 Cd 0.3723 0.15404 0.13369 0.0
O3 O 0.36769 0.1747 0.15648 0.0
O4 O 0.32206 0.11765 0.23339 0.0
O5 O 0.35127 0.12886 0.24544 0.0
C6 C 0.33511 0.12034 0.26426 0.0
C7 C 0.39824 0.15201 0.13985 0.0
C8 C 0.35187 0.1716 0.16747 0.0
C9 C 0.34368 0.1239 0.06909 0.0
O10 O 0.35785 0.13917 0.07027 0.0
O11 O 0.33472 0.11709 0.11102 0.0
O12 O 0.39723 0.16294 0.10708 0.0
O13 O 0.3854 0.14392 0.17379 0.0
O14 O 0.85761 0.26537 0.16915 0.0
Cd15 Cd 0.88119 0.28972 0.174 0.0
Cd16 Cd 0.85957 0.29996 0.13161 0.0
O17 O 0.83858 0.27516 0.15566 0.0
O18 O 0.89601 0.28584 0.22731 0.0
O19 O 0.88508 0.30402 0.24028 0.0
C20 C 0.89361 0.29633 0.25849 0.0
C21 C 0.8645 0.32878 0.14239 0.0
C22 C 0.84153 0.26227 0.1649 0.0
C23 C 0.88874 0.30134 0.06384 0.0
O24 O 0.87328 0.29981 0.066 0.0
O25 O 0.89598 0.29947 0.10526 0.0
O26 O 0.85222 0.31768 0.11052 0.0
O27 O 0.87212 0.32266 0.17351 0.0
O28 O 0.74579 0.6711 0.17385 0.0
Cd29 Cd 0.72113 0.66974 0.17773 0.0
Cd30 Cd 0.71136 0.63708 0.14107 0.0
O31 O 0.73632 0.64208 0.16831 0.0
O32 O 0.72255 0.68579 0.23816 0.0
O33 O 0.70636 0.65619 0.24087 0.0
C34 C 0.71273 0.67138 0.2652 0.0
C35 C 0.6826 0.61251 0.14786 0.0
C36 C 0.74911 0.65823 0.17403 0.0
C37 C 0.71004 0.66325 0.0659 0.0
O38 O 0.71204 0.64977 0.07283 0.0
O39 O 0.71121 0.67316 0.10502 0.0
O40 O 0.69462 0.61175 0.11905 0.0
O41 O 0.68769 0.62618 0.17869 0.0
O42 O 0.08318 0.34738 0.33215 0.0
Cd43 Cd 0.06298 0.35384 0.32846 0.0
Cd44 Cd 0.09007 0.38531 0.36806 0.0
O45 O 0.10617 0.37455 0.34731 0.0
O46 O 0.04676 0.33981 0.26798 0.0
O47 O 0.06454 0.36928 0.26666 0.0
C48 C 0.05346 0.35471 0.24198 0.0
C49 C 0.09654 0.41497 0.36228 0.0
C50 C 0.10003 0.35792 0.33765 0.0
C51 C 0.05829 0.36216 0.43887 0.0
O52 O 0.07443 0.37463 0.43325 0.0
O53 O 0.0497 0.35213 0.39991 0.0
O54 O 0.10517 0.4104 0.39447 0.0
O55 O 0.08595 0.40319 0.32839 0.0
O56 O 0.66096 0.81964 0.33615 0.0
Cd57 Cd 0.65952 0.79501 0.32882 0.0
Cd58 Cd 0.62648 0.78473 0.38122 0.0
O59 O 0.6333 0.81097 0.36326 0.0
O60 O 0.67791 0.79881 0.27442 0.0
O61 O 0.64877 0.78061 0.26256 0.0
C62 C 0.66494 0.78805 0.24397 0.0
C63 C 0.59702 0.76064 0.38674 0.0
C64 C 0.64881 0.82334 0.34853 0.0
C65 C 0.65615 0.78107 0.43696 0.0
O66 O 0.64148 0.78128 0.43779 0.0
O67 O 0.66559 0.7852 0.39525 0.0
O68 O 0.60313 0.77361 0.42027 0.0
O69 O 0.607 0.76221 0.34665 0.0
O70 O 0.196 0.91963 0.34049 0.0
Cd71 Cd 0.22165 0.94173 0.3353 0.0
Cd72 Cd 0.22987 0.9165 0.37724 0.0
O73 O 0.20364 0.89888 0.35365 0.0
O74 O 0.22187 0.95689 0.2742 0.0
O75 O 0.23631 0.94162 0.27311 0.0
C76 C 0.23127 0.9515 0.24821 0.0
C77 C 0.25278 0.90945 0.38686 0.0
C78 C 0.19164 0.90319 0.345 0.0
C79 C 0.23475 0.94807 0.44549 0.0
O80 O 0.2329 0.93259 0.44018 0.0
O81 O 0.23229 0.95586 0.4062 0.0
O82 O 0.23822 0.90148 0.41416 0.0
O83 O 0.25334 0.91966 0.34869 0.0
O84 O 0.6631 0.92162 0.83766 0.0
Cd85 Cd 0.66257 0.94528 0.83031 0.0
Cd86 Cd 0.62898 0.92253 0.88898 0.0
O87 O 0.63576 0.90324 0.86849 0.0
O88 O 0.68079 0.95911 0.7748 0.0
O89 O 0.65176 0.94922 0.76462 0.0
C90 C 0.66782 0.95734 0.74512 0.0
C91 C 0.59977 0.91566 0.91241 0.0
C92 C 0.65092 0.90599 0.85152 0.0
C93 C 0.66054 0.95689 0.93805 0.0
O94 O 0.64564 0.94232 0.94004 0.0
O95 O 0.6698 0.96162 0.89599 0.0
O96 O 0.60861 0.91009 0.93983 0.0
O97 O 0.60659 0.92332 0.86788 0.0
O98 O 0.092 0.82078 0.84149 0.0
Cd99 Cd 0.06938 0.79571 0.83368 0.0
Cd100 Cd 0.09133 0.78571 0.88369 0.0
O101 O 0.11101 0.81189 0.8662 0.0
O102 O 0.05553 0.79675 0.77166 0.0
O103 O 0.06881 0.78032 0.77327 0.0
C104 C 0.05981 0.78619 0.74738 0.0
C105 C 0.09555 0.76091 0.88337 0.0
C106 C 0.10789 0.82439 0.85296 0.0
C107 C 0.05853 0.78203 0.94159 0.0
O108 O 0.0735 0.78244 0.94225 0.0
O109 O 0.05304 0.78584 0.89962 0.0
O110 O 0.10318 0.77342 0.91813 0.0
O111 O 0.08699 0.76335 0.84535 0.0
O112 O 0.18845 0.35161 0.84219 0.0
Cd113 Cd 0.21283 0.35239 0.83438 0.0
Cd114 Cd 0.22348 0.3858 0.89144 0.0
O115 O 0.19711 0.3789 0.87264 0.0
O116 O 0.20844 0.3339 0.77966 0.0
O117 O 0.22753 0.36281 0.76821 0.0
C118 C 0.21966 0.34666 0.74951 0.0
C119 C 0.24704 0.41507 0.90782 0.0
C120 C 0.18476 0.36362 0.85624 0.0
C121 C 0.22681 0.35495 0.94222 0.0
O122 O 0.22686 0.36971 0.94421 0.0
O123 O 0.22234 0.34566 0.90023 0.0
O124 O 0.23312 0.40747 0.9379 0.0
O125 O 0.24666 0.40696 0.86454 0.0
O126 O 0.85768 0.67096 0.67589 0.0
Cd127 Cd 0.88113 0.67007 0.68378 0.0
Cd128 Cd 0.86033 0.63896 0.63574 0.0
O129 O 0.83891 0.64242 0.65801 0.0
O130 O 0.89428 0.68606 0.74506 0.0
O131 O 0.8826 0.65658 0.74639 0.0
C132 C 0.89055 0.67173 0.77125 0.0
C133 C 0.86458 0.61444 0.64182 0.0
C134 C 0.84171 0.65814 0.66849 0.0
C135 C 0.89043 0.66838 0.57358 0.0
O136 O 0.87514 0.65423 0.5735 0.0
O137 O 0.8971 0.6768 0.61649 0.0
O138 O 0.85311 0.61445 0.60891 0.0
O139 O 0.87173 0.62726 0.67615 0.0
O140 O 0.33761 0.26622 0.67783 0.0
Cd141 Cd 0.33812 0.29041 0.68396 0.0
Cd142 Cd 0.37001 0.30119 0.64073 0.0
O143 O 0.36652 0.2765 0.66407 0.0
O144 O 0.31949 0.28621 0.73794 0.0
O145 O 0.3486 0.30449 0.75063 0.0
C146 C 0.3324 0.29661 0.76915 0.0
C147 C 0.39425 0.32993 0.64958 0.0
C148 C 0.35076 0.26341 0.67304 0.0
C149 C 0.34172 0.30206 0.57401 0.0
O150 O 0.35582 0.30083 0.57576 0.0
O151 O 0.33269 0.30009 0.61573 0.0
O152 O 0.39493 0.31859 0.61759 0.0
O153 O 0.38079 0.32412 0.6818 0.0
O154 O 0.74336 0.14627 0.68561 0.0
Cd155 Cd 0.71807 0.12401 0.68687 0.0
Cd156 Cd 0.71115 0.14753 0.63788 0.0
O157 O 0.73669 0.16714 0.66374 0.0
O158 O 0.71877 0.10937 0.74729 0.0
O159 O 0.7025 0.1228 0.74755 0.0
C160 C 0.70862 0.11392 0.77279 0.0
C161 C 0.68292 0.14498 0.64342 0.0
C162 C 0.74817 0.16271 0.6785 0.0
C163 C 0.70896 0.11687 0.57451 0.0
O164 O 0.71106 0.13256 0.57546 0.0
O165 O 0.70959 0.10933 0.61703 0.0
O166 O 0.69493 0.1563 0.61132 0.0
O167 O 0.68779 0.13696 0.67715 0.0
O168 O 1.00674 0.48621 0.49976 0.0
Cd169 Cd 1.00727 0.46255 0.5052 0.0
Cd170 Cd 0.03896 0.48368 0.46015 0.0
O171 O 0.03551 0.50489 0.48445 0.0
O172 O 0.98872 0.44828 0.55946 0.0
O173 O 0.01783 0.45888 0.57162 0.0
C174 C 1.00167 0.45072 0.59045 0.0
C175 C 0.06342 0.47932 0.46634 0.0
C176 C 0.01978 0.50217 0.49455 0.0
C177 C 0.01007 0.45442 0.3948 0.0
O178 O 0.02421 0.46971 0.39611 0.0
O179 O 1.0013 0.44739 0.43688 0.0
O180 O 0.06368 0.49118 0.43461 0.0
O181 O 0.05031 0.47175 0.49971 0.0
O182 O 0.52417 0.59955 0.50923 0.0
Cd183 Cd 0.54799 0.62369 0.51276 0.0
Cd184 Cd 0.52575 0.6346 0.482 0.0
O185 O 0.50536 0.61002 0.50925 0.0
O186 O 0.56338 0.61983 0.56507 0.0
O187 O 0.55179 0.63722 0.58128 0.0
C188 C 0.56042 0.62947 0.59829 0.0
C189 C 0.53193 0.66377 0.49474 0.0
C190 C 0.50819 0.59682 0.51204 0.0
C191 C 0.55149 0.63521 0.40167 0.0
O192 O 0.53628 0.63368 0.41095 0.0
O193 O 0.56053 0.63368 0.43927 0.0
O194 O 0.51833 0.65269 0.46659 0.0
O195 O 0.54036 0.65751 0.52172 0.0
O196 O 0.4059 0.98669 0.52206 0.0
Cd197 Cd 0.40466 0.01112 0.53769 0.0
Cd198 Cd 0.37914 0.97688 0.48411 0.0
O199 O 0.40537 0.98594 0.52099 0.0
O200 O 0.41676 0.02588 0.60316 0.0
O201 O 0.38765 0.00634 0.59859 0.0
C202 C 0.4013 0.01753 0.62649 0.0
C203 C 0.35363 0.94974 0.46763 0.0
C204 C 0.41658 0.98043 0.51839 0.0
C205 C 0.38963 0.01272 0.43016 0.0
O206 O 0.38019 0.99571 0.43302 0.0
O207 O 0.40039 0.02193 0.46759 0.0
O208 O 0.36827 0.95454 0.44129 0.0
O209 O 0.35441 0.95915 0.50853 0.0
O210 O 0.75837 0.68549 0.66803 0.0
Cd211 Cd 0.73613 0.68888 0.66308 0.0
Cd212 Cd 0.76059 0.7222 0.6999 0.0
O213 O 0.77877 0.7141 0.67865 0.0
O214 O 0.72079 0.67408 0.60202 0.0
O215 O 0.7363 0.70376 0.6014 0.0
C216 C 0.72626 0.68891 0.57636 0.0
C217 C 0.76553 0.75143 0.69627 0.0
C218 C 0.77476 0.69783 0.67153 0.0
C219 C 0.7302 0.69684 0.77252 0.0
O220 O 0.74554 0.71059 0.76569 0.0
O221 O 0.72235 0.68603 0.73436 0.0
O222 O 0.77451 0.74719 0.72801 0.0
O223 O 0.7553 0.73963 0.66191 0.0
O224 O 0.32649 0.15418 0.66872 0.0
Cd225 Cd 0.32558 0.12981 0.66128 0.0
Cd226 Cd 0.29239 0.11878 0.71318 0.0
O227 O 0.29869 0.14491 0.69565 0.0
O228 O 0.34411 0.13401 0.6069 0.0
O229 O 0.31506 0.11536 0.59496 0.0
C230 C 0.33125 0.1231 0.57639 0.0
C231 C 0.2631 0.09426 0.71733 0.0
C232 C 0.3141 0.15752 0.68114 0.0
C233 C 0.32242 0.11589 0.7694 0.0
O234 O 0.30752 0.11565 0.7701 0.0
O235 O 0.33192 0.12025 0.72777 0.0
O236 O 0.26882 0.10711 0.75121 0.0
O237 O 0.27339 0.09616 0.67773 0.0
O238 O 0.85753 0.25708 0.6588 0.0
Cd239 Cd 0.88313 0.27906 0.65472 0.0
Cd240 Cd 0.88887 0.25346 0.7152 0.0
O241 O 0.86215 0.23608 0.69352 0.0
O242 O 0.88092 0.29453 0.6001 0.0
O243 O 0.89787 0.28211 0.58947 0.0
C244 C 0.89135 0.2916 0.57033 0.0
C245 C 0.91082 0.24573 0.73497 0.0
C246 C 0.85158 0.24093 0.6735 0.0
C247 C 0.89533 0.28899 0.76447 0.0
O248 O 0.89326 0.27335 0.7673 0.0
O249 O 0.89281 0.2949 0.72137 0.0
O250 O 0.89649 0.24001 0.76309 0.0
O251 O 0.91158 0.25378 0.69126 0.0
O252 O 0.32419 0.25425 0.17306 0.0
Cd253 Cd 0.32307 0.27761 0.16619 0.0
Cd254 Cd 0.28988 0.2545 0.22371 0.0
O255 O 0.29691 0.2353 0.20316 0.0
O256 O 0.34144 0.29185 0.11142 0.0
O257 O 0.31237 0.28151 0.10014 0.0
C258 C 0.32851 0.28992 0.08125 0.0
C259 C 0.26056 0.2484 0.24239 0.0
C260 C 0.31226 0.23845 0.18643 0.0
C261 C 0.32082 0.28862 0.27462 0.0
O262 O 0.30618 0.27379 0.27659 0.0
O263 O 0.32989 0.29376 0.23226 0.0
O264 O 0.2685 0.24215 0.27126 0.0
O265 O 0.26835 0.25629 0.19896 0.0
O266 O 0.7581 0.15194 0.17042 0.0
Cd267 Cd 0.7358 0.12646 0.16564 0.0
Cd268 Cd 0.75865 0.11764 0.21646 0.0
O269 O 0.77758 0.14395 0.19738 0.0
O270 O 0.72111 0.12603 0.10387 0.0
O271 O 0.73524 0.11044 0.10707 0.0
C272 C 0.72554 0.1154 0.08084 0.0
C273 C 0.76407 0.0936 0.21703 0.0
C274 C 0.77412 0.15604 0.18222 0.0
C275 C 0.72553 0.11309 0.2745 0.0
O276 O 0.74066 0.11381 0.27515 0.0
O277 O 0.71992 0.11678 0.2326 0.0
O278 O 0.77141 0.10633 0.25125 0.0
O279 O 0.7551 0.09543 0.17899 0.0
O280 O 0.86002 0.68725 0.17497 0.0
Cd281 Cd 0.88528 0.69008 0.16699 0.0
Cd282 Cd 0.89417 0.72186 0.22413 0.0
O283 O 0.86786 0.71448 0.20396 0.0
O284 O 0.88412 0.6752 0.10468 0.0
O285 O 0.90054 0.70484 0.10607 0.0
C286 C 0.8946 0.68997 0.0802 0.0
C287 C 0.91713 0.75139 0.24029 0.0
C288 C 0.85583 0.69897 0.18817 0.0
C289 C 0.89838 0.69174 0.27521 0.0
O290 O 0.8975 0.70601 0.27792 0.0
O291 O 0.89506 0.68309 0.23211 0.0
O292 O 0.90312 0.74359 0.26996 0.0
O293 O 0.91719 0.74324 0.19757 0.0
O294 O 0.5374 0.01435 0.02183 0.0
Cd295 Cd 0.5596 0.01122 0.02865 0.0
Cd296 Cd 0.53576 0.97924 0.99064 0.0
O297 O 0.51674 0.98568 0.01683 0.0
O298 O 0.57397 0.02654 0.0901 0.0
O299 O 0.55933 0.99685 0.09175 0.0
C300 C 0.5685 0.01189 0.11672 0.0
C301 C 0.53571 0.95224 0.99047 0.0
C302 C 0.52094 1.0021 0.02136 0.0
C303 C 0.56506 0.00513 0.91815 0.0
O304 O 0.5492 0.99209 0.92378 0.0
O305 O 0.57371 0.01465 0.95787 0.0
O306 O 0.52402 0.95415 0.96358 0.0
O307 O 0.54543 0.96463 0.02415 0.0
O308 O 1.00462 0.59816 1.00552 0.0
Cd309 Cd 1.0048 0.62218 0.0112 0.0
Cd310 Cd 0.03677 0.63328 0.9682 0.0
O311 O 0.03351 0.60862 0.99106 0.0
O312 O 0.98629 0.61791 0.06563 0.0
O313 O 0.01539 0.63656 0.07725 0.0
C314 C 0.99927 0.62855 0.09631 0.0
C315 C 0.06085 0.66209 0.97815 0.0
C316 C 0.01782 0.59547 1.00039 0.0
C317 C 1.0081 0.63355 0.90124 0.0
O318 O 0.0225 0.63285 0.90331 0.0
O319 O 0.99892 0.63133 0.94278 0.0
O320 O 0.06168 0.65098 0.94553 0.0
O321 O 0.04731 0.65604 0.01009 0.0
O322 O 0.4127 0.48713 1.00385 0.0
Cd323 Cd 0.38821 0.46382 0.01079 0.0
Cd324 Cd 0.37814 0.48531 0.96553 0.0
O325 O 0.40304 0.50622 0.99013 0.0
O326 O 0.39216 0.44954 0.06561 0.0
O327 O 0.3742 0.46082 0.07734 0.0
C328 C 0.38189 0.4524 0.09646 0.0
C329 C 0.34967 0.48224 0.96532 0.0
C330 C 0.41592 0.5032 0.99903 0.0
C331 C 0.3771 0.45554 0.90106 0.0
O332 O 0.37891 0.47111 0.90206 0.0
O333 O 0.37844 0.44835 0.9433 0.0
O334 O 0.36241 0.49409 0.93618 0.0
O335 O 0.35389 0.47409 1.00055 0.0
O336 O 0.67426 0.82072 0.84132 0.0
Cd337 Cd 0.67456 0.79692 0.84674 0.0
Cd338 Cd 0.70634 0.81793 0.80104 0.0
O339 O 0.70302 0.83919 0.82501 0.0
O340 O 0.65596 0.78276 0.90095 0.0
O341 O 0.68501 0.79306 0.91311 0.0
C342 C 0.66884 0.78501 0.93188 0.0
C343 C 0.73126 0.81429 0.8053 0.0
C344 C 0.68738 0.83661 0.83559 0.0
C345 C 0.67721 0.7885 0.73648 0.0
O346 O 0.69145 0.80371 0.73752 0.0
O347 O 0.66841 0.78165 0.77862 0.0
O348 O 0.73093 0.82588 0.77369 0.0
O349 O 0.71848 0.80659 0.83962 0.0
O350 O 0.1923 0.93327 0.8459 0.0
Cd351 Cd 0.21606 0.95745 0.84996 0.0
Cd352 Cd 0.19377 0.96835 0.81513 0.0
O353 O 0.17337 0.94359 0.84148 0.0
O354 O 0.23052 0.95532 0.90978 0.0
O355 O 0.21789 0.97224 0.91375 0.0
C356 C 0.2264 0.96539 0.93744 0.0
C357 C 0.19855 0.99724 0.8247 0.0
C358 C 0.17627 0.93047 0.84636 0.0
C359 C 0.22066 0.96889 0.73829 0.0
O360 O 0.20549 0.96764 0.74612 0.0
O361 O 0.22924 0.96713 0.77683 0.0
O362 O 0.18567 0.98568 0.79533 0.0
O363 O 0.20697 0.99163 0.8543 0.0
O364 O 0.07511 0.33789 0.84065 0.0
Cd365 Cd 0.05035 0.33641 0.84394 0.0
Cd366 Cd 0.04047 0.30387 0.80772 0.0
O367 O 0.06528 0.30878 0.83648 0.0
O368 O 0.0514 0.35226 0.90419 0.0
O369 O 0.03526 0.32262 0.90631 0.0
C370 C 0.04144 0.33778 0.93078 0.0
C371 C 0.01186 0.27867 0.80827 0.0
C372 C 0.07823 0.32488 0.84176 0.0
C373 C 0.03943 0.33006 0.73241 0.0
O374 O 0.04173 0.31675 0.73932 0.0
O375 O 0.04036 0.33983 0.77154 0.0
O376 O 0.0249 0.27866 0.78282 0.0
O377 O 0.0158 0.29182 0.84037 0.0
O378 O 0.44207 0.03477 0.03135 0.0
Cd379 Cd 0.42028 0.03869 0.02654 0.0
Cd380 Cd 0.4454 0.07123 0.05474 0.0
O381 O 0.46295 0.06337 0.02497 0.0
O382 O 0.40455 0.02374 0.96543 0.0
O383 O 0.42206 0.05321 0.96235 0.0
C384 C 0.41169 0.03836 0.93787 0.0
C385 C 0.44474 0.09785 0.04528 0.0
C386 C 0.45848 0.04679 0.02524 0.0
C387 C 0.41913 0.04816 0.1377 0.0
O388 O 0.43493 0.06038 0.12617 0.0
O389 O 0.40859 0.03836 0.1009 0.0
O390 O 0.45713 0.09739 0.07288 0.0
O391 O 0.43407 0.08381 0.01809 0.0
O392 O 0.99359 0.4862 0.9947 0.0
Cd393 Cd 0.99246 0.46172 0.98719 0.0
Cd394 Cd 0.95926 0.45079 0.03872 0.0
O395 O 0.96584 0.47702 0.02189 0.0
O396 O 0.01087 0.46564 0.93272 0.0
O397 O 0.98175 0.44722 0.92105 0.0
C398 C 0.99792 0.45476 0.90239 0.0
C399 C 0.92986 0.4265 0.04179 0.0
C400 C 0.98126 0.4896 1.00738 0.0
C401 C 0.98899 0.44746 0.09509 0.0
O402 O 0.97412 0.44727 0.09568 0.0
O403 O 0.99859 0.45197 0.05366 0.0
O404 O 0.93561 0.43918 0.07623 0.0
O405 O 0.94021 0.42846 1.00234 0.0
O406 O 0.52653 0.58621 1.00302 0.0
Cd407 Cd 0.55163 0.60912 0.99818 0.0
Cd408 Cd 0.56133 0.58461 0.03729 0.0
O409 O 0.53502 0.56611 0.01637 0.0
O410 O 0.54909 0.62504 0.94495 0.0
O411 O 0.56561 0.61237 0.93049 0.0
C412 C 0.55888 0.62188 0.91289 0.0
C413 C 0.58587 0.57983 0.03593 0.0
C414 C 0.52265 0.56993 1.00787 0.0
C415 C 0.56556 0.61529 0.10795 0.0
O416 O 0.56456 0.6002 0.10169 0.0
O417 O 0.56216 0.62274 0.06965 0.0
O418 O 0.57258 0.5711 0.0677 0.0
O419 O 0.58427 0.5897 1.00037 0.0
O420 O 0.99419 0.58637 0.49824 0.0
Cd421 Cd 0.99238 0.60938 0.4923 0.0
Cd422 Cd 0.9595 0.58676 0.54151 0.0
O423 O 0.96633 0.56733 0.52323 0.0
O424 O 0.01036 0.62435 0.43764 0.0
O425 O 0.98105 0.61287 0.42722 0.0
C426 C 0.99712 0.62191 0.40802 0.0
C427 C 0.93025 0.58215 0.54149 0.0
C428 C 0.98193 0.57047 0.50932 0.0
C429 C 0.98844 0.61937 0.60065 0.0
O430 O 0.97379 0.6045 0.60048 0.0
O431 O 0.99809 0.6249 0.55941 0.0
O432 O 0.9353 0.57454 0.57582 0.0
O433 O 0.94125 0.59094 0.50366 0.0
O434 O 0.42376 0.48742 0.50287 0.0
Cd435 Cd 0.40056 0.46288 0.49402 0.0
Cd436 Cd 0.42283 0.45196 0.54408 0.0
O437 O 0.44252 0.47821 0.52769 0.0
O438 O 0.38621 0.46683 0.43926 0.0
O439 O 0.39725 0.4487 0.42752 0.0
C440 C 0.38857 0.45617 0.40877 0.0
C441 C 0.42777 0.42758 0.54658 0.0
C442 C 0.43956 0.49083 0.51472 0.0
C443 C 0.38972 0.44825 0.6012 0.0
O444 O 0.40454 0.44833 0.60151 0.0
O445 O 0.38449 0.45268 0.55996 0.0
O446 O 0.43487 0.44028 0.58096 0.0
O447 O 0.41936 0.42962 0.50734 0.0
O448 O 0.53259 0.01807 0.52022 0.0
Cd449 Cd 0.55994 0.02727 0.515 0.0
Cd450 Cd 0.55961 0.05597 0.55751 0.0
O451 O 0.53252 0.04333 0.53566 0.0
O452 O 0.56325 0.01359 0.4551 0.0
O453 O 0.57258 0.04259 0.45162 0.0
C454 C 0.57031 0.02827 0.42802 0.0
C455 C 0.58342 0.08505 0.54713 0.0
C456 C 0.524 0.02651 0.52594 0.0
C457 C 0.57187 0.03564 0.62633 0.0
O458 O 0.56518 0.04581 0.62273 0.0
O459 O 0.57279 0.02731 0.58581 0.0
O460 O 0.57045 0.08166 0.57942 0.0
O461 O 0.58147 0.07245 0.51527 0.0
O462 O 0.19439 0.3435 0.34915 0.0
Cd463 Cd 0.2161 0.33949 0.35291 0.0
Cd464 Cd 0.19181 0.30941 0.30761 0.0
O465 O 0.1727 0.31569 0.33495 0.0
O466 O 0.23194 0.35702 0.4074 0.0
O467 O 0.21791 0.3276 0.41908 0.0
C468 C 0.22761 0.34356 0.43834 0.0
C469 C 0.19381 0.28355 0.30819 0.0
C470 C 0.17772 0.33205 0.34537 0.0
C471 C 0.22226 0.33594 0.24148 0.0
O472 O 0.20592 0.32361 0.24327 0.0
O473 O 0.23057 0.34368 0.28359 0.0
O474 O 0.1817 0.28449 0.28037 0.0
O475 O 0.20272 0.29615 0.34223 0.0
O476 O 0.67459 0.93272 0.34168 0.0
Cd477 Cd 0.67576 0.95723 0.3477 0.0
Cd478 Cd 0.70759 0.96734 0.30587 0.0
O479 O 0.70347 0.94244 0.3296 0.0
O480 O 0.65739 0.95367 0.40194 0.0
O481 O 0.68666 0.97119 0.41417 0.0
C482 C 0.67052 0.96378 0.43297 0.0
C483 C 0.73182 0.99596 0.31641 0.0
C484 C 0.68753 0.92956 0.33785 0.0
C485 C 0.68014 0.96915 0.23785 0.0
O486 O 0.69392 0.96736 0.24014 0.0
O487 O 0.67105 0.96742 0.27926 0.0
O488 O 0.73274 0.98472 0.28452 0.0
O489 O 0.71811 0.99007 0.34767 0.0
O490 O 0.08094 0.82244 0.34421 0.0
Cd491 Cd 0.05602 0.79967 0.35116 0.0
Cd492 Cd 0.04703 0.82131 0.30261 0.0
O493 O 0.07205 0.84196 0.327 0.0
O494 O 0.05767 0.78612 0.41294 0.0
O495 O 0.04085 0.79897 0.41241 0.0
C496 C 0.0473 0.79045 0.43809 0.0
C497 C 0.01898 0.81916 0.30028 0.0
C498 C 0.0846 0.83859 0.33757 0.0
C499 C 0.04556 0.79069 0.24115 0.0
O500 O 0.04754 0.80633 0.24089 0.0
O501 O 0.0466 0.78368 0.2842 0.0
O502 O 0.03197 0.83051 0.27083 0.0
O503 O 0.02276 0.81107 0.33681 0.0
H504 H 0.307 0.10506 0.49818 0.0
H505 H 0.364 0.13635 0.52897 0.0
H506 H 0.37035 0.1364 0.43526 0.0
H507 H 0.35968 0.13037 0.34363 0.0
H508 H 0.30266 0.10004 0.31253 0.0
H509 H 0.29644 0.0966 0.40695 0.0
C510 C 0.32082 0.11165 0.48451 0.0
C511 C 0.33497 0.12083 0.52062 0.0
C512 C 0.32441 0.1119 0.43028 0.0
C513 C 0.35281 0.12928 0.50211 0.0
C514 C 0.35648 0.12935 0.44841 0.0
C515 C 0.3459 0.12271 0.35747 0.0
C516 C 0.33167 0.1156 0.32095 0.0
C517 C 0.34238 0.12111 0.41197 0.0
C518 C 0.31389 0.10575 0.33969 0.0
C519 C 0.3103 0.10382 0.39377 0.0
H520 H 0.90799 0.2832 0.4928 0.0
H521 H 0.88087 0.31322 0.52225 0.0
H522 H 0.88118 0.31926 0.42829 0.0
H523 H 0.88595 0.31308 0.33704 0.0
H524 H 0.91213 0.28221 0.30714 0.0
H525 H 0.91561 0.2797 0.40167 0.0
C526 C 0.90243 0.29133 0.47877 0.0
C527 C 0.89425 0.29756 0.51456 0.0
C528 C 0.90236 0.29451 0.42439 0.0
C529 C 0.88713 0.30811 0.49562 0.0
C530 C 0.88726 0.31155 0.44179 0.0
C531 C 0.89272 0.3061 0.35112 0.0
C532 C 0.8986 0.2977 0.31496 0.0
C533 C 0.89436 0.30438 0.40566 0.0
C534 C 0.90737 0.28871 0.33403 0.0
C535 C 0.90931 0.28721 0.38817 0.0
H536 H 0.70591 0.66 0.51242 0.0
H537 H 0.73875 0.71775 0.50983 0.0
H538 H 0.73622 0.71763 0.41394 0.0
H539 H 0.72687 0.70096 0.3298 0.0
H540 H 0.69417 0.64319 0.33256 0.0
H541 H 0.69432 0.64356 0.42875 0.0
C542 C 0.71232 0.6726 0.49103 0.0
C543 C 0.7226 0.68886 0.51871 0.0
C544 C 0.71092 0.67244 0.43552 0.0
C545 C 0.73076 0.70501 0.48994 0.0
C546 C 0.72937 0.70496 0.43487 0.0
C547 C 0.71952 0.68846 0.35136 0.0
C548 C 0.71059 0.67206 0.32353 0.0
C549 C 0.7198 0.68873 0.40707 0.0
C550 C 0.70118 0.65603 0.35254 0.0
C551 C 0.70132 0.65621 0.40777 0.0
H552 H 0.05566 0.36724 0.9956 0.0
H553 H 0.0219 0.30957 0.99738 0.0
H554 H 0.02136 0.30984 0.09359 0.0
H555 H 0.03271 0.3261 0.17761 0.0
H556 H 0.0669 0.3837 0.17584 0.0
H557 H 0.06487 0.38377 0.07985 0.0
C558 C 0.04793 0.35474 0.01693 0.0
C559 C 0.0389 0.33839 0.98888 0.0
C560 C 0.04786 0.35495 0.0726 0.0
C561 C 0.029 0.32237 0.01757 0.0
C562 C 0.02874 0.32249 0.07279 0.0
C563 C 0.03951 0.33871 0.15637 0.0
C564 C 0.05003 0.35487 0.18429 0.0
C565 C 0.03846 0.33865 0.10081 0.0
C566 C 0.05873 0.37105 0.15573 0.0
C567 C 0.05762 0.3711 0.10062 0.0
H568 H 0.64056 0.7705 0.16567 0.0
H569 H 0.6976 0.80045 0.19674 0.0
H570 H 0.70391 0.80026 0.10308 0.0
H571 H 0.69327 0.79443 0.0114 0.0
H572 H 0.63623 0.76548 0.98001 0.0
H573 H 0.62995 0.76222 0.0744 0.0
C574 C 0.65437 0.77673 0.15207 0.0
C575 C 0.66856 0.78562 0.18824 0.0
C576 C 0.65793 0.77685 0.09787 0.0
C577 C 0.68639 0.79362 0.16982 0.0
C578 C 0.69003 0.79355 0.11616 0.0
C579 C 0.67947 0.7871 0.02518 0.0
C580 C 0.66526 0.78034 0.98858 0.0
C581 C 0.67592 0.78562 0.07965 0.0
C582 C 0.64745 0.77092 1.00724 0.0
C583 C 0.64382 0.7691 0.0613 0.0
H584 H 0.22286 0.97216 0.18519 0.0
H585 H 0.24694 0.93853 0.18043 0.0
H586 H 0.24894 0.941 0.08446 0.0
H587 H 0.24155 0.95062 1.00089 0.0
H588 H 0.21743 0.98423 1.00596 0.0
H589 H 0.21797 0.98399 0.1021 0.0
C590 C 0.22878 0.96556 0.1633 0.0
C591 C 0.23464 0.95508 0.19042 0.0
C592 C 0.22981 0.96695 0.10776 0.0
C593 C 0.2423 0.94668 0.161 0.0
C594 C 0.24339 0.94803 0.10588 0.0
C595 C 0.23667 0.95814 0.02295 0.0
C596 C 0.22938 0.96737 0.99575 0.0
C597 C 0.23687 0.95783 0.07867 0.0
C598 C 0.22312 0.97699 0.02541 0.0
C599 C 0.22334 0.9768 0.08063 0.0
H600 H 0.6432 0.95091 0.66781 0.0
H601 H 0.70033 0.97685 0.69665 0.0
H602 H 0.70629 0.98311 0.60281 0.0
H603 H 0.69528 0.9784 0.51166 0.0
H604 H 0.63814 0.95143 0.48226 0.0
H605 H 0.63225 0.94867 0.57691 0.0
C606 C 0.65696 0.95818 0.65368 0.0
C607 C 0.67127 0.96324 0.68928 0.0
C608 C 0.66032 0.96148 0.59936 0.0
C609 C 0.68903 0.97266 0.67018 0.0
C610 C 0.69247 0.97624 0.61642 0.0
C611 C 0.68155 0.97222 0.52591 0.0
C612 C 0.66719 0.96502 0.4898 0.0
C613 C 0.67822 0.9703 0.58048 0.0
C614 C 0.64947 0.95702 0.50909 0.0
C615 C 0.64607 0.95537 0.5633 0.0
H616 H 0.05954 0.77349 0.50251 0.0
H617 H 0.02936 0.80134 0.50408 0.0
H618 H 0.0292 0.80105 0.60032 0.0
H619 H 0.04027 0.79566 0.68386 0.0
H620 H 0.07077 0.76815 0.68221 0.0
H621 H 0.06799 0.76541 0.58641 0.0
C622 C 0.05267 0.77925 0.52383 0.0
C623 C 0.04462 0.78757 0.49591 0.0
C624 C 0.05282 0.77925 0.57931 0.0
C625 C 0.03572 0.79488 0.52437 0.0
C626 C 0.03569 0.7948 0.57952 0.0
C627 C 0.04611 0.78885 0.66267 0.0
C628 C 0.05588 0.78229 0.69032 0.0
C629 C 0.04461 0.78746 0.6074 0.0
C630 C 0.06324 0.77339 0.66209 0.0
C631 C 0.06171 0.77187 0.60718 0.0
H632 H 0.21457 0.31864 0.51695 0.0
H633 H 0.24914 0.37532 0.48866 0.0
H634 H 0.25108 0.38118 0.58325 0.0
H635 H 0.24023 0.37064 0.67328 0.0
H636 H 0.20493 0.31402 0.70097 0.0
H637 H 0.20612 0.30777 0.60778 0.0
C638 C 0.22284 0.33223 0.53149 0.0
C639 C 0.23158 0.34651 0.49559 0.0
C640 C 0.22358 0.33558 0.586 0.0
C641 C 0.24219 0.36405 0.51528 0.0
C642 C 0.24324 0.36745 0.56945 0.0
C643 C 0.233 0.35691 0.65907 0.0
C644 C 0.22235 0.34287 0.69414 0.0
C645 C 0.23355 0.35339 0.60509 0.0
C646 C 0.21313 0.32514 0.67494 0.0
C647 C 0.21378 0.32153 0.62153 0.0
H648 H 0.90642 0.70139 0.83454 0.0
H649 H 0.88081 0.64358 0.83869 0.0
H650 H 0.88114 0.64423 0.93488 0.0
H651 H 0.88602 0.66095 0.0177 0.0
H652 H 0.91147 0.71874 0.01373 0.0
H653 H 0.91401 0.71833 0.91789 0.0
C654 C 0.90116 0.68894 0.85643 0.0
C655 C 0.89346 0.67245 0.8292 0.0
C656 C 0.90122 0.68938 0.91194 0.0
C657 C 0.88678 0.65647 0.85841 0.0
C658 C 0.88689 0.65682 0.91354 0.0
C659 C 0.89233 0.67349 0.99599 0.0
C660 C 0.89838 0.68984 0.02302 0.0
C661 C 0.89365 0.67316 0.94072 0.0
C662 C 0.90665 0.70595 0.99411 0.0
C663 C 0.90805 0.70573 0.93917 0.0
H664 H 0.30412 0.28317 1.003 0.0
H665 H 0.36116 0.30996 0.03395 0.0
H666 H 0.36746 0.31635 0.94028 0.0
H667 H 0.35682 0.31152 0.84867 0.0
H668 H 0.29978 0.2837 0.81728 0.0
H669 H 0.2935 0.28079 0.91169 0.0
C670 C 0.31793 0.29066 0.98937 0.0
C671 C 0.33212 0.29591 0.02551 0.0
C672 C 0.32149 0.29403 0.93514 0.0
C673 C 0.34995 0.30562 1.00705 0.0
C674 C 0.35359 0.30927 0.95338 0.0
C675 C 0.34302 0.30512 0.86244 0.0
C676 C 0.32881 0.29773 0.82584 0.0
C677 C 0.33947 0.30312 0.9169 0.0
C678 C 0.311 0.28944 0.8445 0.0
C679 C 0.30737 0.28771 0.89857 0.0
H680 H 0.72243 0.09858 0.83794 0.0
H681 H 0.68996 0.12401 0.83842 0.0
H682 H 0.69099 0.12523 0.93455 0.0
H683 H 0.70395 0.12223 0.01773 0.0
H684 H 0.73687 0.0973 0.0172 0.0
H685 H 0.7327 0.09264 0.92211 0.0
C686 C 0.71527 0.10408 0.85905 0.0
C687 C 0.70626 0.11134 0.83077 0.0
C688 C 0.71618 0.10504 0.91445 0.0
C689 C 0.69705 0.11837 0.85897 0.0
C690 C 0.69771 0.11917 0.91405 0.0
C691 C 0.71002 0.11556 0.99698 0.0
C692 C 0.72088 0.11032 0.02463 0.0
C693 C 0.7077 0.11306 0.9421 0.0
C694 C 0.72851 0.10155 0.99702 0.0
C695 C 0.72617 0.09892 0.94252 0.0
H696 H 0.97355 0.43676 0.82441 0.0
H697 H 0.0306 0.46737 0.85504 0.0
H698 H 0.03687 0.46692 0.76147 0.0
H699 H 0.02618 0.46065 0.6699 0.0
H700 H 0.96913 0.43105 0.63887 0.0
H701 H 0.96291 0.42808 0.73331 0.0
C702 C 0.98736 0.4431 0.81074 0.0
C703 C 1.00155 0.45223 0.84675 0.0
C704 C 0.99091 0.44306 0.75658 0.0
C705 C 0.01938 0.46035 0.82824 0.0
C706 C 0.023 0.46013 0.77463 0.0
C707 C 0.01239 0.45324 0.68377 0.0
C708 C 0.99816 0.44621 0.64724 0.0
C709 C 0.00888 0.45193 0.73825 0.0
C710 C 0.98037 0.43669 0.66603 0.0
C711 C 0.97678 0.43504 0.72012 0.0
H712 H 0.55155 0.64426 0.68051 0.0
H713 H 0.57881 0.61479 0.64506 0.0
H714 H 0.58209 0.61108 0.73907 0.0
H715 H 0.57482 0.61379 0.83167 0.0
H716 H 0.54695 0.6427 0.8667 0.0
H717 H 0.54648 0.64908 0.77324 0.0
C718 C 0.5585 0.63729 0.69326 0.0
C719 C 0.56486 0.62978 0.65536 0.0
C720 C 0.5601 0.63493 0.74768 0.0
C721 C 0.57374 0.62072 0.67302 0.0
C722 C 0.57557 0.61851 0.72697 0.0
C723 C 0.56888 0.62172 0.819 0.0
C724 C 0.56085 0.62765 0.85655 0.0
C725 C 0.56844 0.62519 0.76473 0.0
C726 C 0.55319 0.63788 0.83901 0.0
C727 C 0.55287 0.64152 0.78535 0.0
H728 H 0.38732 0.01109 0.8737 0.0
H729 H 0.43296 0.06481 0.86894 0.0
H730 H 0.43374 0.06339 0.77306 0.0
H731 H 0.42273 0.04623 0.69 0.0
H732 H 0.37586 0.99337 0.69355 0.0
H733 H 0.37427 0.99515 0.78947 0.0
C734 C 0.39727 0.02258 0.85166 0.0
C735 C 0.4101 0.03801 0.87902 0.0
C736 C 0.39753 0.02179 0.7959 0.0
C737 C 0.42284 0.05277 0.84939 0.0
C738 C 0.42339 0.05194 0.7943 0.0
C739 C 0.41207 0.03517 0.71172 0.0
C740 C 0.39951 0.01964 0.68435 0.0
C741 C 0.411 0.03642 0.76708 0.0
C742 C 0.38569 0.00552 0.71332 0.0
C743 C 0.38481 0.0065 0.76837 0.0
H744 H 0.56286 0.99968 0.3638 0.0
H745 H 0.58612 0.05727 0.3621 0.0
H746 H 0.58915 0.05747 0.26639 0.0
H747 H 0.5829 0.04113 0.18217 0.0
H748 H 0.55887 0.98346 0.18339 0.0
H749 H 0.55865 0.98353 0.2797 0.0
C750 C 0.56884 0.01232 0.34263 0.0
C751 C 0.57418 0.02844 0.3705 0.0
C752 C 0.57033 0.01233 0.28715 0.0
C753 C 0.58184 0.04464 0.34203 0.0
C754 C 0.58355 0.04477 0.28709 0.0
C755 C 0.57788 0.02858 0.20342 0.0
C756 C 0.57087 0.0123 0.17517 0.0
C757 C 0.57751 0.02868 0.25906 0.0
C758 C 0.56435 0.99621 0.20376 0.0
C759 C 0.56415 0.99622 0.25902 0.0
H760 H 0.97218 0.61469 0.33116 0.0
H761 H 0.02941 0.64276 0.35961 0.0
H762 H 0.03513 0.6493 0.26581 0.0
H763 H 0.024 0.64414 0.17471 0.0
H764 H 0.96681 0.61507 0.14582 0.0
H765 H 0.96101 0.6121 0.24049 0.0
C766 C 0.9859 0.62249 0.31697 0.0
C767 C 1.00033 0.62805 0.35241 0.0
C768 C 0.98913 0.62595 0.26268 0.0
C769 C 0.01803 0.63818 0.33325 0.0
C770 C 0.02133 0.64191 0.27951 0.0
C771 C 0.01026 0.63747 0.18908 0.0
C772 C 0.99588 0.62972 0.15312 0.0
C773 C 1.00701 0.63544 0.24368 0.0
C774 C 0.97816 0.62108 0.17255 0.0
C775 C 0.97481 0.61931 0.22677 0.0
H776 H 0.36737 0.46264 0.17543 0.0
H777 H 0.39438 0.43255 0.14558 0.0
H778 H 0.39729 0.42951 0.24013 0.0
H779 H 0.39509 0.43818 0.33106 0.0
H780 H 0.369 0.46916 0.36061 0.0
H781 H 0.3627 0.46892 0.26681 0.0
C782 C 0.37358 0.45512 0.18958 0.0
C783 C 0.38076 0.44796 0.15334 0.0
C784 C 0.37557 0.45375 0.24414 0.0
C785 C 0.38881 0.4383 0.1725 0.0
C786 C 0.39055 0.4366 0.22665 0.0
C787 C 0.38779 0.44465 0.31711 0.0
C788 C 0.3827 0.45382 0.3529 0.0
C789 C 0.38444 0.44471 0.26283 0.0
C790 C 0.37321 0.4621 0.33401 0.0
C791 C 0.36961 0.462 0.28026 0.0
H792 H 0.34482 0.24148 0.16486 0.0
H793 H 0.28989 0.20248 0.20386 0.0
H794 H 0.29751 0.17864 0.20253 0.0
H795 H 0.31961 0.16885 0.19023 0.0
H796 H 0.37462 0.20773 0.15167 0.0
H797 H 0.36709 0.23168 0.15337 0.0
C798 C 0.33446 0.22777 0.17289 0.0
C799 C 0.31674 0.22383 0.18425 0.0
C800 C 0.33897 0.21412 0.17244 0.0
C801 C 0.30359 0.20595 0.19491 0.0
C802 C 0.30796 0.1923 0.19423 0.0
C803 C 0.33003 0.18256 0.18232 0.0
C804 C 0.3477 0.18643 0.1708 0.0
C805 C 0.32559 0.19623 0.18313 0.0
C806 C 0.36094 0.20432 0.16073 0.0
C807 C 0.35662 0.21802 0.16155 0.0
H808 H 0.77095 0.18573 0.16426 0.0
H809 H 0.81018 0.16943 0.19583 0.0
H810 H 0.83416 0.20073 0.19452 0.0
H811 H 0.84408 0.23257 0.1843 0.0
H812 H 0.80522 0.24934 0.15293 0.0
H813 H 0.78099 0.21796 0.15477 0.0
C814 C 0.78475 0.18899 0.17067 0.0
C815 C 0.78871 0.17514 0.17996 0.0
C816 C 0.79853 0.2071 0.17022 0.0
C817 C 0.80668 0.17972 0.18853 0.0
C818 C 0.82043 0.19765 0.18786 0.0
C819 C 0.83032 0.22945 0.178 0.0
C820 C 0.82653 0.24339 0.16846 0.0
C821 C 0.81651 0.21143 0.17882 0.0
C822 C 0.80856 0.23895 0.16046 0.0
C823 C 0.7947 0.22099 0.16135 0.0
H824 H 0.82638 0.66579 0.1738 0.0
H825 H 0.84196 0.72132 0.20046 0.0
H826 H 0.81039 0.71341 0.20002 0.0
H827 H 0.77853 0.69094 0.19136 0.0
H828 H 0.76263 0.6353 0.16548 0.0
H829 H 0.79423 0.64308 0.1669 0.0
C830 C 0.8229 0.6762 0.17932 0.0
C831 C 0.83661 0.69418 0.18686 0.0
C832 C 0.80468 0.67153 0.17949 0.0
C833 C 0.83177 0.70741 0.19447 0.0
C834 C 0.81369 0.70289 0.19428 0.0
C835 C 0.7819 0.68044 0.18619 0.0
C836 C 0.76814 0.66253 0.17819 0.0
C837 C 0.80006 0.68501 0.18682 0.0
C838 C 0.77288 0.64917 0.1718 0.0
C839 C 0.79097 0.65363 0.17241 0.0
H840 H 0.13506 0.37392 0.36864 0.0
H841 H 0.09251 0.32485 0.30175 0.0
H842 H 0.1123 0.31203 0.30038 0.0
H843 H 0.14201 0.31488 0.31722 0.0
H844 H 0.18418 0.36408 0.38503 0.0
H845 H 0.16421 0.37649 0.38741 0.0
C846 C 0.13012 0.36046 0.35347 0.0
C847 C 0.11234 0.35045 0.33505 0.0
C848 C 0.1415 0.35306 0.35329 0.0
C849 C 0.10615 0.33292 0.31611 0.0
C850 C 0.11745 0.32553 0.3154 0.0
C851 C 0.14676 0.32824 0.33299 0.0
C852 C 0.16463 0.3385 0.35072 0.0
C853 C 0.13518 0.33547 0.33395 0.0
C854 C 0.17054 0.35585 0.3708 0.0
C855 C 0.15914 0.36303 0.37213 0.0
H856 H 0.68158 0.85318 0.33277 0.0
H857 H 0.62584 0.83642 0.36301 0.0
H858 H 0.63311 0.86774 0.3637 0.0
H859 H 0.65511 0.89974 0.35543 0.0
H860 H 0.71091 0.91672 0.32565 0.0
H861 H 0.70375 0.88537 0.32557 0.0
C862 C 0.67097 0.85633 0.33932 0.0
C863 C 0.65314 0.84237 0.3476 0.0
C864 C 0.67527 0.87441 0.34007 0.0
C865 C 0.63965 0.84682 0.35643 0.0
C866 C 0.64381 0.86475 0.35691 0.0
C867 C 0.66578 0.89666 0.34908 0.0
C868 C 0.68356 0.91065 0.34051 0.0
C869 C 0.66155 0.87863 0.34883 0.0
C870 C 0.69713 0.90629 0.33244 0.0
C871 C 0.69303 0.88834 0.33223 0.0
H872 H 0.16235 0.90762 0.33401 0.0
H873 H 0.17737 0.86685 0.35177 0.0
H874 H 0.14575 0.84362 0.35235 0.0
H875 H 0.11397 0.83478 0.34842 0.0
H876 H 0.09846 0.87512 0.32985 0.0
H877 H 0.13019 0.89862 0.32942 0.0
C878 C 0.15874 0.89365 0.33777 0.0
C879 C 0.17233 0.88905 0.34277 0.0
C880 C 0.14044 0.88028 0.3383 0.0
C881 C 0.16729 0.87085 0.34777 0.0
C882 C 0.14918 0.85752 0.34824 0.0
C883 C 0.11744 0.84871 0.34449 0.0
C884 C 0.10375 0.85313 0.33937 0.0
C885 C 0.13566 0.86208 0.34377 0.0
C886 C 0.10865 0.87129 0.33401 0.0
C887 C 0.12681 0.88474 0.33363 0.0
H888 H 0.68311 0.90799 0.83135 0.0
H889 H 0.62763 0.87024 0.86862 0.0
H890 H 0.63426 0.84574 0.86831 0.0
H891 H 0.65561 0.835 0.85731 0.0
H892 H 0.71116 0.87254 0.82042 0.0
H893 H 0.70466 0.8972 0.82126 0.0
C894 C 0.67242 0.8944 0.83921 0.0
C895 C 0.65485 0.891 0.84979 0.0
C896 C 0.67635 0.88035 0.83937 0.0
C897 C 0.64125 0.87329 0.86027 0.0
C898 C 0.64503 0.85925 0.86018 0.0
C899 C 0.66637 0.84857 0.84961 0.0
C900 C 0.68388 0.85186 0.83878 0.0
C901 C 0.66253 0.86264 0.84987 0.0
C902 C 0.69758 0.86958 0.82896 0.0
C903 C 0.69386 0.88369 0.82928 0.0
H904 H 0.17854 0.90033 0.85974 0.0
H905 H 0.13996 0.91815 0.83955 0.0
H906 H 0.11548 0.88691 0.83916 0.0
H907 H 0.10514 0.85454 0.84279 0.0
H908 H 0.14397 0.83705 0.86347 0.0
H909 H 0.16827 0.86825 0.865 0.0
C910 C 0.16479 0.89746 0.85545 0.0
C911 C 0.16115 0.91165 0.84959 0.0
C912 C 0.15082 0.87951 0.85495 0.0
C913 C 0.14319 0.90755 0.84424 0.0
C914 C 0.12918 0.88967 0.84381 0.0
C915 C 0.11892 0.85752 0.84744 0.0
C916 C 0.12269 0.84339 0.85272 0.0
C917 C 0.13286 0.87554 0.84872 0.0
C918 C 0.14064 0.84759 0.8592 0.0
C919 C 0.15456 0.86545 0.86016 0.0
H920 H 0.1081 0.35742 0.85889 0.0
H921 H 0.09116 0.30148 0.83419 0.0
H922 H 0.12255 0.30862 0.83588 0.0
H923 H 0.1548 0.33081 0.8425 0.0
H924 H 0.17162 0.38667 0.86841 0.0
H925 H 0.14023 0.37945 0.86777 0.0
C926 C 0.11121 0.34673 0.85407 0.0
C927 C 0.09719 0.3289 0.84628 0.0
C928 C 0.12929 0.35094 0.85493 0.0
C929 C 0.10159 0.31529 0.84034 0.0
C930 C 0.11957 0.31938 0.8411 0.0
C931 C 0.15165 0.34146 0.84783 0.0
C932 C 0.16566 0.35932 0.85514 0.0
C933 C 0.13353 0.33718 0.84794 0.0
C934 C 0.1612 0.37284 0.86257 0.0
C935 C 0.14322 0.36871 0.86226 0.0
H936 H 0.7712 0.66443 0.6624 0.0
H937 H 0.81101 0.72063 0.6777 0.0
H938 H 0.83485 0.7131 0.67935 0.0
H939 H 0.84451 0.69085 0.67716 0.0
H940 H 0.80526 0.63459 0.6608 0.0
H941 H 0.78108 0.64191 0.65924 0.0
C942 C 0.78509 0.67506 0.66586 0.0
C943 C 0.78924 0.69311 0.6699 0.0
C944 C 0.79884 0.67064 0.66695 0.0
C945 C 0.80735 0.70665 0.67447 0.0
C946 C 0.82103 0.70236 0.67554 0.0
C947 C 0.83067 0.6801 0.67347 0.0
C948 C 0.82675 0.66215 0.66934 0.0
C949 C 0.81693 0.68442 0.67207 0.0
C950 C 0.8087 0.6485 0.6642 0.0
C951 C 0.79487 0.6527 0.6632 0.0
H952 H 0.3187 0.23314 0.69052 0.0
H953 H 0.37471 0.2513 0.65985 0.0
H954 H 0.36819 0.22016 0.65885 0.0
H955 H 0.34652 0.18781 0.66549 0.0
H956 H 0.29057 0.16988 0.69649 0.0
H957 H 0.29719 0.201 0.69813 0.0
C958 C 0.32955 0.23037 0.6838 0.0
C959 C 0.3472 0.24463 0.67525 0.0
C960 C 0.3257 0.21245 0.68297 0.0
C961 C 0.36102 0.24065 0.66664 0.0
C962 C 0.35729 0.22283 0.6659 0.0
C963 C 0.33573 0.19066 0.6724 0.0
C964 C 0.31802 0.17643 0.68064 0.0
C965 C 0.33965 0.20862 0.6737 0.0
C966 C 0.30429 0.18049 0.68993 0.0
C967 C 0.30808 0.1983 0.69096 0.0
H968 H 0.76714 0.1968 0.63784 0.0
H969 H 0.77284 0.15873 0.73482 0.0
H970 H 0.80513 0.17912 0.74095 0.0
H971 H 0.8321 0.2075 0.7173 0.0
H972 H 0.82665 0.24565 0.61994 0.0
H973 H 0.79423 0.22556 0.61525 0.0
C974 C 0.77543 0.19308 0.6608 0.0
C975 C 0.7675 0.17623 0.68574 0.0
C976 C 0.79418 0.20482 0.66367 0.0
C977 C 0.77853 0.17157 0.71495 0.0
C978 C 0.79706 0.18322 0.71844 0.0
C979 C 0.82385 0.21138 0.69479 0.0
C980 C 0.83193 0.22808 0.66891 0.0
C981 C 0.8051 0.19979 0.69248 0.0
C982 C 0.8209 0.2329 0.64032 0.0
C983 C 0.80228 0.22142 0.63766 0.0
H984 H 0.98766 0.50005 0.51395 0.0
H985 H 0.0434 0.5383 0.48186 0.0
H986 H 0.03652 0.56272 0.48299 0.0
H987 H 0.01457 0.57309 0.49188 0.0
H988 H 0.95888 0.53454 0.52394 0.0
H989 H 0.96592 0.51033 0.52361 0.0
C990 C 0.99838 0.51372 0.50736 0.0
C991 C 0.01606 0.51728 0.49781 0.0
C992 C 0.99432 0.52764 0.50771 0.0
C993 C 0.0297 0.53513 0.48939 0.0
C994 C 0.02576 0.5491 0.48988 0.0
C995 C 1.00392 0.55939 0.49863 0.0
C996 C 0.98616 0.55569 0.50774 0.0
C997 C 1.00808 0.54549 0.49869 0.0
C998 C 0.97263 0.53784 0.51672 0.0
C999 C 0.97665 0.52396 0.51663 0.0
H1000 H 0.43693 0.52109 0.50748 0.0
H1001 H 0.47565 0.50328 0.52419 0.0
H1002 H 0.50004 0.53444 0.52678 0.0
H1003 H 0.51041 0.56658 0.52328 0.0
H1004 H 0.4719 0.58467 0.50726 0.0
H1005 H 0.44734 0.55347 0.50607 0.0
C1006 C 0.45071 0.52399 0.51149 0.0
C1007 C 0.45442 0.50979 0.51529 0.0
C1008 C 0.46469 0.54197 0.51343 0.0
C1009 C 0.47236 0.51388 0.52104 0.0
C1010 C 0.48633 0.53171 0.5226 0.0
C1011 C 0.49665 0.56377 0.51975 0.0
C1012 C 0.49305 0.57803 0.51523 0.0
C1013 C 0.48265 0.54584 0.51878 0.0
C1014 C 0.4751 0.57402 0.51091 0.0
C1015 C 0.46105 0.55617 0.51 0.0
H1016 H 0.49959 0.03817 0.54227 0.0
H1017 H 0.50303 0.991 0.50376 0.0
H1018 H 0.47049 0.97293 0.50185 0.0
H1019 H 0.44083 0.97016 0.50956 0.0
H1020 H 0.43652 0.0169 0.54439 0.0
H1021 H 0.46931 0.03527 0.55005 0.0
C1022 C 0.49322 0.02397 0.5333 0.0
C1023 C 0.50394 0.01609 0.52313 0.0
C1024 C 0.47423 0.01344 0.53211 0.0
C1025 C 0.49531 0.99758 0.51174 0.0
C1026 C 0.47661 0.98713 0.51072 0.0
C1027 C 0.44708 0.98435 0.51901 0.0
C1028 C 0.43621 0.99203 0.52728 0.0
C1029 C 0.46593 0.99488 0.52086 0.0
C1030 C 0.44449 0.01051 0.5387 0.0
C1031 C 0.46331 0.02107 0.54148 0.0
H1032 H 0.45323 0.01281 0.02745 0.0
H1033 H 0.49496 0.0684 0.01521 0.0
H1034 H 0.51778 0.05936 0.01388 0.0
H1035 H 0.52592 0.03585 0.01738 0.0
H1036 H 0.48432 0.98022 0.02898 0.0
H1037 H 0.46138 0.98919 0.02975 0.0
C1038 C 0.46731 0.02299 0.02426 0.0
C1039 C 0.47233 0.0413 0.02147 0.0
C1040 C 0.48038 0.0177 0.02378 0.0
C1041 C 0.49066 0.05423 0.01736 0.0
C1042 C 0.50374 0.04907 0.01675 0.0
C1043 C 0.51184 0.02563 0.0203 0.0
C1044 C 0.50689 0.00735 0.02339 0.0
C1045 C 0.49875 0.03087 0.02026 0.0
C1046 C 0.48855 0.99436 0.0267 0.0
C1047 C 0.47542 0.99949 0.02704 0.0
H1048 H 0.98589 0.56518 0.01838 0.0
H1049 H 0.04184 0.58345 0.98644 0.0
H1050 H 0.03537 0.55231 0.98505 0.0
H1051 H 0.01371 0.51991 0.99157 0.0
H1052 H 0.95781 0.50197 0.02364 0.0
H1053 H 0.96444 0.53307 0.02587 0.0
C1054 C 0.99675 0.56243 0.0113 0.0
C1055 C 0.01436 0.57672 1.0025 0.0
C1056 C 0.99291 0.54454 0.0102 0.0
C1057 C 0.02818 0.57278 0.99344 0.0
C1058 C 0.02447 0.55495 0.99247 0.0
C1059 C 1.00293 0.52276 0.99885 0.0
C1060 C 0.98523 0.50853 1.0072 0.0
C1061 C 1.00686 0.54072 1.00045 0.0
C1062 C 0.97152 0.51258 0.01696 0.0
C1063 C 0.97531 0.53038 0.01834 0.0
H1064 H 0.44581 0.50025 0.01005 0.0
H1065 H 0.42898 0.53963 0.99222 0.0
H1066 H 0.46049 0.56367 0.99249 0.0
H1067 H 0.49282 0.57343 0.99726 0.0
H1068 H 0.50921 0.53367 0.01456 0.0
H1069 H 0.47779 0.50986 0.01459 0.0
C1070 C 0.44894 0.51408 1.00641 0.0
C1071 C 0.43494 0.51807 1.00125 0.0
C1072 C 0.46704 0.52778 1.00616 0.0
C1073 C 0.43941 0.53612 0.99638 0.0
C1074 C 0.45745 0.54988 0.9964 0.0
C1075 C 0.48956 0.55956 1.00084 0.0
C1076 C 0.50348 0.55542 1.00581 0.0
C1077 C 0.47138 0.54586 1.00107 0.0
C1078 C 0.49888 0.53732 0.01059 0.0
C1079 C 0.48088 0.52367 0.01073 0.0
H1080 H 0.44351 0.11279 0.13731 0.0
H1081 H 0.4351 0.11424 0.97042 0.0
H1082 H 0.42269 0.1341 0.98548 0.0
H1083 H 0.41075 0.14773 0.04685 0.0
H1084 H 0.41461 0.142 0.21431 0.0
H1085 H 0.43245 0.12733 0.19874 0.0
C1086 C 0.43943 0.11791 0.1042 0.0
C1087 C 0.44051 0.11239 0.0527 0.0
C1088 C 0.43131 0.12839 0.11355 0.0
C1089 C 0.4346 0.11854 0.01023 0.0
C1090 C 0.42741 0.12978 0.01894 0.0
C1091 C 0.41594 0.14371 0.07995 0.0
C1092 C 0.41164 0.14619 0.13173 0.0
C1093 C 0.42522 0.13436 0.07052 0.0
C1094 C 0.41792 0.14039 0.17421 0.0
C1095 C 0.42802 0.13193 0.16524 0.0
H1096 H 0.86806 0.34601 0.0507 0.0
H1097 H 0.88014 0.35532 0.21649 0.0
H1098 H 0.89935 0.38753 0.19978 0.0
H1099 H 0.91602 0.41204 0.13674 0.0
H1100 H 0.90738 0.40167 0.96994 0.0
H1101 H 0.88338 0.37091 0.98804 0.0
C1102 C 0.87445 0.35518 0.08337 0.0
C1103 C 0.87251 0.34836 0.13491 0.0
C1104 C 0.88631 0.37345 0.07297 0.0
C1105 C 0.88129 0.3603 0.17664 0.0
C1106 C 0.89238 0.37867 0.16698 0.0
C1107 C 0.90856 0.40318 0.10437 0.0
C1108 C 0.91336 0.40912 0.05202 0.0
C1109 C 0.89548 0.38528 0.11511 0.0
C1110 C 0.90388 0.39739 0.01049 0.0
C1111 C 0.89022 0.37981 0.02088 0.0
H1112 H 0.66742 0.60191 0.05225 0.0
H1113 H 0.65459 0.59822 0.21763 0.0
H1114 H 0.62253 0.58456 0.19633 0.0
H1115 H 0.59895 0.57777 0.13069 0.0
H1116 H 0.61262 0.58611 0.96562 0.0
H1117 H 0.64352 0.59369 0.98637 0.0
C1118 C 0.65751 0.59756 0.08362 0.0
C1119 C 0.66326 0.60071 0.13652 0.0
C1120 C 0.6393 0.59081 0.07087 0.0
C1121 C 0.65041 0.59566 0.17675 0.0
C1122 C 0.63213 0.588 0.16449 0.0
C1123 C 0.60857 0.58077 0.09912 0.0
C1124 C 0.60347 0.58118 0.04657 0.0
C1125 C 0.6265 0.58607 0.11168 0.0
C1126 C 0.6162 0.58558 1.00625 0.0
C1127 C 0.63388 0.58999 0.01819 0.0
H1128 H 0.07511 0.47474 0.37225 0.0
H1129 H 0.07703 0.46564 0.53855 0.0
H1130 H 0.09098 0.44734 0.51994 0.0
H1131 H 0.09831 0.43046 0.45609 0.0
H1132 H 0.09163 0.43571 0.28988 0.0
H1133 H 0.08409 0.45917 0.30834 0.0
C1134 C 0.07911 0.46921 0.40448 0.0
C1135 C 0.0753 0.47173 0.4568 0.0
C1136 C 0.08606 0.45782 0.39322 0.0
C1137 C 0.08001 0.46402 0.49808 0.0
C1138 C 0.08786 0.45347 0.48736 0.0
C1139 C 0.09574 0.43714 0.42381 0.0
C1140 C 0.09575 0.43155 0.37159 0.0
C1141 C 0.09036 0.44978 0.43503 0.0
C1142 C 0.09186 0.43991 0.33028 0.0
C1143 C 0.08744 0.45323 0.34092 0.0
H1144 H 0.58444 0.74681 0.48313 0.0
H1145 H 0.57355 0.7354 0.31744 0.0
H1146 H 0.54957 0.70487 0.33827 0.0
H1147 H 0.5347 0.68045 0.40276 0.0
H1148 H 0.5491 0.6907 0.56694 0.0
H1149 H 0.56849 0.72275 0.54802 0.0
C1150 C 0.57649 0.73778 0.45164 0.0
C1151 C 0.58062 0.74338 0.39878 0.0
C1152 C 0.56344 0.72001 0.46387 0.0
C1153 C 0.57055 0.7314 0.35836 0.0
C1154 C 0.5569 0.71395 0.37031 0.0
C1155 C 0.54165 0.68981 0.43462 0.0
C1156 C 0.54026 0.68333 0.48637 0.0
C1157 C 0.55361 0.70795 0.42282 0.0
C1158 C 0.5498 0.69546 0.52701 0.0
C1159 C 0.56098 0.71373 0.51606 0.0
H1160 H 0.28367 0.91792 0.33262 0.0
H1161 H 0.25943 0.90337 0.4869 0.0
H1162 H 0.28859 0.91245 0.52624 0.0
H1163 H 0.32166 0.92931 0.5185 0.0
H1164 H 0.34583 0.94194 0.36399 0.0
H1165 H 0.31617 0.92851 0.32331 0.0
C1166 C 0.28472 0.91624 0.37459 0.0
C1167 C 0.26941 0.91022 0.40672 0.0
C1168 C 0.3016 0.92133 0.3972 0.0
C1169 C 0.27096 0.90798 0.46108 0.0
C1170 C 0.2877 0.91331 0.48383 0.0
C1171 C 0.32039 0.92859 0.47591 0.0
C1172 C 0.33595 0.93682 0.44447 0.0
C1173 C 0.30323 0.92071 0.45257 0.0
C1174 C 0.33409 0.93568 0.38926 0.0
C1175 C 0.3171 0.92815 0.36584 0.0
H1176 H 0.5539 0.93917 0.04638 0.0
H1177 H 0.5304 0.93662 0.89413 0.0
H1178 H 0.54694 0.92314 0.8561 0.0
H1179 H 0.57201 0.91685 0.86311 0.0
H1180 H 0.59392 0.91742 0.01652 0.0
H1181 H 0.574 0.92658 0.05686 0.0
C1182 C 0.55195 0.93511 1.00531 0.0
C1183 C 0.54111 0.93913 0.97314 0.0
C1184 C 0.56148 0.92724 0.98351 0.0
C1185 C 0.53864 0.93368 0.91998 0.0
C1186 C 0.54827 0.92612 0.89792 0.0
C1187 C 0.57204 0.91851 0.9055 0.0
C1188 C 0.58459 0.91669 0.93656 0.0
C1189 C 0.56033 0.92357 0.9288 0.0
C1190 C 0.58439 0.91872 0.99157 0.0
C1191 C 0.57307 0.9241 0.01477 0.0
H1192 H 0.09502 0.74573 0.97689 0.0
H1193 H 0.09168 0.73606 0.80938 0.0
H1194 H 0.0839 0.70489 0.82523 0.0
H1195 H 0.07403 0.67959 0.88654 0.0
H1196 H 0.07288 0.68834 0.05346 0.0
H1197 H 0.08673 0.72074 0.03839 0.0
C1198 C 0.09305 0.73692 0.94383 0.0
C1199 C 0.09406 0.7432 0.89197 0.0
C1200 C 0.08764 0.71881 0.95336 0.0
C1201 C 0.09105 0.73153 0.84957 0.0
C1202 C 0.08653 0.71371 0.85868 0.0
C1203 C 0.07733 0.68866 0.91975 0.0
C1204 C 0.07268 0.68165 0.97116 0.0
C1205 C 0.08424 0.70707 0.9104 0.0
C1206 C 0.07651 0.69347 0.01367 0.0
C1207 C 0.0843 0.71195 1.00496 0.0
H1208 H 0.31958 0.46399 0.02652 0.0
H1209 H 0.33694 0.48402 0.86898 0.0
H1210 H 0.30623 0.46601 0.83676 0.0
H1211 H 0.27511 0.44122 0.85114 0.0
H1212 H 0.25729 0.42297 1.00974 0.0
H1213 H 0.28724 0.44366 0.04353 0.0
C1214 C 0.31654 0.46479 0.98547 0.0
C1215 C 0.3306 0.47522 0.95026 0.0
C1216 C 0.29872 0.45449 0.96707 0.0
C1217 C 0.32641 0.47617 0.89714 0.0
C1218 C 0.30882 0.46572 0.87844 0.0
C1219 C 0.2777 0.44212 0.89318 0.0
C1220 C 0.26402 0.43044 0.9277 0.0
C1221 C 0.29497 0.45432 0.91268 0.0
C1222 C 0.26754 0.43184 0.9822 0.0
C1223 C 0.28474 0.44359 1.00164 0.0
H1224 H 0.86981 0.60297 0.54814 0.0
H1225 H 0.87805 0.60096 0.715 0.0
H1226 H 0.89696 0.5876 0.69771 0.0
H1227 H 0.91453 0.58075 0.63501 0.0
H1228 H 0.90974 0.58711 0.46827 0.0
H1229 H 0.88597 0.59435 0.48534 0.0
C1230 C 0.87528 0.59907 0.58077 0.0
C1231 C 0.87236 0.60271 0.63286 0.0
C1232 C 0.887 0.59245 0.57032 0.0
C1233 C 0.87998 0.59811 0.67468 0.0
C1234 C 0.89089 0.59061 0.66472 0.0
C1235 C 0.90795 0.58327 0.6023 0.0
C1236 C 0.91379 0.58328 0.55036 0.0
C1237 C 0.895 0.58832 0.61267 0.0
C1238 C 0.90543 0.58696 0.50851 0.0
C1239 C 0.8919 0.59116 0.51833 0.0
H1240 H 0.42761 0.41338 0.64157 0.0
H1241 H 0.42435 0.40225 0.47493 0.0
H1242 H 0.41702 0.37137 0.49357 0.0
H1243 H 0.4074 0.34666 0.55692 0.0
H1244 H 0.40619 0.35683 0.72286 0.0
H1245 H 0.41972 0.38904 0.70517 0.0
C1246 C 0.42576 0.40433 0.60931 0.0
C1247 C 0.42664 0.4101 0.55688 0.0
C1248 C 0.42061 0.38638 0.62041 0.0
C1249 C 0.4238 0.39812 0.51553 0.0
C1250 C 0.41954 0.38046 0.52624 0.0
C1251 C 0.41063 0.35601 0.58938 0.0
C1252 C 0.40603 0.34944 0.64125 0.0
C1253 C 0.41735 0.37429 0.57849 0.0
C1254 C 0.40977 0.36161 0.68274 0.0
C1255 C 0.41737 0.37999 0.67253 0.0
H1256 H 0.59859 0.10102 0.63939 0.0
H1257 H 0.609 0.10395 0.47245 0.0
H1258 H 0.64077 0.12586 0.48808 0.0
H1259 H 0.66617 0.14057 0.54998 0.0
H1260 H 0.65623 0.13368 0.7172 0.0
H1261 H 0.62373 0.11717 0.70108 0.0
C1262 C 0.60771 0.10691 0.60631 0.0
C1263 C 0.60141 0.1011 0.5547 0.0
C1264 C 0.62612 0.11864 0.61594 0.0
C1265 C 0.6135 0.10837 0.51239 0.0
C1266 C 0.63168 0.1208 0.52142 0.0
C1267 C 0.65685 0.13594 0.58291 0.0
C1268 C 0.66356 0.13856 0.6348 0.0
C1269 C 0.63825 0.12555 0.57314 0.0
C1270 C 0.65137 0.13198 0.67702 0.0
C1271 C 0.63281 0.12244 0.66773 0.0
H1272 H 0.74229 0.80982 0.71009 0.0
H1273 H 0.74601 0.80126 0.87589 0.0
H1274 H 0.76036 0.78346 0.85542 0.0
H1275 H 0.7676 0.76684 0.79042 0.0
H1276 H 0.75917 0.7715 0.62503 0.0
H1277 H 0.7511 0.7945 0.64492 0.0
C1278 C 0.74676 0.80452 0.74177 0.0
C1279 C 0.74335 0.80704 0.79451 0.0
C1280 C 0.75392 0.7934 0.72953 0.0
C1281 C 0.74867 0.79964 0.83512 0.0
C1282 C 0.75675 0.78937 0.82334 0.0
C1283 C 0.76449 0.77327 0.75859 0.0
C1284 C 0.76416 0.76766 0.70621 0.0
C1285 C 0.75886 0.78566 0.77068 0.0
C1286 C 0.75963 0.77571 0.66553 0.0
C1287 C 0.75493 0.78878 0.67698 0.0
H1288 H 0.20208 0.01345 0.73126 0.0
H1289 H 0.21375 0.02448 0.8967 0.0
H1290 H 0.23265 0.05657 0.87757 0.0
H1291 H 0.24917 0.08054 0.81291 0.0
H1292 H 0.24104 0.06854 0.64679 0.0
H1293 H 0.21733 0.03781 0.66674 0.0
C1294 C 0.2083 0.02298 0.76325 0.0
C1295 C 0.20631 0.0167 0.81546 0.0
C1296 C 0.22002 0.04119 0.75153 0.0
C1297 C 0.21492 0.02906 0.85637 0.0
C1298 C 0.22583 0.04736 0.84532 0.0
C1299 C 0.24189 0.07133 0.78104 0.0
C1300 C 0.24675 0.07682 0.72838 0.0
C1301 C 0.22897 0.05347 0.79292 0.0
C1302 C 0.23749 0.06463 0.68756 0.0
C1303 C 0.22399 0.04706 0.69901 0.0
H1304 H 0.98093 0.26762 0.86496 0.0
H1305 H 1.00048 0.26396 0.71147 0.0
H1306 H 0.97039 0.25186 0.67468 0.0
H1307 H 0.93933 0.24646 0.6836 0.0
H1308 H 0.91925 0.24775 0.83845 0.0
H1309 H 0.94844 0.25631 0.877 0.0
C1310 C 0.97847 0.26365 0.82385 0.0
C1311 C 0.99299 0.26683 0.79107 0.0
C1312 C 0.961 0.25647 0.80285 0.0
C1313 C 0.98956 0.26157 0.73782 0.0
C1314 C 0.97235 0.25481 0.71649 0.0
C1315 C 0.94124 0.24815 0.72591 0.0
C1316 C 0.92716 0.24661 0.75791 0.0
C1317 C 0.95808 0.25281 0.74821 0.0
C1318 C 0.92981 0.24876 0.81279 0.0
C1319 C 0.94659 0.25382 0.83496 0.0
H1320 H 0.23367 0.24992 0.18852 0.0
H1321 H 0.25349 0.25064 0.34517 0.0
H1322 H 0.23292 0.25967 0.38157 0.0
H1323 H 0.21238 0.27158 0.36719 0.0
H1324 H 0.1908 0.26865 0.2117 0.0
H1325 H 0.20854 0.25596 0.17707 0.0
C1326 C 0.23314 0.25162 0.23072 0.0
C1327 C 0.24523 0.24978 0.26391 0.0
C1328 C 0.221 0.25655 0.25174 0.0
C1329 C 0.2443 0.2519 0.31864 0.0
C1330 C 0.23261 0.25721 0.33957 0.0
C1331 C 0.21115 0.26764 0.3261 0.0
C1332 C 0.20039 0.27123 0.29214 0.0
C1333 C 0.22132 0.26016 0.3063 0.0
C1334 C 0.1989 0.26598 0.23894 0.0
C1335 C 0.20921 0.25888 0.21884 0.0
H1336 H 0.74472 0.01298 0.22411 0.0
H1337 H 0.74387 0.02257 0.39058 0.0
H1338 H 0.75714 0.05482 0.37393 0.0
H1339 H 0.76456 0.0793 0.31119 0.0
H1340 H 0.76076 0.06865 0.1442 0.0
H1341 H 0.7539 0.03783 0.16156 0.0
C1342 C 0.74799 0.02222 0.25688 0.0
C1343 C 0.74358 0.01549 0.30863 0.0
C1344 C 0.75452 0.04051 0.24661 0.0
C1345 C 0.74734 0.0275 0.35056 0.0
C1346 C 0.75479 0.04589 0.34094 0.0
C1347 C 0.76271 0.07037 0.27857 0.0
C1348 C 0.76329 0.07625 0.22642 0.0
C1349 C 0.7578 0.05244 0.28899 0.0
C1350 C 0.76044 0.06443 0.18459 0.0
C1351 C 0.75645 0.04681 0.19457 0.0
H1352 H 0.98864 0.8018 0.36072 0.0
H1353 H 1.00682 0.82057 0.20267 0.0
H1354 H 0.97627 0.80233 0.16947 0.0
H1355 H 0.9452 0.77744 0.18353 0.0
H1356 H 0.92659 0.76032 0.34233 0.0
H1357 H 0.95625 0.78158 0.37682 0.0
C1358 C 0.98581 0.80231 0.31929 0.0
C1359 C 1.00005 0.81239 0.28427 0.0
C1360 C 0.9681 0.79184 0.30031 0.0
C1361 C 0.99614 0.81298 0.23067 0.0
C1362 C 0.97865 0.80239 0.21143 0.0
C1363 C 0.94755 0.77871 0.22571 0.0
C1364 C 0.93376 0.76716 0.26016 0.0
C1365 C 0.96465 0.79121 0.24557 0.0
C1366 C 0.93695 0.76906 0.31484 0.0
C1367 C 0.95397 0.78115 0.33469 0.0
H1368 H 0.36342 0.12865 0.98142 0.0
H1369 H 0.309 0.10022 0.04038 0.0
H1370 H 0.29759 0.09233 0.95024 0.0
H1371 H 0.30301 0.0983 0.85547 0.0
H1372 H 0.35743 0.12781 0.79673 0.0
H1373 H 0.36898 0.13017 0.88618 0.0
C1374 C 0.34907 0.12041 0.97457 0.0
C1375 C 0.33702 0.11535 0.01725 0.0
C1376 C 0.34264 0.11629 0.92277 0.0
C1377 C 0.31851 0.10436 1.0081 0.0
C1378 C 0.312 0.09997 0.95657 0.0
C1379 C 0.31741 0.10492 0.86211 0.0
C1380 C 0.32937 0.11323 0.8198 0.0
C1381 C 0.32391 0.10659 0.91366 0.0
C1382 C 0.34796 0.12142 0.82869 0.0
C1383 C 0.35456 0.1229 0.87988 0.0
H1384 H 0.88356 0.31667 0.97783 0.0
H1385 H 0.9127 0.29097 0.03289 0.0
H1386 H 0.92056 0.28817 0.94205 0.0
H1387 H 0.91407 0.2878 0.84781 0.0
H1388 H 0.88386 0.31232 0.79265 0.0
H1389 H 0.88186 0.32129 0.8829 0.0
C1390 C 0.89195 0.31079 0.96995 0.0
C1391 C 0.89719 0.30362 0.01167 0.0
C1392 C 0.89609 0.30893 0.91774 0.0
C1393 C 0.90839 0.29643 1.00131 0.0
C1394 C 0.91278 0.29473 0.9494 0.0
C1395 C 0.90746 0.29553 0.85545 0.0
C1396 C 0.89879 0.2991 0.81408 0.0
C1397 C 0.90595 0.30015 0.90736 0.0
C1398 C 0.89056 0.30939 0.824 0.0
C1399 C 0.88926 0.31433 0.87563 0.0
H1400 H 0.72176 0.69592 0.01836 0.0
H1401 H 0.69213 0.6389 0.98938 0.0
H1402 H 0.69325 0.64408 0.89472 0.0
H1403 H 0.70689 0.66467 0.81947 0.0
H1404 H 0.73729 0.7217 0.84849 0.0
H1405 H 0.7314 0.7167 0.94262 0.0
C1406 C 0.7151 0.68469 0.99136 0.0
C1407 C 0.70711 0.66709 0.0109 0.0
C1408 C 0.71617 0.68774 0.93646 0.0
C1409 C 0.6986 0.65263 0.9753 0.0
C1410 C 0.69927 0.65555 0.92101 0.0
C1411 C 0.71178 0.676 0.84624 0.0
C1412 C 0.72275 0.69348 0.8269 0.0
C1413 C 0.70867 0.67303 0.90092 0.0
C1414 C 0.72902 0.70803 0.86233 0.0
C1415 C 0.7257 0.70521 0.91636 0.0
H1416 H 0.05084 0.36253 0.68408 0.0
H1417 H 0.02099 0.30539 0.65722 0.0
H1418 H 0.02134 0.31018 0.56251 0.0
H1419 H 0.0346 0.33042 0.48644 0.0
H1420 H 0.06561 0.38752 0.51312 0.0
H1421 H 0.06006 0.383 0.60762 0.0
C1422 C 0.04397 0.3512 0.65754 0.0
C1423 C 0.03614 0.33367 0.6776 0.0
C1424 C 0.04463 0.35402 0.60259 0.0
C1425 C 0.02735 0.31906 0.64265 0.0
C1426 C 0.02756 0.32176 0.58836 0.0
C1427 C 0.03962 0.34187 0.5128 0.0
C1428 C 0.05066 0.35923 0.49282 0.0
C1429 C 0.03683 0.33916 0.56763 0.0
C1430 C 0.05722 0.37396 0.52761 0.0
C1431 C 0.05412 0.3714 0.5818 0.0
H1432 H 0.69683 0.79277 0.649 0.0
H1433 H 0.64237 0.76543 0.70777 0.0
H1434 H 0.63094 0.75775 0.61756 0.0
H1435 H 0.63649 0.76369 0.52283 0.0
H1436 H 0.69099 0.79218 0.46431 0.0
H1437 H 0.70241 0.79419 0.5538 0.0
C1438 C 0.68246 0.78481 0.64208 0.0
C1439 C 0.67041 0.78001 0.68469 0.0
C1440 C 0.67603 0.78081 0.59027 0.0
C1441 C 0.65187 0.76937 0.6755 0.0
C1442 C 0.64535 0.7651 0.62395 0.0
C1443 C 0.65087 0.77 0.52952 0.0
C1444 C 0.66292 0.77815 0.48729 0.0
C1445 C 0.6573 0.77149 0.58108 0.0
C1446 C 0.68147 0.78593 0.49623 0.0
C1447 C 0.68799 0.78721 0.54744 0.0
H1448 H 0.24214 0.95761 0.691 0.0
H1449 H 0.21315 0.98564 0.66044 0.0
H1450 H 0.21723 0.98422 0.56593 0.0
H1451 H 0.22486 0.97085 0.49123 0.0
H1452 H 0.25316 0.94213 0.52186 0.0
H1453 H 0.25381 0.94824 0.61579 0.0
C1454 C 0.23717 0.96383 0.6637 0.0
C1455 C 0.22712 0.97145 0.68287 0.0
C1456 C 0.23923 0.96265 0.60884 0.0
C1457 C 0.22072 0.97942 0.64677 0.0
C1458 C 0.223 0.9786 0.59253 0.0
C1459 C 0.23162 0.9664 0.5183 0.0
C1460 C 0.23871 0.95585 0.49948 0.0
C1461 C 0.2316 0.96961 0.5729 0.0
C1462 C 0.24736 0.9501 0.53531 0.0
C1463 C 0.24771 0.95354 0.58923 0.0
H1464 H 0.70075 0.98337 0.15121 0.0
H1465 H 0.64613 0.96023 0.20715 0.0
H1466 H 0.63549 0.95772 0.11641 0.0
H1467 H 0.64127 0.95692 0.02209 0.0
H1468 H 0.69574 0.97866 0.96621 0.0
H1469 H 0.70699 0.98738 0.05623 0.0
C1470 C 0.68654 0.97809 0.14357 0.0
C1471 C 0.67415 0.97157 0.18556 0.0
C1472 C 0.68053 0.97635 0.09142 0.0
C1473 C 0.65587 0.96518 0.17541 0.0
C1474 C 0.64979 0.96365 0.12354 0.0
C1475 C 0.65565 0.96396 0.02947 0.0
C1476 C 0.66767 0.9668 0.98789 0.0
C1477 C 0.66192 0.9684 0.08131 0.0
C1478 C 0.68624 0.97624 0.99764 0.0
C1479 C 0.69265 0.98106 0.04916 0.0
H1480 H 0.02994 0.79445 0.15377 0.0
H1481 H 0.05724 0.76745 0.2133 0.0
H1482 H 0.06089 0.75948 0.12322 0.0
H1483 H 0.06112 0.7651 0.02817 0.0
H1484 H 0.03478 0.79314 0.96898 0.0
H1485 H 0.02558 0.79548 0.05851 0.0
C1486 C 0.03634 0.78647 0.14704 0.0
C1487 C 0.04365 0.78183 0.18982 0.0
C1488 C 0.03871 0.78232 0.0953 0.0
C1489 C 0.05159 0.77122 0.18092 0.0
C1490 C 0.0538 0.76681 0.12942 0.0
C1491 C 0.05303 0.77139 0.03474 0.0
C1492 C 0.04896 0.7793 0.99221 0.0
C1493 C 0.04816 0.77303 0.08634 0.0
C1494 C 0.03817 0.78706 1.00106 0.0
C1495 C 0.03304 0.78852 0.0523 0.0
H1496 H 0.21552 0.31527 0.15536 0.0
H1497 H 0.24727 0.36984 0.21033 0.0
H1498 H 0.25438 0.38041 0.11911 0.0
H1499 H 0.24663 0.37448 0.02523 0.0
H1500 H 0.21388 0.31995 0.9707 0.0
H1501 H 0.2124 0.30889 0.06041 0.0
C1502 C 0.22435 0.32944 0.14729 0.0
C1503 C 0.23058 0.34185 0.18914 0.0
C1504 C 0.22802 0.33538 0.09499 0.0
C1505 C 0.24228 0.36009 0.17861 0.0
C1506 C 0.2462 0.36612 0.1265 0.0
C1507 C 0.23952 0.36014 0.03282 0.0
C1508 C 0.23002 0.34804 0.99178 0.0
C1509 C 0.2384 0.35396 0.08454 0.0
C1510 C 0.22119 0.32951 1.00173 0.0
C1511 C 0.22022 0.32321 0.05308 0.0
H1512 H 0.8864 0.64949 0.48456 0.0
H1513 H 0.91361 0.7034 0.5469 0.0
H1514 H 0.92138 0.71549 0.45737 0.0
H1515 H 0.91558 0.71065 0.36229 0.0
H1516 H 0.88727 0.65673 0.30011 0.0
H1517 H 0.8851 0.64466 0.38883 0.0
C1518 C 0.89437 0.66389 0.47857 0.0
C1519 C 0.89912 0.67559 0.52211 0.0
C1520 C 0.89841 0.67069 0.4271 0.0
C1521 C 0.90973 0.69416 0.51402 0.0
C1522 C 0.91404 0.70105 0.46281 0.0
C1523 C 0.90928 0.69625 0.36801 0.0
C1524 C 0.90126 0.68456 0.32492 0.0
C1525 C 0.90772 0.68945 0.41914 0.0
C1526 C 0.89346 0.66599 0.33264 0.0
C1527 C 0.89209 0.65909 0.38343 0.0
H1528 H 0.36173 0.31657 0.48652 0.0
H1529 H 0.30725 0.29181 0.54465 0.0
H1530 H 0.29606 0.28856 0.45434 0.0
H1531 H 0.30155 0.28775 0.35978 0.0
H1532 H 0.35595 0.31127 0.30171 0.0
H1533 H 0.36748 0.32044 0.39128 0.0
C1534 C 0.34742 0.31078 0.47944 0.0
C1535 C 0.33526 0.30403 0.52194 0.0
C1536 C 0.34111 0.30863 0.42754 0.0
C1537 C 0.31683 0.29695 0.51251 0.0
C1538 C 0.31044 0.295 0.46089 0.0
C1539 C 0.31595 0.29525 0.3666 0.0
C1540 C 0.3279 0.2985 0.32452 0.0
C1541 C 0.32241 0.30002 0.41818 0.0
C1542 C 0.3465 0.30854 0.33354 0.0
C1543 C 0.35308 0.31363 0.38479 0.0
H1544 H 0.69387 0.12136 0.48706 0.0
H1545 H 0.72162 0.0946 0.54483 0.0
H1546 H 0.72678 0.08844 0.45412 0.0
H1547 H 0.72807 0.09558 0.35981 0.0
H1548 H 0.70111 0.12324 0.30251 0.0
H1549 H 0.69067 0.12388 0.39178 0.0
C1550 C 0.70067 0.11379 0.47974 0.0
C1551 C 0.70766 0.1087 0.52234 0.0
C1552 C 0.70391 0.11069 0.4277 0.0
C1553 C 0.71616 0.09866 0.51262 0.0
C1554 C 0.71926 0.09531 0.46078 0.0
C1555 C 0.7196 0.10144 0.3667 0.0
C1556 C 0.71568 0.10971 0.32487 0.0
C1557 C 0.71393 0.10202 0.41817 0.0
C1558 C 0.7044 0.1169 0.33408 0.0
C1559 C 0.69854 0.11737 0.38517 0.0
H1560 H 0.96938 0.4299 0.18095 0.0
H1561 H 0.02387 0.4588 0.12251 0.0
H1562 H 0.0353 0.46076 0.21191 0.0
H1563 H 0.02972 0.45908 0.30714 0.0
H1564 H 0.97526 0.43127 0.3659 0.0
H1565 H 0.96384 0.42376 0.27563 0.0
C1566 C 0.98376 0.4363 0.18763 0.0
C1567 C 0.99579 0.44457 0.14543 0.0
C1568 C 0.99021 0.43774 0.23917 0.0
C1569 C 0.01435 0.45246 0.15439 0.0
C1570 C 0.02089 0.4537 0.20555 0.0
C1571 C 0.01535 0.45105 0.30019 0.0
C1572 C 1.0033 0.44606 0.34285 0.0
C1573 C 0.00894 0.44715 0.24836 0.0
C1574 C 0.98477 0.43535 0.33361 0.0
C1575 C 0.97826 0.43118 0.28202 0.0
H1576 H 0.55463 0.63703 0.15452 0.0
H1577 H 0.58481 0.61012 0.18353 0.0
H1578 H 0.58555 0.61618 0.27757 0.0
H1579 H 0.57357 0.62497 0.35328 0.0
H1580 H 0.5425 0.65095 0.32428 0.0
H1581 H 0.5464 0.64969 0.2296 0.0
C1582 C 0.56179 0.63296 0.18127 0.0
C1583 C 0.56942 0.62294 0.16202 0.0
C1584 C 0.56179 0.63609 0.23586 0.0
C1585 C 0.5786 0.61767 0.19736 0.0
C1586 C 0.579 0.62108 0.25132 0.0
C1587 C 0.56808 0.63076 0.32626 0.0
C1588 C 0.55754 0.63776 0.34589 0.0
C1589 C 0.57002 0.62964 0.27137 0.0
C1590 C 0.55046 0.6452 0.31022 0.0
C1591 C 0.55264 0.64448 0.25591 0.0
H1592 H 0.4168 0.04337 0.38629 0.0
H1593 H 0.36355 0.9993 0.35468 0.0
H1594 H 0.3672 0.00668 0.26106 0.0
H1595 H 0.38715 0.02329 0.18587 0.0
H1596 H 0.44032 0.06753 0.21956 0.0
H1597 H 0.43497 0.06242 0.31315 0.0
C1598 C 0.40576 0.03575 0.35926 0.0
C1599 C 0.39002 0.02073 0.37776 0.0
C1600 C 0.40806 0.03981 0.30495 0.0
C1601 C 0.37592 0.01091 0.34169 0.0
C1602 C 0.37803 0.01502 0.28785 0.0
C1603 C 0.39746 0.03193 0.21367 0.0
C1604 C 0.41422 0.04554 0.1949 0.0
C1605 C 0.39433 0.02902 0.26857 0.0
C1606 C 0.42732 0.05672 0.23208 0.0
C1607 C 0.42431 0.05388 0.28612 0.0
H1608 H 0.58342 0.03779 0.8698 0.0
H1609 H 0.56164 0.98112 0.84391 0.0
H1610 H 0.56485 0.98586 0.74879 0.0
H1611 H 0.56845 0.00532 0.67282 0.0
H1612 H 0.5884 0.06169 0.69931 0.0
H1613 H 0.59162 0.058 0.7932 0.0
C1614 C 0.58004 0.02663 0.84334 0.0
C1615 C 0.57224 0.00915 0.86376 0.0
C1616 C 0.58127 0.02936 0.78832 0.0
C1617 C 0.56763 0.99472 0.82898 0.0
C1618 C 0.56933 0.99739 0.7745 0.0
C1619 C 0.57404 0.01685 0.69896 0.0
C1620 C 0.57798 0.03368 0.67928 0.0
C1621 C 0.57532 0.01453 0.75355 0.0
C1622 C 0.58507 0.04852 0.7137 0.0
C1623 C 0.58688 0.04643 0.76751 0.0
H1624 H 0.96829 0.6167 0.68584 0.0
H1625 H 0.02306 0.64321 0.62944 0.0
H1626 H 0.03401 0.65278 0.71922 0.0
H1627 H 0.02804 0.64884 0.81426 0.0
H1628 H 0.97332 0.62135 0.87092 0.0
H1629 H 0.96226 0.61721 0.78021 0.0
C1630 C 0.98262 0.62488 0.69306 0.0
C1631 C 0.99488 0.6289 0.65135 0.0
C1632 C 0.98879 0.62998 0.74478 0.0
C1633 C 0.01337 0.63983 0.66096 0.0
C1634 C 0.01963 0.6452 0.71233 0.0
C1635 C 0.01369 0.64226 0.80675 0.0
C1636 C 1.00147 0.63504 0.84896 0.0
C1637 C 1.00748 0.63961 0.75467 0.0
C1638 C 0.98295 0.62691 0.83899 0.0
C1639 C 0.97664 0.62443 0.78715 0.0
H1640 H 0.39187 0.43048 0.68625 0.0
H1641 H 0.36622 0.45951 0.62978 0.0
H1642 H 0.35711 0.46151 0.71969 0.0
H1643 H 0.36156 0.46 0.81462 0.0
H1644 H 0.38831 0.43211 0.87145 0.0
H1645 H 0.39163 0.42435 0.78084 0.0
C1646 C 0.38394 0.4369 0.69349 0.0
C1647 C 0.38008 0.44522 0.65171 0.0
C1648 C 0.37917 0.43838 0.7453 0.0
C1649 C 0.36947 0.45313 0.66134 0.0
C1650 C 0.36439 0.4544 0.71279 0.0
C1651 C 0.36778 0.45189 0.80717 0.0
C1652 C 0.37506 0.44695 0.8493 0.0
C1653 C 0.36996 0.44786 0.75516 0.0
C1654 C 0.38272 0.43614 0.83952 0.0
C1655 C 0.38473 0.43184 0.78774 0.0
loop_
_geom_bond_atom_site_label_1
_geom_bond_atom_site_label_2
_geom_bond_distance
_geom_bond_site_symmetry_2
_ccdc_geom_bond_type
O0 Cd1 2.223 . S
O0 C8 1.315 . S
Cd1 O0 2.223 . S
Cd1 O4 2.297 . S
Cd1 O5 2.439 . S
Cd1 O11 2.240 . S
Cd2 O3 2.240 . S
Cd2 O10 2.223 . S
Cd2 O12 2.297 . S
Cd2 O13 2.439 . S
O3 Cd2 2.240 . S
O3 C8 1.279 . S
O4 Cd1 2.297 . S
O4 C6 1.247 . S
O5 Cd1 2.439 . S
O5 C6 1.208 . S
C6 O4 1.247 . S
C6 O5 1.208 . S
C7 O12 1.247 . S
C7 O13 1.208 . S
C8 O0 1.315 . S
C8 O3 1.279 . S
C9 O10 1.315 . S
C9 O11 1.279 . S
O10 Cd2 2.223 . S
O10 C9 1.315 . S
O11 Cd1 2.240 . S
O11 C9 1.279 . S
O12 Cd2 2.297 . S
O12 C7 1.247 . S
O13 Cd2 2.439 . S
O13 C7 1.208 . S
O14 Cd15 2.223 . S
O14 C22 1.315 . S
Cd15 O14 2.223 . S
Cd15 O18 2.297 . S
Cd15 O19 2.439 . S
Cd15 O25 2.240 . S
Cd16 O17 2.240 . S
Cd16 O24 2.223 . S
Cd16 O26 2.297 . S
Cd16 O27 2.439 . S
O17 Cd16 2.240 . S
O17 C22 1.279 . S
O18 Cd15 2.297 . S
O18 C20 1.247 . S
O19 Cd15 2.439 . S
O19 C20 1.208 . S
C20 O18 1.247 . S
C20 O19 1.208 . S
C21 O26 1.247 . S
C21 O27 1.208 . S
C22 O14 1.315 . S
C22 O17 1.279 . S
C23 O24 1.315 . S
C23 O25 1.279 . S
O24 Cd16 2.223 . S
O24 C23 1.315 . S
O25 Cd15 2.240 . S
O25 C23 1.279 . S
O26 Cd16 2.297 . S
O26 C21 1.247 . S
O27 Cd16 2.439 . S
O27 C21 1.208 . S
O28 Cd29 2.223 . S
O28 C36 1.315 . S
Cd29 O28 2.223 . S
Cd29 O32 2.297 . S
Cd29 O33 2.439 . S
Cd29 O39 2.240 . S
Cd30 O31 2.240 . S
Cd30 O38 2.223 . S
Cd30 O40 2.297 . S
Cd30 O41 2.439 . S
O31 Cd30 2.240 . S
O31 C36 1.279 . S
O32 Cd29 2.297 . S
O32 C34 1.247 . S
O33 Cd29 2.439 . S
O33 C34 1.208 . S
C34 O32 1.247 . S
C34 O33 1.208 . S
C35 O40 1.247 . S
C35 O41 1.208 . S
C36 O28 1.315 . S
C36 O31 1.279 . S
C37 O38 1.315 . S
C37 O39 1.279 . S
O38 Cd30 2.223 . S
O38 C37 1.315 . S
O39 Cd29 2.240 . S
O39 C37 1.279 . S
O40 Cd30 2.297 . S
O40 C35 1.247 . S
O41 Cd30 2.439 . S
O41 C35 1.208 . S
O42 Cd43 2.223 . S
O42 C50 1.315 . S
Cd43 O42 2.223 . S
Cd43 O46 2.297 . S
Cd43 O47 2.439 . S
Cd43 O53 2.240 . S
Cd44 O45 2.240 . S
Cd44 O52 2.223 . S
Cd44 O54 2.297 . S
Cd44 O55 2.439 . S
O45 Cd44 2.240 . S
O45 C50 1.279 . S
O46 Cd43 2.297 . S
O46 C48 1.247 . S
O47 Cd43 2.439 . S
O47 C48 1.208 . S
C48 O46 1.247 . S
C48 O47 1.208 . S
C49 O54 1.247 . S
C49 O55 1.208 . S
C50 O42 1.315 . S
C50 O45 1.279 . S
C51 O52 1.315 . S
C51 O53 1.279 . S
O52 Cd44 2.223 . S
O52 C51 1.315 . S
O53 Cd43 2.240 . S
O53 C51 1.279 . S
O54 Cd44 2.297 . S
O54 C49 1.247 . S
O55 Cd44 2.439 . S
O55 C49 1.208 . S
O56 Cd57 2.223 . S
O56 C64 1.315 . S
Cd57 O56 2.223 . S
Cd57 O60 2.297 . S
Cd57 O61 2.439 . S
Cd57 O67 2.240 . S
Cd58 O59 2.240 . S
Cd58 O66 2.223 . S
Cd58 O68 2.297 . S
Cd58 O69 2.439 . S
O59 Cd58 2.240 . S
O59 C64 1.279 . S
O60 Cd57 2.297 . S
O60 C62 1.247 . S
O61 Cd57 2.439 . S
O61 C62 1.208 . S
C62 O60 1.247 . S
C62 O61 1.208 . S
C63 O68 1.247 . S
C63 O69 1.208 . S
C64 O56 1.315 . S
C64 O59 1.279 . S
C65 O66 1.315 . S
C65 O67 1.279 . S
O66 Cd58 2.223 . S
O66 C65 1.315 . S
O67 Cd57 2.240 . S
O67 C65 1.279 . S
O68 Cd58 2.297 . S
O68 C63 1.247 . S
O69 Cd58 2.439 . S
O69 C63 1.208 . S
O70 Cd71 2.223 . S
O70 C78 1.315 . S
Cd71 O70 2.223 . S
Cd71 O74 2.297 . S
Cd71 O75 2.439 . S
Cd71 O81 2.240 . S
Cd72 O73 2.240 . S
Cd72 O80 2.223 . S
Cd72 O82 2.297 . S
Cd72 O83 2.439 . S
O73 Cd72 2.240 . S
O73 C78 1.279 . S
O74 Cd71 2.297 . S
O74 C76 1.247 . S
O75 Cd71 2.439 . S
O75 C76 1.208 . S
C76 O74 1.247 . S
C76 O75 1.208 . S
C77 O82 1.247 . S
C77 O83 1.208 . S
C78 O70 1.315 . S
C78 O73 1.279 . S
C79 O80 1.315 . S
C79 O81 1.279 . S
O80 Cd72 2.223 . S
O80 C79 1.315 . S
O81 Cd71 2.240 . S
O81 C79 1.279 . S
O82 Cd72 2.297 . S
O82 C77 1.247 . S
O83 Cd72 2.439 . S
O83 C77 1.208 . S
O84 Cd85 2.223 . S
O84 C92 1.315 . S
Cd85 O84 2.223 . S
Cd85 O88 2.297 . S
Cd85 O89 2.439 . S
Cd85 O95 2.240 . S
Cd86 O87 2.240 . S
Cd86 O94 2.223 . S
Cd86 O96 2.297 . S
Cd86 O97 2.439 . S
O87 Cd86 2.240 . S
O87 C92 1.279 . S
O88 Cd85 2.297 . S
O88 C90 1.247 . S
O89 Cd85 2.439 . S
O89 C90 1.208 . S
C90 O88 1.247 . S
C90 O89 1.208 . S
C91 O96 1.247 . S
C91 O97 1.208 . S
C92 O84 1.315 . S
C92 O87 1.279 . S
C93 O94 1.315 . S
C93 O95 1.279 . S
O94 Cd86 2.223 . S
O94 C93 1.315 . S
O95 Cd85 2.240 . S
O95 C93 1.279 . S
O96 Cd86 2.297 . S
O96 C91 1.247 . S
O97 Cd86 2.439 . S
O97 C91 1.208 . S
O98 Cd99 2.223 . S
O98 C106 1.315 . S
Cd99 O98 2.223 . S
Cd99 O102 2.297 . S
Cd99 O103 2.439 . S
Cd99 O109 2.240 . S
Cd100 O101 2.240 . S
Cd100 O108 2.223 . S
Cd100 O110 2.297 . S
Cd100 O111 2.439 . S
O101 Cd100 2.240 . S
O101 C106 1.279 . S
O102 Cd99 2.297 . S
O102 C104 1.247 . S
O103 Cd99 2.439 . S
O103 C104 1.208 . S
C104 O102 1.247 . S
C104 O103 1.208 . S
C105 O110 1.247 . S
C105 O111 1.208 . S
C106 O98 1.315 . S
C106 O101 1.279 . S
C107 O108 1.315 . S
C107 O109 1.279 . S
O108 Cd100 2.223 . S
O108 C107 1.315 . S
O109 Cd99 2.240 . S
O109 C107 1.279 . S
O110 Cd100 2.297 . S
O110 C105 1.247 . S
O111 Cd100 2.439 . S
O111 C105 1.208 . S
O112 Cd113 2.223 . S
O112 C120 1.315 . S
Cd113 O112 2.223 . S
Cd113 O116 2.297 . S
Cd113 O117 2.439 . S
Cd113 O123 2.240 . S
Cd114 O115 2.240 . S
Cd114 O122 2.223 . S
Cd114 O124 2.297 . S
Cd114 O125 2.439 . S
O115 Cd114 2.240 . S
O115 C120 1.279 . S
O116 Cd113 2.297 . S
O116 C118 1.247 . S
O117 Cd113 2.439 . S
O117 C118 1.208 . S
C118 O116 1.247 . S
C118 O117 1.208 . S
C119 O124 1.247 . S
C119 O125 1.208 . S
C120 O112 1.315 . S
C120 O115 1.279 . S
C121 O122 1.315 . S
C121 O123 1.279 . S
O122 Cd114 2.223 . S
O122 C121 1.315 . S
O123 Cd113 2.240 . S
O123 C121 1.279 . S
O124 Cd114 2.297 . S
O124 C119 1.247 . S
O125 Cd114 2.439 . S
O125 C119 1.208 . S
O126 Cd127 2.223 . S
O126 C134 1.315 . S
Cd127 O126 2.223 . S
Cd127 O130 2.297 . S
Cd127 O131 2.439 . S
Cd127 O137 2.240 . S
Cd128 O129 2.240 . S
Cd128 O136 2.223 . S
Cd128 O138 2.297 . S
Cd128 O139 2.439 . S
O129 Cd128 2.240 . S
O129 C134 1.279 . S
O130 Cd127 2.297 . S
O130 C132 1.247 . S
O131 Cd127 2.439 . S
O131 C132 1.208 . S
C132 O130 1.247 . S
C132 O131 1.208 . S
C133 O138 1.247 . S
C133 O139 1.208 . S
C134 O126 1.315 . S
C134 O129 1.279 . S
C135 O136 1.315 . S
C135 O137 1.279 . S
O136 Cd128 2.223 . S
O136 C135 1.315 . S
O137 Cd127 2.240 . S
O137 C135 1.279 . S
O138 Cd128 2.297 . S
O138 C133 1.247 . S
O139 Cd128 2.439 . S
O139 C133 1.208 . S
O140 Cd141 2.223 . S
O140 C148 1.315 . S
Cd141 O140 2.223 . S
Cd141 O144 2.297 . S
Cd141 O145 2.439 . S
Cd141 O151 2.240 . S
Cd142 O143 2.240 . S
Cd142 O150 2.223 . S
Cd142 O152 2.297 . S
Cd142 O153 2.439 . S
O143 Cd142 2.240 . S
O143 C148 1.279 . S
O144 Cd141 2.297 . S
O144 C146 1.247 . S
O145 Cd141 2.439 . S
O145 C146 1.208 . S
C146 O144 1.247 . S
C146 O145 1.208 . S
C147 O152 1.247 . S
C147 O153 1.208 . S
C148 O140 1.315 . S
C148 O143 1.279 . S
C149 O150 1.315 . S
C149 O151 1.279 . S
O150 Cd142 2.223 . S
O150 C149 1.315 . S
O151 Cd141 2.240 . S
O151 C149 1.279 . S
O152 Cd142 2.297 . S
O152 C147 1.247 . S
O153 Cd142 2.439 . S
O153 C147 1.208 . S
O154 Cd155 2.223 . S
O154 C162 1.315 . S
Cd155 O154 2.223 . S
Cd155 O158 2.297 . S
Cd155 O159 2.439 . S
Cd155 O165 2.240 . S
Cd156 O157 2.240 . S
Cd156 O164 2.223 . S
Cd156 O166 2.297 . S
Cd156 O167 2.439 . S
O157 Cd156 2.240 . S
O157 C162 1.279 . S
O158 Cd155 2.297 . S
O158 C160 1.247 . S
O159 Cd155 2.439 . S
O159 C160 1.208 . S
C160 O158 1.247 . S
C160 O159 1.208 . S
C161 O166 1.247 . S
C161 O167 1.208 . S
C162 O154 1.315 . S
C162 O157 1.279 . S
C163 O164 1.315 . S
C163 O165 1.279 . S
O164 Cd156 2.223 . S
O164 C163 1.315 . S
O165 Cd155 2.240 . S
O165 C163 1.279 . S
O166 Cd156 2.297 . S
O166 C161 1.247 . S
O167 Cd156 2.439 . S
O167 C161 1.208 . S
O168 Cd169 2.223 . S
O168 C176 1.315 . S
Cd169 O168 2.223 . S
Cd169 O172 2.297 . S
Cd169 O173 2.439 . S
Cd169 O179 2.240 . S
Cd170 O171 2.240 . S
Cd170 O178 2.223 . S
Cd170 O180 2.297 . S
Cd170 O181 2.439 . S
O171 Cd170 2.240 . S
O171 C176 1.279 . S
O172 Cd169 2.297 . S
O172 C174 1.247 . S
O173 Cd169 2.439 . S
O173 C174 1.208 . S
C174 O172 1.247 . S
C174 O173 1.208 . S
C175 O180 1.247 . S
C175 O181 1.208 . S
C176 O168 1.315 . S
C176 O171 1.279 . S
C177 O178 1.315 . S
C177 O179 1.279 . S
O178 Cd170 2.223 . S
O178 C177 1.315 . S
O179 Cd169 2.240 . S
O179 C177 1.279 . S
O180 Cd170 2.297 . S
O180 C175 1.247 . S
O181 Cd170 2.439 . S
O181 C175 1.208 . S
O182 Cd183 2.223 . S
O182 C190 1.315 . S
Cd183 O182 2.223 . S
Cd183 O186 2.297 . S
Cd183 O187 2.439 . S
Cd183 O193 2.240 . S
Cd184 O185 2.240 . S
Cd184 O192 2.223 . S
Cd184 O194 2.297 . S
Cd184 O195 2.439 . S
O185 Cd184 2.240 . S
O185 C190 1.279 . S
O186 Cd183 2.297 . S
O186 C188 1.247 . S
O187 Cd183 2.439 . S
O187 C188 1.208 . S
C188 O186 1.247 . S
C188 O187 1.208 . S
C189 O194 1.247 . S
C189 O195 1.208 . S
C190 O182 1.315 . S
C190 O185 1.279 . S
C191 O192 1.315 . S
C191 O193 1.279 . S
O192 Cd184 2.223 . S
O192 C191 1.315 . S
O193 Cd183 2.240 . S
O193 C191 1.279 . S
O194 Cd184 2.297 . S
O194 C189 1.247 . S
O195 Cd184 2.439 . S
O195 C189 1.208 . S
O196 Cd197 2.223 . S
O196 C204 1.315 . S
Cd197 O196 2.223 . S
Cd197 O200 2.297 . S
Cd197 O201 2.439 . S
Cd197 O207 2.240 . S
Cd198 O199 2.240 . S
Cd198 O206 2.223 . S
Cd198 O208 2.297 . S
Cd198 O209 2.439 . S
O199 Cd198 2.240 . S
O199 C204 1.279 . S
O200 Cd197 2.297 . S
O200 C202 1.247 . S
O201 Cd197 2.439 . S
O201 C202 1.208 . S
C202 O200 1.247 . S
C202 O201 1.208 . S
C203 O208 1.247 . S
C203 O209 1.208 . S
C204 O196 1.315 . S
C204 O199 1.279 . S
C205 O206 1.315 . S
C205 O207 1.279 . S
O206 Cd198 2.223 . S
O206 C205 1.315 . S
O207 Cd197 2.240 . S
O207 C205 1.279 . S
O208 Cd198 2.297 . S
O208 C203 1.247 . S
O209 Cd198 2.439 . S
O209 C203 1.208 . S
O210 Cd211 2.223 . S
O210 C218 1.315 . S
Cd211 O210 2.223 . S
Cd211 O214 2.297 . S
Cd211 O215 2.439 . S
Cd211 O221 2.240 . S
Cd212 O213 2.240 . S
Cd212 O220 2.223 . S
Cd212 O222 2.297 . S
Cd212 O223 2.439 . S
O213 Cd212 2.240 . S
O213 C218 1.279 . S
O214 Cd211 2.297 . S
O214 C216 1.247 . S
O215 Cd211 2.439 . S
O215 C216 1.208 . S
C216 O214 1.247 . S
C216 O215 1.208 . S
C217 O222 1.247 . S
C217 O223 1.208 . S
C218 O210 1.315 . S
C218 O213 1.279 . S
C219 O220 1.315 . S
C219 O221 1.279 . S
O220 Cd212 2.223 . S
O220 C219 1.315 . S
O221 Cd211 2.240 . S
O221 C219 1.279 . S
O222 Cd212 2.297 . S
O222 C217 1.247 . S
O223 Cd212 2.439 . S
O223 C217 1.208 . S
O224 Cd225 2.223 . S
O224 C232 1.315 . S
Cd225 O224 2.223 . S
Cd225 O228 2.297 . S
Cd225 O229 2.439 . S
Cd225 O235 2.240 . S
Cd226 O227 2.240 . S
Cd226 O234 2.223 . S
Cd226 O236 2.297 . S
Cd226 O237 2.439 . S
O227 Cd226 2.240 . S
O227 C232 1.279 . S
O228 Cd225 2.297 . S
O228 C230 1.247 . S
O229 Cd225 2.439 . S
O229 C230 1.208 . S
C230 O228 1.247 . S
C230 O229 1.208 . S
C231 O236 1.247 . S
C231 O237 1.208 . S
C232 O224 1.315 . S
C232 O227 1.279 . S
C233 O234 1.315 . S
C233 O235 1.279 . S
O234 Cd226 2.223 . S
O234 C233 1.315 . S
O235 Cd225 2.240 . S
O235 C233 1.279 . S
O236 Cd226 2.297 . S
O236 C231 1.247 . S
O237 Cd226 2.439 . S
O237 C231 1.208 . S
O238 Cd239 2.223 . S
O238 C246 1.315 . S
Cd239 O238 2.223 . S
Cd239 O242 2.297 . S
Cd239 O243 2.439 . S
Cd239 O249 2.240 . S
Cd240 O241 2.240 . S
Cd240 O248 2.223 . S
Cd240 O250 2.297 . S
Cd240 O251 2.439 . S
O241 Cd240 2.240 . S
O241 C246 1.279 . S
O242 Cd239 2.297 . S
O242 C244 1.247 . S
O243 Cd239 2.439 . S
O243 C244 1.208 . S
C244 O242 1.247 . S
C244 O243 1.208 . S
C245 O250 1.247 . S
C245 O251 1.208 . S
C246 O238 1.315 . S
C246 O241 1.279 . S
C247 O248 1.315 . S
C247 O249 1.279 . S
O248 Cd240 2.223 . S
O248 C247 1.315 . S
O249 Cd239 2.240 . S
O249 C247 1.279 . S
O250 Cd240 2.297 . S
O250 C245 1.247 . S
O251 Cd240 2.439 . S
O251 C245 1.208 . S
O252 Cd253 2.223 . S
O252 C260 1.315 . S
Cd253 O252 2.223 . S
Cd253 O256 2.297 . S
Cd253 O257 2.439 . S
Cd253 O263 2.240 . S
Cd254 O255 2.240 . S
Cd254 O262 2.223 . S
Cd254 O264 2.297 . S
Cd254 O265 2.439 . S
O255 Cd254 2.240 . S
O255 C260 1.279 . S
O256 Cd253 2.297 . S
O256 C258 1.247 . S
O257 Cd253 2.439 . S
O257 C258 1.208 . S
C258 O256 1.247 . S
C258 O257 1.208 . S
C259 O264 1.247 . S
C259 O265 1.208 . S
C260 O252 1.315 . S
C260 O255 1.279 . S
C261 O262 1.315 . S
C261 O263 1.279 . S
O262 Cd254 2.223 . S
O262 C261 1.315 . S
O263 Cd253 2.240 . S
O263 C261 1.279 . S
O264 Cd254 2.297 . S
O264 C259 1.247 . S
O265 Cd254 2.439 . S
O265 C259 1.208 . S
O266 Cd267 2.223 . S
O266 C274 1.315 . S
Cd267 O266 2.223 . S
Cd267 O270 2.297 . S
Cd267 O271 2.439 . S
Cd267 O277 2.240 . S
Cd268 O269 2.240 . S
Cd268 O276 2.223 . S
Cd268 O278 2.297 . S
Cd268 O279 2.439 . S
O269 Cd268 2.240 . S
O269 C274 1.279 . S
O270 Cd267 2.297 . S
O270 C272 1.247 . S
O271 Cd267 2.439 . S
O271 C272 1.208 . S
C272 O270 1.247 . S
C272 O271 1.208 . S
C273 O278 1.247 . S
C273 O279 1.208 . S
C274 O266 1.315 . S
C274 O269 1.279 . S
C275 O276 1.315 . S
C275 O277 1.279 . S
O276 Cd268 2.223 . S
O276 C275 1.315 . S
O277 Cd267 2.240 . S
O277 C275 1.279 . S
O278 Cd268 2.297 . S
O278 C273 1.247 . S
O279 Cd268 2.439 . S
O279 C273 1.208 . S
O280 Cd281 2.223 . S
O280 C288 1.315 . S
Cd281 O280 2.223 . S
Cd281 O284 2.297 . S
Cd281 O285 2.439 . S
Cd281 O291 2.240 . S
Cd282 O283 2.240 . S
Cd282 O290 2.223 . S
Cd282 O292 2.297 . S
Cd282 O293 2.439 . S
O283 Cd282 2.240 . S
O283 C288 1.279 . S
O284 Cd281 2.297 . S
O284 C286 1.247 . S
O285 Cd281 2.439 . S
O285 C286 1.208 . S
C286 O284 1.247 . S
C286 O285 1.208 . S
C287 O292 1.247 . S
C287 O293 1.208 . S
C288 O280 1.315 . S
C288 O283 1.279 . S
C289 O290 1.315 . S
C289 O291 1.279 . S
O290 Cd282 2.223 . S
O290 C289 1.315 . S
O291 Cd281 2.240 . S
O291 C289 1.279 . S
O292 Cd282 2.297 . S
O292 C287 1.247 . S
O293 Cd282 2.439 . S
O293 C287 1.208 . S
O294 Cd295 2.226 . S
O294 C302 1.315 . S
Cd295 O294 2.226 . S
Cd295 O298 2.297 . S
Cd295 O299 2.439 . S
Cd295 O305 2.240 1_554 S
Cd296 O297 2.240 1_556 S
Cd296 O304 2.223 . S
Cd296 O306 2.297 . S
Cd296 O307 2.438 . S
O297 Cd296 2.240 1_554 S
O297 C302 1.285 . S
O298 Cd295 2.297 . S
O298 C300 1.247 . S
O299 Cd295 2.439 . S
O299 C300 1.208 . S
C300 O298 1.247 . S
C300 O299 1.208 . S
C301 O306 1.247 . S
C301 O307 1.207 . S
C302 O294 1.315 . S
C302 O297 1.285 . S
C303 O304 1.315 . S
C303 O305 1.279 . S
O304 Cd296 2.223 . S
O304 C303 1.315 . S
O305 Cd295 2.240 1_556 S
O305 C303 1.279 . S
O306 Cd296 2.297 . S
O306 C301 1.247 . S
O307 Cd296 2.438 . S
O307 C301 1.207 . S
O308 Cd309 2.226 . S
O308 C316 1.315 . S
Cd309 O308 2.226 . S
Cd309 O312 2.297 . S
Cd309 O313 2.439 . S
Cd309 O319 2.240 1_554 S
Cd310 O311 2.240 1_556 S
Cd310 O318 2.223 . S
Cd310 O320 2.297 . S
Cd310 O321 2.438 . S
O311 Cd310 2.240 1_554 S
O311 C316 1.285 . S
O312 Cd309 2.297 . S
O312 C314 1.247 . S
O313 Cd309 2.439 . S
O313 C314 1.208 . S
C314 O312 1.247 . S
C314 O313 1.208 . S
C315 O320 1.247 . S
C315 O321 1.206 . S
C316 O308 1.315 . S
C316 O311 1.285 . S
C317 O318 1.315 . S
C317 O319 1.279 . S
O318 Cd310 2.223 . S
O318 C317 1.315 . S
O319 Cd309 2.240 1_556 S
O319 C317 1.279 . S
O320 Cd310 2.297 . S
O320 C315 1.247 . S
O321 Cd310 2.438 . S
O321 C315 1.206 . S
O322 Cd323 2.226 . S
O322 C330 1.315 . S
Cd323 O322 2.226 . S
Cd323 O326 2.297 . S
Cd323 O327 2.439 . S
Cd323 O333 2.240 1_554 S
Cd324 O325 2.240 1_556 S
Cd324 O332 2.223 . S
Cd324 O334 2.297 . S
Cd324 O335 2.438 . S
O325 Cd324 2.240 1_554 S
O325 C330 1.285 . S
O326 Cd323 2.297 . S
O326 C328 1.247 . S
O327 Cd323 2.439 . S
O327 C328 1.208 . S
C328 O326 1.247 . S
C328 O327 1.208 . S
C329 O334 1.247 . S
C329 O335 1.206 . S
C330 O322 1.315 . S
C330 O325 1.285 . S
C331 O332 1.315 . S
C331 O333 1.279 . S
O332 Cd324 2.223 . S
O332 C331 1.315 . S
O333 Cd323 2.240 1_556 S
O333 C331 1.279 . S
O334 Cd324 2.297 . S
O334 C329 1.247 . S
O335 Cd324 2.438 . S
O335 C329 1.206 . S
O336 Cd337 2.223 . S
O336 C344 1.315 . S
Cd337 O336 2.223 . S
Cd337 O340 2.297 . S
Cd337 O341 2.439 . S
Cd337 O347 2.240 . S
Cd338 O339 2.240 . S
Cd338 O346 2.223 . S
Cd338 O348 2.297 . S
Cd338 O349 2.439 . S
O339 Cd338 2.240 . S
O339 C344 1.279 . S
O340 Cd337 2.297 . S
O340 C342 1.247 . S
O341 Cd337 2.439 . S
O341 C342 1.208 . S
C342 O340 1.247 . S
C342 O341 1.208 . S
C343 O348 1.247 . S
C343 O349 1.208 . S
C344 O336 1.315 . S
C344 O339 1.279 . S
C345 O346 1.315 . S
C345 O347 1.279 . S
O346 Cd338 2.223 . S
O346 C345 1.315 . S
O347 Cd337 2.240 . S
O347 C345 1.279 . S
O348 Cd338 2.297 . S
O348 C343 1.247 . S
O349 Cd338 2.439 . S
O349 C343 1.208 . S
O350 Cd351 2.223 . S
O350 C358 1.315 . S
Cd351 O350 2.223 . S
Cd351 O354 2.297 . S
Cd351 O355 2.439 . S
Cd351 O361 2.240 . S
Cd352 O353 2.240 . S
Cd352 O360 2.223 . S
Cd352 O362 2.297 1_565 S
Cd352 O363 2.439 1_565 S
O353 Cd352 2.240 . S
O353 C358 1.279 . S
O354 Cd351 2.297 . S
O354 C356 1.247 . S
O355 Cd351 2.439 . S
O355 C356 1.208 . S
C356 O354 1.247 . S
C356 O355 1.208 . S
C357 O362 1.247 . S
C357 O363 1.208 . S
C358 O350 1.315 . S
C358 O353 1.279 . S
C359 O360 1.315 . S
C359 O361 1.279 . S
O360 Cd352 2.223 . S
O360 C359 1.315 . S
O361 Cd351 2.240 . S
O361 C359 1.279 . S
O362 Cd352 2.297 1_545 S
O362 C357 1.247 . S
O363 Cd352 2.439 1_545 S
O363 C357 1.208 . S
O364 Cd365 2.223 . S
O364 C372 1.315 . S
Cd365 O364 2.223 . S
Cd365 O368 2.297 . S
Cd365 O369 2.439 . S
Cd365 O375 2.240 . S
Cd366 O367 2.240 . S
Cd366 O374 2.223 . S
Cd366 O376 2.297 1_455 S
Cd366 O377 2.439 1_455 S
O367 Cd366 2.240 . S
O367 C372 1.279 . S
O368 Cd365 2.297 . S
O368 C370 1.247 . S
O369 Cd365 2.439 . S
O369 C370 1.208 . S
C370 O368 1.247 . S
C370 O369 1.208 . S
C371 O376 1.247 . S
C371 O377 1.208 . S
C372 O364 1.315 . S
C372 O367 1.279 . S
C373 O374 1.315 . S
C373 O375 1.279 . S
O374 Cd366 2.223 . S
O374 C373 1.315 . S
O375 Cd365 2.240 . S
O375 C373 1.279 . S
O376 Cd366 2.297 1_655 S
O376 C371 1.247 . S
O377 Cd366 2.439 1_655 S
O377 C371 1.208 . S
O378 Cd379 2.226 . S
O378 C386 1.315 . S
Cd379 O378 2.226 . S
Cd379 O382 2.297 . S
Cd379 O383 2.439 . S
Cd379 O389 2.240 1_556 S
Cd380 O381 2.240 1_554 S
Cd380 O388 2.223 . S
Cd380 O390 2.297 . S
Cd380 O391 2.438 . S
O381 Cd380 2.240 1_556 S
O381 C386 1.279 1_545 S
O382 Cd379 2.297 . S
O382 C384 1.247 . S
O383 Cd379 2.439 . S
O383 C384 1.208 . S
C384 O382 1.247 . S
C384 O383 1.208 . S
C385 O390 1.247 . S
C385 O391 1.207 . S
C386 O378 1.315 . S
C386 O381 1.279 1_565 S
C387 O388 1.315 1_565 S
C387 O389 1.279 . S
O388 Cd380 2.223 . S
O388 C387 1.315 1_545 S
O389 Cd379 2.240 1_554 S
O389 C387 1.279 . S
O390 Cd380 2.297 . S
O390 C385 1.247 . S
O391 Cd380 2.438 . S
O391 C385 1.207 . S
O392 Cd393 2.226 . S
O392 C400 1.315 . S
Cd393 O392 2.226 . S
Cd393 O396 2.297 . S
Cd393 O397 2.439 . S
Cd393 O403 2.240 1_556 S
Cd394 O395 2.240 1_554 S
Cd394 O402 2.223 . S
Cd394 O404 2.297 . S
Cd394 O405 2.438 . S
O395 Cd394 2.240 1_556 S
O395 C400 1.279 1_655 S
O396 Cd393 2.297 . S
O396 C398 1.247 . S
O397 Cd393 2.439 . S
O397 C398 1.208 . S
C398 O396 1.247 . S
C398 O397 1.208 . S
C399 O404 1.247 . S
C399 O405 1.207 . S
C400 O392 1.315 . S
C400 O395 1.279 1_455 S
C401 O402 1.315 1_455 S
C401 O403 1.279 . S
O402 Cd394 2.223 . S
O402 C401 1.315 1_655 S
O403 Cd393 2.240 1_554 S
O403 C401 1.279 . S
O404 Cd394 2.297 . S
O404 C399 1.247 . S
O405 Cd394 2.438 . S
O405 C399 1.207 . S
O406 Cd407 2.226 . S
O406 C414 1.315 . S
Cd407 O406 2.226 . S
Cd407 O410 2.297 . S
Cd407 O411 2.439 . S
Cd407 O417 2.240 1_556 S
Cd408 O409 2.240 1_554 S
Cd408 O416 2.223 . S
Cd408 O418 2.297 . S
Cd408 O419 2.438 . S
O409 Cd408 2.240 1_556 S
O409 C414 1.279 . S
O410 Cd407 2.297 . S
O410 C412 1.247 . S
O411 Cd407 2.439 . S
O411 C412 1.208 . S
C412 O410 1.247 . S
C412 O411 1.208 . S
C413 O418 1.247 . S
C413 O419 1.207 . S
C414 O406 1.315 . S
C414 O409 1.279 . S
C415 O416 1.315 . S
C415 O417 1.279 . S
O416 Cd408 2.223 . S
O416 C415 1.315 . S
O417 Cd407 2.240 1_554 S
O417 C415 1.279 . S
O418 Cd408 2.297 . S
O418 C413 1.247 . S
O419 Cd408 2.438 . S
O419 C413 1.207 . S
O420 Cd421 2.223 . S
O420 C428 1.315 . S
Cd421 O420 2.223 . S
Cd421 O424 2.297 . S
Cd421 O425 2.439 . S
Cd421 O431 2.240 . S
Cd422 O423 2.240 . S
Cd422 O430 2.223 . S
Cd422 O432 2.297 . S
Cd422 O433 2.439 . S
O423 Cd422 2.240 . S
O423 C428 1.279 1_655 S
O424 Cd421 2.297 . S
O424 C426 1.247 . S
O425 Cd421 2.439 . S
O425 C426 1.208 . S
C426 O424 1.247 . S
C426 O425 1.208 . S
C427 O432 1.247 . S
C427 O433 1.208 . S
C428 O420 1.315 . S
C428 O423 1.279 1_455 S
C429 O430 1.315 1_455 S
C429 O431 1.279 . S
O430 Cd422 2.223 . S
O430 C429 1.315 1_655 S
O431 Cd421 2.240 . S
O431 C429 1.279 . S
O432 Cd422 2.297 . S
O432 C427 1.247 . S
O433 Cd422 2.439 . S
O433 C427 1.208 . S
O434 Cd435 2.223 . S
O434 C442 1.315 . S
Cd435 O434 2.223 . S
Cd435 O438 2.297 . S
Cd435 O439 2.439 . S
Cd435 O445 2.240 . S
Cd436 O437 2.240 . S
Cd436 O444 2.223 . S
Cd436 O446 2.297 . S
Cd436 O447 2.439 . S
O437 Cd436 2.240 . S
O437 C442 1.279 . S
O438 Cd435 2.297 . S
O438 C440 1.247 . S
O439 Cd435 2.439 . S
O439 C440 1.208 . S
C440 O438 1.247 . S
C440 O439 1.208 . S
C441 O446 1.247 . S
C441 O447 1.208 . S
C442 O434 1.315 . S
C442 O437 1.279 . S
C443 O444 1.315 . S
C443 O445 1.279 . S
O444 Cd436 2.223 . S
O444 C443 1.315 . S
O445 Cd435 2.240 . S
O445 C443 1.279 . S
O446 Cd436 2.297 . S
O446 C441 1.247 . S
O447 Cd436 2.439 . S
O447 C441 1.208 . S
O448 Cd449 2.223 . S
O448 C456 1.315 . S
Cd449 O448 2.223 . S
Cd449 O452 2.297 . S
Cd449 O453 2.439 . S
Cd449 O459 2.240 . S
Cd450 O451 2.240 . S
Cd450 O458 2.223 . S
Cd450 O460 2.297 . S
Cd450 O461 2.439 . S
O451 Cd450 2.240 . S
O451 C456 1.279 1_545 S
O452 Cd449 2.297 . S
O452 C454 1.247 . S
O453 Cd449 2.439 . S
O453 C454 1.208 . S
C454 O452 1.247 . S
C454 O453 1.208 . S
C455 O460 1.247 . S
C455 O461 1.208 . S
C456 O448 1.315 . S
C456 O451 1.279 1_565 S
C457 O458 1.315 1_565 S
C457 O459 1.279 . S
O458 Cd450 2.223 . S
O458 C457 1.315 1_545 S
O459 Cd449 2.240 . S
O459 C457 1.279 . S
O460 Cd450 2.297 . S
O460 C455 1.247 . S
O461 Cd450 2.439 . S
O461 C455 1.208 . S
O462 Cd463 2.223 . S
O462 C470 1.315 . S
Cd463 O462 2.223 . S
Cd463 O466 2.297 . S
Cd463 O467 2.439 . S
Cd463 O473 2.240 . S
Cd464 O465 2.240 . S
Cd464 O472 2.223 . S
Cd464 O474 2.297 . S
Cd464 O475 2.439 . S
O465 Cd464 2.240 . S
O465 C470 1.279 . S
O466 Cd463 2.297 . S
O466 C468 1.247 . S
O467 Cd463 2.439 . S
O467 C468 1.208 . S
C468 O466 1.247 . S
C468 O467 1.208 . S
C469 O474 1.247 . S
C469 O475 1.208 . S
C470 O462 1.315 . S
C470 O465 1.279 . S
C471 O472 1.315 . S
C471 O473 1.279 . S
O472 Cd464 2.223 . S
O472 C471 1.315 . S
O473 Cd463 2.240 . S
O473 C471 1.279 . S
O474 Cd464 2.297 . S
O474 C469 1.247 . S
O475 Cd464 2.439 . S
O475 C469 1.208 . S
O476 Cd477 2.223 . S
O476 C484 1.315 . S
Cd477 O476 2.223 . S
Cd477 O480 2.297 . S
Cd477 O481 2.439 . S
Cd477 O487 2.240 . S
Cd478 O479 2.240 . S
Cd478 O486 2.223 . S
Cd478 O488 2.297 1_565 S
Cd478 O489 2.439 1_565 S
O479 Cd478 2.240 . S
O479 C484 1.279 . S
O480 Cd477 2.297 . S
O480 C482 1.247 . S
O481 Cd477 2.439 . S
O481 C482 1.208 . S
C482 O480 1.247 . S
C482 O481 1.208 . S
C483 O488 1.247 . S
C483 O489 1.208 . S
C484 O476 1.315 . S
C484 O479 1.279 . S
C485 O486 1.315 . S
C485 O487 1.279 . S
O486 Cd478 2.223 . S
O486 C485 1.315 . S
O487 Cd477 2.240 . S
O487 C485 1.279 . S
O488 Cd478 2.297 1_545 S
O488 C483 1.247 . S
O489 Cd478 2.439 1_545 S
O489 C483 1.208 . S
O490 Cd491 2.223 . S
O490 C498 1.315 . S
Cd491 O490 2.223 . S
Cd491 O494 2.297 . S
Cd491 O495 2.439 . S
Cd491 O501 2.240 . S
Cd492 O493 2.240 . S
Cd492 O500 2.223 . S
Cd492 O502 2.297 1_455 S
Cd492 O503 2.439 1_455 S
O493 Cd492 2.240 . S
O493 C498 1.279 . S
O494 Cd491 2.297 . S
O494 C496 1.247 . S
O495 Cd491 2.439 . S
O495 C496 1.208 . S
C496 O494 1.247 . S
C496 O495 1.208 . S
C497 O502 1.247 . S
C497 O503 1.208 . S
C498 O490 1.315 . S
C498 O493 1.279 . S
C499 O500 1.315 . S
C499 O501 1.279 . S
O500 Cd492 2.223 . S
O500 C499 1.315 . S
O501 Cd491 2.240 . S
O501 C499 1.279 . S
O502 Cd492 2.297 1_655 S
O502 C497 1.247 . S
O503 Cd492 2.439 1_655 S
O503 C497 1.208 . S
H504 C510 0.930 . S
H505 C513 0.930 . S
H506 C514 0.930 . S
H507 C515 0.930 . S
H508 C518 0.930 . S
H509 C519 0.930 . S
C510 H504 0.930 . S
C510 C511 1.355 . S
C510 C512 1.415 . S
C511 C510 1.355 . S
C511 C513 1.419 . S
C512 C510 1.415 . S
C512 C517 1.425 . S
C512 C519 1.409 . S
C513 H505 0.930 . S
C513 C511 1.419 . S
C513 C514 1.362 . S
C514 H506 0.930 . S
C514 C513 1.362 . S
C514 C517 1.409 . S
C515 H507 0.930 . S
C515 C516 1.355 . S
C515 C517 1.415 . S
C516 C515 1.355 . S
C516 C518 1.419 . S
C517 C512 1.425 . S
C517 C514 1.409 . S
C517 C515 1.415 . S
C518 H508 0.930 . S
C518 C516 1.419 . S
C518 C519 1.362 . S
C519 H509 0.930 . S
C519 C512 1.409 . S
C519 C518 1.362 . S
H520 C526 0.930 . S
H521 C529 0.930 . S
H522 C530 0.930 . S
H523 C531 0.930 . S
H524 C534 0.930 . S
H525 C535 0.930 . S
C526 H520 0.930 . S
C526 C527 1.355 . S
C526 C528 1.415 . S
C527 C526 1.355 . S
C527 C529 1.419 . S
C528 C526 1.415 . S
C528 C533 1.425 . S
C528 C535 1.409 . S
C529 H521 0.930 . S
C529 C527 1.419 . S
C529 C530 1.362 . S
C530 H522 0.930 . S
C530 C529 1.362 . S
C530 C533 1.409 . S
C531 H523 0.930 . S
C531 C532 1.355 . S
C531 C533 1.415 . S
C532 C531 1.355 . S
C532 C534 1.419 . S
C533 C528 1.425 . S
C533 C530 1.409 . S
C533 C531 1.415 . S
C534 H524 0.930 . S
C534 C532 1.419 . S
C534 C535 1.362 . S
C535 H525 0.930 . S
C535 C528 1.409 . S
C535 C534 1.362 . S
H536 C542 0.930 . S
H537 C545 0.930 . S
H538 C546 0.930 . S
H539 C547 0.930 . S
H540 C550 0.930 . S
H541 C551 0.930 . S
C542 H536 0.930 . S
C542 C543 1.355 . S
C542 C544 1.415 . S
C543 C542 1.355 . S
C543 C545 1.419 . S
C544 C542 1.415 . S
C544 C549 1.425 . S
C544 C551 1.409 . S
C545 H537 0.930 . S
C545 C543 1.419 . S
C545 C546 1.362 . S
C546 H538 0.930 . S
C546 C545 1.362 . S
C546 C549 1.409 . S
C547 H539 0.930 . S
C547 C548 1.355 . S
C547 C549 1.415 . S
C548 C547 1.355 . S
C548 C550 1.419 . S
C549 C544 1.425 . S
C549 C546 1.409 . S
C549 C547 1.415 . S
C550 H540 0.930 . S
C550 C548 1.419 . S
C550 C551 1.362 . S
C551 H541 0.930 . S
C551 C544 1.409 . S
C551 C550 1.362 . S
H552 C558 0.930 1_556 S
H553 C561 0.930 . S
H554 C562 0.930 . S
H555 C563 0.930 . S
H556 C566 0.930 . S
H557 C567 0.930 . S
C558 H552 0.930 1_554 S
C558 C559 1.355 1_554 S
C558 C560 1.415 . S
C559 C558 1.355 1_556 S
C559 C561 1.419 1_556 S
C560 C558 1.415 . S
C560 C565 1.425 . S
C560 C567 1.409 . S
C561 H553 0.930 . S
C561 C559 1.419 1_554 S
C561 C562 1.362 . S
C562 H554 0.930 . S
C562 C561 1.362 . S
C562 C565 1.409 . S
C563 H555 0.930 . S
C563 C564 1.355 . S
C563 C565 1.415 . S
C564 C563 1.355 . S
C564 C566 1.419 . S
C565 C560 1.425 . S
C565 C562 1.409 . S
C565 C563 1.415 . S
C566 H556 0.930 . S
C566 C564 1.419 . S
C566 C567 1.362 . S
C567 H557 0.930 . S
C567 C560 1.409 . S
C567 C566 1.362 . S
H568 C574 0.930 . S
H569 C577 0.930 . S
H570 C578 0.930 . S
H571 C579 0.930 . S
H572 C582 0.930 . S
H573 C583 0.930 . S
C574 H568 0.930 . S
C574 C575 1.355 . S
C574 C576 1.415 . S
C575 C574 1.355 . S
C575 C577 1.419 . S
C576 C574 1.415 . S
C576 C581 1.425 . S
C576 C583 1.409 . S
C577 H569 0.930 . S
C577 C575 1.419 . S
C577 C578 1.362 . S
C578 H570 0.930 . S
C578 C577 1.362 . S
C578 C581 1.409 . S
C579 H571 0.930 . S
C579 C580 1.355 1_554 S
C579 C581 1.415 . S
C580 C579 1.355 1_556 S
C580 C582 1.419 . S
C581 C576 1.425 . S
C581 C578 1.409 . S
C581 C579 1.415 . S
C582 H572 0.930 . S
C582 C580 1.419 . S
C582 C583 1.362 1_556 S
C583 H573 0.930 . S
C583 C576 1.409 . S
C583 C582 1.362 1_554 S
H584 C590 0.930 . S
H585 C593 0.930 . S
H586 C594 0.930 . S
H587 C595 0.930 . S
H588 C598 0.930 1_556 S
H589 C599 0.930 . S
C590 H584 0.930 . S
C590 C591 1.355 . S
C590 C592 1.415 . S
C591 C590 1.355 . S
C591 C593 1.419 . S
C592 C590 1.415 . S
C592 C597 1.425 . S
C592 C599 1.409 . S
C593 H585 0.930 . S
C593 C591 1.419 . S
C593 C594 1.362 . S
C594 H586 0.930 . S
C594 C593 1.362 . S
C594 C597 1.409 . S
C595 H587 0.930 . S
C595 C596 1.355 1_554 S
C595 C597 1.415 . S
C596 C595 1.355 1_556 S
C596 C598 1.419 1_556 S
C597 C592 1.425 . S
C597 C594 1.409 . S
C597 C595 1.415 . S
C598 H588 0.930 1_554 S
C598 C596 1.419 1_554 S
C598 C599 1.362 . S
C599 H589 0.930 . S
C599 C592 1.409 . S
C599 C598 1.362 . S
H600 C606 0.930 . S
H601 C609 0.930 . S
H602 C610 0.930 . S
H603 C611 0.930 . S
H604 C614 0.930 . S
H605 C615 0.930 . S
C606 H600 0.930 . S
C606 C607 1.355 . S
C606 C608 1.415 . S
C607 C606 1.355 . S
C607 C609 1.419 . S
C608 C606 1.415 . S
C608 C613 1.425 . S
C608 C615 1.409 . S
C609 H601 0.930 . S
C609 C607 1.419 . S
C609 C610 1.362 . S
C610 H602 0.930 . S
C610 C609 1.362 . S
C610 C613 1.409 . S
C611 H603 0.930 . S
C611 C612 1.355 . S
C611 C613 1.415 . S
C612 C611 1.355 . S
C612 C614 1.419 . S
C613 C608 1.425 . S
C613 C610 1.409 . S
C613 C611 1.415 . S
C614 H604 0.930 . S
C614 C612 1.419 . S
C614 C615 1.362 . S
C615 H605 0.930 . S
C615 C608 1.409 . S
C615 C614 1.362 . S
H616 C622 0.930 . S
H617 C625 0.930 . S
H618 C626 0.930 . S
H619 C627 0.930 . S
H620 C630 0.930 . S
H621 C631 0.930 . S
C622 H616 0.930 . S
C622 C623 1.355 . S
C622 C624 1.415 . S
C623 C622 1.355 . S
C623 C625 1.419 . S
C624 C622 1.415 . S
C624 C629 1.425 . S
C624 C631 1.409 . S
C625 H617 0.930 . S
C625 C623 1.419 . S
C625 C626 1.362 . S
C626 H618 0.930 . S
C626 C625 1.362 . S
C626 C629 1.409 . S
C627 H619 0.930 . S
C627 C628 1.355 . S
C627 C629 1.415 . S
C628 C627 1.355 . S
C628 C630 1.419 . S
C629 C624 1.425 . S
C629 C626 1.409 . S
C629 C627 1.415 . S
C630 H620 0.930 . S
C630 C628 1.419 . S
C630 C631 1.362 . S
C631 H621 0.930 . S
C631 C624 1.409 . S
C631 C630 1.362 . S
H632 C638 0.930 . S
H633 C641 0.930 . S
H634 C642 0.930 . S
H635 C643 0.930 . S
H636 C646 0.930 . S
H637 C647 0.930 . S
C638 H632 0.930 . S
C638 C639 1.355 . S
C638 C640 1.415 . S
C639 C638 1.355 . S
C639 C641 1.419 . S
C640 C638 1.415 . S
C640 C645 1.425 . S
C640 C647 1.409 . S
C641 H633 0.930 . S
C641 C639 1.419 . S
C641 C642 1.362 . S
C642 H634 0.930 . S
C642 C641 1.362 . S
C642 C645 1.409 . S
C643 H635 0.930 . S
C643 C644 1.355 . S
C643 C645 1.415 . S
C644 C643 1.355 . S
C644 C646 1.419 . S
C645 C640 1.425 . S
C645 C642 1.409 . S
C645 C643 1.415 . S
C646 H636 0.930 . S
C646 C644 1.419 . S
C646 C647 1.362 . S
C647 H637 0.930 . S
C647 C640 1.409 . S
C647 C646 1.362 . S
H648 C654 0.930 . S
H649 C657 0.930 . S
H650 C658 0.930 . S
H651 C659 0.930 1_554 S
H652 C662 0.929 . S
H653 C663 0.930 . S
C654 H648 0.930 . S
C654 C655 1.355 . S
C654 C656 1.415 . S
C655 C654 1.355 . S
C655 C657 1.419 . S
C656 C654 1.415 . S
C656 C661 1.425 . S
C656 C663 1.409 . S
C657 H649 0.930 . S
C657 C655 1.419 . S
C657 C658 1.362 . S
C658 H650 0.930 . S
C658 C657 1.362 . S
C658 C661 1.409 . S
C659 H651 0.930 1_556 S
C659 C660 1.355 1_556 S
C659 C661 1.415 . S
C660 C659 1.355 1_554 S
C660 C662 1.419 1_554 S
C661 C656 1.425 . S
C661 C658 1.409 . S
C661 C659 1.415 . S
C662 H652 0.929 . S
C662 C660 1.419 1_556 S
C662 C663 1.362 . S
C663 H653 0.930 . S
C663 C656 1.409 . S
C663 C662 1.362 . S
H664 C670 0.930 . S
H665 C673 0.916 1_554 S
H666 C674 0.930 . S
H667 C675 0.930 . S
H668 C678 0.930 . S
H669 C679 0.930 . S
C670 H664 0.930 . S
C670 C671 1.355 1_556 S
C670 C672 1.415 . S
C671 C670 1.355 1_554 S
C671 C673 1.414 1_554 S
C672 C670 1.415 . S
C672 C677 1.425 . S
C672 C679 1.409 . S
C673 H665 0.916 1_556 S
C673 C671 1.414 1_556 S
C673 C674 1.382 . S
C674 H666 0.930 . S
C674 C673 1.382 . S
C674 C677 1.409 . S
C675 H667 0.930 . S
C675 C676 1.355 . S
C675 C677 1.415 . S
C676 C675 1.355 . S
C676 C678 1.419 . S
C677 C672 1.425 . S
C677 C674 1.409 . S
C677 C675 1.415 . S
C678 H668 0.930 . S
C678 C676 1.419 . S
C678 C679 1.362 . S
C679 H669 0.930 . S
C679 C672 1.409 . S
C679 C678 1.362 . S
H680 C686 0.930 . S
H681 C689 0.930 . S
H682 C690 0.930 . S
H683 C691 0.930 . S
H684 C694 0.930 1_554 S
H685 C695 0.930 . S
C686 H680 0.930 . S
C686 C687 1.355 . S
C686 C688 1.415 . S
C687 C686 1.355 . S
C687 C689 1.419 . S
C688 C686 1.415 . S
C688 C693 1.425 . S
C688 C695 1.409 . S
C689 H681 0.930 . S
C689 C687 1.419 . S
C689 C690 1.362 . S
C690 H682 0.930 . S
C690 C689 1.362 . S
C690 C693 1.409 . S
C691 H683 0.930 . S
C691 C692 1.355 1_556 S
C691 C693 1.415 . S
C692 C691 1.355 1_554 S
C692 C694 1.419 1_554 S
C693 C688 1.425 . S
C693 C690 1.409 . S
C693 C691 1.415 . S
C694 H684 0.930 1_556 S
C694 C692 1.419 1_556 S
C694 C695 1.362 . S
C695 H685 0.930 . S
C695 C688 1.409 . S
C695 C694 1.362 . S
H696 C702 0.930 . S
H697 C705 0.930 . S
H698 C706 0.930 . S
H699 C707 0.930 . S
H700 C710 0.930 . S
H701 C711 0.930 . S
C702 H696 0.930 . S
C702 C703 1.355 . S
C702 C704 1.415 . S
C703 C702 1.355 . S
C703 C705 1.419 . S
C704 C702 1.415 . S
C704 C709 1.425 . S
C704 C711 1.409 . S
C705 H697 0.930 . S
C705 C703 1.419 . S
C705 C706 1.362 . S
C706 H698 0.930 . S
C706 C705 1.362 . S
C706 C709 1.409 . S
C707 H699 0.930 . S
C707 C708 1.355 . S
C707 C709 1.415 . S
C708 C707 1.355 . S
C708 C710 1.419 . S
C709 C704 1.425 . S
C709 C706 1.409 . S
C709 C707 1.415 . S
C710 H700 0.930 . S
C710 C708 1.419 . S
C710 C711 1.362 . S
C711 H701 0.930 . S
C711 C704 1.409 . S
C711 C710 1.362 . S
H712 C718 0.930 . S
H713 C721 0.930 . S
H714 C722 0.930 . S
H715 C723 0.930 . S
H716 C726 0.930 . S
H717 C727 0.930 . S
C718 H712 0.930 . S
C718 C719 1.355 . S
C718 C720 1.415 . S
C719 C718 1.355 . S
C719 C721 1.419 . S
C720 C718 1.415 . S
C720 C725 1.425 . S
C720 C727 1.409 . S
C721 H713 0.930 . S
C721 C719 1.419 . S
C721 C722 1.362 . S
C722 H714 0.930 . S
C722 C721 1.362 . S
C722 C725 1.409 . S
C723 H715 0.930 . S
C723 C724 1.355 . S
C723 C725 1.415 . S
C724 C723 1.355 . S
C724 C726 1.419 . S
C725 C720 1.425 . S
C725 C722 1.409 . S
C725 C723 1.415 . S
C726 H716 0.930 . S
C726 C724 1.419 . S
C726 C727 1.362 . S
C727 H717 0.930 . S
C727 C720 1.409 . S
C727 C726 1.362 . S
H728 C734 0.930 . S
H729 C737 0.930 . S
H730 C738 0.930 . S
H731 C739 0.930 . S
H732 C742 0.930 . S
H733 C743 0.930 . S
C734 H728 0.930 . S
C734 C735 1.355 . S
C734 C736 1.415 . S
C735 C734 1.355 . S
C735 C737 1.419 1_565 S
C736 C734 1.415 . S
C736 C741 1.425 . S
C736 C743 1.409 . S
C737 H729 0.930 . S
C737 C735 1.419 1_545 S
C737 C738 1.362 . S
C738 H730 0.930 . S
C738 C737 1.362 . S
C738 C741 1.409 1_545 S
C739 H731 0.930 . S
C739 C740 1.355 . S
C739 C741 1.415 . S
C740 C739 1.355 . S
C740 C742 1.419 . S
C741 C736 1.425 . S
C741 C738 1.409 1_565 S
C741 C739 1.415 . S
C742 H732 0.930 . S
C742 C740 1.419 . S
C742 C743 1.362 . S
C743 H733 0.930 . S
C743 C736 1.409 . S
C743 C742 1.362 . S
H744 C750 0.930 . S
H745 C753 0.930 . S
H746 C754 0.930 . S
H747 C755 0.930 . S
H748 C758 0.930 . S
H749 C759 0.930 . S
C750 H744 0.930 . S
C750 C751 1.355 . S
C750 C752 1.415 . S
C751 C750 1.355 . S
C751 C753 1.419 . S
C752 C750 1.415 . S
C752 C757 1.425 . S
C752 C759 1.409 . S
C753 H745 0.930 . S
C753 C751 1.419 . S
C753 C754 1.362 . S
C754 H746 0.930 . S
C754 C753 1.362 . S
C754 C757 1.409 . S
C755 H747 0.930 . S
C755 C756 1.355 . S
C755 C757 1.415 . S
C756 C755 1.355 . S
C756 C758 1.419 . S
C757 C752 1.425 . S
C757 C754 1.409 . S
C757 C755 1.415 . S
C758 H748 0.930 . S
C758 C756 1.419 . S
C758 C759 1.362 . S
C759 H749 0.930 . S
C759 C752 1.409 . S
C759 C758 1.362 . S
H760 C766 0.930 1_655 S
H761 C769 0.930 . S
H762 C770 0.930 . S
H763 C771 0.930 . S
H764 C774 0.930 . S
H765 C775 0.930 1_655 S
C766 H760 0.930 1_455 S
C766 C767 1.355 . S
C766 C768 1.415 . S
C767 C766 1.355 . S
C767 C769 1.419 . S
C768 C766 1.415 . S
C768 C773 1.425 . S
C768 C775 1.409 . S
C769 H761 0.930 . S
C769 C767 1.419 . S
C769 C770 1.362 . S
C770 H762 0.930 . S
C770 C769 1.362 . S
C770 C773 1.409 . S
C771 H763 0.930 . S
C771 C772 1.355 . S
C771 C773 1.415 . S
C772 C771 1.355 . S
C772 C774 1.419 . S
C773 C768 1.425 . S
C773 C770 1.409 . S
C773 C771 1.415 . S
C774 H764 0.930 . S
C774 C772 1.419 . S
C774 C775 1.362 . S
C775 H765 0.930 1_455 S
C775 C768 1.409 . S
C775 C774 1.362 . S
H776 C782 0.930 . S
H777 C785 0.930 . S
H778 C786 0.930 . S
H779 C787 0.930 . S
H780 C790 0.930 . S
H781 C791 0.930 . S
C782 H776 0.930 . S
C782 C783 1.355 . S
C782 C784 1.415 . S
C783 C782 1.355 . S
C783 C785 1.419 . S
C784 C782 1.415 . S
C784 C789 1.425 . S
C784 C791 1.409 . S
C785 H777 0.930 . S
C785 C783 1.419 . S
C785 C786 1.362 . S
C786 H778 0.930 . S
C786 C785 1.362 . S
C786 C789 1.409 . S
C787 H779 0.930 . S
C787 C788 1.355 . S
C787 C789 1.415 . S
C788 C787 1.355 . S
C788 C790 1.419 . S
C789 C784 1.425 . S
C789 C786 1.409 . S
C789 C787 1.415 . S
C790 H780 0.930 . S
C790 C788 1.419 . S
C790 C791 1.362 . S
C791 H781 0.930 . S
C791 C784 1.409 . S
C791 C790 1.362 . S
H792 C798 0.930 . S
H793 C801 0.930 . S
H794 C802 0.930 . S
H795 C803 0.930 . S
H796 C806 0.930 . S
H797 C807 0.930 . S
C798 H792 0.930 . S
C798 C799 1.355 . S
C798 C800 1.415 . S
C799 C798 1.355 . S
C799 C801 1.419 . S
C800 C798 1.415 . S
C800 C805 1.425 . S
C800 C807 1.409 . S
C801 H793 0.930 . S
C801 C799 1.419 . S
C801 C802 1.362 . S
C802 H794 0.930 . S
C802 C801 1.362 . S
C802 C805 1.409 . S
C803 H795 0.930 . S
C803 C804 1.355 . S
C803 C805 1.415 . S
C804 C803 1.355 . S
C804 C806 1.419 . S
C805 C800 1.425 . S
C805 C802 1.409 . S
C805 C803 1.415 . S
C806 H796 0.930 . S
C806 C804 1.419 . S
C806 C807 1.362 . S
C807 H797 0.930 . S
C807 C800 1.409 . S
C807 C806 1.362 . S
H808 C814 0.930 . S
H809 C817 0.930 . S
H810 C818 0.930 . S
H811 C819 0.930 . S
H812 C822 0.930 . S
H813 C823 0.930 . S
C814 H808 0.930 . S
C814 C815 1.355 . S
C814 C816 1.415 . S
C815 C814 1.355 . S
C815 C817 1.419 . S
C816 C814 1.415 . S
C816 C821 1.425 . S
C816 C823 1.409 . S
C817 H809 0.930 . S
C817 C815 1.419 . S
C817 C818 1.362 . S
C818 H810 0.930 . S
C818 C817 1.362 . S
C818 C821 1.409 . S
C819 H811 0.930 . S
C819 C820 1.355 . S
C819 C821 1.415 . S
C820 C819 1.355 . S
C820 C822 1.419 . S
C821 C816 1.425 . S
C821 C818 1.409 . S
C821 C819 1.415 . S
C822 H812 0.930 . S
C822 C820 1.419 . S
C822 C823 1.362 . S
C823 H813 0.930 . S
C823 C816 1.409 . S
C823 C822 1.362 . S
H824 C830 0.930 . S
H825 C833 0.930 . S
H826 C834 0.930 . S
H827 C835 0.930 . S
H828 C838 0.930 . S
H829 C839 0.930 . S
C830 H824 0.930 . S
C830 C831 1.355 . S
C830 C832 1.415 . S
C831 C830 1.355 . S
C831 C833 1.419 . S
C832 C830 1.415 . S
C832 C837 1.425 . S
C832 C839 1.409 . S
C833 H825 0.930 . S
C833 C831 1.419 . S
C833 C834 1.362 . S
C834 H826 0.930 . S
C834 C833 1.362 . S
C834 C837 1.409 . S
C835 H827 0.930 . S
C835 C836 1.355 . S
C835 C837 1.415 . S
C836 C835 1.355 . S
C836 C838 1.419 . S
C837 C832 1.425 . S
C837 C834 1.409 . S
C837 C835 1.415 . S
C838 H828 0.930 . S
C838 C836 1.419 . S
C838 C839 1.362 . S
C839 H829 0.930 . S
C839 C832 1.409 . S
C839 C838 1.362 . S
H840 C846 0.930 . S
H841 C849 0.930 . S
H842 C850 0.930 . S
H843 C851 0.930 . S
H844 C854 0.930 . S
H845 C855 0.930 . S
C846 H840 0.930 . S
C846 C847 1.355 . S
C846 C848 1.415 . S
C847 C846 1.355 . S
C847 C849 1.419 . S
C848 C846 1.415 . S
C848 C853 1.425 . S
C848 C855 1.409 . S
C849 H841 0.930 . S
C849 C847 1.419 . S
C849 C850 1.362 . S
C850 H842 0.930 . S
C850 C849 1.362 . S
C850 C853 1.409 . S
C851 H843 0.930 . S
C851 C852 1.355 . S
C851 C853 1.415 . S
C852 C851 1.355 . S
C852 C854 1.419 . S
C853 C848 1.425 . S
C853 C850 1.409 . S
C853 C851 1.415 . S
C854 H844 0.930 . S
C854 C852 1.419 . S
C854 C855 1.362 . S
C855 H845 0.930 . S
C855 C848 1.409 . S
C855 C854 1.362 . S
H856 C862 0.930 . S
H857 C865 0.930 . S
H858 C866 0.930 . S
H859 C867 0.930 . S
H860 C870 0.930 . S
H861 C871 0.930 . S
C862 H856 0.930 . S
C862 C863 1.355 . S
C862 C864 1.415 . S
C863 C862 1.355 . S
C863 C865 1.419 . S
C864 C862 1.415 . S
C864 C869 1.425 . S
C864 C871 1.409 . S
C865 H857 0.930 . S
C865 C863 1.419 . S
C865 C866 1.362 . S
C866 H858 0.930 . S
C866 C865 1.362 . S
C866 C869 1.409 . S
C867 H859 0.930 . S
C867 C868 1.355 . S
C867 C869 1.415 . S
C868 C867 1.355 . S
C868 C870 1.419 . S
C869 C864 1.425 . S
C869 C866 1.409 . S
C869 C867 1.415 . S
C870 H860 0.930 . S
C870 C868 1.419 . S
C870 C871 1.362 . S
C871 H861 0.930 . S
C871 C864 1.409 . S
C871 C870 1.362 . S
H872 C878 0.930 . S
H873 C881 0.930 . S
H874 C882 0.930 . S
H875 C883 0.930 . S
H876 C886 0.930 . S
H877 C887 0.930 . S
C878 H872 0.930 . S
C878 C879 1.355 . S
C878 C880 1.415 . S
C879 C878 1.355 . S
C879 C881 1.419 . S
C880 C878 1.415 . S
C880 C885 1.425 . S
C880 C887 1.409 . S
C881 H873 0.930 . S
C881 C879 1.419 . S
C881 C882 1.362 . S
C882 H874 0.930 . S
C882 C881 1.362 . S
C882 C885 1.409 . S
C883 H875 0.930 . S
C883 C884 1.355 . S
C883 C885 1.415 . S
C884 C883 1.355 . S
C884 C886 1.419 . S
C885 C880 1.425 . S
C885 C882 1.409 . S
C885 C883 1.415 . S
C886 H876 0.930 . S
C886 C884 1.419 . S
C886 C887 1.362 . S
C887 H877 0.930 . S
C887 C880 1.409 . S
C887 C886 1.362 . S
H888 C894 0.930 . S
H889 C897 0.930 . S
H890 C898 0.930 . S
H891 C899 0.930 . S
H892 C902 0.930 . S
H893 C903 0.930 . S
C894 H888 0.930 . S
C894 C895 1.355 . S
C894 C896 1.415 . S
C895 C894 1.355 . S
C895 C897 1.419 . S
C896 C894 1.415 . S
C896 C901 1.425 . S
C896 C903 1.409 . S
C897 H889 0.930 . S
C897 C895 1.419 . S
C897 C898 1.362 . S
C898 H890 0.930 . S
C898 C897 1.362 . S
C898 C901 1.409 . S
C899 H891 0.930 . S
C899 C900 1.355 . S
C899 C901 1.415 . S
C900 C899 1.355 . S
C900 C902 1.419 . S
C901 C896 1.425 . S
C901 C898 1.409 . S
C901 C899 1.415 . S
C902 H892 0.930 . S
C902 C900 1.419 . S
C902 C903 1.362 . S
C903 H893 0.930 . S
C903 C896 1.409 . S
C903 C902 1.362 . S
H904 C910 0.930 . S
H905 C913 0.930 . S
H906 C914 0.930 . S
H907 C915 0.930 . S
H908 C918 0.930 . S
H909 C919 0.930 . S
C910 H904 0.930 . S
C910 C911 1.355 . S
C910 C912 1.415 . S
C911 C910 1.355 . S
C911 C913 1.419 . S
C912 C910 1.415 . S
C912 C917 1.425 . S
C912 C919 1.409 . S
C913 H905 0.930 . S
C913 C911 1.419 . S
C913 C914 1.362 . S
C914 H906 0.930 . S
C914 C913 1.362 . S
C914 C917 1.409 . S
C915 H907 0.930 . S
C915 C916 1.355 . S
C915 C917 1.415 . S
C916 C915 1.355 . S
C916 C918 1.419 . S
C917 C912 1.425 . S
C917 C914 1.409 . S
C917 C915 1.415 . S
C918 H908 0.930 . S
C918 C916 1.419 . S
C918 C919 1.362 . S
C919 H909 0.930 . S
C919 C912 1.409 . S
C919 C918 1.362 . S
H920 C926 0.930 . S
H921 C929 0.930 . S
H922 C930 0.930 . S
H923 C931 0.930 . S
H924 C934 0.930 . S
H925 C935 0.930 . S
C926 H920 0.930 . S
C926 C927 1.355 . S
C926 C928 1.415 . S
C927 C926 1.355 . S
C927 C929 1.419 . S
C928 C926 1.415 . S
C928 C933 1.425 . S
C928 C935 1.409 . S
C929 H921 0.930 . S
C929 C927 1.419 . S
C929 C930 1.362 . S
C930 H922 0.930 . S
C930 C929 1.362 . S
C930 C933 1.409 . S
C931 H923 0.930 . S
C931 C932 1.355 . S
C931 C933 1.415 . S
C932 C931 1.355 . S
C932 C934 1.419 . S
C933 C928 1.425 . S
C933 C930 1.409 . S
C933 C931 1.415 . S
C934 H924 0.930 . S
C934 C932 1.419 . S
C934 C935 1.362 . S
C935 H925 0.930 . S
C935 C928 1.409 . S
C935 C934 1.362 . S
H936 C942 0.930 . S
H937 C945 0.930 . S
H938 C946 0.930 . S
H939 C947 0.930 . S
H940 C950 0.930 . S
H941 C951 0.930 . S
C942 H936 0.930 . S
C942 C943 1.355 . S
C942 C944 1.415 . S
C943 C942 1.355 . S
C943 C945 1.419 . S
C944 C942 1.415 . S
C944 C949 1.425 . S
C944 C951 1.409 . S
C945 H937 0.930 . S
C945 C943 1.419 . S
C945 C946 1.362 . S
C946 H938 0.930 . S
C946 C945 1.362 . S
C946 C949 1.409 . S
C947 H939 0.930 . S
C947 C948 1.355 . S
C947 C949 1.415 . S
C948 C947 1.355 . S
C948 C950 1.419 . S
C949 C944 1.425 . S
C949 C946 1.409 . S
C949 C947 1.415 . S
C950 H940 0.930 . S
C950 C948 1.419 . S
C950 C951 1.362 . S
C951 H941 0.930 . S
C951 C944 1.409 . S
C951 C950 1.362 . S
H952 C958 0.930 . S
H953 C961 0.930 . S
H954 C962 0.930 . S
H955 C963 0.930 . S
H956 C966 0.930 . S
H957 C967 0.930 . S
C958 H952 0.930 . S
C958 C959 1.355 . S
C958 C960 1.415 . S
C959 C958 1.355 . S
C959 C961 1.419 . S
C960 C958 1.415 . S
C960 C965 1.425 . S
C960 C967 1.409 . S
C961 H953 0.930 . S
C961 C959 1.419 . S
C961 C962 1.362 . S
C962 H954 0.930 . S
C962 C961 1.362 . S
C962 C965 1.409 . S
C963 H955 0.930 . S
C963 C964 1.355 . S
C963 C965 1.415 . S
C964 C963 1.355 . S
C964 C966 1.419 . S
C965 C960 1.425 . S
C965 C962 1.409 . S
C965 C963 1.415 . S
C966 H956 0.930 . S
C966 C964 1.419 . S
C966 C967 1.362 . S
C967 H957 0.930 . S
C967 C960 1.409 . S
C967 C966 1.362 . S
H968 C974 0.930 . S
H969 C977 0.930 . S
H970 C978 0.930 . S
H971 C979 0.930 . S
H972 C982 0.930 . S
H973 C983 0.930 . S
C974 H968 0.930 . S
C974 C975 1.355 . S
C974 C976 1.415 . S
C975 C974 1.355 . S
C975 C977 1.419 . S
C976 C974 1.415 . S
C976 C981 1.425 . S
C976 C983 1.409 . S
C977 H969 0.930 . S
C977 C975 1.419 . S
C977 C978 1.362 . S
C978 H970 0.930 . S
C978 C977 1.362 . S
C978 C981 1.409 . S
C979 H971 0.930 . S
C979 C980 1.355 . S
C979 C981 1.415 . S
C980 C979 1.355 . S
C980 C982 1.419 . S
C981 C976 1.425 . S
C981 C978 1.409 . S
C981 C979 1.415 . S
C982 H972 0.930 . S
C982 C980 1.419 . S
C982 C983 1.362 . S
C983 H973 0.930 . S
C983 C976 1.409 . S
C983 C982 1.362 . S
H984 C990 0.930 . S
H985 C993 0.930 . S
H986 C994 0.930 . S
H987 C995 0.930 . S
H988 C998 0.930 . S
H989 C999 0.930 . S
C990 H984 0.930 . S
C990 C991 1.355 . S
C990 C992 1.415 . S
C991 C990 1.355 . S
C991 C993 1.419 . S
C992 C990 1.415 . S
C992 C997 1.425 . S
C992 C999 1.409 . S
C993 H985 0.930 . S
C993 C991 1.419 . S
C993 C994 1.362 . S
C994 H986 0.930 . S
C994 C993 1.362 . S
C994 C997 1.409 . S
C995 H987 0.930 . S
C995 C996 1.355 . S
C995 C997 1.415 . S
C996 C995 1.355 . S
C996 C998 1.419 . S
C997 C992 1.425 . S
C997 C994 1.409 . S
C997 C995 1.415 . S
C998 H988 0.930 . S
C998 C996 1.419 . S
C998 C999 1.362 . S
C999 H989 0.930 . S
C999 C992 1.409 . S
C999 C998 1.362 . S
H1000 C1006 0.930 . S
H1001 C1009 0.930 . S
H1002 C1010 0.930 . S
H1003 C1011 0.930 . S
H1004 C1014 0.930 . S
H1005 C1015 0.930 . S
C1006 H1000 0.930 . S
C1006 C1007 1.355 . S
C1006 C1008 1.415 . S
C1007 C1006 1.355 . S
C1007 C1009 1.419 . S
C1008 C1006 1.415 . S
C1008 C1013 1.425 . S
C1008 C1015 1.409 . S
C1009 H1001 0.930 . S
C1009 C1007 1.419 . S
C1009 C1010 1.362 . S
C1010 H1002 0.930 . S
C1010 C1009 1.362 . S
C1010 C1013 1.409 . S
C1011 H1003 0.930 . S
C1011 C1012 1.355 . S
C1011 C1013 1.415 . S
C1012 C1011 1.355 . S
C1012 C1014 1.419 . S
C1013 C1008 1.425 . S
C1013 C1010 1.409 . S
C1013 C1011 1.415 . S
C1014 H1004 0.930 . S
C1014 C1012 1.419 . S
C1014 C1015 1.362 . S
C1015 H1005 0.930 . S
C1015 C1008 1.409 . S
C1015 C1014 1.362 . S
H1016 C1022 0.930 . S
H1017 C1025 0.930 . S
H1018 C1026 0.930 . S
H1019 C1027 0.930 . S
H1020 C1030 0.930 . S
H1021 C1031 0.930 . S
C1022 H1016 0.930 . S
C1022 C1023 1.355 . S
C1022 C1024 1.415 . S
C1023 C1022 1.355 . S
C1023 C1025 1.419 . S
C1024 C1022 1.415 . S
C1024 C1029 1.425 . S
C1024 C1031 1.409 . S
C1025 H1017 0.930 . S
C1025 C1023 1.419 . S
C1025 C1026 1.362 . S
C1026 H1018 0.930 . S
C1026 C1025 1.362 . S
C1026 C1029 1.409 . S
C1027 H1019 0.930 . S
C1027 C1028 1.355 . S
C1027 C1029 1.415 . S
C1028 C1027 1.355 . S
C1028 C1030 1.419 . S
C1029 C1024 1.425 . S
C1029 C1026 1.409 . S
C1029 C1027 1.415 . S
C1030 H1020 0.930 . S
C1030 C1028 1.419 . S
C1030 C1031 1.362 . S
C1031 H1021 0.930 . S
C1031 C1024 1.409 . S
C1031 C1030 1.362 . S
H1032 C1038 0.930 . S
H1033 C1041 0.930 1_545 S
H1034 C1042 0.930 . S
H1035 C1043 0.930 . S
H1036 C1046 0.930 . S
H1037 C1047 0.930 . S
C1038 H1032 0.930 . S
C1038 C1039 1.359 . S
C1038 C1040 1.415 . S
C1039 C1038 1.359 . S
C1039 C1041 1.413 1_554 S
C1040 C1038 1.415 . S
C1040 C1045 1.425 1_554 S
C1040 C1047 1.409 . S
C1041 H1033 0.930 1_565 S
C1041 C1039 1.413 1_556 S
C1041 C1042 1.362 . S
C1042 H1034 0.930 . S
C1042 C1041 1.362 . S
C1042 C1045 1.409 . S
C1043 H1035 0.930 . S
C1043 C1044 1.355 . S
C1043 C1045 1.415 . S
C1044 C1043 1.355 . S
C1044 C1046 1.419 1_556 S
C1045 C1040 1.425 1_556 S
C1045 C1042 1.409 . S
C1045 C1043 1.415 . S
C1046 H1036 0.930 . S
C1046 C1044 1.419 1_554 S
C1046 C1047 1.362 . S
C1047 H1037 0.930 . S
C1047 C1040 1.409 . S
C1047 C1046 1.362 . S
H1048 C1054 0.930 . S
H1049 C1057 0.930 . S
H1050 C1058 0.930 . S
H1051 C1059 0.930 . S
H1052 C1062 0.930 . S
H1053 C1063 0.930 . S
C1054 H1048 0.930 . S
C1054 C1055 1.355 1_556 S
C1054 C1056 1.415 . S
C1055 C1054 1.355 1_554 S
C1055 C1057 1.419 . S
C1056 C1054 1.415 . S
C1056 C1061 1.425 1_556 S
C1056 C1063 1.409 . S
C1057 H1049 0.930 . S
C1057 C1055 1.419 . S
C1057 C1058 1.362 . S
C1058 H1050 0.930 . S
C1058 C1057 1.362 . S
C1058 C1061 1.409 . S
C1059 H1051 0.930 . S
C1059 C1060 1.355 1_554 S
C1059 C1061 1.415 . S
C1060 C1059 1.355 1_556 S
C1060 C1062 1.419 . S
C1061 C1056 1.425 1_554 S
C1061 C1058 1.409 . S
C1061 C1059 1.415 . S
C1062 H1052 0.930 . S
C1062 C1060 1.419 . S
C1062 C1063 1.362 . S
C1063 H1053 0.930 . S
C1063 C1056 1.409 . S
C1063 C1062 1.362 . S
H1064 C1070 0.930 . S
H1065 C1073 0.930 . S
H1066 C1074 0.930 . S
H1067 C1075 0.930 . S
H1068 C1078 0.930 . S
H1069 C1079 0.930 . S
C1070 H1064 0.930 . S
C1070 C1071 1.355 1_554 S
C1070 C1072 1.415 . S
C1071 C1070 1.355 1_556 S
C1071 C1073 1.419 . S
C1072 C1070 1.415 . S
C1072 C1077 1.425 1_554 S
C1072 C1079 1.409 . S
C1073 H1065 0.930 . S
C1073 C1071 1.419 . S
C1073 C1074 1.362 . S
C1074 H1066 0.930 . S
C1074 C1073 1.362 . S
C1074 C1077 1.409 . S
C1075 H1067 0.930 . S
C1075 C1076 1.355 1_556 S
C1075 C1077 1.415 . S
C1076 C1075 1.355 1_554 S
C1076 C1078 1.419 . S
C1077 C1072 1.425 1_556 S
C1077 C1074 1.409 . S
C1077 C1075 1.415 . S
C1078 H1068 0.930 . S
C1078 C1076 1.419 . S
C1078 C1079 1.362 . S
C1079 H1069 0.930 . S
C1079 C1072 1.409 . S
C1079 C1078 1.362 . S
H1080 C1086 0.930 . S
H1081 C1089 0.930 . S
H1082 C1090 0.930 . S
H1083 C1091 0.930 . S
H1084 C1094 0.930 . S
H1085 C1095 0.930 . S
C1086 H1080 0.930 . S
C1086 C1087 1.355 . S
C1086 C1088 1.415 . S
C1087 C1086 1.355 . S
C1087 C1089 1.419 . S
C1088 C1086 1.415 . S
C1088 C1093 1.425 . S
C1088 C1095 1.409 . S
C1089 H1081 0.930 . S
C1089 C1087 1.419 . S
C1089 C1090 1.362 . S
C1090 H1082 0.930 . S
C1090 C1089 1.362 . S
C1090 C1093 1.409 . S
C1091 H1083 0.930 . S
C1091 C1092 1.355 . S
C1091 C1093 1.415 . S
C1092 C1091 1.355 . S
C1092 C1094 1.419 . S
C1093 C1088 1.425 . S
C1093 C1090 1.409 . S
C1093 C1091 1.415 . S
C1094 H1084 0.930 . S
C1094 C1092 1.419 . S
C1094 C1095 1.362 . S
C1095 H1085 0.930 . S
C1095 C1088 1.409 . S
C1095 C1094 1.362 . S
H1096 C1102 0.930 . S
H1097 C1105 0.930 . S
H1098 C1106 0.930 . S
H1099 C1107 0.930 . S
H1100 C1110 0.930 . S
H1101 C1111 0.930 . S
C1102 H1096 0.930 . S
C1102 C1103 1.355 . S
C1102 C1104 1.415 . S
C1103 C1102 1.355 . S
C1103 C1105 1.419 . S
C1104 C1102 1.415 . S
C1104 C1109 1.425 . S
C1104 C1111 1.409 . S
C1105 H1097 0.930 . S
C1105 C1103 1.419 . S
C1105 C1106 1.362 . S
C1106 H1098 0.930 . S
C1106 C1105 1.362 . S
C1106 C1109 1.409 . S
C1107 H1099 0.930 . S
C1107 C1108 1.355 . S
C1107 C1109 1.415 . S
C1108 C1107 1.355 . S
C1108 C1110 1.419 . S
C1109 C1104 1.425 . S
C1109 C1106 1.409 . S
C1109 C1107 1.415 . S
C1110 H1100 0.930 . S
C1110 C1108 1.419 . S
C1110 C1111 1.362 . S
C1111 H1101 0.930 . S
C1111 C1104 1.409 . S
C1111 C1110 1.362 . S
H1112 C1118 0.930 . S
H1113 C1121 0.930 . S
H1114 C1122 0.930 . S
H1115 C1123 0.930 . S
H1116 C1126 0.930 . S
H1117 C1127 0.930 1_556 S
C1118 H1112 0.930 . S
C1118 C1119 1.355 . S
C1118 C1120 1.415 . S
C1119 C1118 1.355 . S
C1119 C1121 1.419 . S
C1120 C1118 1.415 . S
C1120 C1125 1.425 . S
C1120 C1127 1.409 . S
C1121 H1113 0.930 . S
C1121 C1119 1.419 . S
C1121 C1122 1.362 . S
C1122 H1114 0.930 . S
C1122 C1121 1.362 . S
C1122 C1125 1.409 . S
C1123 H1115 0.930 . S
C1123 C1124 1.355 . S
C1123 C1125 1.415 . S
C1124 C1123 1.355 . S
C1124 C1126 1.419 1_554 S
C1125 C1120 1.425 . S
C1125 C1122 1.409 . S
C1125 C1123 1.415 . S
C1126 H1116 0.930 . S
C1126 C1124 1.419 1_556 S
C1126 C1127 1.362 1_556 S
C1127 H1117 0.930 1_554 S
C1127 C1120 1.409 . S
C1127 C1126 1.362 1_554 S
H1128 C1134 0.930 . S
H1129 C1137 0.930 . S
H1130 C1138 0.930 . S
H1131 C1139 0.930 . S
H1132 C1142 0.930 . S
H1133 C1143 0.930 . S
C1134 H1128 0.930 . S
C1134 C1135 1.355 . S
C1134 C1136 1.415 . S
C1135 C1134 1.355 . S
C1135 C1137 1.419 . S
C1136 C1134 1.415 . S
C1136 C1141 1.425 . S
C1136 C1143 1.409 . S
C1137 H1129 0.930 . S
C1137 C1135 1.419 . S
C1137 C1138 1.362 . S
C1138 H1130 0.930 . S
C1138 C1137 1.362 . S
C1138 C1141 1.409 . S
C1139 H1131 0.930 . S
C1139 C1140 1.355 . S
C1139 C1141 1.415 . S
C1140 C1139 1.355 . S
C1140 C1142 1.419 . S
C1141 C1136 1.425 . S
C1141 C1138 1.409 . S
C1141 C1139 1.415 . S
C1142 H1132 0.930 . S
C1142 C1140 1.419 . S
C1142 C1143 1.362 . S
C1143 H1133 0.930 . S
C1143 C1136 1.409 . S
C1143 C1142 1.362 . S
H1144 C1150 0.930 . S
H1145 C1153 0.930 . S
H1146 C1154 0.930 . S
H1147 C1155 0.930 . S
H1148 C1158 0.930 . S
H1149 C1159 0.930 . S
C1150 H1144 0.930 . S
C1150 C1151 1.355 . S
C1150 C1152 1.415 . S
C1151 C1150 1.355 . S
C1151 C1153 1.419 . S
C1152 C1150 1.415 . S
C1152 C1157 1.425 . S
C1152 C1159 1.409 . S
C1153 H1145 0.930 . S
C1153 C1151 1.419 . S
C1153 C1154 1.362 . S
C1154 H1146 0.930 . S
C1154 C1153 1.362 . S
C1154 C1157 1.409 . S
C1155 H1147 0.930 . S
C1155 C1156 1.355 . S
C1155 C1157 1.415 . S
C1156 C1155 1.355 . S
C1156 C1158 1.419 . S
C1157 C1152 1.425 . S
C1157 C1154 1.409 . S
C1157 C1155 1.415 . S
C1158 H1148 0.930 . S
C1158 C1156 1.419 . S
C1158 C1159 1.362 . S
C1159 H1149 0.930 . S
C1159 C1152 1.409 . S
C1159 C1158 1.362 . S
H1160 C1166 0.930 . S
H1161 C1169 0.930 . S
H1162 C1170 0.930 . S
H1163 C1171 0.930 . S
H1164 C1174 0.930 . S
H1165 C1175 0.930 . S
C1166 H1160 0.930 . S
C1166 C1167 1.355 . S
C1166 C1168 1.415 . S
C1167 C1166 1.355 . S
C1167 C1169 1.419 . S
C1168 C1166 1.415 . S
C1168 C1173 1.425 . S
C1168 C1175 1.409 . S
C1169 H1161 0.930 . S
C1169 C1167 1.419 . S
C1169 C1170 1.362 . S
C1170 H1162 0.930 . S
C1170 C1169 1.362 . S
C1170 C1173 1.409 . S
C1171 H1163 0.930 . S
C1171 C1172 1.355 . S
C1171 C1173 1.415 . S
C1172 C1171 1.355 . S
C1172 C1174 1.419 . S
C1173 C1168 1.425 . S
C1173 C1170 1.409 . S
C1173 C1171 1.415 . S
C1174 H1164 0.930 . S
C1174 C1172 1.419 . S
C1174 C1175 1.362 . S
C1175 H1165 0.930 . S
C1175 C1168 1.409 . S
C1175 C1174 1.362 . S
H1176 C1182 0.930 1_554 S
H1177 C1185 0.930 . S
H1178 C1186 0.930 . S
H1179 C1187 0.930 . S
H1180 C1190 0.930 . S
H1181 C1191 0.930 1_554 S
C1182 H1176 0.930 1_556 S
C1182 C1183 1.355 . S
C1182 C1184 1.415 . S
C1183 C1182 1.355 . S
C1183 C1185 1.419 . S
C1184 C1182 1.415 . S
C1184 C1189 1.425 . S
C1184 C1191 1.409 . S
C1185 H1177 0.930 . S
C1185 C1183 1.419 . S
C1185 C1186 1.362 . S
C1186 H1178 0.930 . S
C1186 C1185 1.362 . S
C1186 C1189 1.409 . S
C1187 H1179 0.930 . S
C1187 C1188 1.355 . S
C1187 C1189 1.415 . S
C1188 C1187 1.355 . S
C1188 C1190 1.419 . S
C1189 C1184 1.425 . S
C1189 C1186 1.409 . S
C1189 C1187 1.415 . S
C1190 H1180 0.930 . S
C1190 C1188 1.419 . S
C1190 C1191 1.362 . S
C1191 H1181 0.930 1_556 S
C1191 C1184 1.409 . S
C1191 C1190 1.362 . S
H1192 C1198 0.930 . S
H1193 C1201 0.930 . S
H1194 C1202 0.930 . S
H1195 C1203 0.930 . S
H1196 C1206 0.930 . S
H1197 C1207 0.930 . S
C1198 H1192 0.930 . S
C1198 C1199 1.355 . S
C1198 C1200 1.415 . S
C1199 C1198 1.355 . S
C1199 C1201 1.419 . S
C1200 C1198 1.415 . S
C1200 C1205 1.425 . S
C1200 C1207 1.409 . S
C1201 H1193 0.930 . S
C1201 C1199 1.419 . S
C1201 C1202 1.362 . S
C1202 H1194 0.930 . S
C1202 C1201 1.362 . S
C1202 C1205 1.409 . S
C1203 H1195 0.930 . S
C1203 C1204 1.355 . S
C1203 C1205 1.415 . S
C1204 C1203 1.355 . S
C1204 C1206 1.419 . S
C1205 C1200 1.425 . S
C1205 C1202 1.409 . S
C1205 C1203 1.415 . S
C1206 H1196 0.930 . S
C1206 C1204 1.419 . S
C1206 C1207 1.362 . S
C1207 H1197 0.930 . S
C1207 C1200 1.409 . S
C1207 C1206 1.362 . S
H1208 C1214 0.930 . S
H1209 C1217 0.930 . S
H1210 C1218 0.930 . S
H1211 C1219 0.930 . S
H1212 C1222 0.930 . S
H1213 C1223 0.930 . S
C1214 H1208 0.930 . S
C1214 C1215 1.355 . S
C1214 C1216 1.415 . S
C1215 C1214 1.355 . S
C1215 C1217 1.419 . S
C1216 C1214 1.415 . S
C1216 C1221 1.425 . S
C1216 C1223 1.409 . S
C1217 H1209 0.930 . S
C1217 C1215 1.419 . S
C1217 C1218 1.362 . S
C1218 H1210 0.930 . S
C1218 C1217 1.362 . S
C1218 C1221 1.409 . S
C1219 H1211 0.930 . S
C1219 C1220 1.355 . S
C1219 C1221 1.415 . S
C1220 C1219 1.355 . S
C1220 C1222 1.419 . S
C1221 C1216 1.425 . S
C1221 C1218 1.409 . S
C1221 C1219 1.415 . S
C1222 H1212 0.930 . S
C1222 C1220 1.419 . S
C1222 C1223 1.362 . S
C1223 H1213 0.930 . S
C1223 C1216 1.409 . S
C1223 C1222 1.362 . S
H1224 C1230 0.930 . S
H1225 C1233 0.930 . S
H1226 C1234 0.930 . S
H1227 C1235 0.930 . S
H1228 C1238 0.930 . S
H1229 C1239 0.930 . S
C1230 H1224 0.930 . S
C1230 C1231 1.355 . S
C1230 C1232 1.415 . S
C1231 C1230 1.355 . S
C1231 C1233 1.419 . S
C1232 C1230 1.415 . S
C1232 C1237 1.425 . S
C1232 C1239 1.409 . S
C1233 H1225 0.930 . S
C1233 C1231 1.419 . S
C1233 C1234 1.362 . S
C1234 H1226 0.930 . S
C1234 C1233 1.362 . S
C1234 C1237 1.409 . S
C1235 H1227 0.930 . S
C1235 C1236 1.355 . S
C1235 C1237 1.415 . S
C1236 C1235 1.355 . S
C1236 C1238 1.419 . S
C1237 C1232 1.425 . S
C1237 C1234 1.409 . S
C1237 C1235 1.415 . S
C1238 H1228 0.930 . S
C1238 C1236 1.419 . S
C1238 C1239 1.362 . S
C1239 H1229 0.930 . S
C1239 C1232 1.409 . S
C1239 C1238 1.362 . S
H1240 C1246 0.930 . S
H1241 C1249 0.930 . S
H1242 C1250 0.930 . S
H1243 C1251 0.930 . S
H1244 C1254 0.930 . S
H1245 C1255 0.930 . S
C1246 H1240 0.930 . S
C1246 C1247 1.355 . S
C1246 C1248 1.415 . S
C1247 C1246 1.355 . S
C1247 C1249 1.419 . S
C1248 C1246 1.415 . S
C1248 C1253 1.425 . S
C1248 C1255 1.409 . S
C1249 H1241 0.930 . S
C1249 C1247 1.419 . S
C1249 C1250 1.362 . S
C1250 H1242 0.930 . S
C1250 C1249 1.362 . S
C1250 C1253 1.409 . S
C1251 H1243 0.930 . S
C1251 C1252 1.355 . S
C1251 C1253 1.415 . S
C1252 C1251 1.355 . S
C1252 C1254 1.419 . S
C1253 C1248 1.425 . S
C1253 C1250 1.409 . S
C1253 C1251 1.415 . S
C1254 H1244 0.930 . S
C1254 C1252 1.419 . S
C1254 C1255 1.362 . S
C1255 H1245 0.930 . S
C1255 C1248 1.409 . S
C1255 C1254 1.362 . S
H1256 C1262 0.930 . S
H1257 C1265 0.930 . S
H1258 C1266 0.930 . S
H1259 C1267 0.930 . S
H1260 C1270 0.930 . S
H1261 C1271 0.930 . S
C1262 H1256 0.930 . S
C1262 C1263 1.355 . S
C1262 C1264 1.415 . S
C1263 C1262 1.355 . S
C1263 C1265 1.419 . S
C1264 C1262 1.415 . S
C1264 C1269 1.425 . S
C1264 C1271 1.409 . S
C1265 H1257 0.930 . S
C1265 C1263 1.419 . S
C1265 C1266 1.362 . S
C1266 H1258 0.930 . S
C1266 C1265 1.362 . S
C1266 C1269 1.409 . S
C1267 H1259 0.930 . S
C1267 C1268 1.355 . S
C1267 C1269 1.415 . S
C1268 C1267 1.355 . S
C1268 C1270 1.419 . S
C1269 C1264 1.425 . S
C1269 C1266 1.409 . S
C1269 C1267 1.415 . S
C1270 H1260 0.930 . S
C1270 C1268 1.419 . S
C1270 C1271 1.362 . S
C1271 H1261 0.930 . S
C1271 C1264 1.409 . S
C1271 C1270 1.362 . S
H1272 C1278 0.930 . S
H1273 C1281 0.930 . S
H1274 C1282 0.930 . S
H1275 C1283 0.930 . S
H1276 C1286 0.930 . S
H1277 C1287 0.930 . S
C1278 H1272 0.930 . S
C1278 C1279 1.355 . S
C1278 C1280 1.415 . S
C1279 C1278 1.355 . S
C1279 C1281 1.419 . S
C1280 C1278 1.415 . S
C1280 C1285 1.425 . S
C1280 C1287 1.409 . S
C1281 H1273 0.930 . S
C1281 C1279 1.419 . S
C1281 C1282 1.362 . S
C1282 H1274 0.930 . S
C1282 C1281 1.362 . S
C1282 C1285 1.409 . S
C1283 H1275 0.930 . S
C1283 C1284 1.355 . S
C1283 C1285 1.415 . S
C1284 C1283 1.355 . S
C1284 C1286 1.419 . S
C1285 C1280 1.425 . S
C1285 C1282 1.409 . S
C1285 C1283 1.415 . S
C1286 H1276 0.930 . S
C1286 C1284 1.419 . S
C1286 C1287 1.362 . S
C1287 H1277 0.930 . S
C1287 C1280 1.409 . S
C1287 C1286 1.362 . S
H1288 C1294 0.930 . S
H1289 C1297 0.930 . S
H1290 C1298 0.930 . S
H1291 C1299 0.930 . S
H1292 C1302 0.930 . S
H1293 C1303 0.930 . S
C1294 H1288 0.930 . S
C1294 C1295 1.355 . S
C1294 C1296 1.415 . S
C1295 C1294 1.355 . S
C1295 C1297 1.419 . S
C1296 C1294 1.415 . S
C1296 C1301 1.425 . S
C1296 C1303 1.409 . S
C1297 H1289 0.930 . S
C1297 C1295 1.419 . S
C1297 C1298 1.362 . S
C1298 H1290 0.930 . S
C1298 C1297 1.362 . S
C1298 C1301 1.409 . S
C1299 H1291 0.930 . S
C1299 C1300 1.355 . S
C1299 C1301 1.415 . S
C1300 C1299 1.355 . S
C1300 C1302 1.419 . S
C1301 C1296 1.425 . S
C1301 C1298 1.409 . S
C1301 C1299 1.415 . S
C1302 H1292 0.930 . S
C1302 C1300 1.419 . S
C1302 C1303 1.362 . S
C1303 H1293 0.930 . S
C1303 C1296 1.409 . S
C1303 C1302 1.362 . S
H1304 C1310 0.930 . S
H1305 C1313 0.930 . S
H1306 C1314 0.930 . S
H1307 C1315 0.930 . S
H1308 C1318 0.930 . S
H1309 C1319 0.930 . S
C1310 H1304 0.930 . S
C1310 C1311 1.355 . S
C1310 C1312 1.415 . S
C1311 C1310 1.355 . S
C1311 C1313 1.419 . S
C1312 C1310 1.415 . S
C1312 C1317 1.425 . S
C1312 C1319 1.409 . S
C1313 H1305 0.930 . S
C1313 C1311 1.419 . S
C1313 C1314 1.362 . S
C1314 H1306 0.930 . S
C1314 C1313 1.362 . S
C1314 C1317 1.409 . S
C1315 H1307 0.930 . S
C1315 C1316 1.355 . S
C1315 C1317 1.415 . S
C1316 C1315 1.355 . S
C1316 C1318 1.419 . S
C1317 C1312 1.425 . S
C1317 C1314 1.409 . S
C1317 C1315 1.415 . S
C1318 H1308 0.930 . S
C1318 C1316 1.419 . S
C1318 C1319 1.362 . S
C1319 H1309 0.930 . S
C1319 C1312 1.409 . S
C1319 C1318 1.362 . S
H1320 C1326 0.930 . S
H1321 C1329 0.930 . S
H1322 C1330 0.930 . S
H1323 C1331 0.930 . S
H1324 C1334 0.930 . S
H1325 C1335 0.930 . S
C1326 H1320 0.930 . S
C1326 C1327 1.355 . S
C1326 C1328 1.415 . S
C1327 C1326 1.355 . S
C1327 C1329 1.419 . S
C1328 C1326 1.415 . S
C1328 C1333 1.425 . S
C1328 C1335 1.409 . S
C1329 H1321 0.930 . S
C1329 C1327 1.419 . S
C1329 C1330 1.362 . S
C1330 H1322 0.930 . S
C1330 C1329 1.362 . S
C1330 C1333 1.409 . S
C1331 H1323 0.930 . S
C1331 C1332 1.355 . S
C1331 C1333 1.415 . S
C1332 C1331 1.355 . S
C1332 C1334 1.419 . S
C1333 C1328 1.425 . S
C1333 C1330 1.409 . S
C1333 C1331 1.415 . S
C1334 H1324 0.930 . S
C1334 C1332 1.419 . S
C1334 C1335 1.362 . S
C1335 H1325 0.930 . S
C1335 C1328 1.409 . S
C1335 C1334 1.362 . S
H1336 C1342 0.930 . S
H1337 C1345 0.930 . S
H1338 C1346 0.930 . S
H1339 C1347 0.930 . S
H1340 C1350 0.930 . S
H1341 C1351 0.930 . S
C1342 H1336 0.930 . S
C1342 C1343 1.355 . S
C1342 C1344 1.415 . S
C1343 C1342 1.355 . S
C1343 C1345 1.419 . S
C1344 C1342 1.415 . S
C1344 C1349 1.425 . S
C1344 C1351 1.409 . S
C1345 H1337 0.930 . S
C1345 C1343 1.419 . S
C1345 C1346 1.362 . S
C1346 H1338 0.930 . S
C1346 C1345 1.362 . S
C1346 C1349 1.409 . S
C1347 H1339 0.930 . S
C1347 C1348 1.355 . S
C1347 C1349 1.415 . S
C1348 C1347 1.355 . S
C1348 C1350 1.419 . S
C1349 C1344 1.425 . S
C1349 C1346 1.409 . S
C1349 C1347 1.415 . S
C1350 H1340 0.930 . S
C1350 C1348 1.419 . S
C1350 C1351 1.362 . S
C1351 H1341 0.930 . S
C1351 C1344 1.409 . S
C1351 C1350 1.362 . S
H1352 C1358 0.930 . S
H1353 C1361 0.930 . S
H1354 C1362 0.930 . S
H1355 C1363 0.930 . S
H1356 C1366 0.930 . S
H1357 C1367 0.930 . S
C1358 H1352 0.930 . S
C1358 C1359 1.355 . S
C1358 C1360 1.415 . S
C1359 C1358 1.355 . S
C1359 C1361 1.419 . S
C1360 C1358 1.415 . S
C1360 C1365 1.425 . S
C1360 C1367 1.409 . S
C1361 H1353 0.930 . S
C1361 C1359 1.419 . S
C1361 C1362 1.362 . S
C1362 H1354 0.930 . S
C1362 C1361 1.362 . S
C1362 C1365 1.409 . S
C1363 H1355 0.930 . S
C1363 C1364 1.355 . S
C1363 C1365 1.415 . S
C1364 C1363 1.355 . S
C1364 C1366 1.419 . S
C1365 C1360 1.425 . S
C1365 C1362 1.409 . S
C1365 C1363 1.415 . S
C1366 H1356 0.930 . S
C1366 C1364 1.419 . S
C1366 C1367 1.362 . S
C1367 H1357 0.930 . S
C1367 C1360 1.409 . S
C1367 C1366 1.362 . S
H1368 C1374 0.930 . S
H1369 C1377 0.930 1_554 S
H1370 C1378 0.930 . S
H1371 C1379 0.930 . S
H1372 C1382 0.930 . S
H1373 C1383 0.930 . S
C1374 H1368 0.930 . S
C1374 C1375 1.355 1_556 S
C1374 C1376 1.415 . S
C1375 C1374 1.355 1_554 S
C1375 C1377 1.419 1_554 S
C1376 C1374 1.415 . S
C1376 C1381 1.425 . S
C1376 C1383 1.409 . S
C1377 H1369 0.930 1_556 S
C1377 C1375 1.419 1_556 S
C1377 C1378 1.362 . S
C1378 H1370 0.930 . S
C1378 C1377 1.362 . S
C1378 C1381 1.409 . S
C1379 H1371 0.930 . S
C1379 C1380 1.355 . S
C1379 C1381 1.415 . S
C1380 C1379 1.355 . S
C1380 C1382 1.419 . S
C1381 C1376 1.425 . S
C1381 C1378 1.409 . S
C1381 C1379 1.415 . S
C1382 H1372 0.930 . S
C1382 C1380 1.419 . S
C1382 C1383 1.362 . S
C1383 H1373 0.930 . S
C1383 C1376 1.409 . S
C1383 C1382 1.362 . S
H1384 C1390 0.930 . S
H1385 C1393 0.930 . S
H1386 C1394 0.930 . S
H1387 C1395 0.930 . S
H1388 C1398 0.930 . S
H1389 C1399 0.930 . S
C1390 H1384 0.930 . S
C1390 C1391 1.355 1_556 S
C1390 C1392 1.415 . S
C1391 C1390 1.355 1_554 S
C1391 C1393 1.419 . S
C1392 C1390 1.415 . S
C1392 C1397 1.425 . S
C1392 C1399 1.409 . S
C1393 H1385 0.930 . S
C1393 C1391 1.419 . S
C1393 C1394 1.362 1_554 S
C1394 H1386 0.930 . S
C1394 C1393 1.362 1_556 S
C1394 C1397 1.409 . S
C1395 H1387 0.930 . S
C1395 C1396 1.355 . S
C1395 C1397 1.415 . S
C1396 C1395 1.355 . S
C1396 C1398 1.419 . S
C1397 C1392 1.425 . S
C1397 C1394 1.409 . S
C1397 C1395 1.415 . S
C1398 H1388 0.930 . S
C1398 C1396 1.419 . S
C1398 C1399 1.362 . S
C1399 H1389 0.930 . S
C1399 C1392 1.409 . S
C1399 C1398 1.362 . S
H1400 C1406 0.930 1_554 S
H1401 C1409 0.930 . S
H1402 C1410 0.930 . S
H1403 C1411 0.930 . S
H1404 C1414 0.930 . S
H1405 C1415 0.930 . S
C1406 H1400 0.930 1_556 S
C1406 C1407 1.355 1_556 S
C1406 C1408 1.415 . S
C1407 C1406 1.355 1_554 S
C1407 C1409 1.419 1_554 S
C1408 C1406 1.415 . S
C1408 C1413 1.425 . S
C1408 C1415 1.409 . S
C1409 H1401 0.930 . S
C1409 C1407 1.419 1_556 S
C1409 C1410 1.362 . S
C1410 H1402 0.930 . S
C1410 C1409 1.362 . S
C1410 C1413 1.409 . S
C1411 H1403 0.930 . S
C1411 C1412 1.355 . S
C1411 C1413 1.415 . S
C1412 C1411 1.355 . S
C1412 C1414 1.419 . S
C1413 C1408 1.425 . S
C1413 C1410 1.409 . S
C1413 C1411 1.415 . S
C1414 H1404 0.930 . S
C1414 C1412 1.419 . S
C1414 C1415 1.362 . S
C1415 H1405 0.930 . S
C1415 C1408 1.409 . S
C1415 C1414 1.362 . S
H1416 C1422 0.930 . S
H1417 C1425 0.930 . S
H1418 C1426 0.930 . S
H1419 C1427 0.930 . S
H1420 C1430 0.930 . S
H1421 C1431 0.930 . S
C1422 H1416 0.930 . S
C1422 C1423 1.355 . S
C1422 C1424 1.415 . S
C1423 C1422 1.355 . S
C1423 C1425 1.419 . S
C1424 C1422 1.415 . S
C1424 C1429 1.425 . S
C1424 C1431 1.409 . S
C1425 H1417 0.930 . S
C1425 C1423 1.419 . S
C1425 C1426 1.362 . S
C1426 H1418 0.930 . S
C1426 C1425 1.362 . S
C1426 C1429 1.409 . S
C1427 H1419 0.930 . S
C1427 C1428 1.355 . S
C1427 C1429 1.415 . S
C1428 C1427 1.355 . S
C1428 C1430 1.419 . S
C1429 C1424 1.425 . S
C1429 C1426 1.409 . S
C1429 C1427 1.415 . S
C1430 H1420 0.930 . S
C1430 C1428 1.419 . S
C1430 C1431 1.362 . S
C1431 H1421 0.930 . S
C1431 C1424 1.409 . S
C1431 C1430 1.362 . S
H1432 C1438 0.930 . S
H1433 C1441 0.930 . S
H1434 C1442 0.930 . S
H1435 C1443 0.930 . S
H1436 C1446 0.930 . S
H1437 C1447 0.930 . S
C1438 H1432 0.930 . S
C1438 C1439 1.355 . S
C1438 C1440 1.415 . S
C1439 C1438 1.355 . S
C1439 C1441 1.419 . S
C1440 C1438 1.415 . S
C1440 C1445 1.425 . S
C1440 C1447 1.409 . S
C1441 H1433 0.930 . S
C1441 C1439 1.419 . S
C1441 C1442 1.362 . S
C1442 H1434 0.930 . S
C1442 C1441 1.362 . S
C1442 C1445 1.409 . S
C1443 H1435 0.930 . S
C1443 C1444 1.355 . S
C1443 C1445 1.415 . S
C1444 C1443 1.355 . S
C1444 C1446 1.419 . S
C1445 C1440 1.425 . S
C1445 C1442 1.409 . S
C1445 C1443 1.415 . S
C1446 H1436 0.930 . S
C1446 C1444 1.419 . S
C1446 C1447 1.362 . S
C1447 H1437 0.930 . S
C1447 C1440 1.409 . S
C1447 C1446 1.362 . S
H1448 C1454 0.930 . S
H1449 C1457 0.930 . S
H1450 C1458 0.930 . S
H1451 C1459 0.930 . S
H1452 C1462 0.930 . S
H1453 C1463 0.930 . S
C1454 H1448 0.930 . S
C1454 C1455 1.355 . S
C1454 C1456 1.415 . S
C1455 C1454 1.355 . S
C1455 C1457 1.419 . S
C1456 C1454 1.415 . S
C1456 C1461 1.425 . S
C1456 C1463 1.409 . S
C1457 H1449 0.930 . S
C1457 C1455 1.419 . S
C1457 C1458 1.362 . S
C1458 H1450 0.930 . S
C1458 C1457 1.362 . S
C1458 C1461 1.409 . S
C1459 H1451 0.930 . S
C1459 C1460 1.355 . S
C1459 C1461 1.415 . S
C1460 C1459 1.355 . S
C1460 C1462 1.419 . S
C1461 C1456 1.425 . S
C1461 C1458 1.409 . S
C1461 C1459 1.415 . S
C1462 H1452 0.930 . S
C1462 C1460 1.419 . S
C1462 C1463 1.362 . S
C1463 H1453 0.930 . S
C1463 C1456 1.409 . S
C1463 C1462 1.362 . S
H1464 C1470 0.930 . S
H1465 C1473 0.930 . S
H1466 C1474 0.930 . S
H1467 C1475 0.930 . S
H1468 C1478 0.930 . S
H1469 C1479 0.930 . S
C1470 H1464 0.930 . S
C1470 C1471 1.355 . S
C1470 C1472 1.415 . S
C1471 C1470 1.355 . S
C1471 C1473 1.419 . S
C1472 C1470 1.415 . S
C1472 C1477 1.425 . S
C1472 C1479 1.409 . S
C1473 H1465 0.930 . S
C1473 C1471 1.419 . S
C1473 C1474 1.362 . S
C1474 H1466 0.930 . S
C1474 C1473 1.362 . S
C1474 C1477 1.409 . S
C1475 H1467 0.930 . S
C1475 C1476 1.355 1_554 S
C1475 C1477 1.415 . S
C1476 C1475 1.355 1_556 S
C1476 C1478 1.419 . S
C1477 C1472 1.425 . S
C1477 C1474 1.409 . S
C1477 C1475 1.415 . S
C1478 H1468 0.930 . S
C1478 C1476 1.419 . S
C1478 C1479 1.362 1_556 S
C1479 H1469 0.930 . S
C1479 C1472 1.409 . S
C1479 C1478 1.362 1_554 S
H1480 C1486 0.930 . S
H1481 C1489 0.930 . S
H1482 C1490 0.930 . S
H1483 C1491 0.930 . S
H1484 C1494 0.930 1_556 S
H1485 C1495 0.930 . S
C1486 H1480 0.930 . S
C1486 C1487 1.355 . S
C1486 C1488 1.415 . S
C1487 C1486 1.355 . S
C1487 C1489 1.419 . S
C1488 C1486 1.415 . S
C1488 C1493 1.425 . S
C1488 C1495 1.409 . S
C1489 H1481 0.930 . S
C1489 C1487 1.419 . S
C1489 C1490 1.362 . S
C1490 H1482 0.930 . S
C1490 C1489 1.362 . S
C1490 C1493 1.409 . S
C1491 H1483 0.930 . S
C1491 C1492 1.355 1_554 S
C1491 C1493 1.415 . S
C1492 C1491 1.355 1_556 S
C1492 C1494 1.419 1_556 S
C1493 C1488 1.425 . S
C1493 C1490 1.409 . S
C1493 C1491 1.415 . S
C1494 H1484 0.930 1_554 S
C1494 C1492 1.419 1_554 S
C1494 C1495 1.362 . S
C1495 H1485 0.930 . S
C1495 C1488 1.409 . S
C1495 C1494 1.362 . S
H1496 C1502 0.930 . S
H1497 C1505 0.930 . S
H1498 C1506 0.930 . S
H1499 C1507 0.930 . S
H1500 C1510 0.930 1_556 S
H1501 C1511 0.930 . S
C1502 H1496 0.930 . S
C1502 C1503 1.355 . S
C1502 C1504 1.415 . S
C1503 C1502 1.355 . S
C1503 C1505 1.419 . S
C1504 C1502 1.415 . S
C1504 C1509 1.425 . S
C1504 C1511 1.409 . S
C1505 H1497 0.930 . S
C1505 C1503 1.419 . S
C1505 C1506 1.362 . S
C1506 H1498 0.930 . S
C1506 C1505 1.362 . S
C1506 C1509 1.409 . S
C1507 H1499 0.930 . S
C1507 C1508 1.355 1_554 S
C1507 C1509 1.415 . S
C1508 C1507 1.355 1_556 S
C1508 C1510 1.419 1_556 S
C1509 C1504 1.425 . S
C1509 C1506 1.409 . S
C1509 C1507 1.415 . S
C1510 H1500 0.930 1_554 S
C1510 C1508 1.419 1_554 S
C1510 C1511 1.362 . S
C1511 H1501 0.930 . S
C1511 C1504 1.409 . S
C1511 C1510 1.362 . S
H1512 C1518 0.930 . S
H1513 C1521 0.930 . S
H1514 C1522 0.930 . S
H1515 C1523 0.930 . S
H1516 C1526 0.930 . S
H1517 C1527 0.930 . S
C1518 H1512 0.930 . S
C1518 C1519 1.355 . S
C1518 C1520 1.415 . S
C1519 C1518 1.355 . S
C1519 C1521 1.419 . S
C1520 C1518 1.415 . S
C1520 C1525 1.425 . S
C1520 C1527 1.409 . S
C1521 H1513 0.930 . S
C1521 C1519 1.419 . S
C1521 C1522 1.362 . S
C1522 H1514 0.930 . S
C1522 C1521 1.362 . S
C1522 C1525 1.409 . S
C1523 H1515 0.930 . S
C1523 C1524 1.355 . S
C1523 C1525 1.415 . S
C1524 C1523 1.355 . S
C1524 C1526 1.419 . S
C1525 C1520 1.425 . S
C1525 C1522 1.409 . S
C1525 C1523 1.415 . S
C1526 H1516 0.930 . S
C1526 C1524 1.419 . S
C1526 C1527 1.362 . S
C1527 H1517 0.930 . S
C1527 C1520 1.409 . S
C1527 C1526 1.362 . S
H1528 C1534 0.930 . S
H1529 C1537 0.930 . S
H1530 C1538 0.930 . S
H1531 C1539 0.930 . S
H1532 C1542 0.930 . S
H1533 C1543 0.930 . S
C1534 H1528 0.930 . S
C1534 C1535 1.355 . S
C1534 C1536 1.415 . S
C1535 C1534 1.355 . S
C1535 C1537 1.419 . S
C1536 C1534 1.415 . S
C1536 C1541 1.425 . S
C1536 C1543 1.409 . S
C1537 H1529 0.930 . S
C1537 C1535 1.419 . S
C1537 C1538 1.362 . S
C1538 H1530 0.930 . S
C1538 C1537 1.362 . S
C1538 C1541 1.409 . S
C1539 H1531 0.930 . S
C1539 C1540 1.355 . S
C1539 C1541 1.415 . S
C1540 C1539 1.355 . S
C1540 C1542 1.419 . S
C1541 C1536 1.425 . S
C1541 C1538 1.409 . S
C1541 C1539 1.415 . S
C1542 H1532 0.930 . S
C1542 C1540 1.419 . S
C1542 C1543 1.362 . S
C1543 H1533 0.930 . S
C1543 C1536 1.409 . S
C1543 C1542 1.362 . S
H1544 C1550 0.930 . S
H1545 C1553 0.930 . S
H1546 C1554 0.930 . S
H1547 C1555 0.930 . S
H1548 C1558 0.930 . S
H1549 C1559 0.930 . S
C1550 H1544 0.930 . S
C1550 C1551 1.355 . S
C1550 C1552 1.415 . S
C1551 C1550 1.355 . S
C1551 C1553 1.419 . S
C1552 C1550 1.415 . S
C1552 C1557 1.425 . S
C1552 C1559 1.409 . S
C1553 H1545 0.930 . S
C1553 C1551 1.419 . S
C1553 C1554 1.362 . S
C1554 H1546 0.930 . S
C1554 C1553 1.362 . S
C1554 C1557 1.409 . S
C1555 H1547 0.930 . S
C1555 C1556 1.355 . S
C1555 C1557 1.415 . S
C1556 C1555 1.355 . S
C1556 C1558 1.419 . S
C1557 C1552 1.425 . S
C1557 C1554 1.409 . S
C1557 C1555 1.415 . S
C1558 H1548 0.930 . S
C1558 C1556 1.419 . S
C1558 C1559 1.362 . S
C1559 H1549 0.930 . S
C1559 C1552 1.409 . S
C1559 C1558 1.362 . S
H1560 C1566 0.930 . S
H1561 C1569 0.932 . S
H1562 C1570 0.930 . S
H1563 C1571 0.930 . S
H1564 C1574 0.930 . S
H1565 C1575 0.930 . S
C1566 H1560 0.930 . S
C1566 C1567 1.355 . S
C1566 C1568 1.415 . S
C1567 C1566 1.355 . S
C1567 C1569 1.419 . S
C1568 C1566 1.415 . S
C1568 C1573 1.425 . S
C1568 C1575 1.409 . S
C1569 H1561 0.932 . S
C1569 C1567 1.419 . S
C1569 C1570 1.362 . S
C1570 H1562 0.930 . S
C1570 C1569 1.362 . S
C1570 C1573 1.409 . S
C1571 H1563 0.930 . S
C1571 C1572 1.355 . S
C1571 C1573 1.415 . S
C1572 C1571 1.355 . S
C1572 C1574 1.419 . S
C1573 C1568 1.425 . S
C1573 C1570 1.409 . S
C1573 C1571 1.415 . S
C1574 H1564 0.930 . S
C1574 C1572 1.419 . S
C1574 C1575 1.362 . S
C1575 H1565 0.930 . S
C1575 C1568 1.409 . S
C1575 C1574 1.362 . S
H1576 C1582 0.930 . S
H1577 C1585 0.930 . S
H1578 C1586 0.930 . S
H1579 C1587 0.930 . S
H1580 C1590 0.930 . S
H1581 C1591 0.930 . S
C1582 H1576 0.930 . S
C1582 C1583 1.355 . S
C1582 C1584 1.415 . S
C1583 C1582 1.355 . S
C1583 C1585 1.419 . S
C1584 C1582 1.415 . S
C1584 C1589 1.425 . S
C1584 C1591 1.409 . S
C1585 H1577 0.930 . S
C1585 C1583 1.419 . S
C1585 C1586 1.362 . S
C1586 H1578 0.930 . S
C1586 C1585 1.362 . S
C1586 C1589 1.409 . S
C1587 H1579 0.930 . S
C1587 C1588 1.355 . S
C1587 C1589 1.415 . S
C1588 C1587 1.355 . S
C1588 C1590 1.419 . S
C1589 C1584 1.425 . S
C1589 C1586 1.409 . S
C1589 C1587 1.415 . S
C1590 H1580 0.930 . S
C1590 C1588 1.419 . S
C1590 C1591 1.362 . S
C1591 H1581 0.930 . S
C1591 C1584 1.409 . S
C1591 C1590 1.362 . S
H1592 C1598 0.930 . S
H1593 C1601 0.930 . S
H1594 C1602 0.930 . S
H1595 C1603 0.930 . S
H1596 C1606 0.930 . S
H1597 C1607 0.930 . S
C1598 H1592 0.930 . S
C1598 C1599 1.355 . S
C1598 C1600 1.415 . S
C1599 C1598 1.355 . S
C1599 C1601 1.419 . S
C1600 C1598 1.415 . S
C1600 C1605 1.425 . S
C1600 C1607 1.409 . S
C1601 H1593 0.930 . S
C1601 C1599 1.419 . S
C1601 C1602 1.362 . S
C1602 H1594 0.930 . S
C1602 C1601 1.362 . S
C1602 C1605 1.409 . S
C1603 H1595 0.930 . S
C1603 C1604 1.355 . S
C1603 C1605 1.415 . S
C1604 C1603 1.355 . S
C1604 C1606 1.419 . S
C1605 C1600 1.425 . S
C1605 C1602 1.409 . S
C1605 C1603 1.415 . S
C1606 H1596 0.930 . S
C1606 C1604 1.419 . S
C1606 C1607 1.362 . S
C1607 H1597 0.930 . S
C1607 C1600 1.409 . S
C1607 C1606 1.362 . S
H1608 C1614 0.930 . S
H1609 C1617 0.930 . S
H1610 C1618 0.930 . S
H1611 C1619 0.930 . S
H1612 C1622 0.930 1_545 S
H1613 C1623 0.930 1_545 S
C1614 H1608 0.930 . S
C1614 C1615 1.355 . S
C1614 C1616 1.415 . S
C1615 C1614 1.355 . S
C1615 C1617 1.419 . S
C1616 C1614 1.415 . S
C1616 C1621 1.425 . S
C1616 C1623 1.409 . S
C1617 H1609 0.930 . S
C1617 C1615 1.419 . S
C1617 C1618 1.362 . S
C1618 H1610 0.930 . S
C1618 C1617 1.362 . S
C1618 C1621 1.409 . S
C1619 H1611 0.930 . S
C1619 C1620 1.355 . S
C1619 C1621 1.415 . S
C1620 C1619 1.355 . S
C1620 C1622 1.419 . S
C1621 C1616 1.425 . S
C1621 C1618 1.409 . S
C1621 C1619 1.415 . S
C1622 H1612 0.930 1_565 S
C1622 C1620 1.419 . S
C1622 C1623 1.362 . S
C1623 H1613 0.930 1_565 S
C1623 C1616 1.409 . S
C1623 C1622 1.362 . S
H1624 C1630 0.930 1_655 S
H1625 C1633 0.930 . S
H1626 C1634 0.930 . S
H1627 C1635 0.930 . S
H1628 C1638 0.930 . S
H1629 C1639 0.930 1_655 S
C1630 H1624 0.930 1_455 S
C1630 C1631 1.355 . S
C1630 C1632 1.415 . S
C1631 C1630 1.355 . S
C1631 C1633 1.419 . S
C1632 C1630 1.415 . S
C1632 C1637 1.425 . S
C1632 C1639 1.409 . S
C1633 H1625 0.930 . S
C1633 C1631 1.419 . S
C1633 C1634 1.362 . S
C1634 H1626 0.930 . S
C1634 C1633 1.362 . S
C1634 C1637 1.409 . S
C1635 H1627 0.930 . S
C1635 C1636 1.355 . S
C1635 C1637 1.415 . S
C1636 C1635 1.355 . S
C1636 C1638 1.419 . S
C1637 C1632 1.425 . S
C1637 C1634 1.409 . S
C1637 C1635 1.415 . S
C1638 H1628 0.930 . S
C1638 C1636 1.419 . S
C1638 C1639 1.362 . S
C1639 H1629 0.930 1_455 S
C1639 C1632 1.409 . S
C1639 C1638 1.362 . S
H1640 C1646 0.930 . S
H1641 C1649 0.930 . S
H1642 C1650 0.930 . S
H1643 C1651 0.930 . S
H1644 C1654 0.930 . S
H1645 C1655 0.930 . S
C1646 H1640 0.930 . S
C1646 C1647 1.355 . S
C1646 C1648 1.415 . S
C1647 C1646 1.355 . S
C1647 C1649 1.419 . S
C1648 C1646 1.415 . S
C1648 C1653 1.425 . S
C1648 C1655 1.409 . S
C1649 H1641 0.930 . S
C1649 C1647 1.419 . S
C1649 C1650 1.362 . S
C1650 H1642 0.930 . S
C1650 C1649 1.362 . S
C1650 C1653 1.409 . S
C1651 H1643 0.930 . S
C1651 C1652 1.355 . S
C1651 C1653 1.415 . S
C1652 C1651 1.355 . S
C1652 C1654 1.419 . S
C1653 C1648 1.425 . S
C1653 C1650 1.409 . S
C1653 C1651 1.415 . S
C1654 H1644 0.930 . S
C1654 C1652 1.419 . S
C1654 C1655 1.362 . S
C1655 H1645 0.930 . S
C1655 C1648 1.409 . S
C1655 C1654 1.362 . S
C511 C230 1.266 . S
C516 C6 1.285 . S
C527 C244 1.263 . S
C532 C20 1.256 . S
C543 C216 1.301 . S
C548 C34 1.271 . S
C559 C370 1.256 . S
C564 C48 1.280 . S
C575 C62 1.235 . S
C580 C342 1.231 . S
C591 C76 1.243 . S
C596 C356 1.265 . S
C607 C90 1.259 . S
C612 C482 1.279 . S
C623 C496 1.290 . S
C628 C104 1.307 . S
C639 C468 1.254 . S
C644 C118 1.260 . S
C655 C132 1.276 . S
C660 C286 1.254 . S
C671 C258 1.239 . S
C676 C146 1.264 . S
C687 C160 1.250 . S
C692 C272 1.275 . S
C703 C398 1.200 . S
C708 C174 1.166 . S
C719 C188 1.193 . S
C724 C412 1.170 . S
C735 C384 1.220 . S
C740 C202 1.214 . S
C751 C454 1.207 . S
C756 C300 1.175 . S
C767 C426 1.176 . S
C772 C314 1.194 . S
C783 C328 1.177 . S
C788 C440 1.171 . S
C799 C260 1.502 . S
C804 C8 1.357 . S
C815 C274 1.487 . S
C820 C22 1.309 . S
C831 C288 1.526 . S
C836 C36 1.391 . S
C847 C50 1.459 . S
C852 C470 1.273 . S
C863 C64 1.545 . S
C868 C484 1.408 . S
C879 C78 1.516 . S
C884 C498 1.371 . S
C895 C92 1.486 . S
C900 C344 1.295 . S
C911 C358 1.282 . S
C916 C106 1.469 . S
C927 C372 1.277 . S
C932 C120 1.472 . S
C943 C218 1.516 . S
C948 C134 1.360 . S
C959 C148 1.355 . S
C964 C232 1.513 . S
C975 C162 1.276 . S
C980 C246 1.472 . S
C991 C176 1.329 . S
C996 C428 1.507 . S
C1007 C442 1.545 . S
C1012 C190 1.407 . S
C1023 C456 1.476 . S
C1028 C204 1.285 . S
C1039 C386 1.557 1_554 S
C1044 C302 1.411 1_556 S
C1055 C316 1.318 . S
C1060 C400 1.499 . S
C1071 C330 1.426 1_556 S
C1076 C414 1.570 1_554 S
C1087 C385 1.618 . S
C1092 C7 1.638 . S
C1103 C21 1.612 . S
C1108 C399 1.581 . S
C1119 C35 1.647 . S
C1124 C413 1.622 . S
C1135 C175 1.659 . S
C1140 C49 1.641 . S
C1151 C63 1.637 . S
C1156 C189 1.657 . S
C1167 C77 1.586 . S
C1172 C203 1.615 . S
C1183 C301 1.640 . S
C1188 C91 1.621 . S
C1199 C105 1.673 . S
C1204 C315 1.686 . S
C1215 C329 1.634 . S
C1220 C119 1.608 . S
C1231 C133 1.676 . S
C1236 C427 1.660 . S
C1247 C441 1.595 . S
C1252 C147 1.626 . S
C1263 C455 1.658 . S
C1268 C161 1.677 . S
C1279 C343 1.629 . S
C1284 C217 1.598 . S
C1295 C357 1.620 . S
C1300 C231 1.589 . S
C1311 C371 1.650 . S
C1316 C245 1.633 . S
C1327 C259 1.602 . S
C1332 C469 1.625 . S
C1343 C483 1.648 . S
C1348 C273 1.631 . S
C1359 C497 1.627 . S
C1364 C287 1.604 . S
C1375 C9 1.438 . S
C1380 C233 1.441 . S
C1391 C23 1.469 . S
C1396 C247 1.469 . S
C1407 C37 1.402 . S
C1412 C219 1.403 . S
C1423 C373 1.439 . S
C1428 C51 1.443 . S
C1439 C345 1.443 . S
C1444 C65 1.444 . S
C1455 C359 1.433 . S
C1460 C79 1.436 . S
C1471 C485 1.472 . S
C1476 C93 1.472 . S
C1487 C499 1.441 . S
C1492 C107 1.439 . S
C1503 C471 1.455 . S
C1508 C121 1.457 . S
C1519 C135 1.461 . S
C1524 C289 1.463 . S
C1535 C149 1.452 . S
C1540 C261 1.454 . S
C1551 C163 1.441 . S
C1556 C275 1.443 . S
C1567 C401 1.540 . S
C1572 C177 1.545 . S
C1583 C415 1.510 . S
C1588 C191 1.514 . S
C1599 C205 1.543 . S
C1604 C387 1.546 . S
C1615 C303 1.499 . S
C1620 C457 1.504 . S
C1631 C429 1.553 . S
C1636 C317 1.553 . S
C1647 C443 1.534 . S
C1652 C331 1.532 . S
