# Generated by pormake.
# Topology unm, (4)-cn, num edge types: 1
# Building blocks:
#     Node 0, Type 0, BuildingBlock: KUFVIS_clean_sbu_0, # of connection points: 4
#     Node 1, Type 0, BuildingBlock: KUFVIS_clean_sbu_0, # of connection points: 4
#     Node 2, Type 0, BuildingBlock: KUFVIS_clean_sbu_0, # of connection points: 4
#     Node 3, Type 0, BuildingBlock: KUFVIS_clean_sbu_0, # of connection points: 4
#     Node 4, Type 0, BuildingBlock: KUFVIS_clean_sbu_0, # of connection points: 4
#     Node 5, Type 0, BuildingBlock: KUFVIS_clean_sbu_0, # of connection points: 4
#     Node 6, Type 0, BuildingBlock: KUFVIS_clean_sbu_0, # of connection points: 4
#     Node 7, Type 0, BuildingBlock: KUFVIS_clean_sbu_0, # of connection points: 4
#     Edge 8, Type (0, 0), BuildingBlock: ZUJKAS_clean_linker_0, # of connection points: 2
#     Edge 9, Type (0, 0), BuildingBlock: ZUJKAS_clean_linker_0, # of connection points: 2
#     Edge 10, Type (0, 0), BuildingBlock: ZUJKAS_clean_linker_0, # of connection points: 2
#     Edge 11, Type (0, 0), BuildingBlock: ZUJKAS_clean_linker_0, # of connection points: 2
#     Edge 12, Type (0, 0), BuildingBlock: ZUJKAS_clean_linker_0, # of connection points: 2
#     Edge 13, Type (0, 0), BuildingBlock: ZUJKAS_clean_linker_0, # of connection points: 2
#     Edge 14, Type (0, 0), BuildingBlock: ZUJKAS_clean_linker_0, # of connection points: 2
#     Edge 15, Type (0, 0), BuildingBlock: ZUJKAS_clean_linker_0, # of connection points: 2
#     Edge 16, Type (0, 0), BuildingBlock: ZUJKAS_clean_linker_0, # of connection points: 2
#     Edge 17, Type (0, 0), BuildingBlock: ZUJKAS_clean_linker_0, # of connection points: 2
#     Edge 18, Type (0, 0), BuildingBlock: ZUJKAS_clean_linker_0, # of connection points: 2
#     Edge 19, Type (0, 0), BuildingBlock: ZUJKAS_clean_linker_0, # of connection points: 2
#     Edge 20, Type (0, 0), BuildingBlock: ZUJKAS_clean_linker_0, # of connection points: 2
#     Edge 21, Type (0, 0), BuildingBlock: ZUJKAS_clean_linker_0, # of connection points: 2
#     Edge 22, Type (0, 0), BuildingBlock: ZUJKAS_clean_linker_0, # of connection points: 2
#     Edge 23, Type (0, 0), BuildingBlock: ZUJKAS_clean_linker_0, # of connection points: 2
# Relax obj value: 0.144
# Max RMSD: 0.134
# Mean RMSD: 0.134
data_MOF--net-unm--node1-KUFVIS_clean_sbu_0--edge1-ZUJKAS_clean_linker_0
_symmetry_space_group_name_H-M    P1
_symmetry_Int_Tables_number       1
_symmetry_cell_setting            triclinic
loop_
_symmetry_equiv_pos_as_xyz
'x, y, z'
_cell_length_a     32.761906
_cell_length_b     32.752219
_cell_length_c     57.701634
_cell_angle_alpha  89.996433
_cell_angle_beta   89.981692
_cell_angle_gamma 90.044341
loop_
_atom_site_label
_atom_site_type_symbol
_atom_site_fract_x
_atom_site_fract_y
_atom_site_fract_z
_atom_type_partial_charge
Mn0 Mn 0.17903 0.29403 0.17377 0.0
Mn1 Mn 0.23839 0.36607 0.14884 0.0
C2 C 0.14989 0.34824 0.15435 0.0
C3 C 0.14041 0.26989 0.20507 0.0
C4 C 0.22025 0.28483 0.12614 0.0
O5 O 0.23452 0.28355 0.18914 0.0
O6 O 0.27077 0.33194 0.1705 0.0
C7 C 0.2547 0.41412 0.19133 0.0
N8 N 0.24044 0.41209 0.16918 0.0
C9 C 0.22408 0.48368 0.16926 0.0
C10 C 0.23878 0.48659 0.19202 0.0
C11 C 0.25404 0.45161 0.20312 0.0
C12 C 0.22534 0.44546 0.15842 0.0
H13 H 0.26647 0.38734 0.19994 0.0
C14 C 0.26794 0.30237 0.18493 0.0
O15 O 0.15272 0.24548 0.18874 0.0
O16 O 0.15338 0.30723 0.20413 0.0
N17 N 0.2115 0.40186 0.12755 0.0
C18 C 0.1981 0.3938 0.10567 0.0
C19 C 0.18152 0.4255 0.09227 0.0
C20 C 0.17958 0.46525 0.10134 0.0
C21 C 0.1943 0.47296 0.12374 0.0
C22 C 0.21042 0.44014 0.13629 0.0
H23 H 0.1998 0.36336 0.09854 0.0
O24 O 0.12958 0.31487 0.15778 0.0
O25 O 0.1866 0.3496 0.16293 0.0
O26 O 0.19903 0.26987 0.14273 0.0
O27 O 0.2365 0.3203 0.12676 0.0
C28 C 0.19356 0.51189 0.13412 0.0
C29 C 0.20813 0.51719 0.15692 0.0
H30 H 0.23839 0.51548 0.20115 0.0
H31 H 0.26532 0.45357 0.22071 0.0
H32 H 0.17036 0.41934 0.07497 0.0
H33 H 0.16679 0.48961 0.09094 0.0
H34 H 0.18167 0.53796 0.12477 0.0
H35 H 0.20696 0.54719 0.1648 0.0
Mn36 Mn 0.21242 0.6797 0.67163 0.0
Mn37 Mn 0.14128 0.73907 0.646 0.0
C38 C 0.15866 0.65054 0.65181 0.0
C39 C 0.23568 0.6412 0.70316 0.0
C40 C 0.22299 0.72059 0.624 0.0
O41 O 0.22266 0.73527 0.68699 0.0
O42 O 0.17499 0.77155 0.66785 0.0
C43 C 0.09232 0.75582 0.68809 0.0
N44 N 0.09482 0.74135 0.666 0.0
C45 C 0.02325 0.72484 0.66566 0.0
C46 C 0.01987 0.73977 0.68836 0.0
C47 C 0.05459 0.75521 0.69964 0.0
C48 C 0.06168 0.72608 0.65507 0.0
H49 H 0.11891 0.76772 0.69684 0.0
C50 C 0.20412 0.76873 0.68255 0.0
O51 O 0.2605 0.65344 0.68701 0.0
O52 O 0.1984 0.65419 0.70192 0.0
N53 N 0.1059 0.71207 0.62451 0.0
C54 C 0.11439 0.69851 0.60271 0.0
C55 C 0.08298 0.6817 0.58917 0.0
C56 C 0.04308 0.67971 0.59801 0.0
C57 C 0.03492 0.69464 0.62031 0.0
C58 C 0.06746 0.71097 0.63301 0.0
H59 H 0.14496 0.70022 0.59576 0.0
O60 O 0.19186 0.63018 0.65555 0.0
O61 O 0.1572 0.68732 0.66032 0.0
O62 O 0.2374 0.69948 0.64076 0.0
O63 O 0.18758 0.73694 0.62425 0.0
C64 C 0.99579 0.69389 0.63045 0.0
C65 C 0.99002 0.70868 0.65317 0.0
H66 H 0.9908 0.7394 0.69731 0.0
H67 H 0.05227 0.76667 0.71718 0.0
H68 H 0.0895 0.6704 0.57194 0.0
H69 H 0.01895 0.66671 0.58751 0.0
H70 H 0.96992 0.68184 0.62097 0.0
H71 H 0.95987 0.70752 0.66086 0.0
Mn72 Mn 0.82826 0.7101 0.1723 0.0
Mn73 Mn 0.77122 0.63631 0.14733 0.0
C74 C 0.85919 0.65648 0.15311 0.0
C75 C 0.86575 0.73509 0.2038 0.0
C76 C 0.78694 0.71838 0.12479 0.0
O77 O 0.77206 0.71947 0.1872 0.0
O78 O 0.73805 0.66857 0.16949 0.0
C79 C 0.75697 0.58651 0.1894 0.0
N80 N 0.77088 0.58966 0.16723 0.0
C81 C 0.78874 0.51844 0.16636 0.0
C82 C 0.77441 0.51437 0.18915 0.0
C83 C 0.7586 0.5486 0.20074 0.0
C84 C 0.78654 0.55703 0.156 0.0
H85 H 0.74472 0.6127 0.19838 0.0
C86 C 0.73957 0.69865 0.18364 0.0
O87 O 0.8532 0.75924 0.1874 0.0
O88 O 0.8535 0.69752 0.20283 0.0
N89 N 0.79918 0.60211 0.12564 0.0
C90 C 0.8126 0.61138 0.10391 0.0
C91 C 0.82992 0.5806 0.09012 0.0
C92 C 0.83257 0.54052 0.09864 0.0
C93 C 0.81794 0.53158 0.12091 0.0
C94 C 0.80116 0.56353 0.1339 0.0
H95 H 0.8103 0.64206 0.09719 0.0
O96 O 0.87859 0.69034 0.15666 0.0
O97 O 0.82237 0.65431 0.16147 0.0
O98 O 0.80839 0.73362 0.14117 0.0
O99 O 0.77114 0.68271 0.12556 0.0
C100 C 0.81943 0.49224 0.13077 0.0
C101 C 0.80518 0.48575 0.15354 0.0
H102 H 0.77553 0.48516 0.19793 0.0
H103 H 0.74761 0.54575 0.21836 0.0
H104 H 0.84105 0.58772 0.07293 0.0
H105 H 0.84589 0.51686 0.08793 0.0
H106 H 0.8317 0.46678 0.12104 0.0
H107 H 0.80701 0.45548 0.16103 0.0
Mn108 Mn 0.8018 0.32698 0.67384 0.0
Mn109 Mn 0.87406 0.27023 0.64735 0.0
C110 C 0.85376 0.35813 0.6533 0.0
C111 C 0.7791 0.36474 0.70582 0.0
C112 C 0.79041 0.28524 0.62666 0.0
O113 O 0.79385 0.27087 0.68914 0.0
O114 O 0.84358 0.23702 0.67032 0.0
C115 C 0.92681 0.25671 0.68831 0.0
N116 N 0.92204 0.2704 0.66618 0.0
C117 C 0.993 0.28884 0.66368 0.0
C118 C 0.99873 0.27473 0.68639 0.0
C119 C 0.96544 0.25874 0.69878 0.0
C120 C 0.95376 0.28624 0.65419 0.0
H121 H 0.90135 0.24433 0.6979 0.0
C122 C 0.81457 0.23848 0.68518 0.0
O123 O 0.75373 0.35171 0.69015 0.0
O124 O 0.81659 0.3527 0.70391 0.0
N125 N 0.90656 0.29826 0.62484 0.0
C126 C 0.89571 0.31144 0.6033 0.0
C127 C 0.92539 0.32894 0.5888 0.0
C128 C 0.96599 0.33201 0.59642 0.0
C129 C 0.97655 0.31759 0.6185 0.0
C130 C 0.94564 0.30063 0.63222 0.0
H131 H 0.86462 0.30885 0.59727 0.0
O132 O 0.82008 0.37732 0.65758 0.0
O133 O 0.85676 0.3214 0.66172 0.0
O134 O 0.77616 0.30663 0.64335 0.0
O135 O 0.82619 0.26969 0.62666 0.0
C136 C 0.01652 0.31947 0.62746 0.0
C137 C 0.02467 0.30545 0.6501 0.0
H138 H 0.0285 0.27615 0.69451 0.0
H139 H 0.96958 0.24791 0.71634 0.0
H140 H 0.91702 0.33991 0.57176 0.0
H141 H 0.98879 0.34549 0.58517 0.0
H142 H 0.0412 0.33188 0.61715 0.0
H143 H 0.05541 0.30759 0.6569 0.0
Mn144 Mn 0.67867 0.22103 0.34333 0.0
Mn145 Mn 0.73431 0.147 0.36898 0.0
C146 C 0.64658 0.16694 0.3613 0.0
C147 C 0.64208 0.24633 0.31162 0.0
C148 C 0.71791 0.22888 0.39141 0.0
O149 O 0.73535 0.23005 0.32916 0.0
O150 O 0.76916 0.1796 0.34761 0.0
C151 C 0.75191 0.097 0.32743 0.0
N152 N 0.73622 0.10024 0.34921 0.0
C153 C 0.71686 0.02934 0.34938 0.0
C154 C 0.7331 0.02518 0.32702 0.0
C155 C 0.75065 0.05917 0.31599 0.0
C156 C 0.71942 0.06768 0.36003 0.0
H157 H 0.76523 0.12309 0.31883 0.0
C158 C 0.76786 0.20972 0.33342 0.0
O159 O 0.65429 0.27035 0.32817 0.0
O160 O 0.65454 0.20885 0.31247 0.0
N161 N 0.70427 0.11297 0.38988 0.0
C162 C 0.68734 0.12284 0.41072 0.0
C163 C 0.66696 0.09266 0.42357 0.0
C164 C 0.66443 0.05263 0.41495 0.0
C165 C 0.68241 0.04312 0.39356 0.0
C166 C 0.70259 0.0744 0.3816 0.0
H167 H 0.68898 0.15362 0.41736 0.0
O168 O 0.62776 0.20122 0.35813 0.0
O169 O 0.684 0.165 0.35372 0.0
O170 O 0.69723 0.24436 0.37482 0.0
O171 O 0.73329 0.19312 0.3908 0.0
C172 C 0.68016 0.0041 0.38337 0.0
C173 C 0.69739 0.99721 0.3613 0.0
H174 H 0.73186 0.99615 0.31805 0.0
H175 H 0.76304 0.05625 0.29868 0.0
H176 H 0.65306 0.10027 0.44002 0.0
H177 H 0.6483 0.02954 0.4248 0.0
H178 H 0.66469 0.97932 0.39219 0.0
H179 H 0.69493 0.96723 0.35349 0.0
Mn180 Mn 0.28412 0.1795 0.84152 0.0
Mn181 Mn 0.35796 0.23574 0.867 0.0
C182 C 0.33871 0.14784 0.8592 0.0
C183 C 0.25878 0.14277 0.80985 0.0
C184 C 0.27648 0.2184 0.88972 0.0
O185 O 0.27452 0.23616 0.82745 0.0
O186 O 0.32484 0.27038 0.84582 0.0
C187 C 0.40737 0.25414 0.82531 0.0
N188 N 0.4045 0.2383 0.84707 0.0
C189 C 0.47559 0.21988 0.84701 0.0
C190 C 0.47938 0.23628 0.82466 0.0
C191 C 0.4451 0.25343 0.81376 0.0
C192 C 0.43733 0.22188 0.85777 0.0
H193 H 0.38106 0.26715 0.81681 0.0
C194 C 0.29462 0.26885 0.83172 0.0
O195 O 0.23486 0.15468 0.8265 0.0
O196 O 0.29616 0.15559 0.81058 0.0
N197 N 0.39248 0.20595 0.88772 0.0
C198 C 0.38297 0.18876 0.90855 0.0
C199 C 0.41349 0.1687 0.92127 0.0
C200 C 0.45346 0.16676 0.91254 0.0
C201 C 0.46259 0.185 0.89117 0.0
C202 C 0.43099 0.20484 0.87934 0.0
H203 H 0.35224 0.18996 0.91529 0.0
O204 O 0.30455 0.12871 0.85616 0.0
O205 O 0.34023 0.18534 0.85169 0.0
O206 O 0.26095 0.19773 0.87313 0.0
O207 O 0.31214 0.23406 0.88897 0.0
C208 C 0.50154 0.18333 0.88086 0.0
C209 C 0.50804 0.20077 0.8588 0.0
H210 H 0.50834 0.23546 0.81561 0.0
H211 H 0.44772 0.26593 0.79646 0.0
H212 H 0.40617 0.1546 0.93772 0.0
H213 H 0.47681 0.15088 0.92229 0.0
H214 H 0.52656 0.16813 0.88958 0.0
H215 H 0.53797 0.19875 0.85091 0.0
Mn216 Mn 0.32789 0.78886 0.34085 0.0
Mn217 Mn 0.27024 0.85955 0.36813 0.0
C218 C 0.35844 0.84308 0.35956 0.0
C219 C 0.36482 0.76649 0.30851 0.0
C220 C 0.28954 0.77694 0.38891 0.0
O221 O 0.27127 0.77887 0.32678 0.0
O222 O 0.23618 0.82725 0.34624 0.0
C223 C 0.25051 0.91162 0.32772 0.0
N224 N 0.26656 0.90748 0.34937 0.0
C225 C 0.2833 0.97898 0.35105 0.0
C226 C 0.26668 0.98406 0.32884 0.0
C227 C 0.25026 0.95022 0.31713 0.0
C228 C 0.28226 0.93988 0.36085 0.0
H229 H 0.23806 0.88566 0.31861 0.0
C230 C 0.23822 0.79801 0.33151 0.0
O231 O 0.35346 0.74118 0.32464 0.0
O232 O 0.35128 0.80352 0.31015 0.0
N233 N 0.29947 0.89316 0.38961 0.0
C234 C 0.31714 0.88246 0.41011 0.0
C235 C 0.33661 0.91247 0.42353 0.0
C236 C 0.33747 0.95314 0.41583 0.0
C237 C 0.31881 0.96346 0.39476 0.0
C238 C 0.29961 0.93231 0.3822 0.0
H239 H 0.31676 0.8512 0.41605 0.0
O240 O 0.37839 0.80963 0.35575 0.0
O241 O 0.32083 0.84404 0.35227 0.0
O242 O 0.31059 0.76314 0.37198 0.0
O243 O 0.27295 0.81217 0.38899 0.0
C244 C 0.3195 1.0032 0.38543 0.0
C245 C 0.30174 0.01096 0.3636 0.0
H246 H 0.26677 0.01371 0.32052 0.0
H247 H 0.23759 0.95386 0.29993 0.0
H248 H 0.35108 0.90423 0.43972 0.0
H249 H 0.35286 0.97612 0.42612 0.0
H250 H 0.3342 0.02789 0.39473 0.0
H251 H 0.30302 0.04152 0.35645 0.0
Mn252 Mn 0.71781 0.82744 0.84102 0.0
Mn253 Mn 0.64366 0.77234 0.86708 0.0
C254 C 0.66363 0.85998 0.85872 0.0
C255 C 0.74296 0.86318 0.80891 0.0
C256 C 0.72618 0.78843 0.88903 0.0
O257 O 0.72676 0.7702 0.82742 0.0
O258 O 0.67481 0.73744 0.84513 0.0
C259 C 0.59162 0.7555 0.82624 0.0
N260 N 0.59602 0.77102 0.84799 0.0
C261 C 0.52524 0.79047 0.8494 0.0
C262 C 0.51989 0.77444 0.82707 0.0
C263 C 0.55324 0.75693 0.81544 0.0
C264 C 0.56408 0.78774 0.8594 0.0
H265 H 0.61721 0.74218 0.81719 0.0
C266 C 0.70527 0.73814 0.83116 0.0
O267 O 0.76707 0.85133 0.82549 0.0
O268 O 0.70547 0.85074 0.80999 0.0
N269 N 0.61095 0.8027 0.88849 0.0
C270 C 0.62201 0.81973 0.90911 0.0
C271 C 0.59259 0.84014 0.92247 0.0
C272 C 0.55212 0.84263 0.91459 0.0
C273 C 0.54142 0.8247 0.89337 0.0
C274 C 0.57198 0.80447 0.88088 0.0
H275 H 0.65312 0.81809 0.9152 0.0
O276 O 0.69786 0.87886 0.85536 0.0
O277 O 0.66189 0.82233 0.85155 0.0
O278 O 0.74126 0.80975 0.87258 0.0
O279 O 0.69062 0.77256 0.88835 0.0
C280 C 0.50191 0.82706 0.88385 0.0
C281 C 0.49382 0.80995 0.86189 0.0
H282 H 0.49043 0.77582 0.8186 0.0
H283 H 0.5494 0.74469 0.79816 0.0
H284 H 0.60112 0.85407 0.93878 0.0
H285 H 0.52959 0.8587 0.92486 0.0
H286 H 0.47768 0.84259 0.89309 0.0
H287 H 0.46347 0.81253 0.85459 0.0
H288 H 0.27974 0.29089 0.0934 0.0
H289 H 0.27721 0.26596 0.05354 0.0
H290 H 0.16305 0.20546 0.06774 0.0
H291 H 0.16544 0.23014 0.10795 0.0
H292 H 0.26372 0.18006 0.03371 0.0
H293 H 0.14369 0.29598 0.01462 0.0
H294 H 0.1771 0.30096 0.03934 0.0
H295 H 0.13774 0.26293 0.03938 0.0
C296 C 0.25453 0.27148 0.08824 0.0
C297 C 0.22273 0.26259 0.10382 0.0
C298 C 0.25315 0.25727 0.06545 0.0
C299 C 0.21977 0.23425 0.05768 0.0
C300 C 0.189 0.22333 0.07345 0.0
H301 H 0.22488 0.16237 0.90954 0.0
H302 H 0.20206 0.16127 0.95017 0.0
C303 C 0.19058 0.2372 0.09643 0.0
C304 C 0.2161 0.22515 0.03262 0.0
H305 H 0.17376 0.2627 0.98288 0.0
C306 C 0.24334 0.19727 0.02259 0.0
C307 C 0.18973 0.24808 0.01822 0.0
C308 C 0.16037 0.27884 0.02826 0.0
C309 C 0.24611 0.19297 0.9984 0.0
C310 C 0.22105 0.21727 0.98397 0.0
C311 C 0.19259 0.24387 0.99404 0.0
C312 C 0.22856 0.21988 0.9587 0.0
C313 C 0.27756 0.1644 0.98832 0.0
C314 C 0.24958 0.25382 0.94994 0.0
C315 C 0.26273 0.25444 0.92695 0.0
C316 C 0.25471 0.22131 0.91214 0.0
C317 C 0.23115 0.18851 0.92048 0.0
C318 C 0.21838 0.18768 0.94369 0.0
H319 H 0.29625 0.14935 1.00192 0.0
H320 H 0.26207 0.1404 0.97798 0.0
H321 H 0.29821 0.18141 0.97648 0.0
H322 H 0.25768 0.27896 0.96125 0.0
H323 H 0.28077 0.28015 0.92102 0.0
H324 H 0.27511 0.66374 0.60572 0.0
H325 H 0.30096 0.66136 0.56576 0.0
H326 H 0.24692 0.77891 0.5522 0.0
H327 H 0.2206 0.78126 0.5918 0.0
H328 H 0.24283 0.66762 0.52614 0.0
H329 H 0.36554 0.78438 0.52378 0.0
H330 H 0.35008 0.75891 0.55018 0.0
H331 H 0.31994 0.8 0.53869 0.0
C332 C 0.26982 0.6896 0.59442 0.0
C333 C 0.2459 0.72276 0.60191 0.0
C334 C 0.28437 0.68806 0.57158 0.0
C335 C 0.27603 0.72006 0.55611 0.0
C336 C 0.25412 0.75413 0.56395 0.0
H337 H 0.22577 0.77296 0.41883 0.0
H338 H 0.22712 0.74842 0.45881 0.0
C339 C 0.23904 0.7554 0.58658 0.0
C340 C 0.28598 0.71648 0.53113 0.0
H341 H 0.3353 0.76626 0.48733 0.0
C342 C 0.26377 0.6885 0.51767 0.0
C343 C 0.31341 0.7436 0.52015 0.0
C344 C 0.33894 0.77324 0.53393 0.0
C345 C 0.26622 0.68891 0.49336 0.0
C346 C 0.29149 0.71799 0.48232 0.0
C347 C 0.31585 0.74402 0.49584 0.0
C348 C 0.28903 0.72572 0.45705 0.0
C349 C 0.24056 0.65939 0.47959 0.0
C350 C 0.32311 0.72022 0.44262 0.0
C351 C 0.32216 0.73367 0.41954 0.0
C352 C 0.28744 0.75367 0.41083 0.0
C353 C 0.25282 0.75742 0.42505 0.0
C354 C 0.25354 0.74338 0.44788 0.0
H355 H 0.23151 0.6325 0.49015 0.0
H356 H 0.21234 0.67505 0.47376 0.0
H357 H 0.25723 0.64868 0.46397 0.0
H358 H 0.3509 0.70698 0.44946 0.0
H359 H 0.34949 0.73101 0.40908 0.0
H360 H 0.842 0.77154 0.10565 0.0
H361 H 0.84261 0.79677 0.06555 0.0
H362 H 0.72616 0.73938 0.05334 0.0
H363 H 0.72558 0.7136 0.09309 0.0
H364 H 0.83494 0.73623 0.02587 0.0
H365 H 0.71867 0.85955 0.02521 0.0
H366 H 0.74618 0.84492 0.05108 0.0
H367 H 0.70463 0.81408 0.0408 0.0
C368 C 0.81599 0.76532 0.09461 0.0
C369 C 0.78367 0.74065 0.10253 0.0
C370 C 0.81654 0.77952 0.07169 0.0
C371 C 0.78435 0.77006 0.05657 0.0
C372 C 0.75109 0.74735 0.06482 0.0
H373 H 0.72556 0.72445 0.91897 0.0
H374 H 0.74967 0.72404 0.95905 0.0
C375 C 0.75082 0.73262 0.08753 0.0
C376 C 0.78689 0.77994 0.03156 0.0
H377 H 0.73637 0.83047 0.98853 0.0
C378 C 0.81405 0.75751 0.0177 0.0
C379 C 0.7597 0.80775 0.02101 0.0
C380 C 0.73079 0.83328 0.03525 0.0
C381 C 0.81287 0.76031 0.99341 0.0
C382 C 0.78391 0.78621 0.98282 0.0
C383 C 0.75856 0.81059 0.99672 0.0
C384 C 0.77579 0.78465 0.95758 0.0
C385 C 0.84146 0.73442 0.97917 0.0
C386 C 0.78336 0.81855 0.94332 0.0
C387 C 0.77018 0.81859 0.9202 0.0
C388 C 0.7484 0.78508 0.91125 0.0
C389 C 0.74242 0.7506 0.92536 0.0
C390 C 0.75619 0.75031 0.94825 0.0
H391 H 0.86794 0.7237 0.98953 0.0
H392 H 0.82473 0.70722 0.97271 0.0
H393 H 0.85283 0.7517 0.96391 0.0
H394 H 0.79816 0.84545 0.95031 0.0
H395 H 0.77464 0.84581 0.90983 0.0
H396 H 0.66024 0.27669 0.41236 0.0
H397 H 0.66031 0.29955 0.45297 0.0
H398 H 0.78197 0.25188 0.46154 0.0
H399 H 0.78182 0.22841 0.42133 0.0
H400 H 0.67561 0.23709 0.49083 0.0
H401 H 0.78138 0.36959 0.49278 0.0
H402 H 0.75354 0.35476 0.46705 0.0
H403 H 0.79823 0.3269 0.47565 0.0
C404 C 0.68744 0.2723 0.42272 0.0
C405 C 0.72111 0.25093 0.4137 0.0
C406 C 0.68732 0.28509 0.44592 0.0
C407 C 0.72122 0.27754 0.46017 0.0
C408 C 0.7557 0.25839 0.45075 0.0
H409 H 0.79295 0.22386 0.59488 0.0
H410 H 0.76598 0.22521 0.5554 0.0
C411 C 0.75557 0.24499 0.42779 0.0
C412 C 0.71953 0.28514 0.48546 0.0
H413 H 0.76932 0.33548 0.52885 0.0
C414 C 0.69535 0.25925 0.49918 0.0
C415 C 0.74524 0.31406 0.49626 0.0
C416 C 0.7709 0.34322 0.48223 0.0
C417 C 0.69827 0.25979 0.52347 0.0
C418 C 0.72597 0.28691 0.53421 0.0
C419 C 0.74813 0.31464 0.52055 0.0
C420 C 0.73612 0.2837 0.55917 0.0
C421 C 0.67294 0.23033 0.53749 0.0
C422 C 0.72747 0.31577 0.57453 0.0
C423 C 0.74236 0.31479 0.5973 0.0
C424 C 0.76692 0.28213 0.60482 0.0
C425 C 0.774 0.24933 0.58963 0.0
C426 C 0.75859 0.25004 0.56707 0.0
H427 H 0.64643 0.2187 0.52745 0.0
H428 H 0.69214 0.20387 0.54252 0.0
H429 H 0.66167 0.24504 0.55361 0.0
H430 H 0.71044 0.34216 0.56866 0.0
H431 H 0.73688 0.34077 0.60848 0.0
H432 H 0.27627 0.27083 0.22902 0.0
H433 H 0.3402 0.26253 0.25091 0.0
H434 H 0.40892 0.30013 0.19082 0.0
H435 H 0.34569 0.3096 0.16929 0.0
H436 H 0.40834 0.21714 0.24589 0.0
H437 H 0.45034 0.38002 0.23802 0.0
H438 H 0.40053 0.36112 0.23011 0.0
H439 H 0.44266 0.35701 0.21017 0.0
C440 C 0.30508 0.2769 0.22047 0.0
C441 C 0.30588 0.29137 0.19753 0.0
C442 C 0.34158 0.27234 0.233 0.0
C443 C 0.3794 0.28198 0.22275 0.0
C444 C 0.38018 0.29396 0.19942 0.0
H445 H 0.61846 0.20686 0.27217 0.0
H446 H 0.55537 0.21719 0.25033 0.0
C447 C 0.34393 0.29902 0.18706 0.0
C448 C 0.41817 0.27985 0.23624 0.0
H449 H 0.50354 0.33481 0.25019 0.0
C450 C 0.42901 0.24296 0.24697 0.0
C451 C 0.44491 0.31377 0.23813 0.0
C452 C 0.43383 0.35531 0.22871 0.0
C453 C 0.46629 0.23866 0.25883 0.0
C454 C 0.49416 0.27183 0.25943 0.0
C455 C 0.4827 0.30911 0.24936 0.0
C456 C 0.53494 0.26865 0.27081 0.0
C457 C 0.47497 0.19878 0.27097 0.0
C458 C 0.54616 0.29603 0.28848 0.0
C459 C 0.58286 0.29084 0.30062 0.0
C460 C 0.60896 0.25802 0.29539 0.0
C461 C 0.59893 0.23231 0.27672 0.0
C462 C 0.56253 0.23782 0.26442 0.0
H463 H 0.44638 0.18191 0.27496 0.0
H464 H 0.49377 0.17916 0.25949 0.0
H465 H 0.49192 0.20376 0.28739 0.0
H466 H 0.52569 0.32039 0.29357 0.0
H467 H 0.58952 0.31104 0.31499 0.0
H468 H 0.23531 0.77705 0.72672 0.0
H469 H 0.2433 0.84094 0.74872 0.0
H470 H 0.20577 0.90977 0.6887 0.0
H471 H 0.19665 0.84659 0.66705 0.0
H472 H 0.28859 0.90933 0.74378 0.0
H473 H 0.12565 0.95068 0.73593 0.0
H474 H 0.14469 0.90096 0.72798 0.0
H475 H 0.14874 0.94318 0.70809 0.0
C476 C 0.22918 0.80588 0.71821 0.0
C477 C 0.21485 0.8067 0.69524 0.0
C478 C 0.23356 0.84236 0.7308 0.0
C479 C 0.22388 0.88019 0.7206 0.0
C480 C 0.21199 0.88101 0.69726 0.0
H481 H 0.29818 0.11949 0.77031 0.0
H482 H 0.28801 0.05642 0.74839 0.0
C483 C 0.20712 0.84478 0.68482 0.0
C484 C 0.22588 0.91892 0.73415 0.0
H485 H 0.17067 0.00401 0.74825 0.0
C486 C 0.26272 0.92988 0.74489 0.0
C487 C 0.19189 0.94551 0.73608 0.0
C488 C 0.15041 0.93429 0.72663 0.0
C489 C 0.2669 0.96714 0.75682 0.0
C490 C 0.23366 0.99487 0.75747 0.0
C491 C 0.19643 0.98328 0.74738 0.0
C492 C 0.23673 0.03562 0.76892 0.0
C493 C 0.30675 0.97597 0.76895 0.0
C494 C 0.20939 0.04661 0.78664 0.0
C495 C 0.21449 0.08329 0.79884 0.0
C496 C 0.24717 0.1096 0.7936 0.0
C497 C 0.27284 0.09979 0.77487 0.0
C498 C 0.26742 0.06341 0.76252 0.0
H499 H 0.32373 0.94743 0.77287 0.0
H500 H 0.32628 0.99494 0.7575 0.0
H501 H 0.30172 0.99279 0.78541 0.0
H502 H 0.18513 0.02598 0.79174 0.0
H503 H 0.19433 0.08978 0.81325 0.0
H504 H 0.41015 0.69614 0.3056 0.0
H505 H 0.47305 0.686 0.28331 0.0
H506 H 0.45869 0.80502 0.25246 0.0
H507 H 0.39559 0.81505 0.27425 0.0
H508 H 0.48556 0.74926 0.22109 0.0
H509 H 0.57984 0.74184 0.30077 0.0
H510 H 0.53991 0.70431 0.29985 0.0
H511 H 0.52709 0.75766 0.3011 0.0
C512 C 0.4199 0.71979 0.2937 0.0
C513 C 0.39787 0.75649 0.29182 0.0
C514 C 0.4562 0.71418 0.2812 0.0
C515 C 0.47128 0.74525 0.2667 0.0
C516 C 0.44798 0.7808 0.26372 0.0
H517 H 0.72423 0.76141 0.21473 0.0
H518 H 0.65957 0.77601 0.23483 0.0
C519 C 0.41174 0.7864 0.27615 0.0
C520 C 0.51167 0.74131 0.25502 0.0
H521 H 0.61351 0.72665 0.26526 0.0
C522 C 0.51352 0.74444 0.23077 0.0
C523 C 0.54841 0.73603 0.26765 0.0
C524 C 0.54894 0.73518 0.29379 0.0
C525 C 0.55075 0.74113 0.2188 0.0
C526 C 0.58718 0.7338 0.23135 0.0
C527 C 0.58558 0.73196 0.25563 0.0
C528 C 0.62664 0.72552 0.21943 0.0
C529 C 0.55074 0.74577 0.19278 0.0
C530 C 0.62985 0.69196 0.20451 0.0
C531 C 0.66641 0.68361 0.19309 0.0
C532 C 0.70114 0.70845 0.19635 0.0
C533 C 0.69817 0.74177 0.21168 0.0
C534 C 0.66125 0.75013 0.22319 0.0
H535 H 0.52382 0.76338 0.1867 0.0
H536 H 0.57889 0.76131 0.18666 0.0
H537 H 0.54938 0.71508 0.18467 0.0
H538 H 0.60397 0.67192 0.20177 0.0
H539 H 0.6673 0.65736 0.18169 0.0
H540 H 0.75157 0.22158 0.71585 0.0
H541 H 0.73853 0.15688 0.7362 0.0
H542 H 0.84553 0.10435 0.70458 0.0
H543 H 0.85846 0.16779 0.68418 0.0
H544 H 0.77964 0.05363 0.70154 0.0
H545 H 0.79974 0.10915 0.79182 0.0
H546 H 0.76249 0.13636 0.77498 0.0
H547 H 0.81543 0.13867 0.76693 0.0
C548 C 0.77237 0.19629 0.71332 0.0
C549 C 0.806 0.20013 0.69827 0.0
C550 C 0.765 0.15936 0.72505 0.0
C551 C 0.79128 0.12577 0.72207 0.0
C552 C 0.82478 0.1297 0.70715 0.0
H553 H 0.81386 0.90788 0.80769 0.0
H554 H 0.82665 0.97016 0.78524 0.0
C555 C 0.83209 0.16626 0.69546 0.0
C556 C 0.78405 0.08599 0.73394 0.0
H557 H 0.77971 0.04025 0.78714 0.0
C558 C 0.77954 0.05073 0.72027 0.0
C559 C 0.78459 0.08206 0.75836 0.0
C560 C 0.79117 0.11844 0.77395 0.0
C561 C 0.7755 0.01181 0.7303 0.0
C562 C 0.77525 0.00795 0.75473 0.0
C563 C 0.77986 0.04317 0.76841 0.0
C564 C 0.76951 0.96783 0.76648 0.0
C565 C 0.77248 0.97508 0.71461 0.0
C566 C 0.73359 0.94524 0.76305 0.0
C567 C 0.72639 0.90949 0.77569 0.0
C568 C 0.75479 0.89565 0.79222 0.0
C569 C 0.79152 0.91739 0.79496 0.0
C570 C 0.79871 0.95323 0.78228 0.0
H571 H 0.78486 0.98164 0.69707 0.0
H572 H 0.78915 0.94858 0.72197 0.0
H573 H 0.73992 0.96642 0.71262 0.0
H574 H 0.71027 0.95613 0.75128 0.0
H575 H 0.69761 0.89377 0.77327 0.0
H576 H 0.84528 0.19665 0.34864 0.0
H577 H 0.90917 0.20799 0.328 0.0
H578 H 0.84232 0.25494 0.26937 0.0
H579 H 0.778 0.24511 0.29048 0.0
H580 H 0.93623 0.17384 0.29046 0.0
H581 H 0.92844 0.34042 0.27458 0.0
H582 H 0.89356 0.31464 0.29383 0.0
H583 H 0.88532 0.31358 0.26298 0.0
C584 C 0.84411 0.20991 0.33146 0.0
C585 C 0.80648 0.22011 0.32124 0.0
C586 C 0.88077 0.21629 0.31962 0.0
C587 C 0.88089 0.23268 0.29714 0.0
C588 C 0.84332 0.24322 0.2869 0.0
H589 H 0.08729 0.2056 0.20205 0.0
H590 H 0.02527 0.19498 0.22485 0.0
C591 C 0.80649 0.23745 0.29895 0.0
C592 C 0.92031 0.23675 0.28431 0.0
H593 H 0.98072 0.30412 0.25478 0.0
C594 C 0.946 0.20245 0.28276 0.0
C595 C 0.93353 0.27411 0.27447 0.0
C596 C 0.90898 0.31287 0.27673 0.0
C597 C 0.98421 0.20436 0.27169 0.0
C598 C 0.99677 0.24131 0.26111 0.0
C599 C 0.97116 0.27567 0.26272 0.0
C600 C 0.0363 0.24532 0.24839 0.0
C601 C 0.01111 0.16698 0.27206 0.0
C602 C 0.06338 0.27722 0.25382 0.0
C603 C 0.09857 0.28371 0.24056 0.0
C604 C 0.10771 0.25827 0.22162 0.0
C605 C 0.08155 0.2253 0.21677 0.0
C606 C 0.046 0.21917 0.22985 0.0
H607 H 1.00342 0.14661 0.28683 0.0
H608 H 0.0064 0.14937 0.25586 0.0
H609 H 0.04388 0.17537 0.27331 0.0
H610 H 0.05675 0.29782 0.26802 0.0
H611 H 0.11795 0.30952 0.24467 0.0
H612 H 0.19486 0.61857 0.74237 0.0
H613 H 0.20605 0.55745 0.76585 0.0
H614 H 0.31029 0.52641 0.72371 0.0
H615 H 0.30017 0.58834 0.70078 0.0
H616 H 0.20049 0.48128 0.75262 0.0
H617 H 0.35683 0.50507 0.78617 0.0
H618 H 0.32831 0.54532 0.77233 0.0
H619 H 0.35504 0.50797 0.75517 0.0
C620 C 0.22086 0.59931 0.73851 0.0
C621 C 0.24684 0.60854 0.71983 0.0
C622 C 0.22706 0.56416 0.75186 0.0
C623 C 0.25921 0.53723 0.74675 0.0
C624 C 0.28587 0.54702 0.72846 0.0
H625 H 0.25986 0.27885 0.78863 0.0
H626 H 0.24992 0.34321 0.76758 0.0
C627 C 0.28003 0.58253 0.71531 0.0
C628 C 0.263 0.49775 0.75954 0.0
H629 H 0.32989 0.43765 0.78949 0.0
C630 C 0.22874 0.47191 0.76083 0.0
C631 C 0.29968 0.48544 0.77046 0.0
C632 C 0.3369 0.5126 0.77119 0.0
C633 C 0.23015 0.43428 0.77258 0.0
C634 C 0.26727 0.4213 0.78276 0.0
C635 C 0.30147 0.44723 0.78154 0.0
C636 C 0.27121 0.38186 0.79558 0.0
C637 C 0.19147 0.40945 0.77448 0.0
C638 C 0.28704 0.38178 0.81819 0.0
C639 C 0.29348 0.34511 0.82999 0.0
C640 C 0.2839 0.30742 0.81962 0.0
C641 C 0.26702 0.30738 0.79721 0.0
C642 C 0.2612 0.34423 0.7852 0.0
H643 H 0.16389 0.42874 0.77211 0.0
H644 H 0.19126 0.38583 0.76069 0.0
H645 H 0.18931 0.39395 0.79154 0.0
H646 H 0.29491 0.41022 0.82668 0.0
H647 H 0.30638 0.3463 0.84726 0.0
H648 H 0.16063 0.80867 0.34706 0.0
H649 H 0.09689 0.79706 0.32636 0.0
H650 H 0.16434 0.75405 0.26697 0.0
H651 H 0.22858 0.76424 0.28809 0.0
H652 H 0.06932 0.8326 0.28913 0.0
H653 H 0.07961 0.66669 0.27137 0.0
H654 H 0.11403 0.69232 0.29095 0.0
H655 H 0.12226 0.69477 0.26013 0.0
C656 C 0.16198 0.79622 0.32969 0.0
C657 C 0.19977 0.78727 0.31926 0.0
C658 C 0.12541 0.78968 0.31782 0.0
C659 C 0.1255 0.77435 0.29511 0.0
C660 C 0.16321 0.76497 0.28466 0.0
H661 H 0.91766 0.80042 0.20092 0.0
H662 H 0.97976 0.81168 0.22354 0.0
C663 C 0.19999 0.77093 0.29672 0.0
C664 C 0.08609 0.77014 0.2823 0.0
H665 H 0.02634 0.70276 0.25238 0.0
C666 C 0.0599 0.8041 0.28118 0.0
C667 C 0.07335 0.7329 0.27213 0.0
C668 C 0.09857 0.69449 0.27388 0.0
C669 C 0.02159 0.80195 0.27024 0.0
C670 C 0.00944 0.76512 0.2594 0.0
C671 C 0.03559 0.73111 0.26055 0.0
C672 C 0.96975 0.76084 0.24689 0.0
C673 C 0.99416 0.83892 0.27102 0.0
C674 C 0.94317 0.72853 0.25232 0.0
C675 C 0.90791 0.72172 0.23919 0.0
C676 C 0.89822 0.74722 0.22037 0.0
C677 C 0.92382 0.78064 0.21555 0.0
C678 C 0.95944 0.78712 0.22852 0.0
H679 H 1.00186 0.85914 0.28585 0.0
H680 H 0.99826 0.85688 0.25488 0.0
H681 H 0.96155 0.83001 0.27244 0.0
H682 H 0.95028 0.70783 0.2664 0.0
H683 H 0.88897 0.69556 0.24327 0.0
H684 H 0.70719 0.4075 0.70907 0.0
H685 H 0.69486 0.4697 0.73166 0.0
H686 H 0.81473 0.45968 0.76193 0.0
H687 H 0.82699 0.39733 0.73981 0.0
H688 H 0.75762 0.48374 0.79373 0.0
H689 H 0.74698 0.57882 0.71438 0.0
H690 H 0.71111 0.53737 0.71526 0.0
H691 H 0.7649 0.52674 0.71388 0.0
C692 C 0.73059 0.41807 0.72089 0.0
C693 C 0.76816 0.3975 0.72252 0.0
C694 C 0.7237 0.45395 0.73358 0.0
C695 C 0.7543 0.47002 0.74804 0.0
C696 C 0.79081 0.44816 0.75073 0.0
H697 H 0.76732 0.72233 0.79982 0.0
H698 H 0.78164 0.65753 0.77992 0.0
C699 C 0.79771 0.41237 0.73809 0.0
C700 C 0.74896 0.51008 0.75991 0.0
H701 H 0.73192 0.61168 0.75006 0.0
C702 C 0.75204 0.5117 0.78417 0.0
C703 C 0.74264 0.54681 0.74743 0.0
C704 C 0.7416 0.5476 0.72129 0.0
C705 C 0.74793 0.54873 0.79628 0.0
C706 C 0.73986 0.58515 0.78387 0.0
C707 C 0.73781 0.58375 0.75958 0.0
C708 C 0.73171 0.62458 0.79588 0.0
C709 C 0.75273 0.54854 0.82229 0.0
C710 C 0.69859 0.62781 0.81113 0.0
C711 C 0.69039 0.66453 0.82248 0.0
C712 C 0.71494 0.69933 0.81879 0.0
C713 C 0.74789 0.69624 0.80321 0.0
C714 C 0.75609 0.65922 0.7918 0.0
H715 H 0.77054 0.52168 0.82828 0.0
H716 H 0.76813 0.57675 0.82843 0.0
H717 H 0.72211 0.54695 0.83047 0.0
H718 H 0.67874 0.60188 0.81415 0.0
H719 H 0.66447 0.66553 0.83412 0.0
H720 H 0.90604 0.65231 0.11458 0.0
H721 H 0.95449 0.59808 0.10445 0.0
H722 H 0.9158 0.52939 0.16442 0.0
H723 H 0.86686 0.58304 0.17411 0.0
H724 H 0.0175 0.578 0.1302 0.0
H725 H 0.92447 0.43877 0.11803 0.0
H726 H 0.904 0.48966 0.11536 0.0
H727 H 0.90971 0.46647 0.14351 0.0
C728 C 0.9071 0.62489 0.12507 0.0
C729 C 0.8821 0.62102 0.14468 0.0
C730 C 0.93475 0.59406 0.11934 0.0
C731 C 0.93833 0.55929 0.13343 0.0
C732 C 0.91268 0.55517 0.15282 0.0
H733 H 0.14266 0.42165 0.17543 0.0
H734 H 0.0948 0.47603 0.16535 0.0
C735 C 0.88477 0.58582 0.1584 0.0
C736 C 0.9723 0.5301 0.1298 0.0
H737 H 0.99427 0.42843 0.12909 0.0
C738 C 0.0124 0.5453 0.12952 0.0
C739 C 0.9658 0.48752 0.12832 0.0
C740 C 0.92364 0.46958 0.12607 0.0
C741 C 0.04609 0.51893 0.12924 0.0
C742 C 0.03952 0.47629 0.13007 0.0
C743 C 0.99945 0.46114 0.12889 0.0
C744 C 0.0732 0.44684 0.13393 0.0
C745 C 0.08835 0.53697 0.12799 0.0
C746 C 0.07695 0.4122 0.11975 0.0
C747 C 0.10382 0.38088 0.12576 0.0
C748 C 0.12801 0.38416 0.14571 0.0
C749 C 0.12535 0.41928 0.15949 0.0
C750 C 0.0981 0.45039 0.15366 0.0
H751 H 0.08798 0.56783 0.12 0.0
H752 H 0.10098 0.54006 0.14574 0.0
H753 H 0.10886 0.51705 0.11771 0.0
H754 H 0.05782 0.40862 0.10457 0.0
H755 H 0.1049 0.35354 0.1152 0.0
H756 H 0.8552 0.40472 0.61457 0.0
H757 H 0.90845 0.45351 0.60323 0.0
H758 H 0.98099 0.41588 0.6619 0.0
H759 H 0.92837 0.36655 0.67275 0.0
H760 H 0.92967 0.51694 0.62791 0.0
H761 H 0.06888 0.42507 0.61413 0.0
H762 H 0.01808 0.404 0.61246 0.0
H763 H 0.04285 0.41019 0.64015 0.0
C764 C 0.88324 0.40608 0.6245 0.0
C765 C 0.88849 0.38126 0.64408 0.0
C766 C 0.91352 0.43393 0.61808 0.0
C767 C 0.94911 0.43791 0.63145 0.0
C768 C 0.95457 0.41244 0.65081 0.0
H769 H 0.08494 0.64324 0.67248 0.0
H770 H 0.03084 0.59518 0.66218 0.0
C771 C 0.92449 0.38431 0.65706 0.0
C772 C 0.97786 0.4721 0.62719 0.0
H773 H 0.0793 0.4949 0.62555 0.0
C774 C 0.96237 0.51208 0.62693 0.0
C775 C 0.02041 0.46596 0.62524 0.0
C776 C 0.03857 0.42395 0.62275 0.0
C777 C 0.9885 0.546 0.62635 0.0
C778 C 0.03118 0.53979 0.62693 0.0
C779 C 0.04656 0.49983 0.62559 0.0
C780 C 0.06044 0.57368 0.63086 0.0
C781 C 0.97014 0.58811 0.6251 0.0
C782 C 0.09527 0.57756 0.61683 0.0
C783 C 0.12649 0.60448 0.623 0.0
C784 C 0.12289 0.62866 0.64295 0.0
C785 C 0.08756 0.62593 0.65655 0.0
C786 C 0.0566 0.59858 0.65059 0.0
H787 H 0.93937 0.58741 0.61701 0.0
H788 H 0.96671 0.60063 0.64285 0.0
H789 H 0.98996 0.60888 0.61491 0.0
H790 H 0.09911 0.55844 0.60166 0.0
H791 H 0.15399 0.60561 0.61258 0.0
H792 H 0.64791 0.09308 0.34008 0.0
H793 H 0.60055 0.03646 0.34594 0.0
H794 H 0.53605 0.10734 0.39734 0.0
H795 H 0.587 0.16162 0.39365 0.0
H796 H 0.52909 0.03344 0.40879 0.0
H797 H 0.49454 0.041 0.31529 0.0
H798 H 0.5467 0.02666 0.31942 0.0
H799 H 0.52918 0.07621 0.32891 0.0
C800 C 0.62503 0.09547 0.35355 0.0
C801 C 0.62205 0.13082 0.36711 0.0
C802 C 0.59713 0.06368 0.35639 0.0
C803 C 0.56375 0.06814 0.37148 0.0
C804 C 0.56138 0.10311 0.38551 0.0
H805 H 0.3537 0.91757 0.33942 0.0
H806 H 0.39741 0.97653 0.34643 0.0
C807 C 0.59038 0.13416 0.38337 0.0
C808 C 0.53 0.03782 0.37151 0.0
H809 H 0.46816 0.98339 0.33551 0.0
C810 C 0.51539 0.02281 0.39277 0.0
C811 C 0.51098 0.02494 0.3507 0.0
C812 C 0.52085 0.04346 0.32737 0.0
C813 C 0.48303 0.99467 0.39375 0.0
C814 C 0.46651 0.97919 0.37283 0.0
C815 C 0.48078 0.99477 0.35163 0.0
C816 C 0.43518 0.9463 0.37211 0.0
C817 C 0.46637 0.98297 0.41722 0.0
C818 C 0.44064 0.90992 0.38467 0.0
C819 C 0.41379 0.87719 0.38172 0.0
C820 C 0.38163 0.87986 0.36576 0.0
C821 C 0.37659 0.91576 0.3529 0.0
C822 C 0.40226 0.9491 0.35656 0.0
H823 H 0.47019 0.00829 0.42985 0.0
H824 H 0.43349 0.9749 0.41636 0.0
H825 H 0.48364 0.95638 0.42397 0.0
H826 H 0.4667 0.90595 0.39595 0.0
H827 H 0.41917 0.84913 0.39118 0.0
H828 H 0.41238 0.15033 0.83781 0.0
H829 H 0.46978 0.10401 0.84358 0.0
H830 H 0.39991 0.03782 0.89479 0.0
H831 H 0.34489 0.0879 0.89128 0.0
H832 H 0.47343 0.03205 0.90636 0.0
H833 H 0.46812 0.9984 0.81269 0.0
H834 H 0.4816 0.05074 0.8171 0.0
H835 H 0.43214 0.0323 0.82621 0.0
C836 C 0.41037 0.12732 0.85122 0.0
C837 C 0.37512 0.12367 0.86481 0.0
C838 C 0.44261 0.09998 0.854 0.0
C839 C 0.43872 0.06642 0.86902 0.0
C840 C 0.40375 0.06331 0.88302 0.0
H841 H 0.59022 0.85721 0.83734 0.0
H842 H 0.5318 0.9018 0.84372 0.0
C843 C 0.37227 0.0918 0.88098 0.0
C844 C 0.46966 0.03328 0.86906 0.0
H845 H 0.52554 0.97257 0.83316 0.0
C846 C 0.4845 0.01867 0.89036 0.0
C847 C 0.48323 0.01471 0.84826 0.0
C848 C 0.46503 0.02454 0.82485 0.0
C849 C 0.51289 0.98659 0.89139 0.0
C850 C 0.52891 0.97042 0.8705 0.0
C851 C 0.51372 0.98489 0.84927 0.0
C852 C 0.56163 0.93894 0.86988 0.0
C853 C 0.52419 0.96975 0.91487 0.0
C854 C 0.59764 0.94381 0.88284 0.0
C855 C 0.62996 0.91638 0.88027 0.0
C856 C 0.62727 0.88426 0.86428 0.0
C857 C 0.59191 0.88002 0.85088 0.0
C858 C 0.55891 0.90622 0.85416 0.0
H859 H 0.49869 0.97345 0.9274 0.0
H860 H 0.53223 0.93688 0.91397 0.0
H861 H 0.55068 0.98699 0.9218 0.0
H862 H 0.6016 0.96972 0.89424 0.0
H863 H 0.6577 0.92118 0.89013 0.0
loop_
_geom_bond_atom_site_label_1
_geom_bond_atom_site_label_2
_geom_bond_distance
_geom_bond_site_symmetry_2
_ccdc_geom_bond_type
Mn0 O5 2.095 . S
Mn0 O15 2.162 . S
Mn0 O16 2.297 . S
Mn0 O24 2.385 . S
Mn0 O25 2.209 . S
Mn0 O26 2.094 . S
Mn1 O6 2.121 . S
Mn1 N8 2.257 . S
Mn1 N17 2.282 . S
Mn1 O25 2.215 . S
Mn1 O27 2.117 . S
C2 O24 1.234 . S
C2 O25 1.283 . S
C3 O15 1.281 . S
C3 O16 1.236 . S
C4 O26 1.240 . S
C4 O27 1.264 . S
O5 Mn0 2.095 . S
O5 C14 1.250 . S
O6 Mn1 2.121 . S
O6 C14 1.258 . S
C7 N8 1.326 . S
C7 C11 1.460 . S
C7 H13 0.929 . S
N8 Mn1 2.257 . S
N8 C7 1.326 . S
N8 C12 1.362 . S
C9 C10 1.258 . S
C9 C12 1.431 . S
C9 C29 1.449 . S
C10 C9 1.258 . S
C10 C11 1.477 . S
C10 H30 0.931 . S
C11 C7 1.460 . S
C11 C10 1.477 . S
C11 H31 0.930 . S
C12 N8 1.362 . S
C12 C9 1.431 . S
C12 C22 1.476 . S
H13 C7 0.929 . S
C14 O5 1.250 . S
C14 O6 1.258 . S
O15 Mn0 2.162 . S
O15 C3 1.281 . S
O16 Mn0 2.297 . S
O16 C3 1.236 . S
N17 Mn1 2.282 . S
N17 C18 1.328 . S
N17 C22 1.318 . S
C18 N17 1.328 . S
C18 C19 1.457 . S
C18 H23 0.929 . S
C19 C18 1.457 . S
C19 C20 1.291 . S
C19 H32 0.931 . S
C20 C19 1.291 . S
C20 C21 1.373 . S
C20 H33 0.929 . S
C21 C20 1.373 . S
C21 C22 1.396 . S
C21 C28 1.403 . S
C22 C12 1.476 . S
C22 N17 1.318 . S
C22 C21 1.396 . S
H23 C18 0.929 . S
O24 Mn0 2.385 . S
O24 C2 1.234 . S
O25 Mn0 2.209 . S
O25 Mn1 2.215 . S
O25 C2 1.283 . S
O26 Mn0 2.094 . S
O26 C4 1.240 . S
O27 Mn1 2.117 . S
O27 C4 1.264 . S
C28 C21 1.403 . S
C28 C29 1.399 . S
C28 H34 0.929 . S
C29 C9 1.449 . S
C29 C28 1.399 . S
C29 H35 0.930 . S
H30 C10 0.931 . S
H31 C11 0.930 . S
H32 C19 0.931 . S
H33 C20 0.929 . S
H34 C28 0.929 . S
H35 C29 0.930 . S
Mn36 O41 2.095 . S
Mn36 O51 2.162 . S
Mn36 O52 2.297 . S
Mn36 O60 2.385 . S
Mn36 O61 2.209 . S
Mn36 O62 2.094 . S
Mn37 O42 2.121 . S
Mn37 N44 2.257 . S
Mn37 N53 2.282 . S
Mn37 O61 2.215 . S
Mn37 O63 2.117 . S
C38 O60 1.234 . S
C38 O61 1.283 . S
C39 O51 1.281 . S
C39 O52 1.236 . S
C40 O62 1.240 . S
C40 O63 1.264 . S
O41 Mn36 2.095 . S
O41 C50 1.250 . S
O42 Mn37 2.121 . S
O42 C50 1.258 . S
C43 N44 1.326 . S
C43 C47 1.460 . S
C43 H49 0.929 . S
N44 Mn37 2.257 . S
N44 C43 1.326 . S
N44 C48 1.362 . S
C45 C46 1.258 . S
C45 C48 1.431 . S
C45 C65 1.449 . S
C46 C45 1.258 . S
C46 C47 1.477 . S
C46 H66 0.930 . S
C47 C43 1.460 . S
C47 C46 1.477 . S
C47 H67 0.930 . S
C48 N44 1.362 . S
C48 C45 1.431 . S
C48 C58 1.476 . S
H49 C43 0.929 . S
C50 O41 1.250 . S
C50 O42 1.258 . S
O51 Mn36 2.162 . S
O51 C39 1.281 . S
O52 Mn36 2.297 . S
O52 C39 1.236 . S
N53 Mn37 2.282 . S
N53 C54 1.328 . S
N53 C58 1.318 . S
C54 N53 1.328 . S
C54 C55 1.457 . S
C54 H59 0.929 . S
C55 C54 1.457 . S
C55 C56 1.291 . S
C55 H68 0.931 . S
C56 C55 1.291 . S
C56 C57 1.373 . S
C56 H69 0.929 . S
C57 C56 1.373 . S
C57 C58 1.396 . S
C57 C64 1.403 . S
C58 C48 1.476 . S
C58 N53 1.318 . S
C58 C57 1.396 . S
H59 C54 0.929 . S
O60 Mn36 2.385 . S
O60 C38 1.234 . S
O61 Mn36 2.209 . S
O61 Mn37 2.215 . S
O61 C38 1.283 . S
O62 Mn36 2.094 . S
O62 C40 1.240 . S
O63 Mn37 2.117 . S
O63 C40 1.264 . S
C64 C57 1.403 . S
C64 C65 1.399 . S
C64 H70 0.929 1_455 S
C65 C45 1.449 . S
C65 C64 1.399 . S
C65 H71 0.930 1_455 S
H66 C46 0.930 . S
H67 C47 0.930 . S
H68 C55 0.931 . S
H69 C56 0.929 . S
H70 C64 0.929 1_655 S
H71 C65 0.930 1_655 S
Mn72 O77 2.095 . S
Mn72 O87 2.162 . S
Mn72 O88 2.297 . S
Mn72 O96 2.385 . S
Mn72 O97 2.209 . S
Mn72 O98 2.094 . S
Mn73 O78 2.121 . S
Mn73 N80 2.257 . S
Mn73 N89 2.282 . S
Mn73 O97 2.215 . S
Mn73 O99 2.117 . S
C74 O96 1.234 . S
C74 O97 1.283 . S
C75 O87 1.281 . S
C75 O88 1.236 . S
C76 O98 1.240 . S
C76 O99 1.264 . S
O77 Mn72 2.095 . S
O77 C86 1.250 . S
O78 Mn73 2.121 . S
O78 C86 1.258 . S
C79 N80 1.326 . S
C79 C83 1.460 . S
C79 H85 0.929 . S
N80 Mn73 2.257 . S
N80 C79 1.326 . S
N80 C84 1.362 . S
C81 C82 1.258 . S
C81 C84 1.431 . S
C81 C101 1.449 . S
C82 C81 1.258 . S
C82 C83 1.477 . S
C82 H102 0.931 . S
C83 C79 1.460 . S
C83 C82 1.477 . S
C83 H103 0.930 . S
C84 N80 1.362 . S
C84 C81 1.431 . S
C84 C94 1.476 . S
H85 C79 0.929 . S
C86 O77 1.250 . S
C86 O78 1.258 . S
O87 Mn72 2.162 . S
O87 C75 1.281 . S
O88 Mn72 2.297 . S
O88 C75 1.236 . S
N89 Mn73 2.282 . S
N89 C90 1.328 . S
N89 C94 1.318 . S
C90 N89 1.328 . S
C90 C91 1.457 . S
C90 H95 0.929 . S
C91 C90 1.457 . S
C91 C92 1.291 . S
C91 H104 0.931 . S
C92 C91 1.291 . S
C92 C93 1.373 . S
C92 H105 0.929 . S
C93 C92 1.373 . S
C93 C94 1.396 . S
C93 C100 1.403 . S
C94 C84 1.476 . S
C94 N89 1.318 . S
C94 C93 1.396 . S
H95 C90 0.929 . S
O96 Mn72 2.385 . S
O96 C74 1.234 . S
O97 Mn72 2.209 . S
O97 Mn73 2.215 . S
O97 C74 1.283 . S
O98 Mn72 2.094 . S
O98 C76 1.240 . S
O99 Mn73 2.117 . S
O99 C76 1.264 . S
C100 C93 1.403 . S
C100 C101 1.399 . S
C100 H106 0.929 . S
C101 C81 1.449 . S
C101 C100 1.399 . S
C101 H107 0.930 . S
H102 C82 0.931 . S
H103 C83 0.930 . S
H104 C91 0.931 . S
H105 C92 0.929 . S
H106 C100 0.929 . S
H107 C101 0.930 . S
Mn108 O113 2.095 . S
Mn108 O123 2.162 . S
Mn108 O124 2.297 . S
Mn108 O132 2.385 . S
Mn108 O133 2.209 . S
Mn108 O134 2.094 . S
Mn109 O114 2.121 . S
Mn109 N116 2.257 . S
Mn109 N125 2.282 . S
Mn109 O133 2.215 . S
Mn109 O135 2.117 . S
C110 O132 1.234 . S
C110 O133 1.283 . S
C111 O123 1.281 . S
C111 O124 1.236 . S
C112 O134 1.240 . S
C112 O135 1.264 . S
O113 Mn108 2.095 . S
O113 C122 1.250 . S
O114 Mn109 2.121 . S
O114 C122 1.258 . S
C115 N116 1.326 . S
C115 C119 1.460 . S
C115 H121 0.929 . S
N116 Mn109 2.257 . S
N116 C115 1.326 . S
N116 C120 1.362 . S
C117 C118 1.258 . S
C117 C120 1.431 . S
C117 C137 1.449 . S
C118 C117 1.258 . S
C118 C119 1.477 . S
C118 H138 0.930 . S
C119 C115 1.460 . S
C119 C118 1.477 . S
C119 H139 0.930 . S
C120 N116 1.362 . S
C120 C117 1.431 . S
C120 C130 1.476 . S
H121 C115 0.929 . S
C122 O113 1.250 . S
C122 O114 1.258 . S
O123 Mn108 2.162 . S
O123 C111 1.281 . S
O124 Mn108 2.297 . S
O124 C111 1.236 . S
N125 Mn109 2.282 . S
N125 C126 1.328 . S
N125 C130 1.318 . S
C126 N125 1.328 . S
C126 C127 1.457 . S
C126 H131 0.929 . S
C127 C126 1.457 . S
C127 C128 1.291 . S
C127 H140 0.931 . S
C128 C127 1.291 . S
C128 C129 1.373 . S
C128 H141 0.929 . S
C129 C128 1.373 . S
C129 C130 1.396 . S
C129 C136 1.403 . S
C130 C120 1.476 . S
C130 N125 1.318 . S
C130 C129 1.396 . S
H131 C126 0.929 . S
O132 Mn108 2.385 . S
O132 C110 1.234 . S
O133 Mn108 2.209 . S
O133 Mn109 2.215 . S
O133 C110 1.283 . S
O134 Mn108 2.094 . S
O134 C112 1.240 . S
O135 Mn109 2.117 . S
O135 C112 1.264 . S
C136 C129 1.403 . S
C136 C137 1.399 . S
C136 H142 0.929 1_655 S
C137 C117 1.449 . S
C137 C136 1.399 . S
C137 H143 0.930 1_655 S
H138 C118 0.930 . S
H139 C119 0.930 . S
H140 C127 0.931 . S
H141 C128 0.929 . S
H142 C136 0.929 1_455 S
H143 C137 0.930 1_455 S
Mn144 O149 2.095 . S
Mn144 O159 2.162 . S
Mn144 O160 2.297 . S
Mn144 O168 2.385 . S
Mn144 O169 2.209 . S
Mn144 O170 2.094 . S
Mn145 O150 2.121 . S
Mn145 N152 2.257 . S
Mn145 N161 2.282 . S
Mn145 O169 2.215 . S
Mn145 O171 2.117 . S
C146 O168 1.234 . S
C146 O169 1.283 . S
C147 O159 1.281 . S
C147 O160 1.236 . S
C148 O170 1.240 . S
C148 O171 1.264 . S
O149 Mn144 2.095 . S
O149 C158 1.250 . S
O150 Mn145 2.121 . S
O150 C158 1.258 . S
C151 N152 1.326 . S
C151 C155 1.460 . S
C151 H157 0.929 . S
N152 Mn145 2.257 . S
N152 C151 1.326 . S
N152 C156 1.362 . S
C153 C154 1.258 . S
C153 C156 1.431 . S
C153 C173 1.449 . S
C154 C153 1.258 . S
C154 C155 1.477 . S
C154 H174 0.930 . S
C155 C151 1.460 . S
C155 C154 1.477 . S
C155 H175 0.930 . S
C156 N152 1.362 . S
C156 C153 1.431 . S
C156 C166 1.476 . S
H157 C151 0.929 . S
C158 O149 1.250 . S
C158 O150 1.258 . S
O159 Mn144 2.162 . S
O159 C147 1.281 . S
O160 Mn144 2.297 . S
O160 C147 1.236 . S
N161 Mn145 2.282 . S
N161 C162 1.328 . S
N161 C166 1.318 . S
C162 N161 1.328 . S
C162 C163 1.457 . S
C162 H167 0.929 . S
C163 C162 1.457 . S
C163 C164 1.291 . S
C163 H176 0.931 . S
C164 C163 1.291 . S
C164 C165 1.373 . S
C164 H177 0.929 . S
C165 C164 1.373 . S
C165 C166 1.396 . S
C165 C172 1.403 . S
C166 C156 1.476 . S
C166 N161 1.318 . S
C166 C165 1.396 . S
H167 C162 0.929 . S
O168 Mn144 2.385 . S
O168 C146 1.234 . S
O169 Mn144 2.209 . S
O169 Mn145 2.215 . S
O169 C146 1.283 . S
O170 Mn144 2.094 . S
O170 C148 1.240 . S
O171 Mn145 2.117 . S
O171 C148 1.264 . S
C172 C165 1.403 . S
C172 C173 1.399 . S
C172 H178 0.929 1_545 S
C173 C153 1.449 . S
C173 C172 1.399 . S
C173 H179 0.930 1_545 S
H174 C154 0.930 . S
H175 C155 0.930 . S
H176 C163 0.931 . S
H177 C164 0.929 . S
H178 C172 0.929 1_565 S
H179 C173 0.930 1_565 S
Mn180 O185 2.095 . S
Mn180 O195 2.162 . S
Mn180 O196 2.297 . S
Mn180 O204 2.385 . S
Mn180 O205 2.209 . S
Mn180 O206 2.094 . S
Mn181 O186 2.121 . S
Mn181 N188 2.257 . S
Mn181 N197 2.282 . S
Mn181 O205 2.215 . S
Mn181 O207 2.117 . S
C182 O204 1.234 . S
C182 O205 1.283 . S
C183 O195 1.281 . S
C183 O196 1.236 . S
C184 O206 1.240 . S
C184 O207 1.264 . S
O185 Mn180 2.095 . S
O185 C194 1.250 . S
O186 Mn181 2.121 . S
O186 C194 1.258 . S
C187 N188 1.326 . S
C187 C191 1.460 . S
C187 H193 0.929 . S
N188 Mn181 2.257 . S
N188 C187 1.326 . S
N188 C192 1.362 . S
C189 C190 1.258 . S
C189 C192 1.431 . S
C189 C209 1.449 . S
C190 C189 1.258 . S
C190 C191 1.477 . S
C190 H210 0.931 . S
C191 C187 1.460 . S
C191 C190 1.477 . S
C191 H211 0.930 . S
C192 N188 1.362 . S
C192 C189 1.431 . S
C192 C202 1.476 . S
H193 C187 0.929 . S
C194 O185 1.250 . S
C194 O186 1.258 . S
O195 Mn180 2.162 . S
O195 C183 1.281 . S
O196 Mn180 2.297 . S
O196 C183 1.236 . S
N197 Mn181 2.282 . S
N197 C198 1.328 . S
N197 C202 1.318 . S
C198 N197 1.328 . S
C198 C199 1.457 . S
C198 H203 0.929 . S
C199 C198 1.457 . S
C199 C200 1.291 . S
C199 H212 0.931 . S
C200 C199 1.291 . S
C200 C201 1.373 . S
C200 H213 0.929 . S
C201 C200 1.373 . S
C201 C202 1.396 . S
C201 C208 1.403 . S
C202 C192 1.476 . S
C202 N197 1.318 . S
C202 C201 1.396 . S
H203 C198 0.929 . S
O204 Mn180 2.385 . S
O204 C182 1.234 . S
O205 Mn180 2.209 . S
O205 Mn181 2.215 . S
O205 C182 1.283 . S
O206 Mn180 2.094 . S
O206 C184 1.240 . S
O207 Mn181 2.117 . S
O207 C184 1.264 . S
C208 C201 1.403 . S
C208 C209 1.399 . S
C208 H214 0.929 . S
C209 C189 1.449 . S
C209 C208 1.399 . S
C209 H215 0.930 . S
H210 C190 0.931 . S
H211 C191 0.930 . S
H212 C199 0.931 . S
H213 C200 0.929 . S
H214 C208 0.929 . S
H215 C209 0.930 . S
Mn216 O221 2.095 . S
Mn216 O231 2.162 . S
Mn216 O232 2.297 . S
Mn216 O240 2.385 . S
Mn216 O241 2.209 . S
Mn216 O242 2.094 . S
Mn217 O222 2.121 . S
Mn217 N224 2.257 . S
Mn217 N233 2.282 . S
Mn217 O241 2.215 . S
Mn217 O243 2.117 . S
C218 O240 1.234 . S
C218 O241 1.283 . S
C219 O231 1.281 . S
C219 O232 1.236 . S
C220 O242 1.240 . S
C220 O243 1.264 . S
O221 Mn216 2.095 . S
O221 C230 1.250 . S
O222 Mn217 2.121 . S
O222 C230 1.258 . S
C223 N224 1.326 . S
C223 C227 1.460 . S
C223 H229 0.929 . S
N224 Mn217 2.257 . S
N224 C223 1.326 . S
N224 C228 1.362 . S
C225 C226 1.258 . S
C225 C228 1.431 . S
C225 C245 1.449 . S
C226 C225 1.258 . S
C226 C227 1.477 . S
C226 H246 0.930 . S
C227 C223 1.460 . S
C227 C226 1.477 . S
C227 H247 0.930 . S
C228 N224 1.362 . S
C228 C225 1.431 . S
C228 C238 1.476 . S
H229 C223 0.929 . S
C230 O221 1.250 . S
C230 O222 1.258 . S
O231 Mn216 2.162 . S
O231 C219 1.281 . S
O232 Mn216 2.297 . S
O232 C219 1.236 . S
N233 Mn217 2.282 . S
N233 C234 1.328 . S
N233 C238 1.318 . S
C234 N233 1.328 . S
C234 C235 1.457 . S
C234 H239 0.929 . S
C235 C234 1.457 . S
C235 C236 1.291 . S
C235 H248 0.931 . S
C236 C235 1.291 . S
C236 C237 1.373 . S
C236 H249 0.929 . S
C237 C236 1.373 . S
C237 C238 1.396 . S
C237 C244 1.403 . S
C238 C228 1.476 . S
C238 N233 1.318 . S
C238 C237 1.396 . S
H239 C234 0.929 . S
O240 Mn216 2.385 . S
O240 C218 1.234 . S
O241 Mn216 2.209 . S
O241 Mn217 2.215 . S
O241 C218 1.283 . S
O242 Mn216 2.094 . S
O242 C220 1.240 . S
O243 Mn217 2.117 . S
O243 C220 1.264 . S
C244 C237 1.403 . S
C244 C245 1.399 . S
C244 H250 0.929 1_565 S
C245 C225 1.449 . S
C245 C244 1.399 . S
C245 H251 0.930 1_565 S
H246 C226 0.930 . S
H247 C227 0.930 . S
H248 C235 0.931 . S
H249 C236 0.929 . S
H250 C244 0.929 1_545 S
H251 C245 0.930 1_545 S
Mn252 O257 2.095 . S
Mn252 O267 2.162 . S
Mn252 O268 2.297 . S
Mn252 O276 2.385 . S
Mn252 O277 2.209 . S
Mn252 O278 2.094 . S
Mn253 O258 2.121 . S
Mn253 N260 2.257 . S
Mn253 N269 2.282 . S
Mn253 O277 2.215 . S
Mn253 O279 2.117 . S
C254 O276 1.234 . S
C254 O277 1.283 . S
C255 O267 1.281 . S
C255 O268 1.236 . S
C256 O278 1.240 . S
C256 O279 1.264 . S
O257 Mn252 2.095 . S
O257 C266 1.250 . S
O258 Mn253 2.121 . S
O258 C266 1.258 . S
C259 N260 1.326 . S
C259 C263 1.460 . S
C259 H265 0.929 . S
N260 Mn253 2.257 . S
N260 C259 1.326 . S
N260 C264 1.362 . S
C261 C262 1.258 . S
C261 C264 1.431 . S
C261 C281 1.449 . S
C262 C261 1.258 . S
C262 C263 1.477 . S
C262 H282 0.931 . S
C263 C259 1.460 . S
C263 C262 1.477 . S
C263 H283 0.930 . S
C264 N260 1.362 . S
C264 C261 1.431 . S
C264 C274 1.476 . S
H265 C259 0.929 . S
C266 O257 1.250 . S
C266 O258 1.258 . S
O267 Mn252 2.162 . S
O267 C255 1.281 . S
O268 Mn252 2.297 . S
O268 C255 1.236 . S
N269 Mn253 2.282 . S
N269 C270 1.328 . S
N269 C274 1.318 . S
C270 N269 1.328 . S
C270 C271 1.457 . S
C270 H275 0.929 . S
C271 C270 1.457 . S
C271 C272 1.291 . S
C271 H284 0.931 . S
C272 C271 1.291 . S
C272 C273 1.373 . S
C272 H285 0.929 . S
C273 C272 1.373 . S
C273 C274 1.396 . S
C273 C280 1.403 . S
C274 C264 1.476 . S
C274 N269 1.318 . S
C274 C273 1.396 . S
H275 C270 0.929 . S
O276 Mn252 2.385 . S
O276 C254 1.234 . S
O277 Mn252 2.209 . S
O277 Mn253 2.215 . S
O277 C254 1.283 . S
O278 Mn252 2.094 . S
O278 C256 1.240 . S
O279 Mn253 2.117 . S
O279 C256 1.264 . S
C280 C273 1.403 . S
C280 C281 1.399 . S
C280 H286 0.929 . S
C281 C261 1.449 . S
C281 C280 1.399 . S
C281 H287 0.930 . S
H282 C262 0.931 . S
H283 C263 0.930 . S
H284 C271 0.931 . S
H285 C272 0.929 . S
H286 C280 0.929 . S
H287 C281 0.930 . S
H288 C296 0.929 . S
H289 C298 0.930 . S
H290 C300 0.930 . S
H291 C303 0.929 . S
H292 C306 0.930 . S
H293 C308 0.960 1_556 S
H294 C308 0.960 . S
H295 C308 0.960 . S
C296 H288 0.929 . S
C296 C297 1.377 . S
C296 C298 1.384 . S
C297 C296 1.377 . S
C297 C303 1.390 . S
C298 H289 0.930 . S
C298 C296 1.384 . S
C298 C299 1.372 . S
C299 C298 1.372 . S
C299 C300 1.400 . S
C299 C304 1.490 . S
C300 H290 0.930 . S
C300 C299 1.400 . S
C300 C303 1.386 . S
H301 C317 0.930 . S
H302 C318 0.931 . S
C303 H291 0.929 . S
C303 C297 1.390 . S
C303 C300 1.386 . S
C304 C299 1.490 . S
C304 C306 1.395 . S
C304 C307 1.403 . S
H305 C311 0.930 . S
C306 H292 0.930 . S
C306 C304 1.395 . S
C306 C309 1.403 1_554 S
C307 C304 1.403 . S
C307 C308 1.524 . S
C307 C311 1.400 1_554 S
C308 H293 0.960 1_554 S
C308 H294 0.960 . S
C308 H295 0.960 . S
C308 C307 1.524 . S
C309 C306 1.403 1_556 S
C309 C310 1.392 . S
C309 C313 1.495 . S
C310 C309 1.392 . S
C310 C311 1.385 . S
C310 C312 1.478 . S
C311 H305 0.930 . S
C311 C307 1.400 1_556 S
C311 C310 1.385 . S
C312 C310 1.478 . S
C312 C314 1.381 . S
C312 C318 1.383 . S
C313 C309 1.495 . S
C313 H319 0.959 1_556 S
C313 H320 0.961 . S
C313 H321 0.960 . S
C314 C312 1.381 . S
C314 C315 1.394 . S
C314 H322 0.930 . S
C315 C314 1.394 . S
C315 C316 1.383 . S
C315 H323 0.929 . S
C316 C315 1.383 . S
C316 C317 1.377 . S
C317 H301 0.930 . S
C317 C316 1.377 . S
C317 C318 1.379 . S
C318 H302 0.931 . S
C318 C312 1.383 . S
C318 C317 1.379 . S
H319 C313 0.959 1_554 S
H320 C313 0.961 . S
H321 C313 0.960 . S
H322 C314 0.930 . S
H323 C315 0.929 . S
H324 C332 0.929 . S
H325 C334 0.930 . S
H326 C336 0.930 . S
H327 C339 0.929 . S
H328 C342 0.930 . S
H329 C344 0.960 . S
H330 C344 0.960 . S
H331 C344 0.960 . S
C332 H324 0.929 . S
C332 C333 1.377 . S
C332 C334 1.384 . S
C333 C332 1.377 . S
C333 C339 1.390 . S
C334 H325 0.930 . S
C334 C332 1.384 . S
C334 C335 1.372 . S
C335 C334 1.372 . S
C335 C336 1.400 . S
C335 C340 1.490 . S
C336 H326 0.930 . S
C336 C335 1.400 . S
C336 C339 1.386 . S
H337 C353 0.930 . S
H338 C354 0.931 . S
C339 H327 0.929 . S
C339 C333 1.390 . S
C339 C336 1.386 . S
C340 C335 1.490 . S
C340 C342 1.395 . S
C340 C343 1.403 . S
H341 C347 0.930 . S
C342 H328 0.930 . S
C342 C340 1.395 . S
C342 C345 1.403 . S
C343 C340 1.403 . S
C343 C344 1.524 . S
C343 C347 1.400 . S
C344 H329 0.960 . S
C344 H330 0.960 . S
C344 H331 0.960 . S
C344 C343 1.524 . S
C345 C342 1.403 . S
C345 C346 1.392 . S
C345 C349 1.495 . S
C346 C345 1.392 . S
C346 C347 1.385 . S
C346 C348 1.478 . S
C347 H341 0.930 . S
C347 C343 1.400 . S
C347 C346 1.385 . S
C348 C346 1.478 . S
C348 C350 1.381 . S
C348 C354 1.383 . S
C349 C345 1.495 . S
C349 H355 0.959 . S
C349 H356 0.961 . S
C349 H357 0.960 . S
C350 C348 1.381 . S
C350 C351 1.394 . S
C350 H358 0.930 . S
C351 C350 1.394 . S
C351 C352 1.383 . S
C351 H359 0.929 . S
C352 C351 1.383 . S
C352 C353 1.377 . S
C353 H337 0.930 . S
C353 C352 1.377 . S
C353 C354 1.379 . S
C354 H338 0.931 . S
C354 C348 1.383 . S
C354 C353 1.379 . S
H355 C349 0.959 . S
H356 C349 0.961 . S
H357 C349 0.960 . S
H358 C350 0.930 . S
H359 C351 0.929 . S
H360 C368 0.929 . S
H361 C370 0.930 . S
H362 C372 0.930 . S
H363 C375 0.929 . S
H364 C378 0.930 . S
H365 C380 0.960 . S
H366 C380 0.960 . S
H367 C380 0.960 . S
C368 H360 0.929 . S
C368 C369 1.377 . S
C368 C370 1.384 . S
C369 C368 1.377 . S
C369 C375 1.390 . S
C370 H361 0.930 . S
C370 C368 1.384 . S
C370 C371 1.372 . S
C371 C370 1.372 . S
C371 C372 1.400 . S
C371 C376 1.490 . S
C372 H362 0.930 . S
C372 C371 1.400 . S
C372 C375 1.386 . S
H373 C389 0.930 . S
H374 C390 0.931 . S
C375 H363 0.929 . S
C375 C369 1.390 . S
C375 C372 1.386 . S
C376 C371 1.490 . S
C376 C378 1.395 . S
C376 C379 1.403 . S
H377 C383 0.930 . S
C378 H364 0.930 . S
C378 C376 1.395 . S
C378 C381 1.403 1_554 S
C379 C376 1.403 . S
C379 C380 1.524 . S
C379 C383 1.400 1_554 S
C380 H365 0.960 . S
C380 H366 0.960 . S
C380 H367 0.960 . S
C380 C379 1.524 . S
C381 C378 1.403 1_556 S
C381 C382 1.392 . S
C381 C385 1.495 . S
C382 C381 1.392 . S
C382 C383 1.385 . S
C382 C384 1.478 . S
C383 H377 0.930 . S
C383 C379 1.400 1_556 S
C383 C382 1.385 . S
C384 C382 1.478 . S
C384 C386 1.381 . S
C384 C390 1.383 . S
C385 C381 1.495 . S
C385 H391 0.959 . S
C385 H392 0.961 . S
C385 H393 0.960 . S
C386 C384 1.381 . S
C386 C387 1.394 . S
C386 H394 0.930 . S
C387 C386 1.394 . S
C387 C388 1.383 . S
C387 H395 0.929 . S
C388 C387 1.383 . S
C388 C389 1.377 . S
C389 H373 0.930 . S
C389 C388 1.377 . S
C389 C390 1.379 . S
C390 H374 0.931 . S
C390 C384 1.383 . S
C390 C389 1.379 . S
H391 C385 0.959 . S
H392 C385 0.961 . S
H393 C385 0.960 . S
H394 C386 0.930 . S
H395 C387 0.929 . S
H396 C404 0.929 . S
H397 C406 0.930 . S
H398 C408 0.930 . S
H399 C411 0.929 . S
H400 C414 0.930 . S
H401 C416 0.960 . S
H402 C416 0.960 . S
H403 C416 0.960 . S
C404 H396 0.929 . S
C404 C405 1.377 . S
C404 C406 1.384 . S
C405 C404 1.377 . S
C405 C411 1.390 . S
C406 H397 0.930 . S
C406 C404 1.384 . S
C406 C407 1.372 . S
C407 C406 1.372 . S
C407 C408 1.400 . S
C407 C412 1.490 . S
C408 H398 0.930 . S
C408 C407 1.400 . S
C408 C411 1.386 . S
H409 C425 0.930 . S
H410 C426 0.931 . S
C411 H399 0.929 . S
C411 C405 1.390 . S
C411 C408 1.386 . S
C412 C407 1.490 . S
C412 C414 1.395 . S
C412 C415 1.403 . S
H413 C419 0.930 . S
C414 H400 0.930 . S
C414 C412 1.395 . S
C414 C417 1.403 . S
C415 C412 1.403 . S
C415 C416 1.524 . S
C415 C419 1.400 . S
C416 H401 0.960 . S
C416 H402 0.960 . S
C416 H403 0.960 . S
C416 C415 1.524 . S
C417 C414 1.403 . S
C417 C418 1.392 . S
C417 C421 1.495 . S
C418 C417 1.392 . S
C418 C419 1.385 . S
C418 C420 1.478 . S
C419 H413 0.930 . S
C419 C415 1.400 . S
C419 C418 1.385 . S
C420 C418 1.478 . S
C420 C422 1.381 . S
C420 C426 1.383 . S
C421 C417 1.495 . S
C421 H427 0.959 . S
C421 H428 0.961 . S
C421 H429 0.960 . S
C422 C420 1.381 . S
C422 C423 1.394 . S
C422 H430 0.930 . S
C423 C422 1.394 . S
C423 C424 1.383 . S
C423 H431 0.929 . S
C424 C423 1.383 . S
C424 C425 1.377 . S
C425 H409 0.930 . S
C425 C424 1.377 . S
C425 C426 1.379 . S
C426 H410 0.931 . S
C426 C420 1.383 . S
C426 C425 1.379 . S
H427 C421 0.959 . S
H428 C421 0.961 . S
H429 C421 0.960 . S
H430 C422 0.930 . S
H431 C423 0.929 . S
H432 C440 0.929 . S
H433 C442 0.930 . S
H434 C444 0.930 . S
H435 C447 0.929 . S
H436 C450 0.930 . S
H437 C452 0.960 . S
H438 C452 0.960 . S
H439 C452 0.960 . S
C440 H432 0.929 . S
C440 C441 1.377 . S
C440 C442 1.384 . S
C441 C440 1.377 . S
C441 C447 1.390 . S
C442 H433 0.930 . S
C442 C440 1.384 . S
C442 C443 1.372 . S
C443 C442 1.372 . S
C443 C444 1.400 . S
C443 C448 1.490 . S
C444 H434 0.930 . S
C444 C443 1.400 . S
C444 C447 1.386 . S
H445 C461 0.930 . S
H446 C462 0.931 . S
C447 H435 0.929 . S
C447 C441 1.390 . S
C447 C444 1.386 . S
C448 C443 1.490 . S
C448 C450 1.395 . S
C448 C451 1.403 . S
H449 C455 0.930 . S
C450 H436 0.930 . S
C450 C448 1.395 . S
C450 C453 1.403 . S
C451 C448 1.403 . S
C451 C452 1.524 . S
C451 C455 1.400 . S
C452 H437 0.960 . S
C452 H438 0.960 . S
C452 H439 0.960 . S
C452 C451 1.524 . S
C453 C450 1.403 . S
C453 C454 1.392 . S
C453 C457 1.495 . S
C454 C453 1.392 . S
C454 C455 1.385 . S
C454 C456 1.478 . S
C455 H449 0.930 . S
C455 C451 1.400 . S
C455 C454 1.385 . S
C456 C454 1.478 . S
C456 C458 1.381 . S
C456 C462 1.383 . S
C457 C453 1.495 . S
C457 H463 0.959 . S
C457 H464 0.961 . S
C457 H465 0.960 . S
C458 C456 1.381 . S
C458 C459 1.394 . S
C458 H466 0.930 . S
C459 C458 1.394 . S
C459 C460 1.383 . S
C459 H467 0.929 . S
C460 C459 1.383 . S
C460 C461 1.377 . S
C461 H445 0.930 . S
C461 C460 1.377 . S
C461 C462 1.379 . S
C462 H446 0.931 . S
C462 C456 1.383 . S
C462 C461 1.379 . S
H463 C457 0.959 . S
H464 C457 0.961 . S
H465 C457 0.960 . S
H466 C458 0.930 . S
H467 C459 0.929 . S
H468 C476 0.929 . S
H469 C478 0.930 . S
H470 C480 0.930 . S
H471 C483 0.929 . S
H472 C486 0.930 . S
H473 C488 0.960 . S
H474 C488 0.960 . S
H475 C488 0.960 . S
C476 H468 0.929 . S
C476 C477 1.377 . S
C476 C478 1.384 . S
C477 C476 1.377 . S
C477 C483 1.390 . S
C478 H469 0.930 . S
C478 C476 1.384 . S
C478 C479 1.372 . S
C479 C478 1.372 . S
C479 C480 1.400 . S
C479 C484 1.490 . S
C480 H470 0.930 . S
C480 C479 1.400 . S
C480 C483 1.386 . S
H481 C497 0.930 . S
H482 C498 0.931 . S
C483 H471 0.929 . S
C483 C477 1.390 . S
C483 C480 1.386 . S
C484 C479 1.490 . S
C484 C486 1.395 . S
C484 C487 1.403 . S
H485 C491 0.930 . S
C486 H472 0.930 . S
C486 C484 1.395 . S
C486 C489 1.403 . S
C487 C484 1.403 . S
C487 C488 1.524 . S
C487 C491 1.400 . S
C488 H473 0.960 . S
C488 H474 0.960 . S
C488 H475 0.960 . S
C488 C487 1.524 . S
C489 C486 1.403 . S
C489 C490 1.392 . S
C489 C493 1.495 . S
C490 C489 1.392 . S
C490 C491 1.385 . S
C490 C492 1.478 . S
C491 H485 0.930 . S
C491 C487 1.400 . S
C491 C490 1.385 . S
C492 C490 1.478 . S
C492 C494 1.381 . S
C492 C498 1.383 . S
C493 C489 1.495 . S
C493 H499 0.959 . S
C493 H500 0.961 . S
C493 H501 0.960 . S
C494 C492 1.381 . S
C494 C495 1.394 . S
C494 H502 0.930 . S
C495 C494 1.394 . S
C495 C496 1.383 1_565 S
C495 H503 0.929 . S
C496 C495 1.383 1_545 S
C496 C497 1.377 . S
C497 H481 0.930 . S
C497 C496 1.377 . S
C497 C498 1.379 1_545 S
C498 H482 0.931 . S
C498 C492 1.383 . S
C498 C497 1.379 1_565 S
H499 C493 0.959 . S
H500 C493 0.961 . S
H501 C493 0.960 . S
H502 C494 0.930 . S
H503 C495 0.929 . S
H504 C512 0.929 . S
H505 C514 0.930 . S
H506 C516 0.930 . S
H507 C519 0.929 . S
H508 C522 0.930 . S
H509 C524 0.960 . S
H510 C524 0.960 . S
H511 C524 0.960 . S
C512 H504 0.929 . S
C512 C513 1.377 . S
C512 C514 1.384 . S
C513 C512 1.377 . S
C513 C519 1.390 . S
C514 H505 0.930 . S
C514 C512 1.384 . S
C514 C515 1.372 . S
C515 C514 1.372 . S
C515 C516 1.400 . S
C515 C520 1.490 . S
C516 H506 0.930 . S
C516 C515 1.400 . S
C516 C519 1.386 . S
H517 C533 0.930 . S
H518 C534 0.931 . S
C519 H507 0.929 . S
C519 C513 1.390 . S
C519 C516 1.386 . S
C520 C515 1.490 . S
C520 C522 1.395 . S
C520 C523 1.403 . S
H521 C527 0.930 . S
C522 H508 0.930 . S
C522 C520 1.395 . S
C522 C525 1.403 . S
C523 C520 1.403 . S
C523 C524 1.524 . S
C523 C527 1.400 . S
C524 H509 0.960 . S
C524 H510 0.960 . S
C524 H511 0.960 . S
C524 C523 1.524 . S
C525 C522 1.403 . S
C525 C526 1.392 . S
C525 C529 1.495 . S
C526 C525 1.392 . S
C526 C527 1.385 . S
C526 C528 1.478 . S
C527 H521 0.930 . S
C527 C523 1.400 . S
C527 C526 1.385 . S
C528 C526 1.478 . S
C528 C530 1.381 . S
C528 C534 1.383 . S
C529 C525 1.495 . S
C529 H535 0.959 . S
C529 H536 0.961 . S
C529 H537 0.960 . S
C530 C528 1.381 . S
C530 C531 1.394 . S
C530 H538 0.930 . S
C531 C530 1.394 . S
C531 C532 1.383 . S
C531 H539 0.929 . S
C532 C531 1.383 . S
C532 C533 1.377 . S
C533 H517 0.930 . S
C533 C532 1.377 . S
C533 C534 1.379 . S
C534 H518 0.931 . S
C534 C528 1.383 . S
C534 C533 1.379 . S
H535 C529 0.959 . S
H536 C529 0.961 . S
H537 C529 0.960 . S
H538 C530 0.930 . S
H539 C531 0.929 . S
H540 C548 0.929 . S
H541 C550 0.930 . S
H542 C552 0.930 . S
H543 C555 0.929 . S
H544 C558 0.930 . S
H545 C560 0.960 . S
H546 C560 0.960 . S
H547 C560 0.960 . S
C548 H540 0.929 . S
C548 C549 1.377 . S
C548 C550 1.384 . S
C549 C548 1.377 . S
C549 C555 1.390 . S
C550 H541 0.930 . S
C550 C548 1.384 . S
C550 C551 1.372 . S
C551 C550 1.372 . S
C551 C552 1.400 . S
C551 C556 1.490 . S
C552 H542 0.930 . S
C552 C551 1.400 . S
C552 C555 1.386 . S
H553 C569 0.930 1_565 S
H554 C570 0.931 . S
C555 H543 0.929 . S
C555 C549 1.390 . S
C555 C552 1.386 . S
C556 C551 1.490 . S
C556 C558 1.395 . S
C556 C559 1.403 . S
H557 C563 0.930 . S
C558 H544 0.930 . S
C558 C556 1.395 . S
C558 C561 1.403 . S
C559 C556 1.403 . S
C559 C560 1.524 . S
C559 C563 1.400 . S
C560 H545 0.960 . S
C560 H546 0.960 . S
C560 H547 0.960 . S
C560 C559 1.524 . S
C561 C558 1.403 . S
C561 C562 1.392 . S
C561 C565 1.495 . S
C562 C561 1.392 . S
C562 C563 1.385 . S
C562 C564 1.478 . S
C563 H557 0.930 . S
C563 C559 1.400 . S
C563 C562 1.385 . S
C564 C562 1.478 . S
C564 C566 1.381 . S
C564 C570 1.383 . S
C565 C561 1.495 . S
C565 H571 0.959 . S
C565 H572 0.961 . S
C565 H573 0.960 . S
C566 C564 1.381 . S
C566 C567 1.394 . S
C566 H574 0.930 . S
C567 C566 1.394 . S
C567 C568 1.383 1_545 S
C567 H575 0.929 . S
C568 C567 1.383 1_565 S
C568 C569 1.377 1_565 S
C569 H553 0.930 1_545 S
C569 C568 1.377 1_545 S
C569 C570 1.379 . S
C570 H554 0.931 . S
C570 C564 1.383 . S
C570 C569 1.379 . S
H571 C565 0.959 . S
H572 C565 0.961 . S
H573 C565 0.960 . S
H574 C566 0.930 . S
H575 C567 0.929 . S
H576 C584 0.929 . S
H577 C586 0.930 . S
H578 C588 0.930 . S
H579 C591 0.929 . S
H580 C594 0.930 . S
H581 C596 0.960 . S
H582 C596 0.960 . S
H583 C596 0.960 . S
C584 H576 0.929 . S
C584 C585 1.377 . S
C584 C586 1.384 . S
C585 C584 1.377 . S
C585 C591 1.390 . S
C586 H577 0.930 . S
C586 C584 1.384 . S
C586 C587 1.372 . S
C587 C586 1.372 . S
C587 C588 1.400 . S
C587 C592 1.490 . S
C588 H578 0.930 . S
C588 C587 1.400 . S
C588 C591 1.386 . S
H589 C605 0.930 . S
H590 C606 0.931 . S
C591 H579 0.929 . S
C591 C585 1.390 . S
C591 C588 1.386 . S
C592 C587 1.490 . S
C592 C594 1.395 . S
C592 C595 1.403 . S
H593 C599 0.930 . S
C594 H580 0.930 . S
C594 C592 1.395 . S
C594 C597 1.403 . S
C595 C592 1.403 . S
C595 C596 1.524 . S
C595 C599 1.400 . S
C596 H581 0.960 . S
C596 H582 0.960 . S
C596 H583 0.960 . S
C596 C595 1.524 . S
C597 C594 1.403 . S
C597 C598 1.392 . S
C597 C601 1.495 . S
C598 C597 1.392 . S
C598 C599 1.385 . S
C598 C600 1.478 . S
C599 H593 0.930 . S
C599 C595 1.400 . S
C599 C598 1.385 . S
C600 C598 1.478 . S
C600 C602 1.381 . S
C600 C606 1.383 . S
C601 C597 1.495 . S
C601 H607 0.959 . S
C601 H608 0.961 . S
C601 H609 0.960 . S
C602 C600 1.381 . S
C602 C603 1.394 1_655 S
C602 H610 0.930 . S
C603 C602 1.394 1_455 S
C603 C604 1.383 . S
C603 H611 0.929 . S
C604 C603 1.383 . S
C604 C605 1.377 1_455 S
C605 H589 0.930 . S
C605 C604 1.377 1_655 S
C605 C606 1.379 . S
C606 H590 0.931 . S
C606 C600 1.383 . S
C606 C605 1.379 . S
H607 C601 0.959 . S
H608 C601 0.961 . S
H609 C601 0.960 . S
H610 C602 0.930 . S
H611 C603 0.929 . S
H612 C620 0.929 . S
H613 C622 0.930 . S
H614 C624 0.930 . S
H615 C627 0.929 . S
H616 C630 0.930 . S
H617 C632 0.960 . S
H618 C632 0.960 . S
H619 C632 0.960 . S
C620 H612 0.929 . S
C620 C621 1.377 . S
C620 C622 1.384 . S
C621 C620 1.377 . S
C621 C627 1.390 . S
C622 H613 0.930 . S
C622 C620 1.384 . S
C622 C623 1.372 . S
C623 C622 1.372 . S
C623 C624 1.400 . S
C623 C628 1.490 . S
C624 H614 0.930 . S
C624 C623 1.400 . S
C624 C627 1.386 . S
H625 C641 0.930 . S
H626 C642 0.931 . S
C627 H615 0.929 . S
C627 C621 1.390 . S
C627 C624 1.386 . S
C628 C623 1.490 . S
C628 C630 1.395 . S
C628 C631 1.403 . S
H629 C635 0.930 . S
C630 H616 0.930 . S
C630 C628 1.395 . S
C630 C633 1.403 . S
C631 C628 1.403 . S
C631 C632 1.524 . S
C631 C635 1.400 . S
C632 H617 0.960 . S
C632 H618 0.960 . S
C632 H619 0.960 . S
C632 C631 1.524 . S
C633 C630 1.403 . S
C633 C634 1.392 . S
C633 C637 1.495 . S
C634 C633 1.392 . S
C634 C635 1.385 . S
C634 C636 1.478 . S
C635 H629 0.930 . S
C635 C631 1.400 . S
C635 C634 1.385 . S
C636 C634 1.478 . S
C636 C638 1.381 . S
C636 C642 1.383 . S
C637 C633 1.495 . S
C637 H643 0.959 . S
C637 H644 0.961 . S
C637 H645 0.960 . S
C638 C636 1.381 . S
C638 C639 1.394 . S
C638 H646 0.930 . S
C639 C638 1.394 . S
C639 C640 1.383 . S
C639 H647 0.929 . S
C640 C639 1.383 . S
C640 C641 1.377 . S
C641 H625 0.930 . S
C641 C640 1.377 . S
C641 C642 1.379 . S
C642 H626 0.931 . S
C642 C636 1.383 . S
C642 C641 1.379 . S
H643 C637 0.959 . S
H644 C637 0.961 . S
H645 C637 0.960 . S
H646 C638 0.930 . S
H647 C639 0.929 . S
H648 C656 0.929 . S
H649 C658 0.930 . S
H650 C660 0.930 . S
H651 C663 0.929 . S
H652 C666 0.930 . S
H653 C668 0.960 . S
H654 C668 0.960 . S
H655 C668 0.960 . S
C656 H648 0.929 . S
C656 C657 1.377 . S
C656 C658 1.384 . S
C657 C656 1.377 . S
C657 C663 1.390 . S
C658 H649 0.930 . S
C658 C656 1.384 . S
C658 C659 1.372 . S
C659 C658 1.372 . S
C659 C660 1.400 . S
C659 C664 1.490 . S
C660 H650 0.930 . S
C660 C659 1.400 . S
C660 C663 1.386 . S
H661 C677 0.930 . S
H662 C678 0.931 . S
C663 H651 0.929 . S
C663 C657 1.390 . S
C663 C660 1.386 . S
C664 C659 1.490 . S
C664 C666 1.395 . S
C664 C667 1.403 . S
H665 C671 0.930 . S
C666 H652 0.930 . S
C666 C664 1.395 . S
C666 C669 1.403 . S
C667 C664 1.403 . S
C667 C668 1.524 . S
C667 C671 1.400 . S
C668 H653 0.960 . S
C668 H654 0.960 . S
C668 H655 0.960 . S
C668 C667 1.524 . S
C669 C666 1.403 . S
C669 C670 1.392 . S
C669 C673 1.495 . S
C670 C669 1.392 . S
C670 C671 1.385 . S
C670 C672 1.478 . S
C671 H665 0.930 . S
C671 C667 1.400 . S
C671 C670 1.385 . S
C672 C670 1.478 . S
C672 C674 1.381 . S
C672 C678 1.383 . S
C673 C669 1.495 . S
C673 H679 0.959 . S
C673 H680 0.961 . S
C673 H681 0.960 . S
C674 C672 1.381 . S
C674 C675 1.394 1_455 S
C674 H682 0.930 . S
C675 C674 1.394 1_655 S
C675 C676 1.383 . S
C675 H683 0.929 . S
C676 C675 1.383 . S
C676 C677 1.377 1_655 S
C677 H661 0.930 . S
C677 C676 1.377 1_455 S
C677 C678 1.379 . S
C678 H662 0.931 . S
C678 C672 1.383 . S
C678 C677 1.379 . S
H679 C673 0.959 . S
H680 C673 0.961 . S
H681 C673 0.960 . S
H682 C674 0.930 . S
H683 C675 0.929 . S
H684 C692 0.929 . S
H685 C694 0.930 . S
H686 C696 0.930 . S
H687 C699 0.929 . S
H688 C702 0.930 . S
H689 C704 0.960 . S
H690 C704 0.960 . S
H691 C704 0.960 . S
C692 H684 0.929 . S
C692 C693 1.377 . S
C692 C694 1.384 . S
C693 C692 1.377 . S
C693 C699 1.390 . S
C694 H685 0.930 . S
C694 C692 1.384 . S
C694 C695 1.372 . S
C695 C694 1.372 . S
C695 C696 1.400 . S
C695 C700 1.490 . S
C696 H686 0.930 . S
C696 C695 1.400 . S
C696 C699 1.386 . S
H697 C713 0.930 . S
H698 C714 0.931 . S
C699 H687 0.929 . S
C699 C693 1.390 . S
C699 C696 1.386 . S
C700 C695 1.490 . S
C700 C702 1.395 . S
C700 C703 1.403 . S
H701 C707 0.930 . S
C702 H688 0.930 . S
C702 C700 1.395 . S
C702 C705 1.403 . S
C703 C700 1.403 . S
C703 C704 1.524 . S
C703 C707 1.400 . S
C704 H689 0.960 . S
C704 H690 0.960 . S
C704 H691 0.960 . S
C704 C703 1.524 . S
C705 C702 1.403 . S
C705 C706 1.392 . S
C705 C709 1.495 . S
C706 C705 1.392 . S
C706 C707 1.385 . S
C706 C708 1.478 . S
C707 H701 0.930 . S
C707 C703 1.400 . S
C707 C706 1.385 . S
C708 C706 1.478 . S
C708 C710 1.381 . S
C708 C714 1.383 . S
C709 C705 1.495 . S
C709 H715 0.959 . S
C709 H716 0.961 . S
C709 H717 0.960 . S
C710 C708 1.381 . S
C710 C711 1.394 . S
C710 H718 0.930 . S
C711 C710 1.394 . S
C711 C712 1.383 . S
C711 H719 0.929 . S
C712 C711 1.383 . S
C712 C713 1.377 . S
C713 H697 0.930 . S
C713 C712 1.377 . S
C713 C714 1.379 . S
C714 H698 0.931 . S
C714 C708 1.383 . S
C714 C713 1.379 . S
H715 C709 0.959 . S
H716 C709 0.961 . S
H717 C709 0.960 . S
H718 C710 0.930 . S
H719 C711 0.929 . S
H720 C728 0.929 . S
H721 C730 0.930 . S
H722 C732 0.930 . S
H723 C735 0.929 . S
H724 C738 0.930 . S
H725 C740 0.960 . S
H726 C740 0.960 . S
H727 C740 0.960 . S
C728 H720 0.929 . S
C728 C729 1.377 . S
C728 C730 1.384 . S
C729 C728 1.377 . S
C729 C735 1.390 . S
C730 H721 0.930 . S
C730 C728 1.384 . S
C730 C731 1.372 . S
C731 C730 1.372 . S
C731 C732 1.400 . S
C731 C736 1.490 . S
C732 H722 0.930 . S
C732 C731 1.400 . S
C732 C735 1.386 . S
H733 C749 0.930 . S
H734 C750 0.931 . S
C735 H723 0.929 . S
C735 C729 1.390 . S
C735 C732 1.386 . S
C736 C731 1.490 . S
C736 C738 1.395 1_655 S
C736 C739 1.403 . S
H737 C743 0.930 . S
C738 H724 0.930 . S
C738 C736 1.395 1_455 S
C738 C741 1.403 . S
C739 C736 1.403 . S
C739 C740 1.524 . S
C739 C743 1.400 . S
C740 H725 0.960 . S
C740 H726 0.960 . S
C740 H727 0.960 . S
C740 C739 1.524 . S
C741 C738 1.403 . S
C741 C742 1.392 . S
C741 C745 1.495 . S
C742 C741 1.392 . S
C742 C743 1.385 1_455 S
C742 C744 1.478 . S
C743 H737 0.930 . S
C743 C739 1.400 . S
C743 C742 1.385 1_655 S
C744 C742 1.478 . S
C744 C746 1.381 . S
C744 C750 1.383 . S
C745 C741 1.495 . S
C745 H751 0.959 . S
C745 H752 0.961 . S
C745 H753 0.960 . S
C746 C744 1.381 . S
C746 C747 1.394 . S
C746 H754 0.930 . S
C747 C746 1.394 . S
C747 C748 1.383 . S
C747 H755 0.929 . S
C748 C747 1.383 . S
C748 C749 1.377 . S
C749 H733 0.930 . S
C749 C748 1.377 . S
C749 C750 1.379 . S
C750 H734 0.931 . S
C750 C744 1.383 . S
C750 C749 1.379 . S
H751 C745 0.959 . S
H752 C745 0.961 . S
H753 C745 0.960 . S
H754 C746 0.930 . S
H755 C747 0.929 . S
H756 C764 0.929 . S
H757 C766 0.930 . S
H758 C768 0.930 . S
H759 C771 0.929 . S
H760 C774 0.930 . S
H761 C776 0.960 . S
H762 C776 0.960 1_655 S
H763 C776 0.960 1_655 S
C764 H756 0.929 . S
C764 C765 1.377 . S
C764 C766 1.384 . S
C765 C764 1.377 . S
C765 C771 1.390 . S
C766 H757 0.930 . S
C766 C764 1.384 . S
C766 C767 1.372 . S
C767 C766 1.372 . S
C767 C768 1.400 . S
C767 C772 1.490 . S
C768 H758 0.930 . S
C768 C767 1.400 . S
C768 C771 1.386 . S
H769 C785 0.930 . S
H770 C786 0.931 . S
C771 H759 0.929 . S
C771 C765 1.390 . S
C771 C768 1.386 . S
C772 C767 1.490 . S
C772 C774 1.395 . S
C772 C775 1.400 . S
H773 C779 0.930 . S
C774 H760 0.930 . S
C774 C772 1.395 . S
C774 C777 1.403 . S
C775 C772 1.400 . S
C775 C776 1.524 1_655 S
C775 C779 1.402 1_655 S
C776 H761 0.960 . S
C776 H762 0.960 1_455 S
C776 H763 0.960 1_455 S
C776 C775 1.524 1_455 S
C777 C774 1.403 . S
C777 C778 1.392 1_655 S
C777 C781 1.495 . S
C778 C777 1.392 1_455 S
C778 C779 1.385 . S
C778 C780 1.478 . S
C779 H773 0.930 . S
C779 C775 1.402 1_455 S
C779 C778 1.385 . S
C780 C778 1.478 . S
C780 C782 1.381 . S
C780 C786 1.383 . S
C781 C777 1.495 . S
C781 H787 0.959 . S
C781 H788 0.961 1_655 S
C781 H789 0.954 1_655 S
C782 C780 1.381 . S
C782 C783 1.394 . S
C782 H790 0.930 . S
C783 C782 1.394 . S
C783 C784 1.383 . S
C783 H791 0.929 . S
C784 C783 1.383 . S
C784 C785 1.377 . S
C785 H769 0.930 . S
C785 C784 1.377 . S
C785 C786 1.379 . S
C786 H770 0.931 . S
C786 C780 1.383 . S
C786 C785 1.379 . S
H787 C781 0.959 . S
H788 C781 0.961 1_455 S
H789 C781 0.954 1_455 S
H790 C782 0.930 . S
H791 C783 0.929 . S
H792 C800 0.929 . S
H793 C802 0.930 . S
H794 C804 0.930 . S
H795 C807 0.929 . S
H796 C810 0.930 . S
H797 C812 0.960 . S
H798 C812 0.960 . S
H799 C812 0.960 . S
C800 H792 0.929 . S
C800 C801 1.377 . S
C800 C802 1.384 . S
C801 C800 1.377 . S
C801 C807 1.390 . S
C802 H793 0.930 . S
C802 C800 1.384 . S
C802 C803 1.372 . S
C803 C802 1.372 . S
C803 C804 1.400 . S
C803 C808 1.490 . S
C804 H794 0.930 . S
C804 C803 1.400 . S
C804 C807 1.386 . S
H805 C821 0.930 . S
H806 C822 0.931 . S
C807 H795 0.929 . S
C807 C801 1.390 . S
C807 C804 1.386 . S
C808 C803 1.490 . S
C808 C810 1.395 . S
C808 C811 1.403 . S
H809 C815 0.930 . S
C810 H796 0.930 . S
C810 C808 1.395 . S
C810 C813 1.403 1_545 S
C811 C808 1.403 . S
C811 C812 1.524 . S
C811 C815 1.400 1_545 S
C812 H797 0.960 . S
C812 H798 0.960 . S
C812 H799 0.960 . S
C812 C811 1.524 . S
C813 C810 1.403 1_565 S
C813 C814 1.392 . S
C813 C817 1.495 . S
C814 C813 1.392 . S
C814 C815 1.385 . S
C814 C816 1.478 . S
C815 H809 0.930 . S
C815 C811 1.400 1_565 S
C815 C814 1.385 . S
C816 C814 1.478 . S
C816 C818 1.381 . S
C816 C822 1.383 . S
C817 C813 1.495 . S
C817 H823 0.959 . S
C817 H824 0.961 . S
C817 H825 0.960 . S
C818 C816 1.381 . S
C818 C819 1.394 . S
C818 H826 0.930 . S
C819 C818 1.394 . S
C819 C820 1.383 . S
C819 H827 0.929 . S
C820 C819 1.383 . S
C820 C821 1.377 . S
C821 H805 0.930 . S
C821 C820 1.377 . S
C821 C822 1.379 . S
C822 H806 0.931 . S
C822 C816 1.383 . S
C822 C821 1.379 . S
H823 C817 0.959 . S
H824 C817 0.961 . S
H825 C817 0.960 . S
H826 C818 0.930 . S
H827 C819 0.929 . S
H828 C836 0.929 . S
H829 C838 0.930 . S
H830 C840 0.930 1_565 S
H831 C843 0.929 . S
H832 C846 0.930 . S
H833 C848 0.968 . S
H834 C848 0.949 1_545 S
H835 C848 0.965 . S
C836 H828 0.929 . S
C836 C837 1.377 . S
C836 C838 1.384 . S
C837 C836 1.377 . S
C837 C843 1.390 . S
C838 H829 0.930 . S
C838 C836 1.384 . S
C838 C839 1.372 . S
C839 C838 1.372 . S
C839 C840 1.400 . S
C839 C844 1.490 . S
C840 H830 0.930 1_545 S
C840 C839 1.400 . S
C840 C843 1.386 . S
H841 C857 0.930 . S
H842 C858 0.931 . S
C843 H831 0.929 . S
C843 C837 1.390 . S
C843 C840 1.386 . S
C844 C839 1.490 . S
C844 C846 1.395 . S
C844 C847 1.403 . S
H845 C851 0.930 . S
C846 H832 0.930 . S
C846 C844 1.395 . S
C846 C849 1.403 . S
C847 C844 1.403 . S
C847 C848 1.523 1_545 S
C847 C851 1.400 1_545 S
C848 H833 0.968 . S
C848 H834 0.949 1_565 S
C848 H835 0.965 . S
C848 C847 1.523 1_565 S
C849 C846 1.403 . S
C849 C850 1.392 1_545 S
C849 C853 1.495 . S
C850 C849 1.392 1_565 S
C850 C851 1.385 . S
C850 C852 1.478 . S
C851 H845 0.930 . S
C851 C847 1.400 1_565 S
C851 C850 1.385 . S
C852 C850 1.478 . S
C852 C854 1.381 . S
C852 C858 1.383 . S
C853 C849 1.495 . S
C853 H859 0.959 . S
C853 H860 0.961 1_545 S
C853 H861 0.960 . S
C854 C852 1.381 . S
C854 C855 1.394 . S
C854 H862 0.930 1_565 S
C855 C854 1.394 . S
C855 C856 1.383 . S
C855 H863 0.929 . S
C856 C855 1.383 . S
C856 C857 1.377 . S
C857 H841 0.930 . S
C857 C856 1.377 . S
C857 C858 1.379 . S
C858 H842 0.931 . S
C858 C852 1.383 . S
C858 C857 1.379 . S
H859 C853 0.959 . S
H860 C853 0.961 1_565 S
H861 C853 0.960 . S
H862 C854 0.930 1_545 S
H863 C855 0.929 . S
C297 C4 1.312 . S
C316 C184 1.312 . S
C333 C40 1.317 . S
C352 C220 1.310 . S
C369 C76 1.317 . S
C388 C256 1.318 . S
C405 C148 1.317 . S
C424 C112 1.319 . S
C441 C14 1.592 . S
C460 C147 1.647 . S
C477 C50 1.597 . S
C496 C183 1.642 . S
C513 C219 1.660 . S
C532 C86 1.577 . S
C549 C122 1.601 . S
C568 C255 1.648 . S
C585 C158 1.601 . S
C604 C3 1.661 . S
C621 C39 1.659 . S
C640 C194 1.619 . S
C657 C230 1.601 . S
C676 C75 1.660 . S
C693 C111 1.660 . S
C712 C266 1.570 . S
C729 C74 0.305 . S
C748 C2 0.389 . S
C765 C110 0.297 . S
C784 C38 0.378 . S
C801 C146 0.295 . S
C820 C218 0.239 . S
C837 C182 0.305 . S
C856 C254 0.295 . S
