# Generated by pormake.
# Topology gis, (4)-cn, num edge types: 1
# Building blocks:
#     Node 0, Type 0, BuildingBlock: KUFVIS_clean_sbu_0, # of connection points: 4
#     Node 1, Type 0, BuildingBlock: KUFVIS_clean_sbu_0, # of connection points: 4
#     Node 2, Type 0, BuildingBlock: KUFVIS_clean_sbu_0, # of connection points: 4
#     Node 3, Type 0, BuildingBlock: KUFVIS_clean_sbu_0, # of connection points: 4
#     Node 4, Type 0, BuildingBlock: KUFVIS_clean_sbu_0, # of connection points: 4
#     Node 5, Type 0, BuildingBlock: KUFVIS_clean_sbu_0, # of connection points: 4
#     Node 6, Type 0, BuildingBlock: KUFVIS_clean_sbu_0, # of connection points: 4
#     Node 7, Type 0, BuildingBlock: KUFVIS_clean_sbu_0, # of connection points: 4
#     Node 8, Type 0, BuildingBlock: KUFVIS_clean_sbu_0, # of connection points: 4
#     Node 9, Type 0, BuildingBlock: KUFVIS_clean_sbu_0, # of connection points: 4
#     Node 10, Type 0, BuildingBlock: KUFVIS_clean_sbu_0, # of connection points: 4
#     Node 11, Type 0, BuildingBlock: KUFVIS_clean_sbu_0, # of connection points: 4
#     Node 12, Type 0, BuildingBlock: KUFVIS_clean_sbu_0, # of connection points: 4
#     Node 13, Type 0, BuildingBlock: KUFVIS_clean_sbu_0, # of connection points: 4
#     Node 14, Type 0, BuildingBlock: KUFVIS_clean_sbu_0, # of connection points: 4
#     Node 15, Type 0, BuildingBlock: KUFVIS_clean_sbu_0, # of connection points: 4
#     Edge 16, Type (0, 0), BuildingBlock: AJUNOK_clean_linker_0, # of connection points: 2
#     Edge 17, Type (0, 0), BuildingBlock: AJUNOK_clean_linker_0, # of connection points: 2
#     Edge 18, Type (0, 0), BuildingBlock: AJUNOK_clean_linker_0, # of connection points: 2
#     Edge 19, Type (0, 0), BuildingBlock: AJUNOK_clean_linker_0, # of connection points: 2
#     Edge 20, Type (0, 0), BuildingBlock: AJUNOK_clean_linker_0, # of connection points: 2
#     Edge 21, Type (0, 0), BuildingBlock: AJUNOK_clean_linker_0, # of connection points: 2
#     Edge 22, Type (0, 0), BuildingBlock: AJUNOK_clean_linker_0, # of connection points: 2
#     Edge 23, Type (0, 0), BuildingBlock: AJUNOK_clean_linker_0, # of connection points: 2
#     Edge 24, Type (0, 0), BuildingBlock: AJUNOK_clean_linker_0, # of connection points: 2
#     Edge 25, Type (0, 0), BuildingBlock: AJUNOK_clean_linker_0, # of connection points: 2
#     Edge 26, Type (0, 0), BuildingBlock: AJUNOK_clean_linker_0, # of connection points: 2
#     Edge 27, Type (0, 0), BuildingBlock: AJUNOK_clean_linker_0, # of connection points: 2
#     Edge 28, Type (0, 0), BuildingBlock: AJUNOK_clean_linker_0, # of connection points: 2
#     Edge 29, Type (0, 0), BuildingBlock: AJUNOK_clean_linker_0, # of connection points: 2
#     Edge 30, Type (0, 0), BuildingBlock: AJUNOK_clean_linker_0, # of connection points: 2
#     Edge 31, Type (0, 0), BuildingBlock: AJUNOK_clean_linker_0, # of connection points: 2
#     Edge 32, Type (0, 0), BuildingBlock: AJUNOK_clean_linker_0, # of connection points: 2
#     Edge 33, Type (0, 0), BuildingBlock: AJUNOK_clean_linker_0, # of connection points: 2
#     Edge 34, Type (0, 0), BuildingBlock: AJUNOK_clean_linker_0, # of connection points: 2
#     Edge 35, Type (0, 0), BuildingBlock: AJUNOK_clean_linker_0, # of connection points: 2
#     Edge 36, Type (0, 0), BuildingBlock: AJUNOK_clean_linker_0, # of connection points: 2
#     Edge 37, Type (0, 0), BuildingBlock: AJUNOK_clean_linker_0, # of connection points: 2
#     Edge 38, Type (0, 0), BuildingBlock: AJUNOK_clean_linker_0, # of connection points: 2
#     Edge 39, Type (0, 0), BuildingBlock: AJUNOK_clean_linker_0, # of connection points: 2
#     Edge 40, Type (0, 0), BuildingBlock: AJUNOK_clean_linker_0, # of connection points: 2
#     Edge 41, Type (0, 0), BuildingBlock: AJUNOK_clean_linker_0, # of connection points: 2
#     Edge 42, Type (0, 0), BuildingBlock: AJUNOK_clean_linker_0, # of connection points: 2
#     Edge 43, Type (0, 0), BuildingBlock: AJUNOK_clean_linker_0, # of connection points: 2
#     Edge 44, Type (0, 0), BuildingBlock: AJUNOK_clean_linker_0, # of connection points: 2
#     Edge 45, Type (0, 0), BuildingBlock: AJUNOK_clean_linker_0, # of connection points: 2
#     Edge 46, Type (0, 0), BuildingBlock: AJUNOK_clean_linker_0, # of connection points: 2
#     Edge 47, Type (0, 0), BuildingBlock: AJUNOK_clean_linker_0, # of connection points: 2
# Relax obj value: 0.089
# Max RMSD: 0.143
# Mean RMSD: 0.139
data_MOF--net-gis--node1-KUFVIS_clean_sbu_0--edge1-AJUNOK_clean_linker_0
_symmetry_space_group_name_H-M    P1
_symmetry_Int_Tables_number       1
_symmetry_cell_setting            triclinic
loop_
_symmetry_equiv_pos_as_xyz
'x, y, z'
_cell_length_a     36.852154
_cell_length_b     39.352551
_cell_length_c     28.138381
_cell_angle_alpha  90.731606
_cell_angle_beta   90.298687
_cell_angle_gamma 89.708617
loop_
_atom_site_label
_atom_site_type_symbol
_atom_site_fract_x
_atom_site_fract_y
_atom_site_fract_z
_atom_type_partial_charge
Mn0 Mn 0.14156 0.6108 0.10927 0.0
Mn1 Mn 0.10594 0.65467 0.20218 0.0
C2 C 0.08015 0.62214 0.11089 0.0
C3 C 0.1571 0.55824 0.07425 0.0
C4 C 0.14667 0.68824 0.12187 0.0
O5 O 0.18164 0.60831 0.15937 0.0
O6 O 0.15459 0.63615 0.21997 0.0
C7 C 0.09585 0.59734 0.26776 0.0
N8 N 0.08174 0.62402 0.24333 0.0
C9 C 0.0226 0.61518 0.27667 0.0
C10 C 0.03656 0.58776 0.30247 0.0
C11 C 0.07331 0.57872 0.29782 0.0
C12 C 0.04636 0.63278 0.24723 0.0
H13 H 0.12409 0.59033 0.26434 0.0
C14 C 0.18143 0.61959 0.20217 0.0
O15 O 0.17174 0.58632 0.06004 0.0
O16 O 0.13527 0.5608 0.10999 0.0
N17 N 0.05884 0.67386 0.19092 0.0
C18 C 0.0492 0.69989 0.16189 0.0
C19 C 0.01278 0.71061 0.16019 0.0
C20 C 0.98698 0.69541 0.1895 0.0
C21 C 0.9977 0.66921 0.21985 0.0
C22 C 0.03423 0.65917 0.21951 0.0
H23 H 0.06894 0.7118 0.13936 0.0
O24 O 0.0963 0.61477 0.07127 0.0
O25 O 0.10037 0.62229 0.14905 0.0
O26 O 0.15342 0.66142 0.09719 0.0
O27 O 0.12962 0.68825 0.16129 0.0
C28 C 0.97341 0.65219 0.24969 0.0
C29 C 0.98586 0.62524 0.27817 0.0
H30 H 0.01923 0.57325 0.32555 0.0
H31 H 0.08424 0.55746 0.31738 0.0
H32 H 0.00438 0.73009 0.13577 0.0
H33 H 0.95895 0.70375 0.18796 0.0
H34 H 0.945 0.65937 0.25061 0.0
H35 H 0.96683 0.61206 0.30053 0.0
Mn36 Mn 0.67095 0.9 0.37672 0.0
Mn37 Mn 0.64429 0.86761 0.48202 0.0
C38 C 0.66835 0.84165 0.38542 0.0
C39 C 0.71572 0.91871 0.32491 0.0
C40 C 0.59212 0.89782 0.41024 0.0
O41 O 0.67496 0.9408 0.42208 0.0
O42 O 0.6616 0.91492 0.49063 0.0
C43 C 0.71471 0.86565 0.5328 0.0
N44 N 0.68436 0.84951 0.51676 0.0
C45 C 0.70053 0.7985 0.5582 0.0
C46 C 0.73192 0.81461 0.57539 0.0
C47 C 0.73915 0.84826 0.56238 0.0
C48 C 0.67737 0.81702 0.52855 0.0
H49 H 0.72006 0.89165 0.52331 0.0
C50 C 0.67124 0.94104 0.46724 0.0
O51 O 0.68204 0.92773 0.31971 0.0
O52 O 0.72379 0.90115 0.36228 0.0
N53 N 0.62647 0.82207 0.47983 0.0
C54 C 0.59568 0.8099 0.4588 0.0
C55 C 0.58559 0.77599 0.46595 0.0
C56 C 0.60667 0.75526 0.49572 0.0
C57 C 0.63773 0.76863 0.51795 0.0
C58 C 0.64671 0.80246 0.50893 0.0
H59 H 0.5791 0.82589 0.43647 0.0
O60 O 0.66817 0.85553 0.34393 0.0
O61 O 0.67098 0.86239 0.42184 0.0
O62 O 0.61494 0.90387 0.37747 0.0
O63 O 0.60074 0.88509 0.45013 0.0
C64 C 0.6603 0.74966 0.54841 0.0
C65 C 0.69161 0.76461 0.56865 0.0
H66 H 0.75079 0.80131 0.5983 0.0
H67 H 0.76335 0.86084 0.5754 0.0
H68 H 0.56151 0.76591 0.44881 0.0
H69 H 0.59876 0.72914 0.50123 0.0
H70 H 0.65402 0.72346 0.55615 0.0
H71 H 0.70896 0.74965 0.59157 0.0
Mn72 Mn 0.36145 0.38928 0.59506 0.0
Mn73 Mn 0.38435 0.36704 0.70392 0.0
C74 C 0.4241 0.37462 0.60632 0.0
C75 C 0.34876 0.43789 0.5499 0.0
C76 C 0.33561 0.32548 0.63655 0.0
O77 O 0.31831 0.40121 0.63955 0.0
O78 O 0.35479 0.40879 0.70081 0.0
C79 C 0.42884 0.42722 0.73054 0.0
N80 N 0.42513 0.39292 0.72725 0.0
C81 C 0.49116 0.38719 0.76371 0.0
C82 C 0.49266 0.42353 0.75842 0.0
C83 C 0.46189 0.44223 0.74441 0.0
C84 C 0.45148 0.37218 0.74195 0.0
H85 H 0.40699 0.44373 0.71945 0.0
C86 C 0.32344 0.41115 0.68236 0.0
O87 O 0.33408 0.40878 0.53964 0.0
O88 O 0.3711 0.4387 0.58557 0.0
N89 N 0.41211 0.32553 0.7156 0.0
C90 C 0.40282 0.29278 0.70567 0.0
C91 C 0.41798 0.26486 0.72981 0.0
C92 C 0.44615 0.26795 0.76326 0.0
C93 C 0.46194 0.29935 0.77223 0.0
C94 C 0.43969 0.33208 0.74525 0.0
H95 H 0.38422 0.28739 0.67772 0.0
O96 O 0.41033 0.3781 0.56416 0.0
O97 O 0.39994 0.37707 0.63954 0.0
O98 O 0.34543 0.33969 0.59792 0.0
O99 O 0.34288 0.33852 0.67802 0.0
C100 C 0.50307 0.30072 0.80048 0.0
C101 C 0.52726 0.33781 0.80503 0.0
H102 H 0.51618 0.43879 0.76678 0.0
H103 H 0.46385 0.46966 0.74347 0.0
H104 H 0.40798 0.23973 0.72106 0.0
H105 H 0.45771 0.24529 0.77876 0.0
H106 H 0.51457 0.27767 0.81485 0.0
H107 H 0.5532 0.33711 0.82409 0.0
Mn108 Mn 0.86238 0.11419 0.89844 0.0
Mn109 Mn 0.88781 0.15485 0.79958 0.0
C110 C 0.92357 0.12593 0.889 0.0
C111 C 0.84816 0.06399 0.93656 0.0
C112 C 0.85175 0.18953 0.88448 0.0
O113 O 0.81782 0.11152 0.85442 0.0
O114 O 0.84064 0.13276 0.78706 0.0
C115 C 0.8941 0.104 0.72121 0.0
N116 N 0.91083 0.12711 0.75031 0.0
C117 C 0.96216 0.12942 0.68543 0.0
C118 C 0.94182 0.10595 0.65951 0.0
C119 C 0.90917 0.09324 0.6775 0.0
C120 C 0.94303 0.14018 0.73847 0.0
H121 H 0.86803 0.09387 0.73077 0.0
C122 C 0.81512 0.11886 0.81037 0.0
O123 O 0.8358 0.09307 0.95178 0.0
O124 O 0.86735 0.0639 0.89804 0.0
N125 N 0.93278 0.17758 0.81002 0.0
C126 C 0.93855 0.20498 0.83892 0.0
C127 C 0.97259 0.21993 0.84337 0.0
C128 C 0.00213 0.21 0.81562 0.0
C129 C 0.99793 0.18631 0.77648 0.0
C130 C 0.95805 0.16638 0.77986 0.0
H131 H 0.91755 0.21474 0.86164 0.0
O132 O 0.91031 0.11849 0.93007 0.0
O133 O 0.90079 0.12409 0.85267 0.0
O134 O 0.85203 0.16481 0.91318 0.0
O135 O 0.86297 0.18701 0.84203 0.0
C136 C 0.02986 0.17042 0.69494 0.0
C137 C 0.00284 0.14259 0.66352 0.0
H138 H 0.95152 0.09682 0.6254 0.0
H139 H 0.89436 0.07484 0.65617 0.0
H140 H 0.97629 0.23932 0.87054 0.0
H141 H 0.02668 0.22324 0.82457 0.0
H142 H 0.05521 0.17867 0.67875 0.0
H143 H 0.01181 0.13333 0.62916 0.0
Mn144 Mn 0.16676 0.3932 0.87145 0.0
Mn145 Mn 0.14245 0.35405 0.97254 0.0
C146 C 0.17352 0.33437 0.87578 0.0
C147 C 0.20948 0.41755 0.82117 0.0
C148 C 0.0878 0.37852 0.89975 0.0
O149 O 0.1664 0.43279 0.91899 0.0
O150 O 0.15055 0.40364 0.98365 0.0
C151 C 0.20772 0.36314 0.03289 0.0
N152 N 0.18215 0.34252 0.01292 0.0
C153 C 0.19863 0.29649 0.06437 0.0
C154 C 0.22532 0.31716 0.08538 0.0
C155 C 0.23006 0.35053 0.06931 0.0
C156 C 0.17749 0.31033 0.02793 0.0
H157 H 0.21057 0.38913 0.02164 0.0
C158 C 0.15924 0.43137 0.96327 0.0
O159 O 0.17503 0.42326 0.81561 0.0
O160 O 0.21916 0.40007 0.85788 0.0
N161 N 0.13363 0.30637 0.96852 0.0
C162 C 0.1099 0.28885 0.9403 0.0
C163 C 0.10401 0.25421 0.94871 0.0
C164 C 0.12219 0.23818 0.98642 0.0
C165 C 0.14674 0.25677 0.01468 0.0
C166 C 0.15191 0.29103 1.00405 0.0
H167 H 0.0958 0.30126 0.91153 0.0
O168 O 0.16923 0.3501 0.83604 0.0
O169 O 0.17284 0.35362 0.91429 0.0
O170 O 0.11023 0.39183 0.87104 0.0
O171 O 0.09802 0.36381 0.93733 0.0
C172 C 0.16686 0.24257 0.05234 0.0
C173 C 0.19267 0.26246 0.07733 0.0
H174 H 0.2425 0.30759 0.1136 0.0
H175 H 0.25052 0.36665 0.08545 0.0
H176 H 0.08529 0.23996 0.92647 0.0
H177 H 0.11747 0.2115 0.99292 0.0
H178 H 0.16324 0.21621 0.06176 0.0
H179 H 0.20845 0.25108 0.10559 0.0
Mn180 Mn 0.86591 0.89442 0.09522 0.0
Mn181 Mn 0.88505 0.87157 0.20518 0.0
C182 C 0.92738 0.87784 0.10647 0.0
C183 C 0.85513 0.94297 0.05066 0.0
C184 C 0.84208 0.83054 0.13294 0.0
O185 O 0.82188 0.90588 0.13823 0.0
O186 O 0.86007 0.91519 0.19591 0.0
C187 C 0.93355 0.92863 0.23299 0.0
N188 N 0.92759 0.89464 0.229 0.0
C189 C 0.995 0.8849 0.25877 0.0
C190 C 0.99838 0.92118 0.2548 0.0
C191 C 0.96803 0.94168 0.24455 0.0
C192 C 0.95363 0.87218 0.23981 0.0
H193 H 0.91217 0.94646 0.22464 0.0
C194 C 0.82781 0.91621 0.18051 0.0
O195 O 0.83973 0.91429 0.04009 0.0
O196 O 0.87652 0.94361 0.08744 0.0
N197 N 0.9071 0.82851 0.22351 0.0
C198 C 0.88801 0.79965 0.23271 0.0
C199 C 0.90399 0.77051 0.2527 0.0
C200 C 0.93962 0.76979 0.26998 0.0
C201 C 0.96047 0.79902 0.27016 0.0
C202 C 0.93944 0.83283 0.24437 0.0
H203 H 0.85937 0.7985 0.225 0.0
O204 O 0.91396 0.88331 0.06461 0.0
O205 O 0.90351 0.87884 0.14047 0.0
O206 O 0.8507 0.84587 0.09509 0.0
O207 O 0.84371 0.84476 0.17482 0.0
C208 C 0.00269 0.79762 0.29477 0.0
C209 C 0.0295 0.83286 0.29769 0.0
H210 H 0.02315 0.935 0.26174 0.0
H211 H 0.97151 0.96898 0.24457 0.0
H212 H 0.88762 0.74791 0.25609 0.0
H213 H 0.95033 0.74662 0.28506 0.0
H214 H 0.01265 0.77411 0.30959 0.0
H215 H 0.05592 0.83048 0.31532 0.0
Mn216 Mn 0.35836 0.61326 0.40617 0.0
Mn217 Mn 0.38609 0.64851 0.30333 0.0
C218 C 0.42151 0.61376 0.39795 0.0
C219 C 0.33874 0.56264 0.4419 0.0
C220 C 0.35858 0.68926 0.38822 0.0
O221 O 0.31262 0.61734 0.36436 0.0
O222 O 0.34064 0.6231 0.2952 0.0
C223 C 0.4123 0.58423 0.27203 0.0
N224 N 0.41052 0.61823 0.26567 0.0
C225 C 0.48093 0.61496 0.24053 0.0
C226 C 0.47717 0.5794 0.24939 0.0
C227 C 0.4436 0.56521 0.26155 0.0
C228 C 0.43797 0.6363 0.24842 0.0
H229 H 0.38964 0.57152 0.28827 0.0
C230 C 0.31236 0.61717 0.31916 0.0
O231 O 0.32949 0.59231 0.45894 0.0
O232 O 0.35663 0.56268 0.40253 0.0
N233 N 0.4292 0.67471 0.2958 0.0
C234 C 0.45429 0.67164 0.33797 0.0
C235 C 0.497 0.68122 0.3387 0.0
C236 C 0.52176 0.71046 0.26038 0.0
C237 C 0.48107 0.70997 0.21809 0.0
C238 C 0.43555 0.6828 0.24267 0.0
H239 H 0.44131 0.67105 0.37184 0.0
O240 O 0.40589 0.60865 0.43805 0.0
O241 O 0.39914 0.62073 0.36206 0.0
O242 O 0.35722 0.66536 0.41892 0.0
O243 O 0.36302 0.68413 0.34349 0.0
C244 C 0.51713 0.69511 0.19683 0.0
C245 C 0.52814 0.65676 0.20492 0.0
H246 H 0.499 0.56115 0.24628 0.0
H247 H 0.44256 0.53805 0.26707 0.0
H248 H 0.50826 0.68088 0.37421 0.0
H249 H 0.54725 0.72531 0.25513 0.0
H250 H 0.53412 0.71073 0.17415 0.0
H251 H 0.55546 0.65262 0.19026 0.0
Mn252 Mn 0.63782 0.11628 0.61182 0.0
Mn253 Mn 0.60324 0.15164 0.71161 0.0
C254 C 0.57568 0.12324 0.61811 0.0
C255 C 0.65843 0.06755 0.5725 0.0
C256 C 0.64119 0.19188 0.63463 0.0
O257 O 0.67987 0.11467 0.65925 0.0
O258 O 0.65161 0.13159 0.72627 0.0
C259 C 0.59247 0.08914 0.76698 0.0
N260 N 0.57871 0.11802 0.74754 0.0
C261 C 0.51909 0.10606 0.77717 0.0
C262 C 0.53275 0.0765 0.79825 0.0
C263 C 0.56956 0.06792 0.7929 0.0
C264 C 0.54326 0.12628 0.75189 0.0
H265 H 0.62064 0.08226 0.76247 0.0
C266 C 0.67937 0.11989 0.70416 0.0
O267 O 0.66888 0.09749 0.55947 0.0
O268 O 0.63667 0.06608 0.60843 0.0
N269 N 0.55638 0.17195 0.70318 0.0
C270 C 0.54724 0.20076 0.67942 0.0
C271 C 0.51092 0.21178 0.6791 0.0
C272 C 0.48462 0.19349 0.70383 0.0
C273 C 0.49489 0.16469 0.72945 0.0
C274 C 0.53144 0.15487 0.72849 0.0
H275 H 0.56734 0.21486 0.66018 0.0
O276 O 0.59063 0.11839 0.57695 0.0
O277 O 0.59755 0.12309 0.65459 0.0
O278 O 0.64492 0.16774 0.60427 0.0
O279 O 0.62754 0.18811 0.67596 0.0
C280 C 0.47014 0.14497 0.75513 0.0
C281 C 0.48224 0.11571 0.77906 0.0
H282 H 0.51509 0.05992 0.81795 0.0
H283 H 0.58022 0.04492 0.80853 0.0
H284 H 0.50301 0.23395 0.65923 0.0
H285 H 0.45655 0.20152 0.70247 0.0
H286 H 0.44166 0.15189 0.75628 0.0
H287 H 0.46288 0.10049 0.79817 0.0
Mn288 Mn 0.86958 0.40645 0.8975 0.0
Mn289 Mn 0.89958 0.36737 0.79752 0.0
C290 C 0.93109 0.39622 0.88893 0.0
C291 C 0.85302 0.45663 0.9368 0.0
C292 C 0.86407 0.32997 0.8789 0.0
O293 O 0.82619 0.4093 0.85263 0.0
O294 O 0.85011 0.38653 0.78616 0.0
C295 C 0.90609 0.42861 0.73837 0.0
N296 N 0.92154 0.40062 0.75821 0.0
C297 C 0.97971 0.414 0.72512 0.0
C298 C 0.96435 0.44279 0.70395 0.0
C299 C 0.92738 0.45014 0.71066 0.0
C300 C 0.95707 0.39335 0.75209 0.0
H301 H 0.87776 0.43455 0.74379 0.0
C302 C 0.82397 0.4008 0.80883 0.0
O303 O 0.84101 0.4274 0.95062 0.0
O304 O 0.87359 0.45657 0.89957 0.0
N305 N 0.94705 0.34766 0.80206 0.0
C306 C 0.95782 0.31904 0.82511 0.0
C307 C 0.99447 0.30906 0.82343 0.0
C308 C 0.01928 0.32793 0.79707 0.0
C309 C 0.00721 0.35617 0.77163 0.0
C310 C 0.97049 0.36514 0.77489 0.0
H311 H 0.93886 0.30457 0.84577 0.0
O312 O 0.91728 0.40268 0.93035 0.0
O313 O 0.90848 0.39694 0.85307 0.0
O314 O 0.86005 0.35546 0.90702 0.0
O315 O 0.87782 0.33174 0.8373 0.0
C316 C 0.03045 0.37638 0.74439 0.0
C317 C 0.0167 0.40527 0.7211 0.0
H318 H 0.98074 0.45956 0.68278 0.0
H319 H 0.91537 0.47243 0.69469 0.0
H320 H 0.00398 0.28749 0.84334 0.0
H321 H 0.04767 0.32089 0.79717 0.0
H322 H 0.05903 0.37014 0.74153 0.0
H323 H 0.03488 0.42079 0.70057 0.0
Mn324 Mn 0.33956 0.12086 0.63515 0.0
Mn325 Mn 0.36487 0.15379 0.53037 0.0
C326 C 0.33557 0.17974 0.62726 0.0
C327 C 0.29473 0.09949 0.68535 0.0
C328 C 0.41876 0.13137 0.60535 0.0
O329 O 0.33888 0.0794 0.59175 0.0
O330 O 0.35509 0.10375 0.52364 0.0
C331 C 0.29674 0.1446 0.47578 0.0
N332 N 0.32445 0.16482 0.4909 0.0
C333 C 0.30508 0.21019 0.44007 0.0
C334 C 0.27632 0.18985 0.42378 0.0
C335 C 0.27205 0.15696 0.44187 0.0
C336 C 0.32891 0.19642 0.47362 0.0
H337 H 0.29375 0.11919 0.48924 0.0
C338 C 0.34601 0.07765 0.5476 0.0
O339 O 0.32887 0.09286 0.69256 0.0
O340 O 0.28676 0.1165 0.64759 0.0
N341 N 0.37609 0.20104 0.52845 0.0
C342 C 0.40172 0.21883 0.55321 0.0
C343 C 0.40832 0.25285 0.5416 0.0
C344 C 0.38852 0.26812 0.50468 0.0
C345 C 0.36182 0.24939 0.48025 0.0
C346 C 0.3568 0.21549 0.49298 0.0
H347 H 0.41666 0.20723 0.58187 0.0
O348 O 0.33915 0.16483 0.66764 0.0
O349 O 0.33543 0.15917 0.58972 0.0
O350 O 0.39595 0.12051 0.63562 0.0
O351 O 0.40929 0.14426 0.56601 0.0
C352 C 0.33894 0.26342 0.44524 0.0
C353 C 0.31061 0.24383 0.42515 0.0
H354 H 0.25714 0.19933 0.39777 0.0
H355 H 0.2499 0.14114 0.42952 0.0
H356 H 0.4285 0.2673 0.56117 0.0
H357 H 0.39337 0.29449 0.49626 0.0
H358 H 0.34228 0.28953 0.43442 0.0
H359 H 0.29273 0.25513 0.39901 0.0
Mn360 Mn 0.64196 0.62246 0.40833 0.0
Mn361 Mn 0.60342 0.649 0.30609 0.0
C362 C 0.57887 0.62742 0.40378 0.0
C363 C 0.66186 0.57655 0.45381 0.0
C364 C 0.64327 0.69613 0.37481 0.0
O365 O 0.68314 0.61619 0.36059 0.0
O366 O 0.65248 0.63009 0.29409 0.0
C367 C 0.60181 0.58271 0.25384 0.0
N368 N 0.58193 0.60941 0.27112 0.0
C369 C 0.53495 0.59747 0.19875 0.0
C370 C 0.56038 0.56945 0.18652 0.0
C371 C 0.59074 0.56237 0.21488 0.0
C372 C 0.54771 0.6141 0.25615 0.0
H373 H 0.62787 0.57688 0.26946 0.0
C374 C 0.68114 0.62006 0.31573 0.0
O375 O 0.67346 0.60714 0.46275 0.0
O376 O 0.63995 0.57276 0.41818 0.0
N377 N 0.5566 0.67297 0.31318 0.0
C378 C 0.55109 0.71154 0.33558 0.0
C379 C 0.51066 0.73785 0.33194 0.0
C380 C 0.47207 0.72205 0.29839 0.0
C381 C 0.48958 0.66617 0.26478 0.0
C382 C 0.53119 0.64809 0.28546 0.0
H383 H 0.57208 0.72171 0.35788 0.0
O384 O 0.59564 0.62793 0.44432 0.0
O385 O 0.59962 0.62474 0.36651 0.0
O386 O 0.65018 0.67479 0.40776 0.0
O387 O 0.62653 0.68808 0.33663 0.0
C388 C 0.47167 0.65151 0.1832 0.0
C389 C 0.49757 0.61572 0.16058 0.0
H390 H 0.55598 0.55483 0.15418 0.0
H391 H 0.60834 0.54164 0.20391 0.0
H392 H 0.50989 0.76275 0.34862 0.0
H393 H 0.4489 0.73821 0.28986 0.0
H394 H 0.45129 0.66372 0.16089 0.0
H395 H 0.51709 0.60403 0.17623 0.0
Mn396 Mn 0.14592 0.90594 0.10646 0.0
Mn397 Mn 0.11408 0.86293 0.20084 0.0
C398 C 0.08435 0.89359 0.11123 0.0
C399 C 0.16039 0.95689 0.06873 0.0
C400 C 0.15223 0.82882 0.11767 0.0
O401 O 0.18798 0.90968 0.15452 0.0
O402 O 0.16275 0.88144 0.21492 0.0
C403 C 0.11085 0.91512 0.27775 0.0
N404 N 0.09295 0.892 0.24997 0.0
C405 C 0.04352 0.89101 0.31721 0.0
C406 C 0.0651 0.91415 0.34193 0.0
C407 C 0.09731 0.92637 0.32207 0.0
C408 C 0.06052 0.88006 0.26303 0.0
H409 H 0.13667 0.92492 0.26654 0.0
C410 C 0.18879 0.8983 0.19692 0.0
O411 O 0.1744 0.92804 0.05518 0.0
O412 O 0.13968 0.95645 0.10582 0.0
N413 N 0.06721 0.84332 0.18985 0.0
C414 C 0.05885 0.81775 0.1588 0.0
C415 C 0.02411 0.80367 0.15649 0.0
C416 C 0.99677 0.81163 0.18908 0.0
C417 C 0.00355 0.83443 0.22859 0.0
C418 C 0.04355 0.85411 0.22248 0.0
H419 H 0.07842 0.80892 0.13309 0.0
O420 O 0.09937 0.90065 0.07106 0.0
O421 O 0.1054 0.89535 0.14891 0.0
O422 O 0.15825 0.85515 0.09291 0.0
O423 O 0.13622 0.82979 0.15747 0.0
C424 C 0.9752 0.8507 0.31218 0.0
C425 C 0.00364 0.87823 0.34172 0.0
H426 H 0.05669 0.92344 0.37655 0.0
H427 H 0.11304 0.94467 0.34238 0.0
H428 H 0.01835 0.78568 0.12817 0.0
H429 H 0.97172 0.79799 0.18317 0.0
H430 H 0.95026 0.84306 0.32998 0.0
H431 H 0.99607 0.8876 0.3766 0.0
Mn432 Mn 0.84573 0.62712 0.12967 0.0
Mn433 Mn 0.86657 0.65994 0.02332 0.0
C434 C 0.84866 0.68502 0.12093 0.0
C435 C 0.79996 0.61219 0.18221 0.0
C436 C 0.92359 0.6334 0.0919 0.0
O437 O 0.83952 0.58611 0.08585 0.0
O438 O 0.85484 0.61081 0.0174 0.0
C439 C 0.79272 0.65325 0.98254 0.0
N440 N 0.82157 0.6731 0.99468 0.0
C441 C 0.79026 0.72354 0.96919 0.0
C442 C 0.76028 0.70361 0.9562 0.0
C443 C 0.76152 0.66832 0.96295 0.0
C444 C 0.82053 0.70712 0.98873 0.0
H445 H 0.79341 0.62615 0.98794 0.0
C446 C 0.84513 0.58489 0.0412 0.0
O447 O 0.83288 0.60093 0.18865 0.0
O448 O 0.79362 0.62825 0.14338 0.0
N449 N 0.8783 0.7073 0.02246 0.0
C450 C 0.9105 0.7225 0.0332 0.0
C451 C 0.91432 0.75765 0.02691 0.0
C452 C 0.88513 0.77676 0.00903 0.0
C453 C 0.85274 0.76034 0.99637 0.0
C454 C 0.85075 0.72516 1.00282 0.0
H455 H 0.93282 0.7081 0.04748 0.0
O456 O 0.8509 0.67175 0.16257 0.0
O457 O 0.8439 0.6641 0.08534 0.0
O458 O 0.90162 0.62308 0.12393 0.0
O459 O 0.91327 0.64776 0.0534 0.0
C460 C 0.82253 0.77743 0.97699 0.0
C461 C 0.79125 0.75906 0.9636 0.0
H462 H 0.73618 0.71513 0.94106 0.0
H463 H 0.73846 0.65277 0.95316 0.0
H464 H 0.93956 0.76999 0.03632 0.0
H465 H 0.88803 0.80392 0.00471 0.0
H466 H 0.82315 0.80467 0.97198 0.0
H467 H 0.76819 0.77247 0.9487 0.0
Mn468 Mn 0.1427 0.1281 0.91045 0.0
Mn469 Mn 0.11707 0.15053 0.80266 0.0
C470 C 0.08084 0.14493 0.90116 0.0
C471 C 0.15349 0.07971 0.95658 0.0
C472 C 0.17081 0.18992 0.86482 0.0
O473 O 0.18321 0.11343 0.86394 0.0
O474 O 0.14585 0.10792 0.8025 0.0
C475 C 0.06828 0.09278 0.77928 0.0
N476 N 0.07397 0.12675 0.78249 0.0
C477 C 0.00827 0.13596 0.74686 0.0
C478 C 0.00473 0.09975 0.75158 0.0
C479 C 0.03457 0.0795 0.76476 0.0
C480 C 0.04862 0.14884 0.76842 0.0
H481 H 0.08949 0.07526 0.78955 0.0
C482 C 0.17735 0.10444 0.82083 0.0
O483 O 0.17038 0.10803 0.96529 0.0
O484 O 0.13032 0.07971 0.92187 0.0
N485 N 0.09031 0.19292 0.79517 0.0
C486 C 0.09913 0.22487 0.80961 0.0
C487 C 0.08594 0.25401 0.78623 0.0
C488 C 0.05964 0.25259 0.74988 0.0
C489 C 0.04251 0.22208 0.73889 0.0
C490 C 0.06257 0.18814 0.76532 0.0
H491 H 0.11538 0.22829 0.84084 0.0
O492 O 0.09519 0.14204 0.94311 0.0
O493 O 0.10414 0.14049 0.86753 0.0
O494 O 0.16159 0.17688 0.90461 0.0
O495 O 0.16089 0.17705 0.82437 0.0
C496 C 0.00149 0.22323 0.71058 0.0
C497 C 0.9749 0.18774 0.70565 0.0
H498 H 0.98043 0.08571 0.74279 0.0
H499 H 0.03133 0.05217 0.76428 0.0
H500 H 0.09554 0.27864 0.7981 0.0
H501 H 0.04962 0.27595 0.73466 0.0
H502 H 0.99143 0.24704 0.6968 0.0
H503 H 0.949 0.18998 0.6867 0.0
Mn504 Mn 0.64321 0.40922 0.61278 0.0
Mn505 Mn 0.61293 0.37137 0.71153 0.0
C506 C 0.58125 0.39825 0.61876 0.0
C507 C 0.66092 0.45827 0.57298 0.0
C508 C 0.6517 0.33399 0.63113 0.0
O509 O 0.68616 0.41187 0.65962 0.0
O510 O 0.66027 0.39287 0.72647 0.0
C511 C 0.60427 0.42605 0.78299 0.0
N512 N 0.58838 0.40045 0.75771 0.0
C513 C 0.53757 0.39732 0.82512 0.0
C514 C 0.56018 0.42436 0.84851 0.0
C515 C 0.59074 0.4379 0.82667 0.0
C516 C 0.55688 0.38638 0.77116 0.0
H517 H 0.6288 0.43743 0.77001 0.0
C518 C 0.68708 0.40548 0.70411 0.0
O519 O 0.67287 0.42838 0.56069 0.0
O520 O 0.6398 0.45987 0.60975 0.0
N521 N 0.5681 0.34898 0.6994 0.0
C522 C 0.56257 0.3227 0.66843 0.0
C523 C 0.52912 0.3067 0.66422 0.0
C524 C 0.50018 0.31406 0.69425 0.0
C525 C 0.50401 0.33728 0.73415 0.0
C526 C 0.54278 0.35903 0.73032 0.0
H527 H 0.58337 0.31467 0.64411 0.0
O528 O 0.59616 0.40484 0.57832 0.0
O529 O 0.60273 0.40088 0.65627 0.0
O530 O 0.65301 0.358 0.60128 0.0
O531 O 0.63882 0.33776 0.67259 0.0
C532 C 0.47111 0.35172 0.81555 0.0
C533 C 0.49554 0.38091 0.84782 0.0
H534 H 0.55173 0.43464 0.88258 0.0
H535 H 0.60525 0.45807 0.84498 0.0
H536 H 0.52565 0.28771 0.63643 0.0
H537 H 0.47635 0.29937 0.68609 0.0
H538 H 0.44606 0.34234 0.83133 0.0
H539 H 0.51746 0.39018 0.83754 0.0
Mn540 Mn 0.35917 0.89152 0.37925 0.0
Mn541 Mn 0.3852 0.87069 0.48997 0.0
C542 C 0.36429 0.83459 0.39877 0.0
C543 C 0.31153 0.90498 0.32747 0.0
C544 C 0.43709 0.89636 0.41466 0.0
O545 O 0.35407 0.93612 0.41689 0.0
O546 O 0.36435 0.91768 0.49118 0.0
C547 C 0.31307 0.8679 0.53535 0.0
N548 N 0.34489 0.85239 0.52332 0.0
C549 C 0.32601 0.79989 0.55823 0.0
C550 C 0.29313 0.81537 0.57131 0.0
C551 C 0.28661 0.8495 0.55973 0.0
C552 C 0.35136 0.81951 0.53403 0.0
H553 H 0.30789 0.89406 0.52621 0.0
C554 C 0.35587 0.94118 0.46181 0.0
O555 O 0.34465 0.91383 0.31808 0.0
O556 O 0.30633 0.88988 0.36746 0.0
N557 N 0.40596 0.82615 0.49415 0.0
C558 C 0.43912 0.81506 0.47908 0.0
C559 C 0.44979 0.78136 0.48757 0.0
C560 C 0.42642 0.75953 0.5118 0.0
C561 C 0.3928 0.77176 0.52795 0.0
C562 C 0.38381 0.80569 0.5189 0.0
H563 H 0.45721 0.83171 0.46046 0.0
O564 O 0.36372 0.84389 0.35478 0.0
O565 O 0.36089 0.85901 0.43017 0.0
O566 O 0.41475 0.89676 0.37975 0.0
O567 O 0.42828 0.88841 0.45702 0.0
C568 C 0.36779 0.75159 0.5525 0.0
C569 C 0.33439 0.76562 0.56755 0.0
H570 H 0.27258 0.80122 0.58993 0.0
H571 H 0.2612 0.86155 0.56946 0.0
H572 H 0.47589 0.77219 0.47527 0.0
H573 H 0.4346 0.73346 0.5179 0.0
H574 H 0.3739 0.72521 0.5598 0.0
H575 H 0.31527 0.74979 0.58608 0.0
C576 C 0.13707 0.77613 0.07272 0.0
C577 C 0.16219 0.79433 0.10088 0.0
C578 C 0.13504 0.74043 0.07484 0.0
C579 C 0.15815 0.72192 0.10505 0.0
H580 H 0.11618 0.7897 0.05332 0.0
H581 H 0.11291 0.72767 0.05658 0.0
S582 S 0.23143 0.75724 0.18107 0.0
N583 N 0.21299 0.79086 0.15573 0.0
N584 N 0.20921 0.72402 0.15963 0.0
C585 C 0.18556 0.73956 0.12961 0.0
C586 C 0.18766 0.77573 0.12741 0.0
C587 C 0.49485 0.88864 0.3685 0.0
C588 C 0.47586 0.90391 0.40659 0.0
C589 C 0.53308 0.88928 0.36702 0.0
C590 C 0.55317 0.90537 0.40345 0.0
H591 H 0.48031 0.87404 0.34171 0.0
H592 H 0.54695 0.87499 0.33936 0.0
S593 S 0.51604 0.95403 0.50597 0.0
N594 N 0.47987 0.93926 0.47782 0.0
N595 N 0.55129 0.94044 0.47498 0.0
C596 C 0.53429 0.92307 0.43927 0.0
C597 C 0.49571 0.92236 0.44087 0.0
C598 C 0.31757 0.27208 0.59059 0.0
C599 C 0.32133 0.28978 0.63426 0.0
C600 C 0.31719 0.23617 0.58884 0.0
C601 C 0.32557 0.21699 0.62911 0.0
H602 H 0.31605 0.28588 0.55759 0.0
H603 H 0.31056 0.22344 0.55618 0.0
S604 S 0.31781 0.25058 0.7534 0.0
N605 N 0.31554 0.2846 0.71995 0.0
N606 N 0.3227 0.2183 0.71603 0.0
C607 C 0.32237 0.23431 0.67345 0.0
C608 C 0.31843 0.27043 0.67576 0.0
C609 C 0.01658 0.16603 0.91054 0.0
C610 C 0.04089 0.14088 0.89449 0.0
C611 C 0.9787 0.16079 0.90862 0.0
C612 C 0.96351 0.13176 0.88646 0.0
H613 H 0.02686 0.1895 0.92583 0.0
H614 H 0.96105 0.1799 0.92431 0.0
S615 S 0.01454 0.05158 0.86861 0.0
N616 N 0.04637 0.0803 0.87857 0.0
N617 N 0.97569 0.07269 0.86759 0.0
C618 C 0.98747 0.10484 0.87631 0.0
C619 C 0.02599 0.10909 0.88167 0.0
C620 C 0.1747 0.28035 0.82934 0.0
C621 C 0.18207 0.29725 0.87278 0.0
C622 C 0.17904 0.24526 0.82428 0.0
C623 C 0.18582 0.22511 0.86427 0.0
H624 H 0.16429 0.29402 0.79897 0.0
H625 H 0.17156 0.23379 0.79046 0.0
S626 S 0.23578 0.25752 0.96916 0.0
N627 N 0.22019 0.29226 0.94326 0.0
N628 N 0.21911 0.22491 0.93872 0.0
C629 C 0.20063 0.24167 0.90435 0.0
C630 C 0.20039 0.27815 0.90752 0.0
C631 C 0.98404 0.90398 0.13867 0.0
C632 C 0.96743 0.87766 0.11258 0.0
C633 C 0.02194 0.9079 0.14033 0.0
C634 C 0.04465 0.88731 0.11229 0.0
H635 H 0.96741 0.92342 0.15454 0.0
H636 H 0.03338 0.92847 0.16141 0.0
S637 S 0.01434 0.82094 0.02622 0.0
N638 N 0.97651 0.83398 0.0521 0.0
N639 N 0.04735 0.84369 0.05042 0.0
C640 C 0.02819 0.86341 0.08144 0.0
C641 C 0.98976 0.85806 0.08244 0.0
C642 C 0.3928 0.74303 0.38982 0.0
C643 C 0.36162 0.72529 0.40378 0.0
C644 C 0.39435 0.77852 0.39185 0.0
C645 C 0.36516 0.79787 0.40921 0.0
H646 H 0.41553 0.72944 0.37441 0.0
H647 H 0.41804 0.79102 0.37773 0.0
S648 S 0.27755 0.76412 0.45185 0.0
N649 N 0.30114 0.72975 0.43707 0.0
N650 N 0.30412 0.79689 0.44138 0.0
C651 C 0.33437 0.78057 0.4256 0.0
C652 C 0.33267 0.74414 0.42312 0.0
C653 C 0.5187 0.15192 0.59495 0.0
C654 C 0.53591 0.12639 0.621 0.0
C655 C 0.4809 0.1539 0.59221 0.0
C656 C 0.45851 0.12997 0.61463 0.0
H657 H 0.53466 0.17051 0.57626 0.0
H658 H 0.46926 0.1741 0.57127 0.0
S659 S 0.4909 0.05479 0.68097 0.0
N660 N 0.52849 0.07448 0.66557 0.0
N661 N 0.45693 0.07822 0.66082 0.0
C662 C 0.4755 0.1038 0.64022 0.0
C663 C 0.51432 0.10182 0.64295 0.0
C664 C 0.86815 0.24182 0.92966 0.0
C665 C 0.84314 0.22452 0.9002 0.0
C666 C 0.87254 0.27726 0.92639 0.0
C667 C 0.85182 0.29618 0.89388 0.0
H668 H 0.8874 0.22755 0.95084 0.0
H669 H 0.8945 0.28929 0.94592 0.0
S670 S 0.77821 0.26374 0.81597 0.0
N671 N 0.79393 0.22967 0.8431 0.0
N672 N 0.80208 0.29602 0.83715 0.0
C673 C 0.82408 0.27971 0.86847 0.0
C674 C 0.81959 0.2439 0.87186 0.0
C675 C 0.6333 0.75612 0.35091 0.0
C676 C 0.65194 0.73295 0.38026 0.0
C677 C 0.63752 0.79093 0.3559 0.0
C678 C 0.66296 0.80467 0.38755 0.0
H679 H 0.61533 0.7477 0.32278 0.0
H680 H 0.62127 0.80731 0.33341 0.0
S681 S 0.73036 0.75542 0.45705 0.0
N682 N 0.70273 0.72623 0.43485 0.0
N683 N 0.71482 0.79248 0.43843 0.0
C684 C 0.68551 0.78215 0.41279 0.0
C685 C 0.67922 0.74615 0.41034 0.0
C686 C 0.87731 0.74099 0.13013 0.0
C687 C 0.84671 0.72194 0.11761 0.0
C688 C 0.8754 0.77633 0.13261 0.0
C689 C 0.84199 0.79343 0.12873 0.0
H690 H 0.90308 0.72851 0.13692 0.0
H691 H 0.90022 0.7904 0.13877 0.0
S692 S 0.75409 0.75497 0.09471 0.0
N693 N 0.78245 0.72238 0.09787 0.0
N694 N 0.77813 0.78921 0.10804 0.0
C695 C 0.81115 0.7748 0.1157 0.0
C696 C 0.81356 0.73878 0.1099 0.0
C697 C 0.68011 0.27926 0.65141 0.0
C698 C 0.66061 0.29848 0.61793 0.0
C699 C 0.67604 0.24398 0.65388 0.0
C700 C 0.65279 0.22653 0.62246 0.0
H701 H 0.69572 0.292 0.67905 0.0
H702 H 0.68916 0.2306 0.68274 0.0
S703 S 0.59955 0.26415 0.52421 0.0
N704 N 0.6202 0.29695 0.54951 0.0
N705 N 0.61313 0.23025 0.55359 0.0
C706 C 0.63612 0.2448 0.58568 0.0
C707 C 0.64004 0.28094 0.58339 0.0
C708 C 0.03201 0.40656 0.86388 0.0
C709 C 0.04768 0.38078 0.89182 0.0
C710 C 0.99397 0.41091 0.86125 0.0
C711 C 0.97043 0.38924 0.88572 0.0
H712 H 0.04917 0.42417 0.84525 0.0
H713 H 0.98296 0.43176 0.84086 0.0
S714 S 0.99666 0.31717 0.96196 0.0
N715 N 0.03549 0.33259 0.9432 0.0
N716 N 0.96492 0.3414 0.93827 0.0
C717 C 0.98556 0.36346 0.91334 0.0
C718 C 0.02388 0.35885 0.916 0.0
C719 C 0.51694 0.63916 0.43585 0.0
C720 C 0.53915 0.62169 0.4031 0.0
C721 C 0.47898 0.63614 0.43346 0.0
C722 C 0.46208 0.61453 0.39956 0.0
H723 H 0.52864 0.65742 0.4606 0.0
H724 H 0.46266 0.65217 0.45662 0.0
S725 S 0.51062 0.54253 0.34236 0.0
N726 N 0.54318 0.56928 0.3575 0.0
N727 N 0.47199 0.56126 0.35751 0.0
C728 C 0.48457 0.59085 0.37622 0.0
C729 C 0.52325 0.59492 0.37703 0.0
C730 C 0.51668 0.41034 0.64374 0.0
C731 C 0.54162 0.38977 0.61905 0.0
C732 C 0.47894 0.40502 0.63912 0.0
C733 C 0.46436 0.37722 0.61366 0.0
H734 H 0.52626 0.4321 0.66404 0.0
H735 H 0.46092 0.42448 0.6521 0.0
S736 S 0.51741 0.32021 0.53424 0.0
N737 N 0.54837 0.34478 0.55961 0.0
N738 N 0.47802 0.3323 0.55673 0.0
C739 C 0.4889 0.35763 0.5867 0.0
C740 C 0.52722 0.36444 0.58836 0.0
C741 C 0.02467 0.64815 0.0779 0.0
C742 C 0.04045 0.626 0.11065 0.0
C743 C 0.98706 0.65026 0.07254 0.0
C744 C 0.96346 0.6301 0.0995 0.0
H745 H 0.04162 0.66402 0.05606 0.0
H746 H 0.97667 0.66776 0.04646 0.0
S747 S 0.99215 0.56302 0.18347 0.0
N748 N 0.0306 0.5799 0.16551 0.0
N749 N 0.95937 0.58447 0.15682 0.0
C750 C 0.97911 0.60687 0.13141 0.0
C751 C 0.01772 0.60453 0.13646 0.0
C752 C 0.17429 0.52417 1.00119 0.0
C753 C 0.16146 0.52525 0.04824 0.0
C754 C 0.17385 0.4938 0.97411 0.0
C755 C 0.16076 0.46318 0.99304 0.0
H756 H 0.18364 0.54717 0.98454 0.0
H757 H 0.18345 0.49452 0.93782 0.0
S758 S 0.1264 0.4521 0.11605 0.0
N759 N 0.13707 0.49267 0.11346 0.0
N760 N 0.13616 0.43601 0.06323 0.0
C761 C 0.14898 0.46385 0.04073 0.0
C762 C 0.14937 0.4947 0.0681 0.0
C763 C 0.7798 0.92592 0.29912 0.0
C764 C 0.74291 0.92371 0.28703 0.0
C765 C 0.80669 0.92538 0.2641 0.0
C766 C 0.79795 0.92176 0.21536 0.0
H767 H 0.78807 0.92721 0.33611 0.0
H768 H 0.83472 0.9264 0.27578 0.0
S769 S 0.70491 0.91574 0.16495 0.0
N770 N 0.69864 0.91902 0.22292 0.0
N771 N 0.74925 0.91716 0.15701 0.0
C772 C 0.76098 0.92057 0.20267 0.0
C773 C 0.73348 0.92175 0.23848 0.0
C774 C 0.34737 0.46898 0.47287 0.0
C775 C 0.34107 0.46884 0.52201 0.0
C776 C 0.3446 0.49918 0.44686 0.0
C777 C 0.33476 0.53037 0.46878 0.0
H778 H 0.35619 0.44593 0.4548 0.0
H779 H 0.35151 0.49822 0.4095 0.0
S780 S 0.31074 0.54214 0.59595 0.0
N781 N 0.32172 0.50149 0.59113 0.0
N782 N 0.31545 0.55806 0.54229 0.0
C783 C 0.32621 0.52996 0.51751 0.0
C784 C 0.32974 0.49928 0.54411 0.0
C785 C 0.74704 0.11507 0.7087 0.0
C786 C 0.71337 0.11453 0.73191 0.0
C787 C 0.77968 0.11476 0.7344 0.0
C788 C 0.78022 0.11355 0.7845 0.0
H789 H 0.74834 0.11732 0.67042 0.0
H790 H 0.80471 0.1166 0.71464 0.0
S791 S 0.69947 0.10719 0.86213 0.0
N792 N 0.68255 0.10942 0.80783 0.0
N793 N 0.74396 0.10864 0.85604 0.0
C794 C 0.7468 0.11079 0.80804 0.0
C795 C 0.71342 0.11141 0.78182 0.0
C796 C 0.85344 0.51971 0.94132 0.0
C797 C 0.84599 0.48872 0.96336 0.0
C798 C 0.85159 0.5505 0.96642 0.0
C799 C 0.84253 0.55182 0.01503 0.0
H800 H 0.86162 0.52023 0.90441 0.0
H801 H 0.85847 0.57338 0.94753 0.0
S802 S 0.81779 0.47777 0.08865 0.0
N803 N 0.82692 0.46111 0.03586 0.0
N804 N 0.82367 0.51913 0.08353 0.0
C805 C 0.83347 0.52105 0.03715 0.0
C806 C 0.83512 0.48952 0.01124 0.0
C807 C 0.20138 0.09258 0.73917 0.0
C808 C 0.20809 0.09554 0.78848 0.0
C809 C 0.22977 0.0915 0.70627 0.0
C810 C 0.26622 0.09268 0.72104 0.0
H811 H 0.1739 0.09309 0.72536 0.0
H812 H 0.22301 0.09129 0.66875 0.0
S813 S 0.2991 0.09587 0.84587 0.0
N814 N 0.25443 0.09632 0.85046 0.0
N815 N 0.30778 0.09371 0.78838 0.0
C816 C 0.27357 0.0929 0.77019 0.0
C817 C 0.24454 0.09446 0.80392 0.0
C818 C 0.6654 0.55051 0.53432 0.0
C819 C 0.66963 0.54736 0.48484 0.0
C820 C 0.66405 0.52156 0.56312 0.0
C821 C 0.66775 0.4886 0.54351 0.0
H822 H 0.6607 0.57527 0.55047 0.0
H823 H 0.6589 0.52498 0.60075 0.0
S824 S 0.68279 0.4673 0.41616 0.0
N825 N 0.67961 0.50916 0.41777 0.0
N826 N 0.67838 0.45496 0.47169 0.0
C827 C 0.67432 0.48542 0.49441 0.0
C828 C 0.67488 0.51476 0.46512 0.0
C829 C 0.24575 0.90161 0.3093 0.0
C830 C 0.28091 0.90867 0.29334 0.0
C831 C 0.21647 0.89949 0.27788 0.0
C832 C 0.22064 0.9045 0.22868 0.0
H833 H 0.24075 0.89656 0.34646 0.0
H834 H 0.19037 0.89298 0.29262 0.0
S835 S 0.30675 0.92638 0.16876 0.0
N836 N 0.31823 0.92272 0.22533 0.0
N837 N 0.26269 0.919 0.16582 0.0
C838 C 0.25536 0.91329 0.21228 0.0
C839 C 0.28555 0.91533 0.24465 0.0
C840 C 0.6708 0.03585 0.49644 0.0
C841 C 0.66864 0.03622 0.54632 0.0
C842 C 0.67374 1.00503 0.47084 0.0
C843 C 0.67494 0.9736 0.49438 0.0
H844 H 0.66803 0.0593 0.47695 0.0
H845 H 0.67321 1.00581 0.43239 0.0
S846 S 0.67706 0.96202 0.62543 0.0
N847 N 0.67244 1.00339 0.61854 0.0
N848 N 0.67888 0.94569 0.5712 0.0
C849 C 0.67577 0.97416 0.54456 0.0
C850 C 0.67234 1.0054 0.57033 0.0
C851 C 0.25672 0.41246 0.70214 0.0
C852 C 0.29273 0.421 0.71416 0.0
C853 C 0.22884 0.41441 0.73616 0.0
C854 C 0.2361 0.4246 0.78342 0.0
H855 H 0.25041 0.40212 0.66722 0.0
H856 H 0.20206 0.4054 0.72632 0.0
S857 S 0.32392 0.45521 0.83128 0.0
N858 N 0.33254 0.44497 0.77539 0.0
N859 N 0.28049 0.44701 0.83908 0.0
C860 C 0.27117 0.43553 0.79494 0.0
C861 C 0.29935 0.43424 0.76034 0.0
C862 C 0.84879 0.03528 0.01482 0.0
C863 C 0.84492 0.03304 0.96514 0.0
C864 C 0.85159 1.00595 0.04238 0.0
C865 C 0.84955 0.97342 0.02133 0.0
H866 H 0.85144 0.05985 0.0323 0.0
H867 H 0.85577 0.00876 0.08037 0.0
S868 S 0.83681 0.95402 0.89297 0.0
N869 N 0.83781 0.99594 0.89616 0.0
N870 N 0.84155 0.94071 0.94811 0.0
C871 C 0.84397 0.97088 0.97193 0.0
C872 C 0.84209 1.00074 0.94377 0.0
C873 C 0.21332 0.62395 0.28157 0.0
C874 C 0.2142 0.61452 0.23292 0.0
C875 C 0.2446 0.62265 0.31038 0.0
C876 C 0.27813 0.61204 0.29171 0.0
H877 H 0.18846 0.63337 0.29744 0.0
H878 H 0.24283 0.63166 0.34684 0.0
S879 S 0.29466 0.5806 0.16848 0.0
N880 N 0.2513 0.59122 0.16886 0.0
N881 N 0.30967 0.58865 0.22278 0.0
C882 C 0.279 0.60065 0.24395 0.0
C883 C 0.24721 0.60191 0.21467 0.0
C884 C 0.34316 0.01384 0.55141 0.0
C885 C 0.34546 0.04337 0.52374 0.0
C886 C 0.34541 0.98119 0.53089 0.0
C887 C 0.34982 0.97629 0.48154 0.0
H888 H 0.34053 0.01578 0.58967 0.0
H889 H 0.34425 0.95958 0.55428 0.0
S890 S 0.35463 0.04495 0.39227 0.0
N891 N 0.35042 0.06536 0.44357 0.0
N892 N 0.35455 1.00413 0.40507 0.0
C893 C 0.35078 1.00554 0.45308 0.0
C894 C 0.34869 0.03893 0.47409 0.0
C895 C 0.76574 0.58732 0.25163 0.0
C896 C 0.77242 0.61417 0.22028 0.0
C897 C 0.7369 0.58939 0.28453 0.0
C898 C 0.71438 0.61841 0.28677 0.0
H899 H 0.78189 0.56428 0.2495 0.0
H900 H 0.73135 0.56784 0.30687 0.0
S901 S 0.7249 0.69775 0.21862 0.0
N902 N 0.75705 0.67221 0.19833 0.0
N903 N 0.7035 0.6758 0.25931 0.0
C904 C 0.72242 0.64601 0.25771 0.0
C905 C 0.75131 0.64397 0.22467 0.0
C906 C 0.16369 0.02041 0.06166 0.0
C907 C 0.16369 0.988 0.03981 0.0
C908 C 0.1624 0.05021 0.03448 0.0
C909 C 0.15975 0.04856 0.98462 0.0
H910 H 0.16408 0.02273 0.10007 0.0
H911 H 0.16174 0.07462 0.0527 0.0
S912 S 0.15953 0.97012 0.9101 0.0
N913 N 0.16237 0.95625 0.96515 0.0
N914 N 0.1584 0.012 0.91444 0.0
C915 C 0.16039 0.01637 0.96238 0.0
C916 C 0.16279 0.98615 0.98987 0.0
C917 C 0.75522 0.40649 0.70734 0.0
C918 C 0.72179 0.40959 0.73099 0.0
C919 C 0.78811 0.40466 0.73271 0.0
C920 C 0.78907 0.4063 0.78283 0.0
H921 H 0.75596 0.40384 0.66899 0.0
H922 H 0.81294 0.40119 0.71275 0.0
S923 S 0.70927 0.41798 0.86165 0.0
N924 N 0.69198 0.41672 0.80747 0.0
N925 N 0.75351 0.41372 0.85491 0.0
C926 C 0.75596 0.41124 0.80679 0.0
C927 C 0.72247 0.41274 0.78098 0.0
loop_
_geom_bond_atom_site_label_1
_geom_bond_atom_site_label_2
_geom_bond_distance
_geom_bond_site_symmetry_2
_ccdc_geom_bond_type
Mn0 O5 2.095 . S
Mn0 O15 2.162 . S
Mn0 O16 2.297 . S
Mn0 O24 2.385 . S
Mn0 O25 2.209 . S
Mn0 O26 2.094 . S
Mn1 O6 2.121 . S
Mn1 N8 2.257 . S
Mn1 N17 2.282 . S
Mn1 O25 2.215 . S
Mn1 O27 2.117 . S
C2 O24 1.234 . S
C2 O25 1.283 . S
C3 O15 1.281 . S
C3 O16 1.236 . S
C4 O26 1.240 . S
C4 O27 1.264 . S
O5 Mn0 2.095 . S
O5 C14 1.250 . S
O6 Mn1 2.121 . S
O6 C14 1.258 . S
C7 N8 1.326 . S
C7 C11 1.460 . S
C7 H13 0.929 . S
N8 Mn1 2.257 . S
N8 C7 1.326 . S
N8 C12 1.362 . S
C9 C10 1.258 . S
C9 C12 1.431 . S
C9 C29 1.449 . S
C10 C9 1.258 . S
C10 C11 1.477 . S
C10 H30 0.931 . S
C11 C7 1.460 . S
C11 C10 1.477 . S
C11 H31 0.930 . S
C12 N8 1.362 . S
C12 C9 1.431 . S
C12 C22 1.476 . S
H13 C7 0.929 . S
C14 O5 1.250 . S
C14 O6 1.258 . S
O15 Mn0 2.162 . S
O15 C3 1.281 . S
O16 Mn0 2.297 . S
O16 C3 1.236 . S
N17 Mn1 2.282 . S
N17 C18 1.328 . S
N17 C22 1.318 . S
C18 N17 1.328 . S
C18 C19 1.457 . S
C18 H23 0.929 . S
C19 C18 1.457 . S
C19 C20 1.291 . S
C19 H32 0.931 . S
C20 C19 1.291 . S
C20 C21 1.373 . S
C20 H33 0.929 1_455 S
C21 C20 1.373 . S
C21 C22 1.396 . S
C21 C28 1.403 1_455 S
C22 C12 1.476 . S
C22 N17 1.318 . S
C22 C21 1.396 . S
H23 C18 0.929 . S
O24 Mn0 2.385 . S
O24 C2 1.234 . S
O25 Mn0 2.209 . S
O25 Mn1 2.215 . S
O25 C2 1.283 . S
O26 Mn0 2.094 . S
O26 C4 1.240 . S
O27 Mn1 2.117 . S
O27 C4 1.264 . S
C28 C21 1.403 1_655 S
C28 C29 1.399 1_655 S
C28 H34 0.929 . S
C29 C9 1.449 . S
C29 C28 1.399 1_455 S
C29 H35 0.930 1_455 S
H30 C10 0.931 . S
H31 C11 0.930 . S
H32 C19 0.931 . S
H33 C20 0.929 1_655 S
H34 C28 0.929 . S
H35 C29 0.930 1_655 S
Mn36 O41 2.095 . S
Mn36 O51 2.162 . S
Mn36 O52 2.297 . S
Mn36 O60 2.385 . S
Mn36 O61 2.209 . S
Mn36 O62 2.094 . S
Mn37 O42 2.121 . S
Mn37 N44 2.257 . S
Mn37 N53 2.282 . S
Mn37 O61 2.215 . S
Mn37 O63 2.117 . S
C38 O60 1.234 . S
C38 O61 1.283 . S
C39 O51 1.281 . S
C39 O52 1.236 . S
C40 O62 1.240 . S
C40 O63 1.264 . S
O41 Mn36 2.095 . S
O41 C50 1.250 . S
O42 Mn37 2.121 . S
O42 C50 1.258 . S
C43 N44 1.326 . S
C43 C47 1.460 . S
C43 H49 0.929 . S
N44 Mn37 2.257 . S
N44 C43 1.326 . S
N44 C48 1.362 . S
C45 C46 1.258 . S
C45 C48 1.431 . S
C45 C65 1.449 . S
C46 C45 1.258 . S
C46 C47 1.477 . S
C46 H66 0.931 . S
C47 C43 1.460 . S
C47 C46 1.477 . S
C47 H67 0.930 . S
C48 N44 1.362 . S
C48 C45 1.431 . S
C48 C58 1.476 . S
H49 C43 0.929 . S
C50 O41 1.250 . S
C50 O42 1.258 . S
O51 Mn36 2.162 . S
O51 C39 1.281 . S
O52 Mn36 2.297 . S
O52 C39 1.236 . S
N53 Mn37 2.282 . S
N53 C54 1.328 . S
N53 C58 1.318 . S
C54 N53 1.328 . S
C54 C55 1.457 . S
C54 H59 0.929 . S
C55 C54 1.457 . S
C55 C56 1.291 . S
C55 H68 0.931 . S
C56 C55 1.291 . S
C56 C57 1.373 . S
C56 H69 0.929 . S
C57 C56 1.373 . S
C57 C58 1.396 . S
C57 C64 1.403 . S
C58 C48 1.476 . S
C58 N53 1.318 . S
C58 C57 1.396 . S
H59 C54 0.929 . S
O60 Mn36 2.385 . S
O60 C38 1.234 . S
O61 Mn36 2.209 . S
O61 Mn37 2.215 . S
O61 C38 1.283 . S
O62 Mn36 2.094 . S
O62 C40 1.240 . S
O63 Mn37 2.117 . S
O63 C40 1.264 . S
C64 C57 1.403 . S
C64 C65 1.399 . S
C64 H70 0.929 . S
C65 C45 1.449 . S
C65 C64 1.399 . S
C65 H71 0.930 . S
H66 C46 0.931 . S
H67 C47 0.930 . S
H68 C55 0.931 . S
H69 C56 0.929 . S
H70 C64 0.929 . S
H71 C65 0.930 . S
Mn72 O77 2.095 . S
Mn72 O87 2.162 . S
Mn72 O88 2.297 . S
Mn72 O96 2.385 . S
Mn72 O97 2.209 . S
Mn72 O98 2.094 . S
Mn73 O78 2.121 . S
Mn73 N80 2.257 . S
Mn73 N89 2.282 . S
Mn73 O97 2.215 . S
Mn73 O99 2.117 . S
C74 O96 1.234 . S
C74 O97 1.283 . S
C75 O87 1.281 . S
C75 O88 1.236 . S
C76 O98 1.240 . S
C76 O99 1.264 . S
O77 Mn72 2.095 . S
O77 C86 1.250 . S
O78 Mn73 2.121 . S
O78 C86 1.258 . S
C79 N80 1.326 . S
C79 C83 1.460 . S
C79 H85 0.929 . S
N80 Mn73 2.257 . S
N80 C79 1.326 . S
N80 C84 1.362 . S
C81 C82 1.258 . S
C81 C84 1.431 . S
C81 C101 1.449 . S
C82 C81 1.258 . S
C82 C83 1.477 . S
C82 H102 0.931 . S
C83 C79 1.460 . S
C83 C82 1.477 . S
C83 H103 0.930 . S
C84 N80 1.362 . S
C84 C81 1.431 . S
C84 C94 1.476 . S
H85 C79 0.929 . S
C86 O77 1.250 . S
C86 O78 1.258 . S
O87 Mn72 2.162 . S
O87 C75 1.281 . S
O88 Mn72 2.297 . S
O88 C75 1.236 . S
N89 Mn73 2.282 . S
N89 C90 1.328 . S
N89 C94 1.318 . S
C90 N89 1.328 . S
C90 C91 1.457 . S
C90 H95 0.929 . S
C91 C90 1.457 . S
C91 C92 1.291 . S
C91 H104 0.931 . S
C92 C91 1.291 . S
C92 C93 1.373 . S
C92 H105 0.929 . S
C93 C92 1.373 . S
C93 C94 1.396 . S
C93 C100 1.403 . S
C94 C84 1.476 . S
C94 N89 1.318 . S
C94 C93 1.396 . S
H95 C90 0.929 . S
O96 Mn72 2.385 . S
O96 C74 1.234 . S
O97 Mn72 2.209 . S
O97 Mn73 2.215 . S
O97 C74 1.283 . S
O98 Mn72 2.094 . S
O98 C76 1.240 . S
O99 Mn73 2.117 . S
O99 C76 1.264 . S
C100 C93 1.403 . S
C100 C101 1.399 . S
C100 H106 0.929 . S
C101 C81 1.449 . S
C101 C100 1.399 . S
C101 H107 0.930 . S
H102 C82 0.931 . S
H103 C83 0.930 . S
H104 C91 0.931 . S
H105 C92 0.929 . S
H106 C100 0.929 . S
H107 C101 0.930 . S
Mn108 O113 2.095 . S
Mn108 O123 2.162 . S
Mn108 O124 2.297 . S
Mn108 O132 2.385 . S
Mn108 O133 2.209 . S
Mn108 O134 2.094 . S
Mn109 O114 2.121 . S
Mn109 N116 2.257 . S
Mn109 N125 2.282 . S
Mn109 O133 2.215 . S
Mn109 O135 2.117 . S
C110 O132 1.234 . S
C110 O133 1.283 . S
C111 O123 1.281 . S
C111 O124 1.236 . S
C112 O134 1.240 . S
C112 O135 1.264 . S
O113 Mn108 2.095 . S
O113 C122 1.250 . S
O114 Mn109 2.121 . S
O114 C122 1.258 . S
C115 N116 1.326 . S
C115 C119 1.460 . S
C115 H121 0.929 . S
N116 Mn109 2.257 . S
N116 C115 1.326 . S
N116 C120 1.362 . S
C117 C118 1.258 . S
C117 C120 1.431 . S
C117 C137 1.449 1_655 S
C118 C117 1.258 . S
C118 C119 1.477 . S
C118 H138 0.931 . S
C119 C115 1.460 . S
C119 C118 1.477 . S
C119 H139 0.930 . S
C120 N116 1.362 . S
C120 C117 1.431 . S
C120 C130 1.476 . S
H121 C115 0.929 . S
C122 O113 1.250 . S
C122 O114 1.258 . S
O123 Mn108 2.162 . S
O123 C111 1.281 . S
O124 Mn108 2.297 . S
O124 C111 1.236 . S
N125 Mn109 2.282 . S
N125 C126 1.328 . S
N125 C130 1.318 . S
C126 N125 1.328 . S
C126 C127 1.457 . S
C126 H131 0.929 . S
C127 C126 1.457 . S
C127 C128 1.291 1_655 S
C127 H140 0.931 . S
C128 C127 1.291 1_455 S
C128 C129 1.373 1_455 S
C128 H141 0.929 . S
C129 C128 1.373 1_655 S
C129 C130 1.396 . S
C129 C136 1.403 1_655 S
C130 C120 1.476 . S
C130 N125 1.318 . S
C130 C129 1.396 . S
H131 C126 0.929 . S
O132 Mn108 2.385 . S
O132 C110 1.234 . S
O133 Mn108 2.209 . S
O133 Mn109 2.215 . S
O133 C110 1.283 . S
O134 Mn108 2.094 . S
O134 C112 1.240 . S
O135 Mn109 2.117 . S
O135 C112 1.264 . S
C136 C129 1.403 1_455 S
C136 C137 1.399 . S
C136 H142 0.929 . S
C137 C117 1.449 1_455 S
C137 C136 1.399 . S
C137 H143 0.930 . S
H138 C118 0.931 . S
H139 C119 0.930 . S
H140 C127 0.931 . S
H141 C128 0.929 . S
H142 C136 0.929 . S
H143 C137 0.930 . S
Mn144 O149 2.095 . S
Mn144 O159 2.162 . S
Mn144 O160 2.297 . S
Mn144 O168 2.385 . S
Mn144 O169 2.209 . S
Mn144 O170 2.094 . S
Mn145 O150 2.121 . S
Mn145 N152 2.257 1_556 S
Mn145 N161 2.282 . S
Mn145 O169 2.215 . S
Mn145 O171 2.117 . S
C146 O168 1.234 . S
C146 O169 1.283 . S
C147 O159 1.281 . S
C147 O160 1.236 . S
C148 O170 1.240 . S
C148 O171 1.264 . S
O149 Mn144 2.095 . S
O149 C158 1.250 . S
O150 Mn145 2.121 . S
O150 C158 1.258 . S
C151 N152 1.326 . S
C151 C155 1.460 . S
C151 H157 0.929 . S
N152 Mn145 2.257 1_554 S
N152 C151 1.326 . S
N152 C156 1.362 . S
C153 C154 1.258 . S
C153 C156 1.431 . S
C153 C173 1.449 . S
C154 C153 1.258 . S
C154 C155 1.477 . S
C154 H174 0.931 . S
C155 C151 1.460 . S
C155 C154 1.477 . S
C155 H175 0.930 . S
C156 N152 1.362 . S
C156 C153 1.431 . S
C156 C166 1.476 . S
H157 C151 0.929 . S
C158 O149 1.250 . S
C158 O150 1.258 . S
O159 Mn144 2.162 . S
O159 C147 1.281 . S
O160 Mn144 2.297 . S
O160 C147 1.236 . S
N161 Mn145 2.282 . S
N161 C162 1.328 . S
N161 C166 1.318 1_556 S
C162 N161 1.328 . S
C162 C163 1.457 . S
C162 H167 0.929 . S
C163 C162 1.457 . S
C163 C164 1.291 . S
C163 H176 0.931 . S
C164 C163 1.291 . S
C164 C165 1.373 1_556 S
C164 H177 0.929 . S
C165 C164 1.373 1_554 S
C165 C166 1.396 . S
C165 C172 1.403 . S
C166 C156 1.476 . S
C166 N161 1.318 1_554 S
C166 C165 1.396 . S
H167 C162 0.929 . S
O168 Mn144 2.385 . S
O168 C146 1.234 . S
O169 Mn144 2.209 . S
O169 Mn145 2.215 . S
O169 C146 1.283 . S
O170 Mn144 2.094 . S
O170 C148 1.240 . S
O171 Mn145 2.117 . S
O171 C148 1.264 . S
C172 C165 1.403 . S
C172 C173 1.399 . S
C172 H178 0.929 . S
C173 C153 1.449 . S
C173 C172 1.399 . S
C173 H179 0.930 . S
H174 C154 0.931 . S
H175 C155 0.930 . S
H176 C163 0.931 . S
H177 C164 0.929 . S
H178 C172 0.929 . S
H179 C173 0.930 . S
Mn180 O185 2.095 . S
Mn180 O195 2.162 . S
Mn180 O196 2.297 . S
Mn180 O204 2.385 . S
Mn180 O205 2.209 . S
Mn180 O206 2.094 . S
Mn181 O186 2.121 . S
Mn181 N188 2.257 . S
Mn181 N197 2.282 . S
Mn181 O205 2.215 . S
Mn181 O207 2.117 . S
C182 O204 1.234 . S
C182 O205 1.283 . S
C183 O195 1.281 . S
C183 O196 1.236 . S
C184 O206 1.240 . S
C184 O207 1.264 . S
O185 Mn180 2.095 . S
O185 C194 1.250 . S
O186 Mn181 2.121 . S
O186 C194 1.258 . S
C187 N188 1.326 . S
C187 C191 1.460 . S
C187 H193 0.929 . S
N188 Mn181 2.257 . S
N188 C187 1.326 . S
N188 C192 1.362 . S
C189 C190 1.258 . S
C189 C192 1.431 . S
C189 C209 1.449 1_655 S
C190 C189 1.258 . S
C190 C191 1.477 . S
C190 H210 0.931 . S
C191 C187 1.460 . S
C191 C190 1.477 . S
C191 H211 0.930 . S
C192 N188 1.362 . S
C192 C189 1.431 . S
C192 C202 1.476 . S
H193 C187 0.929 . S
C194 O185 1.250 . S
C194 O186 1.258 . S
O195 Mn180 2.162 . S
O195 C183 1.281 . S
O196 Mn180 2.297 . S
O196 C183 1.236 . S
N197 Mn181 2.282 . S
N197 C198 1.328 . S
N197 C202 1.318 . S
C198 N197 1.328 . S
C198 C199 1.457 . S
C198 H203 0.929 . S
C199 C198 1.457 . S
C199 C200 1.291 1_655 S
C199 H212 0.931 . S
C200 C199 1.291 1_455 S
C200 C201 1.373 1_455 S
C200 H213 0.929 . S
C201 C200 1.373 1_655 S
C201 C202 1.396 . S
C201 C208 1.403 1_655 S
C202 C192 1.476 . S
C202 N197 1.318 . S
C202 C201 1.396 . S
H203 C198 0.929 . S
O204 Mn180 2.385 . S
O204 C182 1.234 . S
O205 Mn180 2.209 . S
O205 Mn181 2.215 . S
O205 C182 1.283 . S
O206 Mn180 2.094 . S
O206 C184 1.240 . S
O207 Mn181 2.117 . S
O207 C184 1.264 . S
C208 C201 1.403 1_455 S
C208 C209 1.399 . S
C208 H214 0.929 . S
C209 C189 1.449 1_455 S
C209 C208 1.399 . S
C209 H215 0.930 . S
H210 C190 0.931 . S
H211 C191 0.930 . S
H212 C199 0.931 . S
H213 C200 0.929 . S
H214 C208 0.929 . S
H215 C209 0.930 . S
Mn216 O221 2.095 . S
Mn216 O231 2.162 . S
Mn216 O232 2.297 . S
Mn216 O240 2.385 . S
Mn216 O241 2.209 . S
Mn216 O242 2.094 . S
Mn217 O222 2.121 . S
Mn217 N224 2.257 . S
Mn217 N233 2.282 . S
Mn217 O241 2.215 . S
Mn217 O243 2.117 . S
C218 O240 1.234 . S
C218 O241 1.283 . S
C219 O231 1.281 . S
C219 O232 1.236 . S
C220 O242 1.240 . S
C220 O243 1.264 . S
O221 Mn216 2.095 . S
O221 C230 1.250 . S
O222 Mn217 2.121 . S
O222 C230 1.258 . S
C223 N224 1.326 . S
C223 C227 1.460 . S
C223 H229 0.929 . S
N224 Mn217 2.257 . S
N224 C223 1.326 . S
N224 C228 1.362 . S
C225 C226 1.258 . S
C225 C228 1.431 . S
C225 C245 1.449 . S
C226 C225 1.258 . S
C226 C227 1.477 . S
C226 H246 0.931 . S
C227 C223 1.460 . S
C227 C226 1.477 . S
C227 H247 0.930 . S
C228 N224 1.362 . S
C228 C225 1.431 . S
C228 C238 1.476 . S
H229 C223 0.929 . S
C230 O221 1.250 . S
C230 O222 1.258 . S
O231 Mn216 2.162 . S
O231 C219 1.281 . S
O232 Mn216 2.297 . S
O232 C219 1.236 . S
N233 Mn217 2.282 . S
N233 C234 1.328 . S
N233 C238 1.318 . S
C234 N233 1.328 . S
C234 C235 1.457 . S
C234 H239 0.929 . S
C235 C234 1.457 . S
C235 C236 1.291 . S
C235 H248 0.931 . S
C236 C235 1.291 . S
C236 C237 1.373 . S
C236 H249 0.929 . S
C237 C236 1.373 . S
C237 C238 1.396 . S
C237 C244 1.403 . S
C238 C228 1.476 . S
C238 N233 1.318 . S
C238 C237 1.396 . S
H239 C234 0.929 . S
O240 Mn216 2.385 . S
O240 C218 1.234 . S
O241 Mn216 2.209 . S
O241 Mn217 2.215 . S
O241 C218 1.283 . S
O242 Mn216 2.094 . S
O242 C220 1.240 . S
O243 Mn217 2.117 . S
O243 C220 1.264 . S
C244 C237 1.403 . S
C244 C245 1.399 . S
C244 H250 0.929 . S
C245 C225 1.449 . S
C245 C244 1.399 . S
C245 H251 0.930 . S
H246 C226 0.931 . S
H247 C227 0.930 . S
H248 C235 0.931 . S
H249 C236 0.929 . S
H250 C244 0.929 . S
H251 C245 0.930 . S
Mn252 O257 2.095 . S
Mn252 O267 2.162 . S
Mn252 O268 2.297 . S
Mn252 O276 2.385 . S
Mn252 O277 2.209 . S
Mn252 O278 2.094 . S
Mn253 O258 2.121 . S
Mn253 N260 2.257 . S
Mn253 N269 2.282 . S
Mn253 O277 2.215 . S
Mn253 O279 2.117 . S
C254 O276 1.234 . S
C254 O277 1.283 . S
C255 O267 1.281 . S
C255 O268 1.236 . S
C256 O278 1.240 . S
C256 O279 1.264 . S
O257 Mn252 2.095 . S
O257 C266 1.250 . S
O258 Mn253 2.121 . S
O258 C266 1.258 . S
C259 N260 1.326 . S
C259 C263 1.460 . S
C259 H265 0.929 . S
N260 Mn253 2.257 . S
N260 C259 1.326 . S
N260 C264 1.362 . S
C261 C262 1.258 . S
C261 C264 1.431 . S
C261 C281 1.449 . S
C262 C261 1.258 . S
C262 C263 1.477 . S
C262 H282 0.931 . S
C263 C259 1.460 . S
C263 C262 1.477 . S
C263 H283 0.930 . S
C264 N260 1.362 . S
C264 C261 1.431 . S
C264 C274 1.476 . S
H265 C259 0.929 . S
C266 O257 1.250 . S
C266 O258 1.258 . S
O267 Mn252 2.162 . S
O267 C255 1.281 . S
O268 Mn252 2.297 . S
O268 C255 1.236 . S
N269 Mn253 2.282 . S
N269 C270 1.328 . S
N269 C274 1.318 . S
C270 N269 1.328 . S
C270 C271 1.457 . S
C270 H275 0.929 . S
C271 C270 1.457 . S
C271 C272 1.291 . S
C271 H284 0.931 . S
C272 C271 1.291 . S
C272 C273 1.373 . S
C272 H285 0.929 . S
C273 C272 1.373 . S
C273 C274 1.396 . S
C273 C280 1.403 . S
C274 C264 1.476 . S
C274 N269 1.318 . S
C274 C273 1.396 . S
H275 C270 0.929 . S
O276 Mn252 2.385 . S
O276 C254 1.234 . S
O277 Mn252 2.209 . S
O277 Mn253 2.215 . S
O277 C254 1.283 . S
O278 Mn252 2.094 . S
O278 C256 1.240 . S
O279 Mn253 2.117 . S
O279 C256 1.264 . S
C280 C273 1.403 . S
C280 C281 1.399 . S
C280 H286 0.929 . S
C281 C261 1.449 . S
C281 C280 1.399 . S
C281 H287 0.930 . S
H282 C262 0.931 . S
H283 C263 0.930 . S
H284 C271 0.931 . S
H285 C272 0.929 . S
H286 C280 0.929 . S
H287 C281 0.930 . S
Mn288 O293 2.095 . S
Mn288 O303 2.162 . S
Mn288 O304 2.297 . S
Mn288 O312 2.385 . S
Mn288 O313 2.209 . S
Mn288 O314 2.094 . S
Mn289 O294 2.121 . S
Mn289 N296 2.257 . S
Mn289 N305 2.282 . S
Mn289 O313 2.215 . S
Mn289 O315 2.117 . S
C290 O312 1.234 . S
C290 O313 1.283 . S
C291 O303 1.281 . S
C291 O304 1.236 . S
C292 O314 1.240 . S
C292 O315 1.264 . S
O293 Mn288 2.095 . S
O293 C302 1.250 . S
O294 Mn289 2.121 . S
O294 C302 1.258 . S
C295 N296 1.326 . S
C295 C299 1.460 . S
C295 H301 0.929 . S
N296 Mn289 2.257 . S
N296 C295 1.326 . S
N296 C300 1.362 . S
C297 C298 1.258 . S
C297 C300 1.431 . S
C297 C317 1.449 . S
C298 C297 1.258 . S
C298 C299 1.477 . S
C298 H318 0.931 . S
C299 C295 1.460 . S
C299 C298 1.477 . S
C299 H319 0.930 . S
C300 N296 1.362 . S
C300 C297 1.431 . S
C300 C310 1.476 . S
H301 C295 0.929 . S
C302 O293 1.250 . S
C302 O294 1.258 . S
O303 Mn288 2.162 . S
O303 C291 1.281 . S
O304 Mn288 2.297 . S
O304 C291 1.236 . S
N305 Mn289 2.282 . S
N305 C306 1.328 . S
N305 C310 1.318 . S
C306 N305 1.328 . S
C306 C307 1.457 . S
C306 H311 0.929 . S
C307 C306 1.457 . S
C307 C308 1.291 . S
C307 H320 0.931 . S
C308 C307 1.291 . S
C308 C309 1.373 . S
C308 H321 0.929 1_655 S
C309 C308 1.373 . S
C309 C310 1.396 . S
C309 C316 1.403 1_655 S
C310 C300 1.476 . S
C310 N305 1.318 . S
C310 C309 1.396 . S
H311 C306 0.929 . S
O312 Mn288 2.385 . S
O312 C290 1.234 . S
O313 Mn288 2.209 . S
O313 Mn289 2.215 . S
O313 C290 1.283 . S
O314 Mn288 2.094 . S
O314 C292 1.240 . S
O315 Mn289 2.117 . S
O315 C292 1.264 . S
C316 C309 1.403 1_455 S
C316 C317 1.399 1_455 S
C316 H322 0.929 . S
C317 C297 1.449 . S
C317 C316 1.399 1_655 S
C317 H323 0.930 1_655 S
H318 C298 0.931 . S
H319 C299 0.930 . S
H320 C307 0.931 . S
H321 C308 0.929 1_455 S
H322 C316 0.929 . S
H323 C317 0.930 1_455 S
Mn324 O329 2.095 . S
Mn324 O339 2.162 . S
Mn324 O340 2.297 . S
Mn324 O348 2.385 . S
Mn324 O349 2.209 . S
Mn324 O350 2.094 . S
Mn325 O330 2.121 . S
Mn325 N332 2.257 . S
Mn325 N341 2.282 . S
Mn325 O349 2.215 . S
Mn325 O351 2.117 . S
C326 O348 1.234 . S
C326 O349 1.283 . S
C327 O339 1.281 . S
C327 O340 1.236 . S
C328 O350 1.240 . S
C328 O351 1.264 . S
O329 Mn324 2.095 . S
O329 C338 1.250 . S
O330 Mn325 2.121 . S
O330 C338 1.258 . S
C331 N332 1.326 . S
C331 C335 1.460 . S
C331 H337 0.929 . S
N332 Mn325 2.257 . S
N332 C331 1.326 . S
N332 C336 1.362 . S
C333 C334 1.258 . S
C333 C336 1.431 . S
C333 C353 1.449 . S
C334 C333 1.258 . S
C334 C335 1.477 . S
C334 H354 0.931 . S
C335 C331 1.460 . S
C335 C334 1.477 . S
C335 H355 0.930 . S
C336 N332 1.362 . S
C336 C333 1.431 . S
C336 C346 1.476 . S
H337 C331 0.929 . S
C338 O329 1.250 . S
C338 O330 1.258 . S
O339 Mn324 2.162 . S
O339 C327 1.281 . S
O340 Mn324 2.297 . S
O340 C327 1.236 . S
N341 Mn325 2.282 . S
N341 C342 1.328 . S
N341 C346 1.318 . S
C342 N341 1.328 . S
C342 C343 1.457 . S
C342 H347 0.929 . S
C343 C342 1.457 . S
C343 C344 1.291 . S
C343 H356 0.931 . S
C344 C343 1.291 . S
C344 C345 1.373 . S
C344 H357 0.929 . S
C345 C344 1.373 . S
C345 C346 1.396 . S
C345 C352 1.403 . S
C346 C336 1.476 . S
C346 N341 1.318 . S
C346 C345 1.396 . S
H347 C342 0.929 . S
O348 Mn324 2.385 . S
O348 C326 1.234 . S
O349 Mn324 2.209 . S
O349 Mn325 2.215 . S
O349 C326 1.283 . S
O350 Mn324 2.094 . S
O350 C328 1.240 . S
O351 Mn325 2.117 . S
O351 C328 1.264 . S
C352 C345 1.403 . S
C352 C353 1.399 . S
C352 H358 0.929 . S
C353 C333 1.449 . S
C353 C352 1.399 . S
C353 H359 0.930 . S
H354 C334 0.931 . S
H355 C335 0.930 . S
H356 C343 0.931 . S
H357 C344 0.929 . S
H358 C352 0.929 . S
H359 C353 0.930 . S
Mn360 O365 2.095 . S
Mn360 O375 2.162 . S
Mn360 O376 2.297 . S
Mn360 O384 2.385 . S
Mn360 O385 2.209 . S
Mn360 O386 2.094 . S
Mn361 O366 2.121 . S
Mn361 N368 2.257 . S
Mn361 N377 2.282 . S
Mn361 O385 2.215 . S
Mn361 O387 2.117 . S
C362 O384 1.234 . S
C362 O385 1.283 . S
C363 O375 1.281 . S
C363 O376 1.236 . S
C364 O386 1.240 . S
C364 O387 1.264 . S
O365 Mn360 2.095 . S
O365 C374 1.250 . S
O366 Mn361 2.121 . S
O366 C374 1.258 . S
C367 N368 1.326 . S
C367 C371 1.460 . S
C367 H373 0.929 . S
N368 Mn361 2.257 . S
N368 C367 1.326 . S
N368 C372 1.362 . S
C369 C370 1.258 . S
C369 C372 1.431 . S
C369 C389 1.449 . S
C370 C369 1.258 . S
C370 C371 1.477 . S
C370 H390 0.931 . S
C371 C367 1.460 . S
C371 C370 1.477 . S
C371 H391 0.930 . S
C372 N368 1.362 . S
C372 C369 1.431 . S
C372 C382 1.476 . S
H373 C367 0.929 . S
C374 O365 1.250 . S
C374 O366 1.258 . S
O375 Mn360 2.162 . S
O375 C363 1.281 . S
O376 Mn360 2.297 . S
O376 C363 1.236 . S
N377 Mn361 2.282 . S
N377 C378 1.328 . S
N377 C382 1.318 . S
C378 N377 1.328 . S
C378 C379 1.457 . S
C378 H383 0.929 . S
C379 C378 1.457 . S
C379 C380 1.291 . S
C379 H392 0.931 . S
C380 C379 1.291 . S
C380 C381 1.373 . S
C380 H393 0.929 . S
C381 C380 1.373 . S
C381 C382 1.396 . S
C381 C388 1.403 . S
C382 C372 1.476 . S
C382 N377 1.318 . S
C382 C381 1.396 . S
H383 C378 0.929 . S
O384 Mn360 2.385 . S
O384 C362 1.234 . S
O385 Mn360 2.209 . S
O385 Mn361 2.215 . S
O385 C362 1.283 . S
O386 Mn360 2.094 . S
O386 C364 1.240 . S
O387 Mn361 2.117 . S
O387 C364 1.264 . S
C388 C381 1.403 . S
C388 C389 1.399 . S
C388 H394 0.929 . S
C389 C369 1.449 . S
C389 C388 1.399 . S
C389 H395 0.930 . S
H390 C370 0.931 . S
H391 C371 0.930 . S
H392 C379 0.931 . S
H393 C380 0.929 . S
H394 C388 0.929 . S
H395 C389 0.930 . S
Mn396 O401 2.095 . S
Mn396 O411 2.162 . S
Mn396 O412 2.297 . S
Mn396 O420 2.385 . S
Mn396 O421 2.209 . S
Mn396 O422 2.094 . S
Mn397 O402 2.121 . S
Mn397 N404 2.257 . S
Mn397 N413 2.282 . S
Mn397 O421 2.215 . S
Mn397 O423 2.117 . S
C398 O420 1.234 . S
C398 O421 1.283 . S
C399 O411 1.281 . S
C399 O412 1.236 . S
C400 O422 1.240 . S
C400 O423 1.264 . S
O401 Mn396 2.095 . S
O401 C410 1.250 . S
O402 Mn397 2.121 . S
O402 C410 1.258 . S
C403 N404 1.326 . S
C403 C407 1.460 . S
C403 H409 0.929 . S
N404 Mn397 2.257 . S
N404 C403 1.326 . S
N404 C408 1.362 . S
C405 C406 1.258 . S
C405 C408 1.431 . S
C405 C425 1.449 1_455 S
C406 C405 1.258 . S
C406 C407 1.477 . S
C406 H426 0.931 . S
C407 C403 1.460 . S
C407 C406 1.477 . S
C407 H427 0.930 . S
C408 N404 1.362 . S
C408 C405 1.431 . S
C408 C418 1.476 . S
H409 C403 0.929 . S
C410 O401 1.250 . S
C410 O402 1.258 . S
O411 Mn396 2.162 . S
O411 C399 1.281 . S
O412 Mn396 2.297 . S
O412 C399 1.236 . S
N413 Mn397 2.282 . S
N413 C414 1.328 . S
N413 C418 1.318 . S
C414 N413 1.328 . S
C414 C415 1.457 . S
C414 H419 0.929 . S
C415 C414 1.457 . S
C415 C416 1.291 1_455 S
C415 H428 0.931 . S
C416 C415 1.291 1_655 S
C416 C417 1.370 1_655 S
C416 H429 0.929 . S
C417 C416 1.370 1_455 S
C417 C418 1.404 . S
C417 C424 1.397 1_455 S
C418 C408 1.476 . S
C418 N413 1.318 . S
C418 C417 1.404 . S
H419 C414 0.929 . S
O420 Mn396 2.385 . S
O420 C398 1.234 . S
O421 Mn396 2.209 . S
O421 Mn397 2.215 . S
O421 C398 1.283 . S
O422 Mn396 2.094 . S
O422 C400 1.240 . S
O423 Mn397 2.117 . S
O423 C400 1.264 . S
C424 C417 1.397 1_655 S
C424 C425 1.399 . S
C424 H430 0.929 . S
C425 C405 1.449 1_655 S
C425 C424 1.399 . S
C425 H431 0.930 . S
H426 C406 0.931 . S
H427 C407 0.930 . S
H428 C415 0.931 . S
H429 C416 0.929 . S
H430 C424 0.929 . S
H431 C425 0.930 . S
Mn432 O437 2.095 . S
Mn432 O447 2.162 . S
Mn432 O448 2.297 . S
Mn432 O456 2.385 . S
Mn432 O457 2.209 . S
Mn432 O458 2.094 . S
Mn433 O438 2.121 . S
Mn433 N440 2.257 1_554 S
Mn433 N449 2.282 . S
Mn433 O457 2.215 . S
Mn433 O459 2.117 . S
C434 O456 1.234 . S
C434 O457 1.283 . S
C435 O447 1.281 . S
C435 O448 1.236 . S
C436 O458 1.240 . S
C436 O459 1.264 . S
O437 Mn432 2.095 . S
O437 C446 1.250 . S
O438 Mn433 2.121 . S
O438 C446 1.258 . S
C439 N440 1.326 . S
C439 C443 1.460 . S
C439 H445 0.929 . S
N440 Mn433 2.257 1_556 S
N440 C439 1.326 . S
N440 C444 1.362 . S
C441 C442 1.258 . S
C441 C444 1.431 . S
C441 C461 1.449 . S
C442 C441 1.258 . S
C442 C443 1.477 . S
C442 H462 0.931 . S
C443 C439 1.460 . S
C443 C442 1.477 . S
C443 H463 0.930 . S
C444 N440 1.362 . S
C444 C441 1.431 . S
C444 C454 1.476 . S
H445 C439 0.929 . S
C446 O437 1.250 . S
C446 O438 1.258 . S
O447 Mn432 2.162 . S
O447 C435 1.281 . S
O448 Mn432 2.297 . S
O448 C435 1.236 . S
N449 Mn433 2.282 . S
N449 C450 1.328 . S
N449 C454 1.318 1_554 S
C450 N449 1.328 . S
C450 C451 1.457 . S
C450 H455 0.929 . S
C451 C450 1.457 . S
C451 C452 1.291 . S
C451 H464 0.931 . S
C452 C451 1.291 . S
C452 C453 1.373 1_554 S
C452 H465 0.929 . S
C453 C452 1.373 1_556 S
C453 C454 1.396 . S
C453 C460 1.403 . S
C454 C444 1.476 . S
C454 N449 1.318 1_556 S
C454 C453 1.396 . S
H455 C450 0.929 . S
O456 Mn432 2.385 . S
O456 C434 1.234 . S
O457 Mn432 2.209 . S
O457 Mn433 2.215 . S
O457 C434 1.283 . S
O458 Mn432 2.094 . S
O458 C436 1.240 . S
O459 Mn433 2.117 . S
O459 C436 1.264 . S
C460 C453 1.403 . S
C460 C461 1.399 . S
C460 H466 0.929 . S
C461 C441 1.449 . S
C461 C460 1.399 . S
C461 H467 0.930 . S
H462 C442 0.931 . S
H463 C443 0.930 . S
H464 C451 0.931 . S
H465 C452 0.929 . S
H466 C460 0.929 . S
H467 C461 0.930 . S
Mn468 O473 2.095 . S
Mn468 O483 2.162 . S
Mn468 O484 2.297 . S
Mn468 O492 2.385 . S
Mn468 O493 2.209 . S
Mn468 O494 2.094 . S
Mn469 O474 2.121 . S
Mn469 N476 2.257 . S
Mn469 N485 2.282 . S
Mn469 O493 2.215 . S
Mn469 O495 2.117 . S
C470 O492 1.234 . S
C470 O493 1.283 . S
C471 O483 1.281 . S
C471 O484 1.236 . S
C472 O494 1.240 . S
C472 O495 1.264 . S
O473 Mn468 2.095 . S
O473 C482 1.250 . S
O474 Mn469 2.121 . S
O474 C482 1.258 . S
C475 N476 1.326 . S
C475 C479 1.460 . S
C475 H481 0.929 . S
N476 Mn469 2.257 . S
N476 C475 1.326 . S
N476 C480 1.362 . S
C477 C478 1.258 . S
C477 C480 1.431 . S
C477 C497 1.449 1_455 S
C478 C477 1.258 . S
C478 C479 1.477 . S
C478 H498 0.931 . S
C479 C475 1.460 . S
C479 C478 1.477 . S
C479 H499 0.930 . S
C480 N476 1.362 . S
C480 C477 1.431 . S
C480 C490 1.476 . S
H481 C475 0.929 . S
C482 O473 1.250 . S
C482 O474 1.258 . S
O483 Mn468 2.162 . S
O483 C471 1.281 . S
O484 Mn468 2.297 . S
O484 C471 1.236 . S
N485 Mn469 2.282 . S
N485 C486 1.328 . S
N485 C490 1.318 . S
C486 N485 1.328 . S
C486 C487 1.457 . S
C486 H491 0.929 . S
C487 C486 1.457 . S
C487 C488 1.291 1_455 S
C487 H500 0.931 . S
C488 C487 1.291 1_655 S
C488 C489 1.373 1_655 S
C488 H501 0.929 . S
C489 C488 1.373 1_455 S
C489 C490 1.396 . S
C489 C496 1.403 1_455 S
C490 C480 1.476 . S
C490 N485 1.318 . S
C490 C489 1.396 . S
H491 C486 0.929 . S
O492 Mn468 2.385 . S
O492 C470 1.234 . S
O493 Mn468 2.209 . S
O493 Mn469 2.215 . S
O493 C470 1.283 . S
O494 Mn468 2.094 . S
O494 C472 1.240 . S
O495 Mn469 2.117 . S
O495 C472 1.264 . S
C496 C489 1.403 1_655 S
C496 C497 1.399 . S
C496 H502 0.929 . S
C497 C477 1.449 1_655 S
C497 C496 1.399 . S
C497 H503 0.930 . S
H498 C478 0.931 . S
H499 C479 0.930 . S
H500 C487 0.931 . S
H501 C488 0.929 . S
H502 C496 0.929 . S
H503 C497 0.930 . S
Mn504 O509 2.095 . S
Mn504 O519 2.162 . S
Mn504 O520 2.297 . S
Mn504 O528 2.385 . S
Mn504 O529 2.209 . S
Mn504 O530 2.094 . S
Mn505 O510 2.121 . S
Mn505 N512 2.257 . S
Mn505 N521 2.282 . S
Mn505 O529 2.215 . S
Mn505 O531 2.117 . S
C506 O528 1.234 . S
C506 O529 1.283 . S
C507 O519 1.281 . S
C507 O520 1.236 . S
C508 O530 1.240 . S
C508 O531 1.264 . S
O509 Mn504 2.095 . S
O509 C518 1.250 . S
O510 Mn505 2.121 . S
O510 C518 1.258 . S
C511 N512 1.326 . S
C511 C515 1.460 . S
C511 H517 0.929 . S
N512 Mn505 2.257 . S
N512 C511 1.326 . S
N512 C516 1.362 . S
C513 C514 1.258 . S
C513 C516 1.431 . S
C513 C533 1.449 . S
C514 C513 1.258 . S
C514 C515 1.477 . S
C514 H534 0.931 . S
C515 C511 1.460 . S
C515 C514 1.477 . S
C515 H535 0.930 . S
C516 N512 1.362 . S
C516 C513 1.431 . S
C516 C526 1.476 . S
H517 C511 0.929 . S
C518 O509 1.250 . S
C518 O510 1.258 . S
O519 Mn504 2.162 . S
O519 C507 1.281 . S
O520 Mn504 2.297 . S
O520 C507 1.236 . S
N521 Mn505 2.282 . S
N521 C522 1.328 . S
N521 C526 1.318 . S
C522 N521 1.328 . S
C522 C523 1.457 . S
C522 H527 0.929 . S
C523 C522 1.457 . S
C523 C524 1.291 . S
C523 H536 0.931 . S
C524 C523 1.291 . S
C524 C525 1.373 . S
C524 H537 0.929 . S
C525 C524 1.373 . S
C525 C526 1.396 . S
C525 C532 1.403 . S
C526 C516 1.476 . S
C526 N521 1.318 . S
C526 C525 1.396 . S
H527 C522 0.929 . S
O528 Mn504 2.385 . S
O528 C506 1.234 . S
O529 Mn504 2.209 . S
O529 Mn505 2.215 . S
O529 C506 1.283 . S
O530 Mn504 2.094 . S
O530 C508 1.240 . S
O531 Mn505 2.117 . S
O531 C508 1.264 . S
C532 C525 1.403 . S
C532 C533 1.399 . S
C532 H538 0.929 . S
C533 C513 1.449 . S
C533 C532 1.399 . S
C533 H539 0.930 . S
H534 C514 0.931 . S
H535 C515 0.930 . S
H536 C523 0.931 . S
H537 C524 0.929 . S
H538 C532 0.929 . S
H539 C533 0.930 . S
Mn540 O545 2.095 . S
Mn540 O555 2.162 . S
Mn540 O556 2.297 . S
Mn540 O564 2.385 . S
Mn540 O565 2.209 . S
Mn540 O566 2.094 . S
Mn541 O546 2.121 . S
Mn541 N548 2.257 . S
Mn541 N557 2.282 . S
Mn541 O565 2.215 . S
Mn541 O567 2.117 . S
C542 O564 1.234 . S
C542 O565 1.283 . S
C543 O555 1.281 . S
C543 O556 1.236 . S
C544 O566 1.240 . S
C544 O567 1.264 . S
O545 Mn540 2.095 . S
O545 C554 1.250 . S
O546 Mn541 2.121 . S
O546 C554 1.258 . S
C547 N548 1.326 . S
C547 C551 1.460 . S
C547 H553 0.929 . S
N548 Mn541 2.257 . S
N548 C547 1.326 . S
N548 C552 1.362 . S
C549 C550 1.258 . S
C549 C552 1.431 . S
C549 C569 1.449 . S
C550 C549 1.258 . S
C550 C551 1.477 . S
C550 H570 0.931 . S
C551 C547 1.460 . S
C551 C550 1.477 . S
C551 H571 0.930 . S
C552 N548 1.362 . S
C552 C549 1.431 . S
C552 C562 1.476 . S
H553 C547 0.929 . S
C554 O545 1.250 . S
C554 O546 1.258 . S
O555 Mn540 2.162 . S
O555 C543 1.281 . S
O556 Mn540 2.297 . S
O556 C543 1.236 . S
N557 Mn541 2.282 . S
N557 C558 1.328 . S
N557 C562 1.318 . S
C558 N557 1.328 . S
C558 C559 1.457 . S
C558 H563 0.929 . S
C559 C558 1.457 . S
C559 C560 1.291 . S
C559 H572 0.931 . S
C560 C559 1.291 . S
C560 C561 1.373 . S
C560 H573 0.929 . S
C561 C560 1.373 . S
C561 C562 1.396 . S
C561 C568 1.403 . S
C562 C552 1.476 . S
C562 N557 1.318 . S
C562 C561 1.396 . S
H563 C558 0.929 . S
O564 Mn540 2.385 . S
O564 C542 1.234 . S
O565 Mn540 2.209 . S
O565 Mn541 2.215 . S
O565 C542 1.283 . S
O566 Mn540 2.094 . S
O566 C544 1.240 . S
O567 Mn541 2.117 . S
O567 C544 1.264 . S
C568 C561 1.403 . S
C568 C569 1.399 . S
C568 H574 0.929 . S
C569 C549 1.449 . S
C569 C568 1.399 . S
C569 H575 0.930 . S
H570 C550 0.931 . S
H571 C551 0.930 . S
H572 C559 0.931 . S
H573 C560 0.929 . S
H574 C568 0.929 . S
H575 C569 0.930 . S
C576 C577 1.369 . S
C576 C578 1.419 . S
C576 H580 0.930 . S
C577 C576 1.369 . S
C577 C586 1.429 . S
C578 C576 1.419 . S
C578 C579 1.363 . S
C578 H581 0.929 . S
C579 C578 1.363 . S
C579 C585 1.428 . S
H580 C576 0.930 . S
H581 C578 0.929 . S
S582 N583 1.613 . S
S582 N584 1.610 . S
N583 S582 1.613 . S
N583 C586 1.350 . S
N584 S582 1.610 . S
N584 C585 1.351 . S
C585 C579 1.428 . S
C585 N584 1.351 . S
C585 C586 1.434 . S
C586 C577 1.429 . S
C586 N583 1.350 . S
C586 C585 1.434 . S
C587 C588 1.369 . S
C587 C589 1.419 . S
C587 H591 0.930 . S
C588 C587 1.369 . S
C588 C597 1.429 . S
C589 C587 1.419 . S
C589 C590 1.363 . S
C589 H592 0.929 . S
C590 C589 1.363 . S
C590 C596 1.428 . S
H591 C587 0.930 . S
H592 C589 0.929 . S
S593 N594 1.613 . S
S593 N595 1.610 . S
N594 S593 1.613 . S
N594 C597 1.350 . S
N595 S593 1.610 . S
N595 C596 1.351 . S
C596 C590 1.428 . S
C596 N595 1.351 . S
C596 C597 1.434 . S
C597 C588 1.429 . S
C597 N594 1.350 . S
C597 C596 1.434 . S
C598 C599 1.369 . S
C598 C600 1.419 . S
C598 H602 0.930 . S
C599 C598 1.369 . S
C599 C608 1.429 . S
C600 C598 1.419 . S
C600 C601 1.363 . S
C600 H603 0.929 . S
C601 C600 1.363 . S
C601 C607 1.428 . S
H602 C598 0.930 . S
H603 C600 0.929 . S
S604 N605 1.613 . S
S604 N606 1.610 . S
N605 S604 1.613 . S
N605 C608 1.350 . S
N606 S604 1.610 . S
N606 C607 1.351 . S
C607 C601 1.428 . S
C607 N606 1.351 . S
C607 C608 1.434 . S
C608 C599 1.429 . S
C608 N605 1.350 . S
C608 C607 1.434 . S
C609 C610 1.369 . S
C609 C611 1.419 1_455 S
C609 H613 0.930 . S
C610 C609 1.369 . S
C610 C619 1.429 . S
C611 C609 1.419 1_655 S
C611 C612 1.363 . S
C611 H614 0.929 . S
C612 C611 1.363 . S
C612 C618 1.428 . S
H613 C609 0.930 . S
H614 C611 0.929 . S
S615 N616 1.613 . S
S615 N617 1.610 1_455 S
N616 S615 1.613 . S
N616 C619 1.350 . S
N617 S615 1.610 1_655 S
N617 C618 1.351 . S
C618 C612 1.428 . S
C618 N617 1.351 . S
C618 C619 1.434 1_655 S
C619 C610 1.429 . S
C619 N616 1.350 . S
C619 C618 1.434 1_455 S
C620 C621 1.369 . S
C620 C622 1.419 . S
C620 H624 0.930 . S
C621 C620 1.369 . S
C621 C630 1.429 . S
C622 C620 1.419 . S
C622 C623 1.363 . S
C622 H625 0.929 . S
C623 C622 1.363 . S
C623 C629 1.428 . S
H624 C620 0.930 . S
H625 C622 0.929 . S
S626 N627 1.613 1_554 S
S626 N628 1.610 1_554 S
N627 S626 1.613 1_556 S
N627 C630 1.350 . S
N628 S626 1.610 1_556 S
N628 C629 1.351 . S
C629 C623 1.428 . S
C629 N628 1.351 . S
C629 C630 1.434 . S
C630 C621 1.429 . S
C630 N627 1.350 . S
C630 C629 1.434 . S
C631 C632 1.369 . S
C631 C633 1.419 1_655 S
C631 H635 0.930 . S
C632 C631 1.369 . S
C632 C641 1.429 . S
C633 C631 1.419 1_455 S
C633 C634 1.363 . S
C633 H636 0.929 . S
C634 C633 1.363 . S
C634 C640 1.428 . S
H635 C631 0.930 . S
H636 C633 0.929 . S
S637 N638 1.613 1_455 S
S637 N639 1.610 . S
N638 S637 1.613 1_655 S
N638 C641 1.350 . S
N639 S637 1.610 . S
N639 C640 1.351 . S
C640 C634 1.428 . S
C640 N639 1.351 . S
C640 C641 1.434 1_455 S
C641 C632 1.429 . S
C641 N638 1.350 . S
C641 C640 1.434 1_655 S
C642 C643 1.369 . S
C642 C644 1.419 . S
C642 H646 0.930 . S
C643 C642 1.369 . S
C643 C652 1.429 . S
C644 C642 1.419 . S
C644 C645 1.363 . S
C644 H647 0.929 . S
C645 C644 1.363 . S
C645 C651 1.428 . S
H646 C642 0.930 . S
H647 C644 0.929 . S
S648 N649 1.613 . S
S648 N650 1.610 . S
N649 S648 1.613 . S
N649 C652 1.350 . S
N650 S648 1.610 . S
N650 C651 1.351 . S
C651 C645 1.428 . S
C651 N650 1.351 . S
C651 C652 1.434 . S
C652 C643 1.429 . S
C652 N649 1.350 . S
C652 C651 1.434 . S
C653 C654 1.369 . S
C653 C655 1.419 . S
C653 H657 0.930 . S
C654 C653 1.369 . S
C654 C663 1.429 . S
C655 C653 1.419 . S
C655 C656 1.363 . S
C655 H658 0.929 . S
C656 C655 1.363 . S
C656 C662 1.428 . S
H657 C653 0.930 . S
H658 C655 0.929 . S
S659 N660 1.613 . S
S659 N661 1.610 . S
N660 S659 1.613 . S
N660 C663 1.350 . S
N661 S659 1.610 . S
N661 C662 1.351 . S
C662 C656 1.428 . S
C662 N661 1.351 . S
C662 C663 1.434 . S
C663 C654 1.429 . S
C663 N660 1.350 . S
C663 C662 1.434 . S
C664 C665 1.369 . S
C664 C666 1.419 . S
C664 H668 0.930 . S
C665 C664 1.369 . S
C665 C674 1.429 . S
C666 C664 1.419 . S
C666 C667 1.363 . S
C666 H669 0.929 . S
C667 C666 1.363 . S
C667 C673 1.428 . S
H668 C664 0.930 . S
H669 C666 0.929 . S
S670 N671 1.613 . S
S670 N672 1.610 . S
N671 S670 1.613 . S
N671 C674 1.350 . S
N672 S670 1.610 . S
N672 C673 1.351 . S
C673 C667 1.428 . S
C673 N672 1.351 . S
C673 C674 1.434 . S
C674 C665 1.429 . S
C674 N671 1.350 . S
C674 C673 1.434 . S
C675 C676 1.369 . S
C675 C677 1.419 . S
C675 H679 0.930 . S
C676 C675 1.369 . S
C676 C685 1.429 . S
C677 C675 1.419 . S
C677 C678 1.363 . S
C677 H680 0.929 . S
C678 C677 1.363 . S
C678 C684 1.428 . S
H679 C675 0.930 . S
H680 C677 0.929 . S
S681 N682 1.613 . S
S681 N683 1.610 . S
N682 S681 1.613 . S
N682 C685 1.350 . S
N683 S681 1.610 . S
N683 C684 1.351 . S
C684 C678 1.428 . S
C684 N683 1.351 . S
C684 C685 1.434 . S
C685 C676 1.429 . S
C685 N682 1.350 . S
C685 C684 1.434 . S
C686 C687 1.369 . S
C686 C688 1.419 . S
C686 H690 0.930 . S
C687 C686 1.369 . S
C687 C696 1.429 . S
C688 C686 1.419 . S
C688 C689 1.363 . S
C688 H691 0.929 . S
C689 C688 1.363 . S
C689 C695 1.428 . S
H690 C686 0.930 . S
H691 C688 0.929 . S
S692 N693 1.613 . S
S692 N694 1.610 . S
N693 S692 1.613 . S
N693 C696 1.350 . S
N694 S692 1.610 . S
N694 C695 1.351 . S
C695 C689 1.428 . S
C695 N694 1.351 . S
C695 C696 1.434 . S
C696 C687 1.429 . S
C696 N693 1.350 . S
C696 C695 1.434 . S
C697 C698 1.369 . S
C697 C699 1.419 . S
C697 H701 0.930 . S
C698 C697 1.369 . S
C698 C707 1.429 . S
C699 C697 1.419 . S
C699 C700 1.363 . S
C699 H702 0.929 . S
C700 C699 1.363 . S
C700 C706 1.428 . S
H701 C697 0.930 . S
H702 C699 0.929 . S
S703 N704 1.613 . S
S703 N705 1.610 . S
N704 S703 1.613 . S
N704 C707 1.350 . S
N705 S703 1.610 . S
N705 C706 1.351 . S
C706 C700 1.428 . S
C706 N705 1.351 . S
C706 C707 1.434 . S
C707 C698 1.429 . S
C707 N704 1.350 . S
C707 C706 1.434 . S
C708 C709 1.369 . S
C708 C710 1.419 1_455 S
C708 H712 0.930 . S
C709 C708 1.369 . S
C709 C718 1.429 . S
C710 C708 1.419 1_655 S
C710 C711 1.363 . S
C710 H713 0.929 . S
C711 C710 1.363 . S
C711 C717 1.428 . S
H712 C708 0.930 . S
H713 C710 0.929 . S
S714 N715 1.613 1_655 S
S714 N716 1.610 . S
N715 S714 1.613 1_455 S
N715 C718 1.350 . S
N716 S714 1.610 . S
N716 C717 1.351 . S
C717 C711 1.428 . S
C717 N716 1.351 . S
C717 C718 1.434 1_655 S
C718 C709 1.429 . S
C718 N715 1.350 . S
C718 C717 1.434 1_455 S
C719 C720 1.369 . S
C719 C721 1.419 . S
C719 H723 0.930 . S
C720 C719 1.369 . S
C720 C729 1.429 . S
C721 C719 1.419 . S
C721 C722 1.363 . S
C721 H724 0.929 . S
C722 C721 1.363 . S
C722 C728 1.428 . S
H723 C719 0.930 . S
H724 C721 0.929 . S
S725 N726 1.613 . S
S725 N727 1.610 . S
N726 S725 1.613 . S
N726 C729 1.350 . S
N727 S725 1.610 . S
N727 C728 1.351 . S
C728 C722 1.428 . S
C728 N727 1.351 . S
C728 C729 1.434 . S
C729 C720 1.429 . S
C729 N726 1.350 . S
C729 C728 1.434 . S
C730 C731 1.369 . S
C730 C732 1.419 . S
C730 H734 0.930 . S
C731 C730 1.369 . S
C731 C740 1.429 . S
C732 C730 1.419 . S
C732 C733 1.363 . S
C732 H735 0.929 . S
C733 C732 1.363 . S
C733 C739 1.428 . S
H734 C730 0.930 . S
H735 C732 0.929 . S
S736 N737 1.613 . S
S736 N738 1.610 . S
N737 S736 1.613 . S
N737 C740 1.350 . S
N738 S736 1.610 . S
N738 C739 1.351 . S
C739 C733 1.428 . S
C739 N738 1.351 . S
C739 C740 1.434 . S
C740 C731 1.429 . S
C740 N737 1.350 . S
C740 C739 1.434 . S
C741 C742 1.369 . S
C741 C743 1.419 1_455 S
C741 H745 0.930 . S
C742 C741 1.369 . S
C742 C751 1.429 . S
C743 C741 1.419 1_655 S
C743 C744 1.363 . S
C743 H746 0.929 . S
C744 C743 1.363 . S
C744 C750 1.428 . S
H745 C741 0.930 . S
H746 C743 0.929 . S
S747 N748 1.613 . S
S747 N749 1.610 1_455 S
N748 S747 1.613 . S
N748 C751 1.350 . S
N749 S747 1.610 1_655 S
N749 C750 1.351 . S
C750 C744 1.428 . S
C750 N749 1.351 . S
C750 C751 1.434 1_655 S
C751 C742 1.429 . S
C751 N748 1.350 . S
C751 C750 1.434 1_455 S
C752 C753 1.369 1_556 S
C752 C754 1.419 . S
C752 H756 0.930 . S
C753 C752 1.369 1_554 S
C753 C762 1.429 . S
C754 C752 1.419 . S
C754 C755 1.363 . S
C754 H757 0.929 . S
C755 C754 1.363 . S
C755 C761 1.428 . S
H756 C752 0.930 . S
H757 C754 0.929 . S
S758 N759 1.613 . S
S758 N760 1.610 . S
N759 S758 1.613 . S
N759 C762 1.350 . S
N760 S758 1.610 . S
N760 C761 1.351 1_554 S
C761 C755 1.428 . S
C761 N760 1.351 1_556 S
C761 C762 1.434 1_556 S
C762 C753 1.429 . S
C762 N759 1.350 . S
C762 C761 1.434 1_554 S
C763 C764 1.369 . S
C763 C765 1.419 . S
C763 H767 0.930 . S
C764 C763 1.369 . S
C764 C773 1.429 . S
C765 C763 1.419 . S
C765 C766 1.363 . S
C765 H768 0.929 . S
C766 C765 1.363 . S
C766 C772 1.428 . S
H767 C763 0.930 . S
H768 C765 0.929 . S
S769 N770 1.613 . S
S769 N771 1.610 . S
N770 S769 1.613 . S
N770 C773 1.350 . S
N771 S769 1.610 . S
N771 C772 1.351 . S
C772 C766 1.428 . S
C772 N771 1.351 . S
C772 C773 1.434 . S
C773 C764 1.429 . S
C773 N770 1.350 . S
C773 C772 1.434 . S
C774 C775 1.369 . S
C774 C776 1.419 . S
C774 H778 0.930 . S
C775 C774 1.369 . S
C775 C784 1.429 . S
C776 C774 1.419 . S
C776 C777 1.363 . S
C776 H779 0.929 . S
C777 C776 1.363 . S
C777 C783 1.428 . S
H778 C774 0.930 . S
H779 C776 0.929 . S
S780 N781 1.613 . S
S780 N782 1.610 . S
N781 S780 1.613 . S
N781 C784 1.350 . S
N782 S780 1.610 . S
N782 C783 1.351 . S
C783 C777 1.428 . S
C783 N782 1.351 . S
C783 C784 1.434 . S
C784 C775 1.429 . S
C784 N781 1.350 . S
C784 C783 1.434 . S
C785 C786 1.369 . S
C785 C787 1.419 . S
C785 H789 0.930 . S
C786 C785 1.369 . S
C786 C795 1.429 . S
C787 C785 1.419 . S
C787 C788 1.363 . S
C787 H790 0.929 . S
C788 C787 1.363 . S
C788 C794 1.428 . S
H789 C785 0.930 . S
H790 C787 0.929 . S
S791 N792 1.613 . S
S791 N793 1.610 . S
N792 S791 1.613 . S
N792 C795 1.350 . S
N793 S791 1.610 . S
N793 C794 1.351 . S
C794 C788 1.428 . S
C794 N793 1.351 . S
C794 C795 1.434 . S
C795 C786 1.429 . S
C795 N792 1.350 . S
C795 C794 1.434 . S
C796 C797 1.369 . S
C796 C798 1.419 . S
C796 H800 0.930 . S
C797 C796 1.369 . S
C797 C806 1.429 1_556 S
C798 C796 1.419 . S
C798 C799 1.363 1_556 S
C798 H801 0.929 . S
C799 C798 1.363 1_554 S
C799 C805 1.428 . S
H800 C796 0.930 . S
H801 C798 0.929 . S
S802 N803 1.613 . S
S802 N804 1.610 . S
N803 S802 1.613 . S
N803 C806 1.350 . S
N804 S802 1.610 . S
N804 C805 1.351 . S
C805 C799 1.428 . S
C805 N804 1.351 . S
C805 C806 1.434 . S
C806 C797 1.429 1_554 S
C806 N803 1.350 . S
C806 C805 1.434 . S
C807 C808 1.369 . S
C807 C809 1.419 . S
C807 H811 0.930 . S
C808 C807 1.369 . S
C808 C817 1.429 . S
C809 C807 1.419 . S
C809 C810 1.363 . S
C809 H812 0.929 . S
C810 C809 1.363 . S
C810 C816 1.428 . S
H811 C807 0.930 . S
H812 C809 0.929 . S
S813 N814 1.613 . S
S813 N815 1.610 . S
N814 S813 1.613 . S
N814 C817 1.350 . S
N815 S813 1.610 . S
N815 C816 1.351 . S
C816 C810 1.428 . S
C816 N815 1.351 . S
C816 C817 1.434 . S
C817 C808 1.429 . S
C817 N814 1.350 . S
C817 C816 1.434 . S
C818 C819 1.369 . S
C818 C820 1.419 . S
C818 H822 0.930 . S
C819 C818 1.369 . S
C819 C828 1.429 . S
C820 C818 1.419 . S
C820 C821 1.363 . S
C820 H823 0.929 . S
C821 C820 1.363 . S
C821 C827 1.428 . S
H822 C818 0.930 . S
H823 C820 0.929 . S
S824 N825 1.613 . S
S824 N826 1.610 . S
N825 S824 1.613 . S
N825 C828 1.350 . S
N826 S824 1.610 . S
N826 C827 1.351 . S
C827 C821 1.428 . S
C827 N826 1.351 . S
C827 C828 1.434 . S
C828 C819 1.429 . S
C828 N825 1.350 . S
C828 C827 1.434 . S
C829 C830 1.369 . S
C829 C831 1.419 . S
C829 H833 0.930 . S
C830 C829 1.369 . S
C830 C839 1.429 . S
C831 C829 1.419 . S
C831 C832 1.363 . S
C831 H834 0.929 . S
C832 C831 1.363 . S
C832 C838 1.428 . S
H833 C829 0.930 . S
H834 C831 0.929 . S
S835 N836 1.613 . S
S835 N837 1.610 . S
N836 S835 1.613 . S
N836 C839 1.350 . S
N837 S835 1.610 . S
N837 C838 1.351 . S
C838 C832 1.428 . S
C838 N837 1.351 . S
C838 C839 1.434 . S
C839 C830 1.429 . S
C839 N836 1.350 . S
C839 C838 1.434 . S
C840 C841 1.369 . S
C840 C842 1.419 1_545 S
C840 H844 0.930 . S
C841 C840 1.369 . S
C841 C850 1.429 . S
C842 C840 1.419 1_565 S
C842 C843 1.363 . S
C842 H845 0.929 . S
C843 C842 1.363 . S
C843 C849 1.428 . S
H844 C840 0.930 . S
H845 C842 0.929 . S
S846 N847 1.613 1_565 S
S846 N848 1.610 . S
N847 S846 1.613 1_545 S
N847 C850 1.350 . S
N848 S846 1.610 . S
N848 C849 1.351 . S
C849 C843 1.428 . S
C849 N848 1.351 . S
C849 C850 1.434 1_565 S
C850 C841 1.429 . S
C850 N847 1.350 . S
C850 C849 1.434 1_545 S
C851 C852 1.369 . S
C851 C853 1.419 . S
C851 H855 0.930 . S
C852 C851 1.369 . S
C852 C861 1.429 . S
C853 C851 1.419 . S
C853 C854 1.363 . S
C853 H856 0.929 . S
C854 C853 1.363 . S
C854 C860 1.428 . S
H855 C851 0.930 . S
H856 C853 0.929 . S
S857 N858 1.613 . S
S857 N859 1.610 . S
N858 S857 1.613 . S
N858 C861 1.350 . S
N859 S857 1.610 . S
N859 C860 1.351 . S
C860 C854 1.428 . S
C860 N859 1.351 . S
C860 C861 1.434 . S
C861 C852 1.429 . S
C861 N858 1.350 . S
C861 C860 1.434 . S
C862 C863 1.369 . S
C862 C864 1.419 1_546 S
C862 H866 0.930 1_556 S
C863 C862 1.369 . S
C863 C872 1.429 . S
C864 C862 1.419 1_564 S
C864 C865 1.363 . S
C864 H867 0.929 . S
C865 C864 1.363 . S
C865 C871 1.428 1_554 S
H866 C862 0.930 1_554 S
H867 C864 0.929 . S
S868 N869 1.613 1_565 S
S868 N870 1.610 . S
N869 S868 1.613 1_545 S
N869 C872 1.350 . S
N870 S868 1.610 . S
N870 C871 1.351 . S
C871 C865 1.428 1_556 S
C871 N870 1.351 . S
C871 C872 1.434 1_565 S
C872 C863 1.429 . S
C872 N869 1.350 . S
C872 C871 1.434 1_545 S
C873 C874 1.369 . S
C873 C875 1.419 . S
C873 H877 0.930 . S
C874 C873 1.369 . S
C874 C883 1.429 . S
C875 C873 1.419 . S
C875 C876 1.363 . S
C875 H878 0.929 . S
C876 C875 1.363 . S
C876 C882 1.428 . S
H877 C873 0.930 . S
H878 C875 0.929 . S
S879 N880 1.613 . S
S879 N881 1.610 . S
N880 S879 1.613 . S
N880 C883 1.350 . S
N881 S879 1.610 . S
N881 C882 1.351 . S
C882 C876 1.428 . S
C882 N881 1.351 . S
C882 C883 1.434 . S
C883 C874 1.429 . S
C883 N880 1.350 . S
C883 C882 1.434 . S
C884 C885 1.369 . S
C884 C886 1.419 1_545 S
C884 H888 0.930 . S
C885 C884 1.369 . S
C885 C894 1.429 . S
C886 C884 1.419 1_565 S
C886 C887 1.363 . S
C886 H889 0.929 . S
C887 C886 1.363 . S
C887 C893 1.428 . S
H888 C884 0.930 . S
H889 C886 0.929 . S
S890 N891 1.613 . S
S890 N892 1.610 1_545 S
N891 S890 1.613 . S
N891 C894 1.350 . S
N892 S890 1.610 1_565 S
N892 C893 1.351 . S
C893 C887 1.428 . S
C893 N892 1.351 . S
C893 C894 1.434 1_565 S
C894 C885 1.429 . S
C894 N891 1.350 . S
C894 C893 1.434 1_545 S
C895 C896 1.369 . S
C895 C897 1.419 . S
C895 H899 0.930 . S
C896 C895 1.369 . S
C896 C905 1.429 . S
C897 C895 1.419 . S
C897 C898 1.363 . S
C897 H900 0.929 . S
C898 C897 1.363 . S
C898 C904 1.428 . S
H899 C895 0.930 . S
H900 C897 0.929 . S
S901 N902 1.613 . S
S901 N903 1.610 . S
N902 S901 1.613 . S
N902 C905 1.350 . S
N903 S901 1.610 . S
N903 C904 1.351 . S
C904 C898 1.428 . S
C904 N903 1.351 . S
C904 C905 1.434 . S
C905 C896 1.429 . S
C905 N902 1.350 . S
C905 C904 1.434 . S
C906 C907 1.393 . S
C906 C908 1.391 1_565 S
C906 H910 0.934 . S
C907 C906 1.393 . S
C907 C916 1.429 1_554 S
C908 C906 1.391 1_545 S
C908 C909 1.363 1_554 S
C908 H911 0.929 . S
C909 C908 1.363 1_556 S
C909 C915 1.428 . S
H910 C906 0.934 . S
H911 C908 0.929 . S
S912 N913 1.613 . S
S912 N914 1.610 1_565 S
N913 S912 1.613 . S
N913 C916 1.350 . S
N914 S912 1.610 1_545 S
N914 C915 1.351 . S
C915 C909 1.428 . S
C915 N914 1.351 . S
C915 C916 1.434 1_545 S
C916 C907 1.429 1_556 S
C916 N913 1.350 . S
C916 C915 1.434 1_565 S
C917 C918 1.369 . S
C917 C919 1.419 . S
C917 H921 0.930 . S
C918 C917 1.369 . S
C918 C927 1.429 . S
C919 C917 1.419 . S
C919 C920 1.363 . S
C919 H922 0.929 . S
C920 C919 1.363 . S
C920 C926 1.428 . S
H921 C917 0.930 . S
H922 C919 0.929 . S
S923 N924 1.613 . S
S923 N925 1.610 . S
N924 S923 1.613 . S
N924 C927 1.350 . S
N925 S923 1.610 . S
N925 C926 1.351 . S
C926 C920 1.428 . S
C926 N925 1.351 . S
C926 C927 1.434 . S
C927 C918 1.429 . S
C927 N924 1.350 . S
C927 C926 1.434 . S
C577 C400 1.329 . S
C579 C4 1.319 . S
C588 C544 1.326 . S
C590 C40 1.322 . S
C599 C76 1.441 . S
C601 C326 1.437 . S
C610 C470 1.451 . S
C612 C110 1.444 . S
C621 C146 1.387 . S
C623 C472 1.391 . S
C632 C182 1.401 . S
C634 C398 1.391 . S
C643 C220 1.467 . S
C645 C542 1.439 . S
C654 C254 1.447 . S
C656 C328 1.453 . S
C665 C112 1.352 . S
C667 C292 1.341 . S
C676 C364 1.357 . S
C678 C38 1.342 . S
C687 C434 1.380 . S
C689 C184 1.376 . S
C698 C508 1.367 . S
C700 C256 1.352 . S
C709 C148 1.418 . S
C711 C290 1.412 . S
C720 C362 1.486 . S
C722 C218 1.484 . S
C731 C506 1.450 . S
C733 C74 1.464 . S
C742 C2 1.409 . S
C744 C436 1.413 . S
C753 C3 1.301 . S
C755 C158 1.265 . S
C764 C39 1.348 . S
C766 C194 1.289 . S
C775 C75 1.390 . S
C777 C219 1.391 . S
C786 C266 1.284 . S
C788 C122 1.284 . S
C797 C291 1.285 . S
C799 C446 1.249 . S
C808 C482 1.350 . S
C810 C327 1.398 . S
C819 C363 1.327 . S
C821 C507 1.330 . S
C830 C543 1.322 . S
C832 C410 1.262 . S
C841 C255 1.252 . S
C843 C50 1.214 . S
C852 C86 1.339 . S
C854 C147 1.387 . S
C863 C111 1.333 . S
C865 C183 1.330 . S
C874 C14 1.324 . S
C876 C230 1.342 . S
C885 C338 1.313 . S
C887 C554 1.291 . S
C896 C435 1.377 . S
C898 C374 1.325 . S
C907 C399 1.321 . S
C909 C471 1.315 . S
C918 C518 1.292 . S
C920 C302 1.292 . S
