# Generated by pormake.
# Topology unj, (4)-cn, num edge types: 1
# Building blocks:
#     Node 0, Type 0, BuildingBlock: ICAMEG_clean_sbu_1, # of connection points: 4
#     Node 1, Type 0, BuildingBlock: ICAMEG_clean_sbu_1, # of connection points: 4
#     Node 2, Type 0, BuildingBlock: ICAMEG_clean_sbu_1, # of connection points: 4
#     Node 3, Type 0, BuildingBlock: ICAMEG_clean_sbu_1, # of connection points: 4
#     Node 4, Type 0, BuildingBlock: ICAMEG_clean_sbu_1, # of connection points: 4
#     Node 5, Type 0, BuildingBlock: ICAMEG_clean_sbu_1, # of connection points: 4
#     Edge 6, Type (0, 0), None
#     Edge 7, Type (0, 0), None
#     Edge 8, Type (0, 0), None
#     Edge 9, Type (0, 0), None
#     Edge 10, Type (0, 0), None
#     Edge 11, Type (0, 0), None
#     Edge 12, Type (0, 0), None
#     Edge 13, Type (0, 0), None
#     Edge 14, Type (0, 0), None
#     Edge 15, Type (0, 0), None
#     Edge 16, Type (0, 0), None
#     Edge 17, Type (0, 0), None
# Relax obj value: 0.094
# Max RMSD: 0.193
# Mean RMSD: 0.154
data_MOF--net-unj--node1-ICAMEG_clean_sbu_1--edge1-none
_symmetry_space_group_name_H-M    P1
_symmetry_Int_Tables_number       1
_symmetry_cell_setting            triclinic
loop_
_symmetry_equiv_pos_as_xyz
'x, y, z'
_cell_length_a     15.275568
_cell_length_b     17.666215
_cell_length_c     18.794051
_cell_angle_alpha  90.000329
_cell_angle_beta   89.99951
_cell_angle_gamma 121.25235
loop_
_atom_site_label
_atom_site_type_symbol
_atom_site_fract_x
_atom_site_fract_y
_atom_site_fract_z
_atom_type_partial_charge
Co0 Co 0.61419 0.37057 0.60544 0.0
Co1 Co 0.42159 0.16141 0.63967 0.0
O2 O 0.52292 0.24749 0.57379 0.0
C3 C 0.63366 0.47607 0.47274 0.0
O4 O 0.60366 0.5222 0.50891 0.0
C5 C 0.4601 0.04208 0.53737 0.0
O6 O 0.51422 0.10589 0.49183 0.0
O7 O 0.53623 0.18761 0.70582 0.0
O8 O 0.60678 0.33443 0.7083 0.0
H9 H 0.28989 0.05897 0.88633 0.0
H10 H 0.67091 0.26942 0.50783 0.0
O11 O 0.63152 0.40926 0.50161 0.0
H12 H 0.92037 0.37956 0.70424 0.0
H13 H 0.90982 0.68185 0.5804 0.0
H14 H 0.60588 0.48014 0.72182 0.0
H15 H 0.80526 0.43517 0.68806 0.0
H16 H 0.80987 0.5245 0.55155 0.0
O17 O 0.42918 0.05814 0.59593 0.0
H18 H 0.40199 0.16501 0.79554 0.0
H19 H 0.24197 0.97619 0.633 0.0
H20 H 0.71058 0.63664 0.7572 0.0
H21 H 0.77694 0.2033 0.52863 0.0
H22 H 0.86249 0.74042 0.68465 0.0
H23 H 0.90467 0.26125 0.62563 0.0
O24 O 0.49012 0.37993 0.62018 0.0
H25 H 0.26641 0.13904 0.39739 0.0
H26 H 0.205 0.12 0.65569 0.0
H27 H 0.06343 0.08068 0.57259 0.0
H28 H 0.09619 0.09999 0.44314 0.0
H29 H 0.40211 0.16387 0.48062 0.0
H30 H 0.11634 0.87283 0.72229 0.0
H31 H 0.13822 0.91606 0.8483 0.0
O32 O 0.40268 0.2565 0.68612 0.0
C33 C 0.59677 0.2632 0.73363 0.0
C34 C 0.27735 0.04075 0.83064 0.0
C35 C 0.18057 0.93608 0.73819 0.0
N36 N 0.32675 0.07736 0.70865 0.0
C37 C 0.3411 0.10031 0.77895 0.0
C38 C 0.25061 0.99487 0.68831 0.0
C39 C 0.19378 0.9598 0.80955 0.0
C40 C 0.72614 0.29434 0.55057 0.0
N41 N 0.731 0.35593 0.59683 0.0
C42 C 0.78639 0.25719 0.56161 0.0
C43 C 0.85793 0.28918 0.61631 0.0
C44 C 0.86738 0.3562 0.66017 0.0
C45 C 0.80307 0.38893 0.64965 0.0
C46 C 0.84499 0.63851 0.61295 0.0
C47 C 0.67353 0.5241 0.69144 0.0
C48 C 0.78695 0.54896 0.59616 0.0
N49 N 0.70107 0.4932 0.63433 0.0
C50 C 0.73176 0.61305 0.71109 0.0
C51 C 0.81733 0.67095 0.67078 0.0
C52 C 0.42111 0.33306 0.66659 0.0
C53 C 0.2524 0.13376 0.45405 0.0
C54 C 0.21878 0.12159 0.59918 0.0
C55 C 0.1391 0.10336 0.55255 0.0
C56 C 0.15703 0.11238 0.47968 0.0
N57 N 0.31147 0.13916 0.57384 0.0
C58 C 0.32879 0.14649 0.50197 0.0
Co59 Co 0.19324 0.34534 0.80443 0.0
Co60 Co 0.21414 0.54547 0.78107 0.0
O61 O 0.22089 0.44464 0.74244 0.0
C62 C 0.36253 0.36938 0.70116 0.0
O63 O 0.37004 0.44114 0.67491 0.0
C64 C 0.12589 0.51977 0.63442 0.0
O65 O 0.09492 0.43554 0.6385 0.0
O66 O 0.06617 0.46263 0.80331 0.0
O67 O 0.07741 0.35205 0.85331 0.0
H68 H 0.08308 0.68562 0.94657 0.0
H69 H 0.17843 0.3307 0.64587 0.0
O70 O 0.30194 0.32881 0.75378 0.0
H71 H 0.8706 0.06484 0.73681 0.0
H72 H 0.11498 0.04099 0.87823 0.0
H73 H 0.16985 0.32556 0.95942 0.0
H74 H 0.98622 0.18349 0.81846 0.0
H75 H 0.15962 0.16078 0.791 0.0
O76 O 0.17773 0.57197 0.68482 0.0
H77 H 0.10176 0.56541 0.90021 0.0
H78 H 0.30604 0.73605 0.74046 0.0
H79 H 0.15954 0.21831 0.04769 0.0
H80 H 0.05484 0.22198 0.56113 0.0
H81 H 0.13129 0.07376 1.00693 0.0
H82 H 0.90049 0.08565 0.60637 0.0
O83 O 0.30032 0.43094 0.87312 0.0
H84 H 0.52611 0.64659 0.6311 0.0
H85 H 0.40019 0.67747 0.86382 0.0
H86 H 0.58459 0.74167 0.84554 0.0
H87 H 0.64961 0.73277 0.72683 0.0
H88 H 0.34103 0.57701 0.6527 0.0
H89 H 0.30468 0.86263 0.79434 0.0
H90 H 0.19539 0.83757 0.90091 0.0
O91 O 0.25103 0.52878 0.88023 0.0
C92 C 0.02743 0.39064 0.8391 0.0
C93 C 0.1352 0.69817 0.90303 0.0
C94 C 0.25806 0.79707 0.81677 0.0
N95 N 0.2058 0.6436 0.81801 0.0
C96 C 0.14417 0.62963 0.87526 0.0
C97 C 0.25968 0.7254 0.78714 0.0
C98 C 0.19596 0.78307 0.87565 0.0
C99 C 0.11 0.27369 0.66614 0.0
N100 N 0.09137 0.26245 0.7376 0.0
C101 C 0.04043 0.21182 0.61775 0.0
C102 C 0.95353 0.13572 0.6431 0.0
C103 C 0.93553 0.12465 0.71599 0.0
C104 C 0.00261 0.19128 0.76226 0.0
C105 C 0.1366 0.10621 0.89607 0.0
C106 C 0.16384 0.26518 0.94105 0.0
C107 C 0.1571 0.17298 0.84714 0.0
N108 N 0.16815 0.25088 0.86991 0.0
C109 C 0.15727 0.20442 0.99147 0.0
C110 C 0.1428 0.12389 0.96861 0.0
C111 C 0.30292 0.49647 0.90362 0.0
C112 C 0.49899 0.65534 0.68164 0.0
C113 C 0.42694 0.67012 0.81258 0.0
C114 C 0.5319 0.70776 0.80231 0.0
C115 C 0.5682 0.70186 0.73596 0.0
N116 N 0.35909 0.62174 0.7598 0.0
C117 C 0.39415 0.6161 0.69435 0.0
Co118 Co 0.76699 0.3899 0.92044 0.0
Co119 Co 0.71807 0.18059 0.89893 0.0
O120 O 0.71687 0.27023 0.9595 0.0
C121 C 0.86655 0.44909 0.0653 0.0
O122 O 0.93014 0.42168 0.05286 0.0
C123 C 0.57609 0.05921 1.01515 0.0
O124 O 0.62175 0.12111 0.06351 0.0
O125 O 0.62839 0.19743 0.83235 0.0
O126 O 0.72634 0.34373 0.82009 0.0
H127 H 0.70254 0.0735 0.65169 0.0
H128 H 0.60194 0.30174 0.02868 0.0
O129 O 0.80018 0.43914 0.01959 0.0
H130 H 0.46751 0.41379 0.84467 0.0
H131 H 0.84203 0.7038 0.92854 0.0
H132 H 0.89608 0.48991 0.79718 0.0
H133 H 0.64123 0.4395 0.83486 0.0
H134 H 0.76074 0.54894 0.96902 0.0
O135 O 0.59057 0.07979 0.94872 0.0
H136 H 0.75784 0.18577 0.74577 0.0
H137 H 0.64835 0.98563 0.90415 0.0
H138 H 0.97806 0.64379 0.75445 0.0
H139 H 0.42273 0.26519 0.03577 0.0
H140 H 0.95203 0.75225 0.82069 0.0
H141 H 0.35805 0.32649 0.94603 0.0
O142 O 0.90425 0.40415 0.90647 0.0
H143 H 0.90752 0.22752 0.13026 0.0
H144 H 0.84772 0.09507 0.89257 0.0
H145 H 0.94765 0.0691 0.977 0.0
H146 H 0.97839 0.13307 0.09848 0.0
H147 H 0.80075 0.24657 0.04755 0.0
H148 H 0.5891 0.87238 0.81217 0.0
H149 H 0.61657 0.91433 0.68445 0.0
O150 O 0.85102 0.27494 0.85072 0.0
C151 C 0.65231 0.26852 0.79958 0.0
C152 C 0.69138 0.05371 0.70705 0.0
C153 C 0.62865 0.94074 0.79689 0.0
N154 N 0.70847 0.09323 0.83111 0.0
C155 C 0.72446 0.11732 0.76088 0.0
C156 C 0.66181 0.0058 0.84917 0.0
C157 C 0.64322 0.96463 0.72539 0.0
C158 C 0.57251 0.32585 0.98795 0.0
N159 N 0.63235 0.37348 0.93167 0.0
C160 C 0.47164 0.30593 0.99283 0.0
C161 C 0.43433 0.33891 0.94165 0.0
C162 C 0.49601 0.38831 0.88495 0.0
C163 C 0.59483 0.40372 0.88019 0.0
C164 C 0.85381 0.65712 0.89914 0.0
C165 C 0.88259 0.53608 0.82543 0.0
C166 C 0.808 0.56926 0.92181 0.0
N167 N 0.82252 0.50985 0.88494 0.0
C168 C 0.92983 0.62338 0.80129 0.0
C169 C 0.91547 0.68427 0.83862 0.0
C170 C 0.92232 0.35343 0.86894 0.0
C171 C 0.89105 0.19486 0.07914 0.0
C172 C 0.85399 0.12026 0.94546 0.0
C173 C 0.91385 0.10657 0.99329 0.0
C174 C 0.93157 0.14307 0.06095 0.0
N175 N 0.80727 0.16536 0.9652 0.0
C176 C 0.82996 0.20588 0.03054 0.0
Co177 Co 0.37697 0.63624 0.10544 0.0
Co178 Co 0.56956 0.84541 0.13967 0.0
O179 O 0.46824 0.75933 0.07379 0.0
C180 C 0.3575 0.53074 0.97274 0.0
O181 O 0.38749 0.4846 1.00891 0.0
C182 C 0.53103 0.96472 0.03737 0.0
O183 O 0.47693 0.90092 0.99182 0.0
O184 O 0.45493 0.8192 0.20582 0.0
O185 O 0.38437 0.67239 0.2083 0.0
H186 H 0.70128 0.94786 0.38632 0.0
H187 H 0.32024 0.73739 1.00783 0.0
O188 O 0.35964 0.59755 1.00161 0.0
H189 H 0.07079 0.62726 0.20425 0.0
H190 H 0.08135 0.32496 0.0804 0.0
H191 H 0.38528 0.52667 0.22182 0.0
H192 H 0.1859 0.57164 0.18806 0.0
H193 H 0.18128 0.48231 0.05156 0.0
O194 O 0.56197 0.94867 0.09593 0.0
H195 H 0.58916 0.84181 0.29554 0.0
H196 H 0.74919 0.03062 0.13299 0.0
H197 H 0.28059 0.37018 0.2572 0.0
H198 H 0.21422 0.80353 0.02864 0.0
H199 H 0.12868 0.2664 0.18464 0.0
H200 H 0.0865 0.74557 0.12564 0.0
O201 O 0.50104 0.62689 0.12018 0.0
H202 H 0.72474 0.86778 0.89739 0.0
H203 H 0.78615 0.8868 0.15569 0.0
H204 H 0.92772 0.92612 0.07258 0.0
H205 H 0.89496 0.90682 0.94313 0.0
H206 H 0.58905 0.84295 0.98061 0.0
H207 H 0.87482 0.13399 0.22227 0.0
H208 H 0.85295 0.09076 0.34829 0.0
O209 O 0.58847 0.75031 0.18612 0.0
C210 C 0.39439 0.74362 0.23363 0.0
C211 C 0.71382 0.96607 0.33063 0.0
C212 C 0.8106 0.07074 0.23817 0.0
N213 N 0.66441 0.92946 0.20865 0.0
C214 C 0.65006 0.90651 0.27895 0.0
C215 C 0.74055 0.01194 0.1883 0.0
C216 C 0.79739 0.04702 0.30954 0.0
C217 C 0.26502 0.71247 0.05057 0.0
N218 N 0.26016 0.65088 0.09683 0.0
C219 C 0.20477 0.74963 0.06161 0.0
C220 C 0.13324 0.71764 0.11632 0.0
C221 C 0.12378 0.65062 0.16017 0.0
C222 C 0.18809 0.61788 0.14965 0.0
C223 C 0.14617 0.3683 0.11295 0.0
C224 C 0.31764 0.48272 0.19144 0.0
C225 C 0.20421 0.45785 0.09616 0.0
N226 N 0.29009 0.51361 0.13433 0.0
C227 C 0.25941 0.39377 0.21109 0.0
C228 C 0.17384 0.33586 0.17078 0.0
C229 C 0.57005 0.67375 0.16659 0.0
C230 C 0.73875 0.87305 0.95405 0.0
C231 C 0.77238 0.88522 0.09918 0.0
C232 C 0.85205 0.90345 0.05255 0.0
C233 C 0.83412 0.89442 0.97967 0.0
N234 N 0.67968 0.86765 0.07384 0.0
C235 C 0.66237 0.86033 1.00197 0.0
Co236 Co 0.79792 0.66147 0.30443 0.0
Co237 Co 0.77702 0.46134 0.28106 0.0
O238 O 0.77027 0.56218 0.24243 0.0
C239 C 0.62863 0.63743 0.20116 0.0
O240 O 0.62112 0.56568 0.17491 0.0
C241 C 0.8653 0.48707 0.13442 0.0
O242 O 0.89626 0.57129 0.13847 0.0
O243 O 0.92498 0.54418 0.3033 0.0
O244 O 0.91374 0.65477 0.35331 0.0
H245 H 0.90806 0.32118 0.44655 0.0
H246 H 0.81273 0.67612 0.14587 0.0
O247 O 0.68921 0.67801 0.25378 0.0
H248 H 0.12056 0.94198 0.23682 0.0
H249 H 0.87616 0.96582 0.37825 0.0
H250 H 0.8213 0.68124 0.45942 0.0
H251 H 0.00493 0.82333 0.31846 0.0
H252 H 0.83153 0.84604 0.29101 0.0
O253 O 0.81343 0.43486 0.18481 0.0
H254 H 0.88938 0.4414 0.40019 0.0
H255 H 0.68511 0.27076 0.24044 0.0
H256 H 0.8316 0.78849 0.5477 0.0
H257 H 0.93633 0.78484 0.06114 0.0
H258 H 0.85985 0.93304 0.50694 0.0
H259 H 0.09068 0.92118 0.10638 0.0
O260 O 0.69083 0.57588 0.37312 0.0
H261 H 0.46506 0.36024 0.13107 0.0
H262 H 0.59095 0.32934 0.3638 0.0
H263 H 0.40656 0.26514 0.3455 0.0
H264 H 0.34156 0.27405 0.22679 0.0
H265 H 0.65015 0.42981 0.15268 0.0
H266 H 0.68646 0.14418 0.29431 0.0
H267 H 0.79574 0.16924 0.40089 0.0
O268 O 0.74012 0.47803 0.38022 0.0
C269 C 0.96372 0.61617 0.3391 0.0
C270 C 0.85594 0.30864 0.40301 0.0
C271 C 0.73308 0.20974 0.31675 0.0
N272 N 0.78534 0.36321 0.318 0.0
C273 C 0.84697 0.37718 0.37524 0.0
C274 C 0.73146 0.28141 0.28711 0.0
C275 C 0.79518 0.22374 0.37563 0.0
C276 C 0.88117 0.73313 0.16614 0.0
N277 N 0.89978 0.74437 0.23761 0.0
C278 C 0.95074 0.795 0.11775 0.0
C279 C 0.03763 0.8711 0.1431 0.0
C280 C 0.05563 0.88217 0.216 0.0
C281 C 0.98854 0.81554 0.26226 0.0
C282 C 0.85454 0.90059 0.39608 0.0
C283 C 0.82731 0.74163 0.44105 0.0
C284 C 0.83404 0.83384 0.34715 0.0
N285 N 0.823 0.75593 0.36991 0.0
C286 C 0.83387 0.80238 0.49147 0.0
C287 C 0.84834 0.88292 0.46862 0.0
C288 C 0.68822 0.51033 0.40361 0.0
C289 C 0.49218 0.35148 0.18161 0.0
C290 C 0.56421 0.3367 0.31255 0.0
C291 C 0.45925 0.29905 0.30228 0.0
C292 C 0.42296 0.30496 0.23592 0.0
N293 N 0.63206 0.38508 0.25978 0.0
C294 C 0.59701 0.39073 0.19432 0.0
Co295 Co 0.22415 0.61691 0.42044 0.0
Co296 Co 0.27308 0.82622 0.39894 0.0
O297 O 0.27427 0.73657 0.45951 0.0
C298 C 0.12462 0.55774 0.5653 0.0
O299 O 0.0611 0.58523 0.5529 0.0
C300 C 0.41508 0.9476 0.51516 0.0
O301 O 0.36943 0.88571 0.56353 0.0
O302 O 0.36277 0.80939 0.33235 0.0
O303 O 0.26481 0.66309 0.32008 0.0
H304 H 0.28863 0.93333 0.1517 0.0
H305 H 0.38919 0.70505 0.52868 0.0
O306 O 0.19096 0.56765 0.51958 0.0
H307 H 0.52365 0.59302 0.34467 0.0
H308 H 0.14912 0.303 0.42851 0.0
H309 H 0.09507 0.51691 0.29717 0.0
H310 H 0.34992 0.56732 0.33485 0.0
H311 H 0.23041 0.45786 0.469 0.0
O312 O 0.40059 0.92702 0.44873 0.0
H313 H 0.23332 0.82105 0.24577 0.0
H314 H 0.3428 0.02118 0.40417 0.0
H315 H 0.01308 0.36303 0.25443 0.0
H316 H 0.56839 0.7416 0.53579 0.0
H317 H 0.03911 0.25457 0.32066 0.0
H318 H 0.63309 0.68031 0.44603 0.0
O319 O 0.0869 0.60266 0.40647 0.0
H320 H 0.08365 0.77931 0.63028 0.0
H321 H 0.14342 0.91173 0.39257 0.0
H322 H 0.04349 0.9377 0.477 0.0
H323 H 0.01276 0.87374 0.59848 0.0
H324 H 0.19044 0.76027 0.54757 0.0
H325 H 0.40206 0.13444 0.3122 0.0
H326 H 0.3746 0.0925 0.18447 0.0
O327 O 0.14013 0.73188 0.35073 0.0
C328 C 0.33885 0.73829 0.29958 0.0
C329 C 0.29979 0.95312 0.20706 0.0
C330 C 0.36251 0.06608 0.29691 0.0
N331 N 0.28269 0.91358 0.33112 0.0
C332 C 0.2667 0.8895 0.26089 0.0
C333 C 0.32935 1.00102 0.34918 0.0
C334 C 0.34794 0.04219 0.2254 0.0
C335 C 0.41862 0.68094 0.48796 0.0
N336 N 0.3588 0.63333 0.43167 0.0
C337 C 0.5195 0.70087 0.49283 0.0
C338 C 0.55682 0.66789 0.44165 0.0
C339 C 0.49514 0.6185 0.38495 0.0
C340 C 0.39632 0.6031 0.38019 0.0
C341 C 0.13734 0.34969 0.39911 0.0
C342 C 0.10855 0.47073 0.32542 0.0
C343 C 0.18315 0.43755 0.42179 0.0
N344 N 0.16863 0.49696 0.38493 0.0
C345 C 0.06131 0.38344 0.30128 0.0
C346 C 0.07567 0.32254 0.3386 0.0
C347 C 0.06883 0.65339 0.36894 0.0
C348 C 0.10012 0.81197 0.57915 0.0
C349 C 0.13716 0.88654 0.44546 0.0
C350 C 0.07729 0.90024 0.49329 0.0
C351 C 0.05958 0.86374 0.56096 0.0
N352 N 0.18388 0.84145 0.4652 0.0
C353 C 0.16121 0.80095 0.53055 0.0
loop_
_geom_bond_atom_site_label_1
_geom_bond_atom_site_label_2
_geom_bond_distance
_geom_bond_site_symmetry_2
_ccdc_geom_bond_type
Co0 O2 2.143 . S
Co0 O8 2.074 . S
Co0 O11 2.093 . S
Co0 O24 2.097 . S
Co0 N41 2.151 . S
Co0 N49 2.214 . S
Co1 O2 2.160 . S
Co1 O7 2.058 . S
Co1 O17 2.057 . S
Co1 O32 2.037 . S
Co1 N36 2.145 . S
Co1 N57 2.257 . S
O2 Co0 2.143 . S
O2 Co1 2.160 . S
C3 O4 1.278 . S
C3 O11 1.224 . S
O4 C3 1.278 . S
C5 O6 1.245 . S
C5 O17 1.232 . S
O6 C5 1.245 . S
O7 Co1 2.058 . S
O7 C33 1.269 . S
O8 Co0 2.074 . S
O8 C33 1.257 . S
H9 C34 0.930 . S
H10 C40 0.930 . S
O11 Co0 2.093 . S
O11 C3 1.224 . S
H12 C44 0.929 . S
H13 C46 0.930 . S
H14 C47 0.930 . S
H15 C45 0.929 . S
H16 C48 0.928 . S
O17 Co1 2.057 . S
O17 C5 1.232 . S
H18 C37 0.929 . S
H19 C38 0.929 1_565 S
H20 C50 0.931 . S
H21 C42 0.929 . S
H22 C51 0.930 . S
H23 C43 0.931 1_455 S
O24 Co0 2.097 . S
O24 C52 1.214 . S
H25 C53 0.929 . S
H26 C54 0.929 . S
H27 C55 0.930 . S
H28 C56 0.929 . S
H29 C58 0.930 . S
H30 C35 0.930 . S
H31 C39 0.930 . S
O32 Co1 2.037 . S
O32 C52 1.234 . S
C33 O7 1.269 . S
C33 O8 1.257 . S
C34 H9 0.930 . S
C34 C37 1.388 . S
C34 C39 1.418 1_545 S
C35 H30 0.930 . S
C35 C38 1.404 1_565 S
C35 C39 1.353 . S
N36 Co1 2.145 . S
N36 C37 1.397 . S
N36 C38 1.334 . S
C37 H18 0.929 . S
C37 C34 1.388 . S
C37 N36 1.397 . S
C38 H19 0.929 1_545 S
C38 C35 1.404 1_545 S
C38 N36 1.334 . S
C39 H31 0.930 . S
C39 C34 1.418 1_565 S
C39 C35 1.353 . S
C40 H10 0.930 . S
C40 N41 1.330 . S
C40 C42 1.446 . S
N41 Co0 2.151 . S
N41 C40 1.330 . S
N41 C45 1.418 . S
C42 H21 0.929 . S
C42 C40 1.446 . S
C42 C43 1.332 . S
C43 H23 0.931 1_655 S
C43 C42 1.332 . S
C43 C44 1.267 . S
C44 H12 0.929 . S
C44 C43 1.267 . S
C44 C45 1.251 . S
C45 H15 0.929 . S
C45 N41 1.418 . S
C45 C44 1.251 . S
C46 H13 0.930 . S
C46 C48 1.406 . S
C46 C51 1.261 . S
C47 H14 0.930 . S
C47 N49 1.325 . S
C47 C50 1.357 . S
C48 H16 0.928 . S
C48 C46 1.406 . S
C48 N49 1.261 . S
N49 Co0 2.214 . S
N49 C47 1.325 . S
N49 C48 1.261 . S
C50 H20 0.931 . S
C50 C47 1.357 . S
C50 C51 1.312 . S
C51 H22 0.930 . S
C51 C46 1.261 . S
C51 C50 1.312 . S
C52 O24 1.214 . S
C52 O32 1.234 . S
C53 H25 0.929 . S
C53 C56 1.391 . S
C53 C58 1.391 . S
C54 H26 0.929 . S
C54 C55 1.390 . S
C54 N57 1.391 . S
C55 H27 0.930 . S
C55 C54 1.390 . S
C55 C56 1.392 . S
C56 H28 0.929 . S
C56 C53 1.391 . S
C56 C55 1.392 . S
N57 Co1 2.257 . S
N57 C54 1.391 . S
N57 C58 1.388 . S
C58 H29 0.930 . S
C58 C53 1.391 . S
C58 N57 1.388 . S
Co59 O61 2.143 . S
Co59 O67 2.074 . S
Co59 O70 2.093 . S
Co59 O83 2.097 . S
Co59 N100 2.151 . S
Co59 N108 2.214 . S
Co60 O61 2.160 . S
Co60 O66 2.058 . S
Co60 O76 2.057 . S
Co60 O91 2.037 . S
Co60 N95 2.145 . S
Co60 N116 2.257 . S
O61 Co59 2.143 . S
O61 Co60 2.160 . S
C62 O63 1.278 . S
C62 O70 1.224 . S
O63 C62 1.278 . S
C64 O65 1.245 . S
C64 O76 1.232 . S
O65 C64 1.245 . S
O66 Co60 2.058 . S
O66 C92 1.269 . S
O67 Co59 2.074 . S
O67 C92 1.257 . S
H68 C93 0.930 . S
H69 C99 0.930 . S
O70 Co59 2.093 . S
O70 C62 1.224 . S
H71 C103 0.929 . S
H72 C105 0.930 . S
H73 C106 0.930 . S
H74 C104 0.929 . S
H75 C107 0.928 . S
O76 Co60 2.057 . S
O76 C64 1.232 . S
H77 C96 0.929 . S
H78 C97 0.929 . S
H79 C109 0.931 1_554 S
H80 C101 0.929 . S
H81 C110 0.930 1_554 S
H82 C102 0.931 1_655 S
O83 Co59 2.097 . S
O83 C111 1.214 . S
H84 C112 0.929 . S
H85 C113 0.929 . S
H86 C114 0.930 . S
H87 C115 0.929 . S
H88 C117 0.930 . S
H89 C94 0.930 . S
H90 C98 0.930 . S
O91 Co60 2.037 . S
O91 C111 1.234 . S
C92 O66 1.269 . S
C92 O67 1.257 . S
C93 H68 0.930 . S
C93 C96 1.388 . S
C93 C98 1.418 . S
C94 H89 0.930 . S
C94 C97 1.404 . S
C94 C98 1.353 . S
N95 Co60 2.145 . S
N95 C96 1.397 . S
N95 C97 1.334 . S
C96 H77 0.929 . S
C96 C93 1.388 . S
C96 N95 1.397 . S
C97 H78 0.929 . S
C97 C94 1.404 . S
C97 N95 1.334 . S
C98 H90 0.930 . S
C98 C93 1.418 . S
C98 C94 1.353 . S
C99 H69 0.930 . S
C99 N100 1.330 . S
C99 C101 1.446 . S
N100 Co59 2.151 . S
N100 C99 1.330 . S
N100 C104 1.418 . S
C101 H80 0.929 . S
C101 C99 1.446 . S
C101 C102 1.332 . S
C102 H82 0.931 1_455 S
C102 C101 1.332 . S
C102 C103 1.267 1_455 S
C103 H71 0.929 . S
C103 C102 1.267 1_655 S
C103 C104 1.251 1_655 S
C104 H74 0.929 . S
C104 N100 1.418 . S
C104 C103 1.251 1_455 S
C105 H72 0.930 . S
C105 C107 1.406 . S
C105 C110 1.261 . S
C106 H73 0.930 . S
C106 N108 1.325 . S
C106 C109 1.357 . S
C107 H75 0.928 . S
C107 C105 1.406 . S
C107 N108 1.261 . S
N108 Co59 2.214 . S
N108 C106 1.325 . S
N108 C107 1.261 . S
C109 H79 0.931 1_556 S
C109 C106 1.357 . S
C109 C110 1.312 . S
C110 H81 0.930 1_556 S
C110 C105 1.261 . S
C110 C109 1.312 . S
C111 O83 1.214 . S
C111 O91 1.234 . S
C112 H84 0.929 . S
C112 C115 1.391 . S
C112 C117 1.391 . S
C113 H85 0.929 . S
C113 C114 1.390 . S
C113 N116 1.391 . S
C114 H86 0.930 . S
C114 C113 1.390 . S
C114 C115 1.392 . S
C115 H87 0.929 . S
C115 C112 1.391 . S
C115 C114 1.392 . S
N116 Co60 2.257 . S
N116 C113 1.391 . S
N116 C117 1.388 . S
C117 H88 0.930 . S
C117 C112 1.391 . S
C117 N116 1.388 . S
Co118 O120 2.143 . S
Co118 O126 2.074 . S
Co118 O129 2.093 1_556 S
Co118 O142 2.097 . S
Co118 N159 2.151 . S
Co118 N167 2.214 . S
Co119 O120 2.160 . S
Co119 O125 2.058 . S
Co119 O135 2.057 . S
Co119 O150 2.037 . S
Co119 N154 2.145 . S
Co119 N175 2.257 . S
O120 Co118 2.143 . S
O120 Co119 2.160 . S
C121 O122 1.278 . S
C121 O129 1.224 . S
O122 C121 1.278 . S
C123 O124 1.245 . S
C123 O135 1.232 . S
O124 C123 1.245 . S
O125 Co119 2.058 . S
O125 C151 1.269 . S
O126 Co118 2.074 . S
O126 C151 1.257 . S
H127 C152 0.930 . S
H128 C158 0.930 1_554 S
O129 Co118 2.093 1_554 S
O129 C121 1.224 . S
H130 C162 0.929 . S
H131 C164 0.930 . S
H132 C165 0.930 . S
H133 C163 0.929 . S
H134 C166 0.928 . S
O135 Co119 2.057 . S
O135 C123 1.232 . S
H136 C155 0.929 . S
H137 C156 0.929 1_565 S
H138 C168 0.931 . S
H139 C160 0.916 1_554 S
H140 C169 0.930 . S
H141 C161 0.931 . S
O142 Co118 2.097 . S
O142 C170 1.214 . S
H143 C171 0.929 . S
H144 C172 0.929 1_455 S
H145 C173 0.930 . S
H146 C174 0.929 . S
H147 C176 0.930 . S
H148 C153 0.930 . S
H149 C157 0.930 1_565 S
O150 Co119 2.037 . S
O150 C170 1.234 . S
C151 O125 1.269 . S
C151 O126 1.257 . S
C152 H127 0.930 . S
C152 C155 1.388 . S
C152 C157 1.418 . S
C153 H148 0.930 . S
C153 C156 1.404 1_565 S
C153 C157 1.353 1_565 S
N154 Co119 2.145 . S
N154 C155 1.397 . S
N154 C156 1.334 . S
C155 H136 0.929 . S
C155 C152 1.388 . S
C155 N154 1.397 . S
C156 H137 0.929 1_545 S
C156 C153 1.404 1_545 S
C156 N154 1.334 . S
C157 H149 0.930 1_545 S
C157 C152 1.418 . S
C157 C153 1.353 1_545 S
C158 H128 0.930 1_556 S
C158 N159 1.330 . S
C158 C160 1.449 . S
N159 Co118 2.151 . S
N159 C158 1.330 . S
N159 C163 1.418 . S
C160 H139 0.916 1_556 S
C160 C158 1.449 . S
C160 C161 1.344 . S
C161 H141 0.931 . S
C161 C160 1.344 . S
C161 C162 1.267 . S
C162 H130 0.929 . S
C162 C161 1.267 . S
C162 C163 1.251 . S
C163 H133 0.929 . S
C163 N159 1.418 . S
C163 C162 1.251 . S
C164 H131 0.930 . S
C164 C166 1.406 . S
C164 C169 1.261 . S
C165 H132 0.930 . S
C165 N167 1.325 . S
C165 C168 1.357 . S
C166 H134 0.928 . S
C166 C164 1.406 . S
C166 N167 1.261 . S
N167 Co118 2.214 . S
N167 C165 1.325 . S
N167 C166 1.261 . S
C168 H138 0.931 . S
C168 C165 1.357 . S
C168 C169 1.312 . S
C169 H140 0.930 . S
C169 C164 1.261 . S
C169 C168 1.312 . S
C170 O142 1.214 . S
C170 O150 1.234 . S
C171 H143 0.929 . S
C171 C174 1.391 1_655 S
C171 C176 1.391 . S
C172 H144 0.929 1_655 S
C172 C173 1.390 1_655 S
C172 N175 1.391 . S
C173 H145 0.930 . S
C173 C172 1.390 1_455 S
C173 C174 1.392 1_556 S
C174 H146 0.929 . S
C174 C171 1.391 1_455 S
C174 C173 1.392 1_554 S
N175 Co119 2.257 . S
N175 C172 1.391 . S
N175 C176 1.388 1_556 S
C176 H147 0.930 . S
C176 C171 1.391 . S
C176 N175 1.388 1_554 S
Co177 O179 2.143 . S
Co177 O185 2.074 . S
Co177 O188 2.093 1_554 S
Co177 O201 2.097 . S
Co177 N218 2.151 . S
Co177 N226 2.214 . S
Co178 O179 2.160 . S
Co178 O184 2.058 . S
Co178 O194 2.057 . S
Co178 O209 2.037 . S
Co178 N213 2.145 . S
Co178 N234 2.257 . S
O179 Co177 2.143 . S
O179 Co178 2.160 . S
C180 O181 1.278 . S
C180 O188 1.224 . S
O181 C180 1.278 . S
C182 O183 1.245 . S
C182 O194 1.232 . S
O183 C182 1.245 . S
O184 Co178 2.058 . S
O184 C210 1.269 . S
O185 Co177 2.074 . S
O185 C210 1.257 . S
H186 C211 0.930 . S
H187 C217 0.930 1_556 S
O188 Co177 2.093 1_556 S
O188 C180 1.224 . S
H189 C221 0.929 . S
H190 C223 0.930 . S
H191 C224 0.930 . S
H192 C222 0.929 . S
H193 C225 0.928 . S
O194 Co178 2.057 . S
O194 C182 1.232 . S
H195 C214 0.929 . S
H196 C215 0.929 1_545 S
H197 C227 0.931 . S
H198 C219 0.929 . S
H199 C228 0.930 . S
H200 C220 0.931 1_655 S
O201 Co177 2.097 . S
O201 C229 1.214 . S
H202 C230 0.929 . S
H203 C231 0.929 . S
H204 C232 0.930 . S
H205 C233 0.929 . S
H206 C235 0.930 . S
H207 C212 0.930 . S
H208 C216 0.930 . S
O209 Co178 2.037 . S
O209 C229 1.234 . S
C210 O184 1.269 . S
C210 O185 1.257 . S
C211 H186 0.930 . S
C211 C214 1.388 . S
C211 C216 1.418 1_565 S
C212 H207 0.930 . S
C212 C215 1.404 1_545 S
C212 C216 1.353 . S
N213 Co178 2.145 . S
N213 C214 1.397 . S
N213 C215 1.334 . S
C214 H195 0.929 . S
C214 C211 1.388 . S
C214 N213 1.397 . S
C215 H196 0.929 1_565 S
C215 C212 1.404 1_565 S
C215 N213 1.334 . S
C216 H208 0.930 . S
C216 C211 1.418 1_545 S
C216 C212 1.353 . S
C217 H187 0.930 1_554 S
C217 N218 1.330 . S
C217 C219 1.446 1_554 S
N218 Co177 2.151 . S
N218 C217 1.330 . S
N218 C222 1.418 . S
C219 H198 0.929 . S
C219 C217 1.446 1_556 S
C219 C220 1.332 1_556 S
C220 H200 0.931 1_455 S
C220 C219 1.332 1_554 S
C220 C221 1.267 . S
C221 H189 0.929 . S
C221 C220 1.267 . S
C221 C222 1.251 . S
C222 H192 0.929 . S
C222 N218 1.418 . S
C222 C221 1.251 . S
C223 H190 0.930 . S
C223 C225 1.406 . S
C223 C228 1.261 . S
C224 H191 0.930 . S
C224 N226 1.325 . S
C224 C227 1.357 . S
C225 H193 0.928 . S
C225 C223 1.406 . S
C225 N226 1.261 . S
N226 Co177 2.214 . S
N226 C224 1.325 . S
N226 C225 1.261 . S
C227 H197 0.931 . S
C227 C224 1.357 . S
C227 C228 1.312 . S
C228 H199 0.930 . S
C228 C223 1.261 . S
C228 C227 1.312 . S
C229 O201 1.214 . S
C229 O209 1.234 . S
C230 H202 0.929 . S
C230 C233 1.391 . S
C230 C235 1.391 . S
C231 H203 0.929 . S
C231 C232 1.390 . S
C231 N234 1.391 . S
C232 H204 0.930 . S
C232 C231 1.390 . S
C232 C233 1.392 1_554 S
C233 H205 0.929 . S
C233 C230 1.391 . S
C233 C232 1.392 1_556 S
N234 Co178 2.257 . S
N234 C231 1.391 . S
N234 C235 1.388 1_554 S
C235 H206 0.930 . S
C235 C230 1.391 . S
C235 N234 1.388 1_556 S
Co236 O238 2.143 . S
Co236 O244 2.074 . S
Co236 O247 2.093 . S
Co236 O260 2.097 . S
Co236 N277 2.151 . S
Co236 N285 2.214 . S
Co237 O238 2.160 . S
Co237 O243 2.058 . S
Co237 O253 2.057 . S
Co237 O268 2.037 . S
Co237 N272 2.145 . S
Co237 N293 2.257 . S
O238 Co236 2.143 . S
O238 Co237 2.160 . S
C239 O240 1.278 . S
C239 O247 1.224 . S
O240 C239 1.278 . S
C241 O242 1.245 . S
C241 O253 1.232 . S
O242 C241 1.245 . S
O243 Co237 2.058 . S
O243 C269 1.269 . S
O244 Co236 2.074 . S
O244 C269 1.257 . S
H245 C270 0.930 . S
H246 C276 0.930 . S
O247 Co236 2.093 . S
O247 C239 1.224 . S
H248 C280 0.929 . S
H249 C282 0.930 . S
H250 C283 0.930 . S
H251 C281 0.929 . S
H252 C284 0.928 . S
O253 Co237 2.057 . S
O253 C241 1.232 . S
H254 C273 0.929 . S
H255 C274 0.929 . S
H256 C286 0.931 . S
H257 C278 0.929 . S
H258 C287 0.930 . S
H259 C279 0.931 1_455 S
O260 Co236 2.097 . S
O260 C288 1.214 . S
H261 C289 0.929 . S
H262 C290 0.929 . S
H263 C291 0.930 . S
H264 C292 0.929 . S
H265 C294 0.930 . S
H266 C271 0.930 . S
H267 C275 0.930 . S
O268 Co237 2.037 . S
O268 C288 1.234 . S
C269 O243 1.269 . S
C269 O244 1.257 . S
C270 H245 0.930 . S
C270 C273 1.388 . S
C270 C275 1.418 . S
C271 H266 0.930 . S
C271 C274 1.404 . S
C271 C275 1.353 . S
N272 Co237 2.145 . S
N272 C273 1.397 . S
N272 C274 1.334 . S
C273 H254 0.929 . S
C273 C270 1.388 . S
C273 N272 1.397 . S
C274 H255 0.929 . S
C274 C271 1.404 . S
C274 N272 1.334 . S
C275 H267 0.930 . S
C275 C270 1.418 . S
C275 C271 1.353 . S
C276 H246 0.930 . S
C276 N277 1.330 . S
C276 C278 1.446 . S
N277 Co236 2.151 . S
N277 C276 1.330 . S
N277 C281 1.418 . S
C278 H257 0.929 . S
C278 C276 1.446 . S
C278 C279 1.332 . S
C279 H259 0.931 1_655 S
C279 C278 1.332 . S
C279 C280 1.267 1_655 S
C280 H248 0.929 . S
C280 C279 1.267 1_455 S
C280 C281 1.251 1_455 S
C281 H251 0.929 . S
C281 N277 1.418 . S
C281 C280 1.251 1_655 S
C282 H249 0.930 . S
C282 C284 1.406 . S
C282 C287 1.261 . S
C283 H250 0.930 . S
C283 N285 1.325 . S
C283 C286 1.357 . S
C284 H252 0.928 . S
C284 C282 1.406 . S
C284 N285 1.261 . S
N285 Co236 2.214 . S
N285 C283 1.325 . S
N285 C284 1.261 . S
C286 H256 0.931 . S
C286 C283 1.357 . S
C286 C287 1.312 . S
C287 H258 0.930 . S
C287 C282 1.261 . S
C287 C286 1.312 . S
C288 O260 1.214 . S
C288 O268 1.234 . S
C289 H261 0.929 . S
C289 C292 1.391 . S
C289 C294 1.391 . S
C290 H262 0.929 . S
C290 C291 1.390 . S
C290 N293 1.391 . S
C291 H263 0.930 . S
C291 C290 1.390 . S
C291 C292 1.392 . S
C292 H264 0.929 . S
C292 C289 1.391 . S
C292 C291 1.392 . S
N293 Co237 2.257 . S
N293 C290 1.391 . S
N293 C294 1.388 . S
C294 H265 0.930 . S
C294 C289 1.391 . S
C294 N293 1.388 . S
Co295 O297 2.143 . S
Co295 O303 2.074 . S
Co295 O306 2.093 . S
Co295 O319 2.097 . S
Co295 N336 2.151 . S
Co295 N344 2.214 . S
Co296 O297 2.160 . S
Co296 O302 2.058 . S
Co296 O312 2.057 . S
Co296 O327 2.037 . S
Co296 N331 2.145 . S
Co296 N352 2.257 . S
O297 Co295 2.143 . S
O297 Co296 2.160 . S
C298 O299 1.278 . S
C298 O306 1.224 . S
O299 C298 1.278 . S
C300 O301 1.245 . S
C300 O312 1.232 . S
O301 C300 1.245 . S
O302 Co296 2.058 . S
O302 C328 1.269 . S
O303 Co295 2.074 . S
O303 C328 1.257 . S
H304 C329 0.930 . S
H305 C335 0.930 . S
O306 Co295 2.093 . S
O306 C298 1.224 . S
H307 C339 0.929 . S
H308 C341 0.930 . S
H309 C342 0.930 . S
H310 C340 0.929 . S
H311 C343 0.928 . S
O312 Co296 2.057 . S
O312 C300 1.232 . S
H313 C332 0.929 . S
H314 C333 0.929 1_545 S
H315 C345 0.931 . S
H316 C337 0.929 . S
H317 C346 0.930 . S
H318 C338 0.931 . S
O319 Co295 2.097 . S
O319 C347 1.214 . S
H320 C348 0.929 . S
H321 C349 0.929 1_655 S
H322 C350 0.930 . S
H323 C351 0.929 . S
H324 C353 0.930 . S
H325 C330 0.930 . S
H326 C334 0.930 1_545 S
O327 Co296 2.037 . S
O327 C347 1.234 . S
C328 O302 1.269 . S
C328 O303 1.257 . S
C329 H304 0.930 . S
C329 C332 1.388 . S
C329 C334 1.418 . S
C330 H325 0.930 . S
C330 C333 1.404 1_545 S
C330 C334 1.353 1_545 S
N331 Co296 2.145 . S
N331 C332 1.397 . S
N331 C333 1.334 . S
C332 H313 0.929 . S
C332 C329 1.388 . S
C332 N331 1.397 . S
C333 H314 0.929 1_565 S
C333 C330 1.404 1_565 S
C333 N331 1.334 . S
C334 H326 0.930 1_565 S
C334 C329 1.418 . S
C334 C330 1.353 1_565 S
C335 H305 0.930 . S
C335 N336 1.330 . S
C335 C337 1.446 . S
N336 Co295 2.151 . S
N336 C335 1.330 . S
N336 C340 1.418 . S
C337 H316 0.929 . S
C337 C335 1.446 . S
C337 C338 1.332 . S
C338 H318 0.931 . S
C338 C337 1.332 . S
C338 C339 1.267 . S
C339 H307 0.929 . S
C339 C338 1.267 . S
C339 C340 1.251 . S
C340 H310 0.929 . S
C340 N336 1.418 . S
C340 C339 1.251 . S
C341 H308 0.930 . S
C341 C343 1.406 . S
C341 C346 1.261 . S
C342 H309 0.930 . S
C342 N344 1.325 . S
C342 C345 1.357 . S
C343 H311 0.928 . S
C343 C341 1.406 . S
C343 N344 1.261 . S
N344 Co295 2.214 . S
N344 C342 1.325 . S
N344 C343 1.261 . S
C345 H315 0.931 . S
C345 C342 1.357 . S
C345 C346 1.312 . S
C346 H317 0.930 . S
C346 C341 1.261 . S
C346 C345 1.312 . S
C347 O319 1.214 . S
C347 O327 1.234 . S
C348 H320 0.929 . S
C348 C351 1.391 1_455 S
C348 C353 1.391 . S
C349 H321 0.929 1_455 S
C349 C350 1.390 1_455 S
C349 N352 1.391 . S
C350 H322 0.930 . S
C350 C349 1.390 1_655 S
C350 C351 1.392 . S
C351 H323 0.929 . S
C351 C348 1.391 1_655 S
C351 C350 1.392 . S
N352 Co296 2.257 . S
N352 C349 1.391 . S
N352 C353 1.388 . S
C353 H324 0.930 . S
C353 C348 1.391 . S
C353 N352 1.388 . S
C5 C300 1.959 1_545 S
C52 C62 1.851 . S
C170 C92 1.705 1_655 S
C182 C123 1.959 1_564 S
C239 C229 1.851 . S
C347 C269 1.705 1_455 S
C3 C288 1.559 . S
C298 C64 1.368 . S
C151 C33 1.735 . S
C111 C180 1.559 . S
C121 C241 1.368 . S
C328 C210 1.735 . S
