# Generated by pormake.
# Topology sow, (4)-cn, num edge types: 1
# Building blocks:
#     Node 0, Type 0, BuildingBlock: ESEHIV_clean_sbu_0, # of connection points: 4
#     Node 1, Type 0, BuildingBlock: ESEHIV_clean_sbu_0, # of connection points: 4
#     Node 2, Type 0, BuildingBlock: ESEHIV_clean_sbu_0, # of connection points: 4
#     Node 3, Type 0, BuildingBlock: ESEHIV_clean_sbu_0, # of connection points: 4
#     Node 4, Type 0, BuildingBlock: ESEHIV_clean_sbu_0, # of connection points: 4
#     Node 5, Type 0, BuildingBlock: ESEHIV_clean_sbu_0, # of connection points: 4
#     Node 6, Type 0, BuildingBlock: ESEHIV_clean_sbu_0, # of connection points: 4
#     Node 7, Type 0, BuildingBlock: ESEHIV_clean_sbu_0, # of connection points: 4
#     Edge 8, Type (0, 0), BuildingBlock: TEMPAE_clean_linker_10, # of connection points: 2
#     Edge 9, Type (0, 0), BuildingBlock: TEMPAE_clean_linker_10, # of connection points: 2
#     Edge 10, Type (0, 0), BuildingBlock: TEMPAE_clean_linker_10, # of connection points: 2
#     Edge 11, Type (0, 0), BuildingBlock: TEMPAE_clean_linker_10, # of connection points: 2
#     Edge 12, Type (0, 0), BuildingBlock: TEMPAE_clean_linker_10, # of connection points: 2
#     Edge 13, Type (0, 0), BuildingBlock: TEMPAE_clean_linker_10, # of connection points: 2
#     Edge 14, Type (0, 0), BuildingBlock: TEMPAE_clean_linker_10, # of connection points: 2
#     Edge 15, Type (0, 0), BuildingBlock: TEMPAE_clean_linker_10, # of connection points: 2
#     Edge 16, Type (0, 0), BuildingBlock: TEMPAE_clean_linker_10, # of connection points: 2
#     Edge 17, Type (0, 0), BuildingBlock: TEMPAE_clean_linker_10, # of connection points: 2
#     Edge 18, Type (0, 0), BuildingBlock: TEMPAE_clean_linker_10, # of connection points: 2
#     Edge 19, Type (0, 0), BuildingBlock: TEMPAE_clean_linker_10, # of connection points: 2
#     Edge 20, Type (0, 0), BuildingBlock: TEMPAE_clean_linker_10, # of connection points: 2
#     Edge 21, Type (0, 0), BuildingBlock: TEMPAE_clean_linker_10, # of connection points: 2
#     Edge 22, Type (0, 0), BuildingBlock: TEMPAE_clean_linker_10, # of connection points: 2
#     Edge 23, Type (0, 0), BuildingBlock: TEMPAE_clean_linker_10, # of connection points: 2
# Relax obj value: 0.066
# Max RMSD: 0.214
# Mean RMSD: 0.187
data_MOF--net-sow--node1-ESEHIV_clean_sbu_0--edge1-TEMPAE_clean_linker_10
_symmetry_space_group_name_H-M    P1
_symmetry_Int_Tables_number       1
_symmetry_cell_setting            triclinic
loop_
_symmetry_equiv_pos_as_xyz
'x, y, z'
_cell_length_a     49.38438
_cell_length_b     18.722753
_cell_length_c     22.995526
_cell_angle_alpha  90.96294
_cell_angle_beta   90.137405
_cell_angle_gamma 89.966514
loop_
_atom_site_label
_atom_site_type_symbol
_atom_site_fract_x
_atom_site_fract_y
_atom_site_fract_z
_atom_type_partial_charge
Cu0 Cu 0.15875 0.26523 0.17898 0.0
N1 N 0.17189 0.30854 0.24787 0.0
N2 N 0.20021 0.33084 0.32277 0.0
C3 C 0.19781 0.3074 0.26685 0.0
C4 C 0.17463 0.34703 0.3391 0.0
C5 C 0.15739 0.33419 0.29296 0.0
O6 O 0.18798 0.26443 0.12199 0.0
C7 C 0.13712 0.15497 0.24731 0.0
O8 O 0.15335 0.17163 0.29071 0.0
H9 H 0.21434 0.28715 0.24058 0.0
H10 H 0.13562 0.3393 0.2936 0.0
N11 N 0.12817 0.30997 0.14755 0.0
N12 N 0.08736 0.31072 0.10463 0.0
C13 C 0.11081 0.27489 0.11194 0.0
C14 C 0.11544 0.37097 0.163 0.0
C15 C 0.09017 0.37144 0.13667 0.0
C16 C 0.19275 0.3226 0.0959 0.0
O17 O 0.17691 0.37767 0.10637 0.0
H18 H 0.11447 0.2212 0.09559 0.0
H19 H 0.12313 0.40978 0.19424 0.0
O20 O 0.14436 0.17103 0.19603 0.0
H21 H 0.16839 0.36345 0.38232 0.0
H22 H 0.07468 0.4118 0.14264 0.0
Cu23 Cu 0.39679 0.38241 0.68123 0.0
N24 N 0.37778 0.408 0.74915 0.0
N25 N 0.34969 0.40728 0.82567 0.0
C26 C 0.35619 0.37631 0.77386 0.0
C27 C 0.36784 0.46047 0.83345 0.0
C28 C 0.38508 0.46058 0.78657 0.0
O29 O 0.37182 0.36286 0.61657 0.0
C30 C 0.43694 0.27013 0.66741 0.0
O31 O 0.43277 0.27326 0.61107 0.0
H32 H 0.34602 0.33019 0.75525 0.0
H33 H 0.40217 0.49578 0.78075 0.0
N34 N 0.41762 0.46078 0.65936 0.0
N35 N 0.45219 0.52771 0.62868 0.0
C36 C 0.4436 0.46113 0.64141 0.0
C37 C 0.40943 0.52916 0.6579 0.0
C38 C 0.43065 0.57053 0.6393 0.0
C39 C 0.35413 0.31355 0.61268 0.0
O40 O 0.35284 0.26551 0.65355 0.0
H41 H 0.45576 0.41332 0.63699 0.0
H42 H 0.38941 0.54761 0.66987 0.0
O43 O 0.4223 0.30744 0.70185 0.0
H44 H 0.36873 0.49679 0.87045 0.0
H45 H 0.43019 0.62793 0.63476 0.0
Cu46 Cu 0.66461 0.19422 0.86431 0.0
N47 N 0.68788 0.2448 0.81577 0.0
N48 N 0.71772 0.26885 0.74555 0.0
C49 C 0.70213 0.21836 0.77028 0.0
C50 C 0.71297 0.32931 0.77669 0.0
C51 C 0.69452 0.31439 0.81973 0.0
O52 O 0.68717 0.12809 0.90911 0.0
C53 C 0.61609 0.11865 0.83181 0.0
O54 O 0.6157 0.09624 0.88565 0.0
H55 H 0.70165 0.16273 0.75671 0.0
H56 H 0.68671 0.35156 0.85206 0.0
N57 N 0.64679 0.25847 0.91477 0.0
N58 N 0.61319 0.31636 0.96081 0.0
C59 C 0.61983 0.26923 0.91812 0.0
C60 C 0.65764 0.30093 0.95647 0.0
C61 C 0.63697 0.33685 0.98488 0.0
C62 C 0.68351 0.11561 0.96294 0.0
O63 O 0.6614 0.13952 0.98826 0.0
H64 H 0.60529 0.24342 0.88962 0.0
H65 H 0.67905 0.30444 0.96619 0.0
O66 O 0.63675 0.15253 0.81406 0.0
H67 H 0.72224 0.38068 0.76908 0.0
H68 H 0.63924 0.37364 0.02137 0.0
Cu69 Cu 0.89133 0.09832 0.35838 0.0
N70 N 0.87484 0.07986 0.2868 0.0
N71 N 0.845 0.06918 0.21417 0.0
C72 C 0.84838 0.07436 0.27245 0.0
C73 C 0.87012 0.07089 0.19142 0.0
C74 C 0.88843 0.07728 0.23622 0.0
O75 O 0.8654 0.14402 0.41129 0.0
C76 C 0.942 0.16911 0.37708 0.0
O77 O 0.93795 0.15692 0.43249 0.0
H78 H 0.83201 0.07683 0.30367 0.0
H79 H 0.91018 0.08175 0.23229 0.0
N80 N 0.90501 0.01308 0.38815 0.0
N81 N 0.9365 0.93701 0.41951 0.0
C82 C 0.93147 0.99612 0.38879 0.0
C83 C 0.8926 0.96125 0.41804 0.0
C84 C 0.91207 0.91398 0.43749 0.0
C85 C 0.86629 0.13589 0.46614 0.0
O86 O 0.88636 0.09948 0.48868 0.0
H87 H 0.94697 0.02717 0.36791 0.0
H88 H 0.87114 0.95979 0.42731 0.0
O89 O 0.92293 0.15635 0.34104 0.0
H90 H 0.87485 0.06815 0.14547 0.0
H91 H 0.9087 0.86847 0.46496 0.0
Cu92 Cu 0.89003 0.93163 0.93247 0.0
N93 N 0.90558 0.84384 0.91259 0.0
N94 N 0.93263 0.7616 0.87164 0.0
C95 C 0.92555 0.83136 0.87393 0.0
C96 C 0.9164 0.72917 0.9103 0.0
C97 C 0.89972 0.78 0.93536 0.0
O98 O 0.91976 -0.0016 0.94811 0.0
C99 C 0.84579 0.00182 0.87689 0.0
O100 O 0.84608 0.04648 0.92156 0.0
H101 H 0.93513 0.87293 0.84913 0.0
H102 H 0.88452 0.77123 0.96828 0.0
N103 N 0.87133 0.92103 1.00191 0.0
N104 N 0.83946 0.90659 0.06931 0.0
C105 C 0.84466 0.91104 0.01186 0.0
C106 C 0.8832 0.92313 0.05445 0.0
C107 C 0.86367 0.91443 0.09602 0.0
C108 C 0.92317 0.06304 0.93337 0.0
O109 O 0.90514 0.0939 0.90002 0.0
H110 H 0.82941 0.90767 0.97804 0.0
H111 H 0.90461 0.93142 0.06189 0.0
O112 O 0.86413 0.9544 0.87205 0.0
H113 H 0.9165 0.67271 0.91967 0.0
H114 H 0.86722 0.91596 0.14234 0.0
Cu115 Cu 0.64389 0.88061 0.47273 0.0
N116 N 0.61366 0.9238 0.43936 0.0
N117 N 0.57474 0.93122 0.38994 0.0
C118 C 0.59105 0.8894 0.42192 0.0
C119 C 0.58748 0.99493 0.38773 0.0
C120 C 0.6115 0.99016 0.41833 0.0
O121 O 0.63125 0.79155 0.50578 0.0
C122 C 0.66661 0.85915 0.35951 0.0
O123 O 0.64186 0.84265 0.3433 0.0
H124 H 0.58751 0.83327 0.42892 0.0
H125 H 0.62697 0.03086 0.42233 0.0
N126 N 0.65758 0.93667 0.53415 0.0
N127 N 0.68474 0.97376 0.60665 0.0
C128 C 0.68198 0.92961 0.55987 0.0
C129 C 0.64448 0.98718 0.56548 0.0
C130 C 0.66117 0.01014 0.61025 0.0
C131 C 0.62335 0.73689 0.47678 0.0
O132 O 0.62798 0.73349 0.42061 0.0
H133 H 0.69696 0.89078 0.5459 0.0
H134 H 0.62398 0.00473 0.55719 0.0
O135 O 0.67172 0.87249 0.41298 0.0
H136 H 0.58046 0.04082 0.36398 0.0
H137 H 0.65626 0.05005 0.64317 0.0
Cu138 Cu 0.38343 0.58877 0.04892 0.0
N139 N 0.397 0.67005 0.0875 0.0
N140 N 0.42242 0.74278 0.14311 0.0
C141 C 0.41862 0.67515 0.12326 0.0
C142 C 0.40254 0.78163 0.11866 0.0
C143 C 0.38703 0.73678 0.08421 0.0
O144 O 0.41349 0.52427 0.03347 0.0
C145 C 0.33365 0.58881 0.10402 0.0
O146 O 0.33303 0.65117 0.07875 0.0
H147 H 0.4312 0.63028 0.13481 0.0
H148 H 0.36981 0.75195 0.05801 0.0
N149 N 0.37049 0.61735 0.97654 0.0
N150 N 0.34456 0.63855 0.89894 0.0
C151 C 0.34631 0.60551 0.9507 0.0
C152 C 0.3845 0.65816 0.93966 0.0
C153 C 0.36859 0.67146 0.89189 0.0
C154 C 0.4268 0.48984 0.07125 0.0
O155 O 0.41866 0.4911 0.12561 0.0
H156 H 0.33016 0.57493 0.97001 0.0
H157 H 0.40482 0.67762 0.94749 0.0
O158 O 0.35425 0.54891 0.09575 0.0
H159 H 0.39977 0.83869 0.12426 0.0
H160 H 0.37428 0.70293 0.85481 0.0
Cu161 Cu 0.14961 0.62374 0.53801 0.0
N162 N 0.12346 0.57508 0.58002 0.0
N163 N 0.0868 0.56556 0.63609 0.0
C164 C 0.10604 0.60931 0.61559 0.0
C165 C 0.09219 0.50077 0.61211 0.0
C166 C 0.11496 0.50679 0.57747 0.0
O167 O 0.13147 0.71337 0.52157 0.0
C168 C 0.18139 0.66219 0.63679 0.0
O169 O 0.15841 0.68629 0.65797 0.0
H170 H 0.10665 0.66635 0.62388 0.0
H171 H 0.12405 0.46511 0.55084 0.0
N172 N 0.15912 0.57409 0.46994 0.0
N173 N 0.18357 0.53837 0.39272 0.0
C174 C 0.18351 0.57519 0.44392 0.0
C175 C 0.14306 0.53517 0.43445 0.0
C176 C 0.15794 0.51375 0.38664 0.0
C177 C 0.12132 0.72742 0.47215 0.0
O178 O 0.12907 0.69027 0.42623 0.0
H179 H 0.2005 0.60492 0.46151 0.0
H180 H 0.12177 0.52537 0.44182 0.0
O181 O 0.1819 0.63593 0.58544 0.0
H182 H 0.08033 0.45293 0.61844 0.0
H183 H 0.15008 0.48344 0.34996 0.0
C184 C 0.33047 0.40361 0.92493 0.0
C185 C 0.32823 0.38787 0.86514 0.0
C186 C 0.30914 0.38957 0.9634 0.0
C187 C 0.28483 0.35896 0.94181 0.0
C188 C 0.28263 0.34135 0.8818 0.0
C189 C 0.30439 0.35566 0.84428 0.0
C190 C 0.31223 0.41024 0.02682 0.0
C191 C 0.25678 0.3108 0.85669 0.0
C192 C 0.23494 0.27488 0.04728 0.0
C193 C 0.21623 0.33041 0.05611 0.0
C194 C 0.25741 0.2835 1.0104 0.0
C195 C 0.26122 0.34904 0.98147 0.0
C196 C 0.24251 0.40544 0.99082 0.0
C197 C 0.22028 0.39526 0.02764 0.0
C198 C 0.27724 0.22273 1.00277 0.0
C199 C 0.2452 0.47632 0.961 0.0
H200 H 0.34889 0.42757 0.94178 0.0
H201 H 0.30227 0.34424 0.79818 0.0
H202 H 0.29874 0.45619 0.03706 0.0
H203 H 0.30605 0.36552 0.05493 0.0
H204 H 0.33335 0.42567 0.03796 0.0
H205 H 0.25068 0.26256 0.88077 0.0
H206 H 0.24026 0.35064 0.86168 0.0
H207 H 0.25877 0.29637 0.80984 0.0
H208 H 0.23213 0.22481 0.06945 0.0
H209 H 0.206 0.43866 0.034 0.0
H210 H 0.29779 0.24053 0.01622 0.0
H211 H 0.27837 0.20644 0.95623 0.0
H212 H 0.27158 0.17542 0.0286 0.0
H213 H 0.23523 0.51991 0.98641 0.0
H214 H 0.23494 0.4724 0.91813 0.0
H215 H 0.26662 0.49143 0.9538 0.0
C216 C 0.22428 0.37144 0.41236 0.0
C217 C 0.22424 0.33262 0.35946 0.0
C218 C 0.24662 0.37041 0.45034 0.0
C219 C 0.26967 0.32892 0.43577 0.0
C220 C 0.27029 0.29161 0.38165 0.0
C221 C 0.24766 0.29394 0.34422 0.0
C222 C 0.2452 0.41251 0.50687 0.0
C223 C 0.29461 0.24762 0.3639 0.0
C224 C 0.33452 0.36682 0.52186 0.0
C225 C 0.33367 0.31423 0.56476 0.0
C226 C 0.31427 0.37118 0.4788 0.0
C227 C 0.29247 0.32203 0.47849 0.0
C228 C 0.29183 0.26784 0.5208 0.0
C229 C 0.31238 0.26454 0.56324 0.0
C230 C 0.31577 0.42987 0.43476 0.0
C231 C 0.26901 0.21429 0.52215 0.0
H232 H 0.20675 0.40271 0.42466 0.0
H233 H 0.24818 0.26359 0.30383 0.0
H234 H 0.24565 0.37538 0.54397 0.0
H235 H 0.26304 0.44814 0.51136 0.0
H236 H 0.22657 0.44563 0.51012 0.0
H237 H 0.2927 0.22545 0.31896 0.0
H238 H 0.31325 0.28057 0.36662 0.0
H239 H 0.2972 0.20269 0.39428 0.0
H240 H 0.35081 0.40559 0.52243 0.0
H241 H 0.31143 0.2237 0.59602 0.0
H242 H 0.29898 0.46815 0.44251 0.0
H243 H 0.31324 0.40767 0.39005 0.0
H244 H 0.33522 0.45956 0.4372 0.0
H245 H 0.24957 0.24237 0.53051 0.0
H246 H 0.27198 0.17364 0.55622 0.0
H247 H 0.26715 0.18652 0.47932 0.0
C248 C 0.81733 0.10406 0.13203 0.0
C249 C 0.82029 0.06422 0.18097 0.0
C250 C 0.79339 0.09953 0.1013 0.0
C251 C 0.77627 0.03766 0.10749 0.0
C252 C 0.78379 0.97675 0.14954 0.0
C253 C 0.79969 0.01673 0.19532 0.0
C254 C 0.78697 0.16283 0.06286 0.0
C255 C 0.77986 0.82167 0.13501 0.0
C256 C 0.70421 0.08799 0.05985 0.0
C257 C 0.70582 0.08529 0.99902 0.0
C258 C 0.72648 0.07028 0.09518 0.0
C259 C 0.75094 0.04436 0.06976 0.0
C260 C 0.7524 0.04098 1.00734 0.0
C261 C 0.72986 0.06075 0.9735 0.0
C262 C 0.72374 0.08272 0.15972 0.0
C263 C 0.77778 0.02069 0.97413 0.0
H264 H 0.8322 0.1448 0.12242 0.0
H265 H 0.80235 -0.00036 0.23949 0.0
H266 H 0.79368 0.1513 0.01774 0.0
H267 H 0.76509 0.17609 0.06242 0.0
H268 H 0.79788 0.21181 0.07766 0.0
H269 H 0.77258 0.78533 0.17047 0.0
H270 H 0.76772 0.79492 0.09895 0.0
H271 H 0.79828 0.78718 0.12624 0.0
H272 H 0.68585 0.10769 0.08027 0.0
H273 H 0.73157 0.05955 0.92657 0.0
H274 H 0.70734 0.12141 0.17035 0.0
H275 H 0.7428 0.10328 0.17927 0.0
H276 H 0.71834 0.03143 0.17981 0.0
H277 H 0.78159 0.06008 0.93952 0.0
H278 H 0.77459 0.96835 0.95173 0.0
H279 H 0.79618 0.01751 1.00154 0.0
C280 C 0.76107 0.29894 0.69829 0.0
C281 C 0.73705 0.2589 0.69901 0.0
C282 C 0.78128 0.28525 0.65664 0.0
C283 C 0.77754 0.22982 0.61473 0.0
C284 C 0.75275 0.19163 0.6134 0.0
C285 C 0.73281 0.20671 0.65544 0.0
C286 C 0.80707 0.32846 0.65895 0.0
C287 C 0.74763 0.13327 0.56872 0.0
C288 C 0.82486 0.21178 0.48398 0.0
C289 C 0.84393 0.1622 0.50403 0.0
C290 C 0.80335 0.23529 0.51966 0.0
C291 C 0.80047 0.20729 0.57619 0.0
C292 C 0.81971 0.15728 0.59647 0.0
C293 C 0.84125 0.13593 0.56048 0.0
C294 C 0.78392 0.29065 0.49714 0.0
C295 C 0.81757 0.12606 0.65633 0.0
H296 H 0.76459 0.33918 0.73182 0.0
H297 H 0.71412 0.17643 0.65513 0.0
H298 H 0.82387 0.29479 0.67516 0.0
H299 H 0.81271 0.34634 0.61484 0.0
H300 H 0.80523 0.37612 0.68812 0.0
H301 H 0.72759 0.10746 0.57438 0.0
H302 H 0.74852 0.15542 0.52438 0.0
H303 H 0.76368 0.09211 0.57143 0.0
H304 H 0.82688 0.23269 0.44054 0.0
H305 H 0.85578 0.09745 0.5764 0.0
H306 H 0.78338 0.33744 0.52738 0.0
H307 H 0.76314 0.26843 0.49508 0.0
H308 H 0.78957 0.30922 0.45317 0.0
H309 H 0.8217 0.16814 0.68966 0.0
H310 H 0.83207 0.08155 0.66296 0.0
H311 H 0.79675 0.10614 0.6636 0.0
C312 C 0.81449 0.88751 0.17617 0.0
C313 C 0.81257 0.89973 0.09891 0.0
C314 C 0.78473 0.88705 0.22006 0.0
C315 C 0.7521 0.8986 0.18841 0.0
C316 C 0.74873 0.90757 0.11113 0.0
C317 C 0.77855 0.90753 0.06465 0.0
C318 C 0.78784 0.86566 0.28223 0.0
C319 C 0.72137 0.90146 0.08292 0.0
C320 C 0.6889 0.82549 0.26555 0.0
C321 C 0.68773 0.86953 0.31498 0.0
C322 C 0.70924 0.83385 0.22337 0.0
C323 C 0.72806 0.89181 0.22841 0.0
C324 C 0.72565 0.93855 0.27801 0.0
C325 C 0.70614 0.92554 0.32086 0.0
C326 C 0.7101 0.77678 0.17645 0.0
C327 C 0.7433 0.00315 0.2883 0.0
H328 H 0.83374 0.87903 0.1973 0.0
H329 H 0.79785 0.90454 0.07545 0.0
H330 H 0.79447 0.91216 0.30905 0.0
H331 H 0.76868 0.84429 0.29984 0.0
H332 H 0.80392 0.82451 0.28536 0.0
H333 H 0.72073 0.9295 0.04104 0.0
H334 H 0.71745 0.84479 0.07139 0.0
H335 H 0.70528 0.92119 0.11266 0.0
H336 H 0.67449 0.78201 0.261 0.0
H337 H 0.70489 0.96081 0.3587 0.0
H338 H 0.70806 0.72314 0.19595 0.0
H339 H 0.72867 0.7766 0.15059 0.0
H340 H 0.69244 0.78356 0.14709 0.0
H341 H 0.75796 0.99238 0.32368 0.0
H342 H 0.7308 0.04934 0.30307 0.0
H343 H 0.75423 0.01908 0.24924 0.0
C344 C 0.73386 0.96589 0.62647 0.0
C345 C 0.70743 0.97801 0.64636 0.0
C346 C 0.75618 0.97033 0.66437 0.0
C347 C 0.75197 0.98554 0.72447 0.0
C348 C 0.72511 0.99494 0.74509 0.0
C349 C 0.70333 0.99284 0.70565 0.0
C350 C 0.78393 0.95673 0.63889 0.0
C351 C 0.71906 0.00614 0.80889 0.0
C352 C 0.81272 0.93247 0.81651 0.0
C353 C 0.82201 -0.00131 0.83769 0.0
C354 C 0.78925 0.92727 0.78215 0.0
C355 C 0.77546 0.99028 0.76567 0.0
C356 C 0.78466 0.05742 0.7879 0.0
C357 C 0.80757 0.06053 0.82423 0.0
C358 C 0.77935 0.85387 0.7641 0.0
C359 C 0.77054 0.1267 0.77473 0.0
H360 H 0.73721 0.9543 0.58072 0.0
H361 H 0.68291 0.00071 0.72162 0.0
H362 H 0.80077 0.97243 0.66829 0.0
H363 H 0.78592 0.89896 0.62813 0.0
H364 H 0.78627 0.9855 0.5974 0.0
H365 H 0.69808 0.98952 0.81959 0.0
H366 H 0.73336 0.97606 0.83663 0.0
H367 H 0.72091 0.06371 0.82004 0.0
H368 H 0.82337 0.88413 0.8283 0.0
H369 H 0.81437 0.11169 0.84158 0.0
H370 H 0.78823 0.83895 0.72137 0.0
H371 H 0.75695 0.85208 0.76014 0.0
H372 H 0.78579 0.81295 0.79574 0.0
H373 H 0.757 0.1222 0.73654 0.0
H374 H 0.78555 0.16965 0.76704 0.0
H375 H 0.75842 0.14377 0.81309 0.0
C376 C 0.31684 0.70276 0.82739 0.0
C377 C 0.32158 0.6415 0.86025 0.0
C378 C 0.29455 0.70702 0.78965 0.0
C379 C 0.27666 0.6483 0.78414 0.0
C380 C 0.2815 0.58594 0.81659 0.0
C381 C 0.30377 0.58352 0.85472 0.0
C382 C 0.28997 0.77471 0.75619 0.0
C383 C 0.26318 0.52179 0.81078 0.0
C384 C 0.20482 0.68319 0.73225 0.0
C385 C 0.20607 0.66105 0.67372 0.0
C386 C 0.22765 0.67932 0.76856 0.0
C387 C 0.2524 0.653 0.74579 0.0
C388 C 0.2539 0.63115 0.68664 0.0
C389 C 0.23072 0.63538 0.65132 0.0
C390 C 0.2252 0.70263 0.83153 0.0
C391 C 0.27995 0.60291 0.66074 0.0
H392 H 0.3303 0.74813 0.8321 0.0
H393 H 0.30746 0.53599 0.87965 0.0
H394 H 0.28909 0.7624 0.70887 0.0
H395 H 0.27023 0.79871 0.76863 0.0
H396 H 0.30615 0.8149 0.76428 0.0
H397 H 0.26941 0.47816 0.83982 0.0
H398 H 0.24201 0.53711 0.82114 0.0
H399 H 0.2634 0.50117 0.76529 0.0
H400 H 0.18588 0.70281 0.75005 0.0
H401 H 0.23189 0.61806 0.60618 0.0
H402 H 0.24009 0.74547 0.84162 0.0
H403 H 0.22994 0.65713 0.86016 0.0
H404 H 0.20461 0.72268 0.84232 0.0
H405 H 0.27772 0.5878 0.61405 0.0
H406 H 0.28686 0.55539 0.68485 0.0
H407 H 0.29608 0.6439 0.66502 0.0
C408 C 0.2915 0.62053 0.15786 0.0
C409 C 0.31139 0.56938 0.14424 0.0
C410 C 0.27097 0.60669 0.198 0.0
C411 C 0.26988 0.53945 0.22508 0.0
C412 C 0.28935 0.48646 0.21047 0.0
C413 C 0.31003 0.5022 0.17039 0.0
C414 C 0.2507 0.66489 0.21228 0.0
C415 C 0.28839 0.41358 0.2375 0.0
C416 C 0.23247 0.54763 0.36901 0.0
C417 C 0.20582 0.53092 0.35193 0.0
C418 C 0.25384 0.54679 0.32878 0.0
C419 C 0.24874 0.527 0.2701 0.0
C420 C 0.22238 0.50534 0.25332 0.0
C421 C 0.20125 0.50818 0.29415 0.0
C422 C 0.28157 0.57126 0.34839 0.0
C423 C 0.21624 0.48179 0.19161 0.0
H424 H 0.29222 0.67255 0.13796 0.0
H425 H 0.32517 0.46215 0.15981 0.0
H426 H 0.22987 0.64583 0.20267 0.0
H427 H 0.25163 0.67861 0.25938 0.0
H428 H 0.25434 0.71424 0.18732 0.0
H429 H 0.30494 0.37818 0.2216 0.0
H430 H 0.28991 0.41872 0.28553 0.0
H431 H 0.26868 0.38765 0.22755 0.0
H432 H 0.23671 0.56279 0.41368 0.0
H433 H 0.18101 0.49438 0.27996 0.0
H434 H 0.28686 0.62164 0.32634 0.0
H435 H 0.29706 0.531 0.33588 0.0
H436 H 0.28264 0.58093 0.39612 0.0
H437 H 0.22183 0.52429 0.16081 0.0
H438 H 0.19449 0.46884 0.18536 0.0
H439 H 0.22846 0.43386 0.18017 0.0
C440 C 0.09436 0.09408 0.27762 0.0
C441 C 0.10783 0.15568 0.26005 0.0
C442 C 0.06691 0.09685 0.29416 0.0
C443 C 0.05285 0.16308 0.29371 0.0
C444 C 0.06642 0.22503 0.2749 0.0
C445 C 0.09368 0.22041 0.25836 0.0
C446 C 0.0531 0.02849 0.3111 0.0
C447 C 0.05236 0.29664 0.27351 0.0
C448 C 0.97571 0.16486 0.29559 0.0
C449 C 0.97014 0.17644 0.35494 0.0
C450 C 1.00246 0.16014 0.27515 0.0
C451 C 0.02428 0.16853 0.3146 0.0
C452 C 0.01885 0.18236 0.37422 0.0
C453 C 0.99189 0.18586 0.3937 0.0
C454 C 1.00738 0.14377 0.21161 0.0
C455 C 0.04159 0.19177 0.41765 0.0
H456 H 0.10531 0.0439 0.27876 0.0
H457 H 0.10418 0.26805 0.24552 0.0
H458 H 0.03733 0.03769 0.34461 0.0
H459 H 0.04306 0.00475 0.27212 0.0
H460 H 0.06793 0.98898 0.32752 0.0
H461 H 0.06556 0.33925 0.25612 0.0
H462 H 0.03382 0.29299 0.2463 0.0
H463 H 0.04594 0.31257 0.31809 0.0
H464 H 0.95914 0.15662 0.26521 0.0
H465 H 0.98788 0.19433 0.43962 0.0
H466 H 0.01867 0.09275 0.20696 0.0
H467 H 0.02007 0.18608 0.19237 0.0
H468 H 0.98823 0.13918 0.18643 0.0
H469 H 0.05491 0.144 0.4166 0.0
H470 H 0.03406 0.20014 0.46274 0.0
H471 H 0.0542 0.23831 0.40575 0.0
C472 C 0.47285 0.25772 0.74342 0.0
C473 C 0.46151 0.23418 0.69046 0.0
C474 C 0.49767 0.23075 0.76333 0.0
C475 C 0.51139 0.1775 0.73025 0.0
C476 C 0.49949 0.15117 0.67797 0.0
C477 C 0.47489 0.18056 0.65823 0.0
C478 C 0.5098 0.26186 0.81852 0.0
C479 C 0.51304 0.09305 0.64228 0.0
C480 C 0.58762 0.17367 0.75403 0.0
C481 C 0.5903 0.12334 0.79833 0.0
C482 C 0.56222 0.18962 0.72977 0.0
C483 C 0.53887 0.15316 0.74909 0.0
C484 C 0.5417 0.09869 0.79077 0.0
C485 C 0.5673 0.08504 0.81539 0.0
C486 C 0.56017 0.24904 0.68633 0.0
C487 C 0.51746 0.0575 0.81173 0.0
H488 H 0.46288 0.29973 0.76835 0.0
H489 H 0.46624 0.16194 0.61736 0.0
H490 H 0.51597 0.21877 0.84824 0.0
H491 H 0.52826 0.29272 0.80789 0.0
H492 H 0.49544 0.29785 0.84182 0.0
H493 H 0.49997 0.07346 0.60599 0.0
H494 H 0.53219 0.11349 0.62377 0.0
H495 H 0.51833 0.04734 0.67025 0.0
H496 H 0.60516 0.20397 0.7406 0.0
H497 H 0.56913 0.04596 0.84943 0.0
H498 H 0.54875 0.2945 0.70585 0.0
H499 H 0.54887 0.23079 0.64711 0.0
H500 H 0.58036 0.26867 0.67265 0.0
H501 H 0.52347 0.01009 0.83716 0.0
H502 H 0.50475 0.03959 0.7744 0.0
H503 H 0.50478 0.09268 0.83984 0.0
C504 C 0.0387 0.55608 0.66472 0.0
C505 C 0.06435 0.58693 0.67235 0.0
C506 C 1.01627 0.58133 0.6966 0.0
C507 C 0.0197 0.63817 0.73745 0.0
C508 C 0.04571 0.66815 0.74631 0.0
C509 C 0.06764 0.64231 0.71358 0.0
C510 C 0.98879 0.54848 0.68557 0.0
C511 C 0.05034 0.72824 0.78985 0.0
C512 C 0.96051 0.75661 0.78253 0.0
C513 C 0.95374 0.72899 0.83692 0.0
C514 C 0.98143 0.72631 0.74892 0.0
C515 C 0.99613 0.66735 0.77051 0.0
C516 C 0.98919 0.63872 0.82508 0.0
C517 C 0.96803 0.6697 0.85748 0.0
C518 C 0.9881 0.7581 0.69074 0.0
C519 C 1.00459 0.57654 0.84996 0.0
H520 H 0.03602 0.51387 0.63243 0.0
H521 H 0.08751 0.66566 0.72012 0.0
H522 H 0.98018 0.52873 0.72679 0.0
H523 H 0.97471 0.58962 0.66894 0.0
H524 H 0.98964 0.50342 0.65356 0.0
H525 H 0.072 0.74386 0.79302 0.0
H526 H 0.03838 0.77575 0.77729 0.0
H527 H 0.04329 0.71226 0.83352 0.0
H528 H 0.94931 0.80176 0.76606 0.0
H529 H 0.96314 0.64863 0.89974 0.0
H530 H 0.9879 0.71594 0.65625 0.0
H531 H 1.0088 0.78104 0.69203 0.0
H532 H 0.97366 0.80084 0.67849 0.0
H533 H 1.00453 0.53079 0.81868 0.0
H534 H 0.99595 0.55863 0.89182 0.0
H535 H 0.02604 0.59196 0.85731 0.0
C536 C 0.43852 0.82638 0.21974 0.0
C537 C 0.44352 0.76888 0.18135 0.0
C538 C 0.459 0.85368 0.25624 0.0
C539 C 0.48526 0.82354 0.25365 0.0
C540 C 0.49033 0.76467 0.21574 0.0
C541 C 0.46938 0.7379 0.18016 0.0
C542 C 0.4525 0.91414 0.29816 0.0
C543 C 0.51792 0.7301 0.2128 0.0
C544 C 0.54514 0.93677 0.30332 0.0
C545 C 0.5511 0.90804 0.3578 0.0
C546 C 0.52363 0.91009 0.26933 0.0
C547 C 0.50746 0.85373 0.29051 0.0
C548 C 0.51292 0.82583 0.34624 0.0
C549 C 0.53473 0.85306 0.37896 0.0
C550 C 0.51863 0.94094 0.21001 0.0
C551 C 0.49648 0.76613 0.37183 0.0
H552 H 0.41842 0.84947 0.22174 0.0
H553 H 0.47338 0.69366 0.15046 0.0
H554 H 0.4568 0.89729 0.34332 0.0
H555 H 0.46562 0.96078 0.2893 0.0
H556 H 0.43099 0.93117 0.29536 0.0
H557 H 0.51872 0.68551 0.18035 0.0
H558 H 0.53341 0.7704 0.20135 0.0
H559 H 0.52339 0.70908 0.25613 0.0
H560 H 0.55791 0.97845 0.28627 0.0
H561 H 0.53903 0.83091 0.42124 0.0
H562 H 0.49757 0.96122 0.20706 0.0
H563 H 0.52098 0.8985 0.17611 0.0
H564 H 0.53276 0.98528 0.2002 0.0
H565 H 0.49107 0.77998 0.41747 0.0
H566 H 0.50906 0.71697 0.37282 0.0
H567 H 0.47757 0.75406 0.34757 0.0
C568 C 0.03748 0.29722 0.09859 0.0
C569 C 0.06333 0.28354 0.07574 0.0
C570 C 1.01424 0.2649 0.07412 0.0
C571 C 1.01676 0.21914 0.02461 0.0
C572 C 0.04273 0.20716 1.00027 0.0
C573 C 0.06564 0.239 0.02631 0.0
C574 C 0.9871 0.27801 0.10244 0.0
C575 C 0.04644 0.15876 0.94776 0.0
C576 C 0.9643 0.07263 0.99744 0.0
C577 C 0.94716 0.10342 0.95594 0.0
C578 C 0.98676 0.10968 0.02035 0.0
C579 C 0.99265 0.1795 1.00099 0.0
C580 C 0.97566 0.21065 0.95852 0.0
C581 C 0.95305 0.17255 0.93686 0.0
C582 C 1.00429 0.07199 0.06419 0.0
C583 C 0.98168 0.28378 0.93515 0.0
H584 H 0.03554 0.33086 0.13712 0.0
H585 H 0.08551 0.22863 1.00821 0.0
H586 H 0.97423 0.31034 0.07334 0.0
H587 H 0.97645 0.22671 0.10943 0.0
H588 H 0.98903 0.30675 0.14491 0.0
H589 H 0.06738 0.16094 0.93032 0.0
H590 H 0.04197 0.10285 0.95979 0.0
H591 H 0.03205 0.17354 0.9128 0.0
H592 H 0.96016 0.01919 0.01254 0.0
H593 H 0.9401 0.19678 0.90457 0.0
H594 H 1.01742 0.10872 0.08985 0.0
H595 H 1.01746 0.03302 0.04083 0.0
H596 H 0.99154 0.04132 0.09471 0.0
H597 H 0.98119 0.32412 0.97099 0.0
H598 H 0.967 0.29984 0.90109 0.0
H599 H 1.00237 0.28456 0.91643 0.0
C600 C 0.58847 0.63989 0.46813 0.0
C601 C 0.60321 0.6882 0.50319 0.0
C602 C 0.5656 0.60449 0.48978 0.0
C603 C 0.55728 0.61758 0.5479 0.0
C604 C 0.57324 0.66209 0.58468 0.0
C605 C 0.59601 0.69675 0.56194 0.0
C606 C 0.54924 0.55727 0.44911 0.0
C607 C 0.56519 0.67734 0.64697 0.0
C608 C 0.48177 0.61393 0.5788 0.0
C609 C 0.47858 0.54897 0.60765 0.0
C610 C 0.50721 0.6364 0.55919 0.0
C611 C 0.5302 0.59263 0.56788 0.0
C612 C 0.52721 0.52649 0.59612 0.0
C613 C 0.50149 0.50559 0.61589 0.0
C614 C 0.50951 0.70761 0.52965 0.0
C615 C 0.5512 0.47813 0.6059 0.0
H616 H 0.59385 0.63261 0.42275 0.0
H617 H 0.60734 0.73351 0.58959 0.0
H618 H 0.54349 0.50696 0.47069 0.0
H619 H 0.53025 0.58519 0.43714 0.0
H620 H 0.56045 0.54384 0.40855 0.0
H621 H 0.58144 0.70539 0.67181 0.0
H622 H 0.54679 0.71137 0.64774 0.0
H623 H 0.56016 0.62708 0.66938 0.0
H624 H 0.46433 0.64744 0.57105 0.0
H625 H 0.49948 0.45571 0.63857 0.0
H626 H 0.51912 0.70063 0.48639 0.0
H627 H 0.52268 0.74386 0.55582 0.0
H628 H 0.48952 0.73386 0.52387 0.0
H629 H 0.56128 0.46558 0.56388 0.0
H630 H 0.54536 0.42724 0.62665 0.0
H631 H 0.56632 0.50574 0.63406 0.0
C632 C 0.46908 0.42205 0.09652 0.0
C633 C 0.45308 0.45634 0.05488 0.0
C634 C 0.49502 0.39589 0.08249 0.0
C635 C 0.50528 0.40444 0.02553 0.0
C636 C 0.48894 0.43733 0.98294 0.0
C637 C 0.4631 0.46276 0.99809 0.0
C638 C 0.51172 0.36065 0.12901 0.0
C639 C 0.49909 0.44828 0.92183 0.0
C640 C 0.58159 0.40638 1.00183 0.0
C641 C 0.58626 0.33802 0.97806 0.0
C642 C 0.5554 0.42845 0.01792 0.0
C643 C 0.53333 0.38076 1.01066 0.0
C644 C 0.53797 0.31131 0.98745 0.0
C645 C 0.56431 0.29092 0.9712 0.0
C646 C 0.55128 0.50322 0.04192 0.0
C647 C 0.51508 0.25855 0.97977 0.0
H648 H 0.46158 0.41678 0.14048 0.0
H649 H 0.45101 0.48934 0.96552 0.0
H650 H 0.5185 0.30704 0.11379 0.0
H651 H 0.53017 0.39281 0.13804 0.0
H652 H 0.50034 0.35477 0.17027 0.0
H653 H 0.48251 0.46313 0.89159 0.0
H654 H 0.51435 0.49174 0.92231 0.0
H655 H 0.50916 0.39943 0.90463 0.0
H656 H 0.59837 0.44322 1.00672 0.0
H657 H 0.56779 0.23762 0.95377 0.0
H658 H 0.54145 0.5013 0.0852 0.0
H659 H 0.53756 0.53321 0.01286 0.0
H660 H 0.57062 0.53312 0.04633 0.0
H661 H 0.50599 0.24704 0.02267 0.0
H662 H 0.52188 0.20739 0.95943 0.0
H663 H 0.49887 0.28175 0.95243 0.0
C664 C 0.08141 0.78709 0.5195 0.0
C665 C 0.09626 0.77093 0.46892 0.0
C666 C 0.05523 0.81627 0.51623 0.0
C667 C 0.0438 0.8306 0.46112 0.0
C668 C 0.05922 0.81769 0.41013 0.0
C669 C 0.08518 0.78772 0.41465 0.0
C670 C 0.03937 0.82863 0.57158 0.0
C671 C 0.04785 0.83206 0.35043 0.0
C672 C 0.9675 0.83633 0.43813 0.0
C673 C 0.96288 0.90989 0.43435 0.0
C674 C 0.99366 0.80967 0.44861 0.0
C675 C 1.01557 0.85791 0.45618 0.0
C676 C 1.01073 0.93234 0.45498 0.0
C677 C 0.9845 0.95737 0.44381 0.0
C678 C 0.99801 0.72991 0.44983 0.0
C679 C 0.03331 0.98557 0.46481 0.0
H680 H 0.08967 0.77379 0.56166 0.0
H681 H 0.09645 0.77528 0.37536 0.0
H682 H 0.03188 0.88444 0.57402 0.0
H683 H 0.02137 0.79321 0.5717 0.0
H684 H 0.05161 0.81795 0.6111 0.0
H685 H 0.06392 0.83268 0.31671 0.0
H686 H 0.0331 0.78955 0.33856 0.0
H687 H 0.03691 0.88376 0.34982 0.0
H688 H 0.95081 0.79969 0.43091 0.0
H689 H 0.98086 0.0144 0.44243 0.0
H690 H 1.00879 0.715 0.49024 0.0
H691 H 1.01094 0.71311 0.41265 0.0
H692 H 0.97865 0.6998 0.44725 0.0
H693 H 0.04097 0.98154 0.51001 0.0
H694 H 0.02657 0.04137 0.45782 0.0
H695 H 0.05055 0.97351 0.43539 0.0
loop_
_geom_bond_atom_site_label_1
_geom_bond_atom_site_label_2
_geom_bond_distance
_geom_bond_site_symmetry_2
_ccdc_geom_bond_type
Cu0 N1 1.999 . S
Cu0 O6 1.974 . S
Cu0 N11 1.985 . S
Cu0 O20 1.959 . S
N1 Cu0 1.999 . S
N1 C3 1.263 . S
N1 C5 1.389 . S
N2 C3 1.358 . S
N2 C4 1.400 . S
C3 N1 1.263 . S
C3 N2 1.358 . S
C3 H9 0.930 . S
C4 N2 1.400 . S
C4 C5 1.351 . S
C4 H21 0.930 . S
C5 N1 1.389 . S
C5 C4 1.351 . S
C5 H10 0.930 . S
O6 Cu0 1.974 . S
O6 C16 1.282 . S
C7 O8 1.261 . S
C7 O20 1.251 . S
O8 C7 1.261 . S
H9 C3 0.930 . S
H10 C5 0.930 . S
N11 Cu0 1.985 . S
N11 C13 1.335 . S
N11 C14 1.390 . S
N12 C13 1.345 . S
N12 C15 1.335 . S
C13 N11 1.335 . S
C13 N12 1.345 . S
C13 H18 0.930 . S
C14 N11 1.390 . S
C14 C15 1.346 . S
C14 H19 0.930 . S
C15 N12 1.335 . S
C15 C14 1.346 . S
C15 H22 0.931 1_554 S
C16 O6 1.282 . S
C16 O17 1.216 . S
O17 C16 1.216 . S
H18 C13 0.930 . S
H19 C14 0.930 . S
O20 Cu0 1.959 . S
O20 C7 1.251 . S
H21 C4 0.930 . S
H22 C15 0.931 1_556 S
Cu23 N24 1.999 . S
Cu23 O29 1.974 . S
Cu23 N34 1.985 . S
Cu23 O43 1.959 . S
N24 Cu23 1.999 . S
N24 C26 1.263 . S
N24 C28 1.389 . S
N25 C26 1.358 . S
N25 C27 1.400 . S
C26 N24 1.263 . S
C26 N25 1.358 . S
C26 H32 0.930 . S
C27 N25 1.400 . S
C27 C28 1.351 . S
C27 H44 0.930 . S
C28 N24 1.389 . S
C28 C27 1.351 . S
C28 H33 0.930 . S
O29 Cu23 1.974 . S
O29 C39 1.282 . S
C30 O31 1.261 . S
C30 O43 1.251 . S
O31 C30 1.261 . S
H32 C26 0.930 . S
H33 C28 0.930 . S
N34 Cu23 1.985 . S
N34 C36 1.335 . S
N34 C37 1.390 . S
N35 C36 1.345 . S
N35 C38 1.336 . S
C36 N34 1.335 . S
C36 N35 1.345 . S
C36 H41 0.930 . S
C37 N34 1.390 . S
C37 C38 1.346 . S
C37 H42 0.930 . S
C38 N35 1.336 . S
C38 C37 1.346 . S
C38 H45 0.929 . S
C39 O29 1.282 . S
C39 O40 1.216 . S
O40 C39 1.216 . S
H41 C36 0.930 . S
H42 C37 0.930 . S
O43 Cu23 1.959 . S
O43 C30 1.251 . S
H44 C27 0.930 . S
H45 C38 0.929 . S
Cu46 N47 1.999 . S
Cu46 O52 1.974 . S
Cu46 N57 1.985 . S
Cu46 O66 1.959 . S
N47 Cu46 1.999 . S
N47 C49 1.263 . S
N47 C51 1.389 . S
N48 C49 1.358 . S
N48 C50 1.400 . S
C49 N47 1.263 . S
C49 N48 1.358 . S
C49 H55 0.930 . S
C50 N48 1.400 . S
C50 C51 1.351 . S
C50 H67 0.930 . S
C51 N47 1.389 . S
C51 C50 1.351 . S
C51 H56 0.930 . S
O52 Cu46 1.974 . S
O52 C62 1.282 . S
C53 O54 1.261 . S
C53 O66 1.251 . S
O54 C53 1.261 . S
H55 C49 0.930 . S
H56 C51 0.930 . S
N57 Cu46 1.985 . S
N57 C59 1.335 . S
N57 C60 1.390 . S
N58 C59 1.345 . S
N58 C61 1.335 . S
C59 N57 1.335 . S
C59 N58 1.345 . S
C59 H64 0.930 . S
C60 N57 1.390 . S
C60 C61 1.346 . S
C60 H65 0.930 . S
C61 N58 1.335 . S
C61 C60 1.346 . S
C61 H68 0.931 1_556 S
C62 O52 1.282 . S
C62 O63 1.216 . S
O63 C62 1.216 . S
H64 C59 0.930 . S
H65 C60 0.930 . S
O66 Cu46 1.959 . S
O66 C53 1.251 . S
H67 C50 0.930 . S
H68 C61 0.931 1_554 S
Cu69 N70 1.999 . S
Cu69 O75 1.974 . S
Cu69 N80 1.985 . S
Cu69 O89 1.959 . S
N70 Cu69 1.999 . S
N70 C72 1.263 . S
N70 C74 1.389 . S
N71 C72 1.358 . S
N71 C73 1.400 . S
C72 N70 1.263 . S
C72 N71 1.358 . S
C72 H78 0.930 . S
C73 N71 1.400 . S
C73 C74 1.351 . S
C73 H90 0.930 . S
C74 N70 1.389 . S
C74 C73 1.351 . S
C74 H79 0.930 . S
O75 Cu69 1.974 . S
O75 C85 1.282 . S
C76 O77 1.261 . S
C76 O89 1.251 . S
O77 C76 1.261 . S
H78 C72 0.930 . S
H79 C74 0.930 . S
N80 Cu69 1.985 . S
N80 C82 1.335 . S
N80 C83 1.390 . S
N81 C82 1.344 1_565 S
N81 C84 1.336 1_565 S
C82 N80 1.335 . S
C82 N81 1.344 1_545 S
C82 H87 0.930 . S
C83 N80 1.390 . S
C83 C84 1.346 . S
C83 H88 0.930 . S
C84 N81 1.336 1_545 S
C84 C83 1.346 . S
C84 H91 0.929 . S
C85 O75 1.282 . S
C85 O86 1.216 . S
O86 C85 1.216 . S
H87 C82 0.930 . S
H88 C83 0.930 . S
O89 Cu69 1.959 . S
O89 C76 1.251 . S
H90 C73 0.930 . S
H91 C84 0.929 . S
Cu92 N93 1.999 . S
Cu92 O98 1.974 . S
Cu92 N103 1.985 . S
Cu92 O112 1.959 . S
N93 Cu92 1.999 . S
N93 C95 1.263 . S
N93 C97 1.389 . S
N94 C95 1.358 . S
N94 C96 1.400 . S
C95 N93 1.263 . S
C95 N94 1.358 . S
C95 H101 0.930 . S
C96 N94 1.400 . S
C96 C97 1.351 . S
C96 H113 0.930 . S
C97 N93 1.389 . S
C97 C96 1.351 . S
C97 H102 0.930 . S
O98 Cu92 1.974 . S
O98 C108 1.282 1_565 S
C99 O100 1.261 1_565 S
C99 O112 1.251 . S
O100 C99 1.261 1_545 S
H101 C95 0.930 . S
H102 C97 0.930 . S
N103 Cu92 1.985 . S
N103 C105 1.335 . S
N103 C106 1.390 1_566 S
N104 C105 1.345 1_544 S
N104 C107 1.336 . S
C105 N103 1.335 . S
C105 N104 1.345 1_566 S
C105 H110 0.930 . S
C106 N103 1.390 1_544 S
C106 C107 1.346 . S
C106 H111 0.930 . S
C107 N104 1.336 . S
C107 C106 1.346 . S
C107 H114 0.929 . S
C108 O98 1.282 1_545 S
C108 O109 1.216 . S
O109 C108 1.216 . S
H110 C105 0.930 . S
H111 C106 0.930 . S
O112 Cu92 1.959 . S
O112 C99 1.251 . S
H113 C96 0.930 . S
H114 C107 0.929 . S
Cu115 N116 1.999 . S
Cu115 O121 1.974 . S
Cu115 N126 1.985 . S
Cu115 O135 1.959 . S
N116 Cu115 1.999 . S
N116 C118 1.263 . S
N116 C120 1.389 . S
N117 C118 1.358 . S
N117 C119 1.400 . S
C118 N116 1.263 . S
C118 N117 1.358 . S
C118 H124 0.930 . S
C119 N117 1.400 . S
C119 C120 1.351 . S
C119 H136 0.930 . S
C120 N116 1.389 . S
C120 C119 1.351 . S
C120 H125 0.930 1_565 S
O121 Cu115 1.974 . S
O121 C131 1.282 . S
C122 O123 1.261 . S
C122 O135 1.251 . S
O123 C122 1.261 . S
H124 C118 0.930 . S
H125 C120 0.930 1_545 S
N126 Cu115 1.985 . S
N126 C128 1.335 . S
N126 C129 1.390 . S
N127 C128 1.345 . S
N127 C130 1.336 . S
C128 N126 1.335 . S
C128 N127 1.345 . S
C128 H133 0.930 1_565 S
C129 N126 1.390 . S
C129 C130 1.346 . S
C129 H134 0.930 . S
C130 N127 1.336 . S
C130 C129 1.346 . S
C130 H137 0.929 . S
C131 O121 1.282 . S
C131 O132 1.216 . S
O132 C131 1.216 . S
H133 C128 0.930 1_545 S
H134 C129 0.930 . S
O135 Cu115 1.959 . S
O135 C122 1.251 . S
H136 C119 0.930 . S
H137 C130 0.929 . S
Cu138 N139 1.999 . S
Cu138 O144 1.974 . S
Cu138 N149 1.985 . S
Cu138 O158 1.959 . S
N139 Cu138 1.999 . S
N139 C141 1.263 . S
N139 C143 1.389 . S
N140 C141 1.358 . S
N140 C142 1.400 . S
C141 N139 1.263 . S
C141 N140 1.358 . S
C141 H147 0.930 . S
C142 N140 1.400 . S
C142 C143 1.351 . S
C142 H159 0.930 . S
C143 N139 1.389 . S
C143 C142 1.351 . S
C143 H148 0.930 . S
O144 Cu138 1.974 . S
O144 C154 1.282 . S
C145 O146 1.261 . S
C145 O158 1.251 . S
O146 C145 1.261 . S
H147 C141 0.930 . S
H148 C143 0.930 . S
N149 Cu138 1.985 . S
N149 C151 1.335 . S
N149 C152 1.390 1_554 S
N150 C151 1.345 1_556 S
N150 C153 1.336 . S
C151 N149 1.335 . S
C151 N150 1.345 1_554 S
C151 H156 0.930 . S
C152 N149 1.390 1_556 S
C152 C153 1.346 . S
C152 H157 0.930 . S
C153 N150 1.336 . S
C153 C152 1.346 . S
C153 H160 0.929 . S
C154 O144 1.282 . S
C154 O155 1.216 . S
O155 C154 1.216 . S
H156 C151 0.930 . S
H157 C152 0.930 . S
O158 Cu138 1.959 . S
O158 C145 1.251 . S
H159 C142 0.930 . S
H160 C153 0.929 . S
Cu161 N162 1.999 . S
Cu161 O167 1.974 . S
Cu161 N172 1.985 . S
Cu161 O181 1.959 . S
N162 Cu161 1.999 . S
N162 C164 1.263 . S
N162 C166 1.389 . S
N163 C164 1.358 . S
N163 C165 1.400 . S
C164 N162 1.263 . S
C164 N163 1.358 . S
C164 H170 0.930 . S
C165 N163 1.400 . S
C165 C166 1.351 . S
C165 H182 0.930 . S
C166 N162 1.389 . S
C166 C165 1.351 . S
C166 H171 0.930 . S
O167 Cu161 1.974 . S
O167 C177 1.282 . S
C168 O169 1.261 . S
C168 O181 1.251 . S
O169 C168 1.261 . S
H170 C164 0.930 . S
H171 C166 0.930 . S
N172 Cu161 1.985 . S
N172 C174 1.335 . S
N172 C175 1.390 . S
N173 C174 1.345 . S
N173 C176 1.336 . S
C174 N172 1.335 . S
C174 N173 1.345 . S
C174 H179 0.930 . S
C175 N172 1.390 . S
C175 C176 1.346 . S
C175 H180 0.930 . S
C176 N173 1.336 . S
C176 C175 1.346 . S
C176 H183 0.929 . S
C177 O167 1.282 . S
C177 O178 1.216 . S
O178 C177 1.216 . S
H179 C174 0.930 . S
H180 C175 0.930 . S
O181 Cu161 1.959 . S
O181 C168 1.251 . S
H182 C165 0.930 . S
H183 C176 0.929 . S
C184 C185 1.391 . S
C184 C186 1.394 . S
C184 H200 0.931 . S
C185 C184 1.391 . S
C185 C189 1.376 . S
C186 C184 1.394 . S
C186 C187 1.369 . S
C186 C190 1.531 . S
C187 C186 1.369 . S
C187 C188 1.410 . S
C187 C195 1.503 . S
C188 C187 1.410 . S
C188 C189 1.392 . S
C188 C191 1.511 . S
C189 C185 1.376 . S
C189 C188 1.392 . S
C189 H201 0.929 . S
C190 C186 1.531 . S
C190 H202 0.960 . S
C190 H203 0.962 . S
C190 H204 0.960 . S
C191 C188 1.511 . S
C191 H205 0.961 . S
C191 H206 0.961 . S
C191 H207 0.961 . S
C192 C193 1.370 . S
C192 C194 1.363 1_554 S
C192 H208 0.931 . S
C193 C192 1.370 . S
C193 C197 1.408 1_554 S
C194 C192 1.363 1_556 S
C194 C195 1.370 . S
C194 C198 1.524 . S
C195 C187 1.503 . S
C195 C194 1.370 . S
C195 C196 1.403 . S
C196 C195 1.403 . S
C196 C197 1.404 . S
C196 C199 1.539 . S
C197 C193 1.408 1_556 S
C197 C196 1.404 . S
C197 H209 0.930 . S
C198 C194 1.524 . S
C198 H210 0.956 . S
C198 H211 0.961 . S
C198 H212 0.961 1_556 S
C199 C196 1.539 . S
C199 H213 0.958 . S
C199 H214 0.961 . S
C199 H215 0.960 . S
H200 C184 0.931 . S
H201 C189 0.929 . S
H202 C190 0.960 . S
H203 C190 0.962 . S
H204 C190 0.960 . S
H205 C191 0.961 . S
H206 C191 0.961 . S
H207 C191 0.961 . S
H208 C192 0.931 . S
H209 C197 0.930 . S
H210 C198 0.956 . S
H211 C198 0.961 . S
H212 C198 0.961 1_554 S
H213 C199 0.958 . S
H214 C199 0.961 . S
H215 C199 0.960 . S
C216 C217 1.391 . S
C216 C218 1.394 . S
C216 H232 0.931 . S
C217 C216 1.391 . S
C217 C221 1.376 . S
C218 C216 1.394 . S
C218 C219 1.369 . S
C218 C222 1.531 . S
C219 C218 1.369 . S
C219 C220 1.410 . S
C219 C227 1.503 . S
C220 C219 1.410 . S
C220 C221 1.392 . S
C220 C223 1.511 . S
C221 C217 1.376 . S
C221 C220 1.392 . S
C221 H233 0.929 . S
C222 C218 1.531 . S
C222 H234 0.960 . S
C222 H235 0.962 . S
C222 H236 0.960 . S
C223 C220 1.511 . S
C223 H237 0.961 . S
C223 H238 0.961 . S
C223 H239 0.961 . S
C224 C225 1.370 . S
C224 C226 1.363 . S
C224 H240 0.931 . S
C225 C224 1.370 . S
C225 C229 1.408 . S
C226 C224 1.363 . S
C226 C227 1.370 . S
C226 C230 1.524 . S
C227 C219 1.503 . S
C227 C226 1.370 . S
C227 C228 1.403 . S
C228 C227 1.403 . S
C228 C229 1.404 . S
C228 C231 1.539 . S
C229 C225 1.408 . S
C229 C228 1.404 . S
C229 H241 0.930 . S
C230 C226 1.524 . S
C230 H242 0.956 . S
C230 H243 0.961 . S
C230 H244 0.961 . S
C231 C228 1.539 . S
C231 H245 0.958 . S
C231 H246 0.961 . S
C231 H247 0.960 . S
H232 C216 0.931 . S
H233 C221 0.929 . S
H234 C222 0.960 . S
H235 C222 0.962 . S
H236 C222 0.960 . S
H237 C223 0.961 . S
H238 C223 0.961 . S
H239 C223 0.961 . S
H240 C224 0.931 . S
H241 C229 0.930 . S
H242 C230 0.956 . S
H243 C230 0.961 . S
H244 C230 0.961 . S
H245 C231 0.958 . S
H246 C231 0.961 . S
H247 C231 0.960 . S
C248 C249 1.391 . S
C248 C250 1.394 . S
C248 H264 0.931 . S
C249 C248 1.391 . S
C249 C253 1.376 . S
C250 C248 1.394 . S
C250 C251 1.369 . S
C250 C254 1.531 . S
C251 C250 1.369 . S
C251 C252 1.410 . S
C251 C259 1.503 . S
C252 C251 1.410 . S
C252 C253 1.392 . S
C252 C255 1.511 . S
C253 C249 1.376 . S
C253 C252 1.392 . S
C253 H265 0.929 . S
C254 C250 1.531 . S
C254 H266 0.960 . S
C254 H267 0.962 . S
C254 H268 0.960 . S
C255 C252 1.511 . S
C255 H269 0.961 1_545 S
C255 H270 0.961 . S
C255 H271 0.961 . S
C256 C257 1.370 1_554 S
C256 C258 1.363 . S
C256 H272 0.931 . S
C257 C256 1.370 1_556 S
C257 C261 1.408 . S
C258 C256 1.363 . S
C258 C259 1.370 . S
C258 C262 1.524 . S
C259 C251 1.503 . S
C259 C258 1.370 . S
C259 C260 1.384 1_554 S
C260 C259 1.384 1_556 S
C260 C261 1.416 . S
C260 C263 1.546 . S
C261 C257 1.408 . S
C261 C260 1.416 . S
C261 H273 0.930 . S
C262 C258 1.524 . S
C262 H274 0.956 . S
C262 H275 0.961 . S
C262 H276 0.961 . S
C263 C260 1.546 . S
C263 H277 0.958 . S
C263 H278 0.961 . S
C263 H279 0.960 1_556 S
H264 C248 0.931 . S
H265 C253 0.929 . S
H266 C254 0.960 . S
H267 C254 0.962 . S
H268 C254 0.960 . S
H269 C255 0.961 1_565 S
H270 C255 0.961 . S
H271 C255 0.961 . S
H272 C256 0.931 . S
H273 C261 0.930 . S
H274 C262 0.956 . S
H275 C262 0.961 . S
H276 C262 0.961 . S
H277 C263 0.958 . S
H278 C263 0.961 . S
H279 C263 0.960 1_554 S
C280 C281 1.391 . S
C280 C282 1.394 . S
C280 H296 0.931 . S
C281 C280 1.391 . S
C281 C285 1.376 . S
C282 C280 1.394 . S
C282 C283 1.369 . S
C282 C286 1.531 . S
C283 C282 1.369 . S
C283 C284 1.410 . S
C283 C291 1.503 . S
C284 C283 1.410 . S
C284 C285 1.392 . S
C284 C287 1.511 1_545 S
C285 C281 1.376 . S
C285 C284 1.392 . S
C285 H297 0.929 . S
C286 C282 1.531 . S
C286 H298 0.960 . S
C286 H299 0.962 . S
C286 H300 0.960 . S
C287 C284 1.511 1_565 S
C287 H301 0.961 . S
C287 H302 0.961 . S
C287 H303 0.961 1_565 S
C288 C289 1.370 . S
C288 C290 1.363 . S
C288 H304 0.931 . S
C289 C288 1.370 . S
C289 C293 1.408 . S
C290 C288 1.363 . S
C290 C291 1.370 . S
C290 C294 1.524 . S
C291 C283 1.503 . S
C291 C290 1.370 . S
C291 C292 1.403 . S
C292 C291 1.403 . S
C292 C293 1.404 . S
C292 C295 1.539 . S
C293 C289 1.408 . S
C293 C292 1.404 . S
C293 H305 0.930 . S
C294 C290 1.524 . S
C294 H306 0.956 . S
C294 H307 0.961 1_545 S
C294 H308 0.953 1_545 S
C295 C292 1.539 . S
C295 H309 0.958 . S
C295 H310 0.961 . S
C295 H311 0.960 . S
H296 C280 0.931 . S
H297 C285 0.929 . S
H298 C286 0.960 . S
H299 C286 0.962 . S
H300 C286 0.960 . S
H301 C287 0.961 . S
H302 C287 0.961 . S
H303 C287 0.961 1_545 S
H304 C288 0.931 . S
H305 C293 0.930 . S
H306 C294 0.956 . S
H307 C294 0.961 1_565 S
H308 C294 0.953 1_565 S
H309 C295 0.958 . S
H310 C295 0.961 . S
H311 C295 0.960 . S
C312 C313 1.391 1_565 S
C312 C314 1.394 . S
C312 H328 0.931 . S
C313 C312 1.391 1_545 S
C313 C317 1.376 . S
C314 C312 1.394 . S
C314 C315 1.369 1_565 S
C314 C318 1.531 . S
C315 C314 1.369 1_545 S
C315 C316 1.410 . S
C315 C323 1.503 1_545 S
C316 C315 1.410 . S
C316 C317 1.392 . S
C316 C319 1.511 . S
C317 C313 1.376 . S
C317 C316 1.392 . S
C317 H329 0.929 . S
C318 C314 1.531 . S
C318 H330 0.960 . S
C318 H331 0.962 . S
C318 H332 0.960 . S
C319 C316 1.511 . S
C319 H333 0.961 . S
C319 H334 0.961 . S
C319 H335 0.961 . S
C320 C321 1.370 . S
C320 C322 1.363 . S
C320 H336 0.931 . S
C321 C320 1.370 . S
C321 C325 1.408 1_565 S
C322 C320 1.363 . S
C322 C323 1.370 . S
C322 C326 1.524 . S
C323 C315 1.503 1_565 S
C323 C322 1.370 . S
C323 C324 1.403 1_565 S
C324 C323 1.403 1_545 S
C324 C325 1.404 . S
C324 C327 1.539 . S
C325 C321 1.408 1_545 S
C325 C324 1.404 . S
C325 H337 0.930 . S
C326 C322 1.524 . S
C326 H338 0.956 . S
C326 H339 0.961 . S
C326 H340 0.961 . S
C327 C324 1.539 . S
C327 H341 0.958 . S
C327 H342 0.961 . S
C327 H343 0.960 . S
H328 C312 0.931 . S
H329 C317 0.929 . S
H330 C318 0.960 . S
H331 C318 0.962 . S
H332 C318 0.960 . S
H333 C319 0.961 . S
H334 C319 0.961 . S
H335 C319 0.961 . S
H336 C320 0.931 . S
H337 C325 0.930 . S
H338 C326 0.956 . S
H339 C326 0.961 . S
H340 C326 0.961 . S
H341 C327 0.958 . S
H342 C327 0.961 . S
H343 C327 0.960 . S
C344 C345 1.391 . S
C344 C346 1.394 . S
C344 H360 0.931 . S
C345 C344 1.391 . S
C345 C349 1.376 1_565 S
C346 C344 1.394 . S
C346 C347 1.369 . S
C346 C350 1.531 . S
C347 C346 1.369 . S
C347 C348 1.410 1_565 S
C347 C355 1.503 . S
C348 C347 1.410 1_545 S
C348 C349 1.392 . S
C348 C351 1.511 . S
C349 C345 1.376 1_545 S
C349 C348 1.392 . S
C349 H361 0.929 . S
C350 C346 1.531 . S
C350 H362 0.960 . S
C350 H363 0.962 . S
C350 H364 0.960 . S
C351 C348 1.511 . S
C351 H365 0.961 . S
C351 H366 0.961 . S
C351 H367 0.961 . S
C352 C353 1.370 . S
C352 C354 1.363 . S
C352 H368 0.931 . S
C353 C352 1.370 . S
C353 C357 1.408 1_565 S
C354 C352 1.363 . S
C354 C355 1.370 . S
C354 C358 1.524 . S
C355 C347 1.503 . S
C355 C354 1.370 . S
C355 C356 1.403 1_565 S
C356 C355 1.403 1_545 S
C356 C357 1.404 . S
C356 C359 1.539 . S
C357 C353 1.408 1_545 S
C357 C356 1.404 . S
C357 H369 0.930 . S
C358 C354 1.524 . S
C358 H370 0.956 . S
C358 H371 0.961 . S
C358 H372 0.961 . S
C359 C356 1.539 . S
C359 H373 0.958 . S
C359 H374 0.961 . S
C359 H375 0.960 . S
H360 C344 0.931 . S
H361 C349 0.929 . S
H362 C350 0.960 . S
H363 C350 0.962 . S
H364 C350 0.960 . S
H365 C351 0.961 . S
H366 C351 0.961 . S
H367 C351 0.961 . S
H368 C352 0.931 . S
H369 C357 0.930 . S
H370 C358 0.956 . S
H371 C358 0.961 . S
H372 C358 0.961 . S
H373 C359 0.958 . S
H374 C359 0.961 . S
H375 C359 0.960 . S
C376 C377 1.391 . S
C376 C378 1.394 . S
C376 H392 0.931 . S
C377 C376 1.391 . S
C377 C381 1.376 . S
C378 C376 1.394 . S
C378 C379 1.369 . S
C378 C382 1.531 . S
C379 C378 1.369 . S
C379 C380 1.410 . S
C379 C387 1.503 . S
C380 C379 1.410 . S
C380 C381 1.392 . S
C380 C383 1.511 . S
C381 C377 1.376 . S
C381 C380 1.392 . S
C381 H393 0.929 . S
C382 C378 1.531 . S
C382 H394 0.960 . S
C382 H395 0.962 . S
C382 H396 0.960 . S
C383 C380 1.511 . S
C383 H397 0.961 . S
C383 H398 0.961 . S
C383 H399 0.961 . S
C384 C385 1.370 . S
C384 C386 1.363 . S
C384 H400 0.931 . S
C385 C384 1.370 . S
C385 C389 1.408 . S
C386 C384 1.363 . S
C386 C387 1.370 . S
C386 C390 1.524 . S
C387 C379 1.503 . S
C387 C386 1.370 . S
C387 C388 1.403 . S
C388 C387 1.403 . S
C388 C389 1.404 . S
C388 C391 1.539 . S
C389 C385 1.408 . S
C389 C388 1.404 . S
C389 H401 0.930 . S
C390 C386 1.524 . S
C390 H402 0.956 . S
C390 H403 0.961 . S
C390 H404 0.961 . S
C391 C388 1.539 . S
C391 H405 0.958 . S
C391 H406 0.961 . S
C391 H407 0.960 . S
H392 C376 0.931 . S
H393 C381 0.929 . S
H394 C382 0.960 . S
H395 C382 0.962 . S
H396 C382 0.960 . S
H397 C383 0.961 . S
H398 C383 0.961 . S
H399 C383 0.961 . S
H400 C384 0.931 . S
H401 C389 0.930 . S
H402 C390 0.956 . S
H403 C390 0.961 . S
H404 C390 0.961 . S
H405 C391 0.958 . S
H406 C391 0.961 . S
H407 C391 0.960 . S
C408 C409 1.391 . S
C408 C410 1.394 . S
C408 H424 0.931 . S
C409 C408 1.391 . S
C409 C413 1.376 . S
C410 C408 1.394 . S
C410 C411 1.369 . S
C410 C414 1.531 . S
C411 C410 1.369 . S
C411 C412 1.410 . S
C411 C419 1.503 . S
C412 C411 1.410 . S
C412 C413 1.392 . S
C412 C415 1.511 . S
C413 C409 1.376 . S
C413 C412 1.392 . S
C413 H425 0.929 . S
C414 C410 1.531 . S
C414 H426 0.960 . S
C414 H427 0.962 . S
C414 H428 0.960 . S
C415 C412 1.511 . S
C415 H429 0.961 . S
C415 H430 0.961 . S
C415 H431 0.961 . S
C416 C417 1.370 . S
C416 C418 1.363 . S
C416 H432 0.931 . S
C417 C416 1.370 . S
C417 C421 1.408 . S
C418 C416 1.363 . S
C418 C419 1.370 . S
C418 C422 1.524 . S
C419 C411 1.503 . S
C419 C418 1.370 . S
C419 C420 1.403 . S
C420 C419 1.403 . S
C420 C421 1.404 . S
C420 C423 1.539 . S
C421 C417 1.408 . S
C421 C420 1.404 . S
C421 H433 0.930 . S
C422 C418 1.524 . S
C422 H434 0.956 . S
C422 H435 0.961 . S
C422 H436 0.961 . S
C423 C420 1.539 . S
C423 H437 0.958 . S
C423 H438 0.961 . S
C423 H439 0.960 . S
H424 C408 0.931 . S
H425 C413 0.929 . S
H426 C414 0.960 . S
H427 C414 0.962 . S
H428 C414 0.960 . S
H429 C415 0.961 . S
H430 C415 0.961 . S
H431 C415 0.961 . S
H432 C416 0.931 . S
H433 C421 0.930 . S
H434 C422 0.956 . S
H435 C422 0.961 . S
H436 C422 0.961 . S
H437 C423 0.958 . S
H438 C423 0.961 . S
H439 C423 0.960 . S
C440 C441 1.391 . S
C440 C442 1.394 . S
C440 H456 0.931 . S
C441 C440 1.391 . S
C441 C445 1.376 . S
C442 C440 1.394 . S
C442 C443 1.369 . S
C442 C446 1.531 . S
C443 C442 1.369 . S
C443 C444 1.410 . S
C443 C451 1.503 1_455 S
C444 C443 1.410 . S
C444 C445 1.392 . S
C444 C447 1.511 1_455 S
C445 C441 1.376 . S
C445 C444 1.392 . S
C445 H457 0.929 . S
C446 C442 1.531 . S
C446 H458 0.960 . S
C446 H459 0.962 . S
C446 H460 0.960 . S
C447 C444 1.511 1_655 S
C447 H461 0.966 . S
C447 H462 0.961 . S
C447 H463 0.961 . S
C448 C449 1.370 . S
C448 C450 1.363 . S
C448 H464 0.931 . S
C449 C448 1.370 . S
C449 C453 1.408 . S
C450 C448 1.363 . S
C450 C451 1.370 . S
C450 C454 1.524 . S
C451 C443 1.503 1_655 S
C451 C450 1.370 . S
C451 C452 1.403 . S
C452 C451 1.403 . S
C452 C453 1.404 . S
C452 C455 1.539 . S
C453 C449 1.408 . S
C453 C452 1.404 . S
C453 H465 0.930 . S
C454 C450 1.524 . S
C454 H466 0.956 1_655 S
C454 H467 0.961 . S
C454 H468 0.961 . S
C455 C452 1.539 . S
C455 H469 0.958 1_655 S
C455 H470 0.961 . S
C455 H471 0.960 1_655 S
H456 C440 0.931 . S
H457 C445 0.929 . S
H458 C446 0.960 . S
H459 C446 0.962 . S
H460 C446 0.960 . S
H461 C447 0.966 . S
H462 C447 0.961 . S
H463 C447 0.961 . S
H464 C448 0.931 . S
H465 C453 0.930 . S
H466 C454 0.956 1_455 S
H467 C454 0.961 . S
H468 C454 0.961 . S
H469 C455 0.958 1_455 S
H470 C455 0.961 . S
H471 C455 0.960 1_455 S
C472 C473 1.391 . S
C472 C474 1.394 . S
C472 H488 0.931 . S
C473 C472 1.391 . S
C473 C477 1.376 . S
C474 C472 1.394 . S
C474 C475 1.369 . S
C474 C478 1.531 . S
C475 C474 1.369 . S
C475 C476 1.410 . S
C475 C483 1.503 . S
C476 C475 1.410 . S
C476 C477 1.392 . S
C476 C479 1.511 . S
C477 C473 1.376 . S
C477 C476 1.392 . S
C477 H489 0.929 . S
C478 C474 1.531 . S
C478 H490 0.960 . S
C478 H491 0.962 . S
C478 H492 0.960 . S
C479 C476 1.511 . S
C479 H493 0.961 . S
C479 H494 0.961 . S
C479 H495 0.961 . S
C480 C481 1.370 . S
C480 C482 1.363 . S
C480 H496 0.931 . S
C481 C480 1.370 . S
C481 C485 1.408 . S
C482 C480 1.363 . S
C482 C483 1.370 . S
C482 C486 1.524 . S
C483 C475 1.503 . S
C483 C482 1.370 . S
C483 C484 1.403 . S
C484 C483 1.403 . S
C484 C485 1.404 . S
C484 C487 1.539 . S
C485 C481 1.408 . S
C485 C484 1.404 . S
C485 H497 0.930 . S
C486 C482 1.524 . S
C486 H498 0.956 . S
C486 H499 0.961 . S
C486 H500 0.961 . S
C487 C484 1.539 . S
C487 H501 0.958 . S
C487 H502 0.961 . S
C487 H503 0.960 . S
H488 C472 0.931 . S
H489 C477 0.929 . S
H490 C478 0.960 . S
H491 C478 0.962 . S
H492 C478 0.960 . S
H493 C479 0.961 . S
H494 C479 0.961 . S
H495 C479 0.961 . S
H496 C480 0.931 . S
H497 C485 0.930 . S
H498 C486 0.956 . S
H499 C486 0.961 . S
H500 C486 0.961 . S
H501 C487 0.958 . S
H502 C487 0.961 . S
H503 C487 0.960 . S
C504 C505 1.391 . S
C504 C506 1.394 1_455 S
C504 H520 0.931 . S
C505 C504 1.391 . S
C505 C509 1.376 . S
C506 C504 1.394 1_655 S
C506 C507 1.369 1_655 S
C506 C510 1.531 . S
C507 C506 1.369 1_455 S
C507 C508 1.410 . S
C507 C515 1.503 1_455 S
C508 C507 1.410 . S
C508 C509 1.392 . S
C508 C511 1.511 . S
C509 C505 1.376 . S
C509 C508 1.392 . S
C509 H521 0.929 . S
C510 C506 1.531 . S
C510 H522 0.960 . S
C510 H523 0.962 . S
C510 H524 0.960 . S
C511 C508 1.511 . S
C511 H525 0.961 . S
C511 H526 0.961 . S
C511 H527 0.961 . S
C512 C513 1.370 . S
C512 C514 1.363 . S
C512 H528 0.931 . S
C513 C512 1.370 . S
C513 C517 1.408 . S
C514 C512 1.363 . S
C514 C515 1.370 . S
C514 C518 1.524 . S
C515 C507 1.503 1_655 S
C515 C514 1.370 . S
C515 C516 1.403 . S
C516 C515 1.403 . S
C516 C517 1.404 . S
C516 C519 1.539 . S
C517 C513 1.408 . S
C517 C516 1.404 . S
C517 H529 0.930 . S
C518 C514 1.524 . S
C518 H530 0.956 . S
C518 H531 0.961 1_655 S
C518 H532 0.961 . S
C519 C516 1.539 . S
C519 H533 0.958 . S
C519 H534 0.961 . S
C519 H535 0.954 1_655 S
H520 C504 0.931 . S
H521 C509 0.929 . S
H522 C510 0.960 . S
H523 C510 0.962 . S
H524 C510 0.960 . S
H525 C511 0.961 . S
H526 C511 0.961 . S
H527 C511 0.961 . S
H528 C512 0.931 . S
H529 C517 0.930 . S
H530 C518 0.956 . S
H531 C518 0.961 1_455 S
H532 C518 0.961 . S
H533 C519 0.958 . S
H534 C519 0.961 . S
H535 C519 0.954 1_455 S
C536 C537 1.391 . S
C536 C538 1.394 . S
C536 H552 0.931 . S
C537 C536 1.391 . S
C537 C541 1.376 . S
C538 C536 1.394 . S
C538 C539 1.369 . S
C538 C542 1.531 . S
C539 C538 1.369 . S
C539 C540 1.410 . S
C539 C547 1.503 . S
C540 C539 1.410 . S
C540 C541 1.392 . S
C540 C543 1.511 . S
C541 C537 1.376 . S
C541 C540 1.392 . S
C541 H553 0.929 . S
C542 C538 1.531 . S
C542 H554 0.960 . S
C542 H555 0.962 . S
C542 H556 0.960 . S
C543 C540 1.511 . S
C543 H557 0.961 . S
C543 H558 0.961 . S
C543 H559 0.961 . S
C544 C545 1.370 . S
C544 C546 1.363 . S
C544 H560 0.931 . S
C545 C544 1.370 . S
C545 C549 1.408 . S
C546 C544 1.363 . S
C546 C547 1.370 . S
C546 C550 1.524 . S
C547 C539 1.503 . S
C547 C546 1.370 . S
C547 C548 1.403 . S
C548 C547 1.403 . S
C548 C549 1.404 . S
C548 C551 1.539 . S
C549 C545 1.408 . S
C549 C548 1.404 . S
C549 H561 0.930 . S
C550 C546 1.524 . S
C550 H562 0.956 . S
C550 H563 0.961 . S
C550 H564 0.961 . S
C551 C548 1.539 . S
C551 H565 0.958 . S
C551 H566 0.961 . S
C551 H567 0.960 . S
H552 C536 0.931 . S
H553 C541 0.929 . S
H554 C542 0.960 . S
H555 C542 0.962 . S
H556 C542 0.960 . S
H557 C543 0.961 . S
H558 C543 0.961 . S
H559 C543 0.961 . S
H560 C544 0.931 . S
H561 C549 0.930 . S
H562 C550 0.956 . S
H563 C550 0.961 . S
H564 C550 0.961 . S
H565 C551 0.958 . S
H566 C551 0.961 . S
H567 C551 0.960 . S
C568 C569 1.391 . S
C568 C570 1.394 . S
C568 H584 0.931 . S
C569 C568 1.391 . S
C569 C573 1.376 1_554 S
C570 C568 1.394 . S
C570 C571 1.376 . S
C570 C574 1.531 1_455 S
C571 C570 1.376 . S
C571 C572 1.430 1_554 S
C571 C579 1.478 1_455 S
C572 C571 1.430 1_556 S
C572 C573 1.392 . S
C572 C575 1.511 . S
C573 C569 1.376 1_556 S
C573 C572 1.392 . S
C573 H585 0.929 . S
C574 C570 1.531 1_655 S
C574 H586 0.960 . S
C574 H587 0.962 . S
C574 H588 0.960 . S
C575 C572 1.511 . S
C575 H589 0.961 . S
C575 H590 0.985 . S
C575 H591 0.961 . S
C576 C577 1.370 1_554 S
C576 C578 1.363 . S
C576 H592 0.931 1_545 S
C577 C576 1.370 1_556 S
C577 C581 1.408 . S
C578 C576 1.363 . S
C578 C579 1.370 . S
C578 C582 1.492 1_655 S
C579 C571 1.478 1_655 S
C579 C578 1.370 . S
C579 C580 1.403 1_554 S
C580 C579 1.403 1_556 S
C580 C581 1.404 . S
C580 C583 1.539 . S
C581 C577 1.408 . S
C581 C580 1.404 . S
C581 H593 0.930 . S
C582 C578 1.492 1_455 S
C582 H594 0.967 . S
C582 H595 0.989 . S
C582 H596 0.955 1_445 S
C583 C580 1.539 . S
C583 H597 0.958 . S
C583 H598 0.961 . S
C583 H599 0.960 . S
H584 C568 0.931 . S
H585 C573 0.929 . S
H586 C574 0.960 . S
H587 C574 0.962 . S
H588 C574 0.960 . S
H589 C575 0.961 . S
H590 C575 0.985 . S
H591 C575 0.961 . S
H592 C576 0.931 1_565 S
H593 C581 0.930 . S
H594 C582 0.967 . S
H595 C582 0.989 . S
H596 C582 0.955 1_665 S
H597 C583 0.958 . S
H598 C583 0.961 . S
H599 C583 0.960 . S
C600 C601 1.391 . S
C600 C602 1.394 . S
C600 H616 0.931 . S
C601 C600 1.391 . S
C601 C605 1.376 . S
C602 C600 1.394 . S
C602 C603 1.369 . S
C602 C606 1.531 . S
C603 C602 1.369 . S
C603 C604 1.410 . S
C603 C611 1.503 . S
C604 C603 1.410 . S
C604 C605 1.392 . S
C604 C607 1.511 . S
C605 C601 1.376 . S
C605 C604 1.392 . S
C605 H617 0.929 . S
C606 C602 1.531 . S
C606 H618 0.960 . S
C606 H619 0.962 . S
C606 H620 0.960 . S
C607 C604 1.511 . S
C607 H621 0.961 . S
C607 H622 0.961 . S
C607 H623 0.961 . S
C608 C609 1.370 . S
C608 C610 1.363 . S
C608 H624 0.931 . S
C609 C608 1.370 . S
C609 C613 1.408 . S
C610 C608 1.363 . S
C610 C611 1.370 . S
C610 C614 1.524 . S
C611 C603 1.503 . S
C611 C610 1.370 . S
C611 C612 1.403 . S
C612 C611 1.403 . S
C612 C613 1.404 . S
C612 C615 1.539 . S
C613 C609 1.408 . S
C613 C612 1.404 . S
C613 H625 0.930 . S
C614 C610 1.524 . S
C614 H626 0.956 . S
C614 H627 0.961 . S
C614 H628 0.961 . S
C615 C612 1.539 . S
C615 H629 0.958 . S
C615 H630 0.961 . S
C615 H631 0.960 . S
H616 C600 0.931 . S
H617 C605 0.929 . S
H618 C606 0.960 . S
H619 C606 0.962 . S
H620 C606 0.960 . S
H621 C607 0.961 . S
H622 C607 0.961 . S
H623 C607 0.961 . S
H624 C608 0.931 . S
H625 C613 0.930 . S
H626 C614 0.956 . S
H627 C614 0.961 . S
H628 C614 0.961 . S
H629 C615 0.958 . S
H630 C615 0.961 . S
H631 C615 0.960 . S
C632 C633 1.391 . S
C632 C634 1.394 . S
C632 H648 0.931 . S
C633 C632 1.391 . S
C633 C637 1.376 1_554 S
C634 C632 1.394 . S
C634 C635 1.369 1_554 S
C634 C638 1.531 . S
C635 C634 1.369 1_556 S
C635 C636 1.410 . S
C635 C643 1.503 . S
C636 C635 1.410 . S
C636 C637 1.392 . S
C636 C639 1.511 . S
C637 C633 1.376 1_556 S
C637 C636 1.392 . S
C637 H649 0.929 . S
C638 C634 1.531 . S
C638 H650 0.960 1_554 S
C638 H651 0.962 . S
C638 H652 0.960 . S
C639 C636 1.511 . S
C639 H653 0.961 . S
C639 H654 0.961 . S
C639 H655 0.961 . S
C640 C641 1.370 1_554 S
C640 C642 1.363 . S
C640 H656 0.931 . S
C641 C640 1.370 1_556 S
C641 C645 1.408 . S
C642 C640 1.363 . S
C642 C643 1.370 1_554 S
C642 C646 1.524 . S
C643 C635 1.503 . S
C643 C642 1.370 1_556 S
C643 C644 1.403 . S
C644 C643 1.403 . S
C644 C645 1.404 . S
C644 C647 1.539 . S
C645 C641 1.408 . S
C645 C644 1.404 . S
C645 H657 0.930 . S
C646 C642 1.524 . S
C646 H658 0.956 . S
C646 H659 0.961 . S
C646 H660 0.961 . S
C647 C644 1.539 . S
C647 H661 0.958 . S
C647 H662 0.961 . S
C647 H663 0.960 . S
H648 C632 0.931 . S
H649 C637 0.929 . S
H650 C638 0.960 1_556 S
H651 C638 0.962 . S
H652 C638 0.960 . S
H653 C639 0.961 . S
H654 C639 0.961 . S
H655 C639 0.961 . S
H656 C640 0.931 . S
H657 C645 0.930 . S
H658 C646 0.956 . S
H659 C646 0.961 . S
H660 C646 0.961 . S
H661 C647 0.958 . S
H662 C647 0.961 . S
H663 C647 0.960 . S
C664 C665 1.391 . S
C664 C666 1.394 . S
C664 H680 0.931 . S
C665 C664 1.391 . S
C665 C669 1.376 . S
C666 C664 1.394 . S
C666 C667 1.369 . S
C666 C670 1.502 1_455 S
C667 C666 1.369 . S
C667 C668 1.410 . S
C667 C675 1.503 . S
C668 C667 1.410 . S
C668 C669 1.392 . S
C668 C671 1.511 . S
C669 C665 1.376 . S
C669 C668 1.392 . S
C669 H681 0.929 . S
C670 C666 1.502 1_655 S
C670 H682 0.971 . S
C670 H683 0.989 . S
C670 H684 0.953 1_655 S
C671 C668 1.511 . S
C671 H685 0.961 . S
C671 H686 0.961 . S
C671 H687 0.961 . S
C672 C673 1.370 . S
C672 C674 1.363 . S
C672 H688 0.931 . S
C673 C672 1.370 . S
C673 C677 1.408 . S
C674 C672 1.363 . S
C674 C675 1.370 1_655 S
C674 C678 1.524 . S
C675 C667 1.503 . S
C675 C674 1.370 1_455 S
C675 C676 1.403 . S
C676 C675 1.403 . S
C676 C677 1.404 1_455 S
C676 C679 1.539 . S
C677 C673 1.408 . S
C677 C676 1.404 1_655 S
C677 H689 0.930 1_565 S
C678 C674 1.524 . S
C678 H690 0.956 . S
C678 H691 0.961 1_655 S
C678 H692 0.961 . S
C679 C676 1.539 . S
C679 H693 0.958 . S
C679 H694 0.961 . S
C679 H695 0.960 . S
H680 C664 0.931 . S
H681 C669 0.929 . S
H682 C670 0.971 . S
H683 C670 0.989 . S
H684 C670 0.953 1_455 S
H685 C671 0.961 . S
H686 C671 0.961 . S
H687 C671 0.961 . S
H688 C672 0.931 . S
H689 C677 0.930 1_545 S
H690 C678 0.956 . S
H691 C678 0.961 1_455 S
H692 C678 0.961 . S
H693 C679 0.958 . S
H694 C679 0.961 . S
H695 C679 0.960 . S
C185 N25 1.924 . S
C193 C16 2.100 . S
C217 N2 1.813 . S
C225 C39 1.901 . S
C249 N71 1.909 . S
C257 C62 2.108 . S
C281 N48 1.843 . S
C289 C85 1.898 . S
C313 N104 1.906 . S
C321 C122 1.963 . S
C345 N127 1.830 . S
C353 C99 1.869 . S
C377 N150 1.906 . S
C385 C168 1.963 . S
C409 C145 1.880 . S
C417 N173 1.799 . S
C441 C7 1.342 . S
C449 C76 1.309 . S
C473 C30 1.338 . S
C481 C53 1.306 . S
C505 N163 1.290 . S
C513 N94 1.143 . S
C537 N140 1.205 . S
C545 N117 1.281 . S
C569 N12 1.375 . S
C577 C108 1.298 . S
C601 C131 1.454 . S
C609 N35 1.526 . S
C633 C154 1.327 . S
C641 N58 1.367 . S
C665 C177 1.427 . S
C673 N81 1.530 . S
