# Generated by pormake.
# Topology xfg, (7)-cn, num edge types: 1
# Building blocks:
#     Node 0, Type 0, BuildingBlock: HICVOG_clean_sbu_0, # of connection points: 7
#     Node 1, Type 0, BuildingBlock: HICVOG_clean_sbu_0, # of connection points: 7
#     Node 2, Type 0, BuildingBlock: HICVOG_clean_sbu_0, # of connection points: 7
#     Node 3, Type 0, BuildingBlock: HICVOG_clean_sbu_0, # of connection points: 7
#     Node 4, Type 0, BuildingBlock: HICVOG_clean_sbu_0, # of connection points: 7
#     Node 5, Type 0, BuildingBlock: HICVOG_clean_sbu_0, # of connection points: 7
#     Node 6, Type 0, BuildingBlock: HICVOG_clean_sbu_0, # of connection points: 7
#     Node 7, Type 0, BuildingBlock: HICVOG_clean_sbu_0, # of connection points: 7
#     Node 8, Type 0, BuildingBlock: HICVOG_clean_sbu_0, # of connection points: 7
#     Node 9, Type 0, BuildingBlock: HICVOG_clean_sbu_0, # of connection points: 7
#     Node 10, Type 0, BuildingBlock: HICVOG_clean_sbu_0, # of connection points: 7
#     Node 11, Type 0, BuildingBlock: HICVOG_clean_sbu_0, # of connection points: 7
#     Node 12, Type 0, BuildingBlock: HICVOG_clean_sbu_0, # of connection points: 7
#     Node 13, Type 0, BuildingBlock: HICVOG_clean_sbu_0, # of connection points: 7
#     Node 14, Type 0, BuildingBlock: HICVOG_clean_sbu_0, # of connection points: 7
#     Node 15, Type 0, BuildingBlock: HICVOG_clean_sbu_0, # of connection points: 7
#     Edge 16, Type (0, 0), BuildingBlock: XIVTED_clean_linker_0, # of connection points: 2
#     Edge 17, Type (0, 0), BuildingBlock: XIVTED_clean_linker_0, # of connection points: 2
#     Edge 18, Type (0, 0), BuildingBlock: XIVTED_clean_linker_0, # of connection points: 2
#     Edge 19, Type (0, 0), BuildingBlock: XIVTED_clean_linker_0, # of connection points: 2
#     Edge 20, Type (0, 0), BuildingBlock: XIVTED_clean_linker_0, # of connection points: 2
#     Edge 21, Type (0, 0), BuildingBlock: XIVTED_clean_linker_0, # of connection points: 2
#     Edge 22, Type (0, 0), BuildingBlock: XIVTED_clean_linker_0, # of connection points: 2
#     Edge 23, Type (0, 0), BuildingBlock: XIVTED_clean_linker_0, # of connection points: 2
#     Edge 24, Type (0, 0), BuildingBlock: XIVTED_clean_linker_0, # of connection points: 2
#     Edge 25, Type (0, 0), BuildingBlock: XIVTED_clean_linker_0, # of connection points: 2
#     Edge 26, Type (0, 0), BuildingBlock: XIVTED_clean_linker_0, # of connection points: 2
#     Edge 27, Type (0, 0), BuildingBlock: XIVTED_clean_linker_0, # of connection points: 2
#     Edge 28, Type (0, 0), BuildingBlock: XIVTED_clean_linker_0, # of connection points: 2
#     Edge 29, Type (0, 0), BuildingBlock: XIVTED_clean_linker_0, # of connection points: 2
#     Edge 30, Type (0, 0), BuildingBlock: XIVTED_clean_linker_0, # of connection points: 2
#     Edge 31, Type (0, 0), BuildingBlock: XIVTED_clean_linker_0, # of connection points: 2
#     Edge 32, Type (0, 0), BuildingBlock: XIVTED_clean_linker_0, # of connection points: 2
#     Edge 33, Type (0, 0), BuildingBlock: XIVTED_clean_linker_0, # of connection points: 2
#     Edge 34, Type (0, 0), BuildingBlock: XIVTED_clean_linker_0, # of connection points: 2
#     Edge 35, Type (0, 0), BuildingBlock: XIVTED_clean_linker_0, # of connection points: 2
#     Edge 36, Type (0, 0), BuildingBlock: XIVTED_clean_linker_0, # of connection points: 2
#     Edge 37, Type (0, 0), BuildingBlock: XIVTED_clean_linker_0, # of connection points: 2
#     Edge 38, Type (0, 0), BuildingBlock: XIVTED_clean_linker_0, # of connection points: 2
#     Edge 39, Type (0, 0), BuildingBlock: XIVTED_clean_linker_0, # of connection points: 2
#     Edge 40, Type (0, 0), BuildingBlock: XIVTED_clean_linker_0, # of connection points: 2
#     Edge 41, Type (0, 0), BuildingBlock: XIVTED_clean_linker_0, # of connection points: 2
#     Edge 42, Type (0, 0), BuildingBlock: XIVTED_clean_linker_0, # of connection points: 2
#     Edge 43, Type (0, 0), BuildingBlock: XIVTED_clean_linker_0, # of connection points: 2
#     Edge 44, Type (0, 0), BuildingBlock: XIVTED_clean_linker_0, # of connection points: 2
#     Edge 45, Type (0, 0), BuildingBlock: XIVTED_clean_linker_0, # of connection points: 2
#     Edge 46, Type (0, 0), BuildingBlock: XIVTED_clean_linker_0, # of connection points: 2
#     Edge 47, Type (0, 0), BuildingBlock: XIVTED_clean_linker_0, # of connection points: 2
#     Edge 48, Type (0, 0), BuildingBlock: XIVTED_clean_linker_0, # of connection points: 2
#     Edge 49, Type (0, 0), BuildingBlock: XIVTED_clean_linker_0, # of connection points: 2
#     Edge 50, Type (0, 0), BuildingBlock: XIVTED_clean_linker_0, # of connection points: 2
#     Edge 51, Type (0, 0), BuildingBlock: XIVTED_clean_linker_0, # of connection points: 2
#     Edge 52, Type (0, 0), BuildingBlock: XIVTED_clean_linker_0, # of connection points: 2
#     Edge 53, Type (0, 0), BuildingBlock: XIVTED_clean_linker_0, # of connection points: 2
#     Edge 54, Type (0, 0), BuildingBlock: XIVTED_clean_linker_0, # of connection points: 2
#     Edge 55, Type (0, 0), BuildingBlock: XIVTED_clean_linker_0, # of connection points: 2
#     Edge 56, Type (0, 0), BuildingBlock: XIVTED_clean_linker_0, # of connection points: 2
#     Edge 57, Type (0, 0), BuildingBlock: XIVTED_clean_linker_0, # of connection points: 2
#     Edge 58, Type (0, 0), BuildingBlock: XIVTED_clean_linker_0, # of connection points: 2
#     Edge 59, Type (0, 0), BuildingBlock: XIVTED_clean_linker_0, # of connection points: 2
#     Edge 60, Type (0, 0), BuildingBlock: XIVTED_clean_linker_0, # of connection points: 2
#     Edge 61, Type (0, 0), BuildingBlock: XIVTED_clean_linker_0, # of connection points: 2
#     Edge 62, Type (0, 0), BuildingBlock: XIVTED_clean_linker_0, # of connection points: 2
#     Edge 63, Type (0, 0), BuildingBlock: XIVTED_clean_linker_0, # of connection points: 2
#     Edge 64, Type (0, 0), BuildingBlock: XIVTED_clean_linker_0, # of connection points: 2
#     Edge 65, Type (0, 0), BuildingBlock: XIVTED_clean_linker_0, # of connection points: 2
#     Edge 66, Type (0, 0), BuildingBlock: XIVTED_clean_linker_0, # of connection points: 2
#     Edge 67, Type (0, 0), BuildingBlock: XIVTED_clean_linker_0, # of connection points: 2
#     Edge 68, Type (0, 0), BuildingBlock: XIVTED_clean_linker_0, # of connection points: 2
#     Edge 69, Type (0, 0), BuildingBlock: XIVTED_clean_linker_0, # of connection points: 2
#     Edge 70, Type (0, 0), BuildingBlock: XIVTED_clean_linker_0, # of connection points: 2
#     Edge 71, Type (0, 0), BuildingBlock: XIVTED_clean_linker_0, # of connection points: 2
# Relax obj value: 0.143
# Max RMSD: 0.173
# Mean RMSD: 0.171
data_MOF--net-xfg--node1-HICVOG_clean_sbu_0--edge1-XIVTED_clean_linker_0
_symmetry_space_group_name_H-M    P1
_symmetry_Int_Tables_number       1
_symmetry_cell_setting            triclinic
loop_
_symmetry_equiv_pos_as_xyz
'x, y, z'
_cell_length_a     29.609648
_cell_length_b     29.579444
_cell_length_c     69.364358
_cell_angle_alpha  90.069065
_cell_angle_beta   90.05297
_cell_angle_gamma 89.869281
loop_
_atom_site_label
_atom_site_type_symbol
_atom_site_fract_x
_atom_site_fract_y
_atom_site_fract_z
_atom_type_partial_charge
Zn0 Zn 0.20729 0.13387 0.05258 0.0
C1 C 0.22571 0.24454 0.01858 0.0
N2 N 0.20673 0.2634 0.03425 0.0
C3 C 0.20047 0.22813 0.04594 0.0
N4 N 0.21545 0.18935 0.03811 0.0
N5 N 0.23139 0.19887 0.0207 0.0
C6 C 0.2167 0.12984 0.97047 0.0
O7 O 0.19332 0.10726 0.98333 0.0
O8 O 0.23544 0.13902 0.07925 0.0
Zn9 Zn 0.26412 0.15387 0.00493 0.0
N10 N 0.14308 0.12838 0.05579 0.0
C11 C 0.07078 0.11763 0.04163 0.0
C12 C 0.1175 0.12125 0.03982 0.0
C13 C 0.12402 0.13235 0.07352 0.0
N14 N 0.05162 0.12153 0.05933 0.0
C15 C 0.07688 0.12917 0.07543 0.0
O16 O 0.25795 0.08605 0.01208 0.0
C17 C 0.24482 0.05953 0.02543 0.0
O18 O 0.22695 0.07499 0.04071 0.0
H19 H 0.13342 0.1184 0.02584 0.0
H20 H 0.14559 0.13739 0.08592 0.0
C21 C 0.35669 0.14089 0.99721 0.0
C22 C 0.40327 0.14509 1.00053 0.0
C23 C 0.38826 0.20103 0.02428 0.0
C24 C 0.34208 0.19475 0.02169 0.0
N25 N 0.32732 0.16577 0.00787 0.0
N26 N 0.4177 0.17578 0.01382 0.0
H27 H 0.34349 0.11716 0.98676 0.0
C28 C 0.27641 0.12973 0.08315 0.0
O29 O 0.30331 0.11622 0.06923 0.0
O30 O 0.24774 0.15631 0.97632 0.0
H31 H 0.31827 0.21199 0.03091 0.0
H32 H 0.04989 0.11175 0.02908 0.0
H33 H 0.40065 0.22449 0.03502 0.0
Zn34 Zn 0.66852 0.4481 0.30175 0.0
C35 C 0.55524 0.46353 0.26867 0.0
N36 N 0.53815 0.44062 0.28372 0.0
C37 C 0.5737 0.436 0.29547 0.0
N38 N 0.61105 0.4553 0.28819 0.0
N39 N 0.6001 0.47288 0.27122 0.0
C40 C 0.6583 0.47288 0.22129 0.0
O41 O 0.67624 0.44389 0.23345 0.0
O42 O 0.66754 0.47507 0.32885 0.0
Zn43 Zn 0.64147 0.51302 0.2573 0.0
N44 N 0.67564 0.3838 0.30402 0.0
C45 C 0.69078 0.31348 0.28869 0.0
C46 C 0.68547 0.36024 0.28773 0.0
C47 C 0.67023 0.36264 0.32122 0.0
N48 N 0.68606 0.29227 0.30591 0.0
C49 C 0.6756 0.31549 0.32228 0.0
O50 O 0.71019 0.50609 0.26209 0.0
C51 C 0.73878 0.49018 0.27407 0.0
O52 O 0.72583 0.46902 0.28896 0.0
H53 H 0.68921 0.37779 0.27415 0.0
H54 H 0.66285 0.3826 0.33392 0.0
C55 C 0.65467 0.6072 0.25891 0.0
C56 C 0.65175 0.65051 0.26713 0.0
C57 C 0.59464 0.62414 0.28827 0.0
C58 C 0.59964 0.58068 0.28081 0.0
N59 N 0.62866 0.57338 0.26595 0.0
N60 N 0.62106 0.65789 0.28141 0.0
H61 H 0.67841 0.59963 0.2475 0.0
C62 C 0.67682 0.51605 0.33283 0.0
O63 O 0.68761 0.54372 0.31877 0.0
O64 O 0.63638 0.50643 0.22809 0.0
H65 H 0.58151 0.55289 0.28722 0.0
H66 H 0.69886 0.29419 0.27588 0.0
H67 H 0.57124 0.63065 0.29991 0.0
Zn68 Zn 0.28596 0.8954 0.50573 0.0
C69 C 0.35574 0.8222 0.54496 0.0
N70 N 0.35012 0.78725 0.53298 0.0
C71 C 0.32925 0.80607 0.51773 0.0
N72 N 0.32204 0.85133 0.52037 0.0
N73 N 0.33889 0.8608 0.53765 0.0
C74 C 0.27833 0.92652 0.58204 0.0
O75 O 0.25143 0.93863 0.56787 0.0
O76 O 0.29447 0.89106 0.47673 0.0
Zn77 Zn 0.34812 0.91711 0.55171 0.0
N78 N 0.22383 0.88483 0.51191 0.0
C79 C 0.16689 0.85056 0.53103 0.0
C80 C 0.21222 0.85582 0.52623 0.0
C81 C 0.19234 0.9104 0.50277 0.0
N82 N 0.13536 0.87643 0.52204 0.0
C83 C 0.14684 0.90692 0.50819 0.0
O84 O 0.33081 0.97569 0.53895 0.0
C85 C 0.31159 0.99047 0.52385 0.0
O86 O 0.29551 0.96339 0.51129 0.0
H87 H 0.23792 0.83756 0.53409 0.0
H88 H 0.20315 0.93387 0.49176 0.0
C89 C 0.43131 0.91292 0.57282 0.0
C90 C 0.47849 0.91486 0.57486 0.0
C91 C 0.48505 0.93086 0.54144 0.0
C92 C 0.43826 0.92888 0.53951 0.0
N93 N 0.41242 0.92027 0.55524 0.0
N94 N 0.50402 0.92413 0.55903 0.0
H95 H 0.40962 0.90656 0.58506 0.0
C96 C 0.33305 0.89151 0.46866 0.0
O97 O 0.36949 0.8884 0.4794 0.0
O98 O 0.31918 0.9163 0.57831 0.0
H99 H 0.42248 0.93417 0.52562 0.0
H100 H 0.15693 0.82717 0.54221 0.0
H101 H 0.50616 0.93791 0.52909 0.0
Zn102 Zn 0.88279 0.59941 0.80283 0.0
C103 C 0.99601 0.57847 0.77045 0.0
N104 N 1.01356 0.60021 0.78575 0.0
C105 C 0.97771 0.60691 0.79708 0.0
N106 N 0.93975 0.58975 0.78937 0.0
N107 N 0.95054 0.57177 0.77243 0.0
C108 C 0.88647 0.57666 0.72175 0.0
O109 O 0.86527 0.60294 0.73408 0.0
O110 O 0.88392 0.57352 0.83003 0.0
Zn111 Zn 0.90793 0.53441 0.75745 0.0
N112 N 0.877 0.66406 0.8046 0.0
C113 C 0.86416 0.73374 0.78844 0.0
C114 C 0.86869 0.68686 0.78799 0.0
C115 C 0.88162 0.68614 0.82168 0.0
N116 N 0.86806 0.75586 0.80552 0.0
C117 C 0.87697 0.73345 0.82224 0.0
O118 O 0.83964 0.54102 0.76329 0.0
C119 C 0.8117 0.55705 0.77552 0.0
O120 O 0.82537 0.57839 0.79028 0.0
H121 H 0.86551 0.6686 0.77453 0.0
H122 H 0.88779 0.66682 0.83466 0.0
C123 C 0.89345 0.4402 0.75588 0.0
C124 C 0.89794 0.3951 0.76195 0.0
C125 C 0.95907 0.4167 0.78211 0.0
C126 C 0.95284 0.46164 0.77677 0.0
N127 N 0.92089 0.47231 0.76346 0.0
N128 N 0.93131 0.3846 0.77473 0.0
H129 H 0.86776 0.4503 0.74566 0.0
C130 C 0.87479 0.53256 0.83406 0.0
O131 O 0.8638 0.50475 0.82004 0.0
O132 O 0.91163 0.54519 0.72834 0.0
H133 H 0.9723 0.48785 0.78364 0.0
H134 H 0.85729 0.75241 0.77536 0.0
H135 H 0.98469 0.40756 0.79254 0.0
Zn136 Zn 0.83792 0.94835 0.95046 0.0
C137 C 0.81928 0.83252 0.98121 0.0
N138 N 0.83804 0.81551 0.96513 0.0
C139 C 0.84369 0.85212 0.95416 0.0
N140 N 0.82853 0.89002 0.96277 0.0
N141 N 0.81358 0.87832 0.98013 0.0
C142 C 0.84022 0.94471 0.03136 0.0
O143 O 0.85755 0.97209 0.01845 0.0
O144 O 0.81027 0.95243 0.92347 0.0
Zn145 Zn 0.78511 0.92027 0.99872 0.0
N146 N 0.90233 0.95474 0.94852 0.0
C147 C 0.97225 0.96934 0.96419 0.0
C148 C 0.92554 0.96392 0.96496 0.0
C149 C 0.92381 0.95005 0.93135 0.0
N150 N 0.99377 0.96535 0.94699 0.0
C151 C 0.97091 0.95551 0.93047 0.0
O152 O 0.78555 0.98956 0.99268 0.0
C153 C 0.79802 1.01746 0.9797 0.0
O154 O 0.81683 1.00368 0.96436 0.0
H155 H 0.90774 0.96721 0.97851 0.0
H156 H 0.90414 0.9432 0.91852 0.0
C157 C 0.69226 0.93082 0.99183 0.0
C158 C 0.64593 0.92265 0.99423 0.0
C159 C 0.66387 0.85692 0.01243 0.0
C160 C 0.70972 0.86681 0.01087 0.0
N161 N 0.72284 0.9034 1.00052 0.0
N162 N 0.63313 0.88531 0.00433 0.0
H163 H 0.7044 0.9591 0.9835 0.0
C164 C 0.76792 0.95079 0.92027 0.0
O165 O 0.74028 0.94399 0.93479 0.0
O166 O 0.81116 0.91566 0.02591 0.0
H167 H 0.73459 0.84588 0.018 0.0
H168 H 0.99123 0.97695 0.97712 0.0
H169 H 0.65271 0.82771 0.02048 0.0
Zn170 Zn 0.38349 0.5816 0.70241 0.0
C171 C 0.49739 0.56029 0.73403 0.0
N172 N 0.51533 0.57112 0.71687 0.0
C173 C 0.47891 0.57747 0.70586 0.0
N174 N 0.44027 0.57033 0.71551 0.0
N175 N 0.45124 0.55935 0.7335 0.0
C176 C 0.39237 0.60186 0.78448 0.0
O177 O 0.37339 0.62804 0.77149 0.0
O178 O 0.38534 0.55441 0.67538 0.0
Zn179 Zn 0.40722 0.53696 0.75263 0.0
N180 N 0.37915 0.64622 0.6995 0.0
C181 C 0.36865 0.71895 0.71345 0.0
C182 C 0.37233 0.67215 0.71541 0.0
C183 C 0.38281 0.66505 0.68172 0.0
N184 N 0.37218 0.73785 0.69567 0.0
C185 C 0.37962 0.71218 0.67967 0.0
O186 O 0.33913 0.54 0.74542 0.0
C187 C 0.31171 0.54868 0.73167 0.0
O188 O 0.32588 0.56263 0.71545 0.0
H189 H 0.36955 0.65648 0.72944 0.0
H190 H 0.38751 0.64337 0.66932 0.0
C191 C 0.39044 0.44238 0.75144 0.0
C192 C 0.39761 0.39689 0.75643 0.0
C193 C 0.46633 0.41763 0.77173 0.0
C194 C 0.45794 0.46288 0.76747 0.0
N195 N 0.42055 0.47422 0.7572 0.0
N196 N 0.43592 0.38583 0.76626 0.0
H197 H 0.36106 0.4528 0.74332 0.0
C198 C 0.37613 0.51365 0.67104 0.0
O199 O 0.36413 0.48557 0.68476 0.0
O200 O 0.4118 0.56554 0.77914 0.0
H201 H 0.48052 0.48883 0.77263 0.0
H202 H 0.36292 0.7401 0.72595 0.0
H203 H 0.49617 0.40795 0.77975 0.0
Zn204 Zn 0.7061 0.10532 0.45245 0.0
C205 C 0.73279 0.22126 0.48191 0.0
N206 N 0.7165 0.23832 0.46537 0.0
C207 C 0.70889 0.20131 0.45484 0.0
N208 N 0.72044 0.16318 0.46416 0.0
N209 N 0.73525 0.17517 0.48152 0.0
C210 C 0.70247 0.10708 0.53222 0.0
O211 O 0.68741 0.07865 0.51916 0.0
O212 O 0.73156 0.10126 0.42513 0.0
Zn213 Zn 0.7604 0.13294 0.50066 0.0
N214 N 0.64117 0.10434 0.45083 0.0
C215 C 0.57018 0.12212 0.46502 0.0
C216 C 0.61706 0.11851 0.46637 0.0
C217 C 0.6204 0.09302 0.43405 0.0
N218 N 0.54937 0.1114 0.44817 0.0
C219 C 0.57319 0.09655 0.43261 0.0
O220 O 0.7604 0.06438 0.49381 0.0
C221 C 0.74665 0.03607 0.48119 0.0
O222 O 0.72599 0.04912 0.46615 0.0
H223 H 0.63427 0.12779 0.47955 0.0
H224 H 0.64066 0.08287 0.4218 0.0
C225 C 0.85424 0.12102 0.49698 0.0
C226 C 0.90005 0.12884 0.50091 0.0
C227 C 0.87964 0.19519 0.51821 0.0
C228 C 0.8341 0.18572 0.51514 0.0
N229 N 0.82246 0.14909 0.50443 0.0
N230 N 0.91145 0.16632 0.51126 0.0
H231 H 0.84347 0.09247 0.48843 0.0
C232 C 0.76896 0.08225 0.42095 0.0
O233 O 0.7932 0.06421 0.43484 0.0
O234 O 0.73083 0.13711 0.52715 0.0
H235 H 0.80828 0.20698 0.52143 0.0
H236 H 0.55053 0.13381 0.47719 0.0
H237 H 0.88961 0.22446 0.52654 0.0
Zn238 Zn 0.16464 0.4687 0.20164 0.0
C239 C 0.05289 0.50686 0.23165 0.0
N240 N 0.03552 0.50506 0.21377 0.0
C241 C 0.07128 0.49424 0.20301 0.0
N242 N 0.10917 0.48969 0.21358 0.0
N243 N 0.09824 0.49803 0.23184 0.0
C244 C 0.16955 0.44527 0.28143 0.0
O245 O 0.20013 0.43475 0.26847 0.0
O246 O 0.16681 0.49337 0.17425 0.0
Zn247 Zn 0.1434 0.51012 0.25227 0.0
N248 N 0.15995 0.40386 0.19984 0.0
C249 C 0.13275 0.33426 0.21241 0.0
C250 C 0.14194 0.38022 0.21474 0.0
C251 C 0.17019 0.38332 0.18287 0.0
N252 N 0.14155 0.314 0.19521 0.0
C253 C 0.16034 0.33732 0.18036 0.0
O254 O 0.21124 0.50815 0.24435 0.0
C255 C 0.23842 0.49824 0.23067 0.0
O256 O 0.22383 0.48374 0.21458 0.0
H257 H 0.13358 0.39726 0.22808 0.0
H258 H 0.18347 0.40327 0.17111 0.0
C259 C 0.16191 0.6042 0.25563 0.0
C260 C 0.15576 0.64831 0.26273 0.0
C261 C 0.09017 0.6237 0.27937 0.0
C262 C 0.09731 0.57979 0.27275 0.0
N263 N 0.13273 0.57107 0.26088 0.0
N264 N 0.11954 0.65679 0.27429 0.0
H265 H 0.18947 0.59597 0.24603 0.0
C266 C 0.1709 0.5351 0.17019 0.0
O267 O 0.17552 0.56448 0.18427 0.0
O268 O 0.13784 0.47231 0.27674 0.0
H269 H 0.07508 0.55276 0.27713 0.0
H270 H 0.11786 0.31505 0.22403 0.0
H271 H 0.06191 0.63135 0.2887 0.0
Zn272 Zn 0.71999 0.60845 0.55143 0.0
C273 C 0.75318 0.72164 0.5218 0.0
N274 N 0.74389 0.7393 0.53921 0.0
C275 C 0.73505 0.70267 0.54972 0.0
N276 N 0.73882 0.66425 0.53953 0.0
N277 N 0.74996 0.67556 0.52162 0.0
C278 C 0.69995 0.60464 0.47208 0.0
O279 O 0.69019 0.5737 0.48498 0.0
O280 O 0.74531 0.6046 0.57887 0.0
Zn281 Zn 0.76509 0.63138 0.5012 0.0
N282 N 0.65526 0.61286 0.55313 0.0
C283 C 0.58582 0.63736 0.53932 0.0
C284 C 0.63194 0.62843 0.53761 0.0
C285 C 0.63432 0.60513 0.57022 0.0
N286 N 0.56498 0.6305 0.55651 0.0
C287 C 0.58798 0.61424 0.57202 0.0
O288 O 0.76504 0.56314 0.50884 0.0
C289 C 0.75328 0.53612 0.5223 0.0
O290 O 0.7362 0.55081 0.53789 0.0
H291 H 0.64935 0.63499 0.5242 0.0
H292 H 0.65399 0.59383 0.58246 0.0
C293 C 0.85943 0.61642 0.49776 0.0
C294 C 0.90316 0.6241 0.49066 0.0
C295 C 0.87613 0.68915 0.47421 0.0
C296 C 0.8327 0.68083 0.48103 0.0
N297 N 0.82537 0.64487 0.49278 0.0
N298 N 0.91019 0.66049 0.47903 0.0
H299 H 0.85182 0.58723 0.50652 0.0
C300 C 0.78308 0.5866 0.58326 0.0
O301 O 0.80801 0.56891 0.56951 0.0
O302 O 0.72704 0.63627 0.47671 0.0
H303 H 0.80489 0.70229 0.47673 0.0
H304 H 0.56688 0.6503 0.52717 0.0
H305 H 0.8826 0.71765 0.46486 0.0
Zn306 Zn 0.18251 0.96713 0.80018 0.0
C307 C 0.07011 0.99975 0.76986 0.0
N308 N 0.05215 0.99223 0.78734 0.0
C309 C 0.08852 0.98441 0.79819 0.0
N310 N 0.12711 0.98693 0.78811 0.0
N311 N 0.11618 0.99654 0.76998 0.0
C312 C 0.18686 0.94454 0.7208 0.0
O313 O 0.2177 0.9344 0.73372 0.0
O314 O 0.18663 0.99249 0.82754 0.0
Zn315 Zn 0.161 1.01044 0.74968 0.0
N316 N 0.17774 0.90236 0.802 0.0
C317 C 0.15237 0.83249 0.78892 0.0
C318 C 0.16 0.8788 0.78698 0.0
C319 C 0.18874 0.88154 0.81879 0.0
N320 N 0.16279 0.81168 0.80581 0.0
C321 C 0.18117 0.83493 0.82082 0.0
O322 O 0.22921 1.00937 0.7575 0.0
C323 C 0.25579 0.99821 0.77124 0.0
O324 O 0.24054 0.98234 0.78693 0.0
H325 H 0.15102 0.89607 0.77378 0.0
H326 H 0.20177 0.90148 0.83063 0.0
C327 C 0.17912 0.104 0.74496 0.0
C328 C 0.17271 0.14753 0.73734 0.0
C329 C 0.10455 0.12277 0.72273 0.0
C330 C 0.1121 0.07924 0.7297 0.0
N331 N 0.14887 0.07093 0.74089 0.0
N332 N 0.13506 0.15577 0.7266 0.0
H333 H 0.20796 0.0961 0.75392 0.0
C334 C 0.20448 0.03044 0.83165 0.0
O335 O 0.22144 0.0551 0.81769 0.0
O336 O 0.15555 0.97212 0.72537 0.0
H337 H 0.08926 0.05216 0.72601 0.0
H338 H 0.13783 0.81331 0.77718 0.0
H339 H 0.0752 0.13008 0.71396 0.0
Zn340 Zn 0.78663 0.4213 1.00078 0.0
C341 C 0.79296 0.35229 0.05112 0.0
N342 N 0.7802 0.31671 0.04062 0.0
C343 C 0.7812 0.33277 0.02253 0.0
N344 N 0.79374 0.3772 0.02197 0.0
N345 N 0.80149 0.38886 0.0402 0.0
C346 C 0.76219 0.46699 0.0831 0.0
O347 O 0.73793 0.4844 0.06907 0.0
O348 O 0.82875 0.4136 0.97777 0.0
Zn349 Zn 0.8246 0.44413 0.05164 0.0
N350 N 0.72774 0.41068 0.99014 0.0
C351 C 0.67801 0.3696 0.96974 0.0
C352 C 0.72084 0.376 0.97764 0.0
C353 C 0.69395 0.43965 0.99487 0.0
N354 N 0.64425 0.39889 0.97429 0.0
C355 C 0.6511 0.43429 0.98652 0.0
O356 O 0.80956 0.50251 0.03822 0.0
C357 C 0.79575 0.51703 0.02202 0.0
O358 O 0.78688 0.48978 0.00821 0.0
H359 H 0.74841 0.35375 0.97378 0.0
H360 H 0.70068 0.46644 0.00508 0.0
C361 C 0.91189 0.45078 0.06908 0.0
C362 C 0.95858 0.44276 0.07054 0.0
C363 C 0.95821 0.41249 0.03884 0.0
C364 C 0.9118 0.42023 0.03753 0.0
N365 N 0.88957 0.4388 0.05273 0.0
N366 N 0.98042 0.42348 0.05534 0.0
H367 H 0.89299 0.46456 0.08108 0.0
C368 C 0.85562 0.4454 0.97319 0.0
O369 O 0.86333 0.47769 0.98578 0.0
O370 O 0.80013 0.44891 0.07913 0.0
H371 H 0.89342 0.41073 0.02466 0.0
H372 H 0.67176 0.34194 0.95988 0.0
H373 H 0.97634 0.3973 0.02694 0.0
Zn374 Zn 0.36096 0.07239 0.30165 0.0
C375 C 0.47519 0.04072 0.27158 0.0
N376 N 0.49248 0.04173 0.28946 0.0
C377 C 0.45649 0.05092 0.30036 0.0
N378 N 0.4184 0.05532 0.28986 0.0
N379 N 0.42965 0.04844 0.27151 0.0
C380 C 0.36082 0.10455 0.22227 0.0
O381 O 0.3286 0.11274 0.23481 0.0
O382 O 0.3562 0.04664 0.3289 0.0
Zn383 Zn 0.3857 0.03696 0.25052 0.0
N384 N 0.35819 0.13756 0.30294 0.0
C385 C 0.35062 0.20816 0.28682 0.0
C386 C 0.35482 0.16116 0.28621 0.0
C387 C 0.35774 0.15899 0.32028 0.0
N388 N 0.35042 0.22967 0.30414 0.0
C389 C 0.35441 0.20633 0.32096 0.0
O390 O 0.31724 0.03628 0.25758 0.0
C391 C 0.28982 0.04219 0.27157 0.0
O392 O 0.30396 0.054 0.2881 0.0
H393 H 0.35487 0.14346 0.27256 0.0
H394 H 0.35964 0.13926 0.33338 0.0
C395 C 0.36929 0.94313 0.24579 0.0
C396 C 0.37591 0.89968 0.23807 0.0
C397 C 0.44156 0.92614 0.22202 0.0
C398 C 0.43384 0.96951 0.2292 0.0
N399 N 0.39813 0.97697 0.24107 0.0
N400 N 0.4124 0.89238 0.22652 0.0
H401 H 0.34153 0.95032 0.25542 0.0
C402 C 0.36573 1.00574 0.33297 0.0
O403 O 0.38011 0.97869 0.31924 0.0
O404 O 0.39235 0.07727 0.22689 0.0
H405 H 0.45583 0.99708 0.22523 0.0
H406 H 0.34752 0.22739 0.27363 0.0
H407 H 0.47006 0.91949 0.21268 0.0
Zn408 Zn 0.29221 0.39527 0.50204 0.0
C409 C 0.32466 0.32307 0.45394 0.0
N410 N 0.31946 0.2867 0.46506 0.0
C411 C 0.30993 0.30487 0.48235 0.0
N412 N 0.30934 0.35106 0.48186 0.0
N413 N 0.31852 0.36192 0.46368 0.0
C414 C 0.26522 0.43222 0.42011 0.0
O415 O 0.23842 0.44483 0.43422 0.0
O416 O 0.32936 0.39142 0.52682 0.0
Zn417 Zn 0.33225 0.41879 0.45114 0.0
N418 N 0.23184 0.38073 0.51002 0.0
C419 C 0.18103 0.33594 0.52834 0.0
C420 C 0.22457 0.34473 0.52174 0.0
C421 C 0.19761 0.40881 0.50486 0.0
N422 N 0.14682 0.36427 0.52336 0.0
C423 C 0.1538 0.40073 0.51176 0.0
O424 O 0.3139 0.47628 0.46444 0.0
C425 C 0.29922 0.49063 0.48052 0.0
O426 O 0.29091 0.46337 0.49434 0.0
H427 H 0.2525 0.32364 0.52623 0.0
H428 H 0.20515 0.4381 0.49615 0.0
C429 C 0.41655 0.41293 0.43139 0.0
C430 C 0.4638 0.41439 0.42978 0.0
C431 C 0.46901 0.43 0.46329 0.0
C432 C 0.42208 0.42851 0.4648 0.0
N433 N 0.3969 0.42035 0.4488 0.0
N434 N 0.48874 0.42328 0.44585 0.0
H435 H 0.39539 0.40707 0.41892 0.0
C436 C 0.35487 0.42405 0.53183 0.0
O437 O 0.36363 0.45593 0.51923 0.0
O438 O 0.30554 0.42028 0.42402 0.0
H439 H 0.40572 0.434 0.47855 0.0
H440 H 0.17461 0.30739 0.53766 0.0
H441 H 0.48961 0.43676 0.47585 0.0
Zn442 Zn 0.86223 0.10343 0.20205 0.0
C443 C 0.97396 0.07872 0.23497 0.0
N444 N 0.99247 0.10094 0.22005 0.0
C445 C 0.95731 0.10815 0.20836 0.0
N446 N 0.91881 0.09106 0.21553 0.0
N447 N 0.92858 0.07231 0.2324 0.0
C448 C 0.86772 0.07405 0.28209 0.0
O449 O 0.84991 0.10325 0.27 0.0
O450 O 0.86227 0.07733 0.17481 0.0
Zn451 Zn 0.8849 0.03407 0.24599 0.0
N452 N 0.86075 0.16846 0.20018 0.0
C453 C 0.87721 0.23948 0.2147 0.0
C454 C 0.87402 0.19255 0.21588 0.0
C455 C 0.84971 0.18939 0.1834 0.0
N456 N 0.86675 0.26045 0.19788 0.0
C457 C 0.85267 0.23672 0.18217 0.0
O458 O 0.81661 0.04391 0.24054 0.0
C459 C 0.78916 0.06256 0.22878 0.0
O460 O 0.80361 0.08497 0.21446 0.0
H461 H 0.8829 0.17528 0.2291 0.0
H462 H 0.84005 0.16923 0.17104 0.0
C463 C 0.87 0.93979 0.24494 0.0
C464 C 0.87288 0.89605 0.23712 0.0
C465 C 0.93001 0.92127 0.21573 0.0
C466 C 0.92521 0.96505 0.22284 0.0
N467 N 0.89616 0.97317 0.23761 0.0
N468 N 0.90352 0.88793 0.22289 0.0
H469 H 0.84639 0.94794 0.25632 0.0
C470 C 0.85051 0.03704 0.17074 0.0
O471 O 0.8375 1.0101 0.18471 0.0
O472 O 0.88943 0.04043 0.27522 0.0
H473 H 0.94363 0.99242 0.21626 0.0
H474 H 0.88823 0.25907 0.22701 0.0
H475 H 0.95342 0.91412 0.20415 0.0
Zn476 Zn 0.25715 0.65578 0.00317 0.0
C477 C 0.23619 0.72826 0.95414 0.0
N478 N 0.24568 0.76405 0.96513 0.0
C479 C 0.25004 0.7459 0.98275 0.0
N480 N 0.244 0.70013 0.98258 0.0
N481 N 0.23515 0.68947 0.96431 0.0
C482 C 0.28687 0.64077 0.92082 0.0
O483 O 0.31287 0.65761 0.93438 0.0
O484 O 0.21759 0.66069 0.02712 0.0
Zn485 Zn 0.22003 0.632 0.95207 0.0
N486 N 0.31699 0.66874 0.01227 0.0
C487 C 0.36817 0.71062 0.0317 0.0
C488 C 0.32457 0.70329 0.02477 0.0
C489 C 0.35086 0.64073 0.00666 0.0
N490 N 0.40198 0.68214 0.02634 0.0
C491 C 0.39448 0.6468 0.01415 0.0
O492 O 0.23879 0.57475 0.96535 0.0
C493 C 0.25205 0.56039 0.98164 0.0
O494 O 0.25881 0.58762 0.99564 0.0
H495 H 0.29696 0.72462 0.02942 0.0
H496 H 0.34352 0.61396 0.99653 0.0
C497 C 0.13483 0.6299 0.93262 0.0
C498 C 0.08755 0.62841 0.93143 0.0
C499 C 0.08365 0.62266 0.96549 0.0
C500 C 0.13063 0.62538 0.96662 0.0
N501 N 0.15519 0.62895 0.95016 0.0
N502 N 0.06319 0.62424 0.94796 0.0
H503 H 0.15537 0.63197 0.91976 0.0
C504 C 0.19169 0.62807 0.03168 0.0
O505 O 0.18387 0.59628 0.01888 0.0
O506 O 0.2469 0.6284 0.92499 0.0
H507 H 0.14751 0.62444 0.98045 0.0
H508 H 0.37495 0.7382 0.04153 0.0
H509 H 0.06359 0.61949 0.97844 0.0
Zn510 Zn 0.65923 1.01602 0.74584 0.0
C511 C 0.59016 0.93585 0.70907 0.0
N512 N 0.5547 0.94259 0.72065 0.0
C513 C 0.57223 0.96675 0.73529 0.0
N514 N 0.61723 0.97486 0.73268 0.0
N515 N 0.62781 0.95518 0.71608 0.0
C516 C 0.69184 1.01453 0.67129 0.0
O517 O 0.70303 0.04201 0.6854 0.0
O518 O 0.65452 1.01441 0.77515 0.0
Zn519 Zn 0.68452 0.94695 0.70225 0.0
N520 N 0.64764 0.07568 0.73605 0.0
C521 C 0.61196 0.12548 0.71384 0.0
C522 C 0.6167 0.08258 0.72187 0.0
C523 C 0.6755 0.10933 0.74192 0.0
N524 N 0.64012 0.15908 0.71955 0.0
C525 C 0.67249 0.15205 0.73319 0.0
O526 O 0.74197 0.9681 0.71473 0.0
C527 C 0.75557 0.9898 0.7294 0.0
O528 O 0.72756 1.00686 0.74134 0.0
H529 H 0.59689 0.05482 0.71642 0.0
H530 H 0.70045 0.10215 0.75291 0.0
C531 C 0.68808 0.86066 0.68311 0.0
C532 C 0.69424 0.81355 0.68243 0.0
C533 C 0.70542 0.81285 0.71631 0.0
C534 C 0.69952 0.85957 0.71689 0.0
N535 N 0.69136 0.88249 0.70029 0.0
N536 N 0.70306 0.79101 0.69912 0.0
H537 H 0.68197 0.88003 0.67014 0.0
C538 C 0.65009 0.97796 0.78471 0.0
O539 O 0.64169 0.94014 0.77544 0.0
O540 O 0.68271 0.9735 0.67516 0.0
H541 H 0.70165 0.87765 0.73043 0.0
H542 H 0.58716 0.13166 0.70268 0.0
H543 H 0.71223 0.79411 0.72938 0.0
H544 H 0.24112 0.10924 0.84554 0.0
H545 H 0.16023 0.06752 0.95418 0.0
H546 H 0.17034 0.98955 0.86407 0.0
H547 H 0.26043 0.16721 0.93917 0.0
H548 H 0.15595 0.0448 0.92041 0.0
H549 H 0.24195 0.13617 0.87894 0.0
C550 C 0.22564 0.08862 0.85659 0.0
C551 C 0.20544 0.04707 0.8519 0.0
C552 C 0.17877 0.07176 0.92447 0.0
C553 C 0.20599 0.07804 0.89021 0.0
C554 C 0.1811 0.085 0.94377 0.0
C555 C 0.2109 0.11932 0.94963 0.0
C556 C 0.20621 0.09307 0.91073 0.0
C557 C 0.23703 0.14058 0.93538 0.0
C558 C 0.22617 0.10407 0.87567 0.0
C559 C 0.18603 1.02189 0.86691 0.0
N560 N 0.23413 0.12706 0.91661 0.0
N561 N 0.18663 0.03783 0.88533 0.0
H562 H 0.68825 0.51204 0.09735 0.0
H563 H 0.71302 0.41085 0.20377 0.0
H564 H 0.79676 0.42346 0.11482 0.0
H565 H 0.62947 0.52689 0.19115 0.0
H566 H 0.73685 0.40865 0.17016 0.0
H567 H 0.66015 0.51222 0.13056 0.0
C568 C 0.70616 0.49254 0.10814 0.0
C569 C 0.745 0.46767 0.10323 0.0
C570 C 0.71319 0.43453 0.17469 0.0
C571 C 0.71263 0.46745 0.14129 0.0
C572 C 0.69929 0.43571 0.19391 0.0
C573 C 0.6692 0.46925 0.2004 0.0
C574 C 0.69673 0.46688 0.16167 0.0
C575 C 0.65273 0.50048 0.18684 0.0
C576 C 0.69008 0.49275 0.12711 0.0
C577 C 0.76674 0.44311 0.11788 0.0
N578 N 0.66673 0.49856 0.16812 0.0
N579 N 0.75018 0.44348 0.13618 0.0
H580 H 0.31269 0.03957 0.36196 0.0
H581 H 0.40525 0.87793 0.44453 0.0
H582 H 0.40852 0.93341 0.34958 0.0
H583 H 0.27045 0.93355 0.44576 0.0
H584 H 0.41349 0.90487 0.41123 0.0
H585 H 0.30377 1.00922 0.39463 0.0
C586 C 0.33198 1.01 0.36614 0.0
C587 C 0.36114 0.98878 0.35298 0.0
C588 C 0.38202 0.91079 0.41878 0.0
C589 C 0.35147 0.95425 0.39038 0.0
C590 C 0.37727 0.89543 0.43775 0.0
C591 C 0.33702 0.90329 0.44793 0.0
C592 C 0.34671 0.93517 0.41008 0.0
C593 C 0.30193 0.92637 0.43843 0.0
C594 C 0.32668 0.99257 0.38473 0.0
C595 C 0.38533 0.95054 0.3592 0.0
N596 N 0.30778 0.94195 0.42015 0.0
N597 N 0.38021 0.93467 0.37749 0.0
H598 H 0.74213 0.62332 0.61521 0.0
H599 H 0.92273 0.52859 0.69123 0.0
H600 H 0.86048 0.54822 0.59787 0.0
H601 H 0.82492 0.63244 0.7045 0.0
H602 H 0.89891 0.53167 0.6573 0.0
H603 H 0.76961 0.62264 0.64846 0.0
C604 C 0.77398 0.60683 0.61834 0.0
C605 C 0.79911 0.58607 0.60362 0.0
C606 C 0.88293 0.55395 0.66765 0.0
C607 C 0.83072 0.58482 0.64185 0.0
C608 C 0.89657 0.55226 0.68702 0.0
C609 C 0.87585 0.58026 0.70081 0.0
C610 C 0.84794 0.58345 0.66207 0.0
C611 C 0.84198 0.61018 0.69447 0.0
C612 C 0.78972 0.6065 0.63737 0.0
C613 C 0.83998 0.56481 0.6087 0.0
N614 N 0.82893 0.61071 0.67567 0.0
N615 N 0.85441 0.5646 0.62736 0.0
H616 H 0.89247 1.01081 0.04757 0.0
H617 H 0.82391 0.95445 0.15664 0.0
H618 H 0.80601 0.89912 0.06278 0.0
H619 H 0.88015 0.082 0.13853 0.0
H620 H 0.82565 0.92846 0.12311 0.0
H621 H 0.89802 0.03112 0.08159 0.0
C622 C 0.87503 0.99015 0.05806 0.0
C623 C 0.84846 0.95329 0.05221 0.0
C624 C 0.83774 0.96207 0.1265 0.0
C625 C 0.85451 0.97676 0.09137 0.0
C626 C 0.83679 0.97698 0.14566 0.0
C627 C 0.8519 1.02056 0.15048 0.0
C628 C 0.85431 0.99074 0.11202 0.0
C629 C 0.86822 0.04814 0.13557 0.0
C630 C 0.87804 1.002 0.07752 0.0
C631 C 0.82676 0.92788 0.06658 0.0
N632 N 0.86906 0.03276 0.11707 0.0
N633 N 0.83009 0.9402 0.08547 0.0
H634 H 0.34733 0.6957 0.90242 0.0
H635 H 0.38482 0.53769 0.81245 0.0
H636 H 0.2648 0.57748 0.8937 0.0
H637 H 0.3759 0.6818 0.80359 0.0
H638 H 0.35936 0.54836 0.84574 0.0
H639 H 0.37526 0.68831 0.86914 0.0
C640 C 0.33523 0.66815 0.89353 0.0
C641 C 0.30368 0.63714 0.90078 0.0
C642 C 0.36343 0.57761 0.83652 0.0
C643 C 0.3364 0.6279 0.86313 0.0
C644 C 0.37834 0.57168 0.8176 0.0
C645 C 0.38258 0.60899 0.80522 0.0
C646 C 0.35383 0.62121 0.84333 0.0
C647 C 0.37306 0.65218 0.81265 0.0
C648 C 0.35104 0.66411 0.87459 0.0
C649 C 0.28895 0.60218 0.88864 0.0
N650 N 0.35941 0.65721 0.83131 0.0
N651 N 0.30592 0.5981 0.87049 0.0
H652 H 0.7135 0.0988 0.65756 0.0
H653 H 0.6522 0.03892 0.54794 0.0
H654 H 0.66558 0.96819 0.63885 0.0
H655 H 0.73246 0.15474 0.56392 0.0
H656 H 0.64597 1.01861 0.58192 0.0
H657 H 0.71112 0.12489 0.62407 0.0
C658 C 0.70229 0.07563 0.64645 0.0
C659 C 0.68975 0.03116 0.65109 0.0
C660 C 0.6647 0.04864 0.57802 0.0
C661 C 0.68658 0.06106 0.6127 0.0
C662 C 0.66808 0.06049 0.55859 0.0
C663 C 0.6932 0.0985 0.55297 0.0
C664 C 0.68638 0.07505 0.59207 0.0
C665 C 0.7129 0.12507 0.56753 0.0
C666 C 0.70096 0.09059 0.62733 0.0
C667 C 0.67549 1.00275 0.63603 0.0
N668 N 0.70927 0.11271 0.58639 0.0
N669 N 0.67424 1.01819 0.61756 0.0
H670 H 0.2389 0.39527 0.29661 0.0
H671 H 0.18114 0.45558 0.40658 0.0
H672 H 0.12096 0.47172 0.31343 0.0
H673 H 0.31065 0.40551 0.38749 0.0
H674 H 0.15416 0.45307 0.37322 0.0
H675 H 0.26012 0.38845 0.33049 0.0
C676 C 0.21703 0.4101 0.30742 0.0
C677 C 0.17817 0.43442 0.30206 0.0
C678 C 0.18842 0.44249 0.37635 0.0
C679 C 0.20275 0.42709 0.34106 0.0
C680 C 0.20392 0.44394 0.39541 0.0
C681 C 0.24831 0.43076 0.39991 0.0
C682 C 0.21737 0.42744 0.36163 0.0
C683 C 0.27617 0.41596 0.38476 0.0
C684 C 0.2294 0.40642 0.3268 0.0
C685 C 0.15125 0.45276 0.31683 0.0
N686 N 0.26024 0.41465 0.36636 0.0
N687 N 0.1642 0.44899 0.33562 0.0
H688 H 0.69858 0.60024 0.34674 0.0
H689 H 0.64962 0.5356 0.45697 0.0
H690 H 0.65263 0.46895 0.36531 0.0
H691 H 0.72298 0.65518 0.4402 0.0
H692 H 0.63967 0.51638 0.423 0.0
H693 H 0.6983 0.62556 0.38037 0.0
C694 C 0.68822 0.57676 0.35785 0.0
C695 C 0.67568 0.53231 0.35312 0.0
C696 C 0.65764 0.54702 0.42673 0.0
C697 C 0.67498 0.56132 0.39172 0.0
C698 C 0.66313 0.55824 0.44616 0.0
C699 C 0.68751 0.59697 0.45154 0.0
C700 C 0.67652 0.57473 0.41243 0.0
C701 C 0.70408 0.62493 0.43678 0.0
C702 C 0.68808 0.59129 0.37706 0.0
C703 C 0.66253 0.50351 0.3682 0.0
N704 N 0.69855 0.61311 0.41793 0.0
N705 N 0.66253 0.51849 0.38676 0.0
H706 H 0.1939 0.94863 0.59559 0.0
H707 H 0.25546 0.89348 0.70566 0.0
H708 H 0.3242 0.90024 0.61455 0.0
H709 H 0.13683 0.96899 0.68893 0.0
H710 H 0.27515 0.88457 0.67171 0.0
H711 H 0.16757 0.94675 0.62906 0.0
C712 C 0.21694 0.9374 0.60674 0.0
C713 C 0.2614 0.92462 0.60219 0.0
C714 C 0.2446 0.90278 0.67544 0.0
C715 C 0.23127 0.92206 0.64055 0.0
C716 C 0.23311 0.90766 0.69486 0.0
C717 C 0.19456 0.93239 0.70025 0.0
C718 C 0.21735 0.92265 0.66118 0.0
C719 C 0.16695 0.94981 0.6855 0.0
C720 C 0.20184 0.93633 0.62585 0.0
C721 C 0.28965 0.91035 0.61731 0.0
N722 N 0.17906 0.94491 0.66667 0.0
N723 N 0.27412 0.90945 0.63575 0.0
H724 H 0.90648 0.51383 0.95797 0.0
H725 H 0.85318 0.44858 0.84809 0.0
H726 H 0.83346 0.39366 0.94151 0.0
H727 H 0.90136 0.57946 0.86631 0.0
H728 H 0.85535 0.42321 0.88167 0.0
H729 H 0.91602 0.53252 0.92395 0.0
C730 C 0.89302 0.49092 0.94723 0.0
C731 C 0.86874 0.45224 0.9527 0.0
C732 C 0.86563 0.4574 0.8783 0.0
C733 C 0.87914 0.47392 0.91355 0.0
C734 C 0.86439 0.47197 0.85911 0.0
C735 C 0.87693 0.51634 0.85432 0.0
C736 C 0.8798 0.48728 0.89284 0.0
C737 C 0.89126 0.54501 0.86928 0.0
C738 C 0.89825 0.50184 0.92776 0.0
C739 C 0.85228 0.42389 0.93802 0.0
N740 N 0.89224 0.53002 0.88782 0.0
N741 N 0.85744 0.4355 0.91915 0.0
H742 H 0.3592 0.10418 0.09735 0.0
H743 H 0.29394 0.15787 0.20714 0.0
H744 H 0.23158 0.16142 0.11508 0.0
H745 H 0.41267 0.08222 0.19068 0.0
H746 H 0.27654 0.16979 0.17312 0.0
H747 H 0.38431 0.1052 0.13098 0.0
C748 C 0.33654 0.11725 0.10827 0.0
C749 C 0.29305 0.13245 0.10334 0.0
C750 C 0.30665 0.15095 0.17693 0.0
C751 C 0.32175 0.13385 0.14194 0.0
C752 C 0.3168 0.14431 0.1964 0.0
C753 C 0.35467 0.11862 0.20186 0.0
C754 C 0.33451 0.1318 0.16271 0.0
C755 C 0.38302 0.10208 0.1872 0.0
C756 C 0.35092 0.11779 0.12749 0.0
C757 C 0.26528 0.14912 0.11816 0.0
N758 N 0.37214 0.1086 0.16832 0.0
N759 N 0.28004 0.14923 0.13675 0.0
H760 H 0.40494 0.56125 0.63941 0.0
H761 H 0.33337 0.37107 0.56316 0.0
H762 H 0.35236 0.43104 0.65604 0.0
H763 H 0.40193 0.49444 0.54773 0.0
H764 H 0.34312 0.39039 0.59726 0.0
H765 H 0.40648 0.53603 0.60587 0.0
C766 C 0.39383 0.52728 0.63604 0.0
C767 C 0.37837 0.49829 0.65063 0.0
C768 C 0.35647 0.41298 0.58641 0.0
C769 C 0.37963 0.46922 0.61206 0.0
C770 C 0.35108 0.40186 0.56691 0.0
C771 C 0.3666 0.43126 0.55248 0.0
C772 C 0.37727 0.45397 0.59157 0.0
C773 C 0.38919 0.47077 0.55829 0.0
C774 C 0.39477 0.51285 0.61685 0.0
C775 C 0.36446 0.45462 0.64531 0.0
N776 N 0.39342 0.48113 0.57732 0.0
N777 N 0.36512 0.44155 0.62647 0.0
H778 H 0.81059 0.13389 0.29954 0.0
H779 H 0.84624 0.04265 0.40686 0.0
H780 H 0.89974 1.0222 0.31234 0.0
H781 H 0.72882 0.11812 0.38868 0.0
H782 H 0.8728 0.04149 0.3734 0.0
H783 H 0.78788 0.13627 0.33328 0.0
C784 C 0.82577 0.11002 0.30946 0.0
C785 C 0.85712 0.07765 0.30299 0.0
C786 C 0.84129 0.05837 0.37678 0.0
C787 C 0.83094 0.08028 0.34188 0.0
C788 C 0.82607 0.05913 0.39588 0.0
C789 C 0.78533 0.0809 0.40069 0.0
C790 C 0.81591 0.07999 0.36237 0.0
C791 C 0.76066 0.10146 0.38577 0.0
C792 C 0.8125 0.11129 0.32875 0.0
C793 C 0.87543 0.04766 0.31664 0.0
N794 N 0.77644 0.10072 0.36735 0.0
N795 N 0.86209 0.04971 0.33545 0.0
H796 H 0.21017 0.68137 0.06331 0.0
H797 H 0.14824 0.48584 0.1381 0.0
H798 H 0.14621 0.55605 0.04695 0.0
H799 H 0.18898 0.61957 0.15584 0.0
H800 H 0.14601 0.51169 0.10467 0.0
H801 H 0.20044 0.66093 0.09726 0.0
C802 C 0.19343 0.64992 0.06682 0.0
C803 C 0.17928 0.62029 0.05218 0.0
C804 C 0.15533 0.53548 0.11586 0.0
C805 C 0.16875 0.59629 0.09108 0.0
C806 C 0.15678 0.52065 0.13498 0.0
C807 C 0.16909 0.55049 0.14983 0.0
C808 C 0.16691 0.58036 0.11144 0.0
C809 C 0.17945 0.59532 0.14487 0.0
C810 C 0.18805 0.63817 0.08624 0.0
C811 C 0.15788 0.57993 0.05768 0.0
N812 N 0.17848 0.60878 0.12611 0.0
N813 N 0.15376 0.56893 0.07663 0.0
H814 H 0.80883 0.98925 0.88888 0.0
H815 H 0.62492 0.91548 0.81182 0.0
H816 H 0.68607 0.92253 0.90626 0.0
H817 H 0.70452 0.03626 0.80473 0.0
H818 H 0.65232 0.90945 0.84518 0.0
H819 H 0.77753 0.998 0.85631 0.0
C820 C 0.77538 0.9763 0.88584 0.0
C821 C 0.74995 0.95532 0.90036 0.0
C822 C 0.66341 0.93745 0.83634 0.0
C823 C 0.71423 0.96474 0.86307 0.0
C824 C 0.64779 0.94095 0.81733 0.0
C825 C 0.66224 0.97656 0.80549 0.0
C826 C 0.69466 0.96909 0.8434 0.0
C827 C 0.69213 1.00849 0.81337 0.0
C828 C 0.75747 0.98154 0.86729 0.0
C829 C 0.70673 0.93921 0.89556 0.0
N830 N 0.7078 1.00367 0.83172 0.0
N831 N 0.69038 0.9439 0.87731 0.0
H832 H 0.23552 0.34064 0.15773 0.0
H833 H 0.12001 0.2405 0.06447 0.0
H834 H 0.10162 0.28393 0.16037 0.0
H835 H 0.26379 0.2345 0.07351 0.0
H836 H 0.11018 0.2629 0.09845 0.0
H837 H 0.24503 0.3078 0.12557 0.0
C838 C 0.20821 0.32114 0.15151 0.0
C839 C 0.16767 0.31508 0.16157 0.0
C840 C 0.14376 0.25567 0.09307 0.0
C841 C 0.17801 0.27807 0.12482 0.0
C842 C 0.14927 0.24291 0.07379 0.0
C843 C 0.19259 0.23457 0.06658 0.0
C844 C 0.18198 0.26087 0.10489 0.0
C845 C 0.22978 0.23957 0.07885 0.0
C846 C 0.21369 0.30226 0.13325 0.0
C847 C 0.13342 0.28919 0.15301 0.0
N848 N 0.22369 0.25261 0.09742 0.0
N849 N 0.13907 0.2721 0.13495 0.0
H850 H 0.58228 0.49514 0.32447 0.0
H851 H 0.44144 0.35832 0.39947 0.0
H852 H 0.54489 0.35751 0.31237 0.0
H853 H 0.53817 0.45919 0.41712 0.0
H854 H 0.47555 0.35747 0.36731 0.0
H855 H 0.56305 0.48381 0.35833 0.0
C856 C 0.57175 0.4619 0.32921 0.0
C857 C 0.56752 0.42644 0.31602 0.0
C858 C 0.48958 0.37932 0.37833 0.0
C859 C 0.54252 0.41395 0.35435 0.0
C860 C 0.4699 0.38016 0.39661 0.0
C861 C 0.48645 0.40957 0.41087 0.0
C862 C 0.52543 0.40869 0.37423 0.0
C863 C 0.52414 0.43628 0.40651 0.0
C864 C 0.56026 0.45559 0.34844 0.0
C865 C 0.54999 0.38512 0.32239 0.0
N866 N 0.54187 0.4358 0.38847 0.0
N867 N 0.53777 0.37999 0.34119 0.0
H868 H 0.29616 0.83131 0.57379 0.0
H869 H 0.4343 0.68962 0.6491 0.0
H870 H 0.43306 0.79089 0.56197 0.0
H871 H 0.33158 0.7847 0.66669 0.0
H872 H 0.4335 0.72281 0.61681 0.0
H873 H 0.30669 0.81098 0.60764 0.0
C874 C 0.32905 0.81978 0.5786 0.0
C875 C 0.36461 0.81506 0.56551 0.0
C876 C 0.41152 0.73663 0.62782 0.0
C877 C 0.37615 0.78902 0.60378 0.0
C878 C 0.41163 0.71747 0.64618 0.0
C879 C 0.38235 0.73389 0.6605 0.0
C880 C 0.38133 0.77188 0.62366 0.0
C881 C 0.35445 0.77081 0.65604 0.0
C882 C 0.33491 0.8077 0.59781 0.0
C883 C 0.40542 0.79639 0.57192 0.0
N884 N 0.35409 0.78812 0.63791 0.0
N885 N 0.4101 0.78373 0.59068 0.0
H886 H 1.01502 0.57912 0.91959 0.0
H887 H 1.00383 0.68632 0.81386 0.0
H888 H 0.10648 0.68336 0.9007 0.0
H889 H 0.97006 0.5479 0.8262 0.0
H890 H 0.02492 0.69689 0.84799 0.0
H891 H 0.98033 0.57901 0.88747 0.0
C892 C 0.02747 0.60225 0.90873 0.0
C893 C 0.06425 0.63057 0.91261 0.0
C894 C 1.0118 0.66457 0.84326 0.0
C895 C 0.02435 0.63123 0.87616 0.0
C896 C 0.99959 0.65869 0.82393 0.0
C897 C 0.98335 0.6168 0.81763 0.0
C898 C 1.00775 0.62816 0.85613 0.0
C899 C 0.9802 0.58133 0.83087 0.0
C900 C 1.00775 0.60213 0.89046 0.0
C901 C 0.07893 0.66019 0.89811 0.0
N902 N 0.99204 0.58781 0.84955 0.0
N903 N 0.05898 0.6597 0.88046 0.0
H904 H 0.82813 0.80797 0.832 0.0
H905 H 0.92474 0.82605 0.93938 0.0
H906 H 0.93048 0.71773 0.85417 0.0
H907 H 0.78897 0.86215 0.92353 0.0
H908 H 0.93937 0.80362 0.90573 0.0
H909 H 0.82633 0.84666 0.86318 0.0
C910 C 0.85056 0.79657 0.84335 0.0
C911 C 0.87878 0.75895 0.84061 0.0
C912 C 0.90685 0.81786 0.90955 0.0
C913 C 0.8772 0.80336 0.87616 0.0
C914 C 0.89868 0.83094 0.9286 0.0
C915 C 0.85632 0.84816 0.93382 0.0
C916 C 0.87226 0.82205 0.89579 0.0
C917 C 0.82289 0.85205 0.91968 0.0
C918 C 0.84941 0.8186 0.86112 0.0
C919 C 0.90734 0.74582 0.8558 0.0
N920 N 0.83155 0.83923 0.90126 0.0
N921 N 0.90568 0.76791 0.87299 0.0
H922 H 0.53029 0.67274 0.5899 0.0
H923 H 0.48724 0.51039 0.67992 0.0
H924 H 0.59253 0.54161 0.59615 0.0
H925 H 0.4832 0.65542 0.68507 0.0
H926 H 0.50767 0.5181 0.64581 0.0
H927 H 0.49542 0.66357 0.62184 0.0
C928 C 0.53616 0.64188 0.59793 0.0
C929 C 0.56462 0.60806 0.59059 0.0
C930 C 0.50164 0.54823 0.65433 0.0
C931 C 0.52447 0.59712 0.62665 0.0
C932 C 0.48964 0.54383 0.67364 0.0
C933 C 0.48261 0.58238 0.68496 0.0
C934 C 0.50685 0.59151 0.6464 0.0
C935 C 0.48729 0.62503 0.67652 0.0
C936 C 0.51643 0.63677 0.61609 0.0
C937 C 0.5713 0.56872 0.60148 0.0
N938 N 0.49922 0.62854 0.65766 0.0
N939 N 0.55129 0.56427 0.61897 0.0
H940 H 0.61959 0.33238 0.35323 0.0
H941 H 0.76458 0.18669 0.42484 0.0
H942 H 0.72525 0.24275 0.33355 0.0
H943 H 0.62923 0.22826 0.43905 0.0
H944 H 0.75081 0.2071 0.39119 0.0
H945 H 0.6218 0.29537 0.38473 0.0
C946 C 0.6432 0.30491 0.35551 0.0
C947 C 0.67299 0.29122 0.34087 0.0
C948 C 0.72359 0.21057 0.40152 0.0
C949 C 0.67547 0.24873 0.37678 0.0
C950 C 0.73135 0.19852 0.42063 0.0
C951 C 0.69736 0.20428 0.43438 0.0
C952 C 0.68197 0.22982 0.39631 0.0
C953 C 0.65573 0.22227 0.4286 0.0
C954 C 0.6441 0.28351 0.37343 0.0
C955 C 0.70196 0.25459 0.34448 0.0
N956 N 0.64922 0.23483 0.40995 0.0
N957 N 0.703 0.23509 0.36217 0.0
H958 H 0.02486 0.39235 0.0876 0.0
H959 H 0.04955 0.55964 0.1777 0.0
H960 H 0.94968 0.51651 0.09419 0.0
H961 H 0.08049 0.41766 0.18125 0.0
H962 H 0.0299 0.54995 0.14363 0.0
H963 H 0.06202 0.40693 0.11868 0.0
C964 C 1.01651 0.42285 0.09551 0.0
C965 C 0.98357 0.45287 0.08852 0.0
C966 C 0.04184 0.52105 0.15175 0.0
C967 C 0.02618 0.46992 0.12377 0.0
C968 C 0.05328 0.52663 0.17109 0.0
C969 C 0.06773 0.48956 0.182 0.0
C970 C 0.04431 0.4779 0.14337 0.0
C971 C 0.07122 0.44727 0.17303 0.0
C972 C 0.03758 0.43102 0.11322 0.0
C973 C 0.9741 0.49196 0.09926 0.0
N974 N 0.05936 0.44245 0.15418 0.0
N975 N 0.99523 0.4993 0.11636 0.0
H976 H 0.65283 0.72187 0.56493 0.0
H977 H 0.74899 0.74374 0.67221 0.0
H978 H 0.79111 0.69407 0.58021 0.0
H979 H 0.63949 0.82619 0.65076 0.0
H980 H 0.75409 0.7069 0.64067 0.0
H981 H 0.6371 0.7416 0.59877 0.0
C982 C 0.67946 0.71886 0.57558 0.0
C983 C 0.72302 0.70565 0.57011 0.0
C984 C 0.72868 0.73272 0.64298 0.0
C985 C 0.70582 0.72873 0.60831 0.0
C986 C 0.72567 0.75369 0.66093 0.0
C987 C 0.69441 0.78867 0.66395 0.0
C988 C 0.69963 0.74623 0.62807 0.0
C989 C 0.66484 0.80013 0.64887 0.0
C990 C 0.67063 0.73035 0.59474 0.0
C991 C 0.75691 0.70332 0.58411 0.0
N992 N 0.66828 0.77903 0.63151 0.0
N993 N 0.74764 0.71486 0.60263 0.0
H994 H 0.10038 0.04308 0.82758 0.0
H995 H 0.95546 0.8994 0.89949 0.0
H996 H 0.06415 0.90534 0.81488 0.0
H997 H 0.04296 1.00622 0.91943 0.0
H998 H 0.99347 0.90119 0.86823 0.0
H999 H 0.07895 0.03114 0.86132 0.0
C1000 C 0.08914 1.00993 0.83213 0.0
C1001 C 0.08498 0.97473 0.81879 0.0
C1002 C 1.00465 0.92388 0.87953 0.0
C1003 C 0.05871 0.96129 0.85687 0.0
C1004 C 0.98269 0.92317 0.89731 0.0
C1005 C 0.99555 0.95329 0.91196 0.0
C1006 C 0.03912 0.95546 0.87629 0.0
C1007 C 0.0318 0.98264 0.90847 0.0
C1008 C 0.07669 1.00316 0.85128 0.0
C1009 C 0.06861 0.93288 0.825 0.0
N1010 N 0.05186 0.98353 0.89088 0.0
N1011 N 0.05556 0.92735 0.84363 0.0
H1012 H 0.89789 0.3075 0.16611 0.0
H1013 H 0.7291 0.32807 0.07665 0.0
H1014 H 0.78214 0.22142 0.15755 0.0
H1015 H 0.86944 0.36436 0.07252 0.0
H1016 H 0.74092 0.30667 0.11039 0.0
H1017 H 0.88084 0.3454 0.13541 0.0
C1018 C 0.86876 0.29683 0.15782 0.0
C1019 C 0.84178 0.26085 0.16414 0.0
C1020 C 0.76892 0.32028 0.10222 0.0
C1021 C 0.82176 0.30436 0.12948 0.0
C1022 C 0.76211 0.33277 0.08309 0.0
C1023 C 0.79817 0.34903 0.07209 0.0
C1024 C 0.81223 0.32369 0.11029 0.0
C1025 C 0.84056 0.35366 0.08082 0.0
C1026 C 0.85916 0.31835 0.14037 0.0
C1027 C 0.80433 0.24838 0.15297 0.0
N1028 N 0.84658 0.34079 0.09947 0.0
N1029 N 0.79541 0.27014 0.13618 0.0
H1030 H 0.58901 0.0262 0.40786 0.0
H1031 H 0.44264 0.12523 0.32285 0.0
H1032 H 0.50303 0.14251 0.41622 0.0
H1033 H 0.48511 0.98618 0.32472 0.0
H1034 H 0.46347 0.13335 0.357 0.0
H1035 H 0.55182 1.01181 0.37702 0.0
C1036 C 0.5623 0.04873 0.40316 0.0
C1037 C 0.54944 0.08596 0.41443 0.0
C1038 C 0.46673 0.1007 0.35009 0.0
C1039 C 0.50671 0.06971 0.3792 0.0
C1040 C 0.45419 0.09597 0.33076 0.0
C1041 C 0.46044 0.05459 0.32137 0.0
C1042 C 0.48681 0.06409 0.35976 0.0
C1043 C 0.47907 1.01841 0.33169 0.0
C1044 C 0.5408 0.04029 0.38565 0.0
C1045 C 0.51398 0.11353 0.40788 0.0
N1046 N 0.49189 1.02403 0.35032 0.0
N1047 N 0.49422 0.10525 0.39053 0.0
H1048 H 0.26409 0.33264 0.42504 0.0
H1049 H 0.41051 0.19256 0.35158 0.0
H1050 H 0.40296 0.29884 0.43655 0.0
H1051 H 0.29981 0.27595 0.33236 0.0
H1052 H 0.40751 0.2296 0.3831 0.0
H1053 H 0.27495 0.31134 0.39116 0.0
C1054 C 0.29727 0.32216 0.42019 0.0
C1055 C 0.33321 0.31904 0.43322 0.0
C1056 C 0.3841 0.24009 0.37195 0.0
C1057 C 0.34534 0.29246 0.39501 0.0
C1058 C 0.38555 0.21866 0.35406 0.0
C1059 C 0.35482 0.23067 0.33956 0.0
C1060 C 0.3511 0.27322 0.37546 0.0
C1061 C 0.32384 0.26553 0.34327 0.0
C1062 C 0.30339 0.30968 0.40096 0.0
C1063 C 0.37489 0.30285 0.42667 0.0
N1064 N 0.32224 0.28515 0.361 0.0
N1065 N 0.37978 0.28975 0.40801 0.0
H1066 H 0.94646 0.05011 0.17908 0.0
H1067 H 0.10224 0.17898 0.10736 0.0
H1068 H 0.99011 0.18547 0.19203 0.0
H1069 H 0.99983 0.08691 0.08692 0.0
H1070 H 0.06575 0.18023 0.13888 0.0
H1071 H 0.96925 0.06059 0.14555 0.0
C1072 C 0.9591 0.08278 0.17457 0.0
C1073 C 0.96426 0.11787 0.1879 0.0
C1074 C 0.05107 0.16019 0.1274 0.0
C1075 C 0.99321 0.12914 0.15004 0.0
C1076 C 0.07208 0.15913 0.10942 0.0
C1077 C 0.0544 0.13238 0.09446 0.0
C1078 C 1.01273 0.13353 0.13057 0.0
C1079 C 1.01476 0.10786 0.09802 0.0
C1080 C 0.97262 0.08855 0.15555 0.0
C1081 C 0.98428 0.15828 0.18187 0.0
N1082 N 0.99565 0.10845 0.11581 0.0
N1083 N 0.99844 0.16281 0.16331 0.0
H1084 H 0.29961 0.75545 0.92902 0.0
H1085 H 0.13127 0.77002 0.83893 0.0
H1086 H 0.15991 0.71712 0.93267 0.0
H1087 H 0.25486 0.84609 0.84409 0.0
H1088 H 0.14655 0.73552 0.8705 0.0
H1089 H 0.28896 0.7741 0.89497 0.0
C1090 C 0.26694 0.74976 0.9224 0.0
C1091 C 0.23101 0.73262 0.93322 0.0
C1092 C 0.17035 0.7596 0.86463 0.0
C1093 C 0.21801 0.75535 0.89463 0.0
C1094 C 0.16177 0.77912 0.84664 0.0
C1095 C 0.19147 0.8115 0.83911 0.0
C1096 C 0.20929 0.77206 0.87489 0.0
C1097 C 0.23057 0.82205 0.84959 0.0
C1098 C 0.26079 0.76062 0.90306 0.0
C1099 C 0.18894 0.72739 0.92435 0.0
N1100 N 0.23828 0.80245 0.86695 0.0
N1101 N 0.18345 0.73881 0.90549 0.0
H1102 H 0.5971 0.99513 0.68023 0.0
H1103 H 0.45442 0.86 0.60538 0.0
H1104 H 0.56182 0.85691 0.69215 0.0
H1105 H 0.55345 0.95842 0.58765 0.0
H1106 H 0.48872 0.85872 0.63755 0.0
H1107 H 0.57659 0.98397 0.64649 0.0
C1108 C 0.58671 0.96183 0.67546 0.0
C1109 C 0.58345 0.92615 0.68856 0.0
C1110 C 0.50317 0.8801 0.6265 0.0
C1111 C 0.55718 0.9138 0.65037 0.0
C1112 C 0.48339 0.88122 0.60821 0.0
C1113 C 0.5006 0.91004 0.5939 0.0
C1114 C 0.53974 0.90864 0.63054 0.0
C1115 C 0.53888 0.93597 0.59826 0.0
C1116 C 0.57454 0.95559 0.65631 0.0
C1117 C 0.56622 0.88467 0.68218 0.0
N1118 N 0.55668 0.93524 0.61629 0.0
N1119 N 0.55335 0.87959 0.66343 0.0
H1120 H 0.65526 1.01447 0.9872 0.0
H1121 H 0.39137 0.05623 0.98943 0.0
H1122 H 0.55641 0.90699 0.98725 0.0
H1123 H 0.4916 0.16194 0.99243 0.0
H1124 H 0.45039 1.00243 0.98107 0.0
H1125 H 0.59559 0.06856 0.98149 0.0
C1126 C 0.62131 1.00171 0.98549 0.0
C1127 C 0.61115 0.95556 0.98776 0.0
C1128 C 0.45935 0.03757 0.98316 0.0
C1129 C 0.54193 1.01857 0.98189 0.0
C1130 C 0.42551 0.06859 0.98777 0.0
C1131 C 0.43653 0.11387 0.99173 0.0
C1132 C 0.50452 0.05179 0.98268 0.0
C1133 C 0.48166 0.1273 0.98973 0.0
C1134 C 0.58697 0.03306 0.98241 0.0
C1135 C 0.56589 0.94216 0.98585 0.0
N1136 N 0.51407 0.09629 0.98558 0.0
N1137 N 0.53289 0.97357 0.98329 0.0
H1138 H 0.6365 0.74136 0.26813 0.0
H1139 H 0.88838 0.80527 0.23676 0.0
H1140 H 0.74001 0.64287 0.255 0.0
H1141 H 0.78483 0.90395 0.24958 0.0
H1142 H 0.8345 0.74512 0.24373 0.0
H1143 H 0.69058 0.80162 0.26155 0.0
C1144 C 0.67043 0.7324 0.26369 0.0
C1145 C 0.68337 0.68699 0.26178 0.0
C1146 C 0.82373 0.77997 0.24517 0.0
C1147 C 0.74557 0.75566 0.25445 0.0
C1148 C 0.85448 0.8143 0.24122 0.0
C1149 C 0.84145 0.85975 0.24287 0.0
C1150 C 0.77945 0.79116 0.25066 0.0
C1151 C 0.79697 0.86951 0.24861 0.0
C1152 C 0.7013 0.76679 0.25996 0.0
C1153 C 0.72791 0.6773 0.25611 0.0
N1154 N 0.76758 0.83547 0.25225 0.0
N1155 N 0.75738 0.71137 0.25268 0.0
H1156 H 0.89146 0.03655 0.4957 0.0
H1157 H 0.15664 0.9955 0.49655 0.0
H1158 H 0.98993 0.14427 0.49503 0.0
H1159 H 0.05715 0.89012 0.5034 0.0
H1160 H 0.09641 0.04871 0.489 0.0
H1161 H 0.95172 0.98206 0.49144 0.0
C1162 C 0.92553 0.04914 0.49415 0.0
C1163 C 0.93544 0.09549 0.49567 0.0
C1164 C 0.08783 1.01377 0.49183 0.0
C1165 C 1.00511 0.03235 0.49144 0.0
C1166 C 0.1223 0.9831 0.49596 0.0
C1167 C 0.11195 0.93807 0.50062 0.0
C1168 C 0.04272 0.99944 0.49247 0.0
C1169 C 0.06661 0.92458 0.50007 0.0
C1170 C 0.96014 1.01766 0.49191 0.0
C1171 C 0.98071 0.10894 0.49409 0.0
N1172 N 0.03363 0.95522 0.49626 0.0
N1173 N 1.01393 0.07749 0.49225 0.0
H1174 H 0.65821 0.24311 0.73207 0.0
H1175 H 0.91362 0.30455 0.75922 0.0
H1176 H 0.76206 0.14376 0.74333 0.0
H1177 H 0.80807 0.40421 0.75188 0.0
H1178 H 0.85906 0.24522 0.75193 0.0
H1179 H 0.7134 0.30298 0.73788 0.0
C1180 C 0.69249 0.23389 0.73589 0.0
C1181 C 0.70519 0.18836 0.73758 0.0
C1182 C 0.84797 0.28013 0.75176 0.0
C1183 C 0.7686 0.25655 0.74404 0.0
C1184 C 0.87912 0.31403 0.75589 0.0
C1185 C 0.86575 0.35955 0.75592 0.0
C1186 C 0.80294 0.29177 0.74773 0.0
C1187 C 0.82048 0.36981 0.75156 0.0
C1188 C 0.72397 0.26804 0.7392 0.0
C1189 C 0.7502 0.17831 0.74243 0.0
N1190 N 0.79073 0.33615 0.74769 0.0
N1191 N 0.78023 0.21215 0.74547 0.0
H1192 H 0.26504 0.13958 0.74163 0.0
H1193 H 0.30498 0.40538 0.75215 0.0
H1194 H 0.15772 0.23855 0.73863 0.0
H1195 H 0.41276 0.30656 0.75179 0.0
H1196 H 0.2508 0.34505 0.74684 0.0
H1197 H 0.31936 0.20038 0.74564 0.0
C1198 C 0.25267 0.17402 0.74212 0.0
C1199 C 0.20643 0.18386 0.74017 0.0
C1200 C 0.28634 0.33661 0.74776 0.0
C1201 C 0.26901 0.25391 0.74426 0.0
C1202 C 0.31756 0.3712 0.75058 0.0
C1203 C 0.3639 0.36126 0.75212 0.0
C1204 C 0.30135 0.29165 0.7466 0.0
C1205 C 0.37748 0.31588 0.75068 0.0
C1206 C 0.28392 0.20883 0.74419 0.0
C1207 C 0.19296 0.22938 0.74017 0.0
N1208 N 0.34637 0.2828 0.74803 0.0
N1209 N 0.22408 0.26272 0.74226 0.0
H1210 H 0.13813 0.73875 0.26123 0.0
H1211 H 0.39372 0.80907 0.23867 0.0
H1212 H 0.24722 0.64263 0.25488 0.0
H1213 H 0.28427 0.90467 0.24524 0.0
H1214 H 0.34044 0.74744 0.24415 0.0
H1215 H 0.19135 0.79998 0.25519 0.0
C1216 C 0.17319 0.73044 0.25847 0.0
C1217 C 0.18788 0.68531 0.2583 0.0
C1218 C 0.32818 0.78195 0.2445 0.0
C1219 C 0.24918 0.75539 0.25145 0.0
C1220 C 0.35859 0.81717 0.24135 0.0
C1221 C 0.3438 0.86227 0.24184 0.0
C1222 C 0.28251 0.79183 0.24802 0.0
C1223 C 0.29774 0.87066 0.24528 0.0
C1224 C 0.20357 0.76545 0.255 0.0
C1225 C 0.23383 0.67667 0.25467 0.0
N1226 N 0.26883 0.8358 0.24824 0.0
N1227 N 0.26279 0.71139 0.25142 0.0
H1228 H 0.91714 0.57013 0.52264 0.0
H1229 H 0.13998 0.45478 0.47978 0.0
H1230 H 0.97544 0.60565 0.46764 0.0
H1231 H 0.08114 0.41875 0.53461 0.0
H1232 H 0.07992 0.51004 0.47506 0.0
H1233 H 0.97712 0.51478 0.52731 0.0
C1234 C 0.94225 0.5661 0.51144 0.0
C1235 C 0.94067 0.5921 0.49451 0.0
C1236 C 0.08019 0.4901 0.48815 0.0
C1237 C 1.01005 0.52912 0.49999 0.0
C1238 C 0.11471 0.45865 0.49093 0.0
C1239 C 0.11617 0.43254 0.50783 0.0
C1240 C 0.04673 0.49544 0.5023 0.0
C1241 C 0.08145 0.43815 0.52139 0.0
C1242 C 0.97674 0.53461 0.5142 0.0
C1243 C 0.97522 0.58633 0.48089 0.0
N1244 N 0.0483 0.46913 0.51838 0.0
N1245 N 1.00836 0.55531 0.48388 0.0
H1246 H 0.65634 0.52533 0.99496 0.0
H1247 H 0.38941 0.55581 0.00551 0.0
H1248 H 0.56062 0.41704 0.98654 0.0
H1249 H 0.48481 0.66479 0.01296 0.0
H1250 H 0.45161 0.50485 0.99828 0.0
H1251 H 0.59405 0.57673 0.00164 0.0
C1252 C 0.6223 0.51207 0.99478 0.0
C1253 C 0.61381 0.46638 0.99056 0.0
C1254 C 0.45896 0.53996 1.00137 0.0
C1255 C 0.5421 0.5257 0.99776 0.0
C1256 C 0.42333 0.56936 0.00532 0.0
C1257 C 0.43174 0.61511 0.00948 0.0
C1258 C 0.50344 0.55618 0.00169 0.0
C1259 C 0.47672 0.6299 0.00976 0.0
C1260 C 0.58665 0.54169 0.99842 0.0
C1261 C 0.56876 0.45188 0.98981 0.0
N1262 N 0.51088 0.60055 0.00588 0.0
N1263 N 0.5346 0.4814 0.99345 0.0
H1264 H 0.19302 0.77063 0.01189 0.0
H1265 H 0.20591 0.99281 0.04739 0.0
H1266 H 0.32466 0.79616 0.9882 0.0
H1267 H 0.29428 1.01102 0.9986 0.0
H1268 H 0.21188 0.9109 0.04333 0.0
H1269 H 0.19296 0.84668 0.02596 0.0
C1270 C 0.22313 0.79119 0.01067 0.0
C1271 C 0.25925 0.77657 0.99914 0.0
C1272 C 0.22975 0.93268 0.03343 0.0
C1273 C 0.2587 0.86495 0.01435 0.0
C1274 C 0.22662 0.97969 0.03579 0.0
C1275 C 0.24927 1.0093 0.02319 0.0
C1276 C 0.25606 0.91467 0.01841 0.0
C1277 C 0.27578 0.98983 0.00855 0.0
C1278 C 0.22281 0.83516 0.01842 0.0
C1279 C 0.29646 0.80571 0.99728 0.0
N1280 N 0.27848 0.94395 0.00661 0.0
N1281 N 0.29474 0.84871 0.0043 0.0
H1282 H 0.02672 0.44605 0.25915 0.0
H1283 H 0.78161 0.55267 0.25101 0.0
H1284 H 1.00243 0.58105 0.23857 0.0
H1285 H 0.80955 0.4428 0.2901 0.0
H1286 H 0.86307 0.56276 0.24641 0.0
H1287 H 0.94976 0.44459 0.27246 0.0
C1288 C 1.00618 0.47636 0.25841 0.0
C1289 C 1.02142 0.514 0.24796 0.0
C1290 C 0.85143 0.53659 0.2561 0.0
C1291 C 0.93214 0.51155 0.26201 0.0
C1292 C 0.80479 0.53058 0.2586 0.0
C1293 C 0.7884 0.49669 0.27091 0.0
C1294 C 0.8823 0.50805 0.26567 0.0
C1295 C 0.82044 0.46939 0.28047 0.0
C1296 C 0.96176 0.47515 0.26561 0.0
C1297 C 0.99238 0.55158 0.24676 0.0
N1298 N 0.86563 0.47531 0.2775 0.0
N1299 N 0.94902 0.54903 0.25321 0.0
H1300 H 0.36092 0.05745 0.54141 0.0
H1301 H 0.23191 0.26003 0.48775 0.0
H1302 H 0.25294 0.0382 0.50044 0.0
H1303 H 0.36624 0.27394 0.51058 0.0
H1304 H 0.22865 0.18303 0.50058 0.0
H1305 H 0.35441 0.13943 0.53697 0.0
C1306 C 0.33567 0.07037 0.53153 0.0
C1307 C 0.30768 0.04054 0.52116 0.0
C1308 C 0.25833 0.20335 0.50336 0.0
C1309 C 0.2995 0.13495 0.51634 0.0
C1310 C 0.25977 0.24781 0.49646 0.0
C1311 C 0.29909 0.27395 0.49839 0.0
C1312 C 0.29654 0.18463 0.51234 0.0
C1313 C 0.33485 0.25551 0.50916 0.0
C1314 C 0.33199 0.11728 0.52904 0.0
C1315 C 0.2756 0.05963 0.50859 0.0
N1316 N 0.33305 0.21182 0.51547 0.0
N1317 N 0.27236 0.10545 0.50658 0.0
H1318 H 0.52563 0.61131 0.76453 0.0
H1319 H 0.76693 0.49873 0.75098 0.0
H1320 H 0.54519 0.48295 0.73655 0.0
H1321 H 0.74243 0.60236 0.79355 0.0
H1322 H 0.68513 0.49143 0.74636 0.0
H1323 H 0.60249 0.60617 0.77771 0.0
C1324 C 0.54512 0.5808 0.76208 0.0
C1325 C 0.5285 0.54709 0.74972 0.0
C1326 C 0.69762 0.51553 0.75684 0.0
C1327 C 0.61781 0.5423 0.76362 0.0
C1328 C 0.74445 0.51994 0.75938 0.0
C1329 C 0.76191 0.55138 0.77261 0.0
C1330 C 0.66771 0.54322 0.76737 0.0
C1331 C 0.73076 0.57766 0.78317 0.0
C1332 C 0.58949 0.57831 0.76923 0.0
C1333 C 0.55627 0.50927 0.74632 0.0
N1334 N 0.68543 0.57335 0.78018 0.0
N1335 N 0.59971 0.50837 0.75281 0.0
H1336 H 0.83659 0.08577 0.9587 0.0
H1337 H 0.84178 0.30804 0.99453 0.0
H1338 H 0.74619 0.06403 0.00653 0.0
H1339 H 0.70932 0.27884 0.01662 0.0
H1340 H 0.84523 0.23158 0.98087 0.0
H1341 H 0.8287 0.16726 0.96312 0.0
C1342 C 0.81502 0.09802 0.97019 0.0
C1343 C 0.79233 0.06749 0.98238 0.0
C1344 C 0.81455 0.24233 0.988 0.0
C1345 C 0.78339 0.16187 0.98761 0.0
C1346 C 0.81231 0.28651 0.99551 0.0
C1347 C 0.7749 0.30026 0.00647 0.0
C1348 C 0.77927 0.2115 0.9917 0.0
C1349 C 0.73853 0.26992 0.00801 0.0
C1350 C 0.81082 0.14484 0.97277 0.0
C1351 C 0.76474 0.08594 0.99689 0.0
N1352 N 0.74207 0.22684 1.00121 0.0
N1353 N 0.76099 0.13175 0.99904 0.0
H1354 H 0.26592 0.50455 0.76075 0.0
H1355 H 0.02535 0.60906 0.73545 0.0
H1356 H 0.24306 0.58318 0.7093 0.0
H1357 H 0.04571 0.50353 0.7772 0.0
H1358 H 0.10224 0.5957 0.72334 0.0
H1359 H 0.18405 0.50111 0.76576 0.0
C1360 C 0.24378 0.52099 0.75047 0.0
C1361 C 0.26177 0.54438 0.73463 0.0
C1362 C 0.08922 0.57421 0.73466 0.0
C1363 C 0.16737 0.54075 0.74033 0.0
C1364 C 0.04481 0.58118 0.74128 0.0
C1365 C 0.02798 0.55631 0.75694 0.0
C1366 C 0.11746 0.5428 0.74407 0.0
C1367 C 0.05602 0.52223 0.76458 0.0
C1368 C 0.19688 0.51881 0.75327 0.0
C1369 C 0.231 0.56474 0.72173 0.0
N1370 N 0.09935 0.51715 0.75838 0.0
N1371 N 0.18558 0.56289 0.72497 0.0
H1372 H 0.80605 0.99241 0.50569 0.0
H1373 H 0.69988 0.7491 0.49187 0.0
H1374 H 0.70382 0.96606 0.46279 0.0
H1375 H 0.82946 0.77034 0.5184 0.0
H1376 H 0.70276 0.8262 0.47882 0.0
H1377 H 0.81578 0.91057 0.50993 0.0
C1378 C 0.78565 0.96952 0.49716 0.0
C1379 C 0.75387 0.98642 0.48395 0.0
C1380 C 0.73134 0.81353 0.48694 0.0
C1381 C 0.7648 0.89231 0.48874 0.0
C1382 C 0.73014 0.76903 0.49401 0.0
C1383 C 0.76482 0.75291 0.50599 0.0
C1384 C 0.76706 0.84237 0.49226 0.0
C1385 C 0.80234 0.78113 0.50896 0.0
C1386 C 0.79146 0.92271 0.49947 0.0
C1387 C 0.72872 0.95481 0.47318 0.0
N1388 N 0.80199 0.82469 0.50261 0.0
N1389 N 0.73433 0.90953 0.47596 0.0
H1390 H 0.51661 0.5474 0.26955 0.0
H1391 H 0.28512 0.54232 0.25959 0.0
H1392 H 0.51414 0.42141 0.23857 0.0
H1393 H 0.30646 0.46091 0.20876 0.0
H1394 H 0.36684 0.54382 0.26485 0.0
H1395 H 0.44047 0.56375 0.25837 0.0
C1396 C 0.50123 0.52419 0.25952 0.0
C1397 C 0.52291 0.48343 0.25464 0.0
C1398 C 0.35389 0.52642 0.25229 0.0
C1399 C 0.43295 0.50015 0.243 0.0
C1400 C 0.30695 0.52514 0.24941 0.0
C1401 C 0.28849 0.50154 0.23368 0.0
C1402 C 0.38302 0.50355 0.23947 0.0
C1403 C 0.31887 0.47978 0.22104 0.0
C1404 C 0.4567 0.53284 0.25366 0.0
C1405 C 0.49941 0.45378 0.24234 0.0
N1406 N 0.36432 0.48082 0.22435 0.0
N1407 N 0.45569 0.46238 0.23716 0.0
H1408 H 0.71371 0.46939 0.54382 0.0
H1409 H 0.81213 0.26539 0.48036 0.0
H1410 H 0.80212 0.48795 0.49506 0.0
H1411 H 0.69056 0.25452 0.51391 0.0
H1412 H 0.82317 0.34219 0.49273 0.0
H1413 H 0.71753 0.38761 0.53896 0.0
C1414 C 0.73429 0.45638 0.53216 0.0
C1415 C 0.7574 0.48602 0.51974 0.0
C1416 C 0.79484 0.32255 0.4979 0.0
C1417 C 0.7623 0.39161 0.5143 0.0
C1418 C 0.78909 0.27826 0.4912 0.0
C1419 C 0.75086 0.25301 0.49642 0.0
C1420 C 0.76207 0.34201 0.50996 0.0
C1421 C 0.7211 0.27223 0.50989 0.0
C1422 C 0.73638 0.40952 0.52942 0.0
C1423 C 0.78342 0.46668 0.5049 0.0
N1424 N 0.72697 0.31573 0.516 0.0
N1425 N 0.78514 0.42082 0.50261 0.0
H1426 H 0.52635 0.04423 0.72822 0.0
H1427 H 0.32166 0.96284 0.79467 0.0
H1428 H 0.53895 0.93675 0.76961 0.0
H1429 H 0.30514 0.04185 0.74287 0.0
H1430 H 0.40352 0.9658 0.79049 0.0
H1431 H 0.44989 0.05885 0.73941 0.0
C1432 C 0.51434 0.02559 0.74057 0.0
C1433 C 0.54023 0.9901 0.74838 0.0
C1434 C 0.38206 0.98277 0.78011 0.0
C1435 C 0.45043 1.00468 0.76045 0.0
C1436 C 0.33511 0.98115 0.78245 0.0
C1437 C 0.30599 1.00185 0.769 0.0
C1438 C 0.40062 1.00571 0.76431 0.0
C1439 C 0.32595 0.02504 0.75352 0.0
C1440 C 0.4698 0.03308 0.74656 0.0
C1441 C 0.52094 0.96527 0.76353 0.0
N1442 N 0.37187 0.02626 0.7516 0.0
N1443 N 0.4771 0.97253 0.76887 0.0
H1444 H 0.83354 0.5843 0.04396 0.0
H1445 H 0.74037 0.78768 0.97864 0.0
H1446 H 0.75005 0.56471 0.99365 0.0
H1447 H 0.85994 0.79888 0.01354 0.0
H1448 H 0.72894 0.71075 0.99076 0.0
H1449 H 0.83066 0.66603 0.03866 0.0
C1450 C 0.81423 0.59708 0.03187 0.0
C1451 C 0.79223 0.56714 0.01916 0.0
C1452 C 0.75689 0.73049 0.99628 0.0
C1453 C 0.78835 0.66153 0.0132 0.0
C1454 C 0.76283 0.77489 0.98972 0.0
C1455 C 0.80057 0.80038 0.99544 0.0
C1456 C 0.78894 0.71112 0.00873 0.0
C1457 C 0.8297 0.78109 0.00916 0.0
C1458 C 0.81269 0.64391 0.02886 0.0
C1459 C 0.76786 0.58619 0.00374 0.0
N1460 N 0.8236 0.73755 0.01517 0.0
N1461 N 0.76656 0.63201 1.00122 0.0
H1462 H 0.24358 1.00275 0.24125 0.0
H1463 H 1.01221 0.99538 0.23167 0.0
H1464 H 0.2215 0.07318 0.29492 0.0
H1465 H 1.01311 0.11512 0.2669 0.0
H1466 H 0.08851 0.97789 0.24229 0.0
H1467 H 0.16172 1.00055 0.2362 0.0
C1468 C 0.22158 1.01731 0.25208 0.0
C1469 C 0.23984 0.03807 0.26855 0.0
C1470 C 0.07188 1.00756 0.24806 0.0
C1471 C 0.14528 0.03526 0.263 0.0
C1472 C 0.02723 1.01671 0.24254 0.0
C1473 C 1.00511 0.05627 0.24874 0.0
C1474 C 0.09526 0.0385 0.25976 0.0
C1475 C 0.02818 0.08369 0.26207 0.0
C1476 C 0.17459 1.01562 0.24931 0.0
C1477 C 0.20926 0.05655 0.28203 0.0
N1478 N 0.07205 0.07471 0.26691 0.0
N1479 N 0.1638 0.05524 0.27884 0.0
H1480 H 0.24575 0.76837 0.51898 0.0
H1481 H 0.25584 0.53705 0.50978 0.0
H1482 H 0.36947 0.76741 0.48655 0.0
H1483 H 0.33226 0.55884 0.4577 0.0
H1484 H 0.25224 0.61899 0.51458 0.0
H1485 H 0.22972 0.69209 0.50783 0.0
C1486 C 0.26836 0.75331 0.50858 0.0
C1487 C 0.30858 0.7753 0.50337 0.0
C1488 C 0.26893 0.60603 0.50185 0.0
C1489 C 0.29239 0.68533 0.49181 0.0
C1490 C 0.27141 0.559 0.49923 0.0
C1491 C 0.29429 0.54065 0.48329 0.0
C1492 C 0.28987 0.63529 0.48855 0.0
C1493 C 0.31402 0.57116 0.47017 0.0
C1494 C 0.25999 0.70872 0.50277 0.0
C1495 C 0.33758 0.75235 0.49062 0.0
N1496 N 0.31188 0.61669 0.47323 0.0
N1497 N 0.32933 0.70851 0.48552 0.0
H1498 H 0.72083 0.10729 0.20971 0.0
H1499 H 0.49777 0.10374 0.24443 0.0
H1500 H 0.74257 1.00605 0.25348 0.0
H1501 H 0.52967 0.96968 0.26421 0.0
H1502 H 0.57372 0.10959 0.2307 0.0
H1503 H 0.63934 0.09885 0.21382 0.0
C1504 C 0.70857 0.08337 0.22028 0.0
C1505 C 0.7391 0.05773 0.23142 0.0
C1506 C 0.56374 0.07804 0.23728 0.0
C1507 C 0.64479 0.04798 0.2363 0.0
C1508 C 0.51978 0.07445 0.24483 0.0
C1509 C 0.50687 0.03584 0.25518 0.0
C1510 C 0.59524 0.04285 0.24031 0.0
C1511 C 0.53786 0.99976 0.25604 0.0
C1512 C 0.66175 0.07875 0.22269 0.0
C1513 C 0.72069 0.027 0.24471 0.0
N1514 N 0.58069 1.00453 0.2492 0.0
N1515 N 0.67498 1.02298 0.24673 0.0
H1516 H 0.29507 0.51431 0.01104 0.0
H1517 H 0.30831 0.2838 0.01997 0.0
H1518 H 0.21981 0.49195 0.95863 0.0
H1519 H 0.18484 0.28225 0.98726 0.0
H1520 H 0.32321 0.35999 0.00878 0.0
H1521 H 0.29926 0.43241 0.01576 0.0
C1522 C 0.27984 0.49224 1.00041 0.0
C1523 C 0.25716 0.5104 0.98439 0.0
C1524 C 0.29327 0.34285 0.00365 0.0
C1525 C 0.2623 0.41579 0.98954 0.0
C1526 C 0.28561 0.29817 0.00943 0.0
C1527 C 0.24585 0.27537 0.00413 0.0
C1528 C 0.26051 0.36568 0.99268 0.0
C1529 C 0.21648 0.29784 0.99136 0.0
C1530 C 0.28268 0.44523 0.00298 0.0
C1531 C 0.23792 0.47974 0.97115 0.0
N1532 N 0.22397 0.34186 0.98633 0.0
N1533 N 0.2404 0.43422 0.97415 0.0
H1534 H 0.79992 0.05218 0.7521 0.0
H1535 H 0.04281 0.9419 0.74151 0.0
H1536 H 0.82504 0.94163 0.71289 0.0
H1537 H 1.02152 0.07565 0.76417 0.0
H1538 H 0.96559 0.94271 0.72855 0.0
H1539 H 0.88167 0.06152 0.75608 0.0
C1540 C 0.82254 0.02977 0.74436 0.0
C1541 C 0.8053 0.99586 0.73224 0.0
C1542 C 0.97827 0.97257 0.73577 0.0
C1543 C 0.89944 1.00644 0.73671 0.0
C1544 C 1.02285 0.9725 0.74277 0.0
C1545 C 0.03902 1.00907 0.75368 0.0
C1546 C 0.9494 1.00913 0.74006 0.0
C1547 C 1.01073 0.04704 0.75557 0.0
C1548 C 0.86933 0.03538 0.7465 0.0
C1549 C 0.83659 0.96821 0.72243 0.0
N1550 N 0.96713 0.04569 0.74931 0.0
N1551 N 0.88192 0.97377 0.72503 0.0
loop_
_geom_bond_atom_site_label_1
_geom_bond_atom_site_label_2
_geom_bond_distance
_geom_bond_site_symmetry_2
_ccdc_geom_bond_type
Zn0 N4 2.020 . S
Zn0 O8 2.019 . S
Zn0 N10 2.119 . S
Zn0 O18 1.975 1_545 S
C1 N2 1.334 . S
C1 N5 1.336 . S
N2 C1 1.334 . S
N2 C3 1.334 . S
C3 N2 1.334 . S
C3 N4 1.336 . S
N4 Zn0 2.020 . S
N4 C3 1.336 . S
N4 N5 1.354 . S
N5 C1 1.336 . S
N5 N4 1.354 . S
N5 Zn9 2.020 . S
C6 O7 1.219 1_556 S
C6 O30 1.257 . S
O7 C6 1.219 1_554 S
O8 Zn0 2.019 . S
O8 C28 1.257 . S
Zn9 N5 2.020 . S
Zn9 O16 1.975 1_545 S
Zn9 N25 2.119 . S
Zn9 O30 2.019 1_554 S
N10 Zn0 2.119 . S
N10 C12 1.334 . S
N10 C13 1.328 . S
C11 C12 1.391 . S
C11 N14 1.329 . S
C11 H32 0.930 . S
C12 N10 1.334 . S
C12 C11 1.391 . S
C12 H19 0.930 . S
C13 N10 1.328 . S
C13 C15 1.392 . S
C13 H20 0.930 . S
N14 C11 1.329 . S
N14 C15 1.331 . S
C15 C13 1.392 . S
C15 N14 1.331 . S
O16 Zn9 1.975 1_565 S
O16 C17 1.252 . S
C17 O16 1.252 . S
C17 O18 1.252 . S
O18 Zn0 1.975 1_565 S
O18 C17 1.252 . S
H19 C12 0.930 . S
H20 C13 0.930 . S
C21 C22 1.392 . S
C21 N25 1.328 . S
C21 H27 0.930 1_554 S
C22 C21 1.392 . S
C22 N26 1.331 . S
C23 C24 1.391 . S
C23 N26 1.329 . S
C23 H33 0.930 . S
C24 C23 1.391 . S
C24 N25 1.334 . S
C24 H31 0.930 . S
N25 Zn9 2.119 . S
N25 C21 1.328 . S
N25 C24 1.334 . S
N26 C22 1.331 . S
N26 C23 1.329 . S
H27 C21 0.930 1_556 S
C28 O8 1.257 . S
C28 O29 1.244 . S
O29 C28 1.244 . S
O30 C6 1.257 . S
O30 Zn9 2.019 1_556 S
H31 C24 0.930 . S
H32 C11 0.930 . S
H33 C23 0.930 . S
Zn34 N38 2.020 . S
Zn34 O42 2.019 . S
Zn34 N44 2.119 . S
Zn34 O52 1.975 . S
C35 N36 1.334 . S
C35 N39 1.336 . S
N36 C35 1.334 . S
N36 C37 1.334 . S
C37 N36 1.334 . S
C37 N38 1.336 . S
N38 Zn34 2.020 . S
N38 C37 1.336 . S
N38 N39 1.354 . S
N39 C35 1.336 . S
N39 N38 1.354 . S
N39 Zn43 2.020 . S
C40 O41 1.244 . S
C40 O64 1.257 . S
O41 C40 1.244 . S
O42 Zn34 2.019 . S
O42 C62 1.257 . S
Zn43 N39 2.020 . S
Zn43 O50 1.975 . S
Zn43 N59 2.119 . S
Zn43 O64 2.019 . S
N44 Zn34 2.119 . S
N44 C46 1.334 . S
N44 C47 1.328 . S
C45 C46 1.391 . S
C45 N48 1.329 . S
C45 H66 0.930 . S
C46 N44 1.334 . S
C46 C45 1.391 . S
C46 H53 0.930 . S
C47 N44 1.328 . S
C47 C49 1.392 . S
C47 H54 0.930 . S
N48 C45 1.329 . S
N48 C49 1.331 . S
C49 C47 1.392 . S
C49 N48 1.331 . S
O50 Zn43 1.975 . S
O50 C51 1.252 . S
C51 O50 1.252 . S
C51 O52 1.252 . S
O52 Zn34 1.975 . S
O52 C51 1.252 . S
H53 C46 0.930 . S
H54 C47 0.930 . S
C55 C56 1.392 . S
C55 N59 1.328 . S
C55 H61 0.930 . S
C56 C55 1.392 . S
C56 N60 1.331 . S
C57 C58 1.391 . S
C57 N60 1.329 . S
C57 H67 0.930 . S
C58 C57 1.391 . S
C58 N59 1.334 . S
C58 H65 0.930 . S
N59 Zn43 2.119 . S
N59 C55 1.328 . S
N59 C58 1.334 . S
N60 C56 1.331 . S
N60 C57 1.329 . S
H61 C55 0.930 . S
C62 O42 1.257 . S
C62 O63 1.244 . S
O63 C62 1.244 . S
O64 C40 1.257 . S
O64 Zn43 2.019 . S
H65 C58 0.930 . S
H66 C45 0.930 . S
H67 C57 0.930 . S
Zn68 N72 2.020 . S
Zn68 O76 2.019 . S
Zn68 N78 2.119 . S
Zn68 O86 1.975 1_565 S
C69 N70 1.334 . S
C69 N73 1.336 . S
N70 C69 1.334 . S
N70 C71 1.334 . S
C71 N70 1.334 . S
C71 N72 1.336 . S
N72 Zn68 2.020 . S
N72 C71 1.336 . S
N72 N73 1.354 . S
N73 C69 1.336 . S
N73 N72 1.354 . S
N73 Zn77 2.020 . S
C74 O75 1.244 . S
C74 O98 1.257 . S
O75 C74 1.244 . S
O76 Zn68 2.019 . S
O76 C96 1.257 . S
Zn77 N73 2.020 . S
Zn77 O84 1.975 1_565 S
Zn77 N93 2.119 . S
Zn77 O98 2.019 . S
N78 Zn68 2.119 . S
N78 C80 1.334 . S
N78 C81 1.328 . S
C79 C80 1.391 . S
C79 N82 1.329 . S
C79 H100 0.930 . S
C80 N78 1.334 . S
C80 C79 1.391 . S
C80 H87 0.930 . S
C81 N78 1.328 . S
C81 C83 1.392 . S
C81 H88 0.930 . S
N82 C79 1.329 . S
N82 C83 1.331 . S
C83 C81 1.392 . S
C83 N82 1.331 . S
O84 Zn77 1.975 1_545 S
O84 C85 1.252 . S
C85 O84 1.252 . S
C85 O86 1.252 . S
O86 Zn68 1.975 1_545 S
O86 C85 1.252 . S
H87 C80 0.930 . S
H88 C81 0.930 . S
C89 C90 1.392 . S
C89 N93 1.328 . S
C89 H95 0.930 . S
C90 C89 1.392 . S
C90 N94 1.331 . S
C91 C92 1.391 . S
C91 N94 1.329 . S
C91 H101 0.930 . S
C92 C91 1.391 . S
C92 N93 1.334 . S
C92 H99 0.930 . S
N93 Zn77 2.119 . S
N93 C89 1.328 . S
N93 C92 1.334 . S
N94 C90 1.331 . S
N94 C91 1.329 . S
H95 C89 0.930 . S
C96 O76 1.257 . S
C96 O97 1.244 . S
O97 C96 1.244 . S
O98 C74 1.257 . S
O98 Zn77 2.019 . S
H99 C92 0.930 . S
H100 C79 0.930 . S
H101 C91 0.930 . S
Zn102 N106 2.020 . S
Zn102 O110 2.019 . S
Zn102 N112 2.119 . S
Zn102 O120 1.975 . S
C103 N104 1.334 . S
C103 N107 1.336 . S
N104 C103 1.334 . S
N104 C105 1.334 . S
C105 N104 1.334 . S
C105 N106 1.336 . S
N106 Zn102 2.020 . S
N106 C105 1.336 . S
N106 N107 1.354 . S
N107 C103 1.336 . S
N107 N106 1.354 . S
N107 Zn111 2.020 . S
C108 O109 1.244 . S
C108 O132 1.257 . S
O109 C108 1.244 . S
O110 Zn102 2.019 . S
O110 C130 1.257 . S
Zn111 N107 2.020 . S
Zn111 O118 1.975 . S
Zn111 N127 2.119 . S
Zn111 O132 2.019 . S
N112 Zn102 2.119 . S
N112 C114 1.334 . S
N112 C115 1.328 . S
C113 C114 1.391 . S
C113 N116 1.329 . S
C113 H134 0.930 . S
C114 N112 1.334 . S
C114 C113 1.391 . S
C114 H121 0.930 . S
C115 N112 1.328 . S
C115 C117 1.392 . S
C115 H122 0.930 . S
N116 C113 1.329 . S
N116 C117 1.331 . S
C117 C115 1.392 . S
C117 N116 1.331 . S
O118 Zn111 1.975 . S
O118 C119 1.252 . S
C119 O118 1.252 . S
C119 O120 1.252 . S
O120 Zn102 1.975 . S
O120 C119 1.252 . S
H121 C114 0.930 . S
H122 C115 0.930 . S
C123 C124 1.392 . S
C123 N127 1.328 . S
C123 H129 0.930 . S
C124 C123 1.392 . S
C124 N128 1.331 . S
C125 C126 1.391 . S
C125 N128 1.329 . S
C125 H135 0.930 . S
C126 C125 1.391 . S
C126 N127 1.334 . S
C126 H133 0.930 . S
N127 Zn111 2.119 . S
N127 C123 1.328 . S
N127 C126 1.334 . S
N128 C124 1.331 . S
N128 C125 1.329 . S
H129 C123 0.930 . S
C130 O110 1.257 . S
C130 O131 1.244 . S
O131 C130 1.244 . S
O132 C108 1.257 . S
O132 Zn111 2.019 . S
H133 C126 0.930 . S
H134 C113 0.930 . S
H135 C125 0.930 . S
Zn136 N140 2.020 . S
Zn136 O144 2.019 . S
Zn136 N146 2.119 . S
Zn136 O154 1.975 1_565 S
C137 N138 1.334 . S
C137 N141 1.336 . S
N138 C137 1.334 . S
N138 C139 1.334 . S
C139 N138 1.334 . S
C139 N140 1.336 . S
N140 Zn136 2.020 . S
N140 C139 1.336 . S
N140 N141 1.354 . S
N141 C137 1.336 . S
N141 N140 1.354 . S
N141 Zn145 2.020 . S
C142 O143 1.219 1_554 S
C142 O166 1.257 . S
O143 C142 1.219 1_556 S
O144 Zn136 2.019 . S
O144 C164 1.257 . S
Zn145 N141 2.020 . S
Zn145 O152 1.975 1_565 S
Zn145 N161 2.119 . S
Zn145 O166 2.019 1_556 S
N146 Zn136 2.119 . S
N146 C148 1.334 . S
N146 C149 1.328 . S
C147 C148 1.391 . S
C147 N150 1.329 . S
C147 H168 0.930 . S
C148 N146 1.334 . S
C148 C147 1.391 . S
C148 H155 0.930 . S
C149 N146 1.328 . S
C149 C151 1.392 . S
C149 H156 0.930 . S
N150 C147 1.329 . S
N150 C151 1.331 . S
C151 C149 1.392 . S
C151 N150 1.331 . S
O152 Zn145 1.975 1_545 S
O152 C153 1.252 . S
C153 O152 1.252 . S
C153 O154 1.252 . S
O154 Zn136 1.975 1_545 S
O154 C153 1.252 . S
H155 C148 0.930 . S
H156 C149 0.930 . S
C157 C158 1.392 . S
C157 N161 1.328 . S
C157 H163 0.930 1_556 S
C158 C157 1.392 . S
C158 N162 1.331 . S
C159 C160 1.391 . S
C159 N162 1.329 . S
C159 H169 0.930 . S
C160 C159 1.391 . S
C160 N161 1.334 . S
C160 H167 0.930 . S
N161 Zn145 2.119 . S
N161 C157 1.328 . S
N161 C160 1.334 . S
N162 C158 1.331 . S
N162 C159 1.329 . S
H163 C157 0.930 1_554 S
C164 O144 1.257 . S
C164 O165 1.244 . S
O165 C164 1.244 . S
O166 C142 1.257 . S
O166 Zn145 2.019 1_554 S
H167 C160 0.930 . S
H168 C147 0.930 . S
H169 C159 0.930 . S
Zn170 N174 2.020 . S
Zn170 O178 2.019 . S
Zn170 N180 2.119 . S
Zn170 O188 1.975 . S
C171 N172 1.334 . S
C171 N175 1.336 . S
N172 C171 1.334 . S
N172 C173 1.334 . S
C173 N172 1.334 . S
C173 N174 1.336 . S
N174 Zn170 2.020 . S
N174 C173 1.336 . S
N174 N175 1.354 . S
N175 C171 1.336 . S
N175 N174 1.354 . S
N175 Zn179 2.020 . S
C176 O177 1.244 . S
C176 O200 1.257 . S
O177 C176 1.244 . S
O178 Zn170 2.019 . S
O178 C198 1.257 . S
Zn179 N175 2.020 . S
Zn179 O186 1.975 . S
Zn179 N195 2.119 . S
Zn179 O200 2.019 . S
N180 Zn170 2.119 . S
N180 C182 1.334 . S
N180 C183 1.328 . S
C181 C182 1.391 . S
C181 N184 1.329 . S
C181 H202 0.930 . S
C182 N180 1.334 . S
C182 C181 1.391 . S
C182 H189 0.930 . S
C183 N180 1.328 . S
C183 C185 1.392 . S
C183 H190 0.930 . S
N184 C181 1.329 . S
N184 C185 1.331 . S
C185 C183 1.392 . S
C185 N184 1.331 . S
O186 Zn179 1.975 . S
O186 C187 1.252 . S
C187 O186 1.252 . S
C187 O188 1.252 . S
O188 Zn170 1.975 . S
O188 C187 1.252 . S
H189 C182 0.930 . S
H190 C183 0.930 . S
C191 C192 1.392 . S
C191 N195 1.328 . S
C191 H197 0.930 . S
C192 C191 1.392 . S
C192 N196 1.331 . S
C193 C194 1.391 . S
C193 N196 1.329 . S
C193 H203 0.930 . S
C194 C193 1.391 . S
C194 N195 1.334 . S
C194 H201 0.930 . S
N195 Zn179 2.119 . S
N195 C191 1.328 . S
N195 C194 1.334 . S
N196 C192 1.331 . S
N196 C193 1.329 . S
H197 C191 0.930 . S
C198 O178 1.257 . S
C198 O199 1.244 . S
O199 C198 1.244 . S
O200 C176 1.257 . S
O200 Zn179 2.019 . S
H201 C194 0.930 . S
H202 C181 0.930 . S
H203 C193 0.930 . S
Zn204 N208 2.020 . S
Zn204 O212 2.019 . S
Zn204 N214 2.119 . S
Zn204 O222 1.975 1_545 S
C205 N206 1.334 . S
C205 N209 1.336 . S
N206 C205 1.334 . S
N206 C207 1.334 . S
C207 N206 1.334 . S
C207 N208 1.336 . S
N208 Zn204 2.020 . S
N208 C207 1.336 . S
N208 N209 1.354 . S
N209 C205 1.336 . S
N209 N208 1.354 . S
N209 Zn213 2.020 . S
C210 O211 1.244 . S
C210 O234 1.257 . S
O211 C210 1.244 . S
O212 Zn204 2.019 . S
O212 C232 1.257 . S
Zn213 N209 2.020 . S
Zn213 O220 1.975 1_545 S
Zn213 N229 2.119 . S
Zn213 O234 2.019 . S
N214 Zn204 2.119 . S
N214 C216 1.334 . S
N214 C217 1.328 . S
C215 C216 1.391 . S
C215 N218 1.329 . S
C215 H236 0.930 . S
C216 N214 1.334 . S
C216 C215 1.391 . S
C216 H223 0.930 . S
C217 N214 1.328 . S
C217 C219 1.392 . S
C217 H224 0.930 . S
N218 C215 1.329 . S
N218 C219 1.331 . S
C219 C217 1.392 . S
C219 N218 1.331 . S
O220 Zn213 1.975 1_565 S
O220 C221 1.252 . S
C221 O220 1.252 . S
C221 O222 1.252 . S
O222 Zn204 1.975 1_565 S
O222 C221 1.252 . S
H223 C216 0.930 . S
H224 C217 0.930 . S
C225 C226 1.392 . S
C225 N229 1.328 . S
C225 H231 0.930 . S
C226 C225 1.392 . S
C226 N230 1.331 . S
C227 C228 1.391 . S
C227 N230 1.329 . S
C227 H237 0.930 . S
C228 C227 1.391 . S
C228 N229 1.334 . S
C228 H235 0.930 . S
N229 Zn213 2.119 . S
N229 C225 1.328 . S
N229 C228 1.334 . S
N230 C226 1.331 . S
N230 C227 1.329 . S
H231 C225 0.930 . S
C232 O212 1.257 . S
C232 O233 1.244 . S
O233 C232 1.244 . S
O234 C210 1.257 . S
O234 Zn213 2.019 . S
H235 C228 0.930 . S
H236 C215 0.930 . S
H237 C227 0.930 . S
Zn238 N242 2.020 . S
Zn238 O246 2.019 . S
Zn238 N248 2.119 . S
Zn238 O256 1.975 . S
C239 N240 1.334 . S
C239 N243 1.336 . S
N240 C239 1.334 . S
N240 C241 1.334 . S
C241 N240 1.334 . S
C241 N242 1.336 . S
N242 Zn238 2.020 . S
N242 C241 1.336 . S
N242 N243 1.354 . S
N243 C239 1.336 . S
N243 N242 1.354 . S
N243 Zn247 2.020 . S
C244 O245 1.244 . S
C244 O268 1.257 . S
O245 C244 1.244 . S
O246 Zn238 2.019 . S
O246 C266 1.257 . S
Zn247 N243 2.020 . S
Zn247 O254 1.975 . S
Zn247 N263 2.119 . S
Zn247 O268 2.019 . S
N248 Zn238 2.119 . S
N248 C250 1.334 . S
N248 C251 1.328 . S
C249 C250 1.391 . S
C249 N252 1.329 . S
C249 H270 0.930 . S
C250 N248 1.334 . S
C250 C249 1.391 . S
C250 H257 0.930 . S
C251 N248 1.328 . S
C251 C253 1.392 . S
C251 H258 0.930 . S
N252 C249 1.329 . S
N252 C253 1.331 . S
C253 C251 1.392 . S
C253 N252 1.331 . S
O254 Zn247 1.975 . S
O254 C255 1.252 . S
C255 O254 1.252 . S
C255 O256 1.252 . S
O256 Zn238 1.975 . S
O256 C255 1.252 . S
H257 C250 0.930 . S
H258 C251 0.930 . S
C259 C260 1.392 . S
C259 N263 1.328 . S
C259 H265 0.930 . S
C260 C259 1.392 . S
C260 N264 1.331 . S
C261 C262 1.391 . S
C261 N264 1.329 . S
C261 H271 0.930 . S
C262 C261 1.391 . S
C262 N263 1.334 . S
C262 H269 0.930 . S
N263 Zn247 2.119 . S
N263 C259 1.328 . S
N263 C262 1.334 . S
N264 C260 1.331 . S
N264 C261 1.329 . S
H265 C259 0.930 . S
C266 O246 1.257 . S
C266 O267 1.244 . S
O267 C266 1.244 . S
O268 C244 1.257 . S
O268 Zn247 2.019 . S
H269 C262 0.930 . S
H270 C249 0.930 . S
H271 C261 0.930 . S
Zn272 N276 2.020 . S
Zn272 O280 2.019 . S
Zn272 N282 2.119 . S
Zn272 O290 1.975 . S
C273 N274 1.334 . S
C273 N277 1.336 . S
N274 C273 1.334 . S
N274 C275 1.334 . S
C275 N274 1.334 . S
C275 N276 1.336 . S
N276 Zn272 2.020 . S
N276 C275 1.336 . S
N276 N277 1.354 . S
N277 C273 1.336 . S
N277 N276 1.354 . S
N277 Zn281 2.020 . S
C278 O279 1.244 . S
C278 O302 1.257 . S
O279 C278 1.244 . S
O280 Zn272 2.019 . S
O280 C300 1.257 . S
Zn281 N277 2.020 . S
Zn281 O288 1.975 . S
Zn281 N297 2.119 . S
Zn281 O302 2.019 . S
N282 Zn272 2.119 . S
N282 C284 1.334 . S
N282 C285 1.328 . S
C283 C284 1.391 . S
C283 N286 1.329 . S
C283 H304 0.930 . S
C284 N282 1.334 . S
C284 C283 1.391 . S
C284 H291 0.930 . S
C285 N282 1.328 . S
C285 C287 1.392 . S
C285 H292 0.930 . S
N286 C283 1.329 . S
N286 C287 1.331 . S
C287 C285 1.392 . S
C287 N286 1.331 . S
O288 Zn281 1.975 . S
O288 C289 1.252 . S
C289 O288 1.252 . S
C289 O290 1.252 . S
O290 Zn272 1.975 . S
O290 C289 1.252 . S
H291 C284 0.930 . S
H292 C285 0.930 . S
C293 C294 1.392 . S
C293 N297 1.328 . S
C293 H299 0.930 . S
C294 C293 1.392 . S
C294 N298 1.331 . S
C295 C296 1.391 . S
C295 N298 1.329 . S
C295 H305 0.930 . S
C296 C295 1.391 . S
C296 N297 1.334 . S
C296 H303 0.930 . S
N297 Zn281 2.119 . S
N297 C293 1.328 . S
N297 C296 1.334 . S
N298 C294 1.331 . S
N298 C295 1.329 . S
H299 C293 0.930 . S
C300 O280 1.257 . S
C300 O301 1.244 . S
O301 C300 1.244 . S
O302 C278 1.257 . S
O302 Zn281 2.019 . S
H303 C296 0.930 . S
H304 C283 0.930 . S
H305 C295 0.930 . S
Zn306 N310 2.020 . S
Zn306 O314 2.019 . S
Zn306 N316 2.119 . S
Zn306 O324 1.975 1_565 S
C307 N308 1.334 . S
C307 N311 1.336 . S
N308 C307 1.334 . S
N308 C309 1.334 1_545 S
C309 N308 1.334 1_565 S
C309 N310 1.336 . S
N310 Zn306 2.020 . S
N310 C309 1.336 . S
N310 N311 1.354 1_565 S
N311 C307 1.336 . S
N311 N310 1.354 1_545 S
N311 Zn315 2.020 . S
C312 O313 1.244 . S
C312 O336 1.257 1_565 S
O313 C312 1.244 . S
O314 Zn306 2.019 . S
O314 C334 1.257 1_565 S
Zn315 N311 2.020 . S
Zn315 O322 1.975 1_545 S
Zn315 N331 2.119 . S
Zn315 O336 2.019 . S
N316 Zn306 2.119 . S
N316 C318 1.334 . S
N316 C319 1.328 . S
C317 C318 1.391 . S
C317 N320 1.329 . S
C317 H338 0.930 . S
C318 N316 1.334 . S
C318 C317 1.391 . S
C318 H325 0.930 . S
C319 N316 1.328 . S
C319 C321 1.392 . S
C319 H326 0.930 . S
N320 C317 1.329 . S
N320 C321 1.331 . S
C321 C319 1.392 . S
C321 N320 1.331 . S
O322 Zn315 1.975 1_565 S
O322 C323 1.254 . S
C323 O322 1.254 . S
C323 O324 1.250 1_565 S
O324 Zn306 1.975 1_545 S
O324 C323 1.250 1_545 S
H325 C318 0.930 . S
H326 C319 0.930 . S
C327 C328 1.392 . S
C327 N331 1.328 . S
C327 H333 0.930 . S
C328 C327 1.392 . S
C328 N332 1.331 . S
C329 C330 1.391 . S
C329 N332 1.329 . S
C329 H339 0.930 . S
C330 C329 1.391 . S
C330 N331 1.334 . S
C330 H337 0.930 . S
N331 Zn315 2.119 . S
N331 C327 1.328 . S
N331 C330 1.334 . S
N332 C328 1.331 . S
N332 C329 1.329 . S
H333 C327 0.930 . S
C334 O314 1.257 1_545 S
C334 O335 1.244 . S
O335 C334 1.244 . S
O336 C312 1.257 1_545 S
O336 Zn315 2.019 . S
H337 C330 0.930 . S
H338 C317 0.930 . S
H339 C329 0.930 . S
Zn340 N344 2.020 . S
Zn340 O348 2.019 1_554 S
Zn340 N350 2.119 . S
Zn340 O358 1.975 . S
C341 N342 1.334 . S
C341 N345 1.336 . S
N342 C341 1.334 . S
N342 C343 1.334 . S
C343 N342 1.334 . S
C343 N344 1.336 . S
N344 Zn340 2.020 . S
N344 C343 1.336 . S
N344 N345 1.354 . S
N345 C341 1.336 . S
N345 N344 1.354 . S
N345 Zn349 2.020 . S
C346 O347 1.244 . S
C346 O370 1.257 . S
O347 C346 1.244 . S
O348 Zn340 2.019 1_556 S
O348 C368 1.257 . S
Zn349 N345 2.020 . S
Zn349 O356 1.975 . S
Zn349 N365 2.119 . S
Zn349 O370 2.019 . S
N350 Zn340 2.119 . S
N350 C352 1.334 . S
N350 C353 1.328 . S
C351 C352 1.391 . S
C351 N354 1.329 . S
C351 H372 0.930 . S
C352 N350 1.334 . S
C352 C351 1.391 . S
C352 H359 0.930 . S
C353 N350 1.328 . S
C353 C355 1.392 . S
C353 H360 0.886 1_554 S
N354 C351 1.329 . S
N354 C355 1.331 . S
C355 C353 1.392 . S
C355 N354 1.331 . S
O356 Zn349 1.975 . S
O356 C357 1.252 . S
C357 O356 1.252 . S
C357 O358 1.252 . S
O358 Zn340 1.975 . S
O358 C357 1.252 . S
H359 C352 0.930 . S
H360 C353 0.886 1_556 S
C361 C362 1.392 . S
C361 N365 1.328 . S
C361 H367 0.930 . S
C362 C361 1.392 . S
C362 N366 1.331 . S
C363 C364 1.391 . S
C363 N366 1.329 . S
C363 H373 0.930 . S
C364 C363 1.391 . S
C364 N365 1.334 . S
C364 H371 0.930 . S
N365 Zn349 2.119 . S
N365 C361 1.328 . S
N365 C364 1.334 . S
N366 C362 1.331 . S
N366 C363 1.329 . S
H367 C361 0.930 . S
C368 O348 1.257 . S
C368 O369 1.205 1_556 S
O369 C368 1.205 1_554 S
O370 C346 1.257 . S
O370 Zn349 2.019 . S
H371 C364 0.930 . S
H372 C351 0.930 . S
H373 C363 0.930 . S
Zn374 N378 2.020 . S
Zn374 O382 2.019 . S
Zn374 N384 2.119 . S
Zn374 O392 1.975 1_545 S
C375 N376 1.334 . S
C375 N379 1.336 . S
N376 C375 1.334 . S
N376 C377 1.334 1_565 S
C377 N376 1.334 1_545 S
C377 N378 1.336 . S
N378 Zn374 2.020 . S
N378 C377 1.336 . S
N378 N379 1.354 1_545 S
N379 C375 1.336 . S
N379 N378 1.354 1_565 S
N379 Zn383 2.020 . S
C380 O381 1.244 . S
C380 O404 1.257 1_545 S
O381 C380 1.244 . S
O382 Zn374 2.019 . S
O382 C402 1.257 1_545 S
Zn383 N379 2.020 . S
Zn383 O390 1.975 1_565 S
Zn383 N399 2.119 . S
Zn383 O404 2.019 . S
N384 Zn374 2.119 . S
N384 C386 1.334 . S
N384 C387 1.328 . S
C385 C386 1.391 . S
C385 N388 1.329 . S
C385 H406 0.930 . S
C386 N384 1.334 . S
C386 C385 1.391 . S
C386 H393 0.930 . S
C387 N384 1.328 . S
C387 C389 1.392 . S
C387 H394 0.930 . S
N388 C385 1.329 . S
N388 C389 1.331 . S
C389 C387 1.392 . S
C389 N388 1.331 . S
O390 Zn383 1.975 1_545 S
O390 C391 1.254 . S
C391 O390 1.254 . S
C391 O392 1.250 1_545 S
O392 Zn374 1.975 1_565 S
O392 C391 1.250 1_565 S
H393 C386 0.930 . S
H394 C387 0.930 . S
C395 C396 1.392 . S
C395 N399 1.328 . S
C395 H401 0.930 . S
C396 C395 1.392 . S
C396 N400 1.331 . S
C397 C398 1.391 . S
C397 N400 1.329 . S
C397 H407 0.930 . S
C398 C397 1.391 . S
C398 N399 1.334 . S
C398 H405 0.930 . S
N399 Zn383 2.119 . S
N399 C395 1.328 . S
N399 C398 1.334 . S
N400 C396 1.331 . S
N400 C397 1.329 . S
H401 C395 0.930 . S
C402 O382 1.257 1_565 S
C402 O403 1.244 . S
O403 C402 1.244 . S
O404 C380 1.257 1_565 S
O404 Zn383 2.019 . S
H405 C398 0.930 . S
H406 C385 0.930 . S
H407 C397 0.930 . S
Zn408 N412 2.020 . S
Zn408 O416 2.019 . S
Zn408 N418 2.119 . S
Zn408 O426 1.975 . S
C409 N410 1.334 . S
C409 N413 1.336 . S
N410 C409 1.334 . S
N410 C411 1.334 . S
C411 N410 1.334 . S
C411 N412 1.336 . S
N412 Zn408 2.020 . S
N412 C411 1.336 . S
N412 N413 1.354 . S
N413 C409 1.336 . S
N413 N412 1.354 . S
N413 Zn417 2.020 . S
C414 O415 1.244 . S
C414 O438 1.257 . S
O415 C414 1.244 . S
O416 Zn408 2.019 . S
O416 C436 1.257 . S
Zn417 N413 2.020 . S
Zn417 O424 1.975 . S
Zn417 N433 2.119 . S
Zn417 O438 2.019 . S
N418 Zn408 2.119 . S
N418 C420 1.334 . S
N418 C421 1.328 . S
C419 C420 1.391 . S
C419 N422 1.329 . S
C419 H440 0.930 . S
C420 N418 1.334 . S
C420 C419 1.391 . S
C420 H427 0.930 . S
C421 N418 1.328 . S
C421 C423 1.392 . S
C421 H428 0.930 . S
N422 C419 1.329 . S
N422 C423 1.331 . S
C423 C421 1.392 . S
C423 N422 1.331 . S
O424 Zn417 1.975 . S
O424 C425 1.252 . S
C425 O424 1.252 . S
C425 O426 1.252 . S
O426 Zn408 1.975 . S
O426 C425 1.252 . S
H427 C420 0.930 . S
H428 C421 0.930 . S
C429 C430 1.392 . S
C429 N433 1.328 . S
C429 H435 0.930 . S
C430 C429 1.392 . S
C430 N434 1.331 . S
C431 C432 1.391 . S
C431 N434 1.329 . S
C431 H441 0.930 . S
C432 C431 1.391 . S
C432 N433 1.334 . S
C432 H439 0.930 . S
N433 Zn417 2.119 . S
N433 C429 1.328 . S
N433 C432 1.334 . S
N434 C430 1.331 . S
N434 C431 1.329 . S
H435 C429 0.930 . S
C436 O416 1.257 . S
C436 O437 1.244 . S
O437 C436 1.244 . S
O438 C414 1.257 . S
O438 Zn417 2.019 . S
H439 C432 0.930 . S
H440 C419 0.930 . S
H441 C431 0.930 . S
Zn442 N446 2.020 . S
Zn442 O450 2.019 . S
Zn442 N452 2.119 . S
Zn442 O460 1.975 1_545 S
C443 N444 1.334 . S
C443 N447 1.336 . S
N444 C443 1.334 . S
N444 C445 1.334 1_565 S
C445 N444 1.334 1_545 S
C445 N446 1.336 . S
N446 Zn442 2.020 . S
N446 C445 1.336 . S
N446 N447 1.354 1_545 S
N447 C443 1.336 . S
N447 N446 1.354 1_565 S
N447 Zn451 2.020 . S
C448 O449 1.244 . S
C448 O472 1.257 1_545 S
O449 C448 1.244 . S
O450 Zn442 2.019 . S
O450 C470 1.257 1_545 S
Zn451 N447 2.020 . S
Zn451 O458 1.975 1_565 S
Zn451 N467 2.119 . S
Zn451 O472 2.019 . S
N452 Zn442 2.119 . S
N452 C454 1.334 . S
N452 C455 1.328 . S
C453 C454 1.391 . S
C453 N456 1.329 . S
C453 H474 0.930 . S
C454 N452 1.334 . S
C454 C453 1.391 . S
C454 H461 0.930 . S
C455 N452 1.328 . S
C455 C457 1.392 . S
C455 H462 0.930 . S
N456 C453 1.329 . S
N456 C457 1.331 . S
C457 C455 1.392 . S
C457 N456 1.331 . S
O458 Zn451 1.975 1_545 S
O458 C459 1.254 . S
C459 O458 1.254 . S
C459 O460 1.250 1_545 S
O460 Zn442 1.975 1_565 S
O460 C459 1.250 1_565 S
H461 C454 0.930 . S
H462 C455 0.930 . S
C463 C464 1.392 . S
C463 N467 1.328 . S
C463 H469 0.930 . S
C464 C463 1.392 . S
C464 N468 1.331 . S
C465 C466 1.391 . S
C465 N468 1.329 . S
C465 H475 0.930 . S
C466 C465 1.391 . S
C466 N467 1.334 . S
C466 H473 0.930 . S
N467 Zn451 2.119 . S
N467 C463 1.328 . S
N467 C466 1.334 . S
N468 C464 1.331 . S
N468 C465 1.329 . S
H469 C463 0.930 . S
C470 O450 1.257 1_565 S
C470 O471 1.244 . S
O471 C470 1.244 . S
O472 C448 1.257 1_565 S
O472 Zn451 2.019 . S
H473 C466 0.930 . S
H474 C453 0.930 . S
H475 C465 0.930 . S
Zn476 N480 2.020 . S
Zn476 O484 2.019 1_556 S
Zn476 N486 2.119 . S
Zn476 O494 1.975 . S
C477 N478 1.334 . S
C477 N481 1.336 . S
N478 C477 1.334 . S
N478 C479 1.334 . S
C479 N478 1.334 . S
C479 N480 1.336 . S
N480 Zn476 2.020 . S
N480 C479 1.336 . S
N480 N481 1.354 . S
N481 C477 1.336 . S
N481 N480 1.354 . S
N481 Zn485 2.020 . S
C482 O483 1.244 . S
C482 O506 1.257 . S
O483 C482 1.244 . S
O484 Zn476 2.019 1_554 S
O484 C504 1.257 . S
Zn485 N481 2.020 . S
Zn485 O492 1.975 . S
Zn485 N501 2.119 . S
Zn485 O506 2.019 . S
N486 Zn476 2.119 . S
N486 C488 1.334 . S
N486 C489 1.328 . S
C487 C488 1.391 . S
C487 N490 1.329 . S
C487 H508 0.930 . S
C488 N486 1.334 . S
C488 C487 1.391 . S
C488 H495 0.930 . S
C489 N486 1.328 . S
C489 C491 1.392 . S
C489 H496 0.886 1_556 S
N490 C487 1.329 . S
N490 C491 1.331 . S
C491 C489 1.392 . S
C491 N490 1.331 . S
O492 Zn485 1.975 . S
O492 C493 1.252 . S
C493 O492 1.252 . S
C493 O494 1.252 . S
O494 Zn476 1.975 . S
O494 C493 1.252 . S
H495 C488 0.930 . S
H496 C489 0.886 1_554 S
C497 C498 1.392 . S
C497 N501 1.328 . S
C497 H503 0.930 . S
C498 C497 1.392 . S
C498 N502 1.331 . S
C499 C500 1.391 . S
C499 N502 1.329 . S
C499 H509 0.930 . S
C500 C499 1.391 . S
C500 N501 1.334 . S
C500 H507 0.930 . S
N501 Zn485 2.119 . S
N501 C497 1.328 . S
N501 C500 1.334 . S
N502 C498 1.331 . S
N502 C499 1.329 . S
H503 C497 0.930 . S
C504 O484 1.257 . S
C504 O505 1.205 1_554 S
O505 C504 1.205 1_556 S
O506 C482 1.257 . S
O506 Zn485 2.019 . S
H507 C500 0.930 . S
H508 C487 0.930 . S
H509 C499 0.930 . S
Zn510 N514 2.020 . S
Zn510 O518 2.019 . S
Zn510 N520 2.119 . S
Zn510 O528 1.975 1_545 S
C511 N512 1.334 1_565 S
C511 N515 1.336 . S
N512 C511 1.334 1_545 S
N512 C513 1.334 . S
C513 N512 1.334 . S
C513 N514 1.336 . S
N514 Zn510 2.020 . S
N514 C513 1.336 . S
N514 N515 1.354 1_545 S
N515 C511 1.336 . S
N515 N514 1.354 1_565 S
N515 Zn519 2.020 . S
C516 O517 1.244 . S
C516 O540 1.257 1_545 S
O517 C516 1.244 . S
O518 Zn510 2.019 . S
O518 C538 1.257 1_545 S
Zn519 N515 2.020 . S
Zn519 O526 1.975 1_565 S
Zn519 N535 2.119 . S
Zn519 O540 2.019 . S
N520 Zn510 2.119 . S
N520 C522 1.334 . S
N520 C523 1.328 . S
C521 C522 1.391 . S
C521 N524 1.329 . S
C521 H542 0.930 . S
C522 N520 1.334 . S
C522 C521 1.391 . S
C522 H529 0.930 . S
C523 N520 1.328 . S
C523 C525 1.392 . S
C523 H530 0.930 . S
N524 C521 1.329 . S
N524 C525 1.331 . S
C525 C523 1.392 . S
C525 N524 1.331 . S
O526 Zn519 1.975 1_545 S
O526 C527 1.250 1_545 S
C527 O526 1.250 1_565 S
C527 O528 1.254 . S
O528 Zn510 1.975 1_565 S
O528 C527 1.254 . S
H529 C522 0.930 . S
H530 C523 0.930 . S
C531 C532 1.392 . S
C531 N535 1.328 . S
C531 H537 0.930 . S
C532 C531 1.392 . S
C532 N536 1.331 . S
C533 C534 1.391 . S
C533 N536 1.329 . S
C533 H543 0.930 . S
C534 C533 1.391 . S
C534 N535 1.334 . S
C534 H541 0.930 . S
N535 Zn519 2.119 . S
N535 C531 1.328 . S
N535 C534 1.334 . S
N536 C532 1.331 . S
N536 C533 1.329 . S
H537 C531 0.930 . S
C538 O518 1.257 1_565 S
C538 O539 1.244 . S
O539 C538 1.244 . S
O540 C516 1.257 1_565 S
O540 Zn519 2.019 . S
H541 C534 0.930 . S
H542 C521 0.930 . S
H543 C533 0.930 . S
H544 C550 0.930 . S
H545 C554 0.930 1_565 S
H546 C559 0.929 . S
H547 C557 0.929 . S
H548 C552 0.929 . S
H549 C558 0.929 . S
C550 H544 0.930 . S
C550 C551 1.367 . S
C550 C558 1.378 . S
C551 C550 1.367 . S
C551 C559 1.433 1_545 S
C552 H548 0.929 . S
C552 C554 1.378 1_565 S
C552 C556 1.350 1_565 S
C553 C556 1.463 . S
C553 C558 1.350 . S
C553 N561 1.427 1_545 S
C554 H545 0.930 1_545 S
C554 C552 1.378 1_545 S
C554 C555 1.367 . S
C555 C554 1.367 . S
C555 C557 1.433 . S
C556 C552 1.350 1_545 S
C556 C553 1.463 . S
C556 N560 1.427 . S
C557 H547 0.929 . S
C557 C555 1.433 . S
C557 N560 1.384 . S
C558 H549 0.929 . S
C558 C550 1.378 . S
C558 C553 1.350 . S
C559 H546 0.929 . S
C559 C551 1.433 1_565 S
C559 N561 1.384 . S
N560 C556 1.427 . S
N560 C557 1.384 . S
N561 C553 1.427 1_565 S
N561 C559 1.384 . S
H562 C568 0.930 . S
H563 C572 0.930 . S
H564 C577 0.929 . S
H565 C575 0.929 . S
H566 C570 0.929 . S
H567 C576 0.929 . S
C568 H562 0.930 . S
C568 C569 1.367 . S
C568 C576 1.378 . S
C569 C568 1.367 . S
C569 C577 1.433 . S
C570 H566 0.929 . S
C570 C572 1.378 . S
C570 C574 1.350 . S
C571 C574 1.463 . S
C571 C576 1.350 . S
C571 N579 1.427 . S
C572 H563 0.930 . S
C572 C570 1.378 . S
C572 C573 1.367 . S
C573 C572 1.367 . S
C573 C575 1.433 . S
C574 C570 1.350 . S
C574 C571 1.463 . S
C574 N578 1.427 . S
C575 H565 0.929 . S
C575 C573 1.433 . S
C575 N578 1.384 . S
C576 H567 0.929 . S
C576 C568 1.378 . S
C576 C571 1.350 . S
C577 H564 0.929 . S
C577 C569 1.433 . S
C577 N579 1.384 . S
N578 C574 1.427 . S
N578 C575 1.384 . S
N579 C571 1.427 . S
N579 C577 1.384 . S
H580 C586 0.930 . S
H581 C590 0.930 . S
H582 C595 0.929 . S
H583 C593 0.929 . S
H584 C588 0.929 . S
H585 C594 0.929 1_545 S
C586 H580 0.930 . S
C586 C587 1.367 1_545 S
C586 C594 1.378 1_545 S
C587 C586 1.367 1_565 S
C587 C595 1.433 . S
C588 H584 0.929 . S
C588 C590 1.378 . S
C588 C592 1.350 . S
C589 C592 1.463 . S
C589 C594 1.350 . S
C589 N597 1.427 . S
C590 H581 0.930 . S
C590 C588 1.378 . S
C590 C591 1.367 . S
C591 C590 1.367 . S
C591 C593 1.433 . S
C592 C588 1.350 . S
C592 C589 1.463 . S
C592 N596 1.427 . S
C593 H583 0.929 . S
C593 C591 1.433 . S
C593 N596 1.384 . S
C594 H585 0.929 1_565 S
C594 C586 1.378 1_565 S
C594 C589 1.350 . S
C595 H582 0.929 . S
C595 C587 1.433 . S
C595 N597 1.384 . S
N596 C592 1.427 . S
N596 C593 1.384 . S
N597 C589 1.427 . S
N597 C595 1.384 . S
H598 C604 0.930 . S
H599 C608 0.930 . S
H600 C613 0.929 . S
H601 C611 0.929 . S
H602 C606 0.929 . S
H603 C612 0.929 . S
C604 H598 0.930 . S
C604 C605 1.367 . S
C604 C612 1.378 . S
C605 C604 1.367 . S
C605 C613 1.433 . S
C606 H602 0.929 . S
C606 C608 1.378 . S
C606 C610 1.350 . S
C607 C610 1.463 . S
C607 C612 1.350 . S
C607 N615 1.427 . S
C608 H599 0.930 . S
C608 C606 1.378 . S
C608 C609 1.367 . S
C609 C608 1.367 . S
C609 C611 1.433 . S
C610 C606 1.350 . S
C610 C607 1.463 . S
C610 N614 1.427 . S
C611 H601 0.929 . S
C611 C609 1.433 . S
C611 N614 1.384 . S
C612 H603 0.929 . S
C612 C604 1.378 . S
C612 C607 1.350 . S
C613 H600 0.929 . S
C613 C605 1.433 . S
C613 N615 1.384 . S
N614 C610 1.427 . S
N614 C611 1.384 . S
N615 C607 1.427 . S
N615 C613 1.384 . S
H616 C622 0.930 1_545 S
H617 C626 0.930 . S
H618 C631 0.929 . S
H619 C629 0.929 . S
H620 C624 0.929 . S
H621 C630 0.929 . S
C622 H616 0.930 1_565 S
C622 C623 1.367 . S
C622 C630 1.378 1_565 S
C623 C622 1.367 . S
C623 C631 1.433 . S
C624 H620 0.929 . S
C624 C626 1.378 . S
C624 C628 1.350 . S
C625 C628 1.463 . S
C625 C630 1.350 1_565 S
C625 N633 1.427 . S
C626 H617 0.930 . S
C626 C624 1.378 . S
C626 C627 1.367 . S
C627 C626 1.367 . S
C627 C629 1.433 1_565 S
C628 C624 1.350 . S
C628 C625 1.463 . S
C628 N632 1.427 1_565 S
C629 H619 0.929 . S
C629 C627 1.433 1_545 S
C629 N632 1.384 . S
C630 H621 0.929 . S
C630 C622 1.378 1_545 S
C630 C625 1.350 1_545 S
C631 H618 0.929 . S
C631 C623 1.433 . S
C631 N633 1.384 . S
N632 C628 1.427 1_545 S
N632 C629 1.384 . S
N633 C625 1.427 . S
N633 C631 1.384 . S
H634 C640 0.930 . S
H635 C644 0.930 . S
H636 C649 0.929 . S
H637 C647 0.929 . S
H638 C642 0.929 . S
H639 C648 0.929 . S
C640 H634 0.930 . S
C640 C641 1.367 . S
C640 C648 1.378 . S
C641 C640 1.367 . S
C641 C649 1.433 . S
C642 H638 0.929 . S
C642 C644 1.378 . S
C642 C646 1.350 . S
C643 C646 1.463 . S
C643 C648 1.350 . S
C643 N651 1.427 . S
C644 H635 0.930 . S
C644 C642 1.378 . S
C644 C645 1.367 . S
C645 C644 1.367 . S
C645 C647 1.433 . S
C646 C642 1.350 . S
C646 C643 1.463 . S
C646 N650 1.427 . S
C647 H637 0.929 . S
C647 C645 1.433 . S
C647 N650 1.384 . S
C648 H639 0.929 . S
C648 C640 1.378 . S
C648 C643 1.350 . S
C649 H636 0.929 . S
C649 C641 1.433 . S
C649 N651 1.384 . S
N650 C646 1.427 . S
N650 C647 1.384 . S
N651 C643 1.427 . S
N651 C649 1.384 . S
H652 C658 0.930 . S
H653 C662 0.930 . S
H654 C667 0.930 . S
H655 C665 0.929 . S
H656 C660 0.929 1_565 S
H657 C666 0.929 . S
C658 H652 0.930 . S
C658 C659 1.367 . S
C658 C666 1.378 . S
C659 C658 1.367 . S
C659 C667 1.433 1_545 S
C660 H656 0.929 1_545 S
C660 C662 1.378 . S
C660 C664 1.350 . S
C661 C664 1.463 . S
C661 C666 1.350 . S
C661 N669 1.427 . S
C662 H653 0.930 . S
C662 C660 1.378 . S
C662 C663 1.367 . S
C663 C662 1.367 . S
C663 C665 1.433 . S
C664 C660 1.350 . S
C664 C661 1.463 . S
C664 N668 1.427 . S
C665 H655 0.929 . S
C665 C663 1.433 . S
C665 N668 1.384 . S
C666 H657 0.929 . S
C666 C658 1.378 . S
C666 C661 1.350 . S
C667 H654 0.930 . S
C667 C659 1.433 1_565 S
C667 N669 1.383 1_565 S
N668 C664 1.427 . S
N668 C665 1.384 . S
N669 C661 1.427 . S
N669 C667 1.383 1_545 S
H670 C676 0.930 . S
H671 C680 0.930 . S
H672 C685 0.929 . S
H673 C683 0.929 . S
H674 C678 0.929 . S
H675 C684 0.929 . S
C676 H670 0.930 . S
C676 C677 1.367 . S
C676 C684 1.378 . S
C677 C676 1.367 . S
C677 C685 1.433 . S
C678 H674 0.929 . S
C678 C680 1.378 . S
C678 C682 1.350 . S
C679 C682 1.463 . S
C679 C684 1.350 . S
C679 N687 1.427 . S
C680 H671 0.930 . S
C680 C678 1.378 . S
C680 C681 1.367 . S
C681 C680 1.367 . S
C681 C683 1.433 . S
C682 C678 1.350 . S
C682 C679 1.463 . S
C682 N686 1.427 . S
C683 H673 0.929 . S
C683 C681 1.433 . S
C683 N686 1.384 . S
C684 H675 0.929 . S
C684 C676 1.378 . S
C684 C679 1.350 . S
C685 H672 0.929 . S
C685 C677 1.433 . S
C685 N687 1.384 . S
N686 C682 1.427 . S
N686 C683 1.384 . S
N687 C679 1.427 . S
N687 C685 1.384 . S
H688 C694 0.930 . S
H689 C698 0.930 . S
H690 C703 0.929 . S
H691 C701 0.929 . S
H692 C696 0.929 . S
H693 C702 0.929 . S
C694 H688 0.930 . S
C694 C695 1.367 . S
C694 C702 1.378 . S
C695 C694 1.367 . S
C695 C703 1.433 . S
C696 H692 0.929 . S
C696 C698 1.378 . S
C696 C700 1.350 . S
C697 C700 1.463 . S
C697 C702 1.350 . S
C697 N705 1.427 . S
C698 H689 0.930 . S
C698 C696 1.378 . S
C698 C699 1.367 . S
C699 C698 1.367 . S
C699 C701 1.433 . S
C700 C696 1.350 . S
C700 C697 1.463 . S
C700 N704 1.427 . S
C701 H691 0.929 . S
C701 C699 1.433 . S
C701 N704 1.384 . S
C702 H693 0.929 . S
C702 C694 1.378 . S
C702 C697 1.350 . S
C703 H690 0.929 . S
C703 C695 1.433 . S
C703 N705 1.384 . S
N704 C700 1.427 . S
N704 C701 1.384 . S
N705 C697 1.427 . S
N705 C703 1.384 . S
H706 C712 0.930 . S
H707 C716 0.930 . S
H708 C721 0.929 . S
H709 C719 0.929 . S
H710 C714 0.929 . S
H711 C720 0.929 . S
C712 H706 0.930 . S
C712 C713 1.367 1_545 S
C712 C720 1.378 . S
C713 C712 1.367 1_565 S
C713 C721 1.433 . S
C714 H710 0.929 . S
C714 C716 1.378 . S
C714 C718 1.350 . S
C715 C718 1.463 . S
C715 C720 1.350 1_565 S
C715 N723 1.427 . S
C716 H707 0.930 . S
C716 C714 1.378 . S
C716 C717 1.367 . S
C717 C716 1.367 . S
C717 C719 1.433 1_565 S
C718 C714 1.350 . S
C718 C715 1.463 . S
C718 N722 1.427 1_565 S
C719 H709 0.929 . S
C719 C717 1.433 1_545 S
C719 N722 1.384 . S
C720 H711 0.929 . S
C720 C712 1.378 . S
C720 C715 1.350 1_545 S
C721 H708 0.929 . S
C721 C713 1.433 . S
C721 N723 1.384 . S
N722 C718 1.427 1_545 S
N722 C719 1.384 . S
N723 C715 1.427 . S
N723 C721 1.384 . S
H724 C730 0.930 . S
H725 C734 0.930 . S
H726 C739 0.929 . S
H727 C737 0.929 . S
H728 C732 0.929 . S
H729 C738 0.929 . S
C730 H724 0.930 . S
C730 C731 1.367 . S
C730 C738 1.378 . S
C731 C730 1.367 . S
C731 C739 1.433 . S
C732 H728 0.929 . S
C732 C734 1.378 . S
C732 C736 1.350 . S
C733 C736 1.463 . S
C733 C738 1.350 . S
C733 N741 1.427 . S
C734 H725 0.930 . S
C734 C732 1.378 . S
C734 C735 1.367 . S
C735 C734 1.367 . S
C735 C737 1.433 . S
C736 C732 1.350 . S
C736 C733 1.463 . S
C736 N740 1.427 . S
C737 H727 0.929 . S
C737 C735 1.433 . S
C737 N740 1.384 . S
C738 H729 0.929 . S
C738 C730 1.378 . S
C738 C733 1.350 . S
C739 H726 0.929 . S
C739 C731 1.433 . S
C739 N741 1.384 . S
N740 C736 1.427 . S
N740 C737 1.384 . S
N741 C733 1.427 . S
N741 C739 1.384 . S
H742 C748 0.930 . S
H743 C752 0.930 . S
H744 C757 0.929 . S
H745 C755 0.929 . S
H746 C750 0.929 . S
H747 C756 0.929 . S
C748 H742 0.930 . S
C748 C749 1.367 1_565 S
C748 C756 1.378 . S
C749 C748 1.367 1_545 S
C749 C757 1.433 . S
C750 H746 0.929 . S
C750 C752 1.378 . S
C750 C754 1.350 . S
C751 C754 1.463 . S
C751 C756 1.350 1_545 S
C751 N759 1.427 . S
C752 H743 0.930 . S
C752 C750 1.378 . S
C752 C753 1.367 . S
C753 C752 1.367 . S
C753 C755 1.433 1_545 S
C754 C750 1.350 . S
C754 C751 1.463 . S
C754 N758 1.427 1_545 S
C755 H745 0.929 . S
C755 C753 1.433 1_565 S
C755 N758 1.384 . S
C756 H747 0.929 . S
C756 C748 1.378 . S
C756 C751 1.350 1_565 S
C757 H744 0.929 . S
C757 C749 1.433 . S
C757 N759 1.384 . S
N758 C754 1.427 1_565 S
N758 C755 1.384 . S
N759 C751 1.427 . S
N759 C757 1.384 . S
H760 C766 0.930 . S
H761 C770 0.930 . S
H762 C775 0.929 . S
H763 C773 0.929 . S
H764 C768 0.929 . S
H765 C774 0.929 . S
C766 H760 0.930 . S
C766 C767 1.367 . S
C766 C774 1.378 . S
C767 C766 1.367 . S
C767 C775 1.433 . S
C768 H764 0.929 . S
C768 C770 1.378 . S
C768 C772 1.350 . S
C769 C772 1.463 . S
C769 C774 1.350 . S
C769 N777 1.427 . S
C770 H761 0.930 . S
C770 C768 1.378 . S
C770 C771 1.367 . S
C771 C770 1.367 . S
C771 C773 1.433 . S
C772 C768 1.350 . S
C772 C769 1.463 . S
C772 N776 1.427 . S
C773 H763 0.929 . S
C773 C771 1.433 . S
C773 N776 1.384 . S
C774 H765 0.929 . S
C774 C766 1.378 . S
C774 C769 1.350 . S
C775 H762 0.929 . S
C775 C767 1.433 . S
C775 N777 1.384 . S
N776 C772 1.427 . S
N776 C773 1.384 . S
N777 C769 1.427 . S
N777 C775 1.384 . S
H778 C784 0.930 . S
H779 C788 0.930 . S
H780 C793 0.929 . S
H781 C791 0.929 . S
H782 C786 0.929 . S
H783 C792 0.929 . S
C784 H778 0.930 . S
C784 C785 1.367 . S
C784 C792 1.378 . S
C785 C784 1.367 . S
C785 C793 1.433 1_545 S
C786 H782 0.929 . S
C786 C788 1.378 . S
C786 C790 1.350 1_565 S
C787 C790 1.463 . S
C787 C792 1.350 . S
C787 N795 1.427 1_545 S
C788 H779 0.930 . S
C788 C786 1.378 . S
C788 C789 1.367 1_565 S
C789 C788 1.367 1_545 S
C789 C791 1.433 . S
C790 C786 1.350 1_545 S
C790 C787 1.463 . S
C790 N794 1.427 . S
C791 H781 0.929 . S
C791 C789 1.433 . S
C791 N794 1.384 . S
C792 H783 0.929 . S
C792 C784 1.378 . S
C792 C787 1.350 . S
C793 H780 0.929 . S
C793 C785 1.433 1_565 S
C793 N795 1.384 . S
N794 C790 1.427 . S
N794 C791 1.384 . S
N795 C787 1.427 1_565 S
N795 C793 1.384 . S
H796 C802 0.930 . S
H797 C806 0.930 . S
H798 C811 0.929 . S
H799 C809 0.929 . S
H800 C804 0.929 . S
H801 C810 0.929 . S
C802 H796 0.930 . S
C802 C803 1.367 . S
C802 C810 1.378 . S
C803 C802 1.367 . S
C803 C811 1.433 . S
C804 H800 0.929 . S
C804 C806 1.378 . S
C804 C808 1.350 . S
C805 C808 1.463 . S
C805 C810 1.350 . S
C805 N813 1.427 . S
C806 H797 0.930 . S
C806 C804 1.378 . S
C806 C807 1.367 . S
C807 C806 1.367 . S
C807 C809 1.433 . S
C808 C804 1.350 . S
C808 C805 1.463 . S
C808 N812 1.427 . S
C809 H799 0.929 . S
C809 C807 1.433 . S
C809 N812 1.384 . S
C810 H801 0.929 . S
C810 C802 1.378 . S
C810 C805 1.350 . S
C811 H798 0.929 . S
C811 C803 1.433 . S
C811 N813 1.384 . S
N812 C808 1.427 . S
N812 C809 1.384 . S
N813 C805 1.427 . S
N813 C811 1.384 . S
H814 C820 0.930 . S
H815 C824 0.930 . S
H816 C829 0.929 . S
H817 C827 0.929 . S
H818 C822 0.929 . S
H819 C828 0.929 . S
C820 H814 0.930 . S
C820 C821 1.367 1_545 S
C820 C828 1.378 . S
C821 C820 1.367 1_565 S
C821 C829 1.433 . S
C822 H818 0.929 . S
C822 C824 1.378 . S
C822 C826 1.350 . S
C823 C826 1.463 . S
C823 C828 1.350 1_565 S
C823 N831 1.427 . S
C824 H815 0.930 . S
C824 C822 1.378 . S
C824 C825 1.367 . S
C825 C824 1.367 . S
C825 C827 1.433 1_565 S
C826 C822 1.350 . S
C826 C823 1.463 . S
C826 N830 1.427 1_565 S
C827 H817 0.929 . S
C827 C825 1.433 1_545 S
C827 N830 1.384 . S
C828 H819 0.929 . S
C828 C820 1.378 . S
C828 C823 1.350 1_545 S
C829 H816 0.929 . S
C829 C821 1.433 . S
C829 N831 1.384 . S
N830 C826 1.427 1_545 S
N830 C827 1.384 . S
N831 C823 1.427 . S
N831 C829 1.384 . S
H832 C838 0.930 . S
H833 C842 0.930 . S
H834 C847 0.929 . S
H835 C845 0.929 . S
H836 C840 0.929 . S
H837 C846 0.929 . S
C838 H832 0.930 . S
C838 C839 1.367 . S
C838 C846 1.378 . S
C839 C838 1.367 . S
C839 C847 1.433 . S
C840 H836 0.929 . S
C840 C842 1.378 . S
C840 C844 1.350 . S
C841 C844 1.463 . S
C841 C846 1.350 . S
C841 N849 1.427 . S
C842 H833 0.930 . S
C842 C840 1.378 . S
C842 C843 1.367 . S
C843 C842 1.367 . S
C843 C845 1.433 . S
C844 C840 1.350 . S
C844 C841 1.463 . S
C844 N848 1.427 . S
C845 H835 0.929 . S
C845 C843 1.433 . S
C845 N848 1.384 . S
C846 H837 0.929 . S
C846 C838 1.378 . S
C846 C841 1.350 . S
C847 H834 0.929 . S
C847 C839 1.433 . S
C847 N849 1.384 . S
N848 C844 1.427 . S
N848 C845 1.384 . S
N849 C841 1.427 . S
N849 C847 1.384 . S
H850 C856 0.930 . S
H851 C860 0.930 . S
H852 C865 0.929 . S
H853 C863 0.929 . S
H854 C858 0.929 . S
H855 C864 0.929 . S
C856 H850 0.930 . S
C856 C857 1.367 . S
C856 C864 1.378 . S
C857 C856 1.367 . S
C857 C865 1.433 . S
C858 H854 0.929 . S
C858 C860 1.378 . S
C858 C862 1.350 . S
C859 C862 1.463 . S
C859 C864 1.350 . S
C859 N867 1.427 . S
C860 H851 0.930 . S
C860 C858 1.378 . S
C860 C861 1.367 . S
C861 C860 1.367 . S
C861 C863 1.433 . S
C862 C858 1.350 . S
C862 C859 1.463 . S
C862 N866 1.427 . S
C863 H853 0.929 . S
C863 C861 1.433 . S
C863 N866 1.384 . S
C864 H855 0.929 . S
C864 C856 1.378 . S
C864 C859 1.350 . S
C865 H852 0.929 . S
C865 C857 1.433 . S
C865 N867 1.384 . S
N866 C862 1.427 . S
N866 C863 1.384 . S
N867 C859 1.427 . S
N867 C865 1.384 . S
H868 C874 0.930 . S
H869 C878 0.930 . S
H870 C883 0.929 . S
H871 C881 0.929 . S
H872 C876 0.929 . S
H873 C882 0.929 . S
C874 H868 0.930 . S
C874 C875 1.367 . S
C874 C882 1.378 . S
C875 C874 1.367 . S
C875 C883 1.433 . S
C876 H872 0.929 . S
C876 C878 1.378 . S
C876 C880 1.350 . S
C877 C880 1.463 . S
C877 C882 1.350 . S
C877 N885 1.427 . S
C878 H869 0.930 . S
C878 C876 1.378 . S
C878 C879 1.367 . S
C879 C878 1.367 . S
C879 C881 1.433 . S
C880 C876 1.350 . S
C880 C877 1.463 . S
C880 N884 1.427 . S
C881 H871 0.929 . S
C881 C879 1.433 . S
C881 N884 1.384 . S
C882 H873 0.929 . S
C882 C874 1.378 . S
C882 C877 1.350 . S
C883 H870 0.929 . S
C883 C875 1.433 . S
C883 N885 1.384 . S
N884 C880 1.427 . S
N884 C881 1.384 . S
N885 C877 1.427 . S
N885 C883 1.384 . S
H886 C892 0.930 . S
H887 C896 0.930 . S
H888 C901 0.929 . S
H889 C899 0.929 . S
H890 C894 0.929 . S
H891 C900 0.929 1_655 S
C892 H886 0.930 . S
C892 C893 1.367 . S
C892 C900 1.378 . S
C893 C892 1.367 . S
C893 C901 1.433 . S
C894 H890 0.929 . S
C894 C896 1.378 . S
C894 C898 1.350 . S
C895 C898 1.463 . S
C895 C900 1.350 1_655 S
C895 N903 1.427 1_655 S
C896 H887 0.930 . S
C896 C894 1.378 . S
C896 C897 1.367 . S
C897 C896 1.367 . S
C897 C899 1.433 . S
C898 C894 1.350 . S
C898 C895 1.463 . S
C898 N902 1.427 . S
C899 H889 0.929 . S
C899 C897 1.433 . S
C899 N902 1.384 . S
C900 H891 0.929 1_455 S
C900 C892 1.378 . S
C900 C895 1.350 1_455 S
C901 H888 0.929 . S
C901 C893 1.433 . S
C901 N903 1.384 . S
N902 C898 1.427 . S
N902 C899 1.384 . S
N903 C895 1.427 1_455 S
N903 C901 1.384 . S
H904 C910 0.930 . S
H905 C914 0.930 . S
H906 C919 0.929 . S
H907 C917 0.929 . S
H908 C912 0.929 . S
H909 C918 0.929 . S
C910 H904 0.930 . S
C910 C911 1.367 . S
C910 C918 1.378 . S
C911 C910 1.367 . S
C911 C919 1.433 . S
C912 H908 0.929 . S
C912 C914 1.378 . S
C912 C916 1.350 . S
C913 C916 1.463 . S
C913 C918 1.350 . S
C913 N921 1.427 . S
C914 H905 0.930 . S
C914 C912 1.378 . S
C914 C915 1.367 . S
C915 C914 1.367 . S
C915 C917 1.433 . S
C916 C912 1.350 . S
C916 C913 1.463 . S
C916 N920 1.427 . S
C917 H907 0.929 . S
C917 C915 1.433 . S
C917 N920 1.384 . S
C918 H909 0.929 . S
C918 C910 1.378 . S
C918 C913 1.350 . S
C919 H906 0.929 . S
C919 C911 1.433 . S
C919 N921 1.384 . S
N920 C916 1.427 . S
N920 C917 1.384 . S
N921 C913 1.427 . S
N921 C919 1.384 . S
H922 C928 0.930 . S
H923 C932 0.930 . S
H924 C937 0.929 . S
H925 C935 0.929 . S
H926 C930 0.929 . S
H927 C936 0.929 . S
C928 H922 0.930 . S
C928 C929 1.367 . S
C928 C936 1.378 . S
C929 C928 1.367 . S
C929 C937 1.433 . S
C930 H926 0.929 . S
C930 C932 1.378 . S
C930 C934 1.350 . S
C931 C934 1.463 . S
C931 C936 1.350 . S
C931 N939 1.427 . S
C932 H923 0.930 . S
C932 C930 1.378 . S
C932 C933 1.367 . S
C933 C932 1.367 . S
C933 C935 1.433 . S
C934 C930 1.350 . S
C934 C931 1.463 . S
C934 N938 1.427 . S
C935 H925 0.929 . S
C935 C933 1.433 . S
C935 N938 1.384 . S
C936 H927 0.929 . S
C936 C928 1.378 . S
C936 C931 1.350 . S
C937 H924 0.929 . S
C937 C929 1.433 . S
C937 N939 1.384 . S
N938 C934 1.427 . S
N938 C935 1.384 . S
N939 C931 1.427 . S
N939 C937 1.384 . S
H940 C946 0.930 . S
H941 C950 0.930 . S
H942 C955 0.929 . S
H943 C953 0.929 . S
H944 C948 0.929 . S
H945 C954 0.929 . S
C946 H940 0.930 . S
C946 C947 1.367 . S
C946 C954 1.378 . S
C947 C946 1.367 . S
C947 C955 1.433 . S
C948 H944 0.929 . S
C948 C950 1.378 . S
C948 C952 1.350 . S
C949 C952 1.463 . S
C949 C954 1.350 . S
C949 N957 1.427 . S
C950 H941 0.930 . S
C950 C948 1.378 . S
C950 C951 1.367 . S
C951 C950 1.367 . S
C951 C953 1.433 . S
C952 C948 1.350 . S
C952 C949 1.463 . S
C952 N956 1.427 . S
C953 H943 0.929 . S
C953 C951 1.433 . S
C953 N956 1.384 . S
C954 H945 0.929 . S
C954 C946 1.378 . S
C954 C949 1.350 . S
C955 H942 0.929 . S
C955 C947 1.433 . S
C955 N957 1.384 . S
N956 C952 1.427 . S
N956 C953 1.384 . S
N957 C949 1.427 . S
N957 C955 1.384 . S
H958 C964 0.930 . S
H959 C968 0.930 . S
H960 C973 0.929 . S
H961 C971 0.929 . S
H962 C966 0.929 . S
H963 C972 0.924 1_455 S
C964 H958 0.930 . S
C964 C965 1.367 . S
C964 C972 1.383 . S
C965 C964 1.367 . S
C965 C973 1.433 . S
C966 H962 0.929 . S
C966 C968 1.378 . S
C966 C970 1.350 . S
C967 C970 1.463 . S
C967 C972 1.349 1_455 S
C967 N975 1.427 1_455 S
C968 H959 0.930 . S
C968 C966 1.378 . S
C968 C969 1.367 . S
C969 C968 1.367 . S
C969 C971 1.433 . S
C970 C966 1.350 . S
C970 C967 1.463 . S
C970 N974 1.427 . S
C971 H961 0.929 . S
C971 C969 1.433 . S
C971 N974 1.384 . S
C972 H963 0.924 1_655 S
C972 C964 1.383 . S
C972 C967 1.349 1_655 S
C973 H960 0.929 . S
C973 C965 1.433 . S
C973 N975 1.384 . S
N974 C970 1.427 . S
N974 C971 1.384 . S
N975 C967 1.427 1_655 S
N975 C973 1.384 . S
H976 C982 0.930 . S
H977 C986 0.930 . S
H978 C991 0.929 . S
H979 C989 0.929 . S
H980 C984 0.929 . S
H981 C990 0.929 . S
C982 H976 0.930 . S
C982 C983 1.367 . S
C982 C990 1.378 . S
C983 C982 1.367 . S
C983 C991 1.433 . S
C984 H980 0.929 . S
C984 C986 1.378 . S
C984 C988 1.350 . S
C985 C988 1.463 . S
C985 C990 1.350 . S
C985 N993 1.427 . S
C986 H977 0.930 . S
C986 C984 1.378 . S
C986 C987 1.367 . S
C987 C986 1.367 . S
C987 C989 1.433 . S
C988 C984 1.350 . S
C988 C985 1.463 . S
C988 N992 1.427 . S
C989 H979 0.929 . S
C989 C987 1.433 . S
C989 N992 1.384 . S
C990 H981 0.929 . S
C990 C982 1.378 . S
C990 C985 1.350 . S
C991 H978 0.929 . S
C991 C983 1.433 . S
C991 N993 1.384 . S
N992 C988 1.427 . S
N992 C989 1.384 . S
N993 C985 1.427 . S
N993 C991 1.384 . S
H994 C1000 0.930 . S
H995 C1004 0.930 . S
H996 C1009 0.929 . S
H997 C1007 0.929 . S
H998 C1002 0.929 . S
H999 C1008 0.929 . S
C1000 H994 0.930 . S
C1000 C1001 1.367 1_545 S
C1000 C1008 1.378 . S
C1001 C1000 1.367 1_565 S
C1001 C1009 1.433 . S
C1002 H998 0.929 . S
C1002 C1004 1.378 . S
C1002 C1006 1.350 1_655 S
C1003 C1006 1.463 . S
C1003 C1008 1.350 1_565 S
C1003 N1011 1.427 . S
C1004 H995 0.930 . S
C1004 C1002 1.378 . S
C1004 C1005 1.367 . S
C1005 C1004 1.367 . S
C1005 C1007 1.433 1_565 S
C1006 C1002 1.350 1_455 S
C1006 C1003 1.463 . S
C1006 N1010 1.427 1_465 S
C1007 H997 0.929 . S
C1007 C1005 1.433 1_545 S
C1007 N1010 1.384 . S
C1008 H999 0.929 . S
C1008 C1000 1.378 . S
C1008 C1003 1.350 1_545 S
C1009 H996 0.929 . S
C1009 C1001 1.433 . S
C1009 N1011 1.384 . S
N1010 C1006 1.427 1_645 S
N1010 C1007 1.384 . S
N1011 C1003 1.427 . S
N1011 C1009 1.384 . S
H1012 C1018 0.930 . S
H1013 C1022 0.930 . S
H1014 C1027 0.929 . S
H1015 C1025 0.929 . S
H1016 C1020 0.929 . S
H1017 C1026 0.929 . S
C1018 H1012 0.930 . S
C1018 C1019 1.367 . S
C1018 C1026 1.378 . S
C1019 C1018 1.367 . S
C1019 C1027 1.433 . S
C1020 H1016 0.929 . S
C1020 C1022 1.378 . S
C1020 C1024 1.350 . S
C1021 C1024 1.463 . S
C1021 C1026 1.350 . S
C1021 N1029 1.427 . S
C1022 H1013 0.930 . S
C1022 C1020 1.378 . S
C1022 C1023 1.367 . S
C1023 C1022 1.367 . S
C1023 C1025 1.433 . S
C1024 C1020 1.350 . S
C1024 C1021 1.463 . S
C1024 N1028 1.427 . S
C1025 H1015 0.929 . S
C1025 C1023 1.433 . S
C1025 N1028 1.384 . S
C1026 H1017 0.929 . S
C1026 C1018 1.378 . S
C1026 C1021 1.350 . S
C1027 H1014 0.929 . S
C1027 C1019 1.433 . S
C1027 N1029 1.384 . S
N1028 C1024 1.427 . S
N1028 C1025 1.384 . S
N1029 C1021 1.427 . S
N1029 C1027 1.384 . S
H1030 C1036 0.930 . S
H1031 C1040 0.930 . S
H1032 C1045 0.929 . S
H1033 C1043 0.929 . S
H1034 C1038 0.929 . S
H1035 C1044 0.929 . S
C1036 H1030 0.930 . S
C1036 C1037 1.367 1_565 S
C1036 C1044 1.378 . S
C1037 C1036 1.367 1_545 S
C1037 C1045 1.433 . S
C1038 H1034 0.929 . S
C1038 C1040 1.378 . S
C1038 C1042 1.350 . S
C1039 C1042 1.463 . S
C1039 C1044 1.350 1_545 S
C1039 N1047 1.427 . S
C1040 H1031 0.930 . S
C1040 C1038 1.378 . S
C1040 C1041 1.367 . S
C1041 C1040 1.367 . S
C1041 C1043 1.433 1_545 S
C1042 C1038 1.350 . S
C1042 C1039 1.463 . S
C1042 N1046 1.427 1_545 S
C1043 H1033 0.929 . S
C1043 C1041 1.433 1_565 S
C1043 N1046 1.384 . S
C1044 H1035 0.929 . S
C1044 C1036 1.378 . S
C1044 C1039 1.350 1_565 S
C1045 H1032 0.929 . S
C1045 C1037 1.433 . S
C1045 N1047 1.384 . S
N1046 C1042 1.427 1_565 S
N1046 C1043 1.384 . S
N1047 C1039 1.427 . S
N1047 C1045 1.384 . S
H1048 C1054 0.930 . S
H1049 C1058 0.930 . S
H1050 C1063 0.929 . S
H1051 C1061 0.929 . S
H1052 C1056 0.929 . S
H1053 C1062 0.929 . S
C1054 H1048 0.930 . S
C1054 C1055 1.367 . S
C1054 C1062 1.378 . S
C1055 C1054 1.367 . S
C1055 C1063 1.433 . S
C1056 H1052 0.929 . S
C1056 C1058 1.378 . S
C1056 C1060 1.350 . S
C1057 C1060 1.463 . S
C1057 C1062 1.350 . S
C1057 N1065 1.427 . S
C1058 H1049 0.930 . S
C1058 C1056 1.378 . S
C1058 C1059 1.367 . S
C1059 C1058 1.367 . S
C1059 C1061 1.433 . S
C1060 C1056 1.350 . S
C1060 C1057 1.463 . S
C1060 N1064 1.427 . S
C1061 H1051 0.929 . S
C1061 C1059 1.433 . S
C1061 N1064 1.384 . S
C1062 H1053 0.929 . S
C1062 C1054 1.378 . S
C1062 C1057 1.350 . S
C1063 H1050 0.929 . S
C1063 C1055 1.433 . S
C1063 N1065 1.384 . S
N1064 C1060 1.427 . S
N1064 C1061 1.384 . S
N1065 C1057 1.427 . S
N1065 C1063 1.384 . S
H1066 C1072 0.930 . S
H1067 C1076 0.930 . S
H1068 C1081 0.929 . S
H1069 C1079 0.929 . S
H1070 C1074 0.929 . S
H1071 C1080 0.929 . S
C1072 H1066 0.930 . S
C1072 C1073 1.367 1_565 S
C1072 C1080 1.378 . S
C1073 C1072 1.367 1_545 S
C1073 C1081 1.433 . S
C1074 H1070 0.929 . S
C1074 C1076 1.378 . S
C1074 C1078 1.350 1_455 S
C1075 C1078 1.463 . S
C1075 C1080 1.350 1_545 S
C1075 N1083 1.427 . S
C1076 H1067 0.930 . S
C1076 C1074 1.378 . S
C1076 C1077 1.367 . S
C1077 C1076 1.367 . S
C1077 C1079 1.433 1_545 S
C1078 C1074 1.350 1_655 S
C1078 C1075 1.463 . S
C1078 N1082 1.427 1_545 S
C1079 H1069 0.929 . S
C1079 C1077 1.433 1_565 S
C1079 N1082 1.384 1_455 S
C1080 H1071 0.929 . S
C1080 C1072 1.378 . S
C1080 C1075 1.350 1_565 S
C1081 H1068 0.929 . S
C1081 C1073 1.433 . S
C1081 N1083 1.384 . S
N1082 C1078 1.427 1_565 S
N1082 C1079 1.384 1_655 S
N1083 C1075 1.427 . S
N1083 C1081 1.384 . S
H1084 C1090 0.930 . S
H1085 C1094 0.930 . S
H1086 C1099 0.929 . S
H1087 C1097 0.929 . S
H1088 C1092 0.929 . S
H1089 C1098 0.929 . S
C1090 H1084 0.930 . S
C1090 C1091 1.367 . S
C1090 C1098 1.378 . S
C1091 C1090 1.367 . S
C1091 C1099 1.433 . S
C1092 H1088 0.929 . S
C1092 C1094 1.378 . S
C1092 C1096 1.350 . S
C1093 C1096 1.463 . S
C1093 C1098 1.350 . S
C1093 N1101 1.427 . S
C1094 H1085 0.930 . S
C1094 C1092 1.378 . S
C1094 C1095 1.367 . S
C1095 C1094 1.367 . S
C1095 C1097 1.433 . S
C1096 C1092 1.350 . S
C1096 C1093 1.463 . S
C1096 N1100 1.427 . S
C1097 H1087 0.929 . S
C1097 C1095 1.433 . S
C1097 N1100 1.384 . S
C1098 H1089 0.929 . S
C1098 C1090 1.378 . S
C1098 C1093 1.350 . S
C1099 H1086 0.929 . S
C1099 C1091 1.433 . S
C1099 N1101 1.384 . S
N1100 C1096 1.427 . S
N1100 C1097 1.384 . S
N1101 C1093 1.427 . S
N1101 C1099 1.384 . S
H1102 C1108 0.930 1_545 S
H1103 C1112 0.930 . S
H1104 C1117 0.929 . S
H1105 C1115 0.933 . S
H1106 C1110 0.929 . S
H1107 C1116 0.929 1_545 S
C1108 H1102 0.930 1_565 S
C1108 C1109 1.367 . S
C1108 C1116 1.378 . S
C1109 C1108 1.367 . S
C1109 C1117 1.433 . S
C1110 H1106 0.929 . S
C1110 C1112 1.378 . S
C1110 C1114 1.350 . S
C1111 C1114 1.463 . S
C1111 C1116 1.350 . S
C1111 N1119 1.427 . S
C1112 H1103 0.930 . S
C1112 C1110 1.378 . S
C1112 C1113 1.367 . S
C1113 C1112 1.367 . S
C1113 C1115 1.429 1_565 S
C1114 C1110 1.350 . S
C1114 C1111 1.463 . S
C1114 N1118 1.427 . S
C1115 H1105 0.933 . S
C1115 C1113 1.429 1_545 S
C1115 N1118 1.383 1_545 S
C1116 H1107 0.929 1_565 S
C1116 C1108 1.378 . S
C1116 C1111 1.350 . S
C1117 H1104 0.929 . S
C1117 C1109 1.433 . S
C1117 N1119 1.384 . S
N1118 C1114 1.427 . S
N1118 C1115 1.383 1_565 S
N1119 C1111 1.427 . S
N1119 C1117 1.384 . S
H1120 C1126 0.930 . S
H1121 C1130 0.930 . S
H1122 C1135 0.929 . S
H1123 C1133 0.929 . S
H1124 C1128 0.929 . S
H1125 C1134 0.929 . S
C1126 H1120 0.930 . S
C1126 C1127 1.367 1_545 S
C1126 C1134 1.378 . S
C1127 C1126 1.367 1_565 S
C1127 C1135 1.433 1_556 S
C1128 H1124 0.929 . S
C1128 C1130 1.378 . S
C1128 C1132 1.364 1_565 S
C1129 C1132 1.457 1_566 S
C1129 C1134 1.364 1_565 S
C1129 N1137 1.419 1_556 S
C1130 H1121 0.930 . S
C1130 C1128 1.378 . S
C1130 C1131 1.367 1_565 S
C1131 C1130 1.367 1_545 S
C1131 C1133 1.433 1_554 S
C1132 C1128 1.364 1_545 S
C1132 C1129 1.457 1_544 S
C1132 N1136 1.419 1_554 S
C1133 H1123 0.929 . S
C1133 C1131 1.433 1_556 S
C1133 N1136 1.384 . S
C1134 H1125 0.929 . S
C1134 C1126 1.378 . S
C1134 C1129 1.364 1_545 S
C1135 H1122 0.929 . S
C1135 C1127 1.433 1_554 S
C1135 N1137 1.384 . S
N1136 C1132 1.419 1_556 S
N1136 C1133 1.384 . S
N1137 C1129 1.419 1_554 S
N1137 C1135 1.384 . S
H1138 C1144 0.930 . S
H1139 C1148 0.930 . S
H1140 C1153 0.929 . S
H1141 C1151 0.929 . S
H1142 C1146 0.929 . S
H1143 C1152 0.929 . S
C1144 H1138 0.930 . S
C1144 C1145 1.367 . S
C1144 C1152 1.378 . S
C1145 C1144 1.367 . S
C1145 C1153 1.433 . S
C1146 H1142 0.929 . S
C1146 C1148 1.378 . S
C1146 C1150 1.350 . S
C1147 C1150 1.463 . S
C1147 C1152 1.350 . S
C1147 N1155 1.427 . S
C1148 H1139 0.930 . S
C1148 C1146 1.378 . S
C1148 C1149 1.367 . S
C1149 C1148 1.367 . S
C1149 C1151 1.433 . S
C1150 C1146 1.350 . S
C1150 C1147 1.463 . S
C1150 N1154 1.427 . S
C1151 H1141 0.929 . S
C1151 C1149 1.433 . S
C1151 N1154 1.384 . S
C1152 H1143 0.929 . S
C1152 C1144 1.378 . S
C1152 C1147 1.350 . S
C1153 H1140 0.929 . S
C1153 C1145 1.433 . S
C1153 N1155 1.384 . S
N1154 C1150 1.427 . S
N1154 C1151 1.384 . S
N1155 C1147 1.427 . S
N1155 C1153 1.384 . S
H1156 C1162 0.930 . S
H1157 C1166 0.930 . S
H1158 C1171 0.929 . S
H1159 C1169 0.929 . S
H1160 C1164 0.929 . S
H1161 C1170 0.929 . S
C1162 H1156 0.930 . S
C1162 C1163 1.367 1_565 S
C1162 C1170 1.378 . S
C1163 C1162 1.367 1_545 S
C1163 C1171 1.433 . S
C1164 H1160 0.929 . S
C1164 C1166 1.378 . S
C1164 C1168 1.350 1_545 S
C1165 C1168 1.463 1_645 S
C1165 C1170 1.350 1_545 S
C1165 N1173 1.427 . S
C1166 H1157 0.930 . S
C1166 C1164 1.378 . S
C1166 C1167 1.367 1_545 S
C1167 C1166 1.367 1_565 S
C1167 C1169 1.433 . S
C1168 C1164 1.350 1_565 S
C1168 C1165 1.463 1_465 S
C1168 N1172 1.427 . S
C1169 H1159 0.929 . S
C1169 C1167 1.433 . S
C1169 N1172 1.384 . S
C1170 H1161 0.929 . S
C1170 C1162 1.378 . S
C1170 C1165 1.350 1_565 S
C1171 H1158 0.929 . S
C1171 C1163 1.433 . S
C1171 N1173 1.384 . S
N1172 C1168 1.427 . S
N1172 C1169 1.384 . S
N1173 C1165 1.427 . S
N1173 C1171 1.384 . S
H1174 C1180 0.930 . S
H1175 C1184 0.930 . S
H1176 C1189 0.929 . S
H1177 C1187 0.929 . S
H1178 C1182 0.929 . S
H1179 C1188 0.929 . S
C1180 H1174 0.930 . S
C1180 C1181 1.367 . S
C1180 C1188 1.378 . S
C1181 C1180 1.367 . S
C1181 C1189 1.433 . S
C1182 H1178 0.929 . S
C1182 C1184 1.378 . S
C1182 C1186 1.350 . S
C1183 C1186 1.463 . S
C1183 C1188 1.350 . S
C1183 N1191 1.427 . S
C1184 H1175 0.930 . S
C1184 C1182 1.378 . S
C1184 C1185 1.367 . S
C1185 C1184 1.367 . S
C1185 C1187 1.433 . S
C1186 C1182 1.350 . S
C1186 C1183 1.463 . S
C1186 N1190 1.427 . S
C1187 H1177 0.929 . S
C1187 C1185 1.433 . S
C1187 N1190 1.384 . S
C1188 H1179 0.929 . S
C1188 C1180 1.378 . S
C1188 C1183 1.350 . S
C1189 H1176 0.929 . S
C1189 C1181 1.433 . S
C1189 N1191 1.384 . S
N1190 C1186 1.427 . S
N1190 C1187 1.384 . S
N1191 C1183 1.427 . S
N1191 C1189 1.384 . S
H1192 C1198 0.930 . S
H1193 C1202 0.930 . S
H1194 C1207 0.929 . S
H1195 C1205 0.929 . S
H1196 C1200 0.929 . S
H1197 C1206 0.929 . S
C1198 H1192 0.930 . S
C1198 C1199 1.367 . S
C1198 C1206 1.378 . S
C1199 C1198 1.367 . S
C1199 C1207 1.433 . S
C1200 H1196 0.929 . S
C1200 C1202 1.378 . S
C1200 C1204 1.350 . S
C1201 C1204 1.463 . S
C1201 C1206 1.350 . S
C1201 N1209 1.427 . S
C1202 H1193 0.930 . S
C1202 C1200 1.378 . S
C1202 C1203 1.367 . S
C1203 C1202 1.367 . S
C1203 C1205 1.433 . S
C1204 C1200 1.350 . S
C1204 C1201 1.463 . S
C1204 N1208 1.427 . S
C1205 H1195 0.929 . S
C1205 C1203 1.433 . S
C1205 N1208 1.384 . S
C1206 H1197 0.929 . S
C1206 C1198 1.378 . S
C1206 C1201 1.350 . S
C1207 H1194 0.929 . S
C1207 C1199 1.433 . S
C1207 N1209 1.384 . S
N1208 C1204 1.427 . S
N1208 C1205 1.384 . S
N1209 C1201 1.427 . S
N1209 C1207 1.384 . S
H1210 C1216 0.930 . S
H1211 C1220 0.930 . S
H1212 C1225 0.929 . S
H1213 C1223 0.929 . S
H1214 C1218 0.929 . S
H1215 C1224 0.929 . S
C1216 H1210 0.930 . S
C1216 C1217 1.367 . S
C1216 C1224 1.378 . S
C1217 C1216 1.367 . S
C1217 C1225 1.433 . S
C1218 H1214 0.929 . S
C1218 C1220 1.378 . S
C1218 C1222 1.350 . S
C1219 C1222 1.463 . S
C1219 C1224 1.350 . S
C1219 N1227 1.427 . S
C1220 H1211 0.930 . S
C1220 C1218 1.378 . S
C1220 C1221 1.367 . S
C1221 C1220 1.367 . S
C1221 C1223 1.433 . S
C1222 C1218 1.350 . S
C1222 C1219 1.463 . S
C1222 N1226 1.427 . S
C1223 H1213 0.929 . S
C1223 C1221 1.433 . S
C1223 N1226 1.384 . S
C1224 H1215 0.929 . S
C1224 C1216 1.378 . S
C1224 C1219 1.350 . S
C1225 H1212 0.929 . S
C1225 C1217 1.433 . S
C1225 N1227 1.384 . S
N1226 C1222 1.427 . S
N1226 C1223 1.384 . S
N1227 C1219 1.427 . S
N1227 C1225 1.384 . S
H1228 C1234 0.930 . S
H1229 C1238 0.930 . S
H1230 C1243 0.929 . S
H1231 C1241 0.929 . S
H1232 C1236 0.929 . S
H1233 C1242 0.929 . S
C1234 H1228 0.930 . S
C1234 C1235 1.367 . S
C1234 C1242 1.378 . S
C1235 C1234 1.367 . S
C1235 C1243 1.433 . S
C1236 H1232 0.929 . S
C1236 C1238 1.378 . S
C1236 C1240 1.350 . S
C1237 C1240 1.463 1_655 S
C1237 C1242 1.350 . S
C1237 N1245 1.427 . S
C1238 H1229 0.930 . S
C1238 C1236 1.378 . S
C1238 C1239 1.367 . S
C1239 C1238 1.367 . S
C1239 C1241 1.433 . S
C1240 C1236 1.350 . S
C1240 C1237 1.463 1_455 S
C1240 N1244 1.427 . S
C1241 H1231 0.929 . S
C1241 C1239 1.433 . S
C1241 N1244 1.384 . S
C1242 H1233 0.929 . S
C1242 C1234 1.378 . S
C1242 C1237 1.350 . S
C1243 H1230 0.929 . S
C1243 C1235 1.433 . S
C1243 N1245 1.384 . S
N1244 C1240 1.427 . S
N1244 C1241 1.384 . S
N1245 C1237 1.427 . S
N1245 C1243 1.384 . S
H1246 C1252 0.930 . S
H1247 C1256 0.930 . S
H1248 C1261 0.929 . S
H1249 C1259 0.929 . S
H1250 C1254 0.929 . S
H1251 C1260 0.929 . S
C1252 H1246 0.930 . S
C1252 C1253 1.367 1_556 S
C1252 C1260 1.378 . S
C1253 C1252 1.367 1_554 S
C1253 C1261 1.433 . S
C1254 H1250 0.929 . S
C1254 C1256 1.378 . S
C1254 C1258 1.338 1_554 S
C1255 C1258 1.462 1_554 S
C1255 C1260 1.338 1_554 S
C1255 N1263 1.441 . S
C1256 H1247 0.930 . S
C1256 C1254 1.378 . S
C1256 C1257 1.367 1_554 S
C1257 C1256 1.367 1_556 S
C1257 C1259 1.433 . S
C1258 C1254 1.338 1_556 S
C1258 C1255 1.462 1_556 S
C1258 N1262 1.441 . S
C1259 H1249 0.929 . S
C1259 C1257 1.433 . S
C1259 N1262 1.384 . S
C1260 H1251 0.929 . S
C1260 C1252 1.378 . S
C1260 C1255 1.338 1_556 S
C1261 H1248 0.929 . S
C1261 C1253 1.433 . S
C1261 N1263 1.384 . S
N1262 C1258 1.441 . S
N1262 C1259 1.384 . S
N1263 C1255 1.441 . S
N1263 C1261 1.384 . S
H1264 C1270 0.930 . S
H1265 C1274 0.930 . S
H1266 C1279 0.929 1_554 S
H1267 C1277 0.929 . S
H1268 C1272 0.929 . S
H1269 C1278 0.929 . S
C1270 H1264 0.930 . S
C1270 C1271 1.367 . S
C1270 C1278 1.378 . S
C1271 C1270 1.367 . S
C1271 C1279 1.433 . S
C1272 H1268 0.929 . S
C1272 C1274 1.378 . S
C1272 C1276 1.350 . S
C1273 C1276 1.463 . S
C1273 C1278 1.350 1_554 S
C1273 N1281 1.427 . S
C1274 H1265 0.930 . S
C1274 C1272 1.378 . S
C1274 C1275 1.367 . S
C1275 C1274 1.367 . S
C1275 C1277 1.433 . S
C1276 C1272 1.350 . S
C1276 C1273 1.463 . S
C1276 N1280 1.427 . S
C1277 H1267 0.929 . S
C1277 C1275 1.433 . S
C1277 N1280 1.384 . S
C1278 H1269 0.929 . S
C1278 C1270 1.378 . S
C1278 C1273 1.350 1_556 S
C1279 H1266 0.929 1_556 S
C1279 C1271 1.433 . S
C1279 N1281 1.384 1_556 S
N1280 C1276 1.427 . S
N1280 C1277 1.384 . S
N1281 C1273 1.427 . S
N1281 C1279 1.384 1_554 S
H1282 C1288 0.930 . S
H1283 C1292 0.930 . S
H1284 C1297 0.929 . S
H1285 C1295 0.929 . S
H1286 C1290 0.929 . S
H1287 C1296 0.929 . S
C1288 H1282 0.930 . S
C1288 C1289 1.367 . S
C1288 C1296 1.378 . S
C1289 C1288 1.367 . S
C1289 C1297 1.433 . S
C1290 H1286 0.929 . S
C1290 C1292 1.378 . S
C1290 C1294 1.350 . S
C1291 C1294 1.463 . S
C1291 C1296 1.350 1_655 S
C1291 N1299 1.427 . S
C1292 H1283 0.930 . S
C1292 C1290 1.378 . S
C1292 C1293 1.367 . S
C1293 C1292 1.367 . S
C1293 C1295 1.433 . S
C1294 C1290 1.350 . S
C1294 C1291 1.463 . S
C1294 N1298 1.427 . S
C1295 H1285 0.929 . S
C1295 C1293 1.433 . S
C1295 N1298 1.384 . S
C1296 H1287 0.929 . S
C1296 C1288 1.378 . S
C1296 C1291 1.350 1_455 S
C1297 H1284 0.929 . S
C1297 C1289 1.433 . S
C1297 N1299 1.384 1_455 S
N1298 C1294 1.427 . S
N1298 C1295 1.384 . S
N1299 C1291 1.427 . S
N1299 C1297 1.384 1_655 S
H1300 C1306 0.930 . S
H1301 C1310 0.930 . S
H1302 C1315 0.929 . S
H1303 C1313 0.929 . S
H1304 C1308 0.929 . S
H1305 C1314 0.929 . S
C1306 H1300 0.930 . S
C1306 C1307 1.367 . S
C1306 C1314 1.378 . S
C1307 C1306 1.367 . S
C1307 C1315 1.433 . S
C1308 H1304 0.929 . S
C1308 C1310 1.378 . S
C1308 C1312 1.350 . S
C1309 C1312 1.463 . S
C1309 C1314 1.350 . S
C1309 N1317 1.427 . S
C1310 H1301 0.930 . S
C1310 C1308 1.378 . S
C1310 C1311 1.367 . S
C1311 C1310 1.367 . S
C1311 C1313 1.433 . S
C1312 C1308 1.350 . S
C1312 C1309 1.463 . S
C1312 N1316 1.427 . S
C1313 H1303 0.929 . S
C1313 C1311 1.433 . S
C1313 N1316 1.384 . S
C1314 H1305 0.929 . S
C1314 C1306 1.378 . S
C1314 C1309 1.350 . S
C1315 H1302 0.929 . S
C1315 C1307 1.433 . S
C1315 N1317 1.384 . S
N1316 C1312 1.427 . S
N1316 C1313 1.384 . S
N1317 C1309 1.427 . S
N1317 C1315 1.384 . S
H1318 C1324 0.930 . S
H1319 C1328 0.930 . S
H1320 C1333 0.929 . S
H1321 C1331 0.929 . S
H1322 C1326 0.929 . S
H1323 C1332 0.929 . S
C1324 H1318 0.930 . S
C1324 C1325 1.367 . S
C1324 C1332 1.378 . S
C1325 C1324 1.367 . S
C1325 C1333 1.433 . S
C1326 H1322 0.929 . S
C1326 C1328 1.378 . S
C1326 C1330 1.350 . S
C1327 C1330 1.463 . S
C1327 C1332 1.350 . S
C1327 N1335 1.427 . S
C1328 H1319 0.930 . S
C1328 C1326 1.378 . S
C1328 C1329 1.367 . S
C1329 C1328 1.367 . S
C1329 C1331 1.433 . S
C1330 C1326 1.350 . S
C1330 C1327 1.463 . S
C1330 N1334 1.427 . S
C1331 H1321 0.929 . S
C1331 C1329 1.433 . S
C1331 N1334 1.384 . S
C1332 H1323 0.929 . S
C1332 C1324 1.378 . S
C1332 C1327 1.350 . S
C1333 H1320 0.929 . S
C1333 C1325 1.433 . S
C1333 N1335 1.384 . S
N1334 C1330 1.427 . S
N1334 C1331 1.384 . S
N1335 C1327 1.427 . S
N1335 C1333 1.384 . S
H1336 C1342 0.930 . S
H1337 C1346 0.930 . S
H1338 C1351 0.929 . S
H1339 C1349 0.945 . S
H1340 C1344 0.929 . S
H1341 C1350 0.929 . S
C1342 H1336 0.930 . S
C1342 C1343 1.367 . S
C1342 C1350 1.378 . S
C1343 C1342 1.367 . S
C1343 C1351 1.433 . S
C1344 H1340 0.929 . S
C1344 C1346 1.378 . S
C1344 C1348 1.350 1_554 S
C1345 C1348 1.463 . S
C1345 C1350 1.350 . S
C1345 N1353 1.427 . S
C1346 H1337 0.930 . S
C1346 C1344 1.378 . S
C1346 C1347 1.367 . S
C1347 C1346 1.367 . S
C1347 C1349 1.396 1_554 S
C1348 C1344 1.350 1_556 S
C1348 C1345 1.463 . S
C1348 N1352 1.427 . S
C1349 H1339 0.945 . S
C1349 C1347 1.396 1_556 S
C1349 N1352 1.405 . S
C1350 H1341 0.929 . S
C1350 C1342 1.378 . S
C1350 C1345 1.350 . S
C1351 H1338 0.929 . S
C1351 C1343 1.433 . S
C1351 N1353 1.384 . S
N1352 C1348 1.427 . S
N1352 C1349 1.405 . S
N1353 C1345 1.427 . S
N1353 C1351 1.384 . S
H1354 C1360 0.930 . S
H1355 C1364 0.930 . S
H1356 C1369 0.929 . S
H1357 C1367 0.929 . S
H1358 C1362 0.929 . S
H1359 C1368 0.929 . S
C1360 H1354 0.930 . S
C1360 C1361 1.367 . S
C1360 C1368 1.378 . S
C1361 C1360 1.367 . S
C1361 C1369 1.433 . S
C1362 H1358 0.929 . S
C1362 C1364 1.378 . S
C1362 C1366 1.350 1_655 S
C1363 C1366 1.463 . S
C1363 C1368 1.350 . S
C1363 N1371 1.427 . S
C1364 H1355 0.930 . S
C1364 C1362 1.378 . S
C1364 C1365 1.367 . S
C1365 C1364 1.367 . S
C1365 C1367 1.433 . S
C1366 C1362 1.350 1_455 S
C1366 C1363 1.463 . S
C1366 N1370 1.427 . S
C1367 H1357 0.929 . S
C1367 C1365 1.433 . S
C1367 N1370 1.384 1_655 S
C1368 H1359 0.929 . S
C1368 C1360 1.378 . S
C1368 C1363 1.350 . S
C1369 H1356 0.929 . S
C1369 C1361 1.433 . S
C1369 N1371 1.384 . S
N1370 C1366 1.427 . S
N1370 C1367 1.384 1_455 S
N1371 C1363 1.427 . S
N1371 C1369 1.384 . S
H1372 C1378 0.930 . S
H1373 C1382 0.930 . S
H1374 C1387 0.929 . S
H1375 C1385 0.929 . S
H1376 C1380 0.929 . S
H1377 C1386 0.929 . S
C1378 H1372 0.930 . S
C1378 C1379 1.367 . S
C1378 C1386 1.378 . S
C1379 C1378 1.367 . S
C1379 C1387 1.433 . S
C1380 H1376 0.929 . S
C1380 C1382 1.378 . S
C1380 C1384 1.350 . S
C1381 C1384 1.463 . S
C1381 C1386 1.350 . S
C1381 N1389 1.427 . S
C1382 H1373 0.930 . S
C1382 C1380 1.378 . S
C1382 C1383 1.367 . S
C1383 C1382 1.367 . S
C1383 C1385 1.433 . S
C1384 C1380 1.350 . S
C1384 C1381 1.463 . S
C1384 N1388 1.427 . S
C1385 H1375 0.929 . S
C1385 C1383 1.433 . S
C1385 N1388 1.384 . S
C1386 H1377 0.929 . S
C1386 C1378 1.378 . S
C1386 C1381 1.350 . S
C1387 H1374 0.929 . S
C1387 C1379 1.433 . S
C1387 N1389 1.384 . S
N1388 C1384 1.427 . S
N1388 C1385 1.384 . S
N1389 C1381 1.427 . S
N1389 C1387 1.384 . S
H1390 C1396 0.930 . S
H1391 C1400 0.930 . S
H1392 C1405 0.929 . S
H1393 C1403 0.929 . S
H1394 C1398 0.929 . S
H1395 C1404 0.929 . S
C1396 H1390 0.930 . S
C1396 C1397 1.367 . S
C1396 C1404 1.378 . S
C1397 C1396 1.367 . S
C1397 C1405 1.433 . S
C1398 H1394 0.929 . S
C1398 C1400 1.378 . S
C1398 C1402 1.350 . S
C1399 C1402 1.463 . S
C1399 C1404 1.350 . S
C1399 N1407 1.427 . S
C1400 H1391 0.930 . S
C1400 C1398 1.378 . S
C1400 C1401 1.367 . S
C1401 C1400 1.367 . S
C1401 C1403 1.433 . S
C1402 C1398 1.350 . S
C1402 C1399 1.463 . S
C1402 N1406 1.427 . S
C1403 H1393 0.929 . S
C1403 C1401 1.433 . S
C1403 N1406 1.384 . S
C1404 H1395 0.929 . S
C1404 C1396 1.378 . S
C1404 C1399 1.350 . S
C1405 H1392 0.929 . S
C1405 C1397 1.433 . S
C1405 N1407 1.384 . S
N1406 C1402 1.427 . S
N1406 C1403 1.384 . S
N1407 C1399 1.427 . S
N1407 C1405 1.384 . S
H1408 C1414 0.930 . S
H1409 C1418 0.930 . S
H1410 C1423 0.929 . S
H1411 C1421 0.929 . S
H1412 C1416 0.929 . S
H1413 C1422 0.929 . S
C1414 H1408 0.930 . S
C1414 C1415 1.367 . S
C1414 C1422 1.378 . S
C1415 C1414 1.367 . S
C1415 C1423 1.433 . S
C1416 H1412 0.929 . S
C1416 C1418 1.378 . S
C1416 C1420 1.350 . S
C1417 C1420 1.463 . S
C1417 C1422 1.350 . S
C1417 N1425 1.427 . S
C1418 H1409 0.930 . S
C1418 C1416 1.378 . S
C1418 C1419 1.367 . S
C1419 C1418 1.367 . S
C1419 C1421 1.433 . S
C1420 C1416 1.350 . S
C1420 C1417 1.463 . S
C1420 N1424 1.427 . S
C1421 H1411 0.929 . S
C1421 C1419 1.433 . S
C1421 N1424 1.384 . S
C1422 H1413 0.929 . S
C1422 C1414 1.378 . S
C1422 C1417 1.350 . S
C1423 H1410 0.929 . S
C1423 C1415 1.433 . S
C1423 N1425 1.384 . S
N1424 C1420 1.427 . S
N1424 C1421 1.384 . S
N1425 C1417 1.427 . S
N1425 C1423 1.384 . S
H1426 C1432 0.930 . S
H1427 C1436 0.930 . S
H1428 C1441 0.929 . S
H1429 C1439 0.929 . S
H1430 C1434 0.929 . S
H1431 C1440 0.929 . S
C1432 H1426 0.930 . S
C1432 C1433 1.367 . S
C1432 C1440 1.378 . S
C1433 C1432 1.367 . S
C1433 C1441 1.433 1_545 S
C1434 H1430 0.929 . S
C1434 C1436 1.378 . S
C1434 C1438 1.350 1_565 S
C1435 C1438 1.463 . S
C1435 C1440 1.350 . S
C1435 N1443 1.427 1_545 S
C1436 H1427 0.930 . S
C1436 C1434 1.378 . S
C1436 C1437 1.367 1_565 S
C1437 C1436 1.367 1_545 S
C1437 C1439 1.433 . S
C1438 C1434 1.350 1_545 S
C1438 C1435 1.463 . S
C1438 N1442 1.427 . S
C1439 H1429 0.929 . S
C1439 C1437 1.433 . S
C1439 N1442 1.384 . S
C1440 H1431 0.929 . S
C1440 C1432 1.378 . S
C1440 C1435 1.350 . S
C1441 H1428 0.929 . S
C1441 C1433 1.433 1_565 S
C1441 N1443 1.384 . S
N1442 C1438 1.427 . S
N1442 C1439 1.384 . S
N1443 C1435 1.427 1_565 S
N1443 C1441 1.384 . S
H1444 C1450 0.930 . S
H1445 C1454 0.930 . S
H1446 C1459 0.929 . S
H1447 C1457 0.931 1_554 S
H1448 C1452 0.929 . S
H1449 C1458 0.929 . S
C1450 H1444 0.930 . S
C1450 C1451 1.367 . S
C1450 C1458 1.378 . S
C1451 C1450 1.367 . S
C1451 C1459 1.433 . S
C1452 H1448 0.929 . S
C1452 C1454 1.378 . S
C1452 C1456 1.350 1_556 S
C1453 C1456 1.463 . S
C1453 C1458 1.350 . S
C1453 N1461 1.427 . S
C1454 H1445 0.930 . S
C1454 C1452 1.378 . S
C1454 C1455 1.367 . S
C1455 C1454 1.367 . S
C1455 C1457 1.429 . S
C1456 C1452 1.350 1_554 S
C1456 C1453 1.463 . S
C1456 N1460 1.427 . S
C1457 H1447 0.931 1_556 S
C1457 C1455 1.429 . S
C1457 N1460 1.386 1_556 S
C1458 H1449 0.929 . S
C1458 C1450 1.378 . S
C1458 C1453 1.350 . S
C1459 H1446 0.929 . S
C1459 C1451 1.433 . S
C1459 N1461 1.384 . S
N1460 C1456 1.427 . S
N1460 C1457 1.386 1_554 S
N1461 C1453 1.427 . S
N1461 C1459 1.384 . S
H1462 C1468 0.930 . S
H1463 C1472 0.930 . S
H1464 C1477 0.929 . S
H1465 C1475 0.929 . S
H1466 C1470 0.929 1_455 S
H1467 C1476 0.929 . S
C1468 H1462 0.930 . S
C1468 C1469 1.367 1_545 S
C1468 C1476 1.378 . S
C1469 C1468 1.367 1_565 S
C1469 C1477 1.433 . S
C1470 H1466 0.929 1_655 S
C1470 C1472 1.378 . S
C1470 C1474 1.350 1_655 S
C1471 C1474 1.463 . S
C1471 C1476 1.350 1_565 S
C1471 N1479 1.427 . S
C1472 H1463 0.930 . S
C1472 C1470 1.378 . S
C1472 C1473 1.367 . S
C1473 C1472 1.367 . S
C1473 C1475 1.433 1_565 S
C1474 C1470 1.350 1_455 S
C1474 C1471 1.463 . S
C1474 N1478 1.427 1_565 S
C1475 H1465 0.929 . S
C1475 C1473 1.433 1_545 S
C1475 N1478 1.384 1_655 S
C1476 H1467 0.929 . S
C1476 C1468 1.378 . S
C1476 C1471 1.350 1_545 S
C1477 H1464 0.929 . S
C1477 C1469 1.433 . S
C1477 N1479 1.384 . S
N1478 C1474 1.427 1_545 S
N1478 C1475 1.384 1_455 S
N1479 C1471 1.427 . S
N1479 C1477 1.384 . S
H1480 C1486 0.930 . S
H1481 C1490 0.930 . S
H1482 C1495 0.929 . S
H1483 C1493 0.929 . S
H1484 C1488 0.929 . S
H1485 C1494 0.929 . S
C1486 H1480 0.930 . S
C1486 C1487 1.367 . S
C1486 C1494 1.378 . S
C1487 C1486 1.367 . S
C1487 C1495 1.433 . S
C1488 H1484 0.929 . S
C1488 C1490 1.378 . S
C1488 C1492 1.350 . S
C1489 C1492 1.463 . S
C1489 C1494 1.350 . S
C1489 N1497 1.427 . S
C1490 H1481 0.930 . S
C1490 C1488 1.378 . S
C1490 C1491 1.367 . S
C1491 C1490 1.367 . S
C1491 C1493 1.433 . S
C1492 C1488 1.350 . S
C1492 C1489 1.463 . S
C1492 N1496 1.427 . S
C1493 H1483 0.929 . S
C1493 C1491 1.433 . S
C1493 N1496 1.384 . S
C1494 H1485 0.929 . S
C1494 C1486 1.378 . S
C1494 C1489 1.350 . S
C1495 H1482 0.929 . S
C1495 C1487 1.433 . S
C1495 N1497 1.384 . S
N1496 C1492 1.427 . S
N1496 C1493 1.384 . S
N1497 C1489 1.427 . S
N1497 C1495 1.384 . S
H1498 C1504 0.930 . S
H1499 C1508 0.930 . S
H1500 C1513 0.929 . S
H1501 C1511 0.929 . S
H1502 C1506 0.929 . S
H1503 C1512 0.929 . S
C1504 H1498 0.930 . S
C1504 C1505 1.367 . S
C1504 C1512 1.378 . S
C1505 C1504 1.367 . S
C1505 C1513 1.433 1_565 S
C1506 H1502 0.929 . S
C1506 C1508 1.378 . S
C1506 C1510 1.350 1_545 S
C1507 C1510 1.463 . S
C1507 C1512 1.350 . S
C1507 N1515 1.427 1_565 S
C1508 H1499 0.930 . S
C1508 C1506 1.378 . S
C1508 C1509 1.367 1_545 S
C1509 C1508 1.367 1_565 S
C1509 C1511 1.433 . S
C1510 C1506 1.350 1_565 S
C1510 C1507 1.463 . S
C1510 N1514 1.427 . S
C1511 H1501 0.929 . S
C1511 C1509 1.433 . S
C1511 N1514 1.384 . S
C1512 H1503 0.929 . S
C1512 C1504 1.378 . S
C1512 C1507 1.350 . S
C1513 H1500 0.929 . S
C1513 C1505 1.433 1_545 S
C1513 N1515 1.384 . S
N1514 C1510 1.427 . S
N1514 C1511 1.384 . S
N1515 C1507 1.427 1_545 S
N1515 C1513 1.384 . S
H1516 C1522 0.930 . S
H1517 C1526 0.930 . S
H1518 C1531 0.929 . S
H1519 C1529 0.929 . S
H1520 C1524 0.929 . S
H1521 C1530 0.929 1_554 S
C1522 H1516 0.930 . S
C1522 C1523 1.367 . S
C1522 C1530 1.378 . S
C1523 C1522 1.367 . S
C1523 C1531 1.433 . S
C1524 H1520 0.929 . S
C1524 C1526 1.378 . S
C1524 C1528 1.350 . S
C1525 C1528 1.463 . S
C1525 C1530 1.350 . S
C1525 N1533 1.427 . S
C1526 H1517 0.930 . S
C1526 C1524 1.378 . S
C1526 C1527 1.367 1_556 S
C1527 C1526 1.367 1_554 S
C1527 C1529 1.433 . S
C1528 C1524 1.350 . S
C1528 C1525 1.463 . S
C1528 N1532 1.427 1_556 S
C1529 H1519 0.929 . S
C1529 C1527 1.433 . S
C1529 N1532 1.384 . S
C1530 H1521 0.929 1_556 S
C1530 C1522 1.378 . S
C1530 C1525 1.350 . S
C1531 H1518 0.929 . S
C1531 C1523 1.433 . S
C1531 N1533 1.384 . S
N1532 C1528 1.427 1_554 S
N1532 C1529 1.384 . S
N1533 C1525 1.427 . S
N1533 C1531 1.384 . S
H1534 C1540 0.930 . S
H1535 C1544 0.930 . S
H1536 C1549 0.929 . S
H1537 C1547 0.929 . S
H1538 C1542 0.929 . S
H1539 C1548 0.929 . S
C1540 H1534 0.930 . S
C1540 C1541 1.367 . S
C1540 C1548 1.378 . S
C1541 C1540 1.367 . S
C1541 C1549 1.433 1_545 S
C1542 H1538 0.929 . S
C1542 C1544 1.378 . S
C1542 C1546 1.350 1_465 S
C1543 C1546 1.463 . S
C1543 C1548 1.350 . S
C1543 N1551 1.427 1_545 S
C1544 H1535 0.930 . S
C1544 C1542 1.378 . S
C1544 C1545 1.367 1_565 S
C1545 C1544 1.367 1_545 S
C1545 C1547 1.433 . S
C1546 C1542 1.350 1_645 S
C1546 C1543 1.463 . S
C1546 N1550 1.427 . S
C1547 H1537 0.929 . S
C1547 C1545 1.433 . S
C1547 N1550 1.384 1_455 S
C1548 H1539 0.929 . S
C1548 C1540 1.378 . S
C1548 C1543 1.350 . S
C1549 H1536 0.929 . S
C1549 C1541 1.433 1_565 S
C1549 N1551 1.384 . S
N1550 C1546 1.427 . S
N1550 C1547 1.384 1_655 S
N1551 C1543 1.427 1_565 S
N1551 C1549 1.384 . S
C551 C334 1.081 . S
C555 C6 1.076 . S
C569 C346 1.113 . S
C573 C40 1.109 . S
C587 C402 1.082 . S
C591 C96 1.085 . S
C605 C300 1.103 . S
C609 C108 1.102 . S
C623 C142 1.077 . S
C627 C470 1.081 . S
C641 C482 1.104 . S
C645 C176 1.099 . S
C659 C516 1.085 . S
C663 C210 1.083 . S
C677 C244 1.104 . S
C681 C414 1.111 . S
C695 C62 1.139 . S
C699 C278 1.133 . S
C713 C74 1.141 . S
C717 C312 1.138 . S
C731 C368 1.139 . S
C735 C130 1.143 . S
C749 C28 1.141 . S
C753 C380 1.140 . S
C767 C198 1.133 . S
C771 C436 1.132 . S
C785 C448 1.137 . S
C789 C232 1.141 . S
C803 C504 1.140 . S
C807 C266 1.139 . S
C821 C164 1.138 . S
C825 C538 1.140 . S
C839 C253 1.272 . S
C843 C3 1.217 . S
C857 C37 1.214 . S
C861 C430 1.279 . S
C875 C69 1.209 . S
C879 C185 1.269 . S
C893 C498 1.283 . S
C897 C105 1.223 . S
C911 C117 1.267 . S
C915 C139 1.203 . S
C929 C287 1.277 . S
C933 C173 1.209 . S
C947 C49 1.267 . S
C951 C207 1.205 . S
C965 C362 1.278 . S
C969 C241 1.211 . S
C983 C275 1.303 . S
C987 C532 1.379 . S
C1001 C309 1.222 . S
C1005 C151 1.284 . S
C1019 C457 1.375 . S
C1023 C341 1.300 . S
C1037 C219 1.289 . S
C1041 C377 1.233 . S
C1055 C409 1.303 . S
C1059 C389 1.378 . S
C1073 C445 1.232 . S
C1077 C15 1.288 . S
C1091 C477 1.300 . S
C1095 C321 1.377 . S
C1109 C511 1.233 . S
C1113 C90 1.289 . S
C1127 C158 0.595 . S
C1131 C22 0.595 . S
C1145 C56 0.643 . S
C1149 C464 0.640 . S
C1163 C226 0.606 . S
C1167 C83 0.606 . S
C1181 C525 0.614 . S
C1185 C124 0.618 . S
C1199 C328 0.622 . S
C1203 C192 0.627 . S
C1217 C260 0.594 . S
C1221 C396 0.592 . S
C1235 C294 0.585 . S
C1239 C423 0.585 . S
C1253 C355 0.620 . S
C1257 C491 0.620 . S
C1271 C479 2.493 . S
C1275 C17 2.603 . S
C1289 C239 2.537 . S
C1293 C51 2.628 . S
C1307 C85 2.603 . S
C1311 C411 2.498 . S
C1325 C171 2.532 . S
C1329 C119 2.630 . S
C1343 C153 2.603 . S
C1347 C343 2.493 . S
C1361 C187 2.629 . S
C1365 C103 2.535 . S
C1379 C221 2.598 . S
C1383 C273 2.502 . S
C1397 C35 2.537 . S
C1401 C255 2.630 . S
C1415 C289 2.674 . S
C1419 C205 2.572 . S
C1433 C513 2.554 . S
C1437 C323 2.652 1_545 S
C1451 C357 2.674 . S
C1455 C137 2.575 . S
C1469 C391 2.649 1_565 S
C1473 C443 2.559 . S
C1487 C71 2.583 . S
C1491 C425 2.668 . S
C1505 C459 2.652 1_565 S
C1509 C375 2.549 . S
C1523 C493 2.668 . S
C1527 C1 2.583 . S
C1541 C527 2.647 1_545 S
C1545 C307 2.557 . S
