# Generated by pormake.
# Topology fcu, (12)-cn, num edge types: 1
# Building blocks:
#     Node 0, Type 0, BuildingBlock: EZIPEK_clean_sbu_0, # of connection points: 12
#     Node 1, Type 0, BuildingBlock: EZIPEK_clean_sbu_0, # of connection points: 12
#     Node 2, Type 0, BuildingBlock: EZIPEK_clean_sbu_0, # of connection points: 12
#     Node 3, Type 0, BuildingBlock: EZIPEK_clean_sbu_0, # of connection points: 12
#     Edge 4, Type (0, 0), BuildingBlock: AJUNOK_clean_linker_0, # of connection points: 2
#     Edge 5, Type (0, 0), BuildingBlock: AJUNOK_clean_linker_0, # of connection points: 2
#     Edge 6, Type (0, 0), BuildingBlock: AJUNOK_clean_linker_0, # of connection points: 2
#     Edge 7, Type (0, 0), BuildingBlock: AJUNOK_clean_linker_0, # of connection points: 2
#     Edge 8, Type (0, 0), BuildingBlock: AJUNOK_clean_linker_0, # of connection points: 2
#     Edge 9, Type (0, 0), BuildingBlock: AJUNOK_clean_linker_0, # of connection points: 2
#     Edge 10, Type (0, 0), BuildingBlock: AJUNOK_clean_linker_0, # of connection points: 2
#     Edge 11, Type (0, 0), BuildingBlock: AJUNOK_clean_linker_0, # of connection points: 2
#     Edge 12, Type (0, 0), BuildingBlock: AJUNOK_clean_linker_0, # of connection points: 2
#     Edge 13, Type (0, 0), BuildingBlock: AJUNOK_clean_linker_0, # of connection points: 2
#     Edge 14, Type (0, 0), BuildingBlock: AJUNOK_clean_linker_0, # of connection points: 2
#     Edge 15, Type (0, 0), BuildingBlock: AJUNOK_clean_linker_0, # of connection points: 2
#     Edge 16, Type (0, 0), BuildingBlock: AJUNOK_clean_linker_0, # of connection points: 2
#     Edge 17, Type (0, 0), BuildingBlock: AJUNOK_clean_linker_0, # of connection points: 2
#     Edge 18, Type (0, 0), BuildingBlock: AJUNOK_clean_linker_0, # of connection points: 2
#     Edge 19, Type (0, 0), BuildingBlock: AJUNOK_clean_linker_0, # of connection points: 2
#     Edge 20, Type (0, 0), BuildingBlock: AJUNOK_clean_linker_0, # of connection points: 2
#     Edge 21, Type (0, 0), BuildingBlock: AJUNOK_clean_linker_0, # of connection points: 2
#     Edge 22, Type (0, 0), BuildingBlock: AJUNOK_clean_linker_0, # of connection points: 2
#     Edge 23, Type (0, 0), BuildingBlock: AJUNOK_clean_linker_0, # of connection points: 2
#     Edge 24, Type (0, 0), BuildingBlock: AJUNOK_clean_linker_0, # of connection points: 2
#     Edge 25, Type (0, 0), BuildingBlock: AJUNOK_clean_linker_0, # of connection points: 2
#     Edge 26, Type (0, 0), BuildingBlock: AJUNOK_clean_linker_0, # of connection points: 2
#     Edge 27, Type (0, 0), BuildingBlock: AJUNOK_clean_linker_0, # of connection points: 2
# Relax obj value: 0.000
# Max RMSD: 0.000
# Mean RMSD: 0.000
data_MOF--net-fcu--node1-EZIPEK_clean_sbu_0--edge1-AJUNOK_clean_linker_0
_symmetry_space_group_name_H-M    P1
_symmetry_Int_Tables_number       1
_symmetry_cell_setting            triclinic
loop_
_symmetry_equiv_pos_as_xyz
'x, y, z'
_cell_length_a     21.248377
_cell_length_b     21.241722
_cell_length_c     21.247117
_cell_angle_alpha  89.933345
_cell_angle_beta   90.035999
_cell_angle_gamma 90.01265
loop_
_atom_site_label
_atom_site_type_symbol
_atom_site_fract_x
_atom_site_fract_y
_atom_site_fract_z
_atom_type_partial_charge
C0 C 0.01759 0.85694 0.16375 0.0
C1 C 0.01385 0.86136 0.85759 0.0
C2 C 1.01253 0.16154 0.16779 0.0
C3 C 0.01456 0.16668 0.86236 0.0
C4 C 0.8602 0.16342 0.01491 0.0
C5 C 0.8616 0.85796 1.01272 0.0
C6 C 0.16606 0.1649 0.01703 0.0
C7 C 0.16726 0.8595 1.01133 0.0
C8 C 0.16561 1.01314 0.85954 0.0
C9 C 0.86087 1.01153 0.86037 0.0
C10 C 0.16652 1.01139 0.165 0.0
C11 C 0.86164 1.00931 0.16562 0.0
Eu12 Eu 0.01427 0.8916 1.01114 0.0
O13 O 0.95802 0.95588 0.95639 0.0
O14 O 0.07009 0.95478 0.06735 0.0
Eu15 Eu 0.89472 1.01087 1.01291 0.0
Eu16 Eu 0.13281 1.01214 1.01236 0.0
O17 O 0.95804 0.95395 0.06786 0.0
O18 O 0.0696 0.95651 0.95618 0.0
Eu19 Eu 0.01406 1.00966 0.1309 0.0
Eu20 Eu 1.01335 1.01349 0.89431 0.0
O21 O 0.95778 0.06657 0.06916 0.0
O22 O 0.95733 0.06853 0.95793 0.0
O23 O 0.06938 0.0691 0.9576 0.0
O24 O 0.06952 0.0671 0.06895 0.0
Eu25 Eu 1.01327 0.13129 0.01451 0.0
O26 O 0.01649 0.83788 0.10381 0.0
O27 O 0.01422 0.84084 0.91709 0.0
O28 O 1.01236 0.1821 0.10835 0.0
O29 O 0.01422 0.18491 0.92244 0.0
O30 O 0.84197 0.10331 0.01364 0.0
O31 O 0.84297 0.91793 1.01267 0.0
O32 O 0.18497 0.10502 0.01474 0.0
O33 O 0.18524 0.91966 1.01181 0.0
O34 O 0.1055 1.01313 0.8415 0.0
O35 O 0.92081 1.01358 0.84191 0.0
O36 O 0.10654 1.01022 0.18339 0.0
O37 O 0.92177 1.0087 0.18361 0.0
O38 O 0.1062 0.18426 0.01678 0.0
O39 O 0.91989 0.18332 0.01503 0.0
O40 O 0.10762 0.83952 1.01054 0.0
O41 O 0.92141 0.83849 1.01176 0.0
O42 O 1.01318 0.92175 0.84017 0.0
O43 O 0.01369 0.10702 0.84246 0.0
O44 O 0.01614 0.91675 0.18274 0.0
O45 O 1.01354 0.10119 0.18525 0.0
O46 O 0.84187 1.01025 0.1059 0.0
O47 O 0.84144 1.0106 0.92017 0.0
O48 O 0.18601 1.01163 0.10521 0.0
O49 O 0.18541 1.01302 0.91926 0.0
C50 C 1.01196 0.36076 0.66784 0.0
C51 C 1.01323 0.66639 0.6628 0.0
C52 C 1.0133 0.35605 0.36242 0.0
C53 C 0.02033 0.66225 0.35817 0.0
C54 C 0.17111 0.5084 0.36473 0.0
C55 C 0.16199 0.51141 0.66973 0.0
C56 C 0.86542 0.51022 0.35551 0.0
C57 C 0.85663 0.51366 0.66058 0.0
C58 C 0.86416 0.66647 0.50866 0.0
C59 C 0.16916 0.66097 0.51432 0.0
C60 C 0.85865 0.36112 0.51191 0.0
C61 C 0.16433 0.35598 0.51395 0.0
Eu62 Eu 1.0104 0.51294 0.63178 0.0
O63 O 0.06918 0.56686 0.5695 0.0
O64 O 0.95553 0.45682 0.56775 0.0
Eu65 Eu 0.13249 0.50898 0.51616 0.0
Eu66 Eu 0.89515 0.51324 0.50905 0.0
O67 O 0.06721 0.45484 0.57129 0.0
O68 O 0.95736 0.56888 0.56616 0.0
Eu69 Eu 1.01203 0.39175 0.51464 0.0
Eu70 Eu 0.01612 0.62987 0.51092 0.0
O71 O 0.07008 0.45344 0.45901 0.0
O72 O 0.07217 0.56508 0.45734 0.0
O73 O 0.96055 0.56738 0.4538 0.0
O74 O 0.95909 0.45544 0.45605 0.0
Eu75 Eu 0.01722 0.5095 0.39306 0.0
O76 O 1.01043 0.42096 0.68576 0.0
O77 O 1.01055 0.60682 0.6831 0.0
O78 O 0.01642 0.41557 0.3421 0.0
O79 O 0.01961 0.60222 0.33923 0.0
O80 O 0.18799 0.50845 0.42523 0.0
O81 O 0.18271 0.50911 0.61042 0.0
O82 O 0.84481 0.51236 0.41487 0.0
O83 O 0.83975 0.51382 0.60007 0.0
O84 O 0.92447 0.6839 0.50958 0.0
O85 O 0.10971 0.68128 0.51203 0.0
O86 O 0.91809 0.34071 0.51468 0.0
O87 O 0.10426 0.33724 0.51386 0.0
O88 O 0.92578 0.50929 0.33809 0.0
O89 O 0.11184 0.5082 0.34362 0.0
O90 O 0.91595 0.51341 0.68155 0.0
O91 O 0.1016 0.51313 0.68686 0.0
O92 O 0.0156 0.68387 0.60255 0.0
O93 O 0.01878 0.68139 0.41791 0.0
O94 O 1.01212 0.34048 0.60835 0.0
O95 O 1.01125 0.33837 0.42265 0.0
O96 O 0.18365 0.4157 0.51604 0.0
O97 O 0.18662 0.60067 0.51613 0.0
O98 O 0.84127 0.42139 0.50884 0.0
O99 O 0.84379 0.60695 0.508 0.0
C100 C 0.51193 0.85827 0.66548 0.0
C101 C 0.51171 0.1641 0.66537 0.0
C102 C 0.51546 0.85912 0.35967 0.0
C103 C 0.51361 0.16481 0.3608 0.0
C104 C 0.6669 1.01217 0.36069 0.0
C105 C 0.66616 1.01121 0.66586 0.0
C106 C 0.3611 1.01091 0.35972 0.0
C107 C 0.36032 1.01042 0.66486 0.0
C108 C 0.35872 0.16138 0.51088 0.0
C109 C 0.66346 0.16655 0.51312 0.0
C110 C 0.36388 0.85575 0.51297 0.0
C111 C 0.66946 0.86154 0.51236 0.0
Eu112 Eu 0.51332 1.01118 0.63245 0.0
O113 O 0.56853 0.06807 0.56947 0.0
O114 O 0.45902 0.95436 0.56841 0.0
Eu115 Eu 0.63223 1.01338 0.5133 0.0
Eu116 Eu 0.39482 1.00911 0.51241 0.0
O117 O 0.57029 0.95603 0.56922 0.0
O118 O 0.45652 0.06598 0.56891 0.0
Eu119 Eu 0.51598 0.89194 0.51264 0.0
Eu120 Eu 0.51163 0.12965 0.51304 0.0
O121 O 0.57035 0.95663 0.45684 0.0
O122 O 0.56871 0.06823 0.45685 0.0
O123 O 0.4569 0.06624 0.45653 0.0
O124 O 0.45912 0.95446 0.45642 0.0
Eu125 Eu 0.51391 1.01186 0.39324 0.0
O126 O 0.51155 0.91817 0.68436 0.0
O127 O 0.51304 0.10433 0.68513 0.0
O128 O 0.51435 0.91921 0.34148 0.0
O129 O 0.51461 0.10515 0.34091 0.0
O130 O 0.68489 1.01356 0.42085 0.0
O131 O 0.6846 1.01322 0.60589 0.0
O132 O 0.34264 1.00861 0.41968 0.0
O133 O 0.34227 1.00886 0.60477 0.0
O134 O 0.41842 0.18077 0.51197 0.0
O135 O 0.60316 0.18401 0.51305 0.0
O136 O 0.42413 0.83814 0.51224 0.0
O137 O 0.60998 0.84106 0.51255 0.0
O138 O 0.42091 1.0122 0.34024 0.0
O139 O 0.60718 1.01144 0.34085 0.0
O140 O 0.42002 1.01141 0.68474 0.0
O141 O 0.60636 1.0104 0.68538 0.0
O142 O 0.5106 0.18218 0.60528 0.0
O143 O 0.51171 0.18273 0.42089 0.0
O144 O 0.51465 0.83897 0.60567 0.0
O145 O 0.5165 0.83935 0.41943 0.0
O146 O 0.68677 0.92191 0.51277 0.0
O147 O 0.68374 0.10701 0.51319 0.0
O148 O 0.34357 0.9153 0.51298 0.0
O149 O 0.34009 0.10125 0.51149 0.0
C150 C 0.50962 0.66388 0.85976 0.0
C151 C 0.51649 0.66489 0.16436 0.0
C152 C 0.51055 0.35896 0.8601 0.0
C153 C 0.51638 0.35964 0.166 0.0
C154 C 0.66556 0.35782 1.01222 0.0
C155 C 0.66677 0.66368 1.01106 0.0
C156 C 0.36043 0.35905 0.01821 0.0
C157 C 0.36202 0.66483 0.01447 0.0
C158 C 0.36573 0.51162 0.17009 0.0
C159 C 0.67076 0.50992 0.16116 0.0
C160 C 0.35656 0.51177 0.86446 0.0
C161 C 0.66185 0.51141 0.85545 0.0
Eu162 Eu 0.51424 0.62977 1.01213 0.0
O163 O 0.57191 0.56721 0.06685 0.0
O164 O 0.45614 0.56712 0.95829 0.0
Eu165 Eu 0.63321 0.51088 1.0093 0.0
Eu166 Eu 0.39425 0.51176 0.01621 0.0
O167 O 0.56873 0.56694 0.9548 0.0
O168 O 0.45923 0.56772 0.07009 0.0
Eu169 Eu 0.51023 0.51146 0.89381 0.0
Eu170 Eu 0.51719 0.51216 0.13162 0.0
O171 O 0.56787 0.45516 0.95539 0.0
O172 O 0.57076 0.45569 0.06694 0.0
O173 O 0.45932 0.45604 0.07028 0.0
O174 O 0.45572 0.45556 0.9585 0.0
Eu175 Eu 0.5131 0.39231 1.01299 0.0
O176 O 0.51216 0.68263 0.91962 0.0
O177 O 0.51514 0.68286 0.10422 0.0
O178 O 0.51186 0.33936 0.91993 0.0
O179 O 0.51452 0.33989 0.10631 0.0
O180 O 0.68537 0.41752 1.00992 0.0
O181 O 0.68624 0.60385 1.00967 0.0
O182 O 0.34115 0.41894 0.0182 0.0
O183 O 0.3421 0.60516 0.01623 0.0
O184 O 0.42622 0.51157 0.18704 0.0
O185 O 0.61141 0.51131 0.18186 0.0
O186 O 0.41592 0.51159 0.8437 0.0
O187 O 0.60134 0.51156 0.83856 0.0
O188 O 0.42027 0.34011 0.01589 0.0
O189 O 0.60548 0.33961 1.01299 0.0
O190 O 0.42213 0.68279 1.01261 0.0
O191 O 0.60679 0.68222 1.01131 0.0
O192 O 0.51784 0.60518 0.18417 0.0
O193 O 0.51764 0.41972 0.18407 0.0
O194 O 0.50894 0.60407 0.84045 0.0
O195 O 0.50936 0.41899 0.84182 0.0
O196 O 0.68286 0.51096 0.91476 0.0
O197 O 0.68815 0.50985 0.10078 0.0
O198 O 0.33933 0.51146 0.92486 0.0
O199 O 0.3447 0.51184 0.1108 0.0
C200 C 0.02168 0.27375 0.20352 0.0
C201 C 1.01187 0.20987 0.21852 0.0
C202 C 0.02186 0.32036 0.25013 0.0
C203 C 1.01224 0.30536 0.31399 0.0
H204 H 0.02982 0.28821 0.15532 0.0
H205 H 0.03005 0.36859 0.23564 0.0
S206 S 0.98169 0.14527 0.37849 0.0
N207 N 0.99044 0.13427 0.30219 0.0
N208 N 0.99076 0.22154 0.38952 0.0
C209 C 1.00173 0.24163 0.32973 0.0
C210 C 1.00159 0.1941 0.28217 0.0
C211 C 0.7486 1.01309 0.2008 0.0
C212 C 0.813 1.00938 0.21627 0.0
C213 C 0.70197 0.01391 0.24755 0.0
C214 C 0.7175 1.01114 0.312 0.0
H215 H 0.7337 0.01561 0.15211 0.0
H216 H 0.65329 0.01698 0.23268 0.0
S217 S 0.87938 0.99977 0.37816 0.0
N218 N 0.88972 1.002 0.30135 0.0
N219 N 0.80264 1.00366 0.38867 0.0
C220 C 0.78182 1.00711 0.32822 0.0
C221 C 0.82928 1.0062 0.28061 0.0
C222 C 1.00313 0.74522 0.20004 0.0
C223 C 0.02044 0.80777 0.21362 0.0
C224 C 1.00395 0.6984 0.24671 0.0
C225 C 0.02213 0.71212 0.30896 0.0
H226 H 0.98778 0.73232 0.15317 0.0
H227 H 0.98912 0.65132 0.23396 0.0
S228 S 0.0775 0.86737 0.36801 0.0
N229 N 0.06022 0.87995 0.29336 0.0
N230 N 0.06175 0.79237 0.38066 0.0
C231 C 0.04102 0.77421 0.32287 0.0
C232 C 0.04018 0.82185 0.27539 0.0
C233 C 0.32538 0.99917 0.2475 0.0
C234 C 0.31082 1.01211 0.31086 0.0
C235 C 0.27869 0.99932 0.20076 0.0
C236 C 0.21534 1.0124 0.2153 0.0
H237 H 0.3732 0.98809 0.23373 0.0
H238 H 0.2925 0.98839 0.15294 0.0
S239 S 0.15267 0.05361 0.37349 0.0
N240 N 0.22842 0.04132 0.38508 0.0
N241 N 0.1411 0.04152 0.29772 0.0
C242 C 0.20022 0.02637 0.2784 0.0
C243 C 0.24774 0.02624 0.32596 0.0
C244 C 1.00775 0.74871 0.82205 0.0
C245 C 0.01403 0.81298 0.80673 0.0
C246 C 1.00759 0.70204 0.77544 0.0
C247 C 0.01364 0.71728 0.71119 0.0
H248 H 1.00264 0.73392 0.87056 0.0
H249 H 1.00248 0.65349 0.7903 0.0
S250 S 0.03324 0.87865 0.64539 0.0
N251 N 0.02777 0.8893 0.72204 0.0
N252 N 0.02718 0.80201 0.63478 0.0
C253 C 0.02026 0.78147 0.69503 0.0
C254 C 0.0205 0.82905 0.7426 0.0
C255 C 0.27832 1.00551 0.82432 0.0
C256 C 0.21421 1.01291 0.80896 0.0
C257 C 0.32497 1.00476 0.77765 0.0
C258 C 0.30974 1.01133 0.71344 0.0
H259 H 0.29291 0.99989 0.87284 0.0
H260 H 0.37342 0.99865 0.79235 0.0
S261 S 0.1488 0.03343 0.64763 0.0
N262 N 0.13811 0.02783 0.72426 0.0
N263 N 0.22533 0.02649 0.63707 0.0
C264 C 0.24574 0.01898 0.69731 0.0
C265 C 0.19822 0.01974 0.74483 0.0
C266 C 0.99406 0.25026 0.70529 0.0
C267 C 0.01371 0.31223 0.71819 0.0
C268 C 0.99486 0.20358 0.75198 0.0
C269 C 0.01533 0.21687 0.8136 0.0
H270 H 0.97712 0.23767 0.65888 0.0
H271 H 0.97845 0.15689 0.7397 0.0
S272 S 0.07712 0.37039 0.87047 0.0
N273 N 0.05794 0.38343 0.79634 0.0
N274 N 0.0593 0.29598 0.88395 0.0
C275 C 0.03622 0.27842 0.8269 0.0
C276 C 0.03544 0.32597 0.77931 0.0
C277 C 0.70197 0.02347 0.77796 0.0
C278 C 0.71644 1.01 0.7147 0.0
C279 C 0.74871 0.02359 0.82466 0.0
C280 C 0.81199 1.01024 0.81016 0.0
H281 H 0.65421 0.0348 0.79168 0.0
H282 H 0.73501 0.03499 0.8724 0.0
S283 S 0.87443 0.96771 0.65237 0.0
N284 N 0.79871 0.98006 0.64066 0.0
N285 N 0.88608 0.98025 0.72802 0.0
C286 C 0.82701 0.99569 0.74721 0.0
C287 C 0.77946 0.99557 0.69968 0.0
C288 C 0.24962 0.3225 0.99979 0.0
C289 C 0.31128 0.3093 0.02025 0.0
C290 C 0.20289 0.27582 0.99953 0.0
C291 C 0.21587 0.21397 0.0196 0.0
H292 H 0.23742 0.36902 0.98276 0.0
H293 H 0.15649 0.2882 0.98243 0.0
S294 S 0.36806 0.15656 0.0842 0.0
N295 N 0.38151 0.23077 0.06553 0.0
N296 N 0.29399 0.1433 0.06496 0.0
C297 C 0.27694 0.20052 0.04175 0.0
C298 C 0.3245 0.24805 0.04207 0.0
C299 C 0.24937 0.70004 1.00667 0.0
C300 C 0.31344 0.71542 0.0141 0.0
C301 C 0.20268 0.74669 1.00572 0.0
C302 C 0.21788 0.81094 1.01213 0.0
H303 H 0.23481 0.65148 1.00113 0.0
H304 H 0.15426 0.73196 0.99965 0.0
S305 S 0.37868 0.87682 0.03382 0.0
N306 N 0.38948 0.80016 0.02874 0.0
N307 N 0.3022 0.88737 0.02683 0.0
C308 C 0.28185 0.82708 0.01969 0.0
C309 C 0.3294 0.77957 0.0207 0.0
C310 C 0.77759 0.32189 1.00073 0.0
C311 C 0.71428 0.30747 0.01413 0.0
C312 C 0.82431 0.27527 1.0015 0.0
C313 C 0.80986 0.21212 0.01572 0.0
H314 H 0.79139 0.36954 0.98885 0.0
H315 H 0.87205 0.28899 0.99006 0.0
S316 S 0.65202 0.14993 0.05904 0.0
N317 N 0.64026 0.22544 0.0453 0.0
N318 N 0.72774 0.13826 0.04677 0.0
C319 C 0.74689 0.19715 0.03036 0.0
C320 C 0.69928 0.24461 0.02957 0.0
C321 C 0.82535 0.74639 0.99725 0.0
C322 C 0.81143 0.80907 0.0137 0.0
C323 C 0.77851 0.69979 0.99673 0.0
C324 C 0.71571 0.71383 1.01262 0.0
H325 H 0.87269 0.73311 0.98384 0.0
H326 H 0.79174 0.65251 0.98302 0.0
S327 S 0.65522 0.86998 0.06361 0.0
N328 N 0.73051 0.88197 0.04935 0.0
N329 N 0.64286 0.7949 0.04826 0.0
C330 C 0.70132 0.7762 0.03017 0.0
C331 C 0.74899 0.82359 0.03074 0.0
C332 C 0.77442 0.50969 0.81974 0.0
C333 C 0.70996 0.51196 0.80434 0.0
C334 C 0.82099 0.51036 0.77314 0.0
C335 C 0.80554 0.51335 0.70872 0.0
H336 H 0.78952 0.50728 0.86837 0.0
H337 H 0.86967 0.50838 0.7882 0.0
S338 S 0.64351 0.52076 0.64246 0.0
N339 N 0.63306 0.51769 0.7193 0.0
N340 N 0.72038 0.519 0.63193 0.0
C341 C 0.74117 0.51573 0.6924 0.0
C342 C 0.69358 0.51502 0.74002 0.0
C343 C 0.27364 0.49912 0.70619 0.0
C344 C 0.21022 0.51189 0.72064 0.0
C345 C 0.32025 0.49919 0.75284 0.0
C346 C 0.30572 0.51207 0.81619 0.0
H347 H 0.28774 0.48852 0.65839 0.0
H348 H 0.3681 0.48857 0.73884 0.0
S349 S 0.14717 0.55119 0.87911 0.0
N350 N 0.13563 0.53949 0.80325 0.0
N351 N 0.22307 0.53972 0.89067 0.0
C352 C 0.2425 0.52533 0.83144 0.0
C353 C 0.19492 0.52522 0.78383 0.0
C354 C 0.20739 0.49935 0.25281 0.0
C355 C 0.2222 0.50891 0.3167 0.0
C356 C 0.25394 0.50032 0.2062 0.0
C357 C 0.31766 0.51088 0.22115 0.0
H358 H 0.15928 0.49076 0.23824 0.0
H359 H 0.23951 0.49237 0.15797 0.0
S360 S 0.38196 0.54003 0.38142 0.0
N361 N 0.30575 0.53025 0.39244 0.0
N362 N 0.39308 0.53198 0.30503 0.0
C363 C 0.33338 0.52053 0.28495 0.0
C364 C 0.28582 0.51957 0.33257 0.0
C365 C 0.70812 0.52768 0.27166 0.0
C366 C 0.72142 0.50895 0.20952 0.0
C367 C 0.75482 0.52781 0.31826 0.0
C368 C 0.81699 0.50918 0.30489 0.0
H369 H 0.66129 0.54314 0.28456 0.0
H370 H 0.74195 0.54334 0.36505 0.0
S371 S 0.87568 0.45125 0.15065 0.0
N372 N 0.80098 0.46822 0.13785 0.0
N373 N 0.88861 0.46843 0.22526 0.0
C374 C 0.83088 0.48944 0.24311 0.0
C375 C 0.78322 0.48933 0.19556 0.0
C376 C 0.25153 0.81997 0.50445 0.0
C377 C 0.31544 0.805 0.51376 0.0
C378 C 0.20488 0.77331 0.50483 0.0
C379 C 0.21991 0.70942 0.51455 0.0
H380 H 0.23705 0.8682 0.49636 0.0
H381 H 0.15662 0.78776 0.49706 0.0
S382 S 0.38019 0.64489 0.54338 0.0
N383 N 0.39113 0.72123 0.53449 0.0
N384 N 0.30383 0.63385 0.53506 0.0
C385 C 0.28368 0.69369 0.52429 0.0
C386 C 0.33125 0.74127 0.52393 0.0
C387 C 0.20053 0.24416 0.5289 0.0
C388 C 0.21402 0.30666 0.51119 0.0
C389 C 0.24722 0.19734 0.528 0.0
C390 C 0.30934 0.21106 0.50932 0.0
H391 H 0.15376 0.23133 0.54461 0.0
H392 H 0.23461 0.15027 0.54312 0.0
S393 S 0.36774 0.36595 0.452 0.0
N394 N 0.29331 0.37858 0.46998 0.0
N395 N 0.38056 0.29111 0.4683 0.0
C396 C 0.32304 0.27305 0.48984 0.0
C397 C 0.27559 0.32063 0.49078 0.0
C398 C 0.75139 0.70193 0.51227 0.0
C399 C 0.8158 0.71735 0.50909 0.0
C400 C 0.70483 0.74866 0.51338 0.0
C401 C 0.72035 0.81314 0.51137 0.0
H402 H 0.73638 0.65323 0.51418 0.0
H403 H 0.65618 0.7337 0.51597 0.0
S404 S 0.88237 0.87923 0.50232 0.0
N405 N 0.89267 0.80236 0.50361 0.0
N406 N 0.80557 0.88986 0.50565 0.0
C407 C 0.78469 0.82938 0.50809 0.0
C408 C 0.83218 0.78171 0.50696 0.0
C409 C 0.77624 0.20183 0.50801 0.0
C410 C 0.71195 0.21734 0.51295 0.0
C411 C 0.82299 0.24841 0.5077 0.0
C412 C 0.80774 0.31278 0.51229 0.0
H413 H 0.791 0.15319 0.50412 0.0
H414 H 0.87153 0.23347 0.50351 0.0
S415 S 0.64635 0.37916 0.52692 0.0
N416 N 0.63558 0.30241 0.52295 0.0
N417 N 0.7231 0.38956 0.52252 0.0
C418 C 0.74357 0.32912 0.51733 0.0
C419 C 0.69588 0.28163 0.51762 0.0
C420 C 0.50977 0.24582 0.82512 0.0
C421 C 0.51073 0.31031 0.80953 0.0
C422 C 0.51013 0.19915 0.77844 0.0
C423 C 0.51145 0.21472 0.71397 0.0
H424 H 0.50869 0.23091 0.87385 0.0
H425 H 0.50926 0.15037 0.79338 0.0
S426 S 0.51473 0.37694 0.64736 0.0
N427 N 0.51339 0.38723 0.7242 0.0
N428 N 0.51401 0.30006 0.63707 0.0
C429 C 0.51251 0.27916 0.69759 0.0
C430 C 0.51215 0.32666 0.74512 0.0
C431 C 0.52969 0.74736 0.7025 0.0
C432 C 0.50932 0.80913 0.71531 0.0
C433 C 0.52906 0.70061 0.7492 0.0
C434 C 0.50807 0.71368 0.81067 0.0
H435 H 0.54726 0.73508 0.65627 0.0
H436 H 0.54624 0.65413 0.73718 0.0
S437 S 0.44352 0.86608 0.86703 0.0
N438 N 0.46323 0.87949 0.79314 0.0
N439 N 0.46221 0.79191 0.88059 0.0
C440 C 0.48609 0.77482 0.82375 0.0
C441 C 0.48666 0.8224 0.77622 0.0
C442 C 0.51945 0.69964 0.27748 0.0
C443 C 0.51619 0.71538 0.2131 0.0
C444 C 0.51914 0.74613 0.32434 0.0
C445 C 0.51554 0.81058 0.30901 0.0
H446 H 0.52233 0.65088 0.29224 0.0
H447 H 0.52184 0.73112 0.37297 0.0
S448 S 0.50503 0.87752 0.14741 0.0
N449 N 0.50852 0.80078 0.13667 0.0
N450 N 0.50793 0.8876 0.22418 0.0
C451 C 0.51202 0.82706 0.24474 0.0
C452 C 0.51234 0.77975 0.19703 0.0
C453 C 0.50794 0.20025 0.24804 0.0
C454 C 0.51486 0.21542 0.31221 0.0
C455 C 0.50877 0.24692 0.20133 0.0
C456 C 0.51654 0.31099 0.2166 0.0
H457 H 0.50141 0.15184 0.23342 0.0
H458 H 0.50289 0.23237 0.15285 0.0
S459 S 0.53877 0.37611 0.37773 0.0
N460 N 0.5313 0.2996 0.38841 0.0
N461 N 0.53268 0.38693 0.30114 0.0
C462 C 0.52398 0.32688 0.28067 0.0
C463 C 0.52316 0.27933 0.32824 0.0
loop_
_geom_bond_atom_site_label_1
_geom_bond_atom_site_label_2
_geom_bond_distance
_geom_bond_site_symmetry_2
_ccdc_geom_bond_type
C0 O26 1.283 . S
C0 O44 1.283 . S
C1 O27 1.283 . S
C1 O42 1.283 . S
C2 O28 1.283 . S
C2 O45 1.283 . S
C3 O29 1.283 . S
C3 O43 1.283 . S
C4 O30 1.283 . S
C4 O39 1.283 . S
C5 O31 1.283 . S
C5 O41 1.283 . S
C6 O32 1.283 . S
C6 O38 1.283 . S
C7 O33 1.283 . S
C7 O40 1.283 . S
C8 O34 1.283 . S
C8 O49 1.283 . S
C9 O35 1.283 . S
C9 O47 1.283 . S
C10 O36 1.283 . S
C10 O48 1.283 . S
C11 O37 1.283 . S
C11 O46 1.283 . S
Eu12 O13 2.370 1_454 S
Eu12 O14 2.370 . S
Eu12 O17 2.370 1_455 S
Eu12 O18 2.370 1_554 S
Eu12 O26 2.363 . S
Eu12 O27 2.363 1_554 S
Eu12 O40 2.363 . S
Eu12 O41 2.363 1_455 S
O13 Eu12 2.370 1_656 S
O13 Eu15 2.370 1_566 S
O13 Eu20 2.370 1_665 S
O14 Eu12 2.370 . S
O14 Eu16 2.370 1_565 S
O14 Eu19 2.370 1_565 S
Eu15 O13 2.370 1_544 S
Eu15 O17 2.370 1_545 S
Eu15 O21 2.370 . S
Eu15 O22 2.370 1_554 S
Eu15 O30 2.363 . S
Eu15 O31 2.363 1_545 S
Eu15 O46 2.363 . S
Eu15 O47 2.363 1_554 S
Eu16 O14 2.370 1_545 S
Eu16 O18 2.370 1_544 S
Eu16 O23 2.370 1_554 S
Eu16 O24 2.370 . S
Eu16 O32 2.363 . S
Eu16 O33 2.363 1_545 S
Eu16 O48 2.363 . S
Eu16 O49 2.363 1_554 S
O17 Eu12 2.370 1_655 S
O17 Eu15 2.370 1_565 S
O17 Eu19 2.370 1_665 S
O18 Eu12 2.370 1_556 S
O18 Eu16 2.370 1_566 S
O18 Eu20 2.370 1_565 S
Eu19 O14 2.370 1_545 S
Eu19 O17 2.370 1_445 S
Eu19 O21 2.370 1_455 S
Eu19 O24 2.370 . S
Eu19 O36 2.363 . S
Eu19 O37 2.363 1_455 S
Eu19 O44 2.363 1_545 S
Eu19 O45 2.363 . S
Eu20 O13 2.370 1_445 S
Eu20 O18 2.370 1_545 S
Eu20 O22 2.370 1_455 S
Eu20 O23 2.370 . S
Eu20 O34 2.363 . S
Eu20 O35 2.363 1_455 S
Eu20 O42 2.363 1_545 S
Eu20 O43 2.363 . S
O21 Eu15 2.370 . S
O21 Eu19 2.370 1_655 S
O21 Eu25 2.370 1_655 S
O22 Eu15 2.370 1_556 S
O22 Eu20 2.370 1_655 S
O22 Eu25 2.370 1_656 S
O23 Eu16 2.370 1_556 S
O23 Eu20 2.370 . S
O23 Eu25 2.370 1_556 S
O24 Eu16 2.370 . S
O24 Eu19 2.370 . S
O24 Eu25 2.370 . S
Eu25 O21 2.370 1_455 S
Eu25 O22 2.370 1_454 S
Eu25 O23 2.370 1_554 S
Eu25 O24 2.370 . S
Eu25 O28 2.363 . S
Eu25 O29 2.363 1_554 S
Eu25 O38 2.363 . S
Eu25 O39 2.363 1_455 S
O26 C0 1.283 . S
O26 Eu12 2.363 . S
O27 C1 1.283 . S
O27 Eu12 2.363 1_556 S
O28 C2 1.283 . S
O28 Eu25 2.363 . S
O29 C3 1.283 . S
O29 Eu25 2.363 1_556 S
O30 C4 1.283 . S
O30 Eu15 2.363 . S
O31 C5 1.283 . S
O31 Eu15 2.363 1_565 S
O32 C6 1.283 . S
O32 Eu16 2.363 . S
O33 C7 1.283 . S
O33 Eu16 2.363 1_565 S
O34 C8 1.283 . S
O34 Eu20 2.363 . S
O35 C9 1.283 . S
O35 Eu20 2.363 1_655 S
O36 C10 1.283 . S
O36 Eu19 2.363 . S
O37 C11 1.283 . S
O37 Eu19 2.363 1_655 S
O38 C6 1.283 . S
O38 Eu25 2.363 . S
O39 C4 1.283 . S
O39 Eu25 2.363 1_655 S
O40 C7 1.283 . S
O40 Eu12 2.363 . S
O41 C5 1.283 . S
O41 Eu12 2.363 1_655 S
O42 C1 1.283 . S
O42 Eu20 2.363 1_565 S
O43 C3 1.283 . S
O43 Eu20 2.363 . S
O44 C0 1.283 . S
O44 Eu19 2.363 1_565 S
O45 C2 1.283 . S
O45 Eu19 2.363 . S
O46 C11 1.283 . S
O46 Eu15 2.363 . S
O47 C9 1.283 . S
O47 Eu15 2.363 1_556 S
O48 C10 1.283 . S
O48 Eu16 2.363 . S
O49 C8 1.283 . S
O49 Eu16 2.363 1_556 S
C50 O76 1.283 . S
C50 O94 1.283 . S
C51 O77 1.283 . S
C51 O92 1.283 . S
C52 O78 1.283 . S
C52 O95 1.283 . S
C53 O79 1.283 . S
C53 O93 1.283 . S
C54 O80 1.283 . S
C54 O89 1.283 . S
C55 O81 1.283 . S
C55 O91 1.283 . S
C56 O82 1.283 . S
C56 O88 1.283 . S
C57 O83 1.283 . S
C57 O90 1.283 . S
C58 O84 1.283 . S
C58 O99 1.283 . S
C59 O85 1.283 . S
C59 O97 1.283 . S
C60 O86 1.283 . S
C60 O98 1.283 . S
C61 O87 1.283 . S
C61 O96 1.283 . S
Eu62 O63 2.370 . S
Eu62 O64 2.370 1_455 S
Eu62 O67 2.370 . S
Eu62 O68 2.370 1_455 S
Eu62 O76 2.363 . S
Eu62 O77 2.363 . S
Eu62 O90 2.363 1_455 S
Eu62 O91 2.363 . S
O63 Eu62 2.370 . S
O63 Eu65 2.370 . S
O63 Eu70 2.370 . S
O64 Eu62 2.370 1_655 S
O64 Eu66 2.370 . S
O64 Eu69 2.370 1_655 S
Eu65 O63 2.370 . S
Eu65 O67 2.370 . S
Eu65 O71 2.370 . S
Eu65 O72 2.370 . S
Eu65 O80 2.363 . S
Eu65 O81 2.363 . S
Eu65 O96 2.363 . S
Eu65 O97 2.363 . S
Eu66 O64 2.370 . S
Eu66 O68 2.370 . S
Eu66 O73 2.370 . S
Eu66 O74 2.370 . S
Eu66 O82 2.363 . S
Eu66 O83 2.363 . S
Eu66 O98 2.363 . S
Eu66 O99 2.363 . S
O67 Eu62 2.370 . S
O67 Eu65 2.370 . S
O67 Eu69 2.370 . S
O68 Eu62 2.370 1_655 S
O68 Eu66 2.370 . S
O68 Eu70 2.370 1_655 S
Eu69 O64 2.370 1_455 S
Eu69 O67 2.370 . S
Eu69 O71 2.370 . S
Eu69 O74 2.370 1_455 S
Eu69 O86 2.363 1_455 S
Eu69 O87 2.363 . S
Eu69 O94 2.363 . S
Eu69 O95 2.363 . S
Eu70 O63 2.370 . S
Eu70 O68 2.370 1_455 S
Eu70 O72 2.370 . S
Eu70 O73 2.370 1_455 S
Eu70 O84 2.363 1_455 S
Eu70 O85 2.363 . S
Eu70 O92 2.363 . S
Eu70 O93 2.363 . S
O71 Eu65 2.370 . S
O71 Eu69 2.370 . S
O71 Eu75 2.370 . S
O72 Eu65 2.370 . S
O72 Eu70 2.370 . S
O72 Eu75 2.370 . S
O73 Eu66 2.370 . S
O73 Eu70 2.370 1_655 S
O73 Eu75 2.370 1_655 S
O74 Eu66 2.370 . S
O74 Eu69 2.370 1_655 S
O74 Eu75 2.370 1_655 S
Eu75 O71 2.370 . S
Eu75 O72 2.370 . S
Eu75 O73 2.370 1_455 S
Eu75 O74 2.370 1_455 S
Eu75 O78 2.363 . S
Eu75 O79 2.363 . S
Eu75 O88 2.363 1_455 S
Eu75 O89 2.363 . S
O76 C50 1.283 . S
O76 Eu62 2.363 . S
O77 C51 1.283 . S
O77 Eu62 2.363 . S
O78 C52 1.283 . S
O78 Eu75 2.363 . S
O79 C53 1.283 . S
O79 Eu75 2.363 . S
O80 C54 1.283 . S
O80 Eu65 2.363 . S
O81 C55 1.283 . S
O81 Eu65 2.363 . S
O82 C56 1.283 . S
O82 Eu66 2.363 . S
O83 C57 1.283 . S
O83 Eu66 2.363 . S
O84 C58 1.283 . S
O84 Eu70 2.363 1_655 S
O85 C59 1.283 . S
O85 Eu70 2.363 . S
O86 C60 1.283 . S
O86 Eu69 2.363 1_655 S
O87 C61 1.283 . S
O87 Eu69 2.363 . S
O88 C56 1.283 . S
O88 Eu75 2.363 1_655 S
O89 C54 1.283 . S
O89 Eu75 2.363 . S
O90 C57 1.283 . S
O90 Eu62 2.363 1_655 S
O91 C55 1.283 . S
O91 Eu62 2.363 . S
O92 C51 1.283 . S
O92 Eu70 2.363 . S
O93 C53 1.283 . S
O93 Eu70 2.363 . S
O94 C50 1.283 . S
O94 Eu69 2.363 . S
O95 C52 1.283 . S
O95 Eu69 2.363 . S
O96 C61 1.283 . S
O96 Eu65 2.363 . S
O97 C59 1.283 . S
O97 Eu65 2.363 . S
O98 C60 1.283 . S
O98 Eu66 2.363 . S
O99 C58 1.283 . S
O99 Eu66 2.363 . S
C100 O126 1.283 . S
C100 O144 1.283 . S
C101 O127 1.283 . S
C101 O142 1.283 . S
C102 O128 1.283 . S
C102 O145 1.283 . S
C103 O129 1.283 . S
C103 O143 1.283 . S
C104 O130 1.283 . S
C104 O139 1.283 . S
C105 O131 1.283 . S
C105 O141 1.283 . S
C106 O132 1.283 . S
C106 O138 1.283 . S
C107 O133 1.283 . S
C107 O140 1.283 . S
C108 O134 1.283 . S
C108 O149 1.283 . S
C109 O135 1.283 . S
C109 O147 1.283 . S
C110 O136 1.283 . S
C110 O148 1.283 . S
C111 O137 1.283 . S
C111 O146 1.283 . S
Eu112 O113 2.370 . S
Eu112 O114 2.370 1_545 S
Eu112 O117 2.370 1_545 S
Eu112 O118 2.370 . S
Eu112 O126 2.363 1_545 S
Eu112 O127 2.363 . S
Eu112 O140 2.363 . S
Eu112 O141 2.363 . S
O113 Eu112 2.370 . S
O113 Eu115 2.370 . S
O113 Eu120 2.370 . S
O114 Eu112 2.370 1_565 S
O114 Eu116 2.370 1_565 S
O114 Eu119 2.370 . S
Eu115 O113 2.370 . S
Eu115 O117 2.370 1_545 S
Eu115 O121 2.370 1_545 S
Eu115 O122 2.370 . S
Eu115 O130 2.363 . S
Eu115 O131 2.363 . S
Eu115 O146 2.363 1_545 S
Eu115 O147 2.363 . S
Eu116 O114 2.370 1_545 S
Eu116 O118 2.370 . S
Eu116 O123 2.370 . S
Eu116 O124 2.370 1_545 S
Eu116 O132 2.363 . S
Eu116 O133 2.363 . S
Eu116 O148 2.363 1_545 S
Eu116 O149 2.363 . S
O117 Eu112 2.370 1_565 S
O117 Eu115 2.370 1_565 S
O117 Eu119 2.370 . S
O118 Eu112 2.370 . S
O118 Eu116 2.370 . S
O118 Eu120 2.370 . S
Eu119 O114 2.370 . S
Eu119 O117 2.370 . S
Eu119 O121 2.370 . S
Eu119 O124 2.370 . S
Eu119 O136 2.363 . S
Eu119 O137 2.363 . S
Eu119 O144 2.363 . S
Eu119 O145 2.363 . S
Eu120 O113 2.370 . S
Eu120 O118 2.370 . S
Eu120 O122 2.370 . S
Eu120 O123 2.370 . S
Eu120 O134 2.363 . S
Eu120 O135 2.363 . S
Eu120 O142 2.363 . S
Eu120 O143 2.363 . S
O121 Eu115 2.370 1_565 S
O121 Eu119 2.370 . S
O121 Eu125 2.370 1_565 S
O122 Eu115 2.370 . S
O122 Eu120 2.370 . S
O122 Eu125 2.370 . S
O123 Eu116 2.370 . S
O123 Eu120 2.370 . S
O123 Eu125 2.370 . S
O124 Eu116 2.370 1_565 S
O124 Eu119 2.370 . S
O124 Eu125 2.370 1_565 S
Eu125 O121 2.370 1_545 S
Eu125 O122 2.370 . S
Eu125 O123 2.370 . S
Eu125 O124 2.370 1_545 S
Eu125 O128 2.363 1_545 S
Eu125 O129 2.363 . S
Eu125 O138 2.363 . S
Eu125 O139 2.363 . S
O126 C100 1.283 . S
O126 Eu112 2.363 1_565 S
O127 C101 1.283 . S
O127 Eu112 2.363 . S
O128 C102 1.283 . S
O128 Eu125 2.363 1_565 S
O129 C103 1.283 . S
O129 Eu125 2.363 . S
O130 C104 1.283 . S
O130 Eu115 2.363 . S
O131 C105 1.283 . S
O131 Eu115 2.363 . S
O132 C106 1.283 . S
O132 Eu116 2.363 . S
O133 C107 1.283 . S
O133 Eu116 2.363 . S
O134 C108 1.283 . S
O134 Eu120 2.363 . S
O135 C109 1.283 . S
O135 Eu120 2.363 . S
O136 C110 1.283 . S
O136 Eu119 2.363 . S
O137 C111 1.283 . S
O137 Eu119 2.363 . S
O138 C106 1.283 . S
O138 Eu125 2.363 . S
O139 C104 1.283 . S
O139 Eu125 2.363 . S
O140 C107 1.283 . S
O140 Eu112 2.363 . S
O141 C105 1.283 . S
O141 Eu112 2.363 . S
O142 C101 1.283 . S
O142 Eu120 2.363 . S
O143 C103 1.283 . S
O143 Eu120 2.363 . S
O144 C100 1.283 . S
O144 Eu119 2.363 . S
O145 C102 1.283 . S
O145 Eu119 2.363 . S
O146 C111 1.283 . S
O146 Eu115 2.363 1_565 S
O147 C109 1.283 . S
O147 Eu115 2.363 . S
O148 C110 1.283 . S
O148 Eu116 2.363 1_565 S
O149 C108 1.283 . S
O149 Eu116 2.363 . S
C150 O176 1.283 . S
C150 O194 1.283 . S
C151 O177 1.283 . S
C151 O192 1.283 . S
C152 O178 1.283 . S
C152 O195 1.283 . S
C153 O179 1.283 . S
C153 O193 1.283 . S
C154 O180 1.283 . S
C154 O189 1.283 . S
C155 O181 1.283 . S
C155 O191 1.283 . S
C156 O182 1.283 . S
C156 O188 1.283 . S
C157 O183 1.283 . S
C157 O190 1.283 . S
C158 O184 1.283 . S
C158 O199 1.283 . S
C159 O185 1.283 . S
C159 O197 1.283 . S
C160 O186 1.283 . S
C160 O198 1.283 . S
C161 O187 1.283 . S
C161 O196 1.283 . S
Eu162 O163 2.370 . S
Eu162 O164 2.370 1_554 S
Eu162 O167 2.370 1_554 S
Eu162 O168 2.370 . S
Eu162 O176 2.363 1_554 S
Eu162 O177 2.363 . S
Eu162 O190 2.363 . S
Eu162 O191 2.363 . S
O163 Eu162 2.370 . S
O163 Eu165 2.370 . S
O163 Eu170 2.370 . S
O164 Eu162 2.370 1_556 S
O164 Eu166 2.370 1_556 S
O164 Eu169 2.370 . S
Eu165 O163 2.370 . S
Eu165 O167 2.370 1_554 S
Eu165 O171 2.370 1_554 S
Eu165 O172 2.370 . S
Eu165 O180 2.363 . S
Eu165 O181 2.363 . S
Eu165 O196 2.363 1_554 S
Eu165 O197 2.363 . S
Eu166 O164 2.370 1_554 S
Eu166 O168 2.370 . S
Eu166 O173 2.370 . S
Eu166 O174 2.370 1_554 S
Eu166 O182 2.363 . S
Eu166 O183 2.363 . S
Eu166 O198 2.363 1_554 S
Eu166 O199 2.363 . S
O167 Eu162 2.370 1_556 S
O167 Eu165 2.370 1_556 S
O167 Eu169 2.370 . S
O168 Eu162 2.370 . S
O168 Eu166 2.370 . S
O168 Eu170 2.370 . S
Eu169 O164 2.370 . S
Eu169 O167 2.370 . S
Eu169 O171 2.370 . S
Eu169 O174 2.370 . S
Eu169 O186 2.363 . S
Eu169 O187 2.363 . S
Eu169 O194 2.363 . S
Eu169 O195 2.363 . S
Eu170 O163 2.370 . S
Eu170 O168 2.370 . S
Eu170 O172 2.370 . S
Eu170 O173 2.370 . S
Eu170 O184 2.363 . S
Eu170 O185 2.363 . S
Eu170 O192 2.363 . S
Eu170 O193 2.363 . S
O171 Eu165 2.370 1_556 S
O171 Eu169 2.370 . S
O171 Eu175 2.370 1_556 S
O172 Eu165 2.370 . S
O172 Eu170 2.370 . S
O172 Eu175 2.370 . S
O173 Eu166 2.370 . S
O173 Eu170 2.370 . S
O173 Eu175 2.370 . S
O174 Eu166 2.370 1_556 S
O174 Eu169 2.370 . S
O174 Eu175 2.370 1_556 S
Eu175 O171 2.370 1_554 S
Eu175 O172 2.370 . S
Eu175 O173 2.370 . S
Eu175 O174 2.370 1_554 S
Eu175 O178 2.363 1_554 S
Eu175 O179 2.363 . S
Eu175 O188 2.363 . S
Eu175 O189 2.363 . S
O176 C150 1.283 . S
O176 Eu162 2.363 1_556 S
O177 C151 1.283 . S
O177 Eu162 2.363 . S
O178 C152 1.283 . S
O178 Eu175 2.363 1_556 S
O179 C153 1.283 . S
O179 Eu175 2.363 . S
O180 C154 1.283 . S
O180 Eu165 2.363 . S
O181 C155 1.283 . S
O181 Eu165 2.363 . S
O182 C156 1.283 . S
O182 Eu166 2.363 . S
O183 C157 1.283 . S
O183 Eu166 2.363 . S
O184 C158 1.283 . S
O184 Eu170 2.363 . S
O185 C159 1.283 . S
O185 Eu170 2.363 . S
O186 C160 1.283 . S
O186 Eu169 2.363 . S
O187 C161 1.283 . S
O187 Eu169 2.363 . S
O188 C156 1.283 . S
O188 Eu175 2.363 . S
O189 C154 1.283 . S
O189 Eu175 2.363 . S
O190 C157 1.283 . S
O190 Eu162 2.363 . S
O191 C155 1.283 . S
O191 Eu162 2.363 . S
O192 C151 1.283 . S
O192 Eu170 2.363 . S
O193 C153 1.283 . S
O193 Eu170 2.363 . S
O194 C150 1.283 . S
O194 Eu169 2.363 . S
O195 C152 1.283 . S
O195 Eu169 2.363 . S
O196 C161 1.283 . S
O196 Eu165 2.363 1_556 S
O197 C159 1.283 . S
O197 Eu165 2.363 . S
O198 C160 1.283 . S
O198 Eu166 2.363 1_556 S
O199 C158 1.283 . S
O199 Eu166 2.363 . S
C200 C201 1.359 1_455 S
C200 C202 1.419 . S
C200 H204 0.930 . S
C201 C200 1.359 1_655 S
C201 C210 1.439 . S
C202 C200 1.419 . S
C202 C203 1.356 1_455 S
C202 H205 0.929 . S
C203 C202 1.356 1_655 S
C203 C209 1.436 . S
H204 C200 0.930 . S
H205 C202 0.929 . S
S206 N207 1.613 . S
S206 N208 1.610 . S
N207 S206 1.613 . S
N207 C210 1.350 . S
N208 S206 1.610 . S
N208 C209 1.351 . S
C209 C203 1.436 . S
C209 N208 1.351 . S
C209 C210 1.434 . S
C210 C201 1.439 . S
C210 N207 1.350 . S
C210 C209 1.434 . S
C211 C212 1.363 1_545 S
C211 C213 1.419 . S
C211 H215 0.930 . S
C212 C211 1.363 1_565 S
C212 C221 1.435 . S
C213 C211 1.419 . S
C213 C214 1.360 1_545 S
C213 H216 0.929 . S
C214 C213 1.360 1_565 S
C214 C220 1.432 . S
H215 C211 0.930 . S
H216 C213 0.929 . S
S217 N218 1.613 . S
S217 N219 1.610 . S
N218 S217 1.613 . S
N218 C221 1.350 . S
N219 S217 1.610 . S
N219 C220 1.351 . S
C220 C214 1.432 . S
C220 N219 1.351 . S
C220 C221 1.434 . S
C221 C212 1.435 . S
C221 N218 1.350 . S
C221 C220 1.434 . S
C222 C223 1.355 1_655 S
C222 C224 1.419 . S
C222 H226 0.930 . S
C223 C222 1.355 1_455 S
C223 C232 1.443 . S
C224 C222 1.419 . S
C224 C225 1.352 1_655 S
C224 H227 0.929 . S
C225 C224 1.352 1_455 S
C225 C231 1.440 . S
H226 C222 0.930 . S
H227 C224 0.929 . S
S228 N229 1.613 . S
S228 N230 1.610 . S
N229 S228 1.613 . S
N229 C232 1.350 . S
N230 S228 1.610 . S
N230 C231 1.351 . S
C231 C225 1.440 . S
C231 N230 1.351 . S
C231 C232 1.434 . S
C232 C223 1.443 . S
C232 N229 1.350 . S
C232 C231 1.434 . S
C233 C234 1.362 1_545 S
C233 C235 1.419 . S
C233 H237 0.930 . S
C234 C233 1.362 1_565 S
C234 C243 1.436 . S
C235 C233 1.419 . S
C235 C236 1.359 1_545 S
C235 H238 0.929 . S
C236 C235 1.359 1_565 S
C236 C242 1.433 . S
H237 C233 0.930 . S
H238 C235 0.929 . S
S239 N240 1.613 . S
S239 N241 1.610 . S
N240 S239 1.613 . S
N240 C243 1.350 . S
N241 S239 1.610 . S
N241 C242 1.351 . S
C242 C236 1.433 . S
C242 N241 1.351 . S
C242 C243 1.434 . S
C243 C234 1.436 . S
C243 N240 1.350 . S
C243 C242 1.434 . S
C244 C245 1.369 . S
C244 C246 1.419 . S
C244 H248 0.930 . S
C245 C244 1.369 . S
C245 C254 1.429 1_655 S
C246 C244 1.419 . S
C246 C247 1.363 . S
C246 H249 0.929 . S
C247 C246 1.363 . S
C247 C253 1.429 1_655 S
H248 C244 0.930 . S
H249 C246 0.929 . S
S250 N251 1.613 . S
S250 N252 1.610 . S
N251 S250 1.613 . S
N251 C254 1.350 . S
N252 S250 1.610 . S
N252 C253 1.351 . S
C253 C247 1.429 1_455 S
C253 N252 1.351 . S
C253 C254 1.434 . S
C254 C245 1.429 1_455 S
C254 N251 1.350 . S
C254 C253 1.434 . S
C255 C256 1.369 . S
C255 C257 1.419 . S
C255 H259 0.930 . S
C256 C255 1.369 . S
C256 C265 1.429 1_565 S
C257 C255 1.419 . S
C257 C258 1.363 1_565 S
C257 H260 0.929 . S
C258 C257 1.363 1_545 S
C258 C264 1.428 . S
H259 C255 0.930 . S
H260 C257 0.929 . S
S261 N262 1.613 . S
S261 N263 1.610 . S
N262 S261 1.613 . S
N262 C265 1.350 . S
N263 S261 1.610 . S
N263 C264 1.351 . S
C264 C258 1.428 . S
C264 N263 1.351 . S
C264 C265 1.434 . S
C265 C256 1.429 1_545 S
C265 N262 1.350 . S
C265 C264 1.434 . S
C266 C267 1.355 1_655 S
C266 C268 1.419 . S
C266 H270 0.930 . S
C267 C266 1.355 1_455 S
C267 C276 1.443 . S
C268 C266 1.419 . S
C268 C269 1.352 1_655 S
C268 H271 0.929 . S
C269 C268 1.352 1_455 S
C269 C275 1.439 . S
H270 C266 0.930 . S
H271 C268 0.929 . S
S272 N273 1.613 . S
S272 N274 1.610 . S
N273 S272 1.613 . S
N273 C276 1.350 . S
N274 S272 1.610 . S
N274 C275 1.351 . S
C275 C269 1.439 . S
C275 N274 1.351 . S
C275 C276 1.434 . S
C276 C267 1.443 . S
C276 N273 1.350 . S
C276 C275 1.434 . S
C277 C278 1.359 1_545 S
C277 C279 1.419 . S
C277 H281 0.930 . S
C278 C277 1.359 1_565 S
C278 C287 1.439 . S
C279 C277 1.419 . S
C279 C280 1.356 1_545 S
C279 H282 0.929 . S
C280 C279 1.356 1_565 S
C280 C286 1.436 . S
H281 C277 0.930 . S
H282 C279 0.929 . S
S283 N284 1.613 . S
S283 N285 1.610 . S
N284 S283 1.613 . S
N284 C287 1.350 . S
N285 S283 1.610 . S
N285 C286 1.351 . S
C286 C280 1.436 . S
C286 N285 1.351 . S
C286 C287 1.434 . S
C287 C278 1.439 . S
C287 N284 1.350 . S
C287 C286 1.434 . S
C288 C289 1.369 1_556 S
C288 C290 1.419 . S
C288 H292 0.930 . S
C289 C288 1.369 1_554 S
C289 C298 1.429 . S
C290 C288 1.419 . S
C290 C291 1.363 1_556 S
C290 H293 0.929 . S
C291 C290 1.363 1_554 S
C291 C297 1.429 . S
H292 C288 0.930 . S
H293 C290 0.929 . S
S294 N295 1.613 . S
S294 N296 1.610 . S
N295 S294 1.613 . S
N295 C298 1.350 . S
N296 S294 1.610 . S
N296 C297 1.351 . S
C297 C291 1.429 . S
C297 N296 1.351 . S
C297 C298 1.434 . S
C298 C289 1.429 . S
C298 N295 1.350 . S
C298 C297 1.434 . S
C299 C300 1.361 1_556 S
C299 C301 1.419 . S
C299 H303 0.930 . S
C300 C299 1.361 1_554 S
C300 C309 1.437 . S
C301 C299 1.419 . S
C301 C302 1.357 1_556 S
C301 H304 0.929 . S
C302 C301 1.357 1_554 S
C302 C308 1.434 . S
H303 C299 0.930 . S
H304 C301 0.929 . S
S305 N306 1.613 . S
S305 N307 1.610 . S
N306 S305 1.613 . S
N306 C309 1.350 . S
N307 S305 1.610 . S
N307 C308 1.351 . S
C308 C302 1.434 . S
C308 N307 1.351 . S
C308 C309 1.434 . S
C309 C300 1.437 . S
C309 N306 1.350 . S
C309 C308 1.434 . S
C310 C311 1.368 1_556 S
C310 C312 1.419 . S
C310 H314 0.930 . S
C311 C310 1.368 1_554 S
C311 C320 1.430 . S
C312 C310 1.419 . S
C312 C313 1.363 1_556 S
C312 H315 0.929 . S
C313 C312 1.363 1_554 S
C313 C319 1.429 . S
H314 C310 0.930 . S
H315 C312 0.929 . S
S316 N317 1.613 . S
S316 N318 1.610 . S
N317 S316 1.613 . S
N317 C320 1.350 . S
N318 S316 1.610 . S
N318 C319 1.351 . S
C319 C313 1.429 . S
C319 N318 1.351 . S
C319 C320 1.434 . S
C320 C311 1.430 . S
C320 N317 1.350 . S
C320 C319 1.434 . S
C321 C322 1.356 1_556 S
C321 C323 1.419 . S
C321 H325 0.930 . S
C322 C321 1.356 1_554 S
C322 C331 1.442 . S
C323 C321 1.419 . S
C323 C324 1.353 1_556 S
C323 H326 0.929 . S
C324 C323 1.353 1_554 S
C324 C330 1.439 . S
H325 C321 0.930 . S
H326 C323 0.929 . S
S327 N328 1.613 . S
S327 N329 1.610 . S
N328 S327 1.613 . S
N328 C331 1.350 . S
N329 S327 1.610 . S
N329 C330 1.351 . S
C330 C324 1.439 . S
C330 N329 1.351 . S
C330 C331 1.434 . S
C331 C322 1.442 . S
C331 N328 1.350 . S
C331 C330 1.434 . S
C332 C333 1.369 . S
C332 C334 1.419 . S
C332 H336 0.930 . S
C333 C332 1.369 . S
C333 C342 1.429 . S
C334 C332 1.419 . S
C334 C335 1.363 . S
C334 H337 0.929 . S
C335 C334 1.363 . S
C335 C341 1.428 . S
H336 C332 0.930 . S
H337 C334 0.929 . S
S338 N339 1.613 . S
S338 N340 1.610 . S
N339 S338 1.613 . S
N339 C342 1.350 . S
N340 S338 1.610 . S
N340 C341 1.351 . S
C341 C335 1.428 . S
C341 N340 1.351 . S
C341 C342 1.434 . S
C342 C333 1.429 . S
C342 N339 1.350 . S
C342 C341 1.434 . S
C343 C344 1.369 . S
C343 C345 1.419 . S
C343 H347 0.930 . S
C344 C343 1.369 . S
C344 C353 1.429 . S
C345 C343 1.419 . S
C345 C346 1.363 . S
C345 H348 0.929 . S
C346 C345 1.363 . S
C346 C352 1.428 . S
H347 C343 0.930 . S
H348 C345 0.929 . S
S349 N350 1.613 . S
S349 N351 1.610 . S
N350 S349 1.613 . S
N350 C353 1.350 . S
N351 S349 1.610 . S
N351 C352 1.351 . S
C352 C346 1.428 . S
C352 N351 1.351 . S
C352 C353 1.434 . S
C353 C344 1.429 . S
C353 N350 1.350 . S
C353 C352 1.434 . S
C354 C355 1.369 . S
C354 C356 1.419 . S
C354 H358 0.930 . S
C355 C354 1.369 . S
C355 C364 1.429 . S
C356 C354 1.419 . S
C356 C357 1.363 . S
C356 H359 0.929 . S
C357 C356 1.363 . S
C357 C363 1.428 . S
H358 C354 0.930 . S
H359 C356 0.929 . S
S360 N361 1.613 . S
S360 N362 1.610 . S
N361 S360 1.613 . S
N361 C364 1.350 . S
N362 S360 1.610 . S
N362 C363 1.351 . S
C363 C357 1.428 . S
C363 N362 1.351 . S
C363 C364 1.434 . S
C364 C355 1.429 . S
C364 N361 1.350 . S
C364 C363 1.434 . S
C365 C366 1.369 . S
C365 C367 1.419 . S
C365 H369 0.930 . S
C366 C365 1.369 . S
C366 C375 1.429 . S
C367 C365 1.419 . S
C367 C368 1.363 . S
C367 H370 0.929 . S
C368 C367 1.363 . S
C368 C374 1.428 . S
H369 C365 0.930 . S
H370 C367 0.929 . S
S371 N372 1.613 . S
S371 N373 1.610 . S
N372 S371 1.613 . S
N372 C375 1.350 . S
N373 S371 1.610 . S
N373 C374 1.351 . S
C374 C368 1.428 . S
C374 N373 1.351 . S
C374 C375 1.434 . S
C375 C366 1.429 . S
C375 N372 1.350 . S
C375 C374 1.434 . S
C376 C377 1.369 . S
C376 C378 1.419 . S
C376 H380 0.930 . S
C377 C376 1.369 . S
C377 C386 1.429 . S
C378 C376 1.419 . S
C378 C379 1.363 . S
C378 H381 0.929 . S
C379 C378 1.363 . S
C379 C385 1.428 . S
H380 C376 0.930 . S
H381 C378 0.929 . S
S382 N383 1.613 . S
S382 N384 1.610 . S
N383 S382 1.613 . S
N383 C386 1.350 . S
N384 S382 1.610 . S
N384 C385 1.351 . S
C385 C379 1.428 . S
C385 N384 1.351 . S
C385 C386 1.434 . S
C386 C377 1.429 . S
C386 N383 1.350 . S
C386 C385 1.434 . S
C387 C388 1.369 . S
C387 C389 1.419 . S
C387 H391 0.930 . S
C388 C387 1.369 . S
C388 C397 1.429 . S
C389 C387 1.419 . S
C389 C390 1.363 . S
C389 H392 0.929 . S
C390 C389 1.363 . S
C390 C396 1.428 . S
H391 C387 0.930 . S
H392 C389 0.929 . S
S393 N394 1.613 . S
S393 N395 1.610 . S
N394 S393 1.613 . S
N394 C397 1.350 . S
N395 S393 1.610 . S
N395 C396 1.351 . S
C396 C390 1.428 . S
C396 N395 1.351 . S
C396 C397 1.434 . S
C397 C388 1.429 . S
C397 N394 1.350 . S
C397 C396 1.434 . S
C398 C399 1.369 . S
C398 C400 1.419 . S
C398 H402 0.930 . S
C399 C398 1.369 . S
C399 C408 1.429 . S
C400 C398 1.419 . S
C400 C401 1.363 . S
C400 H403 0.929 . S
C401 C400 1.363 . S
C401 C407 1.428 . S
H402 C398 0.930 . S
H403 C400 0.929 . S
S404 N405 1.613 . S
S404 N406 1.610 . S
N405 S404 1.613 . S
N405 C408 1.350 . S
N406 S404 1.610 . S
N406 C407 1.351 . S
C407 C401 1.428 . S
C407 N406 1.351 . S
C407 C408 1.434 . S
C408 C399 1.429 . S
C408 N405 1.350 . S
C408 C407 1.434 . S
C409 C410 1.369 . S
C409 C411 1.419 . S
C409 H413 0.930 . S
C410 C409 1.369 . S
C410 C419 1.429 . S
C411 C409 1.419 . S
C411 C412 1.363 . S
C411 H414 0.929 . S
C412 C411 1.363 . S
C412 C418 1.428 . S
H413 C409 0.930 . S
H414 C411 0.929 . S
S415 N416 1.613 . S
S415 N417 1.610 . S
N416 S415 1.613 . S
N416 C419 1.350 . S
N417 S415 1.610 . S
N417 C418 1.351 . S
C418 C412 1.428 . S
C418 N417 1.351 . S
C418 C419 1.434 . S
C419 C410 1.429 . S
C419 N416 1.350 . S
C419 C418 1.434 . S
C420 C421 1.369 . S
C420 C422 1.419 . S
C420 H424 0.930 . S
C421 C420 1.369 . S
C421 C430 1.429 . S
C422 C420 1.419 . S
C422 C423 1.363 . S
C422 H425 0.929 . S
C423 C422 1.363 . S
C423 C429 1.428 . S
H424 C420 0.930 . S
H425 C422 0.929 . S
S426 N427 1.613 . S
S426 N428 1.610 . S
N427 S426 1.613 . S
N427 C430 1.350 . S
N428 S426 1.610 . S
N428 C429 1.351 . S
C429 C423 1.428 . S
C429 N428 1.351 . S
C429 C430 1.434 . S
C430 C421 1.429 . S
C430 N427 1.350 . S
C430 C429 1.434 . S
C431 C432 1.369 . S
C431 C433 1.419 . S
C431 H435 0.930 . S
C432 C431 1.369 . S
C432 C441 1.429 . S
C433 C431 1.419 . S
C433 C434 1.363 . S
C433 H436 0.929 . S
C434 C433 1.363 . S
C434 C440 1.428 . S
H435 C431 0.930 . S
H436 C433 0.929 . S
S437 N438 1.613 . S
S437 N439 1.610 . S
N438 S437 1.613 . S
N438 C441 1.350 . S
N439 S437 1.610 . S
N439 C440 1.351 . S
C440 C434 1.428 . S
C440 N439 1.351 . S
C440 C441 1.434 . S
C441 C432 1.429 . S
C441 N438 1.350 . S
C441 C440 1.434 . S
C442 C443 1.369 . S
C442 C444 1.419 . S
C442 H446 0.930 . S
C443 C442 1.369 . S
C443 C452 1.429 . S
C444 C442 1.419 . S
C444 C445 1.363 . S
C444 H447 0.929 . S
C445 C444 1.363 . S
C445 C451 1.428 . S
H446 C442 0.930 . S
H447 C444 0.929 . S
S448 N449 1.613 . S
S448 N450 1.610 . S
N449 S448 1.613 . S
N449 C452 1.350 . S
N450 S448 1.610 . S
N450 C451 1.351 . S
C451 C445 1.428 . S
C451 N450 1.351 . S
C451 C452 1.434 . S
C452 C443 1.429 . S
C452 N449 1.350 . S
C452 C451 1.434 . S
C453 C454 1.369 . S
C453 C455 1.419 . S
C453 H457 0.930 . S
C454 C453 1.369 . S
C454 C463 1.429 . S
C455 C453 1.419 . S
C455 C456 1.363 . S
C455 H458 0.929 . S
C456 C455 1.363 . S
C456 C462 1.428 . S
H457 C453 0.930 . S
H458 C455 0.929 . S
S459 N460 1.613 . S
S459 N461 1.610 . S
N460 S459 1.613 . S
N460 C463 1.350 . S
N461 S459 1.610 . S
N461 C462 1.351 . S
C462 C456 1.428 . S
C462 N461 1.351 . S
C462 C463 1.434 . S
C463 C454 1.429 . S
C463 N460 1.350 . S
C463 C462 1.434 . S
C201 C2 1.500 1_655 S
C203 C52 1.497 1_655 S
C212 C11 1.500 1_565 S
C214 C104 1.500 1_565 S
C223 C0 1.500 . S
C225 C53 1.500 . S
C234 C106 1.500 1_565 S
C236 C10 1.497 1_565 S
C245 C1 1.500 1_655 S
C247 C51 1.503 1_655 S
C256 C8 1.500 1_565 S
C258 C107 1.500 . S
C267 C50 1.500 . S
C269 C3 1.500 . S
C278 C105 1.500 1_565 S
C280 C9 1.503 1_565 S
C289 C156 1.500 . S
C291 C6 1.497 . S
C300 C157 1.500 . S
C302 C7 1.500 . S
C311 C154 1.500 . S
C313 C4 1.500 . S
C322 C5 1.500 . S
C324 C155 1.503 . S
C333 C161 1.500 . S
C335 C57 1.503 . S
C344 C55 1.500 . S
C346 C160 1.500 . S
C355 C54 1.500 . S
C357 C158 1.497 . S
C366 C159 1.500 . S
C368 C56 1.500 . S
C377 C110 1.500 . S
C379 C59 1.500 . S
C388 C61 1.500 . S
C390 C108 1.497 . S
C399 C58 1.500 . S
C401 C111 1.503 . S
C410 C109 1.500 . S
C412 C60 1.500 . S
C421 C152 1.500 . S
C423 C101 1.500 . S
C432 C100 1.500 . S
C434 C150 1.503 . S
C443 C151 1.500 . S
C445 C102 1.500 . S
C454 C103 1.500 . S
C456 C153 1.497 . S
