# Generated by pormake.
# Topology sma, (6)-cn, num edge types: 1
# Building blocks:
#     Node 0, Type 0, BuildingBlock: PAMTOO_clean_sbu_0, # of connection points: 6
#     Node 1, Type 0, BuildingBlock: PAMTOO_clean_sbu_0, # of connection points: 6
#     Node 2, Type 0, BuildingBlock: PAMTOO_clean_sbu_0, # of connection points: 6
#     Edge 3, Type (0, 0), BuildingBlock: CIFDUS_clean_linker_0, # of connection points: 2
#     Edge 4, Type (0, 0), BuildingBlock: CIFDUS_clean_linker_0, # of connection points: 2
#     Edge 5, Type (0, 0), BuildingBlock: CIFDUS_clean_linker_0, # of connection points: 2
#     Edge 6, Type (0, 0), BuildingBlock: CIFDUS_clean_linker_0, # of connection points: 2
#     Edge 7, Type (0, 0), BuildingBlock: CIFDUS_clean_linker_0, # of connection points: 2
#     Edge 8, Type (0, 0), BuildingBlock: CIFDUS_clean_linker_0, # of connection points: 2
#     Edge 9, Type (0, 0), BuildingBlock: CIFDUS_clean_linker_0, # of connection points: 2
#     Edge 10, Type (0, 0), BuildingBlock: CIFDUS_clean_linker_0, # of connection points: 2
#     Edge 11, Type (0, 0), BuildingBlock: CIFDUS_clean_linker_0, # of connection points: 2
# Relax obj value: 0.166
# Max RMSD: 0.239
# Mean RMSD: 0.210
data_MOF--net-sma--node1-PAMTOO_clean_sbu_0--edge1-CIFDUS_clean_linker_0
_symmetry_space_group_name_H-M    P1
_symmetry_Int_Tables_number       1
_symmetry_cell_setting            triclinic
loop_
_symmetry_equiv_pos_as_xyz
'x, y, z'
_cell_length_a     26.745169
_cell_length_b     36.755062
_cell_length_c     12.437801
_cell_angle_alpha  89.847982
_cell_angle_beta   100.27436
_cell_angle_gamma 94.766829
loop_
_atom_site_label
_atom_site_type_symbol
_atom_site_fract_x
_atom_site_fract_y
_atom_site_fract_z
_atom_type_partial_charge
Dy0 Dy 0.07961 0.57927 -0.02584 0.0
Dy1 Dy 0.08038 0.48723 -0.00877 0.0
C2 C 0.07032 0.53011 0.77181 0.0
O3 O 1.00453 0.5596 0.01726 0.0
O4 O 0.9989 0.4997 -0.04069 0.0
O5 O 0.08994 0.62847 0.88268 0.0
O6 O 1.06272 0.63052 0.03699 0.0
O7 O 0.08884 0.51245 0.15514 0.0
O8 O 0.12937 0.56831 0.13059 0.0
O9 O 0.16184 0.50635 -0.01536 0.0
O10 O 0.15567 0.56746 0.93985 0.0
O11 O 0.10477 0.43978 0.08209 0.0
O12 O 1.05126 0.43323 0.92883 0.0
C13 C 0.97795 0.52851 -0.01291 0.0
O14 O 1.04387 0.55153 0.81891 0.0
O15 O 0.09239 0.50345 0.82594 0.0
C16 C 0.11827 0.67936 -0.00079 0.0
C17 C 0.18984 0.73579 0.09507 0.0
C18 C 0.2055 0.70112 0.07625 0.0
C19 C 0.16994 0.67308 0.02902 0.0
C20 C 0.10263 0.71398 0.01575 0.0
C21 C 0.1381 0.74201 0.06311 0.0
C22 C 0.07997 0.64925 -0.03998 0.0
C23 C 0.12193 0.53996 0.1908 0.0
C24 C 0.18159 0.53836 -0.04396 0.0
C25 C 1.04138 0.38988 0.06613 0.0
C26 C 0.98149 0.33594 0.16115 0.0
C27 C 0.99233 0.37132 0.20738 0.0
C28 C 1.02186 0.39806 0.16017 0.0
C29 C 1.03008 0.35491 0.01911 0.0
C30 C 1.00056 0.32823 0.06598 0.0
C31 C 0.07365 0.41715 0.01588 0.0
H32 H 0.24492 0.69533 0.10113 0.0
H33 H 0.18255 0.64627 0.0182 0.0
H34 H 1.0628 0.71914 -0.00602 0.0
H35 H 0.12495 0.76852 0.07525 0.0
H36 H 0.97777 0.37843 0.27973 0.0
H37 H 1.02961 0.42504 0.19737 0.0
H38 H 1.04461 0.34806 0.94644 0.0
H39 H 0.9937 0.30126 0.02882 0.0
Dy40 Dy 0.54279 1.01928 0.57105 0.0
Dy41 Dy 0.676 0.04686 0.58348 0.0
C42 C 0.62828 0.0346 0.78191 0.0
O43 O 0.55722 0.07684 0.63654 0.0
O44 O 0.63713 0.09788 0.59648 0.0
O45 O 0.50384 0.9752 0.64602 0.0
O46 O 0.46117 1.0179 0.56298 0.0
O47 O 0.61185 0.05041 0.45379 0.0
O48 O 0.53025 0.03846 0.39749 0.0
O49 O 0.66355 0.98548 0.58957 0.0
O50 O 0.58217 0.97944 0.48622 0.0
O51 O 0.72054 0.04721 0.45449 0.0
O52 O 0.7535 0.0717 0.61317 0.0
C53 C 0.59385 0.103 0.63012 0.0
O54 O 0.60378 1.00952 0.71314 0.0
O55 O 0.66985 0.0517 0.75846 0.0
C56 C 0.42189 0.95768 0.55264 0.0
C57 C 0.35443 0.90045 0.44723 0.0
C58 C 0.35672 0.90814 0.55895 0.0
C59 C 0.39015 0.93655 0.61109 0.0
C60 C 0.42048 0.94984 0.44184 0.0
C61 C 0.38684 0.92161 0.38938 0.0
C62 C 0.45886 0.98603 0.60957 0.0
C63 C 0.57348 0.05255 0.37603 0.0
C64 C 0.62438 0.96523 0.53269 0.0
C65 C 0.77688 0.10047 0.45373 0.0
C66 C 0.81714 0.16164 0.34728 0.0
C67 C 0.81199 0.1265 0.2996 0.0
C68 C 0.79212 0.0963 0.35226 0.0
C69 C 0.78014 0.1357 0.49939 0.0
C70 C 0.8001 0.16587 0.44694 0.0
C71 C 0.75825 0.06787 0.51075 0.0
H72 H 0.33316 0.89191 0.60659 0.0
H73 H 0.39163 0.94177 0.69736 0.0
H74 H 0.44552 0.96551 0.39606 0.0
H75 H 0.38584 0.91669 0.3032 0.0
H76 H 0.82475 0.12207 0.22315 0.0
H77 H 0.78943 0.06952 0.31442 0.0
H78 H 0.76775 0.14 0.5763 0.0
H79 H 0.80227 0.19258 0.48483 0.0
Dy80 Dy 0.56848 0.57981 0.83174 0.0
Dy81 Dy 0.57407 0.48883 0.87669 0.0
C82 C 0.6077 0.55043 0.06998 0.0
O83 O 0.65038 0.56927 0.83236 0.0
O84 O 0.65498 0.50826 0.88087 0.0
O85 O 0.55014 0.63534 0.85002 0.0
O86 O 0.57108 0.6173 0.69854 0.0
O87 O 0.58452 0.50085 0.70688 0.0
O88 O 0.52699 0.5409 0.70592 0.0
O89 O 0.49404 0.50168 0.87838 0.0
O90 O 0.49791 0.56434 0.89919 0.0
O91 O 0.53596 0.43597 0.83078 0.0
O92 O 0.60214 0.44086 -0.03842 0.0
C93 C 0.67627 0.54044 0.85947 0.0
O94 O 0.60697 0.57869 0.00479 0.0
O95 O 0.5896 0.51689 0.03885 0.0
C96 C 0.58188 0.68138 0.7359 0.0
C97 C 0.6124 0.75495 0.69451 0.0
C98 C 0.61084 0.74316 0.80185 0.0
C99 C 0.59576 0.7068 0.82234 0.0
C100 C 0.58471 0.69283 0.62912 0.0
C101 C 0.59998 0.72911 0.60865 0.0
C102 C 0.55821 0.64446 0.75241 0.0
C103 C 0.55502 0.52345 0.65212 0.0
C104 C 0.47397 0.53164 0.90009 0.0
C105 C 0.58138 0.38365 0.86771 0.0
C106 C 0.59639 0.31333 0.79619 0.0
C107 C 0.60053 0.3437 0.72804 0.0
C108 C 0.59305 0.37861 0.76351 0.0
C109 C 0.57834 0.35367 0.93666 0.0
C110 C 0.58581 0.31882 0.90143 0.0
C111 C 0.56703 0.41885 0.90262 0.0
H112 H 0.6194 0.7623 0.86995 0.0
H113 H 0.59339 0.69897 0.90539 0.0
H114 H 0.57363 0.67389 0.56072 0.0
H115 H 0.60144 0.73698 0.52523 0.0
H116 H 0.60808 0.34035 0.64611 0.0
H117 H 0.59505 0.40144 0.70872 0.0
H118 H 0.56897 0.35707 0.01711 0.0
H119 H 0.58312 0.29617 -0.04345 0.0
H120 H 0.25259 0.4882 -0.00527 0.0
H121 H 0.23128 0.59745 0.87619 0.0
H122 H 0.31969 0.60541 0.85199 0.0
H123 H 0.40382 0.58192 0.86568 0.0
H124 H 0.42501 0.47229 -0.02093 0.0
H125 H 0.33643 0.46423 0.00509 0.0
C126 C 0.26723 0.51375 -0.03637 0.0
C127 C 0.23522 0.54224 0.93869 0.0
C128 C 0.31841 0.51829 0.94964 0.0
C129 C 0.25496 0.57507 0.89748 0.0
C130 C 0.30568 0.57975 0.88345 0.0
C131 C 0.38914 0.5564 0.89692 0.0
C132 C 0.42099 0.52785 0.9207 0.0
C133 C 0.33789 0.55169 0.91005 0.0
C134 C 0.40121 0.49471 -0.04025 0.0
C135 C 0.35053 0.49004 -0.02535 0.0
H136 H 0.88333 0.21692 0.44822 0.0
H137 H 0.80677 0.17806 0.12906 0.0
H138 H 0.84975 0.22871 0.04426 0.0
H139 H 0.90962 0.28376 0.06027 0.0
H140 H 0.98663 0.3222 0.37955 0.0
H141 H 0.94142 0.27279 0.46452 0.0
C142 C 0.87535 0.21975 0.36018 0.0
C143 C 0.84174 0.19349 0.29546 0.0
C144 C 0.90005 0.24908 0.31179 0.0
C145 C 0.83286 0.19743 0.18117 0.0
C146 C 0.85723 0.22657 0.1325 0.0
C147 C 0.91681 0.28126 0.14845 0.0
C148 C 0.95177 0.30677 0.21306 0.0
C149 C 0.89116 0.25242 0.19695 0.0
C150 C 0.95962 0.30337 0.32747 0.0
C151 C 0.93404 0.27489 0.37625 0.0
H152 H 0.67975 0.92388 0.68347 0.0
H153 H 0.56504 0.916 0.39086 0.0
H154 H 0.55286 0.84995 0.41216 0.0
H155 H 0.56943 0.79533 0.52263 0.0
H156 H 0.68354 0.80337 0.81663 0.0
H157 H 0.70033 0.86851 0.78721 0.0
C158 C 0.65289 0.90763 0.62304 0.0
C159 C 0.62347 0.92488 0.53562 0.0
C160 C 0.64512 0.86974 0.63731 0.0
C161 C 0.58819 0.90343 0.45901 0.0
C162 C 0.58101 0.86565 0.47141 0.0
C163 C 0.59875 0.81108 0.57923 0.0
C164 C 0.62501 0.79425 0.67209 0.0
C165 C 0.60846 0.84862 0.56161 0.0
C166 C 0.66209 0.81553 0.74544 0.0
C167 C 0.67204 0.85281 0.72827 0.0
H168 H 0.74143 0.48841 0.92251 0.0
H169 H 0.73874 0.60165 0.82958 0.0
H170 H 0.83204 0.60865 0.86723 0.0
H171 H 0.91467 0.58242 0.92823 0.0
H172 H 0.91547 0.46879 0.01606 0.0
H173 H 0.82241 0.46241 -0.01912 0.0
C174 C 0.76097 0.5147 0.90986 0.0
C175 C 0.7328 0.54449 0.87341 0.0
C176 C 0.81439 0.51859 0.93235 0.0
C177 C 0.75926 0.57821 0.85753 0.0
C178 C 0.81267 0.58229 0.87958 0.0
C179 C 0.89434 0.55643 0.94095 0.0
C180 C 0.92182 0.52615 -0.02455 0.0
C181 C 0.84066 0.55272 0.91795 0.0
C182 C 0.89513 0.49246 -0.01034 0.0
C183 C 0.84195 0.48877 -0.0308 0.0
H184 H 0.37003 0.85212 0.2924 0.0
H185 H 0.2565 0.88206 0.47556 0.0
H186 H 0.19648 0.83341 0.38487 0.0
H187 H 0.17586 0.78267 0.25326 0.0
H188 H 0.28735 0.75439 0.06294 0.0
H189 H 0.34844 0.80229 0.15642 0.0
C190 C 0.33198 0.84831 0.31167 0.0
C191 C 0.31799 0.87075 0.39113 0.0
C192 C 0.29726 0.8206 0.25794 0.0
C193 C 0.26873 0.86489 0.41625 0.0
C194 C 0.23417 0.83722 0.3638 0.0
C195 C 0.2133 0.78725 0.2312 0.0
C196 C 0.22692 0.76507 0.15093 0.0
C197 C 0.24799 0.81498 0.28446 0.0
C198 C 0.27604 0.77086 0.12515 0.0
C199 C 0.3109 0.79836 0.17818 0.0
H200 H 0.54003 0.25007 0.8269 0.0
H201 H 0.66629 0.29268 0.67774 0.0
H202 H 0.67595 0.23162 0.61199 0.0
H203 H 0.64907 0.1663 0.59746 0.0
H204 H 0.52381 0.12323 0.74933 0.0
H205 H 0.51383 0.18428 0.81469 0.0
C206 C 0.57003 0.24596 0.781 0.0
C207 C 0.6024 0.27599 0.75731 0.0
C208 C 0.57557 0.21072 0.74387 0.0
C209 C 0.64044 0.27019 0.696 0.0
C210 C 0.64619 0.23524 0.65887 0.0
C211 C 0.61949 0.17019 0.64469 0.0
C212 C 0.58697 0.14019 0.66741 0.0
C213 C 0.61395 0.20535 0.68217 0.0
C214 C 0.54895 0.14585 0.72909 0.0
C215 C 0.54333 0.18076 0.76704 0.0
H216 H 0.13214 0.4962 0.66289 0.0
H217 H 1.04727 0.5915 0.65646 0.0
H218 H 0.07286 0.61009 0.48485 0.0
H219 H 0.10388 0.59238 0.32146 0.0
H220 H 0.17746 0.4927 0.3173 0.0
H221 H 0.17498 0.48376 0.51138 0.0
C222 C 0.1193 0.52108 0.62413 0.0
C223 C 0.0862 0.54165 0.66953 0.0
C224 C 0.13315 0.53114 0.52477 0.0
C225 C 0.07126 0.57446 0.62061 0.0
C226 C 0.08635 0.58537 0.52334 0.0
C227 C 0.12117 0.56961 0.3649 0.0
C228 C 0.13999 0.54286 0.30738 0.0
C229 C 0.11527 0.56304 0.47245 0.0
C230 C 0.16243 0.51329 0.36193 0.0
C231 C 0.16027 0.50796 0.47177 0.0
H232 H 0.5138 0.03695 0.17852 0.0
H233 H 0.65803 0.09079 0.33271 0.0
H234 H 0.68848 0.09224 0.15958 0.0
H235 H 0.67765 0.07067 -0.03187 0.0
H236 H 0.53216 1.01827 0.81506 0.0
H237 H 0.49843 1.02472 -0.01821 0.0
C238 C 0.55116 0.05 0.17318 0.0
C239 C 0.58397 0.06282 0.26784 0.0
C240 C 0.56864 0.05057 0.07344 0.0
C241 C 0.63243 0.07986 0.26048 0.0
C242 C 0.65002 0.08069 0.16162 0.0
C243 C 0.63852 0.06097 -0.02862 0.0
C244 C 0.60811 0.04262 0.88105 0.0
C245 C 0.61915 0.06473 0.06824 0.0
C246 C 0.55704 0.03108 0.88512 0.0
C247 C 0.53746 0.03503 -0.01979 0.0
H248 H 0.63339 0.50957 0.55089 0.0
H249 H 0.50232 0.57239 0.52385 0.0
H250 H 0.51835 0.5963 0.34923 0.0
H251 H 0.55949 0.5901 0.1907 0.0
H252 H 0.68363 0.52168 0.20836 0.0
H253 H 0.68249 0.51065 0.40217 0.0
C254 C 0.6084 0.52851 0.50679 0.0
C255 C 0.56585 0.53832 0.54821 0.0
C256 C 0.61724 0.54161 0.40558 0.0
C257 C 0.53465 0.56373 0.49204 0.0
C258 C 0.54397 0.57766 0.3927 0.0
C259 C 0.5876 0.57413 0.23881 0.0
C260 C 0.6214 0.55656 0.18728 0.0
C261 C 0.5839 0.56566 0.34683 0.0
C262 C 0.65742 0.53543 0.24811 0.0
C263 C 0.65616 0.52867 0.35793 0.0
loop_
_geom_bond_atom_site_label_1
_geom_bond_atom_site_label_2
_geom_bond_distance
_geom_bond_site_symmetry_2
_ccdc_geom_bond_type
Dy0 O3 2.307 1_455 S
Dy0 O5 2.395 . S
Dy0 O6 2.379 . S
Dy0 O8 2.339 . S
Dy0 O10 2.298 . S
Dy0 O14 2.275 1_554 S
Dy0 C22 2.738 . S
Dy1 O4 2.298 1_455 S
Dy1 O7 2.275 . S
Dy1 O9 2.307 . S
Dy1 O11 2.395 1_455 S
Dy1 O12 2.379 1_455 S
Dy1 O15 2.339 1_554 S
Dy1 C31 2.738 1_455 S
C2 O14 1.254 . S
C2 O15 1.257 . S
O3 Dy0 2.307 1_655 S
O3 C13 1.266 . S
O4 Dy1 2.298 1_655 S
O4 C13 1.236 . S
O5 Dy0 2.395 . S
O5 C22 1.255 . S
O6 Dy0 2.379 . S
O6 C22 1.249 . S
O7 Dy1 2.275 . S
O7 C23 1.254 . S
O8 Dy0 2.339 . S
O8 C23 1.257 . S
O9 Dy1 2.307 . S
O9 C24 1.266 . S
O10 Dy0 2.298 . S
O10 C24 1.236 . S
O11 Dy1 2.395 1_655 S
O11 C31 1.255 . S
O12 Dy1 2.379 1_655 S
O12 C31 1.249 . S
C13 O3 1.266 . S
C13 O4 1.236 . S
O14 Dy0 2.275 1_556 S
O14 C2 1.254 . S
O15 Dy1 2.339 1_556 S
O15 C2 1.257 . S
C16 C19 1.344 . S
C16 C20 1.328 . S
C16 C22 1.516 . S
C17 C18 1.304 . S
C17 C21 1.323 . S
C18 C17 1.304 . S
C18 C19 1.371 . S
C18 H32 0.930 1_554 S
C19 C16 1.344 . S
C19 C18 1.371 . S
C19 H33 0.931 1_554 S
C20 C16 1.328 . S
C20 C21 1.433 . S
C20 H34 0.931 . S
C21 C17 1.323 . S
C21 C20 1.433 . S
C21 H35 0.933 . S
C22 Dy0 2.738 . S
C22 O5 1.255 . S
C22 O6 1.249 . S
C22 C16 1.516 . S
C23 O7 1.254 . S
C23 O8 1.257 . S
C24 O9 1.266 . S
C24 O10 1.236 . S
C25 C28 1.344 . S
C25 C29 1.328 . S
C25 C31 1.516 . S
C26 C27 1.304 . S
C26 C30 1.323 . S
C27 C26 1.304 . S
C27 C28 1.371 . S
C27 H36 0.930 . S
C28 C25 1.344 . S
C28 C27 1.371 . S
C28 H37 0.931 . S
C29 C25 1.328 . S
C29 C30 1.433 . S
C29 H38 0.931 1_554 S
C30 C26 1.323 . S
C30 C29 1.433 . S
C30 H39 0.933 1_554 S
C31 Dy1 2.738 1_655 S
C31 O11 1.255 . S
C31 O12 1.249 . S
C31 C25 1.516 . S
H32 C18 0.930 1_556 S
H33 C19 0.931 1_556 S
H34 C20 0.931 . S
H35 C21 0.933 . S
H36 C27 0.930 . S
H37 C28 0.931 . S
H38 C29 0.931 1_556 S
H39 C30 0.933 1_556 S
Dy40 O43 2.307 1_565 S
Dy40 O45 2.395 . S
Dy40 O46 2.379 . S
Dy40 O48 2.340 . S
Dy40 O50 2.298 . S
Dy40 O54 2.275 1_565 S
Dy40 C62 2.738 . S
Dy41 O44 2.298 . S
Dy41 O47 2.275 . S
Dy41 O49 2.307 1_545 S
Dy41 O51 2.395 . S
Dy41 O52 2.379 . S
Dy41 O55 2.339 . S
Dy41 C71 2.738 . S
C42 O54 1.254 . S
C42 O55 1.257 . S
O43 Dy40 2.307 1_545 S
O43 C53 1.266 . S
O44 Dy41 2.298 . S
O44 C53 1.236 . S
O45 Dy40 2.395 . S
O45 C62 1.255 . S
O46 Dy40 2.379 . S
O46 C62 1.249 . S
O47 Dy41 2.275 . S
O47 C63 1.254 . S
O48 Dy40 2.340 . S
O48 C63 1.253 1_565 S
O49 Dy41 2.307 1_565 S
O49 C64 1.266 . S
O50 Dy40 2.298 . S
O50 C64 1.236 . S
O51 Dy41 2.395 . S
O51 C71 1.255 . S
O52 Dy41 2.379 . S
O52 C71 1.249 . S
C53 O43 1.266 . S
C53 O44 1.236 . S
O54 Dy40 2.275 1_545 S
O54 C42 1.254 . S
O55 Dy41 2.339 . S
O55 C42 1.257 . S
C56 C59 1.344 . S
C56 C60 1.328 . S
C56 C62 1.516 . S
C57 C58 1.304 . S
C57 C61 1.323 . S
C58 C57 1.304 . S
C58 C59 1.371 . S
C58 H72 0.930 . S
C59 C56 1.344 . S
C59 C58 1.371 . S
C59 H73 0.931 . S
C60 C56 1.328 . S
C60 C61 1.433 . S
C60 H74 0.931 . S
C61 C57 1.323 . S
C61 C60 1.433 . S
C61 H75 0.933 . S
C62 Dy40 2.738 . S
C62 O45 1.255 . S
C62 O46 1.249 . S
C62 C56 1.516 . S
C63 O47 1.254 . S
C63 O48 1.253 1_545 S
C64 O49 1.266 . S
C64 O50 1.236 . S
C65 C68 1.344 . S
C65 C69 1.328 . S
C65 C71 1.516 . S
C66 C67 1.304 . S
C66 C70 1.323 . S
C67 C66 1.304 . S
C67 C68 1.371 . S
C67 H76 0.930 . S
C68 C65 1.344 . S
C68 C67 1.371 . S
C68 H77 0.931 . S
C69 C65 1.328 . S
C69 C70 1.433 . S
C69 H78 0.931 . S
C70 C66 1.323 . S
C70 C69 1.433 . S
C70 H79 0.933 . S
C71 Dy41 2.738 . S
C71 O51 1.255 . S
C71 O52 1.249 . S
C71 C65 1.516 . S
H72 C58 0.930 . S
H73 C59 0.931 . S
H74 C60 0.931 . S
H75 C61 0.933 . S
H76 C67 0.930 . S
H77 C68 0.931 . S
H78 C69 0.931 . S
H79 C70 0.933 . S
Dy80 O83 2.307 . S
Dy80 O85 2.395 . S
Dy80 O86 2.379 . S
Dy80 O88 2.339 . S
Dy80 O90 2.298 . S
Dy80 O94 2.275 . S
Dy80 C102 2.738 . S
Dy81 O84 2.298 . S
Dy81 O87 2.275 . S
Dy81 O89 2.307 . S
Dy81 O91 2.395 . S
Dy81 O92 2.379 . S
Dy81 O95 2.339 1_556 S
Dy81 C111 2.738 . S
C82 O94 1.254 1_554 S
C82 O95 1.257 . S
O83 Dy80 2.307 . S
O83 C93 1.266 . S
O84 Dy81 2.298 . S
O84 C93 1.236 . S
O85 Dy80 2.395 . S
O85 C102 1.255 . S
O86 Dy80 2.379 . S
O86 C102 1.249 . S
O87 Dy81 2.275 . S
O87 C103 1.254 . S
O88 Dy80 2.339 . S
O88 C103 1.257 . S
O89 Dy81 2.307 . S
O89 C104 1.266 . S
O90 Dy80 2.298 . S
O90 C104 1.236 . S
O91 Dy81 2.395 . S
O91 C111 1.255 . S
O92 Dy81 2.379 . S
O92 C111 1.249 . S
C93 O83 1.266 . S
C93 O84 1.236 . S
O94 Dy80 2.275 . S
O94 C82 1.254 1_556 S
O95 Dy81 2.339 1_554 S
O95 C82 1.257 . S
C96 C99 1.344 . S
C96 C100 1.328 . S
C96 C102 1.516 . S
C97 C98 1.304 . S
C97 C101 1.323 . S
C98 C97 1.304 . S
C98 C99 1.371 . S
C98 H112 0.930 1_556 S
C99 C96 1.344 . S
C99 C98 1.371 . S
C99 H113 0.931 1_556 S
C100 C96 1.328 . S
C100 C101 1.433 . S
C100 H114 0.931 . S
C101 C97 1.323 . S
C101 C100 1.433 . S
C101 H115 0.933 . S
C102 Dy80 2.738 . S
C102 O85 1.255 . S
C102 O86 1.249 . S
C102 C96 1.516 . S
C103 O87 1.254 . S
C103 O88 1.257 . S
C104 O89 1.266 . S
C104 O90 1.236 . S
C105 C108 1.344 . S
C105 C109 1.328 . S
C105 C111 1.516 . S
C106 C107 1.304 . S
C106 C110 1.323 . S
C107 C106 1.304 . S
C107 C108 1.371 . S
C107 H116 0.930 . S
C108 C105 1.344 . S
C108 C107 1.371 . S
C108 H117 0.931 . S
C109 C105 1.328 . S
C109 C110 1.433 . S
C109 H118 0.931 . S
C110 C106 1.323 . S
C110 C109 1.433 . S
C110 H119 0.933 . S
C111 Dy81 2.738 . S
C111 O91 1.255 . S
C111 O92 1.249 . S
C111 C105 1.516 . S
H112 C98 0.930 1_554 S
H113 C99 0.931 1_554 S
H114 C100 0.931 . S
H115 C101 0.933 . S
H116 C107 0.930 . S
H117 C108 0.931 . S
H118 C109 0.931 . S
H119 C110 0.933 . S
H120 C126 0.930 . S
H121 C129 0.930 . S
H122 C130 0.930 . S
H123 C131 0.930 . S
H124 C134 0.930 . S
H125 C135 0.930 . S
C126 H120 0.930 . S
C126 C127 1.355 1_556 S
C126 C128 1.415 . S
C127 C126 1.355 1_554 S
C127 C129 1.419 . S
C128 C126 1.415 . S
C128 C133 1.425 1_556 S
C128 C135 1.409 . S
C129 H121 0.930 . S
C129 C127 1.419 . S
C129 C130 1.362 . S
C130 H122 0.930 . S
C130 C129 1.362 . S
C130 C133 1.409 . S
C131 H123 0.930 . S
C131 C132 1.355 1_554 S
C131 C133 1.415 . S
C132 C131 1.355 1_556 S
C132 C134 1.419 . S
C133 C128 1.425 1_554 S
C133 C130 1.409 . S
C133 C131 1.415 . S
C134 H124 0.930 . S
C134 C132 1.419 . S
C134 C135 1.362 . S
C135 H125 0.930 . S
C135 C128 1.409 . S
C135 C134 1.362 . S
H136 C142 0.930 . S
H137 C145 0.930 . S
H138 C146 0.930 . S
H139 C147 0.930 . S
H140 C150 0.930 . S
H141 C151 0.930 . S
C142 H136 0.930 . S
C142 C143 1.355 . S
C142 C144 1.415 . S
C143 C142 1.355 . S
C143 C145 1.419 . S
C144 C142 1.415 . S
C144 C149 1.425 . S
C144 C151 1.409 . S
C145 H137 0.930 . S
C145 C143 1.419 . S
C145 C146 1.362 . S
C146 H138 0.930 . S
C146 C145 1.362 . S
C146 C149 1.409 . S
C147 H139 0.930 . S
C147 C148 1.355 . S
C147 C149 1.415 . S
C148 C147 1.355 . S
C148 C150 1.419 . S
C149 C144 1.425 . S
C149 C146 1.409 . S
C149 C147 1.415 . S
C150 H140 0.930 . S
C150 C148 1.419 . S
C150 C151 1.362 . S
C151 H141 0.930 . S
C151 C144 1.409 . S
C151 C150 1.362 . S
H152 C158 0.930 . S
H153 C161 0.930 . S
H154 C162 0.930 . S
H155 C163 0.930 . S
H156 C166 0.930 1_554 S
H157 C167 0.930 . S
C158 H152 0.930 . S
C158 C159 1.355 . S
C158 C160 1.415 . S
C159 C158 1.355 . S
C159 C161 1.419 . S
C160 C158 1.415 . S
C160 C165 1.425 . S
C160 C167 1.409 . S
C161 H153 0.930 . S
C161 C159 1.419 . S
C161 C162 1.362 . S
C162 H154 0.930 . S
C162 C161 1.362 . S
C162 C165 1.409 . S
C163 H155 0.930 . S
C163 C164 1.355 . S
C163 C165 1.415 . S
C164 C163 1.355 . S
C164 C166 1.419 . S
C165 C160 1.425 . S
C165 C162 1.409 . S
C165 C163 1.415 . S
C166 H156 0.930 1_556 S
C166 C164 1.419 . S
C166 C167 1.362 . S
C167 H157 0.930 . S
C167 C160 1.409 . S
C167 C166 1.362 . S
H168 C174 0.930 1_554 S
H169 C177 0.930 . S
H170 C178 0.930 . S
H171 C179 0.930 . S
H172 C182 0.930 . S
H173 C183 0.930 . S
C174 H168 0.930 1_556 S
C174 C175 1.355 . S
C174 C176 1.415 1_556 S
C175 C174 1.355 . S
C175 C177 1.419 . S
C176 C174 1.415 1_554 S
C176 C181 1.425 1_554 S
C176 C183 1.409 . S
C177 H169 0.930 . S
C177 C175 1.419 . S
C177 C178 1.362 . S
C178 H170 0.930 . S
C178 C177 1.362 . S
C178 C181 1.409 . S
C179 H171 0.930 . S
C179 C180 1.355 1_556 S
C179 C181 1.415 . S
C180 C179 1.355 1_554 S
C180 C182 1.419 . S
C181 C176 1.425 1_556 S
C181 C178 1.409 . S
C181 C179 1.415 . S
C182 H172 0.930 . S
C182 C180 1.419 . S
C182 C183 1.362 . S
C183 H173 0.930 . S
C183 C176 1.409 . S
C183 C182 1.362 . S
H184 C190 0.930 . S
H185 C193 0.930 . S
H186 C194 0.930 . S
H187 C195 0.930 . S
H188 C198 0.930 . S
H189 C199 0.930 . S
C190 H184 0.930 . S
C190 C191 1.355 . S
C190 C192 1.415 . S
C191 C190 1.355 . S
C191 C193 1.419 . S
C192 C190 1.415 . S
C192 C197 1.425 . S
C192 C199 1.409 . S
C193 H185 0.930 . S
C193 C191 1.419 . S
C193 C194 1.362 . S
C194 H186 0.930 . S
C194 C193 1.362 . S
C194 C197 1.409 . S
C195 H187 0.930 . S
C195 C196 1.355 . S
C195 C197 1.415 . S
C196 C195 1.355 . S
C196 C198 1.419 . S
C197 C192 1.425 . S
C197 C194 1.409 . S
C197 C195 1.415 . S
C198 H188 0.930 . S
C198 C196 1.419 . S
C198 C199 1.362 . S
C199 H189 0.930 . S
C199 C192 1.409 . S
C199 C198 1.362 . S
H200 C206 0.930 . S
H201 C209 0.930 . S
H202 C210 0.930 . S
H203 C211 0.930 . S
H204 C214 0.930 . S
H205 C215 0.930 . S
C206 H200 0.930 . S
C206 C207 1.355 . S
C206 C208 1.415 . S
C207 C206 1.355 . S
C207 C209 1.419 . S
C208 C206 1.415 . S
C208 C213 1.425 . S
C208 C215 1.409 . S
C209 H201 0.930 . S
C209 C207 1.419 . S
C209 C210 1.362 . S
C210 H202 0.930 . S
C210 C209 1.362 . S
C210 C213 1.409 . S
C211 H203 0.930 . S
C211 C212 1.355 . S
C211 C213 1.415 . S
C212 C211 1.355 . S
C212 C214 1.419 . S
C213 C208 1.425 . S
C213 C210 1.409 . S
C213 C211 1.415 . S
C214 H204 0.930 . S
C214 C212 1.419 . S
C214 C215 1.362 . S
C215 H205 0.930 . S
C215 C208 1.409 . S
C215 C214 1.362 . S
H216 C222 0.930 . S
H217 C225 0.930 . S
H218 C226 0.930 . S
H219 C227 0.930 1_655 S
H220 C230 0.930 . S
H221 C231 0.930 . S
C222 H216 0.930 . S
C222 C223 1.355 . S
C222 C224 1.415 . S
C223 C222 1.355 . S
C223 C225 1.419 1_455 S
C224 C222 1.415 . S
C224 C229 1.425 . S
C224 C231 1.409 . S
C225 H217 0.930 . S
C225 C223 1.419 1_655 S
C225 C226 1.362 . S
C226 H218 0.930 . S
C226 C225 1.362 . S
C226 C229 1.409 1_655 S
C227 H219 0.930 1_455 S
C227 C228 1.355 . S
C227 C229 1.415 . S
C228 C227 1.355 . S
C228 C230 1.419 . S
C229 C224 1.425 . S
C229 C226 1.409 1_455 S
C229 C227 1.415 . S
C230 H220 0.930 . S
C230 C228 1.419 . S
C230 C231 1.362 . S
C231 H221 0.930 . S
C231 C224 1.409 . S
C231 C230 1.362 . S
H232 C238 0.930 1_565 S
H233 C241 0.930 . S
H234 C242 0.930 . S
H235 C243 0.930 . S
H236 C246 0.930 . S
H237 C247 0.930 . S
C238 H232 0.930 1_545 S
C238 C239 1.355 . S
C238 C240 1.415 . S
C239 C238 1.355 . S
C239 C241 1.419 . S
C240 C238 1.415 . S
C240 C245 1.425 . S
C240 C247 1.409 1_544 S
C241 H233 0.930 . S
C241 C239 1.419 . S
C241 C242 1.362 . S
C242 H234 0.930 . S
C242 C241 1.362 . S
C242 C245 1.409 . S
C243 H235 0.930 . S
C243 C244 1.355 . S
C243 C245 1.415 1_556 S
C244 C243 1.355 . S
C244 C246 1.419 1_545 S
C245 C240 1.425 . S
C245 C242 1.409 . S
C245 C243 1.415 1_554 S
C246 H236 0.930 . S
C246 C244 1.419 1_565 S
C246 C247 1.362 . S
C247 H237 0.930 . S
C247 C240 1.409 1_566 S
C247 C246 1.362 . S
H248 C254 0.930 . S
H249 C257 0.930 . S
H250 C258 0.930 . S
H251 C259 0.930 . S
H252 C262 0.930 . S
H253 C263 0.930 . S
C254 H248 0.930 . S
C254 C255 1.355 . S
C254 C256 1.415 . S
C255 C254 1.355 . S
C255 C257 1.419 . S
C256 C254 1.415 . S
C256 C261 1.425 . S
C256 C263 1.409 . S
C257 H249 0.930 . S
C257 C255 1.419 . S
C257 C258 1.362 . S
C258 H250 0.930 . S
C258 C257 1.362 . S
C258 C261 1.409 . S
C259 H251 0.930 . S
C259 C260 1.355 . S
C259 C261 1.415 . S
C260 C259 1.355 . S
C260 C262 1.419 . S
C261 C256 1.425 . S
C261 C258 1.409 . S
C261 C259 1.415 . S
C262 H252 0.930 . S
C262 C260 1.419 . S
C262 C263 1.362 . S
C263 H253 0.930 . S
C263 C256 1.409 . S
C263 C262 1.362 . S
C127 C24 2.940 . S
C132 C104 2.913 . S
C143 C66 1.458 . S
C148 C26 1.516 . S
C159 C64 2.523 . S
C164 C97 2.486 . S
C175 C93 2.493 . S
C180 C13 2.517 . S
C191 C57 1.544 . S
C196 C17 1.574 . S
C207 C106 1.985 . S
C212 C53 1.939 . S
C223 C2 0.706 . S
C228 C23 0.706 . S
C239 C63 0.713 . S
C244 C42 0.713 . S
C255 C103 0.633 . S
C260 C82 0.633 . S
