# Generated by pormake.
# Topology snp, (6)-cn, num edge types: 1
# Building blocks:
#     Node 0, Type 0, BuildingBlock: KUMBOL_clean_sbu_0, # of connection points: 6
#     Node 1, Type 0, BuildingBlock: KUMBOL_clean_sbu_0, # of connection points: 6
#     Node 2, Type 0, BuildingBlock: KUMBOL_clean_sbu_0, # of connection points: 6
#     Node 3, Type 0, BuildingBlock: KUMBOL_clean_sbu_0, # of connection points: 6
#     Edge 4, Type (0, 0), BuildingBlock: XIVTED_clean_linker_0, # of connection points: 2
#     Edge 5, Type (0, 0), BuildingBlock: XIVTED_clean_linker_0, # of connection points: 2
#     Edge 6, Type (0, 0), BuildingBlock: XIVTED_clean_linker_0, # of connection points: 2
#     Edge 7, Type (0, 0), BuildingBlock: XIVTED_clean_linker_0, # of connection points: 2
#     Edge 8, Type (0, 0), BuildingBlock: XIVTED_clean_linker_0, # of connection points: 2
#     Edge 9, Type (0, 0), BuildingBlock: XIVTED_clean_linker_0, # of connection points: 2
#     Edge 10, Type (0, 0), BuildingBlock: XIVTED_clean_linker_0, # of connection points: 2
#     Edge 11, Type (0, 0), BuildingBlock: XIVTED_clean_linker_0, # of connection points: 2
#     Edge 12, Type (0, 0), BuildingBlock: XIVTED_clean_linker_0, # of connection points: 2
#     Edge 13, Type (0, 0), BuildingBlock: XIVTED_clean_linker_0, # of connection points: 2
#     Edge 14, Type (0, 0), BuildingBlock: XIVTED_clean_linker_0, # of connection points: 2
#     Edge 15, Type (0, 0), BuildingBlock: XIVTED_clean_linker_0, # of connection points: 2
# Relax obj value: 0.232
# Max RMSD: 0.260
# Mean RMSD: 0.235
data_MOF--net-snp--node1-KUMBOL_clean_sbu_0--edge1-XIVTED_clean_linker_0
_symmetry_space_group_name_H-M    P1
_symmetry_Int_Tables_number       1
_symmetry_cell_setting            triclinic
loop_
_symmetry_equiv_pos_as_xyz
'x, y, z'
_cell_length_a     24.892924
_cell_length_b     26.336856
_cell_length_c     33.239063
_cell_angle_alpha  116.31532
_cell_angle_beta   97.555287
_cell_angle_gamma 94.037715
loop_
_atom_site_label
_atom_site_type_symbol
_atom_site_fract_x
_atom_site_fract_y
_atom_site_fract_z
_atom_type_partial_charge
Gd0 Gd 0.37591 0.05523 0.26385 0.0
Gd1 Gd 0.3872 0.19139 0.2544 0.0
C2 C 0.4833 0.33438 0.39064 0.0
C3 C 0.40994 0.37711 0.4295 0.0
C4 C 0.38947 0.301 0.35128 0.0
C5 C 0.44422 0.29634 0.35192 0.0
C6 C 0.37187 0.34325 0.38932 0.0
C7 C 0.46572 0.37266 0.43017 0.0
C8 C 0.53869 0.33566 0.38739 0.0
C9 C 0.55338 0.30336 0.34525 0.0
N10 N 0.45945 0.25968 0.31268 0.0
C11 C 0.51292 0.26716 0.3078 0.0
H12 H 0.52514 0.24477 0.27519 0.0
C13 C 0.30214 0.28051 0.30613 0.0
N14 N 0.35399 0.26772 0.31188 0.0
C15 C 0.28247 0.3216 0.34275 0.0
C16 C 0.31708 0.35194 0.38504 0.0
H17 H 0.27588 0.25947 0.27314 0.0
H18 H 0.4951 0.40125 0.46051 0.0
H19 H 0.28436 0.9734 0.16881 0.0
H20 H 0.56998 0.36429 0.41623 0.0
H21 H 0.59578 0.3069 0.34139 0.0
H22 H 0.39703 0.40881 0.4594 0.0
H23 H 0.49398 0.06337 0.33082 0.0
H24 H 0.35039 0.82312 0.08795 0.0
H25 H 0.27534 0.88209 0.0991 0.0
H26 H 0.52211 0.84238 0.18133 0.0
H27 H 0.24082 0.33019 0.33818 0.0
H28 H 0.30192 0.38396 0.41336 0.0
H29 H 0.44249 0.80868 0.11893 0.0
H30 H 0.56967 0.00747 0.32797 0.0
N31 N 0.3641 0.96776 0.1966 0.0
C32 C 0.35458 0.86341 0.11863 0.0
C33 C 0.31211 0.89648 0.12484 0.0
C34 C 0.40149 0.8822 0.15254 0.0
C35 C 0.405 0.93516 0.19171 0.0
C36 C 0.31736 0.9484 0.16448 0.0
N37 N 0.45132 0.00521 0.26396 0.0
C38 C 0.44975 0.95405 0.22669 0.0
C39 C 0.53631 0.99211 0.29914 0.0
C40 C 0.53614 0.94055 0.26043 0.0
C41 C 0.49315 0.02378 0.30057 0.0
C42 C 0.49235 0.92067 0.22369 0.0
H43 H 0.56965 0.91616 0.25946 0.0
O44 O 0.36487 0.04947 0.32586 0.0
O45 O 0.37239 0.14958 0.2976 0.0
O46 O 0.46945 0.15982 0.26008 0.0
O47 O 0.45361 0.06224 0.23752 0.0
O48 O 0.42207 0.11982 0.33365 0.0
O49 O 0.30828 0.99741 0.26358 0.0
O50 O 0.33165 0.21043 0.20814 0.0
O51 O 0.36352 0.09642 0.21798 0.0
O52 O 0.29285 0.06732 0.23479 0.0
O53 O 0.29889 0.16503 0.25634 0.0
O54 O 0.40271 0.13247 0.18412 0.0
O55 O 0.41805 0.24218 0.22339 0.0
C56 C 0.40105 0.16416 0.33611 0.0
C57 C 0.48965 0.86848 0.18439 0.0
C58 C 0.44434 0.84933 0.14884 0.0
C59 C 0.32341 0.00879 0.3061 0.0
C60 C 0.32666 0.9592 0.31598 0.0
C61 C 0.35842 0.91746 0.2927 0.0
C62 C 0.29963 0.95367 0.3492 0.0
C63 C 0.3044 0.90629 0.35851 0.0
C64 C 0.36436 0.8717 0.30238 0.0
C65 C 0.33797 0.86623 0.335 0.0
C66 C 0.48348 0.10786 0.24086 0.0
C67 C 0.38012 0.08509 0.18094 0.0
C68 C 0.3702 0.23965 0.2008 0.0
C69 C 0.35761 0.29207 0.19809 0.0
C70 C 0.35175 0.34107 0.23713 0.0
C71 C 0.35193 0.29317 0.15567 0.0
C72 C 0.33927 0.34259 0.15206 0.0
C73 C 0.33894 0.39 0.2338 0.0
C74 C 0.33246 0.39078 0.19166 0.0
C75 C 0.26993 0.11376 0.24119 0.0
H76 H 0.37893 0.9203 0.26704 0.0
H77 H 0.27451 0.98544 0.36702 0.0
H78 H 0.38963 0.84021 0.28447 0.0
H79 H 0.34423 0.83039 0.34194 0.0
H80 H 0.35737 0.34167 0.27016 0.0
H81 H 0.35688 0.25543 0.12549 0.0
H82 H 0.33434 0.42767 0.26409 0.0
H83 H 0.32327 0.42961 0.19024 0.0
Gd84 Gd 0.19084 0.35218 0.67679 0.0
Gd85 Gd 0.0856 0.23613 0.58575 0.0
C86 C 0.93691 0.15675 0.61585 0.0
C87 C 0.95875 0.06153 0.59861 0.0
C88 C 0.02069 0.12856 0.58827 0.0
C89 C 0.98629 0.16933 0.60346 0.0
C90 C 0.00722 0.07399 0.58526 0.0
C91 C 0.92356 0.10278 0.61374 0.0
C92 C 0.90241 0.19874 0.62976 0.0
C93 C 0.91717 0.25125 0.63031 0.0
N94 N 0.00097 0.22123 0.60574 0.0
C95 C 0.96666 0.26164 0.61772 0.0
H96 H 0.97784 0.30247 0.61853 0.0
C97 C 0.10078 0.10214 0.55776 0.0
N98 N 0.06712 0.14215 0.57579 0.0
C99 C 0.08945 0.04754 0.55441 0.0
C100 C 0.0428 0.03364 0.5687 0.0
H101 H 0.1373 0.11279 0.54719 0.0
H102 H 0.88601 0.09241 0.62345 0.0
H103 H 0.30447 0.29296 0.65089 0.0
H104 H 0.86416 0.19087 0.63968 0.0
H105 H 0.89056 0.28382 0.6406 0.0
H106 H 0.94788 0.02008 0.59705 0.0
H107 H 0.13687 0.4745 0.71712 0.0
H108 H 0.41401 0.40716 0.62918 0.0
H109 H 0.39156 0.31481 0.63028 0.0
H110 H 0.32471 0.57431 0.67055 0.0
H111 H 0.11684 0.01633 0.54109 0.0
H112 H 0.03462 0.99161 0.56646 0.0
H113 H 0.38852 0.50394 0.64404 0.0
H114 H 0.15584 0.5722 0.7254 0.0
N115 N 0.2767 0.37131 0.66004 0.0
C116 C 0.37559 0.39776 0.63822 0.0
C117 C 0.36312 0.34566 0.63889 0.0
C118 C 0.33906 0.4378 0.65059 0.0
C119 C 0.28957 0.42327 0.66192 0.0
C120 C 0.31356 0.33342 0.65057 0.0
N121 N 0.2081 0.44764 0.68929 0.0
C122 C 0.25418 0.46286 0.6772 0.0
C123 C 0.18386 0.54185 0.71179 0.0
C124 C 0.2305 0.55767 0.69842 0.0
C125 C 0.17341 0.48649 0.70727 0.0
C126 C 0.26655 0.51812 0.6811 0.0
H127 H 0.23861 0.60062 0.70209 0.0
O128 O 0.19684 0.39675 0.75077 0.0
O129 O 0.11076 0.29709 0.65928 0.0
O130 O 0.06801 0.32618 0.60186 0.0
O131 O 0.15409 0.3816 0.62684 0.0
O132 O 0.11638 0.37806 0.71037 0.0
O133 O 0.24756 0.33105 0.72045 0.0
O134 O 0.07832 0.18825 0.51213 0.0
O135 O 0.16583 0.29009 0.60306 0.0
O136 O 0.21186 0.26347 0.65738 0.0
O137 O 0.12684 0.20763 0.63528 0.0
O138 O 0.15819 0.20796 0.55107 0.0
O139 O 0.02568 0.25246 0.54071 0.0
C140 C 0.08478 0.32965 0.68822 0.0
C141 C 0.31471 0.53225 0.66821 0.0
C142 C 0.35096 0.49215 0.65302 0.0
C143 C 0.23335 0.36706 0.75799 0.0
C144 C 0.27703 0.39602 0.79848 0.0
C145 C 0.32082 0.43354 0.79991 0.0
C146 C 0.27645 0.38271 0.83511 0.0
C147 C 0.31987 0.40607 0.87293 0.0
C148 C 0.36377 0.4573 0.83744 0.0
C149 C 0.36354 0.44353 0.87355 0.0
C150 C 0.10223 0.37004 0.60645 0.0
C151 C 0.19082 0.25539 0.57437 0.0
C152 C 0.03765 0.21278 0.50354 0.0
C153 C 0.9909 0.17486 0.46804 0.0
C154 C 0.95974 0.1331 0.47401 0.0
C155 C 0.97691 0.18076 0.42796 0.0
C156 C 0.93155 0.14544 0.39413 0.0
C157 C 0.9151 0.09779 0.44062 0.0
C158 C 0.90099 0.10384 0.40103 0.0
C159 C 0.17885 0.22111 0.6558 0.0
H160 H 0.32204 0.44383 0.77185 0.0
H161 H 0.2429 0.35289 0.83352 0.0
H162 H 0.39761 0.48624 0.83842 0.0
H163 H 0.39732 0.4627 0.90223 0.0
H164 H 0.96993 0.1278 0.50443 0.0
H165 H 0.00083 0.21327 0.42347 0.0
H166 H 0.89134 0.06554 0.44541 0.0
H167 H 0.86655 0.07531 0.37547 0.0
Gd168 Gd 0.82726 0.96424 1.0107 0.0
Gd169 Gd 0.81836 0.09361 0.99406 0.0
C170 C 0.75162 0.24994 0.09268 0.0
C171 C 0.66643 0.24809 0.0466 0.0
C172 C 0.72464 0.175 1.0149 0.0
C173 C 0.76146 0.20009 0.05569 0.0
C174 C 0.67695 0.19897 1.00967 0.0
C175 C 0.70364 0.27346 0.08806 0.0
C176 C 0.7907 0.27512 0.13295 0.0
C177 C 0.83872 0.25136 0.13514 0.0
N178 N 0.80765 0.17658 0.05877 0.0
C179 C 0.84686 0.2023 0.0973 0.0
H180 H 0.88445 0.18494 0.0992 0.0
C181 C 0.70221 0.10265 0.93836 0.0
N182 N 0.73575 0.12696 0.98016 0.0
C183 C 0.65442 0.12494 0.93152 0.0
C184 C 0.64151 0.17306 0.9674 0.0
H185 H 0.71181 0.06571 0.91025 0.0
H186 H 0.69527 0.31163 0.11615 0.0
H187 H 0.69891 0.88047 0.97024 0.0
H188 H 0.78463 0.31334 0.16221 0.0
H189 H 0.86964 0.27096 0.16586 0.0
H190 H 0.62987 0.26701 0.04334 0.0
H191 H 0.95437 0.92861 0.0212 0.0
H192 H 0.69895 0.75038 0.83573 0.0
H193 H 0.64946 0.80213 0.89838 0.0
H194 H 0.88973 0.74903 0.83053 0.0
H195 H 0.62764 0.10506 0.89851 0.0
H196 H 0.60446 0.1902 0.96197 0.0
H197 H 0.78917 0.7317 0.81019 0.0
H198 H 0.01306 0.86738 0.97141 0.0
N199 N 0.77535 0.88006 0.94739 0.0
C200 C 0.72082 0.78616 0.86697 0.0
C201 C 0.69279 0.81528 0.9022 0.0
C202 C 0.77754 0.80046 0.87413 0.0
C203 C 0.80399 0.84747 0.91554 0.0
C204 C 0.72112 0.86087 0.94285 0.0
N205 N 0.88363 0.89863 0.96884 0.0
C206 C 0.86023 0.8569 0.92687 0.0
C207 C 0.97031 0.86462 0.95804 0.0
C208 C 0.94798 0.82572 0.91293 0.0
C209 C 0.937 0.89977 0.98599 0.0
C210 C 0.89184 0.82 0.8973 0.0
H211 H 0.9737 0.79827 0.89133 0.0
O212 O 0.88067 0.97066 0.07073 0.0
O213 O 0.8344 0.05994 0.04552 0.0
O214 O 0.90191 0.10066 0.03359 0.0
O215 O 0.91158 0.00558 1.01225 0.0
O216 O 0.78568 0.0161 0.06859 0.0
O217 O 0.80517 0.91105 0.04216 0.0
O218 O 0.83946 0.10065 0.93488 0.0
O219 O 0.8378 0.00493 0.96713 0.0
O220 O 0.73875 0.97323 0.98964 0.0
O221 O 0.7359 0.06828 1.0057 0.0
O222 O 0.79145 0.02224 0.92114 0.0
O223 O 0.87603 0.16531 1.00225 0.0
C224 C 0.8076 0.06644 0.07706 0.0
C225 C 0.86604 0.77685 0.85417 0.0
C226 C 0.80882 0.76707 0.84257 0.0
C227 C 0.84842 0.93241 0.07435 0.0
C228 C 0.8737 0.8932 0.08901 0.0
C229 C 0.88912 0.84245 0.05773 0.0
C230 C 0.87977 0.90594 0.1353 0.0
C231 C 0.90028 0.8678 0.15067 0.0
C232 C 0.91048 0.80484 0.07265 0.0
C233 C 0.91581 0.81711 0.11861 0.0
C234 C 0.93268 0.06013 0.02889 0.0
C235 C 0.8165 0.98353 0.92579 0.0
C236 C 0.87036 0.14979 0.9587 0.0
C237 C 0.86025 0.19423 0.94385 0.0
C238 C 0.82078 0.22971 0.96076 0.0
C239 C 0.88891 0.20059 0.91189 0.0
C240 C 0.87807 0.24238 0.8971 0.0
C241 C 0.80916 0.27013 0.94582 0.0
C242 C 0.83719 0.27631 0.91422 0.0
C243 C 0.71302 0.01875 1.00103 0.0
H244 H 0.88395 0.83158 0.02186 0.0
H245 H 0.86804 0.94558 0.15922 0.0
H246 H 0.92209 0.76548 0.04836 0.0
H247 H 0.93083 0.78609 0.12867 0.0
H248 H 0.79875 0.22611 0.98547 0.0
H249 H 0.91991 0.17368 0.8992 0.0
H250 H 0.77812 0.29682 0.95875 0.0
H251 H 0.82631 0.30759 0.90292 0.0
Gd252 Gd 0.13502 0.80271 0.65827 0.0
Gd253 Gd 0.01248 0.83045 0.60087 0.0
C254 C 0.84189 0.80069 0.63068 0.0
C255 C 0.79952 0.71424 0.56233 0.0
C256 C 0.89273 0.75629 0.56975 0.0
C257 C 0.89041 0.79863 0.61264 0.0
C258 C 0.84688 0.71433 0.54358 0.0
C259 C 0.79701 0.75742 0.60583 0.0
C260 C 0.83921 0.84731 0.67231 0.0
C261 C 0.88355 0.89119 0.69409 0.0
N262 N 0.93429 0.84004 0.6354 0.0
C263 C 0.9308 0.88707 0.6749 0.0
H264 H 0.96454 0.92151 0.69213 0.0
C265 C 0.93995 0.72241 0.50773 0.0
N266 N 0.93887 0.75816 0.55253 0.0
C267 C 0.89578 0.67963 0.48059 0.0
C268 C 0.84933 0.675 0.4988 0.0
H269 H 0.97554 0.72572 0.49321 0.0
H270 H 0.75963 0.75791 0.61934 0.0
H271 H 0.10814 0.68044 0.66556 0.0
H272 H 0.8027 0.85055 0.6873 0.0
H273 H 0.88152 0.92807 0.72584 0.0
H274 H 0.76406 0.68204 0.54295 0.0
H275 H 0.22569 0.88373 0.63782 0.0
H276 H 0.21695 0.56601 0.59732 0.0
H277 H 0.14076 0.58702 0.64047 0.0
H278 H 0.3319 0.67752 0.55171 0.0
H279 H 0.89751 0.65044 0.44558 0.0
H280 H 0.81499 0.64209 0.4776 0.0
H281 H 0.28762 0.59983 0.56355 0.0
H282 H 0.30527 0.87335 0.59921 0.0
N283 N 0.16378 0.71195 0.63552 0.0
C284 C 0.20246 0.60707 0.60791 0.0
C285 C 0.15958 0.61883 0.63239 0.0
C286 C 0.22696 0.64897 0.59834 0.0
C287 C 0.20671 0.70179 0.61315 0.0
C288 C 0.14114 0.67199 0.64654 0.0
N289 N 0.21248 0.79632 0.62362 0.0
C290 C 0.23158 0.74534 0.60666 0.0
C291 C 0.28481 0.83687 0.60087 0.0
C292 C 0.30357 0.78396 0.5815 0.0
C293 C 0.23952 0.84252 0.62259 0.0
C294 C 0.27754 0.73758 0.58499 0.0
H295 H 0.33888 0.77975 0.56497 0.0
O296 O 0.20484 0.85781 0.70992 0.0
O297 O 0.05138 0.82665 0.66251 0.0
O298 O 0.05156 0.9096 0.66734 0.0
O299 O 0.14148 0.89372 0.67084 0.0
O300 O 0.06939 0.76813 0.68485 0.0
O301 O 0.14537 0.81172 0.72753 0.0
O302 O 0.01198 0.85568 0.54664 0.0
O303 O 0.10392 0.83357 0.60784 0.0
O304 O 0.09669 0.72328 0.59429 0.0
O305 O 0.00478 0.7366 0.58472 0.0
O306 O 0.05817 0.79179 0.54286 0.0
O307 O 0.97841 0.90649 0.60595 0.0
C308 C 0.03184 0.79689 0.67953 0.0
C309 C 0.29683 0.68443 0.56868 0.0
C310 C 0.27164 0.64022 0.57544 0.0
C311 C 0.19158 0.84557 0.74147 0.0
C312 C 0.23592 0.83348 0.76868 0.0
C313 C 0.27442 0.7993 0.74749 0.0
C314 C 0.24073 0.85783 0.81655 0.0
C315 C 0.28483 0.84966 0.84367 0.0
C316 C 0.31789 0.79069 0.77369 0.0
C317 C 0.32351 0.816 0.82119 0.0
C318 C 0.10433 0.92753 0.68513 0.0
C319 C 0.10728 0.80854 0.56588 0.0
C320 C 0.98382 0.89701 0.56494 0.0
C321 C 0.93549 0.8982 0.5345 0.0
C322 C 0.8826 0.89405 0.54419 0.0
C323 C 0.94234 0.9026 0.4947 0.0
C324 C 0.89682 0.9025 0.46446 0.0
C325 C 0.83743 0.89452 0.51475 0.0
C326 C 0.84431 0.89857 0.4752 0.0
C327 C 0.04403 0.70374 0.57767 0.0
H328 H 0.27128 0.77994 0.71076 0.0
H329 H 0.20992 0.88302 0.83231 0.0
H330 H 0.34795 0.76492 0.75713 0.0
H331 H 0.35904 0.80983 0.84013 0.0
H332 H 0.87603 0.89017 0.57434 0.0
H333 H 0.98323 0.90618 0.48744 0.0
H334 H 0.79676 0.89107 0.52235 0.0
H335 H 0.8082 0.89724 0.45249 0.0
H336 H 0.97833 0.16311 0.10094 0.0
H337 H 0.20694 0.01333 0.17828 0.0
H338 H 0.01613 0.99599 1.01439 0.0
H339 H 0.20184 0.19465 0.25104 0.0
H340 H 0.12863 0.00462 0.1228 0.0
H341 H 0.05866 0.17731 0.15739 0.0
C342 C 0.00413 0.1298 0.09335 0.0
C343 C 0.98911 0.07691 0.05415 0.0
C344 C 0.14484 0.04646 0.15084 0.0
C345 C 0.07995 0.09251 0.11854 0.0
C346 C 0.18932 0.05141 0.18291 0.0
C347 C 0.21319 0.1055 0.21787 0.0
C348 C 0.12347 0.09581 0.1544 0.0
C349 C 0.18675 0.15277 0.22311 0.0
C350 C 0.04955 0.13769 0.12587 0.0
C351 C 0.02464 0.03593 0.04551 0.0
N352 N 0.1436 0.14706 0.19121 0.0
N353 N 0.06796 0.04405 0.07799 0.0
H354 H 0.20561 0.97307 0.7376 0.0
H355 H 0.24429 0.14106 0.65066 0.0
H356 H 0.04775 0.01924 0.70743 0.0
H357 H 0.14976 0.25943 0.7382 0.0
H358 H 0.24631 0.09138 0.69771 0.0
H359 H 0.24681 0.07231 0.76704 0.0
C360 C 0.17926 0.0044 0.73844 0.0
C361 C 0.12391 0.98771 0.71717 0.0
C362 C 0.22702 0.12975 0.70799 0.0
C363 C 0.17067 0.10013 0.75112 0.0
C364 C 0.2254 0.15737 0.6807 0.0
C365 C 0.19431 0.20177 0.68968 0.0
C366 C 0.19515 0.14555 0.74261 0.0
C367 C 0.17123 0.2227 0.72916 0.0
C368 C 0.20283 0.06103 0.75588 0.0
C369 C 0.09117 0.03013 0.72142 0.0
N370 N 0.16993 0.19277 0.75331 0.0
N371 N 0.1155 0.08467 0.73679 0.0
H372 H 0.67955 0.94659 0.03537 0.0
H373 H 0.51663 0.17501 0.20269 0.0
H374 H 0.64306 0.09912 0.02581 0.0
H375 H 0.53741 0.01458 0.20432 0.0
H376 H 0.56554 0.14867 0.1396 0.0
H377 H 0.62427 0.96771 0.09408 0.0
C378 C 0.65827 0.98332 0.04402 0.0
C379 C 0.66628 0.021 0.02507 0.0
C380 C 0.56004 0.1194 0.15403 0.0
C381 C 0.6047 0.04707 0.09473 0.0
C382 C 0.53315 0.13507 0.19107 0.0
C383 C 0.52367 0.09755 0.20986 0.0
C384 C 0.57765 0.0656 0.13522 0.0
C385 C 0.54401 0.04506 0.19126 0.0
C386 C 0.6275 0.99605 0.07858 0.0
C387 C 0.63867 0.06903 0.03952 0.0
N388 N 0.56987 0.03054 0.15487 0.0
N389 N 0.60984 0.08112 0.07391 0.0
H390 H 0.16153 0.42576 0.57179 0.0
H391 H 0.96144 0.6428 0.59125 0.0
H392 H -0.00124 0.39752 0.5963 0.0
H393 H 0.09652 0.62441 0.51931 0.0
H394 H 0.96357 0.54544 0.58222 0.0
H395 H 0.13145 0.49131 0.54323 0.0
C396 C 0.11927 0.43335 0.57098 0.0
C397 C 0.08268 0.40705 0.58697 0.0
C398 C 0.99134 0.56187 0.56685 0.0
C399 C 0.04808 0.48313 0.55524 0.0
C400 C 0.98977 0.61719 0.57166 0.0
C401 C 0.02965 0.64151 0.55678 0.0
C402 C 0.03326 0.53175 0.54737 0.0
C403 C 0.06572 0.60711 0.53187 0.0
C404 C 0.10191 0.47045 0.55431 0.0
C405 C 0.02821 0.41759 0.58457 0.0
N406 N 0.06755 0.55433 0.52886 0.0
N407 N 0.01272 0.45605 0.56998 0.0
H408 H 0.20977 0.33649 0.54584 0.0
H409 H 0.45664 0.2041 0.42327 0.0
H410 H 0.27775 0.19815 0.56003 0.0
H411 H 0.3021 0.20323 0.34711 0.0
H412 H 0.41811 0.24626 0.49377 0.0
H413 H 0.27314 0.33273 0.49368 0.0
C414 C 0.23988 0.30742 0.5398 0.0
C415 C 0.23923 0.26799 0.5575 0.0
C416 C 0.39366 0.23876 0.46167 0.0
C417 C 0.31125 0.26374 0.49867 0.0
C418 C 0.41545 0.21481 0.42157 0.0
C419 C 0.38299 0.20122 0.37927 0.0
C420 C 0.33945 0.25016 0.45947 0.0
C421 C 0.32929 0.21456 0.3789 0.0
C422 C 0.2755 0.30495 0.50984 0.0
C423 C 0.27759 0.22959 0.54734 0.0
N424 N 0.30922 0.23828 0.41834 0.0
N425 N 0.31201 0.22826 0.51847 0.0
H426 H 0.02207 0.39624 0.74563 0.0
H427 H 0.91471 0.16258 0.82175 0.0
H428 H 0.06004 0.2239 0.68652 0.0
H429 H 0.91169 0.34416 0.89729 0.0
H430 H 0.9599 0.18045 0.76683 0.0
H431 H 0.97015 0.37358 0.79465 0.0
C432 C 0.01864 0.35323 0.74224 0.0
C433 C 0.04523 0.31186 0.71131 0.0
C434 C 0.94915 0.21627 0.79544 0.0
C435 C 0.98654 0.28565 0.76828 0.0
C436 C 0.9237 0.20616 0.82707 0.0
C437 C 0.9086 0.25176 0.86427 0.0
C438 C 0.95949 0.27238 0.80082 0.0
C439 C 0.92109 0.30727 0.8688 0.0
C440 C 0.98932 0.3404 0.77054 0.0
C441 C 0.03981 0.25705 0.70904 0.0
N442 N 0.94541 0.31584 0.83755 0.0
N443 N 0.01134 0.24558 0.73715 0.0
H444 H 0.96782 0.85067 0.40661 0.0
H445 H 0.82997 0.92007 0.20931 0.0
H446 H 0.84064 0.95784 0.42255 0.0
H447 H 0.97782 0.84248 0.20388 0.0
H448 H 0.83393 0.9353 0.28759 0.0
H449 H 0.97303 0.84822 0.33293 0.0
C450 C 0.94144 0.87434 0.39503 0.0
C451 C 0.90341 0.90418 0.42098 0.0
C452 C 0.86567 0.91518 0.26935 0.0
C453 C 0.90852 0.90054 0.33579 0.0
C454 C 0.86369 0.90675 0.22455 0.0
C455 C 0.90354 0.87966 0.19942 0.0
C456 C 0.90743 0.89588 0.28934 0.0
C457 C 0.9455 0.86247 0.22126 0.0
C458 C 0.94423 0.8726 0.35269 0.0
C459 C 0.86979 0.93323 0.4035 0.0
N460 N 0.94611 0.87051 0.2647 0.0
N461 N 0.87288 0.93035 0.36198 0.0
H462 H 0.33425 0.81192 0.90338 0.0
H463 H 0.27863 0.06628 0.13184 0.0
H464 H 0.25143 0.95066 0.90284 0.0
H465 H 0.43238 1.00031 0.12595 0.0
H466 H 0.24922 1.00301 0.04956 0.0
H467 H 0.35292 0.86182 0.98665 0.0
C468 C 0.31997 0.85277 0.92028 0.0
C469 C 0.2919 0.87715 0.89501 0.0
C470 C 0.28885 1.00145 0.06655 0.0
C471 C 0.31118 0.93306 0.99123 0.0
C472 C 0.30529 0.03684 0.11346 0.0
C473 C 0.35738 0.03724 0.13569 0.0
C474 C 0.32466 0.966 0.04183 0.0
C475 C 0.39147 1.00021 0.11009 0.0
C476 C 0.33031 0.88086 0.96804 0.0
C477 C 0.2727 0.92929 0.91997 0.0
N478 N 0.37446 0.96583 0.06447 0.0
N479 N 0.28265 0.95533 0.9665 0.0
H480 H 0.92626 0.9861 0.93182 0.0
H481 H 0.93389 0.74432 0.68246 0.0
H482 H 0.77431 0.90233 0.83738 0.0
H483 H 0.0517 0.89765 0.75544 0.0
H484 H 0.87811 0.78391 0.74306 0.0
H485 H 0.97655 0.93429 0.87187 0.0
C486 C 0.90334 0.95582 0.89867 0.0
C487 C 0.84592 0.94767 0.88983 0.0
C488 C 0.91613 0.80863 0.74548 0.0
C489 C 0.90372 0.8891 0.82035 0.0
C490 C 0.94776 0.7862 0.71119 0.0
C491 C -0.00347 0.81858 0.71386 0.0
C492 C 0.93471 0.86275 0.78287 0.0
C493 C 0.01368 0.87206 0.75186 0.0
C494 C 0.93219 0.92671 0.86426 0.0
C495 C 0.81861 0.90931 0.84553 0.0
N496 N 0.98288 0.89241 0.78487 0.0
N497 N 0.84782 0.88107 0.81221 0.0
H498 H 0.28625 0.98495 0.44366 0.0
H499 H 0.15279 0.73803 0.49603 0.0
H500 H 0.25465 0.80468 0.34936 0.0
H501 H 0.15163 0.91672 0.58382 0.0
H502 H 0.20245 0.76411 0.44754 0.0
H503 H 0.24488 0.9638 0.49908 0.0
C504 C 0.2704 0.9411 0.43438 0.0
C505 C 0.27487 0.89654 0.39174 0.0
C506 C 0.19221 0.79791 0.47775 0.0
C507 C 0.22851 0.87192 0.45546 0.0
C508 C 0.16447 0.78291 0.50574 0.0
C509 C 0.14923 0.8252 0.54448 0.0
C510 C 0.20413 0.85584 0.4879 0.0
C511 C 0.16395 0.88283 0.55483 0.0
C512 C 0.24722 0.929 0.46623 0.0
C513 C 0.25364 0.84051 0.382 0.0
N514 N 0.1903 0.8965 0.52658 0.0
N515 N 0.23193 0.82996 0.41346 0.0
H516 H 0.23523 0.40108 0.91715 0.0
H517 H 0.40745 0.30791 0.08896 0.0
H518 H 0.40491 0.37759 0.91684 0.0
H519 H 0.25942 0.38332 0.11411 0.0
H520 H 0.40131 0.31895 0.01897 0.0
H521 H 0.23772 0.38072 0.98255 0.0
C522 C 0.27288 0.39119 0.93058 0.0
C523 C 0.32001 0.39141 0.91156 0.0
C524 C 0.37006 0.33285 0.03973 0.0
C525 C 0.32312 0.36784 0.98648 0.0
C526 C 0.37333 0.32617 0.07951 0.0
C527 C 0.33403 0.34494 0.10762 0.0
C528 C 0.32673 0.35774 0.0275 0.0
C529 C 0.29096 0.36882 0.09379 0.0
C530 C 0.27437 0.37989 0.96809 0.0
C531 C 0.36779 0.37866 0.93072 0.0
N532 N 0.28843 0.37445 0.0548 0.0
N533 N 0.36808 0.36731 0.96696 0.0
H534 H 0.74743 0.11394 0.14327 0.0
H535 H -0.0013 0.1585 0.33876 0.0
H536 H 0.9135 0.09945 0.122 0.0
H537 H 0.82884 0.14427 0.35169 0.0
H538 H 0.97087 0.15762 0.26482 0.0
H539 H 0.77928 0.14764 0.22515 0.0
C540 C 0.79098 0.12041 0.15619 0.0
C541 C 0.82813 0.10538 0.12596 0.0
C542 C 0.93973 0.15532 0.28408 0.0
C543 C 0.8648 0.1414 0.21927 0.0
C544 C 0.95563 0.15606 0.32641 0.0
C545 C 0.91604 0.1508 0.35134 0.0
C546 C 0.88381 0.1497 0.26658 0.0
C547 C 0.86076 0.14737 0.33335 0.0
C548 C 0.8091 0.1388 0.20282 0.0
C549 C 0.88388 0.11258 0.14424 0.0
N550 N 0.84633 0.14654 0.2921 0.0
N551 N 0.90046 0.12936 0.18954 0.0
loop_
_geom_bond_atom_site_label_1
_geom_bond_atom_site_label_2
_geom_bond_distance
_geom_bond_site_symmetry_2
_ccdc_geom_bond_type
Gd0 N31 2.661 . S
Gd0 N37 2.601 . S
Gd0 O44 2.545 . S
Gd0 O45 2.606 1_565 S
Gd0 O47 2.429 . S
Gd0 O48 2.545 1_565 S
Gd0 O49 2.412 . S
Gd0 O51 2.362 . S
Gd0 O52 2.324 . S
Gd0 C59 2.828 . S
Gd1 N10 2.661 . S
Gd1 N14 2.601 . S
Gd1 O45 2.362 . S
Gd1 O46 2.324 . S
Gd1 O50 2.545 . S
Gd1 O51 2.606 1_545 S
Gd1 O53 2.429 . S
Gd1 O54 2.545 . S
Gd1 O55 2.412 . S
Gd1 C68 2.828 . S
C2 C5 1.417 . S
C2 C7 1.431 . S
C2 C8 1.412 . S
C3 C6 1.437 . S
C3 C7 1.317 . S
C3 H22 0.929 . S
C4 C5 1.426 . S
C4 C6 1.413 . S
C4 N14 1.359 . S
C5 C2 1.417 . S
C5 C4 1.426 . S
C5 N10 1.350 . S
C6 C3 1.437 . S
C6 C4 1.413 . S
C6 C16 1.391 . S
C7 C2 1.431 . S
C7 C3 1.317 . S
C7 H18 0.930 . S
C8 C2 1.412 . S
C8 C9 1.355 . S
C8 H20 0.930 . S
C9 C8 1.355 . S
C9 C11 1.402 . S
C9 H21 0.930 . S
N10 Gd1 2.661 . S
N10 C5 1.350 . S
N10 C11 1.307 . S
C11 C9 1.402 . S
C11 N10 1.307 . S
C11 H12 0.930 . S
H12 C11 0.930 . S
C13 N14 1.334 . S
C13 C15 1.394 . S
C13 H17 0.930 . S
N14 Gd1 2.601 . S
N14 C4 1.359 . S
N14 C13 1.334 . S
C15 C13 1.394 . S
C15 C16 1.359 . S
C15 H27 0.930 . S
C16 C6 1.391 . S
C16 C15 1.359 . S
C16 H28 0.929 . S
H17 C13 0.930 . S
H18 C7 0.930 . S
H19 C36 0.930 . S
H20 C8 0.930 . S
H21 C9 0.930 . S
H22 C3 0.929 . S
H23 C41 0.930 . S
H24 C32 0.930 1_556 S
H25 C33 0.930 . S
H26 C57 0.929 . S
H27 C15 0.930 . S
H28 C16 0.929 . S
H29 C58 0.930 1_556 S
H30 C39 0.930 . S
N31 Gd0 2.661 . S
N31 C35 1.350 . S
N31 C36 1.307 . S
C32 H24 0.930 1_554 S
C32 C33 1.355 . S
C32 C34 1.412 . S
C33 H25 0.930 . S
C33 C32 1.355 . S
C33 C36 1.402 . S
C34 C32 1.412 . S
C34 C35 1.417 . S
C34 C58 1.431 . S
C35 N31 1.350 . S
C35 C34 1.417 . S
C35 C38 1.426 . S
C36 H19 0.930 . S
C36 N31 1.307 . S
C36 C33 1.402 . S
N37 Gd0 2.601 . S
N37 C38 1.359 . S
N37 C41 1.334 . S
C38 C35 1.426 . S
C38 N37 1.359 . S
C38 C42 1.413 . S
C39 H30 0.930 . S
C39 C40 1.359 . S
C39 C41 1.394 . S
C40 C39 1.359 . S
C40 C42 1.391 . S
C40 H43 0.929 . S
C41 H23 0.930 . S
C41 N37 1.334 . S
C41 C39 1.394 . S
C42 C38 1.413 . S
C42 C40 1.391 . S
C42 C57 1.437 . S
H43 C40 0.929 . S
O44 Gd0 2.545 . S
O44 C59 1.258 . S
O45 Gd0 2.606 1_545 S
O45 Gd1 2.362 . S
O45 C56 1.284 . S
O46 Gd1 2.324 . S
O46 C66 1.254 . S
O47 Gd0 2.429 . S
O47 C66 1.268 1_565 S
O48 Gd0 2.545 1_545 S
O48 C56 1.250 . S
O49 Gd0 2.412 . S
O49 C59 1.252 . S
O50 Gd1 2.545 . S
O50 C68 1.258 . S
O51 Gd0 2.362 . S
O51 Gd1 2.606 1_565 S
O51 C67 1.284 . S
O52 Gd0 2.324 . S
O52 C75 1.254 1_565 S
O53 Gd1 2.429 . S
O53 C75 1.268 . S
O54 Gd1 2.545 . S
O54 C67 1.250 1_545 S
O55 Gd1 2.412 . S
O55 C68 1.252 . S
C56 O45 1.284 . S
C56 O48 1.250 . S
C57 H26 0.929 . S
C57 C42 1.437 . S
C57 C58 1.317 . S
C58 H29 0.930 1_554 S
C58 C34 1.431 . S
C58 C57 1.317 . S
C59 Gd0 2.828 . S
C59 O44 1.258 . S
C59 O49 1.252 . S
C59 C60 1.497 . S
C60 C59 1.497 . S
C60 C61 1.395 . S
C60 C62 1.380 . S
C61 C60 1.395 . S
C61 C64 1.398 . S
C61 H76 0.930 . S
C62 C60 1.380 . S
C62 C63 1.391 . S
C62 H77 0.930 . S
C63 C62 1.391 . S
C63 C65 1.387 . S
C64 C61 1.398 . S
C64 C65 1.380 . S
C64 H78 0.930 . S
C65 C63 1.387 . S
C65 C64 1.380 . S
C65 H79 0.930 . S
C66 O46 1.254 . S
C66 O47 1.268 1_545 S
C67 O51 1.284 . S
C67 O54 1.250 1_565 S
C68 Gd1 2.828 . S
C68 O50 1.258 . S
C68 O55 1.252 . S
C68 C69 1.497 . S
C69 C68 1.497 . S
C69 C70 1.395 . S
C69 C71 1.380 . S
C70 C69 1.395 . S
C70 C73 1.398 . S
C70 H80 0.930 . S
C71 C69 1.380 . S
C71 C72 1.391 . S
C71 H81 0.930 . S
C72 C71 1.391 . S
C72 C74 1.387 . S
C73 C70 1.398 . S
C73 C74 1.380 . S
C73 H82 0.930 . S
C74 C72 1.387 . S
C74 C73 1.380 . S
C74 H83 0.930 . S
C75 O52 1.254 1_545 S
C75 O53 1.268 . S
H76 C61 0.930 . S
H77 C62 0.930 . S
H78 C64 0.930 . S
H79 C65 0.930 . S
H80 C70 0.930 . S
H81 C71 0.930 . S
H82 C73 0.930 . S
H83 C74 0.930 . S
Gd84 N115 2.661 . S
Gd84 N121 2.601 . S
Gd84 O128 2.545 . S
Gd84 O129 2.606 . S
Gd84 O131 2.429 . S
Gd84 O132 2.545 . S
Gd84 O133 2.412 . S
Gd84 O135 2.362 . S
Gd84 O136 2.324 . S
Gd84 C143 2.828 . S
Gd85 N94 2.661 . S
Gd85 N98 2.601 . S
Gd85 O129 2.362 . S
Gd85 O130 2.324 . S
Gd85 O134 2.545 . S
Gd85 O135 2.606 . S
Gd85 O137 2.429 . S
Gd85 O138 2.545 . S
Gd85 O139 2.412 . S
Gd85 C152 2.828 . S
C86 C89 1.417 . S
C86 C91 1.431 . S
C86 C92 1.412 . S
C87 C90 1.437 . S
C87 C91 1.317 . S
C87 H106 0.929 . S
C88 C89 1.426 . S
C88 C90 1.413 . S
C88 N98 1.359 1_655 S
C89 C86 1.417 . S
C89 C88 1.426 . S
C89 N94 1.350 1_655 S
C90 C87 1.437 . S
C90 C88 1.413 . S
C90 C100 1.391 . S
C91 C86 1.431 . S
C91 C87 1.317 . S
C91 H102 0.930 . S
C92 C86 1.412 . S
C92 C93 1.355 1_655 S
C92 H104 0.930 . S
C93 C92 1.355 1_455 S
C93 C95 1.402 . S
C93 H105 0.930 . S
N94 Gd85 2.661 . S
N94 C89 1.350 1_455 S
N94 C95 1.307 . S
C95 C93 1.402 . S
C95 N94 1.307 . S
C95 H96 0.930 . S
H96 C95 0.930 . S
C97 N98 1.334 . S
C97 C99 1.394 1_455 S
C97 H101 0.930 . S
N98 Gd85 2.601 . S
N98 C88 1.359 1_455 S
N98 C97 1.334 . S
C99 C97 1.394 1_655 S
C99 C100 1.359 . S
C99 H111 0.930 . S
C100 C90 1.391 . S
C100 C99 1.359 . S
C100 H112 0.929 . S
H101 C97 0.930 . S
H102 C91 0.930 . S
H103 C120 0.930 . S
H104 C92 0.930 . S
H105 C93 0.930 . S
H106 C87 0.929 . S
H107 C125 0.930 . S
H108 C116 0.930 . S
H109 C117 0.930 . S
H110 C141 0.929 . S
H111 C99 0.930 . S
H112 C100 0.929 . S
H113 C142 0.930 . S
H114 C123 0.930 . S
N115 Gd84 2.661 . S
N115 C119 1.350 . S
N115 C120 1.307 . S
C116 H108 0.930 . S
C116 C117 1.355 . S
C116 C118 1.412 . S
C117 H109 0.930 . S
C117 C116 1.355 . S
C117 C120 1.402 . S
C118 C116 1.412 . S
C118 C119 1.417 . S
C118 C142 1.431 . S
C119 N115 1.350 . S
C119 C118 1.417 . S
C119 C122 1.426 . S
C120 H103 0.930 . S
C120 N115 1.307 . S
C120 C117 1.402 . S
N121 Gd84 2.601 . S
N121 C122 1.359 . S
N121 C125 1.334 . S
C122 C119 1.426 . S
C122 N121 1.359 . S
C122 C126 1.413 . S
C123 H114 0.930 . S
C123 C124 1.359 . S
C123 C125 1.394 . S
C124 C123 1.359 . S
C124 C126 1.391 . S
C124 H127 0.929 . S
C125 H107 0.930 . S
C125 N121 1.334 . S
C125 C123 1.394 . S
C126 C122 1.413 . S
C126 C124 1.391 . S
C126 C141 1.437 . S
H127 C124 0.929 . S
O128 Gd84 2.545 . S
O128 C143 1.258 . S
O129 Gd84 2.606 . S
O129 Gd85 2.362 . S
O129 C140 1.284 . S
O130 Gd85 2.324 . S
O130 C150 1.254 . S
O131 Gd84 2.429 . S
O131 C150 1.268 . S
O132 Gd84 2.545 . S
O132 C140 1.250 . S
O133 Gd84 2.412 . S
O133 C143 1.252 . S
O134 Gd85 2.545 . S
O134 C152 1.258 . S
O135 Gd84 2.362 . S
O135 Gd85 2.606 . S
O135 C151 1.284 . S
O136 Gd84 2.324 . S
O136 C159 1.254 . S
O137 Gd85 2.429 . S
O137 C159 1.268 . S
O138 Gd85 2.545 . S
O138 C151 1.250 . S
O139 Gd85 2.412 . S
O139 C152 1.252 . S
C140 O129 1.284 . S
C140 O132 1.250 . S
C141 H110 0.929 . S
C141 C126 1.437 . S
C141 C142 1.317 . S
C142 H113 0.930 . S
C142 C118 1.431 . S
C142 C141 1.317 . S
C143 Gd84 2.828 . S
C143 O128 1.258 . S
C143 O133 1.252 . S
C143 C144 1.497 . S
C144 C143 1.497 . S
C144 C145 1.395 . S
C144 C146 1.380 . S
C145 C144 1.395 . S
C145 C148 1.398 . S
C145 H160 0.930 . S
C146 C144 1.380 . S
C146 C147 1.391 . S
C146 H161 0.930 . S
C147 C146 1.391 . S
C147 C149 1.387 . S
C148 C145 1.398 . S
C148 C149 1.380 . S
C148 H162 0.930 . S
C149 C147 1.387 . S
C149 C148 1.380 . S
C149 H163 0.930 . S
C150 O130 1.254 . S
C150 O131 1.268 . S
C151 O135 1.284 . S
C151 O138 1.250 . S
C152 Gd85 2.828 . S
C152 O134 1.258 . S
C152 O139 1.252 . S
C152 C153 1.497 . S
C153 C152 1.497 . S
C153 C154 1.395 1_455 S
C153 C155 1.380 . S
C154 C153 1.395 1_655 S
C154 C157 1.398 . S
C154 H164 0.930 . S
C155 C153 1.380 . S
C155 C156 1.391 . S
C155 H165 0.930 . S
C156 C155 1.391 . S
C156 C158 1.387 1_455 S
C157 C154 1.398 . S
C157 C158 1.380 . S
C157 H166 0.930 . S
C158 C156 1.387 1_655 S
C158 C157 1.380 . S
C158 H167 0.930 . S
C159 O136 1.254 . S
C159 O137 1.268 . S
H160 C145 0.930 . S
H161 C146 0.930 . S
H162 C148 0.930 . S
H163 C149 0.930 . S
H164 C154 0.930 . S
H165 C155 0.930 . S
H166 C157 0.930 . S
H167 C158 0.930 . S
Gd168 N199 2.667 1_545 S
Gd168 N205 2.601 1_545 S
Gd168 O212 2.545 1_545 S
Gd168 O213 2.606 . S
Gd168 O215 2.429 . S
Gd168 O216 2.545 . S
Gd168 O217 2.412 1_545 S
Gd168 O219 2.362 . S
Gd168 O220 2.324 . S
Gd168 C227 2.828 1_545 S
Gd169 N178 2.661 . S
Gd169 N182 2.601 . S
Gd169 O213 2.362 . S
Gd169 O214 2.324 . S
Gd169 O218 2.545 . S
Gd169 O219 2.606 . S
Gd169 O221 2.429 . S
Gd169 O222 2.545 1_554 S
Gd169 O223 2.412 . S
Gd169 C236 2.828 . S
C170 C173 1.417 . S
C170 C175 1.431 . S
C170 C176 1.412 1_655 S
C171 C174 1.437 . S
C171 C175 1.317 . S
C171 H190 0.929 . S
C172 C173 1.426 . S
C172 C174 1.413 . S
C172 N182 1.359 . S
C173 C170 1.417 . S
C173 C172 1.426 . S
C173 N178 1.350 . S
C174 C171 1.437 . S
C174 C172 1.413 . S
C174 C184 1.391 . S
C175 C170 1.431 . S
C175 C171 1.317 . S
C175 H186 0.930 . S
C176 C170 1.412 1_455 S
C176 C177 1.355 . S
C176 H188 0.930 . S
C177 C176 1.355 . S
C177 C179 1.402 1_455 S
C177 H189 0.930 . S
N178 Gd169 2.661 . S
N178 C173 1.350 . S
N178 C179 1.307 . S
C179 C177 1.402 1_655 S
C179 N178 1.307 . S
C179 H180 0.930 1_655 S
H180 C179 0.930 1_455 S
C181 N182 1.334 . S
C181 C183 1.394 . S
C181 H185 0.930 . S
N182 Gd169 2.601 . S
N182 C172 1.359 . S
N182 C181 1.334 . S
C183 C181 1.394 . S
C183 C184 1.359 . S
C183 H195 0.930 . S
C184 C174 1.391 . S
C184 C183 1.359 . S
C184 H196 0.929 . S
H185 C181 0.930 . S
H186 C175 0.930 . S
H187 C204 0.932 . S
H188 C176 0.930 . S
H189 C177 0.930 . S
H190 C171 0.929 . S
H191 C209 0.930 1_455 S
H192 C200 0.930 . S
H193 C201 0.930 . S
H194 C225 0.929 . S
H195 C183 0.930 . S
H196 C184 0.929 . S
H197 C226 0.930 . S
H198 C207 0.930 . S
N199 Gd168 2.667 1_565 S
N199 C203 1.348 1_554 S
N199 C204 1.303 1_554 S
C200 H192 0.930 . S
C200 C201 1.355 . S
C200 C202 1.412 . S
C201 H193 0.930 . S
C201 C200 1.355 . S
C201 C204 1.402 . S
C202 C200 1.412 . S
C202 C203 1.417 . S
C202 C226 1.431 . S
C203 N199 1.348 1_556 S
C203 C202 1.417 . S
C203 C206 1.426 . S
C204 H187 0.932 . S
C204 N199 1.303 1_556 S
C204 C201 1.402 . S
N205 Gd168 2.601 1_565 S
N205 C206 1.359 1_554 S
N205 C209 1.334 . S
C206 C203 1.426 . S
C206 N205 1.359 1_556 S
C206 C210 1.413 . S
C207 H198 0.930 . S
C207 C208 1.359 1_454 S
C207 C209 1.394 1_455 S
C208 C207 1.359 1_656 S
C208 C210 1.391 . S
C208 H211 0.929 . S
C209 H191 0.930 1_655 S
C209 N205 1.334 . S
C209 C207 1.394 1_655 S
C210 C206 1.413 . S
C210 C208 1.391 . S
C210 C225 1.437 . S
H211 C208 0.929 . S
O212 Gd168 2.545 1_565 S
O212 C227 1.258 . S
O213 Gd168 2.606 . S
O213 Gd169 2.362 . S
O213 C224 1.284 . S
O214 Gd169 2.324 . S
O214 C234 1.254 . S
O215 Gd168 2.429 . S
O215 C234 1.268 . S
O216 Gd168 2.545 . S
O216 C224 1.250 . S
O217 Gd168 2.412 1_565 S
O217 C227 1.252 . S
O218 Gd169 2.545 . S
O218 C236 1.258 . S
O219 Gd168 2.362 . S
O219 Gd169 2.606 . S
O219 C235 1.284 1_554 S
O220 Gd168 2.324 . S
O220 C243 1.254 . S
O221 Gd169 2.429 . S
O221 C243 1.268 . S
O222 Gd169 2.545 1_556 S
O222 C235 1.250 . S
O223 Gd169 2.412 . S
O223 C236 1.252 . S
C224 O213 1.284 . S
C224 O216 1.250 . S
C225 H194 0.929 . S
C225 C210 1.437 . S
C225 C226 1.317 . S
C226 H197 0.930 . S
C226 C202 1.431 . S
C226 C225 1.317 . S
C227 Gd168 2.828 1_565 S
C227 O212 1.258 . S
C227 O217 1.252 . S
C227 C228 1.497 . S
C228 C227 1.497 . S
C228 C229 1.395 . S
C228 C230 1.380 . S
C229 C228 1.395 . S
C229 C232 1.398 . S
C229 H244 0.930 . S
C230 C228 1.380 . S
C230 C231 1.391 . S
C230 H245 0.930 . S
C231 C230 1.391 . S
C231 C233 1.387 . S
C232 C229 1.398 . S
C232 C233 1.380 . S
C232 H246 0.930 . S
C233 C231 1.387 . S
C233 C232 1.380 . S
C233 H247 0.930 . S
C234 O214 1.254 . S
C234 O215 1.268 . S
C235 O219 1.284 1_556 S
C235 O222 1.250 . S
C236 Gd169 2.828 . S
C236 O218 1.258 . S
C236 O223 1.252 . S
C236 C237 1.497 1_554 S
C237 C236 1.497 1_556 S
C237 C238 1.395 . S
C237 C239 1.380 . S
C238 C237 1.395 . S
C238 C241 1.398 . S
C238 H248 0.930 . S
C239 C237 1.380 . S
C239 C240 1.391 . S
C239 H249 0.930 . S
C240 C239 1.391 . S
C240 C242 1.387 . S
C241 C238 1.398 . S
C241 C242 1.380 . S
C241 H250 0.930 . S
C242 C240 1.387 . S
C242 C241 1.380 . S
C242 H251 0.930 . S
C243 O220 1.254 . S
C243 O221 1.268 . S
H244 C229 0.930 . S
H245 C230 0.930 . S
H246 C232 0.930 . S
H247 C233 0.930 . S
H248 C238 0.930 . S
H249 C239 0.930 . S
H250 C241 0.930 . S
H251 C242 0.930 . S
Gd252 N283 2.661 . S
Gd252 N289 2.601 . S
Gd252 O296 2.545 . S
Gd252 O297 2.606 1_455 S
Gd252 O299 2.429 . S
Gd252 O300 2.545 . S
Gd252 O301 2.412 . S
Gd252 O303 2.362 . S
Gd252 O304 2.324 . S
Gd252 C311 2.828 . S
Gd253 N262 2.661 . S
Gd253 N266 2.601 . S
Gd253 O297 2.362 . S
Gd253 O298 2.324 . S
Gd253 O302 2.545 . S
Gd253 O303 2.606 1_655 S
Gd253 O305 2.429 . S
Gd253 O306 2.545 1_655 S
Gd253 O307 2.412 . S
Gd253 C320 2.828 . S
C254 C257 1.417 . S
C254 C259 1.431 . S
C254 C260 1.412 . S
C255 C258 1.437 . S
C255 C259 1.317 . S
C255 H274 0.929 . S
C256 C257 1.426 . S
C256 C258 1.413 . S
C256 N266 1.359 . S
C257 C254 1.417 . S
C257 C256 1.426 . S
C257 N262 1.350 . S
C258 C255 1.437 . S
C258 C256 1.413 . S
C258 C268 1.391 . S
C259 C254 1.431 . S
C259 C255 1.317 . S
C259 H270 0.930 . S
C260 C254 1.412 . S
C260 C261 1.355 . S
C260 H272 0.930 . S
C261 C260 1.355 . S
C261 C263 1.402 . S
C261 H273 0.930 . S
N262 Gd253 2.661 . S
N262 C257 1.350 . S
N262 C263 1.307 . S
C263 C261 1.402 . S
C263 N262 1.307 . S
C263 H264 0.930 . S
H264 C263 0.930 . S
C265 N266 1.334 . S
C265 C267 1.394 . S
C265 H269 0.930 . S
N266 Gd253 2.601 . S
N266 C256 1.359 . S
N266 C265 1.334 . S
C267 C265 1.394 . S
C267 C268 1.359 . S
C267 H279 0.930 . S
C268 C258 1.391 . S
C268 C267 1.359 . S
C268 H280 0.929 . S
H269 C265 0.930 . S
H270 C259 0.930 . S
H271 C288 0.930 . S
H272 C260 0.930 . S
H273 C261 0.930 . S
H274 C255 0.929 . S
H275 C293 0.930 . S
H276 C284 0.930 . S
H277 C285 0.930 . S
H278 C309 0.929 . S
H279 C267 0.930 . S
H280 C268 0.929 . S
H281 C310 0.930 . S
H282 C291 0.930 . S
N283 Gd252 2.661 . S
N283 C287 1.350 . S
N283 C288 1.307 . S
C284 H276 0.930 . S
C284 C285 1.355 . S
C284 C286 1.412 . S
C285 H277 0.930 . S
C285 C284 1.355 . S
C285 C288 1.402 . S
C286 C284 1.412 . S
C286 C287 1.417 . S
C286 C310 1.431 . S
C287 N283 1.350 . S
C287 C286 1.417 . S
C287 C290 1.426 . S
C288 H271 0.930 . S
C288 N283 1.307 . S
C288 C285 1.402 . S
N289 Gd252 2.601 . S
N289 C290 1.359 . S
N289 C293 1.334 . S
C290 C287 1.426 . S
C290 N289 1.359 . S
C290 C294 1.413 . S
C291 H282 0.930 . S
C291 C292 1.359 1_545 S
C291 C293 1.394 1_545 S
C292 C291 1.359 1_565 S
C292 C294 1.391 . S
C292 H295 0.929 1_565 S
C293 H275 0.930 . S
C293 N289 1.334 . S
C293 C291 1.394 1_565 S
C294 C290 1.413 . S
C294 C292 1.391 . S
C294 C309 1.437 . S
H295 C292 0.929 1_545 S
O296 Gd252 2.545 . S
O296 C311 1.258 . S
O297 Gd252 2.606 1_655 S
O297 Gd253 2.362 . S
O297 C308 1.284 . S
O298 Gd253 2.324 . S
O298 C318 1.254 1_655 S
O299 Gd252 2.429 . S
O299 C318 1.268 . S
O300 Gd252 2.545 . S
O300 C308 1.250 1_455 S
O301 Gd252 2.412 . S
O301 C311 1.252 . S
O302 Gd253 2.545 . S
O302 C320 1.258 . S
O303 Gd252 2.362 . S
O303 Gd253 2.606 1_455 S
O303 C319 1.284 . S
O304 Gd252 2.324 . S
O304 C327 1.254 . S
O305 Gd253 2.429 . S
O305 C327 1.268 1_655 S
O306 Gd253 2.545 1_455 S
O306 C319 1.250 . S
O307 Gd253 2.412 . S
O307 C320 1.252 . S
C308 O297 1.284 . S
C308 O300 1.250 1_655 S
C309 H278 0.929 . S
C309 C294 1.437 . S
C309 C310 1.317 . S
C310 H281 0.930 . S
C310 C286 1.431 . S
C310 C309 1.317 . S
C311 Gd252 2.828 . S
C311 O296 1.258 . S
C311 O301 1.252 . S
C311 C312 1.497 . S
C312 C311 1.497 . S
C312 C313 1.395 . S
C312 C314 1.380 . S
C313 C312 1.395 . S
C313 C316 1.398 . S
C313 H328 0.930 . S
C314 C312 1.380 . S
C314 C315 1.391 . S
C314 H329 0.930 . S
C315 C314 1.391 . S
C315 C317 1.387 . S
C316 C313 1.398 . S
C316 C317 1.380 . S
C316 H330 0.930 . S
C317 C315 1.387 . S
C317 C316 1.380 . S
C317 H331 0.930 . S
C318 O298 1.254 1_455 S
C318 O299 1.268 . S
C319 O303 1.284 . S
C319 O306 1.250 . S
C320 Gd253 2.828 . S
C320 O302 1.258 . S
C320 O307 1.252 . S
C320 C321 1.497 . S
C321 C320 1.497 . S
C321 C322 1.395 . S
C321 C323 1.380 . S
C322 C321 1.395 . S
C322 C325 1.398 . S
C322 H332 0.930 . S
C323 C321 1.380 . S
C323 C324 1.391 . S
C323 H333 0.930 . S
C324 C323 1.391 . S
C324 C326 1.387 . S
C325 C322 1.398 . S
C325 C326 1.380 . S
C325 H334 0.930 . S
C326 C324 1.387 . S
C326 C325 1.380 . S
C326 H335 0.930 . S
C327 O304 1.254 . S
C327 O305 1.268 1_455 S
H328 C313 0.930 . S
H329 C314 0.930 . S
H330 C316 0.930 . S
H331 C317 0.930 . S
H332 C322 0.930 . S
H333 C323 0.930 . S
H334 C325 0.930 . S
H335 C326 0.930 . S
H336 C342 0.930 . S
H337 C346 0.930 . S
H338 C351 0.929 1_655 S
H339 C349 0.929 . S
H340 C344 0.929 . S
H341 C350 0.929 . S
C342 H336 0.930 . S
C342 C343 1.367 . S
C342 C350 1.378 . S
C343 C342 1.367 . S
C343 C351 1.433 . S
C344 H340 0.929 . S
C344 C346 1.378 . S
C344 C348 1.350 1_565 S
C345 C348 1.463 . S
C345 C350 1.350 . S
C345 N353 1.427 . S
C346 H337 0.930 . S
C346 C344 1.378 . S
C346 C347 1.367 1_565 S
C347 C346 1.367 1_545 S
C347 C349 1.433 . S
C348 C344 1.350 1_545 S
C348 C345 1.463 . S
C348 N352 1.427 . S
C349 H339 0.929 . S
C349 C347 1.433 . S
C349 N352 1.384 . S
C350 H341 0.929 . S
C350 C342 1.378 . S
C350 C345 1.350 . S
C351 H338 0.929 1_455 S
C351 C343 1.433 . S
C351 N353 1.384 . S
N352 C348 1.427 . S
N352 C349 1.384 . S
N353 C345 1.427 . S
N353 C351 1.384 . S
H354 C360 0.930 1_645 S
H355 C364 0.930 . S
H356 C369 0.929 . S
H357 C367 0.929 . S
H358 C362 0.929 . S
H359 C368 0.929 . S
C360 H354 0.930 1_465 S
C360 C361 1.367 . S
C360 C368 1.378 1_565 S
C361 C360 1.367 . S
C361 C369 1.433 . S
C362 H358 0.929 . S
C362 C364 1.378 . S
C362 C366 1.350 . S
C363 C366 1.463 . S
C363 C368 1.350 . S
C363 N371 1.427 1_545 S
C364 H355 0.930 . S
C364 C362 1.378 . S
C364 C365 1.367 . S
C365 C364 1.367 . S
C365 C367 1.433 . S
C366 C362 1.350 . S
C366 C363 1.463 . S
C366 N370 1.427 . S
C367 H357 0.929 . S
C367 C365 1.433 . S
C367 N370 1.384 . S
C368 H359 0.929 . S
C368 C360 1.378 1_545 S
C368 C363 1.350 . S
C369 H356 0.929 . S
C369 C361 1.433 . S
C369 N371 1.384 . S
N370 C366 1.427 . S
N370 C367 1.384 . S
N371 C363 1.427 1_565 S
N371 C369 1.384 . S
H372 C378 0.930 . S
H373 C382 0.930 . S
H374 C387 0.929 . S
H375 C385 0.929 . S
H376 C380 0.929 . S
H377 C386 0.929 1_565 S
C378 H372 0.930 . S
C378 C379 1.367 . S
C378 C386 1.378 . S
C379 C378 1.367 . S
C379 C387 1.433 . S
C380 H376 0.929 . S
C380 C382 1.378 . S
C380 C384 1.350 . S
C381 C384 1.463 . S
C381 C386 1.350 . S
C381 N389 1.427 . S
C382 H373 0.930 . S
C382 C380 1.378 . S
C382 C383 1.367 . S
C383 C382 1.367 . S
C383 C385 1.433 1_545 S
C384 C380 1.350 . S
C384 C381 1.463 . S
C384 N388 1.427 1_545 S
C385 H375 0.929 . S
C385 C383 1.433 1_565 S
C385 N388 1.384 . S
C386 H377 0.929 1_545 S
C386 C378 1.378 . S
C386 C381 1.350 . S
C387 H374 0.929 . S
C387 C379 1.433 . S
C387 N389 1.384 . S
N388 C384 1.427 1_565 S
N388 C385 1.384 . S
N389 C381 1.427 . S
N389 C387 1.384 . S
H390 C396 0.930 . S
H391 C400 0.930 . S
H392 C405 0.929 . S
H393 C403 0.929 1_655 S
H394 C398 0.929 . S
H395 C404 0.929 . S
C396 H390 0.930 . S
C396 C397 1.367 . S
C396 C404 1.378 . S
C397 C396 1.367 . S
C397 C405 1.433 . S
C398 H394 0.929 . S
C398 C400 1.378 . S
C398 C402 1.350 . S
C399 C402 1.463 . S
C399 C404 1.350 . S
C399 N407 1.427 . S
C400 H391 0.930 . S
C400 C398 1.378 . S
C400 C401 1.367 . S
C401 C400 1.367 . S
C401 C403 1.433 . S
C402 C398 1.350 . S
C402 C399 1.463 . S
C402 N406 1.427 . S
C403 H393 0.929 1_455 S
C403 C401 1.433 . S
C403 N406 1.384 . S
C404 H395 0.929 . S
C404 C396 1.378 . S
C404 C399 1.350 . S
C405 H392 0.929 . S
C405 C397 1.433 . S
C405 N407 1.384 . S
N406 C402 1.427 . S
N406 C403 1.384 . S
N407 C399 1.427 . S
N407 C405 1.384 . S
H408 C414 0.930 . S
H409 C418 0.930 . S
H410 C423 0.929 . S
H411 C421 0.929 . S
H412 C416 0.929 . S
H413 C422 0.929 . S
C414 H408 0.930 . S
C414 C415 1.367 . S
C414 C422 1.378 . S
C415 C414 1.367 . S
C415 C423 1.433 . S
C416 H412 0.929 . S
C416 C418 1.378 . S
C416 C420 1.350 . S
C417 C420 1.463 . S
C417 C422 1.350 . S
C417 N425 1.427 . S
C418 H409 0.930 . S
C418 C416 1.378 . S
C418 C419 1.367 . S
C419 C418 1.367 . S
C419 C421 1.433 . S
C420 C416 1.350 . S
C420 C417 1.463 . S
C420 N424 1.427 . S
C421 H411 0.929 . S
C421 C419 1.433 . S
C421 N424 1.384 . S
C422 H413 0.929 . S
C422 C414 1.378 . S
C422 C417 1.350 . S
C423 H410 0.929 . S
C423 C415 1.433 . S
C423 N425 1.384 . S
N424 C420 1.427 . S
N424 C421 1.384 . S
N425 C417 1.427 . S
N425 C423 1.384 . S
H426 C432 0.930 . S
H427 C436 0.930 . S
H428 C441 0.929 . S
H429 C439 0.929 . S
H430 C434 0.929 . S
H431 C440 0.929 . S
C432 H426 0.930 . S
C432 C433 1.367 . S
C432 C440 1.378 . S
C433 C432 1.367 . S
C433 C441 1.433 . S
C434 H430 0.929 . S
C434 C436 1.378 . S
C434 C438 1.350 . S
C435 C438 1.463 . S
C435 C440 1.350 . S
C435 N443 1.427 . S
C436 H427 0.930 . S
C436 C434 1.378 . S
C436 C437 1.367 1_455 S
C437 C436 1.367 1_655 S
C437 C439 1.433 . S
C438 C434 1.350 . S
C438 C435 1.463 . S
C438 N442 1.427 . S
C439 H429 0.929 . S
C439 C437 1.433 . S
C439 N442 1.384 1_655 S
C440 H431 0.929 . S
C440 C432 1.378 . S
C440 C435 1.350 . S
C441 H428 0.929 . S
C441 C433 1.433 . S
C441 N443 1.384 . S
N442 C438 1.427 . S
N442 C439 1.384 1_455 S
N443 C435 1.427 . S
N443 C441 1.384 . S
H444 C450 0.930 . S
H445 C454 0.930 . S
H446 C459 0.929 . S
H447 C457 0.929 . S
H448 C452 0.929 . S
H449 C458 0.929 . S
C450 H444 0.930 . S
C450 C451 1.367 . S
C450 C458 1.378 . S
C451 C450 1.367 . S
C451 C459 1.433 . S
C452 H448 0.929 . S
C452 C454 1.378 . S
C452 C456 1.350 . S
C453 C456 1.463 . S
C453 C458 1.350 . S
C453 N461 1.427 . S
C454 H445 0.930 . S
C454 C452 1.378 . S
C454 C455 1.367 . S
C455 C454 1.367 . S
C455 C457 1.433 . S
C456 C452 1.350 . S
C456 C453 1.463 . S
C456 N460 1.427 . S
C457 H447 0.929 . S
C457 C455 1.433 . S
C457 N460 1.384 . S
C458 H449 0.929 . S
C458 C450 1.378 . S
C458 C453 1.350 . S
C459 H446 0.929 . S
C459 C451 1.433 . S
C459 N461 1.384 . S
N460 C456 1.427 . S
N460 C457 1.384 . S
N461 C453 1.427 . S
N461 C459 1.384 . S
H462 C468 0.930 . S
H463 C472 0.930 1_545 S
H464 C477 0.929 . S
H465 C475 0.929 . S
H466 C470 0.929 . S
H467 C476 0.929 . S
C468 H462 0.930 . S
C468 C469 1.367 . S
C468 C476 1.378 . S
C469 C468 1.367 . S
C469 C477 1.433 . S
C470 H466 0.929 . S
C470 C472 1.378 1_556 S
C470 C474 1.350 . S
C471 C474 1.463 . S
C471 C476 1.350 . S
C471 N479 1.427 . S
C472 H463 0.930 1_565 S
C472 C470 1.378 1_554 S
C472 C473 1.367 . S
C473 C472 1.367 . S
C473 C475 1.433 . S
C474 C470 1.350 . S
C474 C471 1.463 . S
C474 N478 1.427 . S
C475 H465 0.929 . S
C475 C473 1.433 . S
C475 N478 1.384 1_554 S
C476 H467 0.929 . S
C476 C468 1.378 . S
C476 C471 1.350 . S
C477 H464 0.929 . S
C477 C469 1.433 . S
C477 N479 1.384 . S
N478 C474 1.427 . S
N478 C475 1.384 1_556 S
N479 C471 1.427 . S
N479 C477 1.384 . S
H480 C486 0.930 . S
H481 C490 0.930 . S
H482 C495 0.929 . S
H483 C493 0.929 . S
H484 C488 0.929 . S
H485 C494 0.929 1_545 S
C486 H480 0.930 . S
C486 C487 1.367 1_545 S
C486 C494 1.378 1_545 S
C487 C486 1.367 1_565 S
C487 C495 1.433 . S
C488 H484 0.929 . S
C488 C490 1.378 . S
C488 C492 1.350 . S
C489 C492 1.463 . S
C489 C494 1.350 . S
C489 N497 1.427 . S
C490 H481 0.930 . S
C490 C488 1.378 . S
C490 C491 1.367 . S
C491 C490 1.367 . S
C491 C493 1.433 . S
C492 C488 1.350 . S
C492 C489 1.463 . S
C492 N496 1.427 . S
C493 H483 0.929 . S
C493 C491 1.433 . S
C493 N496 1.384 . S
C494 H485 0.929 1_565 S
C494 C486 1.378 1_565 S
C494 C489 1.350 . S
C495 H482 0.929 . S
C495 C487 1.433 . S
C495 N497 1.384 . S
N496 C492 1.427 . S
N496 C493 1.384 . S
N497 C489 1.427 . S
N497 C495 1.384 . S
H498 C504 0.930 . S
H499 C508 0.930 . S
H500 C513 0.929 . S
H501 C511 0.929 . S
H502 C506 0.929 . S
H503 C512 0.929 . S
C504 H498 0.930 . S
C504 C505 1.367 . S
C504 C512 1.378 . S
C505 C504 1.367 . S
C505 C513 1.433 . S
C506 H502 0.929 . S
C506 C508 1.378 . S
C506 C510 1.350 . S
C507 C510 1.463 . S
C507 C512 1.350 . S
C507 N515 1.427 . S
C508 H499 0.930 . S
C508 C506 1.378 . S
C508 C509 1.367 . S
C509 C508 1.367 . S
C509 C511 1.433 . S
C510 C506 1.350 . S
C510 C507 1.463 . S
C510 N514 1.427 . S
C511 H501 0.929 . S
C511 C509 1.433 . S
C511 N514 1.384 . S
C512 H503 0.929 . S
C512 C504 1.378 . S
C512 C507 1.350 . S
C513 H500 0.929 . S
C513 C505 1.433 . S
C513 N515 1.384 . S
N514 C510 1.427 . S
N514 C511 1.384 . S
N515 C507 1.427 . S
N515 C513 1.384 . S
H516 C522 0.930 . S
H517 C526 0.930 . S
H518 C531 0.929 . S
H519 C529 0.929 . S
H520 C524 0.929 . S
H521 C530 0.929 . S
C522 H516 0.930 . S
C522 C523 1.367 . S
C522 C530 1.378 . S
C523 C522 1.367 . S
C523 C531 1.433 . S
C524 H520 0.929 . S
C524 C526 1.378 1_556 S
C524 C528 1.350 . S
C525 C528 1.463 . S
C525 C530 1.350 . S
C525 N533 1.427 . S
C526 H517 0.930 . S
C526 C524 1.378 1_554 S
C526 C527 1.367 . S
C527 C526 1.367 . S
C527 C529 1.433 1_554 S
C528 C524 1.350 . S
C528 C525 1.463 . S
C528 N532 1.427 . S
C529 H519 0.929 . S
C529 C527 1.433 1_556 S
C529 N532 1.384 . S
C530 H521 0.929 . S
C530 C522 1.378 . S
C530 C525 1.350 . S
C531 H518 0.929 . S
C531 C523 1.433 . S
C531 N533 1.384 . S
N532 C528 1.427 . S
N532 C529 1.384 . S
N533 C525 1.427 . S
N533 C531 1.384 . S
H534 C540 0.930 . S
H535 C544 0.930 . S
H536 C549 0.929 . S
H537 C547 0.929 . S
H538 C542 0.929 . S
H539 C548 0.929 . S
C540 H534 0.930 . S
C540 C541 1.367 . S
C540 C548 1.378 . S
C541 C540 1.367 . S
C541 C549 1.433 . S
C542 H538 0.929 . S
C542 C544 1.378 . S
C542 C546 1.350 1_455 S
C543 C546 1.463 . S
C543 C548 1.350 . S
C543 N551 1.427 . S
C544 H535 0.930 . S
C544 C542 1.378 . S
C544 C545 1.367 . S
C545 C544 1.367 . S
C545 C547 1.433 1_455 S
C546 C542 1.350 1_655 S
C546 C543 1.463 . S
C546 N550 1.427 . S
C547 H537 0.929 . S
C547 C545 1.433 1_655 S
C547 N550 1.384 . S
C548 H539 0.929 . S
C548 C540 1.378 . S
C548 C543 1.350 . S
C549 H536 0.929 . S
C549 C541 1.433 . S
C549 N551 1.384 . S
N550 C546 1.427 . S
N550 C547 1.384 . S
N551 C543 1.427 . S
N551 C549 1.384 . S
C343 C234 0.769 1_455 S
C347 C75 0.769 . S
C361 C318 0.566 . S
C365 C159 0.566 . S
C379 C243 1.269 . S
C383 C66 1.269 . S
C397 C150 1.353 . S
C401 C327 1.353 . S
C415 C151 1.937 . S
C419 C56 2.083 . S
C433 C140 2.077 . S
C437 C240 2.099 . S
C451 C324 1.122 . S
C455 C231 0.944 . S
C469 C315 0.820 . S
C473 C67 0.842 . S
C487 C235 2.082 1_565 S
C491 C308 1.945 . S
C505 C63 2.099 . S
C509 C319 2.078 . S
C523 C147 1.120 . S
C527 C72 0.954 . S
C541 C224 0.879 . S
C545 C156 0.785 . S
