# Generated by pormake.
# Topology gis, (4)-cn, num edge types: 1
# Building blocks:
#     Node 0, Type 0, BuildingBlock: GALJAG_clean_sbu_0, # of connection points: 4
#     Node 1, Type 0, BuildingBlock: GALJAG_clean_sbu_0, # of connection points: 4
#     Node 2, Type 0, BuildingBlock: GALJAG_clean_sbu_0, # of connection points: 4
#     Node 3, Type 0, BuildingBlock: GALJAG_clean_sbu_0, # of connection points: 4
#     Node 4, Type 0, BuildingBlock: GALJAG_clean_sbu_0, # of connection points: 4
#     Node 5, Type 0, BuildingBlock: GALJAG_clean_sbu_0, # of connection points: 4
#     Node 6, Type 0, BuildingBlock: GALJAG_clean_sbu_0, # of connection points: 4
#     Node 7, Type 0, BuildingBlock: GALJAG_clean_sbu_0, # of connection points: 4
#     Node 8, Type 0, BuildingBlock: GALJAG_clean_sbu_0, # of connection points: 4
#     Node 9, Type 0, BuildingBlock: GALJAG_clean_sbu_0, # of connection points: 4
#     Node 10, Type 0, BuildingBlock: GALJAG_clean_sbu_0, # of connection points: 4
#     Node 11, Type 0, BuildingBlock: GALJAG_clean_sbu_0, # of connection points: 4
#     Node 12, Type 0, BuildingBlock: GALJAG_clean_sbu_0, # of connection points: 4
#     Node 13, Type 0, BuildingBlock: GALJAG_clean_sbu_0, # of connection points: 4
#     Node 14, Type 0, BuildingBlock: GALJAG_clean_sbu_0, # of connection points: 4
#     Node 15, Type 0, BuildingBlock: GALJAG_clean_sbu_0, # of connection points: 4
#     Edge 16, Type (0, 0), BuildingBlock: CIFDUS_clean_linker_0, # of connection points: 2
#     Edge 17, Type (0, 0), BuildingBlock: CIFDUS_clean_linker_0, # of connection points: 2
#     Edge 18, Type (0, 0), BuildingBlock: CIFDUS_clean_linker_0, # of connection points: 2
#     Edge 19, Type (0, 0), BuildingBlock: CIFDUS_clean_linker_0, # of connection points: 2
#     Edge 20, Type (0, 0), BuildingBlock: CIFDUS_clean_linker_0, # of connection points: 2
#     Edge 21, Type (0, 0), BuildingBlock: CIFDUS_clean_linker_0, # of connection points: 2
#     Edge 22, Type (0, 0), BuildingBlock: CIFDUS_clean_linker_0, # of connection points: 2
#     Edge 23, Type (0, 0), BuildingBlock: CIFDUS_clean_linker_0, # of connection points: 2
#     Edge 24, Type (0, 0), BuildingBlock: CIFDUS_clean_linker_0, # of connection points: 2
#     Edge 25, Type (0, 0), BuildingBlock: CIFDUS_clean_linker_0, # of connection points: 2
#     Edge 26, Type (0, 0), BuildingBlock: CIFDUS_clean_linker_0, # of connection points: 2
#     Edge 27, Type (0, 0), BuildingBlock: CIFDUS_clean_linker_0, # of connection points: 2
#     Edge 28, Type (0, 0), BuildingBlock: CIFDUS_clean_linker_0, # of connection points: 2
#     Edge 29, Type (0, 0), BuildingBlock: CIFDUS_clean_linker_0, # of connection points: 2
#     Edge 30, Type (0, 0), BuildingBlock: CIFDUS_clean_linker_0, # of connection points: 2
#     Edge 31, Type (0, 0), BuildingBlock: CIFDUS_clean_linker_0, # of connection points: 2
#     Edge 32, Type (0, 0), BuildingBlock: CIFDUS_clean_linker_0, # of connection points: 2
#     Edge 33, Type (0, 0), BuildingBlock: CIFDUS_clean_linker_0, # of connection points: 2
#     Edge 34, Type (0, 0), BuildingBlock: CIFDUS_clean_linker_0, # of connection points: 2
#     Edge 35, Type (0, 0), BuildingBlock: CIFDUS_clean_linker_0, # of connection points: 2
#     Edge 36, Type (0, 0), BuildingBlock: CIFDUS_clean_linker_0, # of connection points: 2
#     Edge 37, Type (0, 0), BuildingBlock: CIFDUS_clean_linker_0, # of connection points: 2
#     Edge 38, Type (0, 0), BuildingBlock: CIFDUS_clean_linker_0, # of connection points: 2
#     Edge 39, Type (0, 0), BuildingBlock: CIFDUS_clean_linker_0, # of connection points: 2
#     Edge 40, Type (0, 0), BuildingBlock: CIFDUS_clean_linker_0, # of connection points: 2
#     Edge 41, Type (0, 0), BuildingBlock: CIFDUS_clean_linker_0, # of connection points: 2
#     Edge 42, Type (0, 0), BuildingBlock: CIFDUS_clean_linker_0, # of connection points: 2
#     Edge 43, Type (0, 0), BuildingBlock: CIFDUS_clean_linker_0, # of connection points: 2
#     Edge 44, Type (0, 0), BuildingBlock: CIFDUS_clean_linker_0, # of connection points: 2
#     Edge 45, Type (0, 0), BuildingBlock: CIFDUS_clean_linker_0, # of connection points: 2
#     Edge 46, Type (0, 0), BuildingBlock: CIFDUS_clean_linker_0, # of connection points: 2
#     Edge 47, Type (0, 0), BuildingBlock: CIFDUS_clean_linker_0, # of connection points: 2
# Relax obj value: 0.052
# Max RMSD: 0.088
# Mean RMSD: 0.088
data_MOF--net-gis--node1-GALJAG_clean_sbu_0--edge1-CIFDUS_clean_linker_0
_symmetry_space_group_name_H-M    P1
_symmetry_Int_Tables_number       1
_symmetry_cell_setting            triclinic
loop_
_symmetry_equiv_pos_as_xyz
'x, y, z'
_cell_length_a     47.188094
_cell_length_b     47.239192
_cell_length_c     32.824097
_cell_angle_alpha  90.054988
_cell_angle_beta   90.161707
_cell_angle_gamma 89.854258
loop_
_atom_site_label
_atom_site_type_symbol
_atom_site_fract_x
_atom_site_fract_y
_atom_site_fract_z
_atom_type_partial_charge
In0 In 0.14641 0.60725 0.12143 0.0
O1 O 0.16808 0.59763 0.182 0.0
O2 O 0.19391 0.60461 0.12967 0.0
C3 C 0.09011 0.60543 0.1346 0.0
C4 C 0.1522 0.66341 0.11013 0.0
C5 C 0.15112 0.56081 0.07469 0.0
O6 O 0.10769 0.60052 0.16294 0.0
O7 O 0.1011 0.61103 0.10057 0.0
O8 O 0.15262 0.58549 0.05978 0.0
O9 O 0.14734 0.55986 0.1127 0.0
C10 C 0.19283 0.59908 0.16727 0.0
O11 O 0.15502 0.64606 0.08097 0.0
O12 O 0.14666 0.65227 0.1441 0.0
In13 In 0.63201 0.88251 0.36077 0.0
O14 O 0.64081 0.83963 0.391 0.0
O15 O 0.63073 0.84084 0.32763 0.0
C16 C 0.63833 0.92286 0.41716 0.0
C17 C 0.67859 0.89488 0.3179 0.0
C18 C 0.57557 0.88779 0.35197 0.0
O19 O 0.63983 0.89683 0.42626 0.0
O20 O 0.63363 0.92811 0.38004 0.0
O21 O 0.59239 0.89548 0.32406 0.0
O22 O 0.58739 0.87749 0.38314 0.0
C23 C 0.63701 0.82593 0.35826 0.0
O24 O 0.65401 0.89709 0.30249 0.0
O25 O 0.67931 0.88648 0.35439 0.0
In26 In 0.35515 0.389 0.62588 0.0
O27 O 0.34615 0.40485 0.56136 0.0
O28 O 0.35398 0.43535 0.60774 0.0
C29 C 0.34859 0.33248 0.6193 0.0
C30 C 0.41173 0.39145 0.63667 0.0
C31 C 0.31297 0.39959 0.67857 0.0
O32 O 0.34356 0.34894 0.58978 0.0
O33 O 0.35657 0.34463 0.65156 0.0
O34 O 0.33879 0.40137 0.68854 0.0
O35 O 0.30852 0.39286 0.64188 0.0
C36 C 0.34862 0.43069 0.57068 0.0
O37 O 0.39468 0.4002 0.66353 0.0
O38 O 0.40015 0.38185 0.6049 0.0
In39 In 0.85512 0.10558 0.86265 0.0
O40 O 0.89439 0.09219 0.82561 0.0
O41 O 0.90017 0.11233 0.88305 0.0
C42 C 0.80934 0.09383 0.81691 0.0
C43 C 0.84932 0.06616 0.92074 0.0
C44 C 0.84976 0.16226 0.8621 0.0
O45 O 0.83428 0.0914 0.80312 0.0
O46 O 0.8078 0.10172 0.85358 0.0
O47 O 0.84651 0.14804 0.8944 0.0
O48 O 0.8556 0.14782 0.83086 0.0
C49 C 0.91161 0.10134 0.85216 0.0
O50 O 0.84694 0.09233 0.92834 0.0
O51 O 0.85439 0.06013 0.884 0.0
In52 In 0.13474 0.38654 0.87133 0.0
O53 O 0.14956 0.34907 0.91088 0.0
O54 O 0.13617 0.34126 0.84988 0.0
C55 C 0.14265 0.43388 0.91523 0.0
C56 C 0.17373 0.39588 0.81379 0.0
C57 C 0.0778 0.38513 0.87261 0.0
O58 O 0.14847 0.40959 0.92932 0.0
O59 O 0.133 0.43404 0.87934 0.0
O60 O 0.0912 0.39147 0.84055 0.0
O61 O 0.09316 0.37973 0.90313 0.0
C62 C 0.14537 0.33108 0.88289 0.0
O63 O 0.14756 0.39454 0.80533 0.0
O64 O 0.17985 0.39264 0.85098 0.0
In65 In 0.85515 0.89091 0.12202 0.0
O66 O 0.8483 0.84785 0.09119 0.0
O67 O 0.85603 0.84923 0.15518 0.0
C68 C 0.85006 0.93009 0.06351 0.0
C69 C 0.80773 0.90217 0.16394 0.0
C70 C 0.91128 0.89563 0.13493 0.0
O71 O 0.84814 0.90388 0.0559 0.0
O72 O 0.85443 0.93626 0.10044 0.0
O73 O 0.89353 0.905 0.16055 0.0
O74 O 0.9005 0.88437 0.1037 0.0
C75 C 0.85135 0.8342 0.1241 0.0
O76 O 0.83209 0.90471 0.17987 0.0
O77 O 0.8076 0.89442 0.12714 0.0
In78 In 0.36066 0.61115 0.37975 0.0
O79 O 0.35093 0.59678 0.44458 0.0
O80 O 0.35974 0.5654 0.3994 0.0
C81 C 0.35377 0.6676 0.37623 0.0
C82 C 0.41754 0.60858 0.37583 0.0
C83 C 0.31621 0.59825 0.33239 0.0
O84 O 0.34891 0.6539 0.40862 0.0
O85 O 0.36205 0.65278 0.34655 0.0
O86 O 0.34141 0.59668 0.31921 0.0
O87 O 0.31387 0.60588 0.36909 0.0
C88 C 0.35359 0.57073 0.43605 0.0
O89 O 0.40223 0.59956 0.34681 0.0
O90 O 0.40403 0.61856 0.4057 0.0
In91 In 0.64327 0.10727 0.60107 0.0
O92 O 0.60236 0.09894 0.63758 0.0
O93 O 0.59939 0.11785 0.57891 0.0
C94 C 0.68743 0.09441 0.64953 0.0
C95 C 0.6466 0.06449 0.54767 0.0
C96 C 0.6531 0.16303 0.59366 0.0
O97 O 0.66234 0.09574 0.66306 0.0
O98 O 0.68987 0.09926 0.61191 0.0
O99 O 0.65473 0.14644 0.56348 0.0
O100 O 0.64691 0.15133 0.62701 0.0
C101 C 0.58651 0.10904 0.60996 0.0
O102 O 0.65177 0.08981 0.5377 0.0
O103 O 0.63992 0.0609 0.58452 0.0
In104 In 0.85299 0.38631 0.87328 0.0
O105 O 0.84742 0.40884 0.93436 0.0
O106 O 0.85297 0.43361 0.88055 0.0
C107 C 0.84735 0.33028 0.88376 0.0
C108 C 0.90903 0.38771 0.85948 0.0
C109 C 0.80593 0.39456 0.82933 0.0
O110 O 0.84486 0.34734 0.91338 0.0
O111 O 0.85249 0.34169 0.84983 0.0
O112 O 0.83041 0.39616 0.81372 0.0
O113 O 0.80544 0.38877 0.86689 0.0
C114 C 0.84931 0.43325 0.91861 0.0
O115 O 0.89131 0.39287 0.83137 0.0
O116 O 0.89828 0.382 0.89364 0.0
In117 In 0.36217 0.10785 0.63995 0.0
O118 O 0.3499 0.15022 0.61035 0.0
O119 O 0.36428 0.15021 0.67185 0.0
C120 C 0.35261 0.06946 0.58099 0.0
C121 C 0.32058 0.09462 0.69232 0.0
C122 C 0.41916 0.10371 0.64472 0.0
O123 O 0.3514 0.09579 0.57424 0.0
O124 O 0.35854 0.06275 0.61723 0.0
O125 O 0.40332 0.0937 0.67215 0.0
O126 O 0.40618 0.11539 0.61562 0.0
C127 C 0.35555 0.16454 0.64192 0.0
O128 O 0.34649 0.09321 0.70221 0.0
O129 O 0.3159 0.10239 0.65613 0.0
In130 In 0.64209 0.60163 0.36192 0.0
O131 O 0.60249 0.5935 0.32215 0.0
O132 O 0.59748 0.60559 0.38433 0.0
C133 C 0.68964 0.59593 0.31827 0.0
C134 C 0.64739 0.55528 0.40803 0.0
C135 C 0.64576 0.65772 0.37335 0.0
O136 O 0.66531 0.59392 0.30197 0.0
O137 O 0.68963 0.60051 0.35617 0.0
O138 O 0.64968 0.64048 0.40239 0.0
O139 O 0.64029 0.64647 0.33932 0.0
C140 C 0.58564 0.59911 0.35113 0.0
O141 O 0.64918 0.57997 0.42292 0.0
O142 O 0.64315 0.5542 0.37005 0.0
In143 In 0.13728 0.88806 0.12533 0.0
O144 O 0.09389 0.89908 0.1534 0.0
O145 O 0.09524 0.87819 0.09601 0.0
C146 C 0.17597 0.90207 0.18199 0.0
C147 C 0.14687 0.9284 0.06928 0.0
C148 C 0.14621 0.83169 0.12738 0.0
O149 O 0.14963 0.90276 0.1892 0.0
O150 O 0.18252 0.89484 0.14616 0.0
O151 O 0.15144 0.84609 0.09579 0.0
O152 O 0.1368 0.84578 0.15708 0.0
C153 C 0.08015 0.88856 0.12392 0.0
O154 O 0.15096 0.90242 0.06186 0.0
O155 O 0.13834 0.93381 0.10486 0.0
In156 In 0.86433 0.61034 0.11615 0.0
O157 O 0.84317 0.60172 0.17758 0.0
O158 O 0.81738 0.6068 0.12431 0.0
C159 C 0.92119 0.61022 0.11837 0.0
C160 C 0.85685 0.66607 0.10574 0.0
C161 C 0.85852 0.56254 0.07357 0.0
O162 O 0.90687 0.60509 0.15021 0.0
O163 O 0.90669 0.61529 0.08683 0.0
O164 O 0.85425 0.58664 0.05765 0.0
O165 O 0.86583 0.56284 0.11065 0.0
C166 C 0.81843 0.60219 0.16217 0.0
O167 O 0.85345 0.64875 0.0766 0.0
O168 O 0.86396 0.65508 0.13934 0.0
In169 In 0.13737 0.10638 0.87352 0.0
O170 O 0.09461 0.09529 0.84331 0.0
O171 O 0.09479 0.1159 0.901 0.0
C172 C 0.17849 0.09251 0.82081 0.0
C173 C 0.1461 0.06632 0.93028 0.0
C174 C 0.14528 0.16275 0.86993 0.0
O175 O 0.15251 0.0913 0.8111 0.0
O176 O 0.18338 0.10015 0.85703 0.0
O177 O 0.15022 0.14897 0.90228 0.0
O178 O 0.13664 0.14804 0.84034 0.0
C179 C 0.08027 0.10567 0.87228 0.0
O180 O 0.14958 0.09238 0.93784 0.0
O181 O 0.13848 0.06072 0.89426 0.0
In182 In 0.6369 0.38597 0.61956 0.0
O183 O 0.59431 0.39291 0.65176 0.0
O184 O 0.59483 0.376 0.59137 0.0
C185 C 0.68103 0.39831 0.66717 0.0
C186 C 0.64143 0.43141 0.57183 0.0
C187 C 0.64722 0.33026 0.61821 0.0
O188 O 0.65597 0.39777 0.68114 0.0
O189 O 0.68333 0.39294 0.6296 0.0
O190 O 0.64979 0.34521 0.58633 0.0
O191 O 0.63946 0.34354 0.64968 0.0
C192 C 0.58021 0.38378 0.62154 0.0
O193 O 0.64667 0.40671 0.55854 0.0
O194 O 0.6338 0.43276 0.60864 0.0
In195 In 0.35055 0.89195 0.3835 0.0
O196 O 0.33751 0.90791 0.44622 0.0
O197 O 0.35117 0.93825 0.40261 0.0
C198 C 0.34232 0.83569 0.3906 0.0
C199 C 0.40771 0.89197 0.38101 0.0
C200 C 0.31135 0.90393 0.32623 0.0
O201 O 0.33649 0.85265 0.41918 0.0
O202 O 0.35165 0.84723 0.35874 0.0
O203 O 0.33762 0.90414 0.31875 0.0
O204 O 0.30504 0.89813 0.36261 0.0
C205 C 0.3426 0.93357 0.43837 0.0
O206 O 0.39299 0.90053 0.35119 0.0
O207 O 0.39356 0.88393 0.41134 0.0
H208 H 0.15503 0.7938 0.06524 0.0
H209 H 0.14532 0.7999 0.19573 0.0
H210 H 0.14772 0.74865 0.20166 0.0
H211 H 0.15014 0.70217 0.17017 0.0
H212 H 0.15883 0.69442 0.03989 0.0
H213 H 0.15939 0.74619 0.03347 0.0
C214 C 0.1537 0.78385 0.09493 0.0
C215 C 0.14985 0.80064 0.12996 0.0
C216 C 0.15474 0.7541 0.09817 0.0
C217 C 0.14808 0.78749 0.16825 0.0
C218 C 0.14945 0.75815 0.17172 0.0
C219 C 0.15228 0.71173 0.14031 0.0
C220 C 0.15427 0.6945 0.10554 0.0
C221 C 0.15236 0.74128 0.13691 0.0
C222 C 0.15721 0.70726 0.06713 0.0
C223 C 0.15748 0.73685 0.06347 0.0
H224 H 0.4443 0.90614 0.31945 0.0
H225 H 0.4414 0.87439 0.44274 0.0
H226 H 0.49271 0.87036 0.44408 0.0
H227 H 0.53823 0.87528 0.41085 0.0
H228 H 0.54299 0.9071 0.28795 0.0
H229 H 0.49113 0.91166 0.28581 0.0
C230 C 0.45498 0.89843 0.34657 0.0
C231 C 0.43901 0.89057 0.38093 0.0
C232 C 0.48476 0.8961 0.34721 0.0
C233 C 0.45311 0.88059 0.41586 0.0
C234 C 0.4825 0.87824 0.4167 0.0
C235 C 0.52801 0.88321 0.38348 0.0
C236 C 0.5444 0.89077 0.34957 0.0
C237 C 0.49848 0.88583 0.3826 0.0
C238 C 0.53078 0.9011 0.31446 0.0
C239 C 0.50117 0.90371 0.31326 0.0
H240 H 0.3565 0.295 0.68017 0.0
H241 H 0.33603 0.30006 0.55223 0.0
H242 H 0.33525 0.24824 0.54793 0.0
H243 H 0.34232 0.20141 0.58045 0.0
H244 H 0.36337 0.19761 0.70843 0.0
H245 H 0.36189 0.24902 0.71276 0.0
C246 C 0.35173 0.28481 0.65133 0.0
C247 C 0.34645 0.30132 0.61654 0.0
C248 C 0.35151 0.25521 0.64909 0.0
C249 C 0.3402 0.28778 0.57946 0.0
C250 C 0.33981 0.25818 0.57699 0.0
C251 C 0.34641 0.21189 0.60927 0.0
C252 C 0.35307 0.1957 0.64401 0.0
C253 C 0.34571 0.24165 0.61156 0.0
C254 C 0.35832 0.20954 0.68118 0.0
C255 C 0.35749 0.23897 0.68373 0.0
H256 H 0.04258 0.08564 0.81516 0.0
H257 H 0.04757 0.12764 0.93192 0.0
H258 H 0.99624 0.12994 0.93542 0.0
H259 H 0.95005 0.12029 0.90616 0.0
H260 H 0.94316 0.07838 0.78978 0.0
H261 H 0.99506 0.07579 0.78528 0.0
C262 C 0.03235 0.09524 0.84131 0.0
C263 C 0.04893 0.10641 0.87323 0.0
C264 C 0.00252 0.09654 0.84324 0.0
C265 C 0.0354 0.11884 0.90692 0.0
C266 C 0.00599 0.1202 0.90901 0.0
C267 C 0.95982 0.11056 0.87972 0.0
C268 C 0.9428 0.09954 0.84836 0.0
C269 C 0.98939 0.10915 0.87744 0.0
C270 C 0.95584 0.08703 0.81435 0.0
C271 C 0.98549 0.08555 0.8118 0.0
H272 H 0.14439 0.2917 0.82374 0.0
H273 H 0.15567 0.30133 0.95341 0.0
H274 H 0.1584 0.2497 0.96107 0.0
H275 H 0.15452 0.2016 0.93074 0.0
H276 H 0.14251 0.1936 0.80076 0.0
H277 H 0.14328 0.24478 0.79344 0.0
C278 C 0.14761 0.28256 0.85372 0.0
C279 C 0.14959 0.30026 0.88799 0.0
C280 C 0.14892 0.2531 0.85783 0.0
C281 C 0.15404 0.2881 0.92654 0.0
C282 C 0.15551 0.2586 0.93092 0.0
C283 C 0.15235 0.21113 0.90085 0.0
C284 C 0.14823 0.19381 0.86641 0.0
C285 C 0.15253 0.24084 0.89679 0.0
C286 C 0.14547 0.20642 0.82783 0.0
C287 C 0.1459 0.23572 0.82355 0.0
H288 H 0.95064 0.87498 0.08392 0.0
H289 H 0.94169 0.91961 0.19786 0.0
H290 H 0.99349 0.92148 0.20503 0.0
H291 H 0.04149 0.91022 0.17816 0.0
H292 H 0.04854 0.86543 0.06382 0.0
H293 H 0.99729 0.86384 0.05769 0.0
C294 C 0.95993 0.88517 0.1104 0.0
C295 C 0.94237 0.89717 0.14029 0.0
C296 C 0.98944 0.88611 0.11423 0.0
C297 C 0.9548 0.91022 0.1744 0.0
C298 C 0.98439 0.91128 0.17848 0.0
C299 C 0.03173 0.90014 0.15198 0.0
C300 C 0.04886 0.88801 0.12148 0.0
C301 C 0.00196 0.89928 0.14851 0.0
C302 C 0.03593 0.87499 0.08771 0.0
C303 C 0.00658 0.87404 0.08412 0.0
H304 H 0.33844 0.70557 0.43539 0.0
H305 H 0.36197 0.6993 0.30864 0.0
H306 H 0.35895 0.75045 0.30167 0.0
H307 H 0.35168 0.79703 0.3317 0.0
H308 H 0.3286 0.80462 0.45828 0.0
H309 H 0.32912 0.75294 0.4651 0.0
C310 C 0.34276 0.71545 0.40626 0.0
C311 C 0.3506 0.69864 0.37269 0.0
C312 C 0.34109 0.74509 0.40239 0.0
C313 C 0.35605 0.71171 0.33507 0.0
C314 C 0.35432 0.741 0.33098 0.0
C315 C 0.34658 0.78741 0.36076 0.0
C316 C 0.34024 0.80459 0.39446 0.0
C317 C 0.34716 0.75789 0.36448 0.0
C318 C 0.33355 0.79181 0.43185 0.0
C319 C 0.33394 0.76228 0.43579 0.0
H320 H 0.55159 0.08758 0.66927 0.0
H321 H 0.5512 0.13428 0.55619 0.0
H322 H 0.49983 0.13682 0.55757 0.0
H323 H 0.45503 0.12548 0.5896 0.0
H324 H 0.45355 0.07871 0.70232 0.0
H325 H 0.50555 0.07648 0.70239 0.0
C326 C 0.54019 0.09835 0.64508 0.0
C327 C 0.55525 0.11065 0.61264 0.0
C328 C 0.51034 0.09967 0.64588 0.0
C329 C 0.5402 0.12453 0.58146 0.0
C330 C 0.51077 0.12603 0.58217 0.0
C331 C 0.46601 0.11478 0.61427 0.0
C332 C 0.45048 0.10223 0.64584 0.0
C333 C 0.49565 0.11359 0.61404 0.0
C334 C 0.46507 0.08852 0.67761 0.0
C335 C 0.49478 0.08725 0.67764 0.0
H336 H 0.84345 0.19954 0.92542 0.0
H337 H 0.85131 0.1949 0.79452 0.0
H338 H 0.85011 0.24625 0.79004 0.0
H339 H 0.84861 0.2923 0.82278 0.0
H340 H 0.84139 0.29855 0.95344 0.0
H341 H 0.8404 0.24672 0.95856 0.0
C342 C 0.84474 0.20984 0.89598 0.0
C343 C 0.84761 0.19343 0.86038 0.0
C344 C 0.84423 0.23959 0.89356 0.0
C345 C 0.84925 0.20701 0.8224 0.0
C346 C 0.84856 0.2364 0.81976 0.0
C347 C 0.84672 0.2824 0.85246 0.0
C348 C 0.84522 0.2992 0.8877 0.0
C349 C 0.84635 0.25285 0.85509 0.0
C350 C 0.84262 0.28602 0.92586 0.0
C351 C 0.8421 0.25642 0.92877 0.0
H352 H 0.63972 0.69654 0.31407 0.0
H353 H 0.65358 0.68857 0.4435 0.0
H354 H 0.65281 0.74028 0.45054 0.0
H355 H 0.6468 0.78782 0.41955 0.0
H356 H 0.63249 0.79425 0.28986 0.0
H357 H 0.63487 0.74304 0.28336 0.0
C358 C 0.64267 0.70606 0.34388 0.0
C359 C 0.64661 0.68879 0.37823 0.0
C360 C 0.64204 0.73555 0.34764 0.0
C361 C 0.65049 0.70146 0.41658 0.0
C362 C 0.65 0.731 0.4206 0.0
C363 C 0.64431 0.77795 0.38992 0.0
C364 C 0.63937 0.79482 0.35528 0.0
C365 C 0.64558 0.74827 0.38632 0.0
C366 C 0.63619 0.78178 0.31705 0.0
C367 C 0.63756 0.75247 0.31324 0.0
H368 H 0.85752 0.70462 0.1661 0.0
H369 H 0.8482 0.69684 0.03583 0.0
H370 H 0.84458 0.74848 0.02975 0.0
H371 H 0.84587 0.79602 0.06181 0.0
H372 H 0.85536 0.80239 0.1924 0.0
H373 H 0.857 0.75109 0.19795 0.0
C374 C 0.85463 0.71417 0.13632 0.0
C375 C 0.85331 0.697 0.10144 0.0
C376 C 0.85263 0.74364 0.13314 0.0
C377 C 0.84933 0.70967 0.06314 0.0
C378 C 0.8473 0.73917 0.05967 0.0
C379 C 0.84812 0.78611 0.09144 0.0
C380 C 0.85063 0.803 0.1266 0.0
C381 C 0.84918 0.7564 0.09448 0.0
C382 C 0.8535 0.78991 0.16482 0.0
C383 C 0.85446 0.76055 0.16808 0.0
H384 H 0.65438 0.29385 0.55403 0.0
H385 H 0.65061 0.29741 0.68538 0.0
H386 H 0.65426 0.24615 0.68912 0.0
H387 H 0.65519 0.20029 0.65558 0.0
H388 H 0.65796 0.19522 0.52447 0.0
H389 H 0.65834 0.24705 0.52011 0.0
C390 C 0.65465 0.28335 0.58339 0.0
C391 C 0.65194 0.29938 0.61933 0.0
C392 C 0.65645 0.25363 0.58541 0.0
C393 C 0.65237 0.28555 0.65722 0.0
C394 C 0.65448 0.25622 0.65946 0.0
C395 C 0.6561 0.21049 0.62601 0.0
C396 C 0.6563 0.19402 0.59042 0.0
C397 C 0.65598 0.24006 0.62379 0.0
C398 C 0.65773 0.20751 0.55234 0.0
C399 C 0.65784 0.23712 0.54985 0.0
H400 H 0.03881 0.39672 0.81278 0.0
H401 H 0.04673 0.37099 0.93856 0.0
H402 H 0.99549 0.36932 0.94496 0.0
H403 H 0.94862 0.37549 0.91579 0.0
H404 H 0.93901 0.40119 0.79045 0.0
H405 H 0.99074 0.40252 0.78287 0.0
C406 C 0.02925 0.39073 0.8415 0.0
C407 C 0.04658 0.38405 0.87514 0.0
C408 C -0.00047 0.38982 0.8451 0.0
C409 C 0.03393 0.3763 0.91219 0.0
C410 C 0.0046 0.37532 0.91594 0.0
C411 C 0.95777 0.38138 0.88673 0.0
C412 C 0.94006 0.38829 0.85376 0.0
C413 C 0.98725 0.3821 0.88271 0.0
C414 C 0.95226 0.39579 0.81631 0.0
C415 C 0.9818 0.39656 0.812 0.0
H416 H 0.5485 0.61417 0.40893 0.0
H417 H 0.55259 0.58326 0.28543 0.0
H418 H 0.50053 0.58305 0.28173 0.0
H419 H 0.45368 0.59198 0.31445 0.0
H420 H 0.45186 0.62349 0.43804 0.0
H421 H 0.50321 0.62308 0.44073 0.0
C422 C 0.53811 0.60732 0.3811 0.0
C423 C 0.55437 0.59869 0.34753 0.0
C424 C 0.50851 0.60737 0.37924 0.0
C425 C 0.5405 0.59001 0.31172 0.0
C426 C 0.51076 0.58988 0.30964 0.0
C427 C 0.4646 0.59869 0.34189 0.0
C428 C 0.44889 0.60773 0.37599 0.0
C429 C 0.4945 0.59855 0.3433 0.0
C430 C 0.46333 0.61645 0.41133 0.0
C431 C 0.49277 0.61623 0.41298 0.0
H432 H 0.54229 0.40337 0.67817 0.0
H433 H 0.54799 0.36101 0.56179 0.0
H434 H 0.49666 0.35953 0.55678 0.0
H435 H 0.45026 0.37083 0.58416 0.0
H436 H 0.44294 0.41319 0.70011 0.0
H437 H 0.49475 0.41412 0.70659 0.0
C438 C 0.53222 0.39375 0.65186 0.0
C439 C 0.54895 0.38241 0.62037 0.0
C440 C 0.50244 0.39304 0.64898 0.0
C441 C 0.53565 0.37 0.58642 0.0
C442 C 0.50626 0.36913 0.58346 0.0
C443 C 0.45994 0.38029 0.61091 0.0
C444 C 0.44285 0.39202 0.64152 0.0
C445 C 0.48949 0.38072 0.61436 0.0
C446 C 0.45572 0.40406 0.67607 0.0
C447 C 0.48531 0.40459 0.67977 0.0
H448 H 0.05094 0.61537 0.07685 0.0
H449 H 0.05941 0.59449 0.20415 0.0
H450 H 0.00758 0.59413 0.2111 0.0
H451 H 0.95958 0.59983 0.1801 0.0
H452 H 0.95328 0.62082 0.05228 0.0
H453 H 0.00446 0.62105 0.04659 0.0
C454 C 0.04154 0.61072 0.10621 0.0
C455 C 0.05898 0.60495 0.13991 0.0
C456 C 0.01202 0.61058 0.10988 0.0
C457 C 0.0464 0.59898 0.1777 0.0
C458 C 0.01678 0.59879 0.18166 0.0
C459 C 0.96949 0.60446 0.15111 0.0
C460 C 0.95254 0.6103 0.11671 0.0
C461 C -0.00068 0.60457 0.14786 0.0
C462 C 0.9657 0.61626 0.0793 0.0
C463 C 0.99505 0.6164 0.07592 0.0
H464 H 0.14702 0.55618 0.9923 0.0
H465 H 0.15858 0.507 0.10181 0.0
H466 H 0.1586 0.46336 0.06195 0.0
H467 H 0.15316 0.43895 -0.00369 0.0
H468 H 0.1394 0.48794 0.88715 0.0
H469 H 0.14249 0.53176 0.92639 0.0
C470 C 0.14977 0.53591 0.00732 0.0
C471 C 0.15275 0.53479 0.04987 0.0
C472 C 0.14924 0.51083 0.9843 0.0
C473 C 0.15613 0.50839 0.06904 0.0
C474 C 0.15614 0.48342 0.0463 0.0
C475 C 0.15106 0.45923 0.98113 0.0
C476 C 0.14602 0.46022 0.93898 0.0
C477 C 0.15238 0.48435 0.00397 0.0
C478 C 0.14318 0.48663 0.91966 0.0
C479 C 0.14495 0.51171 0.94205 0.0
H480 H 0.68432 0.90232 0.23618 0.0
H481 H 0.73187 0.89958 0.34858 0.0
H482 H 0.77611 0.90444 0.31104 0.0
H483 H 0.80158 0.90566 0.24598 0.0
H484 H 0.75426 0.906 0.13335 0.0
H485 H 0.70976 0.9062 0.17114 0.0
C486 C 0.70436 0.90312 0.2524 0.0
C487 C 0.70486 0.9004 0.29499 0.0
C488 C 0.72981 0.90537 0.23056 0.0
C489 C 0.73096 0.90141 0.31571 0.0
C490 C 0.75629 0.9042 0.29429 0.0
C491 C 0.78152 0.90619 0.22977 0.0
C492 C 0.78117 0.90568 0.18703 0.0
C493 C 0.75601 0.90563 0.25167 0.0
C494 C 0.75505 0.90623 0.16634 0.0
C495 C 0.72959 0.90629 0.1879 0.0
H496 H 0.34751 0.48718 0.58545 0.0
H497 H 0.34597 0.4258 0.48799 0.0
H498 H 0.3466 0.46393 0.43772 0.0
H499 H 0.34966 0.51451 0.42158 0.0
H500 H 0.35038 0.57605 0.51879 0.0
H501 H 0.34788 0.53798 0.56918 0.0
C502 C 0.34715 0.48216 0.55319 0.0
C503 C 0.34687 0.45373 0.54041 0.0
C504 C 0.34747 0.50418 0.52451 0.0
C505 C 0.3462 0.44753 0.49857 0.0
C506 C 0.34664 0.46931 0.46983 0.0
C507 C 0.34917 0.5196 0.4538 0.0
C508 C 0.35042 0.548 0.46652 0.0
C509 C 0.34761 0.49767 0.48247 0.0
C510 C 0.34948 0.55432 0.5083 0.0
C511 C 0.34811 0.53258 0.53709 0.0
H512 H 0.68939 0.09259 0.73232 0.0
H513 H 0.74175 0.08557 0.62521 0.0
H514 H 0.78411 0.08232 0.66774 0.0
H515 H 0.80664 0.08522 0.73512 0.0
H516 H 0.75447 0.09399 0.84215 0.0
H517 H 0.71179 0.09256 0.80004 0.0
C518 C 0.71005 0.09 0.71836 0.0
C519 C 0.71245 0.08951 0.67573 0.0
C520 C 0.73441 0.08862 0.74299 0.0
C521 C 0.73935 0.08618 0.65801 0.0
C522 C 0.76361 0.08435 0.68229 0.0
C523 C 0.78592 0.08646 0.74923 0.0
C524 C 0.78372 0.08989 0.7916 0.0
C525 C 0.76145 0.08611 0.72477 0.0
C526 C 0.75673 0.0915 0.80951 0.0
C527 C 0.73229 0.09073 0.78546 0.0
H528 H 0.85286 0.43909 0.00086 0.0
H529 H 0.84365 0.48668 0.88943 0.0
H530 H 0.84454 0.53094 0.92767 0.0
H531 H 0.84977 0.55626 0.99242 0.0
H532 H 0.86072 0.50893 0.10375 0.0
H533 H 0.85728 0.46452 0.06599 0.0
C534 C 0.85083 0.45916 0.98507 0.0
C535 C 0.84824 0.45965 0.94248 0.0
C536 C 0.85181 0.48459 0.00718 0.0
C537 C 0.84578 0.48577 0.92227 0.0
C538 C 0.84629 0.5111 0.94407 0.0
C539 C 0.85126 0.53621 0.0084 0.0
C540 C 0.85555 0.53584 0.0507 0.0
C541 C 0.84961 0.51078 0.98648 0.0
C542 C 0.85753 0.50975 0.07108 0.0
C543 C 0.85554 0.48434 0.04955 0.0
H544 H 0.2344 0.08703 0.83767 0.0
H545 H 0.17456 0.08798 0.73804 0.0
H546 H 0.21358 0.08672 0.68916 0.0
H547 H 0.26464 0.08952 0.67502 0.0
H548 H 0.32441 0.08839 0.77475 0.0
H549 H 0.28541 0.08533 0.82343 0.0
C550 C 0.2299 0.08665 0.80525 0.0
C551 C 0.20168 0.0879 0.79143 0.0
C552 C 0.2524 0.08608 0.77742 0.0
C553 C 0.19612 0.08708 0.7494 0.0
C554 C 0.21842 0.0865 0.72146 0.0
C555 C 0.26912 0.08833 0.70741 0.0
C556 C 0.29731 0.08951 0.72135 0.0
C557 C 0.24662 0.08665 0.73516 0.0
C558 C 0.30287 0.08763 0.76331 0.0
C559 C 0.28059 0.08597 0.79114 0.0
H560 H 0.64545 0.55188 0.4903 0.0
H561 H 0.65241 0.50083 0.38173 0.0
H562 H 0.65239 0.45777 0.42292 0.0
H563 H 0.64862 0.43458 0.48978 0.0
H564 H 0.63966 0.48591 0.59784 0.0
H565 H 0.64227 0.52885 0.55692 0.0
C566 C 0.64718 0.53134 0.47572 0.0
C567 C 0.64893 0.52949 0.43315 0.0
C568 C 0.64666 0.5067 0.49948 0.0
C569 C 0.65097 0.50275 0.41455 0.0
C570 C 0.65095 0.47813 0.43804 0.0
C571 C 0.64739 0.45518 0.5043 0.0
C572 C 0.6439 0.45709 0.54666 0.0
C573 C 0.64852 0.47984 0.48052 0.0
C574 C 0.64222 0.48389 0.56518 0.0
C575 C 0.64375 0.50847 0.54185 0.0
H576 H 0.25459 0.90902 0.33687 0.0
H577 H 0.31922 0.90766 0.24413 0.0
H578 H 0.2828 0.90902 0.19108 0.0
H579 H 0.23265 0.90682 0.1712 0.0
H580 H 0.16797 0.90825 0.26384 0.0
H581 H 0.20438 0.91092 0.31685 0.0
C582 C 0.2607 0.9093 0.30504 0.0
C583 C 0.28952 0.90795 0.2944 0.0
C584 C 0.23966 0.90997 0.27474 0.0
C585 C 0.29716 0.90859 0.25308 0.0
C586 C 0.27635 0.90928 0.22274 0.0
C587 C 0.22652 0.908 0.20299 0.0
C588 C 0.19769 0.90706 0.21365 0.0
C589 C 0.24754 0.90939 0.23324 0.0
C590 C 0.19003 0.90887 0.25489 0.0
C591 C 0.21084 0.91029 0.2852 0.0
H592 H 0.64326 0.00843 0.56435 0.0
H593 H 0.65183 0.06777 0.46524 0.0
H594 H 0.65068 0.02885 0.41622 0.0
H595 H 0.64561 0.97836 0.40152 0.0
H596 H 0.63796 0.91864 0.50023 0.0
H597 H 0.64052 0.95743 0.54967 0.0
C598 C 0.64497 0.01281 0.53202 0.0
C599 C 0.64744 0.04089 0.51834 0.0
C600 C 0.64442 0.99034 0.50407 0.0
C601 C 0.64988 0.0463 0.47645 0.0
C602 C 0.64917 0.02409 0.44843 0.0
C603 C 0.64457 0.97381 0.43387 0.0
C604 C 0.64139 0.94577 0.44731 0.0
C605 C 0.64618 0.9961 0.46191 0.0
C606 C 0.64038 0.94011 0.48925 0.0
C607 C 0.64178 0.96225 0.51745 0.0
H608 H 0.25641 0.39771 0.66352 0.0
H609 H 0.3176 0.40937 0.76005 0.0
H610 H 0.27951 0.4109 0.81018 0.0
H611 H 0.22931 0.40582 0.82697 0.0
H612 H 0.16783 0.39402 0.73094 0.0
H613 H 0.2056 0.39586 0.68004 0.0
C614 C 0.26137 0.40083 0.69549 0.0
C615 C 0.28977 0.40319 0.70815 0.0
C616 C 0.23937 0.40153 0.72417 0.0
C617 C 0.2959 0.4074 0.7496 0.0
C618 C 0.27415 0.40821 0.77827 0.0
C619 C 0.22414 0.40384 0.79487 0.0
C620 C 0.19591 0.39952 0.78268 0.0
C621 C 0.24589 0.4048 0.76596 0.0
C622 C 0.18945 0.39728 0.74102 0.0
C623 C 0.21103 0.39826 0.71196 0.0
H624 H 0.84802 0.00943 0.90941 0.0
H625 H 0.84615 0.07361 0.00304 0.0
H626 H 0.84551 0.03694 0.05557 0.0
H627 H 0.84718 0.98677 0.07472 0.0
H628 H 0.84845 0.92258 0.9811 0.0
H629 H 0.84753 0.95923 0.92854 0.0
C630 C 0.84736 0.01539 0.94132 0.0
C631 C 0.8473 0.04415 0.95241 0.0
C632 C 0.84695 0.99424 0.97125 0.0
C633 C 0.84624 0.05159 0.9938 0.0
C634 C 0.84593 0.03065 0.02381 0.0
C635 C 0.84716 0.98081 0.0428 0.0
C636 C 0.84806 0.95206 0.03174 0.0
C637 C 0.84655 0.00194 0.01286 0.0
C638 C 0.8478 0.9446 0.99032 0.0
C639 C 0.84732 0.96552 0.9603 0.0
H640 H 0.19626 0.59179 0.24913 0.0
H641 H 0.24753 0.59888 0.14101 0.0
H642 H 0.29059 0.59663 0.1823 0.0
H643 H 0.31365 0.59597 0.24966 0.0
H644 H 0.26208 0.59077 0.35772 0.0
H645 H 0.21929 0.58863 0.316 0.0
C646 C 0.21686 0.59261 0.23461 0.0
C647 C 0.21871 0.59569 0.19218 0.0
C648 C 0.24152 0.59168 0.25856 0.0
C649 C 0.24554 0.59667 0.17372 0.0
C650 C 0.27019 0.59539 0.19729 0.0
C651 C 0.29306 0.59396 0.26396 0.0
C652 C 0.29099 0.59365 0.30662 0.0
C653 C 0.26844 0.59335 0.2398 0.0
C654 C 0.26419 0.59121 0.32487 0.0
C655 C 0.2397 0.59003 0.30107 0.0
H656 H 0.3427 0.01366 0.5917 0.0
H657 H 0.35306 0.07711 0.49854 0.0
H658 H 0.34962 0.04063 0.44574 0.0
H659 H 0.34622 0.99034 0.42648 0.0
H660 H 0.33473 0.92725 0.51996 0.0
H661 H 0.33583 0.96402 0.57228 0.0
C662 C 0.34406 0.01951 0.55981 0.0
C663 C 0.34839 0.04793 0.54896 0.0
C664 C 0.3419 -0.00149 0.52976 0.0
C665 C 0.34977 0.05532 0.50759 0.0
C666 C 0.34788 0.03448 0.47743 0.0
C667 C 0.34374 0.9847 0.45829 0.0
C668 C 0.34062 0.95613 0.4694 0.0
C669 C 0.34432 0.00596 0.48821 0.0
C670 C 0.33719 0.9491 0.51066 0.0
C671 C 0.33791 0.97009 0.5406 0.0
H672 H 0.81302 0.59884 0.24476 0.0
H673 H 0.76493 0.59703 0.13274 0.0
H674 H 0.72094 0.59334 0.17094 0.0
H675 H 0.69575 0.59287 0.23614 0.0
H676 H 0.74344 0.59587 0.34838 0.0
H677 H 0.78777 0.59666 0.31026 0.0
C678 C 0.79291 0.59744 0.2288 0.0
C679 C 0.79225 0.59835 0.18605 0.0
C680 C 0.76754 0.5956 0.25098 0.0
C681 C 0.76604 0.59654 0.1657 0.0
C682 C 0.74082 0.59441 0.18749 0.0
C683 C 0.71586 0.59347 0.25222 0.0
C684 C 0.71631 0.59441 0.29493 0.0
C685 C 0.74127 0.59427 0.23013 0.0
C686 C 0.74252 0.59523 0.31541 0.0
C687 C 0.7679 0.59571 0.29367 0.0
H688 H 0.14932 0.98497 0.08223 0.0
H689 H 0.15169 0.92202 0.98698 0.0
H690 H 0.15274 0.95937 0.93541 0.0
H691 H 0.15027 0.00983 0.91749 0.0
H692 H 0.14918 0.07279 0.01277 0.0
H693 H 0.15053 0.03548 0.06438 0.0
C694 C 0.15027 0.97944 0.05018 0.0
C695 C 0.15019 0.95082 0.03835 0.0
C696 C 0.151 0.00099 0.0208 0.0
C697 C 0.15172 0.94392 -0.00321 0.0
C698 C 0.15222 0.96525 0.96733 0.0
C699 C 0.15051 0.01537 0.94957 0.0
C700 C 0.14937 0.04398 0.96138 0.0
C701 C 0.15144 0.99384 0.97898 0.0
C702 C 0.15001 0.0509 0.00297 0.0
C703 C 0.1507 0.02959 0.03246 0.0
H704 H 0.6843 0.39722 0.74985 0.0
H705 H 0.73455 0.40885 0.64153 0.0
H706 H 0.77765 0.41056 0.68255 0.0
H707 H 0.80142 0.40513 0.74846 0.0
H708 H 0.75157 0.39199 0.85678 0.0
H709 H 0.70802 0.39459 0.81659 0.0
C710 C 0.70466 0.40053 0.73538 0.0
C711 C 0.7063 0.40273 0.69281 0.0
C712 C 0.72947 0.40095 0.75907 0.0
C713 C 0.73279 0.40691 0.67431 0.0
C714 C 0.75746 0.40784 0.6977 0.0
C715 C 0.78102 0.40306 0.76329 0.0
C716 C 0.7797 0.39814 0.80538 0.0
C717 C 0.75611 0.40427 0.73998 0.0
C718 C 0.75313 0.39561 0.82429 0.0
C719 C 0.72821 0.3971 0.80136 0.0
loop_
_geom_bond_atom_site_label_1
_geom_bond_atom_site_label_2
_geom_bond_distance
_geom_bond_site_symmetry_2
_ccdc_geom_bond_type
In0 O1 2.294 . S
In0 O2 2.326 . S
In0 O6 2.266 . S
In0 O7 2.326 . S
In0 O8 2.266 . S
In0 O9 2.326 . S
In0 O11 2.294 . S
In0 O12 2.326 . S
O1 In0 2.294 . S
O1 C10 1.240 . S
O2 In0 2.326 . S
O2 C10 1.252 . S
C3 O6 1.252 . S
C3 O7 1.260 . S
C4 O11 1.240 . S
C4 O12 1.252 . S
C5 O8 1.252 . S
C5 O9 1.260 . S
O6 In0 2.266 . S
O6 C3 1.252 . S
O7 In0 2.326 . S
O7 C3 1.260 . S
O8 In0 2.266 . S
O8 C5 1.252 . S
O9 In0 2.326 . S
O9 C5 1.260 . S
C10 O1 1.240 . S
C10 O2 1.252 . S
O11 In0 2.294 . S
O11 C4 1.240 . S
O12 In0 2.326 . S
O12 C4 1.252 . S
In13 O14 2.294 . S
In13 O15 2.326 . S
In13 O19 2.266 . S
In13 O20 2.326 . S
In13 O21 2.266 . S
In13 O22 2.326 . S
In13 O24 2.294 . S
In13 O25 2.326 . S
O14 In13 2.294 . S
O14 C23 1.240 . S
O15 In13 2.326 . S
O15 C23 1.252 . S
C16 O19 1.252 . S
C16 O20 1.260 . S
C17 O24 1.240 . S
C17 O25 1.252 . S
C18 O21 1.252 . S
C18 O22 1.260 . S
O19 In13 2.266 . S
O19 C16 1.252 . S
O20 In13 2.326 . S
O20 C16 1.260 . S
O21 In13 2.266 . S
O21 C18 1.252 . S
O22 In13 2.326 . S
O22 C18 1.260 . S
C23 O14 1.240 . S
C23 O15 1.252 . S
O24 In13 2.294 . S
O24 C17 1.240 . S
O25 In13 2.326 . S
O25 C17 1.252 . S
In26 O27 2.294 . S
In26 O28 2.326 . S
In26 O32 2.266 . S
In26 O33 2.326 . S
In26 O34 2.266 . S
In26 O35 2.326 . S
In26 O37 2.294 . S
In26 O38 2.326 . S
O27 In26 2.294 . S
O27 C36 1.240 . S
O28 In26 2.326 . S
O28 C36 1.252 . S
C29 O32 1.252 . S
C29 O33 1.260 . S
C30 O37 1.240 . S
C30 O38 1.252 . S
C31 O34 1.252 . S
C31 O35 1.260 . S
O32 In26 2.266 . S
O32 C29 1.252 . S
O33 In26 2.326 . S
O33 C29 1.260 . S
O34 In26 2.266 . S
O34 C31 1.252 . S
O35 In26 2.326 . S
O35 C31 1.260 . S
C36 O27 1.240 . S
C36 O28 1.252 . S
O37 In26 2.294 . S
O37 C30 1.240 . S
O38 In26 2.326 . S
O38 C30 1.252 . S
In39 O40 2.294 . S
In39 O41 2.326 . S
In39 O45 2.266 . S
In39 O46 2.326 . S
In39 O47 2.266 . S
In39 O48 2.326 . S
In39 O50 2.294 . S
In39 O51 2.326 . S
O40 In39 2.294 . S
O40 C49 1.240 . S
O41 In39 2.326 . S
O41 C49 1.252 . S
C42 O45 1.252 . S
C42 O46 1.260 . S
C43 O50 1.240 . S
C43 O51 1.252 . S
C44 O47 1.252 . S
C44 O48 1.260 . S
O45 In39 2.266 . S
O45 C42 1.252 . S
O46 In39 2.326 . S
O46 C42 1.260 . S
O47 In39 2.266 . S
O47 C44 1.252 . S
O48 In39 2.326 . S
O48 C44 1.260 . S
C49 O40 1.240 . S
C49 O41 1.252 . S
O50 In39 2.294 . S
O50 C43 1.240 . S
O51 In39 2.326 . S
O51 C43 1.252 . S
In52 O53 2.294 . S
In52 O54 2.326 . S
In52 O58 2.266 . S
In52 O59 2.326 . S
In52 O60 2.266 . S
In52 O61 2.326 . S
In52 O63 2.294 . S
In52 O64 2.326 . S
O53 In52 2.294 . S
O53 C62 1.240 . S
O54 In52 2.326 . S
O54 C62 1.252 . S
C55 O58 1.252 . S
C55 O59 1.260 . S
C56 O63 1.240 . S
C56 O64 1.252 . S
C57 O60 1.252 . S
C57 O61 1.260 . S
O58 In52 2.266 . S
O58 C55 1.252 . S
O59 In52 2.326 . S
O59 C55 1.260 . S
O60 In52 2.266 . S
O60 C57 1.252 . S
O61 In52 2.326 . S
O61 C57 1.260 . S
C62 O53 1.240 . S
C62 O54 1.252 . S
O63 In52 2.294 . S
O63 C56 1.240 . S
O64 In52 2.326 . S
O64 C56 1.252 . S
In65 O66 2.294 . S
In65 O67 2.326 . S
In65 O71 2.266 . S
In65 O72 2.326 . S
In65 O73 2.266 . S
In65 O74 2.326 . S
In65 O76 2.294 . S
In65 O77 2.326 . S
O66 In65 2.294 . S
O66 C75 1.240 . S
O67 In65 2.326 . S
O67 C75 1.252 . S
C68 O71 1.252 . S
C68 O72 1.260 . S
C69 O76 1.240 . S
C69 O77 1.252 . S
C70 O73 1.252 . S
C70 O74 1.260 . S
O71 In65 2.266 . S
O71 C68 1.252 . S
O72 In65 2.326 . S
O72 C68 1.260 . S
O73 In65 2.266 . S
O73 C70 1.252 . S
O74 In65 2.326 . S
O74 C70 1.260 . S
C75 O66 1.240 . S
C75 O67 1.252 . S
O76 In65 2.294 . S
O76 C69 1.240 . S
O77 In65 2.326 . S
O77 C69 1.252 . S
In78 O79 2.294 . S
In78 O80 2.326 . S
In78 O84 2.266 . S
In78 O85 2.326 . S
In78 O86 2.266 . S
In78 O87 2.326 . S
In78 O89 2.294 . S
In78 O90 2.326 . S
O79 In78 2.294 . S
O79 C88 1.240 . S
O80 In78 2.326 . S
O80 C88 1.252 . S
C81 O84 1.252 . S
C81 O85 1.260 . S
C82 O89 1.240 . S
C82 O90 1.252 . S
C83 O86 1.252 . S
C83 O87 1.260 . S
O84 In78 2.266 . S
O84 C81 1.252 . S
O85 In78 2.326 . S
O85 C81 1.260 . S
O86 In78 2.266 . S
O86 C83 1.252 . S
O87 In78 2.326 . S
O87 C83 1.260 . S
C88 O79 1.240 . S
C88 O80 1.252 . S
O89 In78 2.294 . S
O89 C82 1.240 . S
O90 In78 2.326 . S
O90 C82 1.252 . S
In91 O92 2.294 . S
In91 O93 2.326 . S
In91 O97 2.266 . S
In91 O98 2.326 . S
In91 O99 2.266 . S
In91 O100 2.326 . S
In91 O102 2.294 . S
In91 O103 2.326 . S
O92 In91 2.294 . S
O92 C101 1.240 . S
O93 In91 2.326 . S
O93 C101 1.252 . S
C94 O97 1.252 . S
C94 O98 1.260 . S
C95 O102 1.240 . S
C95 O103 1.252 . S
C96 O99 1.252 . S
C96 O100 1.260 . S
O97 In91 2.266 . S
O97 C94 1.252 . S
O98 In91 2.326 . S
O98 C94 1.260 . S
O99 In91 2.266 . S
O99 C96 1.252 . S
O100 In91 2.326 . S
O100 C96 1.260 . S
C101 O92 1.240 . S
C101 O93 1.252 . S
O102 In91 2.294 . S
O102 C95 1.240 . S
O103 In91 2.326 . S
O103 C95 1.252 . S
In104 O105 2.294 . S
In104 O106 2.326 . S
In104 O110 2.266 . S
In104 O111 2.326 . S
In104 O112 2.266 . S
In104 O113 2.326 . S
In104 O115 2.294 . S
In104 O116 2.326 . S
O105 In104 2.294 . S
O105 C114 1.240 . S
O106 In104 2.326 . S
O106 C114 1.252 . S
C107 O110 1.252 . S
C107 O111 1.260 . S
C108 O115 1.240 . S
C108 O116 1.252 . S
C109 O112 1.252 . S
C109 O113 1.260 . S
O110 In104 2.266 . S
O110 C107 1.252 . S
O111 In104 2.326 . S
O111 C107 1.260 . S
O112 In104 2.266 . S
O112 C109 1.252 . S
O113 In104 2.326 . S
O113 C109 1.260 . S
C114 O105 1.240 . S
C114 O106 1.252 . S
O115 In104 2.294 . S
O115 C108 1.240 . S
O116 In104 2.326 . S
O116 C108 1.252 . S
In117 O118 2.294 . S
In117 O119 2.326 . S
In117 O123 2.266 . S
In117 O124 2.326 . S
In117 O125 2.266 . S
In117 O126 2.326 . S
In117 O128 2.294 . S
In117 O129 2.326 . S
O118 In117 2.294 . S
O118 C127 1.240 . S
O119 In117 2.326 . S
O119 C127 1.252 . S
C120 O123 1.252 . S
C120 O124 1.260 . S
C121 O128 1.240 . S
C121 O129 1.252 . S
C122 O125 1.252 . S
C122 O126 1.260 . S
O123 In117 2.266 . S
O123 C120 1.252 . S
O124 In117 2.326 . S
O124 C120 1.260 . S
O125 In117 2.266 . S
O125 C122 1.252 . S
O126 In117 2.326 . S
O126 C122 1.260 . S
C127 O118 1.240 . S
C127 O119 1.252 . S
O128 In117 2.294 . S
O128 C121 1.240 . S
O129 In117 2.326 . S
O129 C121 1.252 . S
In130 O131 2.294 . S
In130 O132 2.326 . S
In130 O136 2.266 . S
In130 O137 2.326 . S
In130 O138 2.266 . S
In130 O139 2.326 . S
In130 O141 2.294 . S
In130 O142 2.326 . S
O131 In130 2.294 . S
O131 C140 1.240 . S
O132 In130 2.326 . S
O132 C140 1.252 . S
C133 O136 1.252 . S
C133 O137 1.260 . S
C134 O141 1.240 . S
C134 O142 1.252 . S
C135 O138 1.252 . S
C135 O139 1.260 . S
O136 In130 2.266 . S
O136 C133 1.252 . S
O137 In130 2.326 . S
O137 C133 1.260 . S
O138 In130 2.266 . S
O138 C135 1.252 . S
O139 In130 2.326 . S
O139 C135 1.260 . S
C140 O131 1.240 . S
C140 O132 1.252 . S
O141 In130 2.294 . S
O141 C134 1.240 . S
O142 In130 2.326 . S
O142 C134 1.252 . S
In143 O144 2.294 . S
In143 O145 2.326 . S
In143 O149 2.266 . S
In143 O150 2.326 . S
In143 O151 2.266 . S
In143 O152 2.326 . S
In143 O154 2.294 . S
In143 O155 2.326 . S
O144 In143 2.294 . S
O144 C153 1.240 . S
O145 In143 2.326 . S
O145 C153 1.252 . S
C146 O149 1.252 . S
C146 O150 1.260 . S
C147 O154 1.240 . S
C147 O155 1.252 . S
C148 O151 1.252 . S
C148 O152 1.260 . S
O149 In143 2.266 . S
O149 C146 1.252 . S
O150 In143 2.326 . S
O150 C146 1.260 . S
O151 In143 2.266 . S
O151 C148 1.252 . S
O152 In143 2.326 . S
O152 C148 1.260 . S
C153 O144 1.240 . S
C153 O145 1.252 . S
O154 In143 2.294 . S
O154 C147 1.240 . S
O155 In143 2.326 . S
O155 C147 1.252 . S
In156 O157 2.294 . S
In156 O158 2.326 . S
In156 O162 2.266 . S
In156 O163 2.326 . S
In156 O164 2.266 . S
In156 O165 2.326 . S
In156 O167 2.294 . S
In156 O168 2.326 . S
O157 In156 2.294 . S
O157 C166 1.240 . S
O158 In156 2.326 . S
O158 C166 1.252 . S
C159 O162 1.252 . S
C159 O163 1.260 . S
C160 O167 1.240 . S
C160 O168 1.252 . S
C161 O164 1.252 . S
C161 O165 1.260 . S
O162 In156 2.266 . S
O162 C159 1.252 . S
O163 In156 2.326 . S
O163 C159 1.260 . S
O164 In156 2.266 . S
O164 C161 1.252 . S
O165 In156 2.326 . S
O165 C161 1.260 . S
C166 O157 1.240 . S
C166 O158 1.252 . S
O167 In156 2.294 . S
O167 C160 1.240 . S
O168 In156 2.326 . S
O168 C160 1.252 . S
In169 O170 2.294 . S
In169 O171 2.326 . S
In169 O175 2.266 . S
In169 O176 2.326 . S
In169 O177 2.266 . S
In169 O178 2.326 . S
In169 O180 2.294 . S
In169 O181 2.326 . S
O170 In169 2.294 . S
O170 C179 1.240 . S
O171 In169 2.326 . S
O171 C179 1.252 . S
C172 O175 1.252 . S
C172 O176 1.260 . S
C173 O180 1.240 . S
C173 O181 1.252 . S
C174 O177 1.252 . S
C174 O178 1.260 . S
O175 In169 2.266 . S
O175 C172 1.252 . S
O176 In169 2.326 . S
O176 C172 1.260 . S
O177 In169 2.266 . S
O177 C174 1.252 . S
O178 In169 2.326 . S
O178 C174 1.260 . S
C179 O170 1.240 . S
C179 O171 1.252 . S
O180 In169 2.294 . S
O180 C173 1.240 . S
O181 In169 2.326 . S
O181 C173 1.252 . S
In182 O183 2.294 . S
In182 O184 2.326 . S
In182 O188 2.266 . S
In182 O189 2.326 . S
In182 O190 2.266 . S
In182 O191 2.326 . S
In182 O193 2.294 . S
In182 O194 2.326 . S
O183 In182 2.294 . S
O183 C192 1.240 . S
O184 In182 2.326 . S
O184 C192 1.252 . S
C185 O188 1.252 . S
C185 O189 1.260 . S
C186 O193 1.240 . S
C186 O194 1.252 . S
C187 O190 1.252 . S
C187 O191 1.260 . S
O188 In182 2.266 . S
O188 C185 1.252 . S
O189 In182 2.326 . S
O189 C185 1.260 . S
O190 In182 2.266 . S
O190 C187 1.252 . S
O191 In182 2.326 . S
O191 C187 1.260 . S
C192 O183 1.240 . S
C192 O184 1.252 . S
O193 In182 2.294 . S
O193 C186 1.240 . S
O194 In182 2.326 . S
O194 C186 1.252 . S
In195 O196 2.294 . S
In195 O197 2.326 . S
In195 O201 2.266 . S
In195 O202 2.326 . S
In195 O203 2.266 . S
In195 O204 2.326 . S
In195 O206 2.294 . S
In195 O207 2.326 . S
O196 In195 2.294 . S
O196 C205 1.240 . S
O197 In195 2.326 . S
O197 C205 1.252 . S
C198 O201 1.252 . S
C198 O202 1.260 . S
C199 O206 1.240 . S
C199 O207 1.252 . S
C200 O203 1.252 . S
C200 O204 1.260 . S
O201 In195 2.266 . S
O201 C198 1.252 . S
O202 In195 2.326 . S
O202 C198 1.260 . S
O203 In195 2.266 . S
O203 C200 1.252 . S
O204 In195 2.326 . S
O204 C200 1.260 . S
C205 O196 1.240 . S
C205 O197 1.252 . S
O206 In195 2.294 . S
O206 C199 1.240 . S
O207 In195 2.326 . S
O207 C199 1.252 . S
H208 C214 0.930 . S
H209 C217 0.930 . S
H210 C218 0.930 . S
H211 C219 0.930 . S
H212 C222 0.930 . S
H213 C223 0.930 . S
C214 H208 0.930 . S
C214 C215 1.355 . S
C214 C216 1.415 . S
C215 C214 1.355 . S
C215 C217 1.419 . S
C216 C214 1.415 . S
C216 C221 1.425 . S
C216 C223 1.409 . S
C217 H209 0.930 . S
C217 C215 1.419 . S
C217 C218 1.362 . S
C218 H210 0.930 . S
C218 C217 1.362 . S
C218 C221 1.409 . S
C219 H211 0.930 . S
C219 C220 1.355 . S
C219 C221 1.415 . S
C220 C219 1.355 . S
C220 C222 1.419 . S
C221 C216 1.425 . S
C221 C218 1.409 . S
C221 C219 1.415 . S
C222 H212 0.930 . S
C222 C220 1.419 . S
C222 C223 1.362 . S
C223 H213 0.930 . S
C223 C216 1.409 . S
C223 C222 1.362 . S
H224 C230 0.930 . S
H225 C233 0.930 . S
H226 C234 0.930 . S
H227 C235 0.930 . S
H228 C238 0.930 . S
H229 C239 0.930 . S
C230 H224 0.930 . S
C230 C231 1.355 . S
C230 C232 1.415 . S
C231 C230 1.355 . S
C231 C233 1.419 . S
C232 C230 1.415 . S
C232 C237 1.425 . S
C232 C239 1.409 . S
C233 H225 0.930 . S
C233 C231 1.419 . S
C233 C234 1.362 . S
C234 H226 0.930 . S
C234 C233 1.362 . S
C234 C237 1.409 . S
C235 H227 0.930 . S
C235 C236 1.355 . S
C235 C237 1.415 . S
C236 C235 1.355 . S
C236 C238 1.419 . S
C237 C232 1.425 . S
C237 C234 1.409 . S
C237 C235 1.415 . S
C238 H228 0.930 . S
C238 C236 1.419 . S
C238 C239 1.362 . S
C239 H229 0.930 . S
C239 C232 1.409 . S
C239 C238 1.362 . S
H240 C246 0.930 . S
H241 C249 0.930 . S
H242 C250 0.930 . S
H243 C251 0.930 . S
H244 C254 0.930 . S
H245 C255 0.930 . S
C246 H240 0.930 . S
C246 C247 1.355 . S
C246 C248 1.415 . S
C247 C246 1.355 . S
C247 C249 1.419 . S
C248 C246 1.415 . S
C248 C253 1.425 . S
C248 C255 1.409 . S
C249 H241 0.930 . S
C249 C247 1.419 . S
C249 C250 1.362 . S
C250 H242 0.930 . S
C250 C249 1.362 . S
C250 C253 1.409 . S
C251 H243 0.930 . S
C251 C252 1.355 . S
C251 C253 1.415 . S
C252 C251 1.355 . S
C252 C254 1.419 . S
C253 C248 1.425 . S
C253 C250 1.409 . S
C253 C251 1.415 . S
C254 H244 0.930 . S
C254 C252 1.419 . S
C254 C255 1.362 . S
C255 H245 0.930 . S
C255 C248 1.409 . S
C255 C254 1.362 . S
H256 C262 0.930 . S
H257 C265 0.930 . S
H258 C266 0.930 . S
H259 C267 0.930 . S
H260 C270 0.930 . S
H261 C271 0.930 . S
C262 H256 0.930 . S
C262 C263 1.355 . S
C262 C264 1.415 . S
C263 C262 1.355 . S
C263 C265 1.419 . S
C264 C262 1.415 . S
C264 C269 1.425 1_455 S
C264 C271 1.409 1_455 S
C265 H257 0.930 . S
C265 C263 1.419 . S
C265 C266 1.362 . S
C266 H258 0.930 . S
C266 C265 1.362 . S
C266 C269 1.409 1_455 S
C267 H259 0.930 . S
C267 C268 1.355 . S
C267 C269 1.415 . S
C268 C267 1.355 . S
C268 C270 1.419 . S
C269 C264 1.425 1_655 S
C269 C266 1.409 1_655 S
C269 C267 1.415 . S
C270 H260 0.930 . S
C270 C268 1.419 . S
C270 C271 1.362 . S
C271 H261 0.930 . S
C271 C264 1.409 1_655 S
C271 C270 1.362 . S
H272 C278 0.930 . S
H273 C281 0.930 . S
H274 C282 0.930 . S
H275 C283 0.930 . S
H276 C286 0.930 . S
H277 C287 0.930 . S
C278 H272 0.930 . S
C278 C279 1.355 . S
C278 C280 1.415 . S
C279 C278 1.355 . S
C279 C281 1.419 . S
C280 C278 1.415 . S
C280 C285 1.425 . S
C280 C287 1.409 . S
C281 H273 0.930 . S
C281 C279 1.419 . S
C281 C282 1.362 . S
C282 H274 0.930 . S
C282 C281 1.362 . S
C282 C285 1.409 . S
C283 H275 0.930 . S
C283 C284 1.355 . S
C283 C285 1.415 . S
C284 C283 1.355 . S
C284 C286 1.419 . S
C285 C280 1.425 . S
C285 C282 1.409 . S
C285 C283 1.415 . S
C286 H276 0.930 . S
C286 C284 1.419 . S
C286 C287 1.362 . S
C287 H277 0.930 . S
C287 C280 1.409 . S
C287 C286 1.362 . S
H288 C294 0.930 . S
H289 C297 0.930 . S
H290 C298 0.930 . S
H291 C299 0.930 . S
H292 C302 0.930 . S
H293 C303 0.930 . S
C294 H288 0.930 . S
C294 C295 1.355 . S
C294 C296 1.415 . S
C295 C294 1.355 . S
C295 C297 1.419 . S
C296 C294 1.415 . S
C296 C301 1.425 1_655 S
C296 C303 1.409 1_655 S
C297 H289 0.930 . S
C297 C295 1.419 . S
C297 C298 1.362 . S
C298 H290 0.930 . S
C298 C297 1.362 . S
C298 C301 1.409 1_655 S
C299 H291 0.930 . S
C299 C300 1.355 . S
C299 C301 1.415 . S
C300 C299 1.355 . S
C300 C302 1.419 . S
C301 C296 1.425 1_455 S
C301 C298 1.409 1_455 S
C301 C299 1.415 . S
C302 H292 0.930 . S
C302 C300 1.419 . S
C302 C303 1.362 . S
C303 H293 0.930 . S
C303 C296 1.409 1_455 S
C303 C302 1.362 . S
H304 C310 0.930 . S
H305 C313 0.930 . S
H306 C314 0.930 . S
H307 C315 0.930 . S
H308 C318 0.930 . S
H309 C319 0.930 . S
C310 H304 0.930 . S
C310 C311 1.355 . S
C310 C312 1.415 . S
C311 C310 1.355 . S
C311 C313 1.419 . S
C312 C310 1.415 . S
C312 C317 1.425 . S
C312 C319 1.409 . S
C313 H305 0.930 . S
C313 C311 1.419 . S
C313 C314 1.362 . S
C314 H306 0.930 . S
C314 C313 1.362 . S
C314 C317 1.409 . S
C315 H307 0.930 . S
C315 C316 1.355 . S
C315 C317 1.415 . S
C316 C315 1.355 . S
C316 C318 1.419 . S
C317 C312 1.425 . S
C317 C314 1.409 . S
C317 C315 1.415 . S
C318 H308 0.930 . S
C318 C316 1.419 . S
C318 C319 1.362 . S
C319 H309 0.930 . S
C319 C312 1.409 . S
C319 C318 1.362 . S
H320 C326 0.930 . S
H321 C329 0.930 . S
H322 C330 0.930 . S
H323 C331 0.930 . S
H324 C334 0.930 . S
H325 C335 0.930 . S
C326 H320 0.930 . S
C326 C327 1.355 . S
C326 C328 1.415 . S
C327 C326 1.355 . S
C327 C329 1.419 . S
C328 C326 1.415 . S
C328 C333 1.425 . S
C328 C335 1.409 . S
C329 H321 0.930 . S
C329 C327 1.419 . S
C329 C330 1.362 . S
C330 H322 0.930 . S
C330 C329 1.362 . S
C330 C333 1.409 . S
C331 H323 0.930 . S
C331 C332 1.355 . S
C331 C333 1.415 . S
C332 C331 1.355 . S
C332 C334 1.419 . S
C333 C328 1.425 . S
C333 C330 1.409 . S
C333 C331 1.415 . S
C334 H324 0.930 . S
C334 C332 1.419 . S
C334 C335 1.362 . S
C335 H325 0.930 . S
C335 C328 1.409 . S
C335 C334 1.362 . S
H336 C342 0.930 . S
H337 C345 0.930 . S
H338 C346 0.930 . S
H339 C347 0.930 . S
H340 C350 0.930 . S
H341 C351 0.930 . S
C342 H336 0.930 . S
C342 C343 1.355 . S
C342 C344 1.415 . S
C343 C342 1.355 . S
C343 C345 1.419 . S
C344 C342 1.415 . S
C344 C349 1.425 . S
C344 C351 1.409 . S
C345 H337 0.930 . S
C345 C343 1.419 . S
C345 C346 1.362 . S
C346 H338 0.930 . S
C346 C345 1.362 . S
C346 C349 1.409 . S
C347 H339 0.930 . S
C347 C348 1.355 . S
C347 C349 1.415 . S
C348 C347 1.355 . S
C348 C350 1.419 . S
C349 C344 1.425 . S
C349 C346 1.409 . S
C349 C347 1.415 . S
C350 H340 0.930 . S
C350 C348 1.419 . S
C350 C351 1.362 . S
C351 H341 0.930 . S
C351 C344 1.409 . S
C351 C350 1.362 . S
H352 C358 0.930 . S
H353 C361 0.930 . S
H354 C362 0.930 . S
H355 C363 0.930 . S
H356 C366 0.930 . S
H357 C367 0.930 . S
C358 H352 0.930 . S
C358 C359 1.355 . S
C358 C360 1.415 . S
C359 C358 1.355 . S
C359 C361 1.419 . S
C360 C358 1.415 . S
C360 C365 1.425 . S
C360 C367 1.409 . S
C361 H353 0.930 . S
C361 C359 1.419 . S
C361 C362 1.362 . S
C362 H354 0.930 . S
C362 C361 1.362 . S
C362 C365 1.409 . S
C363 H355 0.930 . S
C363 C364 1.355 . S
C363 C365 1.415 . S
C364 C363 1.355 . S
C364 C366 1.419 . S
C365 C360 1.425 . S
C365 C362 1.409 . S
C365 C363 1.415 . S
C366 H356 0.930 . S
C366 C364 1.419 . S
C366 C367 1.362 . S
C367 H357 0.930 . S
C367 C360 1.409 . S
C367 C366 1.362 . S
H368 C374 0.930 . S
H369 C377 0.930 . S
H370 C378 0.930 . S
H371 C379 0.930 . S
H372 C382 0.930 . S
H373 C383 0.930 . S
C374 H368 0.930 . S
C374 C375 1.355 . S
C374 C376 1.415 . S
C375 C374 1.355 . S
C375 C377 1.419 . S
C376 C374 1.415 . S
C376 C381 1.425 . S
C376 C383 1.409 . S
C377 H369 0.930 . S
C377 C375 1.419 . S
C377 C378 1.362 . S
C378 H370 0.930 . S
C378 C377 1.362 . S
C378 C381 1.409 . S
C379 H371 0.930 . S
C379 C380 1.355 . S
C379 C381 1.415 . S
C380 C379 1.355 . S
C380 C382 1.419 . S
C381 C376 1.425 . S
C381 C378 1.409 . S
C381 C379 1.415 . S
C382 H372 0.930 . S
C382 C380 1.419 . S
C382 C383 1.362 . S
C383 H373 0.930 . S
C383 C376 1.409 . S
C383 C382 1.362 . S
H384 C390 0.930 . S
H385 C393 0.930 . S
H386 C394 0.930 . S
H387 C395 0.930 . S
H388 C398 0.930 . S
H389 C399 0.930 . S
C390 H384 0.930 . S
C390 C391 1.355 . S
C390 C392 1.415 . S
C391 C390 1.355 . S
C391 C393 1.419 . S
C392 C390 1.415 . S
C392 C397 1.425 . S
C392 C399 1.409 . S
C393 H385 0.930 . S
C393 C391 1.419 . S
C393 C394 1.362 . S
C394 H386 0.930 . S
C394 C393 1.362 . S
C394 C397 1.409 . S
C395 H387 0.930 . S
C395 C396 1.355 . S
C395 C397 1.415 . S
C396 C395 1.355 . S
C396 C398 1.419 . S
C397 C392 1.425 . S
C397 C394 1.409 . S
C397 C395 1.415 . S
C398 H388 0.930 . S
C398 C396 1.419 . S
C398 C399 1.362 . S
C399 H389 0.930 . S
C399 C392 1.409 . S
C399 C398 1.362 . S
H400 C406 0.930 . S
H401 C409 0.930 . S
H402 C410 0.930 . S
H403 C411 0.930 . S
H404 C414 0.930 . S
H405 C415 0.930 . S
C406 H400 0.930 . S
C406 C407 1.355 . S
C406 C408 1.415 . S
C407 C406 1.355 . S
C407 C409 1.419 . S
C408 C406 1.415 . S
C408 C413 1.425 1_455 S
C408 C415 1.409 1_455 S
C409 H401 0.930 . S
C409 C407 1.419 . S
C409 C410 1.362 . S
C410 H402 0.930 . S
C410 C409 1.362 . S
C410 C413 1.409 1_455 S
C411 H403 0.930 . S
C411 C412 1.355 . S
C411 C413 1.415 . S
C412 C411 1.355 . S
C412 C414 1.419 . S
C413 C408 1.425 1_655 S
C413 C410 1.409 1_655 S
C413 C411 1.415 . S
C414 H404 0.930 . S
C414 C412 1.419 . S
C414 C415 1.362 . S
C415 H405 0.930 . S
C415 C408 1.409 1_655 S
C415 C414 1.362 . S
H416 C422 0.930 . S
H417 C425 0.930 . S
H418 C426 0.930 . S
H419 C427 0.930 . S
H420 C430 0.930 . S
H421 C431 0.930 . S
C422 H416 0.930 . S
C422 C423 1.355 . S
C422 C424 1.415 . S
C423 C422 1.355 . S
C423 C425 1.419 . S
C424 C422 1.415 . S
C424 C429 1.425 . S
C424 C431 1.409 . S
C425 H417 0.930 . S
C425 C423 1.419 . S
C425 C426 1.362 . S
C426 H418 0.930 . S
C426 C425 1.362 . S
C426 C429 1.409 . S
C427 H419 0.930 . S
C427 C428 1.355 . S
C427 C429 1.415 . S
C428 C427 1.355 . S
C428 C430 1.419 . S
C429 C424 1.425 . S
C429 C426 1.409 . S
C429 C427 1.415 . S
C430 H420 0.930 . S
C430 C428 1.419 . S
C430 C431 1.362 . S
C431 H421 0.930 . S
C431 C424 1.409 . S
C431 C430 1.362 . S
H432 C438 0.930 . S
H433 C441 0.930 . S
H434 C442 0.930 . S
H435 C443 0.930 . S
H436 C446 0.930 . S
H437 C447 0.930 . S
C438 H432 0.930 . S
C438 C439 1.355 . S
C438 C440 1.415 . S
C439 C438 1.355 . S
C439 C441 1.419 . S
C440 C438 1.415 . S
C440 C445 1.425 . S
C440 C447 1.409 . S
C441 H433 0.930 . S
C441 C439 1.419 . S
C441 C442 1.362 . S
C442 H434 0.930 . S
C442 C441 1.362 . S
C442 C445 1.409 . S
C443 H435 0.930 . S
C443 C444 1.355 . S
C443 C445 1.415 . S
C444 C443 1.355 . S
C444 C446 1.419 . S
C445 C440 1.425 . S
C445 C442 1.409 . S
C445 C443 1.415 . S
C446 H436 0.930 . S
C446 C444 1.419 . S
C446 C447 1.362 . S
C447 H437 0.930 . S
C447 C440 1.409 . S
C447 C446 1.362 . S
H448 C454 0.930 . S
H449 C457 0.930 . S
H450 C458 0.930 . S
H451 C459 0.930 . S
H452 C462 0.930 . S
H453 C463 0.930 . S
C454 H448 0.930 . S
C454 C455 1.355 . S
C454 C456 1.415 . S
C455 C454 1.355 . S
C455 C457 1.419 . S
C456 C454 1.415 . S
C456 C461 1.425 1_455 S
C456 C463 1.409 1_455 S
C457 H449 0.930 . S
C457 C455 1.419 . S
C457 C458 1.362 . S
C458 H450 0.930 . S
C458 C457 1.362 . S
C458 C461 1.409 1_455 S
C459 H451 0.930 . S
C459 C460 1.355 . S
C459 C461 1.415 . S
C460 C459 1.355 . S
C460 C462 1.419 . S
C461 C456 1.425 1_655 S
C461 C458 1.409 1_655 S
C461 C459 1.415 . S
C462 H452 0.930 . S
C462 C460 1.419 . S
C462 C463 1.362 . S
C463 H453 0.930 . S
C463 C456 1.409 1_655 S
C463 C462 1.362 . S
H464 C470 0.930 . S
H465 C473 0.930 . S
H466 C474 0.930 . S
H467 C475 0.930 . S
H468 C478 0.930 . S
H469 C479 0.930 . S
C470 H464 0.930 . S
C470 C471 1.355 . S
C470 C472 1.415 1_554 S
C471 C470 1.355 . S
C471 C473 1.419 . S
C472 C470 1.415 1_556 S
C472 C477 1.425 1_556 S
C472 C479 1.409 . S
C473 H465 0.930 . S
C473 C471 1.419 . S
C473 C474 1.362 . S
C474 H466 0.930 . S
C474 C473 1.362 . S
C474 C477 1.409 . S
C475 H467 0.930 . S
C475 C476 1.355 . S
C475 C477 1.415 1_556 S
C476 C475 1.355 . S
C476 C478 1.419 . S
C477 C472 1.425 1_554 S
C477 C474 1.409 . S
C477 C475 1.415 1_554 S
C478 H468 0.930 . S
C478 C476 1.419 . S
C478 C479 1.362 . S
C479 H469 0.930 . S
C479 C472 1.409 . S
C479 C478 1.362 . S
H480 C486 0.930 . S
H481 C489 0.930 . S
H482 C490 0.930 . S
H483 C491 0.930 . S
H484 C494 0.930 . S
H485 C495 0.930 . S
C486 H480 0.930 . S
C486 C487 1.355 . S
C486 C488 1.415 . S
C487 C486 1.355 . S
C487 C489 1.419 . S
C488 C486 1.415 . S
C488 C493 1.425 . S
C488 C495 1.409 . S
C489 H481 0.930 . S
C489 C487 1.419 . S
C489 C490 1.362 . S
C490 H482 0.930 . S
C490 C489 1.362 . S
C490 C493 1.409 . S
C491 H483 0.930 . S
C491 C492 1.355 . S
C491 C493 1.415 . S
C492 C491 1.355 . S
C492 C494 1.419 . S
C493 C488 1.425 . S
C493 C490 1.409 . S
C493 C491 1.415 . S
C494 H484 0.930 . S
C494 C492 1.419 . S
C494 C495 1.362 . S
C495 H485 0.930 . S
C495 C488 1.409 . S
C495 C494 1.362 . S
H496 C502 0.930 . S
H497 C505 0.930 . S
H498 C506 0.930 . S
H499 C507 0.930 . S
H500 C510 0.930 . S
H501 C511 0.930 . S
C502 H496 0.930 . S
C502 C503 1.355 . S
C502 C504 1.415 . S
C503 C502 1.355 . S
C503 C505 1.419 . S
C504 C502 1.415 . S
C504 C509 1.425 . S
C504 C511 1.409 . S
C505 H497 0.930 . S
C505 C503 1.419 . S
C505 C506 1.362 . S
C506 H498 0.930 . S
C506 C505 1.362 . S
C506 C509 1.409 . S
C507 H499 0.930 . S
C507 C508 1.355 . S
C507 C509 1.415 . S
C508 C507 1.355 . S
C508 C510 1.419 . S
C509 C504 1.425 . S
C509 C506 1.409 . S
C509 C507 1.415 . S
C510 H500 0.930 . S
C510 C508 1.419 . S
C510 C511 1.362 . S
C511 H501 0.930 . S
C511 C504 1.409 . S
C511 C510 1.362 . S
H512 C518 0.930 . S
H513 C521 0.930 . S
H514 C522 0.930 . S
H515 C523 0.930 . S
H516 C526 0.930 . S
H517 C527 0.930 . S
C518 H512 0.930 . S
C518 C519 1.355 . S
C518 C520 1.415 . S
C519 C518 1.355 . S
C519 C521 1.419 . S
C520 C518 1.415 . S
C520 C525 1.425 . S
C520 C527 1.409 . S
C521 H513 0.930 . S
C521 C519 1.419 . S
C521 C522 1.362 . S
C522 H514 0.930 . S
C522 C521 1.362 . S
C522 C525 1.409 . S
C523 H515 0.930 . S
C523 C524 1.355 . S
C523 C525 1.415 . S
C524 C523 1.355 . S
C524 C526 1.419 . S
C525 C520 1.425 . S
C525 C522 1.409 . S
C525 C523 1.415 . S
C526 H516 0.930 . S
C526 C524 1.419 . S
C526 C527 1.362 . S
C527 H517 0.930 . S
C527 C520 1.409 . S
C527 C526 1.362 . S
H528 C534 0.930 . S
H529 C537 0.930 . S
H530 C538 0.930 . S
H531 C539 0.930 . S
H532 C542 0.930 . S
H533 C543 0.930 . S
C534 H528 0.930 . S
C534 C535 1.355 . S
C534 C536 1.415 1_556 S
C535 C534 1.355 . S
C535 C537 1.419 . S
C536 C534 1.415 1_554 S
C536 C541 1.425 1_554 S
C536 C543 1.409 . S
C537 H529 0.930 . S
C537 C535 1.419 . S
C537 C538 1.362 . S
C538 H530 0.930 . S
C538 C537 1.362 . S
C538 C541 1.409 . S
C539 H531 0.930 . S
C539 C540 1.355 . S
C539 C541 1.415 1_554 S
C540 C539 1.355 . S
C540 C542 1.419 . S
C541 C536 1.425 1_556 S
C541 C538 1.409 . S
C541 C539 1.415 1_556 S
C542 H532 0.930 . S
C542 C540 1.419 . S
C542 C543 1.362 . S
C543 H533 0.930 . S
C543 C536 1.409 . S
C543 C542 1.362 . S
H544 C550 0.930 . S
H545 C553 0.930 . S
H546 C554 0.930 . S
H547 C555 0.930 . S
H548 C558 0.930 . S
H549 C559 0.930 . S
C550 H544 0.930 . S
C550 C551 1.355 . S
C550 C552 1.415 . S
C551 C550 1.355 . S
C551 C553 1.419 . S
C552 C550 1.415 . S
C552 C557 1.425 . S
C552 C559 1.409 . S
C553 H545 0.930 . S
C553 C551 1.419 . S
C553 C554 1.362 . S
C554 H546 0.930 . S
C554 C553 1.362 . S
C554 C557 1.409 . S
C555 H547 0.930 . S
C555 C556 1.355 . S
C555 C557 1.415 . S
C556 C555 1.355 . S
C556 C558 1.419 . S
C557 C552 1.425 . S
C557 C554 1.409 . S
C557 C555 1.415 . S
C558 H548 0.930 . S
C558 C556 1.419 . S
C558 C559 1.362 . S
C559 H549 0.930 . S
C559 C552 1.409 . S
C559 C558 1.362 . S
H560 C566 0.930 . S
H561 C569 0.930 . S
H562 C570 0.930 . S
H563 C571 0.930 . S
H564 C574 0.930 . S
H565 C575 0.930 . S
C566 H560 0.930 . S
C566 C567 1.355 . S
C566 C568 1.415 . S
C567 C566 1.355 . S
C567 C569 1.419 . S
C568 C566 1.415 . S
C568 C573 1.425 . S
C568 C575 1.409 . S
C569 H561 0.930 . S
C569 C567 1.419 . S
C569 C570 1.362 . S
C570 H562 0.930 . S
C570 C569 1.362 . S
C570 C573 1.409 . S
C571 H563 0.930 . S
C571 C572 1.355 . S
C571 C573 1.415 . S
C572 C571 1.355 . S
C572 C574 1.419 . S
C573 C568 1.425 . S
C573 C570 1.409 . S
C573 C571 1.415 . S
C574 H564 0.930 . S
C574 C572 1.419 . S
C574 C575 1.362 . S
C575 H565 0.930 . S
C575 C568 1.409 . S
C575 C574 1.362 . S
H576 C582 0.930 . S
H577 C585 0.930 . S
H578 C586 0.930 . S
H579 C587 0.930 . S
H580 C590 0.930 . S
H581 C591 0.930 . S
C582 H576 0.930 . S
C582 C583 1.355 . S
C582 C584 1.415 . S
C583 C582 1.355 . S
C583 C585 1.419 . S
C584 C582 1.415 . S
C584 C589 1.425 . S
C584 C591 1.409 . S
C585 H577 0.930 . S
C585 C583 1.419 . S
C585 C586 1.362 . S
C586 H578 0.930 . S
C586 C585 1.362 . S
C586 C589 1.409 . S
C587 H579 0.930 . S
C587 C588 1.355 . S
C587 C589 1.415 . S
C588 C587 1.355 . S
C588 C590 1.419 . S
C589 C584 1.425 . S
C589 C586 1.409 . S
C589 C587 1.415 . S
C590 H580 0.930 . S
C590 C588 1.419 . S
C590 C591 1.362 . S
C591 H581 0.930 . S
C591 C584 1.409 . S
C591 C590 1.362 . S
H592 C598 0.930 . S
H593 C601 0.930 . S
H594 C602 0.930 . S
H595 C603 0.930 . S
H596 C606 0.930 . S
H597 C607 0.930 . S
C598 H592 0.930 . S
C598 C599 1.355 . S
C598 C600 1.415 1_545 S
C599 C598 1.355 . S
C599 C601 1.419 . S
C600 C598 1.415 1_565 S
C600 C605 1.425 1_565 S
C600 C607 1.409 . S
C601 H593 0.930 . S
C601 C599 1.419 . S
C601 C602 1.362 . S
C602 H594 0.930 . S
C602 C601 1.362 . S
C602 C605 1.409 . S
C603 H595 0.930 . S
C603 C604 1.355 . S
C603 C605 1.415 1_565 S
C604 C603 1.355 . S
C604 C606 1.419 . S
C605 C600 1.425 1_545 S
C605 C602 1.409 . S
C605 C603 1.415 1_545 S
C606 H596 0.930 . S
C606 C604 1.419 . S
C606 C607 1.362 . S
C607 H597 0.930 . S
C607 C600 1.409 . S
C607 C606 1.362 . S
H608 C614 0.930 . S
H609 C617 0.930 . S
H610 C618 0.930 . S
H611 C619 0.930 . S
H612 C622 0.930 . S
H613 C623 0.930 . S
C614 H608 0.930 . S
C614 C615 1.355 . S
C614 C616 1.415 . S
C615 C614 1.355 . S
C615 C617 1.419 . S
C616 C614 1.415 . S
C616 C621 1.425 . S
C616 C623 1.409 . S
C617 H609 0.930 . S
C617 C615 1.419 . S
C617 C618 1.362 . S
C618 H610 0.930 . S
C618 C617 1.362 . S
C618 C621 1.409 . S
C619 H611 0.930 . S
C619 C620 1.355 . S
C619 C621 1.415 . S
C620 C619 1.355 . S
C620 C622 1.419 . S
C621 C616 1.425 . S
C621 C618 1.409 . S
C621 C619 1.415 . S
C622 H612 0.930 . S
C622 C620 1.419 . S
C622 C623 1.362 . S
C623 H613 0.930 . S
C623 C616 1.409 . S
C623 C622 1.362 . S
H624 C630 0.930 . S
H625 C633 0.930 1_554 S
H626 C634 0.930 . S
H627 C635 0.930 . S
H628 C638 0.930 1_556 S
H629 C639 0.930 . S
C630 H624 0.930 . S
C630 C631 1.355 . S
C630 C632 1.415 1_545 S
C631 C630 1.355 . S
C631 C633 1.419 . S
C632 C630 1.415 1_565 S
C632 C637 1.425 1_566 S
C632 C639 1.409 . S
C633 H625 0.930 1_556 S
C633 C631 1.419 . S
C633 C634 1.362 1_556 S
C634 H626 0.930 . S
C634 C633 1.362 1_554 S
C634 C637 1.409 . S
C635 H627 0.930 . S
C635 C636 1.355 . S
C635 C637 1.415 1_565 S
C636 C635 1.355 . S
C636 C638 1.419 . S
C637 C632 1.425 1_544 S
C637 C634 1.409 . S
C637 C635 1.415 1_545 S
C638 H628 0.930 1_554 S
C638 C636 1.419 . S
C638 C639 1.362 1_554 S
C639 H629 0.930 . S
C639 C632 1.409 . S
C639 C638 1.362 1_556 S
H640 C646 0.930 . S
H641 C649 0.930 . S
H642 C650 0.930 . S
H643 C651 0.930 . S
H644 C654 0.930 . S
H645 C655 0.930 . S
C646 H640 0.930 . S
C646 C647 1.355 . S
C646 C648 1.415 . S
C647 C646 1.355 . S
C647 C649 1.419 . S
C648 C646 1.415 . S
C648 C653 1.425 . S
C648 C655 1.409 . S
C649 H641 0.930 . S
C649 C647 1.419 . S
C649 C650 1.362 . S
C650 H642 0.930 . S
C650 C649 1.362 . S
C650 C653 1.409 . S
C651 H643 0.930 . S
C651 C652 1.355 . S
C651 C653 1.415 . S
C652 C651 1.355 . S
C652 C654 1.419 . S
C653 C648 1.425 . S
C653 C650 1.409 . S
C653 C651 1.415 . S
C654 H644 0.930 . S
C654 C652 1.419 . S
C654 C655 1.362 . S
C655 H645 0.930 . S
C655 C648 1.409 . S
C655 C654 1.362 . S
H656 C662 0.930 . S
H657 C665 0.930 . S
H658 C666 0.930 . S
H659 C667 0.930 . S
H660 C670 0.930 . S
H661 C671 0.930 . S
C662 H656 0.930 . S
C662 C663 1.355 . S
C662 C664 1.415 1_545 S
C663 C662 1.355 . S
C663 C665 1.419 . S
C664 C662 1.415 1_565 S
C664 C669 1.425 1_565 S
C664 C671 1.409 . S
C665 H657 0.930 . S
C665 C663 1.419 . S
C665 C666 1.362 . S
C666 H658 0.930 . S
C666 C665 1.362 . S
C666 C669 1.409 . S
C667 H659 0.930 . S
C667 C668 1.355 . S
C667 C669 1.415 1_565 S
C668 C667 1.355 . S
C668 C670 1.419 . S
C669 C664 1.425 1_545 S
C669 C666 1.409 . S
C669 C667 1.415 1_545 S
C670 H660 0.930 . S
C670 C668 1.419 . S
C670 C671 1.362 . S
C671 H661 0.930 . S
C671 C664 1.409 . S
C671 C670 1.362 . S
H672 C678 0.930 . S
H673 C681 0.930 . S
H674 C682 0.930 . S
H675 C683 0.930 . S
H676 C686 0.930 . S
H677 C687 0.930 . S
C678 H672 0.930 . S
C678 C679 1.355 . S
C678 C680 1.415 . S
C679 C678 1.355 . S
C679 C681 1.419 . S
C680 C678 1.415 . S
C680 C685 1.425 . S
C680 C687 1.409 . S
C681 H673 0.930 . S
C681 C679 1.419 . S
C681 C682 1.362 . S
C682 H674 0.930 . S
C682 C681 1.362 . S
C682 C685 1.409 . S
C683 H675 0.930 . S
C683 C684 1.355 . S
C683 C685 1.415 . S
C684 C683 1.355 . S
C684 C686 1.419 . S
C685 C680 1.425 . S
C685 C682 1.409 . S
C685 C683 1.415 . S
C686 H676 0.930 . S
C686 C684 1.419 . S
C686 C687 1.362 . S
C687 H677 0.930 . S
C687 C680 1.409 . S
C687 C686 1.362 . S
H688 C694 0.930 . S
H689 C697 0.930 . S
H690 C698 0.930 . S
H691 C699 0.930 . S
H692 C702 0.930 . S
H693 C703 0.930 . S
C694 H688 0.930 . S
C694 C695 1.355 . S
C694 C696 1.415 . S
C695 C694 1.355 . S
C695 C697 1.419 . S
C696 C694 1.415 . S
C696 C701 1.425 1_564 S
C696 C703 1.409 1_564 S
C697 H689 0.930 . S
C697 C695 1.419 . S
C697 C698 1.362 . S
C698 H690 0.930 . S
C698 C697 1.362 . S
C698 C701 1.409 1_564 S
C699 H691 0.930 . S
C699 C700 1.355 . S
C699 C701 1.415 . S
C700 C699 1.355 . S
C700 C702 1.419 . S
C701 C696 1.425 1_546 S
C701 C698 1.409 1_546 S
C701 C699 1.415 . S
C702 H692 0.930 . S
C702 C700 1.419 . S
C702 C703 1.362 . S
C703 H693 0.930 . S
C703 C696 1.409 1_546 S
C703 C702 1.362 . S
H704 C710 0.930 . S
H705 C713 0.930 . S
H706 C714 0.930 . S
H707 C715 0.930 . S
H708 C718 0.930 . S
H709 C719 0.930 . S
C710 H704 0.930 . S
C710 C711 1.355 . S
C710 C712 1.415 . S
C711 C710 1.355 . S
C711 C713 1.419 . S
C712 C710 1.415 . S
C712 C717 1.425 . S
C712 C719 1.409 . S
C713 H705 0.930 . S
C713 C711 1.419 . S
C713 C714 1.362 . S
C714 H706 0.930 . S
C714 C713 1.362 . S
C714 C717 1.409 . S
C715 H707 0.930 . S
C715 C716 1.355 . S
C715 C717 1.415 . S
C716 C715 1.355 . S
C716 C718 1.419 . S
C717 C712 1.425 . S
C717 C714 1.409 . S
C717 C715 1.415 . S
C718 H708 0.930 . S
C718 C716 1.419 . S
C718 C719 1.362 . S
C719 H709 0.930 . S
C719 C712 1.409 . S
C719 C718 1.362 . S
C215 C148 1.476 . S
C220 C4 1.476 . S
C231 C199 1.479 . S
C236 C18 1.479 . S
C247 C29 1.469 . S
C252 C127 1.479 . S
C263 C179 1.463 . S
C268 C49 1.479 . S
C279 C62 1.472 . S
C284 C174 1.482 . S
C295 C70 1.488 . S
C300 C153 1.473 . S
C311 C81 1.490 . S
C316 C198 1.477 . S
C327 C101 1.472 . S
C332 C122 1.490 . S
C343 C44 1.473 . S
C348 C107 1.485 . S
C359 C135 1.485 . S
C364 C23 1.475 . S
C375 C160 1.480 . S
C380 C75 1.462 . S
C391 C187 1.480 . S
C396 C96 1.478 . S
C407 C57 1.461 . S
C412 C108 1.485 . S
C423 C140 1.482 . S
C428 C82 1.470 . S
C439 C192 1.467 . S
C444 C30 1.485 . S
C455 C3 1.473 . S
C460 C159 1.494 . S
C471 C5 1.408 . S
C476 C55 1.402 . S
C487 C17 1.394 . S
C492 C69 1.385 . S
C503 C36 1.400 . S
C508 C88 1.401 . S
C519 C94 1.400 . S
C524 C42 1.398 . S
C535 C114 1.404 . S
C540 C161 1.390 . S
C551 C172 1.393 . S
C556 C121 1.406 . S
C567 C134 1.409 . S
C572 C186 1.392 . S
C583 C200 1.416 . S
C588 C146 1.411 . S
C599 C95 1.410 . S
C604 C16 1.398 . S
C615 C31 1.407 . S
C620 C56 1.403 . S
C631 C43 1.409 . S
C636 C68 1.411 . S
C647 C10 1.387 . S
C652 C83 1.403 . S
C663 C120 1.403 . S
C668 C205 1.412 . S
C679 C166 1.407 . S
C684 C133 1.398 . S
C695 C147 1.384 . S
C700 C173 1.400 . S
C711 C185 1.394 . S
C716 C109 1.399 . S
