# Generated by pormake.
# Topology msp, (4)-cn, num edge types: 1
# Building blocks:
#     Node 0, Type 0, BuildingBlock: CEKHIL_clean_sbu_0, # of connection points: 4
#     Node 1, Type 0, BuildingBlock: CEKHIL_clean_sbu_0, # of connection points: 4
#     Node 2, Type 0, BuildingBlock: CEKHIL_clean_sbu_0, # of connection points: 4
#     Node 3, Type 0, BuildingBlock: CEKHIL_clean_sbu_0, # of connection points: 4
#     Node 4, Type 0, BuildingBlock: CEKHIL_clean_sbu_0, # of connection points: 4
#     Node 5, Type 0, BuildingBlock: CEKHIL_clean_sbu_0, # of connection points: 4
#     Node 6, Type 0, BuildingBlock: CEKHIL_clean_sbu_0, # of connection points: 4
#     Node 7, Type 0, BuildingBlock: CEKHIL_clean_sbu_0, # of connection points: 4
#     Edge 8, Type (0, 0), BuildingBlock: FUNLAD_clean_linker_0, # of connection points: 2
#     Edge 9, Type (0, 0), BuildingBlock: FUNLAD_clean_linker_0, # of connection points: 2
#     Edge 10, Type (0, 0), BuildingBlock: FUNLAD_clean_linker_0, # of connection points: 2
#     Edge 11, Type (0, 0), BuildingBlock: FUNLAD_clean_linker_0, # of connection points: 2
#     Edge 12, Type (0, 0), BuildingBlock: FUNLAD_clean_linker_0, # of connection points: 2
#     Edge 13, Type (0, 0), BuildingBlock: FUNLAD_clean_linker_0, # of connection points: 2
#     Edge 14, Type (0, 0), BuildingBlock: FUNLAD_clean_linker_0, # of connection points: 2
#     Edge 15, Type (0, 0), BuildingBlock: FUNLAD_clean_linker_0, # of connection points: 2
#     Edge 16, Type (0, 0), BuildingBlock: FUNLAD_clean_linker_0, # of connection points: 2
#     Edge 17, Type (0, 0), BuildingBlock: FUNLAD_clean_linker_0, # of connection points: 2
#     Edge 18, Type (0, 0), BuildingBlock: FUNLAD_clean_linker_0, # of connection points: 2
#     Edge 19, Type (0, 0), BuildingBlock: FUNLAD_clean_linker_0, # of connection points: 2
#     Edge 20, Type (0, 0), BuildingBlock: FUNLAD_clean_linker_0, # of connection points: 2
#     Edge 21, Type (0, 0), BuildingBlock: FUNLAD_clean_linker_0, # of connection points: 2
#     Edge 22, Type (0, 0), BuildingBlock: FUNLAD_clean_linker_0, # of connection points: 2
#     Edge 23, Type (0, 0), BuildingBlock: FUNLAD_clean_linker_0, # of connection points: 2
# Relax obj value: 0.161
# Max RMSD: 0.205
# Mean RMSD: 0.204
data_MOF--net-msp--node1-CEKHIL_clean_sbu_0--edge1-FUNLAD_clean_linker_0
_symmetry_space_group_name_H-M    P1
_symmetry_Int_Tables_number       1
_symmetry_cell_setting            triclinic
loop_
_symmetry_equiv_pos_as_xyz
'x, y, z'
_cell_length_a     27.199713
_cell_length_b     26.79492
_cell_length_c     45.569636
_cell_angle_alpha  89.811356
_cell_angle_beta   99.669829
_cell_angle_gamma 90.138181
loop_
_atom_site_label
_atom_site_type_symbol
_atom_site_fract_x
_atom_site_fract_y
_atom_site_fract_z
_atom_type_partial_charge
Co0 Co 0.01782 0.29511 0.35932 0.0
O1 O 0.9657 0.32565 0.33166 0.0
O2 O 0.97185 0.24446 0.34062 0.0
C3 C 0.01453 0.34977 0.39616 0.0
O4 O 0.06633 0.2513 0.38734 0.0
Co5 Co 0.11426 0.3572 0.38269 0.0
O6 O 0.12573 0.30185 0.41204 0.0
C7 C 0.09672 0.3168 0.32166 0.0
C8 C 0.9471 0.28138 0.3265 0.0
C9 C 0.10397 0.25964 0.408 0.0
O10 O 0.06046 0.28949 0.32741 0.0
O11 O 0.11883 0.34969 0.33955 0.0
O12 O 0.98348 0.31247 0.39243 0.0
O13 O 0.0427 0.35463 0.37634 0.0
Co14 Co 0.48045 0.29548 0.62668 0.0
O15 O 0.52319 0.32167 0.66087 0.0
O16 O 0.52064 0.24229 0.6472 0.0
C17 C 0.49729 0.35561 0.59542 0.0
O18 O 0.44152 0.25589 0.59206 0.0
Co19 Co 0.39075 0.35876 0.59514 0.0
O20 O 0.39382 0.31073 0.56246 0.0
C21 C 0.38383 0.30517 0.65123 0.0
C22 C 0.54057 0.27685 0.6655 0.0
C23 C 0.41313 0.26761 0.56746 0.0
O24 O 0.42615 0.284 0.65088 0.0
O25 O 0.36525 0.33831 0.63224 0.0
O26 O 0.52706 0.3177 0.60113 0.0
O27 O 0.4612 0.35777 0.61043 0.0
Co28 Co 0.98525 0.71243 0.62731 0.0
O29 O 0.03234 0.69025 0.6608 0.0
O30 O 0.02551 0.76828 0.64448 0.0
C31 C 0.00052 0.64935 0.59783 0.0
O32 O 0.94149 0.74832 0.5928 0.0
Co33 Co 0.89567 0.64428 0.60045 0.0
O34 O 0.8923 0.69092 0.56632 0.0
C35 C 0.89481 0.69906 0.65685 0.0
C36 C 0.0486 0.73578 0.66318 0.0
C37 C 0.91062 0.73475 0.56958 0.0
O38 O 0.93412 0.72393 0.65364 0.0
O39 O 0.87671 0.6636 0.6395 0.0
O40 O 0.02903 0.68863 0.60039 0.0
O41 O 0.96633 0.64856 0.61419 0.0
Co42 Co 0.51795 0.707 0.35547 0.0
O43 O 0.47183 0.68176 0.32247 0.0
O44 O 0.48254 0.76195 0.33359 0.0
C45 C 0.49643 0.65284 0.38883 0.0
O46 O 0.56191 0.74582 0.38848 0.0
Co47 Co 0.60133 0.63698 0.38816 0.0
O48 O 0.60533 0.68939 0.41916 0.0
C49 C 0.61122 0.68222 0.3301 0.0
C50 C 0.45881 0.72763 0.31657 0.0
C51 C 0.59032 0.73384 0.41303 0.0
O52 O 0.57221 0.70922 0.33044 0.0
O53 O 0.62623 0.64877 0.3497 0.0
O54 O 0.47044 0.69316 0.38228 0.0
O55 O 0.53127 0.64501 0.37344 0.0
Co56 Co 0.52288 0.78344 0.86182 0.0
O57 O 0.47538 0.81022 0.82985 0.0
O58 O 0.48127 0.73027 0.84246 0.0
C59 C 0.51079 0.84189 0.89499 0.0
O60 O 0.56658 0.74302 0.8943 0.0
Co61 Co 0.61489 0.84745 0.8902 0.0
O62 O 0.61728 0.79732 0.92251 0.0
C63 C 0.61213 0.80004 0.83139 0.0
C64 C 0.45845 0.76514 0.82542 0.0
C65 C 0.59779 0.75416 0.91789 0.0
O66 O 0.5728 0.77495 0.83431 0.0
O67 O 0.63158 0.83333 0.84991 0.0
O68 O 0.48073 0.80387 0.8905 0.0
O69 O 0.54378 0.84496 0.87789 0.0
Co70 Co 0.98019 0.79607 0.13117 0.0
O71 O 0.02694 0.82455 0.16281 0.0
O72 O 0.01907 0.74356 0.15334 0.0
C73 C 0.99681 0.84938 0.09599 0.0
O74 O 0.93642 0.75404 0.09967 0.0
Co75 Co 0.89203 0.86114 0.09909 0.0
O76 O 0.88855 0.80737 0.06895 0.0
C77 C 0.88886 0.81911 0.15882 0.0
C78 C 0.04222 0.77947 0.16928 0.0
C79 C 0.90621 0.76393 0.07543 0.0
O80 O 0.9281 0.79285 0.15769 0.0
O81 O 0.8714 0.85127 0.13894 0.0
O82 O 0.02501 0.81062 0.10288 0.0
O83 O 0.96291 0.85657 0.11215 0.0
Co84 Co 0.46933 0.19484 0.13097 0.0
O85 O 0.51612 0.16469 0.16208 0.0
O86 O 0.5129 0.2455 0.1517 0.0
C87 C 0.47936 0.13863 0.09606 0.0
O88 O 0.42675 0.23833 0.0996 0.0
Co89 Co 0.37544 0.13409 0.10141 0.0
O90 O 0.37302 0.18725 0.07079 0.0
C91 C 0.38056 0.17692 0.16148 0.0
C92 C 0.5348 0.20886 0.16762 0.0
C93 C 0.39423 0.22949 0.07618 0.0
O94 O 0.41955 0.2027 0.15869 0.0
O95 O 0.36101 0.14419 0.14261 0.0
O96 O 0.51069 0.17547 0.1016 0.0
O97 O 0.4466 0.13503 0.11327 0.0
Co98 Co 0.01617 0.20747 0.85763 0.0
O99 O 0.96842 0.17897 0.82653 0.0
O100 O 0.97538 0.25982 0.83657 0.0
C101 C 0.00302 0.1529 0.89295 0.0
O102 O 0.0608 0.24933 0.88887 0.0
Co103 Co 0.10711 0.14324 0.88676 0.0
O104 O 0.11129 0.19558 0.91777 0.0
C105 C 0.10548 0.188 0.82727 0.0
C106 C 0.95235 0.22394 0.82055 0.0
C107 C 0.09243 0.23883 0.91242 0.0
O108 O 0.06593 0.21277 0.82975 0.0
O109 O 0.12523 0.15575 0.84649 0.0
O110 O 0.97376 0.19114 0.88689 0.0
O111 O 0.03565 0.14673 0.8758 0.0
C112 C 0.98819 0.37957 0.44311 0.0
C113 C 0.01937 0.38386 0.42167 0.0
C114 C 0.99181 0.41409 0.4663 0.0
C115 C 0.027 0.45319 0.4684 0.0
C116 C 0.05846 0.4568 0.44713 0.0
C117 C 0.05486 0.42244 0.42408 0.0
C118 C 0.02987 0.49296 0.49102 0.0
C119 C 0.01452 0.48698 0.5173 0.0
C120 C 0.01332 0.52865 0.53834 0.0
C121 C 0.97725 0.52754 0.55691 0.0
C122 C 0.97313 0.56702 0.57609 0.0
C123 C 0.00542 0.60824 0.57729 0.0
H124 H 0.07594 0.57075 0.52671 0.0
C125 C 0.04241 0.60901 0.55927 0.0
C126 C 0.04651 0.56941 0.53999 0.0
H127 H 0.0682 0.64005 0.56011 0.0
H128 H 0.96035 0.35029 0.44163 0.0
H129 H 0.96585 0.41088 0.48177 0.0
H130 H 0.08563 0.48667 0.44816 0.0
H131 H 0.07945 0.42675 0.40785 0.0
H132 H 0.04451 0.52878 0.48532 0.0
H133 H -0.00037 0.4513 0.52304 0.0
H134 H 0.95151 0.49645 0.55618 0.0
H135 H 0.94447 0.56518 0.58995 0.0
C136 C 0.51772 0.5757 0.41839 0.0
C137 C 0.48991 0.61989 0.41373 0.0
C138 C 0.51322 0.54455 0.44226 0.0
C139 C 0.48119 0.55727 0.46225 0.0
C140 C 0.45234 0.6008 0.45716 0.0
C141 C 0.45679 0.63207 0.43312 0.0
C142 C 0.47619 0.52502 0.488 0.0
C143 C 0.51378 0.49613 0.50156 0.0
C144 C 0.50915 0.46128 0.52622 0.0
C145 C 0.54237 0.42094 0.53139 0.0
C146 C 0.53879 0.38654 0.55398 0.0
C147 C 0.50203 0.39213 0.57192 0.0
H148 H 0.44787 0.49888 0.54218 0.0
C149 C 0.46942 0.43298 0.56721 0.0
C150 C 0.47304 0.4674 0.54467 0.0
H151 H 0.4411 0.43853 0.58099 0.0
H152 H 0.54298 0.56496 0.4035 0.0
H153 H 0.53442 0.51023 0.44464 0.0
H154 H 0.42688 0.61099 0.47205 0.0
H155 H 0.43473 0.66585 0.4299 0.0
H156 H 0.4406 0.52547 0.49573 0.0
H157 H 0.54939 0.49666 0.49379 0.0
H158 H 0.57079 0.41562 0.51763 0.0
H159 H 0.56454 0.35546 0.55724 0.0
C160 C 0.51394 0.10829 0.05189 0.0
C161 C 0.4778 0.10525 0.07043 0.0
C162 C 0.5124 0.07527 0.0281 0.0
C163 C 0.47465 0.03875 0.02262 0.0
C164 C 0.43776 0.03695 0.0406 0.0
C165 C 0.4395 0.06958 0.06442 0.0
C166 C 0.47248 0.00184 -0.00153 0.0
C167 C 0.51355 0.98466 0.98922 0.0
C168 C 0.51168 0.94705 0.96548 0.0
C169 C 0.54895 0.94812 0.94776 0.0
C170 C 0.54832 0.91393 0.92482 0.0
C171 C 0.5108 0.87736 0.91949 0.0
H172 H 0.446 0.90713 0.97447 0.0
C173 C 0.47402 0.87535 0.93764 0.0
C174 C 0.47441 0.90999 0.96052 0.0
H175 H 0.44498 0.84722 0.93414 0.0
H176 H 0.54348 0.13586 0.05585 0.0
H177 H 0.54049 0.07877 0.01398 0.0
H178 H 0.4081 0.00947 0.03663 0.0
H179 H 0.41091 0.06648 0.07824 0.0
H180 H 0.43606 0.98712 0.98895 0.0
H181 H 0.54998 -0.00066 -0.00123 0.0
H182 H 0.57825 0.97603 0.95136 0.0
H183 H 0.57733 0.91633 0.91125 0.0
C184 C 0.96691 0.9211 0.06321 0.0
C185 C 0.00054 0.8815 0.07024 0.0
C186 C 0.97003 0.95216 0.03907 0.0
C187 C 0.00735 0.94464 0.02162 0.0
C188 C 0.04032 0.90436 0.02825 0.0
C189 C 0.03711 0.8731 0.05246 0.0
C190 C 0.01192 0.97727 -0.00405 0.0
C191 C 0.99669 0.02515 -0.00578 0.0
C192 C -0.00047 0.05769 0.96826 0.0
C193 C 0.96645 0.09806 0.96263 0.0
C194 C 0.9674 0.12918 0.93811 0.0
C195 C 0.0018 0.1206 0.91895 0.0
H196 H 0.06207 0.02035 0.95356 0.0
C197 C 0.03562 0.08089 0.92491 0.0
C198 C 0.0347 0.04985 0.94939 0.0
H199 H 0.06298 0.07377 0.91069 0.0
H200 H 0.93791 0.92811 0.0763 0.0
H201 H 0.94257 0.98143 0.03398 0.0
H202 H 0.06897 0.89742 0.01488 0.0
H203 H 0.06328 0.84257 0.0573 0.0
H204 H 0.02863 0.96107 0.97818 0.0
H205 H 0.98026 0.04124 0.01214 0.0
H206 H 0.93936 0.10519 0.97704 0.0
H207 H 0.94115 0.15978 0.93413 0.0
C208 C 0.60768 0.26069 0.19147 0.0
C209 C 0.58127 0.21541 0.18933 0.0
C210 C 0.65447 0.26442 0.20968 0.0
C211 C 0.67553 0.22289 0.22632 0.0
C212 C 0.64839 0.17813 0.22457 0.0
C213 C 0.60184 0.17443 0.20641 0.0
C214 C 0.72649 0.22348 0.24447 0.0
C215 C 0.75086 0.26547 0.25453 0.0
C216 C 0.80228 0.26661 0.27208 0.0
C217 C 0.82789 0.31228 0.27437 0.0
C218 C 0.87536 0.31637 0.29136 0.0
C219 C 0.89855 0.27486 0.3067 0.0
H220 H 0.80715 0.18891 0.28668 0.0
C221 C 0.87352 0.22879 0.30423 0.0
C222 C 0.82573 0.22466 0.28717 0.0
H223 H 0.89027 0.19628 0.31605 0.0
H224 H 0.59304 0.29273 0.17831 0.0
H225 H 0.67446 0.29932 0.20966 0.0
H226 H 0.66356 0.14553 0.23701 0.0
H227 H 0.58251 0.13892 0.20525 0.0
H228 H 0.74416 0.18755 0.24958 0.0
H229 H 0.7328 0.30128 0.24954 0.0
H230 H 0.81095 0.34524 0.26311 0.0
H231 H 0.89354 0.3525 0.29278 0.0
C232 C 0.61541 0.22652 0.68731 0.0
C233 C 0.58423 0.26775 0.68882 0.0
C234 C 0.66097 0.22282 0.70672 0.0
C235 C 0.67588 0.26027 0.72803 0.0
C236 C 0.6431 0.29962 0.7307 0.0
C237 C 0.59797 0.30361 0.71115 0.0
C238 C 0.72529 0.25995 0.74765 0.0
C239 C 0.7662 0.23974 0.73952 0.0
C240 C 0.81558 0.23929 0.75912 0.0
C241 C 0.84781 0.19933 0.75681 0.0
C242 C 0.89317 0.19553 0.77614 0.0
C243 C 0.90776 0.23225 0.79781 0.0
H244 H 0.80786 0.30958 0.78162 0.0
C245 C 0.87701 0.2739 0.79906 0.0
C246 C 0.8311 0.27734 0.77994 0.0
H247 H 0.88749 0.30277 0.81552 0.0
H248 H 0.60563 0.19825 0.67038 0.0
H249 H 0.68449 0.19089 0.70477 0.0
H250 H 0.65328 0.32848 0.74723 0.0
H251 H 0.57443 0.33561 0.71301 0.0
H252 H 0.72821 0.27862 0.769 0.0
H253 H 0.76336 0.22108 0.71818 0.0
H254 H 0.83709 0.16997 0.74068 0.0
H255 H 0.91639 0.16319 0.77452 0.0
C256 C 0.11499 0.71159 0.70525 0.0
C257 C 0.09407 0.74791 0.68458 0.0
C258 C 0.16114 0.71954 0.72316 0.0
C259 C 0.18772 0.76395 0.72065 0.0
C260 C 0.16564 0.80141 0.70113 0.0
C261 C 0.11926 0.79342 0.68312 0.0
C262 C 0.23814 0.77238 0.73829 0.0
C263 C 0.27006 0.73484 0.74764 0.0
C264 C 0.32016 0.74244 0.7659 0.0
C265 C 0.34242 0.70286 0.78364 0.0
C266 C 0.38836 0.70936 0.80233 0.0
C267 C 0.41299 0.75557 0.80345 0.0
H268 H 0.33148 0.81866 0.7518 0.0
C269 C 0.39187 0.79438 0.78466 0.0
C270 C 0.34612 0.78789 0.76601 0.0
H271 H 0.41031 0.83026 0.78468 0.0
H272 H 0.09616 0.67638 0.70725 0.0
H273 H 0.17572 0.69069 0.73888 0.0
H274 H 0.185 0.83633 0.69914 0.0
H275 H 0.10399 0.82213 0.66744 0.0
H276 H 0.24909 0.81081 0.74318 0.0
H277 H 0.25887 0.69653 0.74242 0.0
H278 H 0.32357 0.66719 0.78367 0.0
H279 H 0.40379 0.67873 0.81648 0.0
C280 C 0.38476 0.77978 0.29589 0.0
C281 C 0.41537 0.73844 0.29345 0.0
C282 C 0.33845 0.78405 0.27725 0.0
C283 C 0.3224 0.74717 0.25577 0.0
C284 C 0.35481 0.70802 0.25198 0.0
C285 C 0.40058 0.70337 0.27083 0.0
C286 C 0.27197 0.7475 0.23732 0.0
C287 C 0.23166 0.76623 0.24695 0.0
C288 C 0.18112 0.76565 0.22866 0.0
C289 C 0.1484 0.80479 0.23189 0.0
C290 C 0.10208 0.80784 0.21343 0.0
C291 C 0.08707 0.77114 0.19182 0.0
H292 H 0.18873 0.69572 0.20577 0.0
C293 C 0.11826 0.73006 0.18989 0.0
C294 C 0.16508 0.7274 0.20808 0.0
H295 H 0.10752 0.70126 0.17341 0.0
H296 H 0.39536 0.80734 0.31314 0.0
H297 H 0.31512 0.81576 0.28005 0.0
H298 H 0.34372 0.67962 0.23528 0.0
H299 H 0.4237 0.6713 0.26834 0.0
H300 H 0.26773 0.72961 0.21568 0.0
H301 H 0.23578 0.7842 0.26856 0.0
H302 H 0.15952 0.83422 0.2479 0.0
H303 H 0.07855 0.83976 0.21553 0.0
C304 C 0.3505 0.2377 0.19571 0.0
C305 C 0.35318 0.18844 0.18578 0.0
C306 C 0.31629 0.25025 0.21413 0.0
C307 C 0.28475 0.21351 0.22304 0.0
C308 C 0.29046 0.16369 0.2151 0.0
C309 C 0.324 0.15129 0.19633 0.0
C310 C 0.24486 0.226 0.24004 0.0
C311 C 0.21904 0.26888 0.23583 0.0
C312 C 0.18041 0.28177 0.25369 0.0
C313 C 0.17648 0.33142 0.26246 0.0
C314 C 0.14622 0.34357 0.28319 0.0
C315 C 0.11867 0.30632 0.29498 0.0
H316 H 0.15051 0.20689 0.25616 0.0
C317 C 0.11874 0.2575 0.28394 0.0
C318 C 0.1496 0.24522 0.26349 0.0
H319 H 0.09762 0.22815 0.29255 0.0
H320 H 0.37269 0.26697 0.18791 0.0
H321 H 0.31392 0.28876 0.22086 0.0
H322 H 0.26718 0.13469 0.22221 0.0
H323 H 0.32581 0.1129 0.18919 0.0
H324 H 0.23545 0.19823 0.25563 0.0
H325 H 0.22853 0.29672 0.2203 0.0
H326 H 0.1992 0.3603 0.25472 0.0
H327 H 0.14625 0.38168 0.29108 0.0
C328 C 0.30796 0.312 0.6753 0.0
C329 C 0.35405 0.28925 0.67394 0.0
C330 C 0.2786 0.29561 0.69573 0.0
C331 C 0.29452 0.25577 0.71514 0.0
C332 C 0.34111 0.23393 0.71436 0.0
C333 C 0.37055 0.25032 0.69391 0.0
C334 C 0.26436 0.23709 0.73708 0.0
C335 C 0.21442 0.24182 0.73357 0.0
C336 C 0.18515 0.22497 0.75638 0.0
C337 C 0.14101 0.25021 0.75905 0.0
C338 C 0.11427 0.23748 0.78161 0.0
C339 C 0.13106 0.19889 0.80178 0.0
H340 H 0.23327 0.16306 0.7734 0.0
C341 C 0.17394 0.17203 0.79811 0.0
C342 C 0.20061 0.18478 0.77559 0.0
H343 H 0.18748 0.14149 0.81288 0.0
H344 H 0.29432 0.3425 0.66051 0.0
H345 H 0.24389 0.31483 0.69641 0.0
H346 H 0.35451 0.2036 0.72936 0.0
H347 H 0.40593 0.23206 0.69358 0.0
H348 H 0.2844 0.21866 0.75675 0.0
H349 H 0.19419 0.26037 0.71402 0.0
H350 H 0.12798 0.28086 0.74422 0.0
H351 H 0.08115 0.25868 0.78362 0.0
C352 C 0.67583 0.82081 0.79982 0.0
C353 C 0.63823 0.7886 0.80636 0.0
C354 C 0.70424 0.80813 0.77828 0.0
C355 C 0.69599 0.76264 0.763 0.0
C356 C 0.6567 0.7317 0.76832 0.0
C357 C 0.62806 0.74446 0.78988 0.0
C358 C 0.72786 0.74628 0.7416 0.0
C359 C 0.77601 0.76002 0.74376 0.0
C360 C 0.8081 0.74252 0.72276 0.0
C361 C 0.8474 0.77299 0.71694 0.0
C362 C 0.87677 0.75845 0.69609 0.0
C363 C 0.86736 0.71297 0.68089 0.0
H364 H 0.772 0.67042 0.71366 0.0
C365 C 0.82955 0.68147 0.68788 0.0
C366 C 0.8004 0.69594 0.70868 0.0
H367 H 0.82202 0.64567 0.67706 0.0
H368 H 0.68388 0.85567 0.81165 0.0
H369 H 0.73265 0.83404 0.77379 0.0
H370 H 0.64918 0.69679 0.75645 0.0
H371 H 0.59914 0.71901 0.79428 0.0
H372 H 0.71135 0.72081 0.72419 0.0
H373 H 0.79263 0.78553 0.76111 0.0
H374 H 0.85451 0.80872 0.72792 0.0
H375 H 0.90582 0.78341 0.69132 0.0
C376 C 0.86695 0.76532 0.19978 0.0
C377 C 0.86024 0.80969 0.18309 0.0
C378 C 0.83568 0.75394 0.22026 0.0
C379 C 0.79724 0.78687 0.22444 0.0
C380 C 0.79252 0.83244 0.20908 0.0
C381 C 0.82341 0.84363 0.18843 0.0
C382 C 0.76102 0.77478 0.24428 0.0
C383 C 0.74674 0.72776 0.24906 0.0
C384 C 0.70944 0.71577 0.26823 0.0
C385 C 0.71301 0.67003 0.28341 0.0
C386 C 0.68016 0.65849 0.30288 0.0
C387 C 0.64251 0.69222 0.30719 0.0
H388 H 0.66542 0.78344 0.25923 0.0
C389 C 0.6373 0.73694 0.29078 0.0
C390 C 0.67047 0.74866 0.27149 0.0
H391 H 0.60847 0.76358 0.29342 0.0
H392 H 0.89526 0.7386 0.19637 0.0
H393 H 0.8416 0.71928 0.2326 0.0
H394 H 0.76371 0.85876 0.21229 0.0
H395 H 0.81772 0.87848 0.17623 0.0
H396 H 0.74418 0.80586 0.25415 0.0
H397 H 0.76357 0.69664 0.23923 0.0
H398 H 0.74221 0.64374 0.28087 0.0
H399 H 0.68485 0.62343 0.31492 0.0
C400 C 0.39271 0.23969 0.51506 0.0
C401 C 0.39542 0.22883 0.54541 0.0
C402 C 0.36213 0.21144 0.49365 0.0
C403 C 0.33246 0.17292 0.50229 0.0
C404 C 0.33923 0.15865 0.53246 0.0
C405 C 0.37085 0.18636 0.55391 0.0
C406 C 0.28947 0.15552 0.48014 0.0
C407 C 0.24369 0.15045 0.48751 0.0
C408 C 0.19814 0.16472 0.46633 0.0
C409 C 0.16235 0.19385 0.47724 0.0
C410 C 0.12739 0.22123 0.45771 0.0
C411 C 0.12664 0.21861 0.42695 0.0
H412 H 0.22008 0.13473 0.42625 0.0
C413 C 0.15818 0.18481 0.41578 0.0
C414 C 0.19383 0.15793 0.43536 0.0
H415 H 0.15843 0.18266 0.39206 0.0
H416 H 0.41137 0.27233 0.50805 0.0
H417 H 0.35797 0.22298 0.47055 0.0
H418 H 0.31769 0.12835 0.53971 0.0
H419 H 0.37227 0.17746 0.57725 0.0
H420 H 0.29273 0.16057 0.45688 0.0
H421 H 0.24025 0.14928 0.51092 0.0
H422 H 0.16457 0.19951 0.50097 0.0
H423 H 0.10366 0.24751 0.46674 0.0
C424 C 0.86365 0.81356 0.5565 0.0
C425 C 0.88894 0.77218 0.54749 0.0
C426 C 0.82911 0.83958 0.53574 0.0
C427 C 0.82017 0.82484 0.50569 0.0
C428 C 0.8501 0.78747 0.49633 0.0
C429 C 0.88358 0.76077 0.51711 0.0
C430 C 0.77507 0.84059 0.48468 0.0
C431 C 0.73014 0.84256 0.49343 0.0
C432 C 0.68423 0.82704 0.47305 0.0
C433 C 0.67615 0.83835 0.44243 0.0
C434 C 0.64055 0.81165 0.42273 0.0
C435 C 0.61331 0.77301 0.43342 0.0
H436 H 0.65759 0.78371 0.50741 0.0
C437 C 0.61778 0.76547 0.46422 0.0
C438 C 0.65239 0.79287 0.48391 0.0
H439 H 0.59712 0.73582 0.47292 0.0
H440 H 0.86702 0.82277 0.57989 0.0
H441 H 0.80721 0.86893 0.54349 0.0
H442 H 0.84417 0.77558 0.47329 0.0
H443 H 0.90265 0.7289 0.50972 0.0
H444 H 0.77662 0.83681 0.46111 0.0
H445 H 0.7285 0.84188 0.5171 0.0
H446 H 0.69952 0.86529 0.43351 0.0
H447 H 0.63785 0.81792 0.39901 0.0
C448 C 0.85949 0.68387 0.06635 0.0
C449 C 0.88547 0.7233 0.05547 0.0
C450 C 0.82611 0.65481 0.04662 0.0
C451 C 0.819 0.66463 0.01582 0.0
C452 C 0.84971 0.69999 0.00499 0.0
C453 C 0.88205 0.72966 0.02465 0.0
C454 C 0.77484 0.64621 -0.00502 0.0
C455 C 0.72921 0.64586 0.00287 0.0
C456 C 0.68451 0.66093 0.98129 0.0
C457 C 0.67817 0.64827 0.95092 0.0
C458 C 0.64463 0.67509 0.92999 0.0
C459 C 0.61763 0.71499 0.93924 0.0
H460 H 0.65641 0.70664 0.0139 0.0
C461 C 0.61999 0.72383 0.96974 0.0
C462 C 0.65256 0.69641 0.99063 0.0
H463 H 0.59952 0.75456 0.97729 0.0
H464 H 0.86144 0.67853 0.09009 0.0
H465 H 0.80365 0.62706 0.05558 0.0
H466 H 0.84522 0.70811 0.98137 0.0
H467 H 0.90176 0.75993 0.01584 0.0
H468 H 0.77764 0.64712 0.97147 0.0
H469 H 0.72638 0.64892 0.02631 0.0
H470 H 0.70154 0.62028 0.94313 0.0
H471 H 0.6435 0.66787 0.90651 0.0
C472 C 0.34866 0.30955 0.06509 0.0
C473 C 0.37602 0.27019 0.05555 0.0
C474 C 0.31691 0.33824 0.0442 0.0
C475 C 0.31264 0.32795 0.01358 0.0
C476 C 0.34485 0.29274 0.00422 0.0
C477 C 0.37565 0.2635 0.02503 0.0
C478 C 0.26988 0.3456 0.99132 0.0
C479 C 0.22332 0.34696 -0.00215 0.0
C480 C 0.17951 0.33209 0.97549 0.0
C481 C 0.17594 0.34287 0.94493 0.0
C482 C 0.14248 0.31624 0.92389 0.0
C483 C 0.11271 0.27846 0.9332 0.0
H484 H 0.14682 0.28998 0.00804 0.0
C485 C 0.11258 0.27154 0.96369 0.0
C486 C 0.14513 0.29876 0.98466 0.0
H487 H 0.09004 0.24235 0.97129 0.0
H488 H 0.34824 0.31506 0.08859 0.0
H489 H 0.29339 0.36599 0.05208 0.0
H490 H 0.34261 0.28428 0.98079 0.0
H491 H 0.39636 0.23316 0.01726 0.0
H492 H 0.27453 0.34363 0.96813 0.0
H493 H 0.21858 0.34509 0.02103 0.0
H494 H 0.20119 0.36925 0.93721 0.0
H495 H 0.14336 0.32185 0.90042 0.0
loop_
_geom_bond_atom_site_label_1
_geom_bond_atom_site_label_2
_geom_bond_distance
_geom_bond_site_symmetry_2
_ccdc_geom_bond_type
Co0 O1 2.216 1_455 S
Co0 O2 2.091 1_455 S
Co0 O4 2.004 . S
Co0 O10 2.021 . S
Co0 O12 2.137 1_455 S
Co0 O13 2.244 . S
O1 Co0 2.216 1_655 S
O1 C8 1.247 . S
O2 Co0 2.091 1_655 S
O2 C8 1.261 . S
C3 O12 1.247 1_455 S
C3 O13 1.272 . S
O4 Co0 2.004 . S
O4 C9 1.259 . S
Co5 O6 2.061 . S
Co5 O11 2.052 . S
Co5 O13 2.135 . S
O6 Co5 2.061 . S
O6 C9 1.235 . S
C7 O10 1.238 . S
C7 O11 1.241 . S
C8 O1 1.247 . S
C8 O2 1.261 . S
C9 O4 1.259 . S
C9 O6 1.235 . S
O10 Co0 2.021 . S
O10 C7 1.238 . S
O11 Co5 2.052 . S
O11 C7 1.241 . S
O12 Co0 2.137 1_655 S
O12 C3 1.247 1_655 S
O13 Co0 2.244 . S
O13 C3 1.272 . S
O13 Co5 2.135 . S
Co14 O15 2.216 . S
Co14 O16 2.091 . S
Co14 O18 2.004 . S
Co14 O24 2.021 . S
Co14 O26 2.137 . S
Co14 O27 2.244 . S
O15 Co14 2.216 . S
O15 C22 1.247 . S
O16 Co14 2.091 . S
O16 C22 1.261 . S
C17 O26 1.247 . S
C17 O27 1.272 . S
O18 Co14 2.004 . S
O18 C23 1.259 . S
Co19 O20 2.061 . S
Co19 O25 2.052 . S
Co19 O27 2.135 . S
O20 Co19 2.061 . S
O20 C23 1.235 . S
C21 O24 1.238 . S
C21 O25 1.241 . S
C22 O15 1.247 . S
C22 O16 1.261 . S
C23 O18 1.259 . S
C23 O20 1.235 . S
O24 Co14 2.021 . S
O24 C21 1.238 . S
O25 Co19 2.052 . S
O25 C21 1.241 . S
O26 Co14 2.137 . S
O26 C17 1.247 . S
O27 Co14 2.244 . S
O27 C17 1.272 . S
O27 Co19 2.135 . S
Co28 O29 2.216 1_655 S
Co28 O30 2.091 1_655 S
Co28 O32 2.004 . S
Co28 O38 2.021 . S
Co28 O40 2.137 1_655 S
Co28 O41 2.244 . S
O29 Co28 2.216 1_455 S
O29 C36 1.247 . S
O30 Co28 2.091 1_455 S
O30 C36 1.261 . S
C31 O40 1.247 1_655 S
C31 O41 1.272 . S
O32 Co28 2.004 . S
O32 C37 1.259 . S
Co33 O34 2.061 . S
Co33 O39 2.052 . S
Co33 O41 2.135 . S
O34 Co33 2.061 . S
O34 C37 1.235 . S
C35 O38 1.238 . S
C35 O39 1.241 . S
C36 O29 1.247 . S
C36 O30 1.261 . S
C37 O32 1.259 . S
C37 O34 1.235 . S
O38 Co28 2.021 . S
O38 C35 1.238 . S
O39 Co33 2.052 . S
O39 C35 1.241 . S
O40 Co28 2.137 1_455 S
O40 C31 1.247 1_455 S
O41 Co28 2.244 . S
O41 C31 1.272 . S
O41 Co33 2.135 . S
Co42 O43 2.216 . S
Co42 O44 2.091 . S
Co42 O46 2.004 . S
Co42 O52 2.021 . S
Co42 O54 2.137 . S
Co42 O55 2.244 . S
O43 Co42 2.216 . S
O43 C50 1.247 . S
O44 Co42 2.091 . S
O44 C50 1.261 . S
C45 O54 1.247 . S
C45 O55 1.272 . S
O46 Co42 2.004 . S
O46 C51 1.259 . S
Co47 O48 2.061 . S
Co47 O53 2.052 . S
Co47 O55 2.135 . S
O48 Co47 2.061 . S
O48 C51 1.235 . S
C49 O52 1.238 . S
C49 O53 1.241 . S
C50 O43 1.247 . S
C50 O44 1.261 . S
C51 O46 1.259 . S
C51 O48 1.235 . S
O52 Co42 2.021 . S
O52 C49 1.238 . S
O53 Co47 2.052 . S
O53 C49 1.241 . S
O54 Co42 2.137 . S
O54 C45 1.247 . S
O55 Co42 2.244 . S
O55 C45 1.272 . S
O55 Co47 2.135 . S
Co56 O57 2.216 . S
Co56 O58 2.091 . S
Co56 O60 2.004 . S
Co56 O66 2.021 . S
Co56 O68 2.137 . S
Co56 O69 2.244 . S
O57 Co56 2.216 . S
O57 C64 1.247 . S
O58 Co56 2.091 . S
O58 C64 1.261 . S
C59 O68 1.247 . S
C59 O69 1.272 . S
O60 Co56 2.004 . S
O60 C65 1.259 . S
Co61 O62 2.061 . S
Co61 O67 2.052 . S
Co61 O69 2.135 . S
O62 Co61 2.061 . S
O62 C65 1.235 . S
C63 O66 1.238 . S
C63 O67 1.241 . S
C64 O57 1.247 . S
C64 O58 1.261 . S
C65 O60 1.259 . S
C65 O62 1.235 . S
O66 Co56 2.021 . S
O66 C63 1.238 . S
O67 Co61 2.052 . S
O67 C63 1.241 . S
O68 Co56 2.137 . S
O68 C59 1.247 . S
O69 Co56 2.244 . S
O69 C59 1.272 . S
O69 Co61 2.135 . S
Co70 O71 2.216 1_655 S
Co70 O72 2.091 1_655 S
Co70 O74 2.004 . S
Co70 O80 2.021 . S
Co70 O82 2.137 1_655 S
Co70 O83 2.244 . S
O71 Co70 2.216 1_455 S
O71 C78 1.247 . S
O72 Co70 2.091 1_455 S
O72 C78 1.261 . S
C73 O82 1.247 1_655 S
C73 O83 1.272 . S
O74 Co70 2.004 . S
O74 C79 1.259 . S
Co75 O76 2.061 . S
Co75 O81 2.052 . S
Co75 O83 2.135 . S
O76 Co75 2.061 . S
O76 C79 1.235 . S
C77 O80 1.238 . S
C77 O81 1.241 . S
C78 O71 1.247 . S
C78 O72 1.261 . S
C79 O74 1.259 . S
C79 O76 1.235 . S
O80 Co70 2.021 . S
O80 C77 1.238 . S
O81 Co75 2.052 . S
O81 C77 1.241 . S
O82 Co70 2.137 1_455 S
O82 C73 1.247 1_455 S
O83 Co70 2.244 . S
O83 C73 1.272 . S
O83 Co75 2.135 . S
Co84 O85 2.216 . S
Co84 O86 2.091 . S
Co84 O88 2.004 . S
Co84 O94 2.021 . S
Co84 O96 2.137 . S
Co84 O97 2.244 . S
O85 Co84 2.216 . S
O85 C92 1.247 . S
O86 Co84 2.091 . S
O86 C92 1.261 . S
C87 O96 1.247 . S
C87 O97 1.272 . S
O88 Co84 2.004 . S
O88 C93 1.259 . S
Co89 O90 2.061 . S
Co89 O95 2.052 . S
Co89 O97 2.135 . S
O90 Co89 2.061 . S
O90 C93 1.235 . S
C91 O94 1.238 . S
C91 O95 1.241 . S
C92 O85 1.247 . S
C92 O86 1.261 . S
C93 O88 1.259 . S
C93 O90 1.235 . S
O94 Co84 2.021 . S
O94 C91 1.238 . S
O95 Co89 2.052 . S
O95 C91 1.241 . S
O96 Co84 2.137 . S
O96 C87 1.247 . S
O97 Co84 2.244 . S
O97 C87 1.272 . S
O97 Co89 2.135 . S
Co98 O99 2.216 1_455 S
Co98 O100 2.091 1_455 S
Co98 O102 2.004 . S
Co98 O108 2.021 . S
Co98 O110 2.137 1_455 S
Co98 O111 2.244 . S
O99 Co98 2.216 1_655 S
O99 C106 1.247 . S
O100 Co98 2.091 1_655 S
O100 C106 1.261 . S
C101 O110 1.247 1_455 S
C101 O111 1.272 . S
O102 Co98 2.004 . S
O102 C107 1.259 . S
Co103 O104 2.061 . S
Co103 O109 2.052 . S
Co103 O111 2.135 . S
O104 Co103 2.061 . S
O104 C107 1.235 . S
C105 O108 1.238 . S
C105 O109 1.241 . S
C106 O99 1.247 . S
C106 O100 1.261 . S
C107 O102 1.259 . S
C107 O104 1.235 . S
O108 Co98 2.021 . S
O108 C105 1.238 . S
O109 Co103 2.052 . S
O109 C105 1.241 . S
O110 Co98 2.137 1_655 S
O110 C101 1.247 1_655 S
O111 Co98 2.244 . S
O111 C101 1.272 . S
O111 Co103 2.135 . S
C112 C113 1.386 1_655 S
C112 C114 1.383 . S
C112 H128 0.951 . S
C113 C112 1.386 1_455 S
C113 C117 1.383 . S
C114 C112 1.383 . S
C114 C115 1.402 1_655 S
C114 H129 0.951 . S
C115 C114 1.402 1_455 S
C115 C116 1.375 . S
C115 C118 1.481 . S
C116 C115 1.375 . S
C116 C117 1.367 . S
C116 H130 0.951 . S
C117 C113 1.383 . S
C117 C116 1.367 . S
C117 H131 0.950 . S
C118 C115 1.481 . S
C118 C119 1.297 1_455 S
C118 H132 0.950 . S
C119 C118 1.297 1_655 S
C119 C120 1.479 . S
C119 H133 0.950 . S
C120 C119 1.479 . S
C120 C121 1.375 . S
C120 C126 1.404 1_655 S
C121 C120 1.375 . S
C121 C122 1.369 . S
C121 H134 0.950 . S
C122 C121 1.369 . S
C122 C123 1.392 . S
C122 H135 0.951 . S
C123 C122 1.392 . S
C123 C125 1.384 1_655 S
H124 C126 0.949 . S
C125 C123 1.384 1_455 S
C125 C126 1.385 . S
C125 H127 0.950 . S
C126 C120 1.404 1_455 S
C126 H124 0.949 . S
C126 C125 1.385 . S
H127 C125 0.950 . S
H128 C112 0.951 . S
H129 C114 0.951 . S
H130 C116 0.951 . S
H131 C117 0.950 . S
H132 C118 0.950 . S
H133 C119 0.950 . S
H134 C121 0.950 . S
H135 C122 0.951 . S
C136 C137 1.386 . S
C136 C138 1.383 . S
C136 H152 0.951 . S
C137 C136 1.386 . S
C137 C141 1.383 . S
C138 C136 1.383 . S
C138 C139 1.402 . S
C138 H153 0.951 . S
C139 C138 1.402 . S
C139 C140 1.375 . S
C139 C142 1.481 . S
C140 C139 1.375 . S
C140 C141 1.367 . S
C140 H154 0.951 . S
C141 C137 1.383 . S
C141 C140 1.367 . S
C141 H155 0.950 . S
C142 C139 1.481 . S
C142 C143 1.297 . S
C142 H156 0.950 . S
C143 C142 1.297 . S
C143 C144 1.479 . S
C143 H157 0.950 . S
C144 C143 1.479 . S
C144 C145 1.375 . S
C144 C150 1.404 . S
C145 C144 1.375 . S
C145 C146 1.369 . S
C145 H158 0.950 . S
C146 C145 1.369 . S
C146 C147 1.392 . S
C146 H159 0.951 . S
C147 C146 1.392 . S
C147 C149 1.384 . S
H148 C150 0.949 . S
C149 C147 1.384 . S
C149 C150 1.385 . S
C149 H151 0.950 . S
C150 C144 1.404 . S
C150 H148 0.949 . S
C150 C149 1.385 . S
H151 C149 0.950 . S
H152 C136 0.951 . S
H153 C138 0.951 . S
H154 C140 0.951 . S
H155 C141 0.950 . S
H156 C142 0.950 . S
H157 C143 0.950 . S
H158 C145 0.950 . S
H159 C146 0.951 . S
C160 C161 1.386 . S
C160 C162 1.383 . S
C160 H176 0.951 . S
C161 C160 1.386 . S
C161 C165 1.383 . S
C162 C160 1.383 . S
C162 C163 1.402 . S
C162 H177 0.951 . S
C163 C162 1.402 . S
C163 C164 1.375 . S
C163 C166 1.481 1_545 S
C164 C163 1.375 . S
C164 C165 1.367 . S
C164 H178 0.951 . S
C165 C161 1.383 . S
C165 C164 1.367 . S
C165 H179 0.950 . S
C166 C163 1.481 1_565 S
C166 C167 1.297 1_554 S
C166 H180 0.950 . S
C167 C166 1.297 1_556 S
C167 C168 1.479 . S
C167 H181 0.950 1_565 S
C168 C167 1.479 . S
C168 C169 1.375 . S
C168 C174 1.404 . S
C169 C168 1.375 . S
C169 C170 1.369 . S
C169 H182 0.950 . S
C170 C169 1.369 . S
C170 C171 1.392 . S
C170 H183 0.951 . S
C171 C170 1.392 . S
C171 C173 1.384 . S
H172 C174 0.949 . S
C173 C171 1.384 . S
C173 C174 1.385 . S
C173 H175 0.950 . S
C174 C168 1.404 . S
C174 H172 0.949 . S
C174 C173 1.385 . S
H175 C173 0.950 . S
H176 C160 0.951 . S
H177 C162 0.951 . S
H178 C164 0.951 . S
H179 C165 0.950 . S
H180 C166 0.950 . S
H181 C167 0.950 1_545 S
H182 C169 0.950 . S
H183 C170 0.951 . S
C184 C185 1.386 1_455 S
C184 C186 1.383 . S
C184 H200 0.951 . S
C185 C184 1.386 1_655 S
C185 C189 1.383 . S
C186 C184 1.383 . S
C186 C187 1.402 . S
C186 H201 0.951 . S
C187 C186 1.402 . S
C187 C188 1.375 1_455 S
C187 C190 1.481 1_554 S
C188 C187 1.375 1_655 S
C188 C189 1.367 . S
C188 H202 0.951 1_554 S
C189 C185 1.383 . S
C189 C188 1.367 . S
C189 H203 0.950 . S
C190 C187 1.481 1_556 S
C190 C191 1.298 1_565 S
C190 H204 0.950 . S
C191 C190 1.298 1_545 S
C191 C192 1.502 . S
C191 H205 0.924 1_556 S
C192 C191 1.502 . S
C192 C193 1.375 . S
C192 C198 1.404 . S
C193 C192 1.375 . S
C193 C194 1.369 . S
C193 H206 0.950 1_556 S
C194 C193 1.369 . S
C194 C195 1.392 . S
C194 H207 0.951 . S
C195 C194 1.392 . S
C195 C197 1.384 . S
H196 C198 0.949 . S
C197 C195 1.384 . S
C197 C198 1.385 . S
C197 H199 0.950 . S
C198 C192 1.404 . S
C198 H196 0.949 . S
C198 C197 1.385 . S
H199 C197 0.950 . S
H200 C184 0.951 . S
H201 C186 0.951 . S
H202 C188 0.951 1_556 S
H203 C189 0.950 . S
H204 C190 0.950 . S
H205 C191 0.924 1_554 S
H206 C193 0.950 1_554 S
H207 C194 0.951 . S
C208 C209 1.386 . S
C208 C210 1.383 . S
C208 H224 0.951 . S
C209 C208 1.386 . S
C209 C213 1.383 . S
C210 C208 1.383 . S
C210 C211 1.402 . S
C210 H225 0.951 . S
C211 C210 1.402 . S
C211 C212 1.375 . S
C211 C214 1.481 . S
C212 C211 1.375 . S
C212 C213 1.367 . S
C212 H226 0.951 . S
C213 C209 1.383 . S
C213 C212 1.367 . S
C213 H227 0.950 . S
C214 C211 1.481 . S
C214 C215 1.297 . S
C214 H228 0.950 . S
C215 C214 1.297 . S
C215 C216 1.479 . S
C215 H229 0.950 . S
C216 C215 1.479 . S
C216 C217 1.375 . S
C216 C222 1.404 . S
C217 C216 1.375 . S
C217 C218 1.369 . S
C217 H230 0.950 . S
C218 C217 1.369 . S
C218 C219 1.392 . S
C218 H231 0.951 . S
C219 C218 1.392 . S
C219 C221 1.384 . S
H220 C222 0.949 . S
C221 C219 1.384 . S
C221 C222 1.385 . S
C221 H223 0.950 . S
C222 C216 1.404 . S
C222 H220 0.949 . S
C222 C221 1.385 . S
H223 C221 0.950 . S
H224 C208 0.951 . S
H225 C210 0.951 . S
H226 C212 0.951 . S
H227 C213 0.950 . S
H228 C214 0.950 . S
H229 C215 0.950 . S
H230 C217 0.950 . S
H231 C218 0.951 . S
C232 C233 1.386 . S
C232 C234 1.383 . S
C232 H248 0.951 . S
C233 C232 1.386 . S
C233 C237 1.383 . S
C234 C232 1.383 . S
C234 C235 1.402 . S
C234 H249 0.951 . S
C235 C234 1.402 . S
C235 C236 1.375 . S
C235 C238 1.481 . S
C236 C235 1.375 . S
C236 C237 1.367 . S
C236 H250 0.951 . S
C237 C233 1.383 . S
C237 C236 1.367 . S
C237 H251 0.950 . S
C238 C235 1.481 . S
C238 C239 1.297 . S
C238 H252 0.950 . S
C239 C238 1.297 . S
C239 C240 1.479 . S
C239 H253 0.950 . S
C240 C239 1.479 . S
C240 C241 1.375 . S
C240 C246 1.404 . S
C241 C240 1.375 . S
C241 C242 1.369 . S
C241 H254 0.950 . S
C242 C241 1.369 . S
C242 C243 1.392 . S
C242 H255 0.951 . S
C243 C242 1.392 . S
C243 C245 1.384 . S
H244 C246 0.949 . S
C245 C243 1.384 . S
C245 C246 1.385 . S
C245 H247 0.950 . S
C246 C240 1.404 . S
C246 H244 0.949 . S
C246 C245 1.385 . S
H247 C245 0.950 . S
H248 C232 0.951 . S
H249 C234 0.951 . S
H250 C236 0.951 . S
H251 C237 0.950 . S
H252 C238 0.950 . S
H253 C239 0.950 . S
H254 C241 0.950 . S
H255 C242 0.951 . S
C256 C257 1.386 . S
C256 C258 1.383 . S
C256 H272 0.951 . S
C257 C256 1.386 . S
C257 C261 1.383 . S
C258 C256 1.383 . S
C258 C259 1.402 . S
C258 H273 0.951 . S
C259 C258 1.402 . S
C259 C260 1.375 . S
C259 C262 1.481 . S
C260 C259 1.375 . S
C260 C261 1.367 . S
C260 H274 0.951 . S
C261 C257 1.383 . S
C261 C260 1.367 . S
C261 H275 0.950 . S
C262 C259 1.481 . S
C262 C263 1.297 . S
C262 H276 0.950 . S
C263 C262 1.297 . S
C263 C264 1.479 . S
C263 H277 0.950 . S
C264 C263 1.479 . S
C264 C265 1.375 . S
C264 C270 1.404 . S
C265 C264 1.375 . S
C265 C266 1.369 . S
C265 H278 0.950 . S
C266 C265 1.369 . S
C266 C267 1.392 . S
C266 H279 0.951 . S
C267 C266 1.392 . S
C267 C269 1.384 . S
H268 C270 0.949 . S
C269 C267 1.384 . S
C269 C270 1.385 . S
C269 H271 0.950 . S
C270 C264 1.404 . S
C270 H268 0.949 . S
C270 C269 1.385 . S
H271 C269 0.950 . S
H272 C256 0.951 . S
H273 C258 0.951 . S
H274 C260 0.951 . S
H275 C261 0.950 . S
H276 C262 0.950 . S
H277 C263 0.950 . S
H278 C265 0.950 . S
H279 C266 0.951 . S
C280 C281 1.386 . S
C280 C282 1.383 . S
C280 H296 0.951 . S
C281 C280 1.386 . S
C281 C285 1.383 . S
C282 C280 1.383 . S
C282 C283 1.402 . S
C282 H297 0.951 . S
C283 C282 1.402 . S
C283 C284 1.375 . S
C283 C286 1.481 . S
C284 C283 1.375 . S
C284 C285 1.367 . S
C284 H298 0.951 . S
C285 C281 1.383 . S
C285 C284 1.367 . S
C285 H299 0.950 . S
C286 C283 1.481 . S
C286 C287 1.297 . S
C286 H300 0.950 . S
C287 C286 1.297 . S
C287 C288 1.479 . S
C287 H301 0.950 . S
C288 C287 1.479 . S
C288 C289 1.375 . S
C288 C294 1.404 . S
C289 C288 1.375 . S
C289 C290 1.369 . S
C289 H302 0.950 . S
C290 C289 1.369 . S
C290 C291 1.392 . S
C290 H303 0.951 . S
C291 C290 1.392 . S
C291 C293 1.384 . S
H292 C294 0.949 . S
C293 C291 1.384 . S
C293 C294 1.385 . S
C293 H295 0.950 . S
C294 C288 1.404 . S
C294 H292 0.949 . S
C294 C293 1.385 . S
H295 C293 0.950 . S
H296 C280 0.951 . S
H297 C282 0.951 . S
H298 C284 0.951 . S
H299 C285 0.950 . S
H300 C286 0.950 . S
H301 C287 0.950 . S
H302 C289 0.950 . S
H303 C290 0.951 . S
C304 C305 1.386 . S
C304 C306 1.383 . S
C304 H320 0.951 . S
C305 C304 1.386 . S
C305 C309 1.383 . S
C306 C304 1.383 . S
C306 C307 1.402 . S
C306 H321 0.951 . S
C307 C306 1.402 . S
C307 C308 1.375 . S
C307 C310 1.481 . S
C308 C307 1.375 . S
C308 C309 1.367 . S
C308 H322 0.951 . S
C309 C305 1.383 . S
C309 C308 1.367 . S
C309 H323 0.950 . S
C310 C307 1.481 . S
C310 C311 1.297 . S
C310 H324 0.950 . S
C311 C310 1.297 . S
C311 C312 1.479 . S
C311 H325 0.950 . S
C312 C311 1.479 . S
C312 C313 1.375 . S
C312 C318 1.404 . S
C313 C312 1.375 . S
C313 C314 1.369 . S
C313 H326 0.950 . S
C314 C313 1.369 . S
C314 C315 1.392 . S
C314 H327 0.951 . S
C315 C314 1.392 . S
C315 C317 1.384 . S
H316 C318 0.949 . S
C317 C315 1.384 . S
C317 C318 1.385 . S
C317 H319 0.950 . S
C318 C312 1.404 . S
C318 H316 0.949 . S
C318 C317 1.385 . S
H319 C317 0.950 . S
H320 C304 0.951 . S
H321 C306 0.951 . S
H322 C308 0.951 . S
H323 C309 0.950 . S
H324 C310 0.950 . S
H325 C311 0.950 . S
H326 C313 0.950 . S
H327 C314 0.951 . S
C328 C329 1.386 . S
C328 C330 1.383 . S
C328 H344 0.951 . S
C329 C328 1.386 . S
C329 C333 1.383 . S
C330 C328 1.383 . S
C330 C331 1.402 . S
C330 H345 0.951 . S
C331 C330 1.402 . S
C331 C332 1.375 . S
C331 C334 1.481 . S
C332 C331 1.375 . S
C332 C333 1.367 . S
C332 H346 0.951 . S
C333 C329 1.383 . S
C333 C332 1.367 . S
C333 H347 0.950 . S
C334 C331 1.481 . S
C334 C335 1.297 . S
C334 H348 0.950 . S
C335 C334 1.297 . S
C335 C336 1.479 . S
C335 H349 0.950 . S
C336 C335 1.479 . S
C336 C337 1.375 . S
C336 C342 1.404 . S
C337 C336 1.375 . S
C337 C338 1.369 . S
C337 H350 0.950 . S
C338 C337 1.369 . S
C338 C339 1.392 . S
C338 H351 0.951 . S
C339 C338 1.392 . S
C339 C341 1.384 . S
H340 C342 0.949 . S
C341 C339 1.384 . S
C341 C342 1.385 . S
C341 H343 0.950 . S
C342 C336 1.404 . S
C342 H340 0.949 . S
C342 C341 1.385 . S
H343 C341 0.950 . S
H344 C328 0.951 . S
H345 C330 0.951 . S
H346 C332 0.951 . S
H347 C333 0.950 . S
H348 C334 0.950 . S
H349 C335 0.950 . S
H350 C337 0.950 . S
H351 C338 0.951 . S
C352 C353 1.386 . S
C352 C354 1.383 . S
C352 H368 0.951 . S
C353 C352 1.386 . S
C353 C357 1.383 . S
C354 C352 1.383 . S
C354 C355 1.402 . S
C354 H369 0.951 . S
C355 C354 1.402 . S
C355 C356 1.375 . S
C355 C358 1.481 . S
C356 C355 1.375 . S
C356 C357 1.367 . S
C356 H370 0.951 . S
C357 C353 1.383 . S
C357 C356 1.367 . S
C357 H371 0.950 . S
C358 C355 1.481 . S
C358 C359 1.297 . S
C358 H372 0.950 . S
C359 C358 1.297 . S
C359 C360 1.479 . S
C359 H373 0.950 . S
C360 C359 1.479 . S
C360 C361 1.375 . S
C360 C366 1.404 . S
C361 C360 1.375 . S
C361 C362 1.369 . S
C361 H374 0.950 . S
C362 C361 1.369 . S
C362 C363 1.392 . S
C362 H375 0.951 . S
C363 C362 1.392 . S
C363 C365 1.384 . S
H364 C366 0.949 . S
C365 C363 1.384 . S
C365 C366 1.385 . S
C365 H367 0.950 . S
C366 C360 1.404 . S
C366 H364 0.949 . S
C366 C365 1.385 . S
H367 C365 0.950 . S
H368 C352 0.951 . S
H369 C354 0.951 . S
H370 C356 0.951 . S
H371 C357 0.950 . S
H372 C358 0.950 . S
H373 C359 0.950 . S
H374 C361 0.950 . S
H375 C362 0.951 . S
C376 C377 1.386 . S
C376 C378 1.383 . S
C376 H392 0.951 . S
C377 C376 1.386 . S
C377 C381 1.383 . S
C378 C376 1.383 . S
C378 C379 1.402 . S
C378 H393 0.951 . S
C379 C378 1.402 . S
C379 C380 1.375 . S
C379 C382 1.481 . S
C380 C379 1.375 . S
C380 C381 1.367 . S
C380 H394 0.951 . S
C381 C377 1.383 . S
C381 C380 1.367 . S
C381 H395 0.950 . S
C382 C379 1.481 . S
C382 C383 1.297 . S
C382 H396 0.950 . S
C383 C382 1.297 . S
C383 C384 1.479 . S
C383 H397 0.950 . S
C384 C383 1.479 . S
C384 C385 1.375 . S
C384 C390 1.404 . S
C385 C384 1.375 . S
C385 C386 1.369 . S
C385 H398 0.950 . S
C386 C385 1.369 . S
C386 C387 1.392 . S
C386 H399 0.951 . S
C387 C386 1.392 . S
C387 C389 1.384 . S
H388 C390 0.949 . S
C389 C387 1.384 . S
C389 C390 1.385 . S
C389 H391 0.950 . S
C390 C384 1.404 . S
C390 H388 0.949 . S
C390 C389 1.385 . S
H391 C389 0.950 . S
H392 C376 0.951 . S
H393 C378 0.951 . S
H394 C380 0.951 . S
H395 C381 0.950 . S
H396 C382 0.950 . S
H397 C383 0.950 . S
H398 C385 0.950 . S
H399 C386 0.951 . S
C400 C401 1.386 . S
C400 C402 1.383 . S
C400 H416 0.951 . S
C401 C400 1.386 . S
C401 C405 1.383 . S
C402 C400 1.383 . S
C402 C403 1.402 . S
C402 H417 0.951 . S
C403 C402 1.402 . S
C403 C404 1.375 . S
C403 C406 1.481 . S
C404 C403 1.375 . S
C404 C405 1.367 . S
C404 H418 0.951 . S
C405 C401 1.383 . S
C405 C404 1.367 . S
C405 H419 0.950 . S
C406 C403 1.481 . S
C406 C407 1.297 . S
C406 H420 0.950 . S
C407 C406 1.297 . S
C407 C408 1.479 . S
C407 H421 0.950 . S
C408 C407 1.479 . S
C408 C409 1.375 . S
C408 C414 1.404 . S
C409 C408 1.375 . S
C409 C410 1.369 . S
C409 H422 0.950 . S
C410 C409 1.369 . S
C410 C411 1.392 . S
C410 H423 0.951 . S
C411 C410 1.392 . S
C411 C413 1.384 . S
H412 C414 0.949 . S
C413 C411 1.384 . S
C413 C414 1.385 . S
C413 H415 0.950 . S
C414 C408 1.404 . S
C414 H412 0.949 . S
C414 C413 1.385 . S
H415 C413 0.950 . S
H416 C400 0.951 . S
H417 C402 0.951 . S
H418 C404 0.951 . S
H419 C405 0.950 . S
H420 C406 0.950 . S
H421 C407 0.950 . S
H422 C409 0.950 . S
H423 C410 0.951 . S
C424 C425 1.386 . S
C424 C426 1.383 . S
C424 H440 0.951 . S
C425 C424 1.386 . S
C425 C429 1.383 . S
C426 C424 1.383 . S
C426 C427 1.402 . S
C426 H441 0.951 . S
C427 C426 1.402 . S
C427 C428 1.375 . S
C427 C430 1.481 . S
C428 C427 1.375 . S
C428 C429 1.367 . S
C428 H442 0.951 . S
C429 C425 1.383 . S
C429 C428 1.367 . S
C429 H443 0.950 . S
C430 C427 1.481 . S
C430 C431 1.297 . S
C430 H444 0.950 . S
C431 C430 1.297 . S
C431 C432 1.479 . S
C431 H445 0.950 . S
C432 C431 1.479 . S
C432 C433 1.375 . S
C432 C438 1.404 . S
C433 C432 1.375 . S
C433 C434 1.369 . S
C433 H446 0.950 . S
C434 C433 1.369 . S
C434 C435 1.392 . S
C434 H447 0.951 . S
C435 C434 1.392 . S
C435 C437 1.384 . S
H436 C438 0.949 . S
C437 C435 1.384 . S
C437 C438 1.385 . S
C437 H439 0.950 . S
C438 C432 1.404 . S
C438 H436 0.949 . S
C438 C437 1.385 . S
H439 C437 0.950 . S
H440 C424 0.951 . S
H441 C426 0.951 . S
H442 C428 0.951 . S
H443 C429 0.950 . S
H444 C430 0.950 . S
H445 C431 0.950 . S
H446 C433 0.950 . S
H447 C434 0.951 . S
C448 C449 1.386 . S
C448 C450 1.383 . S
C448 H464 0.951 . S
C449 C448 1.386 . S
C449 C453 1.383 . S
C450 C448 1.383 . S
C450 C451 1.402 . S
C450 H465 0.951 . S
C451 C450 1.402 . S
C451 C452 1.375 . S
C451 C454 1.481 . S
C452 C451 1.375 . S
C452 C453 1.367 . S
C452 H466 0.951 . S
C453 C449 1.383 . S
C453 C452 1.367 . S
C453 H467 0.950 . S
C454 C451 1.481 . S
C454 C455 1.296 . S
C454 H468 0.950 . S
C455 C454 1.296 . S
C455 C456 1.481 1_554 S
C455 H469 0.950 . S
C456 C455 1.481 1_556 S
C456 C457 1.375 . S
C456 C462 1.404 . S
C457 C456 1.375 . S
C457 C458 1.369 . S
C457 H470 0.950 . S
C458 C457 1.369 . S
C458 C459 1.392 . S
C458 H471 0.951 . S
C459 C458 1.392 . S
C459 C461 1.384 . S
H460 C462 0.949 . S
C461 C459 1.384 . S
C461 C462 1.385 . S
C461 H463 0.950 . S
C462 C456 1.404 . S
C462 H460 0.949 . S
C462 C461 1.385 . S
H463 C461 0.950 . S
H464 C448 0.951 . S
H465 C450 0.951 . S
H466 C452 0.951 . S
H467 C453 0.950 . S
H468 C454 0.950 . S
H469 C455 0.950 . S
H470 C457 0.950 . S
H471 C458 0.951 . S
C472 C473 1.386 . S
C472 C474 1.383 . S
C472 H488 0.951 . S
C473 C472 1.386 . S
C473 C477 1.383 . S
C474 C472 1.383 . S
C474 C475 1.402 . S
C474 H489 0.951 . S
C475 C474 1.402 . S
C475 C476 1.375 . S
C475 C478 1.481 1_554 S
C476 C475 1.375 . S
C476 C477 1.367 . S
C476 H490 0.951 . S
C477 C473 1.383 . S
C477 C476 1.367 . S
C477 H491 0.950 . S
C478 C475 1.481 1_556 S
C478 C479 1.297 . S
C478 H492 0.950 . S
C479 C478 1.297 . S
C479 C480 1.479 . S
C479 H493 0.950 . S
C480 C479 1.479 . S
C480 C481 1.375 . S
C480 C486 1.404 . S
C481 C480 1.375 . S
C481 C482 1.369 . S
C481 H494 0.950 . S
C482 C481 1.369 . S
C482 C483 1.392 . S
C482 H495 0.951 . S
C483 C482 1.392 . S
C483 C485 1.384 . S
H484 C486 0.949 . S
C485 C483 1.384 . S
C485 C486 1.385 . S
C485 H487 0.950 . S
C486 C480 1.404 . S
C486 H484 0.949 . S
C486 C485 1.385 . S
H487 C485 0.950 . S
H488 C472 0.951 . S
H489 C474 0.951 . S
H490 C476 0.951 . S
H491 C477 0.950 . S
H492 C478 0.950 . S
H493 C479 0.950 . S
H494 C481 0.950 . S
H495 C482 0.951 . S
C113 C3 1.535 . S
C123 C31 1.559 . S
C137 C45 1.540 . S
C147 C17 1.564 . S
C161 C87 1.562 . S
C171 C59 1.522 . S
C185 C73 1.540 . S
C195 C101 1.532 . S
C209 C92 1.776 . S
C219 C8 1.801 . S
C233 C22 1.776 . S
C243 C106 1.806 . S
C257 C36 1.812 . S
C267 C64 1.767 . S
C281 C50 1.802 . S
C291 C78 1.754 . S
C305 C91 1.489 . S
C315 C7 1.546 . S
C329 C21 1.518 . S
C339 C105 1.536 . S
C353 C63 1.503 . S
C363 C35 1.549 . S
C377 C77 1.517 . S
C387 C49 1.461 . S
C401 C23 0.633 . S
C411 C9 0.482 . S
C425 C37 0.510 . S
C435 C51 0.554 . S
C449 C79 0.451 . S
C459 C65 0.684 . S
C473 C93 0.508 . S
C483 C107 0.551 . S
