# Generated by pormake.
# Topology umg, (4)-cn, num edge types: 1
# Building blocks:
#     Node 0, Type 0, BuildingBlock: CEKHIL_clean_sbu_0, # of connection points: 4
#     Node 1, Type 0, BuildingBlock: CEKHIL_clean_sbu_0, # of connection points: 4
#     Node 2, Type 0, BuildingBlock: CEKHIL_clean_sbu_0, # of connection points: 4
#     Node 3, Type 0, BuildingBlock: CEKHIL_clean_sbu_0, # of connection points: 4
#     Node 4, Type 0, BuildingBlock: CEKHIL_clean_sbu_0, # of connection points: 4
#     Node 5, Type 0, BuildingBlock: CEKHIL_clean_sbu_0, # of connection points: 4
#     Node 6, Type 0, BuildingBlock: CEKHIL_clean_sbu_0, # of connection points: 4
#     Node 7, Type 0, BuildingBlock: CEKHIL_clean_sbu_0, # of connection points: 4
#     Node 8, Type 0, BuildingBlock: CEKHIL_clean_sbu_0, # of connection points: 4
#     Node 9, Type 0, BuildingBlock: CEKHIL_clean_sbu_0, # of connection points: 4
#     Node 10, Type 0, BuildingBlock: CEKHIL_clean_sbu_0, # of connection points: 4
#     Node 11, Type 0, BuildingBlock: CEKHIL_clean_sbu_0, # of connection points: 4
#     Edge 12, Type (0, 0), BuildingBlock: TEMPAE_clean_linker_10, # of connection points: 2
#     Edge 13, Type (0, 0), BuildingBlock: TEMPAE_clean_linker_10, # of connection points: 2
#     Edge 14, Type (0, 0), BuildingBlock: TEMPAE_clean_linker_10, # of connection points: 2
#     Edge 15, Type (0, 0), BuildingBlock: TEMPAE_clean_linker_10, # of connection points: 2
#     Edge 16, Type (0, 0), BuildingBlock: TEMPAE_clean_linker_10, # of connection points: 2
#     Edge 17, Type (0, 0), BuildingBlock: TEMPAE_clean_linker_10, # of connection points: 2
#     Edge 18, Type (0, 0), BuildingBlock: TEMPAE_clean_linker_10, # of connection points: 2
#     Edge 19, Type (0, 0), BuildingBlock: TEMPAE_clean_linker_10, # of connection points: 2
#     Edge 20, Type (0, 0), BuildingBlock: TEMPAE_clean_linker_10, # of connection points: 2
#     Edge 21, Type (0, 0), BuildingBlock: TEMPAE_clean_linker_10, # of connection points: 2
#     Edge 22, Type (0, 0), BuildingBlock: TEMPAE_clean_linker_10, # of connection points: 2
#     Edge 23, Type (0, 0), BuildingBlock: TEMPAE_clean_linker_10, # of connection points: 2
#     Edge 24, Type (0, 0), BuildingBlock: TEMPAE_clean_linker_10, # of connection points: 2
#     Edge 25, Type (0, 0), BuildingBlock: TEMPAE_clean_linker_10, # of connection points: 2
#     Edge 26, Type (0, 0), BuildingBlock: TEMPAE_clean_linker_10, # of connection points: 2
#     Edge 27, Type (0, 0), BuildingBlock: TEMPAE_clean_linker_10, # of connection points: 2
#     Edge 28, Type (0, 0), BuildingBlock: TEMPAE_clean_linker_10, # of connection points: 2
#     Edge 29, Type (0, 0), BuildingBlock: TEMPAE_clean_linker_10, # of connection points: 2
#     Edge 30, Type (0, 0), BuildingBlock: TEMPAE_clean_linker_10, # of connection points: 2
#     Edge 31, Type (0, 0), BuildingBlock: TEMPAE_clean_linker_10, # of connection points: 2
#     Edge 32, Type (0, 0), BuildingBlock: TEMPAE_clean_linker_10, # of connection points: 2
#     Edge 33, Type (0, 0), BuildingBlock: TEMPAE_clean_linker_10, # of connection points: 2
#     Edge 34, Type (0, 0), BuildingBlock: TEMPAE_clean_linker_10, # of connection points: 2
#     Edge 35, Type (0, 0), BuildingBlock: TEMPAE_clean_linker_10, # of connection points: 2
# Relax obj value: 0.086
# Max RMSD: 0.320
# Mean RMSD: 0.204
data_MOF--net-umg--node1-CEKHIL_clean_sbu_0--edge1-TEMPAE_clean_linker_10
_symmetry_space_group_name_H-M    P1
_symmetry_Int_Tables_number       1
_symmetry_cell_setting            triclinic
loop_
_symmetry_equiv_pos_as_xyz
'x, y, z'
_cell_length_a     28.616047
_cell_length_b     28.604946
_cell_length_c     83.728293
_cell_angle_alpha  92.225849
_cell_angle_beta   92.176278
_cell_angle_gamma 120.53056
loop_
_atom_site_label
_atom_site_type_symbol
_atom_site_fract_x
_atom_site_fract_y
_atom_site_fract_z
_atom_type_partial_charge
Co0 Co 0.30847 0.56727 0.0739 0.0
O1 O 0.38231 0.58358 0.07561 0.0
O2 O 0.31694 0.51388 0.06082 0.0
C3 C 0.30183 0.57641 0.10031 0.0
O4 O 0.22631 0.53878 0.07037 0.0
Co5 Co 0.28777 0.65976 0.08491 0.0
O6 O 0.21226 0.59769 0.08516 0.0
C7 C 0.33058 0.66215 0.05342 0.0
C8 C 0.36789 0.54095 0.0662 0.0
C9 C 0.19457 0.55262 0.07702 0.0
O10 O 0.32496 0.6152 0.05543 0.0
O11 O 0.32139 0.68879 0.06424 0.0
O12 O 0.29422 0.53096 0.09381 0.0
O13 O 0.31881 0.61626 0.09105 0.0
Co14 Co 0.75715 0.32735 0.41268 0.0
O15 O 0.8201 0.39906 0.41431 0.0
O16 O 0.81631 0.32826 0.40143 0.0
C17 C 0.74052 0.32612 0.4388 0.0
O18 O 0.69767 0.24641 0.40943 0.0
Co19 Co 0.64708 0.31756 0.41961 0.0
O20 O 0.62178 0.23897 0.41899 0.0
C21 C 0.68998 0.35044 0.38816 0.0
C22 C 0.84467 0.37985 0.40608 0.0
C23 C 0.64777 0.21764 0.4132 0.0
O24 O 0.72972 0.34373 0.39242 0.0
O25 O 0.65372 0.34515 0.39761 0.0
O26 O 0.77592 0.31408 0.43393 0.0
O27 O 0.72083 0.344 0.42808 0.0
Co28 Co 0.37992 0.73593 0.74515 0.0
O29 O 0.37168 0.79848 0.7468 0.0
O30 O 0.44111 0.79854 0.73623 0.0
C31 C 0.35901 0.71213 0.77036 0.0
O32 O 0.40092 0.677 0.74226 0.0
Co33 Co 0.27656 0.62386 0.7476 0.0
O34 O 0.32976 0.59933 0.74966 0.0
C35 C 0.29465 0.67481 0.71707 0.0
C36 C 0.41699 0.82537 0.74004 0.0
C37 C 0.37852 0.62644 0.74554 0.0
O38 O 0.34005 0.71399 0.72342 0.0
O39 O 0.26115 0.63505 0.72487 0.0
O40 O 0.40802 0.74899 0.76738 0.0
O41 O 0.32306 0.69532 0.75839 0.0
Co42 Co 0.67946 0.36396 0.07715 0.0
O43 O 0.61055 0.35884 0.0794 0.0
O44 O 0.67807 0.42458 0.06747 0.0
C45 C 0.68974 0.34652 0.10261 0.0
O46 O 0.75757 0.38165 0.07344 0.0
Co47 Co 0.68376 0.25921 0.08072 0.0
O48 O 0.76313 0.30954 0.0807 0.0
C49 C 0.63942 0.27286 0.05045 0.0
C50 C 0.62842 0.40281 0.07191 0.0
C51 C 0.78506 0.35778 0.07612 0.0
O52 O 0.65147 0.32033 0.05608 0.0
O53 O 0.64671 0.23988 0.05858 0.0
O54 O 0.70362 0.39547 0.09898 0.0
O55 O 0.66524 0.30901 0.0911 0.0
Co56 Co 0.33749 0.69417 0.40932 0.0
O57 O 0.27748 0.62199 0.41109 0.0
O58 O 0.27175 0.6845 0.39797 0.0
C59 C 0.3658 0.70936 0.4353 0.0
O60 O 0.39271 0.77429 0.40591 0.0
Co61 Co 0.45359 0.71504 0.41653 0.0
O62 O 0.47148 0.79178 0.41856 0.0
C63 C 0.39632 0.66146 0.38553 0.0
C64 C 0.24746 0.63514 0.40274 0.0
C65 C 0.44177 0.8076 0.41179 0.0
O66 O 0.35749 0.66897 0.38942 0.0
O67 O 0.4379 0.67446 0.395 0.0
O68 O 0.32683 0.71697 0.4303 0.0
O69 O 0.38249 0.68761 0.42484 0.0
Co70 Co 0.58842 0.31648 0.74356 0.0
O71 O 0.60138 0.25751 0.7457 0.0
O72 O 0.53359 0.25114 0.73054 0.0
C73 C 0.59744 0.33934 0.76986 0.0
O74 O 0.56378 0.37199 0.73978 0.0
Co75 Co 0.68549 0.43147 0.75442 0.0
O76 O 0.62658 0.4486 0.75409 0.0
C77 C 0.68585 0.38096 0.72335 0.0
C78 C 0.55873 0.22734 0.73625 0.0
C79 C 0.58065 0.4204 0.74622 0.0
O80 O 0.63731 0.34185 0.72523 0.0
O81 O 0.71403 0.41932 0.73413 0.0
O82 O 0.55136 0.30046 0.76333 0.0
O83 O 0.63771 0.35859 0.76073 0.0
Co84 Co 0.44336 0.71685 0.58011 0.0
O85 O 0.43045 0.64418 0.57813 0.0
O86 O 0.49826 0.71087 0.59321 0.0
C87 C 0.43364 0.72315 0.55368 0.0
O88 O 0.46866 0.79834 0.58379 0.0
Co89 Co 0.34806 0.73312 0.56923 0.0
O90 O 0.40801 0.80961 0.56897 0.0
C91 C 0.34777 0.69118 0.60071 0.0
C92 C 0.47344 0.66025 0.58752 0.0
C93 C 0.45328 0.82889 0.57712 0.0
O94 O 0.39507 0.69794 0.59857 0.0
O95 O 0.32033 0.69974 0.59001 0.0
O96 O 0.47984 0.73295 0.56022 0.0
O97 O 0.39372 0.70469 0.56295 0.0
Co98 Co 0.67627 0.41742 0.91454 0.0
O99 O 0.73822 0.40991 0.91169 0.0
O100 O 0.74082 0.47528 0.92719 0.0
C101 C 0.65085 0.40636 0.88836 0.0
O102 O 0.61696 0.43633 0.919 0.0
Co103 Co 0.56459 0.31449 0.90445 0.0
O104 O 0.54005 0.36771 0.90637 0.0
C105 C 0.62042 0.31898 0.93496 0.0
C106 C 0.76692 0.45316 0.92105 0.0
C107 C 0.56636 0.41452 0.91386 0.0
O108 O 0.65612 0.36883 0.93295 0.0
O109 O 0.58226 0.28843 0.92439 0.0
O110 O 0.6876 0.45382 0.89471 0.0
O111 O 0.63526 0.36659 0.89758 0.0
Co112 Co 0.3096 0.66565 0.24416 0.0
O113 O 0.38018 0.72784 0.2421 0.0
O114 O 0.31636 0.73052 0.25537 0.0
C115 C 0.29507 0.63651 0.21821 0.0
O116 O 0.23045 0.60736 0.24775 0.0
Co117 Co 0.29646 0.5524 0.23736 0.0
O118 O 0.21824 0.52888 0.2364 0.0
C119 C 0.34891 0.61236 0.26807 0.0
C120 C 0.36543 0.75658 0.25041 0.0
C121 C 0.19951 0.55685 0.24265 0.0
O122 O 0.33744 0.64856 0.26415 0.0
O123 O 0.3388 0.57149 0.25867 0.0
O124 O 0.28492 0.67386 0.22311 0.0
O125 O 0.31876 0.62216 0.22876 0.0
Co126 Co 0.64992 0.34768 0.58034 0.0
O127 O 0.65823 0.41822 0.57896 0.0
O128 O 0.58939 0.35023 0.58974 0.0
C129 C 0.66884 0.33916 0.55497 0.0
O130 O 0.62948 0.26819 0.58311 0.0
Co131 Co 0.75368 0.3412 0.57705 0.0
O132 O 0.70109 0.26201 0.57567 0.0
C133 C 0.73816 0.38211 0.60767 0.0
C134 C 0.61368 0.40093 0.58611 0.0
C135 C 0.65246 0.24013 0.57993 0.0
O136 O 0.69154 0.37172 0.60177 0.0
O137 O 0.77151 0.37532 0.59956 0.0
O138 O 0.62008 0.32682 0.55829 0.0
O139 O 0.70571 0.36197 0.5667 0.0
Co140 Co 0.255 0.62262 0.91118 0.0
O141 O 0.19596 0.63656 0.91031 0.0
O142 O 0.19245 0.56643 0.9215 0.0
C143 C 0.27404 0.63726 0.88535 0.0
O144 O 0.30944 0.59587 0.91368 0.0
Co145 Co 0.37028 0.71766 0.90589 0.0
O146 O 0.38647 0.65831 0.90323 0.0
C147 C 0.32724 0.71047 0.93754 0.0
C148 C 0.16811 0.59311 0.91786 0.0
C149 C 0.35749 0.61209 0.90888 0.0
O150 O 0.28397 0.66642 0.93221 0.0
O151 O 0.36646 0.739 0.9288 0.0
O152 O 0.23553 0.59032 0.88931 0.0
O153 O 0.29587 0.67526 0.89681 0.0
Co154 Co 0.67713 0.24849 0.24455 0.0
O155 O 0.60429 0.1874 0.24322 0.0
O156 O 0.67388 0.18791 0.25565 0.0
C157 C 0.67858 0.2652 0.2185 0.0
O158 O 0.7589 0.30603 0.24737 0.0
Co159 Co 0.69077 0.36031 0.23771 0.0
O160 O 0.7677 0.38062 0.23642 0.0
C161 C 0.65831 0.31852 0.26928 0.0
C162 C 0.62208 0.16124 0.25124 0.0
C163 C 0.78836 0.35425 0.24237 0.0
O164 O 0.66314 0.27764 0.26495 0.0
O165 O 0.66458 0.35516 0.25985 0.0
O166 O 0.6886 0.22833 0.22325 0.0
O167 O 0.66188 0.28604 0.22925 0.0
C168 C 0.28806 0.69984 0.96411 0.0
C169 C 0.3338 0.72409 0.95503 0.0
C170 C 0.29364 0.70071 0.98082 0.0
C171 C 0.3463 0.72664 0.98866 0.0
C172 C 0.39251 0.75563 0.97973 0.0
C173 C 0.38573 0.75403 0.96296 0.0
C174 C 0.24318 0.66978 0.9899 0.0
C175 C 0.44926 0.78458 0.98769 0.0
C176 C 0.34548 0.73256 0.03398 0.0
C177 C 0.34371 0.68395 0.03736 0.0
C178 C 0.35002 0.74921 0.01826 0.0
C179 C 0.35241 0.71629 0.00565 0.0
C180 C 0.3542 0.66915 0.00913 0.0
C181 C 0.35004 0.6537 0.02492 0.0
C182 C 0.34905 0.80028 0.01506 0.0
C183 C 0.35699 0.63297 -0.00398 0.0
H184 H 0.24773 0.67738 0.95809 0.0
H185 H 0.42132 0.77305 0.95604 0.0
H186 H 0.24137 0.63283 0.99431 0.0
H187 H 0.24438 0.69493 0.00049 0.0
H188 H 0.20538 0.65699 0.98232 0.0
H189 H 0.4795 0.81373 0.9798 0.0
H190 H 0.4512 0.80684 -0.00092 0.0
H191 H 0.46093 0.75422 0.99062 0.0
H192 H 0.34123 0.75664 0.0435 0.0
H193 H 0.34941 0.61646 0.02737 0.0
H194 H 0.30859 0.78912 0.0095 0.0
H195 H 0.37978 0.82453 0.00653 0.0
H196 H 0.35681 0.82612 0.02623 0.0
H197 H 0.31885 0.61364 0.98818 0.0
H198 H 0.36251 0.60034 0.00085 0.0
H199 H 0.39102 0.65734 0.98843 0.0
C200 C 0.72578 0.37191 0.36102 0.0
C201 C 0.68327 0.35898 0.37107 0.0
C202 C 0.71751 0.37053 0.34437 0.0
C203 C 0.66542 0.3558 0.33756 0.0
C204 C 0.62336 0.34646 0.34766 0.0
C205 C 0.63281 0.34824 0.36433 0.0
C206 C 0.76369 0.3814 0.33403 0.0
C207 C 0.56742 0.33109 0.34084 0.0
C208 C 0.66206 0.37668 0.29312 0.0
C209 C 0.65048 0.32583 0.28642 0.0
C210 C 0.66398 0.38639 0.30978 0.0
C211 C 0.65395 0.34425 0.31992 0.0
C212 C 0.63849 0.29186 0.31315 0.0
C213 C 0.63696 0.28331 0.2965 0.0
C214 C 0.68012 0.44264 0.31656 0.0
C215 C 0.62685 0.24558 0.32353 0.0
H216 H 0.76514 0.38098 0.36612 0.0
H217 H 0.5997 0.3383 0.37197 0.0
H218 H 0.75428 0.34312 0.32728 0.0
H219 H 0.76868 0.41108 0.32513 0.0
H220 H 0.8029 0.39739 0.3412 0.0
H221 H 0.54208 0.33368 0.35017 0.0
H222 H 0.57016 0.35774 0.3312 0.0
H223 H 0.54649 0.28871 0.33545 0.0
H224 H 0.67241 0.40979 0.28545 0.0
H225 H 0.62722 0.24367 0.29144 0.0
H226 H 0.72235 0.46301 0.32202 0.0
H227 H 0.65344 0.44042 0.32613 0.0
H228 H 0.67824 0.46821 0.30719 0.0
H229 H 0.66487 0.25452 0.33033 0.0
H230 H 0.61045 0.20622 0.3164 0.0
H231 H 0.59723 0.24111 0.3324 0.0
C232 C 0.25184 0.62398 0.69053 0.0
C233 C 0.28461 0.67351 0.69954 0.0
C234 C 0.25187 0.62108 0.67373 0.0
C235 C 0.28524 0.66883 0.66585 0.0
C236 C 0.31477 0.71954 0.67482 0.0
C237 C 0.31411 0.72123 0.69154 0.0
C238 C 0.21939 0.56637 0.66455 0.0
C239 C 0.35037 0.77158 0.66688 0.0
C240 C 0.35443 0.66555 0.62857 0.0
C241 C 0.3263 0.67714 0.61678 0.0
C242 C 0.33942 0.65973 0.64443 0.0
C243 C 0.29509 0.66555 0.64865 0.0
C244 C 0.26439 0.67388 0.63665 0.0
C245 C 0.28036 0.6796 0.62085 0.0
C246 C 0.37302 0.65043 0.65686 0.0
C247 C 0.2166 0.67981 0.64066 0.0
H248 H 0.2289 0.58691 0.69661 0.0
H249 H 0.33894 0.7598 0.69841 0.0
H250 H 0.19828 0.56923 0.65357 0.0
H251 H 0.2473 0.55245 0.66074 0.0
H252 H 0.18877 0.53519 0.67193 0.0
H253 H 0.36606 0.80813 0.67531 0.0
H254 H 0.38559 0.77051 0.66218 0.0
H255 H 0.32753 0.77573 0.65657 0.0
H256 H 0.38956 0.66288 0.62556 0.0
H257 H 0.25808 0.68823 0.61184 0.0
H258 H 0.34635 0.61564 0.66391 0.0
H259 H 0.39522 0.68693 0.66533 0.0
H260 H 0.40317 0.64221 0.65141 0.0
H261 H 0.18973 0.64758 0.64845 0.0
H262 H 0.19221 0.6779 0.62975 0.0
H263 H 0.23152 0.71955 0.64739 0.0
C264 C 0.59664 0.28468 0.0258 0.0
C265 C 0.62163 0.25924 0.03328 0.0
C266 C 0.59083 0.28326 0.0091 0.0
C267 C 0.61086 0.25599 -0.00035 0.0
C268 C 0.63175 0.22617 0.0071 0.0
C269 C 0.63676 0.22799 0.02391 0.0
C270 C 0.56746 0.31489 0.00164 0.0
C271 C 0.653 0.19618 -0.00258 0.0
C272 C 0.57639 0.24915 0.95515 0.0
C273 C 0.6213 0.29759 0.95074 0.0
C274 C 0.5737 0.23286 0.97086 0.0
C275 C 0.61692 0.26577 0.98237 0.0
C276 C 0.6639 0.31259 0.9777 0.0
C277 C 0.6655 0.32793 0.96196 0.0
C278 C 0.52321 0.18239 0.97536 0.0
C279 C 0.7112 0.34853 0.98958 0.0
H280 H 0.58419 0.30825 0.03303 0.0
H281 H 0.65614 0.20828 0.02966 0.0
H282 H 0.60042 0.35147 -0.00349 0.0
H283 H 0.53688 0.28994 0.99171 0.0
H284 H 0.548 0.32834 0.01049 0.0
H285 H 0.65785 0.16684 0.00458 0.0
H286 H 0.62551 0.17398 0.98664 0.0
H287 H 0.69329 0.22592 0.99326 0.0
H288 H 0.54214 0.22516 0.94655 0.0
H289 H 0.70075 0.36492 0.95862 0.0
H290 H 0.49839 0.19436 0.98238 0.0
H291 H 0.53395 0.15796 0.983 0.0
H292 H 0.49787 0.15645 0.96464 0.0
H293 H 0.69845 0.36889 -0.00151 0.0
H294 H 0.74667 0.38036 0.98372 0.0
H295 H 0.72424 0.32382 -0.00378 0.0
C296 C 0.36631 0.57084 0.29175 0.0
C297 C 0.37062 0.61651 0.28472 0.0
C298 C 0.37755 0.57227 0.30831 0.0
C299 C 0.39328 0.62038 0.31793 0.0
C300 C 0.40213 0.66782 0.31066 0.0
C301 C 0.39075 0.6653 0.29415 0.0
C302 C 0.36865 0.52119 0.31561 0.0
C303 C 0.41941 0.7202 0.32046 0.0
C304 C 0.34524 0.61838 0.35929 0.0
C305 C 0.39404 0.64088 0.36885 0.0
C306 C 0.3438 0.60771 0.34278 0.0
C307 C 0.39235 0.61961 0.33563 0.0
C308 C 0.44078 0.6379 0.34537 0.0
C309 C 0.44112 0.64845 0.36192 0.0
C310 C 0.29109 0.5877 0.33286 0.0
C311 C 0.49306 0.65002 0.3382 0.0
H312 H 0.3512 0.53307 0.28453 0.0
H313 H 0.39527 0.70111 0.28876 0.0
H314 H 0.40102 0.53072 0.32507 0.0
H315 H 0.32926 0.50172 0.3213 0.0
H316 H 0.36761 0.49142 0.30646 0.0
H317 H 0.42999 0.75473 0.31284 0.0
H318 H 0.38581 0.71482 0.32784 0.0
H319 H 0.45506 0.73095 0.32877 0.0
H320 H 0.3084 0.61134 0.36459 0.0
H321 H 0.47894 0.66542 0.36924 0.0
H322 H 0.28236 0.5525 0.32462 0.0
H323 H 0.29468 0.62048 0.3254 0.0
H324 H 0.25603 0.57539 0.34039 0.0
H325 H 0.48558 0.61827 0.32875 0.0
H326 H 0.52356 0.65294 0.34742 0.0
H327 H 0.51061 0.68938 0.33252 0.0
C328 C 0.68002 0.34035 0.69586 0.0
C329 C 0.70825 0.38364 0.70751 0.0
C330 C 0.69604 0.34495 0.68013 0.0
C331 C 0.74147 0.39403 0.67591 0.0
C332 C 0.77242 0.43649 0.68783 0.0
C333 C 0.75542 0.43083 0.70351 0.0
C334 C 0.66215 0.29844 0.66779 0.0
C335 C 0.82145 0.48915 0.68382 0.0
C336 C 0.7826 0.38267 0.63409 0.0
C337 C 0.75015 0.39711 0.62505 0.0
C338 C 0.78362 0.38523 0.65091 0.0
C339 C 0.7516 0.40277 0.65872 0.0
C340 C 0.72283 0.42204 0.64966 0.0
C341 C 0.72245 0.41893 0.63294 0.0
C342 C 0.8154 0.36508 0.66019 0.0
C343 C 0.6887 0.44174 0.65752 0.0
H344 H 0.64404 0.30339 0.69886 0.0
H345 H 0.77783 0.46441 0.71244 0.0
H346 H 0.64074 0.31076 0.65913 0.0
H347 H 0.68851 0.28813 0.66095 0.0
H348 H 0.6313 0.26134 0.67329 0.0
H349 H 0.84631 0.51397 0.69475 0.0
H350 H 0.84747 0.48122 0.67601 0.0
H351 H 0.80784 0.51335 0.67714 0.0
H352 H 0.80418 0.36585 0.62805 0.0
H353 H 0.69799 0.43098 0.626 0.0
H354 H 0.78702 0.32373 0.66396 0.0
H355 H 0.83651 0.39178 0.67119 0.0
H356 H 0.84593 0.36292 0.65288 0.0
H357 H 0.65296 0.40686 0.66236 0.0
H358 H 0.6738 0.46085 0.64899 0.0
H359 H 0.71234 0.47168 0.6677 0.0
C360 C 0.24884 0.62217 0.19122 0.0
C361 C 0.28634 0.61734 0.20121 0.0
C362 C 0.24484 0.6107 0.17463 0.0
C363 C 0.28024 0.59551 0.16794 0.0
C364 C 0.31667 0.58846 0.17807 0.0
C365 C 0.31878 0.59884 0.19466 0.0
C366 C 0.20432 0.61696 0.16424 0.0
C367 C 0.35554 0.57297 0.17133 0.0
C368 C 0.2578 0.53591 0.12521 0.0
C369 C 0.29282 0.58202 0.11726 0.0
C370 C 0.25156 0.53995 0.14164 0.0
C371 C 0.28227 0.59106 0.15031 0.0
C372 C 0.31689 0.63793 0.14224 0.0
C373 C 0.32117 0.63292 0.12572 0.0
C374 C 0.21298 0.48946 0.14976 0.0
C375 C 0.35088 0.69302 0.15114 0.0
H376 H 0.22333 0.63596 0.19634 0.0
H377 H 0.3479 0.59528 0.20241 0.0
H378 H 0.22617 0.65294 0.1571 0.0
H379 H 0.18093 0.5809 0.15567 0.0
H380 H 0.17533 0.62233 0.17143 0.0
H381 H 0.37934 0.56652 0.18087 0.0
H382 H 0.33304 0.53524 0.16337 0.0
H383 H 0.3843 0.60562 0.16397 0.0
H384 H 0.23538 0.4966 0.11858 0.0
H385 H 0.34835 0.66851 0.11954 0.0
H386 H 0.18489 0.49689 0.15673 0.0
H387 H 0.23625 0.47903 0.15833 0.0
H388 H 0.18853 0.45395 0.14105 0.0
H389 H 0.32439 0.70436 0.1575 0.0
H390 H 0.37534 0.72544 0.14305 0.0
H391 H 0.37892 0.69141 0.16034 0.0
C392 C 0.69972 0.3485 0.46158 0.0
C393 C 0.72713 0.32315 0.45572 0.0
C394 C 0.69049 0.34927 0.47791 0.0
C395 C 0.70837 0.32331 0.48854 0.0
C396 C 0.7347 0.29633 0.48259 0.0
C397 C 0.74411 0.29691 0.46626 0.0
C398 C 0.66268 0.37888 0.48386 0.0
C399 C 0.75337 0.26729 0.49349 0.0
C400 C 0.73123 0.36985 0.53274 0.0
C401 C 0.68138 0.33215 0.53848 0.0
C402 C 0.74076 0.36728 0.51648 0.0
C403 C 0.70003 0.325 0.50593 0.0
C404 C 0.65065 0.28532 0.5119 0.0
C405 C 0.64157 0.28991 0.52807 0.0
C406 C 0.79348 0.41096 0.51049 0.0
C407 C 0.60699 0.23866 0.50114 0.0
H408 H 0.68667 0.36894 0.45348 0.0
H409 H 0.76508 0.27698 0.46176 0.0
H410 H 0.62536 0.35055 0.48972 0.0
H411 H 0.68993 0.41178 0.49299 0.0
H412 H 0.65133 0.39704 0.47405 0.0
H413 H 0.77096 0.24614 0.48684 0.0
H414 H 0.78453 0.29686 0.50265 0.0
H415 H 0.71875 0.23696 0.49996 0.0
H416 H 0.76177 0.4028 0.54079 0.0
H417 H 0.60313 0.26056 0.53259 0.0
H418 H 0.78488 0.43347 0.50146 0.0
H419 H 0.81461 0.39239 0.50449 0.0
H420 H 0.82131 0.44049 0.5203 0.0
H421 H 0.59057 0.25448 0.49197 0.0
H422 H 0.57283 0.20899 0.50791 0.0
H423 H 0.62437 0.21699 0.49469 0.0
C424 C 0.29303 0.67698 0.79173 0.0
C425 C 0.34526 0.69467 0.78673 0.0
C426 C 0.28149 0.66615 0.80779 0.0
C427 C 0.32283 0.67175 0.81894 0.0
C428 C 0.37495 0.68723 0.81374 0.0
C429 C 0.38574 0.69925 0.79774 0.0
C430 C 0.2257 0.65068 0.81293 0.0
C431 C 0.41961 0.69208 0.82514 0.0
C432 C 0.31319 0.6991 0.86316 0.0
C433 C 0.28943 0.64672 0.86865 0.0
C434 C 0.32402 0.70777 0.84698 0.0
C435 C 0.31211 0.66316 0.83616 0.0
C436 C 0.28971 0.61043 0.84179 0.0
C437 C 0.27797 0.60275 0.85793 0.0
C438 C 0.34704 0.76445 0.84137 0.0
C439 C 0.27792 0.56213 0.83075 0.0
H440 H 0.26182 0.67379 0.78323 0.0
H441 H 0.42608 0.71255 0.79384 0.0
H442 H 0.20728 0.61132 0.81862 0.0
H443 H 0.22913 0.68173 0.82203 0.0
H444 H 0.19784 0.64717 0.80274 0.0
H445 H 0.45645 0.70045 0.81893 0.0
H446 H 0.43121 0.72549 0.83445 0.0
H447 H 0.40501 0.65403 0.83139 0.0
H448 H 0.32175 0.73308 0.87141 0.0
H449 H 0.25993 0.56223 0.8622 0.0
H450 H 0.31912 0.76458 0.83183 0.0
H451 H 0.38654 0.77772 0.83612 0.0
H452 H 0.35333 0.79458 0.85125 0.0
H453 H 0.24682 0.55511 0.82115 0.0
H454 H 0.26299 0.52435 0.83719 0.0
H455 H 0.3152 0.57036 0.82485 0.0
C456 C 0.65963 0.28206 0.12435 0.0
C457 C 0.69441 0.33413 0.11932 0.0
C458 C 0.65912 0.27164 0.1406 0.0
C459 C 0.69517 0.31404 0.15198 0.0
C460 C 0.73209 0.36605 0.14683 0.0
C461 C 0.73081 0.37564 0.13057 0.0
C462 C 0.61867 0.21583 0.14567 0.0
C463 C 0.77213 0.41184 0.15855 0.0
C464 C 0.65645 0.30389 0.19515 0.0
C465 C 0.68527 0.28108 0.20183 0.0
C466 C 0.65945 0.31503 0.17892 0.0
C467 C 0.69313 0.3043 0.16932 0.0
C468 C 0.72384 0.28311 0.1762 0.0
C469 C 0.71901 0.27113 0.19234 0.0
C470 C 0.62546 0.33685 0.17193 0.0
C471 C 0.76128 0.27251 0.16647 0.0
H472 H 0.63121 0.25 0.11567 0.0
H473 H 0.75798 0.41588 0.12666 0.0
H474 H 0.64008 0.1986 0.15232 0.0
H475 H 0.59074 0.21895 0.15391 0.0
H476 H 0.59407 0.1871 0.13531 0.0
H477 H 0.80071 0.44859 0.15245 0.0
H478 H 0.74993 0.42313 0.16697 0.0
H479 H 0.79602 0.39852 0.16579 0.0
H480 H 0.63019 0.31137 0.20248 0.0
H481 H 0.74175 0.25394 0.19755 0.0
H482 H 0.59691 0.30806 0.16213 0.0
H483 H 0.6519 0.3761 0.16664 0.0
H484 H 0.60159 0.3432 0.18102 0.0
H485 H 0.73728 0.24059 0.15675 0.0
H486 H 0.78482 0.2591 0.17387 0.0
H487 H 0.79023 0.30985 0.16071 0.0
C488 C 0.37535 0.70097 0.52848 0.0
C489 C 0.42691 0.72949 0.53655 0.0
C490 C 0.36916 0.70217 0.51185 0.0
C491 C 0.41558 0.73369 0.50321 0.0
C492 C 0.46745 0.7646 0.51143 0.0
C493 C 0.47258 0.76162 0.52802 0.0
C494 C 0.31324 0.66815 0.50345 0.0
C495 C 0.51757 0.79983 0.50266 0.0
C496 C 0.40317 0.68809 0.45939 0.0
C497 C 0.38578 0.7205 0.45223 0.0
C498 C 0.41451 0.69298 0.47601 0.0
C499 C 0.40977 0.73229 0.4855 0.0
C500 C 0.39571 0.76753 0.47813 0.0
C501 C 0.38303 0.76062 0.46156 0.0
C502 C 0.42859 0.65412 0.4835 0.0
C503 C 0.39205 0.8111 0.48779 0.0
H504 H 0.34006 0.67601 0.53508 0.0
H505 H 0.51247 0.78413 0.5343 0.0
H506 H 0.30265 0.6942 0.49655 0.0
H507 H 0.31292 0.63764 0.49477 0.0
H508 H 0.2813 0.64645 0.51194 0.0
H509 H 0.554 0.82494 0.51099 0.0
H510 H 0.52606 0.77388 0.49453 0.0
H511 H 0.51083 0.82722 0.49513 0.0
H512 H 0.40502 0.65691 0.45214 0.0
H513 H 0.37012 0.78608 0.45592 0.0
H514 H 0.39616 0.62785 0.49133 0.0
H515 H 0.467 0.67691 0.49115 0.0
H516 H 0.43309 0.62765 0.47438 0.0
H517 H 0.35672 0.79192 0.49531 0.0
H518 H 0.38723 0.83925 0.48005 0.0
H519 H 0.42899 0.83513 0.496 0.0
C520 C 0.64125 0.44209 0.86263 0.0
C521 C 0.63362 0.39797 0.87124 0.0
C522 C 0.63143 0.43632 0.84595 0.0
C523 C 0.615 0.38561 0.83777 0.0
C524 C 0.60516 0.34039 0.8465 0.0
C525 C 0.61398 0.34701 0.86321 0.0
C526 C 0.64066 0.48492 0.83705 0.0
C527 C 0.58817 0.2858 0.83815 0.0
C528 C 0.55762 0.34877 0.79474 0.0
C529 C 0.60341 0.35769 0.78681 0.0
C530 C 0.56137 0.36064 0.81128 0.0
C531 C 0.6118 0.38046 0.82005 0.0
C532 C 0.65862 0.39151 0.81198 0.0
C533 C 0.65395 0.38059 0.79536 0.0
C534 C 0.51104 0.35004 0.81944 0.0
C535 C 0.71298 0.41209 0.82099 0.0
H536 H 0.65593 0.48143 0.86891 0.0
H537 H 0.60821 0.31294 0.86989 0.0
H538 H 0.67733 0.49931 0.83015 0.0
H539 H 0.60576 0.47355 0.82834 0.0
H540 H 0.64651 0.51915 0.84528 0.0
H541 H 0.58019 0.25431 0.84673 0.0
H542 H 0.55093 0.27159 0.83019 0.0
H543 H 0.62066 0.28974 0.8305 0.0
H544 H 0.51862 0.33169 0.78804 0.0
H545 H 0.6893 0.38742 0.78918 0.0
H546 H 0.51993 0.38555 0.82758 0.0
H547 H 0.49764 0.31466 0.82687 0.0
H548 H 0.47695 0.34133 0.8107 0.0
H549 H 0.72461 0.44973 0.82846 0.0
H550 H 0.74581 0.4208 0.81284 0.0
H551 H 0.71003 0.38126 0.82919 0.0
C552 C 0.87105 0.35549 0.07417 0.0
C553 C 0.84462 0.3857 0.07377 0.0
C554 C 0.92744 0.38021 0.07313 0.0
C555 C 0.95895 0.43688 0.0716 0.0
C556 C 0.93258 0.46751 0.07054 0.0
C557 C 0.87572 0.44159 0.07163 0.0
C558 C 0.95354 0.34584 0.07436 0.0
C559 C 0.96471 0.52803 0.06881 0.0
C560 C 0.10539 0.50966 0.08907 0.0
C561 C 0.1347 0.51653 0.07544 0.0
C562 C 0.04845 0.48344 0.08794 0.0
C563 C 0.01972 0.4644 0.07273 0.0
C564 C 0.04903 0.47028 0.05891 0.0
C565 C 0.1063 0.49593 0.06044 0.0
C566 C 0.0191 0.47689 0.10306 0.0
C567 C 0.02002 0.45096 0.04248 0.0
H568 H 0.84774 0.31212 0.07558 0.0
H569 H 0.85594 0.46535 0.07122 0.0
H570 H 0.97993 0.35244 0.06431 0.0
H571 H 0.97979 0.35807 0.08564 0.0
H572 H 0.92301 0.30172 0.07427 0.0
H573 H 0.93802 0.54515 0.0666 0.0
H574 H 0.991 0.54884 0.07989 0.0
H575 H 0.99179 0.53728 0.0588 0.0
H576 H 0.12736 0.52579 0.10067 0.0
H577 H 0.12896 0.50218 0.04986 0.0
H578 H 0.9892 0.43326 0.10427 0.0
H579 H 0.99612 0.49851 0.10243 0.0
H580 H 0.04737 0.49298 0.11398 0.0
H581 H 0.98888 0.40706 0.04214 0.0
H582 H 0.04838 0.45741 0.03297 0.0
H583 H 0.99843 0.47305 0.03973 0.0
C584 C 0.6438 0.12796 0.40752 0.0
C585 C 0.61748 0.15708 0.41073 0.0
C586 C 0.61459 0.07053 0.40626 0.0
C587 C 0.55781 0.04162 0.40823 0.0
C588 C 0.53089 0.07087 0.41089 0.0
C589 C 0.56086 0.12788 0.41207 0.0
C590 C 0.64472 0.04075 0.40331 0.0
C591 C 0.47057 0.04197 0.41312 0.0
C592 C 0.46808 0.88966 0.39618 0.0
C593 C 0.46649 0.86695 0.41081 0.0
C594 C 0.49867 0.94647 0.39502 0.0
C595 C 0.52706 0.98113 0.4089 0.0
C596 C 0.52407 0.9581 0.42377 0.0
C597 C 0.4945 0.90139 0.42448 0.0
C598 C 0.50157 0.96936 0.37891 0.0
C599 C 0.5522 0.99336 0.43897 0.0
H600 H 0.68734 0.14992 0.40639 0.0
H601 H 0.53961 0.1496 0.41432 0.0
H602 H 0.6446 0.01922 0.41406 0.0
H603 H 0.62399 0.00953 0.3932 0.0
H604 H 0.68758 0.06869 0.40059 0.0
H605 H 0.45514 0.07053 0.41414 0.0
H606 H 0.44762 0.01176 0.40293 0.0
H607 H 0.46183 0.01938 0.42414 0.0
H608 H 0.4473 0.86293 0.38555 0.0
H609 H 0.49338 0.88373 0.4358 0.0
H610 H 0.54456 0.99311 0.3758 0.0
H611 H 0.48584 0.99768 0.37938 0.0
H612 H 0.47791 0.93702 0.36923 0.0
H613 H 0.5966 0.0183 0.43767 0.0
H614 H 0.54536 0.96907 0.44959 0.0
H615 H 0.53725 0.02185 0.44123 0.0
C616 C 0.51083 0.43615 0.73172 0.0
C617 C 0.54704 0.44649 0.74496 0.0
C618 C 0.48359 0.46562 0.73029 0.0
C619 C 0.49228 0.50572 0.74249 0.0
C620 C 0.52801 0.51535 0.75598 0.0
C621 C 0.55482 0.48589 0.75701 0.0
C622 C 0.44582 0.45421 0.71572 0.0
C623 C 0.53778 0.55666 0.76946 0.0
C624 C 0.45805 0.61758 0.737 0.0
C625 C 0.40853 0.59639 0.74429 0.0
C626 C 0.4848 0.58762 0.73568 0.0
C627 C 0.46176 0.53547 0.7419 0.0
C628 C 0.4116 0.51382 0.7491 0.0
C629 C 0.38579 0.5443 0.75018 0.0
C630 C 0.5382 0.61212 0.72789 0.0
C631 C 0.3858 0.45893 0.75614 0.0
H632 H 0.5049 0.40617 0.7223 0.0
H633 H 0.58222 0.49387 0.76741 0.0
H634 H 0.40406 0.4399 0.71938 0.0
H635 H 0.45897 0.4922 0.70956 0.0
H636 H 0.44453 0.42302 0.70709 0.0
H637 H 0.56766 0.56006 0.77899 0.0
H638 H 0.55296 0.59728 0.76475 0.0
H639 H 0.49901 0.54522 0.77495 0.0
H640 H 0.47585 0.65742 0.73229 0.0
H641 H 0.34766 0.52716 0.7559 0.0
H642 H 0.53675 0.58304 0.71844 0.0
H643 H 0.57127 0.62025 0.73693 0.0
H644 H 0.54856 0.65082 0.72248 0.0
H645 H 0.38166 0.42739 0.74712 0.0
H646 H 0.34501 0.4463 0.76041 0.0
H647 H 0.41226 0.46024 0.76639 0.0
C648 C 0.6506 0.1515 0.57839 0.0
C649 C 0.62319 0.17993 0.58136 0.0
C650 C 0.62482 0.0949 0.57908 0.0
C651 C 0.56992 0.06513 0.58291 0.0
C652 C 0.54215 0.09335 0.58637 0.0
C653 C 0.56905 0.15041 0.58553 0.0
C654 C 0.65601 0.06677 0.57514 0.0
C655 C 0.48359 0.06306 0.59056 0.0
C656 C 0.48813 0.91858 0.56561 0.0
C657 C 0.48772 0.88911 0.57868 0.0
C658 C 0.51449 0.97553 0.5669 0.0
C659 C 0.54065 0.00425 0.58173 0.0
C660 C 0.54103 0.97485 0.59498 0.0
C661 C 0.51493 0.91752 0.59326 0.0
C662 C 0.51421 0.00495 0.55232 0.0
C663 C 0.56816 0.00392 0.61101 0.0
H664 H 0.69252 0.17338 0.57525 0.0
H665 H 0.54747 0.17168 0.58795 0.0
H666 H 0.65387 0.04056 0.58484 0.0
H667 H 0.63741 0.04001 0.56401 0.0
H668 H 0.69947 0.09604 0.5734 0.0
H669 H 0.46914 0.09101 0.59429 0.0
H670 H 0.45743 0.03665 0.58004 0.0
H671 H 0.47839 0.0362 0.60039 0.0
H672 H 0.46729 0.89679 0.55429 0.0
H673 H 0.51404 0.89489 0.60345 0.0
H674 H 0.55655 0.03353 0.54934 0.0
H675 H 0.49492 0.02943 0.55487 0.0
H676 H 0.49203 0.97659 0.54167 0.0
H677 H 0.61193 0.03317 0.60981 0.0
H678 H 0.56438 0.97534 0.62018 0.0
H679 H 0.54977 0.02775 0.61533 0.0
C680 C 0.38046 0.55257 0.9247 0.0
C681 C 0.38311 0.57848 0.91061 0.0
C682 C 0.41167 0.52765 0.92719 0.0
C683 C 0.44521 0.52755 0.91514 0.0
C684 C 0.4468 0.5526 0.90074 0.0
C685 C 0.41635 0.57822 0.89876 0.0
C686 C 0.40946 0.50219 0.9428 0.0
C687 C 0.48051 0.55215 0.88735 0.0
C688 C 0.56077 0.49814 0.92197 0.0
C689 C 0.53564 0.44358 0.91606 0.0
C690 C 0.53126 0.52553 0.92252 0.0
C691 C 0.47559 0.49792 0.91688 0.0
C692 C 0.44975 0.44246 0.91148 0.0
C693 C 0.47976 0.41612 0.91125 0.0
C694 C 0.56006 0.58449 0.92863 0.0
C695 C 0.39083 0.41137 0.90517 0.0
H696 H 0.35573 0.5537 0.93403 0.0
H697 H 0.41866 0.5984 0.88786 0.0
H698 H 0.39394 0.4581 0.94053 0.0
H699 H 0.45102 0.52071 0.94867 0.0
H700 H 0.38302 0.50736 0.9512 0.0
H701 H 0.47744 0.57357 0.87693 0.0
H702 H 0.52385 0.57182 0.89173 0.0
H703 H 0.46703 0.50957 0.88321 0.0
H704 H 0.60365 0.5198 0.9258 0.0
H705 H 0.4592 0.3738 0.90682 0.0
H706 H 0.53577 0.59111 0.93749 0.0
H707 H 0.56442 0.61018 0.91855 0.0
H708 H 0.60116 0.59836 0.93429 0.0
H709 H 0.36473 0.4146 0.91407 0.0
H710 H 0.37587 0.36761 0.90224 0.0
H711 H 0.38586 0.42928 0.89416 0.0
C712 C 0.10595 0.4811 0.23387 0.0
C713 C 0.13949 0.52832 0.24385 0.0
C714 C 0.04936 0.45173 0.23476 0.0
C715 C 0.02506 0.46942 0.24603 0.0
C716 C 0.05851 0.51672 0.2563 0.0
C717 C 0.11535 0.54592 0.255 0.0
C718 C 0.01545 0.40238 0.22333 0.0
C719 C 0.03414 0.53667 0.26854 0.0
C720 C 0.87876 0.42815 0.23472 0.0
C721 C 0.84893 0.38231 0.24355 0.0
C722 C 0.93574 0.45735 0.23577 0.0
C723 C 0.9644 0.44079 0.24596 0.0
C724 C 0.93486 0.39477 0.25501 0.0
C725 C 0.87743 0.36585 0.25364 0.0
C726 C 0.96526 0.50543 0.22567 0.0
C727 C 0.964 0.37595 0.26605 0.0
H728 H 0.12392 0.46722 0.2251 0.0
H729 H 0.14086 0.58201 0.26284 0.0
H730 H 0.98948 0.36641 0.23007 0.0
H731 H 0.98798 0.40945 0.2154 0.0
H732 H 0.04076 0.39268 0.2157 0.0
H733 H 0.06572 0.57175 0.27635 0.0
H734 H 0.00761 0.54919 0.26238 0.0
H735 H 0.00825 0.50333 0.27616 0.0
H736 H 0.85749 0.44126 0.22677 0.0
H737 H 0.85493 0.33084 0.26059 0.0
H738 H 0.9894 0.49742 0.21709 0.0
H739 H 0.99414 0.54226 0.23336 0.0
H740 H 0.93701 0.51428 0.21878 0.0
H741 H 0.98781 0.36277 0.25898 0.0
H742 H 0.93544 0.34159 0.27298 0.0
H743 H 0.99321 0.41008 0.27456 0.0
C744 C 0.54847 0.41061 0.07844 0.0
C745 C 0.59247 0.42541 0.06886 0.0
C746 C 0.51215 0.42927 0.07588 0.0
C747 C 0.51904 0.46297 0.06316 0.0
C748 C 0.5628 0.47731 0.05319 0.0
C749 C 0.59945 0.45886 0.05627 0.0
C750 C 0.4671 0.41389 0.08709 0.0
C751 C 0.57092 0.51226 0.03933 0.0
C752 C 0.39399 0.47546 0.05405 0.0
C753 C 0.40793 0.52343 0.0632 0.0
C754 C 0.43119 0.45695 0.05296 0.0
C755 C 0.48303 0.48661 0.06144 0.0
C756 C 0.49793 0.53622 0.07006 0.0
C757 C 0.46057 0.55411 0.07071 0.0
C758 C 0.41413 0.40444 0.04334 0.0
C759 C 0.55215 0.56886 0.07953 0.0
H760 H 0.54276 0.38483 0.08822 0.0
H761 H 0.63289 0.46979 0.04868 0.0
H762 H 0.47199 0.45111 0.0934 0.0
H763 H 0.42707 0.39335 0.0802 0.0
H764 H 0.46663 0.38645 0.09619 0.0
H765 H 0.604 0.51617 0.03193 0.0
H766 H 0.53271 0.49477 0.03158 0.0
H767 H 0.58105 0.55351 0.04387 0.0
H768 H 0.35364 0.45165 0.04812 0.0
H769 H 0.47217 0.59146 0.07774 0.0
H770 H 0.40621 0.37212 0.05158 0.0
H771 H 0.44715 0.40908 0.03582 0.0
H772 H 0.37669 0.39085 0.0355 0.0
H773 H 0.5538 0.54543 0.08958 0.0
H774 H 0.55928 0.60863 0.08457 0.0
H775 H 0.58581 0.57642 0.0719 0.0
C776 C 0.93433 0.46329 0.41308 0.0
C777 C 0.90281 0.41585 0.40305 0.0
C778 C 0.98962 0.4985 0.411 0.0
C779 C 0.01427 0.48693 0.39831 0.0
C780 C 0.98238 0.43991 0.3878 0.0
C781 C 0.92707 0.40442 0.39043 0.0
C782 C 0.02207 0.5472 0.42278 0.0
C783 C 0.00687 0.42682 0.37393 0.0
C784 C 0.15372 0.60747 0.39076 0.0
C785 C 0.1882 0.59558 0.3998 0.0
C786 C 0.09702 0.57081 0.38925 0.0
C787 C 0.07436 0.52167 0.39718 0.0
C788 C 0.10935 0.50876 0.4058 0.0
C789 C 0.16557 0.54552 0.40689 0.0
C790 C 0.06118 0.58559 0.37969 0.0
C791 C 0.08725 0.45749 0.41469 0.0
H792 H 0.916 0.47236 0.42292 0.0
H793 H 0.90278 0.36815 0.38254 0.0
H794 H 0.05454 0.54359 0.42925 0.0
H795 H 0.04221 0.58507 0.41635 0.0
H796 H 0.99647 0.55126 0.43173 0.0
H797 H 0.97568 0.39206 0.36594 0.0
H798 H 0.02855 0.46285 0.36678 0.0
H799 H 0.03726 0.41659 0.37849 0.0
H800 H 0.17083 0.64578 0.38514 0.0
H801 H 0.1917 0.53561 0.41385 0.0
H802 H 0.03803 0.59618 0.38794 0.0
H803 H 0.03116 0.55041 0.37163 0.0
H804 H 0.0851 0.62079 0.3724 0.0
H805 H 0.06336 0.4594 0.42457 0.0
H806 H 0.12001 0.45152 0.41988 0.0
H807 H 0.05942 0.42138 0.4066 0.0
C808 C 0.5661 0.1466 0.74227 0.0
C809 C 0.53944 0.16826 0.7335 0.0
C810 C 0.54722 0.09069 0.74143 0.0
C811 C 0.50078 0.05482 0.7313 0.0
C812 C 0.47503 0.07647 0.72177 0.0
C813 C 0.49432 0.13294 0.7231 0.0
C814 C 0.57547 0.0698 0.75209 0.0
C815 C 0.42609 0.03975 0.71056 0.0
C816 C 0.47667 0.91043 0.7258 0.0
C817 C 0.43865 0.8837 0.73718 0.0
C818 C 0.49528 0.96546 0.72308 0.0
C819 C 0.47638 0.99468 0.73223 0.0
C820 C 0.43773 0.96751 0.74364 0.0
C821 C 0.41911 0.91255 0.74584 0.0
C822 C 0.53565 0.99258 0.71059 0.0
C823 C 0.41734 0.997 0.75398 0.0
H824 H 0.60109 0.17325 0.75036 0.0
H825 H 0.47363 0.1492 0.7162 0.0
H826 H 0.54738 0.04405 0.761 0.0
H827 H 0.58671 0.04401 0.74492 0.0
H828 H 0.61281 0.10324 0.75864 0.0
H829 H 0.41538 0.06314 0.70242 0.0
H830 H 0.43368 0.01136 0.70325 0.0
H831 H 0.39064 0.01477 0.71762 0.0
H832 H 0.49142 0.88825 0.71891 0.0
H833 H 0.38975 0.89235 0.75468 0.0
H834 H 0.57535 0.02416 0.71648 0.0
H835 H 0.52158 0.01333 0.70246 0.0
H836 H 0.54196 0.96312 0.70334 0.0
H837 H 0.45175 0.03009 0.76161 0.0
H838 H 0.3858 0.96955 0.76188 0.0
H839 H 0.39998 0.01612 0.74638 0.0
C840 C 0.5238 0.62502 0.60398 0.0
C841 C 0.49429 0.62273 0.58993 0.0
C842 C 0.54162 0.58748 0.60587 0.0
C843 C 0.53112 0.54813 0.59322 0.0
C844 C 0.50151 0.54615 0.57903 0.0
C845 C 0.48297 0.58281 0.57767 0.0
C846 C 0.57191 0.59007 0.62133 0.0
C847 C 0.49077 0.50636 0.56499 0.0
C848 C 0.62516 0.49339 0.58611 0.0
C849 C 0.59336 0.4387 0.58969 0.0
C850 C 0.60661 0.53002 0.58809 0.0
C851 C 0.5548 0.51201 0.59393 0.0
C852 C 0.52345 0.45756 0.59835 0.0
C853 C 0.54302 0.42142 0.59614 0.0
C854 C 0.64136 0.58731 0.58303 0.0
C855 C 0.4683 0.43691 0.60481 0.0
H856 H 0.53216 0.65542 0.61355 0.0
H857 H 0.46054 0.58103 0.56671 0.0
H858 H 0.55275 0.54931 0.62622 0.0
H859 H 0.61438 0.60203 0.61907 0.0
H860 H 0.57272 0.61964 0.6305 0.0
H861 H 0.46613 0.50932 0.55493 0.0
H862 H 0.52992 0.5141 0.5605 0.0
H863 H 0.46909 0.46412 0.56879 0.0
H864 H 0.66446 0.50759 0.5813 0.0
H865 H 0.51838 0.37947 0.59908 0.0
H866 H 0.64603 0.61733 0.59268 0.0
H867 H 0.62118 0.5932 0.57236 0.0
H868 H 0.68246 0.59629 0.58001 0.0
H869 H 0.47023 0.46613 0.61431 0.0
H870 H 0.45248 0.39651 0.60979 0.0
H871 H 0.43901 0.43319 0.59507 0.0
C872 C 0.08038 0.53048 0.93051 0.0
C873 C 0.1112 0.57558 0.9216 0.0
C874 C 0.02553 0.51291 0.9331 0.0
C875 C 1.00074 0.54059 0.92643 0.0
C876 C 0.03245 0.58735 0.91797 0.0
C877 C 0.08706 0.60432 0.91575 0.0
C878 C 0.99348 0.46339 0.94241 0.0
C879 C 0.00787 0.61773 0.91039 0.0
C880 C 0.85142 0.45894 0.91214 0.0
C881 C 0.82671 0.47606 0.92327 0.0
C882 C 0.90747 0.47888 0.91329 0.0
C883 C 0.94037 0.51655 0.92609 0.0
C884 C 0.91579 0.53342 0.93763 0.0
C885 C 0.8592 0.51342 0.93599 0.0
C886 C 0.93162 0.46056 0.90046 0.0
C887 C 0.94935 0.57279 0.95161 0.0
H888 H 0.09876 0.50836 0.93523 0.0
H889 H 0.11042 0.63946 0.90893 0.0
H890 H 0.96982 0.47102 0.95126 0.0
H891 H 0.96401 0.42874 0.93409 0.0
H892 H 0.02013 0.4514 0.94879 0.0
H893 H 0.03901 0.6561 0.90551 0.0
H894 H 0.97793 0.5916 0.90045 0.0
H895 H 0.98576 0.62761 0.91923 0.0
H896 H 0.82693 0.43038 0.90218 0.0
H897 H 0.84043 0.52656 0.94469 0.0
H898 H 0.95387 0.44217 0.90594 0.0
H899 H 0.96136 0.49614 0.89418 0.0
H900 H 0.90027 0.43033 0.89142 0.0
H901 H 0.97338 0.55794 0.95805 0.0
H902 H 0.92382 0.57869 0.96018 0.0
H903 H 0.97867 0.61282 0.94722 0.0
C904 C 0.39581 0.84792 0.2649 0.0
C905 C 0.40326 0.81626 0.25321 0.0
C906 C 0.43245 0.90461 0.26711 0.0
C907 C 0.47666 0.93019 0.25715 0.0
C908 C 0.48447 0.89806 0.24551 0.0
C909 C 0.44816 0.84177 0.2438 0.0
C910 C 0.42335 0.93728 0.27988 0.0
C911 C 0.53005 0.92338 0.23434 0.0
C912 C 0.53225 0.07581 0.24624 0.0
C913 C 0.58429 0.10318 0.2542 0.0
C914 C 0.49615 0.02023 0.24769 0.0
C915 C 0.51176 0.99083 0.25759 0.0
C916 C 0.56327 0.01861 0.26627 0.0
C917 C 0.59924 0.07441 0.26436 0.0
C918 C 0.44234 0.9924 0.2379 0.0
C919 C 0.58101 0.98898 0.2772 0.0
H920 H 0.36157 0.82847 0.27232 0.0
H921 H 0.45433 0.8178 0.2347 0.0
H922 H 0.46163 0.96374 0.28734 0.0
H923 H 0.41123 0.96425 0.2742 0.0
H924 H 0.39118 0.9109 0.28778 0.0
H925 H 0.53176 0.89249 0.22632 0.0
H926 H 0.52457 0.95155 0.22681 0.0
H927 H 0.56974 0.94764 0.24131 0.0
H928 H 0.52007 0.09749 0.23837 0.0
H929 H 0.63911 0.09528 0.27066 0.0
H930 H 0.40842 0.96968 0.24568 0.0
H931 H 0.4415 0.96245 0.22888 0.0
H932 H 0.43491 0.0216 0.23153 0.0
H933 H 0.54827 0.96413 0.28514 0.0
H934 H 0.61856 0.0174 0.28473 0.0
H935 H 0.58892 0.96076 0.26995 0.0
loop_
_geom_bond_atom_site_label_1
_geom_bond_atom_site_label_2
_geom_bond_distance
_geom_bond_site_symmetry_2
_ccdc_geom_bond_type
Co0 O1 2.216 . S
Co0 O2 2.091 . S
Co0 O4 2.004 . S
Co0 O10 2.021 . S
Co0 O12 2.137 . S
Co0 O13 2.244 . S
O1 Co0 2.216 . S
O1 C8 1.247 . S
O2 Co0 2.091 . S
O2 C8 1.261 . S
C3 O12 1.247 . S
C3 O13 1.272 . S
O4 Co0 2.004 . S
O4 C9 1.259 . S
Co5 O6 2.061 . S
Co5 O11 2.052 . S
Co5 O13 2.135 . S
O6 Co5 2.061 . S
O6 C9 1.235 . S
C7 O10 1.238 . S
C7 O11 1.241 . S
C8 O1 1.247 . S
C8 O2 1.261 . S
C9 O4 1.259 . S
C9 O6 1.235 . S
O10 Co0 2.021 . S
O10 C7 1.238 . S
O11 Co5 2.052 . S
O11 C7 1.241 . S
O12 Co0 2.137 . S
O12 C3 1.247 . S
O13 Co0 2.244 . S
O13 C3 1.272 . S
O13 Co5 2.135 . S
Co14 O15 2.216 . S
Co14 O16 2.091 . S
Co14 O18 2.004 . S
Co14 O24 2.021 . S
Co14 O26 2.137 . S
Co14 O27 2.244 . S
O15 Co14 2.216 . S
O15 C22 1.247 . S
O16 Co14 2.091 . S
O16 C22 1.261 . S
C17 O26 1.247 . S
C17 O27 1.272 . S
O18 Co14 2.004 . S
O18 C23 1.259 . S
Co19 O20 2.061 . S
Co19 O25 2.052 . S
Co19 O27 2.135 . S
O20 Co19 2.061 . S
O20 C23 1.235 . S
C21 O24 1.238 . S
C21 O25 1.241 . S
C22 O15 1.247 . S
C22 O16 1.261 . S
C23 O18 1.259 . S
C23 O20 1.235 . S
O24 Co14 2.021 . S
O24 C21 1.238 . S
O25 Co19 2.052 . S
O25 C21 1.241 . S
O26 Co14 2.137 . S
O26 C17 1.247 . S
O27 Co14 2.244 . S
O27 C17 1.272 . S
O27 Co19 2.135 . S
Co28 O29 2.216 . S
Co28 O30 2.091 . S
Co28 O32 2.004 . S
Co28 O38 2.021 . S
Co28 O40 2.137 . S
Co28 O41 2.244 . S
O29 Co28 2.216 . S
O29 C36 1.247 . S
O30 Co28 2.091 . S
O30 C36 1.261 . S
C31 O40 1.247 . S
C31 O41 1.272 . S
O32 Co28 2.004 . S
O32 C37 1.259 . S
Co33 O34 2.061 . S
Co33 O39 2.052 . S
Co33 O41 2.135 . S
O34 Co33 2.061 . S
O34 C37 1.235 . S
C35 O38 1.238 . S
C35 O39 1.241 . S
C36 O29 1.247 . S
C36 O30 1.261 . S
C37 O32 1.259 . S
C37 O34 1.235 . S
O38 Co28 2.021 . S
O38 C35 1.238 . S
O39 Co33 2.052 . S
O39 C35 1.241 . S
O40 Co28 2.137 . S
O40 C31 1.247 . S
O41 Co28 2.244 . S
O41 C31 1.272 . S
O41 Co33 2.135 . S
Co42 O43 2.216 . S
Co42 O44 2.091 . S
Co42 O46 2.004 . S
Co42 O52 2.021 . S
Co42 O54 2.137 . S
Co42 O55 2.244 . S
O43 Co42 2.216 . S
O43 C50 1.247 . S
O44 Co42 2.091 . S
O44 C50 1.261 . S
C45 O54 1.247 . S
C45 O55 1.272 . S
O46 Co42 2.004 . S
O46 C51 1.259 . S
Co47 O48 2.061 . S
Co47 O53 2.052 . S
Co47 O55 2.135 . S
O48 Co47 2.061 . S
O48 C51 1.235 . S
C49 O52 1.238 . S
C49 O53 1.241 . S
C50 O43 1.247 . S
C50 O44 1.261 . S
C51 O46 1.259 . S
C51 O48 1.235 . S
O52 Co42 2.021 . S
O52 C49 1.238 . S
O53 Co47 2.052 . S
O53 C49 1.241 . S
O54 Co42 2.137 . S
O54 C45 1.247 . S
O55 Co42 2.244 . S
O55 C45 1.272 . S
O55 Co47 2.135 . S
Co56 O57 2.216 . S
Co56 O58 2.091 . S
Co56 O60 2.004 . S
Co56 O66 2.021 . S
Co56 O68 2.137 . S
Co56 O69 2.244 . S
O57 Co56 2.216 . S
O57 C64 1.247 . S
O58 Co56 2.091 . S
O58 C64 1.261 . S
C59 O68 1.247 . S
C59 O69 1.272 . S
O60 Co56 2.004 . S
O60 C65 1.259 . S
Co61 O62 2.061 . S
Co61 O67 2.052 . S
Co61 O69 2.135 . S
O62 Co61 2.061 . S
O62 C65 1.235 . S
C63 O66 1.238 . S
C63 O67 1.241 . S
C64 O57 1.247 . S
C64 O58 1.261 . S
C65 O60 1.259 . S
C65 O62 1.235 . S
O66 Co56 2.021 . S
O66 C63 1.238 . S
O67 Co61 2.052 . S
O67 C63 1.241 . S
O68 Co56 2.137 . S
O68 C59 1.247 . S
O69 Co56 2.244 . S
O69 C59 1.272 . S
O69 Co61 2.135 . S
Co70 O71 2.216 . S
Co70 O72 2.091 . S
Co70 O74 2.004 . S
Co70 O80 2.021 . S
Co70 O82 2.137 . S
Co70 O83 2.244 . S
O71 Co70 2.216 . S
O71 C78 1.247 . S
O72 Co70 2.091 . S
O72 C78 1.261 . S
C73 O82 1.247 . S
C73 O83 1.272 . S
O74 Co70 2.004 . S
O74 C79 1.259 . S
Co75 O76 2.061 . S
Co75 O81 2.052 . S
Co75 O83 2.135 . S
O76 Co75 2.061 . S
O76 C79 1.235 . S
C77 O80 1.238 . S
C77 O81 1.241 . S
C78 O71 1.247 . S
C78 O72 1.261 . S
C79 O74 1.259 . S
C79 O76 1.235 . S
O80 Co70 2.021 . S
O80 C77 1.238 . S
O81 Co75 2.052 . S
O81 C77 1.241 . S
O82 Co70 2.137 . S
O82 C73 1.247 . S
O83 Co70 2.244 . S
O83 C73 1.272 . S
O83 Co75 2.135 . S
Co84 O85 2.216 . S
Co84 O86 2.091 . S
Co84 O88 2.004 . S
Co84 O94 2.021 . S
Co84 O96 2.137 . S
Co84 O97 2.244 . S
O85 Co84 2.216 . S
O85 C92 1.247 . S
O86 Co84 2.091 . S
O86 C92 1.261 . S
C87 O96 1.247 . S
C87 O97 1.272 . S
O88 Co84 2.004 . S
O88 C93 1.259 . S
Co89 O90 2.061 . S
Co89 O95 2.052 . S
Co89 O97 2.135 . S
O90 Co89 2.061 . S
O90 C93 1.235 . S
C91 O94 1.238 . S
C91 O95 1.241 . S
C92 O85 1.247 . S
C92 O86 1.261 . S
C93 O88 1.259 . S
C93 O90 1.235 . S
O94 Co84 2.021 . S
O94 C91 1.238 . S
O95 Co89 2.052 . S
O95 C91 1.241 . S
O96 Co84 2.137 . S
O96 C87 1.247 . S
O97 Co84 2.244 . S
O97 C87 1.272 . S
O97 Co89 2.135 . S
Co98 O99 2.216 . S
Co98 O100 2.091 . S
Co98 O102 2.004 . S
Co98 O108 2.021 . S
Co98 O110 2.137 . S
Co98 O111 2.244 . S
O99 Co98 2.216 . S
O99 C106 1.247 . S
O100 Co98 2.091 . S
O100 C106 1.261 . S
C101 O110 1.247 . S
C101 O111 1.272 . S
O102 Co98 2.004 . S
O102 C107 1.259 . S
Co103 O104 2.061 . S
Co103 O109 2.052 . S
Co103 O111 2.135 . S
O104 Co103 2.061 . S
O104 C107 1.235 . S
C105 O108 1.238 . S
C105 O109 1.241 . S
C106 O99 1.247 . S
C106 O100 1.261 . S
C107 O102 1.259 . S
C107 O104 1.235 . S
O108 Co98 2.021 . S
O108 C105 1.238 . S
O109 Co103 2.052 . S
O109 C105 1.241 . S
O110 Co98 2.137 . S
O110 C101 1.247 . S
O111 Co98 2.244 . S
O111 C101 1.272 . S
O111 Co103 2.135 . S
Co112 O113 2.216 . S
Co112 O114 2.091 . S
Co112 O116 2.004 . S
Co112 O122 2.021 . S
Co112 O124 2.137 . S
Co112 O125 2.244 . S
O113 Co112 2.216 . S
O113 C120 1.247 . S
O114 Co112 2.091 . S
O114 C120 1.261 . S
C115 O124 1.247 . S
C115 O125 1.272 . S
O116 Co112 2.004 . S
O116 C121 1.259 . S
Co117 O118 2.061 . S
Co117 O123 2.052 . S
Co117 O125 2.135 . S
O118 Co117 2.061 . S
O118 C121 1.235 . S
C119 O122 1.238 . S
C119 O123 1.241 . S
C120 O113 1.247 . S
C120 O114 1.261 . S
C121 O116 1.259 . S
C121 O118 1.235 . S
O122 Co112 2.021 . S
O122 C119 1.238 . S
O123 Co117 2.052 . S
O123 C119 1.241 . S
O124 Co112 2.137 . S
O124 C115 1.247 . S
O125 Co112 2.244 . S
O125 C115 1.272 . S
O125 Co117 2.135 . S
Co126 O127 2.216 . S
Co126 O128 2.091 . S
Co126 O130 2.004 . S
Co126 O136 2.021 . S
Co126 O138 2.137 . S
Co126 O139 2.244 . S
O127 Co126 2.216 . S
O127 C134 1.247 . S
O128 Co126 2.091 . S
O128 C134 1.261 . S
C129 O138 1.247 . S
C129 O139 1.272 . S
O130 Co126 2.004 . S
O130 C135 1.259 . S
Co131 O132 2.061 . S
Co131 O137 2.052 . S
Co131 O139 2.135 . S
O132 Co131 2.061 . S
O132 C135 1.235 . S
C133 O136 1.238 . S
C133 O137 1.241 . S
C134 O127 1.247 . S
C134 O128 1.261 . S
C135 O130 1.259 . S
C135 O132 1.235 . S
O136 Co126 2.021 . S
O136 C133 1.238 . S
O137 Co131 2.052 . S
O137 C133 1.241 . S
O138 Co126 2.137 . S
O138 C129 1.247 . S
O139 Co126 2.244 . S
O139 C129 1.272 . S
O139 Co131 2.135 . S
Co140 O141 2.216 . S
Co140 O142 2.091 . S
Co140 O144 2.004 . S
Co140 O150 2.021 . S
Co140 O152 2.137 . S
Co140 O153 2.244 . S
O141 Co140 2.216 . S
O141 C148 1.247 . S
O142 Co140 2.091 . S
O142 C148 1.261 . S
C143 O152 1.247 . S
C143 O153 1.272 . S
O144 Co140 2.004 . S
O144 C149 1.259 . S
Co145 O146 2.061 . S
Co145 O151 2.052 . S
Co145 O153 2.135 . S
O146 Co145 2.061 . S
O146 C149 1.235 . S
C147 O150 1.238 . S
C147 O151 1.241 . S
C148 O141 1.247 . S
C148 O142 1.261 . S
C149 O144 1.259 . S
C149 O146 1.235 . S
O150 Co140 2.021 . S
O150 C147 1.238 . S
O151 Co145 2.052 . S
O151 C147 1.241 . S
O152 Co140 2.137 . S
O152 C143 1.247 . S
O153 Co140 2.244 . S
O153 C143 1.272 . S
O153 Co145 2.135 . S
Co154 O155 2.216 . S
Co154 O156 2.091 . S
Co154 O158 2.004 . S
Co154 O164 2.021 . S
Co154 O166 2.137 . S
Co154 O167 2.244 . S
O155 Co154 2.216 . S
O155 C162 1.247 . S
O156 Co154 2.091 . S
O156 C162 1.261 . S
C157 O166 1.247 . S
C157 O167 1.272 . S
O158 Co154 2.004 . S
O158 C163 1.259 . S
Co159 O160 2.061 . S
Co159 O165 2.052 . S
Co159 O167 2.135 . S
O160 Co159 2.061 . S
O160 C163 1.235 . S
C161 O164 1.238 . S
C161 O165 1.241 . S
C162 O155 1.247 . S
C162 O156 1.261 . S
C163 O158 1.259 . S
C163 O160 1.235 . S
O164 Co154 2.021 . S
O164 C161 1.238 . S
O165 Co159 2.052 . S
O165 C161 1.241 . S
O166 Co154 2.137 . S
O166 C157 1.247 . S
O167 Co154 2.244 . S
O167 C157 1.272 . S
O167 Co159 2.135 . S
C168 C169 1.391 . S
C168 C170 1.394 . S
C168 H184 0.931 . S
C169 C168 1.391 . S
C169 C173 1.376 . S
C170 C168 1.394 . S
C170 C171 1.369 . S
C170 C174 1.531 . S
C171 C170 1.369 . S
C171 C172 1.410 . S
C171 C179 1.503 1_556 S
C172 C171 1.410 . S
C172 C173 1.392 . S
C172 C175 1.511 . S
C173 C169 1.376 . S
C173 C172 1.392 . S
C173 H185 0.929 . S
C174 C170 1.531 . S
C174 H186 0.990 . S
C174 H187 0.962 1_556 S
C174 H188 0.960 . S
C175 C172 1.511 . S
C175 H189 0.961 . S
C175 H190 0.961 1_556 S
C175 H191 0.961 . S
C176 C177 1.370 . S
C176 C178 1.363 . S
C176 H192 0.931 . S
C177 C176 1.370 . S
C177 C181 1.408 . S
C178 C176 1.363 . S
C178 C179 1.370 . S
C178 C182 1.524 . S
C179 C171 1.503 1_554 S
C179 C178 1.370 . S
C179 C180 1.403 . S
C180 C179 1.403 . S
C180 C181 1.404 . S
C180 C183 1.539 1_554 S
C181 C177 1.408 . S
C181 C180 1.404 . S
C181 H193 0.930 . S
C182 C178 1.524 . S
C182 H194 0.956 . S
C182 H195 0.961 . S
C182 H196 0.961 . S
C183 C180 1.539 1_556 S
C183 H197 0.958 . S
C183 H198 0.961 . S
C183 H199 0.960 . S
H184 C168 0.931 . S
H185 C173 0.929 . S
H186 C174 0.990 . S
H187 C174 0.962 1_554 S
H188 C174 0.960 . S
H189 C175 0.961 . S
H190 C175 0.961 1_554 S
H191 C175 0.961 . S
H192 C176 0.931 . S
H193 C181 0.930 . S
H194 C182 0.956 . S
H195 C182 0.961 . S
H196 C182 0.961 . S
H197 C183 0.958 . S
H198 C183 0.961 . S
H199 C183 0.960 . S
C200 C201 1.391 . S
C200 C202 1.394 . S
C200 H216 0.931 . S
C201 C200 1.391 . S
C201 C205 1.376 . S
C202 C200 1.394 . S
C202 C203 1.369 . S
C202 C206 1.531 . S
C203 C202 1.369 . S
C203 C204 1.410 . S
C203 C211 1.503 . S
C204 C203 1.410 . S
C204 C205 1.392 . S
C204 C207 1.511 . S
C205 C201 1.376 . S
C205 C204 1.392 . S
C205 H217 0.929 . S
C206 C202 1.531 . S
C206 H218 0.960 . S
C206 H219 0.962 . S
C206 H220 0.960 . S
C207 C204 1.511 . S
C207 H221 0.961 . S
C207 H222 0.961 . S
C207 H223 0.961 . S
C208 C209 1.370 . S
C208 C210 1.363 . S
C208 H224 0.931 . S
C209 C208 1.370 . S
C209 C213 1.408 . S
C210 C208 1.363 . S
C210 C211 1.370 . S
C210 C214 1.524 . S
C211 C203 1.503 . S
C211 C210 1.370 . S
C211 C212 1.403 . S
C212 C211 1.403 . S
C212 C213 1.404 . S
C212 C215 1.539 . S
C213 C209 1.408 . S
C213 C212 1.404 . S
C213 H225 0.930 . S
C214 C210 1.524 . S
C214 H226 0.956 . S
C214 H227 0.961 . S
C214 H228 0.961 . S
C215 C212 1.539 . S
C215 H229 0.958 . S
C215 H230 0.961 . S
C215 H231 0.960 . S
H216 C200 0.931 . S
H217 C205 0.929 . S
H218 C206 0.960 . S
H219 C206 0.962 . S
H220 C206 0.960 . S
H221 C207 0.961 . S
H222 C207 0.961 . S
H223 C207 0.961 . S
H224 C208 0.931 . S
H225 C213 0.930 . S
H226 C214 0.956 . S
H227 C214 0.961 . S
H228 C214 0.961 . S
H229 C215 0.958 . S
H230 C215 0.961 . S
H231 C215 0.960 . S
C232 C233 1.391 . S
C232 C234 1.394 . S
C232 H248 0.931 . S
C233 C232 1.391 . S
C233 C237 1.376 . S
C234 C232 1.394 . S
C234 C235 1.369 . S
C234 C238 1.531 . S
C235 C234 1.369 . S
C235 C236 1.410 . S
C235 C243 1.503 . S
C236 C235 1.410 . S
C236 C237 1.392 . S
C236 C239 1.511 . S
C237 C233 1.376 . S
C237 C236 1.392 . S
C237 H249 0.929 . S
C238 C234 1.531 . S
C238 H250 0.960 . S
C238 H251 0.962 . S
C238 H252 0.960 . S
C239 C236 1.511 . S
C239 H253 0.961 . S
C239 H254 0.961 . S
C239 H255 0.961 . S
C240 C241 1.370 . S
C240 C242 1.363 . S
C240 H256 0.931 . S
C241 C240 1.370 . S
C241 C245 1.408 . S
C242 C240 1.363 . S
C242 C243 1.370 . S
C242 C246 1.524 . S
C243 C235 1.503 . S
C243 C242 1.370 . S
C243 C244 1.403 . S
C244 C243 1.403 . S
C244 C245 1.404 . S
C244 C247 1.539 . S
C245 C241 1.408 . S
C245 C244 1.404 . S
C245 H257 0.930 . S
C246 C242 1.524 . S
C246 H258 0.956 . S
C246 H259 0.961 . S
C246 H260 0.961 . S
C247 C244 1.539 . S
C247 H261 0.958 . S
C247 H262 0.961 . S
C247 H263 0.960 . S
H248 C232 0.931 . S
H249 C237 0.929 . S
H250 C238 0.960 . S
H251 C238 0.962 . S
H252 C238 0.960 . S
H253 C239 0.961 . S
H254 C239 0.961 . S
H255 C239 0.961 . S
H256 C240 0.931 . S
H257 C245 0.930 . S
H258 C246 0.956 . S
H259 C246 0.961 . S
H260 C246 0.961 . S
H261 C247 0.958 . S
H262 C247 0.961 . S
H263 C247 0.960 . S
C264 C265 1.391 . S
C264 C266 1.394 . S
C264 H280 0.931 . S
C265 C264 1.391 . S
C265 C269 1.376 . S
C266 C264 1.394 . S
C266 C267 1.369 . S
C266 C270 1.531 . S
C267 C266 1.369 . S
C267 C268 1.410 . S
C267 C275 1.503 1_554 S
C268 C267 1.410 . S
C268 C269 1.392 . S
C268 C271 1.511 1_554 S
C269 C265 1.376 . S
C269 C268 1.392 . S
C269 H281 0.929 . S
C270 C266 1.531 . S
C270 H282 0.960 . S
C270 H283 0.962 . S
C270 H284 0.960 . S
C271 C268 1.511 1_556 S
C271 H285 0.961 . S
C271 H286 0.961 . S
C271 H287 0.961 . S
C272 C273 1.370 . S
C272 C274 1.363 . S
C272 H288 0.931 . S
C273 C272 1.370 . S
C273 C277 1.408 . S
C274 C272 1.363 . S
C274 C275 1.370 . S
C274 C278 1.524 . S
C275 C267 1.503 1_556 S
C275 C274 1.370 . S
C275 C276 1.403 . S
C276 C275 1.403 . S
C276 C277 1.404 . S
C276 C279 1.539 . S
C277 C273 1.408 . S
C277 C276 1.404 . S
C277 H289 0.930 . S
C278 C274 1.524 . S
C278 H290 0.956 . S
C278 H291 0.961 . S
C278 H292 0.961 . S
C279 C276 1.539 . S
C279 H293 0.958 1_556 S
C279 H294 0.961 . S
C279 H295 0.960 1_556 S
H280 C264 0.931 . S
H281 C269 0.929 . S
H282 C270 0.960 . S
H283 C270 0.962 . S
H284 C270 0.960 . S
H285 C271 0.961 . S
H286 C271 0.961 . S
H287 C271 0.961 . S
H288 C272 0.931 . S
H289 C277 0.930 . S
H290 C278 0.956 . S
H291 C278 0.961 . S
H292 C278 0.961 . S
H293 C279 0.958 1_554 S
H294 C279 0.961 . S
H295 C279 0.960 1_554 S
C296 C297 1.391 . S
C296 C298 1.394 . S
C296 H312 0.931 . S
C297 C296 1.391 . S
C297 C301 1.376 . S
C298 C296 1.394 . S
C298 C299 1.369 . S
C298 C302 1.531 . S
C299 C298 1.369 . S
C299 C300 1.410 . S
C299 C307 1.503 . S
C300 C299 1.410 . S
C300 C301 1.392 . S
C300 C303 1.511 . S
C301 C297 1.376 . S
C301 C300 1.392 . S
C301 H313 0.929 . S
C302 C298 1.531 . S
C302 H314 0.960 . S
C302 H315 0.962 . S
C302 H316 0.960 . S
C303 C300 1.511 . S
C303 H317 0.961 . S
C303 H318 0.961 . S
C303 H319 0.961 . S
C304 C305 1.370 . S
C304 C306 1.363 . S
C304 H320 0.931 . S
C305 C304 1.370 . S
C305 C309 1.408 . S
C306 C304 1.363 . S
C306 C307 1.370 . S
C306 C310 1.524 . S
C307 C299 1.503 . S
C307 C306 1.370 . S
C307 C308 1.403 . S
C308 C307 1.403 . S
C308 C309 1.404 . S
C308 C311 1.539 . S
C309 C305 1.408 . S
C309 C308 1.404 . S
C309 H321 0.930 . S
C310 C306 1.524 . S
C310 H322 0.956 . S
C310 H323 0.961 . S
C310 H324 0.961 . S
C311 C308 1.539 . S
C311 H325 0.958 . S
C311 H326 0.961 . S
C311 H327 0.960 . S
H312 C296 0.931 . S
H313 C301 0.929 . S
H314 C302 0.960 . S
H315 C302 0.962 . S
H316 C302 0.960 . S
H317 C303 0.961 . S
H318 C303 0.961 . S
H319 C303 0.961 . S
H320 C304 0.931 . S
H321 C309 0.930 . S
H322 C310 0.956 . S
H323 C310 0.961 . S
H324 C310 0.961 . S
H325 C311 0.958 . S
H326 C311 0.961 . S
H327 C311 0.960 . S
C328 C329 1.391 . S
C328 C330 1.394 . S
C328 H344 0.931 . S
C329 C328 1.391 . S
C329 C333 1.376 . S
C330 C328 1.394 . S
C330 C331 1.369 . S
C330 C334 1.531 . S
C331 C330 1.369 . S
C331 C332 1.410 . S
C331 C339 1.503 . S
C332 C331 1.410 . S
C332 C333 1.392 . S
C332 C335 1.511 . S
C333 C329 1.376 . S
C333 C332 1.392 . S
C333 H345 0.929 . S
C334 C330 1.531 . S
C334 H346 0.960 . S
C334 H347 0.962 . S
C334 H348 0.960 . S
C335 C332 1.511 . S
C335 H349 0.961 . S
C335 H350 0.961 . S
C335 H351 0.961 . S
C336 C337 1.370 . S
C336 C338 1.363 . S
C336 H352 0.931 . S
C337 C336 1.370 . S
C337 C341 1.408 . S
C338 C336 1.363 . S
C338 C339 1.370 . S
C338 C342 1.524 . S
C339 C331 1.503 . S
C339 C338 1.370 . S
C339 C340 1.403 . S
C340 C339 1.403 . S
C340 C341 1.404 . S
C340 C343 1.539 . S
C341 C337 1.408 . S
C341 C340 1.404 . S
C341 H353 0.930 . S
C342 C338 1.524 . S
C342 H354 0.956 . S
C342 H355 0.961 . S
C342 H356 0.961 . S
C343 C340 1.539 . S
C343 H357 0.958 . S
C343 H358 0.961 . S
C343 H359 0.960 . S
H344 C328 0.931 . S
H345 C333 0.929 . S
H346 C334 0.960 . S
H347 C334 0.962 . S
H348 C334 0.960 . S
H349 C335 0.961 . S
H350 C335 0.961 . S
H351 C335 0.961 . S
H352 C336 0.931 . S
H353 C341 0.930 . S
H354 C342 0.956 . S
H355 C342 0.961 . S
H356 C342 0.961 . S
H357 C343 0.958 . S
H358 C343 0.961 . S
H359 C343 0.960 . S
C360 C361 1.391 . S
C360 C362 1.394 . S
C360 H376 0.931 . S
C361 C360 1.391 . S
C361 C365 1.376 . S
C362 C360 1.394 . S
C362 C363 1.369 . S
C362 C366 1.531 . S
C363 C362 1.369 . S
C363 C364 1.410 . S
C363 C371 1.503 . S
C364 C363 1.410 . S
C364 C365 1.392 . S
C364 C367 1.511 . S
C365 C361 1.376 . S
C365 C364 1.392 . S
C365 H377 0.929 . S
C366 C362 1.531 . S
C366 H378 0.960 . S
C366 H379 0.962 . S
C366 H380 0.960 . S
C367 C364 1.511 . S
C367 H381 0.961 . S
C367 H382 0.961 . S
C367 H383 0.961 . S
C368 C369 1.370 . S
C368 C370 1.363 . S
C368 H384 0.931 . S
C369 C368 1.370 . S
C369 C373 1.408 . S
C370 C368 1.363 . S
C370 C371 1.370 . S
C370 C374 1.524 . S
C371 C363 1.503 . S
C371 C370 1.370 . S
C371 C372 1.403 . S
C372 C371 1.403 . S
C372 C373 1.404 . S
C372 C375 1.539 . S
C373 C369 1.408 . S
C373 C372 1.404 . S
C373 H385 0.930 . S
C374 C370 1.524 . S
C374 H386 0.956 . S
C374 H387 0.961 . S
C374 H388 0.961 . S
C375 C372 1.539 . S
C375 H389 0.958 . S
C375 H390 0.961 . S
C375 H391 0.960 . S
H376 C360 0.931 . S
H377 C365 0.929 . S
H378 C366 0.960 . S
H379 C366 0.962 . S
H380 C366 0.960 . S
H381 C367 0.961 . S
H382 C367 0.961 . S
H383 C367 0.961 . S
H384 C368 0.931 . S
H385 C373 0.930 . S
H386 C374 0.956 . S
H387 C374 0.961 . S
H388 C374 0.961 . S
H389 C375 0.958 . S
H390 C375 0.961 . S
H391 C375 0.960 . S
C392 C393 1.391 . S
C392 C394 1.394 . S
C392 H408 0.931 . S
C393 C392 1.391 . S
C393 C397 1.376 . S
C394 C392 1.394 . S
C394 C395 1.369 . S
C394 C398 1.531 . S
C395 C394 1.369 . S
C395 C396 1.410 . S
C395 C403 1.503 . S
C396 C395 1.410 . S
C396 C397 1.392 . S
C396 C399 1.511 . S
C397 C393 1.376 . S
C397 C396 1.392 . S
C397 H409 0.929 . S
C398 C394 1.531 . S
C398 H410 0.960 . S
C398 H411 0.962 . S
C398 H412 0.960 . S
C399 C396 1.511 . S
C399 H413 0.961 . S
C399 H414 0.961 . S
C399 H415 0.961 . S
C400 C401 1.370 . S
C400 C402 1.363 . S
C400 H416 0.931 . S
C401 C400 1.370 . S
C401 C405 1.408 . S
C402 C400 1.363 . S
C402 C403 1.370 . S
C402 C406 1.524 . S
C403 C395 1.503 . S
C403 C402 1.370 . S
C403 C404 1.403 . S
C404 C403 1.403 . S
C404 C405 1.404 . S
C404 C407 1.539 . S
C405 C401 1.408 . S
C405 C404 1.404 . S
C405 H417 0.930 . S
C406 C402 1.524 . S
C406 H418 0.956 . S
C406 H419 0.961 . S
C406 H420 0.961 . S
C407 C404 1.539 . S
C407 H421 0.958 . S
C407 H422 0.961 . S
C407 H423 0.960 . S
H408 C392 0.931 . S
H409 C397 0.929 . S
H410 C398 0.960 . S
H411 C398 0.962 . S
H412 C398 0.960 . S
H413 C399 0.961 . S
H414 C399 0.961 . S
H415 C399 0.961 . S
H416 C400 0.931 . S
H417 C405 0.930 . S
H418 C406 0.956 . S
H419 C406 0.961 . S
H420 C406 0.961 . S
H421 C407 0.958 . S
H422 C407 0.961 . S
H423 C407 0.960 . S
C424 C425 1.391 . S
C424 C426 1.394 . S
C424 H440 0.931 . S
C425 C424 1.391 . S
C425 C429 1.376 . S
C426 C424 1.394 . S
C426 C427 1.369 . S
C426 C430 1.531 . S
C427 C426 1.369 . S
C427 C428 1.410 . S
C427 C435 1.503 . S
C428 C427 1.410 . S
C428 C429 1.392 . S
C428 C431 1.511 . S
C429 C425 1.376 . S
C429 C428 1.392 . S
C429 H441 0.929 . S
C430 C426 1.531 . S
C430 H442 0.960 . S
C430 H443 0.962 . S
C430 H444 0.960 . S
C431 C428 1.511 . S
C431 H445 0.961 . S
C431 H446 0.961 . S
C431 H447 0.961 . S
C432 C433 1.370 . S
C432 C434 1.363 . S
C432 H448 0.931 . S
C433 C432 1.370 . S
C433 C437 1.408 . S
C434 C432 1.363 . S
C434 C435 1.370 . S
C434 C438 1.524 . S
C435 C427 1.503 . S
C435 C434 1.370 . S
C435 C436 1.403 . S
C436 C435 1.403 . S
C436 C437 1.404 . S
C436 C439 1.539 . S
C437 C433 1.408 . S
C437 C436 1.404 . S
C437 H449 0.930 . S
C438 C434 1.524 . S
C438 H450 0.956 . S
C438 H451 0.961 . S
C438 H452 0.961 . S
C439 C436 1.539 . S
C439 H453 0.958 . S
C439 H454 0.961 . S
C439 H455 0.960 . S
H440 C424 0.931 . S
H441 C429 0.929 . S
H442 C430 0.960 . S
H443 C430 0.962 . S
H444 C430 0.960 . S
H445 C431 0.961 . S
H446 C431 0.961 . S
H447 C431 0.961 . S
H448 C432 0.931 . S
H449 C437 0.930 . S
H450 C438 0.956 . S
H451 C438 0.961 . S
H452 C438 0.961 . S
H453 C439 0.958 . S
H454 C439 0.961 . S
H455 C439 0.960 . S
C456 C457 1.391 . S
C456 C458 1.394 . S
C456 H472 0.931 . S
C457 C456 1.391 . S
C457 C461 1.376 . S
C458 C456 1.394 . S
C458 C459 1.369 . S
C458 C462 1.531 . S
C459 C458 1.369 . S
C459 C460 1.410 . S
C459 C467 1.503 . S
C460 C459 1.410 . S
C460 C461 1.392 . S
C460 C463 1.511 . S
C461 C457 1.376 . S
C461 C460 1.392 . S
C461 H473 0.929 . S
C462 C458 1.531 . S
C462 H474 0.960 . S
C462 H475 0.962 . S
C462 H476 0.960 . S
C463 C460 1.511 . S
C463 H477 0.961 . S
C463 H478 0.961 . S
C463 H479 0.961 . S
C464 C465 1.370 . S
C464 C466 1.363 . S
C464 H480 0.931 . S
C465 C464 1.370 . S
C465 C469 1.408 . S
C466 C464 1.363 . S
C466 C467 1.370 . S
C466 C470 1.524 . S
C467 C459 1.503 . S
C467 C466 1.370 . S
C467 C468 1.403 . S
C468 C467 1.403 . S
C468 C469 1.404 . S
C468 C471 1.539 . S
C469 C465 1.408 . S
C469 C468 1.404 . S
C469 H481 0.930 . S
C470 C466 1.524 . S
C470 H482 0.956 . S
C470 H483 0.961 . S
C470 H484 0.961 . S
C471 C468 1.539 . S
C471 H485 0.958 . S
C471 H486 0.961 . S
C471 H487 0.960 . S
H472 C456 0.931 . S
H473 C461 0.929 . S
H474 C462 0.960 . S
H475 C462 0.962 . S
H476 C462 0.960 . S
H477 C463 0.961 . S
H478 C463 0.961 . S
H479 C463 0.961 . S
H480 C464 0.931 . S
H481 C469 0.930 . S
H482 C470 0.956 . S
H483 C470 0.961 . S
H484 C470 0.961 . S
H485 C471 0.958 . S
H486 C471 0.961 . S
H487 C471 0.960 . S
C488 C489 1.391 . S
C488 C490 1.394 . S
C488 H504 0.931 . S
C489 C488 1.391 . S
C489 C493 1.376 . S
C490 C488 1.394 . S
C490 C491 1.369 . S
C490 C494 1.531 . S
C491 C490 1.369 . S
C491 C492 1.410 . S
C491 C499 1.503 . S
C492 C491 1.410 . S
C492 C493 1.392 . S
C492 C495 1.511 . S
C493 C489 1.376 . S
C493 C492 1.392 . S
C493 H505 0.929 . S
C494 C490 1.531 . S
C494 H506 0.960 . S
C494 H507 0.962 . S
C494 H508 0.960 . S
C495 C492 1.511 . S
C495 H509 0.961 . S
C495 H510 0.961 . S
C495 H511 0.961 . S
C496 C497 1.370 . S
C496 C498 1.363 . S
C496 H512 0.931 . S
C497 C496 1.370 . S
C497 C501 1.408 . S
C498 C496 1.363 . S
C498 C499 1.370 . S
C498 C502 1.524 . S
C499 C491 1.503 . S
C499 C498 1.370 . S
C499 C500 1.403 . S
C500 C499 1.403 . S
C500 C501 1.404 . S
C500 C503 1.539 . S
C501 C497 1.408 . S
C501 C500 1.404 . S
C501 H513 0.930 . S
C502 C498 1.524 . S
C502 H514 0.956 . S
C502 H515 0.961 . S
C502 H516 0.961 . S
C503 C500 1.539 . S
C503 H517 0.958 . S
C503 H518 0.961 . S
C503 H519 0.960 . S
H504 C488 0.931 . S
H505 C493 0.929 . S
H506 C494 0.960 . S
H507 C494 0.962 . S
H508 C494 0.960 . S
H509 C495 0.961 . S
H510 C495 0.961 . S
H511 C495 0.961 . S
H512 C496 0.931 . S
H513 C501 0.930 . S
H514 C502 0.956 . S
H515 C502 0.961 . S
H516 C502 0.961 . S
H517 C503 0.958 . S
H518 C503 0.961 . S
H519 C503 0.960 . S
C520 C521 1.391 . S
C520 C522 1.394 . S
C520 H536 0.931 . S
C521 C520 1.391 . S
C521 C525 1.376 . S
C522 C520 1.394 . S
C522 C523 1.369 . S
C522 C526 1.531 . S
C523 C522 1.369 . S
C523 C524 1.410 . S
C523 C531 1.503 . S
C524 C523 1.410 . S
C524 C525 1.392 . S
C524 C527 1.511 . S
C525 C521 1.376 . S
C525 C524 1.392 . S
C525 H537 0.929 . S
C526 C522 1.531 . S
C526 H538 0.960 . S
C526 H539 0.962 . S
C526 H540 0.960 . S
C527 C524 1.511 . S
C527 H541 0.961 . S
C527 H542 0.961 . S
C527 H543 0.961 . S
C528 C529 1.370 . S
C528 C530 1.363 . S
C528 H544 0.931 . S
C529 C528 1.370 . S
C529 C533 1.408 . S
C530 C528 1.363 . S
C530 C531 1.370 . S
C530 C534 1.524 . S
C531 C523 1.503 . S
C531 C530 1.370 . S
C531 C532 1.403 . S
C532 C531 1.403 . S
C532 C533 1.404 . S
C532 C535 1.539 . S
C533 C529 1.408 . S
C533 C532 1.404 . S
C533 H545 0.930 . S
C534 C530 1.524 . S
C534 H546 0.956 . S
C534 H547 0.961 . S
C534 H548 0.961 . S
C535 C532 1.539 . S
C535 H549 0.958 . S
C535 H550 0.961 . S
C535 H551 0.960 . S
H536 C520 0.931 . S
H537 C525 0.929 . S
H538 C526 0.960 . S
H539 C526 0.962 . S
H540 C526 0.960 . S
H541 C527 0.961 . S
H542 C527 0.961 . S
H543 C527 0.961 . S
H544 C528 0.931 . S
H545 C533 0.930 . S
H546 C534 0.956 . S
H547 C534 0.961 . S
H548 C534 0.961 . S
H549 C535 0.958 . S
H550 C535 0.961 . S
H551 C535 0.960 . S
C552 C553 1.391 . S
C552 C554 1.394 . S
C552 H568 0.931 . S
C553 C552 1.391 . S
C553 C557 1.376 . S
C554 C552 1.394 . S
C554 C555 1.369 . S
C554 C558 1.531 . S
C555 C554 1.369 . S
C555 C556 1.410 . S
C555 C563 1.503 . S
C556 C555 1.410 . S
C556 C557 1.392 . S
C556 C559 1.511 . S
C557 C553 1.376 . S
C557 C556 1.392 . S
C557 H569 0.929 . S
C558 C554 1.531 . S
C558 H570 0.960 . S
C558 H571 0.962 . S
C558 H572 0.960 . S
C559 C556 1.511 . S
C559 H573 0.961 . S
C559 H574 0.961 . S
C559 H575 0.961 . S
C560 C561 1.370 . S
C560 C562 1.363 1_455 S
C560 H576 0.931 . S
C561 C560 1.370 . S
C561 C565 1.408 . S
C562 C560 1.363 1_655 S
C562 C563 1.370 . S
C562 C566 1.524 . S
C563 C555 1.503 . S
C563 C562 1.370 . S
C563 C564 1.403 1_655 S
C564 C563 1.403 1_455 S
C564 C565 1.404 . S
C564 C567 1.539 1_455 S
C565 C561 1.408 . S
C565 C564 1.404 . S
C565 H577 0.930 . S
C566 C562 1.524 . S
C566 H578 0.956 . S
C566 H579 0.961 . S
C566 H580 0.961 . S
C567 C564 1.539 1_655 S
C567 H581 0.958 . S
C567 H582 0.961 1_655 S
C567 H583 0.960 . S
H568 C552 0.931 . S
H569 C557 0.929 . S
H570 C558 0.960 . S
H571 C558 0.962 . S
H572 C558 0.960 . S
H573 C559 0.961 . S
H574 C559 0.961 . S
H575 C559 0.961 . S
H576 C560 0.931 . S
H577 C565 0.930 . S
H578 C566 0.956 . S
H579 C566 0.961 . S
H580 C566 0.961 . S
H581 C567 0.958 . S
H582 C567 0.961 1_455 S
H583 C567 0.960 . S
C584 C585 1.391 . S
C584 C586 1.394 . S
C584 H600 0.931 . S
C585 C584 1.391 . S
C585 C589 1.376 . S
C586 C584 1.394 . S
C586 C587 1.369 . S
C586 C590 1.531 . S
C587 C586 1.369 . S
C587 C588 1.410 . S
C587 C595 1.503 1_545 S
C588 C587 1.410 . S
C588 C589 1.392 . S
C588 C591 1.511 . S
C589 C585 1.376 . S
C589 C588 1.392 . S
C589 H601 0.929 . S
C590 C586 1.531 . S
C590 H602 0.960 . S
C590 H603 0.962 . S
C590 H604 0.960 . S
C591 C588 1.511 . S
C591 H605 0.961 . S
C591 H606 0.961 . S
C591 H607 0.961 . S
C592 C593 1.370 . S
C592 C594 1.363 . S
C592 H608 0.931 . S
C593 C592 1.370 . S
C593 C597 1.408 . S
C594 C592 1.363 . S
C594 C595 1.370 . S
C594 C598 1.524 . S
C595 C587 1.503 1_565 S
C595 C594 1.370 . S
C595 C596 1.403 . S
C596 C595 1.403 . S
C596 C597 1.404 . S
C596 C599 1.539 . S
C597 C593 1.408 . S
C597 C596 1.404 . S
C597 H609 0.930 . S
C598 C594 1.524 . S
C598 H610 0.956 . S
C598 H611 0.961 1_565 S
C598 H612 0.961 . S
C599 C596 1.539 . S
C599 H613 0.958 . S
C599 H614 0.961 . S
C599 H615 0.960 1_565 S
H600 C584 0.931 . S
H601 C589 0.929 . S
H602 C590 0.960 . S
H603 C590 0.962 . S
H604 C590 0.960 . S
H605 C591 0.961 . S
H606 C591 0.961 . S
H607 C591 0.961 . S
H608 C592 0.931 . S
H609 C597 0.930 . S
H610 C598 0.956 . S
H611 C598 0.961 1_545 S
H612 C598 0.961 . S
H613 C599 0.958 . S
H614 C599 0.961 . S
H615 C599 0.960 1_545 S
C616 C617 1.391 . S
C616 C618 1.394 . S
C616 H632 0.931 . S
C617 C616 1.391 . S
C617 C621 1.376 . S
C618 C616 1.394 . S
C618 C619 1.369 . S
C618 C622 1.531 . S
C619 C618 1.369 . S
C619 C620 1.410 . S
C619 C627 1.503 . S
C620 C619 1.410 . S
C620 C621 1.392 . S
C620 C623 1.511 . S
C621 C617 1.376 . S
C621 C620 1.392 . S
C621 H633 0.929 . S
C622 C618 1.531 . S
C622 H634 0.960 . S
C622 H635 0.962 . S
C622 H636 0.960 . S
C623 C620 1.511 . S
C623 H637 0.961 . S
C623 H638 0.961 . S
C623 H639 0.961 . S
C624 C625 1.370 . S
C624 C626 1.363 . S
C624 H640 0.931 . S
C625 C624 1.370 . S
C625 C629 1.408 . S
C626 C624 1.363 . S
C626 C627 1.370 . S
C626 C630 1.524 . S
C627 C619 1.503 . S
C627 C626 1.370 . S
C627 C628 1.403 . S
C628 C627 1.403 . S
C628 C629 1.404 . S
C628 C631 1.539 . S
C629 C625 1.408 . S
C629 C628 1.404 . S
C629 H641 0.930 . S
C630 C626 1.524 . S
C630 H642 0.956 . S
C630 H643 0.961 . S
C630 H644 0.961 . S
C631 C628 1.539 . S
C631 H645 0.958 . S
C631 H646 0.961 . S
C631 H647 0.960 . S
H632 C616 0.931 . S
H633 C621 0.929 . S
H634 C622 0.960 . S
H635 C622 0.962 . S
H636 C622 0.960 . S
H637 C623 0.961 . S
H638 C623 0.961 . S
H639 C623 0.961 . S
H640 C624 0.931 . S
H641 C629 0.930 . S
H642 C630 0.956 . S
H643 C630 0.961 . S
H644 C630 0.961 . S
H645 C631 0.958 . S
H646 C631 0.961 . S
H647 C631 0.960 . S
C648 C649 1.391 . S
C648 C650 1.394 . S
C648 H664 0.931 . S
C649 C648 1.391 . S
C649 C653 1.376 . S
C650 C648 1.394 . S
C650 C651 1.369 . S
C650 C654 1.531 . S
C651 C650 1.369 . S
C651 C652 1.410 . S
C651 C659 1.503 . S
C652 C651 1.410 . S
C652 C653 1.392 . S
C652 C655 1.511 . S
C653 C649 1.376 . S
C653 C652 1.392 . S
C653 H665 0.929 . S
C654 C650 1.531 . S
C654 H666 0.960 . S
C654 H667 0.962 . S
C654 H668 0.960 . S
C655 C652 1.511 . S
C655 H669 0.961 . S
C655 H670 0.961 . S
C655 H671 0.961 . S
C656 C657 1.370 . S
C656 C658 1.363 1_565 S
C656 H672 0.931 . S
C657 C656 1.370 . S
C657 C661 1.408 . S
C658 C656 1.363 1_545 S
C658 C659 1.370 . S
C658 C662 1.524 . S
C659 C651 1.503 . S
C659 C658 1.370 . S
C659 C660 1.403 1_545 S
C660 C659 1.403 1_565 S
C660 C661 1.404 . S
C660 C663 1.539 1_565 S
C661 C657 1.408 . S
C661 C660 1.404 . S
C661 H673 0.930 . S
C662 C658 1.524 . S
C662 H674 0.956 . S
C662 H675 0.961 . S
C662 H676 0.961 . S
C663 C660 1.539 1_545 S
C663 H677 0.958 . S
C663 H678 0.961 1_545 S
C663 H679 0.960 . S
H664 C648 0.931 . S
H665 C653 0.929 . S
H666 C654 0.960 . S
H667 C654 0.962 . S
H668 C654 0.960 . S
H669 C655 0.961 . S
H670 C655 0.961 . S
H671 C655 0.961 . S
H672 C656 0.931 . S
H673 C661 0.930 . S
H674 C662 0.956 . S
H675 C662 0.961 . S
H676 C662 0.961 . S
H677 C663 0.958 . S
H678 C663 0.961 1_565 S
H679 C663 0.960 . S
C680 C681 1.391 . S
C680 C682 1.394 . S
C680 H696 0.931 . S
C681 C680 1.391 . S
C681 C685 1.376 . S
C682 C680 1.394 . S
C682 C683 1.369 . S
C682 C686 1.531 . S
C683 C682 1.369 . S
C683 C684 1.410 . S
C683 C691 1.503 . S
C684 C683 1.410 . S
C684 C685 1.392 . S
C684 C687 1.511 . S
C685 C681 1.376 . S
C685 C684 1.392 . S
C685 H697 0.929 . S
C686 C682 1.531 . S
C686 H698 0.960 . S
C686 H699 0.962 . S
C686 H700 0.960 . S
C687 C684 1.511 . S
C687 H701 0.961 . S
C687 H702 0.961 . S
C687 H703 0.961 . S
C688 C689 1.370 . S
C688 C690 1.363 . S
C688 H704 0.931 . S
C689 C688 1.370 . S
C689 C693 1.408 . S
C690 C688 1.363 . S
C690 C691 1.370 . S
C690 C694 1.524 . S
C691 C683 1.503 . S
C691 C690 1.370 . S
C691 C692 1.403 . S
C692 C691 1.403 . S
C692 C693 1.404 . S
C692 C695 1.539 . S
C693 C689 1.408 . S
C693 C692 1.404 . S
C693 H705 0.930 . S
C694 C690 1.524 . S
C694 H706 0.956 . S
C694 H707 0.961 . S
C694 H708 0.961 . S
C695 C692 1.539 . S
C695 H709 0.958 . S
C695 H710 0.961 . S
C695 H711 0.960 . S
H696 C680 0.931 . S
H697 C685 0.929 . S
H698 C686 0.960 . S
H699 C686 0.962 . S
H700 C686 0.960 . S
H701 C687 0.961 . S
H702 C687 0.961 . S
H703 C687 0.961 . S
H704 C688 0.931 . S
H705 C693 0.930 . S
H706 C694 0.956 . S
H707 C694 0.961 . S
H708 C694 0.961 . S
H709 C695 0.958 . S
H710 C695 0.961 . S
H711 C695 0.960 . S
C712 C713 1.391 . S
C712 C714 1.394 . S
C712 H728 0.931 . S
C713 C712 1.391 . S
C713 C717 1.376 . S
C714 C712 1.394 . S
C714 C715 1.369 . S
C714 C718 1.531 . S
C715 C714 1.369 . S
C715 C716 1.410 . S
C715 C723 1.503 1_455 S
C716 C715 1.410 . S
C716 C717 1.392 . S
C716 C719 1.511 . S
C717 C713 1.376 . S
C717 C716 1.392 . S
C717 H729 0.929 . S
C718 C714 1.531 . S
C718 H730 0.960 1_455 S
C718 H731 0.958 1_455 S
C718 H732 0.960 . S
C719 C716 1.511 . S
C719 H733 0.961 . S
C719 H734 0.961 1_455 S
C719 H735 0.961 . S
C720 C721 1.370 . S
C720 C722 1.363 . S
C720 H736 0.931 . S
C721 C720 1.370 . S
C721 C725 1.408 . S
C722 C720 1.363 . S
C722 C723 1.370 . S
C722 C726 1.524 . S
C723 C715 1.503 1_655 S
C723 C722 1.370 . S
C723 C724 1.403 . S
C724 C723 1.403 . S
C724 C725 1.404 . S
C724 C727 1.539 . S
C725 C721 1.408 . S
C725 C724 1.404 . S
C725 H737 0.930 . S
C726 C722 1.524 . S
C726 H738 0.956 . S
C726 H739 0.961 . S
C726 H740 0.961 . S
C727 C724 1.539 . S
C727 H741 0.958 . S
C727 H742 0.961 . S
C727 H743 0.960 1_655 S
H728 C712 0.931 . S
H729 C717 0.929 . S
H730 C718 0.960 1_655 S
H731 C718 0.958 1_655 S
H732 C718 0.960 . S
H733 C719 0.961 . S
H734 C719 0.961 1_655 S
H735 C719 0.961 . S
H736 C720 0.931 . S
H737 C725 0.930 . S
H738 C726 0.956 . S
H739 C726 0.961 . S
H740 C726 0.961 . S
H741 C727 0.958 . S
H742 C727 0.961 . S
H743 C727 0.960 1_455 S
C744 C745 1.391 . S
C744 C746 1.394 . S
C744 H760 0.931 . S
C745 C744 1.391 . S
C745 C749 1.376 . S
C746 C744 1.394 . S
C746 C747 1.369 . S
C746 C750 1.531 . S
C747 C746 1.369 . S
C747 C748 1.410 . S
C747 C755 1.503 . S
C748 C747 1.410 . S
C748 C749 1.392 . S
C748 C751 1.511 . S
C749 C745 1.376 . S
C749 C748 1.392 . S
C749 H761 0.929 . S
C750 C746 1.531 . S
C750 H762 0.960 . S
C750 H763 0.962 . S
C750 H764 0.960 . S
C751 C748 1.511 . S
C751 H765 0.961 . S
C751 H766 0.961 . S
C751 H767 0.961 . S
C752 C753 1.370 . S
C752 C754 1.363 . S
C752 H768 0.931 . S
C753 C752 1.370 . S
C753 C757 1.408 . S
C754 C752 1.363 . S
C754 C755 1.370 . S
C754 C758 1.524 . S
C755 C747 1.503 . S
C755 C754 1.370 . S
C755 C756 1.403 . S
C756 C755 1.403 . S
C756 C757 1.404 . S
C756 C759 1.539 . S
C757 C753 1.408 . S
C757 C756 1.404 . S
C757 H769 0.930 . S
C758 C754 1.524 . S
C758 H770 0.956 . S
C758 H771 0.961 . S
C758 H772 0.961 . S
C759 C756 1.539 . S
C759 H773 0.958 . S
C759 H774 0.961 . S
C759 H775 0.960 . S
H760 C744 0.931 . S
H761 C749 0.929 . S
H762 C750 0.960 . S
H763 C750 0.962 . S
H764 C750 0.960 . S
H765 C751 0.961 . S
H766 C751 0.961 . S
H767 C751 0.961 . S
H768 C752 0.931 . S
H769 C757 0.930 . S
H770 C758 0.956 . S
H771 C758 0.961 . S
H772 C758 0.961 . S
H773 C759 0.958 . S
H774 C759 0.961 . S
H775 C759 0.960 . S
C776 C777 1.391 . S
C776 C778 1.394 . S
C776 H792 0.931 . S
C777 C776 1.391 . S
C777 C781 1.376 . S
C778 C776 1.394 . S
C778 C779 1.369 . S
C778 C782 1.531 1_655 S
C779 C778 1.369 . S
C779 C780 1.413 . S
C779 C787 1.499 1_655 S
C780 C779 1.413 . S
C780 C781 1.392 . S
C780 C783 1.511 . S
C781 C777 1.376 . S
C781 C780 1.392 . S
C781 H793 0.929 . S
C782 C778 1.531 1_455 S
C782 H794 0.960 . S
C782 H795 0.962 . S
C782 H796 0.960 1_455 S
C783 C780 1.511 . S
C783 H797 0.961 . S
C783 H798 0.961 1_655 S
C783 H799 0.961 . S
C784 C785 1.370 . S
C784 C786 1.363 . S
C784 H800 0.931 . S
C785 C784 1.370 . S
C785 C789 1.408 . S
C786 C784 1.363 . S
C786 C787 1.370 . S
C786 C790 1.524 . S
C787 C779 1.499 1_455 S
C787 C786 1.370 . S
C787 C788 1.403 . S
C788 C787 1.403 . S
C788 C789 1.404 . S
C788 C791 1.539 . S
C789 C785 1.408 . S
C789 C788 1.404 . S
C789 H801 0.930 . S
C790 C786 1.524 . S
C790 H802 0.956 . S
C790 H803 0.961 . S
C790 H804 0.961 . S
C791 C788 1.539 . S
C791 H805 0.958 . S
C791 H806 0.961 . S
C791 H807 0.960 . S
H792 C776 0.931 . S
H793 C781 0.929 . S
H794 C782 0.960 . S
H795 C782 0.962 . S
H796 C782 0.960 1_655 S
H797 C783 0.961 . S
H798 C783 0.961 1_455 S
H799 C783 0.961 . S
H800 C784 0.931 . S
H801 C789 0.930 . S
H802 C790 0.956 . S
H803 C790 0.961 . S
H804 C790 0.961 . S
H805 C791 0.958 . S
H806 C791 0.961 . S
H807 C791 0.960 . S
C808 C809 1.391 . S
C808 C810 1.394 . S
C808 H824 0.931 . S
C809 C808 1.391 . S
C809 C813 1.376 . S
C810 C808 1.394 . S
C810 C811 1.369 . S
C810 C814 1.531 . S
C811 C810 1.369 . S
C811 C812 1.410 . S
C811 C819 1.503 1_545 S
C812 C811 1.410 . S
C812 C813 1.392 . S
C812 C815 1.511 1_545 S
C813 C809 1.376 . S
C813 C812 1.392 . S
C813 H825 0.929 . S
C814 C810 1.531 . S
C814 H826 0.960 1_545 S
C814 H827 0.962 . S
C814 H828 0.960 . S
C815 C812 1.511 1_565 S
C815 H829 0.961 1_565 S
C815 H830 0.961 . S
C815 H831 0.961 . S
C816 C817 1.370 . S
C816 C818 1.363 . S
C816 H832 0.931 . S
C817 C816 1.370 . S
C817 C821 1.408 . S
C818 C816 1.363 . S
C818 C819 1.370 . S
C818 C822 1.524 . S
C819 C811 1.503 1_565 S
C819 C818 1.370 . S
C819 C820 1.403 . S
C820 C819 1.403 . S
C820 C821 1.404 . S
C820 C823 1.539 . S
C821 C817 1.408 . S
C821 C820 1.404 . S
C821 H833 0.930 . S
C822 C818 1.524 . S
C822 H834 0.956 1_565 S
C822 H835 0.961 . S
C822 H836 0.961 . S
C823 C820 1.539 . S
C823 H837 0.958 . S
C823 H838 0.961 . S
C823 H839 0.960 . S
H824 C808 0.931 . S
H825 C813 0.929 . S
H826 C814 0.960 1_565 S
H827 C814 0.962 . S
H828 C814 0.960 . S
H829 C815 0.961 1_545 S
H830 C815 0.961 . S
H831 C815 0.961 . S
H832 C816 0.931 . S
H833 C821 0.930 . S
H834 C822 0.956 1_545 S
H835 C822 0.961 . S
H836 C822 0.961 . S
H837 C823 0.958 . S
H838 C823 0.961 . S
H839 C823 0.960 . S
C840 C841 1.391 . S
C840 C842 1.394 . S
C840 H856 0.931 . S
C841 C840 1.391 . S
C841 C845 1.376 . S
C842 C840 1.394 . S
C842 C843 1.369 . S
C842 C846 1.531 . S
C843 C842 1.369 . S
C843 C844 1.410 . S
C843 C851 1.503 . S
C844 C843 1.410 . S
C844 C845 1.392 . S
C844 C847 1.511 . S
C845 C841 1.376 . S
C845 C844 1.392 . S
C845 H857 0.929 . S
C846 C842 1.531 . S
C846 H858 0.960 . S
C846 H859 0.962 . S
C846 H860 0.960 . S
C847 C844 1.511 . S
C847 H861 0.961 . S
C847 H862 0.961 . S
C847 H863 0.961 . S
C848 C849 1.370 . S
C848 C850 1.363 . S
C848 H864 0.931 . S
C849 C848 1.370 . S
C849 C853 1.408 . S
C850 C848 1.363 . S
C850 C851 1.370 . S
C850 C854 1.524 . S
C851 C843 1.503 . S
C851 C850 1.370 . S
C851 C852 1.403 . S
C852 C851 1.403 . S
C852 C853 1.404 . S
C852 C855 1.539 . S
C853 C849 1.408 . S
C853 C852 1.404 . S
C853 H865 0.930 . S
C854 C850 1.524 . S
C854 H866 0.956 . S
C854 H867 0.961 . S
C854 H868 0.961 . S
C855 C852 1.539 . S
C855 H869 0.958 . S
C855 H870 0.961 . S
C855 H871 0.960 . S
H856 C840 0.931 . S
H857 C845 0.929 . S
H858 C846 0.960 . S
H859 C846 0.962 . S
H860 C846 0.960 . S
H861 C847 0.961 . S
H862 C847 0.961 . S
H863 C847 0.961 . S
H864 C848 0.931 . S
H865 C853 0.930 . S
H866 C854 0.956 . S
H867 C854 0.961 . S
H868 C854 0.961 . S
H869 C855 0.958 . S
H870 C855 0.961 . S
H871 C855 0.960 . S
C872 C873 1.391 . S
C872 C874 1.394 . S
C872 H888 0.931 . S
C873 C872 1.391 . S
C873 C877 1.376 . S
C874 C872 1.394 . S
C874 C875 1.369 . S
C874 C878 1.531 . S
C875 C874 1.369 . S
C875 C876 1.410 . S
C875 C883 1.503 1_455 S
C876 C875 1.410 . S
C876 C877 1.392 . S
C876 C879 1.511 . S
C877 C873 1.376 . S
C877 C876 1.392 . S
C877 H889 0.929 . S
C878 C874 1.531 . S
C878 H890 0.960 1_455 S
C878 H891 0.962 . S
C878 H892 0.960 . S
C879 C876 1.511 . S
C879 H893 0.961 . S
C879 H894 0.961 . S
C879 H895 0.961 . S
C880 C881 1.370 . S
C880 C882 1.363 . S
C880 H896 0.931 . S
C881 C880 1.370 . S
C881 C885 1.408 . S
C882 C880 1.363 . S
C882 C883 1.370 . S
C882 C886 1.524 . S
C883 C875 1.503 1_655 S
C883 C882 1.370 . S
C883 C884 1.403 . S
C884 C883 1.403 . S
C884 C885 1.404 . S
C884 C887 1.539 . S
C885 C881 1.408 . S
C885 C884 1.404 . S
C885 H897 0.930 . S
C886 C882 1.524 . S
C886 H898 0.956 . S
C886 H899 0.961 1_655 S
C886 H900 0.961 . S
C887 C884 1.539 . S
C887 H901 0.958 . S
C887 H902 0.961 . S
C887 H903 0.960 1_655 S
H888 C872 0.931 . S
H889 C877 0.929 . S
H890 C878 0.960 1_655 S
H891 C878 0.962 . S
H892 C878 0.960 . S
H893 C879 0.961 . S
H894 C879 0.961 . S
H895 C879 0.961 . S
H896 C880 0.931 . S
H897 C885 0.930 . S
H898 C886 0.956 . S
H899 C886 0.961 1_455 S
H900 C886 0.961 . S
H901 C887 0.958 . S
H902 C887 0.961 . S
H903 C887 0.960 1_455 S
C904 C905 1.391 . S
C904 C906 1.394 . S
C904 H920 0.931 . S
C905 C904 1.391 . S
C905 C909 1.376 . S
C906 C904 1.394 . S
C906 C907 1.369 . S
C906 C910 1.531 . S
C907 C906 1.369 . S
C907 C908 1.410 . S
C907 C915 1.503 1_565 S
C908 C907 1.410 . S
C908 C909 1.392 . S
C908 C911 1.511 . S
C909 C905 1.376 . S
C909 C908 1.392 . S
C909 H921 0.929 . S
C910 C906 1.531 . S
C910 H922 0.960 . S
C910 H923 0.962 . S
C910 H924 0.960 . S
C911 C908 1.511 . S
C911 H925 0.961 . S
C911 H926 0.961 . S
C911 H927 0.961 . S
C912 C913 1.370 . S
C912 C914 1.363 . S
C912 H928 0.931 . S
C913 C912 1.370 . S
C913 C917 1.408 . S
C914 C912 1.363 . S
C914 C915 1.370 . S
C914 C918 1.524 . S
C915 C907 1.503 1_545 S
C915 C914 1.370 . S
C915 C916 1.403 . S
C916 C915 1.403 . S
C916 C917 1.404 . S
C916 C919 1.539 1_545 S
C917 C913 1.408 . S
C917 C916 1.404 . S
C917 H929 0.930 . S
C918 C914 1.524 . S
C918 H930 0.955 1_545 S
C918 H931 0.942 1_545 S
C918 H932 0.982 . S
C919 C916 1.539 1_565 S
C919 H933 0.958 . S
C919 H934 0.961 1_565 S
C919 H935 0.960 . S
H920 C904 0.931 . S
H921 C909 0.929 . S
H922 C910 0.960 . S
H923 C910 0.962 . S
H924 C910 0.960 . S
H925 C911 0.961 . S
H926 C911 0.961 . S
H927 C911 0.961 . S
H928 C912 0.931 . S
H929 C917 0.930 . S
H930 C918 0.955 1_565 S
H931 C918 0.942 1_565 S
H932 C918 0.982 . S
H933 C919 0.958 . S
H934 C919 0.961 1_545 S
H935 C919 0.960 . S
C169 C147 1.431 . S
C177 C7 1.513 . S
C201 C21 1.303 . S
C209 C161 1.334 . S
C233 C35 1.472 . S
C241 C91 1.506 . S
C265 C49 1.358 . S
C273 C105 1.440 . S
C297 C119 1.151 . S
C305 C63 1.162 . S
C329 C77 1.446 . S
C337 C133 1.382 . S
C361 C115 1.180 . S
C369 C3 1.216 . S
C393 C17 1.523 . S
C401 C129 1.513 . S
C425 C31 1.823 . S
C433 C143 1.776 . S
C457 C45 1.543 . S
C465 C157 1.551 . S
C489 C87 1.185 . S
C497 C59 1.188 . S
C521 C101 1.123 . S
C529 C73 1.155 . S
C553 C51 1.435 . S
C561 C9 1.424 . S
C585 C23 1.441 . S
C593 C65 1.465 . S
C617 C79 1.426 . S
C625 C37 1.403 . S
C649 C135 1.436 . S
C657 C93 1.424 . S
C681 C149 1.432 . S
C689 C107 1.398 . S
C713 C121 1.434 . S
C721 C163 1.468 . S
C745 C50 1.386 . S
C753 C8 1.385 . S
C777 C22 1.436 . S
C785 C64 1.441 . S
C809 C78 1.405 . S
C817 C36 1.407 . S
C841 C92 1.379 . S
C849 C134 1.388 . S
C873 C148 1.405 . S
C881 C106 1.410 . S
C905 C120 1.439 . S
C913 C162 1.439 . S
